# Generated by pormake.
# Topology ukj, (4)-cn, num edge types: 1
# Building blocks:
#     Node 0, Type 0, BuildingBlock: QUQFOY_clean_sbu_1, # of connection points: 4
#     Node 1, Type 0, BuildingBlock: QUQFOY_clean_sbu_1, # of connection points: 4
#     Node 2, Type 0, BuildingBlock: QUQFOY_clean_sbu_1, # of connection points: 4
#     Node 3, Type 0, BuildingBlock: QUQFOY_clean_sbu_1, # of connection points: 4
#     Node 4, Type 0, BuildingBlock: QUQFOY_clean_sbu_1, # of connection points: 4
#     Node 5, Type 0, BuildingBlock: QUQFOY_clean_sbu_1, # of connection points: 4
#     Node 6, Type 0, BuildingBlock: QUQFOY_clean_sbu_1, # of connection points: 4
#     Node 7, Type 0, BuildingBlock: QUQFOY_clean_sbu_1, # of connection points: 4
#     Node 8, Type 0, BuildingBlock: QUQFOY_clean_sbu_1, # of connection points: 4
#     Node 9, Type 0, BuildingBlock: QUQFOY_clean_sbu_1, # of connection points: 4
#     Node 10, Type 0, BuildingBlock: QUQFOY_clean_sbu_1, # of connection points: 4
#     Node 11, Type 0, BuildingBlock: QUQFOY_clean_sbu_1, # of connection points: 4
#     Node 12, Type 0, BuildingBlock: QUQFOY_clean_sbu_1, # of connection points: 4
#     Node 13, Type 0, BuildingBlock: QUQFOY_clean_sbu_1, # of connection points: 4
#     Node 14, Type 0, BuildingBlock: QUQFOY_clean_sbu_1, # of connection points: 4
#     Node 15, Type 0, BuildingBlock: QUQFOY_clean_sbu_1, # of connection points: 4
#     Node 16, Type 0, BuildingBlock: QUQFOY_clean_sbu_1, # of connection points: 4
#     Node 17, Type 0, BuildingBlock: QUQFOY_clean_sbu_1, # of connection points: 4
#     Node 18, Type 0, BuildingBlock: QUQFOY_clean_sbu_1, # of connection points: 4
#     Node 19, Type 0, BuildingBlock: QUQFOY_clean_sbu_1, # of connection points: 4
#     Node 20, Type 0, BuildingBlock: QUQFOY_clean_sbu_1, # of connection points: 4
#     Node 21, Type 0, BuildingBlock: QUQFOY_clean_sbu_1, # of connection points: 4
#     Node 22, Type 0, BuildingBlock: QUQFOY_clean_sbu_1, # of connection points: 4
#     Node 23, Type 0, BuildingBlock: QUQFOY_clean_sbu_1, # of connection points: 4
#     Node 24, Type 0, BuildingBlock: QUQFOY_clean_sbu_1, # of connection points: 4
#     Node 25, Type 0, BuildingBlock: QUQFOY_clean_sbu_1, # of connection points: 4
#     Node 26, Type 0, BuildingBlock: QUQFOY_clean_sbu_1, # of connection points: 4
#     Node 27, Type 0, BuildingBlock: QUQFOY_clean_sbu_1, # of connection points: 4
#     Node 28, Type 0, BuildingBlock: QUQFOY_clean_sbu_1, # of connection points: 4
#     Node 29, Type 0, BuildingBlock: QUQFOY_clean_sbu_1, # of connection points: 4
#     Node 30, Type 0, BuildingBlock: QUQFOY_clean_sbu_1, # of connection points: 4
#     Node 31, Type 0, BuildingBlock: QUQFOY_clean_sbu_1, # of connection points: 4
#     Edge 32, Type (0, 0), BuildingBlock: KIFKEQ_clean_linker_1, # of connection points: 2
#     Edge 33, Type (0, 0), BuildingBlock: KIFKEQ_clean_linker_1, # of connection points: 2
#     Edge 34, Type (0, 0), BuildingBlock: KIFKEQ_clean_linker_1, # of connection points: 2
#     Edge 35, Type (0, 0), BuildingBlock: KIFKEQ_clean_linker_1, # of connection points: 2
#     Edge 36, Type (0, 0), BuildingBlock: KIFKEQ_clean_linker_1, # of connection points: 2
#     Edge 37, Type (0, 0), BuildingBlock: KIFKEQ_clean_linker_1, # of connection points: 2
#     Edge 38, Type (0, 0), BuildingBlock: KIFKEQ_clean_linker_1, # of connection points: 2
#     Edge 39, Type (0, 0), BuildingBlock: KIFKEQ_clean_linker_1, # of connection points: 2
#     Edge 40, Type (0, 0), BuildingBlock: KIFKEQ_clean_linker_1, # of connection points: 2
#     Edge 41, Type (0, 0), BuildingBlock: KIFKEQ_clean_linker_1, # of connection points: 2
#     Edge 42, Type (0, 0), BuildingBlock: KIFKEQ_clean_linker_1, # of connection points: 2
#     Edge 43, Type (0, 0), BuildingBlock: KIFKEQ_clean_linker_1, # of connection points: 2
#     Edge 44, Type (0, 0), BuildingBlock: KIFKEQ_clean_linker_1, # of connection points: 2
#     Edge 45, Type (0, 0), BuildingBlock: KIFKEQ_clean_linker_1, # of connection points: 2
#     Edge 46, Type (0, 0), BuildingBlock: KIFKEQ_clean_linker_1, # of connection points: 2
#     Edge 47, Type (0, 0), BuildingBlock: KIFKEQ_clean_linker_1, # of connection points: 2
#     Edge 48, Type (0, 0), BuildingBlock: KIFKEQ_clean_linker_1, # of connection points: 2
#     Edge 49, Type (0, 0), BuildingBlock: KIFKEQ_clean_linker_1, # of connection points: 2
#     Edge 50, Type (0, 0), BuildingBlock: KIFKEQ_clean_linker_1, # of connection points: 2
#     Edge 51, Type (0, 0), BuildingBlock: KIFKEQ_clean_linker_1, # of connection points: 2
#     Edge 52, Type (0, 0), BuildingBlock: KIFKEQ_clean_linker_1, # of connection points: 2
#     Edge 53, Type (0, 0), BuildingBlock: KIFKEQ_clean_linker_1, # of connection points: 2
#     Edge 54, Type (0, 0), BuildingBlock: KIFKEQ_clean_linker_1, # of connection points: 2
#     Edge 55, Type (0, 0), BuildingBlock: KIFKEQ_clean_linker_1, # of connection points: 2
#     Edge 56, Type (0, 0), BuildingBlock: KIFKEQ_clean_linker_1, # of connection points: 2
#     Edge 57, Type (0, 0), BuildingBlock: KIFKEQ_clean_linker_1, # of connection points: 2
#     Edge 58, Type (0, 0), BuildingBlock: KIFKEQ_clean_linker_1, # of connection points: 2
#     Edge 59, Type (0, 0), BuildingBlock: KIFKEQ_clean_linker_1, # of connection points: 2
#     Edge 60, Type (0, 0), BuildingBlock: KIFKEQ_clean_linker_1, # of connection points: 2
#     Edge 61, Type (0, 0), BuildingBlock: KIFKEQ_clean_linker_1, # of connection points: 2
#     Edge 62, Type (0, 0), BuildingBlock: KIFKEQ_clean_linker_1, # of connection points: 2
#     Edge 63, Type (0, 0), BuildingBlock: KIFKEQ_clean_linker_1, # of connection points: 2
#     Edge 64, Type (0, 0), BuildingBlock: KIFKEQ_clean_linker_1, # of connection points: 2
#     Edge 65, Type (0, 0), BuildingBlock: KIFKEQ_clean_linker_1, # of connection points: 2
#     Edge 66, Type (0, 0), BuildingBlock: KIFKEQ_clean_linker_1, # of connection points: 2
#     Edge 67, Type (0, 0), BuildingBlock: KIFKEQ_clean_linker_1, # of connection points: 2
#     Edge 68, Type (0, 0), BuildingBlock: KIFKEQ_clean_linker_1, # of connection points: 2
#     Edge 69, Type (0, 0), BuildingBlock: KIFKEQ_clean_linker_1, # of connection points: 2
#     Edge 70, Type (0, 0), BuildingBlock: KIFKEQ_clean_linker_1, # of connection points: 2
#     Edge 71, Type (0, 0), BuildingBlock: KIFKEQ_clean_linker_1, # of connection points: 2
#     Edge 72, Type (0, 0), BuildingBlock: KIFKEQ_clean_linker_1, # of connection points: 2
#     Edge 73, Type (0, 0), BuildingBlock: KIFKEQ_clean_linker_1, # of connection points: 2
#     Edge 74, Type (0, 0), BuildingBlock: KIFKEQ_clean_linker_1, # of connection points: 2
#     Edge 75, Type (0, 0), BuildingBlock: KIFKEQ_clean_linker_1, # of connection points: 2
#     Edge 76, Type (0, 0), BuildingBlock: KIFKEQ_clean_linker_1, # of connection points: 2
#     Edge 77, Type (0, 0), BuildingBlock: KIFKEQ_clean_linker_1, # of connection points: 2
#     Edge 78, Type (0, 0), BuildingBlock: KIFKEQ_clean_linker_1, # of connection points: 2
#     Edge 79, Type (0, 0), BuildingBlock: KIFKEQ_clean_linker_1, # of connection points: 2
#     Edge 80, Type (0, 0), BuildingBlock: KIFKEQ_clean_linker_1, # of connection points: 2
#     Edge 81, Type (0, 0), BuildingBlock: KIFKEQ_clean_linker_1, # of connection points: 2
#     Edge 82, Type (0, 0), BuildingBlock: KIFKEQ_clean_linker_1, # of connection points: 2
#     Edge 83, Type (0, 0), BuildingBlock: KIFKEQ_clean_linker_1, # of connection points: 2
#     Edge 84, Type (0, 0), BuildingBlock: KIFKEQ_clean_linker_1, # of connection points: 2
#     Edge 85, Type (0, 0), BuildingBlock: KIFKEQ_clean_linker_1, # of connection points: 2
#     Edge 86, Type (0, 0), BuildingBlock: KIFKEQ_clean_linker_1, # of connection points: 2
#     Edge 87, Type (0, 0), BuildingBlock: KIFKEQ_clean_linker_1, # of connection points: 2
#     Edge 88, Type (0, 0), BuildingBlock: KIFKEQ_clean_linker_1, # of connection points: 2
#     Edge 89, Type (0, 0), BuildingBlock: KIFKEQ_clean_linker_1, # of connection points: 2
#     Edge 90, Type (0, 0), BuildingBlock: KIFKEQ_clean_linker_1, # of connection points: 2
#     Edge 91, Type (0, 0), BuildingBlock: KIFKEQ_clean_linker_1, # of connection points: 2
#     Edge 92, Type (0, 0), BuildingBlock: KIFKEQ_clean_linker_1, # of connection points: 2
#     Edge 93, Type (0, 0), BuildingBlock: KIFKEQ_clean_linker_1, # of connection points: 2
#     Edge 94, Type (0, 0), BuildingBlock: KIFKEQ_clean_linker_1, # of connection points: 2
#     Edge 95, Type (0, 0), BuildingBlock: KIFKEQ_clean_linker_1, # of connection points: 2
# Relax obj value: 0.041
# Max RMSD: 0.112
# Mean RMSD: 0.110
data_MOF--net-ukj--node1-QUQFOY_clean_sbu_1--edge1-KIFKEQ_clean_linker_1
_symmetry_space_group_name_H-M    P1
_symmetry_Int_Tables_number       1
_symmetry_cell_setting            triclinic
loop_
_symmetry_equiv_pos_as_xyz
'x, y, z'
_cell_length_a     26.438542
_cell_length_b     84.544837
_cell_length_c     57.242573
_cell_angle_alpha  89.995167
_cell_angle_beta   90.066587
_cell_angle_gamma 89.992525
loop_
_atom_site_label
_atom_site_type_symbol
_atom_site_fract_x
_atom_site_fract_y
_atom_site_fract_z
_atom_type_partial_charge
O0 O 0.11983 0.35823 0.23999 0.0
Cd1 Cd 0.12835 0.35144 0.2743 0.0
Cd2 Cd 0.08755 0.38004 0.27987 0.0
O3 O 0.0703 0.37907 0.24455 0.0
O4 O 0.13586 0.32779 0.27259 0.0
O5 O 0.06876 0.33958 0.28761 0.0
C6 C 0.09073 0.32667 0.28101 0.0
C7 C 0.03564 0.3841 0.3122 0.0
C8 C 0.09291 0.36923 0.23135 0.0
C9 C 0.19661 0.37663 0.29249 0.0
O10 O 0.16112 0.38589 0.28645 0.0
O11 O 0.18988 0.36168 0.29193 0.0
O12 O 0.04538 0.39548 0.29782 0.0
O13 O 0.05133 0.37007 0.30684 0.0
O14 O 0.12896 0.94041 0.23814 0.0
Cd15 Cd 0.11527 0.94859 0.27132 0.0
Cd16 Cd 0.15346 0.91919 0.28063 0.0
O17 O 0.17015 0.91815 0.24516 0.0
O18 O 0.10623 0.97184 0.26571 0.0
O19 O 0.16979 0.9621 0.28619 0.0
C20 C 0.14837 0.97419 0.27653 0.0
C21 C 0.20575 0.91422 0.31269 0.0
C22 C 0.15247 0.92828 0.23086 0.0
C23 C 0.04347 0.92478 0.29132 0.0
O24 O 0.07924 0.91496 0.2884 0.0
O25 O 0.05035 0.93948 0.28731 0.0
O26 O 0.19216 0.90297 0.29877 0.0
O27 O 0.19376 0.92856 0.30702 0.0
O28 O 0.11763 0.93961 0.0495 0.0
Cd29 Cd 0.12562 0.94651 1.01523 0.0
Cd30 Cd 0.08587 0.91776 1.00961 0.0
O31 O 0.06901 0.91856 0.04504 0.0
O32 O 0.13321 0.97013 1.01713 0.0
O33 O 0.06606 0.95845 1.00194 0.0
C34 C 0.08814 0.97132 1.00863 0.0
C35 C 0.0345 0.91371 0.97701 0.0
C36 C 0.09146 0.92848 0.05822 0.0
C37 C 0.1948 0.92159 0.99714 0.0
O38 O 0.15964 0.91219 1.0031 0.0
O39 O 0.1875 0.93651 0.9977 0.0
O40 O 0.04427 0.90229 0.99136 0.0
O41 O 0.04968 0.92776 0.98258 0.0
O42 O 0.12369 0.35846 0.04972 0.0
Cd43 Cd 0.1157 0.35116 1.01561 0.0
Cd44 Cd 0.15456 0.38008 1.00935 0.0
O45 O 0.17071 0.37984 0.04481 0.0
O46 O 0.11064 0.32752 1.01798 0.0
O47 O 0.17649 0.33978 1.00257 0.0
C48 C 0.15585 0.32675 1.00958 0.0
C49 C 0.20681 0.38639 0.97784 0.0
C50 C 0.14917 0.36985 0.05816 0.0
C51 C 0.04536 0.37531 0.9966 0.0
O52 O 0.08044 0.38484 1.00215 0.0
O53 O 0.05286 0.36042 0.99785 0.0
O54 O 0.19164 0.39711 0.99231 0.0
O55 O 0.19653 0.37179 0.9827 0.0
O56 O 0.87399 0.68957 0.80128 0.0
Cd57 Cd 0.8638 0.69707 0.76735 0.0
Cd58 Cd 0.90404 0.66811 0.76086 0.0
O59 O 0.91989 0.66798 0.79629 0.0
O60 O 0.85434 0.72039 0.77166 0.0
O61 O 0.92037 0.71015 0.75353 0.0
C62 C 0.89798 0.72245 0.76208 0.0
C63 C 0.95757 0.66243 0.72964 0.0
C64 C 0.89908 0.67807 0.80967 0.0
C65 C 0.79473 0.67269 0.74778 0.0
O66 O 0.83026 0.66324 0.75303 0.0
O67 O 0.80127 0.68759 0.74972 0.0
O68 O 0.94231 0.65146 0.74367 0.0
O69 O 0.94648 0.67692 0.73478 0.0
O70 O 0.87325 0.10873 0.79932 0.0
Cd71 Cd 0.88035 0.10086 0.76556 0.0
Cd72 Cd 0.84407 0.13036 0.7578 0.0
O73 O 0.8326 0.13129 0.7937 0.0
O74 O 0.88421 0.07728 0.76872 0.0
O75 O 0.81915 0.08961 0.75265 0.0
C76 C 0.83921 0.07659 0.76004 0.0
C77 C 0.7879 0.1366 0.72774 0.0
C78 C 0.85149 0.12097 0.80737 0.0
C79 C 0.95147 0.1237 0.74331 0.0
O80 O 0.91726 0.13384 0.74748 0.0
O81 O 0.94379 0.10909 0.74752 0.0
O82 O 0.80663 0.14744 0.74109 0.0
O83 O 0.79691 0.122 0.7331 0.0
O84 O 0.88238 0.10893 0.98843 0.0
Cd85 Cd 0.87051 0.10143 0.02223 0.0
Cd86 Cd 0.91107 0.13025 0.02909 0.0
O87 O 0.92929 0.13023 0.99393 0.0
O88 O 0.85931 0.07817 1.01756 0.0
O89 O 0.92536 0.08774 0.03646 0.0
C90 C 0.90233 0.07568 0.02755 0.0
C91 C 0.96293 0.13418 0.06146 0.0
C92 C 0.90846 0.12029 0.9803 0.0
C93 C 0.80139 0.12631 0.04081 0.0
O94 O 0.83719 0.13571 0.03574 0.0
O95 O 0.80789 0.11138 0.03925 0.0
O96 O 0.95212 0.1457 0.04747 0.0
O97 O 0.94818 0.12011 0.05571 0.0
O98 O 0.86844 0.69058 0.99153 0.0
Cd99 Cd 0.87619 0.69739 0.02588 0.0
Cd100 Cd 0.83505 0.66877 0.03133 0.0
O101 O 0.81928 0.66963 0.99588 0.0
O102 O 0.88335 0.72105 0.02433 0.0
O103 O 0.81617 0.70911 0.03901 0.0
C104 C 0.83806 0.72207 0.0326 0.0
C105 C 0.78167 0.66469 0.0631 0.0
C106 C 0.84202 0.6795 0.98278 0.0
C107 C 0.94377 0.67222 0.04478 0.0
O108 O 0.9083 0.66297 0.03871 0.0
O109 O 0.93733 0.68718 0.04383 0.0
O110 O 0.79231 0.65328 0.04889 0.0
O111 O 0.79734 0.67873 0.05782 0.0
O112 O 0.13248 0.85549 0.74254 0.0
Cd113 Cd 0.13352 0.84916 0.77705 0.0
Cd114 Cd 0.09329 0.87793 0.78021 0.0
O115 O 0.08074 0.87592 0.74425 0.0
O116 O 0.1389 0.82546 0.77646 0.0
O117 O 0.07063 0.83816 0.78845 0.0
C118 C 0.09237 0.82494 0.78322 0.0
C119 C 0.03815 0.88252 0.8112 0.0
C120 C 0.10644 0.86605 0.73229 0.0
C121 C 0.1997 0.87396 0.79706 0.0
O122 O 0.16606 0.88341 0.78951 0.0
O123 O 0.19252 0.85905 0.7963 0.0
O124 O 0.04948 0.89371 0.79672 0.0
O125 O 0.05359 0.86838 0.80641 0.0
O126 O 0.11355 0.44144 0.74238 0.0
Cd127 Cd 0.11001 0.44794 0.77691 0.0
Cd128 Cd 0.15222 0.41969 0.77951 0.0
O129 O 0.1675 0.4216 0.74402 0.0
O130 O 0.10077 0.47141 0.7744 0.0
O131 O 0.16949 0.46046 0.78926 0.0
C132 C 0.14625 0.47305 0.78223 0.0
C133 C 0.20577 0.41397 0.81075 0.0
C134 C 0.14096 0.43125 0.7321 0.0
C135 C 0.04383 0.42274 0.7946 0.0
O136 O 0.0787 0.41387 0.78679 0.0
O137 O 0.05045 0.43768 0.79547 0.0
O138 O 0.19276 0.40316 0.79595 0.0
O139 O 0.19262 0.4284 0.80632 0.0
O140 O 0.13496 0.44189 0.54615 0.0
Cd141 Cd 0.13744 0.44803 0.51159 0.0
Cd142 Cd 0.09459 0.41964 0.50859 0.0
O143 O 0.08147 0.4219 0.54435 0.0
O144 O 0.14404 0.47174 0.51199 0.0
O145 O 0.07541 0.45934 0.49972 0.0
C146 C 0.09763 0.47247 0.50503 0.0
C147 C 0.0394 0.41537 0.47747 0.0
C148 C 0.10782 0.43159 0.55633 0.0
C149 C 0.20206 0.42241 0.4927 0.0
O150 O 0.16707 0.4134 0.50005 0.0
O151 O 0.19627 0.4374 0.493 0.0
O152 O 0.04964 0.40416 0.49211 0.0
O153 O 0.05621 0.42939 0.48211 0.0
O154 O 0.10946 0.8532 0.54644 0.0
Cd155 Cd 0.1079 0.84631 0.51213 0.0
Cd156 Cd 0.1471 0.87527 0.50779 0.0
O157 O 0.15937 0.87402 0.5438 0.0
O158 O 0.10266 0.82263 0.51363 0.0
O159 O 0.17055 0.8351 0.50072 0.0
C160 C 0.14893 0.82197 0.50655 0.0
C161 C 0.20262 0.88042 0.47713 0.0
C162 C 0.13463 0.86417 0.5562 0.0
C163 C 0.04064 0.87054 0.4912 0.0
O164 O 0.07419 0.88023 0.49808 0.0
O165 O 0.04808 0.85567 0.49281 0.0
O166 O 0.18959 0.89147 0.49152 0.0
O167 O 0.1886 0.86611 0.48183 0.0
O168 O 0.88346 0.18938 0.30081 0.0
Cd169 Cd 0.87074 0.19697 0.26712 0.0
Cd170 Cd 0.91033 0.16802 0.25988 0.0
O171 O 0.92925 0.16788 0.29497 0.0
O172 O 0.86006 0.22023 0.27202 0.0
O173 O 0.92534 0.21063 0.25266 0.0
C174 C 0.90279 0.22269 0.26181 0.0
C175 C 0.96173 0.16396 0.22742 0.0
C176 C 0.90922 0.17788 0.30874 0.0
C177 C 0.80024 0.17226 0.24899 0.0
O178 O 0.83611 0.16277 0.2536 0.0
O179 O 0.80715 0.18718 0.25061 0.0
O180 O 0.95063 0.15247 0.24139 0.0
O181 O 0.94737 0.17806 0.23318 0.0
O182 O 0.8639 0.60988 0.30184 0.0
Cd183 Cd 0.87608 0.60197 0.2684 0.0
Cd184 Cd 0.83672 0.6311 0.26017 0.0
O185 O 0.8212 0.63196 0.29569 0.0
O186 O 0.88614 0.57873 0.27366 0.0
O187 O 0.82117 0.58839 0.25405 0.0
C188 C 0.84342 0.57632 0.26338 0.0
C189 C 0.78249 0.63498 0.22861 0.0
C190 C 0.84011 0.62181 0.3096 0.0
C191 C 0.94616 0.62619 0.24816 0.0
O192 O 0.91029 0.63587 0.25176 0.0
O193 O 0.9398 0.61142 0.25182 0.0
O194 O 0.79537 0.6466 0.24201 0.0
O195 O 0.7965 0.62088 0.23457 0.0
O196 O 0.88216 0.6091 0.48915 0.0
Cd197 Cd 0.87033 0.60078 0.52251 0.0
Cd198 Cd 0.90762 0.6302 0.53053 0.0
O199 O 0.9248 0.6312 0.4953 0.0
O200 O 0.86164 0.57756 0.51664 0.0
O201 O 0.92603 0.58731 0.53653 0.0
C202 C 0.90447 0.57524 0.52687 0.0
C203 C 0.95916 0.63643 0.56235 0.0
C204 C 0.90589 0.62106 0.48138 0.0
C205 C 0.79759 0.62432 0.54144 0.0
O206 O 0.83287 0.63413 0.53743 0.0
O207 O 0.80546 0.60951 0.53911 0.0
O208 O 0.94261 0.64725 0.54838 0.0
O209 O 0.95039 0.62183 0.55691 0.0
O210 O 0.87313 0.18882 0.48987 0.0
Cd211 Cd 0.88187 0.1959 0.52396 0.0
Cd212 Cd 0.84271 0.16682 0.53047 0.0
O213 O 0.82973 0.16669 0.49468 0.0
O214 O 0.88767 0.21952 0.52195 0.0
O215 O 0.82219 0.20737 0.53786 0.0
C216 C 0.84308 0.22039 0.53099 0.0
C217 C 0.78702 0.1613 0.56095 0.0
C218 C 0.84969 0.17702 0.48138 0.0
C219 C 0.95136 0.17174 0.54426 0.0
O220 O 0.91587 0.16211 0.53973 0.0
O221 O 0.94495 0.18655 0.5412 0.0
O222 O 0.80315 0.15025 0.54727 0.0
O223 O 0.79841 0.17576 0.55575 0.0
O224 O 0.61513 0.3593 0.73972 0.0
Cd225 Cd 0.62607 0.35142 0.77341 0.0
Cd226 Cd 0.58726 0.38061 0.78048 0.0
O227 O 0.57081 0.38116 0.7451 0.0
O228 O 0.63524 0.32812 0.76843 0.0
O229 O 0.56994 0.33816 0.78733 0.0
C230 C 0.592 0.32595 0.77832 0.0
C231 C 0.53457 0.38639 0.81199 0.0
C232 C 0.59075 0.37101 0.73152 0.0
C233 C 0.6968 0.37539 0.79284 0.0
O234 O 0.66148 0.38503 0.78805 0.0
O235 O 0.68959 0.36054 0.79067 0.0
O236 O 0.5503 0.39736 0.79808 0.0
O237 O 0.54473 0.37187 0.80659 0.0
O238 O 0.61422 0.94238 0.7436 0.0
Cd239 Cd 0.60657 0.94965 0.77754 0.0
Cd240 Cd 0.64634 0.92059 0.78344 0.0
O241 O 0.66177 0.92114 0.74774 0.0
O242 O 0.59731 0.973 0.77345 0.0
O243 O 0.66393 0.9626 0.79099 0.0
C244 C 0.6414 0.97495 0.78267 0.0
C245 C 0.70076 0.91605 0.81476 0.0
C246 C 0.63962 0.93117 0.73465 0.0
C247 C 0.53788 0.92538 0.79754 0.0
O248 O 0.57275 0.91569 0.79218 0.0
O249 O 0.54462 0.94023 0.79514 0.0
O250 O 0.68814 0.90473 0.80075 0.0
O251 O 0.68659 0.93026 0.80948 0.0
O252 O 0.64107 0.94064 0.5482 0.0
Cd253 Cd 0.63987 0.94723 0.51376 0.0
Cd254 Cd 0.59912 0.91855 0.51077 0.0
O255 O 0.58876 0.92035 0.54683 0.0
O256 O 0.64477 0.97095 0.51445 0.0
O257 O 0.57623 0.95815 0.50301 0.0
C258 C 0.59797 0.97141 0.50804 0.0
C259 C 0.54185 0.91399 0.48059 0.0
C260 C 0.61559 0.93003 0.55861 0.0
C261 C 0.70456 0.92251 0.49265 0.0
O262 O 0.67124 0.91307 0.50045 0.0
O263 O 0.69766 0.93743 0.49371 0.0
O264 O 0.55435 0.90277 0.49482 0.0
O265 O 0.55748 0.92814 0.48525 0.0
O266 O 0.62708 0.35777 0.55164 0.0
Cd267 Cd 0.61459 0.34888 0.51871 0.0
Cd268 Cd 0.64989 0.37896 0.50879 0.0
O269 O 0.66286 0.38091 0.54447 0.0
O270 O 0.60739 0.32571 0.52523 0.0
O271 O 0.6702 0.33556 0.50443 0.0
C272 C 0.64959 0.32348 0.51446 0.0
C273 C 0.70453 0.38612 0.47857 0.0
C274 C 0.64735 0.37049 0.55883 0.0
C275 C 0.54124 0.37122 0.49643 0.0
O276 O 0.57597 0.38146 0.49883 0.0
O277 O 0.54898 0.35682 0.50202 0.0
O278 O 0.68381 0.39661 0.49185 0.0
O279 O 0.69816 0.37139 0.48396 0.0
O280 O 0.37278 0.68917 0.30131 0.0
Cd281 Cd 0.36383 0.69732 0.26773 0.0
Cd282 Cd 0.39841 0.66752 0.25933 0.0
O283 O 0.41135 0.66634 0.29511 0.0
O284 O 0.35973 0.72088 0.27146 0.0
O285 O 0.42376 0.70891 0.25409 0.0
C286 C 0.40388 0.72182 0.26199 0.0
C287 C 0.45223 0.66018 0.22889 0.0
C288 C 0.39384 0.67672 0.30905 0.0
C289 C 0.29019 0.67479 0.24646 0.0
O290 O 0.3244 0.66453 0.24997 0.0
O291 O 0.29872 0.68937 0.25063 0.0
O292 O 0.43272 0.64978 0.24271 0.0
O293 O 0.4454 0.67494 0.2339 0.0
O294 O 0.37074 0.10923 0.30184 0.0
Cd295 Cd 0.37887 0.10228 0.26754 0.0
Cd296 Cd 0.34079 0.13134 0.26212 0.0
O297 O 0.32464 0.13086 0.29755 0.0
O298 O 0.38461 0.07862 0.26943 0.0
O299 O 0.31882 0.0908 0.2538 0.0
C300 C 0.33981 0.07776 0.26055 0.0
C301 C 0.28881 0.13767 0.2305 0.0
C302 C 0.34591 0.12064 0.31064 0.0
C303 C 0.44983 0.12652 0.24939 0.0
O304 O 0.41498 0.13607 0.25514 0.0
O305 O 0.44197 0.11164 0.2502 0.0
O306 O 0.3037 0.14838 0.24507 0.0
O307 O 0.29916 0.12307 0.23533 0.0
O308 O 0.38081 0.10799 0.4905 0.0
Cd309 Cd 0.36715 0.09917 0.52335 0.0
Cd310 Cd 0.40348 0.12894 0.53361 0.0
O311 O 0.41876 0.13074 0.4981 0.0
O312 O 0.35966 0.07599 0.51692 0.0
O313 O 0.42235 0.0858 0.5379 0.0
C314 C 0.40177 0.07373 0.5278 0.0
C315 C 0.45619 0.13583 0.56482 0.0
C316 C 0.40264 0.12051 0.48356 0.0
C317 C 0.29372 0.12191 0.54446 0.0
O318 O 0.32903 0.13196 0.54221 0.0
O319 O 0.30124 0.10739 0.53944 0.0
O320 O 0.43727 0.14641 0.55111 0.0
O321 O 0.44927 0.12113 0.55937 0.0
O322 O 0.36039 0.68565 0.4895 0.0
Cd323 Cd 0.37373 0.69341 0.52306 0.0
Cd324 Cd 0.33511 0.66424 0.53039 0.0
O325 O 0.31576 0.6639 0.49534 0.0
O326 O 0.38376 0.71664 0.51782 0.0
O327 O 0.31912 0.707 0.5376 0.0
C328 C 0.3412 0.71906 0.52819 0.0
C329 C 0.28481 0.65866 0.56284 0.0
C330 C 0.33508 0.67405 0.48157 0.0
C331 C 0.44555 0.66916 0.54083 0.0
O332 O 0.40987 0.65958 0.53637 0.0
O333 O 0.43818 0.68404 0.53931 0.0
O334 O 0.29898 0.64764 0.54866 0.0
O335 O 0.29521 0.67314 0.5573 0.0
O336 O 0.61428 0.85863 0.2407 0.0
Cd337 Cd 0.62904 0.8506 0.27386 0.0
Cd338 Cd 0.58986 0.87963 0.28318 0.0
O339 O 0.57218 0.88069 0.24783 0.0
O340 O 0.63877 0.82738 0.26832 0.0
O341 O 0.57538 0.83697 0.28903 0.0
C342 C 0.59693 0.82493 0.2793 0.0
C343 C 0.53747 0.88343 0.31542 0.0
C344 C 0.59002 0.87064 0.23348 0.0
C345 C 0.70033 0.87476 0.29335 0.0
O346 O 0.66397 0.88441 0.29064 0.0
O347 O 0.69397 0.86003 0.28946 0.0
O348 O 0.54957 0.89508 0.30193 0.0
O349 O 0.55123 0.86935 0.30926 0.0
O350 O 0.62381 0.44113 0.24102 0.0
Cd351 Cd 0.61486 0.44817 0.27521 0.0
Cd352 Cd 0.65426 0.41931 0.28126 0.0
O353 O 0.67019 0.4196 0.24588 0.0
O354 O 0.60854 0.47179 0.27313 0.0
O355 O 0.67452 0.45981 0.28895 0.0
C356 C 0.6533 0.47277 0.28203 0.0
C357 C 0.70783 0.41346 0.31247 0.0
C358 C 0.64909 0.4297 0.23255 0.0
C359 C 0.54493 0.42374 0.2939 0.0
O360 O 0.58038 0.41428 0.2886 0.0
O361 O 0.55197 0.43865 0.29251 0.0
O362 O 0.6928 0.40258 0.29824 0.0
O363 O 0.69633 0.42797 0.30758 0.0
O364 O 0.61971 0.43939 0.05057 0.0
Cd365 Cd 0.62716 0.44635 1.01629 0.0
Cd366 Cd 0.58748 0.41757 1.01082 0.0
O367 O 0.57157 0.4182 0.04621 0.0
O368 O 0.63249 0.47001 1.01811 0.0
O369 O 0.56615 0.45763 1.00329 0.0
C370 C 0.58702 0.47071 1.00994 0.0
C371 C 0.5343 0.41181 0.97944 0.0
C372 C 0.59377 0.42821 0.0593 0.0
C373 C 0.6964 0.42182 0.99758 0.0
O374 O 0.66129 0.41243 1.00358 0.0
O375 O 0.68922 0.43674 0.9984 0.0
O376 O 0.54878 0.4009 0.99376 0.0
O377 O 0.54596 0.4263 0.98436 0.0
O378 O 0.62525 0.85882 0.05272 0.0
Cd379 Cd 0.61497 0.85133 1.01881 0.0
Cd380 Cd 0.65398 0.88035 1.01241 0.0
O381 O 0.67142 0.88032 0.04771 0.0
O382 O 0.60497 0.82801 0.02332 0.0
O383 O 0.67097 0.83798 1.00489 0.0
C384 C 0.64837 0.82577 1.0136 0.0
C385 C 0.70562 0.88461 0.98007 0.0
C386 C 0.65048 0.87027 0.06113 0.0
C387 C 0.54471 0.87588 1.00025 0.0
O388 O 0.57989 0.88544 1.00559 0.0
O389 O 0.55211 0.86098 1.00157 0.0
O390 O 0.69442 0.89603 0.99416 0.0
O391 O 0.69155 0.87046 0.98573 0.0
O392 O 0.35573 0.19289 0.79769 0.0
Cd393 Cd 0.35553 0.19933 0.76316 0.0
Cd394 Cd 0.39626 0.17065 0.76027 0.0
O395 O 0.40684 0.17229 0.79627 0.0
O396 O 0.35079 0.22303 0.76383 0.0
O397 O 0.41888 0.21019 0.75191 0.0
C398 C 0.39738 0.22346 0.75713 0.0
C399 C 0.45348 0.16433 0.73077 0.0
C400 C 0.38093 0.18219 0.80807 0.0
C401 C 0.28985 0.17473 0.74266 0.0
O402 O 0.32382 0.16539 0.75012 0.0
O403 O 0.29648 0.18966 0.74369 0.0
O404 O 0.43753 0.1537 0.74521 0.0
O405 O 0.4413 0.17889 0.73479 0.0
O406 O 0.38648 0.60471 0.79736 0.0
Cd407 Cd 0.3863 0.59856 0.76267 0.0
Cd408 Cd 0.34317 0.62653 0.76084 0.0
O409 O 0.3303 0.624 0.79647 0.0
O410 O 0.39114 0.57483 0.76272 0.0
O411 O 0.32245 0.58782 0.75187 0.0
C412 C 0.34408 0.5745 0.75667 0.0
C413 C 0.288 0.63244 0.73029 0.0
C414 C 0.35861 0.61461 0.80802 0.0
C415 C 0.45037 0.62398 0.74421 0.0
O416 O 0.41595 0.63267 0.75282 0.0
O417 O 0.44389 0.60904 0.74303 0.0
O418 O 0.30128 0.64314 0.74521 0.0
O419 O 0.30176 0.61801 0.73428 0.0
O420 O 0.36109 0.6043 0.99365 0.0
Cd421 Cd 0.35512 0.5978 0.02811 0.0
Cd422 Cd 0.39774 0.62612 0.03143 0.0
O423 O 0.41409 0.62436 0.99607 0.0
O424 O 0.34529 0.57437 0.02531 0.0
O425 O 0.41338 0.58504 0.04119 0.0
C426 C 0.39019 0.57256 0.03373 0.0
C427 C 0.45141 0.63174 0.06267 0.0
C428 C 0.38878 0.6146 0.98379 0.0
C429 C 0.28866 0.62312 0.04569 0.0
O430 O 0.32414 0.632 0.03853 0.0
O431 O 0.29478 0.60815 0.04608 0.0
O432 O 0.43835 0.64259 0.04795 0.0
O433 O 0.438 0.61733 0.05824 0.0
O434 O 0.38046 0.19273 0.99367 0.0
Cd435 Cd 0.38719 0.19949 0.02799 0.0
Cd436 Cd 0.34526 0.17103 0.03179 0.0
O437 O 0.32814 0.17252 0.99643 0.0
O438 O 0.39694 0.22289 0.0247 0.0
O439 O 0.32939 0.21238 0.0412 0.0
C440 C 0.35237 0.22479 0.0334 0.0
C441 C 0.29263 0.16525 0.06332 0.0
C442 C 0.353 0.18228 0.98398 0.0
C443 C 0.45483 0.17443 0.04536 0.0
O444 O 0.41926 0.16543 0.03859 0.0
O445 O 0.44842 0.18939 0.04563 0.0
O446 O 0.30588 0.15443 0.04862 0.0
O447 O 0.30519 0.17971 0.05873 0.0
H448 H 0.11036 0.39598 0.20595 0.0
H449 H 0.07745 0.34625 0.19937 0.0
H450 H 0.12891 0.39737 0.16415 0.0
H451 H 0.09205 0.34768 0.15753 0.0
H452 H 0.17326 0.34771 0.09025 0.0
H453 H 0.15861 0.3488 0.13213 0.0
H454 H 0.10415 0.39686 0.12513 0.0
H455 H 0.12277 0.39595 0.0833 0.0
C456 C 0.10539 0.38548 0.19533 0.0
C457 C 0.09247 0.37101 0.20575 0.0
C458 C 0.11617 0.38623 0.17136 0.0
C459 C 0.11331 0.37255 0.15732 0.0
C460 C 0.0968 0.35835 0.16774 0.0
C461 C 0.08741 0.35755 0.19169 0.0
C462 C 0.15947 0.35863 0.09787 0.0
C463 C 0.14953 0.37178 0.08372 0.0
C464 C 0.15004 0.3592 0.12183 0.0
C465 C 0.1286 0.37277 0.13215 0.0
C466 C 0.12078 0.38621 0.118 0.0
C467 C 0.13159 0.38575 0.09402 0.0
H468 H 0.10552 0.9014 0.08359 0.0
H469 H 0.08146 0.95162 0.09037 0.0
H470 H 0.12605 0.89976 0.12526 0.0
H471 H 0.09856 0.95 0.13199 0.0
H472 H 0.18357 0.94896 0.19797 0.0
H473 H 0.16797 0.94757 0.15615 0.0
H474 H 0.1021 0.9011 0.16486 0.0
H475 H 0.1212 0.90225 0.20669 0.0
C476 C 0.10296 0.91198 0.09421 0.0
C477 C 0.09197 0.92664 0.08385 0.0
C478 C 0.11495 0.91108 0.11808 0.0
C479 C 0.11542 0.92482 0.13206 0.0
C480 C 0.10074 0.93925 0.12177 0.0
C481 C 0.08996 0.94018 0.09795 0.0
C482 C 0.16722 0.93827 0.19075 0.0
C483 C 0.15398 0.92567 0.20542 0.0
C484 C 0.15726 0.93755 0.16683 0.0
C485 C 0.13212 0.92442 0.15705 0.0
C486 C 0.12148 0.9114 0.17163 0.0
C487 C 0.13264 0.91199 0.1956 0.0
H488 H 0.87157 0.65218 0.83499 0.0
H489 H 0.92489 0.70014 0.84158 0.0
H490 H 0.85313 0.65149 0.87685 0.0
H491 H 0.91041 0.69925 0.88348 0.0
H492 H 0.82866 0.70248 0.95058 0.0
H493 H 0.84377 0.70084 0.9088 0.0
H494 H 0.87782 0.65099 0.91587 0.0
H495 H 0.85877 0.65261 0.95761 0.0
C496 C 0.88107 0.66236 0.84564 0.0
C497 C 0.89974 0.67619 0.83523 0.0
C498 C 0.87037 0.66202 0.86963 0.0
C499 C 0.87901 0.67546 0.88368 0.0
C500 C 0.90122 0.68887 0.87326 0.0
C501 C 0.91055 0.68932 0.84929 0.0
C502 C 0.83817 0.69112 0.94302 0.0
C503 C 0.84227 0.67767 0.95719 0.0
C504 C 0.84783 0.69018 0.91911 0.0
C505 C 0.86365 0.67586 0.90883 0.0
C506 C 0.86562 0.66222 0.92298 0.0
C507 C 0.85457 0.6631 0.94691 0.0
H508 H 0.92453 0.09755 0.94808 0.0
H509 H 0.8925 0.14731 0.95516 0.0
H510 H 0.91005 0.09922 0.90624 0.0
H511 H 0.87451 0.14895 0.91325 0.0
H512 H 0.88133 0.14707 0.83193 0.0
H513 H 0.90049 0.14815 0.8738 0.0
H514 H 0.84078 0.1008 0.88178 0.0
H515 H 0.82511 0.09953 0.84 0.0
C516 C 0.9149 0.10891 0.94052 0.0
C517 C 0.90979 0.1223 0.95474 0.0
C518 C 0.90565 0.10985 0.91658 0.0
C519 C 0.88939 0.12412 0.9063 0.0
C520 C 0.88691 0.13776 0.92043 0.0
C521 C 0.89741 0.13687 0.94444 0.0
C522 C 0.87148 0.13707 0.84287 0.0
C523 C 0.85181 0.12321 0.83288 0.0
C524 C 0.88261 0.13763 0.86684 0.0
C525 C 0.87354 0.1244 0.88123 0.0
C526 C 0.8503 0.11101 0.87125 0.0
C527 C 0.84038 0.11034 0.84734 0.0
H528 H 0.07549 0.89005 0.70256 0.0
H529 H 0.14325 0.84351 0.70327 0.0
H530 H 0.08392 0.89073 0.65972 0.0
H531 H 0.15198 0.84432 0.66124 0.0
H532 H 0.10061 0.84187 0.58635 0.0
H533 H 0.09168 0.84357 0.62833 0.0
H534 H 0.1541 0.89074 0.62743 0.0
H535 H 0.16272 0.88915 0.58467 0.0
C536 C 0.09187 0.87998 0.69365 0.0
C537 C 0.10837 0.8667 0.70637 0.0
C538 C 0.09718 0.88044 0.6692 0.0
C539 C 0.11851 0.86755 0.65714 0.0
C540 C 0.13489 0.85437 0.66995 0.0
C541 C 0.12992 0.85394 0.69415 0.0
C542 C 0.11266 0.85265 0.59494 0.0
C543 C 0.13269 0.86535 0.58207 0.0
C544 C 0.10757 0.85359 0.6191 0.0
C545 C 0.1223 0.86726 0.63122 0.0
C546 C 0.14212 0.88009 0.61849 0.0
C547 C 0.14757 0.87911 0.5941 0.0
H548 H 0.07923 0.4072 0.58567 0.0
H549 H 0.14227 0.45437 0.58554 0.0
H550 H 0.08928 0.40617 0.62841 0.0
H551 H 0.15266 0.45322 0.62752 0.0
H552 H 0.1051 0.45396 0.70313 0.0
H553 H 0.09474 0.45297 0.66115 0.0
H554 H 0.16089 0.40629 0.65975 0.0
H555 H 0.1709 0.40716 0.70249 0.0
C556 C 0.09479 0.41735 0.59472 0.0
C557 C 0.10968 0.43089 0.5822 0.0
C558 C 0.1011 0.41668 0.61909 0.0
C559 C 0.12177 0.42962 0.63128 0.0
C560 C 0.13619 0.44312 0.61869 0.0
C561 C 0.13026 0.44375 0.59456 0.0
C562 C 0.11773 0.44345 0.69401 0.0
C563 C 0.13908 0.43065 0.70622 0.0
C564 C 0.11181 0.44292 0.66986 0.0
C565 C 0.12703 0.42956 0.65713 0.0
C566 C 0.14846 0.41668 0.66918 0.0
C567 C 0.15474 0.41726 0.69356 0.0
H568 H 0.93031 0.20005 0.34125 0.0
H569 H 0.88799 0.15111 0.33342 0.0
H570 H 0.91522 0.19842 0.38305 0.0
H571 H 0.86921 0.14959 0.37521 0.0
H572 H 0.87384 0.15059 0.45635 0.0
H573 H 0.89395 0.1495 0.41464 0.0
H574 H 0.84597 0.1982 0.40739 0.0
H575 H 0.82947 0.1994 0.44909 0.0
C576 C 0.91836 0.18886 0.34865 0.0
C577 C 0.9106 0.17569 0.33425 0.0
C578 C 0.90871 0.18796 0.37256 0.0
C579 C 0.8893 0.174 0.38258 0.0
C580 C 0.88412 0.16054 0.36826 0.0
C581 C 0.89507 0.16135 0.34431 0.0
C582 C 0.86674 0.1609 0.4456 0.0
C583 C 0.85015 0.17508 0.45581 0.0
C584 C 0.87844 0.16034 0.42171 0.0
C585 C 0.87297 0.17389 0.40758 0.0
C586 C 0.85275 0.18769 0.41774 0.0
C587 C 0.84231 0.18834 0.44159 0.0
H588 H 0.86513 0.64848 0.33395 0.0
H589 H 0.81721 0.60008 0.3424 0.0
H590 H 0.8861 0.64982 0.37562 0.0
H591 H 0.835 0.60155 0.38401 0.0
H592 H 0.92601 0.59926 0.44828 0.0
H593 H 0.90802 0.60112 0.40673 0.0
H594 H 0.86186 0.64982 0.41573 0.0
H595 H 0.88302 0.64806 0.45735 0.0
C596 C 0.8573 0.63834 0.34495 0.0
C597 C 0.83959 0.62418 0.33509 0.0
C598 C 0.86957 0.63905 0.36879 0.0
C599 C 0.86371 0.62564 0.38316 0.0
C600 C 0.842 0.61193 0.37341 0.0
C601 C 0.83085 0.61114 0.34963 0.0
C602 C 0.91336 0.61048 0.4412 0.0
C603 C 0.90608 0.62352 0.45591 0.0
C604 C 0.9021 0.6115 0.41745 0.0
C605 C 0.88174 0.62547 0.40789 0.0
C606 C 0.87732 0.63886 0.42242 0.0
C607 C 0.8897 0.63791 0.44623 0.0
H608 H 0.67706 0.34986 0.59204 0.0
H609 H 0.61711 0.39686 0.58269 0.0
H610 H 0.66191 0.35161 0.63381 0.0
H611 H 0.59884 0.39841 0.62461 0.0
H612 H 0.60736 0.39805 0.70634 0.0
H613 H 0.62593 0.39961 0.66444 0.0
H614 H 0.59066 0.34988 0.65751 0.0
H615 H 0.57519 0.34829 0.69925 0.0
C616 C 0.66123 0.36068 0.59909 0.0
C617 C 0.64837 0.37323 0.58424 0.0
C618 C 0.65166 0.36162 0.62299 0.0
C619 C 0.62749 0.37495 0.6326 0.0
C620 C 0.61737 0.38794 0.61789 0.0
C621 C 0.62803 0.38712 0.59389 0.0
C622 C 0.60263 0.38759 0.69564 0.0
C623 C 0.59003 0.37304 0.70594 0.0
C624 C 0.61348 0.38844 0.67166 0.0
C625 C 0.61128 0.37477 0.6576 0.0
C626 C 0.59482 0.36053 0.66783 0.0
C627 C 0.58506 0.35963 0.69172 0.0
H628 H 0.62016 0.95461 0.70379 0.0
H629 H 0.66039 0.90512 0.70703 0.0
H630 H 0.61408 0.95303 0.66167 0.0
H631 H 0.65464 0.90359 0.66412 0.0
H632 H 0.57668 0.90736 0.58858 0.0
H633 H 0.58596 0.90638 0.63135 0.0
H634 H 0.67436 0.94927 0.62926 0.0
H635 H 0.66481 0.95043 0.5873 0.0
C636 C 0.62812 0.94337 0.69548 0.0
C637 C 0.64095 0.93 0.70881 0.0
C638 C 0.62472 0.94249 0.67126 0.0
C639 C 0.63394 0.92819 0.65956 0.0
C640 C 0.64702 0.91474 0.67274 0.0
C641 C 0.65087 0.91566 0.69721 0.0
C642 C 0.59791 0.91658 0.59733 0.0
C643 C 0.6195 0.92905 0.58447 0.0
C644 C 0.60364 0.91592 0.62174 0.0
C645 C 0.63071 0.92779 0.63364 0.0
C646 C 0.65276 0.94006 0.62067 0.0
C647 C 0.64723 0.94069 0.59651 0.0
H648 H 0.36992 0.64961 0.3327 0.0
H649 H 0.41375 0.69827 0.3426 0.0
H650 H 0.34987 0.64748 0.37437 0.0
H651 H 0.39691 0.69603 0.38416 0.0
H652 H 0.31108 0.69637 0.44979 0.0
H653 H 0.32593 0.69545 0.40792 0.0
H654 H 0.37585 0.6469 0.41411 0.0
H655 H 0.35765 0.64769 0.45606 0.0
C656 C 0.37684 0.65967 0.34398 0.0
C657 C 0.39322 0.67411 0.33452 0.0
C658 C 0.36515 0.6585 0.36783 0.0
C659 C 0.37033 0.67172 0.38265 0.0
C660 C 0.39039 0.68577 0.37325 0.0
C661 C 0.40095 0.68701 0.34947 0.0
C662 C 0.32381 0.68538 0.44202 0.0
C663 C 0.33299 0.67209 0.45602 0.0
C664 C 0.33329 0.6849 0.41808 0.0
C665 C 0.3538 0.67125 0.4076 0.0
C666 C 0.36015 0.65762 0.42147 0.0
C667 C 0.3495 0.65802 0.44549 0.0
H668 H 0.4373 0.10048 0.45061 0.0
H669 H 0.36885 0.14633 0.45957 0.0
H670 H 0.42297 0.10199 0.40871 0.0
H671 H 0.35114 0.14757 0.4176 0.0
H672 H 0.35766 0.14774 0.3363 0.0
H673 H 0.37699 0.1494 0.3781 0.0
H674 H 0.35384 0.09893 0.38432 0.0
H675 H 0.33774 0.0973 0.34262 0.0
C676 C 0.41987 0.11102 0.44344 0.0
C677 C 0.40451 0.12333 0.45819 0.0
C678 C 0.41069 0.11179 0.41946 0.0
C679 C 0.3843 0.12468 0.4097 0.0
C680 C 0.37153 0.13746 0.42438 0.0
C681 C 0.38186 0.13682 0.44842 0.0
C682 C 0.35587 0.1371 0.34681 0.0
C683 C 0.34641 0.12238 0.3363 0.0
C684 C 0.36714 0.13801 0.37075 0.0
C685 C 0.36843 0.12424 0.38462 0.0
C686 C 0.35534 0.10972 0.37417 0.0
C687 C 0.34521 0.10878 0.3503 0.0
H688 H 0.61927 0.89687 0.20932 0.0
H689 H 0.55984 0.84977 0.20065 0.0
H690 H 0.63829 0.89809 0.16749 0.0
H691 H 0.57546 0.85121 0.15886 0.0
H692 H 0.66337 0.84747 0.0936 0.0
H693 H 0.64609 0.8492 0.13518 0.0
H694 H 0.61373 0.89911 0.12773 0.0
H695 H 0.63429 0.89739 0.08609 0.0
C696 C 0.60842 0.88705 0.19824 0.0
C697 C 0.58799 0.87325 0.20807 0.0
C698 C 0.61955 0.88768 0.17429 0.0
C699 C 0.60981 0.87457 0.15976 0.0
C700 C 0.58544 0.86131 0.16953 0.0
C701 C 0.57548 0.86056 0.19342 0.0
C702 C 0.65379 0.85888 0.10101 0.0
C703 C 0.65034 0.8723 0.08672 0.0
C704 C 0.64292 0.85986 0.1248 0.0
C705 C 0.62677 0.8742 0.13485 0.0
C706 C 0.62594 0.88786 0.12071 0.0
C707 C 0.63797 0.88692 0.09686 0.0
H708 H 0.6176 0.40212 0.085 0.0
H709 H 0.57222 0.45091 0.09087 0.0
H710 H 0.63593 0.40139 0.12687 0.0
H711 H 0.58653 0.45005 0.1328 0.0
H712 H 0.66717 0.45229 0.20027 0.0
H713 H 0.65292 0.45068 0.1584 0.0
H714 H 0.61055 0.40147 0.16574 0.0
H715 H 0.62879 0.40299 0.20757 0.0
C716 C 0.60987 0.4125 0.09549 0.0
C717 C 0.59346 0.42656 0.08488 0.0
C718 C 0.62049 0.41214 0.11949 0.0
C719 C 0.61397 0.42578 0.13335 0.0
C720 C 0.59408 0.43948 0.12272 0.0
C721 C 0.58487 0.43993 0.09874 0.0
C722 C 0.65603 0.44105 0.19274 0.0
C723 C 0.64934 0.42775 0.207 0.0
C724 C 0.64688 0.44015 0.16878 0.0
C725 C 0.62896 0.42605 0.15855 0.0
C726 C 0.62442 0.41253 0.17281 0.0
C727 C 0.63499 0.41334 0.19679 0.0
H728 H 0.41245 0.15825 0.83767 0.0
H729 H 0.34063 0.20419 0.83704 0.0
H730 H 0.40267 0.15724 0.8804 0.0
H731 H 0.33052 0.20304 0.879 0.0
H732 H 0.38234 0.20536 0.95418 0.0
H733 H 0.39008 0.20417 0.91209 0.0
H734 H 0.33238 0.1564 0.91237 0.0
H735 H 0.32501 0.15749 0.95522 0.0
C736 C 0.39482 0.16811 0.84658 0.0
C737 C 0.37769 0.18134 0.83392 0.0
C738 C 0.38873 0.16745 0.87095 0.0
C739 C 0.36591 0.18008 0.88302 0.0
C740 C 0.34873 0.1932 0.87027 0.0
C741 C 0.35453 0.19382 0.84613 0.0
C742 C 0.37097 0.19458 0.9454 0.0
C743 C 0.35283 0.18153 0.9581 0.0
C744 C 0.37535 0.19393 0.9212 0.0
C745 C 0.3618 0.18021 0.9089 0.0
C746 C 0.34345 0.16709 0.92145 0.0
C747 C 0.33867 0.16778 0.94589 0.0
H748 H 0.40145 0.59281 0.8366 0.0
H749 H 0.32426 0.63788 0.83796 0.0
H750 H 0.41204 0.59385 0.87861 0.0
H751 H 0.33466 0.6388 0.88064 0.0
H752 H 0.41429 0.63947 0.95484 0.0
H753 H 0.40617 0.64037 0.91202 0.0
H754 H 0.35334 0.59205 0.91213 0.0
H755 H 0.36166 0.59108 0.95427 0.0
C756 C 0.38647 0.60295 0.84587 0.0
C757 C 0.36172 0.61524 0.83387 0.0
C758 C 0.39255 0.60351 0.87001 0.0
C759 C 0.37416 0.61639 0.88292 0.0
C760 C 0.34958 0.62879 0.87106 0.0
C761 C 0.34313 0.62818 0.84671 0.0
C762 C 0.40155 0.62902 0.94561 0.0
C763 C 0.38881 0.6152 0.95793 0.0
C764 C 0.39634 0.6296 0.92119 0.0
C765 C 0.37905 0.61628 0.90877 0.0
C766 C 0.36715 0.60245 0.92116 0.0
C767 C 0.37186 0.60193 0.94536 0.0
H768 H 0.98785 0.23296 0.23876 0.0
H769 H 0.87455 0.24809 0.28817 0.0
H770 H 0.03229 0.25803 0.24383 0.0
H771 H 0.91993 0.27271 0.2942 0.0
H772 H 0.98903 0.3217 0.28567 0.0
H773 H 0.94254 0.29721 0.27962 0.0
H774 H 0.08359 0.27225 0.2695 0.0
H775 H 0.12971 0.29698 0.27441 0.0
C776 C 0.9723 0.24166 0.25064 0.0
C777 C 0.92745 0.23851 0.26294 0.0
C778 C -0.00184 0.25601 0.25381 0.0
C779 C 0.98027 0.26751 0.26965 0.0
C780 C 0.93481 0.26438 0.2816 0.0
C781 C 0.90867 0.25016 0.27818 0.0
C782 C 0.01016 0.31094 0.28243 0.0
C783 C 0.06316 0.31133 0.28059 0.0
C784 C 0.98343 0.29681 0.27896 0.0
C785 C 0.00896 0.28258 0.27387 0.0
C786 C 0.06223 0.28294 0.2728 0.0
C787 C 0.08888 0.29712 0.27594 0.0
H788 H 0.12229 0.99968 0.24983 0.0
H789 H 0.23245 0.9842 0.30063 0.0
H790 H 0.16844 0.02425 0.24458 0.0
H791 H 0.27764 1.00919 0.29629 0.0
H792 H 0.37754 0.04793 0.26712 0.0
H793 H 0.33057 1.02331 0.27116 0.0
H794 H 0.19068 0.0487 0.25988 0.0
H795 H 0.2381 0.07313 0.25474 0.0
C796 C 0.15589 1.00166 0.26027 0.0
C797 C 0.17357 0.98993 0.27568 0.0
C798 C 0.18245 1.01585 0.2573 0.0
C799 C 0.22725 1.01885 0.26987 0.0
C800 C 0.24405 1.00726 0.28585 0.0
C801 C 0.21777 0.99296 0.28859 0.0
C802 C 0.33679 0.04821 0.26517 0.0
C803 C 0.31167 0.06252 0.26048 0.0
C804 C 0.30965 0.03408 0.2678 0.0
C805 C 0.25646 0.03388 0.26616 0.0
C806 C 0.23152 0.04821 0.26099 0.0
C807 C 0.25877 0.0623 0.25805 0.0
H808 H 0.98646 0.97646 1.00407 0.0
H809 H 0.12769 1.00095 1.015 0.0
H810 H 0.94047 1.00105 1.01003 0.0
H811 H 0.08209 0.02578 1.0198 0.0
H812 H 0.98754 0.06532 0.05046 0.0
H813 H 0.03142 0.04016 0.04546 0.0
H814 H 0.91808 0.02556 0.99539 0.0
H815 H 0.87325 0.05028 1.00137 0.0
C816 C 0.00781 0.98718 1.00722 0.0
C817 C 0.06082 0.98671 1.00901 0.0
C818 C 0.98137 1.00137 1.01064 0.0
C819 C 0.00722 1.01557 1.01561 0.0
C820 C 0.06049 1.01512 1.01661 0.0
C821 C 0.08684 1.00088 1.01353 0.0
C822 C 0.97167 0.05662 0.03866 0.0
C823 C 0.9267 0.05982 0.02643 0.0
C824 C -0.0028 0.04222 0.03552 0.0
C825 C 0.97887 0.03071 1.01979 0.0
C826 C 0.9333 0.03389 1.00791 0.0
C827 C 0.90748 0.04817 1.01131 0.0
H828 H 0.26369 0.23413 0.05431 0.0
H829 H 0.38121 0.25055 1.00802 0.0
H830 H 0.21729 0.25873 0.04816 0.0
H831 H 0.33397 0.27467 1.00078 0.0
H832 H 0.25833 0.32283 1.0069 0.0
H833 H 0.30677 0.29887 1.0142 0.0
H834 H 0.16758 0.27247 0.02156 0.0
H835 H 0.11942 0.2967 1.01552 0.0
C836 C 0.27974 0.24302 0.04289 0.0
C837 C 0.32635 0.24037 0.0318 0.0
C838 C 0.25278 0.2571 0.03907 0.0
C839 C 0.27129 0.26881 0.02372 0.0
C840 C 0.31849 0.26618 1.013 0.0
C841 C 0.34573 0.25225 1.01712 0.0
C842 C 0.23808 0.31186 1.00979 0.0
C843 C 0.18495 0.3117 1.01056 0.0
C844 C 0.26593 0.29804 1.01399 0.0
C845 C 0.24146 0.28356 1.01871 0.0
C846 C 0.18813 0.28336 1.01863 0.0
C847 C 0.16033 0.29725 1.01482 0.0
H848 H 0.86878 0.7484 0.78698 0.0
H849 H 0.98619 0.73175 0.74077 0.0
H850 H 0.91548 0.77274 0.79343 0.0
H851 H 0.03212 0.7565 0.74628 0.0
H852 H 0.12928 0.79481 0.77879 0.0
H853 H 0.08149 0.77045 0.7733 0.0
H854 H 0.94186 0.79685 0.77839 0.0
H855 H 0.98981 0.821 0.78499 0.0
C856 C 0.90414 0.75008 0.77777 0.0
C857 C 0.92366 0.73808 0.76333 0.0
C858 C 0.93103 0.76412 0.78144 0.0
C859 C 0.97803 0.76671 0.77054 0.0
C860 C -0.00328 0.75488 0.75545 0.0
C861 C 0.97005 0.74072 0.75202 0.0
C862 C 0.08836 0.79536 0.77908 0.0
C863 C 0.06343 0.80986 0.78246 0.0
C864 C 0.06081 0.78139 0.77561 0.0
C865 C 0.00751 0.78156 0.7751 0.0
C866 C 0.98271 0.79608 0.77895 0.0
C867 C 0.01027 0.81001 0.78273 0.0
H868 H 0.6138 1.00055 0.75663 0.0
H869 H 0.72878 0.9844 0.80461 0.0
H870 H 0.6613 0.02466 0.74979 0.0
H871 H 0.77538 1.00899 0.7988 0.0
H872 H 0.87502 0.04655 0.76652 0.0
H873 H 0.82637 1.02241 0.7723 0.0
H874 H 0.68776 0.04895 0.76362 0.0
H875 H 0.73675 0.07285 0.75662 0.0
C876 C 0.64876 1.00231 0.76616 0.0
C877 C 0.66741 0.99051 0.7812 0.0
C878 C 0.67613 1.01623 0.76227 0.0
C879 C 0.72269 1.01891 0.77357 0.0
C880 C 0.74041 1.00729 0.78928 0.0
C881 C 0.71334 0.99323 0.79289 0.0
C882 C 0.83415 0.04716 0.7655 0.0
C883 C 0.80982 0.06162 0.76097 0.0
C884 C 0.80607 0.03332 0.76914 0.0
C885 C 0.75277 0.0336 0.76876 0.0
C886 C 0.72859 0.04808 0.76377 0.0
C887 C 0.75674 0.06186 0.75975 0.0
H888 H 0.62013 0.80019 0.03956 0.0
H889 H 0.73455 0.81588 0.99109 0.0
H890 H 0.66599 0.77566 0.04562 0.0
H891 H 0.77949 0.79089 0.99615 0.0
H892 H 0.87674 0.75186 0.02662 0.0
H893 H 0.83034 0.77656 0.02185 0.0
H894 H 0.68947 0.75132 0.03089 0.0
H895 H 0.73621 0.72687 0.03683 0.0
C896 C 0.65462 0.79826 0.02977 0.0
C897 C 0.67355 0.81004 1.01479 0.0
C898 C 0.68104 0.78409 0.03321 0.0
C899 C 0.72692 0.78114 0.02151 0.0
C900 C 0.74501 0.79277 1.00595 0.0
C901 C 0.71888 0.80707 1.00277 0.0
C902 C 0.83588 0.75165 0.02794 0.0
C903 C 0.81028 0.73738 0.03225 0.0
C904 C 0.80907 0.76582 0.02488 0.0
C905 C 0.75578 0.76608 0.02568 0.0
C906 C 0.73036 0.75178 0.03044 0.0
C907 C 0.75724 0.73767 0.03384 0.0
H908 H 0.2413 0.57109 0.75731 0.0
H909 H 0.3798 0.54413 0.75994 0.0
H910 H 0.19287 0.54723 0.76503 0.0
H911 H 0.33135 0.52001 0.76647 0.0
H912 H 0.23812 0.48159 0.80087 0.0
H913 H 0.28491 0.50606 0.79426 0.0
H914 H 0.16258 0.52342 0.75109 0.0
H915 H 0.11517 0.49941 0.75875 0.0
C916 C 0.26139 0.55998 0.75899 0.0
C917 C 0.31449 0.55955 0.75794 0.0
C918 C 0.23352 0.54621 0.76341 0.0
C919 C 0.25788 0.53152 0.7666 0.0
C920 C 0.31103 0.53107 0.76473 0.0
C921 C 0.33893 0.5449 0.76065 0.0
C922 C 0.22096 0.49077 0.79029 0.0
C923 C 0.17273 0.48854 0.78048 0.0
C924 C 0.24809 0.50476 0.7862 0.0
C925 C 0.22806 0.51683 0.77188 0.0
C926 C 0.1793 0.51464 0.76248 0.0
C927 C 0.15196 0.50077 0.76685 0.0
H928 H 0.99156 0.56544 0.54885 0.0
H929 H 0.87655 0.54978 0.50052 0.0
H930 H 0.03738 0.54068 0.54303 0.0
H931 H 0.92314 0.52546 0.49383 0.0
H932 H 0.99534 0.47683 0.50195 0.0
H933 H 0.94786 0.50106 0.50853 0.0
H934 H 0.08799 0.5269 0.51626 0.0
H935 H 0.13529 0.50244 0.51073 0.0
C936 C 0.97593 0.55669 0.53706 0.0
C937 C 0.9302 0.55961 0.52527 0.0
C938 C 0.00255 0.54253 0.53346 0.0
C939 C 0.98448 0.53098 0.51775 0.0
C940 C 0.93819 0.53385 0.50631 0.0
C941 C 0.91136 0.5479 0.51012 0.0
C942 C 0.01606 0.48772 0.50477 0.0
C943 C 0.06919 0.48766 0.50575 0.0
C944 C 0.98875 0.50169 0.50855 0.0
C945 C 0.01378 0.51608 0.51314 0.0
C946 C 0.0671 0.51607 0.51335 0.0
C947 C 0.09438 0.50204 0.50986 0.0
H948 H 0.25475 0.72899 0.55043 0.0
H949 H 0.36998 0.74465 0.50233 0.0
H950 H 0.2095 0.75387 0.54488 0.0
H951 H 0.32392 0.76911 0.4959 0.0
H952 H 0.25141 0.81775 0.5039 0.0
H953 H 0.29909 0.79354 0.51064 0.0
H954 H 0.15908 0.7676 0.51797 0.0
H955 H 0.11166 0.79201 0.51228 0.0
C956 C 0.27058 0.73777 0.53876 0.0
C957 C 0.31614 0.73481 0.52693 0.0
C958 C 0.24428 0.752 0.53532 0.0
C959 C 0.2625 0.76359 0.5197 0.0
C960 C 0.30875 0.76069 0.50829 0.0
C961 C 0.33526 0.74656 0.51195 0.0
C962 C 0.2308 0.80685 0.50669 0.0
C963 C 0.17766 0.80685 0.50751 0.0
C964 C 0.2582 0.79289 0.51055 0.0
C965 C 0.23323 0.77848 0.51508 0.0
C966 C 0.17992 0.77845 0.51514 0.0
C967 C 0.15257 0.79245 0.51156 0.0
H968 H 0.75858 0.56613 0.24005 0.0
H969 H 0.87083 0.55098 0.29008 0.0
H970 H 0.71371 0.54114 0.24507 0.0
H971 H 0.82499 0.52644 0.29605 0.0
H972 H 0.75507 0.4775 0.28723 0.0
H973 H 0.80219 0.50191 0.28142 0.0
H974 H 0.66181 0.52716 0.27073 0.0
H975 H 0.61512 0.50254 0.27541 0.0
C976 C 0.77379 0.55744 0.25206 0.0
C977 C 0.81847 0.56056 0.26455 0.0
C978 C 0.74769 0.54314 0.25521 0.0
C979 C 0.76515 0.53167 0.2712 0.0
C980 C 0.81045 0.53476 0.28334 0.0
C981 C 0.83684 0.54893 0.27995 0.0
C982 C 0.73424 0.4883 0.28392 0.0
C983 C 0.68127 0.48804 0.28182 0.0
C984 C 0.76132 0.50238 0.28058 0.0
C985 C 0.73614 0.51666 0.27537 0.0
C986 C 0.6829 0.51643 0.2741 0.0
C987 C 0.65592 0.5023 0.27711 0.0
H988 H 0.73364 0.31356 0.49034 0.0
H989 H 0.62514 0.29823 0.54189 0.0
H990 H 0.77956 0.28871 0.49493 0.0
H991 H 0.67203 0.27382 0.54737 0.0
H992 H 0.74156 0.22497 0.5372 0.0
H993 H 0.69388 0.24935 0.53207 0.0
H994 H 0.83332 0.27479 0.52008 0.0
H995 H 0.88057 0.2502 0.52412 0.0
C996 C 0.71951 0.30487 0.50261 0.0
C997 C 0.67554 0.30788 0.51564 0.0
C998 C 0.7462 0.29065 0.50549 0.0
C999 C 0.73002 0.27915 0.52171 0.0
C1000 C 0.68553 0.28216 0.53445 0.0
C1001 C 0.65856 0.29625 0.53135 0.0
C1002 C 0.76208 0.23581 0.53374 0.0
C1003 C 0.81492 0.23561 0.5311 0.0
C1004 C 0.73469 0.24986 0.5308 0.0
C1005 C 0.75943 0.26418 0.52545 0.0
C1006 C 0.81257 0.26402 0.52361 0.0
C1007 C 0.83987 0.24992 0.52624 0.0
H1008 H 0.50006 0.22735 0.75519 0.0
H1009 H 0.36077 0.25359 0.76174 0.0
H1010 H 0.54818 0.25149 0.76174 0.0
H1011 H 0.40868 0.27792 0.76724 0.0
H1012 H 0.50422 0.3165 0.79987 0.0
H1013 H 0.45839 0.29173 0.79435 0.0
H1014 H 0.57433 0.27572 0.74669 0.0
H1015 H 0.62093 0.30009 0.75309 0.0
C1016 C 0.47967 0.23835 0.75753 0.0
C1017 C 0.42651 0.23851 0.7579 0.0
C1018 C 0.50733 0.25226 0.76129 0.0
C1019 C 0.4826 0.26679 0.76526 0.0
C1020 C 0.42931 0.26698 0.76485 0.0
C1021 C 0.40169 0.25303 0.76137 0.0
C1022 C 0.52023 0.30758 0.78849 0.0
C1023 C 0.56638 0.3103 0.77702 0.0
C1024 C 0.49362 0.29341 0.78506 0.0
C1025 C 0.51212 0.28164 0.76983 0.0
C1026 C 0.55892 0.28429 0.75878 0.0
C1027 C 0.58574 0.29836 0.76242 0.0
H1028 H 0.37511 0.04807 0.50161 0.0
H1029 H 0.48827 0.06424 0.55051 0.0
H1030 H 0.4223 1.02376 0.49564 0.0
H1031 H 0.53472 0.03953 0.54535 0.0
H1032 H 0.63446 1.00152 0.51347 0.0
H1033 H 0.58629 0.02585 0.51862 0.0
H1034 H 0.44708 0.99948 0.5113 0.0
H1035 H 0.49543 0.97534 0.50517 0.0
C1036 C 0.40965 0.04631 0.51147 0.0
C1037 C 0.42782 0.05815 0.52657 0.0
C1038 C 0.43679 0.03228 0.50808 0.0
C1039 C 0.48275 0.02957 0.51988 0.0
C1040 C 0.50014 0.04126 0.53553 0.0
C1041 C 0.47317 0.05539 0.53874 0.0
C1042 C 0.59357 1.00096 0.51264 0.0
C1043 C 0.56888 0.98647 0.50878 0.0
C1044 C 0.5658 1.01491 0.51591 0.0
C1045 C 0.51251 1.01474 0.51566 0.0
C1046 C 0.48795 1.00023 0.51134 0.0
C1047 C 0.51575 0.98632 0.50783 0.0
H1048 H 0.51415 0.81466 0.30399 0.0
H1049 H 0.62228 0.79965 0.25209 0.0
H1050 H 0.46884 0.78971 0.29953 0.0
H1051 H 0.57592 0.77512 0.24671 0.0
H1052 H 0.50554 0.72627 0.25575 0.0
H1053 H 0.55374 0.75052 0.26139 0.0
H1054 H 0.41483 0.77603 0.27445 0.0
H1055 H 0.36718 0.75158 0.26992 0.0
C1056 C 0.52838 0.80601 0.29169 0.0
C1057 C 0.57199 0.80916 0.27849 0.0
C1058 C 0.50201 0.79173 0.28888 0.0
C1059 C 0.51811 0.7803 0.27253 0.0
C1060 C 0.56245 0.78341 0.25971 0.0
C1061 C 0.58913 0.79757 0.26276 0.0
C1062 C 0.48528 0.7371 0.25958 0.0
C1063 C 0.43247 0.73696 0.26236 0.0
C1064 C 0.51296 0.75108 0.26281 0.0
C1065 C 0.48852 0.76538 0.26861 0.0
C1066 C 0.4354 0.76527 0.27061 0.0
C1067 C 0.40785 0.75125 0.26771 0.0
H1068 H 0.4845 0.47455 1.00766 0.0
H1069 H 0.62341 0.50083 1.01534 0.0
H1070 H 0.43606 0.49849 1.01495 0.0
H1071 H 0.5752 0.52504 0.02137 0.0
H1072 H 0.47956 0.56341 0.05428 0.0
H1073 H 0.52608 0.53884 0.04809 0.0
H1074 H 0.40823 0.5226 1.00145 0.0
H1075 H 0.36089 0.54667 1.00874 0.0
C1076 C 0.50474 0.48554 1.01034 0.0
C1077 C 0.55788 0.48575 1.01086 0.0
C1078 C 0.47688 0.49936 1.01452 0.0
C1079 C 0.50135 0.51388 1.01898 0.0
C1080 C 0.55467 0.51412 1.01864 0.0
C1081 C 0.5825 0.50024 1.01484 0.0
C1082 C 0.46329 0.55445 0.04302 0.0
C1083 C 0.41631 0.557 0.03215 0.0
C1084 C 0.49031 0.5404 0.03917 0.0
C1085 C 0.4715 0.52861 0.02401 0.0
C1086 C 0.42396 0.53114 1.01352 0.0
C1087 C 0.39665 0.54505 1.01767 0.0
H1088 H 0.99355 0.38789 0.46319 0.0
H1089 H 0.03629 0.43435 0.43895 0.0
H1090 H 0.97471 0.38 0.42313 0.0
H1091 H 0.02022 0.42633 0.399 0.0
H1092 H 0.98819 0.41109 0.32717 0.0
H1093 H 0.97091 0.41875 0.36744 0.0
H1094 H 0.02283 0.37291 0.39091 0.0
H1095 H 0.03731 0.36509 0.35072 0.0
C1096 C -0.00192 0.39652 0.44935 0.0
C1097 C 0.01692 0.41171 0.45429 0.0
C1098 C 0.98781 0.39194 0.42629 0.0
C1099 C -0.0031 0.40236 0.40753 0.0
C1100 C 0.01219 0.41793 0.41277 0.0
C1101 C 0.0217 0.42256 0.43583 0.0
C1102 C 0.99452 0.40252 0.34092 0.0
C1103 C 0.0146 0.38753 0.33572 0.0
C1104 C 0.98513 0.40696 0.3641 0.0
C1105 C 0.99646 0.39663 0.38272 0.0
C1106 C 0.01309 0.38123 0.37726 0.0
C1107 C 0.02168 0.37671 0.35407 0.0
H1108 H 0.25205 0.88688 0.3269 0.0
H1109 H 0.20499 0.93276 0.35169 0.0
H1110 H 0.26926 0.87863 0.36693 0.0
H1111 H 0.21906 0.92435 0.39168 0.0
H1112 H 0.24725 0.90825 0.46365 0.0
H1113 H 0.26569 0.91676 0.42386 0.0
H1114 H 0.22149 0.87062 0.39835 0.0
H1115 H 0.20612 0.862 0.43806 0.0
C1116 C 0.24613 0.8953 0.3409 0.0
C1117 C 0.2268 0.91044 0.3361 0.0
C1118 C 0.25542 0.89051 0.36396 0.0
C1119 C 0.24453 0.90063 0.38288 0.0
C1120 C 0.2285 0.91617 0.37782 0.0
C1121 C 0.22019 0.92104 0.35474 0.0
C1122 C 0.24296 0.89981 0.44956 0.0
C1123 C 0.22484 0.88448 0.45406 0.0
C1124 C 0.25294 0.90474 0.42663 0.0
C1125 C 0.24411 0.89456 0.40754 0.0
C1126 C 0.22937 0.87887 0.41235 0.0
C1127 C 0.22029 0.87387 0.43528 0.0
H1128 H 0.03435 0.86351 0.84968 0.0
H1129 H 0.99419 0.91026 0.82569 0.0
H1130 H 0.01903 0.87153 0.88968 0.0
H1131 H 0.97601 0.91816 0.86578 0.0
H1132 H 0.98726 0.88676 0.96165 0.0
H1133 H 0.97053 0.8792 0.92127 0.0
H1134 H 0.02355 0.925 0.89823 0.0
H1135 H 0.03739 0.93273 0.93852 0.0
C1136 C 0.02047 0.87537 0.85286 0.0
C1137 C 0.01614 0.88629 0.83445 0.0
C1138 C 0.01141 0.88001 0.87596 0.0
C1139 C -0.003 0.89565 0.8813 0.0
C1140 C 0.98845 0.90616 0.86258 0.0
C1141 C -0.00169 0.90158 0.83948 0.0
C1142 C 0.99397 0.89535 0.94796 0.0
C1143 C 0.01406 0.91031 0.95334 0.0
C1144 C 0.98492 0.89096 0.92471 0.0
C1145 C -0.00336 0.90131 0.90617 0.0
C1146 C 0.01347 0.91667 0.91179 0.0
C1147 C 0.02168 0.92113 0.93505 0.0
H1148 H 0.24906 0.43334 0.8437 0.0
H1149 H 0.20949 0.38465 0.83039 0.0
H1150 H 0.26764 0.42677 0.88429 0.0
H1151 H 0.2245 0.37823 0.87098 0.0
H1152 H 0.25206 0.36737 0.94499 0.0
H1153 H 0.27016 0.37405 0.9044 0.0
H1154 H 0.22178 0.42214 0.91742 0.0
H1155 H 0.20718 0.41565 0.95797 0.0
C1156 C 0.24502 0.42118 0.84937 0.0
C1157 C 0.22736 0.40956 0.83382 0.0
C1158 C 0.25507 0.41741 0.87278 0.0
C1159 C 0.24651 0.402 0.88139 0.0
C1160 C 0.23218 0.3902 0.8653 0.0
C1161 C 0.22322 0.39391 0.84184 0.0
C1162 C 0.24673 0.37947 0.93926 0.0
C1163 C 0.22775 0.39093 0.95471 0.0
C1164 C 0.25652 0.3833 0.91584 0.0
C1165 C 0.24646 0.3986 0.90716 0.0
C1166 C 0.23068 0.41027 0.92316 0.0
C1167 C 0.22193 0.40651 0.9466 0.0
H1168 H 0.96141 0.63331 0.70937 0.0
H1169 H 0.00179 0.6821 0.69736 0.0
H1170 H 0.97709 0.62731 0.66874 0.0
H1171 H 0.02087 0.67593 0.65669 0.0
H1172 H 0.9591 0.6655 0.58283 0.0
H1173 H 0.97417 0.67163 0.62348 0.0
H1174 H 0.02378 0.62353 0.63541 0.0
H1175 H 0.00535 0.6172 0.5947 0.0
C1176 C 0.97541 0.64268 0.6982 0.0
C1177 C 0.97955 0.65826 0.70658 0.0
C1178 C 0.98479 0.63921 0.67472 0.0
C1179 C -0.00052 0.65116 0.65898 0.0
C1180 C 0.00808 0.66647 0.66796 0.0
C1181 C -0.00229 0.67001 0.69141 0.0
C1182 C 0.97421 0.65628 0.59397 0.0
C1183 C 0.98026 0.64078 0.58554 0.0
C1184 C 0.98326 0.65983 0.61746 0.0
C1185 C -0.0005 0.64804 0.63317 0.0
C1186 C 0.00982 0.63285 0.62416 0.0
C1187 C -0.0002 0.62922 0.60069 0.0
H1188 H 0.78587 0.16561 0.70707 0.0
H1189 H 0.73911 0.11723 0.69641 0.0
H1190 H 0.76904 0.17144 0.66648 0.0
H1191 H 0.71898 0.12326 0.65577 0.0
H1192 H 0.78197 0.13231 0.58159 0.0
H1193 H 0.76556 0.12667 0.62228 0.0
H1194 H 0.72193 0.17542 0.63326 0.0
H1195 H 0.74168 0.18123 0.59254 0.0
C1196 C 0.77019 0.15632 0.69623 0.0
C1197 C 0.76468 0.14088 0.70495 0.0
C1198 C 0.76015 0.1597 0.67277 0.0
C1199 C 0.74345 0.14778 0.65739 0.0
C1200 C 0.73331 0.13267 0.66676 0.0
C1201 C 0.74429 0.12922 0.69019 0.0
C1202 C 0.76778 0.14178 0.59252 0.0
C1203 C 0.76399 0.15729 0.58385 0.0
C1204 C 0.75799 0.13851 0.61604 0.0
C1205 C 0.74326 0.15062 0.63151 0.0
C1206 C 0.73476 0.16585 0.6222 0.0
C1207 C 0.74552 0.16918 0.59873 0.0
H1208 H 0.96182 0.18328 0.18923 0.0
H1209 H 0.00815 0.13687 0.21228 0.0
H1210 H 0.97716 0.1757 0.149 0.0
H1211 H 0.02619 0.12944 0.17199 0.0
H1212 H 0.96261 0.11482 0.0996 0.0
H1213 H 0.97726 0.12239 0.1399 0.0
H1214 H 0.02675 0.16865 0.11716 0.0
H1215 H 0.0094 0.16122 0.07679 0.0
C1216 C 0.97702 0.17162 0.18577 0.0
C1217 C 0.9831 0.16062 0.20397 0.0
C1218 C 0.98609 0.16724 0.16257 0.0
C1219 C 0.0022 0.1518 0.15696 0.0
C1220 C 0.01244 0.14127 0.17545 0.0
C1221 C 0.0026 0.14558 0.19863 0.0
C1222 C 0.97779 0.12648 0.10313 0.0
C1223 C 0.98417 0.13748 0.08498 0.0
C1224 C 0.98645 0.13085 0.12638 0.0
C1225 C 0.00245 0.14629 0.13207 0.0
C1226 C 0.01306 0.15682 0.11364 0.0
C1227 C 0.00363 0.15251 0.0904 0.0
H1228 H 0.78025 0.68397 0.10128 0.0
H1229 H 0.73534 0.63748 0.07802 0.0
H1230 H 0.76474 0.67633 0.14142 0.0
H1231 H 0.71698 0.62998 0.11826 0.0
H1232 H 0.78124 0.61547 0.19066 0.0
H1233 H 0.76539 0.62294 0.15042 0.0
H1234 H 0.71601 0.66919 0.17328 0.0
H1235 H 0.73477 0.66187 0.21355 0.0
C1236 C 0.76528 0.67227 0.10466 0.0
C1237 C 0.75973 0.66128 0.08643 0.0
C1238 C 0.75609 0.66785 0.12783 0.0
C1239 C 0.74032 0.65238 0.1334 0.0
C1240 C 0.73047 0.64185 0.11486 0.0
C1241 C 0.74047 0.6462 0.09169 0.0
C1242 C 0.76579 0.6271 0.18717 0.0
C1243 C 0.75998 0.63814 0.20531 0.0
C1244 C 0.75645 0.63142 0.16396 0.0
C1245 C 0.74025 0.64685 0.15829 0.0
C1246 C 0.72993 0.65738 0.17675 0.0
C1247 C 0.74015 0.65314 0.19994 0.0
H1248 H 0.48915 0.43134 0.94723 0.0
H1249 H 0.53207 0.38274 0.959 0.0
H1250 H 0.47042 0.4252 0.9065 0.0
H1251 H 0.51681 0.37677 0.91829 0.0
H1252 H 0.48953 0.36676 0.84411 0.0
H1253 H 0.47067 0.37283 0.88484 0.0
H1254 H 0.51707 0.42128 0.87331 0.0
H1255 H 0.5325 0.41539 0.83263 0.0
C1256 C 0.49387 0.41929 0.9412 0.0
C1257 C 0.51259 0.40758 0.95633 0.0
C1258 C 0.48371 0.41577 0.91772 0.0
C1259 C 0.49316 0.40053 0.90865 0.0
C1260 C 0.50846 0.38861 0.92434 0.0
C1261 C 0.51757 0.39206 0.94787 0.0
C1262 C 0.49425 0.3788 0.85019 0.0
C1263 C 0.51301 0.39054 0.83514 0.0
C1264 C 0.484 0.38228 0.87368 0.0
C1265 C 0.49333 0.39751 0.88281 0.0
C1266 C 0.50876 0.40945 0.8672 0.0
C1267 C 0.518 0.40604 0.8437 0.0
H1268 H 0.70405 0.86561 0.94155 0.0
H1269 H 0.75229 0.9117 0.96508 0.0
H1270 H 0.71789 0.87351 0.90135 0.0
H1271 H 0.769 0.91944 0.9248 0.0
H1272 H 0.70373 0.93504 0.85328 0.0
H1273 H 0.71983 0.92701 0.89325 0.0
H1274 H 0.76537 0.88068 0.86908 0.0
H1275 H 0.74641 0.88858 0.82905 0.0
C1276 C 0.7194 0.87727 0.93819 0.0
C1277 C 0.72642 0.88808 0.95654 0.0
C1278 C 0.7276 0.88184 0.91499 0.0
C1279 C 0.74382 0.89729 0.90951 0.0
C1280 C 0.75508 0.90762 0.92813 0.0
C1281 C 0.74604 0.90313 0.95132 0.0
C1282 C 0.71836 0.92326 0.85641 0.0
C1283 C 0.72314 0.9124 0.83796 0.0
C1284 C 0.72785 0.91861 0.87948 0.0
C1285 C 0.74316 0.90303 0.88471 0.0
C1286 C 0.75221 0.89262 0.86595 0.0
C1287 C 0.74189 0.8972 0.8429 0.0
H1288 H 0.53545 0.93312 0.44235 0.0
H1289 H 0.4975 0.88623 0.46645 0.0
H1290 H 0.51894 0.92513 0.40247 0.0
H1291 H 0.47802 0.87834 0.42646 0.0
H1292 H 0.53989 0.86414 0.3536 0.0
H1293 H 0.52512 0.87165 0.39391 0.0
H1294 H 0.47051 0.91733 0.37101 0.0
H1295 H 0.48834 0.91001 0.33067 0.0
C1296 C 0.52173 0.92123 0.43923 0.0
C1297 C 0.51852 0.91027 0.45761 0.0
C1298 C 0.51197 0.91661 0.41619 0.0
C1299 C 0.49791 0.90093 0.4109 0.0
C1300 C 0.49021 0.89038 0.42963 0.0
C1301 C 0.5008 0.89495 0.45267 0.0
C1302 C 0.52357 0.87565 0.35712 0.0
C1303 C 0.51597 0.88655 0.33893 0.0
C1304 C 0.51483 0.87999 0.38037 0.0
C1305 C 0.49743 0.89529 0.38604 0.0
C1306 C 0.48542 0.90564 0.36755 0.0
C1307 C 0.4951 0.90139 0.34432 0.0
H1308 H 0.75488 0.3675 0.4468 0.0
H1309 H 0.70447 0.41539 0.45872 0.0
H1310 H 0.77524 0.37426 0.40644 0.0
H1311 H 0.72167 0.42192 0.41841 0.0
H1312 H 0.75116 0.43306 0.34512 0.0
H1313 H 0.77002 0.42668 0.38576 0.0
H1314 H 0.72874 0.37795 0.37279 0.0
H1315 H 0.71314 0.38418 0.33219 0.0
C1316 C 0.74893 0.37954 0.44092 0.0
C1317 C 0.72745 0.39084 0.45594 0.0
C1318 C 0.76007 0.3834 0.41766 0.0
C1319 C 0.74911 0.39858 0.40874 0.0
C1320 C 0.73122 0.41015 0.42439 0.0
C1321 C 0.72095 0.40636 0.44767 0.0
C1322 C 0.74761 0.4209 0.35086 0.0
C1323 C 0.73004 0.40918 0.33545 0.0
C1324 C 0.75788 0.41724 0.37428 0.0
C1325 C 0.7498 0.40183 0.38298 0.0
C1326 C 0.73594 0.38992 0.367 0.0
C1327 C 0.72662 0.39353 0.34355 0.0
H1328 H 0.45061 0.63079 0.20942 0.0
H1329 H 0.50155 0.67848 0.19636 0.0
H1330 H 0.46603 0.62396 0.16908 0.0
H1331 H 0.52026 0.67141 0.15596 0.0
H1332 H 0.45782 0.66112 0.08199 0.0
H1333 H 0.47371 0.66759 0.12249 0.0
H1334 H 0.51277 0.61877 0.13624 0.0
H1335 H 0.49347 0.61218 0.09572 0.0
C1336 C 0.46684 0.63971 0.1981 0.0
C1337 C 0.47406 0.65527 0.2061 0.0
C1338 C 0.47608 0.63575 0.17478 0.0
C1339 C 0.49367 0.64716 0.15881 0.0
C1340 C 0.50525 0.66238 0.16742 0.0
C1341 C 0.49509 0.66642 0.19072 0.0
C1342 C 0.47085 0.6518 0.09351 0.0
C1343 C 0.47358 0.63607 0.08565 0.0
C1344 C 0.48034 0.65554 0.11691 0.0
C1345 C 0.49372 0.64369 0.13309 0.0
C1346 C 0.50098 0.62818 0.12463 0.0
C1347 C 0.49048 0.62439 0.10127 0.0
H1348 H 0.24421 0.11867 0.1974 0.0
H1349 H 0.28861 0.16696 0.21071 0.0
H1350 H 0.22699 0.12537 0.15671 0.0
H1351 H 0.27488 0.17347 0.17008 0.0
H1352 H 0.24894 0.18464 0.09613 0.0
H1353 H 0.22974 0.17808 0.13665 0.0
H1354 H 0.27365 0.12957 0.12363 0.0
H1355 H 0.28932 0.13597 0.0831 0.0
C1356 C 0.24961 0.13077 0.19172 0.0
C1357 C 0.26822 0.14223 0.20729 0.0
C1358 C 0.24033 0.13462 0.16825 0.0
C1359 C 0.25055 0.14993 0.15964 0.0
C1360 C 0.2659 0.16159 0.17575 0.0
C1361 C 0.27414 0.15782 0.19924 0.0
C1362 C 0.25307 0.17249 0.10184 0.0
C1363 C 0.2711 0.16087 0.0864 0.0
C1364 C 0.24264 0.16872 0.12521 0.0
C1365 C 0.25115 0.15332 0.13388 0.0
C1366 C 0.26597 0.14153 0.11789 0.0
C1367 C 0.27533 0.14523 0.09447 0.0
H1368 H 0.4581 0.1348 0.7118 0.0
H1369 H 0.4998 0.18329 0.69824 0.0
H1370 H 0.4746 0.1281 0.67144 0.0
H1371 H 0.5196 0.17643 0.6579 0.0
H1372 H 0.45683 0.16516 0.58449 0.0
H1373 H 0.47231 0.17178 0.62492 0.0
H1374 H 0.5214 0.12378 0.63812 0.0
H1375 H 0.50274 0.11696 0.59759 0.0
C1376 C 0.47266 0.14394 0.70038 0.0
C1377 C 0.47683 0.15965 0.70821 0.0
C1378 C 0.48245 0.14007 0.67706 0.0
C1379 C 0.49755 0.15175 0.66095 0.0
C1380 C 0.50645 0.16717 0.66945 0.0
C1381 C 0.49569 0.1711 0.69271 0.0
C1382 C 0.47193 0.15606 0.59585 0.0
C1383 C 0.47776 0.14046 0.58781 0.0
C1384 C 0.48123 0.1599 0.61922 0.0
C1385 C 0.49745 0.14829 0.63523 0.0
C1386 C 0.50754 0.13298 0.62662 0.0
C1387 C 0.49738 0.12907 0.60326 0.0
H1388 H 0.24153 0.61332 0.69801 0.0
H1389 H 0.28601 0.6617 0.71043 0.0
H1390 H 0.22242 0.61981 0.65745 0.0
H1391 H 0.2705 0.66801 0.66982 0.0
H1392 H 0.24249 0.67845 0.59557 0.0
H1393 H 0.22476 0.67234 0.6364 0.0
H1394 H 0.26846 0.62371 0.6242 0.0
H1395 H 0.28272 0.62966 0.58347 0.0
C1396 C 0.2465 0.62541 0.69216 0.0
C1397 C 0.26571 0.63695 0.70742 0.0
C1398 C 0.23617 0.62912 0.66876 0.0
C1399 C 0.24606 0.64438 0.65987 0.0
C1400 C 0.26183 0.65616 0.67572 0.0
C1401 C 0.27103 0.65252 0.69919 0.0
C1402 C 0.2469 0.66637 0.60155 0.0
C1403 C 0.26445 0.65459 0.58626 0.0
C1404 C 0.2373 0.66286 0.62509 0.0
C1405 C 0.24606 0.64755 0.63406 0.0
C1406 C 0.26052 0.6356 0.61825 0.0
C1407 C 0.26911 0.63904 0.5947 0.0
H1408 H 0.28098 0.36201 0.311 0.0
H1409 H 0.22577 0.40724 0.28682 0.0
H1410 H 0.36458 0.37363 0.31712 0.0
H1411 H 0.30895 0.41855 0.29161 0.0
H1412 H 0.45899 0.43908 0.30934 0.0
H1413 H 0.37482 0.42769 0.31467 0.0
H1414 H 0.43292 0.38177 0.29494 0.0
H1415 H 0.51647 0.39289 0.29097 0.0
C1416 C 0.2866 0.37441 0.30706 0.0
C1417 C 0.24667 0.38362 0.29827 0.0
C1418 C 0.33465 0.3811 0.31041 0.0
C1419 C 0.34409 0.39708 0.30468 0.0
C1420 C 0.30347 0.40633 0.29665 0.0
C1421 C 0.25552 0.39974 0.29367 0.0
C1422 C 0.45378 0.42652 0.30654 0.0
C1423 C 0.49452 0.41697 0.29956 0.0
C1424 C 0.40541 0.41996 0.30942 0.0
C1425 C 0.39651 0.40376 0.30501 0.0
C1426 C 0.43789 0.39419 0.2989 0.0
C1427 C 0.48611 0.40067 0.29639 0.0
H1428 H 0.72208 0.90379 0.31145 0.0
H1429 H 0.7931 0.86071 0.28763 0.0
H1430 H 0.80461 0.91622 0.31544 0.0
H1431 H 0.87582 0.87329 0.29099 0.0
H1432 H 0.02195 0.89625 0.31098 0.0
H1433 H 0.93946 0.884 0.31599 0.0
H1434 H 0.86789 0.92641 0.28975 0.0
H1435 H 0.95068 0.93884 0.28537 0.0
C1436 C 0.75542 0.89691 0.30725 0.0
C1437 C 0.75097 0.88127 0.29905 0.0
C1438 C 0.80277 0.90409 0.30938 0.0
C1439 C 0.84697 0.89587 0.30325 0.0
C1440 C 0.84269 0.87997 0.2961 0.0
C1441 C 0.79522 0.87272 0.29412 0.0
C1442 C 0.98856 0.90307 0.3066 0.0
C1443 C 0.99291 0.9185 0.2976 0.0
C1444 C 0.94122 0.89598 0.30932 0.0
C1445 C 0.89692 0.90408 0.30296 0.0
C1446 C 0.90112 0.91982 0.29503 0.0
C1447 C 0.94861 0.92698 0.29247 0.0
H1448 H 0.2798 0.93675 0.98043 0.0
H1449 H 0.22428 0.89091 1.00177 0.0
H1450 H 0.36428 0.92552 0.97549 0.0
H1451 H 0.30821 0.87998 0.99816 0.0
H1452 H 0.46089 0.86044 0.98275 0.0
H1453 H 0.37671 0.87154 0.97616 0.0
H1454 H 0.43048 0.91728 0.99918 0.0
H1455 H 0.51418 0.90646 1.00445 0.0
C1456 C 0.28551 0.92429 0.98395 0.0
C1457 C 0.24526 0.91481 0.99167 0.0
C1458 C 0.33406 0.91783 0.9813 0.0
C1459 C 0.34361 0.90181 0.98667 0.0
C1460 C 0.30269 0.89226 0.99348 0.0
C1461 C 0.25428 0.89863 0.99577 0.0
C1462 C 0.45472 0.8729 0.98605 0.0
C1463 C 0.49428 0.88249 0.99427 0.0
C1464 C 0.40636 0.87929 0.98242 0.0
C1465 C 0.39627 0.89535 0.9873 0.0
C1466 C 0.43649 0.90497 0.99478 0.0
C1467 C 0.48474 0.89867 0.99805 0.0
H1468 H 0.95985 0.35985 0.98078 0.0
H1469 H 0.01633 0.4061 0.99952 0.0
H1470 H 0.87558 0.37113 0.97514 0.0
H1471 H 0.9327 0.4171 0.99529 0.0
H1472 H 0.78054 0.43671 0.97933 0.0
H1473 H 0.86435 0.42524 0.97314 0.0
H1474 H 0.80934 0.38008 0.99794 0.0
H1475 H 0.72605 0.39123 1.00274 0.0
C1476 C 0.9544 0.3724 0.98359 0.0
C1477 C 0.99488 0.38199 0.99079 0.0
C1478 C 0.90597 0.3789 0.98054 0.0
C1479 C 0.89675 0.39508 0.98499 0.0
C1480 C 0.93791 0.40469 0.99129 0.0
C1481 C 0.98617 0.39828 0.99397 0.0
C1482 C 0.78635 0.42429 0.98308 0.0
C1483 C 0.74656 0.41497 0.99168 0.0
C1484 C 0.83452 0.41769 0.9797 0.0
C1485 C 0.84421 0.40168 0.98523 0.0
C1486 C 0.80371 0.39232 0.99305 0.0
C1487 C 0.75566 0.39882 0.99604 0.0
H1488 H 0.76704 0.64174 0.74933 0.0
H1489 H 0.70954 0.68803 0.73141 0.0
H1490 H 0.68437 0.63041 0.74326 0.0
H1491 H 0.62632 0.67644 0.724 0.0
H1492 H 0.4767 0.65485 0.74973 0.0
H1493 H 0.55917 0.66671 0.74568 0.0
H1494 H 0.61818 0.62244 0.71939 0.0
H1495 H 0.53523 0.61023 0.72478 0.0
C1496 C 0.73689 0.64951 0.74358 0.0
C1497 C 0.74494 0.66588 0.74115 0.0
C1498 C 0.68923 0.64291 0.73983 0.0
C1499 C 0.6481 0.65244 0.7332 0.0
C1500 C 0.65672 0.66874 0.72957 0.0
C1501 C 0.70453 0.67541 0.73368 0.0
C1502 C 0.507 0.64761 0.74283 0.0
C1503 C 0.49936 0.63146 0.73794 0.0
C1504 C 0.55456 0.65452 0.74027 0.0
C1505 C 0.59597 0.64558 0.73241 0.0
C1506 C 0.58759 0.62965 0.72605 0.0
C1507 C 0.53991 0.62264 0.72895 0.0
H1508 H 0.97192 0.15095 0.71992 0.0
H1509 H 0.04423 0.11001 0.75021 0.0
H1510 H 0.05411 0.1632 0.71376 0.0
H1511 H 0.12658 0.12248 0.74494 0.0
H1512 H 0.27289 0.14499 0.7263 0.0
H1513 H 0.19177 0.13195 0.72052 0.0
H1514 H 0.11497 0.17556 0.73776 0.0
H1515 H 0.19633 0.18871 0.74263 0.0
C1516 C 0.00555 0.14447 0.72501 0.0
C1517 C 0.00161 0.12955 0.73572 0.0
C1518 C 0.0527 0.15157 0.72166 0.0
C1519 C 0.09715 0.14401 0.72921 0.0
C1520 C 0.09334 0.12865 0.73868 0.0
C1521 C 0.04607 0.12146 0.74176 0.0
C1522 C 0.23861 0.15187 0.72839 0.0
C1523 C 0.24098 0.16786 0.73509 0.0
C1524 C 0.19205 0.14434 0.72526 0.0
C1525 C 0.14658 0.15256 0.72904 0.0
C1526 C 0.14905 0.16883 0.73446 0.0
C1527 C 0.19575 0.17641 0.73731 0.0
H1528 H 0.48189 0.14359 0.04002 0.0
H1529 H 0.54101 0.18872 0.06257 0.0
H1530 H 0.56502 0.132 0.04325 0.0
H1531 H 0.62467 0.17682 0.0671 0.0
H1532 H 0.77277 0.15712 0.03727 0.0
H1533 H 0.68988 0.16843 0.04295 0.0
H1534 H 0.63326 0.1228 0.0649 0.0
H1535 H 0.71661 0.11122 0.05792 0.0
C1536 C 0.51251 0.15101 0.04619 0.0
C1537 C 0.50474 0.1672 0.05073 0.0
C1538 C 0.56045 0.14426 0.04827 0.0
C1539 C 0.60214 0.15342 0.05527 0.0
C1540 C 0.59382 0.16943 0.06112 0.0
C1541 C 0.54575 0.17627 0.0587 0.0
C1542 C 0.74287 0.14945 0.04351 0.0
C1543 C 0.75137 0.13317 0.04689 0.0
C1544 C 0.6951 0.15604 0.04702 0.0
C1545 C 0.65433 0.14661 0.05434 0.0
C1546 C 0.66337 0.13042 0.05878 0.0
C1547 C 0.71125 0.12376 0.05493 0.0
H1548 H 0.20362 0.60919 0.06459 0.0
H1549 H 0.26161 0.65391 0.0398 0.0
H1550 H 0.1207 0.62135 0.07036 0.0
H1551 H 0.17911 0.66574 0.04429 0.0
H1552 H 0.02988 0.68716 0.06092 0.0
H1553 H 0.11324 0.67536 0.06708 0.0
H1554 H 0.05344 0.62966 0.04731 0.0
H1555 H 0.97064 0.6412 0.04244 0.0
C1556 C 0.19879 0.6216 0.06048 0.0
C1557 C 0.23925 0.63049 0.05154 0.0
C1558 C 0.15114 0.62859 0.06362 0.0
C1559 C 0.14266 0.64456 0.05757 0.0
C1560 C 0.18386 0.65353 0.04953 0.0
C1561 C 0.23141 0.64664 0.04672 0.0
C1562 C 0.03451 0.67456 0.05829 0.0
C1563 C 0.99356 0.6652 0.05098 0.0
C1564 C 0.08242 0.66777 0.06166 0.0
C1565 C 0.0906 0.65151 0.05747 0.0
C1566 C 0.04895 0.64212 0.05109 0.0
C1567 C 0.0012 0.64884 0.04805 0.0
H1568 H 0.5188 0.89694 0.81796 0.0
H1569 H 0.44473 0.93906 0.7925 0.0
H1570 H 0.43696 0.8844 0.82394 0.0
H1571 H 0.36283 0.92632 0.79735 0.0
H1572 H 0.21733 0.90327 0.81489 0.0
H1573 H 0.29875 0.91605 0.821 0.0
H1574 H 0.37453 0.87289 0.80051 0.0
H1575 H 0.29291 0.85996 0.79555 0.0
C1576 C 0.48487 0.90357 0.81383 0.0
C1577 C 0.48815 0.91894 0.8046 0.0
C1578 C 0.43791 0.89632 0.81707 0.0
C1579 C 0.39301 0.90418 0.81079 0.0
C1580 C 0.39634 0.9199 0.80267 0.0
C1581 C 0.44338 0.92724 0.79979 0.0
C1582 C 0.25149 0.89643 0.81217 0.0
C1583 C 0.24879 0.88064 0.80458 0.0
C1584 C 0.29823 0.90381 0.81547 0.0
C1585 C 0.34351 0.89566 0.81087 0.0
C1586 C 0.34068 0.87956 0.8045 0.0
C1587 C 0.29382 0.87211 0.80157 0.0
H1588 H 0.78247 0.35954 0.80753 0.0
H1589 H 0.72536 0.40628 0.79209 0.0
H1590 H 0.86655 0.37074 0.81408 0.0
H1591 H 0.8088 0.41724 0.79729 0.0
H1592 H 0.96005 0.43655 0.81483 0.0
H1593 H 0.87678 0.42461 0.82046 0.0
H1594 H 0.93258 0.38062 0.79177 0.0
H1595 H 0.01544 0.3922 0.78745 0.0
C1596 C 0.78775 0.37218 0.80563 0.0
C1597 C 0.74717 0.38195 0.79909 0.0
C1598 C 0.83605 0.37863 0.80923 0.0
C1599 C 0.84499 0.39495 0.80602 0.0
C1600 C 0.80375 0.40471 0.80035 0.0
C1601 C 0.75562 0.39833 0.79711 0.0
C1602 C 0.95458 0.42426 0.81013 0.0
C1603 C 0.99438 0.41543 0.80049 0.0
C1604 C 0.90672 0.41741 0.81318 0.0
C1605 C 0.89738 0.40163 0.80632 0.0
C1606 C 0.93799 0.39268 0.79762 0.0
C1607 C 0.98575 0.39943 0.79492 0.0
H1608 H 0.29582 0.43624 0.4916 0.0
H1609 H 0.21898 0.39192 0.47949 0.0
H1610 H 0.37709 0.42286 0.48793 0.0
H1611 H 0.30001 0.37862 0.47501 0.0
H1612 H 0.44875 0.35799 0.5058 0.0
H1613 H 0.36611 0.37027 0.50017 0.0
H1614 H 0.43699 0.40948 0.46445 0.0
H1615 H 0.51944 0.39746 0.47086 0.0
C1616 C 0.29629 0.42373 0.48751 0.0
C1617 C 0.25099 0.41513 0.48608 0.0
C1618 C 0.34294 0.41602 0.48535 0.0
C1619 C 0.34531 0.39956 0.48145 0.0
C1620 C 0.29979 0.3912 0.47856 0.0
C1621 C 0.25327 0.39887 0.48095 0.0
C1622 C 0.44647 0.36906 0.49631 0.0
C1623 C 0.49061 0.37682 0.48901 0.0
C1624 C 0.39906 0.37613 0.49303 0.0
C1625 C 0.39477 0.39104 0.48212 0.0
C1626 C 0.43882 0.39823 0.47344 0.0
C1627 C 0.48611 0.39126 0.47695 0.0
H1628 H 0.02254 0.89902 0.47075 0.0
H1629 H 0.94741 0.85679 0.49496 0.0
H1630 H 0.94101 0.91173 0.46454 0.0
H1631 H 0.86578 0.86969 0.48996 0.0
H1632 H 0.72072 0.8934 0.47385 0.0
H1633 H 0.80159 0.88045 0.46695 0.0
H1634 H 0.87918 0.92317 0.48811 0.0
H1635 H 0.79813 0.93626 0.49381 0.0
C1636 C 0.98843 0.89239 0.4745 0.0
C1637 C 0.9913 0.87694 0.48349 0.0
C1638 C 0.94163 0.89973 0.47115 0.0
C1639 C 0.89651 0.89192 0.47714 0.0
C1640 C 0.89945 0.8761 0.48488 0.0
C1641 C 0.94634 0.86865 0.48783 0.0
C1642 C 0.75517 0.90011 0.47652 0.0
C1643 C 0.75315 0.91581 0.48453 0.0
C1644 C 0.8016 0.89264 0.47277 0.0
C1645 C 0.84726 0.9006 0.47735 0.0
C1646 C 0.84506 0.91663 0.48411 0.0
C1647 C 0.7985 0.92419 0.48747 0.0
H1648 H 0.47998 0.15712 0.25359 0.0
H1649 H 0.53452 0.11107 0.23273 0.0
H1650 H 0.56381 0.16795 0.24934 0.0
H1651 H 0.61898 0.1222 0.22711 0.0
H1652 H 0.77038 0.14166 0.2539 0.0
H1653 H 0.68653 0.13071 0.2497 0.0
H1654 H 0.63106 0.17625 0.22666 0.0
H1655 H 0.71535 0.18749 0.23222 0.0
C1656 C 0.50975 0.14932 0.24758 0.0
C1657 C 0.50045 0.13313 0.24376 0.0
C1658 C 0.55812 0.15564 0.2449 0.0
C1659 C 0.59877 0.14603 0.23796 0.0
C1660 C 0.58899 0.12995 0.23298 0.0
C1661 C 0.54045 0.12355 0.23603 0.0
C1662 C 0.7405 0.14937 0.24772 0.0
C1663 C 0.74962 0.16554 0.24364 0.0
C1664 C 0.69216 0.143 0.24508 0.0
C1665 C 0.65143 0.15252 0.23793 0.0
C1666 C 0.66109 0.16857 0.23272 0.0
C1667 C 0.70952 0.17504 0.23574 0.0
H1668 H 0.96674 0.65538 0.23036 0.0
H1669 H 0.03909 0.61186 0.25157 0.0
H1670 H 0.04907 0.66765 0.22487 0.0
H1671 H 0.12167 0.62429 0.24671 0.0
H1672 H 0.2664 0.64699 0.22523 0.0
H1673 H 0.18305 0.63517 0.22076 0.0
H1674 H 0.11509 0.6774 0.24949 0.0
H1675 H 0.19867 0.68939 0.25331 0.0
C1676 C 0.0003 0.64837 0.23367 0.0
C1677 C 0.99632 0.63265 0.24159 0.0
C1678 C 0.04756 0.65547 0.23066 0.0
C1679 C 0.09215 0.64708 0.23562 0.0
C1680 C 0.08821 0.6311 0.24248 0.0
C1681 C 0.04082 0.62395 0.24534 0.0
C1682 C 0.23356 0.65388 0.23019 0.0
C1683 C 0.23916 0.66909 0.23981 0.0
C1684 C 0.18576 0.64703 0.2278 0.0
C1685 C 0.14227 0.65518 0.23513 0.0
C1686 C 0.14765 0.67078 0.24349 0.0
C1687 C 0.1956 0.6777 0.2457 0.0
H1688 H 0.71214 0.60825 0.5558 0.0
H1689 H 0.7671 0.65497 0.53878 0.0
H1690 H 0.62715 0.61908 0.56096 0.0
H1691 H 0.68281 0.66554 0.5425 0.0
H1692 H 0.52948 0.68426 0.55887 0.0
H1693 H 0.61392 0.67311 0.56451 0.0
H1694 H 0.56082 0.62808 0.53827 0.0
H1695 H 0.47684 0.6389 0.53404 0.0
C1696 C 0.70617 0.62081 0.55324 0.0
C1697 C 0.74648 0.63068 0.54675 0.0
C1698 C 0.65734 0.62704 0.55601 0.0
C1699 C 0.64754 0.64324 0.55195 0.0
C1700 C 0.68844 0.65311 0.54622 0.0
C1701 C 0.7371 0.64696 0.54385 0.0
C1702 C 0.5359 0.67193 0.55463 0.0
C1703 C 0.49641 0.66253 0.54591 0.0
C1704 C 0.58441 0.66552 0.55771 0.0
C1705 C 0.59476 0.64964 0.55169 0.0
C1706 C 0.55465 0.64022 0.54356 0.0
C1707 C 0.50623 0.64653 0.54091 0.0
H1708 H 0.04452 0.18598 0.54166 0.0
H1709 H 0.97121 0.14233 0.56139 0.0
H1710 H 0.12684 0.17325 0.546 0.0
H1711 H 0.05325 0.12973 0.56631 0.0
H1712 H 0.20141 0.10799 0.53657 0.0
H1713 H 0.11838 0.12028 0.54088 0.0
H1714 H 0.1883 0.16161 0.57141 0.0
H1715 H 0.27107 0.14952 0.56651 0.0
C1716 C 0.046 0.1738 0.5475 0.0
C1717 C 0.00131 0.16515 0.55094 0.0
C1718 C 0.09323 0.16646 0.55003 0.0
C1719 C 0.09677 0.15036 0.55624 0.0
C1720 C 0.05201 0.14202 0.561 0.0
C1721 C 0.00493 0.1493 0.55834 0.0
C1722 C 0.19889 0.11955 0.54463 0.0
C1723 C 0.24286 0.12782 0.55096 0.0
C1724 C 0.15127 0.12663 0.54715 0.0
C1725 C 0.1466 0.14207 0.55622 0.0
C1726 C 0.19047 0.14989 0.56385 0.0
C1727 C 0.23795 0.14288 0.56119 0.0
loop_
_geom_bond_atom_site_label_1
_geom_bond_atom_site_label_2
_geom_bond_distance
_geom_bond_site_symmetry_2
_ccdc_geom_bond_type
O0 Cd1 2.223 . S
O0 C8 1.315 . S
Cd1 O0 2.223 . S
Cd1 O4 2.297 . S
Cd1 O5 2.439 . S
Cd1 O11 2.240 . S
Cd2 O3 2.240 . S
Cd2 O10 2.223 . S
Cd2 O12 2.297 . S
Cd2 O13 2.439 . S
O3 Cd2 2.240 . S
O3 C8 1.279 . S
O4 Cd1 2.297 . S
O4 C6 1.247 . S
O5 Cd1 2.439 . S
O5 C6 1.208 . S
C6 O4 1.247 . S
C6 O5 1.208 . S
C7 O12 1.247 . S
C7 O13 1.208 . S
C8 O0 1.315 . S
C8 O3 1.279 . S
C9 O10 1.315 . S
C9 O11 1.279 . S
O10 Cd2 2.223 . S
O10 C9 1.315 . S
O11 Cd1 2.240 . S
O11 C9 1.279 . S
O12 Cd2 2.297 . S
O12 C7 1.247 . S
O13 Cd2 2.439 . S
O13 C7 1.208 . S
O14 Cd15 2.223 . S
O14 C22 1.315 . S
Cd15 O14 2.223 . S
Cd15 O18 2.297 . S
Cd15 O19 2.439 . S
Cd15 O25 2.240 . S
Cd16 O17 2.240 . S
Cd16 O24 2.223 . S
Cd16 O26 2.297 . S
Cd16 O27 2.439 . S
O17 Cd16 2.240 . S
O17 C22 1.279 . S
O18 Cd15 2.297 . S
O18 C20 1.247 . S
O19 Cd15 2.439 . S
O19 C20 1.208 . S
C20 O18 1.247 . S
C20 O19 1.208 . S
C21 O26 1.247 . S
C21 O27 1.208 . S
C22 O14 1.315 . S
C22 O17 1.279 . S
C23 O24 1.315 . S
C23 O25 1.279 . S
O24 Cd16 2.223 . S
O24 C23 1.315 . S
O25 Cd15 2.240 . S
O25 C23 1.279 . S
O26 Cd16 2.297 . S
O26 C21 1.247 . S
O27 Cd16 2.439 . S
O27 C21 1.208 . S
O28 Cd29 2.223 . S
O28 C36 1.315 . S
Cd29 O28 2.223 . S
Cd29 O32 2.297 . S
Cd29 O33 2.439 1_554 S
Cd29 O39 2.240 1_554 S
Cd30 O31 2.240 1_556 S
Cd30 O38 2.223 1_556 S
Cd30 O40 2.297 . S
Cd30 O41 2.439 . S
O31 Cd30 2.240 1_554 S
O31 C36 1.279 . S
O32 Cd29 2.297 . S
O32 C34 1.247 . S
O33 Cd29 2.439 1_556 S
O33 C34 1.208 1_556 S
C34 O32 1.247 . S
C34 O33 1.208 1_554 S
C35 O40 1.247 . S
C35 O41 1.208 . S
C36 O28 1.315 . S
C36 O31 1.279 . S
C37 O38 1.315 . S
C37 O39 1.279 1_554 S
O38 Cd30 2.223 1_554 S
O38 C37 1.315 . S
O39 Cd29 2.240 1_556 S
O39 C37 1.279 1_556 S
O40 Cd30 2.297 . S
O40 C35 1.247 . S
O41 Cd30 2.439 . S
O41 C35 1.208 . S
O42 Cd43 2.223 . S
O42 C50 1.315 . S
Cd43 O42 2.223 . S
Cd43 O46 2.297 . S
Cd43 O47 2.439 1_554 S
Cd43 O53 2.240 1_554 S
Cd44 O45 2.240 1_556 S
Cd44 O52 2.223 1_556 S
Cd44 O54 2.297 . S
Cd44 O55 2.439 . S
O45 Cd44 2.240 1_554 S
O45 C50 1.279 . S
O46 Cd43 2.297 . S
O46 C48 1.247 . S
O47 Cd43 2.439 1_556 S
O47 C48 1.208 1_556 S
C48 O46 1.247 . S
C48 O47 1.208 1_554 S
C49 O54 1.247 . S
C49 O55 1.208 . S
C50 O42 1.315 . S
C50 O45 1.279 . S
C51 O52 1.315 . S
C51 O53 1.279 1_554 S
O52 Cd44 2.223 1_554 S
O52 C51 1.315 . S
O53 Cd43 2.240 1_556 S
O53 C51 1.279 1_556 S
O54 Cd44 2.297 . S
O54 C49 1.247 . S
O55 Cd44 2.439 . S
O55 C49 1.208 . S
O56 Cd57 2.223 . S
O56 C64 1.315 . S
Cd57 O56 2.223 . S
Cd57 O60 2.297 . S
Cd57 O61 2.439 . S
Cd57 O67 2.240 . S
Cd58 O59 2.240 . S
Cd58 O66 2.223 . S
Cd58 O68 2.297 . S
Cd58 O69 2.439 . S
O59 Cd58 2.240 . S
O59 C64 1.279 . S
O60 Cd57 2.297 . S
O60 C62 1.247 . S
O61 Cd57 2.439 . S
O61 C62 1.208 . S
C62 O60 1.247 . S
C62 O61 1.208 . S
C63 O68 1.247 . S
C63 O69 1.208 . S
C64 O56 1.315 . S
C64 O59 1.279 . S
C65 O66 1.315 . S
C65 O67 1.279 . S
O66 Cd58 2.223 . S
O66 C65 1.315 . S
O67 Cd57 2.240 . S
O67 C65 1.279 . S
O68 Cd58 2.297 . S
O68 C63 1.247 . S
O69 Cd58 2.439 . S
O69 C63 1.208 . S
O70 Cd71 2.223 . S
O70 C78 1.315 . S
Cd71 O70 2.223 . S
Cd71 O74 2.297 . S
Cd71 O75 2.439 . S
Cd71 O81 2.240 . S
Cd72 O73 2.240 . S
Cd72 O80 2.223 . S
Cd72 O82 2.297 . S
Cd72 O83 2.439 . S
O73 Cd72 2.240 . S
O73 C78 1.279 . S
O74 Cd71 2.297 . S
O74 C76 1.247 . S
O75 Cd71 2.439 . S
O75 C76 1.208 . S
C76 O74 1.247 . S
C76 O75 1.208 . S
C77 O82 1.247 . S
C77 O83 1.208 . S
C78 O70 1.315 . S
C78 O73 1.279 . S
C79 O80 1.315 . S
C79 O81 1.279 . S
O80 Cd72 2.223 . S
O80 C79 1.315 . S
O81 Cd71 2.240 . S
O81 C79 1.279 . S
O82 Cd72 2.297 . S
O82 C77 1.247 . S
O83 Cd72 2.439 . S
O83 C77 1.208 . S
O84 Cd85 2.223 . S
O84 C92 1.315 . S
Cd85 O84 2.223 . S
Cd85 O88 2.297 . S
Cd85 O89 2.439 1_556 S
Cd85 O95 2.240 1_556 S
Cd86 O87 2.240 1_554 S
Cd86 O94 2.223 1_554 S
Cd86 O96 2.297 . S
Cd86 O97 2.439 . S
O87 Cd86 2.240 1_556 S
O87 C92 1.279 . S
O88 Cd85 2.297 . S
O88 C90 1.247 . S
O89 Cd85 2.439 1_554 S
O89 C90 1.208 1_554 S
C90 O88 1.247 . S
C90 O89 1.208 1_556 S
C91 O96 1.247 . S
C91 O97 1.208 . S
C92 O84 1.315 . S
C92 O87 1.279 . S
C93 O94 1.315 . S
C93 O95 1.279 1_556 S
O94 Cd86 2.223 1_556 S
O94 C93 1.315 . S
O95 Cd85 2.240 1_554 S
O95 C93 1.279 1_554 S
O96 Cd86 2.297 . S
O96 C91 1.247 . S
O97 Cd86 2.439 . S
O97 C91 1.208 . S
O98 Cd99 2.223 . S
O98 C106 1.315 . S
Cd99 O98 2.223 . S
Cd99 O102 2.297 . S
Cd99 O103 2.439 1_556 S
Cd99 O109 2.240 1_556 S
Cd100 O101 2.240 1_554 S
Cd100 O108 2.223 1_554 S
Cd100 O110 2.297 . S
Cd100 O111 2.439 . S
O101 Cd100 2.240 1_556 S
O101 C106 1.279 . S
O102 Cd99 2.297 . S
O102 C104 1.247 . S
O103 Cd99 2.439 1_554 S
O103 C104 1.208 1_554 S
C104 O102 1.247 . S
C104 O103 1.208 1_556 S
C105 O110 1.247 . S
C105 O111 1.208 . S
C106 O98 1.315 . S
C106 O101 1.279 . S
C107 O108 1.315 . S
C107 O109 1.279 1_556 S
O108 Cd100 2.223 1_556 S
O108 C107 1.315 . S
O109 Cd99 2.240 1_554 S
O109 C107 1.279 1_554 S
O110 Cd100 2.297 . S
O110 C105 1.247 . S
O111 Cd100 2.439 . S
O111 C105 1.208 . S
O112 Cd113 2.223 . S
O112 C120 1.315 . S
Cd113 O112 2.223 . S
Cd113 O116 2.297 . S
Cd113 O117 2.439 . S
Cd113 O123 2.240 . S
Cd114 O115 2.240 . S
Cd114 O122 2.223 . S
Cd114 O124 2.297 . S
Cd114 O125 2.439 . S
O115 Cd114 2.240 . S
O115 C120 1.279 . S
O116 Cd113 2.297 . S
O116 C118 1.247 . S
O117 Cd113 2.439 . S
O117 C118 1.208 . S
C118 O116 1.247 . S
C118 O117 1.208 . S
C119 O124 1.247 . S
C119 O125 1.208 . S
C120 O112 1.315 . S
C120 O115 1.279 . S
C121 O122 1.315 . S
C121 O123 1.279 . S
O122 Cd114 2.223 . S
O122 C121 1.315 . S
O123 Cd113 2.240 . S
O123 C121 1.279 . S
O124 Cd114 2.297 . S
O124 C119 1.247 . S
O125 Cd114 2.439 . S
O125 C119 1.208 . S
O126 Cd127 2.223 . S
O126 C134 1.315 . S
Cd127 O126 2.223 . S
Cd127 O130 2.297 . S
Cd127 O131 2.439 . S
Cd127 O137 2.240 . S
Cd128 O129 2.240 . S
Cd128 O136 2.223 . S
Cd128 O138 2.297 . S
Cd128 O139 2.439 . S
O129 Cd128 2.240 . S
O129 C134 1.279 . S
O130 Cd127 2.297 . S
O130 C132 1.247 . S
O131 Cd127 2.439 . S
O131 C132 1.208 . S
C132 O130 1.247 . S
C132 O131 1.208 . S
C133 O138 1.247 . S
C133 O139 1.208 . S
C134 O126 1.315 . S
C134 O129 1.279 . S
C135 O136 1.315 . S
C135 O137 1.279 . S
O136 Cd128 2.223 . S
O136 C135 1.315 . S
O137 Cd127 2.240 . S
O137 C135 1.279 . S
O138 Cd128 2.297 . S
O138 C133 1.247 . S
O139 Cd128 2.439 . S
O139 C133 1.208 . S
O140 Cd141 2.223 . S
O140 C148 1.315 . S
Cd141 O140 2.223 . S
Cd141 O144 2.297 . S
Cd141 O145 2.439 . S
Cd141 O151 2.240 . S
Cd142 O143 2.240 . S
Cd142 O150 2.223 . S
Cd142 O152 2.297 . S
Cd142 O153 2.439 . S
O143 Cd142 2.240 . S
O143 C148 1.279 . S
O144 Cd141 2.297 . S
O144 C146 1.247 . S
O145 Cd141 2.439 . S
O145 C146 1.208 . S
C146 O144 1.247 . S
C146 O145 1.208 . S
C147 O152 1.247 . S
C147 O153 1.208 . S
C148 O140 1.315 . S
C148 O143 1.279 . S
C149 O150 1.315 . S
C149 O151 1.279 . S
O150 Cd142 2.223 . S
O150 C149 1.315 . S
O151 Cd141 2.240 . S
O151 C149 1.279 . S
O152 Cd142 2.297 . S
O152 C147 1.247 . S
O153 Cd142 2.439 . S
O153 C147 1.208 . S
O154 Cd155 2.223 . S
O154 C162 1.315 . S
Cd155 O154 2.223 . S
Cd155 O158 2.297 . S
Cd155 O159 2.439 . S
Cd155 O165 2.240 . S
Cd156 O157 2.240 . S
Cd156 O164 2.223 . S
Cd156 O166 2.297 . S
Cd156 O167 2.439 . S
O157 Cd156 2.240 . S
O157 C162 1.279 . S
O158 Cd155 2.297 . S
O158 C160 1.247 . S
O159 Cd155 2.439 . S
O159 C160 1.208 . S
C160 O158 1.247 . S
C160 O159 1.208 . S
C161 O166 1.247 . S
C161 O167 1.208 . S
C162 O154 1.315 . S
C162 O157 1.279 . S
C163 O164 1.315 . S
C163 O165 1.279 . S
O164 Cd156 2.223 . S
O164 C163 1.315 . S
O165 Cd155 2.240 . S
O165 C163 1.279 . S
O166 Cd156 2.297 . S
O166 C161 1.247 . S
O167 Cd156 2.439 . S
O167 C161 1.208 . S
O168 Cd169 2.223 . S
O168 C176 1.315 . S
Cd169 O168 2.223 . S
Cd169 O172 2.297 . S
Cd169 O173 2.439 . S
Cd169 O179 2.240 . S
Cd170 O171 2.240 . S
Cd170 O178 2.223 . S
Cd170 O180 2.297 . S
Cd170 O181 2.439 . S
O171 Cd170 2.240 . S
O171 C176 1.279 . S
O172 Cd169 2.297 . S
O172 C174 1.247 . S
O173 Cd169 2.439 . S
O173 C174 1.208 . S
C174 O172 1.247 . S
C174 O173 1.208 . S
C175 O180 1.247 . S
C175 O181 1.208 . S
C176 O168 1.315 . S
C176 O171 1.279 . S
C177 O178 1.315 . S
C177 O179 1.279 . S
O178 Cd170 2.223 . S
O178 C177 1.315 . S
O179 Cd169 2.240 . S
O179 C177 1.279 . S
O180 Cd170 2.297 . S
O180 C175 1.247 . S
O181 Cd170 2.439 . S
O181 C175 1.208 . S
O182 Cd183 2.223 . S
O182 C190 1.315 . S
Cd183 O182 2.223 . S
Cd183 O186 2.297 . S
Cd183 O187 2.439 . S
Cd183 O193 2.240 . S
Cd184 O185 2.240 . S
Cd184 O192 2.223 . S
Cd184 O194 2.297 . S
Cd184 O195 2.439 . S
O185 Cd184 2.240 . S
O185 C190 1.279 . S
O186 Cd183 2.297 . S
O186 C188 1.247 . S
O187 Cd183 2.439 . S
O187 C188 1.208 . S
C188 O186 1.247 . S
C188 O187 1.208 . S
C189 O194 1.247 . S
C189 O195 1.208 . S
C190 O182 1.315 . S
C190 O185 1.279 . S
C191 O192 1.315 . S
C191 O193 1.279 . S
O192 Cd184 2.223 . S
O192 C191 1.315 . S
O193 Cd183 2.240 . S
O193 C191 1.279 . S
O194 Cd184 2.297 . S
O194 C189 1.247 . S
O195 Cd184 2.439 . S
O195 C189 1.208 . S
O196 Cd197 2.223 . S
O196 C204 1.315 . S
Cd197 O196 2.223 . S
Cd197 O200 2.297 . S
Cd197 O201 2.439 . S
Cd197 O207 2.240 . S
Cd198 O199 2.240 . S
Cd198 O206 2.223 . S
Cd198 O208 2.297 . S
Cd198 O209 2.439 . S
O199 Cd198 2.240 . S
O199 C204 1.279 . S
O200 Cd197 2.297 . S
O200 C202 1.247 . S
O201 Cd197 2.439 . S
O201 C202 1.208 . S
C202 O200 1.247 . S
C202 O201 1.208 . S
C203 O208 1.247 . S
C203 O209 1.208 . S
C204 O196 1.315 . S
C204 O199 1.279 . S
C205 O206 1.315 . S
C205 O207 1.279 . S
O206 Cd198 2.223 . S
O206 C205 1.315 . S
O207 Cd197 2.240 . S
O207 C205 1.279 . S
O208 Cd198 2.297 . S
O208 C203 1.247 . S
O209 Cd198 2.439 . S
O209 C203 1.208 . S
O210 Cd211 2.223 . S
O210 C218 1.315 . S
Cd211 O210 2.223 . S
Cd211 O214 2.297 . S
Cd211 O215 2.439 . S
Cd211 O221 2.240 . S
Cd212 O213 2.240 . S
Cd212 O220 2.223 . S
Cd212 O222 2.297 . S
Cd212 O223 2.439 . S
O213 Cd212 2.240 . S
O213 C218 1.279 . S
O214 Cd211 2.297 . S
O214 C216 1.247 . S
O215 Cd211 2.439 . S
O215 C216 1.208 . S
C216 O214 1.247 . S
C216 O215 1.208 . S
C217 O222 1.247 . S
C217 O223 1.208 . S
C218 O210 1.315 . S
C218 O213 1.279 . S
C219 O220 1.315 . S
C219 O221 1.279 . S
O220 Cd212 2.223 . S
O220 C219 1.315 . S
O221 Cd211 2.240 . S
O221 C219 1.279 . S
O222 Cd212 2.297 . S
O222 C217 1.247 . S
O223 Cd212 2.439 . S
O223 C217 1.208 . S
O224 Cd225 2.223 . S
O224 C232 1.315 . S
Cd225 O224 2.223 . S
Cd225 O228 2.297 . S
Cd225 O229 2.439 . S
Cd225 O235 2.240 . S
Cd226 O227 2.240 . S
Cd226 O234 2.223 . S
Cd226 O236 2.297 . S
Cd226 O237 2.439 . S
O227 Cd226 2.240 . S
O227 C232 1.279 . S
O228 Cd225 2.297 . S
O228 C230 1.247 . S
O229 Cd225 2.439 . S
O229 C230 1.208 . S
C230 O228 1.247 . S
C230 O229 1.208 . S
C231 O236 1.247 . S
C231 O237 1.208 . S
C232 O224 1.315 . S
C232 O227 1.279 . S
C233 O234 1.315 . S
C233 O235 1.279 . S
O234 Cd226 2.223 . S
O234 C233 1.315 . S
O235 Cd225 2.240 . S
O235 C233 1.279 . S
O236 Cd226 2.297 . S
O236 C231 1.247 . S
O237 Cd226 2.439 . S
O237 C231 1.208 . S
O238 Cd239 2.223 . S
O238 C246 1.315 . S
Cd239 O238 2.223 . S
Cd239 O242 2.297 . S
Cd239 O243 2.439 . S
Cd239 O249 2.240 . S
Cd240 O241 2.240 . S
Cd240 O248 2.223 . S
Cd240 O250 2.297 . S
Cd240 O251 2.439 . S
O241 Cd240 2.240 . S
O241 C246 1.279 . S
O242 Cd239 2.297 . S
O242 C244 1.247 . S
O243 Cd239 2.439 . S
O243 C244 1.208 . S
C244 O242 1.247 . S
C244 O243 1.208 . S
C245 O250 1.247 . S
C245 O251 1.208 . S
C246 O238 1.315 . S
C246 O241 1.279 . S
C247 O248 1.315 . S
C247 O249 1.279 . S
O248 Cd240 2.223 . S
O248 C247 1.315 . S
O249 Cd239 2.240 . S
O249 C247 1.279 . S
O250 Cd240 2.297 . S
O250 C245 1.247 . S
O251 Cd240 2.439 . S
O251 C245 1.208 . S
O252 Cd253 2.223 . S
O252 C260 1.315 . S
Cd253 O252 2.223 . S
Cd253 O256 2.297 . S
Cd253 O257 2.439 . S
Cd253 O263 2.240 . S
Cd254 O255 2.240 . S
Cd254 O262 2.223 . S
Cd254 O264 2.297 . S
Cd254 O265 2.439 . S
O255 Cd254 2.240 . S
O255 C260 1.279 . S
O256 Cd253 2.297 . S
O256 C258 1.247 . S
O257 Cd253 2.439 . S
O257 C258 1.208 . S
C258 O256 1.247 . S
C258 O257 1.208 . S
C259 O264 1.247 . S
C259 O265 1.208 . S
C260 O252 1.315 . S
C260 O255 1.279 . S
C261 O262 1.315 . S
C261 O263 1.279 . S
O262 Cd254 2.223 . S
O262 C261 1.315 . S
O263 Cd253 2.240 . S
O263 C261 1.279 . S
O264 Cd254 2.297 . S
O264 C259 1.247 . S
O265 Cd254 2.439 . S
O265 C259 1.208 . S
O266 Cd267 2.223 . S
O266 C274 1.315 . S
Cd267 O266 2.223 . S
Cd267 O270 2.297 . S
Cd267 O271 2.439 . S
Cd267 O277 2.240 . S
Cd268 O269 2.240 . S
Cd268 O276 2.223 . S
Cd268 O278 2.297 . S
Cd268 O279 2.439 . S
O269 Cd268 2.240 . S
O269 C274 1.279 . S
O270 Cd267 2.297 . S
O270 C272 1.247 . S
O271 Cd267 2.439 . S
O271 C272 1.208 . S
C272 O270 1.247 . S
C272 O271 1.208 . S
C273 O278 1.247 . S
C273 O279 1.208 . S
C274 O266 1.315 . S
C274 O269 1.279 . S
C275 O276 1.315 . S
C275 O277 1.279 . S
O276 Cd268 2.223 . S
O276 C275 1.315 . S
O277 Cd267 2.240 . S
O277 C275 1.279 . S
O278 Cd268 2.297 . S
O278 C273 1.247 . S
O279 Cd268 2.439 . S
O279 C273 1.208 . S
O280 Cd281 2.223 . S
O280 C288 1.315 . S
Cd281 O280 2.223 . S
Cd281 O284 2.297 . S
Cd281 O285 2.439 . S
Cd281 O291 2.240 . S
Cd282 O283 2.240 . S
Cd282 O290 2.223 . S
Cd282 O292 2.297 . S
Cd282 O293 2.439 . S
O283 Cd282 2.240 . S
O283 C288 1.279 . S
O284 Cd281 2.297 . S
O284 C286 1.247 . S
O285 Cd281 2.439 . S
O285 C286 1.208 . S
C286 O284 1.247 . S
C286 O285 1.208 . S
C287 O292 1.247 . S
C287 O293 1.208 . S
C288 O280 1.315 . S
C288 O283 1.279 . S
C289 O290 1.315 . S
C289 O291 1.279 . S
O290 Cd282 2.223 . S
O290 C289 1.315 . S
O291 Cd281 2.240 . S
O291 C289 1.279 . S
O292 Cd282 2.297 . S
O292 C287 1.247 . S
O293 Cd282 2.439 . S
O293 C287 1.208 . S
O294 Cd295 2.223 . S
O294 C302 1.315 . S
Cd295 O294 2.223 . S
Cd295 O298 2.297 . S
Cd295 O299 2.439 . S
Cd295 O305 2.240 . S
Cd296 O297 2.240 . S
Cd296 O304 2.223 . S
Cd296 O306 2.297 . S
Cd296 O307 2.439 . S
O297 Cd296 2.240 . S
O297 C302 1.279 . S
O298 Cd295 2.297 . S
O298 C300 1.247 . S
O299 Cd295 2.439 . S
O299 C300 1.208 . S
C300 O298 1.247 . S
C300 O299 1.208 . S
C301 O306 1.247 . S
C301 O307 1.208 . S
C302 O294 1.315 . S
C302 O297 1.279 . S
C303 O304 1.315 . S
C303 O305 1.279 . S
O304 Cd296 2.223 . S
O304 C303 1.315 . S
O305 Cd295 2.240 . S
O305 C303 1.279 . S
O306 Cd296 2.297 . S
O306 C301 1.247 . S
O307 Cd296 2.439 . S
O307 C301 1.208 . S
O308 Cd309 2.223 . S
O308 C316 1.315 . S
Cd309 O308 2.223 . S
Cd309 O312 2.297 . S
Cd309 O313 2.439 . S
Cd309 O319 2.240 . S
Cd310 O311 2.240 . S
Cd310 O318 2.223 . S
Cd310 O320 2.297 . S
Cd310 O321 2.439 . S
O311 Cd310 2.240 . S
O311 C316 1.279 . S
O312 Cd309 2.297 . S
O312 C314 1.247 . S
O313 Cd309 2.439 . S
O313 C314 1.208 . S
C314 O312 1.247 . S
C314 O313 1.208 . S
C315 O320 1.247 . S
C315 O321 1.208 . S
C316 O308 1.315 . S
C316 O311 1.279 . S
C317 O318 1.315 . S
C317 O319 1.279 . S
O318 Cd310 2.223 . S
O318 C317 1.315 . S
O319 Cd309 2.240 . S
O319 C317 1.279 . S
O320 Cd310 2.297 . S
O320 C315 1.247 . S
O321 Cd310 2.439 . S
O321 C315 1.208 . S
O322 Cd323 2.223 . S
O322 C330 1.315 . S
Cd323 O322 2.223 . S
Cd323 O326 2.297 . S
Cd323 O327 2.439 . S
Cd323 O333 2.240 . S
Cd324 O325 2.240 . S
Cd324 O332 2.223 . S
Cd324 O334 2.297 . S
Cd324 O335 2.439 . S
O325 Cd324 2.240 . S
O325 C330 1.279 . S
O326 Cd323 2.297 . S
O326 C328 1.247 . S
O327 Cd323 2.439 . S
O327 C328 1.208 . S
C328 O326 1.247 . S
C328 O327 1.208 . S
C329 O334 1.247 . S
C329 O335 1.208 . S
C330 O322 1.315 . S
C330 O325 1.279 . S
C331 O332 1.315 . S
C331 O333 1.279 . S
O332 Cd324 2.223 . S
O332 C331 1.315 . S
O333 Cd323 2.240 . S
O333 C331 1.279 . S
O334 Cd324 2.297 . S
O334 C329 1.247 . S
O335 Cd324 2.439 . S
O335 C329 1.208 . S
O336 Cd337 2.223 . S
O336 C344 1.315 . S
Cd337 O336 2.223 . S
Cd337 O340 2.297 . S
Cd337 O341 2.439 . S
Cd337 O347 2.240 . S
Cd338 O339 2.240 . S
Cd338 O346 2.223 . S
Cd338 O348 2.297 . S
Cd338 O349 2.439 . S
O339 Cd338 2.240 . S
O339 C344 1.279 . S
O340 Cd337 2.297 . S
O340 C342 1.247 . S
O341 Cd337 2.439 . S
O341 C342 1.208 . S
C342 O340 1.247 . S
C342 O341 1.208 . S
C343 O348 1.247 . S
C343 O349 1.208 . S
C344 O336 1.315 . S
C344 O339 1.279 . S
C345 O346 1.315 . S
C345 O347 1.279 . S
O346 Cd338 2.223 . S
O346 C345 1.315 . S
O347 Cd337 2.240 . S
O347 C345 1.279 . S
O348 Cd338 2.297 . S
O348 C343 1.247 . S
O349 Cd338 2.439 . S
O349 C343 1.208 . S
O350 Cd351 2.223 . S
O350 C358 1.315 . S
Cd351 O350 2.223 . S
Cd351 O354 2.297 . S
Cd351 O355 2.439 . S
Cd351 O361 2.240 . S
Cd352 O353 2.240 . S
Cd352 O360 2.223 . S
Cd352 O362 2.297 . S
Cd352 O363 2.439 . S
O353 Cd352 2.240 . S
O353 C358 1.279 . S
O354 Cd351 2.297 . S
O354 C356 1.247 . S
O355 Cd351 2.439 . S
O355 C356 1.208 . S
C356 O354 1.247 . S
C356 O355 1.208 . S
C357 O362 1.247 . S
C357 O363 1.208 . S
C358 O350 1.315 . S
C358 O353 1.279 . S
C359 O360 1.315 . S
C359 O361 1.279 . S
O360 Cd352 2.223 . S
O360 C359 1.315 . S
O361 Cd351 2.240 . S
O361 C359 1.279 . S
O362 Cd352 2.297 . S
O362 C357 1.247 . S
O363 Cd352 2.439 . S
O363 C357 1.208 . S
O364 Cd365 2.223 . S
O364 C372 1.315 . S
Cd365 O364 2.223 . S
Cd365 O368 2.297 . S
Cd365 O369 2.439 1_554 S
Cd365 O375 2.240 1_554 S
Cd366 O367 2.240 1_556 S
Cd366 O374 2.223 1_556 S
Cd366 O376 2.297 . S
Cd366 O377 2.439 . S
O367 Cd366 2.240 1_554 S
O367 C372 1.279 . S
O368 Cd365 2.297 . S
O368 C370 1.247 . S
O369 Cd365 2.439 1_556 S
O369 C370 1.208 1_556 S
C370 O368 1.247 . S
C370 O369 1.208 1_554 S
C371 O376 1.247 . S
C371 O377 1.208 . S
C372 O364 1.315 . S
C372 O367 1.279 . S
C373 O374 1.315 . S
C373 O375 1.279 1_554 S
O374 Cd366 2.223 1_554 S
O374 C373 1.315 . S
O375 Cd365 2.240 1_556 S
O375 C373 1.279 1_556 S
O376 Cd366 2.297 . S
O376 C371 1.247 . S
O377 Cd366 2.439 . S
O377 C371 1.208 . S
O378 Cd379 2.223 . S
O378 C386 1.315 . S
Cd379 O378 2.223 . S
Cd379 O382 2.297 . S
Cd379 O383 2.439 1_554 S
Cd379 O389 2.240 1_554 S
Cd380 O381 2.240 1_556 S
Cd380 O388 2.223 1_556 S
Cd380 O390 2.297 . S
Cd380 O391 2.439 . S
O381 Cd380 2.240 1_554 S
O381 C386 1.279 . S
O382 Cd379 2.297 . S
O382 C384 1.247 . S
O383 Cd379 2.439 1_556 S
O383 C384 1.208 1_556 S
C384 O382 1.247 . S
C384 O383 1.208 1_554 S
C385 O390 1.247 . S
C385 O391 1.208 . S
C386 O378 1.315 . S
C386 O381 1.279 . S
C387 O388 1.315 . S
C387 O389 1.279 1_554 S
O388 Cd380 2.223 1_554 S
O388 C387 1.315 . S
O389 Cd379 2.240 1_556 S
O389 C387 1.279 1_556 S
O390 Cd380 2.297 . S
O390 C385 1.247 . S
O391 Cd380 2.439 . S
O391 C385 1.208 . S
O392 Cd393 2.223 . S
O392 C400 1.315 . S
Cd393 O392 2.223 . S
Cd393 O396 2.297 . S
Cd393 O397 2.439 . S
Cd393 O403 2.240 . S
Cd394 O395 2.240 . S
Cd394 O402 2.223 . S
Cd394 O404 2.297 . S
Cd394 O405 2.439 . S
O395 Cd394 2.240 . S
O395 C400 1.279 . S
O396 Cd393 2.297 . S
O396 C398 1.247 . S
O397 Cd393 2.439 . S
O397 C398 1.208 . S
C398 O396 1.247 . S
C398 O397 1.208 . S
C399 O404 1.247 . S
C399 O405 1.208 . S
C400 O392 1.315 . S
C400 O395 1.279 . S
C401 O402 1.315 . S
C401 O403 1.279 . S
O402 Cd394 2.223 . S
O402 C401 1.315 . S
O403 Cd393 2.240 . S
O403 C401 1.279 . S
O404 Cd394 2.297 . S
O404 C399 1.247 . S
O405 Cd394 2.439 . S
O405 C399 1.208 . S
O406 Cd407 2.223 . S
O406 C414 1.315 . S
Cd407 O406 2.223 . S
Cd407 O410 2.297 . S
Cd407 O411 2.439 . S
Cd407 O417 2.240 . S
Cd408 O409 2.240 . S
Cd408 O416 2.223 . S
Cd408 O418 2.297 . S
Cd408 O419 2.439 . S
O409 Cd408 2.240 . S
O409 C414 1.279 . S
O410 Cd407 2.297 . S
O410 C412 1.247 . S
O411 Cd407 2.439 . S
O411 C412 1.208 . S
C412 O410 1.247 . S
C412 O411 1.208 . S
C413 O418 1.247 . S
C413 O419 1.208 . S
C414 O406 1.315 . S
C414 O409 1.279 . S
C415 O416 1.315 . S
C415 O417 1.279 . S
O416 Cd408 2.223 . S
O416 C415 1.315 . S
O417 Cd407 2.240 . S
O417 C415 1.279 . S
O418 Cd408 2.297 . S
O418 C413 1.247 . S
O419 Cd408 2.439 . S
O419 C413 1.208 . S
O420 Cd421 2.223 . S
O420 C428 1.315 . S
Cd421 O420 2.223 . S
Cd421 O424 2.297 . S
Cd421 O425 2.439 1_556 S
Cd421 O431 2.240 1_556 S
Cd422 O423 2.240 1_554 S
Cd422 O430 2.223 1_554 S
Cd422 O432 2.297 . S
Cd422 O433 2.439 . S
O423 Cd422 2.240 1_556 S
O423 C428 1.279 . S
O424 Cd421 2.297 . S
O424 C426 1.247 . S
O425 Cd421 2.439 1_554 S
O425 C426 1.208 1_554 S
C426 O424 1.247 . S
C426 O425 1.208 1_556 S
C427 O432 1.247 . S
C427 O433 1.208 . S
C428 O420 1.315 . S
C428 O423 1.279 . S
C429 O430 1.315 . S
C429 O431 1.279 1_556 S
O430 Cd422 2.223 1_556 S
O430 C429 1.315 . S
O431 Cd421 2.240 1_554 S
O431 C429 1.279 1_554 S
O432 Cd422 2.297 . S
O432 C427 1.247 . S
O433 Cd422 2.439 . S
O433 C427 1.208 . S
O434 Cd435 2.223 . S
O434 C442 1.315 . S
Cd435 O434 2.223 . S
Cd435 O438 2.297 . S
Cd435 O439 2.439 1_556 S
Cd435 O445 2.240 1_556 S
Cd436 O437 2.240 1_554 S
Cd436 O444 2.223 1_554 S
Cd436 O446 2.297 . S
Cd436 O447 2.439 . S
O437 Cd436 2.240 1_556 S
O437 C442 1.279 . S
O438 Cd435 2.297 . S
O438 C440 1.247 . S
O439 Cd435 2.439 1_554 S
O439 C440 1.208 1_554 S
C440 O438 1.247 . S
C440 O439 1.208 1_556 S
C441 O446 1.247 . S
C441 O447 1.208 . S
C442 O434 1.315 . S
C442 O437 1.279 . S
C443 O444 1.315 . S
C443 O445 1.279 1_556 S
O444 Cd436 2.223 1_556 S
O444 C443 1.315 . S
O445 Cd435 2.240 1_554 S
O445 C443 1.279 1_554 S
O446 Cd436 2.297 . S
O446 C441 1.247 . S
O447 Cd436 2.439 . S
O447 C441 1.208 . S
H448 C456 0.950 . S
H449 C461 0.950 . S
H450 C458 0.950 . S
H451 C460 0.950 . S
H452 C462 0.950 . S
H453 C464 0.950 . S
H454 C466 0.950 . S
H455 C467 0.950 . S
C456 H448 0.950 . S
C456 C457 1.386 . S
C456 C458 1.391 . S
C457 C456 1.386 . S
C457 C461 1.393 . S
C458 H450 0.950 . S
C458 C456 1.391 . S
C458 C459 1.400 . S
C459 C458 1.400 . S
C459 C460 1.398 . S
C459 C465 1.491 . S
C460 H451 0.950 . S
C460 C459 1.398 . S
C460 C461 1.391 . S
C461 H449 0.950 . S
C461 C457 1.393 . S
C461 C460 1.391 . S
C462 H452 0.950 . S
C462 C463 1.386 . S
C462 C464 1.391 . S
C463 C462 1.386 . S
C463 C467 1.393 . S
C464 H453 0.950 . S
C464 C462 1.391 . S
C464 C465 1.400 . S
C465 C459 1.491 . S
C465 C464 1.400 . S
C465 C466 1.398 . S
C466 H454 0.950 . S
C466 C465 1.398 . S
C466 C467 1.391 . S
C467 H455 0.950 . S
C467 C463 1.393 . S
C467 C466 1.391 . S
H468 C476 0.950 . S
H469 C481 0.950 . S
H470 C478 0.950 . S
H471 C480 0.950 . S
H472 C482 0.950 . S
H473 C484 0.950 . S
H474 C486 0.950 . S
H475 C487 0.950 . S
C476 H468 0.950 . S
C476 C477 1.386 . S
C476 C478 1.391 . S
C477 C476 1.386 . S
C477 C481 1.393 . S
C478 H470 0.950 . S
C478 C476 1.391 . S
C478 C479 1.400 . S
C479 C478 1.400 . S
C479 C480 1.398 . S
C479 C485 1.491 . S
C480 H471 0.950 . S
C480 C479 1.398 . S
C480 C481 1.391 . S
C481 H469 0.950 . S
C481 C477 1.393 . S
C481 C480 1.391 . S
C482 H472 0.950 . S
C482 C483 1.386 . S
C482 C484 1.391 . S
C483 C482 1.386 . S
C483 C487 1.393 . S
C484 H473 0.950 . S
C484 C482 1.391 . S
C484 C485 1.400 . S
C485 C479 1.491 . S
C485 C484 1.400 . S
C485 C486 1.398 . S
C486 H474 0.950 . S
C486 C485 1.398 . S
C486 C487 1.391 . S
C487 H475 0.950 . S
C487 C483 1.393 . S
C487 C486 1.391 . S
H488 C496 0.950 . S
H489 C501 0.950 . S
H490 C498 0.950 . S
H491 C500 0.950 . S
H492 C502 0.950 . S
H493 C504 0.950 . S
H494 C506 0.950 . S
H495 C507 0.950 . S
C496 H488 0.950 . S
C496 C497 1.386 . S
C496 C498 1.391 . S
C497 C496 1.386 . S
C497 C501 1.393 . S
C498 H490 0.950 . S
C498 C496 1.391 . S
C498 C499 1.400 . S
C499 C498 1.400 . S
C499 C500 1.398 . S
C499 C505 1.491 . S
C500 H491 0.950 . S
C500 C499 1.398 . S
C500 C501 1.391 . S
C501 H489 0.950 . S
C501 C497 1.393 . S
C501 C500 1.391 . S
C502 H492 0.950 . S
C502 C503 1.386 . S
C502 C504 1.391 . S
C503 C502 1.386 . S
C503 C507 1.393 . S
C504 H493 0.950 . S
C504 C502 1.391 . S
C504 C505 1.400 . S
C505 C499 1.491 . S
C505 C504 1.400 . S
C505 C506 1.398 . S
C506 H494 0.950 . S
C506 C505 1.398 . S
C506 C507 1.391 . S
C507 H495 0.950 . S
C507 C503 1.393 . S
C507 C506 1.391 . S
H508 C516 0.950 . S
H509 C521 0.950 . S
H510 C518 0.950 . S
H511 C520 0.950 . S
H512 C522 0.950 . S
H513 C524 0.950 . S
H514 C526 0.950 . S
H515 C527 0.950 . S
C516 H508 0.950 . S
C516 C517 1.386 . S
C516 C518 1.391 . S
C517 C516 1.386 . S
C517 C521 1.393 . S
C518 H510 0.950 . S
C518 C516 1.391 . S
C518 C519 1.400 . S
C519 C518 1.400 . S
C519 C520 1.398 . S
C519 C525 1.491 . S
C520 H511 0.950 . S
C520 C519 1.398 . S
C520 C521 1.391 . S
C521 H509 0.950 . S
C521 C517 1.393 . S
C521 C520 1.391 . S
C522 H512 0.950 . S
C522 C523 1.386 . S
C522 C524 1.391 . S
C523 C522 1.386 . S
C523 C527 1.393 . S
C524 H513 0.950 . S
C524 C522 1.391 . S
C524 C525 1.400 . S
C525 C519 1.491 . S
C525 C524 1.400 . S
C525 C526 1.398 . S
C526 H514 0.950 . S
C526 C525 1.398 . S
C526 C527 1.391 . S
C527 H515 0.950 . S
C527 C523 1.393 . S
C527 C526 1.391 . S
H528 C536 0.950 . S
H529 C541 0.950 . S
H530 C538 0.950 . S
H531 C540 0.950 . S
H532 C542 0.950 . S
H533 C544 0.950 . S
H534 C546 0.950 . S
H535 C547 0.950 . S
C536 H528 0.950 . S
C536 C537 1.386 . S
C536 C538 1.391 . S
C537 C536 1.386 . S
C537 C541 1.393 . S
C538 H530 0.950 . S
C538 C536 1.391 . S
C538 C539 1.400 . S
C539 C538 1.400 . S
C539 C540 1.398 . S
C539 C545 1.491 . S
C540 H531 0.950 . S
C540 C539 1.398 . S
C540 C541 1.391 . S
C541 H529 0.950 . S
C541 C537 1.393 . S
C541 C540 1.391 . S
C542 H532 0.950 . S
C542 C543 1.386 . S
C542 C544 1.391 . S
C543 C542 1.386 . S
C543 C547 1.393 . S
C544 H533 0.950 . S
C544 C542 1.391 . S
C544 C545 1.400 . S
C545 C539 1.491 . S
C545 C544 1.400 . S
C545 C546 1.398 . S
C546 H534 0.950 . S
C546 C545 1.398 . S
C546 C547 1.391 . S
C547 H535 0.950 . S
C547 C543 1.393 . S
C547 C546 1.391 . S
H548 C556 0.950 . S
H549 C561 0.950 . S
H550 C558 0.950 . S
H551 C560 0.950 . S
H552 C562 0.950 . S
H553 C564 0.950 . S
H554 C566 0.950 . S
H555 C567 0.950 . S
C556 H548 0.950 . S
C556 C557 1.386 . S
C556 C558 1.391 . S
C557 C556 1.386 . S
C557 C561 1.393 . S
C558 H550 0.950 . S
C558 C556 1.391 . S
C558 C559 1.400 . S
C559 C558 1.400 . S
C559 C560 1.398 . S
C559 C565 1.491 . S
C560 H551 0.950 . S
C560 C559 1.398 . S
C560 C561 1.391 . S
C561 H549 0.950 . S
C561 C557 1.393 . S
C561 C560 1.391 . S
C562 H552 0.950 . S
C562 C563 1.386 . S
C562 C564 1.391 . S
C563 C562 1.386 . S
C563 C567 1.393 . S
C564 H553 0.950 . S
C564 C562 1.391 . S
C564 C565 1.400 . S
C565 C559 1.491 . S
C565 C564 1.400 . S
C565 C566 1.398 . S
C566 H554 0.950 . S
C566 C565 1.398 . S
C566 C567 1.391 . S
C567 H555 0.950 . S
C567 C563 1.393 . S
C567 C566 1.391 . S
H568 C576 0.950 . S
H569 C581 0.950 . S
H570 C578 0.950 . S
H571 C580 0.950 . S
H572 C582 0.950 . S
H573 C584 0.950 . S
H574 C586 0.950 . S
H575 C587 0.950 . S
C576 H568 0.950 . S
C576 C577 1.386 . S
C576 C578 1.391 . S
C577 C576 1.386 . S
C577 C581 1.393 . S
C578 H570 0.950 . S
C578 C576 1.391 . S
C578 C579 1.400 . S
C579 C578 1.400 . S
C579 C580 1.398 . S
C579 C585 1.491 . S
C580 H571 0.950 . S
C580 C579 1.398 . S
C580 C581 1.391 . S
C581 H569 0.950 . S
C581 C577 1.393 . S
C581 C580 1.391 . S
C582 H572 0.950 . S
C582 C583 1.386 . S
C582 C584 1.391 . S
C583 C582 1.386 . S
C583 C587 1.393 . S
C584 H573 0.950 . S
C584 C582 1.391 . S
C584 C585 1.400 . S
C585 C579 1.491 . S
C585 C584 1.400 . S
C585 C586 1.398 . S
C586 H574 0.950 . S
C586 C585 1.398 . S
C586 C587 1.391 . S
C587 H575 0.950 . S
C587 C583 1.393 . S
C587 C586 1.391 . S
H588 C596 0.950 . S
H589 C601 0.950 . S
H590 C598 0.950 . S
H591 C600 0.950 . S
H592 C602 0.950 . S
H593 C604 0.950 . S
H594 C606 0.950 . S
H595 C607 0.950 . S
C596 H588 0.950 . S
C596 C597 1.386 . S
C596 C598 1.391 . S
C597 C596 1.386 . S
C597 C601 1.393 . S
C598 H590 0.950 . S
C598 C596 1.391 . S
C598 C599 1.400 . S
C599 C598 1.400 . S
C599 C600 1.398 . S
C599 C605 1.491 . S
C600 H591 0.950 . S
C600 C599 1.398 . S
C600 C601 1.391 . S
C601 H589 0.950 . S
C601 C597 1.393 . S
C601 C600 1.391 . S
C602 H592 0.950 . S
C602 C603 1.386 . S
C602 C604 1.391 . S
C603 C602 1.386 . S
C603 C607 1.393 . S
C604 H593 0.950 . S
C604 C602 1.391 . S
C604 C605 1.400 . S
C605 C599 1.491 . S
C605 C604 1.400 . S
C605 C606 1.398 . S
C606 H594 0.950 . S
C606 C605 1.398 . S
C606 C607 1.391 . S
C607 H595 0.950 . S
C607 C603 1.393 . S
C607 C606 1.391 . S
H608 C616 0.950 . S
H609 C621 0.950 . S
H610 C618 0.950 . S
H611 C620 0.950 . S
H612 C622 0.950 . S
H613 C624 0.950 . S
H614 C626 0.950 . S
H615 C627 0.950 . S
C616 H608 0.950 . S
C616 C617 1.386 . S
C616 C618 1.391 . S
C617 C616 1.386 . S
C617 C621 1.393 . S
C618 H610 0.950 . S
C618 C616 1.391 . S
C618 C619 1.400 . S
C619 C618 1.400 . S
C619 C620 1.398 . S
C619 C625 1.491 . S
C620 H611 0.950 . S
C620 C619 1.398 . S
C620 C621 1.391 . S
C621 H609 0.950 . S
C621 C617 1.393 . S
C621 C620 1.391 . S
C622 H612 0.950 . S
C622 C623 1.386 . S
C622 C624 1.391 . S
C623 C622 1.386 . S
C623 C627 1.393 . S
C624 H613 0.950 . S
C624 C622 1.391 . S
C624 C625 1.400 . S
C625 C619 1.491 . S
C625 C624 1.400 . S
C625 C626 1.398 . S
C626 H614 0.950 . S
C626 C625 1.398 . S
C626 C627 1.391 . S
C627 H615 0.950 . S
C627 C623 1.393 . S
C627 C626 1.391 . S
H628 C636 0.950 . S
H629 C641 0.950 . S
H630 C638 0.950 . S
H631 C640 0.950 . S
H632 C642 0.950 . S
H633 C644 0.950 . S
H634 C646 0.950 . S
H635 C647 0.950 . S
C636 H628 0.950 . S
C636 C637 1.386 . S
C636 C638 1.391 . S
C637 C636 1.386 . S
C637 C641 1.393 . S
C638 H630 0.950 . S
C638 C636 1.391 . S
C638 C639 1.400 . S
C639 C638 1.400 . S
C639 C640 1.398 . S
C639 C645 1.491 . S
C640 H631 0.950 . S
C640 C639 1.398 . S
C640 C641 1.391 . S
C641 H629 0.950 . S
C641 C637 1.393 . S
C641 C640 1.391 . S
C642 H632 0.950 . S
C642 C643 1.386 . S
C642 C644 1.391 . S
C643 C642 1.386 . S
C643 C647 1.393 . S
C644 H633 0.950 . S
C644 C642 1.391 . S
C644 C645 1.400 . S
C645 C639 1.491 . S
C645 C644 1.400 . S
C645 C646 1.398 . S
C646 H634 0.950 . S
C646 C645 1.398 . S
C646 C647 1.391 . S
C647 H635 0.950 . S
C647 C643 1.393 . S
C647 C646 1.391 . S
H648 C656 0.950 . S
H649 C661 0.950 . S
H650 C658 0.950 . S
H651 C660 0.950 . S
H652 C662 0.950 . S
H653 C664 0.950 . S
H654 C666 0.950 . S
H655 C667 0.950 . S
C656 H648 0.950 . S
C656 C657 1.386 . S
C656 C658 1.391 . S
C657 C656 1.386 . S
C657 C661 1.393 . S
C658 H650 0.950 . S
C658 C656 1.391 . S
C658 C659 1.400 . S
C659 C658 1.400 . S
C659 C660 1.398 . S
C659 C665 1.491 . S
C660 H651 0.950 . S
C660 C659 1.398 . S
C660 C661 1.391 . S
C661 H649 0.950 . S
C661 C657 1.393 . S
C661 C660 1.391 . S
C662 H652 0.950 . S
C662 C663 1.386 . S
C662 C664 1.391 . S
C663 C662 1.386 . S
C663 C667 1.393 . S
C664 H653 0.950 . S
C664 C662 1.391 . S
C664 C665 1.400 . S
C665 C659 1.491 . S
C665 C664 1.400 . S
C665 C666 1.398 . S
C666 H654 0.950 . S
C666 C665 1.398 . S
C666 C667 1.391 . S
C667 H655 0.950 . S
C667 C663 1.393 . S
C667 C666 1.391 . S
H668 C676 0.950 . S
H669 C681 0.950 . S
H670 C678 0.950 . S
H671 C680 0.950 . S
H672 C682 0.950 . S
H673 C684 0.950 . S
H674 C686 0.950 . S
H675 C687 0.950 . S
C676 H668 0.950 . S
C676 C677 1.386 . S
C676 C678 1.391 . S
C677 C676 1.386 . S
C677 C681 1.393 . S
C678 H670 0.950 . S
C678 C676 1.391 . S
C678 C679 1.400 . S
C679 C678 1.400 . S
C679 C680 1.398 . S
C679 C685 1.491 . S
C680 H671 0.950 . S
C680 C679 1.398 . S
C680 C681 1.391 . S
C681 H669 0.950 . S
C681 C677 1.393 . S
C681 C680 1.391 . S
C682 H672 0.950 . S
C682 C683 1.386 . S
C682 C684 1.391 . S
C683 C682 1.386 . S
C683 C687 1.393 . S
C684 H673 0.950 . S
C684 C682 1.391 . S
C684 C685 1.400 . S
C685 C679 1.491 . S
C685 C684 1.400 . S
C685 C686 1.398 . S
C686 H674 0.950 . S
C686 C685 1.398 . S
C686 C687 1.391 . S
C687 H675 0.950 . S
C687 C683 1.393 . S
C687 C686 1.391 . S
H688 C696 0.950 . S
H689 C701 0.950 . S
H690 C698 0.950 . S
H691 C700 0.950 . S
H692 C702 0.950 . S
H693 C704 0.950 . S
H694 C706 0.950 . S
H695 C707 0.950 . S
C696 H688 0.950 . S
C696 C697 1.386 . S
C696 C698 1.391 . S
C697 C696 1.386 . S
C697 C701 1.393 . S
C698 H690 0.950 . S
C698 C696 1.391 . S
C698 C699 1.400 . S
C699 C698 1.400 . S
C699 C700 1.398 . S
C699 C705 1.491 . S
C700 H691 0.950 . S
C700 C699 1.398 . S
C700 C701 1.391 . S
C701 H689 0.950 . S
C701 C697 1.393 . S
C701 C700 1.391 . S
C702 H692 0.950 . S
C702 C703 1.386 . S
C702 C704 1.391 . S
C703 C702 1.386 . S
C703 C707 1.393 . S
C704 H693 0.950 . S
C704 C702 1.391 . S
C704 C705 1.400 . S
C705 C699 1.491 . S
C705 C704 1.400 . S
C705 C706 1.398 . S
C706 H694 0.950 . S
C706 C705 1.398 . S
C706 C707 1.391 . S
C707 H695 0.950 . S
C707 C703 1.393 . S
C707 C706 1.391 . S
H708 C716 0.950 . S
H709 C721 0.950 . S
H710 C718 0.950 . S
H711 C720 0.950 . S
H712 C722 0.950 . S
H713 C724 0.950 . S
H714 C726 0.950 . S
H715 C727 0.950 . S
C716 H708 0.950 . S
C716 C717 1.386 . S
C716 C718 1.391 . S
C717 C716 1.386 . S
C717 C721 1.393 . S
C718 H710 0.950 . S
C718 C716 1.391 . S
C718 C719 1.400 . S
C719 C718 1.400 . S
C719 C720 1.398 . S
C719 C725 1.491 . S
C720 H711 0.950 . S
C720 C719 1.398 . S
C720 C721 1.391 . S
C721 H709 0.950 . S
C721 C717 1.393 . S
C721 C720 1.391 . S
C722 H712 0.950 . S
C722 C723 1.386 . S
C722 C724 1.391 . S
C723 C722 1.386 . S
C723 C727 1.393 . S
C724 H713 0.950 . S
C724 C722 1.391 . S
C724 C725 1.400 . S
C725 C719 1.491 . S
C725 C724 1.400 . S
C725 C726 1.398 . S
C726 H714 0.950 . S
C726 C725 1.398 . S
C726 C727 1.391 . S
C727 H715 0.950 . S
C727 C723 1.393 . S
C727 C726 1.391 . S
H728 C736 0.950 . S
H729 C741 0.950 . S
H730 C738 0.950 . S
H731 C740 0.950 . S
H732 C742 0.950 . S
H733 C744 0.950 . S
H734 C746 0.950 . S
H735 C747 0.950 . S
C736 H728 0.950 . S
C736 C737 1.386 . S
C736 C738 1.391 . S
C737 C736 1.386 . S
C737 C741 1.393 . S
C738 H730 0.950 . S
C738 C736 1.391 . S
C738 C739 1.400 . S
C739 C738 1.400 . S
C739 C740 1.398 . S
C739 C745 1.491 . S
C740 H731 0.950 . S
C740 C739 1.398 . S
C740 C741 1.391 . S
C741 H729 0.950 . S
C741 C737 1.393 . S
C741 C740 1.391 . S
C742 H732 0.950 . S
C742 C743 1.386 . S
C742 C744 1.391 . S
C743 C742 1.386 . S
C743 C747 1.393 . S
C744 H733 0.950 . S
C744 C742 1.391 . S
C744 C745 1.400 . S
C745 C739 1.491 . S
C745 C744 1.400 . S
C745 C746 1.398 . S
C746 H734 0.950 . S
C746 C745 1.398 . S
C746 C747 1.391 . S
C747 H735 0.950 . S
C747 C743 1.393 . S
C747 C746 1.391 . S
H748 C756 0.950 . S
H749 C761 0.950 . S
H750 C758 0.950 . S
H751 C760 0.950 . S
H752 C762 0.950 . S
H753 C764 0.950 . S
H754 C766 0.950 . S
H755 C767 0.950 . S
C756 H748 0.950 . S
C756 C757 1.386 . S
C756 C758 1.391 . S
C757 C756 1.386 . S
C757 C761 1.393 . S
C758 H750 0.950 . S
C758 C756 1.391 . S
C758 C759 1.400 . S
C759 C758 1.400 . S
C759 C760 1.398 . S
C759 C765 1.491 . S
C760 H751 0.950 . S
C760 C759 1.398 . S
C760 C761 1.391 . S
C761 H749 0.950 . S
C761 C757 1.393 . S
C761 C760 1.391 . S
C762 H752 0.950 . S
C762 C763 1.386 . S
C762 C764 1.391 . S
C763 C762 1.386 . S
C763 C767 1.393 . S
C764 H753 0.950 . S
C764 C762 1.391 . S
C764 C765 1.400 . S
C765 C759 1.491 . S
C765 C764 1.400 . S
C765 C766 1.398 . S
C766 H754 0.950 . S
C766 C765 1.398 . S
C766 C767 1.391 . S
C767 H755 0.950 . S
C767 C763 1.393 . S
C767 C766 1.391 . S
H768 C776 0.950 . S
H769 C781 0.950 . S
H770 C778 0.950 . S
H771 C780 0.950 1_455 S
H772 C782 0.950 . S
H773 C784 0.950 . S
H774 C786 0.950 1_655 S
H775 C787 0.950 . S
C776 H768 0.950 . S
C776 C777 1.386 . S
C776 C778 1.391 . S
C777 C776 1.386 . S
C777 C781 1.393 . S
C778 H770 0.950 . S
C778 C776 1.391 . S
C778 C779 1.400 . S
C779 C778 1.400 . S
C779 C780 1.398 . S
C779 C785 1.491 1_655 S
C780 H771 0.950 1_655 S
C780 C779 1.398 . S
C780 C781 1.391 . S
C781 H769 0.950 . S
C781 C777 1.393 . S
C781 C780 1.391 . S
C782 H772 0.950 . S
C782 C783 1.386 . S
C782 C784 1.391 . S
C783 C782 1.386 . S
C783 C787 1.393 . S
C784 H773 0.950 . S
C784 C782 1.391 . S
C784 C785 1.400 . S
C785 C779 1.491 1_455 S
C785 C784 1.400 . S
C785 C786 1.398 . S
C786 H774 0.950 1_455 S
C786 C785 1.398 . S
C786 C787 1.391 . S
C787 H775 0.950 . S
C787 C783 1.393 . S
C787 C786 1.391 . S
H788 C796 0.950 . S
H789 C801 0.950 . S
H790 C798 0.950 . S
H791 C800 0.950 . S
H792 C802 0.950 . S
H793 C804 0.950 . S
H794 C806 0.950 . S
H795 C807 0.950 . S
C796 H788 0.950 . S
C796 C797 1.386 . S
C796 C798 1.391 . S
C797 C796 1.386 . S
C797 C801 1.393 . S
C798 H790 0.950 . S
C798 C796 1.391 . S
C798 C799 1.400 . S
C799 C798 1.400 . S
C799 C800 1.398 . S
C799 C805 1.491 1_565 S
C800 H791 0.950 . S
C800 C799 1.398 . S
C800 C801 1.391 . S
C801 H789 0.950 . S
C801 C797 1.393 . S
C801 C800 1.391 . S
C802 H792 0.950 . S
C802 C803 1.386 . S
C802 C804 1.391 . S
C803 C802 1.386 . S
C803 C807 1.393 . S
C804 H793 0.950 . S
C804 C802 1.391 . S
C804 C805 1.400 . S
C805 C799 1.491 1_545 S
C805 C804 1.400 . S
C805 C806 1.398 . S
C806 H794 0.950 . S
C806 C805 1.398 . S
C806 C807 1.391 . S
C807 H795 0.950 . S
C807 C803 1.393 . S
C807 C806 1.391 . S
H808 C816 0.950 1_655 S
H809 C821 0.950 . S
H810 C818 0.950 . S
H811 C820 0.950 . S
H812 C822 0.950 1_455 S
H813 C824 0.950 . S
H814 C826 0.950 . S
H815 C827 0.950 . S
C816 H808 0.950 1_455 S
C816 C817 1.386 . S
C816 C818 1.391 1_455 S
C817 C816 1.386 . S
C817 C821 1.393 1_554 S
C818 H810 0.950 . S
C818 C816 1.391 1_655 S
C818 C819 1.417 1_655 S
C819 C818 1.417 1_455 S
C819 C820 1.383 1_554 S
C819 C825 1.489 1_464 S
C820 H811 0.950 . S
C820 C819 1.383 1_556 S
C820 C821 1.391 . S
C821 H809 0.950 . S
C821 C817 1.393 1_556 S
C821 C820 1.391 . S
C822 H812 0.950 1_655 S
C822 C823 1.386 . S
C822 C824 1.391 1_655 S
C823 C822 1.386 . S
C823 C827 1.393 1_556 S
C824 H813 0.950 . S
C824 C822 1.391 1_455 S
C824 C825 1.425 1_455 S
C825 C819 1.489 1_646 S
C825 C824 1.425 1_655 S
C825 C826 1.376 1_556 S
C826 H814 0.950 . S
C826 C825 1.376 1_554 S
C826 C827 1.391 . S
C827 H815 0.950 . S
C827 C823 1.393 1_554 S
C827 C826 1.391 . S
H828 C836 0.950 . S
H829 C841 0.950 . S
H830 C838 0.950 . S
H831 C840 0.950 . S
H832 C842 0.950 . S
H833 C844 0.950 . S
H834 C846 0.950 . S
H835 C847 0.950 . S
C836 H828 0.950 . S
C836 C837 1.386 1_554 S
C836 C838 1.391 . S
C837 C836 1.386 1_556 S
C837 C841 1.393 . S
C838 H830 0.950 . S
C838 C836 1.391 . S
C838 C839 1.398 . S
C839 C838 1.398 . S
C839 C840 1.400 1_554 S
C839 C845 1.491 . S
C840 H831 0.950 . S
C840 C839 1.400 1_556 S
C840 C841 1.391 . S
C841 H829 0.950 . S
C841 C837 1.393 . S
C841 C840 1.391 . S
C842 H832 0.950 . S
C842 C843 1.386 1_556 S
C842 C844 1.391 . S
C843 C842 1.386 1_554 S
C843 C847 1.393 . S
C844 H833 0.950 . S
C844 C842 1.391 . S
C844 C845 1.398 1_556 S
C845 C839 1.491 . S
C845 C844 1.398 1_554 S
C845 C846 1.400 . S
C846 H834 0.950 . S
C846 C845 1.400 . S
C846 C847 1.391 . S
C847 H835 0.950 . S
C847 C843 1.393 . S
C847 C846 1.391 . S
H848 C856 0.950 . S
H849 C861 0.950 . S
H850 C858 0.950 . S
H851 C860 0.950 . S
H852 C862 0.950 . S
H853 C864 0.950 . S
H854 C866 0.950 . S
H855 C867 0.950 . S
C856 H848 0.950 . S
C856 C857 1.386 . S
C856 C858 1.391 . S
C857 C856 1.386 . S
C857 C861 1.393 1_655 S
C858 H850 0.950 . S
C858 C856 1.391 . S
C858 C859 1.400 . S
C859 C858 1.400 . S
C859 C860 1.398 1_655 S
C859 C865 1.491 1_655 S
C860 H851 0.950 . S
C860 C859 1.398 1_455 S
C860 C861 1.391 . S
C861 H849 0.950 . S
C861 C857 1.393 1_455 S
C861 C860 1.391 . S
C862 H852 0.950 . S
C862 C863 1.386 . S
C862 C864 1.391 . S
C863 C862 1.386 . S
C863 C867 1.393 1_455 S
C864 H853 0.950 . S
C864 C862 1.391 . S
C864 C865 1.400 . S
C865 C859 1.491 1_455 S
C865 C864 1.400 . S
C865 C866 1.398 1_455 S
C866 H854 0.950 . S
C866 C865 1.398 1_655 S
C866 C867 1.391 . S
C867 H855 0.950 . S
C867 C863 1.393 1_655 S
C867 C866 1.391 . S
H868 C876 0.950 . S
H869 C881 0.950 . S
H870 C878 0.950 . S
H871 C880 0.950 . S
H872 C882 0.950 . S
H873 C884 0.950 . S
H874 C886 0.950 . S
H875 C887 0.950 . S
C876 H868 0.950 . S
C876 C877 1.386 . S
C876 C878 1.391 . S
C877 C876 1.386 . S
C877 C881 1.393 . S
C878 H870 0.950 . S
C878 C876 1.391 . S
C878 C879 1.400 . S
C879 C878 1.400 . S
C879 C880 1.398 . S
C879 C885 1.491 1_565 S
C880 H871 0.950 . S
C880 C879 1.398 . S
C880 C881 1.391 . S
C881 H869 0.950 . S
C881 C877 1.393 . S
C881 C880 1.391 . S
C882 H872 0.950 . S
C882 C883 1.386 . S
C882 C884 1.391 . S
C883 C882 1.386 . S
C883 C887 1.393 . S
C884 H873 0.950 . S
C884 C882 1.391 . S
C884 C885 1.400 . S
C885 C879 1.491 1_545 S
C885 C884 1.400 . S
C885 C886 1.398 . S
C886 H874 0.950 . S
C886 C885 1.398 . S
C886 C887 1.391 . S
C887 H875 0.950 . S
C887 C883 1.393 . S
C887 C886 1.391 . S
H888 C896 0.950 . S
H889 C901 0.950 . S
H890 C898 0.950 . S
H891 C900 0.950 . S
H892 C902 0.950 . S
H893 C904 0.950 . S
H894 C906 0.950 . S
H895 C907 0.950 . S
C896 H888 0.950 . S
C896 C897 1.386 1_556 S
C896 C898 1.391 . S
C897 C896 1.386 1_554 S
C897 C901 1.393 . S
C898 H890 0.950 . S
C898 C896 1.391 . S
C898 C899 1.399 . S
C899 C898 1.399 . S
C899 C900 1.400 1_556 S
C899 C905 1.491 . S
C900 H891 0.950 . S
C900 C899 1.400 1_554 S
C900 C901 1.391 . S
C901 H889 0.950 . S
C901 C897 1.393 . S
C901 C900 1.391 . S
C902 H892 0.950 . S
C902 C903 1.386 1_554 S
C902 C904 1.391 . S
C903 C902 1.386 1_556 S
C903 C907 1.393 . S
C904 H893 0.950 . S
C904 C902 1.391 . S
C904 C905 1.399 1_554 S
C905 C899 1.491 . S
C905 C904 1.399 1_556 S
C905 C906 1.400 . S
C906 H894 0.950 . S
C906 C905 1.400 . S
C906 C907 1.391 . S
C907 H895 0.950 . S
C907 C903 1.393 . S
C907 C906 1.391 . S
H908 C916 0.950 . S
H909 C921 0.950 . S
H910 C918 0.950 . S
H911 C920 0.950 . S
H912 C922 0.950 . S
H913 C924 0.950 . S
H914 C926 0.950 . S
H915 C927 0.950 . S
C916 H908 0.950 . S
C916 C917 1.386 . S
C916 C918 1.391 . S
C917 C916 1.386 . S
C917 C921 1.393 . S
C918 H910 0.950 . S
C918 C916 1.391 . S
C918 C919 1.400 . S
C919 C918 1.400 . S
C919 C920 1.398 . S
C919 C925 1.491 . S
C920 H911 0.950 . S
C920 C919 1.398 . S
C920 C921 1.391 . S
C921 H909 0.950 . S
C921 C917 1.393 . S
C921 C920 1.391 . S
C922 H912 0.950 . S
C922 C923 1.386 . S
C922 C924 1.391 . S
C923 C922 1.386 . S
C923 C927 1.393 . S
C924 H913 0.950 . S
C924 C922 1.391 . S
C924 C925 1.400 . S
C925 C919 1.491 . S
C925 C924 1.400 . S
C925 C926 1.398 . S
C926 H914 0.950 . S
C926 C925 1.398 . S
C926 C927 1.391 . S
C927 H915 0.950 . S
C927 C923 1.393 . S
C927 C926 1.391 . S
H928 C936 0.950 . S
H929 C941 0.950 . S
H930 C938 0.950 . S
H931 C940 0.950 . S
H932 C942 0.950 . S
H933 C944 0.950 . S
H934 C946 0.950 . S
H935 C947 0.950 . S
C936 H928 0.950 . S
C936 C937 1.386 1_455 S
C936 C938 1.391 . S
C937 C936 1.386 1_655 S
C937 C941 1.393 . S
C938 H930 0.950 . S
C938 C936 1.391 . S
C938 C939 1.400 1_455 S
C939 C938 1.400 1_655 S
C939 C940 1.398 . S
C939 C945 1.491 1_655 S
C940 H931 0.950 . S
C940 C939 1.398 . S
C940 C941 1.391 . S
C941 H929 0.950 . S
C941 C937 1.393 . S
C941 C940 1.391 . S
C942 H932 0.950 . S
C942 C943 1.386 1_655 S
C942 C944 1.391 . S
C943 C942 1.386 1_455 S
C943 C947 1.393 . S
C944 H933 0.950 . S
C944 C942 1.391 . S
C944 C945 1.400 1_655 S
C945 C939 1.491 1_455 S
C945 C944 1.400 1_455 S
C945 C946 1.398 . S
C946 H934 0.950 . S
C946 C945 1.398 . S
C946 C947 1.391 . S
C947 H935 0.950 . S
C947 C943 1.393 . S
C947 C946 1.391 . S
H948 C956 0.950 . S
H949 C961 0.950 . S
H950 C958 0.950 . S
H951 C960 0.950 . S
H952 C962 0.950 . S
H953 C964 0.950 . S
H954 C966 0.950 . S
H955 C967 0.950 . S
C956 H948 0.950 . S
C956 C957 1.386 . S
C956 C958 1.391 . S
C957 C956 1.386 . S
C957 C961 1.393 . S
C958 H950 0.950 . S
C958 C956 1.391 . S
C958 C959 1.400 . S
C959 C958 1.400 . S
C959 C960 1.398 . S
C959 C965 1.491 . S
C960 H951 0.950 . S
C960 C959 1.398 . S
C960 C961 1.391 . S
C961 H949 0.950 . S
C961 C957 1.393 . S
C961 C960 1.391 . S
C962 H952 0.950 . S
C962 C963 1.386 . S
C962 C964 1.391 . S
C963 C962 1.386 . S
C963 C967 1.393 . S
C964 H953 0.950 . S
C964 C962 1.391 . S
C964 C965 1.400 . S
C965 C959 1.491 . S
C965 C964 1.400 . S
C965 C966 1.398 . S
C966 H954 0.950 . S
C966 C965 1.398 . S
C966 C967 1.391 . S
C967 H955 0.950 . S
C967 C963 1.393 . S
C967 C966 1.391 . S
H968 C976 0.950 . S
H969 C981 0.950 . S
H970 C978 0.950 . S
H971 C980 0.950 . S
H972 C982 0.950 . S
H973 C984 0.950 . S
H974 C986 0.950 . S
H975 C987 0.950 . S
C976 H968 0.950 . S
C976 C977 1.386 . S
C976 C978 1.391 . S
C977 C976 1.386 . S
C977 C981 1.393 . S
C978 H970 0.950 . S
C978 C976 1.391 . S
C978 C979 1.400 . S
C979 C978 1.400 . S
C979 C980 1.398 . S
C979 C985 1.491 . S
C980 H971 0.950 . S
C980 C979 1.398 . S
C980 C981 1.391 . S
C981 H969 0.950 . S
C981 C977 1.393 . S
C981 C980 1.391 . S
C982 H972 0.950 . S
C982 C983 1.386 . S
C982 C984 1.391 . S
C983 C982 1.386 . S
C983 C987 1.393 . S
C984 H973 0.950 . S
C984 C982 1.391 . S
C984 C985 1.400 . S
C985 C979 1.491 . S
C985 C984 1.400 . S
C985 C986 1.398 . S
C986 H974 0.950 . S
C986 C985 1.398 . S
C986 C987 1.391 . S
C987 H975 0.950 . S
C987 C983 1.393 . S
C987 C986 1.391 . S
H988 C996 0.950 . S
H989 C1001 0.950 . S
H990 C998 0.950 . S
H991 C1000 0.950 . S
H992 C1002 0.950 . S
H993 C1004 0.950 . S
H994 C1006 0.950 . S
H995 C1007 0.950 . S
C996 H988 0.950 . S
C996 C997 1.386 . S
C996 C998 1.391 . S
C997 C996 1.386 . S
C997 C1001 1.393 . S
C998 H990 0.950 . S
C998 C996 1.391 . S
C998 C999 1.400 . S
C999 C998 1.400 . S
C999 C1000 1.398 . S
C999 C1005 1.491 . S
C1000 H991 0.950 . S
C1000 C999 1.398 . S
C1000 C1001 1.391 . S
C1001 H989 0.950 . S
C1001 C997 1.393 . S
C1001 C1000 1.391 . S
C1002 H992 0.950 . S
C1002 C1003 1.386 . S
C1002 C1004 1.391 . S
C1003 C1002 1.386 . S
C1003 C1007 1.393 . S
C1004 H993 0.950 . S
C1004 C1002 1.391 . S
C1004 C1005 1.400 . S
C1005 C999 1.491 . S
C1005 C1004 1.400 . S
C1005 C1006 1.398 . S
C1006 H994 0.950 . S
C1006 C1005 1.398 . S
C1006 C1007 1.391 . S
C1007 H995 0.950 . S
C1007 C1003 1.393 . S
C1007 C1006 1.391 . S
H1008 C1016 0.950 . S
H1009 C1021 0.950 . S
H1010 C1018 0.950 . S
H1011 C1020 0.950 . S
H1012 C1022 0.950 . S
H1013 C1024 0.950 . S
H1014 C1026 0.950 . S
H1015 C1027 0.950 . S
C1016 H1008 0.950 . S
C1016 C1017 1.386 . S
C1016 C1018 1.391 . S
C1017 C1016 1.386 . S
C1017 C1021 1.393 . S
C1018 H1010 0.950 . S
C1018 C1016 1.391 . S
C1018 C1019 1.400 . S
C1019 C1018 1.400 . S
C1019 C1020 1.398 . S
C1019 C1025 1.491 . S
C1020 H1011 0.950 . S
C1020 C1019 1.398 . S
C1020 C1021 1.391 . S
C1021 H1009 0.950 . S
C1021 C1017 1.393 . S
C1021 C1020 1.391 . S
C1022 H1012 0.950 . S
C1022 C1023 1.386 . S
C1022 C1024 1.391 . S
C1023 C1022 1.386 . S
C1023 C1027 1.393 . S
C1024 H1013 0.950 . S
C1024 C1022 1.391 . S
C1024 C1025 1.400 . S
C1025 C1019 1.491 . S
C1025 C1024 1.400 . S
C1025 C1026 1.398 . S
C1026 H1014 0.950 . S
C1026 C1025 1.398 . S
C1026 C1027 1.391 . S
C1027 H1015 0.950 . S
C1027 C1023 1.393 . S
C1027 C1026 1.391 . S
H1028 C1036 0.950 . S
H1029 C1041 0.950 . S
H1030 C1038 0.950 . S
H1031 C1040 0.950 . S
H1032 C1042 0.950 . S
H1033 C1044 0.950 . S
H1034 C1046 0.950 . S
H1035 C1047 0.950 . S
C1036 H1028 0.950 . S
C1036 C1037 1.386 . S
C1036 C1038 1.391 . S
C1037 C1036 1.386 . S
C1037 C1041 1.393 . S
C1038 H1030 0.950 . S
C1038 C1036 1.391 . S
C1038 C1039 1.400 . S
C1039 C1038 1.400 . S
C1039 C1040 1.398 . S
C1039 C1045 1.491 1_545 S
C1040 H1031 0.950 . S
C1040 C1039 1.398 . S
C1040 C1041 1.391 . S
C1041 H1029 0.950 . S
C1041 C1037 1.393 . S
C1041 C1040 1.391 . S
C1042 H1032 0.950 . S
C1042 C1043 1.386 . S
C1042 C1044 1.391 . S
C1043 C1042 1.386 . S
C1043 C1047 1.393 . S
C1044 H1033 0.950 . S
C1044 C1042 1.391 . S
C1044 C1045 1.400 . S
C1045 C1039 1.491 1_565 S
C1045 C1044 1.400 . S
C1045 C1046 1.398 . S
C1046 H1034 0.950 . S
C1046 C1045 1.398 . S
C1046 C1047 1.391 . S
C1047 H1035 0.950 . S
C1047 C1043 1.393 . S
C1047 C1046 1.391 . S
H1048 C1056 0.950 . S
H1049 C1061 0.950 . S
H1050 C1058 0.950 . S
H1051 C1060 0.950 . S
H1052 C1062 0.950 . S
H1053 C1064 0.950 . S
H1054 C1066 0.950 . S
H1055 C1067 0.950 . S
C1056 H1048 0.950 . S
C1056 C1057 1.386 . S
C1056 C1058 1.391 . S
C1057 C1056 1.386 . S
C1057 C1061 1.393 . S
C1058 H1050 0.950 . S
C1058 C1056 1.391 . S
C1058 C1059 1.400 . S
C1059 C1058 1.400 . S
C1059 C1060 1.398 . S
C1059 C1065 1.491 . S
C1060 H1051 0.950 . S
C1060 C1059 1.398 . S
C1060 C1061 1.391 . S
C1061 H1049 0.950 . S
C1061 C1057 1.393 . S
C1061 C1060 1.391 . S
C1062 H1052 0.950 . S
C1062 C1063 1.386 . S
C1062 C1064 1.391 . S
C1063 C1062 1.386 . S
C1063 C1067 1.393 . S
C1064 H1053 0.950 . S
C1064 C1062 1.391 . S
C1064 C1065 1.400 . S
C1065 C1059 1.491 . S
C1065 C1064 1.400 . S
C1065 C1066 1.398 . S
C1066 H1054 0.950 . S
C1066 C1065 1.398 . S
C1066 C1067 1.391 . S
C1067 H1055 0.950 . S
C1067 C1063 1.393 . S
C1067 C1066 1.391 . S
H1068 C1076 0.950 . S
H1069 C1081 0.950 . S
H1070 C1078 0.950 . S
H1071 C1080 0.950 . S
H1072 C1082 0.950 . S
H1073 C1084 0.950 . S
H1074 C1086 0.950 . S
H1075 C1087 0.950 . S
C1076 H1068 0.950 . S
C1076 C1077 1.386 1_556 S
C1076 C1078 1.391 . S
C1077 C1076 1.386 1_554 S
C1077 C1081 1.393 . S
C1078 H1070 0.950 . S
C1078 C1076 1.391 . S
C1078 C1079 1.382 1_556 S
C1079 C1078 1.382 1_554 S
C1079 C1080 1.417 . S
C1079 C1085 1.489 1_554 S
C1080 H1071 0.950 . S
C1080 C1079 1.417 . S
C1080 C1081 1.391 . S
C1081 H1069 0.950 . S
C1081 C1077 1.393 . S
C1081 C1080 1.391 . S
C1082 H1072 0.950 . S
C1082 C1083 1.386 1_554 S
C1082 C1084 1.391 . S
C1083 C1082 1.386 1_556 S
C1083 C1087 1.393 . S
C1084 H1073 0.950 . S
C1084 C1082 1.391 . S
C1084 C1085 1.373 1_554 S
C1085 C1079 1.489 1_556 S
C1085 C1084 1.373 1_556 S
C1085 C1086 1.427 . S
C1086 H1074 0.950 . S
C1086 C1085 1.427 . S
C1086 C1087 1.391 . S
C1087 H1075 0.950 . S
C1087 C1083 1.393 . S
C1087 C1086 1.391 . S
H1088 C1096 0.950 . S
H1089 C1101 0.950 . S
H1090 C1098 0.950 . S
H1091 C1100 0.950 . S
H1092 C1102 0.950 . S
H1093 C1104 0.950 . S
H1094 C1106 0.950 . S
H1095 C1107 0.950 . S
C1096 H1088 0.950 . S
C1096 C1097 1.386 . S
C1096 C1098 1.391 . S
C1097 C1096 1.386 . S
C1097 C1101 1.393 . S
C1098 H1090 0.950 . S
C1098 C1096 1.391 . S
C1098 C1099 1.400 . S
C1099 C1098 1.400 . S
C1099 C1100 1.398 . S
C1099 C1105 1.491 . S
C1100 H1091 0.950 . S
C1100 C1099 1.398 . S
C1100 C1101 1.391 . S
C1101 H1089 0.950 . S
C1101 C1097 1.393 . S
C1101 C1100 1.391 . S
C1102 H1092 0.950 . S
C1102 C1103 1.386 . S
C1102 C1104 1.391 . S
C1103 C1102 1.386 . S
C1103 C1107 1.393 . S
C1104 H1093 0.950 . S
C1104 C1102 1.391 . S
C1104 C1105 1.400 . S
C1105 C1099 1.491 . S
C1105 C1104 1.400 . S
C1105 C1106 1.398 . S
C1106 H1094 0.950 . S
C1106 C1105 1.398 . S
C1106 C1107 1.391 . S
C1107 H1095 0.950 . S
C1107 C1103 1.393 . S
C1107 C1106 1.391 . S
H1108 C1116 0.950 . S
H1109 C1121 0.950 . S
H1110 C1118 0.950 . S
H1111 C1120 0.950 . S
H1112 C1122 0.950 . S
H1113 C1124 0.950 . S
H1114 C1126 0.950 . S
H1115 C1127 0.950 . S
C1116 H1108 0.950 . S
C1116 C1117 1.386 . S
C1116 C1118 1.391 . S
C1117 C1116 1.386 . S
C1117 C1121 1.393 . S
C1118 H1110 0.950 . S
C1118 C1116 1.391 . S
C1118 C1119 1.400 . S
C1119 C1118 1.400 . S
C1119 C1120 1.398 . S
C1119 C1125 1.491 . S
C1120 H1111 0.950 . S
C1120 C1119 1.398 . S
C1120 C1121 1.391 . S
C1121 H1109 0.950 . S
C1121 C1117 1.393 . S
C1121 C1120 1.391 . S
C1122 H1112 0.950 . S
C1122 C1123 1.386 . S
C1122 C1124 1.391 . S
C1123 C1122 1.386 . S
C1123 C1127 1.393 . S
C1124 H1113 0.950 . S
C1124 C1122 1.391 . S
C1124 C1125 1.400 . S
C1125 C1119 1.491 . S
C1125 C1124 1.400 . S
C1125 C1126 1.398 . S
C1126 H1114 0.950 . S
C1126 C1125 1.398 . S
C1126 C1127 1.391 . S
C1127 H1115 0.950 . S
C1127 C1123 1.393 . S
C1127 C1126 1.391 . S
H1128 C1136 0.950 . S
H1129 C1141 0.950 1_655 S
H1130 C1138 0.950 . S
H1131 C1140 0.950 1_655 S
H1132 C1142 0.951 1_655 S
H1133 C1144 0.936 1_655 S
H1134 C1146 0.950 . S
H1135 C1147 0.950 . S
C1136 H1128 0.950 . S
C1136 C1137 1.386 . S
C1136 C1138 1.391 . S
C1137 C1136 1.386 . S
C1137 C1141 1.393 . S
C1138 H1130 0.950 . S
C1138 C1136 1.391 . S
C1138 C1139 1.400 . S
C1139 C1138 1.400 . S
C1139 C1140 1.398 . S
C1139 C1145 1.491 . S
C1140 H1131 0.950 1_455 S
C1140 C1139 1.398 . S
C1140 C1141 1.391 . S
C1141 H1129 0.950 1_455 S
C1141 C1137 1.393 . S
C1141 C1140 1.391 . S
C1142 H1132 0.951 1_455 S
C1142 C1143 1.386 . S
C1142 C1144 1.391 . S
C1143 C1142 1.386 . S
C1143 C1147 1.393 . S
C1144 H1133 0.936 1_455 S
C1144 C1142 1.391 . S
C1144 C1145 1.400 . S
C1145 C1139 1.491 . S
C1145 C1144 1.400 . S
C1145 C1146 1.398 . S
C1146 H1134 0.950 . S
C1146 C1145 1.398 . S
C1146 C1147 1.391 . S
C1147 H1135 0.950 . S
C1147 C1143 1.393 . S
C1147 C1146 1.391 . S
H1148 C1156 0.950 . S
H1149 C1161 0.950 . S
H1150 C1158 0.950 . S
H1151 C1160 0.950 . S
H1152 C1162 0.950 . S
H1153 C1164 0.950 . S
H1154 C1166 0.950 . S
H1155 C1167 0.950 . S
C1156 H1148 0.950 . S
C1156 C1157 1.386 . S
C1156 C1158 1.391 . S
C1157 C1156 1.386 . S
C1157 C1161 1.393 . S
C1158 H1150 0.950 . S
C1158 C1156 1.391 . S
C1158 C1159 1.400 . S
C1159 C1158 1.400 . S
C1159 C1160 1.398 . S
C1159 C1165 1.491 . S
C1160 H1151 0.950 . S
C1160 C1159 1.398 . S
C1160 C1161 1.391 . S
C1161 H1149 0.950 . S
C1161 C1157 1.393 . S
C1161 C1160 1.391 . S
C1162 H1152 0.950 . S
C1162 C1163 1.386 . S
C1162 C1164 1.391 . S
C1163 C1162 1.386 . S
C1163 C1167 1.393 . S
C1164 H1153 0.950 . S
C1164 C1162 1.391 . S
C1164 C1165 1.400 . S
C1165 C1159 1.491 . S
C1165 C1164 1.400 . S
C1165 C1166 1.398 . S
C1166 H1154 0.950 . S
C1166 C1165 1.398 . S
C1166 C1167 1.391 . S
C1167 H1155 0.950 . S
C1167 C1163 1.393 . S
C1167 C1166 1.391 . S
H1168 C1176 0.950 . S
H1169 C1181 0.950 . S
H1170 C1178 0.950 . S
H1171 C1180 0.950 . S
H1172 C1182 0.950 . S
H1173 C1184 0.950 . S
H1174 C1186 0.950 . S
H1175 C1187 0.950 . S
C1176 H1168 0.950 . S
C1176 C1177 1.386 . S
C1176 C1178 1.391 . S
C1177 C1176 1.386 . S
C1177 C1181 1.393 . S
C1178 H1170 0.950 . S
C1178 C1176 1.391 . S
C1178 C1179 1.400 . S
C1179 C1178 1.400 . S
C1179 C1180 1.398 . S
C1179 C1185 1.491 . S
C1180 H1171 0.950 . S
C1180 C1179 1.398 . S
C1180 C1181 1.391 . S
C1181 H1169 0.950 . S
C1181 C1177 1.393 . S
C1181 C1180 1.391 . S
C1182 H1172 0.950 . S
C1182 C1183 1.386 . S
C1182 C1184 1.391 . S
C1183 C1182 1.386 . S
C1183 C1187 1.393 . S
C1184 H1173 0.950 . S
C1184 C1182 1.391 . S
C1184 C1185 1.400 . S
C1185 C1179 1.491 . S
C1185 C1184 1.400 . S
C1185 C1186 1.398 . S
C1186 H1174 0.950 . S
C1186 C1185 1.398 . S
C1186 C1187 1.391 . S
C1187 H1175 0.950 . S
C1187 C1183 1.393 . S
C1187 C1186 1.391 . S
H1188 C1196 0.950 . S
H1189 C1201 0.950 . S
H1190 C1198 0.950 . S
H1191 C1200 0.950 . S
H1192 C1202 0.950 . S
H1193 C1204 0.950 . S
H1194 C1206 0.950 . S
H1195 C1207 0.950 . S
C1196 H1188 0.950 . S
C1196 C1197 1.386 . S
C1196 C1198 1.391 . S
C1197 C1196 1.386 . S
C1197 C1201 1.393 . S
C1198 H1190 0.950 . S
C1198 C1196 1.391 . S
C1198 C1199 1.400 . S
C1199 C1198 1.400 . S
C1199 C1200 1.398 . S
C1199 C1205 1.491 . S
C1200 H1191 0.950 . S
C1200 C1199 1.398 . S
C1200 C1201 1.391 . S
C1201 H1189 0.950 . S
C1201 C1197 1.393 . S
C1201 C1200 1.391 . S
C1202 H1192 0.950 . S
C1202 C1203 1.386 . S
C1202 C1204 1.391 . S
C1203 C1202 1.386 . S
C1203 C1207 1.393 . S
C1204 H1193 0.950 . S
C1204 C1202 1.391 . S
C1204 C1205 1.400 . S
C1205 C1199 1.491 . S
C1205 C1204 1.400 . S
C1205 C1206 1.398 . S
C1206 H1194 0.950 . S
C1206 C1205 1.398 . S
C1206 C1207 1.391 . S
C1207 H1195 0.950 . S
C1207 C1203 1.393 . S
C1207 C1206 1.391 . S
H1208 C1216 0.950 . S
H1209 C1221 0.950 . S
H1210 C1218 0.950 . S
H1211 C1220 0.950 . S
H1212 C1222 0.950 . S
H1213 C1224 0.950 . S
H1214 C1226 0.950 . S
H1215 C1227 0.950 . S
C1216 H1208 0.950 . S
C1216 C1217 1.386 . S
C1216 C1218 1.391 . S
C1217 C1216 1.386 . S
C1217 C1221 1.393 . S
C1218 H1210 0.950 . S
C1218 C1216 1.391 . S
C1218 C1219 1.400 . S
C1219 C1218 1.400 . S
C1219 C1220 1.398 . S
C1219 C1225 1.491 . S
C1220 H1211 0.950 . S
C1220 C1219 1.398 . S
C1220 C1221 1.391 . S
C1221 H1209 0.950 . S
C1221 C1217 1.393 . S
C1221 C1220 1.391 . S
C1222 H1212 0.950 . S
C1222 C1223 1.386 . S
C1222 C1224 1.391 . S
C1223 C1222 1.386 . S
C1223 C1227 1.393 . S
C1224 H1213 0.950 . S
C1224 C1222 1.391 . S
C1224 C1225 1.400 . S
C1225 C1219 1.491 . S
C1225 C1224 1.400 . S
C1225 C1226 1.398 . S
C1226 H1214 0.950 . S
C1226 C1225 1.398 . S
C1226 C1227 1.391 . S
C1227 H1215 0.950 . S
C1227 C1223 1.393 . S
C1227 C1226 1.391 . S
H1228 C1236 0.950 . S
H1229 C1241 0.950 . S
H1230 C1238 0.950 . S
H1231 C1240 0.950 . S
H1232 C1242 0.950 . S
H1233 C1244 0.950 . S
H1234 C1246 0.950 . S
H1235 C1247 0.950 . S
C1236 H1228 0.950 . S
C1236 C1237 1.386 . S
C1236 C1238 1.391 . S
C1237 C1236 1.386 . S
C1237 C1241 1.393 . S
C1238 H1230 0.950 . S
C1238 C1236 1.391 . S
C1238 C1239 1.400 . S
C1239 C1238 1.400 . S
C1239 C1240 1.398 . S
C1239 C1245 1.491 . S
C1240 H1231 0.950 . S
C1240 C1239 1.398 . S
C1240 C1241 1.391 . S
C1241 H1229 0.950 . S
C1241 C1237 1.393 . S
C1241 C1240 1.391 . S
C1242 H1232 0.950 . S
C1242 C1243 1.386 . S
C1242 C1244 1.391 . S
C1243 C1242 1.386 . S
C1243 C1247 1.393 . S
C1244 H1233 0.950 . S
C1244 C1242 1.391 . S
C1244 C1245 1.400 . S
C1245 C1239 1.491 . S
C1245 C1244 1.400 . S
C1245 C1246 1.398 . S
C1246 H1234 0.950 . S
C1246 C1245 1.398 . S
C1246 C1247 1.391 . S
C1247 H1235 0.950 . S
C1247 C1243 1.393 . S
C1247 C1246 1.391 . S
H1248 C1256 0.950 . S
H1249 C1261 0.950 . S
H1250 C1258 0.950 . S
H1251 C1260 0.950 . S
H1252 C1262 0.950 . S
H1253 C1264 0.950 . S
H1254 C1266 0.950 . S
H1255 C1267 0.950 . S
C1256 H1248 0.950 . S
C1256 C1257 1.386 . S
C1256 C1258 1.391 . S
C1257 C1256 1.386 . S
C1257 C1261 1.393 . S
C1258 H1250 0.950 . S
C1258 C1256 1.391 . S
C1258 C1259 1.400 . S
C1259 C1258 1.400 . S
C1259 C1260 1.398 . S
C1259 C1265 1.491 . S
C1260 H1251 0.950 . S
C1260 C1259 1.398 . S
C1260 C1261 1.391 . S
C1261 H1249 0.950 . S
C1261 C1257 1.393 . S
C1261 C1260 1.391 . S
C1262 H1252 0.950 . S
C1262 C1263 1.386 . S
C1262 C1264 1.391 . S
C1263 C1262 1.386 . S
C1263 C1267 1.393 . S
C1264 H1253 0.950 . S
C1264 C1262 1.391 . S
C1264 C1265 1.400 . S
C1265 C1259 1.491 . S
C1265 C1264 1.400 . S
C1265 C1266 1.398 . S
C1266 H1254 0.950 . S
C1266 C1265 1.398 . S
C1266 C1267 1.391 . S
C1267 H1255 0.950 . S
C1267 C1263 1.393 . S
C1267 C1266 1.391 . S
H1268 C1276 0.950 . S
H1269 C1281 0.950 . S
H1270 C1278 0.950 . S
H1271 C1280 0.950 . S
H1272 C1282 0.950 . S
H1273 C1284 0.950 . S
H1274 C1286 0.950 . S
H1275 C1287 0.950 . S
C1276 H1268 0.950 . S
C1276 C1277 1.386 . S
C1276 C1278 1.391 . S
C1277 C1276 1.386 . S
C1277 C1281 1.393 . S
C1278 H1270 0.950 . S
C1278 C1276 1.391 . S
C1278 C1279 1.400 . S
C1279 C1278 1.400 . S
C1279 C1280 1.398 . S
C1279 C1285 1.491 . S
C1280 H1271 0.950 . S
C1280 C1279 1.398 . S
C1280 C1281 1.391 . S
C1281 H1269 0.950 . S
C1281 C1277 1.393 . S
C1281 C1280 1.391 . S
C1282 H1272 0.950 . S
C1282 C1283 1.386 . S
C1282 C1284 1.391 . S
C1283 C1282 1.386 . S
C1283 C1287 1.393 . S
C1284 H1273 0.950 . S
C1284 C1282 1.391 . S
C1284 C1285 1.400 . S
C1285 C1279 1.491 . S
C1285 C1284 1.400 . S
C1285 C1286 1.398 . S
C1286 H1274 0.950 . S
C1286 C1285 1.398 . S
C1286 C1287 1.391 . S
C1287 H1275 0.950 . S
C1287 C1283 1.393 . S
C1287 C1286 1.391 . S
H1288 C1296 0.950 . S
H1289 C1301 0.950 . S
H1290 C1298 0.950 . S
H1291 C1300 0.950 . S
H1292 C1302 0.950 . S
H1293 C1304 0.950 . S
H1294 C1306 0.950 . S
H1295 C1307 0.950 . S
C1296 H1288 0.950 . S
C1296 C1297 1.386 . S
C1296 C1298 1.391 . S
C1297 C1296 1.386 . S
C1297 C1301 1.393 . S
C1298 H1290 0.950 . S
C1298 C1296 1.391 . S
C1298 C1299 1.400 . S
C1299 C1298 1.400 . S
C1299 C1300 1.398 . S
C1299 C1305 1.491 . S
C1300 H1291 0.950 . S
C1300 C1299 1.398 . S
C1300 C1301 1.391 . S
C1301 H1289 0.950 . S
C1301 C1297 1.393 . S
C1301 C1300 1.391 . S
C1302 H1292 0.950 . S
C1302 C1303 1.386 . S
C1302 C1304 1.391 . S
C1303 C1302 1.386 . S
C1303 C1307 1.393 . S
C1304 H1293 0.950 . S
C1304 C1302 1.391 . S
C1304 C1305 1.400 . S
C1305 C1299 1.491 . S
C1305 C1304 1.400 . S
C1305 C1306 1.398 . S
C1306 H1294 0.950 . S
C1306 C1305 1.398 . S
C1306 C1307 1.391 . S
C1307 H1295 0.950 . S
C1307 C1303 1.393 . S
C1307 C1306 1.391 . S
H1308 C1316 0.950 . S
H1309 C1321 0.950 . S
H1310 C1318 0.950 . S
H1311 C1320 0.950 . S
H1312 C1322 0.950 . S
H1313 C1324 0.950 . S
H1314 C1326 0.950 . S
H1315 C1327 0.950 . S
C1316 H1308 0.950 . S
C1316 C1317 1.386 . S
C1316 C1318 1.391 . S
C1317 C1316 1.386 . S
C1317 C1321 1.393 . S
C1318 H1310 0.950 . S
C1318 C1316 1.391 . S
C1318 C1319 1.400 . S
C1319 C1318 1.400 . S
C1319 C1320 1.398 . S
C1319 C1325 1.491 . S
C1320 H1311 0.950 . S
C1320 C1319 1.398 . S
C1320 C1321 1.391 . S
C1321 H1309 0.950 . S
C1321 C1317 1.393 . S
C1321 C1320 1.391 . S
C1322 H1312 0.950 . S
C1322 C1323 1.386 . S
C1322 C1324 1.391 . S
C1323 C1322 1.386 . S
C1323 C1327 1.393 . S
C1324 H1313 0.950 . S
C1324 C1322 1.391 . S
C1324 C1325 1.400 . S
C1325 C1319 1.491 . S
C1325 C1324 1.400 . S
C1325 C1326 1.398 . S
C1326 H1314 0.950 . S
C1326 C1325 1.398 . S
C1326 C1327 1.391 . S
C1327 H1315 0.950 . S
C1327 C1323 1.393 . S
C1327 C1326 1.391 . S
H1328 C1336 0.950 . S
H1329 C1341 0.950 . S
H1330 C1338 0.950 . S
H1331 C1340 0.950 . S
H1332 C1342 0.950 . S
H1333 C1344 0.950 . S
H1334 C1346 0.950 . S
H1335 C1347 0.950 . S
C1336 H1328 0.950 . S
C1336 C1337 1.386 . S
C1336 C1338 1.391 . S
C1337 C1336 1.386 . S
C1337 C1341 1.393 . S
C1338 H1330 0.950 . S
C1338 C1336 1.391 . S
C1338 C1339 1.400 . S
C1339 C1338 1.400 . S
C1339 C1340 1.398 . S
C1339 C1345 1.491 . S
C1340 H1331 0.950 . S
C1340 C1339 1.398 . S
C1340 C1341 1.391 . S
C1341 H1329 0.950 . S
C1341 C1337 1.393 . S
C1341 C1340 1.391 . S
C1342 H1332 0.950 . S
C1342 C1343 1.386 . S
C1342 C1344 1.391 . S
C1343 C1342 1.386 . S
C1343 C1347 1.393 . S
C1344 H1333 0.950 . S
C1344 C1342 1.391 . S
C1344 C1345 1.400 . S
C1345 C1339 1.491 . S
C1345 C1344 1.400 . S
C1345 C1346 1.398 . S
C1346 H1334 0.950 . S
C1346 C1345 1.398 . S
C1346 C1347 1.391 . S
C1347 H1335 0.950 . S
C1347 C1343 1.393 . S
C1347 C1346 1.391 . S
H1348 C1356 0.950 . S
H1349 C1361 0.950 . S
H1350 C1358 0.950 . S
H1351 C1360 0.950 . S
H1352 C1362 0.950 . S
H1353 C1364 0.950 . S
H1354 C1366 0.950 . S
H1355 C1367 0.950 . S
C1356 H1348 0.950 . S
C1356 C1357 1.386 . S
C1356 C1358 1.391 . S
C1357 C1356 1.386 . S
C1357 C1361 1.393 . S
C1358 H1350 0.950 . S
C1358 C1356 1.391 . S
C1358 C1359 1.400 . S
C1359 C1358 1.400 . S
C1359 C1360 1.398 . S
C1359 C1365 1.491 . S
C1360 H1351 0.950 . S
C1360 C1359 1.398 . S
C1360 C1361 1.391 . S
C1361 H1349 0.950 . S
C1361 C1357 1.393 . S
C1361 C1360 1.391 . S
C1362 H1352 0.950 . S
C1362 C1363 1.386 . S
C1362 C1364 1.391 . S
C1363 C1362 1.386 . S
C1363 C1367 1.393 . S
C1364 H1353 0.950 . S
C1364 C1362 1.391 . S
C1364 C1365 1.400 . S
C1365 C1359 1.491 . S
C1365 C1364 1.400 . S
C1365 C1366 1.398 . S
C1366 H1354 0.950 . S
C1366 C1365 1.398 . S
C1366 C1367 1.391 . S
C1367 H1355 0.950 . S
C1367 C1363 1.393 . S
C1367 C1366 1.391 . S
H1368 C1376 0.950 . S
H1369 C1381 0.950 . S
H1370 C1378 0.950 . S
H1371 C1380 0.950 . S
H1372 C1382 0.950 . S
H1373 C1384 0.950 . S
H1374 C1386 0.950 . S
H1375 C1387 0.950 . S
C1376 H1368 0.950 . S
C1376 C1377 1.386 . S
C1376 C1378 1.391 . S
C1377 C1376 1.386 . S
C1377 C1381 1.393 . S
C1378 H1370 0.950 . S
C1378 C1376 1.391 . S
C1378 C1379 1.400 . S
C1379 C1378 1.400 . S
C1379 C1380 1.398 . S
C1379 C1385 1.491 . S
C1380 H1371 0.950 . S
C1380 C1379 1.398 . S
C1380 C1381 1.391 . S
C1381 H1369 0.950 . S
C1381 C1377 1.393 . S
C1381 C1380 1.391 . S
C1382 H1372 0.950 . S
C1382 C1383 1.386 . S
C1382 C1384 1.391 . S
C1383 C1382 1.386 . S
C1383 C1387 1.393 . S
C1384 H1373 0.950 . S
C1384 C1382 1.391 . S
C1384 C1385 1.400 . S
C1385 C1379 1.491 . S
C1385 C1384 1.400 . S
C1385 C1386 1.398 . S
C1386 H1374 0.950 . S
C1386 C1385 1.398 . S
C1386 C1387 1.391 . S
C1387 H1375 0.950 . S
C1387 C1383 1.393 . S
C1387 C1386 1.391 . S
H1388 C1396 0.950 . S
H1389 C1401 0.950 . S
H1390 C1398 0.950 . S
H1391 C1400 0.950 . S
H1392 C1402 0.950 . S
H1393 C1404 0.950 . S
H1394 C1406 0.950 . S
H1395 C1407 0.950 . S
C1396 H1388 0.950 . S
C1396 C1397 1.386 . S
C1396 C1398 1.391 . S
C1397 C1396 1.386 . S
C1397 C1401 1.393 . S
C1398 H1390 0.950 . S
C1398 C1396 1.391 . S
C1398 C1399 1.400 . S
C1399 C1398 1.400 . S
C1399 C1400 1.398 . S
C1399 C1405 1.491 . S
C1400 H1391 0.950 . S
C1400 C1399 1.398 . S
C1400 C1401 1.391 . S
C1401 H1389 0.950 . S
C1401 C1397 1.393 . S
C1401 C1400 1.391 . S
C1402 H1392 0.950 . S
C1402 C1403 1.386 . S
C1402 C1404 1.391 . S
C1403 C1402 1.386 . S
C1403 C1407 1.393 . S
C1404 H1393 0.950 . S
C1404 C1402 1.391 . S
C1404 C1405 1.400 . S
C1405 C1399 1.491 . S
C1405 C1404 1.400 . S
C1405 C1406 1.398 . S
C1406 H1394 0.950 . S
C1406 C1405 1.398 . S
C1406 C1407 1.391 . S
C1407 H1395 0.950 . S
C1407 C1403 1.393 . S
C1407 C1406 1.391 . S
H1408 C1416 0.950 . S
H1409 C1421 0.950 . S
H1410 C1418 0.950 . S
H1411 C1420 0.950 . S
H1412 C1422 0.950 . S
H1413 C1424 0.950 . S
H1414 C1426 0.950 . S
H1415 C1427 0.950 . S
C1416 H1408 0.950 . S
C1416 C1417 1.386 . S
C1416 C1418 1.391 . S
C1417 C1416 1.386 . S
C1417 C1421 1.393 . S
C1418 H1410 0.950 . S
C1418 C1416 1.391 . S
C1418 C1419 1.400 . S
C1419 C1418 1.400 . S
C1419 C1420 1.398 . S
C1419 C1425 1.491 . S
C1420 H1411 0.950 . S
C1420 C1419 1.398 . S
C1420 C1421 1.391 . S
C1421 H1409 0.950 . S
C1421 C1417 1.393 . S
C1421 C1420 1.391 . S
C1422 H1412 0.950 . S
C1422 C1423 1.386 . S
C1422 C1424 1.391 . S
C1423 C1422 1.386 . S
C1423 C1427 1.393 . S
C1424 H1413 0.950 . S
C1424 C1422 1.391 . S
C1424 C1425 1.400 . S
C1425 C1419 1.491 . S
C1425 C1424 1.400 . S
C1425 C1426 1.398 . S
C1426 H1414 0.950 . S
C1426 C1425 1.398 . S
C1426 C1427 1.391 . S
C1427 H1415 0.950 . S
C1427 C1423 1.393 . S
C1427 C1426 1.391 . S
H1428 C1436 0.950 . S
H1429 C1441 0.950 . S
H1430 C1438 0.950 . S
H1431 C1440 0.950 . S
H1432 C1442 0.950 1_455 S
H1433 C1444 0.950 . S
H1434 C1446 0.950 . S
H1435 C1447 0.950 . S
C1436 H1428 0.950 . S
C1436 C1437 1.386 . S
C1436 C1438 1.391 . S
C1437 C1436 1.386 . S
C1437 C1441 1.393 . S
C1438 H1430 0.950 . S
C1438 C1436 1.391 . S
C1438 C1439 1.400 . S
C1439 C1438 1.400 . S
C1439 C1440 1.398 . S
C1439 C1445 1.491 . S
C1440 H1431 0.950 . S
C1440 C1439 1.398 . S
C1440 C1441 1.391 . S
C1441 H1429 0.950 . S
C1441 C1437 1.393 . S
C1441 C1440 1.391 . S
C1442 H1432 0.950 1_655 S
C1442 C1443 1.382 1_655 S
C1442 C1444 1.391 . S
C1443 C1442 1.382 1_455 S
C1443 C1447 1.381 1_455 S
C1444 H1433 0.950 . S
C1444 C1442 1.391 . S
C1444 C1445 1.400 . S
C1445 C1439 1.491 . S
C1445 C1444 1.400 . S
C1445 C1446 1.398 . S
C1446 H1434 0.950 . S
C1446 C1445 1.398 . S
C1446 C1447 1.391 . S
C1447 H1435 0.950 . S
C1447 C1443 1.381 1_655 S
C1447 C1446 1.391 . S
H1448 C1456 0.950 . S
H1449 C1461 0.950 . S
H1450 C1458 0.950 . S
H1451 C1460 0.950 . S
H1452 C1462 0.950 . S
H1453 C1464 0.950 . S
H1454 C1466 0.950 1_556 S
H1455 C1467 0.954 . S
C1456 H1448 0.950 . S
C1456 C1457 1.386 . S
C1456 C1458 1.391 . S
C1457 C1456 1.386 . S
C1457 C1461 1.393 . S
C1458 H1450 0.950 . S
C1458 C1456 1.391 . S
C1458 C1459 1.400 . S
C1459 C1458 1.400 . S
C1459 C1460 1.398 . S
C1459 C1465 1.491 . S
C1460 H1451 0.950 . S
C1460 C1459 1.398 . S
C1460 C1461 1.391 . S
C1461 H1449 0.950 . S
C1461 C1457 1.393 . S
C1461 C1460 1.391 . S
C1462 H1452 0.950 . S
C1462 C1463 1.386 . S
C1462 C1464 1.391 . S
C1463 C1462 1.386 . S
C1463 C1467 1.393 . S
C1464 H1453 0.950 . S
C1464 C1462 1.391 . S
C1464 C1465 1.400 . S
C1465 C1459 1.491 . S
C1465 C1464 1.400 . S
C1465 C1466 1.398 . S
C1466 H1454 0.950 1_554 S
C1466 C1465 1.398 . S
C1466 C1467 1.391 . S
C1467 H1455 0.954 . S
C1467 C1463 1.393 . S
C1467 C1466 1.391 . S
H1468 C1476 0.950 . S
H1469 C1481 0.950 1_455 S
H1470 C1478 0.950 . S
H1471 C1480 0.950 . S
H1472 C1482 0.950 . S
H1473 C1484 0.950 . S
H1474 C1486 0.950 . S
H1475 C1487 0.950 . S
C1476 H1468 0.950 . S
C1476 C1477 1.376 1_655 S
C1476 C1478 1.391 . S
C1477 C1476 1.376 1_455 S
C1477 C1481 1.390 1_454 S
C1478 H1470 0.950 . S
C1478 C1476 1.391 . S
C1478 C1479 1.400 . S
C1479 C1478 1.400 . S
C1479 C1480 1.398 1_554 S
C1479 C1485 1.491 . S
C1480 H1471 0.950 . S
C1480 C1479 1.398 1_556 S
C1480 C1481 1.391 . S
C1481 H1469 0.950 1_655 S
C1481 C1477 1.390 1_656 S
C1481 C1480 1.391 . S
C1482 H1472 0.950 . S
C1482 C1483 1.386 1_556 S
C1482 C1484 1.391 . S
C1483 C1482 1.386 1_554 S
C1483 C1487 1.393 . S
C1484 H1473 0.950 . S
C1484 C1482 1.391 . S
C1484 C1485 1.400 1_556 S
C1485 C1479 1.491 . S
C1485 C1484 1.400 1_554 S
C1485 C1486 1.398 . S
C1486 H1474 0.950 . S
C1486 C1485 1.398 . S
C1486 C1487 1.391 . S
C1487 H1475 0.950 . S
C1487 C1483 1.393 . S
C1487 C1486 1.391 . S
H1488 C1496 0.950 . S
H1489 C1501 0.950 . S
H1490 C1498 0.950 . S
H1491 C1500 0.950 . S
H1492 C1502 0.950 . S
H1493 C1504 0.950 . S
H1494 C1506 0.950 . S
H1495 C1507 0.950 . S
C1496 H1488 0.950 . S
C1496 C1497 1.386 . S
C1496 C1498 1.391 . S
C1497 C1496 1.386 . S
C1497 C1501 1.393 . S
C1498 H1490 0.950 . S
C1498 C1496 1.391 . S
C1498 C1499 1.400 . S
C1499 C1498 1.400 . S
C1499 C1500 1.398 . S
C1499 C1505 1.491 . S
C1500 H1491 0.950 . S
C1500 C1499 1.398 . S
C1500 C1501 1.391 . S
C1501 H1489 0.950 . S
C1501 C1497 1.393 . S
C1501 C1500 1.391 . S
C1502 H1492 0.950 . S
C1502 C1503 1.386 . S
C1502 C1504 1.391 . S
C1503 C1502 1.386 . S
C1503 C1507 1.393 . S
C1504 H1493 0.950 . S
C1504 C1502 1.391 . S
C1504 C1505 1.400 . S
C1505 C1499 1.491 . S
C1505 C1504 1.400 . S
C1505 C1506 1.398 . S
C1506 H1494 0.950 . S
C1506 C1505 1.398 . S
C1506 C1507 1.391 . S
C1507 H1495 0.950 . S
C1507 C1503 1.393 . S
C1507 C1506 1.391 . S
H1508 C1516 0.950 1_655 S
H1509 C1521 0.950 . S
H1510 C1518 0.950 . S
H1511 C1520 0.950 . S
H1512 C1522 0.950 . S
H1513 C1524 0.950 . S
H1514 C1526 0.950 . S
H1515 C1527 0.950 . S
C1516 H1508 0.950 1_455 S
C1516 C1517 1.381 1_455 S
C1516 C1518 1.391 . S
C1517 C1516 1.381 1_655 S
C1517 C1521 1.383 1_655 S
C1518 H1510 0.950 . S
C1518 C1516 1.391 . S
C1518 C1519 1.400 . S
C1519 C1518 1.400 . S
C1519 C1520 1.398 . S
C1519 C1525 1.491 . S
C1520 H1511 0.950 . S
C1520 C1519 1.398 . S
C1520 C1521 1.391 . S
C1521 H1509 0.950 . S
C1521 C1517 1.383 1_455 S
C1521 C1520 1.391 . S
C1522 H1512 0.950 . S
C1522 C1523 1.386 . S
C1522 C1524 1.391 . S
C1523 C1522 1.386 . S
C1523 C1527 1.393 . S
C1524 H1513 0.950 . S
C1524 C1522 1.391 . S
C1524 C1525 1.400 . S
C1525 C1519 1.491 . S
C1525 C1524 1.400 . S
C1525 C1526 1.398 . S
C1526 H1514 0.950 . S
C1526 C1525 1.398 . S
C1526 C1527 1.391 . S
C1527 H1515 0.950 . S
C1527 C1523 1.393 . S
C1527 C1526 1.391 . S
H1528 C1536 0.950 . S
H1529 C1541 0.950 . S
H1530 C1538 0.950 . S
H1531 C1540 0.950 . S
H1532 C1542 0.950 . S
H1533 C1544 0.950 . S
H1534 C1546 0.950 . S
H1535 C1547 0.950 . S
C1536 H1528 0.950 . S
C1536 C1537 1.386 1_554 S
C1536 C1538 1.391 . S
C1537 C1536 1.386 1_556 S
C1537 C1541 1.393 . S
C1538 H1530 0.950 . S
C1538 C1536 1.391 . S
C1538 C1539 1.400 1_554 S
C1539 C1538 1.400 1_556 S
C1539 C1540 1.398 . S
C1539 C1545 1.491 . S
C1540 H1531 0.950 . S
C1540 C1539 1.398 . S
C1540 C1541 1.391 . S
C1541 H1529 0.950 . S
C1541 C1537 1.393 . S
C1541 C1540 1.391 . S
C1542 H1532 0.950 . S
C1542 C1543 1.386 . S
C1542 C1544 1.391 . S
C1543 C1542 1.386 . S
C1543 C1547 1.393 1_556 S
C1544 H1533 0.950 . S
C1544 C1542 1.391 . S
C1544 C1545 1.400 . S
C1545 C1539 1.491 . S
C1545 C1544 1.400 . S
C1545 C1546 1.398 1_556 S
C1546 H1534 0.950 . S
C1546 C1545 1.398 1_554 S
C1546 C1547 1.391 . S
C1547 H1535 0.950 . S
C1547 C1543 1.393 1_554 S
C1547 C1546 1.391 . S
H1548 C1556 0.950 . S
H1549 C1561 0.950 . S
H1550 C1558 0.950 . S
H1551 C1560 0.950 . S
H1552 C1562 0.950 . S
H1553 C1564 0.950 . S
H1554 C1566 0.950 . S
H1555 C1567 0.950 1_655 S
C1556 H1548 0.950 . S
C1556 C1557 1.386 1_554 S
C1556 C1558 1.391 . S
C1557 C1556 1.386 1_556 S
C1557 C1561 1.393 . S
C1558 H1550 0.950 . S
C1558 C1556 1.391 . S
C1558 C1559 1.400 1_554 S
C1559 C1558 1.400 1_556 S
C1559 C1560 1.398 . S
C1559 C1565 1.491 . S
C1560 H1551 0.950 . S
C1560 C1559 1.398 . S
C1560 C1561 1.391 . S
C1561 H1549 0.950 . S
C1561 C1557 1.393 . S
C1561 C1560 1.391 . S
C1562 H1552 0.950 . S
C1562 C1563 1.376 1_455 S
C1562 C1564 1.391 . S
C1563 C1562 1.376 1_655 S
C1563 C1567 1.390 1_656 S
C1564 H1553 0.950 . S
C1564 C1562 1.391 . S
C1564 C1565 1.400 . S
C1565 C1559 1.491 . S
C1565 C1564 1.400 . S
C1565 C1566 1.398 1_556 S
C1566 H1554 0.950 . S
C1566 C1565 1.398 1_554 S
C1566 C1567 1.391 . S
C1567 H1555 0.950 1_455 S
C1567 C1563 1.390 1_454 S
C1567 C1566 1.391 . S
H1568 C1576 0.950 . S
H1569 C1581 0.950 . S
H1570 C1578 0.950 . S
H1571 C1580 0.950 . S
H1572 C1582 0.950 . S
H1573 C1584 0.950 . S
H1574 C1586 0.950 . S
H1575 C1587 0.950 . S
C1576 H1568 0.950 . S
C1576 C1577 1.386 . S
C1576 C1578 1.391 . S
C1577 C1576 1.386 . S
C1577 C1581 1.393 . S
C1578 H1570 0.950 . S
C1578 C1576 1.391 . S
C1578 C1579 1.400 . S
C1579 C1578 1.400 . S
C1579 C1580 1.398 . S
C1579 C1585 1.491 . S
C1580 H1571 0.950 . S
C1580 C1579 1.398 . S
C1580 C1581 1.391 . S
C1581 H1569 0.950 . S
C1581 C1577 1.393 . S
C1581 C1580 1.391 . S
C1582 H1572 0.950 . S
C1582 C1583 1.386 . S
C1582 C1584 1.391 . S
C1583 C1582 1.386 . S
C1583 C1587 1.393 . S
C1584 H1573 0.950 . S
C1584 C1582 1.391 . S
C1584 C1585 1.400 . S
C1585 C1579 1.491 . S
C1585 C1584 1.400 . S
C1585 C1586 1.398 . S
C1586 H1574 0.950 . S
C1586 C1585 1.398 . S
C1586 C1587 1.391 . S
C1587 H1575 0.950 . S
C1587 C1583 1.393 . S
C1587 C1586 1.391 . S
H1588 C1596 0.950 . S
H1589 C1601 0.950 . S
H1590 C1598 0.950 . S
H1591 C1600 0.950 . S
H1592 C1602 0.950 . S
H1593 C1604 0.950 . S
H1594 C1606 0.950 . S
H1595 C1607 0.950 1_455 S
C1596 H1588 0.950 . S
C1596 C1597 1.386 . S
C1596 C1598 1.391 . S
C1597 C1596 1.386 . S
C1597 C1601 1.393 . S
C1598 H1590 0.950 . S
C1598 C1596 1.391 . S
C1598 C1599 1.400 . S
C1599 C1598 1.400 . S
C1599 C1600 1.398 . S
C1599 C1605 1.491 . S
C1600 H1591 0.950 . S
C1600 C1599 1.398 . S
C1600 C1601 1.391 . S
C1601 H1589 0.950 . S
C1601 C1597 1.393 . S
C1601 C1600 1.391 . S
C1602 H1592 0.950 . S
C1602 C1603 1.386 1_655 S
C1602 C1604 1.391 . S
C1603 C1602 1.386 1_455 S
C1603 C1607 1.393 1_455 S
C1604 H1593 0.950 . S
C1604 C1602 1.391 . S
C1604 C1605 1.400 . S
C1605 C1599 1.491 . S
C1605 C1604 1.400 . S
C1605 C1606 1.398 . S
C1606 H1594 0.950 . S
C1606 C1605 1.398 . S
C1606 C1607 1.391 . S
C1607 H1595 0.950 1_655 S
C1607 C1603 1.393 1_655 S
C1607 C1606 1.391 . S
H1608 C1616 0.950 . S
H1609 C1621 0.950 . S
H1610 C1618 0.950 . S
H1611 C1620 0.950 . S
H1612 C1622 0.950 . S
H1613 C1624 0.950 . S
H1614 C1626 0.950 . S
H1615 C1627 0.950 . S
C1616 H1608 0.950 . S
C1616 C1617 1.386 . S
C1616 C1618 1.391 . S
C1617 C1616 1.386 . S
C1617 C1621 1.393 . S
C1618 H1610 0.950 . S
C1618 C1616 1.391 . S
C1618 C1619 1.400 . S
C1619 C1618 1.400 . S
C1619 C1620 1.398 . S
C1619 C1625 1.491 . S
C1620 H1611 0.950 . S
C1620 C1619 1.398 . S
C1620 C1621 1.391 . S
C1621 H1609 0.950 . S
C1621 C1617 1.393 . S
C1621 C1620 1.391 . S
C1622 H1612 0.950 . S
C1622 C1623 1.386 . S
C1622 C1624 1.391 . S
C1623 C1622 1.386 . S
C1623 C1627 1.393 . S
C1624 H1613 0.950 . S
C1624 C1622 1.391 . S
C1624 C1625 1.400 . S
C1625 C1619 1.491 . S
C1625 C1624 1.400 . S
C1625 C1626 1.398 . S
C1626 H1614 0.950 . S
C1626 C1625 1.398 . S
C1626 C1627 1.391 . S
C1627 H1615 0.950 . S
C1627 C1623 1.393 . S
C1627 C1626 1.391 . S
H1628 C1636 0.950 1_455 S
H1629 C1641 0.950 . S
H1630 C1638 0.950 . S
H1631 C1640 0.950 . S
H1632 C1642 0.950 . S
H1633 C1644 0.950 . S
H1634 C1646 0.950 . S
H1635 C1647 0.950 . S
C1636 H1628 0.950 1_655 S
C1636 C1637 1.387 . S
C1636 C1638 1.391 . S
C1637 C1636 1.387 . S
C1637 C1641 1.396 . S
C1638 H1630 0.950 . S
C1638 C1636 1.391 . S
C1638 C1639 1.400 . S
C1639 C1638 1.400 . S
C1639 C1640 1.398 . S
C1639 C1645 1.491 . S
C1640 H1631 0.950 . S
C1640 C1639 1.398 . S
C1640 C1641 1.391 . S
C1641 H1629 0.950 . S
C1641 C1637 1.396 . S
C1641 C1640 1.391 . S
C1642 H1632 0.950 . S
C1642 C1643 1.386 . S
C1642 C1644 1.391 . S
C1643 C1642 1.386 . S
C1643 C1647 1.393 . S
C1644 H1633 0.950 . S
C1644 C1642 1.391 . S
C1644 C1645 1.400 . S
C1645 C1639 1.491 . S
C1645 C1644 1.400 . S
C1645 C1646 1.398 . S
C1646 H1634 0.950 . S
C1646 C1645 1.398 . S
C1646 C1647 1.391 . S
C1647 H1635 0.950 . S
C1647 C1643 1.393 . S
C1647 C1646 1.391 . S
H1648 C1656 0.950 . S
H1649 C1661 0.950 . S
H1650 C1658 0.950 . S
H1651 C1660 0.950 . S
H1652 C1662 0.950 . S
H1653 C1664 0.950 . S
H1654 C1666 0.950 . S
H1655 C1667 0.950 . S
C1656 H1648 0.950 . S
C1656 C1657 1.386 . S
C1656 C1658 1.391 . S
C1657 C1656 1.386 . S
C1657 C1661 1.393 . S
C1658 H1650 0.950 . S
C1658 C1656 1.391 . S
C1658 C1659 1.400 . S
C1659 C1658 1.400 . S
C1659 C1660 1.398 . S
C1659 C1665 1.491 . S
C1660 H1651 0.950 . S
C1660 C1659 1.398 . S
C1660 C1661 1.391 . S
C1661 H1649 0.950 . S
C1661 C1657 1.393 . S
C1661 C1660 1.391 . S
C1662 H1652 0.950 . S
C1662 C1663 1.386 . S
C1662 C1664 1.391 . S
C1663 C1662 1.386 . S
C1663 C1667 1.393 . S
C1664 H1653 0.950 . S
C1664 C1662 1.391 . S
C1664 C1665 1.400 . S
C1665 C1659 1.491 . S
C1665 C1664 1.400 . S
C1665 C1666 1.398 . S
C1666 H1654 0.950 . S
C1666 C1665 1.398 . S
C1666 C1667 1.391 . S
C1667 H1655 0.950 . S
C1667 C1663 1.393 . S
C1667 C1666 1.391 . S
H1668 C1676 0.950 1_655 S
H1669 C1681 0.950 . S
H1670 C1678 0.950 . S
H1671 C1680 0.950 . S
H1672 C1682 0.950 . S
H1673 C1684 0.950 . S
H1674 C1686 0.950 . S
H1675 C1687 0.950 . S
C1676 H1668 0.950 1_455 S
C1676 C1677 1.383 1_455 S
C1676 C1678 1.391 . S
C1677 C1676 1.383 1_655 S
C1677 C1681 1.386 1_655 S
C1678 H1670 0.950 . S
C1678 C1676 1.391 . S
C1678 C1679 1.400 . S
C1679 C1678 1.400 . S
C1679 C1680 1.398 . S
C1679 C1685 1.491 . S
C1680 H1671 0.950 . S
C1680 C1679 1.398 . S
C1680 C1681 1.391 . S
C1681 H1669 0.950 . S
C1681 C1677 1.386 1_455 S
C1681 C1680 1.391 . S
C1682 H1672 0.950 . S
C1682 C1683 1.386 . S
C1682 C1684 1.391 . S
C1683 C1682 1.386 . S
C1683 C1687 1.393 . S
C1684 H1673 0.950 . S
C1684 C1682 1.391 . S
C1684 C1685 1.400 . S
C1685 C1679 1.491 . S
C1685 C1684 1.400 . S
C1685 C1686 1.398 . S
C1686 H1674 0.950 . S
C1686 C1685 1.398 . S
C1686 C1687 1.391 . S
C1687 H1675 0.950 . S
C1687 C1683 1.393 . S
C1687 C1686 1.391 . S
H1688 C1696 0.950 . S
H1689 C1701 0.950 . S
H1690 C1698 0.950 . S
H1691 C1700 0.950 . S
H1692 C1702 0.950 . S
H1693 C1704 0.950 . S
H1694 C1706 0.950 . S
H1695 C1707 0.950 . S
C1696 H1688 0.950 . S
C1696 C1697 1.386 . S
C1696 C1698 1.391 . S
C1697 C1696 1.386 . S
C1697 C1701 1.393 . S
C1698 H1690 0.950 . S
C1698 C1696 1.391 . S
C1698 C1699 1.400 . S
C1699 C1698 1.400 . S
C1699 C1700 1.398 . S
C1699 C1705 1.491 . S
C1700 H1691 0.950 . S
C1700 C1699 1.398 . S
C1700 C1701 1.391 . S
C1701 H1689 0.950 . S
C1701 C1697 1.393 . S
C1701 C1700 1.391 . S
C1702 H1692 0.950 . S
C1702 C1703 1.386 . S
C1702 C1704 1.391 . S
C1703 C1702 1.386 . S
C1703 C1707 1.393 . S
C1704 H1693 0.950 . S
C1704 C1702 1.391 . S
C1704 C1705 1.400 . S
C1705 C1699 1.491 . S
C1705 C1704 1.400 . S
C1705 C1706 1.398 . S
C1706 H1694 0.950 . S
C1706 C1705 1.398 . S
C1706 C1707 1.391 . S
C1707 H1695 0.950 . S
C1707 C1703 1.393 . S
C1707 C1706 1.391 . S
H1708 C1716 0.950 . S
H1709 C1721 0.945 1_655 S
H1710 C1718 0.950 . S
H1711 C1720 0.950 . S
H1712 C1722 0.950 . S
H1713 C1724 0.950 . S
H1714 C1726 0.950 . S
H1715 C1727 0.950 . S
C1716 H1708 0.950 . S
C1716 C1717 1.386 1_455 S
C1716 C1718 1.391 . S
C1717 C1716 1.386 1_655 S
C1717 C1721 1.393 1_655 S
C1718 H1710 0.950 . S
C1718 C1716 1.391 . S
C1718 C1719 1.400 . S
C1719 C1718 1.400 . S
C1719 C1720 1.398 . S
C1719 C1725 1.491 . S
C1720 H1711 0.950 . S
C1720 C1719 1.398 . S
C1720 C1721 1.391 . S
C1721 H1709 0.945 1_455 S
C1721 C1717 1.393 1_455 S
C1721 C1720 1.391 . S
C1722 H1712 0.950 . S
C1722 C1723 1.386 . S
C1722 C1724 1.391 . S
C1723 C1722 1.386 . S
C1723 C1727 1.393 . S
C1724 H1713 0.950 . S
C1724 C1722 1.391 . S
C1724 C1725 1.400 . S
C1725 C1719 1.491 . S
C1725 C1724 1.400 . S
C1725 C1726 1.398 . S
C1726 H1714 0.950 . S
C1726 C1725 1.398 . S
C1726 C1727 1.391 . S
C1727 H1715 0.950 . S
C1727 C1723 1.393 . S
C1727 C1726 1.391 . S
C457 C8 1.320 . S
C463 C50 1.340 . S
C477 C36 1.331 . S
C483 C22 1.327 . S
C497 C64 1.330 . S
C503 C106 1.359 . S
C517 C92 1.339 . S
C523 C78 1.324 . S
C537 C120 1.284 . S
C543 C162 1.265 . S
C557 C148 1.271 . S
C563 C134 1.298 . S
C577 C176 1.267 . S
C583 C218 1.280 . S
C597 C190 1.285 . S
C603 C204 1.300 . S
C617 C274 1.291 . S
C623 C232 1.297 . S
C637 C246 1.298 . S
C643 C260 1.271 . S
C657 C288 1.300 . S
C663 C330 1.284 . S
C677 C316 1.269 . S
C683 C302 1.275 . S
C697 C344 1.323 . S
C703 C386 1.334 . S
C717 C372 1.321 . S
C723 C358 1.337 . S
C737 C400 1.352 . S
C743 C442 1.334 . S
C757 C414 1.340 . S
C763 C428 1.325 . S
C777 C174 1.574 . S
C783 C6 1.574 . S
C797 C20 1.573 . S
C803 C300 1.573 . S
C817 C34 1.514 . S
C823 C90 1.514 . S
C837 C440 1.519 . S
C843 C48 1.518 . S
C857 C62 1.582 . S
C863 C118 1.582 . S
C877 C244 1.575 . S
C883 C76 1.575 . S
C897 C384 1.533 . S
C903 C104 1.532 . S
C917 C412 1.576 . S
C923 C132 1.576 . S
C937 C202 1.547 . S
C943 C146 1.547 . S
C957 C328 1.545 . S
C963 C160 1.545 . S
C977 C188 1.573 . S
C983 C356 1.573 . S
C997 C272 1.534 . S
C1003 C216 1.534 . S
C1017 C398 1.583 . S
C1023 C230 1.583 . S
C1037 C314 1.545 . S
C1043 C258 1.545 . S
C1057 C342 1.578 . S
C1063 C286 1.578 . S
C1077 C370 1.531 . S
C1083 C426 1.530 . S
C1097 C147 1.388 . S
C1103 C7 1.381 . S
C1117 C21 1.391 . S
C1123 C161 1.384 . S
C1137 C119 1.331 . S
C1143 C35 1.324 . S
C1157 C133 1.335 . S
C1163 C49 1.332 . S
C1177 C63 1.388 . S
C1183 C203 1.390 . S
C1197 C77 1.387 . S
C1203 C217 1.390 . S
C1217 C175 1.339 . S
C1223 C91 1.325 . S
C1237 C105 1.338 . S
C1243 C189 1.324 . S
C1257 C371 1.330 . S
C1263 C231 1.325 . S
C1277 C385 1.328 . S
C1283 C245 1.328 . S
C1297 C259 1.381 . S
C1303 C343 1.388 . S
C1317 C273 1.385 . S
C1323 C357 1.391 . S
C1337 C287 1.336 . S
C1343 C427 1.331 . S
C1357 C301 1.338 . S
C1363 C441 1.327 . S
C1377 C399 1.387 . S
C1383 C315 1.390 . S
C1397 C413 1.384 . S
C1403 C329 1.383 . S
C1417 C9 1.558 . S
C1423 C359 1.556 . S
C1437 C345 1.567 . S
C1443 C23 1.588 . S
C1457 C37 1.539 . S
C1463 C387 1.531 . S
C1477 C51 1.545 . S
C1483 C373 1.527 . S
C1497 C65 1.569 . S
C1503 C415 1.561 . S
C1517 C79 1.587 . S
C1523 C401 1.568 . S
C1537 C443 1.536 . S
C1543 C93 1.529 . S
C1557 C429 1.527 . S
C1563 C107 1.546 . S
C1577 C247 1.567 . S
C1583 C121 1.571 . S
C1597 C233 1.564 . S
C1603 C135 1.556 . S
C1617 C149 1.536 . S
C1623 C275 1.534 . S
C1637 C163 1.542 1_655 S
C1643 C261 1.551 . S
C1657 C303 1.568 . S
C1663 C177 1.559 . S
C1677 C191 1.581 . S
C1683 C289 1.567 . S
C1697 C205 1.538 . S
C1703 C331 1.546 . S
C1717 C219 1.534 . S
C1723 C317 1.535 . S
