# Generated by pormake.
# Topology wkf, (6)-cn, num edge types: 1
# Building blocks:
#     Node 0, Type 0, BuildingBlock: KUMBOL_clean_sbu_1, # of connection points: 6
#     Node 1, Type 0, BuildingBlock: KUMBOL_clean_sbu_1, # of connection points: 6
#     Node 2, Type 0, BuildingBlock: KUMBOL_clean_sbu_1, # of connection points: 6
#     Node 3, Type 0, BuildingBlock: KUMBOL_clean_sbu_1, # of connection points: 6
#     Node 4, Type 0, BuildingBlock: KUMBOL_clean_sbu_1, # of connection points: 6
#     Node 5, Type 0, BuildingBlock: KUMBOL_clean_sbu_1, # of connection points: 6
#     Node 6, Type 0, BuildingBlock: KUMBOL_clean_sbu_1, # of connection points: 6
#     Node 7, Type 0, BuildingBlock: KUMBOL_clean_sbu_1, # of connection points: 6
#     Node 8, Type 0, BuildingBlock: KUMBOL_clean_sbu_1, # of connection points: 6
#     Node 9, Type 0, BuildingBlock: KUMBOL_clean_sbu_1, # of connection points: 6
#     Node 10, Type 0, BuildingBlock: KUMBOL_clean_sbu_1, # of connection points: 6
#     Node 11, Type 0, BuildingBlock: KUMBOL_clean_sbu_1, # of connection points: 6
#     Edge 12, Type (0, 0), BuildingBlock: CIFDUS_clean_linker_0, # of connection points: 2
#     Edge 13, Type (0, 0), BuildingBlock: CIFDUS_clean_linker_0, # of connection points: 2
#     Edge 14, Type (0, 0), BuildingBlock: CIFDUS_clean_linker_0, # of connection points: 2
#     Edge 15, Type (0, 0), BuildingBlock: CIFDUS_clean_linker_0, # of connection points: 2
#     Edge 16, Type (0, 0), BuildingBlock: CIFDUS_clean_linker_0, # of connection points: 2
#     Edge 17, Type (0, 0), BuildingBlock: CIFDUS_clean_linker_0, # of connection points: 2
#     Edge 18, Type (0, 0), BuildingBlock: CIFDUS_clean_linker_0, # of connection points: 2
#     Edge 19, Type (0, 0), BuildingBlock: CIFDUS_clean_linker_0, # of connection points: 2
#     Edge 20, Type (0, 0), BuildingBlock: CIFDUS_clean_linker_0, # of connection points: 2
#     Edge 21, Type (0, 0), BuildingBlock: CIFDUS_clean_linker_0, # of connection points: 2
#     Edge 22, Type (0, 0), BuildingBlock: CIFDUS_clean_linker_0, # of connection points: 2
#     Edge 23, Type (0, 0), BuildingBlock: CIFDUS_clean_linker_0, # of connection points: 2
#     Edge 24, Type (0, 0), BuildingBlock: CIFDUS_clean_linker_0, # of connection points: 2
#     Edge 25, Type (0, 0), BuildingBlock: CIFDUS_clean_linker_0, # of connection points: 2
#     Edge 26, Type (0, 0), BuildingBlock: CIFDUS_clean_linker_0, # of connection points: 2
#     Edge 27, Type (0, 0), BuildingBlock: CIFDUS_clean_linker_0, # of connection points: 2
#     Edge 28, Type (0, 0), BuildingBlock: CIFDUS_clean_linker_0, # of connection points: 2
#     Edge 29, Type (0, 0), BuildingBlock: CIFDUS_clean_linker_0, # of connection points: 2
#     Edge 30, Type (0, 0), BuildingBlock: CIFDUS_clean_linker_0, # of connection points: 2
#     Edge 31, Type (0, 0), BuildingBlock: CIFDUS_clean_linker_0, # of connection points: 2
#     Edge 32, Type (0, 0), BuildingBlock: CIFDUS_clean_linker_0, # of connection points: 2
#     Edge 33, Type (0, 0), BuildingBlock: CIFDUS_clean_linker_0, # of connection points: 2
#     Edge 34, Type (0, 0), BuildingBlock: CIFDUS_clean_linker_0, # of connection points: 2
#     Edge 35, Type (0, 0), BuildingBlock: CIFDUS_clean_linker_0, # of connection points: 2
#     Edge 36, Type (0, 0), BuildingBlock: CIFDUS_clean_linker_0, # of connection points: 2
#     Edge 37, Type (0, 0), BuildingBlock: CIFDUS_clean_linker_0, # of connection points: 2
#     Edge 38, Type (0, 0), BuildingBlock: CIFDUS_clean_linker_0, # of connection points: 2
#     Edge 39, Type (0, 0), BuildingBlock: CIFDUS_clean_linker_0, # of connection points: 2
#     Edge 40, Type (0, 0), BuildingBlock: CIFDUS_clean_linker_0, # of connection points: 2
#     Edge 41, Type (0, 0), BuildingBlock: CIFDUS_clean_linker_0, # of connection points: 2
#     Edge 42, Type (0, 0), BuildingBlock: CIFDUS_clean_linker_0, # of connection points: 2
#     Edge 43, Type (0, 0), BuildingBlock: CIFDUS_clean_linker_0, # of connection points: 2
#     Edge 44, Type (0, 0), BuildingBlock: CIFDUS_clean_linker_0, # of connection points: 2
#     Edge 45, Type (0, 0), BuildingBlock: CIFDUS_clean_linker_0, # of connection points: 2
#     Edge 46, Type (0, 0), BuildingBlock: CIFDUS_clean_linker_0, # of connection points: 2
#     Edge 47, Type (0, 0), BuildingBlock: CIFDUS_clean_linker_0, # of connection points: 2
# Relax obj value: 0.269
# Max RMSD: 0.287
# Mean RMSD: 0.278
data_MOF--net-wkf--node1-KUMBOL_clean_sbu_1--edge1-CIFDUS_clean_linker_0
_symmetry_space_group_name_H-M    P1
_symmetry_Int_Tables_number       1
_symmetry_cell_setting            triclinic
loop_
_symmetry_equiv_pos_as_xyz
'x, y, z'
_cell_length_a     26.771859
_cell_length_b     26.662687
_cell_length_c     80.014082
_cell_angle_alpha  90.07428
_cell_angle_beta   89.977386
_cell_angle_gamma 119.56745
loop_
_atom_site_label
_atom_site_type_symbol
_atom_site_fract_x
_atom_site_fract_y
_atom_site_fract_z
_atom_type_partial_charge
C0 C 0.66031 0.97161 0.3687 0.0
C1 C 0.70654 1.02664 0.34382 0.0
C2 C 0.66222 1.00765 0.35591 0.0
C3 C 0.74745 1.00832 0.34465 0.0
C4 C 0.70138 0.95298 0.36952 0.0
C5 C 0.74475 0.97142 0.35742 0.0
N6 N 0.61819 0.95433 0.38031 0.0
C7 C 0.61477 0.91881 0.39311 0.0
C8 C 0.69788 0.91638 0.38254 0.0
C9 C 0.65438 0.89929 0.3944 0.0
Gd10 Gd 0.42455 0.93647 0.34849 0.0
Gd11 Gd 0.55524 0.99147 0.37829 0.0
N12 N 0.62126 1.02404 0.35524 0.0
C13 C 0.70895 0.06383 0.33122 0.0
C14 C 0.62374 0.05989 0.34258 0.0
C15 C 0.66747 0.08058 0.33065 0.0
H16 H 0.59107 0.07091 0.34059 0.0
H17 H 0.66811 0.10835 0.32069 0.0
H18 H 0.34871 1.00375 0.34425 0.0
H19 H 0.58028 0.90386 0.40211 0.0
H20 H 0.33607 0.06495 0.32331 0.0
H21 H 0.7423 0.07938 0.32178 0.0
H22 H 0.78145 1.0225 0.33545 0.0
H23 H 0.5468 0.92969 0.33522 0.0
H24 H 0.72847 0.90105 0.38352 0.0
H25 H 0.65101 0.87066 0.40445 0.0
H26 H 0.4735 0.094 0.28067 0.0
H27 H 0.7766 0.95759 0.35788 0.0
H28 H 0.59369 1.01046 0.28796 0.0
H29 H 0.60424 0.95272 0.31026 0.0
N30 N 0.49724 0.96842 0.32753 0.0
C31 C 0.49069 1.00021 0.31515 0.0
C32 C 0.53767 0.95158 0.32566 0.0
C33 C 0.56629 0.99881 0.29889 0.0
C34 C 0.57211 0.96595 0.31139 0.0
C35 C 0.52566 1.01675 0.30068 0.0
H36 H 0.54551 0.06326 0.27721 0.0
N37 N 0.41576 1.00109 0.33076 0.0
C38 C 0.44896 1.01681 0.3168 0.0
C39 C 0.40161 0.06856 0.30691 0.0
C40 C 0.44268 0.05119 0.30448 0.0
C41 C 0.37518 1.01731 0.33315 0.0
C42 C 0.36789 0.05172 0.32133 0.0
O43 O 0.53177 0.90137 0.36796 0.0
O44 O 0.45691 0.86812 0.3489 0.0
O45 O 0.37861 0.88054 0.32705 0.0
O46 O 0.3314 0.89821 0.34546 0.0
O47 O 0.55422 0.07152 0.36711 0.0
O48 O 0.47442 1.0388 0.34987 0.0
O49 O 0.40638 0.97898 0.37142 0.0
O50 O 0.49173 1.01804 0.38639 0.0
O51 O 0.62546 0.06259 0.39197 0.0
O52 O 0.56519 0.98573 0.40485 0.0
O53 O 0.39469 0.88329 0.37304 0.0
O54 O 0.47572 0.91753 0.38998 0.0
C55 C 0.49661 0.86128 0.35726 0.0
C56 C 0.52093 0.08227 0.357 0.0
C57 C 0.27489 0.82137 0.32582 0.0
C58 C 0.20181 0.76457 0.30409 0.0
C59 C 0.18645 0.7349 0.33337 0.0
C60 C 0.23932 0.78182 0.33789 0.0
C61 C 0.16776 0.7265 0.31676 0.0
C62 C 0.25614 0.81208 0.30879 0.0
C63 C 0.32904 0.87443 0.33106 0.0
C64 C 0.47779 0.06771 0.29026 0.0
C65 C 0.51892 0.05033 0.28833 0.0
H66 H 0.39583 0.09522 0.29777 0.0
C67 C 0.44029 1.01109 0.38388 0.0
C68 C 0.42029 0.88293 0.38728 0.0
C69 C 0.59461 0.07278 0.4191 0.0
C70 C 0.62956 0.1597 0.43593 0.0
C71 C 0.53269 0.08157 0.43991 0.0
C72 C 0.54124 0.05006 0.42736 0.0
C73 C 0.577 0.13612 0.44436 0.0
C74 C 0.63832 0.12802 0.42337 0.0
C75 C 0.60538 1.03874 0.40641 0.0
H76 H 0.15951 0.70473 0.34286 0.0
H77 H 0.25214 0.78753 0.35091 0.0
H78 H 0.1268 0.68914 0.31379 0.0
H79 H 0.28313 0.84242 0.29933 0.0
H80 H 0.49163 0.0636 0.4462 0.0
H81 H 0.50603 1.00797 0.42421 0.0
H82 H 0.57019 0.16007 0.45419 0.0
H83 H 0.67969 0.14601 0.41719 0.0
C84 C 0.73327 0.60735 0.5172 0.0
C85 C 0.71431 0.59892 0.48737 0.0
C86 C 0.69402 0.58585 0.50401 0.0
C87 C 0.77321 0.63426 0.48423 0.0
C88 C 0.79269 0.64168 0.51399 0.0
C89 C 0.81224 0.65552 0.49748 0.0
N90 N 0.71391 0.59128 0.53308 0.0
C91 C 0.75123 0.60849 0.54627 0.0
C92 C 0.83108 0.65987 0.52746 0.0
C93 C 0.81024 0.64306 0.54366 0.0
Gd94 Gd 0.52933 0.38772 0.51889 0.0
Gd95 Gd 0.614 0.53744 0.5363 0.0
N96 N 0.63701 0.54983 0.50733 0.0
C97 C 0.67507 0.57503 0.47426 0.0
C98 C 0.59919 0.52607 0.4944 0.0
C99 C 0.61739 0.53826 0.4778 0.0
H100 H 0.55508 0.49692 0.49646 0.0
H101 H 0.58674 0.51885 0.46772 0.0
H102 H 0.62298 0.3378 0.51984 0.0
H103 H 0.73558 0.5946 0.55882 0.0
H104 H 0.63111 0.25828 0.53319 0.0
H105 H 0.689 0.58396 0.46135 0.0
H106 H 0.78918 0.64459 0.47153 0.0
H107 H 0.38785 0.3389 0.51554 0.0
H108 H 0.87695 0.68602 0.52546 0.0
H109 H 0.83968 0.65625 0.55411 0.0
H110 H 0.44864 0.14452 0.56008 0.0
H111 H 0.85767 0.68183 0.49481 0.0
H112 H 0.29978 0.18714 0.54572 0.0
H113 H 0.29748 0.26067 0.52737 0.0
N114 N 0.44056 0.31119 0.52773 0.0
C115 C 0.44238 0.26943 0.53695 0.0
C116 C 0.38915 0.30703 0.52358 0.0
C117 C 0.33951 0.22159 0.54069 0.0
C118 C 0.338 0.26287 0.53027 0.0
C119 C 0.39196 0.22363 0.54379 0.0
H120 H 0.35704 0.1449 0.55834 0.0
N121 N 0.54017 0.31152 0.52994 0.0
C122 C 0.49395 0.26943 0.53805 0.0
C123 C 0.54724 0.22056 0.54452 0.0
C124 C 0.49647 0.2233 0.54582 0.0
C125 C 0.58779 0.30604 0.52724 0.0
C126 C 0.59251 0.26124 0.5348 0.0
O127 O 0.67469 0.49925 0.5332 0.0
O128 O 0.62847 0.43883 0.51136 0.0
O129 O 0.50105 0.31246 0.50284 0.0
O130 O 0.53001 0.39505 0.49142 0.0
O131 O 0.53269 0.53302 0.52393 0.0
O132 O 0.47796 0.43874 0.51451 0.0
O133 O 0.47404 0.40434 0.5382 0.0
O134 O 0.53564 0.48758 0.55269 0.0
O135 O 0.6279 0.62466 0.53534 0.0
O136 O 0.64236 0.59201 0.55835 0.0
O137 O 0.58437 0.39325 0.54165 0.0
O138 O 0.59909 0.47211 0.55708 0.0
C139 C 0.67723 0.47072 0.51999 0.0
C140 C 0.48422 0.49166 0.51716 0.0
C141 C 0.46939 0.30907 0.47492 0.0
C142 C 0.43678 0.23959 0.45104 0.0
C143 C 0.37938 0.28222 0.46084 0.0
C144 C 0.41965 0.31341 0.47325 0.0
C145 C 0.38769 0.24594 0.4499 0.0
C146 C 0.47774 0.27193 0.46377 0.0
C147 C 0.51094 0.34005 0.48882 0.0
C148 C 0.44736 0.17983 0.55378 0.0
C149 C 0.39516 0.18001 0.55277 0.0
H150 H 0.55093 0.18583 0.55032 0.0
C151 C 0.48511 0.44111 0.55081 0.0
C152 C 0.59202 0.41941 0.5562 0.0
C153 C 0.59984 0.65108 0.55992 0.0
C154 C 0.56226 0.71741 0.5615 0.0
C155 C 0.52553 0.63473 0.58008 0.0
C156 C 0.56311 0.61858 0.573 0.0
C157 C 0.52495 0.68384 0.57438 0.0
C158 C 0.59911 0.70027 0.55423 0.0
C159 C 0.63654 0.63266 0.55132 0.0
H160 H 0.34124 0.28626 0.45966 0.0
H161 H 0.41173 0.34067 0.48164 0.0
H162 H 0.35584 0.22371 0.44028 0.0
H163 H 0.51569 0.26767 0.46523 0.0
H164 H 0.49738 0.60969 0.59016 0.0
H165 H 0.56339 0.58078 0.57772 0.0
H166 H 0.49684 0.69665 0.58046 0.0
H167 H 0.62737 0.72524 0.54409 0.0
C168 C 0.11563 0.70931 0.70064 0.0
C169 C 0.09149 0.69785 0.67128 0.0
C170 C 0.10221 0.67679 0.68627 0.0
C171 C 0.0909 0.75023 0.67135 0.0
C172 C 0.11883 0.76379 0.70056 0.0
C173 C 0.10467 0.78324 0.68598 0.0
N174 N 0.13058 0.68994 0.71431 0.0
C175 C 0.15282 0.72467 0.72802 0.0
C176 C 0.13847 0.79809 0.71491 0.0
C177 C 0.15642 0.77878 0.72862 0.0
Gd178 Gd 0.16445 0.51624 0.6835 0.0
Gd179 Gd 0.11732 0.5957 0.71336 0.0
N180 N 0.10532 0.62746 0.68659 0.0
C181 C 0.08479 0.66728 0.6565 0.0
C182 C 0.10372 0.60069 0.67192 0.0
C183 C 0.09238 0.61927 0.65676 0.0
H184 H 0.11362 0.56659 0.67175 0.0
H185 H 0.09077 0.59742 0.64521 0.0
H186 H 0.22685 0.45334 0.70537 0.0
H187 H 0.16819 0.71108 0.73859 0.0
H188 H 0.21192 0.35517 0.70952 0.0
H189 H 0.07682 0.68209 0.64472 0.0
H190 H 0.08217 0.76668 0.66 0.0
H191 H 0.08568 0.50759 0.64891 0.0
H192 H 0.14179 0.84025 0.71533 0.0
H193 H 0.17341 0.80569 0.7396 0.0
H194 H 1.05904 0.23756 0.67198 0.0
H195 H 0.10626 0.82464 0.68572 0.0
H196 H 0.99013 0.33003 0.63489 0.0
H197 H 1.01627 0.43166 0.6302 0.0
N198 N 0.09658 0.4494 0.66462 0.0
C199 C 0.08656 0.39431 0.66657 0.0
C200 C 0.07442 0.46345 0.65112 0.0
C201 C 1.02059 0.36321 0.64317 0.0
C202 C 1.03514 0.42051 0.64049 0.0
C203 C 1.04712 0.3496 0.65609 0.0
H204 H 1.00582 0.25816 0.65064 0.0
N205 N 0.1591 0.42691 0.68765 0.0
C206 C 0.11779 0.38273 0.67851 0.0
C207 C 0.14224 0.31624 0.69187 0.0
C208 C 0.10852 0.32612 0.6804 0.0
C209 C 0.1935 0.41785 0.69843 0.0
C210 C 0.18516 0.36235 0.70081 0.0
O211 O 0.20897 0.65932 0.70577 0.0
O212 O 0.21548 0.62068 0.68074 0.0
O213 O 0.22326 0.49351 0.67024 0.0
O214 O 0.20954 0.56148 0.66095 0.0
O215 O 1.03283 0.52635 0.70004 0.0
O216 O 0.06171 0.47561 0.68273 0.0
O217 O 0.13557 0.47239 0.7097 0.0
O218 O 0.07118 0.50086 0.71752 0.0
O219 O 1.05373 0.60126 0.72928 0.0
O220 O 0.13049 0.6067 0.73996 0.0
O221 O 0.22813 0.54815 0.70534 0.0
O222 O 0.19122 0.58605 0.72478 0.0
C223 C 0.23396 0.6667 0.69108 0.0
C224 C 1.01945 0.48319 0.68914 0.0
C225 C 0.23425 0.5114 0.64014 0.0
C226 C 0.27643 0.4836 0.61619 0.0
C227 C 0.19595 0.5011 0.61194 0.0
C228 C 0.19587 0.51429 0.62874 0.0
C229 C 0.23547 0.4863 0.60574 0.0
C230 C 0.27542 0.49646 0.63366 0.0
C231 C 0.23388 0.52999 0.6581 0.0
C232 C 0.06695 0.28131 0.67058 0.0
C233 C 1.03655 0.29303 0.65843 0.0
H234 H 0.1362 0.27333 0.69368 0.0
C235 C 0.09166 0.46586 0.71905 0.0
C236 C 0.22904 0.57007 0.72032 0.0
C237 C 1.04621 0.55822 0.75598 0.0
C238 C 0.96256 0.51573 0.77414 0.0
C239 C 1.03247 0.48354 0.77596 0.0
C240 C 0.0649 0.52232 0.76335 0.0
C241 C 0.98094 0.47965 0.78124 0.0
C242 C 0.99527 0.55489 0.76157 0.0
C243 C 0.08009 0.60058 0.74293 0.0
H244 H 0.16596 0.50408 0.60348 0.0
H245 H 0.16657 0.52885 0.63262 0.0
H246 H 0.23507 0.47931 0.59241 0.0
H247 H 0.30665 0.49567 0.64209 0.0
H248 H 1.04706 0.45607 0.78153 0.0
H249 H 0.10437 0.52395 0.75939 0.0
H250 H 0.95583 0.44908 0.79089 0.0
H251 H 0.98077 0.58268 0.75608 0.0
C252 C 0.48031 0.14627 0.86722 0.0
C253 C 0.44359 0.1064 0.83985 0.0
C254 C 0.48036 0.11423 0.85351 0.0
C255 C 0.40962 0.1331 0.83987 0.0
C256 C 0.44539 0.17231 0.8674 0.0
C257 C 0.41073 0.16619 0.85357 0.0
N258 N 0.51433 0.15203 0.88045 0.0
C259 C 0.51439 0.18153 0.89444 0.0
C260 C 0.44589 0.20339 0.88158 0.0
C261 C 0.48025 0.20767 0.8952 0.0
Gd262 Gd 0.69754 0.15324 0.8484 0.0
Gd263 Gd 0.56952 0.10637 0.87872 0.0
N264 N 0.51486 0.08976 0.85364 0.0
C265 C 0.44085 0.07092 0.82665 0.0
C266 C 0.5114 0.05474 0.84064 0.0
C267 C 0.47416 0.04427 0.82721 0.0
H268 H 0.53821 1.03597 0.83975 0.0
H269 H 0.47255 1.01682 0.817 0.0
H270 H 0.76359 0.07535 0.85031 0.0
H271 H 0.54204 0.18634 0.90486 0.0
H272 H 0.77646 1.00669 0.83243 0.0
H273 H 0.41291 0.06352 0.81604 0.0
H274 H 0.38175 0.12784 0.8294 0.0
H275 H 0.59451 0.1764 0.82777 0.0
H276 H 0.41971 0.22396 0.88216 0.0
H277 H 0.48097 0.23162 0.90622 0.0
H278 H 0.66417 0.98637 0.78367 0.0
H279 H 0.38396 0.18618 0.85345 0.0
H280 H 0.55987 0.08847 0.78143 0.0
H281 H 0.54863 0.15426 0.80074 0.0
N282 N 0.63677 0.12636 0.82449 0.0
C283 C 0.64464 0.09098 0.81365 0.0
C284 C 0.60307 0.14938 0.81974 0.0
C285 C 0.58188 0.09896 0.79337 0.0
C286 C 0.57561 0.13625 0.80421 0.0
C287 C 0.61648 0.0757 0.79799 0.0
H288 H 0.60251 1.02607 0.77527 0.0
N289 N 0.70798 0.08433 0.83314 0.0
C290 C 0.68113 0.06962 0.81807 0.0
C291 C 0.72266 1.00847 0.81268 0.0
C292 C 0.68798 1.03119 0.80741 0.0
C293 C 0.7421 0.06262 0.83835 0.0
C294 C 0.74961 1.02405 0.82825 0.0
O295 O 0.60247 0.20003 0.8708 0.0
O296 O 0.66138 0.21897 0.84787 0.0
O297 O 0.79129 0.19331 0.84743 0.0
O298 O 0.74871 0.21124 0.82787 0.0
O299 O 0.56314 1.02246 0.86764 0.0
O300 O 0.64085 0.05111 0.8498 0.0
O301 O 0.71201 0.10897 0.8717 0.0
O302 O 0.62729 0.0729 0.88691 0.0
O303 O 0.48785 0.04424 0.88967 0.0
O304 O 0.55748 0.10209 0.90555 0.0
O305 O 0.72605 0.20789 0.87244 0.0
O306 O 0.65048 0.17671 0.8914 0.0
C307 C 0.6283 0.23191 0.85755 0.0
C308 C 0.59427 1.00923 0.85736 0.0
C309 C 0.83927 0.21726 0.82054 0.0
C310 C 0.90402 0.25565 0.79558 0.0
C311 C 0.89744 0.17492 0.81174 0.0
C312 C 0.85931 0.17808 0.82294 0.0
C313 C 0.91896 0.21248 0.79822 0.0
C314 C 0.86253 0.2568 0.80679 0.0
C315 C 0.79775 0.21894 0.83313 0.0
C316 C 0.65936 1.01576 0.79201 0.0
C317 C 0.62403 1.03818 0.78728 0.0
H318 H 0.72858 0.97855 0.80488 0.0
C319 C 0.67767 0.07744 0.88419 0.0
C320 C 0.70503 0.21047 0.88728 0.0
C321 C 0.49913 1.00805 0.91569 0.0
C322 C 0.44988 0.90489 0.92168 0.0
C323 C 0.51986 0.97288 0.94131 0.0
C324 C 0.52889 1.01862 0.93092 0.0
C325 C 0.48006 0.91634 0.93686 0.0
C326 C 0.46083 0.95102 0.91102 0.0
C327 C 0.50724 0.0564 0.9049 0.0
H328 H 0.91098 0.14323 0.81367 0.0
H329 H 0.84624 0.14995 0.83366 0.0
H330 H 0.94756 0.20717 0.78977 0.0
H331 H 0.84947 0.28897 0.80515 0.0
H332 H 0.54283 0.98138 0.95304 0.0
H333 H 0.55889 0.06223 0.93485 0.0
H334 H 0.47199 0.88188 0.94549 0.0
H335 H 0.43849 0.94248 0.89917 0.0
C336 C 0.38825 0.46558 0.0252 0.0
C337 C 0.40269 0.45767 0.99559 0.0
C338 C 0.42491 0.48191 1.01145 0.0
C339 C 0.3448 0.41514 0.99394 0.0
C340 C 0.32923 0.42531 0.02332 0.0
C341 C 0.30815 0.39911 1.00776 0.0
N342 N 0.40909 0.49312 0.04001 0.0
C343 C 0.37287 0.48403 0.05317 0.0
C344 C 0.29252 0.41417 0.03696 0.0
C345 C 0.31434 0.44418 0.05188 0.0
Gd346 Gd 0.59087 0.69689 0.01836 0.0
Gd347 Gd 0.50941 0.55384 0.04133 0.0
N348 N 0.4805 0.52502 0.01324 0.0
C349 C 0.43852 0.47872 0.98164 0.0
C350 C 0.51373 0.5481 0.99938 0.0
C351 C 0.4939 0.5249 0.98352 0.0
H352 H 0.55466 0.58547 1.00019 0.0
H353 H 0.52113 0.54343 0.97268 0.0
H354 H 0.51013 0.76175 0.01831 0.0
H355 H 0.38896 0.50813 0.06466 0.0
H356 H 0.51159 0.84704 0.03127 0.0
H357 H 0.42303 0.46136 0.96927 0.0
H358 H 0.32742 0.39589 0.98188 0.0
H359 H 0.73053 0.73684 0.01323 0.0
H360 H 0.24697 0.3838 0.03594 0.0
H361 H 0.28599 0.43703 0.06235 0.0
H362 H 0.69448 0.94526 0.0589 0.0
H363 H 0.2631 0.36775 1.00614 0.0
H364 H 0.83031 0.88553 0.04374 0.0
H365 H 0.8244 0.80948 0.02473 0.0
N366 N 0.68347 0.76926 0.02648 0.0
C367 C 0.68641 0.81296 0.03591 0.0
C368 C 0.73264 0.76959 0.02163 0.0
C369 C 0.78895 0.85333 0.03891 0.0
C370 C 0.78584 0.81064 0.02811 0.0
C371 C 0.73914 0.85603 0.0425 0.0
H372 H 0.78083 0.93508 0.05697 0.0
N373 N 0.58982 0.77918 0.02904 0.0
C374 C 0.63781 0.81829 0.03718 0.0
C375 C 0.59365 0.87644 0.04316 0.0
C376 C 0.64068 0.8674 0.04478 0.0
C377 C 0.54644 0.7911 0.02587 0.0
C378 C 0.54711 0.83912 0.0332 0.0
O379 O 0.44408 0.58345 0.03445 0.0
O380 O 0.49026 0.64264 0.01207 0.0
O381 O 0.61807 0.77026 1.00162 0.0
O382 O 0.58779 0.68654 0.99087 0.0
O383 O 0.58763 0.55308 0.02793 0.0
O384 O 0.63851 0.64171 0.01457 0.0
O385 O 0.64681 0.67898 0.03705 0.0
O386 O 0.58323 0.61951 0.05675 0.0
O387 O 0.5174 0.4777 0.04628 0.0
O388 O 0.47869 0.50677 0.06453 0.0
O389 O 0.53141 0.69537 0.03944 0.0
O390 O 0.52376 0.62878 0.05883 0.0
C391 C 0.44144 0.60963 0.0207 0.0
C392 C 0.63305 0.59014 0.01889 0.0
C393 C 0.64583 0.77095 0.97333 0.0
C394 C 0.67704 0.84129 0.94961 0.0
C395 C 0.72933 0.79042 0.95672 0.0
C396 C 0.69176 0.76151 0.9699 0.0
C397 C 0.72211 0.82946 0.94671 0.0
C398 C 0.63879 0.81119 0.96315 0.0
C399 C 0.60654 0.74122 0.98784 0.0
C400 C 0.69173 0.90783 0.05268 0.0
C401 C 0.74094 0.90208 0.05157 0.0
H402 H 0.59417 0.91369 0.04879 0.0
C403 C 0.63598 0.65345 0.05188 0.0
C404 C 0.52572 0.6781 0.05513 0.0
C405 C 0.54099 0.47526 0.0746 0.0
C406 C 0.61126 0.44754 0.08367 0.0
C407 C 0.59293 0.51245 0.10065 0.0
C408 C 0.55247 0.50907 0.08911 0.0
C409 C 0.62333 0.48331 0.09778 0.0
C410 C 0.56977 0.44394 0.07214 0.0
C411 C 0.50087 0.4741 0.06173 0.0
H412 H 0.76442 0.78229 0.95417 0.0
H413 H 0.69876 0.73187 0.97748 0.0
H414 H 0.75159 0.84944 0.93642 0.0
H415 H 0.60391 0.81938 0.96599 0.0
H416 H 0.60077 0.53788 0.11187 0.0
H417 H 0.53064 0.53338 0.09153 0.0
H418 H 0.65548 0.48809 0.10681 0.0
H419 H 0.55851 0.41573 0.06137 0.0
C420 C 0.99895 0.36775 0.20433 0.0
C421 C 1.02732 0.37268 0.17545 0.0
C422 C 1.01709 0.39803 0.1896 0.0
C423 C 1.0223 0.31784 0.17676 0.0
C424 C 0.99046 0.31126 0.20549 0.0
C425 C 1.00379 0.2871 0.19177 0.0
N426 N 0.98486 0.39174 0.21708 0.0
C427 C 0.95913 0.36044 0.23112 0.0
C428 C 0.96672 0.27999 0.22017 0.0
C429 C 0.95026 0.30445 0.23295 0.0
Gd430 Gd 0.96206 0.5713 0.18327 0.0
Gd431 Gd 1.00626 0.48815 0.21412 0.0
N432 N 1.01933 0.44993 0.1887 0.0
C433 C 1.03947 0.40195 0.16022 0.0
C434 C 1.02613 0.47572 0.17357 0.0
C435 C 1.03765 0.45319 0.1592 0.0
H436 H 1.02061 0.51245 0.17254 0.0
H437 H 1.04396 0.47467 0.14729 0.0
H438 H 0.9262 0.6595 0.20385 0.0
H439 H 0.94522 0.37846 0.24096 0.0
H440 H 0.96216 0.76425 0.2064 0.0
H441 H 1.04748 0.38401 0.14904 0.0
H442 H 1.03052 0.29797 0.16607 0.0
H443 H 1.02739 0.55632 0.14863 0.0
H444 H 0.95932 0.23642 0.22154 0.0
H445 H 0.93042 0.28011 0.24418 0.0
H446 H 0.11841 0.84991 0.16755 0.0
H447 H 0.99811 0.24401 0.19247 0.0
H448 H 0.15358 0.72494 0.13263 0.0
H449 H 0.10581 0.61902 0.12948 0.0
N450 N 1.03623 0.62572 0.16395 0.0
C451 C 1.05784 0.68417 0.16483 0.0
C452 C 1.05014 0.60223 0.15069 0.0
C453 C 0.12017 0.6976 0.14134 0.0
C454 C 0.0936 0.63777 0.13959 0.0
C455 C 0.10133 0.72153 0.15373 0.0
H456 H 0.15783 0.81067 0.14685 0.0
N457 N 0.98972 0.66933 0.18613 0.0
C458 C 1.03459 0.70631 0.17638 0.0
C459 C 1.02997 0.78722 0.18844 0.0
C460 C 1.05583 0.76636 0.17731 0.0
C461 C 0.9629 0.6894 0.19653 0.0
C462 C 0.98302 0.74854 0.19798 0.0
O463 O 0.91483 0.42898 0.20508 0.0
O464 O 0.91444 0.46771 0.17941 0.0
O465 O 0.90215 0.59896 0.17369 0.0
O466 O 0.91692 0.54031 0.15927 0.0
O467 O 0.09145 0.55446 0.2005 0.0
O468 O 0.06354 0.60617 0.18334 0.0
O469 O 0.98642 0.61059 0.21017 0.0
O470 O 1.05231 0.58357 0.21704 0.0
O471 O 0.06726 0.47866 0.23007 0.0
O472 O 0.99712 0.4858 0.24094 0.0
O473 O 0.89841 0.53935 0.20536 0.0
O474 O 0.93066 0.49666 0.22482 0.0
C475 C 0.89329 0.42178 0.18984 0.0
C476 C 0.10519 0.5974 0.18955 0.0
C477 C 0.89329 0.60382 0.14365 0.0
C478 C 0.84912 0.63051 0.12006 0.0
C479 C 0.9528 0.67236 0.12221 0.0
C480 C 0.94678 0.64011 0.13641 0.0
C481 C 0.90496 0.66815 0.11425 0.0
C482 C 0.84347 0.59894 0.13525 0.0
C483 C 0.89145 0.5714 0.15954 0.0
C484 C 0.10127 0.80368 0.16688 0.0
C485 C 0.12377 0.78134 0.15509 0.0
H486 H 1.04519 0.83303 0.18952 0.0
C487 C 1.02961 0.61609 0.21964 0.0
C488 C 0.89464 0.51481 0.22015 0.0
C489 C 0.08369 0.52878 0.25615 0.0
C490 C 0.17907 0.58588 0.26846 0.0
C491 C 0.09735 0.58858 0.28062 0.0
C492 C 0.06142 0.55015 0.26846 0.0
C493 C 0.15585 0.60635 0.28068 0.0
C494 C 0.14254 0.54683 0.25629 0.0
C495 C 1.045 0.48596 0.24375 0.0
H496 H 0.99523 0.70082 0.11726 0.0
H497 H 0.98477 0.64375 0.14155 0.0
H498 H 0.91219 0.69513 0.1034 0.0
H499 H 0.80118 0.57038 0.14025 0.0
H500 H 0.07972 0.60453 0.29006 0.0
H501 H 1.0161 0.53679 0.26881 0.0
H502 H 0.18291 0.63621 0.29023 0.0
H503 H 0.15967 0.52915 0.24719 0.0
C504 C 0.122 0.43502 0.49759 0.0
C505 C 0.10001 0.44134 0.52653 0.0
C506 C 0.10833 0.46226 0.50995 0.0
C507 C 0.10103 0.39027 0.53007 0.0
C508 C 0.12748 0.38621 0.50131 0.0
C509 C 0.11491 0.36279 0.51747 0.0
N510 N 0.13533 0.45959 0.48227 0.0
C511 C 0.158 0.43977 0.47036 0.0
C512 C 0.14777 0.36387 0.48888 0.0
C513 C 0.16406 0.39143 0.47342 0.0
Gd514 Gd 0.16768 0.67823 0.49877 0.0
Gd515 Gd 0.11421 0.53394 0.47692 0.0
N516 N 0.11019 0.51289 0.50616 0.0
C517 C 0.09477 0.47432 0.53925 0.0
C518 C 0.11252 0.548 0.51893 0.0
C519 C 0.10295 0.52879 0.53549 0.0
H520 H 0.12524 0.59202 0.51672 0.0
H521 H 0.10374 0.55676 0.54542 0.0
H522 H 0.22375 0.78544 0.46985 0.0
H523 H 0.1715 0.46109 0.45842 0.0
H524 H 0.20011 0.85665 0.45804 0.0
H525 H 0.08856 0.45997 0.55213 0.0
H526 H 0.09397 0.37329 0.54267 0.0
H527 H 0.10713 0.64806 0.53743 0.0
H528 H 0.15285 0.32663 0.49127 0.0
H529 H 0.18142 0.37559 0.46387 0.0
H530 H 1.04232 0.83651 0.49122 0.0
H531 H 0.11808 0.32486 0.52051 0.0
H532 H 0.9984 0.72318 0.54077 0.0
H533 H 1.04008 0.66781 0.55358 0.0
N534 N 0.1028 0.69132 0.51558 0.0
C535 C 0.08511 0.72708 0.50894 0.0
C536 C 0.08973 0.67292 0.53179 0.0
C537 C 1.02812 0.71506 0.53365 0.0
C538 C 1.05177 0.68402 0.54097 0.0
C539 C 1.04591 0.73844 0.51767 0.0
H540 H 0.99777 0.78411 0.51712 0.0
N541 N 0.15504 0.75245 0.48743 0.0
C542 C 0.11145 0.7579 0.49439 0.0
C543 C 0.12877 0.83359 0.47468 0.0
C544 C 0.09743 0.79897 0.48818 0.0
C545 C 0.18811 0.78873 0.47494 0.0
C546 C 0.17478 0.82901 0.4682 0.0
O547 O 0.20839 0.56643 0.4827 0.0
O548 O 0.2202 0.62761 0.50451 0.0
O549 O 0.2379 0.7651 0.50417 0.0
O550 O 0.20657 0.70318 0.52396 0.0
O551 O 1.0314 0.52809 0.48878 0.0
O552 O 0.06671 0.61473 0.50313 0.0
O553 O 0.12277 0.67362 0.47346 0.0
O554 O 0.0669 0.577 0.46698 0.0
O555 O 1.04884 0.45084 0.46723 0.0
O556 O 0.11789 0.51062 0.45128 0.0
O557 O 0.2253 0.69391 0.47601 0.0
O558 O 0.17754 0.60979 0.46045 0.0
C559 C 0.23655 0.59363 0.49626 0.0
C560 C 1.02219 0.56372 0.49841 0.0
C561 C 0.24396 0.80382 0.53179 0.0
C562 C 0.2845 0.87305 0.55586 0.0
C563 C 0.20818 0.86964 0.53841 0.0
C564 C 0.20924 0.82808 0.52819 0.0
C565 C 0.24439 0.8911 0.55215 0.0
C566 C 0.28282 0.82741 0.54571 0.0
C567 C 0.24093 0.75723 0.52015 0.0
C568 C 1.0543 0.80592 0.49601 0.0
C569 C 1.02876 0.77591 0.51074 0.0
H570 H 0.11901 0.86535 0.46953 0.0
C571 C 0.08163 0.63106 0.46461 0.0
C572 C 0.21708 0.66503 0.46187 0.0
C573 C 1.02916 0.45384 0.43824 0.0
C574 C 0.93244 0.42214 0.42779 0.0
C575 C 1.01188 0.4498 0.40838 0.0
C576 C 1.04932 0.46106 0.42173 0.0
C577 C 0.95369 0.42956 0.41133 0.0
C578 C 0.97123 0.43649 0.44119 0.0
C579 C 0.06908 0.463 0.45205 0.0
H580 H 0.17934 0.88599 0.53551 0.0
H581 H 0.18324 0.81586 0.51721 0.0
H582 H 0.24064 0.92247 0.55984 0.0
H583 H 0.31219 0.81147 0.5483 0.0
H584 H 1.02765 0.45501 0.39568 0.0
H585 H 0.094 0.47483 0.41917 0.0
H586 H 0.92527 0.41778 0.40065 0.0
H587 H 0.95606 0.43239 0.45393 0.0
C588 C 0.70944 0.06936 0.65753 0.0
C589 C 0.689 0.05088 0.68697 0.0
C590 C 0.67678 0.06594 0.67117 0.0
C591 C 0.73215 1.03575 0.68847 0.0
C592 C 0.75567 0.05829 0.65918 0.0
C593 C 0.76554 1.03952 0.67457 0.0
N594 N 0.69956 0.08908 0.64304 0.0
C595 C 0.73802 0.10397 0.63016 0.0
C596 C 0.79226 0.06912 0.64556 0.0
C597 C 0.78408 0.09327 0.6311 0.0
Gd598 Gd 0.52874 0.15032 0.66727 0.0
Gd599 Gd 0.61572 0.09788 0.64144 0.0
N600 N 0.63679 0.08271 0.6693 0.0
C601 C 0.65951 0.05422 0.70092 0.0
C602 C 0.6111 0.08985 0.68312 0.0
C603 C 0.62134 0.07504 0.69904 0.0
H604 H 0.58309 0.10752 0.682 0.0
H605 H 0.6004 0.08024 0.70992 0.0
H606 H 0.45204 0.18616 0.64093 0.0
H607 H 0.73392 0.12434 0.61904 0.0
H608 H 0.35035 0.14896 0.63335 0.0
H609 H 0.66775 1.0433 0.71327 0.0
H610 H 0.74158 1.02342 0.70046 0.0
H611 H 0.52627 0.09888 0.7059 0.0
H612 H 0.8283 0.06137 0.64632 0.0
H613 H 0.81353 0.10414 0.62071 0.0
H614 H 0.24575 0.99948 0.67317 0.0
H615 H 0.8003 1.03007 0.67602 0.0
H616 H 0.35125 0.98349 0.71905 0.0
H617 H 0.45459 1.03226 0.72614 0.0
N618 N 0.46465 0.08447 0.68708 0.0
C619 C 0.40767 0.06149 0.68343 0.0
C620 C 0.4815 0.07642 0.70252 0.0
C621 C 0.38258 1.01213 0.71006 0.0
C622 C 0.4409 1.03938 0.71408 0.0
C623 C 0.36524 1.02348 0.69468 0.0
H624 H 0.27387 0.96943 0.69886 0.0
N625 N 0.43339 0.12281 0.65974 0.0
C626 C 0.39182 0.07934 0.66897 0.0
C627 C 0.31838 0.08224 0.65204 0.0
C628 C 0.33312 0.05826 0.6654 0.0
C629 C 0.41889 0.14968 0.64764 0.0
C630 C 0.36143 0.12879 0.64331 0.0
O631 O 0.68094 0.18602 0.65098 0.0
O632 O 0.63272 0.20424 0.67211 0.0
O633 O 0.50583 0.21708 0.67242 0.0
O634 O 0.54738 0.19578 0.69162 0.0
O635 O 0.53952 1.01518 0.65323 0.0
O636 O 0.49291 0.04788 0.67093 0.0
O637 O 0.49457 0.11733 0.64027 0.0
O638 O 0.52248 0.05045 0.63544 0.0
O639 O 0.61312 1.03587 0.62297 0.0
O640 O 0.64352 0.12501 0.6162 0.0
O641 O 0.56115 0.20913 0.64435 0.0
O642 O 0.61548 0.17701 0.63021 0.0
C643 C 0.68246 0.21668 0.6641 0.0
C644 C 0.49807 1.00389 0.66445 0.0
C645 C 0.47924 0.22617 0.70057 0.0
C646 C 0.45185 0.26511 0.72544 0.0
C647 C 0.37915 0.18562 0.70893 0.0
C648 C 0.42057 0.18887 0.69787 0.0
C649 C 0.39446 0.22226 0.72262 0.0
C650 C 0.49493 0.26556 0.71445 0.0
C651 C 0.5216 0.22513 0.68804 0.0
C652 C 0.29096 1.01663 0.67587 0.0
C653 C 0.30697 0.99962 0.69053 0.0
H654 H 0.27381 0.06695 0.64887 0.0
C655 C 0.48879 0.07129 0.63216 0.0
C656 C 0.59398 0.2122 0.63159 0.0
C657 C 0.58657 0.05568 0.59627 0.0
C658 C 0.54419 0.9934 0.57208 0.0
C659 C 0.52185 0.06931 0.57782 0.0
C660 C 0.55727 0.0855 0.59192 0.0
C661 C 0.51468 1.02291 0.56799 0.0
C662 C 0.57985 1.00992 0.58627 0.0
C663 C 0.62554 0.07288 0.61081 0.0
H664 H 0.33436 0.15473 0.70671 0.0
H665 H 0.40597 0.16255 0.68694 0.0
H666 H 0.36035 0.21672 0.73098 0.0
H667 H 0.53973 0.29693 0.71634 0.0
H668 H 0.49953 0.0925 0.57459 0.0
H669 H 0.56123 0.121 0.59945 0.0
H670 H 0.48648 1.01027 0.55723 0.0
H671 H 0.60189 0.98653 0.58971 0.0
C672 C 0.65486 0.73568 0.81688 0.0
C673 C 0.68726 0.73707 0.84518 0.0
C674 C 0.65264 0.70629 0.83137 0.0
C675 C 0.72328 0.79706 0.84418 0.0
C676 C 0.69061 0.79608 0.81586 0.0
C677 C 0.72478 0.82653 0.82958 0.0
N678 N 0.62084 0.70551 0.8039 0.0
C679 C 0.62013 0.7327 0.78952 0.0
C680 C 0.6905 0.82425 0.80112 0.0
C681 C 0.65506 0.79237 0.78789 0.0
Gd682 Gd 0.43841 0.52444 0.83766 0.0
Gd683 Gd 0.56425 0.60561 0.80697 0.0
N684 N 0.61598 0.64823 0.83211 0.0
C685 C 0.6846 0.70683 0.85967 0.0
C686 C 0.61242 0.61941 0.84655 0.0
C687 C 0.64718 0.64774 0.86032 0.0
H688 H 0.58217 0.575 0.84801 0.0
H689 H 0.6442 0.62394 0.87157 0.0
H690 H 0.37429 0.38382 0.82746 0.0
H691 H 0.59179 0.70855 0.77938 0.0
H692 H 0.35557 0.29234 0.84046 0.0
H693 H 0.71072 0.72874 0.87048 0.0
H694 H 0.74988 0.82114 0.85469 0.0
H695 H 0.52061 0.63051 0.86636 0.0
H696 H 0.71718 0.87056 0.7999 0.0
H697 H 0.65417 0.81377 0.7765 0.0
H698 H 0.4419 0.34744 0.89466 0.0
H699 H 0.75237 0.8729 0.82904 0.0
H700 H 0.54148 0.54749 0.90893 0.0
H701 H 0.55769 0.6358 0.89439 0.0
N702 N 0.4847 0.5391 0.86387 0.0
C703 C 0.47266 0.48941 0.87211 0.0
C704 C 0.51323 0.59096 0.87202 0.0
C705 C 0.52494 0.54446 0.89639 0.0
C706 C 0.5343 0.59441 0.8882 0.0
C707 C 0.49344 0.49112 0.88846 0.0
H708 H 0.49765 0.44041 0.909 0.0
N709 N 0.4209 0.43533 0.84833 0.0
C710 C 0.43945 0.43622 0.86424 0.0
C711 C 0.39826 0.33251 0.86348 0.0
C712 C 0.42868 0.38462 0.87219 0.0
C713 C 0.39066 0.38451 0.83982 0.0
C714 C 0.37938 0.3325 0.84723 0.0
O715 O 0.52476 0.66127 0.81417 0.0
O716 O 0.48696 0.62738 0.84004 0.0
O717 O 0.34486 0.47124 0.83986 0.0
O718 O 0.38906 0.53912 0.85735 0.0
O719 O 0.57825 0.53429 0.81966 0.0
O720 O 0.49982 0.4833 0.83702 0.0
O721 O 0.42389 0.47521 0.81221 0.0
O722 O 0.51572 0.51159 0.80162 0.0
O723 O 0.64456 0.62649 0.79461 0.0
O724 O 0.56925 0.6065 0.77997 0.0
O725 O 0.4079 0.5526 0.81429 0.0
O726 O 0.48087 0.59052 0.7944 0.0
C727 C 0.51104 0.67127 0.82915 0.0
C728 C 0.54857 0.49036 0.83017 0.0
C729 C 0.30224 0.45611 0.86743 0.0
C730 C 0.23605 0.43293 0.892 0.0
C731 C 0.2575 0.36101 0.88034 0.0
C732 C 0.29214 0.39927 0.86807 0.0
C733 C 0.23013 0.37747 0.89213 0.0
C734 C 0.2737 0.47297 0.87961 0.0
C735 C 0.3398 0.49522 0.85346 0.0
C736 C 0.44976 0.38664 0.88837 0.0
C737 C 0.48181 0.43965 0.89649 0.0
H738 H 0.38938 0.29207 0.86916 0.0
C739 C 0.46144 0.47257 0.80171 0.0
C740 C 0.42711 0.57261 0.79902 0.0
C741 C 0.62717 0.56998 0.76997 0.0
C742 C 0.66885 0.50733 0.76616 0.0
C743 C 0.6054 0.51083 0.74501 0.0
C744 C 0.59945 0.55162 0.75445 0.0
C745 C 0.64051 0.48937 0.75067 0.0
C746 C 0.6601 0.54613 0.77596 0.0
C747 C 0.62063 0.61312 0.77988 0.0
H748 H 0.2514 0.31774 0.88064 0.0
H749 H 0.31043 0.38354 0.85891 0.0
H750 H 0.20438 0.3462 0.90155 0.0
H751 H 0.27969 0.51618 0.8792 0.0
H752 H 0.58392 0.49692 0.73306 0.0
H753 H 0.57316 0.5688 0.74962 0.0
H754 H 0.6468 0.46023 0.74265 0.0
H755 H 0.68006 0.55877 0.78815 0.0
C756 C 1.0173 0.65399 0.99591 0.0
C757 C 1.03749 0.64876 0.02508 0.0
C758 C 1.02468 0.62437 1.00887 0.0
C759 C 1.04724 0.70501 0.02761 0.0
C760 C 1.02222 0.70858 0.99868 0.0
C761 C 1.03948 0.73489 0.01442 0.0
N762 N 0.99919 0.62666 0.98105 0.0
C763 C 0.97999 0.64912 0.96891 0.0
C764 C 1.00683 0.73374 0.98581 0.0
C765 C 0.98435 0.70322 0.97099 0.0
Gd766 Gd 0.95058 0.40107 1.00131 0.0
Gd767 Gd 1.00319 0.54087 0.97726 0.0
N768 N 1.01254 0.56923 1.00603 0.0
C769 C 1.03659 0.61467 0.03843 0.0
C770 C 1.00538 0.5345 0.01941 0.0
C771 C 1.01882 0.55674 0.03563 0.0
H772 H 0.98808 0.48921 0.0179 0.0
H773 H 1.01435 0.52879 0.04601 0.0
H774 H 0.86592 0.29355 0.97437 0.0
H775 H 0.96151 0.62577 0.95749 0.0
H776 H 0.8719 0.21815 0.95813 0.0
H777 H 1.04605 0.63165 0.05105 0.0
H778 H 1.05793 0.72464 0.03991 0.0
H779 H 1.03136 0.41877 0.03608 0.0
H780 H 1.00977 0.77546 0.98745 0.0
H781 H 0.97017 0.72122 0.96119 0.0
H782 H 1.04415 0.2247 0.97774 0.0
H783 H 1.04439 0.77716 0.01671 0.0
H784 H 0.13093 0.33603 0.02677 0.0
H785 H 0.10433 0.39348 0.04524 0.0
N786 N 1.01922 0.37863 0.01224 0.0
C787 C 1.02816 0.34121 1.0028 0.0
C788 C 1.04243 0.39326 0.02797 0.0
C789 C 0.09901 0.34709 0.02265 0.0
C790 C 0.08389 0.37924 0.03316 0.0
C791 C 0.06947 0.32567 1.00758 0.0
H792 H 0.10915 0.27429 1.00123 0.0
N793 N 0.9458 0.32194 0.98678 0.0
C794 C 0.9899 0.31142 0.98986 0.0
C795 C 0.9523 0.23542 0.96913 0.0
C796 C 0.99448 0.26814 0.98096 0.0
C797 C 0.90252 0.28751 0.97604 0.0
C798 C 0.90559 0.24442 0.96689 0.0
O799 O 0.9134 0.51893 0.98583 0.0
O800 O 0.89542 0.45021 1.00615 0.0
O801 O 0.88229 0.3174 1.00995 0.0
O802 O 0.92631 0.38401 0.02804 0.0
O803 O 0.08711 0.54912 0.98921 0.0
O804 O 1.05084 0.46772 1.00593 0.0
O805 O 0.98767 0.40198 0.97467 0.0
O806 O 1.05315 0.49699 0.97047 0.0
O807 O 0.06766 0.61312 0.96271 0.0
O808 O 0.98675 0.5509 0.95145 0.0
O809 O 0.8831 0.39024 0.9822 0.0
O810 O 0.93525 0.46071 0.96283 0.0
C811 C 0.88263 0.4884 0.99871 0.0
C812 C 0.09589 0.51692 1.00038 0.0
C813 C 0.88753 0.28454 0.03745 0.0
C814 C 0.84971 0.21553 0.06158 0.0
C815 C 0.92542 0.2202 0.04354 0.0
C816 C 0.92288 0.26128 0.03348 0.0
C817 C 0.89021 0.19833 0.05747 0.0
C818 C 0.84978 0.26058 0.05158 0.0
C819 C 0.88789 0.32977 0.02582 0.0
C820 C 1.03949 0.25719 0.98462 0.0
C821 C 0.07676 0.28571 0.99794 0.0
H822 H 0.95436 0.2018 0.96206 0.0
C823 C 1.03382 0.44282 0.96692 0.0
C824 C 0.8904 0.41043 0.96683 0.0
C825 C 0.06916 0.58507 0.9346 0.0
C826 C 0.15013 0.62626 0.91547 0.0
C827 C 0.07973 0.52492 0.91352 0.0
C828 C 1.0492 0.53102 0.92682 0.0
C829 C 0.13059 0.5723 0.90796 0.0
C830 C 0.11926 0.63245 0.92871 0.0
C831 C 1.03874 0.5928 0.94886 0.0
H832 H 0.95462 0.20453 0.04036 0.0
H833 H 0.94822 0.27395 0.02235 0.0
H834 H 0.89502 0.16732 0.06501 0.0
H835 H 0.81991 0.27571 0.05442 0.0
H836 H 0.06441 0.48316 0.90771 0.0
H837 H 1.01054 0.49336 0.93111 0.0
H838 H 0.15446 0.56697 0.89783 0.0
H839 H 0.13493 0.67421 0.93463 0.0
C840 C 0.38562 0.9762 0.14893 0.0
C841 C 0.39363 1.03532 0.17286 0.0
C842 C 0.41879 1.01322 0.1616 0.0
C843 C 0.33572 1.0203 0.17104 0.0
C844 C 0.32688 0.95955 0.14739 0.0
C845 C 0.30237 0.98235 0.15838 0.0
N846 N 0.40979 0.95366 0.1387 0.0
C847 C 0.37796 0.91378 0.12681 0.0
C848 C 0.29407 0.91919 0.13511 0.0
C849 C 0.31967 0.8959 0.12485 0.0
Gd850 Gd 0.58738 0.94042 0.17225 0.0
Gd851 Gd 0.50847 0.98912 0.14135 0.0
N852 N 0.47452 1.02571 0.16331 0.0
C853 C 0.42697 0.07113 0.18585 0.0
C854 C 0.50612 0.05924 0.17649 0.0
C855 C 0.48329 0.08278 0.18772 0.0
H856 H 0.54796 0.06613 0.17929 0.0
H857 H 0.50896 0.10889 0.19809 0.0
H858 H 0.72994 1.01202 0.17389 0.0
H859 H 0.39757 0.8954 0.11891 0.0
H860 H 0.80602 0.07357 0.19411 0.0
H861 H 0.40924 0.08885 0.19474 0.0
H862 H 0.31601 1.03704 0.17957 0.0
H863 H 0.46132 0.93608 0.18672 0.0
H864 H 0.24882 0.90512 0.13361 0.0
H865 H 0.29455 0.86417 0.11545 0.0
H866 H 0.70318 0.10094 0.23903 0.0
H867 H 0.25744 0.97022 0.15735 0.0
H868 H 0.50015 1.01915 0.23387 0.0
H869 H 0.43002 0.96192 0.21202 0.0
N870 N 0.54931 0.97325 0.19383 0.0
C871 C 0.58881 1.00545 0.20581 0.0
C872 C 0.49289 0.95789 0.19611 0.0
C873 C 0.51445 1.00645 0.22278 0.0
C874 C 0.47474 0.97391 0.21053 0.0
C875 C 0.57226 1.02309 0.22049 0.0
H876 H 0.60154 0.07056 0.24377 0.0
N877 N 0.66227 1.00639 0.18901 0.0
C878 C 0.64659 1.02221 0.20336 0.0
C879 C 0.74631 0.07545 0.21184 0.0
C880 C 0.68848 0.0574 0.21517 0.0
C881 C 0.71853 1.02459 0.18551 0.0
C882 C 0.76142 0.05934 0.19688 0.0
O883 O 0.44306 0.90393 0.15387 0.0
O884 O 0.48694 0.87188 0.1726 0.0
O885 O 0.63956 0.89826 0.17361 0.0
O886 O 0.58134 0.88434 0.19346 0.0
O887 O 0.58775 0.07196 0.15237 0.0
O888 O 0.63707 1.04281 0.1702 0.0
O889 O 0.64398 0.97961 0.14843 0.0
O890 O 0.59919 1.02149 0.13365 0.0
O891 O 0.50029 0.05295 0.12639 0.0
O892 O 0.49738 0.97905 0.11456 0.0
O893 O 0.56555 0.88743 0.14817 0.0
O894 O 0.51089 0.91052 0.13062 0.0
C895 C 0.43935 0.86485 0.16479 0.0
C896 C 0.6322 0.08507 0.16264 0.0
C897 C 0.66447 0.87426 0.20034 0.0
C898 C 0.69113 0.83488 0.2251 0.0
C899 C 0.76477 0.91023 0.20769 0.0
C900 C 0.72331 0.90918 0.19701 0.0
C901 C 0.7491 0.87428 0.22159 0.0
C902 C 0.64849 0.83622 0.21446 0.0
C903 C 0.62117 0.87417 0.1881 0.0
C904 C 0.67165 0.07418 0.22977 0.0
C905 C 0.61376 0.05696 0.23245 0.0
H906 H 0.77966 0.10256 0.2206 0.0
C907 C 0.64229 1.01226 0.13601 0.0
C908 C 0.53656 0.88025 0.13413 0.0
C909 C 0.54878 0.06709 0.10036 0.0
C910 C 0.61953 0.16325 0.09074 0.0
C911 C 0.6133 0.07864 0.07737 0.0
C912 C 0.56869 1.04304 0.08815 0.0
C913 C 0.63841 0.1385 0.07855 0.0
C914 C 0.57435 0.12717 0.10147 0.0
C915 C 0.50326 1.02983 0.11233 0.0
H916 H 0.80979 0.9388 0.20504 0.0
H917 H 0.73795 0.9355 0.18591 0.0
H918 H 0.78319 0.87767 0.22959 0.0
H919 H 0.60341 0.80684 0.21678 0.0
H920 H 0.62843 0.05974 0.06807 0.0
H921 H 0.55006 0.99675 0.08697 0.0
H922 H 0.67279 0.16537 0.07005 0.0
H923 H 0.55839 0.14597 0.11057 0.0
C924 C 0.45412 0.35872 0.30757 0.0
C925 C 0.40749 0.35158 0.33403 0.0
C926 C 0.45045 0.38451 0.32216 0.0
C927 C 0.36875 0.29308 0.33092 0.0
C928 C 0.41587 0.29971 0.30448 0.0
C929 C 0.37301 0.26716 0.31619 0.0
N930 N 0.49639 0.39084 0.2966 0.0
C931 C 0.50376 0.36671 0.28241 0.0
C932 C 0.4224 0.27491 0.2898 0.0
C933 C 0.46672 0.30857 0.27874 0.0
Gd934 Gd 0.67558 0.56096 0.33622 0.0
Gd935 Gd 0.55604 0.4886 0.30273 0.0
N936 N 0.48949 0.44108 0.32492 0.0
C937 C 0.40487 0.37815 0.34877 0.0
C938 C 0.4873 0.46626 0.33957 0.0
C939 C 0.445 0.43573 0.35154 0.0
H940 H 0.51843 0.50934 0.34257 0.0
H941 H 0.44389 0.45662 0.36303 0.0
H942 H 0.76722 0.69997 0.32758 0.0
H943 H 0.53877 0.39206 0.27398 0.0
H944 H 0.80018 0.79525 0.34062 0.0
H945 H 0.37252 0.35449 0.35817 0.0
H946 H 0.33564 0.26737 0.33991 0.0
H947 H 0.56823 0.46358 0.36156 0.0
H948 H 0.39401 0.22973 0.28701 0.0
H949 H 0.47272 0.28967 0.26747 0.0
H950 H 0.69138 0.75277 0.39136 0.0
H951 H 0.34326 0.22184 0.31403 0.0
H952 H 0.55175 0.55646 0.40256 0.0
H953 H 0.52268 0.46457 0.38791 0.0
N954 N 0.62157 0.55504 0.36028 0.0
C955 C 0.64061 0.60598 0.36875 0.0
C956 C 0.58124 0.50454 0.36739 0.0
C957 C 0.57202 0.55665 0.39082 0.0
C958 C 0.55534 0.50472 0.38255 0.0
C959 C 0.61539 0.60808 0.38403 0.0
H960 H 0.61533 0.66348 0.40388 0.0
N961 N 0.70844 0.65376 0.3471 0.0
C962 C 0.6853 0.65658 0.36199 0.0
C963 C 0.74531 0.76035 0.36213 0.0
C964 C 0.70333 0.71011 0.36991 0.0
C965 C 0.74877 0.70266 0.33933 0.0
C966 C 0.76788 0.7566 0.34674 0.0
O967 O 0.58755 0.42761 0.31199 0.0
O968 O 0.61873 0.45921 0.33857 0.0
O969 O 0.76369 0.6084 0.34648 0.0
O970 O 0.71195 0.51905 0.3516 0.0
O971 O 0.54392 0.56061 0.31605 0.0
O972 O 0.61626 0.60404 0.33583 0.0
O973 O 0.69913 0.6126 0.31117 0.0
O974 O 0.60931 0.58392 0.30019 0.0
O975 O 0.48468 0.47967 0.28735 0.0
O976 O 0.56354 0.49394 0.27588 0.0
O977 O 0.7121 0.54298 0.31209 0.0
O978 O 0.63914 0.49565 0.2925 0.0
C979 C 0.59695 0.41633 0.32738 0.0
C980 C 0.57075 0.6008 0.32791 0.0
C981 C 0.77641 0.57558 0.37344 0.0
C982 C 0.84473 0.59903 0.39726 0.0
C983 C 0.74583 0.57592 0.40212 0.0
C984 C 0.7338 0.5666 0.38514 0.0
C985 C 0.80049 0.59224 0.4081 0.0
C986 C 0.83235 0.59072 0.37968 0.0
C987 C 0.75988 0.56554 0.35515 0.0
C988 C 0.67797 0.71205 0.38507 0.0
C989 C 0.6344 0.6612 0.39215 0.0
H990 H 0.76008 0.80227 0.36781 0.0
C991 C 0.6645 0.61956 0.30058 0.0
C992 C 0.69329 0.51756 0.29727 0.0
C993 C 0.51766 0.53958 0.26305 0.0
C994 C 0.47586 0.59782 0.25348 0.0
C995 C 0.56671 0.61424 0.24207 0.0
C996 C 0.56434 0.57044 0.25214 0.0
C997 C 0.52269 0.62785 0.24267 0.0
C998 C 0.47355 0.5535 0.26357 0.0
C999 C 0.51496 0.49277 0.27364 0.0
H1000 H 0.71196 0.56897 0.41079 0.0
H1001 H 0.69023 0.55059 0.38126 0.0
H1002 H 0.80732 0.597 0.42149 0.0
H1003 H 0.86553 0.59552 0.37102 0.0
H1004 H 0.60292 0.63788 0.2338 0.0
H1005 H 0.59913 0.56082 0.25136 0.0
H1006 H 0.52556 0.66221 0.2348 0.0
H1007 H 0.43676 0.52899 0.27159 0.0
H1008 H 0.14166 0.67752 0.22889 0.0
H1009 H 0.97307 0.64257 0.24404 0.0
H1010 H 1.01225 0.68926 0.27113 0.0
H1011 H 0.09313 0.73113 0.29165 0.0
H1012 H 0.2615 0.76618 0.27598 0.0
H1013 H 0.22407 0.7293 0.24805 0.0
C1014 C 0.1136 0.6815 0.23794 0.0
C1015 C 1.05423 0.65682 0.23423 0.0
C1016 C 0.13657 0.70818 0.25354 0.0
C1017 C 1.01881 0.66199 0.24627 0.0
C1018 C 1.0413 0.68819 0.26189 0.0
C1019 C 0.12198 0.73165 0.28206 0.0
C1020 C 0.18052 0.75151 0.28617 0.0
C1021 C 0.0999 0.71019 0.26584 0.0
C1022 C 0.2168 0.75204 0.27336 0.0
C1023 C 0.19515 0.73042 0.25734 0.0
H1024 H 0.35506 0.13666 0.43587 0.0
H1025 H 0.53775 0.25566 0.43716 0.0
H1026 H 0.55266 0.19806 0.41618 0.0
H1027 H 0.51579 0.11317 0.39815 0.0
H1028 H 0.33399 0.99373 0.39549 0.0
H1029 H 0.31704 0.0525 0.41616 0.0
C1030 C 0.3983 0.15042 0.43159 0.0
C1031 C 0.4453 0.20121 0.43852 0.0
C1032 C 0.40684 0.11672 0.41925 0.0
C1033 C 0.50068 0.2169 0.43262 0.0
C1034 C 0.50927 0.18402 0.42041 0.0
C1035 C 0.47208 0.09969 0.4019 0.0
C1036 C 0.42621 0.04823 0.39512 0.0
C1037 C 0.46291 0.13367 0.41377 0.0
C1038 C 0.37021 1.03272 0.40028 0.0
C1039 C 0.36067 0.06635 0.41224 0.0
H1040 H 0.26311 0.41264 0.58902 0.0
H1041 H 0.39162 0.52647 0.62417 0.0
H1042 H 0.46541 0.51851 0.60812 0.0
H1043 H 0.49551 0.4867 0.58253 0.0
H1044 H 0.36759 0.38035 0.54632 0.0
H1045 H 0.29244 0.3786 0.56415 0.0
C1046 C 0.30725 0.4365 0.59324 0.0
C1047 C 0.32091 0.47132 0.60791 0.0
C1048 C 0.3502 0.4336 0.5835 0.0
C1049 C 0.37869 0.49927 0.61317 0.0
C1050 C 0.42134 0.49522 0.6038 0.0
C1051 C 0.4513 0.46351 0.57841 0.0
C1052 C 0.43807 0.43431 0.56276 0.0
C1053 C 0.40797 0.4639 0.58867 0.0
C1054 C 0.37981 0.4029 0.55815 0.0
C1055 C 0.3366 0.40232 0.56837 0.0
H1056 H 0.98324 0.42244 0.73171 0.0
H1057 H 0.13546 0.40701 0.73697 0.0
H1058 H 0.09198 0.34345 0.76122 0.0
H1059 H 1.01309 0.29672 0.78181 0.0
H1060 H 0.85981 0.31045 0.77592 0.0
H1061 H 0.90264 0.37208 0.7515 0.0
C1062 C 1.00697 0.4047 0.73798 0.0
C1063 C 0.0631 0.41991 0.7323 0.0
C1064 C 0.98172 0.36848 0.75203 0.0
C1065 C 0.09242 0.39606 0.74077 0.0
C1066 C 0.06756 0.36003 0.75479 0.0
C1067 C 0.98799 0.31191 0.77512 0.0
C1068 C 0.93204 0.29733 0.78099 0.0
C1069 C 1.01252 0.34652 0.76069 0.0
C1070 C 0.90252 0.32037 0.77213 0.0
C1071 C 0.9269 0.35527 0.75792 0.0
H1072 H 0.60054 0.98399 0.90207 0.0
H1073 H 0.7823 0.08218 0.892 0.0
H1074 H 0.79831 1.02012 0.91161 0.0
H1075 H 0.76012 0.93843 0.93214 0.0
H1076 H 0.57667 0.83841 0.93998 0.0
H1077 H 0.56269 0.90049 0.92055 0.0
C1078 C 0.64406 0.99236 0.90398 0.0
C1079 C 0.69027 1.03891 0.89539 0.0
C1080 C 0.65271 0.95604 0.91509 0.0
C1081 C 0.74577 0.04737 0.89824 0.0
C1082 C 0.75485 1.01173 0.90957 0.0
C1083 C 0.7168 0.92972 0.92968 0.0
C1084 C 0.66955 0.88287 0.93803 0.0
C1085 C 0.70859 0.96595 0.91818 0.0
C1086 C 0.61428 0.87409 0.93443 0.0
C1087 C 0.60606 0.90979 0.92317 0.0
H1088 H 0.83954 0.63219 0.08578 0.0
H1089 H 0.74789 0.62527 0.13085 0.0
H1090 H 0.67702 0.63627 0.1141 0.0
H1091 H 0.63913 0.64536 0.08626 0.0
H1092 H 0.73833 0.66313 0.04196 0.0
H1093 H 0.80763 0.65036 0.05874 0.0
C1094 C 0.80409 0.63293 0.0921 0.0
C1095 C 0.7998 0.62772 0.10982 0.0
C1096 C 0.76428 0.64089 0.08238 0.0
C1097 C 0.75248 0.62802 0.11739 0.0
C1098 C 0.71205 0.63489 0.10774 0.0
C1099 C 0.6764 0.64731 0.08029 0.0
C1100 C 0.68306 0.65526 0.06269 0.0
C1101 C 0.71726 0.64115 0.09019 0.0
C1102 C 0.73186 0.65761 0.05534 0.0
C1103 C 0.77139 0.64974 0.06498 0.0
H1104 H 0.44663 0.96069 0.62076 0.0
H1105 H 0.43515 0.11413 0.61163 0.0
H1106 H 0.37521 0.06795 0.58696 0.0
H1107 H 0.33012 0.9861 0.56728 0.0
H1108 H 0.33416 0.82918 0.57778 0.0
H1109 H 0.39565 0.87605 0.60203 0.0
C1110 C 0.43063 0.98413 0.61351 0.0
C1111 C 0.44571 1.04137 0.61829 0.0
C1112 C 0.39588 0.95702 0.5993 0.0
C1113 C 0.42402 0.07024 0.6086 0.0
C1114 C 0.39005 0.0438 0.59433 0.0
C1115 C 0.34286 0.96093 0.57497 0.0
C1116 C 0.32593 0.90286 0.5704 0.0
C1117 C 0.37614 0.9874 0.58947 0.0
C1118 C 0.34597 0.87341 0.58056 0.0
C1119 C 0.3809 0.90024 0.59463 0.0
H1120 H 0.38122 0.30496 0.73863 0.0
H1121 H 0.54898 0.32177 0.7456 0.0
H1122 H 0.56367 0.38257 0.77012 0.0
H1123 H 0.52997 0.43212 0.78941 0.0
H1124 H 0.36012 0.41003 0.78376 0.0
H1125 H 0.34452 0.34802 0.75927 0.0
C1126 C 0.42088 0.32055 0.74556 0.0
C1127 C 0.46363 0.30701 0.73997 0.0
C1128 C 0.42847 0.35437 0.76007 0.0
C1129 C 0.51525 0.33091 0.74913 0.0
C1130 C 0.52351 0.36553 0.76335 0.0
C1131 C 0.4889 0.41298 0.78308 0.0
C1132 C 0.44594 0.42575 0.78876 0.0
C1133 C 0.48046 0.37748 0.76895 0.0
C1134 C 0.39353 0.40055 0.78008 0.0
C1135 C 0.38502 0.36561 0.76588 0.0
H1136 H 0.14038 0.51545 0.95353 0.0
H1137 H 0.997 0.34327 0.94815 0.0
H1138 H 1.04484 0.32689 0.9243 0.0
H1139 H 0.12666 0.36177 0.90457 0.0
H1140 H 0.27038 0.53394 0.90999 0.0
H1141 H 0.22225 0.55024 0.93379 0.0
C1142 C 0.11944 0.47396 0.94728 0.0
C1143 C 0.06463 0.43032 0.95299 0.0
C1144 C 0.14715 0.46515 0.93331 0.0
C1145 C 1.03898 0.37734 0.94443 0.0
C1146 C 0.06633 0.36824 0.93061 0.0
C1147 C 0.14804 0.40304 0.91092 0.0
C1148 C 0.2032 0.44638 0.90527 0.0
C1149 C 0.12031 0.41189 0.92486 0.0
C1150 C 0.22835 0.49975 0.91368 0.0
C1151 C 0.20092 0.50889 0.92749 0.0
H1152 H 0.68921 0.12486 0.12679 0.0
H1153 H 0.70027 0.97197 0.11653 0.0
H1154 H 0.76125 1.01988 0.09215 0.0
H1155 H 0.80594 0.10263 0.0728 0.0
H1156 H 0.80105 0.25864 0.0842 0.0
H1157 H 0.74221 0.21151 0.10886 0.0
C1158 C 0.7064 0.10246 0.11954 0.0
C1159 C 0.69088 0.04482 0.12389 0.0
C1160 C 0.74151 0.13053 0.10548 0.0
C1161 C 0.71255 1.01646 0.11395 0.0
C1162 C 0.74676 0.04377 0.0998 0.0
C1163 C 0.79337 0.12745 0.08073 0.0
C1164 C 0.80946 0.18541 0.07633 0.0
C1165 C 0.76079 0.10049 0.09529 0.0
C1166 C 0.78979 0.21449 0.08683 0.0
C1167 C 0.75641 0.18753 0.10114 0.0
H1168 H 0.60603 0.67303 0.28994 0.0
H1169 H 0.76506 0.67245 0.28205 0.0
H1170 H 0.78541 0.73618 0.25776 0.0
H1171 H 0.75482 0.78652 0.23772 0.0
H1172 H 0.59719 0.7899 0.24645 0.0
H1173 H 0.57883 0.72901 0.2711 0.0
C1174 C 0.64589 0.68767 0.28314 0.0
C1175 C 0.68436 0.66805 0.2881 0.0
C1176 C 0.6569 0.72388 0.26907 0.0
C1177 C 0.73529 0.68744 0.27891 0.0
C1178 C 0.74641 0.72331 0.26482 0.0
C1179 C 0.71674 0.77517 0.24507 0.0
C1180 C 0.67769 0.7941 0.23992 0.0
C1181 C 0.70707 0.74105 0.25961 0.0
C1182 C 0.62797 0.77632 0.24967 0.0
C1183 C 0.61777 0.74187 0.264 0.0
H1184 H 1.04184 0.57591 0.4346 0.0
H1185 H 1.04192 0.70862 0.46533 0.0
H1186 H 0.9742 0.71542 0.44616 0.0
H1187 H 0.90725 0.67673 0.42207 0.0
H1188 H 0.90704 0.54387 0.39124 0.0
H1189 H 0.9838 0.54601 0.40848 0.0
C1190 C 1.02779 0.60707 0.43698 0.0
C1191 C 1.04761 0.64205 0.45154 0.0
C1192 C 0.98847 0.6106 0.42579 0.0
C1193 C 1.02871 0.68205 0.45425 0.0
C1194 C 0.98929 0.68543 0.44329 0.0
C1195 C 0.92446 0.64865 0.41893 0.0
C1196 C 0.90056 0.60986 0.40525 0.0
C1197 C 0.96786 0.64905 0.42921 0.0
C1198 C 0.92432 0.57447 0.40145 0.0
C1199 C 0.96772 0.57497 0.41154 0.0
H1200 H 0.58876 0.67517 0.3559 0.0
H1201 H 0.50497 0.63125 0.30796 0.0
H1202 H 0.47402 0.70289 0.31201 0.0
H1203 H 0.47135 0.7827 0.32907 0.0
H1204 H 0.54915 0.81908 0.37786 0.0
H1205 H 0.5812 0.7493 0.37344 0.0
C1206 C 0.56393 0.6809 0.34622 0.0
C1207 C 0.55037 0.64599 0.33144 0.0
C1208 C 0.54485 0.72277 0.34876 0.0
C1209 C 0.51688 0.65573 0.31949 0.0
C1210 C 0.49892 0.69759 0.32181 0.0
C1211 C 0.49479 0.77534 0.33889 0.0
C1212 C 0.50853 0.80978 0.35386 0.0
C1213 C 0.51248 0.73203 0.33641 0.0
C1214 C 0.53912 0.79697 0.36602 0.0
C1215 C 0.55725 0.75563 0.36354 0.0
H1216 H 0.78662 0.52161 0.53619 0.0
H1217 H 0.70903 0.44623 0.48892 0.0
H1218 H 0.80308 0.46607 0.47821 0.0
H1219 H 0.91147 0.50684 0.4817 0.0
H1220 H 0.98588 0.57678 0.52961 0.0
H1221 H 0.89277 0.55911 0.53994 0.0
C1222 C 0.78958 0.5093 0.52349 0.0
C1223 C 0.73782 0.48173 0.51363 0.0
C1224 C 0.8454 0.52108 0.5172 0.0
C1225 C 0.7457 0.46675 0.49721 0.0
C1226 C 0.8006 0.47854 0.49094 0.0
C1227 C 0.90783 0.51829 0.49446 0.0
C1228 C 0.95939 0.54633 0.5045 0.0
C1229 C 0.85147 0.50586 0.50072 0.0
C1230 C 0.95032 0.55908 0.52102 0.0
C1231 C 0.89565 0.54754 0.52714 0.0
H1232 H 0.40521 0.94764 0.68835 0.0
H1233 H 0.48382 0.90567 0.64793 0.0
H1234 H 0.41378 0.8034 0.65126 0.0
H1235 H 0.32667 0.72049 0.66581 0.0
H1236 H 0.25071 0.76577 0.70651 0.0
H1237 H 0.31953 0.86684 0.70266 0.0
C1238 C 0.4074 0.91685 0.68013 0.0
C1239 C 0.4522 0.93809 0.66777 0.0
C1240 C 0.36554 0.85577 0.68213 0.0
C1241 C 0.45192 0.89391 0.65768 0.0
C1242 C 0.4108 0.83396 0.65955 0.0
C1243 C 0.32448 0.75196 0.67389 0.0
C1244 C 0.28055 0.73152 0.68665 0.0
C1245 C 0.36671 0.81336 0.67176 0.0
C1246 C 0.28182 0.77643 0.69663 0.0
C1247 C 0.32223 0.83593 0.69444 0.0
H1248 H 0.5399 0.42112 0.8586 0.0
H1249 H 0.60742 0.45609 0.80857 0.0
H1250 H 0.6369 0.38292 0.81147 0.0
H1251 H 0.64313 0.30433 0.82826 0.0
H1252 H 0.58793 0.28229 0.87961 0.0
H1253 H 0.55446 0.35104 0.87598 0.0
C1254 C 0.56051 0.41278 0.84818 0.0
C1255 C 0.56918 0.44503 0.8331 0.0
C1256 C 0.57998 0.37097 0.85016 0.0
C1257 C 0.59844 0.43294 0.82028 0.0
C1258 C 0.61581 0.39038 0.82197 0.0
C1259 C 0.62443 0.31464 0.8388 0.0
C1260 C 0.61686 0.28389 0.85425 0.0
C1261 C 0.60695 0.35839 0.83687 0.0
C1262 C 0.59264 0.30094 0.86736 0.0
C1263 C 0.57378 0.34184 0.86536 0.0
H1264 H 0.20599 0.5748 0.98357 0.0
H1265 H 0.13275 0.50155 0.03137 0.0
H1266 H 0.22641 0.51917 0.04119 0.0
H1267 H 0.33239 0.55693 0.03701 0.0
H1268 H 0.40866 0.63537 0.98994 0.0
H1269 H 0.31418 0.6159 0.97969 0.0
C1270 C 0.21002 0.56274 0.99621 0.0
C1271 C 0.15876 0.53422 1.00635 0.0
C1272 C 0.26653 0.5748 1.00218 0.0
C1273 C 0.16823 0.52041 0.0227 0.0
C1274 C 0.22313 0.53161 0.02853 0.0
C1275 C 0.32908 0.56993 0.02444 0.0
C1276 C 0.38058 0.59818 0.01448 0.0
C1277 C 0.27308 0.5586 0.01847 0.0
C1278 C 0.3722 0.61414 0.99826 0.0
C1279 C 0.31709 0.60267 0.99228 0.0
H1280 H 0.80393 0.3681 0.16359 0.0
H1281 H 0.87458 0.32295 0.20562 0.0
H1282 H 0.80716 0.22201 0.20134 0.0
H1283 H 0.72414 0.1412 0.1864 0.0
H1284 H 0.64747 0.18233 0.14529 0.0
H1285 H 0.71788 0.28493 0.14854 0.0
C1286 C 0.80533 0.33665 0.17183 0.0
C1287 C 0.84767 0.35707 0.18506 0.0
C1288 C 0.7634 0.27525 0.16953 0.0
C1289 C 0.84517 0.31228 0.1953 0.0
C1290 C 0.80543 0.25284 0.19289 0.0
C1291 C 0.72238 0.17198 0.17801 0.0
C1292 C 0.67849 0.15076 0.1654 0.0
C1293 C 0.76373 0.23299 0.18014 0.0
C1294 C 0.67917 0.19453 0.15511 0.0
C1295 C 0.72029 0.2545 0.157 0.0
H1296 H 0.26351 0.50651 0.48712 0.0
H1297 H 0.32603 0.6542 0.51958 0.0
H1298 H 0.40539 0.63844 0.52834 0.0
H1299 H 0.46037 0.58245 0.52693 0.0
H1300 H 0.39202 0.43106 0.49566 0.0
H1301 H 0.31433 0.44836 0.4868 0.0
C1302 C 0.29399 0.53564 0.49618 0.0
C1303 C 0.28654 0.58243 0.50239 0.0
C1304 C 0.34018 0.52543 0.50154 0.0
C1305 C 0.32841 0.61807 0.51427 0.0
C1306 C 0.37471 0.60888 0.51935 0.0
C1307 C 0.42882 0.55296 0.51811 0.0
C1308 C 0.43475 0.50498 0.51202 0.0
C1309 C 0.38174 0.56273 0.51309 0.0
C1310 C 0.39102 0.46819 0.50077 0.0
C1311 C 0.3457 0.47828 0.49559 0.0
H1312 H 0.73622 0.33166 0.68076 0.0
H1313 H 0.77914 0.20801 0.66018 0.0
H1314 H 0.8803 0.27414 0.66489 0.0
H1315 H 0.96213 0.36914 0.67458 0.0
H1316 H 0.92266 0.4939 0.69575 0.0
H1317 H 0.81999 0.42772 0.69129 0.0
C1318 C 0.76709 0.31825 0.67745 0.0
C1319 C 0.7461 0.26205 0.66988 0.0
C1320 C 0.82864 0.3583 0.68024 0.0
C1321 C 0.79042 0.24921 0.66581 0.0
C1322 C 0.8499 0.28785 0.66854 0.0
C1323 C 0.93169 0.38281 0.67811 0.0
C1324 C 0.95363 0.43919 0.68543 0.0
C1325 C 0.87045 0.34308 0.67561 0.0
C1326 C 0.91017 0.45253 0.69004 0.0
C1327 C 0.85006 0.41381 0.68748 0.0
H1328 H 0.60084 0.94846 0.82869 0.0
H1329 H 0.54211 0.91788 0.87963 0.0
H1330 H 0.51329 0.81562 0.87663 0.0
H1331 H 0.50382 0.73036 0.85933 0.0
H1332 H 0.5513 0.76216 0.80734 0.0
H1333 H 0.5849 0.8639 0.81112 0.0
C1334 C 0.58231 0.92001 0.83928 0.0
C1335 C 0.57559 0.9439 0.85461 0.0
C1336 C 0.56331 0.85904 0.83728 0.0
C1337 C 0.54924 0.90331 0.8677 0.0
C1338 C 0.5323 0.84366 0.86596 0.0
C1339 C 0.52117 0.75904 0.84871 0.0
C1340 C 0.52593 0.7354 0.83296 0.0
C1341 C 0.53884 0.82012 0.85076 0.0
C1342 C 0.54826 0.77622 0.81976 0.0
C1343 C 0.56735 0.8358 0.82186 0.0
H1344 H 0.6587 0.50055 0.0296 0.0
H1345 H 0.72239 0.64637 0.99632 0.0
H1346 H 0.80023 0.62927 0.9877 0.0
H1347 H 0.85359 0.57358 0.98887 0.0
H1348 H 0.79377 0.42912 0.02243 0.0
H1349 H 0.71451 0.44504 0.03118 0.0
C1350 C 0.68913 0.52877 0.02036 0.0
C1351 C 0.68177 0.57531 0.01371 0.0
C1352 C 0.73627 0.51881 0.01531 0.0
C1353 C 0.72427 0.61038 1.0019 0.0
C1354 C 0.76984 0.60044 0.99685 0.0
C1355 C 0.82351 0.54497 0.99813 0.0
C1356 C 0.83199 0.49919 1.00469 0.0
C1357 C 0.77684 0.55485 1.00335 0.0
C1358 C 0.7907 0.46444 0.01683 0.0
C1359 C 0.74439 0.47375 0.02191 0.0
H1360 H 0.38543 0.74362 0.1761 0.0
H1361 H 0.34481 0.87812 0.16613 0.0
H1362 H 0.24426 0.81262 0.1717 0.0
H1363 H 0.16345 0.71622 0.18018 0.0
H1364 H 0.1996 0.57928 0.19061 0.0
H1365 H 0.30193 0.64467 0.18488 0.0
C1366 C 0.35505 0.75918 0.17516 0.0
C1367 C 0.37602 0.81824 0.17007 0.0
C1368 C 0.29413 0.71952 0.17868 0.0
C1369 C 0.33289 0.8344 0.16928 0.0
C1370 C 0.27399 0.79623 0.17271 0.0
C1371 C 0.1928 0.69947 0.18072 0.0
C1372 C 0.17045 0.64027 0.18543 0.0
C1373 C 0.25328 0.7383 0.17732 0.0
C1374 C 0.21275 0.62311 0.1869 0.0
C1375 C 0.27245 0.66124 0.18357 0.0
H1376 H 0.615 0.36159 0.35659 0.0
H1377 H 0.54028 0.3206 0.30735 0.0
H1378 H 0.50717 0.21925 0.31194 0.0
H1379 H 0.4996 0.13775 0.32946 0.0
H1380 H 0.58353 0.17753 0.37735 0.0
H1381 H 0.61183 0.27926 0.3737 0.0
C1382 C 0.59143 0.33089 0.34678 0.0
C1383 C 0.5796 0.3519 0.33156 0.0
C1384 C 0.5737 0.27008 0.34926 0.0
C1385 C 0.54952 0.30868 0.31933 0.0
C1386 C 0.53056 0.24931 0.32191 0.0
C1387 C 0.52365 0.1681 0.33924 0.0
C1388 C 0.53772 0.14694 0.35394 0.0
C1389 C 0.54214 0.22876 0.3368 0.0
C1390 C 0.57062 0.18988 0.36597 0.0
C1391 C 0.58731 0.24926 0.36384 0.0
H1392 H 0.31697 0.77163 0.45905 0.0
H1393 H 0.19102 0.6331 0.4288 0.0
H1394 H 0.23864 0.68643 0.4034 0.0
H1395 H 0.3173 0.7745 0.38912 0.0
H1396 H 0.44567 0.90865 0.42008 0.0
H1397 H 0.39658 0.85613 0.44509 0.0
C1398 C 0.2999 0.75265 0.44694 0.0
C1399 C 0.24994 0.6975 0.44622 0.0
C1400 C 0.32827 0.78355 0.43213 0.0
C1401 C 0.22938 0.67474 0.43011 0.0
C1402 C 0.25666 0.70565 0.41541 0.0
C1403 C 0.33455 0.79239 0.40131 0.0
C1404 C 0.38593 0.84666 0.4023 0.0
C1405 C 0.3063 0.76046 0.41614 0.0
C1406 C 0.40687 0.86768 0.41851 0.0
C1407 C 0.37855 0.83735 0.43304 0.0
H1408 H 0.63318 0.34322 0.5613 0.0
H1409 H 0.55155 0.42486 0.58729 0.0
H1410 H 0.54471 0.37002 0.61261 0.0
H1411 H 0.55906 0.2953 0.62753 0.0
H1412 H 0.64673 0.21925 0.60152 0.0
H1413 H 0.6528 0.27369 0.57655 0.0
C1414 C 0.61363 0.34892 0.57245 0.0
C1415 C 0.5925 0.38832 0.57208 0.0
C1416 C 0.61053 0.31749 0.58722 0.0
C1417 C 0.56863 0.39554 0.587 0.0
C1418 C 0.56439 0.36371 0.60156 0.0
C1419 C 0.58008 0.29092 0.6165 0.0
C1420 C 0.60188 0.25182 0.6168 0.0
C1421 C 0.58491 0.32411 0.60189 0.0
C1422 C 0.62895 0.24788 0.60207 0.0
C1423 C 0.63261 0.2794 0.58758 0.0
H1424 H 0.43384 0.57661 0.7642 0.0
H1425 H 0.32448 0.57044 0.80464 0.0
H1426 H 0.25611 0.57142 0.78454 0.0
H1427 H 0.22533 0.5729 0.75516 0.0
H1428 H 0.33181 0.57288 0.71473 0.0
H1429 H 0.40187 0.5755 0.73484 0.0
C1430 C 0.39526 0.57581 0.7687 0.0
C1431 C 0.3854 0.57391 0.78622 0.0
C1432 C 0.35485 0.57523 0.75689 0.0
C1433 C 0.33412 0.57199 0.79145 0.0
C1434 C 0.29466 0.57261 0.77985 0.0
C1435 C 0.26405 0.57394 0.75068 0.0
C1436 C 0.27278 0.57335 0.73315 0.0
C1437 C 0.30428 0.57416 0.76249 0.0
C1438 C 0.32323 0.57355 0.72793 0.0
C1439 C 0.36367 0.57504 0.73953 0.0
H1440 H 0.68677 0.22127 0.92114 0.0
H1441 H 0.81644 0.29868 0.88292 0.0
H1442 H 0.88298 0.36779 0.90328 0.0
H1443 H 0.90666 0.40647 0.93244 0.0
H1444 H 0.77802 0.3263 0.97077 0.0
H1445 H 0.7103 0.25971 0.95016 0.0
C1446 C 0.72945 0.25332 0.91715 0.0
C1447 C 0.74557 0.25389 0.90017 0.0
C1448 C 0.76847 0.29328 0.92913 0.0
C1449 C 0.80183 0.29622 0.89567 0.0
C1450 C 0.84032 0.33622 0.90741 0.0
C1451 C 0.86359 0.37499 0.93629 0.0
C1452 C 0.84802 0.37259 0.95339 0.0
C1453 C 0.82443 0.33534 0.92425 0.0
C1454 C 0.7919 0.33011 0.95789 0.0
C1455 C 0.75284 0.29157 0.94602 0.0
H1456 H 0.48936 0.85418 0.10186 0.0
H1457 H 0.58224 0.80794 0.13693 0.0
H1458 H 0.5855 0.74152 0.11654 0.0
H1459 H 0.5646 0.69673 0.08811 0.0
H1460 H 0.47047 0.74142 0.05324 0.0
H1461 H 0.46572 0.80704 0.07376 0.0
C1462 C 0.51006 0.82942 0.10517 0.0
C1463 C 0.53535 0.837 0.12128 0.0
C1464 C 0.51207 0.79055 0.09316 0.0
C1465 C 0.5621 0.80392 0.12489 0.0
C1466 C 0.56411 0.7655 0.11312 0.0
C1467 C 0.5425 0.72034 0.08502 0.0
C1468 C 0.51882 0.71426 0.06877 0.0
C1469 C 0.53951 0.75837 0.09713 0.0
C1470 C 0.49063 0.74589 0.06528 0.0
C1471 C 0.48744 0.78337 0.07717 0.0
H1472 H 0.68648 0.50731 0.26254 0.0
H1473 H 0.79862 0.52641 0.30365 0.0
H1474 H 0.86823 0.52471 0.2841 0.0
H1475 H 0.89907 0.51855 0.255 0.0
H1476 H 0.78996 0.50674 0.21384 0.0
H1477 H 0.71877 0.50471 0.23346 0.0
C1478 C 0.72598 0.51083 0.26732 0.0
C1479 C 0.73621 0.51647 0.28486 0.0
C1480 C 0.76705 0.51106 0.25582 0.0
C1481 C 0.78867 0.52192 0.29043 0.0
C1482 C 0.82882 0.52085 0.27916 0.0
C1483 C 0.8595 0.51499 0.25027 0.0
C1484 C 0.85029 0.51197 0.23269 0.0
C1485 C 0.81872 0.51542 0.26178 0.0
C1486 C 0.79886 0.50881 0.2271 0.0
C1487 C 0.7578 0.50768 0.23841 0.0
H1488 H 0.87443 0.34709 0.45296 0.0
H1489 H 0.84764 0.4272 0.40952 0.0
H1490 H 0.74555 0.35585 0.40986 0.0
H1491 H 0.66953 0.25981 0.41921 0.0
H1492 H 0.69754 0.18276 0.4629 0.0
H1493 H 0.79372 0.26592 0.46624 0.0
C1494 C 0.84641 0.35101 0.44393 0.0
C1495 C 0.86942 0.39136 0.43084 0.0
C1496 C 0.78798 0.31015 0.44423 0.0
C1497 C 0.8316 0.39503 0.41932 0.0
C1498 C 0.77313 0.35445 0.41955 0.0
C1499 C 0.6962 0.26263 0.42978 0.0
C1500 C 0.67762 0.2158 0.44074 0.0
C1501 C 0.75162 0.30997 0.43139 0.0
C1502 C 0.71166 0.21887 0.4544 0.0
C1503 C 0.76661 0.26603 0.4562 0.0
H1504 H 0.62711 0.97493 0.55979 0.0
H1505 H 0.44348 0.89904 0.56295 0.0
H1506 H 0.43161 0.80386 0.55667 0.0
H1507 H 0.47534 0.74121 0.55671 0.0
H1508 H 0.66015 0.81894 0.55611 0.0
H1509 H 0.66991 0.91432 0.55454 0.0
C1510 C 0.58451 0.93765 0.55861 0.0
C1511 C 0.53623 0.94288 0.56246 0.0
C1512 C 0.57847 0.88333 0.55571 0.0
C1513 C 0.48112 0.89523 0.56044 0.0
C1514 C 0.47448 0.84092 0.55698 0.0
C1515 C 0.51763 0.77909 0.55597 0.0
C1516 C 0.5669 0.77317 0.55691 0.0
C1517 C 0.52308 0.83409 0.55569 0.0
C1518 C 0.6215 0.82229 0.55545 0.0
C1519 C 0.62721 0.87697 0.55467 0.0
H1520 H 0.76936 0.57542 0.78205 0.0
H1521 H 0.66852 0.40462 0.76117 0.0
H1522 H 0.74993 0.38788 0.76453 0.0
H1523 H 0.8543 0.42844 0.7694 0.0
H1524 H 0.95266 0.59971 0.78979 0.0
H1525 H 0.86628 0.60856 0.79146 0.0
C1526 C 0.76386 0.53351 0.7788 0.0
C1527 C 0.71292 0.49172 0.77112 0.0
C1528 C 0.81051 0.52431 0.78073 0.0
C1529 C 0.70773 0.43822 0.76671 0.0
C1530 C 0.75414 0.42847 0.76872 0.0
C1531 C 0.856 0.46669 0.77473 0.0
C1532 C 0.90911 0.51355 0.77942 0.0
C1533 C 0.80648 0.47215 0.7751 0.0
C1534 C 0.91179 0.56336 0.78615 0.0
C1535 C 0.86266 0.56853 0.78697 0.0
H1536 H 0.34737 0.87657 0.90778 0.0
H1537 H 0.44603 0.801 0.92693 0.0
H1538 H 0.36231 0.70464 0.92394 0.0
H1539 H 0.25777 0.644 0.91931 0.0
H1540 H 0.16094 0.72212 0.90094 0.0
H1541 H 0.2485 0.81575 0.89933 0.0
C1542 C 0.35151 0.83915 0.91079 0.0
C1543 C 0.40279 0.84608 0.91771 0.0
C1544 C 0.30359 0.78441 0.90907 0.0
C1545 C 0.40662 0.79687 0.92189 0.0
C1546 C 0.35894 0.74182 0.92009 0.0
C1547 C 0.25655 0.68132 0.91445 0.0
C1548 C 0.20368 0.67692 0.91023 0.0
C1549 C 0.3067 0.73528 0.91418 0.0
C1550 C 0.20166 0.72515 0.90416 0.0
C1551 C 0.25145 0.77853 0.9034 0.0
H1552 H 0.643 0.23864 0.06512 0.0
H1553 H 0.64934 0.22955 0.11883 0.0
H1554 H 0.65799 0.32459 0.12135 0.0
H1555 H 0.64063 0.39719 0.10856 0.0
H1556 H 0.63908 0.41033 0.05475 0.0
H1557 H 0.65216 0.32645 0.05202 0.0
C1558 C 0.64838 0.25835 0.07733 0.0
C1559 C 0.64315 0.22635 0.09181 0.0
C1560 C 0.65266 0.31281 0.07869 0.0
C1561 C 0.6511 0.25271 0.10755 0.0
C1562 C 0.65603 0.30699 0.10899 0.0
C1563 C 0.64538 0.38361 0.09618 0.0
C1564 C 0.63622 0.40875 0.08189 0.0
C1565 C 0.6532 0.33566 0.09468 0.0
C1566 C 0.64309 0.39011 0.06601 0.0
C1567 C 0.65096 0.34231 0.06441 0.0
H1568 H 0.41999 0.60657 0.28068 0.0
H1569 H 0.42385 0.61695 0.22683 0.0
H1570 H 0.33593 0.62322 0.22698 0.0
H1571 H 0.2519 0.61316 0.24213 0.0
H1572 H 0.24396 0.59424 0.29579 0.0
H1573 H 0.33991 0.60496 0.29603 0.0
C1574 C 0.40164 0.61044 0.26899 0.0
C1575 C 0.42774 0.61026 0.25376 0.0
C1576 C 0.35023 0.61225 0.26914 0.0
C1577 C 0.40457 0.617 0.23872 0.0
C1578 C 0.35406 0.62014 0.23879 0.0
C1579 C 0.27132 0.61162 0.25388 0.0
C1580 C 0.24047 0.60184 0.26888 0.0
C1581 C 0.32556 0.6158 0.25388 0.0
C1582 C 0.26678 0.60173 0.28407 0.0
C1583 C 0.32144 0.60733 0.28421 0.0
loop_
_geom_bond_atom_site_label_1
_geom_bond_atom_site_label_2
_geom_bond_distance
_geom_bond_site_symmetry_2
_ccdc_geom_bond_type
C0 C2 1.422 . S
C0 C4 1.415 . S
C0 N6 1.369 . S
C1 C2 1.421 . S
C1 C3 1.417 . S
C1 C13 1.422 1_565 S
C2 C0 1.422 . S
C2 C1 1.421 . S
C2 N12 1.359 1_565 S
C3 C1 1.417 . S
C3 C5 1.329 . S
C3 H22 0.930 . S
C4 C0 1.415 . S
C4 C5 1.437 . S
C4 C8 1.413 . S
C5 C3 1.329 . S
C5 C4 1.437 . S
C5 H27 0.929 . S
N6 C0 1.369 . S
N6 C7 1.338 . S
N6 Gd11 2.622 1_565 S
C7 N6 1.338 . S
C7 C9 1.378 . S
C7 H19 0.929 . S
C8 C4 1.413 . S
C8 C9 1.348 . S
C8 H24 0.931 . S
C9 C7 1.378 . S
C9 C8 1.348 . S
C9 H25 0.930 . S
Gd10 N30 2.622 1_565 S
Gd10 N37 2.570 . S
Gd10 O44 2.353 . S
Gd10 O45 2.468 . S
Gd10 O46 2.427 . S
Gd10 O48 2.388 1_565 S
Gd10 O49 2.386 1_565 S
Gd10 O53 2.307 . S
Gd10 C63 2.805 . S
Gd11 N6 2.622 1_545 S
Gd11 N12 2.570 . S
Gd11 O43 2.386 1_545 S
Gd11 O47 2.307 . S
Gd11 O50 2.353 . S
Gd11 O51 2.468 . S
Gd11 O52 2.427 . S
Gd11 O54 2.388 1_545 S
Gd11 C75 2.805 . S
N12 C2 1.359 1_545 S
N12 Gd11 2.570 . S
N12 C14 1.343 . S
C13 C1 1.422 1_545 S
C13 C15 1.321 . S
C13 H21 0.931 . S
C14 N12 1.343 . S
C14 C15 1.390 . S
C14 H16 0.931 . S
C15 C13 1.321 . S
C15 C14 1.390 . S
C15 H17 0.930 . S
H16 C14 0.931 . S
H17 C15 0.930 . S
H18 C41 0.931 . S
H19 C7 0.929 . S
H20 C42 0.930 . S
H21 C13 0.931 . S
H22 C3 0.930 . S
H23 C32 0.929 . S
H24 C8 0.931 . S
H25 C9 0.930 . S
H26 C64 0.930 . S
H27 C5 0.929 . S
H28 C33 0.931 . S
H29 C34 0.930 . S
N30 Gd10 2.622 1_545 S
N30 C31 1.369 . S
N30 C32 1.338 . S
C31 N30 1.369 . S
C31 C35 1.415 . S
C31 C38 1.422 . S
C32 H23 0.929 . S
C32 N30 1.338 . S
C32 C34 1.378 . S
C33 H28 0.931 . S
C33 C34 1.348 . S
C33 C35 1.413 . S
C34 H29 0.930 . S
C34 C32 1.378 . S
C34 C33 1.348 . S
C35 C31 1.415 . S
C35 C33 1.413 . S
C35 C65 1.437 . S
H36 C65 0.929 . S
N37 Gd10 2.570 . S
N37 C38 1.359 1_565 S
N37 C41 1.343 . S
C38 C31 1.422 . S
C38 N37 1.359 1_545 S
C38 C40 1.421 . S
C39 C40 1.422 1_565 S
C39 C42 1.321 . S
C39 H66 0.931 . S
C40 C38 1.421 . S
C40 C39 1.422 1_545 S
C40 C64 1.417 . S
C41 H18 0.931 . S
C41 N37 1.343 . S
C41 C42 1.390 . S
C42 H20 0.930 . S
C42 C39 1.321 . S
C42 C41 1.390 . S
O43 Gd11 2.386 1_565 S
O43 C55 1.265 . S
O44 Gd10 2.353 . S
O44 C55 1.242 . S
O45 Gd10 2.468 . S
O45 C63 1.263 . S
O46 Gd10 2.427 . S
O46 C63 1.252 . S
O47 Gd11 2.307 . S
O47 C56 1.261 . S
O48 Gd10 2.388 1_545 S
O48 C56 1.252 . S
O49 Gd10 2.386 1_545 S
O49 C67 1.265 . S
O50 Gd11 2.353 . S
O50 C67 1.242 . S
O51 Gd11 2.468 . S
O51 C75 1.263 . S
O52 Gd11 2.427 . S
O52 C75 1.252 . S
O53 Gd10 2.307 . S
O53 C68 1.261 . S
O54 Gd11 2.388 1_565 S
O54 C68 1.252 . S
C55 O43 1.265 . S
C55 O44 1.242 . S
C56 O47 1.261 . S
C56 O48 1.252 . S
C57 C60 1.394 . S
C57 C62 1.370 . S
C57 C63 1.500 . S
C58 C61 1.383 . S
C58 C62 1.395 . S
C59 C60 1.396 . S
C59 C61 1.365 . S
C59 H76 0.929 . S
C60 C57 1.394 . S
C60 C59 1.396 . S
C60 H77 0.930 . S
C61 C58 1.383 . S
C61 C59 1.365 . S
C61 H78 0.931 . S
C62 C57 1.370 . S
C62 C58 1.395 . S
C62 H79 0.930 . S
C63 Gd10 2.805 . S
C63 O45 1.263 . S
C63 O46 1.252 . S
C63 C57 1.500 . S
C64 H26 0.930 . S
C64 C40 1.417 . S
C64 C65 1.329 . S
C65 C35 1.437 . S
C65 H36 0.929 . S
C65 C64 1.329 . S
H66 C39 0.931 . S
C67 O49 1.265 . S
C67 O50 1.242 . S
C68 O53 1.261 . S
C68 O54 1.252 . S
C69 C72 1.394 . S
C69 C74 1.370 . S
C69 C75 1.500 . S
C70 C73 1.383 . S
C70 C74 1.395 . S
C71 C72 1.396 . S
C71 C73 1.365 . S
C71 H80 0.929 . S
C72 C69 1.394 . S
C72 C71 1.396 . S
C72 H81 0.930 . S
C73 C70 1.383 . S
C73 C71 1.365 . S
C73 H82 0.931 . S
C74 C69 1.370 . S
C74 C70 1.395 . S
C74 H83 0.930 . S
C75 Gd11 2.805 . S
C75 O51 1.263 . S
C75 O52 1.252 . S
C75 C69 1.500 . S
H76 C59 0.929 . S
H77 C60 0.930 . S
H78 C61 0.931 . S
H79 C62 0.930 . S
H80 C71 0.929 . S
H81 C72 0.930 . S
H82 C73 0.931 . S
H83 C74 0.930 . S
C84 C86 1.422 . S
C84 C88 1.415 . S
C84 N90 1.369 . S
C85 C86 1.421 . S
C85 C87 1.417 . S
C85 C97 1.422 . S
C86 C84 1.422 . S
C86 C85 1.421 . S
C86 N96 1.359 . S
C87 C85 1.417 . S
C87 C89 1.329 . S
C87 H106 0.930 . S
C88 C84 1.415 . S
C88 C89 1.437 . S
C88 C92 1.413 . S
C89 C87 1.329 . S
C89 C88 1.437 . S
C89 H111 0.929 . S
N90 C84 1.369 . S
N90 C91 1.338 . S
N90 Gd95 2.622 . S
C91 N90 1.338 . S
C91 C93 1.378 . S
C91 H103 0.929 . S
C92 C88 1.413 . S
C92 C93 1.348 . S
C92 H108 0.931 . S
C93 C91 1.378 . S
C93 C92 1.348 . S
C93 H109 0.930 . S
Gd94 N114 2.622 . S
Gd94 N121 2.570 . S
Gd94 O128 2.353 . S
Gd94 O129 2.468 . S
Gd94 O130 2.427 . S
Gd94 O132 2.388 . S
Gd94 O133 2.386 . S
Gd94 O137 2.307 . S
Gd94 C147 2.805 . S
Gd95 N90 2.622 . S
Gd95 N96 2.570 . S
Gd95 O127 2.386 . S
Gd95 O131 2.307 . S
Gd95 O134 2.353 . S
Gd95 O135 2.468 . S
Gd95 O136 2.427 . S
Gd95 O138 2.388 . S
Gd95 C159 2.805 . S
N96 C86 1.359 . S
N96 Gd95 2.570 . S
N96 C98 1.343 . S
C97 C85 1.422 . S
C97 C99 1.321 . S
C97 H105 0.931 . S
C98 N96 1.343 . S
C98 C99 1.390 . S
C98 H100 0.931 . S
C99 C97 1.321 . S
C99 C98 1.390 . S
C99 H101 0.930 . S
H100 C98 0.931 . S
H101 C99 0.930 . S
H102 C125 0.931 . S
H103 C91 0.929 . S
H104 C126 0.930 . S
H105 C97 0.931 . S
H106 C87 0.930 . S
H107 C116 0.929 . S
H108 C92 0.931 . S
H109 C93 0.930 . S
H110 C148 0.930 . S
H111 C89 0.929 . S
H112 C117 0.931 . S
H113 C118 0.930 . S
N114 Gd94 2.622 . S
N114 C115 1.369 . S
N114 C116 1.338 . S
C115 N114 1.369 . S
C115 C119 1.415 . S
C115 C122 1.422 . S
C116 H107 0.929 . S
C116 N114 1.338 . S
C116 C118 1.378 . S
C117 H112 0.931 . S
C117 C118 1.348 . S
C117 C119 1.413 . S
C118 H113 0.930 . S
C118 C116 1.378 . S
C118 C117 1.348 . S
C119 C115 1.415 . S
C119 C117 1.413 . S
C119 C149 1.437 . S
H120 C149 0.929 . S
N121 Gd94 2.570 . S
N121 C122 1.359 . S
N121 C125 1.343 . S
C122 C115 1.422 . S
C122 N121 1.359 . S
C122 C124 1.421 . S
C123 C124 1.422 . S
C123 C126 1.321 . S
C123 H150 0.931 . S
C124 C122 1.421 . S
C124 C123 1.422 . S
C124 C148 1.417 . S
C125 H102 0.931 . S
C125 N121 1.343 . S
C125 C126 1.390 . S
C126 H104 0.930 . S
C126 C123 1.321 . S
C126 C125 1.390 . S
O127 Gd95 2.386 . S
O127 C139 1.265 . S
O128 Gd94 2.353 . S
O128 C139 1.242 . S
O129 Gd94 2.468 . S
O129 C147 1.263 . S
O130 Gd94 2.427 . S
O130 C147 1.252 . S
O131 Gd95 2.307 . S
O131 C140 1.261 . S
O132 Gd94 2.388 . S
O132 C140 1.252 . S
O133 Gd94 2.386 . S
O133 C151 1.265 . S
O134 Gd95 2.353 . S
O134 C151 1.242 . S
O135 Gd95 2.468 . S
O135 C159 1.263 . S
O136 Gd95 2.427 . S
O136 C159 1.252 . S
O137 Gd94 2.307 . S
O137 C152 1.261 . S
O138 Gd95 2.388 . S
O138 C152 1.252 . S
C139 O127 1.265 . S
C139 O128 1.242 . S
C140 O131 1.261 . S
C140 O132 1.252 . S
C141 C144 1.394 . S
C141 C146 1.370 . S
C141 C147 1.500 . S
C142 C145 1.383 . S
C142 C146 1.395 . S
C143 C144 1.396 . S
C143 C145 1.365 . S
C143 H160 0.929 . S
C144 C141 1.394 . S
C144 C143 1.396 . S
C144 H161 0.930 . S
C145 C142 1.383 . S
C145 C143 1.365 . S
C145 H162 0.931 . S
C146 C141 1.370 . S
C146 C142 1.395 . S
C146 H163 0.930 . S
C147 Gd94 2.805 . S
C147 O129 1.263 . S
C147 O130 1.252 . S
C147 C141 1.500 . S
C148 H110 0.930 . S
C148 C124 1.417 . S
C148 C149 1.329 . S
C149 C119 1.437 . S
C149 H120 0.929 . S
C149 C148 1.329 . S
H150 C123 0.931 . S
C151 O133 1.265 . S
C151 O134 1.242 . S
C152 O137 1.261 . S
C152 O138 1.252 . S
C153 C156 1.394 . S
C153 C158 1.370 . S
C153 C159 1.500 . S
C154 C157 1.383 . S
C154 C158 1.395 . S
C155 C156 1.396 . S
C155 C157 1.365 . S
C155 H164 0.929 . S
C156 C153 1.394 . S
C156 C155 1.396 . S
C156 H165 0.930 . S
C157 C154 1.383 . S
C157 C155 1.365 . S
C157 H166 0.931 . S
C158 C153 1.370 . S
C158 C154 1.395 . S
C158 H167 0.930 . S
C159 Gd95 2.805 . S
C159 O135 1.263 . S
C159 O136 1.252 . S
C159 C153 1.500 . S
H160 C143 0.929 . S
H161 C144 0.930 . S
H162 C145 0.931 . S
H163 C146 0.930 . S
H164 C155 0.929 . S
H165 C156 0.930 . S
H166 C157 0.931 . S
H167 C158 0.930 . S
C168 C170 1.422 . S
C168 C172 1.415 . S
C168 N174 1.369 . S
C169 C170 1.421 . S
C169 C171 1.417 . S
C169 C181 1.422 1_455 S
C170 C168 1.422 . S
C170 C169 1.421 . S
C170 N180 1.359 1_455 S
C171 C169 1.417 . S
C171 C173 1.329 . S
C171 H190 0.930 . S
C172 C168 1.415 . S
C172 C173 1.437 . S
C172 C176 1.413 . S
C173 C171 1.329 . S
C173 C172 1.437 . S
C173 H195 0.929 . S
N174 C168 1.369 . S
N174 C175 1.338 . S
N174 Gd179 2.622 1_455 S
C175 N174 1.338 . S
C175 C177 1.378 . S
C175 H187 0.929 . S
C176 C172 1.413 . S
C176 C177 1.348 . S
C176 H192 0.931 . S
C177 C175 1.378 . S
C177 C176 1.348 . S
C177 H193 0.930 . S
Gd178 N198 2.622 1_455 S
Gd178 N205 2.570 . S
Gd178 O212 2.353 . S
Gd178 O213 2.468 . S
Gd178 O214 2.427 . S
Gd178 O216 2.388 1_455 S
Gd178 O217 2.386 1_455 S
Gd178 O221 2.307 . S
Gd178 C231 2.805 . S
Gd179 N174 2.622 1_655 S
Gd179 N180 2.570 . S
Gd179 O211 2.386 1_655 S
Gd179 O215 2.307 . S
Gd179 O218 2.353 . S
Gd179 O219 2.468 . S
Gd179 O220 2.427 . S
Gd179 O222 2.388 1_655 S
Gd179 C243 2.805 . S
N180 C170 1.359 1_655 S
N180 Gd179 2.570 . S
N180 C182 1.343 . S
C181 C169 1.422 1_655 S
C181 C183 1.321 . S
C181 H189 0.931 . S
C182 N180 1.343 . S
C182 C183 1.390 . S
C182 H184 0.931 . S
C183 C181 1.321 . S
C183 C182 1.390 . S
C183 H185 0.930 . S
H184 C182 0.931 . S
H185 C183 0.930 . S
H186 C209 0.931 . S
H187 C175 0.929 . S
H188 C210 0.930 . S
H189 C181 0.931 . S
H190 C171 0.930 . S
H191 C200 0.929 . S
H192 C176 0.931 . S
H193 C177 0.930 . S
H194 C232 0.930 . S
H195 C173 0.929 . S
H196 C201 0.931 . S
H197 C202 0.930 . S
N198 Gd178 2.622 1_655 S
N198 C199 1.369 . S
N198 C200 1.338 . S
C199 N198 1.369 . S
C199 C203 1.415 . S
C199 C206 1.422 . S
C200 H191 0.929 . S
C200 N198 1.338 . S
C200 C202 1.378 . S
C201 H196 0.931 . S
C201 C202 1.348 . S
C201 C203 1.413 . S
C202 H197 0.930 . S
C202 C200 1.378 . S
C202 C201 1.348 . S
C203 C199 1.415 . S
C203 C201 1.413 . S
C203 C233 1.437 . S
H204 C233 0.929 . S
N205 Gd178 2.570 . S
N205 C206 1.359 1_455 S
N205 C209 1.343 . S
C206 C199 1.422 . S
C206 N205 1.359 1_655 S
C206 C208 1.421 . S
C207 C208 1.422 1_455 S
C207 C210 1.321 . S
C207 H234 0.931 . S
C208 C206 1.421 . S
C208 C207 1.422 1_655 S
C208 C232 1.417 . S
C209 H186 0.931 . S
C209 N205 1.343 . S
C209 C210 1.390 . S
C210 H188 0.930 . S
C210 C207 1.321 . S
C210 C209 1.390 . S
O211 Gd179 2.386 1_455 S
O211 C223 1.265 . S
O212 Gd178 2.353 . S
O212 C223 1.242 . S
O213 Gd178 2.468 . S
O213 C231 1.263 . S
O214 Gd178 2.427 . S
O214 C231 1.252 . S
O215 Gd179 2.307 . S
O215 C224 1.261 . S
O216 Gd178 2.388 1_655 S
O216 C224 1.252 . S
O217 Gd178 2.386 1_655 S
O217 C235 1.265 . S
O218 Gd179 2.353 . S
O218 C235 1.242 . S
O219 Gd179 2.468 . S
O219 C243 1.263 . S
O220 Gd179 2.427 . S
O220 C243 1.252 . S
O221 Gd178 2.307 . S
O221 C236 1.261 . S
O222 Gd179 2.388 1_455 S
O222 C236 1.252 . S
C223 O211 1.265 . S
C223 O212 1.242 . S
C224 O215 1.261 . S
C224 O216 1.252 . S
C225 C228 1.394 . S
C225 C230 1.370 . S
C225 C231 1.500 . S
C226 C229 1.383 . S
C226 C230 1.395 . S
C227 C228 1.396 . S
C227 C229 1.365 . S
C227 H244 0.929 . S
C228 C225 1.394 . S
C228 C227 1.396 . S
C228 H245 0.930 . S
C229 C226 1.383 . S
C229 C227 1.365 . S
C229 H246 0.931 . S
C230 C225 1.370 . S
C230 C226 1.395 . S
C230 H247 0.930 . S
C231 Gd178 2.805 . S
C231 O213 1.263 . S
C231 O214 1.252 . S
C231 C225 1.500 . S
C232 H194 0.930 . S
C232 C208 1.417 . S
C232 C233 1.329 . S
C233 C203 1.437 . S
C233 H204 0.929 . S
C233 C232 1.329 . S
H234 C207 0.931 . S
C235 O217 1.265 . S
C235 O218 1.242 . S
C236 O221 1.261 . S
C236 O222 1.252 . S
C237 C240 1.394 . S
C237 C242 1.370 . S
C237 C243 1.500 . S
C238 C241 1.383 . S
C238 C242 1.395 . S
C239 C240 1.396 . S
C239 C241 1.365 . S
C239 H248 0.929 . S
C240 C237 1.394 . S
C240 C239 1.396 . S
C240 H249 0.930 . S
C241 C238 1.383 . S
C241 C239 1.365 . S
C241 H250 0.931 . S
C242 C237 1.370 . S
C242 C238 1.395 . S
C242 H251 0.930 . S
C243 Gd179 2.805 . S
C243 O219 1.263 . S
C243 O220 1.252 . S
C243 C237 1.500 . S
H244 C227 0.929 . S
H245 C228 0.930 . S
H246 C229 0.931 . S
H247 C230 0.930 . S
H248 C239 0.929 . S
H249 C240 0.930 . S
H250 C241 0.931 . S
H251 C242 0.930 . S
C252 C254 1.422 . S
C252 C256 1.415 . S
C252 N258 1.369 . S
C253 C254 1.421 . S
C253 C255 1.417 . S
C253 C265 1.422 1_545 S
C254 C252 1.422 . S
C254 C253 1.421 . S
C254 N264 1.359 1_545 S
C255 C253 1.417 . S
C255 C257 1.329 . S
C255 H274 0.930 . S
C256 C252 1.415 . S
C256 C257 1.437 . S
C256 C260 1.413 . S
C257 C255 1.329 . S
C257 C256 1.437 . S
C257 H279 0.929 . S
N258 C252 1.369 . S
N258 C259 1.338 . S
N258 Gd263 2.622 1_545 S
C259 N258 1.338 . S
C259 C261 1.378 . S
C259 H271 0.929 . S
C260 C256 1.413 . S
C260 C261 1.348 . S
C260 H276 0.931 . S
C261 C259 1.378 . S
C261 C260 1.348 . S
C261 H277 0.930 . S
Gd262 N282 2.622 1_545 S
Gd262 N289 2.570 . S
Gd262 O296 2.353 . S
Gd262 O297 2.468 . S
Gd262 O298 2.427 . S
Gd262 O300 2.388 1_545 S
Gd262 O301 2.386 1_545 S
Gd262 O305 2.307 . S
Gd262 C315 2.805 . S
Gd263 N258 2.622 1_565 S
Gd263 N264 2.570 . S
Gd263 O295 2.386 1_565 S
Gd263 O299 2.307 . S
Gd263 O302 2.353 . S
Gd263 O303 2.468 . S
Gd263 O304 2.427 . S
Gd263 O306 2.388 1_565 S
Gd263 C327 2.805 . S
N264 C254 1.359 1_565 S
N264 Gd263 2.570 . S
N264 C266 1.343 . S
C265 C253 1.422 1_565 S
C265 C267 1.321 . S
C265 H273 0.931 . S
C266 N264 1.343 . S
C266 C267 1.390 . S
C266 H268 0.931 . S
C267 C265 1.321 . S
C267 C266 1.390 . S
C267 H269 0.930 . S
H268 C266 0.931 . S
H269 C267 0.930 . S
H270 C293 0.931 . S
H271 C259 0.929 . S
H272 C294 0.930 . S
H273 C265 0.931 . S
H274 C255 0.930 . S
H275 C284 0.929 . S
H276 C260 0.931 . S
H277 C261 0.930 . S
H278 C316 0.930 . S
H279 C257 0.929 . S
H280 C285 0.931 . S
H281 C286 0.930 . S
N282 Gd262 2.622 1_565 S
N282 C283 1.369 . S
N282 C284 1.338 . S
C283 N282 1.369 . S
C283 C287 1.415 . S
C283 C290 1.422 . S
C284 H275 0.929 . S
C284 N282 1.338 . S
C284 C286 1.378 . S
C285 H280 0.931 . S
C285 C286 1.348 . S
C285 C287 1.413 . S
C286 H281 0.930 . S
C286 C284 1.378 . S
C286 C285 1.348 . S
C287 C283 1.415 . S
C287 C285 1.413 . S
C287 C317 1.437 . S
H288 C317 0.929 . S
N289 Gd262 2.570 . S
N289 C290 1.359 1_545 S
N289 C293 1.343 . S
C290 C283 1.422 . S
C290 N289 1.359 1_565 S
C290 C292 1.421 . S
C291 C292 1.422 1_545 S
C291 C294 1.321 . S
C291 H318 0.931 . S
C292 C290 1.421 . S
C292 C291 1.422 1_565 S
C292 C316 1.417 . S
C293 H270 0.931 . S
C293 N289 1.343 . S
C293 C294 1.390 . S
C294 H272 0.930 . S
C294 C291 1.321 . S
C294 C293 1.390 . S
O295 Gd263 2.386 1_545 S
O295 C307 1.265 . S
O296 Gd262 2.353 . S
O296 C307 1.242 . S
O297 Gd262 2.468 . S
O297 C315 1.263 . S
O298 Gd262 2.427 . S
O298 C315 1.252 . S
O299 Gd263 2.307 . S
O299 C308 1.261 . S
O300 Gd262 2.388 1_565 S
O300 C308 1.252 . S
O301 Gd262 2.386 1_565 S
O301 C319 1.265 . S
O302 Gd263 2.353 . S
O302 C319 1.242 . S
O303 Gd263 2.468 . S
O303 C327 1.263 . S
O304 Gd263 2.427 . S
O304 C327 1.252 . S
O305 Gd262 2.307 . S
O305 C320 1.261 . S
O306 Gd263 2.388 1_545 S
O306 C320 1.252 . S
C307 O295 1.265 . S
C307 O296 1.242 . S
C308 O299 1.261 . S
C308 O300 1.252 . S
C309 C312 1.394 . S
C309 C314 1.370 . S
C309 C315 1.500 . S
C310 C313 1.383 . S
C310 C314 1.395 . S
C311 C312 1.396 . S
C311 C313 1.365 . S
C311 H328 0.929 . S
C312 C309 1.394 . S
C312 C311 1.396 . S
C312 H329 0.930 . S
C313 C310 1.383 . S
C313 C311 1.365 . S
C313 H330 0.931 . S
C314 C309 1.370 . S
C314 C310 1.395 . S
C314 H331 0.930 . S
C315 Gd262 2.805 . S
C315 O297 1.263 . S
C315 O298 1.252 . S
C315 C309 1.500 . S
C316 H278 0.930 . S
C316 C292 1.417 . S
C316 C317 1.329 . S
C317 C287 1.437 . S
C317 H288 0.929 . S
C317 C316 1.329 . S
H318 C291 0.931 . S
C319 O301 1.265 . S
C319 O302 1.242 . S
C320 O305 1.261 . S
C320 O306 1.252 . S
C321 C324 1.394 . S
C321 C326 1.370 . S
C321 C327 1.500 . S
C322 C325 1.383 . S
C322 C326 1.395 . S
C323 C324 1.396 . S
C323 C325 1.365 . S
C323 H332 0.929 . S
C324 C321 1.394 . S
C324 C323 1.396 . S
C324 H333 0.930 . S
C325 C322 1.383 . S
C325 C323 1.365 . S
C325 H334 0.931 . S
C326 C321 1.370 . S
C326 C322 1.395 . S
C326 H335 0.930 . S
C327 Gd263 2.805 . S
C327 O303 1.263 . S
C327 O304 1.252 . S
C327 C321 1.500 . S
H328 C311 0.929 . S
H329 C312 0.930 . S
H330 C313 0.931 . S
H331 C314 0.930 . S
H332 C323 0.929 . S
H333 C324 0.930 . S
H334 C325 0.931 . S
H335 C326 0.930 . S
C336 C338 1.422 . S
C336 C340 1.415 . S
C336 N342 1.369 . S
C337 C338 1.421 . S
C337 C339 1.417 . S
C337 C349 1.422 . S
C338 C336 1.422 . S
C338 C337 1.421 . S
C338 N348 1.359 . S
C339 C337 1.417 . S
C339 C341 1.329 . S
C339 H358 0.930 . S
C340 C336 1.415 . S
C340 C341 1.437 . S
C340 C344 1.413 . S
C341 C339 1.329 . S
C341 C340 1.437 . S
C341 H363 0.929 . S
N342 C336 1.369 . S
N342 C343 1.338 . S
N342 Gd347 2.622 . S
C343 N342 1.338 . S
C343 C345 1.378 . S
C343 H355 0.929 . S
C344 C340 1.413 . S
C344 C345 1.348 . S
C344 H360 0.931 . S
C345 C343 1.378 . S
C345 C344 1.348 . S
C345 H361 0.930 . S
Gd346 N366 2.622 . S
Gd346 N373 2.570 . S
Gd346 O380 2.353 . S
Gd346 O381 2.468 . S
Gd346 O382 2.427 1_554 S
Gd346 O384 2.388 . S
Gd346 O385 2.386 . S
Gd346 O389 2.307 . S
Gd346 C399 2.805 1_554 S
Gd347 N342 2.622 . S
Gd347 N348 2.570 . S
Gd347 O379 2.386 . S
Gd347 O383 2.307 . S
Gd347 O386 2.353 . S
Gd347 O387 2.468 . S
Gd347 O388 2.427 . S
Gd347 O390 2.388 . S
Gd347 C411 2.805 . S
N348 C338 1.359 . S
N348 Gd347 2.570 . S
N348 C350 1.343 . S
C349 C337 1.422 . S
C349 C351 1.321 . S
C349 H357 0.931 . S
C350 N348 1.343 . S
C350 C351 1.390 . S
C350 H352 0.931 . S
C351 C349 1.321 . S
C351 C350 1.390 . S
C351 H353 0.930 . S
H352 C350 0.931 . S
H353 C351 0.930 . S
H354 C377 0.931 . S
H355 C343 0.929 . S
H356 C378 0.930 . S
H357 C349 0.931 . S
H358 C339 0.930 . S
H359 C368 0.929 . S
H360 C344 0.931 . S
H361 C345 0.930 . S
H362 C400 0.930 . S
H363 C341 0.929 . S
H364 C369 0.931 . S
H365 C370 0.930 . S
N366 Gd346 2.622 . S
N366 C367 1.369 . S
N366 C368 1.338 1_554 S
C367 N366 1.369 . S
C367 C371 1.415 . S
C367 C374 1.422 . S
C368 H359 0.929 . S
C368 N366 1.338 1_556 S
C368 C370 1.378 . S
C369 H364 0.931 . S
C369 C370 1.348 . S
C369 C371 1.413 1_556 S
C370 H365 0.930 . S
C370 C368 1.378 . S
C370 C369 1.348 . S
C371 C367 1.415 . S
C371 C369 1.413 1_554 S
C371 C401 1.437 . S
H372 C401 0.929 . S
N373 Gd346 2.570 . S
N373 C374 1.359 . S
N373 C377 1.343 . S
C374 C367 1.422 . S
C374 N373 1.359 . S
C374 C376 1.421 . S
C375 C376 1.422 . S
C375 C378 1.321 . S
C375 H402 0.931 . S
C376 C374 1.421 . S
C376 C375 1.422 . S
C376 C400 1.417 . S
C377 H354 0.931 . S
C377 N373 1.343 . S
C377 C378 1.390 . S
C378 H356 0.930 . S
C378 C375 1.321 . S
C378 C377 1.390 . S
O379 Gd347 2.386 . S
O379 C391 1.265 . S
O380 Gd346 2.353 . S
O380 C391 1.242 . S
O381 Gd346 2.468 . S
O381 C399 1.263 1_554 S
O382 Gd346 2.427 1_556 S
O382 C399 1.252 . S
O383 Gd347 2.307 . S
O383 C392 1.261 . S
O384 Gd346 2.388 . S
O384 C392 1.252 . S
O385 Gd346 2.386 . S
O385 C403 1.265 . S
O386 Gd347 2.353 . S
O386 C403 1.242 . S
O387 Gd347 2.468 . S
O387 C411 1.263 . S
O388 Gd347 2.427 . S
O388 C411 1.252 . S
O389 Gd346 2.307 . S
O389 C404 1.261 . S
O390 Gd347 2.388 . S
O390 C404 1.252 . S
C391 O379 1.265 . S
C391 O380 1.242 . S
C392 O383 1.261 . S
C392 O384 1.252 . S
C393 C396 1.394 . S
C393 C398 1.370 . S
C393 C399 1.500 . S
C394 C397 1.383 . S
C394 C398 1.395 . S
C395 C396 1.396 . S
C395 C397 1.365 . S
C395 H412 0.929 . S
C396 C393 1.394 . S
C396 C395 1.396 . S
C396 H413 0.930 . S
C397 C394 1.383 . S
C397 C395 1.365 . S
C397 H414 0.931 . S
C398 C393 1.370 . S
C398 C394 1.395 . S
C398 H415 0.930 . S
C399 Gd346 2.805 1_556 S
C399 O381 1.263 1_556 S
C399 O382 1.252 . S
C399 C393 1.500 . S
C400 H362 0.930 . S
C400 C376 1.417 . S
C400 C401 1.329 . S
C401 C371 1.437 . S
C401 H372 0.929 . S
C401 C400 1.329 . S
H402 C375 0.931 . S
C403 O385 1.265 . S
C403 O386 1.242 . S
C404 O389 1.261 . S
C404 O390 1.252 . S
C405 C408 1.394 . S
C405 C410 1.370 . S
C405 C411 1.500 . S
C406 C409 1.383 . S
C406 C410 1.395 . S
C407 C408 1.396 . S
C407 C409 1.365 . S
C407 H416 0.929 . S
C408 C405 1.394 . S
C408 C407 1.396 . S
C408 H417 0.930 . S
C409 C406 1.383 . S
C409 C407 1.365 . S
C409 H418 0.931 . S
C410 C405 1.370 . S
C410 C406 1.395 . S
C410 H419 0.930 . S
C411 Gd347 2.805 . S
C411 O387 1.263 . S
C411 O388 1.252 . S
C411 C405 1.500 . S
H412 C395 0.929 . S
H413 C396 0.930 . S
H414 C397 0.931 . S
H415 C398 0.930 . S
H416 C407 0.929 . S
H417 C408 0.930 . S
H418 C409 0.931 . S
H419 C410 0.930 . S
C420 C422 1.422 . S
C420 C424 1.415 . S
C420 N426 1.369 . S
C421 C422 1.421 . S
C421 C423 1.417 . S
C421 C433 1.422 1_655 S
C422 C420 1.422 . S
C422 C421 1.421 . S
C422 N432 1.359 1_655 S
C423 C421 1.417 . S
C423 C425 1.329 . S
C423 H442 0.930 . S
C424 C420 1.415 . S
C424 C425 1.437 . S
C424 C428 1.413 . S
C425 C423 1.329 . S
C425 C424 1.437 . S
C425 H447 0.929 . S
N426 C420 1.369 . S
N426 C427 1.338 . S
N426 Gd431 2.622 1_655 S
C427 N426 1.338 . S
C427 C429 1.378 . S
C427 H439 0.929 . S
C428 C424 1.413 . S
C428 C429 1.348 . S
C428 H444 0.931 . S
C429 C427 1.378 . S
C429 C428 1.348 . S
C429 H445 0.930 . S
Gd430 N450 2.622 1_655 S
Gd430 N457 2.570 . S
Gd430 O464 2.353 . S
Gd430 O465 2.468 . S
Gd430 O466 2.427 . S
Gd430 O468 2.388 1_655 S
Gd430 O469 2.386 1_655 S
Gd430 O473 2.307 . S
Gd430 C483 2.805 . S
Gd431 N426 2.622 1_455 S
Gd431 N432 2.570 . S
Gd431 O463 2.386 1_455 S
Gd431 O467 2.307 . S
Gd431 O470 2.353 . S
Gd431 O471 2.468 . S
Gd431 O472 2.427 . S
Gd431 O474 2.388 1_455 S
Gd431 C495 2.805 . S
N432 C422 1.359 1_455 S
N432 Gd431 2.570 . S
N432 C434 1.343 . S
C433 C421 1.422 1_455 S
C433 C435 1.321 . S
C433 H441 0.931 . S
C434 N432 1.343 . S
C434 C435 1.390 . S
C434 H436 0.931 . S
C435 C433 1.321 . S
C435 C434 1.390 . S
C435 H437 0.930 . S
H436 C434 0.931 . S
H437 C435 0.930 . S
H438 C461 0.931 . S
H439 C427 0.929 . S
H440 C462 0.930 . S
H441 C433 0.931 . S
H442 C423 0.930 . S
H443 C452 0.929 . S
H444 C428 0.931 . S
H445 C429 0.930 . S
H446 C484 0.930 . S
H447 C425 0.929 . S
H448 C453 0.931 . S
H449 C454 0.930 . S
N450 Gd430 2.622 1_455 S
N450 C451 1.369 . S
N450 C452 1.338 . S
C451 N450 1.369 . S
C451 C455 1.415 . S
C451 C458 1.422 . S
C452 H443 0.929 . S
C452 N450 1.338 . S
C452 C454 1.378 . S
C453 H448 0.931 . S
C453 C454 1.348 . S
C453 C455 1.413 . S
C454 H449 0.930 . S
C454 C452 1.378 . S
C454 C453 1.348 . S
C455 C451 1.415 . S
C455 C453 1.413 . S
C455 C485 1.437 . S
H456 C485 0.929 . S
N457 Gd430 2.570 . S
N457 C458 1.359 1_655 S
N457 C461 1.343 . S
C458 C451 1.422 . S
C458 N457 1.359 1_455 S
C458 C460 1.421 . S
C459 C460 1.422 1_655 S
C459 C462 1.321 . S
C459 H486 0.931 . S
C460 C458 1.421 . S
C460 C459 1.422 1_455 S
C460 C484 1.417 . S
C461 H438 0.931 . S
C461 N457 1.343 . S
C461 C462 1.390 . S
C462 H440 0.930 . S
C462 C459 1.321 . S
C462 C461 1.390 . S
O463 Gd431 2.386 1_655 S
O463 C475 1.265 . S
O464 Gd430 2.353 . S
O464 C475 1.242 . S
O465 Gd430 2.468 . S
O465 C483 1.263 . S
O466 Gd430 2.427 . S
O466 C483 1.252 . S
O467 Gd431 2.307 . S
O467 C476 1.261 . S
O468 Gd430 2.388 1_455 S
O468 C476 1.252 . S
O469 Gd430 2.386 1_455 S
O469 C487 1.265 . S
O470 Gd431 2.353 . S
O470 C487 1.242 . S
O471 Gd431 2.468 . S
O471 C495 1.263 . S
O472 Gd431 2.427 . S
O472 C495 1.252 . S
O473 Gd430 2.307 . S
O473 C488 1.261 . S
O474 Gd431 2.388 1_655 S
O474 C488 1.252 . S
C475 O463 1.265 . S
C475 O464 1.242 . S
C476 O467 1.261 . S
C476 O468 1.252 . S
C477 C480 1.394 . S
C477 C482 1.370 . S
C477 C483 1.500 . S
C478 C481 1.383 . S
C478 C482 1.395 . S
C479 C480 1.396 . S
C479 C481 1.365 . S
C479 H496 0.929 . S
C480 C477 1.394 . S
C480 C479 1.396 . S
C480 H497 0.930 . S
C481 C478 1.383 . S
C481 C479 1.365 . S
C481 H498 0.931 . S
C482 C477 1.370 . S
C482 C478 1.395 . S
C482 H499 0.930 . S
C483 Gd430 2.805 . S
C483 O465 1.263 . S
C483 O466 1.252 . S
C483 C477 1.500 . S
C484 H446 0.930 . S
C484 C460 1.417 . S
C484 C485 1.329 . S
C485 C455 1.437 . S
C485 H456 0.929 . S
C485 C484 1.329 . S
H486 C459 0.931 . S
C487 O469 1.265 . S
C487 O470 1.242 . S
C488 O473 1.261 . S
C488 O474 1.252 . S
C489 C492 1.394 . S
C489 C494 1.370 . S
C489 C495 1.500 . S
C490 C493 1.383 . S
C490 C494 1.395 . S
C491 C492 1.396 . S
C491 C493 1.365 . S
C491 H500 0.929 . S
C492 C489 1.394 . S
C492 C491 1.396 . S
C492 H501 0.930 . S
C493 C490 1.383 . S
C493 C491 1.365 . S
C493 H502 0.931 . S
C494 C489 1.370 . S
C494 C490 1.395 . S
C494 H503 0.930 . S
C495 Gd431 2.805 . S
C495 O471 1.263 . S
C495 O472 1.252 . S
C495 C489 1.500 . S
H496 C479 0.929 . S
H497 C480 0.930 . S
H498 C481 0.931 . S
H499 C482 0.930 . S
H500 C491 0.929 . S
H501 C492 0.930 . S
H502 C493 0.931 . S
H503 C494 0.930 . S
C504 C506 1.422 . S
C504 C508 1.415 . S
C504 N510 1.369 . S
C505 C506 1.421 . S
C505 C507 1.417 . S
C505 C517 1.422 1_455 S
C506 C504 1.422 . S
C506 C505 1.421 . S
C506 N516 1.359 1_455 S
C507 C505 1.417 . S
C507 C509 1.329 . S
C507 H526 0.930 . S
C508 C504 1.415 . S
C508 C509 1.437 . S
C508 C512 1.413 . S
C509 C507 1.329 . S
C509 C508 1.437 . S
C509 H531 0.929 . S
N510 C504 1.369 . S
N510 C511 1.338 . S
N510 Gd515 2.622 1_455 S
C511 N510 1.338 . S
C511 C513 1.378 . S
C511 H523 0.929 . S
C512 C508 1.413 . S
C512 C513 1.348 . S
C512 H528 0.931 . S
C513 C511 1.378 . S
C513 C512 1.348 . S
C513 H529 0.930 . S
Gd514 N534 2.622 1_455 S
Gd514 N541 2.570 . S
Gd514 O548 2.353 . S
Gd514 O549 2.468 . S
Gd514 O550 2.427 . S
Gd514 O552 2.388 1_455 S
Gd514 O553 2.386 1_455 S
Gd514 O557 2.307 . S
Gd514 C567 2.805 . S
Gd515 N510 2.622 1_655 S
Gd515 N516 2.570 . S
Gd515 O547 2.386 1_655 S
Gd515 O551 2.307 . S
Gd515 O554 2.353 . S
Gd515 O555 2.468 . S
Gd515 O556 2.427 . S
Gd515 O558 2.388 1_655 S
Gd515 C579 2.805 . S
N516 C506 1.359 1_655 S
N516 Gd515 2.570 . S
N516 C518 1.343 . S
C517 C505 1.422 1_655 S
C517 C519 1.321 . S
C517 H525 0.931 . S
C518 N516 1.343 . S
C518 C519 1.390 . S
C518 H520 0.931 . S
C519 C517 1.321 . S
C519 C518 1.390 . S
C519 H521 0.930 . S
H520 C518 0.931 . S
H521 C519 0.930 . S
H522 C545 0.931 . S
H523 C511 0.929 . S
H524 C546 0.930 . S
H525 C517 0.931 . S
H526 C507 0.930 . S
H527 C536 0.929 . S
H528 C512 0.931 . S
H529 C513 0.930 . S
H530 C568 0.930 . S
H531 C509 0.929 . S
H532 C537 0.931 . S
H533 C538 0.930 . S
N534 Gd514 2.622 1_655 S
N534 C535 1.369 . S
N534 C536 1.338 . S
C535 N534 1.369 . S
C535 C539 1.415 . S
C535 C542 1.422 . S
C536 H527 0.929 . S
C536 N534 1.338 . S
C536 C538 1.378 . S
C537 H532 0.931 . S
C537 C538 1.348 . S
C537 C539 1.413 . S
C538 H533 0.930 . S
C538 C536 1.378 . S
C538 C537 1.348 . S
C539 C535 1.415 . S
C539 C537 1.413 . S
C539 C569 1.437 . S
H540 C569 0.929 . S
N541 Gd514 2.570 . S
N541 C542 1.359 1_455 S
N541 C545 1.343 . S
C542 C535 1.422 . S
C542 N541 1.359 1_655 S
C542 C544 1.421 . S
C543 C544 1.422 1_455 S
C543 C546 1.321 . S
C543 H570 0.931 . S
C544 C542 1.421 . S
C544 C543 1.422 1_655 S
C544 C568 1.417 . S
C545 H522 0.931 . S
C545 N541 1.343 . S
C545 C546 1.390 . S
C546 H524 0.930 . S
C546 C543 1.321 . S
C546 C545 1.390 . S
O547 Gd515 2.386 1_455 S
O547 C559 1.265 . S
O548 Gd514 2.353 . S
O548 C559 1.242 . S
O549 Gd514 2.468 . S
O549 C567 1.263 . S
O550 Gd514 2.427 . S
O550 C567 1.252 . S
O551 Gd515 2.307 . S
O551 C560 1.261 . S
O552 Gd514 2.388 1_655 S
O552 C560 1.252 . S
O553 Gd514 2.386 1_655 S
O553 C571 1.265 . S
O554 Gd515 2.353 . S
O554 C571 1.242 . S
O555 Gd515 2.468 . S
O555 C579 1.263 . S
O556 Gd515 2.427 . S
O556 C579 1.252 . S
O557 Gd514 2.307 . S
O557 C572 1.261 . S
O558 Gd515 2.388 1_455 S
O558 C572 1.252 . S
C559 O547 1.265 . S
C559 O548 1.242 . S
C560 O551 1.261 . S
C560 O552 1.252 . S
C561 C564 1.394 . S
C561 C566 1.370 . S
C561 C567 1.500 . S
C562 C565 1.383 . S
C562 C566 1.395 . S
C563 C564 1.396 . S
C563 C565 1.365 . S
C563 H580 0.929 . S
C564 C561 1.394 . S
C564 C563 1.396 . S
C564 H581 0.930 . S
C565 C562 1.383 . S
C565 C563 1.365 . S
C565 H582 0.931 . S
C566 C561 1.370 . S
C566 C562 1.395 . S
C566 H583 0.930 . S
C567 Gd514 2.805 . S
C567 O549 1.263 . S
C567 O550 1.252 . S
C567 C561 1.500 . S
C568 H530 0.930 . S
C568 C544 1.417 . S
C568 C569 1.329 . S
C569 C539 1.437 . S
C569 H540 0.929 . S
C569 C568 1.329 . S
H570 C543 0.931 . S
C571 O553 1.265 . S
C571 O554 1.242 . S
C572 O557 1.261 . S
C572 O558 1.252 . S
C573 C576 1.394 . S
C573 C578 1.370 . S
C573 C579 1.500 . S
C574 C577 1.383 . S
C574 C578 1.395 . S
C575 C576 1.396 . S
C575 C577 1.365 . S
C575 H584 0.929 . S
C576 C573 1.394 . S
C576 C575 1.396 . S
C576 H585 0.930 . S
C577 C574 1.383 . S
C577 C575 1.365 . S
C577 H586 0.931 . S
C578 C573 1.370 . S
C578 C574 1.395 . S
C578 H587 0.930 . S
C579 Gd515 2.805 . S
C579 O555 1.263 . S
C579 O556 1.252 . S
C579 C573 1.500 . S
H580 C563 0.929 . S
H581 C564 0.930 . S
H582 C565 0.931 . S
H583 C566 0.930 . S
H584 C575 0.929 . S
H585 C576 0.930 . S
H586 C577 0.931 . S
H587 C578 0.930 . S
C588 C590 1.422 . S
C588 C592 1.415 . S
C588 N594 1.369 . S
C589 C590 1.421 . S
C589 C591 1.417 . S
C589 C601 1.422 1_545 S
C590 C588 1.422 . S
C590 C589 1.421 . S
C590 N600 1.359 1_545 S
C591 C589 1.417 . S
C591 C593 1.329 . S
C591 H610 0.930 . S
C592 C588 1.415 . S
C592 C593 1.437 . S
C592 C596 1.413 . S
C593 C591 1.329 . S
C593 C592 1.437 . S
C593 H615 0.929 . S
N594 C588 1.369 . S
N594 C595 1.338 . S
N594 Gd599 2.622 1_545 S
C595 N594 1.338 . S
C595 C597 1.378 . S
C595 H607 0.929 . S
C596 C592 1.413 . S
C596 C597 1.348 . S
C596 H612 0.931 . S
C597 C595 1.378 . S
C597 C596 1.348 . S
C597 H613 0.930 . S
Gd598 N618 2.622 1_545 S
Gd598 N625 2.570 . S
Gd598 O632 2.353 . S
Gd598 O633 2.468 . S
Gd598 O634 2.427 . S
Gd598 O636 2.388 1_545 S
Gd598 O637 2.386 1_545 S
Gd598 O641 2.307 . S
Gd598 C651 2.805 . S
Gd599 N594 2.622 1_565 S
Gd599 N600 2.570 . S
Gd599 O631 2.386 1_565 S
Gd599 O635 2.307 . S
Gd599 O638 2.353 . S
Gd599 O639 2.468 . S
Gd599 O640 2.427 . S
Gd599 O642 2.388 1_565 S
Gd599 C663 2.805 . S
N600 C590 1.359 1_565 S
N600 Gd599 2.570 . S
N600 C602 1.343 . S
C601 C589 1.422 1_565 S
C601 C603 1.321 . S
C601 H609 0.931 . S
C602 N600 1.343 . S
C602 C603 1.390 . S
C602 H604 0.931 . S
C603 C601 1.321 . S
C603 C602 1.390 . S
C603 H605 0.930 . S
H604 C602 0.931 . S
H605 C603 0.930 . S
H606 C629 0.931 . S
H607 C595 0.929 . S
H608 C630 0.930 . S
H609 C601 0.931 . S
H610 C591 0.930 . S
H611 C620 0.929 . S
H612 C596 0.931 . S
H613 C597 0.930 . S
H614 C652 0.930 . S
H615 C593 0.929 . S
H616 C621 0.931 . S
H617 C622 0.930 . S
N618 Gd598 2.622 1_565 S
N618 C619 1.369 . S
N618 C620 1.338 . S
C619 N618 1.369 . S
C619 C623 1.415 . S
C619 C626 1.422 . S
C620 H611 0.929 . S
C620 N618 1.338 . S
C620 C622 1.378 . S
C621 H616 0.931 . S
C621 C622 1.348 . S
C621 C623 1.413 . S
C622 H617 0.930 . S
C622 C620 1.378 . S
C622 C621 1.348 . S
C623 C619 1.415 . S
C623 C621 1.413 . S
C623 C653 1.437 . S
H624 C653 0.929 . S
N625 Gd598 2.570 . S
N625 C626 1.359 1_545 S
N625 C629 1.343 . S
C626 C619 1.422 . S
C626 N625 1.359 1_565 S
C626 C628 1.421 . S
C627 C628 1.422 1_545 S
C627 C630 1.321 . S
C627 H654 0.931 . S
C628 C626 1.421 . S
C628 C627 1.422 1_565 S
C628 C652 1.417 . S
C629 H606 0.931 . S
C629 N625 1.343 . S
C629 C630 1.390 . S
C630 H608 0.930 . S
C630 C627 1.321 . S
C630 C629 1.390 . S
O631 Gd599 2.386 1_545 S
O631 C643 1.265 . S
O632 Gd598 2.353 . S
O632 C643 1.242 . S
O633 Gd598 2.468 . S
O633 C651 1.263 . S
O634 Gd598 2.427 . S
O634 C651 1.252 . S
O635 Gd599 2.307 . S
O635 C644 1.261 . S
O636 Gd598 2.388 1_565 S
O636 C644 1.252 . S
O637 Gd598 2.386 1_565 S
O637 C655 1.265 . S
O638 Gd599 2.353 . S
O638 C655 1.242 . S
O639 Gd599 2.468 . S
O639 C663 1.263 . S
O640 Gd599 2.427 . S
O640 C663 1.252 . S
O641 Gd598 2.307 . S
O641 C656 1.261 . S
O642 Gd599 2.388 1_545 S
O642 C656 1.252 . S
C643 O631 1.265 . S
C643 O632 1.242 . S
C644 O635 1.261 . S
C644 O636 1.252 . S
C645 C648 1.394 . S
C645 C650 1.370 . S
C645 C651 1.500 . S
C646 C649 1.383 . S
C646 C650 1.395 . S
C647 C648 1.396 . S
C647 C649 1.365 . S
C647 H664 0.929 . S
C648 C645 1.394 . S
C648 C647 1.396 . S
C648 H665 0.930 . S
C649 C646 1.383 . S
C649 C647 1.365 . S
C649 H666 0.931 . S
C650 C645 1.370 . S
C650 C646 1.395 . S
C650 H667 0.930 . S
C651 Gd598 2.805 . S
C651 O633 1.263 . S
C651 O634 1.252 . S
C651 C645 1.500 . S
C652 H614 0.930 . S
C652 C628 1.417 . S
C652 C653 1.329 . S
C653 C623 1.437 . S
C653 H624 0.929 . S
C653 C652 1.329 . S
H654 C627 0.931 . S
C655 O637 1.265 . S
C655 O638 1.242 . S
C656 O641 1.261 . S
C656 O642 1.252 . S
C657 C660 1.394 . S
C657 C662 1.370 . S
C657 C663 1.500 . S
C658 C661 1.383 . S
C658 C662 1.395 . S
C659 C660 1.396 . S
C659 C661 1.365 . S
C659 H668 0.929 . S
C660 C657 1.394 . S
C660 C659 1.396 . S
C660 H669 0.930 . S
C661 C658 1.383 . S
C661 C659 1.365 . S
C661 H670 0.931 . S
C662 C657 1.370 . S
C662 C658 1.395 . S
C662 H671 0.930 . S
C663 Gd599 2.805 . S
C663 O639 1.263 . S
C663 O640 1.252 . S
C663 C657 1.500 . S
H664 C647 0.929 . S
H665 C648 0.930 . S
H666 C649 0.931 . S
H667 C650 0.930 . S
H668 C659 0.929 . S
H669 C660 0.930 . S
H670 C661 0.931 . S
H671 C662 0.930 . S
C672 C674 1.422 . S
C672 C676 1.415 . S
C672 N678 1.369 . S
C673 C674 1.421 . S
C673 C675 1.417 . S
C673 C685 1.422 . S
C674 C672 1.422 . S
C674 C673 1.421 . S
C674 N684 1.359 . S
C675 C673 1.417 . S
C675 C677 1.329 . S
C675 H694 0.930 . S
C676 C672 1.415 . S
C676 C677 1.437 . S
C676 C680 1.413 . S
C677 C675 1.329 . S
C677 C676 1.437 . S
C677 H699 0.929 . S
N678 C672 1.369 . S
N678 C679 1.338 . S
N678 Gd683 2.622 . S
C679 N678 1.338 . S
C679 C681 1.378 . S
C679 H691 0.929 . S
C680 C676 1.413 . S
C680 C681 1.348 . S
C680 H696 0.931 . S
C681 C679 1.378 . S
C681 C680 1.348 . S
C681 H697 0.930 . S
Gd682 N702 2.622 . S
Gd682 N709 2.570 . S
Gd682 O716 2.353 . S
Gd682 O717 2.468 . S
Gd682 O718 2.427 . S
Gd682 O720 2.388 . S
Gd682 O721 2.386 . S
Gd682 O725 2.307 . S
Gd682 C735 2.805 . S
Gd683 N678 2.622 . S
Gd683 N684 2.570 . S
Gd683 O715 2.386 . S
Gd683 O719 2.307 . S
Gd683 O722 2.353 . S
Gd683 O723 2.468 . S
Gd683 O724 2.427 . S
Gd683 O726 2.388 . S
Gd683 C747 2.805 . S
N684 C674 1.359 . S
N684 Gd683 2.570 . S
N684 C686 1.343 . S
C685 C673 1.422 . S
C685 C687 1.321 . S
C685 H693 0.931 . S
C686 N684 1.343 . S
C686 C687 1.390 . S
C686 H688 0.931 . S
C687 C685 1.321 . S
C687 C686 1.390 . S
C687 H689 0.930 . S
H688 C686 0.931 . S
H689 C687 0.930 . S
H690 C713 0.931 . S
H691 C679 0.929 . S
H692 C714 0.930 . S
H693 C685 0.931 . S
H694 C675 0.930 . S
H695 C704 0.929 . S
H696 C680 0.931 . S
H697 C681 0.930 . S
H698 C736 0.930 . S
H699 C677 0.929 . S
H700 C705 0.931 . S
H701 C706 0.930 . S
N702 Gd682 2.622 . S
N702 C703 1.369 . S
N702 C704 1.338 . S
C703 N702 1.369 . S
C703 C707 1.415 . S
C703 C710 1.422 . S
C704 H695 0.929 . S
C704 N702 1.338 . S
C704 C706 1.378 . S
C705 H700 0.931 . S
C705 C706 1.348 . S
C705 C707 1.413 . S
C706 H701 0.930 . S
C706 C704 1.378 . S
C706 C705 1.348 . S
C707 C703 1.415 . S
C707 C705 1.413 . S
C707 C737 1.437 . S
H708 C737 0.929 . S
N709 Gd682 2.570 . S
N709 C710 1.359 . S
N709 C713 1.343 . S
C710 C703 1.422 . S
C710 N709 1.359 . S
C710 C712 1.421 . S
C711 C712 1.422 . S
C711 C714 1.321 . S
C711 H738 0.931 . S
C712 C710 1.421 . S
C712 C711 1.422 . S
C712 C736 1.417 . S
C713 H690 0.931 . S
C713 N709 1.343 . S
C713 C714 1.390 . S
C714 H692 0.930 . S
C714 C711 1.321 . S
C714 C713 1.390 . S
O715 Gd683 2.386 . S
O715 C727 1.265 . S
O716 Gd682 2.353 . S
O716 C727 1.242 . S
O717 Gd682 2.468 . S
O717 C735 1.263 . S
O718 Gd682 2.427 . S
O718 C735 1.252 . S
O719 Gd683 2.307 . S
O719 C728 1.261 . S
O720 Gd682 2.388 . S
O720 C728 1.252 . S
O721 Gd682 2.386 . S
O721 C739 1.265 . S
O722 Gd683 2.353 . S
O722 C739 1.242 . S
O723 Gd683 2.468 . S
O723 C747 1.263 . S
O724 Gd683 2.427 . S
O724 C747 1.252 . S
O725 Gd682 2.307 . S
O725 C740 1.261 . S
O726 Gd683 2.388 . S
O726 C740 1.252 . S
C727 O715 1.265 . S
C727 O716 1.242 . S
C728 O719 1.261 . S
C728 O720 1.252 . S
C729 C732 1.394 . S
C729 C734 1.370 . S
C729 C735 1.500 . S
C730 C733 1.383 . S
C730 C734 1.395 . S
C731 C732 1.396 . S
C731 C733 1.365 . S
C731 H748 0.929 . S
C732 C729 1.394 . S
C732 C731 1.396 . S
C732 H749 0.930 . S
C733 C730 1.383 . S
C733 C731 1.365 . S
C733 H750 0.931 . S
C734 C729 1.370 . S
C734 C730 1.395 . S
C734 H751 0.930 . S
C735 Gd682 2.805 . S
C735 O717 1.263 . S
C735 O718 1.252 . S
C735 C729 1.500 . S
C736 H698 0.930 . S
C736 C712 1.417 . S
C736 C737 1.329 . S
C737 C707 1.437 . S
C737 H708 0.929 . S
C737 C736 1.329 . S
H738 C711 0.931 . S
C739 O721 1.265 . S
C739 O722 1.242 . S
C740 O725 1.261 . S
C740 O726 1.252 . S
C741 C744 1.394 . S
C741 C746 1.370 . S
C741 C747 1.500 . S
C742 C745 1.383 . S
C742 C746 1.395 . S
C743 C744 1.396 . S
C743 C745 1.365 . S
C743 H752 0.929 . S
C744 C741 1.394 . S
C744 C743 1.396 . S
C744 H753 0.930 . S
C745 C742 1.383 . S
C745 C743 1.365 . S
C745 H754 0.931 . S
C746 C741 1.370 . S
C746 C742 1.395 . S
C746 H755 0.930 . S
C747 Gd683 2.805 . S
C747 O723 1.263 . S
C747 O724 1.252 . S
C747 C741 1.500 . S
H748 C731 0.929 . S
H749 C732 0.930 . S
H750 C733 0.931 . S
H751 C734 0.930 . S
H752 C743 0.929 . S
H753 C744 0.930 . S
H754 C745 0.931 . S
H755 C746 0.930 . S
C756 C758 1.422 . S
C756 C760 1.415 . S
C756 N762 1.369 . S
C757 C758 1.421 . S
C757 C759 1.417 . S
C757 C769 1.422 1_655 S
C758 C756 1.422 . S
C758 C757 1.421 . S
C758 N768 1.359 1_655 S
C759 C757 1.417 . S
C759 C761 1.329 . S
C759 H778 0.930 . S
C760 C756 1.415 . S
C760 C761 1.437 . S
C760 C764 1.413 . S
C761 C759 1.329 . S
C761 C760 1.437 . S
C761 H783 0.929 . S
N762 C756 1.369 . S
N762 C763 1.338 . S
N762 Gd767 2.622 1_655 S
C763 N762 1.338 . S
C763 C765 1.378 . S
C763 H775 0.929 . S
C764 C760 1.413 . S
C764 C765 1.348 . S
C764 H780 0.931 . S
C765 C763 1.378 . S
C765 C764 1.348 . S
C765 H781 0.930 . S
Gd766 N786 2.622 1_655 S
Gd766 N793 2.570 . S
Gd766 O800 2.353 . S
Gd766 O801 2.468 . S
Gd766 O802 2.427 1_556 S
Gd766 O804 2.388 1_655 S
Gd766 O805 2.386 1_655 S
Gd766 O809 2.307 . S
Gd766 C819 2.805 1_556 S
Gd767 N762 2.622 1_455 S
Gd767 N768 2.570 . S
Gd767 O799 2.386 1_455 S
Gd767 O803 2.307 . S
Gd767 O806 2.353 . S
Gd767 O807 2.468 . S
Gd767 O808 2.427 . S
Gd767 O810 2.388 1_455 S
Gd767 C831 2.805 . S
N768 C758 1.359 1_455 S
N768 Gd767 2.570 . S
N768 C770 1.343 . S
C769 C757 1.422 1_455 S
C769 C771 1.321 . S
C769 H777 0.931 . S
C770 N768 1.343 . S
C770 C771 1.390 . S
C770 H772 0.931 . S
C771 C769 1.321 . S
C771 C770 1.390 . S
C771 H773 0.930 . S
H772 C770 0.931 . S
H773 C771 0.930 . S
H774 C797 0.931 . S
H775 C763 0.929 . S
H776 C798 0.930 . S
H777 C769 0.931 . S
H778 C759 0.930 . S
H779 C788 0.929 . S
H780 C764 0.931 . S
H781 C765 0.930 . S
H782 C820 0.930 . S
H783 C761 0.929 . S
H784 C789 0.931 . S
H785 C790 0.930 . S
N786 Gd766 2.622 1_455 S
N786 C787 1.369 . S
N786 C788 1.338 1_556 S
C787 N786 1.369 . S
C787 C791 1.415 . S
C787 C794 1.422 . S
C788 H779 0.929 . S
C788 N786 1.338 1_554 S
C788 C790 1.378 . S
C789 H784 0.931 . S
C789 C790 1.348 . S
C789 C791 1.413 1_554 S
C790 H785 0.930 . S
C790 C788 1.378 . S
C790 C789 1.348 . S
C791 C787 1.415 . S
C791 C789 1.413 1_556 S
C791 C821 1.437 . S
H792 C821 0.929 . S
N793 Gd766 2.570 . S
N793 C794 1.359 1_655 S
N793 C797 1.343 . S
C794 C787 1.422 . S
C794 N793 1.359 1_455 S
C794 C796 1.421 . S
C795 C796 1.422 1_655 S
C795 C798 1.321 . S
C795 H822 0.931 . S
C796 C794 1.421 . S
C796 C795 1.422 1_455 S
C796 C820 1.417 . S
C797 H774 0.931 . S
C797 N793 1.343 . S
C797 C798 1.390 . S
C798 H776 0.930 . S
C798 C795 1.321 . S
C798 C797 1.390 . S
O799 Gd767 2.386 1_655 S
O799 C811 1.265 . S
O800 Gd766 2.353 . S
O800 C811 1.242 . S
O801 Gd766 2.468 . S
O801 C819 1.263 1_556 S
O802 Gd766 2.427 1_554 S
O802 C819 1.252 . S
O803 Gd767 2.307 . S
O803 C812 1.261 . S
O804 Gd766 2.388 1_455 S
O804 C812 1.252 . S
O805 Gd766 2.386 1_455 S
O805 C823 1.265 . S
O806 Gd767 2.353 . S
O806 C823 1.242 . S
O807 Gd767 2.468 . S
O807 C831 1.263 . S
O808 Gd767 2.427 . S
O808 C831 1.252 . S
O809 Gd766 2.307 . S
O809 C824 1.261 . S
O810 Gd767 2.388 1_655 S
O810 C824 1.252 . S
C811 O799 1.265 . S
C811 O800 1.242 . S
C812 O803 1.261 . S
C812 O804 1.252 . S
C813 C816 1.394 . S
C813 C818 1.370 . S
C813 C819 1.500 . S
C814 C817 1.383 . S
C814 C818 1.395 . S
C815 C816 1.396 . S
C815 C817 1.365 . S
C815 H832 0.929 . S
C816 C813 1.394 . S
C816 C815 1.396 . S
C816 H833 0.930 . S
C817 C814 1.383 . S
C817 C815 1.365 . S
C817 H834 0.931 . S
C818 C813 1.370 . S
C818 C814 1.395 . S
C818 H835 0.930 . S
C819 Gd766 2.805 1_554 S
C819 O801 1.263 1_554 S
C819 O802 1.252 . S
C819 C813 1.500 . S
C820 H782 0.930 . S
C820 C796 1.417 . S
C820 C821 1.329 . S
C821 C791 1.437 . S
C821 H792 0.929 . S
C821 C820 1.329 . S
H822 C795 0.931 . S
C823 O805 1.265 . S
C823 O806 1.242 . S
C824 O809 1.261 . S
C824 O810 1.252 . S
C825 C828 1.394 . S
C825 C830 1.370 . S
C825 C831 1.500 . S
C826 C829 1.383 . S
C826 C830 1.395 . S
C827 C828 1.396 . S
C827 C829 1.365 . S
C827 H836 0.929 . S
C828 C825 1.394 . S
C828 C827 1.396 . S
C828 H837 0.930 . S
C829 C826 1.383 . S
C829 C827 1.365 . S
C829 H838 0.931 . S
C830 C825 1.370 . S
C830 C826 1.395 . S
C830 H839 0.930 . S
C831 Gd767 2.805 . S
C831 O807 1.263 . S
C831 O808 1.252 . S
C831 C825 1.500 . S
H832 C815 0.929 . S
H833 C816 0.930 . S
H834 C817 0.931 . S
H835 C818 0.930 . S
H836 C827 0.929 . S
H837 C828 0.930 . S
H838 C829 0.931 . S
H839 C830 0.930 . S
C840 C842 1.422 . S
C840 C844 1.415 . S
C840 N846 1.369 . S
C841 C842 1.421 . S
C841 C843 1.417 . S
C841 C853 1.422 1_565 S
C842 C840 1.422 . S
C842 C841 1.421 . S
C842 N852 1.359 1_565 S
C843 C841 1.417 . S
C843 C845 1.329 . S
C843 H862 0.930 . S
C844 C840 1.415 . S
C844 C845 1.437 . S
C844 C848 1.413 . S
C845 C843 1.329 . S
C845 C844 1.437 . S
C845 H867 0.929 . S
N846 C840 1.369 . S
N846 C847 1.338 . S
N846 Gd851 2.622 1_565 S
C847 N846 1.338 . S
C847 C849 1.378 . S
C847 H859 0.929 . S
C848 C844 1.413 . S
C848 C849 1.348 . S
C848 H864 0.931 . S
C849 C847 1.378 . S
C849 C848 1.348 . S
C849 H865 0.930 . S
Gd850 N870 2.622 1_565 S
Gd850 N877 2.570 . S
Gd850 O884 2.353 . S
Gd850 O885 2.468 . S
Gd850 O886 2.427 . S
Gd850 O888 2.388 1_565 S
Gd850 O889 2.386 1_565 S
Gd850 O893 2.307 . S
Gd850 C903 2.805 . S
Gd851 N846 2.622 1_545 S
Gd851 N852 2.570 . S
Gd851 O883 2.386 1_545 S
Gd851 O887 2.307 . S
Gd851 O890 2.353 . S
Gd851 O891 2.468 . S
Gd851 O892 2.427 . S
Gd851 O894 2.388 1_545 S
Gd851 C915 2.805 . S
N852 C842 1.359 1_545 S
N852 Gd851 2.570 . S
N852 C854 1.343 . S
C853 C841 1.422 1_545 S
C853 C855 1.321 . S
C853 H861 0.931 . S
C854 N852 1.343 . S
C854 C855 1.390 . S
C854 H856 0.931 . S
C855 C853 1.321 . S
C855 C854 1.390 . S
C855 H857 0.930 . S
H856 C854 0.931 . S
H857 C855 0.930 . S
H858 C881 0.931 . S
H859 C847 0.929 . S
H860 C882 0.930 . S
H861 C853 0.931 . S
H862 C843 0.930 . S
H863 C872 0.929 . S
H864 C848 0.931 . S
H865 C849 0.930 . S
H866 C904 0.930 . S
H867 C845 0.929 . S
H868 C873 0.931 . S
H869 C874 0.930 . S
N870 Gd850 2.622 1_545 S
N870 C871 1.369 . S
N870 C872 1.338 . S
C871 N870 1.369 . S
C871 C875 1.415 . S
C871 C878 1.422 . S
C872 H863 0.929 . S
C872 N870 1.338 . S
C872 C874 1.378 . S
C873 H868 0.931 . S
C873 C874 1.348 . S
C873 C875 1.413 . S
C874 H869 0.930 . S
C874 C872 1.378 . S
C874 C873 1.348 . S
C875 C871 1.415 . S
C875 C873 1.413 . S
C875 C905 1.437 . S
H876 C905 0.929 . S
N877 Gd850 2.570 . S
N877 C878 1.359 1_565 S
N877 C881 1.343 . S
C878 C871 1.422 . S
C878 N877 1.359 1_545 S
C878 C880 1.421 . S
C879 C880 1.422 1_565 S
C879 C882 1.321 . S
C879 H906 0.931 . S
C880 C878 1.421 . S
C880 C879 1.422 1_545 S
C880 C904 1.417 . S
C881 H858 0.931 . S
C881 N877 1.343 . S
C881 C882 1.390 . S
C882 H860 0.930 . S
C882 C879 1.321 . S
C882 C881 1.390 . S
O883 Gd851 2.386 1_565 S
O883 C895 1.265 . S
O884 Gd850 2.353 . S
O884 C895 1.242 . S
O885 Gd850 2.468 . S
O885 C903 1.263 . S
O886 Gd850 2.427 . S
O886 C903 1.252 . S
O887 Gd851 2.307 . S
O887 C896 1.261 . S
O888 Gd850 2.388 1_545 S
O888 C896 1.252 . S
O889 Gd850 2.386 1_545 S
O889 C907 1.265 . S
O890 Gd851 2.353 . S
O890 C907 1.242 . S
O891 Gd851 2.468 . S
O891 C915 1.263 . S
O892 Gd851 2.427 . S
O892 C915 1.252 . S
O893 Gd850 2.307 . S
O893 C908 1.261 . S
O894 Gd851 2.388 1_565 S
O894 C908 1.252 . S
C895 O883 1.265 . S
C895 O884 1.242 . S
C896 O887 1.261 . S
C896 O888 1.252 . S
C897 C900 1.394 . S
C897 C902 1.370 . S
C897 C903 1.500 . S
C898 C901 1.383 . S
C898 C902 1.395 . S
C899 C900 1.396 . S
C899 C901 1.365 . S
C899 H916 0.929 . S
C900 C897 1.394 . S
C900 C899 1.396 . S
C900 H917 0.930 . S
C901 C898 1.383 . S
C901 C899 1.365 . S
C901 H918 0.931 . S
C902 C897 1.370 . S
C902 C898 1.395 . S
C902 H919 0.930 . S
C903 Gd850 2.805 . S
C903 O885 1.263 . S
C903 O886 1.252 . S
C903 C897 1.500 . S
C904 H866 0.930 . S
C904 C880 1.417 . S
C904 C905 1.329 . S
C905 C875 1.437 . S
C905 H876 0.929 . S
C905 C904 1.329 . S
H906 C879 0.931 . S
C907 O889 1.265 . S
C907 O890 1.242 . S
C908 O893 1.261 . S
C908 O894 1.252 . S
C909 C912 1.394 . S
C909 C914 1.370 . S
C909 C915 1.500 . S
C910 C913 1.383 . S
C910 C914 1.395 . S
C911 C912 1.396 . S
C911 C913 1.365 . S
C911 H920 0.929 . S
C912 C909 1.394 . S
C912 C911 1.396 . S
C912 H921 0.930 . S
C913 C910 1.383 . S
C913 C911 1.365 . S
C913 H922 0.931 . S
C914 C909 1.370 . S
C914 C910 1.395 . S
C914 H923 0.930 . S
C915 Gd851 2.805 . S
C915 O891 1.263 . S
C915 O892 1.252 . S
C915 C909 1.500 . S
H916 C899 0.929 . S
H917 C900 0.930 . S
H918 C901 0.931 . S
H919 C902 0.930 . S
H920 C911 0.929 . S
H921 C912 0.930 . S
H922 C913 0.931 . S
H923 C914 0.930 . S
C924 C926 1.422 . S
C924 C928 1.415 . S
C924 N930 1.369 . S
C925 C926 1.421 . S
C925 C927 1.417 . S
C925 C937 1.422 . S
C926 C924 1.422 . S
C926 C925 1.421 . S
C926 N936 1.359 . S
C927 C925 1.417 . S
C927 C929 1.329 . S
C927 H946 0.930 . S
C928 C924 1.415 . S
C928 C929 1.437 . S
C928 C932 1.413 . S
C929 C927 1.329 . S
C929 C928 1.437 . S
C929 H951 0.929 . S
N930 C924 1.369 . S
N930 C931 1.338 . S
N930 Gd935 2.622 . S
C931 N930 1.338 . S
C931 C933 1.378 . S
C931 H943 0.929 . S
C932 C928 1.413 . S
C932 C933 1.348 . S
C932 H948 0.931 . S
C933 C931 1.378 . S
C933 C932 1.348 . S
C933 H949 0.930 . S
Gd934 N954 2.622 . S
Gd934 N961 2.570 . S
Gd934 O968 2.353 . S
Gd934 O969 2.468 . S
Gd934 O970 2.427 . S
Gd934 O972 2.388 . S
Gd934 O973 2.386 . S
Gd934 O977 2.307 . S
Gd934 C987 2.805 . S
Gd935 N930 2.622 . S
Gd935 N936 2.570 . S
Gd935 O967 2.386 . S
Gd935 O971 2.307 . S
Gd935 O974 2.353 . S
Gd935 O975 2.468 . S
Gd935 O976 2.427 . S
Gd935 O978 2.388 . S
Gd935 C999 2.805 . S
N936 C926 1.359 . S
N936 Gd935 2.570 . S
N936 C938 1.343 . S
C937 C925 1.422 . S
C937 C939 1.321 . S
C937 H945 0.931 . S
C938 N936 1.343 . S
C938 C939 1.390 . S
C938 H940 0.931 . S
C939 C937 1.321 . S
C939 C938 1.390 . S
C939 H941 0.930 . S
H940 C938 0.931 . S
H941 C939 0.930 . S
H942 C965 0.931 . S
H943 C931 0.929 . S
H944 C966 0.930 . S
H945 C937 0.931 . S
H946 C927 0.930 . S
H947 C956 0.929 . S
H948 C932 0.931 . S
H949 C933 0.930 . S
H950 C988 0.930 . S
H951 C929 0.929 . S
H952 C957 0.931 . S
H953 C958 0.930 . S
N954 Gd934 2.622 . S
N954 C955 1.369 . S
N954 C956 1.338 . S
C955 N954 1.369 . S
C955 C959 1.415 . S
C955 C962 1.422 . S
C956 H947 0.929 . S
C956 N954 1.338 . S
C956 C958 1.378 . S
C957 H952 0.931 . S
C957 C958 1.348 . S
C957 C959 1.413 . S
C958 H953 0.930 . S
C958 C956 1.378 . S
C958 C957 1.348 . S
C959 C955 1.415 . S
C959 C957 1.413 . S
C959 C989 1.437 . S
H960 C989 0.929 . S
N961 Gd934 2.570 . S
N961 C962 1.359 . S
N961 C965 1.343 . S
C962 C955 1.422 . S
C962 N961 1.359 . S
C962 C964 1.421 . S
C963 C964 1.422 . S
C963 C966 1.321 . S
C963 H990 0.931 . S
C964 C962 1.421 . S
C964 C963 1.422 . S
C964 C988 1.417 . S
C965 H942 0.931 . S
C965 N961 1.343 . S
C965 C966 1.390 . S
C966 H944 0.930 . S
C966 C963 1.321 . S
C966 C965 1.390 . S
O967 Gd935 2.386 . S
O967 C979 1.265 . S
O968 Gd934 2.353 . S
O968 C979 1.242 . S
O969 Gd934 2.468 . S
O969 C987 1.263 . S
O970 Gd934 2.427 . S
O970 C987 1.252 . S
O971 Gd935 2.307 . S
O971 C980 1.261 . S
O972 Gd934 2.388 . S
O972 C980 1.252 . S
O973 Gd934 2.386 . S
O973 C991 1.265 . S
O974 Gd935 2.353 . S
O974 C991 1.242 . S
O975 Gd935 2.468 . S
O975 C999 1.263 . S
O976 Gd935 2.427 . S
O976 C999 1.252 . S
O977 Gd934 2.307 . S
O977 C992 1.261 . S
O978 Gd935 2.388 . S
O978 C992 1.252 . S
C979 O967 1.265 . S
C979 O968 1.242 . S
C980 O971 1.261 . S
C980 O972 1.252 . S
C981 C984 1.394 . S
C981 C986 1.370 . S
C981 C987 1.500 . S
C982 C985 1.383 . S
C982 C986 1.395 . S
C983 C984 1.396 . S
C983 C985 1.365 . S
C983 H1000 0.929 . S
C984 C981 1.394 . S
C984 C983 1.396 . S
C984 H1001 0.930 . S
C985 C982 1.383 . S
C985 C983 1.365 . S
C985 H1002 0.931 . S
C986 C981 1.370 . S
C986 C982 1.395 . S
C986 H1003 0.930 . S
C987 Gd934 2.805 . S
C987 O969 1.263 . S
C987 O970 1.252 . S
C987 C981 1.500 . S
C988 H950 0.930 . S
C988 C964 1.417 . S
C988 C989 1.329 . S
C989 C959 1.437 . S
C989 H960 0.929 . S
C989 C988 1.329 . S
H990 C963 0.931 . S
C991 O973 1.265 . S
C991 O974 1.242 . S
C992 O977 1.261 . S
C992 O978 1.252 . S
C993 C996 1.394 . S
C993 C998 1.370 . S
C993 C999 1.500 . S
C994 C997 1.383 . S
C994 C998 1.395 . S
C995 C996 1.396 . S
C995 C997 1.365 . S
C995 H1004 0.929 . S
C996 C993 1.394 . S
C996 C995 1.396 . S
C996 H1005 0.930 . S
C997 C994 1.383 . S
C997 C995 1.365 . S
C997 H1006 0.931 . S
C998 C993 1.370 . S
C998 C994 1.395 . S
C998 H1007 0.930 . S
C999 Gd935 2.805 . S
C999 O975 1.263 . S
C999 O976 1.252 . S
C999 C993 1.500 . S
H1000 C983 0.929 . S
H1001 C984 0.930 . S
H1002 C985 0.931 . S
H1003 C986 0.930 . S
H1004 C995 0.929 . S
H1005 C996 0.930 . S
H1006 C997 0.931 . S
H1007 C998 0.930 . S
H1008 C1014 0.930 . S
H1009 C1017 0.930 . S
H1010 C1018 0.930 . S
H1011 C1019 0.930 . S
H1012 C1022 0.930 . S
H1013 C1023 0.930 . S
C1014 H1008 0.930 . S
C1014 C1015 1.355 . S
C1014 C1016 1.415 . S
C1015 C1014 1.355 . S
C1015 C1017 1.419 . S
C1016 C1014 1.415 . S
C1016 C1021 1.425 . S
C1016 C1023 1.409 . S
C1017 H1009 0.930 . S
C1017 C1015 1.419 . S
C1017 C1018 1.362 . S
C1018 H1010 0.930 . S
C1018 C1017 1.362 . S
C1018 C1021 1.409 . S
C1019 H1011 0.930 . S
C1019 C1020 1.355 . S
C1019 C1021 1.415 . S
C1020 C1019 1.355 . S
C1020 C1022 1.419 . S
C1021 C1016 1.425 . S
C1021 C1018 1.409 . S
C1021 C1019 1.415 . S
C1022 H1012 0.930 . S
C1022 C1020 1.419 . S
C1022 C1023 1.362 . S
C1023 H1013 0.930 . S
C1023 C1016 1.409 . S
C1023 C1022 1.362 . S
H1024 C1030 0.930 . S
H1025 C1033 0.930 . S
H1026 C1034 0.930 . S
H1027 C1035 0.930 . S
H1028 C1038 0.930 . S
H1029 C1039 0.930 . S
C1030 H1024 0.930 . S
C1030 C1031 1.355 . S
C1030 C1032 1.415 . S
C1031 C1030 1.355 . S
C1031 C1033 1.419 . S
C1032 C1030 1.415 . S
C1032 C1037 1.425 . S
C1032 C1039 1.409 . S
C1033 H1025 0.930 . S
C1033 C1031 1.419 . S
C1033 C1034 1.362 . S
C1034 H1026 0.930 . S
C1034 C1033 1.362 . S
C1034 C1037 1.409 . S
C1035 H1027 0.930 . S
C1035 C1036 1.355 . S
C1035 C1037 1.415 . S
C1036 C1035 1.355 . S
C1036 C1038 1.419 . S
C1037 C1032 1.425 . S
C1037 C1034 1.409 . S
C1037 C1035 1.415 . S
C1038 H1028 0.930 . S
C1038 C1036 1.419 . S
C1038 C1039 1.362 . S
C1039 H1029 0.930 . S
C1039 C1032 1.409 . S
C1039 C1038 1.362 . S
H1040 C1046 0.930 . S
H1041 C1049 0.930 . S
H1042 C1050 0.930 . S
H1043 C1051 0.930 . S
H1044 C1054 0.930 . S
H1045 C1055 0.930 . S
C1046 H1040 0.930 . S
C1046 C1047 1.355 . S
C1046 C1048 1.415 . S
C1047 C1046 1.355 . S
C1047 C1049 1.419 . S
C1048 C1046 1.415 . S
C1048 C1053 1.425 . S
C1048 C1055 1.409 . S
C1049 H1041 0.930 . S
C1049 C1047 1.419 . S
C1049 C1050 1.362 . S
C1050 H1042 0.930 . S
C1050 C1049 1.362 . S
C1050 C1053 1.409 . S
C1051 H1043 0.930 . S
C1051 C1052 1.355 . S
C1051 C1053 1.415 . S
C1052 C1051 1.355 . S
C1052 C1054 1.419 . S
C1053 C1048 1.425 . S
C1053 C1050 1.409 . S
C1053 C1051 1.415 . S
C1054 H1044 0.930 . S
C1054 C1052 1.419 . S
C1054 C1055 1.362 . S
C1055 H1045 0.930 . S
C1055 C1048 1.409 . S
C1055 C1054 1.362 . S
H1056 C1062 0.930 . S
H1057 C1065 0.930 . S
H1058 C1066 0.930 . S
H1059 C1067 0.930 . S
H1060 C1070 0.930 . S
H1061 C1071 0.930 . S
C1062 H1056 0.930 . S
C1062 C1063 1.355 . S
C1062 C1064 1.415 . S
C1063 C1062 1.355 . S
C1063 C1065 1.419 . S
C1064 C1062 1.415 . S
C1064 C1069 1.425 . S
C1064 C1071 1.409 . S
C1065 H1057 0.930 . S
C1065 C1063 1.419 . S
C1065 C1066 1.362 . S
C1066 H1058 0.930 . S
C1066 C1065 1.362 . S
C1066 C1069 1.409 . S
C1067 H1059 0.930 . S
C1067 C1068 1.355 . S
C1067 C1069 1.415 . S
C1068 C1067 1.355 . S
C1068 C1070 1.419 . S
C1069 C1064 1.425 . S
C1069 C1066 1.409 . S
C1069 C1067 1.415 . S
C1070 H1060 0.930 . S
C1070 C1068 1.419 . S
C1070 C1071 1.362 . S
C1071 H1061 0.930 . S
C1071 C1064 1.409 . S
C1071 C1070 1.362 . S
H1072 C1078 0.930 . S
H1073 C1081 0.930 . S
H1074 C1082 0.930 . S
H1075 C1083 0.930 . S
H1076 C1086 0.930 . S
H1077 C1087 0.930 . S
C1078 H1072 0.930 . S
C1078 C1079 1.355 . S
C1078 C1080 1.415 . S
C1079 C1078 1.355 . S
C1079 C1081 1.419 . S
C1080 C1078 1.415 . S
C1080 C1085 1.425 . S
C1080 C1087 1.409 . S
C1081 H1073 0.930 . S
C1081 C1079 1.419 . S
C1081 C1082 1.362 . S
C1082 H1074 0.930 . S
C1082 C1081 1.362 . S
C1082 C1085 1.409 . S
C1083 H1075 0.930 . S
C1083 C1084 1.355 . S
C1083 C1085 1.415 . S
C1084 C1083 1.355 . S
C1084 C1086 1.419 . S
C1085 C1080 1.425 . S
C1085 C1082 1.409 . S
C1085 C1083 1.415 . S
C1086 H1076 0.930 . S
C1086 C1084 1.419 . S
C1086 C1087 1.362 . S
C1087 H1077 0.930 . S
C1087 C1080 1.409 . S
C1087 C1086 1.362 . S
H1088 C1094 0.930 . S
H1089 C1097 0.930 . S
H1090 C1098 0.930 . S
H1091 C1099 0.930 . S
H1092 C1102 0.930 . S
H1093 C1103 0.930 . S
C1094 H1088 0.930 . S
C1094 C1095 1.355 . S
C1094 C1096 1.415 . S
C1095 C1094 1.355 . S
C1095 C1097 1.419 . S
C1096 C1094 1.415 . S
C1096 C1101 1.425 . S
C1096 C1103 1.409 . S
C1097 H1089 0.930 . S
C1097 C1095 1.419 . S
C1097 C1098 1.362 . S
C1098 H1090 0.930 . S
C1098 C1097 1.362 . S
C1098 C1101 1.409 . S
C1099 H1091 0.930 . S
C1099 C1100 1.355 . S
C1099 C1101 1.415 . S
C1100 C1099 1.355 . S
C1100 C1102 1.419 . S
C1101 C1096 1.425 . S
C1101 C1098 1.409 . S
C1101 C1099 1.415 . S
C1102 H1092 0.930 . S
C1102 C1100 1.419 . S
C1102 C1103 1.362 . S
C1103 H1093 0.930 . S
C1103 C1096 1.409 . S
C1103 C1102 1.362 . S
H1104 C1110 0.930 . S
H1105 C1113 0.930 . S
H1106 C1114 0.930 . S
H1107 C1115 0.930 . S
H1108 C1118 0.930 . S
H1109 C1119 0.930 . S
C1110 H1104 0.930 . S
C1110 C1111 1.355 . S
C1110 C1112 1.415 . S
C1111 C1110 1.355 . S
C1111 C1113 1.419 . S
C1112 C1110 1.415 . S
C1112 C1117 1.425 . S
C1112 C1119 1.409 . S
C1113 H1105 0.930 . S
C1113 C1111 1.419 . S
C1113 C1114 1.362 . S
C1114 H1106 0.930 . S
C1114 C1113 1.362 . S
C1114 C1117 1.409 . S
C1115 H1107 0.930 . S
C1115 C1116 1.355 . S
C1115 C1117 1.415 . S
C1116 C1115 1.355 . S
C1116 C1118 1.419 . S
C1117 C1112 1.425 . S
C1117 C1114 1.409 . S
C1117 C1115 1.415 . S
C1118 H1108 0.930 . S
C1118 C1116 1.419 . S
C1118 C1119 1.362 . S
C1119 H1109 0.930 . S
C1119 C1112 1.409 . S
C1119 C1118 1.362 . S
H1120 C1126 0.930 . S
H1121 C1129 0.930 . S
H1122 C1130 0.930 . S
H1123 C1131 0.930 . S
H1124 C1134 0.930 . S
H1125 C1135 0.930 . S
C1126 H1120 0.930 . S
C1126 C1127 1.355 . S
C1126 C1128 1.415 . S
C1127 C1126 1.355 . S
C1127 C1129 1.419 . S
C1128 C1126 1.415 . S
C1128 C1133 1.425 . S
C1128 C1135 1.409 . S
C1129 H1121 0.930 . S
C1129 C1127 1.419 . S
C1129 C1130 1.362 . S
C1130 H1122 0.930 . S
C1130 C1129 1.362 . S
C1130 C1133 1.409 . S
C1131 H1123 0.930 . S
C1131 C1132 1.355 . S
C1131 C1133 1.415 . S
C1132 C1131 1.355 . S
C1132 C1134 1.419 . S
C1133 C1128 1.425 . S
C1133 C1130 1.409 . S
C1133 C1131 1.415 . S
C1134 H1124 0.930 . S
C1134 C1132 1.419 . S
C1134 C1135 1.362 . S
C1135 H1125 0.930 . S
C1135 C1128 1.409 . S
C1135 C1134 1.362 . S
H1136 C1142 0.930 . S
H1137 C1145 0.930 . S
H1138 C1146 0.930 . S
H1139 C1147 0.930 . S
H1140 C1150 0.930 . S
H1141 C1151 0.930 . S
C1142 H1136 0.930 . S
C1142 C1143 1.355 . S
C1142 C1144 1.415 . S
C1143 C1142 1.355 . S
C1143 C1145 1.419 . S
C1144 C1142 1.415 . S
C1144 C1149 1.425 . S
C1144 C1151 1.409 . S
C1145 H1137 0.930 . S
C1145 C1143 1.419 . S
C1145 C1146 1.362 . S
C1146 H1138 0.930 . S
C1146 C1145 1.362 . S
C1146 C1149 1.409 . S
C1147 H1139 0.930 . S
C1147 C1148 1.355 . S
C1147 C1149 1.415 . S
C1148 C1147 1.355 . S
C1148 C1150 1.419 . S
C1149 C1144 1.425 . S
C1149 C1146 1.409 . S
C1149 C1147 1.415 . S
C1150 H1140 0.930 . S
C1150 C1148 1.419 . S
C1150 C1151 1.362 . S
C1151 H1141 0.930 . S
C1151 C1144 1.409 . S
C1151 C1150 1.362 . S
H1152 C1158 0.930 . S
H1153 C1161 0.930 . S
H1154 C1162 0.930 . S
H1155 C1163 0.930 . S
H1156 C1166 0.930 . S
H1157 C1167 0.930 . S
C1158 H1152 0.930 . S
C1158 C1159 1.355 . S
C1158 C1160 1.415 . S
C1159 C1158 1.355 . S
C1159 C1161 1.419 . S
C1160 C1158 1.415 . S
C1160 C1165 1.425 . S
C1160 C1167 1.409 . S
C1161 H1153 0.930 . S
C1161 C1159 1.419 . S
C1161 C1162 1.362 . S
C1162 H1154 0.930 . S
C1162 C1161 1.362 . S
C1162 C1165 1.409 . S
C1163 H1155 0.930 . S
C1163 C1164 1.355 . S
C1163 C1165 1.415 . S
C1164 C1163 1.355 . S
C1164 C1166 1.419 . S
C1165 C1160 1.425 . S
C1165 C1162 1.409 . S
C1165 C1163 1.415 . S
C1166 H1156 0.930 . S
C1166 C1164 1.419 . S
C1166 C1167 1.362 . S
C1167 H1157 0.930 . S
C1167 C1160 1.409 . S
C1167 C1166 1.362 . S
H1168 C1174 0.930 . S
H1169 C1177 0.930 . S
H1170 C1178 0.930 . S
H1171 C1179 0.930 . S
H1172 C1182 0.930 . S
H1173 C1183 0.930 . S
C1174 H1168 0.930 . S
C1174 C1175 1.355 . S
C1174 C1176 1.415 . S
C1175 C1174 1.355 . S
C1175 C1177 1.419 . S
C1176 C1174 1.415 . S
C1176 C1181 1.425 . S
C1176 C1183 1.409 . S
C1177 H1169 0.930 . S
C1177 C1175 1.419 . S
C1177 C1178 1.362 . S
C1178 H1170 0.930 . S
C1178 C1177 1.362 . S
C1178 C1181 1.409 . S
C1179 H1171 0.930 . S
C1179 C1180 1.355 . S
C1179 C1181 1.415 . S
C1180 C1179 1.355 . S
C1180 C1182 1.419 . S
C1181 C1176 1.425 . S
C1181 C1178 1.409 . S
C1181 C1179 1.415 . S
C1182 H1172 0.930 . S
C1182 C1180 1.419 . S
C1182 C1183 1.362 . S
C1183 H1173 0.930 . S
C1183 C1176 1.409 . S
C1183 C1182 1.362 . S
H1184 C1190 0.930 . S
H1185 C1193 0.930 . S
H1186 C1194 0.930 . S
H1187 C1195 0.930 . S
H1188 C1198 0.930 . S
H1189 C1199 0.930 . S
C1190 H1184 0.930 . S
C1190 C1191 1.355 . S
C1190 C1192 1.415 . S
C1191 C1190 1.355 . S
C1191 C1193 1.419 . S
C1192 C1190 1.415 . S
C1192 C1197 1.425 . S
C1192 C1199 1.409 . S
C1193 H1185 0.930 . S
C1193 C1191 1.419 . S
C1193 C1194 1.362 . S
C1194 H1186 0.930 . S
C1194 C1193 1.362 . S
C1194 C1197 1.409 . S
C1195 H1187 0.930 . S
C1195 C1196 1.355 . S
C1195 C1197 1.415 . S
C1196 C1195 1.355 . S
C1196 C1198 1.419 . S
C1197 C1192 1.425 . S
C1197 C1194 1.409 . S
C1197 C1195 1.415 . S
C1198 H1188 0.930 . S
C1198 C1196 1.419 . S
C1198 C1199 1.362 . S
C1199 H1189 0.930 . S
C1199 C1192 1.409 . S
C1199 C1198 1.362 . S
H1200 C1206 0.930 . S
H1201 C1209 0.930 . S
H1202 C1210 0.930 . S
H1203 C1211 0.930 . S
H1204 C1214 0.930 . S
H1205 C1215 0.930 . S
C1206 H1200 0.930 . S
C1206 C1207 1.355 . S
C1206 C1208 1.415 . S
C1207 C1206 1.355 . S
C1207 C1209 1.419 . S
C1208 C1206 1.415 . S
C1208 C1213 1.425 . S
C1208 C1215 1.409 . S
C1209 H1201 0.930 . S
C1209 C1207 1.419 . S
C1209 C1210 1.362 . S
C1210 H1202 0.930 . S
C1210 C1209 1.362 . S
C1210 C1213 1.409 . S
C1211 H1203 0.930 . S
C1211 C1212 1.355 . S
C1211 C1213 1.415 . S
C1212 C1211 1.355 . S
C1212 C1214 1.419 . S
C1213 C1208 1.425 . S
C1213 C1210 1.409 . S
C1213 C1211 1.415 . S
C1214 H1204 0.930 . S
C1214 C1212 1.419 . S
C1214 C1215 1.362 . S
C1215 H1205 0.930 . S
C1215 C1208 1.409 . S
C1215 C1214 1.362 . S
H1216 C1222 0.930 . S
H1217 C1225 0.930 . S
H1218 C1226 0.930 . S
H1219 C1227 0.930 . S
H1220 C1230 0.930 . S
H1221 C1231 0.930 . S
C1222 H1216 0.930 . S
C1222 C1223 1.355 . S
C1222 C1224 1.415 . S
C1223 C1222 1.355 . S
C1223 C1225 1.419 . S
C1224 C1222 1.415 . S
C1224 C1229 1.425 . S
C1224 C1231 1.409 . S
C1225 H1217 0.930 . S
C1225 C1223 1.419 . S
C1225 C1226 1.362 . S
C1226 H1218 0.930 . S
C1226 C1225 1.362 . S
C1226 C1229 1.409 . S
C1227 H1219 0.930 . S
C1227 C1228 1.355 . S
C1227 C1229 1.415 . S
C1228 C1227 1.355 . S
C1228 C1230 1.419 . S
C1229 C1224 1.425 . S
C1229 C1226 1.409 . S
C1229 C1227 1.415 . S
C1230 H1220 0.930 . S
C1230 C1228 1.419 . S
C1230 C1231 1.362 . S
C1231 H1221 0.930 . S
C1231 C1224 1.409 . S
C1231 C1230 1.362 . S
H1232 C1238 0.930 . S
H1233 C1241 0.930 . S
H1234 C1242 0.930 . S
H1235 C1243 0.930 . S
H1236 C1246 0.930 . S
H1237 C1247 0.930 . S
C1238 H1232 0.930 . S
C1238 C1239 1.355 . S
C1238 C1240 1.415 . S
C1239 C1238 1.355 . S
C1239 C1241 1.419 . S
C1240 C1238 1.415 . S
C1240 C1245 1.425 . S
C1240 C1247 1.409 . S
C1241 H1233 0.930 . S
C1241 C1239 1.419 . S
C1241 C1242 1.362 . S
C1242 H1234 0.930 . S
C1242 C1241 1.362 . S
C1242 C1245 1.409 . S
C1243 H1235 0.930 . S
C1243 C1244 1.355 . S
C1243 C1245 1.415 . S
C1244 C1243 1.355 . S
C1244 C1246 1.419 . S
C1245 C1240 1.425 . S
C1245 C1242 1.409 . S
C1245 C1243 1.415 . S
C1246 H1236 0.930 . S
C1246 C1244 1.419 . S
C1246 C1247 1.362 . S
C1247 H1237 0.930 . S
C1247 C1240 1.409 . S
C1247 C1246 1.362 . S
H1248 C1254 0.930 . S
H1249 C1257 0.930 . S
H1250 C1258 0.930 . S
H1251 C1259 0.930 . S
H1252 C1262 0.930 . S
H1253 C1263 0.930 . S
C1254 H1248 0.930 . S
C1254 C1255 1.355 . S
C1254 C1256 1.415 . S
C1255 C1254 1.355 . S
C1255 C1257 1.419 . S
C1256 C1254 1.415 . S
C1256 C1261 1.425 . S
C1256 C1263 1.409 . S
C1257 H1249 0.930 . S
C1257 C1255 1.419 . S
C1257 C1258 1.362 . S
C1258 H1250 0.930 . S
C1258 C1257 1.362 . S
C1258 C1261 1.409 . S
C1259 H1251 0.930 . S
C1259 C1260 1.355 . S
C1259 C1261 1.415 . S
C1260 C1259 1.355 . S
C1260 C1262 1.419 . S
C1261 C1256 1.425 . S
C1261 C1258 1.409 . S
C1261 C1259 1.415 . S
C1262 H1252 0.930 . S
C1262 C1260 1.419 . S
C1262 C1263 1.362 . S
C1263 H1253 0.930 . S
C1263 C1256 1.409 . S
C1263 C1262 1.362 . S
H1264 C1270 0.930 . S
H1265 C1273 0.930 . S
H1266 C1274 0.930 . S
H1267 C1275 0.930 . S
H1268 C1278 0.930 . S
H1269 C1279 0.930 . S
C1270 H1264 0.930 . S
C1270 C1271 1.355 . S
C1270 C1272 1.415 . S
C1271 C1270 1.355 . S
C1271 C1273 1.419 1_556 S
C1272 C1270 1.415 . S
C1272 C1277 1.425 1_556 S
C1272 C1279 1.409 . S
C1273 H1265 0.930 . S
C1273 C1271 1.419 1_554 S
C1273 C1274 1.362 . S
C1274 H1266 0.930 . S
C1274 C1273 1.362 . S
C1274 C1277 1.409 . S
C1275 H1267 0.930 . S
C1275 C1276 1.355 . S
C1275 C1277 1.415 . S
C1276 C1275 1.355 . S
C1276 C1278 1.419 1_554 S
C1277 C1272 1.425 1_554 S
C1277 C1274 1.409 . S
C1277 C1275 1.415 . S
C1278 H1268 0.930 . S
C1278 C1276 1.419 1_556 S
C1278 C1279 1.362 . S
C1279 H1269 0.930 . S
C1279 C1272 1.409 . S
C1279 C1278 1.362 . S
H1280 C1286 0.930 . S
H1281 C1289 0.930 . S
H1282 C1290 0.930 . S
H1283 C1291 0.930 . S
H1284 C1294 0.930 . S
H1285 C1295 0.930 . S
C1286 H1280 0.930 . S
C1286 C1287 1.355 . S
C1286 C1288 1.415 . S
C1287 C1286 1.355 . S
C1287 C1289 1.419 . S
C1288 C1286 1.415 . S
C1288 C1293 1.425 . S
C1288 C1295 1.409 . S
C1289 H1281 0.930 . S
C1289 C1287 1.419 . S
C1289 C1290 1.362 . S
C1290 H1282 0.930 . S
C1290 C1289 1.362 . S
C1290 C1293 1.409 . S
C1291 H1283 0.930 . S
C1291 C1292 1.355 . S
C1291 C1293 1.415 . S
C1292 C1291 1.355 . S
C1292 C1294 1.419 . S
C1293 C1288 1.425 . S
C1293 C1290 1.409 . S
C1293 C1291 1.415 . S
C1294 H1284 0.930 . S
C1294 C1292 1.419 . S
C1294 C1295 1.362 . S
C1295 H1285 0.930 . S
C1295 C1288 1.409 . S
C1295 C1294 1.362 . S
H1296 C1302 0.930 . S
H1297 C1305 0.930 . S
H1298 C1306 0.930 . S
H1299 C1307 0.930 . S
H1300 C1310 0.930 . S
H1301 C1311 0.930 . S
C1302 H1296 0.930 . S
C1302 C1303 1.355 . S
C1302 C1304 1.415 . S
C1303 C1302 1.355 . S
C1303 C1305 1.419 . S
C1304 C1302 1.415 . S
C1304 C1309 1.425 . S
C1304 C1311 1.409 . S
C1305 H1297 0.930 . S
C1305 C1303 1.419 . S
C1305 C1306 1.362 . S
C1306 H1298 0.930 . S
C1306 C1305 1.362 . S
C1306 C1309 1.409 . S
C1307 H1299 0.930 . S
C1307 C1308 1.355 . S
C1307 C1309 1.415 . S
C1308 C1307 1.355 . S
C1308 C1310 1.419 . S
C1309 C1304 1.425 . S
C1309 C1306 1.409 . S
C1309 C1307 1.415 . S
C1310 H1300 0.930 . S
C1310 C1308 1.419 . S
C1310 C1311 1.362 . S
C1311 H1301 0.930 . S
C1311 C1304 1.409 . S
C1311 C1310 1.362 . S
H1312 C1318 0.930 . S
H1313 C1321 0.930 . S
H1314 C1322 0.930 . S
H1315 C1323 0.930 . S
H1316 C1326 0.930 . S
H1317 C1327 0.930 . S
C1318 H1312 0.930 . S
C1318 C1319 1.355 . S
C1318 C1320 1.415 . S
C1319 C1318 1.355 . S
C1319 C1321 1.419 . S
C1320 C1318 1.415 . S
C1320 C1325 1.425 . S
C1320 C1327 1.409 . S
C1321 H1313 0.930 . S
C1321 C1319 1.419 . S
C1321 C1322 1.362 . S
C1322 H1314 0.930 . S
C1322 C1321 1.362 . S
C1322 C1325 1.409 . S
C1323 H1315 0.930 . S
C1323 C1324 1.355 . S
C1323 C1325 1.415 . S
C1324 C1323 1.355 . S
C1324 C1326 1.419 . S
C1325 C1320 1.425 . S
C1325 C1322 1.409 . S
C1325 C1323 1.415 . S
C1326 H1316 0.930 . S
C1326 C1324 1.419 . S
C1326 C1327 1.362 . S
C1327 H1317 0.930 . S
C1327 C1320 1.409 . S
C1327 C1326 1.362 . S
H1328 C1334 0.930 . S
H1329 C1337 0.930 . S
H1330 C1338 0.930 . S
H1331 C1339 0.930 . S
H1332 C1342 0.930 . S
H1333 C1343 0.930 . S
C1334 H1328 0.930 . S
C1334 C1335 1.355 . S
C1334 C1336 1.415 . S
C1335 C1334 1.355 . S
C1335 C1337 1.419 . S
C1336 C1334 1.415 . S
C1336 C1341 1.425 . S
C1336 C1343 1.409 . S
C1337 H1329 0.930 . S
C1337 C1335 1.419 . S
C1337 C1338 1.362 . S
C1338 H1330 0.930 . S
C1338 C1337 1.362 . S
C1338 C1341 1.409 . S
C1339 H1331 0.930 . S
C1339 C1340 1.355 . S
C1339 C1341 1.415 . S
C1340 C1339 1.355 . S
C1340 C1342 1.419 . S
C1341 C1336 1.425 . S
C1341 C1338 1.409 . S
C1341 C1339 1.415 . S
C1342 H1332 0.930 . S
C1342 C1340 1.419 . S
C1342 C1343 1.362 . S
C1343 H1333 0.930 . S
C1343 C1336 1.409 . S
C1343 C1342 1.362 . S
H1344 C1350 0.930 . S
H1345 C1353 0.930 . S
H1346 C1354 0.930 . S
H1347 C1355 0.930 . S
H1348 C1358 0.930 . S
H1349 C1359 0.930 . S
C1350 H1344 0.930 . S
C1350 C1351 1.355 . S
C1350 C1352 1.415 . S
C1351 C1350 1.355 . S
C1351 C1353 1.419 1_554 S
C1352 C1350 1.415 . S
C1352 C1357 1.425 1_554 S
C1352 C1359 1.409 . S
C1353 H1345 0.930 . S
C1353 C1351 1.419 1_556 S
C1353 C1354 1.362 . S
C1354 H1346 0.930 . S
C1354 C1353 1.362 . S
C1354 C1357 1.409 . S
C1355 H1347 0.930 . S
C1355 C1356 1.355 1_556 S
C1355 C1357 1.415 . S
C1356 C1355 1.355 1_554 S
C1356 C1358 1.419 . S
C1357 C1352 1.425 1_556 S
C1357 C1354 1.409 . S
C1357 C1355 1.415 . S
C1358 H1348 0.930 . S
C1358 C1356 1.419 . S
C1358 C1359 1.362 . S
C1359 H1349 0.930 . S
C1359 C1352 1.409 . S
C1359 C1358 1.362 . S
H1360 C1366 0.930 . S
H1361 C1369 0.930 . S
H1362 C1370 0.930 . S
H1363 C1371 0.930 . S
H1364 C1374 0.930 . S
H1365 C1375 0.930 . S
C1366 H1360 0.930 . S
C1366 C1367 1.355 . S
C1366 C1368 1.415 . S
C1367 C1366 1.355 . S
C1367 C1369 1.419 . S
C1368 C1366 1.415 . S
C1368 C1373 1.425 . S
C1368 C1375 1.409 . S
C1369 H1361 0.930 . S
C1369 C1367 1.419 . S
C1369 C1370 1.362 . S
C1370 H1362 0.930 . S
C1370 C1369 1.362 . S
C1370 C1373 1.409 . S
C1371 H1363 0.930 . S
C1371 C1372 1.355 . S
C1371 C1373 1.415 . S
C1372 C1371 1.355 . S
C1372 C1374 1.419 . S
C1373 C1368 1.425 . S
C1373 C1370 1.409 . S
C1373 C1371 1.415 . S
C1374 H1364 0.930 . S
C1374 C1372 1.419 . S
C1374 C1375 1.362 . S
C1375 H1365 0.930 . S
C1375 C1368 1.409 . S
C1375 C1374 1.362 . S
H1376 C1382 0.930 . S
H1377 C1385 0.930 . S
H1378 C1386 0.930 . S
H1379 C1387 0.930 . S
H1380 C1390 0.930 . S
H1381 C1391 0.930 . S
C1382 H1376 0.930 . S
C1382 C1383 1.355 . S
C1382 C1384 1.415 . S
C1383 C1382 1.355 . S
C1383 C1385 1.419 . S
C1384 C1382 1.415 . S
C1384 C1389 1.425 . S
C1384 C1391 1.409 . S
C1385 H1377 0.930 . S
C1385 C1383 1.419 . S
C1385 C1386 1.362 . S
C1386 H1378 0.930 . S
C1386 C1385 1.362 . S
C1386 C1389 1.409 . S
C1387 H1379 0.930 . S
C1387 C1388 1.355 . S
C1387 C1389 1.415 . S
C1388 C1387 1.355 . S
C1388 C1390 1.419 . S
C1389 C1384 1.425 . S
C1389 C1386 1.409 . S
C1389 C1387 1.415 . S
C1390 H1380 0.930 . S
C1390 C1388 1.419 . S
C1390 C1391 1.362 . S
C1391 H1381 0.930 . S
C1391 C1384 1.409 . S
C1391 C1390 1.362 . S
H1392 C1398 0.930 . S
H1393 C1401 0.930 . S
H1394 C1402 0.930 . S
H1395 C1403 0.930 . S
H1396 C1406 0.930 . S
H1397 C1407 0.930 . S
C1398 H1392 0.930 . S
C1398 C1399 1.355 . S
C1398 C1400 1.415 . S
C1399 C1398 1.355 . S
C1399 C1401 1.419 . S
C1400 C1398 1.415 . S
C1400 C1405 1.425 . S
C1400 C1407 1.409 . S
C1401 H1393 0.930 . S
C1401 C1399 1.419 . S
C1401 C1402 1.362 . S
C1402 H1394 0.930 . S
C1402 C1401 1.362 . S
C1402 C1405 1.409 . S
C1403 H1395 0.930 . S
C1403 C1404 1.355 . S
C1403 C1405 1.415 . S
C1404 C1403 1.355 . S
C1404 C1406 1.419 . S
C1405 C1400 1.425 . S
C1405 C1402 1.409 . S
C1405 C1403 1.415 . S
C1406 H1396 0.930 . S
C1406 C1404 1.419 . S
C1406 C1407 1.362 . S
C1407 H1397 0.930 . S
C1407 C1400 1.409 . S
C1407 C1406 1.362 . S
H1408 C1414 0.930 . S
H1409 C1417 0.930 . S
H1410 C1418 0.930 . S
H1411 C1419 0.930 . S
H1412 C1422 0.930 . S
H1413 C1423 0.930 . S
C1414 H1408 0.930 . S
C1414 C1415 1.355 . S
C1414 C1416 1.415 . S
C1415 C1414 1.355 . S
C1415 C1417 1.419 . S
C1416 C1414 1.415 . S
C1416 C1421 1.425 . S
C1416 C1423 1.409 . S
C1417 H1409 0.930 . S
C1417 C1415 1.419 . S
C1417 C1418 1.362 . S
C1418 H1410 0.930 . S
C1418 C1417 1.362 . S
C1418 C1421 1.409 . S
C1419 H1411 0.930 . S
C1419 C1420 1.355 . S
C1419 C1421 1.415 . S
C1420 C1419 1.355 . S
C1420 C1422 1.419 . S
C1421 C1416 1.425 . S
C1421 C1418 1.409 . S
C1421 C1419 1.415 . S
C1422 H1412 0.930 . S
C1422 C1420 1.419 . S
C1422 C1423 1.362 . S
C1423 H1413 0.930 . S
C1423 C1416 1.409 . S
C1423 C1422 1.362 . S
H1424 C1430 0.930 . S
H1425 C1433 0.930 . S
H1426 C1434 0.930 . S
H1427 C1435 0.930 . S
H1428 C1438 0.930 . S
H1429 C1439 0.930 . S
C1430 H1424 0.930 . S
C1430 C1431 1.355 . S
C1430 C1432 1.415 . S
C1431 C1430 1.355 . S
C1431 C1433 1.419 . S
C1432 C1430 1.415 . S
C1432 C1437 1.425 . S
C1432 C1439 1.409 . S
C1433 H1425 0.930 . S
C1433 C1431 1.419 . S
C1433 C1434 1.362 . S
C1434 H1426 0.930 . S
C1434 C1433 1.362 . S
C1434 C1437 1.409 . S
C1435 H1427 0.930 . S
C1435 C1436 1.355 . S
C1435 C1437 1.415 . S
C1436 C1435 1.355 . S
C1436 C1438 1.419 . S
C1437 C1432 1.425 . S
C1437 C1434 1.409 . S
C1437 C1435 1.415 . S
C1438 H1428 0.930 . S
C1438 C1436 1.419 . S
C1438 C1439 1.362 . S
C1439 H1429 0.930 . S
C1439 C1432 1.409 . S
C1439 C1438 1.362 . S
H1440 C1446 0.930 . S
H1441 C1449 0.930 . S
H1442 C1450 0.930 . S
H1443 C1451 0.930 . S
H1444 C1454 0.930 . S
H1445 C1455 0.930 . S
C1446 H1440 0.930 . S
C1446 C1447 1.355 . S
C1446 C1448 1.415 . S
C1447 C1446 1.355 . S
C1447 C1449 1.419 . S
C1448 C1446 1.415 . S
C1448 C1453 1.425 . S
C1448 C1455 1.409 . S
C1449 H1441 0.930 . S
C1449 C1447 1.419 . S
C1449 C1450 1.362 . S
C1450 H1442 0.930 . S
C1450 C1449 1.362 . S
C1450 C1453 1.409 . S
C1451 H1443 0.930 . S
C1451 C1452 1.355 . S
C1451 C1453 1.415 . S
C1452 C1451 1.355 . S
C1452 C1454 1.419 . S
C1453 C1448 1.425 . S
C1453 C1450 1.409 . S
C1453 C1451 1.415 . S
C1454 H1444 0.930 . S
C1454 C1452 1.419 . S
C1454 C1455 1.362 . S
C1455 H1445 0.930 . S
C1455 C1448 1.409 . S
C1455 C1454 1.362 . S
H1456 C1462 0.930 . S
H1457 C1465 0.930 . S
H1458 C1466 0.930 . S
H1459 C1467 0.930 . S
H1460 C1470 0.930 . S
H1461 C1471 0.930 . S
C1462 H1456 0.930 . S
C1462 C1463 1.355 . S
C1462 C1464 1.415 . S
C1463 C1462 1.355 . S
C1463 C1465 1.419 . S
C1464 C1462 1.415 . S
C1464 C1469 1.425 . S
C1464 C1471 1.409 . S
C1465 H1457 0.930 . S
C1465 C1463 1.419 . S
C1465 C1466 1.362 . S
C1466 H1458 0.930 . S
C1466 C1465 1.362 . S
C1466 C1469 1.409 . S
C1467 H1459 0.930 . S
C1467 C1468 1.355 . S
C1467 C1469 1.415 . S
C1468 C1467 1.355 . S
C1468 C1470 1.419 . S
C1469 C1464 1.425 . S
C1469 C1466 1.409 . S
C1469 C1467 1.415 . S
C1470 H1460 0.930 . S
C1470 C1468 1.419 . S
C1470 C1471 1.362 . S
C1471 H1461 0.930 . S
C1471 C1464 1.409 . S
C1471 C1470 1.362 . S
H1472 C1478 0.930 . S
H1473 C1481 0.930 . S
H1474 C1482 0.930 . S
H1475 C1483 0.930 . S
H1476 C1486 0.930 . S
H1477 C1487 0.930 . S
C1478 H1472 0.930 . S
C1478 C1479 1.355 . S
C1478 C1480 1.415 . S
C1479 C1478 1.355 . S
C1479 C1481 1.419 . S
C1480 C1478 1.415 . S
C1480 C1485 1.425 . S
C1480 C1487 1.409 . S
C1481 H1473 0.930 . S
C1481 C1479 1.419 . S
C1481 C1482 1.362 . S
C1482 H1474 0.930 . S
C1482 C1481 1.362 . S
C1482 C1485 1.409 . S
C1483 H1475 0.930 . S
C1483 C1484 1.355 . S
C1483 C1485 1.415 . S
C1484 C1483 1.355 . S
C1484 C1486 1.419 . S
C1485 C1480 1.425 . S
C1485 C1482 1.409 . S
C1485 C1483 1.415 . S
C1486 H1476 0.930 . S
C1486 C1484 1.419 . S
C1486 C1487 1.362 . S
C1487 H1477 0.930 . S
C1487 C1480 1.409 . S
C1487 C1486 1.362 . S
H1488 C1494 0.930 . S
H1489 C1497 0.930 . S
H1490 C1498 0.930 . S
H1491 C1499 0.930 . S
H1492 C1502 0.930 . S
H1493 C1503 0.930 . S
C1494 H1488 0.930 . S
C1494 C1495 1.355 . S
C1494 C1496 1.415 . S
C1495 C1494 1.355 . S
C1495 C1497 1.419 . S
C1496 C1494 1.415 . S
C1496 C1501 1.425 . S
C1496 C1503 1.409 . S
C1497 H1489 0.930 . S
C1497 C1495 1.419 . S
C1497 C1498 1.362 . S
C1498 H1490 0.930 . S
C1498 C1497 1.362 . S
C1498 C1501 1.409 . S
C1499 H1491 0.930 . S
C1499 C1500 1.355 . S
C1499 C1501 1.415 . S
C1500 C1499 1.355 . S
C1500 C1502 1.419 . S
C1501 C1496 1.425 . S
C1501 C1498 1.409 . S
C1501 C1499 1.415 . S
C1502 H1492 0.930 . S
C1502 C1500 1.419 . S
C1502 C1503 1.362 . S
C1503 H1493 0.930 . S
C1503 C1496 1.409 . S
C1503 C1502 1.362 . S
H1504 C1510 0.930 . S
H1505 C1513 0.930 . S
H1506 C1514 0.930 . S
H1507 C1515 0.930 . S
H1508 C1518 0.930 . S
H1509 C1519 0.930 . S
C1510 H1504 0.930 . S
C1510 C1511 1.355 . S
C1510 C1512 1.415 . S
C1511 C1510 1.355 . S
C1511 C1513 1.419 . S
C1512 C1510 1.415 . S
C1512 C1517 1.425 . S
C1512 C1519 1.409 . S
C1513 H1505 0.930 . S
C1513 C1511 1.419 . S
C1513 C1514 1.362 . S
C1514 H1506 0.930 . S
C1514 C1513 1.362 . S
C1514 C1517 1.409 . S
C1515 H1507 0.930 . S
C1515 C1516 1.355 . S
C1515 C1517 1.415 . S
C1516 C1515 1.355 . S
C1516 C1518 1.419 . S
C1517 C1512 1.425 . S
C1517 C1514 1.409 . S
C1517 C1515 1.415 . S
C1518 H1508 0.930 . S
C1518 C1516 1.419 . S
C1518 C1519 1.362 . S
C1519 H1509 0.930 . S
C1519 C1512 1.409 . S
C1519 C1518 1.362 . S
H1520 C1526 0.930 . S
H1521 C1529 0.930 . S
H1522 C1530 0.930 . S
H1523 C1531 0.930 . S
H1524 C1534 0.930 . S
H1525 C1535 0.930 . S
C1526 H1520 0.930 . S
C1526 C1527 1.355 . S
C1526 C1528 1.415 . S
C1527 C1526 1.355 . S
C1527 C1529 1.419 . S
C1528 C1526 1.415 . S
C1528 C1533 1.425 . S
C1528 C1535 1.409 . S
C1529 H1521 0.930 . S
C1529 C1527 1.419 . S
C1529 C1530 1.362 . S
C1530 H1522 0.930 . S
C1530 C1529 1.362 . S
C1530 C1533 1.409 . S
C1531 H1523 0.930 . S
C1531 C1532 1.355 . S
C1531 C1533 1.415 . S
C1532 C1531 1.355 . S
C1532 C1534 1.419 . S
C1533 C1528 1.425 . S
C1533 C1530 1.409 . S
C1533 C1531 1.415 . S
C1534 H1524 0.930 . S
C1534 C1532 1.419 . S
C1534 C1535 1.362 . S
C1535 H1525 0.930 . S
C1535 C1528 1.409 . S
C1535 C1534 1.362 . S
H1536 C1542 0.930 . S
H1537 C1545 0.930 . S
H1538 C1546 0.930 . S
H1539 C1547 0.930 . S
H1540 C1550 0.930 . S
H1541 C1551 0.930 . S
C1542 H1536 0.930 . S
C1542 C1543 1.355 . S
C1542 C1544 1.415 . S
C1543 C1542 1.355 . S
C1543 C1545 1.419 . S
C1544 C1542 1.415 . S
C1544 C1549 1.425 . S
C1544 C1551 1.409 . S
C1545 H1537 0.930 . S
C1545 C1543 1.419 . S
C1545 C1546 1.362 . S
C1546 H1538 0.930 . S
C1546 C1545 1.362 . S
C1546 C1549 1.409 . S
C1547 H1539 0.930 . S
C1547 C1548 1.355 . S
C1547 C1549 1.415 . S
C1548 C1547 1.355 . S
C1548 C1550 1.419 . S
C1549 C1544 1.425 . S
C1549 C1546 1.409 . S
C1549 C1547 1.415 . S
C1550 H1540 0.930 . S
C1550 C1548 1.419 . S
C1550 C1551 1.362 . S
C1551 H1541 0.930 . S
C1551 C1544 1.409 . S
C1551 C1550 1.362 . S
H1552 C1558 0.930 . S
H1553 C1561 0.930 . S
H1554 C1562 0.930 . S
H1555 C1563 0.930 . S
H1556 C1566 0.930 . S
H1557 C1567 0.930 . S
C1558 H1552 0.930 . S
C1558 C1559 1.355 . S
C1558 C1560 1.415 . S
C1559 C1558 1.355 . S
C1559 C1561 1.419 . S
C1560 C1558 1.415 . S
C1560 C1565 1.425 . S
C1560 C1567 1.409 . S
C1561 H1553 0.930 . S
C1561 C1559 1.419 . S
C1561 C1562 1.362 . S
C1562 H1554 0.930 . S
C1562 C1561 1.362 . S
C1562 C1565 1.409 . S
C1563 H1555 0.930 . S
C1563 C1564 1.355 . S
C1563 C1565 1.415 . S
C1564 C1563 1.355 . S
C1564 C1566 1.419 . S
C1565 C1560 1.425 . S
C1565 C1562 1.409 . S
C1565 C1563 1.415 . S
C1566 H1556 0.930 . S
C1566 C1564 1.419 . S
C1566 C1567 1.362 . S
C1567 H1557 0.930 . S
C1567 C1560 1.409 . S
C1567 C1566 1.362 . S
H1568 C1574 0.930 . S
H1569 C1577 0.930 . S
H1570 C1578 0.930 . S
H1571 C1579 0.930 . S
H1572 C1582 0.930 . S
H1573 C1583 0.930 . S
C1574 H1568 0.930 . S
C1574 C1575 1.355 . S
C1574 C1576 1.415 . S
C1575 C1574 1.355 . S
C1575 C1577 1.419 . S
C1576 C1574 1.415 . S
C1576 C1581 1.425 . S
C1576 C1583 1.409 . S
C1577 H1569 0.930 . S
C1577 C1575 1.419 . S
C1577 C1578 1.362 . S
C1578 H1570 0.930 . S
C1578 C1577 1.362 . S
C1578 C1581 1.409 . S
C1579 H1571 0.930 . S
C1579 C1580 1.355 . S
C1579 C1581 1.415 . S
C1580 C1579 1.355 . S
C1580 C1582 1.419 . S
C1581 C1576 1.425 . S
C1581 C1578 1.409 . S
C1581 C1579 1.415 . S
C1582 H1572 0.930 . S
C1582 C1580 1.419 . S
C1582 C1583 1.362 . S
C1583 H1573 0.930 . S
C1583 C1576 1.409 . S
C1583 C1582 1.362 . S
C1015 C487 1.603 . S
C1020 C58 1.170 . S
C1031 C142 1.254 . S
C1036 C67 1.782 . S
C1047 C226 1.287 . S
C1052 C151 1.721 . S
C1063 C235 1.665 . S
C1068 C310 1.274 . S
C1079 C319 1.811 . S
C1084 C394 1.319 . S
C1095 C478 1.344 . S
C1100 C403 1.738 . S
C1111 C655 1.611 . S
C1116 C562 1.163 . S
C1127 C646 1.285 . S
C1132 C739 1.747 . S
C1143 C823 1.858 . S
C1148 C730 1.380 . S
C1159 C907 1.646 . S
C1164 C814 1.223 . S
C1175 C991 1.741 . S
C1180 C898 1.280 . S
C1191 C571 1.789 . S
C1196 C982 1.270 . S
C1207 C980 3.563 . S
C1212 C55 3.501 . S
C1223 C139 2.982 . S
C1228 C560 3.038 . S
C1239 C644 3.302 . S
C1244 C223 3.209 . S
C1255 C728 3.562 . S
C1260 C307 3.502 . S
C1271 C812 3.016 . S
C1276 C391 2.966 . S
C1287 C475 3.215 . S
C1292 C896 3.307 . S
C1303 C559 3.501 . S
C1308 C140 3.558 . S
C1319 C643 3.211 . S
C1324 C224 3.294 . S
C1335 C308 3.041 . S
C1340 C727 2.978 . S
C1351 C392 3.559 . S
C1356 C811 3.504 1_554 S
C1367 C895 3.227 . S
C1372 C476 3.315 . S
C1383 C979 2.945 . S
C1388 C56 3.021 . S
C1399 C572 2.476 . S
C1404 C68 2.494 . S
C1415 C152 1.682 . S
C1420 C656 1.739 . S
C1431 C740 1.692 . S
C1436 C236 1.746 . S
C1447 C320 2.515 . S
C1452 C824 2.495 . S
C1463 C908 1.736 . S
C1468 C404 1.737 . S
C1479 C992 1.720 . S
C1484 C488 1.705 . S
C1495 C574 0.520 . S
C1500 C70 0.375 . S
C1511 C658 0.326 . S
C1516 C154 0.301 . S
C1527 C742 0.413 . S
C1532 C238 0.220 . S
C1543 C322 0.521 . S
C1548 C826 0.377 . S
C1559 C910 0.437 . S
C1564 C406 0.255 . S
C1575 C994 0.257 . S
C1580 C490 0.372 . S
