# Generated by pormake.
# Topology acs-a, (4)-cn, num edge types: 1
# Building blocks:
#     Node 0, Type 0, BuildingBlock: ICAMEG_clean_sbu_1, # of connection points: 4
#     Node 1, Type 0, BuildingBlock: ICAMEG_clean_sbu_1, # of connection points: 4
#     Node 2, Type 0, BuildingBlock: ICAMEG_clean_sbu_1, # of connection points: 4
#     Node 3, Type 0, BuildingBlock: ICAMEG_clean_sbu_1, # of connection points: 4
#     Node 4, Type 0, BuildingBlock: ICAMEG_clean_sbu_1, # of connection points: 4
#     Node 5, Type 0, BuildingBlock: ICAMEG_clean_sbu_1, # of connection points: 4
#     Node 6, Type 0, BuildingBlock: ICAMEG_clean_sbu_1, # of connection points: 4
#     Node 7, Type 0, BuildingBlock: ICAMEG_clean_sbu_1, # of connection points: 4
#     Node 8, Type 0, BuildingBlock: ICAMEG_clean_sbu_1, # of connection points: 4
#     Node 9, Type 0, BuildingBlock: ICAMEG_clean_sbu_1, # of connection points: 4
#     Node 10, Type 0, BuildingBlock: ICAMEG_clean_sbu_1, # of connection points: 4
#     Node 11, Type 0, BuildingBlock: ICAMEG_clean_sbu_1, # of connection points: 4
#     Edge 12, Type (0, 0), BuildingBlock: XIVTED_clean_linker_0, # of connection points: 2
#     Edge 13, Type (0, 0), BuildingBlock: XIVTED_clean_linker_0, # of connection points: 2
#     Edge 14, Type (0, 0), BuildingBlock: XIVTED_clean_linker_0, # of connection points: 2
#     Edge 15, Type (0, 0), BuildingBlock: XIVTED_clean_linker_0, # of connection points: 2
#     Edge 16, Type (0, 0), BuildingBlock: XIVTED_clean_linker_0, # of connection points: 2
#     Edge 17, Type (0, 0), BuildingBlock: XIVTED_clean_linker_0, # of connection points: 2
#     Edge 18, Type (0, 0), BuildingBlock: XIVTED_clean_linker_0, # of connection points: 2
#     Edge 19, Type (0, 0), BuildingBlock: XIVTED_clean_linker_0, # of connection points: 2
#     Edge 20, Type (0, 0), BuildingBlock: XIVTED_clean_linker_0, # of connection points: 2
#     Edge 21, Type (0, 0), BuildingBlock: XIVTED_clean_linker_0, # of connection points: 2
#     Edge 22, Type (0, 0), BuildingBlock: XIVTED_clean_linker_0, # of connection points: 2
#     Edge 23, Type (0, 0), BuildingBlock: XIVTED_clean_linker_0, # of connection points: 2
#     Edge 24, Type (0, 0), BuildingBlock: XIVTED_clean_linker_0, # of connection points: 2
#     Edge 25, Type (0, 0), BuildingBlock: XIVTED_clean_linker_0, # of connection points: 2
#     Edge 26, Type (0, 0), BuildingBlock: XIVTED_clean_linker_0, # of connection points: 2
#     Edge 27, Type (0, 0), BuildingBlock: XIVTED_clean_linker_0, # of connection points: 2
#     Edge 28, Type (0, 0), BuildingBlock: XIVTED_clean_linker_0, # of connection points: 2
#     Edge 29, Type (0, 0), BuildingBlock: XIVTED_clean_linker_0, # of connection points: 2
#     Edge 30, Type (0, 0), BuildingBlock: XIVTED_clean_linker_0, # of connection points: 2
#     Edge 31, Type (0, 0), BuildingBlock: XIVTED_clean_linker_0, # of connection points: 2
#     Edge 32, Type (0, 0), BuildingBlock: XIVTED_clean_linker_0, # of connection points: 2
#     Edge 33, Type (0, 0), BuildingBlock: XIVTED_clean_linker_0, # of connection points: 2
#     Edge 34, Type (0, 0), BuildingBlock: XIVTED_clean_linker_0, # of connection points: 2
#     Edge 35, Type (0, 0), BuildingBlock: XIVTED_clean_linker_0, # of connection points: 2
# Relax obj value: 0.495
# Max RMSD: 0.318
# Mean RMSD: 0.247
data_MOF--net-acs-a--node1-ICAMEG_clean_sbu_1--edge1-XIVTED_clean_linker_0
_symmetry_space_group_name_H-M    P1
_symmetry_Int_Tables_number       1
_symmetry_cell_setting            triclinic
loop_
_symmetry_equiv_pos_as_xyz
'x, y, z'
_cell_length_a     54.560214
_cell_length_b     44.948896
_cell_length_c     44.110752
_cell_angle_alpha  89.929402
_cell_angle_beta   90.020525
_cell_angle_gamma 114.37588
loop_
_atom_site_label
_atom_site_type_symbol
_atom_site_fract_x
_atom_site_fract_y
_atom_site_fract_z
_atom_type_partial_charge
Co0 Co 0.62359 0.16853 0.14039 0.0
Co1 Co 0.59465 0.15409 0.07027 0.0
O2 O 0.59611 0.13988 0.11215 0.0
C3 C 0.6131 0.09923 0.15923 0.0
O4 O 0.59538 0.08632 0.13759 0.0
C5 C 0.53655 0.1225 0.08906 0.0
O6 O 0.54272 0.13421 0.1166 0.0
O7 O 0.58991 0.19274 0.08606 0.0
O8 O 0.62218 0.2085 0.12151 0.0
H9 H 0.61776 0.2368 0.98624 0.0
H10 H 0.57176 0.11622 0.16328 0.0
O11 O 0.62615 0.13009 0.16133 0.0
H12 H 0.57911 0.21774 0.21254 0.0
H13 H 0.67077 0.20136 0.24104 0.0
H14 H 0.67204 0.23078 0.13316 0.0
H15 H 0.61403 0.21833 0.17698 0.0
H16 H 0.63503 0.1665 0.2065 0.0
O17 O 0.55474 0.12847 0.06905 0.0
H18 H 0.61987 0.21755 0.03813 0.0
H19 H 0.56498 0.12155 0.01419 0.0
H20 H 0.708 0.26663 0.1671 0.0
H21 H 0.53685 0.11438 0.19916 0.0
H22 H 0.70752 0.252 0.22149 0.0
H23 H 0.54025 0.16543 0.22412 0.0
O24 O 0.65233 0.17049 0.1116 0.0
H25 H 0.57487 0.03465 0.06611 0.0
H26 H 0.63053 0.14356 0.02423 0.0
H27 H 0.63715 0.09564 0.00583 0.0
H28 H 0.60915 0.04067 0.02675 0.0
H29 H 0.56909 0.0833 0.08406 0.0
H30 H 0.56213 0.13982 0.9621 0.0
H31 H 0.58873 0.1978 0.94779 0.0
O32 O 0.63458 0.17993 0.06899 0.0
C33 C 0.6055 0.21393 0.10455 0.0
C34 C 0.60613 0.21145 0.99217 0.0
C35 C 0.57489 0.15704 0.97863 0.0
N36 N 0.59273 0.16842 0.02916 0.0
C37 C 0.60728 0.20039 0.02151 0.0
C38 C 0.57654 0.14685 0.00819 0.0
C39 C 0.58982 0.18957 0.97062 0.0
C40 C 0.57398 0.1384 0.17447 0.0
N41 N 0.59554 0.16714 0.1685 0.0
C42 C 0.55385 0.13728 0.1946 0.0
C43 C 0.55572 0.16593 0.20851 0.0
C44 C 0.5775 0.19526 0.20202 0.0
C45 C 0.59723 0.19542 0.18179 0.0
C46 C 0.67118 0.20809 0.21744 0.0
C47 C 0.67158 0.22435 0.15684 0.0
C48 C 0.65104 0.18834 0.1977 0.0
N49 N 0.65134 0.19666 0.16782 0.0
C50 C 0.69204 0.24471 0.17593 0.0
C51 C 0.69178 0.23647 0.20644 0.0
C52 C 0.65454 0.18015 0.08414 0.0
C53 C 0.5872 0.05847 0.05683 0.0
C54 C 0.61842 0.11978 0.03366 0.0
C55 C 0.62218 0.09271 0.02304 0.0
C56 C 0.60645 0.06187 0.03476 0.0
N57 N 0.59951 0.11626 0.05534 0.0
C58 C 0.58399 0.0861 0.06689 0.0
Co59 Co 0.35069 0.49252 0.5954 0.0
Co60 Co 0.38423 0.51778 0.52693 0.0
O61 O 0.37518 0.49064 0.56378 0.0
C62 C 0.3981 0.50543 0.63642 0.0
O63 O 0.41278 0.53205 0.62131 0.0
C64 C 0.36914 0.44938 0.50556 0.0
O65 O 0.35088 0.43832 0.52694 0.0
O66 O 0.34539 0.50764 0.51833 0.0
O67 O 0.32608 0.49679 0.56438 0.0
H68 H 0.38133 0.60465 0.45699 0.0
H69 H 0.36815 0.43823 0.59559 0.0
O70 O 0.3743 0.48744 0.62784 0.0
H71 H 0.26923 0.38543 0.58768 0.0
H72 H 0.29937 0.45937 0.6937 0.0
H73 H 0.31942 0.53227 0.60483 0.0
H74 H 0.29306 0.44537 0.59121 0.0
H75 H 0.32978 0.45667 0.65353 0.0
O76 O 0.38232 0.47993 0.50175 0.0
H77 H 0.36976 0.57005 0.50277 0.0
H78 H 0.41925 0.5235 0.47317 0.0
H79 H 0.28865 0.53551 0.64431 0.0
H80 H 0.34516 0.37817 0.59268 0.0
H81 H 0.27848 0.49891 0.68919 0.0
H82 H 0.29534 0.35139 0.58851 0.0
O83 O 0.36966 0.54133 0.59751 0.0
H84 H 0.46229 0.49148 0.55572 0.0
H85 H 0.43462 0.57917 0.52724 0.0
H86 H 0.4823 0.59292 0.53867 0.0
H87 H 0.49643 0.54885 0.55292 0.0
H88 H 0.4148 0.47893 0.54453 0.0
H89 H 0.43117 0.55741 0.42697 0.0
H90 H 0.41224 0.59844 0.41869 0.0
O91 O 0.38713 0.55633 0.55089 0.0
C92 C 0.32537 0.5017 0.53605 0.0
C93 C 0.38969 0.58685 0.46033 0.0
C94 C 0.41763 0.5603 0.44346 0.0
N95 N 0.39371 0.54467 0.49064 0.0
C96 C 0.38321 0.56718 0.48622 0.0
C97 C 0.41069 0.54104 0.46962 0.0
C98 C 0.40702 0.58334 0.43884 0.0
C99 C 0.34645 0.42674 0.59404 0.0
N100 N 0.33196 0.44531 0.5933 0.0
C101 C 0.33355 0.39272 0.59228 0.0
C102 C 0.30561 0.37772 0.58989 0.0
C103 C 0.29095 0.39681 0.58936 0.0
C104 C 0.30455 0.43076 0.59111 0.0
C105 C 0.30366 0.47545 0.67427 0.0
C106 C 0.31501 0.51615 0.62421 0.0
C107 C 0.32095 0.47413 0.65149 0.0
N108 N 0.32637 0.49427 0.6268 0.0
C109 C 0.29761 0.51815 0.64653 0.0
C110 C 0.29192 0.49763 0.67171 0.0
C111 C 0.38191 0.56299 0.57749 0.0
C112 C 0.45639 0.5109 0.54951 0.0
C113 C 0.44055 0.55993 0.53369 0.0
C114 C 0.46761 0.56783 0.54 0.0
C115 C 0.47553 0.54309 0.54797 0.0
N116 N 0.42188 0.5283 0.53518 0.0
C117 C 0.42951 0.50393 0.54305 0.0
Co118 Co 0.86583 0.40795 0.00908 0.0
Co119 Co 0.84665 0.38851 0.08258 0.0
O120 O 0.87503 0.40711 0.05216 0.0
C121 C 0.9114 0.38742 0.00986 0.0
O122 O 0.90054 0.36896 0.03351 0.0
C123 C 0.86425 0.437 0.13213 0.0
O124 O 0.84279 0.44249 0.12683 0.0
O125 O 0.83212 0.4206 0.06988 0.0
O126 O 0.83221 0.41406 0.01955 0.0
H127 H 0.75112 0.34814 0.11926 0.0
H128 H 0.91939 0.45317 0.03202 0.0
O129 O 0.89948 0.4031 0.99697 0.0
H130 H 0.87998 0.52391 0.98689 0.0
H131 H 0.88658 0.43837 0.89914 0.0
H132 H 0.81557 0.37827 0.97314 0.0
H133 H 0.85499 0.46402 0.98635 0.0
H134 H 0.89746 0.43817 0.95338 0.0
O135 O 0.87061 0.41951 0.11372 0.0
H136 H 0.78801 0.37084 0.08217 0.0
H137 H 0.84375 0.36693 0.14754 0.0
H138 H 0.80376 0.37805 0.91915 0.0
H139 H 0.94519 0.51296 0.03277 0.0
H140 H 0.83942 0.40827 0.88173 0.0
H141 H 0.92547 0.54876 0.01012 0.0
O142 O 0.84502 0.3595 0.00964 0.0
H143 H 0.92058 0.35475 0.11166 0.0
H144 H 0.82317 0.31632 0.0933 0.0
H145 H 0.84164 0.27662 0.10751 0.0
H146 H 0.89068 0.29578 0.11694 0.0
H147 H 0.90132 0.39354 0.09685 0.0
H148 H 0.80755 0.34454 0.18543 0.0
H149 H 0.76076 0.33483 0.17135 0.0
O150 O 0.82244 0.35623 0.05292 0.0
C151 C 0.82444 0.42402 0.04327 0.0
C152 C 0.77143 0.35234 0.12571 0.0
C153 C 0.80309 0.35033 0.16284 0.0
N154 N 0.81814 0.37059 0.11269 0.0
C155 C 0.79244 0.36525 0.1048 0.0
C156 C 0.82356 0.3632 0.14131 0.0
C157 C 0.77685 0.34488 0.15492 0.0
C158 C 0.91075 0.46857 0.02193 0.0
N159 N 0.88579 0.45508 0.00898 0.0
C160 C 0.92542 0.50242 0.0225 0.0
C161 C 0.91433 0.52249 0.00982 0.0
C162 C 0.88881 0.50857 0.99679 0.0
C163 C 0.87474 0.47463 0.99661 0.0
C164 C 0.87086 0.42513 0.91523 0.0
C165 C 0.83118 0.39157 0.95702 0.0
C166 C 0.87691 0.42484 0.94597 0.0
N167 N 0.85714 0.40832 0.96645 0.0
C168 C 0.82438 0.39131 0.92647 0.0
C169 C 0.84439 0.40825 0.90548 0.0
C170 C 0.82599 0.34409 0.02811 0.0
C171 C 0.89917 0.34609 0.10765 0.0
C172 C 0.84458 0.32482 0.09699 0.0
C173 C 0.8549 0.30224 0.10523 0.0
C174 C 0.8824 0.31301 0.11056 0.0
N175 N 0.86116 0.35723 0.09409 0.0
C176 C 0.88813 0.36797 0.09937 0.0
Co177 Co 0.37632 0.83286 0.62035 0.0
Co178 Co 0.40778 0.85369 0.55212 0.0
O179 O 0.40563 0.86399 0.59531 0.0
C180 C 0.38809 0.89893 0.65027 0.0
O181 O 0.40883 0.91584 0.63306 0.0
C182 C 0.46599 0.88221 0.57194 0.0
O183 O 0.45957 0.87079 0.59955 0.0
O184 O 0.41113 0.81288 0.56453 0.0
O185 O 0.37654 0.79497 0.59684 0.0
H186 H 0.3846 0.77929 0.46162 0.0
H187 H 0.42876 0.87875 0.64795 0.0
O188 O 0.37426 0.86857 0.64582 0.0
H189 H 0.41381 0.76956 0.68572 0.0
H190 H 0.3238 0.7882 0.7165 0.0
H191 H 0.32651 0.77445 0.60587 0.0
H192 H 0.38119 0.77658 0.65124 0.0
H193 H 0.36216 0.82588 0.68643 0.0
O194 O 0.44791 0.87774 0.5521 0.0
H195 H 0.38195 0.79377 0.51505 0.0
H196 H 0.43923 0.89074 0.49851 0.0
H197 H 0.28782 0.73645 0.635 0.0
H198 H 0.46148 0.87297 0.68291 0.0
H199 H 0.28628 0.74298 0.6908 0.0
H200 H 0.45425 0.81801 0.70208 0.0
O201 O 0.34959 0.83702 0.59202 0.0
H202 H 0.42998 0.97352 0.55951 0.0
H203 H 0.3744 0.8707 0.50725 0.0
H204 H 0.36975 0.9213 0.49348 0.0
H205 H 0.39773 0.97322 0.51962 0.0
H206 H 0.43383 0.92226 0.57273 0.0
H207 H 0.44266 0.87722 0.44499 0.0
H208 H 0.41513 0.82119 0.42618 0.0
O209 O 0.36764 0.82941 0.54904 0.0
C210 C 0.39424 0.79046 0.58103 0.0
C211 C 0.39664 0.80382 0.46952 0.0
C212 C 0.42925 0.85877 0.4602 0.0
N213 N 0.41024 0.84312 0.50987 0.0
C214 C 0.39518 0.81218 0.49974 0.0
C215 C 0.42725 0.86626 0.49056 0.0
C216 C 0.41379 0.82733 0.44966 0.0
C217 C 0.42489 0.85491 0.65664 0.0
N218 N 0.40247 0.82827 0.64803 0.0
C219 C 0.44377 0.8517 0.67626 0.0
C220 C 0.43976 0.82087 0.68692 0.0
C221 C 0.4171 0.7937 0.67776 0.0
C222 C 0.39866 0.79787 0.65815 0.0
C223 C 0.32426 0.785 0.69222 0.0
C224 C 0.3261 0.77754 0.63012 0.0
C225 C 0.3459 0.80633 0.67504 0.0
N226 N 0.34669 0.80236 0.64437 0.0
C227 C 0.3041 0.75587 0.64653 0.0
C228 C 0.30323 0.75963 0.6778 0.0
C229 C 0.34765 0.82925 0.5641 0.0
C230 C 0.41772 0.95106 0.54791 0.0
C231 C 0.38656 0.89315 0.51884 0.0
C232 C 0.38389 0.92175 0.51088 0.0
C233 C 0.3996 0.95087 0.52555 0.0
N234 N 0.40446 0.89357 0.54073 0.0
C235 C 0.41986 0.922 0.55526 0.0
Co236 Co 0.65678 0.51564 0.10854 0.0
Co237 Co 0.62262 0.48849 0.04072 0.0
O238 O 0.632 0.51683 0.07679 0.0
C239 C 0.60951 0.50556 0.14869 0.0
O240 O 0.59418 0.47954 0.13326 0.0
C241 C 0.63113 0.55548 0.01791 0.0
O242 O 0.64557 0.56947 0.04178 0.0
O243 O 0.66156 0.49971 0.03147 0.0
O244 O 0.68081 0.50983 0.07761 0.0
H245 H 0.62677 0.40079 0.97301 0.0
H246 H 0.64015 0.57067 0.10786 0.0
O247 O 0.63378 0.52217 0.14076 0.0
H248 H 0.73896 0.62166 0.09792 0.0
H249 H 0.7094 0.55148 0.20574 0.0
H250 H 0.68742 0.47538 0.11932 0.0
H251 H 0.71453 0.56191 0.10273 0.0
H252 H 0.67874 0.55337 0.16548 0.0
O253 O 0.62285 0.52483 0.01392 0.0
H254 H 0.63833 0.43682 0.01773 0.0
H255 H 0.586 0.47932 0.98767 0.0
H256 H 0.71841 0.47291 0.15893 0.0
H257 H 0.66375 0.63061 0.10387 0.0
H258 H 0.72956 0.51112 0.20257 0.0
H259 H 0.71351 0.65648 0.09861 0.0
O260 O 0.6374 0.46701 0.11242 0.0
H261 H 0.54339 0.51168 0.0715 0.0
H262 H 0.5732 0.42602 0.04258 0.0
H263 H 0.52553 0.41072 0.05513 0.0
H264 H 0.51029 0.45375 0.06958 0.0
H265 H 0.59088 0.52581 0.05922 0.0
H266 H 0.57408 0.44394 0.94253 0.0
H267 H 0.59444 0.40423 0.935 0.0
O268 O 0.62114 0.45102 0.06564 0.0
C269 C 0.68151 0.50508 0.04923 0.0
C270 C 0.61779 0.41802 0.97601 0.0
C271 C 0.58825 0.44227 0.95888 0.0
N272 N 0.613 0.46031 0.0053 0.0
C273 C 0.62426 0.43851 0.0013 0.0
C274 C 0.59521 0.46238 0.98444 0.0
C275 C 0.59966 0.41997 0.95469 0.0
C276 C 0.66182 0.58176 0.10579 0.0
N277 N 0.67593 0.56274 0.10501 0.0
C278 C 0.67507 0.61571 0.10344 0.0
C279 C 0.70298 0.6302 0.10044 0.0
C280 C 0.71726 0.61067 0.09995 0.0
C281 C 0.70331 0.57681 0.10234 0.0
C282 C 0.7047 0.53471 0.18684 0.0
C283 C 0.69228 0.49222 0.13814 0.0
C284 C 0.68727 0.53558 0.16401 0.0
N285 N 0.68133 0.51457 0.13998 0.0
C286 C 0.7098 0.49065 0.16055 0.0
C287 C 0.71602 0.51207 0.18504 0.0
C288 C 0.62593 0.44489 0.09261 0.0
C289 C 0.54975 0.49271 0.06511 0.0
C290 C 0.56681 0.44486 0.049 0.0
C291 C 0.53974 0.43606 0.05599 0.0
C292 C 0.5312 0.46021 0.06408 0.0
N293 N 0.58489 0.47682 0.04985 0.0
C294 C 0.57666 0.50059 0.05796 0.0
Co295 Co 0.13665 0.59398 0.51906 0.0
Co296 Co 0.16761 0.62092 0.5871 0.0
O297 O 0.13443 0.59971 0.56337 0.0
C298 C 0.08905 0.61087 0.52795 0.0
O299 O 0.09997 0.6276 0.55242 0.0
C300 C 0.12875 0.57189 0.63213 0.0
O301 O 0.1076 0.56227 0.61433 0.0
O302 O 0.17959 0.58749 0.57246 0.0
O303 O 0.17188 0.58942 0.52294 0.0
H304 H 0.26786 0.66513 0.60128 0.0
H305 H 0.08789 0.55123 0.55297 0.0
O306 O 0.10134 0.59726 0.51262 0.0
H307 H 0.12107 0.47639 0.50402 0.0
H308 H 0.09931 0.55101 0.4158 0.0
H309 H 0.18023 0.62043 0.47336 0.0
H310 H 0.14469 0.53589 0.49659 0.0
H311 H 0.09707 0.55702 0.47115 0.0
O312 O 0.15159 0.59285 0.62334 0.0
H313 H 0.22536 0.64116 0.57254 0.0
H314 H 0.18127 0.64318 0.65131 0.0
H315 H 0.18341 0.61488 0.41806 0.0
H316 H 0.06351 0.49185 0.5608 0.0
H317 H 0.14274 0.57995 0.3889 0.0
H318 H 0.08012 0.45398 0.53625 0.0
O319 O 0.15636 0.64219 0.51422 0.0
H320 H 0.10094 0.66147 0.62924 0.0
H321 H 0.19412 0.69314 0.59428 0.0
H322 H 0.18016 0.73547 0.61258 0.0
H323 H 0.13328 0.71978 0.63042 0.0
H324 H 0.11562 0.62012 0.61032 0.0
H325 H 0.22325 0.66676 0.68093 0.0
H326 H 0.26693 0.67776 0.65595 0.0
O327 O 0.18567 0.65044 0.55236 0.0
C328 C 0.18303 0.58143 0.54503 0.0
C329 C 0.24893 0.6604 0.61242 0.0
C330 C 0.2239 0.66128 0.65713 0.0
N331 N 0.20083 0.64089 0.61014 0.0
C332 C 0.2248 0.64695 0.59623 0.0
C333 C 0.20018 0.64783 0.64024 0.0
C334 C 0.24841 0.6675 0.64309 0.0
C335 C 0.09514 0.53492 0.54206 0.0
N336 N 0.11762 0.54706 0.52425 0.0
C337 C 0.0813 0.50131 0.54664 0.0
C338 C 0.09064 0.48008 0.53289 0.0
C339 C 0.11362 0.49263 0.51481 0.0
C340 C 0.12695 0.52638 0.51075 0.0
C341 C 0.11718 0.56626 0.42826 0.0
C342 C 0.16247 0.60508 0.46086 0.0
C343 C 0.11603 0.56984 0.45961 0.0
N344 N 0.13855 0.58894 0.47553 0.0
C345 C 0.16438 0.60208 0.42954 0.0
C346 C 0.14156 0.5825 0.41318 0.0
C347 C 0.17776 0.65983 0.52849 0.0
C348 C 0.12149 0.66862 0.62177 0.0
C349 C 0.17366 0.68598 0.60198 0.0
C350 C 0.1659 0.71013 0.61237 0.0
C351 C 0.13961 0.70132 0.62236 0.0
N352 N 0.15585 0.65384 0.60163 0.0
C353 C 0.13001 0.64514 0.61124 0.0
Co354 Co 0.83692 0.43973 0.39869 0.0
Co355 Co 0.85539 0.43553 0.47298 0.0
O356 O 0.86414 0.44804 0.4303 0.0
C357 C 0.85485 0.40791 0.35002 0.0
O358 O 0.8323 0.38177 0.3536 0.0
C359 C 0.89573 0.50501 0.4745 0.0
O360 O 0.88379 0.5113 0.45111 0.0
O361 O 0.83005 0.45753 0.47447 0.0
O362 O 0.8129 0.44939 0.42722 0.0
H363 H 0.7937 0.38932 0.56195 0.0
H364 H 0.89321 0.48703 0.38758 0.0
O365 O 0.86117 0.43134 0.36891 0.0
H366 H 0.83819 0.54957 0.37263 0.0
H367 H 0.80307 0.4476 0.29366 0.0
H368 H 0.77785 0.40221 0.39653 0.0
H369 H 0.81684 0.491 0.38566 0.0
H370 H 0.83753 0.45933 0.33342 0.0
O371 O 0.88614 0.4767 0.48645 0.0
H372 H 0.8049 0.40487 0.50842 0.0
H373 H 0.8883 0.44026 0.52838 0.0
H374 H 0.74269 0.39009 0.35751 0.0
H375 H 0.91537 0.54535 0.37389 0.0
H376 H 0.75521 0.41278 0.30561 0.0
H377 H 0.88782 0.5771 0.3665 0.0
O378 O 0.81959 0.39249 0.41041 0.0
H379 H 0.94189 0.42686 0.44689 0.0
H380 H 0.85212 0.37049 0.49301 0.0
H381 H 0.88249 0.34243 0.49046 0.0
H382 H 0.9278 0.37071 0.46736 0.0
H383 H 0.91073 0.45385 0.4496 0.0
H384 H 0.87802 0.42531 0.58215 0.0
H385 H 0.83042 0.39953 0.59924 0.0
O386 O 0.82502 0.39365 0.46093 0.0
C387 C 0.81321 0.4583 0.45468 0.0
C388 C 0.81452 0.40053 0.55478 0.0
C389 C 0.86184 0.42077 0.56613 0.0
N390 N 0.8472 0.42348 0.51525 0.0
C391 C 0.82098 0.40938 0.5245 0.0
C392 C 0.86753 0.42931 0.53566 0.0
C393 C 0.83513 0.40628 0.57569 0.0
C394 C 0.88105 0.50059 0.38417 0.0
N395 N 0.85375 0.48568 0.38773 0.0
C396 C 0.89373 0.53365 0.37652 0.0
C397 C 0.87827 0.55146 0.37243 0.0
C398 C 0.85043 0.53606 0.37593 0.0
C399 C 0.83846 0.50297 0.3836 0.0
C400 C 0.79736 0.43748 0.31616 0.0
C401 C 0.78349 0.41217 0.374 0.0
C402 C 0.81682 0.44394 0.33875 0.0
N403 N 0.8098 0.43122 0.36725 0.0
C404 C 0.76348 0.40523 0.352 0.0
C405 C 0.77052 0.41796 0.32289 0.0
C406 C 0.81453 0.37876 0.43645 0.0
C407 C 0.92221 0.41429 0.45705 0.0
C408 C 0.87169 0.38285 0.48272 0.0
C409 C 0.88886 0.3669 0.48145 0.0
C410 C 0.91429 0.38278 0.46851 0.0
N411 N 0.87962 0.4138 0.47151 0.0
C412 C 0.90449 0.42949 0.45872 0.0
Co413 Co 0.32759 0.84186 0.91633 0.0
Co414 Co 0.38539 0.87922 0.97023 0.0
O415 O 0.35739 0.88005 0.93945 0.0
C416 C 0.36432 0.89531 0.87145 0.0
O417 O 0.37095 0.92006 0.89005 0.0
C418 C 0.3861 0.92562 0.01794 0.0
O419 O 0.37887 0.90088 0.03686 0.0
O420 O 0.35584 0.85235 0.99822 0.0
O421 O 0.34343 0.86267 0.95515 0.0
H422 H 0.42283 0.82426 0.04482 0.0
H423 H 0.3356 0.91328 0.92358 0.0
O424 O 0.34943 0.86625 0.88007 0.0
H425 H 0.23838 0.85016 0.90985 0.0
H426 H 0.27558 0.80412 0.81852 0.0
H427 H 0.30122 0.77087 0.91579 0.0
H428 H 0.26849 0.82216 0.91219 0.0
H429 H 0.30416 0.84545 0.85503 0.0
O430 O 0.3872 0.92068 0.98955 0.0
H431 H 0.38987 0.82719 0.00799 0.0
H432 H 0.43765 0.9284 0.99466 0.0
H433 H 0.27225 0.72849 0.88014 0.0
H434 H 0.30629 0.94187 0.92106 0.0
H435 H 0.25932 0.74515 0.83108 0.0
H436 H 0.25715 0.91057 0.91397 0.0
O437 O 0.35019 0.81627 0.91775 0.0
H438 H 0.43653 0.97566 0.90322 0.0
H439 H 0.43207 0.87079 0.94239 0.0
H440 H 0.46796 0.90252 0.90653 0.0
H441 H 0.47042 0.95542 0.8867 0.0
H442 H 0.40065 0.94287 0.93868 0.0
H443 H 0.47105 0.92658 0.03141 0.0
H444 H 0.46375 0.87422 0.05677 0.0
O445 O 0.38405 0.83807 0.95174 0.0
C446 C 0.33648 0.84528 0.98033 0.0
C447 C 0.42623 0.84722 0.03393 0.0
C448 C 0.4533 0.90464 0.02639 0.0
N449 N 0.4118 0.8779 0.99917 0.0
C450 C 0.40764 0.84903 0.01305 0.0
C451 C 0.43431 0.90551 0.00559 0.0
C452 C 0.44919 0.87526 0.04062 0.0
C453 C 0.31469 0.89905 0.91913 0.0
N454 N 0.30452 0.86587 0.91549 0.0
C455 C 0.29793 0.91561 0.91834 0.0
C456 C 0.27036 0.89806 0.9145 0.0
C457 C 0.25986 0.86423 0.91209 0.0
C458 C 0.27723 0.84852 0.91298 0.0
C459 C 0.28114 0.79654 0.83978 0.0
C460 C 0.29549 0.77807 0.89451 0.0
C461 C 0.29748 0.81983 0.86042 0.0
N462 N 0.30444 0.81037 0.88738 0.0
C463 C 0.27919 0.75409 0.87441 0.0
C464 C 0.27198 0.76346 0.84687 0.0
C465 C 0.37055 0.81642 0.93236 0.0
C466 C 0.43565 0.95262 0.91165 0.0
C467 C 0.43267 0.8935 0.93354 0.0
C468 C 0.45321 0.91151 0.91341 0.0
C469 C 0.45463 0.94122 0.90235 0.0
N470 N 0.41397 0.9047 0.94237 0.0
C471 C 0.41541 0.93396 0.93185 0.0
Co472 Co 0.57562 0.42746 0.45676 0.0
Co473 Co 0.59649 0.43372 0.38271 0.0
O474 O 0.57387 0.44007 0.41434 0.0
C475 C 0.5171 0.39867 0.44324 0.0
O476 O 0.52229 0.38796 0.41744 0.0
C477 C 0.5895 0.49481 0.36347 0.0
O478 O 0.57323 0.49301 0.38597 0.0
O479 O 0.62924 0.45892 0.4071 0.0
O480 O 0.61529 0.43965 0.45374 0.0
H481 H 0.67163 0.40619 0.34519 0.0
H482 H 0.55055 0.47327 0.44333 0.0
O483 O 0.53607 0.41485 0.46137 0.0
H484 H 0.62628 0.53334 0.51191 0.0
H485 H 0.55188 0.41959 0.56767 0.0
H486 H 0.60234 0.39084 0.48877 0.0
H487 H 0.61648 0.47679 0.49671 0.0
H488 H 0.5509 0.43616 0.51451 0.0
O489 O 0.60058 0.47491 0.36134 0.0
H490 H 0.64144 0.41281 0.38357 0.0
H491 H 0.60154 0.44307 0.31541 0.0
H492 H 0.60403 0.37399 0.54167 0.0
H493 H 0.55948 0.52972 0.45816 0.0
H494 H 0.57868 0.38839 0.58156 0.0
H495 H 0.59762 0.56016 0.49265 0.0
O496 O 0.56833 0.38217 0.44409 0.0
H497 H 0.50439 0.4074 0.33831 0.0
H498 H 0.57857 0.37241 0.34664 0.0
H499 H 0.53861 0.33961 0.31654 0.0
H500 H 0.50119 0.35719 0.31188 0.0
H501 H 0.54422 0.43881 0.36877 0.0
H502 H 0.6315 0.4371 0.27637 0.0
H503 H 0.66678 0.41839 0.29114 0.0
O504 O 0.59341 0.39215 0.40194 0.0
C505 C 0.63396 0.45431 0.43464 0.0
C506 C 0.65628 0.41426 0.33845 0.0
C507 C 0.63379 0.43167 0.29984 0.0
N508 N 0.6196 0.42811 0.35178 0.0
C509 C 0.63906 0.41796 0.36008 0.0
C510 C 0.61694 0.43512 0.32209 0.0
C511 C 0.65357 0.42115 0.30814 0.0
C512 C 0.56711 0.48632 0.45843 0.0
N513 N 0.58298 0.47176 0.46908 0.0
C514 C 0.57211 0.51829 0.46671 0.0
C515 C 0.59352 0.53537 0.48604 0.0
C516 C 0.60962 0.52035 0.49683 0.0
C517 C 0.60404 0.48836 0.48804 0.0
C518 C 0.56306 0.41323 0.55051 0.0
C519 C 0.59138 0.39736 0.50602 0.0
C520 C 0.56254 0.42249 0.52036 0.0
N521 N 0.57673 0.4147 0.49859 0.0
C522 C 0.59235 0.38768 0.53592 0.0
C523 C 0.5781 0.39573 0.55828 0.0
C524 C 0.57981 0.37318 0.42308 0.0
C525 C 0.52072 0.39972 0.33977 0.0
C526 C 0.56249 0.38037 0.34484 0.0
C527 C 0.53986 0.36163 0.32767 0.0
C528 C 0.51889 0.3715 0.32506 0.0
N529 N 0.56447 0.40843 0.35883 0.0
C530 C 0.54369 0.41783 0.35673 0.0
Co531 Co 0.18251 0.56482 0.89987 0.0
Co532 Co 0.15193 0.55955 0.96831 0.0
O533 O 0.14951 0.55237 0.92402 0.0
C534 C 0.14259 0.57492 0.85698 0.0
O535 O 0.12315 0.56602 0.8771 0.0
C536 C 0.10596 0.49393 0.9598 0.0
O537 O 0.11836 0.48804 0.93667 0.0
O538 O 0.17189 0.53129 0.97228 0.0
O539 O 0.20102 0.55323 0.93416 0.0
H540 H 0.19928 0.58461 0.06897 0.0
H541 H 0.1303 0.51393 0.877 0.0
O542 O 0.16579 0.57652 0.8639 0.0
H543 H 0.19445 0.46269 0.87313 0.0
H544 H 0.23764 0.57291 0.80591 0.0
H545 H 0.24034 0.60247 0.91386 0.0
H546 H 0.20879 0.51894 0.89182 0.0
H547 H 0.1957 0.55627 0.83542 0.0
O548 O 0.11683 0.52058 0.97447 0.0
H549 H 0.19582 0.57659 0.01359 0.0
H550 H 0.11251 0.55568 0.0168 0.0
H551 H 0.28278 0.6192 0.88526 0.0
H552 H 0.11526 0.45795 0.8577 0.0
H553 H 0.28161 0.6043 0.83091 0.0
H554 H 0.14739 0.43179 0.85571 0.0
O555 O 0.19467 0.61034 0.91498 0.0
H556 H 0.07763 0.58779 0.92932 0.0
H557 H 0.1601 0.62554 0.99134 0.0
H558 H 0.13615 0.66116 0.98503 0.0
H559 H 0.09455 0.64231 0.95388 0.0
H560 H 0.10236 0.55306 0.93601 0.0
H561 H 0.11502 0.56323 0.07224 0.0
H562 H 0.15866 0.57793 0.09869 0.0
O563 O 0.18699 0.59948 0.96442 0.0
C564 C 0.19327 0.53547 0.9578 0.0
C565 C 0.18016 0.57827 0.0577 0.0
C566 C 0.13286 0.56624 0.05954 0.0
N567 N 0.15404 0.56584 0.01192 0.0
C568 C 0.17809 0.57376 0.02633 0.0
C569 C 0.13155 0.56191 0.02814 0.0
C570 C 0.15736 0.5745 0.07437 0.0
C571 C 0.14462 0.50321 0.87571 0.0
N572 N 0.17056 0.52019 0.88509 0.0
C573 C 0.13588 0.47125 0.86498 0.0
C574 C 0.15389 0.45655 0.86394 0.0
C575 C 0.18027 0.47386 0.8737 0.0
C576 C 0.18826 0.50576 0.88431 0.0
C577 C 0.23841 0.57951 0.82959 0.0
C578 C 0.23964 0.59584 0.89023 0.0
C579 C 0.21471 0.5703 0.8464 0.0
N580 N 0.21553 0.57824 0.87642 0.0
C581 C 0.26375 0.60544 0.87414 0.0
C582 C 0.26308 0.59711 0.84363 0.0
C583 C 0.19823 0.61912 0.94265 0.0
C584 C 0.09571 0.59626 0.94297 0.0
C585 C 0.1421 0.61721 0.97761 0.0
C586 C 0.12858 0.63746 0.9742 0.0
C587 C 0.10523 0.62686 0.95674 0.0
N588 N 0.13264 0.58722 0.96402 0.0
C589 C 0.10977 0.57667 0.94689 0.0
Co590 Co 0.65426 0.15199 0.40249 0.0
Co591 Co 0.61952 0.12503 0.47555 0.0
O592 O 0.63584 0.11722 0.43566 0.0
C593 C 0.62074 0.0836 0.37403 0.0
O594 O 0.62283 0.06544 0.39626 0.0
C595 C 0.62261 0.05966 0.48643 0.0
O596 O 0.63481 0.06064 0.46059 0.0
O597 O 0.65675 0.14873 0.49219 0.0
O598 O 0.65275 0.13652 0.44512 0.0
H599 H 0.61451 0.19563 0.56137 0.0
H600 H 0.66649 0.09273 0.41444 0.0
O601 O 0.63104 0.11471 0.37559 0.0
H602 H 0.75142 0.17965 0.3798 0.0
H603 H 0.68046 0.17332 0.29217 0.0
H604 H 0.65966 0.2186 0.38545 0.0
H605 H 0.71091 0.19022 0.38535 0.0
H606 H 0.66895 0.14093 0.33926 0.0
O607 O 0.61709 0.08333 0.49458 0.0
H608 H 0.63224 0.18364 0.51367 0.0
H609 H 0.57579 0.08453 0.51833 0.0
H610 H 0.67154 0.25188 0.33906 0.0
H611 H 0.70602 0.08073 0.40836 0.0
H612 H 0.68211 0.22941 0.29196 0.0
H613 H 0.74911 0.12437 0.39086 0.0
O614 O 0.62322 0.16427 0.40793 0.0
H615 H 0.54607 0.03501 0.41862 0.0
H616 H 0.57035 0.13861 0.47376 0.0
H617 H 0.525 0.1111 0.45182 0.0
H618 H 0.51254 0.05884 0.42406 0.0
H619 H 0.59113 0.06343 0.44078 0.0
H620 H 0.5577 0.09537 0.56623 0.0
H621 H 0.57698 0.1513 0.58798 0.0
O622 O 0.62079 0.16718 0.45861 0.0
C623 C 0.66858 0.15432 0.46714 0.0
C624 C 0.6059 0.17118 0.55208 0.0
C625 C 0.57404 0.1149 0.55483 0.0
N626 N 0.60497 0.13351 0.5131 0.0
C627 C 0.61581 0.16427 0.52505 0.0
C628 C 0.58444 0.1089 0.52774 0.0
C629 C 0.58486 0.14629 0.56701 0.0
C630 C 0.68438 0.11135 0.40526 0.0
N631 N 0.68539 0.14137 0.39788 0.0
C632 C 0.70711 0.10464 0.40255 0.0
C633 C 0.73131 0.12917 0.39292 0.0
C634 C 0.7326 0.16014 0.38667 0.0
C635 C 0.70944 0.16588 0.38962 0.0
C636 C 0.676 0.18346 0.3126 0.0
C637 C 0.66448 0.20859 0.36526 0.0
C638 C 0.66934 0.16518 0.33935 0.0
N639 N 0.66387 0.17789 0.36537 0.0
C640 C 0.67107 0.22757 0.33893 0.0
C641 C 0.67692 0.2149 0.31248 0.0
C642 C 0.6165 0.17499 0.43192 0.0
C643 C 0.5512 0.05769 0.43079 0.0
C644 C 0.56514 0.11586 0.46177 0.0
C645 C 0.53939 0.10039 0.44939 0.0
C646 C 0.53241 0.07108 0.43381 0.0
N647 N 0.58346 0.1025 0.45889 0.0
C648 C 0.57675 0.07387 0.44351 0.0
Co649 Co 0.42379 0.56826 0.95131 0.0
Co650 Co 0.39527 0.55776 0.88117 0.0
O651 O 0.4239 0.55731 0.90803 0.0
C652 C 0.4825 0.59663 0.93314 0.0
O653 O 0.47634 0.5979 0.90459 0.0
C654 C 0.412 0.50666 0.85435 0.0
O655 O 0.43073 0.5117 0.87485 0.0
O656 O 0.36792 0.52534 0.90798 0.0
O657 O 0.3834 0.55018 0.95209 0.0
H658 H 0.30657 0.56318 0.86015 0.0
H659 H 0.45302 0.52856 0.93201 0.0
O660 O 0.46418 0.58645 0.9533 0.0
H661 H 0.38665 0.46096 0.00738 0.0
H662 H 0.45459 0.57837 0.06003 0.0
H663 H 0.39435 0.59858 0.9875 0.0
H664 H 0.38982 0.51567 0.99391 0.0
H665 H 0.45399 0.56328 0.00624 0.0
O666 O 0.39637 0.52125 0.85578 0.0
H667 H 0.3438 0.56384 0.89213 0.0
H668 H 0.3843 0.55075 0.81444 0.0
H669 H 0.39416 0.6138 0.04114 0.0
H670 H 0.45071 0.47412 0.94501 0.0
H671 H 0.42443 0.60369 0.07783 0.0
H672 H 0.41731 0.43988 0.98294 0.0
O673 O 0.42554 0.61194 0.93957 0.0
H674 H 0.48207 0.60789 0.8216 0.0
H675 H 0.39945 0.61925 0.8518 0.0
H676 H 0.43224 0.66083 0.81884 0.0
H677 H 0.47386 0.65522 0.80323 0.0
H678 H 0.4492 0.5675 0.85505 0.0
H679 H 0.34733 0.54963 0.78166 0.0
H680 H 0.30817 0.55605 0.80447 0.0
O681 O 0.39287 0.59445 0.9047 0.0
C682 C 0.36435 0.53057 0.93566 0.0
C683 C 0.32354 0.5604 0.84993 0.0
C684 C 0.3464 0.55275 0.8059 0.0
N685 N 0.36629 0.55738 0.85525 0.0
C686 C 0.34473 0.56078 0.86794 0.0
C687 C 0.36723 0.55326 0.82461 0.0
C688 C 0.32444 0.55637 0.8187 0.0
C689 C 0.43855 0.51393 0.94865 0.0
N690 N 0.42168 0.5254 0.96224 0.0
C691 C 0.43728 0.48306 0.95587 0.0
C692 C 0.41852 0.46385 0.97713 0.0
C693 C 0.4013 0.47565 0.99083 0.0
C694 C 0.40315 0.50663 0.98303 0.0
C695 C 0.44127 0.58284 0.04427 0.0
C696 C 0.40749 0.59395 0.00333 0.0
C697 C 0.44088 0.57441 0.01375 0.0
N698 N 0.424 0.57982 0.99374 0.0
C699 C 0.40733 0.60269 0.03368 0.0
C700 C 0.42434 0.59704 0.05425 0.0
C701 C 0.40837 0.61638 0.92262 0.0
C702 C 0.46388 0.61046 0.82798 0.0
C703 C 0.41749 0.61652 0.84529 0.0
C704 C 0.436 0.64021 0.82652 0.0
C705 C 0.45931 0.63705 0.81775 0.0
N706 N 0.42188 0.5902 0.85502 0.0
C707 C 0.44492 0.58729 0.84677 0.0
H708 H 0.64043 0.04672 0.34194 0.0
H709 H 0.65498 0.0985 0.19224 0.0
H710 H 0.58407 0.09113 0.33675 0.0
H711 H 0.56844 0.06051 0.19052 0.0
H712 H 0.65283 0.0812 0.24529 0.0
H713 H 0.63642 0.03795 0.28674 0.0
C714 C 0.62638 0.05334 0.32934 0.0
C715 C 0.61241 0.06948 0.34371 0.0
C716 C 0.63428 0.07548 0.23294 0.0
C717 C 0.60795 0.05985 0.28112 0.0
C718 C 0.63551 0.0853 0.20272 0.0
C719 C 0.61184 0.08041 0.18697 0.0
C720 C 0.60926 0.06183 0.24771 0.0
C721 C 0.58709 0.06412 0.20178 0.0
C722 C 0.62436 0.0487 0.29793 0.0
C723 C 0.59501 0.07844 0.32638 0.0
N724 N 0.58646 0.05632 0.23168 0.0
N725 N 0.59333 0.07362 0.29589 0.0
H726 H 0.44231 0.5439 0.67052 0.0
H727 H 0.37171 0.46306 0.82048 0.0
H728 H 0.37313 0.45112 0.67141 0.0
H729 H 0.45677 0.52404 0.81923 0.0
H730 H 0.37287 0.45594 0.76565 0.0
H731 H 0.44997 0.53594 0.7242 0.0
C732 C 0.42908 0.52159 0.68174 0.0
C733 C 0.40671 0.49851 0.66655 0.0
C734 C 0.39149 0.4701 0.77741 0.0
C735 C 0.41514 0.4895 0.72789 0.0
C736 C 0.39082 0.47391 0.80873 0.0
C737 C 0.41422 0.49377 0.82432 0.0
C738 C 0.41554 0.48728 0.76145 0.0
C739 C 0.43839 0.50807 0.80801 0.0
C740 C 0.43347 0.51705 0.71238 0.0
C741 C 0.39031 0.46997 0.68229 0.0
N742 N 0.43833 0.50524 0.77727 0.0
N743 N 0.39453 0.4666 0.71217 0.0
H744 H 0.89184 0.40499 0.15905 0.0
H745 H 0.8868 0.46761 0.32584 0.0
H746 H 0.8602 0.47681 0.17715 0.0
H747 H 0.85156 0.36468 0.30455 0.0
H748 H 0.89747 0.47991 0.27218 0.0
H749 H 0.89752 0.40007 0.2136 0.0
C750 C 0.88686 0.42052 0.17432 0.0
C751 C 0.87497 0.44093 0.16348 0.0
C752 C 0.88804 0.45467 0.27952 0.0
C753 C 0.88223 0.4359 0.22569 0.0
C754 C 0.88203 0.4475 0.31013 0.0
C755 C 0.86778 0.41496 0.31971 0.0
C756 C 0.88067 0.42915 0.25852 0.0
C757 C 0.86225 0.39007 0.29815 0.0
C758 C 0.89001 0.41748 0.20542 0.0
C759 C 0.86909 0.4605 0.1845 0.0
N760 N 0.86857 0.39768 0.26846 0.0
N761 N 0.87262 0.45735 0.21468 0.0
H762 H 0.39831 0.95227 0.84277 0.0
H763 H 0.34133 0.8811 0.68104 0.0
H764 H 0.34526 0.8516 0.8251 0.0
H765 H 0.42618 0.94258 0.68829 0.0
H766 H 0.33686 0.88537 0.73566 0.0
H767 H 0.40472 0.96139 0.78753 0.0
C768 C 0.38805 0.93214 0.82743 0.0
C769 C 0.37088 0.90119 0.8387 0.0
C770 C 0.35633 0.8986 0.72518 0.0
C771 C 0.37751 0.91183 0.77607 0.0
C772 C 0.35888 0.89647 0.694 0.0
C773 C 0.38422 0.91122 0.68016 0.0
C774 C 0.37922 0.9158 0.74276 0.0
C775 C 0.40627 0.93087 0.6981 0.0
C776 C 0.3917 0.93743 0.79605 0.0
C777 C 0.3583 0.87597 0.81773 0.0
N778 N 0.40338 0.9322 0.72876 0.0
N779 N 0.36158 0.88198 0.78756 0.0
H780 H 0.54514 0.48424 0.32974 0.0
H781 H 0.63575 0.55941 0.18369 0.0
H782 H 0.63118 0.53879 0.33146 0.0
H783 H 0.56384 0.46949 0.18183 0.0
H784 H 0.62707 0.5666 0.23674 0.0
H785 H 0.54544 0.49403 0.27489 0.0
C786 C 0.56389 0.49969 0.31882 0.0
C787 C 0.58818 0.51107 0.33503 0.0
C788 C 0.61293 0.54564 0.22454 0.0
C789 C 0.58868 0.5219 0.27267 0.0
C790 C 0.61784 0.5414 0.19423 0.0
C791 C 0.60085 0.51328 0.17841 0.0
C792 C 0.59074 0.52181 0.23922 0.0
C793 C 0.57767 0.49127 0.19322 0.0
C794 C 0.56408 0.50483 0.28753 0.0
C795 C 0.61204 0.53001 0.31974 0.0
N796 N 0.57348 0.49574 0.22301 0.0
N797 N 0.61174 0.53463 0.28933 0.0
H798 H 0.16737 0.56829 0.66815 0.0
H799 H 0.09358 0.55166 0.82698 0.0
H800 H 0.08546 0.55892 0.67058 0.0
H801 H 0.17925 0.60143 0.8122 0.0
H802 H 0.08699 0.54648 0.77154 0.0
H803 H 0.16836 0.56874 0.72317 0.0
C804 C 0.14935 0.56568 0.68035 0.0
C805 C 0.12637 0.56381 0.66478 0.0
C806 C 0.10713 0.55876 0.78064 0.0
C807 C 0.12756 0.56508 0.72811 0.0
C808 C 0.11091 0.56199 0.81218 0.0
C809 C 0.13705 0.57672 0.82429 0.0
C810 C 0.12968 0.57 0.76141 0.0
C811 C 0.15876 0.58947 0.80404 0.0
C812 C 0.15002 0.56629 0.7118 0.0
C813 C 0.10354 0.56028 0.68179 0.0
N814 N 0.1546 0.58547 0.77378 0.0
N815 N 0.10477 0.56138 0.71273 0.0
H816 H 0.49628 0.0821 0.12675 0.0
H817 H 0.40858 0.98282 0.98572 0.0
H818 H 0.51405 0.11003 0.03298 0.0
H819 H 0.39672 0.94531 0.07724 0.0
H820 H 0.44039 0.03556 0.00474 0.0
H821 H 0.45357 0.0379 0.11091 0.0
C822 C 0.49095 0.07936 0.10294 0.0
C823 C 0.50887 0.09944 0.08111 0.0
C824 C 0.43053 0.01595 0.02076 0.0
C825 C 0.46027 0.04914 0.06287 0.0
C826 C 0.41221 0.9858 0.0099 0.0
C827 C 0.40025 0.95932 0.02981 0.0
C828 C 0.4371 0.01972 0.05175 0.0
C829 C 0.40567 0.96488 0.06097 0.0
C830 C 0.46666 0.05408 0.0939 0.0
C831 C 0.50101 0.09479 0.05054 0.0
N832 N 0.42402 0.99429 0.07093 0.0
N833 N 0.47747 0.07002 0.04234 0.0
H834 H 0.37276 0.39539 0.53001 0.0
H835 H 0.49509 0.39297 0.49935 0.0
H836 H 0.39269 0.45618 0.4501 0.0
H837 H 0.47679 0.39552 0.40452 0.0
H838 H 0.45178 0.39348 0.51235 0.0
H839 H 0.4038 0.37184 0.51322 0.0
C840 C 0.38295 0.40295 0.50844 0.0
C841 C 0.38045 0.42802 0.49155 0.0
C842 C 0.4568 0.39291 0.48867 0.0
C843 C 0.41634 0.40195 0.47273 0.0
C844 C 0.48165 0.39298 0.48126 0.0
C845 C 0.48948 0.39427 0.45084 0.0
C846 C 0.43986 0.39487 0.46551 0.0
C847 C 0.47139 0.39435 0.42825 0.0
C848 C 0.40095 0.38989 0.49912 0.0
C849 C 0.3943 0.43712 0.46389 0.0
N850 N 0.44764 0.39548 0.43606 0.0
N851 N 0.41191 0.42436 0.45548 0.0
H852 H 0.08193 0.48384 0.01529 0.0
H853 H 0.93437 0.40586 0.95405 0.0
H854 H 0.06637 0.45346 0.92192 0.0
H855 H 0.95239 0.38686 0.04537 0.0
H856 H 0.98227 0.42585 0.94136 0.0
H857 H 0.0344 0.45128 0.02702 0.0
C858 C 0.06853 0.46999 0.99733 0.0
C859 C 0.07806 0.47131 0.96759 0.0
C860 C 0.97566 0.41678 0.96401 0.0
C861 C 0.0236 0.43464 0.98075 0.0
C862 C 0.94837 0.40542 0.97129 0.0
C863 C 0.93941 0.39466 1.0008 0.0
C864 C 0.99423 0.41827 0.98663 0.0
C865 C 0.95842 0.39473 0.0223 0.0
C866 C 0.04147 0.45135 0.00407 0.0
C867 C 0.05985 0.45293 0.94518 0.0
N868 N 0.98501 0.40696 0.01495 0.0
N869 N 0.03335 0.4358 0.95209 0.0
H870 H 0.60299 0.99749 0.46345 0.0
H871 H 0.50779 0.92291 0.60762 0.0
H872 H 0.60848 0.05102 0.54612 0.0
H873 H 0.48828 0.88723 0.51611 0.0
H874 H 0.55225 0.96191 0.5898 0.0
H875 H 0.56906 0.94865 0.48747 0.0
C876 C 0.59775 0.9987 0.48696 0.0
C877 C 0.60838 0.02841 0.50273 0.0
C878 C 0.53835 0.9451 0.57379 0.0
C879 C 0.56937 0.97287 0.53017 0.0
C880 C 0.51308 0.92282 0.58396 0.0
C881 C 0.49426 0.90217 0.56323 0.0
C882 C 0.54487 0.94628 0.54281 0.0
C883 C 0.50207 0.90308 0.53278 0.0
C884 C 0.57818 0.97092 0.50056 0.0
C885 C 0.60059 0.02863 0.53308 0.0
N886 N 0.52667 0.92488 0.52348 0.0
N887 N 0.58133 0.00142 0.5457 0.0
H888 H 0.50631 0.61516 0.98837 0.0
H889 H 0.61183 0.54224 0.96009 0.0
H890 H 0.52105 0.58845 0.89854 0.0
H891 H 0.61883 0.60609 0.03562 0.0
H892 H 0.58045 0.56105 0.93578 0.0
H893 H 0.54864 0.61424 0.0054 0.0
C894 C 0.51873 0.60966 0.97209 0.0
C895 C 0.51011 0.60173 0.94202 0.0
C896 C 0.58934 0.57155 0.95733 0.0
C897 C 0.55834 0.59995 0.96153 0.0
C898 C 0.60729 0.56087 0.97119 0.0
C899 C 0.61789 0.57255 0.99997 0.0
C900 C 0.58139 0.59347 0.97268 0.0
C901 C 0.61123 0.59654 0.01339 0.0
C902 C 0.54292 0.60921 0.98181 0.0
C903 C 0.52698 0.5948 0.92189 0.0
N904 N 0.59294 0.60568 0.99994 0.0
N905 N 0.55005 0.59343 0.93215 0.0
H906 H 0.9184 0.51124 0.53059 0.0
H907 H 0.06625 0.59837 0.47174 0.0
H908 H 0.93491 0.55117 0.44014 0.0
H909 H 0.04758 0.60598 0.56563 0.0
H910 H 0.01841 0.57926 0.4593 0.0
H911 H 0.9655 0.54389 0.54421 0.0
C912 C 0.93186 0.52733 0.51376 0.0
C913 C 0.92275 0.52856 0.48421 0.0
C914 C 0.02483 0.58563 0.48253 0.0
C915 C 0.97676 0.56524 0.49942 0.0
C916 C 0.05209 0.59645 0.48967 0.0
C917 C 0.06086 0.60377 0.51977 0.0
C918 C 0.00608 0.58119 0.50577 0.0
C919 C 0.04167 0.60078 0.54212 0.0
C920 C 0.95869 0.54596 0.52156 0.0
C921 C 0.94106 0.54968 0.46323 0.0
N922 N 0.01509 0.58912 0.53477 0.0
N923 N 0.96733 0.56673 0.47107 0.0
H924 H 0.57514 0.23767 0.07081 0.0
H925 H 0.64495 0.41892 0.13913 0.0
H926 H 0.63605 0.26567 0.14065 0.0
H927 H 0.59157 0.39135 0.0619 0.0
H928 H 0.63751 0.36146 0.14511 0.0
H929 H 0.57685 0.29278 0.07192 0.0
C930 C 0.58878 0.2553 0.08648 0.0
C931 C 0.60554 0.24693 0.10554 0.0
C932 C 0.62723 0.36808 0.12709 0.0
C933 C 0.60761 0.31024 0.10697 0.0
C934 C 0.63133 0.40083 0.12379 0.0
C935 C 0.619 0.41012 0.09987 0.0
C936 C 0.61056 0.34458 0.10642 0.0
C937 C 0.60166 0.38557 0.08058 0.0
C938 C 0.58975 0.28681 0.08713 0.0
C939 C 0.62277 0.27092 0.12545 0.0
N940 N 0.59811 0.35411 0.08418 0.0
N941 N 0.62343 0.30148 0.12555 0.0
H942 H 0.32098 0.54517 0.49449 0.0
H943 H 0.19442 0.54019 0.58177 0.0
H944 H 0.27395 0.46647 0.55443 0.0
H945 H 0.21336 0.58626 0.49384 0.0
H946 H 0.22561 0.51504 0.57217 0.0
H947 H 0.28313 0.5614 0.49167 0.0
C948 C 0.30244 0.53061 0.5062 0.0
C949 C 0.30082 0.50477 0.52522 0.0
C950 C 0.22281 0.53041 0.5548 0.0
C951 C 0.25798 0.52369 0.52277 0.0
C952 C 0.20515 0.54498 0.56039 0.0
C953 C 0.20138 0.56545 0.53865 0.0
C954 C 0.23738 0.53683 0.52752 0.0
C955 C 0.2157 0.57058 0.5112 0.0
C956 C 0.28094 0.54007 0.50479 0.0
C957 C 0.27632 0.48694 0.54002 0.0
N958 N 0.23342 0.55674 0.50656 0.0
N959 N 0.25615 0.49711 0.53902 0.0
H960 H 0.82553 0.28519 0.04264 0.0
H961 H 0.70382 0.18931 0.10824 0.0
H962 H 0.77847 0.33045 1.00028 0.0
H963 H 0.66698 0.20681 0.02741 0.0
H964 H 0.74808 0.22128 0.08617 0.0
H965 H 0.78418 0.23616 0.0522 0.0
C966 C 0.80656 0.2842 0.03422 0.0
C967 C 0.80525 0.31174 0.0207 0.0
C968 C 0.73032 0.21729 0.07288 0.0
C969 C 0.758 0.25666 0.03254 0.0
C970 C 0.70499 0.19926 0.08565 0.0
C971 C 0.68155 0.1956 0.06989 0.0
C972 C 0.7322 0.23194 0.04425 0.0
C973 C 0.6844 0.20918 0.04064 0.0
C974 C 0.78295 0.25652 0.04021 0.0
C975 C 0.78027 0.30951 0.01046 0.0
N976 N 0.7092 0.22723 0.02908 0.0
N977 N 0.75753 0.28259 0.01695 0.0
H978 H 0.35821 0.73646 0.6101 0.0
H979 H 0.42011 0.61613 0.54971 0.0
H980 H 0.42965 0.76879 0.55435 0.0
H981 H 0.35854 0.58933 0.61859 0.0
H982 H 0.42534 0.67241 0.55269 0.0
H983 H 0.35867 0.6829 0.61384 0.0
C984 C 0.37411 0.73241 0.59862 0.0
C985 C 0.39404 0.75742 0.5819 0.0
C986 C 0.41094 0.65437 0.56746 0.0
C987 C 0.39448 0.69551 0.58613 0.0
C988 C 0.40795 0.62213 0.56586 0.0
C989 C 0.38865 0.5978 0.58375 0.0
C990 C 0.39427 0.66242 0.58683 0.0
C991 C 0.37363 0.60722 0.60436 0.0
C992 C 0.37436 0.70169 0.60092 0.0
C993 C 0.41387 0.75031 0.56741 0.0
N994 N 0.37648 0.63875 0.60501 0.0
N995 N 0.41353 0.71994 0.56977 0.0
H996 H 0.73272 0.53783 0.06951 0.0
H997 H 0.79051 0.41809 0.99536 0.0
H998 H 0.68615 0.46379 0.00534 0.0
H999 H 0.81406 0.4643 0.08272 0.0
H1000 H 0.75799 0.44271 0.99041 0.0
H1001 H 0.76943 0.52097 0.06428 0.0
C1002 C 0.73037 0.51845 0.05378 0.0
C1003 C 0.706 0.50181 0.03834 0.0
C1004 C 0.7704 0.4475 0.01054 0.0
C1005 C 0.74813 0.48197 0.03252 0.0
C1006 C 0.78897 0.43353 0.01342 0.0
C1007 C 0.80495 0.43898 0.03963 0.0
C1008 C 0.76823 0.46761 0.03372 0.0
C1009 C 0.80205 0.45916 0.06227 0.0
C1010 C 0.75135 0.50865 0.05099 0.0
C1011 C 0.70446 0.47718 0.01785 0.0
N1012 N 0.78415 0.47279 0.05874 0.0
N1013 N 0.72512 0.46759 0.01587 0.0
H1014 H 0.17807 0.71814 0.54418 0.0
H1015 H 0.33485 0.80262 0.50735 0.0
H1016 H 0.22 0.67418 0.49036 0.0
H1017 H 0.29863 0.82094 0.58822 0.0
H1018 H 0.29007 0.76879 0.48793 0.0
H1019 H 0.21912 0.76896 0.54599 0.0
C1020 C 0.19557 0.71978 0.53148 0.0
C1021 C 0.19582 0.69211 0.51715 0.0
C1022 C 0.29196 0.78076 0.50965 0.0
C1023 C 0.24269 0.74961 0.51943 0.0
C1024 C 0.31752 0.80009 0.52085 0.0
C1025 C 0.32062 0.81411 0.54987 0.0
C1026 C 0.26925 0.77562 0.52738 0.0
C1027 C 0.29728 0.81024 0.56597 0.0
C1028 C 0.21902 0.74859 0.53281 0.0
C1029 C 0.219 0.69518 0.50135 0.0
N1030 N 0.27258 0.79099 0.55467 0.0
N1031 N 0.24171 0.72329 0.5033 0.0
H1032 H 0.77428 0.43071 0.49768 0.0
H1033 H 0.65227 0.44523 0.49042 0.0
H1034 H 0.80163 0.50616 0.42967 0.0
H1035 H 0.6803 0.48332 0.40099 0.0
H1036 H 0.6979 0.45313 0.50385 0.0
H1037 H 0.73107 0.43504 0.49931 0.0
C1038 C 0.77154 0.44911 0.48398 0.0
C1039 C 0.79141 0.46792 0.46333 0.0
C1040 C 0.6941 0.45966 0.48127 0.0
C1041 C 0.74194 0.47285 0.46456 0.0
C1042 C 0.66801 0.45543 0.4736 0.0
C1043 C 0.66221 0.4631 0.44427 0.0
C1044 C 0.71463 0.47161 0.45946 0.0
C1045 C 0.68364 0.4767 0.42373 0.0
C1046 C 0.74676 0.45152 0.48476 0.0
C1047 C 0.78661 0.4908 0.44549 0.0
N1048 N 0.7088 0.4803 0.43167 0.0
N1049 N 0.76223 0.4922 0.44608 0.0
H1050 H 0.33914 0.78788 0.99604 0.0
H1051 H 0.20668 0.67555 0.91206 0.0
H1052 H 0.28354 0.82749 0.96681 0.0
H1053 H 0.23299 0.63923 0.99044 0.0
H1054 H 0.23829 0.73135 0.9256 0.0
H1055 H 0.30384 0.73257 0.98954 0.0
C1056 C 0.31939 0.78492 0.98841 0.0
C1057 C 0.31436 0.81221 0.98076 0.0
C1058 C 0.23706 0.7111 0.93979 0.0
C1059 C 0.27425 0.74921 0.97277 0.0
C1060 C 0.21921 0.67934 0.932 0.0
C1061 C 0.2173 0.65283 0.95016 0.0
C1062 C 0.25373 0.71618 0.96527 0.0
C1063 C 0.23382 0.65906 0.97591 0.0
C1064 C 0.29934 0.7534 0.98463 0.0
C1065 C 0.2885 0.80699 0.97106 0.0
N1066 N 0.25166 0.69004 0.98246 0.0
N1067 N 0.26944 0.77608 0.9668 0.0
H1068 H 0.60809 0.20344 0.38007 0.0
H1069 H 0.56329 0.32784 0.46931 0.0
H1070 H 0.59843 0.20225 0.47737 0.0
H1071 H 0.59499 0.34278 0.37809 0.0
H1072 H 0.56668 0.27509 0.47046 0.0
H1073 H 0.59351 0.2479 0.37691 0.0
C1074 C 0.60278 0.21233 0.40075 0.0
C1075 C 0.60509 0.19953 0.42908 0.0
C1076 C 0.57254 0.28987 0.45011 0.0
C1077 C 0.58815 0.25018 0.42557 0.0
C1078 C 0.57055 0.31989 0.4494 0.0
C1079 C 0.57895 0.33989 0.42362 0.0
C1080 C 0.58275 0.27978 0.42476 0.0
C1081 C 0.58826 0.32834 0.3985 0.0
C1082 C 0.59442 0.2377 0.39892 0.0
C1083 C 0.59741 0.2117 0.45506 0.0
N1084 N 0.59 0.29918 0.39976 0.0
N1085 N 0.58948 0.23653 0.4527 0.0
H1086 H 0.19445 0.47816 0.94095 0.0
H1087 H 0.34822 0.54369 0.99096 0.0
H1088 H 0.23489 0.56278 0.99693 0.0
H1089 H 0.3167 0.49129 0.90771 0.0
H1090 H 0.30267 0.53474 0.00586 0.0
H1091 H 0.23488 0.46706 0.94211 0.0
C1092 C 0.21147 0.49356 0.95456 0.0
C1093 C 0.21149 0.52136 0.96889 0.0
C1094 C 0.30571 0.52466 0.98463 0.0
C1095 C 0.25763 0.50913 0.97012 0.0
C1096 C 0.33173 0.52971 0.97602 0.0
C1097 C 0.33648 0.5189 0.94762 0.0
C1098 C 0.28418 0.50837 0.96491 0.0
C1099 C 0.31411 0.50051 0.92958 0.0
C1100 C 0.23456 0.4874 0.955 0.0
C1101 C 0.23405 0.54084 0.98595 0.0
N1102 N 0.28895 0.49621 0.93835 0.0
N1103 N 0.2564 0.53461 0.9858 0.0
H1104 H 0.71608 0.18076 0.49879 0.0
H1105 H 0.77873 0.34031 0.39355 0.0
H1106 H 0.67318 0.20009 0.42553 0.0
H1107 H 0.805 0.33801 0.48556 0.0
H1108 H 0.74458 0.28434 0.40011 0.0
H1109 H 0.75359 0.23452 0.49018 0.0
C1110 C 0.71477 0.19614 0.4805 0.0
C1111 C 0.69199 0.18564 0.46179 0.0
C1112 C 0.758 0.29612 0.41875 0.0
C1113 C 0.73437 0.24684 0.45195 0.0
C1114 C 0.77757 0.32803 0.41499 0.0
C1115 C 0.79484 0.34408 0.43902 0.0
C1116 C 0.7559 0.27994 0.44658 0.0
C1117 C 0.79223 0.32678 0.46634 0.0
C1118 C 0.73607 0.22673 0.47562 0.0
C1119 C 0.69092 0.20673 0.43908 0.0
N1120 N 0.77319 0.29572 0.46935 0.0
N1121 N 0.71177 0.23619 0.43457 0.0
H1122 H 0.43656 0.67193 0.95646 0.0
H1123 H 0.34591 0.76207 0.89674 0.0
H1124 H 0.37117 0.63096 0.89242 0.0
H1125 H 0.41203 0.80663 0.9593 0.0
H1126 H 0.3563 0.71443 0.894 0.0
H1127 H 0.42894 0.72212 0.95755 0.0
C1128 C 0.4207 0.67344 0.94264 0.0
C1129 C 0.40459 0.64714 0.92429 0.0
C1130 C 0.36863 0.7347 0.90824 0.0
C1131 C 0.39579 0.70426 0.92538 0.0
C1132 C 0.36273 0.76202 0.90974 0.0
C1133 C 0.378 0.78847 0.92836 0.0
C1134 C 0.38994 0.73366 0.92553 0.0
C1135 C 0.39958 0.78682 0.9447 0.0
C1136 C 0.41638 0.70207 0.94323 0.0
C1137 C 0.38426 0.65048 0.90688 0.0
N1138 N 0.40482 0.75983 0.94301 0.0
N1139 N 0.38049 0.67839 0.90789 0.0
loop_
_geom_bond_atom_site_label_1
_geom_bond_atom_site_label_2
_geom_bond_distance
_geom_bond_site_symmetry_2
_ccdc_geom_bond_type
Co0 O2 2.143 . S
Co0 O8 2.074 . S
Co0 O11 2.093 . S
Co0 O24 2.097 . S
Co0 N41 2.151 . S
Co0 N49 2.214 . S
Co1 O2 2.160 . S
Co1 O7 2.058 . S
Co1 O17 2.057 . S
Co1 O32 2.037 . S
Co1 N36 2.145 1_554 S
Co1 N57 2.257 . S
O2 Co0 2.143 . S
O2 Co1 2.160 . S
C3 O4 1.278 . S
C3 O11 1.224 . S
O4 C3 1.278 . S
C5 O6 1.245 . S
C5 O17 1.232 . S
O6 C5 1.245 . S
O7 Co1 2.058 . S
O7 C33 1.269 . S
O8 Co0 2.074 . S
O8 C33 1.257 . S
H9 C34 0.930 . S
H10 C40 0.930 . S
O11 Co0 2.093 . S
O11 C3 1.224 . S
H12 C44 0.929 . S
H13 C46 0.930 . S
H14 C47 0.930 . S
H15 C45 0.929 . S
H16 C48 0.928 . S
O17 Co1 2.057 . S
O17 C5 1.232 . S
H18 C37 0.929 . S
H19 C38 0.929 . S
H20 C50 0.931 . S
H21 C42 0.929 . S
H22 C51 0.930 . S
H23 C43 0.931 . S
O24 Co0 2.097 . S
O24 C52 1.214 . S
H25 C53 0.929 . S
H26 C54 0.929 . S
H27 C55 0.930 . S
H28 C56 0.929 . S
H29 C58 0.930 . S
H30 C35 0.930 . S
H31 C39 0.930 . S
O32 Co1 2.037 . S
O32 C52 1.234 . S
C33 O7 1.269 . S
C33 O8 1.257 . S
C34 H9 0.930 . S
C34 C37 1.388 . S
C34 C39 1.418 . S
C35 H30 0.930 . S
C35 C38 1.404 . S
C35 C39 1.353 . S
N36 Co1 2.145 1_556 S
N36 C37 1.397 . S
N36 C38 1.334 . S
C37 H18 0.929 . S
C37 C34 1.388 . S
C37 N36 1.397 . S
C38 H19 0.929 . S
C38 C35 1.404 . S
C38 N36 1.334 . S
C39 H31 0.930 . S
C39 C34 1.418 . S
C39 C35 1.353 . S
C40 H10 0.930 . S
C40 N41 1.330 . S
C40 C42 1.446 . S
N41 Co0 2.151 . S
N41 C40 1.330 . S
N41 C45 1.418 . S
C42 H21 0.929 . S
C42 C40 1.446 . S
C42 C43 1.332 . S
C43 H23 0.931 . S
C43 C42 1.332 . S
C43 C44 1.267 . S
C44 H12 0.929 . S
C44 C43 1.267 . S
C44 C45 1.251 . S
C45 H15 0.929 . S
C45 N41 1.418 . S
C45 C44 1.251 . S
C46 H13 0.930 . S
C46 C48 1.406 . S
C46 C51 1.261 . S
C47 H14 0.930 . S
C47 N49 1.325 . S
C47 C50 1.357 . S
C48 H16 0.928 . S
C48 C46 1.406 . S
C48 N49 1.261 . S
N49 Co0 2.214 . S
N49 C47 1.325 . S
N49 C48 1.261 . S
C50 H20 0.931 . S
C50 C47 1.357 . S
C50 C51 1.312 . S
C51 H22 0.930 . S
C51 C46 1.261 . S
C51 C50 1.312 . S
C52 O24 1.214 . S
C52 O32 1.234 . S
C53 H25 0.929 . S
C53 C56 1.391 . S
C53 C58 1.391 . S
C54 H26 0.929 . S
C54 C55 1.390 . S
C54 N57 1.391 . S
C55 H27 0.930 . S
C55 C54 1.390 . S
C55 C56 1.392 . S
C56 H28 0.929 . S
C56 C53 1.391 . S
C56 C55 1.392 . S
N57 Co1 2.257 . S
N57 C54 1.391 . S
N57 C58 1.388 . S
C58 H29 0.930 . S
C58 C53 1.391 . S
C58 N57 1.388 . S
Co59 O61 2.143 . S
Co59 O67 2.074 . S
Co59 O70 2.093 . S
Co59 O83 2.097 . S
Co59 N100 2.151 . S
Co59 N108 2.214 . S
Co60 O61 2.160 . S
Co60 O66 2.058 . S
Co60 O76 2.057 . S
Co60 O91 2.037 . S
Co60 N95 2.145 . S
Co60 N116 2.257 . S
O61 Co59 2.143 . S
O61 Co60 2.160 . S
C62 O63 1.278 . S
C62 O70 1.224 . S
O63 C62 1.278 . S
C64 O65 1.245 . S
C64 O76 1.232 . S
O65 C64 1.245 . S
O66 Co60 2.058 . S
O66 C92 1.269 . S
O67 Co59 2.074 . S
O67 C92 1.257 . S
H68 C93 0.930 . S
H69 C99 0.930 . S
O70 Co59 2.093 . S
O70 C62 1.224 . S
H71 C103 0.929 . S
H72 C105 0.930 . S
H73 C106 0.930 . S
H74 C104 0.929 . S
H75 C107 0.928 . S
O76 Co60 2.057 . S
O76 C64 1.232 . S
H77 C96 0.929 . S
H78 C97 0.929 . S
H79 C109 0.931 . S
H80 C101 0.929 . S
H81 C110 0.930 . S
H82 C102 0.931 . S
O83 Co59 2.097 . S
O83 C111 1.214 . S
H84 C112 0.929 . S
H85 C113 0.929 . S
H86 C114 0.930 . S
H87 C115 0.929 . S
H88 C117 0.930 . S
H89 C94 0.930 . S
H90 C98 0.930 . S
O91 Co60 2.037 . S
O91 C111 1.234 . S
C92 O66 1.269 . S
C92 O67 1.257 . S
C93 H68 0.930 . S
C93 C96 1.388 . S
C93 C98 1.418 . S
C94 H89 0.930 . S
C94 C97 1.404 . S
C94 C98 1.353 . S
N95 Co60 2.145 . S
N95 C96 1.397 . S
N95 C97 1.334 . S
C96 H77 0.929 . S
C96 C93 1.388 . S
C96 N95 1.397 . S
C97 H78 0.929 . S
C97 C94 1.404 . S
C97 N95 1.334 . S
C98 H90 0.930 . S
C98 C93 1.418 . S
C98 C94 1.353 . S
C99 H69 0.930 . S
C99 N100 1.330 . S
C99 C101 1.446 . S
N100 Co59 2.151 . S
N100 C99 1.330 . S
N100 C104 1.418 . S
C101 H80 0.929 . S
C101 C99 1.446 . S
C101 C102 1.332 . S
C102 H82 0.931 . S
C102 C101 1.332 . S
C102 C103 1.267 . S
C103 H71 0.929 . S
C103 C102 1.267 . S
C103 C104 1.251 . S
C104 H74 0.929 . S
C104 N100 1.418 . S
C104 C103 1.251 . S
C105 H72 0.930 . S
C105 C107 1.406 . S
C105 C110 1.261 . S
C106 H73 0.930 . S
C106 N108 1.325 . S
C106 C109 1.357 . S
C107 H75 0.928 . S
C107 C105 1.406 . S
C107 N108 1.261 . S
N108 Co59 2.214 . S
N108 C106 1.325 . S
N108 C107 1.261 . S
C109 H79 0.931 . S
C109 C106 1.357 . S
C109 C110 1.312 . S
C110 H81 0.930 . S
C110 C105 1.261 . S
C110 C109 1.312 . S
C111 O83 1.214 . S
C111 O91 1.234 . S
C112 H84 0.929 . S
C112 C115 1.391 . S
C112 C117 1.391 . S
C113 H85 0.929 . S
C113 C114 1.390 . S
C113 N116 1.391 . S
C114 H86 0.930 . S
C114 C113 1.390 . S
C114 C115 1.392 . S
C115 H87 0.929 . S
C115 C112 1.391 . S
C115 C114 1.392 . S
N116 Co60 2.257 . S
N116 C113 1.391 . S
N116 C117 1.388 . S
C117 H88 0.930 . S
C117 C112 1.391 . S
C117 N116 1.388 . S
Co118 O120 2.143 . S
Co118 O126 2.074 . S
Co118 O129 2.093 . S
Co118 O142 2.097 . S
Co118 N159 2.151 . S
Co118 N167 2.214 1_554 S
Co119 O120 2.160 . S
Co119 O125 2.058 . S
Co119 O135 2.057 . S
Co119 O150 2.037 . S
Co119 N154 2.145 . S
Co119 N175 2.257 . S
O120 Co118 2.143 . S
O120 Co119 2.160 . S
C121 O122 1.278 . S
C121 O129 1.224 . S
O122 C121 1.278 . S
C123 O124 1.245 . S
C123 O135 1.232 . S
O124 C123 1.245 . S
O125 Co119 2.058 . S
O125 C151 1.269 . S
O126 Co118 2.074 . S
O126 C151 1.257 . S
H127 C152 0.930 . S
H128 C158 0.930 . S
O129 Co118 2.093 . S
O129 C121 1.224 . S
H130 C162 0.929 . S
H131 C164 0.930 . S
H132 C165 0.930 . S
H133 C163 0.929 . S
H134 C166 0.928 . S
O135 Co119 2.057 . S
O135 C123 1.232 . S
H136 C155 0.929 . S
H137 C156 0.929 . S
H138 C168 0.931 . S
H139 C160 0.929 . S
H140 C169 0.930 . S
H141 C161 0.931 . S
O142 Co118 2.097 . S
O142 C170 1.214 . S
H143 C171 0.929 . S
H144 C172 0.929 . S
H145 C173 0.930 . S
H146 C174 0.929 . S
H147 C176 0.930 . S
H148 C153 0.930 . S
H149 C157 0.930 . S
O150 Co119 2.037 . S
O150 C170 1.234 . S
C151 O125 1.269 . S
C151 O126 1.257 . S
C152 H127 0.930 . S
C152 C155 1.388 . S
C152 C157 1.418 . S
C153 H148 0.930 . S
C153 C156 1.404 . S
C153 C157 1.353 . S
N154 Co119 2.145 . S
N154 C155 1.397 . S
N154 C156 1.334 . S
C155 H136 0.929 . S
C155 C152 1.388 . S
C155 N154 1.397 . S
C156 H137 0.929 . S
C156 C153 1.404 . S
C156 N154 1.334 . S
C157 H149 0.930 . S
C157 C152 1.418 . S
C157 C153 1.353 . S
C158 H128 0.930 . S
C158 N159 1.330 . S
C158 C160 1.446 . S
N159 Co118 2.151 . S
N159 C158 1.330 . S
N159 C163 1.418 . S
C160 H139 0.929 . S
C160 C158 1.446 . S
C160 C161 1.332 . S
C161 H141 0.931 . S
C161 C160 1.332 . S
C161 C162 1.267 . S
C162 H130 0.929 . S
C162 C161 1.267 . S
C162 C163 1.251 . S
C163 H133 0.929 . S
C163 N159 1.418 . S
C163 C162 1.251 . S
C164 H131 0.930 . S
C164 C166 1.406 . S
C164 C169 1.261 . S
C165 H132 0.930 . S
C165 N167 1.325 . S
C165 C168 1.357 . S
C166 H134 0.928 . S
C166 C164 1.406 . S
C166 N167 1.261 . S
N167 Co118 2.214 1_556 S
N167 C165 1.325 . S
N167 C166 1.261 . S
C168 H138 0.931 . S
C168 C165 1.357 . S
C168 C169 1.312 . S
C169 H140 0.930 . S
C169 C164 1.261 . S
C169 C168 1.312 . S
C170 O142 1.214 . S
C170 O150 1.234 . S
C171 H143 0.929 . S
C171 C174 1.391 . S
C171 C176 1.391 . S
C172 H144 0.929 . S
C172 C173 1.390 . S
C172 N175 1.391 . S
C173 H145 0.930 . S
C173 C172 1.390 . S
C173 C174 1.392 . S
C174 H146 0.929 . S
C174 C171 1.391 . S
C174 C173 1.392 . S
N175 Co119 2.257 . S
N175 C172 1.391 . S
N175 C176 1.388 . S
C176 H147 0.930 . S
C176 C171 1.391 . S
C176 N175 1.388 . S
Co177 O179 2.143 . S
Co177 O185 2.074 . S
Co177 O188 2.093 . S
Co177 O201 2.097 . S
Co177 N218 2.151 . S
Co177 N226 2.214 . S
Co178 O179 2.160 . S
Co178 O184 2.058 . S
Co178 O194 2.057 . S
Co178 O209 2.037 . S
Co178 N213 2.145 . S
Co178 N234 2.257 . S
O179 Co177 2.143 . S
O179 Co178 2.160 . S
C180 O181 1.278 . S
C180 O188 1.224 . S
O181 C180 1.278 . S
C182 O183 1.245 . S
C182 O194 1.232 . S
O183 C182 1.245 . S
O184 Co178 2.058 . S
O184 C210 1.269 . S
O185 Co177 2.074 . S
O185 C210 1.257 . S
H186 C211 0.930 . S
H187 C217 0.930 . S
O188 Co177 2.093 . S
O188 C180 1.224 . S
H189 C221 0.929 . S
H190 C223 0.930 . S
H191 C224 0.930 . S
H192 C222 0.929 . S
H193 C225 0.928 . S
O194 Co178 2.057 . S
O194 C182 1.232 . S
H195 C214 0.929 . S
H196 C215 0.929 . S
H197 C227 0.931 . S
H198 C219 0.929 . S
H199 C228 0.930 . S
H200 C220 0.931 . S
O201 Co177 2.097 . S
O201 C229 1.214 . S
H202 C230 0.929 . S
H203 C231 0.929 . S
H204 C232 0.930 . S
H205 C233 0.929 . S
H206 C235 0.930 . S
H207 C212 0.930 . S
H208 C216 0.930 . S
O209 Co178 2.037 . S
O209 C229 1.234 . S
C210 O184 1.269 . S
C210 O185 1.257 . S
C211 H186 0.930 . S
C211 C214 1.388 . S
C211 C216 1.418 . S
C212 H207 0.930 . S
C212 C215 1.404 . S
C212 C216 1.353 . S
N213 Co178 2.145 . S
N213 C214 1.397 . S
N213 C215 1.334 . S
C214 H195 0.929 . S
C214 C211 1.388 . S
C214 N213 1.397 . S
C215 H196 0.929 . S
C215 C212 1.404 . S
C215 N213 1.334 . S
C216 H208 0.930 . S
C216 C211 1.418 . S
C216 C212 1.353 . S
C217 H187 0.930 . S
C217 N218 1.330 . S
C217 C219 1.446 . S
N218 Co177 2.151 . S
N218 C217 1.330 . S
N218 C222 1.418 . S
C219 H198 0.929 . S
C219 C217 1.446 . S
C219 C220 1.332 . S
C220 H200 0.931 . S
C220 C219 1.332 . S
C220 C221 1.267 . S
C221 H189 0.929 . S
C221 C220 1.267 . S
C221 C222 1.251 . S
C222 H192 0.929 . S
C222 N218 1.418 . S
C222 C221 1.251 . S
C223 H190 0.930 . S
C223 C225 1.406 . S
C223 C228 1.261 . S
C224 H191 0.930 . S
C224 N226 1.325 . S
C224 C227 1.357 . S
C225 H193 0.928 . S
C225 C223 1.406 . S
C225 N226 1.261 . S
N226 Co177 2.214 . S
N226 C224 1.325 . S
N226 C225 1.261 . S
C227 H197 0.931 . S
C227 C224 1.357 . S
C227 C228 1.312 . S
C228 H199 0.930 . S
C228 C223 1.261 . S
C228 C227 1.312 . S
C229 O201 1.214 . S
C229 O209 1.234 . S
C230 H202 0.929 . S
C230 C233 1.391 . S
C230 C235 1.391 . S
C231 H203 0.929 . S
C231 C232 1.390 . S
C231 N234 1.391 . S
C232 H204 0.930 . S
C232 C231 1.390 . S
C232 C233 1.392 . S
C233 H205 0.929 . S
C233 C230 1.391 . S
C233 C232 1.392 . S
N234 Co178 2.257 . S
N234 C231 1.391 . S
N234 C235 1.388 . S
C235 H206 0.930 . S
C235 C230 1.391 . S
C235 N234 1.388 . S
Co236 O238 2.143 . S
Co236 O244 2.074 . S
Co236 O247 2.093 . S
Co236 O260 2.097 . S
Co236 N277 2.151 . S
Co236 N285 2.214 . S
Co237 O238 2.160 . S
Co237 O243 2.058 . S
Co237 O253 2.057 . S
Co237 O268 2.037 . S
Co237 N272 2.145 1_554 S
Co237 N293 2.257 . S
O238 Co236 2.143 . S
O238 Co237 2.160 . S
C239 O240 1.278 . S
C239 O247 1.224 . S
O240 C239 1.278 . S
C241 O242 1.245 . S
C241 O253 1.232 . S
O242 C241 1.245 . S
O243 Co237 2.058 . S
O243 C269 1.269 . S
O244 Co236 2.074 . S
O244 C269 1.257 . S
H245 C270 0.930 . S
H246 C276 0.930 . S
O247 Co236 2.093 . S
O247 C239 1.224 . S
H248 C280 0.929 . S
H249 C282 0.930 . S
H250 C283 0.930 . S
H251 C281 0.929 . S
H252 C284 0.928 . S
O253 Co237 2.057 . S
O253 C241 1.232 . S
H254 C273 0.929 . S
H255 C274 0.929 . S
H256 C286 0.931 . S
H257 C278 0.929 . S
H258 C287 0.930 . S
H259 C279 0.931 . S
O260 Co236 2.097 . S
O260 C288 1.214 . S
H261 C289 0.929 . S
H262 C290 0.929 . S
H263 C291 0.930 . S
H264 C292 0.929 . S
H265 C294 0.930 . S
H266 C271 0.930 . S
H267 C275 0.930 . S
O268 Co237 2.037 . S
O268 C288 1.234 . S
C269 O243 1.269 . S
C269 O244 1.257 . S
C270 H245 0.930 . S
C270 C273 1.388 . S
C270 C275 1.418 . S
C271 H266 0.930 . S
C271 C274 1.404 . S
C271 C275 1.353 . S
N272 Co237 2.145 1_556 S
N272 C273 1.397 . S
N272 C274 1.334 . S
C273 H254 0.929 . S
C273 C270 1.388 . S
C273 N272 1.397 . S
C274 H255 0.929 . S
C274 C271 1.404 . S
C274 N272 1.334 . S
C275 H267 0.930 . S
C275 C270 1.418 . S
C275 C271 1.353 . S
C276 H246 0.930 . S
C276 N277 1.330 . S
C276 C278 1.446 . S
N277 Co236 2.151 . S
N277 C276 1.330 . S
N277 C281 1.418 . S
C278 H257 0.929 . S
C278 C276 1.446 . S
C278 C279 1.332 . S
C279 H259 0.931 . S
C279 C278 1.332 . S
C279 C280 1.267 . S
C280 H248 0.929 . S
C280 C279 1.267 . S
C280 C281 1.251 . S
C281 H251 0.929 . S
C281 N277 1.418 . S
C281 C280 1.251 . S
C282 H249 0.930 . S
C282 C284 1.406 . S
C282 C287 1.261 . S
C283 H250 0.930 . S
C283 N285 1.325 . S
C283 C286 1.357 . S
C284 H252 0.928 . S
C284 C282 1.406 . S
C284 N285 1.261 . S
N285 Co236 2.214 . S
N285 C283 1.325 . S
N285 C284 1.261 . S
C286 H256 0.931 . S
C286 C283 1.357 . S
C286 C287 1.312 . S
C287 H258 0.930 . S
C287 C282 1.261 . S
C287 C286 1.312 . S
C288 O260 1.214 . S
C288 O268 1.234 . S
C289 H261 0.929 . S
C289 C292 1.391 . S
C289 C294 1.391 . S
C290 H262 0.929 . S
C290 C291 1.390 . S
C290 N293 1.391 . S
C291 H263 0.930 . S
C291 C290 1.390 . S
C291 C292 1.392 . S
C292 H264 0.929 . S
C292 C289 1.391 . S
C292 C291 1.392 . S
N293 Co237 2.257 . S
N293 C290 1.391 . S
N293 C294 1.388 . S
C294 H265 0.930 . S
C294 C289 1.391 . S
C294 N293 1.388 . S
Co295 O297 2.143 . S
Co295 O303 2.074 . S
Co295 O306 2.093 . S
Co295 O319 2.097 . S
Co295 N336 2.151 . S
Co295 N344 2.214 . S
Co296 O297 2.160 . S
Co296 O302 2.058 . S
Co296 O312 2.057 . S
Co296 O327 2.037 . S
Co296 N331 2.145 . S
Co296 N352 2.257 . S
O297 Co295 2.143 . S
O297 Co296 2.160 . S
C298 O299 1.278 . S
C298 O306 1.224 . S
O299 C298 1.278 . S
C300 O301 1.245 . S
C300 O312 1.232 . S
O301 C300 1.245 . S
O302 Co296 2.058 . S
O302 C328 1.269 . S
O303 Co295 2.074 . S
O303 C328 1.257 . S
H304 C329 0.930 . S
H305 C335 0.930 . S
O306 Co295 2.093 . S
O306 C298 1.224 . S
H307 C339 0.929 . S
H308 C341 0.930 . S
H309 C342 0.930 . S
H310 C340 0.929 . S
H311 C343 0.928 . S
O312 Co296 2.057 . S
O312 C300 1.232 . S
H313 C332 0.929 . S
H314 C333 0.929 . S
H315 C345 0.931 . S
H316 C337 0.929 . S
H317 C346 0.930 . S
H318 C338 0.931 . S
O319 Co295 2.097 . S
O319 C347 1.214 . S
H320 C348 0.929 . S
H321 C349 0.929 . S
H322 C350 0.930 . S
H323 C351 0.929 . S
H324 C353 0.930 . S
H325 C330 0.930 . S
H326 C334 0.930 . S
O327 Co296 2.037 . S
O327 C347 1.234 . S
C328 O302 1.269 . S
C328 O303 1.257 . S
C329 H304 0.930 . S
C329 C332 1.388 . S
C329 C334 1.418 . S
C330 H325 0.930 . S
C330 C333 1.404 . S
C330 C334 1.353 . S
N331 Co296 2.145 . S
N331 C332 1.397 . S
N331 C333 1.334 . S
C332 H313 0.929 . S
C332 C329 1.388 . S
C332 N331 1.397 . S
C333 H314 0.929 . S
C333 C330 1.404 . S
C333 N331 1.334 . S
C334 H326 0.930 . S
C334 C329 1.418 . S
C334 C330 1.353 . S
C335 H305 0.930 . S
C335 N336 1.330 . S
C335 C337 1.446 . S
N336 Co295 2.151 . S
N336 C335 1.330 . S
N336 C340 1.418 . S
C337 H316 0.929 . S
C337 C335 1.446 . S
C337 C338 1.332 . S
C338 H318 0.931 . S
C338 C337 1.332 . S
C338 C339 1.267 . S
C339 H307 0.929 . S
C339 C338 1.267 . S
C339 C340 1.251 . S
C340 H310 0.929 . S
C340 N336 1.418 . S
C340 C339 1.251 . S
C341 H308 0.930 . S
C341 C343 1.406 . S
C341 C346 1.261 . S
C342 H309 0.930 . S
C342 N344 1.325 . S
C342 C345 1.357 . S
C343 H311 0.928 . S
C343 C341 1.406 . S
C343 N344 1.261 . S
N344 Co295 2.214 . S
N344 C342 1.325 . S
N344 C343 1.261 . S
C345 H315 0.931 . S
C345 C342 1.357 . S
C345 C346 1.312 . S
C346 H317 0.930 . S
C346 C341 1.261 . S
C346 C345 1.312 . S
C347 O319 1.214 . S
C347 O327 1.234 . S
C348 H320 0.929 . S
C348 C351 1.391 . S
C348 C353 1.391 . S
C349 H321 0.929 . S
C349 C350 1.390 . S
C349 N352 1.391 . S
C350 H322 0.930 . S
C350 C349 1.390 . S
C350 C351 1.392 . S
C351 H323 0.929 . S
C351 C348 1.391 . S
C351 C350 1.392 . S
N352 Co296 2.257 . S
N352 C349 1.391 . S
N352 C353 1.388 . S
C353 H324 0.930 . S
C353 C348 1.391 . S
C353 N352 1.388 . S
Co354 O356 2.143 . S
Co354 O362 2.074 . S
Co354 O365 2.093 . S
Co354 O378 2.097 . S
Co354 N395 2.151 . S
Co354 N403 2.214 . S
Co355 O356 2.160 . S
Co355 O361 2.058 . S
Co355 O371 2.057 . S
Co355 O386 2.037 . S
Co355 N390 2.145 . S
Co355 N411 2.257 . S
O356 Co354 2.143 . S
O356 Co355 2.160 . S
C357 O358 1.278 . S
C357 O365 1.224 . S
O358 C357 1.278 . S
C359 O360 1.245 . S
C359 O371 1.232 . S
O360 C359 1.245 . S
O361 Co355 2.058 . S
O361 C387 1.269 . S
O362 Co354 2.074 . S
O362 C387 1.257 . S
H363 C388 0.930 . S
H364 C394 0.930 . S
O365 Co354 2.093 . S
O365 C357 1.224 . S
H366 C398 0.929 . S
H367 C400 0.930 . S
H368 C401 0.930 . S
H369 C399 0.929 . S
H370 C402 0.928 . S
O371 Co355 2.057 . S
O371 C359 1.232 . S
H372 C391 0.929 . S
H373 C392 0.929 . S
H374 C404 0.931 . S
H375 C396 0.929 . S
H376 C405 0.930 . S
H377 C397 0.931 . S
O378 Co354 2.097 . S
O378 C406 1.214 . S
H379 C407 0.929 . S
H380 C408 0.929 . S
H381 C409 0.930 . S
H382 C410 0.929 . S
H383 C412 0.930 . S
H384 C389 0.930 . S
H385 C393 0.930 . S
O386 Co355 2.037 . S
O386 C406 1.234 . S
C387 O361 1.269 . S
C387 O362 1.257 . S
C388 H363 0.930 . S
C388 C391 1.388 . S
C388 C393 1.418 . S
C389 H384 0.930 . S
C389 C392 1.404 . S
C389 C393 1.353 . S
N390 Co355 2.145 . S
N390 C391 1.397 . S
N390 C392 1.334 . S
C391 H372 0.929 . S
C391 C388 1.388 . S
C391 N390 1.397 . S
C392 H373 0.929 . S
C392 C389 1.404 . S
C392 N390 1.334 . S
C393 H385 0.930 . S
C393 C388 1.418 . S
C393 C389 1.353 . S
C394 H364 0.930 . S
C394 N395 1.330 . S
C394 C396 1.446 . S
N395 Co354 2.151 . S
N395 C394 1.330 . S
N395 C399 1.418 . S
C396 H375 0.929 . S
C396 C394 1.446 . S
C396 C397 1.332 . S
C397 H377 0.931 . S
C397 C396 1.332 . S
C397 C398 1.267 . S
C398 H366 0.929 . S
C398 C397 1.267 . S
C398 C399 1.251 . S
C399 H369 0.929 . S
C399 N395 1.418 . S
C399 C398 1.251 . S
C400 H367 0.930 . S
C400 C402 1.406 . S
C400 C405 1.261 . S
C401 H368 0.930 . S
C401 N403 1.325 . S
C401 C404 1.357 . S
C402 H370 0.928 . S
C402 C400 1.406 . S
C402 N403 1.261 . S
N403 Co354 2.214 . S
N403 C401 1.325 . S
N403 C402 1.261 . S
C404 H374 0.931 . S
C404 C401 1.357 . S
C404 C405 1.312 . S
C405 H376 0.930 . S
C405 C400 1.261 . S
C405 C404 1.312 . S
C406 O378 1.214 . S
C406 O386 1.234 . S
C407 H379 0.929 . S
C407 C410 1.391 . S
C407 C412 1.391 . S
C408 H380 0.929 . S
C408 C409 1.390 . S
C408 N411 1.391 . S
C409 H381 0.930 . S
C409 C408 1.390 . S
C409 C410 1.392 . S
C410 H382 0.929 . S
C410 C407 1.391 . S
C410 C409 1.392 . S
N411 Co355 2.257 . S
N411 C408 1.391 . S
N411 C412 1.388 . S
C412 H383 0.930 . S
C412 C407 1.391 . S
C412 N411 1.388 . S
Co413 O415 2.143 . S
Co413 O421 2.074 . S
Co413 O424 2.093 . S
Co413 O437 2.097 . S
Co413 N454 2.151 . S
Co413 N462 2.214 . S
Co414 O415 2.160 . S
Co414 O420 2.058 . S
Co414 O430 2.057 . S
Co414 O445 2.037 . S
Co414 N449 2.145 1_556 S
Co414 N470 2.257 . S
O415 Co413 2.143 . S
O415 Co414 2.160 . S
C416 O417 1.278 . S
C416 O424 1.224 . S
O417 C416 1.278 . S
C418 O419 1.245 . S
C418 O430 1.232 . S
O419 C418 1.245 . S
O420 Co414 2.058 . S
O420 C446 1.269 . S
O421 Co413 2.074 . S
O421 C446 1.257 . S
H422 C447 0.930 . S
H423 C453 0.930 . S
O424 Co413 2.093 . S
O424 C416 1.224 . S
H425 C457 0.929 . S
H426 C459 0.930 . S
H427 C460 0.930 . S
H428 C458 0.929 . S
H429 C461 0.928 . S
O430 Co414 2.057 . S
O430 C418 1.232 . S
H431 C450 0.929 . S
H432 C451 0.929 . S
H433 C463 0.931 . S
H434 C455 0.929 . S
H435 C464 0.930 . S
H436 C456 0.931 . S
O437 Co413 2.097 . S
O437 C465 1.214 . S
H438 C466 0.929 . S
H439 C467 0.929 . S
H440 C468 0.930 . S
H441 C469 0.929 . S
H442 C471 0.930 . S
H443 C448 0.930 . S
H444 C452 0.930 . S
O445 Co414 2.037 . S
O445 C465 1.234 . S
C446 O420 1.269 . S
C446 O421 1.257 . S
C447 H422 0.930 . S
C447 C450 1.388 . S
C447 C452 1.418 . S
C448 H443 0.930 . S
C448 C451 1.404 . S
C448 C452 1.353 . S
N449 Co414 2.145 1_554 S
N449 C450 1.397 . S
N449 C451 1.334 . S
C450 H431 0.929 . S
C450 C447 1.388 . S
C450 N449 1.397 . S
C451 H432 0.929 . S
C451 C448 1.404 . S
C451 N449 1.334 . S
C452 H444 0.930 . S
C452 C447 1.418 . S
C452 C448 1.353 . S
C453 H423 0.930 . S
C453 N454 1.330 . S
C453 C455 1.446 . S
N454 Co413 2.151 . S
N454 C453 1.330 . S
N454 C458 1.418 . S
C455 H434 0.929 . S
C455 C453 1.446 . S
C455 C456 1.332 . S
C456 H436 0.931 . S
C456 C455 1.332 . S
C456 C457 1.267 . S
C457 H425 0.929 . S
C457 C456 1.267 . S
C457 C458 1.251 . S
C458 H428 0.929 . S
C458 N454 1.418 . S
C458 C457 1.251 . S
C459 H426 0.930 . S
C459 C461 1.406 . S
C459 C464 1.261 . S
C460 H427 0.930 . S
C460 N462 1.325 . S
C460 C463 1.357 . S
C461 H429 0.928 . S
C461 C459 1.406 . S
C461 N462 1.261 . S
N462 Co413 2.214 . S
N462 C460 1.325 . S
N462 C461 1.261 . S
C463 H433 0.931 . S
C463 C460 1.357 . S
C463 C464 1.312 . S
C464 H435 0.930 . S
C464 C459 1.261 . S
C464 C463 1.312 . S
C465 O437 1.214 . S
C465 O445 1.234 . S
C466 H438 0.929 . S
C466 C469 1.391 . S
C466 C471 1.391 . S
C467 H439 0.929 . S
C467 C468 1.390 . S
C467 N470 1.391 . S
C468 H440 0.930 . S
C468 C467 1.390 . S
C468 C469 1.392 . S
C469 H441 0.929 . S
C469 C466 1.391 . S
C469 C468 1.392 . S
N470 Co414 2.257 . S
N470 C467 1.391 . S
N470 C471 1.388 . S
C471 H442 0.930 . S
C471 C466 1.391 . S
C471 N470 1.388 . S
Co472 O474 2.143 . S
Co472 O480 2.074 . S
Co472 O483 2.093 . S
Co472 O496 2.097 . S
Co472 N513 2.151 . S
Co472 N521 2.214 . S
Co473 O474 2.160 . S
Co473 O479 2.058 . S
Co473 O489 2.057 . S
Co473 O504 2.037 . S
Co473 N508 2.145 . S
Co473 N529 2.257 . S
O474 Co472 2.143 . S
O474 Co473 2.160 . S
C475 O476 1.278 . S
C475 O483 1.224 . S
O476 C475 1.278 . S
C477 O478 1.245 . S
C477 O489 1.232 . S
O478 C477 1.245 . S
O479 Co473 2.058 . S
O479 C505 1.269 . S
O480 Co472 2.074 . S
O480 C505 1.257 . S
H481 C506 0.930 . S
H482 C512 0.930 . S
O483 Co472 2.093 . S
O483 C475 1.224 . S
H484 C516 0.929 . S
H485 C518 0.930 . S
H486 C519 0.930 . S
H487 C517 0.929 . S
H488 C520 0.928 . S
O489 Co473 2.057 . S
O489 C477 1.232 . S
H490 C509 0.929 . S
H491 C510 0.929 . S
H492 C522 0.931 . S
H493 C514 0.929 . S
H494 C523 0.930 . S
H495 C515 0.931 . S
O496 Co472 2.097 . S
O496 C524 1.214 . S
H497 C525 0.929 . S
H498 C526 0.929 . S
H499 C527 0.930 . S
H500 C528 0.929 . S
H501 C530 0.930 . S
H502 C507 0.930 . S
H503 C511 0.930 . S
O504 Co473 2.037 . S
O504 C524 1.234 . S
C505 O479 1.269 . S
C505 O480 1.257 . S
C506 H481 0.930 . S
C506 C509 1.388 . S
C506 C511 1.418 . S
C507 H502 0.930 . S
C507 C510 1.404 . S
C507 C511 1.353 . S
N508 Co473 2.145 . S
N508 C509 1.397 . S
N508 C510 1.334 . S
C509 H490 0.929 . S
C509 C506 1.388 . S
C509 N508 1.397 . S
C510 H491 0.929 . S
C510 C507 1.404 . S
C510 N508 1.334 . S
C511 H503 0.930 . S
C511 C506 1.418 . S
C511 C507 1.353 . S
C512 H482 0.930 . S
C512 N513 1.330 . S
C512 C514 1.446 . S
N513 Co472 2.151 . S
N513 C512 1.330 . S
N513 C517 1.418 . S
C514 H493 0.929 . S
C514 C512 1.446 . S
C514 C515 1.332 . S
C515 H495 0.931 . S
C515 C514 1.332 . S
C515 C516 1.267 . S
C516 H484 0.929 . S
C516 C515 1.267 . S
C516 C517 1.251 . S
C517 H487 0.929 . S
C517 N513 1.418 . S
C517 C516 1.251 . S
C518 H485 0.930 . S
C518 C520 1.406 . S
C518 C523 1.261 . S
C519 H486 0.930 . S
C519 N521 1.325 . S
C519 C522 1.357 . S
C520 H488 0.928 . S
C520 C518 1.406 . S
C520 N521 1.261 . S
N521 Co472 2.214 . S
N521 C519 1.325 . S
N521 C520 1.261 . S
C522 H492 0.931 . S
C522 C519 1.357 . S
C522 C523 1.312 . S
C523 H494 0.930 . S
C523 C518 1.261 . S
C523 C522 1.312 . S
C524 O496 1.214 . S
C524 O504 1.234 . S
C525 H497 0.929 . S
C525 C528 1.391 . S
C525 C530 1.391 . S
C526 H498 0.929 . S
C526 C527 1.390 . S
C526 N529 1.391 . S
C527 H499 0.930 . S
C527 C526 1.390 . S
C527 C528 1.392 . S
C528 H500 0.929 . S
C528 C525 1.391 . S
C528 C527 1.392 . S
N529 Co473 2.257 . S
N529 C526 1.391 . S
N529 C530 1.388 . S
C530 H501 0.930 . S
C530 C525 1.391 . S
C530 N529 1.388 . S
Co531 O533 2.143 . S
Co531 O539 2.074 . S
Co531 O542 2.093 . S
Co531 O555 2.097 . S
Co531 N572 2.151 . S
Co531 N580 2.214 . S
Co532 O533 2.160 . S
Co532 O538 2.058 . S
Co532 O548 2.057 . S
Co532 O563 2.037 . S
Co532 N567 2.145 1_556 S
Co532 N588 2.257 . S
O533 Co531 2.143 . S
O533 Co532 2.160 . S
C534 O535 1.278 . S
C534 O542 1.224 . S
O535 C534 1.278 . S
C536 O537 1.245 . S
C536 O548 1.232 . S
O537 C536 1.245 . S
O538 Co532 2.058 . S
O538 C564 1.269 . S
O539 Co531 2.074 . S
O539 C564 1.257 . S
H540 C565 0.930 . S
H541 C571 0.930 . S
O542 Co531 2.093 . S
O542 C534 1.224 . S
H543 C575 0.929 . S
H544 C577 0.930 . S
H545 C578 0.930 . S
H546 C576 0.929 . S
H547 C579 0.928 . S
O548 Co532 2.057 . S
O548 C536 1.232 . S
H549 C568 0.929 . S
H550 C569 0.929 . S
H551 C581 0.931 . S
H552 C573 0.929 . S
H553 C582 0.930 . S
H554 C574 0.931 . S
O555 Co531 2.097 . S
O555 C583 1.214 . S
H556 C584 0.929 . S
H557 C585 0.929 . S
H558 C586 0.930 . S
H559 C587 0.929 . S
H560 C589 0.930 . S
H561 C566 0.930 . S
H562 C570 0.930 . S
O563 Co532 2.037 . S
O563 C583 1.234 . S
C564 O538 1.269 . S
C564 O539 1.257 . S
C565 H540 0.930 . S
C565 C568 1.388 . S
C565 C570 1.418 . S
C566 H561 0.930 . S
C566 C569 1.404 . S
C566 C570 1.353 . S
N567 Co532 2.145 1_554 S
N567 C568 1.397 . S
N567 C569 1.334 . S
C568 H549 0.929 . S
C568 C565 1.388 . S
C568 N567 1.397 . S
C569 H550 0.929 . S
C569 C566 1.404 . S
C569 N567 1.334 . S
C570 H562 0.930 . S
C570 C565 1.418 . S
C570 C566 1.353 . S
C571 H541 0.930 . S
C571 N572 1.330 . S
C571 C573 1.446 . S
N572 Co531 2.151 . S
N572 C571 1.330 . S
N572 C576 1.418 . S
C573 H552 0.929 . S
C573 C571 1.446 . S
C573 C574 1.332 . S
C574 H554 0.931 . S
C574 C573 1.332 . S
C574 C575 1.267 . S
C575 H543 0.929 . S
C575 C574 1.267 . S
C575 C576 1.251 . S
C576 H546 0.929 . S
C576 N572 1.418 . S
C576 C575 1.251 . S
C577 H544 0.930 . S
C577 C579 1.406 . S
C577 C582 1.261 . S
C578 H545 0.930 . S
C578 N580 1.325 . S
C578 C581 1.357 . S
C579 H547 0.928 . S
C579 C577 1.406 . S
C579 N580 1.261 . S
N580 Co531 2.214 . S
N580 C578 1.325 . S
N580 C579 1.261 . S
C581 H551 0.931 . S
C581 C578 1.357 . S
C581 C582 1.312 . S
C582 H553 0.930 . S
C582 C577 1.261 . S
C582 C581 1.312 . S
C583 O555 1.214 . S
C583 O563 1.234 . S
C584 H556 0.929 . S
C584 C587 1.391 . S
C584 C589 1.391 . S
C585 H557 0.929 . S
C585 C586 1.390 . S
C585 N588 1.391 . S
C586 H558 0.930 . S
C586 C585 1.390 . S
C586 C587 1.392 . S
C587 H559 0.929 . S
C587 C584 1.391 . S
C587 C586 1.392 . S
N588 Co532 2.257 . S
N588 C585 1.391 . S
N588 C589 1.388 . S
C589 H560 0.930 . S
C589 C584 1.391 . S
C589 N588 1.388 . S
Co590 O592 2.143 . S
Co590 O598 2.074 . S
Co590 O601 2.093 . S
Co590 O614 2.097 . S
Co590 N631 2.151 . S
Co590 N639 2.214 . S
Co591 O592 2.160 . S
Co591 O597 2.058 . S
Co591 O607 2.057 . S
Co591 O622 2.037 . S
Co591 N626 2.145 . S
Co591 N647 2.257 . S
O592 Co590 2.143 . S
O592 Co591 2.160 . S
C593 O594 1.278 . S
C593 O601 1.224 . S
O594 C593 1.278 . S
C595 O596 1.245 . S
C595 O607 1.232 . S
O596 C595 1.245 . S
O597 Co591 2.058 . S
O597 C623 1.269 . S
O598 Co590 2.074 . S
O598 C623 1.257 . S
H599 C624 0.930 . S
H600 C630 0.930 . S
O601 Co590 2.093 . S
O601 C593 1.224 . S
H602 C634 0.929 . S
H603 C636 0.930 . S
H604 C637 0.930 . S
H605 C635 0.929 . S
H606 C638 0.928 . S
O607 Co591 2.057 . S
O607 C595 1.232 . S
H608 C627 0.929 . S
H609 C628 0.929 . S
H610 C640 0.931 . S
H611 C632 0.929 . S
H612 C641 0.930 . S
H613 C633 0.931 . S
O614 Co590 2.097 . S
O614 C642 1.214 . S
H615 C643 0.929 . S
H616 C644 0.929 . S
H617 C645 0.930 . S
H618 C646 0.929 . S
H619 C648 0.930 . S
H620 C625 0.930 . S
H621 C629 0.930 . S
O622 Co591 2.037 . S
O622 C642 1.234 . S
C623 O597 1.269 . S
C623 O598 1.257 . S
C624 H599 0.930 . S
C624 C627 1.388 . S
C624 C629 1.418 . S
C625 H620 0.930 . S
C625 C628 1.404 . S
C625 C629 1.353 . S
N626 Co591 2.145 . S
N626 C627 1.397 . S
N626 C628 1.334 . S
C627 H608 0.929 . S
C627 C624 1.388 . S
C627 N626 1.397 . S
C628 H609 0.929 . S
C628 C625 1.404 . S
C628 N626 1.334 . S
C629 H621 0.930 . S
C629 C624 1.418 . S
C629 C625 1.353 . S
C630 H600 0.930 . S
C630 N631 1.330 . S
C630 C632 1.446 . S
N631 Co590 2.151 . S
N631 C630 1.330 . S
N631 C635 1.418 . S
C632 H611 0.929 . S
C632 C630 1.446 . S
C632 C633 1.332 . S
C633 H613 0.931 . S
C633 C632 1.332 . S
C633 C634 1.267 . S
C634 H602 0.929 . S
C634 C633 1.267 . S
C634 C635 1.251 . S
C635 H605 0.929 . S
C635 N631 1.418 . S
C635 C634 1.251 . S
C636 H603 0.930 . S
C636 C638 1.406 . S
C636 C641 1.261 . S
C637 H604 0.930 . S
C637 N639 1.325 . S
C637 C640 1.357 . S
C638 H606 0.928 . S
C638 C636 1.406 . S
C638 N639 1.261 . S
N639 Co590 2.214 . S
N639 C637 1.325 . S
N639 C638 1.261 . S
C640 H610 0.931 . S
C640 C637 1.357 . S
C640 C641 1.312 . S
C641 H612 0.930 . S
C641 C636 1.261 . S
C641 C640 1.312 . S
C642 O614 1.214 . S
C642 O622 1.234 . S
C643 H615 0.929 . S
C643 C646 1.391 . S
C643 C648 1.391 . S
C644 H616 0.929 . S
C644 C645 1.390 . S
C644 N647 1.391 . S
C645 H617 0.930 . S
C645 C644 1.390 . S
C645 C646 1.392 . S
C646 H618 0.929 . S
C646 C643 1.391 . S
C646 C645 1.392 . S
N647 Co591 2.257 . S
N647 C644 1.391 . S
N647 C648 1.388 . S
C648 H619 0.930 . S
C648 C643 1.391 . S
C648 N647 1.388 . S
Co649 O651 2.143 . S
Co649 O657 2.074 . S
Co649 O660 2.093 . S
Co649 O673 2.097 . S
Co649 N690 2.151 . S
Co649 N698 2.214 1_556 S
Co650 O651 2.160 . S
Co650 O656 2.058 . S
Co650 O666 2.057 . S
Co650 O681 2.037 . S
Co650 N685 2.145 . S
Co650 N706 2.257 . S
O651 Co649 2.143 . S
O651 Co650 2.160 . S
C652 O653 1.278 . S
C652 O660 1.224 . S
O653 C652 1.278 . S
C654 O655 1.245 . S
C654 O666 1.232 . S
O655 C654 1.245 . S
O656 Co650 2.058 . S
O656 C682 1.269 . S
O657 Co649 2.074 . S
O657 C682 1.257 . S
H658 C683 0.930 . S
H659 C689 0.930 . S
O660 Co649 2.093 . S
O660 C652 1.224 . S
H661 C693 0.932 . S
H662 C695 0.930 . S
H663 C696 0.930 . S
H664 C694 0.929 1_554 S
H665 C697 0.928 . S
O666 Co650 2.057 . S
O666 C654 1.232 . S
H667 C686 0.929 . S
H668 C687 0.929 . S
H669 C699 0.931 . S
H670 C691 0.929 . S
H671 C700 0.930 . S
H672 C692 0.931 . S
O673 Co649 2.097 . S
O673 C701 1.214 . S
H674 C702 0.929 . S
H675 C703 0.929 . S
H676 C704 0.930 . S
H677 C705 0.929 . S
H678 C707 0.930 . S
H679 C684 0.930 . S
H680 C688 0.930 . S
O681 Co650 2.037 . S
O681 C701 1.234 . S
C682 O656 1.269 . S
C682 O657 1.257 . S
C683 H658 0.930 . S
C683 C686 1.388 . S
C683 C688 1.418 . S
C684 H679 0.930 . S
C684 C687 1.404 . S
C684 C688 1.353 . S
N685 Co650 2.145 . S
N685 C686 1.397 . S
N685 C687 1.334 . S
C686 H667 0.929 . S
C686 C683 1.388 . S
C686 N685 1.397 . S
C687 H668 0.929 . S
C687 C684 1.404 . S
C687 N685 1.334 . S
C688 H680 0.930 . S
C688 C683 1.418 . S
C688 C684 1.353 . S
C689 H659 0.930 . S
C689 N690 1.330 . S
C689 C691 1.446 . S
N690 Co649 2.151 . S
N690 C689 1.330 . S
N690 C694 1.418 . S
C691 H670 0.929 . S
C691 C689 1.446 . S
C691 C692 1.332 . S
C692 H672 0.931 . S
C692 C691 1.332 . S
C692 C693 1.265 1_556 S
C693 H661 0.932 . S
C693 C692 1.265 1_554 S
C693 C694 1.250 1_554 S
C694 H664 0.929 1_556 S
C694 N690 1.418 . S
C694 C693 1.250 1_556 S
C695 H662 0.930 . S
C695 C697 1.406 . S
C695 C700 1.261 . S
C696 H663 0.930 . S
C696 N698 1.325 . S
C696 C699 1.357 . S
C697 H665 0.928 . S
C697 C695 1.406 . S
C697 N698 1.261 . S
N698 Co649 2.214 1_554 S
N698 C696 1.325 . S
N698 C697 1.261 . S
C699 H669 0.931 . S
C699 C696 1.357 . S
C699 C700 1.312 . S
C700 H671 0.930 . S
C700 C695 1.261 . S
C700 C699 1.312 . S
C701 O673 1.214 . S
C701 O681 1.234 . S
C702 H674 0.929 . S
C702 C705 1.391 . S
C702 C707 1.391 . S
C703 H675 0.929 . S
C703 C704 1.390 . S
C703 N706 1.391 . S
C704 H676 0.930 . S
C704 C703 1.390 . S
C704 C705 1.392 . S
C705 H677 0.929 . S
C705 C702 1.391 . S
C705 C704 1.392 . S
N706 Co650 2.257 . S
N706 C703 1.391 . S
N706 C707 1.388 . S
C707 H678 0.930 . S
C707 C702 1.391 . S
C707 N706 1.388 . S
H708 C714 0.930 . S
H709 C718 0.930 . S
H710 C723 0.929 . S
H711 C721 0.929 . S
H712 C716 0.929 . S
H713 C722 0.929 . S
C714 H708 0.930 . S
C714 C715 1.367 . S
C714 C722 1.378 . S
C715 C714 1.367 . S
C715 C723 1.433 . S
C716 H712 0.929 . S
C716 C718 1.378 . S
C716 C720 1.350 . S
C717 C720 1.463 . S
C717 C722 1.350 . S
C717 N725 1.427 . S
C718 H709 0.930 . S
C718 C716 1.378 . S
C718 C719 1.367 . S
C719 C718 1.367 . S
C719 C721 1.433 . S
C720 C716 1.350 . S
C720 C717 1.463 . S
C720 N724 1.427 . S
C721 H711 0.929 . S
C721 C719 1.433 . S
C721 N724 1.384 . S
C722 H713 0.929 . S
C722 C714 1.378 . S
C722 C717 1.350 . S
C723 H710 0.929 . S
C723 C715 1.433 . S
C723 N725 1.384 . S
N724 C720 1.427 . S
N724 C721 1.384 . S
N725 C717 1.427 . S
N725 C723 1.384 . S
H726 C732 0.930 . S
H727 C736 0.930 . S
H728 C741 0.929 . S
H729 C739 0.929 . S
H730 C734 0.929 . S
H731 C740 0.929 . S
C732 H726 0.930 . S
C732 C733 1.367 . S
C732 C740 1.378 . S
C733 C732 1.367 . S
C733 C741 1.433 . S
C734 H730 0.929 . S
C734 C736 1.378 . S
C734 C738 1.350 . S
C735 C738 1.463 . S
C735 C740 1.350 . S
C735 N743 1.427 . S
C736 H727 0.930 . S
C736 C734 1.378 . S
C736 C737 1.367 . S
C737 C736 1.367 . S
C737 C739 1.433 . S
C738 C734 1.350 . S
C738 C735 1.463 . S
C738 N742 1.427 . S
C739 H729 0.929 . S
C739 C737 1.433 . S
C739 N742 1.384 . S
C740 H731 0.929 . S
C740 C732 1.378 . S
C740 C735 1.350 . S
C741 H728 0.929 . S
C741 C733 1.433 . S
C741 N743 1.384 . S
N742 C738 1.427 . S
N742 C739 1.384 . S
N743 C735 1.427 . S
N743 C741 1.384 . S
H744 C750 0.930 . S
H745 C754 0.930 . S
H746 C759 0.929 . S
H747 C757 0.929 . S
H748 C752 0.929 . S
H749 C758 0.929 . S
C750 H744 0.930 . S
C750 C751 1.367 . S
C750 C758 1.378 . S
C751 C750 1.367 . S
C751 C759 1.433 . S
C752 H748 0.929 . S
C752 C754 1.378 . S
C752 C756 1.350 . S
C753 C756 1.463 . S
C753 C758 1.350 . S
C753 N761 1.427 . S
C754 H745 0.930 . S
C754 C752 1.378 . S
C754 C755 1.367 . S
C755 C754 1.367 . S
C755 C757 1.433 . S
C756 C752 1.350 . S
C756 C753 1.463 . S
C756 N760 1.427 . S
C757 H747 0.929 . S
C757 C755 1.433 . S
C757 N760 1.384 . S
C758 H749 0.929 . S
C758 C750 1.378 . S
C758 C753 1.350 . S
C759 H746 0.929 . S
C759 C751 1.433 . S
C759 N761 1.384 . S
N760 C756 1.427 . S
N760 C757 1.384 . S
N761 C753 1.427 . S
N761 C759 1.384 . S
H762 C768 0.930 . S
H763 C772 0.930 . S
H764 C777 0.929 . S
H765 C775 0.929 . S
H766 C770 0.929 . S
H767 C776 0.929 . S
C768 H762 0.930 . S
C768 C769 1.367 . S
C768 C776 1.378 . S
C769 C768 1.367 . S
C769 C777 1.433 . S
C770 H766 0.929 . S
C770 C772 1.378 . S
C770 C774 1.350 . S
C771 C774 1.463 . S
C771 C776 1.350 . S
C771 N779 1.427 . S
C772 H763 0.930 . S
C772 C770 1.378 . S
C772 C773 1.367 . S
C773 C772 1.367 . S
C773 C775 1.433 . S
C774 C770 1.350 . S
C774 C771 1.463 . S
C774 N778 1.427 . S
C775 H765 0.929 . S
C775 C773 1.433 . S
C775 N778 1.384 . S
C776 H767 0.929 . S
C776 C768 1.378 . S
C776 C771 1.350 . S
C777 H764 0.929 . S
C777 C769 1.433 . S
C777 N779 1.384 . S
N778 C774 1.427 . S
N778 C775 1.384 . S
N779 C771 1.427 . S
N779 C777 1.384 . S
H780 C786 0.930 . S
H781 C790 0.930 . S
H782 C795 0.929 . S
H783 C793 0.929 . S
H784 C788 0.929 . S
H785 C794 0.929 . S
C786 H780 0.930 . S
C786 C787 1.367 . S
C786 C794 1.378 . S
C787 C786 1.367 . S
C787 C795 1.433 . S
C788 H784 0.929 . S
C788 C790 1.378 . S
C788 C792 1.350 . S
C789 C792 1.463 . S
C789 C794 1.350 . S
C789 N797 1.427 . S
C790 H781 0.930 . S
C790 C788 1.378 . S
C790 C791 1.367 . S
C791 C790 1.367 . S
C791 C793 1.433 . S
C792 C788 1.350 . S
C792 C789 1.463 . S
C792 N796 1.427 . S
C793 H783 0.929 . S
C793 C791 1.433 . S
C793 N796 1.384 . S
C794 H785 0.929 . S
C794 C786 1.378 . S
C794 C789 1.350 . S
C795 H782 0.929 . S
C795 C787 1.433 . S
C795 N797 1.384 . S
N796 C792 1.427 . S
N796 C793 1.384 . S
N797 C789 1.427 . S
N797 C795 1.384 . S
H798 C804 0.930 . S
H799 C808 0.930 . S
H800 C813 0.929 . S
H801 C811 0.929 . S
H802 C806 0.929 . S
H803 C812 0.929 . S
C804 H798 0.930 . S
C804 C805 1.367 . S
C804 C812 1.378 . S
C805 C804 1.367 . S
C805 C813 1.433 . S
C806 H802 0.929 . S
C806 C808 1.378 . S
C806 C810 1.350 . S
C807 C810 1.463 . S
C807 C812 1.350 . S
C807 N815 1.427 . S
C808 H799 0.930 . S
C808 C806 1.378 . S
C808 C809 1.367 . S
C809 C808 1.367 . S
C809 C811 1.433 . S
C810 C806 1.350 . S
C810 C807 1.463 . S
C810 N814 1.427 . S
C811 H801 0.929 . S
C811 C809 1.433 . S
C811 N814 1.384 . S
C812 H803 0.929 . S
C812 C804 1.378 . S
C812 C807 1.350 . S
C813 H800 0.929 . S
C813 C805 1.433 . S
C813 N815 1.384 . S
N814 C810 1.427 . S
N814 C811 1.384 . S
N815 C807 1.427 . S
N815 C813 1.384 . S
H816 C822 0.930 . S
H817 C826 0.930 . S
H818 C831 0.922 1_556 S
H819 C829 0.929 . S
H820 C824 0.929 . S
H821 C830 0.929 . S
C822 H816 0.930 . S
C822 C823 1.367 . S
C822 C830 1.378 . S
C823 C822 1.367 . S
C823 C831 1.445 . S
C824 H820 0.929 . S
C824 C826 1.378 . S
C824 C828 1.350 . S
C825 C828 1.463 1_544 S
C825 C830 1.350 . S
C825 N833 1.427 1_554 S
C826 H817 0.930 . S
C826 C824 1.378 . S
C826 C827 1.367 . S
C827 C826 1.367 . S
C827 C829 1.433 1_556 S
C828 C824 1.350 . S
C828 C825 1.463 1_566 S
C828 N832 1.427 1_566 S
C829 H819 0.929 . S
C829 C827 1.433 1_554 S
C829 N832 1.384 1_565 S
C830 H821 0.929 . S
C830 C822 1.378 . S
C830 C825 1.350 . S
C831 H818 0.922 1_554 S
C831 C823 1.445 . S
C831 N833 1.379 1_554 S
N832 C828 1.427 1_544 S
N832 C829 1.384 1_545 S
N833 C825 1.427 1_556 S
N833 C831 1.379 1_556 S
H834 C840 0.930 . S
H835 C844 0.930 . S
H836 C849 0.929 . S
H837 C847 0.929 . S
H838 C842 0.929 . S
H839 C848 0.929 . S
C840 H834 0.930 . S
C840 C841 1.367 . S
C840 C848 1.378 . S
C841 C840 1.367 . S
C841 C849 1.433 . S
C842 H838 0.929 . S
C842 C844 1.378 . S
C842 C846 1.350 . S
C843 C846 1.463 . S
C843 C848 1.350 . S
C843 N851 1.427 . S
C844 H835 0.930 . S
C844 C842 1.378 . S
C844 C845 1.367 . S
C845 C844 1.367 . S
C845 C847 1.433 . S
C846 C842 1.350 . S
C846 C843 1.463 . S
C846 N850 1.427 . S
C847 H837 0.929 . S
C847 C845 1.433 . S
C847 N850 1.384 . S
C848 H839 0.929 . S
C848 C840 1.378 . S
C848 C843 1.350 . S
C849 H836 0.929 . S
C849 C841 1.433 . S
C849 N851 1.384 . S
N850 C846 1.427 . S
N850 C847 1.384 . S
N851 C843 1.427 . S
N851 C849 1.384 . S
H852 C858 0.930 . S
H853 C862 0.930 . S
H854 C867 0.929 . S
H855 C865 0.929 . S
H856 C860 0.929 . S
H857 C866 0.929 . S
C858 H852 0.930 . S
C858 C859 1.367 1_554 S
C858 C866 1.378 . S
C859 C858 1.367 1_556 S
C859 C867 1.433 . S
C860 H856 0.929 . S
C860 C862 1.378 . S
C860 C864 1.350 1_556 S
C861 C864 1.463 1_456 S
C861 C866 1.350 1_556 S
C861 N869 1.427 . S
C862 H853 0.930 . S
C862 C860 1.378 . S
C862 C863 1.367 1_556 S
C863 C862 1.367 1_554 S
C863 C865 1.433 . S
C864 C860 1.350 1_554 S
C864 C861 1.463 1_654 S
C864 N868 1.427 . S
C865 H855 0.929 . S
C865 C863 1.433 . S
C865 N868 1.384 . S
C866 H857 0.929 . S
C866 C858 1.378 . S
C866 C861 1.350 1_554 S
C867 H854 0.929 . S
C867 C859 1.433 . S
C867 N869 1.384 . S
N868 C864 1.427 . S
N868 C865 1.384 . S
N869 C861 1.427 . S
N869 C867 1.384 . S
H870 C876 0.930 . S
H871 C880 0.930 . S
H872 C885 0.929 . S
H873 C883 0.929 . S
H874 C878 0.929 . S
H875 C884 0.929 1_565 S
C876 H870 0.930 . S
C876 C877 1.367 . S
C876 C884 1.378 . S
C877 C876 1.367 . S
C877 C885 1.433 . S
C878 H874 0.929 . S
C878 C880 1.378 . S
C878 C882 1.350 . S
C879 C882 1.463 1_545 S
C879 C884 1.350 . S
C879 N887 1.427 . S
C880 H871 0.930 . S
C880 C878 1.378 . S
C880 C881 1.367 . S
C881 C880 1.367 . S
C881 C883 1.433 . S
C882 C878 1.350 . S
C882 C879 1.463 1_565 S
C882 N886 1.427 . S
C883 H873 0.929 . S
C883 C881 1.433 . S
C883 N886 1.384 . S
C884 H875 0.929 1_545 S
C884 C876 1.378 . S
C884 C879 1.350 . S
C885 H872 0.929 . S
C885 C877 1.433 . S
C885 N887 1.384 . S
N886 C882 1.427 . S
N886 C883 1.384 . S
N887 C879 1.427 . S
N887 C885 1.384 . S
H888 C894 0.930 . S
H889 C898 0.930 . S
H890 C903 0.929 . S
H891 C901 0.929 . S
H892 C896 0.929 . S
H893 C902 0.929 . S
C894 H888 0.930 . S
C894 C895 1.367 1_554 S
C894 C902 1.378 . S
C895 C894 1.367 1_556 S
C895 C903 1.433 . S
C896 H892 0.929 . S
C896 C898 1.378 . S
C896 C900 1.339 1_556 S
C897 C900 1.460 1_556 S
C897 C902 1.350 1_556 S
C897 N905 1.427 . S
C898 H889 0.930 . S
C898 C896 1.378 . S
C898 C899 1.367 1_556 S
C899 C898 1.367 1_554 S
C899 C901 1.433 . S
C900 C896 1.339 1_554 S
C900 C897 1.460 1_554 S
C900 N904 1.442 . S
C901 H891 0.929 . S
C901 C899 1.433 . S
C901 N904 1.384 . S
C902 H893 0.929 . S
C902 C894 1.378 . S
C902 C897 1.350 1_554 S
C903 H890 0.929 . S
C903 C895 1.433 . S
C903 N905 1.384 . S
N904 C900 1.442 . S
N904 C901 1.384 . S
N905 C897 1.427 . S
N905 C903 1.384 . S
H906 C912 0.930 . S
H907 C916 0.930 . S
H908 C921 0.929 . S
H909 C919 0.929 . S
H910 C914 0.929 . S
H911 C920 0.929 . S
C912 H906 0.930 . S
C912 C913 1.367 . S
C912 C920 1.378 . S
C913 C912 1.367 . S
C913 C921 1.433 . S
C914 H910 0.929 . S
C914 C916 1.378 . S
C914 C918 1.350 . S
C915 C918 1.463 1_655 S
C915 C920 1.350 . S
C915 N923 1.427 . S
C916 H907 0.930 . S
C916 C914 1.378 . S
C916 C917 1.367 . S
C917 C916 1.367 . S
C917 C919 1.433 . S
C918 C914 1.350 . S
C918 C915 1.463 1_455 S
C918 N922 1.427 . S
C919 H909 0.929 . S
C919 C917 1.433 . S
C919 N922 1.384 . S
C920 H911 0.929 . S
C920 C912 1.378 . S
C920 C915 1.350 . S
C921 H908 0.929 . S
C921 C913 1.433 . S
C921 N923 1.384 . S
N922 C918 1.427 . S
N922 C919 1.384 . S
N923 C915 1.427 . S
N923 C921 1.384 . S
H924 C930 0.930 . S
H925 C934 0.930 . S
H926 C939 0.929 . S
H927 C937 0.929 . S
H928 C932 0.929 . S
H929 C938 0.929 . S
C930 H924 0.930 . S
C930 C931 1.367 . S
C930 C938 1.378 . S
C931 C930 1.367 . S
C931 C939 1.433 . S
C932 H928 0.929 . S
C932 C934 1.378 . S
C932 C936 1.350 . S
C933 C936 1.463 . S
C933 C938 1.350 . S
C933 N941 1.427 . S
C934 H925 0.930 . S
C934 C932 1.378 . S
C934 C935 1.367 . S
C935 C934 1.367 . S
C935 C937 1.433 . S
C936 C932 1.350 . S
C936 C933 1.463 . S
C936 N940 1.427 . S
C937 H927 0.929 . S
C937 C935 1.433 . S
C937 N940 1.384 . S
C938 H929 0.929 . S
C938 C930 1.378 . S
C938 C933 1.350 . S
C939 H926 0.929 . S
C939 C931 1.433 . S
C939 N941 1.384 . S
N940 C936 1.427 . S
N940 C937 1.384 . S
N941 C933 1.427 . S
N941 C939 1.384 . S
H942 C948 0.930 . S
H943 C952 0.930 . S
H944 C957 0.929 . S
H945 C955 0.929 . S
H946 C950 0.929 . S
H947 C956 0.929 . S
C948 H942 0.930 . S
C948 C949 1.367 . S
C948 C956 1.378 . S
C949 C948 1.367 . S
C949 C957 1.433 . S
C950 H946 0.929 . S
C950 C952 1.378 . S
C950 C954 1.350 . S
C951 C954 1.463 . S
C951 C956 1.350 . S
C951 N959 1.427 . S
C952 H943 0.930 . S
C952 C950 1.378 . S
C952 C953 1.367 . S
C953 C952 1.367 . S
C953 C955 1.433 . S
C954 C950 1.350 . S
C954 C951 1.463 . S
C954 N958 1.427 . S
C955 H945 0.929 . S
C955 C953 1.433 . S
C955 N958 1.384 . S
C956 H947 0.929 . S
C956 C948 1.378 . S
C956 C951 1.350 . S
C957 H944 0.929 . S
C957 C949 1.433 . S
C957 N959 1.384 . S
N958 C954 1.427 . S
N958 C955 1.384 . S
N959 C951 1.427 . S
N959 C957 1.384 . S
H960 C966 0.930 1_556 S
H961 C970 0.930 . S
H962 C975 0.929 . S
H963 C973 0.929 . S
H964 C968 0.929 . S
H965 C974 0.929 . S
C966 H960 0.930 1_554 S
C966 C967 1.367 . S
C966 C974 1.378 . S
C967 C966 1.367 . S
C967 C975 1.433 . S
C968 H964 0.929 . S
C968 C970 1.378 . S
C968 C972 1.350 . S
C969 C972 1.463 . S
C969 C974 1.350 . S
C969 N977 1.427 . S
C970 H961 0.930 . S
C970 C968 1.378 . S
C970 C971 1.367 . S
C971 C970 1.367 . S
C971 C973 1.433 . S
C972 C968 1.350 . S
C972 C969 1.463 . S
C972 N976 1.427 . S
C973 H963 0.929 . S
C973 C971 1.433 . S
C973 N976 1.384 . S
C974 H965 0.929 . S
C974 C966 1.378 . S
C974 C969 1.350 . S
C975 H962 0.929 . S
C975 C967 1.433 . S
C975 N977 1.384 . S
N976 C972 1.427 . S
N976 C973 1.384 . S
N977 C969 1.427 . S
N977 C975 1.384 . S
H978 C984 0.930 . S
H979 C988 0.930 . S
H980 C993 0.929 . S
H981 C991 0.929 . S
H982 C986 0.929 . S
H983 C992 0.929 . S
C984 H978 0.930 . S
C984 C985 1.367 . S
C984 C992 1.378 . S
C985 C984 1.367 . S
C985 C993 1.433 . S
C986 H982 0.929 . S
C986 C988 1.378 . S
C986 C990 1.350 . S
C987 C990 1.463 . S
C987 C992 1.350 . S
C987 N995 1.427 . S
C988 H979 0.930 . S
C988 C986 1.378 . S
C988 C989 1.367 . S
C989 C988 1.367 . S
C989 C991 1.433 . S
C990 C986 1.350 . S
C990 C987 1.463 . S
C990 N994 1.427 . S
C991 H981 0.929 . S
C991 C989 1.433 . S
C991 N994 1.384 . S
C992 H983 0.929 . S
C992 C984 1.378 . S
C992 C987 1.350 . S
C993 H980 0.929 . S
C993 C985 1.433 . S
C993 N995 1.384 . S
N994 C990 1.427 . S
N994 C991 1.384 . S
N995 C987 1.427 . S
N995 C993 1.384 . S
H996 C1002 0.930 . S
H997 C1006 0.930 . S
H998 C1011 0.929 . S
H999 C1009 0.929 . S
H1000 C1004 0.929 1_556 S
H1001 C1010 0.929 . S
C1002 H996 0.930 . S
C1002 C1003 1.367 . S
C1002 C1010 1.378 . S
C1003 C1002 1.367 . S
C1003 C1011 1.433 1_554 S
C1004 H1000 0.929 1_554 S
C1004 C1006 1.378 . S
C1004 C1008 1.350 . S
C1005 C1008 1.463 . S
C1005 C1010 1.350 . S
C1005 N1013 1.427 . S
C1006 H997 0.930 . S
C1006 C1004 1.378 . S
C1006 C1007 1.367 . S
C1007 C1006 1.367 . S
C1007 C1009 1.433 . S
C1008 C1004 1.350 . S
C1008 C1005 1.463 . S
C1008 N1012 1.427 . S
C1009 H999 0.929 . S
C1009 C1007 1.433 . S
C1009 N1012 1.384 . S
C1010 H1001 0.929 . S
C1010 C1002 1.378 . S
C1010 C1005 1.350 . S
C1011 H998 0.929 . S
C1011 C1003 1.433 1_556 S
C1011 N1013 1.384 1_556 S
N1012 C1008 1.427 . S
N1012 C1009 1.384 . S
N1013 C1005 1.427 . S
N1013 C1011 1.384 1_554 S
H1014 C1020 0.930 . S
H1015 C1024 0.930 . S
H1016 C1029 0.929 . S
H1017 C1027 0.929 . S
H1018 C1022 0.929 . S
H1019 C1028 0.929 . S
C1020 H1014 0.930 . S
C1020 C1021 1.367 . S
C1020 C1028 1.378 . S
C1021 C1020 1.367 . S
C1021 C1029 1.433 . S
C1022 H1018 0.929 . S
C1022 C1024 1.378 . S
C1022 C1026 1.350 . S
C1023 C1026 1.463 . S
C1023 C1028 1.350 . S
C1023 N1031 1.427 . S
C1024 H1015 0.930 . S
C1024 C1022 1.378 . S
C1024 C1025 1.367 . S
C1025 C1024 1.367 . S
C1025 C1027 1.433 . S
C1026 C1022 1.350 . S
C1026 C1023 1.463 . S
C1026 N1030 1.427 . S
C1027 H1017 0.929 . S
C1027 C1025 1.433 . S
C1027 N1030 1.384 . S
C1028 H1019 0.929 . S
C1028 C1020 1.378 . S
C1028 C1023 1.350 . S
C1029 H1016 0.929 . S
C1029 C1021 1.433 . S
C1029 N1031 1.384 . S
N1030 C1026 1.427 . S
N1030 C1027 1.384 . S
N1031 C1023 1.427 . S
N1031 C1029 1.384 . S
H1032 C1038 0.930 . S
H1033 C1042 0.930 . S
H1034 C1047 0.929 . S
H1035 C1045 0.929 . S
H1036 C1040 0.929 . S
H1037 C1046 0.929 . S
C1038 H1032 0.930 . S
C1038 C1039 1.367 . S
C1038 C1046 1.378 . S
C1039 C1038 1.367 . S
C1039 C1047 1.433 . S
C1040 H1036 0.929 . S
C1040 C1042 1.378 . S
C1040 C1044 1.350 . S
C1041 C1044 1.463 . S
C1041 C1046 1.350 . S
C1041 N1049 1.427 . S
C1042 H1033 0.930 . S
C1042 C1040 1.378 . S
C1042 C1043 1.367 . S
C1043 C1042 1.367 . S
C1043 C1045 1.433 . S
C1044 C1040 1.350 . S
C1044 C1041 1.463 . S
C1044 N1048 1.427 . S
C1045 H1035 0.929 . S
C1045 C1043 1.433 . S
C1045 N1048 1.384 . S
C1046 H1037 0.929 . S
C1046 C1038 1.378 . S
C1046 C1041 1.350 . S
C1047 H1034 0.929 . S
C1047 C1039 1.433 . S
C1047 N1049 1.384 . S
N1048 C1044 1.427 . S
N1048 C1045 1.384 . S
N1049 C1041 1.427 . S
N1049 C1047 1.384 . S
H1050 C1056 0.930 . S
H1051 C1060 0.930 . S
H1052 C1065 0.929 . S
H1053 C1063 0.929 . S
H1054 C1058 0.929 . S
H1055 C1064 0.929 1_554 S
C1056 H1050 0.930 . S
C1056 C1057 1.367 1_554 S
C1056 C1064 1.378 1_554 S
C1057 C1056 1.367 1_556 S
C1057 C1065 1.433 . S
C1058 H1054 0.929 . S
C1058 C1060 1.378 . S
C1058 C1062 1.350 . S
C1059 C1062 1.463 . S
C1059 C1064 1.350 . S
C1059 N1067 1.427 . S
C1060 H1051 0.930 . S
C1060 C1058 1.378 . S
C1060 C1061 1.367 . S
C1061 C1060 1.367 . S
C1061 C1063 1.433 . S
C1062 C1058 1.350 . S
C1062 C1059 1.463 . S
C1062 N1066 1.427 . S
C1063 H1053 0.929 . S
C1063 C1061 1.433 . S
C1063 N1066 1.384 . S
C1064 H1055 0.929 1_556 S
C1064 C1056 1.378 1_556 S
C1064 C1059 1.350 . S
C1065 H1052 0.929 . S
C1065 C1057 1.433 . S
C1065 N1067 1.384 . S
N1066 C1062 1.427 . S
N1066 C1063 1.384 . S
N1067 C1059 1.427 . S
N1067 C1065 1.384 . S
H1068 C1074 0.930 . S
H1069 C1078 0.930 . S
H1070 C1083 0.929 . S
H1071 C1081 0.929 . S
H1072 C1076 0.929 . S
H1073 C1082 0.929 . S
C1074 H1068 0.930 . S
C1074 C1075 1.367 . S
C1074 C1082 1.378 . S
C1075 C1074 1.367 . S
C1075 C1083 1.433 . S
C1076 H1072 0.929 . S
C1076 C1078 1.378 . S
C1076 C1080 1.350 . S
C1077 C1080 1.463 . S
C1077 C1082 1.350 . S
C1077 N1085 1.427 . S
C1078 H1069 0.930 . S
C1078 C1076 1.378 . S
C1078 C1079 1.367 . S
C1079 C1078 1.367 . S
C1079 C1081 1.433 . S
C1080 C1076 1.350 . S
C1080 C1077 1.463 . S
C1080 N1084 1.427 . S
C1081 H1071 0.929 . S
C1081 C1079 1.433 . S
C1081 N1084 1.384 . S
C1082 H1073 0.929 . S
C1082 C1074 1.378 . S
C1082 C1077 1.350 . S
C1083 H1070 0.929 . S
C1083 C1075 1.433 . S
C1083 N1085 1.384 . S
N1084 C1080 1.427 . S
N1084 C1081 1.384 . S
N1085 C1077 1.427 . S
N1085 C1083 1.384 . S
H1086 C1092 0.930 . S
H1087 C1096 0.930 . S
H1088 C1101 0.929 1_554 S
H1089 C1099 0.929 . S
H1090 C1094 0.929 . S
H1091 C1100 0.929 . S
C1092 H1086 0.930 . S
C1092 C1093 1.367 . S
C1092 C1100 1.378 . S
C1093 C1092 1.367 . S
C1093 C1101 1.433 . S
C1094 H1090 0.929 . S
C1094 C1096 1.378 . S
C1094 C1098 1.350 . S
C1095 C1098 1.463 . S
C1095 C1100 1.350 . S
C1095 N1103 1.427 . S
C1096 H1087 0.930 . S
C1096 C1094 1.378 . S
C1096 C1097 1.367 . S
C1097 C1096 1.367 . S
C1097 C1099 1.433 . S
C1098 C1094 1.350 . S
C1098 C1095 1.463 . S
C1098 N1102 1.427 . S
C1099 H1089 0.929 . S
C1099 C1097 1.433 . S
C1099 N1102 1.384 . S
C1100 H1091 0.929 . S
C1100 C1092 1.378 . S
C1100 C1095 1.350 . S
C1101 H1088 0.929 1_556 S
C1101 C1093 1.433 . S
C1101 N1103 1.384 . S
N1102 C1098 1.427 . S
N1102 C1099 1.384 . S
N1103 C1095 1.427 . S
N1103 C1101 1.384 . S
H1104 C1110 0.930 . S
H1105 C1114 0.930 . S
H1106 C1119 0.929 . S
H1107 C1117 0.929 . S
H1108 C1112 0.929 . S
H1109 C1118 0.929 . S
C1110 H1104 0.930 . S
C1110 C1111 1.367 . S
C1110 C1118 1.378 . S
C1111 C1110 1.367 . S
C1111 C1119 1.433 . S
C1112 H1108 0.929 . S
C1112 C1114 1.378 . S
C1112 C1116 1.350 . S
C1113 C1116 1.463 . S
C1113 C1118 1.350 . S
C1113 N1121 1.427 . S
C1114 H1105 0.930 . S
C1114 C1112 1.378 . S
C1114 C1115 1.367 . S
C1115 C1114 1.367 . S
C1115 C1117 1.433 . S
C1116 C1112 1.350 . S
C1116 C1113 1.463 . S
C1116 N1120 1.427 . S
C1117 H1107 0.929 . S
C1117 C1115 1.433 . S
C1117 N1120 1.384 . S
C1118 H1109 0.929 . S
C1118 C1110 1.378 . S
C1118 C1113 1.350 . S
C1119 H1106 0.929 . S
C1119 C1111 1.433 . S
C1119 N1121 1.384 . S
N1120 C1116 1.427 . S
N1120 C1117 1.384 . S
N1121 C1113 1.427 . S
N1121 C1119 1.384 . S
H1122 C1128 0.930 . S
H1123 C1132 0.930 . S
H1124 C1137 0.929 . S
H1125 C1135 0.929 . S
H1126 C1130 0.929 . S
H1127 C1136 0.929 . S
C1128 H1122 0.930 . S
C1128 C1129 1.367 . S
C1128 C1136 1.378 . S
C1129 C1128 1.367 . S
C1129 C1137 1.433 . S
C1130 H1126 0.929 . S
C1130 C1132 1.378 . S
C1130 C1134 1.350 . S
C1131 C1134 1.463 . S
C1131 C1136 1.350 . S
C1131 N1139 1.427 . S
C1132 H1123 0.930 . S
C1132 C1130 1.378 . S
C1132 C1133 1.367 . S
C1133 C1132 1.367 . S
C1133 C1135 1.433 . S
C1134 C1130 1.350 . S
C1134 C1131 1.463 . S
C1134 N1138 1.427 . S
C1135 H1125 0.929 . S
C1135 C1133 1.433 . S
C1135 N1138 1.384 . S
C1136 H1127 0.929 . S
C1136 C1128 1.378 . S
C1136 C1131 1.350 . S
C1137 H1124 0.929 . S
C1137 C1129 1.433 . S
C1137 N1139 1.384 . S
N1138 C1134 1.427 . S
N1138 C1135 1.384 . S
N1139 C1131 1.427 . S
N1139 C1137 1.384 . S
C715 C593 1.687 . S
C719 C3 1.663 . S
C733 C62 1.685 . S
C737 C654 1.673 . S
C751 C123 1.705 . S
C755 C357 1.687 . S
C769 C416 1.687 . S
C773 C180 1.660 . S
C787 C477 1.676 . S
C791 C239 1.677 . S
C805 C300 1.705 . S
C809 C534 1.695 . S
C823 C5 1.273 . S
C827 C418 1.231 . S
C841 C64 1.254 . S
C845 C475 1.285 . S
C859 C536 1.041 . S
C863 C121 1.042 . S
C877 C595 1.240 . S
C881 C182 1.279 . S
C895 C652 1.284 . S
C899 C241 1.253 . S
C913 C359 1.042 . S
C917 C298 1.043 . S
C931 C33 1.397 . S
C935 C288 1.467 . S
C949 C92 1.183 . S
C953 C328 1.362 . S
C967 C170 0.951 . S
C971 C52 0.973 . S
C985 C210 1.380 . S
C989 C111 1.461 . S
C1003 C269 1.172 . S
C1007 C151 1.359 . S
C1021 C347 0.923 . S
C1025 C229 0.977 . S
C1039 C387 0.929 . S
C1043 C505 0.982 . S
C1057 C446 1.201 . S
C1061 C583 1.362 . S
C1075 C642 1.463 . S
C1079 C524 1.396 . S
C1093 C564 0.934 . S
C1097 C682 0.967 . S
C1111 C623 1.201 . S
C1115 C406 1.362 . S
C1129 C701 1.396 . S
C1133 C465 1.463 . S
