# Generated by pormake.
# Topology vbi, (5)-cn, num edge types: 1
# Building blocks:
#     Node 0, Type 0, BuildingBlock: BEQFEK_clean_sbu_0, # of connection points: 5
#     Node 1, Type 0, BuildingBlock: BEQFEK_clean_sbu_0, # of connection points: 5
#     Node 2, Type 0, BuildingBlock: BEQFEK_clean_sbu_0, # of connection points: 5
#     Node 3, Type 0, BuildingBlock: BEQFEK_clean_sbu_0, # of connection points: 5
#     Node 4, Type 0, BuildingBlock: BEQFEK_clean_sbu_0, # of connection points: 5
#     Node 5, Type 0, BuildingBlock: BEQFEK_clean_sbu_0, # of connection points: 5
#     Node 6, Type 0, BuildingBlock: BEQFEK_clean_sbu_0, # of connection points: 5
#     Node 7, Type 0, BuildingBlock: BEQFEK_clean_sbu_0, # of connection points: 5
#     Node 8, Type 0, BuildingBlock: BEQFEK_clean_sbu_0, # of connection points: 5
#     Node 9, Type 0, BuildingBlock: BEQFEK_clean_sbu_0, # of connection points: 5
#     Node 10, Type 0, BuildingBlock: BEQFEK_clean_sbu_0, # of connection points: 5
#     Node 11, Type 0, BuildingBlock: BEQFEK_clean_sbu_0, # of connection points: 5
#     Node 12, Type 0, BuildingBlock: BEQFEK_clean_sbu_0, # of connection points: 5
#     Node 13, Type 0, BuildingBlock: BEQFEK_clean_sbu_0, # of connection points: 5
#     Node 14, Type 0, BuildingBlock: BEQFEK_clean_sbu_0, # of connection points: 5
#     Node 15, Type 0, BuildingBlock: BEQFEK_clean_sbu_0, # of connection points: 5
#     Node 16, Type 0, BuildingBlock: BEQFEK_clean_sbu_0, # of connection points: 5
#     Node 17, Type 0, BuildingBlock: BEQFEK_clean_sbu_0, # of connection points: 5
#     Node 18, Type 0, BuildingBlock: BEQFEK_clean_sbu_0, # of connection points: 5
#     Node 19, Type 0, BuildingBlock: BEQFEK_clean_sbu_0, # of connection points: 5
#     Node 20, Type 0, BuildingBlock: BEQFEK_clean_sbu_0, # of connection points: 5
#     Node 21, Type 0, BuildingBlock: BEQFEK_clean_sbu_0, # of connection points: 5
#     Node 22, Type 0, BuildingBlock: BEQFEK_clean_sbu_0, # of connection points: 5
#     Node 23, Type 0, BuildingBlock: BEQFEK_clean_sbu_0, # of connection points: 5
#     Node 24, Type 0, BuildingBlock: BEQFEK_clean_sbu_0, # of connection points: 5
#     Node 25, Type 0, BuildingBlock: BEQFEK_clean_sbu_0, # of connection points: 5
#     Node 26, Type 0, BuildingBlock: BEQFEK_clean_sbu_0, # of connection points: 5
#     Node 27, Type 0, BuildingBlock: BEQFEK_clean_sbu_0, # of connection points: 5
#     Node 28, Type 0, BuildingBlock: BEQFEK_clean_sbu_0, # of connection points: 5
#     Node 29, Type 0, BuildingBlock: BEQFEK_clean_sbu_0, # of connection points: 5
#     Node 30, Type 0, BuildingBlock: BEQFEK_clean_sbu_0, # of connection points: 5
#     Node 31, Type 0, BuildingBlock: BEQFEK_clean_sbu_0, # of connection points: 5
#     Edge 32, Type (0, 0), BuildingBlock: CIFDUS_clean_linker_0, # of connection points: 2
#     Edge 33, Type (0, 0), BuildingBlock: CIFDUS_clean_linker_0, # of connection points: 2
#     Edge 34, Type (0, 0), BuildingBlock: CIFDUS_clean_linker_0, # of connection points: 2
#     Edge 35, Type (0, 0), BuildingBlock: CIFDUS_clean_linker_0, # of connection points: 2
#     Edge 36, Type (0, 0), BuildingBlock: CIFDUS_clean_linker_0, # of connection points: 2
#     Edge 37, Type (0, 0), BuildingBlock: CIFDUS_clean_linker_0, # of connection points: 2
#     Edge 38, Type (0, 0), BuildingBlock: CIFDUS_clean_linker_0, # of connection points: 2
#     Edge 39, Type (0, 0), BuildingBlock: CIFDUS_clean_linker_0, # of connection points: 2
#     Edge 40, Type (0, 0), BuildingBlock: CIFDUS_clean_linker_0, # of connection points: 2
#     Edge 41, Type (0, 0), BuildingBlock: CIFDUS_clean_linker_0, # of connection points: 2
#     Edge 42, Type (0, 0), BuildingBlock: CIFDUS_clean_linker_0, # of connection points: 2
#     Edge 43, Type (0, 0), BuildingBlock: CIFDUS_clean_linker_0, # of connection points: 2
#     Edge 44, Type (0, 0), BuildingBlock: CIFDUS_clean_linker_0, # of connection points: 2
#     Edge 45, Type (0, 0), BuildingBlock: CIFDUS_clean_linker_0, # of connection points: 2
#     Edge 46, Type (0, 0), BuildingBlock: CIFDUS_clean_linker_0, # of connection points: 2
#     Edge 47, Type (0, 0), BuildingBlock: CIFDUS_clean_linker_0, # of connection points: 2
#     Edge 48, Type (0, 0), BuildingBlock: CIFDUS_clean_linker_0, # of connection points: 2
#     Edge 49, Type (0, 0), BuildingBlock: CIFDUS_clean_linker_0, # of connection points: 2
#     Edge 50, Type (0, 0), BuildingBlock: CIFDUS_clean_linker_0, # of connection points: 2
#     Edge 51, Type (0, 0), BuildingBlock: CIFDUS_clean_linker_0, # of connection points: 2
#     Edge 52, Type (0, 0), BuildingBlock: CIFDUS_clean_linker_0, # of connection points: 2
#     Edge 53, Type (0, 0), BuildingBlock: CIFDUS_clean_linker_0, # of connection points: 2
#     Edge 54, Type (0, 0), BuildingBlock: CIFDUS_clean_linker_0, # of connection points: 2
#     Edge 55, Type (0, 0), BuildingBlock: CIFDUS_clean_linker_0, # of connection points: 2
#     Edge 56, Type (0, 0), BuildingBlock: CIFDUS_clean_linker_0, # of connection points: 2
#     Edge 57, Type (0, 0), BuildingBlock: CIFDUS_clean_linker_0, # of connection points: 2
#     Edge 58, Type (0, 0), BuildingBlock: CIFDUS_clean_linker_0, # of connection points: 2
#     Edge 59, Type (0, 0), BuildingBlock: CIFDUS_clean_linker_0, # of connection points: 2
#     Edge 60, Type (0, 0), BuildingBlock: CIFDUS_clean_linker_0, # of connection points: 2
#     Edge 61, Type (0, 0), BuildingBlock: CIFDUS_clean_linker_0, # of connection points: 2
#     Edge 62, Type (0, 0), BuildingBlock: CIFDUS_clean_linker_0, # of connection points: 2
#     Edge 63, Type (0, 0), BuildingBlock: CIFDUS_clean_linker_0, # of connection points: 2
#     Edge 64, Type (0, 0), BuildingBlock: CIFDUS_clean_linker_0, # of connection points: 2
#     Edge 65, Type (0, 0), BuildingBlock: CIFDUS_clean_linker_0, # of connection points: 2
#     Edge 66, Type (0, 0), BuildingBlock: CIFDUS_clean_linker_0, # of connection points: 2
#     Edge 67, Type (0, 0), BuildingBlock: CIFDUS_clean_linker_0, # of connection points: 2
#     Edge 68, Type (0, 0), BuildingBlock: CIFDUS_clean_linker_0, # of connection points: 2
#     Edge 69, Type (0, 0), BuildingBlock: CIFDUS_clean_linker_0, # of connection points: 2
#     Edge 70, Type (0, 0), BuildingBlock: CIFDUS_clean_linker_0, # of connection points: 2
#     Edge 71, Type (0, 0), BuildingBlock: CIFDUS_clean_linker_0, # of connection points: 2
#     Edge 72, Type (0, 0), BuildingBlock: CIFDUS_clean_linker_0, # of connection points: 2
#     Edge 73, Type (0, 0), BuildingBlock: CIFDUS_clean_linker_0, # of connection points: 2
#     Edge 74, Type (0, 0), BuildingBlock: CIFDUS_clean_linker_0, # of connection points: 2
#     Edge 75, Type (0, 0), BuildingBlock: CIFDUS_clean_linker_0, # of connection points: 2
#     Edge 76, Type (0, 0), BuildingBlock: CIFDUS_clean_linker_0, # of connection points: 2
#     Edge 77, Type (0, 0), BuildingBlock: CIFDUS_clean_linker_0, # of connection points: 2
#     Edge 78, Type (0, 0), BuildingBlock: CIFDUS_clean_linker_0, # of connection points: 2
#     Edge 79, Type (0, 0), BuildingBlock: CIFDUS_clean_linker_0, # of connection points: 2
#     Edge 80, Type (0, 0), BuildingBlock: CIFDUS_clean_linker_0, # of connection points: 2
#     Edge 81, Type (0, 0), BuildingBlock: CIFDUS_clean_linker_0, # of connection points: 2
#     Edge 82, Type (0, 0), BuildingBlock: CIFDUS_clean_linker_0, # of connection points: 2
#     Edge 83, Type (0, 0), BuildingBlock: CIFDUS_clean_linker_0, # of connection points: 2
#     Edge 84, Type (0, 0), BuildingBlock: CIFDUS_clean_linker_0, # of connection points: 2
#     Edge 85, Type (0, 0), BuildingBlock: CIFDUS_clean_linker_0, # of connection points: 2
#     Edge 86, Type (0, 0), BuildingBlock: CIFDUS_clean_linker_0, # of connection points: 2
#     Edge 87, Type (0, 0), BuildingBlock: CIFDUS_clean_linker_0, # of connection points: 2
#     Edge 88, Type (0, 0), BuildingBlock: CIFDUS_clean_linker_0, # of connection points: 2
#     Edge 89, Type (0, 0), BuildingBlock: CIFDUS_clean_linker_0, # of connection points: 2
#     Edge 90, Type (0, 0), BuildingBlock: CIFDUS_clean_linker_0, # of connection points: 2
#     Edge 91, Type (0, 0), BuildingBlock: CIFDUS_clean_linker_0, # of connection points: 2
#     Edge 92, Type (0, 0), BuildingBlock: CIFDUS_clean_linker_0, # of connection points: 2
#     Edge 93, Type (0, 0), BuildingBlock: CIFDUS_clean_linker_0, # of connection points: 2
#     Edge 94, Type (0, 0), BuildingBlock: CIFDUS_clean_linker_0, # of connection points: 2
#     Edge 95, Type (0, 0), BuildingBlock: CIFDUS_clean_linker_0, # of connection points: 2
#     Edge 96, Type (0, 0), BuildingBlock: CIFDUS_clean_linker_0, # of connection points: 2
#     Edge 97, Type (0, 0), BuildingBlock: CIFDUS_clean_linker_0, # of connection points: 2
#     Edge 98, Type (0, 0), BuildingBlock: CIFDUS_clean_linker_0, # of connection points: 2
#     Edge 99, Type (0, 0), BuildingBlock: CIFDUS_clean_linker_0, # of connection points: 2
#     Edge 100, Type (0, 0), BuildingBlock: CIFDUS_clean_linker_0, # of connection points: 2
#     Edge 101, Type (0, 0), BuildingBlock: CIFDUS_clean_linker_0, # of connection points: 2
#     Edge 102, Type (0, 0), BuildingBlock: CIFDUS_clean_linker_0, # of connection points: 2
#     Edge 103, Type (0, 0), BuildingBlock: CIFDUS_clean_linker_0, # of connection points: 2
#     Edge 104, Type (0, 0), BuildingBlock: CIFDUS_clean_linker_0, # of connection points: 2
#     Edge 105, Type (0, 0), BuildingBlock: CIFDUS_clean_linker_0, # of connection points: 2
#     Edge 106, Type (0, 0), BuildingBlock: CIFDUS_clean_linker_0, # of connection points: 2
#     Edge 107, Type (0, 0), BuildingBlock: CIFDUS_clean_linker_0, # of connection points: 2
#     Edge 108, Type (0, 0), BuildingBlock: CIFDUS_clean_linker_0, # of connection points: 2
#     Edge 109, Type (0, 0), BuildingBlock: CIFDUS_clean_linker_0, # of connection points: 2
#     Edge 110, Type (0, 0), BuildingBlock: CIFDUS_clean_linker_0, # of connection points: 2
#     Edge 111, Type (0, 0), BuildingBlock: CIFDUS_clean_linker_0, # of connection points: 2
# Relax obj value: 0.789
# Max RMSD: 0.269
# Mean RMSD: 0.269
data_MOF--net-vbi--node1-BEQFEK_clean_sbu_0--edge1-CIFDUS_clean_linker_0
_symmetry_space_group_name_H-M    P1
_symmetry_Int_Tables_number       1
_symmetry_cell_setting            triclinic
loop_
_symmetry_equiv_pos_as_xyz
'x, y, z'
_cell_length_a     25.191541
_cell_length_b     48.801507
_cell_length_c     71.779336
_cell_angle_alpha  90.031047
_cell_angle_beta   89.983206
_cell_angle_gamma 90.123779
loop_
_atom_site_label
_atom_site_type_symbol
_atom_site_fract_x
_atom_site_fract_y
_atom_site_fract_z
_atom_type_partial_charge
Co0 Co 0.38708 0.13331 0.04583 0.0
Co1 Co 0.27996 0.10754 0.03073 0.0
C2 C 0.31372 0.16255 0.01828 0.0
O3 O 0.3534 0.15995 0.02909 0.0
O4 O 0.27995 0.14315 0.01602 0.0
C5 C 0.48865 0.14616 0.03415 0.0
O6 O 0.4635 0.14342 0.01821 0.0
C7 C 0.19068 0.07603 0.01175 0.0
C8 C 0.17324 0.04711 0.03461 0.0
C9 C 0.15957 0.05304 0.01637 0.0
N10 N 0.22163 0.08245 0.02648 0.0
N11 N 0.20999 0.06531 0.04012 0.0
C12 C 0.1903 0.09235 0.99412 0.0
H13 H 0.21796 0.08301 0.98392 0.0
H14 H 0.14979 0.0928 0.98804 0.0
H15 H 0.20397 0.1136 -0.00314 0.0
C16 C 0.42798 0.07989 0.03336 0.0
N17 N 0.38779 0.09779 0.0354 0.0
N18 N 0.34516 0.08805 0.02714 0.0
C19 C 0.35789 0.06407 0.0188 0.0
C20 C 0.41114 0.05835 0.02232 0.0
C21 C 0.47939 0.08119 0.04381 0.0
H22 H 0.51109 0.08886 0.03449 0.0
H23 H 0.49121 0.06036 0.04842 0.0
H24 H 0.47595 0.09463 0.05619 0.0
O25 O 0.34753 0.13359 0.06903 0.0
O26 O 0.27183 0.11644 0.05794 0.0
H27 H 0.34164 0.03288 -0.00185 0.0
H28 H 0.29564 0.06131 -0.00136 0.0
C29 C 0.32022 0.04749 0.00729 0.0
H30 H 0.29341 0.03583 0.01667 0.0
H31 H 0.22875 0.06538 0.05308 0.0
O32 O 0.46202 0.1447 0.04917 0.0
C33 C 0.29956 0.12616 0.07125 0.0
Co34 Co 0.89819 0.13194 0.03457 0.0
Co35 Co 0.01188 0.15442 0.0231 0.0
C36 C 0.97855 0.09797 0.01288 0.0
O37 O 0.93568 0.10244 0.02171 0.0
O38 O 0.01354 0.1168 0.01066 0.0
C39 C 0.79664 0.11304 0.02291 0.0
O40 O 0.82238 0.10785 0.00738 0.0
C41 C 0.10362 0.18656 0.00555 0.0
C42 C 0.14008 0.20224 0.03136 0.0
C43 C 0.14355 0.20439 0.01216 0.0
N44 N 0.07733 0.17574 0.02026 0.0
N45 N 0.1007 0.18479 0.03555 0.0
C46 C 0.08944 0.18004 0.98582 0.0
H47 H 0.05424 0.16632 0.98529 0.0
H48 H 0.08109 0.19913 0.978 0.0
H49 H 0.12335 0.16952 0.97904 0.0
C50 C 0.86335 0.18261 0.0174 0.0
N51 N 0.9029 0.16539 0.02185 0.0
N52 N 0.94859 0.17518 0.0158 0.0
C53 C 0.93823 0.19891 0.00656 0.0
C54 C 0.88366 0.2039 0.00702 0.0
C55 C 0.80797 0.18082 0.02496 0.0
H56 H 0.80806 0.17136 0.03898 0.0
H57 H 0.78313 0.16851 0.01534 0.0
H58 H 0.78984 0.20146 0.02612 0.0
O59 O 0.92786 0.13637 0.05891 0.0
O60 O 0.01014 0.14822 0.05105 0.0
H61 H 0.01448 0.21828 0.00588 0.0
H62 H 0.96364 0.23658 0.9933 0.0
C63 C 0.97899 0.21602 -0.00308 0.0
H64 H 0.99018 0.20566 0.98377 0.0
H65 H 0.08837 0.18006 0.04904 0.0
O66 O 0.82249 0.12168 0.03693 0.0
C67 C 0.9753 0.14221 0.06327 0.0
Co68 Co 0.35543 0.13579 0.20443 0.0
Co69 Co 0.24801 0.16282 0.21736 0.0
C70 C 0.27928 0.10355 0.22627 0.0
O71 O 0.32175 0.10632 0.21707 0.0
O72 O 0.24673 0.12351 0.22862 0.0
C73 C 0.45508 0.10849 0.20705 0.0
O74 O 0.43362 0.09646 0.2216 0.0
C75 C 0.17971 0.20181 0.23973 0.0
C76 C 0.11599 0.20886 0.21936 0.0
C77 C 0.13519 0.218 0.2363 0.0
N78 N 0.18695 0.18443 0.22529 0.0
N79 N 0.14729 0.18826 0.21352 0.0
C80 C 0.2138 0.20269 0.25677 0.0
H81 H 0.2517 0.19169 0.25448 0.0
H82 H 0.22092 0.22415 0.26123 0.0
H83 H 0.19225 0.19238 0.2683 0.0
C84 C 0.40082 0.18201 0.2248 0.0
N85 N 0.35818 0.1674 0.21942 0.0
N86 N 0.31473 0.18177 0.22212 0.0
C87 C 0.32954 0.20727 0.22759 0.0
C88 C 0.38446 0.20794 0.22992 0.0
C89 C 0.4557 0.17057 0.22619 0.0
H90 H 0.47391 0.16978 0.21212 0.0
H91 H 0.45341 0.14963 0.23201 0.0
H92 H 0.48134 0.18295 0.23552 0.0
O93 O 0.31741 0.14244 0.18123 0.0
O94 O 0.23975 0.16002 0.18977 0.0
H95 H 0.25748 0.2271 0.219 0.0
H96 H 0.31576 0.24865 0.21895 0.0
C97 C 0.29477 0.23196 0.22648 0.0
H98 H 0.28626 0.2397 0.24066 0.0
H99 H 0.14364 0.17816 0.20077 0.0
O100 O 0.42754 0.12502 0.19747 0.0
C101 C 0.27167 0.1516 0.1773 0.0
Co102 Co 0.85506 0.13811 0.2013 0.0
Co103 Co 0.97006 0.11572 0.2085 0.0
C104 C 0.93358 0.16798 0.22556 0.0
O105 O 0.88897 0.16396 0.21788 0.0
O106 O 0.97198 0.15108 0.22362 0.0
C107 C 0.75686 0.15013 0.21694 0.0
O108 O 0.78605 0.15061 0.2321 0.0
C109 C 0.06218 0.08454 0.22457 0.0
C110 C 0.0981 0.06905 0.19859 0.0
C111 C 0.10196 0.06705 0.2178 0.0
N112 N 0.03566 0.09526 0.20997 0.0
N113 N 0.05844 0.08639 0.19454 0.0
C114 C 0.04673 0.08989 0.24436 0.0
H115 H 0.0087 0.10133 0.24499 0.0
H116 H 0.04297 0.07035 0.25214 0.0
H117 H 0.07796 0.10249 0.25113 0.0
C118 C 0.82439 0.08336 0.21284 0.0
N119 N 0.86256 0.10192 0.20935 0.0
N120 N 0.90903 0.09235 0.2146 0.0
C121 C 0.90058 0.06732 0.22246 0.0
C122 C 0.84635 0.06133 0.22193 0.0
C123 C 0.7684 0.08503 0.20591 0.0
H124 H 0.76583 0.0983 0.19343 0.0
H125 H 0.74254 0.09302 0.21712 0.0
H126 H 0.75344 0.06431 0.20221 0.0
O127 O 0.88483 0.1431 0.17695 0.0
O128 O 0.96663 0.12752 0.18145 0.0
H129 H 0.97823 0.04962 0.22192 0.0
H130 H 0.92871 0.02853 0.2331 0.0
C131 C 0.94266 0.04984 0.23096 0.0
H132 H 0.95323 0.05843 0.24475 0.0
H133 H 0.04525 0.0911 0.18114 0.0
O134 O 0.77958 0.14721 0.20127 0.0
C135 C 0.93133 0.13828 0.17102 0.0
Co136 Co 0.6373 0.88438 0.95066 0.0
Co137 Co 0.75044 0.90656 0.96208 0.0
C138 C 0.72085 0.84899 0.96981 0.0
O139 O 0.6772 0.85384 0.96156 0.0
O140 O 0.75543 0.86787 0.97261 0.0
C141 C 0.53852 0.8646 0.96342 0.0
O142 O 0.5667 0.85922 0.97838 0.0
C143 C 0.84595 0.93565 0.97951 0.0
C144 C 0.85936 0.96567 0.95698 0.0
C145 C 0.87668 0.95863 0.97462 0.0
N146 N 0.81158 0.93028 0.9655 0.0
N147 N 0.82097 0.94807 0.95202 0.0
C148 C 0.85056 0.91829 -0.00339 0.0
H149 H 0.8371 0.89708 0.99358 0.0
H150 H 0.82494 0.92662 0.0078 0.0
H151 H 0.89222 0.91804 0.00165 0.0
C152 C 0.60294 0.93335 0.97069 0.0
N153 N 0.64163 0.91619 0.96523 0.0
N154 N 0.6878 0.9252 0.97123 0.0
C155 C 0.67921 0.94811 0.98148 0.0
C156 C 0.62486 0.95378 0.98164 0.0
C157 C 0.54745 0.93282 0.96316 0.0
H158 H 0.54681 0.92377 0.949 0.0
H159 H 0.52187 0.92057 0.97257 0.0
H160 H 0.53072 0.9538 0.96232 0.0
O161 O 0.66434 0.89244 0.92616 0.0
O162 O 0.74684 0.90398 0.93398 0.0
H163 H 0.74534 0.97549 0.98029 0.0
H164 H 0.7056 0.97884 0.00118 0.0
C165 C 0.72205 0.96414 0.99092 0.0
H166 H 0.74909 0.94988 -0.00183 0.0
H167 H 0.79936 0.94906 0.93965 0.0
O168 O 0.56201 0.87366 0.94902 0.0
C169 C 0.71123 0.89938 0.92176 0.0
Co170 Co 0.12742 0.88589 0.94724 0.0
Co171 Co 0.01816 0.8611 0.96111 0.0
C172 C 0.05401 0.91574 0.97408 0.0
O173 O 0.09439 0.91233 0.96376 0.0
O174 O 0.01889 0.89691 0.97594 0.0
C175 C 0.23004 0.89858 0.95874 0.0
O176 O 0.2066 0.89526 0.97494 0.0
C177 C 0.93288 0.82777 0.98069 0.0
C178 C 0.89197 0.81101 0.956 0.0
C179 C 0.89263 0.80937 0.97527 0.0
N180 N 0.95525 0.83866 0.96527 0.0
N181 N 0.92949 0.82892 0.95066 0.0
C182 C 0.95203 0.83421 -8e-05 0.0
H183 H 0.98828 0.84716 -0.00064 0.0
H184 H 0.9605 0.81502 0.00764 0.0
H185 H 0.92075 0.84566 0.00751 0.0
C186 C 0.16651 0.83258 0.95872 0.0
N187 N 0.126 0.85022 0.95688 0.0
N188 N 0.08308 0.84009 0.96482 0.0
C189 C 0.09663 0.81589 0.97287 0.0
C190 C 0.1503 0.81085 0.96951 0.0
C191 C 0.2181 0.83436 0.94841 0.0
H192 H 0.24949 0.84197 0.95787 0.0
H193 H 0.23044 0.81367 0.94367 0.0
H194 H 0.21463 0.84791 0.93609 0.0
O195 O 0.08986 0.8872 0.92415 0.0
O196 O 0.01191 0.87081 0.93363 0.0
H197 H 0.02196 0.79569 0.97662 0.0
H198 H 0.0774 0.77806 0.9871 0.0
C199 C 0.05998 0.79843 0.98413 0.0
H200 H 0.05226 0.80878 -0.00241 0.0
H201 H 0.93897 0.83357 0.93687 0.0
O202 O 0.20215 0.89719 0.94402 0.0
C203 C 0.04193 0.88069 0.92096 0.0
Co204 Co 0.64259 0.88729 0.7865 0.0
Co205 Co 0.75444 0.86383 0.77409 0.0
C206 C 0.71735 0.91778 0.76013 0.0
O207 O 0.67619 0.9139 0.77002 0.0
O208 O 0.75366 0.89947 0.75887 0.0
C209 C 0.53902 0.90031 0.77494 0.0
O210 O 0.56148 0.89755 0.75852 0.0
C211 C 0.84355 0.82952 0.75689 0.0
C212 C 0.87882 0.81392 0.78291 0.0
C213 C 0.88185 0.81102 0.76375 0.0
N214 N 0.8185 0.84146 0.77146 0.0
N215 N 0.84116 0.83241 0.78687 0.0
C216 C 0.82903 0.83528 0.73709 0.0
H217 H 0.79473 0.84951 0.73642 0.0
H218 H 0.81908 0.81595 0.72975 0.0
H219 H 0.86331 0.84497 0.72993 0.0
C220 C 0.60682 0.83285 0.77457 0.0
N221 N 0.64616 0.85119 0.77719 0.0
N222 N 0.69045 0.84199 0.76969 0.0
C223 C 0.67885 0.81806 0.76092 0.0
C224 C 0.62545 0.81167 0.76363 0.0
C225 C 0.55158 0.83573 0.78204 0.0
H226 H 0.55058 0.85005 0.79396 0.0
H227 H 0.52486 0.84265 0.77072 0.0
H228 H 0.53626 0.81584 0.78712 0.0
O229 O 0.67797 0.88955 0.81 0.0
O230 O 0.75755 0.87451 0.80153 0.0
H231 H 0.75439 0.79874 0.75798 0.0
H232 H 0.70072 0.78087 0.7466 0.0
C233 C 0.7173 0.80138 0.74994 0.0
H234 H 0.72608 0.81218 0.73672 0.0
H235 H 0.8292 0.83781 0.80028 0.0
O236 O 0.56769 0.89838 0.78944 0.0
C237 C 0.72592 0.88405 0.81381 0.0
Co238 Co 0.13208 0.88623 0.7853 0.0
Co239 Co 0.02113 0.91015 0.77339 0.0
C240 C 0.04944 0.85363 0.76329 0.0
O241 O 0.0922 0.85719 0.77241 0.0
O242 O 0.01599 0.87304 0.76092 0.0
C243 C 0.22974 0.86682 0.77204 0.0
O244 O 0.2007 0.86271 0.75709 0.0
C245 C 0.92597 0.9397 0.75676 0.0
C246 C 0.91389 0.96943 0.77958 0.0
C247 C 0.89527 0.96239 0.76208 0.0
N248 N 0.96134 0.9344 0.77042 0.0
N249 N 0.95292 0.95203 0.78407 0.0
C250 C 0.92086 0.9226 0.73955 0.0
H251 H 0.94627 0.93125 0.72838 0.0
H252 H 0.87905 0.92224 0.73465 0.0
H253 H 0.93452 0.90139 0.74234 0.0
C254 C 0.16978 0.93645 0.76723 0.0
N255 N 0.13009 0.9194 0.77206 0.0
N256 N 0.0848 0.92898 0.76573 0.0
C257 C 0.09493 0.95211 0.75592 0.0
C258 C 0.14943 0.95735 0.75639 0.0
C259 C 0.22492 0.93504 0.77499 0.0
H260 H 0.2248 0.92498 0.78882 0.0
H261 H 0.25051 0.92338 0.76527 0.0
H262 H 0.24217 0.95587 0.77655 0.0
O263 O 0.10275 0.89187 0.80985 0.0
O264 O 0.02197 0.90503 0.8012 0.0
H265 H 0.07118 0.98265 0.73577 0.0
H266 H 0.02536 0.95449 0.739 0.0
C267 C 0.05339 0.96849 0.74613 0.0
H268 H 0.03074 0.98055 0.75654 0.0
H269 H 0.97532 0.95288 0.79627 0.0
O270 O 0.2071 0.87492 0.78687 0.0
C271 C 0.05552 0.89879 0.81375 0.0
Co272 Co 0.36723 0.64172 0.54036 0.0
Co273 Co 0.25516 0.6175 0.52827 0.0
C274 C 0.28709 0.6732 0.51682 0.0
O275 O 0.32943 0.66968 0.52612 0.0
O276 O 0.25263 0.65409 0.51479 0.0
C277 C 0.46696 0.66028 0.52745 0.0
O278 O 0.43942 0.6644 0.51216 0.0
C279 C 0.16425 0.58319 0.51228 0.0
C280 C 0.12987 0.56884 0.53882 0.0
C281 C 0.12553 0.5655 0.51974 0.0
N282 N 0.19082 0.59528 0.52645 0.0
N283 N 0.16873 0.58698 0.54218 0.0
C284 C 0.17767 0.58786 0.49225 0.0
H285 H 0.21376 0.60083 0.49097 0.0
H286 H 0.18378 0.56799 0.48505 0.0
H287 H 0.14425 0.59864 0.48538 0.0
C288 C 0.40432 0.58984 0.5252 0.0
N289 N 0.36405 0.60703 0.52895 0.0
N290 N 0.31926 0.59676 0.52246 0.0
C291 C 0.33087 0.57273 0.51379 0.0
C292 C 0.3854 0.56805 0.51498 0.0
C293 C 0.45929 0.59244 0.53295 0.0
H294 H 0.45865 0.60328 0.54651 0.0
H295 H 0.4845 0.60369 0.52288 0.0
H296 H 0.47732 0.57193 0.53508 0.0
O297 O 0.3352 0.64053 0.56479 0.0
O298 O 0.25515 0.62695 0.55549 0.0
H299 H 0.25554 0.55246 0.5129 0.0
H300 H 0.30781 0.53448 0.50078 0.0
C301 C 0.2913 0.55494 0.50409 0.0
H302 H 0.27999 0.56486 0.4908 0.0
H303 H 0.18165 0.59267 0.55542 0.0
O304 O 0.44271 0.65265 0.54209 0.0
C305 C 0.2869 0.63503 0.56812 0.0
Co306 Co 0.87604 0.63525 0.54561 0.0
Co307 Co 0.9859 0.66108 0.53187 0.0
C308 C 0.95204 0.60495 0.52005 0.0
O309 O 0.91105 0.60797 0.53011 0.0
O310 O 0.98629 0.62421 0.51805 0.0
C311 C 0.7735 0.62197 0.53356 0.0
O312 O 0.79741 0.62469 0.51739 0.0
C313 C 0.07338 0.69848 0.51513 0.0
C314 C 0.11559 0.70732 0.54135 0.0
C315 C 0.11382 0.71485 0.5228 0.0
N316 N 0.05098 0.68326 0.52888 0.0
N317 N 0.07826 0.6882 0.54427 0.0
C318 C 0.05583 0.69776 0.49527 0.0
H319 H 0.01998 0.68471 0.49366 0.0
H320 H 0.04819 0.71886 0.49018 0.0
H321 H 0.08812 0.68899 0.48662 0.0
C322 C 0.83645 0.68821 0.53321 0.0
N323 N 0.87725 0.67067 0.53496 0.0
N324 N 0.92049 0.68153 0.52758 0.0
C325 C 0.90687 0.70624 0.52026 0.0
C326 C 0.85299 0.71065 0.52325 0.0
C327 C 0.78459 0.68612 0.54332 0.0
H328 H 0.78766 0.67232 0.5555 0.0
H329 H 0.75356 0.6789 0.53358 0.0
H330 H 0.77204 0.70666 0.54832 0.0
O331 O 0.91093 0.63606 0.56953 0.0
O332 O 0.9877 0.65315 0.55951 0.0
H333 H 0.98169 0.72686 0.51889 0.0
H334 H 0.92683 0.74654 0.50993 0.0
C335 C 0.9441 0.72571 0.51096 0.0
H336 H 0.95198 0.71834 0.49664 0.0
H337 H 0.06998 0.67954 0.55722 0.0
O338 O 0.80109 0.62367 0.54834 0.0
C339 C 0.95819 0.64393 0.5725 0.0
Co340 Co 0.38296 0.6367 0.70168 0.0
Co341 Co 0.27248 0.66119 0.71393 0.0
C342 C 0.31061 0.60926 0.72995 0.0
O343 O 0.35126 0.61164 0.71964 0.0
O344 O 0.27465 0.62769 0.73054 0.0
C345 C 0.48482 0.62465 0.71387 0.0
O346 O 0.4608 0.62854 0.72991 0.0
C347 C 0.18482 0.69381 0.73216 0.0
C348 C 0.14339 0.70835 0.70697 0.0
C349 C 0.14335 0.71095 0.7262 0.0
N350 N 0.20842 0.6827 0.71706 0.0
N351 N 0.18243 0.69107 0.70215 0.0
C352 C 0.20417 0.68889 0.75156 0.0
H353 H 0.24123 0.67661 0.75138 0.0
H354 H 0.21146 0.70866 0.75876 0.0
H355 H 0.17357 0.67733 0.75944 0.0
C356 C 0.41939 0.69221 0.7112 0.0
N357 N 0.37985 0.67377 0.70931 0.0
N358 N 0.336 0.68356 0.71675 0.0
C359 C 0.34798 0.70803 0.72469 0.0
C360 C 0.40132 0.71412 0.72159 0.0
C361 C 0.47453 0.68866 0.70379 0.0
H362 H 0.47537 0.67343 0.69239 0.0
H363 H 0.50131 0.68256 0.71531 0.0
H364 H 0.48981 0.70819 0.69805 0.0
O365 O 0.34552 0.63131 0.67879 0.0
O366 O 0.26679 0.64775 0.68731 0.0
H367 H 0.27168 0.72655 0.72805 0.0
H368 H 0.32601 0.74638 0.73746 0.0
C369 C 0.31008 0.72535 0.73548 0.0
H370 H 0.30385 0.71601 0.74938 0.0
H371 H 0.19269 0.68588 0.68851 0.0
O372 O 0.45754 0.62553 0.69901 0.0
C373 C 0.2972 0.63645 0.67536 0.0
Co374 Co 0.89171 0.6337 0.70832 0.0
Co375 Co 1.0018 0.60763 0.72007 0.0
C376 C 0.97152 0.66452 0.73169 0.0
O377 O 0.92918 0.66154 0.72239 0.0
O378 O 0.00474 0.64485 0.73357 0.0
C379 C 0.79416 0.65538 0.72043 0.0
O380 O 0.82179 0.65991 0.73565 0.0
C381 C 0.0863 0.57044 0.73716 0.0
C382 C 0.13023 0.56063 0.7116 0.0
C383 C 0.12606 0.55339 0.73016 0.0
N384 N 0.06665 0.58603 0.72323 0.0
N385 N 0.09525 0.58073 0.7082 0.0
C386 C 0.06769 0.57152 0.75691 0.0
H387 H 0.03099 0.58395 0.75813 0.0
H388 H 0.06164 0.5505 0.76241 0.0
H389 H 0.09916 0.58119 0.76552 0.0
C390 C 0.85071 0.58202 0.72306 0.0
N391 N 0.89216 0.59888 0.71994 0.0
N392 N 0.93653 0.58709 0.7255 0.0
C393 C 0.92352 0.56202 0.73247 0.0
C394 C 0.86863 0.55847 0.73153 0.0
C395 C 0.79552 0.58665 0.71598 0.0
H396 H 0.77343 0.59929 0.72618 0.0
H397 H 0.77379 0.56701 0.71422 0.0
H398 H 0.79668 0.59714 0.70232 0.0
O399 O 0.92401 0.63182 0.68396 0.0
O400 O 1.00218 0.61471 0.69235 0.0
H401 H 0.94615 0.52038 0.73923 0.0
H402 H 0.97071 0.54619 0.75444 0.0
C403 C 0.96221 0.54147 0.73965 0.0
H404 H 0.99894 0.54212 0.73128 0.0
H405 H 0.08847 0.58936 0.69514 0.0
O406 O 0.81767 0.64595 0.70615 0.0
C407 C 0.97052 0.6238 0.67998 0.0
Co408 Co 0.62088 0.39574 0.44985 0.0
Co409 Co 0.73562 0.41935 0.45822 0.0
C410 C 0.70133 0.36513 0.47315 0.0
O411 O 0.65739 0.3693 0.46511 0.0
O412 O 0.73906 0.3828 0.47248 0.0
C413 C 0.52608 0.38136 0.46686 0.0
O414 O 0.55822 0.38025 0.48125 0.0
C415 C 0.82712 0.4553 0.4725 0.0
C416 C 0.85933 0.46776 0.44524 0.0
C417 C 0.86391 0.47316 0.46411 0.0
N418 N 0.80085 0.44135 0.45901 0.0
N419 N 0.82201 0.44844 0.44287 0.0
C420 C 0.8156 0.4522 0.49282 0.0
H421 H 0.78036 0.43888 0.495 0.0
H422 H 0.80933 0.47256 0.49932 0.0
H423 H 0.85026 0.44255 0.49971 0.0
C424 C 0.58806 0.44935 0.46214 0.0
N425 N 0.62729 0.43138 0.45893 0.0
N426 N 0.67299 0.44149 0.46466 0.0
C427 C 0.66272 0.4663 0.47258 0.0
C428 C 0.60829 0.47155 0.47154 0.0
C429 C 0.53302 0.44712 0.45439 0.0
H430 H 0.5324 0.43396 0.44181 0.0
H431 H 0.50619 0.43869 0.46517 0.0
H432 H 0.51774 0.4677 0.45058 0.0
O433 O 0.64915 0.39337 0.42511 0.0
O434 O 0.73068 0.40867 0.43083 0.0
H435 H 0.68737 0.50517 0.48428 0.0
H436 H 0.71503 0.4753 0.49493 0.0
C437 C 0.70323 0.48443 0.48145 0.0
H438 H 0.73833 0.48623 0.47226 0.0
H439 H 0.80891 0.4413 0.42997 0.0
O440 O 0.5456 0.38555 0.45078 0.0
C441 C 0.69589 0.39896 0.41966 0.0
Co442 Co 0.12096 0.39654 0.46151 0.0
Co443 Co 0.01239 0.36605 0.46817 0.0
C444 C 0.04183 0.42107 0.48622 0.0
O445 O 0.08692 0.42089 0.47841 0.0
O446 O 0.00858 0.40127 0.48431 0.0
C447 C 0.22239 0.42187 0.46757 0.0
O448 O 0.20284 0.42939 0.48375 0.0
C449 C 0.9413 0.32343 0.48548 0.0
C450 C 0.88481 0.3173 0.46246 0.0
C451 C 0.89929 0.30691 0.47963 0.0
N452 N 0.95144 0.34238 0.47224 0.0
N453 N 0.91609 0.33902 0.45882 0.0
C454 C 0.97177 0.32072 0.50325 0.0
H455 H 0.01031 0.33168 0.50236 0.0
H456 H 0.97766 0.29883 0.50686 0.0
H457 H 0.9482 0.33007 0.51466 0.0
C458 C 0.16457 0.34472 0.47488 0.0
N459 N 0.12257 0.36054 0.47068 0.0
N460 N 0.07869 0.3459 0.47131 0.0
C461 C 0.09265 0.31947 0.47453 0.0
C462 C 0.14739 0.31804 0.47725 0.0
C463 C 0.21943 0.35556 0.47811 0.0
H464 H 0.23837 0.36027 0.46453 0.0
H465 H 0.21692 0.37453 0.4865 0.0
H466 H 0.24465 0.34088 0.48585 0.0
O467 O 0.08313 0.39953 0.43805 0.0
O468 O 0.00601 0.37816 0.44164 0.0
H469 H 0.07799 0.27892 0.46422 0.0
H470 H 0.04568 0.28676 0.48564 0.0
C471 C 0.05681 0.29534 0.47191 0.0
H472 H 0.02092 0.30123 0.46398 0.0
H473 H 0.91566 0.35031 0.44649 0.0
O474 O 0.19328 0.40882 0.4562 0.0
C475 C 0.03824 0.39212 0.43181 0.0
Co476 Co 0.61867 0.3927 0.27916 0.0
Co477 Co 0.73135 0.36809 0.27278 0.0
C478 C 0.70307 0.42645 0.26245 0.0
O479 O 0.65766 0.42334 0.26971 0.0
O480 O 0.73604 0.40656 0.26112 0.0
C481 C 0.5191 0.41967 0.27173 0.0
O482 O 0.5444 0.4333 0.25867 0.0
C483 C 0.81197 0.33026 0.25549 0.0
C484 C 0.86365 0.32443 0.27983 0.0
C485 C 0.85422 0.31463 0.26204 0.0
N486 N 0.79653 0.34785 0.26896 0.0
N487 N 0.82938 0.3449 0.28316 0.0
C488 C 0.78608 0.32769 0.23683 0.0
H489 H 0.74751 0.33858 0.23652 0.0
H490 H 0.78126 0.30583 0.23294 0.0
H491 H 0.81254 0.33711 0.22624 0.0
C492 C 0.58534 0.34636 0.25686 0.0
N493 N 0.62476 0.36185 0.2638 0.0
N494 N 0.66936 0.34785 0.264 0.0
C495 C 0.65796 0.32184 0.25855 0.0
C496 C 0.60457 0.32036 0.25354 0.0
C497 C 0.52993 0.35632 0.2536 0.0
H498 H 0.50791 0.35654 0.26699 0.0
H499 H 0.53122 0.37735 0.24784 0.0
H500 H 0.50839 0.34303 0.24358 0.0
O501 O 0.64216 0.38383 0.30417 0.0
O502 O 0.72627 0.37156 0.30055 0.0
H503 H 0.7276 0.30329 0.27053 0.0
H504 H 0.67014 0.2813 0.26912 0.0
C505 C 0.69293 0.29761 0.26187 0.0
H506 H 0.70591 0.28895 0.24835 0.0
H507 H 0.82571 0.35531 0.29579 0.0
O508 O 0.54414 0.40261 0.28172 0.0
C509 C 0.68652 0.37666 0.3109 0.0
Co510 Co 0.11263 0.39936 0.29836 0.0
Co511 Co 1.0011 0.4184 0.28335 0.0
C512 C 0.04518 0.36502 0.27188 0.0
O513 O 0.08457 0.37077 0.28216 0.0
O514 O 0.00629 0.38166 0.26993 0.0
C515 C 0.21275 0.38896 0.28588 0.0
O516 O 0.18591 0.39121 0.27026 0.0
C517 C 0.91233 0.44916 0.26373 0.0
C518 C 0.87258 0.46623 0.28853 0.0
C519 C 0.8722 0.46752 0.26925 0.0
N520 N 0.93588 0.43885 0.2791 0.0
N521 N 0.91062 0.44868 0.29378 0.0
C522 C 0.92999 0.44211 0.24443 0.0
H523 H 0.96568 0.42881 0.24484 0.0
H524 H 0.93885 0.46101 0.23643 0.0
H525 H 0.8977 0.43086 0.23719 0.0
C526 C 0.14568 0.45279 0.28478 0.0
N527 N 0.10723 0.43408 0.28751 0.0
N528 N 0.06345 0.44168 0.27895 0.0
C529 C 0.07443 0.4653 0.26964 0.0
C530 C 0.12727 0.47263 0.27281 0.0
C531 C 0.19748 0.45359 0.29501 0.0
H532 H 0.19557 0.4411 0.30789 0.0
H533 H 0.2296 0.44605 0.28586 0.0
H534 H 0.20756 0.47505 0.29879 0.0
O535 O 0.0754 0.39858 0.32173 0.0
O536 O 0.99547 0.40941 0.31082 0.0
H537 H 0.99837 0.48294 0.2644 0.0
H538 H 0.05226 0.49995 0.25252 0.0
C539 C 0.03658 0.47982 0.2571 0.0
H540 H 0.02999 0.46705 0.24455 0.0
H541 H 0.92112 0.4446 0.30755 0.0
O542 O 0.18804 0.39061 0.30127 0.0
C543 C 0.0261 0.40245 0.32412 0.0
Co544 Co 0.88261 0.1297 0.54156 0.0
Co545 Co 0.77149 0.10689 0.52834 0.0
C546 C 0.81395 0.15896 0.51317 0.0
O547 O 0.8548 0.15502 0.52313 0.0
O548 O 0.77486 0.1421 0.51313 0.0
C549 C 0.984 0.13871 0.5296 0.0
O550 O 0.95871 0.13427 0.51387 0.0
C551 C 0.68133 0.07639 0.50934 0.0
C552 C 0.65827 0.04972 0.53283 0.0
C553 C 0.64794 0.05434 0.51413 0.0
N554 N 0.7104 0.08344 0.52441 0.0
N555 N 0.69536 0.06769 0.53842 0.0
C556 C 0.68472 0.09137 0.4912 0.0
H557 H 0.70091 0.11228 0.49341 0.0
H558 H 0.71182 0.08039 0.4816 0.0
H559 H 0.64489 0.09275 0.48465 0.0
C560 C 0.91649 0.07455 0.53163 0.0
N561 N 0.87808 0.09342 0.53342 0.0
N562 N 0.83452 0.08474 0.52525 0.0
C563 C 0.8452 0.06033 0.51705 0.0
C564 C 0.89798 0.05337 0.52064 0.0
C565 C 0.96812 0.07504 0.54198 0.0
H566 H 1.00042 0.0816 0.53255 0.0
H567 H 0.97809 0.05411 0.54692 0.0
H568 H 0.966 0.08906 0.55412 0.0
O569 O 0.84266 0.13534 0.56404 0.0
O570 O 0.76398 0.11896 0.55513 0.0
H571 H 0.77595 0.0354 0.51432 0.0
H572 H 0.82643 0.02856 0.49703 0.0
C573 C 0.80659 0.04485 0.50524 0.0
H574 H 0.7865 0.05922 0.49564 0.0
H575 H 0.71226 0.0684 0.55168 0.0
O576 O 0.95773 0.13918 0.5447 0.0
C577 C 0.79411 0.13016 0.56723 0.0
Co578 Co 0.38954 0.13445 0.52612 0.0
Co579 Co 0.50058 0.15954 0.51645 0.0
C580 C 0.47117 0.10007 0.50806 0.0
O581 O 0.42743 0.10373 0.51637 0.0
O582 O 0.5038 0.11999 0.50542 0.0
C583 C 0.29096 0.10582 0.52097 0.0
O584 O 0.3168 0.09124 0.50854 0.0
C585 C 0.57695 0.19932 0.49779 0.0
C586 C 0.6334 0.20436 0.52085 0.0
C587 C 0.6202 0.21507 0.50364 0.0
N588 N 0.56473 0.18075 0.51111 0.0
N589 N 0.60041 0.18335 0.52449 0.0
C590 C 0.54821 0.20219 0.47968 0.0
H591 H 0.50986 0.19101 0.47994 0.0
H592 H 0.54252 0.22412 0.47616 0.0
H593 H 0.57317 0.19322 0.4685 0.0
C594 C 0.35101 0.17928 0.50346 0.0
N595 N 0.39208 0.16457 0.50992 0.0
N596 N 0.43611 0.17904 0.50896 0.0
C597 C 0.4227 0.20476 0.50345 0.0
C598 C 0.36851 0.20545 0.49939 0.0
C599 C 0.29598 0.1682 0.50097 0.0
H600 H 0.27483 0.16856 0.51453 0.0
H601 H 0.29804 0.14682 0.49585 0.0
H602 H 0.27312 0.18042 0.49072 0.0
O603 O 0.41765 0.14443 0.55048 0.0
O604 O 0.50063 0.15699 0.54441 0.0
H605 H 0.43418 0.24547 0.51388 0.0
H606 H 0.46747 0.23846 0.49252 0.0
C607 C 0.45679 0.22954 0.50621 0.0
H608 H 0.49284 0.22439 0.51428 0.0
H609 H 0.59968 0.17224 0.5369 0.0
O610 O 0.3155 0.12408 0.53017 0.0
C611 C 0.46338 0.15192 0.55589 0.0
Co612 Co 0.87007 0.1321 0.70012 0.0
Co613 Co 0.76042 0.15638 0.71409 0.0
C614 C 0.79131 0.10105 0.72523 0.0
O615 O 0.8324 0.10473 0.71519 0.0
O616 O 0.75754 0.12025 0.72799 0.0
C617 C 0.97037 0.11328 0.71173 0.0
O618 O 0.94371 0.10945 0.72725 0.0
C619 C 0.66848 0.18805 0.73124 0.0
C620 C 0.65528 0.21675 0.70793 0.0
C621 C 0.63852 0.21104 0.72589 0.0
N622 N 0.70172 0.18143 0.71719 0.0
N623 N 0.69257 0.19843 0.70325 0.0
C624 C 0.66472 0.17183 0.74887 0.0
H625 H 0.69068 0.18115 0.75963 0.0
H626 H 0.6232 0.17154 0.75407 0.0
H627 H 0.67847 0.15053 0.74646 0.0
C628 C 0.90989 0.18359 0.71545 0.0
N629 N 0.86943 0.16645 0.7117 0.0
N630 N 0.82551 0.17594 0.71918 0.0
C631 C 0.8375 0.1992 0.7286 0.0
C632 C 0.89172 0.20453 0.72671 0.0
C633 C 0.96399 0.1816 0.7069 0.0
H634 H 0.96196 0.17114 0.69321 0.0
H635 H 0.99046 0.17005 0.71637 0.0
H636 H 0.98147 0.20229 0.70487 0.0
O637 O 0.83408 0.13345 0.6764 0.0
O638 O 0.75505 0.14683 0.68692 0.0
H639 H 0.81828 0.22947 0.74956 0.0
H640 H 0.7724 0.20101 0.74764 0.0
C641 C 0.79825 0.21525 0.73974 0.0
H642 H 0.77281 0.22724 0.73013 0.0
H643 H 0.71346 0.19821 0.6907 0.0
O644 O 0.94532 0.12096 0.69727 0.0
C645 C 0.78533 0.13877 0.67382 0.0
Co646 Co 0.38291 0.13575 0.69184 0.0
Co647 Co 0.49413 0.11095 0.70382 0.0
C648 C 0.45941 0.16507 0.71834 0.0
O649 O 0.41762 0.16204 0.70857 0.0
O650 O 0.49494 0.14631 0.71916 0.0
C651 C 0.27952 0.14691 0.70398 0.0
O652 O 0.30355 0.1437 0.72008 0.0
C653 C 0.58446 0.07934 0.72206 0.0
C654 C 0.60106 0.05059 0.69905 0.0
C655 C 0.61471 0.05609 0.71737 0.0
N656 N 0.55376 0.08618 0.70735 0.0
N657 N 0.56507 0.06918 0.69359 0.0
C658 C 0.58564 0.09555 0.73976 0.0
H659 H 0.55747 0.08655 0.74994 0.0
H660 H 0.62615 0.09545 0.74586 0.0
H661 H 0.57322 0.11699 0.73707 0.0
C662 C 0.34615 0.0817 0.70385 0.0
N663 N 0.3855 0.09997 0.70128 0.0
N664 N 0.42978 0.09042 0.70845 0.0
C665 C 0.41879 0.06616 0.71681 0.0
C666 C 0.36507 0.06013 0.71434 0.0
C667 C 0.29336 0.08268 0.69426 0.0
H668 H 0.29498 0.09613 0.68184 0.0
H669 H 0.26281 0.09019 0.70408 0.0
H670 H 0.2812 0.06179 0.68983 0.0
O671 O 0.41921 0.13754 0.66829 0.0
O672 O 0.49844 0.12127 0.67631 0.0
H673 H 0.43864 0.0342 0.73649 0.0
H674 H 0.48239 0.06359 0.73639 0.0
C675 C 0.45832 0.04973 0.72755 0.0
H676 H 0.48533 0.03921 0.71767 0.0
H677 H 0.54625 0.06947 0.68065 0.0
O678 O 0.30721 0.14624 0.68917 0.0
C679 C 0.4668 0.13138 0.66421 0.0
Co680 Co 0.13149 0.88244 0.44729 0.0
Co681 Co 0.24298 0.90486 0.46042 0.0
C682 C 0.20957 0.84814 0.46977 0.0
O683 O 0.16781 0.85279 0.46037 0.0
O684 O 0.2448 0.86679 0.47255 0.0
C685 C 0.03009 0.86388 0.45759 0.0
O686 O 0.05427 0.85998 0.47359 0.0
C687 C 0.33642 0.93652 0.47806 0.0
C688 C 0.34928 0.96523 0.45472 0.0
C689 C 0.36621 0.95965 0.47264 0.0
N690 N 0.30302 0.92965 0.46404 0.0
N691 N 0.31207 0.94675 0.45012 0.0
C692 C 0.34101 0.92046 0.49573 0.0
H693 H 0.32705 0.89911 0.4935 0.0
H694 H 0.31589 0.92983 0.50668 0.0
H695 H 0.38279 0.92038 0.50067 0.0
C696 C 0.09398 0.93216 0.46577 0.0
N697 N 0.1335 0.91513 0.46086 0.0
N698 N 0.17878 0.92415 0.46765 0.0
C699 C 0.16861 0.94691 0.47787 0.0
C700 C 0.11426 0.95246 0.47718 0.0
C701 C 0.03908 0.93124 0.45775 0.0
H702 H 0.01296 0.91911 0.46705 0.0
H703 H 0.02218 0.95217 0.45665 0.0
H704 H 0.03953 0.92193 0.44368 0.0
O705 O 0.16353 0.88812 0.42344 0.0
O706 O 0.24509 0.89952 0.43232 0.0
H707 H 0.2352 0.974 0.47863 0.0
H708 H 0.19167 0.9769 0.49859 0.0
C709 C 0.2098 0.96243 0.48852 0.0
H710 H 0.2352 0.94779 0.49615 0.0
H711 H 0.29104 0.94661 0.4376 0.0
O712 O 0.05715 0.87178 0.44367 0.0
C713 C 0.21125 0.89413 0.41963 0.0
Co714 Co 0.62248 0.88053 0.4552 0.0
Co715 Co 0.50609 0.8595 0.46379 0.0
C716 C 0.54106 0.91603 0.47428 0.0
O717 O 0.58503 0.91104 0.46636 0.0
O718 O 0.50511 0.89756 0.47588 0.0
C719 C 0.72463 0.8952 0.4398 0.0
O720 O 0.69936 0.89747 0.42387 0.0
C721 C 0.4108 0.82591 0.47778 0.0
C722 C 0.37123 0.82027 0.45067 0.0
C723 C 0.36977 0.81144 0.46896 0.0
N724 N 0.43702 0.84102 0.46491 0.0
N725 N 0.41111 0.83832 0.44899 0.0
C726 C 0.42451 0.82552 0.49803 0.0
H727 H 0.46197 0.8369 0.50063 0.0
H728 H 0.42744 0.80411 0.50311 0.0
H729 H 0.39214 0.83559 0.50596 0.0
C730 C 0.65219 0.83082 0.47423 0.0
N731 N 0.61364 0.84795 0.46873 0.0
N732 N 0.56658 0.83743 0.47259 0.0
C733 C 0.57499 0.81271 0.4809 0.0
C734 C 0.62955 0.80832 0.48263 0.0
C735 C 0.70958 0.83418 0.46924 0.0
H736 H 0.71315 0.84025 0.45442 0.0
H737 H 0.72709 0.85029 0.47822 0.0
H738 H 0.73247 0.815 0.47108 0.0
O739 O 0.59855 0.87444 0.43017 0.0
O740 O 0.51445 0.86396 0.43592 0.0
H741 H 0.49819 0.79471 0.477 0.0
H742 H 0.54686 0.77161 0.48632 0.0
C743 C 0.53253 0.79302 0.48651 0.0
H744 H 0.52059 0.79759 0.50103 0.0
H745 H 0.42224 0.84759 0.43651 0.0
O746 O 0.69854 0.89011 0.45455 0.0
C747 C 0.55228 0.86855 0.42459 0.0
Co748 Co 0.1122 0.89873 0.27797 0.0
Co749 Co 0.22618 0.87247 0.27426 0.0
C750 C 0.19532 0.92682 0.25636 0.0
O751 O 0.14913 0.92511 0.26324 0.0
O752 O 0.23002 0.90786 0.25852 0.0
C753 C 0.01089 0.92266 0.26809 0.0
O754 O 0.03689 0.9356 0.25487 0.0
C755 C 0.31126 0.83674 0.25792 0.0
C756 C 0.35817 0.82768 0.28314 0.0
C757 C 0.35392 0.82098 0.26443 0.0
N758 N 0.29113 0.85128 0.27226 0.0
N759 N 0.32029 0.84615 0.28714 0.0
C760 C 0.28708 0.8367 0.23888 0.0
H761 H 0.24744 0.84658 0.23912 0.0
H762 H 0.28361 0.81549 0.23345 0.0
H763 H 0.31301 0.84852 0.2293 0.0
C764 C 0.07963 0.84685 0.26188 0.0
N765 N 0.11855 0.86353 0.26782 0.0
N766 N 0.16414 0.85038 0.2679 0.0
C767 C 0.15422 0.82396 0.26298 0.0
C768 C 0.10027 0.82107 0.25903 0.0
C769 C 0.02443 0.85608 0.25743 0.0
H770 H 0.02625 0.87588 0.24997 0.0
H771 H 0.0032 0.84135 0.24832 0.0
H772 H 1.00174 0.85853 0.27056 0.0
O773 O 0.1406 0.90054 0.30304 0.0
O774 O 0.22199 0.88355 0.30119 0.0
H775 H 0.17425 0.78218 0.26904 0.0
H776 H 0.20832 0.79673 0.24958 0.0
C777 C 0.19361 0.80114 0.26381 0.0
H778 H 0.22728 0.80655 0.27303 0.0
H779 H 0.31286 0.85433 0.30034 0.0
O780 O 0.03641 0.90795 0.2796 0.0
C781 C 0.18474 0.89462 0.31054 0.0
Co782 Co 0.60914 0.88666 0.28676 0.0
Co783 Co 0.4969 0.9128 0.27825 0.0
C784 C 0.52664 0.85921 0.26196 0.0
O785 O 0.57009 0.86153 0.27078 0.0
O786 O 0.4918 0.87832 0.26208 0.0
C787 C 0.70905 0.87598 0.27133 0.0
O788 O 0.68293 0.88173 0.25598 0.0
C789 C 0.40662 0.95098 0.26591 0.0
C790 C 0.37574 0.96087 0.29385 0.0
C791 C 0.37047 0.96802 0.2753 0.0
N792 N 0.43319 0.93573 0.2786 0.0
N793 N 0.41287 0.94136 0.29514 0.0
C794 C 0.41689 0.94958 0.24543 0.0
H795 H 0.45092 0.93585 0.24243 0.0
H796 H 0.42452 0.9704 0.23981 0.0
H797 H 0.38121 0.94122 0.23835 0.0
C798 C 0.64589 0.94108 0.27662 0.0
N799 N 0.60568 0.92326 0.27887 0.0
N800 N 0.56102 0.9342 0.27293 0.0
C801 C 0.57304 0.95918 0.26561 0.0
C802 C 0.6275 0.96387 0.26743 0.0
C803 C 0.69923 0.93867 0.28567 0.0
H804 H 0.69871 0.92322 0.29697 0.0
H805 H 0.72931 0.93331 0.27508 0.0
H806 H 0.71122 0.95875 0.29164 0.0
O807 O 0.58029 0.88335 0.31122 0.0
O808 O 0.50002 0.89974 0.30523 0.0
H809 H 0.49903 0.98043 0.26566 0.0
H810 H 0.55153 0.99826 0.25356 0.0
C811 C 0.53409 0.97787 0.25652 0.0
H812 H 0.52156 0.96868 0.24312 0.0
H813 H 0.42614 0.93296 0.30763 0.0
O814 O 0.68384 0.87502 0.28664 0.0
C815 C 0.5335 0.88907 0.31641 0.0
Co816 Co 0.88304 0.63905 0.04053 0.0
Co817 Co 0.77687 0.61019 0.02834 0.0
C818 C 0.80418 0.66798 0.01668 0.0
O819 O 0.84548 0.66677 0.0267 0.0
O820 O 0.77385 0.64711 0.01454 0.0
C821 C 0.98088 0.66429 0.03232 0.0
O822 O 0.95806 0.66784 0.01604 0.0
C823 C 0.70617 0.57011 0.00782 0.0
C824 C 0.64686 0.56233 0.0297 0.0
C825 C 0.66302 0.55341 0.01233 0.0
N826 N 0.7157 0.58749 0.02208 0.0
N827 N 0.67855 0.58326 0.03478 0.0
C828 C 0.73773 0.56925 0.99019 0.0
H829 H 0.77623 0.58003 0.9919 0.0
H830 H 0.74373 0.54779 0.98554 0.0
H831 H 0.71489 0.5798 0.97911 0.0
C832 C 0.93053 0.58951 0.02414 0.0
N833 N 0.88778 0.60533 0.02756 0.0
N834 N 0.84406 0.59118 0.02429 0.0
C835 C 0.85853 0.56521 0.01981 0.0
C836 C 0.91354 0.56383 0.01882 0.0
C837 C 0.98678 0.59737 0.02825 0.0
H838 H 0.9896 0.60642 0.04236 0.0
H839 H 0.99995 0.6125 0.01774 0.0
H840 H 0.01397 0.57954 0.02763 0.0
O841 O 0.84839 0.63299 0.06434 0.0
O842 O 0.76982 0.61616 0.05592 0.0
H843 H 0.84017 0.52342 0.02682 0.0
H844 H 0.81494 0.53462 0.005 0.0
C845 C 0.82201 0.5411 0.01957 0.0
H846 H 0.78443 0.54614 0.02672 0.0
H847 H 0.67697 0.59335 0.04758 0.0
O848 O 0.95438 0.65347 0.04545 0.0
C849 C 0.80215 0.62447 0.06835 0.0
Co850 Co 0.38653 0.64678 0.04093 0.0
Co851 Co 0.50252 0.66658 0.03036 0.0
C852 C 0.46398 0.6104 0.02051 0.0
O853 O 0.42052 0.61648 0.02834 0.0
O854 O 0.50232 0.62764 0.01947 0.0
C855 C 0.28825 0.63186 0.02624 0.0
O856 O 0.31769 0.62866 0.01129 0.0
C857 C 0.59779 0.69862 0.01434 0.0
C858 C 0.63765 0.70758 0.04096 0.0
C859 C 0.63946 0.71398 0.0222 0.0
N860 N 0.57132 0.68541 0.02812 0.0
N861 N 0.59721 0.6902 0.0438 0.0
C862 C 0.58403 0.69595 0.99417 0.0
H863 H 0.54776 0.68326 0.99237 0.0
H864 H 0.57852 0.71647 0.98785 0.0
H865 H 0.61733 0.68579 0.98678 0.0
C866 C 0.35683 0.69779 0.02362 0.0
N867 N 0.3951 0.67989 0.02811 0.0
N868 N 0.44146 0.68852 0.02183 0.0
C869 C 0.43244 0.71224 0.01232 0.0
C870 C 0.37826 0.71819 0.01281 0.0
C871 C 0.30216 0.69807 0.03189 0.0
H872 H 0.27403 0.6881 0.02216 0.0
H873 H 0.28836 0.71945 0.03398 0.0
H874 H 0.30161 0.68754 0.04556 0.0
O875 O 0.41328 0.65105 0.06574 0.0
O876 O 0.49562 0.66347 0.05841 0.0
H877 H 0.50962 0.73042 0.01206 0.0
H878 H 0.45983 0.75021 0.00012 0.0
C879 C 0.47404 0.7292 0.00306 0.0
H880 H 0.48421 0.71959 0.98955 0.0
H881 H 0.58592 0.68272 0.05681 0.0
O882 O 0.31068 0.63786 0.04156 0.0
C883 C 0.45996 0.65786 0.07042 0.0
Co884 Co 0.85984 0.63796 0.20635 0.0
Co885 Co 0.74788 0.66487 0.21476 0.0
C886 C 0.77943 0.60842 0.2289 0.0
O887 O 0.82334 0.61043 0.22039 0.0
O888 O 0.74567 0.62812 0.22917 0.0
C889 C 0.95928 0.61086 0.21365 0.0
O890 O 0.93204 0.59679 0.22599 0.0
C891 C 0.66255 0.70017 0.23259 0.0
C892 C 0.61523 0.70982 0.20757 0.0
C893 C 0.61925 0.7158 0.22636 0.0
N894 N 0.68325 0.68639 0.21797 0.0
N895 N 0.65375 0.69192 0.20322 0.0
C896 C 0.68622 0.69945 0.25168 0.0
H897 H 0.68935 0.72047 0.25749 0.0
H898 H 0.6601 0.68722 0.26096 0.0
H899 H 0.72592 0.68963 0.25137 0.0
C900 C 0.89763 0.6872 0.22495 0.0
N901 N 0.85688 0.67197 0.2187 0.0
N902 N 0.81201 0.68548 0.22076 0.0
C903 C 0.82413 0.71084 0.22734 0.0
C904 C 0.87888 0.7126 0.2302 0.0
C905 C 0.9526 0.67638 0.22791 0.0
H906 H 0.97344 0.6751 0.21433 0.0
H907 H 0.95005 0.65576 0.23423 0.0
H908 H 0.97615 0.68936 0.23752 0.0
O909 O 0.82786 0.63937 0.18174 0.0
O910 O 0.74796 0.6565 0.18741 0.0
H911 H 0.80467 0.75354 0.22521 0.0
H912 H 0.77333 0.73574 0.24401 0.0
C913 C 0.78556 0.73389 0.22924 0.0
H914 H 0.75021 0.73035 0.22038 0.0
H915 H 0.66105 0.6843 0.18988 0.0
O916 O 0.9351 0.62771 0.20318 0.0
C917 C 0.78214 0.64663 0.17622 0.0
Co918 Co 0.36909 0.64324 0.20434 0.0
Co919 Co 0.47942 0.6203 0.21816 0.0
C920 C 0.44175 0.67438 0.23109 0.0
O921 O 0.40123 0.67078 0.2208 0.0
O922 O 0.4773 0.65586 0.2329 0.0
C923 C 0.26429 0.65283 0.21539 0.0
O924 O 0.28626 0.64877 0.23175 0.0
C925 C 0.56842 0.58762 0.23621 0.0
C926 C 0.60798 0.57327 0.21059 0.0
C927 C 0.60911 0.5703 0.22976 0.0
N928 N 0.54393 0.59902 0.22138 0.0
N929 N 0.56902 0.59076 0.20622 0.0
C930 C 0.55166 0.59299 0.25584 0.0
H931 H 0.51615 0.60643 0.25616 0.0
H932 H 0.54285 0.57341 0.26306 0.0
H933 H 0.58437 0.60347 0.26337 0.0
C934 C 0.33328 0.58889 0.21608 0.0
N935 N 0.37258 0.60735 0.21406 0.0
N936 N 0.41596 0.59827 0.2222 0.0
C937 C 0.40386 0.57417 0.23069 0.0
C938 C 0.35064 0.56784 0.22731 0.0
C939 C 0.28239 0.589 0.2053 0.0
H940 H 0.28494 0.60296 0.19316 0.0
H941 H 0.24935 0.59513 0.21451 0.0
H942 H 0.27328 0.56799 0.20027 0.0
O943 O 0.40581 0.64522 0.18096 0.0
O944 O 0.48417 0.63039 0.19084 0.0
H945 H 0.47901 0.55505 0.23511 0.0
H946 H 0.42456 0.53822 0.24683 0.0
C947 C 0.44123 0.55832 0.24267 0.0
H948 H 0.44917 0.57029 0.25548 0.0
H949 H 0.55817 0.59605 0.19269 0.0
O950 O 0.29367 0.65305 0.201 0.0
C951 C 0.4542 0.63957 0.17799 0.0
Co952 Co 0.14964 0.38208 0.95995 0.0
Co953 Co 0.26042 0.40835 0.96951 0.0
C954 C 0.2324 0.34968 0.9795 0.0
O955 O 0.18836 0.35232 0.97119 0.0
O956 O 0.26446 0.36992 0.9814 0.0
C957 C 0.05135 0.35487 0.96764 0.0
O958 O 0.07725 0.3442 0.98176 0.0
C959 C 0.337 0.44622 0.98951 0.0
C960 C 0.39183 0.4547 0.9664 0.0
C961 C 0.3796 0.46292 0.98435 0.0
N962 N 0.32407 0.42963 0.97511 0.0
N963 N 0.35878 0.4342 0.96165 0.0
C964 C 0.3083 0.44687 0.00774 0.0
H965 H 0.26923 0.43647 0.00666 0.0
H966 H 0.30383 0.46825 0.01276 0.0
H967 H 0.33251 0.43581 0.01822 0.0
C968 C 0.1097 0.43025 0.97962 0.0
N969 N 0.15077 0.41432 0.97446 0.0
N970 N 0.19567 0.42796 0.97634 0.0
C971 C 0.18343 0.45396 0.98154 0.0
C972 C 0.12888 0.45578 0.98447 0.0
C973 C 0.05246 0.42264 0.97715 0.0
H974 H 0.04477 0.41801 0.96228 0.0
H975 H 0.04357 0.40423 0.98562 0.0
H976 H 0.02516 0.43927 0.98141 0.0
O977 O 0.17888 0.38982 0.93547 0.0
O978 O 0.26071 0.40458 0.94154 0.0
H979 H 0.20254 0.49553 0.974 0.0
H980 H 0.23079 0.48421 -0.00469 0.0
C981 C 0.22103 0.4777 0.98093 0.0
H982 H 0.25724 0.47229 0.97308 0.0
H983 H 0.35736 0.42483 0.94859 0.0
O984 O 0.07595 0.37025 0.95628 0.0
C985 C 0.2243 0.39785 0.93008 0.0
Co986 Co 0.64072 0.37774 0.94717 0.0
Co987 Co 0.53059 0.35484 0.96172 0.0
C988 C 0.57618 0.40634 0.97695 0.0
O989 O 0.61562 0.40259 0.9663 0.0
O990 O 0.53707 0.38954 0.97737 0.0
C991 C 0.7431 0.38569 0.95852 0.0
O992 O 0.71828 0.38092 0.9743 0.0
C993 C 0.44597 0.32226 0.9819 0.0
C994 C 0.4002 0.30751 0.95767 0.0
C995 C 0.40395 0.30475 0.97683 0.0
N996 N 0.46636 0.33373 0.96635 0.0
N997 N 0.43773 0.32525 0.95204 0.0
C998 C 0.469 0.32699 0.00083 0.0
H999 H 0.50637 0.339 -0.00017 0.0
H1000 H 0.47673 0.30716 0.00787 0.0
H1001 H 0.44031 0.33878 0.00937 0.0
C1002 C 0.67472 0.32217 0.95504 0.0
N1003 N 0.63595 0.34102 0.95456 0.0
N1004 N 0.59344 0.33162 0.96313 0.0
C1005 C 0.60567 0.30656 0.97018 0.0
C1006 C 0.65799 0.30023 0.96552 0.0
C1007 C 0.72543 0.32359 0.94417 0.0
H1008 H 0.72217 0.33837 0.93252 0.0
H1009 H 0.75849 0.32945 0.95351 0.0
H1010 H 0.73513 0.30306 0.93843 0.0
O1011 O 0.5986 0.38446 0.92529 0.0
O1012 O 0.5211 0.36786 0.93526 0.0
H1013 H 0.52982 0.28831 0.9753 0.0
H1014 H 0.58509 0.26848 0.98382 0.0
C1015 C 0.56947 0.28951 0.98189 0.0
H1016 H 0.56576 0.29917 -0.00421 0.0
H1017 H 0.44539 0.33052 0.93821 0.0
O1018 O 0.71616 0.38693 0.94358 0.0
C1019 C 0.54964 0.37938 0.92283 0.0
Co1020 Co 0.13035 0.37698 0.79476 0.0
Co1021 Co 0.24215 0.35304 0.78267 0.0
C1022 C 0.20645 0.40754 0.76925 0.0
O1023 O 0.16417 0.40376 0.77851 0.0
O1024 O 0.24356 0.38962 0.76884 0.0
C1025 C 0.03263 0.39358 0.78105 0.0
O1026 O 0.06242 0.39598 0.76611 0.0
C1027 C 0.33219 0.32357 0.76306 0.0
C1028 C 0.35113 0.29328 0.78487 0.0
C1029 C 0.3634 0.30028 0.76666 0.0
N1030 N 0.30228 0.32903 0.77824 0.0
N1031 N 0.31496 0.31114 0.79129 0.0
C1032 C 0.33166 0.3411 0.74596 0.0
H1033 H 0.31914 0.36223 0.74955 0.0
H1034 H 0.30278 0.33277 0.73577 0.0
H1035 H 0.37165 0.34169 0.73946 0.0
C1036 C 0.09371 0.3243 0.78081 0.0
N1037 N 0.13346 0.34193 0.78438 0.0
N1038 N 0.17797 0.33261 0.77724 0.0
C1039 C 0.16692 0.30895 0.7681 0.0
C1040 C 0.11279 0.30322 0.76988 0.0
C1041 C 0.03942 0.32601 0.78925 0.0
H1042 H 0.04073 0.33726 0.80266 0.0
H1043 H 0.0124 0.33662 0.77948 0.0
H1044 H 0.02307 0.30519 0.79177 0.0
O1045 O 0.16666 0.37815 0.81855 0.0
O1046 O 0.24567 0.36167 0.81027 0.0
H1047 H 0.23406 0.2824 0.767 0.0
H1048 H 0.18751 0.27747 0.74811 0.0
C1049 C 0.2068 0.29292 0.75722 0.0
H1050 H 0.23061 0.30708 0.74852 0.0
H1051 H 0.29694 0.3103 0.80436 0.0
O1052 O 0.05456 0.38724 0.79642 0.0
C1053 C 0.21418 0.37153 0.82251 0.0
Co1054 Co 0.61952 0.3802 0.7914 0.0
Co1055 Co 0.51262 0.40658 0.77712 0.0
C1056 C 0.54371 0.35166 0.76426 0.0
O1057 O 0.58375 0.35423 0.77491 0.0
O1058 O 0.51089 0.37137 0.76183 0.0
C1059 C 0.72213 0.36389 0.78147 0.0
O1060 O 0.70123 0.36638 0.76478 0.0
C1061 C 0.42986 0.44381 0.75963 0.0
C1062 C 0.39698 0.46099 0.78565 0.0
C1063 C 0.39517 0.46389 0.7665 0.0
N1064 N 0.45225 0.43076 0.77424 0.0
N1065 N 0.431 0.44077 0.78964 0.0
C1066 C 0.44443 0.43821 0.73981 0.0
H1067 H 0.47929 0.42437 0.73905 0.0
H1068 H 0.45289 0.45767 0.73237 0.0
H1069 H 0.41051 0.42802 0.73276 0.0
C1070 C 0.66299 0.43327 0.77944 0.0
N1071 N 0.62176 0.41587 0.78135 0.0
N1072 N 0.57871 0.42695 0.77417 0.0
C1073 C 0.59234 0.45177 0.76704 0.0
C1074 C 0.64635 0.45617 0.7699 0.0
C1075 C 0.71644 0.4297 0.78821 0.0
H1076 H 0.71384 0.41651 0.80072 0.0
H1077 H 0.74387 0.42059 0.77788 0.0
H1078 H 0.73323 0.44987 0.79234 0.0
O1079 O 0.58134 0.37983 0.81462 0.0
O1080 O 0.50416 0.39503 0.80384 0.0
H1081 H 0.574 0.49081 0.75424 0.0
H1082 H 0.54341 0.46136 0.74386 0.0
C1083 C 0.55521 0.47074 0.75727 0.0
H1084 H 0.51948 0.47409 0.76595 0.0
H1085 H 0.44191 0.43497 0.80307 0.0
O1086 O 0.69257 0.36725 0.7956 0.0
C1087 C 0.53271 0.3855 0.81691 0.0
H1088 H 0.50731 0.06227 0.00579 0.0
H1089 H 0.3904 1.00342 0.02391 0.0
H1090 H 0.44895 0.96582 0.0144 0.0
H1091 H 0.5333 0.94994 0.00104 0.0
H1092 H 0.64822 1.00876 0.98133 0.0
H1093 H 0.59194 0.04632 0.9924 0.0
C1094 C 0.49488 0.04118 0.00776 0.0
C1095 C 0.4447 0.03551 0.01553 0.0
C1096 C 0.52886 0.01982 0.00237 0.0
C1097 C 0.42857 1.0082 0.01774 0.0
C1098 C 0.46223 0.98677 0.01248 0.0
C1099 C 0.54601 0.97101 -0.00083 0.0
C1100 C 0.59491 0.97659 0.99042 0.0
C1101 C 0.51245 0.99237 0.00482 0.0
C1102 C 0.61127 1.00392 0.98832 0.0
C1103 C 0.57871 0.02537 0.99439 0.0
H1104 H 0.74864 0.30748 0.98471 0.0
H1105 H 0.64748 0.24464 0.96178 0.0
H1106 H 0.71172 0.20947 0.97116 0.0
H1107 H 0.79685 0.19695 0.98566 0.0
H1108 H 0.89576 0.25966 0.00996 0.0
H1109 H 0.83361 0.29492 -0.00067 0.0
C1110 C 0.74074 0.28603 0.98181 0.0
C1111 C 0.69335 0.27849 0.97273 0.0
C1112 C 0.77809 0.26616 0.98701 0.0
C1113 C 0.68324 0.25076 0.96907 0.0
C1114 C 0.72023 0.23078 0.97422 0.0
C1115 C 0.80495 0.2184 0.98848 0.0
C1116 C 0.85126 0.22578 -0.00171 0.0
C1117 C 0.76786 0.2383 0.9831 0.0
C1118 C 0.86132 0.25355 0.00194 0.0
C1119 C 0.8253 0.27363 -0.00384 0.0
H1120 H 0.51279 0.30295 0.26916 0.0
H1121 H 0.62434 0.2841 0.22551 0.0
H1122 H 0.56446 0.24841 0.21362 0.0
H1123 H 0.47823 0.22452 0.21478 0.0
H1124 H 0.36784 0.24281 0.25897 0.0
H1125 H 0.42792 0.27816 0.27088 0.0
C1126 C 0.52393 0.29096 0.25706 0.0
C1127 C 0.57252 0.29621 0.24807 0.0
C1128 C 0.48887 0.27105 0.25013 0.0
C1129 C 0.5872 0.28025 0.23267 0.0
C1130 C 0.55272 0.26014 0.22577 0.0
C1131 C 0.46756 0.23611 0.22711 0.0
C1132 C 0.41874 0.23101 0.23605 0.0
C1133 C 0.5031 0.2557 0.23422 0.0
C1134 C 0.40481 0.24661 0.25172 0.0
C1135 C 0.43948 0.26653 0.25868 0.0
H1136 H 0.76469 0.0675 0.24572 0.0
H1137 H 0.85614 1.00567 0.21737 0.0
H1138 H 0.79502 0.97018 0.22871 0.0
H1139 H 0.71303 0.95728 0.24534 0.0
H1140 H 0.62031 0.01934 0.27295 0.0
H1141 H 0.68302 0.05464 0.26242 0.0
C1142 C 0.77136 0.04619 0.24212 0.0
C1143 C 0.81514 0.03911 0.23089 0.0
C1144 C 0.73502 0.0262 0.2481 0.0
C1145 C 0.82355 1.01151 0.22636 0.0
C1146 C 0.78814 0.99132 0.23261 0.0
C1147 C 0.70661 0.97858 0.24902 0.0
C1148 C 0.66182 0.98585 0.25971 0.0
C1149 C 0.74335 0.99852 0.24324 0.0
C1150 C 0.65376 0.01341 0.26438 0.0
C1151 C 0.69 0.03347 0.25858 0.0
H1152 H 0.29338 0.70987 0.991 0.0
H1153 H 0.38939 0.77421 0.01473 0.0
H1154 H 0.32598 0.80854 0.00353 0.0
H1155 H 0.2402 0.81969 0.98887 0.0
H1156 H 0.14225 0.75507 0.96648 0.0
H1157 H 0.208 0.72096 0.97629 0.0
C1158 C 0.30063 0.73147 0.99353 0.0
C1159 C 0.34642 0.7396 0.00337 0.0
C1160 C 0.26273 0.75077 0.98792 0.0
C1161 C 0.35539 0.76755 0.00668 0.0
C1162 C 0.31858 0.78707 0.00061 0.0
C1163 C 0.2333 0.79809 0.98619 0.0
C1164 C 0.18628 0.78973 0.97718 0.0
C1165 C 0.27166 0.77883 0.99155 0.0
C1166 C 0.17756 0.76181 0.97378 0.0
C1167 C 0.21547 0.74244 0.97914 0.0
H1168 H 0.5576 0.77302 0.77725 0.0
H1169 H 0.61618 0.80783 0.72606 0.0
H1170 H 0.54902 0.7824 0.70839 0.0
H1171 H 0.47054 0.75204 0.70775 0.0
H1172 H 0.41113 0.71798 0.75907 0.0
H1173 H 0.47887 0.74304 0.77665 0.0
C1174 C 0.55536 0.77514 0.76224 0.0
C1175 C 0.59143 0.7924 0.75296 0.0
C1176 C 0.51536 0.76133 0.7523 0.0
C1177 C 0.5892 0.79437 0.73347 0.0
C1178 C 0.5503 0.78019 0.72341 0.0
C1179 C 0.47258 0.75013 0.72278 0.0
C1180 C 0.43605 0.73319 0.73212 0.0
C1181 C 0.5126 0.76398 0.73271 0.0
C1182 C 0.43835 0.73126 0.75162 0.0
C1183 C 0.47757 0.74522 0.76163 0.0
H1184 H 0.27168 0.06468 0.73249 0.0
H1185 H 0.38463 1.00496 0.71298 0.0
H1186 H 0.32566 0.96782 0.72327 0.0
H1187 H 0.24119 0.95264 0.73715 0.0
H1188 H 0.12895 0.01247 0.75705 0.0
H1189 H 0.18701 0.04953 0.74616 0.0
C1190 C 0.28318 0.04351 0.73037 0.0
C1191 C 0.33231 0.03747 0.72195 0.0
C1192 C 0.24868 0.02245 0.73596 0.0
C1193 C 0.34732 1.01004 0.71963 0.0
C1194 C 0.31336 0.98888 0.72531 0.0
C1195 C 0.22952 0.97382 0.73912 0.0
C1196 C 0.18087 0.97987 0.74789 0.0
C1197 C 0.26383 0.99488 0.73337 0.0
C1198 C 0.16577 1.00732 0.7501 0.0
C1199 C 0.19929 0.02847 0.74411 0.0
H1200 H 0.52353 0.465 0.4939 0.0
H1201 H 0.61755 0.52723 0.46685 0.0
H1202 H 0.55474 0.56244 0.47726 0.0
H1203 H 0.4713 0.57504 0.49309 0.0
H1204 H 0.37647 0.51253 0.51948 0.0
H1205 H 0.4398 0.47744 0.50933 0.0
C1206 C 0.53032 0.48632 0.49035 0.0
C1207 C 0.57545 0.49362 0.47985 0.0
C1208 C 0.49304 0.50612 0.49574 0.0
C1209 C 0.58395 0.52124 0.47535 0.0
C1210 C 0.54755 0.54125 0.48103 0.0
C1211 C 0.46439 0.55366 0.49647 0.0
C1212 C 0.41894 0.54623 0.50676 0.0
C1213 C 0.50166 0.53385 0.49102 0.0
C1214 C 0.41039 0.51858 0.51116 0.0
C1215 C 0.44703 0.49865 0.50562 0.0
H1216 H 0.76839 0.70457 0.50092 0.0
H1217 H 0.85641 0.76519 0.53182 0.0
H1218 H 0.78968 0.79994 0.524 0.0
H1219 H 0.70678 0.81282 0.5082 0.0
H1220 H 0.62397 0.75329 0.47459 0.0
H1221 H 0.68623 0.71775 0.48454 0.0
C1222 C 0.7731 0.72553 0.50572 0.0
C1223 C 0.81752 0.73264 0.51659 0.0
C1224 C 0.73457 0.74517 0.50122 0.0
C1225 C 0.82319 0.75959 0.52302 0.0
C1226 C 0.7847 0.77925 0.51877 0.0
C1227 C 0.70198 0.79192 0.5033 0.0
C1228 C 0.66 0.78551 0.49109 0.0
C1229 C 0.74016 0.7722 0.50797 0.0
C1230 C 0.65453 0.75853 0.48458 0.0
C1231 C 0.69094 0.73838 0.48991 0.0
H1232 H 0.78312 0.56222 0.75397 0.0
H1233 H 0.87517 0.50384 0.72263 0.0
H1234 H 0.81441 0.46711 0.73194 0.0
H1235 H 0.73334 0.45192 0.74824 0.0
H1236 H 0.63795 0.51076 0.77785 0.0
H1237 H 0.70051 0.54734 0.7694 0.0
C1238 C 0.78997 0.54138 0.74929 0.0
C1239 C 0.83456 0.53556 0.73814 0.0
C1240 C 0.75353 0.52069 0.75402 0.0
C1241 C 0.84259 0.50863 0.7319 0.0
C1242 C 0.80726 0.48773 0.73694 0.0
C1243 C 0.72625 0.47283 0.75273 0.0
C1244 C 0.681 0.47883 0.76346 0.0
C1245 C 0.76244 0.49357 0.74788 0.0
C1246 C 0.67205 0.50586 0.76928 0.0
C1247 C 0.70805 0.52665 0.76461 0.0
H1248 H 0.24149 0.30252 0.46196 0.0
H1249 H 0.12824 0.28035 0.50441 0.0
H1250 H 0.18795 0.24447 0.51563 0.0
H1251 H 0.27404 0.22096 0.51429 0.0
H1252 H 0.38746 0.2427 0.4718 0.0
H1253 H 0.32755 0.2785 0.46039 0.0
C1254 C 0.22995 0.28976 0.47365 0.0
C1255 C 0.1806 0.29409 0.4824 0.0
C1256 C 0.26515 0.26972 0.48032 0.0
C1257 C 0.16569 0.2772 0.49732 0.0
C1258 C 0.20014 0.25696 0.5039 0.0
C1259 C 0.28547 0.23339 0.50243 0.0
C1260 C 0.33491 0.22904 0.49376 0.0
C1261 C 0.25022 0.2533 0.49566 0.0
C1262 C 0.34983 0.24581 0.47878 0.0
C1263 C 0.31529 0.26602 0.47212 0.0
H1264 H 0.258 0.57556 0.2454 0.0
H1265 H 0.36482 0.51207 0.22717 0.0
H1266 H 0.30356 0.47705 0.23908 0.0
H1267 H 0.21888 0.46468 0.25413 0.0
H1268 H 0.11178 0.52819 0.2721 0.0
H1269 H 0.17285 0.5632 0.26003 0.0
C1270 C 0.26773 0.55402 0.24396 0.0
C1271 C 0.31605 0.54635 0.23557 0.0
C1272 C 0.2318 0.53414 0.25043 0.0
C1273 C 0.32846 0.51845 0.23394 0.0
C1274 C 0.29315 0.49847 0.24055 0.0
C1275 C 0.20892 0.48623 0.25535 0.0
C1276 C 0.16077 0.49393 0.26385 0.0
C1277 C 0.24463 0.5061 0.24872 0.0
C1278 C 0.14809 0.52181 0.26528 0.0
C1279 C 0.18325 0.54177 0.25858 0.0
H1280 H 0.02173 0.94688 0.49596 0.0
H1281 H 0.13539 1.00755 0.47802 0.0
H1282 H 0.07746 0.04408 0.48962 0.0
H1283 H 0.99254 0.05865 0.5033 0.0
H1284 H 0.8779 0.99816 0.52069 0.0
H1285 H 0.93694 0.96146 0.50987 0.0
C1286 C 0.03377 0.96812 0.49458 0.0
C1287 C 0.08279 0.97455 0.48615 0.0
C1288 C 0.99954 0.98892 0.50074 0.0
C1289 C 0.0983 1.00209 0.4847 0.0
C1290 C 0.06487 0.02295 0.49111 0.0
C1291 C 0.9807 0.0374 0.50487 0.0
C1292 C 0.93108 0.03102 0.51285 0.0
C1293 C 0.01515 0.01659 0.49891 0.0
C1294 C 0.91565 1.0035 0.51442 0.0
C1295 C 0.94961 0.98259 0.50841 0.0
H1296 H 0.0205 0.30952 0.75126 0.0
H1297 H 0.13065 0.24783 0.76981 0.0
H1298 H 0.07031 0.21177 0.75875 0.0
H1299 H 0.98474 0.19807 0.74494 0.0
H1300 H 0.87415 0.25984 0.72683 0.0
H1301 H 0.93483 0.29586 0.73767 0.0
C1302 C 0.03116 0.28815 0.75297 0.0
C1303 C 0.07987 0.28127 0.76138 0.0
C1304 C 0.99564 0.26771 0.74711 0.0
C1305 C 0.09374 0.25359 0.76317 0.0
C1306 C 0.05895 0.23303 0.75706 0.0
C1307 C 0.97404 0.21945 0.74333 0.0
C1308 C 0.92513 0.22638 0.73508 0.0
C1309 C 0.00958 0.23989 0.74922 0.0
C1310 C 0.91125 0.25406 0.73335 0.0
C1311 C 0.94621 0.27459 0.73933 0.0
H1312 H 0.00968 0.80185 0.27437 0.0
H1313 H 0.12029 0.78704 0.2297 0.0
H1314 H 0.05876 0.75367 0.21592 0.0
H1315 H 0.97136 0.73107 0.21567 0.0
H1316 H 0.86134 0.74513 0.26066 0.0
H1317 H 0.92319 0.77813 0.27462 0.0
C1318 C 0.02048 0.79098 0.26174 0.0
C1319 C 0.06928 0.79681 0.25299 0.0
C1320 C 0.98419 0.77267 0.25363 0.0
C1321 C 0.08321 0.78262 0.23674 0.0
C1322 C 0.04766 0.76394 0.22873 0.0
C1323 C 0.96098 0.74138 0.22855 0.0
C1324 C 0.91197 0.73562 0.2372 0.0
C1325 C 0.99764 0.7593 0.23684 0.0
C1326 C 0.89851 0.74944 0.25366 0.0
C1327 C 0.93425 0.76793 0.26178 0.0
H1328 H 0.06449 0.46094 0.01417 0.0
H1329 H 0.11587 0.5031 0.96461 0.0
H1330 H 0.05283 0.54008 0.97083 0.0
H1331 H 0.98066 0.55961 0.98989 0.0
H1332 H 0.92701 0.51673 0.03884 0.0
H1333 H 0.99187 0.48032 0.0331 0.0
C1334 C 0.06229 0.47851 0.00494 0.0
C1335 C 0.09588 0.47984 0.98931 0.0
C1336 C 0.02442 0.49905 0.00821 0.0
C1337 C 0.09203 0.50223 0.97715 0.0
C1338 C 0.05526 0.52309 0.98052 0.0
C1339 C 0.98286 0.54203 -0.0009 0.0
C1340 C 0.94827 0.5403 0.01442 0.0
C1341 C 0.02087 0.52155 -0.00412 0.0
C1342 C 0.95198 0.5179 0.02658 0.0
C1343 C 0.9896 0.49736 0.02346 0.0
H1344 H 0.28895 0.17126 0.09244 0.0
H1345 H 0.26059 0.0842 0.09174 0.0
H1346 H 0.24005 0.08499 0.12513 0.0
H1347 H 0.2449 0.10957 0.15512 0.0
H1348 H 0.27115 0.19677 0.15567 0.0
H1349 H 0.2763 0.19722 0.12158 0.0
C1350 C 0.27697 0.15266 0.0996 0.0
C1351 C 0.27683 0.12766 0.08998 0.0
C1352 C 0.26489 0.15339 0.11866 0.0
C1353 C 0.26092 0.10361 0.09908 0.0
C1354 C 0.24944 0.10406 0.11812 0.0
C1355 C 0.24969 0.12874 0.14763 0.0
C1356 C 0.25751 0.15312 0.1576 0.0
C1357 C 0.25325 0.12868 0.12815 0.0
C1358 C 0.26443 0.1779 0.14806 0.0
C1359 C 0.26799 0.17807 0.12865 0.0
H1360 H 0.92565 0.17371 0.08758 0.0
H1361 H 0.05034 0.11395 0.08315 0.0
H1362 H 0.05264 0.10939 0.11731 0.0
H1363 H 0.00872 0.11781 0.1479 0.0
H1364 H 0.88147 0.17691 0.15077 0.0
H1365 H 0.89086 0.18654 0.11782 0.0
C1366 C 0.95422 0.16021 0.09419 0.0
C1367 C 0.9875 0.14407 0.08316 0.0
C1368 C 0.95415 0.15729 0.11351 0.0
C1369 C 0.02459 0.12665 0.09159 0.0
C1370 C 0.02542 0.12387 0.11104 0.0
C1371 C 0.98377 0.13307 0.14131 0.0
C1372 C 0.94357 0.1461 0.15165 0.0
C1373 C 0.98881 0.13832 0.1221 0.0
C1374 C 0.9118 0.16607 0.14303 0.0
C1375 C 0.91722 0.17172 0.12419 0.0
H1376 H 0.68991 0.92234 0.83719 0.0
H1377 H 0.80033 0.85518 0.83386 0.0
H1378 H 0.81279 0.85683 0.8678 0.0
H1379 H 0.78004 0.87275 0.89875 0.0
H1380 H 0.66438 0.93764 0.90096 0.0
H1381 H 0.66635 0.94179 0.86711 0.0
C1382 C 0.71736 0.90831 0.84386 0.0
C1383 C 0.74331 0.88831 0.83321 0.0
C1384 C 0.7229 0.9089 0.8632 0.0
C1385 C 0.77968 0.87066 0.84187 0.0
C1386 C 0.78643 0.87148 0.86126 0.0
C1387 C 0.75652 0.8882 0.89172 0.0
C1388 C 0.72196 0.90486 0.90208 0.0
C1389 C 0.75651 0.88979 0.87214 0.0
C1390 C 0.69106 0.92466 0.89307 0.0
C1391 C 0.69206 0.92696 0.87378 0.0
H1392 H 0.9949 0.86651 0.83611 0.0
H1393 H 0.0886 0.94047 0.83484 0.0
H1394 H 0.08341 0.94417 0.86871 0.0
H1395 H 0.06529 0.92236 0.89843 0.0
H1396 H 0.97653 0.84688 0.90071 0.0
H1397 H 0.9651 0.84797 0.86671 0.0
C1398 C 0.0128 0.88372 0.84335 0.0
C1399 C 0.04228 0.90318 0.83331 0.0
C1400 C 0.01087 0.88524 0.8629 0.0
C1401 C 0.06588 0.92536 0.84253 0.0
C1402 C 0.06304 0.9274 0.86182 0.0
C1403 C 0.04246 0.90646 0.89149 0.0
C1404 C 0.02261 0.88434 0.90182 0.0
C1405 C 0.03762 0.90686 0.87213 0.0
C1406 C 0.99227 0.86406 0.8929 0.0
C1407 C 0.98624 0.86457 0.87349 0.0
H1408 H 0.25057 0.67012 0.65043 0.0
H1409 H 0.30321 0.58712 0.65889 0.0
H1410 H 0.29466 0.57767 0.62562 0.0
H1411 H 0.28921 0.59569 0.59386 0.0
H1412 H 0.24541 0.67982 0.58485 0.0
H1413 H 0.23283 0.68639 0.61847 0.0
C1414 C 0.25824 0.64978 0.64496 0.0
C1415 C 0.27754 0.62931 0.65683 0.0
C1416 C 0.25579 0.64495 0.6257 0.0
C1417 C 0.28833 0.60308 0.6498 0.0
C1418 C 0.28382 0.59775 0.63082 0.0
C1419 C 0.27544 0.61516 0.59934 0.0
C1420 C 0.2682 0.63728 0.58727 0.0
C1421 C 0.27021 0.61891 0.61857 0.0
C1422 C 0.25095 0.6626 0.59418 0.0
C1423 C 0.24405 0.66634 0.61332 0.0
H1424 H 0.9904 0.60239 0.59462 0.0
H1425 H 0.96291 0.68944 0.59342 0.0
H1426 H 0.97093 0.69167 0.62737 0.0
H1427 H 0.97197 0.66747 0.65738 0.0
H1428 H 0.00284 0.58076 0.65892 0.0
H1429 H 0.00843 0.57958 0.62479 0.0
C1430 C 0.98783 0.62187 0.60186 0.0
C1431 C 0.976 0.64573 0.59183 0.0
C1432 C 0.99258 0.62292 0.62134 0.0
C1433 C 0.97235 0.67095 0.60107 0.0
C1434 C 0.97655 0.67216 0.62042 0.0
C1435 C 0.98133 0.64853 0.65018 0.0
C1436 C 0.9865 0.6242 0.66037 0.0
C1437 C 0.98463 0.64812 0.63071 0.0
C1438 C 0.99888 0.59969 0.65116 0.0
C1439 C 1.00165 0.599 0.63171 0.0
H1440 H 0.64061 0.36762 0.39577 0.0
H1441 H 0.78075 0.41837 0.39916 0.0
H1442 H 0.79504 0.41285 0.36553 0.0
H1443 H 0.7612 0.39744 0.33461 0.0
H1444 H 0.61769 0.3492 0.3323 0.0
H1445 H 0.6115 0.34958 0.36616 0.0
C1446 C 0.67449 0.37747 0.38924 0.0
C1447 C 0.70894 0.39384 0.39988 0.0
C1448 C 0.68179 0.37458 0.37007 0.0
C1449 C 0.75332 0.40587 0.39123 0.0
C1450 C 0.76142 0.40275 0.37201 0.0
C1451 C 0.72942 0.38657 0.34166 0.0
C1452 C 0.68981 0.37337 0.33116 0.0
C1453 C 0.72508 0.38769 0.3612 0.0
C1454 C 0.64836 0.35956 0.34024 0.0
C1455 C 0.64471 0.35985 0.35954 0.0
H1456 H 0.98215 0.36399 0.40532 0.0
H1457 H 0.0635 0.4403 0.41603 0.0
H1458 H 0.05729 0.45269 0.3833 0.0
H1459 H 0.04322 0.43838 0.35118 0.0
H1460 H 0.96697 0.36137 0.33933 0.0
H1461 H 0.95567 0.35273 0.37285 0.0
C1462 C 0.99725 0.38356 0.40047 0.0
C1463 C 0.02421 0.40097 0.41287 0.0
C1464 C 0.99486 0.39028 0.38142 0.0
C1465 C 0.04358 0.42634 0.40657 0.0
C1466 C 0.04001 0.43348 0.38789 0.0
C1467 C 0.02259 0.42017 0.35603 0.0
C1468 C 0.00579 0.40054 0.34313 0.0
C1469 C 0.01792 0.4151 0.37511 0.0
C1470 C 0.97964 0.3768 0.34925 0.0
C1471 C 0.97372 0.37179 0.36835 0.0
H1472 H 0.78127 0.17672 0.64709 0.0
H1473 H 0.74536 0.09228 0.65895 0.0
H1474 H 0.73269 0.083 0.62567 0.0
H1475 H 0.74988 0.0972 0.59321 0.0
H1476 H 0.79495 0.18074 0.58188 0.0
H1477 H 0.78461 0.19254 0.61475 0.0
C1478 C 0.76887 0.15659 0.64231 0.0
C1479 C 0.76406 0.13517 0.6551 0.0
C1480 C 0.76386 0.1513 0.62323 0.0
C1481 C 0.74884 0.10899 0.64908 0.0
C1482 C 0.742 0.10368 0.63011 0.0
C1483 C 0.75547 0.11812 0.59796 0.0
C1484 C 0.77327 0.13813 0.58543 0.0
C1485 C 0.75195 0.12439 0.61701 0.0
C1486 C 0.78131 0.16514 0.59151 0.0
C1487 C 0.77574 0.17182 0.61026 0.0
H1488 H 0.53083 0.12526 0.57941 0.0
H1489 H 0.41025 0.18769 0.57698 0.0
H1490 H 0.4065 0.18942 0.61091 0.0
H1491 H 0.42799 0.16893 0.64069 0.0
H1492 H 0.54422 0.10442 0.64418 0.0
H1493 H 0.56016 0.10796 0.61047 0.0
C1494 C 0.50497 0.13969 0.58644 0.0
C1495 C 0.47087 0.1564 0.57592 0.0
C1496 C 0.50172 0.13987 0.60605 0.0
C1497 C 0.43679 0.17477 0.58495 0.0
C1498 C 0.43446 0.17564 0.6043 0.0
C1499 C 0.45726 0.15579 0.63413 0.0
C1500 C 0.48407 0.13605 0.64478 0.0
C1501 C 0.4652 0.15758 0.61491 0.0
C1502 C 0.5228 0.11964 0.6362 0.0
C1503 C 0.53166 0.12158 0.61694 0.0
H1504 H 0.15821 0.92337 0.39488 0.0
H1505 H 0.29349 0.87027 0.40034 0.0
H1506 H 0.30119 0.86751 0.36616 0.0
H1507 H 0.26084 0.87576 0.33492 0.0
H1508 H 0.12374 0.92863 0.33106 0.0
H1509 H 0.12551 0.93601 0.36439 0.0
C1510 C 0.19003 0.91163 0.38854 0.0
C1511 C 0.2249 0.89685 0.39986 0.0
C1512 C 0.19329 0.90978 0.36919 0.0
C1513 C 0.26634 0.88187 0.39172 0.0
C1514 C 0.27032 0.88011 0.37224 0.0
C1515 C 0.23189 0.88914 0.34139 0.0
C1516 C 0.19145 0.90106 0.33053 0.0
C1517 C 0.23272 0.89324 0.36083 0.0
C1518 C 0.15456 0.91864 0.33908 0.0
C1519 C 0.15557 0.92302 0.35817 0.0
H1520 H 0.47822 0.89222 0.40201 0.0
H1521 H 0.61094 0.83656 0.40257 0.0
H1522 H 0.61107 0.83493 0.36865 0.0
H1523 H 0.58179 0.85373 0.33931 0.0
H1524 H 0.45394 0.91231 0.33761 0.0
H1525 H 0.4426 0.90808 0.37145 0.0
C1526 C 0.50621 0.87936 0.39458 0.0
C1527 C 0.54474 0.86464 0.40455 0.0
C1528 C 0.50729 0.87931 0.37497 0.0
C1529 C 0.58126 0.84814 0.39501 0.0
C1530 C 0.58142 0.84726 0.37568 0.0
C1531 C 0.55108 0.86546 0.34627 0.0
C1532 C 0.51956 0.88375 0.33606 0.0
C1533 C 0.54597 0.86351 0.36557 0.0
C1534 C 0.47905 0.89825 0.34521 0.0
C1535 C 0.47277 0.89594 0.36456 0.0
H1536 H 0.73852 0.65607 0.09013 0.0
H1537 H 0.84103 0.5855 0.09046 0.0
H1538 H 0.83899 0.58439 0.12446 0.0
H1539 H 0.81815 0.60704 0.15372 0.0
H1540 H 0.71719 0.67823 0.15434 0.0
H1541 H 0.70768 0.6755 0.12033 0.0
C1542 C 0.75897 0.64007 0.09776 0.0
C1543 C 0.78972 0.6208 0.08807 0.0
C1544 C 0.75857 0.63999 0.11736 0.0
C1545 C 0.81692 0.60034 0.09784 0.0
C1546 C 0.81605 0.59983 0.11721 0.0
C1547 C 0.79361 0.6218 0.14642 0.0
C1548 C 0.76934 0.64313 0.15634 0.0
C1549 C 0.78868 0.62014 0.12707 0.0
C1550 C 0.73659 0.66175 0.14687 0.0
C1551 C 0.73135 0.66024 0.12747 0.0
H1552 H 0.42805 0.67981 0.15452 0.0
H1553 H 0.52584 0.6078 0.15905 0.0
H1554 H 0.54444 0.60962 0.12549 0.0
H1555 H 0.52002 0.62766 0.09422 0.0
H1556 H 0.41882 0.69853 0.09055 0.0
H1557 H 0.41497 0.70163 0.12445 0.0
C1558 C 0.45418 0.66479 0.14818 0.0
C1559 C 0.47472 0.64341 0.15899 0.0
C1560 C 0.4638 0.66577 0.12904 0.0
C1561 C 0.50941 0.62437 0.15086 0.0
C1562 C 0.51972 0.62532 0.13169 0.0
C1563 C 0.49864 0.64418 0.10098 0.0
C1564 C 0.46965 0.66286 0.09018 0.0
C1565 C 0.49537 0.64532 0.12052 0.0
C1566 C 0.44139 0.68406 0.0988 0.0
C1567 C 0.43893 0.68572 0.11811 0.0
H1568 H 0.28494 0.3672 0.90665 0.0
H1569 H 0.17694 0.43548 0.90887 0.0
H1570 H 0.16877 0.4351 0.875 0.0
H1571 H 0.18213 0.4114 0.84558 0.0
H1572 H 0.28791 0.34224 0.84245 0.0
H1573 H 0.3079 0.34695 0.87581 0.0
C1574 C 0.26114 0.38247 0.89955 0.0
C1575 C 0.23176 0.40148 0.91001 0.0
C1576 C 0.25544 0.38157 0.88004 0.0
C1577 C 0.20011 0.42089 0.90092 0.0
C1578 C 0.19511 0.42051 0.88162 0.0
C1579 C 0.20995 0.39749 0.85216 0.0
C1580 C 0.23258 0.37613 0.84177 0.0
C1581 C 0.22086 0.40028 0.87116 0.0
C1582 C 0.26961 0.35869 0.85029 0.0
C1583 C 0.28089 0.36134 0.86934 0.0
H1584 H 0.5267 0.42425 0.84293 0.0
H1585 H 0.4937 0.33912 0.83236 0.0
H1586 H 0.48312 0.3307 0.86584 0.0
H1587 H 0.50296 0.34582 0.89787 0.0
H1588 H 0.54783 0.42978 0.90779 0.0
H1589 H 0.53288 0.44087 0.87502 0.0
C1590 C 0.51517 0.40417 0.84805 0.0
C1591 C 0.51065 0.38232 0.83555 0.0
C1592 C 0.51209 0.39932 0.86722 0.0
C1593 C 0.49681 0.35616 0.84199 0.0
C1594 C 0.49127 0.35135 0.86107 0.0
C1595 C 0.50749 0.36667 0.89286 0.0
C1596 C 0.52655 0.38701 0.90492 0.0
C1597 C 0.50167 0.37247 0.87383 0.0
C1598 C 0.53325 0.41393 0.89852 0.0
C1599 C 0.52501 0.4202 0.87982 0.0
H1600 H 0.55265 0.12727 0.00675 0.0
H1601 H 0.55539 0.1583 0.06306 0.0
H1602 H 0.65078 0.14923 0.06493 0.0
H1603 H 0.73278 0.13202 0.05065 0.0
H1604 H 0.72879 0.09962 0.99466 0.0
H1605 H 0.63381 0.10896 0.99282 0.0
C1606 C 0.5742 0.13246 0.01935 0.0
C1607 C 0.54712 0.14379 0.03467 0.0
C1608 C 0.62846 0.12638 0.02053 0.0
C1609 C 0.57545 0.14978 0.05103 0.0
C1610 C 0.62985 0.14441 0.05215 0.0
C1611 C 0.7111 0.1267 0.0381 0.0
C1612 C 0.738 0.11514 0.0228 0.0
C1613 C 0.65662 0.13246 0.03704 0.0
C1614 C 0.70917 0.10848 0.00665 0.0
C1615 C 0.65491 0.11402 0.00553 0.0
H1616 H 0.6878 0.14298 0.18844 0.0
H1617 H 0.6975 0.14408 0.24852 0.0
H1618 H 0.60657 0.12703 0.25063 0.0
H1619 H 0.52469 0.11171 0.2354 0.0
H1620 H 0.51333 0.11322 0.17547 0.0
H1621 H 0.60593 0.12812 0.17325 0.0
C1622 C 0.66988 0.13983 0.20202 0.0
C1623 C 0.69936 0.14483 0.21829 0.0
C1624 C 0.61805 0.12965 0.20313 0.0
C1625 C 0.67554 0.14059 0.23576 0.0
C1626 C 0.62381 0.13051 0.23699 0.0
C1627 C 0.54299 0.11464 0.22186 0.0
C1628 C 0.51289 0.11103 0.20559 0.0
C1629 C 0.59501 0.12463 0.22076 0.0
C1630 C 0.53632 0.11557 0.18813 0.0
C1631 C 0.58883 0.12444 0.18689 0.0
H1632 H 0.29744 0.87802 0.98454 0.0
H1633 H 0.29279 0.91302 0.92936 0.0
H1634 H 0.38756 0.90387 0.92548 0.0
H1635 H 0.4709 0.88532 0.93758 0.0
H1636 H 0.47499 0.84924 0.99248 0.0
H1637 H 0.38047 0.85864 -0.0036 0.0
C1638 C 0.31733 0.88409 0.97178 0.0
C1639 C 0.28834 0.89648 0.95732 0.0
C1640 C 0.37126 0.87796 0.96943 0.0
C1641 C 0.31441 0.90364 0.94072 0.0
C1642 C 0.36842 0.89821 0.93845 0.0
C1643 C 0.45109 0.87921 0.95034 0.0
C1644 C 0.48006 0.8666 0.96472 0.0
C1645 C 0.39704 0.8851 0.95263 0.0
C1646 C 0.45367 0.85893 0.98117 0.0
C1647 C 0.39972 0.86451 0.98349 0.0
H1648 H 0.46935 0.88146 0.74917 0.0
H1649 H 0.47859 0.91289 0.80528 0.0
H1650 H 0.38412 0.90343 0.80981 0.0
H1651 H 0.29959 0.88561 0.79798 0.0
H1652 H 0.29093 0.85334 0.74202 0.0
H1653 H 0.38515 0.863 0.73751 0.0
C1654 C 0.45054 0.88665 0.76229 0.0
C1655 C 0.48078 0.89811 0.77681 0.0
C1656 C 0.39671 0.8804 0.76498 0.0
C1657 C 0.45603 0.90421 0.79386 0.0
C1658 C 0.40217 0.89861 0.7965 0.0
C1659 C 0.31838 0.88034 0.78486 0.0
C1660 C 0.28816 0.86874 0.77037 0.0
C1661 C 0.37231 0.8864 0.78223 0.0
C1662 C 0.31322 0.86222 0.75344 0.0
C1663 C 0.36701 0.86795 0.75078 0.0
H1664 H 0.53352 0.64083 0.55417 0.0
H1665 H 0.5316 0.67273 0.49807 0.0
H1666 H 0.62542 0.66145 0.49451 0.0
H1667 H 0.70712 0.64144 0.50699 0.0
H1668 H 0.70967 0.61036 0.56327 0.0
H1669 H 0.61562 0.6215 0.56684 0.0
C1670 C 0.55368 0.64563 0.54123 0.0
C1671 C 0.52543 0.65758 0.5264 0.0
C1672 C 0.60728 0.63853 0.53912 0.0
C1673 C 0.55231 0.66357 0.50972 0.0
C1674 C 0.60586 0.65688 0.5076 0.0
C1675 C 0.68692 0.63664 0.51994 0.0
C1676 C 0.71519 0.6248 0.53479 0.0
C1677 C 0.63344 0.64393 0.5221 0.0
C1678 C 0.68866 0.61928 0.55159 0.0
C1679 C 0.63506 0.62587 0.55369 0.0
H1680 H 0.55194 0.64425 0.74016 0.0
H1681 H 0.54793 0.61075 0.68451 0.0
H1682 H 0.64299 0.61949 0.68108 0.0
H1683 H 0.72652 0.63696 0.69377 0.0
H1684 H 0.7304 0.6709 0.74934 0.0
H1685 H 0.63529 0.66251 0.75266 0.0
C1686 C 0.572 0.63847 0.72738 0.0
C1687 C 0.54312 0.62661 0.71267 0.0
C1688 C 0.62619 0.64423 0.72532 0.0
C1689 C 0.56945 0.61974 0.69607 0.0
C1690 C 0.62363 0.62493 0.69405 0.0
C1691 C 0.70654 0.64284 0.70655 0.0
C1692 C 0.7356 0.65448 0.72131 0.0
C1693 C 0.65222 0.63741 0.70852 0.0
C1694 C 0.70899 0.66193 0.73775 0.0
C1695 C 0.65471 0.65692 0.73973 0.0
H1696 H 0.29609 0.41144 0.49384 0.0
H1697 H 0.27594 0.42555 0.43497 0.0
H1698 H 0.36793 0.412 0.4293 0.0
H1699 H 0.45211 0.39426 0.44093 0.0
H1700 H 0.47194 0.379 0.49978 0.0
H1701 H 0.38092 0.39383 0.50553 0.0
C1702 C 0.31237 0.41222 0.47985 0.0
C1703 C 0.27991 0.41984 0.46485 0.0
C1704 C 0.36437 0.40329 0.47663 0.0
C1705 C 0.30074 0.42006 0.44671 0.0
C1706 C 0.35294 0.41198 0.44346 0.0
C1707 C 0.4364 0.39382 0.455 0.0
C1708 C 0.46877 0.38552 0.4699 0.0
C1709 C 0.38467 0.403 0.45826 0.0
C1710 C 0.44778 0.3852 0.48804 0.0
C1711 C 0.39597 0.39397 0.49138 0.0
H1712 H 0.273 0.41181 0.25895 0.0
H1713 H 0.28191 0.37247 0.3127 0.0
H1714 H 0.37784 0.38027 0.31351 0.0
H1715 H 0.45824 0.39826 0.29898 0.0
H1716 H 0.44922 0.43917 0.24575 0.0
H1717 H 0.35328 0.43149 0.24496 0.0
C1718 C 0.2961 0.40459 0.27071 0.0
C1719 C 0.27086 0.39121 0.28563 0.0
C1720 C 0.35063 0.40997 0.27135 0.0
C1721 C 0.30081 0.38261 0.30101 0.0
C1722 C 0.35541 0.38722 0.30153 0.0
C1723 C 0.43526 0.40573 0.28726 0.0
C1724 C 0.46072 0.41912 0.27239 0.0
C1725 C 0.38056 0.40103 0.28683 0.0
C1726 C 0.43044 0.42891 0.2574 0.0
C1727 C 0.37573 0.4243 0.25686 0.0
H1728 H 0.22804 0.13069 0.54628 0.0
H1729 H 0.22294 0.08266 0.49576 0.0
H1730 H 0.1274 0.09038 0.49338 0.0
H1731 H 0.04646 0.11223 0.50499 0.0
H1732 H 0.05086 0.15862 0.55618 0.0
H1733 H 0.14649 0.1507 0.55869 0.0
C1734 C 0.20596 0.12165 0.53485 0.0
C1735 C 0.23251 0.10627 0.52116 0.0
C1736 C 0.1514 0.12639 0.53347 0.0
C1737 C 0.20336 0.09449 0.50652 0.0
C1738 C 0.14887 0.09912 0.50504 0.0
C1739 C 0.06851 0.12094 0.51656 0.0
C1740 C 0.04209 0.13635 0.53025 0.0
C1741 C 0.12278 0.11546 0.51825 0.0
C1742 C 0.07069 0.1469 0.54542 0.0
C1743 C 0.12511 0.14221 0.54692 0.0
H1744 H 0.03674 0.13247 0.68467 0.0
H1745 H 0.03588 0.09898 0.74035 0.0
H1746 H 0.13073 0.10819 0.74324 0.0
H1747 H 0.21317 0.12695 0.73041 0.0
H1748 H 0.21519 0.15952 0.67454 0.0
H1749 H 0.1201 0.15016 0.67148 0.0
C1750 C 0.05738 0.12685 0.69736 0.0
C1751 C 0.02908 0.11507 0.71228 0.0
C1752 C 0.11181 0.13265 0.69907 0.0
C1753 C 0.05656 0.10806 0.72864 0.0
C1754 C 0.11076 0.11352 0.73037 0.0
C1755 C 0.19271 0.13239 0.71765 0.0
C1756 C 0.22109 0.14424 0.7028 0.0
C1757 C 0.13855 0.12622 0.7158 0.0
C1758 C 0.19415 0.15059 0.68622 0.0
C1759 C 0.1399 0.14505 0.68442 0.0
H1760 H 0.78678 0.88444 0.46974 0.0
H1761 H 0.79406 0.90037 0.41063 0.0
H1762 H 0.88915 0.89051 0.41075 0.0
H1763 H 0.96924 0.87616 0.42751 0.0
H1764 H 0.96 0.8577 0.48628 0.0
H1765 H 0.86546 0.86838 0.48617 0.0
C1766 C 0.80888 0.88556 0.45682 0.0
C1767 C 0.78309 0.89279 0.44016 0.0
C1768 C 0.86282 0.8788 0.45685 0.0
C1769 C 0.81286 0.89482 0.42366 0.0
C1770 C 0.86712 0.88895 0.42368 0.0
C1771 C 0.94647 0.87412 0.44026 0.0
C1772 C 0.97169 0.86612 0.45688 0.0
C1773 C 0.89228 0.88054 0.44015 0.0
C1774 C 0.94157 0.86367 0.47327 0.0
C1775 C 0.88763 0.87003 0.47327 0.0
H1776 H 0.94806 0.89433 0.29187 0.0
H1777 H 0.94363 0.94109 0.24083 0.0
H1778 H 0.85091 0.92789 0.23618 0.0
H1779 H 0.77165 0.90272 0.24652 0.0
H1780 H 0.77628 0.85702 0.29797 0.0
H1781 H 0.86963 0.8692 0.30209 0.0
C1782 C 0.92681 0.90187 0.27978 0.0
C1783 C 0.95286 0.91863 0.2667 0.0
C1784 C 0.8741 0.89378 0.27701 0.0
C1785 C 0.92452 0.92827 0.25117 0.0
C1786 C 0.87167 0.9205 0.2484 0.0
C1787 C 0.79341 0.89493 0.25843 0.0
C1788 C 0.76728 0.87885 0.27188 0.0
C1789 C 0.84635 0.90295 0.2611 0.0
C1790 C 0.79567 0.86935 0.28741 0.0
C1791 C 0.84879 0.87654 0.28987 0.0
H1792 H 0.05132 0.65641 0.00447 0.0
H1793 H 0.04015 0.67013 0.06372 0.0
H1794 H 0.13468 0.66009 0.06719 0.0
H1795 H 0.21857 0.64481 0.05364 0.0
H1796 H 0.22853 0.62864 0.99457 0.0
H1797 H 0.13547 0.64132 0.99088 0.0
C1798 C 0.06986 0.65782 0.01807 0.0
C1799 C 0.0391 0.66416 0.03381 0.0
C1800 C 0.12338 0.65071 0.02007 0.0
C1801 C 0.0633 0.66541 0.05141 0.0
C1802 C 0.11708 0.65938 0.05342 0.0
C1803 C 0.20032 0.64376 0.03997 0.0
C1804 C 0.2304 0.63565 0.02442 0.0
C1805 C 0.1471 0.65134 0.03791 0.0
C1806 C 0.20616 0.63458 0.0068 0.0
C1807 C 0.15312 0.64211 0.00464 0.0
H1808 H 0.19685 0.6261 0.23842 0.0
H1809 H 0.20285 0.67109 0.18673 0.0
H1810 H 0.10929 0.66045 0.18098 0.0
H1811 H 0.02668 0.63773 0.19044 0.0
H1812 H 0.02249 0.59057 0.24132 0.0
H1813 H 0.11537 0.60185 0.24722 0.0
C1814 C 0.17745 0.63396 0.22604 0.0
C1815 C 0.20642 0.64965 0.21311 0.0
C1816 C 0.12457 0.62672 0.22243 0.0
C1817 C 0.18115 0.65914 0.19693 0.0
C1818 C 0.1279 0.65286 0.19357 0.0
C1819 C 0.04624 0.62962 0.20271 0.0
C1820 C 0.01755 0.61342 0.21545 0.0
C1821 C 0.09947 0.63638 0.20612 0.0
C1822 C 0.04361 0.60298 0.23123 0.0
C1823 C 0.0966 0.60966 0.23473 0.0
H1824 H 0.98739 0.37761 0.94156 0.0
H1825 H 0.98373 0.33292 0.99348 0.0
H1826 H 0.88797 0.33985 -0.00441 0.0
H1827 H 0.80638 0.36026 0.98341 0.0
H1828 H 0.80948 0.40399 0.93117 0.0
H1829 H 0.90518 0.39626 0.92867 0.0
C1830 C 0.96564 0.36909 0.95325 0.0
C1831 C 0.99276 0.35493 0.96741 0.0
C1832 C 0.91086 0.37347 0.95451 0.0
C1833 C 0.96387 0.34389 0.98239 0.0
C1834 C 0.90918 0.34803 0.98368 0.0
C1835 C 0.82811 0.36843 0.97159 0.0
C1836 C 0.80125 0.38309 0.95763 0.0
C1837 C 0.88255 0.36325 0.97001 0.0
C1838 C 0.82956 0.39289 0.94216 0.0
C1839 C 0.88407 0.38832 0.94068 0.0
H1840 H 0.96034 0.37601 0.80665 0.0
H1841 H 0.97436 0.40652 0.75039 0.0
H1842 H 0.88039 0.39751 0.74506 0.0
H1843 H 0.79482 0.38036 0.75609 0.0
H1844 H 0.7793 0.35121 0.81258 0.0
H1845 H 0.8739 0.35949 0.8179 0.0
C1846 C 0.94271 0.38104 0.79331 0.0
C1847 C 0.97437 0.39192 0.77895 0.0
C1848 C 0.88877 0.37541 0.79021 0.0
C1849 C 0.95092 0.39813 0.76169 0.0
C1850 C 0.89727 0.39279 0.75857 0.0
C1851 C 0.81227 0.37537 0.76948 0.0
C1852 C 0.78027 0.36494 0.78387 0.0
C1853 C 0.86605 0.38108 0.77263 0.0
C1854 C 0.80327 0.3591 0.80125 0.0
C1855 C 0.85719 0.36405 0.80435 0.0
H1856 H 0.08807 0.01476 0.02819 0.0
H1857 H 0.15988 0.04666 0.97793 0.0
H1858 H 0.12219 1.00942 0.9602 0.0
H1859 H 0.08298 0.96388 0.95958 0.0
H1860 H 0.0191 0.92815 0.00971 0.0
H1861 H 0.03885 0.97077 0.02676 0.0
C1862 C 0.09493 0.01386 0.01329 0.0
C1863 C 0.12726 0.03395 0.00461 0.0
C1864 C 0.07527 0.99127 0.00316 0.0
C1865 C 0.13483 0.03235 0.98523 0.0
C1866 C 0.11379 1.01057 0.97499 0.0
C1867 C 0.07245 0.96555 0.9742 0.0
C1868 C 0.05058 0.94273 0.98349 0.0
C1869 C 0.08601 0.98942 0.98394 0.0
C1870 C 0.03613 0.94537 0.00228 0.0
C1871 C 0.0481 0.96961 0.01204 0.0
H1872 H 0.22657 0.30122 0.96187 0.0
H1873 H 0.25509 0.33717 0.01576 0.0
H1874 H 0.23563 0.29305 0.03069 0.0
H1875 H 0.19504 0.24741 0.02844 0.0
H1876 H 0.16828 0.21125 0.97426 0.0
H1877 H 0.20228 0.25237 0.95949 0.0
C1878 C 0.23043 0.29908 0.97686 0.0
C1879 C 0.24213 0.32239 0.98774 0.0
C1880 C 0.2174 0.27398 0.9853 0.0
C1881 C 0.24682 0.31949 0.0071 0.0
C1882 C 0.23468 0.29437 0.01562 0.0
C1883 C 0.19688 0.24815 0.01337 0.0
C1884 C 0.17508 0.2265 0.00261 0.0
C1885 C 0.21739 0.27191 0.00488 0.0
C1886 C 0.18043 0.22792 0.98312 0.0
C1887 C 0.20095 0.25146 0.97457 0.0
H1888 H 0.1224 0.34518 0.25026 0.0
H1889 H 0.97537 0.32277 0.27661 0.0
H1890 H 0.99252 0.27423 0.26982 0.0
H1891 H 0.04992 0.23796 0.2558 0.0
H1892 H 0.19819 0.26172 0.23063 0.0
H1893 H 0.17995 0.30974 0.23721 0.0
C1894 C 0.09302 0.32973 0.25379 0.0
C1895 C 0.04648 0.3376 0.26316 0.0
C1896 C 0.10365 0.30202 0.25009 0.0
C1897 C 0.00995 0.31732 0.26849 0.0
C1898 C 0.02025 0.28955 0.26484 0.0
C1899 C 0.07822 0.25374 0.25195 0.0
C1900 C 0.12582 0.24629 0.24302 0.0
C1901 C 0.067 0.2816 0.25562 0.0
C1902 C 0.1621 0.26685 0.23796 0.0
C1903 C 0.15125 0.29438 0.24146 0.0
H1904 H 0.14373 0.02073 0.2027 0.0
H1905 H 0.13604 0.06507 0.25474 0.0
H1906 H 0.17371 0.02595 0.27094 0.0
H1907 H 0.19838 0.97715 0.2709 0.0
H1908 H 0.20869 0.93327 0.21899 0.0
H1909 H 0.18359 0.97485 0.20198 0.0
C1910 C 0.15067 0.02214 0.21757 0.0
C1911 C 0.13365 0.04552 0.22758 0.0
C1912 C 0.17371 0.9997 0.22678 0.0
C1913 C 0.14484 0.04693 0.24674 0.0
C1914 C 0.16736 0.0246 0.25603 0.0
C1915 C 0.19729 0.97707 0.25578 0.0
C1916 C 0.20591 0.95234 0.24614 0.0
C1917 C 0.18039 1.00062 0.24628 0.0
C1918 C 0.20357 0.95224 0.22663 0.0
C1919 C 0.18791 0.97584 0.21698 0.0
H1920 H 0.95036 0.05073 0.02917 0.0
H1921 H 0.01727 0.08293 0.97844 0.0
H1922 H 0.99954 0.03909 0.96271 0.0
H1923 H 0.95025 0.99521 0.96222 0.0
H1924 H 0.87699 0.96583 0.01286 0.0
H1925 H 0.91351 1.00438 0.02986 0.0
C1926 C 0.96232 0.04791 0.01477 0.0
C1927 C 0.98425 0.07014 0.00486 0.0
C1928 C 0.95031 0.02316 0.00576 0.0
C1929 C 1.00026 0.06616 0.98634 0.0
C1930 C 0.98944 0.04122 0.97731 0.0
C1931 C 0.94309 0.9969 0.97707 0.0
C1932 C 0.91035 0.97737 0.98609 0.0
C1933 C 0.96215 0.02008 0.98668 0.0
C1934 C 0.90232 0.97988 0.00539 0.0
C1935 C 0.92264 1.00236 0.01516 0.0
H1936 H 0.84532 0.76334 0.96152 0.0
H1937 H 0.86959 0.80671 0.01333 0.0
H1938 H 0.83634 0.76741 0.0305 0.0
H1939 H 0.81125 0.71866 0.03105 0.0
H1940 H 0.78418 0.67557 0.97953 0.0
H1941 H 0.80496 0.71741 0.96197 0.0
C1942 C 0.84307 0.76451 0.97657 0.0
C1943 C 0.86352 0.78772 0.98605 0.0
C1944 C 0.82272 0.74188 0.98643 0.0
C1945 C 0.85809 0.78879 0.00553 0.0
C1946 C 0.83807 0.76633 0.01543 0.0
C1947 C 0.80831 0.71869 0.01597 0.0
C1948 C 0.79653 0.69406 0.00656 0.0
C1949 C 0.82204 0.74247 0.00605 0.0
C1950 C 0.79261 0.69431 0.98707 0.0
C1951 C 0.8055 0.71811 0.97706 0.0
H1952 H 0.92938 0.76723 0.7805 0.0
H1953 H 0.90644 0.80296 0.726 0.0
H1954 H 0.93995 0.76151 0.71162 0.0
H1955 H 0.965 0.71295 0.71428 0.0
H1956 H 0.98963 0.67717 0.76841 0.0
H1957 H 0.96871 0.7213 0.78314 0.0
C1958 C 0.93194 0.76631 0.76544 0.0
C1959 C 0.91172 0.78809 0.75446 0.0
C1960 C 0.95232 0.74234 0.75717 0.0
C1961 C 0.91762 0.78631 0.73501 0.0
C1962 C 0.93783 0.76256 0.72669 0.0
C1963 C 0.96746 0.71509 0.72931 0.0
C1964 C 0.97883 0.69186 0.74028 0.0
C1965 C 0.95354 0.74015 0.73761 0.0
C1966 C 0.98174 0.69479 0.75968 0.0
C1967 C 0.96878 0.71991 0.76808 0.0
H1968 H 0.81503 0.05366 0.70859 0.0
H1969 H 0.75623 0.08652 0.76034 0.0
H1970 H 0.77407 0.04249 0.77576 0.0
H1971 H 0.82275 0.99853 0.77552 0.0
H1972 H 0.89011 0.96925 0.72384 0.0
H1973 H 0.85125 1.00746 0.70738 0.0
C1974 C 0.80502 0.05099 0.72319 0.0
C1975 C 0.78551 0.07341 0.73346 0.0
C1976 C 0.8176 0.02628 0.732 0.0
C1977 C 0.77157 0.0696 0.7522 0.0
C1978 C 0.78243 0.04455 0.76102 0.0
C1979 C 0.82809 1.00017 0.76057 0.0
C1980 C 0.85995 0.98079 0.75109 0.0
C1981 C 0.80803 0.02329 0.75124 0.0
C1982 C 0.86558 0.98318 0.73168 0.0
C1983 C 0.84394 1.00549 0.7222 0.0
H1984 H 0.08805 0.51956 0.53665 0.0
H1985 H 0.08885 0.56026 0.48321 0.0
H1986 H 0.05117 0.51949 0.46877 0.0
H1987 H 0.03046 0.47023 0.47059 0.0
H1988 H 0.03194 0.4293 0.52369 0.0
H1989 H 0.05313 0.47276 0.53921 0.0
C1990 C 0.07955 0.51985 0.52185 0.0
C1991 C 0.09433 0.54278 0.51094 0.0
C1992 C 0.05738 0.4963 0.51364 0.0
C1993 C 0.08138 0.54263 0.49189 0.0
C1994 C 0.05896 0.51933 0.48362 0.0
C1995 C 0.0332 0.47114 0.48567 0.0
C1996 C 0.02915 0.44672 0.49606 0.0
C1997 C 0.04858 0.49577 0.49425 0.0
C1998 C 0.03364 0.44791 0.51549 0.0
C1999 C 0.047 0.47266 0.52427 0.0
H2000 H 0.15069 0.72657 0.48708 0.0
H2001 H 0.13869 0.7604 0.54251 0.0
H2002 H 0.177 0.80324 0.53186 0.0
H2003 H 0.20491 0.83343 0.50619 0.0
H2004 H 0.21525 0.8007 0.45065 0.0
H2005 H 0.18756 0.75555 0.46188 0.0
C2006 C 0.15592 0.74333 0.49679 0.0
C2007 C 0.14035 0.74016 0.51552 0.0
C2008 C 0.17818 0.76836 0.49056 0.0
C2009 C 0.14976 0.76202 0.52797 0.0
C2010 C 0.17172 0.78674 0.52191 0.0
C2011 C 0.20324 0.81611 0.49673 0.0
C2012 C 0.21316 0.82026 0.4777 0.0
C2013 C 0.18528 0.79039 0.50319 0.0
C2014 C 0.20887 0.79783 0.46546 0.0
C2015 C 0.19206 0.77212 0.47181 0.0
H2016 H 0.09235 0.75486 0.71123 0.0
H2017 H 0.12042 0.71555 0.76423 0.0
H2018 H 0.08662 0.75563 0.78031 0.0
H2019 H 0.06071 0.80429 0.77941 0.0
H2020 H 0.02859 0.84295 0.72669 0.0
H2021 H 0.05035 0.8002 0.71042 0.0
C2022 C 0.09076 0.75473 0.72631 0.0
C2023 C 0.11277 0.73258 0.73641 0.0
C2024 C 0.07008 0.77778 0.73555 0.0
C2025 C 0.10798 0.73276 0.75593 0.0
C2026 C 0.08763 0.75566 0.76522 0.0
C2027 C 0.05682 0.80302 0.76438 0.0
C2028 C 0.04336 0.82667 0.75421 0.0
C2029 C 0.07052 0.77865 0.75518 0.0
C2030 C 0.03837 0.82492 0.73479 0.0
C2031 C 0.0517 0.80062 0.7255 0.0
H2032 H 0.14168 0.42601 0.74272 0.0
H2033 H 0.27403 0.44971 0.77698 0.0
H2034 H 0.25786 0.49804 0.76944 0.0
H2035 H 0.20598 0.53397 0.75278 0.0
H2036 H 0.0705 0.50898 0.72023 0.0
H2037 H 0.08932 0.46094 0.72676 0.0
C2038 C 0.16875 0.4417 0.74774 0.0
C2039 C 0.21032 0.43425 0.75975 0.0
C2040 C 0.15893 0.46932 0.74353 0.0
C2041 C 0.2435 0.45482 0.76695 0.0
C2042 C 0.23401 0.48249 0.76276 0.0
C2043 C 0.18056 0.51792 0.74731 0.0
C2044 C 0.13662 0.52492 0.7362 0.0
C2045 C 0.19169 0.49008 0.75113 0.0
C2046 C 0.10416 0.50401 0.72899 0.0
C2047 C 0.11519 0.47654 0.73256 0.0
H2048 H 0.90382 0.48336 0.49974 0.0
H2049 H 0.88943 0.51944 0.44504 0.0
H2050 H 0.92544 0.56227 0.4566 0.0
H2051 H 0.94944 0.59202 0.48311 0.0
H2052 H 0.9611 0.5568 0.5379 0.0
H2053 H 0.93751 0.51172 0.52556 0.0
C2054 C 0.9077 0.50058 0.49035 0.0
C2055 C 0.89176 0.49803 0.47162 0.0
C2056 C 0.92808 0.52568 0.49715 0.0
C2057 C 0.90048 0.5205 0.4596 0.0
C2058 C 0.92109 0.54526 0.46619 0.0
C2059 C 0.94901 0.57423 0.49215 0.0
C2060 C 0.95772 0.57766 0.51132 0.0
C2061 C 0.93374 0.5484 0.48503 0.0
C2062 C 0.95534 0.55455 0.52301 0.0
C2063 C 0.94097 0.52883 0.51602 0.0
H2064 H 0.81765 0.28583 0.50035 0.0
H2065 H 0.95797 0.26342 0.46971 0.0
H2066 H 0.93909 0.21493 0.47476 0.0
H2067 H 0.88428 0.17884 0.48869 0.0
H2068 H 0.74441 0.20013 0.51973 0.0
H2069 H 0.7606 0.2489 0.51365 0.0
C2070 C 0.84386 0.27021 0.49485 0.0
C2071 C 0.88945 0.27806 0.48487 0.0
C2072 C 0.83196 0.24218 0.49746 0.0
C2073 C 0.92331 0.2578 0.47776 0.0
C2074 C 0.9121 0.23007 0.48041 0.0
C2075 C 0.85597 0.19414 0.49332 0.0
C2076 C 0.81187 0.1859 0.50394 0.0
C2077 C 0.86641 0.22202 0.49013 0.0
C2078 C 0.77687 0.20592 0.51068 0.0
C2079 C 0.7869 0.23383 0.50753 0.0
H2080 H 0.92951 0.29465 0.23795 0.0
H2081 H 0.80442 0.2704 0.27547 0.0
H2082 H 0.82454 0.22218 0.27002 0.0
H2083 H 0.87474 0.18688 0.25362 0.0
H2084 H 1.0 0.20971 0.21595 0.0
H2085 H 0.98469 0.25835 0.22289 0.0
C2086 C 0.90677 0.27868 0.24481 0.0
C2087 C 0.86534 0.28588 0.25697 0.0
C2088 C 0.91958 0.25081 0.24196 0.0
C2089 C 0.83618 0.26519 0.26593 0.0
C2090 C 0.84802 0.23767 0.26298 0.0
C2091 C 0.90016 0.20251 0.24757 0.0
C2092 C 0.93952 0.19477 0.23477 0.0
C2093 C 0.88969 0.23024 0.2511 0.0
C2094 C 0.97094 0.21516 0.22643 0.0
C2095 C 0.96113 0.24298 0.23002 0.0
H2096 H 0.78764 0.55835 0.21416 0.0
H2097 H 0.75942 0.60033 0.26599 0.0
H2098 H 0.78251 0.55857 0.28324 0.0
H2099 H 0.82371 0.51295 0.28332 0.0
H2100 H 0.85029 0.47099 0.23109 0.0
H2101 H 0.8163 0.51029 0.2143 0.0
C2102 C 0.78474 0.55802 0.22925 0.0
C2103 C 0.7715 0.58227 0.23883 0.0
C2104 C 0.80026 0.53442 0.23897 0.0
C2105 C 0.76842 0.58178 0.25832 0.0
C2106 C 0.78279 0.55808 0.26815 0.0
C2107 C 0.8218 0.51205 0.26825 0.0
C2108 C 0.84294 0.48919 0.2586 0.0
C2109 C 0.80087 0.53467 0.25859 0.0
C2110 C 0.83824 0.4886 0.23908 0.0
C2111 C 0.81775 0.51106 0.22938 0.0
H2112 H 0.57206 0.96304 0.45846 0.0
H2113 H 0.50221 0.9309 0.5087 0.0
H2114 H 0.5233 0.97388 0.52501 0.0
H2115 H 0.57439 0.01716 0.52597 0.0
H2116 H 0.65126 0.04592 0.47576 0.0
H2117 H 0.61333 1.00831 0.45847 0.0
C2118 C 0.56007 0.96575 0.47286 0.0
C2119 C 0.53604 0.94379 0.48243 0.0
C2120 C 0.57432 0.98988 0.48224 0.0
C2121 C 0.52047 0.94754 0.50102 0.0
C2122 C 0.53337 0.97194 0.51039 0.0
C2123 C 0.58244 0.01551 0.51118 0.0
C2124 C 0.61625 0.03484 0.50241 0.0
C2125 C 0.56239 0.99275 0.50132 0.0
C2126 C 0.62521 0.03222 0.48315 0.0
C2127 C 0.60393 1.01022 0.47315 0.0
H2128 H 0.6986 0.23733 0.48152 0.0
H2129 H 0.56557 0.25814 0.51647 0.0
H2130 H 0.58545 0.3068 0.51296 0.0
H2131 H 0.63844 0.34358 0.49924 0.0
H2132 H 0.7701 0.32437 0.46346 0.0
H2133 H 0.75443 0.27518 0.46835 0.0
C2134 C 0.67401 0.25264 0.48823 0.0
C2135 C 0.63028 0.24424 0.49907 0.0
C2136 C 0.68646 0.28083 0.48644 0.0
C2137 C 0.5988 0.26417 0.5078 0.0
C2138 C 0.61061 0.29198 0.50602 0.0
C2139 C 0.66519 0.3286 0.4932 0.0
C2140 C 0.70662 0.33763 0.48157 0.0
C2141 C 0.65447 0.30054 0.49549 0.0
C2142 C 0.73956 0.31799 0.47316 0.0
C2143 C 0.72963 0.28985 0.47558 0.0
H2144 H 0.57038 0.24968 0.71257 0.0
H2145 H 0.63332 0.21794 0.76426 0.0
H2146 H 0.59704 0.25654 0.7809 0.0
H2147 H 0.56414 0.30334 0.78013 0.0
H2148 H 0.51 0.33873 0.72856 0.0
H2149 H 0.52527 0.29475 0.71264 0.0
C2150 C 0.5755 0.2509 0.72754 0.0
C2151 C 0.60536 0.23057 0.73694 0.0
C2152 C 0.55687 0.27426 0.73705 0.0
C2153 C 0.61047 0.23253 0.7564 0.0
C2154 C 0.5902 0.25507 0.76602 0.0
C2155 C 0.5547 0.30132 0.76544 0.0
C2156 C 0.53722 0.3244 0.7554 0.0
C2157 C 0.56585 0.27659 0.75636 0.0
C2158 C 0.52386 0.32134 0.73654 0.0
C2159 C 0.53322 0.29628 0.72744 0.0
H2160 H 0.68455 0.01686 0.70569 0.0
H2161 H 0.61283 0.04926 0.75578 0.0
H2162 H 0.64871 0.0117 0.77357 0.0
H2163 H 0.68708 0.96595 0.77434 0.0
H2164 H 0.75241 0.93018 0.7245 0.0
H2165 H 0.73291 0.97264 0.7073 0.0
C2166 C 0.67733 0.01601 0.72057 0.0
C2167 C 0.64565 0.03642 0.72917 0.0
C2168 C 0.69622 0.9933 0.73077 0.0
C2169 C 0.6375 0.03476 0.74852 0.0
C2170 C 0.6575 0.01279 0.75881 0.0
C2171 C 0.69804 0.96759 0.75976 0.0
C2172 C 0.7204 0.94479 0.75062 0.0
C2173 C 0.68501 0.9915 0.74996 0.0
C2174 C 0.73515 0.94738 0.73185 0.0
C2175 C 0.72333 0.97155 0.722 0.0
H2176 H 0.43807 0.9964 0.45903 0.0
H2177 H 0.36833 0.96881 0.51074 0.0
H2178 H 0.40736 1.00751 0.52689 0.0
H2179 H 0.44707 0.05316 0.52546 0.0
H2180 H 0.50881 0.08409 0.47358 0.0
H2181 H 0.48851 0.04003 0.45852 0.0
C2182 C 0.43208 0.99852 0.47392 0.0
C2183 C 0.39986 0.9793 0.48351 0.0
C2184 C 0.45283 0.02178 0.48308 0.0
C2185 C 0.39325 0.98251 0.50284 0.0
C2186 C 0.4151 1.00508 0.51212 0.0
C2187 C 0.45757 0.04999 0.51095 0.0
C2188 C 0.479 0.07197 0.5006 0.0
C2189 C 0.44306 0.02532 0.50225 0.0
C2190 C 0.49268 0.06753 0.48189 0.0
C2191 C 0.48007 0.04248 0.47322 0.0
H2192 H 0.3287 0.79699 0.50341 0.0
H2193 H 0.34891 0.76734 0.44718 0.0
H2194 H 0.31469 0.72276 0.45613 0.0
H2195 H 0.29083 0.68991 0.48079 0.0
H2196 H 0.27178 0.7188 0.53704 0.0
H2197 H 0.29319 0.76552 0.52729 0.0
C2198 C 0.32599 0.78077 0.49315 0.0
C2199 C 0.34298 0.78553 0.47478 0.0
C2200 C 0.30632 0.7548 0.49839 0.0
C2201 C 0.33669 0.76443 0.46151 0.0
C2202 C 0.31716 0.73873 0.46659 0.0
C2203 C 0.28912 0.70669 0.49069 0.0
C2204 C 0.27917 0.70108 0.50952 0.0
C2205 C 0.30313 0.73341 0.48508 0.0
C2206 C 0.2786 0.72282 0.52238 0.0
C2207 C 0.29176 0.74945 0.51688 0.0
H2208 H 0.4347 0.72338 0.21452 0.0
H2209 H 0.45476 0.68566 0.26827 0.0
H2210 H 0.43399 0.72945 0.28354 0.0
H2211 H 0.39659 0.7761 0.28127 0.0
H2212 H 0.37922 0.81377 0.22722 0.0
H2213 H 0.41211 0.77226 0.21237 0.0
C2214 C 0.43591 0.72498 0.22959 0.0
C2215 C 0.44587 0.70139 0.24031 0.0
C2216 C 0.42273 0.74992 0.23816 0.0
C2217 C 0.44759 0.70361 0.25977 0.0
C2218 C 0.43496 0.72854 0.26846 0.0
C2219 C 0.4005 0.77544 0.26623 0.0
C2220 C 0.38233 0.79768 0.25534 0.0
C2221 C 0.42027 0.7515 0.25777 0.0
C2222 C 0.38939 0.79655 0.23594 0.0
C2223 C 0.40903 0.77287 0.22743 0.0
H2224 H 0.28011 0.08738 0.2625 0.0
H2225 H 0.2671 0.05765 0.20624 0.0
H2226 H 0.29391 0.01192 0.21618 0.0
H2227 H 0.3297 0.98152 0.24037 0.0
H2228 H 0.34415 0.01189 0.29668 0.0
H2229 H 0.30592 0.05529 0.28741 0.0
C2230 C 0.28044 0.07052 0.25264 0.0
C2231 C 0.27069 0.07577 0.23374 0.0
C2232 C 0.29721 0.04429 0.2584 0.0
C2233 C 0.27334 0.05394 0.22096 0.0
C2234 C 0.2898 0.0279 0.22657 0.0
C2235 C 0.32542 0.99762 0.2506 0.0
C2236 C 0.34187 0.99331 0.2691 0.0
C2237 C 0.30363 0.02302 0.24517 0.0
C2238 C 0.33264 0.01433 0.28225 0.0
C2239 C 0.31073 0.03941 0.27699 0.0
H2240 H 0.57746 0.53261 0.99345 0.0
H2241 H 0.72672 0.51018 0.01826 0.0
H2242 H 0.70899 0.46195 0.01219 0.0
H2243 H 0.65209 0.42602 -0.00073 0.0
H2244 H 0.50351 0.44714 0.97364 0.0
H2245 H 0.51986 0.49579 0.98025 0.0
C2246 C 0.60596 0.51706 -0.0026 0.0
C2247 C 0.65377 0.52494 0.00601 0.0
C2248 C 0.59492 0.48907 0.99412 0.0
C2249 C 0.69045 0.5047 0.01115 0.0
C2250 C 0.67988 0.47705 0.00797 0.0
C2251 C 0.62205 0.44118 -0.00401 0.0
C2252 C 0.57563 0.43294 0.98668 0.0
C2253 C 0.63211 0.46898 -0.00038 0.0
C2254 C 0.53816 0.45286 0.98167 0.0
C2255 C 0.54793 0.48071 0.98522 0.0
H2256 H 0.67041 0.72652 0.98574 0.0
H2257 H 0.6793 0.75657 0.04228 0.0
H2258 H 0.71584 0.79954 0.03135 0.0
H2259 H 0.73219 0.83175 0.00556 0.0
H2260 H 0.71934 0.80296 0.94906 0.0
H2261 H 0.69772 0.75686 0.96008 0.0
C2262 C 0.6794 0.74245 -0.00429 0.0
C2263 C 0.66939 0.73828 0.01481 0.0
C2264 C 0.69992 0.76772 0.98931 0.0
C2265 C 0.68524 0.75895 0.02744 0.0
C2266 C 0.70616 0.78383 0.02122 0.0
C2267 C 0.72672 0.81509 -0.00427 0.0
C2268 C 0.72776 0.82064 0.97656 0.0
C2269 C 0.71206 0.78884 0.00217 0.0
C2270 C 0.71932 0.79903 0.96392 0.0
C2271 C 0.7061 0.77277 0.97021 0.0
H2272 H 0.57404 0.76057 0.21026 0.0
H2273 H 0.59275 0.72113 0.26367 0.0
H2274 H 0.55532 0.76118 0.27909 0.0
H2275 H 0.52944 0.80968 0.27773 0.0
H2276 H 0.51171 0.84966 0.22466 0.0
H2277 H 0.53409 0.80668 0.20867 0.0
C2278 C 0.56944 0.76049 0.22527 0.0
C2279 C 0.58909 0.73822 0.23583 0.0
C2280 C 0.54746 0.78366 0.23407 0.0
C2281 C 0.58126 0.73842 0.25521 0.0
C2282 C 0.55904 0.76125 0.26404 0.0
C2283 C 0.52863 0.80867 0.26263 0.0
C2284 C 0.5188 0.83272 0.25235 0.0
C2285 C 0.54384 0.78432 0.25367 0.0
C2286 C 0.51828 0.83133 0.23284 0.0
C2287 C 0.5321 0.80688 0.22375 0.0
H2288 H 0.69688 0.47466 0.28011 0.0
H2289 H 0.7244 0.43863 0.22621 0.0
H2290 H 0.70097 0.48206 0.21118 0.0
H2291 H 0.65909 0.52715 0.21349 0.0
H2292 H 0.63252 0.56339 0.26766 0.0
H2293 H 0.66854 0.5228 0.28244 0.0
C2294 C 0.69984 0.47674 0.26509 0.0
C2295 C 0.7127 0.45363 0.25424 0.0
C2296 C 0.6842 0.50134 0.25662 0.0
C2297 C 0.71568 0.45629 0.23482 0.0
C2298 C 0.70106 0.48093 0.22626 0.0
C2299 C 0.66139 0.52654 0.22856 0.0
C2300 C 0.63975 0.54811 0.23934 0.0
C2301 C 0.68304 0.50315 0.23703 0.0
C2302 C 0.64511 0.54679 0.25882 0.0
C2303 C 0.66668 0.52358 0.26736 0.0
H2304 H 0.45467 0.48251 0.00892 0.0
H2305 H 0.32685 0.50732 0.97285 0.0
H2306 H 0.34669 0.55539 0.9789 0.0
H2307 H 0.39956 0.59051 0.99444 0.0
H2308 H 0.5282 0.56753 0.03053 0.0
H2309 H 0.51062 0.5188 0.02405 0.0
C2310 C 0.4312 0.49856 0.00254 0.0
C2311 C 0.38906 0.49145 0.99057 0.0
C2312 C 0.44407 0.52644 0.00565 0.0
C2313 C 0.3589 0.51232 0.98231 0.0
C2314 C 0.37071 0.53981 0.98556 0.0
C2315 C 0.42495 0.57482 0.00036 0.0
C2316 C 0.4662 0.58257 0.01245 0.0
C2317 C 0.41349 0.54711 -0.003 0.0
C2318 C 0.4976 0.56208 0.0206 0.0
C2319 C 0.48668 0.53423 0.01721 0.0
H2320 H 0.32808 0.21282 0.03263 0.0
H2321 H 0.29417 0.17102 0.98111 0.0
H2322 H 0.31493 0.213 0.96366 0.0
H2323 H 0.3553 0.25902 0.96314 0.0
H2324 H 0.38518 0.30117 0.01504 0.0
H2325 H 0.35396 0.26143 0.03224 0.0
C2326 C 0.324 0.21312 0.01759 0.0
C2327 C 0.31017 0.18884 0.00811 0.0
C2328 C 0.337 0.23705 0.00773 0.0
C2329 C 0.3045 0.18948 0.98868 0.0
C2330 C 0.31714 0.21337 0.97873 0.0
C2331 C 0.35467 0.2598 0.97822 0.0
C2332 C 0.37609 0.28278 0.98768 0.0
C2333 C 0.33546 0.23692 0.9881 0.0
C2334 C 0.37288 0.28338 0.00723 0.0
C2335 C 0.35405 0.26069 0.01715 0.0
H2336 H 0.42906 0.21435 0.70596 0.0
H2337 H 0.49863 0.17495 0.75375 0.0
H2338 H 0.48232 0.21637 0.77247 0.0
H2339 H 0.43467 0.26051 0.77616 0.0
H2340 H 0.35863 0.29653 0.72807 0.0
H2341 H 0.39257 0.26034 0.70863 0.0
C2342 C 0.44166 0.21498 0.72041 0.0
C2343 C 0.46404 0.19143 0.72857 0.0
C2344 C 0.43061 0.23834 0.7311 0.0
C2345 C 0.48108 0.19272 0.74717 0.0
C2346 C 0.47117 0.21631 0.7579 0.0
C2347 C 0.42612 0.26076 0.76136 0.0
C2348 C 0.39366 0.28173 0.75384 0.0
C2349 C 0.44375 0.23877 0.75018 0.0
C2350 C 0.3839 0.28155 0.73455 0.0
C2351 C 0.4028 0.26036 0.72329 0.0
H2352 H 0.30337 0.55864 0.71583 0.0
H2353 H 0.31521 0.60289 0.76758 0.0
H2354 H 0.34159 0.56069 0.78365 0.0
H2355 H 0.37291 0.51327 0.78181 0.0
H2356 H 0.3574 0.46823 0.73025 0.0
H2357 H 0.32195 0.509 0.71509 0.0
C2358 C 0.30987 0.55872 0.73077 0.0
C2359 C 0.30691 0.58363 0.74063 0.0
C2360 C 0.32638 0.53461 0.7397 0.0
C2361 C 0.31617 0.58381 0.75987 0.0
C2362 C 0.33222 0.55981 0.76892 0.0
C2363 C 0.36149 0.51213 0.76727 0.0
C2364 C 0.36986 0.48773 0.75706 0.0
C2365 C 0.33953 0.53542 0.75879 0.0
C2366 C 0.35393 0.48683 0.73831 0.0
C2367 C 0.33272 0.5101 0.72969 0.0
loop_
_geom_bond_atom_site_label_1
_geom_bond_atom_site_label_2
_geom_bond_distance
_geom_bond_site_symmetry_2
_ccdc_geom_bond_type
Co0 O3 1.970 . S
Co0 N17 1.989 . S
Co0 O25 1.967 . S
Co0 O32 1.920 . S
Co1 O4 1.966 . S
Co1 N10 2.022 . S
Co1 N18 1.993 . S
Co1 O26 1.941 . S
C2 O3 1.258 . S
C2 O4 1.263 . S
O3 Co0 1.970 . S
O3 C2 1.258 . S
O4 Co1 1.966 . S
O4 C2 1.263 . S
C5 O6 1.235 . S
C5 O32 1.289 . S
O6 C5 1.235 . S
C7 C9 1.400 . S
C7 N10 1.351 . S
C7 C12 1.501 1_554 S
C8 C9 1.387 . S
C8 N11 1.341 . S
C9 C7 1.400 . S
C9 C8 1.387 . S
N10 Co1 2.022 . S
N10 C7 1.351 . S
N10 N11 1.365 . S
N11 C8 1.341 . S
N11 N10 1.365 . S
N11 H31 0.862 . S
C12 C7 1.501 1_556 S
C12 H13 0.961 1_556 S
C12 H14 0.961 . S
C12 H15 0.960 . S
H13 C12 0.961 1_554 S
H14 C12 0.961 . S
H15 C12 0.960 . S
C16 N17 1.342 . S
C16 C20 1.401 . S
C16 C21 1.499 . S
N17 Co0 1.989 . S
N17 C16 1.342 . S
N17 N18 1.388 . S
N18 Co1 1.993 . S
N18 N17 1.388 . S
N18 C19 1.346 . S
C19 N18 1.346 . S
C19 C20 1.396 . S
C19 C29 1.510 . S
C20 C16 1.401 . S
C20 C19 1.396 . S
C21 C16 1.499 . S
C21 H22 0.959 . S
C21 H23 0.960 . S
C21 H24 0.961 . S
H22 C21 0.959 . S
H23 C21 0.960 . S
H24 C21 0.961 . S
O25 Co0 1.967 . S
O25 C33 1.258 . S
O26 Co1 1.941 . S
O26 C33 1.266 . S
H27 C29 0.959 . S
H28 C29 0.961 1_556 S
C29 C19 1.510 . S
C29 H27 0.959 . S
C29 H28 0.961 1_554 S
C29 H30 0.960 . S
H30 C29 0.960 . S
H31 N11 0.862 . S
O32 Co0 1.920 . S
O32 C5 1.289 . S
C33 O25 1.258 . S
C33 O26 1.266 . S
Co34 O37 1.970 . S
Co34 N51 1.989 . S
Co34 O59 1.967 . S
Co34 O66 1.920 . S
Co35 O38 1.966 . S
Co35 N44 2.022 1_655 S
Co35 N52 1.993 . S
Co35 O60 1.941 . S
C36 O37 1.258 . S
C36 O38 1.263 . S
O37 Co34 1.970 . S
O37 C36 1.258 . S
O38 Co35 1.966 . S
O38 C36 1.263 . S
C39 O40 1.235 . S
C39 O66 1.289 . S
O40 C39 1.235 . S
C41 C43 1.400 . S
C41 N44 1.351 . S
C41 C46 1.501 1_554 S
C42 C43 1.387 . S
C42 N45 1.341 . S
C43 C41 1.400 . S
C43 C42 1.387 . S
N44 Co35 2.022 1_455 S
N44 C41 1.351 . S
N44 N45 1.365 . S
N45 C42 1.341 . S
N45 N44 1.365 . S
N45 H65 0.862 . S
C46 C41 1.501 1_556 S
C46 H47 0.961 1_556 S
C46 H48 0.961 . S
C46 H49 0.960 . S
H47 C46 0.961 1_554 S
H48 C46 0.961 . S
H49 C46 0.960 . S
C50 N51 1.342 . S
C50 C54 1.401 . S
C50 C55 1.499 . S
N51 Co34 1.989 . S
N51 C50 1.342 . S
N51 N52 1.388 . S
N52 Co35 1.993 . S
N52 N51 1.388 . S
N52 C53 1.346 . S
C53 N52 1.346 . S
C53 C54 1.396 . S
C53 C63 1.510 . S
C54 C50 1.401 . S
C54 C53 1.396 . S
C55 C50 1.499 . S
C55 H56 0.959 . S
C55 H57 0.960 . S
C55 H58 0.961 . S
H56 C55 0.959 . S
H57 C55 0.960 . S
H58 C55 0.961 . S
O59 Co34 1.967 . S
O59 C67 1.258 . S
O60 Co35 1.941 . S
O60 C67 1.266 . S
H61 C63 0.959 . S
H62 C63 0.961 1_556 S
C63 C53 1.510 . S
C63 H61 0.959 . S
C63 H62 0.961 1_554 S
C63 H64 0.960 . S
H64 C63 0.960 . S
H65 N45 0.862 . S
O66 Co34 1.920 . S
O66 C39 1.289 . S
C67 O59 1.258 . S
C67 O60 1.266 . S
Co68 O71 1.970 . S
Co68 N85 1.989 . S
Co68 O93 1.967 . S
Co68 O100 1.920 . S
Co69 O72 1.966 . S
Co69 N78 2.022 . S
Co69 N86 1.993 . S
Co69 O94 1.941 . S
C70 O71 1.258 . S
C70 O72 1.263 . S
O71 Co68 1.970 . S
O71 C70 1.258 . S
O72 Co69 1.966 . S
O72 C70 1.263 . S
C73 O74 1.235 . S
C73 O100 1.289 . S
O74 C73 1.235 . S
C75 C77 1.400 . S
C75 N78 1.351 . S
C75 C80 1.501 . S
C76 C77 1.387 . S
C76 N79 1.341 . S
C77 C75 1.400 . S
C77 C76 1.387 . S
N78 Co69 2.022 . S
N78 C75 1.351 . S
N78 N79 1.365 . S
N79 C76 1.341 . S
N79 N78 1.365 . S
N79 H99 0.862 . S
C80 C75 1.501 . S
C80 H81 0.961 . S
C80 H82 0.961 . S
C80 H83 0.960 . S
H81 C80 0.961 . S
H82 C80 0.961 . S
H83 C80 0.960 . S
C84 N85 1.342 . S
C84 C88 1.401 . S
C84 C89 1.499 . S
N85 Co68 1.989 . S
N85 C84 1.342 . S
N85 N86 1.388 . S
N86 Co69 1.993 . S
N86 N85 1.388 . S
N86 C87 1.346 . S
C87 N86 1.346 . S
C87 C88 1.396 . S
C87 C97 1.510 . S
C88 C84 1.401 . S
C88 C87 1.396 . S
C89 C84 1.499 . S
C89 H90 0.959 . S
C89 H91 0.960 . S
C89 H92 0.961 . S
H90 C89 0.959 . S
H91 C89 0.960 . S
H92 C89 0.961 . S
O93 Co68 1.967 . S
O93 C101 1.258 . S
O94 Co69 1.941 . S
O94 C101 1.266 . S
H95 C97 0.959 . S
H96 C97 0.961 . S
C97 C87 1.510 . S
C97 H95 0.959 . S
C97 H96 0.961 . S
C97 H98 0.960 . S
H98 C97 0.960 . S
H99 N79 0.862 . S
O100 Co68 1.920 . S
O100 C73 1.289 . S
C101 O93 1.258 . S
C101 O94 1.266 . S
Co102 O105 1.970 . S
Co102 N119 1.989 . S
Co102 O127 1.967 . S
Co102 O134 1.920 . S
Co103 O106 1.966 . S
Co103 N112 2.022 1_655 S
Co103 N120 1.993 . S
Co103 O128 1.941 . S
C104 O105 1.258 . S
C104 O106 1.263 . S
O105 Co102 1.970 . S
O105 C104 1.258 . S
O106 Co103 1.966 . S
O106 C104 1.263 . S
C107 O108 1.235 . S
C107 O134 1.289 . S
O108 C107 1.235 . S
C109 C111 1.400 . S
C109 N112 1.351 . S
C109 C114 1.501 . S
C110 C111 1.387 . S
C110 N113 1.341 . S
C111 C109 1.400 . S
C111 C110 1.387 . S
N112 Co103 2.022 1_455 S
N112 C109 1.351 . S
N112 N113 1.365 . S
N113 C110 1.341 . S
N113 N112 1.365 . S
N113 H133 0.862 . S
C114 C109 1.501 . S
C114 H115 0.961 . S
C114 H116 0.961 . S
C114 H117 0.960 . S
H115 C114 0.961 . S
H116 C114 0.961 . S
H117 C114 0.960 . S
C118 N119 1.342 . S
C118 C122 1.401 . S
C118 C123 1.499 . S
N119 Co102 1.989 . S
N119 C118 1.342 . S
N119 N120 1.388 . S
N120 Co103 1.993 . S
N120 N119 1.388 . S
N120 C121 1.346 . S
C121 N120 1.346 . S
C121 C122 1.396 . S
C121 C131 1.510 . S
C122 C118 1.401 . S
C122 C121 1.396 . S
C123 C118 1.499 . S
C123 H124 0.959 . S
C123 H125 0.960 . S
C123 H126 0.961 . S
H124 C123 0.959 . S
H125 C123 0.960 . S
H126 C123 0.961 . S
O127 Co102 1.967 . S
O127 C135 1.258 . S
O128 Co103 1.941 . S
O128 C135 1.266 . S
H129 C131 0.959 . S
H130 C131 0.961 . S
C131 C121 1.510 . S
C131 H129 0.959 . S
C131 H130 0.961 . S
C131 H132 0.960 . S
H132 C131 0.960 . S
H133 N113 0.862 . S
O134 Co102 1.920 . S
O134 C107 1.289 . S
C135 O127 1.258 . S
C135 O128 1.266 . S
Co136 O139 1.970 . S
Co136 N153 1.989 . S
Co136 O161 1.967 . S
Co136 O168 1.920 . S
Co137 O140 1.966 . S
Co137 N146 2.022 . S
Co137 N154 1.993 . S
Co137 O162 1.941 . S
C138 O139 1.258 . S
C138 O140 1.263 . S
O139 Co136 1.970 . S
O139 C138 1.258 . S
O140 Co137 1.966 . S
O140 C138 1.263 . S
C141 O142 1.235 . S
C141 O168 1.289 . S
O142 C141 1.235 . S
C143 C145 1.400 . S
C143 N146 1.351 . S
C143 C148 1.501 1_556 S
C144 C145 1.387 . S
C144 N147 1.341 . S
C145 C143 1.400 . S
C145 C144 1.387 . S
N146 Co137 2.022 . S
N146 C143 1.351 . S
N146 N147 1.365 . S
N147 C144 1.341 . S
N147 N146 1.365 . S
N147 H167 0.862 . S
C148 C143 1.501 1_554 S
C148 H149 0.961 1_554 S
C148 H150 0.961 . S
C148 H151 0.960 . S
H149 C148 0.961 1_556 S
H150 C148 0.961 . S
H151 C148 0.960 . S
C152 N153 1.342 . S
C152 C156 1.401 . S
C152 C157 1.499 . S
N153 Co136 1.989 . S
N153 C152 1.342 . S
N153 N154 1.388 . S
N154 Co137 1.993 . S
N154 N153 1.388 . S
N154 C155 1.346 . S
C155 N154 1.346 . S
C155 C156 1.396 . S
C155 C165 1.510 . S
C156 C152 1.401 . S
C156 C155 1.396 . S
C157 C152 1.499 . S
C157 H158 0.959 . S
C157 H159 0.960 . S
C157 H160 0.961 . S
H158 C157 0.959 . S
H159 C157 0.960 . S
H160 C157 0.961 . S
O161 Co136 1.967 . S
O161 C169 1.258 . S
O162 Co137 1.941 . S
O162 C169 1.266 . S
H163 C165 0.959 . S
H164 C165 0.961 1_554 S
C165 C155 1.510 . S
C165 H163 0.959 . S
C165 H164 0.961 1_556 S
C165 H166 0.960 . S
H166 C165 0.960 . S
H167 N147 0.862 . S
O168 Co136 1.920 . S
O168 C141 1.289 . S
C169 O161 1.258 . S
C169 O162 1.266 . S
Co170 O173 1.970 . S
Co170 N187 1.989 . S
Co170 O195 1.967 . S
Co170 O202 1.920 . S
Co171 O174 1.966 . S
Co171 N180 2.022 1_455 S
Co171 N188 1.993 . S
Co171 O196 1.941 . S
C172 O173 1.258 . S
C172 O174 1.263 . S
O173 Co170 1.970 . S
O173 C172 1.258 . S
O174 Co171 1.966 . S
O174 C172 1.263 . S
C175 O176 1.235 . S
C175 O202 1.289 . S
O176 C175 1.235 . S
C177 C179 1.400 . S
C177 N180 1.351 . S
C177 C182 1.501 1_556 S
C178 C179 1.387 . S
C178 N181 1.341 . S
C179 C177 1.400 . S
C179 C178 1.387 . S
N180 Co171 2.022 1_655 S
N180 C177 1.351 . S
N180 N181 1.365 . S
N181 C178 1.341 . S
N181 N180 1.365 . S
N181 H201 0.862 . S
C182 C177 1.501 1_554 S
C182 H183 0.961 1_554 S
C182 H184 0.961 . S
C182 H185 0.960 . S
H183 C182 0.961 1_556 S
H184 C182 0.961 . S
H185 C182 0.960 . S
C186 N187 1.342 . S
C186 C190 1.401 . S
C186 C191 1.499 . S
N187 Co170 1.989 . S
N187 C186 1.342 . S
N187 N188 1.388 . S
N188 Co171 1.993 . S
N188 N187 1.388 . S
N188 C189 1.346 . S
C189 N188 1.346 . S
C189 C190 1.396 . S
C189 C199 1.510 . S
C190 C186 1.401 . S
C190 C189 1.396 . S
C191 C186 1.499 . S
C191 H192 0.959 . S
C191 H193 0.960 . S
C191 H194 0.961 . S
H192 C191 0.959 . S
H193 C191 0.960 . S
H194 C191 0.961 . S
O195 Co170 1.967 . S
O195 C203 1.258 . S
O196 Co171 1.941 . S
O196 C203 1.266 . S
H197 C199 0.959 . S
H198 C199 0.961 1_554 S
C199 C189 1.510 . S
C199 H197 0.959 . S
C199 H198 0.961 1_556 S
C199 H200 0.960 . S
H200 C199 0.960 . S
H201 N181 0.862 . S
O202 Co170 1.920 . S
O202 C175 1.289 . S
C203 O195 1.258 . S
C203 O196 1.266 . S
Co204 O207 1.970 . S
Co204 N221 1.989 . S
Co204 O229 1.967 . S
Co204 O236 1.920 . S
Co205 O208 1.966 . S
Co205 N214 2.022 . S
Co205 N222 1.993 . S
Co205 O230 1.941 . S
C206 O207 1.258 . S
C206 O208 1.263 . S
O207 Co204 1.970 . S
O207 C206 1.258 . S
O208 Co205 1.966 . S
O208 C206 1.263 . S
C209 O210 1.235 . S
C209 O236 1.289 . S
O210 C209 1.235 . S
C211 C213 1.400 . S
C211 N214 1.351 . S
C211 C216 1.501 . S
C212 C213 1.387 . S
C212 N215 1.341 . S
C213 C211 1.400 . S
C213 C212 1.387 . S
N214 Co205 2.022 . S
N214 C211 1.351 . S
N214 N215 1.365 . S
N215 C212 1.341 . S
N215 N214 1.365 . S
N215 H235 0.862 . S
C216 C211 1.501 . S
C216 H217 0.961 . S
C216 H218 0.961 . S
C216 H219 0.960 . S
H217 C216 0.961 . S
H218 C216 0.961 . S
H219 C216 0.960 . S
C220 N221 1.342 . S
C220 C224 1.401 . S
C220 C225 1.499 . S
N221 Co204 1.989 . S
N221 C220 1.342 . S
N221 N222 1.388 . S
N222 Co205 1.993 . S
N222 N221 1.388 . S
N222 C223 1.346 . S
C223 N222 1.346 . S
C223 C224 1.396 . S
C223 C233 1.510 . S
C224 C220 1.401 . S
C224 C223 1.396 . S
C225 C220 1.499 . S
C225 H226 0.959 . S
C225 H227 0.960 . S
C225 H228 0.961 . S
H226 C225 0.959 . S
H227 C225 0.960 . S
H228 C225 0.961 . S
O229 Co204 1.967 . S
O229 C237 1.258 . S
O230 Co205 1.941 . S
O230 C237 1.266 . S
H231 C233 0.959 . S
H232 C233 0.961 . S
C233 C223 1.510 . S
C233 H231 0.959 . S
C233 H232 0.961 . S
C233 H234 0.960 . S
H234 C233 0.960 . S
H235 N215 0.862 . S
O236 Co204 1.920 . S
O236 C209 1.289 . S
C237 O229 1.258 . S
C237 O230 1.266 . S
Co238 O241 1.970 . S
Co238 N255 1.989 . S
Co238 O263 1.967 . S
Co238 O270 1.920 . S
Co239 O242 1.966 . S
Co239 N248 2.022 1_455 S
Co239 N256 1.993 . S
Co239 O264 1.941 . S
C240 O241 1.258 . S
C240 O242 1.263 . S
O241 Co238 1.970 . S
O241 C240 1.258 . S
O242 Co239 1.966 . S
O242 C240 1.263 . S
C243 O244 1.235 . S
C243 O270 1.289 . S
O244 C243 1.235 . S
C245 C247 1.400 . S
C245 N248 1.351 . S
C245 C250 1.501 . S
C246 C247 1.387 . S
C246 N249 1.341 . S
C247 C245 1.400 . S
C247 C246 1.387 . S
N248 Co239 2.022 1_655 S
N248 C245 1.351 . S
N248 N249 1.365 . S
N249 C246 1.341 . S
N249 N248 1.365 . S
N249 H269 0.862 . S
C250 C245 1.501 . S
C250 H251 0.961 . S
C250 H252 0.961 . S
C250 H253 0.960 . S
H251 C250 0.961 . S
H252 C250 0.961 . S
H253 C250 0.960 . S
C254 N255 1.342 . S
C254 C258 1.401 . S
C254 C259 1.499 . S
N255 Co238 1.989 . S
N255 C254 1.342 . S
N255 N256 1.388 . S
N256 Co239 1.993 . S
N256 N255 1.388 . S
N256 C257 1.346 . S
C257 N256 1.346 . S
C257 C258 1.396 . S
C257 C267 1.510 . S
C258 C254 1.401 . S
C258 C257 1.396 . S
C259 C254 1.499 . S
C259 H260 0.959 . S
C259 H261 0.960 . S
C259 H262 0.961 . S
H260 C259 0.959 . S
H261 C259 0.960 . S
H262 C259 0.961 . S
O263 Co238 1.967 . S
O263 C271 1.258 . S
O264 Co239 1.941 . S
O264 C271 1.266 . S
H265 C267 0.959 . S
H266 C267 0.961 . S
C267 C257 1.510 . S
C267 H265 0.959 . S
C267 H266 0.961 . S
C267 H268 0.960 . S
H268 C267 0.960 . S
H269 N249 0.862 . S
O270 Co238 1.920 . S
O270 C243 1.289 . S
C271 O263 1.258 . S
C271 O264 1.266 . S
Co272 O275 1.970 . S
Co272 N289 1.989 . S
Co272 O297 1.967 . S
Co272 O304 1.920 . S
Co273 O276 1.966 . S
Co273 N282 2.022 . S
Co273 N290 1.993 . S
Co273 O298 1.941 . S
C274 O275 1.258 . S
C274 O276 1.263 . S
O275 Co272 1.970 . S
O275 C274 1.258 . S
O276 Co273 1.966 . S
O276 C274 1.263 . S
C277 O278 1.235 . S
C277 O304 1.289 . S
O278 C277 1.235 . S
C279 C281 1.400 . S
C279 N282 1.351 . S
C279 C284 1.501 . S
C280 C281 1.387 . S
C280 N283 1.341 . S
C281 C279 1.400 . S
C281 C280 1.387 . S
N282 Co273 2.022 . S
N282 C279 1.351 . S
N282 N283 1.365 . S
N283 C280 1.341 . S
N283 N282 1.365 . S
N283 H303 0.862 . S
C284 C279 1.501 . S
C284 H285 0.961 . S
C284 H286 0.961 . S
C284 H287 0.960 . S
H285 C284 0.961 . S
H286 C284 0.961 . S
H287 C284 0.960 . S
C288 N289 1.342 . S
C288 C292 1.401 . S
C288 C293 1.499 . S
N289 Co272 1.989 . S
N289 C288 1.342 . S
N289 N290 1.388 . S
N290 Co273 1.993 . S
N290 N289 1.388 . S
N290 C291 1.346 . S
C291 N290 1.346 . S
C291 C292 1.396 . S
C291 C301 1.510 . S
C292 C288 1.401 . S
C292 C291 1.396 . S
C293 C288 1.499 . S
C293 H294 0.959 . S
C293 H295 0.960 . S
C293 H296 0.961 . S
H294 C293 0.959 . S
H295 C293 0.960 . S
H296 C293 0.961 . S
O297 Co272 1.967 . S
O297 C305 1.258 . S
O298 Co273 1.941 . S
O298 C305 1.266 . S
H299 C301 0.959 . S
H300 C301 0.961 . S
C301 C291 1.510 . S
C301 H299 0.959 . S
C301 H300 0.961 . S
C301 H302 0.960 . S
H302 C301 0.960 . S
H303 N283 0.862 . S
O304 Co272 1.920 . S
O304 C277 1.289 . S
C305 O297 1.258 . S
C305 O298 1.266 . S
Co306 O309 1.970 . S
Co306 N323 1.989 . S
Co306 O331 1.967 . S
Co306 O338 1.920 . S
Co307 O310 1.966 . S
Co307 N316 2.022 1_655 S
Co307 N324 1.993 . S
Co307 O332 1.941 . S
C308 O309 1.258 . S
C308 O310 1.263 . S
O309 Co306 1.970 . S
O309 C308 1.258 . S
O310 Co307 1.966 . S
O310 C308 1.263 . S
C311 O312 1.235 . S
C311 O338 1.289 . S
O312 C311 1.235 . S
C313 C315 1.400 . S
C313 N316 1.351 . S
C313 C318 1.501 . S
C314 C315 1.387 . S
C314 N317 1.341 . S
C315 C313 1.400 . S
C315 C314 1.387 . S
N316 Co307 2.022 1_455 S
N316 C313 1.351 . S
N316 N317 1.365 . S
N317 C314 1.341 . S
N317 N316 1.365 . S
N317 H337 0.862 . S
C318 C313 1.501 . S
C318 H319 0.961 . S
C318 H320 0.961 . S
C318 H321 0.960 . S
H319 C318 0.961 . S
H320 C318 0.961 . S
H321 C318 0.960 . S
C322 N323 1.342 . S
C322 C326 1.401 . S
C322 C327 1.499 . S
N323 Co306 1.989 . S
N323 C322 1.342 . S
N323 N324 1.388 . S
N324 Co307 1.993 . S
N324 N323 1.388 . S
N324 C325 1.346 . S
C325 N324 1.346 . S
C325 C326 1.396 . S
C325 C335 1.510 . S
C326 C322 1.401 . S
C326 C325 1.396 . S
C327 C322 1.499 . S
C327 H328 0.959 . S
C327 H329 0.960 . S
C327 H330 0.961 . S
H328 C327 0.959 . S
H329 C327 0.960 . S
H330 C327 0.961 . S
O331 Co306 1.967 . S
O331 C339 1.258 . S
O332 Co307 1.941 . S
O332 C339 1.266 . S
H333 C335 0.959 . S
H334 C335 0.961 . S
C335 C325 1.510 . S
C335 H333 0.959 . S
C335 H334 0.961 . S
C335 H336 0.960 . S
H336 C335 0.960 . S
H337 N317 0.862 . S
O338 Co306 1.920 . S
O338 C311 1.289 . S
C339 O331 1.258 . S
C339 O332 1.266 . S
Co340 O343 1.970 . S
Co340 N357 1.989 . S
Co340 O365 1.967 . S
Co340 O372 1.920 . S
Co341 O344 1.966 . S
Co341 N350 2.022 . S
Co341 N358 1.993 . S
Co341 O366 1.941 . S
C342 O343 1.258 . S
C342 O344 1.263 . S
O343 Co340 1.970 . S
O343 C342 1.258 . S
O344 Co341 1.966 . S
O344 C342 1.263 . S
C345 O346 1.235 . S
C345 O372 1.289 . S
O346 C345 1.235 . S
C347 C349 1.400 . S
C347 N350 1.351 . S
C347 C352 1.501 . S
C348 C349 1.387 . S
C348 N351 1.341 . S
C349 C347 1.400 . S
C349 C348 1.387 . S
N350 Co341 2.022 . S
N350 C347 1.351 . S
N350 N351 1.365 . S
N351 C348 1.341 . S
N351 N350 1.365 . S
N351 H371 0.862 . S
C352 C347 1.501 . S
C352 H353 0.961 . S
C352 H354 0.961 . S
C352 H355 0.960 . S
H353 C352 0.961 . S
H354 C352 0.961 . S
H355 C352 0.960 . S
C356 N357 1.342 . S
C356 C360 1.401 . S
C356 C361 1.499 . S
N357 Co340 1.989 . S
N357 C356 1.342 . S
N357 N358 1.388 . S
N358 Co341 1.993 . S
N358 N357 1.388 . S
N358 C359 1.346 . S
C359 N358 1.346 . S
C359 C360 1.396 . S
C359 C369 1.510 . S
C360 C356 1.401 . S
C360 C359 1.396 . S
C361 C356 1.499 . S
C361 H362 0.959 . S
C361 H363 0.960 . S
C361 H364 0.961 . S
H362 C361 0.959 . S
H363 C361 0.960 . S
H364 C361 0.961 . S
O365 Co340 1.967 . S
O365 C373 1.258 . S
O366 Co341 1.941 . S
O366 C373 1.266 . S
H367 C369 0.959 . S
H368 C369 0.961 . S
C369 C359 1.510 . S
C369 H367 0.959 . S
C369 H368 0.961 . S
C369 H370 0.960 . S
H370 C369 0.960 . S
H371 N351 0.862 . S
O372 Co340 1.920 . S
O372 C345 1.289 . S
C373 O365 1.258 . S
C373 O366 1.266 . S
Co374 O377 1.970 . S
Co374 N391 1.989 . S
Co374 O399 1.967 . S
Co374 O406 1.920 . S
Co375 O378 1.966 . S
Co375 N384 2.022 1_655 S
Co375 N392 1.993 . S
Co375 O400 1.941 . S
C376 O377 1.258 . S
C376 O378 1.263 . S
O377 Co374 1.970 . S
O377 C376 1.258 . S
O378 Co375 1.966 . S
O378 C376 1.263 . S
C379 O380 1.235 . S
C379 O406 1.289 . S
O380 C379 1.235 . S
C381 C383 1.400 . S
C381 N384 1.351 . S
C381 C386 1.501 . S
C382 C383 1.387 . S
C382 N385 1.341 . S
C383 C381 1.400 . S
C383 C382 1.387 . S
N384 Co375 2.022 1_455 S
N384 C381 1.351 . S
N384 N385 1.365 . S
N385 C382 1.341 . S
N385 N384 1.365 . S
N385 H405 0.862 . S
C386 C381 1.501 . S
C386 H387 0.961 . S
C386 H388 0.961 . S
C386 H389 0.960 . S
H387 C386 0.961 . S
H388 C386 0.961 . S
H389 C386 0.960 . S
C390 N391 1.342 . S
C390 C394 1.401 . S
C390 C395 1.499 . S
N391 Co374 1.989 . S
N391 C390 1.342 . S
N391 N392 1.388 . S
N392 Co375 1.993 . S
N392 N391 1.388 . S
N392 C393 1.346 . S
C393 N392 1.346 . S
C393 C394 1.396 . S
C393 C403 1.510 . S
C394 C390 1.401 . S
C394 C393 1.396 . S
C395 C390 1.499 . S
C395 H396 0.959 . S
C395 H397 0.960 . S
C395 H398 0.961 . S
H396 C395 0.959 . S
H397 C395 0.960 . S
H398 C395 0.961 . S
O399 Co374 1.967 . S
O399 C407 1.258 . S
O400 Co375 1.941 . S
O400 C407 1.266 . S
H401 C403 0.959 . S
H402 C403 0.961 . S
C403 C393 1.510 . S
C403 H401 0.959 . S
C403 H402 0.961 . S
C403 H404 0.960 . S
H404 C403 0.960 . S
H405 N385 0.862 . S
O406 Co374 1.920 . S
O406 C379 1.289 . S
C407 O399 1.258 . S
C407 O400 1.266 . S
Co408 O411 1.970 . S
Co408 N425 1.989 . S
Co408 O433 1.967 . S
Co408 O440 1.920 . S
Co409 O412 1.966 . S
Co409 N418 2.022 . S
Co409 N426 1.993 . S
Co409 O434 1.941 . S
C410 O411 1.258 . S
C410 O412 1.263 . S
O411 Co408 1.970 . S
O411 C410 1.258 . S
O412 Co409 1.966 . S
O412 C410 1.263 . S
C413 O414 1.235 . S
C413 O440 1.289 . S
O414 C413 1.235 . S
C415 C417 1.400 . S
C415 N418 1.351 . S
C415 C420 1.501 . S
C416 C417 1.387 . S
C416 N419 1.341 . S
C417 C415 1.400 . S
C417 C416 1.387 . S
N418 Co409 2.022 . S
N418 C415 1.351 . S
N418 N419 1.365 . S
N419 C416 1.341 . S
N419 N418 1.365 . S
N419 H439 0.862 . S
C420 C415 1.501 . S
C420 H421 0.961 . S
C420 H422 0.961 . S
C420 H423 0.960 . S
H421 C420 0.961 . S
H422 C420 0.961 . S
H423 C420 0.960 . S
C424 N425 1.342 . S
C424 C428 1.401 . S
C424 C429 1.499 . S
N425 Co408 1.989 . S
N425 C424 1.342 . S
N425 N426 1.388 . S
N426 Co409 1.993 . S
N426 N425 1.388 . S
N426 C427 1.346 . S
C427 N426 1.346 . S
C427 C428 1.396 . S
C427 C437 1.510 . S
C428 C424 1.401 . S
C428 C427 1.396 . S
C429 C424 1.499 . S
C429 H430 0.959 . S
C429 H431 0.960 . S
C429 H432 0.961 . S
H430 C429 0.959 . S
H431 C429 0.960 . S
H432 C429 0.961 . S
O433 Co408 1.967 . S
O433 C441 1.258 . S
O434 Co409 1.941 . S
O434 C441 1.266 . S
H435 C437 0.959 . S
H436 C437 0.961 . S
C437 C427 1.510 . S
C437 H435 0.959 . S
C437 H436 0.961 . S
C437 H438 0.960 . S
H438 C437 0.960 . S
H439 N419 0.862 . S
O440 Co408 1.920 . S
O440 C413 1.289 . S
C441 O433 1.258 . S
C441 O434 1.266 . S
Co442 O445 1.970 . S
Co442 N459 1.989 . S
Co442 O467 1.967 . S
Co442 O474 1.920 . S
Co443 O446 1.966 . S
Co443 N452 2.022 1_455 S
Co443 N460 1.993 . S
Co443 O468 1.941 . S
C444 O445 1.258 . S
C444 O446 1.263 . S
O445 Co442 1.970 . S
O445 C444 1.258 . S
O446 Co443 1.966 . S
O446 C444 1.263 . S
C447 O448 1.235 . S
C447 O474 1.289 . S
O448 C447 1.235 . S
C449 C451 1.400 . S
C449 N452 1.351 . S
C449 C454 1.501 . S
C450 C451 1.387 . S
C450 N453 1.341 . S
C451 C449 1.400 . S
C451 C450 1.387 . S
N452 Co443 2.022 1_655 S
N452 C449 1.351 . S
N452 N453 1.365 . S
N453 C450 1.341 . S
N453 N452 1.365 . S
N453 H473 0.862 . S
C454 C449 1.501 . S
C454 H455 0.961 . S
C454 H456 0.961 . S
C454 H457 0.960 . S
H455 C454 0.961 . S
H456 C454 0.961 . S
H457 C454 0.960 . S
C458 N459 1.342 . S
C458 C462 1.401 . S
C458 C463 1.499 . S
N459 Co442 1.989 . S
N459 C458 1.342 . S
N459 N460 1.388 . S
N460 Co443 1.993 . S
N460 N459 1.388 . S
N460 C461 1.346 . S
C461 N460 1.346 . S
C461 C462 1.396 . S
C461 C471 1.510 . S
C462 C458 1.401 . S
C462 C461 1.396 . S
C463 C458 1.499 . S
C463 H464 0.959 . S
C463 H465 0.960 . S
C463 H466 0.961 . S
H464 C463 0.959 . S
H465 C463 0.960 . S
H466 C463 0.961 . S
O467 Co442 1.967 . S
O467 C475 1.258 . S
O468 Co443 1.941 . S
O468 C475 1.266 . S
H469 C471 0.959 . S
H470 C471 0.961 . S
C471 C461 1.510 . S
C471 H469 0.959 . S
C471 H470 0.961 . S
C471 H472 0.960 . S
H472 C471 0.960 . S
H473 N453 0.862 . S
O474 Co442 1.920 . S
O474 C447 1.289 . S
C475 O467 1.258 . S
C475 O468 1.266 . S
Co476 O479 1.970 . S
Co476 N493 1.989 . S
Co476 O501 1.967 . S
Co476 O508 1.920 . S
Co477 O480 1.966 . S
Co477 N486 2.022 . S
Co477 N494 1.993 . S
Co477 O502 1.941 . S
C478 O479 1.258 . S
C478 O480 1.263 . S
O479 Co476 1.970 . S
O479 C478 1.258 . S
O480 Co477 1.966 . S
O480 C478 1.263 . S
C481 O482 1.235 . S
C481 O508 1.289 . S
O482 C481 1.235 . S
C483 C485 1.400 . S
C483 N486 1.351 . S
C483 C488 1.501 . S
C484 C485 1.387 . S
C484 N487 1.341 . S
C485 C483 1.400 . S
C485 C484 1.387 . S
N486 Co477 2.022 . S
N486 C483 1.351 . S
N486 N487 1.365 . S
N487 C484 1.341 . S
N487 N486 1.365 . S
N487 H507 0.862 . S
C488 C483 1.501 . S
C488 H489 0.961 . S
C488 H490 0.961 . S
C488 H491 0.960 . S
H489 C488 0.961 . S
H490 C488 0.961 . S
H491 C488 0.960 . S
C492 N493 1.342 . S
C492 C496 1.401 . S
C492 C497 1.499 . S
N493 Co476 1.989 . S
N493 C492 1.342 . S
N493 N494 1.388 . S
N494 Co477 1.993 . S
N494 N493 1.388 . S
N494 C495 1.346 . S
C495 N494 1.346 . S
C495 C496 1.396 . S
C495 C505 1.510 . S
C496 C492 1.401 . S
C496 C495 1.396 . S
C497 C492 1.499 . S
C497 H498 0.959 . S
C497 H499 0.960 . S
C497 H500 0.961 . S
H498 C497 0.959 . S
H499 C497 0.960 . S
H500 C497 0.961 . S
O501 Co476 1.967 . S
O501 C509 1.258 . S
O502 Co477 1.941 . S
O502 C509 1.266 . S
H503 C505 0.959 . S
H504 C505 0.961 . S
C505 C495 1.510 . S
C505 H503 0.959 . S
C505 H504 0.961 . S
C505 H506 0.960 . S
H506 C505 0.960 . S
H507 N487 0.862 . S
O508 Co476 1.920 . S
O508 C481 1.289 . S
C509 O501 1.258 . S
C509 O502 1.266 . S
Co510 O513 1.970 . S
Co510 N527 1.989 . S
Co510 O535 1.967 . S
Co510 O542 1.920 . S
Co511 O514 1.966 . S
Co511 N520 2.022 1_455 S
Co511 N528 1.993 . S
Co511 O536 1.941 . S
C512 O513 1.258 . S
C512 O514 1.263 . S
O513 Co510 1.970 . S
O513 C512 1.258 . S
O514 Co511 1.966 . S
O514 C512 1.263 . S
C515 O516 1.235 . S
C515 O542 1.289 . S
O516 C515 1.235 . S
C517 C519 1.400 . S
C517 N520 1.351 . S
C517 C522 1.501 . S
C518 C519 1.387 . S
C518 N521 1.341 . S
C519 C517 1.400 . S
C519 C518 1.387 . S
N520 Co511 2.022 1_655 S
N520 C517 1.351 . S
N520 N521 1.365 . S
N521 C518 1.341 . S
N521 N520 1.365 . S
N521 H541 0.862 . S
C522 C517 1.501 . S
C522 H523 0.961 . S
C522 H524 0.961 . S
C522 H525 0.960 . S
H523 C522 0.961 . S
H524 C522 0.961 . S
H525 C522 0.960 . S
C526 N527 1.342 . S
C526 C530 1.401 . S
C526 C531 1.499 . S
N527 Co510 1.989 . S
N527 C526 1.342 . S
N527 N528 1.388 . S
N528 Co511 1.993 . S
N528 N527 1.388 . S
N528 C529 1.346 . S
C529 N528 1.346 . S
C529 C530 1.396 . S
C529 C539 1.510 . S
C530 C526 1.401 . S
C530 C529 1.396 . S
C531 C526 1.499 . S
C531 H532 0.959 . S
C531 H533 0.960 . S
C531 H534 0.961 . S
H532 C531 0.959 . S
H533 C531 0.960 . S
H534 C531 0.961 . S
O535 Co510 1.967 . S
O535 C543 1.258 . S
O536 Co511 1.941 . S
O536 C543 1.266 . S
H537 C539 0.959 . S
H538 C539 0.961 . S
C539 C529 1.510 . S
C539 H537 0.959 . S
C539 H538 0.961 . S
C539 H540 0.960 . S
H540 C539 0.960 . S
H541 N521 0.862 . S
O542 Co510 1.920 . S
O542 C515 1.289 . S
C543 O535 1.258 . S
C543 O536 1.266 . S
Co544 O547 1.970 . S
Co544 N561 1.989 . S
Co544 O569 1.967 . S
Co544 O576 1.920 . S
Co545 O548 1.966 . S
Co545 N554 2.022 . S
Co545 N562 1.993 . S
Co545 O570 1.941 . S
C546 O547 1.258 . S
C546 O548 1.263 . S
O547 Co544 1.970 . S
O547 C546 1.258 . S
O548 Co545 1.966 . S
O548 C546 1.263 . S
C549 O550 1.235 . S
C549 O576 1.289 . S
O550 C549 1.235 . S
C551 C553 1.400 . S
C551 N554 1.351 . S
C551 C556 1.501 . S
C552 C553 1.387 . S
C552 N555 1.341 . S
C553 C551 1.400 . S
C553 C552 1.387 . S
N554 Co545 2.022 . S
N554 C551 1.351 . S
N554 N555 1.365 . S
N555 C552 1.341 . S
N555 N554 1.365 . S
N555 H575 0.862 . S
C556 C551 1.501 . S
C556 H557 0.961 . S
C556 H558 0.961 . S
C556 H559 0.960 . S
H557 C556 0.961 . S
H558 C556 0.961 . S
H559 C556 0.960 . S
C560 N561 1.342 . S
C560 C564 1.401 . S
C560 C565 1.499 . S
N561 Co544 1.989 . S
N561 C560 1.342 . S
N561 N562 1.388 . S
N562 Co545 1.993 . S
N562 N561 1.388 . S
N562 C563 1.346 . S
C563 N562 1.346 . S
C563 C564 1.396 . S
C563 C573 1.510 . S
C564 C560 1.401 . S
C564 C563 1.396 . S
C565 C560 1.499 . S
C565 H566 0.959 . S
C565 H567 0.960 . S
C565 H568 0.961 . S
H566 C565 0.959 . S
H567 C565 0.960 . S
H568 C565 0.961 . S
O569 Co544 1.967 . S
O569 C577 1.258 . S
O570 Co545 1.941 . S
O570 C577 1.266 . S
H571 C573 0.959 . S
H572 C573 0.961 . S
C573 C563 1.510 . S
C573 H571 0.959 . S
C573 H572 0.961 . S
C573 H574 0.960 . S
H574 C573 0.960 . S
H575 N555 0.862 . S
O576 Co544 1.920 . S
O576 C549 1.289 . S
C577 O569 1.258 . S
C577 O570 1.266 . S
Co578 O581 1.970 . S
Co578 N595 1.989 . S
Co578 O603 1.967 . S
Co578 O610 1.920 . S
Co579 O582 1.966 . S
Co579 N588 2.022 . S
Co579 N596 1.993 . S
Co579 O604 1.941 . S
C580 O581 1.258 . S
C580 O582 1.263 . S
O581 Co578 1.970 . S
O581 C580 1.258 . S
O582 Co579 1.966 . S
O582 C580 1.263 . S
C583 O584 1.235 . S
C583 O610 1.289 . S
O584 C583 1.235 . S
C585 C587 1.400 . S
C585 N588 1.351 . S
C585 C590 1.501 . S
C586 C587 1.387 . S
C586 N589 1.341 . S
C587 C585 1.400 . S
C587 C586 1.387 . S
N588 Co579 2.022 . S
N588 C585 1.351 . S
N588 N589 1.365 . S
N589 C586 1.341 . S
N589 N588 1.365 . S
N589 H609 0.862 . S
C590 C585 1.501 . S
C590 H591 0.961 . S
C590 H592 0.961 . S
C590 H593 0.960 . S
H591 C590 0.961 . S
H592 C590 0.961 . S
H593 C590 0.960 . S
C594 N595 1.342 . S
C594 C598 1.401 . S
C594 C599 1.499 . S
N595 Co578 1.989 . S
N595 C594 1.342 . S
N595 N596 1.388 . S
N596 Co579 1.993 . S
N596 N595 1.388 . S
N596 C597 1.346 . S
C597 N596 1.346 . S
C597 C598 1.396 . S
C597 C607 1.510 . S
C598 C594 1.401 . S
C598 C597 1.396 . S
C599 C594 1.499 . S
C599 H600 0.959 . S
C599 H601 0.960 . S
C599 H602 0.961 . S
H600 C599 0.959 . S
H601 C599 0.960 . S
H602 C599 0.961 . S
O603 Co578 1.967 . S
O603 C611 1.258 . S
O604 Co579 1.941 . S
O604 C611 1.266 . S
H605 C607 0.959 . S
H606 C607 0.961 . S
C607 C597 1.510 . S
C607 H605 0.959 . S
C607 H606 0.961 . S
C607 H608 0.960 . S
H608 C607 0.960 . S
H609 N589 0.862 . S
O610 Co578 1.920 . S
O610 C583 1.289 . S
C611 O603 1.258 . S
C611 O604 1.266 . S
Co612 O615 1.970 . S
Co612 N629 1.989 . S
Co612 O637 1.967 . S
Co612 O644 1.920 . S
Co613 O616 1.966 . S
Co613 N622 2.022 . S
Co613 N630 1.993 . S
Co613 O638 1.941 . S
C614 O615 1.258 . S
C614 O616 1.263 . S
O615 Co612 1.970 . S
O615 C614 1.258 . S
O616 Co613 1.966 . S
O616 C614 1.263 . S
C617 O618 1.235 . S
C617 O644 1.289 . S
O618 C617 1.235 . S
C619 C621 1.400 . S
C619 N622 1.351 . S
C619 C624 1.501 . S
C620 C621 1.387 . S
C620 N623 1.341 . S
C621 C619 1.400 . S
C621 C620 1.387 . S
N622 Co613 2.022 . S
N622 C619 1.351 . S
N622 N623 1.365 . S
N623 C620 1.341 . S
N623 N622 1.365 . S
N623 H643 0.862 . S
C624 C619 1.501 . S
C624 H625 0.961 . S
C624 H626 0.961 . S
C624 H627 0.960 . S
H625 C624 0.961 . S
H626 C624 0.961 . S
H627 C624 0.960 . S
C628 N629 1.342 . S
C628 C632 1.401 . S
C628 C633 1.499 . S
N629 Co612 1.989 . S
N629 C628 1.342 . S
N629 N630 1.388 . S
N630 Co613 1.993 . S
N630 N629 1.388 . S
N630 C631 1.346 . S
C631 N630 1.346 . S
C631 C632 1.396 . S
C631 C641 1.510 . S
C632 C628 1.401 . S
C632 C631 1.396 . S
C633 C628 1.499 . S
C633 H634 0.959 . S
C633 H635 0.960 . S
C633 H636 0.961 . S
H634 C633 0.959 . S
H635 C633 0.960 . S
H636 C633 0.961 . S
O637 Co612 1.967 . S
O637 C645 1.258 . S
O638 Co613 1.941 . S
O638 C645 1.266 . S
H639 C641 0.959 . S
H640 C641 0.961 . S
C641 C631 1.510 . S
C641 H639 0.959 . S
C641 H640 0.961 . S
C641 H642 0.960 . S
H642 C641 0.960 . S
H643 N623 0.862 . S
O644 Co612 1.920 . S
O644 C617 1.289 . S
C645 O637 1.258 . S
C645 O638 1.266 . S
Co646 O649 1.970 . S
Co646 N663 1.989 . S
Co646 O671 1.967 . S
Co646 O678 1.920 . S
Co647 O650 1.966 . S
Co647 N656 2.022 . S
Co647 N664 1.993 . S
Co647 O672 1.941 . S
C648 O649 1.258 . S
C648 O650 1.263 . S
O649 Co646 1.970 . S
O649 C648 1.258 . S
O650 Co647 1.966 . S
O650 C648 1.263 . S
C651 O652 1.235 . S
C651 O678 1.289 . S
O652 C651 1.235 . S
C653 C655 1.400 . S
C653 N656 1.351 . S
C653 C658 1.501 . S
C654 C655 1.387 . S
C654 N657 1.341 . S
C655 C653 1.400 . S
C655 C654 1.387 . S
N656 Co647 2.022 . S
N656 C653 1.351 . S
N656 N657 1.365 . S
N657 C654 1.341 . S
N657 N656 1.365 . S
N657 H677 0.862 . S
C658 C653 1.501 . S
C658 H659 0.961 . S
C658 H660 0.961 . S
C658 H661 0.960 . S
H659 C658 0.961 . S
H660 C658 0.961 . S
H661 C658 0.960 . S
C662 N663 1.342 . S
C662 C666 1.401 . S
C662 C667 1.499 . S
N663 Co646 1.989 . S
N663 C662 1.342 . S
N663 N664 1.388 . S
N664 Co647 1.993 . S
N664 N663 1.388 . S
N664 C665 1.346 . S
C665 N664 1.346 . S
C665 C666 1.396 . S
C665 C675 1.510 . S
C666 C662 1.401 . S
C666 C665 1.396 . S
C667 C662 1.499 . S
C667 H668 0.959 . S
C667 H669 0.960 . S
C667 H670 0.961 . S
H668 C667 0.959 . S
H669 C667 0.960 . S
H670 C667 0.961 . S
O671 Co646 1.967 . S
O671 C679 1.258 . S
O672 Co647 1.941 . S
O672 C679 1.266 . S
H673 C675 0.959 . S
H674 C675 0.961 . S
C675 C665 1.510 . S
C675 H673 0.959 . S
C675 H674 0.961 . S
C675 H676 0.960 . S
H676 C675 0.960 . S
H677 N657 0.862 . S
O678 Co646 1.920 . S
O678 C651 1.289 . S
C679 O671 1.258 . S
C679 O672 1.266 . S
Co680 O683 1.970 . S
Co680 N697 1.989 . S
Co680 O705 1.967 . S
Co680 O712 1.920 . S
Co681 O684 1.966 . S
Co681 N690 2.022 . S
Co681 N698 1.993 . S
Co681 O706 1.941 . S
C682 O683 1.258 . S
C682 O684 1.263 . S
O683 Co680 1.970 . S
O683 C682 1.258 . S
O684 Co681 1.966 . S
O684 C682 1.263 . S
C685 O686 1.235 . S
C685 O712 1.289 . S
O686 C685 1.235 . S
C687 C689 1.400 . S
C687 N690 1.351 . S
C687 C692 1.501 . S
C688 C689 1.387 . S
C688 N691 1.341 . S
C689 C687 1.400 . S
C689 C688 1.387 . S
N690 Co681 2.022 . S
N690 C687 1.351 . S
N690 N691 1.365 . S
N691 C688 1.341 . S
N691 N690 1.365 . S
N691 H711 0.862 . S
C692 C687 1.501 . S
C692 H693 0.961 . S
C692 H694 0.961 . S
C692 H695 0.960 . S
H693 C692 0.961 . S
H694 C692 0.961 . S
H695 C692 0.960 . S
C696 N697 1.342 . S
C696 C700 1.401 . S
C696 C701 1.499 . S
N697 Co680 1.989 . S
N697 C696 1.342 . S
N697 N698 1.388 . S
N698 Co681 1.993 . S
N698 N697 1.388 . S
N698 C699 1.346 . S
C699 N698 1.346 . S
C699 C700 1.396 . S
C699 C709 1.510 . S
C700 C696 1.401 . S
C700 C699 1.396 . S
C701 C696 1.499 . S
C701 H702 0.959 . S
C701 H703 0.960 . S
C701 H704 0.961 . S
H702 C701 0.959 . S
H703 C701 0.960 . S
H704 C701 0.961 . S
O705 Co680 1.967 . S
O705 C713 1.258 . S
O706 Co681 1.941 . S
O706 C713 1.266 . S
H707 C709 0.959 . S
H708 C709 0.961 . S
C709 C699 1.510 . S
C709 H707 0.959 . S
C709 H708 0.961 . S
C709 H710 0.960 . S
H710 C709 0.960 . S
H711 N691 0.862 . S
O712 Co680 1.920 . S
O712 C685 1.289 . S
C713 O705 1.258 . S
C713 O706 1.266 . S
Co714 O717 1.970 . S
Co714 N731 1.989 . S
Co714 O739 1.967 . S
Co714 O746 1.920 . S
Co715 O718 1.966 . S
Co715 N724 2.022 . S
Co715 N732 1.993 . S
Co715 O740 1.941 . S
C716 O717 1.258 . S
C716 O718 1.263 . S
O717 Co714 1.970 . S
O717 C716 1.258 . S
O718 Co715 1.966 . S
O718 C716 1.263 . S
C719 O720 1.235 . S
C719 O746 1.289 . S
O720 C719 1.235 . S
C721 C723 1.400 . S
C721 N724 1.351 . S
C721 C726 1.501 . S
C722 C723 1.387 . S
C722 N725 1.341 . S
C723 C721 1.400 . S
C723 C722 1.387 . S
N724 Co715 2.022 . S
N724 C721 1.351 . S
N724 N725 1.365 . S
N725 C722 1.341 . S
N725 N724 1.365 . S
N725 H745 0.862 . S
C726 C721 1.501 . S
C726 H727 0.961 . S
C726 H728 0.961 . S
C726 H729 0.960 . S
H727 C726 0.961 . S
H728 C726 0.961 . S
H729 C726 0.960 . S
C730 N731 1.342 . S
C730 C734 1.401 . S
C730 C735 1.499 . S
N731 Co714 1.989 . S
N731 C730 1.342 . S
N731 N732 1.388 . S
N732 Co715 1.993 . S
N732 N731 1.388 . S
N732 C733 1.346 . S
C733 N732 1.346 . S
C733 C734 1.396 . S
C733 C743 1.510 . S
C734 C730 1.401 . S
C734 C733 1.396 . S
C735 C730 1.499 . S
C735 H736 0.959 . S
C735 H737 0.960 . S
C735 H738 0.961 . S
H736 C735 0.959 . S
H737 C735 0.960 . S
H738 C735 0.961 . S
O739 Co714 1.967 . S
O739 C747 1.258 . S
O740 Co715 1.941 . S
O740 C747 1.266 . S
H741 C743 0.959 . S
H742 C743 0.961 . S
C743 C733 1.510 . S
C743 H741 0.959 . S
C743 H742 0.961 . S
C743 H744 0.960 . S
H744 C743 0.960 . S
H745 N725 0.862 . S
O746 Co714 1.920 . S
O746 C719 1.289 . S
C747 O739 1.258 . S
C747 O740 1.266 . S
Co748 O751 1.970 . S
Co748 N765 1.989 . S
Co748 O773 1.967 . S
Co748 O780 1.920 . S
Co749 O752 1.966 . S
Co749 N758 2.022 . S
Co749 N766 1.993 . S
Co749 O774 1.941 . S
C750 O751 1.258 . S
C750 O752 1.263 . S
O751 Co748 1.970 . S
O751 C750 1.258 . S
O752 Co749 1.966 . S
O752 C750 1.263 . S
C753 O754 1.235 . S
C753 O780 1.289 . S
O754 C753 1.235 . S
C755 C757 1.400 . S
C755 N758 1.351 . S
C755 C760 1.501 . S
C756 C757 1.387 . S
C756 N759 1.341 . S
C757 C755 1.400 . S
C757 C756 1.387 . S
N758 Co749 2.022 . S
N758 C755 1.351 . S
N758 N759 1.365 . S
N759 C756 1.341 . S
N759 N758 1.365 . S
N759 H779 0.862 . S
C760 C755 1.501 . S
C760 H761 0.961 . S
C760 H762 0.961 . S
C760 H763 0.960 . S
H761 C760 0.961 . S
H762 C760 0.961 . S
H763 C760 0.960 . S
C764 N765 1.342 . S
C764 C768 1.401 . S
C764 C769 1.499 . S
N765 Co748 1.989 . S
N765 C764 1.342 . S
N765 N766 1.388 . S
N766 Co749 1.993 . S
N766 N765 1.388 . S
N766 C767 1.346 . S
C767 N766 1.346 . S
C767 C768 1.396 . S
C767 C777 1.510 . S
C768 C764 1.401 . S
C768 C767 1.396 . S
C769 C764 1.499 . S
C769 H770 0.959 . S
C769 H771 0.960 . S
C769 H772 0.961 . S
H770 C769 0.959 . S
H771 C769 0.960 . S
H772 C769 0.961 . S
O773 Co748 1.967 . S
O773 C781 1.258 . S
O774 Co749 1.941 . S
O774 C781 1.266 . S
H775 C777 0.959 . S
H776 C777 0.961 . S
C777 C767 1.510 . S
C777 H775 0.959 . S
C777 H776 0.961 . S
C777 H778 0.960 . S
H778 C777 0.960 . S
H779 N759 0.862 . S
O780 Co748 1.920 . S
O780 C753 1.289 . S
C781 O773 1.258 . S
C781 O774 1.266 . S
Co782 O785 1.970 . S
Co782 N799 1.989 . S
Co782 O807 1.967 . S
Co782 O814 1.920 . S
Co783 O786 1.966 . S
Co783 N792 2.022 . S
Co783 N800 1.993 . S
Co783 O808 1.941 . S
C784 O785 1.258 . S
C784 O786 1.263 . S
O785 Co782 1.970 . S
O785 C784 1.258 . S
O786 Co783 1.966 . S
O786 C784 1.263 . S
C787 O788 1.235 . S
C787 O814 1.289 . S
O788 C787 1.235 . S
C789 C791 1.400 . S
C789 N792 1.351 . S
C789 C794 1.501 . S
C790 C791 1.387 . S
C790 N793 1.341 . S
C791 C789 1.400 . S
C791 C790 1.387 . S
N792 Co783 2.022 . S
N792 C789 1.351 . S
N792 N793 1.365 . S
N793 C790 1.341 . S
N793 N792 1.365 . S
N793 H813 0.862 . S
C794 C789 1.501 . S
C794 H795 0.961 . S
C794 H796 0.961 . S
C794 H797 0.960 . S
H795 C794 0.961 . S
H796 C794 0.961 . S
H797 C794 0.960 . S
C798 N799 1.342 . S
C798 C802 1.401 . S
C798 C803 1.499 . S
N799 Co782 1.989 . S
N799 C798 1.342 . S
N799 N800 1.388 . S
N800 Co783 1.993 . S
N800 N799 1.388 . S
N800 C801 1.346 . S
C801 N800 1.346 . S
C801 C802 1.396 . S
C801 C811 1.510 . S
C802 C798 1.401 . S
C802 C801 1.396 . S
C803 C798 1.499 . S
C803 H804 0.959 . S
C803 H805 0.960 . S
C803 H806 0.961 . S
H804 C803 0.959 . S
H805 C803 0.960 . S
H806 C803 0.961 . S
O807 Co782 1.967 . S
O807 C815 1.258 . S
O808 Co783 1.941 . S
O808 C815 1.266 . S
H809 C811 0.959 . S
H810 C811 0.961 . S
C811 C801 1.510 . S
C811 H809 0.959 . S
C811 H810 0.961 . S
C811 H812 0.960 . S
H812 C811 0.960 . S
H813 N793 0.862 . S
O814 Co782 1.920 . S
O814 C787 1.289 . S
C815 O807 1.258 . S
C815 O808 1.266 . S
Co816 O819 1.970 . S
Co816 N833 1.989 . S
Co816 O841 1.967 . S
Co816 O848 1.920 . S
Co817 O820 1.966 . S
Co817 N826 2.022 . S
Co817 N834 1.993 . S
Co817 O842 1.941 . S
C818 O819 1.258 . S
C818 O820 1.263 . S
O819 Co816 1.970 . S
O819 C818 1.258 . S
O820 Co817 1.966 . S
O820 C818 1.263 . S
C821 O822 1.235 . S
C821 O848 1.289 . S
O822 C821 1.235 . S
C823 C825 1.400 . S
C823 N826 1.351 . S
C823 C828 1.501 1_554 S
C824 C825 1.387 . S
C824 N827 1.341 . S
C825 C823 1.400 . S
C825 C824 1.387 . S
N826 Co817 2.022 . S
N826 C823 1.351 . S
N826 N827 1.365 . S
N827 C824 1.341 . S
N827 N826 1.365 . S
N827 H847 0.862 . S
C828 C823 1.501 1_556 S
C828 H829 0.961 1_556 S
C828 H830 0.961 . S
C828 H831 0.960 . S
H829 C828 0.961 1_554 S
H830 C828 0.961 . S
H831 C828 0.960 . S
C832 N833 1.342 . S
C832 C836 1.401 . S
C832 C837 1.499 . S
N833 Co816 1.989 . S
N833 C832 1.342 . S
N833 N834 1.388 . S
N834 Co817 1.993 . S
N834 N833 1.388 . S
N834 C835 1.346 . S
C835 N834 1.346 . S
C835 C836 1.396 . S
C835 C845 1.510 . S
C836 C832 1.401 . S
C836 C835 1.396 . S
C837 C832 1.499 . S
C837 H838 0.959 . S
C837 H839 0.960 . S
C837 H840 0.961 . S
H838 C837 0.959 . S
H839 C837 0.960 . S
H840 C837 0.961 . S
O841 Co816 1.967 . S
O841 C849 1.258 . S
O842 Co817 1.941 . S
O842 C849 1.266 . S
H843 C845 0.959 . S
H844 C845 0.961 1_556 S
C845 C835 1.510 . S
C845 H843 0.959 . S
C845 H844 0.961 1_554 S
C845 H846 0.960 . S
H846 C845 0.960 . S
H847 N827 0.862 . S
O848 Co816 1.920 . S
O848 C821 1.289 . S
C849 O841 1.258 . S
C849 O842 1.266 . S
Co850 O853 1.970 . S
Co850 N867 1.989 . S
Co850 O875 1.967 . S
Co850 O882 1.920 . S
Co851 O854 1.966 . S
Co851 N860 2.022 . S
Co851 N868 1.993 . S
Co851 O876 1.941 . S
C852 O853 1.258 . S
C852 O854 1.263 . S
O853 Co850 1.970 . S
O853 C852 1.258 . S
O854 Co851 1.966 . S
O854 C852 1.263 . S
C855 O856 1.235 . S
C855 O882 1.289 . S
O856 C855 1.235 . S
C857 C859 1.400 . S
C857 N860 1.351 . S
C857 C862 1.501 1_554 S
C858 C859 1.387 . S
C858 N861 1.341 . S
C859 C857 1.400 . S
C859 C858 1.387 . S
N860 Co851 2.022 . S
N860 C857 1.351 . S
N860 N861 1.365 . S
N861 C858 1.341 . S
N861 N860 1.365 . S
N861 H881 0.862 . S
C862 C857 1.501 1_556 S
C862 H863 0.961 1_556 S
C862 H864 0.961 . S
C862 H865 0.960 . S
H863 C862 0.961 1_554 S
H864 C862 0.961 . S
H865 C862 0.960 . S
C866 N867 1.342 . S
C866 C870 1.401 . S
C866 C871 1.499 . S
N867 Co850 1.989 . S
N867 C866 1.342 . S
N867 N868 1.388 . S
N868 Co851 1.993 . S
N868 N867 1.388 . S
N868 C869 1.346 . S
C869 N868 1.346 . S
C869 C870 1.396 . S
C869 C879 1.510 . S
C870 C866 1.401 . S
C870 C869 1.396 . S
C871 C866 1.499 . S
C871 H872 0.959 . S
C871 H873 0.960 . S
C871 H874 0.961 . S
H872 C871 0.959 . S
H873 C871 0.960 . S
H874 C871 0.961 . S
O875 Co850 1.967 . S
O875 C883 1.258 . S
O876 Co851 1.941 . S
O876 C883 1.266 . S
H877 C879 0.959 . S
H878 C879 0.961 1_556 S
C879 C869 1.510 . S
C879 H877 0.959 . S
C879 H878 0.961 1_554 S
C879 H880 0.960 . S
H880 C879 0.960 . S
H881 N861 0.862 . S
O882 Co850 1.920 . S
O882 C855 1.289 . S
C883 O875 1.258 . S
C883 O876 1.266 . S
Co884 O887 1.970 . S
Co884 N901 1.989 . S
Co884 O909 1.967 . S
Co884 O916 1.920 . S
Co885 O888 1.966 . S
Co885 N894 2.022 . S
Co885 N902 1.993 . S
Co885 O910 1.941 . S
C886 O887 1.258 . S
C886 O888 1.263 . S
O887 Co884 1.970 . S
O887 C886 1.258 . S
O888 Co885 1.966 . S
O888 C886 1.263 . S
C889 O890 1.235 . S
C889 O916 1.289 . S
O890 C889 1.235 . S
C891 C893 1.400 . S
C891 N894 1.351 . S
C891 C896 1.501 . S
C892 C893 1.387 . S
C892 N895 1.341 . S
C893 C891 1.400 . S
C893 C892 1.387 . S
N894 Co885 2.022 . S
N894 C891 1.351 . S
N894 N895 1.365 . S
N895 C892 1.341 . S
N895 N894 1.365 . S
N895 H915 0.862 . S
C896 C891 1.501 . S
C896 H897 0.961 . S
C896 H898 0.961 . S
C896 H899 0.960 . S
H897 C896 0.961 . S
H898 C896 0.961 . S
H899 C896 0.960 . S
C900 N901 1.342 . S
C900 C904 1.401 . S
C900 C905 1.499 . S
N901 Co884 1.989 . S
N901 C900 1.342 . S
N901 N902 1.388 . S
N902 Co885 1.993 . S
N902 N901 1.388 . S
N902 C903 1.346 . S
C903 N902 1.346 . S
C903 C904 1.396 . S
C903 C913 1.510 . S
C904 C900 1.401 . S
C904 C903 1.396 . S
C905 C900 1.499 . S
C905 H906 0.959 . S
C905 H907 0.960 . S
C905 H908 0.961 . S
H906 C905 0.959 . S
H907 C905 0.960 . S
H908 C905 0.961 . S
O909 Co884 1.967 . S
O909 C917 1.258 . S
O910 Co885 1.941 . S
O910 C917 1.266 . S
H911 C913 0.959 . S
H912 C913 0.961 . S
C913 C903 1.510 . S
C913 H911 0.959 . S
C913 H912 0.961 . S
C913 H914 0.960 . S
H914 C913 0.960 . S
H915 N895 0.862 . S
O916 Co884 1.920 . S
O916 C889 1.289 . S
C917 O909 1.258 . S
C917 O910 1.266 . S
Co918 O921 1.970 . S
Co918 N935 1.989 . S
Co918 O943 1.967 . S
Co918 O950 1.920 . S
Co919 O922 1.966 . S
Co919 N928 2.022 . S
Co919 N936 1.993 . S
Co919 O944 1.941 . S
C920 O921 1.258 . S
C920 O922 1.263 . S
O921 Co918 1.970 . S
O921 C920 1.258 . S
O922 Co919 1.966 . S
O922 C920 1.263 . S
C923 O924 1.235 . S
C923 O950 1.289 . S
O924 C923 1.235 . S
C925 C927 1.400 . S
C925 N928 1.351 . S
C925 C930 1.501 . S
C926 C927 1.387 . S
C926 N929 1.341 . S
C927 C925 1.400 . S
C927 C926 1.387 . S
N928 Co919 2.022 . S
N928 C925 1.351 . S
N928 N929 1.365 . S
N929 C926 1.341 . S
N929 N928 1.365 . S
N929 H949 0.862 . S
C930 C925 1.501 . S
C930 H931 0.961 . S
C930 H932 0.961 . S
C930 H933 0.960 . S
H931 C930 0.961 . S
H932 C930 0.961 . S
H933 C930 0.960 . S
C934 N935 1.342 . S
C934 C938 1.401 . S
C934 C939 1.499 . S
N935 Co918 1.989 . S
N935 C934 1.342 . S
N935 N936 1.388 . S
N936 Co919 1.993 . S
N936 N935 1.388 . S
N936 C937 1.346 . S
C937 N936 1.346 . S
C937 C938 1.396 . S
C937 C947 1.510 . S
C938 C934 1.401 . S
C938 C937 1.396 . S
C939 C934 1.499 . S
C939 H940 0.959 . S
C939 H941 0.960 . S
C939 H942 0.961 . S
H940 C939 0.959 . S
H941 C939 0.960 . S
H942 C939 0.961 . S
O943 Co918 1.967 . S
O943 C951 1.258 . S
O944 Co919 1.941 . S
O944 C951 1.266 . S
H945 C947 0.959 . S
H946 C947 0.961 . S
C947 C937 1.510 . S
C947 H945 0.959 . S
C947 H946 0.961 . S
C947 H948 0.960 . S
H948 C947 0.960 . S
H949 N929 0.862 . S
O950 Co918 1.920 . S
O950 C923 1.289 . S
C951 O943 1.258 . S
C951 O944 1.266 . S
Co952 O955 1.970 . S
Co952 N969 1.989 . S
Co952 O977 1.967 . S
Co952 O984 1.920 . S
Co953 O956 1.966 . S
Co953 N962 2.022 . S
Co953 N970 1.993 . S
Co953 O978 1.941 . S
C954 O955 1.258 . S
C954 O956 1.263 . S
O955 Co952 1.970 . S
O955 C954 1.258 . S
O956 Co953 1.966 . S
O956 C954 1.263 . S
C957 O958 1.235 . S
C957 O984 1.289 . S
O958 C957 1.235 . S
C959 C961 1.400 . S
C959 N962 1.351 . S
C959 C964 1.501 1_556 S
C960 C961 1.387 . S
C960 N963 1.341 . S
C961 C959 1.400 . S
C961 C960 1.387 . S
N962 Co953 2.022 . S
N962 C959 1.351 . S
N962 N963 1.365 . S
N963 C960 1.341 . S
N963 N962 1.365 . S
N963 H983 0.862 . S
C964 C959 1.501 1_554 S
C964 H965 0.961 1_554 S
C964 H966 0.961 . S
C964 H967 0.960 . S
H965 C964 0.961 1_556 S
H966 C964 0.961 . S
H967 C964 0.960 . S
C968 N969 1.342 . S
C968 C972 1.401 . S
C968 C973 1.499 . S
N969 Co952 1.989 . S
N969 C968 1.342 . S
N969 N970 1.388 . S
N970 Co953 1.993 . S
N970 N969 1.388 . S
N970 C971 1.346 . S
C971 N970 1.346 . S
C971 C972 1.396 . S
C971 C981 1.510 . S
C972 C968 1.401 . S
C972 C971 1.396 . S
C973 C968 1.499 . S
C973 H974 0.959 . S
C973 H975 0.960 . S
C973 H976 0.961 . S
H974 C973 0.959 . S
H975 C973 0.960 . S
H976 C973 0.961 . S
O977 Co952 1.967 . S
O977 C985 1.258 . S
O978 Co953 1.941 . S
O978 C985 1.266 . S
H979 C981 0.959 . S
H980 C981 0.961 1_554 S
C981 C971 1.510 . S
C981 H979 0.959 . S
C981 H980 0.961 1_556 S
C981 H982 0.960 . S
H982 C981 0.960 . S
H983 N963 0.862 . S
O984 Co952 1.920 . S
O984 C957 1.289 . S
C985 O977 1.258 . S
C985 O978 1.266 . S
Co986 O989 1.970 . S
Co986 N1003 1.989 . S
Co986 O1011 1.967 . S
Co986 O1018 1.920 . S
Co987 O990 1.966 . S
Co987 N996 2.022 . S
Co987 N1004 1.993 . S
Co987 O1012 1.941 . S
C988 O989 1.258 . S
C988 O990 1.263 . S
O989 Co986 1.970 . S
O989 C988 1.258 . S
O990 Co987 1.966 . S
O990 C988 1.263 . S
C991 O992 1.235 . S
C991 O1018 1.289 . S
O992 C991 1.235 . S
C993 C995 1.400 . S
C993 N996 1.351 . S
C993 C998 1.501 1_556 S
C994 C995 1.387 . S
C994 N997 1.341 . S
C995 C993 1.400 . S
C995 C994 1.387 . S
N996 Co987 2.022 . S
N996 C993 1.351 . S
N996 N997 1.365 . S
N997 C994 1.341 . S
N997 N996 1.365 . S
N997 H1017 0.862 . S
C998 C993 1.501 1_554 S
C998 H999 0.961 1_554 S
C998 H1000 0.961 . S
C998 H1001 0.960 . S
H999 C998 0.961 1_556 S
H1000 C998 0.961 . S
H1001 C998 0.960 . S
C1002 N1003 1.342 . S
C1002 C1006 1.401 . S
C1002 C1007 1.499 . S
N1003 Co986 1.989 . S
N1003 C1002 1.342 . S
N1003 N1004 1.388 . S
N1004 Co987 1.993 . S
N1004 N1003 1.388 . S
N1004 C1005 1.346 . S
C1005 N1004 1.346 . S
C1005 C1006 1.396 . S
C1005 C1015 1.510 . S
C1006 C1002 1.401 . S
C1006 C1005 1.396 . S
C1007 C1002 1.499 . S
C1007 H1008 0.959 . S
C1007 H1009 0.960 . S
C1007 H1010 0.961 . S
H1008 C1007 0.959 . S
H1009 C1007 0.960 . S
H1010 C1007 0.961 . S
O1011 Co986 1.967 . S
O1011 C1019 1.258 . S
O1012 Co987 1.941 . S
O1012 C1019 1.266 . S
H1013 C1015 0.959 . S
H1014 C1015 0.961 1_554 S
C1015 C1005 1.510 . S
C1015 H1013 0.959 . S
C1015 H1014 0.961 1_556 S
C1015 H1016 0.960 . S
H1016 C1015 0.960 . S
H1017 N997 0.862 . S
O1018 Co986 1.920 . S
O1018 C991 1.289 . S
C1019 O1011 1.258 . S
C1019 O1012 1.266 . S
Co1020 O1023 1.970 . S
Co1020 N1037 1.989 . S
Co1020 O1045 1.967 . S
Co1020 O1052 1.920 . S
Co1021 O1024 1.966 . S
Co1021 N1030 2.022 . S
Co1021 N1038 1.993 . S
Co1021 O1046 1.941 . S
C1022 O1023 1.258 . S
C1022 O1024 1.263 . S
O1023 Co1020 1.970 . S
O1023 C1022 1.258 . S
O1024 Co1021 1.966 . S
O1024 C1022 1.263 . S
C1025 O1026 1.235 . S
C1025 O1052 1.289 . S
O1026 C1025 1.235 . S
C1027 C1029 1.400 . S
C1027 N1030 1.351 . S
C1027 C1032 1.501 . S
C1028 C1029 1.387 . S
C1028 N1031 1.341 . S
C1029 C1027 1.400 . S
C1029 C1028 1.387 . S
N1030 Co1021 2.022 . S
N1030 C1027 1.351 . S
N1030 N1031 1.365 . S
N1031 C1028 1.341 . S
N1031 N1030 1.365 . S
N1031 H1051 0.862 . S
C1032 C1027 1.501 . S
C1032 H1033 0.961 . S
C1032 H1034 0.961 . S
C1032 H1035 0.960 . S
H1033 C1032 0.961 . S
H1034 C1032 0.961 . S
H1035 C1032 0.960 . S
C1036 N1037 1.342 . S
C1036 C1040 1.401 . S
C1036 C1041 1.499 . S
N1037 Co1020 1.989 . S
N1037 C1036 1.342 . S
N1037 N1038 1.388 . S
N1038 Co1021 1.993 . S
N1038 N1037 1.388 . S
N1038 C1039 1.346 . S
C1039 N1038 1.346 . S
C1039 C1040 1.396 . S
C1039 C1049 1.510 . S
C1040 C1036 1.401 . S
C1040 C1039 1.396 . S
C1041 C1036 1.499 . S
C1041 H1042 0.959 . S
C1041 H1043 0.960 . S
C1041 H1044 0.961 . S
H1042 C1041 0.959 . S
H1043 C1041 0.960 . S
H1044 C1041 0.961 . S
O1045 Co1020 1.967 . S
O1045 C1053 1.258 . S
O1046 Co1021 1.941 . S
O1046 C1053 1.266 . S
H1047 C1049 0.959 . S
H1048 C1049 0.961 . S
C1049 C1039 1.510 . S
C1049 H1047 0.959 . S
C1049 H1048 0.961 . S
C1049 H1050 0.960 . S
H1050 C1049 0.960 . S
H1051 N1031 0.862 . S
O1052 Co1020 1.920 . S
O1052 C1025 1.289 . S
C1053 O1045 1.258 . S
C1053 O1046 1.266 . S
Co1054 O1057 1.970 . S
Co1054 N1071 1.989 . S
Co1054 O1079 1.967 . S
Co1054 O1086 1.920 . S
Co1055 O1058 1.966 . S
Co1055 N1064 2.022 . S
Co1055 N1072 1.993 . S
Co1055 O1080 1.941 . S
C1056 O1057 1.258 . S
C1056 O1058 1.263 . S
O1057 Co1054 1.970 . S
O1057 C1056 1.258 . S
O1058 Co1055 1.966 . S
O1058 C1056 1.263 . S
C1059 O1060 1.235 . S
C1059 O1086 1.289 . S
O1060 C1059 1.235 . S
C1061 C1063 1.400 . S
C1061 N1064 1.351 . S
C1061 C1066 1.501 . S
C1062 C1063 1.387 . S
C1062 N1065 1.341 . S
C1063 C1061 1.400 . S
C1063 C1062 1.387 . S
N1064 Co1055 2.022 . S
N1064 C1061 1.351 . S
N1064 N1065 1.365 . S
N1065 C1062 1.341 . S
N1065 N1064 1.365 . S
N1065 H1085 0.862 . S
C1066 C1061 1.501 . S
C1066 H1067 0.961 . S
C1066 H1068 0.961 . S
C1066 H1069 0.960 . S
H1067 C1066 0.961 . S
H1068 C1066 0.961 . S
H1069 C1066 0.960 . S
C1070 N1071 1.342 . S
C1070 C1074 1.401 . S
C1070 C1075 1.499 . S
N1071 Co1054 1.989 . S
N1071 C1070 1.342 . S
N1071 N1072 1.388 . S
N1072 Co1055 1.993 . S
N1072 N1071 1.388 . S
N1072 C1073 1.346 . S
C1073 N1072 1.346 . S
C1073 C1074 1.396 . S
C1073 C1083 1.510 . S
C1074 C1070 1.401 . S
C1074 C1073 1.396 . S
C1075 C1070 1.499 . S
C1075 H1076 0.959 . S
C1075 H1077 0.960 . S
C1075 H1078 0.961 . S
H1076 C1075 0.959 . S
H1077 C1075 0.960 . S
H1078 C1075 0.961 . S
O1079 Co1054 1.967 . S
O1079 C1087 1.258 . S
O1080 Co1055 1.941 . S
O1080 C1087 1.266 . S
H1081 C1083 0.959 . S
H1082 C1083 0.961 . S
C1083 C1073 1.510 . S
C1083 H1081 0.959 . S
C1083 H1082 0.961 . S
C1083 H1084 0.960 . S
H1084 C1083 0.960 . S
H1085 N1065 0.862 . S
O1086 Co1054 1.920 . S
O1086 C1059 1.289 . S
C1087 O1079 1.258 . S
C1087 O1080 1.266 . S
H1088 C1094 0.930 1_566 S
H1089 C1097 0.930 . S
H1090 C1098 0.930 . S
H1091 C1099 0.930 1_544 S
H1092 C1102 0.930 . S
H1093 C1103 0.930 . S
C1094 H1088 0.930 1_544 S
C1094 C1095 1.355 . S
C1094 C1096 1.415 1_544 S
C1095 C1094 1.355 . S
C1095 C1097 1.419 . S
C1096 C1094 1.415 1_566 S
C1096 C1101 1.425 1_566 S
C1096 C1103 1.409 . S
C1097 H1089 0.930 . S
C1097 C1095 1.419 . S
C1097 C1098 1.362 . S
C1098 H1090 0.930 . S
C1098 C1097 1.362 . S
C1098 C1101 1.409 . S
C1099 H1091 0.930 1_566 S
C1099 C1100 1.355 . S
C1099 C1101 1.415 1_566 S
C1100 C1099 1.355 . S
C1100 C1102 1.419 . S
C1101 C1096 1.425 1_544 S
C1101 C1098 1.409 . S
C1101 C1099 1.415 1_544 S
C1102 H1092 0.930 . S
C1102 C1100 1.419 . S
C1102 C1103 1.362 . S
C1103 H1093 0.930 . S
C1103 C1096 1.409 . S
C1103 C1102 1.362 . S
H1104 C1110 0.930 . S
H1105 C1113 0.930 . S
H1106 C1114 0.930 . S
H1107 C1115 0.930 . S
H1108 C1118 0.930 . S
H1109 C1119 0.930 . S
C1110 H1104 0.930 . S
C1110 C1111 1.355 1_554 S
C1110 C1112 1.415 . S
C1111 C1110 1.355 1_556 S
C1111 C1113 1.419 . S
C1112 C1110 1.415 . S
C1112 C1117 1.425 1_554 S
C1112 C1119 1.409 . S
C1113 H1105 0.930 . S
C1113 C1111 1.419 . S
C1113 C1114 1.362 . S
C1114 H1106 0.930 . S
C1114 C1113 1.362 . S
C1114 C1117 1.409 . S
C1115 H1107 0.930 . S
C1115 C1116 1.355 1_556 S
C1115 C1117 1.415 . S
C1116 C1115 1.355 1_554 S
C1116 C1118 1.419 . S
C1117 C1112 1.425 1_556 S
C1117 C1114 1.409 . S
C1117 C1115 1.415 . S
C1118 H1108 0.930 . S
C1118 C1116 1.419 . S
C1118 C1119 1.362 . S
C1119 H1109 0.930 . S
C1119 C1112 1.409 . S
C1119 C1118 1.362 . S
H1120 C1126 0.930 . S
H1121 C1129 0.930 . S
H1122 C1130 0.930 . S
H1123 C1131 0.930 . S
H1124 C1134 0.930 . S
H1125 C1135 0.930 . S
C1126 H1120 0.930 . S
C1126 C1127 1.355 . S
C1126 C1128 1.415 . S
C1127 C1126 1.355 . S
C1127 C1129 1.419 . S
C1128 C1126 1.415 . S
C1128 C1133 1.425 . S
C1128 C1135 1.409 . S
C1129 H1121 0.930 . S
C1129 C1127 1.419 . S
C1129 C1130 1.362 . S
C1130 H1122 0.930 . S
C1130 C1129 1.362 . S
C1130 C1133 1.409 . S
C1131 H1123 0.930 . S
C1131 C1132 1.355 . S
C1131 C1133 1.415 . S
C1132 C1131 1.355 . S
C1132 C1134 1.419 . S
C1133 C1128 1.425 . S
C1133 C1130 1.409 . S
C1133 C1131 1.415 . S
C1134 H1124 0.930 . S
C1134 C1132 1.419 . S
C1134 C1135 1.362 . S
C1135 H1125 0.930 . S
C1135 C1128 1.409 . S
C1135 C1134 1.362 . S
H1136 C1142 0.930 . S
H1137 C1145 0.930 . S
H1138 C1146 0.930 . S
H1139 C1147 0.930 . S
H1140 C1150 0.930 . S
H1141 C1151 0.930 . S
C1142 H1136 0.930 . S
C1142 C1143 1.355 . S
C1142 C1144 1.415 . S
C1143 C1142 1.355 . S
C1143 C1145 1.419 1_545 S
C1144 C1142 1.415 . S
C1144 C1149 1.425 1_545 S
C1144 C1151 1.409 . S
C1145 H1137 0.930 . S
C1145 C1143 1.419 1_565 S
C1145 C1146 1.362 . S
C1146 H1138 0.930 . S
C1146 C1145 1.362 . S
C1146 C1149 1.409 . S
C1147 H1139 0.930 . S
C1147 C1148 1.355 . S
C1147 C1149 1.415 . S
C1148 C1147 1.355 . S
C1148 C1150 1.419 1_565 S
C1149 C1144 1.425 1_565 S
C1149 C1146 1.409 . S
C1149 C1147 1.415 . S
C1150 H1140 0.930 . S
C1150 C1148 1.419 1_545 S
C1150 C1151 1.362 . S
C1151 H1141 0.930 . S
C1151 C1144 1.409 . S
C1151 C1150 1.362 . S
H1152 C1158 0.900 1_556 S
H1153 C1161 0.930 . S
H1154 C1162 0.930 . S
H1155 C1163 0.900 1_554 S
H1156 C1166 0.930 . S
H1157 C1167 0.930 . S
C1158 H1152 0.900 1_554 S
C1158 C1159 1.404 . S
C1158 C1160 1.397 1_554 S
C1159 C1158 1.404 . S
C1159 C1161 1.419 . S
C1160 C1158 1.397 1_556 S
C1160 C1165 1.425 1_556 S
C1160 C1167 1.409 . S
C1161 H1153 0.930 . S
C1161 C1159 1.419 . S
C1161 C1162 1.362 . S
C1162 H1154 0.930 . S
C1162 C1161 1.362 . S
C1162 C1165 1.409 . S
C1163 H1155 0.900 1_556 S
C1163 C1164 1.404 . S
C1163 C1165 1.397 1_556 S
C1164 C1163 1.404 . S
C1164 C1166 1.419 . S
C1165 C1160 1.425 1_554 S
C1165 C1162 1.409 . S
C1165 C1163 1.397 1_554 S
C1166 H1156 0.930 . S
C1166 C1164 1.419 . S
C1166 C1167 1.362 . S
C1167 H1157 0.930 . S
C1167 C1160 1.409 . S
C1167 C1166 1.362 . S
H1168 C1174 0.930 . S
H1169 C1177 0.930 . S
H1170 C1178 0.930 . S
H1171 C1179 0.930 . S
H1172 C1182 0.930 . S
H1173 C1183 0.930 . S
C1174 H1168 0.930 . S
C1174 C1175 1.355 . S
C1174 C1176 1.415 . S
C1175 C1174 1.355 . S
C1175 C1177 1.419 . S
C1176 C1174 1.415 . S
C1176 C1181 1.425 . S
C1176 C1183 1.409 . S
C1177 H1169 0.930 . S
C1177 C1175 1.419 . S
C1177 C1178 1.362 . S
C1178 H1170 0.930 . S
C1178 C1177 1.362 . S
C1178 C1181 1.409 . S
C1179 H1171 0.930 . S
C1179 C1180 1.355 . S
C1179 C1181 1.415 . S
C1180 C1179 1.355 . S
C1180 C1182 1.419 . S
C1181 C1176 1.425 . S
C1181 C1178 1.409 . S
C1181 C1179 1.415 . S
C1182 H1172 0.930 . S
C1182 C1180 1.419 . S
C1182 C1183 1.362 . S
C1183 H1173 0.930 . S
C1183 C1176 1.409 . S
C1183 C1182 1.362 . S
H1184 C1190 0.930 . S
H1185 C1193 0.930 . S
H1186 C1194 0.930 . S
H1187 C1195 0.930 . S
H1188 C1198 0.930 . S
H1189 C1199 0.930 . S
C1190 H1184 0.930 . S
C1190 C1191 1.355 . S
C1190 C1192 1.415 1_545 S
C1191 C1190 1.355 . S
C1191 C1193 1.419 . S
C1192 C1190 1.415 1_565 S
C1192 C1197 1.425 1_565 S
C1192 C1199 1.409 . S
C1193 H1185 0.930 . S
C1193 C1191 1.419 . S
C1193 C1194 1.362 . S
C1194 H1186 0.930 . S
C1194 C1193 1.362 . S
C1194 C1197 1.409 . S
C1195 H1187 0.930 . S
C1195 C1196 1.355 . S
C1195 C1197 1.415 1_565 S
C1196 C1195 1.355 . S
C1196 C1198 1.419 . S
C1197 C1192 1.425 1_545 S
C1197 C1194 1.409 . S
C1197 C1195 1.415 1_545 S
C1198 H1188 0.930 . S
C1198 C1196 1.419 . S
C1198 C1199 1.362 . S
C1199 H1189 0.930 . S
C1199 C1192 1.409 . S
C1199 C1198 1.362 . S
H1200 C1206 0.930 . S
H1201 C1209 0.930 . S
H1202 C1210 0.930 . S
H1203 C1211 0.930 . S
H1204 C1214 0.930 . S
H1205 C1215 0.930 . S
C1206 H1200 0.930 . S
C1206 C1207 1.355 . S
C1206 C1208 1.415 . S
C1207 C1206 1.355 . S
C1207 C1209 1.419 . S
C1208 C1206 1.415 . S
C1208 C1213 1.425 . S
C1208 C1215 1.409 . S
C1209 H1201 0.930 . S
C1209 C1207 1.419 . S
C1209 C1210 1.362 . S
C1210 H1202 0.930 . S
C1210 C1209 1.362 . S
C1210 C1213 1.409 . S
C1211 H1203 0.930 . S
C1211 C1212 1.355 . S
C1211 C1213 1.415 . S
C1212 C1211 1.355 . S
C1212 C1214 1.419 . S
C1213 C1208 1.425 . S
C1213 C1210 1.409 . S
C1213 C1211 1.415 . S
C1214 H1204 0.930 . S
C1214 C1212 1.419 . S
C1214 C1215 1.362 . S
C1215 H1205 0.930 . S
C1215 C1208 1.409 . S
C1215 C1214 1.362 . S
H1216 C1222 0.930 . S
H1217 C1225 0.930 . S
H1218 C1226 0.930 . S
H1219 C1227 0.930 . S
H1220 C1230 0.930 . S
H1221 C1231 0.930 . S
C1222 H1216 0.930 . S
C1222 C1223 1.355 . S
C1222 C1224 1.415 . S
C1223 C1222 1.355 . S
C1223 C1225 1.419 . S
C1224 C1222 1.415 . S
C1224 C1229 1.425 . S
C1224 C1231 1.409 . S
C1225 H1217 0.930 . S
C1225 C1223 1.419 . S
C1225 C1226 1.362 . S
C1226 H1218 0.930 . S
C1226 C1225 1.362 . S
C1226 C1229 1.409 . S
C1227 H1219 0.930 . S
C1227 C1228 1.355 . S
C1227 C1229 1.415 . S
C1228 C1227 1.355 . S
C1228 C1230 1.419 . S
C1229 C1224 1.425 . S
C1229 C1226 1.409 . S
C1229 C1227 1.415 . S
C1230 H1220 0.930 . S
C1230 C1228 1.419 . S
C1230 C1231 1.362 . S
C1231 H1221 0.930 . S
C1231 C1224 1.409 . S
C1231 C1230 1.362 . S
H1232 C1238 0.930 . S
H1233 C1241 0.930 . S
H1234 C1242 0.930 . S
H1235 C1243 0.930 . S
H1236 C1246 0.930 . S
H1237 C1247 0.930 . S
C1238 H1232 0.930 . S
C1238 C1239 1.355 . S
C1238 C1240 1.415 . S
C1239 C1238 1.355 . S
C1239 C1241 1.419 . S
C1240 C1238 1.415 . S
C1240 C1245 1.425 . S
C1240 C1247 1.409 . S
C1241 H1233 0.930 . S
C1241 C1239 1.419 . S
C1241 C1242 1.362 . S
C1242 H1234 0.930 . S
C1242 C1241 1.362 . S
C1242 C1245 1.409 . S
C1243 H1235 0.930 . S
C1243 C1244 1.355 . S
C1243 C1245 1.415 . S
C1244 C1243 1.355 . S
C1244 C1246 1.419 . S
C1245 C1240 1.425 . S
C1245 C1242 1.409 . S
C1245 C1243 1.415 . S
C1246 H1236 0.930 . S
C1246 C1244 1.419 . S
C1246 C1247 1.362 . S
C1247 H1237 0.930 . S
C1247 C1240 1.409 . S
C1247 C1246 1.362 . S
H1248 C1254 0.930 . S
H1249 C1257 0.930 . S
H1250 C1258 0.930 . S
H1251 C1259 0.930 . S
H1252 C1262 0.930 . S
H1253 C1263 0.930 . S
C1254 H1248 0.930 . S
C1254 C1255 1.355 . S
C1254 C1256 1.415 . S
C1255 C1254 1.355 . S
C1255 C1257 1.419 . S
C1256 C1254 1.415 . S
C1256 C1261 1.425 . S
C1256 C1263 1.409 . S
C1257 H1249 0.930 . S
C1257 C1255 1.419 . S
C1257 C1258 1.362 . S
C1258 H1250 0.930 . S
C1258 C1257 1.362 . S
C1258 C1261 1.409 . S
C1259 H1251 0.930 . S
C1259 C1260 1.355 . S
C1259 C1261 1.415 . S
C1260 C1259 1.355 . S
C1260 C1262 1.419 . S
C1261 C1256 1.425 . S
C1261 C1258 1.409 . S
C1261 C1259 1.415 . S
C1262 H1252 0.930 . S
C1262 C1260 1.419 . S
C1262 C1263 1.362 . S
C1263 H1253 0.930 . S
C1263 C1256 1.409 . S
C1263 C1262 1.362 . S
H1264 C1270 0.930 . S
H1265 C1273 0.930 . S
H1266 C1274 0.930 . S
H1267 C1275 0.930 . S
H1268 C1278 0.930 . S
H1269 C1279 0.930 . S
C1270 H1264 0.930 . S
C1270 C1271 1.355 . S
C1270 C1272 1.415 . S
C1271 C1270 1.355 . S
C1271 C1273 1.419 . S
C1272 C1270 1.415 . S
C1272 C1277 1.425 . S
C1272 C1279 1.409 . S
C1273 H1265 0.930 . S
C1273 C1271 1.419 . S
C1273 C1274 1.362 . S
C1274 H1266 0.930 . S
C1274 C1273 1.362 . S
C1274 C1277 1.409 . S
C1275 H1267 0.930 . S
C1275 C1276 1.355 . S
C1275 C1277 1.415 . S
C1276 C1275 1.355 . S
C1276 C1278 1.419 . S
C1277 C1272 1.425 . S
C1277 C1274 1.409 . S
C1277 C1275 1.415 . S
C1278 H1268 0.930 . S
C1278 C1276 1.419 . S
C1278 C1279 1.362 . S
C1279 H1269 0.930 . S
C1279 C1272 1.409 . S
C1279 C1278 1.362 . S
H1280 C1286 0.930 . S
H1281 C1289 0.930 . S
H1282 C1290 0.930 . S
H1283 C1291 0.930 . S
H1284 C1294 0.930 . S
H1285 C1295 0.930 . S
C1286 H1280 0.930 . S
C1286 C1287 1.355 . S
C1286 C1288 1.415 1_565 S
C1287 C1286 1.355 . S
C1287 C1289 1.419 . S
C1288 C1286 1.415 1_545 S
C1288 C1293 1.425 1_445 S
C1288 C1295 1.409 . S
C1289 H1281 0.930 . S
C1289 C1287 1.419 . S
C1289 C1290 1.362 1_455 S
C1290 H1282 0.930 . S
C1290 C1289 1.362 1_655 S
C1290 C1293 1.409 . S
C1291 H1283 0.930 . S
C1291 C1292 1.355 . S
C1291 C1293 1.415 1_545 S
C1292 C1291 1.355 . S
C1292 C1294 1.419 . S
C1293 C1288 1.425 1_665 S
C1293 C1290 1.409 . S
C1293 C1291 1.415 1_565 S
C1294 H1284 0.930 . S
C1294 C1292 1.419 . S
C1294 C1295 1.362 1_655 S
C1295 H1285 0.930 . S
C1295 C1288 1.409 . S
C1295 C1294 1.362 1_455 S
H1296 C1302 0.930 . S
H1297 C1305 0.930 . S
H1298 C1306 0.930 . S
H1299 C1307 0.930 . S
H1300 C1310 0.930 . S
H1301 C1311 0.930 . S
C1302 H1296 0.930 . S
C1302 C1303 1.355 . S
C1302 C1304 1.415 . S
C1303 C1302 1.355 . S
C1303 C1305 1.419 . S
C1304 C1302 1.415 . S
C1304 C1309 1.425 1_455 S
C1304 C1311 1.409 1_455 S
C1305 H1297 0.930 . S
C1305 C1303 1.419 . S
C1305 C1306 1.362 . S
C1306 H1298 0.930 . S
C1306 C1305 1.362 . S
C1306 C1309 1.409 1_455 S
C1307 H1299 0.930 . S
C1307 C1308 1.355 . S
C1307 C1309 1.415 . S
C1308 C1307 1.355 . S
C1308 C1310 1.419 . S
C1309 C1304 1.425 1_655 S
C1309 C1306 1.409 1_655 S
C1309 C1307 1.415 . S
C1310 H1300 0.930 . S
C1310 C1308 1.419 . S
C1310 C1311 1.362 . S
C1311 H1301 0.930 . S
C1311 C1304 1.409 1_655 S
C1311 C1310 1.362 . S
H1312 C1318 0.930 . S
H1313 C1321 0.930 . S
H1314 C1322 0.930 . S
H1315 C1323 0.930 . S
H1316 C1326 0.930 . S
H1317 C1327 0.930 . S
C1318 H1312 0.930 . S
C1318 C1319 1.355 . S
C1318 C1320 1.415 1_455 S
C1319 C1318 1.355 . S
C1319 C1321 1.419 . S
C1320 C1318 1.415 1_655 S
C1320 C1325 1.425 1_655 S
C1320 C1327 1.409 . S
C1321 H1313 0.930 . S
C1321 C1319 1.419 . S
C1321 C1322 1.362 . S
C1322 H1314 0.930 . S
C1322 C1321 1.362 . S
C1322 C1325 1.409 . S
C1323 H1315 0.930 . S
C1323 C1324 1.355 . S
C1323 C1325 1.415 1_655 S
C1324 C1323 1.355 . S
C1324 C1326 1.419 . S
C1325 C1320 1.425 1_455 S
C1325 C1322 1.409 . S
C1325 C1323 1.415 1_455 S
C1326 H1316 0.930 . S
C1326 C1324 1.419 . S
C1326 C1327 1.362 . S
C1327 H1317 0.930 . S
C1327 C1320 1.409 . S
C1327 C1326 1.362 . S
H1328 C1334 0.930 . S
H1329 C1337 0.930 . S
H1330 C1338 0.930 . S
H1331 C1339 0.930 . S
H1332 C1342 0.930 . S
H1333 C1343 0.930 . S
C1334 H1328 0.930 . S
C1334 C1335 1.355 . S
C1334 C1336 1.395 1_456 S
C1335 C1334 1.355 . S
C1335 C1337 1.419 . S
C1336 C1334 1.395 1_654 S
C1336 C1341 1.420 1_654 S
C1336 C1343 1.435 . S
C1337 H1329 0.930 . S
C1337 C1335 1.419 . S
C1337 C1338 1.362 . S
C1338 H1330 0.930 . S
C1338 C1337 1.362 . S
C1338 C1341 1.435 . S
C1339 H1331 0.930 . S
C1339 C1340 1.355 . S
C1339 C1341 1.395 1_654 S
C1340 C1339 1.355 . S
C1340 C1342 1.419 . S
C1341 C1336 1.420 1_456 S
C1341 C1338 1.435 . S
C1341 C1339 1.395 1_456 S
C1342 H1332 0.930 . S
C1342 C1340 1.419 . S
C1342 C1343 1.362 . S
C1343 H1333 0.930 . S
C1343 C1336 1.435 . S
C1343 C1342 1.362 . S
H1344 C1350 0.930 . S
H1345 C1353 0.930 . S
H1346 C1354 0.930 . S
H1347 C1355 0.930 . S
H1348 C1358 0.930 . S
H1349 C1359 0.930 . S
C1350 H1344 0.930 . S
C1350 C1351 1.355 . S
C1350 C1352 1.415 . S
C1351 C1350 1.355 . S
C1351 C1353 1.419 . S
C1352 C1350 1.415 . S
C1352 C1357 1.425 . S
C1352 C1359 1.409 . S
C1353 H1345 0.930 . S
C1353 C1351 1.419 . S
C1353 C1354 1.362 . S
C1354 H1346 0.930 . S
C1354 C1353 1.362 . S
C1354 C1357 1.409 . S
C1355 H1347 0.930 . S
C1355 C1356 1.355 . S
C1355 C1357 1.415 . S
C1356 C1355 1.355 . S
C1356 C1358 1.419 . S
C1357 C1352 1.425 . S
C1357 C1354 1.409 . S
C1357 C1355 1.415 . S
C1358 H1348 0.930 . S
C1358 C1356 1.419 . S
C1358 C1359 1.362 . S
C1359 H1349 0.930 . S
C1359 C1352 1.409 . S
C1359 C1358 1.362 . S
H1360 C1366 0.930 . S
H1361 C1369 0.930 1_455 S
H1362 C1370 0.930 . S
H1363 C1371 0.925 1_455 S
H1364 C1374 0.930 . S
H1365 C1375 0.930 . S
C1366 H1360 0.930 . S
C1366 C1367 1.355 . S
C1366 C1368 1.415 . S
C1367 C1366 1.355 . S
C1367 C1369 1.419 . S
C1368 C1366 1.415 . S
C1368 C1373 1.425 . S
C1368 C1375 1.409 . S
C1369 H1361 0.930 1_655 S
C1369 C1367 1.419 . S
C1369 C1370 1.362 1_655 S
C1370 H1362 0.930 . S
C1370 C1369 1.362 1_455 S
C1370 C1373 1.409 1_455 S
C1371 H1363 0.925 1_655 S
C1371 C1372 1.355 . S
C1371 C1373 1.415 . S
C1372 C1371 1.355 . S
C1372 C1374 1.419 . S
C1373 C1368 1.425 . S
C1373 C1370 1.409 1_655 S
C1373 C1371 1.415 . S
C1374 H1364 0.930 . S
C1374 C1372 1.419 . S
C1374 C1375 1.362 . S
C1375 H1365 0.930 . S
C1375 C1368 1.409 . S
C1375 C1374 1.362 . S
H1376 C1382 0.930 . S
H1377 C1385 0.930 . S
H1378 C1386 0.930 . S
H1379 C1387 0.930 . S
H1380 C1390 0.930 . S
H1381 C1391 0.930 . S
C1382 H1376 0.930 . S
C1382 C1383 1.355 . S
C1382 C1384 1.415 . S
C1383 C1382 1.355 . S
C1383 C1385 1.419 . S
C1384 C1382 1.415 . S
C1384 C1389 1.425 . S
C1384 C1391 1.409 . S
C1385 H1377 0.930 . S
C1385 C1383 1.419 . S
C1385 C1386 1.362 . S
C1386 H1378 0.930 . S
C1386 C1385 1.362 . S
C1386 C1389 1.409 . S
C1387 H1379 0.930 . S
C1387 C1388 1.355 . S
C1387 C1389 1.415 . S
C1388 C1387 1.355 . S
C1388 C1390 1.419 . S
C1389 C1384 1.425 . S
C1389 C1386 1.409 . S
C1389 C1387 1.415 . S
C1390 H1380 0.930 . S
C1390 C1388 1.419 . S
C1390 C1391 1.362 . S
C1391 H1381 0.930 . S
C1391 C1384 1.409 . S
C1391 C1390 1.362 . S
H1392 C1398 0.930 . S
H1393 C1401 0.930 1_655 S
H1394 C1402 0.930 1_655 S
H1395 C1403 0.930 . S
H1396 C1406 0.930 . S
H1397 C1407 0.930 . S
C1398 H1392 0.930 . S
C1398 C1399 1.355 . S
C1398 C1400 1.415 . S
C1399 C1398 1.355 . S
C1399 C1401 1.419 . S
C1400 C1398 1.415 . S
C1400 C1405 1.425 . S
C1400 C1407 1.409 . S
C1401 H1393 0.930 1_455 S
C1401 C1399 1.419 . S
C1401 C1402 1.362 . S
C1402 H1394 0.930 1_455 S
C1402 C1401 1.362 . S
C1402 C1405 1.409 . S
C1403 H1395 0.930 . S
C1403 C1404 1.355 . S
C1403 C1405 1.415 . S
C1404 C1403 1.355 . S
C1404 C1406 1.419 . S
C1405 C1400 1.425 . S
C1405 C1402 1.409 . S
C1405 C1403 1.415 . S
C1406 H1396 0.930 . S
C1406 C1404 1.419 . S
C1406 C1407 1.362 . S
C1407 H1397 0.930 . S
C1407 C1400 1.409 . S
C1407 C1406 1.362 . S
H1408 C1414 0.930 . S
H1409 C1417 0.930 . S
H1410 C1418 0.930 . S
H1411 C1419 0.930 . S
H1412 C1422 0.930 . S
H1413 C1423 0.930 . S
C1414 H1408 0.930 . S
C1414 C1415 1.355 . S
C1414 C1416 1.415 . S
C1415 C1414 1.355 . S
C1415 C1417 1.419 . S
C1416 C1414 1.415 . S
C1416 C1421 1.425 . S
C1416 C1423 1.409 . S
C1417 H1409 0.930 . S
C1417 C1415 1.419 . S
C1417 C1418 1.362 . S
C1418 H1410 0.930 . S
C1418 C1417 1.362 . S
C1418 C1421 1.409 . S
C1419 H1411 0.930 . S
C1419 C1420 1.355 . S
C1419 C1421 1.415 . S
C1420 C1419 1.355 . S
C1420 C1422 1.419 . S
C1421 C1416 1.425 . S
C1421 C1418 1.409 . S
C1421 C1419 1.415 . S
C1422 H1412 0.930 . S
C1422 C1420 1.419 . S
C1422 C1423 1.362 . S
C1423 H1413 0.930 . S
C1423 C1416 1.409 . S
C1423 C1422 1.362 . S
H1424 C1430 0.930 1_455 S
H1425 C1433 0.930 . S
H1426 C1434 0.930 . S
H1427 C1435 0.930 . S
H1428 C1438 0.930 . S
H1429 C1439 0.930 . S
C1430 H1424 0.930 1_655 S
C1430 C1431 1.355 . S
C1430 C1432 1.415 . S
C1431 C1430 1.355 . S
C1431 C1433 1.419 . S
C1432 C1430 1.415 . S
C1432 C1437 1.425 . S
C1432 C1439 1.409 1_655 S
C1433 H1425 0.930 . S
C1433 C1431 1.419 . S
C1433 C1434 1.362 . S
C1434 H1426 0.930 . S
C1434 C1433 1.362 . S
C1434 C1437 1.409 . S
C1435 H1427 0.930 . S
C1435 C1436 1.355 . S
C1435 C1437 1.415 . S
C1436 C1435 1.355 . S
C1436 C1438 1.419 1_655 S
C1437 C1432 1.425 . S
C1437 C1434 1.409 . S
C1437 C1435 1.415 . S
C1438 H1428 0.930 . S
C1438 C1436 1.419 1_455 S
C1438 C1439 1.362 . S
C1439 H1429 0.930 . S
C1439 C1432 1.409 1_455 S
C1439 C1438 1.362 . S
H1440 C1446 0.930 . S
H1441 C1449 0.930 . S
H1442 C1450 0.930 . S
H1443 C1451 0.930 . S
H1444 C1454 0.930 . S
H1445 C1455 0.930 . S
C1446 H1440 0.930 . S
C1446 C1447 1.355 . S
C1446 C1448 1.415 . S
C1447 C1446 1.355 . S
C1447 C1449 1.419 . S
C1448 C1446 1.415 . S
C1448 C1453 1.425 . S
C1448 C1455 1.409 . S
C1449 H1441 0.930 . S
C1449 C1447 1.419 . S
C1449 C1450 1.362 . S
C1450 H1442 0.930 . S
C1450 C1449 1.362 . S
C1450 C1453 1.409 . S
C1451 H1443 0.930 . S
C1451 C1452 1.355 . S
C1451 C1453 1.415 . S
C1452 C1451 1.355 . S
C1452 C1454 1.419 . S
C1453 C1448 1.425 . S
C1453 C1450 1.409 . S
C1453 C1451 1.415 . S
C1454 H1444 0.930 . S
C1454 C1452 1.419 . S
C1454 C1455 1.362 . S
C1455 H1445 0.930 . S
C1455 C1448 1.409 . S
C1455 C1454 1.362 . S
H1456 C1462 0.930 . S
H1457 C1465 0.930 . S
H1458 C1466 0.930 . S
H1459 C1467 0.930 . S
H1460 C1470 0.930 . S
H1461 C1471 0.930 1_655 S
C1462 H1456 0.930 . S
C1462 C1463 1.355 . S
C1462 C1464 1.415 . S
C1463 C1462 1.355 . S
C1463 C1465 1.419 . S
C1464 C1462 1.415 . S
C1464 C1469 1.425 . S
C1464 C1471 1.409 . S
C1465 H1457 0.930 . S
C1465 C1463 1.419 . S
C1465 C1466 1.362 . S
C1466 H1458 0.930 . S
C1466 C1465 1.362 . S
C1466 C1469 1.409 . S
C1467 H1459 0.930 . S
C1467 C1468 1.355 . S
C1467 C1469 1.415 . S
C1468 C1467 1.355 . S
C1468 C1470 1.419 . S
C1469 C1464 1.425 . S
C1469 C1466 1.409 . S
C1469 C1467 1.415 . S
C1470 H1460 0.930 . S
C1470 C1468 1.419 . S
C1470 C1471 1.362 . S
C1471 H1461 0.930 1_455 S
C1471 C1464 1.409 . S
C1471 C1470 1.362 . S
H1472 C1478 0.930 . S
H1473 C1481 0.930 . S
H1474 C1482 0.930 . S
H1475 C1483 0.930 . S
H1476 C1486 0.930 . S
H1477 C1487 0.930 . S
C1478 H1472 0.930 . S
C1478 C1479 1.355 . S
C1478 C1480 1.415 . S
C1479 C1478 1.355 . S
C1479 C1481 1.419 . S
C1480 C1478 1.415 . S
C1480 C1485 1.425 . S
C1480 C1487 1.409 . S
C1481 H1473 0.930 . S
C1481 C1479 1.419 . S
C1481 C1482 1.362 . S
C1482 H1474 0.930 . S
C1482 C1481 1.362 . S
C1482 C1485 1.409 . S
C1483 H1475 0.930 . S
C1483 C1484 1.355 . S
C1483 C1485 1.415 . S
C1484 C1483 1.355 . S
C1484 C1486 1.419 . S
C1485 C1480 1.425 . S
C1485 C1482 1.409 . S
C1485 C1483 1.415 . S
C1486 H1476 0.930 . S
C1486 C1484 1.419 . S
C1486 C1487 1.362 . S
C1487 H1477 0.930 . S
C1487 C1480 1.409 . S
C1487 C1486 1.362 . S
H1488 C1494 0.930 . S
H1489 C1497 0.930 . S
H1490 C1498 0.930 . S
H1491 C1499 0.930 . S
H1492 C1502 0.930 . S
H1493 C1503 0.930 . S
C1494 H1488 0.930 . S
C1494 C1495 1.355 . S
C1494 C1496 1.415 . S
C1495 C1494 1.355 . S
C1495 C1497 1.419 . S
C1496 C1494 1.415 . S
C1496 C1501 1.425 . S
C1496 C1503 1.409 . S
C1497 H1489 0.930 . S
C1497 C1495 1.419 . S
C1497 C1498 1.362 . S
C1498 H1490 0.930 . S
C1498 C1497 1.362 . S
C1498 C1501 1.409 . S
C1499 H1491 0.930 . S
C1499 C1500 1.355 . S
C1499 C1501 1.415 . S
C1500 C1499 1.355 . S
C1500 C1502 1.419 . S
C1501 C1496 1.425 . S
C1501 C1498 1.409 . S
C1501 C1499 1.415 . S
C1502 H1492 0.930 . S
C1502 C1500 1.419 . S
C1502 C1503 1.362 . S
C1503 H1493 0.930 . S
C1503 C1496 1.409 . S
C1503 C1502 1.362 . S
H1504 C1510 0.930 . S
H1505 C1513 0.930 . S
H1506 C1514 0.930 . S
H1507 C1515 0.930 . S
H1508 C1518 0.930 . S
H1509 C1519 0.930 . S
C1510 H1504 0.930 . S
C1510 C1511 1.355 . S
C1510 C1512 1.415 . S
C1511 C1510 1.355 . S
C1511 C1513 1.419 . S
C1512 C1510 1.415 . S
C1512 C1517 1.425 . S
C1512 C1519 1.409 . S
C1513 H1505 0.930 . S
C1513 C1511 1.419 . S
C1513 C1514 1.362 . S
C1514 H1506 0.930 . S
C1514 C1513 1.362 . S
C1514 C1517 1.409 . S
C1515 H1507 0.930 . S
C1515 C1516 1.355 . S
C1515 C1517 1.415 . S
C1516 C1515 1.355 . S
C1516 C1518 1.419 . S
C1517 C1512 1.425 . S
C1517 C1514 1.409 . S
C1517 C1515 1.415 . S
C1518 H1508 0.930 . S
C1518 C1516 1.419 . S
C1518 C1519 1.362 . S
C1519 H1509 0.930 . S
C1519 C1512 1.409 . S
C1519 C1518 1.362 . S
H1520 C1526 0.930 . S
H1521 C1529 0.930 . S
H1522 C1530 0.930 . S
H1523 C1531 0.930 . S
H1524 C1534 0.930 . S
H1525 C1535 0.930 . S
C1526 H1520 0.930 . S
C1526 C1527 1.355 . S
C1526 C1528 1.415 . S
C1527 C1526 1.355 . S
C1527 C1529 1.419 . S
C1528 C1526 1.415 . S
C1528 C1533 1.425 . S
C1528 C1535 1.409 . S
C1529 H1521 0.930 . S
C1529 C1527 1.419 . S
C1529 C1530 1.362 . S
C1530 H1522 0.930 . S
C1530 C1529 1.362 . S
C1530 C1533 1.409 . S
C1531 H1523 0.930 . S
C1531 C1532 1.355 . S
C1531 C1533 1.415 . S
C1532 C1531 1.355 . S
C1532 C1534 1.419 . S
C1533 C1528 1.425 . S
C1533 C1530 1.409 . S
C1533 C1531 1.415 . S
C1534 H1524 0.930 . S
C1534 C1532 1.419 . S
C1534 C1535 1.362 . S
C1535 H1525 0.930 . S
C1535 C1528 1.409 . S
C1535 C1534 1.362 . S
H1536 C1542 0.930 . S
H1537 C1545 0.930 . S
H1538 C1546 0.930 . S
H1539 C1547 0.930 . S
H1540 C1550 0.930 . S
H1541 C1551 0.930 . S
C1542 H1536 0.930 . S
C1542 C1543 1.355 . S
C1542 C1544 1.415 . S
C1543 C1542 1.355 . S
C1543 C1545 1.419 . S
C1544 C1542 1.415 . S
C1544 C1549 1.425 . S
C1544 C1551 1.409 . S
C1545 H1537 0.930 . S
C1545 C1543 1.419 . S
C1545 C1546 1.362 . S
C1546 H1538 0.930 . S
C1546 C1545 1.362 . S
C1546 C1549 1.409 . S
C1547 H1539 0.930 . S
C1547 C1548 1.355 . S
C1547 C1549 1.415 . S
C1548 C1547 1.355 . S
C1548 C1550 1.419 . S
C1549 C1544 1.425 . S
C1549 C1546 1.409 . S
C1549 C1547 1.415 . S
C1550 H1540 0.930 . S
C1550 C1548 1.419 . S
C1550 C1551 1.362 . S
C1551 H1541 0.930 . S
C1551 C1544 1.409 . S
C1551 C1550 1.362 . S
H1552 C1558 0.930 . S
H1553 C1561 0.930 . S
H1554 C1562 0.930 . S
H1555 C1563 0.930 . S
H1556 C1566 0.930 . S
H1557 C1567 0.930 . S
C1558 H1552 0.930 . S
C1558 C1559 1.355 . S
C1558 C1560 1.415 . S
C1559 C1558 1.355 . S
C1559 C1561 1.419 . S
C1560 C1558 1.415 . S
C1560 C1565 1.425 . S
C1560 C1567 1.409 . S
C1561 H1553 0.930 . S
C1561 C1559 1.419 . S
C1561 C1562 1.362 . S
C1562 H1554 0.930 . S
C1562 C1561 1.362 . S
C1562 C1565 1.409 . S
C1563 H1555 0.930 . S
C1563 C1564 1.355 . S
C1563 C1565 1.415 . S
C1564 C1563 1.355 . S
C1564 C1566 1.419 . S
C1565 C1560 1.425 . S
C1565 C1562 1.409 . S
C1565 C1563 1.415 . S
C1566 H1556 0.930 . S
C1566 C1564 1.419 . S
C1566 C1567 1.362 . S
C1567 H1557 0.930 . S
C1567 C1560 1.409 . S
C1567 C1566 1.362 . S
H1568 C1574 0.930 . S
H1569 C1577 0.930 . S
H1570 C1578 0.930 . S
H1571 C1579 0.930 . S
H1572 C1582 0.930 . S
H1573 C1583 0.930 . S
C1574 H1568 0.930 . S
C1574 C1575 1.355 . S
C1574 C1576 1.415 . S
C1575 C1574 1.355 . S
C1575 C1577 1.419 . S
C1576 C1574 1.415 . S
C1576 C1581 1.425 . S
C1576 C1583 1.409 . S
C1577 H1569 0.930 . S
C1577 C1575 1.419 . S
C1577 C1578 1.362 . S
C1578 H1570 0.930 . S
C1578 C1577 1.362 . S
C1578 C1581 1.409 . S
C1579 H1571 0.930 . S
C1579 C1580 1.355 . S
C1579 C1581 1.415 . S
C1580 C1579 1.355 . S
C1580 C1582 1.419 . S
C1581 C1576 1.425 . S
C1581 C1578 1.409 . S
C1581 C1579 1.415 . S
C1582 H1572 0.930 . S
C1582 C1580 1.419 . S
C1582 C1583 1.362 . S
C1583 H1573 0.930 . S
C1583 C1576 1.409 . S
C1583 C1582 1.362 . S
H1584 C1590 0.930 . S
H1585 C1593 0.930 . S
H1586 C1594 0.930 . S
H1587 C1595 0.930 . S
H1588 C1598 0.930 . S
H1589 C1599 0.930 . S
C1590 H1584 0.930 . S
C1590 C1591 1.355 . S
C1590 C1592 1.415 . S
C1591 C1590 1.355 . S
C1591 C1593 1.419 . S
C1592 C1590 1.415 . S
C1592 C1597 1.425 . S
C1592 C1599 1.409 . S
C1593 H1585 0.930 . S
C1593 C1591 1.419 . S
C1593 C1594 1.362 . S
C1594 H1586 0.930 . S
C1594 C1593 1.362 . S
C1594 C1597 1.409 . S
C1595 H1587 0.930 . S
C1595 C1596 1.355 . S
C1595 C1597 1.415 . S
C1596 C1595 1.355 . S
C1596 C1598 1.419 . S
C1597 C1592 1.425 . S
C1597 C1594 1.409 . S
C1597 C1595 1.415 . S
C1598 H1588 0.930 . S
C1598 C1596 1.419 . S
C1598 C1599 1.362 . S
C1599 H1589 0.930 . S
C1599 C1592 1.409 . S
C1599 C1598 1.362 . S
H1600 C1606 0.930 . S
H1601 C1609 0.930 . S
H1602 C1610 0.930 . S
H1603 C1611 0.930 . S
H1604 C1614 0.930 . S
H1605 C1615 0.930 . S
C1606 H1600 0.930 . S
C1606 C1607 1.355 . S
C1606 C1608 1.415 . S
C1607 C1606 1.355 . S
C1607 C1609 1.419 . S
C1608 C1606 1.415 . S
C1608 C1613 1.425 . S
C1608 C1615 1.409 . S
C1609 H1601 0.930 . S
C1609 C1607 1.419 . S
C1609 C1610 1.362 . S
C1610 H1602 0.930 . S
C1610 C1609 1.362 . S
C1610 C1613 1.409 . S
C1611 H1603 0.930 . S
C1611 C1612 1.355 . S
C1611 C1613 1.415 . S
C1612 C1611 1.355 . S
C1612 C1614 1.419 . S
C1613 C1608 1.425 . S
C1613 C1610 1.409 . S
C1613 C1611 1.415 . S
C1614 H1604 0.930 . S
C1614 C1612 1.419 . S
C1614 C1615 1.362 . S
C1615 H1605 0.930 . S
C1615 C1608 1.409 . S
C1615 C1614 1.362 . S
H1616 C1622 0.930 . S
H1617 C1625 0.930 . S
H1618 C1626 0.930 . S
H1619 C1627 0.930 . S
H1620 C1630 0.930 . S
H1621 C1631 0.930 . S
C1622 H1616 0.930 . S
C1622 C1623 1.355 . S
C1622 C1624 1.415 . S
C1623 C1622 1.355 . S
C1623 C1625 1.419 . S
C1624 C1622 1.415 . S
C1624 C1629 1.425 . S
C1624 C1631 1.409 . S
C1625 H1617 0.930 . S
C1625 C1623 1.419 . S
C1625 C1626 1.362 . S
C1626 H1618 0.930 . S
C1626 C1625 1.362 . S
C1626 C1629 1.409 . S
C1627 H1619 0.930 . S
C1627 C1628 1.355 . S
C1627 C1629 1.415 . S
C1628 C1627 1.355 . S
C1628 C1630 1.419 . S
C1629 C1624 1.425 . S
C1629 C1626 1.409 . S
C1629 C1627 1.415 . S
C1630 H1620 0.930 . S
C1630 C1628 1.419 . S
C1630 C1631 1.362 . S
C1631 H1621 0.930 . S
C1631 C1624 1.409 . S
C1631 C1630 1.362 . S
H1632 C1638 0.930 . S
H1633 C1641 0.930 . S
H1634 C1642 0.930 . S
H1635 C1643 0.930 . S
H1636 C1646 0.930 . S
H1637 C1647 0.930 . S
C1638 H1632 0.930 . S
C1638 C1639 1.355 . S
C1638 C1640 1.415 . S
C1639 C1638 1.355 . S
C1639 C1641 1.419 . S
C1640 C1638 1.415 . S
C1640 C1645 1.425 . S
C1640 C1647 1.409 . S
C1641 H1633 0.930 . S
C1641 C1639 1.419 . S
C1641 C1642 1.362 . S
C1642 H1634 0.930 . S
C1642 C1641 1.362 . S
C1642 C1645 1.409 . S
C1643 H1635 0.930 . S
C1643 C1644 1.355 . S
C1643 C1645 1.415 . S
C1644 C1643 1.355 . S
C1644 C1646 1.419 . S
C1645 C1640 1.425 . S
C1645 C1642 1.409 . S
C1645 C1643 1.415 . S
C1646 H1636 0.930 . S
C1646 C1644 1.419 . S
C1646 C1647 1.362 . S
C1647 H1637 0.930 . S
C1647 C1640 1.409 . S
C1647 C1646 1.362 . S
H1648 C1654 0.930 . S
H1649 C1657 0.930 . S
H1650 C1658 0.930 . S
H1651 C1659 0.930 . S
H1652 C1662 0.930 . S
H1653 C1663 0.930 . S
C1654 H1648 0.930 . S
C1654 C1655 1.355 . S
C1654 C1656 1.415 . S
C1655 C1654 1.355 . S
C1655 C1657 1.419 . S
C1656 C1654 1.415 . S
C1656 C1661 1.425 . S
C1656 C1663 1.409 . S
C1657 H1649 0.930 . S
C1657 C1655 1.419 . S
C1657 C1658 1.362 . S
C1658 H1650 0.930 . S
C1658 C1657 1.362 . S
C1658 C1661 1.409 . S
C1659 H1651 0.930 . S
C1659 C1660 1.355 . S
C1659 C1661 1.415 . S
C1660 C1659 1.355 . S
C1660 C1662 1.419 . S
C1661 C1656 1.425 . S
C1661 C1658 1.409 . S
C1661 C1659 1.415 . S
C1662 H1652 0.930 . S
C1662 C1660 1.419 . S
C1662 C1663 1.362 . S
C1663 H1653 0.930 . S
C1663 C1656 1.409 . S
C1663 C1662 1.362 . S
H1664 C1670 0.930 . S
H1665 C1673 0.930 . S
H1666 C1674 0.930 . S
H1667 C1675 0.930 . S
H1668 C1678 0.930 . S
H1669 C1679 0.930 . S
C1670 H1664 0.930 . S
C1670 C1671 1.355 . S
C1670 C1672 1.415 . S
C1671 C1670 1.355 . S
C1671 C1673 1.419 . S
C1672 C1670 1.415 . S
C1672 C1677 1.425 . S
C1672 C1679 1.409 . S
C1673 H1665 0.930 . S
C1673 C1671 1.419 . S
C1673 C1674 1.362 . S
C1674 H1666 0.930 . S
C1674 C1673 1.362 . S
C1674 C1677 1.409 . S
C1675 H1667 0.930 . S
C1675 C1676 1.355 . S
C1675 C1677 1.415 . S
C1676 C1675 1.355 . S
C1676 C1678 1.419 . S
C1677 C1672 1.425 . S
C1677 C1674 1.409 . S
C1677 C1675 1.415 . S
C1678 H1668 0.930 . S
C1678 C1676 1.419 . S
C1678 C1679 1.362 . S
C1679 H1669 0.930 . S
C1679 C1672 1.409 . S
C1679 C1678 1.362 . S
H1680 C1686 0.930 . S
H1681 C1689 0.930 . S
H1682 C1690 0.930 . S
H1683 C1691 0.930 . S
H1684 C1694 0.930 . S
H1685 C1695 0.930 . S
C1686 H1680 0.930 . S
C1686 C1687 1.355 . S
C1686 C1688 1.415 . S
C1687 C1686 1.355 . S
C1687 C1689 1.419 . S
C1688 C1686 1.415 . S
C1688 C1693 1.425 . S
C1688 C1695 1.409 . S
C1689 H1681 0.930 . S
C1689 C1687 1.419 . S
C1689 C1690 1.362 . S
C1690 H1682 0.930 . S
C1690 C1689 1.362 . S
C1690 C1693 1.409 . S
C1691 H1683 0.930 . S
C1691 C1692 1.355 . S
C1691 C1693 1.415 . S
C1692 C1691 1.355 . S
C1692 C1694 1.419 . S
C1693 C1688 1.425 . S
C1693 C1690 1.409 . S
C1693 C1691 1.415 . S
C1694 H1684 0.930 . S
C1694 C1692 1.419 . S
C1694 C1695 1.362 . S
C1695 H1685 0.930 . S
C1695 C1688 1.409 . S
C1695 C1694 1.362 . S
H1696 C1702 0.930 . S
H1697 C1705 0.930 . S
H1698 C1706 0.930 . S
H1699 C1707 0.930 . S
H1700 C1710 0.930 . S
H1701 C1711 0.930 . S
C1702 H1696 0.930 . S
C1702 C1703 1.355 . S
C1702 C1704 1.415 . S
C1703 C1702 1.355 . S
C1703 C1705 1.419 . S
C1704 C1702 1.415 . S
C1704 C1709 1.425 . S
C1704 C1711 1.409 . S
C1705 H1697 0.930 . S
C1705 C1703 1.419 . S
C1705 C1706 1.362 . S
C1706 H1698 0.930 . S
C1706 C1705 1.362 . S
C1706 C1709 1.409 . S
C1707 H1699 0.930 . S
C1707 C1708 1.355 . S
C1707 C1709 1.415 . S
C1708 C1707 1.355 . S
C1708 C1710 1.419 . S
C1709 C1704 1.425 . S
C1709 C1706 1.409 . S
C1709 C1707 1.415 . S
C1710 H1700 0.930 . S
C1710 C1708 1.419 . S
C1710 C1711 1.362 . S
C1711 H1701 0.930 . S
C1711 C1704 1.409 . S
C1711 C1710 1.362 . S
H1712 C1718 0.930 . S
H1713 C1721 0.930 . S
H1714 C1722 0.930 . S
H1715 C1723 0.930 . S
H1716 C1726 0.930 . S
H1717 C1727 0.930 . S
C1718 H1712 0.930 . S
C1718 C1719 1.355 . S
C1718 C1720 1.415 . S
C1719 C1718 1.355 . S
C1719 C1721 1.419 . S
C1720 C1718 1.415 . S
C1720 C1725 1.425 . S
C1720 C1727 1.409 . S
C1721 H1713 0.930 . S
C1721 C1719 1.419 . S
C1721 C1722 1.362 . S
C1722 H1714 0.930 . S
C1722 C1721 1.362 . S
C1722 C1725 1.409 . S
C1723 H1715 0.930 . S
C1723 C1724 1.355 . S
C1723 C1725 1.415 . S
C1724 C1723 1.355 . S
C1724 C1726 1.419 . S
C1725 C1720 1.425 . S
C1725 C1722 1.409 . S
C1725 C1723 1.415 . S
C1726 H1716 0.930 . S
C1726 C1724 1.419 . S
C1726 C1727 1.362 . S
C1727 H1717 0.930 . S
C1727 C1720 1.409 . S
C1727 C1726 1.362 . S
H1728 C1734 0.930 . S
H1729 C1737 0.930 . S
H1730 C1738 0.930 . S
H1731 C1739 0.930 . S
H1732 C1742 0.930 . S
H1733 C1743 0.930 . S
C1734 H1728 0.930 . S
C1734 C1735 1.355 . S
C1734 C1736 1.415 . S
C1735 C1734 1.355 . S
C1735 C1737 1.419 . S
C1736 C1734 1.415 . S
C1736 C1741 1.425 . S
C1736 C1743 1.409 . S
C1737 H1729 0.930 . S
C1737 C1735 1.419 . S
C1737 C1738 1.362 . S
C1738 H1730 0.930 . S
C1738 C1737 1.362 . S
C1738 C1741 1.409 . S
C1739 H1731 0.930 . S
C1739 C1740 1.355 . S
C1739 C1741 1.415 . S
C1740 C1739 1.355 . S
C1740 C1742 1.419 . S
C1741 C1736 1.425 . S
C1741 C1738 1.409 . S
C1741 C1739 1.415 . S
C1742 H1732 0.930 . S
C1742 C1740 1.419 . S
C1742 C1743 1.362 . S
C1743 H1733 0.930 . S
C1743 C1736 1.409 . S
C1743 C1742 1.362 . S
H1744 C1750 0.930 . S
H1745 C1753 0.930 . S
H1746 C1754 0.930 . S
H1747 C1755 0.930 . S
H1748 C1758 0.930 . S
H1749 C1759 0.930 . S
C1750 H1744 0.930 . S
C1750 C1751 1.355 . S
C1750 C1752 1.415 . S
C1751 C1750 1.355 . S
C1751 C1753 1.419 . S
C1752 C1750 1.415 . S
C1752 C1757 1.425 . S
C1752 C1759 1.409 . S
C1753 H1745 0.930 . S
C1753 C1751 1.419 . S
C1753 C1754 1.362 . S
C1754 H1746 0.930 . S
C1754 C1753 1.362 . S
C1754 C1757 1.409 . S
C1755 H1747 0.930 . S
C1755 C1756 1.355 . S
C1755 C1757 1.415 . S
C1756 C1755 1.355 . S
C1756 C1758 1.419 . S
C1757 C1752 1.425 . S
C1757 C1754 1.409 . S
C1757 C1755 1.415 . S
C1758 H1748 0.930 . S
C1758 C1756 1.419 . S
C1758 C1759 1.362 . S
C1759 H1749 0.930 . S
C1759 C1752 1.409 . S
C1759 C1758 1.362 . S
H1760 C1766 0.930 . S
H1761 C1769 0.930 . S
H1762 C1770 0.930 . S
H1763 C1771 0.930 . S
H1764 C1774 0.930 . S
H1765 C1775 0.930 . S
C1766 H1760 0.930 . S
C1766 C1767 1.355 . S
C1766 C1768 1.415 . S
C1767 C1766 1.355 . S
C1767 C1769 1.419 . S
C1768 C1766 1.415 . S
C1768 C1773 1.425 . S
C1768 C1775 1.409 . S
C1769 H1761 0.930 . S
C1769 C1767 1.419 . S
C1769 C1770 1.362 . S
C1770 H1762 0.930 . S
C1770 C1769 1.362 . S
C1770 C1773 1.409 . S
C1771 H1763 0.930 . S
C1771 C1772 1.355 . S
C1771 C1773 1.415 . S
C1772 C1771 1.355 . S
C1772 C1774 1.419 . S
C1773 C1768 1.425 . S
C1773 C1770 1.409 . S
C1773 C1771 1.415 . S
C1774 H1764 0.930 . S
C1774 C1772 1.419 . S
C1774 C1775 1.362 . S
C1775 H1765 0.930 . S
C1775 C1768 1.409 . S
C1775 C1774 1.362 . S
H1776 C1782 0.930 . S
H1777 C1785 0.930 . S
H1778 C1786 0.930 . S
H1779 C1787 0.930 . S
H1780 C1790 0.930 . S
H1781 C1791 0.930 . S
C1782 H1776 0.930 . S
C1782 C1783 1.355 . S
C1782 C1784 1.415 . S
C1783 C1782 1.355 . S
C1783 C1785 1.419 . S
C1784 C1782 1.415 . S
C1784 C1789 1.425 . S
C1784 C1791 1.409 . S
C1785 H1777 0.930 . S
C1785 C1783 1.419 . S
C1785 C1786 1.362 . S
C1786 H1778 0.930 . S
C1786 C1785 1.362 . S
C1786 C1789 1.409 . S
C1787 H1779 0.930 . S
C1787 C1788 1.355 . S
C1787 C1789 1.415 . S
C1788 C1787 1.355 . S
C1788 C1790 1.419 . S
C1789 C1784 1.425 . S
C1789 C1786 1.409 . S
C1789 C1787 1.415 . S
C1790 H1780 0.930 . S
C1790 C1788 1.419 . S
C1790 C1791 1.362 . S
C1791 H1781 0.930 . S
C1791 C1784 1.409 . S
C1791 C1790 1.362 . S
H1792 C1798 0.930 . S
H1793 C1801 0.930 . S
H1794 C1802 0.930 . S
H1795 C1803 0.930 . S
H1796 C1806 0.930 . S
H1797 C1807 0.930 . S
C1798 H1792 0.930 . S
C1798 C1799 1.355 . S
C1798 C1800 1.415 . S
C1799 C1798 1.355 . S
C1799 C1801 1.419 . S
C1800 C1798 1.415 . S
C1800 C1805 1.425 . S
C1800 C1807 1.409 . S
C1801 H1793 0.930 . S
C1801 C1799 1.419 . S
C1801 C1802 1.362 . S
C1802 H1794 0.930 . S
C1802 C1801 1.362 . S
C1802 C1805 1.409 . S
C1803 H1795 0.930 . S
C1803 C1804 1.355 . S
C1803 C1805 1.415 . S
C1804 C1803 1.355 . S
C1804 C1806 1.419 . S
C1805 C1800 1.425 . S
C1805 C1802 1.409 . S
C1805 C1803 1.415 . S
C1806 H1796 0.930 . S
C1806 C1804 1.419 . S
C1806 C1807 1.362 . S
C1807 H1797 0.930 . S
C1807 C1800 1.409 . S
C1807 C1806 1.362 . S
H1808 C1814 0.930 . S
H1809 C1817 0.930 . S
H1810 C1818 0.930 . S
H1811 C1819 0.930 . S
H1812 C1822 0.930 . S
H1813 C1823 0.930 . S
C1814 H1808 0.930 . S
C1814 C1815 1.355 . S
C1814 C1816 1.415 . S
C1815 C1814 1.355 . S
C1815 C1817 1.419 . S
C1816 C1814 1.415 . S
C1816 C1821 1.425 . S
C1816 C1823 1.409 . S
C1817 H1809 0.930 . S
C1817 C1815 1.419 . S
C1817 C1818 1.362 . S
C1818 H1810 0.930 . S
C1818 C1817 1.362 . S
C1818 C1821 1.409 . S
C1819 H1811 0.930 . S
C1819 C1820 1.355 . S
C1819 C1821 1.415 . S
C1820 C1819 1.355 . S
C1820 C1822 1.419 . S
C1821 C1816 1.425 . S
C1821 C1818 1.409 . S
C1821 C1819 1.415 . S
C1822 H1812 0.930 . S
C1822 C1820 1.419 . S
C1822 C1823 1.362 . S
C1823 H1813 0.930 . S
C1823 C1816 1.409 . S
C1823 C1822 1.362 . S
H1824 C1830 0.930 . S
H1825 C1833 0.930 . S
H1826 C1834 0.930 . S
H1827 C1835 0.930 . S
H1828 C1838 0.930 . S
H1829 C1839 0.930 . S
C1830 H1824 0.930 . S
C1830 C1831 1.355 . S
C1830 C1832 1.415 . S
C1831 C1830 1.355 . S
C1831 C1833 1.419 . S
C1832 C1830 1.415 . S
C1832 C1837 1.425 . S
C1832 C1839 1.409 . S
C1833 H1825 0.930 . S
C1833 C1831 1.419 . S
C1833 C1834 1.362 . S
C1834 H1826 0.930 . S
C1834 C1833 1.362 . S
C1834 C1837 1.409 . S
C1835 H1827 0.930 . S
C1835 C1836 1.355 . S
C1835 C1837 1.415 . S
C1836 C1835 1.355 . S
C1836 C1838 1.419 . S
C1837 C1832 1.425 . S
C1837 C1834 1.409 . S
C1837 C1835 1.415 . S
C1838 H1828 0.930 . S
C1838 C1836 1.419 . S
C1838 C1839 1.362 . S
C1839 H1829 0.930 . S
C1839 C1832 1.409 . S
C1839 C1838 1.362 . S
H1840 C1846 0.930 . S
H1841 C1849 0.930 . S
H1842 C1850 0.930 . S
H1843 C1851 0.930 . S
H1844 C1854 0.930 . S
H1845 C1855 0.930 . S
C1846 H1840 0.930 . S
C1846 C1847 1.355 . S
C1846 C1848 1.415 . S
C1847 C1846 1.355 . S
C1847 C1849 1.419 . S
C1848 C1846 1.415 . S
C1848 C1853 1.425 . S
C1848 C1855 1.409 . S
C1849 H1841 0.930 . S
C1849 C1847 1.419 . S
C1849 C1850 1.362 . S
C1850 H1842 0.930 . S
C1850 C1849 1.362 . S
C1850 C1853 1.409 . S
C1851 H1843 0.930 . S
C1851 C1852 1.355 . S
C1851 C1853 1.415 . S
C1852 C1851 1.355 . S
C1852 C1854 1.419 . S
C1853 C1848 1.425 . S
C1853 C1850 1.409 . S
C1853 C1851 1.415 . S
C1854 H1844 0.930 . S
C1854 C1852 1.419 . S
C1854 C1855 1.362 . S
C1855 H1845 0.930 . S
C1855 C1848 1.409 . S
C1855 C1854 1.362 . S
H1856 C1862 0.930 . S
H1857 C1865 0.930 . S
H1858 C1866 0.930 . S
H1859 C1867 0.946 . S
H1860 C1870 0.930 . S
H1861 C1871 0.930 . S
C1862 H1856 0.930 . S
C1862 C1863 1.355 . S
C1862 C1864 1.415 1_545 S
C1863 C1862 1.355 . S
C1863 C1865 1.419 1_556 S
C1864 C1862 1.415 1_565 S
C1864 C1869 1.415 1_556 S
C1864 C1871 1.409 . S
C1865 H1857 0.930 . S
C1865 C1863 1.419 1_554 S
C1865 C1866 1.362 1_545 S
C1866 H1858 0.930 . S
C1866 C1865 1.362 1_565 S
C1866 C1869 1.419 . S
C1867 H1859 0.946 . S
C1867 C1868 1.339 1_554 S
C1867 C1869 1.415 . S
C1868 C1867 1.339 1_556 S
C1868 C1870 1.419 . S
C1869 C1864 1.415 1_554 S
C1869 C1866 1.419 . S
C1869 C1867 1.415 . S
C1870 H1860 0.930 . S
C1870 C1868 1.419 . S
C1870 C1871 1.362 . S
C1871 H1861 0.930 . S
C1871 C1864 1.409 . S
C1871 C1870 1.362 . S
H1872 C1878 0.930 . S
H1873 C1881 0.930 . S
H1874 C1882 0.930 . S
H1875 C1883 0.956 . S
H1876 C1886 0.930 . S
H1877 C1887 0.930 . S
C1878 H1872 0.930 . S
C1878 C1879 1.355 . S
C1878 C1880 1.415 . S
C1879 C1878 1.355 . S
C1879 C1881 1.419 . S
C1880 C1878 1.415 . S
C1880 C1885 1.425 . S
C1880 C1887 1.409 . S
C1881 H1873 0.930 . S
C1881 C1879 1.419 . S
C1881 C1882 1.363 1_556 S
C1882 H1874 0.930 . S
C1882 C1881 1.363 1_554 S
C1882 C1885 1.409 1_554 S
C1883 H1875 0.956 . S
C1883 C1884 1.343 1_554 S
C1883 C1885 1.403 1_554 S
C1884 C1883 1.343 1_556 S
C1884 C1886 1.419 . S
C1885 C1880 1.425 . S
C1885 C1882 1.409 1_556 S
C1885 C1883 1.403 1_556 S
C1886 H1876 0.930 . S
C1886 C1884 1.419 . S
C1886 C1887 1.362 . S
C1887 H1877 0.930 . S
C1887 C1880 1.409 . S
C1887 C1886 1.362 . S
H1888 C1894 0.930 . S
H1889 C1897 0.930 . S
H1890 C1898 0.930 . S
H1891 C1899 0.930 . S
H1892 C1902 0.930 . S
H1893 C1903 0.930 1_655 S
C1894 H1888 0.930 . S
C1894 C1895 1.355 . S
C1894 C1896 1.415 . S
C1895 C1894 1.355 . S
C1895 C1897 1.419 . S
C1896 C1894 1.415 . S
C1896 C1901 1.425 . S
C1896 C1903 1.409 . S
C1897 H1889 0.930 . S
C1897 C1895 1.419 . S
C1897 C1898 1.362 . S
C1898 H1890 0.930 . S
C1898 C1897 1.362 . S
C1898 C1901 1.409 . S
C1899 H1891 0.930 . S
C1899 C1900 1.355 . S
C1899 C1901 1.415 . S
C1900 C1899 1.355 . S
C1900 C1902 1.419 . S
C1901 C1896 1.425 . S
C1901 C1898 1.409 . S
C1901 C1899 1.415 . S
C1902 H1892 0.930 . S
C1902 C1900 1.419 . S
C1902 C1903 1.362 . S
C1903 H1893 0.930 1_455 S
C1903 C1896 1.409 . S
C1903 C1902 1.362 . S
H1904 C1910 0.930 . S
H1905 C1913 0.930 . S
H1906 C1914 0.930 . S
H1907 C1915 0.930 . S
H1908 C1918 0.930 . S
H1909 C1919 0.930 . S
C1910 H1904 0.930 . S
C1910 C1911 1.355 . S
C1910 C1912 1.415 1_545 S
C1911 C1910 1.355 . S
C1911 C1913 1.419 . S
C1912 C1910 1.415 1_565 S
C1912 C1917 1.425 . S
C1912 C1919 1.409 . S
C1913 H1905 0.930 . S
C1913 C1911 1.419 . S
C1913 C1914 1.362 . S
C1914 H1906 0.930 . S
C1914 C1913 1.362 . S
C1914 C1917 1.409 1_545 S
C1915 H1907 0.930 . S
C1915 C1916 1.355 . S
C1915 C1917 1.415 . S
C1916 C1915 1.355 . S
C1916 C1918 1.419 . S
C1917 C1912 1.425 . S
C1917 C1914 1.409 1_565 S
C1917 C1915 1.415 . S
C1918 H1908 0.930 . S
C1918 C1916 1.419 . S
C1918 C1919 1.362 . S
C1919 H1909 0.930 . S
C1919 C1912 1.409 . S
C1919 C1918 1.362 . S
H1920 C1926 0.930 . S
H1921 C1929 0.930 . S
H1922 C1930 0.930 . S
H1923 C1931 0.930 . S
H1924 C1934 0.930 . S
H1925 C1935 0.930 . S
C1926 H1920 0.930 . S
C1926 C1927 1.355 . S
C1926 C1928 1.415 . S
C1927 C1926 1.355 . S
C1927 C1929 1.419 1_554 S
C1928 C1926 1.415 . S
C1928 C1933 1.398 1_554 S
C1928 C1935 1.409 . S
C1929 H1921 0.930 . S
C1929 C1927 1.419 1_556 S
C1929 C1930 1.362 . S
C1930 H1922 0.930 . S
C1930 C1929 1.362 . S
C1930 C1933 1.426 . S
C1931 H1923 0.930 . S
C1931 C1932 1.355 1_556 S
C1931 C1933 1.424 1_565 S
C1932 C1931 1.355 1_554 S
C1932 C1934 1.419 . S
C1933 C1928 1.398 1_556 S
C1933 C1930 1.426 . S
C1933 C1931 1.424 1_545 S
C1934 H1924 0.930 . S
C1934 C1932 1.419 . S
C1934 C1935 1.362 1_565 S
C1935 H1925 0.930 . S
C1935 C1928 1.409 . S
C1935 C1934 1.362 1_545 S
H1936 C1942 0.930 . S
H1937 C1945 0.930 . S
H1938 C1946 0.930 . S
H1939 C1947 0.930 . S
H1940 C1950 0.930 . S
H1941 C1951 0.930 . S
C1942 H1936 0.930 . S
C1942 C1943 1.355 1_556 S
C1942 C1944 1.408 1_556 S
C1943 C1942 1.355 1_554 S
C1943 C1945 1.419 . S
C1944 C1942 1.408 1_554 S
C1944 C1949 1.448 . S
C1944 C1951 1.395 1_554 S
C1945 H1937 0.930 . S
C1945 C1943 1.419 . S
C1945 C1946 1.362 . S
C1946 H1938 0.930 . S
C1946 C1945 1.362 . S
C1946 C1949 1.409 . S
C1947 H1939 0.930 . S
C1947 C1948 1.355 . S
C1947 C1949 1.415 . S
C1948 C1947 1.355 . S
C1948 C1950 1.419 1_554 S
C1949 C1944 1.448 . S
C1949 C1946 1.409 . S
C1949 C1947 1.415 . S
C1950 H1940 0.930 . S
C1950 C1948 1.419 1_556 S
C1950 C1951 1.362 . S
C1951 H1941 0.930 . S
C1951 C1944 1.395 1_556 S
C1951 C1950 1.362 . S
H1952 C1958 0.930 . S
H1953 C1961 0.930 . S
H1954 C1962 0.930 . S
H1955 C1963 0.930 . S
H1956 C1966 0.930 1_455 S
H1957 C1967 0.930 1_455 S
C1958 H1952 0.930 . S
C1958 C1959 1.355 . S
C1958 C1960 1.415 . S
C1959 C1958 1.355 . S
C1959 C1961 1.419 . S
C1960 C1958 1.415 . S
C1960 C1965 1.425 . S
C1960 C1967 1.409 . S
C1961 H1953 0.930 . S
C1961 C1959 1.419 . S
C1961 C1962 1.362 . S
C1962 H1954 0.930 . S
C1962 C1961 1.362 . S
C1962 C1965 1.409 . S
C1963 H1955 0.930 . S
C1963 C1964 1.355 . S
C1963 C1965 1.415 . S
C1964 C1963 1.355 . S
C1964 C1966 1.419 . S
C1965 C1960 1.425 . S
C1965 C1962 1.409 . S
C1965 C1963 1.415 . S
C1966 H1956 0.930 1_655 S
C1966 C1964 1.419 . S
C1966 C1967 1.362 . S
C1967 H1957 0.930 1_655 S
C1967 C1960 1.409 . S
C1967 C1966 1.362 . S
H1968 C1974 0.930 . S
H1969 C1977 0.930 . S
H1970 C1978 0.930 . S
H1971 C1979 0.930 . S
H1972 C1982 0.930 . S
H1973 C1983 0.930 . S
C1974 H1968 0.930 . S
C1974 C1975 1.355 . S
C1974 C1976 1.415 . S
C1975 C1974 1.355 . S
C1975 C1977 1.419 . S
C1976 C1974 1.415 . S
C1976 C1981 1.425 . S
C1976 C1983 1.409 . S
C1977 H1969 0.930 . S
C1977 C1975 1.419 . S
C1977 C1978 1.362 . S
C1978 H1970 0.930 . S
C1978 C1977 1.362 . S
C1978 C1981 1.409 . S
C1979 H1971 0.930 . S
C1979 C1980 1.355 . S
C1979 C1981 1.415 1_565 S
C1980 C1979 1.355 . S
C1980 C1982 1.419 . S
C1981 C1976 1.425 . S
C1981 C1978 1.409 . S
C1981 C1979 1.415 1_545 S
C1982 H1972 0.930 . S
C1982 C1980 1.419 . S
C1982 C1983 1.362 1_565 S
C1983 H1973 0.930 . S
C1983 C1976 1.409 . S
C1983 C1982 1.362 1_545 S
H1984 C1990 0.930 . S
H1985 C1993 0.930 . S
H1986 C1994 0.930 1_655 S
H1987 C1995 0.930 . S
H1988 C1998 0.930 . S
H1989 C1999 0.930 . S
C1990 H1984 0.930 . S
C1990 C1991 1.355 . S
C1990 C1992 1.415 . S
C1991 C1990 1.355 . S
C1991 C1993 1.419 . S
C1992 C1990 1.415 . S
C1992 C1997 1.425 . S
C1992 C1999 1.409 . S
C1993 H1985 0.930 . S
C1993 C1991 1.419 . S
C1993 C1994 1.362 . S
C1994 H1986 0.930 1_455 S
C1994 C1993 1.362 . S
C1994 C1997 1.409 . S
C1995 H1987 0.930 . S
C1995 C1996 1.355 . S
C1995 C1997 1.415 . S
C1996 C1995 1.355 . S
C1996 C1998 1.419 . S
C1997 C1992 1.425 . S
C1997 C1994 1.409 . S
C1997 C1995 1.415 . S
C1998 H1988 0.930 . S
C1998 C1996 1.419 . S
C1998 C1999 1.362 . S
C1999 H1989 0.930 . S
C1999 C1992 1.409 . S
C1999 C1998 1.362 . S
H2000 C2006 0.930 . S
H2001 C2009 0.930 . S
H2002 C2010 0.930 . S
H2003 C2011 0.930 . S
H2004 C2014 0.930 . S
H2005 C2015 0.930 . S
C2006 H2000 0.930 . S
C2006 C2007 1.355 . S
C2006 C2008 1.415 . S
C2007 C2006 1.355 . S
C2007 C2009 1.419 . S
C2008 C2006 1.415 . S
C2008 C2013 1.425 . S
C2008 C2015 1.409 . S
C2009 H2001 0.930 . S
C2009 C2007 1.419 . S
C2009 C2010 1.362 . S
C2010 H2002 0.930 . S
C2010 C2009 1.362 . S
C2010 C2013 1.409 . S
C2011 H2003 0.930 . S
C2011 C2012 1.355 . S
C2011 C2013 1.415 . S
C2012 C2011 1.355 . S
C2012 C2014 1.419 . S
C2013 C2008 1.425 . S
C2013 C2010 1.409 . S
C2013 C2011 1.415 . S
C2014 H2004 0.930 . S
C2014 C2012 1.419 . S
C2014 C2015 1.362 . S
C2015 H2005 0.930 . S
C2015 C2008 1.409 . S
C2015 C2014 1.362 . S
H2016 C2022 0.930 . S
H2017 C2025 0.930 . S
H2018 C2026 0.930 . S
H2019 C2027 0.930 . S
H2020 C2030 0.930 . S
H2021 C2031 0.930 . S
C2022 H2016 0.930 . S
C2022 C2023 1.355 . S
C2022 C2024 1.415 . S
C2023 C2022 1.355 . S
C2023 C2025 1.419 . S
C2024 C2022 1.415 . S
C2024 C2029 1.425 . S
C2024 C2031 1.409 . S
C2025 H2017 0.930 . S
C2025 C2023 1.419 . S
C2025 C2026 1.362 . S
C2026 H2018 0.930 . S
C2026 C2025 1.362 . S
C2026 C2029 1.409 . S
C2027 H2019 0.930 . S
C2027 C2028 1.355 . S
C2027 C2029 1.415 . S
C2028 C2027 1.355 . S
C2028 C2030 1.419 . S
C2029 C2024 1.425 . S
C2029 C2026 1.409 . S
C2029 C2027 1.415 . S
C2030 H2020 0.930 . S
C2030 C2028 1.419 . S
C2030 C2031 1.362 . S
C2031 H2021 0.930 . S
C2031 C2024 1.409 . S
C2031 C2030 1.362 . S
H2032 C2038 0.930 . S
H2033 C2041 0.930 . S
H2034 C2042 0.930 . S
H2035 C2043 0.930 . S
H2036 C2046 0.930 . S
H2037 C2047 0.930 . S
C2038 H2032 0.930 . S
C2038 C2039 1.355 . S
C2038 C2040 1.415 . S
C2039 C2038 1.355 . S
C2039 C2041 1.419 . S
C2040 C2038 1.415 . S
C2040 C2045 1.425 . S
C2040 C2047 1.409 . S
C2041 H2033 0.930 . S
C2041 C2039 1.419 . S
C2041 C2042 1.362 . S
C2042 H2034 0.930 . S
C2042 C2041 1.362 . S
C2042 C2045 1.409 . S
C2043 H2035 0.930 . S
C2043 C2044 1.355 . S
C2043 C2045 1.415 . S
C2044 C2043 1.355 . S
C2044 C2046 1.419 . S
C2045 C2040 1.425 . S
C2045 C2042 1.409 . S
C2045 C2043 1.415 . S
C2046 H2036 0.930 . S
C2046 C2044 1.419 . S
C2046 C2047 1.362 . S
C2047 H2037 0.930 . S
C2047 C2040 1.409 . S
C2047 C2046 1.362 . S
H2048 C2054 0.930 . S
H2049 C2057 0.930 . S
H2050 C2058 0.930 . S
H2051 C2059 0.930 . S
H2052 C2062 0.930 . S
H2053 C2063 0.930 . S
C2054 H2048 0.930 . S
C2054 C2055 1.355 . S
C2054 C2056 1.415 . S
C2055 C2054 1.355 . S
C2055 C2057 1.419 . S
C2056 C2054 1.415 . S
C2056 C2061 1.425 . S
C2056 C2063 1.409 . S
C2057 H2049 0.930 . S
C2057 C2055 1.419 . S
C2057 C2058 1.362 . S
C2058 H2050 0.930 . S
C2058 C2057 1.362 . S
C2058 C2061 1.409 . S
C2059 H2051 0.930 . S
C2059 C2060 1.355 . S
C2059 C2061 1.415 . S
C2060 C2059 1.355 . S
C2060 C2062 1.419 . S
C2061 C2056 1.425 . S
C2061 C2058 1.409 . S
C2061 C2059 1.415 . S
C2062 H2052 0.930 . S
C2062 C2060 1.419 . S
C2062 C2063 1.362 . S
C2063 H2053 0.930 . S
C2063 C2056 1.409 . S
C2063 C2062 1.362 . S
H2064 C2070 0.930 . S
H2065 C2073 0.930 . S
H2066 C2074 0.930 . S
H2067 C2075 0.930 . S
H2068 C2078 0.930 . S
H2069 C2079 0.930 . S
C2070 H2064 0.930 . S
C2070 C2071 1.355 . S
C2070 C2072 1.415 . S
C2071 C2070 1.355 . S
C2071 C2073 1.419 . S
C2072 C2070 1.415 . S
C2072 C2077 1.425 . S
C2072 C2079 1.409 . S
C2073 H2065 0.930 . S
C2073 C2071 1.419 . S
C2073 C2074 1.362 . S
C2074 H2066 0.930 . S
C2074 C2073 1.362 . S
C2074 C2077 1.409 . S
C2075 H2067 0.930 . S
C2075 C2076 1.355 . S
C2075 C2077 1.415 . S
C2076 C2075 1.355 . S
C2076 C2078 1.419 . S
C2077 C2072 1.425 . S
C2077 C2074 1.409 . S
C2077 C2075 1.415 . S
C2078 H2068 0.930 . S
C2078 C2076 1.419 . S
C2078 C2079 1.362 . S
C2079 H2069 0.930 . S
C2079 C2072 1.409 . S
C2079 C2078 1.362 . S
H2080 C2086 0.930 . S
H2081 C2089 0.930 . S
H2082 C2090 0.930 . S
H2083 C2091 0.930 . S
H2084 C2094 0.930 . S
H2085 C2095 0.930 . S
C2086 H2080 0.930 . S
C2086 C2087 1.355 . S
C2086 C2088 1.415 . S
C2087 C2086 1.355 . S
C2087 C2089 1.419 . S
C2088 C2086 1.415 . S
C2088 C2093 1.425 . S
C2088 C2095 1.409 . S
C2089 H2081 0.930 . S
C2089 C2087 1.419 . S
C2089 C2090 1.362 . S
C2090 H2082 0.930 . S
C2090 C2089 1.362 . S
C2090 C2093 1.409 . S
C2091 H2083 0.930 . S
C2091 C2092 1.355 . S
C2091 C2093 1.415 . S
C2092 C2091 1.355 . S
C2092 C2094 1.419 . S
C2093 C2088 1.425 . S
C2093 C2090 1.409 . S
C2093 C2091 1.415 . S
C2094 H2084 0.930 . S
C2094 C2092 1.419 . S
C2094 C2095 1.362 . S
C2095 H2085 0.930 . S
C2095 C2088 1.409 . S
C2095 C2094 1.362 . S
H2096 C2102 0.930 . S
H2097 C2105 0.930 . S
H2098 C2106 0.930 . S
H2099 C2107 0.930 . S
H2100 C2110 0.930 . S
H2101 C2111 0.930 . S
C2102 H2096 0.930 . S
C2102 C2103 1.355 . S
C2102 C2104 1.415 . S
C2103 C2102 1.355 . S
C2103 C2105 1.419 . S
C2104 C2102 1.415 . S
C2104 C2109 1.425 . S
C2104 C2111 1.409 . S
C2105 H2097 0.930 . S
C2105 C2103 1.419 . S
C2105 C2106 1.362 . S
C2106 H2098 0.930 . S
C2106 C2105 1.362 . S
C2106 C2109 1.409 . S
C2107 H2099 0.930 . S
C2107 C2108 1.355 . S
C2107 C2109 1.415 . S
C2108 C2107 1.355 . S
C2108 C2110 1.419 . S
C2109 C2104 1.425 . S
C2109 C2106 1.409 . S
C2109 C2107 1.415 . S
C2110 H2100 0.930 . S
C2110 C2108 1.419 . S
C2110 C2111 1.362 . S
C2111 H2101 0.930 . S
C2111 C2104 1.409 . S
C2111 C2110 1.362 . S
H2112 C2118 0.930 . S
H2113 C2121 0.930 . S
H2114 C2122 0.930 . S
H2115 C2123 0.930 . S
H2116 C2126 0.930 . S
H2117 C2127 0.930 . S
C2118 H2112 0.930 . S
C2118 C2119 1.355 . S
C2118 C2120 1.415 . S
C2119 C2118 1.355 . S
C2119 C2121 1.419 . S
C2120 C2118 1.415 . S
C2120 C2125 1.425 . S
C2120 C2127 1.409 . S
C2121 H2113 0.930 . S
C2121 C2119 1.419 . S
C2121 C2122 1.362 . S
C2122 H2114 0.930 . S
C2122 C2121 1.362 . S
C2122 C2125 1.409 . S
C2123 H2115 0.930 . S
C2123 C2124 1.355 . S
C2123 C2125 1.415 1_545 S
C2124 C2123 1.355 . S
C2124 C2126 1.419 . S
C2125 C2120 1.425 . S
C2125 C2122 1.409 . S
C2125 C2123 1.415 1_565 S
C2126 H2116 0.930 . S
C2126 C2124 1.419 . S
C2126 C2127 1.362 1_545 S
C2127 H2117 0.930 . S
C2127 C2120 1.409 . S
C2127 C2126 1.362 1_565 S
H2128 C2134 0.930 . S
H2129 C2137 0.930 . S
H2130 C2138 0.930 . S
H2131 C2139 0.930 . S
H2132 C2142 0.930 . S
H2133 C2143 0.930 . S
C2134 H2128 0.930 . S
C2134 C2135 1.355 . S
C2134 C2136 1.415 . S
C2135 C2134 1.355 . S
C2135 C2137 1.419 . S
C2136 C2134 1.415 . S
C2136 C2141 1.425 . S
C2136 C2143 1.409 . S
C2137 H2129 0.930 . S
C2137 C2135 1.419 . S
C2137 C2138 1.362 . S
C2138 H2130 0.930 . S
C2138 C2137 1.362 . S
C2138 C2141 1.409 . S
C2139 H2131 0.930 . S
C2139 C2140 1.355 . S
C2139 C2141 1.415 . S
C2140 C2139 1.355 . S
C2140 C2142 1.419 . S
C2141 C2136 1.425 . S
C2141 C2138 1.409 . S
C2141 C2139 1.415 . S
C2142 H2132 0.930 . S
C2142 C2140 1.419 . S
C2142 C2143 1.362 . S
C2143 H2133 0.930 . S
C2143 C2136 1.409 . S
C2143 C2142 1.362 . S
H2144 C2150 0.930 . S
H2145 C2153 0.930 . S
H2146 C2154 0.930 . S
H2147 C2155 0.930 . S
H2148 C2158 0.930 . S
H2149 C2159 0.930 . S
C2150 H2144 0.930 . S
C2150 C2151 1.355 . S
C2150 C2152 1.415 . S
C2151 C2150 1.355 . S
C2151 C2153 1.419 . S
C2152 C2150 1.415 . S
C2152 C2157 1.425 . S
C2152 C2159 1.409 . S
C2153 H2145 0.930 . S
C2153 C2151 1.419 . S
C2153 C2154 1.362 . S
C2154 H2146 0.930 . S
C2154 C2153 1.362 . S
C2154 C2157 1.409 . S
C2155 H2147 0.930 . S
C2155 C2156 1.355 . S
C2155 C2157 1.415 . S
C2156 C2155 1.355 . S
C2156 C2158 1.419 . S
C2157 C2152 1.425 . S
C2157 C2154 1.409 . S
C2157 C2155 1.415 . S
C2158 H2148 0.930 . S
C2158 C2156 1.419 . S
C2158 C2159 1.362 . S
C2159 H2149 0.930 . S
C2159 C2152 1.409 . S
C2159 C2158 1.362 . S
H2160 C2166 0.930 . S
H2161 C2169 0.930 . S
H2162 C2170 0.930 . S
H2163 C2171 0.930 . S
H2164 C2174 0.930 . S
H2165 C2175 0.930 . S
C2166 H2160 0.930 . S
C2166 C2167 1.355 . S
C2166 C2168 1.415 1_545 S
C2167 C2166 1.355 . S
C2167 C2169 1.419 . S
C2168 C2166 1.415 1_565 S
C2168 C2173 1.425 . S
C2168 C2175 1.409 . S
C2169 H2161 0.930 . S
C2169 C2167 1.419 . S
C2169 C2170 1.362 1_545 S
C2170 H2162 0.930 . S
C2170 C2169 1.362 1_565 S
C2170 C2173 1.409 . S
C2171 H2163 0.930 . S
C2171 C2172 1.355 . S
C2171 C2173 1.415 . S
C2172 C2171 1.355 . S
C2172 C2174 1.419 . S
C2173 C2168 1.425 . S
C2173 C2170 1.409 . S
C2173 C2171 1.415 . S
C2174 H2164 0.930 . S
C2174 C2172 1.419 . S
C2174 C2175 1.362 . S
C2175 H2165 0.930 . S
C2175 C2168 1.409 . S
C2175 C2174 1.362 . S
H2176 C2182 0.930 . S
H2177 C2185 0.930 . S
H2178 C2186 0.930 . S
H2179 C2187 0.930 . S
H2180 C2190 0.930 . S
H2181 C2191 0.930 . S
C2182 H2176 0.930 . S
C2182 C2183 1.355 . S
C2182 C2184 1.415 1_565 S
C2183 C2182 1.355 . S
C2183 C2185 1.419 . S
C2184 C2182 1.415 1_545 S
C2184 C2189 1.425 . S
C2184 C2191 1.409 . S
C2185 H2177 0.930 . S
C2185 C2183 1.419 . S
C2185 C2186 1.362 1_565 S
C2186 H2178 0.930 . S
C2186 C2185 1.362 1_545 S
C2186 C2189 1.409 . S
C2187 H2179 0.930 . S
C2187 C2188 1.355 . S
C2187 C2189 1.415 . S
C2188 C2187 1.355 . S
C2188 C2190 1.419 . S
C2189 C2184 1.425 . S
C2189 C2186 1.409 . S
C2189 C2187 1.415 . S
C2190 H2180 0.930 . S
C2190 C2188 1.419 . S
C2190 C2191 1.362 . S
C2191 H2181 0.930 . S
C2191 C2184 1.409 . S
C2191 C2190 1.362 . S
H2192 C2198 0.930 . S
H2193 C2201 0.930 . S
H2194 C2202 0.930 . S
H2195 C2203 0.930 . S
H2196 C2206 0.930 . S
H2197 C2207 0.930 . S
C2198 H2192 0.930 . S
C2198 C2199 1.355 . S
C2198 C2200 1.415 . S
C2199 C2198 1.355 . S
C2199 C2201 1.419 . S
C2200 C2198 1.415 . S
C2200 C2205 1.425 . S
C2200 C2207 1.409 . S
C2201 H2193 0.930 . S
C2201 C2199 1.419 . S
C2201 C2202 1.362 . S
C2202 H2194 0.930 . S
C2202 C2201 1.362 . S
C2202 C2205 1.409 . S
C2203 H2195 0.930 . S
C2203 C2204 1.355 . S
C2203 C2205 1.415 . S
C2204 C2203 1.355 . S
C2204 C2206 1.419 . S
C2205 C2200 1.425 . S
C2205 C2202 1.409 . S
C2205 C2203 1.415 . S
C2206 H2196 0.930 . S
C2206 C2204 1.419 . S
C2206 C2207 1.362 . S
C2207 H2197 0.930 . S
C2207 C2200 1.409 . S
C2207 C2206 1.362 . S
H2208 C2214 0.930 . S
H2209 C2217 0.930 . S
H2210 C2218 0.930 . S
H2211 C2219 0.930 . S
H2212 C2222 0.930 . S
H2213 C2223 0.930 . S
C2214 H2208 0.930 . S
C2214 C2215 1.355 . S
C2214 C2216 1.415 . S
C2215 C2214 1.355 . S
C2215 C2217 1.419 . S
C2216 C2214 1.415 . S
C2216 C2221 1.425 . S
C2216 C2223 1.409 . S
C2217 H2209 0.930 . S
C2217 C2215 1.419 . S
C2217 C2218 1.362 . S
C2218 H2210 0.930 . S
C2218 C2217 1.362 . S
C2218 C2221 1.409 . S
C2219 H2211 0.930 . S
C2219 C2220 1.355 . S
C2219 C2221 1.415 . S
C2220 C2219 1.355 . S
C2220 C2222 1.419 . S
C2221 C2216 1.425 . S
C2221 C2218 1.409 . S
C2221 C2219 1.415 . S
C2222 H2212 0.930 . S
C2222 C2220 1.419 . S
C2222 C2223 1.362 . S
C2223 H2213 0.930 . S
C2223 C2216 1.409 . S
C2223 C2222 1.362 . S
H2224 C2230 0.930 . S
H2225 C2233 0.930 . S
H2226 C2234 0.930 . S
H2227 C2235 0.930 . S
H2228 C2238 0.930 . S
H2229 C2239 0.930 . S
C2230 H2224 0.930 . S
C2230 C2231 1.355 . S
C2230 C2232 1.415 . S
C2231 C2230 1.355 . S
C2231 C2233 1.419 . S
C2232 C2230 1.415 . S
C2232 C2237 1.425 . S
C2232 C2239 1.409 1_545 S
C2233 H2225 0.930 . S
C2233 C2231 1.419 . S
C2233 C2234 1.362 . S
C2234 H2226 0.930 . S
C2234 C2233 1.362 . S
C2234 C2237 1.409 . S
C2235 H2227 0.930 . S
C2235 C2236 1.355 . S
C2235 C2237 1.415 1_565 S
C2236 C2235 1.355 . S
C2236 C2238 1.419 . S
C2237 C2232 1.425 . S
C2237 C2234 1.409 . S
C2237 C2235 1.415 1_545 S
C2238 H2228 0.930 . S
C2238 C2236 1.419 . S
C2238 C2239 1.362 . S
C2239 H2229 0.930 . S
C2239 C2232 1.409 1_565 S
C2239 C2238 1.362 . S
H2240 C2246 0.930 . S
H2241 C2249 0.926 1_554 S
H2242 C2250 0.930 . S
H2243 C2251 0.930 . S
H2244 C2254 0.930 . S
H2245 C2255 0.930 . S
C2246 H2240 0.930 . S
C2246 C2247 1.355 . S
C2246 C2248 1.415 . S
C2247 C2246 1.355 . S
C2247 C2249 1.419 . S
C2248 C2246 1.415 . S
C2248 C2253 1.425 . S
C2248 C2255 1.409 . S
C2249 H2241 0.926 1_556 S
C2249 C2247 1.419 . S
C2249 C2250 1.362 . S
C2250 H2242 0.930 . S
C2250 C2249 1.362 . S
C2250 C2253 1.409 . S
C2251 H2243 0.930 . S
C2251 C2252 1.355 . S
C2251 C2253 1.415 . S
C2252 C2251 1.355 . S
C2252 C2254 1.419 . S
C2253 C2248 1.425 . S
C2253 C2250 1.409 . S
C2253 C2251 1.415 . S
C2254 H2244 0.930 . S
C2254 C2252 1.419 . S
C2254 C2255 1.362 . S
C2255 H2245 0.930 . S
C2255 C2248 1.409 . S
C2255 C2254 1.362 . S
H2256 C2262 0.930 . S
H2257 C2265 0.930 . S
H2258 C2266 0.930 . S
H2259 C2267 0.930 1_554 S
H2260 C2270 0.930 . S
H2261 C2271 0.930 . S
C2262 H2256 0.930 . S
C2262 C2263 1.355 . S
C2262 C2264 1.415 . S
C2263 C2262 1.355 . S
C2263 C2265 1.419 1_556 S
C2264 C2262 1.415 . S
C2264 C2269 1.425 . S
C2264 C2271 1.409 . S
C2265 H2257 0.930 . S
C2265 C2263 1.419 1_554 S
C2265 C2266 1.362 . S
C2266 H2258 0.930 . S
C2266 C2265 1.362 . S
C2266 C2269 1.409 1_554 S
C2267 H2259 0.930 1_556 S
C2267 C2268 1.355 . S
C2267 C2269 1.415 . S
C2268 C2267 1.355 . S
C2268 C2270 1.419 . S
C2269 C2264 1.425 . S
C2269 C2266 1.409 1_556 S
C2269 C2267 1.415 . S
C2270 H2260 0.930 . S
C2270 C2268 1.419 . S
C2270 C2271 1.362 . S
C2271 H2261 0.930 . S
C2271 C2264 1.409 . S
C2271 C2270 1.362 . S
H2272 C2278 0.930 . S
H2273 C2281 0.930 . S
H2274 C2282 0.930 . S
H2275 C2283 0.930 . S
H2276 C2286 0.930 . S
H2277 C2287 0.930 . S
C2278 H2272 0.930 . S
C2278 C2279 1.355 . S
C2278 C2280 1.415 . S
C2279 C2278 1.355 . S
C2279 C2281 1.419 . S
C2280 C2278 1.415 . S
C2280 C2285 1.425 . S
C2280 C2287 1.409 . S
C2281 H2273 0.930 . S
C2281 C2279 1.419 . S
C2281 C2282 1.362 . S
C2282 H2274 0.930 . S
C2282 C2281 1.362 . S
C2282 C2285 1.409 . S
C2283 H2275 0.930 . S
C2283 C2284 1.355 . S
C2283 C2285 1.415 . S
C2284 C2283 1.355 . S
C2284 C2286 1.419 . S
C2285 C2280 1.425 . S
C2285 C2282 1.409 . S
C2285 C2283 1.415 . S
C2286 H2276 0.930 . S
C2286 C2284 1.419 . S
C2286 C2287 1.362 . S
C2287 H2277 0.930 . S
C2287 C2280 1.409 . S
C2287 C2286 1.362 . S
H2288 C2294 0.930 . S
H2289 C2297 0.930 . S
H2290 C2298 0.930 . S
H2291 C2299 0.930 . S
H2292 C2302 0.930 . S
H2293 C2303 0.930 . S
C2294 H2288 0.930 . S
C2294 C2295 1.355 . S
C2294 C2296 1.415 . S
C2295 C2294 1.355 . S
C2295 C2297 1.419 . S
C2296 C2294 1.415 . S
C2296 C2301 1.425 . S
C2296 C2303 1.409 . S
C2297 H2289 0.930 . S
C2297 C2295 1.419 . S
C2297 C2298 1.362 . S
C2298 H2290 0.930 . S
C2298 C2297 1.362 . S
C2298 C2301 1.409 . S
C2299 H2291 0.930 . S
C2299 C2300 1.355 . S
C2299 C2301 1.415 . S
C2300 C2299 1.355 . S
C2300 C2302 1.419 . S
C2301 C2296 1.425 . S
C2301 C2298 1.409 . S
C2301 C2299 1.415 . S
C2302 H2292 0.930 . S
C2302 C2300 1.419 . S
C2302 C2303 1.362 . S
C2303 H2293 0.930 . S
C2303 C2296 1.409 . S
C2303 C2302 1.362 . S
H2304 C2310 0.930 . S
H2305 C2313 0.930 . S
H2306 C2314 0.930 . S
H2307 C2315 0.936 . S
H2308 C2318 0.930 . S
H2309 C2319 0.930 . S
C2310 H2304 0.930 . S
C2310 C2311 1.355 . S
C2310 C2312 1.415 . S
C2311 C2310 1.355 . S
C2311 C2313 1.419 1_554 S
C2312 C2310 1.415 . S
C2312 C2317 1.425 . S
C2312 C2319 1.409 . S
C2313 H2305 0.930 . S
C2313 C2311 1.419 1_556 S
C2313 C2314 1.362 . S
C2314 H2306 0.930 . S
C2314 C2313 1.362 . S
C2314 C2317 1.409 1_556 S
C2315 H2307 0.936 . S
C2315 C2316 1.355 . S
C2315 C2317 1.415 . S
C2316 C2315 1.355 . S
C2316 C2318 1.419 . S
C2317 C2312 1.425 . S
C2317 C2314 1.409 1_554 S
C2317 C2315 1.415 . S
C2318 H2308 0.930 . S
C2318 C2316 1.419 . S
C2318 C2319 1.362 . S
C2319 H2309 0.930 . S
C2319 C2312 1.409 . S
C2319 C2318 1.362 . S
H2320 C2326 0.930 . S
H2321 C2329 0.941 . S
H2322 C2330 0.930 . S
H2323 C2331 0.930 . S
H2324 C2334 0.930 . S
H2325 C2335 0.930 . S
C2326 H2320 0.930 . S
C2326 C2327 1.355 . S
C2326 C2328 1.415 . S
C2327 C2326 1.355 . S
C2327 C2329 1.402 1_554 S
C2328 C2326 1.415 . S
C2328 C2333 1.425 . S
C2328 C2335 1.409 . S
C2329 H2321 0.941 . S
C2329 C2327 1.402 1_556 S
C2329 C2330 1.369 . S
C2330 H2322 0.930 . S
C2330 C2329 1.369 . S
C2330 C2333 1.409 1_556 S
C2331 H2323 0.930 . S
C2331 C2332 1.355 1_556 S
C2331 C2333 1.415 1_556 S
C2332 C2331 1.355 1_554 S
C2332 C2334 1.419 . S
C2333 C2328 1.425 . S
C2333 C2330 1.409 1_554 S
C2333 C2331 1.415 1_554 S
C2334 H2324 0.930 . S
C2334 C2332 1.419 . S
C2334 C2335 1.362 . S
C2335 H2325 0.930 . S
C2335 C2328 1.409 . S
C2335 C2334 1.362 . S
H2336 C2342 0.930 . S
H2337 C2345 0.930 . S
H2338 C2346 0.930 . S
H2339 C2347 0.930 . S
H2340 C2350 0.930 . S
H2341 C2351 0.930 . S
C2342 H2336 0.930 . S
C2342 C2343 1.355 . S
C2342 C2344 1.415 . S
C2343 C2342 1.355 . S
C2343 C2345 1.419 . S
C2344 C2342 1.415 . S
C2344 C2349 1.425 . S
C2344 C2351 1.409 . S
C2345 H2337 0.930 . S
C2345 C2343 1.419 . S
C2345 C2346 1.362 . S
C2346 H2338 0.930 . S
C2346 C2345 1.362 . S
C2346 C2349 1.409 . S
C2347 H2339 0.930 . S
C2347 C2348 1.355 . S
C2347 C2349 1.415 . S
C2348 C2347 1.355 . S
C2348 C2350 1.419 . S
C2349 C2344 1.425 . S
C2349 C2346 1.409 . S
C2349 C2347 1.415 . S
C2350 H2340 0.930 . S
C2350 C2348 1.419 . S
C2350 C2351 1.362 . S
C2351 H2341 0.930 . S
C2351 C2344 1.409 . S
C2351 C2350 1.362 . S
H2352 C2358 0.930 . S
H2353 C2361 0.930 . S
H2354 C2362 0.930 . S
H2355 C2363 0.930 . S
H2356 C2366 0.930 . S
H2357 C2367 0.930 . S
C2358 H2352 0.930 . S
C2358 C2359 1.355 . S
C2358 C2360 1.415 . S
C2359 C2358 1.355 . S
C2359 C2361 1.419 . S
C2360 C2358 1.415 . S
C2360 C2365 1.425 . S
C2360 C2367 1.409 . S
C2361 H2353 0.930 . S
C2361 C2359 1.419 . S
C2361 C2362 1.362 . S
C2362 H2354 0.930 . S
C2362 C2361 1.362 . S
C2362 C2365 1.409 . S
C2363 H2355 0.930 . S
C2363 C2364 1.355 . S
C2363 C2365 1.415 . S
C2364 C2363 1.355 . S
C2364 C2366 1.419 . S
C2365 C2360 1.425 . S
C2365 C2362 1.409 . S
C2365 C2363 1.415 . S
C2366 H2356 0.930 . S
C2366 C2364 1.419 . S
C2366 C2367 1.362 . S
C2367 H2357 0.930 . S
C2367 C2360 1.409 . S
C2367 C2366 1.362 . S
C1095 C20 1.225 . S
C1100 C156 1.225 . S
C1111 C1006 1.235 . S
C1116 C54 1.235 . S
C1127 C496 1.200 . S
C1132 C88 1.200 . S
C1143 C122 1.287 . S
C1148 C802 1.287 . S
C1159 C870 1.235 . S
C1164 C190 1.235 . S
C1175 C224 1.216 . S
C1180 C360 1.216 . S
C1191 C666 1.245 . S
C1196 C258 1.245 . S
C1207 C428 1.257 . S
C1212 C292 1.257 . S
C1223 C326 1.289 . S
C1228 C734 1.289 . S
C1239 C394 1.237 . S
C1244 C1074 1.237 . S
C1255 C462 1.224 . S
C1260 C598 1.224 . S
C1271 C938 1.282 . S
C1276 C530 1.282 . S
C1287 C700 1.211 . S
C1292 C564 1.211 . S
C1303 C1040 1.284 . S
C1308 C632 1.284 . S
C1319 C768 1.290 . S
C1324 C904 1.290 . S
C1335 C972 1.293 . S
C1340 C836 1.293 . S
C1351 C33 1.475 . S
C1356 C101 1.492 . S
C1367 C67 1.498 . S
C1372 C135 1.479 . S
C1383 C237 1.486 . S
C1388 C169 1.478 . S
C1399 C271 1.493 . S
C1404 C203 1.475 . S
C1415 C373 1.491 . S
C1420 C305 1.492 . S
C1431 C339 1.477 . S
C1436 C407 1.497 . S
C1447 C441 1.496 . S
C1452 C509 1.486 . S
C1463 C475 1.482 . S
C1468 C543 1.498 . S
C1479 C645 1.493 . S
C1484 C577 1.491 . S
C1495 C611 1.487 . S
C1500 C679 1.477 . S
C1511 C713 1.497 . S
C1516 C781 1.483 . S
C1527 C747 1.475 . S
C1532 C815 1.490 . S
C1543 C849 1.478 . S
C1548 C917 1.498 . S
C1559 C951 1.493 . S
C1564 C883 1.475 . S
C1575 C985 1.476 . S
C1580 C1053 1.496 . S
C1591 C1087 1.484 . S
C1596 C1019 1.497 . S
C1607 C5 0.838 . S
C1612 C39 0.860 . S
C1623 C107 0.964 . S
C1628 C73 0.963 . S
C1639 C175 0.938 . S
C1644 C141 0.855 . S
C1655 C209 0.950 . S
C1660 C243 0.866 . S
C1671 C277 0.930 . S
C1676 C311 0.976 . S
C1687 C345 0.972 . S
C1692 C379 0.904 . S
C1703 C447 0.970 . S
C1708 C413 0.899 . S
C1719 C515 0.975 . S
C1724 C481 0.944 . S
C1735 C583 0.866 . S
C1740 C549 0.950 1_455 S
C1751 C617 0.972 1_455 S
C1756 C651 0.951 . S
C1767 C719 0.951 . S
C1772 C685 0.973 1_655 S
C1783 C753 0.866 1_655 S
C1788 C787 0.950 . S
C1799 C821 0.976 1_455 S
C1804 C855 0.927 . S
C1815 C923 0.838 . S
C1820 C889 0.861 1_455 S
C1831 C957 0.876 1_655 S
C1836 C991 0.958 . S
C1847 C1025 0.932 1_655 S
C1852 C1059 0.976 . S
C1863 C9 1.668 1_556 S
C1868 C172 1.926 . S
C1879 C954 1.915 . S
C1884 C43 1.750 1_556 S
C1895 C512 1.909 . S
C1900 C77 1.723 . S
C1911 C111 1.755 . S
C1916 C750 1.917 . S
C1927 C36 1.970 . S
C1932 C145 1.717 1_554 S
C1943 C179 1.742 1_554 S
C1948 C818 1.964 . S
C1959 C213 1.716 . S
C1964 C376 1.970 . S
C1975 C614 1.962 . S
C1980 C247 1.670 . S
C1991 C281 1.757 . S
C1996 C444 1.919 . S
C2007 C315 1.724 . S
C2012 C682 1.909 . S
C2023 C349 1.768 . S
C2028 C240 1.940 . S
C2039 C1022 1.963 . S
C2044 C383 1.672 . S
C2055 C417 1.659 . S
C2060 C308 1.948 . S
C2071 C451 1.669 . S
C2076 C546 1.961 . S
C2087 C485 1.703 . S
C2092 C104 1.911 . S
C2103 C886 1.935 . S
C2108 C519 1.768 . S
C2119 C716 1.968 . S
C2124 C553 1.732 . S
C2135 C587 1.667 . S
C2140 C410 1.960 . S
C2151 C621 1.668 . S
C2156 C1056 1.926 . S
C2167 C655 1.682 . S
C2172 C206 1.967 . S
C2183 C689 1.725 . S
C2188 C580 1.969 . S
C2199 C723 1.733 . S
C2204 C274 1.910 . S
C2215 C920 1.966 . S
C2220 C757 1.736 . S
C2231 C70 1.913 . S
C2236 C791 1.745 . S
C2247 C825 1.665 1_556 S
C2252 C988 1.959 . S
C2263 C859 1.739 1_556 S
C2268 C138 1.911 . S
C2279 C893 1.742 . S
C2284 C784 1.912 . S
C2295 C478 1.946 . S
C2300 C927 1.766 . S
C2311 C961 1.677 1_554 S
C2316 C852 1.966 . S
C2327 C2 1.971 . S
C2332 C995 1.698 1_554 S
C2343 C648 1.926 . S
C2348 C1029 1.764 . S
C2359 C342 1.933 . S
C2364 C1063 1.768 . S
