# Generated by pormake.
# Topology hjm, (4)-cn, num edge types: 1
# Building blocks:
#     Node 0, Type 0, BuildingBlock: KUFVIS_clean_sbu_0, # of connection points: 4
#     Node 1, Type 0, BuildingBlock: KUFVIS_clean_sbu_0, # of connection points: 4
#     Node 2, Type 0, BuildingBlock: KUFVIS_clean_sbu_0, # of connection points: 4
#     Node 3, Type 0, BuildingBlock: KUFVIS_clean_sbu_0, # of connection points: 4
#     Node 4, Type 0, BuildingBlock: KUFVIS_clean_sbu_0, # of connection points: 4
#     Node 5, Type 0, BuildingBlock: KUFVIS_clean_sbu_0, # of connection points: 4
#     Node 6, Type 0, BuildingBlock: KUFVIS_clean_sbu_0, # of connection points: 4
#     Node 7, Type 0, BuildingBlock: KUFVIS_clean_sbu_0, # of connection points: 4
#     Edge 8, Type (0, 0), BuildingBlock: FUNLAD_clean_linker_0, # of connection points: 2
#     Edge 9, Type (0, 0), BuildingBlock: FUNLAD_clean_linker_0, # of connection points: 2
#     Edge 10, Type (0, 0), BuildingBlock: FUNLAD_clean_linker_0, # of connection points: 2
#     Edge 11, Type (0, 0), BuildingBlock: FUNLAD_clean_linker_0, # of connection points: 2
#     Edge 12, Type (0, 0), BuildingBlock: FUNLAD_clean_linker_0, # of connection points: 2
#     Edge 13, Type (0, 0), BuildingBlock: FUNLAD_clean_linker_0, # of connection points: 2
#     Edge 14, Type (0, 0), BuildingBlock: FUNLAD_clean_linker_0, # of connection points: 2
#     Edge 15, Type (0, 0), BuildingBlock: FUNLAD_clean_linker_0, # of connection points: 2
#     Edge 16, Type (0, 0), BuildingBlock: FUNLAD_clean_linker_0, # of connection points: 2
#     Edge 17, Type (0, 0), BuildingBlock: FUNLAD_clean_linker_0, # of connection points: 2
#     Edge 18, Type (0, 0), BuildingBlock: FUNLAD_clean_linker_0, # of connection points: 2
#     Edge 19, Type (0, 0), BuildingBlock: FUNLAD_clean_linker_0, # of connection points: 2
#     Edge 20, Type (0, 0), BuildingBlock: FUNLAD_clean_linker_0, # of connection points: 2
#     Edge 21, Type (0, 0), BuildingBlock: FUNLAD_clean_linker_0, # of connection points: 2
#     Edge 22, Type (0, 0), BuildingBlock: FUNLAD_clean_linker_0, # of connection points: 2
#     Edge 23, Type (0, 0), BuildingBlock: FUNLAD_clean_linker_0, # of connection points: 2
# Relax obj value: 0.063
# Max RMSD: 0.110
# Mean RMSD: 0.109
data_MOF--net-hjm--node1-KUFVIS_clean_sbu_0--edge1-FUNLAD_clean_linker_0
_symmetry_space_group_name_H-M    P1
_symmetry_Int_Tables_number       1
_symmetry_cell_setting            triclinic
loop_
_symmetry_equiv_pos_as_xyz
'x, y, z'
_cell_length_a     31.032065
_cell_length_b     26.853523
_cell_length_c     29.963735
_cell_angle_alpha  89.987439
_cell_angle_beta   57.243261
_cell_angle_gamma 89.968853
loop_
_atom_site_label
_atom_site_type_symbol
_atom_site_fract_x
_atom_site_fract_y
_atom_site_fract_z
_atom_type_partial_charge
Mn0 Mn 0.19434 0.25757 0.32284 0.0
Mn1 Mn 0.22333 0.37313 0.26872 0.0
C2 C 0.15159 0.32719 0.37389 0.0
C3 C 0.14813 0.18256 0.34927 0.0
C4 C 0.29188 0.31566 0.29337 0.0
O5 O 0.22944 0.24303 0.24326 0.0
O6 O 0.24567 0.32223 0.21257 0.0
C7 C 0.1537 0.37712 0.22974 0.0
N8 N 0.17036 0.39672 0.25973 0.0
C9 C 0.11234 0.46605 0.28572 0.0
C10 C 0.09468 0.4467 0.25496 0.0
C11 C 0.11534 0.40196 0.22701 0.0
C12 C 0.1506 0.43964 0.28696 0.0
H13 H 0.16958 0.34282 0.20808 0.0
C14 C 0.24701 0.27503 0.20557 0.0
O15 O 0.19366 0.18607 0.3407 0.0
O16 O 0.13013 0.22216 0.33992 0.0
N17 N 0.20299 0.42588 0.31924 0.0
C18 C 0.22162 0.43759 0.34995 0.0
C19 C 0.2035 0.48036 0.38199 0.0
C20 C 0.16683 0.51085 0.38173 0.0
C21 C 0.1485 0.49821 0.34949 0.0
C22 C 0.16802 0.45518 0.31835 0.0
H23 H 0.24997 0.41438 0.35011 0.0
O24 O 0.155 0.28722 0.39621 0.0
O25 O 0.17472 0.32582 0.32268 0.0
O26 O 0.26312 0.27747 0.31214 0.0
O27 O 0.28045 0.35371 0.27635 0.0
C28 C 0.11094 0.52609 0.34779 0.0
C29 C 0.09277 0.50996 0.31604 0.0
H30 H 0.06498 0.46564 0.25288 0.0
H31 H 0.10175 0.3867 0.20336 0.0
H32 H 0.21777 0.48982 0.40683 0.0
H33 H 0.15271 0.54363 0.40674 0.0
H34 H 0.09509 0.55951 0.37149 0.0
H35 H 0.06321 0.53121 0.31583 0.0
Mn36 Mn 0.81733 0.26356 0.19544 0.0
Mn37 Mn 0.80208 0.38027 0.24455 0.0
C38 C 0.8632 0.32984 0.14015 0.0
C39 C 0.85716 0.18548 0.16961 0.0
C40 C 0.72352 0.32997 0.22952 0.0
O41 O 0.7857 0.2508 0.27478 0.0
O42 O 0.77894 0.3306 0.30185 0.0
C43 C 0.8791 0.37551 0.27388 0.0
N44 N 0.86065 0.39778 0.24667 0.0
C45 C 0.92622 0.46069 0.21273 0.0
C46 C 0.94583 0.43854 0.24055 0.0
C47 C 0.92227 0.39566 0.27109 0.0
C48 C 0.88334 0.43874 0.21674 0.0
H49 H 0.86102 0.34262 0.29751 0.0
C50 C 0.77338 0.28365 0.31078 0.0
O51 O 0.81083 0.19252 0.18129 0.0
O52 O 0.87969 0.22334 0.17552 0.0
N53 N 0.8235 0.4322 0.193 0.0
C54 C 0.80096 0.44793 0.1671 0.0
C55 C 0.8201 0.49032 0.13456 0.0
C56 C 0.86179 0.51636 0.12945 0.0
C57 C 0.88419 0.4996 0.15671 0.0
C58 C 0.86332 0.45728 0.18875 0.0
H59 H 0.76854 0.42838 0.17136 0.0
O60 O 0.8547 0.29045 0.12093 0.0
O61 O 0.84356 0.32976 0.19084 0.0
O62 O 0.74854 0.28957 0.21064 0.0
O63 O 0.74009 0.36653 0.2433 0.0
C64 C 0.92662 0.52302 0.15306 0.0
C65 C 0.94785 0.50337 0.18074 0.0
H66 H 0.97909 0.45398 0.23854 0.0
H67 H 0.93729 0.37825 0.29252 0.0
H68 H 0.80262 0.50301 0.11364 0.0
H69 H 0.87637 0.54908 0.10439 0.0
H70 H 0.94361 0.55581 0.12856 0.0
H71 H 0.98095 0.52124 0.17696 0.0
Mn72 Mn 0.80862 0.7608 0.69506 0.0
Mn73 Mn 0.90944 0.73822 0.70702 0.0
C74 C 0.80609 0.78448 0.77112 0.0
C75 C 0.73065 0.73835 0.70507 0.0
C76 C 0.90989 0.81907 0.63571 0.0
O77 O 0.84803 0.70595 0.6401 0.0
O78 O 0.91034 0.69066 0.65602 0.0
C79 C 0.88048 0.63845 0.75704 0.0
N80 N 0.89298 0.68685 0.75806 0.0
C81 C 0.8887 0.67406 0.83989 0.0
C82 C 0.87596 0.62403 0.83959 0.0
C83 C 0.87168 0.6062 0.79807 0.0
C84 C 0.89693 0.70446 0.79798 0.0
H85 H 0.87729 0.62456 0.72516 0.0
C86 C 0.88694 0.6816 0.63246 0.0
O87 O 0.76118 0.77093 0.67029 0.0
O88 O 0.74586 0.71776 0.73349 0.0
N89 N 0.91238 0.78138 0.75619 0.0
C90 C 0.92262 0.83112 0.75189 0.0
C91 C 0.92711 0.855 0.79089 0.0
C92 C 0.92144 0.82749 0.83363 0.0
C93 C 0.91131 0.77629 0.83701 0.0
C94 C 0.90749 0.75446 0.79683 0.0
H95 H 0.92735 0.85242 0.71897 0.0
O96 O 0.7771 0.80673 0.75829 0.0
O97 O 0.83606 0.75022 0.73875 0.0
O98 O 0.86392 0.81244 0.64832 0.0
O99 O 0.93068 0.79246 0.65439 0.0
C100 C 0.90419 0.7462 0.87902 0.0
C101 C 0.89272 0.69515 0.88056 0.0
H102 H 0.86904 0.59906 0.87122 0.0
H103 H 0.86169 0.56767 0.79765 0.0
H104 H 0.93497 0.89453 0.78798 0.0
H105 H 0.92467 0.8461 0.86377 0.0
H106 H 0.90669 0.76208 0.91078 0.0
H107 H 0.88652 0.67258 0.9135 0.0
Mn108 Mn 0.20922 0.76043 0.8307 0.0
Mn109 Mn 0.10958 0.75169 0.81428 0.0
C110 C 0.21799 0.78469 0.75178 0.0
C111 C 0.28344 0.7315 0.82504 0.0
C112 C 0.11624 0.83133 0.88167 0.0
O113 O 0.16244 0.70948 0.88762 0.0
O114 O 0.09872 0.70735 0.87213 0.0
C115 C 0.12523 0.64751 0.77607 0.0
N116 N 0.12045 0.69676 0.76874 0.0
C117 C 0.12678 0.68 0.68647 0.0
C118 C 0.13161 0.62907 0.69324 0.0
C119 C 0.13099 0.61279 0.73815 0.0
C120 C 0.12131 0.71285 0.72551 0.0
H121 H 0.12461 0.63482 0.81062 0.0
C122 C 0.11933 0.69338 0.89729 0.0
O123 O 0.25463 0.7658 0.85837 0.0
O124 O 0.26808 0.71215 0.7962 0.0
N125 N 0.11549 0.79253 0.75885 0.0
C126 C 0.11217 0.84303 0.75736 0.0
C127 C 0.11297 0.86544 0.71455 0.0
C128 C 0.11662 0.8357 0.67406 0.0
C129 C 0.11943 0.78378 0.67676 0.0
C130 C 0.11828 0.76355 0.72048 0.0
H131 H 0.10893 0.86603 0.78859 0.0
O132 O 0.24753 0.80367 0.76568 0.0
O133 O 0.18356 0.75363 0.78491 0.0
O134 O 0.15907 0.81697 0.87355 0.0
O135 O 0.0944 0.80979 0.86109 0.0
C136 C 0.12392 0.75134 0.63749 0.0
C137 C 0.12782 0.69951 0.64222 0.0
H138 H 0.13608 0.60218 0.66407 0.0
H139 H 0.13484 0.57356 0.74358 0.0
H140 H 0.1107 0.90553 0.7128 0.0
H141 H 0.11749 0.85313 0.64098 0.0
H142 H 0.12514 0.76592 0.60311 0.0
H143 H 0.13203 0.67501 0.61138 0.0
Mn144 Mn 0.69334 0.75725 0.32921 0.0
Mn145 Mn 0.71488 0.876 0.28388 0.0
C146 C 0.64805 0.82285 0.38623 0.0
C147 C 0.65243 0.67954 0.34957 0.0
C148 C 0.78852 0.81825 0.30108 0.0
O149 O 0.72752 0.74826 0.24875 0.0
O150 O 0.73626 0.8292 0.22453 0.0
C151 C 0.64041 0.88258 0.25125 0.0
N152 N 0.65861 0.89999 0.28068 0.0
C153 C 0.59781 0.96739 0.31475 0.0
C154 C 0.5785 0.9503 0.28467 0.0
C155 C 0.59977 0.90759 0.25296 0.0
C156 C 0.63822 0.94085 0.31159 0.0
H157 H 0.65682 0.84992 0.22663 0.0
C158 C 0.74054 0.78256 0.2139 0.0
O159 O 0.698 0.68509 0.34035 0.0
O160 O 0.63094 0.71902 0.34476 0.0
N161 N 0.69496 0.92503 0.33801 0.0
C162 C 0.71571 0.93468 0.36719 0.0
C163 C 0.69738 0.97514 0.40251 0.0
C164 C 0.65834 1.00553 0.40704 0.0
C165 C 0.63784 0.99507 0.3763 0.0
C166 C 0.65759 0.95421 0.34184 0.0
H167 H 0.74593 0.9116 0.36364 0.0
O168 O 0.65394 0.78144 0.40476 0.0
O169 O 0.6697 0.825 0.33521 0.0
O170 O 0.76106 0.77928 0.31934 0.0
O171 O 0.77547 0.85633 0.28564 0.0
C172 C 0.59813 0.02315 0.37902 0.0
C173 C 0.57805 0.00927 0.34835 0.0
H174 H 0.54713 0.96944 0.28591 0.0
H175 H 0.58496 0.89408 0.22978 0.0
H176 H 0.71336 0.98294 0.42615 0.0
H177 H 0.64417 0.03659 0.43446 0.0
H178 H 0.58214 0.05501 0.40526 0.0
H179 H 0.5469 0.03065 0.35151 0.0
Mn180 Mn 0.31926 0.75699 0.19859 0.0
Mn181 Mn 0.29511 0.87558 0.24422 0.0
C182 C 0.35963 0.8231 0.14099 0.0
C183 C 0.36557 0.68236 0.17552 0.0
C184 C 0.22063 0.81414 0.23129 0.0
O185 O 0.28874 0.74806 0.2783 0.0
O186 O 0.27807 0.829 0.30265 0.0
C187 C 0.37378 0.88529 0.27086 0.0
N188 N 0.35259 0.9017 0.24387 0.0
C189 C 0.41206 0.97004 0.2065 0.0
C190 C 0.43438 0.95399 0.23407 0.0
C191 C 0.41525 0.91134 0.26625 0.0
C192 C 0.37089 0.94252 0.21257 0.0
H193 H 0.35914 0.85258 0.2957 0.0
C194 C 0.276 0.78243 0.31296 0.0
O195 O 0.31891 0.68407 0.18685 0.0
O196 O 0.38454 0.72363 0.1803 0.0
N197 N 0.31084 0.92461 0.19109 0.0
C198 C 0.28683 0.93357 0.16496 0.0
C199 C 0.30224 0.97428 0.13013 0.0
C200 C 0.34179 1.0056 0.12292 0.0
C201 C 0.36563 0.99588 0.15058 0.0
C202 C 0.34854 0.95485 0.18488 0.0
H203 H 0.25622 0.9098 0.17058 0.0
O204 O 0.35448 0.78088 0.12326 0.0
O205 O 0.34016 0.82561 0.19162 0.0
O206 O 0.24902 0.77568 0.21218 0.0
O207 O 0.23367 0.85308 0.24559 0.0
C208 C 0.40623 0.0248 0.14481 0.0
C209 C 0.42958 0.01176 0.17256 0.0
H210 H 0.46644 0.9739 0.23054 0.0
H211 H 0.43241 0.89861 0.28748 0.0
H212 H 0.28368 0.98152 0.10889 0.0
H213 H 0.3538 0.03676 0.09575 0.0
H214 H 0.42038 0.05664 0.11843 0.0
H215 H 0.46136 0.03376 0.16706 0.0
Mn216 Mn 0.30626 0.25499 0.69307 0.0
Mn217 Mn 0.41827 0.23546 0.68521 0.0
C218 C 0.31509 0.27713 0.76289 0.0
C219 C 0.22415 0.23151 0.71415 0.0
C220 C 0.40374 0.31644 0.6236 0.0
O221 O 0.34236 0.20209 0.63462 0.0
O222 O 0.41184 0.18706 0.6392 0.0
C223 C 0.40108 0.13517 0.73325 0.0
N224 N 0.41189 0.18435 0.73291 0.0
C225 C 0.4241 0.17283 0.80506 0.0
C226 C 0.41312 0.12206 0.80612 0.0
C227 C 0.40138 0.1032 0.77018 0.0
C228 C 0.42309 0.20291 0.76744 0.0
H229 H 0.39246 0.12047 0.70547 0.0
C230 C 0.38326 0.17794 0.6214 0.0
O231 O 0.25122 0.26496 0.67867 0.0
O232 O 0.24532 0.21022 0.73665 0.0
N233 N 0.428 0.27978 0.72916 0.0
C234 C 0.4351 0.33006 0.72483 0.0
C235 C 0.44556 0.35501 0.75913 0.0
C236 C 0.44905 0.32803 0.79721 0.0
C237 C 0.44196 0.2763 0.80071 0.0
C238 C 0.43163 0.25345 0.76546 0.0
H239 H 0.43285 0.35101 0.69541 0.0
O240 O 0.28086 0.2988 0.75725 0.0
O241 O 0.34349 0.24435 0.72721 0.0
O242 O 0.35613 0.30894 0.644 0.0
O243 O 0.43069 0.2897 0.63473 0.0
C244 C 0.44424 0.24661 0.83814 0.0
C245 C 0.43525 0.19491 0.84037 0.0
H246 H 0.41328 0.09728 0.83456 0.0
H247 H 0.39278 0.06406 0.77081 0.0
H248 H 0.45113 0.39494 0.75609 0.0
H249 H 0.45713 0.34741 0.8236 0.0
H250 H 0.45234 0.26323 0.86578 0.0
H251 H 0.43646 0.17256 0.86976 0.0
Mn252 Mn 0.69971 0.25723 0.83097 0.0
Mn253 Mn 0.59598 0.23899 0.82266 0.0
C254 C 0.70102 0.27991 0.75528 0.0
C255 C 0.77862 0.23251 0.81796 0.0
C256 C 0.60173 0.32116 0.88859 0.0
O257 O 0.65887 0.20466 0.88842 0.0
O258 O 0.59303 0.19494 0.87702 0.0
C259 C 0.61715 0.13576 0.78134 0.0
N260 N 0.60781 0.18436 0.77648 0.0
C261 C 0.60756 0.16661 0.69788 0.0
C262 C 0.61706 0.11633 0.70212 0.0
C263 C 0.62205 0.10089 0.74393 0.0
C264 C 0.60323 0.19967 0.73623 0.0
H265 H 0.62071 0.12371 0.8136 0.0
C266 C 0.61679 0.18419 0.89986 0.0
O267 O 0.74997 0.26607 0.85265 0.0
O268 O 0.76056 0.21185 0.7922 0.0
N269 N 0.59424 0.27926 0.77091 0.0
C270 C 0.58677 0.32933 0.77151 0.0
C271 C 0.5819 0.35095 0.73176 0.0
C272 C 0.58411 0.32084 0.69225 0.0
C273 C 0.59122 0.26935 0.69281 0.0
C274 C 0.59573 0.24989 0.73347 0.0
H275 H 0.58449 0.35259 0.8021 0.0
O276 O 0.7316 0.30138 0.76639 0.0
O277 O 0.67009 0.24703 0.78904 0.0
O278 O 0.64683 0.31125 0.87726 0.0
O279 O 0.57966 0.29633 0.8702 0.0
C280 C 0.59451 0.23663 0.65433 0.0
C281 C 0.60285 0.18532 0.65676 0.0
H282 H 0.62086 0.08931 0.67335 0.0
H283 H 0.62949 0.06216 0.74739 0.0
H284 H 0.57617 0.3907 0.73175 0.0
H285 H 0.58035 0.33766 0.66165 0.0
H286 H 0.59129 0.25062 0.62234 0.0
H287 H 0.60597 0.16063 0.62655 0.0
C288 C 0.13887 0.09442 0.38082 0.0
C289 C 0.1168 0.13696 0.37366 0.0
C290 C 0.10868 0.0533 0.40927 0.0
C291 C 0.05533 0.05384 0.43198 0.0
C292 C 0.03371 0.09545 0.4226 0.0
C293 C 0.06401 0.1366 0.39392 0.0
C294 C 0.02122 0.01197 0.46553 0.0
C295 C 0.03326 0.98039 0.49242 0.0
C296 C 1.00009 0.93901 0.52814 0.0
C297 C 0.01918 0.9095 0.55249 0.0
C298 C 0.99014 0.87071 0.58689 0.0
C299 C 0.94079 0.86009 0.59826 0.0
H300 H 0.93403 0.94965 0.52168 0.0
C301 C 0.9215 0.88939 0.57386 0.0
C302 C 0.95072 0.92829 0.5392 0.0
H303 H 0.88369 0.88236 0.58156 0.0
H304 H 0.17953 0.09313 0.36519 0.0
H305 H 0.12753 0.02134 0.41331 0.0
H306 H 0.99292 0.09678 0.43884 0.0
H307 H 0.04577 0.16871 0.3891 0.0
H308 H 0.98436 0.00907 0.46977 0.0
H309 H 0.06938 0.98567 0.48947 0.0
H310 H 0.05692 0.91654 0.54504 0.0
H311 H 1.00647 0.84925 0.60485 0.0
C312 C 0.04038 0.88864 0.9322 0.0
C313 C 0.09024 0.8748 0.91723 0.0
C314 C 0.01559 0.92904 0.9663 0.0
C315 C 0.04005 0.9567 0.98636 0.0
C316 C 0.09013 0.94342 0.97069 0.0
C317 C 0.1148 0.90281 0.93691 0.0
C318 C 0.01557 1.00092 0.02146 0.0
C319 C 0.96431 0.00637 0.05423 0.0
C320 C 0.93802 0.05144 0.0874 0.0
C321 C 0.88468 0.05532 0.11181 0.0
C322 C 0.85825 0.09798 0.14024 0.0
C323 C 0.88441 0.13798 0.14542 0.0
H324 H 1.00474 0.0893 0.07772 0.0
C325 C 0.93739 0.13347 0.12317 0.0
C326 C 0.96397 0.09072 0.09449 0.0
H327 H 0.95866 0.16359 0.12655 0.0
H328 H 0.02031 0.86828 0.9176 0.0
H329 H 0.97772 0.939 0.97584 0.0
H330 H 0.11019 0.96437 0.98494 0.0
H331 H 0.15327 0.89356 0.9261 0.0
H332 H 0.04115 0.02924 0.01999 0.0
H333 H 0.9397 0.97658 0.05615 0.0
H334 H 0.86336 0.02571 0.10768 0.0
H335 H 0.8174 0.10006 0.15702 0.0
C336 C 0.48172 0.36777 0.56135 0.0
C337 C 0.42875 0.35924 0.58654 0.0
C338 C 0.50493 0.40911 0.52822 0.0
C339 C 0.47576 0.4431 0.51928 0.0
C340 C 0.4229 0.43457 0.54441 0.0
C341 C 0.39972 0.39307 0.57729 0.0
C342 C 0.49839 0.48939 0.4871 0.0
C343 C 0.54844 0.49396 0.44827 0.0
C344 C 0.57345 0.54126 0.41933 0.0
C345 C 0.62711 0.5443 0.39172 0.0
C346 C 0.65265 0.58864 0.36737 0.0
C347 C 0.6253 0.6312 0.36935 0.0
H348 H 0.5049 0.58244 0.43872 0.0
C349 C 0.57183 0.62774 0.39452 0.0
C350 C 0.54608 0.58328 0.41935 0.0
H351 H 0.54967 0.65985 0.3966 0.0
H352 H 0.50534 0.34288 0.56777 0.0
H353 H 0.54542 0.41496 0.51118 0.0
H354 H 0.39931 0.46029 0.5388 0.0
H355 H 0.35882 0.38803 0.59613 0.0
H356 H 0.47262 0.5206 0.49672 0.0
H357 H 0.57336 0.46191 0.43845 0.0
H358 H 0.64946 0.51263 0.39034 0.0
H359 H 0.69391 0.58983 0.34804 0.0
C360 C 0.3752 0.59275 0.14841 0.0
C361 C 0.39727 0.63685 0.15241 0.0
C362 C 0.40585 0.5518 0.12022 0.0
C363 C 0.45954 0.55416 0.09471 0.0
C364 C 0.48123 0.59721 0.10137 0.0
C365 C 0.4505 0.63819 0.12975 0.0
C366 C 0.49386 0.51296 0.06027 0.0
C367 C 0.48102 0.48171 0.03395 0.0
C368 C 0.51429 0.44143 0.9966 0.0
C369 C 0.49666 0.41604 0.9685 0.0
C370 C 0.52524 0.37763 0.93339 0.0
C371 C 0.57262 0.3632 0.92516 0.0
H372 H 0.57698 0.44516 1.00938 0.0
C373 C 0.59071 0.38865 0.95294 0.0
C374 C 0.56186 0.42724 0.9884 0.0
H375 H 0.6269 0.37842 0.9478 0.0
H376 H 0.33424 0.59021 0.166 0.0
H377 H 0.38723 0.51862 0.1182 0.0
H378 H 0.52232 0.59988 0.08293 0.0
H379 H 0.46872 0.67154 0.13222 0.0
H380 H 0.53163 0.51089 0.05403 0.0
H381 H 0.44428 0.48694 0.0382 0.0
H382 H 0.46031 0.42586 0.97373 0.0
H383 H 0.50989 0.35919 0.91276 0.0
C384 C 0.90403 0.39095 0.06519 0.0
C385 C 0.90457 0.36455 0.10518 0.0
C386 C 0.94139 0.4272 0.03595 0.0
C387 C 0.98027 0.43667 0.04574 0.0
C388 C 0.98305 0.40701 0.08257 0.0
C389 C 0.94532 0.37146 0.1123 0.0
C390 C 0.01665 0.47879 0.02032 0.0
C391 C 1.00147 0.52272 0.01176 0.0
C392 C 0.03411 0.56792 0.98978 0.0
C393 C 0.00962 0.61331 0.99443 0.0
C394 C 0.03804 0.65562 0.96811 0.0
C395 C 0.09174 0.65368 0.93664 0.0
H396 H 0.10859 0.53242 0.95613 0.0
C397 C 0.11674 0.60948 0.93495 0.0
C398 C 0.08814 0.5667 0.96115 0.0
H399 H 0.15812 0.60688 0.91007 0.0
H400 H 0.87354 0.38519 0.0583 0.0
H401 H 0.93921 0.44843 1.0065 0.0
H402 H 0.01292 0.41308 0.09035 0.0
H403 H 0.94713 0.35032 0.14206 0.0
H404 H 0.05449 0.47494 0.01371 0.0
H405 H 0.96191 0.52656 0.02318 0.0
H406 H 0.96817 0.61558 0.01654 0.0
H407 H 0.01787 0.68926 0.96981 0.0
C408 C 0.10743 0.3878 0.44955 0.0
C409 C 0.11189 0.36482 0.40522 0.0
C410 C 0.07197 0.42645 0.47565 0.0
C411 C 0.0404 0.44206 0.45784 0.0
C412 C 0.04294 0.41684 0.41561 0.0
C413 C 0.07778 0.37803 0.3901 0.0
C414 C 0.00814 0.48727 0.4792 0.0
C415 C 0.98096 0.49851 0.53106 0.0
C416 C 0.95177 0.54562 0.55181 0.0
C417 C 0.90594 0.54581 0.60192 0.0
C418 C 0.88147 0.59069 0.62574 0.0
C419 C 0.90305 0.63614 0.60031 0.0
H420 H 0.00757 0.59216 0.48665 0.0
C421 C 0.94777 0.6361 0.54935 0.0
C422 C 0.97169 0.59108 0.5249 0.0
H423 H 0.96584 0.6709 0.52988 0.0
H424 H 0.13283 0.3775 0.46238 0.0
H425 H 0.07104 0.44563 0.50795 0.0
H426 H 0.0188 0.42797 0.40145 0.0
H427 H 0.07935 0.35949 0.35714 0.0
H428 H 1.00565 0.51127 0.45145 0.0
H429 H 0.9794 0.47206 0.55939 0.0
H430 H 0.89008 0.51132 0.62351 0.0
H431 H 0.84767 0.59008 0.66569 0.0
C432 C 0.54146 0.13454 0.96557 0.0
C433 C 0.59447 0.14316 0.93875 0.0
C434 C 0.52037 0.09032 0.99305 0.0
C435 C 0.55187 0.0534 0.99406 0.0
C436 C 0.60416 0.06363 0.97131 0.0
C437 C 0.62548 0.10824 0.94354 0.0
C438 C 0.53039 1.00406 0.0181 0.0
C439 C 0.49378 0.9824 0.01334 0.0
C440 C 0.46512 0.93639 0.04134 0.0
C441 C 0.42775 0.91873 0.03228 0.0
C442 C 0.39433 0.8804 0.06329 0.0
C443 C 0.39724 0.85985 0.10446 0.0
H444 H 0.49857 0.92426 0.08841 0.0
C445 C 0.43681 0.87457 0.11105 0.0
C446 C 0.47041 0.91258 0.07997 0.0
H447 H 0.44059 0.85784 0.14169 0.0
H448 H 0.51641 0.16123 0.96344 0.0
H449 H 0.47949 0.08458 0.01236 0.0
H450 H 0.62894 0.03607 0.97265 0.0
H451 H 0.66645 0.11396 0.92321 0.0
H452 H 0.54583 0.98569 0.03869 0.0
H453 H 0.48248 1.00066 0.98881 0.0
H454 H 0.42295 0.936 1.00255 0.0
H455 H 0.36467 0.86866 0.05691 0.0
C456 C 0.57052 0.87248 0.41154 0.0
C457 C 0.60809 0.85875 0.42166 0.0
C458 C 0.53363 0.90822 0.4429 0.0
C459 C 0.5334 0.93068 0.4854 0.0
C460 C 0.56905 0.91446 0.49753 0.0
C461 C 0.60605 0.87858 0.46601 0.0
C462 C 0.4968 0.97111 0.51755 0.0
C463 C 0.47739 1.00321 0.49813 0.0
C464 C 0.4462 0.04693 0.52897 0.0
C465 C 0.45456 0.09316 0.50349 0.0
C466 C 0.43058 0.13623 0.53312 0.0
C467 C 0.39681 0.1332 0.58832 0.0
H468 H 0.4018 0.00833 0.60429 0.0
C469 C 0.38542 0.08648 0.61316 0.0
C470 C 0.40999 0.04367 0.58382 0.0
H471 H 0.35961 0.08345 0.65581 0.0
H472 H 0.57019 0.85607 0.37869 0.0
H473 H 0.50561 0.91824 0.43353 0.0
H474 H 0.5692 0.93057 0.53059 0.0
H475 H 0.634 0.86759 0.47519 0.0
H476 H 0.48908 0.9773 0.5571 0.0
H477 H 0.48873 1.00058 0.45704 0.0
H478 H 0.48207 0.09643 0.46114 0.0
H479 H 0.44061 0.17209 0.51343 0.0
C480 C 0.23743 0.80565 0.40774 0.0
C481 C 0.26211 0.7697 0.36733 0.0
C482 C 0.23224 0.7988 0.4565 0.0
C483 C 0.25181 0.75585 0.46611 0.0
C484 C 0.27296 0.71811 0.42743 0.0
C485 C 0.27835 0.72504 0.37823 0.0
C486 C 0.25038 0.75001 0.51619 0.0
C487 C 0.25607 0.78922 0.54088 0.0
C488 C 0.25169 0.78682 0.59289 0.0
C489 C 0.2486 0.83176 0.61877 0.0
C490 C 0.2395 0.83157 0.66993 0.0
C491 C 0.23255 0.78638 0.69625 0.0
H492 H 0.2525 0.706 0.59957 0.0
C493 C 0.23916 0.74151 0.6693 0.0
C494 C 0.24868 0.74158 0.61815 0.0
H495 H 0.23559 0.70614 0.68846 0.0
H496 H 0.22342 0.84007 0.40118 0.0
H497 H 0.21346 0.82757 0.48636 0.0
H498 H 0.28734 0.68418 0.43441 0.0
H499 H 0.29739 0.69659 0.34802 0.0
H500 H 0.24538 0.71261 0.53179 0.0
H501 H 0.26287 0.82581 0.52276 0.0
H502 H 0.2515 0.86723 0.6001 0.0
H503 H 0.23553 0.86658 0.68977 0.0
C504 C 0.78285 0.74321 0.85527 0.0
C505 C 0.79451 0.78718 0.82559 0.0
C506 C 0.77494 0.74388 0.90577 0.0
C507 C 0.77865 0.7888 0.92765 0.0
C508 C 0.78724 0.83325 0.89896 0.0
C509 C 0.79475 0.83252 0.84846 0.0
C510 C 0.77433 0.79121 0.97965 0.0
C511 C 0.77682 0.75144 1.00591 0.0
C512 C 0.77332 0.75656 0.05721 0.0
C513 C 0.74975 0.71901 0.09593 0.0
C514 C 0.74176 0.72553 0.14638 0.0
C515 C 0.75767 0.76961 0.15858 0.0
H516 H 0.8133 0.8273 0.0386 0.0
C517 C 0.78485 0.80521 0.11829 0.0
C518 C 0.79272 0.79874 0.06826 0.0
H519 H 0.79863 0.83917 0.12597 0.0
H520 H 0.78083 0.70797 0.83887 0.0
H521 H 0.76652 0.70896 0.9268 0.0
H522 H 0.78952 0.86856 0.91505 0.0
H523 H 0.80271 0.86698 0.82654 0.0
H524 H 0.76966 0.82806 0.99665 0.0
H525 H 0.7801 0.71402 0.99087 0.0
H526 H 0.73538 0.68565 0.08798 0.0
H527 H 0.72077 0.69741 0.1765 0.0
C528 C 0.72384 0.30187 0.40742 0.0
C529 C 0.75438 0.26843 0.36586 0.0
C530 C 0.71379 0.29371 0.45809 0.0
C531 C 0.73451 0.25209 0.46838 0.0
C532 C 0.76146 0.21644 0.42812 0.0
C533 C 0.7715 0.22458 0.37706 0.0
C534 C 0.72957 0.24609 0.52026 0.0
C535 C 0.72968 0.28567 0.54812 0.0
C536 C 0.72526 0.283 0.60013 0.0
C537 C 0.72033 0.32778 0.62705 0.0
C538 C 0.71376 0.32733 0.6771 0.0
C539 C 0.71114 0.28197 0.7014 0.0
H540 H 0.7303 0.2023 0.60451 0.0
C541 C 0.71859 0.23739 0.67373 0.0
C542 C 0.72546 0.23773 0.62371 0.0
H543 H 0.71822 0.20198 0.69131 0.0
H544 H 0.70913 0.3355 0.40029 0.0
H545 H 0.69072 0.32071 0.48882 0.0
H546 H 0.77696 0.18353 0.43542 0.0
H547 H 0.79506 0.19816 0.34582 0.0
H548 H 0.72819 0.2084 0.53381 0.0
H549 H 0.73339 0.32273 0.53184 0.0
H550 H 0.7206 0.36331 0.60975 0.0
H551 H 0.70894 0.36217 0.69752 0.0
C552 C 0.30249 0.28855 0.1081 0.0
C553 C 0.26633 0.2588 0.1507 0.0
C554 C 0.31286 0.28118 0.05712 0.0
C555 C 0.28666 0.24425 0.04764 0.0
C556 C 0.25374 0.21178 0.08926 0.0
C557 C 0.24356 0.21899 0.14048 0.0
C558 C 0.29157 0.23985 0.99552 0.0
C559 C 0.3024 0.27923 0.96288 0.0
C560 C 0.3045 0.27758 0.91195 0.0
C561 C 0.30721 0.3228 0.88663 0.0
C562 C 0.30997 0.32319 0.83838 0.0
C563 C 0.31108 0.27827 0.81412 0.0
H564 H 0.30323 0.19687 0.9048 0.0
C565 C 0.30712 0.23319 0.83975 0.0
C566 C 0.30442 0.23268 0.88778 0.0
H567 H 0.30678 0.19805 0.82218 0.0
H568 H 0.32135 0.31901 0.11463 0.0
H569 H 0.34048 0.30534 0.02563 0.0
H570 H 0.2338 0.18237 0.08282 0.0
H571 H 0.21547 0.19555 0.17255 0.0
H572 H 0.28201 0.2041 0.98638 0.0
H573 H 0.30785 0.31554 0.97502 0.0
H574 H 0.30732 0.35804 0.90417 0.0
H575 H 0.31238 0.3584 0.81952 0.0
C576 C 0.37555 0.356 0.26778 0.0
C577 C 0.34175 0.31526 0.28958 0.0
C578 C 0.42357 0.35457 0.26172 0.0
C579 C 0.43893 0.31239 0.27769 0.0
C580 C 0.40498 0.27195 0.29983 0.0
C581 C 0.35702 0.27336 0.30589 0.0
C582 C 0.49065 0.30784 0.26967 0.0
C583 C 0.52154 0.3468 0.26176 0.0
C584 C 0.57341 0.34136 0.25312 0.0
C585 C 0.59466 0.38183 0.26445 0.0
C586 C 0.64332 0.37833 0.25661 0.0
C587 C 0.67228 0.33428 0.2367 0.0
H588 H 0.58868 0.26608 0.2213 0.0
C589 C 0.65138 0.29407 0.2244 0.0
C590 C 0.6027 0.29757 0.23235 0.0
H591 H 0.67261 0.25968 0.20859 0.0
H592 H 0.36534 0.38883 0.25446 0.0
H593 H 0.44882 0.3861 0.24319 0.0
H594 H 0.41573 0.23882 0.31224 0.0
H595 H 0.33223 0.24119 0.32274 0.0
H596 H 0.50281 0.27062 0.27222 0.0
H597 H 0.50782 0.38443 0.26387 0.0
H598 H 0.57332 0.41623 0.27993 0.0
H599 H 0.65812 0.4102 0.26633 0.0
C600 C 0.64243 0.70029 0.7578 0.0
C601 C 0.67992 0.72721 0.71322 0.0
C602 C 0.59341 0.6931 0.76706 0.0
C603 C 0.58092 0.71252 0.73171 0.0
C604 C 0.61909 0.73777 0.68625 0.0
C605 C 0.66778 0.7454 0.67732 0.0
C606 C 0.52878 0.7077 0.74074 0.0
C607 C 0.48532 0.70412 0.78934 0.0
C608 C 0.43292 0.70665 0.79874 0.0
C609 C 0.39293 0.72693 0.8467 0.0
C610 C 0.34406 0.73342 0.85581 0.0
C611 C 0.33355 0.71882 0.81759 0.0
H612 H 0.45146 0.67315 0.72436 0.0
C613 C 0.37275 0.69609 0.77065 0.0
C614 C 0.42203 0.69024 0.76117 0.0
H615 H 0.36586 0.68437 0.74045 0.0
H616 H 0.65062 0.68556 0.78609 0.0
H617 H 0.56557 0.67223 0.80179 0.0
H618 H 0.61087 0.75278 0.65805 0.0
H619 H 0.69579 0.76604 0.64241 0.0
H620 H 0.52592 0.71205 0.70639 0.0
H621 H 0.48783 0.70447 0.82411 0.0
H622 H 0.39993 0.73942 0.87662 0.0
H623 H 0.31469 0.75083 0.8925 0.0
C624 C 0.12987 0.8441 0.27415 0.0
C625 C 0.17052 0.81426 0.23597 0.0
C626 C 0.08285 0.84476 0.27795 0.0
C627 C 0.07584 0.81631 0.24294 0.0
C628 C 0.11665 0.7871 0.20435 0.0
C629 C 0.16323 0.78548 0.20138 0.0
C630 C 0.02714 0.81793 0.24451 0.0
C631 C 0.98083 0.82025 0.29021 0.0
C632 C 0.93211 0.81992 0.29183 0.0
C633 C 0.88995 0.79342 0.33218 0.0
C634 C 0.84356 0.79246 0.33477 0.0
C635 C 0.83783 0.81934 0.29802 0.0
H636 H 0.95814 0.86833 0.22392 0.0
C637 C 0.87968 0.8469 0.25833 0.0
C638 C 0.92657 0.84676 0.25488 0.0
H639 H 0.87641 0.86799 0.22947 0.0
H640 H 0.13433 0.86679 0.30128 0.0
H641 H 0.05245 0.86842 0.30747 0.0
H642 H 0.11234 0.76515 0.17666 0.0
H643 H 0.19393 0.7625 0.1712 0.0
H644 H 0.02937 0.81393 0.2072 0.0
H645 H 0.97835 0.81892 0.3278 0.0
H646 H 0.89313 0.77281 0.36136 0.0
H647 H 0.81189 0.77121 0.36606 0.0
C648 C 0.15254 0.2383 0.69867 0.0
C649 C 0.17051 0.22104 0.7301 0.0
C650 C 0.10097 0.23285 0.71549 0.0
C651 C 0.06578 0.21026 0.76451 0.0
C652 C 0.0839 0.19243 0.79561 0.0
C653 C 0.13575 0.19725 0.77839 0.0
C654 C 0.00963 0.20843 0.78589 0.0
C655 C 0.99045 0.20661 0.75475 0.0
C656 C 0.93456 0.20907 0.77515 0.0
C657 C 0.91725 0.18907 0.74418 0.0
C658 C 0.86615 0.19476 0.7593 0.0
C659 C 0.83114 0.22149 0.80535 0.0
H660 H 0.91104 0.25142 0.84659 0.0
C661 C 0.8481 0.24075 0.83696 0.0
C662 C 0.89911 0.23448 0.8222 0.0
H663 H 0.82224 0.26174 0.87256 0.0
H664 H 0.17819 0.25703 0.66137 0.0
H665 H 0.0885 0.24821 0.69089 0.0
H666 H 0.0577 0.17524 0.83373 0.0
H667 H 0.14819 0.18389 0.80376 0.0
H668 H 0.98345 0.20785 0.82873 0.0
H669 H 0.01675 0.20241 0.71217 0.0
H670 H 0.94363 0.16963 0.70758 0.0
H671 H 0.85457 0.17967 0.73382 0.0
loop_
_geom_bond_atom_site_label_1
_geom_bond_atom_site_label_2
_geom_bond_distance
_geom_bond_site_symmetry_2
_ccdc_geom_bond_type
Mn0 O5 2.095 . S
Mn0 O15 2.162 . S
Mn0 O16 2.297 . S
Mn0 O24 2.385 . S
Mn0 O25 2.209 . S
Mn0 O26 2.094 . S
Mn1 O6 2.121 . S
Mn1 N8 2.257 . S
Mn1 N17 2.282 . S
Mn1 O25 2.215 . S
Mn1 O27 2.117 . S
C2 O24 1.234 . S
C2 O25 1.283 . S
C3 O15 1.281 . S
C3 O16 1.236 . S
C4 O26 1.240 . S
C4 O27 1.264 . S
O5 Mn0 2.095 . S
O5 C14 1.250 . S
O6 Mn1 2.121 . S
O6 C14 1.258 . S
C7 N8 1.326 . S
C7 C11 1.460 . S
C7 H13 0.929 . S
N8 Mn1 2.257 . S
N8 C7 1.326 . S
N8 C12 1.362 . S
C9 C10 1.258 . S
C9 C12 1.431 . S
C9 C29 1.449 . S
C10 C9 1.258 . S
C10 C11 1.477 . S
C10 H30 0.931 . S
C11 C7 1.460 . S
C11 C10 1.477 . S
C11 H31 0.930 . S
C12 N8 1.362 . S
C12 C9 1.431 . S
C12 C22 1.476 . S
H13 C7 0.929 . S
C14 O5 1.250 . S
C14 O6 1.258 . S
O15 Mn0 2.162 . S
O15 C3 1.281 . S
O16 Mn0 2.297 . S
O16 C3 1.236 . S
N17 Mn1 2.282 . S
N17 C18 1.328 . S
N17 C22 1.318 . S
C18 N17 1.328 . S
C18 C19 1.457 . S
C18 H23 0.929 . S
C19 C18 1.457 . S
C19 C20 1.291 . S
C19 H32 0.931 . S
C20 C19 1.291 . S
C20 C21 1.373 . S
C20 H33 0.929 . S
C21 C20 1.373 . S
C21 C22 1.396 . S
C21 C28 1.403 . S
C22 C12 1.476 . S
C22 N17 1.318 . S
C22 C21 1.396 . S
H23 C18 0.929 . S
O24 Mn0 2.385 . S
O24 C2 1.234 . S
O25 Mn0 2.209 . S
O25 Mn1 2.215 . S
O25 C2 1.283 . S
O26 Mn0 2.094 . S
O26 C4 1.240 . S
O27 Mn1 2.117 . S
O27 C4 1.264 . S
C28 C21 1.403 . S
C28 C29 1.399 . S
C28 H34 0.929 . S
C29 C9 1.449 . S
C29 C28 1.399 . S
C29 H35 0.930 . S
H30 C10 0.931 . S
H31 C11 0.930 . S
H32 C19 0.931 . S
H33 C20 0.929 . S
H34 C28 0.929 . S
H35 C29 0.930 . S
Mn36 O41 2.095 . S
Mn36 O51 2.162 . S
Mn36 O52 2.297 . S
Mn36 O60 2.385 . S
Mn36 O61 2.209 . S
Mn36 O62 2.094 . S
Mn37 O42 2.121 . S
Mn37 N44 2.257 . S
Mn37 N53 2.282 . S
Mn37 O61 2.215 . S
Mn37 O63 2.117 . S
C38 O60 1.234 . S
C38 O61 1.283 . S
C39 O51 1.281 . S
C39 O52 1.236 . S
C40 O62 1.240 . S
C40 O63 1.264 . S
O41 Mn36 2.095 . S
O41 C50 1.250 . S
O42 Mn37 2.121 . S
O42 C50 1.258 . S
C43 N44 1.326 . S
C43 C47 1.460 . S
C43 H49 0.929 . S
N44 Mn37 2.257 . S
N44 C43 1.326 . S
N44 C48 1.362 . S
C45 C46 1.258 . S
C45 C48 1.431 . S
C45 C65 1.449 . S
C46 C45 1.258 . S
C46 C47 1.477 . S
C46 H66 0.931 . S
C47 C43 1.460 . S
C47 C46 1.477 . S
C47 H67 0.930 . S
C48 N44 1.362 . S
C48 C45 1.431 . S
C48 C58 1.476 . S
H49 C43 0.929 . S
C50 O41 1.250 . S
C50 O42 1.258 . S
O51 Mn36 2.162 . S
O51 C39 1.281 . S
O52 Mn36 2.297 . S
O52 C39 1.236 . S
N53 Mn37 2.282 . S
N53 C54 1.328 . S
N53 C58 1.318 . S
C54 N53 1.328 . S
C54 C55 1.457 . S
C54 H59 0.929 . S
C55 C54 1.457 . S
C55 C56 1.291 . S
C55 H68 0.931 . S
C56 C55 1.291 . S
C56 C57 1.373 . S
C56 H69 0.929 . S
C57 C56 1.373 . S
C57 C58 1.396 . S
C57 C64 1.403 . S
C58 C48 1.476 . S
C58 N53 1.318 . S
C58 C57 1.396 . S
H59 C54 0.929 . S
O60 Mn36 2.385 . S
O60 C38 1.234 . S
O61 Mn36 2.209 . S
O61 Mn37 2.215 . S
O61 C38 1.283 . S
O62 Mn36 2.094 . S
O62 C40 1.240 . S
O63 Mn37 2.117 . S
O63 C40 1.264 . S
C64 C57 1.403 . S
C64 C65 1.399 . S
C64 H70 0.929 . S
C65 C45 1.449 . S
C65 C64 1.399 . S
C65 H71 0.930 . S
H66 C46 0.931 . S
H67 C47 0.930 . S
H68 C55 0.931 . S
H69 C56 0.929 . S
H70 C64 0.929 . S
H71 C65 0.930 . S
Mn72 O77 2.095 . S
Mn72 O87 2.162 . S
Mn72 O88 2.297 . S
Mn72 O96 2.385 . S
Mn72 O97 2.209 . S
Mn72 O98 2.094 . S
Mn73 O78 2.121 . S
Mn73 N80 2.257 . S
Mn73 N89 2.282 . S
Mn73 O97 2.215 . S
Mn73 O99 2.117 . S
C74 O96 1.234 . S
C74 O97 1.283 . S
C75 O87 1.281 . S
C75 O88 1.236 . S
C76 O98 1.240 . S
C76 O99 1.264 . S
O77 Mn72 2.095 . S
O77 C86 1.250 . S
O78 Mn73 2.121 . S
O78 C86 1.258 . S
C79 N80 1.326 . S
C79 C83 1.460 . S
C79 H85 0.929 . S
N80 Mn73 2.257 . S
N80 C79 1.326 . S
N80 C84 1.362 . S
C81 C82 1.258 . S
C81 C84 1.431 . S
C81 C101 1.449 . S
C82 C81 1.258 . S
C82 C83 1.477 . S
C82 H102 0.931 . S
C83 C79 1.460 . S
C83 C82 1.477 . S
C83 H103 0.930 . S
C84 N80 1.362 . S
C84 C81 1.431 . S
C84 C94 1.476 . S
H85 C79 0.929 . S
C86 O77 1.250 . S
C86 O78 1.258 . S
O87 Mn72 2.162 . S
O87 C75 1.281 . S
O88 Mn72 2.297 . S
O88 C75 1.236 . S
N89 Mn73 2.282 . S
N89 C90 1.328 . S
N89 C94 1.318 . S
C90 N89 1.328 . S
C90 C91 1.457 . S
C90 H95 0.929 . S
C91 C90 1.457 . S
C91 C92 1.291 . S
C91 H104 0.931 . S
C92 C91 1.291 . S
C92 C93 1.373 . S
C92 H105 0.929 . S
C93 C92 1.373 . S
C93 C94 1.396 . S
C93 C100 1.403 . S
C94 C84 1.476 . S
C94 N89 1.318 . S
C94 C93 1.396 . S
H95 C90 0.929 . S
O96 Mn72 2.385 . S
O96 C74 1.234 . S
O97 Mn72 2.209 . S
O97 Mn73 2.215 . S
O97 C74 1.283 . S
O98 Mn72 2.094 . S
O98 C76 1.240 . S
O99 Mn73 2.117 . S
O99 C76 1.264 . S
C100 C93 1.403 . S
C100 C101 1.399 . S
C100 H106 0.929 . S
C101 C81 1.449 . S
C101 C100 1.399 . S
C101 H107 0.930 . S
H102 C82 0.931 . S
H103 C83 0.930 . S
H104 C91 0.931 . S
H105 C92 0.929 . S
H106 C100 0.929 . S
H107 C101 0.930 . S
Mn108 O113 2.095 . S
Mn108 O123 2.162 . S
Mn108 O124 2.297 . S
Mn108 O132 2.385 . S
Mn108 O133 2.209 . S
Mn108 O134 2.094 . S
Mn109 O114 2.121 . S
Mn109 N116 2.257 . S
Mn109 N125 2.282 . S
Mn109 O133 2.215 . S
Mn109 O135 2.117 . S
C110 O132 1.234 . S
C110 O133 1.283 . S
C111 O123 1.281 . S
C111 O124 1.236 . S
C112 O134 1.240 . S
C112 O135 1.264 . S
O113 Mn108 2.095 . S
O113 C122 1.250 . S
O114 Mn109 2.121 . S
O114 C122 1.258 . S
C115 N116 1.326 . S
C115 C119 1.460 . S
C115 H121 0.929 . S
N116 Mn109 2.257 . S
N116 C115 1.326 . S
N116 C120 1.362 . S
C117 C118 1.258 . S
C117 C120 1.431 . S
C117 C137 1.449 . S
C118 C117 1.258 . S
C118 C119 1.477 . S
C118 H138 0.931 . S
C119 C115 1.460 . S
C119 C118 1.477 . S
C119 H139 0.930 . S
C120 N116 1.362 . S
C120 C117 1.431 . S
C120 C130 1.476 . S
H121 C115 0.929 . S
C122 O113 1.250 . S
C122 O114 1.258 . S
O123 Mn108 2.162 . S
O123 C111 1.281 . S
O124 Mn108 2.297 . S
O124 C111 1.236 . S
N125 Mn109 2.282 . S
N125 C126 1.328 . S
N125 C130 1.318 . S
C126 N125 1.328 . S
C126 C127 1.457 . S
C126 H131 0.929 . S
C127 C126 1.457 . S
C127 C128 1.291 . S
C127 H140 0.931 . S
C128 C127 1.291 . S
C128 C129 1.373 . S
C128 H141 0.929 . S
C129 C128 1.373 . S
C129 C130 1.396 . S
C129 C136 1.403 . S
C130 C120 1.476 . S
C130 N125 1.318 . S
C130 C129 1.396 . S
H131 C126 0.929 . S
O132 Mn108 2.385 . S
O132 C110 1.234 . S
O133 Mn108 2.209 . S
O133 Mn109 2.215 . S
O133 C110 1.283 . S
O134 Mn108 2.094 . S
O134 C112 1.240 . S
O135 Mn109 2.117 . S
O135 C112 1.264 . S
C136 C129 1.403 . S
C136 C137 1.399 . S
C136 H142 0.929 . S
C137 C117 1.449 . S
C137 C136 1.399 . S
C137 H143 0.930 . S
H138 C118 0.931 . S
H139 C119 0.930 . S
H140 C127 0.931 . S
H141 C128 0.929 . S
H142 C136 0.929 . S
H143 C137 0.930 . S
Mn144 O149 2.095 . S
Mn144 O159 2.162 . S
Mn144 O160 2.297 . S
Mn144 O168 2.385 . S
Mn144 O169 2.209 . S
Mn144 O170 2.094 . S
Mn145 O150 2.121 . S
Mn145 N152 2.257 . S
Mn145 N161 2.282 . S
Mn145 O169 2.215 . S
Mn145 O171 2.117 . S
C146 O168 1.234 . S
C146 O169 1.283 . S
C147 O159 1.281 . S
C147 O160 1.236 . S
C148 O170 1.240 . S
C148 O171 1.264 . S
O149 Mn144 2.095 . S
O149 C158 1.250 . S
O150 Mn145 2.121 . S
O150 C158 1.258 . S
C151 N152 1.326 . S
C151 C155 1.460 . S
C151 H157 0.929 . S
N152 Mn145 2.257 . S
N152 C151 1.326 . S
N152 C156 1.362 . S
C153 C154 1.258 . S
C153 C156 1.431 1_545 S
C153 C173 1.449 . S
C154 C153 1.258 . S
C154 C155 1.477 1_545 S
C154 H174 0.931 . S
C155 C151 1.460 . S
C155 C154 1.477 1_565 S
C155 H175 0.930 . S
C156 N152 1.362 . S
C156 C153 1.431 1_565 S
C156 C166 1.476 . S
H157 C151 0.929 . S
C158 O149 1.250 . S
C158 O150 1.258 . S
O159 Mn144 2.162 . S
O159 C147 1.281 . S
O160 Mn144 2.297 . S
O160 C147 1.236 . S
N161 Mn145 2.282 . S
N161 C162 1.328 . S
N161 C166 1.318 . S
C162 N161 1.328 . S
C162 C163 1.457 . S
C162 H167 0.929 . S
C163 C162 1.457 . S
C163 C164 1.291 1_565 S
C163 H176 0.931 . S
C164 C163 1.291 1_545 S
C164 C165 1.373 . S
C164 H177 0.929 . S
C165 C164 1.373 . S
C165 C166 1.396 1_545 S
C165 C172 1.403 . S
C166 C156 1.476 . S
C166 N161 1.318 . S
C166 C165 1.396 1_565 S
H167 C162 0.929 . S
O168 Mn144 2.385 . S
O168 C146 1.234 . S
O169 Mn144 2.209 . S
O169 Mn145 2.215 . S
O169 C146 1.283 . S
O170 Mn144 2.094 . S
O170 C148 1.240 . S
O171 Mn145 2.117 . S
O171 C148 1.264 . S
C172 C165 1.403 . S
C172 C173 1.399 . S
C172 H178 0.929 . S
C173 C153 1.449 . S
C173 C172 1.399 . S
C173 H179 0.930 . S
H174 C154 0.931 . S
H175 C155 0.930 . S
H176 C163 0.931 . S
H177 C164 0.929 . S
H178 C172 0.929 . S
H179 C173 0.930 . S
Mn180 O185 2.095 . S
Mn180 O195 2.162 . S
Mn180 O196 2.297 . S
Mn180 O204 2.385 . S
Mn180 O205 2.209 . S
Mn180 O206 2.094 . S
Mn181 O186 2.121 . S
Mn181 N188 2.257 . S
Mn181 N197 2.282 . S
Mn181 O205 2.215 . S
Mn181 O207 2.117 . S
C182 O204 1.234 . S
C182 O205 1.283 . S
C183 O195 1.281 . S
C183 O196 1.236 . S
C184 O206 1.240 . S
C184 O207 1.264 . S
O185 Mn180 2.095 . S
O185 C194 1.250 . S
O186 Mn181 2.121 . S
O186 C194 1.258 . S
C187 N188 1.326 . S
C187 C191 1.460 . S
C187 H193 0.929 . S
N188 Mn181 2.257 . S
N188 C187 1.326 . S
N188 C192 1.362 . S
C189 C190 1.258 . S
C189 C192 1.431 1_545 S
C189 C209 1.449 . S
C190 C189 1.258 . S
C190 C191 1.477 1_545 S
C190 H210 0.931 . S
C191 C187 1.460 . S
C191 C190 1.477 1_565 S
C191 H211 0.930 . S
C192 N188 1.362 . S
C192 C189 1.431 1_565 S
C192 C202 1.476 . S
H193 C187 0.929 . S
C194 O185 1.250 . S
C194 O186 1.258 . S
O195 Mn180 2.162 . S
O195 C183 1.281 . S
O196 Mn180 2.297 . S
O196 C183 1.236 . S
N197 Mn181 2.282 . S
N197 C198 1.328 . S
N197 C202 1.318 . S
C198 N197 1.328 . S
C198 C199 1.457 . S
C198 H203 0.929 . S
C199 C198 1.457 . S
C199 C200 1.291 1_565 S
C199 H212 0.931 . S
C200 C199 1.291 1_545 S
C200 C201 1.373 . S
C200 H213 0.929 . S
C201 C200 1.373 . S
C201 C202 1.396 1_545 S
C201 C208 1.403 . S
C202 C192 1.476 . S
C202 N197 1.318 . S
C202 C201 1.396 1_565 S
H203 C198 0.929 . S
O204 Mn180 2.385 . S
O204 C182 1.234 . S
O205 Mn180 2.209 . S
O205 Mn181 2.215 . S
O205 C182 1.283 . S
O206 Mn180 2.094 . S
O206 C184 1.240 . S
O207 Mn181 2.117 . S
O207 C184 1.264 . S
C208 C201 1.403 . S
C208 C209 1.399 . S
C208 H214 0.929 . S
C209 C189 1.449 . S
C209 C208 1.399 . S
C209 H215 0.930 . S
H210 C190 0.931 . S
H211 C191 0.930 . S
H212 C199 0.931 . S
H213 C200 0.929 . S
H214 C208 0.929 . S
H215 C209 0.930 . S
Mn216 O221 2.095 . S
Mn216 O231 2.162 . S
Mn216 O232 2.297 . S
Mn216 O240 2.385 . S
Mn216 O241 2.209 . S
Mn216 O242 2.094 . S
Mn217 O222 2.121 . S
Mn217 N224 2.257 . S
Mn217 N233 2.282 . S
Mn217 O241 2.215 . S
Mn217 O243 2.117 . S
C218 O240 1.234 . S
C218 O241 1.283 . S
C219 O231 1.281 . S
C219 O232 1.236 . S
C220 O242 1.240 . S
C220 O243 1.264 . S
O221 Mn216 2.095 . S
O221 C230 1.250 . S
O222 Mn217 2.121 . S
O222 C230 1.258 . S
C223 N224 1.326 . S
C223 C227 1.460 . S
C223 H229 0.929 . S
N224 Mn217 2.257 . S
N224 C223 1.326 . S
N224 C228 1.362 . S
C225 C226 1.258 . S
C225 C228 1.431 . S
C225 C245 1.449 . S
C226 C225 1.258 . S
C226 C227 1.477 . S
C226 H246 0.931 . S
C227 C223 1.460 . S
C227 C226 1.477 . S
C227 H247 0.930 . S
C228 N224 1.362 . S
C228 C225 1.431 . S
C228 C238 1.476 . S
H229 C223 0.929 . S
C230 O221 1.250 . S
C230 O222 1.258 . S
O231 Mn216 2.162 . S
O231 C219 1.281 . S
O232 Mn216 2.297 . S
O232 C219 1.236 . S
N233 Mn217 2.282 . S
N233 C234 1.328 . S
N233 C238 1.318 . S
C234 N233 1.328 . S
C234 C235 1.457 . S
C234 H239 0.929 . S
C235 C234 1.457 . S
C235 C236 1.291 . S
C235 H248 0.931 . S
C236 C235 1.291 . S
C236 C237 1.373 . S
C236 H249 0.929 . S
C237 C236 1.373 . S
C237 C238 1.396 . S
C237 C244 1.403 . S
C238 C228 1.476 . S
C238 N233 1.318 . S
C238 C237 1.396 . S
H239 C234 0.929 . S
O240 Mn216 2.385 . S
O240 C218 1.234 . S
O241 Mn216 2.209 . S
O241 Mn217 2.215 . S
O241 C218 1.283 . S
O242 Mn216 2.094 . S
O242 C220 1.240 . S
O243 Mn217 2.117 . S
O243 C220 1.264 . S
C244 C237 1.403 . S
C244 C245 1.399 . S
C244 H250 0.929 . S
C245 C225 1.449 . S
C245 C244 1.399 . S
C245 H251 0.930 . S
H246 C226 0.931 . S
H247 C227 0.930 . S
H248 C235 0.931 . S
H249 C236 0.929 . S
H250 C244 0.929 . S
H251 C245 0.930 . S
Mn252 O257 2.095 . S
Mn252 O267 2.162 . S
Mn252 O268 2.297 . S
Mn252 O276 2.385 . S
Mn252 O277 2.209 . S
Mn252 O278 2.094 . S
Mn253 O258 2.121 . S
Mn253 N260 2.257 . S
Mn253 N269 2.282 . S
Mn253 O277 2.215 . S
Mn253 O279 2.117 . S
C254 O276 1.234 . S
C254 O277 1.283 . S
C255 O267 1.281 . S
C255 O268 1.236 . S
C256 O278 1.240 . S
C256 O279 1.264 . S
O257 Mn252 2.095 . S
O257 C266 1.250 . S
O258 Mn253 2.121 . S
O258 C266 1.258 . S
C259 N260 1.326 . S
C259 C263 1.460 . S
C259 H265 0.929 . S
N260 Mn253 2.257 . S
N260 C259 1.326 . S
N260 C264 1.362 . S
C261 C262 1.258 . S
C261 C264 1.431 . S
C261 C281 1.449 . S
C262 C261 1.258 . S
C262 C263 1.477 . S
C262 H282 0.931 . S
C263 C259 1.460 . S
C263 C262 1.477 . S
C263 H283 0.930 . S
C264 N260 1.362 . S
C264 C261 1.431 . S
C264 C274 1.476 . S
H265 C259 0.929 . S
C266 O257 1.250 . S
C266 O258 1.258 . S
O267 Mn252 2.162 . S
O267 C255 1.281 . S
O268 Mn252 2.297 . S
O268 C255 1.236 . S
N269 Mn253 2.282 . S
N269 C270 1.328 . S
N269 C274 1.318 . S
C270 N269 1.328 . S
C270 C271 1.457 . S
C270 H275 0.929 . S
C271 C270 1.457 . S
C271 C272 1.291 . S
C271 H284 0.931 . S
C272 C271 1.291 . S
C272 C273 1.373 . S
C272 H285 0.929 . S
C273 C272 1.373 . S
C273 C274 1.396 . S
C273 C280 1.403 . S
C274 C264 1.476 . S
C274 N269 1.318 . S
C274 C273 1.396 . S
H275 C270 0.929 . S
O276 Mn252 2.385 . S
O276 C254 1.234 . S
O277 Mn252 2.209 . S
O277 Mn253 2.215 . S
O277 C254 1.283 . S
O278 Mn252 2.094 . S
O278 C256 1.240 . S
O279 Mn253 2.117 . S
O279 C256 1.264 . S
C280 C273 1.403 . S
C280 C281 1.399 . S
C280 H286 0.929 . S
C281 C261 1.449 . S
C281 C280 1.399 . S
C281 H287 0.930 . S
H282 C262 0.931 . S
H283 C263 0.930 . S
H284 C271 0.931 . S
H285 C272 0.929 . S
H286 C280 0.929 . S
H287 C281 0.930 . S
C288 C289 1.386 . S
C288 C290 1.383 . S
C288 H304 0.951 . S
C289 C288 1.386 . S
C289 C293 1.383 . S
C290 C288 1.383 . S
C290 C291 1.402 . S
C290 H305 0.951 . S
C291 C290 1.402 . S
C291 C292 1.375 . S
C291 C294 1.481 1_455 S
C292 C291 1.375 . S
C292 C293 1.367 . S
C292 H306 0.951 . S
C293 C289 1.383 . S
C293 C292 1.367 . S
C293 H307 0.950 . S
C294 C291 1.481 1_655 S
C294 C295 1.297 . S
C294 H308 0.950 1_545 S
C295 C294 1.297 . S
C295 C296 1.479 1_545 S
C295 H309 0.950 . S
C296 C295 1.479 1_565 S
C296 C297 1.375 . S
C296 C302 1.404 . S
C297 C296 1.375 . S
C297 C298 1.369 . S
C297 H310 0.950 . S
C298 C297 1.369 . S
C298 C299 1.392 . S
C298 H311 0.951 . S
C299 C298 1.392 . S
C299 C301 1.384 . S
H300 C302 0.949 . S
C301 C299 1.384 . S
C301 C302 1.385 . S
C301 H303 0.950 . S
C302 C296 1.404 . S
C302 H300 0.949 . S
C302 C301 1.385 . S
H303 C301 0.950 . S
H304 C288 0.951 . S
H305 C290 0.951 . S
H306 C292 0.951 . S
H307 C293 0.950 . S
H308 C294 0.950 1_565 S
H309 C295 0.950 . S
H310 C297 0.950 . S
H311 C298 0.951 . S
C312 C313 1.386 . S
C312 C314 1.383 . S
C312 H328 0.951 . S
C313 C312 1.386 . S
C313 C317 1.383 . S
C314 C312 1.383 . S
C314 C315 1.402 . S
C314 H329 0.951 1_556 S
C315 C314 1.402 . S
C315 C316 1.375 . S
C315 C318 1.481 1_565 S
C316 C315 1.375 . S
C316 C317 1.367 . S
C316 H330 0.951 . S
C317 C313 1.383 . S
C317 C316 1.367 . S
C317 H331 0.950 . S
C318 C315 1.481 1_545 S
C318 C319 1.297 1_456 S
C318 H332 0.950 . S
C319 C318 1.297 1_654 S
C319 C320 1.479 . S
C319 H333 0.950 1_545 S
C320 C319 1.479 . S
C320 C321 1.375 . S
C320 C326 1.404 . S
C321 C320 1.375 . S
C321 C322 1.369 . S
C321 H334 0.950 . S
C322 C321 1.369 . S
C322 C323 1.392 . S
C322 H335 0.951 . S
C323 C322 1.392 . S
C323 C325 1.384 . S
H324 C326 0.949 1_455 S
C325 C323 1.384 . S
C325 C326 1.385 . S
C325 H327 0.950 . S
C326 C320 1.404 . S
C326 H324 0.949 1_655 S
C326 C325 1.385 . S
H327 C325 0.950 . S
H328 C312 0.951 . S
H329 C314 0.951 1_554 S
H330 C316 0.951 . S
H331 C317 0.950 . S
H332 C318 0.950 . S
H333 C319 0.950 1_565 S
H334 C321 0.950 . S
H335 C322 0.951 . S
C336 C337 1.386 . S
C336 C338 1.383 . S
C336 H352 0.951 . S
C337 C336 1.386 . S
C337 C341 1.383 . S
C338 C336 1.383 . S
C338 C339 1.402 . S
C338 H353 0.951 . S
C339 C338 1.402 . S
C339 C340 1.375 . S
C339 C342 1.481 . S
C340 C339 1.375 . S
C340 C341 1.367 . S
C340 H354 0.951 . S
C341 C337 1.383 . S
C341 C340 1.367 . S
C341 H355 0.950 . S
C342 C339 1.481 . S
C342 C343 1.297 . S
C342 H356 0.950 . S
C343 C342 1.297 . S
C343 C344 1.479 . S
C343 H357 0.950 . S
C344 C343 1.479 . S
C344 C345 1.375 . S
C344 C350 1.404 . S
C345 C344 1.375 . S
C345 C346 1.369 . S
C345 H358 0.950 . S
C346 C345 1.369 . S
C346 C347 1.392 . S
C346 H359 0.951 . S
C347 C346 1.392 . S
C347 C349 1.384 . S
H348 C350 0.949 . S
C349 C347 1.384 . S
C349 C350 1.385 . S
C349 H351 0.950 . S
C350 C344 1.404 . S
C350 H348 0.949 . S
C350 C349 1.385 . S
H351 C349 0.950 . S
H352 C336 0.951 . S
H353 C338 0.951 . S
H354 C340 0.951 . S
H355 C341 0.950 . S
H356 C342 0.950 . S
H357 C343 0.950 . S
H358 C345 0.950 . S
H359 C346 0.951 . S
C360 C361 1.386 . S
C360 C362 1.383 . S
C360 H376 0.951 . S
C361 C360 1.386 . S
C361 C365 1.383 . S
C362 C360 1.383 . S
C362 C363 1.402 . S
C362 H377 0.951 1_554 S
C363 C362 1.402 . S
C363 C364 1.375 . S
C363 C366 1.481 . S
C364 C363 1.375 . S
C364 C365 1.367 . S
C364 H378 0.951 . S
C365 C361 1.383 . S
C365 C364 1.367 . S
C365 H379 0.950 . S
C366 C363 1.481 . S
C366 C367 1.297 1_554 S
C366 H380 0.950 . S
C367 C366 1.297 1_556 S
C367 C368 1.479 . S
C367 H381 0.950 . S
C368 C367 1.479 . S
C368 C369 1.375 . S
C368 C374 1.404 . S
C369 C368 1.375 . S
C369 C370 1.369 . S
C369 H382 0.950 . S
C370 C369 1.369 . S
C370 C371 1.392 . S
C370 H383 0.951 . S
C371 C370 1.392 . S
C371 C373 1.384 . S
H372 C374 0.949 . S
C373 C371 1.384 . S
C373 C374 1.385 . S
C373 H375 0.950 . S
C374 C368 1.404 . S
C374 H372 0.949 . S
C374 C373 1.385 . S
H375 C373 0.950 . S
H376 C360 0.951 . S
H377 C362 0.951 1_556 S
H378 C364 0.951 . S
H379 C365 0.950 . S
H380 C366 0.950 . S
H381 C367 0.950 . S
H382 C369 0.950 . S
H383 C370 0.951 . S
C384 C385 1.386 . S
C384 C386 1.383 . S
C384 H400 0.951 . S
C385 C384 1.386 . S
C385 C389 1.383 . S
C386 C384 1.383 . S
C386 C387 1.402 . S
C386 H401 0.951 . S
C387 C386 1.402 . S
C387 C388 1.375 . S
C387 C390 1.481 1_655 S
C388 C387 1.375 . S
C388 C389 1.367 . S
C388 H402 0.951 1_655 S
C389 C385 1.383 . S
C389 C388 1.367 . S
C389 H403 0.950 . S
C390 C387 1.481 1_455 S
C390 C391 1.294 1_455 S
C390 H404 0.950 . S
C391 C390 1.294 1_655 S
C391 C392 1.469 1_654 S
C391 H405 0.966 . S
C392 C391 1.469 1_456 S
C392 C393 1.375 . S
C392 C398 1.404 . S
C393 C392 1.375 . S
C393 C394 1.369 . S
C393 H406 0.950 1_455 S
C394 C393 1.369 . S
C394 C395 1.392 . S
C394 H407 0.951 . S
C395 C394 1.392 . S
C395 C397 1.384 . S
H396 C398 0.949 . S
C397 C395 1.384 . S
C397 C398 1.385 . S
C397 H399 0.950 . S
C398 C392 1.404 . S
C398 H396 0.949 . S
C398 C397 1.385 . S
H399 C397 0.950 . S
H400 C384 0.951 . S
H401 C386 0.951 . S
H402 C388 0.951 1_455 S
H403 C389 0.950 . S
H404 C390 0.950 . S
H405 C391 0.966 . S
H406 C393 0.950 1_655 S
H407 C394 0.951 . S
C408 C409 1.386 . S
C408 C410 1.383 . S
C408 H424 0.951 . S
C409 C408 1.386 . S
C409 C413 1.383 . S
C410 C408 1.383 . S
C410 C411 1.402 . S
C410 H425 0.951 . S
C411 C410 1.402 . S
C411 C412 1.375 . S
C411 C414 1.481 . S
C412 C411 1.375 . S
C412 C413 1.367 . S
C412 H426 0.951 . S
C413 C409 1.383 . S
C413 C412 1.367 . S
C413 H427 0.950 . S
C414 C411 1.481 . S
C414 C415 1.297 . S
C414 H428 0.950 . S
C415 C414 1.297 . S
C415 C416 1.479 1_455 S
C415 H429 0.950 . S
C416 C415 1.479 1_655 S
C416 C417 1.375 . S
C416 C422 1.404 . S
C417 C416 1.375 . S
C417 C418 1.369 . S
C417 H430 0.950 . S
C418 C417 1.369 . S
C418 C419 1.392 . S
C418 H431 0.951 . S
C419 C418 1.392 . S
C419 C421 1.384 . S
H420 C422 0.949 . S
C421 C419 1.384 . S
C421 C422 1.385 . S
C421 H423 0.950 . S
C422 C416 1.404 . S
C422 H420 0.949 . S
C422 C421 1.385 . S
H423 C421 0.950 . S
H424 C408 0.951 . S
H425 C410 0.951 . S
H426 C412 0.951 . S
H427 C413 0.950 . S
H428 C414 0.950 . S
H429 C415 0.950 . S
H430 C417 0.950 . S
H431 C418 0.951 . S
C432 C433 1.386 . S
C432 C434 1.383 . S
C432 H448 0.951 . S
C433 C432 1.386 . S
C433 C437 1.383 . S
C434 C432 1.383 . S
C434 C435 1.402 . S
C434 H449 0.951 . S
C435 C434 1.402 . S
C435 C436 1.375 . S
C435 C438 1.481 1_545 S
C436 C435 1.375 . S
C436 C437 1.367 . S
C436 H450 0.953 1_545 S
C437 C433 1.383 . S
C437 C436 1.367 . S
C437 H451 0.950 . S
C438 C435 1.481 1_565 S
C438 C439 1.297 1_556 S
C438 H452 0.950 . S
C439 C438 1.297 1_554 S
C439 C440 1.479 . S
C439 H453 0.950 1_565 S
C440 C439 1.479 . S
C440 C441 1.375 . S
C440 C446 1.404 . S
C441 C440 1.375 . S
C441 C442 1.369 . S
C441 H454 0.950 . S
C442 C441 1.369 . S
C442 C443 1.392 . S
C442 H455 0.951 . S
C443 C442 1.392 . S
C443 C445 1.384 . S
H444 C446 0.949 1_556 S
C445 C443 1.384 . S
C445 C446 1.385 . S
C445 H447 0.950 . S
C446 C440 1.404 . S
C446 H444 0.949 1_554 S
C446 C445 1.385 . S
H447 C445 0.950 . S
H448 C432 0.951 . S
H449 C434 0.951 . S
H450 C436 0.953 1_565 S
H451 C437 0.950 . S
H452 C438 0.950 . S
H453 C439 0.950 1_545 S
H454 C441 0.950 . S
H455 C442 0.951 . S
C456 C457 1.386 . S
C456 C458 1.383 . S
C456 H472 0.951 . S
C457 C456 1.386 . S
C457 C461 1.383 . S
C458 C456 1.383 . S
C458 C459 1.402 . S
C458 H473 0.951 . S
C459 C458 1.402 . S
C459 C460 1.375 . S
C459 C462 1.481 . S
C460 C459 1.375 . S
C460 C461 1.367 . S
C460 H474 0.951 . S
C461 C457 1.383 . S
C461 C460 1.367 . S
C461 H475 0.950 . S
C462 C459 1.481 . S
C462 C463 1.297 1_565 S
C462 H476 0.950 . S
C463 C462 1.297 1_545 S
C463 C464 1.479 . S
C463 H477 0.950 . S
C464 C463 1.479 . S
C464 C465 1.375 . S
C464 C470 1.404 . S
C465 C464 1.375 . S
C465 C466 1.369 . S
C465 H478 0.950 . S
C466 C465 1.369 . S
C466 C467 1.392 . S
C466 H479 0.951 . S
C467 C466 1.392 . S
C467 C469 1.384 . S
H468 C470 0.949 . S
C469 C467 1.384 . S
C469 C470 1.385 . S
C469 H471 0.950 . S
C470 C464 1.404 . S
C470 H468 0.949 . S
C470 C469 1.385 . S
H471 C469 0.950 . S
H472 C456 0.951 . S
H473 C458 0.951 . S
H474 C460 0.951 . S
H475 C461 0.950 . S
H476 C462 0.950 . S
H477 C463 0.950 . S
H478 C465 0.950 . S
H479 C466 0.951 . S
C480 C481 1.386 . S
C480 C482 1.383 . S
C480 H496 0.951 . S
C481 C480 1.386 . S
C481 C485 1.383 . S
C482 C480 1.383 . S
C482 C483 1.402 . S
C482 H497 0.951 . S
C483 C482 1.402 . S
C483 C484 1.375 . S
C483 C486 1.481 . S
C484 C483 1.375 . S
C484 C485 1.367 . S
C484 H498 0.951 . S
C485 C481 1.383 . S
C485 C484 1.367 . S
C485 H499 0.950 . S
C486 C483 1.481 . S
C486 C487 1.297 . S
C486 H500 0.950 . S
C487 C486 1.297 . S
C487 C488 1.479 . S
C487 H501 0.950 . S
C488 C487 1.479 . S
C488 C489 1.375 . S
C488 C494 1.404 . S
C489 C488 1.375 . S
C489 C490 1.369 . S
C489 H502 0.950 . S
C490 C489 1.369 . S
C490 C491 1.392 . S
C490 H503 0.951 . S
C491 C490 1.392 . S
C491 C493 1.384 . S
H492 C494 0.949 . S
C493 C491 1.384 . S
C493 C494 1.385 . S
C493 H495 0.950 . S
C494 C488 1.404 . S
C494 H492 0.949 . S
C494 C493 1.385 . S
H495 C493 0.950 . S
H496 C480 0.951 . S
H497 C482 0.951 . S
H498 C484 0.951 . S
H499 C485 0.950 . S
H500 C486 0.950 . S
H501 C487 0.950 . S
H502 C489 0.950 . S
H503 C490 0.951 . S
C504 C505 1.386 . S
C504 C506 1.383 . S
C504 H520 0.951 . S
C505 C504 1.386 . S
C505 C509 1.383 . S
C506 C504 1.383 . S
C506 C507 1.402 . S
C506 H521 0.951 . S
C507 C506 1.402 . S
C507 C508 1.375 . S
C507 C510 1.481 . S
C508 C507 1.375 . S
C508 C509 1.367 . S
C508 H522 0.951 . S
C509 C505 1.383 . S
C509 C508 1.367 . S
C509 H523 0.950 . S
C510 C507 1.481 . S
C510 C511 1.297 1_556 S
C510 H524 0.950 . S
C511 C510 1.297 1_554 S
C511 C512 1.479 . S
C511 H525 0.950 . S
C512 C511 1.479 . S
C512 C513 1.375 . S
C512 C518 1.404 . S
C513 C512 1.375 . S
C513 C514 1.369 . S
C513 H526 0.950 . S
C514 C513 1.369 . S
C514 C515 1.392 . S
C514 H527 0.951 . S
C515 C514 1.392 . S
C515 C517 1.384 . S
H516 C518 0.949 . S
C517 C515 1.384 . S
C517 C518 1.385 . S
C517 H519 0.950 . S
C518 C512 1.404 . S
C518 H516 0.949 . S
C518 C517 1.385 . S
H519 C517 0.950 . S
H520 C504 0.951 . S
H521 C506 0.951 . S
H522 C508 0.951 . S
H523 C509 0.950 . S
H524 C510 0.950 . S
H525 C511 0.950 . S
H526 C513 0.950 . S
H527 C514 0.951 . S
C528 C529 1.386 . S
C528 C530 1.383 . S
C528 H544 0.951 . S
C529 C528 1.386 . S
C529 C533 1.383 . S
C530 C528 1.383 . S
C530 C531 1.402 . S
C530 H545 0.951 . S
C531 C530 1.402 . S
C531 C532 1.375 . S
C531 C534 1.481 . S
C532 C531 1.375 . S
C532 C533 1.367 . S
C532 H546 0.951 . S
C533 C529 1.383 . S
C533 C532 1.367 . S
C533 H547 0.950 . S
C534 C531 1.481 . S
C534 C535 1.297 . S
C534 H548 0.950 . S
C535 C534 1.297 . S
C535 C536 1.479 . S
C535 H549 0.950 . S
C536 C535 1.479 . S
C536 C537 1.375 . S
C536 C542 1.404 . S
C537 C536 1.375 . S
C537 C538 1.369 . S
C537 H550 0.950 . S
C538 C537 1.369 . S
C538 C539 1.392 . S
C538 H551 0.951 . S
C539 C538 1.392 . S
C539 C541 1.384 . S
H540 C542 0.949 . S
C541 C539 1.384 . S
C541 C542 1.385 . S
C541 H543 0.950 . S
C542 C536 1.404 . S
C542 H540 0.949 . S
C542 C541 1.385 . S
H543 C541 0.950 . S
H544 C528 0.951 . S
H545 C530 0.951 . S
H546 C532 0.951 . S
H547 C533 0.950 . S
H548 C534 0.950 . S
H549 C535 0.950 . S
H550 C537 0.950 . S
H551 C538 0.951 . S
C552 C553 1.386 . S
C552 C554 1.383 . S
C552 H568 0.951 . S
C553 C552 1.386 . S
C553 C557 1.383 . S
C554 C552 1.383 . S
C554 C555 1.402 . S
C554 H569 0.951 . S
C555 C554 1.402 . S
C555 C556 1.375 . S
C555 C558 1.481 . S
C556 C555 1.375 . S
C556 C557 1.367 . S
C556 H570 0.951 . S
C557 C553 1.383 . S
C557 C556 1.367 . S
C557 H571 0.950 . S
C558 C555 1.481 . S
C558 C559 1.297 1_554 S
C558 H572 0.950 . S
C559 C558 1.297 1_556 S
C559 C560 1.479 . S
C559 H573 0.950 . S
C560 C559 1.479 . S
C560 C561 1.375 . S
C560 C566 1.404 . S
C561 C560 1.375 . S
C561 C562 1.369 . S
C561 H574 0.950 . S
C562 C561 1.369 . S
C562 C563 1.392 . S
C562 H575 0.951 . S
C563 C562 1.392 . S
C563 C565 1.384 . S
H564 C566 0.949 . S
C565 C563 1.384 . S
C565 C566 1.385 . S
C565 H567 0.950 . S
C566 C560 1.404 . S
C566 H564 0.949 . S
C566 C565 1.385 . S
H567 C565 0.950 . S
H568 C552 0.951 . S
H569 C554 0.951 . S
H570 C556 0.951 . S
H571 C557 0.950 . S
H572 C558 0.950 . S
H573 C559 0.950 . S
H574 C561 0.950 . S
H575 C562 0.951 . S
C576 C577 1.386 . S
C576 C578 1.383 . S
C576 H592 0.951 . S
C577 C576 1.386 . S
C577 C581 1.383 . S
C578 C576 1.383 . S
C578 C579 1.402 . S
C578 H593 0.951 . S
C579 C578 1.402 . S
C579 C580 1.375 . S
C579 C582 1.481 . S
C580 C579 1.375 . S
C580 C581 1.367 . S
C580 H594 0.951 . S
C581 C577 1.383 . S
C581 C580 1.367 . S
C581 H595 0.950 . S
C582 C579 1.481 . S
C582 C583 1.297 . S
C582 H596 0.950 . S
C583 C582 1.297 . S
C583 C584 1.479 . S
C583 H597 0.950 . S
C584 C583 1.479 . S
C584 C585 1.375 . S
C584 C590 1.404 . S
C585 C584 1.375 . S
C585 C586 1.369 . S
C585 H598 0.950 . S
C586 C585 1.369 . S
C586 C587 1.392 . S
C586 H599 0.951 . S
C587 C586 1.392 . S
C587 C589 1.384 . S
H588 C590 0.949 . S
C589 C587 1.384 . S
C589 C590 1.385 . S
C589 H591 0.950 . S
C590 C584 1.404 . S
C590 H588 0.949 . S
C590 C589 1.385 . S
H591 C589 0.950 . S
H592 C576 0.951 . S
H593 C578 0.951 . S
H594 C580 0.951 . S
H595 C581 0.950 . S
H596 C582 0.950 . S
H597 C583 0.950 . S
H598 C585 0.950 . S
H599 C586 0.951 . S
C600 C601 1.386 . S
C600 C602 1.383 . S
C600 H616 0.951 . S
C601 C600 1.386 . S
C601 C605 1.383 . S
C602 C600 1.383 . S
C602 C603 1.402 . S
C602 H617 0.951 . S
C603 C602 1.402 . S
C603 C604 1.375 . S
C603 C606 1.481 . S
C604 C603 1.375 . S
C604 C605 1.367 . S
C604 H618 0.951 . S
C605 C601 1.383 . S
C605 C604 1.367 . S
C605 H619 0.950 . S
C606 C603 1.481 . S
C606 C607 1.297 . S
C606 H620 0.950 . S
C607 C606 1.297 . S
C607 C608 1.479 . S
C607 H621 0.950 . S
C608 C607 1.479 . S
C608 C609 1.375 . S
C608 C614 1.404 . S
C609 C608 1.375 . S
C609 C610 1.369 . S
C609 H622 0.950 . S
C610 C609 1.369 . S
C610 C611 1.392 . S
C610 H623 0.951 . S
C611 C610 1.392 . S
C611 C613 1.384 . S
H612 C614 0.949 . S
C613 C611 1.384 . S
C613 C614 1.385 . S
C613 H615 0.950 . S
C614 C608 1.404 . S
C614 H612 0.949 . S
C614 C613 1.385 . S
H615 C613 0.950 . S
H616 C600 0.951 . S
H617 C602 0.951 . S
H618 C604 0.951 . S
H619 C605 0.950 . S
H620 C606 0.950 . S
H621 C607 0.950 . S
H622 C609 0.950 . S
H623 C610 0.951 . S
C624 C625 1.386 . S
C624 C626 1.383 . S
C624 H640 0.951 . S
C625 C624 1.386 . S
C625 C629 1.383 . S
C626 C624 1.383 . S
C626 C627 1.402 . S
C626 H641 0.951 . S
C627 C626 1.402 . S
C627 C628 1.375 . S
C627 C630 1.481 . S
C628 C627 1.375 . S
C628 C629 1.367 . S
C628 H642 0.951 . S
C629 C625 1.383 . S
C629 C628 1.367 . S
C629 H643 0.950 . S
C630 C627 1.481 . S
C630 C631 1.297 1_455 S
C630 H644 0.950 . S
C631 C630 1.297 1_655 S
C631 C632 1.479 . S
C631 H645 0.950 . S
C632 C631 1.479 . S
C632 C633 1.375 . S
C632 C638 1.404 . S
C633 C632 1.375 . S
C633 C634 1.369 . S
C633 H646 0.950 . S
C634 C633 1.369 . S
C634 C635 1.392 . S
C634 H647 0.951 . S
C635 C634 1.392 . S
C635 C637 1.384 . S
H636 C638 0.949 . S
C637 C635 1.384 . S
C637 C638 1.385 . S
C637 H639 0.950 . S
C638 C632 1.404 . S
C638 H636 0.949 . S
C638 C637 1.385 . S
H639 C637 0.950 . S
H640 C624 0.951 . S
H641 C626 0.951 . S
H642 C628 0.951 . S
H643 C629 0.950 . S
H644 C630 0.950 . S
H645 C631 0.950 . S
H646 C633 0.950 . S
H647 C634 0.951 . S
C648 C649 1.386 . S
C648 C650 1.383 . S
C648 H664 0.951 . S
C649 C648 1.386 . S
C649 C653 1.383 . S
C650 C648 1.383 . S
C650 C651 1.402 . S
C650 H665 0.951 . S
C651 C650 1.402 . S
C651 C652 1.375 . S
C651 C654 1.481 . S
C652 C651 1.375 . S
C652 C653 1.367 . S
C652 H666 0.951 . S
C653 C649 1.383 . S
C653 C652 1.367 . S
C653 H667 0.950 . S
C654 C651 1.481 . S
C654 C655 1.297 1_455 S
C654 H668 0.950 1_455 S
C655 C654 1.297 1_655 S
C655 C656 1.479 . S
C655 H669 0.950 1_655 S
C656 C655 1.479 . S
C656 C657 1.375 . S
C656 C662 1.404 . S
C657 C656 1.375 . S
C657 C658 1.369 . S
C657 H670 0.950 . S
C658 C657 1.369 . S
C658 C659 1.392 . S
C658 H671 0.951 . S
C659 C658 1.392 . S
C659 C661 1.384 . S
H660 C662 0.949 . S
C661 C659 1.384 . S
C661 C662 1.385 . S
C661 H663 0.950 . S
C662 C656 1.404 . S
C662 H660 0.949 . S
C662 C661 1.385 . S
H663 C661 0.950 . S
H664 C648 0.951 . S
H665 C650 0.951 . S
H666 C652 0.951 . S
H667 C653 0.950 . S
H668 C654 0.950 1_655 S
H669 C655 0.950 1_455 S
H670 C657 0.950 . S
H671 C658 0.951 . S
C289 C3 1.757 . S
C299 C76 1.749 . S
C313 C112 1.758 . S
C323 C39 1.753 . S
C337 C220 1.758 . S
C347 C147 1.756 . S
C361 C183 1.757 . S
C371 C256 1.748 . S
C385 C38 1.297 . S
C395 C122 1.251 . S
C409 C2 1.309 . S
C419 C86 1.155 . S
C433 C266 1.236 . S
C443 C182 1.286 . S
C457 C146 1.289 . S
C467 C230 1.294 . S
C481 C194 1.474 . S
C491 C110 1.507 . S
C505 C74 1.509 . S
C515 C158 1.483 . S
C529 C50 1.477 . S
C539 C254 1.507 . S
C553 C14 1.475 . S
C563 C218 1.507 . S
C577 C4 1.560 . S
C587 C40 1.547 . S
C601 C75 1.532 . S
C611 C111 1.517 . S
C625 C184 1.560 . S
C635 C148 1.547 . S
C649 C219 1.552 . S
C659 C255 1.552 . S
