# Generated by pormake.
# Topology yfs, (5)-cn, num edge types: 1
# Building blocks:
#     Node 0, Type 0, BuildingBlock: BEQFEK_clean_sbu_0, # of connection points: 5
#     Node 1, Type 0, BuildingBlock: BEQFEK_clean_sbu_0, # of connection points: 5
#     Node 2, Type 0, BuildingBlock: BEQFEK_clean_sbu_0, # of connection points: 5
#     Node 3, Type 0, BuildingBlock: BEQFEK_clean_sbu_0, # of connection points: 5
#     Node 4, Type 0, BuildingBlock: BEQFEK_clean_sbu_0, # of connection points: 5
#     Node 5, Type 0, BuildingBlock: BEQFEK_clean_sbu_0, # of connection points: 5
#     Node 6, Type 0, BuildingBlock: BEQFEK_clean_sbu_0, # of connection points: 5
#     Node 7, Type 0, BuildingBlock: BEQFEK_clean_sbu_0, # of connection points: 5
#     Node 8, Type 0, BuildingBlock: BEQFEK_clean_sbu_0, # of connection points: 5
#     Node 9, Type 0, BuildingBlock: BEQFEK_clean_sbu_0, # of connection points: 5
#     Node 10, Type 0, BuildingBlock: BEQFEK_clean_sbu_0, # of connection points: 5
#     Node 11, Type 0, BuildingBlock: BEQFEK_clean_sbu_0, # of connection points: 5
#     Node 12, Type 0, BuildingBlock: BEQFEK_clean_sbu_0, # of connection points: 5
#     Node 13, Type 0, BuildingBlock: BEQFEK_clean_sbu_0, # of connection points: 5
#     Node 14, Type 0, BuildingBlock: BEQFEK_clean_sbu_0, # of connection points: 5
#     Node 15, Type 0, BuildingBlock: BEQFEK_clean_sbu_0, # of connection points: 5
#     Node 16, Type 0, BuildingBlock: BEQFEK_clean_sbu_0, # of connection points: 5
#     Node 17, Type 0, BuildingBlock: BEQFEK_clean_sbu_0, # of connection points: 5
#     Node 18, Type 0, BuildingBlock: BEQFEK_clean_sbu_0, # of connection points: 5
#     Node 19, Type 0, BuildingBlock: BEQFEK_clean_sbu_0, # of connection points: 5
#     Node 20, Type 0, BuildingBlock: BEQFEK_clean_sbu_0, # of connection points: 5
#     Node 21, Type 0, BuildingBlock: BEQFEK_clean_sbu_0, # of connection points: 5
#     Node 22, Type 0, BuildingBlock: BEQFEK_clean_sbu_0, # of connection points: 5
#     Node 23, Type 0, BuildingBlock: BEQFEK_clean_sbu_0, # of connection points: 5
#     Node 24, Type 0, BuildingBlock: BEQFEK_clean_sbu_0, # of connection points: 5
#     Node 25, Type 0, BuildingBlock: BEQFEK_clean_sbu_0, # of connection points: 5
#     Node 26, Type 0, BuildingBlock: BEQFEK_clean_sbu_0, # of connection points: 5
#     Node 27, Type 0, BuildingBlock: BEQFEK_clean_sbu_0, # of connection points: 5
#     Node 28, Type 0, BuildingBlock: BEQFEK_clean_sbu_0, # of connection points: 5
#     Node 29, Type 0, BuildingBlock: BEQFEK_clean_sbu_0, # of connection points: 5
#     Node 30, Type 0, BuildingBlock: BEQFEK_clean_sbu_0, # of connection points: 5
#     Node 31, Type 0, BuildingBlock: BEQFEK_clean_sbu_0, # of connection points: 5
#     Edge 32, Type (0, 0), BuildingBlock: OJICUG_clean_linker_0, # of connection points: 2
#     Edge 33, Type (0, 0), BuildingBlock: OJICUG_clean_linker_0, # of connection points: 2
#     Edge 34, Type (0, 0), BuildingBlock: OJICUG_clean_linker_0, # of connection points: 2
#     Edge 35, Type (0, 0), BuildingBlock: OJICUG_clean_linker_0, # of connection points: 2
#     Edge 36, Type (0, 0), BuildingBlock: OJICUG_clean_linker_0, # of connection points: 2
#     Edge 37, Type (0, 0), BuildingBlock: OJICUG_clean_linker_0, # of connection points: 2
#     Edge 38, Type (0, 0), BuildingBlock: OJICUG_clean_linker_0, # of connection points: 2
#     Edge 39, Type (0, 0), BuildingBlock: OJICUG_clean_linker_0, # of connection points: 2
#     Edge 40, Type (0, 0), BuildingBlock: OJICUG_clean_linker_0, # of connection points: 2
#     Edge 41, Type (0, 0), BuildingBlock: OJICUG_clean_linker_0, # of connection points: 2
#     Edge 42, Type (0, 0), BuildingBlock: OJICUG_clean_linker_0, # of connection points: 2
#     Edge 43, Type (0, 0), BuildingBlock: OJICUG_clean_linker_0, # of connection points: 2
#     Edge 44, Type (0, 0), BuildingBlock: OJICUG_clean_linker_0, # of connection points: 2
#     Edge 45, Type (0, 0), BuildingBlock: OJICUG_clean_linker_0, # of connection points: 2
#     Edge 46, Type (0, 0), BuildingBlock: OJICUG_clean_linker_0, # of connection points: 2
#     Edge 47, Type (0, 0), BuildingBlock: OJICUG_clean_linker_0, # of connection points: 2
#     Edge 48, Type (0, 0), BuildingBlock: OJICUG_clean_linker_0, # of connection points: 2
#     Edge 49, Type (0, 0), BuildingBlock: OJICUG_clean_linker_0, # of connection points: 2
#     Edge 50, Type (0, 0), BuildingBlock: OJICUG_clean_linker_0, # of connection points: 2
#     Edge 51, Type (0, 0), BuildingBlock: OJICUG_clean_linker_0, # of connection points: 2
#     Edge 52, Type (0, 0), BuildingBlock: OJICUG_clean_linker_0, # of connection points: 2
#     Edge 53, Type (0, 0), BuildingBlock: OJICUG_clean_linker_0, # of connection points: 2
#     Edge 54, Type (0, 0), BuildingBlock: OJICUG_clean_linker_0, # of connection points: 2
#     Edge 55, Type (0, 0), BuildingBlock: OJICUG_clean_linker_0, # of connection points: 2
#     Edge 56, Type (0, 0), BuildingBlock: OJICUG_clean_linker_0, # of connection points: 2
#     Edge 57, Type (0, 0), BuildingBlock: OJICUG_clean_linker_0, # of connection points: 2
#     Edge 58, Type (0, 0), BuildingBlock: OJICUG_clean_linker_0, # of connection points: 2
#     Edge 59, Type (0, 0), BuildingBlock: OJICUG_clean_linker_0, # of connection points: 2
#     Edge 60, Type (0, 0), BuildingBlock: OJICUG_clean_linker_0, # of connection points: 2
#     Edge 61, Type (0, 0), BuildingBlock: OJICUG_clean_linker_0, # of connection points: 2
#     Edge 62, Type (0, 0), BuildingBlock: OJICUG_clean_linker_0, # of connection points: 2
#     Edge 63, Type (0, 0), BuildingBlock: OJICUG_clean_linker_0, # of connection points: 2
#     Edge 64, Type (0, 0), BuildingBlock: OJICUG_clean_linker_0, # of connection points: 2
#     Edge 65, Type (0, 0), BuildingBlock: OJICUG_clean_linker_0, # of connection points: 2
#     Edge 66, Type (0, 0), BuildingBlock: OJICUG_clean_linker_0, # of connection points: 2
#     Edge 67, Type (0, 0), BuildingBlock: OJICUG_clean_linker_0, # of connection points: 2
#     Edge 68, Type (0, 0), BuildingBlock: OJICUG_clean_linker_0, # of connection points: 2
#     Edge 69, Type (0, 0), BuildingBlock: OJICUG_clean_linker_0, # of connection points: 2
#     Edge 70, Type (0, 0), BuildingBlock: OJICUG_clean_linker_0, # of connection points: 2
#     Edge 71, Type (0, 0), BuildingBlock: OJICUG_clean_linker_0, # of connection points: 2
#     Edge 72, Type (0, 0), BuildingBlock: OJICUG_clean_linker_0, # of connection points: 2
#     Edge 73, Type (0, 0), BuildingBlock: OJICUG_clean_linker_0, # of connection points: 2
#     Edge 74, Type (0, 0), BuildingBlock: OJICUG_clean_linker_0, # of connection points: 2
#     Edge 75, Type (0, 0), BuildingBlock: OJICUG_clean_linker_0, # of connection points: 2
#     Edge 76, Type (0, 0), BuildingBlock: OJICUG_clean_linker_0, # of connection points: 2
#     Edge 77, Type (0, 0), BuildingBlock: OJICUG_clean_linker_0, # of connection points: 2
#     Edge 78, Type (0, 0), BuildingBlock: OJICUG_clean_linker_0, # of connection points: 2
#     Edge 79, Type (0, 0), BuildingBlock: OJICUG_clean_linker_0, # of connection points: 2
#     Edge 80, Type (0, 0), BuildingBlock: OJICUG_clean_linker_0, # of connection points: 2
#     Edge 81, Type (0, 0), BuildingBlock: OJICUG_clean_linker_0, # of connection points: 2
#     Edge 82, Type (0, 0), BuildingBlock: OJICUG_clean_linker_0, # of connection points: 2
#     Edge 83, Type (0, 0), BuildingBlock: OJICUG_clean_linker_0, # of connection points: 2
#     Edge 84, Type (0, 0), BuildingBlock: OJICUG_clean_linker_0, # of connection points: 2
#     Edge 85, Type (0, 0), BuildingBlock: OJICUG_clean_linker_0, # of connection points: 2
#     Edge 86, Type (0, 0), BuildingBlock: OJICUG_clean_linker_0, # of connection points: 2
#     Edge 87, Type (0, 0), BuildingBlock: OJICUG_clean_linker_0, # of connection points: 2
#     Edge 88, Type (0, 0), BuildingBlock: OJICUG_clean_linker_0, # of connection points: 2
#     Edge 89, Type (0, 0), BuildingBlock: OJICUG_clean_linker_0, # of connection points: 2
#     Edge 90, Type (0, 0), BuildingBlock: OJICUG_clean_linker_0, # of connection points: 2
#     Edge 91, Type (0, 0), BuildingBlock: OJICUG_clean_linker_0, # of connection points: 2
#     Edge 92, Type (0, 0), BuildingBlock: OJICUG_clean_linker_0, # of connection points: 2
#     Edge 93, Type (0, 0), BuildingBlock: OJICUG_clean_linker_0, # of connection points: 2
#     Edge 94, Type (0, 0), BuildingBlock: OJICUG_clean_linker_0, # of connection points: 2
#     Edge 95, Type (0, 0), BuildingBlock: OJICUG_clean_linker_0, # of connection points: 2
#     Edge 96, Type (0, 0), BuildingBlock: OJICUG_clean_linker_0, # of connection points: 2
#     Edge 97, Type (0, 0), BuildingBlock: OJICUG_clean_linker_0, # of connection points: 2
#     Edge 98, Type (0, 0), BuildingBlock: OJICUG_clean_linker_0, # of connection points: 2
#     Edge 99, Type (0, 0), BuildingBlock: OJICUG_clean_linker_0, # of connection points: 2
#     Edge 100, Type (0, 0), BuildingBlock: OJICUG_clean_linker_0, # of connection points: 2
#     Edge 101, Type (0, 0), BuildingBlock: OJICUG_clean_linker_0, # of connection points: 2
#     Edge 102, Type (0, 0), BuildingBlock: OJICUG_clean_linker_0, # of connection points: 2
#     Edge 103, Type (0, 0), BuildingBlock: OJICUG_clean_linker_0, # of connection points: 2
#     Edge 104, Type (0, 0), BuildingBlock: OJICUG_clean_linker_0, # of connection points: 2
#     Edge 105, Type (0, 0), BuildingBlock: OJICUG_clean_linker_0, # of connection points: 2
#     Edge 106, Type (0, 0), BuildingBlock: OJICUG_clean_linker_0, # of connection points: 2
#     Edge 107, Type (0, 0), BuildingBlock: OJICUG_clean_linker_0, # of connection points: 2
#     Edge 108, Type (0, 0), BuildingBlock: OJICUG_clean_linker_0, # of connection points: 2
#     Edge 109, Type (0, 0), BuildingBlock: OJICUG_clean_linker_0, # of connection points: 2
#     Edge 110, Type (0, 0), BuildingBlock: OJICUG_clean_linker_0, # of connection points: 2
#     Edge 111, Type (0, 0), BuildingBlock: OJICUG_clean_linker_0, # of connection points: 2
# Relax obj value: 0.331
# Max RMSD: 0.174
# Mean RMSD: 0.174
data_MOF--net-yfs--node1-BEQFEK_clean_sbu_0--edge1-OJICUG_clean_linker_0
_symmetry_space_group_name_H-M    P1
_symmetry_Int_Tables_number       1
_symmetry_cell_setting            triclinic
loop_
_symmetry_equiv_pos_as_xyz
'x, y, z'
_cell_length_a     38.413446
_cell_length_b     38.327232
_cell_length_c     65.031408
_cell_angle_alpha  89.973446
_cell_angle_beta   90.043198
_cell_angle_gamma 90.003107
loop_
_atom_site_label
_atom_site_type_symbol
_atom_site_fract_x
_atom_site_fract_y
_atom_site_fract_z
_atom_type_partial_charge
Co0 Co 0.42601 0.12011 0.18006 0.0
Co1 Co 0.3782 0.15511 0.21322 0.0
C2 C 0.36708 0.16384 0.16692 0.0
O3 O 0.39007 0.14146 0.16176 0.0
O4 O 0.36127 0.17063 0.18579 0.0
C5 C 0.4604 0.089 0.14483 0.0
O6 O 0.42912 0.08851 0.13665 0.0
C7 C 0.31319 0.18035 0.23022 0.0
C8 C 0.33004 0.20097 0.26035 0.0
C9 C 0.30196 0.19958 0.247 0.0
N10 N 0.34656 0.17151 0.2333 0.0
N11 N 0.35641 0.18352 0.25144 0.0
C12 C 0.29281 0.17028 0.21153 0.0
H13 H 0.30271 0.14524 0.20525 0.0
H14 H 0.26472 0.16781 0.21524 0.0
H15 H 0.29596 0.19061 0.19956 0.0
C16 C 0.41259 0.05833 0.20732 0.0
N17 N 0.40699 0.09162 0.20145 0.0
N18 N 0.38635 0.10662 0.21498 0.0
C19 C 0.3781 0.08355 0.22979 0.0
C20 C 0.39446 0.05207 0.22551 0.0
C21 C 0.43581 0.03355 0.19607 0.0
H22 H 0.43356 0.03791 0.17925 0.0
H23 H 0.42921 0.00608 0.19982 0.0
H24 H 0.4632 0.03859 0.20061 0.0
O25 O 0.45054 0.16055 0.19176 0.0
O26 O 0.42094 0.18101 0.21836 0.0
H27 H 0.37258 0.11477 0.25675 0.0
H28 H 0.3564 0.07113 0.25987 0.0
C29 C 0.35869 0.09317 0.24894 0.0
H30 H 0.33233 0.10262 0.24474 0.0
H31 H 0.38167 0.18148 0.25724 0.0
O32 O 0.46374 0.09783 0.16356 0.0
C33 C 0.44727 0.18169 0.20667 0.0
Co34 Co 0.11339 0.17581 0.43011 0.0
Co35 Co 0.07876 0.12773 0.46344 0.0
C36 C 0.06945 0.11668 0.41719 0.0
O37 O 0.09169 0.13981 0.41201 0.0
O38 O 0.06278 0.1107 0.43606 0.0
C39 C 0.14337 0.2102 0.39461 0.0
O40 O 0.14302 0.17889 0.3864 0.0
C41 C 0.05434 0.06278 0.48184 0.0
C42 C 0.03207 0.08224 0.51101 0.0
C43 C 0.03448 0.05292 0.49868 0.0
N44 N 0.06287 0.09653 0.48405 0.0
N45 N 0.05017 0.1078 0.50173 0.0
C46 C 0.06036 0.04242 0.46254 0.0
H47 H 0.03614 0.04234 0.45323 0.0
H48 H 0.08178 0.0542 0.45346 0.0
H49 H 0.06717 0.015 0.46607 0.0
C50 C 0.17526 0.16238 0.45709 0.0
N51 N 0.14199 0.1567 0.45136 0.0
N52 N 0.12721 0.13598 0.46495 0.0
C53 C 0.15043 0.12776 0.47968 0.0
C54 C 0.18175 0.14422 0.47525 0.0
C55 C 0.19979 0.18574 0.44574 0.0
H56 H 0.19535 0.18339 0.42893 0.0
H57 H 0.22726 0.1793 0.44944 0.0
H58 H 0.19464 0.21319 0.45023 0.0
O59 O 0.07348 0.20062 0.442 0.0
O60 O 0.05298 0.17071 0.46849 0.0
H61 H 0.11955 0.12203 0.50674 0.0
H62 H 0.16326 0.10613 0.50972 0.0
C63 C 0.14113 0.10827 0.49887 0.0
H64 H 0.13186 0.08177 0.49473 0.0
H65 H 0.05171 0.13362 0.50674 0.0
O66 O 0.13549 0.21355 0.41348 0.0
C67 C 0.05243 0.19728 0.45692 0.0
Co68 Co 0.05723 0.86632 0.6796 0.0
Co69 Co 0.10529 0.83175 0.71292 0.0
C70 C 0.11614 0.82233 0.66668 0.0
O71 O 0.09303 0.84456 0.66144 0.0
O72 O 0.12217 0.81583 0.68556 0.0
C73 C 0.0226 0.89695 0.64423 0.0
O74 O 0.05376 0.89703 0.63592 0.0
C75 C 0.16975 0.80546 0.73028 0.0
C76 C 0.15232 0.78636 0.76064 0.0
C77 C 0.1804 0.7864 0.74729 0.0
N78 N 0.13668 0.81545 0.73324 0.0
N79 N 0.12651 0.80436 0.75152 0.0
C80 C 0.19041 0.81422 0.71149 0.0
H81 H 0.18656 0.79362 0.69976 0.0
H82 H 0.18135 0.83937 0.70491 0.0
H83 H 0.21858 0.81586 0.71518 0.0
C84 C 0.07073 0.92837 0.70649 0.0
N85 N 0.07645 0.89504 0.70079 0.0
N86 N 0.09723 0.8803 0.71437 0.0
C87 C 0.10551 0.90362 0.72904 0.0
C88 C 0.08895 0.93495 0.72461 0.0
C89 C 0.04721 0.95285 0.69519 0.0
H90 H 0.04964 0.94859 0.67838 0.0
H91 H 0.05336 0.98041 0.69897 0.0
H92 H 0.01987 0.94736 0.69964 0.0
O93 O 0.03255 0.82627 0.69158 0.0
O94 O 0.06246 0.80603 0.71815 0.0
H95 H 0.11081 0.87349 0.75645 0.0
H96 H 0.12818 0.91681 0.75876 0.0
C97 C 0.12508 0.89435 0.7482 0.0
H98 H 0.15111 0.88403 0.74401 0.0
H99 H 0.10132 0.80733 0.75726 0.0
O100 O 0.01948 0.88852 0.66304 0.0
C101 C 0.03594 0.80533 0.70659 0.0
Co102 Co 0.36985 0.80644 0.93114 0.0
Co103 Co 0.40519 0.85415 0.96441 0.0
C104 C 0.41379 0.86545 0.91812 0.0
O105 O 0.39142 0.84241 0.91299 0.0
O106 O 0.42079 0.87124 0.93697 0.0
C107 C 0.33895 0.77212 0.89583 0.0
O108 O 0.33921 0.8034 0.88756 0.0
C109 C 0.4293 0.91929 0.98269 0.0
C110 C 0.45248 0.90009 0.0117 0.0
C111 C 0.44931 0.92943 0.99942 0.0
N112 N 0.42137 0.88539 0.98492 0.0
N113 N 0.43464 0.87426 0.0025 0.0
C114 C 0.42251 0.93959 0.96343 0.0
H115 H 0.44648 0.93999 0.95393 0.0
H116 H 0.40103 0.92751 0.95453 0.0
H117 H 0.41542 0.96691 0.96701 0.0
C118 C 0.30829 0.82047 0.95813 0.0
N119 N 0.34163 0.82571 0.95244 0.0
N120 N 0.35671 0.84615 0.96606 0.0
C121 C 0.33364 0.85458 0.98079 0.0
C122 C 0.30208 0.8386 0.97631 0.0
C123 C 0.28338 0.79768 0.94666 0.0
H124 H 0.28795 0.80007 0.92987 0.0
H125 H 0.25601 0.80462 0.9503 0.0
H126 H 0.28797 0.7701 0.95111 0.0
O127 O 0.40976 0.78141 0.94293 0.0
O128 O 0.43083 0.81104 0.96938 0.0
H129 H 0.36517 0.86028 0.00764 0.0
H130 H 0.32133 0.87557 0.01105 0.0
C131 C 0.34321 0.87388 1.00001 0.0
H132 H 0.35204 0.90055 0.99592 0.0
H133 H 0.4336 0.84841 0.00751 0.0
O134 O 0.34731 0.76879 0.91464 0.0
C135 C 0.43102 0.78452 0.95778 0.0
Co136 Co 0.42635 0.86379 0.3245 0.0
Co137 Co 0.3792 0.82838 0.29111 0.0
C138 C 0.36762 0.81954 0.33734 0.0
O139 O 0.39041 0.84206 0.34262 0.0
O140 O 0.36205 0.81274 0.31845 0.0
C141 C 0.46018 0.8948 0.35996 0.0
O142 O 0.42884 0.89482 0.36803 0.0
C143 C 0.31452 0.80285 0.2738 0.0
C144 C 0.3318 0.78206 0.24381 0.0
C145 C 0.30354 0.78348 0.257 0.0
N146 N 0.34791 0.81173 0.27088 0.0
N147 N 0.35802 0.79961 0.25282 0.0
C148 C 0.29387 0.81302 0.29235 0.0
H149 H 0.30367 0.8381 0.29863 0.0
H150 H 0.26583 0.81543 0.28847 0.0
H151 H 0.29688 0.79276 0.30438 0.0
C152 C 0.41269 0.92547 0.29718 0.0
N153 N 0.40731 0.89212 0.30302 0.0
N154 N 0.38698 0.87694 0.28939 0.0
C155 C 0.37871 0.89993 0.27453 0.0
C156 C 0.39472 0.93156 0.27891 0.0
C157 C 0.43553 0.95046 0.30856 0.0
H158 H 0.43322 0.94599 0.32536 0.0
H159 H 0.42863 0.97787 0.30484 0.0
H160 H 0.46301 0.94578 0.30409 0.0
O161 O 0.45141 0.82363 0.31287 0.0
O162 O 0.42221 0.80283 0.28619 0.0
H163 H 0.37372 0.86852 0.24761 0.0
H164 H 0.35747 0.91209 0.24429 0.0
C165 C 0.35965 0.89012 0.25528 0.0
H166 H 0.33324 0.88062 0.25933 0.0
H167 H 0.38335 0.80168 0.24716 0.0
O168 O 0.46372 0.88634 0.34118 0.0
C169 C 0.44846 0.80243 0.29796 0.0
Co170 Co 0.37041 0.17738 0.57349 0.0
Co171 Co 0.40579 0.13027 0.54 0.0
C172 C 0.41493 0.11857 0.58622 0.0
O173 O 0.39244 0.14138 0.59149 0.0
O174 O 0.42176 0.11302 0.56733 0.0
C175 C 0.34021 0.21107 0.60912 0.0
O176 O 0.34076 0.17965 0.6172 0.0
C177 C 0.42937 0.06514 0.52161 0.0
C178 C 0.4534 0.08435 0.49287 0.0
C179 C 0.44959 0.05492 0.50501 0.0
N180 N 0.42196 0.09917 0.51945 0.0
N181 N 0.43572 0.11032 0.50203 0.0
C182 C 0.42187 0.0447 0.54072 0.0
H183 H 0.44581 0.04325 0.55025 0.0
H184 H 0.40079 0.0573 0.54969 0.0
H185 H 0.41384 0.01773 0.53692 0.0
C186 C 0.30872 0.16334 0.54643 0.0
N187 N 0.34209 0.15819 0.55214 0.0
N188 N 0.35726 0.13798 0.53844 0.0
C189 C 0.33422 0.12962 0.52365 0.0
C190 C 0.30259 0.14537 0.52816 0.0
C191 C 0.28372 0.18596 0.55792 0.0
H192 H 0.2885 0.18374 0.5747 0.0
H193 H 0.25639 0.17871 0.55437 0.0
H194 H 0.28797 0.21354 0.55339 0.0
O195 O 0.41005 0.20279 0.56168 0.0
O196 O 0.43116 0.17356 0.53512 0.0
H197 H 0.36606 0.12423 0.49693 0.0
H198 H 0.32216 0.10932 0.49319 0.0
C199 C 0.34391 0.11064 0.50435 0.0
H200 H 0.3525 0.08382 0.50831 0.0
H201 H 0.43512 0.13624 0.49711 0.0
O202 O 0.34796 0.21472 0.59025 0.0
C203 C 0.43126 0.19998 0.5468 0.0
Co204 Co 0.05441 0.12245 0.82356 0.0
Co205 Co 0.10128 0.15873 0.79036 0.0
C206 C 0.11295 0.16669 0.83665 0.0
O207 O 0.09024 0.14401 0.8418 0.0
O208 O 0.11839 0.17391 0.8178 0.0
C209 C 0.02064 0.0908 0.85883 0.0
O210 O 0.05194 0.09093 0.86699 0.0
C211 C 0.16633 0.18379 0.77339 0.0
C212 C 0.14955 0.20577 0.74356 0.0
C213 C 0.17776 0.20334 0.75677 0.0
N214 N 0.13276 0.17575 0.77035 0.0
N215 N 0.12292 0.1886 0.7524 0.0
C216 C 0.18673 0.17258 0.79185 0.0
H217 H 0.1763 0.14758 0.79789 0.0
H218 H 0.2147 0.16953 0.78796 0.0
H219 H 0.18425 0.19256 0.80407 0.0
C220 C 0.06879 0.06122 0.79611 0.0
N221 N 0.07369 0.09459 0.80201 0.0
N222 N 0.0938 0.11015 0.78841 0.0
C223 C 0.10233 0.0874 0.7735 0.0
C224 C 0.0868 0.05551 0.77783 0.0
C225 C 0.04644 0.03579 0.80749 0.0
H226 H 0.04861 0.04035 0.82429 0.0
H227 H 0.05391 0.00852 0.80382 0.0
H228 H 0.01888 0.03987 0.80296 0.0
O229 O 0.02913 0.16257 0.81203 0.0
O230 O 0.05814 0.18414 0.7855 0.0
H231 H 0.10743 0.11967 0.74691 0.0
H232 H 0.12299 0.07596 0.74306 0.0
C233 C 0.12127 0.0976 0.7543 0.0
H234 H 0.14786 0.10658 0.75835 0.0
H235 H 0.09757 0.18718 0.74668 0.0
O236 O 0.01711 0.09944 0.84008 0.0
C237 C 0.03186 0.18406 0.79724 0.0
Co238 Co 0.1123 0.80766 0.07361 0.0
Co239 Co 0.07767 0.85557 0.04017 0.0
C240 C 0.06846 0.86679 0.08643 0.0
O241 O 0.09075 0.84373 0.09166 0.0
O242 O 0.06172 0.87263 0.06755 0.0
C243 C 0.14291 0.77318 0.10899 0.0
O244 O 0.143 0.80449 0.11721 0.0
C245 C 0.05361 0.92066 0.02173 0.0
C246 C 0.03138 0.90138 0.99249 0.0
C247 C 0.03396 0.93069 0.00482 0.0
N248 N 0.06189 0.88683 0.01954 0.0
N249 N 0.0492 0.87567 1.00183 0.0
C250 C 0.05967 0.94094 0.04106 0.0
H251 H 0.03549 0.94092 0.05038 0.0
H252 H 0.08112 0.92912 0.05011 0.0
H253 H 0.06643 0.96839 0.03758 0.0
C254 C 0.17424 0.82122 0.04685 0.0
N255 N 0.14089 0.82674 0.05242 0.0
N256 N 0.12612 0.84733 0.03874 0.0
C257 C 0.14943 0.85562 0.0241 0.0
C258 C 0.18079 0.83935 0.02869 0.0
C259 C 0.19881 0.79812 0.05837 0.0
H260 H 0.19426 0.80067 0.07515 0.0
H261 H 0.22627 0.80463 0.05472 0.0
H262 H 0.1938 0.77059 0.05399 0.0
O263 O 0.0723 0.78295 0.06173 0.0
O264 O 0.05187 0.81259 0.03509 0.0
H265 H 0.11857 0.86134 0.997 0.0
H266 H 0.16237 0.87698 0.99402 0.0
C267 C 0.14023 0.87503 0.00486 0.0
H268 H 0.1311 0.9016 0.00893 0.0
H269 H 0.05058 0.84985 0.99681 0.0
O270 O 0.13443 0.76988 0.0902 0.0
C271 C 0.05128 0.78615 0.04676 0.0
Co272 Co 0.5546 0.8631 0.82413 0.0
Co273 Co 0.60141 0.82703 0.79088 0.0
C274 C 0.61312 0.8186 0.83712 0.0
O275 O 0.5904 0.84123 0.84232 0.0
O276 O 0.61859 0.81159 0.81826 0.0
C277 C 0.5212 0.89426 0.8596 0.0
O278 O 0.55258 0.89389 0.86765 0.0
C279 C 0.66636 0.80205 0.77382 0.0
C280 C 0.64942 0.77996 0.74407 0.0
C281 C 0.67769 0.78242 0.75722 0.0
N282 N 0.63277 0.81009 0.77082 0.0
N283 N 0.62284 0.79718 0.75291 0.0
C284 C 0.68684 0.81331 0.79223 0.0
H285 H 0.67644 0.83832 0.79826 0.0
H286 H 0.71479 0.81633 0.78829 0.0
H287 H 0.68442 0.79335 0.80448 0.0
C288 C 0.56889 0.9245 0.79668 0.0
N289 N 0.57387 0.89113 0.8026 0.0
N290 N 0.59398 0.87562 0.789 0.0
C291 C 0.60246 0.89839 0.77407 0.0
C292 C 0.58688 0.93024 0.77838 0.0
C293 C 0.54645 0.94987 0.80801 0.0
H294 H 0.54852 0.94528 0.82482 0.0
H295 H 0.55392 0.97716 0.80436 0.0
H296 H 0.51892 0.94578 0.80342 0.0
O297 O 0.52912 0.82314 0.81253 0.0
O298 O 0.55825 0.80171 0.78601 0.0
H299 H 0.62303 0.90983 0.7436 0.0
H300 H 0.64794 0.87921 0.75888 0.0
C301 C 0.62134 0.8882 0.75485 0.0
H302 H 0.60746 0.86614 0.74749 0.0
H303 H 0.59747 0.79858 0.74723 0.0
O304 O 0.51748 0.88604 0.8408 0.0
C305 C 0.53191 0.80173 0.79771 0.0
Co306 Co 0.86957 0.80898 0.57426 0.0
Co307 Co 0.90374 0.85672 0.5406 0.0
C308 C 0.91337 0.86833 0.5868 0.0
O309 O 0.89116 0.84528 0.59215 0.0
O310 O 0.91991 0.87401 0.56788 0.0
C311 C 0.8396 0.77476 0.60986 0.0
O312 O 0.83953 0.80616 0.61796 0.0
C313 C 0.92772 0.92164 0.52197 0.0
C314 C 0.9498 0.90209 0.49278 0.0
C315 C 0.94739 0.93148 0.50506 0.0
N316 N 0.91929 0.88784 0.51985 0.0
N317 N 0.93187 0.87652 0.50216 0.0
C318 C 0.9218 0.94208 0.54126 0.0
H319 H 0.90046 0.93031 0.5504 0.0
H320 H 0.91493 0.96947 0.53769 0.0
H321 H 0.94608 0.94223 0.55051 0.0
C322 C 0.80736 0.82207 0.54751 0.0
N323 N 0.84072 0.82776 0.55304 0.0
N324 N 0.85532 0.84833 0.5393 0.0
C325 C 0.8319 0.85644 0.52467 0.0
C326 C 0.80063 0.84007 0.52932 0.0
C327 C 0.78295 0.79891 0.55909 0.0
H328 H 0.78763 0.80149 0.57586 0.0
H329 H 0.75543 0.80535 0.55549 0.0
H330 H 0.78799 0.7714 0.5547 0.0
O331 O 0.9096 0.78432 0.56238 0.0
O332 O 0.92959 0.81379 0.53558 0.0
H333 H 0.86252 0.86204 0.49749 0.0
H334 H 0.8187 0.87763 0.49457 0.0
C335 C 0.84092 0.87576 0.50537 0.0
H336 H 0.85006 0.90236 0.50938 0.0
H337 H 0.93039 0.85067 0.49721 0.0
O338 O 0.84776 0.77128 0.59104 0.0
C339 C 0.93044 0.78748 0.54734 0.0
Co340 Co 0.926 0.11958 0.32411 0.0
Co341 Co 0.8779 0.15483 0.29106 0.0
C342 C 0.86702 0.16322 0.33735 0.0
O343 O 0.89019 0.14095 0.34243 0.0
O344 O 0.861 0.1701 0.31852 0.0
C345 C 0.96063 0.08855 0.35935 0.0
O346 O 0.92943 0.08832 0.36762 0.0
C347 C 0.81289 0.18024 0.27399 0.0
C348 C 0.82982 0.20091 0.24389 0.0
C349 C 0.8017 0.19952 0.25719 0.0
N350 N 0.84626 0.17139 0.27096 0.0
N351 N 0.85615 0.18344 0.25284 0.0
C352 C 0.79247 0.17013 0.29265 0.0
H353 H 0.80235 0.14507 0.29893 0.0
H354 H 0.76438 0.16767 0.28889 0.0
H355 H 0.7956 0.19043 0.30463 0.0
C356 C 0.9123 0.058 0.29681 0.0
N357 N 0.90676 0.09126 0.30272 0.0
N358 N 0.88606 0.10634 0.28923 0.0
C359 C 0.87772 0.08336 0.2744 0.0
C360 C 0.89407 0.05185 0.27864 0.0
C361 C 0.93554 0.03314 0.30802 0.0
H362 H 0.93345 0.03747 0.32484 0.0
H363 H 0.92885 0.00569 0.30428 0.0
H364 H 0.96291 0.03811 0.30341 0.0
O365 O 0.95061 0.1599 0.31236 0.0
O366 O 0.92065 0.18074 0.28597 0.0
H367 H 0.87213 0.11473 0.24748 0.0
H368 H 0.85589 0.07114 0.24432 0.0
C369 C 0.85825 0.09311 0.25528 0.0
H370 H 0.8319 0.10257 0.2595 0.0
H371 H 0.88142 0.18138 0.24709 0.0
O372 O 0.9638 0.09718 0.34057 0.0
C373 C 0.94719 0.18118 0.29752 0.0
Co374 Co 0.61211 0.17676 0.07364 0.0
Co375 Co 0.57726 0.12861 0.04041 0.0
C376 C 0.56847 0.11756 0.0867 0.0
O377 O 0.5907 0.14074 0.09182 0.0
O378 O 0.56161 0.1116 0.06785 0.0
C379 C 0.64244 0.21129 0.10903 0.0
O380 O 0.64241 0.17996 0.11724 0.0
C381 C 0.55355 0.06321 0.02225 0.0
C382 C 0.53036 0.08215 0.99318 0.0
C383 C 0.5336 0.0529 0.00553 0.0
N384 N 0.56136 0.09713 0.01994 0.0
N385 N 0.54809 0.10809 0.00233 0.0
C386 C 0.56037 0.04303 0.04154 0.0
H387 H 0.5817 0.05529 0.05048 0.0
H388 H 0.56767 0.01575 0.038 0.0
H389 H 0.53634 0.04248 0.05099 0.0
C390 C 0.67388 0.16311 0.04668 0.0
N391 N 0.64059 0.15761 0.05239 0.0
N392 N 0.62568 0.13697 0.03881 0.0
C393 C 0.64882 0.12867 0.02408 0.0
C394 C 0.68024 0.14493 0.02852 0.0
C395 C 0.69859 0.18621 0.05809 0.0
H396 H 0.69395 0.18403 0.07487 0.0
H397 H 0.72601 0.17939 0.05452 0.0
H398 H 0.69386 0.2137 0.05349 0.0
O399 O 0.57203 0.2014 0.06176 0.0
O400 O 0.55135 0.1715 0.03531 0.0
H401 H 0.61729 0.1227 0.99726 0.0
H402 H 0.66121 0.10774 0.99382 0.0
C403 C 0.63936 0.10927 0.00488 0.0
H404 H 0.63074 0.08253 0.00898 0.0
H405 H 0.54904 0.13392 0.99727 0.0
O406 O 0.63423 0.21462 0.0902 0.0
C407 C 0.55087 0.19806 0.04688 0.0
Co408 Co 0.5581 0.11913 0.67959 0.0
Co409 Co 0.60645 0.15362 0.71291 0.0
C410 C 0.61733 0.1629 0.66666 0.0
O411 O 0.59412 0.14072 0.66151 0.0
O412 O 0.62344 0.16953 0.68553 0.0
C413 C 0.52353 0.08911 0.64403 0.0
O414 O 0.55475 0.08906 0.6358 0.0
C415 C 0.67114 0.17852 0.73148 0.0
C416 C 0.65143 0.19994 0.76081 0.0
C417 C 0.68073 0.19816 0.74849 0.0
N418 N 0.63755 0.1695 0.73361 0.0
N419 N 0.62616 0.18171 0.75137 0.0
C420 C 0.69155 0.17316 0.71215 0.0
H421 H 0.69131 0.19762 0.70302 0.0
H422 H 0.68012 0.15172 0.70291 0.0
H423 H 0.719 0.16665 0.71565 0.0
C424 C 0.57103 0.05715 0.7067 0.0
N425 N 0.57703 0.09039 0.70088 0.0
N426 N 0.5979 0.10509 0.71442 0.0
C427 C 0.60593 0.08183 0.72919 0.0
C428 C 0.58915 0.05058 0.72486 0.0
C429 C 0.54737 0.03275 0.69546 0.0
H430 H 0.54966 0.03704 0.67864 0.0
H431 H 0.55349 0.00517 0.69922 0.0
H432 H 0.52008 0.03827 0.69999 0.0
O433 O 0.53358 0.1593 0.69147 0.0
O434 O 0.56367 0.17964 0.71794 0.0
H435 H 0.61162 0.11249 0.75636 0.0
H436 H 0.62792 0.06884 0.75912 0.0
C437 C 0.62549 0.09109 0.74836 0.0
H438 H 0.65181 0.10067 0.74418 0.0
H439 H 0.60041 0.17976 0.75635 0.0
O440 O 0.52032 0.0972 0.66289 0.0
C441 C 0.53711 0.18034 0.7064 0.0
Co442 Co 0.61161 0.80693 0.43148 0.0
Co443 Co 0.57638 0.85476 0.4647 0.0
C444 C 0.56785 0.86602 0.41839 0.0
O445 O 0.5902 0.84296 0.41329 0.0
O446 O 0.56085 0.87182 0.43723 0.0
C447 C 0.64239 0.77254 0.39619 0.0
O448 O 0.64236 0.80386 0.38798 0.0
C449 C 0.55281 0.92018 0.48278 0.0
C450 C 0.52896 0.90134 0.51166 0.0
C451 C 0.53267 0.9306 0.49937 0.0
N452 N 0.56029 0.8862 0.4851 0.0
N453 N 0.54663 0.87528 0.5026 0.0
C454 C 0.56014 0.94035 0.46355 0.0
H455 H 0.5815 0.92791 0.45474 0.0
H456 H 0.56766 0.96755 0.46717 0.0
H457 H 0.53627 0.94117 0.45395 0.0
C458 C 0.67318 0.82077 0.45862 0.0
N459 N 0.63987 0.8261 0.45284 0.0
N460 N 0.6248 0.84659 0.46643 0.0
C461 C 0.64783 0.85496 0.48122 0.0
C462 C 0.67936 0.8389 0.47682 0.0
C463 C 0.69808 0.79792 0.44721 0.0
H464 H 0.69346 0.80015 0.43042 0.0
H465 H 0.72545 0.80494 0.45083 0.0
H466 H 0.69356 0.77038 0.45175 0.0
O467 O 0.57153 0.78211 0.44322 0.0
O468 O 0.55059 0.81177 0.46968 0.0
H469 H 0.61601 0.8609 0.5079 0.0
H470 H 0.65997 0.87567 0.51157 0.0
C471 C 0.63822 0.87428 0.50041 0.0
H472 H 0.62976 0.90107 0.49631 0.0
H473 H 0.54729 0.84943 0.50764 0.0
O474 O 0.63397 0.76918 0.41498 0.0
C475 C 0.55028 0.78528 0.45805 0.0
Co476 Co 0.92599 0.86377 0.17976 0.0
Co477 Co 0.87866 0.82834 0.21306 0.0
C478 C 0.86722 0.81958 0.16682 0.0
O479 O 0.89011 0.84203 0.16161 0.0
O480 O 0.86153 0.81275 0.1857 0.0
C481 C 0.95998 0.89484 0.14436 0.0
O482 O 0.92871 0.89472 0.13615 0.0
C483 C 0.81403 0.80268 0.23042 0.0
C484 C 0.8314 0.78236 0.26053 0.0
C485 C 0.80313 0.78352 0.24732 0.0
N486 N 0.8474 0.8117 0.23331 0.0
N487 N 0.85757 0.79985 0.25143 0.0
C488 C 0.79334 0.81253 0.2118 0.0
H489 H 0.80303 0.83758 0.20541 0.0
H490 H 0.76529 0.81488 0.21564 0.0
H491 H 0.79643 0.79214 0.19987 0.0
C492 C 0.91217 0.92542 0.20696 0.0
N493 N 0.90683 0.89207 0.20115 0.0
N494 N 0.88644 0.87691 0.21476 0.0
C495 C 0.8781 0.89992 0.22957 0.0
C496 C 0.89413 0.93154 0.22519 0.0
C497 C 0.93508 0.95039 0.19562 0.0
H498 H 0.93273 0.94598 0.17881 0.0
H499 H 0.92826 0.97781 0.19935 0.0
H500 H 0.96255 0.94562 0.20009 0.0
O501 O 0.95107 0.82369 0.19148 0.0
O502 O 0.92168 0.80281 0.21806 0.0
H503 H 0.87313 0.86869 0.25657 0.0
H504 H 0.85657 0.91217 0.2597 0.0
C505 C 0.85896 0.89014 0.24878 0.0
H506 H 0.83264 0.88044 0.24468 0.0
H507 H 0.88289 0.80208 0.2571 0.0
O508 O 0.9634 0.8864 0.16315 0.0
C509 C 0.94804 0.80249 0.20639 0.0
Co510 Co 0.86881 0.17694 0.93046 0.0
Co511 Co 0.90387 0.12854 0.96352 0.0
C512 C 0.91256 0.118 0.91717 0.0
O513 O 0.89022 0.14115 0.91214 0.0
O514 O 0.91948 0.11187 0.93599 0.0
C515 C 0.8373 0.21182 0.89539 0.0
O516 O 0.83683 0.18062 0.88703 0.0
C517 C 0.92832 0.06326 0.98157 0.0
C518 C 0.95086 0.08227 0.01079 0.0
C519 C 0.94821 0.05309 0.99835 0.0
N520 N 0.91998 0.09704 0.98393 0.0
N521 N 0.93287 0.10803 1.00163 0.0
C522 C 0.92208 0.04317 0.96219 0.0
H523 H 0.94617 0.04329 0.95279 0.0
H524 H 0.90053 0.05507 0.95325 0.0
H525 H 0.91536 0.01569 0.96559 0.0
C526 C 0.80725 0.16307 0.95751 0.0
N527 N 0.84049 0.15754 0.95171 0.0
N528 N 0.85545 0.13678 0.96522 0.0
C529 C 0.83239 0.1284 0.97998 0.0
C530 C 0.80098 0.14479 0.97565 0.0
C531 C 0.78253 0.18635 0.94623 0.0
H532 H 0.7868 0.184 0.92941 0.0
H533 H 0.75511 0.17982 0.94999 0.0
H534 H 0.78764 0.21382 0.9507 0.0
O535 O 0.90893 0.20159 0.94232 0.0
O536 O 0.92967 0.17146 0.96868 0.0
H537 H 0.86374 0.12248 0.00687 0.0
H538 H 0.82001 0.10686 0.01011 0.0
C539 C 0.84193 0.10885 0.99912 0.0
H540 H 0.85096 0.0823 0.99493 0.0
H541 H 0.93148 0.13379 0.00675 0.0
O542 O 0.84638 0.21486 0.9141 0.0
C543 C 0.9301 0.19813 0.95719 0.0
Co544 Co 0.9273 0.62235 0.68118 0.0
Co545 Co 0.88019 0.65827 0.71434 0.0
C546 C 0.86865 0.6665 0.66807 0.0
O547 O 0.89145 0.64393 0.66292 0.0
O548 O 0.86309 0.67357 0.68691 0.0
C549 C 0.96101 0.59139 0.64582 0.0
O550 O 0.92963 0.59162 0.63778 0.0
C551 C 0.81504 0.68299 0.73128 0.0
C552 C 0.83172 0.70498 0.76111 0.0
C553 C 0.80354 0.70249 0.74789 0.0
N554 N 0.84863 0.67505 0.73434 0.0
N555 N 0.8584 0.68789 0.75229 0.0
C556 C 0.79471 0.67175 0.7128 0.0
H557 H 0.8052 0.64679 0.70677 0.0
H558 H 0.76673 0.66865 0.71667 0.0
H559 H 0.79717 0.69176 0.70058 0.0
C560 C 0.91298 0.56087 0.70854 0.0
N561 N 0.90805 0.59427 0.70268 0.0
N562 N 0.88782 0.60971 0.71625 0.0
C563 C 0.87923 0.58685 0.7311 0.0
C564 C 0.89485 0.55502 0.72677 0.0
C565 C 0.93545 0.53554 0.69719 0.0
H566 H 0.9335 0.54026 0.68039 0.0
H567 H 0.92792 0.50824 0.70075 0.0
H568 H 0.96296 0.53956 0.70185 0.0
O569 O 0.95239 0.66253 0.69276 0.0
O570 O 0.92319 0.68385 0.71928 0.0
H571 H 0.85837 0.5752 0.76148 0.0
H572 H 0.83351 0.6058 0.74615 0.0
C573 C 0.8601 0.59689 0.75027 0.0
H574 H 0.87382 0.61897 0.75772 0.0
H575 H 0.88374 0.68654 0.75803 0.0
O576 O 0.96468 0.59962 0.66463 0.0
C577 C 0.9495 0.68396 0.70756 0.0
Co578 Co 0.61239 0.67556 0.93061 0.0
Co579 Co 0.57787 0.62762 0.96406 0.0
C580 C 0.56843 0.61644 0.91782 0.0
O581 O 0.59068 0.63951 0.91257 0.0
O582 O 0.56179 0.6106 0.93671 0.0
C583 C 0.64232 0.70997 0.89508 0.0
O584 O 0.64219 0.67863 0.8869 0.0
C585 C 0.55407 0.56239 0.98236 0.0
C586 C 0.53128 0.5815 0.01146 0.0
C587 C 0.53418 0.55223 0.99912 0.0
N588 N 0.56215 0.59625 0.98462 0.0
N589 N 0.54915 0.60731 0.00226 0.0
C590 C 0.56056 0.54215 0.96306 0.0
H591 H 0.5364 0.54163 0.95371 0.0
H592 H 0.58182 0.5543 0.95403 0.0
H593 H 0.56783 0.51486 0.96662 0.0
C594 C 0.67441 0.662 0.95742 0.0
N595 N 0.64107 0.65645 0.95179 0.0
N596 N 0.62632 0.63583 0.96545 0.0
C597 C 0.64961 0.62757 0.98012 0.0
C598 C 0.68096 0.64387 0.97558 0.0
C599 C 0.69896 0.68519 0.94597 0.0
H600 H 0.6943 0.68288 0.92918 0.0
H601 H 0.72643 0.67856 0.94955 0.0
H602 H 0.69405 0.71267 0.95049 0.0
O603 O 0.57251 0.7003 0.94257 0.0
O604 O 0.55214 0.6706 0.96919 0.0
H605 H 0.61857 0.62178 0.00713 0.0
H606 H 0.66244 0.60642 0.01029 0.0
C607 C 0.64037 0.60819 0.99937 0.0
H608 H 0.63144 0.58154 0.9953 0.0
H609 H 0.55031 0.63313 0.0073 0.0
O610 O 0.63435 0.71333 0.91393 0.0
C611 C 0.55156 0.69709 0.95755 0.0
Co612 Co 0.55559 0.36454 0.17997 0.0
Co613 Co 0.60301 0.32884 0.21318 0.0
C614 C 0.61422 0.32015 0.16694 0.0
O615 O 0.59131 0.34263 0.16178 0.0
O616 O 0.62004 0.3133 0.1858 0.0
C617 C 0.52166 0.39519 0.14445 0.0
O618 O 0.55292 0.39471 0.13627 0.0
C619 C 0.66761 0.30287 0.23045 0.0
C620 C 0.65022 0.28209 0.26043 0.0
C621 C 0.67847 0.28338 0.24723 0.0
N622 N 0.63427 0.31194 0.23338 0.0
N623 N 0.6241 0.29983 0.25143 0.0
C624 C 0.6883 0.31297 0.2119 0.0
H625 H 0.67863 0.33811 0.20562 0.0
H626 H 0.71636 0.31525 0.21578 0.0
H627 H 0.6852 0.29275 0.19986 0.0
C628 C 0.56966 0.42605 0.20734 0.0
N629 N 0.57494 0.39274 0.20142 0.0
N630 N 0.59536 0.37743 0.21497 0.0
C631 C 0.60378 0.40031 0.22985 0.0
C632 C 0.58778 0.43199 0.22558 0.0
C633 C 0.54672 0.45114 0.19609 0.0
H634 H 0.54874 0.44669 0.17928 0.0
H635 H 0.55378 0.47852 0.19978 0.0
H636 H 0.5193 0.44655 0.20072 0.0
O637 O 0.53033 0.32459 0.19169 0.0
O638 O 0.55993 0.3034 0.21812 0.0
H639 H 0.6088 0.36875 0.25673 0.0
H640 H 0.62533 0.4122 0.26005 0.0
C641 C 0.62294 0.39031 0.24903 0.0
H642 H 0.64926 0.38067 0.24491 0.0
H643 H 0.59879 0.30203 0.25711 0.0
O644 O 0.51822 0.38724 0.16332 0.0
C645 C 0.53343 0.30326 0.20654 0.0
Co646 Co 0.87011 0.30592 0.43071 0.0
Co647 Co 0.90545 0.35347 0.46392 0.0
C648 C 0.91396 0.36482 0.41762 0.0
O649 O 0.89157 0.34184 0.41244 0.0
O650 O 0.92086 0.37052 0.43649 0.0
C651 C 0.83902 0.27165 0.39549 0.0
O652 O 0.8389 0.30301 0.38732 0.0
C653 C 0.93042 0.41867 0.48094 0.0
C654 C 0.95145 0.40185 0.51099 0.0
C655 C 0.94967 0.43004 0.49769 0.0
N656 N 0.92194 0.38514 0.484 0.0
N657 N 0.9342 0.3753 0.50208 0.0
C658 C 0.91996 0.43908 0.46232 0.0
H659 H 0.89501 0.42894 0.4561 0.0
H660 H 0.91727 0.4672 0.46608 0.0
H661 H 0.94014 0.43617 0.45027 0.0
C662 C 0.80854 0.31997 0.4578 0.0
N663 N 0.84186 0.32518 0.45206 0.0
N664 N 0.85701 0.34559 0.46566 0.0
C665 C 0.83402 0.35406 0.48043 0.0
C666 C 0.80242 0.33812 0.47601 0.0
C667 C 0.78355 0.2972 0.44638 0.0
H668 H 0.78815 0.29945 0.42959 0.0
H669 H 0.75621 0.30428 0.44999 0.0
H670 H 0.78802 0.26964 0.4509 0.0
O671 O 0.91021 0.28101 0.44244 0.0
O672 O 0.93109 0.31047 0.46901 0.0
H673 H 0.86551 0.35946 0.50729 0.0
H674 H 0.82188 0.37527 0.51066 0.0
C675 C 0.84375 0.37331 0.49963 0.0
H676 H 0.85291 0.39986 0.49553 0.0
H677 H 0.93241 0.34995 0.50785 0.0
O678 O 0.84762 0.26823 0.41425 0.0
C679 C 0.93143 0.28406 0.45732 0.0
Co680 Co 0.92316 0.3657 0.82515 0.0
Co681 Co 0.87504 0.3312 0.79171 0.0
C682 C 0.86407 0.32163 0.83793 0.0
O683 O 0.88719 0.34386 0.84315 0.0
O684 O 0.85804 0.31507 0.81905 0.0
C685 C 0.95765 0.39567 0.86077 0.0
O686 O 0.92647 0.39541 0.86906 0.0
C687 C 0.81046 0.30624 0.77305 0.0
C688 C 0.83025 0.28497 0.74371 0.0
C689 C 0.80093 0.28666 0.75602 0.0
N690 N 0.84404 0.31533 0.77096 0.0
N691 N 0.85548 0.3032 0.75319 0.0
C692 C 0.79002 0.31147 0.79239 0.0
H693 H 0.79044 0.28701 0.80152 0.0
H694 H 0.80134 0.33298 0.80163 0.0
H695 H 0.76253 0.3178 0.78891 0.0
C696 C 0.91009 0.42774 0.79818 0.0
N697 N 0.90416 0.39445 0.80392 0.0
N698 N 0.88341 0.37977 0.7903 0.0
C699 C 0.8754 0.40309 0.77557 0.0
C700 C 0.89207 0.43435 0.77999 0.0
C701 C 0.93364 0.45213 0.80951 0.0
H702 H 0.93119 0.44781 0.82631 0.0
H703 H 0.92754 0.47972 0.80574 0.0
H704 H 0.96098 0.44663 0.80506 0.0
O705 O 0.94788 0.32573 0.81319 0.0
O706 O 0.91793 0.30538 0.78667 0.0
H707 H 0.86998 0.37253 0.74833 0.0
H708 H 0.85359 0.41617 0.7456 0.0
C709 C 0.856 0.39386 0.75634 0.0
H710 H 0.82968 0.38419 0.76043 0.0
H711 H 0.88123 0.30521 0.74822 0.0
O712 O 0.96083 0.38773 0.84189 0.0
C713 C 0.94448 0.30474 0.79822 0.0
Co714 Co 0.86978 0.67661 0.07354 0.0
Co715 Co 0.90501 0.62907 0.04022 0.0
C716 C 0.914 0.61773 0.08647 0.0
O717 O 0.8916 0.64068 0.09166 0.0
O718 O 0.92086 0.612 0.06761 0.0
C719 C 0.83918 0.71067 0.10896 0.0
O720 O 0.83957 0.67934 0.11716 0.0
C721 C 0.92878 0.56386 0.02201 0.0
C722 C 0.95246 0.58293 0.99314 0.0
C723 C 0.94894 0.55361 0.0054 0.0
N724 N 0.92112 0.59781 0.01974 0.0
N725 N 0.93466 0.60887 1.00224 0.0
C726 C 0.9216 0.54357 0.04122 0.0
H727 H 0.94554 0.54265 0.05075 0.0
H728 H 0.90031 0.55596 0.05012 0.0
H729 H 0.91402 0.51641 0.03755 0.0
C730 C 0.80812 0.66257 0.04654 0.0
N731 N 0.84146 0.65732 0.05226 0.0
N732 N 0.85653 0.63693 0.03862 0.0
C733 C 0.83347 0.62854 0.02386 0.0
C734 C 0.80192 0.64449 0.02832 0.0
C735 C 0.78322 0.6854 0.05797 0.0
H736 H 0.78781 0.68305 0.07476 0.0
H737 H 0.75586 0.67844 0.05432 0.0
H738 H 0.78781 0.71296 0.0535 0.0
O739 O 0.90954 0.70179 0.0617 0.0
O740 O 0.9305 0.67223 0.03521 0.0
H741 H 0.86512 0.62295 0.99708 0.0
H742 H 0.82125 0.60786 0.99351 0.0
C743 C 0.84307 0.60937 0.00461 0.0
H744 H 0.85178 0.58263 0.00865 0.0
H745 H 0.93386 0.63473 0.99723 0.0
O746 O 0.84729 0.71412 0.09013 0.0
C747 C 0.93071 0.69875 0.04681 0.0
Co748 Co 0.55632 0.61951 0.32495 0.0
Co749 Co 0.6042 0.65493 0.29191 0.0
C750 C 0.61508 0.66359 0.33819 0.0
O751 O 0.59205 0.64119 0.34327 0.0
O752 O 0.6211 0.67042 0.31935 0.0
C753 C 0.522 0.58864 0.36028 0.0
O754 O 0.55322 0.5888 0.36855 0.0
C755 C 0.66893 0.68076 0.27473 0.0
C756 C 0.6517 0.70096 0.24456 0.0
C757 C 0.67989 0.69991 0.25784 0.0
N758 N 0.6356 0.67164 0.27176 0.0
N759 N 0.62553 0.68342 0.25361 0.0
C760 C 0.68952 0.671 0.2934 0.0
H761 H 0.67984 0.64596 0.2998 0.0
H762 H 0.7176 0.66869 0.28962 0.0
H763 H 0.68632 0.69143 0.3053 0.0
C764 C 0.57009 0.55797 0.29761 0.0
N765 N 0.57562 0.59123 0.30356 0.0
N766 N 0.59627 0.60638 0.29009 0.0
C767 C 0.60461 0.58344 0.27524 0.0
C768 C 0.58829 0.55189 0.27943 0.0
C769 C 0.54682 0.53309 0.30875 0.0
H770 H 0.54893 0.53733 0.32558 0.0
H771 H 0.55348 0.50565 0.30497 0.0
H772 H 0.51945 0.53811 0.30414 0.0
O773 O 0.53142 0.65968 0.3132 0.0
O774 O 0.5613 0.68061 0.28682 0.0
H775 H 0.60988 0.61465 0.24824 0.0
H776 H 0.62667 0.57125 0.24522 0.0
C777 C 0.62401 0.59328 0.25612 0.0
H778 H 0.65023 0.6031 0.26036 0.0
H779 H 0.60025 0.68111 0.24788 0.0
O780 O 0.51872 0.59694 0.34145 0.0
C781 C 0.53475 0.68096 0.29835 0.0
Co782 Co 0.61346 0.30764 0.57401 0.0
Co783 Co 0.57891 0.35641 0.54093 0.0
C784 C 0.57017 0.36691 0.58728 0.0
O785 O 0.59232 0.34359 0.59232 0.0
O786 O 0.56335 0.37312 0.56845 0.0
C787 C 0.64466 0.27243 0.60908 0.0
O788 O 0.64548 0.30364 0.61742 0.0
C789 C 0.55452 0.42176 0.52287 0.0
C790 C 0.53233 0.40277 0.49356 0.0
C791 C 0.53472 0.4319 0.50605 0.0
N792 N 0.56306 0.38803 0.52049 0.0
N793 N 0.55039 0.37706 0.50273 0.0
C794 C 0.5605 0.44181 0.5423 0.0
H795 H 0.53631 0.44157 0.55161 0.0
H796 H 0.58202 0.43 0.55129 0.0
H797 H 0.56712 0.46934 0.53893 0.0
C798 C 0.6752 0.32098 0.54699 0.0
N799 N 0.642 0.32681 0.55278 0.0
N800 N 0.62727 0.34776 0.53928 0.0
C801 C 0.65045 0.35597 0.52455 0.0
C802 C 0.68169 0.33927 0.52888 0.0
C803 C 0.69967 0.29742 0.55826 0.0
H804 H 0.69539 0.29976 0.57508 0.0
H805 H 0.72715 0.30368 0.55452 0.0
H806 H 0.69428 0.27002 0.55376 0.0
O807 O 0.57313 0.28339 0.56212 0.0
O808 O 0.55279 0.31369 0.53571 0.0
H809 H 0.61938 0.36214 0.49757 0.0
H810 H 0.66316 0.3777 0.49451 0.0
C811 C 0.64113 0.37568 0.50542 0.0
H812 H 0.63211 0.40222 0.50965 0.0
H813 H 0.55191 0.35132 0.49758 0.0
O814 O 0.63549 0.26947 0.59038 0.0
C815 C 0.55207 0.28704 0.54721 0.0
Co816 Co 0.05587 0.36363 0.324 0.0
Co817 Co 0.10303 0.3283 0.29063 0.0
C818 C 0.11454 0.31926 0.33686 0.0
O819 O 0.09173 0.34175 0.34213 0.0
O820 O 0.12013 0.31252 0.31797 0.0
C821 C 0.02198 0.394 0.35951 0.0
O822 O 0.0533 0.39357 0.36764 0.0
C823 C 0.16771 0.30274 0.27341 0.0
C824 C 0.15048 0.28206 0.24337 0.0
C825 C 0.17868 0.28337 0.25663 0.0
N826 N 0.13435 0.31171 0.27043 0.0
N827 N 0.12428 0.29967 0.25234 0.0
C828 C 0.18832 0.31281 0.29201 0.0
H829 H 0.18523 0.29254 0.30403 0.0
H830 H 0.17857 0.3379 0.29829 0.0
H831 H 0.21638 0.31516 0.2882 0.0
C832 C 0.06984 0.42545 0.29689 0.0
N833 N 0.07506 0.39204 0.30264 0.0
N834 N 0.09539 0.37689 0.28901 0.0
C835 C 0.10382 0.39998 0.27425 0.0
C836 C 0.08791 0.43162 0.27868 0.0
C837 C 0.04703 0.45042 0.30828 0.0
H838 H 0.04922 0.4458 0.32507 0.0
H839 H 0.05405 0.47784 0.30466 0.0
H840 H 0.01956 0.44589 0.30371 0.0
O841 O 0.03076 0.32366 0.31224 0.0
O842 O 0.05998 0.30285 0.28559 0.0
H843 H 0.10887 0.36875 0.24725 0.0
H844 H 0.12526 0.41231 0.2441 0.0
C845 C 0.12296 0.39027 0.25502 0.0
H846 H 0.14932 0.38066 0.25911 0.0
H847 H 0.09897 0.30182 0.24662 0.0
O848 O 0.01845 0.38611 0.34064 0.0
C849 C 0.03368 0.30251 0.29731 0.0
Co850 Co 0.36922 0.30715 0.07357 0.0
Co851 Co 0.40419 0.35479 0.04014 0.0
C852 C 0.41339 0.36614 0.0864 0.0
O853 O 0.39103 0.34316 0.09162 0.0
O854 O 0.42016 0.37189 0.06751 0.0
C855 C 0.33896 0.27288 0.10906 0.0
O856 O 0.33935 0.30418 0.11728 0.0
C857 C 0.42839 0.41981 0.02176 0.0
C858 C 0.45122 0.40046 0.99272 0.0
C859 C 0.44836 0.42981 0.00501 0.0
N860 N 0.4202 0.38596 0.01955 0.0
N861 N 0.43324 0.37476 1.00195 0.0
C862 C 0.4219 0.44015 0.04102 0.0
H863 H 0.40051 0.42815 0.05002 0.0
H864 H 0.41481 0.46748 0.03743 0.0
H865 H 0.446 0.44054 0.05043 0.0
C866 C 0.3074 0.321 0.04663 0.0
N867 N 0.34075 0.32634 0.05229 0.0
N868 N 0.35569 0.34683 0.03864 0.0
C869 C 0.3325 0.35524 0.02394 0.0
C870 C 0.30102 0.33915 0.02845 0.0
C871 C 0.28264 0.29803 0.05808 0.0
H872 H 0.28727 0.30036 0.07487 0.0
H873 H 0.25523 0.30486 0.05446 0.0
H874 H 0.28735 0.2705 0.05359 0.0
O875 O 0.40903 0.28212 0.06172 0.0
O876 O 0.42975 0.31166 0.03514 0.0
H877 H 0.36362 0.36089 0.99696 0.0
H878 H 0.31985 0.37654 0.99379 0.0
C879 C 0.34189 0.3746 0.00472 0.0
H880 H 0.35099 0.40119 0.00881 0.0
H881 H 0.43199 0.34892 0.99696 0.0
O882 O 0.34694 0.26952 0.09021 0.0
C883 C 0.43011 0.28519 0.0468 0.0
Co884 Co 0.42462 0.61895 0.825 0.0
Co885 Co 0.37634 0.65355 0.79183 0.0
C886 C 0.36568 0.66266 0.83812 0.0
O887 O 0.3888 0.64039 0.84328 0.0
O888 O 0.35958 0.66926 0.81925 0.0
C889 C 0.45943 0.58801 0.8602 0.0
O890 O 0.42825 0.58752 0.86849 0.0
C891 C 0.31167 0.6797 0.77462 0.0
C892 C 0.32887 0.69888 0.74423 0.0
C893 C 0.30086 0.69871 0.75763 0.0
N894 N 0.34477 0.66984 0.7716 0.0
N895 N 0.3548 0.68099 0.7533 0.0
C896 C 0.29116 0.67086 0.79346 0.0
H897 H 0.30033 0.64574 0.80001 0.0
H898 H 0.26297 0.66915 0.78982 0.0
H899 H 0.29502 0.69147 0.80518 0.0
C900 C 0.41139 0.55704 0.79793 0.0
N901 N 0.40551 0.59029 0.80373 0.0
N902 N 0.38463 0.60504 0.79021 0.0
C903 C 0.37646 0.5818 0.77547 0.0
C904 C 0.39319 0.55052 0.77979 0.0
C905 C 0.43503 0.53258 0.80915 0.0
H906 H 0.43261 0.53671 0.82598 0.0
H907 H 0.42899 0.50502 0.80531 0.0
H908 H 0.46235 0.53821 0.80471 0.0
O909 O 0.449 0.65931 0.81315 0.0
O910 O 0.41903 0.67952 0.78659 0.0
H911 H 0.37101 0.61213 0.74815 0.0
H912 H 0.35382 0.56877 0.74572 0.0
C913 C 0.35683 0.59115 0.75634 0.0
H914 H 0.33076 0.60132 0.76058 0.0
H915 H 0.37997 0.67813 0.74752 0.0
O916 O 0.46252 0.59681 0.84145 0.0
C917 C 0.4455 0.68034 0.79819 0.0
Co918 Co 0.11261 0.67861 0.57391 0.0
Co919 Co 0.07685 0.63082 0.54096 0.0
C920 C 0.06854 0.61992 0.58727 0.0
O921 O 0.09095 0.64298 0.5923 0.0
O922 O 0.06154 0.61395 0.56844 0.0
C923 C 0.14367 0.71293 0.60908 0.0
O924 O 0.14324 0.68166 0.61736 0.0
C925 C 0.05124 0.56578 0.52401 0.0
C926 C 0.03038 0.58272 0.49395 0.0
C927 C 0.03189 0.55456 0.50727 0.0
N928 N 0.06003 0.59923 0.52093 0.0
N929 N 0.04786 0.60914 0.50283 0.0
C930 C 0.06153 0.54532 0.54264 0.0
H931 H 0.08656 0.55527 0.54886 0.0
H932 H 0.06402 0.51718 0.53889 0.0
H933 H 0.04136 0.54839 0.55468 0.0
C934 C 0.17391 0.66406 0.54672 0.0
N935 N 0.14063 0.65898 0.55257 0.0
N936 N 0.12533 0.63845 0.53908 0.0
C937 C 0.14821 0.62977 0.52429 0.0
C938 C 0.17986 0.64571 0.52857 0.0
C939 C 0.199 0.68696 0.55797 0.0
H940 H 0.19458 0.68488 0.57478 0.0
H941 H 0.22631 0.67986 0.55428 0.0
H942 H 0.19447 0.71448 0.55337 0.0
O943 O 0.07273 0.70377 0.56213 0.0
O944 O 0.05138 0.67393 0.53585 0.0
H945 H 0.11676 0.6243 0.49742 0.0
H946 H 0.1602 0.60785 0.49422 0.0
C947 C 0.13831 0.6103 0.50519 0.0
H948 H 0.12878 0.58394 0.50944 0.0
H949 H 0.04989 0.63445 0.49704 0.0
O950 O 0.13543 0.71624 0.59025 0.0
C951 C 0.05136 0.70059 0.54734 0.0
Co952 Co 0.05652 0.61994 0.17985 0.0
Co953 Co 0.1041 0.65529 0.21306 0.0
C954 C 0.11526 0.66403 0.1668 0.0
O955 O 0.09232 0.6416 0.16163 0.0
O956 O 0.12107 0.67085 0.18567 0.0
C957 C 0.02232 0.58898 0.14451 0.0
O958 O 0.05357 0.58896 0.13632 0.0
C959 C 0.16896 0.68074 0.23022 0.0
C960 C 0.15191 0.70141 0.26028 0.0
C961 C 0.18007 0.70003 0.24702 0.0
N962 N 0.13558 0.67188 0.23321 0.0
N963 N 0.12561 0.68393 0.25131 0.0
C964 C 0.18946 0.67062 0.2116 0.0
H965 H 0.17959 0.64557 0.20531 0.0
H966 H 0.21753 0.66816 0.21541 0.0
H967 H 0.18639 0.69092 0.1996 0.0
C968 C 0.07027 0.5583 0.20712 0.0
N969 N 0.07572 0.59161 0.20125 0.0
N970 N 0.09623 0.60674 0.21482 0.0
C971 C 0.10455 0.58373 0.22965 0.0
C972 C 0.08836 0.55216 0.22534 0.0
C973 C 0.04718 0.53341 0.19584 0.0
H974 H 0.04944 0.53775 0.17903 0.0
H975 H 0.0539 0.50596 0.19961 0.0
H976 H 0.01976 0.53832 0.20035 0.0
O977 O 0.03161 0.66007 0.19157 0.0
O978 O 0.06118 0.68095 0.21809 0.0
H979 H 0.10981 0.61501 0.25661 0.0
H980 H 0.12621 0.57145 0.25977 0.0
C981 C 0.12384 0.59348 0.24883 0.0
H982 H 0.15017 0.60307 0.2447 0.0
H983 H 0.10033 0.68185 0.25704 0.0
O984 O 0.01897 0.59742 0.1633 0.0
C985 C 0.03476 0.68131 0.20644 0.0
Co986 Co 0.11149 0.30799 0.93073 0.0
Co987 Co 0.07654 0.35491 0.96442 0.0
C988 C 0.06691 0.36682 0.91824 0.0
O989 O 0.08942 0.3441 0.91286 0.0
O990 O 0.06024 0.37224 0.93716 0.0
C991 C 0.14182 0.27451 0.89506 0.0
O992 O 0.14141 0.30598 0.88704 0.0
C993 C 0.05298 0.41989 0.98296 0.0
C994 C 0.02953 0.40054 0.01184 0.0
C995 C 0.03298 0.42999 0.99968 0.0
N996 N 0.06062 0.38591 0.98509 0.0
N997 N 0.04722 0.37468 0.00259 0.0
C998 C 0.06001 0.44035 0.9638 0.0
H999 H 0.0812 0.42803 0.9548 0.0
H1000 H 0.06763 0.46748 0.96753 0.0
H1001 H 0.03598 0.44136 0.95434 0.0
C1002 C 0.17342 0.32166 0.9576 0.0
N1003 N 0.14003 0.32698 0.95201 0.0
N1004 N 0.12507 0.34717 0.9658 0.0
C1005 C 0.14828 0.35538 0.98052 0.0
C1006 C 0.1798 0.3395 0.97588 0.0
C1007 C 0.1982 0.29896 0.946 0.0
H1008 H 0.19353 0.30157 0.92923 0.0
H1009 H 0.22561 0.30579 0.94963 0.0
H1010 H 0.19358 0.27134 0.95033 0.0
O1011 O 0.07183 0.28263 0.94256 0.0
O1012 O 0.05118 0.31163 0.96934 0.0
H1013 H 0.11696 0.36056 0.00746 0.0
H1014 H 0.16083 0.37577 0.01089 0.0
C1015 C 0.13886 0.3743 0.99988 0.0
H1016 H 0.13002 0.40106 0.99599 0.0
H1017 H 0.04805 0.34876 0.0075 0.0
O1018 O 0.13384 0.27075 0.91388 0.0
C1019 C 0.05082 0.28536 0.95754 0.0
Co1020 Co 0.42803 0.36308 0.68071 0.0
Co1021 Co 0.38085 0.32694 0.71379 0.0
C1022 C 0.36944 0.31895 0.66748 0.0
O1023 O 0.39227 0.34153 0.66237 0.0
O1024 O 0.36384 0.3118 0.68632 0.0
C1025 C 0.46208 0.39465 0.64551 0.0
O1026 O 0.43081 0.39469 0.63731 0.0
C1027 C 0.31561 0.30214 0.73066 0.0
C1028 C 0.33219 0.28012 0.76051 0.0
C1029 C 0.30403 0.28267 0.74728 0.0
N1030 N 0.34921 0.31003 0.73374 0.0
N1031 N 0.35893 0.29715 0.7517 0.0
C1032 C 0.29533 0.31344 0.71217 0.0
H1033 H 0.3059 0.33838 0.70613 0.0
H1034 H 0.26736 0.31661 0.71602 0.0
H1035 H 0.29776 0.29343 0.69996 0.0
C1036 C 0.41366 0.42438 0.70814 0.0
N1037 N 0.40869 0.39102 0.70222 0.0
N1038 N 0.38847 0.37551 0.71577 0.0
C1039 C 0.37993 0.39827 0.73067 0.0
C1040 C 0.39558 0.43012 0.7264 0.0
C1041 C 0.43616 0.44975 0.69683 0.0
H1042 H 0.43414 0.44518 0.68002 0.0
H1043 H 0.4287 0.47704 0.70046 0.0
H1044 H 0.46367 0.44563 0.70145 0.0
O1045 O 0.45318 0.32292 0.69231 0.0
O1046 O 0.42388 0.3014 0.71875 0.0
H1047 H 0.37461 0.36593 0.75722 0.0
H1048 H 0.35922 0.40968 0.76111 0.0
C1049 C 0.36088 0.38808 0.74985 0.0
H1050 H 0.33426 0.37923 0.74576 0.0
H1051 H 0.38426 0.29846 0.75746 0.0
O1052 O 0.46549 0.38597 0.66426 0.0
C1053 C 0.45026 0.30142 0.70708 0.0
Co1054 Co 0.36899 0.67605 0.43067 0.0
Co1055 Co 0.40368 0.62828 0.4642 0.0
C1056 C 0.4132 0.61703 0.41797 0.0
O1057 O 0.39089 0.64004 0.41269 0.0
O1058 O 0.41983 0.61121 0.43687 0.0
C1059 C 0.33911 0.71037 0.39506 0.0
O1060 O 0.33959 0.67908 0.38682 0.0
C1061 C 0.4281 0.56338 0.48274 0.0
C1062 C 0.45023 0.58292 0.51194 0.0
C1063 C 0.44786 0.55355 0.49964 0.0
N1064 N 0.41957 0.59715 0.48489 0.0
N1065 N 0.4322 0.60847 0.50258 0.0
C1066 C 0.42215 0.54298 0.46343 0.0
H1067 H 0.40077 0.55475 0.4543 0.0
H1068 H 0.41532 0.51557 0.46696 0.0
H1069 H 0.44641 0.54289 0.45418 0.0
C1070 C 0.30704 0.66242 0.45746 0.0
N1071 N 0.34037 0.65688 0.45185 0.0
N1072 N 0.35518 0.63635 0.46555 0.0
C1073 C 0.33191 0.62812 0.48023 0.0
C1074 C 0.30053 0.64437 0.47565 0.0
C1075 C 0.28246 0.68556 0.44597 0.0
H1076 H 0.28708 0.68316 0.42919 0.0
H1077 H 0.255 0.67895 0.44957 0.0
H1078 H 0.28739 0.71306 0.45044 0.0
O1079 O 0.40873 0.70102 0.44266 0.0
O1080 O 0.42925 0.67139 0.46927 0.0
H1081 H 0.36282 0.62275 0.50734 0.0
H1082 H 0.31911 0.60692 0.51038 0.0
C1083 C 0.34122 0.6089 0.49952 0.0
H1084 H 0.35047 0.58233 0.49551 0.0
H1085 H 0.43065 0.6343 0.50756 0.0
O1086 O 0.34688 0.71371 0.41395 0.0
C1087 C 0.42971 0.6979 0.45765 0.0
C1088 C 0.25545 0.23803 0.23239 0.0
C1089 C 0.26973 0.22005 0.24924 0.0
H1090 H 0.21541 0.27246 0.22167 0.0
C1091 C 0.25447 0.22383 0.26868 0.0
H1092 H 0.26742 0.23682 0.21737 0.0
C1093 C 0.22506 0.24473 0.27119 0.0
C1094 C 0.2108 0.26274 0.25434 0.0
H1095 H 0.2651 0.21032 0.28191 0.0
H1096 H 0.21309 0.24596 0.28621 0.0
C1097 C 0.22602 0.25893 0.2349 0.0
C1098 C 0.95519 -0.00385 0.50538 0.0
C1099 C 0.96936 0.9627 0.50307 0.0
H1100 H 0.96514 0.05111 0.5059 0.0
C1101 C 0.00518 0.95895 0.49937 0.0
H1102 H 0.92752 -0.00031 0.50773 0.0
C1103 C 0.02665 0.98825 0.49827 0.0
C1104 C 0.01248 0.0217 0.50059 0.0
H1105 H 0.0167 0.93329 0.49776 0.0
H1106 H 0.05432 0.98471 0.49593 0.0
C1107 C 0.97666 0.02546 0.50428 0.0
C1108 C 0.2558 0.73918 0.77189 0.0
C1109 C 0.2693 0.72018 0.75522 0.0
H1110 H 0.2171 0.77534 0.78228 0.0
C1111 C 0.25401 0.7239 0.73577 0.0
H1112 H 0.26786 0.73802 0.7869 0.0
C1113 C 0.22533 0.74576 0.73308 0.0
C1114 C 0.21186 0.76479 0.74973 0.0
H1115 H 0.26403 0.70961 0.72268 0.0
H1116 H 0.21327 0.74693 0.71807 0.0
C1117 C 0.22712 0.76104 0.76919 0.0
C1118 C 0.4556 -0.00574 0.99912 0.0
C1119 C 0.47059 0.96115 1.00132 0.0
H1120 H 0.46422 0.04945 0.99862 0.0
C1121 C 0.50653 0.95824 0.00489 0.0
H1122 H 0.42781 -0.00284 0.9969 0.0
C1123 C 0.5273 0.98805 0.00596 0.0
C1124 C 0.51232 0.02116 0.00372 0.0
H1125 H 0.51868 0.93286 0.00644 0.0
H1126 H 0.55508 0.98517 0.00819 0.0
C1127 C 0.47637 0.02407 1.00017 0.0
C1128 C 0.22743 0.72427 0.26886 0.0
C1129 C 0.21232 0.72046 0.24936 0.0
H1130 H 0.26874 0.74633 0.28651 0.0
C1131 C 0.22679 0.73835 0.23254 0.0
H1132 H 0.21666 0.71083 0.28206 0.0
C1133 C 0.25626 0.75916 0.23513 0.0
C1134 C 0.27135 0.76298 0.25463 0.0
H1135 H 0.21493 0.73711 0.21748 0.0
H1136 H 0.26703 0.7726 0.22193 0.0
C1137 C 0.25689 0.74508 0.27145 0.0
C1138 C 0.47564 0.96 0.50434 0.0
C1139 C 0.51168 0.96254 0.50107 0.0
H1140 H 0.42732 0.98741 0.50728 0.0
C1141 C 0.52706 -0.0045 0.49898 0.0
H1142 H 0.4632 0.93474 0.50578 0.0
C1143 C 0.50659 0.02552 0.49991 0.0
C1144 C 0.47055 0.02298 0.50321 0.0
H1145 H 0.55491 -0.0019 0.49696 0.0
H1146 H 0.51903 0.05078 0.49848 0.0
C1147 C 0.45517 0.99002 0.50527 0.0
C1148 C 0.22582 0.23972 0.77145 0.0
C1149 C 0.21059 0.22285 0.75451 0.0
H1150 H 0.26737 0.27217 0.7823 0.0
C1151 C 0.22567 0.22667 0.73502 0.0
H1152 H 0.21405 0.23848 0.78653 0.0
C1153 C 0.25586 0.24645 0.73256 0.0
C1154 C 0.27112 0.2633 0.74951 0.0
H1155 H 0.21432 0.21399 0.72171 0.0
H1156 H 0.26764 0.24769 0.71748 0.0
C1157 C 0.25602 0.2595 0.769 0.0
C1158 C 0.97649 0.9588 0.99899 0.0
C1159 C 0.01233 0.96215 0.0028 0.0
H1160 H 0.92765 0.98511 0.99544 0.0
C1161 C 0.02686 -0.00456 0.00514 0.0
H1162 H 0.96469 0.93327 0.99734 0.0
C1163 C 0.00573 0.02498 0.00399 0.0
C1164 C 0.96988 0.02163 1.00021 0.0
H1165 H 0.05455 -0.00133 0.00755 0.0
H1166 H 0.01752 0.05051 0.00566 0.0
C1167 C 0.95536 0.98834 0.99784 0.0
C1168 C 0.72552 0.74583 0.77198 0.0
C1169 C 0.71042 0.76278 0.75501 0.0
H1170 H 0.76686 0.71317 0.78288 0.0
C1171 C 0.72552 0.75889 0.73553 0.0
H1172 H 0.71371 0.74714 0.78704 0.0
C1173 C 0.75562 0.73896 0.73311 0.0
C1174 C 0.77073 0.72202 0.75008 0.0
H1175 H 0.71428 0.77163 0.72221 0.0
H1176 H 0.76743 0.73767 0.71805 0.0
C1177 C 0.75561 0.72589 0.76956 0.0
C1178 C 0.75436 0.22389 0.23538 0.0
C1179 C 0.76946 0.21998 0.25487 0.0
H1180 H 0.71314 0.24615 0.21772 0.0
C1181 C 0.75502 0.23785 0.27169 0.0
H1182 H 0.7651 0.21047 0.22216 0.0
C1183 C 0.72562 0.25876 0.26911 0.0
C1184 C 0.71057 0.26271 0.2496 0.0
H1185 H 0.76687 0.23654 0.28676 0.0
H1186 H 0.71489 0.27221 0.28231 0.0
C1187 C 0.72498 0.24481 0.23279 0.0
C1188 C 0.77419 0.22858 0.74967 0.0
C1189 C 0.77003 0.26431 0.75379 0.0
H1190 H 0.74905 0.17917 0.74559 0.0
C1191 C 0.73648 0.27804 0.7562 0.0
H1192 H 0.79992 0.21739 0.74796 0.0
C1193 C 0.70748 0.25624 0.75477 0.0
C1194 C 0.71164 0.22051 0.75065 0.0
H1195 H 0.73261 0.30565 0.75885 0.0
H1196 H 0.68175 0.26744 0.75648 0.0
C1197 C 0.74519 0.20678 0.74824 0.0
C1198 C 0.75644 0.74488 0.2331 0.0
C1199 C 0.77097 0.76301 0.24981 0.0
H1200 H 0.71624 0.7104 0.2227 0.0
C1201 C 0.75598 0.75941 0.26934 0.0
H1202 H 0.76821 0.74596 0.21802 0.0
C1203 C 0.72658 0.73856 0.27207 0.0
C1204 C 0.71206 0.72043 0.25536 0.0
H1205 H 0.7668 0.77304 0.28247 0.0
H1206 H 0.71481 0.73748 0.28715 0.0
C1207 C 0.72704 0.72403 0.23583 0.0
C1208 C 0.47661 0.5241 0.00443 0.0
C1209 C 0.51252 0.52076 1.00091 0.0
H1210 H 0.42772 0.49778 0.00762 0.0
C1211 C 0.52708 0.48748 0.99861 0.0
H1212 H 0.46479 0.54962 0.00602 0.0
C1213 C 0.50593 0.45793 0.99959 0.0
C1214 C 0.47003 0.46127 0.00314 0.0
H1215 H 0.55482 0.48425 0.99638 0.0
H1216 H 0.51776 0.4324 0.99801 0.0
C1217 C 0.45546 0.49455 0.00541 0.0
C1218 C 0.00787 0.50688 0.48555 0.0
C1219 C 0.01165 0.52214 0.50501 0.0
H1220 H 0.98617 0.46516 0.46803 0.0
C1221 C -0.006 0.50758 0.52188 0.0
H1222 H 0.02113 0.51771 0.47231 0.0
C1223 C 0.97349 0.47784 0.51939 0.0
C1224 C 0.96975 0.46256 0.49993 0.0
H1225 H -0.00479 0.51955 0.53691 0.0
H1226 H 0.96025 0.46699 0.53263 0.0
C1227 C 0.98736 0.47714 0.48306 0.0
C1228 C 0.97578 0.45891 0.00487 0.0
C1229 C 0.01178 0.46175 1.00155 0.0
H1230 H 0.92724 0.48594 0.00783 0.0
C1231 C 0.0269 0.49483 0.99945 0.0
H1232 H 0.96354 0.43355 0.00631 0.0
C1233 C 0.00618 0.52468 1.00038 0.0
C1234 C 0.97017 0.52184 0.00368 0.0
H1235 H 0.05472 0.49765 0.99741 0.0
H1236 H 0.01842 0.55003 0.99892 0.0
C1237 C 0.95506 0.48877 0.0058 0.0
C1238 C 0.52697 0.49659 0.50668 0.0
C1239 C 0.51276 0.46318 0.50423 0.0
H1240 H 0.51712 0.55157 0.50723 0.0
C1241 C 0.47696 0.45951 0.50042 0.0
H1242 H 0.55463 0.50007 0.50912 0.0
C1243 C 0.45556 0.48886 0.49928 0.0
C1244 C 0.46977 0.52228 0.50168 0.0
H1245 H 0.46541 0.43388 0.4987 0.0
H1246 H 0.4279 0.48537 0.49685 0.0
C1247 C 0.50557 0.52594 0.50553 0.0
C1248 C 0.33432 0.21799 0.15723 0.0
C1249 C 0.35184 0.18741 0.15109 0.0
H1250 H 0.31631 0.26887 0.14875 0.0
C1251 C 0.3595 0.183 0.13011 0.0
H1252 H 0.32795 0.22249 0.17322 0.0
C1253 C 0.3525 0.20976 0.11598 0.0
C1254 C 0.33809 0.24164 0.12259 0.0
H1255 H 0.37285 0.15981 0.12478 0.0
H1256 H 0.36073 0.20635 0.10018 0.0
C1257 C 0.32772 0.24482 0.14319 0.0
C1258 C 0.98897 0.07671 0.39335 0.0
C1259 C -0.00812 0.08766 0.37282 0.0
H1260 H 0.01158 0.07636 0.42335 0.0
C1261 C 0.02349 0.10258 0.36626 0.0
H1262 H 0.96515 0.06485 0.39888 0.0
C1263 C 0.05019 0.10956 0.38038 0.0
C1264 C 0.04601 0.10139 0.40132 0.0
H1265 H 0.02671 0.11123 0.35052 0.0
H1266 H 0.07313 0.12334 0.3751 0.0
C1267 C 0.01579 0.08327 0.4074 0.0
C1268 C 0.14855 0.76792 0.65716 0.0
C1269 C 0.13128 0.7986 0.65092 0.0
H1270 H 0.16624 0.7169 0.6488 0.0
C1271 C 0.12376 0.80302 0.62992 0.0
H1272 H 0.15476 0.76339 0.67317 0.0
C1273 C 0.13063 0.77618 0.61585 0.0
C1274 C 0.14478 0.74421 0.62254 0.0
H1275 H 0.11061 0.8263 0.62453 0.0
H1276 H 0.12249 0.77961 0.60002 0.0
C1277 C 0.15505 0.74102 0.64317 0.0
C1278 C 0.45847 0.88041 0.86692 0.0
C1279 C 0.4903 0.89509 0.87332 0.0
H1280 H 0.409 0.85963 0.87604 0.0
C1281 C 0.49379 0.9056 0.8939 0.0
H1282 H 0.45481 0.87209 0.85115 0.0
C1283 C 0.46733 0.89884 0.90812 0.0
C1284 C 0.4369 0.88093 0.90217 0.0
H1285 H 0.51781 0.91725 0.8993 0.0
H1286 H 0.47197 0.90541 0.92408 0.0
C1287 C 0.43213 0.87321 0.88122 0.0
C1288 C 0.33488 0.7653 0.34688 0.0
C1289 C 0.3523 0.7959 0.35311 0.0
H1290 H 0.31686 0.71439 0.35526 0.0
C1291 C 0.35976 0.8003 0.37412 0.0
H1292 H 0.32866 0.76082 0.33086 0.0
C1293 C 0.35267 0.77351 0.38821 0.0
C1294 C 0.33835 0.74162 0.38153 0.0
H1295 H 0.37302 0.8235 0.37951 0.0
H1296 H 0.36074 0.77691 0.40405 0.0
C1297 C 0.32819 0.73845 0.36089 0.0
C1298 C 0.46849 0.08489 0.5959 0.0
C1299 C 0.43834 0.10305 0.60204 0.0
H1300 H 0.51901 0.06609 0.60438 0.0
C1301 C 0.43415 0.11095 0.62301 0.0
H1302 H 0.47267 0.07814 0.57992 0.0
C1303 C 0.46078 0.10362 0.63712 0.0
C1304 C 0.49233 0.08862 0.63051 0.0
H1305 H 0.41126 0.12475 0.62833 0.0
H1306 H 0.45757 0.11205 0.6529 0.0
C1307 C 0.49524 0.07799 0.60993 0.0
C1308 C 0.1527 0.24715 0.86071 0.0
C1309 C 0.14257 0.24356 0.88133 0.0
H1310 H 0.1521 0.22541 0.83053 0.0
C1311 C 0.12824 0.21155 0.8878 0.0
H1312 H 0.16406 0.27131 0.85525 0.0
C1313 C 0.12104 0.18509 0.87353 0.0
C1314 C 0.1284 0.18995 0.85255 0.0
H1315 H 0.12022 0.20781 0.90361 0.0
H1316 H 0.10775 0.1618 0.87877 0.0
C1317 C 0.1459 0.22062 0.84652 0.0
C1318 C 0.02288 0.88126 0.13738 0.0
C1319 C -0.0089 0.89585 0.13081 0.0
H1320 H 0.07259 0.86076 0.12853 0.0
C1321 C 0.98793 0.90651 0.11024 0.0
H1322 H 0.0263 0.87284 0.15315 0.0
C1323 C 0.01467 0.89997 0.09617 0.0
C1324 C 0.04507 0.88215 0.10227 0.0
H1325 H 0.96397 0.91811 0.10472 0.0
H1326 H 0.01028 0.90663 0.0802 0.0
C1327 C 0.0495 0.87429 0.12323 0.0
C1328 C 0.65318 0.73799 0.8609 0.0
C1329 C 0.64287 0.74116 0.88151 0.0
H1330 H 0.65269 0.76024 0.83083 0.0
C1331 C 0.62822 0.77295 0.8881 0.0
H1332 H 0.66478 0.71402 0.85535 0.0
C1333 C 0.62095 0.79959 0.87394 0.0
C1334 C 0.62855 0.79516 0.85296 0.0
H1335 H 0.62004 0.77635 0.9039 0.0
H1336 H 0.60744 0.82269 0.87926 0.0
C1337 C 0.64631 0.76471 0.84682 0.0
C1338 C 0.95964 0.88313 0.63754 0.0
C1339 C -0.00871 0.89778 0.63082 0.0
H1340 H 0.90986 0.86245 0.62892 0.0
C1341 C -0.00588 0.90838 0.61022 0.0
H1342 H 0.95648 0.87476 0.65334 0.0
C1343 C 0.96719 0.90171 0.59627 0.0
C1344 C 0.93693 0.88383 0.60252 0.0
H1345 H 0.01796 0.92004 0.60458 0.0
H1346 H 0.97133 0.90833 0.58027 0.0
C1347 C 0.93283 0.87603 0.62352 0.0
C1348 C 0.85967 0.18202 0.37422 0.0
C1349 C 0.85177 0.18656 0.35327 0.0
H1350 H 0.86114 0.20515 0.40418 0.0
C1351 C 0.83399 0.21707 0.34724 0.0
H1352 H 0.87321 0.15887 0.37945 0.0
C1353 C 0.8274 0.24376 0.36136 0.0
C1354 C 0.83806 0.24049 0.38192 0.0
H1355 H 0.82741 0.22165 0.33128 0.0
H1356 H 0.81579 0.26779 0.35588 0.0
C1357 C 0.8527 0.20864 0.38842 0.0
C1358 C 0.51508 0.08389 0.09664 0.0
C1359 C 0.54528 0.10214 0.10263 0.0
H1360 H 0.46461 0.06526 0.10531 0.0
C1361 C 0.54965 0.11033 0.12355 0.0
H1362 H 0.51075 0.07695 0.0807 0.0
C1363 C 0.52313 0.10324 0.13775 0.0
C1364 C 0.49151 0.08819 0.13127 0.0
H1365 H 0.57259 0.1242 0.12876 0.0
H1366 H 0.52648 0.11191 0.15347 0.0
C1367 C 0.48844 0.07722 0.11076 0.0
C1368 C 0.63068 0.20939 0.61583 0.0
C1369 C 0.64572 0.24098 0.62243 0.0
H1370 H 0.61006 0.15957 0.6246 0.0
C1371 C 0.65705 0.24365 0.6429 0.0
H1372 H 0.62176 0.20634 0.60013 0.0
C1373 C 0.65072 0.21663 0.65688 0.0
C1374 C 0.63248 0.18644 0.65079 0.0
H1375 H 0.66903 0.26744 0.64844 0.0
H1376 H 0.6579 0.22067 0.6728 0.0
C1377 C 0.62394 0.18248 0.62989 0.0
C1378 C 0.48789 0.90633 0.39417 0.0
C1379 C 0.49117 0.8956 0.37363 0.0
H1380 H 0.50994 0.90635 0.42431 0.0
C1381 C 0.5229 0.88073 0.36722 0.0
H1382 H 0.46396 0.91815 0.39957 0.0
C1383 C 0.54931 0.87356 0.38149 0.0
C1384 C 0.54473 0.8815 0.40243 0.0
H1385 H 0.52641 0.87225 0.35147 0.0
H1386 H 0.57234 0.85983 0.37632 0.0
C1387 C 0.51442 0.8996 0.40837 0.0
C1388 C 0.83454 0.76537 0.15717 0.0
C1389 C 0.85194 0.79602 0.15101 0.0
H1390 H 0.81665 0.71446 0.14869 0.0
C1391 C 0.85945 0.80054 0.13002 0.0
H1392 H 0.82827 0.7608 0.17317 0.0
C1393 C 0.85247 0.77382 0.11589 0.0
C1394 C 0.83821 0.74186 0.1225 0.0
H1395 H 0.87269 0.8238 0.12469 0.0
H1396 H 0.8606 0.77732 0.10008 0.0
C1397 C 0.82795 0.73857 0.14312 0.0
C1398 C 0.96622 0.0849 0.90709 0.0
C1399 C 0.93581 0.10289 0.90117 0.0
H1400 H 0.01683 0.06682 0.89833 0.0
C1401 C 0.93127 0.11114 0.88027 0.0
H1402 H 0.97069 0.07794 0.92301 0.0
C1403 C 0.95779 0.10437 0.86602 0.0
C1404 C 0.98959 0.0896 0.87243 0.0
H1405 H 0.90818 0.12482 0.87511 0.0
H1406 H 0.9543 0.11309 0.85031 0.0
C1407 C -0.00714 0.07856 0.89292 0.0
C1408 C 0.82863 0.74696 0.6441 0.0
C1409 C 0.83901 0.74367 0.6235 0.0
H1410 H 0.82904 0.72489 0.67421 0.0
C1411 C 0.85365 0.71183 0.61699 0.0
H1412 H 0.81703 0.77097 0.64959 0.0
C1413 C 0.86087 0.68527 0.6312 0.0
C1414 C 0.85323 0.68983 0.65218 0.0
H1415 H 0.86187 0.70833 0.6012 0.0
H1416 H 0.87439 0.66214 0.62595 0.0
C1417 C 0.83546 0.72032 0.65823 0.0
C1418 C 0.52229 0.6021 0.867 0.0
C1419 C 0.49073 0.58717 0.87363 0.0
H1420 H 0.57195 0.62293 0.87573 0.0
C1421 C 0.48793 0.57627 0.89417 0.0
H1422 H 0.52544 0.61069 0.85124 0.0
C1423 C 0.51479 0.5829 0.90817 0.0
C1424 C 0.54496 0.60105 0.90202 0.0
H1425 H 0.46414 0.5644 0.89975 0.0
H1426 H 0.51067 0.57604 0.92413 0.0
C1427 C 0.54905 0.60915 0.88106 0.0
C1428 C 0.65369 0.23931 0.14316 0.0
C1429 C 0.64322 0.2425 0.12256 0.0
H1430 H 0.65351 0.26156 0.1732 0.0
C1431 C 0.62867 0.27435 0.11598 0.0
H1432 H 0.66522 0.21529 0.14871 0.0
C1433 C 0.62165 0.30105 0.13012 0.0
C1434 C 0.62942 0.29662 0.15109 0.0
H1435 H 0.62036 0.27776 0.10018 0.0
H1436 H 0.60821 0.32421 0.12481 0.0
C1437 C 0.64706 0.26608 0.15722 0.0
C1438 C 0.96777 0.39794 0.40788 0.0
C1439 C 0.93728 0.38029 0.40177 0.0
H1440 H 0.01835 0.41633 0.39929 0.0
C1441 C 0.93265 0.37282 0.38078 0.0
H1442 H 0.97241 0.4042 0.42388 0.0
C1443 C 0.95914 0.38011 0.36658 0.0
C1444 C 0.99097 0.39464 0.37313 0.0
H1445 H 0.90951 0.3594 0.37548 0.0
H1446 H 0.95559 0.37201 0.35076 0.0
C1447 C -0.00566 0.40484 0.39376 0.0
C1448 C 0.85068 0.27501 0.8887 0.0
C1449 C 0.836 0.24328 0.88205 0.0
H1450 H 0.87092 0.32501 0.88001 0.0
C1451 C 0.82486 0.24052 0.86155 0.0
H1452 H 0.85944 0.27813 0.90443 0.0
C1453 C 0.83106 0.26761 0.8476 0.0
C1454 C 0.84898 0.29795 0.85374 0.0
H1455 H 0.81316 0.21662 0.85596 0.0
H1456 H 0.82406 0.26351 0.83165 0.0
C1457 C 0.85729 0.30198 0.87467 0.0
C1458 C 0.96756 0.5842 0.0963 0.0
C1459 C 0.93731 0.60228 0.10235 0.0
H1460 H 0.01811 0.56565 0.1049 0.0
C1461 C 0.93296 0.61023 0.1233 0.0
H1462 H 0.97187 0.57743 0.08034 0.0
C1463 C 0.95953 0.60306 0.13747 0.0
C1464 C -0.00882 0.58819 0.13095 0.0
H1465 H 0.90998 0.62396 0.12856 0.0
H1466 H 0.95619 0.61155 0.15324 0.0
C1467 C -0.00575 0.57746 0.11039 0.0
C1468 C 0.62894 0.70943 0.3892 0.0
C1469 C 0.64345 0.74132 0.38267 0.0
H1470 H 0.60872 0.6595 0.3803 0.0
C1471 C 0.65415 0.74452 0.36212 0.0
H1472 H 0.62047 0.706 0.40496 0.0
C1473 C 0.64776 0.7177 0.34805 0.0
C1474 C 0.63013 0.68712 0.3541 0.0
H1475 H 0.66565 0.76857 0.35662 0.0
H1476 H 0.65438 0.72222 0.33209 0.0
C1477 C 0.62216 0.68269 0.37504 0.0
C1478 C 0.5514 0.37385 0.62416 0.0
C1479 C 0.54696 0.38215 0.60326 0.0
H1480 H 0.52827 0.372 0.6541 0.0
C1481 C 0.51668 0.40032 0.59732 0.0
H1482 H 0.5744 0.36004 0.62934 0.0
C1483 C 0.49004 0.4068 0.61146 0.0
C1484 C 0.49318 0.39571 0.63195 0.0
H1485 H 0.51228 0.40732 0.58139 0.0
H1486 H 0.46614 0.41868 0.60604 0.0
C1487 C 0.52487 0.38076 0.63839 0.0
C1488 C 0.15411 0.23822 0.36042 0.0
C1489 C 0.14404 0.24142 0.38107 0.0
H1490 H 0.15346 0.26052 0.33038 0.0
C1491 C 0.12972 0.27331 0.38774 0.0
H1492 H 0.16544 0.21416 0.3548 0.0
C1493 C 0.12254 0.30006 0.37364 0.0
C1494 C 0.1299 0.29563 0.35262 0.0
H1495 H 0.12173 0.27674 0.40358 0.0
H1496 H 0.10929 0.32326 0.37902 0.0
C1497 C 0.14732 0.26503 0.3464 0.0
C1498 C 0.49375 0.40634 0.11024 0.0
C1499 C 0.49056 0.39589 0.13085 0.0
H1500 H 0.4715 0.40607 0.08016 0.0
C1501 C 0.45884 0.38117 0.1374 0.0
H1502 H 0.51767 0.41801 0.10473 0.0
C1503 C 0.4323 0.37391 0.12322 0.0
C1504 C 0.43675 0.38162 0.10224 0.0
H1505 H 0.45542 0.37288 0.15319 0.0
H1506 H 0.40926 0.36032 0.12851 0.0
C1507 C 0.46709 0.39952 0.09614 0.0
C1508 C 0.35186 0.70885 0.889 0.0
C1509 C 0.33769 0.74084 0.88236 0.0
H1510 H 0.37168 0.65869 0.88025 0.0
C1511 C 0.32716 0.74403 0.86178 0.0
H1512 H 0.36019 0.70543 0.90479 0.0
C1513 C 0.33341 0.7171 0.84777 0.0
C1514 C 0.35071 0.68638 0.85394 0.0
H1515 H 0.31592 0.76816 0.85619 0.0
H1516 H 0.327 0.72162 0.83179 0.0
C1517 C 0.35849 0.68198 0.87491 0.0
C1518 C 0.05015 0.61235 0.6242 0.0
C1519 C 0.04534 0.60464 0.60324 0.0
H1520 H 0.02748 0.6135 0.65427 0.0
C1521 C 0.0148 0.58691 0.5973 0.0
H1522 H 0.07333 0.62584 0.62937 0.0
C1523 C 0.98837 0.58016 0.61153 0.0
C1524 C -0.00808 0.5906 0.63211 0.0
H1525 H 0.01003 0.58047 0.58134 0.0
H1526 H 0.96431 0.5686 0.60612 0.0
C1527 C 0.02379 0.60522 0.6385 0.0
C1528 C 0.12261 0.68325 0.13 0.0
C1529 C 0.13042 0.68762 0.15097 0.0
H1530 H 0.12111 0.70666 0.1001 0.0
C1531 C 0.148 0.71818 0.15711 0.0
H1532 H 0.10922 0.66007 0.12468 0.0
C1533 C 0.15448 0.74505 0.14307 0.0
C1534 C 0.14391 0.74192 0.12249 0.0
H1535 H 0.15451 0.72264 0.17309 0.0
H1536 H 0.16593 0.76909 0.14863 0.0
C1537 C 0.12947 0.71004 0.11588 0.0
C1538 C 0.02059 0.38178 0.8675 0.0
C1539 C 0.98892 0.39636 0.87422 0.0
H1540 H 0.07039 0.36112 0.8761 0.0
C1541 C 0.98604 0.40678 0.89484 0.0
H1542 H 0.02379 0.37354 0.85168 0.0
C1543 C 0.01296 0.40005 0.9088 0.0
C1544 C 0.04326 0.38228 0.90253 0.0
H1545 H 0.96217 0.41836 0.90049 0.0
H1546 H 0.0088 0.40658 0.9248 0.0
C1547 C 0.04739 0.37462 0.88152 0.0
C1548 C 0.35424 0.27397 0.61633 0.0
C1549 C 0.33961 0.24209 0.6228 0.0
H1550 H 0.37506 0.32359 0.62536 0.0
C1551 C 0.32934 0.23865 0.64341 0.0
H1552 H 0.36241 0.27757 0.60054 0.0
C1553 C 0.33624 0.26519 0.65758 0.0
C1554 C 0.35399 0.29571 0.65156 0.0
H1555 H 0.31776 0.21459 0.64887 0.0
H1556 H 0.32988 0.2605 0.67356 0.0
C1557 C 0.36155 0.30042 0.63059 0.0
C1558 C 0.46702 0.5838 0.40836 0.0
C1559 C 0.43669 0.60166 0.40219 0.0
H1560 H 0.51773 0.56551 0.39993 0.0
C1561 C 0.43241 0.6095 0.38121 0.0
H1562 H 0.4713 0.57715 0.42434 0.0
C1563 C 0.4591 0.60244 0.36712 0.0
C1564 C 0.4908 0.58777 0.37376 0.0
H1565 H 0.40938 0.62307 0.37586 0.0
H1566 H 0.45579 0.61083 0.35133 0.0
C1567 C 0.49382 0.57716 0.39435 0.0
C1568 C 0.50111 0.25726 0.22611 0.0
C1569 C 0.50971 0.27345 0.20741 0.0
H1570 H 0.47355 0.21506 0.24063 0.0
C1571 C 0.49844 0.25876 0.18883 0.0
H1572 H 0.50995 0.26809 0.24058 0.0
C1573 C 0.47936 0.22807 0.18883 0.0
C1574 C 0.47032 0.21199 0.20742 0.0
H1575 H 0.50529 0.27041 0.17419 0.0
H1576 H 0.47096 0.21736 0.17422 0.0
C1577 C 0.48075 0.22697 0.22613 0.0
C1578 C 0.97663 0.25054 0.4394 0.0
C1579 C 0.96137 0.26055 0.45805 0.0
H1580 H 0.01822 0.22376 0.42463 0.0
C1581 C 0.97689 0.25068 0.47672 0.0
H1582 H 0.96549 0.25843 0.4248 0.0
C1583 C 0.00701 0.23011 0.47662 0.0
C1584 C 0.02246 0.22074 0.45786 0.0
H1585 H 0.96561 0.25858 0.49125 0.0
H1586 H 0.01835 0.22183 0.49108 0.0
C1587 C 0.00713 0.23125 0.43931 0.0
C1588 C 0.98363 0.72859 0.68942 0.0
C1589 C 0.9731 0.71388 0.70815 0.0
H1590 H 0.01066 0.76989 0.67445 0.0
C1591 C 0.98243 0.73003 0.72673 0.0
H1592 H 0.97618 0.71696 0.67488 0.0
C1593 C 0.00288 0.76026 0.72648 0.0
C1594 C 0.01268 0.7752 0.70764 0.0
H1595 H 0.97415 0.71919 0.74131 0.0
H1596 H 0.01071 0.77212 0.74088 0.0
C1597 C 0.0028 0.7592 0.68917 0.0
C1598 C 0.50594 0.73048 0.93988 0.0
C1599 C 0.52161 0.72055 0.95845 0.0
H1600 H 0.46421 0.75742 0.92534 0.0
C1601 C 0.50658 0.73064 0.9772 0.0
H1602 H 0.51669 0.72242 0.92523 0.0
C1603 C 0.47661 0.75142 0.97726 0.0
C1604 C 0.46079 0.76078 0.95858 0.0
H1605 H 0.51819 0.7228 0.99167 0.0
H1606 H 0.46568 0.7599 0.99177 0.0
C1607 C 0.47558 0.74997 0.93995 0.0
C1608 C 0.4817 0.75689 0.2786 0.0
C1609 C 0.47188 0.7724 0.29727 0.0
H1610 H 0.51034 0.71531 0.26423 0.0
C1611 C 0.48177 0.75695 0.31592 0.0
H1612 H 0.47389 0.7683 0.26407 0.0
C1613 C 0.50087 0.72629 0.316 0.0
C1614 C 0.51133 0.71098 0.29744 0.0
H1615 H 0.4739 0.76808 0.33052 0.0
H1616 H 0.50828 0.71506 0.33067 0.0
C1617 C 0.50208 0.72662 0.27869 0.0
C1618 C 0.50724 0.25335 0.52751 0.0
C1619 C 0.52183 0.26397 0.54628 0.0
H1620 H 0.46666 0.22369 0.51288 0.0
C1621 C 0.50559 0.25485 0.5648 0.0
H1622 H 0.5193 0.2606 0.51307 0.0
C1623 C 0.47516 0.23546 0.56466 0.0
C1624 C 0.46087 0.22395 0.54602 0.0
H1625 H 0.51603 0.26338 0.57945 0.0
H1626 H 0.4634 0.22856 0.57925 0.0
C1627 C 0.47719 0.23268 0.52739 0.0
C1628 C -0.00246 0.22849 0.81538 0.0
C1629 C 0.00804 0.21379 0.79666 0.0
H1630 H 0.97027 0.26962 0.83035 0.0
C1631 C -0.00163 0.22976 0.77807 0.0
H1632 H 0.00522 0.217 0.82993 0.0
C1633 C 0.97764 0.2598 0.77832 0.0
C1634 C 0.96788 0.27474 0.79716 0.0
H1635 H 0.00662 0.21892 0.76349 0.0
H1636 H 0.96959 0.27152 0.76392 0.0
C1637 C 0.97808 0.25892 0.81563 0.0
C1638 C 0.97627 0.73166 0.02723 0.0
C1639 C 0.96039 0.7226 0.04593 0.0
H1640 H 0.01794 0.75998 0.01273 0.0
C1641 C 0.97511 0.73376 0.06452 0.0
H1642 H 0.9654 0.72291 0.01274 0.0
C1643 C 0.00549 0.75323 0.06453 0.0
C1644 C 0.02124 0.76279 0.04594 0.0
H1645 H 0.9637 0.72657 0.07916 0.0
H1646 H 0.01621 0.76154 0.07916 0.0
C1647 C 0.00626 0.75241 0.02722 0.0
C1648 C 0.47886 0.72541 0.77849 0.0
C1649 C 0.46848 0.71067 0.79728 0.0
H1650 H 0.50811 0.76627 0.76383 0.0
C1651 C 0.47762 0.72697 0.81579 0.0
H1652 H 0.47159 0.71333 0.76406 0.0
C1653 C 0.49678 0.7576 0.81564 0.0
C1654 C 0.50804 0.77203 0.79698 0.0
H1655 H 0.46927 0.71643 0.83045 0.0
H1656 H 0.50372 0.76939 0.83022 0.0
C1657 C 0.49929 0.75565 0.77836 0.0
C1658 C 0.97532 0.75366 0.5278 0.0
C1659 C 0.96062 0.76431 0.54653 0.0
H1660 H 0.01604 0.72406 0.51331 0.0
C1661 C 0.97677 0.75524 0.5651 0.0
H1662 H 0.96333 0.76086 0.51332 0.0
C1663 C 0.00725 0.73592 0.56506 0.0
C1664 C 0.02167 0.72444 0.54646 0.0
H1665 H 0.96626 0.76378 0.57972 0.0
H1666 H 0.01896 0.72907 0.57968 0.0
C1667 C 0.00541 0.73306 0.52779 0.0
C1668 C 0.98006 0.22673 0.27791 0.0
C1669 C 0.97051 0.21127 0.29665 0.0
H1670 H 0.0086 0.2682 0.26334 0.0
C1671 C 0.98069 0.22673 0.31523 0.0
H1672 H 0.97202 0.21529 0.26344 0.0
C1673 C -0.00012 0.25734 0.31517 0.0
C1674 C 0.01012 0.27258 0.29654 0.0
H1675 H 0.97304 0.21563 0.32988 0.0
H1676 H 0.00755 0.26856 0.32979 0.0
C1677 C 0.00053 0.25694 0.27785 0.0
C1678 C 0.50545 0.23155 0.0646 0.0
C1679 C 0.52087 0.22147 0.04601 0.0
H1680 H 0.46384 0.25852 0.07921 0.0
C1681 C 0.50556 0.23133 0.02728 0.0
H1682 H 0.51643 0.22366 0.07924 0.0
C1683 C 0.47553 0.25203 0.02726 0.0
C1684 C 0.45994 0.26153 0.04596 0.0
H1685 H 0.51698 0.22338 0.0128 0.0
H1686 H 0.46437 0.26034 0.01276 0.0
C1687 C 0.47503 0.25095 0.06457 0.0
C1688 C 0.48489 0.25706 0.68907 0.0
C1689 C 0.47404 0.27165 0.70775 0.0
H1690 H 0.51228 0.21591 0.67419 0.0
C1691 C 0.48327 0.2555 0.72637 0.0
H1692 H 0.47756 0.26869 0.6745 0.0
C1693 C 0.50386 0.22537 0.72619 0.0
C1694 C 0.51392 0.21052 0.70738 0.0
H1695 H 0.47476 0.26626 0.74092 0.0
H1696 H 0.51155 0.21349 0.74062 0.0
C1697 C 0.50421 0.22654 0.68888 0.0
C1698 C 0.50526 0.75144 0.44015 0.0
C1699 C 0.52038 0.76172 0.4588 0.0
H1700 H 0.46391 0.72427 0.42537 0.0
C1701 C 0.50483 0.75194 0.47746 0.0
H1702 H 0.51642 0.75924 0.42555 0.0
C1703 C 0.47484 0.73118 0.47736 0.0
C1704 C 0.45954 0.72153 0.45859 0.0
H1705 H 0.51602 0.76004 0.49199 0.0
H1706 H 0.46348 0.72297 0.49182 0.0
C1707 C 0.47488 0.73197 0.44004 0.0
C1708 C 0.98137 0.75715 0.22593 0.0
C1709 C 0.97155 0.77253 0.2072 0.0
H1710 H 0.01012 0.71575 0.24044 0.0
C1711 C 0.98158 0.75706 0.18861 0.0
H1712 H 0.97345 0.76859 0.24042 0.0
C1713 C 0.00082 0.72648 0.18863 0.0
C1714 C 0.01127 0.71129 0.20724 0.0
H1715 H 0.97372 0.76809 0.17397 0.0
H1716 H 0.00832 0.71523 0.174 0.0
C1717 C 0.00188 0.72697 0.22594 0.0
C1718 C 0.97567 0.23161 0.93956 0.0
C1719 C 0.9601 0.22153 0.95811 0.0
H1720 H 0.01737 0.2586 0.92504 0.0
C1721 C 0.9753 0.23137 0.97687 0.0
H1722 H 0.96478 0.22374 0.92489 0.0
C1723 C 0.00534 0.25205 0.97696 0.0
C1724 C 0.02105 0.2616 0.9583 0.0
H1725 H 0.96378 0.2234 0.99133 0.0
H1726 H 0.01639 0.26036 0.99149 0.0
C1727 C 0.00609 0.25102 0.93965 0.0
C1728 C 0.42658 0.97775 0.25906 0.0
C1729 C 0.39504 0.96308 0.26574 0.0
H1730 H 0.4511 0.01744 0.24075 0.0
C1731 C 0.36353 0.97746 0.25885 0.0
H1732 H 0.4512 0.96684 0.26401 0.0
C1733 C 0.36348 0.00583 0.24537 0.0
C1734 C 0.39493 0.02057 0.23868 0.0
H1735 H 0.3389 0.96659 0.26384 0.0
H1736 H 0.33881 0.01642 0.24024 0.0
C1737 C 0.42652 0.00625 0.24556 0.0
C1738 C 0.25594 0.17693 0.50857 0.0
C1739 C 0.27098 0.14544 0.51514 0.0
H1740 H 0.21589 0.20121 0.49045 0.0
C1741 C 0.25686 0.11375 0.50826 0.0
H1742 H 0.26663 0.20169 0.51351 0.0
C1743 C 0.22836 0.11348 0.49492 0.0
C1744 C 0.21328 0.1449 0.48832 0.0
H1745 H 0.26804 0.08915 0.51315 0.0
H1746 H 0.21795 0.08868 0.4898 0.0
C1747 C 0.22734 0.17666 0.49519 0.0
C1748 C 0.05623 0.98012 0.74468 0.0
C1749 C 0.08803 0.96647 0.73772 0.0
H1750 H 0.03092 0.01906 0.76314 0.0
C1751 C 0.11925 0.9819 0.74427 0.0
H1752 H 0.03183 0.9684 0.73998 0.0
C1753 C 0.11875 0.01031 0.75769 0.0
C1754 C 0.08701 0.02403 0.76467 0.0
H1755 H 0.14407 0.9718 0.73907 0.0
H1756 H 0.1432 0.02173 0.76258 0.0
C1757 C 0.05572 0.00867 0.75812 0.0
C1758 C 0.2274 0.87029 0.00918 0.0
C1759 C 0.21247 0.83881 0.01579 0.0
H1760 H 0.2671 0.89475 0.99105 0.0
C1761 C 0.22684 0.80709 0.00911 0.0
H1762 H 0.21675 0.89505 0.01416 0.0
C1763 C 0.2556 0.80692 0.99588 0.0
C1764 C 0.27047 0.83846 0.98928 0.0
H1765 H 0.21551 0.7825 0.01386 0.0
H1766 H 0.26652 0.78219 0.99107 0.0
C1767 C 0.25606 0.87012 0.99598 0.0
C1768 C 0.61882 0.97541 0.75819 0.0
C1769 C 0.58708 0.96172 0.76518 0.0
H1770 H 0.64419 0.01379 0.73946 0.0
C1771 C 0.5558 0.97703 0.75855 0.0
H1772 H 0.64326 0.96404 0.76312 0.0
C1773 C 0.55633 0.00549 0.74502 0.0
C1774 C 0.58815 0.01911 0.73804 0.0
H1775 H 0.53099 0.96667 0.76358 0.0
H1776 H 0.53195 0.01718 0.74026 0.0
C1777 C 0.61935 0.00373 0.74467 0.0
C1778 C 0.72591 0.80734 0.49647 0.0
C1779 C 0.71096 0.83883 0.48983 0.0
H1780 H 0.76604 0.78307 0.51452 0.0
C1781 C 0.72524 0.87053 0.49656 0.0
H1782 H 0.71507 0.78257 0.49164 0.0
C1783 C 0.75386 0.87081 0.50981 0.0
C1784 C 0.76889 0.83939 0.51644 0.0
H1785 H 0.71414 0.89513 0.49161 0.0
H1786 H 0.76443 0.89561 0.5148 0.0
C1787 C 0.75463 0.80762 0.50975 0.0
C1788 C 0.863 0.00579 0.25868 0.0
C1789 C 0.89447 0.02043 0.26543 0.0
H1790 H 0.83836 0.96668 0.24015 0.0
C1791 C 0.92604 0.00607 0.25858 0.0
H1792 H 0.83834 0.01642 0.2638 0.0
C1793 C 0.92605 0.9776 0.24508 0.0
C1794 C 0.89449 0.96303 0.23834 0.0
H1795 H 0.95064 0.01718 0.26343 0.0
H1796 H 0.95066 0.96665 0.24016 0.0
C1797 C 0.863 0.97748 0.24518 0.0
C1798 C 0.75509 0.17684 0.99551 0.0
C1799 C 0.7695 0.14519 0.98875 0.0
H1800 H 0.71549 0.20155 0.01371 0.0
C1801 C 0.7548 0.11365 0.99543 0.0
H1802 H 0.76624 0.20149 0.99072 0.0
C1803 C 0.72634 0.11369 0.00877 0.0
C1804 C 0.71183 0.14526 0.01552 0.0
H1805 H 0.76548 0.08894 0.99038 0.0
H1806 H 0.71547 0.08899 0.01373 0.0
C1807 C 0.72648 0.17688 0.00886 0.0
C1808 C 0.86269 0.5097 0.74672 0.0
C1809 C 0.8945 0.52345 0.73988 0.0
H1810 H 0.83715 0.47118 0.76526 0.0
C1811 C 0.92572 0.50808 0.74656 0.0
H1812 H 0.8383 0.52112 0.74174 0.0
C1813 C 0.92506 0.47952 0.76001 0.0
C1814 C 0.89317 0.46586 0.76685 0.0
H1815 H 0.95057 0.51848 0.74164 0.0
H1816 H 0.94939 0.4678 0.76482 0.0
C1817 C 0.86203 0.48128 0.76016 0.0
C1818 C 0.75555 0.67625 0.00865 0.0
C1819 C 0.77035 0.64469 0.01529 0.0
H1820 H 0.71561 0.70071 0.99053 0.0
C1821 C 0.75599 0.61306 0.00851 0.0
H1822 H 0.76644 0.70097 0.01352 0.0
C1823 C 0.72746 0.61291 0.9952 0.0
C1824 C 0.71259 0.6444 0.98855 0.0
H1825 H 0.76699 0.58841 0.01346 0.0
H1826 H 0.71684 0.58816 0.99016 0.0
C1827 C 0.72691 0.67611 0.99531 0.0
C1828 C 0.61919 0.50586 0.25936 0.0
C1829 C 0.58777 0.52055 0.26613 0.0
H1830 H 0.64368 0.46683 0.24072 0.0
C1831 C 0.55615 0.50636 0.25921 0.0
H1832 H 0.64388 0.51635 0.26452 0.0
C1833 C 0.55603 0.47801 0.24561 0.0
C1834 C 0.58753 0.46338 0.23884 0.0
H1835 H 0.53159 0.51751 0.26407 0.0
H1836 H 0.53138 0.46719 0.24064 0.0
C1837 C 0.61907 0.47766 0.24576 0.0
C1838 C 0.75669 0.36975 0.49584 0.0
C1839 C 0.77086 0.33806 0.48903 0.0
H1840 H 0.71781 0.39482 0.51428 0.0
C1841 C 0.75587 0.30656 0.49564 0.0
H1842 H 0.7678 0.39435 0.49091 0.0
C1843 C 0.72727 0.30683 0.50898 0.0
C1844 C 0.71318 0.3386 0.5158 0.0
H1845 H 0.76661 0.2818 0.49074 0.0
H1846 H 0.71585 0.28228 0.51373 0.0
C1847 C 0.72822 0.37001 0.50918 0.0
C1848 C 0.11931 0.50603 0.24534 0.0
C1849 C 0.08788 0.52072 0.23855 0.0
H1850 H 0.14381 0.46676 0.26384 0.0
C1851 C 0.05626 0.50638 0.24534 0.0
H1852 H 0.144 0.51665 0.24027 0.0
C1853 C 0.05616 0.47785 0.25882 0.0
C1854 C 0.08766 0.4632 0.26558 0.0
H1855 H 0.0317 0.51753 0.24046 0.0
H1856 H 0.03151 0.46691 0.26369 0.0
C1857 C 0.1192 0.47763 0.2588 0.0
C1858 C 0.25467 0.37049 0.0089 0.0
C1859 C 0.26938 0.33888 0.01548 0.0
H1860 H 0.21514 0.39531 0.99078 0.0
C1861 C 0.25484 0.3073 0.00869 0.0
H1862 H 0.26546 0.39515 0.01396 0.0
C1863 C 0.22614 0.30739 0.99539 0.0
C1864 C 0.21147 0.33906 0.98884 0.0
H1865 H 0.266 0.28261 0.01341 0.0
H1866 H 0.21508 0.28276 0.99049 0.0
C1867 C 0.22604 0.37058 0.99565 0.0
C1868 C 0.363 0.50364 0.76 0.0
C1869 C 0.39419 0.51908 0.76661 0.0
H1870 H 0.33913 0.46388 0.74161 0.0
C1871 C 0.42602 0.50547 0.75965 0.0
H1872 H 0.33816 0.51368 0.7652 0.0
C1873 C 0.42658 0.47697 0.74617 0.0
C1874 C 0.39532 0.4616 0.73957 0.0
H1875 H 0.45039 0.51719 0.76439 0.0
H1876 H 0.4514 0.46661 0.74117 0.0
C1877 C 0.36356 0.47529 0.74653 0.0
C1878 C 0.22609 0.67717 0.50864 0.0
C1879 C 0.21129 0.64571 0.51544 0.0
H1880 H 0.26597 0.70139 0.49041 0.0
C1881 C 0.22559 0.61398 0.50877 0.0
H1882 H 0.21525 0.70196 0.51343 0.0
C1883 C 0.25406 0.61366 0.49543 0.0
C1884 C 0.26894 0.64506 0.48865 0.0
H1885 H 0.21462 0.5894 0.51385 0.0
H1886 H 0.26464 0.58884 0.49048 0.0
C1887 C 0.25468 0.67685 0.49529 0.0
loop_
_geom_bond_atom_site_label_1
_geom_bond_atom_site_label_2
_geom_bond_distance
_geom_bond_site_symmetry_2
_ccdc_geom_bond_type
Co0 O3 1.970 . S
Co0 N17 1.989 . S
Co0 O25 1.967 . S
Co0 O32 1.920 . S
Co1 O4 1.966 . S
Co1 N10 2.022 . S
Co1 N18 1.993 . S
Co1 O26 1.941 . S
C2 O3 1.258 . S
C2 O4 1.263 . S
O3 Co0 1.970 . S
O3 C2 1.258 . S
O4 Co1 1.966 . S
O4 C2 1.263 . S
C5 O6 1.235 . S
C5 O32 1.289 . S
O6 C5 1.235 . S
C7 C9 1.400 . S
C7 N10 1.351 . S
C7 C12 1.501 . S
C8 C9 1.387 . S
C8 N11 1.341 . S
C9 C7 1.400 . S
C9 C8 1.387 . S
N10 Co1 2.022 . S
N10 C7 1.351 . S
N10 N11 1.365 . S
N11 C8 1.341 . S
N11 N10 1.365 . S
N11 H31 0.862 . S
C12 C7 1.501 . S
C12 H13 0.961 . S
C12 H14 0.961 . S
C12 H15 0.960 . S
H13 C12 0.961 . S
H14 C12 0.961 . S
H15 C12 0.960 . S
C16 N17 1.342 . S
C16 C20 1.401 . S
C16 C21 1.499 . S
N17 Co0 1.989 . S
N17 C16 1.342 . S
N17 N18 1.388 . S
N18 Co1 1.993 . S
N18 N17 1.388 . S
N18 C19 1.346 . S
C19 N18 1.346 . S
C19 C20 1.396 . S
C19 C29 1.510 . S
C20 C16 1.401 . S
C20 C19 1.396 . S
C21 C16 1.499 . S
C21 H22 0.959 . S
C21 H23 0.960 . S
C21 H24 0.961 . S
H22 C21 0.959 . S
H23 C21 0.960 . S
H24 C21 0.961 . S
O25 Co0 1.967 . S
O25 C33 1.258 . S
O26 Co1 1.941 . S
O26 C33 1.266 . S
H27 C29 0.959 . S
H28 C29 0.961 . S
C29 C19 1.510 . S
C29 H27 0.959 . S
C29 H28 0.961 . S
C29 H30 0.960 . S
H30 C29 0.960 . S
H31 N11 0.862 . S
O32 Co0 1.920 . S
O32 C5 1.289 . S
C33 O25 1.258 . S
C33 O26 1.266 . S
Co34 O37 1.970 . S
Co34 N51 1.989 . S
Co34 O59 1.967 . S
Co34 O66 1.920 . S
Co35 O38 1.966 . S
Co35 N44 2.022 . S
Co35 N52 1.993 . S
Co35 O60 1.941 . S
C36 O37 1.258 . S
C36 O38 1.263 . S
O37 Co34 1.970 . S
O37 C36 1.258 . S
O38 Co35 1.966 . S
O38 C36 1.263 . S
C39 O40 1.235 . S
C39 O66 1.289 . S
O40 C39 1.235 . S
C41 C43 1.400 . S
C41 N44 1.351 . S
C41 C46 1.501 . S
C42 C43 1.387 . S
C42 N45 1.341 . S
C43 C41 1.400 . S
C43 C42 1.387 . S
N44 Co35 2.022 . S
N44 C41 1.351 . S
N44 N45 1.365 . S
N45 C42 1.341 . S
N45 N44 1.365 . S
N45 H65 0.862 . S
C46 C41 1.501 . S
C46 H47 0.961 . S
C46 H48 0.961 . S
C46 H49 0.960 . S
H47 C46 0.961 . S
H48 C46 0.961 . S
H49 C46 0.960 . S
C50 N51 1.342 . S
C50 C54 1.401 . S
C50 C55 1.499 . S
N51 Co34 1.989 . S
N51 C50 1.342 . S
N51 N52 1.388 . S
N52 Co35 1.993 . S
N52 N51 1.388 . S
N52 C53 1.346 . S
C53 N52 1.346 . S
C53 C54 1.396 . S
C53 C63 1.510 . S
C54 C50 1.401 . S
C54 C53 1.396 . S
C55 C50 1.499 . S
C55 H56 0.959 . S
C55 H57 0.960 . S
C55 H58 0.961 . S
H56 C55 0.959 . S
H57 C55 0.960 . S
H58 C55 0.961 . S
O59 Co34 1.967 . S
O59 C67 1.258 . S
O60 Co35 1.941 . S
O60 C67 1.266 . S
H61 C63 0.959 . S
H62 C63 0.961 . S
C63 C53 1.510 . S
C63 H61 0.959 . S
C63 H62 0.961 . S
C63 H64 0.960 . S
H64 C63 0.960 . S
H65 N45 0.862 . S
O66 Co34 1.920 . S
O66 C39 1.289 . S
C67 O59 1.258 . S
C67 O60 1.266 . S
Co68 O71 1.970 . S
Co68 N85 1.989 . S
Co68 O93 1.967 . S
Co68 O100 1.920 . S
Co69 O72 1.966 . S
Co69 N78 2.022 . S
Co69 N86 1.993 . S
Co69 O94 1.941 . S
C70 O71 1.258 . S
C70 O72 1.263 . S
O71 Co68 1.970 . S
O71 C70 1.258 . S
O72 Co69 1.966 . S
O72 C70 1.263 . S
C73 O74 1.235 . S
C73 O100 1.289 . S
O74 C73 1.235 . S
C75 C77 1.400 . S
C75 N78 1.351 . S
C75 C80 1.501 . S
C76 C77 1.387 . S
C76 N79 1.341 . S
C77 C75 1.400 . S
C77 C76 1.387 . S
N78 Co69 2.022 . S
N78 C75 1.351 . S
N78 N79 1.365 . S
N79 C76 1.341 . S
N79 N78 1.365 . S
N79 H99 0.862 . S
C80 C75 1.501 . S
C80 H81 0.961 . S
C80 H82 0.961 . S
C80 H83 0.960 . S
H81 C80 0.961 . S
H82 C80 0.961 . S
H83 C80 0.960 . S
C84 N85 1.342 . S
C84 C88 1.401 . S
C84 C89 1.499 . S
N85 Co68 1.989 . S
N85 C84 1.342 . S
N85 N86 1.388 . S
N86 Co69 1.993 . S
N86 N85 1.388 . S
N86 C87 1.346 . S
C87 N86 1.346 . S
C87 C88 1.396 . S
C87 C97 1.510 . S
C88 C84 1.401 . S
C88 C87 1.396 . S
C89 C84 1.499 . S
C89 H90 0.959 . S
C89 H91 0.960 . S
C89 H92 0.961 . S
H90 C89 0.959 . S
H91 C89 0.960 . S
H92 C89 0.961 . S
O93 Co68 1.967 . S
O93 C101 1.258 . S
O94 Co69 1.941 . S
O94 C101 1.266 . S
H95 C97 0.959 . S
H96 C97 0.961 . S
C97 C87 1.510 . S
C97 H95 0.959 . S
C97 H96 0.961 . S
C97 H98 0.960 . S
H98 C97 0.960 . S
H99 N79 0.862 . S
O100 Co68 1.920 . S
O100 C73 1.289 . S
C101 O93 1.258 . S
C101 O94 1.266 . S
Co102 O105 1.970 . S
Co102 N119 1.989 . S
Co102 O127 1.967 . S
Co102 O134 1.920 . S
Co103 O106 1.966 . S
Co103 N112 2.022 . S
Co103 N120 1.993 . S
Co103 O128 1.941 . S
C104 O105 1.258 . S
C104 O106 1.263 . S
O105 Co102 1.970 . S
O105 C104 1.258 . S
O106 Co103 1.966 . S
O106 C104 1.263 . S
C107 O108 1.235 . S
C107 O134 1.289 . S
O108 C107 1.235 . S
C109 C111 1.400 . S
C109 N112 1.351 . S
C109 C114 1.501 . S
C110 C111 1.387 1_554 S
C110 N113 1.341 1_554 S
C111 C109 1.400 . S
C111 C110 1.387 1_556 S
N112 Co103 2.022 . S
N112 C109 1.351 . S
N112 N113 1.365 . S
N113 C110 1.341 1_556 S
N113 N112 1.365 . S
N113 H133 0.878 . S
C114 C109 1.501 . S
C114 H115 0.961 . S
C114 H116 0.961 . S
C114 H117 0.960 . S
H115 C114 0.961 . S
H116 C114 0.961 . S
H117 C114 0.960 . S
C118 N119 1.342 . S
C118 C122 1.401 . S
C118 C123 1.499 . S
N119 Co102 1.989 . S
N119 C118 1.342 . S
N119 N120 1.388 . S
N120 Co103 1.993 . S
N120 N119 1.388 . S
N120 C121 1.346 . S
C121 N120 1.346 . S
C121 C122 1.396 . S
C121 C131 1.510 . S
C122 C118 1.401 . S
C122 C121 1.396 . S
C123 C118 1.499 . S
C123 H124 0.959 . S
C123 H125 0.960 . S
C123 H126 0.961 . S
H124 C123 0.959 . S
H125 C123 0.960 . S
H126 C123 0.961 . S
O127 Co102 1.967 . S
O127 C135 1.258 . S
O128 Co103 1.941 . S
O128 C135 1.266 . S
H129 C131 0.959 . S
H130 C131 0.961 . S
C131 C121 1.510 . S
C131 H129 0.959 . S
C131 H130 0.961 . S
C131 H132 0.960 . S
H132 C131 0.960 . S
H133 N113 0.878 . S
O134 Co102 1.920 . S
O134 C107 1.289 . S
C135 O127 1.258 . S
C135 O128 1.266 . S
Co136 O139 1.970 . S
Co136 N153 1.989 . S
Co136 O161 1.967 . S
Co136 O168 1.920 . S
Co137 O140 1.966 . S
Co137 N146 2.022 . S
Co137 N154 1.993 . S
Co137 O162 1.941 . S
C138 O139 1.258 . S
C138 O140 1.263 . S
O139 Co136 1.970 . S
O139 C138 1.258 . S
O140 Co137 1.966 . S
O140 C138 1.263 . S
C141 O142 1.235 . S
C141 O168 1.289 . S
O142 C141 1.235 . S
C143 C145 1.400 . S
C143 N146 1.351 . S
C143 C148 1.501 . S
C144 C145 1.387 . S
C144 N147 1.341 . S
C145 C143 1.400 . S
C145 C144 1.387 . S
N146 Co137 2.022 . S
N146 C143 1.351 . S
N146 N147 1.365 . S
N147 C144 1.341 . S
N147 N146 1.365 . S
N147 H167 0.862 . S
C148 C143 1.501 . S
C148 H149 0.961 . S
C148 H150 0.961 . S
C148 H151 0.960 . S
H149 C148 0.961 . S
H150 C148 0.961 . S
H151 C148 0.960 . S
C152 N153 1.342 . S
C152 C156 1.401 . S
C152 C157 1.499 . S
N153 Co136 1.989 . S
N153 C152 1.342 . S
N153 N154 1.388 . S
N154 Co137 1.993 . S
N154 N153 1.388 . S
N154 C155 1.346 . S
C155 N154 1.346 . S
C155 C156 1.396 . S
C155 C165 1.510 . S
C156 C152 1.401 . S
C156 C155 1.396 . S
C157 C152 1.499 . S
C157 H158 0.959 . S
C157 H159 0.960 . S
C157 H160 0.961 . S
H158 C157 0.959 . S
H159 C157 0.960 . S
H160 C157 0.961 . S
O161 Co136 1.967 . S
O161 C169 1.258 . S
O162 Co137 1.941 . S
O162 C169 1.266 . S
H163 C165 0.959 . S
H164 C165 0.961 . S
C165 C155 1.510 . S
C165 H163 0.959 . S
C165 H164 0.961 . S
C165 H166 0.960 . S
H166 C165 0.960 . S
H167 N147 0.862 . S
O168 Co136 1.920 . S
O168 C141 1.289 . S
C169 O161 1.258 . S
C169 O162 1.266 . S
Co170 O173 1.970 . S
Co170 N187 1.989 . S
Co170 O195 1.967 . S
Co170 O202 1.920 . S
Co171 O174 1.966 . S
Co171 N180 2.022 . S
Co171 N188 1.993 . S
Co171 O196 1.941 . S
C172 O173 1.258 . S
C172 O174 1.263 . S
O173 Co170 1.970 . S
O173 C172 1.258 . S
O174 Co171 1.966 . S
O174 C172 1.263 . S
C175 O176 1.235 . S
C175 O202 1.289 . S
O176 C175 1.235 . S
C177 C179 1.400 . S
C177 N180 1.351 . S
C177 C182 1.501 . S
C178 C179 1.387 . S
C178 N181 1.341 . S
C179 C177 1.400 . S
C179 C178 1.387 . S
N180 Co171 2.022 . S
N180 C177 1.351 . S
N180 N181 1.365 . S
N181 C178 1.341 . S
N181 N180 1.365 . S
N181 H201 0.862 . S
C182 C177 1.501 . S
C182 H183 0.961 . S
C182 H184 0.961 . S
C182 H185 0.960 . S
H183 C182 0.961 . S
H184 C182 0.961 . S
H185 C182 0.960 . S
C186 N187 1.342 . S
C186 C190 1.401 . S
C186 C191 1.499 . S
N187 Co170 1.989 . S
N187 C186 1.342 . S
N187 N188 1.388 . S
N188 Co171 1.993 . S
N188 N187 1.388 . S
N188 C189 1.346 . S
C189 N188 1.346 . S
C189 C190 1.396 . S
C189 C199 1.510 . S
C190 C186 1.401 . S
C190 C189 1.396 . S
C191 C186 1.499 . S
C191 H192 0.959 . S
C191 H193 0.960 . S
C191 H194 0.961 . S
H192 C191 0.959 . S
H193 C191 0.960 . S
H194 C191 0.961 . S
O195 Co170 1.967 . S
O195 C203 1.258 . S
O196 Co171 1.941 . S
O196 C203 1.266 . S
H197 C199 0.959 . S
H198 C199 0.961 . S
C199 C189 1.510 . S
C199 H197 0.959 . S
C199 H198 0.961 . S
C199 H200 0.960 . S
H200 C199 0.960 . S
H201 N181 0.862 . S
O202 Co170 1.920 . S
O202 C175 1.289 . S
C203 O195 1.258 . S
C203 O196 1.266 . S
Co204 O207 1.970 . S
Co204 N221 1.989 . S
Co204 O229 1.967 . S
Co204 O236 1.920 . S
Co205 O208 1.966 . S
Co205 N214 2.022 . S
Co205 N222 1.993 . S
Co205 O230 1.941 . S
C206 O207 1.258 . S
C206 O208 1.263 . S
O207 Co204 1.970 . S
O207 C206 1.258 . S
O208 Co205 1.966 . S
O208 C206 1.263 . S
C209 O210 1.235 . S
C209 O236 1.289 . S
O210 C209 1.235 . S
C211 C213 1.400 . S
C211 N214 1.351 . S
C211 C216 1.501 . S
C212 C213 1.387 . S
C212 N215 1.341 . S
C213 C211 1.400 . S
C213 C212 1.387 . S
N214 Co205 2.022 . S
N214 C211 1.351 . S
N214 N215 1.365 . S
N215 C212 1.341 . S
N215 N214 1.365 . S
N215 H235 0.862 . S
C216 C211 1.501 . S
C216 H217 0.961 . S
C216 H218 0.961 . S
C216 H219 0.960 . S
H217 C216 0.961 . S
H218 C216 0.961 . S
H219 C216 0.960 . S
C220 N221 1.342 . S
C220 C224 1.401 . S
C220 C225 1.499 . S
N221 Co204 1.989 . S
N221 C220 1.342 . S
N221 N222 1.388 . S
N222 Co205 1.993 . S
N222 N221 1.388 . S
N222 C223 1.346 . S
C223 N222 1.346 . S
C223 C224 1.396 . S
C223 C233 1.510 . S
C224 C220 1.401 . S
C224 C223 1.396 . S
C225 C220 1.499 . S
C225 H226 0.959 . S
C225 H227 0.960 . S
C225 H228 0.961 . S
H226 C225 0.959 . S
H227 C225 0.960 . S
H228 C225 0.961 . S
O229 Co204 1.967 . S
O229 C237 1.258 . S
O230 Co205 1.941 . S
O230 C237 1.266 . S
H231 C233 0.959 . S
H232 C233 0.961 . S
C233 C223 1.510 . S
C233 H231 0.959 . S
C233 H232 0.961 . S
C233 H234 0.960 . S
H234 C233 0.960 . S
H235 N215 0.862 . S
O236 Co204 1.920 . S
O236 C209 1.289 . S
C237 O229 1.258 . S
C237 O230 1.266 . S
Co238 O241 1.970 . S
Co238 N255 1.989 . S
Co238 O263 1.967 . S
Co238 O270 1.920 . S
Co239 O242 1.966 . S
Co239 N248 2.022 . S
Co239 N256 1.993 . S
Co239 O264 1.941 . S
C240 O241 1.258 . S
C240 O242 1.263 . S
O241 Co238 1.970 . S
O241 C240 1.258 . S
O242 Co239 1.966 . S
O242 C240 1.263 . S
C243 O244 1.235 . S
C243 O270 1.289 . S
O244 C243 1.235 . S
C245 C247 1.400 . S
C245 N248 1.351 . S
C245 C250 1.501 . S
C246 C247 1.387 1_556 S
C246 N249 1.341 1_556 S
C247 C245 1.400 . S
C247 C246 1.387 1_554 S
N248 Co239 2.022 . S
N248 C245 1.351 . S
N248 N249 1.365 . S
N249 C246 1.341 1_554 S
N249 N248 1.365 . S
N249 H269 0.878 . S
C250 C245 1.501 . S
C250 H251 0.961 . S
C250 H252 0.961 . S
C250 H253 0.960 . S
H251 C250 0.961 . S
H252 C250 0.961 . S
H253 C250 0.960 . S
C254 N255 1.342 . S
C254 C258 1.401 . S
C254 C259 1.499 . S
N255 Co238 1.989 . S
N255 C254 1.342 . S
N255 N256 1.388 . S
N256 Co239 1.993 . S
N256 N255 1.388 . S
N256 C257 1.346 . S
C257 N256 1.346 . S
C257 C258 1.396 . S
C257 C267 1.510 . S
C258 C254 1.401 . S
C258 C257 1.396 . S
C259 C254 1.499 . S
C259 H260 0.959 . S
C259 H261 0.960 . S
C259 H262 0.961 . S
H260 C259 0.959 . S
H261 C259 0.960 . S
H262 C259 0.961 . S
O263 Co238 1.967 . S
O263 C271 1.258 . S
O264 Co239 1.941 . S
O264 C271 1.266 . S
H265 C267 0.959 . S
H266 C267 0.961 . S
C267 C257 1.510 . S
C267 H265 0.959 . S
C267 H266 0.961 . S
C267 H268 0.960 . S
H268 C267 0.960 . S
H269 N249 0.878 . S
O270 Co238 1.920 . S
O270 C243 1.289 . S
C271 O263 1.258 . S
C271 O264 1.266 . S
Co272 O275 1.970 . S
Co272 N289 1.989 . S
Co272 O297 1.967 . S
Co272 O304 1.920 . S
Co273 O276 1.966 . S
Co273 N282 2.022 . S
Co273 N290 1.993 . S
Co273 O298 1.941 . S
C274 O275 1.258 . S
C274 O276 1.263 . S
O275 Co272 1.970 . S
O275 C274 1.258 . S
O276 Co273 1.966 . S
O276 C274 1.263 . S
C277 O278 1.235 . S
C277 O304 1.289 . S
O278 C277 1.235 . S
C279 C281 1.400 . S
C279 N282 1.351 . S
C279 C284 1.501 . S
C280 C281 1.387 . S
C280 N283 1.341 . S
C281 C279 1.400 . S
C281 C280 1.387 . S
N282 Co273 2.022 . S
N282 C279 1.351 . S
N282 N283 1.365 . S
N283 C280 1.341 . S
N283 N282 1.365 . S
N283 H303 0.862 . S
C284 C279 1.501 . S
C284 H285 0.961 . S
C284 H286 0.961 . S
C284 H287 0.960 . S
H285 C284 0.961 . S
H286 C284 0.961 . S
H287 C284 0.960 . S
C288 N289 1.342 . S
C288 C292 1.401 . S
C288 C293 1.499 . S
N289 Co272 1.989 . S
N289 C288 1.342 . S
N289 N290 1.388 . S
N290 Co273 1.993 . S
N290 N289 1.388 . S
N290 C291 1.346 . S
C291 N290 1.346 . S
C291 C292 1.396 . S
C291 C301 1.510 . S
C292 C288 1.401 . S
C292 C291 1.396 . S
C293 C288 1.499 . S
C293 H294 0.959 . S
C293 H295 0.960 . S
C293 H296 0.961 . S
H294 C293 0.959 . S
H295 C293 0.960 . S
H296 C293 0.961 . S
O297 Co272 1.967 . S
O297 C305 1.258 . S
O298 Co273 1.941 . S
O298 C305 1.266 . S
H299 C301 0.959 . S
H300 C301 0.961 . S
C301 C291 1.510 . S
C301 H299 0.959 . S
C301 H300 0.961 . S
C301 H302 0.960 . S
H302 C301 0.960 . S
H303 N283 0.862 . S
O304 Co272 1.920 . S
O304 C277 1.289 . S
C305 O297 1.258 . S
C305 O298 1.266 . S
Co306 O309 1.970 . S
Co306 N323 1.989 . S
Co306 O331 1.967 . S
Co306 O338 1.920 . S
Co307 O310 1.966 . S
Co307 N316 2.022 . S
Co307 N324 1.993 . S
Co307 O332 1.941 . S
C308 O309 1.258 . S
C308 O310 1.263 . S
O309 Co306 1.970 . S
O309 C308 1.258 . S
O310 Co307 1.966 . S
O310 C308 1.263 . S
C311 O312 1.235 . S
C311 O338 1.289 . S
O312 C311 1.235 . S
C313 C315 1.400 . S
C313 N316 1.351 . S
C313 C318 1.501 . S
C314 C315 1.387 . S
C314 N317 1.341 . S
C315 C313 1.400 . S
C315 C314 1.387 . S
N316 Co307 2.022 . S
N316 C313 1.351 . S
N316 N317 1.365 . S
N317 C314 1.341 . S
N317 N316 1.365 . S
N317 H337 0.862 . S
C318 C313 1.501 . S
C318 H319 0.961 . S
C318 H320 0.961 . S
C318 H321 0.960 . S
H319 C318 0.961 . S
H320 C318 0.961 . S
H321 C318 0.960 . S
C322 N323 1.342 . S
C322 C326 1.401 . S
C322 C327 1.499 . S
N323 Co306 1.989 . S
N323 C322 1.342 . S
N323 N324 1.388 . S
N324 Co307 1.993 . S
N324 N323 1.388 . S
N324 C325 1.346 . S
C325 N324 1.346 . S
C325 C326 1.396 . S
C325 C335 1.510 . S
C326 C322 1.401 . S
C326 C325 1.396 . S
C327 C322 1.499 . S
C327 H328 0.959 . S
C327 H329 0.960 . S
C327 H330 0.961 . S
H328 C327 0.959 . S
H329 C327 0.960 . S
H330 C327 0.961 . S
O331 Co306 1.967 . S
O331 C339 1.258 . S
O332 Co307 1.941 . S
O332 C339 1.266 . S
H333 C335 0.959 . S
H334 C335 0.961 . S
C335 C325 1.510 . S
C335 H333 0.959 . S
C335 H334 0.961 . S
C335 H336 0.960 . S
H336 C335 0.960 . S
H337 N317 0.862 . S
O338 Co306 1.920 . S
O338 C311 1.289 . S
C339 O331 1.258 . S
C339 O332 1.266 . S
Co340 O343 1.970 . S
Co340 N357 1.989 . S
Co340 O365 1.967 . S
Co340 O372 1.920 . S
Co341 O344 1.966 . S
Co341 N350 2.022 . S
Co341 N358 1.993 . S
Co341 O366 1.941 . S
C342 O343 1.258 . S
C342 O344 1.263 . S
O343 Co340 1.970 . S
O343 C342 1.258 . S
O344 Co341 1.966 . S
O344 C342 1.263 . S
C345 O346 1.235 . S
C345 O372 1.289 . S
O346 C345 1.235 . S
C347 C349 1.400 . S
C347 N350 1.351 . S
C347 C352 1.501 . S
C348 C349 1.387 . S
C348 N351 1.341 . S
C349 C347 1.400 . S
C349 C348 1.387 . S
N350 Co341 2.022 . S
N350 C347 1.351 . S
N350 N351 1.365 . S
N351 C348 1.341 . S
N351 N350 1.365 . S
N351 H371 0.862 . S
C352 C347 1.501 . S
C352 H353 0.961 . S
C352 H354 0.961 . S
C352 H355 0.960 . S
H353 C352 0.961 . S
H354 C352 0.961 . S
H355 C352 0.960 . S
C356 N357 1.342 . S
C356 C360 1.401 . S
C356 C361 1.499 . S
N357 Co340 1.989 . S
N357 C356 1.342 . S
N357 N358 1.388 . S
N358 Co341 1.993 . S
N358 N357 1.388 . S
N358 C359 1.346 . S
C359 N358 1.346 . S
C359 C360 1.396 . S
C359 C369 1.510 . S
C360 C356 1.401 . S
C360 C359 1.396 . S
C361 C356 1.499 . S
C361 H362 0.959 . S
C361 H363 0.960 . S
C361 H364 0.961 . S
H362 C361 0.959 . S
H363 C361 0.960 . S
H364 C361 0.961 . S
O365 Co340 1.967 . S
O365 C373 1.258 . S
O366 Co341 1.941 . S
O366 C373 1.266 . S
H367 C369 0.959 . S
H368 C369 0.961 . S
C369 C359 1.510 . S
C369 H367 0.959 . S
C369 H368 0.961 . S
C369 H370 0.960 . S
H370 C369 0.960 . S
H371 N351 0.862 . S
O372 Co340 1.920 . S
O372 C345 1.289 . S
C373 O365 1.258 . S
C373 O366 1.266 . S
Co374 O377 1.970 . S
Co374 N391 1.989 . S
Co374 O399 1.967 . S
Co374 O406 1.920 . S
Co375 O378 1.966 . S
Co375 N384 2.022 . S
Co375 N392 1.993 . S
Co375 O400 1.941 . S
C376 O377 1.258 . S
C376 O378 1.263 . S
O377 Co374 1.970 . S
O377 C376 1.258 . S
O378 Co375 1.966 . S
O378 C376 1.263 . S
C379 O380 1.235 . S
C379 O406 1.289 . S
O380 C379 1.235 . S
C381 C383 1.400 . S
C381 N384 1.351 . S
C381 C386 1.501 . S
C382 C383 1.387 1_556 S
C382 N385 1.341 1_556 S
C383 C381 1.400 . S
C383 C382 1.387 1_554 S
N384 Co375 2.022 . S
N384 C381 1.351 . S
N384 N385 1.365 . S
N385 C382 1.341 1_554 S
N385 N384 1.365 . S
N385 H405 0.878 . S
C386 C381 1.501 . S
C386 H387 0.961 . S
C386 H388 0.961 . S
C386 H389 0.960 . S
H387 C386 0.961 . S
H388 C386 0.961 . S
H389 C386 0.960 . S
C390 N391 1.342 . S
C390 C394 1.401 . S
C390 C395 1.499 . S
N391 Co374 1.989 . S
N391 C390 1.342 . S
N391 N392 1.388 . S
N392 Co375 1.993 . S
N392 N391 1.388 . S
N392 C393 1.346 . S
C393 N392 1.346 . S
C393 C394 1.396 . S
C393 C403 1.510 . S
C394 C390 1.401 . S
C394 C393 1.396 . S
C395 C390 1.499 . S
C395 H396 0.959 . S
C395 H397 0.960 . S
C395 H398 0.961 . S
H396 C395 0.959 . S
H397 C395 0.960 . S
H398 C395 0.961 . S
O399 Co374 1.967 . S
O399 C407 1.258 . S
O400 Co375 1.941 . S
O400 C407 1.266 . S
H401 C403 0.959 . S
H402 C403 0.961 . S
C403 C393 1.510 . S
C403 H401 0.959 . S
C403 H402 0.961 . S
C403 H404 0.960 . S
H404 C403 0.960 . S
H405 N385 0.878 . S
O406 Co374 1.920 . S
O406 C379 1.289 . S
C407 O399 1.258 . S
C407 O400 1.266 . S
Co408 O411 1.970 . S
Co408 N425 1.989 . S
Co408 O433 1.967 . S
Co408 O440 1.920 . S
Co409 O412 1.966 . S
Co409 N418 2.022 . S
Co409 N426 1.993 . S
Co409 O434 1.941 . S
C410 O411 1.258 . S
C410 O412 1.263 . S
O411 Co408 1.970 . S
O411 C410 1.258 . S
O412 Co409 1.966 . S
O412 C410 1.263 . S
C413 O414 1.235 . S
C413 O440 1.289 . S
O414 C413 1.235 . S
C415 C417 1.400 . S
C415 N418 1.351 . S
C415 C420 1.501 . S
C416 C417 1.387 . S
C416 N419 1.341 . S
C417 C415 1.400 . S
C417 C416 1.387 . S
N418 Co409 2.022 . S
N418 C415 1.351 . S
N418 N419 1.365 . S
N419 C416 1.341 . S
N419 N418 1.365 . S
N419 H439 0.862 . S
C420 C415 1.501 . S
C420 H421 0.961 . S
C420 H422 0.961 . S
C420 H423 0.960 . S
H421 C420 0.961 . S
H422 C420 0.961 . S
H423 C420 0.960 . S
C424 N425 1.342 . S
C424 C428 1.401 . S
C424 C429 1.499 . S
N425 Co408 1.989 . S
N425 C424 1.342 . S
N425 N426 1.388 . S
N426 Co409 1.993 . S
N426 N425 1.388 . S
N426 C427 1.346 . S
C427 N426 1.346 . S
C427 C428 1.396 . S
C427 C437 1.510 . S
C428 C424 1.401 . S
C428 C427 1.396 . S
C429 C424 1.499 . S
C429 H430 0.959 . S
C429 H431 0.960 . S
C429 H432 0.961 . S
H430 C429 0.959 . S
H431 C429 0.960 . S
H432 C429 0.961 . S
O433 Co408 1.967 . S
O433 C441 1.258 . S
O434 Co409 1.941 . S
O434 C441 1.266 . S
H435 C437 0.959 . S
H436 C437 0.961 . S
C437 C427 1.510 . S
C437 H435 0.959 . S
C437 H436 0.961 . S
C437 H438 0.960 . S
H438 C437 0.960 . S
H439 N419 0.862 . S
O440 Co408 1.920 . S
O440 C413 1.289 . S
C441 O433 1.258 . S
C441 O434 1.266 . S
Co442 O445 1.970 . S
Co442 N459 1.989 . S
Co442 O467 1.967 . S
Co442 O474 1.920 . S
Co443 O446 1.966 . S
Co443 N452 2.022 . S
Co443 N460 1.993 . S
Co443 O468 1.941 . S
C444 O445 1.258 . S
C444 O446 1.263 . S
O445 Co442 1.970 . S
O445 C444 1.258 . S
O446 Co443 1.966 . S
O446 C444 1.263 . S
C447 O448 1.235 . S
C447 O474 1.289 . S
O448 C447 1.235 . S
C449 C451 1.400 . S
C449 N452 1.351 . S
C449 C454 1.501 . S
C450 C451 1.387 . S
C450 N453 1.341 . S
C451 C449 1.400 . S
C451 C450 1.387 . S
N452 Co443 2.022 . S
N452 C449 1.351 . S
N452 N453 1.365 . S
N453 C450 1.341 . S
N453 N452 1.365 . S
N453 H473 0.862 . S
C454 C449 1.501 . S
C454 H455 0.961 . S
C454 H456 0.961 . S
C454 H457 0.960 . S
H455 C454 0.961 . S
H456 C454 0.961 . S
H457 C454 0.960 . S
C458 N459 1.342 . S
C458 C462 1.401 . S
C458 C463 1.499 . S
N459 Co442 1.989 . S
N459 C458 1.342 . S
N459 N460 1.388 . S
N460 Co443 1.993 . S
N460 N459 1.388 . S
N460 C461 1.346 . S
C461 N460 1.346 . S
C461 C462 1.396 . S
C461 C471 1.510 . S
C462 C458 1.401 . S
C462 C461 1.396 . S
C463 C458 1.499 . S
C463 H464 0.959 . S
C463 H465 0.960 . S
C463 H466 0.961 . S
H464 C463 0.959 . S
H465 C463 0.960 . S
H466 C463 0.961 . S
O467 Co442 1.967 . S
O467 C475 1.258 . S
O468 Co443 1.941 . S
O468 C475 1.266 . S
H469 C471 0.959 . S
H470 C471 0.961 . S
C471 C461 1.510 . S
C471 H469 0.959 . S
C471 H470 0.961 . S
C471 H472 0.960 . S
H472 C471 0.960 . S
H473 N453 0.862 . S
O474 Co442 1.920 . S
O474 C447 1.289 . S
C475 O467 1.258 . S
C475 O468 1.266 . S
Co476 O479 1.970 . S
Co476 N493 1.989 . S
Co476 O501 1.967 . S
Co476 O508 1.920 . S
Co477 O480 1.966 . S
Co477 N486 2.022 . S
Co477 N494 1.993 . S
Co477 O502 1.941 . S
C478 O479 1.258 . S
C478 O480 1.263 . S
O479 Co476 1.970 . S
O479 C478 1.258 . S
O480 Co477 1.966 . S
O480 C478 1.263 . S
C481 O482 1.235 . S
C481 O508 1.289 . S
O482 C481 1.235 . S
C483 C485 1.400 . S
C483 N486 1.351 . S
C483 C488 1.501 . S
C484 C485 1.387 . S
C484 N487 1.341 . S
C485 C483 1.400 . S
C485 C484 1.387 . S
N486 Co477 2.022 . S
N486 C483 1.351 . S
N486 N487 1.365 . S
N487 C484 1.341 . S
N487 N486 1.365 . S
N487 H507 0.862 . S
C488 C483 1.501 . S
C488 H489 0.961 . S
C488 H490 0.961 . S
C488 H491 0.960 . S
H489 C488 0.961 . S
H490 C488 0.961 . S
H491 C488 0.960 . S
C492 N493 1.342 . S
C492 C496 1.401 . S
C492 C497 1.499 . S
N493 Co476 1.989 . S
N493 C492 1.342 . S
N493 N494 1.388 . S
N494 Co477 1.993 . S
N494 N493 1.388 . S
N494 C495 1.346 . S
C495 N494 1.346 . S
C495 C496 1.396 . S
C495 C505 1.510 . S
C496 C492 1.401 . S
C496 C495 1.396 . S
C497 C492 1.499 . S
C497 H498 0.959 . S
C497 H499 0.960 . S
C497 H500 0.961 . S
H498 C497 0.959 . S
H499 C497 0.960 . S
H500 C497 0.961 . S
O501 Co476 1.967 . S
O501 C509 1.258 . S
O502 Co477 1.941 . S
O502 C509 1.266 . S
H503 C505 0.959 . S
H504 C505 0.961 . S
C505 C495 1.510 . S
C505 H503 0.959 . S
C505 H504 0.961 . S
C505 H506 0.960 . S
H506 C505 0.960 . S
H507 N487 0.862 . S
O508 Co476 1.920 . S
O508 C481 1.289 . S
C509 O501 1.258 . S
C509 O502 1.266 . S
Co510 O513 1.970 . S
Co510 N527 1.989 . S
Co510 O535 1.967 . S
Co510 O542 1.920 . S
Co511 O514 1.966 . S
Co511 N520 2.022 . S
Co511 N528 1.993 . S
Co511 O536 1.941 . S
C512 O513 1.258 . S
C512 O514 1.263 . S
O513 Co510 1.970 . S
O513 C512 1.258 . S
O514 Co511 1.966 . S
O514 C512 1.263 . S
C515 O516 1.235 . S
C515 O542 1.289 . S
O516 C515 1.235 . S
C517 C519 1.400 . S
C517 N520 1.351 . S
C517 C522 1.501 . S
C518 C519 1.387 1_554 S
C518 N521 1.341 1_554 S
C519 C517 1.400 . S
C519 C518 1.387 1_556 S
N520 Co511 2.022 . S
N520 C517 1.351 . S
N520 N521 1.365 . S
N521 C518 1.341 1_556 S
N521 N520 1.365 . S
N521 H541 0.878 . S
C522 C517 1.501 . S
C522 H523 0.961 . S
C522 H524 0.961 . S
C522 H525 0.960 . S
H523 C522 0.961 . S
H524 C522 0.961 . S
H525 C522 0.960 . S
C526 N527 1.342 . S
C526 C530 1.401 . S
C526 C531 1.499 . S
N527 Co510 1.989 . S
N527 C526 1.342 . S
N527 N528 1.388 . S
N528 Co511 1.993 . S
N528 N527 1.388 . S
N528 C529 1.346 . S
C529 N528 1.346 . S
C529 C530 1.396 . S
C529 C539 1.510 . S
C530 C526 1.401 . S
C530 C529 1.396 . S
C531 C526 1.499 . S
C531 H532 0.959 . S
C531 H533 0.960 . S
C531 H534 0.961 . S
H532 C531 0.959 . S
H533 C531 0.960 . S
H534 C531 0.961 . S
O535 Co510 1.967 . S
O535 C543 1.258 . S
O536 Co511 1.941 . S
O536 C543 1.266 . S
H537 C539 0.959 . S
H538 C539 0.961 . S
C539 C529 1.510 . S
C539 H537 0.959 . S
C539 H538 0.961 . S
C539 H540 0.960 . S
H540 C539 0.960 . S
H541 N521 0.878 . S
O542 Co510 1.920 . S
O542 C515 1.289 . S
C543 O535 1.258 . S
C543 O536 1.266 . S
Co544 O547 1.970 . S
Co544 N561 1.989 . S
Co544 O569 1.967 . S
Co544 O576 1.920 . S
Co545 O548 1.966 . S
Co545 N554 2.022 . S
Co545 N562 1.993 . S
Co545 O570 1.941 . S
C546 O547 1.258 . S
C546 O548 1.263 . S
O547 Co544 1.970 . S
O547 C546 1.258 . S
O548 Co545 1.966 . S
O548 C546 1.263 . S
C549 O550 1.235 . S
C549 O576 1.289 . S
O550 C549 1.235 . S
C551 C553 1.400 . S
C551 N554 1.351 . S
C551 C556 1.501 . S
C552 C553 1.387 . S
C552 N555 1.341 . S
C553 C551 1.400 . S
C553 C552 1.387 . S
N554 Co545 2.022 . S
N554 C551 1.351 . S
N554 N555 1.365 . S
N555 C552 1.341 . S
N555 N554 1.365 . S
N555 H575 0.862 . S
C556 C551 1.501 . S
C556 H557 0.961 . S
C556 H558 0.961 . S
C556 H559 0.960 . S
H557 C556 0.961 . S
H558 C556 0.961 . S
H559 C556 0.960 . S
C560 N561 1.342 . S
C560 C564 1.401 . S
C560 C565 1.499 . S
N561 Co544 1.989 . S
N561 C560 1.342 . S
N561 N562 1.388 . S
N562 Co545 1.993 . S
N562 N561 1.388 . S
N562 C563 1.346 . S
C563 N562 1.346 . S
C563 C564 1.396 . S
C563 C573 1.510 . S
C564 C560 1.401 . S
C564 C563 1.396 . S
C565 C560 1.499 . S
C565 H566 0.959 . S
C565 H567 0.960 . S
C565 H568 0.961 . S
H566 C565 0.959 . S
H567 C565 0.960 . S
H568 C565 0.961 . S
O569 Co544 1.967 . S
O569 C577 1.258 . S
O570 Co545 1.941 . S
O570 C577 1.266 . S
H571 C573 0.959 . S
H572 C573 0.961 . S
C573 C563 1.510 . S
C573 H571 0.959 . S
C573 H572 0.961 . S
C573 H574 0.960 . S
H574 C573 0.960 . S
H575 N555 0.862 . S
O576 Co544 1.920 . S
O576 C549 1.289 . S
C577 O569 1.258 . S
C577 O570 1.266 . S
Co578 O581 1.970 . S
Co578 N595 1.989 . S
Co578 O603 1.967 . S
Co578 O610 1.920 . S
Co579 O582 1.966 . S
Co579 N588 2.022 . S
Co579 N596 1.993 . S
Co579 O604 1.941 . S
C580 O581 1.258 . S
C580 O582 1.263 . S
O581 Co578 1.970 . S
O581 C580 1.258 . S
O582 Co579 1.966 . S
O582 C580 1.263 . S
C583 O584 1.235 . S
C583 O610 1.289 . S
O584 C583 1.235 . S
C585 C587 1.400 . S
C585 N588 1.351 . S
C585 C590 1.501 . S
C586 C587 1.387 1_554 S
C586 N589 1.341 1_554 S
C587 C585 1.400 . S
C587 C586 1.387 1_556 S
N588 Co579 2.022 . S
N588 C585 1.351 . S
N588 N589 1.365 . S
N589 C586 1.341 1_556 S
N589 N588 1.365 . S
N589 H609 0.878 . S
C590 C585 1.501 . S
C590 H591 0.961 . S
C590 H592 0.961 . S
C590 H593 0.960 . S
H591 C590 0.961 . S
H592 C590 0.961 . S
H593 C590 0.960 . S
C594 N595 1.342 . S
C594 C598 1.401 . S
C594 C599 1.499 . S
N595 Co578 1.989 . S
N595 C594 1.342 . S
N595 N596 1.388 . S
N596 Co579 1.993 . S
N596 N595 1.388 . S
N596 C597 1.346 . S
C597 N596 1.346 . S
C597 C598 1.396 . S
C597 C607 1.510 . S
C598 C594 1.401 . S
C598 C597 1.396 . S
C599 C594 1.499 . S
C599 H600 0.959 . S
C599 H601 0.960 . S
C599 H602 0.961 . S
H600 C599 0.959 . S
H601 C599 0.960 . S
H602 C599 0.961 . S
O603 Co578 1.967 . S
O603 C611 1.258 . S
O604 Co579 1.941 . S
O604 C611 1.266 . S
H605 C607 0.959 . S
H606 C607 0.961 . S
C607 C597 1.510 . S
C607 H605 0.959 . S
C607 H606 0.961 . S
C607 H608 0.960 . S
H608 C607 0.960 . S
H609 N589 0.878 . S
O610 Co578 1.920 . S
O610 C583 1.289 . S
C611 O603 1.258 . S
C611 O604 1.266 . S
Co612 O615 1.970 . S
Co612 N629 1.989 . S
Co612 O637 1.967 . S
Co612 O644 1.920 . S
Co613 O616 1.966 . S
Co613 N622 2.022 . S
Co613 N630 1.993 . S
Co613 O638 1.941 . S
C614 O615 1.258 . S
C614 O616 1.263 . S
O615 Co612 1.970 . S
O615 C614 1.258 . S
O616 Co613 1.966 . S
O616 C614 1.263 . S
C617 O618 1.235 . S
C617 O644 1.289 . S
O618 C617 1.235 . S
C619 C621 1.400 . S
C619 N622 1.351 . S
C619 C624 1.501 . S
C620 C621 1.387 . S
C620 N623 1.341 . S
C621 C619 1.400 . S
C621 C620 1.387 . S
N622 Co613 2.022 . S
N622 C619 1.351 . S
N622 N623 1.365 . S
N623 C620 1.341 . S
N623 N622 1.365 . S
N623 H643 0.862 . S
C624 C619 1.501 . S
C624 H625 0.961 . S
C624 H626 0.961 . S
C624 H627 0.960 . S
H625 C624 0.961 . S
H626 C624 0.961 . S
H627 C624 0.960 . S
C628 N629 1.342 . S
C628 C632 1.401 . S
C628 C633 1.499 . S
N629 Co612 1.989 . S
N629 C628 1.342 . S
N629 N630 1.388 . S
N630 Co613 1.993 . S
N630 N629 1.388 . S
N630 C631 1.346 . S
C631 N630 1.346 . S
C631 C632 1.396 . S
C631 C641 1.510 . S
C632 C628 1.401 . S
C632 C631 1.396 . S
C633 C628 1.499 . S
C633 H634 0.959 . S
C633 H635 0.960 . S
C633 H636 0.961 . S
H634 C633 0.959 . S
H635 C633 0.960 . S
H636 C633 0.961 . S
O637 Co612 1.967 . S
O637 C645 1.258 . S
O638 Co613 1.941 . S
O638 C645 1.266 . S
H639 C641 0.959 . S
H640 C641 0.961 . S
C641 C631 1.510 . S
C641 H639 0.959 . S
C641 H640 0.961 . S
C641 H642 0.960 . S
H642 C641 0.960 . S
H643 N623 0.862 . S
O644 Co612 1.920 . S
O644 C617 1.289 . S
C645 O637 1.258 . S
C645 O638 1.266 . S
Co646 O649 1.970 . S
Co646 N663 1.989 . S
Co646 O671 1.967 . S
Co646 O678 1.920 . S
Co647 O650 1.966 . S
Co647 N656 2.022 . S
Co647 N664 1.993 . S
Co647 O672 1.941 . S
C648 O649 1.258 . S
C648 O650 1.263 . S
O649 Co646 1.970 . S
O649 C648 1.258 . S
O650 Co647 1.966 . S
O650 C648 1.263 . S
C651 O652 1.235 . S
C651 O678 1.289 . S
O652 C651 1.235 . S
C653 C655 1.400 . S
C653 N656 1.351 . S
C653 C658 1.501 . S
C654 C655 1.387 . S
C654 N657 1.341 . S
C655 C653 1.400 . S
C655 C654 1.387 . S
N656 Co647 2.022 . S
N656 C653 1.351 . S
N656 N657 1.365 . S
N657 C654 1.341 . S
N657 N656 1.365 . S
N657 H677 0.862 . S
C658 C653 1.501 . S
C658 H659 0.961 . S
C658 H660 0.961 . S
C658 H661 0.960 . S
H659 C658 0.961 . S
H660 C658 0.961 . S
H661 C658 0.960 . S
C662 N663 1.342 . S
C662 C666 1.401 . S
C662 C667 1.499 . S
N663 Co646 1.989 . S
N663 C662 1.342 . S
N663 N664 1.388 . S
N664 Co647 1.993 . S
N664 N663 1.388 . S
N664 C665 1.346 . S
C665 N664 1.346 . S
C665 C666 1.396 . S
C665 C675 1.510 . S
C666 C662 1.401 . S
C666 C665 1.396 . S
C667 C662 1.499 . S
C667 H668 0.959 . S
C667 H669 0.960 . S
C667 H670 0.961 . S
H668 C667 0.959 . S
H669 C667 0.960 . S
H670 C667 0.961 . S
O671 Co646 1.967 . S
O671 C679 1.258 . S
O672 Co647 1.941 . S
O672 C679 1.266 . S
H673 C675 0.959 . S
H674 C675 0.961 . S
C675 C665 1.510 . S
C675 H673 0.959 . S
C675 H674 0.961 . S
C675 H676 0.960 . S
H676 C675 0.960 . S
H677 N657 0.862 . S
O678 Co646 1.920 . S
O678 C651 1.289 . S
C679 O671 1.258 . S
C679 O672 1.266 . S
Co680 O683 1.970 . S
Co680 N697 1.989 . S
Co680 O705 1.967 . S
Co680 O712 1.920 . S
Co681 O684 1.966 . S
Co681 N690 2.022 . S
Co681 N698 1.993 . S
Co681 O706 1.941 . S
C682 O683 1.258 . S
C682 O684 1.263 . S
O683 Co680 1.970 . S
O683 C682 1.258 . S
O684 Co681 1.966 . S
O684 C682 1.263 . S
C685 O686 1.235 . S
C685 O712 1.289 . S
O686 C685 1.235 . S
C687 C689 1.400 . S
C687 N690 1.351 . S
C687 C692 1.501 . S
C688 C689 1.387 . S
C688 N691 1.341 . S
C689 C687 1.400 . S
C689 C688 1.387 . S
N690 Co681 2.022 . S
N690 C687 1.351 . S
N690 N691 1.365 . S
N691 C688 1.341 . S
N691 N690 1.365 . S
N691 H711 0.862 . S
C692 C687 1.501 . S
C692 H693 0.961 . S
C692 H694 0.961 . S
C692 H695 0.960 . S
H693 C692 0.961 . S
H694 C692 0.961 . S
H695 C692 0.960 . S
C696 N697 1.342 . S
C696 C700 1.401 . S
C696 C701 1.499 . S
N697 Co680 1.989 . S
N697 C696 1.342 . S
N697 N698 1.388 . S
N698 Co681 1.993 . S
N698 N697 1.388 . S
N698 C699 1.346 . S
C699 N698 1.346 . S
C699 C700 1.396 . S
C699 C709 1.510 . S
C700 C696 1.401 . S
C700 C699 1.396 . S
C701 C696 1.499 . S
C701 H702 0.959 . S
C701 H703 0.960 . S
C701 H704 0.961 . S
H702 C701 0.959 . S
H703 C701 0.960 . S
H704 C701 0.961 . S
O705 Co680 1.967 . S
O705 C713 1.258 . S
O706 Co681 1.941 . S
O706 C713 1.266 . S
H707 C709 0.959 . S
H708 C709 0.961 . S
C709 C699 1.510 . S
C709 H707 0.959 . S
C709 H708 0.961 . S
C709 H710 0.960 . S
H710 C709 0.960 . S
H711 N691 0.862 . S
O712 Co680 1.920 . S
O712 C685 1.289 . S
C713 O705 1.258 . S
C713 O706 1.266 . S
Co714 O717 1.970 . S
Co714 N731 1.989 . S
Co714 O739 1.967 . S
Co714 O746 1.920 . S
Co715 O718 1.966 . S
Co715 N724 2.022 . S
Co715 N732 1.993 . S
Co715 O740 1.941 . S
C716 O717 1.258 . S
C716 O718 1.263 . S
O717 Co714 1.970 . S
O717 C716 1.258 . S
O718 Co715 1.966 . S
O718 C716 1.263 . S
C719 O720 1.235 . S
C719 O746 1.289 . S
O720 C719 1.235 . S
C721 C723 1.400 . S
C721 N724 1.351 . S
C721 C726 1.501 . S
C722 C723 1.387 1_556 S
C722 N725 1.341 1_556 S
C723 C721 1.400 . S
C723 C722 1.387 1_554 S
N724 Co715 2.022 . S
N724 C721 1.351 . S
N724 N725 1.365 . S
N725 C722 1.341 1_554 S
N725 N724 1.365 . S
N725 H745 0.878 . S
C726 C721 1.501 . S
C726 H727 0.961 . S
C726 H728 0.961 . S
C726 H729 0.960 . S
H727 C726 0.961 . S
H728 C726 0.961 . S
H729 C726 0.960 . S
C730 N731 1.342 . S
C730 C734 1.401 . S
C730 C735 1.499 . S
N731 Co714 1.989 . S
N731 C730 1.342 . S
N731 N732 1.388 . S
N732 Co715 1.993 . S
N732 N731 1.388 . S
N732 C733 1.346 . S
C733 N732 1.346 . S
C733 C734 1.396 . S
C733 C743 1.510 . S
C734 C730 1.401 . S
C734 C733 1.396 . S
C735 C730 1.499 . S
C735 H736 0.959 . S
C735 H737 0.960 . S
C735 H738 0.961 . S
H736 C735 0.959 . S
H737 C735 0.960 . S
H738 C735 0.961 . S
O739 Co714 1.967 . S
O739 C747 1.258 . S
O740 Co715 1.941 . S
O740 C747 1.266 . S
H741 C743 0.959 . S
H742 C743 0.961 . S
C743 C733 1.510 . S
C743 H741 0.959 . S
C743 H742 0.961 . S
C743 H744 0.960 . S
H744 C743 0.960 . S
H745 N725 0.878 . S
O746 Co714 1.920 . S
O746 C719 1.289 . S
C747 O739 1.258 . S
C747 O740 1.266 . S
Co748 O751 1.970 . S
Co748 N765 1.989 . S
Co748 O773 1.967 . S
Co748 O780 1.920 . S
Co749 O752 1.966 . S
Co749 N758 2.022 . S
Co749 N766 1.993 . S
Co749 O774 1.941 . S
C750 O751 1.258 . S
C750 O752 1.263 . S
O751 Co748 1.970 . S
O751 C750 1.258 . S
O752 Co749 1.966 . S
O752 C750 1.263 . S
C753 O754 1.235 . S
C753 O780 1.289 . S
O754 C753 1.235 . S
C755 C757 1.400 . S
C755 N758 1.351 . S
C755 C760 1.501 . S
C756 C757 1.387 . S
C756 N759 1.341 . S
C757 C755 1.400 . S
C757 C756 1.387 . S
N758 Co749 2.022 . S
N758 C755 1.351 . S
N758 N759 1.365 . S
N759 C756 1.341 . S
N759 N758 1.365 . S
N759 H779 0.862 . S
C760 C755 1.501 . S
C760 H761 0.961 . S
C760 H762 0.961 . S
C760 H763 0.960 . S
H761 C760 0.961 . S
H762 C760 0.961 . S
H763 C760 0.960 . S
C764 N765 1.342 . S
C764 C768 1.401 . S
C764 C769 1.499 . S
N765 Co748 1.989 . S
N765 C764 1.342 . S
N765 N766 1.388 . S
N766 Co749 1.993 . S
N766 N765 1.388 . S
N766 C767 1.346 . S
C767 N766 1.346 . S
C767 C768 1.396 . S
C767 C777 1.510 . S
C768 C764 1.401 . S
C768 C767 1.396 . S
C769 C764 1.499 . S
C769 H770 0.959 . S
C769 H771 0.960 . S
C769 H772 0.961 . S
H770 C769 0.959 . S
H771 C769 0.960 . S
H772 C769 0.961 . S
O773 Co748 1.967 . S
O773 C781 1.258 . S
O774 Co749 1.941 . S
O774 C781 1.266 . S
H775 C777 0.959 . S
H776 C777 0.961 . S
C777 C767 1.510 . S
C777 H775 0.959 . S
C777 H776 0.961 . S
C777 H778 0.960 . S
H778 C777 0.960 . S
H779 N759 0.862 . S
O780 Co748 1.920 . S
O780 C753 1.289 . S
C781 O773 1.258 . S
C781 O774 1.266 . S
Co782 O785 1.970 . S
Co782 N799 1.989 . S
Co782 O807 1.967 . S
Co782 O814 1.920 . S
Co783 O786 1.966 . S
Co783 N792 2.022 . S
Co783 N800 1.993 . S
Co783 O808 1.941 . S
C784 O785 1.258 . S
C784 O786 1.263 . S
O785 Co782 1.970 . S
O785 C784 1.258 . S
O786 Co783 1.966 . S
O786 C784 1.263 . S
C787 O788 1.235 . S
C787 O814 1.289 . S
O788 C787 1.235 . S
C789 C791 1.400 . S
C789 N792 1.351 . S
C789 C794 1.501 . S
C790 C791 1.387 . S
C790 N793 1.341 . S
C791 C789 1.400 . S
C791 C790 1.387 . S
N792 Co783 2.022 . S
N792 C789 1.351 . S
N792 N793 1.365 . S
N793 C790 1.341 . S
N793 N792 1.365 . S
N793 H813 0.862 . S
C794 C789 1.501 . S
C794 H795 0.961 . S
C794 H796 0.961 . S
C794 H797 0.960 . S
H795 C794 0.961 . S
H796 C794 0.961 . S
H797 C794 0.960 . S
C798 N799 1.342 . S
C798 C802 1.401 . S
C798 C803 1.499 . S
N799 Co782 1.989 . S
N799 C798 1.342 . S
N799 N800 1.388 . S
N800 Co783 1.993 . S
N800 N799 1.388 . S
N800 C801 1.346 . S
C801 N800 1.346 . S
C801 C802 1.396 . S
C801 C811 1.510 . S
C802 C798 1.401 . S
C802 C801 1.396 . S
C803 C798 1.499 . S
C803 H804 0.959 . S
C803 H805 0.960 . S
C803 H806 0.961 . S
H804 C803 0.959 . S
H805 C803 0.960 . S
H806 C803 0.961 . S
O807 Co782 1.967 . S
O807 C815 1.258 . S
O808 Co783 1.941 . S
O808 C815 1.266 . S
H809 C811 0.959 . S
H810 C811 0.961 . S
C811 C801 1.510 . S
C811 H809 0.959 . S
C811 H810 0.961 . S
C811 H812 0.960 . S
H812 C811 0.960 . S
H813 N793 0.862 . S
O814 Co782 1.920 . S
O814 C787 1.289 . S
C815 O807 1.258 . S
C815 O808 1.266 . S
Co816 O819 1.970 . S
Co816 N833 1.989 . S
Co816 O841 1.967 . S
Co816 O848 1.920 . S
Co817 O820 1.966 . S
Co817 N826 2.022 . S
Co817 N834 1.993 . S
Co817 O842 1.941 . S
C818 O819 1.258 . S
C818 O820 1.263 . S
O819 Co816 1.970 . S
O819 C818 1.258 . S
O820 Co817 1.966 . S
O820 C818 1.263 . S
C821 O822 1.235 . S
C821 O848 1.289 . S
O822 C821 1.235 . S
C823 C825 1.400 . S
C823 N826 1.351 . S
C823 C828 1.501 . S
C824 C825 1.387 . S
C824 N827 1.341 . S
C825 C823 1.400 . S
C825 C824 1.387 . S
N826 Co817 2.022 . S
N826 C823 1.351 . S
N826 N827 1.365 . S
N827 C824 1.341 . S
N827 N826 1.365 . S
N827 H847 0.862 . S
C828 C823 1.501 . S
C828 H829 0.961 . S
C828 H830 0.961 . S
C828 H831 0.960 . S
H829 C828 0.961 . S
H830 C828 0.961 . S
H831 C828 0.960 . S
C832 N833 1.342 . S
C832 C836 1.401 . S
C832 C837 1.499 . S
N833 Co816 1.989 . S
N833 C832 1.342 . S
N833 N834 1.388 . S
N834 Co817 1.993 . S
N834 N833 1.388 . S
N834 C835 1.346 . S
C835 N834 1.346 . S
C835 C836 1.396 . S
C835 C845 1.510 . S
C836 C832 1.401 . S
C836 C835 1.396 . S
C837 C832 1.499 . S
C837 H838 0.959 . S
C837 H839 0.960 . S
C837 H840 0.961 . S
H838 C837 0.959 . S
H839 C837 0.960 . S
H840 C837 0.961 . S
O841 Co816 1.967 . S
O841 C849 1.258 . S
O842 Co817 1.941 . S
O842 C849 1.266 . S
H843 C845 0.959 . S
H844 C845 0.961 . S
C845 C835 1.510 . S
C845 H843 0.959 . S
C845 H844 0.961 . S
C845 H846 0.960 . S
H846 C845 0.960 . S
H847 N827 0.862 . S
O848 Co816 1.920 . S
O848 C821 1.289 . S
C849 O841 1.258 . S
C849 O842 1.266 . S
Co850 O853 1.970 . S
Co850 N867 1.989 . S
Co850 O875 1.967 . S
Co850 O882 1.920 . S
Co851 O854 1.966 . S
Co851 N860 2.022 . S
Co851 N868 1.993 . S
Co851 O876 1.941 . S
C852 O853 1.258 . S
C852 O854 1.263 . S
O853 Co850 1.970 . S
O853 C852 1.258 . S
O854 Co851 1.966 . S
O854 C852 1.263 . S
C855 O856 1.235 . S
C855 O882 1.289 . S
O856 C855 1.235 . S
C857 C859 1.400 . S
C857 N860 1.351 . S
C857 C862 1.501 . S
C858 C859 1.387 1_556 S
C858 N861 1.341 1_556 S
C859 C857 1.400 . S
C859 C858 1.387 1_554 S
N860 Co851 2.022 . S
N860 C857 1.351 . S
N860 N861 1.365 . S
N861 C858 1.341 1_554 S
N861 N860 1.365 . S
N861 H881 0.878 . S
C862 C857 1.501 . S
C862 H863 0.961 . S
C862 H864 0.961 . S
C862 H865 0.960 . S
H863 C862 0.961 . S
H864 C862 0.961 . S
H865 C862 0.960 . S
C866 N867 1.342 . S
C866 C870 1.401 . S
C866 C871 1.499 . S
N867 Co850 1.989 . S
N867 C866 1.342 . S
N867 N868 1.388 . S
N868 Co851 1.993 . S
N868 N867 1.388 . S
N868 C869 1.346 . S
C869 N868 1.346 . S
C869 C870 1.396 . S
C869 C879 1.510 . S
C870 C866 1.401 . S
C870 C869 1.396 . S
C871 C866 1.499 . S
C871 H872 0.959 . S
C871 H873 0.960 . S
C871 H874 0.961 . S
H872 C871 0.959 . S
H873 C871 0.960 . S
H874 C871 0.961 . S
O875 Co850 1.967 . S
O875 C883 1.258 . S
O876 Co851 1.941 . S
O876 C883 1.266 . S
H877 C879 0.959 . S
H878 C879 0.961 . S
C879 C869 1.510 . S
C879 H877 0.959 . S
C879 H878 0.961 . S
C879 H880 0.960 . S
H880 C879 0.960 . S
H881 N861 0.878 . S
O882 Co850 1.920 . S
O882 C855 1.289 . S
C883 O875 1.258 . S
C883 O876 1.266 . S
Co884 O887 1.970 . S
Co884 N901 1.989 . S
Co884 O909 1.967 . S
Co884 O916 1.920 . S
Co885 O888 1.966 . S
Co885 N894 2.022 . S
Co885 N902 1.993 . S
Co885 O910 1.941 . S
C886 O887 1.258 . S
C886 O888 1.263 . S
O887 Co884 1.970 . S
O887 C886 1.258 . S
O888 Co885 1.966 . S
O888 C886 1.263 . S
C889 O890 1.235 . S
C889 O916 1.289 . S
O890 C889 1.235 . S
C891 C893 1.400 . S
C891 N894 1.351 . S
C891 C896 1.501 . S
C892 C893 1.387 . S
C892 N895 1.341 . S
C893 C891 1.400 . S
C893 C892 1.387 . S
N894 Co885 2.022 . S
N894 C891 1.351 . S
N894 N895 1.365 . S
N895 C892 1.341 . S
N895 N894 1.365 . S
N895 H915 0.862 . S
C896 C891 1.501 . S
C896 H897 0.961 . S
C896 H898 0.961 . S
C896 H899 0.960 . S
H897 C896 0.961 . S
H898 C896 0.961 . S
H899 C896 0.960 . S
C900 N901 1.342 . S
C900 C904 1.401 . S
C900 C905 1.499 . S
N901 Co884 1.989 . S
N901 C900 1.342 . S
N901 N902 1.388 . S
N902 Co885 1.993 . S
N902 N901 1.388 . S
N902 C903 1.346 . S
C903 N902 1.346 . S
C903 C904 1.396 . S
C903 C913 1.510 . S
C904 C900 1.401 . S
C904 C903 1.396 . S
C905 C900 1.499 . S
C905 H906 0.959 . S
C905 H907 0.960 . S
C905 H908 0.961 . S
H906 C905 0.959 . S
H907 C905 0.960 . S
H908 C905 0.961 . S
O909 Co884 1.967 . S
O909 C917 1.258 . S
O910 Co885 1.941 . S
O910 C917 1.266 . S
H911 C913 0.959 . S
H912 C913 0.961 . S
C913 C903 1.510 . S
C913 H911 0.959 . S
C913 H912 0.961 . S
C913 H914 0.960 . S
H914 C913 0.960 . S
H915 N895 0.862 . S
O916 Co884 1.920 . S
O916 C889 1.289 . S
C917 O909 1.258 . S
C917 O910 1.266 . S
Co918 O921 1.970 . S
Co918 N935 1.989 . S
Co918 O943 1.967 . S
Co918 O950 1.920 . S
Co919 O922 1.966 . S
Co919 N928 2.022 . S
Co919 N936 1.993 . S
Co919 O944 1.941 . S
C920 O921 1.258 . S
C920 O922 1.263 . S
O921 Co918 1.970 . S
O921 C920 1.258 . S
O922 Co919 1.966 . S
O922 C920 1.263 . S
C923 O924 1.235 . S
C923 O950 1.289 . S
O924 C923 1.235 . S
C925 C927 1.400 . S
C925 N928 1.351 . S
C925 C930 1.501 . S
C926 C927 1.387 . S
C926 N929 1.341 . S
C927 C925 1.400 . S
C927 C926 1.387 . S
N928 Co919 2.022 . S
N928 C925 1.351 . S
N928 N929 1.365 . S
N929 C926 1.341 . S
N929 N928 1.365 . S
N929 H949 0.862 . S
C930 C925 1.501 . S
C930 H931 0.961 . S
C930 H932 0.961 . S
C930 H933 0.960 . S
H931 C930 0.961 . S
H932 C930 0.961 . S
H933 C930 0.960 . S
C934 N935 1.342 . S
C934 C938 1.401 . S
C934 C939 1.499 . S
N935 Co918 1.989 . S
N935 C934 1.342 . S
N935 N936 1.388 . S
N936 Co919 1.993 . S
N936 N935 1.388 . S
N936 C937 1.346 . S
C937 N936 1.346 . S
C937 C938 1.396 . S
C937 C947 1.510 . S
C938 C934 1.401 . S
C938 C937 1.396 . S
C939 C934 1.499 . S
C939 H940 0.959 . S
C939 H941 0.960 . S
C939 H942 0.961 . S
H940 C939 0.959 . S
H941 C939 0.960 . S
H942 C939 0.961 . S
O943 Co918 1.967 . S
O943 C951 1.258 . S
O944 Co919 1.941 . S
O944 C951 1.266 . S
H945 C947 0.959 . S
H946 C947 0.961 . S
C947 C937 1.510 . S
C947 H945 0.959 . S
C947 H946 0.961 . S
C947 H948 0.960 . S
H948 C947 0.960 . S
H949 N929 0.862 . S
O950 Co918 1.920 . S
O950 C923 1.289 . S
C951 O943 1.258 . S
C951 O944 1.266 . S
Co952 O955 1.970 . S
Co952 N969 1.989 . S
Co952 O977 1.967 . S
Co952 O984 1.920 . S
Co953 O956 1.966 . S
Co953 N962 2.022 . S
Co953 N970 1.993 . S
Co953 O978 1.941 . S
C954 O955 1.258 . S
C954 O956 1.263 . S
O955 Co952 1.970 . S
O955 C954 1.258 . S
O956 Co953 1.966 . S
O956 C954 1.263 . S
C957 O958 1.235 . S
C957 O984 1.289 . S
O958 C957 1.235 . S
C959 C961 1.400 . S
C959 N962 1.351 . S
C959 C964 1.501 . S
C960 C961 1.387 . S
C960 N963 1.341 . S
C961 C959 1.400 . S
C961 C960 1.387 . S
N962 Co953 2.022 . S
N962 C959 1.351 . S
N962 N963 1.365 . S
N963 C960 1.341 . S
N963 N962 1.365 . S
N963 H983 0.862 . S
C964 C959 1.501 . S
C964 H965 0.961 . S
C964 H966 0.961 . S
C964 H967 0.960 . S
H965 C964 0.961 . S
H966 C964 0.961 . S
H967 C964 0.960 . S
C968 N969 1.342 . S
C968 C972 1.401 . S
C968 C973 1.499 . S
N969 Co952 1.989 . S
N969 C968 1.342 . S
N969 N970 1.388 . S
N970 Co953 1.993 . S
N970 N969 1.388 . S
N970 C971 1.346 . S
C971 N970 1.346 . S
C971 C972 1.396 . S
C971 C981 1.510 . S
C972 C968 1.401 . S
C972 C971 1.396 . S
C973 C968 1.499 . S
C973 H974 0.959 . S
C973 H975 0.960 . S
C973 H976 0.961 . S
H974 C973 0.959 . S
H975 C973 0.960 . S
H976 C973 0.961 . S
O977 Co952 1.967 . S
O977 C985 1.258 . S
O978 Co953 1.941 . S
O978 C985 1.266 . S
H979 C981 0.959 . S
H980 C981 0.961 . S
C981 C971 1.510 . S
C981 H979 0.959 . S
C981 H980 0.961 . S
C981 H982 0.960 . S
H982 C981 0.960 . S
H983 N963 0.862 . S
O984 Co952 1.920 . S
O984 C957 1.289 . S
C985 O977 1.258 . S
C985 O978 1.266 . S
Co986 O989 1.970 . S
Co986 N1003 1.989 . S
Co986 O1011 1.967 . S
Co986 O1018 1.920 . S
Co987 O990 1.966 . S
Co987 N996 2.022 . S
Co987 N1004 1.993 . S
Co987 O1012 1.941 . S
C988 O989 1.258 . S
C988 O990 1.263 . S
O989 Co986 1.970 . S
O989 C988 1.258 . S
O990 Co987 1.966 . S
O990 C988 1.263 . S
C991 O992 1.235 . S
C991 O1018 1.289 . S
O992 C991 1.235 . S
C993 C995 1.400 . S
C993 N996 1.351 . S
C993 C998 1.501 . S
C994 C995 1.387 1_554 S
C994 N997 1.341 1_554 S
C995 C993 1.400 . S
C995 C994 1.387 1_556 S
N996 Co987 2.022 . S
N996 C993 1.351 . S
N996 N997 1.365 . S
N997 C994 1.341 1_556 S
N997 N996 1.365 . S
N997 H1017 0.878 . S
C998 C993 1.501 . S
C998 H999 0.961 . S
C998 H1000 0.961 . S
C998 H1001 0.960 . S
H999 C998 0.961 . S
H1000 C998 0.961 . S
H1001 C998 0.960 . S
C1002 N1003 1.342 . S
C1002 C1006 1.401 . S
C1002 C1007 1.499 . S
N1003 Co986 1.989 . S
N1003 C1002 1.342 . S
N1003 N1004 1.388 . S
N1004 Co987 1.993 . S
N1004 N1003 1.388 . S
N1004 C1005 1.346 . S
C1005 N1004 1.346 . S
C1005 C1006 1.396 . S
C1005 C1015 1.510 . S
C1006 C1002 1.401 . S
C1006 C1005 1.396 . S
C1007 C1002 1.499 . S
C1007 H1008 0.959 . S
C1007 H1009 0.960 . S
C1007 H1010 0.961 . S
H1008 C1007 0.959 . S
H1009 C1007 0.960 . S
H1010 C1007 0.961 . S
O1011 Co986 1.967 . S
O1011 C1019 1.258 . S
O1012 Co987 1.941 . S
O1012 C1019 1.266 . S
H1013 C1015 0.959 . S
H1014 C1015 0.961 . S
C1015 C1005 1.510 . S
C1015 H1013 0.959 . S
C1015 H1014 0.961 . S
C1015 H1016 0.960 . S
H1016 C1015 0.960 . S
H1017 N997 0.878 . S
O1018 Co986 1.920 . S
O1018 C991 1.289 . S
C1019 O1011 1.258 . S
C1019 O1012 1.266 . S
Co1020 O1023 1.970 . S
Co1020 N1037 1.989 . S
Co1020 O1045 1.967 . S
Co1020 O1052 1.920 . S
Co1021 O1024 1.966 . S
Co1021 N1030 2.022 . S
Co1021 N1038 1.993 . S
Co1021 O1046 1.941 . S
C1022 O1023 1.258 . S
C1022 O1024 1.263 . S
O1023 Co1020 1.970 . S
O1023 C1022 1.258 . S
O1024 Co1021 1.966 . S
O1024 C1022 1.263 . S
C1025 O1026 1.235 . S
C1025 O1052 1.289 . S
O1026 C1025 1.235 . S
C1027 C1029 1.400 . S
C1027 N1030 1.351 . S
C1027 C1032 1.501 . S
C1028 C1029 1.387 . S
C1028 N1031 1.341 . S
C1029 C1027 1.400 . S
C1029 C1028 1.387 . S
N1030 Co1021 2.022 . S
N1030 C1027 1.351 . S
N1030 N1031 1.365 . S
N1031 C1028 1.341 . S
N1031 N1030 1.365 . S
N1031 H1051 0.862 . S
C1032 C1027 1.501 . S
C1032 H1033 0.961 . S
C1032 H1034 0.961 . S
C1032 H1035 0.960 . S
H1033 C1032 0.961 . S
H1034 C1032 0.961 . S
H1035 C1032 0.960 . S
C1036 N1037 1.342 . S
C1036 C1040 1.401 . S
C1036 C1041 1.499 . S
N1037 Co1020 1.989 . S
N1037 C1036 1.342 . S
N1037 N1038 1.388 . S
N1038 Co1021 1.993 . S
N1038 N1037 1.388 . S
N1038 C1039 1.346 . S
C1039 N1038 1.346 . S
C1039 C1040 1.396 . S
C1039 C1049 1.510 . S
C1040 C1036 1.401 . S
C1040 C1039 1.396 . S
C1041 C1036 1.499 . S
C1041 H1042 0.959 . S
C1041 H1043 0.960 . S
C1041 H1044 0.961 . S
H1042 C1041 0.959 . S
H1043 C1041 0.960 . S
H1044 C1041 0.961 . S
O1045 Co1020 1.967 . S
O1045 C1053 1.258 . S
O1046 Co1021 1.941 . S
O1046 C1053 1.266 . S
H1047 C1049 0.959 . S
H1048 C1049 0.961 . S
C1049 C1039 1.510 . S
C1049 H1047 0.959 . S
C1049 H1048 0.961 . S
C1049 H1050 0.960 . S
H1050 C1049 0.960 . S
H1051 N1031 0.862 . S
O1052 Co1020 1.920 . S
O1052 C1025 1.289 . S
C1053 O1045 1.258 . S
C1053 O1046 1.266 . S
Co1054 O1057 1.970 . S
Co1054 N1071 1.989 . S
Co1054 O1079 1.967 . S
Co1054 O1086 1.920 . S
Co1055 O1058 1.966 . S
Co1055 N1064 2.022 . S
Co1055 N1072 1.993 . S
Co1055 O1080 1.941 . S
C1056 O1057 1.258 . S
C1056 O1058 1.263 . S
O1057 Co1054 1.970 . S
O1057 C1056 1.258 . S
O1058 Co1055 1.966 . S
O1058 C1056 1.263 . S
C1059 O1060 1.235 . S
C1059 O1086 1.289 . S
O1060 C1059 1.235 . S
C1061 C1063 1.400 . S
C1061 N1064 1.351 . S
C1061 C1066 1.501 . S
C1062 C1063 1.387 . S
C1062 N1065 1.341 . S
C1063 C1061 1.400 . S
C1063 C1062 1.387 . S
N1064 Co1055 2.022 . S
N1064 C1061 1.351 . S
N1064 N1065 1.365 . S
N1065 C1062 1.341 . S
N1065 N1064 1.365 . S
N1065 H1085 0.862 . S
C1066 C1061 1.501 . S
C1066 H1067 0.961 . S
C1066 H1068 0.961 . S
C1066 H1069 0.960 . S
H1067 C1066 0.961 . S
H1068 C1066 0.961 . S
H1069 C1066 0.960 . S
C1070 N1071 1.342 . S
C1070 C1074 1.401 . S
C1070 C1075 1.499 . S
N1071 Co1054 1.989 . S
N1071 C1070 1.342 . S
N1071 N1072 1.388 . S
N1072 Co1055 1.993 . S
N1072 N1071 1.388 . S
N1072 C1073 1.346 . S
C1073 N1072 1.346 . S
C1073 C1074 1.396 . S
C1073 C1083 1.510 . S
C1074 C1070 1.401 . S
C1074 C1073 1.396 . S
C1075 C1070 1.499 . S
C1075 H1076 0.959 . S
C1075 H1077 0.960 . S
C1075 H1078 0.961 . S
H1076 C1075 0.959 . S
H1077 C1075 0.960 . S
H1078 C1075 0.961 . S
O1079 Co1054 1.967 . S
O1079 C1087 1.258 . S
O1080 Co1055 1.941 . S
O1080 C1087 1.266 . S
H1081 C1083 0.959 . S
H1082 C1083 0.961 . S
C1083 C1073 1.510 . S
C1083 H1081 0.959 . S
C1083 H1082 0.961 . S
C1083 H1084 0.960 . S
H1084 C1083 0.960 . S
H1085 N1065 0.862 . S
O1086 Co1054 1.920 . S
O1086 C1059 1.289 . S
C1087 O1079 1.258 . S
C1087 O1080 1.266 . S
C1088 C1089 1.387 . S
C1088 H1092 0.950 . S
C1088 C1097 1.390 . S
C1089 C1088 1.387 . S
C1089 C1091 1.387 . S
H1090 C1097 0.950 . S
C1091 C1089 1.387 . S
C1091 C1093 1.390 . S
C1091 H1095 0.950 . S
H1092 C1088 0.950 . S
C1093 C1091 1.390 . S
C1093 C1094 1.387 . S
C1093 H1096 0.950 . S
C1094 C1093 1.387 . S
C1094 C1097 1.387 . S
H1095 C1091 0.950 . S
H1096 C1093 0.950 . S
C1097 C1088 1.390 . S
C1097 H1090 0.950 . S
C1097 C1094 1.387 . S
C1098 C1099 1.387 1_545 S
C1098 H1102 0.950 . S
C1098 C1107 1.390 1_655 S
C1099 C1098 1.387 1_565 S
C1099 C1101 1.387 . S
H1100 C1107 0.950 . S
C1101 C1099 1.387 . S
C1101 C1103 1.390 1_655 S
C1101 H1105 0.950 . S
H1102 C1098 0.950 . S
C1103 C1101 1.390 1_455 S
C1103 C1104 1.387 1_565 S
C1103 H1106 0.950 . S
C1104 C1103 1.387 1_545 S
C1104 C1107 1.387 . S
H1105 C1101 0.950 . S
H1106 C1103 0.950 . S
C1107 C1098 1.390 1_455 S
C1107 H1100 0.950 . S
C1107 C1104 1.387 . S
C1108 C1109 1.387 . S
C1108 H1112 0.950 . S
C1108 C1117 1.390 . S
C1109 C1108 1.387 . S
C1109 C1111 1.387 . S
H1110 C1117 0.950 . S
C1111 C1109 1.387 . S
C1111 C1113 1.390 . S
C1111 H1115 0.950 . S
H1112 C1108 0.950 . S
C1113 C1111 1.390 . S
C1113 C1114 1.387 . S
C1113 H1116 0.950 . S
C1114 C1113 1.387 . S
C1114 C1117 1.387 . S
H1115 C1111 0.950 . S
H1116 C1113 0.950 . S
C1117 C1108 1.390 . S
C1117 H1110 0.950 . S
C1117 C1114 1.387 . S
C1118 C1119 1.387 1_545 S
C1118 H1122 0.950 . S
C1118 C1127 1.390 . S
C1119 C1118 1.387 1_565 S
C1119 C1121 1.387 1_556 S
H1120 C1127 0.950 . S
C1121 C1119 1.387 1_554 S
C1121 C1123 1.390 . S
C1121 H1125 0.950 . S
H1122 C1118 0.950 . S
C1123 C1121 1.390 . S
C1123 C1124 1.387 1_565 S
C1123 H1126 0.950 . S
C1124 C1123 1.387 1_545 S
C1124 C1127 1.387 1_554 S
H1125 C1121 0.950 . S
H1126 C1123 0.950 . S
C1127 C1118 1.390 . S
C1127 H1120 0.950 . S
C1127 C1124 1.387 1_556 S
C1128 C1129 1.387 . S
C1128 H1132 0.950 . S
C1128 C1137 1.390 . S
C1129 C1128 1.387 . S
C1129 C1131 1.387 . S
H1130 C1137 0.950 . S
C1131 C1129 1.387 . S
C1131 C1133 1.390 . S
C1131 H1135 0.950 . S
H1132 C1128 0.950 . S
C1133 C1131 1.390 . S
C1133 C1134 1.387 . S
C1133 H1136 0.950 . S
C1134 C1133 1.387 . S
C1134 C1137 1.387 . S
H1135 C1131 0.950 . S
H1136 C1133 0.950 . S
C1137 C1128 1.390 . S
C1137 H1130 0.950 . S
C1137 C1134 1.387 . S
C1138 C1139 1.387 . S
C1138 H1142 0.950 . S
C1138 C1147 1.390 . S
C1139 C1138 1.387 . S
C1139 C1141 1.387 1_565 S
H1140 C1147 0.950 . S
C1141 C1139 1.387 1_545 S
C1141 C1143 1.390 . S
C1141 H1145 0.950 . S
H1142 C1138 0.950 . S
C1143 C1141 1.390 . S
C1143 C1144 1.387 . S
C1143 H1146 0.950 . S
C1144 C1143 1.387 . S
C1144 C1147 1.387 1_545 S
H1145 C1141 0.950 . S
H1146 C1143 0.950 . S
C1147 C1138 1.390 . S
C1147 H1140 0.950 . S
C1147 C1144 1.387 1_565 S
C1148 C1149 1.387 . S
C1148 H1152 0.950 . S
C1148 C1157 1.390 . S
C1149 C1148 1.387 . S
C1149 C1151 1.387 . S
H1150 C1157 0.950 . S
C1151 C1149 1.387 . S
C1151 C1153 1.390 . S
C1151 H1155 0.950 . S
H1152 C1148 0.950 . S
C1153 C1151 1.390 . S
C1153 C1154 1.387 . S
C1153 H1156 0.950 . S
C1154 C1153 1.387 . S
C1154 C1157 1.387 . S
H1155 C1151 0.950 . S
H1156 C1153 0.950 . S
C1157 C1148 1.390 . S
C1157 H1150 0.950 . S
C1157 C1154 1.387 . S
C1158 C1159 1.387 1_556 S
C1158 H1162 0.950 . S
C1158 C1167 1.390 1_455 S
C1159 C1158 1.387 1_554 S
C1159 C1161 1.387 1_565 S
H1160 C1167 0.950 . S
C1161 C1159 1.387 1_545 S
C1161 C1163 1.390 1_455 S
C1161 H1165 0.950 . S
H1162 C1158 0.950 . S
C1163 C1161 1.390 1_655 S
C1163 C1164 1.387 1_554 S
C1163 H1166 0.950 . S
C1164 C1163 1.387 1_556 S
C1164 C1167 1.387 1_545 S
H1165 C1161 0.950 . S
H1166 C1163 0.950 . S
C1167 C1158 1.390 1_655 S
C1167 H1160 0.950 . S
C1167 C1164 1.387 1_565 S
C1168 C1169 1.387 . S
C1168 H1172 0.950 . S
C1168 C1177 1.390 . S
C1169 C1168 1.387 . S
C1169 C1171 1.387 . S
H1170 C1177 0.950 . S
C1171 C1169 1.387 . S
C1171 C1173 1.390 . S
C1171 H1175 0.950 . S
H1172 C1168 0.950 . S
C1173 C1171 1.390 . S
C1173 C1174 1.387 . S
C1173 H1176 0.950 . S
C1174 C1173 1.387 . S
C1174 C1177 1.387 . S
H1175 C1171 0.950 . S
H1176 C1173 0.950 . S
C1177 C1168 1.390 . S
C1177 H1170 0.950 . S
C1177 C1174 1.387 . S
C1178 C1179 1.387 . S
C1178 H1182 0.950 . S
C1178 C1187 1.390 . S
C1179 C1178 1.387 . S
C1179 C1181 1.387 . S
H1180 C1187 0.950 . S
C1181 C1179 1.387 . S
C1181 C1183 1.390 . S
C1181 H1185 0.950 . S
H1182 C1178 0.950 . S
C1183 C1181 1.390 . S
C1183 C1184 1.387 . S
C1183 H1186 0.950 . S
C1184 C1183 1.387 . S
C1184 C1187 1.387 . S
H1185 C1181 0.950 . S
H1186 C1183 0.950 . S
C1187 C1178 1.390 . S
C1187 H1180 0.950 . S
C1187 C1184 1.387 . S
C1188 C1189 1.387 . S
C1188 H1192 0.950 . S
C1188 C1197 1.390 . S
C1189 C1188 1.387 . S
C1189 C1191 1.387 . S
H1190 C1197 0.950 . S
C1191 C1189 1.387 . S
C1191 C1193 1.390 . S
C1191 H1195 0.950 . S
H1192 C1188 0.950 . S
C1193 C1191 1.390 . S
C1193 C1194 1.387 . S
C1193 H1196 0.950 . S
C1194 C1193 1.387 . S
C1194 C1197 1.387 . S
H1195 C1191 0.950 . S
H1196 C1193 0.950 . S
C1197 C1188 1.390 . S
C1197 H1190 0.950 . S
C1197 C1194 1.387 . S
C1198 C1199 1.387 . S
C1198 H1202 0.950 . S
C1198 C1207 1.390 . S
C1199 C1198 1.387 . S
C1199 C1201 1.387 . S
H1200 C1207 0.950 . S
C1201 C1199 1.387 . S
C1201 C1203 1.390 . S
C1201 H1205 0.950 . S
H1202 C1198 0.950 . S
C1203 C1201 1.390 . S
C1203 C1204 1.387 . S
C1203 H1206 0.950 . S
C1204 C1203 1.387 . S
C1204 C1207 1.387 . S
H1205 C1201 0.950 . S
H1206 C1203 0.950 . S
C1207 C1198 1.390 . S
C1207 H1200 0.950 . S
C1207 C1204 1.387 . S
C1208 C1209 1.387 1_554 S
C1208 H1212 0.950 . S
C1208 C1217 1.390 . S
C1209 C1208 1.387 1_556 S
C1209 C1211 1.387 . S
H1210 C1217 0.950 . S
C1211 C1209 1.387 . S
C1211 C1213 1.390 . S
C1211 H1215 0.950 . S
H1212 C1208 0.950 . S
C1213 C1211 1.390 . S
C1213 C1214 1.387 1_556 S
C1213 H1216 0.950 . S
C1214 C1213 1.387 1_554 S
C1214 C1217 1.387 . S
H1215 C1211 0.950 . S
H1216 C1213 0.950 . S
C1217 C1208 1.390 . S
C1217 H1210 0.950 . S
C1217 C1214 1.387 . S
C1218 C1219 1.387 . S
C1218 H1222 0.950 . S
C1218 C1227 1.390 1_455 S
C1219 C1218 1.387 . S
C1219 C1221 1.387 . S
H1220 C1227 0.950 . S
C1221 C1219 1.387 . S
C1221 C1223 1.390 1_455 S
C1221 H1225 0.950 . S
H1222 C1218 0.950 . S
C1223 C1221 1.390 1_655 S
C1223 C1224 1.387 . S
C1223 H1226 0.950 . S
C1224 C1223 1.387 . S
C1224 C1227 1.387 . S
H1225 C1221 0.950 . S
H1226 C1223 0.950 . S
C1227 C1218 1.390 1_655 S
C1227 H1220 0.950 . S
C1227 C1224 1.387 . S
C1228 C1229 1.387 1_554 S
C1228 H1232 0.950 . S
C1228 C1237 1.390 1_455 S
C1229 C1228 1.387 1_556 S
C1229 C1231 1.387 . S
H1230 C1237 0.950 . S
C1231 C1229 1.387 . S
C1231 C1233 1.390 1_455 S
C1231 H1235 0.950 . S
H1232 C1228 0.950 . S
C1233 C1231 1.390 1_655 S
C1233 C1234 1.387 1_556 S
C1233 H1236 0.950 . S
C1234 C1233 1.387 1_554 S
C1234 C1237 1.387 . S
H1235 C1231 0.950 . S
H1236 C1233 0.950 . S
C1237 C1228 1.390 1_655 S
C1237 H1230 0.950 . S
C1237 C1234 1.387 . S
C1238 C1239 1.387 . S
C1238 H1242 0.950 . S
C1238 C1247 1.390 . S
C1239 C1238 1.387 . S
C1239 C1241 1.387 . S
H1240 C1247 0.950 . S
C1241 C1239 1.387 . S
C1241 C1243 1.390 . S
C1241 H1245 0.950 . S
H1242 C1238 0.950 . S
C1243 C1241 1.390 . S
C1243 C1244 1.387 . S
C1243 H1246 0.950 . S
C1244 C1243 1.387 . S
C1244 C1247 1.387 . S
H1245 C1241 0.950 . S
H1246 C1243 0.950 . S
C1247 C1238 1.390 . S
C1247 H1240 0.950 . S
C1247 C1244 1.387 . S
C1248 C1249 1.387 . S
C1248 H1252 0.950 . S
C1248 C1257 1.390 . S
C1249 C1248 1.387 . S
C1249 C1251 1.387 . S
H1250 C1257 0.950 . S
C1251 C1249 1.387 . S
C1251 C1253 1.390 . S
C1251 H1255 0.950 . S
H1252 C1248 0.950 . S
C1253 C1251 1.390 . S
C1253 C1254 1.387 . S
C1253 H1256 0.950 . S
C1254 C1253 1.387 . S
C1254 C1257 1.387 . S
H1255 C1251 0.950 . S
H1256 C1253 0.950 . S
C1257 C1248 1.390 . S
C1257 H1250 0.950 . S
C1257 C1254 1.387 . S
C1258 C1259 1.387 1_455 S
C1258 H1262 0.950 . S
C1258 C1267 1.390 . S
C1259 C1258 1.387 1_655 S
C1259 C1261 1.387 . S
H1260 C1267 0.950 . S
C1261 C1259 1.387 . S
C1261 C1263 1.390 1_655 S
C1261 H1265 0.950 . S
H1262 C1258 0.950 . S
C1263 C1261 1.390 1_455 S
C1263 C1264 1.387 . S
C1263 H1266 0.950 . S
C1264 C1263 1.387 . S
C1264 C1267 1.387 . S
H1265 C1261 0.950 . S
H1266 C1263 0.950 . S
C1267 C1258 1.390 . S
C1267 H1260 0.950 . S
C1267 C1264 1.387 . S
C1268 C1269 1.387 . S
C1268 H1272 0.950 . S
C1268 C1277 1.390 . S
C1269 C1268 1.387 . S
C1269 C1271 1.387 . S
H1270 C1277 0.950 . S
C1271 C1269 1.387 . S
C1271 C1273 1.390 . S
C1271 H1275 0.950 . S
H1272 C1268 0.950 . S
C1273 C1271 1.390 . S
C1273 C1274 1.387 . S
C1273 H1276 0.950 . S
C1274 C1273 1.387 . S
C1274 C1277 1.387 . S
H1275 C1271 0.950 . S
H1276 C1273 0.950 . S
C1277 C1268 1.390 . S
C1277 H1270 0.950 . S
C1277 C1274 1.387 . S
C1278 C1279 1.387 . S
C1278 H1282 0.950 . S
C1278 C1287 1.390 . S
C1279 C1278 1.387 . S
C1279 C1281 1.387 . S
H1280 C1287 0.950 . S
C1281 C1279 1.387 . S
C1281 C1283 1.390 . S
C1281 H1285 0.950 . S
H1282 C1278 0.950 . S
C1283 C1281 1.390 . S
C1283 C1284 1.387 . S
C1283 H1286 0.950 . S
C1284 C1283 1.387 . S
C1284 C1287 1.387 . S
H1285 C1281 0.950 . S
H1286 C1283 0.950 . S
C1287 C1278 1.390 . S
C1287 H1280 0.950 . S
C1287 C1284 1.387 . S
C1288 C1289 1.387 . S
C1288 H1292 0.950 . S
C1288 C1297 1.390 . S
C1289 C1288 1.387 . S
C1289 C1291 1.387 . S
H1290 C1297 0.950 . S
C1291 C1289 1.387 . S
C1291 C1293 1.390 . S
C1291 H1295 0.950 . S
H1292 C1288 0.950 . S
C1293 C1291 1.390 . S
C1293 C1294 1.387 . S
C1293 H1296 0.950 . S
C1294 C1293 1.387 . S
C1294 C1297 1.387 . S
H1295 C1291 0.950 . S
H1296 C1293 0.950 . S
C1297 C1288 1.390 . S
C1297 H1290 0.950 . S
C1297 C1294 1.387 . S
C1298 C1299 1.387 . S
C1298 H1302 0.950 . S
C1298 C1307 1.390 . S
C1299 C1298 1.387 . S
C1299 C1301 1.387 . S
H1300 C1307 0.950 . S
C1301 C1299 1.387 . S
C1301 C1303 1.390 . S
C1301 H1305 0.950 . S
H1302 C1298 0.950 . S
C1303 C1301 1.390 . S
C1303 C1304 1.387 . S
C1303 H1306 0.950 . S
C1304 C1303 1.387 . S
C1304 C1307 1.387 . S
H1305 C1301 0.950 . S
H1306 C1303 0.950 . S
C1307 C1298 1.390 . S
C1307 H1300 0.950 . S
C1307 C1304 1.387 . S
C1308 C1309 1.387 . S
C1308 H1312 0.950 . S
C1308 C1317 1.390 . S
C1309 C1308 1.387 . S
C1309 C1311 1.387 . S
H1310 C1317 0.950 . S
C1311 C1309 1.387 . S
C1311 C1313 1.390 . S
C1311 H1315 0.950 . S
H1312 C1308 0.950 . S
C1313 C1311 1.390 . S
C1313 C1314 1.387 . S
C1313 H1316 0.950 . S
C1314 C1313 1.387 . S
C1314 C1317 1.387 . S
H1315 C1311 0.950 . S
H1316 C1313 0.950 . S
C1317 C1308 1.390 . S
C1317 H1310 0.950 . S
C1317 C1314 1.387 . S
C1318 C1319 1.387 1_455 S
C1318 H1322 0.950 1_455 S
C1318 C1327 1.390 . S
C1319 C1318 1.387 1_655 S
C1319 C1321 1.387 1_655 S
H1320 C1327 0.950 . S
C1321 C1319 1.387 1_455 S
C1321 C1323 1.390 . S
C1321 H1325 0.950 1_455 S
H1322 C1318 0.950 1_655 S
C1323 C1321 1.390 . S
C1323 C1324 1.387 . S
C1323 H1326 0.950 . S
C1324 C1323 1.387 . S
C1324 C1327 1.387 . S
H1325 C1321 0.950 1_655 S
H1326 C1323 0.950 . S
C1327 C1318 1.390 . S
C1327 H1320 0.950 . S
C1327 C1324 1.387 . S
C1328 C1329 1.387 . S
C1328 H1332 0.950 . S
C1328 C1337 1.390 . S
C1329 C1328 1.387 . S
C1329 C1331 1.387 . S
H1330 C1337 0.950 . S
C1331 C1329 1.387 . S
C1331 C1333 1.390 . S
C1331 H1335 0.950 . S
H1332 C1328 0.950 . S
C1333 C1331 1.390 . S
C1333 C1334 1.387 . S
C1333 H1336 0.950 . S
C1334 C1333 1.387 . S
C1334 C1337 1.387 . S
H1335 C1331 0.950 . S
H1336 C1333 0.950 . S
C1337 C1328 1.390 . S
C1337 H1330 0.950 . S
C1337 C1334 1.387 . S
C1338 C1339 1.387 1_655 S
C1338 H1342 0.950 . S
C1338 C1347 1.390 . S
C1339 C1338 1.387 1_455 S
C1339 C1341 1.388 . S
H1340 C1347 0.950 . S
C1341 C1339 1.388 . S
C1341 C1343 1.389 1_455 S
C1341 H1345 0.951 . S
H1342 C1338 0.950 . S
C1343 C1341 1.389 1_655 S
C1343 C1344 1.387 . S
C1343 H1346 0.950 . S
C1344 C1343 1.387 . S
C1344 C1347 1.387 . S
H1345 C1341 0.951 . S
H1346 C1343 0.950 . S
C1347 C1338 1.390 . S
C1347 H1340 0.950 . S
C1347 C1344 1.387 . S
C1348 C1349 1.387 . S
C1348 H1352 0.950 . S
C1348 C1357 1.390 . S
C1349 C1348 1.387 . S
C1349 C1351 1.387 . S
H1350 C1357 0.950 . S
C1351 C1349 1.387 . S
C1351 C1353 1.390 . S
C1351 H1355 0.950 . S
H1352 C1348 0.950 . S
C1353 C1351 1.390 . S
C1353 C1354 1.387 . S
C1353 H1356 0.950 . S
C1354 C1353 1.387 . S
C1354 C1357 1.387 . S
H1355 C1351 0.950 . S
H1356 C1353 0.950 . S
C1357 C1348 1.390 . S
C1357 H1350 0.950 . S
C1357 C1354 1.387 . S
C1358 C1359 1.387 . S
C1358 H1362 0.950 . S
C1358 C1367 1.390 . S
C1359 C1358 1.387 . S
C1359 C1361 1.387 . S
H1360 C1367 0.950 . S
C1361 C1359 1.387 . S
C1361 C1363 1.390 . S
C1361 H1365 0.950 . S
H1362 C1358 0.950 . S
C1363 C1361 1.390 . S
C1363 C1364 1.387 . S
C1363 H1366 0.950 . S
C1364 C1363 1.387 . S
C1364 C1367 1.387 . S
H1365 C1361 0.950 . S
H1366 C1363 0.950 . S
C1367 C1358 1.390 . S
C1367 H1360 0.950 . S
C1367 C1364 1.387 . S
C1368 C1369 1.387 . S
C1368 H1372 0.950 . S
C1368 C1377 1.390 . S
C1369 C1368 1.387 . S
C1369 C1371 1.387 . S
H1370 C1377 0.950 . S
C1371 C1369 1.387 . S
C1371 C1373 1.390 . S
C1371 H1375 0.950 . S
H1372 C1368 0.950 . S
C1373 C1371 1.390 . S
C1373 C1374 1.387 . S
C1373 H1376 0.950 . S
C1374 C1373 1.387 . S
C1374 C1377 1.387 . S
H1375 C1371 0.950 . S
H1376 C1373 0.950 . S
C1377 C1368 1.390 . S
C1377 H1370 0.950 . S
C1377 C1374 1.387 . S
C1378 C1379 1.387 . S
C1378 H1382 0.950 . S
C1378 C1387 1.390 . S
C1379 C1378 1.387 . S
C1379 C1381 1.387 . S
H1380 C1387 0.950 . S
C1381 C1379 1.387 . S
C1381 C1383 1.390 . S
C1381 H1385 0.950 . S
H1382 C1378 0.950 . S
C1383 C1381 1.390 . S
C1383 C1384 1.387 . S
C1383 H1386 0.950 . S
C1384 C1383 1.387 . S
C1384 C1387 1.387 . S
H1385 C1381 0.950 . S
H1386 C1383 0.950 . S
C1387 C1378 1.390 . S
C1387 H1380 0.950 . S
C1387 C1384 1.387 . S
C1388 C1389 1.387 . S
C1388 H1392 0.950 . S
C1388 C1397 1.390 . S
C1389 C1388 1.387 . S
C1389 C1391 1.387 . S
H1390 C1397 0.950 . S
C1391 C1389 1.387 . S
C1391 C1393 1.390 . S
C1391 H1395 0.950 . S
H1392 C1388 0.950 . S
C1393 C1391 1.390 . S
C1393 C1394 1.387 . S
C1393 H1396 0.950 . S
C1394 C1393 1.387 . S
C1394 C1397 1.387 . S
H1395 C1391 0.950 . S
H1396 C1393 0.950 . S
C1397 C1388 1.390 . S
C1397 H1390 0.950 . S
C1397 C1394 1.387 . S
C1398 C1399 1.387 . S
C1398 H1402 0.950 . S
C1398 C1407 1.390 . S
C1399 C1398 1.387 . S
C1399 C1401 1.387 . S
H1400 C1407 0.950 . S
C1401 C1399 1.387 . S
C1401 C1403 1.390 . S
C1401 H1405 0.950 . S
H1402 C1398 0.950 . S
C1403 C1401 1.390 . S
C1403 C1404 1.387 1_655 S
C1403 H1406 0.950 1_655 S
C1404 C1403 1.387 1_455 S
C1404 C1407 1.387 1_455 S
H1405 C1401 0.950 . S
H1406 C1403 0.950 1_455 S
C1407 C1398 1.390 . S
C1407 H1400 0.950 . S
C1407 C1404 1.387 1_655 S
C1408 C1409 1.387 . S
C1408 H1412 0.950 . S
C1408 C1417 1.390 . S
C1409 C1408 1.387 . S
C1409 C1411 1.387 . S
H1410 C1417 0.950 . S
C1411 C1409 1.387 . S
C1411 C1413 1.390 . S
C1411 H1415 0.950 . S
H1412 C1408 0.950 . S
C1413 C1411 1.390 . S
C1413 C1414 1.387 . S
C1413 H1416 0.950 . S
C1414 C1413 1.387 . S
C1414 C1417 1.387 . S
H1415 C1411 0.950 . S
H1416 C1413 0.950 . S
C1417 C1408 1.390 . S
C1417 H1410 0.950 . S
C1417 C1414 1.387 . S
C1418 C1419 1.387 . S
C1418 H1422 0.950 . S
C1418 C1427 1.390 . S
C1419 C1418 1.387 . S
C1419 C1421 1.387 . S
H1420 C1427 0.950 . S
C1421 C1419 1.387 . S
C1421 C1423 1.390 . S
C1421 H1425 0.950 . S
H1422 C1418 0.950 . S
C1423 C1421 1.390 . S
C1423 C1424 1.387 . S
C1423 H1426 0.950 . S
C1424 C1423 1.387 . S
C1424 C1427 1.387 . S
H1425 C1421 0.950 . S
H1426 C1423 0.950 . S
C1427 C1418 1.390 . S
C1427 H1420 0.950 . S
C1427 C1424 1.387 . S
C1428 C1429 1.387 . S
C1428 H1432 0.950 . S
C1428 C1437 1.390 . S
C1429 C1428 1.387 . S
C1429 C1431 1.387 . S
H1430 C1437 0.950 . S
C1431 C1429 1.387 . S
C1431 C1433 1.390 . S
C1431 H1435 0.950 . S
H1432 C1428 0.950 . S
C1433 C1431 1.390 . S
C1433 C1434 1.387 . S
C1433 H1436 0.950 . S
C1434 C1433 1.387 . S
C1434 C1437 1.387 . S
H1435 C1431 0.950 . S
H1436 C1433 0.950 . S
C1437 C1428 1.390 . S
C1437 H1430 0.950 . S
C1437 C1434 1.387 . S
C1438 C1439 1.387 . S
C1438 H1442 0.950 . S
C1438 C1447 1.390 . S
C1439 C1438 1.387 . S
C1439 C1441 1.387 . S
H1440 C1447 0.950 1_455 S
C1441 C1439 1.387 . S
C1441 C1443 1.390 . S
C1441 H1445 0.950 . S
H1442 C1438 0.950 . S
C1443 C1441 1.390 . S
C1443 C1444 1.387 1_655 S
C1443 H1446 0.950 1_655 S
C1444 C1443 1.387 1_455 S
C1444 C1447 1.387 1_455 S
H1445 C1441 0.950 . S
H1446 C1443 0.950 1_455 S
C1447 C1438 1.390 . S
C1447 H1440 0.950 1_655 S
C1447 C1444 1.387 1_655 S
C1448 C1449 1.387 . S
C1448 H1452 0.950 . S
C1448 C1457 1.390 . S
C1449 C1448 1.387 . S
C1449 C1451 1.387 . S
H1450 C1457 0.950 . S
C1451 C1449 1.387 . S
C1451 C1453 1.390 . S
C1451 H1455 0.950 . S
H1452 C1448 0.950 . S
C1453 C1451 1.390 . S
C1453 C1454 1.387 . S
C1453 H1456 0.950 . S
C1454 C1453 1.387 . S
C1454 C1457 1.387 . S
H1455 C1451 0.950 . S
H1456 C1453 0.950 . S
C1457 C1448 1.390 . S
C1457 H1450 0.950 . S
C1457 C1454 1.387 . S
C1458 C1459 1.387 . S
C1458 H1462 0.950 . S
C1458 C1467 1.390 . S
C1459 C1458 1.387 . S
C1459 C1461 1.387 . S
H1460 C1467 0.950 . S
C1461 C1459 1.387 . S
C1461 C1463 1.390 1_655 S
C1461 H1465 0.950 . S
H1462 C1458 0.950 . S
C1463 C1461 1.390 1_455 S
C1463 C1464 1.387 . S
C1463 H1466 0.950 . S
C1464 C1463 1.387 . S
C1464 C1467 1.387 1_455 S
H1465 C1461 0.950 . S
H1466 C1463 0.950 . S
C1467 C1458 1.390 . S
C1467 H1460 0.950 . S
C1467 C1464 1.387 1_655 S
C1468 C1469 1.387 . S
C1468 H1472 0.950 . S
C1468 C1477 1.390 . S
C1469 C1468 1.387 . S
C1469 C1471 1.387 . S
H1470 C1477 0.950 . S
C1471 C1469 1.387 . S
C1471 C1473 1.390 . S
C1471 H1475 0.950 . S
H1472 C1468 0.950 . S
C1473 C1471 1.390 . S
C1473 C1474 1.387 . S
C1473 H1476 0.950 . S
C1474 C1473 1.387 . S
C1474 C1477 1.387 . S
H1475 C1471 0.950 . S
H1476 C1473 0.950 . S
C1477 C1468 1.390 . S
C1477 H1470 0.950 . S
C1477 C1474 1.387 . S
C1478 C1479 1.387 . S
C1478 H1482 0.950 . S
C1478 C1487 1.390 . S
C1479 C1478 1.387 . S
C1479 C1481 1.387 . S
H1480 C1487 0.950 . S
C1481 C1479 1.387 . S
C1481 C1483 1.390 . S
C1481 H1485 0.950 . S
H1482 C1478 0.950 . S
C1483 C1481 1.390 . S
C1483 C1484 1.387 . S
C1483 H1486 0.950 . S
C1484 C1483 1.387 . S
C1484 C1487 1.387 . S
H1485 C1481 0.950 . S
H1486 C1483 0.950 . S
C1487 C1478 1.390 . S
C1487 H1480 0.950 . S
C1487 C1484 1.387 . S
C1488 C1489 1.387 . S
C1488 H1492 0.950 . S
C1488 C1497 1.390 . S
C1489 C1488 1.387 . S
C1489 C1491 1.387 . S
H1490 C1497 0.950 . S
C1491 C1489 1.387 . S
C1491 C1493 1.390 . S
C1491 H1495 0.950 . S
H1492 C1488 0.950 . S
C1493 C1491 1.390 . S
C1493 C1494 1.387 . S
C1493 H1496 0.950 . S
C1494 C1493 1.387 . S
C1494 C1497 1.387 . S
H1495 C1491 0.950 . S
H1496 C1493 0.950 . S
C1497 C1488 1.390 . S
C1497 H1490 0.950 . S
C1497 C1494 1.387 . S
C1498 C1499 1.387 . S
C1498 H1502 0.950 . S
C1498 C1507 1.390 . S
C1499 C1498 1.387 . S
C1499 C1501 1.387 . S
H1500 C1507 0.950 . S
C1501 C1499 1.387 . S
C1501 C1503 1.390 . S
C1501 H1505 0.950 . S
H1502 C1498 0.950 . S
C1503 C1501 1.390 . S
C1503 C1504 1.387 . S
C1503 H1506 0.950 . S
C1504 C1503 1.387 . S
C1504 C1507 1.387 . S
H1505 C1501 0.950 . S
H1506 C1503 0.950 . S
C1507 C1498 1.390 . S
C1507 H1500 0.950 . S
C1507 C1504 1.387 . S
C1508 C1509 1.387 . S
C1508 H1512 0.950 . S
C1508 C1517 1.390 . S
C1509 C1508 1.387 . S
C1509 C1511 1.387 . S
H1510 C1517 0.950 . S
C1511 C1509 1.387 . S
C1511 C1513 1.390 . S
C1511 H1515 0.950 . S
H1512 C1508 0.950 . S
C1513 C1511 1.390 . S
C1513 C1514 1.387 . S
C1513 H1516 0.950 . S
C1514 C1513 1.387 . S
C1514 C1517 1.387 . S
H1515 C1511 0.950 . S
H1516 C1513 0.950 . S
C1517 C1508 1.390 . S
C1517 H1510 0.950 . S
C1517 C1514 1.387 . S
C1518 C1519 1.387 . S
C1518 H1522 0.950 . S
C1518 C1527 1.390 . S
C1519 C1518 1.387 . S
C1519 C1521 1.387 . S
H1520 C1527 0.950 . S
C1521 C1519 1.387 . S
C1521 C1523 1.390 . S
C1521 H1525 0.950 . S
H1522 C1518 0.950 . S
C1523 C1521 1.390 . S
C1523 C1524 1.387 1_455 S
C1523 H1526 0.950 1_455 S
C1524 C1523 1.387 1_655 S
C1524 C1527 1.387 1_655 S
H1525 C1521 0.950 . S
H1526 C1523 0.950 1_655 S
C1527 C1518 1.390 . S
C1527 H1520 0.950 . S
C1527 C1524 1.387 1_455 S
C1528 C1529 1.387 . S
C1528 H1532 0.950 . S
C1528 C1537 1.390 . S
C1529 C1528 1.387 . S
C1529 C1531 1.387 . S
H1530 C1537 0.950 . S
C1531 C1529 1.387 . S
C1531 C1533 1.390 . S
C1531 H1535 0.950 . S
H1532 C1528 0.950 . S
C1533 C1531 1.390 . S
C1533 C1534 1.387 . S
C1533 H1536 0.950 . S
C1534 C1533 1.387 . S
C1534 C1537 1.387 . S
H1535 C1531 0.950 . S
H1536 C1533 0.950 . S
C1537 C1528 1.390 . S
C1537 H1530 0.950 . S
C1537 C1534 1.387 . S
C1538 C1539 1.387 1_455 S
C1538 H1542 0.950 . S
C1538 C1547 1.390 . S
C1539 C1538 1.387 1_655 S
C1539 C1541 1.387 . S
H1540 C1547 0.950 . S
C1541 C1539 1.387 . S
C1541 C1543 1.390 1_655 S
C1541 H1545 0.950 . S
H1542 C1538 0.950 . S
C1543 C1541 1.390 1_455 S
C1543 C1544 1.387 . S
C1543 H1546 0.950 . S
C1544 C1543 1.387 . S
C1544 C1547 1.387 . S
H1545 C1541 0.950 . S
H1546 C1543 0.950 . S
C1547 C1538 1.390 . S
C1547 H1540 0.950 . S
C1547 C1544 1.387 . S
C1548 C1549 1.387 . S
C1548 H1552 0.950 . S
C1548 C1557 1.390 . S
C1549 C1548 1.387 . S
C1549 C1551 1.387 . S
H1550 C1557 0.950 . S
C1551 C1549 1.387 . S
C1551 C1553 1.390 . S
C1551 H1555 0.950 . S
H1552 C1548 0.950 . S
C1553 C1551 1.390 . S
C1553 C1554 1.387 . S
C1553 H1556 0.950 . S
C1554 C1553 1.387 . S
C1554 C1557 1.387 . S
H1555 C1551 0.950 . S
H1556 C1553 0.950 . S
C1557 C1548 1.390 . S
C1557 H1550 0.950 . S
C1557 C1554 1.387 . S
C1558 C1559 1.387 . S
C1558 H1562 0.950 . S
C1558 C1567 1.390 . S
C1559 C1558 1.387 . S
C1559 C1561 1.387 . S
H1560 C1567 0.950 . S
C1561 C1559 1.387 . S
C1561 C1563 1.390 . S
C1561 H1565 0.950 . S
H1562 C1558 0.950 . S
C1563 C1561 1.390 . S
C1563 C1564 1.387 . S
C1563 H1566 0.950 . S
C1564 C1563 1.387 . S
C1564 C1567 1.387 . S
H1565 C1561 0.950 . S
H1566 C1563 0.950 . S
C1567 C1558 1.390 . S
C1567 H1560 0.950 . S
C1567 C1564 1.387 . S
C1568 C1569 1.387 . S
C1568 H1572 0.950 . S
C1568 C1577 1.390 . S
C1569 C1568 1.387 . S
C1569 C1571 1.387 . S
H1570 C1577 0.950 . S
C1571 C1569 1.387 . S
C1571 C1573 1.390 . S
C1571 H1575 0.950 . S
H1572 C1568 0.950 . S
C1573 C1571 1.390 . S
C1573 C1574 1.387 . S
C1573 H1576 0.950 . S
C1574 C1573 1.387 . S
C1574 C1577 1.387 . S
H1575 C1571 0.950 . S
H1576 C1573 0.950 . S
C1577 C1568 1.390 . S
C1577 H1570 0.950 . S
C1577 C1574 1.387 . S
C1578 C1579 1.387 . S
C1578 H1582 0.950 . S
C1578 C1587 1.390 1_655 S
C1579 C1578 1.387 . S
C1579 C1581 1.387 . S
H1580 C1587 0.950 . S
C1581 C1579 1.387 . S
C1581 C1583 1.390 1_655 S
C1581 H1585 0.950 . S
H1582 C1578 0.950 . S
C1583 C1581 1.390 1_455 S
C1583 C1584 1.387 . S
C1583 H1586 0.950 . S
C1584 C1583 1.387 . S
C1584 C1587 1.387 . S
H1585 C1581 0.950 . S
H1586 C1583 0.950 . S
C1587 C1578 1.390 1_455 S
C1587 H1580 0.950 . S
C1587 C1584 1.387 . S
C1588 C1589 1.387 . S
C1588 H1592 0.950 . S
C1588 C1597 1.390 1_655 S
C1589 C1588 1.387 . S
C1589 C1591 1.387 . S
H1590 C1597 0.950 . S
C1591 C1589 1.387 . S
C1591 C1593 1.390 1_655 S
C1591 H1595 0.950 . S
H1592 C1588 0.950 . S
C1593 C1591 1.390 1_455 S
C1593 C1594 1.387 . S
C1593 H1596 0.950 . S
C1594 C1593 1.387 . S
C1594 C1597 1.387 . S
H1595 C1591 0.950 . S
H1596 C1593 0.950 . S
C1597 C1588 1.390 1_455 S
C1597 H1590 0.950 . S
C1597 C1594 1.387 . S
C1598 C1599 1.387 . S
C1598 H1602 0.950 . S
C1598 C1607 1.390 . S
C1599 C1598 1.387 . S
C1599 C1601 1.387 . S
H1600 C1607 0.950 . S
C1601 C1599 1.387 . S
C1601 C1603 1.390 . S
C1601 H1605 0.950 . S
H1602 C1598 0.950 . S
C1603 C1601 1.390 . S
C1603 C1604 1.387 . S
C1603 H1606 0.950 . S
C1604 C1603 1.387 . S
C1604 C1607 1.387 . S
H1605 C1601 0.950 . S
H1606 C1603 0.950 . S
C1607 C1598 1.390 . S
C1607 H1600 0.950 . S
C1607 C1604 1.387 . S
C1608 C1609 1.387 . S
C1608 H1612 0.950 . S
C1608 C1617 1.390 . S
C1609 C1608 1.387 . S
C1609 C1611 1.387 . S
H1610 C1617 0.950 . S
C1611 C1609 1.387 . S
C1611 C1613 1.390 . S
C1611 H1615 0.950 . S
H1612 C1608 0.950 . S
C1613 C1611 1.390 . S
C1613 C1614 1.387 . S
C1613 H1616 0.950 . S
C1614 C1613 1.387 . S
C1614 C1617 1.387 . S
H1615 C1611 0.950 . S
H1616 C1613 0.950 . S
C1617 C1608 1.390 . S
C1617 H1610 0.950 . S
C1617 C1614 1.387 . S
C1618 C1619 1.387 . S
C1618 H1622 0.950 . S
C1618 C1627 1.390 . S
C1619 C1618 1.387 . S
C1619 C1621 1.387 . S
H1620 C1627 0.950 . S
C1621 C1619 1.387 . S
C1621 C1623 1.390 . S
C1621 H1625 0.950 . S
H1622 C1618 0.950 . S
C1623 C1621 1.390 . S
C1623 C1624 1.387 . S
C1623 H1626 0.950 . S
C1624 C1623 1.387 . S
C1624 C1627 1.387 . S
H1625 C1621 0.950 . S
H1626 C1623 0.950 . S
C1627 C1618 1.390 . S
C1627 H1620 0.950 . S
C1627 C1624 1.387 . S
C1628 C1629 1.387 . S
C1628 H1632 0.950 . S
C1628 C1637 1.390 1_455 S
C1629 C1628 1.387 . S
C1629 C1631 1.387 . S
H1630 C1637 0.950 . S
C1631 C1629 1.387 . S
C1631 C1633 1.390 1_455 S
C1631 H1635 0.950 . S
H1632 C1628 0.950 . S
C1633 C1631 1.390 1_655 S
C1633 C1634 1.387 . S
C1633 H1636 0.950 . S
C1634 C1633 1.387 . S
C1634 C1637 1.387 . S
H1635 C1631 0.950 . S
H1636 C1633 0.950 . S
C1637 C1628 1.390 1_655 S
C1637 H1630 0.950 . S
C1637 C1634 1.387 . S
C1638 C1639 1.387 . S
C1638 H1642 0.950 . S
C1638 C1647 1.390 1_655 S
C1639 C1638 1.387 . S
C1639 C1641 1.387 . S
H1640 C1647 0.950 . S
C1641 C1639 1.387 . S
C1641 C1643 1.390 1_655 S
C1641 H1645 0.950 . S
H1642 C1638 0.950 . S
C1643 C1641 1.390 1_455 S
C1643 C1644 1.387 . S
C1643 H1646 0.950 . S
C1644 C1643 1.387 . S
C1644 C1647 1.387 . S
H1645 C1641 0.950 . S
H1646 C1643 0.950 . S
C1647 C1638 1.390 1_455 S
C1647 H1640 0.950 . S
C1647 C1644 1.387 . S
C1648 C1649 1.387 . S
C1648 H1652 0.950 . S
C1648 C1657 1.390 . S
C1649 C1648 1.387 . S
C1649 C1651 1.387 . S
H1650 C1657 0.950 . S
C1651 C1649 1.387 . S
C1651 C1653 1.390 . S
C1651 H1655 0.950 . S
H1652 C1648 0.950 . S
C1653 C1651 1.390 . S
C1653 C1654 1.387 . S
C1653 H1656 0.950 . S
C1654 C1653 1.387 . S
C1654 C1657 1.387 . S
H1655 C1651 0.950 . S
H1656 C1653 0.950 . S
C1657 C1648 1.390 . S
C1657 H1650 0.950 . S
C1657 C1654 1.387 . S
C1658 C1659 1.387 . S
C1658 H1662 0.950 . S
C1658 C1667 1.390 1_655 S
C1659 C1658 1.387 . S
C1659 C1661 1.387 . S
H1660 C1667 0.950 . S
C1661 C1659 1.387 . S
C1661 C1663 1.390 1_655 S
C1661 H1665 0.950 . S
H1662 C1658 0.950 . S
C1663 C1661 1.390 1_455 S
C1663 C1664 1.387 . S
C1663 H1666 0.950 . S
C1664 C1663 1.387 . S
C1664 C1667 1.387 . S
H1665 C1661 0.950 . S
H1666 C1663 0.950 . S
C1667 C1658 1.390 1_455 S
C1667 H1660 0.950 . S
C1667 C1664 1.387 . S
C1668 C1669 1.387 . S
C1668 H1672 0.950 . S
C1668 C1677 1.390 1_655 S
C1669 C1668 1.387 . S
C1669 C1671 1.387 . S
H1670 C1677 0.950 . S
C1671 C1669 1.387 . S
C1671 C1673 1.390 1_655 S
C1671 H1675 0.950 . S
H1672 C1668 0.950 . S
C1673 C1671 1.390 1_455 S
C1673 C1674 1.387 . S
C1673 H1676 0.950 . S
C1674 C1673 1.387 . S
C1674 C1677 1.387 . S
H1675 C1671 0.950 . S
H1676 C1673 0.950 . S
C1677 C1668 1.390 1_455 S
C1677 H1670 0.950 . S
C1677 C1674 1.387 . S
C1678 C1679 1.387 . S
C1678 H1682 0.950 . S
C1678 C1687 1.390 . S
C1679 C1678 1.387 . S
C1679 C1681 1.387 . S
H1680 C1687 0.950 . S
C1681 C1679 1.387 . S
C1681 C1683 1.390 . S
C1681 H1685 0.950 . S
H1682 C1678 0.950 . S
C1683 C1681 1.390 . S
C1683 C1684 1.387 . S
C1683 H1686 0.950 . S
C1684 C1683 1.387 . S
C1684 C1687 1.387 . S
H1685 C1681 0.950 . S
H1686 C1683 0.950 . S
C1687 C1678 1.390 . S
C1687 H1680 0.950 . S
C1687 C1684 1.387 . S
C1688 C1689 1.387 . S
C1688 H1692 0.950 . S
C1688 C1697 1.390 . S
C1689 C1688 1.387 . S
C1689 C1691 1.387 . S
H1690 C1697 0.950 . S
C1691 C1689 1.387 . S
C1691 C1693 1.390 . S
C1691 H1695 0.950 . S
H1692 C1688 0.950 . S
C1693 C1691 1.390 . S
C1693 C1694 1.387 . S
C1693 H1696 0.950 . S
C1694 C1693 1.387 . S
C1694 C1697 1.387 . S
H1695 C1691 0.950 . S
H1696 C1693 0.950 . S
C1697 C1688 1.390 . S
C1697 H1690 0.950 . S
C1697 C1694 1.387 . S
C1698 C1699 1.387 . S
C1698 H1702 0.950 . S
C1698 C1707 1.390 . S
C1699 C1698 1.387 . S
C1699 C1701 1.387 . S
H1700 C1707 0.950 . S
C1701 C1699 1.387 . S
C1701 C1703 1.390 . S
C1701 H1705 0.950 . S
H1702 C1698 0.950 . S
C1703 C1701 1.390 . S
C1703 C1704 1.387 . S
C1703 H1706 0.950 . S
C1704 C1703 1.387 . S
C1704 C1707 1.387 . S
H1705 C1701 0.950 . S
H1706 C1703 0.950 . S
C1707 C1698 1.390 . S
C1707 H1700 0.950 . S
C1707 C1704 1.387 . S
C1708 C1709 1.387 . S
C1708 H1712 0.950 . S
C1708 C1717 1.390 1_655 S
C1709 C1708 1.387 . S
C1709 C1711 1.387 . S
H1710 C1717 0.950 . S
C1711 C1709 1.387 . S
C1711 C1713 1.390 1_655 S
C1711 H1715 0.950 . S
H1712 C1708 0.950 . S
C1713 C1711 1.390 1_455 S
C1713 C1714 1.387 . S
C1713 H1716 0.950 . S
C1714 C1713 1.387 . S
C1714 C1717 1.387 . S
H1715 C1711 0.950 . S
H1716 C1713 0.950 . S
C1717 C1708 1.390 1_455 S
C1717 H1710 0.950 . S
C1717 C1714 1.387 . S
C1718 C1719 1.387 . S
C1718 H1722 0.950 . S
C1718 C1727 1.390 1_655 S
C1719 C1718 1.387 . S
C1719 C1721 1.387 . S
H1720 C1727 0.950 . S
C1721 C1719 1.387 . S
C1721 C1723 1.390 1_655 S
C1721 H1725 0.950 . S
H1722 C1718 0.950 . S
C1723 C1721 1.390 1_455 S
C1723 C1724 1.387 . S
C1723 H1726 0.950 . S
C1724 C1723 1.387 . S
C1724 C1727 1.387 . S
H1725 C1721 0.950 . S
H1726 C1723 0.950 . S
C1727 C1718 1.390 1_455 S
C1727 H1720 0.950 . S
C1727 C1724 1.387 . S
C1728 C1729 1.387 . S
C1728 H1732 0.950 . S
C1728 C1737 1.390 1_565 S
C1729 C1728 1.387 . S
C1729 C1731 1.387 . S
H1730 C1737 0.950 . S
C1731 C1729 1.387 . S
C1731 C1733 1.390 1_565 S
C1731 H1735 0.950 . S
H1732 C1728 0.950 . S
C1733 C1731 1.390 1_545 S
C1733 C1734 1.387 . S
C1733 H1736 0.950 . S
C1734 C1733 1.387 . S
C1734 C1737 1.387 . S
H1735 C1731 0.950 . S
H1736 C1733 0.950 . S
C1737 C1728 1.390 1_545 S
C1737 H1730 0.950 . S
C1737 C1734 1.387 . S
C1738 C1739 1.387 . S
C1738 H1742 0.950 . S
C1738 C1747 1.390 . S
C1739 C1738 1.387 . S
C1739 C1741 1.387 . S
H1740 C1747 0.950 . S
C1741 C1739 1.387 . S
C1741 C1743 1.390 . S
C1741 H1745 0.950 . S
H1742 C1738 0.950 . S
C1743 C1741 1.390 . S
C1743 C1744 1.387 . S
C1743 H1746 0.950 . S
C1744 C1743 1.387 . S
C1744 C1747 1.387 . S
H1745 C1741 0.950 . S
H1746 C1743 0.950 . S
C1747 C1738 1.390 . S
C1747 H1740 0.950 . S
C1747 C1744 1.387 . S
C1748 C1749 1.387 . S
C1748 H1752 0.950 . S
C1748 C1757 1.390 1_565 S
C1749 C1748 1.387 . S
C1749 C1751 1.387 . S
H1750 C1757 0.950 . S
C1751 C1749 1.387 . S
C1751 C1753 1.390 1_565 S
C1751 H1755 0.950 . S
H1752 C1748 0.950 . S
C1753 C1751 1.390 1_545 S
C1753 C1754 1.387 . S
C1753 H1756 0.950 . S
C1754 C1753 1.387 . S
C1754 C1757 1.387 . S
H1755 C1751 0.950 . S
H1756 C1753 0.950 . S
C1757 C1748 1.390 1_545 S
C1757 H1750 0.950 . S
C1757 C1754 1.387 . S
C1758 C1759 1.387 . S
C1758 H1762 0.950 . S
C1758 C1767 1.390 1_554 S
C1759 C1758 1.387 . S
C1759 C1761 1.387 . S
H1760 C1767 0.950 . S
C1761 C1759 1.387 . S
C1761 C1763 1.390 1_554 S
C1761 H1765 0.950 . S
H1762 C1758 0.950 . S
C1763 C1761 1.390 1_556 S
C1763 C1764 1.387 . S
C1763 H1766 0.950 . S
C1764 C1763 1.387 . S
C1764 C1767 1.387 . S
H1765 C1761 0.950 . S
H1766 C1763 0.950 . S
C1767 C1758 1.390 1_556 S
C1767 H1760 0.950 . S
C1767 C1764 1.387 . S
C1768 C1769 1.387 . S
C1768 H1772 0.950 . S
C1768 C1777 1.390 1_565 S
C1769 C1768 1.387 . S
C1769 C1771 1.387 . S
H1770 C1777 0.950 . S
C1771 C1769 1.387 . S
C1771 C1773 1.390 1_565 S
C1771 H1775 0.950 . S
H1772 C1768 0.950 . S
C1773 C1771 1.390 1_545 S
C1773 C1774 1.387 . S
C1773 H1776 0.950 . S
C1774 C1773 1.387 . S
C1774 C1777 1.387 . S
H1775 C1771 0.950 . S
H1776 C1773 0.950 . S
C1777 C1768 1.390 1_545 S
C1777 H1770 0.950 . S
C1777 C1774 1.387 . S
C1778 C1779 1.387 . S
C1778 H1782 0.950 . S
C1778 C1787 1.390 . S
C1779 C1778 1.387 . S
C1779 C1781 1.387 . S
H1780 C1787 0.950 . S
C1781 C1779 1.387 . S
C1781 C1783 1.390 . S
C1781 H1785 0.950 . S
H1782 C1778 0.950 . S
C1783 C1781 1.390 . S
C1783 C1784 1.387 . S
C1783 H1786 0.950 . S
C1784 C1783 1.387 . S
C1784 C1787 1.387 . S
H1785 C1781 0.950 . S
H1786 C1783 0.950 . S
C1787 C1778 1.390 . S
C1787 H1780 0.950 . S
C1787 C1784 1.387 . S
C1788 C1789 1.387 . S
C1788 H1792 0.950 . S
C1788 C1797 1.390 1_545 S
C1789 C1788 1.387 . S
C1789 C1791 1.387 . S
H1790 C1797 0.950 . S
C1791 C1789 1.387 . S
C1791 C1793 1.390 1_545 S
C1791 H1795 0.950 . S
H1792 C1788 0.950 . S
C1793 C1791 1.390 1_565 S
C1793 C1794 1.387 . S
C1793 H1796 0.950 . S
C1794 C1793 1.387 . S
C1794 C1797 1.387 . S
H1795 C1791 0.950 . S
H1796 C1793 0.950 . S
C1797 C1788 1.390 1_565 S
C1797 H1790 0.950 . S
C1797 C1794 1.387 . S
C1798 C1799 1.387 . S
C1798 H1802 0.950 . S
C1798 C1807 1.390 1_556 S
C1799 C1798 1.387 . S
C1799 C1801 1.387 . S
H1800 C1807 0.950 . S
C1801 C1799 1.387 . S
C1801 C1803 1.390 1_556 S
C1801 H1805 0.950 . S
H1802 C1798 0.950 . S
C1803 C1801 1.390 1_554 S
C1803 C1804 1.387 . S
C1803 H1806 0.950 . S
C1804 C1803 1.387 . S
C1804 C1807 1.387 . S
H1805 C1801 0.950 . S
H1806 C1803 0.950 . S
C1807 C1798 1.390 1_554 S
C1807 H1800 0.950 . S
C1807 C1804 1.387 . S
C1808 C1809 1.387 . S
C1808 H1812 0.950 . S
C1808 C1817 1.390 . S
C1809 C1808 1.387 . S
C1809 C1811 1.387 . S
H1810 C1817 0.950 . S
C1811 C1809 1.387 . S
C1811 C1813 1.390 . S
C1811 H1815 0.950 . S
H1812 C1808 0.950 . S
C1813 C1811 1.390 . S
C1813 C1814 1.387 . S
C1813 H1816 0.950 . S
C1814 C1813 1.387 . S
C1814 C1817 1.387 . S
H1815 C1811 0.950 . S
H1816 C1813 0.950 . S
C1817 C1808 1.390 . S
C1817 H1810 0.950 . S
C1817 C1814 1.387 . S
C1818 C1819 1.387 . S
C1818 H1822 0.950 . S
C1818 C1827 1.390 1_554 S
C1819 C1818 1.387 . S
C1819 C1821 1.387 . S
H1820 C1827 0.950 . S
C1821 C1819 1.387 . S
C1821 C1823 1.390 1_554 S
C1821 H1825 0.950 . S
H1822 C1818 0.950 . S
C1823 C1821 1.390 1_556 S
C1823 C1824 1.387 . S
C1823 H1826 0.950 . S
C1824 C1823 1.387 . S
C1824 C1827 1.387 . S
H1825 C1821 0.950 . S
H1826 C1823 0.950 . S
C1827 C1818 1.390 1_556 S
C1827 H1820 0.950 . S
C1827 C1824 1.387 . S
C1828 C1829 1.387 . S
C1828 H1832 0.950 . S
C1828 C1837 1.390 . S
C1829 C1828 1.387 . S
C1829 C1831 1.387 . S
H1830 C1837 0.950 . S
C1831 C1829 1.387 . S
C1831 C1833 1.390 . S
C1831 H1835 0.950 . S
H1832 C1828 0.950 . S
C1833 C1831 1.390 . S
C1833 C1834 1.387 . S
C1833 H1836 0.950 . S
C1834 C1833 1.387 . S
C1834 C1837 1.387 . S
H1835 C1831 0.950 . S
H1836 C1833 0.950 . S
C1837 C1828 1.390 . S
C1837 H1830 0.950 . S
C1837 C1834 1.387 . S
C1838 C1839 1.387 . S
C1838 H1842 0.950 . S
C1838 C1847 1.390 . S
C1839 C1838 1.387 . S
C1839 C1841 1.387 . S
H1840 C1847 0.950 . S
C1841 C1839 1.387 . S
C1841 C1843 1.390 . S
C1841 H1845 0.950 . S
H1842 C1838 0.950 . S
C1843 C1841 1.390 . S
C1843 C1844 1.387 . S
C1843 H1846 0.950 . S
C1844 C1843 1.387 . S
C1844 C1847 1.387 . S
H1845 C1841 0.950 . S
H1846 C1843 0.950 . S
C1847 C1838 1.390 . S
C1847 H1840 0.950 . S
C1847 C1844 1.387 . S
C1848 C1849 1.387 . S
C1848 H1852 0.950 . S
C1848 C1857 1.390 . S
C1849 C1848 1.387 . S
C1849 C1851 1.387 . S
H1850 C1857 0.950 . S
C1851 C1849 1.387 . S
C1851 C1853 1.390 . S
C1851 H1855 0.950 . S
H1852 C1848 0.950 . S
C1853 C1851 1.390 . S
C1853 C1854 1.387 . S
C1853 H1856 0.950 . S
C1854 C1853 1.387 . S
C1854 C1857 1.387 . S
H1855 C1851 0.950 . S
H1856 C1853 0.950 . S
C1857 C1848 1.390 . S
C1857 H1850 0.950 . S
C1857 C1854 1.387 . S
C1858 C1859 1.387 . S
C1858 H1862 0.950 . S
C1858 C1867 1.390 1_554 S
C1859 C1858 1.387 . S
C1859 C1861 1.387 . S
H1860 C1867 0.950 . S
C1861 C1859 1.387 . S
C1861 C1863 1.390 1_554 S
C1861 H1865 0.950 . S
H1862 C1858 0.950 . S
C1863 C1861 1.390 1_556 S
C1863 C1864 1.387 . S
C1863 H1866 0.950 . S
C1864 C1863 1.387 . S
C1864 C1867 1.387 . S
H1865 C1861 0.950 . S
H1866 C1863 0.950 . S
C1867 C1858 1.390 1_556 S
C1867 H1860 0.950 . S
C1867 C1864 1.387 . S
C1868 C1869 1.387 . S
C1868 H1872 0.950 . S
C1868 C1877 1.390 . S
C1869 C1868 1.387 . S
C1869 C1871 1.387 . S
H1870 C1877 0.950 . S
C1871 C1869 1.387 . S
C1871 C1873 1.390 . S
C1871 H1875 0.950 . S
H1872 C1868 0.950 . S
C1873 C1871 1.390 . S
C1873 C1874 1.387 . S
C1873 H1876 0.950 . S
C1874 C1873 1.387 . S
C1874 C1877 1.387 . S
H1875 C1871 0.950 . S
H1876 C1873 0.950 . S
C1877 C1868 1.390 . S
C1877 H1870 0.950 . S
C1877 C1874 1.387 . S
C1878 C1879 1.387 . S
C1878 H1882 0.950 . S
C1878 C1887 1.390 . S
C1879 C1878 1.387 . S
C1879 C1881 1.387 . S
H1880 C1887 0.950 . S
C1881 C1879 1.387 . S
C1881 C1883 1.390 . S
C1881 H1885 0.950 . S
H1882 C1878 0.950 . S
C1883 C1881 1.390 . S
C1883 C1884 1.387 . S
C1883 H1886 0.950 . S
C1884 C1883 1.387 . S
C1884 C1887 1.387 . S
H1885 C1881 0.950 . S
H1886 C1883 0.950 . S
C1887 C1878 1.390 . S
C1887 H1880 0.950 . S
C1887 C1884 1.387 . S
C1089 C9 1.388 . S
C1094 C825 1.388 . S
C1099 C315 1.392 . S
C1104 C43 1.392 . S
C1109 C893 1.391 . S
C1114 C77 1.391 . S
C1119 C111 1.389 . S
C1124 C383 1.389 . S
C1129 C961 1.387 . S
C1134 C145 1.387 . S
C1139 C451 1.389 . S
C1144 C179 1.389 . S
C1149 C213 1.387 . S
C1154 C1029 1.387 . S
C1159 C247 1.392 . S
C1164 C519 1.392 . S
C1169 C281 1.393 . S
C1174 C553 1.393 . S
C1179 C349 1.387 . S
C1184 C621 1.387 . S
C1189 C689 1.392 . S
C1194 C417 1.392 . S
C1199 C485 1.392 . S
C1204 C757 1.392 . S
C1209 C587 1.392 . S
C1214 C859 1.392 . S
C1219 C927 1.387 . S
C1224 C655 1.387 . S
C1229 C995 1.388 . S
C1234 C723 1.388 . S
C1239 C791 1.388 . S
C1244 C1063 1.388 . S
C1249 C2 1.275 . S
C1254 C855 1.189 . S
C1259 C345 1.191 . S
C1264 C36 1.275 . S
C1269 C70 1.274 . S
C1274 C923 1.190 . S
C1279 C277 1.193 . S
C1284 C104 1.274 . S
C1289 C138 1.275 . S
C1294 C1059 1.189 . S
C1299 C172 1.275 . S
C1304 C413 1.191 . S
C1309 C991 1.189 . S
C1314 C206 1.274 . S
C1319 C481 1.193 . S
C1324 C240 1.274 . S
C1329 C583 1.194 . S
C1334 C274 1.274 . S
C1339 C73 1.189 . S
C1344 C308 1.275 . S
C1349 C342 1.275 . S
C1354 C651 1.189 . S
C1359 C376 1.274 . S
C1364 C5 1.193 . S
C1369 C787 1.191 . S
C1374 C410 1.275 . S
C1379 C141 1.194 . S
C1384 C444 1.274 . S
C1389 C478 1.274 . S
C1394 C719 1.194 . S
C1399 C512 1.274 . S
C1404 C209 1.192 . S
C1409 C311 1.189 . S
C1414 C546 1.275 . S
C1419 C889 1.191 . S
C1424 C580 1.274 . S
C1429 C379 1.190 . S
C1434 C614 1.275 . S
C1439 C648 1.275 . S
C1444 C821 1.190 . S
C1449 C515 1.192 . S
C1454 C682 1.274 . S
C1459 C716 1.275 . S
C1464 C957 1.191 . S
C1469 C447 1.194 . S
C1474 C750 1.274 . S
C1479 C784 1.274 . S
C1484 C1025 1.192 . S
C1489 C39 1.193 . S
C1494 C818 1.275 . S
C1499 C617 1.192 . S
C1504 C852 1.275 . S
C1509 C107 1.189 . S
C1514 C886 1.275 . S
C1519 C920 1.275 . S
C1524 C549 1.189 . S
C1529 C954 1.275 . S
C1534 C243 1.191 . S
C1539 C685 1.189 . S
C1544 C988 1.275 . S
C1549 C175 1.192 . S
C1554 C1022 1.275 . S
C1559 C1056 1.274 . S
C1564 C753 1.194 . S
C1569 C645 1.201 . S
C1574 C33 1.201 . S
C1579 C679 1.203 . S
C1584 C67 1.203 . S
C1589 C577 1.203 . S
C1594 C101 1.203 . S
C1599 C611 1.203 . S
C1604 C135 1.203 . S
C1609 C169 1.201 . S
C1614 C781 1.201 . S
C1619 C815 1.201 . S
C1624 C203 1.201 . S
C1629 C237 1.203 . S
C1634 C713 1.203 . S
C1639 C747 1.201 . S
C1644 C271 1.201 . S
C1649 C917 1.203 . S
C1654 C305 1.203 . S
C1659 C339 1.203 . S
C1664 C951 1.203 . S
C1669 C373 1.203 . S
C1674 C849 1.203 . S
C1679 C407 1.201 . S
C1684 C883 1.201 . S
C1689 C1053 1.201 . S
C1694 C441 1.201 . S
C1699 C475 1.201 . S
C1704 C1087 1.201 . S
C1709 C509 1.203 . S
C1714 C985 1.203 . S
C1719 C543 1.201 . S
C1724 C1019 1.201 . S
C1729 C156 2.038 . S
C1734 C20 2.038 . S
C1739 C190 2.038 . S
C1744 C54 2.038 . S
C1749 C88 2.038 . S
C1754 C224 2.038 . S
C1759 C258 2.038 . S
C1764 C122 2.038 . S
C1769 C292 2.038 . S
C1774 C428 2.038 . S
C1779 C462 2.038 . S
C1784 C326 2.038 . S
C1789 C360 2.038 . S
C1794 C496 2.038 . S
C1799 C530 2.038 . S
C1804 C394 2.038 . S
C1809 C564 2.038 . S
C1814 C700 2.038 . S
C1819 C734 2.038 . S
C1824 C598 2.038 . S
C1829 C768 2.038 . S
C1834 C632 2.038 . S
C1839 C666 2.038 . S
C1844 C802 2.038 . S
C1849 C972 2.038 . S
C1854 C836 2.038 . S
C1859 C870 2.038 . S
C1864 C1006 2.038 . S
C1869 C904 2.038 . S
C1874 C1040 2.038 . S
C1879 C938 2.038 . S
C1884 C1074 2.038 . S
