# Generated by pormake.
# Topology ukb, (4)-cn, num edge types: 1
# Building blocks:
#     Node 0, Type 0, BuildingBlock: UXUYUI_clean_sbu_0, # of connection points: 4
#     Node 1, Type 0, BuildingBlock: UXUYUI_clean_sbu_0, # of connection points: 4
#     Node 2, Type 0, BuildingBlock: UXUYUI_clean_sbu_0, # of connection points: 4
#     Node 3, Type 0, BuildingBlock: UXUYUI_clean_sbu_0, # of connection points: 4
#     Node 4, Type 0, BuildingBlock: UXUYUI_clean_sbu_0, # of connection points: 4
#     Node 5, Type 0, BuildingBlock: UXUYUI_clean_sbu_0, # of connection points: 4
#     Node 6, Type 0, BuildingBlock: UXUYUI_clean_sbu_0, # of connection points: 4
#     Node 7, Type 0, BuildingBlock: UXUYUI_clean_sbu_0, # of connection points: 4
#     Node 8, Type 0, BuildingBlock: UXUYUI_clean_sbu_0, # of connection points: 4
#     Node 9, Type 0, BuildingBlock: UXUYUI_clean_sbu_0, # of connection points: 4
#     Node 10, Type 0, BuildingBlock: UXUYUI_clean_sbu_0, # of connection points: 4
#     Node 11, Type 0, BuildingBlock: UXUYUI_clean_sbu_0, # of connection points: 4
#     Node 12, Type 0, BuildingBlock: UXUYUI_clean_sbu_0, # of connection points: 4
#     Node 13, Type 0, BuildingBlock: UXUYUI_clean_sbu_0, # of connection points: 4
#     Node 14, Type 0, BuildingBlock: UXUYUI_clean_sbu_0, # of connection points: 4
#     Node 15, Type 0, BuildingBlock: UXUYUI_clean_sbu_0, # of connection points: 4
#     Edge 16, Type (0, 0), BuildingBlock: KIFKEQ_clean_linker_1, # of connection points: 2
#     Edge 17, Type (0, 0), BuildingBlock: KIFKEQ_clean_linker_1, # of connection points: 2
#     Edge 18, Type (0, 0), BuildingBlock: KIFKEQ_clean_linker_1, # of connection points: 2
#     Edge 19, Type (0, 0), BuildingBlock: KIFKEQ_clean_linker_1, # of connection points: 2
#     Edge 20, Type (0, 0), BuildingBlock: KIFKEQ_clean_linker_1, # of connection points: 2
#     Edge 21, Type (0, 0), BuildingBlock: KIFKEQ_clean_linker_1, # of connection points: 2
#     Edge 22, Type (0, 0), BuildingBlock: KIFKEQ_clean_linker_1, # of connection points: 2
#     Edge 23, Type (0, 0), BuildingBlock: KIFKEQ_clean_linker_1, # of connection points: 2
#     Edge 24, Type (0, 0), BuildingBlock: KIFKEQ_clean_linker_1, # of connection points: 2
#     Edge 25, Type (0, 0), BuildingBlock: KIFKEQ_clean_linker_1, # of connection points: 2
#     Edge 26, Type (0, 0), BuildingBlock: KIFKEQ_clean_linker_1, # of connection points: 2
#     Edge 27, Type (0, 0), BuildingBlock: KIFKEQ_clean_linker_1, # of connection points: 2
#     Edge 28, Type (0, 0), BuildingBlock: KIFKEQ_clean_linker_1, # of connection points: 2
#     Edge 29, Type (0, 0), BuildingBlock: KIFKEQ_clean_linker_1, # of connection points: 2
#     Edge 30, Type (0, 0), BuildingBlock: KIFKEQ_clean_linker_1, # of connection points: 2
#     Edge 31, Type (0, 0), BuildingBlock: KIFKEQ_clean_linker_1, # of connection points: 2
#     Edge 32, Type (0, 0), BuildingBlock: KIFKEQ_clean_linker_1, # of connection points: 2
#     Edge 33, Type (0, 0), BuildingBlock: KIFKEQ_clean_linker_1, # of connection points: 2
#     Edge 34, Type (0, 0), BuildingBlock: KIFKEQ_clean_linker_1, # of connection points: 2
#     Edge 35, Type (0, 0), BuildingBlock: KIFKEQ_clean_linker_1, # of connection points: 2
#     Edge 36, Type (0, 0), BuildingBlock: KIFKEQ_clean_linker_1, # of connection points: 2
#     Edge 37, Type (0, 0), BuildingBlock: KIFKEQ_clean_linker_1, # of connection points: 2
#     Edge 38, Type (0, 0), BuildingBlock: KIFKEQ_clean_linker_1, # of connection points: 2
#     Edge 39, Type (0, 0), BuildingBlock: KIFKEQ_clean_linker_1, # of connection points: 2
#     Edge 40, Type (0, 0), BuildingBlock: KIFKEQ_clean_linker_1, # of connection points: 2
#     Edge 41, Type (0, 0), BuildingBlock: KIFKEQ_clean_linker_1, # of connection points: 2
#     Edge 42, Type (0, 0), BuildingBlock: KIFKEQ_clean_linker_1, # of connection points: 2
#     Edge 43, Type (0, 0), BuildingBlock: KIFKEQ_clean_linker_1, # of connection points: 2
#     Edge 44, Type (0, 0), BuildingBlock: KIFKEQ_clean_linker_1, # of connection points: 2
#     Edge 45, Type (0, 0), BuildingBlock: KIFKEQ_clean_linker_1, # of connection points: 2
#     Edge 46, Type (0, 0), BuildingBlock: KIFKEQ_clean_linker_1, # of connection points: 2
#     Edge 47, Type (0, 0), BuildingBlock: KIFKEQ_clean_linker_1, # of connection points: 2
# Relax obj value: 0.234
# Max RMSD: 0.198
# Mean RMSD: 0.198
data_MOF--net-ukb--node1-UXUYUI_clean_sbu_0--edge1-KIFKEQ_clean_linker_1
_symmetry_space_group_name_H-M    P1
_symmetry_Int_Tables_number       1
_symmetry_cell_setting            triclinic
loop_
_symmetry_equiv_pos_as_xyz
'x, y, z'
_cell_length_a     61.65985
_cell_length_b     61.656484
_cell_length_c     59.15889
_cell_angle_alpha  90.000048
_cell_angle_beta   89.99426
_cell_angle_gamma 89.99991
loop_
_atom_site_label
_atom_site_type_symbol
_atom_site_fract_x
_atom_site_fract_y
_atom_site_fract_z
_atom_type_partial_charge
Li0 Li 0.50819 0.22086 0.16235 0.0
Li1 Li 0.51874 0.2371 0.19955 0.0
Li2 Li 0.52667 0.19948 0.19145 0.0
Li3 Li 0.48964 0.21187 0.19732 0.0
C4 C 0.55581 0.21874 0.16439 0.0
N5 N 0.59299 0.2044 0.14307 0.0
C6 C 0.57604 0.22694 0.17075 0.0
C7 C 0.55448 0.20323 0.14721 0.0
C8 C 0.59465 0.21948 0.15976 0.0
C9 C 0.57347 0.1962 0.13663 0.0
C10 C 0.46979 0.24634 0.18106 0.0
C11 C 0.43768 0.26221 0.19748 0.0
N12 N 0.4262 0.2566 0.17874 0.0
C13 C 0.45771 0.2409 0.16189 0.0
C14 C 0.45974 0.25724 0.19894 0.0
C15 C 0.43569 0.24617 0.16106 0.0
C16 C 0.49537 0.21273 0.11698 0.0
N17 N 0.50667 0.22619 0.13085 0.0
C18 C 0.51788 0.24785 0.09949 0.0
C19 C 0.51775 0.24352 0.12265 0.0
C20 C 0.50644 0.2342 0.08466 0.0
C21 C 0.49498 0.21649 0.09369 0.0
H22 H 0.48675 0.19905 0.12402 0.0
H23 H 0.52662 0.25389 0.13414 0.0
C24 C 0.55107 0.25945 0.2226 0.0
N25 N 0.53099 0.26191 0.21354 0.0
C26 C 0.56148 0.27694 0.23283 0.0
C27 C 0.53017 0.29918 0.22453 0.0
C28 C 0.52038 0.28121 0.21434 0.0
C29 C 0.55108 0.29721 0.23384 0.0
H30 H 0.55904 0.24384 0.22173 0.0
H31 H 0.50439 0.28265 0.207 0.0
C32 C 0.49363 0.17091 0.17776 0.0
N33 N 0.47898 0.1295 0.18714 0.0
C34 C 0.49491 0.16267 0.19976 0.0
C35 C 0.48487 0.15807 0.16057 0.0
C36 C 0.48742 0.14171 0.20415 0.0
C37 C 0.47758 0.13718 0.16564 0.0
C38 C 0.51704 0.21961 0.24054 0.0
C39 C 0.53307 0.21081 0.25451 0.0
C40 C 0.5043 0.23673 0.24849 0.0
C41 C 0.53644 0.21967 0.27596 0.0
C42 C 0.50818 0.24517 0.27002 0.0
N43 N 0.52407 0.23656 0.28319 0.0
C44 C 0.56488 0.1841 0.21004 0.0
C45 C 0.54782 0.1578 0.18688 0.0
C46 C 0.58105 0.16939 0.216 0.0
N47 N 0.54836 0.17793 0.1963 0.0
C48 C 0.56375 0.14253 0.19232 0.0
C49 C 0.58039 0.14815 0.20745 0.0
H50 H 0.56535 0.20048 0.21654 0.0
H51 H 0.53496 0.15346 0.17534 0.0
C52 C 0.44653 0.19608 0.19496 0.0
N53 N 0.46246 0.20254 0.20937 0.0
C54 C 0.42816 0.18541 0.2032 0.0
C55 C 0.44276 0.18861 0.24096 0.0
C56 C 0.46072 0.19936 0.23203 0.0
C57 C 0.42648 0.18101 0.22641 0.0
H58 H 0.44866 0.19808 0.17694 0.0
H59 H 0.47379 0.20404 0.24311 0.0
O60 O 0.53747 0.22534 0.17541 0.0
O61 O 0.49132 0.24107 0.18225 0.0
O62 O 0.50031 0.19162 0.17309 0.0
O63 O 0.51369 0.21138 0.21931 0.0
H64 H 0.57736 0.23888 0.18409 0.0
H65 H 0.53898 0.19646 0.14234 0.0
H66 H 0.61042 0.22566 0.16452 0.0
H67 H 0.57269 0.18414 0.12337 0.0
H68 H 0.42969 0.27057 0.21123 0.0
H69 H 0.46517 0.23246 0.1479 0.0
H70 H 0.46884 0.26189 0.21377 0.0
H71 H 0.42613 0.2419 0.14639 0.0
H72 H 0.5267 0.26183 0.0933 0.0
H73 H 0.48614 0.20544 0.08286 0.0
H74 H 0.57771 0.27469 0.23941 0.0
H75 H 0.52144 0.3144 0.22514 0.0
H76 H 0.50158 0.17228 0.21334 0.0
H77 H 0.48366 0.16419 0.14348 0.0
H78 H 0.48829 0.13516 0.22109 0.0
H79 H 0.47076 0.12708 0.15249 0.0
H80 H 0.54267 0.19714 0.249 0.0
H81 H 0.49166 0.24352 0.23804 0.0
H82 H 0.54885 0.21306 0.2869 0.0
H83 H 0.49856 0.25857 0.27625 0.0
H84 H 0.59393 0.17457 0.22722 0.0
H85 H 0.56274 0.12636 0.18524 0.0
H86 H 0.41612 0.17946 0.1914 0.0
H87 H 0.44203 0.18549 0.25897 0.0
Li88 Li 0.30194 0.52492 0.69066 0.0
Li89 Li 0.28792 0.48819 0.69696 0.0
Li90 Li 0.27798 0.50867 0.66326 0.0
Li91 Li 0.26389 0.5186 0.70054 0.0
C92 C 0.32881 0.49961 0.66893 0.0
N93 N 0.3732 0.50314 0.66372 0.0
C94 C 0.34272 0.48654 0.68168 0.0
C95 C 0.33747 0.5144 0.65345 0.0
C96 C 0.36512 0.48858 0.6788 0.0
C97 C 0.35996 0.51598 0.65111 0.0
C98 C 0.28451 0.51941 0.73963 0.0
C99 C 0.26333 0.51605 0.77372 0.0
N100 N 0.27165 0.53516 0.78125 0.0
C101 C 0.29294 0.53897 0.74774 0.0
C102 C 0.26968 0.50778 0.75276 0.0
C103 C 0.28621 0.54667 0.76881 0.0
C104 C 0.32422 0.56476 0.68791 0.0
N105 N 0.32558 0.54412 0.6958 0.0
C106 C 0.35919 0.55203 0.71416 0.0
C107 C 0.34261 0.53752 0.70868 0.0
C108 C 0.35807 0.57362 0.70657 0.0
C109 C 0.34035 0.57983 0.69308 0.0
H110 H 0.31025 0.56973 0.67818 0.0
H111 H 0.34304 0.52112 0.71512 0.0
C112 C 0.29939 0.4441 0.69266 0.0
N113 N 0.29591 0.46031 0.70781 0.0
C114 C 0.30808 0.42434 0.69976 0.0
C115 C 0.30915 0.43823 0.73796 0.0
C116 C 0.30031 0.45767 0.73013 0.0
C117 C 0.31358 0.42137 0.72262 0.0
H118 H 0.2962 0.44684 0.67492 0.0
H119 H 0.29788 0.47099 0.74172 0.0
C120 C 0.2676 0.54998 0.65991 0.0
N121 N 0.25006 0.57281 0.62413 0.0
C122 C 0.24555 0.55524 0.65981 0.0
C123 C 0.28076 0.55645 0.64189 0.0
C124 C 0.23699 0.56679 0.64156 0.0
C125 C 0.27157 0.56793 0.62392 0.0
C126 C 0.25115 0.47101 0.68354 0.0
C127 C 0.25206 0.45853 0.66384 0.0
C128 C 0.24327 0.46185 0.70352 0.0
C129 C 0.24522 0.43694 0.66453 0.0
C130 C 0.23662 0.44019 0.70352 0.0
N131 N 0.23773 0.42828 0.68419 0.0
C132 C 0.28684 0.50178 0.61691 0.0
C133 C 0.25022 0.51018 0.62535 0.0
C134 C 0.28214 0.50089 0.59385 0.0
N135 N 0.27101 0.50663 0.63204 0.0
C136 C 0.24483 0.50967 0.60244 0.0
C137 C 0.26093 0.50511 0.58628 0.0
H138 H 0.30314 0.49861 0.62274 0.0
H139 H 0.2379 0.5137 0.63783 0.0
C140 C 0.24348 0.55181 0.72405 0.0
N141 N 0.24019 0.53146 0.71596 0.0
C142 C 0.22669 0.56304 0.73456 0.0
C143 C 0.20316 0.53234 0.72786 0.0
C144 C 0.22058 0.52154 0.71772 0.0
C145 C 0.20604 0.55351 0.73627 0.0
H146 H 0.25916 0.55942 0.72202 0.0
H147 H 0.21835 0.50547 0.71079 0.0
O148 O 0.30684 0.4981 0.67172 0.0
O149 O 0.29063 0.51177 0.71889 0.0
O150 O 0.27622 0.53834 0.67742 0.0
O151 O 0.25806 0.49208 0.6833 0.0
H152 H 0.33634 0.4751 0.69382 0.0
H153 H 0.32694 0.52473 0.64356 0.0
H154 H 0.37608 0.47863 0.68861 0.0
H155 H 0.36688 0.52744 0.6393 0.0
H156 H 0.25175 0.50729 0.78399 0.0
H157 H 0.30438 0.54822 0.73779 0.0
H158 H 0.26297 0.49265 0.74671 0.0
H159 H 0.2925 0.56183 0.77525 0.0
H160 H 0.3726 0.54645 0.72445 0.0
H161 H 0.33851 0.59637 0.68725 0.0
H162 H 0.31103 0.41175 0.68737 0.0
H163 H 0.31349 0.43689 0.75564 0.0
H164 H 0.2351 0.55029 0.67355 0.0
H165 H 0.29783 0.55241 0.64164 0.0
H166 H 0.21994 0.57089 0.6412 0.0
H167 H 0.28153 0.5729 0.60979 0.0
H168 H 0.25816 0.46537 0.64825 0.0
H169 H 0.24244 0.47131 0.71889 0.0
H170 H 0.24592 0.42704 0.64945 0.0
H171 H 0.23059 0.43283 0.71889 0.0
H172 H 0.29499 0.49682 0.58212 0.0
H173 H 0.22832 0.51324 0.59745 0.0
H174 H 0.22988 0.57912 0.74112 0.0
H175 H 0.18749 0.52444 0.72846 0.0
Li176 Li 0.97012 0.30305 0.18919 0.0
Li177 Li 0.00702 0.2891 0.19464 0.0
Li178 Li 0.98605 0.27944 0.16111 0.0
Li179 Li 0.97687 0.26494 0.19847 0.0
C180 C 0.9952 0.33012 0.16647 0.0
N181 N 0.99219 0.37438 0.15988 0.0
C182 C 0.00908 0.34419 0.17805 0.0
C183 C 0.97986 0.33856 0.15146 0.0
C184 C 0.0073 0.36652 0.17449 0.0
C185 C 0.97856 0.36099 0.1484 0.0
C186 C 0.97585 0.2849 0.23751 0.0
C187 C 0.97896 0.26326 0.27132 0.0
N188 N 0.95933 0.27075 0.27834 0.0
C189 C 0.95576 0.29246 0.2451 0.0
C190 C 0.98762 0.27028 0.25076 0.0
C191 C 0.94768 0.28509 0.26579 0.0
C192 C 0.92955 0.32388 0.18982 0.0
N193 N 0.95086 0.32649 0.19496 0.0
C194 C 0.94365 0.36099 0.21175 0.0
C195 C 0.9581 0.34451 0.2058 0.0
C196 C 0.9214 0.35862 0.20708 0.0
C197 C 0.91448 0.33976 0.19579 0.0
H198 H 0.92413 0.30911 0.18178 0.0
H199 H 0.97504 0.34589 0.21028 0.0
C200 C 0.05075 0.3014 0.18953 0.0
N201 N 0.03503 0.29721 0.20503 0.0
C202 C 0.07059 0.31014 0.19634 0.0
C203 C 0.05785 0.30958 0.23498 0.0
C204 C 0.03828 0.30082 0.22743 0.0
C205 C 0.07416 0.31481 0.21929 0.0
H206 H 0.04755 0.29874 0.17177 0.0
H207 H 0.02534 0.29778 0.23932 0.0
C208 C 0.94449 0.26926 0.15854 0.0
N209 N 0.92045 0.25273 0.1231 0.0
C210 C 0.93969 0.24712 0.15767 0.0
C211 C 0.93695 0.28302 0.14149 0.0
C212 C 0.92752 0.23908 0.13959 0.0
C213 C 0.92487 0.27434 0.12368 0.0
C214 C 0.02435 0.25296 0.18035 0.0
C215 C 0.03629 0.25391 0.1603 0.0
C216 C 0.03426 0.24565 0.20019 0.0
C217 C 0.05807 0.24765 0.16046 0.0
C218 C 0.05609 0.23958 0.19966 0.0
N219 N 0.06744 0.2407 0.17998 0.0
C220 C 0.99258 0.28922 0.11492 0.0
C221 C 0.98375 0.25252 0.12244 0.0
C222 C 0.99348 0.28504 0.09176 0.0
N223 N 0.98756 0.27309 0.12967 0.0
C224 C 0.98427 0.24765 0.09939 0.0
C225 C 0.98913 0.26404 0.08365 0.0
H226 H 0.99602 0.30532 0.12115 0.0
H227 H 0.98016 0.23993 0.13459 0.0
C228 C 0.94333 0.24366 0.22054 0.0
N229 N 0.96435 0.24117 0.21419 0.0
C230 C 0.93264 0.22715 0.23214 0.0
C231 C 0.96536 0.20559 0.23018 0.0
C232 C 0.97549 0.22265 0.2187 0.0
C233 C 0.94364 0.20777 0.23707 0.0
H234 H 0.93484 0.2585 0.21645 0.0
H235 H 0.99217 0.22109 0.21332 0.0
O236 O 0.99657 0.30821 0.16984 0.0
O237 O 0.98381 0.29151 0.21706 0.0
O238 O 0.95669 0.2774 0.17588 0.0
O239 O 0.00312 0.25933 0.18062 0.0
H240 H 0.02097 0.33799 0.18983 0.0
H241 H 0.96895 0.32792 0.14242 0.0
H242 H 0.01788 0.3776 0.1834 0.0
H243 H 0.96669 0.36774 0.13692 0.0
H244 H 0.98781 0.25182 0.28166 0.0
H245 H 0.94639 0.30372 0.23506 0.0
H246 H 0.00314 0.26416 0.24507 0.0
H247 H 0.9321 0.29071 0.27182 0.0
H248 H 0.94986 0.37528 0.2202 0.0
H249 H 0.8975 0.33685 0.1923 0.0
H250 H 0.08276 0.31375 0.18369 0.0
H251 H 0.05972 0.31325 0.25278 0.0
H252 H 0.9455 0.23622 0.17065 0.0
H253 H 0.94053 0.30019 0.14192 0.0
H254 H 0.92376 0.22196 0.13863 0.0
H255 H 0.91904 0.28478 0.1103 0.0
H256 H 0.02888 0.25958 0.14481 0.0
H257 H 0.02527 0.24491 0.21587 0.0
H258 H 0.06754 0.24839 0.14509 0.0
H259 H 0.06401 0.23402 0.21491 0.0
H260 H 0.99779 0.29809 0.08036 0.0
H261 H 0.98061 0.23128 0.09399 0.0
H262 H 0.91579 0.22937 0.23676 0.0
H263 H 0.97442 0.19094 0.23372 0.0
Li264 Li 0.198 0.97015 0.69079 0.0
Li265 Li 0.21232 0.00702 0.69622 0.0
Li266 Li 0.22099 0.98779 0.66167 0.0
Li267 Li 0.2359 0.97731 0.69881 0.0
C268 C 0.1718 0.00548 0.67471 0.0
N269 N 0.13176 0.02491 0.68022 0.0
C270 C 0.16263 0.00729 0.69626 0.0
C271 C 0.16061 0.01356 0.65599 0.0
C272 C 0.14239 0.01719 0.69869 0.0
C273 C 0.14036 0.02328 0.65911 0.0
C274 C 0.21819 0.9771 0.73911 0.0
C275 C 0.24271 0.9824 0.77043 0.0
N276 N 0.23497 0.96403 0.78027 0.0
C277 C 0.21026 0.95846 0.74972 0.0
C278 C 0.23433 0.98933 0.74972 0.0
C279 C 0.21902 0.95206 0.77045 0.0
C280 C 0.18324 0.92978 0.70389 0.0
N281 N 0.17576 0.94901 0.69583 0.0
C282 C 0.13913 0.93655 0.69885 0.0
C283 C 0.15419 0.9524 0.69253 0.0
C284 C 0.14639 0.917 0.70843 0.0
C285 C 0.16883 0.91352 0.71037 0.0
H286 H 0.20051 0.92733 0.70593 0.0
H287 H 0.14851 0.96743 0.68537 0.0
C288 C 0.19863 0.05089 0.69314 0.0
N289 N 0.20396 0.0347 0.70775 0.0
C290 C 0.18831 0.06959 0.70103 0.0
C291 C 0.18979 0.05486 0.73887 0.0
C292 C 0.20021 0.03656 0.7303 0.0
C293 C 0.18315 0.07136 0.72407 0.0
H294 H 0.20118 0.0487 0.6752 0.0
H295 H 0.20409 0.02328 0.74147 0.0
C296 C 0.21728 0.94264 0.65995 0.0
N297 N 0.2046 0.91132 0.6293 0.0
C298 C 0.22879 0.92319 0.65831 0.0
C299 C 0.19925 0.94615 0.64608 0.0
C300 C 0.22213 0.90756 0.64269 0.0
C301 C 0.19313 0.93012 0.63067 0.0
C302 C 0.24761 0.02551 0.68154 0.0
C303 C 0.24532 0.03812 0.66206 0.0
C304 C 0.25614 0.03487 0.70114 0.0
C305 C 0.25121 0.05999 0.66263 0.0
C306 C 0.26182 0.05681 0.70105 0.0
N307 N 0.25924 0.06882 0.68196 0.0
C308 C 0.21604 0.00444 0.61721 0.0
C309 C 0.24039 0.97484 0.62068 0.0
C310 C 0.2197 0.0054 0.59392 0.0
N311 N 0.22637 0.98931 0.63002 0.0
C312 C 0.24412 0.97489 0.59741 0.0
C313 C 0.23373 0.99034 0.5838 0.0
H314 H 0.20508 0.01581 0.62513 0.0
H315 H 0.24857 0.96314 0.6313 0.0
C316 C 0.25726 0.94297 0.71917 0.0
N317 N 0.25997 0.96406 0.71321 0.0
C318 C 0.27391 0.93174 0.72996 0.0
C319 C 0.29594 0.96415 0.72818 0.0
C320 C 0.27879 0.9748 0.71742 0.0
C321 C 0.29361 0.9423 0.73458 0.0
H322 H 0.24211 0.93488 0.71548 0.0
H323 H 0.28047 0.99158 0.71243 0.0
O324 O 0.19202 0.9967 0.67203 0.0
O325 O 0.21015 0.98339 0.71853 0.0
O326 O 0.22362 0.95804 0.67523 0.0
O327 O 0.24161 0.00413 0.68139 0.0
H328 H 0.17104 0.00113 0.71096 0.0
H329 H 0.1675 0.01237 0.63921 0.0
H330 H 0.13513 0.01875 0.71526 0.0
H331 H 0.13151 0.0296 0.64476 0.0
H332 H 0.25537 0.99161 0.77867 0.0
H333 H 0.1974 0.94908 0.74216 0.0
H334 H 0.24048 0.00392 0.74194 0.0
H335 H 0.21311 0.93759 0.77876 0.0
H336 H 0.12198 0.93989 0.69694 0.0
H337 H 0.17521 0.89848 0.71709 0.0
H338 H 0.18313 0.08182 0.68905 0.0
H339 H 0.18611 0.05568 0.75676 0.0
H340 H 0.24273 0.92023 0.669 0.0
H341 H 0.19009 0.96106 0.64716 0.0
H342 H 0.23091 0.89243 0.64121 0.0
H343 H 0.17924 0.93262 0.6198 0.0
H344 H 0.23893 0.03117 0.6467 0.0
H345 H 0.25831 0.02536 0.71629 0.0
H346 H 0.24938 0.06996 0.6477 0.0
H347 H 0.26829 0.06427 0.71616 0.0
H348 H 0.21139 0.0175 0.58386 0.0
H349 H 0.25518 0.96315 0.59015 0.0
H350 H 0.27152 0.91482 0.73421 0.0
H351 H 0.3108 0.97294 0.73156 0.0
Li352 Li 0.48991 0.2902 0.80571 0.0
Li353 Li 0.52684 0.30404 0.8111 0.0
Li354 Li 0.52017 0.26572 0.80264 0.0
Li355 Li 0.51075 0.28121 0.83947 0.0
C356 C 0.52033 0.28532 0.76265 0.0
N357 N 0.5348 0.27155 0.72084 0.0
C358 C 0.53965 0.29352 0.75372 0.0
C359 C 0.50828 0.27025 0.75024 0.0
C360 C 0.5467 0.28633 0.73256 0.0
C361 C 0.5159 0.26344 0.72917 0.0
C362 C 0.50198 0.33196 0.83167 0.0
C363 C 0.51908 0.36386 0.84714 0.0
N364 N 0.50597 0.37653 0.83419 0.0
C365 C 0.48865 0.34529 0.81854 0.0
C366 C 0.51728 0.3413 0.84614 0.0
C367 C 0.49092 0.36779 0.82007 0.0
C368 C 0.44581 0.30156 0.81007 0.0
N369 N 0.46193 0.29791 0.79487 0.0
C370 C 0.43954 0.31042 0.76463 0.0
C371 C 0.45911 0.30189 0.77248 0.0
C372 C 0.42273 0.31496 0.78 0.0
C373 C 0.42592 0.30992 0.80294 0.0
H374 H 0.44869 0.29874 0.82785 0.0
H375 H 0.47237 0.29936 0.76085 0.0
C376 C 0.56644 0.32693 0.81351 0.0
N377 N 0.54604 0.32747 0.8049 0.0
C378 C 0.58131 0.34316 0.80804 0.0
C379 C 0.55382 0.36033 0.78505 0.0
C380 C 0.5395 0.34371 0.79092 0.0
C381 C 0.57514 0.36009 0.79347 0.0
H382 H 0.57136 0.31359 0.82418 0.0
H383 H 0.52325 0.34352 0.78403 0.0
C384 C 0.47279 0.25368 0.82033 0.0
N385 N 0.43021 0.23978 0.82007 0.0
C386 C 0.4602 0.25525 0.83991 0.0
C387 C 0.4638 0.24489 0.80068 0.0
C388 C 0.43869 0.24815 0.83942 0.0
C389 C 0.44222 0.23801 0.80087 0.0
C390 C 0.55144 0.27004 0.84297 0.0
C391 C 0.55552 0.24776 0.84394 0.0
C392 C 0.5584 0.28345 0.86059 0.0
C393 C 0.56642 0.23924 0.86264 0.0
C394 C 0.5692 0.27429 0.87902 0.0
N395 N 0.57295 0.25256 0.87966 0.0
C396 C 0.5521 0.24411 0.77796 0.0
C397 C 0.52251 0.22157 0.78818 0.0
C398 C 0.5625 0.22678 0.76742 0.0
N399 N 0.5324 0.24128 0.78782 0.0
C400 C 0.53259 0.20362 0.77825 0.0
C401 C 0.5528 0.20621 0.76766 0.0
H402 H 0.55988 0.25981 0.77858 0.0
H403 H 0.50702 0.21972 0.79654 0.0
C404 C 0.50682 0.29162 0.88599 0.0
N405 N 0.50895 0.2751 0.87095 0.0
C406 C 0.5062 0.28733 0.90915 0.0
C407 C 0.50953 0.24907 0.90087 0.0
C408 C 0.51009 0.25411 0.87786 0.0
C409 C 0.50768 0.26582 0.91687 0.0
H410 H 0.50563 0.30812 0.88001 0.0
H411 H 0.51166 0.24131 0.86547 0.0
O412 O 0.51329 0.29192 0.78347 0.0
O413 O 0.50026 0.30988 0.83016 0.0
O414 O 0.49378 0.2608 0.82037 0.0
O415 O 0.54031 0.27864 0.82509 0.0
H416 H 0.54922 0.30513 0.76311 0.0
H417 H 0.4933 0.26374 0.75691 0.0
H418 H 0.56168 0.29245 0.7255 0.0
H419 H 0.50681 0.25168 0.71945 0.0
H420 H 0.53096 0.3713 0.85813 0.0
H421 H 0.47681 0.33839 0.80715 0.0
H422 H 0.52791 0.33123 0.85621 0.0
H423 H 0.48077 0.3783 0.80995 0.0
H424 H 0.43804 0.31442 0.74688 0.0
H425 H 0.41339 0.31296 0.81537 0.0
H426 H 0.59768 0.34204 0.81458 0.0
H427 H 0.5483 0.37312 0.77391 0.0
H428 H 0.46689 0.26208 0.85524 0.0
H429 H 0.47336 0.24351 0.78542 0.0
H430 H 0.42871 0.24937 0.85441 0.0
H431 H 0.43501 0.23127 0.78575 0.0
H432 H 0.55015 0.23712 0.83053 0.0
H433 H 0.55519 0.3007 0.86022 0.0
H434 H 0.56961 0.22201 0.86366 0.0
H435 H 0.57453 0.28444 0.89286 0.0
H436 H 0.57827 0.22927 0.75978 0.0
H437 H 0.52473 0.18792 0.77884 0.0
H438 H 0.50438 0.3007 0.92086 0.0
H439 H 0.51092 0.23229 0.90606 0.0
Li440 Li 0.19513 0.52544 0.31163 0.0
Li441 Li 0.20857 0.48738 0.30508 0.0
Li442 Li 0.2174 0.50874 0.34042 0.0
Li443 Li 0.23326 0.51818 0.30513 0.0
C444 C 0.1667 0.49905 0.33203 0.0
N445 N 0.12213 0.50059 0.33671 0.0
C446 C 0.15354 0.48504 0.3195 0.0
C447 C 0.15719 0.51371 0.34709 0.0
C448 C 0.13104 0.48609 0.32208 0.0
C449 C 0.13463 0.51429 0.34916 0.0
C450 C 0.21686 0.51931 0.26445 0.0
C451 C 0.23852 0.51305 0.23116 0.0
N452 N 0.23577 0.53415 0.22507 0.0
C453 C 0.21416 0.5409 0.25784 0.0
C454 C 0.22908 0.50523 0.25101 0.0
C455 C 0.22388 0.5481 0.23787 0.0
C456 C 0.1748 0.56632 0.3097 0.0
N457 N 0.17211 0.54496 0.30479 0.0
C458 C 0.13784 0.55225 0.28747 0.0
C459 C 0.1542 0.53776 0.29371 0.0
C460 C 0.14018 0.57449 0.2922 0.0
C461 C 0.15899 0.58141 0.30355 0.0
H462 H 0.18953 0.57175 0.31782 0.0
H463 H 0.15275 0.52079 0.28937 0.0
C464 C 0.20008 0.4424 0.30663 0.0
N465 N 0.2003 0.46019 0.29308 0.0
C466 C 0.19132 0.4229 0.29877 0.0
C467 C 0.18385 0.44034 0.26299 0.0
C468 C 0.19265 0.45948 0.27156 0.0
C469 C 0.18272 0.42182 0.27679 0.0
H470 H 0.20608 0.44358 0.32377 0.0
H471 H 0.19258 0.47403 0.26136 0.0
C472 C 0.22527 0.55014 0.34582 0.0
N473 N 0.23568 0.57358 0.38414 0.0
C474 C 0.24691 0.55508 0.35065 0.0
C475 C 0.20892 0.55726 0.36041 0.0
C476 C 0.25184 0.56693 0.37011 0.0
C477 C 0.21451 0.56904 0.37973 0.0
C478 C 0.2567 0.48234 0.31582 0.0
C479 C 0.2753 0.49119 0.3257 0.0
C480 C 0.25871 0.46534 0.30032 0.0
C481 C 0.29563 0.48294 0.31982 0.0
C482 C 0.27934 0.45751 0.29491 0.0
N483 N 0.29721 0.46641 0.30468 0.0
C484 C 0.20517 0.50104 0.38618 0.0
C485 C 0.24206 0.51038 0.3806 0.0
C486 C 0.20824 0.50034 0.40959 0.0
N487 N 0.22194 0.50628 0.37227 0.0
C488 C 0.24578 0.51016 0.40383 0.0
C489 C 0.22871 0.50525 0.41865 0.0
H490 H 0.18938 0.49759 0.37914 0.0
H491 H 0.25517 0.51424 0.36924 0.0
C492 C 0.2583 0.55326 0.29185 0.0
N493 N 0.25795 0.53126 0.29057 0.0
C494 C 0.27538 0.565 0.28251 0.0
C495 C 0.29119 0.53137 0.26963 0.0
C496 C 0.27363 0.52026 0.27911 0.0
C497 C 0.29238 0.55407 0.27157 0.0
H498 H 0.24521 0.56177 0.30014 0.0
H499 H 0.27258 0.5029 0.27722 0.0
O500 O 0.18876 0.49838 0.32962 0.0
O501 O 0.20804 0.51215 0.28427 0.0
O502 O 0.22012 0.53827 0.32702 0.0
O503 O 0.23661 0.48992 0.32161 0.0
H504 H 0.16056 0.47356 0.3078 0.0
H505 H 0.16711 0.52459 0.35699 0.0
H506 H 0.12066 0.47541 0.31242 0.0
H507 H 0.12706 0.52563 0.36067 0.0
H508 H 0.24815 0.50239 0.22066 0.0
H509 H 0.20485 0.55202 0.26815 0.0
H510 H 0.23152 0.48853 0.25606 0.0
H511 H 0.22204 0.5648 0.23259 0.0
H512 H 0.12362 0.54608 0.27889 0.0
H513 H 0.16186 0.5984 0.30705 0.0
H514 H 0.19086 0.40897 0.30992 0.0
H515 H 0.17704 0.44037 0.24612 0.0
H516 H 0.25982 0.54948 0.33973 0.0
H517 H 0.1921 0.55367 0.35691 0.0
H518 H 0.26853 0.57072 0.37413 0.0
H519 H 0.20203 0.57455 0.39121 0.0
H520 H 0.27411 0.50453 0.33747 0.0
H521 H 0.24454 0.45828 0.29248 0.0
H522 H 0.31016 0.48973 0.32723 0.0
H523 H 0.28113 0.4444 0.28291 0.0
H524 H 0.19467 0.49649 0.4205 0.0
H525 H 0.26188 0.51372 0.41015 0.0
H526 H 0.27515 0.58252 0.28374 0.0
H527 H 0.30382 0.52224 0.2612 0.0
Li528 Li 0.97759 0.23288 0.80168 0.0
Li529 Li 0.98848 0.21788 0.83826 0.0
Li530 Li 0.00808 0.20891 0.80343 0.0
Li531 Li 0.97149 0.19435 0.81046 0.0
C532 C 0.02589 0.24473 0.81801 0.0
N533 N 0.06894 0.25709 0.81729 0.0
C534 C 0.03846 0.24322 0.83761 0.0
C535 C 0.03515 0.25265 0.79809 0.0
C536 C 0.06021 0.24954 0.83689 0.0
C537 C 0.05696 0.25876 0.79805 0.0
C538 C 0.94629 0.22694 0.8425 0.0
C539 C 0.9266 0.22009 0.87698 0.0
N540 N 0.92205 0.24161 0.87866 0.0
C541 C 0.94131 0.24897 0.84447 0.0
C542 C 0.93877 0.21233 0.85877 0.0
C543 C 0.92906 0.25608 0.86291 0.0
C544 C 0.94325 0.25451 0.78109 0.0
N545 N 0.9643 0.25701 0.78735 0.0
C546 C 0.96441 0.29355 0.77387 0.0
C547 C 0.97502 0.27601 0.78399 0.0
C548 C 0.94267 0.29135 0.76708 0.0
C549 C 0.93212 0.27148 0.77074 0.0
H550 H 0.93507 0.2393 0.78432 0.0
H551 H 0.99172 0.27757 0.78932 0.0
C552 C 0.99626 0.20782 0.88435 0.0
N553 N 0.99073 0.22389 0.86974 0.0
C554 C 0.99701 0.21186 0.90756 0.0
C555 C 0.98681 0.24904 0.90019 0.0
C556 C 0.98646 0.24431 0.87712 0.0
C557 C 0.992 0.23265 0.91582 0.0
H558 H 9e-05 0.19185 0.87802 0.0
H559 H 0.98248 0.25688 0.86506 0.0
C560 C 0.97514 0.21372 0.76224 0.0
N561 N 0.95737 0.22861 0.72228 0.0
C562 C 0.95509 0.20585 0.75489 0.0
C563 C 0.98625 0.229 0.74918 0.0
C564 C 0.94636 0.21361 0.73465 0.0
C565 C 0.97696 0.23638 0.72907 0.0
C566 C 0.99853 0.16765 0.83298 0.0
C567 C 0.01306 0.1537 0.82214 0.0
C568 C 0.98365 0.15926 0.84852 0.0
C569 C 0.01238 0.13152 0.82696 0.0
C570 C 0.98345 0.13699 0.85284 0.0
N571 N 0.9977 0.1237 0.84206 0.0
C572 C 0.0526 0.19691 0.80446 0.0
C573 C 0.03582 0.196 0.76842 0.0
C574 C 0.07123 0.18706 0.79574 0.0
N575 N 0.03527 0.20076 0.79083 0.0
C576 C 0.05401 0.18603 0.75904 0.0
C577 C 0.07175 0.18086 0.77289 0.0
H578 H 0.05149 0.2003 0.82236 0.0
H579 H 0.02169 0.19884 0.75805 0.0
C580 C 0.93068 0.17432 0.80805 0.0
N581 N 0.95224 0.17076 0.8052 0.0
C582 C 0.91567 0.1583 0.8023 0.0
C583 C 0.94538 0.13491 0.79161 0.0
C584 C 0.95977 0.15162 0.79695 0.0
C585 C 0.92289 0.1382 0.79383 0.0
H586 H 0.92509 0.18992 0.81402 0.0
H587 H 0.97692 0.14943 0.7941 0.0
O588 O 0.00466 0.23837 0.81829 0.0
O589 O 0.95856 0.21971 0.82479 0.0
O590 O 0.98374 0.2067 0.78226 0.0
O591 O 0.99889 0.1894 0.82843 0.0
H592 H 0.03155 0.23709 0.85316 0.0
H593 H 0.02563 0.25387 0.78278 0.0
H594 H 0.07017 0.24839 0.85189 0.0
H595 H 0.06438 0.2648 0.78273 0.0
H596 H 0.92077 0.20899 0.88978 0.0
H597 H 0.94706 0.2605 0.83205 0.0
H598 H 0.94237 0.19522 0.8574 0.0
H599 H 0.9252 0.2731 0.86474 0.0
H600 H 0.97312 0.3086 0.77128 0.0
H601 H 0.91527 0.26923 0.76613 0.0
H602 H 0.0016 0.19884 0.91887 0.0
H603 H 0.98266 0.26526 0.90571 0.0
H604 H 0.94627 0.19402 0.76476 0.0
H605 H 0.00176 0.2353 0.75468 0.0
H606 H 0.9308 0.20775 0.7288 0.0
H607 H 0.98529 0.24833 0.71888 0.0
H608 H 0.02462 0.15985 0.80999 0.0
H609 H 0.97226 0.16982 0.85701 0.0
H610 H 0.02348 0.12052 0.81864 0.0
H611 H 0.97196 0.13027 0.86475 0.0
H612 H 0.08445 0.18304 0.80704 0.0
H613 H 0.05384 0.18159 0.74132 0.0
H614 H 0.89858 0.16203 0.80377 0.0
H615 H 0.95193 0.11972 0.78551 0.0
Li616 Li 0.26349 0.97559 0.30026 0.0
Li617 Li 0.27657 0.98613 0.3381 0.0
Li618 Li 0.28751 0.00504 0.30389 0.0
Li619 Li 0.30078 0.96795 0.31057 0.0
C620 C 0.25158 0.02417 0.31654 0.0
N621 N 0.24036 0.06758 0.31546 0.0
C622 C 0.25369 0.03696 0.33592 0.0
C623 C 0.24342 0.03342 0.29671 0.0
C624 C 0.248 0.05888 0.33502 0.0
C625 C 0.23795 0.0554 0.29647 0.0
C626 C 0.27959 0.94083 0.34023 0.0
C627 C 0.30197 0.92804 0.37089 0.0
N628 N 0.29032 0.90932 0.37147 0.0
C629 C 0.26788 0.92145 0.34108 0.0
C630 C 0.29682 0.94416 0.35519 0.0
C631 C 0.27354 0.90572 0.35702 0.0
C632 C 0.24291 0.94141 0.27882 0.0
N633 N 0.23997 0.96248 0.28475 0.0
C634 C 0.2044 0.96245 0.26874 0.0
C635 C 0.22123 0.97316 0.28 0.0
C636 C 0.20697 0.94061 0.26242 0.0
C637 C 0.22659 0.93013 0.26757 0.0
H638 H 0.25797 0.93336 0.28299 0.0
H639 H 0.21933 0.98991 0.28501 0.0
C640 C 0.28005 0.00322 0.38236 0.0
N641 N 0.26991 0.98805 0.36945 0.0
C642 C 0.27587 0.00444 0.40554 0.0
C643 C 0.25132 0.97407 0.40176 0.0
C644 C 0.25557 0.97377 0.37859 0.0
C645 C 0.26154 0.98957 0.41547 0.0
H646 H 0.29135 0.01438 0.37462 0.0
H647 H 0.24762 0.96196 0.3679 0.0
C648 C 0.2831 0.97543 0.26089 0.0
N649 N 0.26779 0.9636 0.2187 0.0
C650 C 0.29153 0.95721 0.24991 0.0
C651 C 0.26727 0.98793 0.2501 0.0
C652 C 0.28348 0.95141 0.22867 0.0
C653 C 0.25963 0.98161 0.22888 0.0
C654 C 0.32699 0.00188 0.32895 0.0
C655 C 0.33775 0.00471 0.30835 0.0
C656 C 0.33765 0.00677 0.34916 0.0
C657 C 0.359 0.01258 0.30834 0.0
C658 C 0.35894 0.01449 0.34843 0.0
N659 N 0.36907 0.01725 0.32821 0.0
C660 C 0.30153 0.04894 0.30693 0.0
C661 C 0.30166 0.03385 0.27007 0.0
C662 C 0.31199 0.0676 0.29909 0.0
N663 N 0.29688 0.03244 0.29245 0.0
C664 C 0.3123 0.05205 0.26157 0.0
C665 C 0.31806 0.06896 0.27626 0.0
H666 H 0.29817 0.04712 0.32477 0.0
H667 H 0.29833 0.02035 0.259 0.0
C668 C 0.31627 0.9283 0.2964 0.0
N669 N 0.32306 0.94666 0.30693 0.0
C670 C 0.3311 0.91227 0.29031 0.0
C671 C 0.35952 0.93338 0.30783 0.0
C672 C 0.34411 0.94917 0.31336 0.0
C673 C 0.35311 0.91495 0.29559 0.0
H674 H 0.29932 0.92644 0.29207 0.0
H675 H 0.34913 0.9635 0.32241 0.0
O676 O 0.25737 0.00273 0.31703 0.0
O677 O 0.27425 0.9563 0.32462 0.0
O678 O 0.29038 0.98111 0.28198 0.0
O679 O 0.30608 0.99452 0.32946 0.0
H680 H 0.25978 0.03011 0.35145 0.0
H681 H 0.2413 0.02378 0.28165 0.0
H682 H 0.24971 0.06898 0.34987 0.0
H683 H 0.23174 0.06277 0.28118 0.0
H684 H 0.31524 0.93041 0.38259 0.0
H685 H 0.25456 0.91861 0.32954 0.0
H686 H 0.30614 0.95902 0.35473 0.0
H687 H 0.26461 0.89064 0.3579 0.0
H688 H 0.1896 0.97119 0.26496 0.0
H689 H 0.22915 0.91321 0.26341 0.0
H690 H 0.28409 0.01655 0.41567 0.0
H691 H 0.24006 0.96244 0.40889 0.0
H692 H 0.30426 0.94772 0.25754 0.0
H693 H 0.26082 0.00225 0.25813 0.0
H694 H 0.28978 0.93726 0.22008 0.0
H695 H 0.2472 0.99103 0.2205 0.0
H696 H 0.32984 0.00075 0.29256 0.0
H697 H 0.3296 0.00453 0.36524 0.0
H698 H 0.36751 0.01491 0.29254 0.0
H699 H 0.3674 0.0183 0.36395 0.0
H700 H 0.31647 0.08018 0.31097 0.0
H701 H 0.31675 0.05254 0.24386 0.0
H702 H 0.32546 0.89805 0.28132 0.0
H703 H 0.37635 0.93591 0.31235 0.0
Li704 Li 0.48579 0.7738 0.83849 0.0
Li705 Li 0.50495 0.78778 0.80656 0.0
Li706 Li 0.46554 0.79374 0.81157 0.0
Li707 Li 0.47824 0.75711 0.80187 0.0
C708 C 0.49548 0.81506 0.84939 0.0
N709 N 0.50731 0.83573 0.88897 0.0
C710 C 0.51684 0.82207 0.8525 0.0
C711 C 0.48011 0.81871 0.86634 0.0
C712 C 0.5225 0.83247 0.87264 0.0
C713 C 0.48642 0.82912 0.88626 0.0
C714 C 0.52087 0.74908 0.83355 0.0
C715 C 0.53125 0.7202 0.85884 0.0
N716 N 0.549 0.73182 0.86516 0.0
C717 C 0.53921 0.76073 0.84031 0.0
C718 C 0.51686 0.72864 0.84286 0.0
C719 C 0.55324 0.75172 0.85629 0.0
C720 C 0.47187 0.75513 0.87952 0.0
N721 N 0.48813 0.76699 0.8701 0.0
C722 C 0.5061 0.76961 0.90582 0.0
C723 C 0.50526 0.77387 0.88269 0.0
C724 C 0.4893 0.75782 0.91607 0.0
C725 C 0.47215 0.75029 0.90258 0.0
H726 H 0.45855 0.74958 0.86914 0.0
H727 H 0.51824 0.7829 0.87489 0.0
C728 C 0.52671 0.82346 0.79144 0.0
N729 N 0.52965 0.80185 0.79449 0.0
C730 C 0.54364 0.83635 0.78365 0.0
C731 C 0.56624 0.80436 0.78133 0.0
C732 C 0.54874 0.792 0.78921 0.0
C733 C 0.56387 0.82692 0.77887 0.0
H734 H 0.5112 0.8307 0.79542 0.0
H735 H 0.55047 0.77467 0.79143 0.0
C736 C 0.43561 0.76833 0.82663 0.0
N737 N 0.39138 0.77538 0.82763 0.0
C738 C 0.42247 0.76043 0.80924 0.0
C739 C 0.42626 0.77966 0.84462 0.0
C740 C 0.40014 0.76419 0.81004 0.0
C741 C 0.40387 0.7831 0.84479 0.0
C742 C 0.4901 0.78343 0.76304 0.0
C743 C 0.48412 0.79844 0.7465 0.0
C744 C 0.50587 0.76782 0.75821 0.0
C745 C 0.49393 0.79746 0.72522 0.0
C746 C 0.51531 0.76739 0.73676 0.0
N747 N 0.50918 0.78208 0.72084 0.0
C748 C 0.43916 0.83125 0.8183 0.0
C749 C 0.43147 0.81021 0.78574 0.0
C750 C 0.42318 0.84627 0.81234 0.0
N751 N 0.44297 0.8137 0.80498 0.0
C752 C 0.41538 0.82479 0.77913 0.0
C753 C 0.41119 0.84323 0.79238 0.0
H754 H 0.44876 0.83382 0.83332 0.0
H755 H 0.43497 0.79615 0.77542 0.0
C756 C 0.46749 0.71291 0.79792 0.0
N757 N 0.46962 0.73162 0.78598 0.0
C758 C 0.45846 0.69452 0.78784 0.0
C759 C 0.45425 0.71489 0.75323 0.0
C760 C 0.4632 0.73291 0.76403 0.0
C761 C 0.4514 0.69544 0.76525 0.0
H762 H 0.47192 0.71255 0.81558 0.0
H763 H 0.46421 0.74812 0.75508 0.0
O764 O 0.48964 0.80491 0.82975 0.0
O765 O 0.50691 0.75769 0.81797 0.0
O766 O 0.45758 0.76537 0.82584 0.0
O767 O 0.48084 0.78429 0.78402 0.0
H768 H 0.52899 0.81932 0.83964 0.0
H769 H 0.46356 0.81328 0.86429 0.0
H770 H 0.53898 0.83789 0.87532 0.0
H771 H 0.47473 0.83189 0.89958 0.0
H772 H 0.52831 0.70443 0.86623 0.0
H773 H 0.54236 0.77675 0.83366 0.0
H774 H 0.50272 0.71944 0.83792 0.0
H775 H 0.56742 0.76062 0.86177 0.0
H776 H 0.51978 0.77541 0.91558 0.0
H777 H 0.45885 0.74119 0.90987 0.0
H778 H 0.5409 0.85357 0.78143 0.0
H779 H 0.58154 0.79646 0.77774 0.0
H780 H 0.42944 0.75171 0.79514 0.0
H781 H 0.43621 0.78583 0.85823 0.0
H782 H 0.38978 0.75829 0.79663 0.0
H783 H 0.39643 0.79194 0.85855 0.0
H784 H 0.47202 0.8107 0.75005 0.0
H785 H 0.51077 0.75617 0.77091 0.0
H786 H 0.48942 0.80893 0.71221 0.0
H787 H 0.52753 0.75539 0.73277 0.0
H788 H 0.42067 0.86039 0.8229 0.0
H789 H 0.40633 0.82164 0.76379 0.0
H790 H 0.45616 0.68007 0.79795 0.0
H791 H 0.44919 0.71636 0.73577 0.0
Li792 Li 0.7099 0.50753 0.30339 0.0
Li793 Li 0.71868 0.48815 0.3381 0.0
Li794 Li 0.73685 0.47868 0.30083 0.0
Li795 Li 0.69898 0.47096 0.30778 0.0
C796 C 0.74559 0.52658 0.32343 0.0
N797 N 0.75965 0.56822 0.33264 0.0
C798 C 0.73746 0.5378 0.34213 0.0
C799 C 0.76117 0.53641 0.30965 0.0
C800 C 0.74468 0.55888 0.34644 0.0
C801 C 0.76798 0.55751 0.31452 0.0
C802 C 0.66893 0.50196 0.32136 0.0
C803 C 0.63429 0.51673 0.3324 0.0
N804 N 0.62738 0.51524 0.31062 0.0
C805 C 0.66149 0.50061 0.29907 0.0
C806 C 0.65525 0.51012 0.33816 0.0
C807 C 0.64043 0.50739 0.294 0.0
C808 C 0.6965 0.53988 0.2708 0.0
N809 N 0.70014 0.53556 0.29304 0.0
C810 C 0.68451 0.56969 0.30349 0.0
C811 C 0.69432 0.55004 0.3093 0.0
C812 C 0.68025 0.57438 0.28068 0.0
C813 C 0.68667 0.55925 0.26424 0.0
H814 H 0.70013 0.52802 0.25806 0.0
H815 H 0.69638 0.54594 0.32691 0.0
C816 C 0.74383 0.48993 0.37754 0.0
N817 N 0.72314 0.48952 0.36967 0.0
C818 C 0.74781 0.49047 0.40076 0.0
C819 C 0.70908 0.49015 0.40728 0.0
C820 C 0.70586 0.48965 0.38391 0.0
C821 C 0.7303 0.49052 0.41599 0.0
H822 H 0.75723 0.4897 0.36573 0.0
H823 H 0.68959 0.48924 0.3771 0.0
C824 C 0.71834 0.48993 0.2594 0.0
N825 N 0.73148 0.50206 0.21659 0.0
C826 C 0.70665 0.48308 0.24046 0.0
C827 C 0.73673 0.50288 0.25657 0.0
C828 C 0.71354 0.48942 0.21896 0.0
C829 C 0.74312 0.50885 0.23479 0.0
C830 C 0.71793 0.4387 0.32819 0.0
C831 C 0.72364 0.42226 0.31306 0.0
C832 C 0.70473 0.43394 0.34674 0.0
C833 C 0.71584 0.40127 0.31665 0.0
C834 C 0.69727 0.41273 0.34974 0.0
N835 N 0.70292 0.39698 0.33475 0.0
C836 C 0.78215 0.47236 0.29746 0.0
C837 C 0.7612 0.45556 0.26874 0.0
C838 C 0.80119 0.46361 0.28844 0.0
N839 N 0.76272 0.4681 0.28757 0.0
C840 C 0.77982 0.4468 0.25896 0.0
C841 C 0.8001 0.45063 0.26896 0.0
H842 H 0.78278 0.48227 0.31253 0.0
H843 H 0.74548 0.45211 0.2615 0.0
C844 C 0.65975 0.44671 0.3143 0.0
N845 N 0.67736 0.44998 0.30088 0.0
C846 C 0.6442 0.43123 0.30835 0.0
C847 C 0.66547 0.42259 0.27521 0.0
C848 C 0.68049 0.43829 0.28171 0.0
C849 C 0.64691 0.41898 0.28849 0.0
H850 H 0.65777 0.45616 0.32956 0.0
H851 H 0.69481 0.44107 0.27156 0.0
O852 O 0.73874 0.50591 0.31896 0.0
O853 O 0.68963 0.49584 0.32678 0.0
O854 O 0.71194 0.48357 0.28051 0.0
O855 O 0.72482 0.45947 0.3246 0.0
H856 H 0.72545 0.53046 0.35303 0.0
H857 H 0.76808 0.52782 0.29543 0.0
H858 H 0.73836 0.56781 0.36073 0.0
H859 H 0.77996 0.56534 0.30394 0.0
H860 H 0.62354 0.52309 0.34524 0.0
H861 H 0.67182 0.49448 0.28578 0.0
H862 H 0.66081 0.51142 0.35546 0.0
H863 H 0.63448 0.50644 0.27682 0.0
H864 H 0.67985 0.58083 0.31678 0.0
H865 H 0.68315 0.56178 0.2465 0.0
H866 H 0.76441 0.49044 0.40672 0.0
H867 H 0.69512 0.49041 0.41838 0.0
H868 H 0.69239 0.47301 0.24238 0.0
H869 H 0.74594 0.50823 0.27104 0.0
H870 H 0.70463 0.48427 0.20414 0.0
H871 H 0.75732 0.51887 0.23236 0.0
H872 H 0.73378 0.42575 0.29858 0.0
H873 H 0.70008 0.44654 0.35852 0.0
H874 H 0.72001 0.38839 0.30502 0.0
H875 H 0.68692 0.40882 0.36393 0.0
H876 H 0.81657 0.46689 0.29659 0.0
H877 H 0.77832 0.43659 0.24414 0.0
H878 H 0.63009 0.42912 0.31902 0.0
H879 H 0.66853 0.41323 0.26006 0.0
Li880 Li 0.01187 0.71756 0.83878 0.0
Li881 Li 0.99317 0.70706 0.80287 0.0
Li882 Li 0.02975 0.6974 0.80929 0.0
Li883 Li 0.02185 0.73457 0.80099 0.0
C884 C 0.0078 0.66656 0.8278 0.0
N885 N 0.01644 0.62258 0.82741 0.0
C886 C 8e-05 0.65357 0.81018 0.0
C887 C 0.01995 0.65718 0.84519 0.0
C888 C 0.0046 0.63137 0.81031 0.0
C889 C 0.02414 0.63492 0.84469 0.0
C890 C 0.97356 0.74313 0.82345 0.0
C891 C 0.943 0.76679 0.81714 0.0
N892 N 0.93227 0.75701 0.83445 0.0
C893 C 0.96231 0.73345 0.84131 0.0
C894 C 0.96391 0.76005 0.81136 0.0
C895 C 0.94142 0.74064 0.84655 0.0
C896 C 0.01241 0.74333 0.87808 0.0
N897 N 0.00933 0.72285 0.87021 0.0
C898 C 0.00361 0.70958 0.90766 0.0
C899 C 0.00471 0.70613 0.88437 0.0
C900 C 0.00692 0.7305 0.91633 0.0
C901 C 0.01113 0.74758 0.90124 0.0
H902 H 0.01599 0.7563 0.86634 0.0
H903 H 0.00187 0.69012 0.8776 0.0
C904 C 0.95994 0.69493 0.77023 0.0
N905 N 0.96536 0.69685 0.79245 0.0
C906 C 0.94049 0.68507 0.76392 0.0
C907 C 0.9323 0.67934 0.80336 0.0
C908 C 0.95192 0.68932 0.80892 0.0
C909 C 0.92651 0.67682 0.78056 0.0
H910 H 0.97091 0.7001 0.7572 0.0
H911 H 0.95682 0.69031 0.82642 0.0
C912 C 0.06252 0.72349 0.82681 0.0
N913 N 0.10723 0.72318 0.82946 0.0
C914 C 0.07498 0.72272 0.8071 0.0
C915 C 0.07275 0.72414 0.84787 0.0
C916 C 0.09757 0.72255 0.80879 0.0
C917 C 0.09539 0.72397 0.84885 0.0
C918 C 0.01024 0.71658 0.76032 0.0
C919 C 0.01619 0.70615 0.74027 0.0
C920 C 0.99711 0.73505 0.75937 0.0
C921 C 0.00871 0.71425 0.71963 0.0
C922 C 0.99 0.74267 0.73842 0.0
N923 N 0.99588 0.73219 0.71914 0.0
C924 C 0.05043 0.66473 0.78427 0.0
C925 C 0.06607 0.6704 0.82039 0.0
C926 C 0.06606 0.64913 0.77913 0.0
N927 N 0.05093 0.67524 0.80445 0.0
C928 C 0.08219 0.65511 0.81585 0.0
C929 C 0.08244 0.64446 0.79488 0.0
H930 H 0.038 0.66867 0.77207 0.0
H931 H 0.06578 0.67857 0.83655 0.0
C932 C 0.02784 0.78008 0.79679 0.0
N933 N 0.03255 0.76047 0.78754 0.0
C934 C 0.0368 0.799 0.78767 0.0
C935 C 0.05491 0.77712 0.7595 0.0
C936 C 0.04562 0.7587 0.76913 0.0
C937 C 0.05073 0.79763 0.76889 0.0
H938 H 0.01738 0.78098 0.81145 0.0
H939 H 0.04915 0.74289 0.76213 0.0
O940 O 0.00402 0.68843 0.82762 0.0
O941 O 0.99408 0.73639 0.8181 0.0
O942 O 0.04038 0.72336 0.82559 0.0
O943 O 0.01795 0.7091 0.78057 0.0
H944 H 0.99094 0.66057 0.7964 0.0
H945 H 0.0265 0.66704 0.85869 0.0
H946 H 0.99878 0.62114 0.79674 0.0
H947 H 0.03363 0.62747 0.85796 0.0
H948 H 0.93532 0.77983 0.80789 0.0
H949 H 0.96953 0.72038 0.85089 0.0
H950 H 0.97251 0.768 0.79773 0.0
H951 H 0.93248 0.73319 0.86024 0.0
H952 H 3e-05 0.69607 0.91876 0.0
H953 H 0.01386 0.76392 0.90734 0.0
H954 H 0.93698 0.68302 0.74611 0.0
H955 H 0.92202 0.67324 0.81677 0.0
H956 H 0.06728 0.72179 0.79072 0.0
H957 H 0.06329 0.72467 0.86328 0.0
H958 H 0.10743 0.72181 0.79368 0.0
H959 H 0.10356 0.72444 0.86503 0.0
H960 H 0.02653 0.69198 0.74062 0.0
H961 H 0.99244 0.7434 0.77461 0.0
H962 H 0.01316 0.70631 0.704 0.0
H963 H 0.9798 0.75692 0.73748 0.0
H964 H 0.06577 0.64135 0.76272 0.0
H965 H 0.09439 0.65173 0.82854 0.0
H966 H 0.03297 0.81449 0.79532 0.0
H967 H 0.0658 0.77519 0.74528 0.0
Li968 Li 0.77701 0.01269 0.33723 0.0
Li969 Li 0.78765 0.99427 0.30282 0.0
Li970 Li 0.79846 0.03176 0.30852 0.0
Li971 Li 0.76145 0.02242 0.29918 0.0
C972 C 0.82787 8e-05 0.32375 0.0
N973 N 0.87023 0.98723 0.3164 0.0
C974 C 0.83684 0.00122 0.30206 0.0
C975 C 0.84045 0.99238 0.34168 0.0
C976 C 0.85828 0.99464 0.2987 0.0
C977 C 0.86184 0.98598 0.33763 0.0
C978 C 0.75329 0.97337 0.3169 0.0
C979 C 0.73846 0.94162 0.29877 0.0
N980 N 0.7445 0.92942 0.31686 0.0
C981 C 0.75915 0.96056 0.33539 0.0
C982 C 0.74269 0.96388 0.2985 0.0
C983 C 0.75464 0.93836 0.33503 0.0
C984 C 0.75484 0.02332 0.37705 0.0
N985 N 0.77113 0.01092 0.36856 0.0
C986 C 0.77929 0.9971 0.4053 0.0
C987 C 0.78334 0.99797 0.38209 0.0
C988 C 0.76264 0.00985 0.41466 0.0
C989 C 0.75033 0.02308 0.40016 0.0
H990 H 0.74553 0.0336 0.36585 0.0
H991 H 0.79617 0.98826 0.3748 0.0
C992 C 0.79988 0.96421 0.26898 0.0
N993 N 0.79803 0.96714 0.29166 0.0
C994 C 0.81068 0.94612 0.26044 0.0
C995 C 0.81679 0.93386 0.29872 0.0
C996 C 0.80593 0.95229 0.30654 0.0
C997 C 0.81976 0.93095 0.27539 0.0
H998 H 0.79388 0.97637 0.25749 0.0
H999 H 0.80472 0.95527 0.32451 0.0
C1000 C 0.77732 0.06094 0.3334 0.0
N1001 N 0.78984 0.10002 0.35209 0.0
C1002 C 0.76914 0.08038 0.32478 0.0
C1003 C 0.79183 0.06134 0.35155 0.0
C1004 C 0.77568 0.09999 0.33446 0.0
C1005 C 0.79797 0.08127 0.36076 0.0
C1006 C 0.7811 0.0211 0.2587 0.0
C1007 C 0.79117 0.03656 0.24497 0.0
C1008 C 0.76411 0.00867 0.24996 0.0
C1009 C 0.78371 0.03969 0.22291 0.0
C1010 C 0.75708 0.01229 0.22784 0.0
N1011 N 0.76692 0.02762 0.21489 0.0
C1012 C 0.83884 0.05469 0.31505 0.0
C1013 C 0.81329 0.07046 0.29007 0.0
C1014 C 0.85353 0.07149 0.31084 0.0
N1015 N 0.81935 0.05427 0.30429 0.0
C1016 C 0.82739 0.08756 0.28542 0.0
C1017 C 0.84792 0.08813 0.29569 0.0
H1018 H 0.84303 0.04209 0.32694 0.0
H1019 H 0.79743 0.07004 0.28227 0.0
C1020 C 0.71714 0.0233 0.28541 0.0
N1021 N 0.73659 0.03361 0.28435 0.0
C1022 C 0.69893 0.03239 0.27498 0.0
C1023 C 0.7213 0.06227 0.26241 0.0
C1024 C 0.73899 0.05268 0.27313 0.0
C1025 C 0.70088 0.05221 0.2634 0.0
H1026 H 0.71573 0.00818 0.29455 0.0
H1027 H 0.75467 0.06054 0.27271 0.0
O1028 O 0.80676 0.00597 0.32746 0.0
O1029 O 0.75793 0.99508 0.31683 0.0
O1030 O 0.77161 0.04161 0.32375 0.0
O1031 O 0.78801 0.01802 0.28049 0.0
H1032 H 0.82741 0.00707 0.28793 0.0
H1033 H 0.83376 0.99134 0.35855 0.0
H1034 H 0.8654 0.99542 0.28201 0.0
H1035 H 0.87176 0.98 0.35136 0.0
H1036 H 0.73035 0.93405 0.28461 0.0
H1037 H 0.76735 0.96761 0.34976 0.0
H1038 H 0.7377 0.97356 0.2842 0.0
H1039 H 0.75925 0.92823 0.34916 0.0
H1040 H 0.789 0.98643 0.41574 0.0
H1041 H 0.73759 0.03345 0.40663 0.0
H1042 H 0.81252 0.94438 0.24232 0.0
H1043 H 0.82381 0.92269 0.3108 0.0
H1044 H 0.75795 0.08034 0.31069 0.0
H1045 H 0.79852 0.04643 0.35823 0.0
H1046 H 0.76953 0.11518 0.32793 0.0
H1047 H 0.80926 0.08184 0.37474 0.0
H1048 H 0.80476 0.0459 0.25114 0.0
H1049 H 0.75631 0.99649 0.26024 0.0
H1050 H 0.79131 0.05166 0.21214 0.0
H1051 H 0.74379 0.00292 0.22097 0.0
H1052 H 0.86901 0.07154 0.31948 0.0
H1053 H 0.8224 0.09997 0.27356 0.0
H1054 H 0.68351 0.02404 0.27603 0.0
H1055 H 0.72347 0.07772 0.254 0.0
Li1056 Li 0.47651 0.73517 0.199 0.0
Li1057 Li 0.46692 0.69737 0.19098 0.0
Li1058 Li 0.50483 0.70844 0.19651 0.0
Li1059 Li 0.48495 0.71843 0.16247 0.0
C1060 C 0.47436 0.71609 0.23915 0.0
N1061 N 0.4603 0.73145 0.2805 0.0
C1062 C 0.45415 0.70981 0.24762 0.0
C1063 C 0.4875 0.73002 0.25179 0.0
C1064 C 0.44732 0.71779 0.26855 0.0
C1065 C 0.48007 0.73767 0.27263 0.0
C1066 C 0.44556 0.7329 0.15839 0.0
C1067 C 0.4272 0.72976 0.12254 0.0
N1068 N 0.42638 0.75176 0.12104 0.0
C1069 C 0.4445 0.75547 0.15653 0.0
C1070 C 0.43678 0.71991 0.14132 0.0
C1071 C 0.43473 0.7647 0.13751 0.0
C1072 C 0.47756 0.77907 0.21509 0.0
N1073 N 0.4659 0.7604 0.21376 0.0
C1074 C 0.43626 0.77659 0.23349 0.0
C1075 C 0.44555 0.75894 0.22243 0.0
C1076 C 0.44783 0.79611 0.23513 0.0
C1077 C 0.4687 0.79734 0.22567 0.0
H1078 H 0.49358 0.77987 0.20771 0.0
H1079 H 0.43647 0.74404 0.22059 0.0
C1080 C 0.45087 0.65856 0.21059 0.0
N1081 N 0.44569 0.67588 0.19742 0.0
C1082 C 0.43492 0.6436 0.21677 0.0
C1083 C 0.40864 0.66473 0.19589 0.0
C1084 C 0.42511 0.67915 0.18996 0.0
C1085 C 0.41342 0.64681 0.20967 0.0
H1086 H 0.46728 0.65666 0.21672 0.0
H1087 H 0.42136 0.69326 0.17988 0.0
C1088 C 0.52466 0.74375 0.18173 0.0
N1089 N 0.56793 0.75529 0.1826 0.0
C1090 C 0.53733 0.74175 0.16225 0.0
C1091 C 0.53393 0.75177 0.20159 0.0
C1092 C 0.5592 0.74765 0.16304 0.0
C1093 C 0.55586 0.75746 0.20171 0.0
C1094 C 0.49008 0.66719 0.17132 0.0
C1095 C 0.50328 0.65328 0.18393 0.0
C1096 C 0.47363 0.65853 0.15777 0.0
C1097 C 0.49974 0.63092 0.18284 0.0
C1098 C 0.47058 0.63609 0.15718 0.0
N1099 N 0.48359 0.62286 0.16962 0.0
C1100 C 0.53378 0.69422 0.23034 0.0
C1101 C 0.54865 0.6953 0.19342 0.0
C1102 C 0.55277 0.68496 0.23879 0.0
N1103 N 0.53203 0.699 0.208 0.0
C1104 C 0.56805 0.68631 0.20119 0.0
C1105 C 0.57016 0.68058 0.2241 0.0
H1106 H 0.52012 0.69681 0.24145 0.0
H1107 H 0.54661 0.69871 0.17563 0.0
C1108 C 0.48951 0.74423 0.12321 0.0
N1109 N 0.48711 0.72357 0.13084 0.0
C1110 C 0.49025 0.74843 0.10002 0.0
C1111 C 0.48608 0.71002 0.09304 0.0
C1112 C 0.48563 0.70655 0.11633 0.0
C1113 C 0.48835 0.73119 0.08463 0.0
H1114 H 0.49062 0.75745 0.13518 0.0
H1115 H 0.48394 0.69029 0.12284 0.0
O1116 O 0.48119 0.70877 0.21851 0.0
O1117 O 0.45563 0.72356 0.17654 0.0
O1118 O 0.50328 0.73787 0.18136 0.0
O1119 O 0.49315 0.68915 0.17232 0.0
H1120 H 0.44374 0.6991 0.23805 0.0
H1121 H 0.50319 0.73501 0.24549 0.0
H1122 H 0.43167 0.71317 0.27526 0.0
H1123 H 0.49001 0.74857 0.28252 0.0
H1124 H 0.4205 0.71991 0.10911 0.0
H1125 H 0.45136 0.76577 0.16949 0.0
H1126 H 0.43769 0.70241 0.14238 0.0
H1127 H 0.43387 0.78214 0.13579 0.0
H1128 H 0.41997 0.77517 0.24018 0.0
H1129 H 0.47803 0.8122 0.22652 0.0
H1130 H 0.43919 0.63016 0.22769 0.0
H1131 H 0.39228 0.66771 0.19002 0.0
H1132 H 0.53044 0.73548 0.14676 0.0
H1133 H 0.52434 0.75344 0.2168 0.0
H1134 H 0.56923 0.74609 0.14814 0.0
H1135 H 0.56329 0.76358 0.217 0.0
H1136 H 0.51604 0.65963 0.19456 0.0
H1137 H 0.46303 0.66905 0.14818 0.0
H1138 H 0.50979 0.61997 0.19256 0.0
H1139 H 0.45781 0.62919 0.14691 0.0
H1140 H 0.55339 0.68042 0.25646 0.0
H1141 H 0.58104 0.68346 0.18925 0.0
H1142 H 0.49186 0.76501 0.09419 0.0
H1143 H 0.48485 0.69627 0.08172 0.0
Li1144 Li 0.75928 0.47983 0.70045 0.0
Li1145 Li 0.79747 0.46768 0.69112 0.0
Li1146 Li 0.78831 0.50458 0.69417 0.0
Li1147 Li 0.77599 0.4861 0.66132 0.0
C1148 C 0.79711 0.49214 0.73547 0.0
N1149 N 0.81953 0.51347 0.76924 0.0
C1150 C 0.81978 0.49237 0.73538 0.0
C1151 C 0.78584 0.50266 0.75279 0.0
C1152 C 0.83082 0.50328 0.75258 0.0
C1153 C 0.79748 0.51337 0.76971 0.0
C1154 C 0.76426 0.43691 0.67609 0.0
C1155 C 0.75991 0.40375 0.65488 0.0
N1156 N 0.75311 0.39351 0.67397 0.0
C1157 C 0.75704 0.42607 0.69543 0.0
C1158 C 0.76553 0.42569 0.65558 0.0
C1159 C 0.75157 0.40413 0.69405 0.0
C1160 C 0.71542 0.46805 0.7026 0.0
N1161 N 0.73337 0.47165 0.71536 0.0
C1162 C 0.71528 0.45879 0.74843 0.0
C1163 C 0.73359 0.46744 0.7379 0.0
C1164 C 0.69666 0.45416 0.73558 0.0
C1165 C 0.69678 0.45927 0.7124 0.0
H1166 H 0.71591 0.47122 0.68461 0.0
H1167 H 0.74825 0.47002 0.74753 0.0
C1168 C 0.83922 0.44643 0.69147 0.0
N1169 N 0.81817 0.4454 0.69833 0.0
C1170 C 0.85385 0.43009 0.69743 0.0
C1171 C 0.82525 0.41249 0.71841 0.0
C1172 C 0.81119 0.42912 0.71199 0.0
C1173 C 0.84688 0.41272 0.71098 0.0
H1174 H 0.84487 0.46002 0.68161 0.0
H1175 H 0.79481 0.42928 0.71836 0.0
C1176 C 0.75417 0.52736 0.68018 0.0
N1177 N 0.7457 0.57132 0.67932 0.0
C1178 C 0.7653 0.54081 0.66512 0.0
C1179 C 0.73857 0.53618 0.69464 0.0
C1180 C 0.76084 0.56302 0.665 0.0
C1181 C 0.73455 0.55848 0.69397 0.0
C1182 C 0.81962 0.48315 0.65339 0.0
C1183 C 0.83666 0.49543 0.64444 0.0
C1184 C 0.8155 0.46248 0.6447 0.0
C1185 C 0.84935 0.48674 0.62709 0.0
C1186 C 0.82855 0.45435 0.62737 0.0
N1187 N 0.84507 0.46655 0.61899 0.0
C1188 C 0.82006 0.5368 0.69713 0.0
C1189 C 0.78915 0.54469 0.71945 0.0
C1190 C 0.83044 0.55545 0.70483 0.0
N1191 N 0.79984 0.53173 0.70453 0.0
C1192 C 0.79899 0.56352 0.7277 0.0
C1193 C 0.81998 0.56903 0.72045 0.0
H1194 H 0.82839 0.52601 0.6857 0.0
H1195 H 0.77323 0.54014 0.72542 0.0
C1196 C 0.75269 0.47506 0.62188 0.0
N1197 N 0.76933 0.48721 0.63003 0.0
C1198 C 0.74779 0.47534 0.59882 0.0
C1199 C 0.777 0.50093 0.59313 0.0
C1200 C 0.7813 0.50017 0.61627 0.0
C1201 C 0.76011 0.48832 0.58409 0.0
H1202 H 0.74331 0.46507 0.63329 0.0
H1203 H 0.79422 0.50994 0.62327 0.0
O1204 O 0.78606 0.48202 0.71843 0.0
O1205 O 0.76927 0.45855 0.677 0.0
O1206 O 0.75842 0.50562 0.68068 0.0
O1207 O 0.80675 0.49174 0.67004 0.0
H1208 H 0.82875 0.48448 0.72198 0.0
H1209 H 0.7683 0.50293 0.75295 0.0
H1210 H 0.84835 0.50371 0.75265 0.0
H1211 H 0.78897 0.52172 0.78313 0.0
H1212 H 0.76088 0.39488 0.63913 0.0
H1213 H 0.75588 0.43443 0.71144 0.0
H1214 H 0.77072 0.43381 0.6403 0.0
H1215 H 0.74609 0.39555 0.70894 0.0
H1216 H 0.71587 0.45534 0.76637 0.0
H1217 H 0.68297 0.45567 0.70173 0.0
H1218 H 0.8704 0.43103 0.69139 0.0
H1219 H 0.81931 0.39982 0.72949 0.0
H1220 H 0.77745 0.53419 0.65386 0.0
H1221 H 0.72979 0.52592 0.70634 0.0
H1222 H 0.76945 0.57367 0.65357 0.0
H1223 H 0.72261 0.56557 0.70514 0.0
H1224 H 0.83998 0.51158 0.65066 0.0
H1225 H 0.80257 0.45271 0.65143 0.0
H1226 H 0.86256 0.49608 0.62002 0.0
H1227 H 0.82556 0.43833 0.62061 0.0
H1228 H 0.8468 0.55881 0.69916 0.0
H1229 H 0.79035 0.57355 0.73973 0.0
H1230 H 0.73473 0.46525 0.59257 0.0
H1231 H 0.78665 0.51146 0.58248 0.0
Li1232 Li 0.0318 0.79462 0.18881 0.0
Li1233 Li 0.01943 0.75841 0.19924 0.0
Li1234 Li 0.01071 0.77436 0.16193 0.0
Li1235 Li 0.9928 0.78822 0.19515 0.0
C1236 C 0.06128 0.76741 0.17198 0.0
N1237 N 0.10581 0.76992 0.16739 0.0
C1238 C 0.0748 0.75996 0.18926 0.0
C1239 C 0.0704 0.77584 0.15221 0.0
C1240 C 0.09727 0.76145 0.18667 0.0
C1241 C 0.09295 0.77705 0.15026 0.0
C1242 C 0.0089 0.78201 0.23838 0.0
C1243 C 0.98517 0.7624 0.26354 0.0
N1244 N 0.99179 0.7752 0.28095 0.0
C1245 C 0.01546 0.79497 0.2565 0.0
C1246 C 0.99363 0.76558 0.24189 0.0
C1247 C 0.00662 0.79127 0.27791 0.0
C1248 C 0.05654 0.83348 0.18262 0.0
N1249 N 0.05479 0.81453 0.19425 0.0
C1250 C 0.08575 0.8235 0.21666 0.0
C1251 C 0.0688 0.80947 0.21117 0.0
C1252 C 0.08807 0.84313 0.20486 0.0
C1253 C 0.07318 0.84808 0.18765 0.0
H1254 H 0.04487 0.83746 0.1697 0.0
H1255 H 0.06663 0.7946 0.2206 0.0
C1256 C 0.026 0.71355 0.20282 0.0
N1257 N 0.02795 0.73254 0.2143 0.0
C1258 C 0.03458 0.69443 0.21181 0.0
C1259 C 0.0464 0.71469 0.24457 0.0
C1260 C 0.03776 0.73343 0.23487 0.0
C1261 C 0.04522 0.69493 0.23281 0.0
H1262 H 0.01843 0.71342 0.18633 0.0
H1263 H 0.03972 0.74884 0.24334 0.0
C1264 C 0.00416 0.81657 0.15131 0.0
N1265 N 0.99835 0.83878 0.11117 0.0
C1266 C 0.98424 0.8264 0.1465 0.0
C1267 C 0.02114 0.81818 0.13575 0.0
C1268 C 0.98163 0.83753 0.1261 0.0
C1269 C 0.01788 0.82943 0.11554 0.0
C1270 C 0.97221 0.75255 0.17228 0.0
C1271 C 0.95863 0.76851 0.16331 0.0
C1272 C 0.96653 0.73071 0.17019 0.0
C1273 C 0.93956 0.76235 0.15232 0.0
C1274 C 0.9473 0.72519 0.15909 0.0
N1275 N 0.93433 0.741 0.15045 0.0
C1276 C 0.02203 0.75317 0.12154 0.0
C1277 C 0.99134 0.77602 0.11778 0.0
C1278 C 0.02128 0.74807 0.09854 0.0
N1279 N 0.0074 0.76719 0.13061 0.0
C1280 C 0.99021 0.77167 0.09468 0.0
C1281 C 0.00542 0.75767 0.08478 0.0
H1282 H 0.03447 0.74613 0.13213 0.0
H1283 H 0.97956 0.78671 0.12534 0.0
C1284 C 0.96746 0.82347 0.20613 0.0
N1285 N 0.96751 0.80147 0.20712 0.0
C1286 C 0.94936 0.83512 0.2132 0.0
C1287 C 0.93203 0.80133 0.22349 0.0
C1288 C 0.95041 0.79024 0.21577 0.0
C1289 C 0.93133 0.82403 0.22184 0.0
H1290 H 0.98143 0.83194 0.19948 0.0
H1291 H 0.95093 0.77271 0.21641 0.0
O1292 O 0.03922 0.76634 0.17433 0.0
O1293 O 0.01734 0.78557 0.21733 0.0
O1294 O 0.00698 0.8054 0.1711 0.0
O1295 O 0.99097 0.75817 0.18312 0.0
H1296 H 0.06805 0.75335 0.20464 0.0
H1297 H 0.06022 0.78128 0.13847 0.0
H1298 H 0.10793 0.75591 0.2 0.0
H1299 H 0.10023 0.78361 0.13509 0.0
H1300 H 0.97334 0.74976 0.26649 0.0
H1301 H 0.02725 0.80776 0.25403 0.0
H1302 H 0.98837 0.75538 0.22807 0.0
H1303 H 0.01155 0.80117 0.2921 0.0
H1304 H 0.0966 0.81926 0.23036 0.0
H1305 H 0.0744 0.86304 0.17815 0.0
H1306 H 0.03328 0.67951 0.20225 0.0
H1307 H 0.0548 0.71585 0.26059 0.0
H1308 H 0.97085 0.82527 0.15823 0.0
H1309 H 0.03664 0.81075 0.13922 0.0
H1310 H 0.96628 0.84512 0.12212 0.0
H1311 H 0.03087 0.8307 0.10332 0.0
H1312 H 0.96284 0.78547 0.16466 0.0
H1313 H 0.97686 0.71815 0.17709 0.0
H1314 H 0.92893 0.77455 0.14525 0.0
H1315 H 0.94269 0.70834 0.15734 0.0
H1316 H 0.03331 0.73721 0.09148 0.0
H1317 H 0.97755 0.77913 0.08464 0.0
H1318 H 0.94945 0.85266 0.21197 0.0
H1319 H 0.91836 0.79232 0.23013 0.0
Li1320 Li 0.70251 0.03456 0.691 0.0
Li1321 Li 0.73903 0.02162 0.69577 0.0
Li1322 Li 0.7203 0.01563 0.66071 0.0
Li1323 Li 0.70954 0.99617 0.69404 0.0
C1324 C 0.72303 0.06027 0.65942 0.0
N1325 N 0.71176 0.09325 0.62999 0.0
C1326 C 0.73753 0.07719 0.65506 0.0
C1327 C 0.70273 0.06022 0.64886 0.0
C1328 C 0.73155 0.09369 0.64012 0.0
C1329 C 0.69736 0.077 0.63403 0.0
C1330 C 0.71689 0.03236 0.73538 0.0
C1331 C 0.71179 0.0403 0.77495 0.0
N1332 N 0.72171 0.0598 0.77198 0.0
C1333 C 0.72707 0.05246 0.73274 0.0
C1334 C 0.70923 0.02619 0.75666 0.0
C1335 C 0.72934 0.0661 0.75144 0.0
C1336 C 0.66095 0.05075 0.70055 0.0
N1337 N 0.68214 0.05653 0.69877 0.0
C1338 C 0.67368 0.09309 0.7088 0.0
C1339 C 0.6887 0.07725 0.70255 0.0
C1340 C 0.65159 0.08768 0.7108 0.0
C1341 C 0.64531 0.06614 0.70642 0.0
H1342 H 0.65622 0.03413 0.69743 0.0
H1343 H 0.70563 0.0815 0.70088 0.0
C1344 C 0.7787 0.043 0.69698 0.0
N1345 N 0.76642 0.02861 0.70871 0.0
C1346 C 0.79769 0.0513 0.70635 0.0
C1347 C 0.79182 0.0288 0.73923 0.0
C1348 C 0.77264 0.02127 0.72938 0.0
C1349 C 0.80446 0.04443 0.72792 0.0
H1350 H 0.77331 0.04858 0.68061 0.0
H1351 H 0.76242 0.01007 0.73854 0.0
C1352 C 0.67973 0.99579 0.65939 0.0
N1353 N 0.65817 0.96496 0.634 0.0
C1354 C 0.69113 0.97845 0.64985 0.0
C1355 C 0.65737 0.99745 0.65597 0.0
C1356 C 0.67994 0.96303 0.63708 0.0
C1357 C 0.64676 0.9817 0.64309 0.0
C1358 C 0.75097 0.97902 0.68784 0.0
C1359 C 0.76638 0.96804 0.67486 0.0
C1360 C 0.74899 0.97433 0.71086 0.0
C1361 C 0.77964 0.95254 0.68516 0.0
C1362 C 0.76254 0.95873 0.72054 0.0
N1363 N 0.77746 0.94825 0.7076 0.0
C1364 C 0.74518 0.01102 0.6216 0.0
C1365 C 0.70786 0.01687 0.61407 0.0
C1366 C 0.74973 0.01014 0.59851 0.0
N1367 N 0.72454 0.01431 0.62888 0.0
C1368 C 0.71165 0.01595 0.59083 0.0
C1369 C 0.73282 0.01258 0.58279 0.0
H1370 H 0.75811 0.00913 0.6338 0.0
H1371 H 0.69163 0.01975 0.62027 0.0
C1372 C 0.6821 0.97426 0.72243 0.0
N1373 N 0.69669 0.97056 0.7057 0.0
C1374 C 0.66968 0.95732 0.73101 0.0
C1375 C 0.68775 0.93283 0.70522 0.0
C1376 C 0.70003 0.95032 0.69724 0.0
C1377 C 0.672 0.93635 0.72203 0.0
H1378 H 0.67971 0.99058 0.72866 0.0
H1379 H 0.71168 0.94788 0.68381 0.0
O1380 O 0.72873 0.04408 0.67412 0.0
O1381 O 0.71459 0.01857 0.71741 0.0
O1382 O 0.69023 0.01109 0.6721 0.0
O1383 O 0.73789 0.99417 0.67784 0.0
H1384 H 0.75323 0.07765 0.66319 0.0
H1385 H 0.69115 0.04746 0.6521 0.0
H1386 H 0.74263 0.10686 0.6366 0.0
H1387 H 0.68171 0.07712 0.62575 0.0
H1388 H 0.70592 0.03573 0.79151 0.0
H1389 H 0.73323 0.05749 0.71647 0.0
H1390 H 0.70142 0.01063 0.75904 0.0
H1391 H 0.73719 0.08169 0.74961 0.0
H1392 H 0.67946 0.10931 0.71236 0.0
H1393 H 0.62849 0.0612 0.70733 0.0
H1394 H 0.80645 0.06361 0.69704 0.0
H1395 H 0.79643 0.02267 0.75568 0.0
H1396 H 0.70843 0.97687 0.65222 0.0
H1397 H 0.6483 0.01079 0.66319 0.0
H1398 H 0.68856 0.94953 0.62963 0.0
H1399 H 0.62945 0.98279 0.64032 0.0
H1400 H 0.76808 0.97145 0.657 0.0
H1401 H 0.73716 0.98262 0.72121 0.0
H1402 H 0.79165 0.94392 0.67532 0.0
H1403 H 0.7612 0.95497 0.73835 0.0
H1404 H 0.76625 0.00734 0.59301 0.0
H1405 H 0.69822 0.0182 0.57927 0.0
H1406 H 0.65809 0.96073 0.7443 0.0
H1407 H 0.68998 0.91696 0.69773 0.0
H1408 H 0.4317 0.146 0.25359 0.0
H1409 H 0.38269 0.18277 0.21821 0.0
H1410 H 0.40424 0.12 0.26571 0.0
H1411 H 0.35502 0.1566 0.23059 0.0
H1412 H 0.3132 0.11285 0.28215 0.0
H1413 H 0.33851 0.14156 0.27032 0.0
H1414 H 0.38073 0.09315 0.24134 0.0
H1415 H 0.35557 0.06469 0.25286 0.0
C1416 C 0.41497 0.14871 0.24873 0.0
C1417 C 0.40928 0.16643 0.23504 0.0
C1418 C 0.39932 0.13375 0.25552 0.0
C1419 C 0.3776 0.13632 0.24899 0.0
C1420 C 0.37168 0.15438 0.23589 0.0
C1421 C 0.38747 0.16922 0.22875 0.0
C1422 C 0.32784 0.10847 0.27311 0.0
C1423 C 0.33242 0.08662 0.2683 0.0
C1424 C 0.3422 0.12483 0.26629 0.0
C1425 C 0.36154 0.11947 0.25503 0.0
C1426 C 0.36597 0.09766 0.25011 0.0
C1427 C 0.35151 0.08142 0.25655 0.0
H1428 H 0.34575 0.39984 0.70004 0.0
H1429 H 0.30921 0.39875 0.76239 0.0
H1430 H 0.36869 0.37076 0.71405 0.0
H1431 H 0.33255 0.36976 0.77656 0.0
H1432 H 0.40087 0.34716 0.80219 0.0
H1433 H 0.3712 0.36928 0.78815 0.0
H1434 H 0.37037 0.33226 0.7262 0.0
H1435 H 0.39996 0.30971 0.74042 0.0
C1436 C 0.34224 0.39306 0.71652 0.0
C1437 C 0.32568 0.40177 0.73013 0.0
C1438 C 0.35545 0.37637 0.72456 0.0
C1439 C 0.35251 0.36805 0.74646 0.0
C1440 C 0.33538 0.37606 0.75972 0.0
C1441 C 0.32206 0.3927 0.75162 0.0
C1442 C 0.39402 0.34327 0.78584 0.0
C1443 C 0.40293 0.32668 0.77241 0.0
C1444 C 0.37699 0.35601 0.77777 0.0
C1445 C 0.36851 0.35258 0.75603 0.0
C1446 C 0.37677 0.33546 0.74292 0.0
C1447 C 0.39375 0.3226 0.75105 0.0
H1448 H 0.09873 0.30856 0.25747 0.0
H1449 H 0.09372 0.3488 0.1979 0.0
H1450 H 0.12834 0.33128 0.27134 0.0
H1451 H 0.12314 0.37137 0.21169 0.0
H1452 H 0.18449 0.40271 0.23502 0.0
H1453 H 0.16144 0.37363 0.2206 0.0
H1454 H 0.13094 0.36802 0.2861 0.0
H1455 H 0.154 0.39691 0.30048 0.0
C1456 C 0.10404 0.32214 0.24726 0.0
C1457 C 0.0938 0.32689 0.22661 0.0
C1458 C 0.121 0.33515 0.2552 0.0
C1459 C 0.12807 0.35319 0.24266 0.0
C1460 C 0.11837 0.35741 0.22161 0.0
C1461 C 0.10146 0.34443 0.21369 0.0
C1462 C 0.17299 0.3951 0.24637 0.0
C1463 C 0.17096 0.40223 0.26884 0.0
C1464 C 0.15979 0.37846 0.23812 0.0
C1465 C 0.14421 0.36863 0.25214 0.0
C1466 C 0.14294 0.37504 0.27491 0.0
C1467 C 0.15617 0.39164 0.28317 0.0
H1468 H 0.14716 0.06683 0.74992 0.0
H1469 H 0.18601 0.11514 0.71595 0.0
H1470 H 0.12137 0.09476 0.76122 0.0
H1471 H 0.16 0.14332 0.72745 0.0
H1472 H 0.11577 0.18564 0.7783 0.0
H1473 H 0.14426 0.1602 0.76634 0.0
H1474 H 0.0956 0.11869 0.73673 0.0
H1475 H 0.06733 0.14388 0.74851 0.0
C1476 C 0.15036 0.0835 0.74519 0.0
C1477 C 0.16863 0.08886 0.73216 0.0
C1478 C 0.13551 0.09943 0.75148 0.0
C1479 C 0.13869 0.12111 0.74509 0.0
C1480 C 0.15727 0.12669 0.73262 0.0
C1481 C 0.17204 0.11062 0.72599 0.0
C1482 C 0.11127 0.17116 0.76905 0.0
C1483 C 0.08937 0.16676 0.76425 0.0
C1484 C 0.12752 0.15672 0.76215 0.0
C1485 C 0.12203 0.13749 0.75076 0.0
C1486 C 0.10021 0.13335 0.74562 0.0
C1487 C 0.08407 0.14786 0.75219 0.0
H1488 H 0.594 0.81931 0.74548 0.0
H1489 H 0.57535 0.86611 0.79626 0.0
H1490 H 0.62182 0.84447 0.73159 0.0
H1491 H 0.60272 0.89113 0.78223 0.0
H1492 H 0.62874 0.93936 0.73074 0.0
H1493 H 0.60459 0.91148 0.74509 0.0
H1494 H 0.65698 0.86506 0.74384 0.0
H1495 H 0.68161 0.89332 0.72985 0.0
C1496 C 0.59603 0.83479 0.75385 0.0
C1497 C 0.58222 0.8409 0.77168 0.0
C1498 C 0.61192 0.84916 0.7459 0.0
C1499 C 0.61413 0.86984 0.75562 0.0
C1500 C 0.60103 0.87546 0.77412 0.0
C1501 C 0.58533 0.86115 0.78209 0.0
C1502 C 0.63528 0.92332 0.73377 0.0
C1503 C 0.65724 0.9187 0.72957 0.0
C1504 C 0.6214 0.90732 0.74191 0.0
C1505 C 0.62901 0.88622 0.74588 0.0
C1506 C 0.65074 0.88124 0.74092 0.0
C1507 C 0.66478 0.89739 0.73289 0.0
H1508 H 0.59346 0.64945 0.20171 0.0
H1509 H 0.59072 0.68408 0.26522 0.0
H1510 H 0.62298 0.62737 0.21617 0.0
H1511 H 0.61996 0.66135 0.27989 0.0
H1512 H 0.6456 0.59243 0.30274 0.0
H1513 H 0.62197 0.62139 0.28952 0.0
H1514 H 0.66165 0.62893 0.22992 0.0
H1515 H 0.68575 0.60028 0.24337 0.0
C1516 C 0.59942 0.65272 0.21858 0.0
C1517 C 0.58959 0.66857 0.23229 0.0
C1518 C 0.61634 0.63998 0.22689 0.0
C1519 C 0.62373 0.64261 0.24917 0.0
C1520 C 0.61442 0.65884 0.26271 0.0
C1521 C 0.59762 0.67178 0.25432 0.0
C1522 C 0.64972 0.60064 0.28714 0.0
C1523 C 0.66752 0.59387 0.27405 0.0
C1524 C 0.63611 0.61723 0.27954 0.0
C1525 C 0.63989 0.62729 0.25861 0.0
C1526 C 0.6582 0.62123 0.24598 0.0
C1527 C 0.67193 0.60478 0.25366 0.0
H1528 H 0.91168 0.63922 0.7995 0.0
H1529 H 0.89759 0.68529 0.74646 0.0
H1530 H 0.88262 0.61594 0.78599 0.0
H1531 H 0.86843 0.66187 0.73286 0.0
H1532 H 0.84486 0.59849 0.69772 0.0
H1533 H 0.86761 0.62688 0.71372 0.0
H1534 H 0.84366 0.6115 0.78047 0.0
H1535 H 0.82142 0.58253 0.76449 0.0
C1536 C 0.90204 0.64465 0.78528 0.0
C1537 C 0.90706 0.66407 0.77398 0.0
C1538 C 0.88535 0.63127 0.77752 0.0
C1539 C 0.87328 0.63698 0.75826 0.0
C1540 C 0.87766 0.65686 0.74754 0.0
C1541 C 0.89436 0.67026 0.75531 0.0
C1542 C 0.84436 0.60125 0.7158 0.0
C1543 C 0.83152 0.58812 0.72986 0.0
C1544 C 0.85721 0.6177 0.72495 0.0
C1545 C 0.85753 0.62139 0.7484 0.0
C1546 C 0.84396 0.60889 0.76237 0.0
C1547 C 0.83105 0.59244 0.75319 0.0
H1548 H 0.85172 0.93473 0.24414 0.0
H1549 H 0.8204 0.88795 0.28753 0.0
H1550 H 0.87649 0.90702 0.23081 0.0
H1551 H 0.845 0.85972 0.27366 0.0
H1552 H 0.91109 0.82402 0.26291 0.0
H1553 H 0.8822 0.84848 0.27547 0.0
H1554 H 0.87876 0.87574 0.20819 0.0
H1555 H 0.90819 0.85203 0.19619 0.0
C1556 C 0.84986 0.91835 0.25048 0.0
C1557 C 0.83399 0.91346 0.26671 0.0
C1558 C 0.86404 0.90239 0.24279 0.0
C1559 C 0.86264 0.88101 0.25094 0.0
C1560 C 0.84667 0.87605 0.26715 0.0
C1561 C 0.83254 0.89216 0.27504 0.0
C1562 C 0.90387 0.8351 0.25085 0.0
C1563 C 0.91193 0.83642 0.22871 0.0
C1564 C 0.88729 0.84905 0.25796 0.0
C1565 C 0.87836 0.86436 0.24294 0.0
C1566 C 0.88566 0.86462 0.2204 0.0
C1567 C 0.90239 0.85096 0.21345 0.0
H1568 H 0.55063 0.33932 0.21894 0.0
H1569 H 0.57734 0.29829 0.27122 0.0
H1570 H 0.57118 0.36991 0.23365 0.0
H1571 H 0.59888 0.32854 0.28507 0.0
H1572 H 0.62424 0.39069 0.31547 0.0
H1573 H 0.59852 0.36286 0.30374 0.0
H1574 H 0.60799 0.38133 0.23395 0.0
H1575 H 0.63262 0.40988 0.24575 0.0
C1576 C 0.56073 0.33684 0.2337 0.0
C1577 C 0.56242 0.31626 0.24378 0.0
C1578 C 0.57276 0.35434 0.24195 0.0
C1579 C 0.58689 0.35168 0.26041 0.0
C1580 C 0.58805 0.33127 0.27094 0.0
C1581 C 0.57592 0.31381 0.26279 0.0
C1582 C 0.62052 0.38907 0.29766 0.0
C1583 C 0.63062 0.40247 0.28156 0.0
C1584 C 0.60597 0.37292 0.2909 0.0
C1585 C 0.60122 0.36974 0.26788 0.0
C1586 C 0.61102 0.38344 0.25184 0.0
C1587 C 0.62544 0.39963 0.2586 0.0
H1588 H 0.17227 0.53845 0.76244 0.0
H1589 H 0.19768 0.59691 0.73189 0.0
H1590 H 0.14205 0.55933 0.77808 0.0
H1591 H 0.16807 0.61764 0.74822 0.0
H1592 H 0.12571 0.65103 0.80074 0.0
H1593 H 0.15552 0.628 0.78798 0.0
H1594 H 0.1095 0.58137 0.76224 0.0
H1595 H 0.07957 0.60442 0.77511 0.0
C1596 C 0.17144 0.55567 0.75899 0.0
C1597 C 0.18758 0.56598 0.74602 0.0
C1598 C 0.15418 0.56761 0.76804 0.0
C1599 C 0.15289 0.5901 0.76453 0.0
C1600 C 0.16892 0.60038 0.75155 0.0
C1601 C 0.18595 0.58846 0.74228 0.0
C1602 C 0.12196 0.6357 0.79269 0.0
C1603 C 0.10035 0.62952 0.78886 0.0
C1604 C 0.139 0.62263 0.78524 0.0
C1605 C 0.13478 0.60299 0.77403 0.0
C1606 C 0.11318 0.59639 0.77093 0.0
C1607 C 0.0961 0.60962 0.77814 0.0
H1608 H 0.83929 0.13136 0.29067 0.0
H1609 H 0.89163 0.08485 0.28817 0.0
H1610 H 0.864 0.15983 0.2785 0.0
H1611 H 0.91663 0.11357 0.27683 0.0
H1612 H 0.9447 0.16454 0.22676 0.0
H1613 H 0.92299 0.13557 0.24336 0.0
H1614 H 0.89476 0.18141 0.29012 0.0
H1615 H 0.91635 0.2104 0.27337 0.0
C1616 C 0.85612 0.12725 0.28766 0.0
C1617 C 0.86344 0.1058 0.29021 0.0
C1618 C 0.87036 0.14363 0.28095 0.0
C1619 C 0.89231 0.13899 0.27665 0.0
C1620 C 0.89977 0.11764 0.27977 0.0
C1621 C 0.8855 0.10123 0.28651 0.0
C1622 C 0.93414 0.16835 0.24084 0.0
C1623 C 0.9321 0.18978 0.24862 0.0
C1624 C 0.9217 0.15174 0.25038 0.0
C1625 C 0.907 0.1562 0.26796 0.0
C1626 C 0.9056 0.17751 0.27631 0.0
C1627 C 0.91799 0.1941 0.26674 0.0
H1628 H 0.33675 0.94393 0.72379 0.0
H1629 H 0.2915 0.91324 0.76948 0.0
H1630 H 0.36606 0.92197 0.73935 0.0
H1631 H 0.32061 0.89067 0.78437 0.0
H1632 H 0.38133 0.86459 0.81854 0.0
H1633 H 0.35406 0.89079 0.80624 0.0
H1634 H 0.37633 0.88404 0.73734 0.0
H1635 H 0.40402 0.85857 0.74973 0.0
C1636 C 0.33309 0.93267 0.73732 0.0
C1637 C 0.31175 0.93022 0.74528 0.0
C1638 C 0.34984 0.9199 0.74605 0.0
C1639 C 0.34564 0.90441 0.76295 0.0
C1640 C 0.32445 0.90253 0.77147 0.0
C1641 C 0.3077 0.91529 0.76274 0.0
C1642 C 0.38056 0.86892 0.80082 0.0
C1643 C 0.39476 0.85941 0.7851 0.0
C1644 C 0.36482 0.88378 0.79374 0.0
C1645 C 0.36301 0.8895 0.7708 0.0
C1646 C 0.37744 0.88021 0.75517 0.0
C1647 C 0.39312 0.86536 0.76223 0.0
H1648 H 0.56965 0.20271 0.72531 0.0
H1649 H 0.56238 0.16783 0.78803 0.0
H1650 H 0.59138 0.1731 0.71 0.0
H1651 H 0.58505 0.13864 0.77339 0.0
H1652 H 0.61516 0.08224 0.73705 0.0
H1653 H 0.58901 0.10951 0.74859 0.0
H1654 H 0.62599 0.15856 0.7133 0.0
H1655 H 0.65099 0.13103 0.70014 0.0
C1656 C 0.57275 0.18863 0.73577 0.0
C1657 C 0.56441 0.18748 0.7578 0.0
C1658 C 0.58534 0.17172 0.72712 0.0
C1659 C 0.59027 0.15347 0.74049 0.0
C1660 C 0.5814 0.1522 0.76241 0.0
C1661 C 0.56846 0.16895 0.77089 0.0
C1662 C 0.61748 0.09874 0.73131 0.0
C1663 C 0.63533 0.10433 0.71766 0.0
C1664 C 0.60261 0.11451 0.73826 0.0
C1665 C 0.60534 0.13637 0.73203 0.0
C1666 C 0.62307 0.1419 0.71821 0.0
C1667 C 0.63773 0.12609 0.71097 0.0
H1668 H 0.41307 0.60237 0.21125 0.0
H1669 H 0.37418 0.65875 0.22657 0.0
H1670 H 0.38426 0.5789 0.22606 0.0
H1671 H 0.34548 0.6354 0.24109 0.0
H1672 H 0.31257 0.58905 0.29054 0.0
H1673 H 0.34191 0.61073 0.27491 0.0
H1674 H 0.34482 0.56857 0.21674 0.0
H1675 H 0.31492 0.54703 0.23208 0.0
C1676 C 0.39836 0.60971 0.21773 0.0
C1677 C 0.39583 0.63237 0.21774 0.0
C1678 C 0.38186 0.5963 0.22604 0.0
C1679 C 0.36271 0.60536 0.23479 0.0
C1680 C 0.36016 0.62799 0.23463 0.0
C1681 C 0.3765 0.64134 0.22613 0.0
C1682 C 0.31925 0.58447 0.2743 0.0
C1683 C 0.31115 0.56643 0.26244 0.0
C1684 C 0.33613 0.59687 0.2654 0.0
C1685 C 0.3455 0.59143 0.24453 0.0
C1686 C 0.33794 0.57304 0.23293 0.0
C1687 C 0.32087 0.5607 0.24175 0.0
H1688 H 0.83852 0.36925 0.71391 0.0
H1689 H 0.88967 0.41631 0.72324 0.0
H1690 H 0.86277 0.34057 0.72643 0.0
H1691 H 0.91431 0.3874 0.73471 0.0
H1692 H 0.94227 0.33366 0.7809 0.0
H1693 H 0.92012 0.36323 0.76612 0.0
H1694 H 0.89404 0.32019 0.71526 0.0
H1695 H 0.91591 0.29059 0.73034 0.0
C1696 C 0.85497 0.37348 0.71858 0.0
C1697 C 0.86209 0.39512 0.71767 0.0
C1698 C 0.86899 0.35697 0.72546 0.0
C1699 C 0.89054 0.36164 0.73154 0.0
C1700 C 0.89776 0.38325 0.73037 0.0
C1701 C 0.8837 0.3998 0.72353 0.0
C1702 C 0.93202 0.33063 0.76637 0.0
C1703 C 0.9307 0.30978 0.75688 0.0
C1704 C 0.91934 0.34757 0.75787 0.0
C1705 C 0.90515 0.34406 0.7396 0.0
C1706 C 0.90443 0.32336 0.72965 0.0
C1707 C 0.91699 0.30641 0.73823 0.0
H1708 H 0.08532 0.88721 0.20955 0.0
H1709 H 0.13046 0.83381 0.21402 0.0
H1710 H 0.11395 0.9123 0.22106 0.0
H1711 H 0.15888 0.85875 0.22606 0.0
H1712 H 0.21007 0.91133 0.22779 0.0
H1713 H 0.18131 0.88884 0.21193 0.0
H1714 H 0.13475 0.91982 0.25591 0.0
H1715 H 0.16352 0.9422 0.27191 0.0
C1716 C 0.1014 0.88087 0.2128 0.0
C1717 C 0.10564 0.85853 0.21093 0.0
C1718 C 0.11772 0.8952 0.21959 0.0
C1719 C 0.13866 0.8875 0.2245 0.0
C1720 C 0.14298 0.86523 0.22218 0.0
C1721 C 0.12665 0.8509 0.21552 0.0
C1722 C 0.19369 0.91334 0.23408 0.0
C1723 C 0.18913 0.92843 0.25127 0.0
C1724 C 0.17723 0.90047 0.22499 0.0
C1725 C 0.1558 0.90244 0.23279 0.0
C1726 C 0.15107 0.91807 0.24937 0.0
C1727 C 0.16756 0.93092 0.25853 0.0
H1728 H 0.37546 0.60678 0.6815 0.0
H1729 H 0.37776 0.57759 0.7479 0.0
H1730 H 0.39979 0.63544 0.69435 0.0
H1731 H 0.40237 0.60602 0.76053 0.0
H1732 H 0.46003 0.65194 0.77014 0.0
H1733 H 0.43946 0.62144 0.75478 0.0
H1734 H 0.39614 0.66615 0.72138 0.0
H1735 H 0.41628 0.69655 0.73699 0.0
C1736 C 0.38119 0.60641 0.69881 0.0
C1737 C 0.37451 0.58992 0.71369 0.0
C1738 C 0.39516 0.62281 0.70613 0.0
C1739 C 0.40291 0.62302 0.72847 0.0
C1740 C 0.39688 0.60615 0.74313 0.0
C1741 C 0.38279 0.58982 0.73586 0.0
C1742 C 0.44609 0.65527 0.75957 0.0
C1743 C 0.43985 0.67675 0.75481 0.0
C1744 C 0.43435 0.63779 0.75074 0.0
C1745 C 0.41622 0.64141 0.73684 0.0
C1746 C 0.41025 0.66284 0.73172 0.0
C1747 C 0.42186 0.68028 0.74065 0.0
H1748 H 0.92241 0.38284 0.24606 0.0
H1749 H 0.88378 0.37164 0.18619 0.0
H1750 H 0.89526 0.40797 0.25999 0.0
H1751 H 0.85579 0.39532 0.20104 0.0
H1752 H 0.81387 0.45013 0.22514 0.0
H1753 H 0.84491 0.43071 0.20946 0.0
H1754 H 0.8608 0.40703 0.27628 0.0
H1755 H 0.83039 0.42727 0.29187 0.0
C1756 C 0.90823 0.38581 0.23573 0.0
C1757 C 0.90534 0.37503 0.21498 0.0
C1758 C 0.89242 0.40001 0.24395 0.0
C1759 C 0.87312 0.40357 0.23183 0.0
C1760 C 0.87049 0.39322 0.21081 0.0
C1761 C 0.88644 0.37929 0.20243 0.0
C1762 C 0.82419 0.44091 0.23641 0.0
C1763 C 0.81978 0.44016 0.25968 0.0
C1764 C 0.8419 0.42967 0.22746 0.0
C1765 C 0.85538 0.41711 0.24153 0.0
C1766 C 0.85111 0.41679 0.26492 0.0
C1767 C 0.83361 0.42831 0.2739 0.0
H1768 H 0.06829 0.83144 0.79262 0.0
H1769 H 0.05854 0.80799 0.72455 0.0
H1770 H 0.08928 0.8618 0.77798 0.0
H1771 H 0.0804 0.83781 0.70999 0.0
H1772 H 0.10788 0.90368 0.68956 0.0
H1773 H 0.08248 0.87677 0.70437 0.0
H1774 H 0.12475 0.866 0.76154 0.0
H1775 H 0.14953 0.89342 0.74732 0.0
C1776 C 0.07039 0.83289 0.77451 0.0
C1777 C 0.06183 0.81718 0.75978 0.0
C1778 C 0.08267 0.85015 0.76613 0.0
C1779 C 0.08675 0.8521 0.74283 0.0
C1780 C 0.0775 0.83687 0.72801 0.0
C1781 C 0.06517 0.81962 0.73639 0.0
C1782 C 0.1116 0.89573 0.70542 0.0
C1783 C 0.13081 0.90062 0.71718 0.0
C1784 C 0.09715 0.88018 0.7138 0.0
C1785 C 0.10156 0.86924 0.73416 0.0
C1786 C 0.12067 0.8743 0.74597 0.0
C1787 C 0.13507 0.88981 0.73762 0.0
H1788 H 0.60234 0.11858 0.18143 0.0
H1789 H 0.59523 0.14111 0.25016 0.0
H1790 H 0.62997 0.09265 0.19384 0.0
H1791 H 0.62308 0.11572 0.26242 0.0
H1792 H 0.66035 0.05601 0.28167 0.0
H1793 H 0.62976 0.07678 0.26703 0.0
H1794 H 0.66756 0.09446 0.20837 0.0
H1795 H 0.69794 0.07311 0.22268 0.0
C1796 C 0.60659 0.11789 0.19918 0.0
C1797 C 0.59673 0.13196 0.2148 0.0
C1798 C 0.62249 0.10319 0.20625 0.0
C1799 C 0.62868 0.10213 0.22911 0.0
C1800 C 0.6185 0.11594 0.24474 0.0
C1801 C 0.60274 0.13068 0.23767 0.0
C1802 C 0.66198 0.06395 0.26543 0.0
C1803 C 0.68162 0.06304 0.25341 0.0
C1804 C 0.64454 0.07603 0.25716 0.0
C1805 C 0.64632 0.08743 0.23666 0.0
C1806 C 0.66564 0.08577 0.22416 0.0
C1807 C 0.68311 0.07373 0.23247 0.0
H1808 H 0.42765 0.7982 0.27606 0.0
H1809 H 0.44447 0.83697 0.21789 0.0
H1810 H 0.40697 0.82861 0.29164 0.0
H1811 H 0.42371 0.86739 0.23342 0.0
H1812 H 0.35704 0.89865 0.25314 0.0
H1813 H 0.38273 0.87147 0.23961 0.0
H1814 H 0.41142 0.86799 0.30608 0.0
H1815 H 0.38562 0.89538 0.31968 0.0
C1816 C 0.42711 0.81334 0.26678 0.0
C1817 C 0.43755 0.81526 0.24576 0.0
C1818 C 0.41542 0.83075 0.27574 0.0
C1819 C 0.41368 0.85028 0.26367 0.0
C1820 C 0.4247 0.85244 0.24299 0.0
C1821 C 0.43667 0.83513 0.23419 0.0
C1822 C 0.36886 0.8921 0.26485 0.0
C1823 C 0.36927 0.89897 0.28749 0.0
C1824 C 0.38368 0.87672 0.25706 0.0
C1825 C 0.39908 0.8677 0.27179 0.0
C1826 C 0.39966 0.87468 0.29441 0.0
C1827 C 0.385 0.89036 0.30214 0.0
H1828 H 0.65325 0.46078 0.72753 0.0
H1829 H 0.69739 0.4214 0.76674 0.0
H1830 H 0.62267 0.44016 0.74261 0.0
H1831 H 0.6669 0.40113 0.78197 0.0
H1832 H 0.60636 0.37991 0.8192 0.0
H1833 H 0.63474 0.40466 0.80653 0.0
H1834 H 0.60872 0.40261 0.73879 0.0
H1835 H 0.58052 0.3777 0.75134 0.0
C1836 C 0.65645 0.44779 0.73939 0.0
C1837 C 0.67781 0.44278 0.7459 0.0
C1838 C 0.63892 0.43601 0.74804 0.0
C1839 C 0.64237 0.41903 0.7635 0.0
C1840 C 0.66366 0.41435 0.77039 0.0
C1841 C 0.68116 0.42603 0.76167 0.0
C1842 C 0.60669 0.38473 0.8016 0.0
C1843 C 0.59123 0.37668 0.78627 0.0
C1844 C 0.62293 0.39894 0.79436 0.0
C1845 C 0.62403 0.40551 0.77164 0.0
C1846 C 0.60815 0.39807 0.75647 0.0
C1847 C 0.59196 0.38379 0.76368 0.0
H1848 H 0.11666 0.57413 0.2528 0.0
H1849 H 0.12636 0.61135 0.3139 0.0
H1850 H 0.09115 0.60121 0.23928 0.0
H1851 H 0.10199 0.63916 0.29967 0.0
H1852 H 0.04498 0.67912 0.27606 0.0
H1853 H 0.06559 0.64848 0.29099 0.0
H1854 H 0.0922 0.6368 0.22446 0.0
H1855 H 0.07118 0.66696 0.20959 0.0
C1856 C 0.11326 0.58798 0.26347 0.0
C1857 C 0.1237 0.59052 0.28445 0.0
C1858 C 0.09883 0.60372 0.25554 0.0
C1859 C 0.09461 0.62253 0.26825 0.0
C1860 C 0.10464 0.62482 0.28947 0.0
C1861 C 0.11891 0.60898 0.2975 0.0
C1862 C 0.05514 0.66986 0.26465 0.0
C1863 C 0.05644 0.67541 0.24166 0.0
C1864 C 0.06703 0.65236 0.2732 0.0
C1865 C 0.08066 0.64015 0.25897 0.0
C1866 C 0.0816 0.64552 0.23587 0.0
C1867 C 0.06957 0.66287 0.22732 0.0
H1868 H 0.92744 0.10827 0.75952 0.0
H1869 H 0.88211 0.12961 0.81074 0.0
H1870 H 0.90121 0.0822 0.74611 0.0
H1871 H 0.85499 0.10537 0.79554 0.0
H1872 H 0.8113 0.05248 0.77319 0.0
H1873 H 0.8415 0.07119 0.79059 0.0
H1874 H 0.87061 0.08028 0.72472 0.0
H1875 H 0.84178 0.05943 0.70773 0.0
C1876 C 0.91196 0.10743 0.76808 0.0
C1877 C 0.90704 0.12135 0.78625 0.0
C1878 C 0.89663 0.09266 0.76 0.0
C1879 C 0.87567 0.09174 0.76938 0.0
C1880 C 0.87093 0.10528 0.7879 0.0
C1881 C 0.88646 0.11964 0.79638 0.0
C1882 C 0.82444 0.05784 0.76244 0.0
C1883 C 0.82381 0.0545 0.7389 0.0
C1884 C 0.84167 0.06905 0.77243 0.0
C1885 C 0.85852 0.07771 0.75915 0.0
C1886 C 0.85819 0.07377 0.73571 0.0
C1887 C 0.84128 0.0621 0.72581 0.0
H1888 H 0.54085 0.24631 0.05836 0.0
H1889 H 0.47245 0.23148 0.05498 0.0
H1890 H 0.54113 0.25362 0.01788 0.0
H1891 H 0.47271 0.23885 0.01445 0.0
H1892 H 0.48667 0.23267 0.9386 0.0
H1893 H 0.48668 0.22448 0.97895 0.0
H1894 H 0.52751 0.28021 0.99118 0.0
H1895 H 0.52819 0.28789 0.9508 0.0
C1896 C 0.52582 0.24478 0.049 0.0
C1897 C 0.50661 0.23838 0.05991 0.0
C1898 C 0.52599 0.24898 0.0258 0.0
C1899 C 0.50693 0.24689 0.01293 0.0
C1900 C 0.48774 0.24033 0.02381 0.0
C1901 C 0.48758 0.23611 0.04703 0.0
C1902 C 0.49582 0.24304 0.94989 0.0
C1903 C 0.50744 0.26093 0.94147 0.0
C1904 C 0.49562 0.23849 0.97304 0.0
C1905 C 0.50708 0.2517 0.9883 0.0
C1906 C 0.5187 0.26957 0.97987 0.0
C1907 C 0.51888 0.27413 0.95674 0.0
H1908 H 0.24912 0.53637 0.44338 0.0
H1909 H 0.21645 0.47476 0.44967 0.0
H1910 H 0.2561 0.53659 0.4839 0.0
H1911 H 0.22397 0.47454 0.4902 0.0
H1912 H 0.22392 0.49039 0.56547 0.0
H1913 H 0.21519 0.49118 0.52534 0.0
H1914 H 0.27802 0.51916 0.51118 0.0
H1915 H 0.28615 0.51969 0.55133 0.0
C1916 C 0.24359 0.52278 0.45347 0.0
C1917 C 0.23234 0.5055 0.4434 0.0
C1918 C 0.24765 0.52284 0.47668 0.0
C1919 C 0.24077 0.50549 0.49036 0.0
C1920 C 0.22927 0.48831 0.48027 0.0
C1921 C 0.225 0.48837 0.45705 0.0
C1922 C 0.23576 0.49699 0.55383 0.0
C1923 C 0.25574 0.50501 0.56171 0.0
C1924 C 0.23086 0.49717 0.53075 0.0
C1925 C 0.24588 0.50524 0.51496 0.0
C1926 C 0.26591 0.51311 0.52284 0.0
C1927 C 0.27072 0.5131 0.5459 0.0
H1928 H 0.97534 0.28997 0.04884 0.0
H1929 H 0.00416 0.22739 0.06246 0.0
H1930 H 0.97661 0.2824 0.00843 0.0
H1931 H 0.00486 0.21969 0.02203 0.0
H1932 H 0.97836 0.20599 0.9501 0.0
H1933 H 0.97813 0.21342 0.99056 0.0
H1934 H 0.00474 0.27707 0.97813 0.0
H1935 H 0.00553 0.26953 0.93767 0.0
C1936 C 0.98211 0.27467 0.04326 0.0
C1937 C 0.98969 0.25932 0.05898 0.0
C1938 C 0.98277 0.27034 0.02008 0.0
C1939 C 0.99084 0.25047 0.01209 0.0
C1940 C 0.99831 0.23505 0.02773 0.0
C1941 C 0.99783 0.23945 0.05091 0.0
C1942 C 0.98447 0.22146 0.95596 0.0
C1943 C 0.99199 0.23714 0.94055 0.0
C1944 C 0.98426 0.22572 0.97916 0.0
C1945 C 0.99138 0.24583 0.98749 0.0
C1946 C 0.99889 0.26153 0.97215 0.0
C1947 C 0.99927 0.25721 0.94897 0.0
H1948 H 0.24749 0.02357 0.44094 0.0
H1949 H 0.26659 0.95644 0.44524 0.0
H1950 H 0.23993 0.02394 0.48143 0.0
H1951 H 0.26045 0.95692 0.48591 0.0
H1952 H 0.22829 0.95699 0.55435 0.0
H1953 H 0.23423 0.95709 0.51365 0.0
H1954 H 0.25481 0.02413 0.51732 0.0
H1955 H 0.24746 0.02415 0.55785 0.0
C1956 C 0.25029 0.00897 0.45071 0.0
C1957 C 0.25749 0.98996 0.44009 0.0
C1958 C 0.24613 0.00917 0.47395 0.0
C1959 C 0.24952 0.99045 0.48716 0.0
C1960 C 0.2571 0.97152 0.47637 0.0
C1961 C 0.2608 0.97123 0.45308 0.0
C1962 C 0.23402 0.97172 0.54632 0.0
C1963 C 0.23742 0.99056 0.55911 0.0
C1964 C 0.23762 0.97178 0.52301 0.0
C1965 C 0.24517 0.99058 0.512 0.0
C1966 C 0.24862 0.00944 0.52499 0.0
C1967 C 0.24456 0.00947 0.54825 0.0
H1968 H 0.49802 0.78678 0.94968 0.0
H1969 H 0.48094 0.7198 0.93812 0.0
H1970 H 0.49769 0.78049 0.99035 0.0
H1971 H 0.48117 0.71324 0.97878 0.0
H1972 H 0.461 0.71451 0.05285 0.0
H1973 H 0.46127 0.72099 0.01222 0.0
H1974 H 0.51691 0.76302 0.02001 0.0
H1975 H 0.51618 0.75692 0.06074 0.0
C1976 C 0.49445 0.77063 0.95588 0.0
C1977 C 0.4895 0.75378 0.94076 0.0
C1978 C 0.49431 0.76699 0.97918 0.0
C1979 C 0.48941 0.74634 0.98791 0.0
C1980 C 0.48463 0.72944 0.97271 0.0
C1981 C 0.48457 0.73315 0.94941 0.0
C1982 C 0.47333 0.72506 0.04582 0.0
C1983 C 0.48858 0.7352 0.05993 0.0
C1984 C 0.47355 0.72873 0.02252 0.0
C1985 C 0.48915 0.74249 0.01276 0.0
C1986 C 0.50443 0.75261 0.02695 0.0
C1987 C 0.50408 0.74909 0.05028 0.0
H1988 H 0.72047 0.4891 0.56318 0.0
H1989 H 0.78925 0.48835 0.54924 0.0
H1990 H 0.71295 0.48994 0.52269 0.0
H1991 H 0.78174 0.48919 0.50882 0.0
H1992 H 0.76053 0.51394 0.43948 0.0
H1993 H 0.76746 0.51356 0.48005 0.0
H1994 H 0.71582 0.46702 0.48918 0.0
H1995 H 0.70889 0.46739 0.4486 0.0
C1996 C 0.73398 0.48893 0.55148 0.0
C1997 C 0.75546 0.4887 0.55945 0.0
C1998 C 0.72967 0.48942 0.52828 0.0
C1999 C 0.74675 0.48969 0.51252 0.0
C2000 C 0.76822 0.48938 0.52051 0.0
C2001 C 0.77252 0.48889 0.54368 0.0
C2002 C 0.75075 0.50352 0.45012 0.0
C2003 C 0.73418 0.49067 0.44078 0.0
C2004 C 0.75472 0.5033 0.47337 0.0
C2005 C 0.74223 0.49022 0.48785 0.0
C2006 C 0.72554 0.4775 0.47854 0.0
C2007 C 0.72157 0.47772 0.45528 0.0
H2008 H 0.00681 0.71858 0.06322 0.0
H2009 H 0.00324 0.78745 0.05092 0.0
H2010 H 0.00623 0.7118 0.0226 0.0
H2011 H 0.00364 0.78093 0.01031 0.0
H2012 H 0.98465 0.76199 0.93896 0.0
H2013 H 0.98333 0.76814 0.97967 0.0
H2014 H 0.02734 0.71437 0.98984 0.0
H2015 H 0.02777 0.70778 0.94925 0.0
C2016 C 0.00609 0.73226 0.05175 0.0
C2017 C 0.00502 0.75351 0.06014 0.0
C2018 C 0.00587 0.72843 0.02846 0.0
C2019 C 0.00494 0.74581 0.01303 0.0
C2020 C 0.00393 0.76709 0.02157 0.0
C2021 C 0.00381 0.77088 0.04486 0.0
C2022 C 0.99401 0.75154 0.94998 0.0
C2023 C 0.00627 0.73439 0.94102 0.0
C2024 C 0.99337 0.75509 0.97331 0.0
C2025 C 0.00525 0.74178 0.98818 0.0
C2026 C 0.01762 0.7247 0.97906 0.0
C2027 C 0.01798 0.72096 0.95577 0.0
H2028 H 0.7659 0.0321 0.5598 0.0
H2029 H 0.70978 0.99126 0.5502 0.0
H2030 H 0.77305 0.03113 0.51929 0.0
H2031 H 0.7171 0.9899 0.50971 0.0
H2032 H 0.72325 0.01125 0.43613 0.0
H2033 H 0.71618 0.01214 0.47658 0.0
H2034 H 0.78497 0.00748 0.48974 0.0
H2035 H 0.79212 0.00784 0.44928 0.0
C2036 C 0.75523 0.02272 0.54903 0.0
C2037 C 0.73728 0.01177 0.55816 0.0
C2038 C 0.75934 0.02211 0.52582 0.0
C2039 C 0.74567 0.01041 0.5112 0.0
C2040 C 0.72776 0.99936 0.5204 0.0
C2041 C 0.72357 0.0001 0.5436 0.0
C2042 C 0.7369 0.01066 0.44763 0.0
C2043 C 0.75827 0.00956 0.4394 0.0
C2044 C 0.73282 0.01087 0.47087 0.0
C2045 C 0.75 0.00988 0.48646 0.0
C2046 C 0.77136 0.00856 0.47823 0.0
C2047 C 0.77544 0.00845 0.45499 0.0
loop_
_geom_bond_atom_site_label_1
_geom_bond_atom_site_label_2
_geom_bond_distance
_geom_bond_site_symmetry_2
_ccdc_geom_bond_type
Li0 N17 1.990 . S
Li0 O60 1.956 . S
Li0 O61 1.970 . S
Li0 O62 1.961 . S
Li1 N25 1.990 . S
Li1 O60 1.970 . S
Li1 O61 1.956 . S
Li1 O63 1.961 . S
Li2 N47 1.990 . S
Li2 O60 1.961 . S
Li2 O62 1.956 . S
Li2 O63 1.970 . S
Li3 N53 1.990 . S
Li3 O61 1.961 . S
Li3 O62 1.970 . S
Li3 O63 1.956 . S
C4 C6 1.348 . S
C4 C7 1.356 . S
C4 O60 1.325 . S
N5 C8 1.314 . S
N5 C9 1.279 . S
C6 C4 1.348 . S
C6 C8 1.353 . S
C6 H64 0.929 . S
C7 C4 1.356 . S
C7 C9 1.358 . S
C7 H65 0.930 . S
C8 N5 1.314 . S
C8 C6 1.353 . S
C8 H66 0.930 . S
C9 N5 1.279 . S
C9 C7 1.358 . S
C9 H67 0.930 . S
C10 C13 1.348 . S
C10 C14 1.356 . S
C10 O61 1.325 . S
C11 N12 1.279 . S
C11 C14 1.358 . S
C11 H68 0.930 . S
N12 C11 1.279 . S
N12 C15 1.314 . S
C13 C10 1.348 . S
C13 C15 1.353 . S
C13 H69 0.929 . S
C14 C10 1.356 . S
C14 C11 1.358 . S
C14 H70 0.930 . S
C15 N12 1.314 . S
C15 C13 1.353 . S
C15 H71 0.930 . S
C16 N17 1.314 . S
C16 C21 1.353 . S
C16 H22 0.930 . S
N17 Li0 1.990 . S
N17 C16 1.314 . S
N17 C19 1.279 . S
C18 C19 1.358 . S
C18 C20 1.356 . S
C18 H72 0.930 . S
C19 N17 1.279 . S
C19 C18 1.358 . S
C19 H23 0.930 . S
C20 C18 1.356 . S
C20 C21 1.348 . S
C21 C16 1.353 . S
C21 C20 1.348 . S
C21 H73 0.929 . S
H22 C16 0.930 . S
H23 C19 0.930 . S
C24 N25 1.314 . S
C24 C26 1.353 . S
C24 H30 0.930 . S
N25 Li1 1.990 . S
N25 C24 1.314 . S
N25 C28 1.279 . S
C26 C24 1.353 . S
C26 C29 1.348 . S
C26 H74 0.929 . S
C27 C28 1.358 . S
C27 C29 1.356 . S
C27 H75 0.930 . S
C28 N25 1.279 . S
C28 C27 1.358 . S
C28 H31 0.930 . S
C29 C26 1.348 . S
C29 C27 1.356 . S
H30 C24 0.930 . S
H31 C28 0.930 . S
C32 C34 1.348 . S
C32 C35 1.356 . S
C32 O62 1.325 . S
N33 C36 1.314 . S
N33 C37 1.279 . S
C34 C32 1.348 . S
C34 C36 1.353 . S
C34 H76 0.929 . S
C35 C32 1.356 . S
C35 C37 1.358 . S
C35 H77 0.930 . S
C36 N33 1.314 . S
C36 C34 1.353 . S
C36 H78 0.930 . S
C37 N33 1.279 . S
C37 C35 1.358 . S
C37 H79 0.930 . S
C38 C39 1.348 . S
C38 C40 1.356 . S
C38 O63 1.325 . S
C39 C38 1.348 . S
C39 C41 1.353 . S
C39 H80 0.929 . S
C40 C38 1.356 . S
C40 C42 1.358 . S
C40 H81 0.930 . S
C41 C39 1.353 . S
C41 N43 1.314 . S
C41 H82 0.930 . S
C42 C40 1.358 . S
C42 N43 1.279 . S
C42 H83 0.930 . S
N43 C41 1.314 . S
N43 C42 1.279 . S
C44 C46 1.353 . S
C44 N47 1.314 . S
C44 H50 0.930 . S
C45 N47 1.279 . S
C45 C48 1.358 . S
C45 H51 0.930 . S
C46 C44 1.353 . S
C46 C49 1.348 . S
C46 H84 0.929 . S
N47 Li2 1.990 . S
N47 C44 1.314 . S
N47 C45 1.279 . S
C48 C45 1.358 . S
C48 C49 1.356 . S
C48 H85 0.930 . S
C49 C46 1.348 . S
C49 C48 1.356 . S
H50 C44 0.930 . S
H51 C45 0.930 . S
C52 N53 1.314 . S
C52 C54 1.353 . S
C52 H58 0.930 . S
N53 Li3 1.990 . S
N53 C52 1.314 . S
N53 C56 1.279 . S
C54 C52 1.353 . S
C54 C57 1.348 . S
C54 H86 0.929 . S
C55 C56 1.358 . S
C55 C57 1.356 . S
C55 H87 0.930 . S
C56 N53 1.279 . S
C56 C55 1.358 . S
C56 H59 0.930 . S
C57 C54 1.348 . S
C57 C55 1.356 . S
H58 C52 0.930 . S
H59 C56 0.930 . S
O60 Li0 1.956 . S
O60 Li1 1.970 . S
O60 Li2 1.961 . S
O60 C4 1.325 . S
O61 Li0 1.970 . S
O61 Li1 1.956 . S
O61 Li3 1.961 . S
O61 C10 1.325 . S
O62 Li0 1.961 . S
O62 Li2 1.956 . S
O62 Li3 1.970 . S
O62 C32 1.325 . S
O63 Li1 1.961 . S
O63 Li2 1.970 . S
O63 Li3 1.956 . S
O63 C38 1.325 . S
H64 C6 0.929 . S
H65 C7 0.930 . S
H66 C8 0.930 . S
H67 C9 0.930 . S
H68 C11 0.930 . S
H69 C13 0.929 . S
H70 C14 0.930 . S
H71 C15 0.930 . S
H72 C18 0.930 . S
H73 C21 0.929 . S
H74 C26 0.929 . S
H75 C27 0.930 . S
H76 C34 0.929 . S
H77 C35 0.930 . S
H78 C36 0.930 . S
H79 C37 0.930 . S
H80 C39 0.929 . S
H81 C40 0.930 . S
H82 C41 0.930 . S
H83 C42 0.930 . S
H84 C46 0.929 . S
H85 C48 0.930 . S
H86 C54 0.929 . S
H87 C55 0.930 . S
Li88 N105 1.990 . S
Li88 O148 1.956 . S
Li88 O149 1.970 . S
Li88 O150 1.961 . S
Li89 N113 1.990 . S
Li89 O148 1.970 . S
Li89 O149 1.956 . S
Li89 O151 1.961 . S
Li90 N135 1.990 . S
Li90 O148 1.961 . S
Li90 O150 1.956 . S
Li90 O151 1.970 . S
Li91 N141 1.990 . S
Li91 O149 1.961 . S
Li91 O150 1.970 . S
Li91 O151 1.956 . S
C92 C94 1.348 . S
C92 C95 1.356 . S
C92 O148 1.325 . S
N93 C96 1.314 . S
N93 C97 1.279 . S
C94 C92 1.348 . S
C94 C96 1.353 . S
C94 H152 0.929 . S
C95 C92 1.356 . S
C95 C97 1.358 . S
C95 H153 0.930 . S
C96 N93 1.314 . S
C96 C94 1.353 . S
C96 H154 0.930 . S
C97 N93 1.279 . S
C97 C95 1.358 . S
C97 H155 0.930 . S
C98 C101 1.348 . S
C98 C102 1.356 . S
C98 O149 1.325 . S
C99 N100 1.279 . S
C99 C102 1.358 . S
C99 H156 0.930 . S
N100 C99 1.279 . S
N100 C103 1.314 . S
C101 C98 1.348 . S
C101 C103 1.353 . S
C101 H157 0.929 . S
C102 C98 1.356 . S
C102 C99 1.358 . S
C102 H158 0.930 . S
C103 N100 1.314 . S
C103 C101 1.353 . S
C103 H159 0.930 . S
C104 N105 1.314 . S
C104 C109 1.353 . S
C104 H110 0.930 . S
N105 Li88 1.990 . S
N105 C104 1.314 . S
N105 C107 1.279 . S
C106 C107 1.358 . S
C106 C108 1.356 . S
C106 H160 0.930 . S
C107 N105 1.279 . S
C107 C106 1.358 . S
C107 H111 0.930 . S
C108 C106 1.356 . S
C108 C109 1.348 . S
C109 C104 1.353 . S
C109 C108 1.348 . S
C109 H161 0.929 . S
H110 C104 0.930 . S
H111 C107 0.930 . S
C112 N113 1.314 . S
C112 C114 1.353 . S
C112 H118 0.930 . S
N113 Li89 1.990 . S
N113 C112 1.314 . S
N113 C116 1.279 . S
C114 C112 1.353 . S
C114 C117 1.348 . S
C114 H162 0.929 . S
C115 C116 1.358 . S
C115 C117 1.356 . S
C115 H163 0.930 . S
C116 N113 1.279 . S
C116 C115 1.358 . S
C116 H119 0.930 . S
C117 C114 1.348 . S
C117 C115 1.356 . S
H118 C112 0.930 . S
H119 C116 0.930 . S
C120 C122 1.348 . S
C120 C123 1.356 . S
C120 O150 1.325 . S
N121 C124 1.314 . S
N121 C125 1.279 . S
C122 C120 1.348 . S
C122 C124 1.353 . S
C122 H164 0.929 . S
C123 C120 1.356 . S
C123 C125 1.358 . S
C123 H165 0.930 . S
C124 N121 1.314 . S
C124 C122 1.353 . S
C124 H166 0.930 . S
C125 N121 1.279 . S
C125 C123 1.358 . S
C125 H167 0.930 . S
C126 C127 1.348 . S
C126 C128 1.356 . S
C126 O151 1.325 . S
C127 C126 1.348 . S
C127 C129 1.353 . S
C127 H168 0.929 . S
C128 C126 1.356 . S
C128 C130 1.358 . S
C128 H169 0.930 . S
C129 C127 1.353 . S
C129 N131 1.314 . S
C129 H170 0.930 . S
C130 C128 1.358 . S
C130 N131 1.279 . S
C130 H171 0.930 . S
N131 C129 1.314 . S
N131 C130 1.279 . S
C132 C134 1.353 . S
C132 N135 1.314 . S
C132 H138 0.930 . S
C133 N135 1.279 . S
C133 C136 1.358 . S
C133 H139 0.930 . S
C134 C132 1.353 . S
C134 C137 1.348 . S
C134 H172 0.929 . S
N135 Li90 1.990 . S
N135 C132 1.314 . S
N135 C133 1.279 . S
C136 C133 1.358 . S
C136 C137 1.356 . S
C136 H173 0.930 . S
C137 C134 1.348 . S
C137 C136 1.356 . S
H138 C132 0.930 . S
H139 C133 0.930 . S
C140 N141 1.314 . S
C140 C142 1.353 . S
C140 H146 0.930 . S
N141 Li91 1.990 . S
N141 C140 1.314 . S
N141 C144 1.279 . S
C142 C140 1.353 . S
C142 C145 1.348 . S
C142 H174 0.929 . S
C143 C144 1.358 . S
C143 C145 1.356 . S
C143 H175 0.930 . S
C144 N141 1.279 . S
C144 C143 1.358 . S
C144 H147 0.930 . S
C145 C142 1.348 . S
C145 C143 1.356 . S
H146 C140 0.930 . S
H147 C144 0.930 . S
O148 Li88 1.956 . S
O148 Li89 1.970 . S
O148 Li90 1.961 . S
O148 C92 1.325 . S
O149 Li88 1.970 . S
O149 Li89 1.956 . S
O149 Li91 1.961 . S
O149 C98 1.325 . S
O150 Li88 1.961 . S
O150 Li90 1.956 . S
O150 Li91 1.970 . S
O150 C120 1.325 . S
O151 Li89 1.961 . S
O151 Li90 1.970 . S
O151 Li91 1.956 . S
O151 C126 1.325 . S
H152 C94 0.929 . S
H153 C95 0.930 . S
H154 C96 0.930 . S
H155 C97 0.930 . S
H156 C99 0.930 . S
H157 C101 0.929 . S
H158 C102 0.930 . S
H159 C103 0.930 . S
H160 C106 0.930 . S
H161 C109 0.929 . S
H162 C114 0.929 . S
H163 C115 0.930 . S
H164 C122 0.929 . S
H165 C123 0.930 . S
H166 C124 0.930 . S
H167 C125 0.930 . S
H168 C127 0.929 . S
H169 C128 0.930 . S
H170 C129 0.930 . S
H171 C130 0.930 . S
H172 C134 0.929 . S
H173 C136 0.930 . S
H174 C142 0.929 . S
H175 C143 0.930 . S
Li176 N193 1.990 . S
Li176 O236 1.956 . S
Li176 O237 1.970 . S
Li176 O238 1.961 . S
Li177 N201 1.990 . S
Li177 O236 1.970 1_455 S
Li177 O237 1.956 1_455 S
Li177 O239 1.961 . S
Li178 N223 1.990 . S
Li178 O236 1.961 . S
Li178 O238 1.956 . S
Li178 O239 1.970 1_655 S
Li179 N229 1.990 . S
Li179 O237 1.961 . S
Li179 O238 1.970 . S
Li179 O239 1.956 1_655 S
C180 C182 1.348 1_655 S
C180 C183 1.356 . S
C180 O236 1.325 . S
N181 C184 1.314 . S
N181 C185 1.279 1_455 S
C182 C180 1.348 1_455 S
C182 C184 1.353 . S
C182 H240 0.929 . S
C183 C180 1.356 . S
C183 C185 1.358 . S
C183 H241 0.930 . S
C184 N181 1.314 . S
C184 C182 1.353 . S
C184 H242 0.930 . S
C185 N181 1.279 1_655 S
C185 C183 1.358 . S
C185 H243 0.930 . S
C186 C189 1.348 . S
C186 C190 1.356 . S
C186 O237 1.325 . S
C187 N188 1.279 . S
C187 C190 1.358 . S
C187 H244 0.930 . S
N188 C187 1.279 . S
N188 C191 1.314 . S
C189 C186 1.348 . S
C189 C191 1.353 . S
C189 H245 0.929 . S
C190 C186 1.356 . S
C190 C187 1.358 . S
C190 H246 0.954 . S
C191 N188 1.314 . S
C191 C189 1.353 . S
C191 H247 0.930 . S
C192 N193 1.314 . S
C192 C197 1.353 . S
C192 H198 0.930 . S
N193 Li176 1.990 . S
N193 C192 1.314 . S
N193 C195 1.279 . S
C194 C195 1.358 . S
C194 C196 1.356 . S
C194 H248 0.930 . S
C195 N193 1.279 . S
C195 C194 1.358 . S
C195 H199 0.930 . S
C196 C194 1.356 . S
C196 C197 1.348 . S
C197 C192 1.353 . S
C197 C196 1.348 . S
C197 H249 0.929 . S
H198 C192 0.930 . S
H199 C195 0.930 . S
C200 N201 1.314 . S
C200 C202 1.353 . S
C200 H206 0.930 . S
N201 Li177 1.990 . S
N201 C200 1.314 . S
N201 C204 1.279 . S
C202 C200 1.353 . S
C202 C205 1.348 . S
C202 H250 0.929 . S
C203 C204 1.358 . S
C203 C205 1.356 . S
C203 H251 0.930 . S
C204 N201 1.279 . S
C204 C203 1.358 . S
C204 H207 0.930 . S
C205 C202 1.348 . S
C205 C203 1.356 . S
H206 C200 0.930 . S
H207 C204 0.930 . S
C208 C210 1.348 . S
C208 C211 1.356 . S
C208 O238 1.325 . S
N209 C212 1.314 . S
N209 C213 1.279 . S
C210 C208 1.348 . S
C210 C212 1.353 . S
C210 H252 0.929 . S
C211 C208 1.356 . S
C211 C213 1.358 . S
C211 H253 0.930 . S
C212 N209 1.314 . S
C212 C210 1.353 . S
C212 H254 0.930 . S
C213 N209 1.279 . S
C213 C211 1.358 . S
C213 H255 0.930 . S
C214 C215 1.348 . S
C214 C216 1.356 . S
C214 O239 1.325 . S
C215 C214 1.348 . S
C215 C217 1.353 . S
C215 H256 0.929 . S
C216 C214 1.356 . S
C216 C218 1.358 . S
C216 H257 0.930 . S
C217 C215 1.353 . S
C217 N219 1.314 . S
C217 H258 0.930 . S
C218 C216 1.358 . S
C218 N219 1.279 . S
C218 H259 0.930 . S
N219 C217 1.314 . S
N219 C218 1.279 . S
C220 C222 1.353 . S
C220 N223 1.314 1_455 S
C220 H226 0.930 . S
C221 N223 1.279 . S
C221 C224 1.358 . S
C221 H227 0.930 . S
C222 C220 1.353 . S
C222 C225 1.348 1_455 S
C222 H260 0.929 . S
N223 Li178 1.990 . S
N223 C220 1.314 1_655 S
N223 C221 1.279 . S
C224 C221 1.358 . S
C224 C225 1.356 . S
C224 H261 0.930 . S
C225 C222 1.348 1_655 S
C225 C224 1.356 . S
H226 C220 0.930 . S
H227 C221 0.930 . S
C228 N229 1.314 . S
C228 C230 1.353 . S
C228 H234 0.930 . S
N229 Li179 1.990 . S
N229 C228 1.314 . S
N229 C232 1.279 . S
C230 C228 1.353 . S
C230 C233 1.348 . S
C230 H262 0.929 . S
C231 C232 1.358 . S
C231 C233 1.356 . S
C231 H263 0.930 . S
C232 N229 1.279 . S
C232 C231 1.358 . S
C232 H235 0.930 . S
C233 C230 1.348 . S
C233 C231 1.356 . S
H234 C228 0.930 . S
H235 C232 0.930 . S
O236 Li176 1.956 . S
O236 Li177 1.970 1_655 S
O236 Li178 1.961 . S
O236 C180 1.325 . S
O237 Li176 1.970 . S
O237 Li177 1.956 1_655 S
O237 Li179 1.961 . S
O237 C186 1.325 . S
O238 Li176 1.961 . S
O238 Li178 1.956 . S
O238 Li179 1.970 . S
O238 C208 1.325 . S
O239 Li177 1.961 . S
O239 Li178 1.970 1_455 S
O239 Li179 1.956 1_455 S
O239 C214 1.325 . S
H240 C182 0.929 . S
H241 C183 0.930 . S
H242 C184 0.930 . S
H243 C185 0.930 . S
H244 C187 0.930 . S
H245 C189 0.929 . S
H246 C190 0.954 . S
H247 C191 0.930 . S
H248 C194 0.930 . S
H249 C197 0.929 . S
H250 C202 0.929 . S
H251 C203 0.930 . S
H252 C210 0.929 . S
H253 C211 0.930 . S
H254 C212 0.930 . S
H255 C213 0.930 . S
H256 C215 0.929 . S
H257 C216 0.930 . S
H258 C217 0.930 . S
H259 C218 0.930 . S
H260 C222 0.929 . S
H261 C224 0.930 . S
H262 C230 0.929 . S
H263 C231 0.930 . S
Li264 N281 1.990 . S
Li264 O324 1.956 . S
Li264 O325 1.970 . S
Li264 O326 1.961 . S
Li265 N289 1.990 . S
Li265 O324 1.970 1_545 S
Li265 O325 1.956 1_545 S
Li265 O327 1.961 . S
Li266 N311 1.990 . S
Li266 O324 1.961 . S
Li266 O326 1.956 . S
Li266 O327 1.970 1_565 S
Li267 N317 1.990 . S
Li267 O325 1.961 . S
Li267 O326 1.970 . S
Li267 O327 1.956 1_565 S
C268 C270 1.348 1_565 S
C268 C271 1.356 . S
C268 O324 1.325 . S
N269 C272 1.314 . S
N269 C273 1.279 1_545 S
C270 C268 1.348 1_545 S
C270 C272 1.353 . S
C270 H328 0.929 . S
C271 C268 1.356 . S
C271 C273 1.358 . S
C271 H329 0.930 . S
C272 N269 1.314 . S
C272 C270 1.353 . S
C272 H330 0.930 . S
C273 N269 1.279 1_565 S
C273 C271 1.358 . S
C273 H331 0.930 . S
C274 C277 1.348 . S
C274 C278 1.356 . S
C274 O325 1.325 . S
C275 N276 1.279 . S
C275 C278 1.358 . S
C275 H332 0.930 . S
N276 C275 1.279 . S
N276 C279 1.314 . S
C277 C274 1.348 . S
C277 C279 1.353 . S
C277 H333 0.929 . S
C278 C274 1.356 . S
C278 C275 1.358 . S
C278 H334 0.953 . S
C279 N276 1.314 . S
C279 C277 1.353 . S
C279 H335 0.930 . S
C280 N281 1.314 . S
C280 C285 1.353 . S
C280 H286 0.930 . S
N281 Li264 1.990 . S
N281 C280 1.314 . S
N281 C283 1.279 . S
C282 C283 1.358 . S
C282 C284 1.356 . S
C282 H336 0.930 . S
C283 N281 1.279 . S
C283 C282 1.358 . S
C283 H287 0.930 . S
C284 C282 1.356 . S
C284 C285 1.348 . S
C285 C280 1.353 . S
C285 C284 1.348 . S
C285 H337 0.929 . S
H286 C280 0.930 . S
H287 C283 0.930 . S
C288 N289 1.314 . S
C288 C290 1.353 . S
C288 H294 0.930 . S
N289 Li265 1.990 . S
N289 C288 1.314 . S
N289 C292 1.279 . S
C290 C288 1.353 . S
C290 C293 1.348 . S
C290 H338 0.929 . S
C291 C292 1.358 . S
C291 C293 1.356 . S
C291 H339 0.930 . S
C292 N289 1.279 . S
C292 C291 1.358 . S
C292 H295 0.930 . S
C293 C290 1.348 . S
C293 C291 1.356 . S
H294 C288 0.930 . S
H295 C292 0.930 . S
C296 C298 1.348 . S
C296 C299 1.356 . S
C296 O326 1.325 . S
N297 C300 1.314 . S
N297 C301 1.279 . S
C298 C296 1.348 . S
C298 C300 1.353 . S
C298 H340 0.929 . S
C299 C296 1.356 . S
C299 C301 1.358 . S
C299 H341 0.930 . S
C300 N297 1.314 . S
C300 C298 1.353 . S
C300 H342 0.930 . S
C301 N297 1.279 . S
C301 C299 1.358 . S
C301 H343 0.930 . S
C302 C303 1.348 . S
C302 C304 1.356 . S
C302 O327 1.325 . S
C303 C302 1.348 . S
C303 C305 1.353 . S
C303 H344 0.929 . S
C304 C302 1.356 . S
C304 C306 1.358 . S
C304 H345 0.930 . S
C305 C303 1.353 . S
C305 N307 1.314 . S
C305 H346 0.930 . S
C306 C304 1.358 . S
C306 N307 1.279 . S
C306 H347 0.930 . S
N307 C305 1.314 . S
N307 C306 1.279 . S
C308 C310 1.353 . S
C308 N311 1.314 1_545 S
C308 H314 0.930 . S
C309 N311 1.279 . S
C309 C312 1.358 . S
C309 H315 0.930 . S
C310 C308 1.353 . S
C310 C313 1.348 1_545 S
C310 H348 0.929 . S
N311 Li266 1.990 . S
N311 C308 1.314 1_565 S
N311 C309 1.279 . S
C312 C309 1.358 . S
C312 C313 1.356 . S
C312 H349 0.930 . S
C313 C310 1.348 1_565 S
C313 C312 1.356 . S
H314 C308 0.930 . S
H315 C309 0.930 . S
C316 N317 1.314 . S
C316 C318 1.353 . S
C316 H322 0.930 . S
N317 Li267 1.990 . S
N317 C316 1.314 . S
N317 C320 1.279 . S
C318 C316 1.353 . S
C318 C321 1.348 . S
C318 H350 0.929 . S
C319 C320 1.358 . S
C319 C321 1.356 . S
C319 H351 0.930 . S
C320 N317 1.279 . S
C320 C319 1.358 . S
C320 H323 0.930 . S
C321 C318 1.348 . S
C321 C319 1.356 . S
H322 C316 0.930 . S
H323 C320 0.930 . S
O324 Li264 1.956 . S
O324 Li265 1.970 1_565 S
O324 Li266 1.961 . S
O324 C268 1.325 . S
O325 Li264 1.970 . S
O325 Li265 1.956 1_565 S
O325 Li267 1.961 . S
O325 C274 1.325 . S
O326 Li264 1.961 . S
O326 Li266 1.956 . S
O326 Li267 1.970 . S
O326 C296 1.325 . S
O327 Li265 1.961 . S
O327 Li266 1.970 1_545 S
O327 Li267 1.956 1_545 S
O327 C302 1.325 . S
H328 C270 0.929 . S
H329 C271 0.930 . S
H330 C272 0.930 . S
H331 C273 0.930 . S
H332 C275 0.930 . S
H333 C277 0.929 . S
H334 C278 0.953 . S
H335 C279 0.930 . S
H336 C282 0.930 . S
H337 C285 0.929 . S
H338 C290 0.929 . S
H339 C291 0.930 . S
H340 C298 0.929 . S
H341 C299 0.930 . S
H342 C300 0.930 . S
H343 C301 0.930 . S
H344 C303 0.929 . S
H345 C304 0.930 . S
H346 C305 0.930 . S
H347 C306 0.930 . S
H348 C310 0.929 . S
H349 C312 0.930 . S
H350 C318 0.929 . S
H351 C319 0.930 . S
Li352 N369 1.990 . S
Li352 O412 1.956 . S
Li352 O413 1.970 . S
Li352 O414 1.961 . S
Li353 N377 1.990 . S
Li353 O412 1.970 . S
Li353 O413 1.956 . S
Li353 O415 1.961 . S
Li354 N399 1.990 . S
Li354 O412 1.961 . S
Li354 O414 1.956 . S
Li354 O415 1.970 . S
Li355 N405 1.990 . S
Li355 O413 1.961 . S
Li355 O414 1.970 . S
Li355 O415 1.956 . S
C356 C358 1.348 . S
C356 C359 1.356 . S
C356 O412 1.325 . S
N357 C360 1.314 . S
N357 C361 1.279 . S
C358 C356 1.348 . S
C358 C360 1.353 . S
C358 H416 0.929 . S
C359 C356 1.356 . S
C359 C361 1.358 . S
C359 H417 0.930 . S
C360 N357 1.314 . S
C360 C358 1.353 . S
C360 H418 0.930 . S
C361 N357 1.279 . S
C361 C359 1.358 . S
C361 H419 0.930 . S
C362 C365 1.348 . S
C362 C366 1.356 . S
C362 O413 1.325 . S
C363 N364 1.279 . S
C363 C366 1.358 . S
C363 H420 0.930 . S
N364 C363 1.279 . S
N364 C367 1.314 . S
C365 C362 1.348 . S
C365 C367 1.353 . S
C365 H421 0.929 . S
C366 C362 1.356 . S
C366 C363 1.358 . S
C366 H422 0.930 . S
C367 N364 1.314 . S
C367 C365 1.353 . S
C367 H423 0.930 . S
C368 N369 1.314 . S
C368 C373 1.353 . S
C368 H374 0.930 . S
N369 Li352 1.990 . S
N369 C368 1.314 . S
N369 C371 1.279 . S
C370 C371 1.358 . S
C370 C372 1.356 . S
C370 H424 0.930 . S
C371 N369 1.279 . S
C371 C370 1.358 . S
C371 H375 0.930 . S
C372 C370 1.356 . S
C372 C373 1.348 . S
C373 C368 1.353 . S
C373 C372 1.348 . S
C373 H425 0.929 . S
H374 C368 0.930 . S
H375 C371 0.930 . S
C376 N377 1.314 . S
C376 C378 1.353 . S
C376 H382 0.930 . S
N377 Li353 1.990 . S
N377 C376 1.314 . S
N377 C380 1.279 . S
C378 C376 1.353 . S
C378 C381 1.348 . S
C378 H426 0.929 . S
C379 C380 1.358 . S
C379 C381 1.356 . S
C379 H427 0.930 . S
C380 N377 1.279 . S
C380 C379 1.358 . S
C380 H383 0.930 . S
C381 C378 1.348 . S
C381 C379 1.356 . S
H382 C376 0.930 . S
H383 C380 0.930 . S
C384 C386 1.348 . S
C384 C387 1.356 . S
C384 O414 1.325 . S
N385 C388 1.314 . S
N385 C389 1.279 . S
C386 C384 1.348 . S
C386 C388 1.353 . S
C386 H428 0.929 . S
C387 C384 1.356 . S
C387 C389 1.358 . S
C387 H429 0.930 . S
C388 N385 1.314 . S
C388 C386 1.353 . S
C388 H430 0.930 . S
C389 N385 1.279 . S
C389 C387 1.358 . S
C389 H431 0.930 . S
C390 C391 1.348 . S
C390 C392 1.356 . S
C390 O415 1.325 . S
C391 C390 1.348 . S
C391 C393 1.353 . S
C391 H432 0.929 . S
C392 C390 1.356 . S
C392 C394 1.358 . S
C392 H433 0.930 . S
C393 C391 1.353 . S
C393 N395 1.314 . S
C393 H434 0.930 . S
C394 C392 1.358 . S
C394 N395 1.279 . S
C394 H435 0.930 . S
N395 C393 1.314 . S
N395 C394 1.279 . S
C396 C398 1.353 . S
C396 N399 1.314 . S
C396 H402 0.930 . S
C397 N399 1.279 . S
C397 C400 1.358 . S
C397 H403 0.930 . S
C398 C396 1.353 . S
C398 C401 1.348 . S
C398 H436 0.929 . S
N399 Li354 1.990 . S
N399 C396 1.314 . S
N399 C397 1.279 . S
C400 C397 1.358 . S
C400 C401 1.356 . S
C400 H437 0.930 . S
C401 C398 1.348 . S
C401 C400 1.356 . S
H402 C396 0.930 . S
H403 C397 0.930 . S
C404 N405 1.314 . S
C404 C406 1.353 . S
C404 H410 0.930 . S
N405 Li355 1.990 . S
N405 C404 1.314 . S
N405 C408 1.279 . S
C406 C404 1.353 . S
C406 C409 1.348 . S
C406 H438 0.929 . S
C407 C408 1.358 . S
C407 C409 1.356 . S
C407 H439 0.930 . S
C408 N405 1.279 . S
C408 C407 1.358 . S
C408 H411 0.930 . S
C409 C406 1.348 . S
C409 C407 1.356 . S
H410 C404 0.930 . S
H411 C408 0.930 . S
O412 Li352 1.956 . S
O412 Li353 1.970 . S
O412 Li354 1.961 . S
O412 C356 1.325 . S
O413 Li352 1.970 . S
O413 Li353 1.956 . S
O413 Li355 1.961 . S
O413 C362 1.325 . S
O414 Li352 1.961 . S
O414 Li354 1.956 . S
O414 Li355 1.970 . S
O414 C384 1.325 . S
O415 Li353 1.961 . S
O415 Li354 1.970 . S
O415 Li355 1.956 . S
O415 C390 1.325 . S
H416 C358 0.929 . S
H417 C359 0.930 . S
H418 C360 0.930 . S
H419 C361 0.930 . S
H420 C363 0.930 . S
H421 C365 0.929 . S
H422 C366 0.930 . S
H423 C367 0.930 . S
H424 C370 0.930 . S
H425 C373 0.929 . S
H426 C378 0.929 . S
H427 C379 0.930 . S
H428 C386 0.929 . S
H429 C387 0.930 . S
H430 C388 0.930 . S
H431 C389 0.930 . S
H432 C391 0.929 . S
H433 C392 0.930 . S
H434 C393 0.930 . S
H435 C394 0.930 . S
H436 C398 0.929 . S
H437 C400 0.930 . S
H438 C406 0.929 . S
H439 C407 0.930 . S
Li440 N457 1.990 . S
Li440 O500 1.956 . S
Li440 O501 1.970 . S
Li440 O502 1.961 . S
Li441 N465 1.990 . S
Li441 O500 1.970 . S
Li441 O501 1.956 . S
Li441 O503 1.961 . S
Li442 N487 1.990 . S
Li442 O500 1.961 . S
Li442 O502 1.956 . S
Li442 O503 1.970 . S
Li443 N493 1.990 . S
Li443 O501 1.961 . S
Li443 O502 1.970 . S
Li443 O503 1.956 . S
C444 C446 1.348 . S
C444 C447 1.356 . S
C444 O500 1.325 . S
N445 C448 1.314 . S
N445 C449 1.279 . S
C446 C444 1.348 . S
C446 C448 1.353 . S
C446 H504 0.929 . S
C447 C444 1.356 . S
C447 C449 1.358 . S
C447 H505 0.930 . S
C448 N445 1.314 . S
C448 C446 1.353 . S
C448 H506 0.930 . S
C449 N445 1.279 . S
C449 C447 1.358 . S
C449 H507 0.930 . S
C450 C453 1.348 . S
C450 C454 1.356 . S
C450 O501 1.325 . S
C451 N452 1.279 . S
C451 C454 1.358 . S
C451 H508 0.930 . S
N452 C451 1.279 . S
N452 C455 1.314 . S
C453 C450 1.348 . S
C453 C455 1.353 . S
C453 H509 0.929 . S
C454 C450 1.356 . S
C454 C451 1.358 . S
C454 H510 0.930 . S
C455 N452 1.314 . S
C455 C453 1.353 . S
C455 H511 0.930 . S
C456 N457 1.314 . S
C456 C461 1.353 . S
C456 H462 0.930 . S
N457 Li440 1.990 . S
N457 C456 1.314 . S
N457 C459 1.279 . S
C458 C459 1.358 . S
C458 C460 1.356 . S
C458 H512 0.930 . S
C459 N457 1.279 . S
C459 C458 1.358 . S
C459 H463 0.930 . S
C460 C458 1.356 . S
C460 C461 1.348 . S
C461 C456 1.353 . S
C461 C460 1.348 . S
C461 H513 0.929 . S
H462 C456 0.930 . S
H463 C459 0.930 . S
C464 N465 1.314 . S
C464 C466 1.353 . S
C464 H470 0.930 . S
N465 Li441 1.990 . S
N465 C464 1.314 . S
N465 C468 1.279 . S
C466 C464 1.353 . S
C466 C469 1.348 . S
C466 H514 0.929 . S
C467 C468 1.358 . S
C467 C469 1.356 . S
C467 H515 0.930 . S
C468 N465 1.279 . S
C468 C467 1.358 . S
C468 H471 0.930 . S
C469 C466 1.348 . S
C469 C467 1.356 . S
H470 C464 0.930 . S
H471 C468 0.930 . S
C472 C474 1.348 . S
C472 C475 1.356 . S
C472 O502 1.325 . S
N473 C476 1.314 . S
N473 C477 1.279 . S
C474 C472 1.348 . S
C474 C476 1.353 . S
C474 H516 0.929 . S
C475 C472 1.356 . S
C475 C477 1.358 . S
C475 H517 0.930 . S
C476 N473 1.314 . S
C476 C474 1.353 . S
C476 H518 0.930 . S
C477 N473 1.279 . S
C477 C475 1.358 . S
C477 H519 0.930 . S
C478 C479 1.348 . S
C478 C480 1.356 . S
C478 O503 1.325 . S
C479 C478 1.348 . S
C479 C481 1.353 . S
C479 H520 0.929 . S
C480 C478 1.356 . S
C480 C482 1.358 . S
C480 H521 0.930 . S
C481 C479 1.353 . S
C481 N483 1.314 . S
C481 H522 0.930 . S
C482 C480 1.358 . S
C482 N483 1.279 . S
C482 H523 0.930 . S
N483 C481 1.314 . S
N483 C482 1.279 . S
C484 C486 1.353 . S
C484 N487 1.314 . S
C484 H490 0.930 . S
C485 N487 1.279 . S
C485 C488 1.358 . S
C485 H491 0.930 . S
C486 C484 1.353 . S
C486 C489 1.348 . S
C486 H524 0.929 . S
N487 Li442 1.990 . S
N487 C484 1.314 . S
N487 C485 1.279 . S
C488 C485 1.358 . S
C488 C489 1.356 . S
C488 H525 0.930 . S
C489 C486 1.348 . S
C489 C488 1.356 . S
H490 C484 0.930 . S
H491 C485 0.930 . S
C492 N493 1.314 . S
C492 C494 1.353 . S
C492 H498 0.930 . S
N493 Li443 1.990 . S
N493 C492 1.314 . S
N493 C496 1.279 . S
C494 C492 1.353 . S
C494 C497 1.348 . S
C494 H526 0.929 . S
C495 C496 1.358 . S
C495 C497 1.356 . S
C495 H527 0.930 . S
C496 N493 1.279 . S
C496 C495 1.358 . S
C496 H499 0.930 . S
C497 C494 1.348 . S
C497 C495 1.356 . S
H498 C492 0.930 . S
H499 C496 0.930 . S
O500 Li440 1.956 . S
O500 Li441 1.970 . S
O500 Li442 1.961 . S
O500 C444 1.325 . S
O501 Li440 1.970 . S
O501 Li441 1.956 . S
O501 Li443 1.961 . S
O501 C450 1.325 . S
O502 Li440 1.961 . S
O502 Li442 1.956 . S
O502 Li443 1.970 . S
O502 C472 1.325 . S
O503 Li441 1.961 . S
O503 Li442 1.970 . S
O503 Li443 1.956 . S
O503 C478 1.325 . S
H504 C446 0.929 . S
H505 C447 0.930 . S
H506 C448 0.930 . S
H507 C449 0.930 . S
H508 C451 0.930 . S
H509 C453 0.929 . S
H510 C454 0.930 . S
H511 C455 0.930 . S
H512 C458 0.930 . S
H513 C461 0.929 . S
H514 C466 0.929 . S
H515 C467 0.930 . S
H516 C474 0.929 . S
H517 C475 0.930 . S
H518 C476 0.930 . S
H519 C477 0.930 . S
H520 C479 0.929 . S
H521 C480 0.930 . S
H522 C481 0.930 . S
H523 C482 0.930 . S
H524 C486 0.929 . S
H525 C488 0.930 . S
H526 C494 0.929 . S
H527 C495 0.930 . S
Li528 N545 1.990 . S
Li528 O588 1.956 1_655 S
Li528 O589 1.970 . S
Li528 O590 1.961 . S
Li529 N553 1.990 . S
Li529 O588 1.970 1_655 S
Li529 O589 1.956 . S
Li529 O591 1.961 . S
Li530 N575 1.990 . S
Li530 O588 1.961 . S
Li530 O590 1.956 1_455 S
Li530 O591 1.970 1_455 S
Li531 N581 1.990 . S
Li531 O589 1.961 . S
Li531 O590 1.970 . S
Li531 O591 1.956 . S
C532 C534 1.348 . S
C532 C535 1.356 . S
C532 O588 1.325 . S
N533 C536 1.314 . S
N533 C537 1.279 . S
C534 C532 1.348 . S
C534 C536 1.353 . S
C534 H592 0.929 . S
C535 C532 1.356 . S
C535 C537 1.358 . S
C535 H593 0.930 . S
C536 N533 1.314 . S
C536 C534 1.353 . S
C536 H594 0.930 . S
C537 N533 1.279 . S
C537 C535 1.358 . S
C537 H595 0.930 . S
C538 C541 1.348 . S
C538 C542 1.356 . S
C538 O589 1.325 . S
C539 N540 1.279 . S
C539 C542 1.358 . S
C539 H596 0.930 . S
N540 C539 1.279 . S
N540 C543 1.314 . S
C541 C538 1.348 . S
C541 C543 1.353 . S
C541 H597 0.929 . S
C542 C538 1.356 . S
C542 C539 1.358 . S
C542 H598 0.930 . S
C543 N540 1.314 . S
C543 C541 1.353 . S
C543 H599 0.930 . S
C544 N545 1.314 . S
C544 C549 1.353 . S
C544 H550 0.930 . S
N545 Li528 1.990 . S
N545 C544 1.314 . S
N545 C547 1.279 . S
C546 C547 1.358 . S
C546 C548 1.356 . S
C546 H600 0.930 . S
C547 N545 1.279 . S
C547 C546 1.358 . S
C547 H551 0.930 . S
C548 C546 1.356 . S
C548 C549 1.348 . S
C549 C544 1.353 . S
C549 C548 1.348 . S
C549 H601 0.929 . S
H550 C544 0.930 . S
H551 C547 0.930 . S
C552 N553 1.314 1_455 S
C552 C554 1.353 . S
C552 H558 0.930 . S
N553 Li529 1.990 . S
N553 C552 1.314 1_655 S
N553 C556 1.279 . S
C554 C552 1.353 . S
C554 C557 1.348 1_455 S
C554 H602 0.929 . S
C555 C556 1.358 . S
C555 C557 1.356 . S
C555 H603 0.930 . S
C556 N553 1.279 . S
C556 C555 1.358 . S
C556 H559 0.930 . S
C557 C554 1.348 1_655 S
C557 C555 1.356 . S
H558 C552 0.930 . S
H559 C556 0.930 . S
C560 C562 1.348 . S
C560 C563 1.356 . S
C560 O590 1.325 . S
N561 C564 1.314 . S
N561 C565 1.279 . S
C562 C560 1.348 . S
C562 C564 1.353 . S
C562 H604 0.929 . S
C563 C560 1.356 . S
C563 C565 1.358 . S
C563 H605 0.953 . S
C564 N561 1.314 . S
C564 C562 1.353 . S
C564 H606 0.930 . S
C565 N561 1.279 . S
C565 C563 1.358 . S
C565 H607 0.930 . S
C566 C567 1.348 1_655 S
C566 C568 1.356 . S
C566 O591 1.325 . S
C567 C566 1.348 1_455 S
C567 C569 1.353 . S
C567 H608 0.929 . S
C568 C566 1.356 . S
C568 C570 1.358 . S
C568 H609 0.930 . S
C569 C567 1.353 . S
C569 N571 1.314 . S
C569 H610 0.930 . S
C570 C568 1.358 . S
C570 N571 1.279 1_655 S
C570 H611 0.930 . S
N571 C569 1.314 . S
N571 C570 1.279 1_455 S
C572 C574 1.353 . S
C572 N575 1.314 . S
C572 H578 0.930 . S
C573 N575 1.279 . S
C573 C576 1.358 . S
C573 H579 0.930 . S
C574 C572 1.353 . S
C574 C577 1.348 . S
C574 H612 0.929 . S
N575 Li530 1.990 . S
N575 C572 1.314 . S
N575 C573 1.279 . S
C576 C573 1.358 . S
C576 C577 1.356 . S
C576 H613 0.930 . S
C577 C574 1.348 . S
C577 C576 1.356 . S
H578 C572 0.930 . S
H579 C573 0.930 . S
C580 N581 1.314 . S
C580 C582 1.353 . S
C580 H586 0.930 . S
N581 Li531 1.990 . S
N581 C580 1.314 . S
N581 C584 1.279 . S
C582 C580 1.353 . S
C582 C585 1.348 . S
C582 H614 0.929 . S
C583 C584 1.358 . S
C583 C585 1.356 . S
C583 H615 0.930 . S
C584 N581 1.279 . S
C584 C583 1.358 . S
C584 H587 0.930 . S
C585 C582 1.348 . S
C585 C583 1.356 . S
H586 C580 0.930 . S
H587 C584 0.930 . S
O588 Li528 1.956 1_455 S
O588 Li529 1.970 1_455 S
O588 Li530 1.961 . S
O588 C532 1.325 . S
O589 Li528 1.970 . S
O589 Li529 1.956 . S
O589 Li531 1.961 . S
O589 C538 1.325 . S
O590 Li528 1.961 . S
O590 Li530 1.956 1_655 S
O590 Li531 1.970 . S
O590 C560 1.325 . S
O591 Li529 1.961 . S
O591 Li530 1.970 1_655 S
O591 Li531 1.956 . S
O591 C566 1.325 . S
H592 C534 0.929 . S
H593 C535 0.930 . S
H594 C536 0.930 . S
H595 C537 0.930 . S
H596 C539 0.930 . S
H597 C541 0.929 . S
H598 C542 0.930 . S
H599 C543 0.930 . S
H600 C546 0.930 . S
H601 C549 0.929 . S
H602 C554 0.929 . S
H603 C555 0.930 . S
H604 C562 0.929 . S
H605 C563 0.953 . S
H606 C564 0.930 . S
H607 C565 0.930 . S
H608 C567 0.929 . S
H609 C568 0.930 . S
H610 C569 0.930 . S
H611 C570 0.930 . S
H612 C574 0.929 . S
H613 C576 0.930 . S
H614 C582 0.929 . S
H615 C583 0.930 . S
Li616 N633 1.990 . S
Li616 O676 1.956 1_565 S
Li616 O677 1.970 . S
Li616 O678 1.961 . S
Li617 N641 1.990 . S
Li617 O676 1.970 1_565 S
Li617 O677 1.956 . S
Li617 O679 1.961 . S
Li618 N663 1.990 . S
Li618 O676 1.961 . S
Li618 O678 1.956 1_545 S
Li618 O679 1.970 1_545 S
Li619 N669 1.990 . S
Li619 O677 1.961 . S
Li619 O678 1.970 . S
Li619 O679 1.956 . S
C620 C622 1.348 . S
C620 C623 1.356 . S
C620 O676 1.325 . S
N621 C624 1.314 . S
N621 C625 1.279 . S
C622 C620 1.348 . S
C622 C624 1.353 . S
C622 H680 0.929 . S
C623 C620 1.356 . S
C623 C625 1.358 . S
C623 H681 0.930 . S
C624 N621 1.314 . S
C624 C622 1.353 . S
C624 H682 0.930 . S
C625 N621 1.279 . S
C625 C623 1.358 . S
C625 H683 0.930 . S
C626 C629 1.348 . S
C626 C630 1.356 . S
C626 O677 1.325 . S
C627 N628 1.279 . S
C627 C630 1.358 . S
C627 H684 0.930 . S
N628 C627 1.279 . S
N628 C631 1.314 . S
C629 C626 1.348 . S
C629 C631 1.353 . S
C629 H685 0.929 . S
C630 C626 1.356 . S
C630 C627 1.358 . S
C630 H686 0.930 . S
C631 N628 1.314 . S
C631 C629 1.353 . S
C631 H687 0.930 . S
C632 N633 1.314 . S
C632 C637 1.353 . S
C632 H638 0.930 . S
N633 Li616 1.990 . S
N633 C632 1.314 . S
N633 C635 1.279 . S
C634 C635 1.358 . S
C634 C636 1.356 . S
C634 H688 0.930 . S
C635 N633 1.279 . S
C635 C634 1.358 . S
C635 H639 0.930 . S
C636 C634 1.356 . S
C636 C637 1.348 . S
C637 C632 1.353 . S
C637 C636 1.348 . S
C637 H689 0.929 . S
H638 C632 0.930 . S
H639 C635 0.930 . S
C640 N641 1.314 1_545 S
C640 C642 1.353 . S
C640 H646 0.930 . S
N641 Li617 1.990 . S
N641 C640 1.314 1_565 S
N641 C644 1.279 . S
C642 C640 1.353 . S
C642 C645 1.348 1_545 S
C642 H690 0.929 . S
C643 C644 1.358 . S
C643 C645 1.356 . S
C643 H691 0.930 . S
C644 N641 1.279 . S
C644 C643 1.358 . S
C644 H647 0.930 . S
C645 C642 1.348 1_565 S
C645 C643 1.356 . S
H646 C640 0.930 . S
H647 C644 0.930 . S
C648 C650 1.348 . S
C648 C651 1.356 . S
C648 O678 1.325 . S
N649 C652 1.314 . S
N649 C653 1.279 . S
C650 C648 1.348 . S
C650 C652 1.353 . S
C650 H692 0.929 . S
C651 C648 1.356 . S
C651 C653 1.358 . S
C651 H693 0.954 . S
C652 N649 1.314 . S
C652 C650 1.353 . S
C652 H694 0.930 . S
C653 N649 1.279 . S
C653 C651 1.358 . S
C653 H695 0.930 . S
C654 C655 1.348 1_565 S
C654 C656 1.356 . S
C654 O679 1.325 . S
C655 C654 1.348 1_545 S
C655 C657 1.353 . S
C655 H696 0.929 . S
C656 C654 1.356 . S
C656 C658 1.358 . S
C656 H697 0.930 . S
C657 C655 1.353 . S
C657 N659 1.314 . S
C657 H698 0.930 . S
C658 C656 1.358 . S
C658 N659 1.279 1_565 S
C658 H699 0.930 . S
N659 C657 1.314 . S
N659 C658 1.279 1_545 S
C660 C662 1.353 . S
C660 N663 1.314 . S
C660 H666 0.930 . S
C661 N663 1.279 . S
C661 C664 1.358 . S
C661 H667 0.930 . S
C662 C660 1.353 . S
C662 C665 1.348 . S
C662 H700 0.929 . S
N663 Li618 1.990 . S
N663 C660 1.314 . S
N663 C661 1.279 . S
C664 C661 1.358 . S
C664 C665 1.356 . S
C664 H701 0.930 . S
C665 C662 1.348 . S
C665 C664 1.356 . S
H666 C660 0.930 . S
H667 C661 0.930 . S
C668 N669 1.314 . S
C668 C670 1.353 . S
C668 H674 0.930 . S
N669 Li619 1.990 . S
N669 C668 1.314 . S
N669 C672 1.279 . S
C670 C668 1.353 . S
C670 C673 1.348 . S
C670 H702 0.929 . S
C671 C672 1.358 . S
C671 C673 1.356 . S
C671 H703 0.930 . S
C672 N669 1.279 . S
C672 C671 1.358 . S
C672 H675 0.930 . S
C673 C670 1.348 . S
C673 C671 1.356 . S
H674 C668 0.930 . S
H675 C672 0.930 . S
O676 Li616 1.956 1_545 S
O676 Li617 1.970 1_545 S
O676 Li618 1.961 . S
O676 C620 1.325 . S
O677 Li616 1.970 . S
O677 Li617 1.956 . S
O677 Li619 1.961 . S
O677 C626 1.325 . S
O678 Li616 1.961 . S
O678 Li618 1.956 1_565 S
O678 Li619 1.970 . S
O678 C648 1.325 . S
O679 Li617 1.961 . S
O679 Li618 1.970 1_565 S
O679 Li619 1.956 . S
O679 C654 1.325 . S
H680 C622 0.929 . S
H681 C623 0.930 . S
H682 C624 0.930 . S
H683 C625 0.930 . S
H684 C627 0.930 . S
H685 C629 0.929 . S
H686 C630 0.930 . S
H687 C631 0.930 . S
H688 C634 0.930 . S
H689 C637 0.929 . S
H690 C642 0.929 . S
H691 C643 0.930 . S
H692 C650 0.929 . S
H693 C651 0.954 . S
H694 C652 0.930 . S
H695 C653 0.930 . S
H696 C655 0.929 . S
H697 C656 0.930 . S
H698 C657 0.930 . S
H699 C658 0.930 . S
H700 C662 0.929 . S
H701 C664 0.930 . S
H702 C670 0.929 . S
H703 C671 0.930 . S
Li704 N721 1.990 . S
Li704 O764 1.956 . S
Li704 O765 1.970 . S
Li704 O766 1.961 . S
Li705 N729 1.990 . S
Li705 O764 1.970 . S
Li705 O765 1.956 . S
Li705 O767 1.961 . S
Li706 N751 1.990 . S
Li706 O764 1.961 . S
Li706 O766 1.956 . S
Li706 O767 1.970 . S
Li707 N757 1.990 . S
Li707 O765 1.961 . S
Li707 O766 1.970 . S
Li707 O767 1.956 . S
C708 C710 1.348 . S
C708 C711 1.356 . S
C708 O764 1.325 . S
N709 C712 1.314 . S
N709 C713 1.279 . S
C710 C708 1.348 . S
C710 C712 1.353 . S
C710 H768 0.929 . S
C711 C708 1.356 . S
C711 C713 1.358 . S
C711 H769 0.930 . S
C712 N709 1.314 . S
C712 C710 1.353 . S
C712 H770 0.930 . S
C713 N709 1.279 . S
C713 C711 1.358 . S
C713 H771 0.930 . S
C714 C717 1.348 . S
C714 C718 1.356 . S
C714 O765 1.325 . S
C715 N716 1.279 . S
C715 C718 1.358 . S
C715 H772 0.930 . S
N716 C715 1.279 . S
N716 C719 1.314 . S
C717 C714 1.348 . S
C717 C719 1.353 . S
C717 H773 0.929 . S
C718 C714 1.356 . S
C718 C715 1.358 . S
C718 H774 0.930 . S
C719 N716 1.314 . S
C719 C717 1.353 . S
C719 H775 0.930 . S
C720 N721 1.314 . S
C720 C725 1.353 . S
C720 H726 0.930 . S
N721 Li704 1.990 . S
N721 C720 1.314 . S
N721 C723 1.279 . S
C722 C723 1.358 . S
C722 C724 1.356 . S
C722 H776 0.930 . S
C723 N721 1.279 . S
C723 C722 1.358 . S
C723 H727 0.930 . S
C724 C722 1.356 . S
C724 C725 1.348 . S
C725 C720 1.353 . S
C725 C724 1.348 . S
C725 H777 0.929 . S
H726 C720 0.930 . S
H727 C723 0.930 . S
C728 N729 1.314 . S
C728 C730 1.353 . S
C728 H734 0.930 . S
N729 Li705 1.990 . S
N729 C728 1.314 . S
N729 C732 1.279 . S
C730 C728 1.353 . S
C730 C733 1.348 . S
C730 H778 0.929 . S
C731 C732 1.358 . S
C731 C733 1.356 . S
C731 H779 0.930 . S
C732 N729 1.279 . S
C732 C731 1.358 . S
C732 H735 0.930 . S
C733 C730 1.348 . S
C733 C731 1.356 . S
H734 C728 0.930 . S
H735 C732 0.930 . S
C736 C738 1.348 . S
C736 C739 1.356 . S
C736 O766 1.325 . S
N737 C740 1.314 . S
N737 C741 1.279 . S
C738 C736 1.348 . S
C738 C740 1.353 . S
C738 H780 0.929 . S
C739 C736 1.356 . S
C739 C741 1.358 . S
C739 H781 0.930 . S
C740 N737 1.314 . S
C740 C738 1.353 . S
C740 H782 0.930 . S
C741 N737 1.279 . S
C741 C739 1.358 . S
C741 H783 0.930 . S
C742 C743 1.348 . S
C742 C744 1.356 . S
C742 O767 1.325 . S
C743 C742 1.348 . S
C743 C745 1.353 . S
C743 H784 0.929 . S
C744 C742 1.356 . S
C744 C746 1.358 . S
C744 H785 0.930 . S
C745 C743 1.353 . S
C745 N747 1.314 . S
C745 H786 0.930 . S
C746 C744 1.358 . S
C746 N747 1.279 . S
C746 H787 0.930 . S
N747 C745 1.314 . S
N747 C746 1.279 . S
C748 C750 1.353 . S
C748 N751 1.314 . S
C748 H754 0.930 . S
C749 N751 1.279 . S
C749 C752 1.358 . S
C749 H755 0.930 . S
C750 C748 1.353 . S
C750 C753 1.348 . S
C750 H788 0.929 . S
N751 Li706 1.990 . S
N751 C748 1.314 . S
N751 C749 1.279 . S
C752 C749 1.358 . S
C752 C753 1.356 . S
C752 H789 0.930 . S
C753 C750 1.348 . S
C753 C752 1.356 . S
H754 C748 0.930 . S
H755 C749 0.930 . S
C756 N757 1.314 . S
C756 C758 1.353 . S
C756 H762 0.930 . S
N757 Li707 1.990 . S
N757 C756 1.314 . S
N757 C760 1.279 . S
C758 C756 1.353 . S
C758 C761 1.348 . S
C758 H790 0.929 . S
C759 C760 1.358 . S
C759 C761 1.356 . S
C759 H791 0.930 . S
C760 N757 1.279 . S
C760 C759 1.358 . S
C760 H763 0.930 . S
C761 C758 1.348 . S
C761 C759 1.356 . S
H762 C756 0.930 . S
H763 C760 0.930 . S
O764 Li704 1.956 . S
O764 Li705 1.970 . S
O764 Li706 1.961 . S
O764 C708 1.325 . S
O765 Li704 1.970 . S
O765 Li705 1.956 . S
O765 Li707 1.961 . S
O765 C714 1.325 . S
O766 Li704 1.961 . S
O766 Li706 1.956 . S
O766 Li707 1.970 . S
O766 C736 1.325 . S
O767 Li705 1.961 . S
O767 Li706 1.970 . S
O767 Li707 1.956 . S
O767 C742 1.325 . S
H768 C710 0.929 . S
H769 C711 0.930 . S
H770 C712 0.930 . S
H771 C713 0.930 . S
H772 C715 0.930 . S
H773 C717 0.929 . S
H774 C718 0.930 . S
H775 C719 0.930 . S
H776 C722 0.930 . S
H777 C725 0.929 . S
H778 C730 0.929 . S
H779 C731 0.930 . S
H780 C738 0.929 . S
H781 C739 0.930 . S
H782 C740 0.930 . S
H783 C741 0.930 . S
H784 C743 0.929 . S
H785 C744 0.930 . S
H786 C745 0.930 . S
H787 C746 0.930 . S
H788 C750 0.929 . S
H789 C752 0.930 . S
H790 C758 0.929 . S
H791 C759 0.930 . S
Li792 N809 1.990 . S
Li792 O852 1.956 . S
Li792 O853 1.970 . S
Li792 O854 1.961 . S
Li793 N817 1.990 . S
Li793 O852 1.970 . S
Li793 O853 1.956 . S
Li793 O855 1.961 . S
Li794 N839 1.990 . S
Li794 O852 1.961 . S
Li794 O854 1.956 . S
Li794 O855 1.970 . S
Li795 N845 1.990 . S
Li795 O853 1.961 . S
Li795 O854 1.970 . S
Li795 O855 1.956 . S
C796 C798 1.348 . S
C796 C799 1.356 . S
C796 O852 1.325 . S
N797 C800 1.314 . S
N797 C801 1.279 . S
C798 C796 1.348 . S
C798 C800 1.353 . S
C798 H856 0.929 . S
C799 C796 1.356 . S
C799 C801 1.358 . S
C799 H857 0.930 . S
C800 N797 1.314 . S
C800 C798 1.353 . S
C800 H858 0.930 . S
C801 N797 1.279 . S
C801 C799 1.358 . S
C801 H859 0.930 . S
C802 C805 1.348 . S
C802 C806 1.356 . S
C802 O853 1.325 . S
C803 N804 1.279 . S
C803 C806 1.358 . S
C803 H860 0.930 . S
N804 C803 1.279 . S
N804 C807 1.314 . S
C805 C802 1.348 . S
C805 C807 1.353 . S
C805 H861 0.929 . S
C806 C802 1.356 . S
C806 C803 1.358 . S
C806 H862 0.930 . S
C807 N804 1.314 . S
C807 C805 1.353 . S
C807 H863 0.930 . S
C808 N809 1.314 . S
C808 C813 1.353 . S
C808 H814 0.930 . S
N809 Li792 1.990 . S
N809 C808 1.314 . S
N809 C811 1.279 . S
C810 C811 1.358 . S
C810 C812 1.356 . S
C810 H864 0.930 . S
C811 N809 1.279 . S
C811 C810 1.358 . S
C811 H815 0.930 . S
C812 C810 1.356 . S
C812 C813 1.348 . S
C813 C808 1.353 . S
C813 C812 1.348 . S
C813 H865 0.929 . S
H814 C808 0.930 . S
H815 C811 0.930 . S
C816 N817 1.314 . S
C816 C818 1.353 . S
C816 H822 0.930 . S
N817 Li793 1.990 . S
N817 C816 1.314 . S
N817 C820 1.279 . S
C818 C816 1.353 . S
C818 C821 1.348 . S
C818 H866 0.929 . S
C819 C820 1.358 . S
C819 C821 1.356 . S
C819 H867 0.930 . S
C820 N817 1.279 . S
C820 C819 1.358 . S
C820 H823 0.930 . S
C821 C818 1.348 . S
C821 C819 1.356 . S
H822 C816 0.930 . S
H823 C820 0.930 . S
C824 C826 1.348 . S
C824 C827 1.356 . S
C824 O854 1.325 . S
N825 C828 1.314 . S
N825 C829 1.279 . S
C826 C824 1.348 . S
C826 C828 1.353 . S
C826 H868 0.929 . S
C827 C824 1.356 . S
C827 C829 1.358 . S
C827 H869 0.930 . S
C828 N825 1.314 . S
C828 C826 1.353 . S
C828 H870 0.930 . S
C829 N825 1.279 . S
C829 C827 1.358 . S
C829 H871 0.930 . S
C830 C831 1.348 . S
C830 C832 1.356 . S
C830 O855 1.325 . S
C831 C830 1.348 . S
C831 C833 1.353 . S
C831 H872 0.929 . S
C832 C830 1.356 . S
C832 C834 1.358 . S
C832 H873 0.930 . S
C833 C831 1.353 . S
C833 N835 1.314 . S
C833 H874 0.930 . S
C834 C832 1.358 . S
C834 N835 1.279 . S
C834 H875 0.930 . S
N835 C833 1.314 . S
N835 C834 1.279 . S
C836 C838 1.353 . S
C836 N839 1.314 . S
C836 H842 0.930 . S
C837 N839 1.279 . S
C837 C840 1.358 . S
C837 H843 0.930 . S
C838 C836 1.353 . S
C838 C841 1.348 . S
C838 H876 0.929 . S
N839 Li794 1.990 . S
N839 C836 1.314 . S
N839 C837 1.279 . S
C840 C837 1.358 . S
C840 C841 1.356 . S
C840 H877 0.930 . S
C841 C838 1.348 . S
C841 C840 1.356 . S
H842 C836 0.930 . S
H843 C837 0.930 . S
C844 N845 1.314 . S
C844 C846 1.353 . S
C844 H850 0.930 . S
N845 Li795 1.990 . S
N845 C844 1.314 . S
N845 C848 1.279 . S
C846 C844 1.353 . S
C846 C849 1.348 . S
C846 H878 0.929 . S
C847 C848 1.358 . S
C847 C849 1.356 . S
C847 H879 0.930 . S
C848 N845 1.279 . S
C848 C847 1.358 . S
C848 H851 0.930 . S
C849 C846 1.348 . S
C849 C847 1.356 . S
H850 C844 0.930 . S
H851 C848 0.930 . S
O852 Li792 1.956 . S
O852 Li793 1.970 . S
O852 Li794 1.961 . S
O852 C796 1.325 . S
O853 Li792 1.970 . S
O853 Li793 1.956 . S
O853 Li795 1.961 . S
O853 C802 1.325 . S
O854 Li792 1.961 . S
O854 Li794 1.956 . S
O854 Li795 1.970 . S
O854 C824 1.325 . S
O855 Li793 1.961 . S
O855 Li794 1.970 . S
O855 Li795 1.956 . S
O855 C830 1.325 . S
H856 C798 0.929 . S
H857 C799 0.930 . S
H858 C800 0.930 . S
H859 C801 0.930 . S
H860 C803 0.930 . S
H861 C805 0.929 . S
H862 C806 0.930 . S
H863 C807 0.930 . S
H864 C810 0.930 . S
H865 C813 0.929 . S
H866 C818 0.929 . S
H867 C819 0.930 . S
H868 C826 0.929 . S
H869 C827 0.930 . S
H870 C828 0.930 . S
H871 C829 0.930 . S
H872 C831 0.929 . S
H873 C832 0.930 . S
H874 C833 0.930 . S
H875 C834 0.930 . S
H876 C838 0.929 . S
H877 C840 0.930 . S
H878 C846 0.929 . S
H879 C847 0.930 . S
Li880 N897 1.990 . S
Li880 O940 1.956 . S
Li880 O941 1.970 1_455 S
Li880 O942 1.961 . S
Li881 N905 1.990 . S
Li881 O940 1.970 1_655 S
Li881 O941 1.956 . S
Li881 O943 1.961 1_655 S
Li882 N927 1.990 . S
Li882 O940 1.961 . S
Li882 O942 1.956 . S
Li882 O943 1.970 . S
Li883 N933 1.990 . S
Li883 O941 1.961 1_455 S
Li883 O942 1.970 . S
Li883 O943 1.956 . S
C884 C886 1.348 1_455 S
C884 C887 1.356 . S
C884 O940 1.325 . S
N885 C888 1.314 . S
N885 C889 1.279 1_655 S
C886 C884 1.348 1_655 S
C886 C888 1.353 . S
C886 H944 0.929 . S
C887 C884 1.356 . S
C887 C889 1.358 . S
C887 H945 0.930 . S
C888 N885 1.314 . S
C888 C886 1.353 . S
C888 H946 0.930 . S
C889 N885 1.279 1_455 S
C889 C887 1.358 . S
C889 H947 0.930 . S
C890 C893 1.348 . S
C890 C894 1.356 . S
C890 O941 1.325 . S
C891 N892 1.279 . S
C891 C894 1.358 . S
C891 H948 0.930 . S
N892 C891 1.279 . S
N892 C895 1.314 . S
C893 C890 1.348 . S
C893 C895 1.353 . S
C893 H949 0.929 . S
C894 C890 1.356 . S
C894 C891 1.358 . S
C894 H950 0.930 . S
C895 N892 1.314 . S
C895 C893 1.353 . S
C895 H951 0.930 . S
C896 N897 1.314 . S
C896 C901 1.353 . S
C896 H902 0.930 . S
N897 Li880 1.990 . S
N897 C896 1.314 . S
N897 C899 1.287 . S
C898 C899 1.356 1_655 S
C898 C900 1.356 1_655 S
C898 H952 0.930 . S
C899 N897 1.287 . S
C899 C898 1.356 1_455 S
C899 H903 0.924 1_455 S
C900 C898 1.356 1_455 S
C900 C901 1.348 . S
C901 C896 1.353 . S
C901 C900 1.348 . S
C901 H953 0.929 . S
H902 C896 0.930 . S
H903 C899 0.924 1_655 S
C904 N905 1.314 . S
C904 C906 1.353 . S
C904 H910 0.930 . S
N905 Li881 1.990 . S
N905 C904 1.314 . S
N905 C908 1.279 . S
C906 C904 1.353 . S
C906 C909 1.348 . S
C906 H954 0.929 . S
C907 C908 1.358 . S
C907 C909 1.356 . S
C907 H955 0.930 . S
C908 N905 1.279 . S
C908 C907 1.358 . S
C908 H911 0.930 . S
C909 C906 1.348 . S
C909 C907 1.356 . S
H910 C904 0.930 . S
H911 C908 0.930 . S
C912 C914 1.348 . S
C912 C915 1.356 . S
C912 O942 1.325 . S
N913 C916 1.314 . S
N913 C917 1.279 . S
C914 C912 1.348 . S
C914 C916 1.353 . S
C914 H956 0.929 . S
C915 C912 1.356 . S
C915 C917 1.358 . S
C915 H957 0.930 . S
C916 N913 1.314 . S
C916 C914 1.353 . S
C916 H958 0.930 . S
C917 N913 1.279 . S
C917 C915 1.358 . S
C917 H959 0.930 . S
C918 C919 1.348 . S
C918 C920 1.356 . S
C918 O943 1.325 . S
C919 C918 1.348 . S
C919 C921 1.353 . S
C919 H960 0.929 . S
C920 C918 1.356 . S
C920 C922 1.358 . S
C920 H961 0.930 1_455 S
C921 C919 1.353 . S
C921 N923 1.314 . S
C921 H962 0.930 . S
C922 C920 1.358 . S
C922 N923 1.279 . S
C922 H963 0.930 1_455 S
N923 C921 1.314 . S
N923 C922 1.279 . S
C924 C926 1.353 . S
C924 N927 1.314 . S
C924 H930 0.930 . S
C925 N927 1.279 . S
C925 C928 1.358 . S
C925 H931 0.930 . S
C926 C924 1.353 . S
C926 C929 1.348 . S
C926 H964 0.929 . S
N927 Li882 1.990 . S
N927 C924 1.314 . S
N927 C925 1.279 . S
C928 C925 1.358 . S
C928 C929 1.356 . S
C928 H965 0.930 . S
C929 C926 1.348 . S
C929 C928 1.356 . S
H930 C924 0.930 . S
H931 C925 0.930 . S
C932 N933 1.314 . S
C932 C934 1.353 . S
C932 H938 0.930 . S
N933 Li883 1.990 . S
N933 C932 1.314 . S
N933 C936 1.279 . S
C934 C932 1.353 . S
C934 C937 1.348 . S
C934 H966 0.929 . S
C935 C936 1.358 . S
C935 C937 1.356 . S
C935 H967 0.930 . S
C936 N933 1.279 . S
C936 C935 1.358 . S
C936 H939 0.930 . S
C937 C934 1.348 . S
C937 C935 1.356 . S
H938 C932 0.930 . S
H939 C936 0.930 . S
O940 Li880 1.956 . S
O940 Li881 1.970 1_455 S
O940 Li882 1.961 . S
O940 C884 1.325 . S
O941 Li880 1.970 1_655 S
O941 Li881 1.956 . S
O941 Li883 1.961 1_655 S
O941 C890 1.325 . S
O942 Li880 1.961 . S
O942 Li882 1.956 . S
O942 Li883 1.970 . S
O942 C912 1.325 . S
O943 Li881 1.961 1_455 S
O943 Li882 1.970 . S
O943 Li883 1.956 . S
O943 C918 1.325 . S
H944 C886 0.929 . S
H945 C887 0.930 . S
H946 C888 0.930 . S
H947 C889 0.930 . S
H948 C891 0.930 . S
H949 C893 0.929 . S
H950 C894 0.930 . S
H951 C895 0.930 . S
H952 C898 0.930 . S
H953 C901 0.929 . S
H954 C906 0.929 . S
H955 C907 0.930 . S
H956 C914 0.929 . S
H957 C915 0.930 . S
H958 C916 0.930 . S
H959 C917 0.930 . S
H960 C919 0.929 . S
H961 C920 0.930 1_655 S
H962 C921 0.930 . S
H963 C922 0.930 1_655 S
H964 C926 0.929 . S
H965 C928 0.930 . S
H966 C934 0.929 . S
H967 C935 0.930 . S
Li968 N985 1.990 . S
Li968 O1028 1.956 . S
Li968 O1029 1.970 1_545 S
Li968 O1030 1.961 . S
Li969 N993 1.990 . S
Li969 O1028 1.970 1_565 S
Li969 O1029 1.956 . S
Li969 O1031 1.961 1_565 S
Li970 N1015 1.990 . S
Li970 O1028 1.961 . S
Li970 O1030 1.956 . S
Li970 O1031 1.970 . S
Li971 N1021 1.990 . S
Li971 O1029 1.961 1_545 S
Li971 O1030 1.970 . S
Li971 O1031 1.956 . S
C972 C974 1.348 1_545 S
C972 C975 1.356 . S
C972 O1028 1.325 . S
N973 C976 1.314 . S
N973 C977 1.279 1_565 S
C974 C972 1.348 1_565 S
C974 C976 1.353 . S
C974 H1032 0.929 . S
C975 C972 1.356 . S
C975 C977 1.358 . S
C975 H1033 0.930 . S
C976 N973 1.314 . S
C976 C974 1.353 . S
C976 H1034 0.930 . S
C977 N973 1.279 1_545 S
C977 C975 1.358 . S
C977 H1035 0.930 . S
C978 C981 1.348 . S
C978 C982 1.356 . S
C978 O1029 1.325 . S
C979 N980 1.279 . S
C979 C982 1.358 . S
C979 H1036 0.930 . S
N980 C979 1.279 . S
N980 C983 1.314 . S
C981 C978 1.348 . S
C981 C983 1.353 . S
C981 H1037 0.929 . S
C982 C978 1.356 . S
C982 C979 1.358 . S
C982 H1038 0.930 . S
C983 N980 1.314 . S
C983 C981 1.353 . S
C983 H1039 0.930 . S
C984 N985 1.314 . S
C984 C989 1.353 . S
C984 H990 0.930 . S
N985 Li968 1.990 . S
N985 C984 1.314 . S
N985 C987 1.287 . S
C986 C987 1.356 1_565 S
C986 C988 1.356 1_565 S
C986 H1040 0.930 . S
C987 N985 1.287 . S
C987 C986 1.356 1_545 S
C987 H991 0.924 1_545 S
C988 C986 1.356 1_545 S
C988 C989 1.348 . S
C989 C984 1.353 . S
C989 C988 1.348 . S
C989 H1041 0.929 . S
H990 C984 0.930 . S
H991 C987 0.924 1_565 S
C992 N993 1.314 . S
C992 C994 1.353 . S
C992 H998 0.930 . S
N993 Li969 1.990 . S
N993 C992 1.314 . S
N993 C996 1.279 . S
C994 C992 1.353 . S
C994 C997 1.348 . S
C994 H1042 0.929 . S
C995 C996 1.358 . S
C995 C997 1.356 . S
C995 H1043 0.930 . S
C996 N993 1.279 . S
C996 C995 1.358 . S
C996 H999 0.930 . S
C997 C994 1.348 . S
C997 C995 1.356 . S
H998 C992 0.930 . S
H999 C996 0.930 . S
C1000 C1002 1.348 . S
C1000 C1003 1.356 . S
C1000 O1030 1.325 . S
N1001 C1004 1.314 . S
N1001 C1005 1.279 . S
C1002 C1000 1.348 . S
C1002 C1004 1.353 . S
C1002 H1044 0.929 . S
C1003 C1000 1.356 . S
C1003 C1005 1.358 . S
C1003 H1045 0.930 . S
C1004 N1001 1.314 . S
C1004 C1002 1.353 . S
C1004 H1046 0.930 . S
C1005 N1001 1.279 . S
C1005 C1003 1.358 . S
C1005 H1047 0.930 . S
C1006 C1007 1.348 . S
C1006 C1008 1.356 . S
C1006 O1031 1.325 . S
C1007 C1006 1.348 . S
C1007 C1009 1.353 . S
C1007 H1048 0.929 . S
C1008 C1006 1.356 . S
C1008 C1010 1.358 . S
C1008 H1049 0.930 1_545 S
C1009 C1007 1.353 . S
C1009 N1011 1.314 . S
C1009 H1050 0.930 . S
C1010 C1008 1.358 . S
C1010 N1011 1.279 . S
C1010 H1051 0.930 1_545 S
N1011 C1009 1.314 . S
N1011 C1010 1.279 . S
C1012 C1014 1.353 . S
C1012 N1015 1.314 . S
C1012 H1018 0.930 . S
C1013 N1015 1.279 . S
C1013 C1016 1.358 . S
C1013 H1019 0.930 . S
C1014 C1012 1.353 . S
C1014 C1017 1.348 . S
C1014 H1052 0.929 . S
N1015 Li970 1.990 . S
N1015 C1012 1.314 . S
N1015 C1013 1.279 . S
C1016 C1013 1.358 . S
C1016 C1017 1.356 . S
C1016 H1053 0.930 . S
C1017 C1014 1.348 . S
C1017 C1016 1.356 . S
H1018 C1012 0.930 . S
H1019 C1013 0.930 . S
C1020 N1021 1.314 . S
C1020 C1022 1.353 . S
C1020 H1026 0.930 . S
N1021 Li971 1.990 . S
N1021 C1020 1.314 . S
N1021 C1024 1.279 . S
C1022 C1020 1.353 . S
C1022 C1025 1.348 . S
C1022 H1054 0.929 . S
C1023 C1024 1.358 . S
C1023 C1025 1.356 . S
C1023 H1055 0.930 . S
C1024 N1021 1.279 . S
C1024 C1023 1.358 . S
C1024 H1027 0.930 . S
C1025 C1022 1.348 . S
C1025 C1023 1.356 . S
H1026 C1020 0.930 . S
H1027 C1024 0.930 . S
O1028 Li968 1.956 . S
O1028 Li969 1.970 1_545 S
O1028 Li970 1.961 . S
O1028 C972 1.325 . S
O1029 Li968 1.970 1_565 S
O1029 Li969 1.956 . S
O1029 Li971 1.961 1_565 S
O1029 C978 1.325 . S
O1030 Li968 1.961 . S
O1030 Li970 1.956 . S
O1030 Li971 1.970 . S
O1030 C1000 1.325 . S
O1031 Li969 1.961 1_545 S
O1031 Li970 1.970 . S
O1031 Li971 1.956 . S
O1031 C1006 1.325 . S
H1032 C974 0.929 . S
H1033 C975 0.930 . S
H1034 C976 0.930 . S
H1035 C977 0.930 . S
H1036 C979 0.930 . S
H1037 C981 0.929 . S
H1038 C982 0.930 . S
H1039 C983 0.930 . S
H1040 C986 0.930 . S
H1041 C989 0.929 . S
H1042 C994 0.929 . S
H1043 C995 0.930 . S
H1044 C1002 0.929 . S
H1045 C1003 0.930 . S
H1046 C1004 0.930 . S
H1047 C1005 0.930 . S
H1048 C1007 0.929 . S
H1049 C1008 0.930 1_565 S
H1050 C1009 0.930 . S
H1051 C1010 0.930 1_565 S
H1052 C1014 0.929 . S
H1053 C1016 0.930 . S
H1054 C1022 0.929 . S
H1055 C1023 0.930 . S
Li1056 N1073 1.990 . S
Li1056 O1116 1.956 . S
Li1056 O1117 1.970 . S
Li1056 O1118 1.961 . S
Li1057 N1081 1.990 . S
Li1057 O1116 1.970 . S
Li1057 O1117 1.956 . S
Li1057 O1119 1.961 . S
Li1058 N1103 1.990 . S
Li1058 O1116 1.961 . S
Li1058 O1118 1.956 . S
Li1058 O1119 1.970 . S
Li1059 N1109 1.990 . S
Li1059 O1117 1.961 . S
Li1059 O1118 1.970 . S
Li1059 O1119 1.956 . S
C1060 C1062 1.348 . S
C1060 C1063 1.356 . S
C1060 O1116 1.325 . S
N1061 C1064 1.314 . S
N1061 C1065 1.279 . S
C1062 C1060 1.348 . S
C1062 C1064 1.353 . S
C1062 H1120 0.929 . S
C1063 C1060 1.356 . S
C1063 C1065 1.358 . S
C1063 H1121 0.930 . S
C1064 N1061 1.314 . S
C1064 C1062 1.353 . S
C1064 H1122 0.930 . S
C1065 N1061 1.279 . S
C1065 C1063 1.358 . S
C1065 H1123 0.930 . S
C1066 C1069 1.348 . S
C1066 C1070 1.356 . S
C1066 O1117 1.325 . S
C1067 N1068 1.279 . S
C1067 C1070 1.358 . S
C1067 H1124 0.930 . S
N1068 C1067 1.279 . S
N1068 C1071 1.314 . S
C1069 C1066 1.348 . S
C1069 C1071 1.353 . S
C1069 H1125 0.929 . S
C1070 C1066 1.356 . S
C1070 C1067 1.358 . S
C1070 H1126 0.930 . S
C1071 N1068 1.314 . S
C1071 C1069 1.353 . S
C1071 H1127 0.930 . S
C1072 N1073 1.314 . S
C1072 C1077 1.353 . S
C1072 H1078 0.930 . S
N1073 Li1056 1.990 . S
N1073 C1072 1.314 . S
N1073 C1075 1.279 . S
C1074 C1075 1.358 . S
C1074 C1076 1.356 . S
C1074 H1128 0.930 . S
C1075 N1073 1.279 . S
C1075 C1074 1.358 . S
C1075 H1079 0.930 . S
C1076 C1074 1.356 . S
C1076 C1077 1.348 . S
C1077 C1072 1.353 . S
C1077 C1076 1.348 . S
C1077 H1129 0.929 . S
H1078 C1072 0.930 . S
H1079 C1075 0.930 . S
C1080 N1081 1.314 . S
C1080 C1082 1.353 . S
C1080 H1086 0.930 . S
N1081 Li1057 1.990 . S
N1081 C1080 1.314 . S
N1081 C1084 1.279 . S
C1082 C1080 1.353 . S
C1082 C1085 1.348 . S
C1082 H1130 0.929 . S
C1083 C1084 1.358 . S
C1083 C1085 1.356 . S
C1083 H1131 0.930 . S
C1084 N1081 1.279 . S
C1084 C1083 1.358 . S
C1084 H1087 0.930 . S
C1085 C1082 1.348 . S
C1085 C1083 1.356 . S
H1086 C1080 0.930 . S
H1087 C1084 0.930 . S
C1088 C1090 1.348 . S
C1088 C1091 1.356 . S
C1088 O1118 1.325 . S
N1089 C1092 1.314 . S
N1089 C1093 1.279 . S
C1090 C1088 1.348 . S
C1090 C1092 1.353 . S
C1090 H1132 0.929 . S
C1091 C1088 1.356 . S
C1091 C1093 1.358 . S
C1091 H1133 0.930 . S
C1092 N1089 1.314 . S
C1092 C1090 1.353 . S
C1092 H1134 0.930 . S
C1093 N1089 1.279 . S
C1093 C1091 1.358 . S
C1093 H1135 0.930 . S
C1094 C1095 1.348 . S
C1094 C1096 1.356 . S
C1094 O1119 1.325 . S
C1095 C1094 1.348 . S
C1095 C1097 1.353 . S
C1095 H1136 0.929 . S
C1096 C1094 1.356 . S
C1096 C1098 1.358 . S
C1096 H1137 0.930 . S
C1097 C1095 1.353 . S
C1097 N1099 1.314 . S
C1097 H1138 0.930 . S
C1098 C1096 1.358 . S
C1098 N1099 1.279 . S
C1098 H1139 0.930 . S
N1099 C1097 1.314 . S
N1099 C1098 1.279 . S
C1100 C1102 1.353 . S
C1100 N1103 1.314 . S
C1100 H1106 0.930 . S
C1101 N1103 1.279 . S
C1101 C1104 1.358 . S
C1101 H1107 0.930 . S
C1102 C1100 1.353 . S
C1102 C1105 1.348 . S
C1102 H1140 0.929 . S
N1103 Li1058 1.990 . S
N1103 C1100 1.314 . S
N1103 C1101 1.279 . S
C1104 C1101 1.358 . S
C1104 C1105 1.356 . S
C1104 H1141 0.930 . S
C1105 C1102 1.348 . S
C1105 C1104 1.356 . S
H1106 C1100 0.930 . S
H1107 C1101 0.930 . S
C1108 N1109 1.314 . S
C1108 C1110 1.353 . S
C1108 H1114 0.930 . S
N1109 Li1059 1.990 . S
N1109 C1108 1.314 . S
N1109 C1112 1.279 . S
C1110 C1108 1.353 . S
C1110 C1113 1.348 . S
C1110 H1142 0.929 . S
C1111 C1112 1.358 . S
C1111 C1113 1.356 . S
C1111 H1143 0.930 . S
C1112 N1109 1.279 . S
C1112 C1111 1.358 . S
C1112 H1115 0.930 . S
C1113 C1110 1.348 . S
C1113 C1111 1.356 . S
H1114 C1108 0.930 . S
H1115 C1112 0.930 . S
O1116 Li1056 1.956 . S
O1116 Li1057 1.970 . S
O1116 Li1058 1.961 . S
O1116 C1060 1.325 . S
O1117 Li1056 1.970 . S
O1117 Li1057 1.956 . S
O1117 Li1059 1.961 . S
O1117 C1066 1.325 . S
O1118 Li1056 1.961 . S
O1118 Li1058 1.956 . S
O1118 Li1059 1.970 . S
O1118 C1088 1.325 . S
O1119 Li1057 1.961 . S
O1119 Li1058 1.970 . S
O1119 Li1059 1.956 . S
O1119 C1094 1.325 . S
H1120 C1062 0.929 . S
H1121 C1063 0.930 . S
H1122 C1064 0.930 . S
H1123 C1065 0.930 . S
H1124 C1067 0.930 . S
H1125 C1069 0.929 . S
H1126 C1070 0.930 . S
H1127 C1071 0.930 . S
H1128 C1074 0.930 . S
H1129 C1077 0.929 . S
H1130 C1082 0.929 . S
H1131 C1083 0.930 . S
H1132 C1090 0.929 . S
H1133 C1091 0.930 . S
H1134 C1092 0.930 . S
H1135 C1093 0.930 . S
H1136 C1095 0.929 . S
H1137 C1096 0.930 . S
H1138 C1097 0.930 . S
H1139 C1098 0.930 . S
H1140 C1102 0.929 . S
H1141 C1104 0.930 . S
H1142 C1110 0.929 . S
H1143 C1111 0.930 . S
Li1144 N1161 1.990 . S
Li1144 O1204 1.956 . S
Li1144 O1205 1.970 . S
Li1144 O1206 1.961 . S
Li1145 N1169 1.990 . S
Li1145 O1204 1.970 . S
Li1145 O1205 1.956 . S
Li1145 O1207 1.961 . S
Li1146 N1191 1.990 . S
Li1146 O1204 1.961 . S
Li1146 O1206 1.956 . S
Li1146 O1207 1.970 . S
Li1147 N1197 1.990 . S
Li1147 O1205 1.961 . S
Li1147 O1206 1.970 . S
Li1147 O1207 1.956 . S
C1148 C1150 1.348 . S
C1148 C1151 1.356 . S
C1148 O1204 1.325 . S
N1149 C1152 1.314 . S
N1149 C1153 1.279 . S
C1150 C1148 1.348 . S
C1150 C1152 1.353 . S
C1150 H1208 0.929 . S
C1151 C1148 1.356 . S
C1151 C1153 1.358 . S
C1151 H1209 0.930 . S
C1152 N1149 1.314 . S
C1152 C1150 1.353 . S
C1152 H1210 0.930 . S
C1153 N1149 1.279 . S
C1153 C1151 1.358 . S
C1153 H1211 0.930 . S
C1154 C1157 1.348 . S
C1154 C1158 1.356 . S
C1154 O1205 1.325 . S
C1155 N1156 1.279 . S
C1155 C1158 1.358 . S
C1155 H1212 0.930 . S
N1156 C1155 1.279 . S
N1156 C1159 1.314 . S
C1157 C1154 1.348 . S
C1157 C1159 1.353 . S
C1157 H1213 0.929 . S
C1158 C1154 1.356 . S
C1158 C1155 1.358 . S
C1158 H1214 0.930 . S
C1159 N1156 1.314 . S
C1159 C1157 1.353 . S
C1159 H1215 0.930 . S
C1160 N1161 1.314 . S
C1160 C1165 1.353 . S
C1160 H1166 0.930 . S
N1161 Li1144 1.990 . S
N1161 C1160 1.314 . S
N1161 C1163 1.279 . S
C1162 C1163 1.358 . S
C1162 C1164 1.356 . S
C1162 H1216 0.930 . S
C1163 N1161 1.279 . S
C1163 C1162 1.358 . S
C1163 H1167 0.930 . S
C1164 C1162 1.356 . S
C1164 C1165 1.348 . S
C1165 C1160 1.353 . S
C1165 C1164 1.348 . S
C1165 H1217 0.929 . S
H1166 C1160 0.930 . S
H1167 C1163 0.930 . S
C1168 N1169 1.314 . S
C1168 C1170 1.353 . S
C1168 H1174 0.930 . S
N1169 Li1145 1.990 . S
N1169 C1168 1.314 . S
N1169 C1172 1.279 . S
C1170 C1168 1.353 . S
C1170 C1173 1.348 . S
C1170 H1218 0.929 . S
C1171 C1172 1.358 . S
C1171 C1173 1.356 . S
C1171 H1219 0.930 . S
C1172 N1169 1.279 . S
C1172 C1171 1.358 . S
C1172 H1175 0.930 . S
C1173 C1170 1.348 . S
C1173 C1171 1.356 . S
H1174 C1168 0.930 . S
H1175 C1172 0.930 . S
C1176 C1178 1.348 . S
C1176 C1179 1.356 . S
C1176 O1206 1.325 . S
N1177 C1180 1.314 . S
N1177 C1181 1.279 . S
C1178 C1176 1.348 . S
C1178 C1180 1.353 . S
C1178 H1220 0.929 . S
C1179 C1176 1.356 . S
C1179 C1181 1.358 . S
C1179 H1221 0.930 . S
C1180 N1177 1.314 . S
C1180 C1178 1.353 . S
C1180 H1222 0.930 . S
C1181 N1177 1.279 . S
C1181 C1179 1.358 . S
C1181 H1223 0.930 . S
C1182 C1183 1.348 . S
C1182 C1184 1.356 . S
C1182 O1207 1.325 . S
C1183 C1182 1.348 . S
C1183 C1185 1.353 . S
C1183 H1224 0.929 . S
C1184 C1182 1.356 . S
C1184 C1186 1.358 . S
C1184 H1225 0.930 . S
C1185 C1183 1.353 . S
C1185 N1187 1.314 . S
C1185 H1226 0.930 . S
C1186 C1184 1.358 . S
C1186 N1187 1.279 . S
C1186 H1227 0.930 . S
N1187 C1185 1.314 . S
N1187 C1186 1.279 . S
C1188 C1190 1.353 . S
C1188 N1191 1.314 . S
C1188 H1194 0.930 . S
C1189 N1191 1.279 . S
C1189 C1192 1.358 . S
C1189 H1195 0.930 . S
C1190 C1188 1.353 . S
C1190 C1193 1.348 . S
C1190 H1228 0.929 . S
N1191 Li1146 1.990 . S
N1191 C1188 1.314 . S
N1191 C1189 1.279 . S
C1192 C1189 1.358 . S
C1192 C1193 1.356 . S
C1192 H1229 0.930 . S
C1193 C1190 1.348 . S
C1193 C1192 1.356 . S
H1194 C1188 0.930 . S
H1195 C1189 0.930 . S
C1196 N1197 1.314 . S
C1196 C1198 1.353 . S
C1196 H1202 0.930 . S
N1197 Li1147 1.990 . S
N1197 C1196 1.314 . S
N1197 C1200 1.279 . S
C1198 C1196 1.353 . S
C1198 C1201 1.348 . S
C1198 H1230 0.929 . S
C1199 C1200 1.358 . S
C1199 C1201 1.356 . S
C1199 H1231 0.930 . S
C1200 N1197 1.279 . S
C1200 C1199 1.358 . S
C1200 H1203 0.930 . S
C1201 C1198 1.348 . S
C1201 C1199 1.356 . S
H1202 C1196 0.930 . S
H1203 C1200 0.930 . S
O1204 Li1144 1.956 . S
O1204 Li1145 1.970 . S
O1204 Li1146 1.961 . S
O1204 C1148 1.325 . S
O1205 Li1144 1.970 . S
O1205 Li1145 1.956 . S
O1205 Li1147 1.961 . S
O1205 C1154 1.325 . S
O1206 Li1144 1.961 . S
O1206 Li1146 1.956 . S
O1206 Li1147 1.970 . S
O1206 C1176 1.325 . S
O1207 Li1145 1.961 . S
O1207 Li1146 1.970 . S
O1207 Li1147 1.956 . S
O1207 C1182 1.325 . S
H1208 C1150 0.929 . S
H1209 C1151 0.930 . S
H1210 C1152 0.930 . S
H1211 C1153 0.930 . S
H1212 C1155 0.930 . S
H1213 C1157 0.929 . S
H1214 C1158 0.930 . S
H1215 C1159 0.930 . S
H1216 C1162 0.930 . S
H1217 C1165 0.929 . S
H1218 C1170 0.929 . S
H1219 C1171 0.930 . S
H1220 C1178 0.929 . S
H1221 C1179 0.930 . S
H1222 C1180 0.930 . S
H1223 C1181 0.930 . S
H1224 C1183 0.929 . S
H1225 C1184 0.930 . S
H1226 C1185 0.930 . S
H1227 C1186 0.930 . S
H1228 C1190 0.929 . S
H1229 C1192 0.930 . S
H1230 C1198 0.929 . S
H1231 C1199 0.930 . S
Li1232 N1249 1.990 . S
Li1232 O1292 1.956 . S
Li1232 O1293 1.970 . S
Li1232 O1294 1.961 . S
Li1233 N1257 1.990 . S
Li1233 O1292 1.970 . S
Li1233 O1293 1.956 . S
Li1233 O1295 1.961 1_455 S
Li1234 N1279 1.990 . S
Li1234 O1292 1.961 . S
Li1234 O1294 1.956 . S
Li1234 O1295 1.970 1_455 S
Li1235 N1285 1.990 . S
Li1235 O1293 1.961 1_655 S
Li1235 O1294 1.970 1_655 S
Li1235 O1295 1.956 . S
C1236 C1238 1.348 . S
C1236 C1239 1.356 . S
C1236 O1292 1.325 . S
N1237 C1240 1.314 . S
N1237 C1241 1.279 . S
C1238 C1236 1.348 . S
C1238 C1240 1.353 . S
C1238 H1296 0.929 . S
C1239 C1236 1.356 . S
C1239 C1241 1.358 . S
C1239 H1297 0.930 . S
C1240 N1237 1.314 . S
C1240 C1238 1.353 . S
C1240 H1298 0.930 . S
C1241 N1237 1.279 . S
C1241 C1239 1.358 . S
C1241 H1299 0.930 . S
C1242 C1245 1.348 . S
C1242 C1246 1.356 . S
C1242 O1293 1.325 . S
C1243 N1244 1.279 . S
C1243 C1246 1.358 . S
C1243 H1300 0.930 1_455 S
N1244 C1243 1.279 . S
N1244 C1247 1.314 . S
C1245 C1242 1.348 . S
C1245 C1247 1.353 . S
C1245 H1301 0.929 . S
C1246 C1242 1.356 . S
C1246 C1243 1.358 . S
C1246 H1302 0.930 1_455 S
C1247 N1244 1.314 . S
C1247 C1245 1.353 . S
C1247 H1303 0.930 . S
C1248 N1249 1.314 . S
C1248 C1253 1.353 . S
C1248 H1254 0.930 . S
N1249 Li1232 1.990 . S
N1249 C1248 1.314 . S
N1249 C1251 1.279 . S
C1250 C1251 1.358 . S
C1250 C1252 1.356 . S
C1250 H1304 0.930 . S
C1251 N1249 1.279 . S
C1251 C1250 1.358 . S
C1251 H1255 0.930 . S
C1252 C1250 1.356 . S
C1252 C1253 1.348 . S
C1253 C1248 1.353 . S
C1253 C1252 1.348 . S
C1253 H1305 0.929 . S
H1254 C1248 0.930 . S
H1255 C1251 0.930 . S
C1256 N1257 1.314 . S
C1256 C1258 1.353 . S
C1256 H1262 0.930 . S
N1257 Li1233 1.990 . S
N1257 C1256 1.314 . S
N1257 C1260 1.279 . S
C1258 C1256 1.353 . S
C1258 C1261 1.348 . S
C1258 H1306 0.929 . S
C1259 C1260 1.358 . S
C1259 C1261 1.356 . S
C1259 H1307 0.930 . S
C1260 N1257 1.279 . S
C1260 C1259 1.358 . S
C1260 H1263 0.930 . S
C1261 C1258 1.348 . S
C1261 C1259 1.356 . S
H1262 C1256 0.930 . S
H1263 C1260 0.930 . S
C1264 C1266 1.348 1_455 S
C1264 C1267 1.356 . S
C1264 O1294 1.325 . S
N1265 C1268 1.314 . S
N1265 C1269 1.279 1_655 S
C1266 C1264 1.348 1_655 S
C1266 C1268 1.353 . S
C1266 H1308 0.929 . S
C1267 C1264 1.356 . S
C1267 C1269 1.358 . S
C1267 H1309 0.930 . S
C1268 N1265 1.314 . S
C1268 C1266 1.353 . S
C1268 H1310 0.930 . S
C1269 N1265 1.279 1_455 S
C1269 C1267 1.358 . S
C1269 H1311 0.930 . S
C1270 C1271 1.348 . S
C1270 C1272 1.356 . S
C1270 O1295 1.325 . S
C1271 C1270 1.348 . S
C1271 C1273 1.353 . S
C1271 H1312 0.929 . S
C1272 C1270 1.356 . S
C1272 C1274 1.358 . S
C1272 H1313 0.930 . S
C1273 C1271 1.353 . S
C1273 N1275 1.314 . S
C1273 H1314 0.930 . S
C1274 C1272 1.358 . S
C1274 N1275 1.279 . S
C1274 H1315 0.930 . S
N1275 C1273 1.314 . S
N1275 C1274 1.279 . S
C1276 C1278 1.353 . S
C1276 N1279 1.314 . S
C1276 H1282 0.930 . S
C1277 N1279 1.287 . S
C1277 C1280 1.356 1_455 S
C1277 H1283 0.924 1_455 S
C1278 C1276 1.353 . S
C1278 C1281 1.348 . S
C1278 H1316 0.929 . S
N1279 Li1234 1.990 . S
N1279 C1276 1.314 . S
N1279 C1277 1.287 . S
C1280 C1277 1.356 1_655 S
C1280 C1281 1.356 1_655 S
C1280 H1317 0.930 . S
C1281 C1278 1.348 . S
C1281 C1280 1.356 1_455 S
H1282 C1276 0.930 . S
H1283 C1277 0.924 1_655 S
C1284 N1285 1.314 . S
C1284 C1286 1.353 . S
C1284 H1290 0.930 . S
N1285 Li1235 1.990 . S
N1285 C1284 1.314 . S
N1285 C1288 1.279 . S
C1286 C1284 1.353 . S
C1286 C1289 1.348 . S
C1286 H1318 0.929 . S
C1287 C1288 1.358 . S
C1287 C1289 1.356 . S
C1287 H1319 0.930 . S
C1288 N1285 1.279 . S
C1288 C1287 1.358 . S
C1288 H1291 0.930 . S
C1289 C1286 1.348 . S
C1289 C1287 1.356 . S
H1290 C1284 0.930 . S
H1291 C1288 0.930 . S
O1292 Li1232 1.956 . S
O1292 Li1233 1.970 . S
O1292 Li1234 1.961 . S
O1292 C1236 1.325 . S
O1293 Li1232 1.970 . S
O1293 Li1233 1.956 . S
O1293 Li1235 1.961 1_455 S
O1293 C1242 1.325 . S
O1294 Li1232 1.961 . S
O1294 Li1234 1.956 . S
O1294 Li1235 1.970 1_455 S
O1294 C1264 1.325 . S
O1295 Li1233 1.961 1_655 S
O1295 Li1234 1.970 1_655 S
O1295 Li1235 1.956 . S
O1295 C1270 1.325 . S
H1296 C1238 0.929 . S
H1297 C1239 0.930 . S
H1298 C1240 0.930 . S
H1299 C1241 0.930 . S
H1300 C1243 0.930 1_655 S
H1301 C1245 0.929 . S
H1302 C1246 0.930 1_655 S
H1303 C1247 0.930 . S
H1304 C1250 0.930 . S
H1305 C1253 0.929 . S
H1306 C1258 0.929 . S
H1307 C1259 0.930 . S
H1308 C1266 0.929 . S
H1309 C1267 0.930 . S
H1310 C1268 0.930 . S
H1311 C1269 0.930 . S
H1312 C1271 0.929 . S
H1313 C1272 0.930 . S
H1314 C1273 0.930 . S
H1315 C1274 0.930 . S
H1316 C1278 0.929 . S
H1317 C1280 0.930 . S
H1318 C1286 0.929 . S
H1319 C1287 0.930 . S
Li1320 N1337 1.990 . S
Li1320 O1380 1.956 . S
Li1320 O1381 1.970 . S
Li1320 O1382 1.961 . S
Li1321 N1345 1.990 . S
Li1321 O1380 1.970 . S
Li1321 O1381 1.956 . S
Li1321 O1383 1.961 1_545 S
Li1322 N1367 1.990 . S
Li1322 O1380 1.961 . S
Li1322 O1382 1.956 . S
Li1322 O1383 1.970 1_545 S
Li1323 N1373 1.990 . S
Li1323 O1381 1.961 1_565 S
Li1323 O1382 1.970 1_565 S
Li1323 O1383 1.956 . S
C1324 C1326 1.348 . S
C1324 C1327 1.356 . S
C1324 O1380 1.325 . S
N1325 C1328 1.314 . S
N1325 C1329 1.279 . S
C1326 C1324 1.348 . S
C1326 C1328 1.353 . S
C1326 H1384 0.929 . S
C1327 C1324 1.356 . S
C1327 C1329 1.358 . S
C1327 H1385 0.930 . S
C1328 N1325 1.314 . S
C1328 C1326 1.353 . S
C1328 H1386 0.930 . S
C1329 N1325 1.279 . S
C1329 C1327 1.358 . S
C1329 H1387 0.930 . S
C1330 C1333 1.348 . S
C1330 C1334 1.356 . S
C1330 O1381 1.325 . S
C1331 N1332 1.279 . S
C1331 C1334 1.358 . S
C1331 H1388 0.930 1_545 S
N1332 C1331 1.279 . S
N1332 C1335 1.314 . S
C1333 C1330 1.348 . S
C1333 C1335 1.353 . S
C1333 H1389 0.929 . S
C1334 C1330 1.356 . S
C1334 C1331 1.358 . S
C1334 H1390 0.930 1_545 S
C1335 N1332 1.314 . S
C1335 C1333 1.353 . S
C1335 H1391 0.930 . S
C1336 N1337 1.314 . S
C1336 C1341 1.353 . S
C1336 H1342 0.930 . S
N1337 Li1320 1.990 . S
N1337 C1336 1.314 . S
N1337 C1339 1.279 . S
C1338 C1339 1.358 . S
C1338 C1340 1.356 . S
C1338 H1392 0.930 . S
C1339 N1337 1.279 . S
C1339 C1338 1.358 . S
C1339 H1343 0.930 . S
C1340 C1338 1.356 . S
C1340 C1341 1.348 . S
C1341 C1336 1.353 . S
C1341 C1340 1.348 . S
C1341 H1393 0.929 . S
H1342 C1336 0.930 . S
H1343 C1339 0.930 . S
C1344 N1345 1.314 . S
C1344 C1346 1.353 . S
C1344 H1350 0.930 . S
N1345 Li1321 1.990 . S
N1345 C1344 1.314 . S
N1345 C1348 1.279 . S
C1346 C1344 1.353 . S
C1346 C1349 1.348 . S
C1346 H1394 0.929 . S
C1347 C1348 1.358 . S
C1347 C1349 1.356 . S
C1347 H1395 0.930 . S
C1348 N1345 1.279 . S
C1348 C1347 1.358 . S
C1348 H1351 0.930 . S
C1349 C1346 1.348 . S
C1349 C1347 1.356 . S
H1350 C1344 0.930 . S
H1351 C1348 0.930 . S
C1352 C1354 1.348 1_545 S
C1352 C1355 1.356 . S
C1352 O1382 1.325 . S
N1353 C1356 1.314 . S
N1353 C1357 1.279 1_565 S
C1354 C1352 1.348 1_565 S
C1354 C1356 1.353 . S
C1354 H1396 0.929 . S
C1355 C1352 1.356 . S
C1355 C1357 1.358 . S
C1355 H1397 0.930 . S
C1356 N1353 1.314 . S
C1356 C1354 1.353 . S
C1356 H1398 0.930 . S
C1357 N1353 1.279 1_545 S
C1357 C1355 1.358 . S
C1357 H1399 0.930 . S
C1358 C1359 1.348 . S
C1358 C1360 1.356 . S
C1358 O1383 1.325 . S
C1359 C1358 1.348 . S
C1359 C1361 1.353 . S
C1359 H1400 0.929 . S
C1360 C1358 1.356 . S
C1360 C1362 1.358 . S
C1360 H1401 0.930 . S
C1361 C1359 1.353 . S
C1361 N1363 1.314 . S
C1361 H1402 0.930 . S
C1362 C1360 1.358 . S
C1362 N1363 1.279 . S
C1362 H1403 0.930 . S
N1363 C1361 1.314 . S
N1363 C1362 1.279 . S
C1364 C1366 1.353 . S
C1364 N1367 1.314 . S
C1364 H1370 0.930 . S
C1365 N1367 1.287 . S
C1365 C1368 1.356 1_545 S
C1365 H1371 0.924 1_545 S
C1366 C1364 1.353 . S
C1366 C1369 1.348 . S
C1366 H1404 0.929 . S
N1367 Li1322 1.990 . S
N1367 C1364 1.314 . S
N1367 C1365 1.287 . S
C1368 C1365 1.356 1_565 S
C1368 C1369 1.356 1_565 S
C1368 H1405 0.930 . S
C1369 C1366 1.348 . S
C1369 C1368 1.356 1_545 S
H1370 C1364 0.930 . S
H1371 C1365 0.924 1_565 S
C1372 N1373 1.314 . S
C1372 C1374 1.353 . S
C1372 H1378 0.930 . S
N1373 Li1323 1.990 . S
N1373 C1372 1.314 . S
N1373 C1376 1.279 . S
C1374 C1372 1.353 . S
C1374 C1377 1.348 . S
C1374 H1406 0.929 . S
C1375 C1376 1.358 . S
C1375 C1377 1.356 . S
C1375 H1407 0.930 . S
C1376 N1373 1.279 . S
C1376 C1375 1.358 . S
C1376 H1379 0.930 . S
C1377 C1374 1.348 . S
C1377 C1375 1.356 . S
H1378 C1372 0.930 . S
H1379 C1376 0.930 . S
O1380 Li1320 1.956 . S
O1380 Li1321 1.970 . S
O1380 Li1322 1.961 . S
O1380 C1324 1.325 . S
O1381 Li1320 1.970 . S
O1381 Li1321 1.956 . S
O1381 Li1323 1.961 1_545 S
O1381 C1330 1.325 . S
O1382 Li1320 1.961 . S
O1382 Li1322 1.956 . S
O1382 Li1323 1.970 1_545 S
O1382 C1352 1.325 . S
O1383 Li1321 1.961 1_565 S
O1383 Li1322 1.970 1_565 S
O1383 Li1323 1.956 . S
O1383 C1358 1.325 . S
H1384 C1326 0.929 . S
H1385 C1327 0.930 . S
H1386 C1328 0.930 . S
H1387 C1329 0.930 . S
H1388 C1331 0.930 1_565 S
H1389 C1333 0.929 . S
H1390 C1334 0.930 1_565 S
H1391 C1335 0.930 . S
H1392 C1338 0.930 . S
H1393 C1341 0.929 . S
H1394 C1346 0.929 . S
H1395 C1347 0.930 . S
H1396 C1354 0.929 . S
H1397 C1355 0.930 . S
H1398 C1356 0.930 . S
H1399 C1357 0.930 . S
H1400 C1359 0.929 . S
H1401 C1360 0.930 . S
H1402 C1361 0.930 . S
H1403 C1362 0.930 . S
H1404 C1366 0.929 . S
H1405 C1368 0.930 . S
H1406 C1374 0.929 . S
H1407 C1375 0.930 . S
H1408 C1416 0.950 . S
H1409 C1421 0.950 . S
H1410 C1418 0.950 . S
H1411 C1420 0.950 . S
H1412 C1422 0.950 . S
H1413 C1424 0.950 . S
H1414 C1426 0.950 . S
H1415 C1427 0.950 . S
C1416 H1408 0.950 . S
C1416 C1417 1.386 . S
C1416 C1418 1.391 . S
C1417 C1416 1.386 . S
C1417 C1421 1.393 . S
C1418 H1410 0.950 . S
C1418 C1416 1.391 . S
C1418 C1419 1.400 . S
C1419 C1418 1.400 . S
C1419 C1420 1.398 . S
C1419 C1425 1.491 . S
C1420 H1411 0.950 . S
C1420 C1419 1.398 . S
C1420 C1421 1.391 . S
C1421 H1409 0.950 . S
C1421 C1417 1.393 . S
C1421 C1420 1.391 . S
C1422 H1412 0.950 . S
C1422 C1423 1.386 . S
C1422 C1424 1.391 . S
C1423 C1422 1.386 . S
C1423 C1427 1.393 . S
C1424 H1413 0.950 . S
C1424 C1422 1.391 . S
C1424 C1425 1.400 . S
C1425 C1419 1.491 . S
C1425 C1424 1.400 . S
C1425 C1426 1.398 . S
C1426 H1414 0.950 . S
C1426 C1425 1.398 . S
C1426 C1427 1.391 . S
C1427 H1415 0.950 . S
C1427 C1423 1.393 . S
C1427 C1426 1.391 . S
H1428 C1436 0.950 . S
H1429 C1441 0.950 . S
H1430 C1438 0.950 . S
H1431 C1440 0.950 . S
H1432 C1442 0.950 . S
H1433 C1444 0.950 . S
H1434 C1446 0.950 . S
H1435 C1447 0.950 . S
C1436 H1428 0.950 . S
C1436 C1437 1.386 . S
C1436 C1438 1.391 . S
C1437 C1436 1.386 . S
C1437 C1441 1.393 . S
C1438 H1430 0.950 . S
C1438 C1436 1.391 . S
C1438 C1439 1.400 . S
C1439 C1438 1.400 . S
C1439 C1440 1.398 . S
C1439 C1445 1.491 . S
C1440 H1431 0.950 . S
C1440 C1439 1.398 . S
C1440 C1441 1.391 . S
C1441 H1429 0.950 . S
C1441 C1437 1.393 . S
C1441 C1440 1.391 . S
C1442 H1432 0.950 . S
C1442 C1443 1.386 . S
C1442 C1444 1.391 . S
C1443 C1442 1.386 . S
C1443 C1447 1.393 . S
C1444 H1433 0.950 . S
C1444 C1442 1.391 . S
C1444 C1445 1.400 . S
C1445 C1439 1.491 . S
C1445 C1444 1.400 . S
C1445 C1446 1.398 . S
C1446 H1434 0.950 . S
C1446 C1445 1.398 . S
C1446 C1447 1.391 . S
C1447 H1435 0.950 . S
C1447 C1443 1.393 . S
C1447 C1446 1.391 . S
H1448 C1456 0.950 . S
H1449 C1461 0.950 . S
H1450 C1458 0.950 . S
H1451 C1460 0.950 . S
H1452 C1462 0.950 . S
H1453 C1464 0.950 . S
H1454 C1466 0.950 . S
H1455 C1467 0.950 . S
C1456 H1448 0.950 . S
C1456 C1457 1.386 . S
C1456 C1458 1.391 . S
C1457 C1456 1.386 . S
C1457 C1461 1.393 . S
C1458 H1450 0.950 . S
C1458 C1456 1.391 . S
C1458 C1459 1.400 . S
C1459 C1458 1.400 . S
C1459 C1460 1.398 . S
C1459 C1465 1.491 . S
C1460 H1451 0.950 . S
C1460 C1459 1.398 . S
C1460 C1461 1.391 . S
C1461 H1449 0.950 . S
C1461 C1457 1.393 . S
C1461 C1460 1.391 . S
C1462 H1452 0.950 . S
C1462 C1463 1.386 . S
C1462 C1464 1.391 . S
C1463 C1462 1.386 . S
C1463 C1467 1.393 . S
C1464 H1453 0.950 . S
C1464 C1462 1.391 . S
C1464 C1465 1.400 . S
C1465 C1459 1.491 . S
C1465 C1464 1.400 . S
C1465 C1466 1.398 . S
C1466 H1454 0.950 . S
C1466 C1465 1.398 . S
C1466 C1467 1.391 . S
C1467 H1455 0.950 . S
C1467 C1463 1.393 . S
C1467 C1466 1.391 . S
H1468 C1476 0.950 . S
H1469 C1481 0.950 . S
H1470 C1478 0.950 . S
H1471 C1480 0.950 . S
H1472 C1482 0.950 . S
H1473 C1484 0.950 . S
H1474 C1486 0.950 . S
H1475 C1487 0.950 . S
C1476 H1468 0.950 . S
C1476 C1477 1.386 . S
C1476 C1478 1.391 . S
C1477 C1476 1.386 . S
C1477 C1481 1.393 . S
C1478 H1470 0.950 . S
C1478 C1476 1.391 . S
C1478 C1479 1.400 . S
C1479 C1478 1.400 . S
C1479 C1480 1.398 . S
C1479 C1485 1.491 . S
C1480 H1471 0.950 . S
C1480 C1479 1.398 . S
C1480 C1481 1.391 . S
C1481 H1469 0.950 . S
C1481 C1477 1.393 . S
C1481 C1480 1.391 . S
C1482 H1472 0.950 . S
C1482 C1483 1.386 . S
C1482 C1484 1.391 . S
C1483 C1482 1.386 . S
C1483 C1487 1.393 . S
C1484 H1473 0.950 . S
C1484 C1482 1.391 . S
C1484 C1485 1.400 . S
C1485 C1479 1.491 . S
C1485 C1484 1.400 . S
C1485 C1486 1.398 . S
C1486 H1474 0.950 . S
C1486 C1485 1.398 . S
C1486 C1487 1.391 . S
C1487 H1475 0.950 . S
C1487 C1483 1.393 . S
C1487 C1486 1.391 . S
H1488 C1496 0.950 . S
H1489 C1501 0.950 . S
H1490 C1498 0.950 . S
H1491 C1500 0.950 . S
H1492 C1502 0.950 . S
H1493 C1504 0.950 . S
H1494 C1506 0.950 . S
H1495 C1507 0.950 . S
C1496 H1488 0.950 . S
C1496 C1497 1.386 . S
C1496 C1498 1.391 . S
C1497 C1496 1.386 . S
C1497 C1501 1.393 . S
C1498 H1490 0.950 . S
C1498 C1496 1.391 . S
C1498 C1499 1.400 . S
C1499 C1498 1.400 . S
C1499 C1500 1.398 . S
C1499 C1505 1.491 . S
C1500 H1491 0.950 . S
C1500 C1499 1.398 . S
C1500 C1501 1.391 . S
C1501 H1489 0.950 . S
C1501 C1497 1.393 . S
C1501 C1500 1.391 . S
C1502 H1492 0.950 . S
C1502 C1503 1.386 . S
C1502 C1504 1.391 . S
C1503 C1502 1.386 . S
C1503 C1507 1.393 . S
C1504 H1493 0.950 . S
C1504 C1502 1.391 . S
C1504 C1505 1.400 . S
C1505 C1499 1.491 . S
C1505 C1504 1.400 . S
C1505 C1506 1.398 . S
C1506 H1494 0.950 . S
C1506 C1505 1.398 . S
C1506 C1507 1.391 . S
C1507 H1495 0.950 . S
C1507 C1503 1.393 . S
C1507 C1506 1.391 . S
H1508 C1516 0.950 . S
H1509 C1521 0.950 . S
H1510 C1518 0.950 . S
H1511 C1520 0.950 . S
H1512 C1522 0.950 . S
H1513 C1524 0.950 . S
H1514 C1526 0.950 . S
H1515 C1527 0.950 . S
C1516 H1508 0.950 . S
C1516 C1517 1.386 . S
C1516 C1518 1.391 . S
C1517 C1516 1.386 . S
C1517 C1521 1.393 . S
C1518 H1510 0.950 . S
C1518 C1516 1.391 . S
C1518 C1519 1.400 . S
C1519 C1518 1.400 . S
C1519 C1520 1.398 . S
C1519 C1525 1.491 . S
C1520 H1511 0.950 . S
C1520 C1519 1.398 . S
C1520 C1521 1.391 . S
C1521 H1509 0.950 . S
C1521 C1517 1.393 . S
C1521 C1520 1.391 . S
C1522 H1512 0.950 . S
C1522 C1523 1.386 . S
C1522 C1524 1.391 . S
C1523 C1522 1.386 . S
C1523 C1527 1.393 . S
C1524 H1513 0.950 . S
C1524 C1522 1.391 . S
C1524 C1525 1.400 . S
C1525 C1519 1.491 . S
C1525 C1524 1.400 . S
C1525 C1526 1.398 . S
C1526 H1514 0.950 . S
C1526 C1525 1.398 . S
C1526 C1527 1.391 . S
C1527 H1515 0.950 . S
C1527 C1523 1.393 . S
C1527 C1526 1.391 . S
H1528 C1536 0.950 . S
H1529 C1541 0.950 . S
H1530 C1538 0.950 . S
H1531 C1540 0.950 . S
H1532 C1542 0.950 . S
H1533 C1544 0.950 . S
H1534 C1546 0.950 . S
H1535 C1547 0.950 . S
C1536 H1528 0.950 . S
C1536 C1537 1.386 . S
C1536 C1538 1.391 . S
C1537 C1536 1.386 . S
C1537 C1541 1.393 . S
C1538 H1530 0.950 . S
C1538 C1536 1.391 . S
C1538 C1539 1.400 . S
C1539 C1538 1.400 . S
C1539 C1540 1.398 . S
C1539 C1545 1.491 . S
C1540 H1531 0.950 . S
C1540 C1539 1.398 . S
C1540 C1541 1.391 . S
C1541 H1529 0.950 . S
C1541 C1537 1.393 . S
C1541 C1540 1.391 . S
C1542 H1532 0.950 . S
C1542 C1543 1.386 . S
C1542 C1544 1.391 . S
C1543 C1542 1.386 . S
C1543 C1547 1.393 . S
C1544 H1533 0.950 . S
C1544 C1542 1.391 . S
C1544 C1545 1.400 . S
C1545 C1539 1.491 . S
C1545 C1544 1.400 . S
C1545 C1546 1.398 . S
C1546 H1534 0.950 . S
C1546 C1545 1.398 . S
C1546 C1547 1.391 . S
C1547 H1535 0.950 . S
C1547 C1543 1.393 . S
C1547 C1546 1.391 . S
H1548 C1556 0.950 . S
H1549 C1561 0.950 . S
H1550 C1558 0.950 . S
H1551 C1560 0.950 . S
H1552 C1562 0.950 . S
H1553 C1564 0.950 . S
H1554 C1566 0.950 . S
H1555 C1567 0.950 . S
C1556 H1548 0.950 . S
C1556 C1557 1.386 . S
C1556 C1558 1.391 . S
C1557 C1556 1.386 . S
C1557 C1561 1.393 . S
C1558 H1550 0.950 . S
C1558 C1556 1.391 . S
C1558 C1559 1.400 . S
C1559 C1558 1.400 . S
C1559 C1560 1.398 . S
C1559 C1565 1.491 . S
C1560 H1551 0.950 . S
C1560 C1559 1.398 . S
C1560 C1561 1.391 . S
C1561 H1549 0.950 . S
C1561 C1557 1.393 . S
C1561 C1560 1.391 . S
C1562 H1552 0.950 . S
C1562 C1563 1.386 . S
C1562 C1564 1.391 . S
C1563 C1562 1.386 . S
C1563 C1567 1.393 . S
C1564 H1553 0.950 . S
C1564 C1562 1.391 . S
C1564 C1565 1.400 . S
C1565 C1559 1.491 . S
C1565 C1564 1.400 . S
C1565 C1566 1.398 . S
C1566 H1554 0.950 . S
C1566 C1565 1.398 . S
C1566 C1567 1.391 . S
C1567 H1555 0.950 . S
C1567 C1563 1.393 . S
C1567 C1566 1.391 . S
H1568 C1576 0.950 . S
H1569 C1581 0.950 . S
H1570 C1578 0.950 . S
H1571 C1580 0.950 . S
H1572 C1582 0.950 . S
H1573 C1584 0.950 . S
H1574 C1586 0.950 . S
H1575 C1587 0.950 . S
C1576 H1568 0.950 . S
C1576 C1577 1.386 . S
C1576 C1578 1.391 . S
C1577 C1576 1.386 . S
C1577 C1581 1.393 . S
C1578 H1570 0.950 . S
C1578 C1576 1.391 . S
C1578 C1579 1.400 . S
C1579 C1578 1.400 . S
C1579 C1580 1.398 . S
C1579 C1585 1.491 . S
C1580 H1571 0.950 . S
C1580 C1579 1.398 . S
C1580 C1581 1.391 . S
C1581 H1569 0.950 . S
C1581 C1577 1.393 . S
C1581 C1580 1.391 . S
C1582 H1572 0.950 . S
C1582 C1583 1.386 . S
C1582 C1584 1.391 . S
C1583 C1582 1.386 . S
C1583 C1587 1.393 . S
C1584 H1573 0.950 . S
C1584 C1582 1.391 . S
C1584 C1585 1.400 . S
C1585 C1579 1.491 . S
C1585 C1584 1.400 . S
C1585 C1586 1.398 . S
C1586 H1574 0.950 . S
C1586 C1585 1.398 . S
C1586 C1587 1.391 . S
C1587 H1575 0.950 . S
C1587 C1583 1.393 . S
C1587 C1586 1.391 . S
H1588 C1596 0.950 . S
H1589 C1601 0.950 . S
H1590 C1598 0.950 . S
H1591 C1600 0.950 . S
H1592 C1602 0.950 . S
H1593 C1604 0.950 . S
H1594 C1606 0.950 . S
H1595 C1607 0.950 . S
C1596 H1588 0.950 . S
C1596 C1597 1.386 . S
C1596 C1598 1.391 . S
C1597 C1596 1.386 . S
C1597 C1601 1.393 . S
C1598 H1590 0.950 . S
C1598 C1596 1.391 . S
C1598 C1599 1.400 . S
C1599 C1598 1.400 . S
C1599 C1600 1.398 . S
C1599 C1605 1.491 . S
C1600 H1591 0.950 . S
C1600 C1599 1.398 . S
C1600 C1601 1.391 . S
C1601 H1589 0.950 . S
C1601 C1597 1.393 . S
C1601 C1600 1.391 . S
C1602 H1592 0.950 . S
C1602 C1603 1.386 . S
C1602 C1604 1.391 . S
C1603 C1602 1.386 . S
C1603 C1607 1.393 . S
C1604 H1593 0.950 . S
C1604 C1602 1.391 . S
C1604 C1605 1.400 . S
C1605 C1599 1.491 . S
C1605 C1604 1.400 . S
C1605 C1606 1.398 . S
C1606 H1594 0.950 . S
C1606 C1605 1.398 . S
C1606 C1607 1.391 . S
C1607 H1595 0.950 . S
C1607 C1603 1.393 . S
C1607 C1606 1.391 . S
H1608 C1616 0.950 . S
H1609 C1621 0.950 . S
H1610 C1618 0.950 . S
H1611 C1620 0.950 . S
H1612 C1622 0.950 . S
H1613 C1624 0.950 . S
H1614 C1626 0.950 . S
H1615 C1627 0.950 . S
C1616 H1608 0.950 . S
C1616 C1617 1.386 . S
C1616 C1618 1.391 . S
C1617 C1616 1.386 . S
C1617 C1621 1.393 . S
C1618 H1610 0.950 . S
C1618 C1616 1.391 . S
C1618 C1619 1.400 . S
C1619 C1618 1.400 . S
C1619 C1620 1.398 . S
C1619 C1625 1.491 . S
C1620 H1611 0.950 . S
C1620 C1619 1.398 . S
C1620 C1621 1.391 . S
C1621 H1609 0.950 . S
C1621 C1617 1.393 . S
C1621 C1620 1.391 . S
C1622 H1612 0.950 . S
C1622 C1623 1.386 . S
C1622 C1624 1.391 . S
C1623 C1622 1.386 . S
C1623 C1627 1.393 . S
C1624 H1613 0.950 . S
C1624 C1622 1.391 . S
C1624 C1625 1.400 . S
C1625 C1619 1.491 . S
C1625 C1624 1.400 . S
C1625 C1626 1.398 . S
C1626 H1614 0.950 . S
C1626 C1625 1.398 . S
C1626 C1627 1.391 . S
C1627 H1615 0.950 . S
C1627 C1623 1.393 . S
C1627 C1626 1.391 . S
H1628 C1636 0.950 . S
H1629 C1641 0.950 . S
H1630 C1638 0.950 . S
H1631 C1640 0.950 . S
H1632 C1642 0.950 . S
H1633 C1644 0.950 . S
H1634 C1646 0.950 . S
H1635 C1647 0.950 . S
C1636 H1628 0.950 . S
C1636 C1637 1.386 . S
C1636 C1638 1.391 . S
C1637 C1636 1.386 . S
C1637 C1641 1.393 . S
C1638 H1630 0.950 . S
C1638 C1636 1.391 . S
C1638 C1639 1.400 . S
C1639 C1638 1.400 . S
C1639 C1640 1.398 . S
C1639 C1645 1.491 . S
C1640 H1631 0.950 . S
C1640 C1639 1.398 . S
C1640 C1641 1.391 . S
C1641 H1629 0.950 . S
C1641 C1637 1.393 . S
C1641 C1640 1.391 . S
C1642 H1632 0.950 . S
C1642 C1643 1.386 . S
C1642 C1644 1.391 . S
C1643 C1642 1.386 . S
C1643 C1647 1.393 . S
C1644 H1633 0.950 . S
C1644 C1642 1.391 . S
C1644 C1645 1.400 . S
C1645 C1639 1.491 . S
C1645 C1644 1.400 . S
C1645 C1646 1.398 . S
C1646 H1634 0.950 . S
C1646 C1645 1.398 . S
C1646 C1647 1.391 . S
C1647 H1635 0.950 . S
C1647 C1643 1.393 . S
C1647 C1646 1.391 . S
H1648 C1656 0.950 . S
H1649 C1661 0.950 . S
H1650 C1658 0.950 . S
H1651 C1660 0.950 . S
H1652 C1662 0.950 . S
H1653 C1664 0.950 . S
H1654 C1666 0.950 . S
H1655 C1667 0.950 . S
C1656 H1648 0.950 . S
C1656 C1657 1.386 . S
C1656 C1658 1.391 . S
C1657 C1656 1.386 . S
C1657 C1661 1.393 . S
C1658 H1650 0.950 . S
C1658 C1656 1.391 . S
C1658 C1659 1.400 . S
C1659 C1658 1.400 . S
C1659 C1660 1.398 . S
C1659 C1665 1.491 . S
C1660 H1651 0.950 . S
C1660 C1659 1.398 . S
C1660 C1661 1.391 . S
C1661 H1649 0.950 . S
C1661 C1657 1.393 . S
C1661 C1660 1.391 . S
C1662 H1652 0.950 . S
C1662 C1663 1.386 . S
C1662 C1664 1.391 . S
C1663 C1662 1.386 . S
C1663 C1667 1.393 . S
C1664 H1653 0.950 . S
C1664 C1662 1.391 . S
C1664 C1665 1.400 . S
C1665 C1659 1.491 . S
C1665 C1664 1.400 . S
C1665 C1666 1.398 . S
C1666 H1654 0.950 . S
C1666 C1665 1.398 . S
C1666 C1667 1.391 . S
C1667 H1655 0.950 . S
C1667 C1663 1.393 . S
C1667 C1666 1.391 . S
H1668 C1676 0.950 . S
H1669 C1681 0.950 . S
H1670 C1678 0.950 . S
H1671 C1680 0.950 . S
H1672 C1682 0.950 . S
H1673 C1684 0.950 . S
H1674 C1686 0.950 . S
H1675 C1687 0.950 . S
C1676 H1668 0.950 . S
C1676 C1677 1.386 . S
C1676 C1678 1.391 . S
C1677 C1676 1.386 . S
C1677 C1681 1.393 . S
C1678 H1670 0.950 . S
C1678 C1676 1.391 . S
C1678 C1679 1.400 . S
C1679 C1678 1.400 . S
C1679 C1680 1.398 . S
C1679 C1685 1.491 . S
C1680 H1671 0.950 . S
C1680 C1679 1.398 . S
C1680 C1681 1.391 . S
C1681 H1669 0.950 . S
C1681 C1677 1.393 . S
C1681 C1680 1.391 . S
C1682 H1672 0.950 . S
C1682 C1683 1.386 . S
C1682 C1684 1.391 . S
C1683 C1682 1.386 . S
C1683 C1687 1.393 . S
C1684 H1673 0.950 . S
C1684 C1682 1.391 . S
C1684 C1685 1.400 . S
C1685 C1679 1.491 . S
C1685 C1684 1.400 . S
C1685 C1686 1.398 . S
C1686 H1674 0.950 . S
C1686 C1685 1.398 . S
C1686 C1687 1.391 . S
C1687 H1675 0.950 . S
C1687 C1683 1.393 . S
C1687 C1686 1.391 . S
H1688 C1696 0.950 . S
H1689 C1701 0.950 . S
H1690 C1698 0.950 . S
H1691 C1700 0.950 . S
H1692 C1702 0.950 . S
H1693 C1704 0.950 . S
H1694 C1706 0.950 . S
H1695 C1707 0.950 . S
C1696 H1688 0.950 . S
C1696 C1697 1.386 . S
C1696 C1698 1.391 . S
C1697 C1696 1.386 . S
C1697 C1701 1.393 . S
C1698 H1690 0.950 . S
C1698 C1696 1.391 . S
C1698 C1699 1.400 . S
C1699 C1698 1.400 . S
C1699 C1700 1.398 . S
C1699 C1705 1.491 . S
C1700 H1691 0.950 . S
C1700 C1699 1.398 . S
C1700 C1701 1.391 . S
C1701 H1689 0.950 . S
C1701 C1697 1.393 . S
C1701 C1700 1.391 . S
C1702 H1692 0.950 . S
C1702 C1703 1.386 . S
C1702 C1704 1.391 . S
C1703 C1702 1.386 . S
C1703 C1707 1.393 . S
C1704 H1693 0.950 . S
C1704 C1702 1.391 . S
C1704 C1705 1.400 . S
C1705 C1699 1.491 . S
C1705 C1704 1.400 . S
C1705 C1706 1.398 . S
C1706 H1694 0.950 . S
C1706 C1705 1.398 . S
C1706 C1707 1.391 . S
C1707 H1695 0.950 . S
C1707 C1703 1.393 . S
C1707 C1706 1.391 . S
H1708 C1716 0.950 . S
H1709 C1721 0.950 . S
H1710 C1718 0.950 . S
H1711 C1720 0.950 . S
H1712 C1722 0.950 . S
H1713 C1724 0.950 . S
H1714 C1726 0.950 . S
H1715 C1727 0.950 . S
C1716 H1708 0.950 . S
C1716 C1717 1.386 . S
C1716 C1718 1.391 . S
C1717 C1716 1.386 . S
C1717 C1721 1.393 . S
C1718 H1710 0.950 . S
C1718 C1716 1.391 . S
C1718 C1719 1.400 . S
C1719 C1718 1.400 . S
C1719 C1720 1.398 . S
C1719 C1725 1.491 . S
C1720 H1711 0.950 . S
C1720 C1719 1.398 . S
C1720 C1721 1.391 . S
C1721 H1709 0.950 . S
C1721 C1717 1.393 . S
C1721 C1720 1.391 . S
C1722 H1712 0.950 . S
C1722 C1723 1.386 . S
C1722 C1724 1.391 . S
C1723 C1722 1.386 . S
C1723 C1727 1.393 . S
C1724 H1713 0.950 . S
C1724 C1722 1.391 . S
C1724 C1725 1.400 . S
C1725 C1719 1.491 . S
C1725 C1724 1.400 . S
C1725 C1726 1.398 . S
C1726 H1714 0.950 . S
C1726 C1725 1.398 . S
C1726 C1727 1.391 . S
C1727 H1715 0.950 . S
C1727 C1723 1.393 . S
C1727 C1726 1.391 . S
H1728 C1736 0.950 . S
H1729 C1741 0.950 . S
H1730 C1738 0.950 . S
H1731 C1740 0.950 . S
H1732 C1742 0.950 . S
H1733 C1744 0.950 . S
H1734 C1746 0.950 . S
H1735 C1747 0.950 . S
C1736 H1728 0.950 . S
C1736 C1737 1.386 . S
C1736 C1738 1.391 . S
C1737 C1736 1.386 . S
C1737 C1741 1.393 . S
C1738 H1730 0.950 . S
C1738 C1736 1.391 . S
C1738 C1739 1.400 . S
C1739 C1738 1.400 . S
C1739 C1740 1.398 . S
C1739 C1745 1.491 . S
C1740 H1731 0.950 . S
C1740 C1739 1.398 . S
C1740 C1741 1.391 . S
C1741 H1729 0.950 . S
C1741 C1737 1.393 . S
C1741 C1740 1.391 . S
C1742 H1732 0.950 . S
C1742 C1743 1.386 . S
C1742 C1744 1.391 . S
C1743 C1742 1.386 . S
C1743 C1747 1.393 . S
C1744 H1733 0.950 . S
C1744 C1742 1.391 . S
C1744 C1745 1.400 . S
C1745 C1739 1.491 . S
C1745 C1744 1.400 . S
C1745 C1746 1.398 . S
C1746 H1734 0.950 . S
C1746 C1745 1.398 . S
C1746 C1747 1.391 . S
C1747 H1735 0.950 . S
C1747 C1743 1.393 . S
C1747 C1746 1.391 . S
H1748 C1756 0.950 . S
H1749 C1761 0.950 . S
H1750 C1758 0.950 . S
H1751 C1760 0.950 . S
H1752 C1762 0.950 . S
H1753 C1764 0.950 . S
H1754 C1766 0.950 . S
H1755 C1767 0.950 . S
C1756 H1748 0.950 . S
C1756 C1757 1.386 . S
C1756 C1758 1.391 . S
C1757 C1756 1.386 . S
C1757 C1761 1.393 . S
C1758 H1750 0.950 . S
C1758 C1756 1.391 . S
C1758 C1759 1.400 . S
C1759 C1758 1.400 . S
C1759 C1760 1.398 . S
C1759 C1765 1.491 . S
C1760 H1751 0.950 . S
C1760 C1759 1.398 . S
C1760 C1761 1.391 . S
C1761 H1749 0.950 . S
C1761 C1757 1.393 . S
C1761 C1760 1.391 . S
C1762 H1752 0.950 . S
C1762 C1763 1.386 . S
C1762 C1764 1.391 . S
C1763 C1762 1.386 . S
C1763 C1767 1.393 . S
C1764 H1753 0.950 . S
C1764 C1762 1.391 . S
C1764 C1765 1.400 . S
C1765 C1759 1.491 . S
C1765 C1764 1.400 . S
C1765 C1766 1.398 . S
C1766 H1754 0.950 . S
C1766 C1765 1.398 . S
C1766 C1767 1.391 . S
C1767 H1755 0.950 . S
C1767 C1763 1.393 . S
C1767 C1766 1.391 . S
H1768 C1776 0.950 . S
H1769 C1781 0.950 . S
H1770 C1778 0.950 . S
H1771 C1780 0.950 . S
H1772 C1782 0.950 . S
H1773 C1784 0.950 . S
H1774 C1786 0.950 . S
H1775 C1787 0.950 . S
C1776 H1768 0.950 . S
C1776 C1777 1.386 . S
C1776 C1778 1.391 . S
C1777 C1776 1.386 . S
C1777 C1781 1.393 . S
C1778 H1770 0.950 . S
C1778 C1776 1.391 . S
C1778 C1779 1.400 . S
C1779 C1778 1.400 . S
C1779 C1780 1.398 . S
C1779 C1785 1.491 . S
C1780 H1771 0.950 . S
C1780 C1779 1.398 . S
C1780 C1781 1.391 . S
C1781 H1769 0.950 . S
C1781 C1777 1.393 . S
C1781 C1780 1.391 . S
C1782 H1772 0.950 . S
C1782 C1783 1.386 . S
C1782 C1784 1.391 . S
C1783 C1782 1.386 . S
C1783 C1787 1.393 . S
C1784 H1773 0.950 . S
C1784 C1782 1.391 . S
C1784 C1785 1.400 . S
C1785 C1779 1.491 . S
C1785 C1784 1.400 . S
C1785 C1786 1.398 . S
C1786 H1774 0.950 . S
C1786 C1785 1.398 . S
C1786 C1787 1.391 . S
C1787 H1775 0.950 . S
C1787 C1783 1.393 . S
C1787 C1786 1.391 . S
H1788 C1796 0.950 . S
H1789 C1801 0.950 . S
H1790 C1798 0.950 . S
H1791 C1800 0.950 . S
H1792 C1802 0.950 . S
H1793 C1804 0.950 . S
H1794 C1806 0.950 . S
H1795 C1807 0.950 . S
C1796 H1788 0.950 . S
C1796 C1797 1.386 . S
C1796 C1798 1.391 . S
C1797 C1796 1.386 . S
C1797 C1801 1.393 . S
C1798 H1790 0.950 . S
C1798 C1796 1.391 . S
C1798 C1799 1.400 . S
C1799 C1798 1.400 . S
C1799 C1800 1.398 . S
C1799 C1805 1.491 . S
C1800 H1791 0.950 . S
C1800 C1799 1.398 . S
C1800 C1801 1.391 . S
C1801 H1789 0.950 . S
C1801 C1797 1.393 . S
C1801 C1800 1.391 . S
C1802 H1792 0.950 . S
C1802 C1803 1.386 . S
C1802 C1804 1.391 . S
C1803 C1802 1.386 . S
C1803 C1807 1.393 . S
C1804 H1793 0.950 . S
C1804 C1802 1.391 . S
C1804 C1805 1.400 . S
C1805 C1799 1.491 . S
C1805 C1804 1.400 . S
C1805 C1806 1.398 . S
C1806 H1794 0.950 . S
C1806 C1805 1.398 . S
C1806 C1807 1.391 . S
C1807 H1795 0.950 . S
C1807 C1803 1.393 . S
C1807 C1806 1.391 . S
H1808 C1816 0.950 . S
H1809 C1821 0.950 . S
H1810 C1818 0.950 . S
H1811 C1820 0.950 . S
H1812 C1822 0.950 . S
H1813 C1824 0.950 . S
H1814 C1826 0.950 . S
H1815 C1827 0.950 . S
C1816 H1808 0.950 . S
C1816 C1817 1.386 . S
C1816 C1818 1.391 . S
C1817 C1816 1.386 . S
C1817 C1821 1.393 . S
C1818 H1810 0.950 . S
C1818 C1816 1.391 . S
C1818 C1819 1.400 . S
C1819 C1818 1.400 . S
C1819 C1820 1.398 . S
C1819 C1825 1.491 . S
C1820 H1811 0.950 . S
C1820 C1819 1.398 . S
C1820 C1821 1.391 . S
C1821 H1809 0.950 . S
C1821 C1817 1.393 . S
C1821 C1820 1.391 . S
C1822 H1812 0.950 . S
C1822 C1823 1.386 . S
C1822 C1824 1.391 . S
C1823 C1822 1.386 . S
C1823 C1827 1.393 . S
C1824 H1813 0.950 . S
C1824 C1822 1.391 . S
C1824 C1825 1.400 . S
C1825 C1819 1.491 . S
C1825 C1824 1.400 . S
C1825 C1826 1.398 . S
C1826 H1814 0.950 . S
C1826 C1825 1.398 . S
C1826 C1827 1.391 . S
C1827 H1815 0.950 . S
C1827 C1823 1.393 . S
C1827 C1826 1.391 . S
H1828 C1836 0.950 . S
H1829 C1841 0.950 . S
H1830 C1838 0.950 . S
H1831 C1840 0.950 . S
H1832 C1842 0.950 . S
H1833 C1844 0.950 . S
H1834 C1846 0.950 . S
H1835 C1847 0.950 . S
C1836 H1828 0.950 . S
C1836 C1837 1.386 . S
C1836 C1838 1.391 . S
C1837 C1836 1.386 . S
C1837 C1841 1.393 . S
C1838 H1830 0.950 . S
C1838 C1836 1.391 . S
C1838 C1839 1.400 . S
C1839 C1838 1.400 . S
C1839 C1840 1.398 . S
C1839 C1845 1.491 . S
C1840 H1831 0.950 . S
C1840 C1839 1.398 . S
C1840 C1841 1.391 . S
C1841 H1829 0.950 . S
C1841 C1837 1.393 . S
C1841 C1840 1.391 . S
C1842 H1832 0.950 . S
C1842 C1843 1.386 . S
C1842 C1844 1.391 . S
C1843 C1842 1.386 . S
C1843 C1847 1.393 . S
C1844 H1833 0.950 . S
C1844 C1842 1.391 . S
C1844 C1845 1.400 . S
C1845 C1839 1.491 . S
C1845 C1844 1.400 . S
C1845 C1846 1.398 . S
C1846 H1834 0.950 . S
C1846 C1845 1.398 . S
C1846 C1847 1.391 . S
C1847 H1835 0.950 . S
C1847 C1843 1.393 . S
C1847 C1846 1.391 . S
H1848 C1856 0.950 . S
H1849 C1861 0.950 . S
H1850 C1858 0.950 . S
H1851 C1860 0.950 . S
H1852 C1862 0.950 . S
H1853 C1864 0.950 . S
H1854 C1866 0.950 . S
H1855 C1867 0.950 . S
C1856 H1848 0.950 . S
C1856 C1857 1.386 . S
C1856 C1858 1.391 . S
C1857 C1856 1.386 . S
C1857 C1861 1.393 . S
C1858 H1850 0.950 . S
C1858 C1856 1.391 . S
C1858 C1859 1.400 . S
C1859 C1858 1.400 . S
C1859 C1860 1.398 . S
C1859 C1865 1.491 . S
C1860 H1851 0.950 . S
C1860 C1859 1.398 . S
C1860 C1861 1.391 . S
C1861 H1849 0.950 . S
C1861 C1857 1.393 . S
C1861 C1860 1.391 . S
C1862 H1852 0.950 . S
C1862 C1863 1.386 . S
C1862 C1864 1.391 . S
C1863 C1862 1.386 . S
C1863 C1867 1.393 . S
C1864 H1853 0.950 . S
C1864 C1862 1.391 . S
C1864 C1865 1.400 . S
C1865 C1859 1.491 . S
C1865 C1864 1.400 . S
C1865 C1866 1.398 . S
C1866 H1854 0.950 . S
C1866 C1865 1.398 . S
C1866 C1867 1.391 . S
C1867 H1855 0.950 . S
C1867 C1863 1.393 . S
C1867 C1866 1.391 . S
H1868 C1876 0.950 . S
H1869 C1881 0.950 . S
H1870 C1878 0.950 . S
H1871 C1880 0.950 . S
H1872 C1882 0.950 . S
H1873 C1884 0.950 . S
H1874 C1886 0.950 . S
H1875 C1887 0.950 . S
C1876 H1868 0.950 . S
C1876 C1877 1.386 . S
C1876 C1878 1.391 . S
C1877 C1876 1.386 . S
C1877 C1881 1.393 . S
C1878 H1870 0.950 . S
C1878 C1876 1.391 . S
C1878 C1879 1.400 . S
C1879 C1878 1.400 . S
C1879 C1880 1.398 . S
C1879 C1885 1.491 . S
C1880 H1871 0.950 . S
C1880 C1879 1.398 . S
C1880 C1881 1.391 . S
C1881 H1869 0.950 . S
C1881 C1877 1.393 . S
C1881 C1880 1.391 . S
C1882 H1872 0.950 . S
C1882 C1883 1.386 . S
C1882 C1884 1.391 . S
C1883 C1882 1.386 . S
C1883 C1887 1.393 . S
C1884 H1873 0.950 . S
C1884 C1882 1.391 . S
C1884 C1885 1.400 . S
C1885 C1879 1.491 . S
C1885 C1884 1.400 . S
C1885 C1886 1.398 . S
C1886 H1874 0.950 . S
C1886 C1885 1.398 . S
C1886 C1887 1.391 . S
C1887 H1875 0.950 . S
C1887 C1883 1.393 . S
C1887 C1886 1.391 . S
H1888 C1896 0.950 . S
H1889 C1901 0.950 . S
H1890 C1898 0.950 . S
H1891 C1900 0.950 . S
H1892 C1902 0.950 . S
H1893 C1904 0.950 . S
H1894 C1906 0.950 . S
H1895 C1907 0.950 . S
C1896 H1888 0.950 . S
C1896 C1897 1.386 . S
C1896 C1898 1.391 . S
C1897 C1896 1.386 . S
C1897 C1901 1.393 . S
C1898 H1890 0.950 . S
C1898 C1896 1.391 . S
C1898 C1899 1.400 . S
C1899 C1898 1.400 . S
C1899 C1900 1.398 . S
C1899 C1905 1.491 1_554 S
C1900 H1891 0.950 . S
C1900 C1899 1.398 . S
C1900 C1901 1.391 . S
C1901 H1889 0.950 . S
C1901 C1897 1.393 . S
C1901 C1900 1.391 . S
C1902 H1892 0.950 . S
C1902 C1903 1.386 . S
C1902 C1904 1.391 . S
C1903 C1902 1.386 . S
C1903 C1907 1.393 . S
C1904 H1893 0.950 . S
C1904 C1902 1.391 . S
C1904 C1905 1.400 . S
C1905 C1899 1.491 1_556 S
C1905 C1904 1.400 . S
C1905 C1906 1.398 . S
C1906 H1894 0.950 . S
C1906 C1905 1.398 . S
C1906 C1907 1.391 . S
C1907 H1895 0.950 . S
C1907 C1903 1.393 . S
C1907 C1906 1.391 . S
H1908 C1916 0.950 . S
H1909 C1921 0.950 . S
H1910 C1918 0.950 . S
H1911 C1920 0.950 . S
H1912 C1922 0.950 . S
H1913 C1924 0.950 . S
H1914 C1926 0.950 . S
H1915 C1927 0.950 . S
C1916 H1908 0.950 . S
C1916 C1917 1.386 . S
C1916 C1918 1.391 . S
C1917 C1916 1.386 . S
C1917 C1921 1.393 . S
C1918 H1910 0.950 . S
C1918 C1916 1.391 . S
C1918 C1919 1.400 . S
C1919 C1918 1.400 . S
C1919 C1920 1.398 . S
C1919 C1925 1.491 . S
C1920 H1911 0.950 . S
C1920 C1919 1.398 . S
C1920 C1921 1.391 . S
C1921 H1909 0.950 . S
C1921 C1917 1.393 . S
C1921 C1920 1.391 . S
C1922 H1912 0.950 . S
C1922 C1923 1.386 . S
C1922 C1924 1.391 . S
C1923 C1922 1.386 . S
C1923 C1927 1.393 . S
C1924 H1913 0.950 . S
C1924 C1922 1.391 . S
C1924 C1925 1.400 . S
C1925 C1919 1.491 . S
C1925 C1924 1.400 . S
C1925 C1926 1.398 . S
C1926 H1914 0.950 . S
C1926 C1925 1.398 . S
C1926 C1927 1.391 . S
C1927 H1915 0.950 . S
C1927 C1923 1.393 . S
C1927 C1926 1.391 . S
H1928 C1936 0.950 . S
H1929 C1941 0.950 . S
H1930 C1938 0.950 . S
H1931 C1940 0.950 . S
H1932 C1942 0.950 . S
H1933 C1944 0.950 . S
H1934 C1946 0.950 . S
H1935 C1947 0.950 . S
C1936 H1928 0.950 . S
C1936 C1937 1.386 1_455 S
C1936 C1938 1.391 . S
C1937 C1936 1.386 1_655 S
C1937 C1941 1.393 . S
C1938 H1930 0.950 . S
C1938 C1936 1.391 . S
C1938 C1939 1.400 1_455 S
C1939 C1938 1.400 1_655 S
C1939 C1940 1.398 . S
C1939 C1945 1.491 1_554 S
C1940 H1931 0.950 . S
C1940 C1939 1.398 . S
C1940 C1941 1.391 . S
C1941 H1929 0.950 . S
C1941 C1937 1.393 . S
C1941 C1940 1.391 . S
C1942 H1932 0.950 . S
C1942 C1943 1.386 . S
C1942 C1944 1.391 . S
C1943 C1942 1.386 . S
C1943 C1947 1.393 1_655 S
C1944 H1933 0.950 . S
C1944 C1942 1.391 . S
C1944 C1945 1.400 . S
C1945 C1939 1.491 1_556 S
C1945 C1944 1.400 . S
C1945 C1946 1.398 1_655 S
C1946 H1934 0.950 . S
C1946 C1945 1.398 1_455 S
C1946 C1947 1.391 . S
C1947 H1935 0.950 . S
C1947 C1943 1.393 1_455 S
C1947 C1946 1.391 . S
H1948 C1956 0.950 . S
H1949 C1961 0.950 . S
H1950 C1958 0.950 . S
H1951 C1960 0.950 . S
H1952 C1962 0.950 . S
H1953 C1964 0.950 . S
H1954 C1966 0.950 . S
H1955 C1967 0.950 . S
C1956 H1948 0.950 . S
C1956 C1957 1.386 1_545 S
C1956 C1958 1.391 . S
C1957 C1956 1.386 1_565 S
C1957 C1961 1.393 . S
C1958 H1950 0.950 . S
C1958 C1956 1.391 . S
C1958 C1959 1.400 1_545 S
C1959 C1958 1.400 1_565 S
C1959 C1960 1.398 . S
C1959 C1965 1.491 . S
C1960 H1951 0.950 . S
C1960 C1959 1.398 . S
C1960 C1961 1.391 . S
C1961 H1949 0.950 . S
C1961 C1957 1.393 . S
C1961 C1960 1.391 . S
C1962 H1952 0.950 . S
C1962 C1963 1.386 . S
C1962 C1964 1.391 . S
C1963 C1962 1.386 . S
C1963 C1967 1.393 1_565 S
C1964 H1953 0.950 . S
C1964 C1962 1.391 . S
C1964 C1965 1.400 . S
C1965 C1959 1.491 . S
C1965 C1964 1.400 . S
C1965 C1966 1.398 1_565 S
C1966 H1954 0.950 . S
C1966 C1965 1.398 1_545 S
C1966 C1967 1.391 . S
C1967 H1955 0.950 . S
C1967 C1963 1.393 1_545 S
C1967 C1966 1.391 . S
H1968 C1976 0.950 . S
H1969 C1981 0.950 . S
H1970 C1978 0.950 . S
H1971 C1980 0.950 . S
H1972 C1982 0.950 . S
H1973 C1984 0.950 . S
H1974 C1986 0.950 . S
H1975 C1987 0.950 . S
C1976 H1968 0.950 . S
C1976 C1977 1.386 . S
C1976 C1978 1.391 . S
C1977 C1976 1.386 . S
C1977 C1981 1.393 . S
C1978 H1970 0.950 . S
C1978 C1976 1.391 . S
C1978 C1979 1.400 . S
C1979 C1978 1.400 . S
C1979 C1980 1.398 . S
C1979 C1985 1.491 1_556 S
C1980 H1971 0.950 . S
C1980 C1979 1.398 . S
C1980 C1981 1.391 . S
C1981 H1969 0.950 . S
C1981 C1977 1.393 . S
C1981 C1980 1.391 . S
C1982 H1972 0.950 . S
C1982 C1983 1.386 . S
C1982 C1984 1.391 . S
C1983 C1982 1.386 . S
C1983 C1987 1.393 . S
C1984 H1973 0.950 . S
C1984 C1982 1.391 . S
C1984 C1985 1.400 . S
C1985 C1979 1.491 1_554 S
C1985 C1984 1.400 . S
C1985 C1986 1.398 . S
C1986 H1974 0.950 . S
C1986 C1985 1.398 . S
C1986 C1987 1.391 . S
C1987 H1975 0.950 . S
C1987 C1983 1.393 . S
C1987 C1986 1.391 . S
H1988 C1996 0.950 . S
H1989 C2001 0.950 . S
H1990 C1998 0.950 . S
H1991 C2000 0.950 . S
H1992 C2002 0.950 . S
H1993 C2004 0.950 . S
H1994 C2006 0.950 . S
H1995 C2007 0.950 . S
C1996 H1988 0.950 . S
C1996 C1997 1.386 . S
C1996 C1998 1.391 . S
C1997 C1996 1.386 . S
C1997 C2001 1.393 . S
C1998 H1990 0.950 . S
C1998 C1996 1.391 . S
C1998 C1999 1.400 . S
C1999 C1998 1.400 . S
C1999 C2000 1.398 . S
C1999 C2005 1.491 . S
C2000 H1991 0.950 . S
C2000 C1999 1.398 . S
C2000 C2001 1.391 . S
C2001 H1989 0.950 . S
C2001 C1997 1.393 . S
C2001 C2000 1.391 . S
C2002 H1992 0.950 . S
C2002 C2003 1.386 . S
C2002 C2004 1.391 . S
C2003 C2002 1.386 . S
C2003 C2007 1.393 . S
C2004 H1993 0.950 . S
C2004 C2002 1.391 . S
C2004 C2005 1.400 . S
C2005 C1999 1.491 . S
C2005 C2004 1.400 . S
C2005 C2006 1.398 . S
C2006 H1994 0.950 . S
C2006 C2005 1.398 . S
C2006 C2007 1.391 . S
C2007 H1995 0.950 . S
C2007 C2003 1.393 . S
C2007 C2006 1.391 . S
H2008 C2016 0.950 . S
H2009 C2021 0.950 . S
H2010 C2018 0.950 . S
H2011 C2020 0.950 . S
H2012 C2022 0.950 . S
H2013 C2024 0.950 . S
H2014 C2026 0.950 . S
H2015 C2027 0.950 . S
C2016 H2008 0.950 . S
C2016 C2017 1.386 1_655 S
C2016 C2018 1.391 . S
C2017 C2016 1.386 1_455 S
C2017 C2021 1.393 . S
C2018 H2010 0.950 . S
C2018 C2016 1.391 . S
C2018 C2019 1.400 1_655 S
C2019 C2018 1.400 1_455 S
C2019 C2020 1.398 . S
C2019 C2025 1.491 1_554 S
C2020 H2011 0.950 . S
C2020 C2019 1.398 . S
C2020 C2021 1.391 . S
C2021 H2009 0.950 . S
C2021 C2017 1.393 . S
C2021 C2020 1.391 . S
C2022 H2012 0.950 . S
C2022 C2023 1.386 . S
C2022 C2024 1.391 . S
C2023 C2022 1.386 . S
C2023 C2027 1.393 1_455 S
C2024 H2013 0.950 . S
C2024 C2022 1.391 . S
C2024 C2025 1.400 . S
C2025 C2019 1.491 1_556 S
C2025 C2024 1.400 . S
C2025 C2026 1.398 1_455 S
C2026 H2014 0.950 . S
C2026 C2025 1.398 1_655 S
C2026 C2027 1.391 . S
C2027 H2015 0.950 . S
C2027 C2023 1.393 1_655 S
C2027 C2026 1.391 . S
H2028 C2036 0.950 . S
H2029 C2041 0.950 . S
H2030 C2038 0.950 . S
H2031 C2040 0.950 . S
H2032 C2042 0.950 . S
H2033 C2044 0.950 . S
H2034 C2046 0.950 . S
H2035 C2047 0.950 . S
C2036 H2028 0.950 . S
C2036 C2037 1.386 . S
C2036 C2038 1.391 . S
C2037 C2036 1.386 . S
C2037 C2041 1.393 1_545 S
C2038 H2030 0.950 . S
C2038 C2036 1.391 . S
C2038 C2039 1.400 . S
C2039 C2038 1.400 . S
C2039 C2040 1.398 1_545 S
C2039 C2045 1.491 . S
C2040 H2031 0.950 . S
C2040 C2039 1.398 1_565 S
C2040 C2041 1.391 . S
C2041 H2029 0.950 . S
C2041 C2037 1.393 1_565 S
C2041 C2040 1.391 . S
C2042 H2032 0.950 . S
C2042 C2043 1.386 1_565 S
C2042 C2044 1.391 . S
C2043 C2042 1.386 1_545 S
C2043 C2047 1.393 . S
C2044 H2033 0.950 . S
C2044 C2042 1.391 . S
C2044 C2045 1.400 1_565 S
C2045 C2039 1.491 . S
C2045 C2044 1.400 1_545 S
C2045 C2046 1.398 . S
C2046 H2034 0.950 . S
C2046 C2045 1.398 . S
C2046 C2047 1.391 . S
C2047 H2035 0.950 . S
C2047 C2043 1.393 . S
C2047 C2046 1.391 . S
C1417 C57 1.000 . S
C1423 C665 1.001 . S
C1437 C117 0.988 . S
C1443 C372 1.008 . S
C1457 C205 1.007 . S
C1463 C469 0.983 . S
C1477 C293 1.000 . S
C1483 C577 1.001 . S
C1497 C733 1.009 . S
C1503 C1377 1.006 . S
C1517 C1105 1.012 . S
C1523 C812 0.990 . S
C1537 C909 1.014 . S
C1543 C1193 0.995 . S
C1557 C997 0.995 . S
C1563 C1289 0.998 . S
C1577 C29 1.358 . S
C1583 C849 1.409 . S
C1597 C145 1.348 . S
C1603 C929 1.401 . S
C1617 C1017 1.402 . S
C1623 C233 1.332 . S
C1637 C321 1.357 . S
C1643 C753 1.409 . S
C1657 C401 1.331 . S
C1663 C1340 1.401 . S
C1677 C1085 1.401 . S
C1683 C497 1.349 . S
C1697 C1173 1.401 . S
C1703 C548 1.331 . S
C1717 C1252 1.405 . S
C1723 C636 1.359 . S
C1737 C108 1.411 . S
C1743 C761 1.358 . S
C1757 C196 1.409 . S
C1763 C841 1.338 . S
C1777 C937 1.341 . S
C1783 C284 1.407 . S
C1797 C49 1.418 . S
C1803 C1025 1.369 . S
C1817 C1076 1.360 . S
C1823 C673 1.417 . S
C1837 C1164 1.339 . S
C1843 C381 1.410 . S
C1857 C460 1.409 . S
C1863 C1261 1.338 . S
C1877 C585 1.411 . S
C1883 C1349 1.341 . S
C1897 C20 1.590 . S
C1903 C409 1.587 . S
C1917 C489 1.588 . S
C1923 C137 1.590 . S
C1937 C225 1.586 . S
C1943 C557 1.581 . S
C1957 C645 1.584 . S
C1963 C313 1.582 . S
C1977 C724 1.576 . S
C1983 C1113 1.581 . S
C1997 C1201 1.582 . S
C2003 C821 1.577 . S
C2017 C1281 1.582 . S
C2023 C900 1.578 . S
C2037 C1369 1.580 . S
C2043 C988 1.575 . S
