# Generated by pormake.
# Topology rkf, (6)-cn, num edge types: 1
# Building blocks:
#     Node 0, Type 0, BuildingBlock: HISSIN_clean_sbu_0, # of connection points: 6
#     Node 1, Type 0, BuildingBlock: HISSIN_clean_sbu_0, # of connection points: 6
#     Node 2, Type 0, BuildingBlock: HISSIN_clean_sbu_0, # of connection points: 6
#     Node 3, Type 0, BuildingBlock: HISSIN_clean_sbu_0, # of connection points: 6
#     Node 4, Type 0, BuildingBlock: HISSIN_clean_sbu_0, # of connection points: 6
#     Node 5, Type 0, BuildingBlock: HISSIN_clean_sbu_0, # of connection points: 6
#     Edge 6, Type (0, 0), BuildingBlock: TEMPAE_clean_linker_10, # of connection points: 2
#     Edge 7, Type (0, 0), BuildingBlock: TEMPAE_clean_linker_10, # of connection points: 2
#     Edge 8, Type (0, 0), BuildingBlock: TEMPAE_clean_linker_10, # of connection points: 2
#     Edge 9, Type (0, 0), BuildingBlock: TEMPAE_clean_linker_10, # of connection points: 2
#     Edge 10, Type (0, 0), BuildingBlock: TEMPAE_clean_linker_10, # of connection points: 2
#     Edge 11, Type (0, 0), BuildingBlock: TEMPAE_clean_linker_10, # of connection points: 2
#     Edge 12, Type (0, 0), BuildingBlock: TEMPAE_clean_linker_10, # of connection points: 2
#     Edge 13, Type (0, 0), BuildingBlock: TEMPAE_clean_linker_10, # of connection points: 2
#     Edge 14, Type (0, 0), BuildingBlock: TEMPAE_clean_linker_10, # of connection points: 2
#     Edge 15, Type (0, 0), BuildingBlock: TEMPAE_clean_linker_10, # of connection points: 2
#     Edge 16, Type (0, 0), BuildingBlock: TEMPAE_clean_linker_10, # of connection points: 2
#     Edge 17, Type (0, 0), BuildingBlock: TEMPAE_clean_linker_10, # of connection points: 2
#     Edge 18, Type (0, 0), BuildingBlock: TEMPAE_clean_linker_10, # of connection points: 2
#     Edge 19, Type (0, 0), BuildingBlock: TEMPAE_clean_linker_10, # of connection points: 2
#     Edge 20, Type (0, 0), BuildingBlock: TEMPAE_clean_linker_10, # of connection points: 2
#     Edge 21, Type (0, 0), BuildingBlock: TEMPAE_clean_linker_10, # of connection points: 2
#     Edge 22, Type (0, 0), BuildingBlock: TEMPAE_clean_linker_10, # of connection points: 2
#     Edge 23, Type (0, 0), BuildingBlock: TEMPAE_clean_linker_10, # of connection points: 2
# Relax obj value: 0.700
# Max RMSD: 0.256
# Mean RMSD: 0.256
data_MOF--net-rkf--node1-HISSIN_clean_sbu_0--edge1-TEMPAE_clean_linker_10
_symmetry_space_group_name_H-M    P1
_symmetry_Int_Tables_number       1
_symmetry_cell_setting            triclinic
loop_
_symmetry_equiv_pos_as_xyz
'x, y, z'
_cell_length_a     25.427937
_cell_length_b     25.311563
_cell_length_c     45.333705
_cell_angle_alpha  89.566939
_cell_angle_beta   89.432881
_cell_angle_gamma 120.13397
loop_
_atom_site_label
_atom_site_type_symbol
_atom_site_fract_x
_atom_site_fract_y
_atom_site_fract_z
_atom_type_partial_charge
Eu0 Eu 0.29338 0.15045 0.17035 0.0
Eu1 Eu 0.4055 0.28085 0.15195 0.0
C2 C 0.42867 0.17474 0.17352 0.0
C3 C 0.19677 -0.01515 0.19761 0.0
C4 C 0.24709 -0.01985 0.20633 0.0
C5 C 0.12897 0.88616 0.21984 0.0
C6 C 0.23824 0.92904 0.22251 0.0
C7 C 0.13782 0.93698 0.20363 0.0
C8 C 0.17909 0.88274 0.23018 0.0
C9 C 0.20473 0.04072 0.18392 0.0
O10 O 0.373 0.23711 1.10587 0.0
O11 O 0.31013 0.13831 1.12175 0.0
C12 C 0.33736 0.17818 1.09996 0.0
O13 O 0.24981 0.19921 0.14927 0.0
O14 O 0.49959 0.33835 1.13707 0.0
O15 O 0.45155 0.37935 0.15752 0.0
O16 O 0.33059 0.28814 1.13047 0.0
C17 C 0.27226 0.25026 1.13378 0.0
O18 O 0.28816 0.21074 0.20575 0.0
O19 O 0.38814 0.28252 0.20243 0.0
O20 O 0.4426 0.21746 0.15364 0.0
O21 O 0.22302 0.08739 0.20118 0.0
O22 O 0.23266 0.05575 0.15844 0.0
O23 O 0.37704 0.15161 0.18829 0.0
C24 C 0.52325 0.43719 1.12047 0.0
C25 C 0.52507 0.4924 1.12635 0.0
C26 C 0.54874 0.46844 1.06927 0.0
C27 C 0.53541 0.5339 1.10353 0.0
C28 C 0.53781 0.42675 1.09201 0.0
C29 C 0.54513 0.52139 1.07446 0.0
C30 C 0.5007 0.38912 0.14343 0.0
C31 C 0.3357 0.25764 0.21716 0.0
H32 H 0.29295 0.017 0.20169 0.0
H33 H 0.08299 0.85083 0.22556 0.0
H34 H 0.27742 0.9275 0.23057 0.0
H35 H 0.09867 0.94005 0.19684 0.0
H36 H 0.51497 0.50185 0.14831 0.0
H37 H 0.55493 0.45614 1.04722 0.0
H38 H 0.53285 0.57432 1.1085 0.0
H39 H 0.53731 0.3848 1.08683 0.0
Eu40 Eu 0.25721 0.32128 0.49831 0.0
Eu41 Eu 0.26377 0.45 0.48542 0.0
C42 C 0.37789 0.44668 0.50951 0.0
C43 C 0.30348 0.20944 0.52353 0.0
C44 C 0.35868 0.25915 0.53254 0.0
C45 C 0.33385 0.13994 0.54346 0.0
C46 C 0.40096 0.24941 0.54727 0.0
C47 C 0.29167 0.14981 0.52849 0.0
C48 C 0.38839 0.18972 0.55346 0.0
C49 C 0.25916 0.22057 0.50862 0.0
O50 O 0.29682 0.4274 0.44138 0.0
O51 O 0.25586 0.32439 0.44844 0.0
C52 C 0.28182 0.37262 0.43087 0.0
O53 O 0.16194 0.30316 0.49065 0.0
O54 O 0.32166 0.54722 0.47621 0.0
O55 O 0.22471 0.50953 0.48335 0.0
O56 O 0.1842 0.38324 0.45961 0.0
C57 C 0.14647 0.32818 0.4694 0.0
O58 O 0.24874 0.35333 0.54395 0.0
O59 O 0.21083 0.4144 0.52979 0.0
O60 O 0.34254 0.46946 0.51396 0.0
O61 O 0.22941 0.23895 0.5252 0.0
O62 O 0.27948 0.25283 0.48441 0.0
O63 O 0.35645 0.39254 0.49822 0.0
C64 C 0.27252 0.58659 0.44712 0.0
C65 C 0.30071 0.5827 0.42111 0.0
C66 C 0.21883 0.62568 0.41865 0.0
C67 C 0.28586 0.5974 0.39401 0.0
C68 C 0.23394 0.61117 0.4459 0.0
C69 C 0.242 0.6156 0.39234 0.0
C70 C 0.27588 0.55684 0.47442 0.0
C71 C 0.2187 0.38173 0.55047 0.0
H72 H 0.36844 0.30551 0.52875 0.0
H73 H 0.32313 0.09347 0.54803 0.0
H74 H 0.44196 0.28859 0.5552 0.0
H75 H 0.24946 0.11104 0.52133 0.0
H76 H 0.33065 0.56381 0.42135 0.0
H77 H 0.1852 0.63979 0.41799 0.0
H78 H 0.30408 0.58817 0.37427 0.0
H79 H 0.21199 0.6148 0.46576 0.0
Eu80 Eu 0.06896 0.2951 0.83188 0.0
Eu81 Eu 0.933 0.26446 0.81569 0.0
C82 C 0.03558 0.39842 0.83473 0.0
C83 C 0.22591 0.3641 0.86582 0.0
C84 C 0.27034 0.34976 0.87372 0.0
C85 C 0.27096 0.45154 0.89806 0.0
C86 C 0.31461 0.38577 0.89391 0.0
C87 C 0.2263 0.41512 0.87807 0.0
C88 C 0.31509 0.43676 0.90627 0.0
C89 C 0.18095 0.32696 0.84395 0.0
O90 O -0.02079 0.28451 0.76953 0.0
O91 O 0.07857 0.32964 0.78421 0.0
C92 C 0.03828 0.31436 0.76308 0.0
O93 O 0.03676 0.21765 0.8005 0.0
O94 O 0.86956 0.29872 0.81333 0.0
O95 O 0.83774 0.20373 0.80466 0.0
O96 O 0.93344 0.17908 0.80201 0.0
C97 C -0.01854 0.17652 0.79327 0.0
O98 O 0.01221 0.23478 0.87116 0.0
O99 O 0.92755 0.24353 0.86589 0.0
O100 O -0.00568 0.36714 0.81508 0.0
O101 O 0.1344 0.27565 0.85325 0.0
O102 O 0.16559 0.35697 0.8259 0.0
O103 O 0.05872 0.37167 0.8504 0.0
C104 C 0.79465 0.25075 0.77698 0.0
C105 C 0.82854 0.29109 0.75383 0.0
C106 C 0.70626 0.20375 0.74553 0.0
C107 C 0.802 0.28653 0.72647 0.0
C108 C 0.73278 0.20866 0.77302 0.0
C109 C 0.74137 0.24101 0.72166 0.0
C110 C 0.82486 0.24743 0.80386 0.0
C111 C 0.96025 0.22692 0.88196 0.0
H112 H 0.27076 0.31076 0.86428 0.0
H113 H 0.27016 0.49021 0.90765 0.0
H114 H 0.34844 0.37375 0.89998 0.0
H115 H 0.19213 0.42674 0.87219 0.0
H116 H 0.8765 0.32368 0.75633 0.0
H117 H 0.65955 0.16817 0.74236 0.0
H118 H 0.83057 0.31508 0.70838 0.0
H119 H 0.70593 0.17717 0.79066 0.0
Eu120 Eu 0.88122 0.07667 0.16818 0.0
Eu121 Eu 0.7747 0.94296 0.15019 0.0
C122 C 0.74022 0.04129 0.17702 0.0
C123 C -0.00152 0.23212 0.20153 0.0
C124 C 0.96309 0.25722 0.21101 0.0
C125 C 0.08401 0.30871 0.22868 0.0
C126 C -0.01156 0.30846 0.22896 0.0
C127 C 0.05883 0.25786 0.21059 0.0
C128 C 0.04921 0.33477 0.23777 0.0
C129 C -0.02468 0.18184 0.18071 0.0
O130 O 0.79351 -0.00331 1.1055 0.0
O131 O 0.87701 0.08779 1.11812 0.0
C132 C 0.83803 0.0527 1.09804 0.0
O133 O 0.91748 0.01339 0.15795 0.0
O134 O 0.68549 0.87705 1.13339 0.0
O135 O 0.74124 0.84562 0.15456 0.0
O136 O 0.85392 0.95859 1.12196 0.0
C137 C 0.90829 -0.01452 1.13275 0.0
O138 O 0.85138 0.03 0.21325 0.0
O139 O 0.81025 0.93307 0.19598 0.0
O140 O 0.72284 -0.01509 0.16963 0.0
O141 O -0.03179 0.12988 0.19014 0.0
O142 O 0.93233 0.17544 0.16312 0.0
O143 O 0.7978 0.08426 0.1772 0.0
C144 C 0.68301 0.7888 1.1153 0.0
C145 C 0.70741 0.81232 1.08726 0.0
C146 C 0.65932 0.68795 1.09976 0.0
C147 C 0.70842 0.77404 1.0657 0.0
C148 C 0.65795 0.72633 1.12132 0.0
C149 C 0.68516 0.71138 1.07175 0.0
C150 C 0.69243 0.83036 1.13942 0.0
C151 C 0.83248 0.97179 0.21818 0.0
H152 H 0.91629 0.23782 0.20426 0.0
H153 H 0.13108 0.32844 0.23506 0.0
H154 H 0.96057 0.32739 0.23605 0.0
H155 H 0.08682 0.23923 0.20322 0.0
H156 H 0.72848 0.86083 1.08248 0.0
H157 H 0.64231 0.64061 1.10547 0.0
H158 H 0.73083 0.79468 1.04488 0.0
H159 H 0.64004 0.70781 0.14313 0.0
Eu160 Eu 0.89439 0.89881 0.49979 0.0
Eu161 Eu 0.9579 0.81881 0.48462 0.0
C162 C 0.81849 0.75375 0.50555 0.0
C163 C 0.84424 0.01846 0.51767 0.0
C164 C 0.86162 0.0331 0.54704 0.0
C165 C 0.81186 0.09379 0.51634 0.0
C166 C 0.85238 0.07657 0.56127 0.0
C167 C 0.82105 0.05025 0.50216 0.0
C168 C 0.82573 0.10608 0.54631 0.0
C169 C 0.84376 0.96637 0.50357 0.0
O170 O 0.93124 0.83331 0.43787 0.0
O171 O 0.86544 0.86574 0.45226 0.0
C172 C 0.89073 0.84975 0.4311 0.0
O173 O -0.00509 0.95988 0.49215 0.0
O174 O 0.94923 0.72926 0.4812 0.0
O175 O 0.03896 0.81024 0.48009 0.0
O176 O 0.00911 0.90474 0.45749 0.0
C177 C 0.021 0.95756 0.4676 0.0
O178 O 0.94021 0.90863 0.54408 0.0
O179 O -0.01809 0.84854 0.53347 0.0
O180 O 0.85775 0.75165 0.48749 0.0
O181 O 0.88786 0.9777 0.48507 0.0
O182 O 0.82751 0.91761 0.5198 0.0
O183 O 0.82888 0.80489 0.51751 0.0
C184 C 0.02535 0.72454 0.4537 0.0
C185 C 0.07137 0.71034 0.45806 0.0
C186 C 0.01748 0.69323 0.40293 0.0
C187 C 0.09162 0.68917 0.43465 0.0
C188 C -0.00231 0.71476 0.4262 0.0
C189 C 0.06572 0.6816 0.40664 0.0
C190 C 0.00753 0.75088 0.47771 0.0
C191 C -0.02817 0.88269 0.55227 0.0
H192 H 0.87969 0.00902 0.55933 0.0
H193 H 0.79204 0.11631 0.50416 0.0
H194 H 0.86293 0.08443 0.58448 0.0
H195 H 0.80774 0.03959 0.47937 0.0
H196 H 0.0929 0.71743 0.47931 0.0
H197 H -0.0025 0.6896 0.38151 0.0
H198 H 0.12904 0.68116 0.43819 0.0
H199 H 0.96215 0.72568 0.42245 0.0
Eu200 Eu 0.10226 0.91938 0.8402 0.0
Eu201 Eu 0.2428 -0.01019 0.81792 0.0
C202 C 0.17524 0.84891 0.83988 0.0
C203 C 0.9567 0.79825 0.87379 0.0
C204 C -0.00859 0.78305 0.89213 0.0
C205 C 0.86456 0.71484 0.8952 0.0
C206 C 0.96285 0.73493 0.91246 0.0
C207 C 0.89327 0.76288 0.87475 0.0
C208 C 0.89913 0.70166 0.91485 0.0
C209 C -0.0128 0.84965 0.85304 0.0
O210 O 0.19663 0.96876 0.77255 0.0
O211 O 0.09756 0.91203 0.78918 0.0
C212 C 0.13764 0.93547 0.76705 0.0
O213 O 0.13207 0.01789 0.83385 0.0
O214 O 0.32327 -0.0105 0.80078 0.0
O215 O 0.33186 0.07168 0.82002 0.0
O216 O 0.2026 0.04376 0.7978 0.0
C217 C 0.15502 0.0448 0.80855 0.0
O218 O 0.14612 0.9622 0.88397 0.0
O219 O 0.24562 0.01034 0.86785 0.0
O220 O 0.21281 0.8886 0.82022 0.0
O221 O 0.02083 0.90339 0.86456 0.0
O222 O 0.01459 0.83983 0.83118 0.0
O223 O 0.14029 0.8617 0.85582 0.0
C224 C 0.40425 0.08398 0.78373 0.0
C225 C 0.39194 0.11885 0.76391 0.0
C226 C 0.50085 0.11679 0.75855 0.0
C227 C 0.43352 0.1521 0.74145 0.0
C228 C 0.45923 0.08381 0.78129 0.0
C229 C 0.48805 0.15078 0.73822 0.0
C230 C 0.3598 0.04692 0.80673 0.0
C231 C 0.2047 -0.00278 0.8892 0.0
H232 H 0.04058 0.80958 0.8913 0.0
H233 H 0.81537 0.69074 0.89694 0.0
H234 H -0.00952 0.72581 0.92737 0.0
H235 H 0.86601 0.77357 0.86036 0.0
H236 H 0.34954 0.11919 0.76535 0.0
H237 H 0.54212 0.1145 0.7564 0.0
H238 H 0.42132 0.17632 0.72565 0.0
H239 H 0.46932 0.05707 0.79657 0.0
C240 C 0.01585 0.01644 1.12501 0.0
C241 C 0.9612 0.00577 1.113 0.0
C242 C 0.07116 0.06251 1.11322 0.0
C243 C 0.07073 0.10094 1.09038 0.0
C244 C 0.01655 0.08278 1.07494 0.0
C245 C 0.96211 0.03329 1.08591 0.0
C246 C 0.12857 0.07567 1.12858 0.0
C247 C 0.01446 0.12052 1.04972 0.0
C248 C 0.17616 0.24635 1.12461 0.0
C249 C 0.23019 0.25306 1.11301 0.0
C250 C 0.12062 0.20381 1.1124 0.0
C251 C 0.12042 0.16571 1.08962 0.0
C252 C 0.17486 0.18313 1.0738 0.0
C253 C 0.22969 0.22955 1.0851 0.0
C254 C 0.0629 0.19154 1.12778 0.0
C255 C 0.17737 0.14642 1.04854 0.0
H256 H 0.01523 -0.00646 0.14546 0.0
H257 H 0.91973 0.02222 1.0756 0.0
H258 H 0.13659 0.10742 0.14697 0.0
H259 H 0.1239 0.03296 1.13809 0.0
H260 H 0.1685 0.09653 1.11334 0.0
H261 H -0.02776 0.09444 1.03697 0.0
H262 H 0.01597 0.16208 1.05843 0.0
H263 H 0.05428 0.13582 1.03474 0.0
H264 H 0.17657 0.26651 0.14571 0.0
H265 H 0.27212 0.23771 1.07531 0.0
H266 H 0.05019 0.1547 0.14451 0.0
H267 H 0.02501 0.17639 1.11206 0.0
H268 H 0.06933 0.23313 1.13908 0.0
H269 H 0.19446 0.11642 1.0566 0.0
H270 H 0.20944 0.17736 1.03122 0.0
H271 H 0.13225 0.11716 1.03874 0.0
C272 C 0.09472 0.06309 0.45178 0.0
C273 C 0.04087 0.00889 0.44696 0.0
C274 C 0.1037 0.11785 0.43937 0.0
C275 C 0.05587 0.11799 0.42344 0.0
C276 C 0.00613 0.06217 0.41468 0.0
C277 C -0.00097 0.008 0.42679 0.0
C278 C 0.16073 0.17596 0.44698 0.0
C279 C 0.95693 0.06003 0.39557 0.0
C280 C 0.10942 0.28229 0.42116 0.0
C281 C 0.09625 0.28638 0.4509 0.0
C282 C 0.08565 0.22476 0.40824 0.0
C283 C 0.04883 0.17238 0.42588 0.0
C284 C 0.02306 0.17859 0.45267 0.0
C285 C 0.04728 0.23647 0.46488 0.0
C286 C 0.10881 0.22037 0.37815 0.0
C287 C -0.02046 0.12407 0.47143 0.0
H288 H 0.12745 0.06346 0.46708 0.0
H289 H 0.95746 0.96623 0.42297 0.0
H290 H 0.17703 0.20872 0.42818 0.0
H291 H 0.15132 0.19737 0.46604 0.0
H292 H 0.19758 0.16664 0.45289 0.0
H293 H 0.92714 0.01353 0.38685 0.0
H294 H 0.9281 0.07314 0.40845 0.0
H295 H -0.02262 0.09312 0.37691 0.0
H296 H 0.14572 0.32186 0.40975 0.0
H297 H 0.03555 0.24082 0.48746 0.0
H298 H 0.08049 0.17461 0.36844 0.0
H299 H 0.1562 0.22964 0.37977 0.0
H300 H 0.10978 0.25562 0.36303 0.0
H301 H 0.96011 0.13726 0.49012 0.0
H302 H 0.00357 0.10138 0.48066 0.0
H303 H 0.94152 0.09037 0.458 0.0
C304 C 0.13317 0.07861 0.7605 0.0
C305 C 0.11233 0.04645 0.78716 0.0
C306 C 0.09211 0.07409 0.73874 0.0
C307 C 0.02779 0.03904 0.74447 0.0
C308 C 0.00882 -0.00345 0.76856 0.0
C309 C 0.05015 0.00421 0.79053 0.0
C310 C 0.11909 0.10419 0.70937 0.0
C311 C 0.94737 0.93925 0.77035 0.0
C312 C 0.92712 0.07411 0.76835 0.0
C313 C -0.02408 0.13445 0.7698 0.0
C314 C 0.92809 0.03649 0.74574 0.0
C315 C -0.01623 0.056 0.73029 0.0
C316 C 0.01109 0.11836 0.72271 0.0
C317 C 0.01545 0.15817 0.74509 0.0
C318 C 0.86949 -0.01538 0.7347 0.0
C319 C 0.01909 0.13939 0.69113 0.0
H320 H 0.18174 0.1064 0.75632 0.0
H321 H 0.03391 0.97338 0.80947 0.0
H322 H 0.08675 0.08142 0.69138 0.0
H323 H 0.13294 0.15328 0.71015 0.0
H324 H 0.16079 0.10202 0.7042 0.0
H325 H 0.91593 0.94719 0.78425 0.0
H326 H 0.92869 0.92387 0.74806 0.0
H327 H 0.95054 0.90129 0.78105 0.0
H328 H 0.88811 0.05811 0.78309 0.0
H329 H 0.04407 0.207 0.74183 0.0
H330 H 0.84221 0.9538 0.75325 0.0
H331 H 0.87755 0.95857 0.71737 0.0
H332 H 0.84215 0.00338 0.72508 0.0
H333 H 0.06364 0.18174 0.68788 0.0
H334 H -0.01667 0.15073 0.68588 0.0
H335 H 0.01444 0.10352 0.67571 0.0
C336 C 0.56702 0.55714 1.02183 0.0
C337 C 0.53925 0.55529 1.04901 0.0
C338 C 0.54243 0.56325 0.99545 0.0
C339 C 0.4887 0.56658 0.99663 0.0
C340 C 0.46902 0.5784 1.02372 0.0
C341 C 0.49447 0.57231 1.04986 0.0
C342 C 0.56706 0.55478 0.96661 0.0
C343 C 0.41402 0.58609 1.02555 0.0
C344 C 0.39514 0.53537 0.92739 0.0
C345 C 0.35905 0.47158 0.92925 0.0
C346 C 0.43811 0.56784 0.94912 0.0
C347 C 0.44335 0.53543 0.9734 0.0
C348 C 0.40571 0.47094 0.97553 0.0
C349 C 0.36435 0.43997 0.95332 0.0
C350 C 0.47693 0.63637 0.94604 0.0
C351 C 0.40927 0.43409 1.0011 0.0
H352 H 0.6036 0.54698 1.02092 0.0
H353 H 0.47329 0.57279 1.07062 0.0
H354 H 0.5381 0.50703 0.95923 0.0
H355 H 0.56642 0.58568 0.94931 0.0
H356 H 0.61409 0.56356 0.96889 0.0
H357 H 0.41342 0.60908 1.04623 0.0
H358 H 0.4128 0.61296 1.0064 0.0
H359 H 0.37225 0.5404 1.02525 0.0
H360 H 0.39054 0.55963 0.90869 0.0
H361 H 0.33554 0.3907 0.95485 0.0
H362 H 0.52264 0.65373 0.95559 0.0
H363 H 0.4543 0.65786 0.95793 0.0
H364 H 0.48246 0.65126 0.92254 0.0
H365 H 0.45517 0.43912 1.00172 0.0
H366 H 0.37531 0.38462 0.99961 0.0
H367 H 0.4014 0.4509 1.02228 0.0
C368 C 0.24291 0.62108 0.3373 0.0
C369 C 0.21034 0.6078 0.36408 0.0
C370 C 0.21428 0.58901 0.3118 0.0
C371 C 0.15194 0.54414 0.31333 0.0
C372 C 0.11695 0.53975 0.33858 0.0
C373 C 0.14672 0.57145 0.3639 0.0
C374 C 0.25215 0.59758 0.28447 0.0
C375 C 0.04957 0.49483 0.34036 0.0
C376 C 0.06962 0.4395 0.2496 0.0
C377 C 0.07642 0.38924 0.25651 0.0
C378 C 0.09538 0.49146 0.26728 0.0
C379 C 0.12771 0.49241 0.29268 0.0
C380 C 0.1351 0.44174 0.29955 0.0
C381 C 0.10952 0.39089 0.28127 0.0
C382 C 0.08627 0.54388 0.25868 0.0
C383 C 0.16897 0.44053 0.32656 0.0
H384 H 0.29184 0.65108 0.33708 0.0
H385 H 0.12071 0.56168 0.3843 0.0
H386 H 0.26404 0.56097 0.28373 0.0
H387 H 0.22625 0.59421 0.26431 0.0
H388 H 0.295 0.64244 0.28428 0.0
H389 H 0.02725 0.50552 0.35869 0.0
H390 H 0.02746 0.49461 0.31935 0.0
H391 H 0.04215 0.44819 0.3442 0.0
H392 H 0.04454 0.43847 0.23019 0.0
H393 H 0.11433 0.35173 0.2867 0.0
H394 H 0.11643 0.58628 0.27062 0.0
H395 H 0.03828 0.53077 0.26336 0.0
H396 H 0.09437 0.55335 0.2346 0.0
H397 H 0.21594 0.4802 0.32604 0.0
H398 H 0.17156 0.39807 0.32829 0.0
H399 H 0.14601 0.44407 0.34677 0.0
C400 C 0.70254 0.16381 0.68239 0.0
C401 C 0.72117 0.22365 0.69092 0.0
C402 C 0.70685 0.15059 0.65287 0.0
C403 C 0.72902 0.19821 0.63142 0.0
C404 C 0.7369 0.25576 0.63918 0.0
C405 C 0.73407 0.26835 0.66911 0.0
C406 C 0.69541 0.08764 0.64544 0.0
C407 C 0.75585 0.30632 0.61658 0.0
C408 C 0.84335 0.18241 0.58518 0.0
C409 C 0.80644 0.14384 0.56301 0.0
C410 C 0.82024 0.20659 0.60587 0.0
C411 C 0.75865 0.19178 0.60433 0.0
C412 C 0.72384 0.15967 0.57972 0.0
C413 C 0.74794 0.13545 0.55945 0.0
C414 C 0.86026 0.24238 0.63111 0.0
C415 C 0.65963 0.14638 0.5758 0.0
H416 H 0.69166 0.1288 0.6991 0.0
H417 H 0.74696 0.3144 0.67559 0.0
H418 H 0.66653 0.07021 0.62571 0.0
H419 H 0.73932 0.08998 0.64028 0.0
H420 H 0.67268 0.05441 0.66391 0.0
H421 H 0.73974 0.33806 0.62317 0.0
H422 H 0.80621 0.33299 0.61485 0.0
H423 H 0.73785 0.28787 0.59448 0.0
H424 H 0.88929 0.19068 0.58744 0.0
H425 H 0.71914 0.10631 0.54212 0.0
H426 H 0.84947 0.21156 0.65058 0.0
H427 H 0.85311 0.28044 0.63752 0.0
H428 H 0.90897 0.26204 0.62519 0.0
H429 H 0.62748 0.09985 0.58449 0.0
H430 H 0.64985 0.14736 0.55203 0.0
H431 H 0.65126 0.17971 0.58754 0.0
C432 C 0.70904 0.62901 1.05862 0.0
C433 C 0.6942 0.67327 1.04978 0.0
C434 C 0.73168 0.60382 1.03812 0.0
C435 C 0.74268 0.62597 1.0087 0.0
C436 C 0.72046 0.66446 0.99903 0.0
C437 C 0.69513 0.68634 1.01963 0.0
C438 C 0.74798 0.55732 1.04867 0.0
C439 C 0.72944 0.68829 0.9676 0.0
C440 C 0.88992 0.69084 0.96905 0.0
C441 C 0.86912 0.66423 0.94152 0.0
C442 C 0.85072 0.67136 0.99357 0.0
C443 C 0.78986 0.62357 0.99028 0.0
C444 C 0.77327 0.58844 0.96435 0.0
C445 C 0.81288 0.61007 0.9398 0.0
C446 C 0.87171 0.70857 1.02135 0.0
C447 C 0.71148 0.53254 0.96104 0.0
H448 H 0.70695 0.61669 1.08171 0.0
H449 H 0.67983 0.71719 1.01231 0.0
H450 H 0.7539 0.53223 1.03015 0.0
H451 H 0.79074 0.58045 1.06129 0.0
H452 H 0.71192 0.52386 1.06392 0.0
H453 H 0.70569 0.71431 0.96341 0.0
H454 H 0.77868 0.7189 0.96285 0.0
H455 H 0.71232 0.65011 0.95186 0.0
H456 H 0.93394 0.73202 0.97064 0.0
H457 H 0.79765 0.58787 0.91872 0.0
H458 H 0.8604 0.67813 1.04093 0.0
H459 H 0.84807 0.73514 1.02397 0.0
H460 H 0.92152 0.74107 1.021 0.0
H461 H 0.6848 0.51818 0.98203 0.0
H462 H 0.71692 0.4942 0.953 0.0
H463 H 0.68571 0.54144 0.94401 0.0
C464 C 0.0599 0.64159 0.356 0.0
C465 C 0.09546 0.67407 0.38003 0.0
C466 C 0.08262 0.6592 0.32716 0.0
C467 C 0.14189 0.70965 0.32284 0.0
C468 C 0.18206 0.73111 0.34686 0.0
C469 C 0.15805 0.71359 0.37553 0.0
C470 C 0.03916 0.63206 0.30199 0.0
C471 C 0.24738 0.78085 0.34275 0.0
C472 C 0.19462 0.79882 0.25001 0.0
C473 C 0.16944 0.83667 0.25283 0.0
C474 C 0.18592 0.75628 0.27237 0.0
C475 C 0.15236 0.75289 0.29819 0.0
C476 C 0.12817 0.79246 0.30116 0.0
C477 C 0.13648 0.83315 0.2783 0.0
C478 C 0.21314 0.71603 0.26781 0.0
C479 C 0.09392 0.79283 0.32861 0.0
H480 H 0.01207 0.60856 0.35949 0.0
H481 H 0.18665 0.73734 0.39403 0.0
H482 H 0.00896 0.65195 0.30145 0.0
H483 H 0.06333 0.64149 0.2804 0.0
H484 H 0.00979 0.58196 0.30531 0.0
H485 H 0.27499 0.78401 0.36222 0.0
H486 H 0.26776 0.77247 0.32286 0.0
H487 H 0.2494 0.82539 0.33964 0.0
H488 H 0.2206 0.8021 0.23028 0.0
H489 H 0.11827 0.86359 0.28061 0.0
H490 H 0.20401 0.68405 0.28647 0.0
H491 H 0.26312 0.74493 0.26457 0.0
H492 H 0.19489 0.68939 0.24736 0.0
H493 H 0.08366 0.83064 0.32827 0.0
H494 H 0.12066 0.79761 0.34861 0.0
H495 H 0.05015 0.74921 0.33062 0.0
C496 C 0.5319 0.23121 0.69909 0.0
C497 C 0.52492 0.17673 0.71091 0.0
C498 C 0.53497 0.24039 0.66851 0.0
C499 C 0.53235 0.19442 0.64996 0.0
C500 C 0.54155 0.14817 0.66215 0.0
C501 C 0.53687 0.13911 0.69283 0.0
C502 C 0.52983 0.29323 0.65633 0.0
C503 C 0.54548 0.10211 0.64285 0.0
C504 C 0.39974 0.1427 0.59916 0.0
C505 C 0.42718 0.18023 0.57441 0.0
C506 C 0.43434 0.14391 0.62314 0.0
C507 C 0.49857 0.18267 0.622 0.0
C508 C 0.52706 0.21622 0.59582 0.0
C509 C 0.49085 0.21519 0.57239 0.0
C510 C 0.40104 0.10785 0.65067 0.0
C511 C 0.59511 0.25633 0.59281 0.0
H512 H 0.52595 0.26206 0.71338 0.0
H513 H 0.53418 0.09809 0.70195 0.0
H514 H 0.56315 0.31613 0.63804 0.0
H515 H 0.48361 0.2761 0.6474 0.0
H516 H 0.53789 0.32758 0.67344 0.0
H517 H 0.57172 0.08338 0.6537 0.0
H518 H 0.49909 0.06346 0.63882 0.0
H519 H 0.56688 0.12286 0.62124 0.0
H520 H 0.35053 0.1161 0.60086 0.0
H521 H 0.51224 0.24376 0.55302 0.0
H522 H 0.4107 0.13922 0.6694 0.0
H523 H 0.41657 0.07547 0.65672 0.0
H524 H 0.35097 0.08116 0.64786 0.0
H525 H 0.60724 0.30501 0.59273 0.0
H526 H 0.61082 0.24813 0.57128 0.0
H527 H 0.61989 0.24858 0.61075 0.0
C528 C 0.51464 0.16225 0.15567 0.0
C529 C 0.47179 0.15212 0.17799 0.0
C530 C 0.55698 0.14272 0.15889 0.0
C531 C 0.55757 0.11305 0.18536 0.0
C532 C 0.51472 0.10288 0.20816 0.0
C533 C 0.47178 0.12196 0.20408 0.0
C534 C 0.60076 0.15334 1.13369 0.0
C535 C 0.51458 0.07228 0.23687 0.0
C536 C 0.63153 0.01596 0.17606 0.0
C537 C 0.69223 0.05713 0.18328 0.0
C538 C 0.58649 0.0324 0.1782 0.0
C539 C 0.60204 0.0912 0.18826 0.0
C540 C 0.66232 0.13163 0.19735 0.0
C541 C 0.70684 0.11436 0.19451 0.0
C542 C 0.52317 -0.01183 0.16779 0.0
C543 C 0.68053 0.19432 0.20872 0.0
H544 H 0.51469 0.185 1.1353 0.0
H545 H 0.43901 0.11426 0.22146 0.0
H546 H 0.64829 0.1818 1.14111 0.0
H547 H 0.59521 0.10909 1.12639 0.0
H548 H 0.59384 0.17645 1.11443 0.0
H549 H 0.47946 0.06914 0.2527 0.0
H550 H 0.50611 0.02553 0.2327 0.0
H551 H 0.55984 0.09807 0.24721 0.0
H552 H 0.61947 0.97157 0.16738 0.0
H553 H 0.75337 0.14632 0.20043 0.0
H554 H 0.51444 0.00606 0.1471 0.0
H555 H 0.48863 -0.01656 0.18435 0.0
H556 H 0.51677 0.94218 0.16345 0.0
H557 H 0.68137 0.22375 0.19025 0.0
H558 H 0.72621 0.21663 0.21884 0.0
H559 H 0.64683 0.1915 0.22533 0.0
C560 C 0.48061 0.46115 0.52042 0.0
C561 C 0.44368 0.486 0.5138 0.0
C562 C 0.54392 0.49901 0.52261 0.0
C563 C 0.57053 0.5625 0.51686 0.0
C564 C 0.53312 0.58761 0.51041 0.0
C565 C 0.47011 0.54915 0.50946 0.0
C566 C 0.58226 0.47105 0.53058 0.0
C567 C 0.55972 0.65483 0.50336 0.0
C568 C 0.72756 0.6879 0.53715 0.0
C569 C 0.75856 0.6988 0.51009 0.0
C570 C 0.66759 0.63949 0.54055 0.0
C571 C 0.63751 0.6031 0.51593 0.0
C572 C 0.66973 0.61229 0.48895 0.0
C573 C 0.73036 0.65954 0.48653 0.0
C574 C 0.6354 0.62951 0.56997 0.0
C575 C 0.63885 0.57569 0.46192 0.0
H576 H 0.46004 0.41228 0.52391 0.0
H577 H 0.44164 0.56835 0.50401 0.0
H578 H 0.6102 0.47306 0.5112 0.0
H579 H 0.61404 0.49731 0.54844 0.0
H580 H 0.55408 0.42258 0.53789 0.0
H581 H 0.52421 0.66672 0.49832 0.0
H582 H 0.58644 0.68263 0.52223 0.0
H583 H 0.59125 0.66798 0.48407 0.0
H584 H 0.74985 0.71791 0.55549 0.0
H585 H 0.75442 0.66823 0.46556 0.0
H586 H 0.60874 0.58006 0.57563 0.0
H587 H 0.60305 0.64674 0.56878 0.0
H588 H 0.6678 0.65368 0.58798 0.0
H589 H 0.61425 0.5261 0.4672 0.0
H590 H 0.6716 0.58466 0.44352 0.0
H591 H 0.60471 0.5876 0.45426 0.0
C592 C 0.11071 0.50169 0.85452 0.0
C593 C 0.05961 0.4653 0.83733 0.0
C594 C 0.1354 0.56538 0.85594 0.0
C595 C 0.10808 0.59348 0.84002 0.0
C596 C 0.05629 0.55692 0.82278 0.0
C597 C 0.03289 0.49351 0.82157 0.0
C598 C 0.19074 0.60261 0.87448 0.0
C599 C 0.02531 0.5848 0.80568 0.0
C600 C 0.12559 0.74516 0.8638 0.0
C601 C 0.16579 0.78595 0.84217 0.0
C602 C 0.1082 0.68303 0.86395 0.0
C603 C 0.13188 0.66069 0.84209 0.0
C604 C 0.17493 0.70207 0.82111 0.0
C605 C 0.19129 0.76419 0.82135 0.0
C606 C 0.06213 0.64078 0.88671 0.0
C607 C 0.20172 0.68023 0.79761 0.0
H608 H 0.13192 0.48053 0.86669 0.0
H609 H -0.00654 0.46598 0.80821 0.0
H610 H 0.17958 0.62535 0.8923 0.0
H611 H 0.20798 0.57426 0.88466 0.0
H612 H 0.22767 0.63912 0.86077 0.0
H613 H -0.0141 0.55025 0.79308 0.0
H614 H 0.00912 0.60776 0.82101 0.0
H615 H 0.05814 0.62013 0.79001 0.0
H616 H 0.10586 0.76129 0.88019 0.0
H617 H 0.22231 0.79515 0.80455 0.0
H618 H 0.07928 0.61381 0.89829 0.0
H619 H 0.01949 0.60792 0.87563 0.0
H620 H 0.05113 0.66591 0.90337 0.0
H621 H 0.21997 0.65277 0.80769 0.0
H622 H 0.23872 0.7187 0.78475 0.0
H623 H 0.1656 0.65016 0.78217 0.0
C624 C 0.27214 0.26335 0.26003 0.0
C625 C 0.32978 0.28053 0.24755 0.0
C626 C 0.26505 0.28256 0.28854 0.0
C627 C 0.31659 0.31937 0.30612 0.0
C628 C 0.37495 0.33739 0.29356 0.0
C629 C 0.38081 0.31851 0.26469 0.0
C630 C 0.20177 0.26257 0.30002 0.0
C631 C 0.43161 0.37568 0.311 0.0
C632 C 0.30162 0.40297 0.37536 0.0
C633 C 0.29313 0.36222 0.39875 0.0
C634 C 0.30912 0.38999 0.34543 0.0
C635 C 0.30916 0.33519 0.33812 0.0
C636 C 0.30121 0.2945 0.36176 0.0
C637 C 0.29314 0.30817 0.39121 0.0
C638 C 0.316 0.43468 0.32145 0.0
C639 C 0.30096 0.23574 0.35598 0.0
H640 H 0.23194 0.23458 0.24739 0.0
H641 H 0.42571 0.33247 0.2558 0.0
H642 H 0.19083 0.23088 0.31912 0.0
H643 H 0.19912 0.30257 0.30794 0.0
H644 H 0.1667 0.23912 0.28297 0.0
H645 H 0.43309 0.41816 0.31826 0.0
H646 H 0.43084 0.35017 0.33117 0.0
H647 H 0.47374 0.38819 0.2981 0.0
H648 H 0.30118 0.44456 0.38033 0.0
H649 H 0.28701 0.27589 0.40861 0.0
H650 H 0.2775 0.41228 0.30601 0.0
H651 H 0.35835 0.44899 0.30845 0.0
H652 H 0.31721 0.47601 0.33039 0.0
H653 H 0.26264 0.20634 0.34143 0.0
H654 H 0.29647 0.20972 0.37661 0.0
H655 H 0.3436 0.24563 0.34433 0.0
C656 C 0.1631 0.40674 0.59097 0.0
C657 C 0.19197 0.37449 0.58156 0.0
C658 C 0.1374 0.39882 0.6199 0.0
C659 C 0.13959 0.35718 0.64051 0.0
C660 C 0.16877 0.32459 0.63107 0.0
C661 C 0.1941 0.3335 0.60213 0.0
C662 C 0.10773 0.43533 0.62847 0.0
C663 C 0.17213 0.2783 0.65093 0.0
C664 C 0.12299 0.37229 0.72481 0.0
C665 C 0.0618 0.32826 0.73122 0.0
C666 C 0.14805 0.38288 0.69574 0.0
C667 C 0.11205 0.34818 0.67174 0.0
C668 C 0.05034 0.3035 0.67801 0.0
C669 C 0.02587 0.29468 0.70727 0.0
C670 C 0.21408 0.43028 0.69084 0.0
C671 C 0.01069 0.26331 0.6538 0.0
H672 H 0.16058 0.43848 0.57569 0.0
H673 H 0.21527 0.30734 0.59556 0.0
H674 H 0.05924 0.40399 0.63446 0.0
H675 H 0.13008 0.46286 0.64822 0.0
H676 H 0.11021 0.46649 0.61043 0.0
H677 H 0.21415 0.27643 0.6463 0.0
H678 H 0.17083 0.28778 0.67469 0.0
H679 H 0.13284 0.23248 0.64636 0.0
H680 H 0.15195 0.39856 0.74275 0.0
H681 H -0.02093 0.2596 0.71155 0.0
H682 H 0.21852 0.46328 0.67336 0.0
H683 H 0.23941 0.40771 0.6831 0.0
H684 H 0.23562 0.45582 0.71121 0.0
H685 H 0.0108 0.29186 0.6351 0.0
H686 H 0.96318 0.23232 0.6615 0.0
H687 H 0.02967 0.23528 0.64522 0.0
C688 C 0.88786 0.19654 0.92751 0.0
C689 C 0.93865 0.19901 0.91313 0.0
C690 C 0.86866 0.1717 0.95671 0.0
C691 C 0.89995 0.14736 0.97276 0.0
C692 C 0.95052 0.14876 0.95802 0.0
C693 C -0.03078 0.17462 0.92907 0.0
C694 C 0.81473 0.17206 0.97059 0.0
C695 C -0.01344 0.12419 0.97297 0.0
C696 C 0.89084 0.13869 1.05906 0.0
C697 C 0.84941 0.07651 1.0658 0.0
C698 C 0.90678 0.16183 1.02951 0.0
C699 C 0.88129 0.12271 1.00493 0.0
C700 C 0.83863 0.06001 1.01151 0.0
C701 C 0.82331 0.03798 1.0414 0.0
C702 C 0.95289 0.22849 1.02465 0.0
C703 C 0.80984 0.01548 0.98678 0.0
H704 H 0.86315 0.21481 0.91604 0.0
H705 H 0.00839 0.17558 0.91884 0.0
H706 H 0.77973 0.12495 0.97735 0.0
H707 H 0.82899 0.19999 0.99082 0.0
H708 H 0.79384 0.19073 0.9554 0.0
H709 H 0.01687 0.15801 0.98922 0.0
H710 H 0.95611 0.08061 0.98481 0.0
H711 H 0.01537 0.11632 0.95707 0.0
H712 H 0.91221 0.16978 1.07712 0.0
H713 H 0.79179 -0.0101 1.0456 0.0
H714 H 0.93395 0.25017 1.01015 0.0
H715 H -0.00622 0.23288 1.01329 0.0
H716 H 0.96712 0.25393 1.04565 0.0
H717 H 0.78661 0.03159 0.97165 0.0
H718 H 0.77635 0.96886 0.99498 0.0
H719 H 0.84564 0.013 0.9737 0.0
C720 C 0.87536 -0.00695 0.27058 0.0
C721 C 0.83969 0.95052 0.24898 0.0
C722 C 0.88416 0.97489 0.29911 0.0
C723 C 0.85571 0.91198 0.30752 0.0
C724 C 0.81939 0.86872 0.28584 0.0
C725 C 0.81237 0.88818 0.25715 0.0
C726 C 0.9237 0.02388 0.32043 0.0
C727 C 0.78715 0.80132 0.29307 0.0
C728 C 0.91676 0.86258 0.37523 0.0
C729 C 0.87829 0.85889 0.39882 0.0
C730 C 0.90981 0.87898 0.34583 0.0
C731 C 0.86269 0.89188 0.33892 0.0
C732 C 0.82308 0.88698 0.36255 0.0
C733 C 0.83147 0.87124 0.39172 0.0
C734 C 0.95452 0.88449 0.32222 0.0
C735 C 0.77205 0.89973 0.35717 0.0
H736 H 0.89733 0.04133 0.26511 0.0
H737 H 0.78468 0.85418 0.24115 0.0
H738 H 0.89422 0.0287 0.33709 0.0
H739 H 0.95416 0.01148 0.33216 0.0
H740 H 0.952 0.06891 0.30925 0.0
H741 H 0.82069 0.78767 0.29949 0.0
H742 H 0.75581 0.79121 0.31221 0.0
H743 H 0.76063 0.77304 0.27421 0.0
H744 H 0.95396 0.85464 0.37989 0.0
H745 H 0.80141 0.86958 0.40927 0.0
H746 H -0.01959 0.93243 0.31396 0.0
H747 H 0.93001 0.85548 0.30322 0.0
H748 H -0.01277 0.87102 0.3304 0.0
H749 H 0.79123 0.94852 0.35091 0.0
H750 H 0.74214 0.88962 0.37693 0.0
H751 H 0.74398 0.87206 0.33855 0.0
C752 C 0.0263 0.86078 0.59434 0.0
C753 C -0.00326 0.89167 0.58379 0.0
C754 C 0.04896 0.86814 0.62365 0.0
C755 C 0.04318 0.90798 0.64381 0.0
C756 C 0.01306 0.93907 0.63331 0.0
C757 C -0.0092 0.9308 0.6039 0.0
C758 C 0.07867 0.83225 0.63321 0.0
C759 C 0.00499 -0.01713 0.65255 0.0
C760 C 0.053 0.88631 0.72868 0.0
C761 C 0.11427 0.92814 0.73532 0.0
C762 C 0.02977 0.87955 0.69957 0.0
C763 C 0.06769 0.91591 0.6756 0.0
C764 C 0.12912 0.95955 0.68231 0.0
C765 C 0.15154 0.96463 0.71159 0.0
C766 C 0.96383 0.83357 0.6945 0.0
C767 C 0.17111 0.00226 0.65854 0.0
H768 H 0.0315 0.83009 0.57966 0.0
H769 H -0.03138 0.95558 0.59668 0.0
H770 H 0.12623 0.86395 0.63976 0.0
H771 H 0.05423 0.80351 0.65284 0.0
H772 H 0.07904 0.80229 0.61553 0.0
H773 H 0.04135 0.03002 0.64676 0.0
H774 H 0.96074 -0.0199 0.64828 0.0
H775 H 0.00745 0.97478 0.67644 0.0
H776 H 0.02267 0.85824 0.74641 0.0
H777 H 0.1984 -0.00163 0.71596 0.0
H778 H 0.96008 0.80132 0.67707 0.0
H779 H 0.93997 0.85748 0.68661 0.0
H780 H 0.94032 0.80706 0.71483 0.0
H781 H 0.21725 0.0342 0.6669 0.0
H782 H 0.1516 0.02934 0.64928 0.0
H783 H 0.17529 0.97569 0.64024 0.0
C784 C 0.28627 0.04708 0.92913 0.0
C785 C 0.22576 0.02405 0.91996 0.0
C786 C 0.30636 0.07258 0.95764 0.0
C787 C 0.26605 0.07756 0.97804 0.0
C788 C 0.20497 0.0546 0.96872 0.0
C789 C 0.18583 0.02819 0.94036 0.0
C790 C 0.37097 0.09329 0.96615 0.0
C791 C 0.15946 0.05942 0.98829 0.0
C792 C 0.29543 0.09093 1.06276 0.0
C793 C 0.32404 0.15429 1.06819 0.0
C794 C 0.27802 0.06616 1.034 0.0
C795 C 0.28715 0.10463 1.00911 0.0
C796 C 0.3164 0.16875 1.01431 0.0
C797 C 0.33534 0.19259 1.04327 0.0
C798 C 0.24899 -0.00198 1.03036 0.0
C799 C 0.32556 0.21238 0.98935 0.0
H800 H 0.31817 0.0444 0.91407 0.0
H801 H 0.13925 0.01168 0.93393 0.0
H802 H 0.37117 0.06902 0.98661 0.0
H803 H 0.39643 0.08479 0.94855 0.0
H804 H 0.39532 0.14282 0.97092 0.0
H805 H 0.11211 0.03052 0.98059 0.0
H806 H 0.16193 0.04599 1.01133 0.0
H807 H 0.17012 0.10762 0.9881 0.0
H808 H 0.2862 0.05995 1.08125 0.0
H809 H 0.357 0.24142 1.04653 0.0
H810 H 0.27351 -0.01214 1.01296 0.0
H811 H 0.20132 0.97886 1.02317 0.0
H812 H 0.24888 0.97439 1.05113 0.0
H813 H 0.3477 0.26057 0.99665 0.0
H814 H 0.28091 0.19991 0.97969 0.0
H815 H 0.35387 0.20883 0.97159 0.0
loop_
_geom_bond_atom_site_label_1
_geom_bond_atom_site_label_2
_geom_bond_distance
_geom_bond_site_symmetry_2
_ccdc_geom_bond_type
Eu0 C9 2.828 . S
Eu0 O11 2.392 1_554 S
Eu0 O13 2.418 . S
Eu0 O18 2.373 . S
Eu0 O21 2.488 . S
Eu0 O22 2.471 . S
Eu0 O23 2.349 . S
Eu1 O10 2.373 . S
Eu1 O14 2.488 . S
Eu1 O15 2.471 . S
Eu1 O16 2.338 1_556 S
Eu1 O19 2.392 1_556 S
Eu1 O20 2.418 . S
Eu1 C30 2.828 . S
C2 O20 1.244 1_554 S
C2 O23 1.265 . S
C3 C4 1.379 . S
C3 C7 1.373 . S
C3 C9 1.505 . S
C4 C3 1.379 . S
C4 C6 1.369 . S
C4 H32 0.930 . S
C5 C7 1.383 . S
C5 C8 1.382 . S
C5 H33 0.930 . S
C6 C4 1.369 . S
C6 C8 1.392 . S
C6 H34 0.930 . S
C7 C3 1.373 . S
C7 C5 1.383 . S
C7 H35 0.931 . S
C8 C5 1.382 . S
C8 C6 1.392 . S
C9 Eu0 2.828 . S
C9 C3 1.505 . S
C9 O21 1.249 . S
C9 O22 1.244 . S
O10 Eu1 2.373 . S
O10 C12 1.258 . S
O11 Eu0 2.392 1_556 S
O11 C12 1.242 . S
C12 O10 1.258 . S
C12 O11 1.242 . S
O13 Eu0 2.418 . S
O13 C17 1.244 . S
O14 Eu1 2.488 . S
O14 C30 1.249 . S
O15 Eu1 2.471 . S
O15 C30 1.244 . S
O16 Eu1 2.338 1_554 S
O16 C17 1.281 . S
C17 O13 1.244 . S
C17 O16 1.281 . S
O18 Eu0 2.373 . S
O18 C31 1.258 . S
O19 Eu1 2.392 1_554 S
O19 C31 1.242 . S
O20 Eu1 2.418 . S
O20 C2 1.244 1_556 S
O21 Eu0 2.488 . S
O21 C9 1.249 . S
O22 Eu0 2.471 . S
O22 C9 1.244 . S
O23 Eu0 2.349 . S
O23 C2 1.265 . S
C24 C25 1.379 . S
C24 C28 1.373 . S
C24 C30 1.505 . S
C25 C24 1.379 . S
C25 C27 1.369 . S
C25 H36 0.930 . S
C26 C28 1.383 . S
C26 C29 1.382 . S
C26 H37 0.930 . S
C27 C25 1.369 . S
C27 C29 1.392 . S
C27 H38 0.930 . S
C28 C24 1.373 . S
C28 C26 1.383 . S
C28 H39 0.931 . S
C29 C26 1.382 . S
C29 C27 1.392 . S
C30 Eu1 2.828 . S
C30 O14 1.249 . S
C30 O15 1.244 . S
C30 C24 1.505 . S
C31 O18 1.258 . S
C31 O19 1.242 . S
H32 C4 0.930 . S
H33 C5 0.930 . S
H34 C6 0.930 . S
H35 C7 0.931 . S
H36 C25 0.930 . S
H37 C26 0.930 . S
H38 C27 0.930 . S
H39 C28 0.931 . S
Eu40 C49 2.828 . S
Eu40 O51 2.392 . S
Eu40 O53 2.418 . S
Eu40 O58 2.373 . S
Eu40 O61 2.488 . S
Eu40 O62 2.471 . S
Eu40 O63 2.349 . S
Eu41 O50 2.373 . S
Eu41 O54 2.488 . S
Eu41 O55 2.471 . S
Eu41 O56 2.349 . S
Eu41 O59 2.392 . S
Eu41 O60 2.418 . S
Eu41 C70 2.828 . S
C42 O60 1.244 . S
C42 O63 1.265 . S
C43 C44 1.379 . S
C43 C47 1.373 . S
C43 C49 1.505 . S
C44 C43 1.379 . S
C44 C46 1.369 . S
C44 H72 0.930 . S
C45 C47 1.383 . S
C45 C48 1.382 . S
C45 H73 0.930 . S
C46 C44 1.369 . S
C46 C48 1.392 . S
C46 H74 0.930 . S
C47 C43 1.373 . S
C47 C45 1.383 . S
C47 H75 0.931 . S
C48 C45 1.382 . S
C48 C46 1.392 . S
C49 Eu40 2.828 . S
C49 C43 1.505 . S
C49 O61 1.249 . S
C49 O62 1.244 . S
O50 Eu41 2.373 . S
O50 C52 1.258 . S
O51 Eu40 2.392 . S
O51 C52 1.242 . S
C52 O50 1.258 . S
C52 O51 1.242 . S
O53 Eu40 2.418 . S
O53 C57 1.244 . S
O54 Eu41 2.488 . S
O54 C70 1.249 . S
O55 Eu41 2.471 . S
O55 C70 1.244 . S
O56 Eu41 2.349 . S
O56 C57 1.265 . S
C57 O53 1.244 . S
C57 O56 1.265 . S
O58 Eu40 2.373 . S
O58 C71 1.258 . S
O59 Eu41 2.392 . S
O59 C71 1.242 . S
O60 Eu41 2.418 . S
O60 C42 1.244 . S
O61 Eu40 2.488 . S
O61 C49 1.249 . S
O62 Eu40 2.471 . S
O62 C49 1.244 . S
O63 Eu40 2.349 . S
O63 C42 1.265 . S
C64 C65 1.379 . S
C64 C68 1.373 . S
C64 C70 1.505 . S
C65 C64 1.379 . S
C65 C67 1.369 . S
C65 H76 0.930 . S
C66 C68 1.383 . S
C66 C69 1.382 . S
C66 H77 0.930 . S
C67 C65 1.369 . S
C67 C69 1.392 . S
C67 H78 0.930 . S
C68 C64 1.373 . S
C68 C66 1.383 . S
C68 H79 0.931 . S
C69 C66 1.382 . S
C69 C67 1.392 . S
C70 Eu41 2.828 . S
C70 O54 1.249 . S
C70 O55 1.244 . S
C70 C64 1.505 . S
C71 O58 1.258 . S
C71 O59 1.242 . S
H72 C44 0.930 . S
H73 C45 0.930 . S
H74 C46 0.930 . S
H75 C47 0.931 . S
H76 C65 0.930 . S
H77 C66 0.930 . S
H78 C67 0.930 . S
H79 C68 0.931 . S
Eu80 C89 2.828 . S
Eu80 O91 2.392 . S
Eu80 O93 2.418 . S
Eu80 O98 2.373 . S
Eu80 O101 2.488 . S
Eu80 O102 2.471 . S
Eu80 O103 2.349 . S
Eu81 O90 2.373 1_655 S
Eu81 O94 2.488 . S
Eu81 O95 2.471 . S
Eu81 O96 2.349 . S
Eu81 O99 2.392 . S
Eu81 O100 2.418 . S
Eu81 C110 2.828 . S
C82 O100 1.244 . S
C82 O103 1.265 1_655 S
C83 C84 1.379 . S
C83 C87 1.373 . S
C83 C89 1.505 . S
C84 C83 1.379 . S
C84 C86 1.369 . S
C84 H112 0.930 . S
C85 C87 1.383 . S
C85 C88 1.382 . S
C85 H113 0.930 . S
C86 C84 1.369 . S
C86 C88 1.392 . S
C86 H114 0.930 . S
C87 C83 1.373 . S
C87 C85 1.383 . S
C87 H115 0.931 . S
C88 C85 1.382 . S
C88 C86 1.392 . S
C89 Eu80 2.828 . S
C89 C83 1.505 . S
C89 O101 1.249 . S
C89 O102 1.244 . S
O90 Eu81 2.373 1_455 S
O90 C92 1.258 . S
O91 Eu80 2.392 . S
O91 C92 1.242 . S
C92 O90 1.258 . S
C92 O91 1.242 . S
O93 Eu80 2.418 . S
O93 C97 1.244 . S
O94 Eu81 2.488 . S
O94 C110 1.249 . S
O95 Eu81 2.471 . S
O95 C110 1.244 . S
O96 Eu81 2.349 . S
O96 C97 1.265 1_655 S
C97 O93 1.244 . S
C97 O96 1.265 1_455 S
O98 Eu80 2.373 . S
O98 C111 1.258 1_455 S
O99 Eu81 2.392 . S
O99 C111 1.242 . S
O100 Eu81 2.418 . S
O100 C82 1.244 . S
O101 Eu80 2.488 . S
O101 C89 1.249 . S
O102 Eu80 2.471 . S
O102 C89 1.244 . S
O103 Eu80 2.349 . S
O103 C82 1.265 1_455 S
C104 C105 1.379 . S
C104 C108 1.373 . S
C104 C110 1.505 . S
C105 C104 1.379 . S
C105 C107 1.369 . S
C105 H116 0.930 . S
C106 C108 1.383 . S
C106 C109 1.382 . S
C106 H117 0.930 . S
C107 C105 1.369 . S
C107 C109 1.392 . S
C107 H118 0.930 . S
C108 C104 1.373 . S
C108 C106 1.383 . S
C108 H119 0.931 . S
C109 C106 1.382 . S
C109 C107 1.392 . S
C110 Eu81 2.828 . S
C110 O94 1.249 . S
C110 O95 1.244 . S
C110 C104 1.505 . S
C111 O98 1.258 1_655 S
C111 O99 1.242 . S
H112 C84 0.930 . S
H113 C85 0.930 . S
H114 C86 0.930 . S
H115 C87 0.931 . S
H116 C105 0.930 . S
H117 C106 0.930 . S
H118 C107 0.930 . S
H119 C108 0.931 . S
Eu120 C129 2.828 . S
Eu120 O131 2.392 1_554 S
Eu120 O133 2.418 . S
Eu120 O138 2.373 . S
Eu120 O141 2.488 . S
Eu120 O142 2.471 . S
Eu120 O143 2.349 . S
Eu121 O130 2.373 1_565 S
Eu121 O134 2.488 . S
Eu121 O135 2.471 . S
Eu121 O136 2.339 1_566 S
Eu121 O139 2.392 1_556 S
Eu121 O140 2.418 . S
Eu121 C150 2.828 . S
C122 O140 1.244 1_554 S
C122 O143 1.265 1_565 S
C123 C124 1.379 . S
C123 C127 1.373 . S
C123 C129 1.505 . S
C124 C123 1.379 . S
C124 C126 1.369 . S
C124 H152 0.930 . S
C125 C127 1.383 . S
C125 C128 1.382 . S
C125 H153 0.930 . S
C126 C124 1.369 . S
C126 C128 1.392 . S
C126 H154 0.930 . S
C127 C123 1.373 . S
C127 C125 1.383 . S
C127 H155 0.931 . S
C128 C125 1.382 . S
C128 C126 1.392 . S
C129 Eu120 2.828 . S
C129 C123 1.505 . S
C129 O141 1.249 . S
C129 O142 1.244 . S
O130 Eu121 2.373 1_545 S
O130 C132 1.258 . S
O131 Eu120 2.392 1_556 S
O131 C132 1.242 . S
C132 O130 1.258 . S
C132 O131 1.242 . S
O133 Eu120 2.418 . S
O133 C137 1.244 . S
O134 Eu121 2.488 . S
O134 C150 1.249 . S
O135 Eu121 2.471 . S
O135 C150 1.244 . S
O136 Eu121 2.339 1_544 S
O136 C137 1.281 . S
C137 O133 1.244 . S
C137 O136 1.281 . S
O138 Eu120 2.373 . S
O138 C151 1.258 1_545 S
O139 Eu121 2.392 1_554 S
O139 C151 1.242 . S
O140 Eu121 2.418 . S
O140 C122 1.244 1_556 S
O141 Eu120 2.488 . S
O141 C129 1.249 . S
O142 Eu120 2.471 . S
O142 C129 1.244 . S
O143 Eu120 2.349 . S
O143 C122 1.265 1_545 S
C144 C145 1.379 . S
C144 C148 1.373 . S
C144 C150 1.505 . S
C145 C144 1.379 . S
C145 C147 1.369 . S
C145 H156 0.930 . S
C146 C148 1.383 . S
C146 C149 1.382 . S
C146 H157 0.930 . S
C147 C145 1.369 . S
C147 C149 1.392 . S
C147 H158 0.930 . S
C148 C144 1.373 . S
C148 C146 1.383 . S
C148 H159 0.931 . S
C149 C146 1.382 . S
C149 C147 1.392 . S
C150 Eu121 2.828 . S
C150 O134 1.249 . S
C150 O135 1.244 . S
C150 C144 1.505 . S
C151 O138 1.258 1_565 S
C151 O139 1.242 . S
H152 C124 0.930 . S
H153 C125 0.930 . S
H154 C126 0.930 . S
H155 C127 0.931 . S
H156 C145 0.930 . S
H157 C146 0.930 . S
H158 C147 0.930 . S
H159 C148 0.931 . S
Eu160 C169 2.828 . S
Eu160 O171 2.392 . S
Eu160 O173 2.418 1_655 S
Eu160 O178 2.373 . S
Eu160 O181 2.488 . S
Eu160 O182 2.471 . S
Eu160 O183 2.349 . S
Eu161 O170 2.373 1_455 S
Eu161 O174 2.488 . S
Eu161 O175 2.471 . S
Eu161 O176 2.349 . S
Eu161 O179 2.392 . S
Eu161 O180 2.418 1_455 S
Eu161 C190 2.828 . S
C162 O180 1.244 . S
C162 O183 1.265 . S
C163 C164 1.379 . S
C163 C167 1.373 . S
C163 C169 1.505 . S
C164 C163 1.379 . S
C164 C166 1.369 . S
C164 H192 0.930 . S
C165 C167 1.383 . S
C165 C168 1.382 . S
C165 H193 0.930 . S
C166 C164 1.369 . S
C166 C168 1.392 . S
C166 H194 0.930 . S
C167 C163 1.373 . S
C167 C165 1.383 . S
C167 H195 0.931 . S
C168 C165 1.382 . S
C168 C166 1.392 . S
C169 Eu160 2.828 . S
C169 C163 1.505 . S
C169 O181 1.249 . S
C169 O182 1.244 . S
O170 Eu161 2.373 1_655 S
O170 C172 1.258 . S
O171 Eu160 2.392 . S
O171 C172 1.242 . S
C172 O170 1.258 . S
C172 O171 1.242 . S
O173 Eu160 2.418 1_455 S
O173 C177 1.244 . S
O174 Eu161 2.488 . S
O174 C190 1.249 . S
O175 Eu161 2.471 . S
O175 C190 1.244 . S
O176 Eu161 2.349 . S
O176 C177 1.265 . S
C177 O173 1.244 . S
C177 O176 1.265 . S
O178 Eu160 2.373 . S
O178 C191 1.258 1_655 S
O179 Eu161 2.392 . S
O179 C191 1.242 . S
O180 Eu161 2.418 1_655 S
O180 C162 1.244 . S
O181 Eu160 2.488 . S
O181 C169 1.249 . S
O182 Eu160 2.471 . S
O182 C169 1.244 . S
O183 Eu160 2.349 . S
O183 C162 1.265 . S
C184 C185 1.379 . S
C184 C188 1.373 . S
C184 C190 1.505 . S
C185 C184 1.379 . S
C185 C187 1.369 . S
C185 H196 0.930 . S
C186 C188 1.383 . S
C186 C189 1.382 . S
C186 H197 0.930 . S
C187 C185 1.369 . S
C187 C189 1.392 . S
C187 H198 0.930 . S
C188 C184 1.373 . S
C188 C186 1.383 . S
C188 H199 0.931 . S
C189 C186 1.382 . S
C189 C187 1.392 . S
C190 Eu161 2.828 . S
C190 O174 1.249 . S
C190 O175 1.244 . S
C190 C184 1.505 . S
C191 O178 1.258 1_455 S
C191 O179 1.242 . S
H192 C164 0.930 . S
H193 C165 0.930 . S
H194 C166 0.930 . S
H195 C167 0.931 . S
H196 C185 0.930 . S
H197 C186 0.930 . S
H198 C187 0.930 . S
H199 C188 0.931 . S
Eu200 C209 2.828 . S
Eu200 O211 2.392 . S
Eu200 O213 2.418 1_565 S
Eu200 O218 2.373 . S
Eu200 O221 2.488 . S
Eu200 O222 2.471 . S
Eu200 O223 2.349 . S
Eu201 O210 2.373 1_545 S
Eu201 O214 2.488 . S
Eu201 O215 2.471 . S
Eu201 O216 2.349 . S
Eu201 O219 2.392 . S
Eu201 O220 2.418 1_545 S
Eu201 C230 2.828 . S
C202 O220 1.244 . S
C202 O223 1.265 . S
C203 C204 1.379 . S
C203 C207 1.373 . S
C203 C209 1.505 . S
C204 C203 1.379 . S
C204 C206 1.369 . S
C204 H232 0.930 . S
C205 C207 1.383 . S
C205 C208 1.382 . S
C205 H233 0.930 . S
C206 C204 1.369 . S
C206 C208 1.392 . S
C206 H234 0.930 . S
C207 C203 1.373 . S
C207 C205 1.383 . S
C207 H235 0.931 . S
C208 C205 1.382 . S
C208 C206 1.392 . S
C209 Eu200 2.828 . S
C209 C203 1.505 . S
C209 O221 1.249 . S
C209 O222 1.244 . S
O210 Eu201 2.373 1_565 S
O210 C212 1.258 . S
O211 Eu200 2.392 . S
O211 C212 1.242 . S
C212 O210 1.258 . S
C212 O211 1.242 . S
O213 Eu200 2.418 1_545 S
O213 C217 1.244 . S
O214 Eu201 2.488 . S
O214 C230 1.249 . S
O215 Eu201 2.471 . S
O215 C230 1.244 . S
O216 Eu201 2.349 . S
O216 C217 1.265 . S
C217 O213 1.244 . S
C217 O216 1.265 . S
O218 Eu200 2.373 . S
O218 C231 1.258 1_565 S
O219 Eu201 2.392 . S
O219 C231 1.242 . S
O220 Eu201 2.418 1_565 S
O220 C202 1.244 . S
O221 Eu200 2.488 . S
O221 C209 1.249 . S
O222 Eu200 2.471 . S
O222 C209 1.244 . S
O223 Eu200 2.349 . S
O223 C202 1.265 . S
C224 C225 1.379 . S
C224 C228 1.373 . S
C224 C230 1.505 . S
C225 C224 1.379 . S
C225 C227 1.369 . S
C225 H236 0.930 . S
C226 C228 1.383 . S
C226 C229 1.382 . S
C226 H237 0.930 . S
C227 C225 1.369 . S
C227 C229 1.392 . S
C227 H238 0.930 . S
C228 C224 1.373 . S
C228 C226 1.383 . S
C228 H239 0.931 . S
C229 C226 1.382 . S
C229 C227 1.392 . S
C230 Eu201 2.828 . S
C230 O214 1.249 . S
C230 O215 1.244 . S
C230 C224 1.505 . S
C231 O218 1.258 1_545 S
C231 O219 1.242 . S
H232 C204 0.930 . S
H233 C205 0.930 . S
H234 C206 0.930 . S
H235 C207 0.931 . S
H236 C225 0.930 . S
H237 C226 0.930 . S
H238 C227 0.930 . S
H239 C228 0.931 . S
C240 C241 1.391 1_455 S
C240 C242 1.394 . S
C240 H256 0.931 1_545 S
C241 C240 1.391 1_655 S
C241 C245 1.376 1_554 S
C242 C240 1.394 . S
C242 C243 1.363 1_554 S
C242 C246 1.531 . S
C243 C242 1.363 1_556 S
C243 C244 1.415 . S
C243 C251 1.501 1_556 S
C244 C243 1.415 . S
C244 C245 1.392 1_455 S
C244 C247 1.511 . S
C245 C241 1.376 1_556 S
C245 C244 1.392 1_655 S
C245 H257 0.929 . S
C246 C242 1.531 . S
C246 H258 0.942 1_554 S
C246 H259 0.962 . S
C246 H260 0.960 1_545 S
C247 C244 1.511 . S
C247 H261 0.961 . S
C247 H262 0.961 . S
C247 H263 0.961 . S
C248 C249 1.370 . S
C248 C250 1.363 . S
C248 H264 0.931 . S
C249 C248 1.370 . S
C249 C253 1.408 1_554 S
C250 C248 1.363 . S
C250 C251 1.408 . S
C250 C254 1.524 . S
C251 C243 1.501 1_554 S
C251 C250 1.408 . S
C251 C252 1.367 1_554 S
C252 C251 1.367 1_556 S
C252 C253 1.404 . S
C252 C255 1.539 . S
C253 C249 1.408 1_556 S
C253 C252 1.404 . S
C253 H265 0.930 . S
C254 C250 1.524 . S
C254 H266 0.956 . S
C254 H267 0.961 . S
C254 H268 0.961 . S
C255 C252 1.539 . S
C255 H269 0.958 . S
C255 H270 0.961 . S
C255 H271 0.960 . S
H256 C240 0.931 1_565 S
H257 C245 0.929 . S
H258 C246 0.942 1_556 S
H259 C246 0.962 . S
H260 C246 0.960 1_565 S
H261 C247 0.961 . S
H262 C247 0.961 . S
H263 C247 0.961 . S
H264 C248 0.931 . S
H265 C253 0.930 . S
H266 C254 0.956 . S
H267 C254 0.961 . S
H268 C254 0.961 . S
H269 C255 0.958 . S
H270 C255 0.961 . S
H271 C255 0.960 . S
C272 C273 1.391 . S
C272 C274 1.394 1_565 S
C272 H288 0.931 1_455 S
C273 C272 1.391 . S
C273 C277 1.376 1_565 S
C274 C272 1.394 1_545 S
C274 C275 1.369 . S
C274 C278 1.531 . S
C275 C274 1.369 . S
C275 C276 1.410 . S
C275 C283 1.503 . S
C276 C275 1.410 . S
C276 C277 1.392 . S
C276 C279 1.511 . S
C277 C273 1.376 1_545 S
C277 C276 1.392 . S
C277 H289 0.929 . S
C278 C274 1.531 . S
C278 H290 0.960 . S
C278 H291 0.962 . S
C278 H292 0.960 1_455 S
C279 C276 1.511 . S
C279 H293 0.961 . S
C279 H294 0.961 . S
C279 H295 0.961 . S
C280 C281 1.370 . S
C280 C282 1.363 . S
C280 H296 0.931 . S
C281 C280 1.370 . S
C281 C285 1.408 . S
C282 C280 1.363 . S
C282 C283 1.370 . S
C282 C286 1.524 . S
C283 C275 1.503 . S
C283 C282 1.370 . S
C283 C284 1.403 . S
C284 C283 1.403 . S
C284 C285 1.404 . S
C284 C287 1.539 . S
C285 C281 1.408 . S
C285 C284 1.404 . S
C285 H297 0.930 . S
C286 C282 1.524 . S
C286 H298 0.956 . S
C286 H299 0.961 . S
C286 H300 0.961 . S
C287 C284 1.539 . S
C287 H301 0.958 . S
C287 H302 0.961 . S
C287 H303 0.960 . S
H288 C272 0.931 1_655 S
H289 C277 0.929 . S
H290 C278 0.960 . S
H291 C278 0.962 . S
H292 C278 0.960 1_655 S
H293 C279 0.961 . S
H294 C279 0.961 . S
H295 C279 0.961 . S
H296 C280 0.931 . S
H297 C285 0.930 . S
H298 C286 0.956 . S
H299 C286 0.961 . S
H300 C286 0.961 . S
H301 C287 0.958 . S
H302 C287 0.961 . S
H303 C287 0.960 . S
C304 C305 1.391 . S
C304 C306 1.394 . S
C304 H320 0.931 . S
C305 C304 1.391 . S
C305 C309 1.376 . S
C306 C304 1.394 . S
C306 C307 1.369 . S
C306 C310 1.531 . S
C307 C306 1.369 . S
C307 C308 1.410 . S
C307 C315 1.503 . S
C308 C307 1.410 . S
C308 C309 1.392 . S
C308 C311 1.511 . S
C309 C305 1.376 . S
C309 C308 1.392 . S
C309 H321 0.929 . S
C310 C306 1.531 . S
C310 H322 0.960 . S
C310 H323 0.962 . S
C310 H324 0.960 . S
C311 C308 1.511 . S
C311 H325 0.961 . S
C311 H326 0.961 . S
C311 H327 0.961 1_545 S
C312 C313 1.370 . S
C312 C314 1.363 . S
C312 H328 0.931 . S
C313 C312 1.370 . S
C313 C317 1.408 . S
C314 C312 1.363 . S
C314 C315 1.370 . S
C314 C318 1.524 . S
C315 C307 1.503 . S
C315 C314 1.370 . S
C315 C316 1.403 . S
C316 C315 1.403 . S
C316 C317 1.404 . S
C316 C319 1.539 . S
C317 C313 1.408 . S
C317 C316 1.404 . S
C317 H329 0.930 1_455 S
C318 C314 1.524 . S
C318 H330 0.956 . S
C318 H331 0.961 . S
C318 H332 0.961 . S
C319 C316 1.539 . S
C319 H333 0.958 . S
C319 H334 0.961 . S
C319 H335 0.960 . S
H320 C304 0.931 . S
H321 C309 0.929 . S
H322 C310 0.960 . S
H323 C310 0.962 . S
H324 C310 0.960 . S
H325 C311 0.961 . S
H326 C311 0.961 . S
H327 C311 0.961 1_565 S
H328 C312 0.931 . S
H329 C317 0.930 1_655 S
H330 C318 0.956 . S
H331 C318 0.961 . S
H332 C318 0.961 . S
H333 C319 0.958 . S
H334 C319 0.961 . S
H335 C319 0.960 . S
C336 C337 1.391 . S
C336 C338 1.394 . S
C336 H352 0.931 . S
C337 C336 1.391 . S
C337 C341 1.376 . S
C338 C336 1.394 . S
C338 C339 1.369 . S
C338 C342 1.531 . S
C339 C338 1.369 . S
C339 C340 1.410 . S
C339 C347 1.503 . S
C340 C339 1.410 . S
C340 C341 1.392 . S
C340 C343 1.511 . S
C341 C337 1.376 . S
C341 C340 1.392 . S
C341 H353 0.929 . S
C342 C338 1.531 . S
C342 H354 0.960 . S
C342 H355 0.962 . S
C342 H356 0.960 . S
C343 C340 1.511 . S
C343 H357 0.961 . S
C343 H358 0.961 . S
C343 H359 0.961 . S
C344 C345 1.370 . S
C344 C346 1.363 . S
C344 H360 0.931 . S
C345 C344 1.370 . S
C345 C349 1.408 . S
C346 C344 1.363 . S
C346 C347 1.370 . S
C346 C350 1.524 . S
C347 C339 1.503 . S
C347 C346 1.370 . S
C347 C348 1.403 . S
C348 C347 1.403 . S
C348 C349 1.404 . S
C348 C351 1.539 . S
C349 C345 1.408 . S
C349 C348 1.404 . S
C349 H361 0.930 . S
C350 C346 1.524 . S
C350 H362 0.956 . S
C350 H363 0.961 . S
C350 H364 0.961 . S
C351 C348 1.539 . S
C351 H365 0.958 . S
C351 H366 0.961 . S
C351 H367 0.960 . S
H352 C336 0.931 . S
H353 C341 0.929 . S
H354 C342 0.960 . S
H355 C342 0.962 . S
H356 C342 0.960 . S
H357 C343 0.961 . S
H358 C343 0.961 . S
H359 C343 0.961 . S
H360 C344 0.931 . S
H361 C349 0.930 . S
H362 C350 0.956 . S
H363 C350 0.961 . S
H364 C350 0.961 . S
H365 C351 0.958 . S
H366 C351 0.961 . S
H367 C351 0.960 . S
C368 C369 1.391 . S
C368 C370 1.394 . S
C368 H384 0.931 . S
C369 C368 1.391 . S
C369 C373 1.376 . S
C370 C368 1.394 . S
C370 C371 1.369 . S
C370 C374 1.531 . S
C371 C370 1.369 . S
C371 C372 1.410 . S
C371 C379 1.503 1_455 S
C372 C371 1.410 . S
C372 C373 1.392 . S
C372 C375 1.511 1_455 S
C373 C369 1.376 . S
C373 C372 1.392 . S
C373 H385 0.929 . S
C374 C370 1.531 . S
C374 H386 0.960 . S
C374 H387 0.962 . S
C374 H388 0.960 . S
C375 C372 1.511 1_655 S
C375 H389 0.961 . S
C375 H390 0.961 . S
C375 H391 0.961 . S
C376 C377 1.370 . S
C376 C378 1.363 . S
C376 H392 0.931 . S
C377 C376 1.370 . S
C377 C381 1.408 . S
C378 C376 1.363 . S
C378 C379 1.370 . S
C378 C382 1.524 1_655 S
C379 C371 1.503 1_655 S
C379 C378 1.370 . S
C379 C380 1.403 . S
C380 C379 1.403 . S
C380 C381 1.404 . S
C380 C383 1.539 . S
C381 C377 1.408 . S
C381 C380 1.404 . S
C381 H393 0.930 . S
C382 C378 1.524 1_455 S
C382 H394 0.956 . S
C382 H395 0.961 . S
C382 H396 0.961 . S
C383 C380 1.539 . S
C383 H397 0.958 . S
C383 H398 0.961 . S
C383 H399 0.960 . S
H384 C368 0.931 . S
H385 C373 0.929 . S
H386 C374 0.960 . S
H387 C374 0.962 . S
H388 C374 0.960 . S
H389 C375 0.961 . S
H390 C375 0.961 . S
H391 C375 0.961 . S
H392 C376 0.931 . S
H393 C381 0.930 . S
H394 C382 0.956 . S
H395 C382 0.961 . S
H396 C382 0.961 . S
H397 C383 0.958 . S
H398 C383 0.961 . S
H399 C383 0.960 . S
C400 C401 1.391 . S
C400 C402 1.394 . S
C400 H416 0.931 . S
C401 C400 1.391 . S
C401 C405 1.376 . S
C402 C400 1.394 . S
C402 C403 1.369 . S
C402 C406 1.531 1_545 S
C403 C402 1.369 . S
C403 C404 1.410 . S
C403 C411 1.503 1_545 S
C404 C403 1.410 . S
C404 C405 1.392 . S
C404 C407 1.511 . S
C405 C401 1.376 . S
C405 C404 1.392 . S
C405 H417 0.929 . S
C406 C402 1.531 1_565 S
C406 H418 0.960 . S
C406 H419 0.962 . S
C406 H420 0.960 . S
C407 C404 1.511 . S
C407 H421 0.961 . S
C407 H422 0.961 . S
C407 H423 0.961 . S
C408 C409 1.370 . S
C408 C410 1.363 . S
C408 H424 0.931 . S
C409 C408 1.370 . S
C409 C413 1.408 . S
C410 C408 1.363 . S
C410 C411 1.370 . S
C410 C414 1.524 1_565 S
C411 C403 1.503 1_565 S
C411 C410 1.370 . S
C411 C412 1.403 . S
C412 C411 1.403 . S
C412 C413 1.404 . S
C412 C415 1.539 . S
C413 C409 1.408 . S
C413 C412 1.404 . S
C413 H425 0.930 . S
C414 C410 1.524 1_545 S
C414 H426 0.956 . S
C414 H427 0.961 . S
C414 H428 0.961 . S
C415 C412 1.539 . S
C415 H429 0.958 . S
C415 H430 0.961 . S
C415 H431 0.960 . S
H416 C400 0.931 . S
H417 C405 0.929 . S
H418 C406 0.960 . S
H419 C406 0.962 . S
H420 C406 0.960 . S
H421 C407 0.961 . S
H422 C407 0.961 . S
H423 C407 0.961 . S
H424 C408 0.931 . S
H425 C413 0.930 . S
H426 C414 0.956 . S
H427 C414 0.961 . S
H428 C414 0.961 . S
H429 C415 0.958 . S
H430 C415 0.961 . S
H431 C415 0.960 . S
C432 C433 1.391 . S
C432 C434 1.394 . S
C432 H448 0.931 . S
C433 C432 1.391 . S
C433 C437 1.376 . S
C434 C432 1.394 . S
C434 C435 1.369 . S
C434 C438 1.531 . S
C435 C434 1.369 . S
C435 C436 1.410 . S
C435 C443 1.503 . S
C436 C435 1.410 . S
C436 C437 1.392 . S
C436 C439 1.511 . S
C437 C433 1.376 . S
C437 C436 1.392 . S
C437 H449 0.929 . S
C438 C434 1.531 . S
C438 H450 0.960 . S
C438 H451 0.962 . S
C438 H452 0.960 . S
C439 C436 1.511 . S
C439 H453 0.961 . S
C439 H454 0.961 . S
C439 H455 0.961 . S
C440 C441 1.370 . S
C440 C442 1.363 . S
C440 H456 0.931 . S
C441 C440 1.370 . S
C441 C445 1.408 . S
C442 C440 1.363 . S
C442 C443 1.370 1_455 S
C442 C446 1.524 . S
C443 C435 1.503 . S
C443 C442 1.370 1_655 S
C443 C444 1.403 . S
C444 C443 1.403 . S
C444 C445 1.404 1_655 S
C444 C447 1.539 . S
C445 C441 1.408 . S
C445 C444 1.404 1_455 S
C445 H457 0.930 . S
C446 C442 1.524 . S
C446 H458 0.954 1_455 S
C446 H459 0.961 1_455 S
C446 H460 0.961 . S
C447 C444 1.539 . S
C447 H461 0.958 . S
C447 H462 0.961 . S
C447 H463 0.960 . S
H448 C432 0.931 . S
H449 C437 0.929 . S
H450 C438 0.960 . S
H451 C438 0.962 . S
H452 C438 0.960 . S
H453 C439 0.961 . S
H454 C439 0.961 . S
H455 C439 0.961 . S
H456 C440 0.931 . S
H457 C445 0.930 . S
H458 C446 0.954 1_655 S
H459 C446 0.961 1_655 S
H460 C446 0.961 . S
H461 C447 0.958 . S
H462 C447 0.961 . S
H463 C447 0.960 . S
C464 C465 1.391 . S
C464 C466 1.394 . S
C464 H480 0.931 . S
C465 C464 1.391 . S
C465 C469 1.376 . S
C466 C464 1.394 . S
C466 C467 1.369 . S
C466 C470 1.531 . S
C467 C466 1.369 . S
C467 C468 1.410 . S
C467 C475 1.503 . S
C468 C467 1.410 . S
C468 C469 1.392 . S
C468 C471 1.511 . S
C469 C465 1.376 . S
C469 C468 1.392 . S
C469 H481 0.929 . S
C470 C466 1.531 . S
C470 H482 0.960 . S
C470 H483 0.962 . S
C470 H484 0.960 . S
C471 C468 1.511 . S
C471 H485 0.961 . S
C471 H486 0.961 1_565 S
C471 H487 0.961 . S
C472 C473 1.370 . S
C472 C474 1.363 1_545 S
C472 H488 0.931 . S
C473 C472 1.370 . S
C473 C477 1.408 . S
C474 C472 1.363 1_565 S
C474 C475 1.370 . S
C474 C478 1.524 . S
C475 C467 1.503 . S
C475 C474 1.370 . S
C475 C476 1.403 . S
C476 C475 1.403 . S
C476 C477 1.404 1_565 S
C476 C479 1.539 . S
C477 C473 1.408 . S
C477 C476 1.404 1_545 S
C477 H489 0.930 . S
C478 C474 1.524 . S
C478 H490 0.956 . S
C478 H491 0.961 . S
C478 H492 0.961 . S
C479 C476 1.539 . S
C479 H493 0.958 . S
C479 H494 0.961 1_565 S
C479 H495 0.960 . S
H480 C464 0.931 . S
H481 C469 0.929 . S
H482 C470 0.960 . S
H483 C470 0.962 . S
H484 C470 0.960 . S
H485 C471 0.961 . S
H486 C471 0.961 1_545 S
H487 C471 0.961 . S
H488 C472 0.931 . S
H489 C477 0.930 . S
H490 C478 0.956 . S
H491 C478 0.961 . S
H492 C478 0.961 . S
H493 C479 0.958 . S
H494 C479 0.961 1_545 S
H495 C479 0.960 . S
C496 C497 1.391 . S
C496 C498 1.394 . S
C496 H512 0.931 . S
C497 C496 1.391 . S
C497 C501 1.376 . S
C498 C496 1.394 . S
C498 C499 1.369 . S
C498 C502 1.531 . S
C499 C498 1.369 . S
C499 C500 1.410 . S
C499 C507 1.503 . S
C500 C499 1.410 . S
C500 C501 1.392 . S
C500 C503 1.511 . S
C501 C497 1.376 . S
C501 C500 1.392 . S
C501 H513 0.929 . S
C502 C498 1.531 . S
C502 H514 0.960 . S
C502 H515 0.962 . S
C502 H516 0.960 . S
C503 C500 1.511 . S
C503 H517 0.961 . S
C503 H518 0.961 . S
C503 H519 0.961 . S
C504 C505 1.370 . S
C504 C506 1.363 . S
C504 H520 0.931 . S
C505 C504 1.370 . S
C505 C509 1.408 . S
C506 C504 1.363 . S
C506 C507 1.370 . S
C506 C510 1.524 . S
C507 C499 1.503 . S
C507 C506 1.370 . S
C507 C508 1.403 . S
C508 C507 1.403 . S
C508 C509 1.404 . S
C508 C511 1.539 . S
C509 C505 1.408 . S
C509 C508 1.404 . S
C509 H521 0.930 . S
C510 C506 1.524 . S
C510 H522 0.956 . S
C510 H523 0.961 . S
C510 H524 0.961 . S
C511 C508 1.539 . S
C511 H525 0.958 . S
C511 H526 0.961 . S
C511 H527 0.960 . S
H512 C496 0.931 . S
H513 C501 0.929 . S
H514 C502 0.960 . S
H515 C502 0.962 . S
H516 C502 0.960 . S
H517 C503 0.961 . S
H518 C503 0.961 . S
H519 C503 0.961 . S
H520 C504 0.931 . S
H521 C509 0.930 . S
H522 C510 0.956 . S
H523 C510 0.961 . S
H524 C510 0.961 . S
H525 C511 0.958 . S
H526 C511 0.961 . S
H527 C511 0.960 . S
C528 C529 1.391 . S
C528 C530 1.394 . S
C528 H544 0.931 . S
C529 C528 1.391 . S
C529 C533 1.376 . S
C530 C528 1.394 . S
C530 C531 1.369 . S
C530 C534 1.531 . S
C531 C530 1.369 . S
C531 C532 1.410 . S
C531 C539 1.503 . S
C532 C531 1.410 . S
C532 C533 1.392 . S
C532 C535 1.511 . S
C533 C529 1.376 . S
C533 C532 1.392 . S
C533 H545 0.929 . S
C534 C530 1.531 . S
C534 H546 0.960 . S
C534 H547 0.962 1_554 S
C534 H548 0.960 . S
C535 C532 1.511 . S
C535 H549 0.961 . S
C535 H550 0.961 . S
C535 H551 0.961 . S
C536 C537 1.370 1_556 S
C536 C538 1.363 . S
C536 H552 0.931 . S
C537 C536 1.370 1_554 S
C537 C541 1.408 . S
C538 C536 1.363 . S
C538 C539 1.370 1_556 S
C538 C542 1.524 . S
C539 C531 1.503 . S
C539 C538 1.370 1_554 S
C539 C540 1.403 . S
C540 C539 1.403 . S
C540 C541 1.404 . S
C540 C543 1.539 . S
C541 C537 1.408 . S
C541 C540 1.404 . S
C541 H553 0.930 . S
C542 C538 1.524 . S
C542 H554 0.956 . S
C542 H555 0.961 . S
C542 H556 0.961 . S
C543 C540 1.539 . S
C543 H557 0.958 . S
C543 H558 0.961 . S
C543 H559 0.960 . S
H544 C528 0.931 . S
H545 C533 0.929 . S
H546 C534 0.960 . S
H547 C534 0.962 1_556 S
H548 C534 0.960 . S
H549 C535 0.961 . S
H550 C535 0.961 . S
H551 C535 0.961 . S
H552 C536 0.931 . S
H553 C541 0.930 . S
H554 C542 0.956 . S
H555 C542 0.961 . S
H556 C542 0.961 . S
H557 C543 0.958 . S
H558 C543 0.961 . S
H559 C543 0.960 . S
C560 C561 1.391 . S
C560 C562 1.394 . S
C560 H576 0.931 . S
C561 C560 1.391 . S
C561 C565 1.376 . S
C562 C560 1.394 . S
C562 C563 1.369 . S
C562 C566 1.531 . S
C563 C562 1.369 . S
C563 C564 1.410 . S
C563 C571 1.503 . S
C564 C563 1.410 . S
C564 C565 1.392 . S
C564 C567 1.511 . S
C565 C561 1.376 . S
C565 C564 1.392 . S
C565 H577 0.929 . S
C566 C562 1.531 . S
C566 H578 0.960 . S
C566 H579 0.962 . S
C566 H580 0.960 . S
C567 C564 1.511 . S
C567 H581 0.961 . S
C567 H582 0.961 . S
C567 H583 0.961 . S
C568 C569 1.370 . S
C568 C570 1.363 . S
C568 H584 0.931 . S
C569 C568 1.370 . S
C569 C573 1.408 . S
C570 C568 1.363 . S
C570 C571 1.370 . S
C570 C574 1.524 . S
C571 C563 1.503 . S
C571 C570 1.370 . S
C571 C572 1.403 . S
C572 C571 1.403 . S
C572 C573 1.404 . S
C572 C575 1.539 . S
C573 C569 1.408 . S
C573 C572 1.404 . S
C573 H585 0.930 . S
C574 C570 1.524 . S
C574 H586 0.956 . S
C574 H587 0.961 . S
C574 H588 0.961 . S
C575 C572 1.539 . S
C575 H589 0.958 . S
C575 H590 0.961 . S
C575 H591 0.960 . S
H576 C560 0.931 . S
H577 C565 0.929 . S
H578 C566 0.960 . S
H579 C566 0.962 . S
H580 C566 0.960 . S
H581 C567 0.961 . S
H582 C567 0.961 . S
H583 C567 0.961 . S
H584 C568 0.931 . S
H585 C573 0.930 . S
H586 C574 0.956 . S
H587 C574 0.961 . S
H588 C574 0.961 . S
H589 C575 0.958 . S
H590 C575 0.961 . S
H591 C575 0.960 . S
C592 C593 1.391 . S
C592 C594 1.394 . S
C592 H608 0.931 . S
C593 C592 1.391 . S
C593 C597 1.376 . S
C594 C592 1.394 . S
C594 C595 1.369 . S
C594 C598 1.531 . S
C595 C594 1.369 . S
C595 C596 1.410 . S
C595 C603 1.503 . S
C596 C595 1.410 . S
C596 C597 1.392 . S
C596 C599 1.511 . S
C597 C593 1.376 . S
C597 C596 1.392 . S
C597 H609 0.929 . S
C598 C594 1.531 . S
C598 H610 0.960 . S
C598 H611 0.962 . S
C598 H612 0.960 . S
C599 C596 1.511 . S
C599 H613 0.961 . S
C599 H614 0.961 . S
C599 H615 0.961 . S
C600 C601 1.370 . S
C600 C602 1.363 . S
C600 H616 0.931 . S
C601 C600 1.370 . S
C601 C605 1.408 . S
C602 C600 1.363 . S
C602 C603 1.370 . S
C602 C606 1.524 . S
C603 C595 1.503 . S
C603 C602 1.370 . S
C603 C604 1.403 . S
C604 C603 1.403 . S
C604 C605 1.404 . S
C604 C607 1.539 . S
C605 C601 1.408 . S
C605 C604 1.404 . S
C605 H617 0.930 . S
C606 C602 1.524 . S
C606 H618 0.956 . S
C606 H619 0.961 . S
C606 H620 0.961 . S
C607 C604 1.539 . S
C607 H621 0.958 . S
C607 H622 0.961 . S
C607 H623 0.960 . S
H608 C592 0.931 . S
H609 C597 0.929 . S
H610 C598 0.960 . S
H611 C598 0.962 . S
H612 C598 0.960 . S
H613 C599 0.961 . S
H614 C599 0.961 . S
H615 C599 0.961 . S
H616 C600 0.931 . S
H617 C605 0.930 . S
H618 C606 0.956 . S
H619 C606 0.961 . S
H620 C606 0.961 . S
H621 C607 0.958 . S
H622 C607 0.961 . S
H623 C607 0.960 . S
C624 C625 1.391 . S
C624 C626 1.394 . S
C624 H640 0.931 . S
C625 C624 1.391 . S
C625 C629 1.376 . S
C626 C624 1.394 . S
C626 C627 1.369 . S
C626 C630 1.531 . S
C627 C626 1.369 . S
C627 C628 1.410 . S
C627 C635 1.503 . S
C628 C627 1.410 . S
C628 C629 1.392 . S
C628 C631 1.511 . S
C629 C625 1.376 . S
C629 C628 1.392 . S
C629 H641 0.929 . S
C630 C626 1.531 . S
C630 H642 0.960 . S
C630 H643 0.962 . S
C630 H644 0.960 . S
C631 C628 1.511 . S
C631 H645 0.961 . S
C631 H646 0.961 . S
C631 H647 0.961 . S
C632 C633 1.370 . S
C632 C634 1.363 . S
C632 H648 0.931 . S
C633 C632 1.370 . S
C633 C637 1.408 . S
C634 C632 1.363 . S
C634 C635 1.370 . S
C634 C638 1.524 . S
C635 C627 1.503 . S
C635 C634 1.370 . S
C635 C636 1.403 . S
C636 C635 1.403 . S
C636 C637 1.404 . S
C636 C639 1.539 . S
C637 C633 1.408 . S
C637 C636 1.404 . S
C637 H649 0.930 . S
C638 C634 1.524 . S
C638 H650 0.956 . S
C638 H651 0.961 . S
C638 H652 0.961 . S
C639 C636 1.539 . S
C639 H653 0.958 . S
C639 H654 0.961 . S
C639 H655 0.960 . S
H640 C624 0.931 . S
H641 C629 0.929 . S
H642 C630 0.960 . S
H643 C630 0.962 . S
H644 C630 0.960 . S
H645 C631 0.961 . S
H646 C631 0.961 . S
H647 C631 0.961 . S
H648 C632 0.931 . S
H649 C637 0.930 . S
H650 C638 0.956 . S
H651 C638 0.961 . S
H652 C638 0.961 . S
H653 C639 0.958 . S
H654 C639 0.961 . S
H655 C639 0.960 . S
C656 C657 1.391 . S
C656 C658 1.394 . S
C656 H672 0.931 . S
C657 C656 1.391 . S
C657 C661 1.376 . S
C658 C656 1.394 . S
C658 C659 1.369 . S
C658 C662 1.531 . S
C659 C658 1.369 . S
C659 C660 1.410 . S
C659 C667 1.503 . S
C660 C659 1.410 . S
C660 C661 1.392 . S
C660 C663 1.511 . S
C661 C657 1.376 . S
C661 C660 1.392 . S
C661 H673 0.929 . S
C662 C658 1.531 . S
C662 H674 0.960 . S
C662 H675 0.962 . S
C662 H676 0.960 . S
C663 C660 1.511 . S
C663 H677 0.961 . S
C663 H678 0.961 . S
C663 H679 0.961 . S
C664 C665 1.370 . S
C664 C666 1.363 . S
C664 H680 0.931 . S
C665 C664 1.370 . S
C665 C669 1.408 . S
C666 C664 1.363 . S
C666 C667 1.370 . S
C666 C670 1.524 . S
C667 C659 1.503 . S
C667 C666 1.370 . S
C667 C668 1.403 . S
C668 C667 1.403 . S
C668 C669 1.404 . S
C668 C671 1.539 . S
C669 C665 1.408 . S
C669 C668 1.404 . S
C669 H681 0.930 . S
C670 C666 1.524 . S
C670 H682 0.956 . S
C670 H683 0.961 . S
C670 H684 0.961 . S
C671 C668 1.539 . S
C671 H685 0.958 . S
C671 H686 0.961 . S
C671 H687 0.960 . S
H672 C656 0.931 . S
H673 C661 0.929 . S
H674 C662 0.960 . S
H675 C662 0.962 . S
H676 C662 0.960 . S
H677 C663 0.961 . S
H678 C663 0.961 . S
H679 C663 0.961 . S
H680 C664 0.931 . S
H681 C669 0.930 . S
H682 C670 0.956 . S
H683 C670 0.961 . S
H684 C670 0.961 . S
H685 C671 0.958 . S
H686 C671 0.961 . S
H687 C671 0.960 . S
C688 C689 1.391 . S
C688 C690 1.394 . S
C688 H704 0.931 . S
C689 C688 1.391 . S
C689 C693 1.376 . S
C690 C688 1.394 . S
C690 C691 1.369 . S
C690 C694 1.531 . S
C691 C690 1.369 . S
C691 C692 1.410 . S
C691 C699 1.503 . S
C692 C691 1.410 . S
C692 C693 1.392 . S
C692 C695 1.511 . S
C693 C689 1.376 . S
C693 C692 1.392 . S
C693 H705 0.929 . S
C694 C690 1.531 . S
C694 H706 0.960 . S
C694 H707 0.962 . S
C694 H708 0.960 . S
C695 C692 1.511 . S
C695 H709 0.961 1_655 S
C695 H710 0.961 . S
C695 H711 0.961 . S
C696 C697 1.370 . S
C696 C698 1.363 . S
C696 H712 0.931 . S
C697 C696 1.370 . S
C697 C701 1.408 . S
C698 C696 1.363 . S
C698 C699 1.370 . S
C698 C702 1.524 . S
C699 C691 1.503 . S
C699 C698 1.370 . S
C699 C700 1.403 . S
C700 C699 1.403 . S
C700 C701 1.404 . S
C700 C703 1.539 . S
C701 C697 1.408 . S
C701 C700 1.404 . S
C701 H713 0.930 . S
C702 C698 1.524 . S
C702 H714 0.956 . S
C702 H715 0.961 . S
C702 H716 0.961 . S
C703 C700 1.539 . S
C703 H717 0.958 . S
C703 H718 0.961 . S
C703 H719 0.960 . S
H704 C688 0.931 . S
H705 C693 0.929 . S
H706 C694 0.960 . S
H707 C694 0.962 . S
H708 C694 0.960 . S
H709 C695 0.961 1_455 S
H710 C695 0.961 . S
H711 C695 0.961 . S
H712 C696 0.931 . S
H713 C701 0.930 . S
H714 C702 0.956 . S
H715 C702 0.961 . S
H716 C702 0.961 . S
H717 C703 0.958 . S
H718 C703 0.961 . S
H719 C703 0.960 . S
C720 C721 1.391 . S
C720 C722 1.394 . S
C720 H736 0.931 . S
C721 C720 1.391 . S
C721 C725 1.376 . S
C722 C720 1.394 . S
C722 C723 1.369 . S
C722 C726 1.531 . S
C723 C722 1.369 . S
C723 C724 1.410 . S
C723 C731 1.503 . S
C724 C723 1.410 . S
C724 C725 1.392 . S
C724 C727 1.511 . S
C725 C721 1.376 . S
C725 C724 1.392 . S
C725 H737 0.929 . S
C726 C722 1.531 . S
C726 H738 0.960 1_565 S
C726 H739 0.962 . S
C726 H740 0.960 1_565 S
C727 C724 1.511 . S
C727 H741 0.961 . S
C727 H742 0.961 . S
C727 H743 0.961 . S
C728 C729 1.370 . S
C728 C730 1.363 . S
C728 H744 0.931 . S
C729 C728 1.370 . S
C729 C733 1.408 . S
C730 C728 1.363 . S
C730 C731 1.370 . S
C730 C734 1.524 . S
C731 C723 1.503 . S
C731 C730 1.370 . S
C731 C732 1.403 . S
C732 C731 1.403 . S
C732 C733 1.404 . S
C732 C735 1.539 1_565 S
C733 C729 1.408 . S
C733 C732 1.404 . S
C733 H745 0.930 . S
C734 C730 1.524 . S
C734 H746 0.956 . S
C734 H747 0.961 . S
C734 H748 0.961 . S
C735 C732 1.539 1_545 S
C735 H749 0.958 . S
C735 H750 0.961 . S
C735 H751 0.960 1_545 S
H736 C720 0.931 . S
H737 C725 0.929 . S
H738 C726 0.960 1_545 S
H739 C726 0.962 . S
H740 C726 0.960 1_545 S
H741 C727 0.961 . S
H742 C727 0.961 . S
H743 C727 0.961 . S
H744 C728 0.931 . S
H745 C733 0.930 . S
H746 C734 0.956 . S
H747 C734 0.961 . S
H748 C734 0.961 . S
H749 C735 0.958 . S
H750 C735 0.961 . S
H751 C735 0.960 1_565 S
C752 C753 1.391 . S
C752 C754 1.394 . S
C752 H768 0.931 . S
C753 C752 1.391 . S
C753 C757 1.376 . S
C754 C752 1.394 . S
C754 C755 1.369 . S
C754 C758 1.531 . S
C755 C754 1.369 . S
C755 C756 1.410 . S
C755 C763 1.503 . S
C756 C755 1.410 . S
C756 C757 1.392 . S
C756 C759 1.511 1_455 S
C757 C753 1.376 . S
C757 C756 1.392 . S
C757 H769 0.929 1_455 S
C758 C754 1.531 . S
C758 H770 0.960 . S
C758 H771 0.962 . S
C758 H772 0.960 . S
C759 C756 1.511 1_655 S
C759 H773 0.961 . S
C759 H774 0.961 . S
C759 H775 0.961 . S
C760 C761 1.370 . S
C760 C762 1.363 . S
C760 H776 0.931 . S
C761 C760 1.370 . S
C761 C765 1.408 . S
C762 C760 1.363 . S
C762 C763 1.370 . S
C762 C766 1.524 . S
C763 C755 1.503 . S
C763 C762 1.370 . S
C763 C764 1.403 . S
C764 C763 1.403 . S
C764 C765 1.404 . S
C764 C767 1.539 . S
C765 C761 1.408 . S
C765 C764 1.404 . S
C765 H777 0.930 . S
C766 C762 1.524 . S
C766 H778 0.956 . S
C766 H779 0.961 . S
C766 H780 0.961 . S
C767 C764 1.539 . S
C767 H781 0.958 1_565 S
C767 H782 0.961 1_565 S
C767 H783 0.960 . S
H768 C752 0.931 . S
H769 C757 0.929 1_655 S
H770 C758 0.960 . S
H771 C758 0.962 . S
H772 C758 0.960 . S
H773 C759 0.961 . S
H774 C759 0.961 . S
H775 C759 0.961 . S
H776 C760 0.931 . S
H777 C765 0.930 . S
H778 C766 0.956 . S
H779 C766 0.961 . S
H780 C766 0.961 . S
H781 C767 0.958 1_545 S
H782 C767 0.961 1_545 S
H783 C767 0.960 . S
C784 C785 1.391 . S
C784 C786 1.394 . S
C784 H800 0.931 . S
C785 C784 1.391 . S
C785 C789 1.376 . S
C786 C784 1.394 . S
C786 C787 1.369 . S
C786 C790 1.531 . S
C787 C786 1.369 . S
C787 C788 1.410 . S
C787 C795 1.503 . S
C788 C787 1.410 . S
C788 C789 1.392 . S
C788 C791 1.511 . S
C789 C785 1.376 . S
C789 C788 1.392 . S
C789 H801 0.929 . S
C790 C786 1.531 . S
C790 H802 0.960 . S
C790 H803 0.962 . S
C790 H804 0.960 . S
C791 C788 1.511 . S
C791 H805 0.961 1_545 S
C791 H806 0.961 . S
C791 H807 0.961 . S
C792 C793 1.370 . S
C792 C794 1.363 . S
C792 H808 0.931 . S
C793 C792 1.370 . S
C793 C797 1.408 . S
C794 C792 1.363 . S
C794 C795 1.370 . S
C794 C798 1.524 . S
C795 C787 1.503 . S
C795 C794 1.370 . S
C795 C796 1.403 . S
C796 C795 1.403 . S
C796 C797 1.404 . S
C796 C799 1.539 . S
C797 C793 1.408 . S
C797 C796 1.404 . S
C797 H809 0.930 . S
C798 C794 1.524 . S
C798 H810 0.956 . S
C798 H811 0.961 . S
C798 H812 0.961 . S
C799 C796 1.539 . S
C799 H813 0.958 . S
C799 H814 0.961 . S
C799 H815 0.960 . S
H800 C784 0.931 . S
H801 C789 0.929 . S
H802 C790 0.960 . S
H803 C790 0.962 . S
H804 C790 0.960 . S
H805 C791 0.961 1_565 S
H806 C791 0.961 . S
H807 C791 0.961 . S
H808 C792 0.931 . S
H809 C797 0.930 . S
H810 C798 0.956 . S
H811 C798 0.961 . S
H812 C798 0.961 . S
H813 C799 0.958 . S
H814 C799 0.961 . S
H815 C799 0.960 . S
C241 C137 0.756 . S
C249 C17 0.710 . S
C273 C177 0.647 . S
C281 C57 0.687 . S
C305 C217 0.679 . S
C313 C97 0.737 . S
C337 C29 0.861 . S
C345 C88 0.742 . S
C369 C69 0.699 . S
C377 C128 0.823 . S
C401 C109 0.843 . S
C409 C168 0.778 . S
C433 C149 0.834 . S
C441 C208 0.783 . S
C465 C189 0.840 . S
C473 C8 0.746 . S
C497 C229 0.774 . S
C505 C48 0.808 . S
C529 C2 1.649 . S
C537 C122 1.643 1_545 S
C561 C42 1.621 . S
C569 C162 1.630 . S
C593 C82 1.607 1_455 S
C601 C202 1.644 . S
C625 C31 4.018 . S
C633 C52 4.054 . S
C657 C71 4.027 . S
C665 C92 4.052 . S
C689 C111 4.022 . S
C697 C132 4.052 . S
C721 C151 4.018 . S
C729 C172 4.055 . S
C753 C191 4.014 . S
C761 C212 4.053 . S
C785 C231 4.017 . S
C793 C12 4.052 . S
