# Generated by pormake.
# Topology cds-f, (5)-cn, num edge types: 1
# Building blocks:
#     Node 0, Type 0, BuildingBlock: XOMCOT_clean_sbu_0, # of connection points: 5
#     Node 1, Type 0, BuildingBlock: XOMCOT_clean_sbu_0, # of connection points: 5
#     Node 2, Type 0, BuildingBlock: XOMCOT_clean_sbu_0, # of connection points: 5
#     Node 3, Type 0, BuildingBlock: XOMCOT_clean_sbu_0, # of connection points: 5
#     Node 4, Type 0, BuildingBlock: XOMCOT_clean_sbu_0, # of connection points: 5
#     Node 5, Type 0, BuildingBlock: XOMCOT_clean_sbu_0, # of connection points: 5
#     Node 6, Type 0, BuildingBlock: XOMCOT_clean_sbu_0, # of connection points: 5
#     Node 7, Type 0, BuildingBlock: XOMCOT_clean_sbu_0, # of connection points: 5
#     Node 8, Type 0, BuildingBlock: XOMCOT_clean_sbu_0, # of connection points: 5
#     Node 9, Type 0, BuildingBlock: XOMCOT_clean_sbu_0, # of connection points: 5
#     Node 10, Type 0, BuildingBlock: XOMCOT_clean_sbu_0, # of connection points: 5
#     Node 11, Type 0, BuildingBlock: XOMCOT_clean_sbu_0, # of connection points: 5
#     Node 12, Type 0, BuildingBlock: XOMCOT_clean_sbu_0, # of connection points: 5
#     Node 13, Type 0, BuildingBlock: XOMCOT_clean_sbu_0, # of connection points: 5
#     Node 14, Type 0, BuildingBlock: XOMCOT_clean_sbu_0, # of connection points: 5
#     Node 15, Type 0, BuildingBlock: XOMCOT_clean_sbu_0, # of connection points: 5
#     Edge 16, Type (0, 0), BuildingBlock: XIVTED_clean_linker_0, # of connection points: 2
#     Edge 17, Type (0, 0), BuildingBlock: XIVTED_clean_linker_0, # of connection points: 2
#     Edge 18, Type (0, 0), BuildingBlock: XIVTED_clean_linker_0, # of connection points: 2
#     Edge 19, Type (0, 0), BuildingBlock: XIVTED_clean_linker_0, # of connection points: 2
#     Edge 20, Type (0, 0), BuildingBlock: XIVTED_clean_linker_0, # of connection points: 2
#     Edge 21, Type (0, 0), BuildingBlock: XIVTED_clean_linker_0, # of connection points: 2
#     Edge 22, Type (0, 0), BuildingBlock: XIVTED_clean_linker_0, # of connection points: 2
#     Edge 23, Type (0, 0), BuildingBlock: XIVTED_clean_linker_0, # of connection points: 2
#     Edge 24, Type (0, 0), BuildingBlock: XIVTED_clean_linker_0, # of connection points: 2
#     Edge 25, Type (0, 0), BuildingBlock: XIVTED_clean_linker_0, # of connection points: 2
#     Edge 26, Type (0, 0), BuildingBlock: XIVTED_clean_linker_0, # of connection points: 2
#     Edge 27, Type (0, 0), BuildingBlock: XIVTED_clean_linker_0, # of connection points: 2
#     Edge 28, Type (0, 0), BuildingBlock: XIVTED_clean_linker_0, # of connection points: 2
#     Edge 29, Type (0, 0), BuildingBlock: XIVTED_clean_linker_0, # of connection points: 2
#     Edge 30, Type (0, 0), BuildingBlock: XIVTED_clean_linker_0, # of connection points: 2
#     Edge 31, Type (0, 0), BuildingBlock: XIVTED_clean_linker_0, # of connection points: 2
#     Edge 32, Type (0, 0), BuildingBlock: XIVTED_clean_linker_0, # of connection points: 2
#     Edge 33, Type (0, 0), BuildingBlock: XIVTED_clean_linker_0, # of connection points: 2
#     Edge 34, Type (0, 0), BuildingBlock: XIVTED_clean_linker_0, # of connection points: 2
#     Edge 35, Type (0, 0), BuildingBlock: XIVTED_clean_linker_0, # of connection points: 2
#     Edge 36, Type (0, 0), BuildingBlock: XIVTED_clean_linker_0, # of connection points: 2
#     Edge 37, Type (0, 0), BuildingBlock: XIVTED_clean_linker_0, # of connection points: 2
#     Edge 38, Type (0, 0), BuildingBlock: XIVTED_clean_linker_0, # of connection points: 2
#     Edge 39, Type (0, 0), BuildingBlock: XIVTED_clean_linker_0, # of connection points: 2
#     Edge 40, Type (0, 0), BuildingBlock: XIVTED_clean_linker_0, # of connection points: 2
#     Edge 41, Type (0, 0), BuildingBlock: XIVTED_clean_linker_0, # of connection points: 2
#     Edge 42, Type (0, 0), BuildingBlock: XIVTED_clean_linker_0, # of connection points: 2
#     Edge 43, Type (0, 0), BuildingBlock: XIVTED_clean_linker_0, # of connection points: 2
#     Edge 44, Type (0, 0), BuildingBlock: XIVTED_clean_linker_0, # of connection points: 2
#     Edge 45, Type (0, 0), BuildingBlock: XIVTED_clean_linker_0, # of connection points: 2
#     Edge 46, Type (0, 0), BuildingBlock: XIVTED_clean_linker_0, # of connection points: 2
#     Edge 47, Type (0, 0), BuildingBlock: XIVTED_clean_linker_0, # of connection points: 2
#     Edge 48, Type (0, 0), BuildingBlock: XIVTED_clean_linker_0, # of connection points: 2
#     Edge 49, Type (0, 0), BuildingBlock: XIVTED_clean_linker_0, # of connection points: 2
#     Edge 50, Type (0, 0), BuildingBlock: XIVTED_clean_linker_0, # of connection points: 2
#     Edge 51, Type (0, 0), BuildingBlock: XIVTED_clean_linker_0, # of connection points: 2
#     Edge 52, Type (0, 0), BuildingBlock: XIVTED_clean_linker_0, # of connection points: 2
#     Edge 53, Type (0, 0), BuildingBlock: XIVTED_clean_linker_0, # of connection points: 2
#     Edge 54, Type (0, 0), BuildingBlock: XIVTED_clean_linker_0, # of connection points: 2
#     Edge 55, Type (0, 0), BuildingBlock: XIVTED_clean_linker_0, # of connection points: 2
# Relax obj value: 0.281
# Max RMSD: 0.216
# Mean RMSD: 0.212
data_MOF--net-cds-f--node1-XOMCOT_clean_sbu_0--edge1-XIVTED_clean_linker_0
_symmetry_space_group_name_H-M    P1
_symmetry_Int_Tables_number       1
_symmetry_cell_setting            triclinic
loop_
_symmetry_equiv_pos_as_xyz
'x, y, z'
_cell_length_a     35.741407
_cell_length_b     35.749892
_cell_length_c     57.092343
_cell_angle_alpha  90.119238
_cell_angle_beta   90.251538
_cell_angle_gamma 92.811211
loop_
_atom_site_label
_atom_site_type_symbol
_atom_site_fract_x
_atom_site_fract_y
_atom_site_fract_z
_atom_type_partial_charge
Co0 Co 0.23488 0.25856 0.13055 0.0
C1 C 0.15042 0.25688 0.12511 0.0
C2 C 0.17269 0.20241 0.12612 0.0
C3 C 0.13427 0.19825 0.12439 0.0
N4 N 0.18305 0.23922 0.12649 0.0
N5 N 0.12026 0.23256 0.12382 0.0
H6 H 0.14817 0.28668 0.1246 0.0
H7 H 0.19189 0.18002 0.12726 0.0
C8 C 0.22937 0.22718 0.08288 0.0
O9 O 0.19763 0.24408 0.08176 0.0
N10 N 0.28637 0.27706 0.13549 0.0
C11 C 0.29623 0.31092 0.14455 0.0
C12 C 0.33455 0.31494 0.14565 0.0
C13 C 0.31909 0.26067 0.1313 0.0
N14 N 0.34921 0.28336 0.13747 0.0
C15 C 0.20756 0.33093 0.12308 0.0
C16 C 0.2568 0.35073 0.08749 0.0
C17 C 0.23904 0.37872 0.09972 0.0
C18 C 0.21234 0.36825 0.11658 0.0
C19 C 0.25067 0.31333 0.09427 0.0
N20 N 0.22727 0.30387 0.11252 0.0
H21 H 0.19134 0.32486 0.1386 0.0
H22 H 0.26858 0.29306 0.08681 0.0
H23 H 0.2768 0.33152 0.14989 0.0
H24 H 0.32071 0.23273 0.12418 0.0
O25 O 0.22192 0.27756 0.16076 0.0
O26 O 0.24125 0.22055 0.15464 0.0
O27 O 0.24983 0.23029 0.10136 0.0
C28 C 0.22953 0.24535 0.16937 0.0
H29 H 0.11794 0.17195 0.12414 0.0
H30 H 0.35026 0.33971 0.15175 0.0
H31 H 0.27823 0.35793 0.07469 0.0
H32 H 0.19834 0.38924 0.12654 0.0
Co33 Co 0.78849 0.26853 0.61677 0.0
C34 C 0.79177 0.35311 0.6195 0.0
C35 C 0.8441 0.32939 0.62756 0.0
C36 C 0.84893 0.36783 0.62856 0.0
N37 N 0.80808 0.31994 0.62222 0.0
N38 N 0.81596 0.38287 0.62346 0.0
H39 H 0.7633 0.3559 0.61403 0.0
H40 H 0.86551 0.30953 0.63049 0.0
C41 C 0.8099 0.27191 0.66711 0.0
O42 O 0.79694 0.30564 0.66715 0.0
N43 N 0.76988 0.21764 0.61059 0.0
C44 C 0.73842 0.20801 0.59852 0.0
C45 C 0.73423 0.16963 0.59757 0.0
C46 C 0.78468 0.18495 0.6167 0.0
N47 N 0.76323 0.155 0.60901 0.0
C48 C 0.71534 0.29823 0.61805 0.0
C49 C 0.6891 0.2555 0.65531 0.0
C50 C 0.664 0.27662 0.64272 0.0
C51 C 0.67766 0.29886 0.62423 0.0
C52 C 0.72672 0.25614 0.64881 0.0
N53 N 0.7398 0.27769 0.6305 0.0
H54 H 0.72395 0.31203 0.60206 0.0
H55 H 0.74429 0.23663 0.65732 0.0
H56 H 0.71983 0.22761 0.59083 0.0
H57 H 0.81034 0.18318 0.62667 0.0
O58 O 0.77751 0.28168 0.58501 0.0
O59 O 0.83159 0.26032 0.59685 0.0
O60 O 0.80898 0.25237 0.64825 0.0
C61 C 0.81104 0.27228 0.57976 0.0
H62 H 0.87485 0.38333 0.63276 0.0
H63 H 0.71183 0.15378 0.58868 0.0
H64 H 0.6794 0.2372 0.66936 0.0
H65 H 0.65883 0.31441 0.61346 0.0
Co66 Co 0.7844 0.76839 0.12766 0.0
C67 C 0.86765 0.76872 0.12317 0.0
C68 C 0.8446 0.81874 0.10973 0.0
C69 C 0.88292 0.82185 0.10745 0.0
N70 N 0.83496 0.7854 0.11943 0.0
N71 N 0.89758 0.79045 0.11589 0.0
H72 H 0.86942 0.74143 0.13114 0.0
H73 H 0.82515 0.8398 0.10514 0.0
C74 C 0.73883 0.7848 0.08451 0.0
O75 O 0.71795 0.7542 0.08846 0.0
N76 N 0.73314 0.75238 0.13641 0.0
C77 C 0.72136 0.72003 0.14674 0.0
C78 C 0.68345 0.7205 0.15064 0.0
C79 C 0.70208 0.77269 0.13513 0.0
N80 N 0.67111 0.7535 0.14321 0.0
C81 C 0.79585 0.68993 0.12321 0.0
C82 C 0.79111 0.68521 0.075 0.0
C83 C 0.7911 0.65226 0.08818 0.0
C84 C 0.79543 0.65493 0.11245 0.0
C85 C 0.79287 0.71988 0.08656 0.0
N86 N 0.79123 0.7217 0.11049 0.0
H87 H 0.79862 0.69106 0.142 0.0
H88 H 0.795 0.74493 0.0761 0.0
H89 H 0.73873 0.69759 0.15169 0.0
H90 H 0.70219 0.8009 0.12829 0.0
O91 O 0.80208 0.7529 0.15784 0.0
O92 O 0.78215 0.80924 0.15022 0.0
O93 O 0.76557 0.79445 0.09862 0.0
C94 C 0.7954 0.78608 0.16543 0.0
H95 H 0.89879 0.84605 0.10077 0.0
H96 H 0.66627 0.69782 0.1581 0.0
H97 H 0.7895 0.68414 0.05606 0.0
H98 H 0.79663 0.63003 0.12316 0.0
Co99 Co 0.2476 0.76596 0.61482 0.0
C100 C 0.2439 0.68137 0.61938 0.0
C101 C 0.19149 0.70584 0.62586 0.0
C102 C 0.18626 0.66745 0.62726 0.0
N103 N 0.22774 0.71483 0.62103 0.0
N104 N 0.21926 0.65201 0.62309 0.0
H105 H 0.27294 0.67793 0.61571 0.0
H106 H 0.17008 0.72594 0.62789 0.0
C107 C 0.23109 0.76372 0.66573 0.0
O108 O 0.24254 0.7294 0.66552 0.0
N109 N 0.26624 0.81658 0.608 0.0
C110 C 0.29664 0.82598 0.59505 0.0
C111 C 0.30108 0.86438 0.59419 0.0
C112 C 0.2523 0.8494 0.61469 0.0
N113 N 0.27325 0.8792 0.60655 0.0
C114 C 0.31952 0.73463 0.61299 0.0
C115 C 0.35232 0.77836 0.64812 0.0
C116 C 0.37519 0.75703 0.63397 0.0
C117 C 0.35788 0.73365 0.61696 0.0
C118 C 0.31364 0.77758 0.64406 0.0
N119 N 0.29751 0.75598 0.62655 0.0
H120 H 0.30811 0.72001 0.59784 0.0
H121 H 0.29756 0.79724 0.65358 0.0
H122 H 0.31436 0.80623 0.58675 0.0
H123 H 0.22762 0.85137 0.62545 0.0
O124 O 0.25474 0.75222 0.58273 0.0
O125 O 0.20257 0.77488 0.59661 0.0
O126 O 0.23107 0.78296 0.64685 0.0
C127 C 0.22091 0.76222 0.57881 0.0
H128 H 0.15991 0.65216 0.63044 0.0
H129 H 0.32282 0.88013 0.5848 0.0
H130 H 0.36433 0.79764 0.66107 0.0
H131 H 0.37406 0.71621 0.60571 0.0
Co132 Co 0.2801 0.78672 0.87805 0.0
C133 C 0.36472 0.79008 0.87482 0.0
C134 C 0.34113 0.8434 0.86989 0.0
C135 C 0.37962 0.84814 0.86881 0.0
N136 N 0.33155 0.80686 0.87338 0.0
N137 N 0.39446 0.81457 0.87199 0.0
H138 H 0.36766 0.76075 0.87784 0.0
H139 H 0.32136 0.86524 0.8684 0.0
C140 C 0.28309 0.81145 0.82833 0.0
O141 O 0.31761 0.80052 0.828 0.0
N142 N 0.22919 0.76753 0.88346 0.0
C143 C 0.21944 0.73419 0.89314 0.0
C144 C 0.18117 0.7312 0.89539 0.0
C145 C 0.19665 0.78462 0.88011 0.0
N146 N 0.16667 0.76294 0.88734 0.0
C147 C 0.31043 0.71418 0.87574 0.0
C148 C 0.27035 0.68901 0.83685 0.0
C149 C 0.29124 0.66366 0.84945 0.0
C150 C 0.31203 0.67691 0.86885 0.0
C151 C 0.2698 0.72629 0.84423 0.0
N152 N 0.29007 0.73881 0.86335 0.0
H153 H 0.32368 0.72242 0.89208 0.0
H154 H 0.2505 0.74393 0.83558 0.0
H155 H 0.23887 0.71357 0.89849 0.0
H156 H 0.19514 0.81263 0.87314 0.0
O157 O 0.29295 0.77445 0.90965 0.0
O158 O 0.27118 0.82879 0.89878 0.0
O159 O 0.2637 0.80839 0.84709 0.0
C160 C 0.283 0.80755 0.91553 0.0
H161 H 0.39541 0.87448 0.86651 0.0
H162 H 0.16534 0.70725 0.90242 0.0
H163 H 0.25319 0.67976 0.82205 0.0
H164 H 0.32734 0.65805 0.87971 0.0
Co165 Co 0.26152 0.2448 0.37999 0.0
C166 C 0.25313 0.16101 0.37792 0.0
C167 C 0.21815 0.18344 0.40425 0.0
C168 C 0.21362 0.14503 0.4047 0.0
N169 N 0.24358 0.19372 0.38778 0.0
N170 N 0.23583 0.13084 0.38824 0.0
H171 H 0.27177 0.15911 0.36319 0.0
H172 H 0.20348 0.20212 0.41535 0.0
C173 C 0.21191 0.27668 0.41763 0.0
O174 O 0.18588 0.28575 0.40268 0.0
N175 N 0.27933 0.29545 0.37201 0.0
C176 C 0.31244 0.30426 0.3618 0.0
C177 C 0.31619 0.3424 0.35903 0.0
C178 C 0.26307 0.32853 0.37507 0.0
N179 N 0.28513 0.35795 0.3673 0.0
C180 C 0.3321 0.2119 0.38627 0.0
C181 C 0.36096 0.26528 0.41743 0.0
C182 C 0.38531 0.24124 0.40646 0.0
C183 C 0.36997 0.21269 0.39199 0.0
C184 C 0.32285 0.26288 0.4117 0.0
N185 N 0.30922 0.23758 0.39537 0.0
H186 H 0.32231 0.19285 0.37277 0.0
H187 H 0.30537 0.28411 0.41852 0.0
H188 H 0.33279 0.28423 0.35695 0.0
H189 H 0.23565 0.33094 0.38259 0.0
O190 O 0.27453 0.22868 0.34926 0.0
O191 O 0.21899 0.24912 0.35871 0.0
O192 O 0.24177 0.26225 0.41066 0.0
C193 C 0.24095 0.23595 0.34273 0.0
H194 H 0.19597 0.12886 0.4167 0.0
H195 H 0.34048 0.35731 0.35178 0.0
H196 H 0.37162 0.28795 0.42858 0.0
H197 H 0.38768 0.19309 0.38345 0.0
Co198 Co 0.77187 0.24431 0.88234 0.0
C199 C 0.68783 0.24306 0.87764 0.0
C200 C 0.70998 0.18938 0.87166 0.0
C201 C 0.6714 0.18561 0.87059 0.0
N202 N 0.72045 0.22551 0.87602 0.0
N203 N 0.65748 0.21944 0.87449 0.0
H204 H 0.68575 0.2724 0.88101 0.0
H205 H 0.72914 0.16706 0.86989 0.0
C206 C 0.76862 0.22727 0.8313 0.0
O207 O 0.73436 0.23886 0.83165 0.0
N208 N 0.82262 0.26242 0.88944 0.0
C209 C 0.83187 0.29202 0.90327 0.0
C210 C 0.8702 0.29677 0.90427 0.0
C211 C 0.85553 0.24929 0.88229 0.0
N212 N 0.8852 0.27 0.89107 0.0
C213 C 0.74298 0.31719 0.88522 0.0
C214 C 0.785 0.34865 0.84917 0.0
C215 C 0.76585 0.3721 0.86415 0.0
C216 C 0.74345 0.3557 0.88174 0.0
C217 C 0.78335 0.31 0.85306 0.0
N218 N 0.76256 0.2945 0.87099 0.0
H219 H 0.7287 0.30612 0.90049 0.0
H220 H 0.80182 0.29342 0.84296 0.0
H221 H 0.81204 0.30897 0.91213 0.0
H222 H 0.85765 0.22539 0.8708 0.0
O223 O 0.75839 0.25134 0.91448 0.0
O224 O 0.7802 0.19895 0.9003 0.0
O225 O 0.78833 0.22758 0.85011 0.0
C226 C 0.76782 0.21733 0.91819 0.0
H227 H 0.65497 0.15969 0.868 0.0
H228 H 0.88577 0.31797 0.91437 0.0
H229 H 0.80349 0.36021 0.83575 0.0
H230 H 0.72806 0.3727 0.89372 0.0
Co231 Co 0.77563 0.79395 0.37781 0.0
C232 C 0.77633 0.87811 0.37788 0.0
C233 C 0.82667 0.85672 0.39193 0.0
C234 C 0.83027 0.89515 0.39209 0.0
N235 N 0.79268 0.84582 0.38333 0.0
N236 N 0.79866 0.90871 0.38323 0.0
H237 H 0.74952 0.87945 0.36929 0.0
H238 H 0.84805 0.83813 0.39719 0.0
C239 C 0.8337 0.76623 0.41173 0.0
O240 O 0.85574 0.75584 0.39484 0.0
N241 N 0.7589 0.74215 0.37214 0.0
C242 C 0.72441 0.73108 0.36449 0.0
C243 C 0.72259 0.69286 0.36173 0.0
C244 C 0.77781 0.71034 0.37371 0.0
N245 N 0.75617 0.67968 0.36745 0.0
C246 C 0.70172 0.81893 0.38628 0.0
C247 C 0.68801 0.77526 0.42551 0.0
C248 C 0.65818 0.79288 0.41498 0.0
C249 C 0.66564 0.8161 0.39565 0.0
C250 C 0.72368 0.77897 0.41572 0.0
N251 N 0.73018 0.79996 0.39598 0.0
H252 H 0.7057 0.83375 0.37001 0.0
H253 H 0.74493 0.76213 0.4231 0.0
H254 H 0.70203 0.74959 0.36101 0.0
H255 H 0.80688 0.70959 0.37872 0.0
O256 O 0.75714 0.80703 0.34739 0.0
O257 O 0.81477 0.78974 0.35442 0.0
O258 O 0.80245 0.78037 0.40727 0.0
C259 C 0.79002 0.80048 0.3393 0.0
H260 H 0.85449 0.91175 0.39824 0.0
H261 H 0.69814 0.67611 0.35611 0.0
H262 H 0.6834 0.75698 0.44044 0.0
H263 H 0.64323 0.82956 0.38663 0.0
Co264 Co 0.77948 0.77863 0.88228 0.0
C265 C 0.86471 0.78625 0.88518 0.0
C266 C 0.83872 0.83759 0.87761 0.0
C267 C 0.87696 0.8444 0.87767 0.0
N268 N 0.83073 0.80104 0.88214 0.0
N269 N 0.89333 0.81208 0.88236 0.0
H270 H 0.86911 0.75713 0.88817 0.0
H271 H 0.81804 0.85788 0.87391 0.0
C272 C 0.79926 0.78915 0.8324 0.0
O273 O 0.83242 0.77841 0.83862 0.0
N274 N 0.72809 0.75813 0.88301 0.0
C275 C 0.71648 0.72519 0.89255 0.0
C276 C 0.67801 0.72264 0.89257 0.0
C277 C 0.69631 0.7755 0.87766 0.0
N278 N 0.66509 0.7544 0.88342 0.0
C279 C 0.81424 0.70934 0.89056 0.0
C280 C 0.78486 0.67232 0.8516 0.0
C281 C 0.80368 0.6519 0.8685 0.0
C282 C 0.81949 0.67121 0.88782 0.0
C283 C 0.78073 0.71058 0.85485 0.0
N284 N 0.79555 0.7289 0.87408 0.0
H285 H 0.82378 0.72276 0.90662 0.0
H286 H 0.76262 0.72446 0.84286 0.0
H287 H 0.73468 0.70482 0.89977 0.0
H288 H 0.69619 0.80367 0.87078 0.0
O289 O 0.7822 0.77389 0.91572 0.0
O290 O 0.76271 0.82399 0.89729 0.0
O291 O 0.77347 0.79171 0.84783 0.0
C292 C 0.7694 0.80708 0.91699 0.0
H293 H 0.89152 0.87112 0.8744 0.0
H294 H 0.661 0.69922 0.89924 0.0
H295 H 0.77094 0.65847 0.83684 0.0
H296 H 0.8343 0.6567 0.90137 0.0
Co297 Co 0.27343 0.74738 0.37393 0.0
C298 C 0.26948 0.66267 0.37019 0.0
C299 C 0.21607 0.6872 0.36824 0.0
C300 C 0.21041 0.64886 0.36762 0.0
N301 N 0.25307 0.69611 0.36985 0.0
N302 N 0.24399 0.63338 0.36888 0.0
H303 H 0.29909 0.65927 0.37212 0.0
H304 H 0.19444 0.70732 0.36803 0.0
C305 C 0.2132 0.76467 0.4084 0.0
O306 O 0.19536 0.78414 0.39284 0.0
N307 N 0.29276 0.79888 0.37803 0.0
C308 C 0.32912 0.81086 0.37754 0.0
C309 C 0.33145 0.84932 0.37804 0.0
C310 C 0.27345 0.83051 0.37836 0.0
N311 N 0.29644 0.86178 0.37842 0.0
C312 C 0.3449 0.71602 0.37972 0.0
C313 C 0.35693 0.74098 0.42511 0.0
C314 C 0.38713 0.72828 0.4123 0.0
C315 C 0.38039 0.71403 0.38973 0.0
C316 C 0.32163 0.74194 0.41459 0.0
N317 N 0.31619 0.73081 0.39181 0.0
H318 H 0.34129 0.70811 0.36156 0.0
H319 H 0.3 0.75514 0.42423 0.0
H320 H 0.35257 0.79309 0.37606 0.0
H321 H 0.24332 0.83077 0.37721 0.0
O322 O 0.29531 0.74752 0.34336 0.0
O323 O 0.23782 0.76458 0.35072 0.0
O324 O 0.24361 0.74952 0.40334 0.0
C325 C 0.26459 0.76088 0.33556 0.0
H326 H 0.18358 0.63358 0.36636 0.0
H327 H 0.35709 0.86671 0.37778 0.0
H328 H 0.36108 0.7523 0.4426 0.0
H329 H 0.40307 0.70446 0.37909 0.0
Co330 Co 0.27355 0.26275 0.8859 0.0
C331 C 0.18985 0.25833 0.88515 0.0
C332 C 0.21405 0.21573 0.86431 0.0
C333 C 0.17572 0.21101 0.86292 0.0
N334 N 0.22291 0.24538 0.87814 0.0
N335 N 0.16039 0.23772 0.87603 0.0
H336 H 0.1875 0.28201 0.8968 0.0
H337 H 0.23417 0.19868 0.8558 0.0
C338 C 0.30549 0.27858 0.83883 0.0
O339 O 0.32296 0.30811 0.84833 0.0
N340 N 0.32553 0.27798 0.89387 0.0
C341 C 0.33807 0.2959 0.91346 0.0
C342 C 0.37643 0.29555 0.91441 0.0
C343 C 0.3569 0.265 0.88403 0.0
N344 N 0.38842 0.27623 0.89585 0.0
C345 C 0.26775 0.34136 0.89537 0.0
C346 C 0.2424 0.36072 0.85145 0.0
C347 C 0.25568 0.38898 0.86681 0.0
C348 C 0.26643 0.37902 0.88946 0.0
C349 C 0.2444 0.32322 0.85815 0.0
N350 N 0.26063 0.3141 0.87902 0.0
H351 H 0.27511 0.33431 0.91299 0.0
H352 H 0.23504 0.30154 0.84595 0.0
H353 H 0.32088 0.30578 0.92742 0.0
H354 H 0.35656 0.24679 0.86888 0.0
O355 O 0.26105 0.26208 0.91851 0.0
O356 O 0.28282 0.21383 0.89907 0.0
O357 O 0.28747 0.25494 0.85192 0.0
C358 C 0.27158 0.22789 0.91879 0.0
H359 H 0.16038 0.18979 0.85271 0.0
H360 H 0.39392 0.30667 0.92857 0.0
H361 H 0.23259 0.36736 0.83404 0.0
H362 H 0.27469 0.40021 0.90233 0.0
Co363 Co 0.78051 0.29469 0.36733 0.0
C364 C 0.78725 0.37925 0.36652 0.0
C365 C 0.83928 0.35396 0.37326 0.0
C366 C 0.84538 0.3923 0.37393 0.0
N367 N 0.80277 0.34559 0.36874 0.0
N368 N 0.81261 0.40822 0.36969 0.0
H369 H 0.75808 0.38303 0.36314 0.0
H370 H 0.86015 0.33351 0.37601 0.0
C371 C 0.83135 0.2727 0.40698 0.0
O372 O 0.85506 0.25743 0.39277 0.0
N373 N 0.75899 0.2438 0.36604 0.0
C374 C 0.72464 0.23349 0.35781 0.0
C375 C 0.72008 0.19509 0.35849 0.0
C376 C 0.77512 0.21143 0.37132 0.0
N377 N 0.75181 0.18111 0.36698 0.0
C378 C 0.70949 0.32786 0.36748 0.0
C379 C 0.68499 0.29719 0.40942 0.0
C380 C 0.65908 0.31317 0.39446 0.0
C381 C 0.67226 0.33059 0.37394 0.0
C382 C 0.72239 0.29582 0.40257 0.0
N383 N 0.73408 0.31002 0.38142 0.0
H384 H 0.71771 0.33784 0.35036 0.0
H385 H 0.74062 0.28001 0.41341 0.0
H386 H 0.70448 0.25251 0.35125 0.0
H387 H 0.80332 0.21004 0.37796 0.0
O388 O 0.76727 0.30121 0.33514 0.0
O389 O 0.82128 0.27975 0.3471 0.0
O390 O 0.80163 0.28658 0.39924 0.0
C391 C 0.79942 0.28853 0.3298 0.0
H392 H 0.872 0.40723 0.3771 0.0
H393 H 0.69562 0.17874 0.35247 0.0
H394 H 0.67596 0.28289 0.42528 0.0
H395 H 0.65332 0.34374 0.36198 0.0
Co396 Co 0.73769 0.27473 0.12121 0.0
C397 C 0.65293 0.26927 0.12503 0.0
C398 C 0.6783 0.21623 0.1239 0.0
C399 C 0.64007 0.20991 0.1246 0.0
N400 N 0.68662 0.2534 0.12402 0.0
N401 N 0.62403 0.24323 0.12527 0.0
H402 H 0.64914 0.29897 0.12507 0.0
H403 H 0.69879 0.195 0.1231 0.0
C404 C 0.75881 0.21291 0.08838 0.0
O405 O 0.7771 0.19581 0.10486 0.0
N406 N 0.78902 0.29489 0.11838 0.0
C407 C 0.8005 0.33138 0.11899 0.0
C408 C 0.83901 0.33415 0.11893 0.0
C409 C 0.82088 0.27599 0.11842 0.0
N410 N 0.85188 0.29931 0.11866 0.0
C411 C 0.70548 0.34515 0.1126 0.0
C412 C 0.73516 0.35502 0.06829 0.0
C413 C 0.72154 0.3859 0.08005 0.0
C414 C 0.70472 0.38021 0.10194 0.0
C415 C 0.7348 0.3202 0.07938 0.0
N416 N 0.72157 0.31589 0.10175 0.0
H417 H 0.69628 0.34271 0.13053 0.0
H418 H 0.74896 0.29817 0.0707 0.0
H419 H 0.78232 0.35455 0.12011 0.0
H420 H 0.82149 0.24592 0.11956 0.0
O421 O 0.73489 0.29854 0.15118 0.0
O422 O 0.75403 0.24125 0.14593 0.0
O423 O 0.74279 0.24323 0.09253 0.0
C424 C 0.74847 0.2689 0.16027 0.0
H425 H 0.62524 0.18278 0.12479 0.0
H426 H 0.85612 0.35997 0.11935 0.0
H427 H 0.74848 0.35836 0.05136 0.0
H428 H 0.69442 0.40347 0.11179 0.0
Co429 Co 0.78287 0.76869 0.61319 0.0
C430 C 0.78748 0.85228 0.61348 0.0
C431 C 0.83252 0.82837 0.6324 0.0
C432 C 0.83713 0.86675 0.6336 0.0
N433 N 0.80145 0.81931 0.61984 0.0
N434 N 0.80884 0.88187 0.62172 0.0
H435 H 0.76247 0.85451 0.60293 0.0
H436 H 0.8505 0.80836 0.64025 0.0
C437 C 0.77076 0.73595 0.66122 0.0
O438 O 0.74122 0.71664 0.65315 0.0
N439 N 0.76559 0.71702 0.60658 0.0
C440 C 0.73764 0.70443 0.59219 0.0
C441 C 0.73648 0.66594 0.5918 0.0
C442 C 0.78193 0.68568 0.61398 0.0
N443 N 0.76422 0.65406 0.60555 0.0
C444 C 0.70855 0.78657 0.60003 0.0
C445 C 0.68011 0.79513 0.64446 0.0
C446 C 0.65517 0.79127 0.62545 0.0
C447 C 0.67029 0.79001 0.60288 0.0
C448 C 0.71864 0.79271 0.64062 0.0
N449 N 0.73171 0.78373 0.61892 0.0
H450 H 0.71906 0.78436 0.58245 0.0
H451 H 0.7375 0.79696 0.65526 0.0
H452 H 0.7199 0.72143 0.58184 0.0
H453 H 0.80607 0.68608 0.6255 0.0
O454 O 0.78485 0.77913 0.58026 0.0
O455 O 0.8318 0.75703 0.60067 0.0
O456 O 0.79098 0.75634 0.64733 0.0
C457 C 0.81873 0.76792 0.58058 0.0
H458 H 0.85928 0.88225 0.64295 0.0
H459 H 0.71731 0.64808 0.58154 0.0
H460 H 0.67007 0.79832 0.66218 0.0
H461 H 0.65256 0.79005 0.58744 0.0
Co462 Co 0.28538 0.77592 0.13072 0.0
C463 C 0.37011 0.78307 0.13376 0.0
C464 C 0.34544 0.83287 0.12163 0.0
C465 C 0.38381 0.83892 0.1218 0.0
N466 N 0.33661 0.79771 0.12891 0.0
N467 N 0.39941 0.80755 0.1294 0.0
H468 H 0.37357 0.75514 0.14003 0.0
H469 H 0.32532 0.85296 0.11653 0.0
C470 C 0.26429 0.82187 0.08888 0.0
O471 O 0.24969 0.84739 0.10212 0.0
N472 N 0.23427 0.75473 0.13251 0.0
C473 C 0.22437 0.72111 0.1418 0.0
C474 C 0.18599 0.71667 0.14209 0.0
C475 C 0.20151 0.77054 0.12745 0.0
N476 N 0.17143 0.74776 0.13318 0.0
C477 C 0.31916 0.70522 0.13402 0.0
C478 C 0.29059 0.67591 0.09246 0.0
C479 C 0.30803 0.65214 0.10816 0.0
C480 C 0.32408 0.66783 0.12861 0.0
C481 C 0.28727 0.71361 0.09821 0.0
N482 N 0.30084 0.7278 0.11904 0.0
H483 H 0.32812 0.71525 0.15107 0.0
H484 H 0.27081 0.73011 0.08666 0.0
H485 H 0.24371 0.70136 0.14847 0.0
H486 H 0.19968 0.79854 0.12059 0.0
O487 O 0.29125 0.76713 0.16357 0.0
O488 O 0.27044 0.81941 0.14843 0.0
O489 O 0.27757 0.79277 0.09785 0.0
C490 C 0.2786 0.80001 0.16692 0.0
H491 H 0.39896 0.86466 0.11693 0.0
H492 H 0.17008 0.69229 0.14849 0.0
H493 H 0.27703 0.66506 0.07669 0.0
H494 H 0.33836 0.65085 0.14117 0.0
Co495 Co 0.25854 0.26656 0.62392 0.0
C496 C 0.2531 0.18229 0.61927 0.0
C497 C 0.20639 0.20504 0.63681 0.0
C498 C 0.20095 0.16674 0.63607 0.0
N499 N 0.23913 0.21494 0.62644 0.0
N500 N 0.23031 0.15229 0.62506 0.0
H501 H 0.27895 0.18026 0.6098 0.0
H502 H 0.18778 0.22446 0.64462 0.0
C503 C 0.23021 0.29651 0.67043 0.0
O504 O 0.21663 0.32651 0.66117 0.0
N505 N 0.2772 0.31884 0.62143 0.0
C506 C 0.31311 0.33144 0.61844 0.0
C507 C 0.31446 0.36974 0.61622 0.0
C508 C 0.25715 0.35004 0.62014 0.0
N509 N 0.27929 0.38157 0.61736 0.0
C510 C 0.33084 0.2365 0.61693 0.0
C511 C 0.3615 0.2594 0.65943 0.0
C512 C 0.38486 0.24501 0.64241 0.0
C513 C 0.36893 0.2323 0.62122 0.0
C514 C 0.32358 0.26287 0.65458 0.0
N515 N 0.3086 0.25225 0.6333 0.0
H516 H 0.31986 0.22905 0.59984 0.0
H517 H 0.30757 0.27686 0.66754 0.0
H518 H 0.33707 0.3143 0.61749 0.0
H519 H 0.22689 0.3497 0.62048 0.0
O520 O 0.26317 0.26132 0.59068 0.0
O521 O 0.2119 0.27913 0.60848 0.0
O522 O 0.24524 0.27212 0.65778 0.0
C523 C 0.2289 0.27132 0.58904 0.0
H524 H 0.17747 0.15079 0.64359 0.0
H525 H 0.3396 0.38752 0.6141 0.0
H526 H 0.37278 0.26952 0.67605 0.0
H527 H 0.38618 0.22148 0.60746 0.0
H528 H 0.91114 0.34117 0.13625 0.0
H529 H 0.06165 0.18935 0.10632 0.0
H530 H 0.88158 0.23467 0.1037 0.0
H531 H 0.08911 0.29609 0.13917 0.0
H532 H 0.99575 0.20481 0.10529 0.0
H533 H 0.97641 0.32474 0.13727 0.0
C534 C 0.91831 0.31438 0.12916 0.0
C535 C 0.89061 0.28939 0.11974 0.0
C536 C 1.01623 0.22485 0.1127 0.0
C537 C 0.96582 0.2701 0.12112 0.0
C538 C 0.05391 0.21597 0.1134 0.0
C539 C 0.08122 0.24145 0.12281 0.0
C540 C 1.0056 0.25946 0.12152 0.0
C541 C 0.06936 0.27574 0.13142 0.0
C542 C 0.95571 0.3049 0.12989 0.0
C543 C 0.90181 0.25472 0.1113 0.0
N544 N 0.03256 0.28367 0.13058 0.0
N545 N 0.93852 0.24615 0.11213 0.0
H546 H 0.71106 0.09704 0.6083 0.0
H547 H 0.86118 0.93969 0.62358 0.0
H548 H 0.82976 0.12228 0.61613 0.0
H549 H 0.74272 0.91489 0.61406 0.0
H550 H 0.85027 1.0064 0.62122 0.0
H551 H 0.72218 0.03049 0.61081 0.0
C552 C 0.73955 0.08867 0.61044 0.0
C553 C 0.76955 0.11556 0.61178 0.0
C554 C 0.82664 0.98641 0.61962 0.0
C555 C 0.78247 0.03881 0.61493 0.0
C556 C 0.83281 0.94819 0.62108 0.0
C557 C 0.80279 0.92139 0.61916 0.0
C558 C 0.79013 0.99823 0.61625 0.0
C559 C 0.76677 0.93435 0.61545 0.0
C560 C 0.74585 0.05052 0.61198 0.0
C561 C 0.80573 0.10274 0.61513 0.0
N562 N 0.76145 0.97177 0.6142 0.0
N563 N 0.81117 0.06534 0.6165 0.0
H564 H 0.95442 0.82063 0.08929 0.0
H565 H 0.11421 0.71713 0.15923 0.0
H566 H 0.93173 0.74389 0.14629 0.0
H567 H 0.13774 0.79453 0.10271 0.0
H568 H 0.04759 0.72653 0.15456 0.0
H569 H 0.02121 0.8112 0.09369 0.0
C570 C 0.96337 0.80186 0.10282 0.0
C571 C 0.93709 0.78327 0.11756 0.0
C572 C 0.06723 0.74149 0.14314 0.0
C573 C 1.01416 0.77206 0.12256 0.0
C574 C 0.10546 0.73599 0.14571 0.0
C575 C 0.13193 0.75478 0.13118 0.0
C576 C 0.05494 0.76602 0.12589 0.0
C577 C 0.11855 0.77957 0.11438 0.0
C578 C 1.00167 0.79638 0.10524 0.0
C579 C 0.95069 0.75867 0.13441 0.0
N580 N 0.08106 0.78435 0.11214 0.0
N581 N 0.98819 0.75392 0.13648 0.0
H582 H 0.3259 0.93672 0.6056 0.0
H583 H 0.17733 0.09497 0.62304 0.0
H584 H 0.20752 0.91237 0.61503 0.0
H585 H 0.2966 0.11891 0.61854 0.0
H586 H 0.18771 0.02839 0.61908 0.0
H587 H 0.31556 1.00341 0.60935 0.0
C588 C 0.29765 0.94533 0.60836 0.0
C589 C 0.26749 0.91867 0.60983 0.0
C590 C 0.21164 0.04816 0.61895 0.0
C591 C 0.25547 0.99549 0.61433 0.0
C592 C 0.20577 0.08634 0.62131 0.0
C593 C 0.23615 0.1129 0.62132 0.0
C594 C 0.24821 0.0361 0.61651 0.0
C595 C 0.27226 0.09971 0.61846 0.0
C596 C 0.29181 0.98353 0.61062 0.0
C597 C 0.23165 0.93173 0.61393 0.0
N598 N 0.27727 0.06232 0.61625 0.0
N599 N 0.22664 0.96915 0.61593 0.0
H600 H 0.9491 0.85161 0.85952 0.0
H601 H 0.11117 0.73184 0.91462 0.0
H602 H 0.92888 0.75885 0.90674 0.0
H603 H 0.13174 0.81383 0.86019 0.0
H604 H 0.04495 0.74412 0.91331 0.0
H605 H 1.01619 0.84106 0.86103 0.0
C606 C 0.95871 0.82916 0.87033 0.0
C607 C 0.9331 0.80612 0.88306 0.0
C608 C 0.06386 0.75944 0.9016 0.0
C609 C 1.01017 0.79375 0.88474 0.0
C610 C 0.10189 0.75229 0.90223 0.0
C611 C 0.12742 0.77147 0.88728 0.0
C612 C 0.05083 0.78618 0.886 0.0
C613 C 0.11334 0.79843 0.87212 0.0
C614 C 0.99708 0.82302 0.87106 0.0
C615 C 0.94736 0.77708 0.89645 0.0
N616 N 0.07603 0.80491 0.87183 0.0
N617 N 0.98483 0.77182 0.89697 0.0
H618 H 0.33775 0.92159 0.36145 0.0
H619 H 0.18841 0.07088 0.39781 0.0
H620 H 0.23167 0.89078 0.39362 0.0
H621 H 0.29756 0.10074 0.3695 0.0
H622 H 0.20166 1.00476 0.39396 0.0
H623 H 0.32153 0.98692 0.36199 0.0
C624 C 0.31107 0.92848 0.36875 0.0
C625 C 0.28624 0.90043 0.37775 0.0
C626 C 0.22264 0.02578 0.38848 0.0
C627 C 0.26719 0.97573 0.37813 0.0
C628 C 0.21515 0.06363 0.39075 0.0
C629 C 0.24198 0.09167 0.38413 0.0
C630 C 0.25727 1.01567 0.37954 0.0
C631 C 0.27585 0.08032 0.37467 0.0
C632 C 0.30171 0.96592 0.3689 0.0
C633 C 0.25164 0.91129 0.38641 0.0
N634 N 0.28257 0.0433 0.3728 0.0
N635 N 0.24324 0.94806 0.3865 0.0
H636 H 0.91898 0.20553 0.88007 0.0
H637 H 0.12652 0.30219 0.88678 0.0
H638 H 0.94225 0.32293 0.89446 0.0
H639 H 0.10333 0.18488 0.8721 0.0
H640 H 0.0591 0.31027 0.89007 0.0
H641 H 0.98636 0.19749 0.8765 0.0
C642 C 0.93814 0.22966 0.88232 0.0
C643 C 0.92473 0.2649 0.88775 0.0
C644 C 0.0688 0.28275 0.88612 0.0
C645 C 1.00213 0.25586 0.88393 0.0
C646 C 0.10736 0.27809 0.88441 0.0
C647 C 0.1208 0.24284 0.87903 0.0
C648 C 0.04338 0.25194 0.88251 0.0
C649 C 0.09442 0.2127 0.87587 0.0
C650 C 0.97669 0.22502 0.88044 0.0
C651 C 0.95113 0.29509 0.8907 0.0
N652 N 0.05712 0.21795 0.87763 0.0
N653 N 0.98841 0.28986 0.88879 0.0
H654 H 0.8197 0.14939 0.36794 0.0
H655 H 0.73064 0.93989 0.38122 0.0
H656 H 0.70087 0.12267 0.37246 0.0
H657 H 0.84942 0.9673 0.37785 0.0
H658 H 0.71897 1.00651 0.37724 0.0
H659 H 0.83107 0.08279 0.3716 0.0
C660 C 0.79598 0.12967 0.36985 0.0
C661 C 0.75923 0.14192 0.36979 0.0
C662 C 0.74759 0.99791 0.37737 0.0
C663 C 0.77208 0.06522 0.37374 0.0
C664 C 0.75426 0.95979 0.37949 0.0
C665 C 0.79109 0.94777 0.38 0.0
C666 C 0.77795 0.02434 0.37568 0.0
C667 C 0.82058 0.9751 0.37795 0.0
C668 C 0.80249 0.09151 0.37179 0.0
C669 C 0.72965 0.1147 0.37203 0.0
N670 N 0.81338 1.01195 0.3759 0.0
N671 N 0.73671 0.07777 0.37389 0.0
H672 H 0.26406 0.41939 0.13671 0.0
H673 H 0.30893 0.61011 0.06725 0.0
H674 H 0.24969 0.4263 0.06183 0.0
H675 H 0.29729 0.59949 0.1423 0.0
H676 H 0.29612 0.54214 0.06354 0.0
H677 H 0.28656 0.48442 0.13757 0.0
C678 C 0.26539 0.43489 0.12041 0.0
C679 C 0.25402 0.41792 0.09926 0.0
C680 C 0.29688 0.55489 0.08076 0.0
C681 C 0.28011 0.4927 0.10003 0.0
C682 C 0.30408 0.59363 0.08293 0.0
C683 C 0.30453 0.61077 0.10516 0.0
C684 C 0.29027 0.53332 0.10098 0.0
C685 C 0.29832 0.58785 0.12483 0.0
C686 C 0.27843 0.47201 0.12088 0.0
C687 C 0.25767 0.43877 0.07852 0.0
N688 N 0.29142 0.55055 0.12223 0.0
N689 N 0.27008 0.47545 0.07943 0.0
H690 H 0.43514 0.19118 0.63337 0.0
H691 H 0.61351 0.33128 0.647 0.0
H692 H 0.42817 0.3046 0.65832 0.0
H693 H 0.62176 0.21132 0.64679 0.0
H694 H 0.54522 0.32251 0.64958 0.0
H695 H 0.50367 0.19805 0.6364 0.0
C696 C 0.44806 0.21738 0.63963 0.0
C697 C 0.42604 0.2473 0.6457 0.0
C698 C 0.56201 0.29811 0.64926 0.0
C699 C 0.50406 0.25552 0.64896 0.0
C700 C 0.60088 0.30313 0.64774 0.0
C701 C 0.62317 0.27199 0.64678 0.0
C702 C 0.54532 0.26169 0.64935 0.0
C703 C 0.60553 0.23606 0.64777 0.0
C704 C 0.48706 0.22126 0.64145 0.0
C705 C 0.4441 0.28068 0.65375 0.0
N706 N 0.56758 0.23187 0.64874 0.0
N707 N 0.48205 0.28401 0.65493 0.0
H708 H 0.7894 0.41476 0.06557 0.0
H709 H 0.7279 0.62665 0.06555 0.0
H710 H 0.67565 0.44526 0.07711 0.0
H711 H 0.83659 0.59319 0.08784 0.0
H712 H 0.71022 0.56094 0.0562 0.0
H713 H 0.80796 0.4809 0.05995 0.0
C714 C 0.7681 0.43528 0.06622 0.0
C715 C 0.73091 0.42457 0.07188 0.0
C716 C 0.73821 0.56818 0.06261 0.0
C717 C 0.7521 0.50018 0.06567 0.0
C718 C 0.74839 0.60556 0.06773 0.0
C719 C 0.7837 0.61505 0.07742 0.0
C720 C 0.76379 0.54041 0.06693 0.0
C721 C 0.80912 0.58681 0.08036 0.0
C722 C 0.77881 0.473 0.06322 0.0
C723 C 0.70463 0.45243 0.07293 0.0
N724 N 0.79861 0.55066 0.07525 0.0
N725 N 0.71578 0.48906 0.07002 0.0
H726 H 0.60689 0.74573 0.60014 0.0
H727 H 0.42172 0.77162 0.67234 0.0
H728 H 0.60928 0.82271 0.65866 0.0
H729 H 0.42402 0.75601 0.59726 0.0
H730 H 0.49044 0.78093 0.67211 0.0
H731 H 0.53949 0.73788 0.60378 0.0
C732 C 0.59329 0.76145 0.61361 0.0
C733 C 0.61395 0.78588 0.62866 0.0
C734 C 0.47557 0.77533 0.65581 0.0
C735 C 0.53629 0.77572 0.63339 0.0
C736 C 0.43644 0.77004 0.65587 0.0
C737 C 0.41681 0.76218 0.63485 0.0
C738 C 0.49502 0.77217 0.63466 0.0
C739 C 0.4376 0.76049 0.61407 0.0
C740 C 0.55473 0.75662 0.61578 0.0
C741 C 0.59456 0.80383 0.64655 0.0
N742 N 0.47541 0.7651 0.61457 0.0
N743 N 0.55663 0.79847 0.64841 0.0
H744 H 0.20566 0.4329 0.84417 0.0
H745 H 0.34691 0.61379 0.84957 0.0
H746 H 0.31829 0.43412 0.87166 0.0
H747 H 0.22784 0.62047 0.83879 0.0
H748 H 0.33915 0.54557 0.84889 0.0
H749 H 0.21551 0.49956 0.834 0.0
C750 C 0.23249 0.44715 0.84786 0.0
C751 C 0.261 0.42836 0.85912 0.0
C752 C 0.31476 0.56194 0.84639 0.0
C753 C 0.2726 0.50387 0.84737 0.0
C754 C 0.31919 0.60087 0.84675 0.0
C755 C 0.28793 0.62284 0.84456 0.0
C756 C 0.27877 0.54475 0.84389 0.0
C757 C 0.25274 0.60462 0.84051 0.0
C758 C 0.23809 0.48507 0.84211 0.0
C759 C 0.29533 0.44788 0.86344 0.0
N760 N 0.24901 0.56658 0.84061 0.0
N761 N 0.30011 0.48454 0.85765 0.0
H762 H 0.61807 0.31391 0.43554 0.0
H763 H 0.43167 0.23933 0.36907 0.0
H764 H 0.60725 0.29387 0.36113 0.0
H765 H 0.43201 0.26515 0.44301 0.0
H766 H 0.49745 0.25749 0.36731 0.0
H767 H 0.55112 0.29573 0.43997 0.0
C768 C 0.60163 0.30607 0.42016 0.0
C769 C 0.61825 0.30592 0.39788 0.0
C770 C 0.48344 0.25908 0.38404 0.0
C771 C 0.54227 0.2849 0.40285 0.0
C772 C 0.44577 0.24815 0.38513 0.0
C773 C 0.4263 0.25001 0.40634 0.0
C774 C 0.50223 0.27237 0.40424 0.0
C775 C 0.44602 0.26317 0.42632 0.0
C776 C 0.56353 0.29574 0.42271 0.0
C777 C 0.59569 0.29544 0.37857 0.0
N778 N 0.48307 0.27387 0.42481 0.0
N779 N 0.55909 0.28532 0.38155 0.0
H780 H 0.79467 0.60297 0.90499 0.0
H781 H 0.77247 0.41877 0.82575 0.0
H782 H 0.8086 0.60577 0.82988 0.0
H783 H 0.77663 0.41927 0.90134 0.0
H784 H 0.78509 0.48696 0.82611 0.0
H785 H 0.78801 0.53528 0.90332 0.0
C786 C 0.79705 0.58938 0.88814 0.0
C787 C 0.80255 0.61031 0.86756 0.0
C788 C 0.78317 0.47201 0.84257 0.0
C789 C 0.79366 0.53218 0.86545 0.0
C790 C 0.77598 0.43317 0.84237 0.0
C791 C 0.77282 0.41335 0.86355 0.0
C792 C 0.78728 0.49097 0.86409 0.0
C793 C 0.77772 0.4334 0.88459 0.0
C794 C 0.79282 0.55056 0.88717 0.0
C795 C 0.8041 0.59084 0.84617 0.0
N796 N 0.78456 0.47099 0.8843 0.0
N797 N 0.7995 0.55283 0.84565 0.0
H798 H 0.41831 0.7927 0.43117 0.0
H799 H 0.62698 0.72324 0.42402 0.0
H800 H 0.44502 0.68062 0.41136 0.0
H801 H 0.59994 0.83944 0.42076 0.0
H802 H 0.56073 0.70583 0.42977 0.0
H803 H 0.48493 0.80806 0.4379 0.0
C804 C 0.43811 0.77101 0.42883 0.0
C805 C 0.42619 0.73533 0.42061 0.0
C806 C 0.56937 0.73517 0.42813 0.0
C807 C 0.50238 0.75293 0.42796 0.0
C808 C 0.60721 0.74519 0.42504 0.0
C809 C 0.61897 0.78289 0.42183 0.0
C810 C 0.54306 0.76301 0.42812 0.0
C811 C 0.59199 0.81005 0.42293 0.0
C812 C 0.47613 0.77994 0.43246 0.0
C813 C 0.45312 0.70853 0.4175 0.0
N814 N 0.55522 0.79956 0.42586 0.0
N815 N 0.49003 0.71796 0.42103 0.0
H816 H 0.18738 0.18471 0.05267 0.0
H817 H 0.32996 0.22723 0.9491 0.0
H818 H 0.29981 0.23076 0.06348 0.0
H819 H 0.21506 0.18791 0.94003 0.0
H820 H 0.32543 0.213 0.99108 0.0
H821 H 0.2031 0.16948 0.01237 0.0
C822 C 0.21575 0.19075 0.04664 0.0
C823 C 0.24226 0.20928 0.06127 0.0
C824 C 0.30155 0.20634 0.97983 0.0
C825 C 0.26022 0.19309 0.01484 0.0
C826 C 0.30427 0.21408 0.95587 0.0
C827 C 0.27296 0.20813 0.94123 0.0
C828 C 0.26705 0.19311 0.98914 0.0
C829 C 0.23994 0.19226 0.95079 0.0
C830 C 0.22469 0.18222 0.02358 0.0
C831 C 0.27861 0.21641 0.0527 0.0
N832 N 0.2377 0.18571 0.9742 0.0
N833 N 0.28634 0.20904 0.02982 0.0
H834 H 0.81206 0.32913 0.43506 0.0
H835 H 0.86137 0.2297 0.55612 0.0
H836 H 0.86707 0.22445 0.4367 0.0
H837 H 0.78941 0.32213 0.54779 0.0
H838 H 0.87462 0.23217 0.51367 0.0
H839 H 0.81559 0.33244 0.47742 0.0
C840 C 0.82515 0.30685 0.44442 0.0
C841 C 0.83877 0.27617 0.43239 0.0
C842 C 0.85633 0.25212 0.52129 0.0
C843 C 0.8424 0.27942 0.48131 0.0
C844 C 0.84896 0.25086 0.54544 0.0
C845 C 0.82404 0.27556 0.55533 0.0
C846 C 0.83901 0.27864 0.50725 0.0
C847 C 0.80846 0.30229 0.54083 0.0
C848 C 0.82715 0.30872 0.46867 0.0
C849 C 0.85609 0.24848 0.44539 0.0
N850 N 0.8161 0.30301 0.51763 0.0
N851 N 0.85692 0.25043 0.4693 0.0
H852 H 0.81935 0.8353 0.94892 0.0
H853 H 0.68286 0.77747 0.05167 0.0
H854 H 0.70165 0.80976 0.93794 0.0
H855 H 0.79215 0.8311 0.06342 0.0
H856 H 0.68641 0.79616 0.01055 0.0
H857 H 0.80796 0.84197 0.99095 0.0
C858 C 0.79087 0.83257 0.95536 0.0
C859 C 0.76126 0.82269 0.94009 0.0
C860 C 0.70933 0.80448 0.0222 0.0
C861 C 0.74812 0.82829 0.98817 0.0
C862 C 0.70733 0.79376 0.04571 0.0
C863 C 0.73745 0.80227 0.06099 0.0
C864 C 0.74197 0.82332 0.01377 0.0
C865 C 0.76832 0.82371 0.05229 0.0
C866 C 0.78436 0.83602 0.97935 0.0
C867 C 0.72502 0.81817 0.94923 0.0
N868 N 0.77007 0.83287 0.02919 0.0
N869 N 0.71952 0.82034 0.97276 0.0
H870 H 0.21583 0.70308 0.43538 0.0
H871 H 0.17814 0.8116 0.55475 0.0
H872 H 0.18063 0.81668 0.43652 0.0
H873 H 0.22963 0.70554 0.54866 0.0
H874 H 0.16436 0.80947 0.51233 0.0
H875 H 0.20525 0.69869 0.47734 0.0
C876 C 0.20528 0.72697 0.44451 0.0
C877 C 0.1995 0.76042 0.43261 0.0
C878 C 0.17797 0.78637 0.52044 0.0
C879 C 0.18828 0.75606 0.48094 0.0
C880 C 0.18557 0.78747 0.54459 0.0
C881 C 0.20525 0.75881 0.55499 0.0
C882 C 0.18983 0.75618 0.50695 0.0
C883 C 0.21471 0.72835 0.54118 0.0
C884 C 0.19933 0.72453 0.46851 0.0
C885 C 0.18545 0.79042 0.44518 0.0
N886 N 0.20714 0.72796 0.51792 0.0
N887 N 0.18099 0.78782 0.46885 0.0
H888 H 0.33204 0.78534 0.94789 0.0
H889 H 0.22576 0.86719 0.05862 0.0
H890 H 0.23771 0.85489 0.93956 0.0
H891 H 0.31353 0.78848 0.06086 0.0
H892 H 0.23323 0.87096 0.01566 0.0
H893 H 0.33035 0.79537 0.98987 0.0
C894 C 0.3111 0.8031 0.95498 0.0
C895 C 0.28478 0.81903 0.94033 0.0
C896 C 0.2509 0.85312 0.02571 0.0
C897 C 0.28194 0.83007 0.98875 0.0
C898 C 0.24668 0.85099 0.05015 0.0
C899 C 0.26868 0.82711 0.0633 0.0
C900 C 0.2776 0.83156 0.01461 0.0
C901 C 0.29546 0.80682 0.0515 0.0
C902 C 0.31003 0.80878 0.97902 0.0
C903 C 0.25851 0.84214 0.95038 0.0
N904 N 0.29901 0.80947 0.02798 0.0
N905 N 0.25734 0.84658 0.97413 0.0
H906 H 0.16851 0.32308 0.44442 0.0
H907 H 0.21919 0.21186 0.56081 0.0
H908 H 0.24046 0.22984 0.44932 0.0
H909 H 0.19987 0.32969 0.56456 0.0
H910 H 0.20512 0.21257 0.51898 0.0
H911 H 0.16177 0.32159 0.48764 0.0
C912 C 0.18248 0.30219 0.45447 0.0
C913 C 0.2052 0.27668 0.44324 0.0
C914 C 0.20319 0.2382 0.52896 0.0
C915 C 0.19683 0.2742 0.49203 0.0
C916 C 0.21091 0.2377 0.55283 0.0
C917 C 0.21059 0.27071 0.56596 0.0
C918 C 0.19584 0.27218 0.51796 0.0
C919 C 0.20004 0.30362 0.55488 0.0
C920 C 0.17868 0.3014 0.47901 0.0
C921 C 0.22282 0.25025 0.45708 0.0
N922 N 0.19365 0.30376 0.53126 0.0
N923 N 0.21811 0.24964 0.48056 0.0
H924 H 0.69899 0.21231 0.05946 0.0
H925 H 0.81796 0.17792 0.94398 0.0
H926 H 0.81413 0.18189 0.06221 0.0
H927 H 0.70818 0.22242 0.94619 0.0
H928 H 0.81354 0.16483 0.98638 0.0
H929 H 0.69801 0.20063 0.01748 0.0
C930 C 0.72396 0.20254 0.05118 0.0
C931 C 0.75678 0.19839 0.06419 0.0
C932 C 0.79015 0.17668 0.97742 0.0
C933 C 0.75634 0.18598 0.01584 0.0
C934 C 0.79256 0.18385 0.95328 0.0
C935 C 0.76342 0.20138 0.9418 0.0
C936 C 0.75822 0.18687 0.98982 0.0
C937 C 0.73132 0.2091 0.95452 0.0
C938 C 0.72347 0.19597 0.02717 0.0
C939 C 0.78827 0.18538 0.0527 0.0
N940 N 0.7297 0.20203 0.9778 0.0
N941 N 0.78755 0.18031 0.02899 0.0
H942 H 0.86298 0.70942 0.43769 0.0
H943 H 0.84047 0.82832 0.55527 0.0
H944 H 0.83146 0.82406 0.44186 0.0
H945 H 0.84158 0.70796 0.55542 0.0
H946 H 0.85723 0.82863 0.51387 0.0
H947 H 0.8729 0.70977 0.48059 0.0
C948 C 0.85909 0.73484 0.44756 0.0
C949 C 0.84622 0.7667 0.43638 0.0
C950 C 0.85472 0.80209 0.52298 0.0
C951 C 0.85765 0.76745 0.48494 0.0
C952 C 0.84558 0.802 0.54667 0.0
C953 C 0.84007 0.76813 0.55866 0.0
C954 C 0.85739 0.76795 0.51099 0.0
C955 C 0.8462 0.73466 0.54672 0.0
C956 C 0.86454 0.73499 0.47196 0.0
C957 C 0.84116 0.79884 0.44986 0.0
N958 N 0.8539 0.73531 0.52333 0.0
N959 N 0.84674 0.79833 0.47334 0.0
H960 H 0.56751 0.19835 0.10698 0.0
H961 H 0.40673 0.31917 0.16136 0.0
H962 H 0.58924 0.30148 0.14506 0.0
H963 H 0.38333 0.23151 0.11046 0.0
H964 H 0.47319 0.31008 0.15739 0.0
H965 H 0.50018 0.20723 0.10976 0.0
C966 C 0.55816 0.22284 0.11599 0.0
C967 C 0.58424 0.24913 0.12592 0.0
C968 C 0.45361 0.29286 0.14701 0.0
C969 C 0.50689 0.25946 0.12914 0.0
C970 C 0.41535 0.29813 0.14916 0.0
C971 C 0.38885 0.27646 0.13597 0.0
C972 C 0.46602 0.26539 0.13173 0.0
C973 C 0.40241 0.24886 0.12106 0.0
C974 C 0.51966 0.22797 0.11745 0.0
C975 C 0.57033 0.28062 0.13702 0.0
N976 N 0.43999 0.24414 0.11934 0.0
N977 N 0.5327 0.28475 0.13846 0.0
H978 H 0.74785 0.41442 0.62429 0.0
H979 H 0.83225 0.62604 0.6151 0.0
H980 H 0.86648 0.4426 0.61945 0.0
H981 H 0.71529 0.59371 0.60593 0.0
H982 H 0.84553 0.5598 0.62059 0.0
H983 H 0.73567 0.4806 0.62098 0.0
C984 C 0.77144 0.43428 0.62241 0.0
C985 C 0.80835 0.42234 0.62199 0.0
C986 C 0.81696 0.56727 0.61739 0.0
C987 C 0.79437 0.49899 0.61858 0.0
C988 C 0.80935 0.6051 0.61441 0.0
C989 C 0.77263 0.61549 0.60987 0.0
C990 C 0.78757 0.53966 0.6161 0.0
C991 C 0.74409 0.58703 0.609 0.0
C992 C 0.76439 0.4723 0.62064 0.0
C993 C 0.83758 0.45008 0.62005 0.0
N994 N 0.75214 0.55058 0.61208 0.0
N995 N 0.82996 0.48696 0.6184 0.0
H996 H 0.61415 0.72758 0.17123 0.0
H997 H 0.45739 0.84265 0.10597 0.0
H998 H 0.63904 0.80379 0.11427 0.0
H999 H 0.43271 0.75833 0.15837 0.0
H1000 H 0.5241 0.83185 0.11027 0.0
H1001 H 0.54826 0.74158 0.16826 0.0
C1002 C 0.60587 0.74727 0.15805 0.0
C1003 C 0.63248 0.76422 0.14284 0.0
C1004 C 0.5041 0.81573 0.12085 0.0
C1005 C 0.55638 0.78073 0.13947 0.0
C1006 C 0.4659 0.82202 0.1185 0.0
C1007 C 0.43907 0.8014 0.13183 0.0
C1008 C 0.51589 0.7887 0.13672 0.0
C1009 C 0.45208 0.77463 0.14751 0.0
C1010 C 0.56807 0.75536 0.15643 0.0
C1011 C 0.61979 0.79017 0.12648 0.0
N1012 N 0.48942 0.76913 0.14952 0.0
N1013 N 0.58271 0.79747 0.12517 0.0
H1014 H 0.31577 0.43981 0.59534 0.0
H1015 H 0.17939 0.5938 0.64351 0.0
H1016 H 0.2183 0.41171 0.63721 0.0
H1017 H 0.27541 0.61909 0.59971 0.0
H1018 H 0.19193 0.52722 0.64097 0.0
H1019 H 0.30024 0.5054 0.5963 0.0
C1020 C 0.29106 0.44739 0.60478 0.0
C1021 C 0.2685 0.42004 0.61637 0.0
C1022 C 0.21022 0.54737 0.63191 0.0
C1023 C 0.25031 0.49568 0.61747 0.0
C1024 C 0.20301 0.58549 0.63327 0.0
C1025 C 0.22641 0.61246 0.62189 0.0
C1026 C 0.24109 0.53591 0.61904 0.0
C1027 C 0.25687 0.59971 0.60913 0.0
C1028 C 0.2821 0.48497 0.60524 0.0
C1029 C 0.23639 0.4317 0.62791 0.0
N1030 N 0.26327 0.56253 0.60808 0.0
N1031 N 0.22839 0.46863 0.62829 0.0
H1032 H 0.60594 0.72383 0.908 0.0
H1033 H 0.45299 0.85308 0.85108 0.0
H1034 H 0.6343 0.80754 0.85577 0.0
H1035 H 0.4265 0.75822 0.89563 0.0
H1036 H 0.51951 0.83959 0.85372 0.0
H1037 H 0.54067 0.73865 0.90471 0.0
C1038 C 0.59863 0.74516 0.89564 0.0
C1039 C 0.62614 0.76406 0.88193 0.0
C1040 C 0.4991 0.8217 0.86287 0.0
C1041 C 0.55038 0.7818 0.87839 0.0
C1042 C 0.46108 0.8295 0.86147 0.0
C1043 C 0.43385 0.80674 0.87311 0.0
C1044 C 0.51018 0.79108 0.87616 0.0
C1045 C 0.44617 0.7763 0.88608 0.0
C1046 C 0.56106 0.75378 0.89388 0.0
C1047 C 0.61436 0.79223 0.86677 0.0
N1048 N 0.48327 0.7695 0.8873 0.0
N1049 N 0.57742 0.8002 0.86539 0.0
H1050 H 0.2302 0.39305 0.39114 0.0
H1051 H 0.30556 0.59916 0.35332 0.0
H1052 H 0.32356 0.41498 0.34447 0.0
H1053 H 0.19787 0.57676 0.3855 0.0
H1054 H 0.3155 0.53185 0.35331 0.0
H1055 H 0.22009 0.46022 0.39202 0.0
C1056 C 0.24856 0.41163 0.38101 0.0
C1057 C 0.278 0.39766 0.3678 0.0
C1058 C 0.28966 0.54166 0.36037 0.0
C1059 C 0.26674 0.47517 0.36907 0.0
C1060 C 0.2841 0.58016 0.36052 0.0
C1061 C 0.25075 0.59377 0.36932 0.0
C1062 C 0.26187 0.51641 0.36931 0.0
C1063 C 0.22377 0.5676 0.37822 0.0
C1064 C 0.24279 0.45016 0.38161 0.0
C1065 C 0.30089 0.42382 0.35526 0.0
N1066 N 0.22994 0.5303 0.37805 0.0
N1067 N 0.29485 0.46105 0.35629 0.0
H1068 H 0.41416 0.21715 0.87109 0.0
H1069 H 0.62898 0.27813 0.89782 0.0
H1070 H 0.45105 0.31676 0.90914 0.0
H1071 H 0.59612 0.18091 0.85622 0.0
H1072 H 0.56357 0.29245 0.90143 0.0
H1073 H 0.4799 0.20333 0.86461 0.0
C1074 C 0.43594 0.23626 0.87796 0.0
C1075 C 0.42686 0.26805 0.8909 0.0
C1076 C 0.57055 0.26801 0.89142 0.0
C1077 C 0.50223 0.25219 0.88368 0.0
C1078 C 0.60816 0.2599 0.88919 0.0
C1079 C 0.61848 0.22828 0.87654 0.0
C1080 C 0.54261 0.24438 0.88103 0.0
C1081 C 0.58967 0.20538 0.8663 0.0
C1082 C 0.47352 0.22823 0.87434 0.0
C1083 C 0.45649 0.29156 0.89949 0.0
N1084 N 0.5531 0.21385 0.86878 0.0
N1085 N 0.49263 0.28312 0.89579 0.0
H1086 H 0.85229 0.46487 0.39204 0.0
H1087 H 0.72383 0.62346 0.34101 0.0
H1088 H 0.75771 0.44264 0.34601 0.0
H1089 H 0.81142 0.64663 0.39203 0.0
H1090 H 0.73827 0.55771 0.34139 0.0
H1091 H 0.8403 0.53166 0.39089 0.0
C1092 C 0.82913 0.47396 0.38157 0.0
C1093 C 0.80597 0.44785 0.36911 0.0
C1094 C 0.7544 0.57709 0.35253 0.0
C1095 C 0.79193 0.52455 0.36786 0.0
C1096 C 0.74602 0.61481 0.35242 0.0
C1097 C 0.76612 0.64089 0.36672 0.0
C1098 C 0.78323 0.56494 0.36698 0.0
C1099 C 0.79525 0.62775 0.38064 0.0
C1100 C 0.82219 0.51216 0.38104 0.0
C1101 C 0.77605 0.46146 0.35614 0.0
N1102 N 0.80283 0.59072 0.38048 0.0
N1103 N 0.76998 0.49874 0.35584 0.0
H1104 H 0.2686 0.18581 0.31272 0.0
H1105 H 0.19097 0.28666 0.20008 0.0
H1106 H 0.1898 0.27315 0.31632 0.0
H1107 H 0.25627 0.18848 0.19642 0.0
H1108 H 0.18629 0.27907 0.24235 0.0
H1109 H 0.25998 0.18271 0.27039 0.0
C1110 C 0.24901 0.20402 0.30457 0.0
C1111 C 0.2301 0.23004 0.31798 0.0
C1112 C 0.20136 0.25893 0.23236 0.0
C1113 C 0.22054 0.22704 0.26934 0.0
C1114 C 0.20422 0.2633 0.20818 0.0
C1115 C 0.22447 0.23837 0.19472 0.0
C1116 C 0.21923 0.22962 0.24335 0.0
C1117 C 0.24058 0.20843 0.20615 0.0
C1118 C 0.24411 0.20222 0.28037 0.0
C1119 C 0.20486 0.2527 0.30659 0.0
N1120 N 0.23799 0.20514 0.22987 0.0
N1121 N 0.20124 0.25109 0.28283 0.0
H1122 H 0.83866 0.25017 0.81612 0.0
H1123 H 0.79025 0.20095 0.68219 0.0
H1124 H 0.73643 0.19136 0.79386 0.0
H1125 H 0.84581 0.30489 0.70432 0.0
H1126 H 0.78903 0.17999 0.72321 0.0
H1127 H 0.85941 0.2526 0.77507 0.0
C1128 C 0.82119 0.23669 0.8027 0.0
C1129 C 0.78567 0.22082 0.80824 0.0
C1130 C 0.80242 0.20693 0.71892 0.0
C1131 C 0.80929 0.22311 0.76163 0.0
C1132 C 0.80334 0.21878 0.69556 0.0
C1133 C 0.81785 0.25482 0.69 0.0
C1134 C 0.81689 0.23099 0.7366 0.0
C1135 C 0.83413 0.27701 0.70799 0.0
C1136 C 0.83292 0.23828 0.77934 0.0
C1137 C 0.7639 0.20408 0.79021 0.0
N1138 N 0.833 0.26486 0.73053 0.0
N1139 N 0.77594 0.20584 0.76767 0.0
H1140 H 0.76516 0.84248 0.19092 0.0
H1141 H 0.84616 0.7705 0.31347 0.0
H1142 H 0.83799 0.75025 0.19706 0.0
H1143 H 0.75062 0.8391 0.3074 0.0
H1144 H 0.85294 0.77245 0.27064 0.0
H1145 H 0.76913 0.85137 0.23357 0.0
C1146 C 0.78243 0.82452 0.20119 0.0
C1147 C 0.80097 0.79539 0.1905 0.0
C1148 C 0.83073 0.78735 0.27876 0.0
C1149 C 0.80566 0.80529 0.23913 0.0
C1150 C 0.82697 0.78635 0.30317 0.0
C1151 C 0.79758 0.80432 0.31394 0.0
C1152 C 0.80516 0.80682 0.26514 0.0
C1153 C 0.77343 0.82446 0.29977 0.0
C1154 C 0.78454 0.82944 0.2255 0.0
C1155 C 0.82289 0.77282 0.20463 0.0
N1156 N 0.77766 0.82506 0.27614 0.0
N1157 N 0.8245 0.77812 0.22819 0.0
H1158 H 0.21131 0.79164 0.81459 0.0
H1159 H 0.25338 0.8347 0.67964 0.0
H1160 H 0.31416 0.84622 0.79028 0.0
H1161 H 0.19749 0.73259 0.70406 0.0
H1162 H 0.2573 0.85743 0.72032 0.0
H1163 H 0.18814 0.78908 0.77399 0.0
C1164 C 0.22848 0.80421 0.80083 0.0
C1165 C 0.26489 0.81871 0.80565 0.0
C1166 C 0.24327 0.83052 0.7166 0.0
C1167 C 0.23846 0.8163 0.75955 0.0
C1168 C 0.24085 0.81764 0.69346 0.0
C1169 C 0.22544 0.78158 0.68865 0.0
C1170 C 0.22936 0.8075 0.73481 0.0
C1171 C 0.20988 0.76042 0.70717 0.0
C1172 C 0.21533 0.80255 0.77773 0.0
C1173 C 0.28607 0.83445 0.78719 0.0
N1174 N 0.21244 0.77358 0.72948 0.0
N1175 N 0.27268 0.83256 0.76488 0.0
H1176 H 0.84671 0.81145 0.79788 0.0
H1177 H 0.72231 0.71351 0.69631 0.0
H1178 H 0.73419 0.76646 0.80934 0.0
H1179 H 0.8278 0.77443 0.68444 0.0
H1180 H 0.72614 0.73131 0.73772 0.0
H1181 H 0.83919 0.79933 0.75606 0.0
C1182 C 0.82007 0.7997 0.79146 0.0
C1183 C 0.79102 0.78999 0.80705 0.0
C1184 C 0.74845 0.74069 0.72604 0.0
C1185 C 0.78252 0.77486 0.75916 0.0
C1186 C 0.74652 0.73021 0.70243 0.0
C1187 C 0.77488 0.74233 0.68682 0.0
C1188 C 0.77906 0.76329 0.73417 0.0
C1189 C 0.80532 0.7643 0.69577 0.0
C1190 C 0.81587 0.79252 0.76758 0.0
C1191 C 0.75715 0.77467 0.79785 0.0
N1192 N 0.80658 0.77402 0.71879 0.0
N1193 N 0.75399 0.76706 0.77449 0.0
H1194 H 0.33111 0.82633 0.19751 0.0
H1195 H 0.2024 0.77613 0.30873 0.0
H1196 H 0.21319 0.79742 0.19101 0.0
H1197 H 0.32317 0.77796 0.3072 0.0
H1198 H 0.20264 0.79776 0.26767 0.0
H1199 H 0.32499 0.82569 0.24014 0.0
C1200 C 0.30362 0.82134 0.20517 0.0
C1201 C 0.2725 0.81257 0.19095 0.0
C1202 C 0.22898 0.79363 0.2765 0.0
C1203 C 0.26546 0.80964 0.23957 0.0
C1204 C 0.22884 0.78122 0.29982 0.0
C1205 C 0.26276 0.77461 0.31121 0.0
C1206 C 0.26331 0.80006 0.26484 0.0
C1207 C 0.29629 0.78197 0.299 0.0
C1208 C 0.30016 0.82039 0.22947 0.0
C1209 C 0.23763 0.80507 0.20157 0.0
N1210 N 0.29568 0.79419 0.27657 0.0
N1211 N 0.23508 0.80318 0.22535 0.0
H1212 H 0.23388 0.23225 0.69567 0.0
H1213 H 0.31873 0.3363 0.80824 0.0
H1214 H 0.23838 0.35247 0.70324 0.0
H1215 H 0.2715 0.22292 0.81161 0.0
H1216 H 0.29642 0.34063 0.76798 0.0
H1217 H 0.25223 0.22657 0.73682 0.0
C1218 C 0.23813 0.25744 0.70613 0.0
C1219 C 0.2345 0.29292 0.69607 0.0
C1220 C 0.29109 0.31476 0.77749 0.0
C1221 C 0.25654 0.28658 0.74292 0.0
C1222 C 0.30423 0.31202 0.80042 0.0
C1223 C 0.29716 0.27906 0.81337 0.0
C1224 C 0.27114 0.28418 0.7672 0.0
C1225 C 0.27775 0.24879 0.80228 0.0
C1226 C 0.24872 0.25415 0.72957 0.0
C1227 C 0.24052 0.32461 0.71036 0.0
N1228 N 0.26549 0.25204 0.77979 0.0
N1229 N 0.25178 0.32071 0.73299 0.0
H1230 H 0.80805 0.22345 0.30548 0.0
H1231 H 0.74915 0.32815 0.18974 0.0
H1232 H 0.80671 0.34314 0.29778 0.0
H1233 H 0.77628 0.21186 0.18742 0.0
H1234 H 0.77137 0.33215 0.2297 0.0
H1235 H 0.80065 0.21659 0.26267 0.0
C1236 C 0.8079 0.24828 0.29463 0.0
C1237 C 0.80853 0.28396 0.30495 0.0
C1238 C 0.77271 0.30565 0.2206 0.0
C1239 C 0.79854 0.2764 0.25652 0.0
C1240 C 0.75963 0.30322 0.19769 0.0
C1241 C 0.76055 0.2695 0.18515 0.0
C1242 C 0.7866 0.27403 0.23152 0.0
C1243 C 0.77485 0.23835 0.19651 0.0
C1244 C 0.80315 0.24436 0.2703 0.0
C1245 C 0.80681 0.31521 0.29038 0.0
N1246 N 0.78709 0.24126 0.21919 0.0
N1247 N 0.80151 0.31069 0.267 0.0
loop_
_geom_bond_atom_site_label_1
_geom_bond_atom_site_label_2
_geom_bond_distance
_geom_bond_site_symmetry_2
_ccdc_geom_bond_type
Co0 N4 2.148 . S
Co0 N10 2.128 . S
Co0 N20 2.194 . S
Co0 O25 2.351 . S
Co0 O26 2.155 . S
Co0 O27 2.096 . S
C1 N4 1.301 . S
C1 N5 1.328 . S
C1 H6 0.930 . S
C2 C3 1.333 . S
C2 N4 1.317 . S
C2 H7 0.930 . S
C3 C2 1.333 . S
C3 N5 1.350 . S
C3 H29 0.931 . S
N4 Co0 2.148 . S
N4 C1 1.301 . S
N4 C2 1.317 . S
N5 C1 1.328 . S
N5 C3 1.350 . S
H6 C1 0.930 . S
H7 C2 0.930 . S
C8 O9 1.224 . S
C8 O27 1.247 . S
O9 C8 1.224 . S
N10 Co0 2.128 . S
N10 C11 1.355 . S
N10 C13 1.311 . S
C11 N10 1.355 . S
C11 C12 1.363 . S
C11 H23 0.929 . S
C12 C11 1.363 . S
C12 N14 1.375 . S
C12 H30 0.931 . S
C13 N10 1.311 . S
C13 N14 1.347 . S
C13 H24 0.929 . S
N14 C12 1.375 . S
N14 C13 1.347 . S
C15 C18 1.365 . S
C15 N20 1.328 . S
C15 H21 0.929 . S
C16 C17 1.362 . S
C16 C19 1.378 . S
C16 H31 0.929 . S
C17 C16 1.362 . S
C17 C18 1.366 . S
C18 C15 1.365 . S
C18 C17 1.366 . S
C18 H32 0.930 . S
C19 C16 1.378 . S
C19 N20 1.315 . S
C19 H22 0.930 . S
N20 Co0 2.194 . S
N20 C15 1.328 . S
N20 C19 1.315 . S
H21 C15 0.929 . S
H22 C19 0.930 . S
H23 C11 0.929 . S
H24 C13 0.929 . S
O25 Co0 2.351 . S
O25 C28 1.244 . S
O26 Co0 2.155 . S
O26 C28 1.240 . S
O27 Co0 2.096 . S
O27 C8 1.247 . S
C28 O25 1.244 . S
C28 O26 1.240 . S
H29 C3 0.931 . S
H30 C12 0.931 . S
H31 C16 0.929 . S
H32 C18 0.930 . S
Co33 N37 2.148 . S
Co33 N43 2.128 . S
Co33 N53 2.194 . S
Co33 O58 2.351 . S
Co33 O59 2.155 . S
Co33 O60 2.096 . S
C34 N37 1.301 . S
C34 N38 1.328 . S
C34 H39 0.930 . S
C35 C36 1.333 . S
C35 N37 1.317 . S
C35 H40 0.930 . S
C36 C35 1.333 . S
C36 N38 1.350 . S
C36 H62 0.931 . S
N37 Co33 2.148 . S
N37 C34 1.301 . S
N37 C35 1.317 . S
N38 C34 1.328 . S
N38 C36 1.350 . S
H39 C34 0.930 . S
H40 C35 0.930 . S
C41 O42 1.224 . S
C41 O60 1.247 . S
O42 C41 1.224 . S
N43 Co33 2.128 . S
N43 C44 1.355 . S
N43 C46 1.311 . S
C44 N43 1.355 . S
C44 C45 1.363 . S
C44 H56 0.929 . S
C45 C44 1.363 . S
C45 N47 1.375 . S
C45 H63 0.931 . S
C46 N43 1.311 . S
C46 N47 1.347 . S
C46 H57 0.929 . S
N47 C45 1.375 . S
N47 C46 1.347 . S
C48 C51 1.365 . S
C48 N53 1.328 . S
C48 H54 0.929 . S
C49 C50 1.362 . S
C49 C52 1.378 . S
C49 H64 0.929 . S
C50 C49 1.362 . S
C50 C51 1.366 . S
C51 C48 1.365 . S
C51 C50 1.366 . S
C51 H65 0.930 . S
C52 C49 1.378 . S
C52 N53 1.315 . S
C52 H55 0.930 . S
N53 Co33 2.194 . S
N53 C48 1.328 . S
N53 C52 1.315 . S
H54 C48 0.929 . S
H55 C52 0.930 . S
H56 C44 0.929 . S
H57 C46 0.929 . S
O58 Co33 2.351 . S
O58 C61 1.244 . S
O59 Co33 2.155 . S
O59 C61 1.240 . S
O60 Co33 2.096 . S
O60 C41 1.247 . S
C61 O58 1.244 . S
C61 O59 1.240 . S
H62 C36 0.931 . S
H63 C45 0.931 . S
H64 C49 0.929 . S
H65 C51 0.930 . S
Co66 N70 2.148 . S
Co66 N76 2.128 . S
Co66 N86 2.194 . S
Co66 O91 2.351 . S
Co66 O92 2.155 . S
Co66 O93 2.096 . S
C67 N70 1.301 . S
C67 N71 1.328 . S
C67 H72 0.930 . S
C68 C69 1.333 . S
C68 N70 1.317 . S
C68 H73 0.930 . S
C69 C68 1.333 . S
C69 N71 1.350 . S
C69 H95 0.931 . S
N70 Co66 2.148 . S
N70 C67 1.301 . S
N70 C68 1.317 . S
N71 C67 1.328 . S
N71 C69 1.350 . S
H72 C67 0.930 . S
H73 C68 0.930 . S
C74 O75 1.224 . S
C74 O93 1.247 . S
O75 C74 1.224 . S
N76 Co66 2.128 . S
N76 C77 1.355 . S
N76 C79 1.311 . S
C77 N76 1.355 . S
C77 C78 1.363 . S
C77 H89 0.929 . S
C78 C77 1.363 . S
C78 N80 1.375 . S
C78 H96 0.931 . S
C79 N76 1.311 . S
C79 N80 1.347 . S
C79 H90 0.929 . S
N80 C78 1.375 . S
N80 C79 1.347 . S
C81 C84 1.365 . S
C81 N86 1.328 . S
C81 H87 0.929 . S
C82 C83 1.362 . S
C82 C85 1.378 . S
C82 H97 0.929 . S
C83 C82 1.362 . S
C83 C84 1.366 . S
C84 C81 1.365 . S
C84 C83 1.366 . S
C84 H98 0.930 . S
C85 C82 1.378 . S
C85 N86 1.315 . S
C85 H88 0.930 . S
N86 Co66 2.194 . S
N86 C81 1.328 . S
N86 C85 1.315 . S
H87 C81 0.929 . S
H88 C85 0.930 . S
H89 C77 0.929 . S
H90 C79 0.929 . S
O91 Co66 2.351 . S
O91 C94 1.244 . S
O92 Co66 2.155 . S
O92 C94 1.240 . S
O93 Co66 2.096 . S
O93 C74 1.247 . S
C94 O91 1.244 . S
C94 O92 1.240 . S
H95 C69 0.931 . S
H96 C78 0.931 . S
H97 C82 0.929 . S
H98 C84 0.930 . S
Co99 N103 2.148 . S
Co99 N109 2.128 . S
Co99 N119 2.194 . S
Co99 O124 2.351 . S
Co99 O125 2.155 . S
Co99 O126 2.096 . S
C100 N103 1.301 . S
C100 N104 1.328 . S
C100 H105 0.930 . S
C101 C102 1.333 . S
C101 N103 1.317 . S
C101 H106 0.930 . S
C102 C101 1.333 . S
C102 N104 1.350 . S
C102 H128 0.931 . S
N103 Co99 2.148 . S
N103 C100 1.301 . S
N103 C101 1.317 . S
N104 C100 1.328 . S
N104 C102 1.350 . S
H105 C100 0.930 . S
H106 C101 0.930 . S
C107 O108 1.224 . S
C107 O126 1.247 . S
O108 C107 1.224 . S
N109 Co99 2.128 . S
N109 C110 1.355 . S
N109 C112 1.311 . S
C110 N109 1.355 . S
C110 C111 1.363 . S
C110 H122 0.929 . S
C111 C110 1.363 . S
C111 N113 1.375 . S
C111 H129 0.931 . S
C112 N109 1.311 . S
C112 N113 1.347 . S
C112 H123 0.929 . S
N113 C111 1.375 . S
N113 C112 1.347 . S
C114 C117 1.365 . S
C114 N119 1.328 . S
C114 H120 0.929 . S
C115 C116 1.362 . S
C115 C118 1.378 . S
C115 H130 0.929 . S
C116 C115 1.362 . S
C116 C117 1.366 . S
C117 C114 1.365 . S
C117 C116 1.366 . S
C117 H131 0.930 . S
C118 C115 1.378 . S
C118 N119 1.315 . S
C118 H121 0.930 . S
N119 Co99 2.194 . S
N119 C114 1.328 . S
N119 C118 1.315 . S
H120 C114 0.929 . S
H121 C118 0.930 . S
H122 C110 0.929 . S
H123 C112 0.929 . S
O124 Co99 2.351 . S
O124 C127 1.244 . S
O125 Co99 2.155 . S
O125 C127 1.240 . S
O126 Co99 2.096 . S
O126 C107 1.247 . S
C127 O124 1.244 . S
C127 O125 1.240 . S
H128 C102 0.931 . S
H129 C111 0.931 . S
H130 C115 0.929 . S
H131 C117 0.930 . S
Co132 N136 2.148 . S
Co132 N142 2.128 . S
Co132 N152 2.194 . S
Co132 O157 2.351 . S
Co132 O158 2.155 . S
Co132 O159 2.096 . S
C133 N136 1.301 . S
C133 N137 1.328 . S
C133 H138 0.930 . S
C134 C135 1.333 . S
C134 N136 1.317 . S
C134 H139 0.930 . S
C135 C134 1.333 . S
C135 N137 1.350 . S
C135 H161 0.931 . S
N136 Co132 2.148 . S
N136 C133 1.301 . S
N136 C134 1.317 . S
N137 C133 1.328 . S
N137 C135 1.350 . S
H138 C133 0.930 . S
H139 C134 0.930 . S
C140 O141 1.224 . S
C140 O159 1.247 . S
O141 C140 1.224 . S
N142 Co132 2.128 . S
N142 C143 1.355 . S
N142 C145 1.311 . S
C143 N142 1.355 . S
C143 C144 1.363 . S
C143 H155 0.929 . S
C144 C143 1.363 . S
C144 N146 1.375 . S
C144 H162 0.931 . S
C145 N142 1.311 . S
C145 N146 1.347 . S
C145 H156 0.929 . S
N146 C144 1.375 . S
N146 C145 1.347 . S
C147 C150 1.365 . S
C147 N152 1.328 . S
C147 H153 0.929 . S
C148 C149 1.362 . S
C148 C151 1.378 . S
C148 H163 0.929 . S
C149 C148 1.362 . S
C149 C150 1.366 . S
C150 C147 1.365 . S
C150 C149 1.366 . S
C150 H164 0.930 . S
C151 C148 1.378 . S
C151 N152 1.315 . S
C151 H154 0.930 . S
N152 Co132 2.194 . S
N152 C147 1.328 . S
N152 C151 1.315 . S
H153 C147 0.929 . S
H154 C151 0.930 . S
H155 C143 0.929 . S
H156 C145 0.929 . S
O157 Co132 2.351 . S
O157 C160 1.244 . S
O158 Co132 2.155 . S
O158 C160 1.240 . S
O159 Co132 2.096 . S
O159 C140 1.247 . S
C160 O157 1.244 . S
C160 O158 1.240 . S
H161 C135 0.931 . S
H162 C144 0.931 . S
H163 C148 0.929 . S
H164 C150 0.930 . S
Co165 N169 2.148 . S
Co165 N175 2.128 . S
Co165 N185 2.194 . S
Co165 O190 2.351 . S
Co165 O191 2.155 . S
Co165 O192 2.096 . S
C166 N169 1.301 . S
C166 N170 1.328 . S
C166 H171 0.930 . S
C167 C168 1.333 . S
C167 N169 1.317 . S
C167 H172 0.930 . S
C168 C167 1.333 . S
C168 N170 1.350 . S
C168 H194 0.931 . S
N169 Co165 2.148 . S
N169 C166 1.301 . S
N169 C167 1.317 . S
N170 C166 1.328 . S
N170 C168 1.350 . S
H171 C166 0.930 . S
H172 C167 0.930 . S
C173 O174 1.224 . S
C173 O192 1.247 . S
O174 C173 1.224 . S
N175 Co165 2.128 . S
N175 C176 1.355 . S
N175 C178 1.311 . S
C176 N175 1.355 . S
C176 C177 1.363 . S
C176 H188 0.929 . S
C177 C176 1.363 . S
C177 N179 1.375 . S
C177 H195 0.931 . S
C178 N175 1.311 . S
C178 N179 1.347 . S
C178 H189 0.929 . S
N179 C177 1.375 . S
N179 C178 1.347 . S
C180 C183 1.365 . S
C180 N185 1.328 . S
C180 H186 0.929 . S
C181 C182 1.362 . S
C181 C184 1.378 . S
C181 H196 0.929 . S
C182 C181 1.362 . S
C182 C183 1.366 . S
C183 C180 1.365 . S
C183 C182 1.366 . S
C183 H197 0.930 . S
C184 C181 1.378 . S
C184 N185 1.315 . S
C184 H187 0.930 . S
N185 Co165 2.194 . S
N185 C180 1.328 . S
N185 C184 1.315 . S
H186 C180 0.929 . S
H187 C184 0.930 . S
H188 C176 0.929 . S
H189 C178 0.929 . S
O190 Co165 2.351 . S
O190 C193 1.244 . S
O191 Co165 2.155 . S
O191 C193 1.240 . S
O192 Co165 2.096 . S
O192 C173 1.247 . S
C193 O190 1.244 . S
C193 O191 1.240 . S
H194 C168 0.931 . S
H195 C177 0.931 . S
H196 C181 0.929 . S
H197 C183 0.930 . S
Co198 N202 2.148 . S
Co198 N208 2.128 . S
Co198 N218 2.194 . S
Co198 O223 2.351 . S
Co198 O224 2.155 . S
Co198 O225 2.096 . S
C199 N202 1.301 . S
C199 N203 1.328 . S
C199 H204 0.930 . S
C200 C201 1.333 . S
C200 N202 1.317 . S
C200 H205 0.930 . S
C201 C200 1.333 . S
C201 N203 1.350 . S
C201 H227 0.931 . S
N202 Co198 2.148 . S
N202 C199 1.301 . S
N202 C200 1.317 . S
N203 C199 1.328 . S
N203 C201 1.350 . S
H204 C199 0.930 . S
H205 C200 0.930 . S
C206 O207 1.224 . S
C206 O225 1.247 . S
O207 C206 1.224 . S
N208 Co198 2.128 . S
N208 C209 1.355 . S
N208 C211 1.311 . S
C209 N208 1.355 . S
C209 C210 1.363 . S
C209 H221 0.929 . S
C210 C209 1.363 . S
C210 N212 1.375 . S
C210 H228 0.931 . S
C211 N208 1.311 . S
C211 N212 1.347 . S
C211 H222 0.929 . S
N212 C210 1.375 . S
N212 C211 1.347 . S
C213 C216 1.365 . S
C213 N218 1.328 . S
C213 H219 0.929 . S
C214 C215 1.362 . S
C214 C217 1.378 . S
C214 H229 0.929 . S
C215 C214 1.362 . S
C215 C216 1.366 . S
C216 C213 1.365 . S
C216 C215 1.366 . S
C216 H230 0.930 . S
C217 C214 1.378 . S
C217 N218 1.315 . S
C217 H220 0.930 . S
N218 Co198 2.194 . S
N218 C213 1.328 . S
N218 C217 1.315 . S
H219 C213 0.929 . S
H220 C217 0.930 . S
H221 C209 0.929 . S
H222 C211 0.929 . S
O223 Co198 2.351 . S
O223 C226 1.244 . S
O224 Co198 2.155 . S
O224 C226 1.240 . S
O225 Co198 2.096 . S
O225 C206 1.247 . S
C226 O223 1.244 . S
C226 O224 1.240 . S
H227 C201 0.931 . S
H228 C210 0.931 . S
H229 C214 0.929 . S
H230 C216 0.930 . S
Co231 N235 2.148 . S
Co231 N241 2.128 . S
Co231 N251 2.194 . S
Co231 O256 2.351 . S
Co231 O257 2.155 . S
Co231 O258 2.096 . S
C232 N235 1.301 . S
C232 N236 1.328 . S
C232 H237 0.930 . S
C233 C234 1.333 . S
C233 N235 1.317 . S
C233 H238 0.930 . S
C234 C233 1.333 . S
C234 N236 1.350 . S
C234 H260 0.931 . S
N235 Co231 2.148 . S
N235 C232 1.301 . S
N235 C233 1.317 . S
N236 C232 1.328 . S
N236 C234 1.350 . S
H237 C232 0.930 . S
H238 C233 0.930 . S
C239 O240 1.224 . S
C239 O258 1.247 . S
O240 C239 1.224 . S
N241 Co231 2.128 . S
N241 C242 1.355 . S
N241 C244 1.311 . S
C242 N241 1.355 . S
C242 C243 1.363 . S
C242 H254 0.929 . S
C243 C242 1.363 . S
C243 N245 1.375 . S
C243 H261 0.931 . S
C244 N241 1.311 . S
C244 N245 1.347 . S
C244 H255 0.929 . S
N245 C243 1.375 . S
N245 C244 1.347 . S
C246 C249 1.365 . S
C246 N251 1.328 . S
C246 H252 0.929 . S
C247 C248 1.362 . S
C247 C250 1.378 . S
C247 H262 0.929 . S
C248 C247 1.362 . S
C248 C249 1.366 . S
C249 C246 1.365 . S
C249 C248 1.366 . S
C249 H263 0.930 . S
C250 C247 1.378 . S
C250 N251 1.315 . S
C250 H253 0.930 . S
N251 Co231 2.194 . S
N251 C246 1.328 . S
N251 C250 1.315 . S
H252 C246 0.929 . S
H253 C250 0.930 . S
H254 C242 0.929 . S
H255 C244 0.929 . S
O256 Co231 2.351 . S
O256 C259 1.244 . S
O257 Co231 2.155 . S
O257 C259 1.240 . S
O258 Co231 2.096 . S
O258 C239 1.247 . S
C259 O256 1.244 . S
C259 O257 1.240 . S
H260 C234 0.931 . S
H261 C243 0.931 . S
H262 C247 0.929 . S
H263 C249 0.930 . S
Co264 N268 2.148 . S
Co264 N274 2.128 . S
Co264 N284 2.194 . S
Co264 O289 2.351 . S
Co264 O290 2.155 . S
Co264 O291 2.096 . S
C265 N268 1.301 . S
C265 N269 1.328 . S
C265 H270 0.930 . S
C266 C267 1.333 . S
C266 N268 1.317 . S
C266 H271 0.930 . S
C267 C266 1.333 . S
C267 N269 1.350 . S
C267 H293 0.931 . S
N268 Co264 2.148 . S
N268 C265 1.301 . S
N268 C266 1.317 . S
N269 C265 1.328 . S
N269 C267 1.350 . S
H270 C265 0.930 . S
H271 C266 0.930 . S
C272 O273 1.224 . S
C272 O291 1.247 . S
O273 C272 1.224 . S
N274 Co264 2.128 . S
N274 C275 1.355 . S
N274 C277 1.311 . S
C275 N274 1.355 . S
C275 C276 1.363 . S
C275 H287 0.929 . S
C276 C275 1.363 . S
C276 N278 1.375 . S
C276 H294 0.931 . S
C277 N274 1.311 . S
C277 N278 1.347 . S
C277 H288 0.929 . S
N278 C276 1.375 . S
N278 C277 1.347 . S
C279 C282 1.365 . S
C279 N284 1.328 . S
C279 H285 0.929 . S
C280 C281 1.362 . S
C280 C283 1.378 . S
C280 H295 0.929 . S
C281 C280 1.362 . S
C281 C282 1.366 . S
C282 C279 1.365 . S
C282 C281 1.366 . S
C282 H296 0.930 . S
C283 C280 1.378 . S
C283 N284 1.315 . S
C283 H286 0.930 . S
N284 Co264 2.194 . S
N284 C279 1.328 . S
N284 C283 1.315 . S
H285 C279 0.929 . S
H286 C283 0.930 . S
H287 C275 0.929 . S
H288 C277 0.929 . S
O289 Co264 2.351 . S
O289 C292 1.244 . S
O290 Co264 2.155 . S
O290 C292 1.240 . S
O291 Co264 2.096 . S
O291 C272 1.247 . S
C292 O289 1.244 . S
C292 O290 1.240 . S
H293 C267 0.931 . S
H294 C276 0.931 . S
H295 C280 0.929 . S
H296 C282 0.930 . S
Co297 N301 2.148 . S
Co297 N307 2.128 . S
Co297 N317 2.194 . S
Co297 O322 2.351 . S
Co297 O323 2.155 . S
Co297 O324 2.096 . S
C298 N301 1.301 . S
C298 N302 1.328 . S
C298 H303 0.930 . S
C299 C300 1.333 . S
C299 N301 1.317 . S
C299 H304 0.930 . S
C300 C299 1.333 . S
C300 N302 1.350 . S
C300 H326 0.931 . S
N301 Co297 2.148 . S
N301 C298 1.301 . S
N301 C299 1.317 . S
N302 C298 1.328 . S
N302 C300 1.350 . S
H303 C298 0.930 . S
H304 C299 0.930 . S
C305 O306 1.224 . S
C305 O324 1.247 . S
O306 C305 1.224 . S
N307 Co297 2.128 . S
N307 C308 1.355 . S
N307 C310 1.311 . S
C308 N307 1.355 . S
C308 C309 1.363 . S
C308 H320 0.929 . S
C309 C308 1.363 . S
C309 N311 1.375 . S
C309 H327 0.931 . S
C310 N307 1.311 . S
C310 N311 1.347 . S
C310 H321 0.929 . S
N311 C309 1.375 . S
N311 C310 1.347 . S
C312 C315 1.365 . S
C312 N317 1.328 . S
C312 H318 0.929 . S
C313 C314 1.362 . S
C313 C316 1.378 . S
C313 H328 0.929 . S
C314 C313 1.362 . S
C314 C315 1.366 . S
C315 C312 1.365 . S
C315 C314 1.366 . S
C315 H329 0.930 . S
C316 C313 1.378 . S
C316 N317 1.315 . S
C316 H319 0.930 . S
N317 Co297 2.194 . S
N317 C312 1.328 . S
N317 C316 1.315 . S
H318 C312 0.929 . S
H319 C316 0.930 . S
H320 C308 0.929 . S
H321 C310 0.929 . S
O322 Co297 2.351 . S
O322 C325 1.244 . S
O323 Co297 2.155 . S
O323 C325 1.240 . S
O324 Co297 2.096 . S
O324 C305 1.247 . S
C325 O322 1.244 . S
C325 O323 1.240 . S
H326 C300 0.931 . S
H327 C309 0.931 . S
H328 C313 0.929 . S
H329 C315 0.930 . S
Co330 N334 2.148 . S
Co330 N340 2.128 . S
Co330 N350 2.194 . S
Co330 O355 2.351 . S
Co330 O356 2.155 . S
Co330 O357 2.096 . S
C331 N334 1.301 . S
C331 N335 1.328 . S
C331 H336 0.930 . S
C332 C333 1.333 . S
C332 N334 1.317 . S
C332 H337 0.930 . S
C333 C332 1.333 . S
C333 N335 1.350 . S
C333 H359 0.931 . S
N334 Co330 2.148 . S
N334 C331 1.301 . S
N334 C332 1.317 . S
N335 C331 1.328 . S
N335 C333 1.350 . S
H336 C331 0.930 . S
H337 C332 0.930 . S
C338 O339 1.224 . S
C338 O357 1.247 . S
O339 C338 1.224 . S
N340 Co330 2.128 . S
N340 C341 1.355 . S
N340 C343 1.311 . S
C341 N340 1.355 . S
C341 C342 1.363 . S
C341 H353 0.929 . S
C342 C341 1.363 . S
C342 N344 1.375 . S
C342 H360 0.931 . S
C343 N340 1.311 . S
C343 N344 1.347 . S
C343 H354 0.929 . S
N344 C342 1.375 . S
N344 C343 1.347 . S
C345 C348 1.365 . S
C345 N350 1.328 . S
C345 H351 0.929 . S
C346 C347 1.362 . S
C346 C349 1.378 . S
C346 H361 0.929 . S
C347 C346 1.362 . S
C347 C348 1.366 . S
C348 C345 1.365 . S
C348 C347 1.366 . S
C348 H362 0.930 . S
C349 C346 1.378 . S
C349 N350 1.315 . S
C349 H352 0.930 . S
N350 Co330 2.194 . S
N350 C345 1.328 . S
N350 C349 1.315 . S
H351 C345 0.929 . S
H352 C349 0.930 . S
H353 C341 0.929 . S
H354 C343 0.929 . S
O355 Co330 2.351 . S
O355 C358 1.244 . S
O356 Co330 2.155 . S
O356 C358 1.240 . S
O357 Co330 2.096 . S
O357 C338 1.247 . S
C358 O355 1.244 . S
C358 O356 1.240 . S
H359 C333 0.931 . S
H360 C342 0.931 . S
H361 C346 0.929 . S
H362 C348 0.930 . S
Co363 N367 2.148 . S
Co363 N373 2.128 . S
Co363 N383 2.194 . S
Co363 O388 2.351 . S
Co363 O389 2.155 . S
Co363 O390 2.096 . S
C364 N367 1.301 . S
C364 N368 1.328 . S
C364 H369 0.930 . S
C365 C366 1.333 . S
C365 N367 1.317 . S
C365 H370 0.930 . S
C366 C365 1.333 . S
C366 N368 1.350 . S
C366 H392 0.931 . S
N367 Co363 2.148 . S
N367 C364 1.301 . S
N367 C365 1.317 . S
N368 C364 1.328 . S
N368 C366 1.350 . S
H369 C364 0.930 . S
H370 C365 0.930 . S
C371 O372 1.224 . S
C371 O390 1.247 . S
O372 C371 1.224 . S
N373 Co363 2.128 . S
N373 C374 1.355 . S
N373 C376 1.311 . S
C374 N373 1.355 . S
C374 C375 1.363 . S
C374 H386 0.929 . S
C375 C374 1.363 . S
C375 N377 1.375 . S
C375 H393 0.931 . S
C376 N373 1.311 . S
C376 N377 1.347 . S
C376 H387 0.929 . S
N377 C375 1.375 . S
N377 C376 1.347 . S
C378 C381 1.365 . S
C378 N383 1.328 . S
C378 H384 0.929 . S
C379 C380 1.362 . S
C379 C382 1.378 . S
C379 H394 0.929 . S
C380 C379 1.362 . S
C380 C381 1.366 . S
C381 C378 1.365 . S
C381 C380 1.366 . S
C381 H395 0.930 . S
C382 C379 1.378 . S
C382 N383 1.315 . S
C382 H385 0.930 . S
N383 Co363 2.194 . S
N383 C378 1.328 . S
N383 C382 1.315 . S
H384 C378 0.929 . S
H385 C382 0.930 . S
H386 C374 0.929 . S
H387 C376 0.929 . S
O388 Co363 2.351 . S
O388 C391 1.244 . S
O389 Co363 2.155 . S
O389 C391 1.240 . S
O390 Co363 2.096 . S
O390 C371 1.247 . S
C391 O388 1.244 . S
C391 O389 1.240 . S
H392 C366 0.931 . S
H393 C375 0.931 . S
H394 C379 0.929 . S
H395 C381 0.930 . S
Co396 N400 2.148 . S
Co396 N406 2.128 . S
Co396 N416 2.194 . S
Co396 O421 2.351 . S
Co396 O422 2.155 . S
Co396 O423 2.096 . S
C397 N400 1.301 . S
C397 N401 1.328 . S
C397 H402 0.930 . S
C398 C399 1.333 . S
C398 N400 1.317 . S
C398 H403 0.930 . S
C399 C398 1.333 . S
C399 N401 1.350 . S
C399 H425 0.931 . S
N400 Co396 2.148 . S
N400 C397 1.301 . S
N400 C398 1.317 . S
N401 C397 1.328 . S
N401 C399 1.350 . S
H402 C397 0.930 . S
H403 C398 0.930 . S
C404 O405 1.224 . S
C404 O423 1.247 . S
O405 C404 1.224 . S
N406 Co396 2.128 . S
N406 C407 1.355 . S
N406 C409 1.311 . S
C407 N406 1.355 . S
C407 C408 1.363 . S
C407 H419 0.929 . S
C408 C407 1.363 . S
C408 N410 1.375 . S
C408 H426 0.931 . S
C409 N406 1.311 . S
C409 N410 1.347 . S
C409 H420 0.929 . S
N410 C408 1.375 . S
N410 C409 1.347 . S
C411 C414 1.365 . S
C411 N416 1.328 . S
C411 H417 0.929 . S
C412 C413 1.362 . S
C412 C415 1.378 . S
C412 H427 0.929 . S
C413 C412 1.362 . S
C413 C414 1.366 . S
C414 C411 1.365 . S
C414 C413 1.366 . S
C414 H428 0.930 . S
C415 C412 1.378 . S
C415 N416 1.315 . S
C415 H418 0.930 . S
N416 Co396 2.194 . S
N416 C411 1.328 . S
N416 C415 1.315 . S
H417 C411 0.929 . S
H418 C415 0.930 . S
H419 C407 0.929 . S
H420 C409 0.929 . S
O421 Co396 2.351 . S
O421 C424 1.244 . S
O422 Co396 2.155 . S
O422 C424 1.240 . S
O423 Co396 2.096 . S
O423 C404 1.247 . S
C424 O421 1.244 . S
C424 O422 1.240 . S
H425 C399 0.931 . S
H426 C408 0.931 . S
H427 C412 0.929 . S
H428 C414 0.930 . S
Co429 N433 2.148 . S
Co429 N439 2.128 . S
Co429 N449 2.194 . S
Co429 O454 2.351 . S
Co429 O455 2.155 . S
Co429 O456 2.096 . S
C430 N433 1.301 . S
C430 N434 1.328 . S
C430 H435 0.930 . S
C431 C432 1.333 . S
C431 N433 1.317 . S
C431 H436 0.930 . S
C432 C431 1.333 . S
C432 N434 1.350 . S
C432 H458 0.931 . S
N433 Co429 2.148 . S
N433 C430 1.301 . S
N433 C431 1.317 . S
N434 C430 1.328 . S
N434 C432 1.350 . S
H435 C430 0.930 . S
H436 C431 0.930 . S
C437 O438 1.224 . S
C437 O456 1.247 . S
O438 C437 1.224 . S
N439 Co429 2.128 . S
N439 C440 1.355 . S
N439 C442 1.311 . S
C440 N439 1.355 . S
C440 C441 1.363 . S
C440 H452 0.929 . S
C441 C440 1.363 . S
C441 N443 1.375 . S
C441 H459 0.931 . S
C442 N439 1.311 . S
C442 N443 1.347 . S
C442 H453 0.929 . S
N443 C441 1.375 . S
N443 C442 1.347 . S
C444 C447 1.365 . S
C444 N449 1.328 . S
C444 H450 0.929 . S
C445 C446 1.362 . S
C445 C448 1.378 . S
C445 H460 0.929 . S
C446 C445 1.362 . S
C446 C447 1.366 . S
C447 C444 1.365 . S
C447 C446 1.366 . S
C447 H461 0.930 . S
C448 C445 1.378 . S
C448 N449 1.315 . S
C448 H451 0.930 . S
N449 Co429 2.194 . S
N449 C444 1.328 . S
N449 C448 1.315 . S
H450 C444 0.929 . S
H451 C448 0.930 . S
H452 C440 0.929 . S
H453 C442 0.929 . S
O454 Co429 2.351 . S
O454 C457 1.244 . S
O455 Co429 2.155 . S
O455 C457 1.240 . S
O456 Co429 2.096 . S
O456 C437 1.247 . S
C457 O454 1.244 . S
C457 O455 1.240 . S
H458 C432 0.931 . S
H459 C441 0.931 . S
H460 C445 0.929 . S
H461 C447 0.930 . S
Co462 N466 2.148 . S
Co462 N472 2.128 . S
Co462 N482 2.194 . S
Co462 O487 2.351 . S
Co462 O488 2.155 . S
Co462 O489 2.096 . S
C463 N466 1.301 . S
C463 N467 1.328 . S
C463 H468 0.930 . S
C464 C465 1.333 . S
C464 N466 1.317 . S
C464 H469 0.930 . S
C465 C464 1.333 . S
C465 N467 1.350 . S
C465 H491 0.931 . S
N466 Co462 2.148 . S
N466 C463 1.301 . S
N466 C464 1.317 . S
N467 C463 1.328 . S
N467 C465 1.350 . S
H468 C463 0.930 . S
H469 C464 0.930 . S
C470 O471 1.224 . S
C470 O489 1.247 . S
O471 C470 1.224 . S
N472 Co462 2.128 . S
N472 C473 1.355 . S
N472 C475 1.311 . S
C473 N472 1.355 . S
C473 C474 1.363 . S
C473 H485 0.929 . S
C474 C473 1.363 . S
C474 N476 1.375 . S
C474 H492 0.931 . S
C475 N472 1.311 . S
C475 N476 1.347 . S
C475 H486 0.929 . S
N476 C474 1.375 . S
N476 C475 1.347 . S
C477 C480 1.365 . S
C477 N482 1.328 . S
C477 H483 0.929 . S
C478 C479 1.362 . S
C478 C481 1.378 . S
C478 H493 0.929 . S
C479 C478 1.362 . S
C479 C480 1.366 . S
C480 C477 1.365 . S
C480 C479 1.366 . S
C480 H494 0.930 . S
C481 C478 1.378 . S
C481 N482 1.315 . S
C481 H484 0.930 . S
N482 Co462 2.194 . S
N482 C477 1.328 . S
N482 C481 1.315 . S
H483 C477 0.929 . S
H484 C481 0.930 . S
H485 C473 0.929 . S
H486 C475 0.929 . S
O487 Co462 2.351 . S
O487 C490 1.244 . S
O488 Co462 2.155 . S
O488 C490 1.240 . S
O489 Co462 2.096 . S
O489 C470 1.247 . S
C490 O487 1.244 . S
C490 O488 1.240 . S
H491 C465 0.931 . S
H492 C474 0.931 . S
H493 C478 0.929 . S
H494 C480 0.930 . S
Co495 N499 2.148 . S
Co495 N505 2.128 . S
Co495 N515 2.194 . S
Co495 O520 2.351 . S
Co495 O521 2.155 . S
Co495 O522 2.096 . S
C496 N499 1.301 . S
C496 N500 1.328 . S
C496 H501 0.930 . S
C497 C498 1.333 . S
C497 N499 1.317 . S
C497 H502 0.930 . S
C498 C497 1.333 . S
C498 N500 1.350 . S
C498 H524 0.931 . S
N499 Co495 2.148 . S
N499 C496 1.301 . S
N499 C497 1.317 . S
N500 C496 1.328 . S
N500 C498 1.350 . S
H501 C496 0.930 . S
H502 C497 0.930 . S
C503 O504 1.224 . S
C503 O522 1.247 . S
O504 C503 1.224 . S
N505 Co495 2.128 . S
N505 C506 1.355 . S
N505 C508 1.311 . S
C506 N505 1.355 . S
C506 C507 1.363 . S
C506 H518 0.929 . S
C507 C506 1.363 . S
C507 N509 1.375 . S
C507 H525 0.931 . S
C508 N505 1.311 . S
C508 N509 1.347 . S
C508 H519 0.929 . S
N509 C507 1.375 . S
N509 C508 1.347 . S
C510 C513 1.365 . S
C510 N515 1.328 . S
C510 H516 0.929 . S
C511 C512 1.362 . S
C511 C514 1.378 . S
C511 H526 0.929 . S
C512 C511 1.362 . S
C512 C513 1.366 . S
C513 C510 1.365 . S
C513 C512 1.366 . S
C513 H527 0.930 . S
C514 C511 1.378 . S
C514 N515 1.315 . S
C514 H517 0.930 . S
N515 Co495 2.194 . S
N515 C510 1.328 . S
N515 C514 1.315 . S
H516 C510 0.929 . S
H517 C514 0.930 . S
H518 C506 0.929 . S
H519 C508 0.929 . S
O520 Co495 2.351 . S
O520 C523 1.244 . S
O521 Co495 2.155 . S
O521 C523 1.240 . S
O522 Co495 2.096 . S
O522 C503 1.247 . S
C523 O520 1.244 . S
C523 O521 1.240 . S
H524 C498 0.931 . S
H525 C507 0.931 . S
H526 C511 0.929 . S
H527 C513 0.930 . S
H528 C534 0.930 . S
H529 C538 0.930 . S
H530 C543 0.929 . S
H531 C541 0.929 . S
H532 C536 0.929 . S
H533 C542 0.929 . S
C534 H528 0.930 . S
C534 C535 1.367 . S
C534 C542 1.378 . S
C535 C534 1.367 . S
C535 C543 1.433 . S
C536 H532 0.929 . S
C536 C538 1.378 . S
C536 C540 1.350 . S
C537 C540 1.463 1_655 S
C537 C542 1.350 . S
C537 N545 1.427 . S
C538 H529 0.930 . S
C538 C536 1.378 . S
C538 C539 1.367 . S
C539 C538 1.367 . S
C539 C541 1.433 . S
C540 C536 1.350 . S
C540 C537 1.463 1_455 S
C540 N544 1.427 . S
C541 H531 0.929 . S
C541 C539 1.433 . S
C541 N544 1.384 . S
C542 H533 0.929 . S
C542 C534 1.378 . S
C542 C537 1.350 . S
C543 H530 0.929 . S
C543 C535 1.433 . S
C543 N545 1.384 . S
N544 C540 1.427 . S
N544 C541 1.384 . S
N545 C537 1.427 . S
N545 C543 1.384 . S
H546 C552 0.930 . S
H547 C556 0.930 . S
H548 C561 0.929 . S
H549 C559 0.929 . S
H550 C554 0.929 . S
H551 C560 0.929 . S
C552 H546 0.930 . S
C552 C553 1.367 . S
C552 C560 1.378 . S
C553 C552 1.367 . S
C553 C561 1.433 . S
C554 H550 0.929 . S
C554 C556 1.378 . S
C554 C558 1.350 . S
C555 C558 1.463 1_545 S
C555 C560 1.350 . S
C555 N563 1.427 . S
C556 H547 0.930 . S
C556 C554 1.378 . S
C556 C557 1.367 . S
C557 C556 1.367 . S
C557 C559 1.433 . S
C558 C554 1.350 . S
C558 C555 1.463 1_565 S
C558 N562 1.427 . S
C559 H549 0.929 . S
C559 C557 1.433 . S
C559 N562 1.384 . S
C560 H551 0.929 . S
C560 C552 1.378 . S
C560 C555 1.350 . S
C561 H548 0.929 . S
C561 C553 1.433 . S
C561 N563 1.384 . S
N562 C558 1.427 . S
N562 C559 1.384 . S
N563 C555 1.427 . S
N563 C561 1.384 . S
H564 C570 0.930 . S
H565 C574 0.930 . S
H566 C579 0.929 . S
H567 C577 0.929 . S
H568 C572 0.929 . S
H569 C578 0.929 . S
C570 H564 0.930 . S
C570 C571 1.367 . S
C570 C578 1.378 . S
C571 C570 1.367 . S
C571 C579 1.433 . S
C572 H568 0.929 . S
C572 C574 1.378 . S
C572 C576 1.350 . S
C573 C576 1.463 1_655 S
C573 C578 1.350 . S
C573 N581 1.427 . S
C574 H565 0.930 . S
C574 C572 1.378 . S
C574 C575 1.367 . S
C575 C574 1.367 . S
C575 C577 1.433 . S
C576 C572 1.350 . S
C576 C573 1.463 1_455 S
C576 N580 1.427 . S
C577 H567 0.929 . S
C577 C575 1.433 . S
C577 N580 1.384 . S
C578 H569 0.929 . S
C578 C570 1.378 . S
C578 C573 1.350 . S
C579 H566 0.929 . S
C579 C571 1.433 . S
C579 N581 1.384 . S
N580 C576 1.427 . S
N580 C577 1.384 . S
N581 C573 1.427 . S
N581 C579 1.384 . S
H582 C588 0.930 . S
H583 C592 0.930 . S
H584 C597 0.929 . S
H585 C595 0.929 . S
H586 C590 0.929 . S
H587 C596 0.929 . S
C588 H582 0.930 . S
C588 C589 1.367 . S
C588 C596 1.378 . S
C589 C588 1.367 . S
C589 C597 1.433 . S
C590 H586 0.929 . S
C590 C592 1.378 . S
C590 C594 1.350 . S
C591 C594 1.463 1_565 S
C591 C596 1.350 . S
C591 N599 1.427 . S
C592 H583 0.930 . S
C592 C590 1.378 . S
C592 C593 1.367 . S
C593 C592 1.367 . S
C593 C595 1.433 . S
C594 C590 1.350 . S
C594 C591 1.463 1_545 S
C594 N598 1.427 . S
C595 H585 0.929 . S
C595 C593 1.433 . S
C595 N598 1.384 . S
C596 H587 0.929 . S
C596 C588 1.378 . S
C596 C591 1.350 . S
C597 H584 0.929 . S
C597 C589 1.433 . S
C597 N599 1.384 . S
N598 C594 1.427 . S
N598 C595 1.384 . S
N599 C591 1.427 . S
N599 C597 1.384 . S
H600 C606 0.930 . S
H601 C610 0.930 . S
H602 C615 0.929 . S
H603 C613 0.929 . S
H604 C608 0.929 . S
H605 C614 0.929 . S
C606 H600 0.930 . S
C606 C607 1.367 . S
C606 C614 1.378 . S
C607 C606 1.367 . S
C607 C615 1.433 . S
C608 H604 0.929 . S
C608 C610 1.378 . S
C608 C612 1.350 . S
C609 C612 1.463 1_655 S
C609 C614 1.350 . S
C609 N617 1.427 . S
C610 H601 0.930 . S
C610 C608 1.378 . S
C610 C611 1.367 . S
C611 C610 1.367 . S
C611 C613 1.433 . S
C612 C608 1.350 . S
C612 C609 1.463 1_455 S
C612 N616 1.427 . S
C613 H603 0.929 . S
C613 C611 1.433 . S
C613 N616 1.384 . S
C614 H605 0.929 . S
C614 C606 1.378 . S
C614 C609 1.350 . S
C615 H602 0.929 . S
C615 C607 1.433 . S
C615 N617 1.384 . S
N616 C612 1.427 . S
N616 C613 1.384 . S
N617 C609 1.427 . S
N617 C615 1.384 . S
H618 C624 0.930 . S
H619 C628 0.930 . S
H620 C633 0.929 . S
H621 C631 0.929 . S
H622 C626 0.929 . S
H623 C632 0.929 . S
C624 H618 0.930 . S
C624 C625 1.367 . S
C624 C632 1.378 . S
C625 C624 1.367 . S
C625 C633 1.433 . S
C626 H622 0.929 . S
C626 C628 1.378 . S
C626 C630 1.350 . S
C627 C630 1.463 1_565 S
C627 C632 1.350 . S
C627 N635 1.427 . S
C628 H619 0.930 . S
C628 C626 1.378 . S
C628 C629 1.367 . S
C629 C628 1.367 . S
C629 C631 1.433 . S
C630 C626 1.350 . S
C630 C627 1.463 1_545 S
C630 N634 1.427 . S
C631 H621 0.929 . S
C631 C629 1.433 . S
C631 N634 1.384 . S
C632 H623 0.929 . S
C632 C624 1.378 . S
C632 C627 1.350 . S
C633 H620 0.929 . S
C633 C625 1.433 . S
C633 N635 1.384 . S
N634 C630 1.427 . S
N634 C631 1.384 . S
N635 C627 1.427 . S
N635 C633 1.384 . S
H636 C642 0.930 . S
H637 C646 0.930 . S
H638 C651 0.929 . S
H639 C649 0.929 . S
H640 C644 0.929 . S
H641 C650 0.929 . S
C642 H636 0.930 . S
C642 C643 1.367 . S
C642 C650 1.378 . S
C643 C642 1.367 . S
C643 C651 1.433 . S
C644 H640 0.929 . S
C644 C646 1.378 . S
C644 C648 1.350 . S
C645 C648 1.463 1_655 S
C645 C650 1.350 . S
C645 N653 1.427 . S
C646 H637 0.930 . S
C646 C644 1.378 . S
C646 C647 1.367 . S
C647 C646 1.367 . S
C647 C649 1.433 . S
C648 C644 1.350 . S
C648 C645 1.463 1_455 S
C648 N652 1.427 . S
C649 H639 0.929 . S
C649 C647 1.433 . S
C649 N652 1.384 . S
C650 H641 0.929 . S
C650 C642 1.378 . S
C650 C645 1.350 . S
C651 H638 0.929 . S
C651 C643 1.433 . S
C651 N653 1.384 . S
N652 C648 1.427 . S
N652 C649 1.384 . S
N653 C645 1.427 . S
N653 C651 1.384 . S
H654 C660 0.930 . S
H655 C664 0.930 . S
H656 C669 0.929 . S
H657 C667 0.929 . S
H658 C662 0.929 . S
H659 C668 0.929 . S
C660 H654 0.930 . S
C660 C661 1.367 . S
C660 C668 1.378 . S
C661 C660 1.367 . S
C661 C669 1.433 . S
C662 H658 0.929 . S
C662 C664 1.378 . S
C662 C666 1.350 . S
C663 C666 1.463 1_545 S
C663 C668 1.350 . S
C663 N671 1.427 . S
C664 H655 0.930 . S
C664 C662 1.378 . S
C664 C665 1.367 . S
C665 C664 1.367 . S
C665 C667 1.433 . S
C666 C662 1.350 . S
C666 C663 1.463 1_565 S
C666 N670 1.427 . S
C667 H657 0.929 . S
C667 C665 1.433 . S
C667 N670 1.384 . S
C668 H659 0.929 . S
C668 C660 1.378 . S
C668 C663 1.350 . S
C669 H656 0.929 . S
C669 C661 1.433 . S
C669 N671 1.384 . S
N670 C666 1.427 . S
N670 C667 1.384 . S
N671 C663 1.427 . S
N671 C669 1.384 . S
H672 C678 0.930 . S
H673 C682 0.930 . S
H674 C687 0.929 . S
H675 C685 0.929 . S
H676 C680 0.929 . S
H677 C686 0.929 . S
C678 H672 0.930 . S
C678 C679 1.367 . S
C678 C686 1.378 . S
C679 C678 1.367 . S
C679 C687 1.433 . S
C680 H676 0.929 . S
C680 C682 1.378 . S
C680 C684 1.350 . S
C681 C684 1.463 . S
C681 C686 1.350 . S
C681 N689 1.427 . S
C682 H673 0.930 . S
C682 C680 1.378 . S
C682 C683 1.367 . S
C683 C682 1.367 . S
C683 C685 1.433 . S
C684 C680 1.350 . S
C684 C681 1.463 . S
C684 N688 1.427 . S
C685 H675 0.929 . S
C685 C683 1.433 . S
C685 N688 1.384 . S
C686 H677 0.929 . S
C686 C678 1.378 . S
C686 C681 1.350 . S
C687 H674 0.929 . S
C687 C679 1.433 . S
C687 N689 1.384 . S
N688 C684 1.427 . S
N688 C685 1.384 . S
N689 C681 1.427 . S
N689 C687 1.384 . S
H690 C696 0.930 . S
H691 C700 0.930 . S
H692 C705 0.929 . S
H693 C703 0.929 . S
H694 C698 0.929 . S
H695 C704 0.929 . S
C696 H690 0.930 . S
C696 C697 1.367 . S
C696 C704 1.378 . S
C697 C696 1.367 . S
C697 C705 1.433 . S
C698 H694 0.929 . S
C698 C700 1.378 . S
C698 C702 1.350 . S
C699 C702 1.463 . S
C699 C704 1.350 . S
C699 N707 1.427 . S
C700 H691 0.930 . S
C700 C698 1.378 . S
C700 C701 1.367 . S
C701 C700 1.367 . S
C701 C703 1.433 . S
C702 C698 1.350 . S
C702 C699 1.463 . S
C702 N706 1.427 . S
C703 H693 0.929 . S
C703 C701 1.433 . S
C703 N706 1.384 . S
C704 H695 0.929 . S
C704 C696 1.378 . S
C704 C699 1.350 . S
C705 H692 0.929 . S
C705 C697 1.433 . S
C705 N707 1.384 . S
N706 C702 1.427 . S
N706 C703 1.384 . S
N707 C699 1.427 . S
N707 C705 1.384 . S
H708 C714 0.930 . S
H709 C718 0.930 . S
H710 C723 0.929 . S
H711 C721 0.929 . S
H712 C716 0.929 . S
H713 C722 0.929 . S
C714 H708 0.930 . S
C714 C715 1.367 . S
C714 C722 1.378 . S
C715 C714 1.367 . S
C715 C723 1.433 . S
C716 H712 0.929 . S
C716 C718 1.378 . S
C716 C720 1.350 . S
C717 C720 1.463 . S
C717 C722 1.350 . S
C717 N725 1.427 . S
C718 H709 0.930 . S
C718 C716 1.378 . S
C718 C719 1.367 . S
C719 C718 1.367 . S
C719 C721 1.433 . S
C720 C716 1.350 . S
C720 C717 1.463 . S
C720 N724 1.427 . S
C721 H711 0.929 . S
C721 C719 1.433 . S
C721 N724 1.384 . S
C722 H713 0.929 . S
C722 C714 1.378 . S
C722 C717 1.350 . S
C723 H710 0.929 . S
C723 C715 1.433 . S
C723 N725 1.384 . S
N724 C720 1.427 . S
N724 C721 1.384 . S
N725 C717 1.427 . S
N725 C723 1.384 . S
H726 C732 0.930 . S
H727 C736 0.930 . S
H728 C741 0.929 . S
H729 C739 0.929 . S
H730 C734 0.929 . S
H731 C740 0.929 . S
C732 H726 0.930 . S
C732 C733 1.367 . S
C732 C740 1.378 . S
C733 C732 1.367 . S
C733 C741 1.433 . S
C734 H730 0.929 . S
C734 C736 1.378 . S
C734 C738 1.350 . S
C735 C738 1.463 . S
C735 C740 1.350 . S
C735 N743 1.427 . S
C736 H727 0.930 . S
C736 C734 1.378 . S
C736 C737 1.367 . S
C737 C736 1.367 . S
C737 C739 1.433 . S
C738 C734 1.350 . S
C738 C735 1.463 . S
C738 N742 1.427 . S
C739 H729 0.929 . S
C739 C737 1.433 . S
C739 N742 1.384 . S
C740 H731 0.929 . S
C740 C732 1.378 . S
C740 C735 1.350 . S
C741 H728 0.929 . S
C741 C733 1.433 . S
C741 N743 1.384 . S
N742 C738 1.427 . S
N742 C739 1.384 . S
N743 C735 1.427 . S
N743 C741 1.384 . S
H744 C750 0.930 . S
H745 C754 0.930 . S
H746 C759 0.929 . S
H747 C757 0.929 . S
H748 C752 0.929 . S
H749 C758 0.929 . S
C750 H744 0.930 . S
C750 C751 1.367 . S
C750 C758 1.378 . S
C751 C750 1.367 . S
C751 C759 1.433 . S
C752 H748 0.929 . S
C752 C754 1.378 . S
C752 C756 1.350 . S
C753 C756 1.463 . S
C753 C758 1.350 . S
C753 N761 1.427 . S
C754 H745 0.930 . S
C754 C752 1.378 . S
C754 C755 1.367 . S
C755 C754 1.367 . S
C755 C757 1.433 . S
C756 C752 1.350 . S
C756 C753 1.463 . S
C756 N760 1.427 . S
C757 H747 0.929 . S
C757 C755 1.433 . S
C757 N760 1.384 . S
C758 H749 0.929 . S
C758 C750 1.378 . S
C758 C753 1.350 . S
C759 H746 0.929 . S
C759 C751 1.433 . S
C759 N761 1.384 . S
N760 C756 1.427 . S
N760 C757 1.384 . S
N761 C753 1.427 . S
N761 C759 1.384 . S
H762 C768 0.930 . S
H763 C772 0.930 . S
H764 C777 0.929 . S
H765 C775 0.929 . S
H766 C770 0.929 . S
H767 C776 0.929 . S
C768 H762 0.930 . S
C768 C769 1.367 . S
C768 C776 1.378 . S
C769 C768 1.367 . S
C769 C777 1.433 . S
C770 H766 0.929 . S
C770 C772 1.378 . S
C770 C774 1.350 . S
C771 C774 1.463 . S
C771 C776 1.350 . S
C771 N779 1.427 . S
C772 H763 0.930 . S
C772 C770 1.378 . S
C772 C773 1.367 . S
C773 C772 1.367 . S
C773 C775 1.433 . S
C774 C770 1.350 . S
C774 C771 1.463 . S
C774 N778 1.427 . S
C775 H765 0.929 . S
C775 C773 1.433 . S
C775 N778 1.384 . S
C776 H767 0.929 . S
C776 C768 1.378 . S
C776 C771 1.350 . S
C777 H764 0.929 . S
C777 C769 1.433 . S
C777 N779 1.384 . S
N778 C774 1.427 . S
N778 C775 1.384 . S
N779 C771 1.427 . S
N779 C777 1.384 . S
H780 C786 0.930 . S
H781 C790 0.930 . S
H782 C795 0.929 . S
H783 C793 0.929 . S
H784 C788 0.929 . S
H785 C794 0.929 . S
C786 H780 0.930 . S
C786 C787 1.367 . S
C786 C794 1.378 . S
C787 C786 1.367 . S
C787 C795 1.433 . S
C788 H784 0.929 . S
C788 C790 1.378 . S
C788 C792 1.350 . S
C789 C792 1.463 . S
C789 C794 1.350 . S
C789 N797 1.427 . S
C790 H781 0.930 . S
C790 C788 1.378 . S
C790 C791 1.367 . S
C791 C790 1.367 . S
C791 C793 1.433 . S
C792 C788 1.350 . S
C792 C789 1.463 . S
C792 N796 1.427 . S
C793 H783 0.929 . S
C793 C791 1.433 . S
C793 N796 1.384 . S
C794 H785 0.929 . S
C794 C786 1.378 . S
C794 C789 1.350 . S
C795 H782 0.929 . S
C795 C787 1.433 . S
C795 N797 1.384 . S
N796 C792 1.427 . S
N796 C793 1.384 . S
N797 C789 1.427 . S
N797 C795 1.384 . S
H798 C804 0.930 . S
H799 C808 0.930 . S
H800 C813 0.929 . S
H801 C811 0.929 . S
H802 C806 0.929 . S
H803 C812 0.929 . S
C804 H798 0.930 . S
C804 C805 1.367 . S
C804 C812 1.378 . S
C805 C804 1.367 . S
C805 C813 1.433 . S
C806 H802 0.929 . S
C806 C808 1.378 . S
C806 C810 1.350 . S
C807 C810 1.463 . S
C807 C812 1.350 . S
C807 N815 1.427 . S
C808 H799 0.930 . S
C808 C806 1.378 . S
C808 C809 1.367 . S
C809 C808 1.367 . S
C809 C811 1.433 . S
C810 C806 1.350 . S
C810 C807 1.463 . S
C810 N814 1.427 . S
C811 H801 0.929 . S
C811 C809 1.433 . S
C811 N814 1.384 . S
C812 H803 0.929 . S
C812 C804 1.378 . S
C812 C807 1.350 . S
C813 H800 0.929 . S
C813 C805 1.433 . S
C813 N815 1.384 . S
N814 C810 1.427 . S
N814 C811 1.384 . S
N815 C807 1.427 . S
N815 C813 1.384 . S
H816 C822 0.930 . S
H817 C826 0.930 . S
H818 C831 0.929 . S
H819 C829 0.929 . S
H820 C824 0.929 . S
H821 C830 0.929 . S
C822 H816 0.930 . S
C822 C823 1.367 . S
C822 C830 1.378 . S
C823 C822 1.367 . S
C823 C831 1.433 . S
C824 H820 0.929 . S
C824 C826 1.378 . S
C824 C828 1.350 . S
C825 C828 1.463 1_554 S
C825 C830 1.350 . S
C825 N833 1.427 . S
C826 H817 0.930 . S
C826 C824 1.378 . S
C826 C827 1.367 . S
C827 C826 1.367 . S
C827 C829 1.433 . S
C828 C824 1.350 . S
C828 C825 1.463 1_556 S
C828 N832 1.427 . S
C829 H819 0.929 . S
C829 C827 1.433 . S
C829 N832 1.384 . S
C830 H821 0.929 . S
C830 C822 1.378 . S
C830 C825 1.350 . S
C831 H818 0.929 . S
C831 C823 1.433 . S
C831 N833 1.384 . S
N832 C828 1.427 . S
N832 C829 1.384 . S
N833 C825 1.427 . S
N833 C831 1.384 . S
H834 C840 0.930 . S
H835 C844 0.930 . S
H836 C849 0.929 . S
H837 C847 0.929 . S
H838 C842 0.929 . S
H839 C848 0.929 . S
C840 H834 0.930 . S
C840 C841 1.367 . S
C840 C848 1.378 . S
C841 C840 1.367 . S
C841 C849 1.433 . S
C842 H838 0.929 . S
C842 C844 1.378 . S
C842 C846 1.350 . S
C843 C846 1.463 . S
C843 C848 1.350 . S
C843 N851 1.427 . S
C844 H835 0.930 . S
C844 C842 1.378 . S
C844 C845 1.367 . S
C845 C844 1.367 . S
C845 C847 1.433 . S
C846 C842 1.350 . S
C846 C843 1.463 . S
C846 N850 1.427 . S
C847 H837 0.929 . S
C847 C845 1.433 . S
C847 N850 1.384 . S
C848 H839 0.929 . S
C848 C840 1.378 . S
C848 C843 1.350 . S
C849 H836 0.929 . S
C849 C841 1.433 . S
C849 N851 1.384 . S
N850 C846 1.427 . S
N850 C847 1.384 . S
N851 C843 1.427 . S
N851 C849 1.384 . S
H852 C858 0.930 . S
H853 C862 0.930 . S
H854 C867 0.929 . S
H855 C865 0.929 . S
H856 C860 0.929 . S
H857 C866 0.929 . S
C858 H852 0.930 . S
C858 C859 1.367 . S
C858 C866 1.378 . S
C859 C858 1.367 . S
C859 C867 1.433 . S
C860 H856 0.929 . S
C860 C862 1.378 . S
C860 C864 1.350 . S
C861 C864 1.463 1_556 S
C861 C866 1.350 . S
C861 N869 1.427 . S
C862 H853 0.930 . S
C862 C860 1.378 . S
C862 C863 1.367 . S
C863 C862 1.367 . S
C863 C865 1.433 . S
C864 C860 1.350 . S
C864 C861 1.463 1_554 S
C864 N868 1.427 . S
C865 H855 0.929 . S
C865 C863 1.433 . S
C865 N868 1.384 . S
C866 H857 0.929 . S
C866 C858 1.378 . S
C866 C861 1.350 . S
C867 H854 0.929 . S
C867 C859 1.433 . S
C867 N869 1.384 . S
N868 C864 1.427 . S
N868 C865 1.384 . S
N869 C861 1.427 . S
N869 C867 1.384 . S
H870 C876 0.930 . S
H871 C880 0.930 . S
H872 C885 0.929 . S
H873 C883 0.929 . S
H874 C878 0.929 . S
H875 C884 0.929 . S
C876 H870 0.930 . S
C876 C877 1.367 . S
C876 C884 1.378 . S
C877 C876 1.367 . S
C877 C885 1.433 . S
C878 H874 0.929 . S
C878 C880 1.378 . S
C878 C882 1.350 . S
C879 C882 1.463 . S
C879 C884 1.350 . S
C879 N887 1.427 . S
C880 H871 0.930 . S
C880 C878 1.378 . S
C880 C881 1.367 . S
C881 C880 1.367 . S
C881 C883 1.433 . S
C882 C878 1.350 . S
C882 C879 1.463 . S
C882 N886 1.427 . S
C883 H873 0.929 . S
C883 C881 1.433 . S
C883 N886 1.384 . S
C884 H875 0.929 . S
C884 C876 1.378 . S
C884 C879 1.350 . S
C885 H872 0.929 . S
C885 C877 1.433 . S
C885 N887 1.384 . S
N886 C882 1.427 . S
N886 C883 1.384 . S
N887 C879 1.427 . S
N887 C885 1.384 . S
H888 C894 0.930 . S
H889 C898 0.930 . S
H890 C903 0.929 . S
H891 C901 0.929 . S
H892 C896 0.929 . S
H893 C902 0.929 . S
C894 H888 0.930 . S
C894 C895 1.367 . S
C894 C902 1.378 . S
C895 C894 1.367 . S
C895 C903 1.433 . S
C896 H892 0.929 . S
C896 C898 1.378 . S
C896 C900 1.350 . S
C897 C900 1.463 1_556 S
C897 C902 1.350 . S
C897 N905 1.427 . S
C898 H889 0.930 . S
C898 C896 1.378 . S
C898 C899 1.367 . S
C899 C898 1.367 . S
C899 C901 1.433 . S
C900 C896 1.350 . S
C900 C897 1.463 1_554 S
C900 N904 1.427 . S
C901 H891 0.929 . S
C901 C899 1.433 . S
C901 N904 1.384 . S
C902 H893 0.929 . S
C902 C894 1.378 . S
C902 C897 1.350 . S
C903 H890 0.929 . S
C903 C895 1.433 . S
C903 N905 1.384 . S
N904 C900 1.427 . S
N904 C901 1.384 . S
N905 C897 1.427 . S
N905 C903 1.384 . S
H906 C912 0.930 . S
H907 C916 0.930 . S
H908 C921 0.929 . S
H909 C919 0.929 . S
H910 C914 0.929 . S
H911 C920 0.929 . S
C912 H906 0.930 . S
C912 C913 1.367 . S
C912 C920 1.378 . S
C913 C912 1.367 . S
C913 C921 1.433 . S
C914 H910 0.929 . S
C914 C916 1.378 . S
C914 C918 1.350 . S
C915 C918 1.463 . S
C915 C920 1.350 . S
C915 N923 1.427 . S
C916 H907 0.930 . S
C916 C914 1.378 . S
C916 C917 1.367 . S
C917 C916 1.367 . S
C917 C919 1.433 . S
C918 C914 1.350 . S
C918 C915 1.463 . S
C918 N922 1.427 . S
C919 H909 0.929 . S
C919 C917 1.433 . S
C919 N922 1.384 . S
C920 H911 0.929 . S
C920 C912 1.378 . S
C920 C915 1.350 . S
C921 H908 0.929 . S
C921 C913 1.433 . S
C921 N923 1.384 . S
N922 C918 1.427 . S
N922 C919 1.384 . S
N923 C915 1.427 . S
N923 C921 1.384 . S
H924 C930 0.930 . S
H925 C934 0.930 . S
H926 C939 0.929 . S
H927 C937 0.929 . S
H928 C932 0.929 . S
H929 C938 0.929 . S
C930 H924 0.930 . S
C930 C931 1.367 . S
C930 C938 1.378 . S
C931 C930 1.367 . S
C931 C939 1.433 . S
C932 H928 0.929 . S
C932 C934 1.378 . S
C932 C936 1.350 . S
C933 C936 1.463 1_554 S
C933 C938 1.350 . S
C933 N941 1.427 . S
C934 H925 0.930 . S
C934 C932 1.378 . S
C934 C935 1.367 . S
C935 C934 1.367 . S
C935 C937 1.433 . S
C936 C932 1.350 . S
C936 C933 1.463 1_556 S
C936 N940 1.427 . S
C937 H927 0.929 . S
C937 C935 1.433 . S
C937 N940 1.384 . S
C938 H929 0.929 . S
C938 C930 1.378 . S
C938 C933 1.350 . S
C939 H926 0.929 . S
C939 C931 1.433 . S
C939 N941 1.384 . S
N940 C936 1.427 . S
N940 C937 1.384 . S
N941 C933 1.427 . S
N941 C939 1.384 . S
H942 C948 0.930 . S
H943 C952 0.930 . S
H944 C957 0.929 . S
H945 C955 0.929 . S
H946 C950 0.929 . S
H947 C956 0.929 . S
C948 H942 0.930 . S
C948 C949 1.367 . S
C948 C956 1.378 . S
C949 C948 1.367 . S
C949 C957 1.433 . S
C950 H946 0.929 . S
C950 C952 1.378 . S
C950 C954 1.350 . S
C951 C954 1.463 . S
C951 C956 1.350 . S
C951 N959 1.427 . S
C952 H943 0.930 . S
C952 C950 1.378 . S
C952 C953 1.367 . S
C953 C952 1.367 . S
C953 C955 1.433 . S
C954 C950 1.350 . S
C954 C951 1.463 . S
C954 N958 1.427 . S
C955 H945 0.929 . S
C955 C953 1.433 . S
C955 N958 1.384 . S
C956 H947 0.929 . S
C956 C948 1.378 . S
C956 C951 1.350 . S
C957 H944 0.929 . S
C957 C949 1.433 . S
C957 N959 1.384 . S
N958 C954 1.427 . S
N958 C955 1.384 . S
N959 C951 1.427 . S
N959 C957 1.384 . S
H960 C966 0.930 . S
H961 C970 0.930 . S
H962 C975 0.929 . S
H963 C973 0.929 . S
H964 C968 0.929 . S
H965 C974 0.929 . S
C966 H960 0.930 . S
C966 C967 1.367 . S
C966 C974 1.378 . S
C967 C966 1.367 . S
C967 C975 1.433 . S
C968 H964 0.929 . S
C968 C970 1.378 . S
C968 C972 1.350 . S
C969 C972 1.463 . S
C969 C974 1.350 . S
C969 N977 1.427 . S
C970 H961 0.930 . S
C970 C968 1.378 . S
C970 C971 1.367 . S
C971 C970 1.367 . S
C971 C973 1.433 . S
C972 C968 1.350 . S
C972 C969 1.463 . S
C972 N976 1.427 . S
C973 H963 0.929 . S
C973 C971 1.433 . S
C973 N976 1.384 . S
C974 H965 0.929 . S
C974 C966 1.378 . S
C974 C969 1.350 . S
C975 H962 0.929 . S
C975 C967 1.433 . S
C975 N977 1.384 . S
N976 C972 1.427 . S
N976 C973 1.384 . S
N977 C969 1.427 . S
N977 C975 1.384 . S
H978 C984 0.930 . S
H979 C988 0.930 . S
H980 C993 0.929 . S
H981 C991 0.929 . S
H982 C986 0.929 . S
H983 C992 0.929 . S
C984 H978 0.930 . S
C984 C985 1.367 . S
C984 C992 1.378 . S
C985 C984 1.367 . S
C985 C993 1.433 . S
C986 H982 0.929 . S
C986 C988 1.378 . S
C986 C990 1.350 . S
C987 C990 1.463 . S
C987 C992 1.350 . S
C987 N995 1.427 . S
C988 H979 0.930 . S
C988 C986 1.378 . S
C988 C989 1.367 . S
C989 C988 1.367 . S
C989 C991 1.433 . S
C990 C986 1.350 . S
C990 C987 1.463 . S
C990 N994 1.427 . S
C991 H981 0.929 . S
C991 C989 1.433 . S
C991 N994 1.384 . S
C992 H983 0.929 . S
C992 C984 1.378 . S
C992 C987 1.350 . S
C993 H980 0.929 . S
C993 C985 1.433 . S
C993 N995 1.384 . S
N994 C990 1.427 . S
N994 C991 1.384 . S
N995 C987 1.427 . S
N995 C993 1.384 . S
H996 C1002 0.930 . S
H997 C1006 0.930 . S
H998 C1011 0.929 . S
H999 C1009 0.929 . S
H1000 C1004 0.929 . S
H1001 C1010 0.929 . S
C1002 H996 0.930 . S
C1002 C1003 1.367 . S
C1002 C1010 1.378 . S
C1003 C1002 1.367 . S
C1003 C1011 1.433 . S
C1004 H1000 0.929 . S
C1004 C1006 1.378 . S
C1004 C1008 1.350 . S
C1005 C1008 1.463 . S
C1005 C1010 1.350 . S
C1005 N1013 1.427 . S
C1006 H997 0.930 . S
C1006 C1004 1.378 . S
C1006 C1007 1.367 . S
C1007 C1006 1.367 . S
C1007 C1009 1.433 . S
C1008 C1004 1.350 . S
C1008 C1005 1.463 . S
C1008 N1012 1.427 . S
C1009 H999 0.929 . S
C1009 C1007 1.433 . S
C1009 N1012 1.384 . S
C1010 H1001 0.929 . S
C1010 C1002 1.378 . S
C1010 C1005 1.350 . S
C1011 H998 0.929 . S
C1011 C1003 1.433 . S
C1011 N1013 1.384 . S
N1012 C1008 1.427 . S
N1012 C1009 1.384 . S
N1013 C1005 1.427 . S
N1013 C1011 1.384 . S
H1014 C1020 0.930 . S
H1015 C1024 0.930 . S
H1016 C1029 0.929 . S
H1017 C1027 0.929 . S
H1018 C1022 0.929 . S
H1019 C1028 0.929 . S
C1020 H1014 0.930 . S
C1020 C1021 1.367 . S
C1020 C1028 1.378 . S
C1021 C1020 1.367 . S
C1021 C1029 1.433 . S
C1022 H1018 0.929 . S
C1022 C1024 1.378 . S
C1022 C1026 1.350 . S
C1023 C1026 1.463 . S
C1023 C1028 1.350 . S
C1023 N1031 1.427 . S
C1024 H1015 0.930 . S
C1024 C1022 1.378 . S
C1024 C1025 1.367 . S
C1025 C1024 1.367 . S
C1025 C1027 1.433 . S
C1026 C1022 1.350 . S
C1026 C1023 1.463 . S
C1026 N1030 1.427 . S
C1027 H1017 0.929 . S
C1027 C1025 1.433 . S
C1027 N1030 1.384 . S
C1028 H1019 0.929 . S
C1028 C1020 1.378 . S
C1028 C1023 1.350 . S
C1029 H1016 0.929 . S
C1029 C1021 1.433 . S
C1029 N1031 1.384 . S
N1030 C1026 1.427 . S
N1030 C1027 1.384 . S
N1031 C1023 1.427 . S
N1031 C1029 1.384 . S
H1032 C1038 0.930 . S
H1033 C1042 0.930 . S
H1034 C1047 0.929 . S
H1035 C1045 0.929 . S
H1036 C1040 0.929 . S
H1037 C1046 0.929 . S
C1038 H1032 0.930 . S
C1038 C1039 1.367 . S
C1038 C1046 1.378 . S
C1039 C1038 1.367 . S
C1039 C1047 1.433 . S
C1040 H1036 0.929 . S
C1040 C1042 1.378 . S
C1040 C1044 1.350 . S
C1041 C1044 1.463 . S
C1041 C1046 1.350 . S
C1041 N1049 1.427 . S
C1042 H1033 0.930 . S
C1042 C1040 1.378 . S
C1042 C1043 1.367 . S
C1043 C1042 1.367 . S
C1043 C1045 1.433 . S
C1044 C1040 1.350 . S
C1044 C1041 1.463 . S
C1044 N1048 1.427 . S
C1045 H1035 0.929 . S
C1045 C1043 1.433 . S
C1045 N1048 1.384 . S
C1046 H1037 0.929 . S
C1046 C1038 1.378 . S
C1046 C1041 1.350 . S
C1047 H1034 0.929 . S
C1047 C1039 1.433 . S
C1047 N1049 1.384 . S
N1048 C1044 1.427 . S
N1048 C1045 1.384 . S
N1049 C1041 1.427 . S
N1049 C1047 1.384 . S
H1050 C1056 0.930 . S
H1051 C1060 0.930 . S
H1052 C1065 0.929 . S
H1053 C1063 0.929 . S
H1054 C1058 0.929 . S
H1055 C1064 0.929 . S
C1056 H1050 0.930 . S
C1056 C1057 1.367 . S
C1056 C1064 1.378 . S
C1057 C1056 1.367 . S
C1057 C1065 1.433 . S
C1058 H1054 0.929 . S
C1058 C1060 1.378 . S
C1058 C1062 1.350 . S
C1059 C1062 1.463 . S
C1059 C1064 1.350 . S
C1059 N1067 1.427 . S
C1060 H1051 0.930 . S
C1060 C1058 1.378 . S
C1060 C1061 1.367 . S
C1061 C1060 1.367 . S
C1061 C1063 1.433 . S
C1062 C1058 1.350 . S
C1062 C1059 1.463 . S
C1062 N1066 1.427 . S
C1063 H1053 0.929 . S
C1063 C1061 1.433 . S
C1063 N1066 1.384 . S
C1064 H1055 0.929 . S
C1064 C1056 1.378 . S
C1064 C1059 1.350 . S
C1065 H1052 0.929 . S
C1065 C1057 1.433 . S
C1065 N1067 1.384 . S
N1066 C1062 1.427 . S
N1066 C1063 1.384 . S
N1067 C1059 1.427 . S
N1067 C1065 1.384 . S
H1068 C1074 0.930 . S
H1069 C1078 0.930 . S
H1070 C1083 0.929 . S
H1071 C1081 0.929 . S
H1072 C1076 0.929 . S
H1073 C1082 0.929 . S
C1074 H1068 0.930 . S
C1074 C1075 1.367 . S
C1074 C1082 1.378 . S
C1075 C1074 1.367 . S
C1075 C1083 1.433 . S
C1076 H1072 0.929 . S
C1076 C1078 1.378 . S
C1076 C1080 1.350 . S
C1077 C1080 1.463 . S
C1077 C1082 1.350 . S
C1077 N1085 1.427 . S
C1078 H1069 0.930 . S
C1078 C1076 1.378 . S
C1078 C1079 1.367 . S
C1079 C1078 1.367 . S
C1079 C1081 1.433 . S
C1080 C1076 1.350 . S
C1080 C1077 1.463 . S
C1080 N1084 1.427 . S
C1081 H1071 0.929 . S
C1081 C1079 1.433 . S
C1081 N1084 1.384 . S
C1082 H1073 0.929 . S
C1082 C1074 1.378 . S
C1082 C1077 1.350 . S
C1083 H1070 0.929 . S
C1083 C1075 1.433 . S
C1083 N1085 1.384 . S
N1084 C1080 1.427 . S
N1084 C1081 1.384 . S
N1085 C1077 1.427 . S
N1085 C1083 1.384 . S
H1086 C1092 0.930 . S
H1087 C1096 0.930 . S
H1088 C1101 0.929 . S
H1089 C1099 0.929 . S
H1090 C1094 0.929 . S
H1091 C1100 0.929 . S
C1092 H1086 0.930 . S
C1092 C1093 1.367 . S
C1092 C1100 1.378 . S
C1093 C1092 1.367 . S
C1093 C1101 1.433 . S
C1094 H1090 0.929 . S
C1094 C1096 1.378 . S
C1094 C1098 1.350 . S
C1095 C1098 1.463 . S
C1095 C1100 1.350 . S
C1095 N1103 1.427 . S
C1096 H1087 0.930 . S
C1096 C1094 1.378 . S
C1096 C1097 1.367 . S
C1097 C1096 1.367 . S
C1097 C1099 1.433 . S
C1098 C1094 1.350 . S
C1098 C1095 1.463 . S
C1098 N1102 1.427 . S
C1099 H1089 0.929 . S
C1099 C1097 1.433 . S
C1099 N1102 1.384 . S
C1100 H1091 0.929 . S
C1100 C1092 1.378 . S
C1100 C1095 1.350 . S
C1101 H1088 0.929 . S
C1101 C1093 1.433 . S
C1101 N1103 1.384 . S
N1102 C1098 1.427 . S
N1102 C1099 1.384 . S
N1103 C1095 1.427 . S
N1103 C1101 1.384 . S
H1104 C1110 0.930 . S
H1105 C1114 0.930 . S
H1106 C1119 0.929 . S
H1107 C1117 0.929 . S
H1108 C1112 0.929 . S
H1109 C1118 0.929 . S
C1110 H1104 0.930 . S
C1110 C1111 1.367 . S
C1110 C1118 1.378 . S
C1111 C1110 1.367 . S
C1111 C1119 1.433 . S
C1112 H1108 0.929 . S
C1112 C1114 1.378 . S
C1112 C1116 1.350 . S
C1113 C1116 1.463 . S
C1113 C1118 1.350 . S
C1113 N1121 1.427 . S
C1114 H1105 0.930 . S
C1114 C1112 1.378 . S
C1114 C1115 1.367 . S
C1115 C1114 1.367 . S
C1115 C1117 1.433 . S
C1116 C1112 1.350 . S
C1116 C1113 1.463 . S
C1116 N1120 1.427 . S
C1117 H1107 0.929 . S
C1117 C1115 1.433 . S
C1117 N1120 1.384 . S
C1118 H1109 0.929 . S
C1118 C1110 1.378 . S
C1118 C1113 1.350 . S
C1119 H1106 0.929 . S
C1119 C1111 1.433 . S
C1119 N1121 1.384 . S
N1120 C1116 1.427 . S
N1120 C1117 1.384 . S
N1121 C1113 1.427 . S
N1121 C1119 1.384 . S
H1122 C1128 0.930 . S
H1123 C1132 0.930 . S
H1124 C1137 0.929 . S
H1125 C1135 0.929 . S
H1126 C1130 0.929 . S
H1127 C1136 0.929 . S
C1128 H1122 0.930 . S
C1128 C1129 1.367 . S
C1128 C1136 1.378 . S
C1129 C1128 1.367 . S
C1129 C1137 1.433 . S
C1130 H1126 0.929 . S
C1130 C1132 1.378 . S
C1130 C1134 1.350 . S
C1131 C1134 1.463 . S
C1131 C1136 1.350 . S
C1131 N1139 1.427 . S
C1132 H1123 0.930 . S
C1132 C1130 1.378 . S
C1132 C1133 1.367 . S
C1133 C1132 1.367 . S
C1133 C1135 1.433 . S
C1134 C1130 1.350 . S
C1134 C1131 1.463 . S
C1134 N1138 1.427 . S
C1135 H1125 0.929 . S
C1135 C1133 1.433 . S
C1135 N1138 1.384 . S
C1136 H1127 0.929 . S
C1136 C1128 1.378 . S
C1136 C1131 1.350 . S
C1137 H1124 0.929 . S
C1137 C1129 1.433 . S
C1137 N1139 1.384 . S
N1138 C1134 1.427 . S
N1138 C1135 1.384 . S
N1139 C1131 1.427 . S
N1139 C1137 1.384 . S
H1140 C1146 0.930 . S
H1141 C1150 0.930 . S
H1142 C1155 0.929 . S
H1143 C1153 0.929 . S
H1144 C1148 0.929 . S
H1145 C1154 0.929 . S
C1146 H1140 0.930 . S
C1146 C1147 1.367 . S
C1146 C1154 1.378 . S
C1147 C1146 1.367 . S
C1147 C1155 1.433 . S
C1148 H1144 0.929 . S
C1148 C1150 1.378 . S
C1148 C1152 1.350 . S
C1149 C1152 1.463 . S
C1149 C1154 1.350 . S
C1149 N1157 1.427 . S
C1150 H1141 0.930 . S
C1150 C1148 1.378 . S
C1150 C1151 1.367 . S
C1151 C1150 1.367 . S
C1151 C1153 1.433 . S
C1152 C1148 1.350 . S
C1152 C1149 1.463 . S
C1152 N1156 1.427 . S
C1153 H1143 0.929 . S
C1153 C1151 1.433 . S
C1153 N1156 1.384 . S
C1154 H1145 0.929 . S
C1154 C1146 1.378 . S
C1154 C1149 1.350 . S
C1155 H1142 0.929 . S
C1155 C1147 1.433 . S
C1155 N1157 1.384 . S
N1156 C1152 1.427 . S
N1156 C1153 1.384 . S
N1157 C1149 1.427 . S
N1157 C1155 1.384 . S
H1158 C1164 0.930 . S
H1159 C1168 0.930 . S
H1160 C1173 0.929 . S
H1161 C1171 0.929 . S
H1162 C1166 0.929 . S
H1163 C1172 0.929 . S
C1164 H1158 0.930 . S
C1164 C1165 1.367 . S
C1164 C1172 1.378 . S
C1165 C1164 1.367 . S
C1165 C1173 1.433 . S
C1166 H1162 0.929 . S
C1166 C1168 1.378 . S
C1166 C1170 1.350 . S
C1167 C1170 1.463 . S
C1167 C1172 1.350 . S
C1167 N1175 1.427 . S
C1168 H1159 0.930 . S
C1168 C1166 1.378 . S
C1168 C1169 1.367 . S
C1169 C1168 1.367 . S
C1169 C1171 1.433 . S
C1170 C1166 1.350 . S
C1170 C1167 1.463 . S
C1170 N1174 1.427 . S
C1171 H1161 0.929 . S
C1171 C1169 1.433 . S
C1171 N1174 1.384 . S
C1172 H1163 0.929 . S
C1172 C1164 1.378 . S
C1172 C1167 1.350 . S
C1173 H1160 0.929 . S
C1173 C1165 1.433 . S
C1173 N1175 1.384 . S
N1174 C1170 1.427 . S
N1174 C1171 1.384 . S
N1175 C1167 1.427 . S
N1175 C1173 1.384 . S
H1176 C1182 0.930 . S
H1177 C1186 0.930 . S
H1178 C1191 0.929 . S
H1179 C1189 0.929 . S
H1180 C1184 0.929 . S
H1181 C1190 0.929 . S
C1182 H1176 0.930 . S
C1182 C1183 1.367 . S
C1182 C1190 1.378 . S
C1183 C1182 1.367 . S
C1183 C1191 1.433 . S
C1184 H1180 0.929 . S
C1184 C1186 1.378 . S
C1184 C1188 1.350 . S
C1185 C1188 1.463 . S
C1185 C1190 1.350 . S
C1185 N1193 1.427 . S
C1186 H1177 0.930 . S
C1186 C1184 1.378 . S
C1186 C1187 1.367 . S
C1187 C1186 1.367 . S
C1187 C1189 1.433 . S
C1188 C1184 1.350 . S
C1188 C1185 1.463 . S
C1188 N1192 1.427 . S
C1189 H1179 0.929 . S
C1189 C1187 1.433 . S
C1189 N1192 1.384 . S
C1190 H1181 0.929 . S
C1190 C1182 1.378 . S
C1190 C1185 1.350 . S
C1191 H1178 0.929 . S
C1191 C1183 1.433 . S
C1191 N1193 1.384 . S
N1192 C1188 1.427 . S
N1192 C1189 1.384 . S
N1193 C1185 1.427 . S
N1193 C1191 1.384 . S
H1194 C1200 0.930 . S
H1195 C1204 0.930 . S
H1196 C1209 0.929 . S
H1197 C1207 0.929 . S
H1198 C1202 0.929 . S
H1199 C1208 0.929 . S
C1200 H1194 0.930 . S
C1200 C1201 1.367 . S
C1200 C1208 1.378 . S
C1201 C1200 1.367 . S
C1201 C1209 1.433 . S
C1202 H1198 0.929 . S
C1202 C1204 1.378 . S
C1202 C1206 1.350 . S
C1203 C1206 1.463 . S
C1203 C1208 1.350 . S
C1203 N1211 1.427 . S
C1204 H1195 0.930 . S
C1204 C1202 1.378 . S
C1204 C1205 1.367 . S
C1205 C1204 1.367 . S
C1205 C1207 1.433 . S
C1206 C1202 1.350 . S
C1206 C1203 1.463 . S
C1206 N1210 1.427 . S
C1207 H1197 0.929 . S
C1207 C1205 1.433 . S
C1207 N1210 1.384 . S
C1208 H1199 0.929 . S
C1208 C1200 1.378 . S
C1208 C1203 1.350 . S
C1209 H1196 0.929 . S
C1209 C1201 1.433 . S
C1209 N1211 1.384 . S
N1210 C1206 1.427 . S
N1210 C1207 1.384 . S
N1211 C1203 1.427 . S
N1211 C1209 1.384 . S
H1212 C1218 0.930 . S
H1213 C1222 0.930 . S
H1214 C1227 0.929 . S
H1215 C1225 0.929 . S
H1216 C1220 0.929 . S
H1217 C1226 0.929 . S
C1218 H1212 0.930 . S
C1218 C1219 1.367 . S
C1218 C1226 1.378 . S
C1219 C1218 1.367 . S
C1219 C1227 1.433 . S
C1220 H1216 0.929 . S
C1220 C1222 1.378 . S
C1220 C1224 1.350 . S
C1221 C1224 1.463 . S
C1221 C1226 1.350 . S
C1221 N1229 1.427 . S
C1222 H1213 0.930 . S
C1222 C1220 1.378 . S
C1222 C1223 1.367 . S
C1223 C1222 1.367 . S
C1223 C1225 1.433 . S
C1224 C1220 1.350 . S
C1224 C1221 1.463 . S
C1224 N1228 1.427 . S
C1225 H1215 0.929 . S
C1225 C1223 1.433 . S
C1225 N1228 1.384 . S
C1226 H1217 0.929 . S
C1226 C1218 1.378 . S
C1226 C1221 1.350 . S
C1227 H1214 0.929 . S
C1227 C1219 1.433 . S
C1227 N1229 1.384 . S
N1228 C1224 1.427 . S
N1228 C1225 1.384 . S
N1229 C1221 1.427 . S
N1229 C1227 1.384 . S
H1230 C1236 0.930 . S
H1231 C1240 0.930 . S
H1232 C1245 0.929 . S
H1233 C1243 0.929 . S
H1234 C1238 0.929 . S
H1235 C1244 0.929 . S
C1236 H1230 0.930 . S
C1236 C1237 1.367 . S
C1236 C1244 1.378 . S
C1237 C1236 1.367 . S
C1237 C1245 1.433 . S
C1238 H1234 0.929 . S
C1238 C1240 1.378 . S
C1238 C1242 1.350 . S
C1239 C1242 1.463 . S
C1239 C1244 1.350 . S
C1239 N1247 1.427 . S
C1240 H1231 0.930 . S
C1240 C1238 1.378 . S
C1240 C1241 1.367 . S
C1241 C1240 1.367 . S
C1241 C1243 1.433 . S
C1242 C1238 1.350 . S
C1242 C1239 1.463 . S
C1242 N1246 1.427 . S
C1243 H1233 0.929 . S
C1243 C1241 1.433 . S
C1243 N1246 1.384 . S
C1244 H1235 0.929 . S
C1244 C1236 1.378 . S
C1244 C1239 1.350 . S
C1245 H1232 0.929 . S
C1245 C1237 1.433 . S
C1245 N1247 1.384 . S
N1246 C1242 1.427 . S
N1246 C1243 1.384 . S
N1247 C1239 1.427 . S
N1247 C1245 1.384 . S
C535 N410 1.450 . S
C539 N5 1.449 . S
C553 N47 1.431 . S
C557 N434 1.448 . S
C571 N71 1.448 . S
C575 N476 1.450 . S
C589 N113 1.433 . S
C593 N500 1.449 . S
C607 N269 1.443 . S
C611 N146 1.427 . S
C625 N311 1.452 . S
C629 N170 1.451 . S
C643 N212 1.437 . S
C647 N335 1.452 . S
C661 N377 1.452 . S
C665 N236 1.449 . S
C679 C17 1.086 . S
C683 C479 1.086 . S
C697 C512 1.064 . S
C701 C50 1.063 . S
C715 C413 1.084 . S
C719 C83 1.085 . S
C733 C446 1.067 . S
C737 C116 1.068 . S
C751 C347 1.065 . S
C755 C149 1.063 . S
C769 C380 1.086 . S
C773 C182 1.086 . S
C787 C281 1.067 . S
C791 C215 1.068 . S
C805 C314 1.085 . S
C809 C248 1.085 . S
C823 C8 1.225 . S
C827 C358 1.263 . S
C841 C371 1.291 . S
C845 C61 1.267 . S
C859 C292 1.270 . S
C863 C74 1.224 . S
C877 C305 1.292 . S
C881 C127 1.265 . S
C895 C160 1.258 . S
C899 C470 1.302 . S
C913 C173 1.225 . S
C917 C523 1.270 . S
C931 C404 1.294 . S
C935 C226 1.263 . S
C949 C239 1.225 . S
C953 C457 1.270 . S
C967 N401 1.824 . S
C971 N14 1.810 . S
C985 N38 1.845 . S
C989 N443 1.846 . S
C1003 N80 1.810 . S
C1007 N467 1.824 . S
C1021 N509 1.842 . S
C1025 N104 1.842 . S
C1039 N278 1.841 . S
C1043 N137 1.841 . S
C1057 N179 1.823 . S
C1061 N302 1.836 . S
C1075 N344 1.852 . S
C1079 N203 1.851 . S
C1093 N368 1.823 . S
C1097 N245 1.809 . S
C1111 C193 1.466 . S
C1115 C28 1.477 . S
C1129 C206 1.420 . S
C1133 C41 1.419 . S
C1147 C94 1.478 . S
C1151 C259 1.482 . S
C1165 C140 1.417 . S
C1169 C107 1.425 . S
C1183 C272 1.260 . S
C1187 C437 1.251 . S
C1201 C490 1.306 . S
C1205 C325 1.311 . S
C1219 C503 1.249 . S
C1223 C338 1.242 . S
C1237 C391 1.305 . S
C1241 C424 1.299 . S
