# Generated by pormake.
# Topology snz, (6)-cn, num edge types: 1
# Building blocks:
#     Node 0, Type 0, BuildingBlock: BETFAJ_clean_sbu_0, # of connection points: 6
#     Node 1, Type 0, BuildingBlock: BETFAJ_clean_sbu_0, # of connection points: 6
#     Node 2, Type 0, BuildingBlock: BETFAJ_clean_sbu_0, # of connection points: 6
#     Node 3, Type 0, BuildingBlock: BETFAJ_clean_sbu_0, # of connection points: 6
#     Node 4, Type 0, BuildingBlock: BETFAJ_clean_sbu_0, # of connection points: 6
#     Node 5, Type 0, BuildingBlock: BETFAJ_clean_sbu_0, # of connection points: 6
#     Node 6, Type 0, BuildingBlock: BETFAJ_clean_sbu_0, # of connection points: 6
#     Node 7, Type 0, BuildingBlock: BETFAJ_clean_sbu_0, # of connection points: 6
#     Node 8, Type 0, BuildingBlock: BETFAJ_clean_sbu_0, # of connection points: 6
#     Edge 9, Type (0, 0), BuildingBlock: AJUNOK_clean_linker_0, # of connection points: 2
#     Edge 10, Type (0, 0), BuildingBlock: AJUNOK_clean_linker_0, # of connection points: 2
#     Edge 11, Type (0, 0), BuildingBlock: AJUNOK_clean_linker_0, # of connection points: 2
#     Edge 12, Type (0, 0), BuildingBlock: AJUNOK_clean_linker_0, # of connection points: 2
#     Edge 13, Type (0, 0), BuildingBlock: AJUNOK_clean_linker_0, # of connection points: 2
#     Edge 14, Type (0, 0), BuildingBlock: AJUNOK_clean_linker_0, # of connection points: 2
#     Edge 15, Type (0, 0), BuildingBlock: AJUNOK_clean_linker_0, # of connection points: 2
#     Edge 16, Type (0, 0), BuildingBlock: AJUNOK_clean_linker_0, # of connection points: 2
#     Edge 17, Type (0, 0), BuildingBlock: AJUNOK_clean_linker_0, # of connection points: 2
#     Edge 18, Type (0, 0), BuildingBlock: AJUNOK_clean_linker_0, # of connection points: 2
#     Edge 19, Type (0, 0), BuildingBlock: AJUNOK_clean_linker_0, # of connection points: 2
#     Edge 20, Type (0, 0), BuildingBlock: AJUNOK_clean_linker_0, # of connection points: 2
#     Edge 21, Type (0, 0), BuildingBlock: AJUNOK_clean_linker_0, # of connection points: 2
#     Edge 22, Type (0, 0), BuildingBlock: AJUNOK_clean_linker_0, # of connection points: 2
#     Edge 23, Type (0, 0), BuildingBlock: AJUNOK_clean_linker_0, # of connection points: 2
#     Edge 24, Type (0, 0), BuildingBlock: AJUNOK_clean_linker_0, # of connection points: 2
#     Edge 25, Type (0, 0), BuildingBlock: AJUNOK_clean_linker_0, # of connection points: 2
#     Edge 26, Type (0, 0), BuildingBlock: AJUNOK_clean_linker_0, # of connection points: 2
#     Edge 27, Type (0, 0), BuildingBlock: AJUNOK_clean_linker_0, # of connection points: 2
#     Edge 28, Type (0, 0), BuildingBlock: AJUNOK_clean_linker_0, # of connection points: 2
#     Edge 29, Type (0, 0), BuildingBlock: AJUNOK_clean_linker_0, # of connection points: 2
#     Edge 30, Type (0, 0), BuildingBlock: AJUNOK_clean_linker_0, # of connection points: 2
#     Edge 31, Type (0, 0), BuildingBlock: AJUNOK_clean_linker_0, # of connection points: 2
#     Edge 32, Type (0, 0), BuildingBlock: AJUNOK_clean_linker_0, # of connection points: 2
#     Edge 33, Type (0, 0), BuildingBlock: AJUNOK_clean_linker_0, # of connection points: 2
#     Edge 34, Type (0, 0), BuildingBlock: AJUNOK_clean_linker_0, # of connection points: 2
#     Edge 35, Type (0, 0), BuildingBlock: AJUNOK_clean_linker_0, # of connection points: 2
# Relax obj value: 0.620
# Max RMSD: 0.284
# Mean RMSD: 0.189
data_MOF--net-snz--node1-BETFAJ_clean_sbu_0--edge1-AJUNOK_clean_linker_0
_symmetry_space_group_name_H-M    P1
_symmetry_Int_Tables_number       1
_symmetry_cell_setting            triclinic
loop_
_symmetry_equiv_pos_as_xyz
'x, y, z'
_cell_length_a     55.512915
_cell_length_b     42.341413
_cell_length_c     12.476227
_cell_angle_alpha  96.339944
_cell_angle_beta   98.490595
_cell_angle_gamma 122.00616
loop_
_atom_site_label
_atom_site_type_symbol
_atom_site_fract_x
_atom_site_fract_y
_atom_site_fract_z
_atom_type_partial_charge
Sm0 Sm 0.15338 0.49371 0.24652 0.0
Sm1 Sm 0.11583 0.50277 0.25805 0.0
C2 C 0.1857 0.46393 0.27829 0.0
C3 C 0.20287 0.45198 0.34662 0.0
C4 C 0.1966 0.44009 0.44582 0.0
C5 C 0.20926 0.42249 0.49786 0.0
C6 C 0.22824 0.41557 0.45143 0.0
C7 C 0.23515 0.42875 0.35409 0.0
C8 C 0.22269 0.44658 0.30274 0.0
C9 C 0.14208 0.50252 1.0162 0.0
C10 C 0.08582 0.41558 0.14998 0.0
C11 C 0.08083 0.52797 0.26798 0.0
C12 C 0.06723 0.54619 0.21525 0.0
C13 C 0.07534 0.56274 0.12434 0.0
C14 C 0.06241 0.58081 1.0791 0.0
C15 C 0.04132 0.58282 0.12457 0.0
C16 C 0.03358 0.5664 0.21616 0.0
C17 C 0.04639 0.54833 0.26083 0.0
C18 C 0.12905 0.49173 0.48537 0.0
C19 C 0.17715 0.58305 0.29785 0.0
O20 O 0.15781 0.44593 0.273 0.0
O21 O 0.19699 0.49919 0.26828 0.0
O22 O 0.1227 0.48731 1.07597 0.0
O23 O 0.16721 0.51537 1.08369 0.0
O24 O 0.11349 0.42826 0.19036 0.0
O25 O 0.07975 0.44148 0.1575 0.0
O26 O 0.07131 0.49293 0.22252 0.0
O27 O 0.10905 0.54899 0.30824 0.0
O28 O 0.14757 0.51117 0.42712 0.0
O29 O 0.10383 0.47407 0.41393 0.0
O30 O 0.14958 0.56494 0.24504 0.0
O31 O 0.1858 0.56062 0.32408 0.0
H32 H 0.18127 0.44349 0.48171 0.0
H33 H 0.20392 0.41403 0.57425 0.0
H34 H 0.24945 0.42403 0.31475 0.0
H35 H 0.22763 0.45471 0.2255 0.0
H36 H 0.09153 0.56158 1.08832 0.0
H37 H 0.06846 0.59248 1.00722 0.0
H38 H 1.01759 0.5676 0.2536 0.0
H39 H 0.04006 0.53609 0.33173 0.0
Sm40 Sm 0.6601 0.51565 1.05787 0.0
Sm41 Sm 0.62455 0.5168 1.04429 0.0
C42 C 0.71177 0.52185 1.08439 0.0
C43 C 0.73982 0.53969 1.04653 0.0
C44 C 0.74403 0.55827 0.95746 0.0
C45 C 0.77129 0.57649 0.92825 0.0
C46 C 0.79536 0.57704 0.98777 0.0
C47 C 0.79078 0.55799 1.0761 0.0
C48 C 0.7636 0.53982 0.10505 0.0
C49 C 0.65352 0.53036 0.31469 0.0
C50 C 0.67694 0.60249 0.1262 0.0
C51 C 0.57451 0.51212 1.0256 0.0
C52 C 0.55319 0.49857 1.09649 0.0
C53 C 0.56208 0.5148 0.21128 0.0
C54 C 0.54253 0.49975 0.27924 0.0
C55 C 0.51369 0.46773 0.23477 0.0
C56 C 0.50468 0.45182 0.11967 0.0
C57 C 0.52422 0.46705 1.0514 0.0
C58 C 0.63043 0.50096 0.78729 0.0
C59 C 0.60138 0.42919 0.98585 0.0
O60 O 0.68741 0.49346 1.01629 0.0
O61 O 0.70742 0.54492 0.14298 0.0
O62 O 0.64129 0.5063 0.21648 0.0
O63 O 0.64067 0.50541 0.21744 0.0
O64 O 0.68615 0.58313 1.07738 0.0
O65 O 0.65066 0.58072 0.14146 0.0
O66 O 0.57658 0.48596 0.97054 0.0
O67 O 0.6001 0.54397 1.06885 0.0
O68 O 0.64335 0.52537 0.88497 0.0
O69 O 0.64388 0.5261 0.88417 0.0
O70 O 0.59485 0.45135 1.03557 0.0
O71 O 0.62801 0.4485 0.96775 0.0
H72 H 0.72626 0.55885 0.91065 0.0
H73 H 0.77333 0.58976 0.85785 0.0
H74 H 0.80843 0.55758 0.12447 0.0
H75 H 0.76126 0.52608 0.17463 0.0
H76 H 0.58429 0.5389 0.2493 0.0
H77 H 0.55004 0.51335 0.36687 0.0
H78 H 0.48267 0.42709 1.08268 0.0
H79 H 0.51684 0.45369 0.96354 0.0
Sm80 Sm 0.61166 0.05445 0.86516 0.0
Sm81 Sm 0.65391 0.09926 0.89346 0.0
C82 C 0.557 0.99385 0.82554 0.0
C83 C 0.53661 0.97881 0.89909 0.0
C84 C 0.53933 1.00344 0.9924 0.0
C85 C 0.52036 0.98926 1.06291 0.0
C86 C 0.49847 0.94997 1.04302 0.0
C87 C 0.49581 0.9254 0.94935 0.0
C88 C 0.5147 0.93968 0.87828 0.0
C89 C 0.62373 0.07961 0.62559 0.0
C90 C 0.60333 0.12083 0.86096 0.0
C91 C 0.71385 0.14611 0.93009 0.0
C92 C 0.741 0.14943 0.89687 0.0
C93 C 0.74563 0.11942 0.89267 0.0
C94 C 0.7722 0.12399 0.87557 0.0
C95 C 0.79612 0.15899 0.86193 0.0
C96 C 0.79142 0.18906 0.86684 0.0
C97 C 0.76478 0.18438 0.88349 0.0
C98 C 0.64323 0.07749 0.13632 0.0
C99 C 0.64895 0.02304 0.92772 0.0
O100 O 0.56368 0.02667 0.80394 0.0
O101 O 0.57983 0.99182 0.84726 0.0
O102 O 0.63054 0.06552 0.70539 0.0
O103 O 0.63096 0.06518 0.70413 0.0
O104 O 0.59197 0.08934 0.89522 0.0
O105 O 0.62987 0.13296 0.84162 0.0
O106 O 0.69954 0.11984 0.98297 0.0
O107 O 0.69568 0.15113 0.86635 0.0
O108 O 0.6358 0.09044 1.05435 0.0
O109 O 0.63534 0.0908 1.05615 0.0
O110 O 0.6622 0.04992 0.87404 0.0
O111 O 0.62613 0.02006 0.9525 0.0
H112 H 0.55614 0.03377 1.0108 0.0
H113 H 0.52264 1.00923 0.13226 0.0
H114 H 0.47928 0.895 0.93163 0.0
H115 H 0.51228 0.92011 0.8073 0.0
H116 H 0.72872 0.09213 0.90457 0.0
H117 H 0.77384 0.09958 0.87291 0.0
H118 H 0.80877 0.21713 0.86153 0.0
H119 H 0.76318 0.20888 0.88909 0.0
Sm120 Sm 0.81327 0.85552 0.30066 0.0
Sm121 Sm 0.77627 0.86528 0.31315 0.0
C122 C 0.84806 0.83003 0.29093 0.0
C123 C 0.86271 0.81363 0.34708 0.0
C124 C 0.85718 0.80158 0.44617 0.0
C125 C 0.87026 0.78402 0.49348 0.0
C126 C 0.88887 0.77794 0.44191 0.0
C127 C 0.89446 0.79046 0.34319 0.0
C128 C 0.88146 0.80801 0.29627 0.0
C129 C 0.80009 0.86631 1.07316 0.0
C130 C 0.75122 0.77536 0.25749 0.0
C131 C 0.74467 0.8959 0.28199 0.0
C132 C 0.72644 0.90713 0.21794 0.0
C133 C 0.72658 0.91088 0.1072 0.0
C134 C 0.71266 0.92707 1.0551 0.0
C135 C 0.69843 0.94031 0.1125 0.0
C136 C 0.69848 0.93641 0.22346 0.0
C137 C 0.71201 0.91986 0.27469 0.0
C138 C 0.78713 0.85577 0.54268 0.0
C139 C 0.84377 0.94284 0.41411 0.0
O140 O 0.85788 0.86573 0.32863 0.0
O141 O 0.81963 0.80847 0.25859 0.0
O142 O 0.78155 0.84744 0.13201 0.0
O143 O 0.8254 0.88359 0.14368 0.0
O144 O 0.77898 0.79247 0.30633 0.0
O145 O 0.74297 0.79856 0.23582 0.0
O146 O 0.77185 0.91234 0.27661 0.0
O147 O 0.73359 0.86164 0.30077 0.0
O148 O 0.80665 0.87109 0.48343 0.0
O149 O 0.76214 0.84326 0.47477 0.0
O150 O 0.81627 0.93068 0.37294 0.0
O151 O 0.84941 0.91649 0.40518 0.0
H152 H 0.84269 0.80559 0.48648 0.0
H153 H 0.86608 0.77563 0.57108 0.0
H154 H 0.90866 0.78629 0.30142 0.0
H155 H 0.88582 0.81684 0.21923 0.0
H156 H 0.738 0.90207 1.06171 0.0
H157 H 0.71325 0.92947 0.96989 0.0
H158 H 0.68893 0.94739 0.27283 0.0
H159 H 0.71222 0.91845 0.36099 0.0
Sm160 Sm 0.30351 0.84172 0.51204 0.0
Sm161 Sm 0.26756 0.84253 0.49913 0.0
C162 C 0.35331 0.84549 0.52885 0.0
C163 C 0.37475 0.85997 0.45953 0.0
C164 C 0.36977 0.87415 0.36801 0.0
C165 C 0.39017 0.88872 0.30301 0.0
C166 C 0.4161 0.88957 0.32812 0.0
C167 C 0.42087 0.87499 0.41943 0.0
C168 C 0.40043 0.86045 0.48469 0.0
C169 C 0.29662 0.85688 0.76888 0.0
C170 C 0.32615 0.92928 0.57187 0.0
C171 C 0.21563 0.8353 0.4778 0.0
C172 C 0.18779 0.81618 0.51844 0.0
C173 C 0.1686 0.77599 0.49708 0.0
C174 C 0.14138 0.75833 0.52608 0.0
C175 C 0.13211 0.78012 0.57727 0.0
C176 C 0.15157 0.82033 0.60043 0.0
C177 C 0.17877 0.83798 0.57106 0.0
C178 C 0.27399 0.82741 0.24239 0.0
C179 C 0.25078 0.75586 0.43082 0.0
O180 O 0.35125 0.87124 0.58641 0.0
O181 O 0.32764 0.81454 0.48016 0.0
O182 O 0.28464 0.83259 0.67111 0.0
O183 O 0.28406 0.83174 0.67195 0.0
O184 O 0.33336 0.90751 0.52472 0.0
O185 O 0.29921 0.90971 0.58701 0.0
O186 O 0.24003 0.8642 0.54441 0.0
O187 O 0.22034 0.8135 0.4148 0.0
O188 O 0.28615 0.85181 0.33997 0.0
O189 O 0.28677 0.85273 0.33895 0.0
O190 O 0.24156 0.77528 0.47887 0.0
O191 O 0.27723 0.77742 0.4168 0.0
H192 H 0.3501 0.87411 0.34712 0.0
H193 H 0.3858 0.89978 0.23371 0.0
H194 H 0.44025 0.87439 0.43972 0.0
H195 H 0.40466 0.84957 0.55469 0.0
H196 H 0.17445 0.75798 0.4566 0.0
H197 H 0.12767 0.72742 0.50898 0.0
H198 H 0.14548 0.83835 0.63938 0.0
H199 H 0.1926 0.86889 0.58789 0.0
Sm200 Sm 0.27378 0.25506 0.65504 0.0
Sm201 Sm 0.31611 0.30118 0.68499 0.0
C202 C 0.21399 0.20704 0.61563 0.0
C203 C 0.18642 0.20461 0.64 0.0
C204 C 0.18142 0.20871 0.74746 0.0
C205 C 0.15513 0.20537 0.76402 0.0
C206 C 0.13227 0.19776 0.6743 0.0
C207 C 0.13743 0.19324 0.56719 0.0
C208 C 0.16359 0.19677 0.55088 0.0
C209 C 0.28453 0.27717 0.41252 0.0
C210 C 0.27678 0.33022 0.62433 0.0
C211 C 0.37071 0.36239 0.72772 0.0
C212 C 0.39152 0.37848 0.65662 0.0
C213 C 0.38291 0.36163 0.5426 0.0
C214 C 0.40281 0.37614 0.47554 0.0
C215 C 0.43183 0.40767 0.52118 0.0
C216 C 0.44026 0.4246 0.6354 0.0
C217 C 0.42031 0.41007 0.70244 0.0
C218 C 0.30526 0.27664 0.92482 0.0
C219 C 0.32429 0.23405 0.68925 0.0
O220 O 0.22797 0.2301 0.55404 0.0
O221 O 0.23247 0.20551 0.68979 0.0
O222 O 0.29268 0.2653 0.4959 0.0
O223 O 0.29313 0.26503 0.49435 0.0
O224 O 0.26407 0.3027 0.67623 0.0
O225 O 0.30023 0.335 0.59973 0.0
O226 O 0.36418 0.32931 0.74598 0.0
O227 O 0.34763 0.36387 0.70514 0.0
O228 O 0.29693 0.28904 0.84361 0.0
O229 O 0.29651 0.28927 0.84487 0.0
O230 O 0.33643 0.26641 0.65923 0.0
O231 O 0.29739 0.22128 0.7049 0.0
H232 H 0.19788 0.2146 0.8195 0.0
H233 H 0.15292 0.2092 0.8484 0.0
H234 H 0.12083 0.18595 0.49384 0.0
H235 H 0.16579 0.19279 0.46645 0.0
H236 H 0.36082 0.33701 0.50561 0.0
H237 H 0.39563 0.36218 0.38828 0.0
H238 H 0.46222 0.44934 0.6729 0.0
H239 H 0.4274 0.42346 0.79017 0.0
Sm240 Sm 0.46793 0.18501 0.69116 0.0
Sm241 Sm 0.46088 0.17386 0.85981 0.0
C242 C 0.46183 0.20348 0.49986 0.0
C243 C 0.45425 0.23379 0.48572 0.0
C244 C 0.41564 0.22312 0.45207 0.0
C245 C 0.40951 0.2614 0.44374 0.0
C246 C 0.44411 0.31495 0.47674 0.0
C247 C 0.48386 0.32468 0.50406 0.0
C248 C 0.48688 0.2836 0.51017 0.0
C249 C 0.5115 0.2569 0.83585 0.0
C250 C 0.41594 0.19471 0.7622 0.0
C251 C 0.46497 0.17382 1.07237 0.0
C252 C 0.46099 0.19745 0.15386 0.0
C253 C 0.48453 0.23491 0.20632 0.0
C254 C 0.47998 0.2592 0.27131 0.0
C255 C 0.45209 0.24598 0.28919 0.0
C256 C 0.42822 0.20945 0.23104 0.0
C257 C 0.43274 0.18506 0.16627 0.0
C258 C 0.41642 0.1016 0.71866 0.0
C259 C 0.51138 0.16061 0.78622 0.0
O260 O 0.44127 0.17196 0.52031 0.0
O261 O 0.4875 0.21636 0.56215 0.0
O262 O 0.4844 0.23645 0.8383 0.0
O263 O 0.51615 0.23649 0.76807 0.0
O264 O 0.42362 0.18378 0.67755 0.0
O265 O 0.43172 0.19925 0.8592 0.0
O266 O 0.44157 0.14813 0.99556 0.0
O267 O 0.48791 0.1921 1.03223 0.0
O268 O 0.44328 0.12171 0.7118 0.0
O269 O 0.41275 0.12208 0.79061 0.0
O270 O 0.50133 0.16709 0.87023 0.0
O271 O 0.49877 0.16171 0.68915 0.0
H272 H 0.43397 0.22397 0.46844 0.0
H273 H 0.38766 0.25525 0.43485 0.0
H274 H 0.50326 0.35348 0.529 0.0
H275 H 0.50851 0.28888 0.53127 0.0
H276 H 0.50639 0.24583 0.19527 0.0
H277 H 0.4984 0.28814 0.30943 0.0
H278 H 0.40615 0.19946 0.23709 0.0
H279 H 0.41395 0.15682 0.12377 0.0
Sm280 Sm 0.96549 0.1634 0.85492 0.0
Sm281 Sm 0.96649 0.1984 0.70341 0.0
C282 C 0.95934 0.14595 1.04849 0.0
C283 C 0.94681 0.16157 0.11722 0.0
C284 C 0.91647 0.13993 0.11005 0.0
C285 C 0.90217 0.15812 0.13215 0.0
C286 C 0.91789 0.19821 0.16001 0.0
C287 C 0.94858 0.2193 0.17878 0.0
C288 C 0.96289 0.20126 0.15966 0.0
C289 C 0.93633 0.10499 0.66237 0.0
C290 C 0.90995 0.17625 0.79983 0.0
C291 C 0.97276 0.23584 0.54189 0.0
C292 C 0.96499 0.26298 0.51866 0.0
C293 C 0.97605 0.28459 0.44042 0.0
C294 C 0.96227 0.30126 0.39407 0.0
C295 C 0.93569 0.29314 0.419 0.0
C296 C 0.93077 0.28191 0.52015 0.0
C297 C 0.94454 0.26524 0.56714 0.0
C298 C 0.99448 0.25343 0.90513 0.0
C299 C 1.01928 0.18119 0.74293 0.0
O300 O 0.98488 0.17102 1.03303 0.0
O301 O 0.94132 0.12172 0.95584 0.0
O302 O 0.9331 0.1328 0.68079 0.0
O303 O 0.95732 0.11049 0.7404 0.0
O304 O 0.92541 0.1693 0.87349 0.0
O305 O 0.9206 0.18685 0.71321 0.0
O306 O 0.99346 0.24777 0.63046 0.0
O307 O 0.95087 0.20066 0.53158 0.0
O308 O 0.99906 0.2278 0.87468 0.0
O309 O 0.97145 0.24611 0.83577 0.0
O310 O 1.00329 0.18788 0.67069 0.0
O311 O 1.00987 0.17176 0.83307 0.0
H312 H 0.90342 0.10927 1.07777 0.0
H313 H 0.87862 0.14084 0.11983 0.0
H314 H 0.96168 0.25016 0.20513 0.0
H315 H 0.98633 0.21904 0.16831 0.0
H316 H 0.99339 0.28555 0.40762 0.0
H317 H 0.96944 0.31406 0.32496 0.0
H318 H 0.9128 0.27955 0.551 0.0
H319 H 0.93735 0.25118 0.63419 0.0
Sm320 Sm 0.94887 0.64488 0.70385 0.0
Sm321 Sm 0.97822 0.71412 0.86499 0.0
C322 C 0.91958 0.58885 0.52277 0.0
C323 C 0.89188 0.57703 0.44704 0.0
C324 C 0.87783 0.59499 0.47613 0.0
C325 C 0.86396 0.60368 0.39361 0.0
C326 C 0.86528 0.59554 0.28338 0.0
C327 C 0.86949 0.56602 0.25349 0.0
C328 C 0.88485 0.55871 0.33576 0.0
C329 C 0.97692 0.63928 0.89676 0.0
C330 C 1.01879 0.7109 0.71108 0.0
C331 C 0.99804 0.7709 1.03837 0.0
C332 C 0.98067 0.77878 0.10152 0.0
C333 C 0.98624 0.78151 0.21665 0.0
C334 C 0.96271 0.76555 0.26694 0.0
C335 C 0.93393 0.74578 0.20022 0.0
C336 C 0.92977 0.75388 1.09606 0.0
C337 C 0.95306 0.76944 1.04481 0.0
C338 C 0.95056 0.71815 0.66884 0.0
C339 C 0.90907 0.64878 0.86093 0.0
O340 O 0.91817 0.58297 0.62276 0.0
O341 O 0.94141 0.62326 0.52372 0.0
O342 O 0.98775 0.66785 0.85297 0.0
O343 O 0.95057 0.61337 0.8398 0.0
O344 O 0.99326 0.68105 0.64848 0.0
O345 O 1.01965 0.72668 0.80996 0.0
O346 O 0.99603 0.73907 1.04671 0.0
O347 O 0.99581 0.77504 0.936 0.0
O348 O 0.93939 0.69073 0.71694 0.0
O349 O 0.97776 0.74293 0.71981 0.0
O350 O 0.93454 0.67824 0.92328 0.0
O351 O 0.90793 0.63353 0.76148 0.0
H352 H 0.88166 0.60783 0.56175 0.0
H353 H 0.85829 0.62361 0.41937 0.0
H354 H 0.86757 0.55583 0.1671 0.0
H355 H 0.89444 0.54333 0.31124 0.0
H356 H 1.00749 0.78941 0.26284 0.0
H357 H 0.96658 0.76078 0.34939 0.0
H358 H 0.90788 0.74132 1.04644 0.0
H359 H 0.94825 0.76829 0.95654 0.0
C360 C 0.16212 0.51737 0.82738 0.0
C361 C 0.13788 0.49948 0.88 0.0
C362 C 0.15976 0.51541 0.70674 0.0
C363 C 0.13271 0.49492 0.6216 0.0
H364 H 0.184 0.53375 0.88123 0.0
H365 H 0.17995 0.53041 0.68019 0.0
S366 S 0.06106 0.44159 0.70312 0.0
N367 N 0.08486 0.45979 0.8253 0.0
N368 N 0.0804 0.45574 0.60915 0.0
C369 C 0.10827 0.47678 0.67304 0.0
C370 C 0.11073 0.47904 0.79604 0.0
C371 C 0.65919 0.54463 0.64612 0.0
C372 C 0.63709 0.5095 0.6679 0.0
C373 C 0.66348 0.54995 0.53486 0.0
C374 C 0.64636 0.52107 0.43299 0.0
H375 H 0.6736 0.5687 0.71594 0.0
H376 H 0.68102 0.57787 0.52889 0.0
S377 S 0.5845 0.42338 0.43651 0.0
N378 N 0.59721 0.44509 0.5697 0.0
N379 N 0.60519 0.45504 0.36889 0.0
C380 C 0.62409 0.48592 0.45361 0.0
C381 C 0.61967 0.48043 0.56677 0.0
C382 C 0.62094 0.0959 0.42499 0.0
C383 C 0.62946 0.07828 0.50152 0.0
C384 C 0.62457 0.09601 0.31082 0.0
C385 C 0.63721 0.07826 0.25989 0.0
H386 H 0.61103 0.11029 0.45415 0.0
H387 H 0.61736 0.1105 0.26245 0.0
S388 S 0.66311 0.02636 0.41419 0.0
N389 N 0.65113 0.04148 0.50784 0.0
N390 N 0.65784 0.04153 0.30206 0.0
C391 C 0.64563 0.0603 0.33513 0.0
C392 C 0.64192 0.06023 0.45119 0.0
C393 C 0.81795 0.87798 0.76355 0.0
C394 C 0.79089 0.85848 0.67875 0.0
C395 C 0.82029 0.88011 0.88425 0.0
C396 C 0.79602 0.86292 0.93698 0.0
H397 H 0.83815 0.89234 0.7368 0.0
H398 H 0.84217 0.89591 0.93798 0.0
S399 S 0.71922 0.80789 0.76113 0.0
N400 N 0.73857 0.82133 0.66695 0.0
N401 N 0.74302 0.82507 0.88296 0.0
C402 C 0.76889 0.8433 0.85333 0.0
C403 C 0.76644 0.84126 0.73047 0.0
C404 C 0.30513 0.87736 0.98825 0.0
C405 C 0.28964 0.84766 0.88758 0.0
C406 C 0.30096 0.87206 0.09975 0.0
C407 C 0.28069 0.83611 0.12304 0.0
H408 H 0.32121 0.90595 0.98112 0.0
H409 H 0.31398 0.89681 0.16847 0.0
S410 S 0.23356 0.74731 0.89579 0.0
N411 N 0.25245 0.77976 0.82674 0.0
N412 N 0.24471 0.76985 1.0278 0.0
C413 C 0.26506 0.80618 1.02323 0.0
C414 C 0.26934 0.81165 0.90989 0.0
C415 C 0.28232 0.28895 1.0932 0.0
C416 C 0.29945 0.27728 1.04889 0.0
C417 C 0.27836 0.28846 0.20684 0.0
C418 C 0.29091 0.27641 0.28949 0.0
H419 H 0.27159 0.29862 1.03962 0.0
H420 H 0.26481 0.29792 0.2305 0.0
S421 S 0.33895 0.24409 0.22386 0.0
N422 N 0.32976 0.25378 0.10578 0.0
N423 N 0.32252 0.2532 0.31084 0.0
C424 C 0.30827 0.26501 0.24655 0.0
C425 C 0.3123 0.26541 0.13085 0.0
C426 C 0.44118 0.32602 0.38518 0.0
C427 C 0.44175 0.33696 0.5203 0.0
C428 C 0.44363 0.29539 0.30119 0.0
C429 C 0.44803 0.27104 0.37261 0.0
H430 H 0.43812 0.34459 0.33617 0.0
H431 H 0.44285 0.29417 0.21336 0.0
S432 S 0.45253 0.29408 0.77006 0.0
N433 N 0.44685 0.32465 0.71673 0.0
N434 N 0.45418 0.26641 0.66948 0.0
C435 C 0.44965 0.28028 0.58 0.0
C436 C 0.44574 0.315 0.60819 0.0
C437 C 0.91612 0.28461 0.21965 0.0
C438 C 0.90951 0.27866 0.32349 0.0
C439 C 0.91551 0.25536 0.15069 0.0
C440 C 0.90367 0.21919 0.17777 0.0
H441 H 0.9297 0.31351 0.20871 0.0
H442 H 0.92789 0.26262 1.08766 0.0
S443 S 0.8533 0.1845 0.36442 0.0
N444 N 0.86895 0.23127 0.39088 0.0
N445 N 0.86729 0.17494 0.26749 0.0
C446 C 0.88511 0.21049 0.25063 0.0
C447 C 0.88618 0.24091 0.31766 0.0
C448 C 0.86807 0.6538 0.23716 0.0
C449 C 0.87764 0.62876 0.22909 0.0
C450 C 0.88585 0.69176 0.22607 0.0
C451 C 0.91376 0.70579 0.2076 0.0
H452 H 0.84753 0.6447 0.25905 0.0
H453 H 0.87825 0.71049 0.23634 0.0
S454 S 0.9472 0.65102 0.15801 0.0
N455 N 0.91571 0.62046 0.1846 0.0
N456 N 0.94836 0.69085 0.16455 0.0
C457 C 0.92236 0.68027 0.18904 0.0
C458 C 0.90445 0.64196 0.19903 0.0
C459 C 0.28125 0.38564 0.54722 0.0
C460 C 0.26438 0.35273 0.58808 0.0
C461 C 0.26966 0.40589 0.50572 0.0
C462 C 0.24046 0.39427 0.50192 0.0
H463 H 0.30369 0.39583 0.54648 0.0
H464 H 0.28386 0.43101 0.47613 0.0
S465 S 0.18622 0.30843 0.59249 0.0
N466 N 0.21648 0.30895 0.61934 0.0
N467 N 0.19459 0.34607 0.53962 0.0
C468 C 0.2233 0.36127 0.5425 0.0
C469 C 0.23522 0.34082 0.58565 0.0
C470 C 0.72597 0.66859 0.17532 0.0
C471 C 0.69516 0.6466 0.1601 0.0
C472 C 0.74338 0.70937 0.20741 0.0
C473 C 0.73122 0.73126 0.22364 0.0
H474 H 0.73697 0.65412 0.16359 0.0
H475 H 0.76684 0.72396 0.21827 0.0
S476 S 0.65164 0.68866 0.19365 0.0
N477 N 0.65342 0.65099 0.16551 0.0
N478 N 0.68563 0.72656 0.22068 0.0
C479 C 0.7004 0.70971 0.20742 0.0
C480 C 0.68267 0.66803 0.17736 0.0
C481 C 0.44774 0.90859 1.07268 0.0
C482 C 0.47808 0.93469 0.11812 0.0
C483 C 0.42802 0.89426 0.14092 0.0
C484 C 0.43772 0.90515 0.25783 0.0
H485 H 0.43905 0.89951 0.98332 0.0
H486 H 0.40492 0.8742 0.10158 0.0
S487 S 0.51492 0.97261 0.41946 0.0
N488 N 0.51688 0.97033 0.28831 0.0
N489 N 0.47981 0.94418 0.41604 0.0
C490 C 0.468 0.93117 0.30454 0.0
C491 C 0.48811 0.94578 0.23501 0.0
C492 C 0.57551 0.14613 0.74404 0.0
C493 C 0.58424 0.138 0.84516 0.0
C494 C 0.55257 0.15335 0.72478 0.0
C495 C 0.53652 0.15301 0.80496 0.0
H496 H 0.58562 0.14537 0.6768 0.0
H497 H 0.54718 0.15885 0.64502 0.0
S498 S 0.54991 0.13296 1.08366 0.0
N499 N 0.57369 0.12997 1.02556 0.0
N500 N 0.53241 0.14365 0.99147 0.0
C501 C 0.54546 0.14542 0.90637 0.0
C502 C 0.56843 0.13786 0.92537 0.0
C503 C 0.04751 0.30753 1.01111 0.0
C504 C 1.01743 0.29359 0.97698 0.0
C505 C 0.06922 0.34626 1.06818 0.0
C506 C 0.06218 0.37342 1.0945 0.0
H507 H 0.05454 0.28861 0.99108 0.0
H508 H 0.09188 0.35515 1.08984 0.0
S509 S 0.98634 0.35111 1.03301 0.0
N510 N 0.98192 0.31027 0.98121 0.0
N511 N 1.02189 0.38174 1.08618 0.0
C512 C 0.03203 0.35937 1.06362 0.0
C513 C 1.01004 0.32009 1.00592 0.0
C514 C 0.86793 0.59644 0.92731 0.0
C515 C 0.88125 0.63252 0.90016 0.0
C516 C 0.84065 0.57915 0.95649 0.0
C517 C 0.82491 0.59669 0.95793 0.0
H518 H 0.87868 0.5813 0.92572 0.0
H519 H 0.83155 0.55132 0.97606 0.0
S520 S 0.84993 0.69102 0.88958 0.0
N521 N 0.87621 0.68469 0.87339 0.0
N522 N 0.82564 0.65308 0.92958 0.0
C523 C 0.83815 0.63288 0.93053 0.0
C524 C 0.86601 0.65049 0.90141 0.0
C525 C 0.97993 0.59383 1.00045 0.0
C526 C 0.99453 0.62857 0.96616 0.0
C527 C 0.99529 0.57981 1.05297 0.0
C528 C 1.02601 0.59986 1.07364 0.0
H529 H 0.95623 0.57666 0.98393 0.0
H530 H 0.98283 0.55236 1.07453 0.0
S531 S 0.07508 0.69419 1.01059 0.0
N532 N 0.0418 0.68411 0.96363 0.0
N533 N 0.07072 0.65789 1.06332 0.0
C534 C 0.04106 0.63542 1.04378 0.0
C535 C 1.02535 0.6498 0.99034 0.0
C536 C 0.58288 0.36005 0.88338 0.0
C537 C 0.57867 0.38499 0.9511 0.0
C538 C 0.56143 0.3196 0.84875 0.0
C539 C 0.5341 0.30079 0.87913 0.0
H540 H 0.60292 0.37189 0.85547 0.0
H541 H 0.56641 0.3028 0.79614 0.0
S542 S 0.51177 0.35149 1.06006 0.0
N543 N 0.54421 0.38619 1.04932 0.0
N544 N 0.50513 0.31164 0.98623 0.0
C545 C 0.52975 0.32522 0.94816 0.0
C546 C 0.5515 0.36648 0.98315 0.0
C547 C 0.86329 0.14803 0.87907 0.0
C548 C 0.8811 0.17242 0.81496 0.0
C549 C 0.83666 0.14403 0.89381 0.0
C550 C 0.82541 0.16395 0.84488 0.0
H551 H 0.86963 0.13088 0.91654 0.0
H552 H 0.82485 0.125 0.94532 0.0
S553 S 0.86209 0.23 0.66181 0.0
N554 N 0.88412 0.21596 0.69842 0.0
N555 N 0.83495 0.20812 0.72288 0.0
C556 C 0.84285 0.18797 0.77869 0.0
C557 C 0.87001 0.19207 0.76414 0.0
C558 C 0.6865 1.00529 0.94825 0.0
C559 C 0.66019 0.99964 0.96735 0.0
C560 C 0.69833 0.98562 0.99296 0.0
C561 C 0.68445 0.95922 1.05908 0.0
H562 H 0.69837 0.02553 0.8997 0.0
H563 H 0.71901 0.99201 0.97784 0.0
S564 S 0.61355 0.93119 0.12603 0.0
N565 N 0.61985 0.9638 1.05289 0.0
N566 N 0.64141 0.92657 0.13331 0.0
C567 C 0.65759 0.95239 1.07546 0.0
C568 C 0.64567 0.97251 1.03058 0.0
C569 C 0.24474 0.69014 0.38795 0.0
C570 C 0.23214 0.71182 0.39553 0.0
C571 C 0.2274 0.64914 0.35825 0.0
C572 C 0.19633 0.62722 0.33107 0.0
H573 H 0.26836 0.70499 0.40701 0.0
H574 H 0.23854 0.63455 0.35547 0.0
S575 S 0.15197 0.66938 0.33371 0.0
N576 N 0.18612 0.70704 0.37153 0.0
N577 N 0.15413 0.63186 0.31325 0.0
C578 C 0.1836 0.64876 0.33675 0.0
C579 C 0.2012 0.69021 0.36935 0.0
C580 C 0.46421 0.44214 0.27531 0.0
C581 C 0.493 0.45137 0.30802 0.0
C582 C 0.44468 0.42801 0.34436 0.0
C583 C 0.45311 0.42265 0.44943 0.0
H584 H 0.45682 0.44654 0.19645 0.0
H585 H 0.42292 0.42187 0.31589 0.0
S586 S 0.52507 0.43868 0.56961 0.0
N587 N 0.52817 0.45118 0.44911 0.0
N588 N 0.49181 0.42549 0.57952 0.0
C589 C 0.48168 0.43107 0.48228 0.0
C590 C 0.50147 0.44514 0.41152 0.0
C591 C 0.94827 0.76213 0.55612 0.0
C592 C 0.93339 0.72955 0.60014 0.0
C593 C 0.93359 0.77692 0.50307 0.0
C594 C 0.90338 0.75997 0.49247 0.0
H595 H 0.97169 0.77698 0.56509 0.0
H596 H 0.94625 0.80263 0.47322 0.0
S597 S 0.85374 0.67273 0.58719 0.0
N598 N 0.88631 0.67974 0.62517 0.0
N599 N 0.85869 0.70731 0.52431 0.0
C600 C 0.88799 0.7266 0.53273 0.0
C601 C 0.90296 0.7114 0.58651 0.0
C602 C 0.39879 0.03193 0.6222 0.0
C603 C 0.3931 0.05778 0.67558 0.0
C604 C 0.37729 0.99137 0.58925 0.0
C605 C 0.34846 0.97351 0.60696 0.0
H606 H 0.42026 0.04298 0.60683 0.0
H607 H 0.38359 0.97369 0.54975 0.0
S608 S 0.32118 0.0274 0.73973 0.0
N609 N 0.35517 0.06113 0.74128 0.0
N610 N 0.31594 0.98666 0.68072 0.0
C611 C 0.34242 0.99907 0.65887 0.0
C612 C 0.36422 0.04028 0.69239 0.0
C613 C 0.06338 0.17393 0.7931 0.0
C614 C 0.04784 0.18509 0.72345 0.0
C615 C 0.09005 0.1782 0.77765 0.0
C616 C 0.10344 0.19405 0.69134 0.0
H617 H 0.05481 0.16151 0.86097 0.0
H618 H 0.10007 0.16836 0.83395 0.0
S619 S 0.07373 0.23147 0.49029 0.0
N620 N 0.04957 0.21475 0.56657 0.0
N621 N 0.09882 0.22348 0.5396 0.0
C622 C 0.08834 0.20601 0.62245 0.0
C623 C 0.06112 0.20143 0.63785 0.0
C624 C 0.37214 0.19303 0.64094 0.0
C625 C 0.39049 0.20155 0.74712 0.0
C626 C 0.34983 0.20106 0.62398 0.0
C627 C 0.34313 0.217 0.71215 0.0
H628 H 0.37528 0.1804 0.56866 0.0
H629 H 0.33807 0.19544 0.53941 0.0
S630 S 0.38458 0.24644 1.00772 0.0
N631 N 0.39988 0.22827 0.94268 0.0
N632 N 0.35865 0.24245 0.91138 0.0
C633 C 0.36111 0.22537 0.81887 0.0
C634 C 0.38414 0.21769 0.83612 0.0
C635 C 0.86175 0.01358 0.48698 0.0
C636 C 0.86772 0.98486 0.47178 0.0
C637 C 0.88376 0.05231 0.5443 0.0
C638 C 0.91311 0.0647 0.59034 0.0
H639 H 0.83968 1.00602 0.45556 0.0
H640 H 0.87748 0.07247 0.55492 0.0
S641 S 0.94131 1.00225 0.57031 0.0
N642 N 0.90628 0.97321 0.50599 0.0
N643 N 0.94671 0.04439 0.61154 0.0
C644 C 0.91941 0.03645 0.57359 0.0
C645 C 0.89716 0.99727 0.51537 0.0
C646 C 0.07372 0.75862 0.74383 0.0
C647 C 0.04711 0.7272 0.67308 0.0
C648 C 0.10062 0.77523 0.71228 0.0
C649 C 0.10272 0.76134 0.60825 0.0
H650 H 0.07395 0.77079 0.82528 0.0
H651 H 0.12013 0.79907 0.7711 0.0
S652 S 0.03976 0.68041 0.38879 0.0
N653 N 1.02489 0.68336 0.49164 0.0
N654 N 0.07506 0.71439 0.43263 0.0
C655 C 0.07631 0.72991 0.53625 0.0
C656 C 0.04877 0.71303 0.56833 0.0
loop_
_geom_bond_atom_site_label_1
_geom_bond_atom_site_label_2
_geom_bond_distance
_geom_bond_site_symmetry_2
_ccdc_geom_bond_type
Sm0 C2 2.846 . S
Sm0 O20 2.543 . S
Sm0 O21 2.450 . S
Sm0 O22 2.681 1_554 S
Sm0 O23 2.464 1_554 S
Sm0 O24 2.396 1_554 S
Sm0 O28 2.386 . S
Sm0 O31 2.408 . S
Sm1 C11 2.846 1_554 S
Sm1 O22 2.386 1_554 S
Sm1 O25 2.408 1_554 S
Sm1 O26 2.543 1_554 S
Sm1 O27 2.489 . S
Sm1 O28 2.681 . S
Sm1 O29 2.464 . S
Sm1 O30 2.396 . S
C2 Sm0 2.846 . S
C2 C3 1.506 . S
C2 O20 1.261 . S
C2 O21 1.242 . S
C3 C2 1.506 . S
C3 C4 1.358 . S
C3 C8 1.382 . S
C4 C3 1.358 . S
C4 C5 1.385 . S
C4 H32 0.930 . S
C5 C4 1.385 . S
C5 C6 1.395 . S
C5 H33 0.929 . S
C6 C5 1.395 . S
C6 C7 1.335 . S
C7 C6 1.335 . S
C7 C8 1.398 . S
C7 H34 0.930 . S
C8 C3 1.382 . S
C8 C7 1.398 . S
C8 H35 0.929 . S
C9 O22 1.271 . S
C9 O23 1.251 . S
C10 O24 1.252 . S
C10 O25 1.272 . S
C11 Sm1 2.846 1_556 S
C11 C12 1.506 . S
C11 O26 1.261 . S
C11 O27 1.249 1_556 S
C12 C11 1.506 . S
C12 C13 1.358 . S
C12 C17 1.382 1_456 S
C13 C12 1.358 . S
C13 C14 1.385 . S
C13 H36 0.930 . S
C14 C13 1.385 . S
C14 C15 1.395 1_455 S
C14 H37 0.929 . S
C15 C14 1.395 1_655 S
C15 C16 1.335 1_556 S
C16 C15 1.335 1_554 S
C16 C17 1.398 . S
C16 H38 0.930 . S
C17 C12 1.382 1_654 S
C17 C16 1.398 . S
C17 H39 0.929 . S
C18 O28 1.271 . S
C18 O29 1.251 . S
C19 O30 1.252 . S
C19 O31 1.272 . S
O20 Sm0 2.543 . S
O20 C2 1.261 . S
O21 Sm0 2.450 . S
O21 C2 1.242 . S
O22 Sm0 2.681 1_556 S
O22 Sm1 2.386 1_556 S
O22 C9 1.271 . S
O23 Sm0 2.464 1_556 S
O23 C9 1.251 . S
O24 Sm0 2.396 1_556 S
O24 C10 1.252 . S
O25 Sm1 2.408 1_556 S
O25 C10 1.272 . S
O26 Sm1 2.543 1_556 S
O26 C11 1.261 . S
O27 Sm1 2.489 . S
O27 C11 1.249 1_554 S
O28 Sm0 2.386 . S
O28 Sm1 2.681 . S
O28 C18 1.271 . S
O29 Sm1 2.464 . S
O29 C18 1.251 . S
O30 Sm1 2.396 . S
O30 C19 1.252 . S
O31 Sm0 2.408 . S
O31 C19 1.272 . S
H32 C4 0.930 . S
H33 C5 0.929 . S
H34 C7 0.930 . S
H35 C8 0.929 . S
H36 C13 0.930 . S
H37 C14 0.929 . S
H38 C16 0.930 . S
H39 C17 0.929 . S
Sm40 C42 2.846 . S
Sm40 O60 2.543 . S
Sm40 O61 2.450 . S
Sm40 O62 2.681 . S
Sm40 O63 2.464 . S
Sm40 O64 2.396 . S
Sm40 O68 2.386 . S
Sm40 O71 2.408 . S
Sm41 C51 2.846 . S
Sm41 O62 2.386 . S
Sm41 O65 2.408 . S
Sm41 O66 2.543 . S
Sm41 O67 2.450 . S
Sm41 O68 2.681 . S
Sm41 O69 2.464 1_554 S
Sm41 O70 2.396 . S
C42 Sm40 2.846 . S
C42 C43 1.506 . S
C42 O60 1.261 . S
C42 O61 1.242 . S
C43 C42 1.506 . S
C43 C44 1.358 . S
C43 C48 1.382 . S
C44 C43 1.358 . S
C44 C45 1.385 . S
C44 H72 0.930 . S
C45 C44 1.385 . S
C45 C46 1.395 . S
C45 H73 0.929 . S
C46 C45 1.395 . S
C46 C47 1.335 . S
C47 C46 1.335 . S
C47 C48 1.398 . S
C47 H74 0.930 . S
C48 C43 1.382 . S
C48 C47 1.398 . S
C48 H75 0.929 . S
C49 O62 1.271 . S
C49 O63 1.251 . S
C50 O64 1.252 . S
C50 O65 1.272 . S
C51 Sm41 2.846 . S
C51 C52 1.506 . S
C51 O66 1.261 . S
C51 O67 1.242 . S
C52 C51 1.506 . S
C52 C53 1.358 . S
C52 C57 1.382 . S
C53 C52 1.358 . S
C53 C54 1.385 . S
C53 H76 0.930 . S
C54 C53 1.385 . S
C54 C55 1.395 . S
C54 H77 0.929 . S
C55 C54 1.395 . S
C55 C56 1.335 . S
C56 C55 1.335 . S
C56 C57 1.398 . S
C56 H78 0.930 . S
C57 C52 1.382 . S
C57 C56 1.398 . S
C57 H79 0.929 . S
C58 O68 1.271 1_556 S
C58 O69 1.251 . S
C59 O70 1.252 . S
C59 O71 1.272 . S
O60 Sm40 2.543 . S
O60 C42 1.261 . S
O61 Sm40 2.450 . S
O61 C42 1.242 . S
O62 Sm40 2.681 . S
O62 Sm41 2.386 . S
O62 C49 1.271 . S
O63 Sm40 2.464 . S
O63 C49 1.251 . S
O64 Sm40 2.396 . S
O64 C50 1.252 . S
O65 Sm41 2.408 . S
O65 C50 1.272 . S
O66 Sm41 2.543 . S
O66 C51 1.261 . S
O67 Sm41 2.450 . S
O67 C51 1.242 . S
O68 Sm40 2.386 . S
O68 Sm41 2.681 . S
O68 C58 1.271 1_554 S
O69 Sm41 2.464 1_556 S
O69 C58 1.251 . S
O70 Sm41 2.396 . S
O70 C59 1.252 . S
O71 Sm40 2.408 . S
O71 C59 1.272 . S
H72 C44 0.930 . S
H73 C45 0.929 . S
H74 C47 0.930 . S
H75 C48 0.929 . S
H76 C53 0.930 . S
H77 C54 0.929 . S
H78 C56 0.930 . S
H79 C57 0.929 . S
Sm80 C82 2.846 . S
Sm80 O100 2.543 . S
Sm80 O101 2.450 . S
Sm80 O102 2.681 . S
Sm80 O103 2.464 1_554 S
Sm80 O104 2.396 . S
Sm80 O108 2.386 . S
Sm80 O111 2.408 . S
Sm81 C91 2.846 . S
Sm81 O102 2.386 . S
Sm81 O105 2.408 . S
Sm81 O106 2.543 . S
Sm81 O107 2.450 . S
Sm81 O108 2.681 . S
Sm81 O109 2.464 . S
Sm81 O110 2.396 . S
C82 Sm80 2.846 . S
C82 C83 1.506 . S
C82 O100 1.261 . S
C82 O101 1.242 . S
C83 C82 1.506 . S
C83 C84 1.358 . S
C83 C88 1.382 . S
C84 C83 1.358 . S
C84 C85 1.385 . S
C84 H112 0.930 . S
C85 C84 1.385 . S
C85 C86 1.395 . S
C85 H113 0.929 . S
C86 C85 1.395 . S
C86 C87 1.335 . S
C87 C86 1.335 . S
C87 C88 1.398 . S
C87 H114 0.930 1_544 S
C88 C83 1.382 . S
C88 C87 1.398 . S
C88 H115 0.938 . S
C89 O102 1.271 1_556 S
C89 O103 1.251 . S
C90 O104 1.252 . S
C90 O105 1.272 . S
C91 Sm81 2.846 . S
C91 C92 1.506 . S
C91 O106 1.261 . S
C91 O107 1.242 . S
C92 C91 1.506 . S
C92 C93 1.358 . S
C92 C97 1.382 . S
C93 C92 1.358 . S
C93 C94 1.385 . S
C93 H116 0.930 . S
C94 C93 1.385 . S
C94 C95 1.395 . S
C94 H117 0.929 . S
C95 C94 1.395 . S
C95 C96 1.335 . S
C96 C95 1.335 . S
C96 C97 1.398 . S
C96 H118 0.930 . S
C97 C92 1.382 . S
C97 C96 1.398 . S
C97 H119 0.929 . S
C98 O108 1.271 . S
C98 O109 1.251 . S
C99 O110 1.252 . S
C99 O111 1.272 . S
O100 Sm80 2.543 . S
O100 C82 1.261 . S
O101 Sm80 2.450 . S
O101 C82 1.242 . S
O102 Sm80 2.681 . S
O102 Sm81 2.386 . S
O102 C89 1.271 1_554 S
O103 Sm80 2.464 1_556 S
O103 C89 1.251 . S
O104 Sm80 2.396 . S
O104 C90 1.252 . S
O105 Sm81 2.408 . S
O105 C90 1.272 . S
O106 Sm81 2.543 . S
O106 C91 1.261 . S
O107 Sm81 2.450 . S
O107 C91 1.242 . S
O108 Sm80 2.386 . S
O108 Sm81 2.681 . S
O108 C98 1.271 . S
O109 Sm81 2.464 . S
O109 C98 1.251 . S
O110 Sm81 2.396 . S
O110 C99 1.252 . S
O111 Sm80 2.408 . S
O111 C99 1.272 . S
H112 C84 0.930 . S
H113 C85 0.929 . S
H114 C87 0.930 1_566 S
H115 C88 0.938 . S
H116 C93 0.930 . S
H117 C94 0.929 . S
H118 C96 0.930 . S
H119 C97 0.929 . S
Sm120 C122 2.846 . S
Sm120 O140 2.543 . S
Sm120 O141 2.450 . S
Sm120 O142 2.681 . S
Sm120 O143 2.464 . S
Sm120 O144 2.396 . S
Sm120 O148 2.386 . S
Sm120 O151 2.408 . S
Sm121 C131 2.846 . S
Sm121 O142 2.386 . S
Sm121 O145 2.408 . S
Sm121 O146 2.543 . S
Sm121 O147 2.450 . S
Sm121 O148 2.681 . S
Sm121 O149 2.464 . S
Sm121 O150 2.396 . S
C122 Sm120 2.846 . S
C122 C123 1.506 . S
C122 O140 1.261 . S
C122 O141 1.242 . S
C123 C122 1.506 . S
C123 C124 1.358 . S
C123 C128 1.382 . S
C124 C123 1.358 . S
C124 C125 1.385 . S
C124 H152 0.930 . S
C125 C124 1.385 . S
C125 C126 1.395 . S
C125 H153 0.929 . S
C126 C125 1.395 . S
C126 C127 1.335 . S
C127 C126 1.335 . S
C127 C128 1.398 . S
C127 H154 0.930 . S
C128 C123 1.382 . S
C128 C127 1.398 . S
C128 H155 0.929 . S
C129 O142 1.271 . S
C129 O143 1.251 . S
C130 O144 1.252 . S
C130 O145 1.272 . S
C131 Sm121 2.846 . S
C131 C132 1.506 . S
C131 O146 1.261 . S
C131 O147 1.242 . S
C132 C131 1.506 . S
C132 C133 1.358 . S
C132 C137 1.382 . S
C133 C132 1.358 . S
C133 C134 1.385 1_565 S
C133 H156 0.930 . S
C134 C133 1.385 1_545 S
C134 C135 1.395 . S
C134 H157 0.929 . S
C135 C134 1.395 . S
C135 C136 1.335 1_545 S
C136 C135 1.335 1_565 S
C136 C137 1.398 . S
C136 H158 0.930 . S
C137 C132 1.382 . S
C137 C136 1.398 . S
C137 H159 0.929 . S
C138 O148 1.271 . S
C138 O149 1.251 . S
C139 O150 1.252 . S
C139 O151 1.272 . S
O140 Sm120 2.543 . S
O140 C122 1.261 . S
O141 Sm120 2.450 . S
O141 C122 1.242 . S
O142 Sm120 2.681 . S
O142 Sm121 2.386 . S
O142 C129 1.271 . S
O143 Sm120 2.464 . S
O143 C129 1.251 . S
O144 Sm120 2.396 . S
O144 C130 1.252 . S
O145 Sm121 2.408 . S
O145 C130 1.272 . S
O146 Sm121 2.543 . S
O146 C131 1.261 . S
O147 Sm121 2.450 . S
O147 C131 1.242 . S
O148 Sm120 2.386 . S
O148 Sm121 2.681 . S
O148 C138 1.271 . S
O149 Sm121 2.464 . S
O149 C138 1.251 . S
O150 Sm121 2.396 . S
O150 C139 1.252 . S
O151 Sm120 2.408 . S
O151 C139 1.272 . S
H152 C124 0.930 . S
H153 C125 0.929 . S
H154 C127 0.930 . S
H155 C128 0.929 . S
H156 C133 0.930 . S
H157 C134 0.929 . S
H158 C136 0.930 . S
H159 C137 0.929 . S
Sm160 C162 2.846 . S
Sm160 O180 2.543 . S
Sm160 O181 2.450 . S
Sm160 O182 2.681 . S
Sm160 O183 2.464 . S
Sm160 O184 2.396 . S
Sm160 O188 2.386 . S
Sm160 O191 2.408 . S
Sm161 C171 2.846 . S
Sm161 O182 2.386 . S
Sm161 O185 2.408 . S
Sm161 O186 2.543 . S
Sm161 O187 2.450 . S
Sm161 O188 2.681 . S
Sm161 O189 2.464 . S
Sm161 O190 2.396 . S
C162 Sm160 2.846 . S
C162 C163 1.506 . S
C162 O180 1.261 . S
C162 O181 1.242 . S
C163 C162 1.506 . S
C163 C164 1.358 . S
C163 C168 1.382 . S
C164 C163 1.358 . S
C164 C165 1.385 . S
C164 H192 0.930 . S
C165 C164 1.385 . S
C165 C166 1.395 . S
C165 H193 0.929 . S
C166 C165 1.395 . S
C166 C167 1.335 . S
C167 C166 1.335 . S
C167 C168 1.398 . S
C167 H194 0.930 . S
C168 C163 1.382 . S
C168 C167 1.398 . S
C168 H195 0.929 . S
C169 O182 1.271 . S
C169 O183 1.251 . S
C170 O184 1.252 . S
C170 O185 1.272 . S
C171 Sm161 2.846 . S
C171 C172 1.506 . S
C171 O186 1.261 . S
C171 O187 1.242 . S
C172 C171 1.506 . S
C172 C173 1.358 . S
C172 C177 1.382 . S
C173 C172 1.358 . S
C173 C174 1.385 . S
C173 H196 0.930 . S
C174 C173 1.385 . S
C174 C175 1.395 . S
C174 H197 0.929 . S
C175 C174 1.395 . S
C175 C176 1.335 . S
C176 C175 1.335 . S
C176 C177 1.398 . S
C176 H198 0.930 . S
C177 C172 1.382 . S
C177 C176 1.398 . S
C177 H199 0.929 . S
C178 O188 1.271 . S
C178 O189 1.251 . S
C179 O190 1.252 . S
C179 O191 1.272 . S
O180 Sm160 2.543 . S
O180 C162 1.261 . S
O181 Sm160 2.450 . S
O181 C162 1.242 . S
O182 Sm160 2.681 . S
O182 Sm161 2.386 . S
O182 C169 1.271 . S
O183 Sm160 2.464 . S
O183 C169 1.251 . S
O184 Sm160 2.396 . S
O184 C170 1.252 . S
O185 Sm161 2.408 . S
O185 C170 1.272 . S
O186 Sm161 2.543 . S
O186 C171 1.261 . S
O187 Sm161 2.450 . S
O187 C171 1.242 . S
O188 Sm160 2.386 . S
O188 Sm161 2.681 . S
O188 C178 1.271 . S
O189 Sm161 2.464 . S
O189 C178 1.251 . S
O190 Sm161 2.396 . S
O190 C179 1.252 . S
O191 Sm160 2.408 . S
O191 C179 1.272 . S
H192 C164 0.930 . S
H193 C165 0.929 . S
H194 C167 0.930 . S
H195 C168 0.929 . S
H196 C173 0.930 . S
H197 C174 0.929 . S
H198 C176 0.930 . S
H199 C177 0.929 . S
Sm200 C202 2.846 . S
Sm200 O220 2.543 . S
Sm200 O221 2.450 . S
Sm200 O222 2.681 . S
Sm200 O223 2.464 . S
Sm200 O224 2.396 . S
Sm200 O228 2.386 . S
Sm200 O231 2.408 . S
Sm201 C211 2.846 . S
Sm201 O222 2.386 . S
Sm201 O225 2.408 . S
Sm201 O226 2.543 . S
Sm201 O227 2.450 . S
Sm201 O228 2.681 . S
Sm201 O229 2.464 . S
Sm201 O230 2.396 . S
C202 Sm200 2.846 . S
C202 C203 1.506 . S
C202 O220 1.261 . S
C202 O221 1.242 . S
C203 C202 1.506 . S
C203 C204 1.358 . S
C203 C208 1.382 . S
C204 C203 1.358 . S
C204 C205 1.385 . S
C204 H232 0.930 . S
C205 C204 1.385 . S
C205 C206 1.395 . S
C205 H233 0.929 . S
C206 C205 1.395 . S
C206 C207 1.335 . S
C207 C206 1.335 . S
C207 C208 1.398 . S
C207 H234 0.930 . S
C208 C203 1.382 . S
C208 C207 1.398 . S
C208 H235 0.929 . S
C209 O222 1.271 . S
C209 O223 1.251 . S
C210 O224 1.252 . S
C210 O225 1.272 . S
C211 Sm201 2.846 . S
C211 C212 1.506 . S
C211 O226 1.261 . S
C211 O227 1.242 . S
C212 C211 1.506 . S
C212 C213 1.358 . S
C212 C217 1.382 . S
C213 C212 1.358 . S
C213 C214 1.385 . S
C213 H236 0.930 . S
C214 C213 1.385 . S
C214 C215 1.395 . S
C214 H237 0.929 . S
C215 C214 1.395 . S
C215 C216 1.335 . S
C216 C215 1.335 . S
C216 C217 1.398 . S
C216 H238 0.930 . S
C217 C212 1.382 . S
C217 C216 1.398 . S
C217 H239 0.929 . S
C218 O228 1.271 . S
C218 O229 1.251 . S
C219 O230 1.252 . S
C219 O231 1.272 . S
O220 Sm200 2.543 . S
O220 C202 1.261 . S
O221 Sm200 2.450 . S
O221 C202 1.242 . S
O222 Sm200 2.681 . S
O222 Sm201 2.386 . S
O222 C209 1.271 . S
O223 Sm200 2.464 . S
O223 C209 1.251 . S
O224 Sm200 2.396 . S
O224 C210 1.252 . S
O225 Sm201 2.408 . S
O225 C210 1.272 . S
O226 Sm201 2.543 . S
O226 C211 1.261 . S
O227 Sm201 2.450 . S
O227 C211 1.242 . S
O228 Sm200 2.386 . S
O228 Sm201 2.681 . S
O228 C218 1.271 . S
O229 Sm201 2.464 . S
O229 C218 1.251 . S
O230 Sm201 2.396 . S
O230 C219 1.252 . S
O231 Sm200 2.408 . S
O231 C219 1.272 . S
H232 C204 0.930 . S
H233 C205 0.929 . S
H234 C207 0.930 . S
H235 C208 0.929 . S
H236 C213 0.930 . S
H237 C214 0.929 . S
H238 C216 0.930 . S
H239 C217 0.929 . S
Sm240 C242 2.846 . S
Sm240 O260 2.543 . S
Sm240 O261 2.450 . S
Sm240 O262 2.681 . S
Sm240 O263 2.464 . S
Sm240 O264 2.396 . S
Sm240 O268 2.386 . S
Sm240 O271 2.408 . S
Sm241 C251 2.846 . S
Sm241 O262 2.386 . S
Sm241 O265 2.408 . S
Sm241 O266 2.543 . S
Sm241 O267 2.450 . S
Sm241 O268 2.681 . S
Sm241 O269 2.464 . S
Sm241 O270 2.396 . S
C242 Sm240 2.846 . S
C242 C243 1.506 . S
C242 O260 1.261 . S
C242 O261 1.242 . S
C243 C242 1.506 . S
C243 C244 1.358 . S
C243 C248 1.382 . S
C244 C243 1.358 . S
C244 C245 1.385 . S
C244 H272 0.930 . S
C245 C244 1.385 . S
C245 C246 1.395 . S
C245 H273 0.929 . S
C246 C245 1.395 . S
C246 C247 1.335 . S
C247 C246 1.335 . S
C247 C248 1.398 . S
C247 H274 0.930 . S
C248 C243 1.382 . S
C248 C247 1.398 . S
C248 H275 0.929 . S
C249 O262 1.271 . S
C249 O263 1.251 . S
C250 O264 1.252 . S
C250 O265 1.272 . S
C251 Sm241 2.846 . S
C251 C252 1.506 1_556 S
C251 O266 1.261 . S
C251 O267 1.242 . S
C252 C251 1.506 1_554 S
C252 C253 1.358 . S
C252 C257 1.382 . S
C253 C252 1.358 . S
C253 C254 1.385 . S
C253 H276 0.930 . S
C254 C253 1.385 . S
C254 C255 1.395 . S
C254 H277 0.929 . S
C255 C254 1.395 . S
C255 C256 1.335 . S
C256 C255 1.335 . S
C256 C257 1.398 . S
C256 H278 0.930 . S
C257 C252 1.382 . S
C257 C256 1.398 . S
C257 H279 0.929 . S
C258 O268 1.271 . S
C258 O269 1.251 . S
C259 O270 1.252 . S
C259 O271 1.272 . S
O260 Sm240 2.543 . S
O260 C242 1.261 . S
O261 Sm240 2.450 . S
O261 C242 1.242 . S
O262 Sm240 2.681 . S
O262 Sm241 2.386 . S
O262 C249 1.271 . S
O263 Sm240 2.464 . S
O263 C249 1.251 . S
O264 Sm240 2.396 . S
O264 C250 1.252 . S
O265 Sm241 2.408 . S
O265 C250 1.272 . S
O266 Sm241 2.543 . S
O266 C251 1.261 . S
O267 Sm241 2.450 . S
O267 C251 1.242 . S
O268 Sm240 2.386 . S
O268 Sm241 2.681 . S
O268 C258 1.271 . S
O269 Sm241 2.464 . S
O269 C258 1.251 . S
O270 Sm241 2.396 . S
O270 C259 1.252 . S
O271 Sm240 2.408 . S
O271 C259 1.272 . S
H272 C244 0.930 . S
H273 C245 0.929 . S
H274 C247 0.930 . S
H275 C248 0.929 . S
H276 C253 0.930 . S
H277 C254 0.929 . S
H278 C256 0.930 . S
H279 C257 0.929 . S
Sm280 C282 2.846 . S
Sm280 O300 2.543 . S
Sm280 O301 2.450 . S
Sm280 O302 2.681 . S
Sm280 O303 2.464 . S
Sm280 O304 2.396 . S
Sm280 O308 2.386 . S
Sm280 O311 2.408 . S
Sm281 C291 2.846 . S
Sm281 O302 2.386 . S
Sm281 O305 2.408 . S
Sm281 O306 2.543 . S
Sm281 O307 2.450 . S
Sm281 O308 2.681 . S
Sm281 O309 2.464 . S
Sm281 O310 2.396 . S
C282 Sm280 2.846 . S
C282 C283 1.506 1_556 S
C282 O300 1.261 . S
C282 O301 1.242 . S
C283 C282 1.506 1_554 S
C283 C284 1.358 . S
C283 C288 1.382 . S
C284 C283 1.358 . S
C284 C285 1.385 . S
C284 H312 0.930 . S
C285 C284 1.385 . S
C285 C286 1.395 . S
C285 H313 0.929 . S
C286 C285 1.395 . S
C286 C287 1.335 . S
C287 C286 1.335 . S
C287 C288 1.398 . S
C287 H314 0.930 . S
C288 C283 1.382 . S
C288 C287 1.398 . S
C288 H315 0.929 . S
C289 O302 1.271 . S
C289 O303 1.251 . S
C290 O304 1.252 . S
C290 O305 1.272 . S
C291 Sm281 2.846 . S
C291 C292 1.506 . S
C291 O306 1.261 . S
C291 O307 1.242 . S
C292 C291 1.506 . S
C292 C293 1.358 . S
C292 C297 1.382 . S
C293 C292 1.358 . S
C293 C294 1.385 . S
C293 H316 0.930 . S
C294 C293 1.385 . S
C294 C295 1.395 . S
C294 H317 0.929 . S
C295 C294 1.395 . S
C295 C296 1.335 . S
C296 C295 1.335 . S
C296 C297 1.398 . S
C296 H318 0.930 . S
C297 C292 1.382 . S
C297 C296 1.398 . S
C297 H319 0.929 . S
C298 O308 1.271 . S
C298 O309 1.251 . S
C299 O310 1.252 . S
C299 O311 1.272 . S
O300 Sm280 2.543 . S
O300 C282 1.261 . S
O301 Sm280 2.450 . S
O301 C282 1.242 . S
O302 Sm280 2.681 . S
O302 Sm281 2.386 . S
O302 C289 1.271 . S
O303 Sm280 2.464 . S
O303 C289 1.251 . S
O304 Sm280 2.396 . S
O304 C290 1.252 . S
O305 Sm281 2.408 . S
O305 C290 1.272 . S
O306 Sm281 2.543 . S
O306 C291 1.261 . S
O307 Sm281 2.450 . S
O307 C291 1.242 . S
O308 Sm280 2.386 . S
O308 Sm281 2.681 . S
O308 C298 1.271 . S
O309 Sm281 2.464 . S
O309 C298 1.251 . S
O310 Sm281 2.396 . S
O310 C299 1.252 . S
O311 Sm280 2.408 . S
O311 C299 1.272 . S
H312 C284 0.930 . S
H313 C285 0.929 . S
H314 C287 0.930 . S
H315 C288 0.929 . S
H316 C293 0.930 . S
H317 C294 0.929 . S
H318 C296 0.930 . S
H319 C297 0.929 . S
Sm320 C322 2.846 . S
Sm320 O340 2.543 . S
Sm320 O341 2.450 . S
Sm320 O342 2.681 . S
Sm320 O343 2.464 . S
Sm320 O344 2.396 . S
Sm320 O348 2.386 . S
Sm320 O351 2.408 . S
Sm321 C331 2.846 . S
Sm321 O342 2.386 . S
Sm321 O345 2.408 . S
Sm321 O346 2.543 . S
Sm321 O347 2.450 . S
Sm321 O348 2.681 . S
Sm321 O349 2.464 . S
Sm321 O350 2.396 . S
C322 Sm320 2.846 . S
C322 C323 1.506 . S
C322 O340 1.261 . S
C322 O341 1.242 . S
C323 C322 1.506 . S
C323 C324 1.358 . S
C323 C328 1.382 . S
C324 C323 1.358 . S
C324 C325 1.385 . S
C324 H352 0.930 . S
C325 C324 1.385 . S
C325 C326 1.395 . S
C325 H353 0.929 . S
C326 C325 1.395 . S
C326 C327 1.335 . S
C327 C326 1.335 . S
C327 C328 1.398 . S
C327 H354 0.930 . S
C328 C323 1.382 . S
C328 C327 1.398 . S
C328 H355 0.929 . S
C329 O342 1.271 . S
C329 O343 1.251 . S
C330 O344 1.252 . S
C330 O345 1.272 . S
C331 Sm321 2.846 . S
C331 C332 1.506 1_556 S
C331 O346 1.261 . S
C331 O347 1.242 . S
C332 C331 1.506 1_554 S
C332 C333 1.358 . S
C332 C337 1.382 . S
C333 C332 1.358 . S
C333 C334 1.385 . S
C333 H356 0.930 . S
C334 C333 1.385 . S
C334 C335 1.395 . S
C334 H357 0.929 . S
C335 C334 1.395 . S
C335 C336 1.335 . S
C336 C335 1.335 . S
C336 C337 1.398 . S
C336 H358 0.930 . S
C337 C332 1.382 . S
C337 C336 1.398 . S
C337 H359 0.929 . S
C338 O348 1.271 . S
C338 O349 1.251 . S
C339 O350 1.252 . S
C339 O351 1.272 . S
O340 Sm320 2.543 . S
O340 C322 1.261 . S
O341 Sm320 2.450 . S
O341 C322 1.242 . S
O342 Sm320 2.681 . S
O342 Sm321 2.386 . S
O342 C329 1.271 . S
O343 Sm320 2.464 . S
O343 C329 1.251 . S
O344 Sm320 2.396 . S
O344 C330 1.252 . S
O345 Sm321 2.408 . S
O345 C330 1.272 . S
O346 Sm321 2.543 . S
O346 C331 1.261 . S
O347 Sm321 2.450 . S
O347 C331 1.242 . S
O348 Sm320 2.386 . S
O348 Sm321 2.681 . S
O348 C338 1.271 . S
O349 Sm321 2.464 . S
O349 C338 1.251 . S
O350 Sm321 2.396 . S
O350 C339 1.252 . S
O351 Sm320 2.408 . S
O351 C339 1.272 . S
H352 C324 0.930 . S
H353 C325 0.929 . S
H354 C327 0.930 . S
H355 C328 0.929 . S
H356 C333 0.930 . S
H357 C334 0.929 . S
H358 C336 0.930 . S
H359 C337 0.929 . S
C360 C361 1.369 . S
C360 C362 1.419 . S
C360 H364 0.930 . S
C361 C360 1.369 . S
C361 C370 1.429 . S
C362 C360 1.419 . S
C362 C363 1.363 . S
C362 H365 0.929 . S
C363 C362 1.363 . S
C363 C369 1.428 . S
H364 C360 0.930 . S
H365 C362 0.929 . S
S366 N367 1.613 1_655 S
S366 N368 1.610 1_655 S
N367 S366 1.613 1_455 S
N367 C370 1.350 . S
N368 S366 1.610 1_455 S
N368 C369 1.351 . S
C369 C363 1.428 . S
C369 N368 1.351 . S
C369 C370 1.434 . S
C370 C361 1.429 . S
C370 N367 1.350 . S
C370 C369 1.434 . S
C371 C372 1.369 . S
C371 C373 1.419 . S
C371 H375 0.930 . S
C372 C371 1.369 . S
C372 C381 1.429 . S
C373 C371 1.419 . S
C373 C374 1.363 . S
C373 H376 0.929 . S
C374 C373 1.363 . S
C374 C380 1.428 . S
H375 C371 0.930 . S
H376 C373 0.929 . S
S377 N378 1.613 . S
S377 N379 1.610 . S
N378 S377 1.613 . S
N378 C381 1.350 . S
N379 S377 1.610 . S
N379 C380 1.351 . S
C380 C374 1.428 . S
C380 N379 1.351 . S
C380 C381 1.434 . S
C381 C372 1.429 . S
C381 N378 1.350 . S
C381 C380 1.434 . S
C382 C383 1.369 . S
C382 C384 1.419 . S
C382 H386 0.930 . S
C383 C382 1.369 . S
C383 C392 1.429 . S
C384 C382 1.419 . S
C384 C385 1.363 . S
C384 H387 0.929 . S
C385 C384 1.363 . S
C385 C391 1.428 . S
H386 C382 0.930 . S
H387 C384 0.929 . S
S388 N389 1.613 . S
S388 N390 1.610 . S
N389 S388 1.613 . S
N389 C392 1.350 . S
N390 S388 1.610 . S
N390 C391 1.351 . S
C391 C385 1.428 . S
C391 N390 1.351 . S
C391 C392 1.434 . S
C392 C383 1.429 . S
C392 N389 1.350 . S
C392 C391 1.434 . S
C393 C394 1.369 . S
C393 C395 1.419 . S
C393 H397 0.930 . S
C394 C393 1.369 . S
C394 C403 1.429 . S
C395 C393 1.419 . S
C395 C396 1.363 . S
C395 H398 0.929 . S
C396 C395 1.363 . S
C396 C402 1.428 . S
H397 C393 0.930 . S
H398 C395 0.929 . S
S399 N400 1.613 . S
S399 N401 1.610 . S
N400 S399 1.613 . S
N400 C403 1.350 . S
N401 S399 1.610 . S
N401 C402 1.351 . S
C402 C396 1.428 . S
C402 N401 1.351 . S
C402 C403 1.434 . S
C403 C394 1.429 . S
C403 N400 1.350 . S
C403 C402 1.434 . S
C404 C405 1.369 . S
C404 C406 1.419 . S
C404 H408 0.930 . S
C405 C404 1.369 . S
C405 C414 1.429 . S
C406 C404 1.419 . S
C406 C407 1.363 . S
C406 H409 0.929 . S
C407 C406 1.363 . S
C407 C413 1.428 . S
H408 C404 0.930 . S
H409 C406 0.929 . S
S410 N411 1.613 . S
S410 N412 1.610 . S
N411 S410 1.613 . S
N411 C414 1.350 . S
N412 S410 1.610 . S
N412 C413 1.351 . S
C413 C407 1.428 . S
C413 N412 1.351 . S
C413 C414 1.434 . S
C414 C405 1.429 . S
C414 N411 1.350 . S
C414 C413 1.434 . S
C415 C416 1.369 . S
C415 C417 1.419 . S
C415 H419 0.930 . S
C416 C415 1.369 . S
C416 C425 1.429 . S
C417 C415 1.419 . S
C417 C418 1.363 . S
C417 H420 0.929 . S
C418 C417 1.363 . S
C418 C424 1.428 . S
H419 C415 0.930 . S
H420 C417 0.929 . S
S421 N422 1.613 . S
S421 N423 1.610 . S
N422 S421 1.613 . S
N422 C425 1.350 . S
N423 S421 1.610 . S
N423 C424 1.351 . S
C424 C418 1.428 . S
C424 N423 1.351 . S
C424 C425 1.434 . S
C425 C416 1.429 . S
C425 N422 1.350 . S
C425 C424 1.434 . S
C426 C427 1.369 . S
C426 C428 1.419 . S
C426 H430 0.930 . S
C427 C426 1.369 . S
C427 C436 1.429 . S
C428 C426 1.419 . S
C428 C429 1.363 . S
C428 H431 0.929 . S
C429 C428 1.363 . S
C429 C435 1.428 . S
H430 C426 0.930 . S
H431 C428 0.929 . S
S432 N433 1.613 . S
S432 N434 1.610 . S
N433 S432 1.613 . S
N433 C436 1.350 . S
N434 S432 1.610 . S
N434 C435 1.351 . S
C435 C429 1.428 . S
C435 N434 1.351 . S
C435 C436 1.434 . S
C436 C427 1.429 . S
C436 N433 1.350 . S
C436 C435 1.434 . S
C437 C438 1.369 . S
C437 C439 1.419 . S
C437 H441 0.930 . S
C438 C437 1.369 . S
C438 C447 1.429 . S
C439 C437 1.419 . S
C439 C440 1.363 . S
C439 H442 0.929 . S
C440 C439 1.363 . S
C440 C446 1.428 . S
H441 C437 0.930 . S
H442 C439 0.929 . S
S443 N444 1.613 . S
S443 N445 1.610 . S
N444 S443 1.613 . S
N444 C447 1.350 . S
N445 S443 1.610 . S
N445 C446 1.351 . S
C446 C440 1.428 . S
C446 N445 1.351 . S
C446 C447 1.434 . S
C447 C438 1.429 . S
C447 N444 1.350 . S
C447 C446 1.434 . S
C448 C449 1.369 . S
C448 C450 1.419 . S
C448 H452 0.930 . S
C449 C448 1.369 . S
C449 C458 1.429 . S
C450 C448 1.419 . S
C450 C451 1.363 . S
C450 H453 0.929 . S
C451 C450 1.363 . S
C451 C457 1.428 . S
H452 C448 0.930 . S
H453 C450 0.929 . S
S454 N455 1.613 1_455 S
S454 N456 1.610 1_455 S
N455 S454 1.613 1_655 S
N455 C458 1.350 . S
N456 S454 1.610 1_655 S
N456 C457 1.351 . S
C457 C451 1.428 . S
C457 N456 1.351 . S
C457 C458 1.434 . S
C458 C449 1.429 . S
C458 N455 1.350 . S
C458 C457 1.434 . S
C459 C460 1.369 . S
C459 C461 1.419 . S
C459 H463 0.930 . S
C460 C459 1.369 . S
C460 C469 1.429 . S
C461 C459 1.419 . S
C461 C462 1.363 . S
C461 H464 0.929 . S
C462 C461 1.363 . S
C462 C468 1.428 . S
H463 C459 0.930 . S
H464 C461 0.929 . S
S465 N466 1.613 . S
S465 N467 1.610 . S
N466 S465 1.613 . S
N466 C469 1.350 . S
N467 S465 1.610 . S
N467 C468 1.351 . S
C468 C462 1.428 . S
C468 N467 1.351 . S
C468 C469 1.434 . S
C469 C460 1.429 . S
C469 N466 1.350 . S
C469 C468 1.434 . S
C470 C471 1.369 . S
C470 C472 1.419 . S
C470 H474 0.930 . S
C471 C470 1.369 . S
C471 C480 1.429 . S
C472 C470 1.419 . S
C472 C473 1.363 . S
C472 H475 0.929 . S
C473 C472 1.363 . S
C473 C479 1.428 . S
H474 C470 0.930 . S
H475 C472 0.929 . S
S476 N477 1.613 . S
S476 N478 1.610 . S
N477 S476 1.613 . S
N477 C480 1.350 . S
N478 S476 1.610 . S
N478 C479 1.351 . S
C479 C473 1.428 . S
C479 N478 1.351 . S
C479 C480 1.434 . S
C480 C471 1.429 . S
C480 N477 1.350 . S
C480 C479 1.434 . S
C481 C482 1.369 1_565 S
C481 C483 1.419 . S
C481 H485 0.930 . S
C482 C481 1.369 1_545 S
C482 C491 1.429 . S
C483 C481 1.419 . S
C483 C484 1.363 . S
C483 H486 0.929 . S
C484 C483 1.363 . S
C484 C490 1.428 . S
H485 C481 0.930 . S
H486 C483 0.929 . S
S487 N488 1.613 . S
S487 N489 1.610 . S
N488 S487 1.613 . S
N488 C491 1.350 . S
N489 S487 1.610 . S
N489 C490 1.351 1_545 S
C490 C484 1.428 . S
C490 N489 1.351 1_565 S
C490 C491 1.434 1_565 S
C491 C482 1.429 . S
C491 N488 1.350 . S
C491 C490 1.434 1_545 S
C492 C493 1.369 . S
C492 C494 1.419 1_554 S
C492 H496 0.930 . S
C493 C492 1.369 . S
C493 C502 1.429 1_554 S
C494 C492 1.419 1_556 S
C494 C495 1.363 . S
C494 H497 0.929 . S
C495 C494 1.363 . S
C495 C501 1.428 . S
H496 C492 0.930 . S
H497 C494 0.929 . S
S498 N499 1.613 . S
S498 N500 1.610 . S
N499 S498 1.613 . S
N499 C502 1.350 . S
N500 S498 1.610 . S
N500 C501 1.351 . S
C501 C495 1.428 . S
C501 N500 1.351 . S
C501 C502 1.434 . S
C502 C493 1.429 1_556 S
C502 N499 1.350 . S
C502 C501 1.434 . S
C503 C504 1.369 1_455 S
C503 C505 1.419 . S
C503 H507 0.930 . S
C504 C503 1.369 1_655 S
C504 C513 1.429 . S
C505 C503 1.419 . S
C505 C506 1.363 . S
C505 H508 0.929 . S
C506 C505 1.363 . S
C506 C512 1.428 1_455 S
H507 C503 0.930 . S
H508 C505 0.929 . S
S509 N510 1.613 . S
S509 N511 1.610 . S
N510 S509 1.613 . S
N510 C513 1.350 . S
N511 S509 1.610 . S
N511 C512 1.351 . S
C512 C506 1.428 1_655 S
C512 N511 1.351 . S
C512 C513 1.434 . S
C513 C504 1.429 . S
C513 N510 1.350 . S
C513 C512 1.434 . S
C514 C515 1.369 . S
C514 C516 1.419 . S
C514 H518 0.930 . S
C515 C514 1.369 . S
C515 C524 1.429 . S
C516 C514 1.419 . S
C516 C517 1.363 1_556 S
C516 H519 0.929 . S
C517 C516 1.363 1_554 S
C517 C523 1.428 . S
H518 C514 0.930 . S
H519 C516 0.929 . S
S520 N521 1.613 1_554 S
S520 N522 1.610 . S
N521 S520 1.613 1_556 S
N521 C524 1.350 . S
N522 S520 1.610 . S
N522 C523 1.351 . S
C523 C517 1.428 . S
C523 N522 1.351 . S
C523 C524 1.434 1_554 S
C524 C515 1.429 . S
C524 N521 1.350 . S
C524 C523 1.434 1_556 S
C525 C526 1.369 . S
C525 C527 1.419 . S
C525 H529 0.930 . S
C526 C525 1.369 . S
C526 C535 1.429 . S
C527 C525 1.419 . S
C527 C528 1.363 . S
C527 H530 0.929 . S
C528 C527 1.363 . S
C528 C534 1.428 . S
H529 C525 0.930 . S
H530 C527 0.929 . S
S531 N532 1.613 . S
S531 N533 1.610 . S
N532 S531 1.613 . S
N532 C535 1.350 . S
N533 S531 1.610 . S
N533 C534 1.351 . S
C534 C528 1.428 . S
C534 N533 1.351 . S
C534 C535 1.434 . S
C535 C526 1.429 . S
C535 N532 1.350 . S
C535 C534 1.434 . S
C536 C537 1.369 . S
C536 C538 1.419 . S
C536 H540 0.930 . S
C537 C536 1.369 . S
C537 C546 1.429 . S
C538 C536 1.419 . S
C538 C539 1.363 . S
C538 H541 0.929 . S
C539 C538 1.363 . S
C539 C545 1.428 . S
H540 C536 0.930 . S
H541 C538 0.929 . S
S542 N543 1.613 . S
S542 N544 1.610 . S
N543 S542 1.613 . S
N543 C546 1.350 . S
N544 S542 1.610 . S
N544 C545 1.351 . S
C545 C539 1.428 . S
C545 N544 1.351 . S
C545 C546 1.434 . S
C546 C537 1.429 . S
C546 N543 1.350 . S
C546 C545 1.434 . S
C547 C548 1.369 . S
C547 C549 1.419 1_556 S
C547 H551 0.930 . S
C548 C547 1.369 . S
C548 C557 1.429 . S
C549 C547 1.419 1_554 S
C549 C550 1.363 . S
C549 H552 0.929 . S
C550 C549 1.363 . S
C550 C556 1.428 . S
H551 C547 0.930 . S
H552 C549 0.929 . S
S553 N554 1.613 . S
S553 N555 1.610 1_556 S
N554 S553 1.613 . S
N554 C557 1.350 . S
N555 S553 1.610 1_554 S
N555 C556 1.351 . S
C556 C550 1.428 . S
C556 N555 1.351 . S
C556 C557 1.434 1_554 S
C557 C548 1.429 . S
C557 N554 1.350 . S
C557 C556 1.434 1_556 S
C558 C559 1.369 . S
C558 C560 1.419 . S
C558 H562 0.930 . S
C559 C558 1.369 . S
C559 C568 1.429 . S
C560 C558 1.419 . S
C560 C561 1.363 . S
C560 H563 0.929 . S
C561 C560 1.363 . S
C561 C567 1.428 . S
H562 C558 0.930 . S
H563 C560 0.929 . S
S564 N565 1.613 1_565 S
S564 N566 1.610 . S
N565 S564 1.613 1_545 S
N565 C568 1.350 . S
N566 S564 1.610 . S
N566 C567 1.351 1_565 S
C567 C561 1.428 . S
C567 N566 1.351 1_545 S
C567 C568 1.434 . S
C568 C559 1.429 . S
C568 N565 1.350 . S
C568 C567 1.434 . S
C569 C570 1.369 . S
C569 C571 1.419 . S
C569 H573 0.930 . S
C570 C569 1.369 . S
C570 C579 1.429 . S
C571 C569 1.419 . S
C571 C572 1.363 . S
C571 H574 0.929 . S
C572 C571 1.363 . S
C572 C578 1.428 . S
H573 C569 0.930 . S
H574 C571 0.929 . S
S575 N576 1.613 . S
S575 N577 1.610 . S
N576 S575 1.613 . S
N576 C579 1.350 . S
N577 S575 1.610 . S
N577 C578 1.351 . S
C578 C572 1.428 . S
C578 N577 1.351 . S
C578 C579 1.434 . S
C579 C570 1.429 . S
C579 N576 1.350 . S
C579 C578 1.434 . S
C580 C581 1.369 . S
C580 C582 1.419 . S
C580 H584 0.930 . S
C581 C580 1.369 . S
C581 C590 1.429 . S
C582 C580 1.419 . S
C582 C583 1.363 . S
C582 H585 0.929 . S
C583 C582 1.363 . S
C583 C589 1.428 . S
H584 C580 0.930 . S
H585 C582 0.929 . S
S586 N587 1.613 . S
S586 N588 1.610 . S
N587 S586 1.613 . S
N587 C590 1.350 . S
N588 S586 1.610 . S
N588 C589 1.351 . S
C589 C583 1.428 . S
C589 N588 1.351 . S
C589 C590 1.434 . S
C590 C581 1.429 . S
C590 N587 1.350 . S
C590 C589 1.434 . S
C591 C592 1.369 . S
C591 C593 1.419 . S
C591 H595 0.930 . S
C592 C591 1.369 . S
C592 C601 1.429 . S
C593 C591 1.419 . S
C593 C594 1.363 . S
C593 H596 0.929 . S
C594 C593 1.363 . S
C594 C600 1.428 . S
H595 C591 0.930 . S
H596 C593 0.929 . S
S597 N598 1.613 . S
S597 N599 1.610 . S
N598 S597 1.613 . S
N598 C601 1.350 . S
N599 S597 1.610 . S
N599 C600 1.351 . S
C600 C594 1.428 . S
C600 N599 1.351 . S
C600 C601 1.434 . S
C601 C592 1.429 . S
C601 N598 1.350 . S
C601 C600 1.434 . S
C602 C603 1.369 . S
C602 C604 1.419 . S
C602 H606 0.930 . S
C603 C602 1.369 . S
C603 C612 1.429 . S
C604 C602 1.419 . S
C604 C605 1.363 1_545 S
C604 H607 0.929 . S
C605 C604 1.363 1_565 S
C605 C611 1.428 . S
H606 C602 0.930 . S
H607 C604 0.929 . S
S608 N609 1.613 1_565 S
S608 N610 1.610 . S
N609 S608 1.613 1_545 S
N609 C612 1.350 . S
N610 S608 1.610 . S
N610 C611 1.351 . S
C611 C605 1.428 . S
C611 N610 1.351 . S
C611 C612 1.434 1_565 S
C612 C603 1.429 . S
C612 N609 1.350 . S
C612 C611 1.434 1_545 S
C613 C614 1.369 1_455 S
C613 C615 1.419 . S
C613 H617 0.930 . S
C614 C613 1.369 1_655 S
C614 C623 1.429 . S
C615 C613 1.419 . S
C615 C616 1.363 . S
C615 H618 0.929 . S
C616 C615 1.363 . S
C616 C622 1.428 1_455 S
H617 C613 0.930 . S
H618 C615 0.929 . S
S619 N620 1.613 . S
S619 N621 1.610 . S
N620 S619 1.613 . S
N620 C623 1.350 . S
N621 S619 1.610 . S
N621 C622 1.351 . S
C622 C616 1.428 1_655 S
C622 N621 1.351 . S
C622 C623 1.434 . S
C623 C614 1.429 . S
C623 N620 1.350 . S
C623 C622 1.434 . S
C624 C625 1.369 . S
C624 C626 1.419 . S
C624 H628 0.930 . S
C625 C624 1.369 . S
C625 C634 1.429 . S
C626 C624 1.419 . S
C626 C627 1.363 . S
C626 H629 0.929 . S
C627 C626 1.363 . S
C627 C633 1.428 . S
H628 C624 0.930 . S
H629 C626 0.929 . S
S630 N631 1.613 . S
S630 N632 1.610 . S
N631 S630 1.613 . S
N631 C634 1.350 . S
N632 S630 1.610 . S
N632 C633 1.351 . S
C633 C627 1.428 . S
C633 N632 1.351 . S
C633 C634 1.434 . S
C634 C625 1.429 . S
C634 N631 1.350 . S
C634 C633 1.434 . S
C635 C636 1.369 1_545 S
C635 C637 1.419 . S
C635 H639 0.933 1_545 S
C636 C635 1.369 1_565 S
C636 C645 1.429 1_565 S
C637 C635 1.419 . S
C637 C638 1.363 . S
C637 H640 0.929 . S
C638 C637 1.363 . S
C638 C644 1.428 . S
H639 C635 0.933 1_565 S
H640 C637 0.929 . S
S641 N642 1.613 . S
S641 N643 1.610 . S
N642 S641 1.613 . S
N642 C645 1.350 . S
N643 S641 1.610 . S
N643 C644 1.351 . S
C644 C638 1.428 . S
C644 N643 1.351 . S
C644 C645 1.434 . S
C645 C636 1.429 1_545 S
C645 N642 1.350 . S
C645 C644 1.434 . S
C646 C647 1.369 1_455 S
C646 C648 1.419 . S
C646 H650 0.930 . S
C647 C646 1.369 1_655 S
C647 C656 1.429 . S
C648 C646 1.419 . S
C648 C649 1.363 . S
C648 H651 0.929 . S
C649 C648 1.363 . S
C649 C655 1.428 1_455 S
H650 C646 0.930 . S
H651 C648 0.929 . S
S652 N653 1.613 . S
S652 N654 1.610 . S
N653 S652 1.613 . S
N653 C656 1.350 . S
N654 S652 1.610 . S
N654 C655 1.351 . S
C655 C649 1.428 1_655 S
C655 N654 1.351 . S
C655 C656 1.434 . S
C656 C647 1.429 . S
C656 N653 1.350 . S
C656 C655 1.434 . S
C361 C9 3.603 . S
C363 C18 3.601 . S
C372 C58 3.703 . S
C374 C49 3.702 . S
C383 C89 3.747 . S
C385 C98 3.747 . S
C394 C138 3.601 . S
C396 C129 3.603 1_556 S
C405 C169 3.702 . S
C407 C178 3.703 1_556 S
C416 C218 3.747 . S
C418 C209 3.747 1_556 S
C427 C246 0.297 . S
C429 C255 0.327 . S
C438 C295 0.307 . S
C440 C286 0.326 . S
C449 C326 0.675 . S
C451 C335 0.685 . S
C460 C210 1.594 . S
C462 C6 1.625 . S
C471 C50 2.670 . S
C473 C130 2.709 . S
C482 C86 1.212 . S
C484 C166 1.238 . S
C493 C90 3.109 . S
C495 C259 3.309 . S
C504 C298 1.367 . S
C506 C10 1.259 . S
C515 C339 2.253 . S
C517 C46 2.058 . S
C526 C329 1.157 . S
C528 C15 1.062 . S
C537 C59 2.387 1_556 S
C539 C249 2.475 . S
C548 C290 3.219 . S
C550 C95 2.957 . S
C559 C99 1.590 . S
C561 C135 1.623 . S
C570 C179 2.672 . S
C572 C19 2.708 . S
C581 C55 1.232 . S
C583 C215 1.222 . S
C592 C338 1.158 . S
C594 C126 1.060 . S
C603 C258 2.473 . S
C605 C170 2.385 . S
C614 C299 3.219 . S
C616 C206 2.958 . S
C625 C250 3.309 . S
C627 C219 3.110 . S
C636 C139 1.257 . S
C638 C289 1.367 . S
C647 C330 2.252 . S
C649 C175 2.056 . S
