# Generated by pormake.
# Topology ske, (6)-cn, num edge types: 1
# Building blocks:
#     Node 0, Type 0, BuildingBlock: PAMTOO_clean_sbu_0, # of connection points: 6
#     Node 1, Type 0, BuildingBlock: PAMTOO_clean_sbu_0, # of connection points: 6
#     Node 2, Type 0, BuildingBlock: PAMTOO_clean_sbu_0, # of connection points: 6
#     Node 3, Type 0, BuildingBlock: PAMTOO_clean_sbu_0, # of connection points: 6
#     Node 4, Type 0, BuildingBlock: PAMTOO_clean_sbu_0, # of connection points: 6
#     Node 5, Type 0, BuildingBlock: PAMTOO_clean_sbu_0, # of connection points: 6
#     Node 6, Type 0, BuildingBlock: PAMTOO_clean_sbu_0, # of connection points: 6
#     Node 7, Type 0, BuildingBlock: PAMTOO_clean_sbu_0, # of connection points: 6
#     Edge 8, Type (0, 0), BuildingBlock: XUDNAN_clean_linker_2, # of connection points: 2
#     Edge 9, Type (0, 0), BuildingBlock: XUDNAN_clean_linker_2, # of connection points: 2
#     Edge 10, Type (0, 0), BuildingBlock: XUDNAN_clean_linker_2, # of connection points: 2
#     Edge 11, Type (0, 0), BuildingBlock: XUDNAN_clean_linker_2, # of connection points: 2
#     Edge 12, Type (0, 0), BuildingBlock: XUDNAN_clean_linker_2, # of connection points: 2
#     Edge 13, Type (0, 0), BuildingBlock: XUDNAN_clean_linker_2, # of connection points: 2
#     Edge 14, Type (0, 0), BuildingBlock: XUDNAN_clean_linker_2, # of connection points: 2
#     Edge 15, Type (0, 0), BuildingBlock: XUDNAN_clean_linker_2, # of connection points: 2
#     Edge 16, Type (0, 0), BuildingBlock: XUDNAN_clean_linker_2, # of connection points: 2
#     Edge 17, Type (0, 0), BuildingBlock: XUDNAN_clean_linker_2, # of connection points: 2
#     Edge 18, Type (0, 0), BuildingBlock: XUDNAN_clean_linker_2, # of connection points: 2
#     Edge 19, Type (0, 0), BuildingBlock: XUDNAN_clean_linker_2, # of connection points: 2
#     Edge 20, Type (0, 0), BuildingBlock: XUDNAN_clean_linker_2, # of connection points: 2
#     Edge 21, Type (0, 0), BuildingBlock: XUDNAN_clean_linker_2, # of connection points: 2
#     Edge 22, Type (0, 0), BuildingBlock: XUDNAN_clean_linker_2, # of connection points: 2
#     Edge 23, Type (0, 0), BuildingBlock: XUDNAN_clean_linker_2, # of connection points: 2
#     Edge 24, Type (0, 0), BuildingBlock: XUDNAN_clean_linker_2, # of connection points: 2
#     Edge 25, Type (0, 0), BuildingBlock: XUDNAN_clean_linker_2, # of connection points: 2
#     Edge 26, Type (0, 0), BuildingBlock: XUDNAN_clean_linker_2, # of connection points: 2
#     Edge 27, Type (0, 0), BuildingBlock: XUDNAN_clean_linker_2, # of connection points: 2
#     Edge 28, Type (0, 0), BuildingBlock: XUDNAN_clean_linker_2, # of connection points: 2
#     Edge 29, Type (0, 0), BuildingBlock: XUDNAN_clean_linker_2, # of connection points: 2
#     Edge 30, Type (0, 0), BuildingBlock: XUDNAN_clean_linker_2, # of connection points: 2
#     Edge 31, Type (0, 0), BuildingBlock: XUDNAN_clean_linker_2, # of connection points: 2
# Relax obj value: 0.158
# Max RMSD: 0.180
# Mean RMSD: 0.174
data_MOF--net-ske--node1-PAMTOO_clean_sbu_0--edge1-XUDNAN_clean_linker_2
_symmetry_space_group_name_H-M    P1
_symmetry_Int_Tables_number       1
_symmetry_cell_setting            triclinic
loop_
_symmetry_equiv_pos_as_xyz
'x, y, z'
_cell_length_a     103.05564
_cell_length_b     30.118391
_cell_length_c     15.337002
_cell_angle_alpha  90.080418
_cell_angle_beta   90.150308
_cell_angle_gamma 90.022536
loop_
_atom_site_label
_atom_site_type_symbol
_atom_site_fract_x
_atom_site_fract_y
_atom_site_fract_z
_atom_type_partial_charge
Dy0 Dy 0.16125 0.23346 0.52948 0.0
Dy1 Dy 0.12948 0.25667 0.53641 0.0
C2 C 0.13978 0.15671 0.51429 0.0
O3 O 0.15509 0.25105 0.39449 0.0
O4 O 0.13322 0.23562 0.39772 0.0
O5 O 0.17785 0.19357 0.567 0.0
O6 O 0.18024 0.24882 0.47848 0.0
O7 O 0.14021 0.3195 0.512 0.0
O8 O 0.15957 0.30313 0.57793 0.0
O9 O 0.13708 0.26459 0.67389 0.0
O10 O 0.15461 0.21808 0.6637 0.0
O11 O 0.11276 0.29125 0.48381 0.0
O12 O 0.11107 0.25307 0.60277 0.0
C13 C 0.14411 0.24191 0.35466 0.0
O14 O 0.15116 0.17121 0.48782 0.0
O15 O 0.13095 0.1832 0.54755 0.0
C16 C 0.1986 0.22991 0.56622 0.0
C17 C 0.22371 0.2473 0.63504 0.0
C18 C 0.21571 0.21461 0.67246 0.0
C19 C 0.20331 0.20595 0.63838 0.0
C20 C 0.20657 0.26274 0.52927 0.0
C21 C 0.21892 0.2714 0.56331 0.0
C22 C 0.18606 0.21809 0.52385 0.0
C23 C 0.15121 0.33209 0.54741 0.0
C24 C 0.14604 0.23958 0.71066 0.0
C25 C 0.09199 0.26202 0.51825 0.0
C26 C 0.06633 0.23414 0.48155 0.0
C27 C 0.06898 0.27836 0.50553 0.0
C28 C 0.08166 0.29208 0.52355 0.0
C29 C 0.08954 0.21808 0.49246 0.0
C30 C 0.07681 0.20425 0.47422 0.0
C31 C 0.10502 0.27702 0.54479 0.0
H32 H 0.21902 0.19566 0.7282 0.0
H33 H 0.19752 0.17999 0.66778 0.0
H34 H 0.20338 0.28118 0.47255 0.0
H35 H 0.22486 0.29625 0.53167 0.0
H36 H 0.06119 0.30217 0.51342 0.0
H37 H 0.08336 0.32608 0.54383 0.0
H38 H 0.09741 0.19437 0.48788 0.0
H39 H 0.07517 0.1701 0.455 0.0
Dy40 Dy 0.87512 0.26931 0.52684 0.0
Dy41 Dy 0.90721 0.25195 0.52921 0.0
C42 C 0.89491 0.34726 0.53206 0.0
O43 O 0.88032 0.25668 0.38675 0.0
O44 O 0.90274 0.26234 0.38916 0.0
O45 O 0.85862 0.309 0.56658 0.0
O46 O 0.85592 0.25157 0.48276 0.0
O47 O 0.89811 0.18785 0.48809 0.0
O48 O 0.87844 0.19787 0.5558 0.0
O49 O 0.90027 0.23327 0.66032 0.0
O50 O 0.88103 0.27166 0.66884 0.0
O51 O 0.9244 0.21357 0.55954 0.0
O52 O 0.92618 0.28177 0.51456 0.0
C53 C 0.89165 0.25837 0.3473 0.0
O54 O 0.88492 0.33199 0.48886 0.0
O55 O 0.90238 0.32012 0.57597 0.0
C56 C 0.83834 0.27107 0.57627 0.0
C57 C 0.8141 0.25198 0.65458 0.0
C58 C 0.81921 0.29532 0.65608 0.0
C59 C 0.83115 0.30475 0.61708 0.0
C60 C 0.83342 0.22749 0.57646 0.0
C61 C 0.82145 0.21808 0.61518 0.0
C62 C 0.85028 0.28283 0.5279 0.0
C63 C 0.88721 0.17198 0.52007 0.0
C64 C 0.89067 0.24979 0.7058 0.0
C65 C 0.94518 0.2364 0.5032 0.0
C66 C 0.97148 0.21755 0.464 0.0
C67 C 0.96193 0.18405 0.45867 0.0
C68 C 0.94892 0.19333 0.4785 0.0
C69 C 0.95456 0.27018 0.50431 0.0
C70 C 0.96752 0.26095 0.48512 0.0
C71 C 0.93225 0.24614 0.54045 0.0
H72 H 0.81395 0.32213 0.68706 0.0
H73 H 0.83466 0.33866 0.61745 0.0
H74 H 0.83867 0.20076 0.54503 0.0
H75 H 0.81778 0.18442 0.61183 0.0
H76 H 0.96456 0.15038 0.44134 0.0
H77 H 0.94192 0.16651 0.47743 0.0
H78 H 0.95198 0.30354 0.52446 0.0
H79 H 0.97452 0.28755 0.49159 0.0
Dy80 Dy 0.16255 0.75746 0.49582 0.0
Dy81 Dy 0.1311 0.73144 0.49359 0.0
C82 C 0.14022 0.83146 0.49696 0.0
O83 O 0.15523 0.77403 0.62821 0.0
O84 O 0.13736 0.7283 0.63499 0.0
O85 O 0.1782 0.79485 0.43779 0.0
O86 O 0.18179 0.75454 0.55223 0.0
O87 O 0.142 0.66896 0.4669 0.0
O88 O 0.16141 0.68598 0.53268 0.0
O89 O 0.13717 0.74525 0.35449 0.0
O90 O 0.15864 0.72701 0.36641 0.0
O91 O 0.11509 0.68931 0.53362 0.0
O92 O 0.112 0.74229 0.4402 0.0
C93 C 0.14664 0.75146 0.6733 0.0
O94 O 0.1513 0.81863 0.46335 0.0
O95 O 0.13193 0.80293 0.52954 0.0
C96 C 0.19945 0.76542 0.45332 0.0
C97 C 0.22433 0.74406 0.38723 0.0
C98 C 0.21807 0.78364 0.36273 0.0
C99 C 0.20582 0.79422 0.39563 0.0
C100 C 0.20556 0.72544 0.47696 0.0
C101 C 0.21786 0.71488 0.44417 0.0
C102 C 0.1869 0.77928 0.49152 0.0
C103 C 0.15298 0.65681 0.50351 0.0
C104 C 0.14838 0.7352 0.31837 0.0
C105 C 0.09371 0.71918 0.52254 0.0
C106 C 0.06775 0.73543 0.57285 0.0
C107 C 0.07169 0.69286 0.54587 0.0
C108 C 0.08452 0.68489 0.52102 0.0
C109 C 0.08999 0.76144 0.55217 0.0
C110 C 0.07712 0.76946 0.57731 0.0
C111 C 0.10669 0.71059 0.48562 0.0
H112 H 0.22263 0.80657 0.31791 0.0
H113 H 0.20136 0.82534 0.37666 0.0
H114 H 0.20095 0.70263 0.52177 0.0
H115 H 0.22243 0.68434 0.4652 0.0
H116 H 0.0648 0.66572 0.54307 0.0
H117 H 0.08718 0.65205 0.49832 0.0
H118 H 0.09693 0.78847 0.55363 0.0
H119 H 0.07442 0.80269 0.59724 0.0
Dy120 Dy 0.87692 0.75035 0.48878 0.0
Dy121 Dy 0.909 0.7706 0.489 0.0
C122 C 0.89767 0.6721 0.48861 0.0
O123 O 0.88353 0.73404 0.62221 0.0
O124 O 0.90322 0.7704 0.63129 0.0
O125 O 0.85992 0.70897 0.50711 0.0
O126 O 0.85777 0.77909 0.47824 0.0
O127 O 0.89848 0.83264 0.45492 0.0
O128 O 0.88114 0.8179 0.54092 0.0
O129 O 0.90382 0.75523 0.34973 0.0
O130 O 0.88157 0.76489 0.35068 0.0
O131 O 0.92512 0.81263 0.52779 0.0
O132 O 0.92829 0.7556 0.4436 0.0
C133 C 0.89334 0.74956 0.66776 0.0
O134 O 0.88676 0.68657 0.45384 0.0
O135 O 0.90638 0.69929 0.52159 0.0
C136 C 0.83965 0.73284 0.44379 0.0
C137 C 0.81454 0.71532 0.37546 0.0
C138 C 0.82412 0.68189 0.37723 0.0
C139 C 0.83652 0.69049 0.41126 0.0
C140 C 0.83026 0.76656 0.43914 0.0
C141 C 0.81789 0.758 0.40531 0.0
C142 C 0.85185 0.74155 0.49252 0.0
C143 C 0.88854 0.84642 0.50026 0.0
C144 C 0.89258 0.75891 0.30937 0.0
C145 C 0.94646 0.78092 0.52765 0.0
C146 C 0.97269 0.77189 0.58095 0.0
C147 C 0.96628 0.813 0.58759 0.0
C148 C 0.95335 0.81744 0.56101 0.0
C149 C 0.95267 0.73935 0.52419 0.0
C150 C 0.96563 0.73491 0.55061 0.0
C151 C 0.93362 0.7884 0.48634 0.0
H152 H 0.82196 0.64879 0.35366 0.0
H153 H 0.84351 0.66368 0.41429 0.0
H154 H 0.83231 0.79933 0.46498 0.0
H155 H 0.81077 0.78443 0.40633 0.0
H156 H 0.97143 0.84232 0.60955 0.0
H157 H 0.94889 0.85 0.56323 0.0
H158 H 0.94766 0.71052 0.49849 0.0
H159 H 0.9702 0.70263 0.54576 0.0
Dy160 Dy 0.6616 0.73164 0.04723 0.0
Dy161 Dy 0.63008 0.75667 0.04888 0.0
C162 C 0.63979 0.65626 0.04507 0.0
O163 O 0.65593 0.74412 0.90686 0.0
O164 O 0.63391 0.73156 0.91478 0.0
O165 O 0.67692 0.68567 0.07939 0.0
O166 O 0.68146 0.74641 1.01021 0.0
O167 O 0.64063 0.81805 1.00935 0.0
O168 O 0.66049 0.80478 0.07217 0.0
O169 O 0.63857 0.778 0.17583 0.0
O170 O 0.65517 0.72813 0.18782 0.0
O171 O 0.61319 0.78746 0.99127 0.0
O172 O 0.61193 0.7577 0.11957 0.0
C173 C 0.64455 0.73783 0.86921 0.0
O174 O 0.65079 0.66997 1.01134 0.0
O175 O 0.63138 0.68421 0.07856 0.0
C176 C 0.69846 0.71413 0.09567 0.0
C177 C 0.72323 0.70969 0.17618 0.0
C178 C 0.71202 0.69587 0.22103 0.0
C179 C 0.69977 0.69806 0.18128 0.0
C180 C 0.70956 0.72952 0.05216 0.0
C181 C 0.72179 0.72748 0.09195 0.0
C182 C 0.68605 0.71066 0.04695 0.0
C183 C 0.65198 0.83203 0.03721 0.0
C184 C 0.6465 0.75436 0.22407 0.0
C185 C 0.59243 0.76298 0.03793 0.0
C186 C 0.56653 0.73789 1.002 0.0
C187 C 0.5693 0.77164 0.06276 0.0
C188 C 0.5821 0.78402 0.08036 0.0
C189 C 0.58982 0.729 0.97768 0.0
C190 C 0.57695 0.71651 0.9599 0.0
C191 C 0.60572 0.77806 0.05722 0.0
H192 H 0.71273 0.68266 0.2865 0.0
H193 H 0.6914 0.68599 0.2167 0.0
H194 H 0.70883 0.74167 0.98585 0.0
H195 H 0.73019 0.73804 0.0551 0.0
H196 H 0.56158 0.78821 0.09777 0.0
H197 H 0.58394 0.81023 0.12729 0.0
H198 H 0.59769 0.71239 0.9442 0.0
H199 H 0.57517 0.69058 0.91238 0.0
Dy200 Dy 0.37593 0.75586 0.05556 0.0
Dy201 Dy 0.40722 0.72882 0.05481 0.0
C202 C 0.39838 0.82958 0.0453 0.0
O203 O 0.3829 0.77192 0.92241 0.0
O204 O 0.40085 0.7266 0.91343 0.0
O205 O 0.36045 0.79261 0.11694 0.0
O206 O 0.35656 0.75371 1.00086 0.0
O207 O 0.39617 0.66666 0.08239 0.0
O208 O 0.37681 0.68444 0.01728 0.0
O209 O 0.40158 0.7449 0.19369 0.0
O210 O 0.38017 0.72586 0.18452 0.0
O211 O 0.42287 0.68507 1.01619 0.0
O212 O 0.42651 0.73936 0.10615 0.0
C213 C 0.3915 0.74992 0.87625 0.0
O214 O 0.38733 0.81778 0.08111 0.0
O215 O 0.40665 0.80005 1.01581 0.0
C216 C 0.33914 0.76261 0.10246 0.0
C217 C 0.31428 0.74113 0.16903 0.0
C218 C 0.32237 0.77148 0.21294 0.0
C219 C 0.33461 0.78218 0.17993 0.0
C220 C 0.33115 0.73169 0.05923 0.0
C221 C 0.31889 0.72098 0.09229 0.0
C222 C 0.35159 0.77748 0.06369 0.0
C223 C 0.38514 0.65487 0.04599 0.0
C224 C 0.39048 0.73507 0.23125 0.0
C225 C 0.4448 0.71201 0.02635 0.0
C226 C 0.47154 0.71072 0.9832 0.0
C227 C 0.46272 0.68228 0.94067 0.0
C228 C 0.44952 0.68278 0.96225 0.0
C229 C 0.45352 0.74187 0.06584 0.0
C230 C 0.46671 0.74133 0.04439 0.0
C231 C 0.43153 0.70652 0.06212 0.0
H232 H 0.31921 0.78722 0.27275 0.0
H233 H 0.34045 0.80647 0.21441 0.0
H234 H 0.33423 0.71646 0.99873 0.0
H235 H 0.31286 0.69792 0.05612 0.0
H236 H 0.46606 0.65871 0.89232 0.0
H237 H 0.44311 0.65897 0.93122 0.0
H238 H 0.45028 0.76431 0.11658 0.0
H239 H 0.4732 0.76334 0.0794 0.0
Dy240 Dy 0.66229 0.25728 0.97859 0.0
Dy241 Dy 0.63085 0.23039 0.97724 0.0
C242 C 0.63961 0.33052 1.00459 0.0
O243 O 0.65583 0.26575 0.11799 0.0
O244 O 0.63675 0.22537 0.11629 0.0
O245 O 0.67772 0.29721 0.92376 0.0
O246 O 0.68169 0.25273 0.03141 0.0
O247 O 0.64194 0.16961 0.93772 0.0
O248 O 0.66161 0.18451 1.00147 0.0
O249 O 0.63635 0.25945 0.84974 0.0
O250 O 0.6574 0.2372 0.84045 0.0
O251 O 0.61502 0.18633 1.01233 0.0
O252 O 0.61186 0.24005 0.92088 0.0
C253 C 0.6461 0.24611 0.15825 0.0
O254 O 0.65085 0.32011 0.96972 0.0
O255 O 0.6311 0.30011 0.02731 0.0
C256 C 0.69917 0.26977 0.93678 0.0
C257 C 0.7241 0.25045 0.87068 0.0
C258 C 0.72103 0.29338 0.90042 0.0
C259 C 0.7087 0.30287 0.93304 0.0
C260 C 0.70205 0.22697 0.90614 0.0
C261 C 0.71443 0.21737 0.87346 0.0
C262 C 0.68652 0.2808 0.9756 0.0
C263 C 0.65312 0.15633 0.9699 0.0
C264 C 0.64643 0.2486 0.80266 0.0
C265 C 0.59335 0.21269 0.9953 0.0
C266 C 0.56699 0.22457 0.04051 0.0
C267 C 0.5711 0.18582 0.99749 0.0
C268 C 0.58413 0.17998 0.97526 0.0
C269 C 0.58942 0.25107 0.04006 0.0
C270 C 0.57634 0.25688 0.06279 0.0
C271 C 0.60668 0.20688 0.96273 0.0
H272 H 0.72826 0.31948 0.90061 0.0
H273 H 0.70666 0.33605 0.95673 0.0
H274 H 0.69478 0.20098 0.90824 0.0
H275 H 0.71643 0.1841 0.85023 0.0
H276 H 0.56423 0.15996 0.98065 0.0
H277 H 0.58697 0.15015 0.94064 0.0
H278 H 0.59639 0.27682 0.05575 0.0
H279 H 0.57348 0.28723 0.09546 0.0
Dy280 Dy 0.37571 0.23117 0.97626 0.0
Dy281 Dy 0.40742 0.25466 0.97571 0.0
C282 C 0.39712 0.15419 0.98178 0.0
O283 O 0.38166 0.24337 0.11669 0.0
O284 O 0.40349 0.22807 0.10776 0.0
O285 O 0.35945 0.19119 0.93233 0.0
O286 O 0.35646 0.24452 0.02492 0.0
O287 O 0.39667 0.316 1.01384 0.0
O288 O 0.37732 0.30322 0.94456 0.0
O289 O 0.39965 0.27302 0.84542 0.0
O290 O 0.38236 0.22542 0.83641 0.0
O291 O 0.42358 0.29165 0.02925 0.0
O292 O 0.42635 0.24984 0.91553 0.0
C293 C 0.39298 0.23526 0.15395 0.0
O294 O 0.38583 0.16812 1.01065 0.0
O295 O 0.40588 0.18166 0.95059 0.0
C296 C 0.33864 0.22669 0.93087 0.0
C297 C 0.31387 0.24499 0.85756 0.0
C298 C 0.32092 0.20712 0.83205 0.0
C299 C 0.33313 0.19803 0.86846 0.0
C300 C 0.33166 0.26478 0.9557 0.0
C301 C 0.31947 0.27382 0.91946 0.0
C302 C 0.35096 0.21455 0.97565 0.0
C303 C 0.38568 0.33043 0.98097 0.0
C304 C 0.39141 0.24963 0.79897 0.0
C305 C 0.4451 0.26539 1.00413 0.0
C306 C 0.47159 0.25317 0.04844 0.0
C307 C 0.46477 0.2909 0.07703 0.0
C308 C 0.45172 0.29691 0.05504 0.0
C309 C 0.45177 0.22706 0.97702 0.0
C310 C 0.46487 0.22101 0.99906 0.0
C311 C 0.43184 0.27601 0.97271 0.0
H312 H 0.31701 0.18441 0.78391 0.0
H313 H 0.33815 0.1681 0.84873 0.0
H314 H 0.33548 0.28723 1.00468 0.0
H315 H 0.31427 0.30288 0.94195 0.0
H316 H 0.46963 0.31676 0.11379 0.0
H317 H 0.44689 0.32711 0.0756 0.0
H318 H 0.44697 0.20224 0.93721 0.0
H319 H 0.46977 0.19131 0.97675 0.0
H320 H 0.24187 0.18641 0.69251 0.0
H321 H 0.23589 0.3278 0.65494 0.0
H322 H 0.25825 0.34226 0.70508 0.0
H323 H 0.2612 0.19627 0.88967 0.0
H324 H 0.27172 0.15066 0.86164 0.0
H325 H 0.25521 0.15144 0.8227 0.0
H326 H 0.26344 0.14349 0.66397 0.0
H327 H 0.27997 0.14302 0.70237 0.0
H328 H 0.27494 0.18317 0.62208 0.0
H329 H 0.28142 0.34148 0.75732 0.0
H330 H 0.30347 0.3257 0.81182 0.0
H331 H 0.29426 0.18506 0.82073 0.0
C332 C 0.24519 0.22048 0.69578 0.0
C333 C 0.23707 0.25594 0.66923 0.0
C334 C 0.24193 0.29996 0.6735 0.0
C335 C 0.25462 0.30856 0.70235 0.0
C336 C 0.26239 0.27286 0.72709 0.0
C337 C 0.25785 0.2297 0.72455 0.0
C338 C 0.26821 0.19735 0.75479 0.0
C339 C 0.26382 0.17247 0.8371 0.0
C340 C 0.27185 0.16484 0.68142 0.0
C341 C 0.27927 0.22908 0.77472 0.0
C342 C 0.27571 0.27246 0.75811 0.0
C343 C 0.28428 0.30764 0.77111 0.0
C344 C 0.29679 0.29833 0.8026 0.0
C345 C 0.30067 0.25414 0.82122 0.0
C346 C 0.29172 0.21916 0.80642 0.0
H347 H 0.73991 0.30246 0.76874 0.0
H348 H 0.73867 0.17589 0.90345 0.0
H349 H 0.76134 0.16132 0.85965 0.0
H350 H 0.76005 0.26673 0.58784 0.0
H351 H 0.7688 0.31849 0.5831 0.0
H352 H 0.75229 0.3176 0.62118 0.0
H353 H 0.7595 0.35591 0.76477 0.0
H354 H 0.77604 0.35669 0.72738 0.0
H355 H 0.77211 0.33098 0.83003 0.0
H356 H 0.78463 0.16255 0.80742 0.0
H357 H 0.80636 0.17842 0.74738 0.0
H358 H 0.79217 0.304 0.64628 0.0
C359 C 0.74438 0.27163 0.78907 0.0
C360 C 0.73747 0.24031 0.8396 0.0
C361 C 0.74368 0.20015 0.86378 0.0
C362 C 0.75659 0.1917 0.83968 0.0
C363 C 0.76316 0.22364 0.79109 0.0
C364 C 0.75723 0.26268 0.76562 0.0
C365 C 0.76648 0.29198 0.71504 0.0
C366 C 0.76162 0.2991 0.62122 0.0
C367 C 0.76866 0.33652 0.76214 0.0
C368 C 0.7786 0.2636 0.71692 0.0
C369 C 0.7765 0.22426 0.76088 0.0
C370 C 0.78635 0.1931 0.77223 0.0
C371 C 0.79866 0.20234 0.73751 0.0
C372 C 0.80104 0.24246 0.69188 0.0
C373 C 0.79079 0.27329 0.68166 0.0
H374 H 0.29667 0.80036 0.2367 0.0
H375 H 0.30158 0.66077 0.17423 0.0
H376 H 0.27922 0.6459 0.22433 0.0
H377 H 0.2778 0.78401 0.43314 0.0
H378 H 0.26762 0.83161 0.41323 0.0
H379 H 0.28404 0.83085 0.37339 0.0
H380 H 0.27564 0.84606 0.21682 0.0
H381 H 0.25919 0.84664 0.25608 0.0
H382 H 0.26373 0.80939 0.16928 0.0
H383 H 0.25605 0.6467 0.27975 0.0
H384 H 0.23406 0.66318 0.33503 0.0
H385 H 0.24474 0.80184 0.36502 0.0
C386 C 0.29314 0.76651 0.23461 0.0
C387 C 0.30094 0.73172 0.20155 0.0
C388 C 0.29578 0.68808 0.19838 0.0
C389 C 0.2831 0.67926 0.22716 0.0
C390 C 0.27569 0.71439 0.25904 0.0
C391 C 0.28054 0.75713 0.26304 0.0
C392 C 0.27055 0.78915 0.2989 0.0
C393 C 0.27529 0.81013 0.38477 0.0
C394 C 0.26708 0.82491 0.23122 0.0
C395 C 0.25929 0.75782 0.31415 0.0
C396 C 0.26244 0.71483 0.29095 0.0
C397 C 0.25352 0.68024 0.29854 0.0
C398 C 0.24106 0.68989 0.33048 0.0
C399 C 0.23761 0.73381 0.35445 0.0
C400 C 0.24695 0.76801 0.34627 0.0
H401 H 0.74433 0.76637 0.17106 0.0
H402 H 0.73209 0.63752 0.26717 0.0
H403 H 0.75406 0.6246 0.32613 0.0
H404 H 0.77638 0.73336 0.10488 0.0
H405 H 0.78394 0.78463 0.13838 0.0
H406 H 0.76717 0.78426 0.10483 0.0
H407 H 0.76055 0.81997 0.25191 0.0
H408 H 0.7773 0.8206 0.28578 0.0
H409 H 0.76529 0.79362 0.35254 0.0
H410 H 0.7775 0.62499 0.37285 0.0
H411 H 0.80037 0.64019 0.40997 0.0
H412 H 0.79764 0.76811 0.28088 0.0
C413 C 0.74627 0.73538 0.20432 0.0
C414 C 0.73641 0.70306 0.21471 0.0
C415 C 0.73937 0.66315 0.25952 0.0
C416 C 0.75187 0.65532 0.29268 0.0
C417 C 0.76136 0.6877 0.28078 0.0
C418 C 0.7587 0.72705 0.23812 0.0
C419 C 0.77064 0.75653 0.23482 0.0
C420 C 0.77477 0.76519 0.14009 0.0
C421 C 0.7683 0.80027 0.28422 0.0
C422 C 0.78042 0.72752 0.28199 0.0
C423 C 0.77488 0.68791 0.30772 0.0
C424 C 0.78196 0.65585 0.35273 0.0
C425 C 0.79501 0.66466 0.37287 0.0
C426 C 0.80092 0.70527 0.34813 0.0
C427 C 0.79345 0.73687 0.30146 0.0
H428 H 0.15621 0.90041 0.45296 0.0
H429 H 0.11738 0.87101 0.54611 0.0
H430 H 0.11264 0.95134 0.55294 0.0
H431 H 0.16169 -0.00657 0.58876 0.0
H432 H 0.17063 0.02424 0.5081 0.0
H433 H 0.17066 0.9645 0.50542 0.0
H434 H 0.1623 0.96599 0.34586 0.0
H435 H 0.16224 0.0258 0.34805 0.0
H436 H 0.14765 -0.00406 0.32011 0.0
H437 H 0.11246 0.03475 0.55495 0.0
H438 H 0.11695 0.11512 0.55538 0.0
H439 H 0.156 0.08949 0.46181 0.0
C440 C 0.14665 0.91072 0.47398 0.0
C441 C 0.13714 0.87938 0.49873 0.0
C442 C 0.12481 0.8944 0.52676 0.0
C443 C 0.12201 0.93993 0.53062 0.0
C444 C 0.13165 0.9699 0.50622 0.0
C445 C 0.14372 0.95591 0.47849 0.0
C446 C 0.15255 -0.00518 0.45937 0.0
C447 C 0.16459 -0.0058 0.51898 0.0
C448 C 0.15641 -0.00433 0.36259 0.0
C449 C 0.14362 0.03296 0.48169 0.0
C450 C 0.13158 0.01791 0.50798 0.0
C451 C 0.12183 0.04694 0.53409 0.0
C452 C 0.1245 0.09257 0.53418 0.0
C453 C 0.13684 0.10871 0.50866 0.0
C454 C 0.14645 0.07835 0.48125 0.0
H455 H 0.87988 0.41436 0.4654 0.0
H456 H 0.91644 0.38868 0.5976 0.0
H457 H 0.92142 0.46877 0.59529 0.0
H458 H 0.89146 0.50216 0.3254 0.0
H459 H 0.87676 0.5343 0.33378 0.0
H460 H 0.87616 0.47474 0.34375 0.0
H461 H 0.86491 0.48242 0.494 0.0
H462 H 0.86544 0.54196 0.48434 0.0
H463 H 0.87251 0.51526 0.57823 0.0
H464 H 0.9224 0.55105 0.57985 0.0
H465 H 0.91896 0.63109 0.5581 0.0
H466 H 0.88159 0.60374 0.43735 0.0
C467 C 0.88895 0.42554 0.49366 0.0
C468 C 0.89778 0.39527 0.53162 0.0
C469 C 0.90951 0.41127 0.56836 0.0
C470 C 0.91246 0.45666 0.56709 0.0
C471 C 0.90355 0.48556 0.52903 0.0
C472 C 0.89202 0.47075 0.49333 0.0
C473 C 0.88399 0.50897 0.45855 0.0
C474 C 0.88198 0.50478 0.35949 0.0
C475 C 0.87094 0.51234 0.50668 0.0
C476 C 0.89279 0.54762 0.48079 0.0
C477 C 0.90406 0.53328 0.52087 0.0
C478 C 0.91363 0.56273 0.54844 0.0
C479 C 0.91157 0.60819 0.53568 0.0
C480 C 0.89999 0.62381 0.496 0.0
C481 C 0.89056 0.59293 0.46757 0.0
H482 H 0.90384 0.91572 0.44645 0.0
H483 H 0.86707 0.88544 0.5709 0.0
H484 H 0.86252 0.9655 0.5848 0.0
H485 H 0.91171 0.00915 0.57989 0.0
H486 H 0.91898 0.04055 0.49274 0.0
H487 H 0.91916 0.98079 0.48932 0.0
H488 H 0.90792 0.98233 0.33796 0.0
H489 H 0.90769 0.04213 0.34094 0.0
H490 H 0.8928 0.01173 0.32506 0.0
H491 H 0.86206 0.04804 0.58746 0.0
H492 H 0.86589 0.12858 0.58235 0.0
H493 H 0.90314 0.10575 0.45773 0.0
C494 C 0.8948 0.9259 0.47614 0.0
C495 C 0.8858 0.89435 0.50746 0.0
C496 C 0.87412 0.90903 0.54656 0.0
C497 C 0.87143 0.9544 0.55455 0.0
C498 C 0.88052 0.9846 0.52329 0.0
C499 C 0.89198 0.97107 0.48505 0.0
C500 C 0.90026 0.01047 0.45914 0.0
C501 C 0.9133 0.01021 0.50823 0.0
C502 C 0.90228 0.01173 0.35987 0.0
C503 C 0.89167 0.04823 0.48932 0.0
C504 C 0.88031 0.03249 0.52565 0.0
C505 C 0.87091 0.06083 0.55906 0.0
C506 C 0.8732 0.10658 0.55584 0.0
C507 C 0.88484 0.12359 0.51974 0.0
C508 C 0.89414 0.09387 0.48562 0.0
H509 H 0.13731 0.58726 0.45784 0.0
H510 H 0.17475 0.61789 0.57387 0.0
H511 H 0.17864 0.5378 0.5974 0.0
H512 H 0.12894 0.50024 0.60248 0.0
H513 H 0.12109 0.4671 0.51979 0.0
H514 H 0.12156 0.52659 0.50926 0.0
H515 H 0.13239 0.51892 0.35752 0.0
H516 H 0.13189 0.45937 0.36738 0.0
H517 H 0.1471 0.487 0.34695 0.0
H518 H 0.17807 0.45356 0.61129 0.0
H519 H 0.17318 0.37304 0.61165 0.0
H520 H 0.13608 0.39985 0.48745 0.0
C521 C 0.14639 0.57728 0.48758 0.0
C522 C 0.15573 0.60891 0.51382 0.0
C523 C 0.16745 0.59427 0.55301 0.0
C524 C 0.16975 0.54885 0.56674 0.0
C525 C 0.16024 0.51861 0.54087 0.0
C526 C 0.14882 0.53232 0.50186 0.0
C527 C 0.14004 0.49353 0.48124 0.0
C528 C 0.12715 0.49709 0.5312 0.0
C529 C 0.13773 0.48947 0.38241 0.0
C530 C 0.14826 0.45577 0.51511 0.0
C531 C 0.15989 0.47069 0.54918 0.0
C532 C 0.16899 0.44151 0.58459 0.0
C533 C 0.16613 0.39588 0.58466 0.0
C534 C 0.15425 0.38007 0.54967 0.0
C535 C 0.14525 0.41066 0.51479 0.0
H536 H 0.65509 0.58892 0.98366 0.0
H537 H 0.61788 0.61424 0.10616 0.0
H538 H 0.61341 0.53353 0.10782 0.0
H539 H 0.64456 0.49883 0.84612 0.0
H540 H 0.65952 0.46849 0.85857 0.0
H541 H 0.65953 0.52817 0.86591 0.0
H542 H 0.67038 0.52353 0.01839 0.0
H543 H 0.67038 0.46386 1.01156 0.0
H544 H 0.66279 0.49112 0.10284 0.0
H545 H 0.61333 0.44868 0.09778 0.0
H546 H 0.6177 0.36847 0.07655 0.0
H547 H 0.65493 0.40107 0.9611 0.0
C548 C 0.64596 0.5777 1.01059 0.0
C549 C 0.63684 0.60805 0.04473 0.0
C550 C 0.62504 0.59169 0.07954 0.0
C551 C 0.6224 0.54588 0.08076 0.0
C552 C 0.63166 0.51689 0.04686 0.0
C553 C 0.64319 0.53231 1.01235 0.0
C554 C 0.65165 0.49459 0.98089 0.0
C555 C 0.65394 0.49772 0.88201 0.0
C556 C 0.66456 0.49321 0.03146 0.0
C557 C 0.64312 0.45543 1.00338 0.0
C558 C 0.63161 0.46873 0.04124 0.0
C559 C 0.62231 0.43795 0.06798 0.0
C560 C 0.62487 0.39247 0.05568 0.0
C561 C 0.63665 0.3783 0.0171 0.0
C562 C 0.64581 0.4105 0.99071 0.0
H563 H 0.38256 0.89984 0.08501 0.0
H564 H 0.42052 0.86793 0.97976 0.0
H565 H 0.42461 0.94776 0.95483 0.0
H566 H 0.37504 0.9854 0.93498 0.0
H567 H 0.3668 0.01963 1.01381 0.0
H568 H 0.36715 0.96029 0.02739 0.0
H569 H 0.37718 0.96987 0.18148 0.0
H570 H 0.3768 0.02929 0.16855 0.0
H571 H 0.39185 0.00183 0.1945 0.0
H572 H 0.4242 0.03141 0.93709 0.0
H573 H 0.41939 0.11167 0.92919 0.0
H574 H 0.38162 0.08765 0.04512 0.0
C575 C 0.3918 0.90951 0.05753 0.0
C576 C 0.40123 0.87751 0.03463 0.0
C577 C 0.41314 0.89177 0.99807 0.0
C578 C 0.41556 0.93706 0.98364 0.0
C579 C 0.40598 0.96764 1.00611 0.0
C580 C 0.39436 0.95442 0.04249 0.0
C581 C 0.3855 -0.00638 0.05877 0.0
C582 C 0.37288 0.98947 1.00554 0.0
C583 C 0.38267 -0.00104 0.15664 0.0
C584 C 0.39392 0.03102 0.02533 0.0
C585 C 0.40571 0.01547 0.99546 0.0
C586 C 0.41501 0.04395 0.96059 0.0
C587 C 0.41217 0.08951 0.95628 0.0
C588 C 0.40012 0.10611 0.98648 0.0
C589 C 0.39093 0.07622 0.02148 0.0
H590 H 0.40106 0.39625 0.04851 0.0
H591 H 0.36371 0.3736 0.92435 0.0
H592 H 0.35909 0.45405 0.93221 0.0
H593 H 0.39056 0.48226 0.19641 0.0
H594 H 0.40541 0.51346 0.18669 0.0
H595 H 0.40558 0.45404 0.17311 0.0
H596 H 0.41616 0.46308 0.021 0.0
H597 H 0.41605 0.52247 0.03416 0.0
H598 H 0.40837 0.49756 0.94037 0.0
H599 H 0.35884 0.53759 0.95095 0.0
H600 H 0.36311 0.61724 0.97675 0.0
H601 H 0.40063 0.58411 0.08882 0.0
C602 C 0.39187 0.40802 0.02318 0.0
C603 C 0.38274 0.37851 0.98583 0.0
C604 C 0.37086 0.39551 0.95326 0.0
C605 C 0.36814 0.44115 0.95758 0.0
C606 C 0.37738 0.46927 0.99476 0.0
C607 C 0.389 0.4533 0.02695 0.0
C608 C 0.39743 0.49041 0.06211 0.0
C609 C 0.39988 0.48469 0.16042 0.0
C610 C 0.41026 0.49356 1.01135 0.0
C611 C 0.38878 0.52991 0.04408 0.0
C612 C 0.37724 0.51709 1.00555 0.0
C613 C 0.36783 0.54798 0.98141 0.0
C614 C 0.37035 0.59316 0.99638 0.0
C615 C 0.3822 0.60703 0.03502 0.0
C616 C 0.39144 0.57474 0.05964 0.0
H617 H 0.63681 0.08632 0.93345 0.0
H618 H 0.67593 0.11723 0.02041 0.0
H619 H 0.6802 0.03749 0.0425 0.0
H620 H 0.63085 0.00143 0.08562 0.0
H621 H 0.62175 0.96676 1.0116 0.0
H622 H 0.62205 0.02598 0.99613 0.0
H623 H 0.63045 0.01518 0.83838 0.0
H624 H 0.63009 0.95585 0.85313 0.0
H625 H 0.64489 0.98277 0.81989 0.0
H626 H 0.67978 0.95444 0.06404 0.0
H627 H 0.67484 0.87444 0.07836 0.0
H628 H 0.63606 0.89828 0.97717 0.0
C629 C 0.64635 0.07635 0.95574 0.0
C630 C 0.65603 0.10818 0.97495 0.0
C631 C 0.66834 0.09359 1.00508 0.0
C632 C 0.67088 0.0483 0.01788 0.0
C633 C 0.66103 0.01791 1.00001 0.0
C634 C 0.64905 0.03129 0.96899 0.0
C635 C 0.63999 0.9921 0.95781 0.0
C636 C 0.62795 -0.00313 1.01629 0.0
C637 C 0.63613 0.98613 0.86158 0.0
C638 C 0.64868 0.95472 0.98854 0.0
C639 C 0.6608 0.9702 1.01235 0.0
C640 C 0.67035 0.94188 0.04494 0.0
C641 C 0.66744 0.8965 0.05309 0.0
C642 C 0.65508 0.87992 0.02883 0.0
C643 C 0.64564 0.90967 0.99603 0.0
H644 H 0.12783 0.27156 0.22088 0.0
H645 H 0.1625 0.19434 0.27416 0.0
H646 H 0.16594 0.18389 0.11697 0.0
H647 H 0.11731 0.20855 0.0251 0.0
H648 H 0.11202 0.25731 0.96702 0.0
H649 H 0.11141 0.25611 0.08446 0.0
H650 H 0.12533 0.3276 0.09083 0.0
H651 H 0.12605 0.32885 0.97351 0.0
H652 H 0.14083 0.3288 0.03662 0.0
H653 H 0.16661 0.18421 0.95824 0.0
H654 H 0.16451 0.19446 0.80089 0.0
H655 H 0.12966 0.27336 0.84054 0.0
C656 C 0.13597 0.25179 0.19898 0.0
C657 C 0.14488 0.23348 0.25965 0.0
C658 C 0.15558 0.20863 0.22882 0.0
C659 C 0.15761 0.20244 0.13964 0.0
C660 C 0.14891 0.22157 0.08137 0.0
C661 C 0.13828 0.24573 0.10901 0.0
C662 C 0.13093 0.26441 0.03081 0.0
C663 C 0.11709 0.24546 0.02661 0.0
C664 C 0.13078 0.31545 0.03311 0.0
C665 C 0.13918 0.24719 0.95567 0.0
C666 C 0.14943 0.22238 0.98726 0.0
C667 C 0.15859 0.20334 0.93246 0.0
C668 C 0.15728 0.20951 0.84266 0.0
C669 C 0.14689 0.23471 0.80731 0.0
C670 C 0.1377 0.25389 0.86509 0.0
H671 H 0.87551 0.2902 0.21612 0.0
H672 H 0.90952 0.2088 0.26491 0.0
H673 H 0.91163 0.19442 0.10784 0.0
H674 H 0.86265 0.22602 0.03063 0.0
H675 H 0.85773 0.27435 0.96978 0.0
H676 H 0.85799 0.27601 0.08728 0.0
H677 H 0.87314 0.34458 0.0829 0.0
H678 H 0.8729 0.34318 0.9655 0.0
H679 H 0.88816 0.3415 0.0231 0.0
H680 H 0.91063 0.18924 0.95003 0.0
H681 H 0.90781 0.19781 0.79303 0.0
H682 H 0.87505 0.28615 0.83671 0.0
C683 C 0.88329 0.26903 0.19329 0.0
C684 C 0.89235 0.25047 0.25245 0.0
C685 C 0.90254 0.22352 0.2206 0.0
C686 C 0.90376 0.2149 0.13158 0.0
C687 C 0.89481 0.23387 0.07481 0.0
C688 C 0.88484 0.26073 0.10357 0.0
C689 C 0.87718 0.27914 0.02659 0.0
C690 C 0.86305 0.2629 0.02872 0.0
C691 C 0.87789 0.33013 0.02441 0.0
C692 C 0.88454 0.25863 0.95063 0.0
C693 C 0.89453 0.23219 0.98096 0.0
C694 C 0.90286 0.20988 0.9252 0.0
C695 C 0.90116 0.21518 0.83566 0.0
C696 C 0.89125 0.24301 0.80171 0.0
C697 C 0.8827 0.26461 0.86033 0.0
H698 H 0.12946 0.73461 0.18721 0.0
H699 H 0.17116 0.73806 0.23014 0.0
H700 H 0.17472 0.74228 0.0725 0.0
H701 H 0.13088 0.66564 0.99066 0.0
H702 H 0.11779 0.69411 0.93618 0.0
H703 H 0.11819 0.69147 0.05355 0.0
H704 H 0.11694 0.7772 0.06158 0.0
H705 H 0.11658 0.78012 0.94424 0.0
H706 H 0.12882 0.81007 1.0045 0.0
H707 H 0.17419 0.75001 0.91354 0.0
H708 H 0.16968 0.75489 0.75671 0.0
H709 H 0.12839 0.74204 0.80707 0.0
C710 C 0.13932 0.7361 0.16324 0.0
C711 C 0.15002 0.73597 0.22181 0.0
C712 C 0.16278 0.73782 0.18743 0.0
C713 C 0.16493 0.74041 0.09761 0.0
C714 C 0.15426 0.74066 0.04194 0.0
C715 C 0.1417 0.73806 0.0727 0.0
C716 C 0.13208 0.73824 0.99692 0.0
C717 C 0.12427 0.69477 0.99418 0.0
C718 C 0.12307 0.77882 1.00215 0.0
C719 C 0.14125 0.74167 0.91937 0.0
C720 C 0.15398 0.74345 0.94778 0.0
C721 C 0.16428 0.74833 0.89029 0.0
C722 C 0.16159 0.75133 0.80113 0.0
C723 C 0.14868 0.7489 0.76923 0.0
C724 C 0.13835 0.74368 0.82938 0.0
H725 H 0.90938 0.78398 0.79907 0.0
H726 H 0.87564 0.6999 0.75489 0.0
H727 H 0.87276 0.69187 0.91182 0.0
H728 H 0.92115 0.72238 0.99319 0.0
H729 H 0.92642 0.77181 0.04941 0.0
H730 H 0.92655 0.76993 0.93191 0.0
H731 H 0.91224 0.84051 0.92678 0.0
H732 H 0.91201 0.84248 0.04415 0.0
H733 H 0.89697 0.84109 0.98394 0.0
H734 H 0.87184 0.69738 0.06965 0.0
H735 H 0.87415 0.71166 0.22675 0.0
H736 H 0.90908 0.78831 0.17851 0.0
C737 C 0.90151 0.76346 0.82256 0.0
C738 C 0.8927 0.74294 0.76375 0.0
C739 C 0.8825 0.71644 0.79759 0.0
C740 C 0.88075 0.71145 0.88712 0.0
C741 C 0.88935 0.73267 0.94303 0.0
C742 C 0.89964 0.75771 0.91288 0.0
C743 C 0.90722 0.77736 0.98905 0.0
C744 C 0.92117 0.75928 0.99099 0.0
C745 C 0.9071 0.82839 0.98575 0.0
C746 C 0.89937 0.76008 0.06583 0.0
C747 C 0.8891 0.73451 0.03689 0.0
C748 C 0.87994 0.71681 0.09352 0.0
C749 C 0.88129 0.72535 0.18254 0.0
C750 C 0.89179 0.7509 0.21456 0.0
C751 C 0.90105 0.76818 0.15557 0.0
H752 H 0.66291 0.72345 0.35683 0.0
H753 H 0.62603 0.78957 0.3109 0.0
H754 H 0.62195 0.79145 0.46799 0.0
H755 H 0.6523 0.65613 0.5383 0.0
H756 H 0.66711 0.66193 0.60013 0.0
H757 H 0.66748 0.66514 0.48283 0.0
H758 H 0.67854 0.74214 0.49228 0.0
H759 H 0.67825 0.73911 0.60961 0.0
H760 H 0.67099 0.7858 0.55465 0.0
H761 H 0.62087 0.78332 0.6269 0.0
H762 H 0.62385 0.77175 0.78423 0.0
H763 H 0.66197 0.71543 0.73694 0.0
C764 C 0.65402 0.73845 0.38002 0.0
C765 C 0.64481 0.75636 0.32064 0.0
C766 C 0.63331 0.77578 0.35413 0.0
C767 C 0.63084 0.77691 0.44368 0.0
C768 C 0.63999 0.7589 0.50014 0.0
C769 C 0.65143 0.7405 0.47037 0.0
C770 C 0.65964 0.72435 0.54693 0.0
C771 C 0.66175 0.67389 0.54171 0.0
C772 C 0.67263 0.74935 0.5511 0.0
C773 C 0.65095 0.73653 0.62367 0.0
C774 C 0.63961 0.75588 0.59427 0.0
C775 C 0.62975 0.76852 0.65095 0.0
C776 C 0.63152 0.76156 0.74035 0.0
C777 C 0.64313 0.74273 0.77318 0.0
C778 C 0.65303 0.73021 0.71384 0.0
H779 H 0.40942 0.7309 0.74407 0.0
H780 H 0.36928 0.76858 0.78953 0.0
H781 H 0.36516 0.76813 0.63238 0.0
H782 H 0.4134 0.79875 0.5488 0.0
H783 H 0.42341 0.75892 0.49255 0.0
H784 H 0.42352 0.76112 0.60999 0.0
H785 H 0.41749 0.67775 0.6162 0.0
H786 H 0.41734 0.67532 0.49878 0.0
H787 H 0.40324 0.65833 0.55945 0.0
H788 H 0.36466 0.76144 0.47381 0.0
H789 H 0.36824 0.75388 0.3165 0.0
H790 H 0.40894 0.72458 0.36355 0.0
C791 C 0.39979 0.73905 0.72069 0.0
C792 C 0.3897 0.74989 0.77984 0.0
C793 C 0.37724 0.76054 0.74631 0.0
C794 C 0.37475 0.7602 0.65678 0.0
C795 C 0.38481 0.74955 0.60046 0.0
C796 C 0.39713 0.73957 0.6303 0.0
C797 C 0.40615 0.73037 0.55369 0.0
C798 C 0.41728 0.76432 0.55112 0.0
C799 C 0.41136 0.6826 0.55727 0.0
C800 C 0.3969 0.73661 0.47691 0.0
C801 C 0.38463 0.74721 0.50635 0.0
C802 C 0.37423 0.75338 0.4497 0.0
C803 C 0.37637 0.74878 0.36023 0.0
C804 C 0.38886 0.73861 0.32731 0.0
C805 C 0.3993 0.73266 0.38668 0.0
H806 H 0.66499 0.24444 0.28908 0.0
H807 H 0.62357 0.2574 0.2432 0.0
H808 H 0.61976 0.26094 0.40093 0.0
H809 H 0.66199 0.17319 0.47639 0.0
H810 H 0.67536 0.19708 0.53622 0.0
H811 H 0.67532 0.19836 0.41876 0.0
H812 H 0.67801 0.28379 0.4219 0.0
H813 H 0.67812 0.28275 0.53941 0.0
H814 H 0.66659 0.31708 0.48221 0.0
H815 H 0.61989 0.26108 0.55881 0.0
H816 H 0.62374 0.25756 0.71551 0.0
H817 H 0.66517 0.2423 0.67022 0.0
C818 C 0.65518 0.24859 0.31269 0.0
C819 C 0.64455 0.25067 0.25383 0.0
C820 C 0.63182 0.25543 0.28694 0.0
C821 C 0.62956 0.25763 0.3765 0.0
C822 C 0.64011 0.25468 0.43282 0.0
C823 C 0.65268 0.25019 0.40307 0.0
C824 C 0.66206 0.24596 0.47973 0.0
C825 C 0.6691 0.20097 0.47762 0.0
C826 C 0.67177 0.28471 0.48086 0.0
C827 C 0.65273 0.24871 0.55653 0.0
C828 C 0.64016 0.25397 0.52684 0.0
C829 C 0.62969 0.25715 0.58314 0.0
C830 C 0.63204 0.25513 0.67257 0.0
C831 C 0.6448 0.24984 0.70616 0.0
C832 C 0.65532 0.24637 0.64692 0.0
H833 H 0.37436 0.22493 0.28505 0.0
H834 H 0.41528 0.25181 0.24159 0.0
H835 H 0.41877 0.25821 0.39907 0.0
H836 H 0.37026 0.29887 0.46953 0.0
H837 H 0.35978 0.26211 0.5296 0.0
H838 H 0.36009 0.25979 0.4122 0.0
H839 H 0.36554 0.17598 0.41861 0.0
H840 H 0.36523 0.17803 0.53604 0.0
H841 H 0.37943 0.15767 0.48053 0.0
H842 H 0.41818 0.26472 0.55752 0.0
H843 H 0.41385 0.26603 0.71444 0.0
H844 H 0.37356 0.23104 0.66564 0.0
C845 C 0.38403 0.23213 0.30896 0.0
C846 C 0.39455 0.23776 0.25036 0.0
C847 C 0.40707 0.24693 0.28447 0.0
C848 C 0.40917 0.25086 0.37415 0.0
C849 C 0.3987 0.24511 0.42994 0.0
C850 C 0.38639 0.23549 0.39947 0.0
C851 C 0.37703 0.22995 0.47559 0.0
C852 C 0.36615 0.26476 0.47146 0.0
C853 C 0.37148 0.18258 0.4778 0.0
C854 C 0.38604 0.23838 0.55287 0.0
C855 C 0.39846 0.24739 0.52403 0.0
C856 C 0.40852 0.2575 0.58115 0.0
C857 C 0.40592 0.25835 0.67045 0.0
C858 C 0.39336 0.24872 0.70288 0.0
C859 C 0.38328 0.23832 0.643 0.0
H860 H 0.04608 0.2795 0.40444 0.0
H861 H 0.05539 0.15533 0.53365 0.0
H862 H 0.03232 0.13366 0.52721 0.0
H863 H 1.01758 0.30022 0.51866 0.0
H864 H 1.00886 0.32403 0.42805 0.0
H865 H 0.02629 0.32709 0.4316 0.0
H866 H 0.02758 0.28885 0.28041 0.0
H867 H 1.01012 0.28575 0.27629 0.0
H868 H 0.01968 0.23607 0.26382 0.0
H869 H 1.00791 0.12935 0.52245 0.0
H870 H 0.98433 0.14273 0.51993 0.0
H871 H 0.99084 0.2693 0.39188 0.0
C872 C 0.04332 0.2475 0.43057 0.0
C873 C 0.05264 0.21909 0.46927 0.0
C874 C 0.04854 0.17741 0.50222 0.0
C875 C 0.03542 0.16486 0.49923 0.0
C876 C 0.02647 0.19414 0.4625 0.0
C877 C 0.03027 0.23448 0.42819 0.0
C878 C 1.01865 0.26125 0.39788 0.0
C879 C 1.0178 0.30576 0.447 0.0
C880 C 0.01903 0.26839 0.2987 0.0
C881 C 1.00769 0.23033 0.42325 0.0
C882 C 1.0124 0.19156 0.45943 0.0
C883 C 1.00411 0.15923 0.49273 0.0
C884 C 0.99068 0.16705 0.49043 0.0
C885 C 0.9856 0.20701 0.45528 0.0
C886 C 0.99431 0.23848 0.41963 0.0
H887 H 0.99123 0.72581 0.48937 0.0
H888 H 0.98631 0.811 0.71534 0.0
H889 H 1.01001 0.80976 0.74046 0.0
H890 H 1.01734 0.65778 0.57989 0.0
H891 H 0.02561 0.65341 0.47685 0.0
H892 H 1.00823 0.65958 0.47943 0.0
H893 H 1.00997 0.7288 0.37995 0.0
H894 H 0.02735 0.723 0.37741 0.0
H895 H 0.02018 0.77451 0.41284 0.0
H896 H 0.03455 0.80171 0.73666 0.0
H897 H 0.05767 0.78593 0.70628 0.0
H898 H 0.0463 0.70584 0.48338 0.0
C899 C 0.99508 0.74349 0.54527 0.0
C900 C 0.98685 0.76843 0.60049 0.0
C901 C 0.99239 0.79195 0.67162 0.0
C902 C 1.00585 0.79128 0.68668 0.0
C903 C 1.01367 0.76684 0.63022 0.0
C904 C 1.00847 0.74318 0.56122 0.0
C905 C 1.01899 0.72059 0.50855 0.0
C906 C 1.01745 0.66983 0.51139 0.0
C907 C 0.01913 0.73777 0.41412 0.0
C908 C 0.03095 0.73549 0.5582 0.0
C909 C 0.02771 0.76211 0.62825 0.0
C910 C 0.03718 0.78071 0.68221 0.0
C911 C 0.0503 0.77179 0.66414 0.0
C912 C 0.05384 0.74445 0.59275 0.0
C913 C 0.04395 0.72618 0.53943 0.0
H914 H 0.54523 0.79249 0.98672 0.0
H915 H 0.55664 0.65383 0.97912 0.0
H916 H 0.53368 0.63217 0.96033 0.0
H917 H 0.51729 0.77762 0.11372 0.0
H918 H 0.50778 0.81916 0.05824 0.0
H919 H 0.52518 0.82395 0.0617 0.0
H920 H 0.52585 0.82776 0.89298 0.0
H921 H 0.50843 0.82304 0.88898 0.0
H922 H 0.51837 0.78421 0.82965 0.0
H923 H 0.50928 0.62539 0.95477 0.0
H924 H 0.48552 0.63381 0.9638 0.0
H925 H 0.49002 0.77705 0.975 0.0
C926 C 0.54294 0.75754 0.9807 0.0
C927 C 0.5528 0.72487 0.98434 0.0
C928 C 0.54933 0.67955 0.97527 0.0
C929 C 0.53629 0.6669 0.96493 0.0
C930 C 0.52682 0.69996 0.96319 0.0
C931 C 0.52999 0.74437 0.97043 0.0
C932 C 0.51795 0.77326 0.97098 0.0
C933 C 0.517 0.80006 0.05624 0.0
C934 C 0.51763 0.80387 0.89087 0.0
C935 C 0.50747 0.73809 0.9655 0.0
C936 C 0.51278 0.69606 0.96 0.0
C937 C 0.50502 0.65819 0.9578 0.0
C938 C 0.4915 0.66337 0.9624 0.0
C939 C 0.48582 0.70613 0.9695 0.0
C940 C 0.494 0.74389 0.96988 0.0
H941 H 0.49079 0.22212 0.93924 0.0
H942 H 0.48461 0.27471 0.19954 0.0
H943 H 0.50823 0.2729 0.22642 0.0
H944 H 0.51721 0.14705 0.9982 0.0
H945 H 0.52582 0.15639 0.89775 0.0
H946 H 0.50839 0.16074 0.90019 0.0
H947 H 0.50989 0.24045 0.83761 0.0
H948 H 0.52732 0.23646 0.83551 0.0
H949 H 0.51963 0.28139 0.89341 0.0
H950 H 0.53277 0.26822 0.22268 0.0
H951 H 0.55609 0.2577 0.19061 0.0
H952 H 0.54611 0.20705 0.93405 0.0
C953 C 0.49435 0.23249 1.00255 0.0
C954 C 0.48577 0.24869 0.06714 0.0
C955 C 0.49095 0.26273 0.14846 0.0
C956 C 0.50436 0.26162 0.16457 0.0
C957 C 0.51254 0.24615 0.09898 0.0
C958 C 0.50771 0.23149 0.01984 0.0
C959 C 0.51858 0.21702 0.95979 0.0
C960 C 0.51743 0.16735 0.93771 0.0
C961 C 0.51887 0.24554 0.87668 0.0
C962 C 0.53027 0.22612 0.01723 0.0
C963 C 0.5266 0.24297 0.09725 0.0
C964 C 0.53575 0.25482 0.16036 0.0
C965 C 0.54898 0.24901 0.14138 0.0
C966 C 0.55296 0.23135 0.06004 0.0
C967 C 0.54341 0.21993 0.99739 0.0
loop_
_geom_bond_atom_site_label_1
_geom_bond_atom_site_label_2
_geom_bond_distance
_geom_bond_site_symmetry_2
_ccdc_geom_bond_type
Dy0 O3 2.307 . S
Dy0 O5 2.395 . S
Dy0 O6 2.379 . S
Dy0 O8 2.339 . S
Dy0 O10 2.298 . S
Dy0 O14 2.275 . S
Dy0 C22 2.738 . S
Dy1 O4 2.298 . S
Dy1 O7 2.275 . S
Dy1 O9 2.307 . S
Dy1 O11 2.395 . S
Dy1 O12 2.379 . S
Dy1 O15 2.339 . S
Dy1 C31 2.738 . S
C2 O14 1.254 . S
C2 O15 1.257 . S
O3 Dy0 2.307 . S
O3 C13 1.266 . S
O4 Dy1 2.298 . S
O4 C13 1.236 . S
O5 Dy0 2.395 . S
O5 C22 1.255 . S
O6 Dy0 2.379 . S
O6 C22 1.249 . S
O7 Dy1 2.275 . S
O7 C23 1.254 . S
O8 Dy0 2.339 . S
O8 C23 1.257 . S
O9 Dy1 2.307 . S
O9 C24 1.266 . S
O10 Dy0 2.298 . S
O10 C24 1.236 . S
O11 Dy1 2.395 . S
O11 C31 1.255 . S
O12 Dy1 2.379 . S
O12 C31 1.249 . S
C13 O3 1.266 . S
C13 O4 1.236 . S
O14 Dy0 2.275 . S
O14 C2 1.254 . S
O15 Dy1 2.339 . S
O15 C2 1.257 . S
C16 C19 1.344 . S
C16 C20 1.328 . S
C16 C22 1.516 . S
C17 C18 1.304 . S
C17 C21 1.323 . S
C18 C17 1.304 . S
C18 C19 1.371 . S
C18 H32 0.930 . S
C19 C16 1.344 . S
C19 C18 1.371 . S
C19 H33 0.931 . S
C20 C16 1.328 . S
C20 C21 1.433 . S
C20 H34 0.931 . S
C21 C17 1.323 . S
C21 C20 1.433 . S
C21 H35 0.933 . S
C22 Dy0 2.738 . S
C22 O5 1.255 . S
C22 O6 1.249 . S
C22 C16 1.516 . S
C23 O7 1.254 . S
C23 O8 1.257 . S
C24 O9 1.266 . S
C24 O10 1.236 . S
C25 C28 1.344 . S
C25 C29 1.328 . S
C25 C31 1.516 . S
C26 C27 1.304 . S
C26 C30 1.323 . S
C27 C26 1.304 . S
C27 C28 1.371 . S
C27 H36 0.930 . S
C28 C25 1.344 . S
C28 C27 1.371 . S
C28 H37 0.931 . S
C29 C25 1.328 . S
C29 C30 1.433 . S
C29 H38 0.931 . S
C30 C26 1.323 . S
C30 C29 1.433 . S
C30 H39 0.933 . S
C31 Dy1 2.738 . S
C31 O11 1.255 . S
C31 O12 1.249 . S
C31 C25 1.516 . S
H32 C18 0.930 . S
H33 C19 0.931 . S
H34 C20 0.931 . S
H35 C21 0.933 . S
H36 C27 0.930 . S
H37 C28 0.931 . S
H38 C29 0.931 . S
H39 C30 0.933 . S
Dy40 O43 2.307 . S
Dy40 O45 2.395 . S
Dy40 O46 2.379 . S
Dy40 O48 2.339 . S
Dy40 O50 2.298 . S
Dy40 O54 2.275 . S
Dy40 C62 2.738 . S
Dy41 O44 2.298 . S
Dy41 O47 2.275 . S
Dy41 O49 2.307 . S
Dy41 O51 2.395 . S
Dy41 O52 2.379 . S
Dy41 O55 2.339 . S
Dy41 C71 2.738 . S
C42 O54 1.254 . S
C42 O55 1.257 . S
O43 Dy40 2.307 . S
O43 C53 1.266 . S
O44 Dy41 2.298 . S
O44 C53 1.236 . S
O45 Dy40 2.395 . S
O45 C62 1.255 . S
O46 Dy40 2.379 . S
O46 C62 1.249 . S
O47 Dy41 2.275 . S
O47 C63 1.254 . S
O48 Dy40 2.339 . S
O48 C63 1.257 . S
O49 Dy41 2.307 . S
O49 C64 1.266 . S
O50 Dy40 2.298 . S
O50 C64 1.236 . S
O51 Dy41 2.395 . S
O51 C71 1.255 . S
O52 Dy41 2.379 . S
O52 C71 1.249 . S
C53 O43 1.266 . S
C53 O44 1.236 . S
O54 Dy40 2.275 . S
O54 C42 1.254 . S
O55 Dy41 2.339 . S
O55 C42 1.257 . S
C56 C59 1.344 . S
C56 C60 1.328 . S
C56 C62 1.516 . S
C57 C58 1.304 . S
C57 C61 1.323 . S
C58 C57 1.304 . S
C58 C59 1.371 . S
C58 H72 0.930 . S
C59 C56 1.344 . S
C59 C58 1.371 . S
C59 H73 0.931 . S
C60 C56 1.328 . S
C60 C61 1.433 . S
C60 H74 0.931 . S
C61 C57 1.323 . S
C61 C60 1.433 . S
C61 H75 0.933 . S
C62 Dy40 2.738 . S
C62 O45 1.255 . S
C62 O46 1.249 . S
C62 C56 1.516 . S
C63 O47 1.254 . S
C63 O48 1.257 . S
C64 O49 1.266 . S
C64 O50 1.236 . S
C65 C68 1.344 . S
C65 C69 1.328 . S
C65 C71 1.516 . S
C66 C67 1.304 . S
C66 C70 1.323 . S
C67 C66 1.304 . S
C67 C68 1.371 . S
C67 H76 0.930 . S
C68 C65 1.344 . S
C68 C67 1.371 . S
C68 H77 0.931 . S
C69 C65 1.328 . S
C69 C70 1.433 . S
C69 H78 0.931 . S
C70 C66 1.323 . S
C70 C69 1.433 . S
C70 H79 0.933 . S
C71 Dy41 2.738 . S
C71 O51 1.255 . S
C71 O52 1.249 . S
C71 C65 1.516 . S
H72 C58 0.930 . S
H73 C59 0.931 . S
H74 C60 0.931 . S
H75 C61 0.933 . S
H76 C67 0.930 . S
H77 C68 0.931 . S
H78 C69 0.931 . S
H79 C70 0.933 . S
Dy80 O83 2.307 . S
Dy80 O85 2.395 . S
Dy80 O86 2.379 . S
Dy80 O88 2.339 . S
Dy80 O90 2.298 . S
Dy80 O94 2.275 . S
Dy80 C102 2.738 . S
Dy81 O84 2.298 . S
Dy81 O87 2.275 . S
Dy81 O89 2.307 . S
Dy81 O91 2.395 . S
Dy81 O92 2.379 . S
Dy81 O95 2.339 . S
Dy81 C111 2.738 . S
C82 O94 1.254 . S
C82 O95 1.257 . S
O83 Dy80 2.307 . S
O83 C93 1.266 . S
O84 Dy81 2.298 . S
O84 C93 1.236 . S
O85 Dy80 2.395 . S
O85 C102 1.255 . S
O86 Dy80 2.379 . S
O86 C102 1.249 . S
O87 Dy81 2.275 . S
O87 C103 1.254 . S
O88 Dy80 2.339 . S
O88 C103 1.257 . S
O89 Dy81 2.307 . S
O89 C104 1.266 . S
O90 Dy80 2.298 . S
O90 C104 1.236 . S
O91 Dy81 2.395 . S
O91 C111 1.255 . S
O92 Dy81 2.379 . S
O92 C111 1.249 . S
C93 O83 1.266 . S
C93 O84 1.236 . S
O94 Dy80 2.275 . S
O94 C82 1.254 . S
O95 Dy81 2.339 . S
O95 C82 1.257 . S
C96 C99 1.344 . S
C96 C100 1.328 . S
C96 C102 1.516 . S
C97 C98 1.304 . S
C97 C101 1.323 . S
C98 C97 1.304 . S
C98 C99 1.371 . S
C98 H112 0.930 . S
C99 C96 1.344 . S
C99 C98 1.371 . S
C99 H113 0.931 . S
C100 C96 1.328 . S
C100 C101 1.433 . S
C100 H114 0.931 . S
C101 C97 1.323 . S
C101 C100 1.433 . S
C101 H115 0.933 . S
C102 Dy80 2.738 . S
C102 O85 1.255 . S
C102 O86 1.249 . S
C102 C96 1.516 . S
C103 O87 1.254 . S
C103 O88 1.257 . S
C104 O89 1.266 . S
C104 O90 1.236 . S
C105 C108 1.344 . S
C105 C109 1.328 . S
C105 C111 1.516 . S
C106 C107 1.304 . S
C106 C110 1.323 . S
C107 C106 1.304 . S
C107 C108 1.371 . S
C107 H116 0.930 . S
C108 C105 1.344 . S
C108 C107 1.371 . S
C108 H117 0.931 . S
C109 C105 1.328 . S
C109 C110 1.433 . S
C109 H118 0.931 . S
C110 C106 1.323 . S
C110 C109 1.433 . S
C110 H119 0.933 . S
C111 Dy81 2.738 . S
C111 O91 1.255 . S
C111 O92 1.249 . S
C111 C105 1.516 . S
H112 C98 0.930 . S
H113 C99 0.931 . S
H114 C100 0.931 . S
H115 C101 0.933 . S
H116 C107 0.930 . S
H117 C108 0.931 . S
H118 C109 0.931 . S
H119 C110 0.933 . S
Dy120 O123 2.307 . S
Dy120 O125 2.395 . S
Dy120 O126 2.379 . S
Dy120 O128 2.339 . S
Dy120 O130 2.298 . S
Dy120 O134 2.275 . S
Dy120 C142 2.738 . S
Dy121 O124 2.298 . S
Dy121 O127 2.275 . S
Dy121 O129 2.307 . S
Dy121 O131 2.395 . S
Dy121 O132 2.379 . S
Dy121 O135 2.339 . S
Dy121 C151 2.738 . S
C122 O134 1.254 . S
C122 O135 1.257 . S
O123 Dy120 2.307 . S
O123 C133 1.266 . S
O124 Dy121 2.298 . S
O124 C133 1.236 . S
O125 Dy120 2.395 . S
O125 C142 1.255 . S
O126 Dy120 2.379 . S
O126 C142 1.249 . S
O127 Dy121 2.275 . S
O127 C143 1.254 . S
O128 Dy120 2.339 . S
O128 C143 1.257 . S
O129 Dy121 2.307 . S
O129 C144 1.266 . S
O130 Dy120 2.298 . S
O130 C144 1.236 . S
O131 Dy121 2.395 . S
O131 C151 1.255 . S
O132 Dy121 2.379 . S
O132 C151 1.249 . S
C133 O123 1.266 . S
C133 O124 1.236 . S
O134 Dy120 2.275 . S
O134 C122 1.254 . S
O135 Dy121 2.339 . S
O135 C122 1.257 . S
C136 C139 1.344 . S
C136 C140 1.328 . S
C136 C142 1.516 . S
C137 C138 1.304 . S
C137 C141 1.323 . S
C138 C137 1.304 . S
C138 C139 1.371 . S
C138 H152 0.930 . S
C139 C136 1.344 . S
C139 C138 1.371 . S
C139 H153 0.931 . S
C140 C136 1.328 . S
C140 C141 1.433 . S
C140 H154 0.931 . S
C141 C137 1.323 . S
C141 C140 1.433 . S
C141 H155 0.933 . S
C142 Dy120 2.738 . S
C142 O125 1.255 . S
C142 O126 1.249 . S
C142 C136 1.516 . S
C143 O127 1.254 . S
C143 O128 1.257 . S
C144 O129 1.266 . S
C144 O130 1.236 . S
C145 C148 1.344 . S
C145 C149 1.328 . S
C145 C151 1.516 . S
C146 C147 1.304 . S
C146 C150 1.323 . S
C147 C146 1.304 . S
C147 C148 1.371 . S
C147 H156 0.930 . S
C148 C145 1.344 . S
C148 C147 1.371 . S
C148 H157 0.931 . S
C149 C145 1.328 . S
C149 C150 1.433 . S
C149 H158 0.931 . S
C150 C146 1.323 . S
C150 C149 1.433 . S
C150 H159 0.933 . S
C151 Dy121 2.738 . S
C151 O131 1.255 . S
C151 O132 1.249 . S
C151 C145 1.516 . S
H152 C138 0.930 . S
H153 C139 0.931 . S
H154 C140 0.931 . S
H155 C141 0.933 . S
H156 C147 0.930 . S
H157 C148 0.931 . S
H158 C149 0.931 . S
H159 C150 0.933 . S
Dy160 O163 2.307 . S
Dy160 O165 2.395 1_556 S
Dy160 O166 2.379 1_556 S
Dy160 O168 2.339 . S
Dy160 O170 2.298 1_556 S
Dy160 O174 2.275 . S
Dy160 C182 2.738 1_556 S
Dy161 O164 2.298 1_554 S
Dy161 O167 2.275 . S
Dy161 O169 2.307 . S
Dy161 O171 2.395 1_554 S
Dy161 O172 2.379 1_554 S
Dy161 O175 2.339 . S
Dy161 C191 2.738 1_554 S
C162 O174 1.254 1_554 S
C162 O175 1.257 . S
O163 Dy160 2.307 . S
O163 C173 1.266 . S
O164 Dy161 2.298 1_556 S
O164 C173 1.236 . S
O165 Dy160 2.395 1_554 S
O165 C182 1.255 . S
O166 Dy160 2.379 1_554 S
O166 C182 1.249 . S
O167 Dy161 2.275 . S
O167 C183 1.254 1_554 S
O168 Dy160 2.339 . S
O168 C183 1.257 . S
O169 Dy161 2.307 . S
O169 C184 1.266 . S
O170 Dy160 2.298 1_554 S
O170 C184 1.236 . S
O171 Dy161 2.395 1_556 S
O171 C191 1.255 . S
O172 Dy161 2.379 1_556 S
O172 C191 1.249 . S
C173 O163 1.266 . S
C173 O164 1.236 . S
O174 Dy160 2.275 . S
O174 C162 1.254 1_556 S
O175 Dy161 2.339 . S
O175 C162 1.257 . S
C176 C179 1.344 . S
C176 C180 1.328 . S
C176 C182 1.516 . S
C177 C178 1.304 . S
C177 C181 1.323 . S
C178 C177 1.304 . S
C178 C179 1.371 . S
C178 H192 0.930 . S
C179 C176 1.344 . S
C179 C178 1.371 . S
C179 H193 0.931 . S
C180 C176 1.328 . S
C180 C181 1.433 . S
C180 H194 0.931 . S
C181 C177 1.323 . S
C181 C180 1.433 . S
C181 H195 0.933 . S
C182 Dy160 2.738 1_554 S
C182 O165 1.255 . S
C182 O166 1.249 . S
C182 C176 1.516 . S
C183 O167 1.254 1_556 S
C183 O168 1.257 . S
C184 O169 1.266 . S
C184 O170 1.236 . S
C185 C188 1.344 . S
C185 C189 1.328 . S
C185 C191 1.516 . S
C186 C187 1.304 . S
C186 C190 1.323 . S
C187 C186 1.304 . S
C187 C188 1.371 . S
C187 H196 0.930 . S
C188 C185 1.344 . S
C188 C187 1.371 . S
C188 H197 0.931 . S
C189 C185 1.328 . S
C189 C190 1.433 . S
C189 H198 0.931 . S
C190 C186 1.323 . S
C190 C189 1.433 . S
C190 H199 0.933 . S
C191 Dy161 2.738 1_556 S
C191 O171 1.255 . S
C191 O172 1.249 . S
C191 C185 1.516 . S
H192 C178 0.930 . S
H193 C179 0.931 . S
H194 C180 0.931 . S
H195 C181 0.933 . S
H196 C187 0.930 . S
H197 C188 0.931 . S
H198 C189 0.931 . S
H199 C190 0.933 . S
Dy200 O203 2.307 . S
Dy200 O205 2.395 1_556 S
Dy200 O206 2.379 1_556 S
Dy200 O208 2.339 . S
Dy200 O210 2.298 1_556 S
Dy200 O214 2.275 . S
Dy200 C222 2.738 1_556 S
Dy201 O204 2.298 1_554 S
Dy201 O207 2.275 . S
Dy201 O209 2.307 . S
Dy201 O211 2.395 1_554 S
Dy201 O212 2.379 1_554 S
Dy201 O215 2.339 . S
Dy201 C231 2.738 1_554 S
C202 O214 1.254 1_554 S
C202 O215 1.257 . S
O203 Dy200 2.307 . S
O203 C213 1.266 . S
O204 Dy201 2.298 1_556 S
O204 C213 1.236 . S
O205 Dy200 2.395 1_554 S
O205 C222 1.255 . S
O206 Dy200 2.379 1_554 S
O206 C222 1.249 . S
O207 Dy201 2.275 . S
O207 C223 1.254 1_554 S
O208 Dy200 2.339 . S
O208 C223 1.257 . S
O209 Dy201 2.307 . S
O209 C224 1.266 . S
O210 Dy200 2.298 1_554 S
O210 C224 1.236 . S
O211 Dy201 2.395 1_556 S
O211 C231 1.255 . S
O212 Dy201 2.379 1_556 S
O212 C231 1.249 . S
C213 O203 1.266 . S
C213 O204 1.236 . S
O214 Dy200 2.275 . S
O214 C202 1.254 1_556 S
O215 Dy201 2.339 . S
O215 C202 1.257 . S
C216 C219 1.344 . S
C216 C220 1.328 . S
C216 C222 1.516 . S
C217 C218 1.304 . S
C217 C221 1.323 . S
C218 C217 1.304 . S
C218 C219 1.371 . S
C218 H232 0.930 . S
C219 C216 1.344 . S
C219 C218 1.371 . S
C219 H233 0.931 . S
C220 C216 1.328 . S
C220 C221 1.433 . S
C220 H234 0.931 . S
C221 C217 1.323 . S
C221 C220 1.433 . S
C221 H235 0.933 . S
C222 Dy200 2.738 1_554 S
C222 O205 1.255 . S
C222 O206 1.249 . S
C222 C216 1.516 . S
C223 O207 1.254 1_556 S
C223 O208 1.257 . S
C224 O209 1.266 . S
C224 O210 1.236 . S
C225 C228 1.344 . S
C225 C229 1.328 . S
C225 C231 1.516 . S
C226 C227 1.304 . S
C226 C230 1.323 . S
C227 C226 1.304 . S
C227 C228 1.371 . S
C227 H236 0.930 . S
C228 C225 1.344 . S
C228 C227 1.371 . S
C228 H237 0.931 . S
C229 C225 1.328 . S
C229 C230 1.433 . S
C229 H238 0.931 . S
C230 C226 1.323 . S
C230 C229 1.433 . S
C230 H239 0.933 . S
C231 Dy201 2.738 1_556 S
C231 O211 1.255 . S
C231 O212 1.249 . S
C231 C225 1.516 . S
H232 C218 0.930 . S
H233 C219 0.931 . S
H234 C220 0.931 . S
H235 C221 0.933 . S
H236 C227 0.930 . S
H237 C228 0.931 . S
H238 C229 0.931 . S
H239 C230 0.933 . S
Dy240 O243 2.307 . S
Dy240 O245 2.395 1_554 S
Dy240 O246 2.379 1_554 S
Dy240 O248 2.339 . S
Dy240 O250 2.298 1_554 S
Dy240 O254 2.275 . S
Dy240 C262 2.738 1_554 S
Dy241 O244 2.298 1_556 S
Dy241 O247 2.275 . S
Dy241 O249 2.307 . S
Dy241 O251 2.395 1_556 S
Dy241 O252 2.379 1_556 S
Dy241 O255 2.339 . S
Dy241 C271 2.738 1_556 S
C242 O254 1.254 1_556 S
C242 O255 1.257 . S
O243 Dy240 2.307 . S
O243 C253 1.266 . S
O244 Dy241 2.298 1_554 S
O244 C253 1.236 . S
O245 Dy240 2.395 1_556 S
O245 C262 1.255 . S
O246 Dy240 2.379 1_556 S
O246 C262 1.249 . S
O247 Dy241 2.275 . S
O247 C263 1.254 1_556 S
O248 Dy240 2.339 . S
O248 C263 1.257 . S
O249 Dy241 2.307 . S
O249 C264 1.266 . S
O250 Dy240 2.298 1_556 S
O250 C264 1.236 . S
O251 Dy241 2.395 1_554 S
O251 C271 1.255 . S
O252 Dy241 2.379 1_554 S
O252 C271 1.249 . S
C253 O243 1.266 . S
C253 O244 1.236 . S
O254 Dy240 2.275 . S
O254 C242 1.254 1_554 S
O255 Dy241 2.339 . S
O255 C242 1.257 . S
C256 C259 1.344 . S
C256 C260 1.328 . S
C256 C262 1.516 . S
C257 C258 1.304 . S
C257 C261 1.323 . S
C258 C257 1.304 . S
C258 C259 1.371 . S
C258 H272 0.930 . S
C259 C256 1.344 . S
C259 C258 1.371 . S
C259 H273 0.931 . S
C260 C256 1.328 . S
C260 C261 1.433 . S
C260 H274 0.931 . S
C261 C257 1.323 . S
C261 C260 1.433 . S
C261 H275 0.933 . S
C262 Dy240 2.738 1_556 S
C262 O245 1.255 . S
C262 O246 1.249 . S
C262 C256 1.516 . S
C263 O247 1.254 1_554 S
C263 O248 1.257 . S
C264 O249 1.266 . S
C264 O250 1.236 . S
C265 C268 1.344 . S
C265 C269 1.328 . S
C265 C271 1.516 . S
C266 C267 1.304 . S
C266 C270 1.323 . S
C267 C266 1.304 . S
C267 C268 1.371 . S
C267 H276 0.930 . S
C268 C265 1.344 . S
C268 C267 1.371 . S
C268 H277 0.931 . S
C269 C265 1.328 . S
C269 C270 1.433 . S
C269 H278 0.931 . S
C270 C266 1.323 . S
C270 C269 1.433 . S
C270 H279 0.933 . S
C271 Dy241 2.738 1_554 S
C271 O251 1.255 . S
C271 O252 1.249 . S
C271 C265 1.516 . S
H272 C258 0.930 . S
H273 C259 0.931 . S
H274 C260 0.931 . S
H275 C261 0.933 . S
H276 C267 0.930 . S
H277 C268 0.931 . S
H278 C269 0.931 . S
H279 C270 0.933 . S
Dy280 O283 2.307 . S
Dy280 O285 2.395 1_554 S
Dy280 O286 2.379 1_554 S
Dy280 O288 2.339 . S
Dy280 O290 2.298 1_554 S
Dy280 O294 2.275 . S
Dy280 C302 2.738 1_554 S
Dy281 O284 2.298 1_556 S
Dy281 O287 2.275 . S
Dy281 O289 2.307 . S
Dy281 O291 2.395 1_556 S
Dy281 O292 2.379 1_556 S
Dy281 O295 2.339 . S
Dy281 C311 2.738 1_556 S
C282 O294 1.254 1_556 S
C282 O295 1.257 . S
O283 Dy280 2.307 . S
O283 C293 1.266 . S
O284 Dy281 2.298 1_554 S
O284 C293 1.236 . S
O285 Dy280 2.395 1_556 S
O285 C302 1.255 . S
O286 Dy280 2.379 1_556 S
O286 C302 1.249 . S
O287 Dy281 2.275 . S
O287 C303 1.254 1_556 S
O288 Dy280 2.339 . S
O288 C303 1.257 . S
O289 Dy281 2.307 . S
O289 C304 1.266 . S
O290 Dy280 2.298 1_556 S
O290 C304 1.236 . S
O291 Dy281 2.395 1_554 S
O291 C311 1.255 . S
O292 Dy281 2.379 1_554 S
O292 C311 1.249 . S
C293 O283 1.266 . S
C293 O284 1.236 . S
O294 Dy280 2.275 . S
O294 C282 1.254 1_554 S
O295 Dy281 2.339 . S
O295 C282 1.257 . S
C296 C299 1.344 . S
C296 C300 1.328 . S
C296 C302 1.516 . S
C297 C298 1.304 . S
C297 C301 1.323 . S
C298 C297 1.304 . S
C298 C299 1.371 . S
C298 H312 0.930 . S
C299 C296 1.344 . S
C299 C298 1.371 . S
C299 H313 0.931 . S
C300 C296 1.328 . S
C300 C301 1.433 . S
C300 H314 0.931 . S
C301 C297 1.323 . S
C301 C300 1.433 . S
C301 H315 0.933 . S
C302 Dy280 2.738 1_556 S
C302 O285 1.255 . S
C302 O286 1.249 . S
C302 C296 1.516 . S
C303 O287 1.254 1_554 S
C303 O288 1.257 . S
C304 O289 1.266 . S
C304 O290 1.236 . S
C305 C308 1.344 . S
C305 C309 1.328 . S
C305 C311 1.516 . S
C306 C307 1.304 . S
C306 C310 1.323 . S
C307 C306 1.304 . S
C307 C308 1.371 . S
C307 H316 0.930 . S
C308 C305 1.344 . S
C308 C307 1.371 . S
C308 H317 0.931 . S
C309 C305 1.328 . S
C309 C310 1.433 . S
C309 H318 0.931 . S
C310 C306 1.323 . S
C310 C309 1.433 . S
C310 H319 0.933 . S
C311 Dy281 2.738 1_554 S
C311 O291 1.255 . S
C311 O292 1.249 . S
C311 C305 1.516 . S
H312 C298 0.930 . S
H313 C299 0.931 . S
H314 C300 0.931 . S
H315 C301 0.933 . S
H316 C307 0.930 . S
H317 C308 0.931 . S
H318 C309 0.931 . S
H319 C310 0.933 . S
H320 C332 0.930 . S
H321 C334 0.930 . S
H322 C335 0.930 . S
H323 C339 0.959 . S
H324 C339 0.959 . S
H325 C339 0.961 . S
H326 C340 0.960 . S
H327 C340 0.961 . S
H328 C340 0.959 . S
H329 C343 0.929 . S
H330 C344 0.931 . S
H331 C346 0.930 . S
C332 H320 0.930 . S
C332 C333 1.399 . S
C332 C337 1.399 . S
C333 C332 1.399 . S
C333 C334 1.376 . S
C334 H321 0.930 . S
C334 C333 1.376 . S
C334 C335 1.388 . S
C335 H322 0.930 . S
C335 C334 1.388 . S
C335 C336 1.390 . S
C336 C335 1.390 . S
C336 C337 1.394 . S
C336 C342 1.465 . S
C337 C332 1.399 . S
C337 C336 1.394 . S
C337 C338 1.516 . S
C338 C337 1.516 . S
C338 C339 1.502 . S
C338 C340 1.561 . S
C338 C341 1.526 . S
C339 H323 0.959 . S
C339 H324 0.959 . S
C339 H325 0.961 . S
C339 C338 1.502 . S
C340 H326 0.960 . S
C340 H327 0.961 . S
C340 H328 0.959 . S
C340 C338 1.561 . S
C341 C338 1.526 . S
C341 C342 1.396 . S
C341 C346 1.390 . S
C342 C336 1.465 . S
C342 C341 1.396 . S
C342 C343 1.399 . S
C343 H329 0.929 . S
C343 C342 1.399 . S
C343 C344 1.385 . S
C344 H330 0.931 . S
C344 C343 1.385 . S
C344 C345 1.389 . S
C345 C344 1.389 . S
C345 C346 1.387 . S
C346 H331 0.930 . S
C346 C341 1.390 . S
C346 C345 1.387 . S
H347 C359 0.930 . S
H348 C361 0.930 . S
H349 C362 0.930 . S
H350 C366 0.959 . S
H351 C366 0.959 . S
H352 C366 0.961 . S
H353 C367 0.960 . S
H354 C367 0.961 . S
H355 C367 0.959 . S
H356 C370 0.929 . S
H357 C371 0.931 . S
H358 C373 0.930 . S
C359 H347 0.930 . S
C359 C360 1.399 . S
C359 C364 1.399 . S
C360 C359 1.399 . S
C360 C361 1.376 . S
C361 H348 0.930 . S
C361 C360 1.376 . S
C361 C362 1.388 . S
C362 H349 0.930 . S
C362 C361 1.388 . S
C362 C363 1.390 . S
C363 C362 1.390 . S
C363 C364 1.394 . S
C363 C369 1.465 . S
C364 C359 1.399 . S
C364 C363 1.394 . S
C364 C365 1.516 . S
C365 C364 1.516 . S
C365 C366 1.502 . S
C365 C367 1.561 . S
C365 C368 1.526 . S
C366 H350 0.959 . S
C366 H351 0.959 . S
C366 H352 0.961 . S
C366 C365 1.502 . S
C367 H353 0.960 . S
C367 H354 0.961 . S
C367 H355 0.959 . S
C367 C365 1.561 . S
C368 C365 1.526 . S
C368 C369 1.396 . S
C368 C373 1.390 . S
C369 C363 1.465 . S
C369 C368 1.396 . S
C369 C370 1.399 . S
C370 H356 0.929 . S
C370 C369 1.399 . S
C370 C371 1.385 . S
C371 H357 0.931 . S
C371 C370 1.385 . S
C371 C372 1.389 . S
C372 C371 1.389 . S
C372 C373 1.387 . S
C373 H358 0.930 . S
C373 C368 1.390 . S
C373 C372 1.387 . S
H374 C386 0.930 . S
H375 C388 0.930 . S
H376 C389 0.930 . S
H377 C393 0.959 . S
H378 C393 0.959 . S
H379 C393 0.961 . S
H380 C394 0.960 . S
H381 C394 0.961 . S
H382 C394 0.959 . S
H383 C397 0.929 . S
H384 C398 0.931 . S
H385 C400 0.930 . S
C386 H374 0.930 . S
C386 C387 1.399 . S
C386 C391 1.399 . S
C387 C386 1.399 . S
C387 C388 1.376 . S
C388 H375 0.930 . S
C388 C387 1.376 . S
C388 C389 1.388 . S
C389 H376 0.930 . S
C389 C388 1.388 . S
C389 C390 1.390 . S
C390 C389 1.390 . S
C390 C391 1.394 . S
C390 C396 1.465 . S
C391 C386 1.399 . S
C391 C390 1.394 . S
C391 C392 1.516 . S
C392 C391 1.516 . S
C392 C393 1.502 . S
C392 C394 1.561 . S
C392 C395 1.526 . S
C393 H377 0.959 . S
C393 H378 0.959 . S
C393 H379 0.961 . S
C393 C392 1.502 . S
C394 H380 0.960 . S
C394 H381 0.961 . S
C394 H382 0.959 . S
C394 C392 1.561 . S
C395 C392 1.526 . S
C395 C396 1.396 . S
C395 C400 1.390 . S
C396 C390 1.465 . S
C396 C395 1.396 . S
C396 C397 1.399 . S
C397 H383 0.929 . S
C397 C396 1.399 . S
C397 C398 1.385 . S
C398 H384 0.931 . S
C398 C397 1.385 . S
C398 C399 1.389 . S
C399 C398 1.389 . S
C399 C400 1.387 . S
C400 H385 0.930 . S
C400 C395 1.390 . S
C400 C399 1.387 . S
H401 C413 0.930 . S
H402 C415 0.930 . S
H403 C416 0.930 . S
H404 C420 0.959 . S
H405 C420 0.959 . S
H406 C420 0.961 . S
H407 C421 0.960 . S
H408 C421 0.961 . S
H409 C421 0.959 . S
H410 C424 0.929 . S
H411 C425 0.931 . S
H412 C427 0.930 . S
C413 H401 0.930 . S
C413 C414 1.399 . S
C413 C418 1.399 . S
C414 C413 1.399 . S
C414 C415 1.376 . S
C415 H402 0.930 . S
C415 C414 1.376 . S
C415 C416 1.388 . S
C416 H403 0.930 . S
C416 C415 1.388 . S
C416 C417 1.390 . S
C417 C416 1.390 . S
C417 C418 1.394 . S
C417 C423 1.465 . S
C418 C413 1.399 . S
C418 C417 1.394 . S
C418 C419 1.516 . S
C419 C418 1.516 . S
C419 C420 1.502 . S
C419 C421 1.561 . S
C419 C422 1.526 . S
C420 H404 0.959 . S
C420 H405 0.959 . S
C420 H406 0.961 . S
C420 C419 1.502 . S
C421 H407 0.960 . S
C421 H408 0.961 . S
C421 H409 0.959 . S
C421 C419 1.561 . S
C422 C419 1.526 . S
C422 C423 1.396 . S
C422 C427 1.390 . S
C423 C417 1.465 . S
C423 C422 1.396 . S
C423 C424 1.399 . S
C424 H410 0.929 . S
C424 C423 1.399 . S
C424 C425 1.385 . S
C425 H411 0.931 . S
C425 C424 1.385 . S
C425 C426 1.389 . S
C426 C425 1.389 . S
C426 C427 1.387 . S
C427 H412 0.930 . S
C427 C422 1.390 . S
C427 C426 1.387 . S
H428 C440 0.930 . S
H429 C442 0.930 . S
H430 C443 0.930 . S
H431 C447 0.959 . S
H432 C447 0.959 . S
H433 C447 0.961 1_565 S
H434 C448 0.960 . S
H435 C448 0.961 1_545 S
H436 C448 0.959 . S
H437 C451 0.929 . S
H438 C452 0.931 . S
H439 C454 0.930 . S
C440 H428 0.930 . S
C440 C441 1.399 . S
C440 C445 1.399 . S
C441 C440 1.399 . S
C441 C442 1.376 . S
C442 H429 0.930 . S
C442 C441 1.376 . S
C442 C443 1.388 . S
C443 H430 0.930 . S
C443 C442 1.388 . S
C443 C444 1.390 . S
C444 C443 1.390 . S
C444 C445 1.394 . S
C444 C450 1.465 1_565 S
C445 C440 1.399 . S
C445 C444 1.394 . S
C445 C446 1.516 1_565 S
C446 C445 1.516 1_545 S
C446 C447 1.502 . S
C446 C448 1.561 1_545 S
C446 C449 1.526 . S
C447 H431 0.959 . S
C447 H432 0.959 . S
C447 H433 0.961 1_545 S
C447 C446 1.502 . S
C448 H434 0.960 . S
C448 H435 0.961 1_565 S
C448 H436 0.959 . S
C448 C446 1.561 1_565 S
C449 C446 1.526 . S
C449 C450 1.396 . S
C449 C454 1.390 . S
C450 C444 1.465 1_545 S
C450 C449 1.396 . S
C450 C451 1.399 . S
C451 H437 0.929 . S
C451 C450 1.399 . S
C451 C452 1.385 . S
C452 H438 0.931 . S
C452 C451 1.385 . S
C452 C453 1.389 . S
C453 C452 1.389 . S
C453 C454 1.387 . S
C454 H439 0.930 . S
C454 C449 1.390 . S
C454 C453 1.387 . S
H455 C467 0.930 . S
H456 C469 0.930 . S
H457 C470 0.930 . S
H458 C474 0.959 . S
H459 C474 0.959 . S
H460 C474 0.961 . S
H461 C475 0.960 . S
H462 C475 0.961 . S
H463 C475 0.959 . S
H464 C478 0.929 . S
H465 C479 0.931 . S
H466 C481 0.930 . S
C467 H455 0.930 . S
C467 C468 1.399 . S
C467 C472 1.399 . S
C468 C467 1.399 . S
C468 C469 1.376 . S
C469 H456 0.930 . S
C469 C468 1.376 . S
C469 C470 1.388 . S
C470 H457 0.930 . S
C470 C469 1.388 . S
C470 C471 1.390 . S
C471 C470 1.390 . S
C471 C472 1.394 . S
C471 C477 1.465 . S
C472 C467 1.399 . S
C472 C471 1.394 . S
C472 C473 1.516 . S
C473 C472 1.516 . S
C473 C474 1.502 . S
C473 C475 1.561 . S
C473 C476 1.526 . S
C474 H458 0.959 . S
C474 H459 0.959 . S
C474 H460 0.961 . S
C474 C473 1.502 . S
C475 H461 0.960 . S
C475 H462 0.961 . S
C475 H463 0.959 . S
C475 C473 1.561 . S
C476 C473 1.526 . S
C476 C477 1.396 . S
C476 C481 1.390 . S
C477 C471 1.465 . S
C477 C476 1.396 . S
C477 C478 1.399 . S
C478 H464 0.929 . S
C478 C477 1.399 . S
C478 C479 1.385 . S
C479 H465 0.931 . S
C479 C478 1.385 . S
C479 C480 1.389 . S
C480 C479 1.389 . S
C480 C481 1.387 . S
C481 H466 0.930 . S
C481 C476 1.390 . S
C481 C480 1.387 . S
H482 C494 0.930 . S
H483 C496 0.930 . S
H484 C497 0.930 . S
H485 C501 0.959 . S
H486 C501 0.959 1_545 S
H487 C501 0.961 . S
H488 C502 0.960 . S
H489 C502 0.961 1_545 S
H490 C502 0.959 . S
H491 C505 0.929 . S
H492 C506 0.931 . S
H493 C508 0.930 . S
C494 H482 0.930 . S
C494 C495 1.399 . S
C494 C499 1.399 . S
C495 C494 1.399 . S
C495 C496 1.376 . S
C496 H483 0.930 . S
C496 C495 1.376 . S
C496 C497 1.388 . S
C497 H484 0.930 . S
C497 C496 1.388 . S
C497 C498 1.390 . S
C498 C497 1.390 . S
C498 C499 1.394 . S
C498 C504 1.465 1_565 S
C499 C494 1.399 . S
C499 C498 1.394 . S
C499 C500 1.516 . S
C500 C499 1.516 . S
C500 C501 1.502 . S
C500 C502 1.561 . S
C500 C503 1.526 1_565 S
C501 H485 0.959 . S
C501 H486 0.959 1_565 S
C501 H487 0.961 . S
C501 C500 1.502 . S
C502 H488 0.960 . S
C502 H489 0.961 1_565 S
C502 H490 0.959 . S
C502 C500 1.561 . S
C503 C500 1.526 1_545 S
C503 C504 1.396 . S
C503 C508 1.390 . S
C504 C498 1.465 1_545 S
C504 C503 1.396 . S
C504 C505 1.399 . S
C505 H491 0.929 . S
C505 C504 1.399 . S
C505 C506 1.385 . S
C506 H492 0.931 . S
C506 C505 1.385 . S
C506 C507 1.389 . S
C507 C506 1.389 . S
C507 C508 1.387 . S
C508 H493 0.930 . S
C508 C503 1.390 . S
C508 C507 1.387 . S
H509 C521 0.930 . S
H510 C523 0.930 . S
H511 C524 0.930 . S
H512 C528 0.959 . S
H513 C528 0.959 . S
H514 C528 0.961 . S
H515 C529 0.960 . S
H516 C529 0.961 . S
H517 C529 0.959 . S
H518 C532 0.929 . S
H519 C533 0.931 . S
H520 C535 0.930 . S
C521 H509 0.930 . S
C521 C522 1.399 . S
C521 C526 1.399 . S
C522 C521 1.399 . S
C522 C523 1.376 . S
C523 H510 0.930 . S
C523 C522 1.376 . S
C523 C524 1.388 . S
C524 H511 0.930 . S
C524 C523 1.388 . S
C524 C525 1.390 . S
C525 C524 1.390 . S
C525 C526 1.394 . S
C525 C531 1.465 . S
C526 C521 1.399 . S
C526 C525 1.394 . S
C526 C527 1.516 . S
C527 C526 1.516 . S
C527 C528 1.502 . S
C527 C529 1.561 . S
C527 C530 1.526 . S
C528 H512 0.959 . S
C528 H513 0.959 . S
C528 H514 0.961 . S
C528 C527 1.502 . S
C529 H515 0.960 . S
C529 H516 0.961 . S
C529 H517 0.959 . S
C529 C527 1.561 . S
C530 C527 1.526 . S
C530 C531 1.396 . S
C530 C535 1.390 . S
C531 C525 1.465 . S
C531 C530 1.396 . S
C531 C532 1.399 . S
C532 H518 0.929 . S
C532 C531 1.399 . S
C532 C533 1.385 . S
C533 H519 0.931 . S
C533 C532 1.385 . S
C533 C534 1.389 . S
C534 C533 1.389 . S
C534 C535 1.387 . S
C535 H520 0.930 . S
C535 C530 1.390 . S
C535 C534 1.387 . S
H536 C548 0.930 . S
H537 C550 0.930 . S
H538 C551 0.930 . S
H539 C555 0.959 . S
H540 C555 0.959 . S
H541 C555 0.961 . S
H542 C556 0.960 . S
H543 C556 0.961 . S
H544 C556 0.959 . S
H545 C559 0.929 . S
H546 C560 0.931 . S
H547 C562 0.930 . S
C548 H536 0.930 . S
C548 C549 1.399 1_556 S
C548 C553 1.399 . S
C549 C548 1.399 1_554 S
C549 C550 1.376 . S
C550 H537 0.930 . S
C550 C549 1.376 . S
C550 C551 1.388 . S
C551 H538 0.930 . S
C551 C550 1.388 . S
C551 C552 1.390 . S
C552 C551 1.390 . S
C552 C553 1.394 1_554 S
C552 C558 1.465 . S
C553 C548 1.399 . S
C553 C552 1.394 1_556 S
C553 C554 1.516 . S
C554 C553 1.516 . S
C554 C555 1.502 . S
C554 C556 1.561 . S
C554 C557 1.526 . S
C555 H539 0.959 . S
C555 H540 0.959 . S
C555 H541 0.961 . S
C555 C554 1.502 . S
C556 H542 0.960 . S
C556 H543 0.961 . S
C556 H544 0.959 . S
C556 C554 1.561 . S
C557 C554 1.526 . S
C557 C558 1.396 1_556 S
C557 C562 1.390 . S
C558 C552 1.465 . S
C558 C557 1.396 1_554 S
C558 C559 1.399 . S
C559 H545 0.929 . S
C559 C558 1.399 . S
C559 C560 1.385 . S
C560 H546 0.931 . S
C560 C559 1.385 . S
C560 C561 1.389 1_554 S
C561 C560 1.389 1_556 S
C561 C562 1.387 . S
C562 H547 0.930 . S
C562 C557 1.390 . S
C562 C561 1.387 . S
H563 C575 0.930 . S
H564 C577 0.930 . S
H565 C578 0.930 . S
H566 C582 0.959 . S
H567 C582 0.959 1_545 S
H568 C582 0.961 . S
H569 C583 0.961 1_565 S
H570 C583 0.960 . S
H571 C583 0.959 1_554 S
H572 C586 0.929 . S
H573 C587 0.931 . S
H574 C589 0.930 . S
C575 H563 0.930 . S
C575 C576 1.399 1_556 S
C575 C580 1.399 . S
C576 C575 1.399 1_554 S
C576 C577 1.376 . S
C577 H564 0.930 . S
C577 C576 1.376 . S
C577 C578 1.388 . S
C578 H565 0.930 . S
C578 C577 1.388 . S
C578 C579 1.390 . S
C579 C578 1.390 . S
C579 C580 1.394 1_554 S
C579 C585 1.465 1_565 S
C580 C575 1.399 . S
C580 C579 1.394 1_556 S
C580 C581 1.516 . S
C581 C580 1.516 . S
C581 C582 1.502 . S
C581 C583 1.561 1_565 S
C581 C584 1.526 1_565 S
C582 H566 0.959 . S
C582 H567 0.959 1_565 S
C582 H568 0.961 . S
C582 C581 1.502 . S
C583 H569 0.961 1_545 S
C583 H570 0.960 . S
C583 H571 0.959 1_556 S
C583 C581 1.561 1_545 S
C584 C581 1.526 1_545 S
C584 C585 1.396 1_556 S
C584 C589 1.390 . S
C585 C579 1.465 1_545 S
C585 C584 1.396 1_554 S
C585 C586 1.399 . S
C586 H572 0.929 . S
C586 C585 1.399 . S
C586 C587 1.385 . S
C587 H573 0.931 . S
C587 C586 1.385 . S
C587 C588 1.389 1_554 S
C588 C587 1.389 1_556 S
C588 C589 1.387 . S
C589 H574 0.930 . S
C589 C584 1.390 . S
C589 C588 1.387 . S
H590 C602 0.930 . S
H591 C604 0.930 . S
H592 C605 0.930 . S
H593 C609 0.959 . S
H594 C609 0.959 . S
H595 C609 0.961 . S
H596 C610 0.960 . S
H597 C610 0.961 . S
H598 C610 0.959 . S
H599 C613 0.929 . S
H600 C614 0.931 . S
H601 C616 0.930 . S
C602 H590 0.930 . S
C602 C603 1.399 . S
C602 C607 1.399 . S
C603 C602 1.399 . S
C603 C604 1.376 1_554 S
C604 H591 0.930 . S
C604 C603 1.376 1_556 S
C604 C605 1.388 . S
C605 H592 0.930 . S
C605 C604 1.388 . S
C605 C606 1.390 . S
C606 C605 1.390 . S
C606 C607 1.394 1_556 S
C606 C612 1.465 . S
C607 C602 1.399 . S
C607 C606 1.394 1_554 S
C607 C608 1.516 . S
C608 C607 1.516 . S
C608 C609 1.502 . S
C608 C610 1.561 . S
C608 C611 1.526 . S
C609 H593 0.959 . S
C609 H594 0.959 . S
C609 H595 0.961 . S
C609 C608 1.502 . S
C610 H596 0.960 . S
C610 H597 0.961 . S
C610 H598 0.959 . S
C610 C608 1.561 . S
C611 C608 1.526 . S
C611 C612 1.396 1_554 S
C611 C616 1.390 . S
C612 C606 1.465 . S
C612 C611 1.396 1_556 S
C612 C613 1.399 . S
C613 H599 0.929 . S
C613 C612 1.399 . S
C613 C614 1.385 . S
C614 H600 0.931 . S
C614 C613 1.385 . S
C614 C615 1.389 . S
C615 C614 1.389 . S
C615 C616 1.387 1_556 S
C616 H601 0.930 . S
C616 C611 1.390 . S
C616 C615 1.387 1_554 S
H617 C629 0.930 . S
H618 C631 0.930 . S
H619 C632 0.930 . S
H620 C636 0.959 1_565 S
H621 C636 0.959 1_565 S
H622 C636 0.961 . S
H623 C637 0.960 . S
H624 C637 0.961 1_565 S
H625 C637 0.961 . S
H626 C640 0.929 . S
H627 C641 0.931 . S
H628 C643 0.930 . S
C629 H617 0.930 . S
C629 C630 1.399 1_556 S
C629 C634 1.399 . S
C630 C629 1.399 1_554 S
C630 C631 1.376 . S
C631 H618 0.930 . S
C631 C630 1.376 . S
C631 C632 1.388 . S
C632 H619 0.930 . S
C632 C631 1.388 . S
C632 C633 1.390 . S
C633 C632 1.390 . S
C633 C634 1.394 1_554 S
C633 C639 1.465 1_545 S
C634 C629 1.399 . S
C634 C633 1.394 1_556 S
C634 C635 1.516 . S
C635 C634 1.516 . S
C635 C636 1.502 . S
C635 C637 1.561 . S
C635 C638 1.526 1_545 S
C636 H620 0.959 1_545 S
C636 H621 0.959 1_545 S
C636 H622 0.961 . S
C636 C635 1.502 . S
C637 H623 0.960 . S
C637 H624 0.961 1_545 S
C637 H625 0.961 . S
C637 C635 1.561 . S
C638 C635 1.526 1_565 S
C638 C639 1.396 1_556 S
C638 C643 1.390 . S
C639 C633 1.465 1_565 S
C639 C638 1.396 1_554 S
C639 C640 1.399 . S
C640 H626 0.929 . S
C640 C639 1.399 . S
C640 C641 1.385 . S
C641 H627 0.931 . S
C641 C640 1.385 . S
C641 C642 1.389 1_554 S
C642 C641 1.389 1_556 S
C642 C643 1.387 . S
C643 H628 0.930 . S
C643 C638 1.390 . S
C643 C642 1.387 . S
H644 C656 0.930 . S
H645 C658 0.930 . S
H646 C659 0.930 . S
H647 C663 0.959 . S
H648 C663 0.959 . S
H649 C663 0.961 . S
H650 C664 0.960 . S
H651 C664 0.961 . S
H652 C664 0.959 . S
H653 C667 0.929 . S
H654 C668 0.931 . S
H655 C670 0.930 . S
C656 H644 0.930 . S
C656 C657 1.399 . S
C656 C661 1.399 . S
C657 C656 1.399 . S
C657 C658 1.376 . S
C658 H645 0.930 . S
C658 C657 1.376 . S
C658 C659 1.388 . S
C659 H646 0.930 . S
C659 C658 1.388 . S
C659 C660 1.390 . S
C660 C659 1.390 . S
C660 C661 1.394 . S
C660 C666 1.465 1_554 S
C661 C656 1.399 . S
C661 C660 1.394 . S
C661 C662 1.516 1_554 S
C662 C661 1.516 1_556 S
C662 C663 1.502 . S
C662 C664 1.561 . S
C662 C665 1.526 . S
C663 H647 0.959 . S
C663 H648 0.959 . S
C663 H649 0.961 . S
C663 C662 1.502 . S
C664 H650 0.960 . S
C664 H651 0.961 . S
C664 H652 0.959 . S
C664 C662 1.561 . S
C665 C662 1.526 . S
C665 C666 1.396 . S
C665 C670 1.390 . S
C666 C660 1.465 1_556 S
C666 C665 1.396 . S
C666 C667 1.399 . S
C667 H653 0.929 . S
C667 C666 1.399 . S
C667 C668 1.385 . S
C668 H654 0.931 . S
C668 C667 1.385 . S
C668 C669 1.389 . S
C669 C668 1.389 . S
C669 C670 1.387 . S
C670 H655 0.930 . S
C670 C665 1.390 . S
C670 C669 1.387 . S
H671 C683 0.930 . S
H672 C685 0.930 . S
H673 C686 0.930 . S
H674 C690 0.959 . S
H675 C690 0.959 . S
H676 C690 0.961 1_554 S
H677 C691 0.960 1_554 S
H678 C691 0.961 . S
H679 C691 0.959 . S
H680 C694 0.929 . S
H681 C695 0.931 . S
H682 C697 0.930 . S
C683 H671 0.930 . S
C683 C684 1.399 . S
C683 C688 1.399 . S
C684 C683 1.399 . S
C684 C685 1.376 . S
C685 H672 0.930 . S
C685 C684 1.376 . S
C685 C686 1.388 . S
C686 H673 0.930 . S
C686 C685 1.388 . S
C686 C687 1.390 1_554 S
C687 C686 1.390 1_556 S
C687 C688 1.394 1_556 S
C687 C693 1.465 . S
C688 C683 1.399 . S
C688 C687 1.394 1_554 S
C688 C689 1.516 1_554 S
C689 C688 1.516 1_556 S
C689 C690 1.502 . S
C689 C691 1.561 . S
C689 C692 1.526 . S
C690 H674 0.959 . S
C690 H675 0.959 . S
C690 H676 0.961 1_556 S
C690 C689 1.502 . S
C691 H677 0.960 1_556 S
C691 H678 0.961 . S
C691 H679 0.959 . S
C691 C689 1.561 . S
C692 C689 1.526 . S
C692 C693 1.396 . S
C692 C697 1.390 . S
C693 C687 1.465 . S
C693 C692 1.396 . S
C693 C694 1.399 . S
C694 H680 0.929 . S
C694 C693 1.399 . S
C694 C695 1.385 . S
C695 H681 0.931 . S
C695 C694 1.385 . S
C695 C696 1.389 . S
C696 C695 1.389 . S
C696 C697 1.387 . S
C697 H682 0.930 . S
C697 C692 1.390 . S
C697 C696 1.387 . S
H698 C710 0.930 . S
H699 C712 0.930 . S
H700 C713 0.930 . S
H701 C717 0.959 . S
H702 C717 0.959 . S
H703 C717 0.961 . S
H704 C718 0.960 . S
H705 C718 0.961 1_556 S
H706 C718 0.959 . S
H707 C721 0.929 . S
H708 C722 0.931 . S
H709 C724 0.930 . S
C710 H698 0.930 . S
C710 C711 1.399 . S
C710 C715 1.399 . S
C711 C710 1.399 . S
C711 C712 1.376 . S
C712 H699 0.930 . S
C712 C711 1.376 . S
C712 C713 1.388 . S
C713 H700 0.930 . S
C713 C712 1.388 . S
C713 C714 1.390 . S
C714 C713 1.390 . S
C714 C715 1.394 . S
C714 C720 1.465 . S
C715 C710 1.399 . S
C715 C714 1.394 . S
C715 C716 1.516 . S
C716 C715 1.516 . S
C716 C717 1.502 . S
C716 C718 1.561 . S
C716 C719 1.526 1_554 S
C717 H701 0.959 . S
C717 H702 0.959 . S
C717 H703 0.961 . S
C717 C716 1.502 . S
C718 H704 0.960 . S
C718 H705 0.961 1_554 S
C718 H706 0.959 . S
C718 C716 1.561 . S
C719 C716 1.526 1_556 S
C719 C720 1.396 1_556 S
C719 C724 1.390 . S
C720 C714 1.465 . S
C720 C719 1.396 1_554 S
C720 C721 1.399 1_554 S
C721 H707 0.929 . S
C721 C720 1.399 1_556 S
C721 C722 1.385 . S
C722 H708 0.931 . S
C722 C721 1.385 . S
C722 C723 1.389 . S
C723 C722 1.389 . S
C723 C724 1.387 . S
C724 H709 0.930 . S
C724 C719 1.390 . S
C724 C723 1.387 . S
H725 C737 0.930 . S
H726 C739 0.930 . S
H727 C740 0.930 . S
H728 C744 0.959 . S
H729 C744 0.959 . S
H730 C744 0.961 . S
H731 C745 0.957 1_556 S
H732 C745 0.961 . S
H733 C745 0.959 . S
H734 C748 0.929 . S
H735 C749 0.931 . S
H736 C751 0.930 . S
C737 H725 0.930 . S
C737 C738 1.399 . S
C737 C742 1.399 . S
C738 C737 1.399 . S
C738 C739 1.376 . S
C739 H726 0.930 . S
C739 C738 1.376 . S
C739 C740 1.388 . S
C740 H727 0.930 . S
C740 C739 1.388 . S
C740 C741 1.390 . S
C741 C740 1.390 . S
C741 C742 1.394 . S
C741 C747 1.465 1_556 S
C742 C737 1.399 . S
C742 C741 1.394 . S
C742 C743 1.516 1_556 S
C743 C742 1.516 1_554 S
C743 C744 1.502 . S
C743 C745 1.561 . S
C743 C746 1.526 . S
C744 H728 0.959 . S
C744 H729 0.959 . S
C744 H730 0.961 . S
C744 C743 1.502 . S
C745 H731 0.957 1_554 S
C745 H732 0.961 . S
C745 H733 0.959 . S
C745 C743 1.561 . S
C746 C743 1.526 . S
C746 C747 1.396 . S
C746 C751 1.390 . S
C747 C741 1.465 1_554 S
C747 C746 1.396 . S
C747 C748 1.399 . S
C748 H734 0.929 . S
C748 C747 1.399 . S
C748 C749 1.385 . S
C749 H735 0.931 . S
C749 C748 1.385 . S
C749 C750 1.389 . S
C750 C749 1.389 . S
C750 C751 1.387 . S
C751 H736 0.930 . S
C751 C746 1.390 . S
C751 C750 1.387 . S
H752 C764 0.930 . S
H753 C766 0.930 . S
H754 C767 0.930 . S
H755 C771 0.959 . S
H756 C771 0.959 . S
H757 C771 0.961 . S
H758 C772 0.960 . S
H759 C772 0.961 . S
H760 C772 0.959 . S
H761 C775 0.929 . S
H762 C776 0.931 . S
H763 C778 0.930 . S
C764 H752 0.930 . S
C764 C765 1.399 . S
C764 C769 1.399 . S
C765 C764 1.399 . S
C765 C766 1.376 . S
C766 H753 0.930 . S
C766 C765 1.376 . S
C766 C767 1.388 . S
C767 H754 0.930 . S
C767 C766 1.388 . S
C767 C768 1.390 . S
C768 C767 1.390 . S
C768 C769 1.394 . S
C768 C774 1.465 . S
C769 C764 1.399 . S
C769 C768 1.394 . S
C769 C770 1.516 . S
C770 C769 1.516 . S
C770 C771 1.502 . S
C770 C772 1.561 . S
C770 C773 1.526 . S
C771 H755 0.959 . S
C771 H756 0.959 . S
C771 H757 0.961 . S
C771 C770 1.502 . S
C772 H758 0.960 . S
C772 H759 0.961 . S
C772 H760 0.959 . S
C772 C770 1.561 . S
C773 C770 1.526 . S
C773 C774 1.396 . S
C773 C778 1.390 . S
C774 C768 1.465 . S
C774 C773 1.396 . S
C774 C775 1.399 . S
C775 H761 0.929 . S
C775 C774 1.399 . S
C775 C776 1.385 . S
C776 H762 0.931 . S
C776 C775 1.385 . S
C776 C777 1.389 . S
C777 C776 1.389 . S
C777 C778 1.387 . S
C778 H763 0.930 . S
C778 C773 1.390 . S
C778 C777 1.387 . S
H779 C791 0.930 . S
H780 C793 0.930 . S
H781 C794 0.930 . S
H782 C798 0.959 . S
H783 C798 0.959 . S
H784 C798 0.961 . S
H785 C799 0.960 . S
H786 C799 0.961 . S
H787 C799 0.959 . S
H788 C802 0.929 . S
H789 C803 0.931 . S
H790 C805 0.930 . S
C791 H779 0.930 . S
C791 C792 1.399 . S
C791 C796 1.399 . S
C792 C791 1.399 . S
C792 C793 1.376 . S
C793 H780 0.930 . S
C793 C792 1.376 . S
C793 C794 1.388 . S
C794 H781 0.930 . S
C794 C793 1.388 . S
C794 C795 1.390 . S
C795 C794 1.390 . S
C795 C796 1.394 . S
C795 C801 1.465 . S
C796 C791 1.399 . S
C796 C795 1.394 . S
C796 C797 1.516 . S
C797 C796 1.516 . S
C797 C798 1.502 . S
C797 C799 1.561 . S
C797 C800 1.526 . S
C798 H782 0.959 . S
C798 H783 0.959 . S
C798 H784 0.961 . S
C798 C797 1.502 . S
C799 H785 0.960 . S
C799 H786 0.961 . S
C799 H787 0.959 . S
C799 C797 1.561 . S
C800 C797 1.526 . S
C800 C801 1.396 . S
C800 C805 1.390 . S
C801 C795 1.465 . S
C801 C800 1.396 . S
C801 C802 1.399 . S
C802 H788 0.929 . S
C802 C801 1.399 . S
C802 C803 1.385 . S
C803 H789 0.931 . S
C803 C802 1.385 . S
C803 C804 1.389 . S
C804 C803 1.389 . S
C804 C805 1.387 . S
C805 H790 0.930 . S
C805 C800 1.390 . S
C805 C804 1.387 . S
H806 C818 0.930 . S
H807 C820 0.930 . S
H808 C821 0.930 . S
H809 C825 0.959 . S
H810 C825 0.959 . S
H811 C825 0.961 . S
H812 C826 0.960 . S
H813 C826 0.961 . S
H814 C826 0.959 . S
H815 C829 0.929 . S
H816 C830 0.931 . S
H817 C832 0.930 . S
C818 H806 0.930 . S
C818 C819 1.399 . S
C818 C823 1.399 . S
C819 C818 1.399 . S
C819 C820 1.376 . S
C820 H807 0.930 . S
C820 C819 1.376 . S
C820 C821 1.388 . S
C821 H808 0.930 . S
C821 C820 1.388 . S
C821 C822 1.390 . S
C822 C821 1.390 . S
C822 C823 1.394 . S
C822 C828 1.465 . S
C823 C818 1.399 . S
C823 C822 1.394 . S
C823 C824 1.516 . S
C824 C823 1.516 . S
C824 C825 1.502 . S
C824 C826 1.561 . S
C824 C827 1.526 . S
C825 H809 0.959 . S
C825 H810 0.959 . S
C825 H811 0.961 . S
C825 C824 1.502 . S
C826 H812 0.960 . S
C826 H813 0.961 . S
C826 H814 0.959 . S
C826 C824 1.561 . S
C827 C824 1.526 . S
C827 C828 1.396 . S
C827 C832 1.390 . S
C828 C822 1.465 . S
C828 C827 1.396 . S
C828 C829 1.399 . S
C829 H815 0.929 . S
C829 C828 1.399 . S
C829 C830 1.385 . S
C830 H816 0.931 . S
C830 C829 1.385 . S
C830 C831 1.389 . S
C831 C830 1.389 . S
C831 C832 1.387 . S
C832 H817 0.930 . S
C832 C827 1.390 . S
C832 C831 1.387 . S
H833 C845 0.930 . S
H834 C847 0.930 . S
H835 C848 0.930 . S
H836 C852 0.959 . S
H837 C852 0.959 . S
H838 C852 0.961 . S
H839 C853 0.960 . S
H840 C853 0.961 . S
H841 C853 0.959 . S
H842 C856 0.929 . S
H843 C857 0.931 . S
H844 C859 0.930 . S
C845 H833 0.930 . S
C845 C846 1.399 . S
C845 C850 1.399 . S
C846 C845 1.399 . S
C846 C847 1.376 . S
C847 H834 0.930 . S
C847 C846 1.376 . S
C847 C848 1.388 . S
C848 H835 0.930 . S
C848 C847 1.388 . S
C848 C849 1.390 . S
C849 C848 1.390 . S
C849 C850 1.394 . S
C849 C855 1.465 . S
C850 C845 1.399 . S
C850 C849 1.394 . S
C850 C851 1.516 . S
C851 C850 1.516 . S
C851 C852 1.502 . S
C851 C853 1.561 . S
C851 C854 1.526 . S
C852 H836 0.959 . S
C852 H837 0.959 . S
C852 H838 0.961 . S
C852 C851 1.502 . S
C853 H839 0.960 . S
C853 H840 0.961 . S
C853 H841 0.959 . S
C853 C851 1.561 . S
C854 C851 1.526 . S
C854 C855 1.396 . S
C854 C859 1.390 . S
C855 C849 1.465 . S
C855 C854 1.396 . S
C855 C856 1.399 . S
C856 H842 0.929 . S
C856 C855 1.399 . S
C856 C857 1.385 . S
C857 H843 0.931 . S
C857 C856 1.385 . S
C857 C858 1.389 . S
C858 C857 1.389 . S
C858 C859 1.387 . S
C859 H844 0.930 . S
C859 C854 1.390 . S
C859 C858 1.387 . S
H860 C872 0.930 . S
H861 C874 0.930 . S
H862 C875 0.930 . S
H863 C879 0.959 . S
H864 C879 0.959 . S
H865 C879 0.961 1_455 S
H866 C880 0.974 . S
H867 C880 0.948 1_655 S
H868 C880 0.959 . S
H869 C883 0.929 . S
H870 C884 0.931 . S
H871 C886 0.930 . S
C872 H860 0.930 . S
C872 C873 1.399 . S
C872 C877 1.399 . S
C873 C872 1.399 . S
C873 C874 1.376 . S
C874 H861 0.930 . S
C874 C873 1.376 . S
C874 C875 1.388 . S
C875 H862 0.930 . S
C875 C874 1.388 . S
C875 C876 1.390 . S
C876 C875 1.390 . S
C876 C877 1.394 . S
C876 C882 1.465 1_455 S
C877 C872 1.399 . S
C877 C876 1.394 . S
C877 C878 1.496 1_455 S
C878 C877 1.496 1_655 S
C878 C879 1.504 . S
C878 C880 1.560 1_655 S
C878 C881 1.545 . S
C879 H863 0.959 . S
C879 H864 0.959 . S
C879 H865 0.961 1_655 S
C879 C878 1.504 . S
C880 H866 0.974 . S
C880 H867 0.948 1_455 S
C880 H868 0.959 . S
C880 C878 1.560 1_455 S
C881 C878 1.545 . S
C881 C882 1.396 . S
C881 C886 1.390 . S
C882 C876 1.465 1_655 S
C882 C881 1.396 . S
C882 C883 1.399 . S
C883 H869 0.929 . S
C883 C882 1.399 . S
C883 C884 1.385 . S
C884 H870 0.931 . S
C884 C883 1.385 . S
C884 C885 1.389 . S
C885 C884 1.389 . S
C885 C886 1.387 . S
C886 H871 0.930 . S
C886 C881 1.390 . S
C886 C885 1.387 . S
H887 C899 0.930 . S
H888 C901 0.930 . S
H889 C902 0.930 . S
H890 C906 0.959 . S
H891 C906 0.897 1_455 S
H892 C906 1.033 . S
H893 C907 0.929 1_655 S
H894 C907 0.989 . S
H895 C907 0.965 . S
H896 C910 0.929 . S
H897 C911 0.931 . S
H898 C913 0.930 . S
C899 H887 0.930 . S
C899 C900 1.399 . S
C899 C904 1.399 . S
C900 C899 1.399 . S
C900 C901 1.376 . S
C901 H888 0.930 . S
C901 C900 1.376 . S
C901 C902 1.388 . S
C902 H889 0.930 . S
C902 C901 1.388 . S
C902 C903 1.390 . S
C903 C902 1.390 . S
C903 C904 1.394 . S
C903 C909 1.465 1_655 S
C904 C899 1.399 . S
C904 C903 1.394 . S
C904 C905 1.527 . S
C905 C904 1.527 . S
C905 C906 1.500 . S
C905 C907 1.560 1_655 S
C905 C908 1.514 1_655 S
C906 H890 0.959 . S
C906 H891 0.897 1_655 S
C906 H892 1.033 . S
C906 C905 1.500 . S
C907 H893 0.929 1_455 S
C907 H894 0.989 . S
C907 H895 0.965 . S
C907 C905 1.560 1_455 S
C908 C905 1.514 1_455 S
C908 C909 1.396 . S
C908 C913 1.390 . S
C909 C903 1.465 1_455 S
C909 C908 1.396 . S
C909 C910 1.399 . S
C910 H896 0.929 . S
C910 C909 1.399 . S
C910 C911 1.385 . S
C911 H897 0.931 . S
C911 C910 1.385 . S
C911 C912 1.389 . S
C912 C911 1.389 . S
C912 C913 1.387 . S
C913 H898 0.930 . S
C913 C908 1.390 . S
C913 C912 1.387 . S
H914 C926 0.930 . S
H915 C928 0.930 . S
H916 C929 0.930 . S
H917 C933 0.959 . S
H918 C933 0.959 . S
H919 C933 0.961 . S
H920 C934 0.960 . S
H921 C934 0.961 . S
H922 C934 0.959 . S
H923 C937 0.929 . S
H924 C938 0.931 . S
H925 C940 0.930 . S
C926 H914 0.930 . S
C926 C927 1.399 . S
C926 C931 1.399 . S
C927 C926 1.399 . S
C927 C928 1.376 . S
C928 H915 0.930 . S
C928 C927 1.376 . S
C928 C929 1.388 . S
C929 H916 0.930 . S
C929 C928 1.388 . S
C929 C930 1.390 . S
C930 C929 1.390 . S
C930 C931 1.394 . S
C930 C936 1.465 . S
C931 C926 1.399 . S
C931 C930 1.394 . S
C931 C932 1.516 . S
C932 C931 1.516 . S
C932 C933 1.502 . S
C932 C934 1.561 . S
C932 C935 1.526 . S
C933 H917 0.959 . S
C933 H918 0.959 . S
C933 H919 0.961 . S
C933 C932 1.502 . S
C934 H920 0.960 . S
C934 H921 0.961 . S
C934 H922 0.959 . S
C934 C932 1.561 . S
C935 C932 1.526 . S
C935 C936 1.396 . S
C935 C940 1.390 . S
C936 C930 1.465 . S
C936 C935 1.396 . S
C936 C937 1.399 . S
C937 H923 0.929 . S
C937 C936 1.399 . S
C937 C938 1.385 . S
C938 H924 0.931 . S
C938 C937 1.385 . S
C938 C939 1.389 . S
C939 C938 1.389 . S
C939 C940 1.387 . S
C940 H925 0.930 . S
C940 C935 1.390 . S
C940 C939 1.387 . S
H941 C953 0.930 . S
H942 C955 0.930 . S
H943 C956 0.930 . S
H944 C960 0.959 . S
H945 C960 0.959 . S
H946 C960 0.961 . S
H947 C961 0.960 1_556 S
H948 C961 0.961 1_556 S
H949 C961 0.959 . S
H950 C964 0.929 . S
H951 C965 0.931 . S
H952 C967 0.930 . S
C953 H941 0.930 . S
C953 C954 1.399 . S
C953 C958 1.399 . S
C954 C953 1.399 . S
C954 C955 1.376 . S
C955 H942 0.930 . S
C955 C954 1.376 . S
C955 C956 1.388 . S
C956 H943 0.930 . S
C956 C955 1.388 . S
C956 C957 1.390 . S
C957 C956 1.390 . S
C957 C958 1.394 . S
C957 C963 1.465 . S
C958 C953 1.399 . S
C958 C957 1.394 . S
C958 C959 1.516 . S
C959 C958 1.516 . S
C959 C960 1.502 . S
C959 C961 1.561 . S
C959 C962 1.526 . S
C960 H944 0.959 . S
C960 H945 0.959 . S
C960 H946 0.961 . S
C960 C959 1.502 . S
C961 H947 0.960 1_554 S
C961 H948 0.961 1_554 S
C961 H949 0.959 . S
C961 C959 1.561 . S
C962 C959 1.526 . S
C962 C963 1.396 . S
C962 C967 1.390 . S
C963 C957 1.465 . S
C963 C962 1.396 . S
C963 C964 1.399 . S
C964 H950 0.929 . S
C964 C963 1.399 . S
C964 C965 1.385 . S
C965 H951 0.931 . S
C965 C964 1.385 . S
C965 C966 1.389 . S
C966 C965 1.389 . S
C966 C967 1.387 . S
C967 H952 0.930 . S
C967 C962 1.390 . S
C967 C966 1.387 . S
C333 C17 1.650 . S
C345 C297 1.650 . S
C360 C257 1.650 . S
C372 C57 1.649 . S
C387 C217 1.650 . S
C399 C97 1.650 . S
C414 C177 1.649 . S
C426 C137 1.650 . S
C441 C82 1.051 . S
C453 C2 1.046 . S
C468 C42 1.108 . S
C480 C122 1.101 . S
C495 C143 1.934 . S
C507 C63 1.919 . S
C522 C103 1.919 . S
C534 C23 1.917 . S
C549 C162 1.064 . S
C561 C242 1.019 . S
C576 C202 1.032 . S
C588 C282 0.996 . S
C603 C303 1.891 . S
C615 C223 1.897 . S
C630 C263 1.859 . S
C642 C183 1.854 . S
C657 C13 1.861 . S
C669 C24 1.903 . S
C684 C53 1.904 . S
C696 C64 1.865 . S
C711 C104 1.886 . S
C723 C93 1.887 . S
C738 C133 1.862 . S
C750 C144 1.902 . S
C765 C184 1.884 . S
C777 C173 1.889 . S
C792 C213 1.862 . S
C804 C224 1.901 . S
C819 C253 1.880 . S
C831 C264 1.879 . S
C846 C293 1.898 . S
C858 C304 1.864 . S
C873 C26 2.123 . S
C885 C66 2.124 . S
C900 C146 2.146 . S
C912 C106 2.145 . S
C927 C186 2.124 . S
C939 C226 2.125 . S
C954 C306 2.146 . S
C966 C266 2.146 . S
