# Generated by pormake.
# Topology uou, (4)-cn, num edge types: 1
# Building blocks:
#     Node 0, Type 0, BuildingBlock: QUQFOY_clean_sbu_1, # of connection points: 4
#     Node 1, Type 0, BuildingBlock: QUQFOY_clean_sbu_1, # of connection points: 4
#     Node 2, Type 0, BuildingBlock: QUQFOY_clean_sbu_1, # of connection points: 4
#     Node 3, Type 0, BuildingBlock: QUQFOY_clean_sbu_1, # of connection points: 4
#     Node 4, Type 0, BuildingBlock: QUQFOY_clean_sbu_1, # of connection points: 4
#     Node 5, Type 0, BuildingBlock: QUQFOY_clean_sbu_1, # of connection points: 4
#     Node 6, Type 0, BuildingBlock: QUQFOY_clean_sbu_1, # of connection points: 4
#     Node 7, Type 0, BuildingBlock: QUQFOY_clean_sbu_1, # of connection points: 4
#     Node 8, Type 0, BuildingBlock: QUQFOY_clean_sbu_1, # of connection points: 4
#     Node 9, Type 0, BuildingBlock: QUQFOY_clean_sbu_1, # of connection points: 4
#     Node 10, Type 0, BuildingBlock: QUQFOY_clean_sbu_1, # of connection points: 4
#     Node 11, Type 0, BuildingBlock: QUQFOY_clean_sbu_1, # of connection points: 4
#     Node 12, Type 0, BuildingBlock: QUQFOY_clean_sbu_1, # of connection points: 4
#     Node 13, Type 0, BuildingBlock: QUQFOY_clean_sbu_1, # of connection points: 4
#     Node 14, Type 0, BuildingBlock: QUQFOY_clean_sbu_1, # of connection points: 4
#     Node 15, Type 0, BuildingBlock: QUQFOY_clean_sbu_1, # of connection points: 4
#     Edge 16, Type (0, 0), BuildingBlock: TEMPAE_clean_linker_10, # of connection points: 2
#     Edge 17, Type (0, 0), BuildingBlock: TEMPAE_clean_linker_10, # of connection points: 2
#     Edge 18, Type (0, 0), BuildingBlock: TEMPAE_clean_linker_10, # of connection points: 2
#     Edge 19, Type (0, 0), BuildingBlock: TEMPAE_clean_linker_10, # of connection points: 2
#     Edge 20, Type (0, 0), BuildingBlock: TEMPAE_clean_linker_10, # of connection points: 2
#     Edge 21, Type (0, 0), BuildingBlock: TEMPAE_clean_linker_10, # of connection points: 2
#     Edge 22, Type (0, 0), BuildingBlock: TEMPAE_clean_linker_10, # of connection points: 2
#     Edge 23, Type (0, 0), BuildingBlock: TEMPAE_clean_linker_10, # of connection points: 2
#     Edge 24, Type (0, 0), BuildingBlock: TEMPAE_clean_linker_10, # of connection points: 2
#     Edge 25, Type (0, 0), BuildingBlock: TEMPAE_clean_linker_10, # of connection points: 2
#     Edge 26, Type (0, 0), BuildingBlock: TEMPAE_clean_linker_10, # of connection points: 2
#     Edge 27, Type (0, 0), BuildingBlock: TEMPAE_clean_linker_10, # of connection points: 2
#     Edge 28, Type (0, 0), BuildingBlock: TEMPAE_clean_linker_10, # of connection points: 2
#     Edge 29, Type (0, 0), BuildingBlock: TEMPAE_clean_linker_10, # of connection points: 2
#     Edge 30, Type (0, 0), BuildingBlock: TEMPAE_clean_linker_10, # of connection points: 2
#     Edge 31, Type (0, 0), BuildingBlock: TEMPAE_clean_linker_10, # of connection points: 2
#     Edge 32, Type (0, 0), BuildingBlock: TEMPAE_clean_linker_10, # of connection points: 2
#     Edge 33, Type (0, 0), BuildingBlock: TEMPAE_clean_linker_10, # of connection points: 2
#     Edge 34, Type (0, 0), BuildingBlock: TEMPAE_clean_linker_10, # of connection points: 2
#     Edge 35, Type (0, 0), BuildingBlock: TEMPAE_clean_linker_10, # of connection points: 2
#     Edge 36, Type (0, 0), BuildingBlock: TEMPAE_clean_linker_10, # of connection points: 2
#     Edge 37, Type (0, 0), BuildingBlock: TEMPAE_clean_linker_10, # of connection points: 2
#     Edge 38, Type (0, 0), BuildingBlock: TEMPAE_clean_linker_10, # of connection points: 2
#     Edge 39, Type (0, 0), BuildingBlock: TEMPAE_clean_linker_10, # of connection points: 2
#     Edge 40, Type (0, 0), BuildingBlock: TEMPAE_clean_linker_10, # of connection points: 2
#     Edge 41, Type (0, 0), BuildingBlock: TEMPAE_clean_linker_10, # of connection points: 2
#     Edge 42, Type (0, 0), BuildingBlock: TEMPAE_clean_linker_10, # of connection points: 2
#     Edge 43, Type (0, 0), BuildingBlock: TEMPAE_clean_linker_10, # of connection points: 2
#     Edge 44, Type (0, 0), BuildingBlock: TEMPAE_clean_linker_10, # of connection points: 2
#     Edge 45, Type (0, 0), BuildingBlock: TEMPAE_clean_linker_10, # of connection points: 2
#     Edge 46, Type (0, 0), BuildingBlock: TEMPAE_clean_linker_10, # of connection points: 2
#     Edge 47, Type (0, 0), BuildingBlock: TEMPAE_clean_linker_10, # of connection points: 2
# Relax obj value: 0.062
# Max RMSD: 0.100
# Mean RMSD: 0.100
data_MOF--net-uou--node1-QUQFOY_clean_sbu_1--edge1-TEMPAE_clean_linker_10
_symmetry_space_group_name_H-M    P1
_symmetry_Int_Tables_number       1
_symmetry_cell_setting            triclinic
loop_
_symmetry_equiv_pos_as_xyz
'x, y, z'
_cell_length_a     42.355414
_cell_length_b     37.75552
_cell_length_c     57.29578
_cell_angle_alpha  90.014486
_cell_angle_beta   89.997003
_cell_angle_gamma 90.008878
loop_
_atom_site_label
_atom_site_type_symbol
_atom_site_fract_x
_atom_site_fract_y
_atom_site_fract_z
_atom_type_partial_charge
O0 O 0.03019 0.09268 0.1328 0.0
Cd1 Cd 0.0447 0.04062 0.13459 0.0
Cd2 Cd 0.09794 0.0691 0.1215 0.0
O3 O 0.07822 0.11484 0.13527 0.0
O4 O 0.01562 0.01581 0.15662 0.0
O5 O 0.06594 0.02696 0.16447 0.0
C6 C 0.03876 0.01529 0.17129 0.0
C7 C 0.14953 0.05043 0.12999 0.0
C8 C 0.04842 0.11909 0.13561 0.0
C9 C 0.06061 0.02816 0.08598 0.0
O10 O 0.08016 0.05316 0.08947 0.0
O11 O 0.04643 0.01394 0.10315 0.0
O12 O 0.14415 0.07692 0.11633 0.0
O13 O 0.12549 0.03533 0.13968 0.0
O14 O 0.48497 0.90048 0.13602 0.0
Cd15 Cd 0.47196 0.95314 0.13528 0.0
Cd16 Cd 0.41936 0.92533 0.11755 0.0
O17 O 0.43801 0.87768 0.12869 0.0
O18 O 0.50104 0.97744 0.15759 0.0
O19 O 0.44988 0.97032 0.16413 0.0
C20 C 0.47726 0.98046 0.17151 0.0
C21 C 0.368 0.94402 0.1266 0.0
C22 C 0.46695 0.8737 0.13405 0.0
C23 C 0.46062 0.9674 0.08518 0.0
O24 O 0.43878 0.94451 0.08711 0.0
O25 O 0.47506 0.97856 0.10323 0.0
O26 O 0.37317 0.91949 0.11138 0.0
O27 O 0.39211 0.95716 0.13739 0.0
O28 O 0.53008 0.90064 0.37816 0.0
Cd29 Cd 0.54299 0.95327 0.3762 0.0
Cd30 Cd 0.59694 0.92683 0.38953 0.0
O31 O 0.57879 0.88047 0.37564 0.0
O32 O 0.51331 0.97699 0.3541 0.0
O33 O 0.56397 0.9678 0.34638 0.0
C34 C 0.53652 0.97857 0.33953 0.0
C35 C 0.64837 0.94616 0.38143 0.0
C36 C 0.54917 0.87503 0.37532 0.0
C37 C 0.55821 0.96666 0.42479 0.0
O38 O 0.57843 0.94228 0.42146 0.0
O39 O 0.54381 0.98026 0.40752 0.0
O40 O 0.64307 0.91979 0.39519 0.0
O41 O 0.62433 0.96092 0.37151 0.0
O42 O 0.98155 0.10024 0.37279 0.0
Cd43 Cd 0.97084 0.0469 0.37444 0.0
Cd44 Cd 0.91771 0.07273 0.39307 0.0
O45 O 0.9344 0.12105 0.38185 0.0
O46 O 1.00101 0.02357 0.35249 0.0
O47 O 0.94957 0.02719 0.34592 0.0
C48 C 0.9774 0.01837 0.3387 0.0
C49 C 0.86655 0.05299 0.38462 0.0
C50 C 0.96277 0.1262 0.37545 0.0
C51 C 0.96123 0.03281 0.42491 0.0
O52 O 0.93834 0.0544 0.42326 0.0
O53 O 0.97579 0.02246 0.40672 0.0
O54 O 0.87167 0.07737 0.39995 0.0
O55 O 0.89062 0.04041 0.37349 0.0
O56 O 0.9491 0.95528 0.92605 0.0
Cd57 Cd 0.92537 0.9311 0.89879 0.0
Cd58 Cd 0.98058 0.9497 0.87539 0.0
O59 O 0.9928 0.97068 0.90747 0.0
O60 O 0.88015 0.92846 0.9087 0.0
O61 O 0.8961 0.96002 0.87845 0.0
C62 C 0.8733 0.94975 0.89184 0.0
C63 C 0.99369 0.97738 0.84019 0.0
C64 C 0.97642 0.96929 0.92608 0.0
C65 C 0.96462 0.87164 0.87991 0.0
O66 O 0.98318 0.89563 0.8727 0.0
O67 O 0.93934 0.87977 0.89064 0.0
O68 O 0.01488 0.96343 0.85341 0.0
O69 O 0.96495 0.978 0.84772 0.0
O70 O 0.57655 0.04417 0.9271 0.0
Cd71 Cd 0.60016 0.06845 0.89986 0.0
Cd72 Cd 0.54493 0.05007 0.87636 0.0
O73 O 0.53263 0.02948 0.90854 0.0
O74 O 0.64546 0.07085 0.90958 0.0
O75 O 0.62919 0.03959 0.87928 0.0
C76 C 0.65212 0.04966 0.89262 0.0
C77 C 0.53125 0.02227 0.84129 0.0
C78 C 0.54907 0.03056 0.92712 0.0
C79 C 0.56109 0.12805 0.88098 0.0
O80 O 0.54265 0.10412 0.87352 0.0
O81 O 0.58617 0.11987 0.89195 0.0
O82 O 0.51031 0.03655 0.85459 0.0
O83 O 0.56005 0.0214 0.84868 0.0
O84 O 0.44715 0.0422 0.58441 0.0
Cd85 Cd 0.42405 0.06707 0.61175 0.0
Cd86 Cd 0.47877 0.04673 0.6349 0.0
O87 O 0.49008 0.02448 0.60307 0.0
O88 O 0.37862 0.07022 0.60225 0.0
O89 O 0.39476 0.03848 0.63234 0.0
C90 C 0.37185 0.04886 0.6191 0.0
C91 C 0.49126 0.01967 0.67044 0.0
C92 C 0.47387 0.02678 0.58444 0.0
C93 C 0.46543 0.12535 0.62983 0.0
O94 O 0.48346 0.10066 0.63673 0.0
O95 O 0.43939 0.11812 0.6198 0.0
O96 O 0.51279 0.0322 0.6569 0.0
O97 O 0.46245 0.02007 0.66306 0.0
O98 O 0.07611 0.95495 0.58333 0.0
Cd99 Cd 0.09852 0.93024 0.611 0.0
Cd100 Cd 0.04412 0.95191 0.63373 0.0
O101 O 0.03334 0.97384 0.60172 0.0
O102 O 0.14409 0.92649 0.602 0.0
O103 O 0.12762 0.95891 0.63169 0.0
C104 C 0.15069 0.94811 0.61874 0.0
C105 C 0.032 0.97957 0.66915 0.0
C106 C 0.04962 0.97086 0.58315 0.0
C107 C 0.05611 0.873 0.62913 0.0
O108 O 0.03843 0.89816 0.6358 0.0
O109 O 0.0824 0.87956 0.61925 0.0
O110 O 1.01029 0.96743 0.65561 0.0
O111 O 0.06082 0.9785 0.66181 0.0
O112 O 0.5401 0.60387 0.14314 0.0
Cd113 Cd 0.54639 0.55011 0.14132 0.0
Cd114 Cd 0.60086 0.56929 0.11914 0.0
O115 O 0.58525 0.62013 0.12708 0.0
O116 O 0.51577 0.52997 0.16424 0.0
O117 O 0.56763 0.52769 0.16901 0.0
C118 C 0.53964 0.52178 0.1771 0.0
C119 C 0.65267 0.55122 0.12749 0.0
C120 C 0.55899 0.62802 0.13657 0.0
C121 C 0.55254 0.52922 0.09099 0.0
O122 O 0.57918 0.54474 0.09117 0.0
O123 O 0.53606 0.52705 0.10949 0.0
O124 O 0.64652 0.57271 0.11059 0.0
O125 O 0.62931 0.54067 0.14024 0.0
O126 O 0.98871 0.39316 0.13584 0.0
Cd127 Cd 0.98054 0.44656 0.13733 0.0
Cd128 Cd 0.92357 0.42794 0.12043 0.0
O129 O 0.93885 0.37775 0.13069 0.0
O130 O 0.01121 0.46689 0.16011 0.0
O131 O 0.95954 0.4649 0.16629 0.0
C132 C 0.98754 0.4724 0.17381 0.0
C133 C 0.87192 0.44697 0.12874 0.0
C134 C 0.96754 0.36948 0.13442 0.0
C135 C 0.96879 0.46706 0.08844 0.0
O136 O 0.94345 0.44916 0.09029 0.0
O137 O 0.98627 0.47232 0.10613 0.0
O138 O 0.87759 0.4234 0.11301 0.0
O139 O 0.89567 0.45912 0.14043 0.0
O140 O 0.03843 0.39654 0.37609 0.0
Cd141 Cd 0.04986 0.44964 0.37783 0.0
Cd142 Cd 0.10237 0.4231 0.39662 0.0
O143 O 0.0854 0.37509 0.38497 0.0
O144 O 0.02083 0.47344 0.35528 0.0
O145 O 0.07237 0.46822 0.34957 0.0
C146 C 0.04495 0.47753 0.34181 0.0
C147 C 0.15345 0.44305 0.38822 0.0
C148 C 0.057 0.37034 0.37849 0.0
C149 C 0.05915 0.46367 0.42831 0.0
O150 O 0.08164 0.44154 0.42676 0.0
O151 O 0.04497 0.47436 0.41004 0.0
O152 O 0.14844 0.41848 0.40343 0.0
O153 O 0.12934 0.45564 0.37716 0.0
O154 O 0.48859 0.5989 0.38286 0.0
Cd155 Cd 0.47556 0.54629 0.38149 0.0
Cd156 Cd 0.42155 0.57284 0.39432 0.0
O157 O 0.43981 0.61868 0.37974 0.0
O158 O 0.50473 0.52189 0.35933 0.0
O159 O 0.45406 0.53176 0.35193 0.0
C160 C 0.48132 0.5206 0.34492 0.0
C161 C 0.37044 0.55276 0.38595 0.0
C162 C 0.46942 0.62427 0.37944 0.0
C163 C 0.45986 0.53384 0.43013 0.0
O164 O 0.43973 0.55821 0.42652 0.0
O165 O 0.47441 0.51993 0.41302 0.0
O166 O 0.37526 0.57962 0.39942 0.0
O167 O 0.39478 0.53794 0.37649 0.0
O168 O 0.44182 0.44368 0.93126 0.0
Cd169 Cd 0.42039 0.42458 0.90146 0.0
Cd170 Cd 0.47338 0.45219 0.88224 0.0
O171 O 0.47915 0.47586 0.91462 0.0
O172 O 0.37442 0.41984 0.90881 0.0
O173 O 0.39274 0.45671 0.88208 0.0
C174 C 0.36891 0.44413 0.8935 0.0
C175 C 0.48488 0.48033 0.84693 0.0
C176 C 0.46473 0.46532 0.93284 0.0
C177 C 0.46561 0.37206 0.88335 0.0
O178 O 0.48339 0.39878 0.88041 0.0
O179 O 0.43728 0.37615 0.89019 0.0
O180 O 0.50685 0.47117 0.86125 0.0
O181 O 0.45592 0.47619 0.85348 0.0
O182 O 0.07514 0.55154 0.92798 0.0
Cd183 Cd 0.09832 0.57065 0.89891 0.0
Cd184 Cd 0.04493 0.54528 0.87827 0.0
O185 O 0.03739 0.52124 0.91032 0.0
O186 O 0.14394 0.5742 0.90761 0.0
O187 O 0.12647 0.53853 0.87988 0.0
C188 C 0.1499 0.55033 0.89209 0.0
C189 C 0.03262 0.51811 0.84275 0.0
C190 C 0.05151 0.5308 0.92889 0.0
C191 C 0.05525 0.62515 0.88049 0.0
O192 O 0.03688 0.59916 0.87676 0.0
O193 O 0.08312 0.61988 0.88796 0.0
O194 O 0.01094 0.52835 0.85698 0.0
O195 O 0.06166 0.5207 0.84944 0.0
O196 O 0.94372 0.54348 0.58611 0.0
Cd197 Cd 0.92082 0.56874 0.61335 0.0
Cd198 Cd 0.97593 0.54887 0.63659 0.0
O199 O 0.98712 0.52684 0.60464 0.0
O200 O 0.87533 0.57181 0.60401 0.0
O201 O 0.89165 0.5405 0.63424 0.0
C202 C 0.86865 0.55072 0.62102 0.0
C203 C 0.98949 0.52198 0.672 0.0
C204 C 0.97066 0.52858 0.58609 0.0
C205 C 0.96215 0.62736 0.63107 0.0
O206 O 0.98008 0.60284 0.63835 0.0
O207 O 0.93627 0.61993 0.62087 0.0
O208 O 0.01056 0.53508 0.65831 0.0
O209 O 0.96056 0.52175 0.66488 0.0
O210 O 0.57076 0.45913 0.58946 0.0
Cd211 Cd 0.59453 0.43331 0.61605 0.0
Cd212 Cd 0.53934 0.45172 0.63998 0.0
O213 O 0.52744 0.47474 0.60848 0.0
O214 O 0.63967 0.43058 0.60572 0.0
O215 O 0.62451 0.46105 0.63665 0.0
C216 C 0.64699 0.45121 0.62283 0.0
C217 C 0.52629 0.47747 0.67588 0.0
C218 C 0.5437 0.47376 0.58981 0.0
C219 C 0.55401 0.3736 0.63328 0.0
O220 O 0.53582 0.39762 0.64095 0.0
O221 O 0.57973 0.38175 0.62309 0.0
O222 O 0.50506 0.4644 0.6623 0.0
O223 O 0.55506 0.47824 0.66843 0.0
C224 C 0.31049 0.94598 0.1165 0.0
C225 C 0.33556 0.95791 0.13047 0.0
C226 C 0.2802 0.96084 0.11841 0.0
C227 C 0.27463 0.9882 0.13482 0.0
C228 C 0.29953 -0.00045 0.14954 0.0
C229 C 0.32973 0.98439 0.14713 0.0
C230 C 0.25441 0.94805 0.10228 0.0
C231 C 0.2945 0.02839 0.16741 0.0
C232 C 0.20708 0.05063 0.11996 0.0
C233 C 0.1821 0.03654 0.13312 0.0
C234 C 0.23745 0.03577 0.12088 0.0
C235 C 0.24321 0.00619 0.13547 0.0
C236 C 0.21842 0.99266 0.14949 0.0
C237 C 0.18814 0.00788 0.14807 0.0
C238 C 0.26312 0.05095 0.10555 0.0
C239 C 0.22365 0.96142 0.16546 0.0
H240 H 0.3147 0.92557 0.10357 0.0
H241 H 0.3489 0.99373 0.15805 0.0
H242 H 0.23349 0.93963 0.11252 0.0
H243 H 0.24678 0.97002 0.09072 0.0
H244 H 0.26217 0.92552 0.0912 0.0
H245 H 0.3155 0.03229 0.17874 0.0
H246 H 0.28922 0.05374 0.15844 0.0
H247 H 0.27388 0.02199 0.17859 0.0
H248 H 0.20272 0.07275 0.10834 0.0
H249 H 0.16904 0.99687 0.15836 0.0
H250 H 0.2706 0.03083 0.09255 0.0
H251 H 0.28414 0.05774 0.11619 0.0
H252 H 0.25527 0.07505 0.09606 0.0
H253 H 0.22878 0.93745 0.15491 0.0
H254 H 0.20279 0.95594 0.17664 0.0
H255 H 0.24442 0.96618 0.17684 0.0
C256 C 0.70589 0.94602 0.39142 0.0
C257 C 0.68088 0.96019 0.37834 0.0
C258 C 0.73626 0.96087 0.39046 0.0
C259 C 0.74195 0.99051 0.37592 0.0
C260 C 0.71713 0.00414 0.36199 0.0
C261 C 0.68685 0.98891 0.36343 0.0
C262 C 0.76198 0.94559 0.40569 0.0
C263 C 0.72231 0.03549 0.3461 0.0
C264 C 0.80919 0.0506 0.39498 0.0
C265 C 0.8342 0.03884 0.3809 0.0
C266 C 0.77892 0.03571 0.39308 0.0
C267 C 0.77333 0.0085 0.37658 0.0
C268 C 0.79819 0.99729 0.36177 0.0
C269 C 0.82837 0.01249 0.36416 0.0
C270 C 0.75316 0.04835 0.4093 0.0
C271 C 0.79311 0.96858 0.34382 0.0
H272 H 0.70158 0.92383 0.40299 0.0
H273 H 0.66772 -3e-05 0.3532 0.0
H274 H 0.78298 0.9389 0.39499 0.0
H275 H 0.7695 0.9656 0.41874 0.0
H276 H 0.75418 0.9214 0.4151 0.0
H277 H 0.7014 0.04105 0.33498 0.0
H278 H 0.72748 0.05939 0.35671 0.0
H279 H 0.74303 0.03081 0.33466 0.0
H280 H 0.8134 0.07094 0.40796 0.0
H281 H 0.8475 0.00331 0.35316 0.0
H282 H 0.74556 0.02628 0.42079 0.0
H283 H 0.73222 0.05685 0.39912 0.0
H284 H 0.76094 0.07079 0.42046 0.0
H285 H 0.78781 0.94317 0.35272 0.0
H286 H 0.81411 0.96473 0.33247 0.0
H287 H 0.7725 0.97507 0.33267 0.0
C288 C 0.81602 0.94931 0.90267 0.0
C289 C 0.84046 0.9629 0.88876 0.0
C290 C 0.78523 0.96298 0.90132 0.0
C291 C 0.77859 0.99114 0.88576 0.0
C292 C 0.80293 0.00436 0.87118 0.0
C293 C 0.83356 0.99004 0.87282 0.0
C294 C 0.76 0.94793 0.91709 0.0
C295 C 0.79686 0.03439 0.85439 0.0
C296 C 0.69163 0.00952 0.87317 0.0
C297 C 0.68489 0.03641 0.88935 0.0
C298 C 0.72221 0.99514 0.87131 0.0
C299 C 0.74667 0.00803 0.88591 0.0
C300 C 0.74019 0.03591 0.90174 0.0
C301 C 0.70945 0.04966 0.9033 0.0
C302 C 0.72812 0.96542 0.85425 0.0
C303 C 0.76555 0.05059 0.91755 0.0
H304 H 0.82102 0.92823 0.91497 0.0
H305 H 0.85226 0.00073 0.862 0.0
H306 H 0.75203 0.96855 0.92958 0.0
H307 H 0.73913 0.93984 0.90668 0.0
H308 H 0.76847 0.92468 0.92718 0.0
H309 H 0.81764 0.04005 0.84316 0.0
H310 H 0.77637 0.02812 0.84306 0.0
H311 H 0.79085 0.05874 0.8643 0.0
H312 H 0.67284 -0.0009 0.86233 0.0
H313 H 0.70457 0.07053 0.91578 0.0
H314 H 0.73421 0.94089 0.86391 0.0
H315 H 0.74851 0.97189 0.84287 0.0
H316 H 0.70724 0.95998 0.84307 0.0
H317 H 0.77361 0.02968 0.92979 0.0
H318 H 0.75716 0.07361 0.92792 0.0
H319 H 0.78633 0.05892 0.90713 0.0
C320 C 0.20817 0.94779 0.60829 0.0
C321 C 0.18353 0.96128 0.62207 0.0
C322 C 0.2389 0.96166 0.60976 0.0
C323 C 0.24532 0.9899 0.62534 0.0
C324 C 0.22079 0.00299 0.6398 0.0
C325 C 0.19022 0.9885 0.63802 0.0
C326 C 0.26431 0.94675 0.5941 0.0
C327 C 0.2266 0.03306 0.65662 0.0
C328 C 0.33217 0.00866 0.63837 0.0
C329 C 0.33901 0.03561 0.62226 0.0
C330 C 0.3016 0.99416 0.64007 0.0
C331 C 0.27722 0.00694 0.62536 0.0
C332 C 0.2838 0.03489 0.6096 0.0
C333 C 0.31453 0.04878 0.60821 0.0
C334 C 0.29562 0.9644 0.65709 0.0
C335 C 0.25855 0.04948 0.59366 0.0
H336 H 0.20335 0.92668 0.59597 0.0
H337 H 0.17138 -0.00086 0.64874 0.0
H338 H 0.27231 0.96742 0.58167 0.0
H339 H 0.28511 0.93874 0.6046 0.0
H340 H 0.256 0.92347 0.58395 0.0
H341 H 0.20571 0.0386 0.66776 0.0
H342 H 0.24703 0.02691 0.66804 0.0
H343 H 0.23258 0.05744 0.64675 0.0
H344 H 0.35089 0.99828 0.6493 0.0
H345 H 0.31946 0.06968 0.59577 0.0
H346 H 0.28971 0.93985 0.64738 0.0
H347 H 0.2751 0.97078 0.66836 0.0
H348 H 0.31641 0.95905 0.66837 0.0
H349 H 0.25066 0.02856 0.58138 0.0
H350 H 0.26697 0.07254 0.58336 0.0
H351 H 0.23765 0.05773 0.60399 0.0
C352 C 0.81428 0.44688 0.11908 0.0
C353 C 0.83938 0.46078 0.1322 0.0
C354 C 0.78383 0.46142 0.12047 0.0
C355 C 0.77816 0.49068 0.13537 0.0
C356 C 0.80311 0.50412 0.14927 0.0
C357 C 0.83343 0.48903 0.14752 0.0
C358 C 0.75794 0.44619 0.10536 0.0
C359 C 0.79803 0.53519 0.16542 0.0
C360 C 0.71002 0.54995 0.11692 0.0
C361 C 0.68531 0.53785 0.13117 0.0
C362 C 0.74052 0.53562 0.11868 0.0
C363 C 0.74664 0.50845 0.1351 0.0
C364 C 0.72209 0.49691 0.15009 0.0
C365 C 0.69172 0.51173 0.14795 0.0
C366 C 0.76597 0.54878 0.10237 0.0
C367 C 0.72765 0.46809 0.16787 0.0
H368 H 0.81855 0.42499 0.10725 0.0
H369 H 0.85263 0.49994 0.15775 0.0
H370 H 0.73713 0.43926 0.1162 0.0
H371 H 0.75016 0.46632 0.09248 0.0
H372 H 0.7657 0.42216 0.09575 0.0
H373 H 0.81908 0.54072 0.17639 0.0
H374 H 0.79256 0.5592 0.15501 0.0
H375 H 0.77752 0.53021 0.177 0.0
H376 H 0.7054 0.57019 0.10396 0.0
H377 H 0.67282 0.50223 0.15906 0.0
H378 H 0.77341 0.52702 0.09056 0.0
H379 H 0.78707 0.5571 0.11244 0.0
H380 H 0.75792 0.57145 0.09154 0.0
H381 H 0.73285 0.44279 0.1588 0.0
H382 H 0.70691 0.46404 0.17944 0.0
H383 H 0.74848 0.47457 0.17881 0.0
C384 C 0.3128 0.55221 0.39555 0.0
C385 C 0.33812 0.53827 0.3827 0.0
C386 C 0.28262 0.53691 0.39445 0.0
C387 C 0.27745 0.50705 0.37998 0.0
C388 C 0.3026 0.49366 0.36626 0.0
C389 C 0.33267 0.50933 0.36786 0.0
C390 C 0.25654 0.55194 0.40946 0.0
C391 C 0.29797 0.46211 0.35044 0.0
C392 C 0.2107 0.44615 0.39882 0.0
C393 C 0.18571 0.45749 0.38458 0.0
C394 C 0.24082 0.46143 0.39705 0.0
C395 C 0.24628 0.48861 0.3805 0.0
C396 C 0.22147 0.49936 0.36551 0.0
C397 C 0.19143 0.48378 0.36779 0.0
C398 C 0.26654 0.44929 0.41346 0.0
C399 C 0.22642 0.52799 0.34749 0.0
H400 H 0.31672 0.57456 0.40707 0.0
H401 H 0.35205 0.49845 0.35779 0.0
H402 H 0.23561 0.55825 0.3986 0.0
H403 H 0.24909 0.53192 0.42252 0.0
H404 H 0.26395 0.5763 0.41885 0.0
H405 H 0.31906 0.45679 0.33946 0.0
H406 H 0.29297 0.43822 0.36109 0.0
H407 H 0.27732 0.4664 0.33886 0.0
H408 H 0.20656 0.42586 0.41184 0.0
H409 H 0.17231 0.49264 0.35666 0.0
H410 H 0.27376 0.47156 0.42492 0.0
H411 H 0.28769 0.44102 0.40343 0.0
H412 H 0.25889 0.42683 0.42464 0.0
H413 H 0.23128 0.55356 0.35634 0.0
H414 H 0.20554 0.53139 0.33598 0.0
H415 H 0.24727 0.52172 0.33652 0.0
C416 C 0.20697 0.54853 0.90353 0.0
C417 C 0.18242 0.53603 0.88927 0.0
C418 C 0.23739 0.53379 0.90239 0.0
C419 C 0.24361 0.50584 0.88655 0.0
C420 C 0.21919 0.49374 0.87163 0.0
C421 C 0.18888 0.50893 0.87319 0.0
C422 C 0.26267 0.5475 0.91865 0.0
C423 C 0.22487 0.46412 0.85444 0.0
C424 C 0.33046 0.48602 0.87449 0.0
C425 C 0.33639 0.45816 0.89011 0.0
C426 C 0.30016 0.50111 0.87258 0.0
C427 C 0.27519 0.48813 0.88666 0.0
C428 C 0.28087 0.45936 0.90195 0.0
C429 C 0.3113 0.44475 0.90347 0.0
C430 C 0.29508 0.53162 0.85598 0.0
C431 C 0.25499 0.44469 0.9173 0.0
H432 H 0.20231 0.56948 0.91599 0.0
H433 H 0.17012 0.49911 0.86207 0.0
H434 H 0.27012 0.52611 0.93073 0.0
H435 H 0.2838 0.55564 0.90854 0.0
H436 H 0.25447 0.57044 0.92917 0.0
H437 H 0.20411 0.45934 0.84301 0.0
H438 H 0.24559 0.47029 0.84332 0.0
H439 H 0.23031 0.43931 0.864 0.0
H440 H 0.34964 0.49654 0.86407 0.0
H441 H 0.31555 0.4232 0.91556 0.0
H442 H 0.28936 0.55593 0.86601 0.0
H443 H 0.27472 0.52609 0.84435 0.0
H444 H 0.31621 0.53694 0.84504 0.0
H445 H 0.2471 0.46532 0.9298 0.0
H446 H 0.26279 0.4211 0.92735 0.0
H447 H 0.23424 0.43722 0.90656 0.0
C448 C 0.70412 0.45093 0.6114 0.0
C449 C 0.67995 0.46425 0.62569 0.0
C450 C 0.73495 0.46458 0.61253 0.0
C451 C 0.74194 0.49248 0.62824 0.0
C452 C 0.71786 0.50546 0.64315 0.0
C453 C 0.6872 0.49113 0.64175 0.0
C454 C 0.75988 0.44977 0.5964 0.0
C455 C 0.72426 0.53522 0.66009 0.0
C456 C 0.82915 0.51046 0.64042 0.0
C457 C 0.83582 0.5376 0.62442 0.0
C458 C 0.79855 0.49609 0.64233 0.0
C459 C 0.77395 0.50927 0.62798 0.0
C460 C 0.78036 0.53741 0.61233 0.0
C461 C 0.81114 0.55112 0.6107 0.0
C462 C 0.79277 0.46607 0.65918 0.0
C463 C 0.75487 0.55244 0.59679 0.0
H464 H 0.69886 0.43006 0.599 0.0
H465 H 0.66871 0.50165 0.65285 0.0
H466 H 0.7677 0.47059 0.58402 0.0
H467 H 0.78089 0.44142 0.60656 0.0
H468 H 0.75118 0.42672 0.5862 0.0
H469 H 0.70365 0.54082 0.6715 0.0
H470 H 0.74486 0.52869 0.67124 0.0
H471 H 0.73025 0.55968 0.65031 0.0
H472 H 0.84803 0.49979 0.65108 0.0
H473 H 0.81594 0.57218 0.59835 0.0
H474 H 0.78644 0.44176 0.64935 0.0
H475 H 0.77257 0.47242 0.67078 0.0
H476 H 0.81378 0.46031 0.67014 0.0
H477 H 0.74661 0.53179 0.58444 0.0
H478 H 0.7632 0.57563 0.58657 0.0
H479 H 0.73423 0.56064 0.60742 0.0
C480 C 1.00801 0.98492 0.3086 0.0
C481 C 0.98297 0.0076 0.31427 0.0
C482 C 0.01696 0.97952 0.28523 0.0
C483 C 1.00145 -0.00141 0.2673 0.0
C484 C 0.97537 0.02051 0.27294 0.0
C485 C 0.96606 0.02417 0.29634 0.0
C486 C 0.04391 0.95466 0.27987 0.0
C487 C 0.95873 0.04218 0.25451 0.0
C488 C 0.0478 0.02607 0.21354 0.0
C489 C 0.03298 0.00627 0.19601 0.0
C490 C 0.03832 0.0231 0.23693 0.0
C491 C 0.01428 -0.00132 0.24305 0.0
C492 C 1.00091 0.97671 0.22561 0.0
C493 C 1.00989 0.98137 0.20217 0.0
C494 C 0.05258 0.0478 0.2548 0.0
C495 C 0.97631 0.94925 0.23155 0.0
H496 H 0.02107 0.97203 0.32248 0.0
H497 H 0.94697 0.0421 0.30073 0.0
H498 H 0.03813 0.93776 0.26461 0.0
H499 H 0.06529 0.97019 0.27538 0.0
H500 H 0.04963 0.93735 0.29497 0.0
H501 H 0.93816 0.0569 0.26164 0.0
H502 H 0.97552 0.06156 0.24687 0.0
H503 H 0.95043 0.02491 0.24013 0.0
H504 H 0.06537 0.04567 0.20876 0.0
H505 H 0.99847 0.96597 0.18861 0.0
H506 H 0.06271 0.03248 0.2695 0.0
H507 H 0.0339 0.06518 0.26211 0.0
H508 H 0.07144 0.06478 0.24728 0.0
H509 H 0.98358 0.93388 0.24716 0.0
H510 H 0.97215 0.93061 0.21686 0.0
H511 H 0.95366 0.9625 0.23579 0.0
C512 C 0.46568 0.97223 0.21368 0.0
C513 C 0.48236 0.99018 0.1962 0.0
C514 C 0.47461 0.97508 0.23721 0.0
C515 C 0.50006 0.99754 0.24348 0.0
C516 C 0.51532 0.0179 0.22605 0.0
C517 C 0.50677 0.01335 0.20252 0.0
C518 C 0.45827 0.95207 0.25507 0.0
C519 C 0.54158 0.04331 0.2321 0.0
C520 C 0.50708 0.01244 0.30894 0.0
C521 C 0.53071 0.98807 0.31489 0.0
C522 C 0.4983 0.01768 0.28552 0.0
C523 C 0.51249 0.99684 0.26783 0.0
C524 C 0.53702 0.97293 0.27376 0.0
C525 C 0.54624 0.96938 0.29718 0.0
C526 C 0.4731 0.04457 0.27982 0.0
C527 C 0.55217 0.94941 0.25561 0.0
H528 H 0.44708 0.95394 0.2088 0.0
H529 H 0.51965 0.02732 0.189 0.0
H530 H 0.47543 0.93292 0.26248 0.0
H531 H 0.44931 0.96843 0.26971 0.0
H532 H 0.43819 0.93702 0.2475 0.0
H533 H 0.54719 0.06137 0.21737 0.0
H534 H 0.53512 0.05944 0.24758 0.0
H535 H 0.56322 0.02824 0.23658 0.0
H536 H 0.49511 0.02699 0.32265 0.0
H537 H 0.56424 0.95019 0.30179 0.0
H538 H 0.45091 0.03076 0.27506 0.0
H539 H 0.48028 0.06088 0.26461 0.0
H540 H 0.46814 0.06239 0.29481 0.0
H541 H 0.53404 0.93174 0.24784 0.0
H542 H 0.57132 0.93274 0.26301 0.0
H543 H 0.56213 0.96562 0.24126 0.0
C544 C 0.99918 0.97222 0.70467 0.0
C545 C 0.02433 0.98938 0.69349 0.0
C546 C 0.9942 0.97601 0.72872 0.0
C547 C 0.0141 -0.0013 0.74181 0.0
C548 C 0.03804 0.01825 0.73027 0.0
C549 C 0.0434 0.0127 0.70628 0.0
C550 C 0.96911 0.95367 0.74034 0.0
C551 C 0.05878 0.04391 0.74339 0.0
C552 C 0.98363 0.01245 0.80363 0.0
C553 C 1.00162 0.98754 0.81596 0.0
C554 C 0.98916 0.01863 0.77974 0.0
C555 C 0.01212 0.99818 0.76779 0.0
C556 C 0.03094 0.97381 0.78042 0.0
C557 C 0.02586 0.96936 0.8044 0.0
C558 C 0.96962 0.046 0.76713 0.0
C559 C 0.05493 0.95052 0.76834 0.0
H560 H 0.98455 0.95391 0.69489 0.0
H561 H 0.06273 0.02618 0.69763 0.0
H562 H 0.98038 0.93492 0.75272 0.0
H563 H 0.9528 0.97059 0.75055 0.0
H564 H 0.95502 0.93818 0.72755 0.0
H565 H 0.07175 0.06187 0.73139 0.0
H566 H 0.04449 0.06012 0.75563 0.0
H567 H 0.07633 0.02906 0.7539 0.0
H568 H 0.96501 0.02673 0.81258 0.0
H569 H 0.03966 0.94984 0.81381 0.0
H570 H 0.95138 0.03264 0.75639 0.0
H571 H 0.98462 0.06186 0.75517 0.0
H572 H 0.95752 0.06418 0.77948 0.0
H573 H 0.04279 0.93307 0.75558 0.0
H574 H 0.06822 0.93361 0.7808 0.0
H575 H 0.07205 0.9669 0.75848 0.0
C576 C 0.52422 0.02734 0.70588 0.0
C577 C 0.49909 0.01002 0.69478 0.0
C578 C 0.52939 0.02358 0.7299 0.0
C579 C 0.50969 0.00079 0.74307 0.0
C580 C 0.48574 0.98112 0.73162 0.0
C581 C 0.48021 0.98661 0.70765 0.0
C582 C 0.5545 0.04603 0.74142 0.0
C583 C 0.46519 0.95537 0.74483 0.0
C584 C 0.54086 0.98712 0.80469 0.0
C585 C 0.52298 0.01201 0.81713 0.0
C586 C 0.53506 0.98091 0.78083 0.0
C587 C 0.51191 0.00127 0.76903 0.0
C588 C 0.49317 0.02558 0.78179 0.0
C589 C 0.49854 0.03009 0.80573 0.0
C590 C 0.55453 0.9536 0.76809 0.0
C591 C 0.46897 0.04876 0.76987 0.0
H592 H 0.53872 0.04571 0.69605 0.0
H593 H 0.46089 0.97299 0.69907 0.0
H594 H 0.54326 0.0647 0.75388 0.0
H595 H 0.57096 0.02917 0.75154 0.0
H596 H 0.5684 0.06162 0.72859 0.0
H597 H 0.45216 0.93737 0.73288 0.0
H598 H 0.47962 0.93921 0.75699 0.0
H599 H 0.44769 0.97016 0.75542 0.0
H600 H 0.55963 0.97291 0.8135 0.0
H601 H 0.48482 0.04958 0.81523 0.0
H602 H 0.57258 0.96704 0.75722 0.0
H603 H 0.53943 0.93767 0.75623 0.0
H604 H 0.56686 0.93548 0.78035 0.0
H605 H 0.48091 0.06634 0.7571 0.0
H606 H 0.4557 0.06554 0.78243 0.0
H607 H 0.45184 0.03232 0.76005 0.0
C608 C 0.50906 0.48911 0.20752 0.0
C609 C 0.53459 0.51089 0.20154 0.0
C610 C 0.50062 0.48387 0.23099 0.0
C611 C 0.51714 0.50232 0.24873 0.0
C612 C 0.54371 0.52329 0.24275 0.0
C613 C 0.5525 0.5267 0.21923 0.0
C614 C 0.47313 0.45996 0.23669 0.0
C615 C 0.56139 0.54436 0.26096 0.0
C616 C 0.47228 0.5316 0.30276 0.0
C617 C 0.48677 0.51139 0.32021 0.0
C618 C 0.48145 0.52828 0.27932 0.0
C619 C 0.50475 0.50304 0.27309 0.0
C620 C 0.51778 0.48075 0.29049 0.0
C621 C 0.50921 0.48581 0.31397 0.0
C622 C 0.46765 0.55339 0.26151 0.0
C623 C 0.54152 0.4524 0.28442 0.0
H624 H 0.49522 0.47685 0.19379 0.0
H625 H 0.57197 0.54396 0.21456 0.0
H626 H 0.47871 0.44301 0.25197 0.0
H627 H 0.45224 0.47621 0.2413 0.0
H628 H 0.46672 0.4427 0.22171 0.0
H629 H 0.58227 0.55821 0.25358 0.0
H630 H 0.54538 0.56443 0.26873 0.0
H631 H 0.56942 0.52685 0.2753 0.0
H632 H 0.45524 0.55173 0.30762 0.0
H633 H 0.52038 0.47013 0.3275 0.0
H634 H 0.45663 0.53835 0.24703 0.0
H635 H 0.48674 0.56986 0.25387 0.0
H636 H 0.44958 0.57126 0.26919 0.0
H637 H 0.5336 0.43722 0.2689 0.0
H638 H 0.54534 0.4337 0.29912 0.0
H639 H 0.56448 0.46482 0.28 0.0
C640 C 0.05677 0.46843 0.29983 0.0
C641 C 0.04029 0.48709 0.31708 0.0
C642 C 0.048 0.4709 0.27627 0.0
C643 C 0.02298 0.49376 0.26971 0.0
C644 C 1.008 0.51487 0.2869 0.0
C645 C 0.0163 0.51061 0.3105 0.0
C646 C 0.06396 0.44704 0.25869 0.0
C647 C 0.9823 0.54079 0.28051 0.0
C648 C 0.0171 0.50666 0.20406 0.0
C649 C 0.99303 0.48275 0.1983 0.0
C650 C 0.02557 0.51259 0.22746 0.0
C651 C 0.01069 0.49276 0.24533 0.0
C652 C 0.98571 0.46932 0.23956 0.0
C653 C 0.97675 0.46519 0.21613 0.0
C654 C 0.05122 0.53905 0.23296 0.0
C655 C 0.96986 0.44678 0.25792 0.0
H656 H 0.07501 0.44984 0.30495 0.0
H657 H 1.00355 0.52508 0.32386 0.0
H658 H 0.04641 0.42826 0.25133 0.0
H659 H 0.07347 0.46283 0.24398 0.0
H660 H 0.08359 0.43154 0.26651 0.0
H661 H 0.97715 0.55948 0.295 0.0
H662 H 0.98907 0.55622 0.2648 0.0
H663 H 0.96031 0.52619 0.27629 0.0
H664 H 0.02963 0.5203 0.19022 0.0
H665 H 0.95841 0.44634 0.21162 0.0
H666 H 0.07317 0.52488 0.23785 0.0
H667 H 0.0443 0.55584 0.24802 0.0
H668 H 0.0565 0.55644 0.21781 0.0
H669 H 0.98752 0.42888 0.26603 0.0
H670 H 0.95044 0.4304 0.25062 0.0
H671 H 0.96009 0.46368 0.27199 0.0
C672 C 0.49515 0.4667 0.71183 0.0
C673 C 0.51828 0.4866 0.70026 0.0
C674 C 0.48971 0.47095 0.73579 0.0
C675 C 0.50691 0.49685 0.74838 0.0
C676 C 0.52887 0.51868 0.73644 0.0
C677 C 0.53489 0.51269 0.71258 0.0
C678 C 0.46697 0.44614 0.74787 0.0
C679 C 0.54662 0.54762 0.74899 0.0
C680 C 0.47289 0.51124 0.80911 0.0
C681 C 0.49286 0.48991 0.82261 0.0
C682 C 0.4787 0.51628 0.78513 0.0
C683 C 0.50409 0.49812 0.77431 0.0
C684 C 0.52482 0.47744 0.78811 0.0
C685 C 0.5193 0.47423 0.81214 0.0
C686 C 0.45695 0.53987 0.77124 0.0
C687 C 0.55146 0.45649 0.77728 0.0
H688 H 0.4825 0.44624 0.70239 0.0
H689 H 0.55266 0.52824 0.70361 0.0
H690 H 0.47979 0.43025 0.76112 0.0
H691 H 0.44849 0.46141 0.75716 0.0
H692 H 0.45523 0.4277 0.73549 0.0
H693 H 0.55835 0.56607 0.73662 0.0
H694 H 0.5304 0.56298 0.76036 0.0
H695 H 0.56498 0.53577 0.76036 0.0
H696 H 0.45252 0.52355 0.8172 0.0
H697 H 0.53462 0.45739 0.82247 0.0
H698 H 0.44075 0.52337 0.76061 0.0
H699 H 0.47068 0.55675 0.75905 0.0
H700 H 0.44247 0.55716 0.78271 0.0
H701 H 0.54161 0.43639 0.76515 0.0
H702 H 0.56607 0.44267 0.79056 0.0
H703 H 0.56701 0.47409 0.76692 0.0
C704 C 0.99853 0.52561 0.80791 0.0
C705 C 0.02442 0.50887 0.81841 0.0
C706 C 0.99284 0.52241 0.7839 0.0
C707 C 0.01279 0.50071 0.77015 0.0
C708 C 0.0376 0.4816 0.781 0.0
C709 C 0.04363 0.4866 0.80495 0.0
C710 C 0.96687 0.54434 0.77304 0.0
C711 C 0.05849 0.45697 0.76716 0.0
C712 C 0.98072 0.4869 0.70874 0.0
C713 C 0.9979 0.5123 0.69622 0.0
C714 C 0.98698 0.48074 0.73254 0.0
C715 C 1.00981 0.50173 0.74423 0.0
C716 C 0.02767 0.5268 0.73143 0.0
C717 C 0.02192 0.53121 0.70752 0.0
C718 C 0.96847 0.45265 0.74532 0.0
C719 C 0.05141 0.55072 0.74325 0.0
H720 H 0.98381 0.54316 0.8182 0.0
H721 H 0.06357 0.47347 0.81307 0.0
H722 H 0.97729 0.56376 0.7607 0.0
H723 H 0.9506 0.52725 0.76291 0.0
H724 H 0.95288 0.55905 0.78628 0.0
H725 H 0.07245 0.43923 0.77868 0.0
H726 H 0.04414 0.44051 0.7551 0.0
H727 H 0.07516 0.47265 0.7564 0.0
H728 H 0.96226 0.47209 0.69998 0.0
H729 H 0.03504 0.55115 0.69795 0.0
H730 H 0.95057 0.46534 0.7567 0.0
H731 H 0.9843 0.43681 0.7567 0.0
H732 H 0.95608 0.43452 0.73309 0.0
H733 H 0.03926 0.56743 0.75642 0.0
H734 H 0.06373 0.56838 0.7307 0.0
H735 H 0.06936 0.53477 0.7526 0.0
C736 C 0.05035 0.18154 0.15024 0.0
C737 C 0.03476 0.15497 0.13766 0.0
C738 C 0.03792 0.21601 0.15145 0.0
C739 C 1.0099 0.22429 0.13907 0.0
C740 C 0.99401 0.19741 0.12647 0.0
C741 C 1.00637 0.16295 0.12624 0.0
C742 C 0.05504 0.2437 0.16563 0.0
C743 C 0.96469 0.20536 0.1124 0.0
C744 C 0.96413 0.30896 0.15185 0.0
C745 C 0.97715 0.3321 0.1354 0.0
C746 C 0.97497 0.27384 0.15361 0.0
C747 C 0.99843 0.26151 0.13793 0.0
C748 C 0.01093 0.28475 0.12087 0.0
C749 C 1.00057 0.31998 0.12014 0.0
C750 C 0.96185 0.25018 0.17249 0.0
C751 C 0.03512 0.27239 0.10329 0.0
H752 H 0.07217 0.17533 0.15924 0.0
H753 H 0.99441 0.14249 0.11632 0.0
H754 H 0.06503 0.26416 0.15387 0.0
H755 H 0.03833 0.25724 0.17759 0.0
H756 H 0.07458 0.23219 0.1761 0.0
H757 H 0.95467 0.18128 0.10408 0.0
H758 H 0.94634 0.21746 0.12367 0.0
H759 H 0.97039 0.22485 0.09853 0.0
H760 H 0.94623 0.31866 0.16378 0.0
H761 H 0.01046 0.33805 0.10737 0.0
H762 H 0.98135 0.24043 0.18372 0.0
H763 H 0.95039 0.22663 0.16461 0.0
H764 H 0.94431 0.26406 0.18364 0.0
H765 H 0.05703 0.26415 0.11237 0.0
H766 H 0.0412 0.29332 0.09042 0.0
H767 H 0.02606 0.24894 0.09371 0.0
C768 C 0.46633 0.80872 0.12563 0.0
C769 C 0.48041 0.83777 0.13676 0.0
C770 C 0.48033 0.77504 0.12644 0.0
C771 C 0.50871 0.77015 0.13913 0.0
C772 C 0.52252 0.79917 0.15098 0.0
C773 C 0.5084 0.83273 0.14942 0.0
C774 C 0.46514 0.74486 0.11327 0.0
C775 C 0.55232 0.79481 0.16516 0.0
C776 C 0.52686 0.67505 0.15583 0.0
C777 C 0.549 0.6654 0.13878 0.0
C778 C 0.51451 0.7095 0.15673 0.0
C779 C 0.52396 0.73465 0.13981 0.0
C780 C 0.54691 0.72532 0.12289 0.0
C781 C 0.55945 0.69086 0.12275 0.0
C782 C 0.49071 0.71867 0.17541 0.0
C783 C 0.55721 0.75124 0.10433 0.0
H784 H 0.44485 0.81254 0.11565 0.0
H785 H 0.51929 0.85508 0.15817 0.0
H786 H 0.48198 0.73408 0.10024 0.0
H787 H 0.45918 0.72304 0.12545 0.0
H788 H 0.44328 0.75314 0.10405 0.0
H789 H 0.55926 0.81967 0.17418 0.0
H790 H 0.54903 0.77373 0.17843 0.0
H791 H 0.57201 0.78642 0.15367 0.0
H792 H 0.51889 0.65549 0.16837 0.0
H793 H 0.57637 0.68341 0.10943 0.0
H794 H 0.4674 0.72388 0.16729 0.0
H795 H 0.49793 0.74319 0.18466 0.0
H796 H 0.48792 0.69709 0.18843 0.0
H797 H 0.5367 0.75844 0.09326 0.0
H798 H 0.57608 0.74029 0.09296 0.0
H799 H 0.56598 0.776 0.11249 0.0
C800 C 0.46681 0.68456 0.36152 0.0
C801 C 0.48166 0.66057 0.37658 0.0
C802 C 0.4781 0.71938 0.35917 0.0
C803 C 0.504 0.7307 0.37294 0.0
C804 C 0.51897 0.70648 0.38822 0.0
C805 C 0.50797 0.67151 0.38951 0.0
C806 C 0.46222 0.74408 0.34211 0.0
C807 C 0.54593 0.7178 0.40379 0.0
C808 C 0.55145 0.8136 0.3591 0.0
C809 C 0.53682 0.83862 0.37353 0.0
C810 C 0.54017 0.77863 0.35795 0.0
C811 C 0.51454 0.76828 0.37231 0.0
C812 C 0.49979 0.79356 0.38696 0.0
C813 C 0.51075 0.8286 0.38705 0.0
C814 C 0.55577 0.75274 0.34151 0.0
C815 C 0.47316 0.78334 0.40315 0.0
H816 H 0.4466 0.67594 0.35138 0.0
H817 H 0.51927 0.65299 0.40132 0.0
H818 H 0.4505 0.76597 0.35168 0.0
H819 H 0.48008 0.7562 0.33039 0.0
H820 H 0.44425 0.73032 0.33128 0.0
H821 H 0.55486 0.69574 0.41479 0.0
H822 H 0.56574 0.72811 0.39312 0.0
H823 H 0.53808 0.73962 0.41541 0.0
H824 H 0.5715 0.82149 0.34854 0.0
H825 H 0.49966 0.84792 0.3984 0.0
H826 H 0.53772 0.73976 0.33037 0.0
H827 H 0.5677 0.73159 0.35163 0.0
H828 H 0.57352 0.76572 0.33009 0.0
H829 H 0.45315 0.77228 0.39302 0.0
H830 H 0.46441 0.80616 0.41355 0.0
H831 H 0.48125 0.76238 0.41534 0.0
C832 C 0.05691 0.30592 0.38814 0.0
C833 C 0.04474 0.3341 0.37504 0.0
C834 C 0.04337 0.27205 0.38681 0.0
C835 C 0.01765 0.26607 0.37149 0.0
C836 C 1.00618 0.29412 0.35747 0.0
C837 C 0.01956 0.32797 0.35968 0.0
C838 C 0.05582 0.24303 0.40244 0.0
C839 C 0.97944 0.28851 0.34044 0.0
C840 C 1.00036 0.16958 0.35779 0.0
C841 C 0.97486 0.16266 0.37271 0.0
C842 C 0.01374 0.20354 0.35649 0.0
C843 C 1.00193 0.23086 0.37099 0.0
C844 C 0.97585 0.22412 0.38582 0.0
C845 C 0.96234 0.19019 0.38624 0.0
C846 C 0.04089 0.21 0.33994 0.0
C847 C 0.96302 0.25233 0.40193 0.0
H848 H 0.0762 0.31068 0.40018 0.0
H849 H 1.01027 0.34971 0.3494 0.0
H850 H 0.0368 0.23386 0.41432 0.0
H851 H 0.06325 0.21991 0.39184 0.0
H852 H 0.0762 0.2519 0.41315 0.0
H853 H 0.97512 0.31223 0.32942 0.0
H854 H 0.98465 0.26564 0.3289 0.0
H855 H 0.95744 0.28222 0.35008 0.0
H856 H 1.00995 0.14835 0.34719 0.0
H857 H 0.94281 0.18482 0.39796 0.0
H858 H 0.06267 0.21571 0.35001 0.0
H859 H 0.03598 0.2335 0.3289 0.0
H860 H 0.04543 0.18689 0.32842 0.0
H861 H 0.98173 0.26082 0.41429 0.0
H862 H 0.94235 0.24295 0.41213 0.0
H863 H 0.95589 0.276 0.39176 0.0
C864 C 0.01576 0.66758 0.86412 0.0
C865 C 0.04286 0.66159 0.87766 0.0
C866 C 1.00184 0.70126 0.86293 0.0
C867 C 0.01501 0.72952 0.8759 0.0
C868 C 0.04268 0.7238 0.88929 0.0
C869 C 0.05645 0.68995 0.88984 0.0
C870 C 0.97277 0.70647 0.84805 0.0
C871 C 0.05728 0.75323 0.90351 0.0
C872 C 0.99715 0.82516 0.8604 0.0
C873 C 0.97436 0.83419 0.87717 0.0
C874 C 1.00981 0.79088 0.8593 0.0
C875 C 0.9998 0.76508 0.8756 0.0
C876 C 0.97607 0.77366 0.8921 0.0
C877 C 0.96342 0.80809 0.89257 0.0
C878 C 0.03457 0.78261 0.84113 0.0
C879 C 0.96495 0.7469 0.90987 0.0
H880 H 1.00522 0.6458 0.85456 0.0
H881 H 0.07722 0.68544 0.90049 0.0
H882 H 0.95251 0.71415 0.85922 0.0
H883 H 0.97667 0.72834 0.83544 0.0
H884 H 0.96632 0.68218 0.8382 0.0
H885 H 0.07885 0.7445 0.91292 0.0
H886 H 0.06354 0.77581 0.89203 0.0
H887 H 0.03993 0.76313 0.91648 0.0
H888 H 1.00556 0.84516 0.84833 0.0
H889 H 0.946 0.81497 0.90567 0.0
H890 H 0.02783 0.75859 0.83115 0.0
H891 H 0.05743 0.77692 0.84981 0.0
H892 H 0.03808 0.80482 0.82869 0.0
H893 H 0.95667 0.72249 0.901 0.0
H894 H 0.9455 0.75729 0.92093 0.0
H895 H 0.98493 0.73927 0.92135 0.0
C896 C 0.46554 0.30681 0.89136 0.0
C897 C 0.47912 0.33616 0.88025 0.0
C898 C 0.48015 0.27341 0.89051 0.0
C899 C 0.50871 0.26918 0.87792 0.0
C900 C 0.52195 0.29846 0.86603 0.0
C901 C 0.50714 0.33164 0.86749 0.0
C902 C 0.46543 0.24285 0.90358 0.0
C903 C 0.55198 0.29486 0.85202 0.0
C904 C 0.56086 0.19112 0.89462 0.0
C905 C 0.55125 0.16548 0.87842 0.0
C906 C 0.54764 0.22528 0.8944 0.0
C907 C 0.52474 0.23409 0.87732 0.0
C908 C 0.51624 0.20885 0.86019 0.0
C909 C 0.52939 0.17479 0.86106 0.0
C910 C 0.55714 0.25142 0.91307 0.0
C911 C 0.49245 0.21742 0.84138 0.0
H912 H 0.44405 0.31017 0.90139 0.0
H913 H 0.51769 0.35418 0.85875 0.0
H914 H 0.46031 0.22076 0.89138 0.0
H915 H 0.48224 0.23271 0.91684 0.0
H916 H 0.44316 0.25049 0.9125 0.0
H917 H 0.55845 0.31984 0.84296 0.0
H918 H 0.57173 0.28712 0.86366 0.0
H919 H 0.54933 0.27359 0.8388 0.0
H920 H 0.57754 0.18398 0.90818 0.0
H921 H 0.52202 0.15513 0.84838 0.0
H922 H 0.53638 0.25783 0.92411 0.0
H923 H 0.56527 0.27652 0.90501 0.0
H924 H 0.57624 0.24103 0.92446 0.0
H925 H 0.46894 0.22191 0.84937 0.0
H926 H 0.4903 0.19583 0.82829 0.0
H927 H 0.49919 0.24218 0.83223 0.0
C928 C 0.46385 0.18968 0.61856 0.0
C929 C 0.47652 0.16245 0.63231 0.0
C930 C 0.47682 0.22399 0.61912 0.0
C931 C 0.50283 0.23127 0.63395 0.0
C932 C 0.51505 0.20415 0.64837 0.0
C933 C 0.50186 0.17012 0.64731 0.0
C934 C 0.46318 0.25224 0.60345 0.0
C935 C 0.5424 0.21093 0.66469 0.0
C936 C 0.55564 0.3102 0.61996 0.0
C937 C 0.54332 0.33624 0.63485 0.0
C938 C 0.54275 0.27585 0.61952 0.0
C939 C 0.51722 0.26729 0.6345 0.0
C940 C 0.50543 0.29314 0.6501 0.0
C941 C 0.51851 0.32727 0.65001 0.0
C942 C 0.55593 0.24897 0.60262 0.0
C943 C 0.47861 0.28495 0.66662 0.0
H944 H 0.44444 0.18393 0.60683 0.0
H945 H 0.51172 0.14931 0.65811 0.0
H946 H 0.45539 0.27525 0.61403 0.0
H947 H 0.4816 0.26189 0.59123 0.0
H948 H 0.44277 0.24245 0.59312 0.0
H949 H 0.54854 0.18724 0.67526 0.0
H950 H 0.56351 0.21899 0.65453 0.0
H951 H 0.53665 0.23305 0.67671 0.0
H952 H 0.57462 0.31698 0.60808 0.0
H953 H 0.50893 0.34717 0.66167 0.0
H954 H 0.53717 0.24042 0.59033 0.0
H955 H 0.56395 0.22507 0.61219 0.0
H956 H 0.57608 0.2596 0.59237 0.0
H957 H 0.45717 0.27783 0.65654 0.0
H958 H 0.47287 0.30768 0.67818 0.0
H959 H 0.48471 0.26181 0.67766 0.0
C960 C 0.05656 0.80859 0.618 0.0
C961 C 0.04425 0.8362 0.6316 0.0
C962 C 0.04277 0.77469 0.61841 0.0
C963 C 0.01629 0.7682 0.63295 0.0
C964 C 1.00445 0.79568 0.64725 0.0
C965 C 0.01847 0.8293 0.64635 0.0
C966 C 0.05604 0.74602 0.60289 0.0
C967 C 0.9766 0.78974 0.66326 0.0
C968 C 0.96195 0.69094 0.61813 0.0
C969 C 0.97339 0.66445 0.63305 0.0
C970 C 0.9756 0.72492 0.61797 0.0
C971 C 1.00099 0.73266 0.63328 0.0
C972 C 0.01182 0.70639 0.64895 0.0
C973 C 0.99801 0.67264 0.64856 0.0
C974 C 0.96344 0.75226 0.60099 0.0
C975 C 0.03843 0.71372 0.66582 0.0
H976 H 0.07631 0.81376 0.60646 0.0
H977 H 1.00888 0.85041 0.65703 0.0
H978 H 0.063 0.72275 0.61353 0.0
H979 H 0.03767 0.73698 0.59043 0.0
H980 H 0.07693 0.75516 0.59282 0.0
H981 H 0.97088 0.81358 0.67381 0.0
H982 H 0.9555 0.78243 0.65285 0.0
H983 H 0.98152 0.76739 0.67529 0.0
H984 H 0.94313 0.68475 0.60598 0.0
H985 H 1.0069 0.65238 0.66025 0.0
H986 H 0.98264 0.76021 0.5889 0.0
H987 H 0.95587 0.7764 0.61051 0.0
H988 H 0.94321 0.74231 0.59053 0.0
H989 H 0.0603 0.72011 0.65603 0.0
H990 H 0.0433 0.69082 0.67746 0.0
H991 H 0.03268 0.73707 0.67678 0.0
C992 C 0.02279 0.97736 0.95247 0.0
C993 C 0.99028 0.98099 0.94848 0.0
C994 C 0.03585 0.98445 0.97451 0.0
C995 C 0.01606 0.99649 0.99279 0.0
C996 C 0.98339 0.00143 0.98859 0.0
C997 C 0.97081 0.99306 0.96658 0.0
C998 C 0.07062 0.97799 0.97846 0.0
C999 C 0.96166 0.01526 0.00739 0.0
C1000 C 0.03928 0.98523 0.05653 0.0
C1001 C 0.05165 0.01872 0.0618 0.0
C1002 C 0.02862 0.97722 0.0339 0.0
C1003 C 0.02941 0.0037 0.01637 0.0
C1004 C 0.04207 0.03747 0.0216 0.0
C1005 C 0.05347 0.04438 0.04414 0.0
C1006 C 0.01613 0.94057 0.02882 0.0
C1007 C 0.04254 0.06674 1.00363 0.0
H1008 H 0.03784 0.96753 0.9386 0.0
H1009 H 0.94568 0.99595 0.96353 0.0
H1010 H 0.08229 0.00265 0.98448 0.0
H1011 H 0.07381 0.95789 0.99239 0.0
H1012 H 0.08278 0.96859 0.96243 0.0
H1013 H 0.93725 0.01963 1.00089 0.0
H1014 H 0.96071 0.9962 0.0221 0.0
H1015 H 0.97087 0.04063 0.01441 0.0
H1016 H 0.03792 0.96532 0.07012 0.0
H1017 H 0.06264 0.07048 0.04819 0.0
H1018 H 0.02826 0.92928 0.01335 0.0
H1019 H 0.99059 0.94199 0.02463 0.0
H1020 H 0.01936 0.92225 0.04381 0.0
H1021 H 0.05569 0.05811 0.98789 0.0
H1022 H 0.05355 0.09139 0.0104 0.0
H1023 H 0.01804 0.07284 0.99805 0.0
C1024 C 0.55429 0.00526 0.96725 0.0
C1025 C 0.53511 0.01898 0.9495 0.0
C1026 C 0.54162 0.99659 0.98917 0.0
C1027 C 0.50923 0.003 0.99369 0.0
C1028 C 0.48979 0.01698 0.97581 0.0
C1029 C 0.50286 0.02426 0.95381 0.0
C1030 C 0.56289 0.9806 0.0075 0.0
C1031 C 0.45536 0.02509 0.98012 0.0
C1032 C 0.46904 0.95356 0.04316 0.0
C1033 C 0.47143 0.97785 0.06162 0.0
C1034 C 0.4814 0.96134 0.02104 0.0
C1035 C 0.49562 0.9947 0.01703 0.0
C1036 C 0.49726 0.01979 0.03542 0.0
C1037 C 0.48563 0.01081 0.05764 0.0
C1038 C 0.48003 0.93345 1.00216 0.0
C1039 C 0.51139 0.05604 0.03162 0.0
H1040 H 0.57923 0.00116 0.96393 0.0
H1041 H 0.48808 0.0354 0.94022 0.0
H1042 H 0.56445 -0.00148 0.02279 0.0
H1043 H 0.55285 0.95514 0.01373 0.0
H1044 H 0.58714 0.97569 1.00084 0.0
H1045 H 0.44365 0.03668 0.96454 0.0
H1046 H 0.44259 0.0006 0.98512 0.0
H1047 H 0.45309 0.04397 0.99487 0.0
H1048 H 0.45848 0.92782 0.04624 0.0
H1049 H 0.48745 0.02964 0.07187 0.0
H1050 H 0.50429 0.92701 0.99618 0.0
H1051 H 0.46689 0.94363 0.98683 0.0
H1052 H 0.46849 0.90867 0.0082 0.0
H1053 H 0.53679 0.05354 0.02723 0.0
H1054 H 0.50908 0.07324 0.04726 0.0
H1055 H 0.49967 0.06926 0.01665 0.0
C1056 C 0.46782 0.00279 0.54402 0.0
C1057 C 0.48747 0.01468 0.56206 0.0
C1058 C 0.48027 0.99408 0.52203 0.0
C1059 C 0.51298 -0.00139 0.51776 0.0
C1060 C 0.53293 0.01051 0.53598 0.0
C1061 C 0.52 0.01786 0.55803 0.0
C1062 C 0.45837 0.98035 0.5033 0.0
C1063 C 0.56775 0.01661 0.53197 0.0
C1064 C 0.55041 0.95039 0.46655 0.0
C1065 C 0.54887 0.97607 0.44889 0.0
C1066 C 0.53879 0.95735 0.48902 0.0
C1067 C 0.52622 0.99119 0.49418 0.0
C1068 C 0.52565 0.01765 0.47663 0.0
C1069 C 0.53649 0.00957 0.45405 0.0
C1070 C 0.53898 0.92811 0.507 0.0
C1071 C 0.51331 0.05439 0.48164 0.0
H1072 H 0.44266 0.00029 0.54712 0.0
H1073 H 0.53519 0.02758 0.57185 0.0
H1074 H 0.45745 -0.00061 0.48858 0.0
H1075 H 0.46741 0.9549 0.49627 0.0
H1076 H 0.43398 0.97616 0.50988 0.0
H1077 H 0.58002 0.026 0.54795 0.0
H1078 H 0.5792 0.9918 0.52599 0.0
H1079 H 0.57106 0.03658 0.51797 0.0
H1080 H 0.55957 0.92428 0.46254 0.0
H1081 H 0.53534 0.02947 0.44045 0.0
H1082 H 0.51445 0.92235 0.51266 0.0
H1083 H 0.5523 0.93657 0.52271 0.0
H1084 H 0.54969 0.90329 0.50022 0.0
H1085 H 0.48779 0.05311 0.48588 0.0
H1086 H 0.51658 0.07261 0.46662 0.0
H1087 H 0.52555 0.06569 0.49707 0.0
C1088 C 1.00388 0.97857 0.55631 0.0
C1089 C 0.03625 0.9826 0.56064 0.0
C1090 C 0.99115 0.9858 0.53419 0.0
C1091 C 0.01112 -0.00146 0.51623 0.0
C1092 C 0.04368 0.00375 0.52077 0.0
C1093 C 0.05597 0.99505 0.54281 0.0
C1094 C 0.95651 0.97892 0.52987 0.0
C1095 C 0.06552 0.01849 0.50235 0.0
C1096 C 0.98667 0.98984 0.45249 0.0
C1097 C 0.97294 0.02298 0.44833 0.0
C1098 C 0.99859 0.98118 0.47469 0.0
C1099 C 0.99783 0.00681 0.49278 0.0
C1100 C 0.98435 0.04047 0.4885 0.0
C1101 C 0.97158 0.0479 0.46646 0.0
C1102 C 0.01185 0.94461 0.47881 0.0
C1103 C 0.984 0.06893 0.50704 0.0
H1104 H 0.98868 0.96837 0.56997 0.0
H1105 H 0.08102 0.99814 0.54616 0.0
H1106 H 0.9445 0.0038 0.5247 0.0
H1107 H 0.95371 0.95992 0.51523 0.0
H1108 H 0.94441 0.968 0.5455 0.0
H1109 H 0.08985 0.02267 0.50905 0.0
H1110 H 0.06664 0.00015 0.48725 0.0
H1111 H 0.05627 0.04414 0.49581 0.0
H1112 H 0.98768 0.97056 0.43849 0.0
H1113 H 0.96141 0.07378 0.46317 0.0
H1114 H 0.99967 0.93201 0.49382 0.0
H1115 H 0.03726 0.94643 0.48333 0.0
H1116 H 1.00928 0.92721 0.46329 0.0
H1117 H 0.97032 0.05985 0.52241 0.0
H1118 H 0.97353 0.0941 0.50065 0.0
H1119 H 1.00844 0.07429 0.51307 0.0
C1120 C 0.50694 0.52107 0.06404 0.0
C1121 C 0.53927 0.51702 0.06853 0.0
C1122 C 0.49435 0.51345 0.04193 0.0
C1123 C 0.5144 0.5003 0.02415 0.0
C1124 C 0.54691 0.49503 0.02886 0.0
C1125 C 0.55907 0.50412 0.05088 0.0
C1126 C 0.45977 0.52039 0.03743 0.0
C1127 C 0.56883 0.47988 0.01064 0.0
C1128 C 0.47497 0.45052 0.97447 0.0
C1129 C 0.4765 0.47524 0.95624 0.0
C1130 C 0.48767 0.45813 0.99651 0.0
C1131 C 0.50127 0.49178 1.00069 0.0
C1132 C 0.50225 0.51719 0.98247 0.0
C1133 C 0.49036 0.50836 0.96029 0.0
C1134 C 0.48707 0.4299 0.01519 0.0
C1135 C 0.51567 0.55373 0.98646 0.0
H1136 H 0.49168 0.53161 0.07755 0.0
H1137 H 0.58408 0.501 0.05435 0.0
H1138 H 0.45714 0.53921 0.02268 0.0
H1139 H 0.44773 0.49548 0.03232 0.0
H1140 H 0.44756 0.53153 0.05294 0.0
H1141 H 0.59308 0.47565 0.01748 0.0
H1142 H 0.5595 0.4542 1.00421 0.0
H1143 H 0.57019 0.498 0.99544 0.0
H1144 H 0.46468 0.42467 0.97127 0.0
H1145 H 0.49151 0.52749 0.94622 0.0
H1146 H 0.47329 0.43923 0.03045 0.0
H1147 H 0.51144 0.42453 0.02136 0.0
H1148 H 0.47657 0.4047 0.00887 0.0
H1149 H 0.50339 0.56662 1.00132 0.0
H1150 H 0.51335 0.57093 0.97083 0.0
H1151 H 0.54101 0.55181 0.99114 0.0
C1152 C 0.95854 0.48853 0.04778 0.0
C1153 C 0.97992 0.47821 0.06515 0.0
C1154 C 0.96913 0.49743 0.02527 0.0
C1155 C 1.00168 0.49451 0.01983 0.0
C1156 C 0.02324 0.48355 0.03727 0.0
C1157 C 0.01217 0.47617 0.05982 0.0
C1158 C 0.94559 0.51027 0.00739 0.0
C1159 C 0.05797 0.47908 0.03203 0.0
C1160 C 0.0261 0.48717 0.956 0.0
C1161 C 0.03866 0.52092 0.95193 0.0
C1162 C 0.01407 0.47805 0.97809 0.0
C1163 C 0.01349 0.50379 0.99612 0.0
C1164 C 0.02532 0.53822 0.99178 0.0
C1165 C 0.03829 0.54614 0.96988 0.0
C1166 C 1.00265 0.44072 0.98228 0.0
C1167 C 0.0242 0.56677 0.01024 0.0
H1168 H 0.93359 0.49005 0.05191 0.0
H1169 H 0.02867 0.46758 0.07313 0.0
H1170 H 0.95272 0.53675 1.00084 0.0
H1171 H 0.94524 0.49207 0.9922 0.0
H1172 H 0.9213 0.51213 0.01461 0.0
H1173 H 0.07131 0.46849 0.0472 0.0
H1174 H 0.06113 0.4608 0.01704 0.0
H1175 H 0.06842 0.5049 0.027 0.0
H1176 H 0.02642 0.4677 0.94209 0.0
H1177 H 0.04754 0.57246 0.96662 0.0
H1178 H 0.97753 0.44098 0.98774 0.0
H1179 H 0.01637 0.42856 0.99671 0.0
H1180 H 1.00499 0.42378 0.96652 0.0
H1181 H 0.99976 0.56967 0.01696 0.0
H1182 H 0.03227 0.59284 1.00352 0.0
H1183 H 0.03937 0.55926 0.02521 0.0
C1184 C 0.96469 0.50298 0.54608 0.0
C1185 C 0.98422 0.51648 0.5637 0.0
C1186 C 0.97707 0.49391 0.52413 0.0
C1187 C 1.00951 0.49975 0.51945 0.0
C1188 C 0.02928 0.51353 0.53719 0.0
C1189 C 0.01649 0.52115 0.55924 0.0
C1190 C 0.95544 0.47811 0.50595 0.0
C1191 C 0.06377 0.52108 0.53271 0.0
C1192 C 0.04946 0.44967 0.47014 0.0
C1193 C 0.04755 0.47399 0.45169 0.0
C1194 C 0.03682 0.45756 0.49216 0.0
C1195 C 0.02285 0.49107 0.49608 0.0
C1196 C 0.02154 0.51612 0.47766 0.0
C1197 C 0.03341 0.50701 0.45552 0.0
C1198 C 0.03782 0.42972 0.51108 0.0
C1199 C 1.0077 0.55253 0.48137 0.0
H1200 H 0.93972 0.49937 0.54953 0.0
H1201 H 0.03154 0.53215 0.57273 0.0
H1202 H 0.95396 0.49595 0.49062 0.0
H1203 H 0.96513 0.45247 0.49973 0.0
H1204 H 0.93121 0.4736 0.51274 0.0
H1205 H 0.07574 0.53269 0.54818 0.0
H1206 H 0.07621 0.49634 0.52779 0.0
H1207 H 0.06617 0.53974 0.51785 0.0
H1208 H 0.05998 0.42388 0.46715 0.0
H1209 H 0.03197 0.52585 0.44129 0.0
H1210 H 0.01352 0.42391 0.51723 0.0
H1211 H 0.05136 0.43964 0.5263 0.0
H1212 H 0.0488 0.40463 0.50501 0.0
H1213 H 0.98235 0.55031 0.48597 0.0
H1214 H 1.00992 0.56952 0.46562 0.0
H1215 H 0.01973 0.56582 0.49618 0.0
C1216 C 0.54927 0.49918 0.54975 0.0
C1217 C 0.52982 0.48638 0.56765 0.0
C1218 C 0.53671 0.50801 0.52782 0.0
C1219 C 0.50411 0.50276 0.52347 0.0
C1220 C 0.48433 0.49013 0.54157 0.0
C1221 C 0.49735 0.48261 0.56356 0.0
C1222 C 0.55842 0.52249 0.50922 0.0
C1223 C 0.44964 0.48329 0.53745 0.0
C1224 C 0.46651 0.55021 0.47201 0.0
C1225 C 0.46883 0.52461 0.45433 0.0
C1226 C 0.47782 0.54344 0.4946 0.0
C1227 C 0.49091 0.50988 0.49983 0.0
C1228 C 0.49221 0.48347 0.48227 0.0
C1229 C 0.48163 0.49135 0.45961 0.0
C1230 C 0.47678 0.57263 0.51262 0.0
C1231 C 0.50517 0.44702 0.48735 0.0
H1232 H 0.57438 0.50215 0.55289 0.0
H1233 H 0.48233 0.47222 0.57727 0.0
H1234 H 0.55992 0.50353 0.49447 0.0
H1235 H 0.54884 0.54768 0.50219 0.0
H1236 H 0.58265 0.52739 0.51592 0.0
H1237 H 0.43741 0.47383 0.55343 0.0
H1238 H 0.43783 0.50777 0.5313 0.0
H1239 H 0.44678 0.46308 0.52355 0.0
H1240 H 0.45699 0.57613 0.46794 0.0
H1241 H 0.48337 0.47149 0.446 0.0
H1242 H 0.50114 0.57917 0.51831 0.0
H1243 H 0.46364 0.56371 0.52829 0.0
H1244 H 0.46547 0.59709 0.50584 0.0
H1245 H 0.53063 0.44888 0.49169 0.0
H1246 H 0.50235 0.42871 0.47231 0.0
H1247 H 0.49302 0.43545 0.50272 0.0
loop_
_geom_bond_atom_site_label_1
_geom_bond_atom_site_label_2
_geom_bond_distance
_geom_bond_site_symmetry_2
_ccdc_geom_bond_type
O0 Cd1 2.223 . S
O0 C8 1.315 . S
Cd1 O0 2.223 . S
Cd1 O4 2.297 . S
Cd1 O5 2.439 . S
Cd1 O11 2.240 . S
Cd2 O3 2.240 . S
Cd2 O10 2.223 . S
Cd2 O12 2.297 . S
Cd2 O13 2.439 . S
O3 Cd2 2.240 . S
O3 C8 1.279 . S
O4 Cd1 2.297 . S
O4 C6 1.247 . S
O5 Cd1 2.439 . S
O5 C6 1.208 . S
C6 O4 1.247 . S
C6 O5 1.208 . S
C7 O12 1.247 . S
C7 O13 1.208 . S
C8 O0 1.315 . S
C8 O3 1.279 . S
C9 O10 1.315 . S
C9 O11 1.279 . S
O10 Cd2 2.223 . S
O10 C9 1.315 . S
O11 Cd1 2.240 . S
O11 C9 1.279 . S
O12 Cd2 2.297 . S
O12 C7 1.247 . S
O13 Cd2 2.439 . S
O13 C7 1.208 . S
O14 Cd15 2.223 . S
O14 C22 1.315 . S
Cd15 O14 2.223 . S
Cd15 O18 2.297 . S
Cd15 O19 2.439 . S
Cd15 O25 2.240 . S
Cd16 O17 2.240 . S
Cd16 O24 2.223 . S
Cd16 O26 2.297 . S
Cd16 O27 2.439 . S
O17 Cd16 2.240 . S
O17 C22 1.279 . S
O18 Cd15 2.297 . S
O18 C20 1.247 . S
O19 Cd15 2.439 . S
O19 C20 1.208 . S
C20 O18 1.247 . S
C20 O19 1.208 . S
C21 O26 1.247 . S
C21 O27 1.208 . S
C22 O14 1.315 . S
C22 O17 1.279 . S
C23 O24 1.315 . S
C23 O25 1.279 . S
O24 Cd16 2.223 . S
O24 C23 1.315 . S
O25 Cd15 2.240 . S
O25 C23 1.279 . S
O26 Cd16 2.297 . S
O26 C21 1.247 . S
O27 Cd16 2.439 . S
O27 C21 1.208 . S
O28 Cd29 2.223 . S
O28 C36 1.315 . S
Cd29 O28 2.223 . S
Cd29 O32 2.297 . S
Cd29 O33 2.439 . S
Cd29 O39 2.240 . S
Cd30 O31 2.240 . S
Cd30 O38 2.223 . S
Cd30 O40 2.297 . S
Cd30 O41 2.439 . S
O31 Cd30 2.240 . S
O31 C36 1.279 . S
O32 Cd29 2.297 . S
O32 C34 1.247 . S
O33 Cd29 2.439 . S
O33 C34 1.208 . S
C34 O32 1.247 . S
C34 O33 1.208 . S
C35 O40 1.247 . S
C35 O41 1.208 . S
C36 O28 1.315 . S
C36 O31 1.279 . S
C37 O38 1.315 . S
C37 O39 1.279 . S
O38 Cd30 2.223 . S
O38 C37 1.315 . S
O39 Cd29 2.240 . S
O39 C37 1.279 . S
O40 Cd30 2.297 . S
O40 C35 1.247 . S
O41 Cd30 2.439 . S
O41 C35 1.208 . S
O42 Cd43 2.223 . S
O42 C50 1.315 . S
Cd43 O42 2.223 . S
Cd43 O46 2.297 . S
Cd43 O47 2.439 . S
Cd43 O53 2.240 . S
Cd44 O45 2.240 . S
Cd44 O52 2.223 . S
Cd44 O54 2.297 . S
Cd44 O55 2.439 . S
O45 Cd44 2.240 . S
O45 C50 1.279 . S
O46 Cd43 2.297 . S
O46 C48 1.247 . S
O47 Cd43 2.439 . S
O47 C48 1.208 . S
C48 O46 1.247 . S
C48 O47 1.208 . S
C49 O54 1.247 . S
C49 O55 1.208 . S
C50 O42 1.315 . S
C50 O45 1.279 . S
C51 O52 1.315 . S
C51 O53 1.279 . S
O52 Cd44 2.223 . S
O52 C51 1.315 . S
O53 Cd43 2.240 . S
O53 C51 1.279 . S
O54 Cd44 2.297 . S
O54 C49 1.247 . S
O55 Cd44 2.439 . S
O55 C49 1.208 . S
O56 Cd57 2.223 . S
O56 C64 1.315 . S
Cd57 O56 2.223 . S
Cd57 O60 2.297 . S
Cd57 O61 2.439 . S
Cd57 O67 2.240 . S
Cd58 O59 2.240 . S
Cd58 O66 2.223 . S
Cd58 O68 2.297 . S
Cd58 O69 2.439 . S
O59 Cd58 2.240 . S
O59 C64 1.279 . S
O60 Cd57 2.297 . S
O60 C62 1.247 . S
O61 Cd57 2.439 . S
O61 C62 1.208 . S
C62 O60 1.247 . S
C62 O61 1.208 . S
C63 O68 1.247 . S
C63 O69 1.208 . S
C64 O56 1.315 . S
C64 O59 1.279 . S
C65 O66 1.315 . S
C65 O67 1.279 . S
O66 Cd58 2.223 . S
O66 C65 1.315 . S
O67 Cd57 2.240 . S
O67 C65 1.279 . S
O68 Cd58 2.297 . S
O68 C63 1.247 . S
O69 Cd58 2.439 . S
O69 C63 1.208 . S
O70 Cd71 2.223 . S
O70 C78 1.315 . S
Cd71 O70 2.223 . S
Cd71 O74 2.297 . S
Cd71 O75 2.439 . S
Cd71 O81 2.240 . S
Cd72 O73 2.240 . S
Cd72 O80 2.223 . S
Cd72 O82 2.297 . S
Cd72 O83 2.439 . S
O73 Cd72 2.240 . S
O73 C78 1.279 . S
O74 Cd71 2.297 . S
O74 C76 1.247 . S
O75 Cd71 2.439 . S
O75 C76 1.208 . S
C76 O74 1.247 . S
C76 O75 1.208 . S
C77 O82 1.247 . S
C77 O83 1.208 . S
C78 O70 1.315 . S
C78 O73 1.279 . S
C79 O80 1.315 . S
C79 O81 1.279 . S
O80 Cd72 2.223 . S
O80 C79 1.315 . S
O81 Cd71 2.240 . S
O81 C79 1.279 . S
O82 Cd72 2.297 . S
O82 C77 1.247 . S
O83 Cd72 2.439 . S
O83 C77 1.208 . S
O84 Cd85 2.223 . S
O84 C92 1.315 . S
Cd85 O84 2.223 . S
Cd85 O88 2.297 . S
Cd85 O89 2.439 . S
Cd85 O95 2.240 . S
Cd86 O87 2.240 . S
Cd86 O94 2.223 . S
Cd86 O96 2.297 . S
Cd86 O97 2.439 . S
O87 Cd86 2.240 . S
O87 C92 1.279 . S
O88 Cd85 2.297 . S
O88 C90 1.247 . S
O89 Cd85 2.439 . S
O89 C90 1.208 . S
C90 O88 1.247 . S
C90 O89 1.208 . S
C91 O96 1.247 . S
C91 O97 1.208 . S
C92 O84 1.315 . S
C92 O87 1.279 . S
C93 O94 1.315 . S
C93 O95 1.279 . S
O94 Cd86 2.223 . S
O94 C93 1.315 . S
O95 Cd85 2.240 . S
O95 C93 1.279 . S
O96 Cd86 2.297 . S
O96 C91 1.247 . S
O97 Cd86 2.439 . S
O97 C91 1.208 . S
O98 Cd99 2.223 . S
O98 C106 1.315 . S
Cd99 O98 2.223 . S
Cd99 O102 2.297 . S
Cd99 O103 2.439 . S
Cd99 O109 2.240 . S
Cd100 O101 2.240 . S
Cd100 O108 2.223 . S
Cd100 O110 2.297 . S
Cd100 O111 2.439 . S
O101 Cd100 2.240 . S
O101 C106 1.279 . S
O102 Cd99 2.297 . S
O102 C104 1.247 . S
O103 Cd99 2.439 . S
O103 C104 1.208 . S
C104 O102 1.247 . S
C104 O103 1.208 . S
C105 O110 1.247 . S
C105 O111 1.208 . S
C106 O98 1.315 . S
C106 O101 1.279 . S
C107 O108 1.315 . S
C107 O109 1.279 . S
O108 Cd100 2.223 . S
O108 C107 1.315 . S
O109 Cd99 2.240 . S
O109 C107 1.279 . S
O110 Cd100 2.297 . S
O110 C105 1.247 . S
O111 Cd100 2.439 . S
O111 C105 1.208 . S
O112 Cd113 2.223 . S
O112 C120 1.315 . S
Cd113 O112 2.223 . S
Cd113 O116 2.297 . S
Cd113 O117 2.439 . S
Cd113 O123 2.240 . S
Cd114 O115 2.240 . S
Cd114 O122 2.223 . S
Cd114 O124 2.297 . S
Cd114 O125 2.439 . S
O115 Cd114 2.240 . S
O115 C120 1.279 . S
O116 Cd113 2.297 . S
O116 C118 1.247 . S
O117 Cd113 2.439 . S
O117 C118 1.208 . S
C118 O116 1.247 . S
C118 O117 1.208 . S
C119 O124 1.247 . S
C119 O125 1.208 . S
C120 O112 1.315 . S
C120 O115 1.279 . S
C121 O122 1.315 . S
C121 O123 1.279 . S
O122 Cd114 2.223 . S
O122 C121 1.315 . S
O123 Cd113 2.240 . S
O123 C121 1.279 . S
O124 Cd114 2.297 . S
O124 C119 1.247 . S
O125 Cd114 2.439 . S
O125 C119 1.208 . S
O126 Cd127 2.223 . S
O126 C134 1.315 . S
Cd127 O126 2.223 . S
Cd127 O130 2.297 . S
Cd127 O131 2.439 . S
Cd127 O137 2.240 . S
Cd128 O129 2.240 . S
Cd128 O136 2.223 . S
Cd128 O138 2.297 . S
Cd128 O139 2.439 . S
O129 Cd128 2.240 . S
O129 C134 1.279 . S
O130 Cd127 2.297 . S
O130 C132 1.247 . S
O131 Cd127 2.439 . S
O131 C132 1.208 . S
C132 O130 1.247 . S
C132 O131 1.208 . S
C133 O138 1.247 . S
C133 O139 1.208 . S
C134 O126 1.315 . S
C134 O129 1.279 . S
C135 O136 1.315 . S
C135 O137 1.279 . S
O136 Cd128 2.223 . S
O136 C135 1.315 . S
O137 Cd127 2.240 . S
O137 C135 1.279 . S
O138 Cd128 2.297 . S
O138 C133 1.247 . S
O139 Cd128 2.439 . S
O139 C133 1.208 . S
O140 Cd141 2.223 . S
O140 C148 1.315 . S
Cd141 O140 2.223 . S
Cd141 O144 2.297 . S
Cd141 O145 2.439 . S
Cd141 O151 2.240 . S
Cd142 O143 2.240 . S
Cd142 O150 2.223 . S
Cd142 O152 2.297 . S
Cd142 O153 2.439 . S
O143 Cd142 2.240 . S
O143 C148 1.279 . S
O144 Cd141 2.297 . S
O144 C146 1.247 . S
O145 Cd141 2.439 . S
O145 C146 1.208 . S
C146 O144 1.247 . S
C146 O145 1.208 . S
C147 O152 1.247 . S
C147 O153 1.208 . S
C148 O140 1.315 . S
C148 O143 1.279 . S
C149 O150 1.315 . S
C149 O151 1.279 . S
O150 Cd142 2.223 . S
O150 C149 1.315 . S
O151 Cd141 2.240 . S
O151 C149 1.279 . S
O152 Cd142 2.297 . S
O152 C147 1.247 . S
O153 Cd142 2.439 . S
O153 C147 1.208 . S
O154 Cd155 2.223 . S
O154 C162 1.315 . S
Cd155 O154 2.223 . S
Cd155 O158 2.297 . S
Cd155 O159 2.439 . S
Cd155 O165 2.240 . S
Cd156 O157 2.240 . S
Cd156 O164 2.223 . S
Cd156 O166 2.297 . S
Cd156 O167 2.439 . S
O157 Cd156 2.240 . S
O157 C162 1.279 . S
O158 Cd155 2.297 . S
O158 C160 1.247 . S
O159 Cd155 2.439 . S
O159 C160 1.208 . S
C160 O158 1.247 . S
C160 O159 1.208 . S
C161 O166 1.247 . S
C161 O167 1.208 . S
C162 O154 1.315 . S
C162 O157 1.279 . S
C163 O164 1.315 . S
C163 O165 1.279 . S
O164 Cd156 2.223 . S
O164 C163 1.315 . S
O165 Cd155 2.240 . S
O165 C163 1.279 . S
O166 Cd156 2.297 . S
O166 C161 1.247 . S
O167 Cd156 2.439 . S
O167 C161 1.208 . S
O168 Cd169 2.223 . S
O168 C176 1.315 . S
Cd169 O168 2.223 . S
Cd169 O172 2.297 . S
Cd169 O173 2.439 . S
Cd169 O179 2.240 . S
Cd170 O171 2.240 . S
Cd170 O178 2.223 . S
Cd170 O180 2.297 . S
Cd170 O181 2.439 . S
O171 Cd170 2.240 . S
O171 C176 1.279 . S
O172 Cd169 2.297 . S
O172 C174 1.247 . S
O173 Cd169 2.439 . S
O173 C174 1.208 . S
C174 O172 1.247 . S
C174 O173 1.208 . S
C175 O180 1.247 . S
C175 O181 1.208 . S
C176 O168 1.315 . S
C176 O171 1.279 . S
C177 O178 1.315 . S
C177 O179 1.279 . S
O178 Cd170 2.223 . S
O178 C177 1.315 . S
O179 Cd169 2.240 . S
O179 C177 1.279 . S
O180 Cd170 2.297 . S
O180 C175 1.247 . S
O181 Cd170 2.439 . S
O181 C175 1.208 . S
O182 Cd183 2.223 . S
O182 C190 1.315 . S
Cd183 O182 2.223 . S
Cd183 O186 2.297 . S
Cd183 O187 2.439 . S
Cd183 O193 2.240 . S
Cd184 O185 2.240 . S
Cd184 O192 2.223 . S
Cd184 O194 2.297 . S
Cd184 O195 2.439 . S
O185 Cd184 2.240 . S
O185 C190 1.279 . S
O186 Cd183 2.297 . S
O186 C188 1.247 . S
O187 Cd183 2.439 . S
O187 C188 1.208 . S
C188 O186 1.247 . S
C188 O187 1.208 . S
C189 O194 1.247 . S
C189 O195 1.208 . S
C190 O182 1.315 . S
C190 O185 1.279 . S
C191 O192 1.315 . S
C191 O193 1.279 . S
O192 Cd184 2.223 . S
O192 C191 1.315 . S
O193 Cd183 2.240 . S
O193 C191 1.279 . S
O194 Cd184 2.297 . S
O194 C189 1.247 . S
O195 Cd184 2.439 . S
O195 C189 1.208 . S
O196 Cd197 2.223 . S
O196 C204 1.315 . S
Cd197 O196 2.223 . S
Cd197 O200 2.297 . S
Cd197 O201 2.439 . S
Cd197 O207 2.240 . S
Cd198 O199 2.240 . S
Cd198 O206 2.223 . S
Cd198 O208 2.297 . S
Cd198 O209 2.439 . S
O199 Cd198 2.240 . S
O199 C204 1.279 . S
O200 Cd197 2.297 . S
O200 C202 1.247 . S
O201 Cd197 2.439 . S
O201 C202 1.208 . S
C202 O200 1.247 . S
C202 O201 1.208 . S
C203 O208 1.247 . S
C203 O209 1.208 . S
C204 O196 1.315 . S
C204 O199 1.279 . S
C205 O206 1.315 . S
C205 O207 1.279 . S
O206 Cd198 2.223 . S
O206 C205 1.315 . S
O207 Cd197 2.240 . S
O207 C205 1.279 . S
O208 Cd198 2.297 . S
O208 C203 1.247 . S
O209 Cd198 2.439 . S
O209 C203 1.208 . S
O210 Cd211 2.223 . S
O210 C218 1.315 . S
Cd211 O210 2.223 . S
Cd211 O214 2.297 . S
Cd211 O215 2.439 . S
Cd211 O221 2.240 . S
Cd212 O213 2.240 . S
Cd212 O220 2.223 . S
Cd212 O222 2.297 . S
Cd212 O223 2.439 . S
O213 Cd212 2.240 . S
O213 C218 1.279 . S
O214 Cd211 2.297 . S
O214 C216 1.247 . S
O215 Cd211 2.439 . S
O215 C216 1.208 . S
C216 O214 1.247 . S
C216 O215 1.208 . S
C217 O222 1.247 . S
C217 O223 1.208 . S
C218 O210 1.315 . S
C218 O213 1.279 . S
C219 O220 1.315 . S
C219 O221 1.279 . S
O220 Cd212 2.223 . S
O220 C219 1.315 . S
O221 Cd211 2.240 . S
O221 C219 1.279 . S
O222 Cd212 2.297 . S
O222 C217 1.247 . S
O223 Cd212 2.439 . S
O223 C217 1.208 . S
C224 C225 1.391 . S
C224 C226 1.394 . S
C224 H240 0.931 . S
C225 C224 1.391 . S
C225 C229 1.376 1_565 S
C226 C224 1.394 . S
C226 C227 1.360 1_565 S
C226 C230 1.531 . S
C227 C226 1.360 1_545 S
C227 C228 1.416 . S
C227 C235 1.505 . S
C228 C227 1.416 . S
C228 C229 1.392 . S
C228 C231 1.511 . S
C229 C225 1.376 1_545 S
C229 C228 1.392 . S
C229 H241 0.929 . S
C230 C226 1.531 . S
C230 H242 0.960 . S
C230 H243 0.962 . S
C230 H244 0.960 . S
C231 C228 1.511 . S
C231 H245 0.961 . S
C231 H246 0.961 . S
C231 H247 0.961 . S
C232 C233 1.370 1_565 S
C232 C234 1.363 . S
C232 H248 0.931 . S
C233 C232 1.370 1_545 S
C233 C237 1.408 . S
C234 C232 1.363 . S
C234 C235 1.370 1_565 S
C234 C238 1.524 . S
C235 C227 1.505 . S
C235 C234 1.370 1_545 S
C235 C236 1.403 . S
C236 C235 1.403 . S
C236 C237 1.404 . S
C236 C239 1.539 . S
C237 C233 1.408 . S
C237 C236 1.404 . S
C237 H249 0.930 . S
C238 C234 1.524 . S
C238 H250 0.956 . S
C238 H251 0.961 . S
C238 H252 0.961 . S
C239 C236 1.539 . S
C239 H253 0.958 . S
C239 H254 0.961 . S
C239 H255 0.960 . S
H240 C224 0.931 . S
H241 C229 0.929 . S
H242 C230 0.960 . S
H243 C230 0.962 . S
H244 C230 0.960 . S
H245 C231 0.961 . S
H246 C231 0.961 . S
H247 C231 0.961 . S
H248 C232 0.931 . S
H249 C237 0.930 . S
H250 C238 0.956 . S
H251 C238 0.961 . S
H252 C238 0.961 . S
H253 C239 0.958 . S
H254 C239 0.961 . S
H255 C239 0.960 . S
C256 C257 1.391 . S
C256 C258 1.394 . S
C256 H272 0.931 . S
C257 C256 1.391 . S
C257 C261 1.376 1_565 S
C258 C256 1.394 . S
C258 C259 1.369 . S
C258 C262 1.531 . S
C259 C258 1.369 . S
C259 C260 1.410 1_565 S
C259 C267 1.501 1_565 S
C260 C259 1.410 1_545 S
C260 C261 1.392 . S
C260 C263 1.511 . S
C261 C257 1.376 1_545 S
C261 C260 1.392 . S
C261 H273 0.929 . S
C262 C258 1.531 . S
C262 H274 0.960 . S
C262 H275 0.962 . S
C262 H276 0.960 . S
C263 C260 1.511 . S
C263 H277 0.961 . S
C263 H278 0.961 . S
C263 H279 0.961 . S
C264 C265 1.370 . S
C264 C266 1.363 . S
C264 H280 0.931 . S
C265 C264 1.370 . S
C265 C269 1.408 1_545 S
C266 C264 1.363 . S
C266 C267 1.376 . S
C266 C270 1.524 . S
C267 C259 1.501 1_545 S
C267 C266 1.376 . S
C267 C268 1.399 1_545 S
C268 C267 1.399 1_565 S
C268 C269 1.404 . S
C268 C271 1.539 . S
C269 C265 1.408 1_565 S
C269 C268 1.404 . S
C269 H281 0.930 . S
C270 C266 1.524 . S
C270 H282 0.956 . S
C270 H283 0.961 . S
C270 H284 0.961 . S
C271 C268 1.539 . S
C271 H285 0.958 . S
C271 H286 0.961 . S
C271 H287 0.960 . S
H272 C256 0.931 . S
H273 C261 0.929 . S
H274 C262 0.960 . S
H275 C262 0.962 . S
H276 C262 0.960 . S
H277 C263 0.961 . S
H278 C263 0.961 . S
H279 C263 0.961 . S
H280 C264 0.931 . S
H281 C269 0.930 . S
H282 C270 0.956 . S
H283 C270 0.961 . S
H284 C270 0.961 . S
H285 C271 0.958 . S
H286 C271 0.961 . S
H287 C271 0.960 . S
C288 C289 1.391 . S
C288 C290 1.394 . S
C288 H304 0.931 . S
C289 C288 1.391 . S
C289 C293 1.376 1_565 S
C290 C288 1.394 . S
C290 C291 1.355 1_565 S
C290 C294 1.531 . S
C291 C290 1.355 1_545 S
C291 C292 1.419 . S
C291 C299 1.507 . S
C292 C291 1.419 . S
C292 C293 1.392 . S
C292 C295 1.511 . S
C293 C289 1.376 1_545 S
C293 C292 1.392 . S
C293 H305 0.929 . S
C294 C290 1.531 . S
C294 H306 0.960 . S
C294 H307 0.962 . S
C294 H308 0.960 . S
C295 C292 1.511 . S
C295 H309 0.961 . S
C295 H310 0.961 . S
C295 H311 0.961 . S
C296 C297 1.370 1_565 S
C296 C298 1.363 . S
C296 H312 0.931 . S
C297 C296 1.370 1_545 S
C297 C301 1.408 . S
C298 C296 1.363 . S
C298 C299 1.370 1_565 S
C298 C302 1.524 . S
C299 C291 1.507 . S
C299 C298 1.370 1_545 S
C299 C300 1.403 . S
C300 C299 1.403 . S
C300 C301 1.404 . S
C300 C303 1.539 . S
C301 C297 1.408 . S
C301 C300 1.404 . S
C301 H313 0.930 . S
C302 C298 1.524 . S
C302 H314 0.956 . S
C302 H315 0.961 . S
C302 H316 0.961 . S
C303 C300 1.539 . S
C303 H317 0.958 . S
C303 H318 0.961 . S
C303 H319 0.960 . S
H304 C288 0.931 . S
H305 C293 0.929 . S
H306 C294 0.960 . S
H307 C294 0.962 . S
H308 C294 0.960 . S
H309 C295 0.961 . S
H310 C295 0.961 . S
H311 C295 0.961 . S
H312 C296 0.931 . S
H313 C301 0.930 . S
H314 C302 0.956 . S
H315 C302 0.961 . S
H316 C302 0.961 . S
H317 C303 0.958 . S
H318 C303 0.961 . S
H319 C303 0.960 . S
C320 C321 1.391 . S
C320 C322 1.394 . S
C320 H336 0.931 . S
C321 C320 1.391 . S
C321 C325 1.376 . S
C322 C320 1.394 . S
C322 C323 1.369 1_565 S
C322 C326 1.531 . S
C323 C322 1.369 1_545 S
C323 C324 1.410 . S
C323 C331 1.503 . S
C324 C323 1.410 . S
C324 C325 1.392 1_545 S
C324 C327 1.511 . S
C325 C321 1.376 . S
C325 C324 1.392 1_565 S
C325 H337 0.929 . S
C326 C322 1.531 . S
C326 H338 0.960 1_565 S
C326 H339 0.962 . S
C326 H340 0.960 . S
C327 C324 1.511 . S
C327 H341 0.961 . S
C327 H342 0.961 . S
C327 H343 0.961 . S
C328 C329 1.370 1_565 S
C328 C330 1.363 . S
C328 H344 0.931 . S
C329 C328 1.370 1_545 S
C329 C333 1.408 . S
C330 C328 1.363 . S
C330 C331 1.370 1_565 S
C330 C334 1.524 . S
C331 C323 1.503 . S
C331 C330 1.370 1_545 S
C331 C332 1.403 . S
C332 C331 1.403 . S
C332 C333 1.404 . S
C332 C335 1.539 . S
C333 C329 1.408 . S
C333 C332 1.404 . S
C333 H345 0.930 . S
C334 C330 1.524 . S
C334 H346 0.956 . S
C334 H347 0.961 . S
C334 H348 0.961 . S
C335 C332 1.539 . S
C335 H349 0.958 . S
C335 H350 0.961 . S
C335 H351 0.960 . S
H336 C320 0.931 . S
H337 C325 0.929 . S
H338 C326 0.960 1_545 S
H339 C326 0.962 . S
H340 C326 0.960 . S
H341 C327 0.961 . S
H342 C327 0.961 . S
H343 C327 0.961 . S
H344 C328 0.931 . S
H345 C333 0.930 . S
H346 C334 0.956 . S
H347 C334 0.961 . S
H348 C334 0.961 . S
H349 C335 0.958 . S
H350 C335 0.961 . S
H351 C335 0.960 . S
C352 C353 1.391 . S
C352 C354 1.394 . S
C352 H368 0.931 . S
C353 C352 1.391 . S
C353 C357 1.376 . S
C354 C352 1.394 . S
C354 C355 1.369 . S
C354 C358 1.531 . S
C355 C354 1.369 . S
C355 C356 1.410 . S
C355 C363 1.503 . S
C356 C355 1.410 . S
C356 C357 1.392 . S
C356 C359 1.511 . S
C357 C353 1.376 . S
C357 C356 1.392 . S
C357 H369 0.929 . S
C358 C354 1.531 . S
C358 H370 0.960 . S
C358 H371 0.962 . S
C358 H372 0.960 . S
C359 C356 1.511 . S
C359 H373 0.961 . S
C359 H374 0.961 . S
C359 H375 0.961 . S
C360 C361 1.370 . S
C360 C362 1.363 . S
C360 H376 0.931 . S
C361 C360 1.370 . S
C361 C365 1.408 . S
C362 C360 1.363 . S
C362 C363 1.370 . S
C362 C366 1.524 . S
C363 C355 1.503 . S
C363 C362 1.370 . S
C363 C364 1.403 . S
C364 C363 1.403 . S
C364 C365 1.404 . S
C364 C367 1.539 . S
C365 C361 1.408 . S
C365 C364 1.404 . S
C365 H377 0.930 . S
C366 C362 1.524 . S
C366 H378 0.956 . S
C366 H379 0.961 . S
C366 H380 0.961 . S
C367 C364 1.539 . S
C367 H381 0.958 . S
C367 H382 0.961 . S
C367 H383 0.960 . S
H368 C352 0.931 . S
H369 C357 0.929 . S
H370 C358 0.960 . S
H371 C358 0.962 . S
H372 C358 0.960 . S
H373 C359 0.961 . S
H374 C359 0.961 . S
H375 C359 0.961 . S
H376 C360 0.931 . S
H377 C365 0.930 . S
H378 C366 0.956 . S
H379 C366 0.961 . S
H380 C366 0.961 . S
H381 C367 0.958 . S
H382 C367 0.961 . S
H383 C367 0.960 . S
C384 C385 1.391 . S
C384 C386 1.394 . S
C384 H400 0.931 . S
C385 C384 1.391 . S
C385 C389 1.376 . S
C386 C384 1.394 . S
C386 C387 1.369 . S
C386 C390 1.531 . S
C387 C386 1.369 . S
C387 C388 1.410 . S
C387 C395 1.503 . S
C388 C387 1.410 . S
C388 C389 1.392 . S
C388 C391 1.511 . S
C389 C385 1.376 . S
C389 C388 1.392 . S
C389 H401 0.929 . S
C390 C386 1.531 . S
C390 H402 0.960 . S
C390 H403 0.962 . S
C390 H404 0.960 . S
C391 C388 1.511 . S
C391 H405 0.961 . S
C391 H406 0.961 . S
C391 H407 0.961 . S
C392 C393 1.370 . S
C392 C394 1.363 . S
C392 H408 0.931 . S
C393 C392 1.370 . S
C393 C397 1.408 . S
C394 C392 1.363 . S
C394 C395 1.370 . S
C394 C398 1.524 . S
C395 C387 1.503 . S
C395 C394 1.370 . S
C395 C396 1.403 . S
C396 C395 1.403 . S
C396 C397 1.404 . S
C396 C399 1.539 . S
C397 C393 1.408 . S
C397 C396 1.404 . S
C397 H409 0.930 . S
C398 C394 1.524 . S
C398 H410 0.956 . S
C398 H411 0.961 . S
C398 H412 0.961 . S
C399 C396 1.539 . S
C399 H413 0.958 . S
C399 H414 0.961 . S
C399 H415 0.960 . S
H400 C384 0.931 . S
H401 C389 0.929 . S
H402 C390 0.960 . S
H403 C390 0.962 . S
H404 C390 0.960 . S
H405 C391 0.961 . S
H406 C391 0.961 . S
H407 C391 0.961 . S
H408 C392 0.931 . S
H409 C397 0.930 . S
H410 C398 0.956 . S
H411 C398 0.961 . S
H412 C398 0.961 . S
H413 C399 0.958 . S
H414 C399 0.961 . S
H415 C399 0.960 . S
C416 C417 1.391 . S
C416 C418 1.394 . S
C416 H432 0.931 . S
C417 C416 1.391 . S
C417 C421 1.376 . S
C418 C416 1.394 . S
C418 C419 1.369 . S
C418 C422 1.531 . S
C419 C418 1.369 . S
C419 C420 1.410 . S
C419 C427 1.503 . S
C420 C419 1.410 . S
C420 C421 1.392 . S
C420 C423 1.511 . S
C421 C417 1.376 . S
C421 C420 1.392 . S
C421 H433 0.929 . S
C422 C418 1.531 . S
C422 H434 0.960 . S
C422 H435 0.962 . S
C422 H436 0.960 . S
C423 C420 1.511 . S
C423 H437 0.961 . S
C423 H438 0.961 . S
C423 H439 0.961 . S
C424 C425 1.370 . S
C424 C426 1.363 . S
C424 H440 0.931 . S
C425 C424 1.370 . S
C425 C429 1.408 . S
C426 C424 1.363 . S
C426 C427 1.370 . S
C426 C430 1.524 . S
C427 C419 1.503 . S
C427 C426 1.370 . S
C427 C428 1.403 . S
C428 C427 1.403 . S
C428 C429 1.404 . S
C428 C431 1.539 . S
C429 C425 1.408 . S
C429 C428 1.404 . S
C429 H441 0.930 . S
C430 C426 1.524 . S
C430 H442 0.956 . S
C430 H443 0.961 . S
C430 H444 0.961 . S
C431 C428 1.539 . S
C431 H445 0.958 . S
C431 H446 0.961 . S
C431 H447 0.960 . S
H432 C416 0.931 . S
H433 C421 0.929 . S
H434 C422 0.960 . S
H435 C422 0.962 . S
H436 C422 0.960 . S
H437 C423 0.961 . S
H438 C423 0.961 . S
H439 C423 0.961 . S
H440 C424 0.931 . S
H441 C429 0.930 . S
H442 C430 0.956 . S
H443 C430 0.961 . S
H444 C430 0.961 . S
H445 C431 0.958 . S
H446 C431 0.961 . S
H447 C431 0.960 . S
C448 C449 1.391 . S
C448 C450 1.394 . S
C448 H464 0.931 . S
C449 C448 1.391 . S
C449 C453 1.376 . S
C450 C448 1.394 . S
C450 C451 1.369 . S
C450 C454 1.531 . S
C451 C450 1.369 . S
C451 C452 1.410 . S
C451 C459 1.503 . S
C452 C451 1.410 . S
C452 C453 1.392 . S
C452 C455 1.511 . S
C453 C449 1.376 . S
C453 C452 1.392 . S
C453 H465 0.929 . S
C454 C450 1.531 . S
C454 H466 0.960 . S
C454 H467 0.962 . S
C454 H468 0.960 . S
C455 C452 1.511 . S
C455 H469 0.961 . S
C455 H470 0.961 . S
C455 H471 0.961 . S
C456 C457 1.370 . S
C456 C458 1.363 . S
C456 H472 0.931 . S
C457 C456 1.370 . S
C457 C461 1.408 . S
C458 C456 1.363 . S
C458 C459 1.370 . S
C458 C462 1.524 . S
C459 C451 1.503 . S
C459 C458 1.370 . S
C459 C460 1.403 . S
C460 C459 1.403 . S
C460 C461 1.404 . S
C460 C463 1.539 . S
C461 C457 1.408 . S
C461 C460 1.404 . S
C461 H473 0.930 . S
C462 C458 1.524 . S
C462 H474 0.956 . S
C462 H475 0.961 . S
C462 H476 0.961 . S
C463 C460 1.539 . S
C463 H477 0.958 . S
C463 H478 0.961 . S
C463 H479 0.960 . S
H464 C448 0.931 . S
H465 C453 0.929 . S
H466 C454 0.960 . S
H467 C454 0.962 . S
H468 C454 0.960 . S
H469 C455 0.961 . S
H470 C455 0.961 . S
H471 C455 0.961 . S
H472 C456 0.931 . S
H473 C461 0.930 . S
H474 C462 0.956 . S
H475 C462 0.961 . S
H476 C462 0.961 . S
H477 C463 0.958 . S
H478 C463 0.961 . S
H479 C463 0.960 . S
C480 C481 1.363 1_455 S
C480 C482 1.403 . S
C480 H496 0.949 . S
C481 C480 1.363 1_655 S
C481 C485 1.376 . S
C482 C480 1.403 . S
C482 C483 1.369 1_455 S
C482 C486 1.531 . S
C483 C482 1.369 1_655 S
C483 C484 1.410 . S
C483 C491 1.503 1_655 S
C484 C483 1.410 . S
C484 C485 1.392 . S
C484 C487 1.511 . S
C485 C481 1.376 . S
C485 C484 1.392 . S
C485 H497 0.929 . S
C486 C482 1.531 . S
C486 H498 0.960 . S
C486 H499 0.962 . S
C486 H500 0.960 . S
C487 C484 1.511 . S
C487 H501 0.961 . S
C487 H502 0.961 . S
C487 H503 0.961 . S
C488 C489 1.370 . S
C488 C490 1.363 . S
C488 H504 0.931 . S
C489 C488 1.370 . S
C489 C493 1.408 . S
C490 C488 1.363 . S
C490 C491 1.370 . S
C490 C494 1.524 . S
C491 C483 1.503 1_455 S
C491 C490 1.370 . S
C491 C492 1.403 1_455 S
C492 C491 1.403 1_655 S
C492 C493 1.404 1_655 S
C492 C495 1.539 1_545 S
C493 C489 1.408 . S
C493 C492 1.404 1_455 S
C493 H505 0.930 . S
C494 C490 1.524 . S
C494 H506 0.956 . S
C494 H507 0.961 . S
C494 H508 0.961 . S
C495 C492 1.539 1_565 S
C495 H509 0.958 . S
C495 H510 0.961 . S
C495 H511 0.960 1_565 S
H496 C480 0.949 . S
H497 C485 0.929 . S
H498 C486 0.960 . S
H499 C486 0.962 . S
H500 C486 0.960 . S
H501 C487 0.961 . S
H502 C487 0.961 . S
H503 C487 0.961 . S
H504 C488 0.931 . S
H505 C493 0.930 . S
H506 C494 0.956 . S
H507 C494 0.961 . S
H508 C494 0.961 . S
H509 C495 0.958 . S
H510 C495 0.961 . S
H511 C495 0.960 1_545 S
C512 C513 1.391 . S
C512 C514 1.394 . S
C512 H528 0.931 . S
C513 C512 1.391 . S
C513 C517 1.376 . S
C514 C512 1.394 . S
C514 C515 1.369 . S
C514 C518 1.531 . S
C515 C514 1.369 . S
C515 C516 1.410 . S
C515 C523 1.503 . S
C516 C515 1.410 . S
C516 C517 1.392 . S
C516 C519 1.511 . S
C517 C513 1.376 . S
C517 C516 1.392 . S
C517 H529 0.929 . S
C518 C514 1.531 . S
C518 H530 0.960 . S
C518 H531 0.962 . S
C518 H532 0.960 . S
C519 C516 1.511 . S
C519 H533 0.961 . S
C519 H534 0.961 . S
C519 H535 0.961 . S
C520 C521 1.370 . S
C520 C522 1.363 . S
C520 H536 0.931 . S
C521 C520 1.370 . S
C521 C525 1.408 . S
C522 C520 1.363 . S
C522 C523 1.370 . S
C522 C526 1.524 . S
C523 C515 1.503 . S
C523 C522 1.370 . S
C523 C524 1.403 . S
C524 C523 1.403 . S
C524 C525 1.404 . S
C524 C527 1.539 . S
C525 C521 1.408 . S
C525 C524 1.404 . S
C525 H537 0.930 . S
C526 C522 1.524 . S
C526 H538 0.956 . S
C526 H539 0.962 . S
C526 H540 0.961 1_565 S
C527 C524 1.539 . S
C527 H541 0.958 . S
C527 H542 0.961 . S
C527 H543 0.960 . S
H528 C512 0.931 . S
H529 C517 0.929 . S
H530 C518 0.960 . S
H531 C518 0.962 . S
H532 C518 0.960 . S
H533 C519 0.961 . S
H534 C519 0.961 . S
H535 C519 0.961 . S
H536 C520 0.931 . S
H537 C525 0.930 . S
H538 C526 0.956 . S
H539 C526 0.962 . S
H540 C526 0.961 1_545 S
H541 C527 0.958 . S
H542 C527 0.961 . S
H543 C527 0.960 . S
C544 C545 1.391 1_655 S
C544 C546 1.394 . S
C544 H560 0.931 . S
C545 C544 1.391 1_455 S
C545 C549 1.376 . S
C546 C544 1.394 . S
C546 C547 1.369 1_655 S
C546 C550 1.531 . S
C547 C546 1.369 1_455 S
C547 C548 1.410 . S
C547 C555 1.503 1_455 S
C548 C547 1.410 . S
C548 C549 1.392 . S
C548 C551 1.511 . S
C549 C545 1.376 . S
C549 C548 1.392 . S
C549 H561 0.929 . S
C550 C546 1.531 . S
C550 H562 0.960 . S
C550 H563 0.962 . S
C550 H564 0.960 . S
C551 C548 1.511 . S
C551 H565 0.961 . S
C551 H566 0.961 . S
C551 H567 0.961 . S
C552 C553 1.370 . S
C552 C554 1.363 . S
C552 H568 0.931 . S
C553 C552 1.370 . S
C553 C557 1.408 . S
C554 C552 1.363 . S
C554 C555 1.370 . S
C554 C558 1.524 . S
C555 C547 1.503 1_655 S
C555 C554 1.370 . S
C555 C556 1.402 1_655 S
C556 C555 1.402 1_455 S
C556 C557 1.403 1_455 S
C556 C559 1.540 . S
C557 C553 1.408 . S
C557 C556 1.403 1_655 S
C557 H569 0.930 . S
C558 C554 1.524 . S
C558 H570 0.956 . S
C558 H571 0.954 1_565 S
C558 H572 0.961 1_565 S
C559 C556 1.540 . S
C559 H573 0.958 . S
C559 H574 0.961 . S
C559 H575 0.960 . S
H560 C544 0.931 . S
H561 C549 0.929 . S
H562 C550 0.960 . S
H563 C550 0.962 . S
H564 C550 0.960 . S
H565 C551 0.961 . S
H566 C551 0.961 . S
H567 C551 0.961 . S
H568 C552 0.931 . S
H569 C557 0.930 . S
H570 C558 0.956 . S
H571 C558 0.954 1_545 S
H572 C558 0.961 1_545 S
H573 C559 0.958 . S
H574 C559 0.961 . S
H575 C559 0.960 . S
C576 C577 1.391 . S
C576 C578 1.394 . S
C576 H592 0.931 . S
C577 C576 1.391 . S
C577 C581 1.376 . S
C578 C576 1.394 . S
C578 C579 1.369 . S
C578 C582 1.531 . S
C579 C578 1.369 . S
C579 C580 1.410 . S
C579 C587 1.503 . S
C580 C579 1.410 . S
C580 C581 1.392 . S
C580 C583 1.511 . S
C581 C577 1.376 . S
C581 C580 1.392 . S
C581 H593 0.929 . S
C582 C578 1.531 . S
C582 H594 0.960 . S
C582 H595 0.962 . S
C582 H596 0.960 . S
C583 C580 1.511 . S
C583 H597 0.961 1_545 S
C583 H598 0.960 1_545 S
C583 H599 0.961 . S
C584 C585 1.370 . S
C584 C586 1.363 . S
C584 H600 0.931 . S
C585 C584 1.370 . S
C585 C589 1.408 . S
C586 C584 1.363 . S
C586 C587 1.370 . S
C586 C590 1.524 . S
C587 C579 1.503 . S
C587 C586 1.370 . S
C587 C588 1.403 . S
C588 C587 1.403 . S
C588 C589 1.404 . S
C588 C591 1.539 . S
C589 C585 1.408 . S
C589 C588 1.404 . S
C589 H601 0.930 . S
C590 C586 1.524 . S
C590 H602 0.956 . S
C590 H603 0.961 . S
C590 H604 0.961 . S
C591 C588 1.539 . S
C591 H605 0.958 . S
C591 H606 0.961 . S
C591 H607 0.960 . S
H592 C576 0.931 . S
H593 C581 0.929 . S
H594 C582 0.960 . S
H595 C582 0.962 . S
H596 C582 0.960 . S
H597 C583 0.961 1_565 S
H598 C583 0.960 1_565 S
H599 C583 0.961 . S
H600 C584 0.931 . S
H601 C589 0.930 . S
H602 C590 0.956 . S
H603 C590 0.961 . S
H604 C590 0.961 . S
H605 C591 0.958 . S
H606 C591 0.961 . S
H607 C591 0.960 . S
C608 C609 1.391 . S
C608 C610 1.394 . S
C608 H624 0.931 . S
C609 C608 1.391 . S
C609 C613 1.376 . S
C610 C608 1.394 . S
C610 C611 1.369 . S
C610 C614 1.531 . S
C611 C610 1.369 . S
C611 C612 1.410 . S
C611 C619 1.503 . S
C612 C611 1.410 . S
C612 C613 1.392 . S
C612 C615 1.511 . S
C613 C609 1.376 . S
C613 C612 1.392 . S
C613 H625 0.929 . S
C614 C610 1.531 . S
C614 H626 0.960 . S
C614 H627 0.962 . S
C614 H628 0.960 . S
C615 C612 1.511 . S
C615 H629 0.961 . S
C615 H630 0.961 . S
C615 H631 0.961 . S
C616 C617 1.370 . S
C616 C618 1.363 . S
C616 H632 0.931 . S
C617 C616 1.370 . S
C617 C621 1.408 . S
C618 C616 1.363 . S
C618 C619 1.370 . S
C618 C622 1.524 . S
C619 C611 1.503 . S
C619 C618 1.370 . S
C619 C620 1.403 . S
C620 C619 1.403 . S
C620 C621 1.404 . S
C620 C623 1.539 . S
C621 C617 1.408 . S
C621 C620 1.404 . S
C621 H633 0.930 . S
C622 C618 1.524 . S
C622 H634 0.956 . S
C622 H635 0.961 . S
C622 H636 0.961 . S
C623 C620 1.539 . S
C623 H637 0.958 . S
C623 H638 0.961 . S
C623 H639 0.960 . S
H624 C608 0.931 . S
H625 C613 0.929 . S
H626 C614 0.960 . S
H627 C614 0.962 . S
H628 C614 0.960 . S
H629 C615 0.961 . S
H630 C615 0.961 . S
H631 C615 0.961 . S
H632 C616 0.931 . S
H633 C621 0.930 . S
H634 C622 0.956 . S
H635 C622 0.961 . S
H636 C622 0.961 . S
H637 C623 0.958 . S
H638 C623 0.961 . S
H639 C623 0.960 . S
C640 C641 1.391 . S
C640 C642 1.394 . S
C640 H656 0.931 . S
C641 C640 1.391 . S
C641 C645 1.376 1_455 S
C642 C640 1.394 . S
C642 C643 1.369 . S
C642 C646 1.531 . S
C643 C642 1.369 . S
C643 C644 1.410 1_455 S
C643 C651 1.503 1_455 S
C644 C643 1.410 1_655 S
C644 C645 1.392 . S
C644 C647 1.511 . S
C645 C641 1.376 1_655 S
C645 C644 1.392 . S
C645 H657 0.929 . S
C646 C642 1.531 . S
C646 H658 0.960 . S
C646 H659 0.962 . S
C646 H660 0.960 . S
C647 C644 1.511 . S
C647 H661 0.961 . S
C647 H662 0.961 . S
C647 H663 0.961 . S
C648 C649 1.370 . S
C648 C650 1.363 1_655 S
C648 H664 0.931 1_655 S
C649 C648 1.370 . S
C649 C653 1.408 . S
C650 C648 1.363 1_455 S
C650 C651 1.370 1_455 S
C650 C654 1.524 . S
C651 C643 1.503 1_655 S
C651 C650 1.370 1_655 S
C651 C652 1.403 . S
C652 C651 1.403 . S
C652 C653 1.404 . S
C652 C655 1.539 . S
C653 C649 1.408 . S
C653 C652 1.404 . S
C653 H665 0.930 . S
C654 C650 1.524 . S
C654 H666 0.956 . S
C654 H667 0.961 . S
C654 H668 0.961 . S
C655 C652 1.539 . S
C655 H669 0.958 . S
C655 H670 0.961 . S
C655 H671 0.960 . S
H656 C640 0.931 . S
H657 C645 0.929 . S
H658 C646 0.960 . S
H659 C646 0.962 . S
H660 C646 0.960 . S
H661 C647 0.961 . S
H662 C647 0.961 . S
H663 C647 0.961 . S
H664 C648 0.931 1_455 S
H665 C653 0.930 . S
H666 C654 0.956 . S
H667 C654 0.961 . S
H668 C654 0.961 . S
H669 C655 0.958 . S
H670 C655 0.961 . S
H671 C655 0.960 . S
C672 C673 1.391 . S
C672 C674 1.394 . S
C672 H688 0.931 . S
C673 C672 1.391 . S
C673 C677 1.376 . S
C674 C672 1.394 . S
C674 C675 1.369 . S
C674 C678 1.531 . S
C675 C674 1.369 . S
C675 C676 1.410 . S
C675 C683 1.503 . S
C676 C675 1.410 . S
C676 C677 1.392 . S
C676 C679 1.511 . S
C677 C673 1.376 . S
C677 C676 1.392 . S
C677 H689 0.929 . S
C678 C674 1.531 . S
C678 H690 0.960 . S
C678 H691 0.962 . S
C678 H692 0.960 . S
C679 C676 1.511 . S
C679 H693 0.961 . S
C679 H694 0.961 . S
C679 H695 0.961 . S
C680 C681 1.370 . S
C680 C682 1.363 . S
C680 H696 0.931 . S
C681 C680 1.370 . S
C681 C685 1.408 . S
C682 C680 1.363 . S
C682 C683 1.370 . S
C682 C686 1.524 . S
C683 C675 1.503 . S
C683 C682 1.370 . S
C683 C684 1.403 . S
C684 C683 1.403 . S
C684 C685 1.404 . S
C684 C687 1.539 . S
C685 C681 1.408 . S
C685 C684 1.404 . S
C685 H697 0.930 . S
C686 C682 1.524 . S
C686 H698 0.956 . S
C686 H699 0.961 . S
C686 H700 0.961 . S
C687 C684 1.539 . S
C687 H701 0.958 . S
C687 H702 0.961 . S
C687 H703 0.960 . S
H688 C672 0.931 . S
H689 C677 0.929 . S
H690 C678 0.960 . S
H691 C678 0.962 . S
H692 C678 0.960 . S
H693 C679 0.961 . S
H694 C679 0.961 . S
H695 C679 0.961 . S
H696 C680 0.931 . S
H697 C685 0.930 . S
H698 C686 0.956 . S
H699 C686 0.961 . S
H700 C686 0.961 . S
H701 C687 0.958 . S
H702 C687 0.961 . S
H703 C687 0.960 . S
C704 C705 1.406 . S
C704 C706 1.389 1_455 S
C704 H720 0.921 1_455 S
C705 C704 1.406 . S
C705 C709 1.376 . S
C706 C704 1.389 1_655 S
C706 C707 1.369 1_655 S
C706 C710 1.531 . S
C707 C706 1.369 1_455 S
C707 C708 1.410 . S
C707 C715 1.503 1_455 S
C708 C707 1.410 . S
C708 C709 1.392 . S
C708 C711 1.511 . S
C709 C705 1.376 . S
C709 C708 1.392 . S
C709 H721 0.929 . S
C710 C706 1.531 . S
C710 H722 0.960 . S
C710 H723 0.962 . S
C710 H724 0.960 . S
C711 C708 1.511 . S
C711 H725 0.961 . S
C711 H726 0.961 . S
C711 H727 0.961 . S
C712 C713 1.370 . S
C712 C714 1.363 . S
C712 H728 0.931 . S
C713 C712 1.370 . S
C713 C717 1.408 . S
C714 C712 1.363 . S
C714 C715 1.370 . S
C714 C718 1.524 . S
C715 C707 1.503 1_655 S
C715 C714 1.370 . S
C715 C716 1.403 1_655 S
C716 C715 1.403 1_455 S
C716 C717 1.404 1_455 S
C716 C719 1.539 . S
C717 C713 1.408 . S
C717 C716 1.404 1_655 S
C717 H729 0.930 . S
C718 C714 1.524 . S
C718 H730 0.956 . S
C718 H731 0.961 . S
C718 H732 0.961 . S
C719 C716 1.539 . S
C719 H733 0.958 . S
C719 H734 0.961 . S
C719 H735 0.960 . S
H720 C704 0.921 1_655 S
H721 C709 0.929 . S
H722 C710 0.960 . S
H723 C710 0.962 . S
H724 C710 0.960 . S
H725 C711 0.961 . S
H726 C711 0.961 . S
H727 C711 0.961 . S
H728 C712 0.931 . S
H729 C717 0.930 . S
H730 C718 0.956 . S
H731 C718 0.961 . S
H732 C718 0.961 . S
H733 C719 0.958 . S
H734 C719 0.961 . S
H735 C719 0.960 . S
C736 C737 1.391 . S
C736 C738 1.394 . S
C736 H752 0.931 . S
C737 C736 1.391 . S
C737 C741 1.376 . S
C738 C736 1.394 . S
C738 C739 1.369 . S
C738 C742 1.531 . S
C739 C738 1.369 . S
C739 C740 1.410 1_455 S
C739 C747 1.503 1_455 S
C740 C739 1.410 1_655 S
C740 C741 1.392 1_655 S
C740 C743 1.511 . S
C741 C737 1.376 . S
C741 C740 1.392 1_455 S
C741 H753 0.929 1_455 S
C742 C738 1.531 . S
C742 H754 0.960 . S
C742 H755 0.962 . S
C742 H756 0.960 . S
C743 C740 1.511 . S
C743 H757 0.961 . S
C743 H758 0.961 . S
C743 H759 0.961 . S
C744 C745 1.370 . S
C744 C746 1.363 . S
C744 H760 0.931 . S
C745 C744 1.370 . S
C745 C749 1.408 . S
C746 C744 1.363 . S
C746 C747 1.370 . S
C746 C750 1.524 . S
C747 C739 1.503 1_655 S
C747 C746 1.370 . S
C747 C748 1.403 1_655 S
C748 C747 1.403 1_455 S
C748 C749 1.404 1_455 S
C748 C751 1.539 . S
C749 C745 1.408 . S
C749 C748 1.404 1_655 S
C749 H761 0.930 1_655 S
C750 C746 1.524 . S
C750 H762 0.956 . S
C750 H763 0.961 . S
C750 H764 0.961 . S
C751 C748 1.539 . S
C751 H765 0.958 . S
C751 H766 0.961 . S
C751 H767 0.960 . S
H752 C736 0.931 . S
H753 C741 0.929 1_655 S
H754 C742 0.960 . S
H755 C742 0.962 . S
H756 C742 0.960 . S
H757 C743 0.961 . S
H758 C743 0.961 . S
H759 C743 0.961 . S
H760 C744 0.931 . S
H761 C749 0.930 1_455 S
H762 C750 0.956 . S
H763 C750 0.961 . S
H764 C750 0.961 . S
H765 C751 0.958 . S
H766 C751 0.961 . S
H767 C751 0.960 . S
C768 C769 1.391 . S
C768 C770 1.394 . S
C768 H784 0.931 . S
C769 C768 1.391 . S
C769 C773 1.376 . S
C770 C768 1.394 . S
C770 C771 1.369 . S
C770 C774 1.531 . S
C771 C770 1.369 . S
C771 C772 1.410 . S
C771 C779 1.503 . S
C772 C771 1.410 . S
C772 C773 1.392 . S
C772 C775 1.511 . S
C773 C769 1.376 . S
C773 C772 1.392 . S
C773 H785 0.929 . S
C774 C770 1.531 . S
C774 H786 0.960 . S
C774 H787 0.962 . S
C774 H788 0.960 . S
C775 C772 1.511 . S
C775 H789 0.961 . S
C775 H790 0.961 . S
C775 H791 0.961 . S
C776 C777 1.370 . S
C776 C778 1.363 . S
C776 H792 0.931 . S
C777 C776 1.370 . S
C777 C781 1.408 . S
C778 C776 1.363 . S
C778 C779 1.370 . S
C778 C782 1.524 . S
C779 C771 1.503 . S
C779 C778 1.370 . S
C779 C780 1.403 . S
C780 C779 1.403 . S
C780 C781 1.404 . S
C780 C783 1.539 . S
C781 C777 1.408 . S
C781 C780 1.404 . S
C781 H793 0.930 . S
C782 C778 1.524 . S
C782 H794 0.956 . S
C782 H795 0.961 . S
C782 H796 0.961 . S
C783 C780 1.539 . S
C783 H797 0.958 . S
C783 H798 0.961 . S
C783 H799 0.960 . S
H784 C768 0.931 . S
H785 C773 0.929 . S
H786 C774 0.960 . S
H787 C774 0.962 . S
H788 C774 0.960 . S
H789 C775 0.961 . S
H790 C775 0.961 . S
H791 C775 0.961 . S
H792 C776 0.931 . S
H793 C781 0.930 . S
H794 C782 0.956 . S
H795 C782 0.961 . S
H796 C782 0.961 . S
H797 C783 0.958 . S
H798 C783 0.961 . S
H799 C783 0.960 . S
C800 C801 1.391 . S
C800 C802 1.394 . S
C800 H816 0.931 . S
C801 C800 1.391 . S
C801 C805 1.376 . S
C802 C800 1.394 . S
C802 C803 1.369 . S
C802 C806 1.531 . S
C803 C802 1.369 . S
C803 C804 1.410 . S
C803 C811 1.503 . S
C804 C803 1.410 . S
C804 C805 1.392 . S
C804 C807 1.511 . S
C805 C801 1.376 . S
C805 C804 1.392 . S
C805 H817 0.929 . S
C806 C802 1.531 . S
C806 H818 0.960 . S
C806 H819 0.962 . S
C806 H820 0.960 . S
C807 C804 1.511 . S
C807 H821 0.961 . S
C807 H822 0.961 . S
C807 H823 0.961 . S
C808 C809 1.370 . S
C808 C810 1.363 . S
C808 H824 0.931 . S
C809 C808 1.370 . S
C809 C813 1.408 . S
C810 C808 1.363 . S
C810 C811 1.370 . S
C810 C814 1.524 . S
C811 C803 1.503 . S
C811 C810 1.370 . S
C811 C812 1.403 . S
C812 C811 1.403 . S
C812 C813 1.404 . S
C812 C815 1.539 . S
C813 C809 1.408 . S
C813 C812 1.404 . S
C813 H825 0.930 . S
C814 C810 1.524 . S
C814 H826 0.956 . S
C814 H827 0.961 . S
C814 H828 0.961 . S
C815 C812 1.539 . S
C815 H829 0.958 . S
C815 H830 0.961 . S
C815 H831 0.960 . S
H816 C800 0.931 . S
H817 C805 0.929 . S
H818 C806 0.960 . S
H819 C806 0.962 . S
H820 C806 0.960 . S
H821 C807 0.961 . S
H822 C807 0.961 . S
H823 C807 0.961 . S
H824 C808 0.931 . S
H825 C813 0.930 . S
H826 C814 0.956 . S
H827 C814 0.961 . S
H828 C814 0.961 . S
H829 C815 0.958 . S
H830 C815 0.961 . S
H831 C815 0.960 . S
C832 C833 1.391 . S
C832 C834 1.394 . S
C832 H848 0.931 . S
C833 C832 1.391 . S
C833 C837 1.376 . S
C834 C832 1.394 . S
C834 C835 1.369 1_455 S
C834 C838 1.531 . S
C835 C834 1.369 1_655 S
C835 C836 1.410 1_655 S
C835 C843 1.503 . S
C836 C835 1.410 1_455 S
C836 C837 1.392 . S
C836 C839 1.511 1_455 S
C837 C833 1.376 . S
C837 C836 1.392 . S
C837 H849 0.929 . S
C838 C834 1.531 . S
C838 H850 0.960 1_455 S
C838 H851 0.962 . S
C838 H852 0.955 1_455 S
C839 C836 1.511 1_655 S
C839 H853 0.961 1_655 S
C839 H854 0.961 . S
C839 H855 0.961 . S
C840 C841 1.370 1_455 S
C840 C842 1.363 . S
C840 H856 0.931 . S
C841 C840 1.370 1_655 S
C841 C845 1.408 . S
C842 C840 1.363 . S
C842 C843 1.370 1_455 S
C842 C846 1.524 . S
C843 C835 1.503 . S
C843 C842 1.370 1_655 S
C843 C844 1.403 . S
C844 C843 1.403 . S
C844 C845 1.404 . S
C844 C847 1.539 . S
C845 C841 1.408 . S
C845 C844 1.404 . S
C845 H857 0.930 . S
C846 C842 1.524 . S
C846 H858 0.956 . S
C846 H859 0.961 . S
C846 H860 0.961 . S
C847 C844 1.539 . S
C847 H861 0.958 . S
C847 H862 0.961 . S
C847 H863 0.960 . S
H848 C832 0.931 . S
H849 C837 0.929 . S
H850 C838 0.960 1_655 S
H851 C838 0.962 . S
H852 C838 0.955 1_655 S
H853 C839 0.961 1_455 S
H854 C839 0.961 . S
H855 C839 0.961 . S
H856 C840 0.931 . S
H857 C845 0.930 . S
H858 C846 0.956 . S
H859 C846 0.961 . S
H860 C846 0.961 . S
H861 C847 0.958 . S
H862 C847 0.961 . S
H863 C847 0.960 . S
C864 C865 1.391 . S
C864 C866 1.394 . S
C864 H880 0.931 . S
C865 C864 1.391 . S
C865 C869 1.376 . S
C866 C864 1.394 . S
C866 C867 1.357 1_455 S
C866 C870 1.531 . S
C867 C866 1.357 1_655 S
C867 C868 1.414 . S
C867 C875 1.509 . S
C868 C867 1.414 . S
C868 C869 1.392 1_655 S
C868 C871 1.511 . S
C869 C865 1.376 . S
C869 C868 1.392 1_455 S
C869 H881 0.929 . S
C870 C866 1.531 . S
C870 H882 0.960 . S
C870 H883 0.962 . S
C870 H884 0.960 . S
C871 C868 1.511 . S
C871 H885 0.961 . S
C871 H886 0.961 . S
C871 H887 0.961 . S
C872 C873 1.370 1_455 S
C872 C874 1.363 . S
C872 H888 0.931 . S
C873 C872 1.370 1_655 S
C873 C877 1.408 . S
C874 C872 1.363 . S
C874 C875 1.370 1_455 S
C874 C878 1.524 . S
C875 C867 1.509 . S
C875 C874 1.370 1_655 S
C875 C876 1.403 . S
C876 C875 1.403 . S
C876 C877 1.404 . S
C876 C879 1.539 . S
C877 C873 1.408 . S
C877 C876 1.404 . S
C877 H889 0.930 . S
C878 C874 1.524 . S
C878 H890 0.956 . S
C878 H891 0.961 . S
C878 H892 0.961 . S
C879 C876 1.539 . S
C879 H893 0.958 . S
C879 H894 0.961 . S
C879 H895 0.960 . S
H880 C864 0.931 . S
H881 C869 0.929 . S
H882 C870 0.960 . S
H883 C870 0.962 . S
H884 C870 0.960 . S
H885 C871 0.961 . S
H886 C871 0.961 . S
H887 C871 0.961 . S
H888 C872 0.931 . S
H889 C877 0.930 . S
H890 C878 0.956 . S
H891 C878 0.961 . S
H892 C878 0.961 . S
H893 C879 0.958 . S
H894 C879 0.961 . S
H895 C879 0.960 . S
C896 C897 1.391 . S
C896 C898 1.394 . S
C896 H912 0.931 . S
C897 C896 1.391 . S
C897 C901 1.376 . S
C898 C896 1.394 . S
C898 C899 1.369 . S
C898 C902 1.531 . S
C899 C898 1.369 . S
C899 C900 1.410 . S
C899 C907 1.503 . S
C900 C899 1.410 . S
C900 C901 1.392 . S
C900 C903 1.511 . S
C901 C897 1.376 . S
C901 C900 1.392 . S
C901 H913 0.929 . S
C902 C898 1.531 . S
C902 H914 0.960 . S
C902 H915 0.962 . S
C902 H916 0.960 . S
C903 C900 1.511 . S
C903 H917 0.961 . S
C903 H918 0.961 . S
C903 H919 0.961 . S
C904 C905 1.370 . S
C904 C906 1.363 . S
C904 H920 0.931 . S
C905 C904 1.370 . S
C905 C909 1.408 . S
C906 C904 1.363 . S
C906 C907 1.370 . S
C906 C910 1.524 . S
C907 C899 1.503 . S
C907 C906 1.370 . S
C907 C908 1.403 . S
C908 C907 1.403 . S
C908 C909 1.404 . S
C908 C911 1.539 . S
C909 C905 1.408 . S
C909 C908 1.404 . S
C909 H921 0.930 . S
C910 C906 1.524 . S
C910 H922 0.956 . S
C910 H923 0.961 . S
C910 H924 0.961 . S
C911 C908 1.539 . S
C911 H925 0.958 . S
C911 H926 0.961 . S
C911 H927 0.960 . S
H912 C896 0.931 . S
H913 C901 0.929 . S
H914 C902 0.960 . S
H915 C902 0.962 . S
H916 C902 0.960 . S
H917 C903 0.961 . S
H918 C903 0.961 . S
H919 C903 0.961 . S
H920 C904 0.931 . S
H921 C909 0.930 . S
H922 C910 0.956 . S
H923 C910 0.961 . S
H924 C910 0.961 . S
H925 C911 0.958 . S
H926 C911 0.961 . S
H927 C911 0.960 . S
C928 C929 1.391 . S
C928 C930 1.394 . S
C928 H944 0.931 . S
C929 C928 1.391 . S
C929 C933 1.376 . S
C930 C928 1.394 . S
C930 C931 1.369 . S
C930 C934 1.531 . S
C931 C930 1.369 . S
C931 C932 1.410 . S
C931 C939 1.503 . S
C932 C931 1.410 . S
C932 C933 1.392 . S
C932 C935 1.511 . S
C933 C929 1.376 . S
C933 C932 1.392 . S
C933 H945 0.929 . S
C934 C930 1.531 . S
C934 H946 0.960 . S
C934 H947 0.962 . S
C934 H948 0.960 . S
C935 C932 1.511 . S
C935 H949 0.961 . S
C935 H950 0.961 . S
C935 H951 0.961 . S
C936 C937 1.370 . S
C936 C938 1.363 . S
C936 H952 0.931 . S
C937 C936 1.370 . S
C937 C941 1.408 . S
C938 C936 1.363 . S
C938 C939 1.370 . S
C938 C942 1.524 . S
C939 C931 1.503 . S
C939 C938 1.370 . S
C939 C940 1.403 . S
C940 C939 1.403 . S
C940 C941 1.404 . S
C940 C943 1.539 . S
C941 C937 1.408 . S
C941 C940 1.404 . S
C941 H953 0.930 . S
C942 C938 1.524 . S
C942 H954 0.956 . S
C942 H955 0.961 . S
C942 H956 0.961 . S
C943 C940 1.539 . S
C943 H957 0.958 . S
C943 H958 0.961 . S
C943 H959 0.960 . S
H944 C928 0.931 . S
H945 C933 0.929 . S
H946 C934 0.960 . S
H947 C934 0.962 . S
H948 C934 0.960 . S
H949 C935 0.961 . S
H950 C935 0.961 . S
H951 C935 0.961 . S
H952 C936 0.931 . S
H953 C941 0.930 . S
H954 C942 0.956 . S
H955 C942 0.961 . S
H956 C942 0.961 . S
H957 C943 0.958 . S
H958 C943 0.961 . S
H959 C943 0.960 . S
C960 C961 1.391 . S
C960 C962 1.394 . S
C960 H976 0.931 . S
C961 C960 1.391 . S
C961 C965 1.376 1_455 S
C962 C960 1.394 . S
C962 C963 1.369 . S
C962 C966 1.531 . S
C963 C962 1.369 . S
C963 C964 1.410 1_455 S
C963 C971 1.503 1_455 S
C964 C963 1.410 1_655 S
C964 C965 1.392 . S
C964 C967 1.511 . S
C965 C961 1.376 1_655 S
C965 C964 1.392 . S
C965 H977 0.929 . S
C966 C962 1.531 . S
C966 H978 0.960 . S
C966 H979 0.962 . S
C966 H980 0.960 . S
C967 C964 1.511 . S
C967 H981 0.961 . S
C967 H982 0.961 . S
C967 H983 0.961 . S
C968 C969 1.370 . S
C968 C970 1.363 1_655 S
C968 H984 0.931 1_655 S
C969 C968 1.370 . S
C969 C973 1.408 . S
C970 C968 1.363 1_455 S
C970 C971 1.370 1_455 S
C970 C974 1.524 . S
C971 C963 1.503 1_655 S
C971 C970 1.370 1_655 S
C971 C972 1.403 . S
C972 C971 1.403 . S
C972 C973 1.404 . S
C972 C975 1.539 . S
C973 C969 1.408 . S
C973 C972 1.404 . S
C973 H985 0.930 . S
C974 C970 1.524 . S
C974 H986 0.956 . S
C974 H987 0.961 . S
C974 H988 0.961 . S
C975 C972 1.539 . S
C975 H989 0.958 . S
C975 H990 0.961 . S
C975 H991 0.960 . S
H976 C960 0.931 . S
H977 C965 0.929 . S
H978 C966 0.960 . S
H979 C966 0.962 . S
H980 C966 0.960 . S
H981 C967 0.961 . S
H982 C967 0.961 . S
H983 C967 0.961 . S
H984 C968 0.931 1_455 S
H985 C973 0.930 . S
H986 C974 0.956 . S
H987 C974 0.961 . S
H988 C974 0.961 . S
H989 C975 0.958 . S
H990 C975 0.961 . S
H991 C975 0.960 . S
C992 C993 1.391 . S
C992 C994 1.394 1_665 S
C992 H1008 0.931 1_655 S
C993 C992 1.391 . S
C993 C997 1.376 . S
C994 C992 1.394 1_445 S
C994 C995 1.368 1_445 S
C994 C998 1.531 . S
C995 C994 1.368 1_665 S
C995 C996 1.413 . S
C995 C1003 1.501 1_666 S
C996 C995 1.413 . S
C996 C997 1.392 . S
C996 C999 1.511 1_556 S
C997 C993 1.376 . S
C997 C996 1.392 . S
C997 H1009 0.929 . S
C998 C994 1.531 . S
C998 H1010 0.960 . S
C998 H1011 0.962 . S
C998 H1012 0.960 . S
C999 C996 1.511 1_554 S
C999 H1013 0.961 . S
C999 H1014 0.961 . S
C999 H1015 0.965 . S
C1000 C1001 1.370 . S
C1000 C1002 1.363 1_545 S
C1000 H1016 0.931 1_545 S
C1001 C1000 1.370 . S
C1001 C1005 1.408 . S
C1002 C1000 1.363 1_565 S
C1002 C1003 1.370 1_565 S
C1002 C1006 1.524 . S
C1003 C995 1.501 1_444 S
C1003 C1002 1.370 1_545 S
C1003 C1004 1.397 1_455 S
C1004 C1003 1.397 1_655 S
C1004 C1005 1.389 1_655 S
C1004 C1007 1.563 . S
C1005 C1001 1.408 . S
C1005 C1004 1.389 1_455 S
C1005 H1017 0.930 . S
C1006 C1002 1.524 . S
C1006 H1018 0.977 . S
C1006 H1019 0.961 . S
C1006 H1020 0.961 . S
C1007 C1004 1.563 . S
C1007 H1021 0.958 1_554 S
C1007 H1022 0.961 . S
C1007 H1023 0.960 1_554 S
H1008 C992 0.931 1_455 S
H1009 C997 0.929 . S
H1010 C998 0.960 . S
H1011 C998 0.962 . S
H1012 C998 0.960 . S
H1013 C999 0.961 . S
H1014 C999 0.961 . S
H1015 C999 0.965 . S
H1016 C1000 0.931 1_565 S
H1017 C1005 0.930 . S
H1018 C1006 0.977 . S
H1019 C1006 0.961 . S
H1020 C1006 0.961 . S
H1021 C1007 0.958 1_556 S
H1022 C1007 0.961 . S
H1023 C1007 0.960 1_556 S
C1024 C1025 1.391 . S
C1024 C1026 1.394 . S
C1024 H1040 0.931 . S
C1025 C1024 1.391 . S
C1025 C1029 1.376 . S
C1026 C1024 1.394 . S
C1026 C1027 1.369 . S
C1026 C1030 1.531 1_556 S
C1027 C1026 1.369 . S
C1027 C1028 1.410 . S
C1027 C1035 1.503 1_546 S
C1028 C1027 1.410 . S
C1028 C1029 1.392 . S
C1028 C1031 1.511 1_545 S
C1029 C1025 1.376 . S
C1029 C1028 1.392 . S
C1029 H1041 0.929 . S
C1030 C1026 1.531 1_554 S
C1030 H1042 0.960 . S
C1030 H1043 0.962 . S
C1030 H1044 0.960 . S
C1031 C1028 1.511 1_565 S
C1031 H1045 0.961 . S
C1031 H1046 0.961 . S
C1031 H1047 0.961 1_565 S
C1032 C1033 1.370 . S
C1032 C1034 1.363 . S
C1032 H1048 0.931 . S
C1033 C1032 1.370 . S
C1033 C1037 1.399 1_565 S
C1034 C1032 1.363 . S
C1034 C1035 1.370 . S
C1034 C1038 1.524 . S
C1035 C1027 1.503 1_564 S
C1035 C1034 1.370 . S
C1035 C1036 1.403 1_565 S
C1036 C1035 1.403 1_545 S
C1036 C1037 1.408 . S
C1036 C1039 1.539 . S
C1037 C1033 1.399 1_545 S
C1037 C1036 1.408 . S
C1037 H1049 0.935 . S
C1038 C1034 1.524 . S
C1038 H1050 0.956 . S
C1038 H1051 0.961 1_554 S
C1038 H1052 0.961 . S
C1039 C1036 1.539 . S
C1039 H1053 0.958 . S
C1039 H1054 0.961 . S
C1039 H1055 0.960 . S
H1040 C1024 0.931 . S
H1041 C1029 0.929 . S
H1042 C1030 0.960 . S
H1043 C1030 0.962 . S
H1044 C1030 0.960 . S
H1045 C1031 0.961 . S
H1046 C1031 0.961 . S
H1047 C1031 0.961 1_545 S
H1048 C1032 0.931 . S
H1049 C1037 0.935 . S
H1050 C1038 0.956 . S
H1051 C1038 0.961 1_556 S
H1052 C1038 0.961 . S
H1053 C1039 0.958 . S
H1054 C1039 0.961 . S
H1055 C1039 0.960 . S
C1056 C1057 1.391 . S
C1056 C1058 1.394 . S
C1056 H1072 0.931 . S
C1057 C1056 1.391 . S
C1057 C1061 1.376 . S
C1058 C1056 1.394 . S
C1058 C1059 1.369 . S
C1058 C1062 1.531 . S
C1059 C1058 1.369 . S
C1059 C1060 1.410 . S
C1059 C1067 1.503 1_545 S
C1060 C1059 1.410 . S
C1060 C1061 1.392 . S
C1060 C1063 1.511 . S
C1061 C1057 1.376 . S
C1061 C1060 1.392 . S
C1061 H1073 0.929 . S
C1062 C1058 1.531 . S
C1062 H1074 0.960 . S
C1062 H1075 0.962 . S
C1062 H1076 0.960 . S
C1063 C1060 1.511 . S
C1063 H1077 0.961 1_545 S
C1063 H1078 0.961 1_545 S
C1063 H1079 0.961 . S
C1064 C1065 1.370 . S
C1064 C1066 1.363 . S
C1064 H1080 0.931 . S
C1065 C1064 1.370 . S
C1065 C1069 1.408 1_565 S
C1066 C1064 1.363 . S
C1066 C1067 1.370 . S
C1066 C1070 1.524 . S
C1067 C1059 1.503 1_565 S
C1067 C1066 1.370 . S
C1067 C1068 1.403 1_565 S
C1068 C1067 1.403 1_545 S
C1068 C1069 1.404 . S
C1068 C1071 1.539 . S
C1069 C1065 1.408 1_545 S
C1069 C1068 1.404 . S
C1069 H1081 0.930 . S
C1070 C1066 1.524 . S
C1070 H1082 0.956 . S
C1070 H1083 0.961 . S
C1070 H1084 0.961 . S
C1071 C1068 1.539 . S
C1071 H1085 0.958 . S
C1071 H1086 0.961 . S
C1071 H1087 0.960 . S
H1072 C1056 0.931 . S
H1073 C1061 0.929 . S
H1074 C1062 0.960 . S
H1075 C1062 0.962 . S
H1076 C1062 0.960 . S
H1077 C1063 0.961 1_565 S
H1078 C1063 0.961 1_565 S
H1079 C1063 0.961 . S
H1080 C1064 0.931 . S
H1081 C1069 0.930 . S
H1082 C1070 0.956 . S
H1083 C1070 0.961 . S
H1084 C1070 0.961 . S
H1085 C1071 0.958 . S
H1086 C1071 0.961 . S
H1087 C1071 0.960 . S
C1088 C1089 1.416 . S
C1088 C1090 1.383 1_455 S
C1088 H1104 0.917 1_455 S
C1089 C1088 1.416 . S
C1089 C1093 1.376 . S
C1090 C1088 1.383 1_655 S
C1090 C1091 1.369 1_655 S
C1090 C1094 1.531 . S
C1091 C1090 1.369 1_455 S
C1091 C1092 1.410 1_565 S
C1091 C1099 1.503 1_465 S
C1092 C1091 1.410 1_545 S
C1092 C1093 1.392 1_545 S
C1092 C1095 1.511 . S
C1093 C1089 1.376 . S
C1093 C1092 1.392 1_565 S
C1093 H1105 0.929 . S
C1094 C1090 1.531 . S
C1094 H1106 0.960 . S
C1094 H1107 0.962 . S
C1094 H1108 0.960 . S
C1095 C1092 1.511 . S
C1095 H1109 0.961 . S
C1095 H1110 0.961 . S
C1095 H1111 0.961 . S
C1096 C1097 1.370 . S
C1096 C1098 1.363 1_545 S
C1096 H1112 0.931 1_545 S
C1097 C1096 1.370 . S
C1097 C1101 1.408 . S
C1098 C1096 1.363 1_565 S
C1098 C1099 1.370 1_565 S
C1098 C1102 1.524 1_655 S
C1099 C1091 1.503 1_645 S
C1099 C1098 1.370 1_545 S
C1099 C1100 1.403 . S
C1100 C1099 1.403 . S
C1100 C1101 1.404 . S
C1100 C1103 1.539 . S
C1101 C1097 1.408 . S
C1101 C1100 1.404 . S
C1101 H1113 0.930 . S
C1102 C1098 1.524 1_455 S
C1102 H1114 0.956 . S
C1102 H1115 0.961 . S
C1102 H1116 0.961 . S
C1103 C1100 1.539 . S
C1103 H1117 0.958 . S
C1103 H1118 0.961 . S
C1103 H1119 0.960 . S
H1104 C1088 0.917 1_655 S
H1105 C1093 0.929 . S
H1106 C1094 0.960 . S
H1107 C1094 0.962 . S
H1108 C1094 0.960 . S
H1109 C1095 0.961 . S
H1110 C1095 0.961 . S
H1111 C1095 0.961 . S
H1112 C1096 0.931 1_565 S
H1113 C1101 0.930 . S
H1114 C1102 0.956 . S
H1115 C1102 0.961 . S
H1116 C1102 0.961 . S
H1117 C1103 0.958 . S
H1118 C1103 0.961 . S
H1119 C1103 0.960 . S
C1120 C1121 1.391 . S
C1120 C1122 1.394 . S
C1120 H1136 0.931 . S
C1121 C1120 1.391 . S
C1121 C1125 1.376 . S
C1122 C1120 1.394 . S
C1122 C1123 1.369 . S
C1122 C1126 1.531 . S
C1123 C1122 1.369 . S
C1123 C1124 1.410 . S
C1123 C1131 1.503 1_554 S
C1124 C1123 1.410 . S
C1124 C1125 1.392 . S
C1124 C1127 1.511 . S
C1125 C1121 1.376 . S
C1125 C1124 1.392 . S
C1125 H1137 0.929 . S
C1126 C1122 1.531 . S
C1126 H1138 0.960 1_554 S
C1126 H1139 0.962 . S
C1126 H1140 0.960 . S
C1127 C1124 1.511 . S
C1127 H1141 0.961 . S
C1127 H1142 0.952 1_554 S
C1127 H1143 0.961 1_554 S
C1128 C1129 1.370 . S
C1128 C1130 1.363 . S
C1128 H1144 0.931 . S
C1129 C1128 1.370 . S
C1129 C1133 1.408 . S
C1130 C1128 1.363 . S
C1130 C1131 1.370 . S
C1130 C1134 1.524 1_556 S
C1131 C1123 1.503 1_556 S
C1131 C1130 1.370 . S
C1131 C1132 1.403 . S
C1132 C1131 1.403 . S
C1132 C1133 1.404 . S
C1132 C1135 1.539 . S
C1133 C1129 1.408 . S
C1133 C1132 1.404 . S
C1133 H1145 0.930 . S
C1134 C1130 1.524 1_554 S
C1134 H1146 0.956 . S
C1134 H1147 0.961 . S
C1134 H1148 0.961 . S
C1135 C1132 1.539 . S
C1135 H1149 0.958 . S
C1135 H1150 0.961 . S
C1135 H1151 0.960 . S
H1136 C1120 0.931 . S
H1137 C1125 0.929 . S
H1138 C1126 0.960 1_556 S
H1139 C1126 0.962 . S
H1140 C1126 0.960 . S
H1141 C1127 0.961 . S
H1142 C1127 0.952 1_556 S
H1143 C1127 0.961 1_556 S
H1144 C1128 0.931 . S
H1145 C1133 0.930 . S
H1146 C1134 0.956 . S
H1147 C1134 0.961 . S
H1148 C1134 0.961 . S
H1149 C1135 0.958 . S
H1150 C1135 0.961 . S
H1151 C1135 0.960 . S
C1152 C1153 1.391 . S
C1152 C1154 1.394 . S
C1152 H1168 0.931 . S
C1153 C1152 1.391 . S
C1153 C1157 1.376 . S
C1154 C1152 1.394 . S
C1154 C1155 1.369 . S
C1154 C1158 1.531 . S
C1155 C1154 1.369 . S
C1155 C1156 1.410 1_655 S
C1155 C1163 1.503 1_654 S
C1156 C1155 1.410 1_455 S
C1156 C1157 1.392 1_455 S
C1156 C1159 1.511 . S
C1157 C1153 1.376 . S
C1157 C1156 1.392 1_655 S
C1157 H1169 0.929 1_655 S
C1158 C1154 1.531 . S
C1158 H1170 0.941 1_554 S
C1158 H1171 0.962 1_554 S
C1158 H1172 0.960 . S
C1159 C1156 1.511 . S
C1159 H1173 0.961 . S
C1159 H1174 0.961 . S
C1159 H1175 0.961 . S
C1160 C1161 1.370 . S
C1160 C1162 1.363 . S
C1160 H1176 0.931 . S
C1161 C1160 1.370 . S
C1161 C1165 1.408 . S
C1162 C1160 1.363 . S
C1162 C1163 1.370 . S
C1162 C1166 1.524 1_455 S
C1163 C1155 1.503 1_456 S
C1163 C1162 1.370 . S
C1163 C1164 1.403 . S
C1164 C1163 1.403 . S
C1164 C1165 1.404 . S
C1164 C1167 1.539 1_556 S
C1165 C1161 1.408 . S
C1165 C1164 1.404 . S
C1165 H1177 0.930 . S
C1166 C1162 1.524 1_655 S
C1166 H1178 0.956 . S
C1166 H1179 0.961 . S
C1166 H1180 0.961 . S
C1167 C1164 1.539 1_554 S
C1167 H1181 0.958 . S
C1167 H1182 0.961 . S
C1167 H1183 0.960 . S
H1168 C1152 0.931 . S
H1169 C1157 0.929 1_455 S
H1170 C1158 0.941 1_556 S
H1171 C1158 0.962 1_556 S
H1172 C1158 0.960 . S
H1173 C1159 0.961 . S
H1174 C1159 0.961 . S
H1175 C1159 0.961 . S
H1176 C1160 0.931 . S
H1177 C1165 0.930 . S
H1178 C1166 0.956 . S
H1179 C1166 0.961 . S
H1180 C1166 0.961 . S
H1181 C1167 0.958 . S
H1182 C1167 0.961 . S
H1183 C1167 0.960 . S
C1184 C1185 1.391 . S
C1184 C1186 1.394 . S
C1184 H1200 0.931 . S
C1185 C1184 1.391 . S
C1185 C1189 1.395 . S
C1186 C1184 1.394 . S
C1186 C1187 1.369 . S
C1186 C1190 1.531 . S
C1187 C1186 1.369 . S
C1187 C1188 1.410 1_655 S
C1187 C1195 1.503 1_655 S
C1188 C1187 1.410 1_455 S
C1188 C1189 1.384 1_455 S
C1188 C1191 1.511 . S
C1189 C1185 1.395 . S
C1189 C1188 1.384 1_655 S
C1189 H1201 0.918 1_655 S
C1190 C1186 1.531 . S
C1190 H1202 0.960 . S
C1190 H1203 0.962 . S
C1190 H1204 0.960 . S
C1191 C1188 1.511 . S
C1191 H1205 0.961 . S
C1191 H1206 0.961 . S
C1191 H1207 0.961 . S
C1192 C1193 1.370 . S
C1192 C1194 1.363 . S
C1192 H1208 0.931 . S
C1193 C1192 1.370 . S
C1193 C1197 1.408 . S
C1194 C1192 1.363 . S
C1194 C1195 1.370 . S
C1194 C1198 1.524 1_455 S
C1195 C1187 1.503 1_455 S
C1195 C1194 1.370 . S
C1195 C1196 1.403 . S
C1196 C1195 1.403 . S
C1196 C1197 1.404 . S
C1196 C1199 1.539 . S
C1197 C1193 1.408 . S
C1197 C1196 1.404 . S
C1197 H1209 0.930 . S
C1198 C1194 1.524 1_655 S
C1198 H1210 0.957 . S
C1198 H1211 0.960 1_655 S
C1198 H1212 0.960 1_655 S
C1199 C1196 1.539 . S
C1199 H1213 0.958 1_455 S
C1199 H1214 0.961 . S
C1199 H1215 0.960 . S
H1200 C1184 0.931 . S
H1201 C1189 0.918 1_455 S
H1202 C1190 0.960 . S
H1203 C1190 0.962 . S
H1204 C1190 0.960 . S
H1205 C1191 0.961 . S
H1206 C1191 0.961 . S
H1207 C1191 0.961 . S
H1208 C1192 0.931 . S
H1209 C1197 0.930 . S
H1210 C1198 0.957 . S
H1211 C1198 0.960 1_455 S
H1212 C1198 0.960 1_455 S
H1213 C1199 0.958 1_655 S
H1214 C1199 0.961 . S
H1215 C1199 0.960 . S
C1216 C1217 1.391 . S
C1216 C1218 1.394 . S
C1216 H1232 0.931 . S
C1217 C1216 1.391 . S
C1217 C1221 1.376 . S
C1218 C1216 1.394 . S
C1218 C1219 1.369 . S
C1218 C1222 1.531 . S
C1219 C1218 1.369 . S
C1219 C1220 1.410 . S
C1219 C1227 1.503 . S
C1220 C1219 1.410 . S
C1220 C1221 1.392 . S
C1220 C1223 1.511 . S
C1221 C1217 1.376 . S
C1221 C1220 1.392 . S
C1221 H1233 0.929 . S
C1222 C1218 1.531 . S
C1222 H1234 0.960 . S
C1222 H1235 0.962 . S
C1222 H1236 0.960 . S
C1223 C1220 1.511 . S
C1223 H1237 0.961 . S
C1223 H1238 0.961 . S
C1223 H1239 0.961 . S
C1224 C1225 1.370 . S
C1224 C1226 1.363 . S
C1224 H1240 0.931 . S
C1225 C1224 1.370 . S
C1225 C1229 1.408 . S
C1226 C1224 1.363 . S
C1226 C1227 1.370 . S
C1226 C1230 1.524 . S
C1227 C1219 1.503 . S
C1227 C1226 1.370 . S
C1227 C1228 1.403 . S
C1228 C1227 1.403 . S
C1228 C1229 1.404 . S
C1228 C1231 1.539 . S
C1229 C1225 1.408 . S
C1229 C1228 1.404 . S
C1229 H1241 0.930 . S
C1230 C1226 1.524 . S
C1230 H1242 0.956 . S
C1230 H1243 0.961 . S
C1230 H1244 0.961 . S
C1231 C1228 1.539 . S
C1231 H1245 0.958 . S
C1231 H1246 0.961 . S
C1231 H1247 0.960 . S
H1232 C1216 0.931 . S
H1233 C1221 0.929 . S
H1234 C1222 0.960 . S
H1235 C1222 0.962 . S
H1236 C1222 0.960 . S
H1237 C1223 0.961 . S
H1238 C1223 0.961 . S
H1239 C1223 0.961 . S
H1240 C1224 0.931 . S
H1241 C1229 0.930 . S
H1242 C1230 0.956 . S
H1243 C1230 0.961 . S
H1244 C1230 0.961 . S
H1245 C1231 0.958 . S
H1246 C1231 0.961 . S
H1247 C1231 0.960 . S
C225 C21 1.542 . S
C233 C7 1.517 . S
C257 C35 1.508 . S
C265 C49 1.531 . S
C289 C62 1.530 . S
C297 C76 1.512 . S
C321 C104 1.543 . S
C329 C90 1.511 . S
C353 C133 1.529 . S
C361 C119 1.523 . S
C385 C161 1.523 . S
C393 C147 1.526 . S
C417 C188 1.545 . S
C425 C174 1.517 . S
C449 C216 1.527 . S
C457 C202 1.513 . S
C481 C48 1.520 . S
C489 C6 1.510 . S
C513 C20 1.502 . S
C521 C34 1.521 . S
C545 C105 1.521 . S
C553 C63 1.511 . S
C577 C91 1.532 . S
C585 C77 1.507 . S
C609 C118 1.525 . S
C617 C160 1.508 . S
C641 C146 1.499 . S
C649 C132 1.522 . S
C673 C217 1.521 . S
C681 C175 1.511 . S
C705 C189 1.523 . S
C713 C203 1.510 . S
C737 C8 1.475 . S
C745 C134 1.462 . S
C769 C22 1.474 . S
C777 C120 1.465 . S
C801 C162 1.475 . S
C809 C36 1.464 . S
C833 C148 1.443 . S
C841 C50 1.460 . S
C865 C191 1.434 . S
C873 C65 1.458 . S
C897 C177 1.435 . S
C905 C79 1.448 . S
C929 C93 1.430 . S
C937 C219 1.451 . S
C961 C107 1.430 . S
C969 C205 1.454 . S
C993 C64 1.560 . S
C1001 C9 1.571 . S
C1025 C78 1.570 . S
C1033 C23 1.566 . S
C1057 C92 1.567 . S
C1065 C37 1.567 . S
C1089 C106 1.572 . S
C1097 C51 1.566 . S
C1121 C121 1.553 . S
C1129 C176 1.574 . S
C1153 C135 1.573 . S
C1161 C190 1.565 . S
C1185 C204 1.564 . S
C1193 C149 1.568 . S
C1217 C218 1.563 . S
C1225 C163 1.568 . S
