# Generated by pormake.
# Topology snl, (6)-cn, num edge types: 1
# Building blocks:
#     Node 0, Type 0, BuildingBlock: BETDIP_clean_sbu_0, # of connection points: 6
#     Node 1, Type 0, BuildingBlock: BETDIP_clean_sbu_0, # of connection points: 6
#     Node 2, Type 0, BuildingBlock: BETDIP_clean_sbu_0, # of connection points: 6
#     Node 3, Type 0, BuildingBlock: BETDIP_clean_sbu_0, # of connection points: 6
#     Node 4, Type 0, BuildingBlock: BETDIP_clean_sbu_0, # of connection points: 6
#     Node 5, Type 0, BuildingBlock: BETDIP_clean_sbu_0, # of connection points: 6
#     Node 6, Type 0, BuildingBlock: BETDIP_clean_sbu_0, # of connection points: 6
#     Node 7, Type 0, BuildingBlock: BETDIP_clean_sbu_0, # of connection points: 6
#     Node 8, Type 0, BuildingBlock: BETDIP_clean_sbu_0, # of connection points: 6
#     Node 9, Type 0, BuildingBlock: BETDIP_clean_sbu_0, # of connection points: 6
#     Node 10, Type 0, BuildingBlock: BETDIP_clean_sbu_0, # of connection points: 6
#     Node 11, Type 0, BuildingBlock: BETDIP_clean_sbu_0, # of connection points: 6
#     Node 12, Type 0, BuildingBlock: BETDIP_clean_sbu_0, # of connection points: 6
#     Node 13, Type 0, BuildingBlock: BETDIP_clean_sbu_0, # of connection points: 6
#     Node 14, Type 0, BuildingBlock: BETDIP_clean_sbu_0, # of connection points: 6
#     Node 15, Type 0, BuildingBlock: BETDIP_clean_sbu_0, # of connection points: 6
#     Edge 16, Type (0, 0), BuildingBlock: XIVTED_clean_linker_0, # of connection points: 2
#     Edge 17, Type (0, 0), BuildingBlock: XIVTED_clean_linker_0, # of connection points: 2
#     Edge 18, Type (0, 0), BuildingBlock: XIVTED_clean_linker_0, # of connection points: 2
#     Edge 19, Type (0, 0), BuildingBlock: XIVTED_clean_linker_0, # of connection points: 2
#     Edge 20, Type (0, 0), BuildingBlock: XIVTED_clean_linker_0, # of connection points: 2
#     Edge 21, Type (0, 0), BuildingBlock: XIVTED_clean_linker_0, # of connection points: 2
#     Edge 22, Type (0, 0), BuildingBlock: XIVTED_clean_linker_0, # of connection points: 2
#     Edge 23, Type (0, 0), BuildingBlock: XIVTED_clean_linker_0, # of connection points: 2
#     Edge 24, Type (0, 0), BuildingBlock: XIVTED_clean_linker_0, # of connection points: 2
#     Edge 25, Type (0, 0), BuildingBlock: XIVTED_clean_linker_0, # of connection points: 2
#     Edge 26, Type (0, 0), BuildingBlock: XIVTED_clean_linker_0, # of connection points: 2
#     Edge 27, Type (0, 0), BuildingBlock: XIVTED_clean_linker_0, # of connection points: 2
#     Edge 28, Type (0, 0), BuildingBlock: XIVTED_clean_linker_0, # of connection points: 2
#     Edge 29, Type (0, 0), BuildingBlock: XIVTED_clean_linker_0, # of connection points: 2
#     Edge 30, Type (0, 0), BuildingBlock: XIVTED_clean_linker_0, # of connection points: 2
#     Edge 31, Type (0, 0), BuildingBlock: XIVTED_clean_linker_0, # of connection points: 2
#     Edge 32, Type (0, 0), BuildingBlock: XIVTED_clean_linker_0, # of connection points: 2
#     Edge 33, Type (0, 0), BuildingBlock: XIVTED_clean_linker_0, # of connection points: 2
#     Edge 34, Type (0, 0), BuildingBlock: XIVTED_clean_linker_0, # of connection points: 2
#     Edge 35, Type (0, 0), BuildingBlock: XIVTED_clean_linker_0, # of connection points: 2
#     Edge 36, Type (0, 0), BuildingBlock: XIVTED_clean_linker_0, # of connection points: 2
#     Edge 37, Type (0, 0), BuildingBlock: XIVTED_clean_linker_0, # of connection points: 2
#     Edge 38, Type (0, 0), BuildingBlock: XIVTED_clean_linker_0, # of connection points: 2
#     Edge 39, Type (0, 0), BuildingBlock: XIVTED_clean_linker_0, # of connection points: 2
#     Edge 40, Type (0, 0), BuildingBlock: XIVTED_clean_linker_0, # of connection points: 2
#     Edge 41, Type (0, 0), BuildingBlock: XIVTED_clean_linker_0, # of connection points: 2
#     Edge 42, Type (0, 0), BuildingBlock: XIVTED_clean_linker_0, # of connection points: 2
#     Edge 43, Type (0, 0), BuildingBlock: XIVTED_clean_linker_0, # of connection points: 2
#     Edge 44, Type (0, 0), BuildingBlock: XIVTED_clean_linker_0, # of connection points: 2
#     Edge 45, Type (0, 0), BuildingBlock: XIVTED_clean_linker_0, # of connection points: 2
#     Edge 46, Type (0, 0), BuildingBlock: XIVTED_clean_linker_0, # of connection points: 2
#     Edge 47, Type (0, 0), BuildingBlock: XIVTED_clean_linker_0, # of connection points: 2
#     Edge 48, Type (0, 0), BuildingBlock: XIVTED_clean_linker_0, # of connection points: 2
#     Edge 49, Type (0, 0), BuildingBlock: XIVTED_clean_linker_0, # of connection points: 2
#     Edge 50, Type (0, 0), BuildingBlock: XIVTED_clean_linker_0, # of connection points: 2
#     Edge 51, Type (0, 0), BuildingBlock: XIVTED_clean_linker_0, # of connection points: 2
#     Edge 52, Type (0, 0), BuildingBlock: XIVTED_clean_linker_0, # of connection points: 2
#     Edge 53, Type (0, 0), BuildingBlock: XIVTED_clean_linker_0, # of connection points: 2
#     Edge 54, Type (0, 0), BuildingBlock: XIVTED_clean_linker_0, # of connection points: 2
#     Edge 55, Type (0, 0), BuildingBlock: XIVTED_clean_linker_0, # of connection points: 2
#     Edge 56, Type (0, 0), BuildingBlock: XIVTED_clean_linker_0, # of connection points: 2
#     Edge 57, Type (0, 0), BuildingBlock: XIVTED_clean_linker_0, # of connection points: 2
#     Edge 58, Type (0, 0), BuildingBlock: XIVTED_clean_linker_0, # of connection points: 2
#     Edge 59, Type (0, 0), BuildingBlock: XIVTED_clean_linker_0, # of connection points: 2
#     Edge 60, Type (0, 0), BuildingBlock: XIVTED_clean_linker_0, # of connection points: 2
#     Edge 61, Type (0, 0), BuildingBlock: XIVTED_clean_linker_0, # of connection points: 2
#     Edge 62, Type (0, 0), BuildingBlock: XIVTED_clean_linker_0, # of connection points: 2
#     Edge 63, Type (0, 0), BuildingBlock: XIVTED_clean_linker_0, # of connection points: 2
# Relax obj value: 0.208
# Max RMSD: 0.260
# Mean RMSD: 0.231
data_MOF--net-snl--node1-BETDIP_clean_sbu_0--edge1-XIVTED_clean_linker_0
_symmetry_space_group_name_H-M    P1
_symmetry_Int_Tables_number       1
_symmetry_cell_setting            triclinic
loop_
_symmetry_equiv_pos_as_xyz
'x, y, z'
_cell_length_a     56.989143
_cell_length_b     56.43935
_cell_length_c     25.806591
_cell_angle_alpha  86.942656
_cell_angle_beta   92.971739
_cell_angle_gamma 90.224782
loop_
_atom_site_label
_atom_site_type_symbol
_atom_site_fract_x
_atom_site_fract_y
_atom_site_fract_z
_atom_type_partial_charge
Tb0 Tb 0.14731 0.60857 0.20823 0.0
Tb1 Tb 0.14619 0.63303 0.10453 0.0
C2 C 0.15615 0.59518 0.30239 0.0
C3 C 0.15497 0.6032 0.35618 0.0
C4 C 0.17559 0.60374 0.38838 0.0
C5 C 0.17468 0.60839 0.44107 0.0
C6 C 0.15306 0.61246 0.4631 0.0
C7 C 0.13247 0.61256 0.43043 0.0
C8 C 0.1334 0.608 0.37767 0.0
C9 C 0.10524 0.60858 0.15926 0.0
C10 C 0.13883 0.66499 0.19503 0.0
C11 C 0.13842 0.64692 1.0104 0.0
C12 C 0.14066 0.63944 0.95648 0.0
C13 C 0.1204 0.63815 0.92337 0.0
C14 C 0.12201 0.63358 0.87085 0.0
C15 C 0.144 0.63029 0.84982 0.0
C16 C 0.1643 0.63111 0.88331 0.0
C17 C 0.16266 0.63563 0.93598 0.0
C18 C 0.18778 0.63245 0.1567 0.0
C19 C 0.15259 0.57676 0.11357 0.0
O20 O 0.17164 0.60528 0.27269 0.0
O21 O 0.13633 0.59116 0.27659 0.0
O22 O 0.11956 0.62581 0.1596 0.0
O23 O 0.11423 0.59116 0.18819 0.0
O24 O 0.14683 0.64686 0.22586 0.0
O25 O 0.13334 0.6623 0.14548 0.0
O26 O 0.1229 0.63581 0.03844 0.0
O27 O 0.15764 0.65164 0.03784 0.0
O28 O 0.17331 0.61558 0.15382 0.0
O29 O 0.17953 0.6503 0.12787 0.0
O30 O 0.14646 0.59588 0.0843 0.0
O31 O 0.15696 0.57796 0.16441 0.0
H32 H 0.19243 0.59985 0.3731 0.0
H33 H 0.19088 0.6079 0.46496 0.0
H34 H 0.11554 0.61599 0.44571 0.0
H35 H 0.11713 0.60769 0.35409 0.0
H36 H 0.10324 0.64131 0.93785 0.0
H37 H 0.10601 0.63342 0.84635 0.0
H38 H 0.18151 0.62835 0.86878 0.0
H39 H 0.17866 0.63656 0.96031 0.0
Tb40 Tb 0.64579 0.89061 0.32896 0.0
Tb41 Tb 0.64713 0.86643 0.43904 0.0
C42 C 0.65926 0.90396 0.24073 0.0
C43 C 0.65331 0.9003 0.18504 0.0
C44 C 0.65522 0.87786 0.16435 0.0
C45 C 0.65152 0.87519 0.1109 0.0
C46 C 0.64578 0.89485 0.07671 0.0
C47 C 0.64339 0.91718 0.09777 0.0
C48 C 0.6472 0.91986 0.15121 0.0
C49 C 0.60181 0.88585 0.35919 0.0
C50 C 0.63595 0.83458 0.34728 0.0
C51 C 0.64349 0.85289 0.53295 0.0
C52 C 0.64037 0.862 0.58498 0.0
C53 C 0.62247 0.85245 0.6151 0.0
C54 C 0.62096 0.85821 0.66691 0.0
C55 C 0.63748 0.87353 0.69012 0.0
C56 C 0.65487 0.88383 0.65917 0.0
C57 C 0.65629 0.87815 0.6072 0.0
C58 C 0.68656 0.86602 0.38731 0.0
C59 C 0.65007 0.92271 0.42682 0.0
O60 O 0.6683 0.88588 0.26888 0.0
O61 O 0.64421 0.91591 0.26592 0.0
O62 O 0.6207 0.87934 0.38372 0.0
O63 O 0.60767 0.89559 0.31514 0.0
O64 O 0.64374 0.85197 0.31555 0.0
O65 O 0.63249 0.83763 0.3966 0.0
O66 O 0.62557 0.85442 0.49897 0.0
O67 O 0.66352 0.85736 0.51174 0.0
O68 O 0.67219 0.88291 0.38865 0.0
O69 O 0.67916 0.84846 0.41662 0.0
O70 O 0.64562 0.9036 0.45657 0.0
O71 O 0.65305 0.92164 0.37613 0.0
H72 H 0.66003 0.8624 0.18921 0.0
H73 H 0.65386 0.85778 0.09626 0.0
H74 H 0.63862 0.93267 0.07296 0.0
H75 H 0.64571 0.93736 0.16603 0.0
H76 H 0.61 0.83994 0.59896 0.0
H77 H 0.60701 0.85032 0.68899 0.0
H78 H 0.66803 0.89555 0.67558 0.0
H79 H 0.67034 0.88582 0.58505 0.0
Tb80 Tb 0.382 0.38816 0.73826 0.0
Tb81 Tb 0.37535 0.36508 0.64029 0.0
C82 C 0.37945 0.40211 0.82924 0.0
C83 C 0.37797 0.39378 0.88447 0.0
C84 C 0.35814 0.39965 0.91125 0.0
C85 C 0.35759 0.39506 0.96501 0.0
C86 C 0.37696 0.38461 0.99344 0.0
C87 C 0.39651 0.37801 0.9663 0.0
C88 C 0.39703 0.38256 0.91246 0.0
C89 C 0.42072 0.38862 0.68499 0.0
C90 C 0.38765 0.33176 0.73499 0.0
C91 C 0.37503 0.35071 0.54914 0.0
C92 C 0.37597 0.35902 0.49375 0.0
C93 C 0.3955 0.35312 0.46601 0.0
C94 C 0.39567 0.35798 0.4123 0.0
C95 C 0.37621 0.36873 0.38482 0.0
C96 C 0.3569 0.37525 0.41285 0.0
C97 C 0.35677 0.37044 0.46669 0.0
C98 C 0.33756 0.36514 0.69769 0.0
C99 C 0.37375 0.42117 0.63808 0.0
O100 O 0.36111 0.39881 0.79782 0.0
O101 O 0.39917 0.3988 0.80699 0.0
O102 O 0.40634 0.37147 0.68958 0.0
O103 O 0.41347 0.4058 0.71133 0.0
O104 O 0.38223 0.34971 0.76345 0.0
O105 O 0.38926 0.33468 0.68454 0.0
O106 O 0.3941 0.35295 0.57887 0.0
O107 O 0.35607 0.35517 0.57333 0.0
O108 O 0.35166 0.38208 0.68957 0.0
O109 O 0.34423 0.3474 0.67225 0.0
O110 O 0.37769 0.40209 0.61254 0.0
O111 O 0.37197 0.41977 0.68912 0.0
H112 H 0.34332 0.40859 0.89082 0.0
H113 H 0.34234 0.40063 0.98456 0.0
H114 H 0.4116 0.3696 0.98678 0.0
H115 H 0.41265 0.37786 0.89313 0.0
H116 H 0.41041 0.344 0.48564 0.0
H117 H 0.41072 0.35243 0.39204 0.0
H118 H 0.34174 0.38384 0.39307 0.0
H119 H 0.34137 0.37514 0.48677 0.0
Tb120 Tb 0.88466 0.10985 0.82706 0.0
Tb121 Tb 0.88208 0.13402 0.92498 0.0
C122 C 0.87883 0.09587 0.73582 0.0
C123 C 0.87877 0.10434 0.68031 0.0
C124 C 0.8576 0.10479 0.64984 0.0
C125 C 0.85749 0.10976 0.59606 0.0
C126 C 0.8786 0.11428 0.57128 0.0
C127 C 0.89973 0.11446 0.60207 0.0
C128 C 0.89983 0.10951 0.65585 0.0
C129 C 0.92534 0.11146 0.882 0.0
C130 C 0.89052 0.16637 0.82831 0.0
C131 C 0.88738 0.14844 1.01585 0.0
C132 C 0.88572 0.14071 0.07145 0.0
C133 C 0.90627 0.13954 0.10399 0.0
C134 C 0.9051 0.13518 0.15767 0.0
C135 C 0.88331 0.13203 0.18037 0.0
C136 C 0.86275 0.1325 0.14759 0.0
C137 C 0.86393 0.13686 0.09377 0.0
C138 C 0.84204 0.13268 0.8674 0.0
C139 C 0.87775 0.07762 0.92745 0.0
O140 O 0.86167 0.10278 0.76319 0.0
O141 O 0.89894 0.09533 0.76259 0.0
O142 O 0.91031 0.12793 0.87528 0.0
O143 O 0.91784 0.0936 0.85631 0.0
O144 O 0.8838 0.14811 0.80064 0.0
O145 O 0.89485 0.16378 0.87885 0.0
O146 O 0.90432 0.13937 0.99088 0.0
O147 O 0.8679 0.15079 0.98695 0.0
O148 O 0.85676 0.11612 0.87585 0.0
O149 O 0.84909 0.15058 0.89353 0.0
O150 O 0.88241 0.09679 0.95342 0.0
O151 O 0.87501 0.07883 0.87607 0.0
H152 H 0.84111 0.10067 0.66743 0.0
H153 H 0.84084 0.10982 0.57384 0.0
H154 H 0.91637 0.11755 0.58441 0.0
H155 H 0.91652 0.10905 0.67793 0.0
H156 H 0.9233 0.14261 0.08803 0.0
H157 H 0.92132 0.13453 0.18147 0.0
H158 H 0.84565 0.13037 0.16367 0.0
H159 H 0.84771 0.13786 0.06995 0.0
Tb160 Tb 0.14152 0.39146 0.83097 0.0
Tb161 Tb 0.14435 0.36724 0.93403 0.0
C162 C 0.14638 0.40558 0.73738 0.0
C163 C 0.14763 0.39729 0.68392 0.0
C164 C 0.16654 0.40461 0.6541 0.0
C165 C 0.16669 0.39995 0.60131 0.0
C166 C 0.14783 0.38793 0.57688 0.0
C167 C 0.12928 0.37987 0.60732 0.0
C168 C 0.12918 0.38448 0.66019 0.0
C169 C 0.10102 0.39129 0.87766 0.0
C170 C 0.13544 0.33487 0.8439 0.0
C171 C 0.13997 0.35247 0.02732 0.0
C172 C 0.14088 0.36008 0.08154 0.0
C173 C 0.12234 0.35363 0.11315 0.0
C174 C 0.12339 0.35842 0.16586 0.0
C175 C 0.1431 0.36977 0.18856 0.0
C176 C 0.16151 0.37669 0.15654 0.0
C177 C 0.16042 0.37192 0.10358 0.0
C178 C 0.18427 0.36786 0.88377 0.0
C179 C 0.14905 0.42356 0.9259 0.0
O180 O 0.16402 0.40068 0.7706 0.0
O181 O 0.1262 0.40381 0.75907 0.0
O182 O 0.11534 0.37409 0.87798 0.0
O183 O 0.1094 0.40895 0.85034 0.0
O184 O 0.14269 0.35311 0.81409 0.0
O185 O 0.13093 0.33754 0.89265 0.0
O186 O 0.12249 0.36031 0.99639 0.0
O187 O 0.15964 0.35179 1.00351 0.0
O188 O 0.16993 0.38472 0.88601 0.0
O189 O 0.17677 0.34996 0.91185 0.0
O190 O 0.14428 0.4043 0.95475 0.0
O191 O 0.15142 0.42255 0.87518 0.0
H192 H 0.18088 0.41472 0.67123 0.0
H193 H 0.18117 0.40664 0.5792 0.0
H194 H 0.11465 0.37022 0.59014 0.0
H195 H 0.11432 0.37856 0.68203 0.0
H196 H 0.10719 0.34428 0.09727 0.0
H197 H 0.10902 0.3525 0.18918 0.0
H198 H 0.17683 0.38574 0.17242 0.0
H199 H 0.175 0.37715 0.0802 0.0
Tb200 Tb 0.88389 0.88842 0.23801 0.0
Tb201 Tb 0.87662 0.86564 0.14004 0.0
C202 C 0.8821 0.90217 0.3293 0.0
C203 C 0.88033 0.89364 0.38437 0.0
C204 C 0.85932 0.89687 0.40929 0.0
C205 C 0.85828 0.89218 0.46293 0.0
C206 C 0.87829 0.88428 0.49309 0.0
C207 C 0.89912 0.88032 0.46784 0.0
C208 C 0.90016 0.88501 0.41418 0.0
C209 C 0.92218 0.88927 0.18345 0.0
C210 C 0.88917 0.83202 0.23401 0.0
C211 C 0.87549 0.85145 0.04868 0.0
C212 C 0.87681 0.85981 0.99337 0.0
C213 C 0.89765 0.85673 0.96769 0.0
C214 C 0.89827 0.86135 0.91397 0.0
C215 C 0.878 0.86901 0.88442 0.0
C216 C 0.85734 0.87282 0.91038 0.0
C217 C 0.85672 0.8682 0.96417 0.0
C218 C 0.83918 0.86557 0.19857 0.0
C219 C 0.87536 0.92172 0.13841 0.0
O220 O 0.86361 0.89985 0.29776 0.0
O221 O 0.90162 0.89807 0.30692 0.0
O222 O 0.90797 0.87198 0.18832 0.0
O223 O 0.91503 0.90633 0.21024 0.0
O224 O 0.88385 0.8499 0.26273 0.0
O225 O 0.89063 0.83507 0.18355 0.0
O226 O 0.89465 0.85259 0.07859 0.0
O227 O 0.85681 0.85688 0.07286 0.0
O228 O 0.85325 0.88249 0.19022 0.0
O229 O 0.84566 0.84789 0.17274 0.0
O230 O 0.87925 0.90271 0.11258 0.0
O231 O 0.87366 0.92014 0.18947 0.0
H232 H 0.84381 0.90373 0.38753 0.0
H233 H 0.84185 0.89508 0.48088 0.0
H234 H 0.91496 0.87453 0.48981 0.0
H235 H 0.91674 0.88262 0.39646 0.0
H236 H 0.91336 0.85005 0.98889 0.0
H237 H 0.91459 0.85858 0.89546 0.0
H238 H 0.84132 0.87844 0.88888 0.0
H239 H 0.84026 0.87045 0.98249 0.0
Tb240 Tb 0.38415 0.60995 0.33039 0.0
Tb241 Tb 0.38202 0.63434 0.4286 0.0
C242 C 0.37786 0.59584 0.23933 0.0
C243 C 0.37745 0.60403 0.18367 0.0
C244 C 0.35756 0.59931 0.15145 0.0
C245 C 0.35764 0.60405 0.09762 0.0
C246 C 0.37772 0.61354 0.07456 0.0
C247 C 0.3974 0.61895 0.10714 0.0
C248 C 0.39729 0.61426 0.16104 0.0
C249 C 0.42492 0.61131 0.38494 0.0
C250 C 0.39035 0.66649 0.3315 0.0
C251 C 0.38763 0.64887 0.51936 0.0
C252 C 0.38665 0.64114 0.57505 0.0
C253 C 0.40616 0.6454 0.60871 0.0
C254 C 0.40523 0.64056 0.6623 0.0
C255 C 0.38466 0.63138 0.68378 0.0
C256 C 0.36523 0.62664 0.64985 0.0
C257 C 0.36621 0.63144 0.59606 0.0
C258 C 0.34188 0.63307 0.37137 0.0
C259 C 0.37744 0.57798 0.43131 0.0
O260 O 0.36084 0.60284 0.26698 0.0
O261 O 0.39812 0.59546 0.26553 0.0
O262 O 0.40999 0.62788 0.37841 0.0
O263 O 0.4173 0.59352 0.35918 0.0
O264 O 0.38349 0.64822 0.30397 0.0
O265 O 0.3947 0.66397 0.38207 0.0
O266 O 0.4046 0.64027 0.49375 0.0
O267 O 0.36786 0.65055 0.49131 0.0
O268 O 0.35658 0.6165 0.37977 0.0
O269 O 0.34902 0.651 0.39732 0.0
O270 O 0.38242 0.59715 0.45703 0.0
O271 O 0.37447 0.5791 0.37995 0.0
H272 H 0.34213 0.59121 0.16777 0.0
H273 H 0.34225 0.5994 0.0739 0.0
H274 H 0.41304 0.62661 0.09091 0.0
H275 H 0.41293 0.61813 0.18474 0.0
H276 H 0.42204 0.6531 0.59363 0.0
H277 H 0.42043 0.64476 0.68707 0.0
H278 H 0.34921 0.61929 0.66487 0.0
H279 H 0.35085 0.62794 0.57113 0.0
Tb280 Tb 0.64723 0.10916 0.70344 0.0
Tb281 Tb 0.64632 0.13384 0.60012 0.0
C282 C 0.65587 0.09555 0.79756 0.0
C283 C 0.65488 0.10354 0.85145 0.0
C284 C 0.67574 0.10531 0.88248 0.0
C285 C 0.67513 0.10989 0.93526 0.0
C286 C 0.65358 0.1127 0.95862 0.0
C287 C 0.63271 0.11156 0.92709 0.0
C288 C 0.63333 0.10701 0.87427 0.0
C289 C 0.60524 0.10923 0.6542 0.0
C290 C 0.6388 0.16564 0.69071 0.0
C291 C 0.63878 0.14793 0.50603 0.0
C292 C 0.64085 0.14053 0.45196 0.0
C293 C 0.6204 0.13815 0.41985 0.0
C294 C 0.62176 0.13394 0.36708 0.0
C295 C 0.64367 0.13214 0.34475 0.0
C296 C 0.66418 0.13385 0.37729 0.0
C297 C 0.6628 0.13805 0.43019 0.0
C298 C 0.68785 0.13307 0.65265 0.0
C299 C 0.65252 0.07759 0.60837 0.0
O300 O 0.67152 0.10538 0.76786 0.0
O301 O 0.63598 0.0919 0.77173 0.0
O302 O 0.61953 0.12648 0.65483 0.0
O303 O 0.61425 0.09172 0.68285 0.0
O304 O 0.64674 0.14743 0.72142 0.0
O305 O 0.63345 0.16305 0.64108 0.0
O306 O 0.62309 0.13708 0.53401 0.0
O307 O 0.65809 0.1523 0.53352 0.0
O308 O 0.67336 0.11624 0.64939 0.0
O309 O 0.67963 0.15102 0.62411 0.0
O310 O 0.64645 0.0968 0.57938 0.0
O311 O 0.65682 0.07862 0.65928 0.0
H312 H 0.6926 0.10255 0.86618 0.0
H313 H 0.6916 0.11103 0.95788 0.0
H314 H 0.61575 0.11333 0.94358 0.0
H315 H 0.61687 0.10555 0.85177 0.0
H316 H 0.60324 0.14011 0.43533 0.0
H317 H 0.60557 0.13231 0.34366 0.0
H318 H 0.68136 0.13279 0.36155 0.0
H319 H 0.67895 0.13998 0.45361 0.0
Tb320 Tb 0.88031 0.3693 0.9143 0.0
Tb321 Tb 0.88232 0.39499 0.81323 0.0
C322 C 0.8851 0.35439 1.00864 0.0
C323 C 0.88314 0.36222 0.06264 0.0
C324 C 0.90324 0.36953 0.09159 0.0
C325 C 0.90216 0.37413 0.14432 0.0
C326 C 0.88098 0.37142 0.16983 0.0
C327 C 0.86075 0.36463 0.14051 0.0
C328 C 0.86183 0.36 0.08776 0.0
C329 C 0.8397 0.37141 0.8577 0.0
C330 C 0.87638 0.42559 0.90926 0.0
C331 C 0.87619 0.40954 0.71882 0.0
C332 C 0.87717 0.40153 0.66475 0.0
C333 C 0.85649 0.39524 0.63651 0.0
C334 C 0.85691 0.39044 0.58372 0.0
C335 C 0.87799 0.39192 0.5575 0.0
C336 C 0.89873 0.3978 0.58611 0.0
C337 C 0.89832 0.4026 0.63883 0.0
C338 C 0.92363 0.39304 0.86643 0.0
C339 C 0.88884 0.33829 0.82356 0.0
O340 O 0.90223 0.36322 0.98177 0.0
O341 O 0.86578 0.35221 0.9797 0.0
O342 O 0.8544 0.38802 0.86323 0.0
O343 O 0.84726 0.35301 0.8857 0.0
O344 O 0.88145 0.40587 0.93717 0.0
O345 O 0.87302 0.42546 0.85799 0.0
O346 O 0.85933 0.40133 0.74729 0.0
O347 O 0.89601 0.41124 0.74615 0.0
O348 O 0.90874 0.37633 0.86322 0.0
O349 O 0.91542 0.4112 0.8386 0.0
O350 O 0.88193 0.35699 0.79321 0.0
O351 O 0.89317 0.3401 0.87374 0.0
H352 H 0.92002 0.37118 0.07384 0.0
H353 H 0.91805 0.37964 0.1652 0.0
H354 H 0.84417 0.36205 0.15874 0.0
H355 H 0.84607 0.35403 0.06709 0.0
H356 H 0.83983 0.39453 0.65492 0.0
H357 H 0.84061 0.38568 0.5634 0.0
H358 H 0.91526 0.39951 0.56737 0.0
H359 H 0.91454 0.4078 0.65887 0.0
Tb360 Tb 0.38642 0.13158 0.60396 0.0
Tb361 Tb 0.38927 0.10504 0.70675 0.0
C362 C 0.39199 0.14688 0.51138 0.0
C363 C 0.39096 0.13939 0.45683 0.0
C364 C 0.41058 0.14336 0.42676 0.0
C365 C 0.40959 0.1388 0.37382 0.0
C366 C 0.38886 0.13023 0.3492 0.0
C367 C 0.36936 0.12565 0.37976 0.0
C368 C 0.37037 0.13021 0.43288 0.0
C369 C 0.34651 0.12933 0.65302 0.0
C370 C 0.38163 0.07509 0.60839 0.0
C371 C 0.385 0.08995 0.80011 0.0
C372 C 0.38428 0.09815 0.85401 0.0
C373 C 0.36406 0.09397 0.88213 0.0
C374 C 0.36383 0.0989 0.93485 0.0
C375 C 0.38388 0.10806 0.96113 0.0
C376 C 0.40394 0.11279 0.9325 0.0
C377 C 0.40416 0.10787 0.87975 0.0
C378 C 0.42934 0.10714 0.65882 0.0
C379 C 0.39439 0.1618 0.69888 0.0
O380 O 0.409 0.13823 0.54271 0.0
O381 O 0.37227 0.14842 0.53477 0.0
O382 O 0.36133 0.11287 0.65101 0.0
O383 O 0.35323 0.14744 0.62447 0.0
O384 O 0.38626 0.0949 0.58125 0.0
O385 O 0.37938 0.0749 0.65942 0.0
O386 O 0.36722 0.09525 0.76756 0.0
O387 O 0.40499 0.0915 0.77751 0.0
O388 O 0.41469 0.12384 0.66069 0.0
O389 O 0.42182 0.08885 0.68558 0.0
O390 O 0.38775 0.14278 0.72699 0.0
O391 O 0.3987 0.16059 0.6494 0.0
H392 H 0.42666 0.15047 0.44405 0.0
H393 H 0.42514 0.14212 0.35214 0.0
H394 H 0.35301 0.11923 0.36234 0.0
H395 H 0.35487 0.12703 0.45482 0.0
H396 H 0.34851 0.08635 0.86359 0.0
H397 H 0.3479 0.09538 0.95507 0.0
H398 H 0.41984 0.11957 0.95123 0.0
H399 H 0.42015 0.11114 0.85958 0.0
Tb400 Tb 0.63544 0.61409 0.30626 0.0
Tb401 Tb 0.65567 0.61967 0.4197 0.0
C402 C 0.62505 0.61438 0.21037 0.0
C403 C 0.63456 0.62069 0.15901 0.0
C404 C 0.62688 0.64135 0.13039 0.0
C405 C 0.63302 0.64566 0.0789 0.0
C406 C 0.64683 0.62931 0.05469 0.0
C407 C 0.65516 0.60905 0.08399 0.0
C408 C 0.64908 0.60477 0.13542 0.0
C409 C 0.63773 0.57554 0.37064 0.0
C410 C 0.69049 0.61999 0.32737 0.0
C411 C 0.6699 0.60808 0.51127 0.0
C412 C 0.66771 0.6139 0.56562 0.0
C413 C 0.67521 0.59711 0.6048 0.0
C414 C 0.67372 0.60189 0.65701 0.0
C415 C 0.66466 0.62363 0.67121 0.0
C416 C 0.65689 0.64041 0.63168 0.0
C417 C 0.65844 0.63559 0.57919 0.0
C418 C 0.64685 0.66199 0.37272 0.0
C419 C 0.5999 0.62277 0.39059 0.0
O420 O 0.61971 0.63174 0.2396 0.0
O421 O 0.63458 0.59623 0.23738 0.0
O422 O 0.65258 0.59202 0.3673 0.0
O423 O 0.62092 0.57997 0.33577 0.0
O424 O 0.67212 0.62303 0.29415 0.0
O425 O 0.6881 0.61515 0.37787 0.0
O426 O 0.65132 0.59877 0.48806 0.0
O427 O 0.68068 0.62357 0.48107 0.0
O428 O 0.64434 0.64177 0.3551 0.0
O429 O 0.65434 0.65881 0.42093 0.0
O430 O 0.61687 0.61733 0.42699 0.0
O431 O 0.60405 0.62582 0.34075 0.0
H432 H 0.61549 0.65384 0.14725 0.0
H433 H 0.62655 0.6616 0.05774 0.0
H434 H 0.66553 0.59587 0.06651 0.0
H435 H 0.65506 0.58849 0.15595 0.0
H436 H 0.68224 0.5802 0.59497 0.0
H437 H 0.6794 0.58838 0.68631 0.0
H438 H 0.64992 0.65735 0.64131 0.0
H439 H 0.65251 0.64874 0.54931 0.0
Tb440 Tb 0.14024 0.87223 0.11196 0.0
Tb441 Tb 0.1421 0.89472 0.21012 0.0
C442 C 0.13271 0.85898 0.02043 0.0
C443 C 0.13554 0.86653 0.96507 0.0
C444 C 0.11545 0.86969 0.93155 0.0
C445 C 0.11746 0.87405 0.87804 0.0
C446 C 0.13966 0.87523 0.85653 0.0
C447 C 0.15981 0.87265 0.89033 0.0
C448 C 0.15778 0.86833 0.94395 0.0
C449 C 0.18308 0.8744 0.15951 0.0
C450 C 0.14312 0.9283 0.11017 0.0
C451 C 0.15237 0.90725 0.30127 0.0
C452 C 0.15022 0.89978 0.35686 0.0
C453 C 0.17063 0.89747 0.38963 0.0
C454 C 0.16915 0.89331 0.44336 0.0
C455 C 0.14718 0.8915 0.46577 0.0
C456 C 0.12673 0.89315 0.43269 0.0
C457 C 0.12822 0.89724 0.37889 0.0
C458 C 0.09864 0.89296 0.16695 0.0
C459 C 0.13517 0.83812 0.20628 0.0
O460 O 0.11737 0.87042 0.04555 0.0
O461 O 0.1516 0.85368 0.0495 0.0
O462 O 0.16782 0.89061 0.15507 0.0
O463 O 0.17474 0.85641 0.1356 0.0
O464 O 0.13631 0.9094 0.08559 0.0
O465 O 0.15031 0.9263 0.15992 0.0
O466 O 0.16646 0.89509 0.27445 0.0
O467 O 0.13323 0.91358 0.27414 0.0
O468 O 0.11389 0.87661 0.16811 0.0
O469 O 0.10757 0.91038 0.19189 0.0
O470 O 0.14342 0.85589 0.23388 0.0
O471 O 0.12827 0.84195 0.15723 0.0
H472 H 0.09808 0.86807 0.94657 0.0
H473 H 0.10154 0.87561 0.85334 0.0
H474 H 0.17719 0.87378 0.87532 0.0
H475 H 0.17365 0.8659 0.96858 0.0
H476 H 0.18781 0.89962 0.37381 0.0
H477 H 0.18527 0.8924 0.46752 0.0
H478 H 0.10952 0.8915 0.44842 0.0
H479 H 0.11212 0.89896 0.3548 0.0
Tb480 Tb 0.8861 0.63118 0.10611 0.0
Tb481 Tb 0.88952 0.60463 0.20902 0.0
C482 C 0.89101 0.64679 1.01345 0.0
C483 C 0.89058 0.63941 0.9589 0.0
C484 C 0.90835 0.64766 0.9268 0.0
C485 C 0.90756 0.64301 0.87393 0.0
C486 C 0.88887 0.63002 0.85141 0.0
C487 C 0.87136 0.62118 0.88406 0.0
C488 C 0.87218 0.62584 0.93715 0.0
C489 C 0.84652 0.62879 0.15651 0.0
C490 C 0.88175 0.57469 0.11049 0.0
C491 C 0.88567 0.58931 0.30238 0.0
C492 C 0.88436 0.59725 0.35631 0.0
C493 C 0.86593 0.589 0.38662 0.0
C494 C 0.86558 0.5938 0.43937 0.0
C495 C 0.88373 0.60696 0.46349 0.0
C496 C 0.90186 0.6158 0.43262 0.0
C497 C 0.90219 0.61099 0.37978 0.0
C498 C 0.9293 0.60666 0.16004 0.0
C499 C 0.89438 0.66145 0.20086 0.0
O500 O 0.90842 0.63912 0.04488 0.0
O501 O 0.87114 0.64698 0.03661 0.0
O502 O 0.86137 0.61242 0.1539 0.0
O503 O 0.85303 0.64699 0.12793 0.0
O504 O 0.88631 0.59453 0.08336 0.0
O505 O 0.87964 0.57447 0.16159 0.0
O506 O 0.86774 0.59381 0.2697 0.0
O507 O 0.90565 0.59197 0.28005 0.0
O508 O 0.91468 0.62338 0.16217 0.0
O509 O 0.92189 0.58839 0.18705 0.0
O510 O 0.88792 0.64242 0.2292 0.0
O511 O 0.89838 0.66026 0.15123 0.0
H512 H 0.92274 0.65814 0.9425 0.0
H513 H 0.92165 0.64971 0.85064 0.0
H514 H 0.8566 0.61124 0.86833 0.0
H515 H 0.85819 0.61923 0.96086 0.0
H516 H 0.85199 0.5783 0.36972 0.0
H517 H 0.85108 0.58703 0.46131 0.0
H518 H 0.91628 0.6258 0.44962 0.0
H519 H 0.91675 0.61754 0.35771 0.0
Tb520 Tb 0.13532 0.11432 0.80512 0.0
Tb521 Tb 0.15618 0.12033 0.91715 0.0
C522 C 0.12365 0.11368 0.71005 0.0
C523 C 0.13202 0.11823 0.65717 0.0
C524 C 0.13239 0.14122 0.63327 0.0
C525 C 0.13654 0.14452 0.58031 0.0
C526 C 0.14009 0.12487 0.5504 0.0
C527 C 0.14086 0.10207 0.575 0.0
C528 C 0.1368 0.09878 0.62767 0.0
C529 C 0.13789 0.07601 0.87004 0.0
C530 C 0.19062 0.11954 0.82457 0.0
C531 C 0.16943 0.10905 1.00933 0.0
C532 C 0.16488 0.11448 0.06303 0.0
C533 C 0.16105 0.09547 0.09875 0.0
C534 C 0.15656 0.09957 0.15004 0.0
C535 C 0.15588 0.12282 0.16686 0.0
C536 C 0.15999 0.14193 0.13122 0.0
C537 C 0.16435 0.1378 0.07949 0.0
C538 C 0.14791 0.16263 0.86985 0.0
C539 C 0.10023 0.12394 0.88957 0.0
O540 O 0.11982 0.13185 0.73819 0.0
O541 O 0.13292 0.09554 0.73751 0.0
O542 O 0.15286 0.09233 0.86569 0.0
O543 O 0.12067 0.08059 0.83632 0.0
O544 O 0.17213 0.1225 0.79157 0.0
O545 O 0.18839 0.11515 0.87527 0.0
O546 O 0.15223 0.09844 0.98397 0.0
O547 O 0.18005 0.12518 0.98036 0.0
O548 O 0.14429 0.14242 0.85278 0.0
O549 O 0.1567 0.15948 0.91706 0.0
O550 O 0.11738 0.11881 0.92571 0.0
O551 O 0.10415 0.12648 0.83961 0.0
H552 H 0.12855 0.15656 0.65485 0.0
H553 H 0.13578 0.16229 0.56224 0.0
H554 H 0.14391 0.08663 0.55307 0.0
H555 H 0.13644 0.08084 0.6448 0.0
H556 H 0.16154 0.07734 0.08688 0.0
H557 H 0.15387 0.08446 0.17677 0.0
H558 H 0.15947 0.16003 0.14313 0.0
H559 H 0.1672 0.15278 0.05252 0.0
Tb560 Tb 0.63813 0.37238 0.60909 0.0
Tb561 Tb 0.64258 0.39456 0.71587 0.0
C562 C 0.62788 0.36046 0.51776 0.0
C563 C 0.63161 0.36791 0.46277 0.0
C564 C 0.61203 0.37235 0.42838 0.0
C565 C 0.6148 0.37702 0.37521 0.0
C566 C 0.63727 0.37724 0.35498 0.0
C567 C 0.65694 0.37337 0.38972 0.0
C568 C 0.65416 0.36877 0.44297 0.0
C569 C 0.68103 0.37347 0.6566 0.0
C570 C 0.64147 0.42862 0.6125 0.0
C571 C 0.66055 0.40659 0.8017 0.0
C572 C 0.65696 0.40269 0.85789 0.0
C573 C 0.67664 0.39956 0.89248 0.0
C574 C 0.67399 0.3965 0.94603 0.0
C575 C 0.65154 0.39654 0.96635 0.0
C576 C 0.63178 0.39951 0.93146 0.0
C577 C 0.63445 0.40248 0.87776 0.0
C578 C 0.59703 0.38792 0.68984 0.0
C579 C 0.63249 0.33905 0.70536 0.0
O580 O 0.6145 0.37395 0.54353 0.0
O581 O 0.64598 0.35222 0.54633 0.0
O582 O 0.66548 0.38935 0.6551 0.0
O583 O 0.67308 0.35649 0.62871 0.0
O584 O 0.63794 0.40979 0.58476 0.0
O585 O 0.64582 0.42692 0.66385 0.0
O586 O 0.66758 0.3882 0.77771 0.0
O587 O 0.64474 0.41924 0.77382 0.0
O588 O 0.61476 0.38275 0.66521 0.0
O589 O 0.60507 0.39756 0.73162 0.0
O590 O 0.6434 0.35541 0.73326 0.0
O591 O 0.62429 0.34396 0.65732 0.0
H592 H 0.59444 0.37157 0.44247 0.0
H593 H 0.59922 0.37964 0.34971 0.0
H594 H 0.67453 0.37375 0.3757 0.0
H595 H 0.66965 0.36543 0.46837 0.0
H596 H 0.69416 0.39972 0.87805 0.0
H597 H 0.68961 0.39457 0.97161 0.0
H598 H 0.61422 0.39933 0.9456 0.0
H599 H 0.61895 0.40471 0.85188 0.0
Tb600 Tb 0.38309 0.86943 0.41441 0.0
Tb601 Tb 0.38454 0.895 0.31266 0.0
C602 C 0.38868 0.85443 0.50857 0.0
C603 C 0.38765 0.86201 0.5628 0.0
C604 C 0.40656 0.85649 0.59843 0.0
C605 C 0.40546 0.86129 0.65099 0.0
C606 C 0.38534 0.87171 0.66962 0.0
C607 C 0.36655 0.87768 0.63357 0.0
C608 C 0.36769 0.87292 0.58081 0.0
C609 C 0.34231 0.87107 0.35843 0.0
C610 C 0.37861 0.92567 0.40868 0.0
C611 C 0.37799 0.90963 0.2184 0.0
C612 C 0.37807 0.90177 0.16421 0.0
C613 C 0.35881 0.90734 0.12957 0.0
C614 C 0.35939 0.90273 0.07675 0.0
C615 C 0.37934 0.89249 0.05694 0.0
C616 C 0.3984 0.88632 0.09207 0.0
C617 C 0.39778 0.89089 0.14498 0.0
C618 C 0.42597 0.89348 0.3655 0.0
C619 C 0.39116 0.83839 0.32331 0.0
O620 O 0.40565 0.86309 0.48102 0.0
O621 O 0.36897 0.85283 0.48073 0.0
O622 O 0.35693 0.8878 0.36338 0.0
O623 O 0.35005 0.85284 0.38679 0.0
O624 O 0.38394 0.90607 0.43679 0.0
O625 O 0.37519 0.92544 0.35743 0.0
O626 O 0.36114 0.90188 0.24742 0.0
O627 O 0.39812 0.91054 0.24483 0.0
O628 O 0.4112 0.87665 0.36264 0.0
O629 O 0.41755 0.91151 0.33752 0.0
O630 O 0.38407 0.85701 0.29295 0.0
O631 O 0.39569 0.84022 0.37343 0.0
H632 H 0.42207 0.84788 0.58578 0.0
H633 H 0.42017 0.85611 0.67734 0.0
H634 H 0.35089 0.88603 0.64612 0.0
H635 H 0.35281 0.87744 0.55438 0.0
H636 H 0.34349 0.91595 0.14312 0.0
H637 H 0.34446 0.90801 0.05113 0.0
H638 H 0.41392 0.87806 0.07865 0.0
H639 H 0.41295 0.88635 0.17055 0.0
H640 H 0.11484 0.60431 0.78579 0.0
H641 H 0.18344 0.63713 0.52734 0.0
H642 H 0.1769 0.64834 0.78358 0.0
H643 H 0.1202 0.59487 0.52965 0.0
H644 H 0.18176 0.64097 0.62111 0.0
H645 H 0.1169 0.60028 0.69232 0.0
C646 C 0.12889 0.61321 0.76574 0.0
C647 C 0.14568 0.62676 0.79299 0.0
C648 C 0.16823 0.63088 0.6011 0.0
C649 C 0.14825 0.62203 0.68531 0.0
C650 C 0.16922 0.62859 0.54747 0.0
C651 C 0.15192 0.61566 0.52017 0.0
C652 C 0.14984 0.6201 0.62805 0.0
C653 C 0.13376 0.6053 0.54861 0.0
C654 C 0.1301 0.6108 0.71225 0.0
C655 C 0.1637 0.63748 0.76464 0.0
N656 N 0.13324 0.6077 0.60078 0.0
N657 N 0.16446 0.63494 0.71253 0.0
H658 H 0.62607 0.85763 0.0247 0.0
H659 H 0.64782 0.91474 0.7399 0.0
H660 H 0.65905 0.92585 0.99727 0.0
H661 H 0.62691 0.84191 0.77045 0.0
H662 H 0.64899 0.92043 0.83332 0.0
H663 H 0.62317 0.85291 0.93109 0.0
C664 C 0.63279 0.87162 0.99916 0.0
C665 C 0.64293 0.89215 0.01936 0.0
C666 C 0.64408 0.90323 0.8195 0.0
C667 C 0.63932 0.88694 0.91147 0.0
C668 C 0.6435 0.89991 0.76608 0.0
C669 C 0.63726 0.87778 0.74684 0.0
C670 C 0.63831 0.88433 0.85422 0.0
C671 C 0.63145 0.85941 0.78299 0.0
C672 C 0.631 0.86894 0.94555 0.0
C673 C 0.65082 0.90983 0.98381 0.0
N674 N 0.63215 0.86309 0.83472 0.0
N675 N 0.64889 0.9068 0.93178 0.0
H676 H 0.33921 0.36182 0.31456 0.0
H677 H 0.41363 0.39218 0.06401 0.0
H678 H 0.41212 0.38294 0.32283 0.0
H679 H 0.34078 0.37084 0.05525 0.0
H680 H 0.4134 0.38871 0.1587 0.0
H681 H 0.33922 0.36566 0.21978 0.0
C682 C 0.35518 0.36751 0.29654 0.0
C683 C 0.3757 0.37207 0.32698 0.0
C684 C 0.39746 0.38473 0.13612 0.0
C685 C 0.37592 0.37616 0.21801 0.0
C686 C 0.39762 0.38652 0.08191 0.0
C687 C 0.3772 0.38172 0.05133 0.0
C688 C 0.37673 0.37808 0.1603 0.0
C689 C 0.35688 0.37496 0.07706 0.0
C690 C 0.35521 0.36951 0.2423 0.0
C691 C 0.39596 0.37895 0.30113 0.0
N692 N 0.35717 0.37334 0.12991 0.0
N693 N 0.39555 0.38076 0.24829 0.0
H694 H 0.90565 0.14514 0.51327 0.0
H695 H 0.85425 0.10287 0.23764 0.0
H696 H 0.85201 0.09144 0.49699 0.0
H697 H 0.90935 0.15496 0.25506 0.0
H698 H 0.85238 0.09911 0.33228 0.0
H699 H 0.90666 0.14945 0.4187 0.0
C700 C 0.8941 0.1342 0.48992 0.0
C701 C 0.87874 0.11787 0.51348 0.0
C702 C 0.8649 0.11134 0.31538 0.0
C703 C 0.87968 0.12288 0.40461 0.0
C704 C 0.86591 0.11358 0.26126 0.0
C705 C 0.88205 0.12919 0.23807 0.0
C706 C 0.8801 0.12486 0.34681 0.0
C707 C 0.89689 0.14239 0.27097 0.0
C708 C 0.89462 0.13676 0.43579 0.0
C709 C 0.86393 0.1045 0.48083 0.0
N710 N 0.89554 0.13994 0.32346 0.0
N711 N 0.86482 0.10726 0.42824 0.0
H712 H 0.18166 0.3653 0.25746 0.0
H713 H 0.10973 0.39212 0.50721 0.0
H714 H 0.10787 0.3828 0.25042 0.0
H715 H 0.18406 0.37711 0.51515 0.0
H716 H 0.10878 0.38821 0.41336 0.0
H717 H 0.18312 0.36982 0.35138 0.0
C718 C 0.1658 0.37032 0.27545 0.0
C719 C 0.14459 0.37361 0.24562 0.0
C720 C 0.12532 0.38573 0.43556 0.0
C721 C 0.14608 0.37848 0.35378 0.0
C722 C 0.12584 0.38777 0.48939 0.0
C723 C 0.147 0.38486 0.51954 0.0
C724 C 0.14609 0.3807 0.41122 0.0
C725 C 0.16737 0.37974 0.49368 0.0
C726 C 0.16662 0.37272 0.32926 0.0
C727 C 0.12456 0.37971 0.27163 0.0
N728 N 0.1664 0.3778 0.44118 0.0
N729 N 0.1258 0.3819 0.32399 0.0
H730 H 0.85641 0.90347 0.8191 0.0
H731 H 0.89927 0.84953 0.55851 0.0
H732 H 0.89963 0.8409 0.81753 0.0
H733 H 0.8564 0.91235 0.55974 0.0
H734 H 0.89948 0.84602 0.65335 0.0
H735 H 0.85593 0.90688 0.72416 0.0
C736 C 0.86577 0.89041 0.79888 0.0
C737 C 0.87813 0.87189 0.82661 0.0
C738 C 0.88997 0.86055 0.63288 0.0
C739 C 0.87775 0.87578 0.7176 0.0
C740 C 0.88992 0.86262 0.57864 0.0
C741 C 0.87779 0.88126 0.55084 0.0
C742 C 0.87783 0.87726 0.6598 0.0
C743 C 0.86572 0.89748 0.57927 0.0
C744 C 0.86556 0.89243 0.7446 0.0
C745 C 0.89017 0.85569 0.79807 0.0
N746 N 0.86609 0.89513 0.63205 0.0
N747 N 0.88964 0.858 0.74529 0.0
H748 H 0.41886 0.61395 0.75479 0.0
H749 H 0.34264 0.62953 1.00378 0.0
H750 H 0.34768 0.64028 0.74462 0.0
H751 H 0.41433 0.60466 1.01301 0.0
H752 H 0.34386 0.63311 0.90904 0.0
H753 H 0.41722 0.60995 0.84925 0.0
C754 C 0.40287 0.61895 0.77234 0.0
C755 C 0.38341 0.62756 0.74138 0.0
C756 C 0.35934 0.62691 0.93179 0.0
C757 C 0.38136 0.62285 0.85014 0.0
C758 C 0.35864 0.62477 0.98599 0.0
C759 C 0.37842 0.61679 1.01675 0.0
C760 C 0.37996 0.62096 0.90783 0.0
C761 C 0.39874 0.61121 0.99121 0.0
C762 C 0.40193 0.61656 0.82641 0.0
C763 C 0.36305 0.63332 0.76662 0.0
N764 N 0.39895 0.61335 0.93844 0.0
N765 N 0.3626 0.63094 0.81938 0.0
H766 H 0.6816 0.09189 0.03855 0.0
H767 H 0.61585 0.15285 0.26457 0.0
H768 H 0.6237 0.14071 1.00988 0.0
H769 H 0.67474 0.10528 0.29376 0.0
H770 H 0.61832 0.1483 0.17148 0.0
H771 H 0.6796 0.09676 0.13172 0.0
C772 C 0.66858 0.10381 0.05164 0.0
C773 C 0.65283 0.11594 1.0158 0.0
C774 C 0.63071 0.13883 0.19818 0.0
C775 C 0.65021 0.12131 0.12329 0.0
C776 C 0.62921 0.14127 0.25158 0.0
C777 C 0.64504 0.12934 0.28754 0.0
C778 C 0.64818 0.12432 0.18009 0.0
C779 C 0.66228 0.11503 0.26778 0.0
C780 C 0.66735 0.10644 0.10507 0.0
C781 C 0.63605 0.13075 0.03571 0.0
N782 N 0.66335 0.1129 0.21558 0.0
N783 N 0.6352 0.13299 0.0879 0.0
H784 H 0.84592 0.39159 0.22296 0.0
H785 H 0.91199 0.37015 0.50428 0.0
H786 H 0.91415 0.35884 0.2479 0.0
H787 H 0.8448 0.40509 0.47958 0.0
H788 H 0.91278 0.36546 0.41079 0.0
H789 H 0.8448 0.39606 0.31665 0.0
C790 C 0.86066 0.38525 0.248 0.0
C791 C 0.88019 0.37483 0.22702 0.0
C792 C 0.89783 0.37413 0.42578 0.0
C793 C 0.87905 0.38006 0.33498 0.0
C794 C 0.89741 0.37693 0.47934 0.0
C795 C 0.87831 0.38811 0.50038 0.0
C796 C 0.87903 0.38254 0.39247 0.0
C797 C 0.85978 0.39609 0.46565 0.0
C798 C 0.86004 0.38792 0.30162 0.0
C799 C 0.89886 0.3673 0.26181 0.0
N800 N 0.86063 0.3932 0.41366 0.0
N801 N 0.8978 0.37002 0.31379 0.0
H802 H 0.36604 0.09493 0.29565 0.0
H803 H 0.4052 0.14407 1.01485 0.0
H804 H 0.40846 0.15763 0.27097 0.0
H805 H 0.36323 0.08098 0.03869 0.0
H806 H 0.40627 0.14939 0.10834 0.0
H807 H 0.36417 0.08987 0.20186 0.0
C808 C 0.37489 0.10772 0.27067 0.0
C809 C 0.38751 0.12671 0.29181 0.0
C810 C 0.39678 0.1344 0.09314 0.0
C811 C 0.38558 0.12086 0.18371 0.0
C812 C 0.39626 0.13126 0.03959 0.0
C813 C 0.38412 0.112 1.01829 0.0
C814 C 0.38511 0.11819 0.12621 0.0
C815 C 0.37256 0.09629 0.05279 0.0
C816 C 0.37391 0.10473 0.21698 0.0
C817 C 0.39884 0.14247 0.25702 0.0
N818 N 0.37339 0.09969 0.10478 0.0
N819 N 0.3976 0.1392 0.20501 0.0
H820 H 0.68719 0.61963 1.0057 0.0
H821 H 0.62866 0.64464 0.71891 0.0
H822 H 0.61647 0.64573 0.97471 0.0
H823 H 0.69719 0.61335 0.75116 0.0
H824 H 0.6255 0.6494 0.81204 0.0
H825 H 0.69261 0.62107 0.91233 0.0
C826 C 0.67281 0.62575 0.97933 0.0
C827 C 0.65127 0.6324 0.9983 0.0
C828 C 0.64128 0.6416 0.79869 0.0
C829 C 0.65743 0.63425 0.89101 0.0
C830 C 0.64315 0.63901 0.74547 0.0
C831 C 0.66313 0.62836 0.72714 0.0
C832 C 0.65953 0.63354 0.83391 0.0
C833 C 0.68127 0.62124 0.76353 0.0
C834 C 0.67596 0.62666 0.92595 0.0
C835 C 0.63345 0.64062 0.9621 0.0
N836 N 0.67899 0.62385 0.81507 0.0
N837 N 0.63688 0.64115 0.91028 0.0
H838 H 0.1162 0.91292 0.52675 0.0
H839 H 0.17058 0.85353 0.79573 0.0
H840 H 0.17477 0.86436 0.53684 0.0
H841 H 0.11314 0.90344 0.78553 0.0
H842 H 0.1726 0.85746 0.7013 0.0
H843 H 0.11455 0.90927 0.62125 0.0
C844 C 0.1286 0.9013 0.54871 0.0
C845 C 0.14562 0.88888 0.52346 0.0
C846 C 0.15958 0.8676 0.7197 0.0
C847 C 0.14402 0.88488 0.63234 0.0
C848 C 0.15852 0.86551 0.7738 0.0
C849 C 0.14166 0.87818 0.79898 0.0
C850 C 0.14367 0.88249 0.69018 0.0
C851 C 0.12624 0.89307 0.76801 0.0
C852 C 0.12776 0.89937 0.60284 0.0
C853 C 0.1615 0.87448 0.55442 0.0
N854 N 0.12761 0.89479 0.71542 0.0
N855 N 0.16029 0.87287 0.60707 0.0
H856 H 0.8735 0.59051 0.80022 0.0
H857 H 0.89802 0.64666 0.51501 0.0
H858 H 0.90098 0.66105 0.77094 0.0
H859 H 0.87033 0.57614 0.54338 0.0
H860 H 0.89913 0.65218 0.60846 0.0
H861 H 0.87166 0.58506 0.70657 0.0
C862 C 0.87905 0.60493 0.77428 0.0
C863 C 0.88751 0.62627 0.79408 0.0
C864 C 0.89276 0.6355 0.59427 0.0
C865 C 0.88563 0.62001 0.6861 0.0
C866 C 0.89224 0.63227 0.54073 0.0
C867 C 0.88405 0.61087 0.52071 0.0
C868 C 0.8851 0.61722 0.62861 0.0
C869 C 0.87647 0.59308 0.55648 0.0
C870 C 0.87811 0.60173 0.72065 0.0
C871 C 0.89472 0.64412 0.75803 0.0
N872 N 0.87721 0.59664 0.6084 0.0
N873 N 0.89362 0.64058 0.70613 0.0
H874 H 0.16566 0.15705 0.49207 0.0
H875 H 0.12207 0.10163 0.22419 0.0
H876 H 0.11645 0.09917 0.47846 0.0
H877 H 0.17839 0.15275 0.2341 0.0
H878 H 0.11659 0.10466 0.31652 0.0
H879 H 0.16764 0.15966 0.39691 0.0
C880 C 0.1552 0.14501 0.46904 0.0
C881 C 0.14114 0.12764 0.49312 0.0
C882 C 0.13011 0.11533 0.29864 0.0
C883 C 0.14318 0.13057 0.38487 0.0
C884 C 0.13326 0.11356 0.24589 0.0
C885 C 0.15093 0.1267 0.22163 0.0
C886 C 0.14477 0.13031 0.3277 0.0
C887 C 0.16457 0.1423 0.25137 0.0
C888 C 0.15638 0.14646 0.41488 0.0
C889 C 0.12791 0.11249 0.46159 0.0
N890 N 0.16136 0.14352 0.30309 0.0
N891 N 0.12931 0.11428 0.40927 0.0
H892 H 0.66753 0.35424 0.29508 0.0
H893 H 0.62117 0.41985 0.02575 0.0
H894 H 0.61318 0.40758 0.28391 0.0
H895 H 0.67589 0.3669 0.03805 0.0
H896 H 0.61773 0.41548 0.1199 0.0
H897 H 0.67104 0.359 0.20118 0.0
C898 C 0.65647 0.36714 0.27303 0.0
C899 C 0.64005 0.38056 0.29777 0.0
C900 C 0.63049 0.4048 0.10201 0.0
C901 C 0.64377 0.38586 0.18952 0.0
C902 C 0.63236 0.40717 0.04811 0.0
C903 C 0.64887 0.39374 0.02366 0.0
C904 C 0.64518 0.38882 0.13196 0.0
C905 C 0.66313 0.37788 0.05506 0.0
C906 C 0.65837 0.36971 0.21922 0.0
C907 C 0.6259 0.39663 0.26666 0.0
N908 N 0.66094 0.37587 0.10738 0.0
N909 N 0.62809 0.39883 0.21432 0.0
H910 H 0.4173 0.89865 0.99544 0.0
H911 H 0.34704 0.86606 0.73044 0.0
H912 H 0.34407 0.87872 0.98715 0.0
H913 H 0.42023 0.88608 0.73943 0.0
H914 H 0.34542 0.87112 0.82378 0.0
H915 H 0.41867 0.89392 0.90206 0.0
C916 C 0.40152 0.89307 0.97424 0.0
C917 C 0.38053 0.88905 0.99978 0.0
C918 C 0.36183 0.87445 0.80534 0.0
C919 C 0.38194 0.8839 0.89176 0.0
C920 C 0.36274 0.87173 0.75178 0.0
C921 C 0.38383 0.8756 0.7265 0.0
C922 C 0.38213 0.88115 0.83433 0.0
C923 C 0.40365 0.88253 0.75694 0.0
C924 C 0.40229 0.89054 0.92062 0.0
C925 C 0.3606 0.88231 0.96944 0.0
N926 N 0.40231 0.88505 0.80896 0.0
N927 N 0.36181 0.87995 0.91731 0.0
H928 H 0.10195 0.69438 0.17266 0.0
H929 H 0.16875 0.8106 0.26178 0.0
H930 H 0.16844 0.69032 0.25998 0.0
H931 H 0.09779 0.80901 0.19596 0.0
H932 H 0.16805 0.76687 0.27279 0.0
H933 H 0.09893 0.73607 0.19113 0.0
C934 C 0.11577 0.70225 0.19656 0.0
C935 C 0.13544 0.68888 0.21484 0.0
C936 C 0.15244 0.77616 0.25724 0.0
C937 C 0.13253 0.73718 0.23511 0.0
C938 C 0.15275 0.80112 0.25153 0.0
C939 C 0.13326 0.8134 0.22808 0.0
C940 C 0.13251 0.76356 0.23913 0.0
C941 C 0.1132 0.80024 0.21422 0.0
C942 C 0.1141 0.72615 0.20709 0.0
C943 C 0.15288 0.70001 0.24554 0.0
N944 N 0.11344 0.77617 0.2194 0.0
N945 N 0.15124 0.72366 0.25397 0.0
H946 H 0.5751 0.84911 0.40324 0.0
H947 H 0.45772 0.9291 0.37231 0.0
H948 H 0.57187 0.92269 0.3501 0.0
H949 H 0.45369 0.85278 0.38572 0.0
H950 H 0.50039 0.92667 0.38096 0.0
H951 H 0.532 0.84969 0.41302 0.0
C952 C 0.56548 0.86551 0.39511 0.0
C953 C 0.57718 0.886 0.37644 0.0
C954 C 0.49033 0.91035 0.38239 0.0
C955 C 0.52797 0.88674 0.38685 0.0
C956 C 0.46582 0.91174 0.37759 0.0
C957 C 0.45191 0.89115 0.37787 0.0
C958 C 0.50154 0.88814 0.3875 0.0
C959 C 0.46364 0.86917 0.38525 0.0
C960 C 0.54085 0.86577 0.40006 0.0
C961 C 0.56369 0.90655 0.36503 0.0
N962 N 0.48775 0.86822 0.38935 0.0
N963 N 0.54006 0.90639 0.37042 0.0
H964 H 0.35683 0.30107 0.78196 0.0
H965 H 0.42781 0.19491 0.68011 0.0
H966 H 0.42776 0.30697 0.73285 0.0
H967 H 0.36652 0.18211 0.76863 0.0
H968 H 0.42918 0.23561 0.7071 0.0
H969 H 0.36089 0.25753 0.78771 0.0
C970 C 0.3736 0.29322 0.77479 0.0
C971 C 0.39211 0.30754 0.7575 0.0
C972 C 0.41557 0.22393 0.72145 0.0
C973 C 0.39658 0.258 0.76178 0.0
C974 C 0.41478 0.20066 0.70589 0.0
C975 C 0.397 0.18518 0.72202 0.0
C976 C 0.39805 0.23218 0.75237 0.0
C977 C 0.38059 0.19352 0.75555 0.0
C978 C 0.37583 0.26838 0.77739 0.0
C979 C 0.41318 0.29651 0.74685 0.0
N980 N 0.38122 0.21664 0.76885 0.0
N981 N 0.41472 0.27248 0.7484 0.0
H982 H 0.95774 0.07737 0.91216 0.0
H983 H 0.06818 0.15753 0.85517 0.0
H984 H 0.95113 0.15296 0.8825 0.0
H985 H 0.07499 0.09301 0.95156 0.0
H986 H 0.0255 0.15613 0.86297 0.0
H987 H 1.00047 0.08208 0.92494 0.0
C988 C 0.96527 0.09502 0.90899 0.0
C989 C 0.95079 0.11479 0.89627 0.0
C990 C 0.0363 0.1425 0.88329 0.0
C991 C 0.9999 0.12027 0.90968 0.0
C992 C 0.0607 0.14333 0.87899 0.0
C993 C 0.07523 0.12552 0.9033 0.0
C994 C 0.02609 0.12327 0.91074 0.0
C995 C 0.06451 0.10732 0.93294 0.0
C996 C 0.98967 0.09769 0.91637 0.0
C997 C 0.96156 0.13723 0.89249 0.0
N998 N 0.04058 0.10642 0.93505 0.0
N999 N 0.98544 0.13931 0.89829 0.0
H1000 H 0.16748 0.31154 0.7893 0.0
H1001 H 0.10612 0.18478 0.84378 0.0
H1002 H 0.1011 0.30225 0.86042 0.0
H1003 H 0.18098 0.19439 0.83989 0.0
H1004 H 0.10076 0.22748 0.82157 0.0
H1005 H 0.16911 0.26837 0.77954 0.0
C1006 C 0.15289 0.30053 0.80116 0.0
C1007 C 0.1341 0.31043 0.82558 0.0
C1008 C 0.11832 0.22011 0.82419 0.0
C1009 C 0.13587 0.26121 0.81487 0.0
C1010 C 0.12134 0.19575 0.83629 0.0
C1011 C 0.14399 0.18613 0.84294 0.0
C1012 C 0.13811 0.23484 0.8184 0.0
C1013 C 0.16322 0.20118 0.83445 0.0
C1014 C 0.15393 0.2759 0.79611 0.0
C1015 C 0.11589 0.29529 0.84136 0.0
N1016 N 0.15988 0.22479 0.82282 0.0
N1017 N 0.11726 0.27148 0.83597 0.0
H1018 H 0.07135 0.85183 0.16053 0.0
H1019 H 0.95095 0.92625 0.16208 0.0
H1020 H 0.06626 0.92805 0.15653 0.0
H1021 H 0.95113 0.84983 0.17487 0.0
H1022 H 0.9931 0.92603 0.15105 0.0
H1023 H 0.0279 0.84944 0.15758 0.0
C1024 C 0.06115 0.86804 0.15825 0.0
C1025 C 0.07256 0.89021 0.1589 0.0
C1026 C 0.98409 0.90919 0.15586 0.0
C1027 C 0.02285 0.88761 0.15575 0.0
C1028 C 0.95986 0.90932 0.162 0.0
C1029 C 0.94734 0.88806 0.16953 0.0
C1030 C 0.99641 0.88759 0.15763 0.0
C1031 C 0.96 0.86668 0.16895 0.0
C1032 C 0.03634 0.86666 0.15686 0.0
C1033 C 0.05837 0.91057 0.15634 0.0
N1034 N 0.98385 0.86698 0.16363 0.0
N1035 N 0.03451 0.90877 0.15506 0.0
H1036 H 0.35939 0.69298 0.26685 0.0
H1037 H 0.42931 0.81035 0.33898 0.0
H1038 H 0.42804 0.69493 0.34458 0.0
H1039 H 0.36007 0.81249 0.26369 0.0
H1040 H 0.43188 0.76826 0.32352 0.0
H1041 H 0.36173 0.73625 0.24821 0.0
C1042 C 0.37527 0.7024 0.27829 0.0
C1043 C 0.39358 0.69049 0.30722 0.0
C1044 C 0.41621 0.77786 0.30942 0.0
C1045 C 0.39625 0.73973 0.28707 0.0
C1046 C 0.41483 0.80196 0.31803 0.0
C1047 C 0.39449 0.81483 0.30251 0.0
C1048 C 0.39681 0.76621 0.28634 0.0
C1049 C 0.37614 0.80314 0.27582 0.0
C1050 C 0.37652 0.72709 0.26816 0.0
C1051 C 0.41354 0.7035 0.32222 0.0
N1052 N 0.37753 0.77932 0.26942 0.0
N1053 N 0.41424 0.72735 0.31242 0.0
H1054 H 0.57539 0.07257 0.64078 0.0
H1055 H 0.45602 0.14802 0.64263 0.0
H1056 H 0.57608 0.14888 0.64176 0.0
H1057 H 0.46025 0.07171 0.64789 0.0
H1058 H 0.49894 0.15005 0.63307 0.0
H1059 H 0.53265 0.07319 0.63336 0.0
C1060 C 0.56649 0.08955 0.63883 0.0
C1061 C 0.5794 0.11067 0.64208 0.0
C1062 C 0.49039 0.13289 0.63578 0.0
C1063 C 0.52988 0.1116 0.63445 0.0
C1064 C 0.46589 0.13174 0.64098 0.0
C1065 C 0.45452 0.10963 0.64633 0.0
C1066 C 0.50354 0.11179 0.63562 0.0
C1067 C 0.46822 0.08913 0.64424 0.0
C1068 C 0.54197 0.08991 0.63476 0.0
C1069 C 0.56683 0.13216 0.63921 0.0
N1070 N 0.49182 0.09072 0.63932 0.0
N1071 N 0.54275 0.13208 0.63612 0.0
H1072 H 0.92919 0.19375 0.83692 0.0
H1073 H 0.85914 0.31383 0.75759 0.0
H1074 H 0.85857 0.194 0.76897 0.0
H1075 H 0.92552 0.3087 0.84517 0.0
H1076 H 0.86166 0.27116 0.74183 0.0
H1077 H 0.93147 0.23652 0.81891 0.0
C1078 C 0.91437 0.20283 0.8168 0.0
C1079 C 0.89373 0.1904 0.80418 0.0
C1080 C 0.8759 0.27954 0.76347 0.0
C1081 C 0.89573 0.2397 0.78535 0.0
C1082 C 0.87456 0.30389 0.77204 0.0
C1083 C 0.89215 0.31469 0.80278 0.0
C1084 C 0.89508 0.26615 0.78547 0.0
C1085 C 0.91155 0.301 0.82145 0.0
C1086 C 0.91556 0.2273 0.8069 0.0
C1087 C 0.8749 0.20299 0.77872 0.0
N1088 N 0.9124 0.27752 0.81281 0.0
N1089 N 0.87616 0.22709 0.77096 0.0
H1090 H 0.66323 0.80981 0.28341 0.0
H1091 H 0.60691 0.6865 0.38424 0.0
H1092 H 0.60227 0.80304 0.37518 0.0
H1093 H 0.6726 0.69095 0.30922 0.0
H1094 H 0.6005 0.72887 0.36299 0.0
H1095 H 0.66266 0.76652 0.27473 0.0
C1096 C 0.64931 0.79933 0.30031 0.0
C1097 C 0.63281 0.81 0.33019 0.0
C1098 C 0.61611 0.72058 0.35005 0.0
C1099 C 0.63222 0.76056 0.32112 0.0
C1100 C 0.61962 0.69633 0.36176 0.0
C1101 C 0.64009 0.68526 0.3477 0.0
C1102 C 0.63348 0.73404 0.32499 0.0
C1103 C 0.65637 0.69886 0.31989 0.0
C1104 C 0.64912 0.7746 0.29582 0.0
C1105 C 0.61541 0.79552 0.35204 0.0
N1106 N 0.65287 0.72262 0.30995 0.0
N1107 N 0.61569 0.77164 0.34745 0.0
H1108 H 0.92838 0.69392 0.18263 0.0
H1109 H 0.8584 0.80168 0.28244 0.0
H1110 H 0.8664 0.68252 0.26945 0.0
H1111 H 0.92878 0.8066 0.22978 0.0
H1112 H 0.86202 0.75809 0.2888 0.0
H1113 H 0.9301 0.73479 0.20842 0.0
C1114 C 0.91528 0.70001 0.20783 0.0
C1115 C 0.8972 0.68486 0.22382 0.0
C1116 C 0.87694 0.76874 0.2775 0.0
C1117 C 0.89863 0.73211 0.25271 0.0
C1118 C 0.87497 0.79361 0.27454 0.0
C1119 C 0.89344 0.80767 0.25614 0.0
C1120 C 0.89742 0.75805 0.26125 0.0
C1121 C 0.91423 0.79636 0.24462 0.0
C1122 C 0.91626 0.7234 0.22267 0.0
C1123 C 0.8807 0.69365 0.25654 0.0
N1124 N 0.91553 0.7723 0.24667 0.0
N1125 N 0.88152 0.71687 0.26915 0.0
H1126 H 0.66715 0.18974 0.7606 0.0
H1127 H 0.59497 0.31016 0.69251 0.0
H1128 H 0.6033 0.1963 0.66397 0.0
H1129 H 0.66591 0.31048 0.75886 0.0
H1130 H 0.59449 0.267 0.70258 0.0
H1131 H 0.66405 0.23215 0.77885 0.0
C1132 C 0.6522 0.19993 0.74435 0.0
C1133 C 0.63547 0.18954 0.71061 0.0
C1134 C 0.6101 0.27639 0.71582 0.0
C1135 C 0.63182 0.23781 0.73115 0.0
C1136 C 0.6103 0.3011 0.71045 0.0
C1137 C 0.6305 0.31394 0.72482 0.0
C1138 C 0.63042 0.26413 0.73497 0.0
C1139 C 0.64989 0.30124 0.74771 0.0
C1140 C 0.65054 0.22414 0.75441 0.0
C1141 C 0.61666 0.20361 0.68995 0.0
N1142 N 0.64954 0.27697 0.7513 0.0
N1143 N 0.61541 0.22689 0.70038 0.0
H1144 H 0.95107 0.35207 0.88178 0.0
H1145 H 0.07125 0.42791 0.88623 0.0
H1146 H 0.9555 0.42836 0.87807 0.0
H1147 H 0.07184 0.35153 0.88898 0.0
H1148 H 0.02868 0.42715 0.89067 0.0
H1149 H 0.99448 0.35014 0.89144 0.0
C1150 C 0.96109 0.36838 0.88379 0.0
C1151 C 0.94951 0.39045 0.87898 0.0
C1152 C 0.03794 0.41044 0.89069 0.0
C1153 C 0.99923 0.38838 0.88965 0.0
C1154 C 0.06241 0.41088 0.88829 0.0
C1155 C 0.0753 0.38978 0.88714 0.0
C1156 C 0.02577 0.3887 0.89147 0.0
C1157 C 0.06269 0.36825 0.88999 0.0
C1158 C 0.9859 0.36727 0.88902 0.0
C1159 C 0.96352 0.41095 0.8814 0.0
N1160 N 0.03864 0.36826 0.89154 0.0
N1161 N 0.98738 0.4094 0.8863 0.0
H1162 H 0.45712 0.57703 0.41493 0.0
H1163 H 0.56793 0.65641 0.35603 0.0
H1164 H 0.45098 0.65264 0.3849 0.0
H1165 H 0.57455 0.59185 0.45238 0.0
H1166 H 0.52526 0.65526 0.36425 0.0
H1167 H 0.49991 0.58144 0.42698 0.0
C1168 C 0.46477 0.59462 0.41155 0.0
C1169 C 0.45041 0.61449 0.39893 0.0
C1170 C 0.53602 0.64155 0.3844 0.0
C1171 C 0.49957 0.61961 0.41147 0.0
C1172 C 0.5604 0.64222 0.37982 0.0
C1173 C 0.57486 0.62433 0.40398 0.0
C1174 C 0.52576 0.62241 0.41205 0.0
C1175 C 0.56411 0.6062 0.43377 0.0
C1176 C 0.4892 0.59712 0.41849 0.0
C1177 C 0.46132 0.63684 0.39484 0.0
N1178 N 0.5402 0.60547 0.4362 0.0
N1179 N 0.48523 0.63875 0.40022 0.0
H1180 H 0.44804 0.34878 0.66927 0.0
H1181 H 0.56718 0.4247 0.68933 0.0
H1182 H 0.45158 0.42492 0.67387 0.0
H1183 H 0.56852 0.35073 0.65684 0.0
H1184 H 0.52446 0.4243 0.67945 0.0
H1185 H 0.49111 0.34794 0.66063 0.0
C1186 C 0.45775 0.36532 0.66765 0.0
C1187 C 0.44608 0.38697 0.67262 0.0
C1188 C 0.53389 0.40812 0.67362 0.0
C1189 C 0.4954 0.38613 0.66324 0.0
C1190 C 0.55842 0.40841 0.67898 0.0
C1191 C 0.57155 0.38786 0.67308 0.0
C1192 C 0.5219 0.38688 0.66354 0.0
C1193 C 0.55912 0.36712 0.66066 0.0
C1194 C 0.48236 0.36482 0.6629 0.0
C1195 C 0.45969 0.40778 0.67058 0.0
N1196 N 0.53499 0.36707 0.65695 0.0
N1197 N 0.48339 0.40681 0.66649 0.0
H1198 H 0.0754 0.57189 0.14608 0.0
H1199 H 0.9561 0.64755 0.14505 0.0
H1200 H 0.07617 0.64825 0.14551 0.0
H1201 H 0.96012 0.57126 0.14837 0.0
H1202 H 0.99908 0.64952 0.13641 0.0
H1203 H 0.03268 0.57257 0.13752 0.0
C1204 C 0.06653 0.58889 0.14357 0.0
C1205 C 0.07944 0.61001 0.1467 0.0
C1206 C 0.99047 0.63239 0.13846 0.0
C1207 C 0.02994 0.61101 0.13773 0.0
C1208 C 0.96593 0.63127 0.14312 0.0
C1209 C 0.95449 0.60918 0.1477 0.0
C1210 C 1.00358 0.61127 0.13811 0.0
C1211 C 0.96815 0.58866 0.14531 0.0
C1212 C 0.04202 0.58929 0.13882 0.0
C1213 C 0.0669 0.63153 0.14307 0.0
N1214 N 0.99179 0.59022 0.14097 0.0
N1215 N 0.04283 0.63148 0.13936 0.0
H1216 H 0.15807 0.53108 0.15754 0.0
H1217 H 0.1528 0.4693 0.88232 0.0
H1218 H 0.15103 0.57002 1.00906 0.0
H1219 H 0.15103 0.43026 0.03048 0.0
H1220 H 0.15526 0.50638 0.9281 0.0
H1221 H 0.15869 0.49397 0.11191 0.0
C1222 C 0.15682 0.5319 0.11547 0.0
C1223 C 0.15441 0.55384 0.08737 0.0
C1224 C 0.1544 0.48967 0.95057 0.0
C1225 C 0.15509 0.51129 0.03461 0.0
C1226 C 0.15305 0.46846 0.92437 0.0
C1227 C 0.1516 0.44649 0.95231 0.0
C1228 C 0.15445 0.48902 1.00527 0.0
C1229 C 0.15197 0.44667 1.00697 0.0
C1230 C 0.15709 0.51067 0.08935 0.0
C1231 C 0.15279 0.55363 0.03268 0.0
N1232 N 0.15334 0.46748 0.03146 0.0
N1233 N 0.15314 0.53282 1.0083 0.0
H1234 H 0.71427 0.82822 0.36832 0.0
H1235 H 0.81725 0.90441 0.23598 0.0
H1236 H 0.70987 0.90405 0.34075 0.0
H1237 H 0.81023 0.82871 0.22684 0.0
H1238 H 0.78013 0.90502 0.28089 0.0
H1239 H 0.7511 0.82834 0.32314 0.0
C1240 C 0.72104 0.84494 0.35275 0.0
C1241 C 0.70881 0.86614 0.35846 0.0
C1242 C 0.7867 0.88827 0.26905 0.0
C1243 C 0.75152 0.86648 0.30673 0.0
C1244 C 0.80798 0.8879 0.24355 0.0
C1245 C 0.81697 0.86647 0.22736 0.0
C1246 C 0.77432 0.867 0.27927 0.0
C1247 C 0.80404 0.84567 0.23831 0.0
C1248 C 0.74213 0.84499 0.32681 0.0
C1249 C 0.71858 0.88724 0.33725 0.0
N1250 N 0.78358 0.84645 0.26357 0.0
N1251 N 0.73933 0.8869 0.31272 0.0
H1252 H 0.37125 0.42895 0.53245 0.0
H1253 H 0.37821 0.57052 0.53718 0.0
H1254 H 0.37276 0.4665 0.67399 0.0
H1255 H 0.37143 0.53289 0.39585 0.0
H1256 H 0.37577 0.53288 0.58759 0.0
H1257 H 0.37075 0.46675 0.4823 0.0
C1258 C 0.37141 0.44515 0.55317 0.0
C1259 C 0.37215 0.44441 0.60783 0.0
C1260 C 0.37473 0.53281 0.54558 0.0
C1261 C 0.37164 0.48812 0.54993 0.0
C1262 C 0.37616 0.55435 0.51656 0.0
C1263 C 0.37511 0.55499 0.46188 0.0
C1264 C 0.37233 0.51153 0.52004 0.0
C1265 C 0.37234 0.53335 0.43778 0.0
C1266 C 0.3711 0.4668 0.52429 0.0
C1267 C 0.37219 0.46612 0.63205 0.0
N1268 N 0.37115 0.51255 0.46697 0.0
N1269 N 0.37207 0.48705 0.60298 0.0
H1270 H 0.81982 0.0939 0.82574 0.0
H1271 H 0.71605 0.17068 0.67613 0.0
H1272 H 0.813 0.16954 0.83491 0.0
H1273 H 0.71168 0.09472 0.70088 0.0
H1274 H 0.75343 0.17029 0.72756 0.0
H1275 H 0.78236 0.09343 0.77359 0.0
C1276 C 0.8105 0.11041 0.81668 0.0
C1277 C 0.81959 0.1318 0.83489 0.0
C1278 C 0.74435 0.15367 0.72186 0.0
C1279 C 0.7767 0.13143 0.77487 0.0
C1280 C 0.72299 0.15388 0.69232 0.0
C1281 C 0.71064 0.13271 0.68412 0.0
C1282 C 0.7538 0.13207 0.74313 0.0
C1283 C 0.72054 0.11148 0.70628 0.0
C1284 C 0.78906 0.11013 0.78705 0.0
C1285 C 0.80667 0.15263 0.82196 0.0
N1286 N 0.74154 0.11168 0.7345 0.0
N1287 N 0.78605 0.15194 0.79274 0.0
H1288 H 0.87963 0.57118 1.00502 0.0
H1289 H 0.8755 0.42931 1.01424 0.0
H1290 H 0.8775 0.52781 0.14765 0.0
H1291 H 0.87371 0.47259 0.87105 0.0
H1292 H 0.87529 0.46502 0.06292 0.0
H1293 H 0.87664 0.5356 0.95585 0.0
C1294 C 0.8785 0.55417 0.02627 0.0
C1295 C 0.87894 0.55265 0.08102 0.0
C1296 C 0.87484 0.46681 0.0209 0.0
C1297 C 0.8755 0.51142 0.02394 0.0
C1298 C 0.87498 0.44634 0.99276 0.0
C1299 C 0.87472 0.44778 0.93804 0.0
C1300 C 0.87456 0.48919 0.99457 0.0
C1301 C 0.87391 0.4705 0.913 0.0
C1302 C 0.87675 0.53378 0.99784 0.0
C1303 C 0.87725 0.52997 0.1057 0.0
N1304 N 0.87398 0.49027 0.94143 0.0
N1305 N 0.87571 0.51029 0.07704 0.0
H1306 H 0.23196 0.09723 0.86069 0.0
H1307 H 0.31252 0.16327 0.65364 0.0
H1308 H 0.20361 0.14544 0.73824 0.0
H1309 H 0.32842 0.09196 0.71262 0.0
H1310 H 0.27522 0.16106 0.69697 0.0
H1311 H 0.27026 0.09912 0.82009 0.0
C1312 C 0.23381 0.10835 0.82562 0.0
C1313 C 0.21445 0.12115 0.80285 0.0
C1314 C 0.28695 0.14594 0.70073 0.0
C1315 C 0.25829 0.12364 0.75669 0.0
C1316 C 0.30828 0.14718 0.67601 0.0
C1317 C 0.32386 0.12787 0.67986 0.0
C1318 C 0.28116 0.12539 0.73054 0.0
C1319 C 0.31725 0.10746 0.70939 0.0
C1320 C 0.25562 0.10929 0.80232 0.0
C1321 C 0.21793 0.13516 0.75711 0.0
N1322 N 0.29653 0.10681 0.73392 0.0
N1323 N 0.23935 0.13617 0.73591 0.0
H1324 H 0.67326 0.56238 0.44326 0.0
H1325 H 0.61199 0.44029 0.52978 0.0
H1326 H 0.60406 0.54175 0.38692 0.0
H1327 H 0.66742 0.47014 0.62605 0.0
H1328 H 0.61084 0.47655 0.47429 0.0
H1329 H 0.6736 0.52834 0.50722 0.0
C1330 C 0.65808 0.5508 0.44454 0.0
C1331 C 0.6385 0.55509 0.40986 0.0
C1332 C 0.62318 0.47539 0.50767 0.0
C1333 C 0.63901 0.51578 0.48226 0.0
C1334 C 0.62389 0.45459 0.5395 0.0
C1335 C 0.63984 0.45206 0.58283 0.0
C1336 C 0.63885 0.49398 0.51817 0.0
C1337 C 0.65474 0.47135 0.59333 0.0
C1338 C 0.6583 0.53138 0.48109 0.0
C1339 C 0.61952 0.53923 0.41281 0.0
N1340 N 0.65409 0.4914 0.56086 0.0
N1341 N 0.62031 0.52032 0.44798 0.0
H1342 H 0.31331 0.83417 0.33409 0.0
H1343 H 0.2066 0.91275 0.20099 0.0
H1344 H 0.31804 0.91025 0.31358 0.0
H1345 H 0.21324 0.83751 0.18519 0.0
H1346 H 0.24539 0.9127 0.24828 0.0
H1347 H 0.27508 0.83544 0.28605 0.0
C1348 C 0.30631 0.8512 0.31951 0.0
C1349 C 0.31907 0.87212 0.32807 0.0
C1350 C 0.23838 0.89621 0.23437 0.0
C1351 C 0.27471 0.87377 0.27287 0.0
C1352 C 0.21617 0.89622 0.20744 0.0
C1353 C 0.20656 0.87511 0.18878 0.0
C1354 C 0.25104 0.87486 0.24353 0.0
C1355 C 0.21987 0.85425 0.19852 0.0
C1356 C 0.28441 0.85191 0.29188 0.0
C1357 C 0.30894 0.89364 0.30792 0.0
N1358 N 0.2412 0.85465 0.22522 0.0
N1359 N 0.28739 0.89393 0.28165 0.0
H1360 H 0.65175 0.92939 0.53127 0.0
H1361 H 0.65121 0.07137 0.5037 0.0
H1362 H 0.65304 0.96874 0.38334 0.0
H1363 H 0.6577 0.03166 0.65132 0.0
H1364 H 0.65193 0.03432 0.45933 0.0
H1365 H 0.65387 0.96649 0.57515 0.0
C1366 C 0.65249 0.94582 0.50773 0.0
C1367 C 0.6521 0.94573 0.45308 0.0
C1368 C 0.6533 0.03364 0.50139 0.0
C1369 C 0.65453 0.98879 0.50407 0.0
C1370 C 0.65288 0.05486 0.52701 0.0
C1371 C 0.65434 0.0548 0.5817 0.0
C1372 C 0.65505 0.0119 0.53034 0.0
C1373 C 0.65656 0.0327 0.60926 0.0
C1374 C 0.65376 0.9671 0.53313 0.0
C1375 C 0.65328 0.9678 0.42536 0.0
N1376 N 0.65671 0.01221 0.58335 0.0
N1377 N 0.65431 0.98838 0.4511 0.0
H1378 H 0.20739 0.40639 0.83877 0.0
H1379 H 0.30916 0.32803 0.72631 0.0
H1380 H 0.21268 0.33054 0.86489 0.0
H1381 H 0.31486 0.40389 0.73415 0.0
H1382 H 0.2723 0.329 0.77106 0.0
H1383 H 0.24473 0.40633 0.79453 0.0
C1384 C 0.21634 0.38972 0.83513 0.0
C1385 C 0.20678 0.36844 0.85583 0.0
C1386 C 0.28156 0.34548 0.76317 0.0
C1387 C 0.24967 0.3682 0.80472 0.0
C1388 C 0.30267 0.34494 0.73744 0.0
C1389 C 0.31528 0.3659 0.72628 0.0
C1390 C 0.27252 0.36721 0.77762 0.0
C1391 C 0.30585 0.38726 0.74196 0.0
C1392 C 0.23774 0.3897 0.80998 0.0
C1393 C 0.21931 0.3474 0.84986 0.0
N1394 N 0.28507 0.38739 0.76644 0.0
N1395 N 0.23989 0.34782 0.82485 0.0
H1396 H 0.87361 0.96675 0.17546 0.0
H1397 H 0.87206 0.03276 0.89086 0.0
H1398 H 0.87364 0.93011 0.03285 0.0
H1399 H 0.87867 0.06956 0.0333 0.0
H1400 H 0.87004 0.99507 0.94228 0.0
H1401 H 0.87286 0.0047 0.12421 0.0
C1402 C 0.87333 0.96663 0.13348 0.0
C1403 C 0.87377 0.94511 0.10865 0.0
C1404 C 0.87188 0.01141 0.96227 0.0
C1405 C 0.87294 0.98856 0.04957 0.0
C1406 C 0.87299 0.03297 0.93286 0.0
C1407 C 0.87561 0.05447 0.95757 0.0
C1408 C 0.87332 0.01125 1.01694 0.0
C1409 C 0.87674 0.05351 1.0123 0.0
C1410 C 0.87296 0.98833 0.10419 0.0
C1411 C 0.87343 0.94617 0.05397 0.0
N1412 N 0.87561 0.03235 0.03999 0.0
N1413 N 0.87306 0.96743 0.02645 0.0
H1414 H 0.21583 0.67025 0.17956 0.0
H1415 H 0.31963 0.59416 0.33066 0.0
H1416 H 0.21168 0.59434 0.2057 0.0
H1417 H 0.31282 0.66988 0.33836 0.0
H1418 H 0.28219 0.59348 0.2786 0.0
H1419 H 0.25317 0.67015 0.23112 0.0
C1420 C 0.2228 0.65352 0.19608 0.0
C1421 C 0.21053 0.63228 0.18823 0.0
C1422 C 0.28888 0.61024 0.29171 0.0
C1423 C 0.25363 0.63198 0.24738 0.0
C1424 C 0.31031 0.61065 0.32129 0.0
C1425 C 0.31941 0.63212 0.33903 0.0
C1426 C 0.27652 0.63151 0.27912 0.0
C1427 C 0.30648 0.65291 0.32575 0.0
C1428 C 0.24414 0.65348 0.22569 0.0
C1429 C 0.22048 0.61115 0.21081 0.0
N1430 N 0.28586 0.6521 0.29657 0.0
N1431 N 0.24144 0.61152 0.23909 0.0
H1432 H 0.37742 0.92953 0.51357 0.0
H1433 H 0.37952 0.07144 0.50297 0.0
H1434 H 0.37537 0.97255 0.37 0.0
H1435 H 0.37773 0.02826 0.64591 0.0
H1436 H 0.37705 0.03573 0.45411 0.0
H1437 H 0.37652 0.96532 0.56186 0.0
C1438 C 0.37672 0.94652 0.49193 0.0
C1439 C 0.3766 0.94788 0.43723 0.0
C1440 C 0.37711 0.03399 0.4961 0.0
C1441 C 0.37561 0.98936 0.49328 0.0
C1442 C 0.37856 0.05445 0.52434 0.0
C1443 C 0.37895 0.05301 0.57907 0.0
C1444 C 0.37613 0.01165 0.5224 0.0
C1445 C 0.37749 0.03034 0.60395 0.0
C1446 C 0.37617 0.96703 0.51983 0.0
C1447 C 0.37549 0.97054 0.41195 0.0
N1448 N 0.37627 0.0106 0.57548 0.0
N1449 N 0.37517 0.99035 0.44016 0.0
H1450 H 0.82889 0.59086 0.21478 0.0
H1451 H 0.70329 0.64781 0.2439 0.0
H1452 H 0.81257 0.6627 0.16027 0.0
H1453 H 0.73194 0.59694 0.3606 0.0
H1454 H 0.74147 0.65011 0.20473 0.0
H1455 H 0.79208 0.58928 0.26079 0.0
C1456 C 0.81775 0.60639 0.21295 0.0
C1457 C 0.82413 0.62711 0.18428 0.0
C1458 C 0.73949 0.63852 0.23904 0.0
C1459 C 0.78147 0.62506 0.23527 0.0
C1460 C 0.71764 0.63713 0.26144 0.0
C1461 C 0.71432 0.6222 0.30584 0.0
C1462 C 0.75825 0.62443 0.26013 0.0
C1463 C 0.73371 0.60883 0.3267 0.0
C1464 C 0.79669 0.60543 0.23907 0.0
C1465 C 0.80852 0.6464 0.18204 0.0
N1466 N 0.75474 0.61003 0.30334 0.0
N1467 N 0.78792 0.64484 0.20671 0.0
H1468 H 0.17443 0.06215 0.93957 0.0
H1469 H 0.11298 0.9404 0.0286 0.0
H1470 H 0.10428 0.04236 0.88801 0.0
H1471 H 0.17034 0.96919 0.12115 0.0
H1472 H 0.11171 0.9767 0.97334 0.0
H1473 H 0.17549 0.02773 1.00257 0.0
C1474 C 0.1592 0.05066 0.94167 0.0
C1475 C 0.13913 0.05532 0.90866 0.0
C1476 C 0.12453 0.97527 1.00581 0.0
C1477 C 0.14045 0.01557 0.97992 0.0
C1478 C 0.12534 0.95444 0.03749 0.0
C1479 C 0.14184 0.9516 0.07976 0.0
C1480 C 0.14061 0.99361 1.01539 0.0
C1481 C 0.15725 0.9706 0.08922 0.0
C1482 C 0.15983 0.03103 0.97767 0.0
C1483 C 0.1201 0.03958 0.91263 0.0
N1484 N 0.15645 0.99071 0.05695 0.0
N1485 N 0.12128 0.02046 0.94721 0.0
H1486 H 0.71106 0.33616 0.67916 0.0
H1487 H 0.81593 0.41097 0.81382 0.0
H1488 H 0.7044 0.41078 0.70251 0.0
H1489 H 0.81044 0.33486 0.83156 0.0
H1490 H 0.77735 0.41206 0.76564 0.0
H1491 H 0.74932 0.33604 0.72727 0.0
C1492 C 0.71765 0.35257 0.69434 0.0
C1493 C 0.70435 0.3735 0.68663 0.0
C1494 C 0.78459 0.39513 0.78011 0.0
C1495 C 0.74869 0.37358 0.74178 0.0
C1496 C 0.80668 0.39448 0.8075 0.0
C1497 C 0.81653 0.37278 0.82707 0.0
C1498 C 0.77229 0.37388 0.77131 0.0
C1499 C 0.80361 0.35202 0.81753 0.0
C1500 C 0.73955 0.35248 0.722 0.0
C1501 C 0.71394 0.3942 0.70749 0.0
N1502 N 0.78239 0.35308 0.79032 0.0
N1503 N 0.7355 0.39376 0.73372 0.0
loop_
_geom_bond_atom_site_label_1
_geom_bond_atom_site_label_2
_geom_bond_distance
_geom_bond_site_symmetry_2
_ccdc_geom_bond_type
Tb0 C2 2.809 . S
Tb0 O20 2.484 . S
Tb0 O21 2.440 . S
Tb0 O22 2.658 . S
Tb0 O23 2.409 . S
Tb0 O24 2.378 . S
Tb0 O28 2.325 . S
Tb0 O31 2.341 . S
Tb1 C11 2.809 . S
Tb1 O22 2.325 . S
Tb1 O25 2.341 . S
Tb1 O26 2.484 . S
Tb1 O27 2.440 . S
Tb1 O28 2.658 . S
Tb1 O29 2.409 . S
Tb1 O30 2.378 . S
C2 Tb0 2.809 . S
C2 C3 1.514 . S
C2 O20 1.248 . S
C2 O21 1.266 . S
C3 C2 1.514 . S
C3 C4 1.359 . S
C3 C8 1.348 . S
C4 C3 1.359 . S
C4 C5 1.380 . S
C4 H32 0.929 . S
C5 C4 1.380 . S
C5 C6 1.347 . S
C5 H33 0.931 . S
C6 C5 1.347 . S
C6 C7 1.369 . S
C7 C6 1.369 . S
C7 C8 1.408 . S
C7 H34 0.930 . S
C8 C3 1.348 . S
C8 C7 1.408 . S
C8 H35 0.930 . S
C9 O22 1.281 . S
C9 O23 1.254 . S
C10 O24 1.236 . S
C10 O25 1.266 . S
C11 Tb1 2.809 . S
C11 C12 1.514 1_554 S
C11 O26 1.248 . S
C11 O27 1.266 . S
C12 C11 1.514 1_556 S
C12 C13 1.359 . S
C12 C17 1.348 . S
C13 C12 1.359 . S
C13 C14 1.380 . S
C13 H36 0.929 . S
C14 C13 1.380 . S
C14 C15 1.347 . S
C14 H37 0.931 . S
C15 C14 1.347 . S
C15 C16 1.369 . S
C16 C15 1.369 . S
C16 C17 1.408 . S
C16 H38 0.930 . S
C17 C12 1.348 . S
C17 C16 1.408 . S
C17 H39 0.930 . S
C18 O28 1.281 . S
C18 O29 1.254 . S
C19 O30 1.236 . S
C19 O31 1.266 . S
O20 Tb0 2.484 . S
O20 C2 1.248 . S
O21 Tb0 2.440 . S
O21 C2 1.266 . S
O22 Tb0 2.658 . S
O22 Tb1 2.325 . S
O22 C9 1.281 . S
O23 Tb0 2.409 . S
O23 C9 1.254 . S
O24 Tb0 2.378 . S
O24 C10 1.236 . S
O25 Tb1 2.341 . S
O25 C10 1.266 . S
O26 Tb1 2.484 . S
O26 C11 1.248 . S
O27 Tb1 2.440 . S
O27 C11 1.266 . S
O28 Tb0 2.325 . S
O28 Tb1 2.658 . S
O28 C18 1.281 . S
O29 Tb1 2.409 . S
O29 C18 1.254 . S
O30 Tb1 2.378 . S
O30 C19 1.236 . S
O31 Tb0 2.341 . S
O31 C19 1.266 . S
H32 C4 0.929 . S
H33 C5 0.931 . S
H34 C7 0.930 . S
H35 C8 0.930 . S
H36 C13 0.929 . S
H37 C14 0.931 . S
H38 C16 0.930 . S
H39 C17 0.930 . S
Tb40 C42 2.809 . S
Tb40 O60 2.484 . S
Tb40 O61 2.440 . S
Tb40 O62 2.658 . S
Tb40 O63 2.409 . S
Tb40 O64 2.378 . S
Tb40 O68 2.325 . S
Tb40 O71 2.341 . S
Tb41 C51 2.809 . S
Tb41 O62 2.325 . S
Tb41 O65 2.341 . S
Tb41 O66 2.484 . S
Tb41 O67 2.440 . S
Tb41 O68 2.658 . S
Tb41 O69 2.409 . S
Tb41 O70 2.378 . S
C42 Tb40 2.809 . S
C42 C43 1.514 . S
C42 O60 1.248 . S
C42 O61 1.266 . S
C43 C42 1.514 . S
C43 C44 1.359 . S
C43 C48 1.348 . S
C44 C43 1.359 . S
C44 C45 1.380 . S
C44 H72 0.929 . S
C45 C44 1.380 . S
C45 C46 1.347 . S
C45 H73 0.931 . S
C46 C45 1.347 . S
C46 C47 1.369 . S
C47 C46 1.369 . S
C47 C48 1.408 . S
C47 H74 0.930 . S
C48 C43 1.348 . S
C48 C47 1.408 . S
C48 H75 0.930 . S
C49 O62 1.281 . S
C49 O63 1.254 . S
C50 O64 1.236 . S
C50 O65 1.266 . S
C51 Tb41 2.809 . S
C51 C52 1.514 . S
C51 O66 1.248 . S
C51 O67 1.266 . S
C52 C51 1.514 . S
C52 C53 1.359 . S
C52 C57 1.348 . S
C53 C52 1.359 . S
C53 C54 1.380 . S
C53 H76 0.929 . S
C54 C53 1.380 . S
C54 C55 1.347 . S
C54 H77 0.931 . S
C55 C54 1.347 . S
C55 C56 1.369 . S
C56 C55 1.369 . S
C56 C57 1.408 . S
C56 H78 0.930 . S
C57 C52 1.348 . S
C57 C56 1.408 . S
C57 H79 0.930 . S
C58 O68 1.281 . S
C58 O69 1.254 . S
C59 O70 1.236 . S
C59 O71 1.266 . S
O60 Tb40 2.484 . S
O60 C42 1.248 . S
O61 Tb40 2.440 . S
O61 C42 1.266 . S
O62 Tb40 2.658 . S
O62 Tb41 2.325 . S
O62 C49 1.281 . S
O63 Tb40 2.409 . S
O63 C49 1.254 . S
O64 Tb40 2.378 . S
O64 C50 1.236 . S
O65 Tb41 2.341 . S
O65 C50 1.266 . S
O66 Tb41 2.484 . S
O66 C51 1.248 . S
O67 Tb41 2.440 . S
O67 C51 1.266 . S
O68 Tb40 2.325 . S
O68 Tb41 2.658 . S
O68 C58 1.281 . S
O69 Tb41 2.409 . S
O69 C58 1.254 . S
O70 Tb41 2.378 . S
O70 C59 1.236 . S
O71 Tb40 2.341 . S
O71 C59 1.266 . S
H72 C44 0.929 . S
H73 C45 0.931 . S
H74 C47 0.930 . S
H75 C48 0.930 . S
H76 C53 0.929 . S
H77 C54 0.931 . S
H78 C56 0.930 . S
H79 C57 0.930 . S
Tb80 C82 2.809 . S
Tb80 O100 2.484 . S
Tb80 O101 2.440 . S
Tb80 O102 2.658 . S
Tb80 O103 2.409 . S
Tb80 O104 2.378 . S
Tb80 O108 2.325 . S
Tb80 O111 2.341 . S
Tb81 C91 2.809 . S
Tb81 O102 2.325 . S
Tb81 O105 2.341 . S
Tb81 O106 2.484 . S
Tb81 O107 2.440 . S
Tb81 O108 2.658 . S
Tb81 O109 2.409 . S
Tb81 O110 2.378 . S
C82 Tb80 2.809 . S
C82 C83 1.514 . S
C82 O100 1.248 . S
C82 O101 1.266 . S
C83 C82 1.514 . S
C83 C84 1.359 . S
C83 C88 1.348 . S
C84 C83 1.359 . S
C84 C85 1.380 . S
C84 H112 0.929 . S
C85 C84 1.380 . S
C85 C86 1.347 1_556 S
C85 H113 0.931 . S
C86 C85 1.347 1_554 S
C86 C87 1.369 1_554 S
C87 C86 1.369 1_556 S
C87 C88 1.408 . S
C87 H114 0.930 1_556 S
C88 C83 1.348 . S
C88 C87 1.408 . S
C88 H115 0.930 . S
C89 O102 1.281 . S
C89 O103 1.254 . S
C90 O104 1.236 . S
C90 O105 1.266 . S
C91 Tb81 2.809 . S
C91 C92 1.514 . S
C91 O106 1.248 . S
C91 O107 1.266 . S
C92 C91 1.514 . S
C92 C93 1.359 . S
C92 C97 1.348 . S
C93 C92 1.359 . S
C93 C94 1.380 . S
C93 H116 0.929 . S
C94 C93 1.380 . S
C94 C95 1.347 . S
C94 H117 0.931 . S
C95 C94 1.347 . S
C95 C96 1.369 . S
C96 C95 1.369 . S
C96 C97 1.408 . S
C96 H118 0.930 . S
C97 C92 1.348 . S
C97 C96 1.408 . S
C97 H119 0.930 . S
C98 O108 1.281 . S
C98 O109 1.254 . S
C99 O110 1.236 . S
C99 O111 1.266 . S
O100 Tb80 2.484 . S
O100 C82 1.248 . S
O101 Tb80 2.440 . S
O101 C82 1.266 . S
O102 Tb80 2.658 . S
O102 Tb81 2.325 . S
O102 C89 1.281 . S
O103 Tb80 2.409 . S
O103 C89 1.254 . S
O104 Tb80 2.378 . S
O104 C90 1.236 . S
O105 Tb81 2.341 . S
O105 C90 1.266 . S
O106 Tb81 2.484 . S
O106 C91 1.248 . S
O107 Tb81 2.440 . S
O107 C91 1.266 . S
O108 Tb80 2.325 . S
O108 Tb81 2.658 . S
O108 C98 1.281 . S
O109 Tb81 2.409 . S
O109 C98 1.254 . S
O110 Tb81 2.378 . S
O110 C99 1.236 . S
O111 Tb80 2.341 . S
O111 C99 1.266 . S
H112 C84 0.929 . S
H113 C85 0.931 . S
H114 C87 0.930 1_554 S
H115 C88 0.930 . S
H116 C93 0.929 . S
H117 C94 0.931 . S
H118 C96 0.930 . S
H119 C97 0.930 . S
Tb120 C122 2.809 . S
Tb120 O140 2.484 . S
Tb120 O141 2.440 . S
Tb120 O142 2.658 . S
Tb120 O143 2.409 . S
Tb120 O144 2.378 . S
Tb120 O148 2.325 . S
Tb120 O151 2.341 . S
Tb121 C131 2.809 1_556 S
Tb121 O142 2.325 . S
Tb121 O145 2.341 . S
Tb121 O146 2.484 . S
Tb121 O147 2.440 . S
Tb121 O148 2.658 . S
Tb121 O149 2.409 . S
Tb121 O150 2.378 . S
C122 Tb120 2.809 . S
C122 C123 1.514 . S
C122 O140 1.248 . S
C122 O141 1.266 . S
C123 C122 1.514 . S
C123 C124 1.359 . S
C123 C128 1.348 . S
C124 C123 1.359 . S
C124 C125 1.380 . S
C124 H152 0.929 . S
C125 C124 1.380 . S
C125 C126 1.347 . S
C125 H153 0.931 . S
C126 C125 1.347 . S
C126 C127 1.369 . S
C127 C126 1.369 . S
C127 C128 1.408 . S
C127 H154 0.930 . S
C128 C123 1.348 . S
C128 C127 1.408 . S
C128 H155 0.930 . S
C129 O142 1.281 . S
C129 O143 1.254 . S
C130 O144 1.236 . S
C130 O145 1.266 . S
C131 Tb121 2.809 1_554 S
C131 C132 1.514 . S
C131 O146 1.248 1_554 S
C131 O147 1.266 1_554 S
C132 C131 1.514 . S
C132 C133 1.359 . S
C132 C137 1.348 . S
C133 C132 1.359 . S
C133 C134 1.380 . S
C133 H156 0.929 . S
C134 C133 1.380 . S
C134 C135 1.347 . S
C134 H157 0.931 . S
C135 C134 1.347 . S
C135 C136 1.369 . S
C136 C135 1.369 . S
C136 C137 1.408 . S
C136 H158 0.930 . S
C137 C132 1.348 . S
C137 C136 1.408 . S
C137 H159 0.930 . S
C138 O148 1.281 . S
C138 O149 1.254 . S
C139 O150 1.236 . S
C139 O151 1.266 . S
O140 Tb120 2.484 . S
O140 C122 1.248 . S
O141 Tb120 2.440 . S
O141 C122 1.266 . S
O142 Tb120 2.658 . S
O142 Tb121 2.325 . S
O142 C129 1.281 . S
O143 Tb120 2.409 . S
O143 C129 1.254 . S
O144 Tb120 2.378 . S
O144 C130 1.236 . S
O145 Tb121 2.341 . S
O145 C130 1.266 . S
O146 Tb121 2.484 . S
O146 C131 1.248 1_556 S
O147 Tb121 2.440 . S
O147 C131 1.266 1_556 S
O148 Tb120 2.325 . S
O148 Tb121 2.658 . S
O148 C138 1.281 . S
O149 Tb121 2.409 . S
O149 C138 1.254 . S
O150 Tb121 2.378 . S
O150 C139 1.236 . S
O151 Tb120 2.341 . S
O151 C139 1.266 . S
H152 C124 0.929 . S
H153 C125 0.931 . S
H154 C127 0.930 . S
H155 C128 0.930 . S
H156 C133 0.929 . S
H157 C134 0.931 . S
H158 C136 0.930 . S
H159 C137 0.930 . S
Tb160 C162 2.809 . S
Tb160 O180 2.484 . S
Tb160 O181 2.440 . S
Tb160 O182 2.658 . S
Tb160 O183 2.409 . S
Tb160 O184 2.378 . S
Tb160 O188 2.325 . S
Tb160 O191 2.341 . S
Tb161 C171 2.809 1_556 S
Tb161 O182 2.325 . S
Tb161 O185 2.341 . S
Tb161 O186 2.484 . S
Tb161 O187 2.440 . S
Tb161 O188 2.658 . S
Tb161 O189 2.409 . S
Tb161 O190 2.378 . S
C162 Tb160 2.809 . S
C162 C163 1.514 . S
C162 O180 1.248 . S
C162 O181 1.266 . S
C163 C162 1.514 . S
C163 C164 1.359 . S
C163 C168 1.348 . S
C164 C163 1.359 . S
C164 C165 1.380 . S
C164 H192 0.929 . S
C165 C164 1.380 . S
C165 C166 1.347 . S
C165 H193 0.931 . S
C166 C165 1.347 . S
C166 C167 1.369 . S
C167 C166 1.369 . S
C167 C168 1.408 . S
C167 H194 0.930 . S
C168 C163 1.348 . S
C168 C167 1.408 . S
C168 H195 0.930 . S
C169 O182 1.281 . S
C169 O183 1.254 . S
C170 O184 1.236 . S
C170 O185 1.266 . S
C171 Tb161 2.809 1_554 S
C171 C172 1.514 . S
C171 O186 1.248 1_554 S
C171 O187 1.266 1_554 S
C172 C171 1.514 . S
C172 C173 1.359 . S
C172 C177 1.348 . S
C173 C172 1.359 . S
C173 C174 1.380 . S
C173 H196 0.929 . S
C174 C173 1.380 . S
C174 C175 1.347 . S
C174 H197 0.931 . S
C175 C174 1.347 . S
C175 C176 1.369 . S
C176 C175 1.369 . S
C176 C177 1.408 . S
C176 H198 0.930 . S
C177 C172 1.348 . S
C177 C176 1.408 . S
C177 H199 0.930 . S
C178 O188 1.281 . S
C178 O189 1.254 . S
C179 O190 1.236 . S
C179 O191 1.266 . S
O180 Tb160 2.484 . S
O180 C162 1.248 . S
O181 Tb160 2.440 . S
O181 C162 1.266 . S
O182 Tb160 2.658 . S
O182 Tb161 2.325 . S
O182 C169 1.281 . S
O183 Tb160 2.409 . S
O183 C169 1.254 . S
O184 Tb160 2.378 . S
O184 C170 1.236 . S
O185 Tb161 2.341 . S
O185 C170 1.266 . S
O186 Tb161 2.484 . S
O186 C171 1.248 1_556 S
O187 Tb161 2.440 . S
O187 C171 1.266 1_556 S
O188 Tb160 2.325 . S
O188 Tb161 2.658 . S
O188 C178 1.281 . S
O189 Tb161 2.409 . S
O189 C178 1.254 . S
O190 Tb161 2.378 . S
O190 C179 1.236 . S
O191 Tb160 2.341 . S
O191 C179 1.266 . S
H192 C164 0.929 . S
H193 C165 0.931 . S
H194 C167 0.930 . S
H195 C168 0.930 . S
H196 C173 0.929 . S
H197 C174 0.931 . S
H198 C176 0.930 . S
H199 C177 0.930 . S
Tb200 C202 2.809 . S
Tb200 O220 2.484 . S
Tb200 O221 2.440 . S
Tb200 O222 2.658 . S
Tb200 O223 2.409 . S
Tb200 O224 2.378 . S
Tb200 O228 2.325 . S
Tb200 O231 2.341 . S
Tb201 C211 2.809 . S
Tb201 O222 2.325 . S
Tb201 O225 2.341 . S
Tb201 O226 2.484 . S
Tb201 O227 2.440 . S
Tb201 O228 2.658 . S
Tb201 O229 2.409 . S
Tb201 O230 2.378 . S
C202 Tb200 2.809 . S
C202 C203 1.514 . S
C202 O220 1.248 . S
C202 O221 1.266 . S
C203 C202 1.514 . S
C203 C204 1.359 . S
C203 C208 1.348 . S
C204 C203 1.359 . S
C204 C205 1.380 . S
C204 H232 0.929 . S
C205 C204 1.380 . S
C205 C206 1.347 . S
C205 H233 0.931 . S
C206 C205 1.347 . S
C206 C207 1.369 . S
C207 C206 1.369 . S
C207 C208 1.408 . S
C207 H234 0.930 . S
C208 C203 1.348 . S
C208 C207 1.408 . S
C208 H235 0.930 . S
C209 O222 1.281 . S
C209 O223 1.254 . S
C210 O224 1.236 . S
C210 O225 1.266 . S
C211 Tb201 2.809 . S
C211 C212 1.514 1_554 S
C211 O226 1.248 . S
C211 O227 1.266 . S
C212 C211 1.514 1_556 S
C212 C213 1.359 . S
C212 C217 1.348 . S
C213 C212 1.359 . S
C213 C214 1.380 . S
C213 H236 0.929 . S
C214 C213 1.380 . S
C214 C215 1.347 . S
C214 H237 0.931 . S
C215 C214 1.347 . S
C215 C216 1.369 . S
C216 C215 1.369 . S
C216 C217 1.408 . S
C216 H238 0.930 . S
C217 C212 1.348 . S
C217 C216 1.408 . S
C217 H239 0.930 . S
C218 O228 1.281 . S
C218 O229 1.254 . S
C219 O230 1.236 . S
C219 O231 1.266 . S
O220 Tb200 2.484 . S
O220 C202 1.248 . S
O221 Tb200 2.440 . S
O221 C202 1.266 . S
O222 Tb200 2.658 . S
O222 Tb201 2.325 . S
O222 C209 1.281 . S
O223 Tb200 2.409 . S
O223 C209 1.254 . S
O224 Tb200 2.378 . S
O224 C210 1.236 . S
O225 Tb201 2.341 . S
O225 C210 1.266 . S
O226 Tb201 2.484 . S
O226 C211 1.248 . S
O227 Tb201 2.440 . S
O227 C211 1.266 . S
O228 Tb200 2.325 . S
O228 Tb201 2.658 . S
O228 C218 1.281 . S
O229 Tb201 2.409 . S
O229 C218 1.254 . S
O230 Tb201 2.378 . S
O230 C219 1.236 . S
O231 Tb200 2.341 . S
O231 C219 1.266 . S
H232 C204 0.929 . S
H233 C205 0.931 . S
H234 C207 0.930 . S
H235 C208 0.930 . S
H236 C213 0.929 . S
H237 C214 0.931 . S
H238 C216 0.930 . S
H239 C217 0.930 . S
Tb240 C242 2.809 . S
Tb240 O260 2.484 . S
Tb240 O261 2.440 . S
Tb240 O262 2.658 . S
Tb240 O263 2.409 . S
Tb240 O264 2.378 . S
Tb240 O268 2.325 . S
Tb240 O271 2.341 . S
Tb241 C251 2.809 . S
Tb241 O262 2.325 . S
Tb241 O265 2.341 . S
Tb241 O266 2.484 . S
Tb241 O267 2.440 . S
Tb241 O268 2.658 . S
Tb241 O269 2.409 . S
Tb241 O270 2.378 . S
C242 Tb240 2.809 . S
C242 C243 1.514 . S
C242 O260 1.248 . S
C242 O261 1.266 . S
C243 C242 1.514 . S
C243 C244 1.359 . S
C243 C248 1.348 . S
C244 C243 1.359 . S
C244 C245 1.380 . S
C244 H272 0.929 . S
C245 C244 1.380 . S
C245 C246 1.347 . S
C245 H273 0.931 . S
C246 C245 1.347 . S
C246 C247 1.369 . S
C247 C246 1.369 . S
C247 C248 1.408 . S
C247 H274 0.930 . S
C248 C243 1.348 . S
C248 C247 1.408 . S
C248 H275 0.930 . S
C249 O262 1.281 . S
C249 O263 1.254 . S
C250 O264 1.236 . S
C250 O265 1.266 . S
C251 Tb241 2.809 . S
C251 C252 1.514 . S
C251 O266 1.248 . S
C251 O267 1.266 . S
C252 C251 1.514 . S
C252 C253 1.359 . S
C252 C257 1.348 . S
C253 C252 1.359 . S
C253 C254 1.380 . S
C253 H276 0.929 . S
C254 C253 1.380 . S
C254 C255 1.347 . S
C254 H277 0.931 . S
C255 C254 1.347 . S
C255 C256 1.369 . S
C256 C255 1.369 . S
C256 C257 1.408 . S
C256 H278 0.930 . S
C257 C252 1.348 . S
C257 C256 1.408 . S
C257 H279 0.930 . S
C258 O268 1.281 . S
C258 O269 1.254 . S
C259 O270 1.236 . S
C259 O271 1.266 . S
O260 Tb240 2.484 . S
O260 C242 1.248 . S
O261 Tb240 2.440 . S
O261 C242 1.266 . S
O262 Tb240 2.658 . S
O262 Tb241 2.325 . S
O262 C249 1.281 . S
O263 Tb240 2.409 . S
O263 C249 1.254 . S
O264 Tb240 2.378 . S
O264 C250 1.236 . S
O265 Tb241 2.341 . S
O265 C250 1.266 . S
O266 Tb241 2.484 . S
O266 C251 1.248 . S
O267 Tb241 2.440 . S
O267 C251 1.266 . S
O268 Tb240 2.325 . S
O268 Tb241 2.658 . S
O268 C258 1.281 . S
O269 Tb241 2.409 . S
O269 C258 1.254 . S
O270 Tb241 2.378 . S
O270 C259 1.236 . S
O271 Tb240 2.341 . S
O271 C259 1.266 . S
H272 C244 0.929 . S
H273 C245 0.931 . S
H274 C247 0.930 . S
H275 C248 0.930 . S
H276 C253 0.929 . S
H277 C254 0.931 . S
H278 C256 0.930 . S
H279 C257 0.930 . S
Tb280 C282 2.809 . S
Tb280 O300 2.484 . S
Tb280 O301 2.440 . S
Tb280 O302 2.658 . S
Tb280 O303 2.409 . S
Tb280 O304 2.378 . S
Tb280 O308 2.325 . S
Tb280 O311 2.341 . S
Tb281 C291 2.809 . S
Tb281 O302 2.325 . S
Tb281 O305 2.341 . S
Tb281 O306 2.484 . S
Tb281 O307 2.440 . S
Tb281 O308 2.658 . S
Tb281 O309 2.409 . S
Tb281 O310 2.378 . S
C282 Tb280 2.809 . S
C282 C283 1.514 . S
C282 O300 1.248 . S
C282 O301 1.266 . S
C283 C282 1.514 . S
C283 C284 1.359 . S
C283 C288 1.348 . S
C284 C283 1.359 . S
C284 C285 1.380 . S
C284 H312 0.929 . S
C285 C284 1.380 . S
C285 C286 1.347 1_556 S
C285 H313 0.931 . S
C286 C285 1.347 1_554 S
C286 C287 1.369 1_554 S
C287 C286 1.369 1_556 S
C287 C288 1.408 . S
C287 H314 0.930 1_556 S
C288 C283 1.348 . S
C288 C287 1.408 . S
C288 H315 0.930 . S
C289 O302 1.281 . S
C289 O303 1.254 . S
C290 O304 1.236 . S
C290 O305 1.266 . S
C291 Tb281 2.809 . S
C291 C292 1.514 . S
C291 O306 1.248 . S
C291 O307 1.266 . S
C292 C291 1.514 . S
C292 C293 1.359 . S
C292 C297 1.348 . S
C293 C292 1.359 . S
C293 C294 1.380 . S
C293 H316 0.929 . S
C294 C293 1.380 . S
C294 C295 1.347 . S
C294 H317 0.931 . S
C295 C294 1.347 . S
C295 C296 1.369 . S
C296 C295 1.369 . S
C296 C297 1.408 . S
C296 H318 0.930 . S
C297 C292 1.348 . S
C297 C296 1.408 . S
C297 H319 0.930 . S
C298 O308 1.281 . S
C298 O309 1.254 . S
C299 O310 1.236 . S
C299 O311 1.266 . S
O300 Tb280 2.484 . S
O300 C282 1.248 . S
O301 Tb280 2.440 . S
O301 C282 1.266 . S
O302 Tb280 2.658 . S
O302 Tb281 2.325 . S
O302 C289 1.281 . S
O303 Tb280 2.409 . S
O303 C289 1.254 . S
O304 Tb280 2.378 . S
O304 C290 1.236 . S
O305 Tb281 2.341 . S
O305 C290 1.266 . S
O306 Tb281 2.484 . S
O306 C291 1.248 . S
O307 Tb281 2.440 . S
O307 C291 1.266 . S
O308 Tb280 2.325 . S
O308 Tb281 2.658 . S
O308 C298 1.281 . S
O309 Tb281 2.409 . S
O309 C298 1.254 . S
O310 Tb281 2.378 . S
O310 C299 1.236 . S
O311 Tb280 2.341 . S
O311 C299 1.266 . S
H312 C284 0.929 . S
H313 C285 0.931 . S
H314 C287 0.930 1_554 S
H315 C288 0.930 . S
H316 C293 0.929 . S
H317 C294 0.931 . S
H318 C296 0.930 . S
H319 C297 0.930 . S
Tb320 C322 2.809 . S
Tb320 O340 2.484 . S
Tb320 O341 2.440 . S
Tb320 O342 2.658 . S
Tb320 O343 2.409 . S
Tb320 O344 2.378 . S
Tb320 O348 2.325 . S
Tb320 O351 2.341 . S
Tb321 C331 2.809 . S
Tb321 O342 2.325 . S
Tb321 O345 2.341 . S
Tb321 O346 2.484 . S
Tb321 O347 2.440 . S
Tb321 O348 2.658 . S
Tb321 O349 2.409 . S
Tb321 O350 2.378 . S
C322 Tb320 2.809 . S
C322 C323 1.514 1_556 S
C322 O340 1.248 . S
C322 O341 1.266 . S
C323 C322 1.514 1_554 S
C323 C324 1.359 . S
C323 C328 1.348 . S
C324 C323 1.359 . S
C324 C325 1.380 . S
C324 H352 0.929 . S
C325 C324 1.380 . S
C325 C326 1.347 . S
C325 H353 0.931 . S
C326 C325 1.347 . S
C326 C327 1.369 . S
C327 C326 1.369 . S
C327 C328 1.408 . S
C327 H354 0.930 . S
C328 C323 1.348 . S
C328 C327 1.408 . S
C328 H355 0.930 . S
C329 O342 1.281 . S
C329 O343 1.254 . S
C330 O344 1.236 . S
C330 O345 1.266 . S
C331 Tb321 2.809 . S
C331 C332 1.514 . S
C331 O346 1.248 . S
C331 O347 1.266 . S
C332 C331 1.514 . S
C332 C333 1.359 . S
C332 C337 1.348 . S
C333 C332 1.359 . S
C333 C334 1.380 . S
C333 H356 0.929 . S
C334 C333 1.380 . S
C334 C335 1.347 . S
C334 H357 0.931 . S
C335 C334 1.347 . S
C335 C336 1.369 . S
C336 C335 1.369 . S
C336 C337 1.408 . S
C336 H358 0.930 . S
C337 C332 1.348 . S
C337 C336 1.408 . S
C337 H359 0.930 . S
C338 O348 1.281 . S
C338 O349 1.254 . S
C339 O350 1.236 . S
C339 O351 1.266 . S
O340 Tb320 2.484 . S
O340 C322 1.248 . S
O341 Tb320 2.440 . S
O341 C322 1.266 . S
O342 Tb320 2.658 . S
O342 Tb321 2.325 . S
O342 C329 1.281 . S
O343 Tb320 2.409 . S
O343 C329 1.254 . S
O344 Tb320 2.378 . S
O344 C330 1.236 . S
O345 Tb321 2.341 . S
O345 C330 1.266 . S
O346 Tb321 2.484 . S
O346 C331 1.248 . S
O347 Tb321 2.440 . S
O347 C331 1.266 . S
O348 Tb320 2.325 . S
O348 Tb321 2.658 . S
O348 C338 1.281 . S
O349 Tb321 2.409 . S
O349 C338 1.254 . S
O350 Tb321 2.378 . S
O350 C339 1.236 . S
O351 Tb320 2.341 . S
O351 C339 1.266 . S
H352 C324 0.929 . S
H353 C325 0.931 . S
H354 C327 0.930 . S
H355 C328 0.930 . S
H356 C333 0.929 . S
H357 C334 0.931 . S
H358 C336 0.930 . S
H359 C337 0.930 . S
Tb360 C362 2.809 . S
Tb360 O380 2.484 . S
Tb360 O381 2.440 . S
Tb360 O382 2.658 . S
Tb360 O383 2.409 . S
Tb360 O384 2.378 . S
Tb360 O388 2.325 . S
Tb360 O391 2.341 . S
Tb361 C371 2.809 . S
Tb361 O382 2.325 . S
Tb361 O385 2.341 . S
Tb361 O386 2.484 . S
Tb361 O387 2.440 . S
Tb361 O388 2.658 . S
Tb361 O389 2.409 . S
Tb361 O390 2.378 . S
C362 Tb360 2.809 . S
C362 C363 1.514 . S
C362 O380 1.248 . S
C362 O381 1.266 . S
C363 C362 1.514 . S
C363 C364 1.359 . S
C363 C368 1.348 . S
C364 C363 1.359 . S
C364 C365 1.380 . S
C364 H392 0.929 . S
C365 C364 1.380 . S
C365 C366 1.347 . S
C365 H393 0.931 . S
C366 C365 1.347 . S
C366 C367 1.369 . S
C367 C366 1.369 . S
C367 C368 1.408 . S
C367 H394 0.930 . S
C368 C363 1.348 . S
C368 C367 1.408 . S
C368 H395 0.930 . S
C369 O382 1.281 . S
C369 O383 1.254 . S
C370 O384 1.236 . S
C370 O385 1.266 . S
C371 Tb361 2.809 . S
C371 C372 1.514 . S
C371 O386 1.248 . S
C371 O387 1.266 . S
C372 C371 1.514 . S
C372 C373 1.359 . S
C372 C377 1.348 . S
C373 C372 1.359 . S
C373 C374 1.380 . S
C373 H396 0.929 . S
C374 C373 1.380 . S
C374 C375 1.347 . S
C374 H397 0.931 . S
C375 C374 1.347 . S
C375 C376 1.369 . S
C376 C375 1.369 . S
C376 C377 1.408 . S
C376 H398 0.930 . S
C377 C372 1.348 . S
C377 C376 1.408 . S
C377 H399 0.930 . S
C378 O388 1.281 . S
C378 O389 1.254 . S
C379 O390 1.236 . S
C379 O391 1.266 . S
O380 Tb360 2.484 . S
O380 C362 1.248 . S
O381 Tb360 2.440 . S
O381 C362 1.266 . S
O382 Tb360 2.658 . S
O382 Tb361 2.325 . S
O382 C369 1.281 . S
O383 Tb360 2.409 . S
O383 C369 1.254 . S
O384 Tb360 2.378 . S
O384 C370 1.236 . S
O385 Tb361 2.341 . S
O385 C370 1.266 . S
O386 Tb361 2.484 . S
O386 C371 1.248 . S
O387 Tb361 2.440 . S
O387 C371 1.266 . S
O388 Tb360 2.325 . S
O388 Tb361 2.658 . S
O388 C378 1.281 . S
O389 Tb361 2.409 . S
O389 C378 1.254 . S
O390 Tb361 2.378 . S
O390 C379 1.236 . S
O391 Tb360 2.341 . S
O391 C379 1.266 . S
H392 C364 0.929 . S
H393 C365 0.931 . S
H394 C367 0.930 . S
H395 C368 0.930 . S
H396 C373 0.929 . S
H397 C374 0.931 . S
H398 C376 0.930 . S
H399 C377 0.930 . S
Tb400 C402 2.809 . S
Tb400 O420 2.484 . S
Tb400 O421 2.440 . S
Tb400 O422 2.658 . S
Tb400 O423 2.409 . S
Tb400 O424 2.378 . S
Tb400 O428 2.325 . S
Tb400 O431 2.341 . S
Tb401 C411 2.809 . S
Tb401 O422 2.325 . S
Tb401 O425 2.341 . S
Tb401 O426 2.484 . S
Tb401 O427 2.440 . S
Tb401 O428 2.658 . S
Tb401 O429 2.409 . S
Tb401 O430 2.378 . S
C402 Tb400 2.809 . S
C402 C403 1.514 . S
C402 O420 1.248 . S
C402 O421 1.266 . S
C403 C402 1.514 . S
C403 C404 1.359 . S
C403 C408 1.348 . S
C404 C403 1.359 . S
C404 C405 1.380 . S
C404 H432 0.929 . S
C405 C404 1.380 . S
C405 C406 1.359 . S
C405 H433 0.931 . S
C406 C405 1.359 . S
C406 C407 1.379 . S
C407 C406 1.379 . S
C407 C408 1.408 . S
C407 H434 0.930 . S
C408 C403 1.348 . S
C408 C407 1.408 . S
C408 H435 0.930 . S
C409 O422 1.281 . S
C409 O423 1.254 . S
C410 O424 1.236 . S
C410 O425 1.266 . S
C411 Tb401 2.809 . S
C411 C412 1.514 . S
C411 O426 1.248 . S
C411 O427 1.266 . S
C412 C411 1.514 . S
C412 C413 1.359 . S
C412 C417 1.348 . S
C413 C412 1.359 . S
C413 C414 1.380 . S
C413 H436 0.929 . S
C414 C413 1.380 . S
C414 C415 1.347 . S
C414 H437 0.931 . S
C415 C414 1.347 . S
C415 C416 1.369 . S
C416 C415 1.369 . S
C416 C417 1.408 . S
C416 H438 0.930 . S
C417 C412 1.348 . S
C417 C416 1.408 . S
C417 H439 0.930 . S
C418 O428 1.281 . S
C418 O429 1.254 . S
C419 O430 1.236 . S
C419 O431 1.266 . S
O420 Tb400 2.484 . S
O420 C402 1.248 . S
O421 Tb400 2.440 . S
O421 C402 1.266 . S
O422 Tb400 2.658 . S
O422 Tb401 2.325 . S
O422 C409 1.281 . S
O423 Tb400 2.409 . S
O423 C409 1.254 . S
O424 Tb400 2.378 . S
O424 C410 1.236 . S
O425 Tb401 2.341 . S
O425 C410 1.266 . S
O426 Tb401 2.484 . S
O426 C411 1.248 . S
O427 Tb401 2.440 . S
O427 C411 1.266 . S
O428 Tb400 2.325 . S
O428 Tb401 2.658 . S
O428 C418 1.281 . S
O429 Tb401 2.409 . S
O429 C418 1.254 . S
O430 Tb401 2.378 . S
O430 C419 1.236 . S
O431 Tb400 2.341 . S
O431 C419 1.266 . S
H432 C404 0.929 . S
H433 C405 0.931 . S
H434 C407 0.930 . S
H435 C408 0.930 . S
H436 C413 0.929 . S
H437 C414 0.931 . S
H438 C416 0.930 . S
H439 C417 0.930 . S
Tb440 C442 2.809 1_554 S
Tb440 O460 2.484 . S
Tb440 O461 2.440 . S
Tb440 O462 2.658 . S
Tb440 O463 2.409 . S
Tb440 O464 2.378 . S
Tb440 O468 2.325 . S
Tb440 O471 2.341 . S
Tb441 C451 2.809 . S
Tb441 O462 2.325 . S
Tb441 O465 2.341 . S
Tb441 O466 2.484 . S
Tb441 O467 2.440 . S
Tb441 O468 2.658 . S
Tb441 O469 2.409 . S
Tb441 O470 2.378 . S
C442 Tb440 2.809 1_556 S
C442 C443 1.514 . S
C442 O460 1.248 1_556 S
C442 O461 1.266 1_556 S
C443 C442 1.514 . S
C443 C444 1.359 . S
C443 C448 1.348 . S
C444 C443 1.359 . S
C444 C445 1.380 . S
C444 H472 0.929 . S
C445 C444 1.380 . S
C445 C446 1.347 . S
C445 H473 0.931 . S
C446 C445 1.347 . S
C446 C447 1.369 . S
C447 C446 1.369 . S
C447 C448 1.408 . S
C447 H474 0.930 . S
C448 C443 1.348 . S
C448 C447 1.408 . S
C448 H475 0.930 . S
C449 O462 1.281 . S
C449 O463 1.254 . S
C450 O464 1.236 . S
C450 O465 1.266 . S
C451 Tb441 2.809 . S
C451 C452 1.514 . S
C451 O466 1.248 . S
C451 O467 1.266 . S
C452 C451 1.514 . S
C452 C453 1.359 . S
C452 C457 1.348 . S
C453 C452 1.359 . S
C453 C454 1.380 . S
C453 H476 0.929 . S
C454 C453 1.380 . S
C454 C455 1.347 . S
C454 H477 0.931 . S
C455 C454 1.347 . S
C455 C456 1.369 . S
C456 C455 1.369 . S
C456 C457 1.408 . S
C456 H478 0.930 . S
C457 C452 1.348 . S
C457 C456 1.408 . S
C457 H479 0.930 . S
C458 O468 1.281 . S
C458 O469 1.254 . S
C459 O470 1.236 . S
C459 O471 1.266 . S
O460 Tb440 2.484 . S
O460 C442 1.248 1_554 S
O461 Tb440 2.440 . S
O461 C442 1.266 1_554 S
O462 Tb440 2.658 . S
O462 Tb441 2.325 . S
O462 C449 1.281 . S
O463 Tb440 2.409 . S
O463 C449 1.254 . S
O464 Tb440 2.378 . S
O464 C450 1.236 . S
O465 Tb441 2.341 . S
O465 C450 1.266 . S
O466 Tb441 2.484 . S
O466 C451 1.248 . S
O467 Tb441 2.440 . S
O467 C451 1.266 . S
O468 Tb440 2.325 . S
O468 Tb441 2.658 . S
O468 C458 1.281 . S
O469 Tb441 2.409 . S
O469 C458 1.254 . S
O470 Tb441 2.378 . S
O470 C459 1.236 . S
O471 Tb440 2.341 . S
O471 C459 1.266 . S
H472 C444 0.929 . S
H473 C445 0.931 . S
H474 C447 0.930 . S
H475 C448 0.930 . S
H476 C453 0.929 . S
H477 C454 0.931 . S
H478 C456 0.930 . S
H479 C457 0.930 . S
Tb480 C482 2.809 1_554 S
Tb480 O500 2.484 . S
Tb480 O501 2.440 . S
Tb480 O502 2.658 . S
Tb480 O503 2.409 . S
Tb480 O504 2.378 . S
Tb480 O508 2.325 . S
Tb480 O511 2.341 . S
Tb481 C491 2.809 . S
Tb481 O502 2.325 . S
Tb481 O505 2.341 . S
Tb481 O506 2.484 . S
Tb481 O507 2.440 . S
Tb481 O508 2.658 . S
Tb481 O509 2.409 . S
Tb481 O510 2.378 . S
C482 Tb480 2.809 1_556 S
C482 C483 1.514 . S
C482 O500 1.248 1_556 S
C482 O501 1.266 1_556 S
C483 C482 1.514 . S
C483 C484 1.359 . S
C483 C488 1.348 . S
C484 C483 1.359 . S
C484 C485 1.380 . S
C484 H512 0.929 . S
C485 C484 1.380 . S
C485 C486 1.347 . S
C485 H513 0.931 . S
C486 C485 1.347 . S
C486 C487 1.369 . S
C487 C486 1.369 . S
C487 C488 1.408 . S
C487 H514 0.930 . S
C488 C483 1.348 . S
C488 C487 1.408 . S
C488 H515 0.930 . S
C489 O502 1.281 . S
C489 O503 1.254 . S
C490 O504 1.236 . S
C490 O505 1.266 . S
C491 Tb481 2.809 . S
C491 C492 1.514 . S
C491 O506 1.248 . S
C491 O507 1.266 . S
C492 C491 1.514 . S
C492 C493 1.359 . S
C492 C497 1.348 . S
C493 C492 1.359 . S
C493 C494 1.380 . S
C493 H516 0.929 . S
C494 C493 1.380 . S
C494 C495 1.347 . S
C494 H517 0.931 . S
C495 C494 1.347 . S
C495 C496 1.369 . S
C496 C495 1.369 . S
C496 C497 1.408 . S
C496 H518 0.930 . S
C497 C492 1.348 . S
C497 C496 1.408 . S
C497 H519 0.930 . S
C498 O508 1.281 . S
C498 O509 1.254 . S
C499 O510 1.236 . S
C499 O511 1.266 . S
O500 Tb480 2.484 . S
O500 C482 1.248 1_554 S
O501 Tb480 2.440 . S
O501 C482 1.266 1_554 S
O502 Tb480 2.658 . S
O502 Tb481 2.325 . S
O502 C489 1.281 . S
O503 Tb480 2.409 . S
O503 C489 1.254 . S
O504 Tb480 2.378 . S
O504 C490 1.236 . S
O505 Tb481 2.341 . S
O505 C490 1.266 . S
O506 Tb481 2.484 . S
O506 C491 1.248 . S
O507 Tb481 2.440 . S
O507 C491 1.266 . S
O508 Tb480 2.325 . S
O508 Tb481 2.658 . S
O508 C498 1.281 . S
O509 Tb481 2.409 . S
O509 C498 1.254 . S
O510 Tb481 2.378 . S
O510 C499 1.236 . S
O511 Tb480 2.341 . S
O511 C499 1.266 . S
H512 C484 0.929 . S
H513 C485 0.931 . S
H514 C487 0.930 . S
H515 C488 0.930 . S
H516 C493 0.929 . S
H517 C494 0.931 . S
H518 C496 0.930 . S
H519 C497 0.930 . S
Tb520 C522 2.809 . S
Tb520 O540 2.484 . S
Tb520 O541 2.440 . S
Tb520 O542 2.658 . S
Tb520 O543 2.409 . S
Tb520 O544 2.378 . S
Tb520 O548 2.325 . S
Tb520 O551 2.341 . S
Tb521 C531 2.809 . S
Tb521 O542 2.325 . S
Tb521 O545 2.341 . S
Tb521 O546 2.484 . S
Tb521 O547 2.440 . S
Tb521 O548 2.658 . S
Tb521 O549 2.409 . S
Tb521 O550 2.378 . S
C522 Tb520 2.809 . S
C522 C523 1.514 . S
C522 O540 1.248 . S
C522 O541 1.266 . S
C523 C522 1.514 . S
C523 C524 1.359 . S
C523 C528 1.348 . S
C524 C523 1.359 . S
C524 C525 1.380 . S
C524 H552 0.929 . S
C525 C524 1.380 . S
C525 C526 1.347 . S
C525 H553 0.931 . S
C526 C525 1.347 . S
C526 C527 1.369 . S
C527 C526 1.369 . S
C527 C528 1.408 . S
C527 H554 0.930 . S
C528 C523 1.348 . S
C528 C527 1.408 . S
C528 H555 0.930 . S
C529 O542 1.281 . S
C529 O543 1.254 . S
C530 O544 1.236 . S
C530 O545 1.266 . S
C531 Tb521 2.809 . S
C531 C532 1.514 1_556 S
C531 O546 1.248 . S
C531 O547 1.266 . S
C532 C531 1.514 1_554 S
C532 C533 1.359 . S
C532 C537 1.348 . S
C533 C532 1.359 . S
C533 C534 1.380 . S
C533 H556 0.929 . S
C534 C533 1.380 . S
C534 C535 1.347 . S
C534 H557 0.931 . S
C535 C534 1.347 . S
C535 C536 1.369 . S
C536 C535 1.369 . S
C536 C537 1.408 . S
C536 H558 0.930 . S
C537 C532 1.348 . S
C537 C536 1.408 . S
C537 H559 0.930 . S
C538 O548 1.281 . S
C538 O549 1.254 . S
C539 O550 1.236 . S
C539 O551 1.266 . S
O540 Tb520 2.484 . S
O540 C522 1.248 . S
O541 Tb520 2.440 . S
O541 C522 1.266 . S
O542 Tb520 2.658 . S
O542 Tb521 2.325 . S
O542 C529 1.281 . S
O543 Tb520 2.409 . S
O543 C529 1.254 . S
O544 Tb520 2.378 . S
O544 C530 1.236 . S
O545 Tb521 2.341 . S
O545 C530 1.266 . S
O546 Tb521 2.484 . S
O546 C531 1.248 . S
O547 Tb521 2.440 . S
O547 C531 1.266 . S
O548 Tb520 2.325 . S
O548 Tb521 2.658 . S
O548 C538 1.281 . S
O549 Tb521 2.409 . S
O549 C538 1.254 . S
O550 Tb521 2.378 . S
O550 C539 1.236 . S
O551 Tb520 2.341 . S
O551 C539 1.266 . S
H552 C524 0.929 . S
H553 C525 0.931 . S
H554 C527 0.930 . S
H555 C528 0.930 . S
H556 C533 0.929 . S
H557 C534 0.931 . S
H558 C536 0.930 . S
H559 C537 0.930 . S
Tb560 C562 2.809 . S
Tb560 O580 2.484 . S
Tb560 O581 2.440 . S
Tb560 O582 2.658 . S
Tb560 O583 2.409 . S
Tb560 O584 2.378 . S
Tb560 O588 2.325 . S
Tb560 O591 2.341 . S
Tb561 C571 2.809 . S
Tb561 O582 2.325 . S
Tb561 O585 2.341 . S
Tb561 O586 2.484 . S
Tb561 O587 2.440 . S
Tb561 O588 2.658 . S
Tb561 O589 2.409 . S
Tb561 O590 2.378 . S
C562 Tb560 2.809 . S
C562 C563 1.514 . S
C562 O580 1.248 . S
C562 O581 1.266 . S
C563 C562 1.514 . S
C563 C564 1.359 . S
C563 C568 1.348 . S
C564 C563 1.359 . S
C564 C565 1.380 . S
C564 H592 0.929 . S
C565 C564 1.380 . S
C565 C566 1.347 . S
C565 H593 0.931 . S
C566 C565 1.347 . S
C566 C567 1.369 . S
C567 C566 1.369 . S
C567 C568 1.408 . S
C567 H594 0.930 . S
C568 C563 1.348 . S
C568 C567 1.408 . S
C568 H595 0.930 . S
C569 O582 1.281 . S
C569 O583 1.254 . S
C570 O584 1.236 . S
C570 O585 1.266 . S
C571 Tb561 2.809 . S
C571 C572 1.514 . S
C571 O586 1.248 . S
C571 O587 1.266 . S
C572 C571 1.514 . S
C572 C573 1.359 . S
C572 C577 1.348 . S
C573 C572 1.359 . S
C573 C574 1.380 . S
C573 H596 0.929 . S
C574 C573 1.380 . S
C574 C575 1.347 . S
C574 H597 0.931 . S
C575 C574 1.347 . S
C575 C576 1.369 . S
C576 C575 1.369 . S
C576 C577 1.408 . S
C576 H598 0.930 . S
C577 C572 1.348 . S
C577 C576 1.408 . S
C577 H599 0.930 . S
C578 O588 1.281 . S
C578 O589 1.254 . S
C579 O590 1.236 . S
C579 O591 1.266 . S
O580 Tb560 2.484 . S
O580 C562 1.248 . S
O581 Tb560 2.440 . S
O581 C562 1.266 . S
O582 Tb560 2.658 . S
O582 Tb561 2.325 . S
O582 C569 1.281 . S
O583 Tb560 2.409 . S
O583 C569 1.254 . S
O584 Tb560 2.378 . S
O584 C570 1.236 . S
O585 Tb561 2.341 . S
O585 C570 1.266 . S
O586 Tb561 2.484 . S
O586 C571 1.248 . S
O587 Tb561 2.440 . S
O587 C571 1.266 . S
O588 Tb560 2.325 . S
O588 Tb561 2.658 . S
O588 C578 1.281 . S
O589 Tb561 2.409 . S
O589 C578 1.254 . S
O590 Tb561 2.378 . S
O590 C579 1.236 . S
O591 Tb560 2.341 . S
O591 C579 1.266 . S
H592 C564 0.929 . S
H593 C565 0.931 . S
H594 C567 0.930 . S
H595 C568 0.930 . S
H596 C573 0.929 . S
H597 C574 0.931 . S
H598 C576 0.930 . S
H599 C577 0.930 . S
Tb600 C602 2.809 . S
Tb600 O620 2.484 . S
Tb600 O621 2.440 . S
Tb600 O622 2.658 . S
Tb600 O623 2.409 . S
Tb600 O624 2.378 . S
Tb600 O628 2.325 . S
Tb600 O631 2.341 . S
Tb601 C611 2.809 . S
Tb601 O622 2.325 . S
Tb601 O625 2.341 . S
Tb601 O626 2.484 . S
Tb601 O627 2.440 . S
Tb601 O628 2.658 . S
Tb601 O629 2.409 . S
Tb601 O630 2.378 . S
C602 Tb600 2.809 . S
C602 C603 1.514 . S
C602 O620 1.248 . S
C602 O621 1.266 . S
C603 C602 1.514 . S
C603 C604 1.359 . S
C603 C608 1.348 . S
C604 C603 1.359 . S
C604 C605 1.380 . S
C604 H632 0.929 . S
C605 C604 1.380 . S
C605 C606 1.347 . S
C605 H633 0.931 . S
C606 C605 1.347 . S
C606 C607 1.369 . S
C607 C606 1.369 . S
C607 C608 1.408 . S
C607 H634 0.930 . S
C608 C603 1.348 . S
C608 C607 1.408 . S
C608 H635 0.930 . S
C609 O622 1.281 . S
C609 O623 1.254 . S
C610 O624 1.236 . S
C610 O625 1.266 . S
C611 Tb601 2.809 . S
C611 C612 1.514 . S
C611 O626 1.248 . S
C611 O627 1.266 . S
C612 C611 1.514 . S
C612 C613 1.359 . S
C612 C617 1.348 . S
C613 C612 1.359 . S
C613 C614 1.380 . S
C613 H636 0.929 . S
C614 C613 1.380 . S
C614 C615 1.347 1_554 S
C614 H637 0.931 . S
C615 C614 1.347 1_556 S
C615 C616 1.369 1_556 S
C616 C615 1.369 1_554 S
C616 C617 1.408 . S
C616 H638 0.930 1_554 S
C617 C612 1.348 . S
C617 C616 1.408 . S
C617 H639 0.930 . S
C618 O628 1.281 . S
C618 O629 1.254 . S
C619 O630 1.236 . S
C619 O631 1.266 . S
O620 Tb600 2.484 . S
O620 C602 1.248 . S
O621 Tb600 2.440 . S
O621 C602 1.266 . S
O622 Tb600 2.658 . S
O622 Tb601 2.325 . S
O622 C609 1.281 . S
O623 Tb600 2.409 . S
O623 C609 1.254 . S
O624 Tb600 2.378 . S
O624 C610 1.236 . S
O625 Tb601 2.341 . S
O625 C610 1.266 . S
O626 Tb601 2.484 . S
O626 C611 1.248 . S
O627 Tb601 2.440 . S
O627 C611 1.266 . S
O628 Tb600 2.325 . S
O628 Tb601 2.658 . S
O628 C618 1.281 . S
O629 Tb601 2.409 . S
O629 C618 1.254 . S
O630 Tb601 2.378 . S
O630 C619 1.236 . S
O631 Tb600 2.341 . S
O631 C619 1.266 . S
H632 C604 0.929 . S
H633 C605 0.931 . S
H634 C607 0.930 . S
H635 C608 0.930 . S
H636 C613 0.929 . S
H637 C614 0.931 . S
H638 C616 0.930 1_556 S
H639 C617 0.930 . S
H640 C646 0.930 . S
H641 C650 0.930 . S
H642 C655 0.929 . S
H643 C653 0.929 . S
H644 C648 0.929 . S
H645 C654 0.929 . S
C646 H640 0.930 . S
C646 C647 1.367 . S
C646 C654 1.378 . S
C647 C646 1.367 . S
C647 C655 1.433 . S
C648 H644 0.929 . S
C648 C650 1.378 . S
C648 C652 1.350 . S
C649 C652 1.463 . S
C649 C654 1.350 . S
C649 N657 1.427 . S
C650 H641 0.930 . S
C650 C648 1.378 . S
C650 C651 1.367 . S
C651 C650 1.367 . S
C651 C653 1.433 . S
C652 C648 1.350 . S
C652 C649 1.463 . S
C652 N656 1.427 . S
C653 H643 0.929 . S
C653 C651 1.433 . S
C653 N656 1.384 . S
C654 H645 0.929 . S
C654 C646 1.378 . S
C654 C649 1.350 . S
C655 H642 0.929 . S
C655 C647 1.433 . S
C655 N657 1.384 . S
N656 C652 1.427 . S
N656 C653 1.384 . S
N657 C649 1.427 . S
N657 C655 1.384 . S
H658 C664 0.930 . S
H659 C668 0.930 . S
H660 C673 0.929 . S
H661 C671 0.929 . S
H662 C666 0.929 . S
H663 C672 0.929 . S
C664 H658 0.930 . S
C664 C665 1.367 . S
C664 C672 1.378 . S
C665 C664 1.367 . S
C665 C673 1.433 . S
C666 H662 0.929 . S
C666 C668 1.378 . S
C666 C670 1.350 . S
C667 C670 1.463 . S
C667 C672 1.350 . S
C667 N675 1.427 . S
C668 H659 0.930 . S
C668 C666 1.378 . S
C668 C669 1.367 . S
C669 C668 1.367 . S
C669 C671 1.433 . S
C670 C666 1.350 . S
C670 C667 1.463 . S
C670 N674 1.427 . S
C671 H661 0.929 . S
C671 C669 1.433 . S
C671 N674 1.384 . S
C672 H663 0.929 . S
C672 C664 1.378 . S
C672 C667 1.350 . S
C673 H660 0.929 . S
C673 C665 1.433 . S
C673 N675 1.384 . S
N674 C670 1.427 . S
N674 C671 1.384 . S
N675 C667 1.427 . S
N675 C673 1.384 . S
H676 C682 0.930 . S
H677 C686 0.930 . S
H678 C691 0.929 . S
H679 C689 0.929 . S
H680 C684 0.929 . S
H681 C690 0.929 . S
C682 H676 0.930 . S
C682 C683 1.367 . S
C682 C690 1.378 . S
C683 C682 1.367 . S
C683 C691 1.433 . S
C684 H680 0.929 . S
C684 C686 1.378 . S
C684 C688 1.350 . S
C685 C688 1.463 . S
C685 C690 1.350 . S
C685 N693 1.427 . S
C686 H677 0.930 . S
C686 C684 1.378 . S
C686 C687 1.367 . S
C687 C686 1.367 . S
C687 C689 1.433 . S
C688 C684 1.350 . S
C688 C685 1.463 . S
C688 N692 1.427 . S
C689 H679 0.929 . S
C689 C687 1.433 . S
C689 N692 1.384 . S
C690 H681 0.929 . S
C690 C682 1.378 . S
C690 C685 1.350 . S
C691 H678 0.929 . S
C691 C683 1.433 . S
C691 N693 1.384 . S
N692 C688 1.427 . S
N692 C689 1.384 . S
N693 C685 1.427 . S
N693 C691 1.384 . S
H694 C700 0.930 . S
H695 C704 0.930 . S
H696 C709 0.929 . S
H697 C707 0.929 . S
H698 C702 0.929 . S
H699 C708 0.929 . S
C700 H694 0.930 . S
C700 C701 1.367 . S
C700 C708 1.378 . S
C701 C700 1.367 . S
C701 C709 1.433 . S
C702 H698 0.929 . S
C702 C704 1.378 . S
C702 C706 1.350 . S
C703 C706 1.463 . S
C703 C708 1.350 . S
C703 N711 1.427 . S
C704 H695 0.930 . S
C704 C702 1.378 . S
C704 C705 1.367 . S
C705 C704 1.367 . S
C705 C707 1.433 . S
C706 C702 1.350 . S
C706 C703 1.463 . S
C706 N710 1.427 . S
C707 H697 0.929 . S
C707 C705 1.433 . S
C707 N710 1.384 . S
C708 H699 0.929 . S
C708 C700 1.378 . S
C708 C703 1.350 . S
C709 H696 0.929 . S
C709 C701 1.433 . S
C709 N711 1.384 . S
N710 C706 1.427 . S
N710 C707 1.384 . S
N711 C703 1.427 . S
N711 C709 1.384 . S
H712 C718 0.930 . S
H713 C722 0.930 . S
H714 C727 0.929 . S
H715 C725 0.929 . S
H716 C720 0.929 . S
H717 C726 0.929 . S
C718 H712 0.930 . S
C718 C719 1.367 . S
C718 C726 1.378 . S
C719 C718 1.367 . S
C719 C727 1.433 . S
C720 H716 0.929 . S
C720 C722 1.378 . S
C720 C724 1.350 . S
C721 C724 1.463 . S
C721 C726 1.350 . S
C721 N729 1.427 . S
C722 H713 0.930 . S
C722 C720 1.378 . S
C722 C723 1.367 . S
C723 C722 1.367 . S
C723 C725 1.433 . S
C724 C720 1.350 . S
C724 C721 1.463 . S
C724 N728 1.427 . S
C725 H715 0.929 . S
C725 C723 1.433 . S
C725 N728 1.384 . S
C726 H717 0.929 . S
C726 C718 1.378 . S
C726 C721 1.350 . S
C727 H714 0.929 . S
C727 C719 1.433 . S
C727 N729 1.384 . S
N728 C724 1.427 . S
N728 C725 1.384 . S
N729 C721 1.427 . S
N729 C727 1.384 . S
H730 C736 0.930 . S
H731 C740 0.930 . S
H732 C745 0.929 . S
H733 C743 0.929 . S
H734 C738 0.929 . S
H735 C744 0.929 . S
C736 H730 0.930 . S
C736 C737 1.367 . S
C736 C744 1.378 . S
C737 C736 1.367 . S
C737 C745 1.433 . S
C738 H734 0.929 . S
C738 C740 1.378 . S
C738 C742 1.350 . S
C739 C742 1.463 . S
C739 C744 1.350 . S
C739 N747 1.427 . S
C740 H731 0.930 . S
C740 C738 1.378 . S
C740 C741 1.367 . S
C741 C740 1.367 . S
C741 C743 1.433 . S
C742 C738 1.350 . S
C742 C739 1.463 . S
C742 N746 1.427 . S
C743 H733 0.929 . S
C743 C741 1.433 . S
C743 N746 1.384 . S
C744 H735 0.929 . S
C744 C736 1.378 . S
C744 C739 1.350 . S
C745 H732 0.929 . S
C745 C737 1.433 . S
C745 N747 1.384 . S
N746 C742 1.427 . S
N746 C743 1.384 . S
N747 C739 1.427 . S
N747 C745 1.384 . S
H748 C754 0.930 . S
H749 C758 0.930 . S
H750 C763 0.929 . S
H751 C761 0.929 . S
H752 C756 0.929 . S
H753 C762 0.929 . S
C754 H748 0.930 . S
C754 C755 1.367 . S
C754 C762 1.378 . S
C755 C754 1.367 . S
C755 C763 1.433 . S
C756 H752 0.929 . S
C756 C758 1.378 . S
C756 C760 1.350 . S
C757 C760 1.463 . S
C757 C762 1.350 . S
C757 N765 1.427 . S
C758 H749 0.930 . S
C758 C756 1.378 . S
C758 C759 1.367 . S
C759 C758 1.367 . S
C759 C761 1.433 . S
C760 C756 1.350 . S
C760 C757 1.463 . S
C760 N764 1.427 . S
C761 H751 0.929 . S
C761 C759 1.433 . S
C761 N764 1.384 . S
C762 H753 0.929 . S
C762 C754 1.378 . S
C762 C757 1.350 . S
C763 H750 0.929 . S
C763 C755 1.433 . S
C763 N765 1.384 . S
N764 C760 1.427 . S
N764 C761 1.384 . S
N765 C757 1.427 . S
N765 C763 1.384 . S
H766 C772 0.930 . S
H767 C776 0.930 . S
H768 C781 0.929 . S
H769 C779 0.929 . S
H770 C774 0.929 . S
H771 C780 0.929 . S
C772 H766 0.930 . S
C772 C773 1.367 . S
C772 C780 1.378 . S
C773 C772 1.367 . S
C773 C781 1.433 . S
C774 H770 0.929 . S
C774 C776 1.378 . S
C774 C778 1.350 . S
C775 C778 1.463 . S
C775 C780 1.350 . S
C775 N783 1.427 . S
C776 H767 0.930 . S
C776 C774 1.378 . S
C776 C777 1.367 . S
C777 C776 1.367 . S
C777 C779 1.433 . S
C778 C774 1.350 . S
C778 C775 1.463 . S
C778 N782 1.427 . S
C779 H769 0.929 . S
C779 C777 1.433 . S
C779 N782 1.384 . S
C780 H771 0.929 . S
C780 C772 1.378 . S
C780 C775 1.350 . S
C781 H768 0.929 . S
C781 C773 1.433 . S
C781 N783 1.384 . S
N782 C778 1.427 . S
N782 C779 1.384 . S
N783 C775 1.427 . S
N783 C781 1.384 . S
H784 C790 0.930 . S
H785 C794 0.930 . S
H786 C799 0.929 . S
H787 C797 0.929 . S
H788 C792 0.929 . S
H789 C798 0.929 . S
C790 H784 0.930 . S
C790 C791 1.367 . S
C790 C798 1.378 . S
C791 C790 1.367 . S
C791 C799 1.433 . S
C792 H788 0.929 . S
C792 C794 1.378 . S
C792 C796 1.350 . S
C793 C796 1.463 . S
C793 C798 1.350 . S
C793 N801 1.427 . S
C794 H785 0.930 . S
C794 C792 1.378 . S
C794 C795 1.367 . S
C795 C794 1.367 . S
C795 C797 1.433 . S
C796 C792 1.350 . S
C796 C793 1.463 . S
C796 N800 1.427 . S
C797 H787 0.929 . S
C797 C795 1.433 . S
C797 N800 1.384 . S
C798 H789 0.929 . S
C798 C790 1.378 . S
C798 C793 1.350 . S
C799 H786 0.929 . S
C799 C791 1.433 . S
C799 N801 1.384 . S
N800 C796 1.427 . S
N800 C797 1.384 . S
N801 C793 1.427 . S
N801 C799 1.384 . S
H802 C808 0.930 . S
H803 C812 0.930 . S
H804 C817 0.929 . S
H805 C815 0.929 . S
H806 C810 0.929 . S
H807 C816 0.929 . S
C808 H802 0.930 . S
C808 C809 1.367 . S
C808 C816 1.378 . S
C809 C808 1.367 . S
C809 C817 1.433 . S
C810 H806 0.929 . S
C810 C812 1.378 . S
C810 C814 1.350 . S
C811 C814 1.463 . S
C811 C816 1.350 . S
C811 N819 1.427 . S
C812 H803 0.930 . S
C812 C810 1.378 . S
C812 C813 1.367 . S
C813 C812 1.367 . S
C813 C815 1.433 . S
C814 C810 1.350 . S
C814 C811 1.463 . S
C814 N818 1.427 . S
C815 H805 0.929 . S
C815 C813 1.433 . S
C815 N818 1.384 . S
C816 H807 0.929 . S
C816 C808 1.378 . S
C816 C811 1.350 . S
C817 H804 0.929 . S
C817 C809 1.433 . S
C817 N819 1.384 . S
N818 C814 1.427 . S
N818 C815 1.384 . S
N819 C811 1.427 . S
N819 C817 1.384 . S
H820 C826 0.930 . S
H821 C830 0.930 . S
H822 C835 0.929 . S
H823 C833 0.929 . S
H824 C828 0.929 . S
H825 C834 0.929 . S
C826 H820 0.930 . S
C826 C827 1.367 . S
C826 C834 1.378 . S
C827 C826 1.367 . S
C827 C835 1.433 . S
C828 H824 0.929 . S
C828 C830 1.378 . S
C828 C832 1.350 . S
C829 C832 1.463 . S
C829 C834 1.350 . S
C829 N837 1.427 . S
C830 H821 0.930 . S
C830 C828 1.378 . S
C830 C831 1.367 . S
C831 C830 1.367 . S
C831 C833 1.433 . S
C832 C828 1.350 . S
C832 C829 1.463 . S
C832 N836 1.427 . S
C833 H823 0.929 . S
C833 C831 1.433 . S
C833 N836 1.384 . S
C834 H825 0.929 . S
C834 C826 1.378 . S
C834 C829 1.350 . S
C835 H822 0.929 . S
C835 C827 1.433 . S
C835 N837 1.384 . S
N836 C832 1.427 . S
N836 C833 1.384 . S
N837 C829 1.427 . S
N837 C835 1.384 . S
H838 C844 0.930 . S
H839 C848 0.930 . S
H840 C853 0.929 . S
H841 C851 0.929 . S
H842 C846 0.929 . S
H843 C852 0.929 . S
C844 H838 0.930 . S
C844 C845 1.367 . S
C844 C852 1.378 . S
C845 C844 1.367 . S
C845 C853 1.433 . S
C846 H842 0.929 . S
C846 C848 1.378 . S
C846 C850 1.350 . S
C847 C850 1.463 . S
C847 C852 1.350 . S
C847 N855 1.427 . S
C848 H839 0.930 . S
C848 C846 1.378 . S
C848 C849 1.367 . S
C849 C848 1.367 . S
C849 C851 1.433 . S
C850 C846 1.350 . S
C850 C847 1.463 . S
C850 N854 1.427 . S
C851 H841 0.929 . S
C851 C849 1.433 . S
C851 N854 1.384 . S
C852 H843 0.929 . S
C852 C844 1.378 . S
C852 C847 1.350 . S
C853 H840 0.929 . S
C853 C845 1.433 . S
C853 N855 1.384 . S
N854 C850 1.427 . S
N854 C851 1.384 . S
N855 C847 1.427 . S
N855 C853 1.384 . S
H856 C862 0.930 . S
H857 C866 0.930 . S
H858 C871 0.929 . S
H859 C869 0.929 . S
H860 C864 0.929 . S
H861 C870 0.929 . S
C862 H856 0.930 . S
C862 C863 1.367 . S
C862 C870 1.378 . S
C863 C862 1.367 . S
C863 C871 1.433 . S
C864 H860 0.929 . S
C864 C866 1.378 . S
C864 C868 1.350 . S
C865 C868 1.463 . S
C865 C870 1.350 . S
C865 N873 1.427 . S
C866 H857 0.930 . S
C866 C864 1.378 . S
C866 C867 1.367 . S
C867 C866 1.367 . S
C867 C869 1.433 . S
C868 C864 1.350 . S
C868 C865 1.463 . S
C868 N872 1.427 . S
C869 H859 0.929 . S
C869 C867 1.433 . S
C869 N872 1.384 . S
C870 H861 0.929 . S
C870 C862 1.378 . S
C870 C865 1.350 . S
C871 H858 0.929 . S
C871 C863 1.433 . S
C871 N873 1.384 . S
N872 C868 1.427 . S
N872 C869 1.384 . S
N873 C865 1.427 . S
N873 C871 1.384 . S
H874 C880 0.930 . S
H875 C884 0.930 . S
H876 C889 0.929 . S
H877 C887 0.929 . S
H878 C882 0.929 . S
H879 C888 0.929 . S
C880 H874 0.930 . S
C880 C881 1.367 . S
C880 C888 1.378 . S
C881 C880 1.367 . S
C881 C889 1.433 . S
C882 H878 0.929 . S
C882 C884 1.378 . S
C882 C886 1.350 . S
C883 C886 1.463 . S
C883 C888 1.350 . S
C883 N891 1.427 . S
C884 H875 0.930 . S
C884 C882 1.378 . S
C884 C885 1.367 . S
C885 C884 1.367 . S
C885 C887 1.433 . S
C886 C882 1.350 . S
C886 C883 1.463 . S
C886 N890 1.427 . S
C887 H877 0.929 . S
C887 C885 1.433 . S
C887 N890 1.384 . S
C888 H879 0.929 . S
C888 C880 1.378 . S
C888 C883 1.350 . S
C889 H876 0.929 . S
C889 C881 1.433 . S
C889 N891 1.384 . S
N890 C886 1.427 . S
N890 C887 1.384 . S
N891 C883 1.427 . S
N891 C889 1.384 . S
H892 C898 0.930 . S
H893 C902 0.930 . S
H894 C907 0.929 . S
H895 C905 0.929 . S
H896 C900 0.929 . S
H897 C906 0.929 . S
C898 H892 0.930 . S
C898 C899 1.367 . S
C898 C906 1.378 . S
C899 C898 1.367 . S
C899 C907 1.433 . S
C900 H896 0.929 . S
C900 C902 1.378 . S
C900 C904 1.350 . S
C901 C904 1.463 . S
C901 C906 1.350 . S
C901 N909 1.427 . S
C902 H893 0.930 . S
C902 C900 1.378 . S
C902 C903 1.367 . S
C903 C902 1.367 . S
C903 C905 1.433 . S
C904 C900 1.350 . S
C904 C901 1.463 . S
C904 N908 1.427 . S
C905 H895 0.929 . S
C905 C903 1.433 . S
C905 N908 1.384 . S
C906 H897 0.929 . S
C906 C898 1.378 . S
C906 C901 1.350 . S
C907 H894 0.929 . S
C907 C899 1.433 . S
C907 N909 1.384 . S
N908 C904 1.427 . S
N908 C905 1.384 . S
N909 C901 1.427 . S
N909 C907 1.384 . S
H910 C916 0.930 . S
H911 C920 0.930 . S
H912 C925 0.929 . S
H913 C923 0.929 . S
H914 C918 0.929 . S
H915 C924 0.929 . S
C916 H910 0.930 . S
C916 C917 1.367 . S
C916 C924 1.378 . S
C917 C916 1.367 . S
C917 C925 1.433 . S
C918 H914 0.929 . S
C918 C920 1.378 . S
C918 C922 1.350 . S
C919 C922 1.463 . S
C919 C924 1.350 . S
C919 N927 1.427 . S
C920 H911 0.930 . S
C920 C918 1.378 . S
C920 C921 1.367 . S
C921 C920 1.367 . S
C921 C923 1.433 . S
C922 C918 1.350 . S
C922 C919 1.463 . S
C922 N926 1.427 . S
C923 H913 0.929 . S
C923 C921 1.433 . S
C923 N926 1.384 . S
C924 H915 0.929 . S
C924 C916 1.378 . S
C924 C919 1.350 . S
C925 H912 0.929 . S
C925 C917 1.433 . S
C925 N927 1.384 . S
N926 C922 1.427 . S
N926 C923 1.384 . S
N927 C919 1.427 . S
N927 C925 1.384 . S
H928 C934 0.930 . S
H929 C938 0.930 . S
H930 C943 0.929 . S
H931 C941 0.929 . S
H932 C936 0.929 . S
H933 C942 0.929 . S
C934 H928 0.930 . S
C934 C935 1.367 . S
C934 C942 1.378 . S
C935 C934 1.367 . S
C935 C943 1.433 . S
C936 H932 0.929 . S
C936 C938 1.378 . S
C936 C940 1.350 . S
C937 C940 1.463 . S
C937 C942 1.350 . S
C937 N945 1.427 . S
C938 H929 0.930 . S
C938 C936 1.378 . S
C938 C939 1.367 . S
C939 C938 1.367 . S
C939 C941 1.433 . S
C940 C936 1.350 . S
C940 C937 1.463 . S
C940 N944 1.427 . S
C941 H931 0.929 . S
C941 C939 1.433 . S
C941 N944 1.384 . S
C942 H933 0.929 . S
C942 C934 1.378 . S
C942 C937 1.350 . S
C943 H930 0.929 . S
C943 C935 1.433 . S
C943 N945 1.384 . S
N944 C940 1.427 . S
N944 C941 1.384 . S
N945 C937 1.427 . S
N945 C943 1.384 . S
H946 C952 0.930 . S
H947 C956 0.930 . S
H948 C961 0.929 . S
H949 C959 0.929 . S
H950 C954 0.929 . S
H951 C960 0.929 . S
C952 H946 0.930 . S
C952 C953 1.367 . S
C952 C960 1.378 . S
C953 C952 1.367 . S
C953 C961 1.433 . S
C954 H950 0.929 . S
C954 C956 1.378 . S
C954 C958 1.350 . S
C955 C958 1.463 . S
C955 C960 1.350 . S
C955 N963 1.427 . S
C956 H947 0.930 . S
C956 C954 1.378 . S
C956 C957 1.367 . S
C957 C956 1.367 . S
C957 C959 1.433 . S
C958 C954 1.350 . S
C958 C955 1.463 . S
C958 N962 1.427 . S
C959 H949 0.929 . S
C959 C957 1.433 . S
C959 N962 1.384 . S
C960 H951 0.929 . S
C960 C952 1.378 . S
C960 C955 1.350 . S
C961 H948 0.929 . S
C961 C953 1.433 . S
C961 N963 1.384 . S
N962 C958 1.427 . S
N962 C959 1.384 . S
N963 C955 1.427 . S
N963 C961 1.384 . S
H964 C970 0.930 . S
H965 C974 0.930 . S
H966 C979 0.929 . S
H967 C977 0.929 . S
H968 C972 0.929 . S
H969 C978 0.929 . S
C970 H964 0.930 . S
C970 C971 1.367 . S
C970 C978 1.378 . S
C971 C970 1.367 . S
C971 C979 1.433 . S
C972 H968 0.929 . S
C972 C974 1.378 . S
C972 C976 1.350 . S
C973 C976 1.463 . S
C973 C978 1.350 . S
C973 N981 1.427 . S
C974 H965 0.930 . S
C974 C972 1.378 . S
C974 C975 1.367 . S
C975 C974 1.367 . S
C975 C977 1.433 . S
C976 C972 1.350 . S
C976 C973 1.463 . S
C976 N980 1.427 . S
C977 H967 0.929 . S
C977 C975 1.433 . S
C977 N980 1.384 . S
C978 H969 0.929 . S
C978 C970 1.378 . S
C978 C973 1.350 . S
C979 H966 0.929 . S
C979 C971 1.433 . S
C979 N981 1.384 . S
N980 C976 1.427 . S
N980 C977 1.384 . S
N981 C973 1.427 . S
N981 C979 1.384 . S
H982 C988 0.930 . S
H983 C992 0.930 . S
H984 C997 0.929 . S
H985 C995 0.929 . S
H986 C990 0.929 . S
H987 C996 0.929 . S
C988 H982 0.930 . S
C988 C989 1.367 . S
C988 C996 1.378 . S
C989 C988 1.367 . S
C989 C997 1.433 . S
C990 H986 0.929 . S
C990 C992 1.378 . S
C990 C994 1.350 . S
C991 C994 1.463 1_655 S
C991 C996 1.350 . S
C991 N999 1.427 . S
C992 H983 0.930 . S
C992 C990 1.378 . S
C992 C993 1.367 . S
C993 C992 1.367 . S
C993 C995 1.433 . S
C994 C990 1.350 . S
C994 C991 1.463 1_455 S
C994 N998 1.427 . S
C995 H985 0.929 . S
C995 C993 1.433 . S
C995 N998 1.384 . S
C996 H987 0.929 . S
C996 C988 1.378 . S
C996 C991 1.350 . S
C997 H984 0.929 . S
C997 C989 1.433 . S
C997 N999 1.384 . S
N998 C994 1.427 . S
N998 C995 1.384 . S
N999 C991 1.427 . S
N999 C997 1.384 . S
H1000 C1006 0.930 . S
H1001 C1010 0.930 . S
H1002 C1015 0.929 . S
H1003 C1013 0.929 . S
H1004 C1008 0.929 . S
H1005 C1014 0.929 . S
C1006 H1000 0.930 . S
C1006 C1007 1.367 . S
C1006 C1014 1.378 . S
C1007 C1006 1.367 . S
C1007 C1015 1.433 . S
C1008 H1004 0.929 . S
C1008 C1010 1.378 . S
C1008 C1012 1.350 . S
C1009 C1012 1.463 . S
C1009 C1014 1.350 . S
C1009 N1017 1.427 . S
C1010 H1001 0.930 . S
C1010 C1008 1.378 . S
C1010 C1011 1.367 . S
C1011 C1010 1.367 . S
C1011 C1013 1.433 . S
C1012 C1008 1.350 . S
C1012 C1009 1.463 . S
C1012 N1016 1.427 . S
C1013 H1003 0.929 . S
C1013 C1011 1.433 . S
C1013 N1016 1.384 . S
C1014 H1005 0.929 . S
C1014 C1006 1.378 . S
C1014 C1009 1.350 . S
C1015 H1002 0.929 . S
C1015 C1007 1.433 . S
C1015 N1017 1.384 . S
N1016 C1012 1.427 . S
N1016 C1013 1.384 . S
N1017 C1009 1.427 . S
N1017 C1015 1.384 . S
H1018 C1024 0.930 . S
H1019 C1028 0.930 . S
H1020 C1033 0.929 . S
H1021 C1031 0.929 . S
H1022 C1026 0.929 . S
H1023 C1032 0.929 . S
C1024 H1018 0.930 . S
C1024 C1025 1.367 . S
C1024 C1032 1.378 . S
C1025 C1024 1.367 . S
C1025 C1033 1.433 . S
C1026 H1022 0.929 . S
C1026 C1028 1.378 . S
C1026 C1030 1.350 . S
C1027 C1030 1.463 1_455 S
C1027 C1032 1.350 . S
C1027 N1035 1.427 . S
C1028 H1019 0.930 . S
C1028 C1026 1.378 . S
C1028 C1029 1.367 . S
C1029 C1028 1.367 . S
C1029 C1031 1.433 . S
C1030 C1026 1.350 . S
C1030 C1027 1.463 1_655 S
C1030 N1034 1.427 . S
C1031 H1021 0.929 . S
C1031 C1029 1.433 . S
C1031 N1034 1.384 . S
C1032 H1023 0.929 . S
C1032 C1024 1.378 . S
C1032 C1027 1.350 . S
C1033 H1020 0.929 . S
C1033 C1025 1.433 . S
C1033 N1035 1.384 . S
N1034 C1030 1.427 . S
N1034 C1031 1.384 . S
N1035 C1027 1.427 . S
N1035 C1033 1.384 . S
H1036 C1042 0.930 . S
H1037 C1046 0.930 . S
H1038 C1051 0.929 . S
H1039 C1049 0.929 . S
H1040 C1044 0.929 . S
H1041 C1050 0.929 . S
C1042 H1036 0.930 . S
C1042 C1043 1.367 . S
C1042 C1050 1.378 . S
C1043 C1042 1.367 . S
C1043 C1051 1.433 . S
C1044 H1040 0.929 . S
C1044 C1046 1.378 . S
C1044 C1048 1.350 . S
C1045 C1048 1.463 . S
C1045 C1050 1.350 . S
C1045 N1053 1.427 . S
C1046 H1037 0.930 . S
C1046 C1044 1.378 . S
C1046 C1047 1.367 . S
C1047 C1046 1.367 . S
C1047 C1049 1.433 . S
C1048 C1044 1.350 . S
C1048 C1045 1.463 . S
C1048 N1052 1.427 . S
C1049 H1039 0.929 . S
C1049 C1047 1.433 . S
C1049 N1052 1.384 . S
C1050 H1041 0.929 . S
C1050 C1042 1.378 . S
C1050 C1045 1.350 . S
C1051 H1038 0.929 . S
C1051 C1043 1.433 . S
C1051 N1053 1.384 . S
N1052 C1048 1.427 . S
N1052 C1049 1.384 . S
N1053 C1045 1.427 . S
N1053 C1051 1.384 . S
H1054 C1060 0.930 . S
H1055 C1064 0.930 . S
H1056 C1069 0.929 . S
H1057 C1067 0.929 . S
H1058 C1062 0.929 . S
H1059 C1068 0.929 . S
C1060 H1054 0.930 . S
C1060 C1061 1.367 . S
C1060 C1068 1.378 . S
C1061 C1060 1.367 . S
C1061 C1069 1.433 . S
C1062 H1058 0.929 . S
C1062 C1064 1.378 . S
C1062 C1066 1.350 . S
C1063 C1066 1.463 . S
C1063 C1068 1.350 . S
C1063 N1071 1.427 . S
C1064 H1055 0.930 . S
C1064 C1062 1.378 . S
C1064 C1065 1.367 . S
C1065 C1064 1.367 . S
C1065 C1067 1.433 . S
C1066 C1062 1.350 . S
C1066 C1063 1.463 . S
C1066 N1070 1.427 . S
C1067 H1057 0.929 . S
C1067 C1065 1.433 . S
C1067 N1070 1.384 . S
C1068 H1059 0.929 . S
C1068 C1060 1.378 . S
C1068 C1063 1.350 . S
C1069 H1056 0.929 . S
C1069 C1061 1.433 . S
C1069 N1071 1.384 . S
N1070 C1066 1.427 . S
N1070 C1067 1.384 . S
N1071 C1063 1.427 . S
N1071 C1069 1.384 . S
H1072 C1078 0.930 . S
H1073 C1082 0.930 . S
H1074 C1087 0.929 . S
H1075 C1085 0.929 . S
H1076 C1080 0.929 . S
H1077 C1086 0.929 . S
C1078 H1072 0.930 . S
C1078 C1079 1.367 . S
C1078 C1086 1.378 . S
C1079 C1078 1.367 . S
C1079 C1087 1.433 . S
C1080 H1076 0.929 . S
C1080 C1082 1.378 . S
C1080 C1084 1.350 . S
C1081 C1084 1.463 . S
C1081 C1086 1.350 . S
C1081 N1089 1.427 . S
C1082 H1073 0.930 . S
C1082 C1080 1.378 . S
C1082 C1083 1.367 . S
C1083 C1082 1.367 . S
C1083 C1085 1.433 . S
C1084 C1080 1.350 . S
C1084 C1081 1.463 . S
C1084 N1088 1.427 . S
C1085 H1075 0.929 . S
C1085 C1083 1.433 . S
C1085 N1088 1.384 . S
C1086 H1077 0.929 . S
C1086 C1078 1.378 . S
C1086 C1081 1.350 . S
C1087 H1074 0.929 . S
C1087 C1079 1.433 . S
C1087 N1089 1.384 . S
N1088 C1084 1.427 . S
N1088 C1085 1.384 . S
N1089 C1081 1.427 . S
N1089 C1087 1.384 . S
H1090 C1096 0.930 . S
H1091 C1100 0.930 . S
H1092 C1105 0.929 . S
H1093 C1103 0.929 . S
H1094 C1098 0.929 . S
H1095 C1104 0.929 . S
C1096 H1090 0.930 . S
C1096 C1097 1.367 . S
C1096 C1104 1.378 . S
C1097 C1096 1.367 . S
C1097 C1105 1.433 . S
C1098 H1094 0.929 . S
C1098 C1100 1.378 . S
C1098 C1102 1.350 . S
C1099 C1102 1.463 . S
C1099 C1104 1.350 . S
C1099 N1107 1.427 . S
C1100 H1091 0.930 . S
C1100 C1098 1.378 . S
C1100 C1101 1.367 . S
C1101 C1100 1.367 . S
C1101 C1103 1.433 . S
C1102 C1098 1.350 . S
C1102 C1099 1.463 . S
C1102 N1106 1.427 . S
C1103 H1093 0.929 . S
C1103 C1101 1.433 . S
C1103 N1106 1.384 . S
C1104 H1095 0.929 . S
C1104 C1096 1.378 . S
C1104 C1099 1.350 . S
C1105 H1092 0.929 . S
C1105 C1097 1.433 . S
C1105 N1107 1.384 . S
N1106 C1102 1.427 . S
N1106 C1103 1.384 . S
N1107 C1099 1.427 . S
N1107 C1105 1.384 . S
H1108 C1114 0.930 . S
H1109 C1118 0.930 . S
H1110 C1123 0.929 . S
H1111 C1121 0.929 . S
H1112 C1116 0.929 . S
H1113 C1122 0.929 . S
C1114 H1108 0.930 . S
C1114 C1115 1.367 . S
C1114 C1122 1.378 . S
C1115 C1114 1.367 . S
C1115 C1123 1.433 . S
C1116 H1112 0.929 . S
C1116 C1118 1.378 . S
C1116 C1120 1.350 . S
C1117 C1120 1.463 . S
C1117 C1122 1.350 . S
C1117 N1125 1.427 . S
C1118 H1109 0.930 . S
C1118 C1116 1.378 . S
C1118 C1119 1.367 . S
C1119 C1118 1.367 . S
C1119 C1121 1.433 . S
C1120 C1116 1.350 . S
C1120 C1117 1.463 . S
C1120 N1124 1.427 . S
C1121 H1111 0.929 . S
C1121 C1119 1.433 . S
C1121 N1124 1.384 . S
C1122 H1113 0.929 . S
C1122 C1114 1.378 . S
C1122 C1117 1.350 . S
C1123 H1110 0.929 . S
C1123 C1115 1.433 . S
C1123 N1125 1.384 . S
N1124 C1120 1.427 . S
N1124 C1121 1.384 . S
N1125 C1117 1.427 . S
N1125 C1123 1.384 . S
H1126 C1132 0.930 . S
H1127 C1136 0.930 . S
H1128 C1141 0.929 . S
H1129 C1139 0.929 . S
H1130 C1134 0.929 . S
H1131 C1140 0.929 . S
C1132 H1126 0.930 . S
C1132 C1133 1.367 . S
C1132 C1140 1.378 . S
C1133 C1132 1.367 . S
C1133 C1141 1.433 . S
C1134 H1130 0.929 . S
C1134 C1136 1.378 . S
C1134 C1138 1.350 . S
C1135 C1138 1.463 . S
C1135 C1140 1.350 . S
C1135 N1143 1.427 . S
C1136 H1127 0.930 . S
C1136 C1134 1.378 . S
C1136 C1137 1.367 . S
C1137 C1136 1.367 . S
C1137 C1139 1.433 . S
C1138 C1134 1.350 . S
C1138 C1135 1.463 . S
C1138 N1142 1.427 . S
C1139 H1129 0.929 . S
C1139 C1137 1.433 . S
C1139 N1142 1.384 . S
C1140 H1131 0.929 . S
C1140 C1132 1.378 . S
C1140 C1135 1.350 . S
C1141 H1128 0.929 . S
C1141 C1133 1.433 . S
C1141 N1143 1.384 . S
N1142 C1138 1.427 . S
N1142 C1139 1.384 . S
N1143 C1135 1.427 . S
N1143 C1141 1.384 . S
H1144 C1150 0.930 . S
H1145 C1154 0.930 . S
H1146 C1159 0.929 . S
H1147 C1157 0.929 . S
H1148 C1152 0.929 . S
H1149 C1158 0.929 . S
C1150 H1144 0.930 . S
C1150 C1151 1.367 . S
C1150 C1158 1.378 . S
C1151 C1150 1.367 . S
C1151 C1159 1.433 . S
C1152 H1148 0.929 . S
C1152 C1154 1.378 . S
C1152 C1156 1.350 . S
C1153 C1156 1.463 1_655 S
C1153 C1158 1.350 . S
C1153 N1161 1.427 . S
C1154 H1145 0.930 . S
C1154 C1152 1.378 . S
C1154 C1155 1.367 . S
C1155 C1154 1.367 . S
C1155 C1157 1.433 . S
C1156 C1152 1.350 . S
C1156 C1153 1.463 1_455 S
C1156 N1160 1.427 . S
C1157 H1147 0.929 . S
C1157 C1155 1.433 . S
C1157 N1160 1.384 . S
C1158 H1149 0.929 . S
C1158 C1150 1.378 . S
C1158 C1153 1.350 . S
C1159 H1146 0.929 . S
C1159 C1151 1.433 . S
C1159 N1161 1.384 . S
N1160 C1156 1.427 . S
N1160 C1157 1.384 . S
N1161 C1153 1.427 . S
N1161 C1159 1.384 . S
H1162 C1168 0.930 . S
H1163 C1172 0.930 . S
H1164 C1177 0.929 . S
H1165 C1175 0.929 . S
H1166 C1170 0.929 . S
H1167 C1176 0.929 . S
C1168 H1162 0.930 . S
C1168 C1169 1.367 . S
C1168 C1176 1.378 . S
C1169 C1168 1.367 . S
C1169 C1177 1.433 . S
C1170 H1166 0.929 . S
C1170 C1172 1.378 . S
C1170 C1174 1.350 . S
C1171 C1174 1.463 . S
C1171 C1176 1.350 . S
C1171 N1179 1.427 . S
C1172 H1163 0.930 . S
C1172 C1170 1.378 . S
C1172 C1173 1.367 . S
C1173 C1172 1.367 . S
C1173 C1175 1.433 . S
C1174 C1170 1.350 . S
C1174 C1171 1.463 . S
C1174 N1178 1.427 . S
C1175 H1165 0.929 . S
C1175 C1173 1.433 . S
C1175 N1178 1.384 . S
C1176 H1167 0.929 . S
C1176 C1168 1.378 . S
C1176 C1171 1.350 . S
C1177 H1164 0.929 . S
C1177 C1169 1.433 . S
C1177 N1179 1.384 . S
N1178 C1174 1.427 . S
N1178 C1175 1.384 . S
N1179 C1171 1.427 . S
N1179 C1177 1.384 . S
H1180 C1186 0.930 . S
H1181 C1190 0.930 . S
H1182 C1195 0.929 . S
H1183 C1193 0.929 . S
H1184 C1188 0.929 . S
H1185 C1194 0.929 . S
C1186 H1180 0.930 . S
C1186 C1187 1.367 . S
C1186 C1194 1.378 . S
C1187 C1186 1.367 . S
C1187 C1195 1.433 . S
C1188 H1184 0.929 . S
C1188 C1190 1.378 . S
C1188 C1192 1.350 . S
C1189 C1192 1.463 . S
C1189 C1194 1.350 . S
C1189 N1197 1.427 . S
C1190 H1181 0.930 . S
C1190 C1188 1.378 . S
C1190 C1191 1.367 . S
C1191 C1190 1.367 . S
C1191 C1193 1.433 . S
C1192 C1188 1.350 . S
C1192 C1189 1.463 . S
C1192 N1196 1.427 . S
C1193 H1183 0.929 . S
C1193 C1191 1.433 . S
C1193 N1196 1.384 . S
C1194 H1185 0.929 . S
C1194 C1186 1.378 . S
C1194 C1189 1.350 . S
C1195 H1182 0.929 . S
C1195 C1187 1.433 . S
C1195 N1197 1.384 . S
N1196 C1192 1.427 . S
N1196 C1193 1.384 . S
N1197 C1189 1.427 . S
N1197 C1195 1.384 . S
H1198 C1204 0.930 . S
H1199 C1208 0.930 . S
H1200 C1213 0.929 . S
H1201 C1211 0.929 . S
H1202 C1206 0.929 . S
H1203 C1212 0.929 . S
C1204 H1198 0.930 . S
C1204 C1205 1.367 . S
C1204 C1212 1.378 . S
C1205 C1204 1.367 . S
C1205 C1213 1.433 . S
C1206 H1202 0.929 . S
C1206 C1208 1.378 . S
C1206 C1210 1.350 . S
C1207 C1210 1.463 1_455 S
C1207 C1212 1.350 . S
C1207 N1215 1.427 . S
C1208 H1199 0.930 . S
C1208 C1206 1.378 . S
C1208 C1209 1.367 . S
C1209 C1208 1.367 . S
C1209 C1211 1.433 . S
C1210 C1206 1.350 . S
C1210 C1207 1.463 1_655 S
C1210 N1214 1.427 . S
C1211 H1201 0.929 . S
C1211 C1209 1.433 . S
C1211 N1214 1.384 . S
C1212 H1203 0.929 . S
C1212 C1204 1.378 . S
C1212 C1207 1.350 . S
C1213 H1200 0.929 . S
C1213 C1205 1.433 . S
C1213 N1215 1.384 . S
N1214 C1210 1.427 . S
N1214 C1211 1.384 . S
N1215 C1207 1.427 . S
N1215 C1213 1.384 . S
H1216 C1222 0.930 . S
H1217 C1226 0.930 . S
H1218 C1231 0.929 . S
H1219 C1229 0.929 . S
H1220 C1224 0.929 . S
H1221 C1230 0.929 . S
C1222 H1216 0.930 . S
C1222 C1223 1.367 . S
C1222 C1230 1.378 . S
C1223 C1222 1.367 . S
C1223 C1231 1.433 . S
C1224 H1220 0.929 . S
C1224 C1226 1.378 . S
C1224 C1228 1.350 . S
C1225 C1228 1.463 1_554 S
C1225 C1230 1.350 . S
C1225 N1233 1.427 . S
C1226 H1217 0.930 . S
C1226 C1224 1.378 . S
C1226 C1227 1.367 . S
C1227 C1226 1.367 . S
C1227 C1229 1.433 . S
C1228 C1224 1.350 . S
C1228 C1225 1.463 1_556 S
C1228 N1232 1.427 1_556 S
C1229 H1219 0.929 . S
C1229 C1227 1.433 . S
C1229 N1232 1.384 1_556 S
C1230 H1221 0.929 . S
C1230 C1222 1.378 . S
C1230 C1225 1.350 . S
C1231 H1218 0.929 . S
C1231 C1223 1.433 . S
C1231 N1233 1.384 . S
N1232 C1228 1.427 1_554 S
N1232 C1229 1.384 1_554 S
N1233 C1225 1.427 . S
N1233 C1231 1.384 . S
H1234 C1240 0.930 . S
H1235 C1244 0.930 . S
H1236 C1249 0.929 . S
H1237 C1247 0.929 . S
H1238 C1242 0.929 . S
H1239 C1248 0.929 . S
C1240 H1234 0.930 . S
C1240 C1241 1.367 . S
C1240 C1248 1.378 . S
C1241 C1240 1.367 . S
C1241 C1249 1.433 . S
C1242 H1238 0.929 . S
C1242 C1244 1.378 . S
C1242 C1246 1.350 . S
C1243 C1246 1.463 . S
C1243 C1248 1.350 . S
C1243 N1251 1.427 . S
C1244 H1235 0.930 . S
C1244 C1242 1.378 . S
C1244 C1245 1.367 . S
C1245 C1244 1.367 . S
C1245 C1247 1.433 . S
C1246 C1242 1.350 . S
C1246 C1243 1.463 . S
C1246 N1250 1.427 . S
C1247 H1237 0.929 . S
C1247 C1245 1.433 . S
C1247 N1250 1.384 . S
C1248 H1239 0.929 . S
C1248 C1240 1.378 . S
C1248 C1243 1.350 . S
C1249 H1236 0.929 . S
C1249 C1241 1.433 . S
C1249 N1251 1.384 . S
N1250 C1246 1.427 . S
N1250 C1247 1.384 . S
N1251 C1243 1.427 . S
N1251 C1249 1.384 . S
H1252 C1258 0.930 . S
H1253 C1262 0.930 . S
H1254 C1267 0.929 . S
H1255 C1265 0.929 . S
H1256 C1260 0.929 . S
H1257 C1266 0.929 . S
C1258 H1252 0.930 . S
C1258 C1259 1.367 . S
C1258 C1266 1.378 . S
C1259 C1258 1.367 . S
C1259 C1267 1.433 . S
C1260 H1256 0.929 . S
C1260 C1262 1.378 . S
C1260 C1264 1.350 . S
C1261 C1264 1.463 . S
C1261 C1266 1.350 . S
C1261 N1269 1.427 . S
C1262 H1253 0.930 . S
C1262 C1260 1.378 . S
C1262 C1263 1.367 . S
C1263 C1262 1.367 . S
C1263 C1265 1.433 . S
C1264 C1260 1.350 . S
C1264 C1261 1.463 . S
C1264 N1268 1.427 . S
C1265 H1255 0.929 . S
C1265 C1263 1.433 . S
C1265 N1268 1.384 . S
C1266 H1257 0.929 . S
C1266 C1258 1.378 . S
C1266 C1261 1.350 . S
C1267 H1254 0.929 . S
C1267 C1259 1.433 . S
C1267 N1269 1.384 . S
N1268 C1264 1.427 . S
N1268 C1265 1.384 . S
N1269 C1261 1.427 . S
N1269 C1267 1.384 . S
H1270 C1276 0.930 . S
H1271 C1280 0.930 . S
H1272 C1285 0.929 . S
H1273 C1283 0.929 . S
H1274 C1278 0.929 . S
H1275 C1284 0.929 . S
C1276 H1270 0.930 . S
C1276 C1277 1.367 . S
C1276 C1284 1.378 . S
C1277 C1276 1.367 . S
C1277 C1285 1.433 . S
C1278 H1274 0.929 . S
C1278 C1280 1.378 . S
C1278 C1282 1.350 . S
C1279 C1282 1.463 . S
C1279 C1284 1.350 . S
C1279 N1287 1.427 . S
C1280 H1271 0.930 . S
C1280 C1278 1.378 . S
C1280 C1281 1.367 . S
C1281 C1280 1.367 . S
C1281 C1283 1.433 . S
C1282 C1278 1.350 . S
C1282 C1279 1.463 . S
C1282 N1286 1.427 . S
C1283 H1273 0.929 . S
C1283 C1281 1.433 . S
C1283 N1286 1.384 . S
C1284 H1275 0.929 . S
C1284 C1276 1.378 . S
C1284 C1279 1.350 . S
C1285 H1272 0.929 . S
C1285 C1277 1.433 . S
C1285 N1287 1.384 . S
N1286 C1282 1.427 . S
N1286 C1283 1.384 . S
N1287 C1279 1.427 . S
N1287 C1285 1.384 . S
H1288 C1294 0.930 . S
H1289 C1298 0.930 . S
H1290 C1303 0.929 . S
H1291 C1301 0.929 . S
H1292 C1296 0.943 . S
H1293 C1302 0.929 . S
C1294 H1288 0.930 . S
C1294 C1295 1.367 . S
C1294 C1302 1.378 1_554 S
C1295 C1294 1.367 . S
C1295 C1303 1.433 . S
C1296 H1292 0.943 . S
C1296 C1298 1.378 . S
C1296 C1300 1.350 . S
C1297 C1300 1.464 . S
C1297 C1302 1.350 . S
C1297 N1305 1.425 1_556 S
C1298 H1289 0.930 . S
C1298 C1296 1.378 . S
C1298 C1299 1.367 . S
C1299 C1298 1.367 . S
C1299 C1301 1.433 . S
C1300 C1296 1.350 . S
C1300 C1297 1.464 . S
C1300 N1304 1.427 . S
C1301 H1291 0.929 . S
C1301 C1299 1.433 . S
C1301 N1304 1.384 . S
C1302 H1293 0.929 . S
C1302 C1294 1.378 1_556 S
C1302 C1297 1.350 . S
C1303 H1290 0.929 . S
C1303 C1295 1.433 . S
C1303 N1305 1.384 . S
N1304 C1300 1.427 . S
N1304 C1301 1.384 . S
N1305 C1297 1.425 1_554 S
N1305 C1303 1.384 . S
H1306 C1312 0.930 . S
H1307 C1316 0.930 . S
H1308 C1321 0.929 . S
H1309 C1319 0.929 . S
H1310 C1314 0.929 . S
H1311 C1320 0.929 . S
C1312 H1306 0.930 . S
C1312 C1313 1.367 . S
C1312 C1320 1.378 . S
C1313 C1312 1.367 . S
C1313 C1321 1.433 . S
C1314 H1310 0.929 . S
C1314 C1316 1.378 . S
C1314 C1318 1.350 . S
C1315 C1318 1.463 . S
C1315 C1320 1.350 . S
C1315 N1323 1.427 . S
C1316 H1307 0.930 . S
C1316 C1314 1.378 . S
C1316 C1317 1.367 . S
C1317 C1316 1.367 . S
C1317 C1319 1.433 . S
C1318 C1314 1.350 . S
C1318 C1315 1.463 . S
C1318 N1322 1.427 . S
C1319 H1309 0.929 . S
C1319 C1317 1.433 . S
C1319 N1322 1.384 . S
C1320 H1311 0.929 . S
C1320 C1312 1.378 . S
C1320 C1315 1.350 . S
C1321 H1308 0.929 . S
C1321 C1313 1.433 . S
C1321 N1323 1.384 . S
N1322 C1318 1.427 . S
N1322 C1319 1.384 . S
N1323 C1315 1.427 . S
N1323 C1321 1.384 . S
H1324 C1330 0.930 . S
H1325 C1334 0.930 . S
H1326 C1339 0.929 . S
H1327 C1337 0.929 . S
H1328 C1332 0.929 . S
H1329 C1338 0.929 . S
C1330 H1324 0.930 . S
C1330 C1331 1.367 . S
C1330 C1338 1.378 . S
C1331 C1330 1.367 . S
C1331 C1339 1.433 . S
C1332 H1328 0.929 . S
C1332 C1334 1.378 . S
C1332 C1336 1.350 . S
C1333 C1336 1.463 . S
C1333 C1338 1.350 . S
C1333 N1341 1.427 . S
C1334 H1325 0.930 . S
C1334 C1332 1.378 . S
C1334 C1335 1.367 . S
C1335 C1334 1.367 . S
C1335 C1337 1.433 . S
C1336 C1332 1.350 . S
C1336 C1333 1.463 . S
C1336 N1340 1.427 . S
C1337 H1327 0.929 . S
C1337 C1335 1.433 . S
C1337 N1340 1.384 . S
C1338 H1329 0.929 . S
C1338 C1330 1.378 . S
C1338 C1333 1.350 . S
C1339 H1326 0.929 . S
C1339 C1331 1.433 . S
C1339 N1341 1.384 . S
N1340 C1336 1.427 . S
N1340 C1337 1.384 . S
N1341 C1333 1.427 . S
N1341 C1339 1.384 . S
H1342 C1348 0.930 . S
H1343 C1352 0.930 . S
H1344 C1357 0.929 . S
H1345 C1355 0.929 . S
H1346 C1350 0.929 . S
H1347 C1356 0.929 . S
C1348 H1342 0.930 . S
C1348 C1349 1.367 . S
C1348 C1356 1.378 . S
C1349 C1348 1.367 . S
C1349 C1357 1.433 . S
C1350 H1346 0.929 . S
C1350 C1352 1.378 . S
C1350 C1354 1.350 . S
C1351 C1354 1.463 . S
C1351 C1356 1.350 . S
C1351 N1359 1.427 . S
C1352 H1343 0.930 . S
C1352 C1350 1.378 . S
C1352 C1353 1.367 . S
C1353 C1352 1.367 . S
C1353 C1355 1.433 . S
C1354 C1350 1.350 . S
C1354 C1351 1.463 . S
C1354 N1358 1.427 . S
C1355 H1345 0.929 . S
C1355 C1353 1.433 . S
C1355 N1358 1.384 . S
C1356 H1347 0.929 . S
C1356 C1348 1.378 . S
C1356 C1351 1.350 . S
C1357 H1344 0.929 . S
C1357 C1349 1.433 . S
C1357 N1359 1.384 . S
N1358 C1354 1.427 . S
N1358 C1355 1.384 . S
N1359 C1351 1.427 . S
N1359 C1357 1.384 . S
H1360 C1366 0.930 . S
H1361 C1370 0.930 . S
H1362 C1375 0.929 . S
H1363 C1373 0.929 . S
H1364 C1368 0.929 . S
H1365 C1374 0.929 . S
C1366 H1360 0.930 . S
C1366 C1367 1.367 . S
C1366 C1374 1.378 . S
C1367 C1366 1.367 . S
C1367 C1375 1.433 . S
C1368 H1364 0.929 . S
C1368 C1370 1.378 . S
C1368 C1372 1.350 . S
C1369 C1372 1.463 1_565 S
C1369 C1374 1.350 . S
C1369 N1377 1.427 . S
C1370 H1361 0.930 . S
C1370 C1368 1.378 . S
C1370 C1371 1.367 . S
C1371 C1370 1.367 . S
C1371 C1373 1.433 . S
C1372 C1368 1.350 . S
C1372 C1369 1.463 1_545 S
C1372 N1376 1.427 . S
C1373 H1363 0.929 . S
C1373 C1371 1.433 . S
C1373 N1376 1.384 . S
C1374 H1365 0.929 . S
C1374 C1366 1.378 . S
C1374 C1369 1.350 . S
C1375 H1362 0.929 . S
C1375 C1367 1.433 . S
C1375 N1377 1.384 . S
N1376 C1372 1.427 . S
N1376 C1373 1.384 . S
N1377 C1369 1.427 . S
N1377 C1375 1.384 . S
H1378 C1384 0.930 . S
H1379 C1388 0.930 . S
H1380 C1393 0.929 . S
H1381 C1391 0.929 . S
H1382 C1386 0.929 . S
H1383 C1392 0.929 . S
C1384 H1378 0.930 . S
C1384 C1385 1.367 . S
C1384 C1392 1.378 . S
C1385 C1384 1.367 . S
C1385 C1393 1.433 . S
C1386 H1382 0.929 . S
C1386 C1388 1.378 . S
C1386 C1390 1.350 . S
C1387 C1390 1.463 . S
C1387 C1392 1.350 . S
C1387 N1395 1.427 . S
C1388 H1379 0.930 . S
C1388 C1386 1.378 . S
C1388 C1389 1.367 . S
C1389 C1388 1.367 . S
C1389 C1391 1.433 . S
C1390 C1386 1.350 . S
C1390 C1387 1.463 . S
C1390 N1394 1.427 . S
C1391 H1381 0.929 . S
C1391 C1389 1.433 . S
C1391 N1394 1.384 . S
C1392 H1383 0.929 . S
C1392 C1384 1.378 . S
C1392 C1387 1.350 . S
C1393 H1380 0.929 . S
C1393 C1385 1.433 . S
C1393 N1395 1.384 . S
N1394 C1390 1.427 . S
N1394 C1391 1.384 . S
N1395 C1387 1.427 . S
N1395 C1393 1.384 . S
H1396 C1402 0.930 . S
H1397 C1406 0.930 . S
H1398 C1411 0.929 . S
H1399 C1409 0.929 . S
H1400 C1404 0.929 . S
H1401 C1410 0.929 . S
C1402 H1396 0.930 . S
C1402 C1403 1.367 . S
C1402 C1410 1.378 . S
C1403 C1402 1.367 . S
C1403 C1411 1.433 . S
C1404 H1400 0.929 . S
C1404 C1406 1.378 . S
C1404 C1408 1.356 . S
C1405 C1408 1.451 1_564 S
C1405 C1410 1.350 . S
C1405 N1413 1.427 . S
C1406 H1397 0.930 . S
C1406 C1404 1.378 . S
C1406 C1407 1.367 . S
C1407 C1406 1.367 . S
C1407 C1409 1.433 . S
C1408 C1404 1.356 . S
C1408 C1405 1.451 1_546 S
C1408 N1412 1.432 . S
C1409 H1399 0.929 . S
C1409 C1407 1.433 . S
C1409 N1412 1.384 . S
C1410 H1401 0.929 . S
C1410 C1402 1.378 . S
C1410 C1405 1.350 . S
C1411 H1398 0.929 . S
C1411 C1403 1.433 . S
C1411 N1413 1.384 . S
N1412 C1408 1.432 . S
N1412 C1409 1.384 . S
N1413 C1405 1.427 . S
N1413 C1411 1.384 . S
H1414 C1420 0.930 . S
H1415 C1424 0.930 . S
H1416 C1429 0.929 . S
H1417 C1427 0.929 . S
H1418 C1422 0.929 . S
H1419 C1428 0.929 . S
C1420 H1414 0.930 . S
C1420 C1421 1.367 . S
C1420 C1428 1.378 . S
C1421 C1420 1.367 . S
C1421 C1429 1.433 . S
C1422 H1418 0.929 . S
C1422 C1424 1.378 . S
C1422 C1426 1.350 . S
C1423 C1426 1.463 . S
C1423 C1428 1.350 . S
C1423 N1431 1.427 . S
C1424 H1415 0.930 . S
C1424 C1422 1.378 . S
C1424 C1425 1.367 . S
C1425 C1424 1.367 . S
C1425 C1427 1.433 . S
C1426 C1422 1.350 . S
C1426 C1423 1.463 . S
C1426 N1430 1.427 . S
C1427 H1417 0.929 . S
C1427 C1425 1.433 . S
C1427 N1430 1.384 . S
C1428 H1419 0.929 . S
C1428 C1420 1.378 . S
C1428 C1423 1.350 . S
C1429 H1416 0.929 . S
C1429 C1421 1.433 . S
C1429 N1431 1.384 . S
N1430 C1426 1.427 . S
N1430 C1427 1.384 . S
N1431 C1423 1.427 . S
N1431 C1429 1.384 . S
H1432 C1438 0.930 . S
H1433 C1442 0.930 . S
H1434 C1447 0.929 . S
H1435 C1445 0.929 . S
H1436 C1440 0.929 . S
H1437 C1446 0.929 . S
C1438 H1432 0.930 . S
C1438 C1439 1.367 . S
C1438 C1446 1.378 . S
C1439 C1438 1.367 . S
C1439 C1447 1.433 . S
C1440 H1436 0.929 . S
C1440 C1442 1.378 . S
C1440 C1444 1.350 . S
C1441 C1444 1.463 1_565 S
C1441 C1446 1.350 . S
C1441 N1449 1.427 . S
C1442 H1433 0.930 . S
C1442 C1440 1.378 . S
C1442 C1443 1.367 . S
C1443 C1442 1.367 . S
C1443 C1445 1.433 . S
C1444 C1440 1.350 . S
C1444 C1441 1.463 1_545 S
C1444 N1448 1.427 . S
C1445 H1435 0.929 . S
C1445 C1443 1.433 . S
C1445 N1448 1.384 . S
C1446 H1437 0.929 . S
C1446 C1438 1.378 . S
C1446 C1441 1.350 . S
C1447 H1434 0.929 . S
C1447 C1439 1.433 . S
C1447 N1449 1.384 . S
N1448 C1444 1.427 . S
N1448 C1445 1.384 . S
N1449 C1441 1.427 . S
N1449 C1447 1.384 . S
H1450 C1456 0.930 . S
H1451 C1460 0.930 . S
H1452 C1465 0.929 . S
H1453 C1463 0.929 . S
H1454 C1458 0.929 . S
H1455 C1464 0.929 . S
C1456 H1450 0.930 . S
C1456 C1457 1.367 . S
C1456 C1464 1.378 . S
C1457 C1456 1.367 . S
C1457 C1465 1.433 . S
C1458 H1454 0.929 . S
C1458 C1460 1.378 . S
C1458 C1462 1.350 . S
C1459 C1462 1.463 . S
C1459 C1464 1.350 . S
C1459 N1467 1.427 . S
C1460 H1451 0.930 . S
C1460 C1458 1.378 . S
C1460 C1461 1.367 . S
C1461 C1460 1.367 . S
C1461 C1463 1.433 . S
C1462 C1458 1.350 . S
C1462 C1459 1.463 . S
C1462 N1466 1.427 . S
C1463 H1453 0.929 . S
C1463 C1461 1.433 . S
C1463 N1466 1.384 . S
C1464 H1455 0.929 . S
C1464 C1456 1.378 . S
C1464 C1459 1.350 . S
C1465 H1452 0.929 . S
C1465 C1457 1.433 . S
C1465 N1467 1.384 . S
N1466 C1462 1.427 . S
N1466 C1463 1.384 . S
N1467 C1459 1.427 . S
N1467 C1465 1.384 . S
H1468 C1474 0.930 . S
H1469 C1478 0.930 . S
H1470 C1483 0.929 . S
H1471 C1481 0.929 . S
H1472 C1476 0.929 1_556 S
H1473 C1482 0.929 . S
C1474 H1468 0.930 . S
C1474 C1475 1.367 . S
C1474 C1482 1.378 . S
C1475 C1474 1.367 . S
C1475 C1483 1.433 . S
C1476 H1472 0.929 1_554 S
C1476 C1478 1.378 . S
C1476 C1480 1.350 1_554 S
C1477 C1480 1.463 1_545 S
C1477 C1482 1.350 . S
C1477 N1485 1.427 . S
C1478 H1469 0.930 . S
C1478 C1476 1.378 . S
C1478 C1479 1.367 . S
C1479 C1478 1.367 . S
C1479 C1481 1.433 . S
C1480 C1476 1.350 1_556 S
C1480 C1477 1.463 1_565 S
C1480 N1484 1.427 1_556 S
C1481 H1471 0.929 . S
C1481 C1479 1.433 . S
C1481 N1484 1.384 . S
C1482 H1473 0.929 . S
C1482 C1474 1.378 . S
C1482 C1477 1.350 . S
C1483 H1470 0.929 . S
C1483 C1475 1.433 . S
C1483 N1485 1.384 . S
N1484 C1480 1.427 1_554 S
N1484 C1481 1.384 . S
N1485 C1477 1.427 . S
N1485 C1483 1.384 . S
H1486 C1492 0.930 . S
H1487 C1496 0.930 . S
H1488 C1501 0.929 . S
H1489 C1499 0.929 . S
H1490 C1494 0.929 . S
H1491 C1500 0.929 . S
C1492 H1486 0.930 . S
C1492 C1493 1.367 . S
C1492 C1500 1.378 . S
C1493 C1492 1.367 . S
C1493 C1501 1.433 . S
C1494 H1490 0.929 . S
C1494 C1496 1.378 . S
C1494 C1498 1.350 . S
C1495 C1498 1.463 . S
C1495 C1500 1.350 . S
C1495 N1503 1.427 . S
C1496 H1487 0.930 . S
C1496 C1494 1.378 . S
C1496 C1497 1.367 . S
C1497 C1496 1.367 . S
C1497 C1499 1.433 . S
C1498 C1494 1.350 . S
C1498 C1495 1.463 . S
C1498 N1502 1.427 . S
C1499 H1489 0.929 . S
C1499 C1497 1.433 . S
C1499 N1502 1.384 . S
C1500 H1491 0.929 . S
C1500 C1492 1.378 . S
C1500 C1495 1.350 . S
C1501 H1488 0.929 . S
C1501 C1493 1.433 . S
C1501 N1503 1.384 . S
N1502 C1498 1.427 . S
N1502 C1499 1.384 . S
N1503 C1495 1.427 . S
N1503 C1501 1.384 . S
C647 C15 1.642 . S
C651 C6 1.642 . S
C665 C46 1.561 1_556 S
C669 C55 1.561 . S
C683 C95 1.870 . S
C687 C86 1.870 . S
C701 C126 1.746 . S
C705 C135 1.746 . S
C719 C175 1.552 . S
C723 C166 1.552 . S
C737 C215 1.877 . S
C741 C206 1.877 . S
C755 C255 1.745 . S
C759 C246 1.745 1_556 S
C773 C286 1.633 . S
C777 C295 1.633 . S
C791 C326 1.633 . S
C795 C335 1.633 . S
C809 C366 1.557 . S
C813 C375 1.557 1_554 S
C827 C406 1.917 1_556 S
C831 C415 1.940 . S
C845 C455 1.739 . S
C849 C446 1.739 . S
C863 C486 1.557 . S
C867 C495 1.557 . S
C881 C526 1.943 . S
C885 C535 1.943 . S
C899 C566 1.739 . S
C903 C575 1.739 1_554 S
C917 C615 1.627 . S
C921 C606 1.627 . S
C935 C10 1.994 . S
C939 C459 2.012 . S
C953 C49 1.561 . S
C957 C618 1.563 . S
C971 C90 2.010 . S
C975 C379 2.061 . S
C989 C129 1.498 . S
C993 C539 1.527 . S
C1007 C170 1.930 . S
C1011 C538 1.870 . S
C1025 C458 1.470 . S
C1029 C209 1.523 . S
C1043 C250 1.964 . S
C1047 C619 1.960 . S
C1061 C289 1.516 . S
C1065 C378 1.513 . S
C1079 C130 1.959 . S
C1083 C339 1.964 . S
C1097 C50 1.928 . S
C1101 C418 1.873 . S
C1115 C499 2.068 . S
C1119 C210 1.999 . S
C1133 C290 2.006 . S
C1137 C579 2.001 . S
C1151 C338 1.569 . S
C1155 C169 1.554 . S
C1169 C249 1.503 . S
C1173 C419 1.526 . S
C1187 C89 1.532 . S
C1191 C578 1.459 . S
C1205 C9 1.516 . S
C1209 C498 1.513 . S
C1223 C19 2.030 . S
C1227 C179 2.036 . S
C1241 C58 1.740 . S
C1245 C218 1.743 . S
C1259 C99 1.733 . S
C1263 C259 1.738 . S
C1277 C138 1.452 . S
C1281 C298 1.429 . S
C1295 C490 2.000 . S
C1299 C330 1.990 . S
C1313 C530 1.636 . S
C1317 C369 1.617 . S
C1331 C409 1.962 . S
C1335 C570 1.961 . S
C1349 C609 1.481 . S
C1353 C449 1.503 . S
C1367 C59 2.032 . S
C1371 C299 2.027 . S
C1385 C178 1.747 . S
C1389 C98 1.740 . S
C1403 C219 1.733 . S
C1407 C139 1.740 . S
C1421 C18 1.429 . S
C1425 C258 1.451 . S
C1439 C610 1.994 . S
C1443 C370 1.998 . S
C1457 C489 1.626 . S
C1461 C410 1.642 . S
C1475 C529 1.963 . S
C1479 C450 1.962 . S
C1493 C569 1.496 . S
C1497 C329 1.482 . S
