# Generated by pormake.
# Topology sml, (6)-cn, num edge types: 1
# Building blocks:
#     Node 0, Type 0, BuildingBlock: PAMTUU_clean_sbu_0, # of connection points: 6
#     Node 1, Type 0, BuildingBlock: PAMTUU_clean_sbu_0, # of connection points: 6
#     Node 2, Type 0, BuildingBlock: PAMTUU_clean_sbu_0, # of connection points: 6
#     Node 3, Type 0, BuildingBlock: PAMTUU_clean_sbu_0, # of connection points: 6
#     Node 4, Type 0, BuildingBlock: PAMTUU_clean_sbu_0, # of connection points: 6
#     Node 5, Type 0, BuildingBlock: PAMTUU_clean_sbu_0, # of connection points: 6
#     Edge 6, Type (0, 0), BuildingBlock: UVAHIK_clean_linker_0, # of connection points: 2
#     Edge 7, Type (0, 0), BuildingBlock: UVAHIK_clean_linker_0, # of connection points: 2
#     Edge 8, Type (0, 0), BuildingBlock: UVAHIK_clean_linker_0, # of connection points: 2
#     Edge 9, Type (0, 0), BuildingBlock: UVAHIK_clean_linker_0, # of connection points: 2
#     Edge 10, Type (0, 0), BuildingBlock: UVAHIK_clean_linker_0, # of connection points: 2
#     Edge 11, Type (0, 0), BuildingBlock: UVAHIK_clean_linker_0, # of connection points: 2
#     Edge 12, Type (0, 0), BuildingBlock: UVAHIK_clean_linker_0, # of connection points: 2
#     Edge 13, Type (0, 0), BuildingBlock: UVAHIK_clean_linker_0, # of connection points: 2
#     Edge 14, Type (0, 0), BuildingBlock: UVAHIK_clean_linker_0, # of connection points: 2
#     Edge 15, Type (0, 0), BuildingBlock: UVAHIK_clean_linker_0, # of connection points: 2
#     Edge 16, Type (0, 0), BuildingBlock: UVAHIK_clean_linker_0, # of connection points: 2
#     Edge 17, Type (0, 0), BuildingBlock: UVAHIK_clean_linker_0, # of connection points: 2
#     Edge 18, Type (0, 0), BuildingBlock: UVAHIK_clean_linker_0, # of connection points: 2
#     Edge 19, Type (0, 0), BuildingBlock: UVAHIK_clean_linker_0, # of connection points: 2
#     Edge 20, Type (0, 0), BuildingBlock: UVAHIK_clean_linker_0, # of connection points: 2
#     Edge 21, Type (0, 0), BuildingBlock: UVAHIK_clean_linker_0, # of connection points: 2
#     Edge 22, Type (0, 0), BuildingBlock: UVAHIK_clean_linker_0, # of connection points: 2
#     Edge 23, Type (0, 0), BuildingBlock: UVAHIK_clean_linker_0, # of connection points: 2
# Relax obj value: 0.156
# Max RMSD: 0.212
# Mean RMSD: 0.212
data_MOF--net-sml--node1-PAMTUU_clean_sbu_0--edge1-UVAHIK_clean_linker_0
_symmetry_space_group_name_H-M    P1
_symmetry_Int_Tables_number       1
_symmetry_cell_setting            triclinic
loop_
_symmetry_equiv_pos_as_xyz
'x, y, z'
_cell_length_a     44.961486
_cell_length_b     45.048825
_cell_length_c     29.487438
_cell_angle_alpha  89.980172
_cell_angle_beta   89.872386
_cell_angle_gamma 120.09493
loop_
_atom_site_label
_atom_site_type_symbol
_atom_site_fract_x
_atom_site_fract_y
_atom_site_fract_z
_atom_type_partial_charge
Tb0 Tb 0.22403 0.41844 0.06494 0.0
Tb1 Tb 0.17666 0.41471 0.97475 0.0
C2 C 0.25752 0.46014 0.97641 0.0
C3 C 0.25044 0.42447 0.18541 0.0
C4 C 0.23851 0.42695 0.27928 0.0
C5 C 0.26854 0.4277 0.26376 0.0
C6 C 0.27439 0.42643 0.21733 0.0
C7 C 0.22069 0.42426 0.20047 0.0
C8 C 0.21477 0.4255 0.24693 0.0
C9 C 0.25611 0.4214 0.13678 0.0
O10 O 0.21404 0.46077 0.06857 0.0
O11 O 0.16381 0.43953 0.028 0.0
O12 O 0.14391 0.37118 0.01794 0.0
O13 O 0.17085 0.39222 0.08631 0.0
O14 O 0.16266 0.44042 0.92735 0.0
O15 O 0.14158 0.38571 0.92364 0.0
O16 O 0.20435 0.3891 0.95567 0.0
O17 O 0.2152 0.37387 0.02574 0.0
O18 O 0.26053 0.44253 1.00983 0.0
O19 O 0.22815 0.45813 0.96612 0.0
C20 C 0.18518 0.46006 0.05893 0.0
O21 O 0.23348 0.3929 0.11756 0.0
O22 O 0.26338 0.44795 0.11146 0.0
C23 C 0.14421 0.37032 0.0625 0.0
C24 C 0.15339 0.41571 0.85451 0.0
C25 C 0.16896 0.41996 0.76084 0.0
C26 C 0.13787 0.41712 0.77591 0.0
C27 C 0.13019 0.41501 0.82228 0.0
C28 C 0.1845 0.4187 0.83983 0.0
C29 C 0.19222 0.42081 0.79347 0.0
C30 C 0.14479 0.41282 0.90319 0.0
C31 C 0.21127 0.36973 0.98162 0.0
H32 H 0.28766 0.42939 0.28752 0.0
H33 H 0.29753 0.42668 0.20634 0.0
H34 H 0.20182 0.42265 0.1763 0.0
H35 H 0.19121 0.4245 0.25751 0.0
H36 H 0.11914 0.41591 0.75184 0.0
H37 H 0.10599 0.41257 0.83297 0.0
H38 H 0.20276 0.41929 0.86425 0.0
H39 H 0.21657 0.42343 0.78324 0.0
Tb40 Tb 0.79854 0.22701 0.39002 0.0
Tb41 Tb 0.75502 0.18312 0.29897 0.0
C42 C 0.79076 0.26205 0.30305 0.0
C43 C 0.82363 0.25091 0.50972 0.0
C44 C 0.81235 0.23623 0.6034 0.0
C45 C 0.84056 0.26722 0.58804 0.0
C46 C 0.8461 0.27447 0.54162 0.0
C47 C 0.79561 0.21985 0.5247 0.0
C48 C 0.79 0.21258 0.5711 0.0
C49 C 0.82916 0.25911 0.46104 0.0
O50 O 0.74546 0.19756 0.41058 0.0
O51 O 0.72033 0.19213 0.34115 0.0
O52 O 0.74223 0.14459 0.35083 0.0
O53 O 0.7881 0.17478 0.3993 0.0
O54 O 0.72121 0.17832 0.24687 0.0
O55 O 0.74133 0.14386 0.25093 0.0
O56 O 0.80531 0.18765 0.29549 0.0
O57 O 0.83661 0.23629 0.33835 0.0
O58 O 0.78821 0.26041 0.34744 0.0
O59 O 0.78736 0.2361 0.27914 0.0
C60 C 0.719 0.19177 0.38574 0.0
O61 O 0.83846 0.24083 0.43701 0.0
O62 O 0.80525 0.26246 0.44082 0.0
C63 C 0.76181 0.14595 0.38473 0.0
C64 C 0.73273 0.15973 0.17803 0.0
C65 C 0.74756 0.17121 0.08436 0.0
C66 C 0.71767 0.14172 0.09978 0.0
C67 C 0.71033 0.13609 0.14616 0.0
C68 C 0.76284 0.18894 0.16306 0.0
C69 C 0.77018 0.19466 0.11666 0.0
C70 C 0.72401 0.15413 0.22659 0.0
C71 C 0.83474 0.21392 0.30823 0.0
H72 H 0.85802 0.28618 0.61194 0.0
H73 H 0.86778 0.29863 0.53064 0.0
H74 H 0.77801 0.20129 0.50048 0.0
H75 H 0.7683 0.1883 0.58166 0.0
H76 H 0.69996 0.12284 0.076 0.0
H77 H 0.68703 0.11334 0.15714 0.0
H78 H 0.78044 0.20752 0.18725 0.0
H79 H 0.79321 0.21781 0.10608 0.0
Tb80 Tb 0.56693 0.78696 0.71323 0.0
Tb81 Tb 0.57593 0.74875 0.62185 0.0
C82 C 0.52119 0.77163 0.6259 0.0
C83 C 0.5627 0.80653 0.83446 0.0
C84 C 0.56881 0.79622 0.92767 0.0
C85 C 0.56095 0.8213 0.91324 0.0
C86 C 0.55789 0.82635 0.86706 0.0
C87 C 0.57088 0.78171 0.8485 0.0
C88 C 0.57385 0.77655 0.8947 0.0
C89 C 0.55843 0.8114 0.78609 0.0
O90 O 0.5545 0.73561 0.73218 0.0
O91 O 0.53423 0.71038 0.66347 0.0
O92 O 0.60861 0.74617 0.67387 0.0
O93 O 0.61766 0.79276 0.71631 0.0
O94 O 0.55223 0.71133 0.57133 0.0
O95 O 0.60745 0.74235 0.57473 0.0
O96 O 0.61095 0.8034 0.61305 0.0
O97 O 0.58816 0.82689 0.66225 0.0
O98 O 0.52196 0.77126 0.67048 0.0
O99 O 0.54459 0.77013 0.60104 0.0
C100 C 0.53476 0.70852 0.70784 0.0
O101 O 0.5865 0.82634 0.7619 0.0
O102 O 0.53405 0.78476 0.76538 0.0
C103 C 0.62638 0.77021 0.70383 0.0
C104 C 0.58235 0.72739 0.50222 0.0
C105 C 0.58236 0.73962 0.40826 0.0
C106 C 0.58699 0.71276 0.42428 0.0
C107 C 0.58695 0.70671 0.47083 0.0
C108 C 0.5781 0.75446 0.48662 0.0
C109 C 0.57808 0.76052 0.44007 0.0
C110 C 0.58127 0.72013 0.55102 0.0
C111 C 0.60844 0.82949 0.62843 0.0
H112 H 0.55649 0.83659 0.9377 0.0
H113 H 0.55144 0.84554 0.8568 0.0
H114 H 0.5748 0.76622 0.82372 0.0
H115 H 0.58033 0.75733 0.90458 0.0
H116 H 0.59088 0.6965 0.40085 0.0
H117 H 0.59036 0.68576 0.48232 0.0
H118 H 0.57444 0.77067 0.51045 0.0
H119 H 0.57404 0.78115 0.42901 0.0
Tb120 Tb 0.75712 0.57591 0.04385 0.0
Tb121 Tb 0.79663 0.5684 0.9527 0.0
C122 C 0.71759 0.53542 0.95696 0.0
C123 C 0.73595 0.58042 0.16456 0.0
C124 C 0.74926 0.58115 0.25829 0.0
C125 C 0.72034 0.58253 0.24291 0.0
C126 C 0.71376 0.58214 0.1965 0.0
C127 C 0.76505 0.57944 0.1795 0.0
C128 C 0.77166 0.5798 0.22594 0.0
C129 C 0.728 0.57871 0.11592 0.0
O130 O 0.78309 0.54875 0.06427 0.0
O131 O 0.78082 0.52358 0.99603 0.0
O132 O 0.83612 0.59241 1.00397 0.0
O133 O 0.81067 0.61583 0.04792 0.0
O134 O 0.79644 0.53594 0.90157 0.0
O135 O 0.83683 0.58889 0.90483 0.0
O136 O 0.79719 0.61663 0.94541 0.0
O137 O 0.75245 0.60784 0.99286 0.0
O138 O 0.71886 0.53482 1.00144 0.0
O139 O 0.74513 0.5543 0.93268 0.0
C140 C 0.78376 0.52464 0.04038 0.0
O141 O 0.74862 0.60549 0.09173 0.0
O142 O 0.72108 0.55026 0.09565 0.0
C143 C 0.83784 0.61435 0.03471 0.0
C144 C 0.81809 0.56473 0.83232 0.0
C145 C 0.808 0.57024 0.73885 0.0
C146 C 0.83489 0.56524 0.75383 0.0
C147 C 0.83982 0.56245 0.80015 0.0
C148 C 0.79149 0.57015 0.81771 0.0
C149 C 0.78643 0.57279 0.7714 0.0
C150 C 0.82287 0.5608 0.88087 0.0
C151 C 0.77474 0.62488 0.96048 0.0
H152 H 0.70284 0.58412 0.26676 0.0
H153 H 0.69121 0.58298 0.18554 0.0
H154 H 0.78243 0.578 0.15525 0.0
H155 H 0.79393 0.57831 0.23648 0.0
H156 H 0.85172 0.56279 0.72969 0.0
H157 H 0.86044 0.5582 0.81083 0.0
H158 H 0.77453 0.57215 0.84212 0.0
H159 H 0.76578 0.57708 0.76111 0.0
Tb160 Tb 0.16385 0.74962 0.4105 0.0
Tb161 Tb 0.20693 0.79232 0.31839 0.0
C162 C 0.16834 0.71293 0.32271 0.0
C163 C 0.13931 0.72693 0.53082 0.0
C164 C 0.15084 0.74211 0.62413 0.0
C165 C 0.12242 0.71118 0.60934 0.0
C166 C 0.11676 0.70367 0.56307 0.0
C167 C 0.16754 0.75796 0.54522 0.0
C168 C 0.17328 0.76548 0.59149 0.0
C169 C 0.13361 0.71843 0.48236 0.0
O170 O 0.21748 0.77801 0.42891 0.0
O171 O 0.24027 0.78048 0.35859 0.0
O172 O 0.22042 0.8308 0.37022 0.0
O173 O 0.1736 0.80171 0.41771 0.0
O174 O 0.24086 0.79736 0.26609 0.0
O175 O 0.22095 0.83197 0.27079 0.0
O176 O 0.15643 0.78739 0.31504 0.0
O177 O 0.12554 0.7393 0.35915 0.0
O178 O 0.17103 0.71446 0.36713 0.0
O179 O 0.17408 0.73959 0.29835 0.0
C180 C 0.24267 0.78137 0.40301 0.0
O181 O 0.12437 0.73667 0.45817 0.0
O182 O 0.15738 0.71478 0.4621 0.0
C183 C 0.20014 0.8302 0.40275 0.0
C184 C 0.22982 0.81671 0.19771 0.0
C185 C 0.21535 0.80603 0.1041 0.0
C186 C 0.2455 0.83508 0.11961 0.0
C187 C 0.25266 0.84031 0.16599 0.0
C188 C 0.19945 0.78795 0.18265 0.0
C189 C 0.19229 0.78263 0.13625 0.0
C190 C 0.23831 0.82183 0.24621 0.0
C191 C 0.12714 0.7608 0.32781 0.0
H192 H 0.1049 0.69245 0.63356 0.0
H193 H 0.09491 0.67955 0.55248 0.0
H194 H 0.18518 0.77628 0.52067 0.0
H195 H 0.19515 0.7897 0.60168 0.0
H196 H 0.26354 0.85391 0.09591 0.0
H197 H 0.27616 0.86271 0.17709 0.0
H198 H 0.18152 0.76941 0.20675 0.0
H199 H 0.16905 0.75981 0.12556 0.0
Tb200 Tb 0.40144 0.18159 0.72062 0.0
Tb201 Tb 0.40075 0.2252 0.62963 0.0
C202 C 0.44354 0.18849 0.6322 0.0
C203 C 0.40067 0.15781 0.84117 0.0
C204 C 0.39743 0.16954 0.93472 0.0
C205 C 0.3991 0.14074 0.91971 0.0
C206 C 0.40075 0.13498 0.87336 0.0
C207 C 0.39868 0.18641 0.8558 0.0
C208 C 0.39712 0.19226 0.90214 0.0
C209 C 0.4033 0.15198 0.79257 0.0
O210 O 0.42466 0.23474 0.74036 0.0
O211 O 0.44499 0.25947 0.67085 0.0
O212 O 0.3751 0.237 0.68278 0.0
O213 O 0.35729 0.18873 0.72678 0.0
O214 O 0.42919 0.25977 0.57768 0.0
O215 O 0.37433 0.23863 0.58259 0.0
O216 O 0.35615 0.17411 0.62485 0.0
O217 O 0.37318 0.14324 0.66951 0.0
O218 O 0.44408 0.18969 0.67677 0.0
O219 O 0.42216 0.19398 0.60861 0.0
C220 C 0.44566 0.26106 0.71537 0.0
O221 O 0.37557 0.14225 0.76866 0.0
O222 O 0.43048 0.17582 0.77188 0.0
C223 C 0.35519 0.21565 0.71437 0.0
C224 C 0.39865 0.24804 0.5093 0.0
C225 C 0.3958 0.23378 0.41555 0.0
C226 C 0.39737 0.26412 0.43099 0.0
C227 C 0.39882 0.27117 0.47742 0.0
C228 C 0.39656 0.21749 0.4943 0.0
C229 C 0.39517 0.21042 0.44787 0.0
C230 C 0.4018 0.2565 0.55791 0.0
C231 C 0.35327 0.14495 0.63831 0.0
H232 H 0.39982 0.12297 0.94382 0.0
H233 H 0.40239 0.11283 0.86267 0.0
H234 H 0.39846 0.20427 0.83136 0.0
H235 H 0.39541 0.21443 0.91244 0.0
H236 H 0.39733 0.28243 0.4072 0.0
H237 H 0.40035 0.29485 0.48841 0.0
H238 H 0.39647 0.19933 0.51849 0.0
H239 H 0.39438 0.18702 0.4373 0.0
C240 C 0.30854 0.20034 0.77163 0.0
C241 C 0.33141 0.22341 0.73915 0.0
C242 C 0.2879 0.20892 0.79744 0.0
C243 C 0.25621 0.27057 0.80317 0.0
H244 H 0.25218 0.25381 0.93267 0.0
C245 C 0.19691 0.32724 0.92021 0.0
C246 C 0.21581 0.34316 0.95941 0.0
C247 C 0.20347 0.30471 0.89575 0.0
C248 C 0.25311 0.25871 0.89659 0.0
H249 H 0.35001 0.27321 0.7076 0.0
H250 H 0.31471 0.28844 0.75314 0.0
H251 H 0.27851 0.23031 0.88278 0.0
H252 H 0.25511 0.34706 1.00532 0.0
H253 H 0.26799 0.30896 0.96132 0.0
H254 H 0.23323 0.30098 0.81691 0.0
C255 C 0.31212 0.26343 0.75813 0.0
C256 C 0.26777 0.24485 0.86792 0.0
C257 C 0.33257 0.25479 0.73219 0.0
C258 C 0.24024 0.335 0.97511 0.0
C259 C 0.24739 0.313 0.95004 0.0
C260 C 0.24196 0.28472 0.83178 0.0
C261 C 0.28982 0.24076 0.79137 0.0
C262 C 0.27024 0.25139 0.82103 0.0
C263 C 0.22969 0.29835 0.90937 0.0
C264 C 0.24089 0.27958 0.87895 0.0
H265 H 0.30691 0.17584 0.77763 0.0
H266 H 0.27066 0.19076 0.82241 0.0
H267 H 0.25717 0.27555 0.7671 0.0
H268 H 0.17744 0.33269 0.90796 0.0
H269 H 0.18868 0.29313 0.86536 0.0
C270 C 0.0849 0.31894 0.06368 0.0
C271 C 0.11295 0.34525 0.087 0.0
C272 C 0.05484 0.29636 0.087 0.0
C273 C 0.01888 0.26786 0.20321 0.0
H274 H 0.93428 0.25235 0.14735 0.0
C275 C 0.89877 0.24397 0.30225 0.0
C276 C 0.86639 0.21986 0.28517 0.0
C277 C 0.92859 0.25163 0.27834 0.0
C278 C 0.95759 0.25587 0.16307 0.0
H279 H 0.13181 0.36797 0.15324 0.0
H280 H 0.07931 0.32945 0.19341 0.0
H281 H -0.01254 0.27984 0.10383 0.0
H282 H 0.83986 0.18394 0.23043 0.0
H283 H 0.89205 0.19775 0.18847 0.0
H284 H -0.01098 0.24554 0.26333 0.0
C285 C 0.08063 0.32561 0.15738 0.0
C286 C -0.01193 0.27155 0.13812 0.0
C287 C 0.11069 0.34797 0.13419 0.0
C288 C 0.86445 0.20268 0.24451 0.0
C289 C 0.89425 0.2106 0.22038 0.0
C290 C -0.01158 0.25248 0.2283 0.0
C291 C 0.0522 0.29981 0.13401 0.0
C292 C 0.01923 0.27855 0.15829 0.0
C293 C 0.92652 0.23553 0.23673 0.0
C294 C 0.9577 0.24712 0.20874 0.0
H295 H 0.08601 0.31596 0.02737 0.0
H296 H 0.03353 0.27644 0.06813 0.0
H297 H 0.04234 0.27225 0.21941 0.0
H298 H 0.90108 0.25748 0.33361 0.0
H299 H 0.95317 0.27122 0.29144 0.0
C300 C 0.73363 0.08218 0.38872 0.0
C301 C 0.75222 0.11425 0.41 0.0
C302 C 0.72246 0.05206 0.41362 0.0
C303 C 0.69257 0.01732 0.52383 0.0
H304 H 0.71174 0.94528 0.49067 0.0
C305 C 0.63872 0.8934 0.62902 0.0
C306 C 0.62827 0.86274 0.60538 0.0
C307 C 0.6572 0.92491 0.60685 0.0
C308 C 0.70572 0.96491 0.50006 0.0
H309 H 0.77402 0.14017 0.47367 0.0
H310 H 0.75348 0.08728 0.51745 0.0
H311 H 0.73802 -0.00119 0.44756 0.0
H312 H 0.62837 0.84065 0.54013 0.0
H313 H 0.65905 0.89539 0.50082 0.0
H314 H 0.65885 0.98324 0.57454 0.0
C315 C 0.74812 0.08563 0.48145 0.0
C316 C 0.72101 -0.00442 0.47557 0.0
C317 C 0.75993 0.11576 0.45638 0.0
C318 C 0.6365 0.86401 0.55924 0.0
C319 C 0.65431 0.89545 0.53682 0.0
C320 C 0.67672 0.98643 0.54773 0.0
C321 C 0.72911 0.05363 0.46028 0.0
C322 C 0.71444 0.0219 0.48726 0.0
C323 C 0.66491 0.92633 0.56032 0.0
C324 C 0.68295 0.95974 0.53604 0.0
H325 H 0.72744 0.08039 0.35297 0.0
H326 H 0.70762 0.02754 0.39681 0.0
H327 H 0.6869 0.03726 0.53298 0.0
H328 H 0.63295 0.89305 0.66478 0.0
H329 H 0.66552 0.94813 0.62631 0.0
C330 C 0.66683 0.7877 0.76914 0.0
C331 C 0.65491 0.76993 0.72792 0.0
C332 C 0.69043 0.7838 0.79528 0.0
C333 C 0.75199 0.75308 0.79765 0.0
H334 H 0.70874 0.71172 0.91235 0.0
C335 C 0.77918 0.658 0.89094 0.0
C336 C 0.77281 0.65279 0.93765 0.0
C337 C 0.77362 0.68189 0.86812 0.0
C338 C 0.72199 0.72412 0.88126 0.0
H339 H 0.66031 0.73636 0.68007 0.0
H340 H 0.70185 0.72974 0.72588 0.0
H341 H 0.68438 0.73823 0.86552 0.0
H342 H 0.75849 0.67001 0.99804 0.0
H343 H 0.75054 0.71316 0.95877 0.0
H344 H 0.78955 0.73879 0.81315 0.0
C345 C 0.6928 0.74658 0.73782 0.0
C346 C 0.70781 0.73919 0.85428 0.0
C347 C 0.66881 0.75009 0.71188 0.0
C348 C 0.76296 0.67327 0.96179 0.0
C349 C 0.75829 0.69783 0.93919 0.0
C350 C 0.76668 0.7386 0.82512 0.0
C351 C 0.70287 0.7625 0.78036 0.0
C352 C 0.72201 0.75274 0.81166 0.0
C353 C 0.76233 0.70158 0.89179 0.0
C354 C 0.75107 0.72277 0.86652 0.0
H355 H 0.65668 0.80326 0.78242 0.0
H356 H 0.69792 0.79631 0.82801 0.0
H357 H 0.76344 0.76365 0.76494 0.0
H358 H 0.78668 0.64234 0.8716 0.0
H359 H 0.77647 0.68349 0.8316 0.0
C360 C 0.06499 0.72189 0.31087 0.0
C361 C 0.09603 0.75213 0.3014 0.0
C362 C 0.03713 0.71071 0.28158 0.0
C363 C 0.00062 0.73609 0.188 0.0
H364 H 0.95967 0.6402 0.1546 0.0
C365 C 0.89878 0.63122 0.05159 0.0
C366 C 0.87056 0.63604 0.05843 0.0
C367 C 0.92829 0.64905 0.07795 0.0
C368 C 0.97111 0.6671 0.16319 0.0
H369 H 0.12145 0.79555 0.25537 0.0
H370 H 0.07269 0.77585 0.20426 0.0
H371 H 0.0058 0.66444 0.21013 0.0
H372 H 0.85189 0.66478 0.09644 0.0
H373 H 0.90328 0.69561 0.14249 0.0
H374 H 0.96583 0.73863 0.14074 0.0
C375 C 0.06999 0.76087 0.23434 0.0
C376 C -0.00287 0.68084 0.19546 0.0
C377 C 0.09792 0.77206 0.26359 0.0
C378 C 0.87311 0.66029 0.0905 0.0
C379 C 0.90263 0.67818 0.1167 0.0
C380 C 0.97439 0.72227 0.15579 0.0
C381 C 0.03975 0.72958 0.24238 0.0
C382 C 0.01196 0.71536 0.20841 0.0
C383 C 0.93013 0.67209 0.11143 0.0
C384 C 0.95935 0.68761 0.14324 0.0
H385 H 0.06257 0.70609 0.3399 0.0
H386 H 0.01381 0.68679 0.28895 0.0
H387 H 0.01168 0.7628 0.19744 0.0
H388 H 0.89771 0.61286 0.02699 0.0
H389 H 0.94938 0.64425 0.07284 0.0
C390 C 0.31647 0.08125 0.63542 0.0
C391 C 0.32873 0.11337 0.61463 0.0
C392 C 0.29569 0.05121 0.6113 0.0
C393 C 0.28651 0.01858 0.49966 0.0
H394 H 0.19993 0.94158 0.54 0.0
C395 C 0.22362 0.89319 0.39923 0.0
C396 C 0.20826 0.86269 0.42445 0.0
C397 C 0.23284 0.92435 0.4202 0.0
C398 C 0.22426 0.96271 0.52848 0.0
H399 H 0.32829 0.13946 0.55293 0.0
H400 H 0.29276 0.08674 0.51041 0.0
H401 H 0.22588 -0.00468 0.58263 0.0
H402 H 0.18998 0.84033 0.49091 0.0
H403 H 0.20784 0.89488 0.52827 0.0
H404 H 0.28664 0.98596 0.44759 0.0
C405 C 0.29883 0.08498 0.5455 0.0
C406 C 0.23887 -0.00655 0.5527 0.0
C407 C 0.31904 0.11501 0.56985 0.0
C408 C 0.20165 0.86361 0.47075 0.0
C409 C 0.21166 0.89488 0.49202 0.0
C410 C 0.27236 0.98773 0.47604 0.0
C411 C 0.28747 0.05292 0.56587 0.0
C412 C 0.2702 0.02145 0.53857 0.0
C413 C 0.22776 0.92572 0.46709 0.0
C414 C 0.24121 0.95925 0.49037 0.0
H415 H 0.32346 0.07935 0.66999 0.0
H416 H 0.28738 0.02665 0.62743 0.0
H417 H 0.311 0.0398 0.48864 0.0
H418 H 0.22846 0.89295 0.36326 0.0
H419 H 0.24432 0.94739 0.39964 0.0
C420 C 0.19278 0.40414 0.6934 0.0
C421 C 0.17689 0.42169 0.71133 0.0
C422 C 0.19981 0.40539 0.64692 0.0
C423 C 0.17471 0.42406 0.53519 0.0
H424 H 0.25964 0.43019 0.49436 0.0
C425 C 0.21669 0.44562 0.34621 0.0
C426 C 0.23176 0.42709 0.32893 0.0
C427 C 0.21026 0.44552 0.39276 0.0
C428 C 0.23562 0.42811 0.50512 0.0
H429 H 0.15662 0.45495 0.69411 0.0
H430 H 0.16889 0.45717 0.61321 0.0
H431 H 0.24812 0.42906 0.57534 0.0
H432 H 0.2512 0.39335 0.34746 0.0
H433 H 0.24013 0.39329 0.42834 0.0
H434 H 0.16222 0.42308 0.46493 0.0
C435 C 0.17541 0.44192 0.635 0.0
C436 C 0.22899 0.42745 0.55165 0.0
C437 C 0.16837 0.44066 0.68148 0.0
C438 C 0.24018 0.40845 0.35951 0.0
C439 C 0.2338 0.40839 0.40602 0.0
C440 C 0.18136 0.42475 0.48865 0.0
C441 C 0.19117 0.42425 0.61703 0.0
C442 C 0.19841 0.42533 0.56736 0.0
C443 C 0.21875 0.42692 0.42331 0.0
C444 C 0.21186 0.42669 0.47295 0.0
H445 H 0.19922 0.38882 0.71517 0.0
H446 H 0.21146 0.39101 0.63429 0.0
H447 H 0.15065 0.42188 0.54594 0.0
H448 H 0.2103 0.46066 0.32385 0.0
H449 H 0.1991 0.46048 0.40488 0.0
C450 C 0.78844 0.19163 0.0178 0.0
C451 C 0.75477 0.17766 0.03482 0.0
C452 C 0.79509 0.1977 0.9713 0.0
C453 C 0.75273 0.17239 0.85915 0.0
H454 H 0.8325 0.25635 0.81777 0.0
C455 C 0.77254 0.21357 0.67071 0.0
C456 C 0.80606 0.22884 0.65287 0.0
C457 C 0.76664 0.20703 0.71722 0.0
C458 C 0.81034 0.23256 0.82871 0.0
H459 H 0.70183 0.15984 0.01601 0.0
H460 H 0.71339 0.17023 0.9351 0.0
H461 H 0.82172 0.24554 0.89887 0.0
H462 H 0.85961 0.24859 0.67009 0.0
H463 H 0.84932 0.23707 0.75114 0.0
H464 H 0.74135 0.15935 0.78908 0.0
C465 C 0.7346 0.17599 0.95764 0.0
C466 C 0.80415 0.22637 0.87526 0.0
C467 C 0.72797 0.17 1.0041 0.0
C468 C 0.83352 0.23727 0.68274 0.0
C469 C 0.82761 0.23068 0.72926 0.0
C470 C 0.75895 0.17853 0.81263 0.0
C471 C 0.76823 0.18989 0.94062 0.0
C472 C 0.77519 0.19626 0.89107 0.0
C473 C 0.79409 0.21553 0.74714 0.0
C474 C 0.78777 0.20876 0.79676 0.0
H475 H 0.80965 0.19741 0.04034 0.0
H476 H 0.82123 0.20801 0.95929 0.0
H477 H 0.73049 0.14867 0.87013 0.0
H478 H 0.75085 0.20724 0.64883 0.0
H479 H 0.74056 0.19586 0.72983 0.0
C480 C 0.56492 0.71767 0.32862 0.0
C481 C 0.58158 0.74553 0.35862 0.0
C482 C 0.56398 0.72313 0.28208 0.0
C483 C 0.60722 0.78861 0.19199 0.0
H484 H 0.52364 0.73098 0.12483 0.0
C485 C 0.58752 0.8182 1.007 0.0
C486 C 0.57128 0.79037 0.9769 0.0
C487 C 0.58928 0.81269 0.05337 0.0
C488 C 0.54731 0.74706 0.14296 0.0
H489 H 0.61065 0.80107 0.36279 0.0
H490 H 0.60836 0.81059 0.2818 0.0
H491 H 0.52562 0.72161 0.20591 0.0
H492 H 0.54399 0.73485 0.97218 0.0
H493 H 0.54744 0.72525 0.05296 0.0
H494 H 0.62882 0.81417 0.129 0.0
C495 C 0.59634 0.78447 0.29422 0.0
C496 C 0.54846 0.74168 0.1895 0.0
C497 C 0.5973 0.779 0.34079 0.0
C498 C 0.55698 0.75688 0.99432 0.0
C499 C 0.55861 0.75136 0.04073 0.0
C500 C 0.60604 0.79403 0.14546 0.0
C501 C 0.57963 0.75659 0.26425 0.0
C502 C 0.57843 0.76237 0.21464 0.0
C503 C 0.57472 0.7792 0.07086 0.0
C504 C 0.57607 0.77332 0.12035 0.0
H505 H 0.55219 0.69154 0.34115 0.0
H506 H 0.55121 0.70104 0.26 0.0
H507 H 0.63091 0.80468 0.21008 0.0
H508 H 0.5991 0.84433 0.99468 0.0
H509 H 0.6016 0.8347 0.07565 0.0
C510 C 0.76878 0.55562 0.67154 0.0
C511 C 0.80224 0.57236 0.68949 0.0
C512 C 0.76336 0.55714 0.62509 0.0
C513 C 0.80776 0.57523 0.51367 0.0
H514 H 0.73024 0.58336 0.4728 0.0
C515 C 0.78928 0.59901 0.32535 0.0
C516 C 0.75572 0.58066 0.30782 0.0
C517 C 0.79523 0.59844 0.37185 0.0
C518 C 0.75182 0.58074 0.48361 0.0
H519 H 0.8562 0.60442 0.67261 0.0
H520 H 0.84678 0.60732 0.5917 0.0
H521 H 0.74011 0.58179 0.55378 0.0
H522 H 0.70221 0.54676 0.32567 0.0
H523 H 0.71258 0.54592 0.40659 0.0
H524 H 0.81949 0.57428 0.44342 0.0
C525 C 0.82471 0.59243 0.61339 0.0
C526 C 0.75748 0.57981 0.5301 0.0
C527 C 0.83013 0.59082 0.65983 0.0
C528 C 0.72831 0.56171 0.33801 0.0
C529 C 0.73426 0.5612 0.38447 0.0
C530 C 0.80215 0.57625 0.46716 0.0
C531 C 0.79126 0.57554 0.59536 0.0
C532 C 0.78547 0.57695 0.54578 0.0
C533 C 0.76779 0.57956 0.40201 0.0
C534 C 0.77405 0.57892 0.45153 0.0
H535 H 0.74675 0.54073 0.69329 0.0
H536 H 0.73729 0.54333 0.61239 0.0
H537 H 0.82925 0.57245 0.52441 0.0
H538 H 0.81095 0.61428 0.30324 0.0
H539 H 0.82133 0.61326 0.38426 0.0
C540 C 0.19075 0.76446 0.69097 0.0
C541 C 0.15726 0.74973 0.67341 0.0
C542 C 0.19672 0.77104 0.73738 0.0
C543 C 0.15288 0.7461 0.84894 0.0
H544 H 0.23343 0.82927 0.88999 0.0
C545 C 0.17481 0.78683 0.03764 0.0
C546 C 0.20831 0.79996 0.05461 0.0
C547 C 0.16828 0.78101 0.99116 0.0
C548 C 0.21099 0.80577 0.87909 0.0
H549 H 0.10388 0.73106 0.69088 0.0
H550 H 0.11431 0.74268 0.7718 0.0
H551 H 0.22261 0.8188 0.80896 0.0
H552 H 0.26108 0.81663 0.03583 0.0
H553 H 0.24972 0.80669 0.9549 0.0
H554 H 0.14126 0.73312 0.91913 0.0
C555 C 0.1359 0.74858 0.74979 0.0
C556 C 0.20479 0.79974 0.83262 0.0
C557 C 0.12992 0.74194 0.70338 0.0
C558 C 0.23509 0.80711 0.02391 0.0
C559 C 0.22858 0.80137 0.97747 0.0
C560 C 0.15904 0.75217 0.89543 0.0
C561 C 0.16937 0.76313 0.76742 0.0
C562 C 0.17571 0.76978 0.81693 0.0
C563 C 0.1951 0.78825 0.96051 0.0
C564 C 0.18823 0.78202 0.91107 0.0
H565 H 0.21232 0.77028 0.66894 0.0
H566 H 0.22275 0.78175 0.74984 0.0
H567 H 0.13052 0.72251 0.83809 0.0
H568 H 0.15365 0.7815 0.06019 0.0
H569 H 0.14227 0.77131 0.97915 0.0
C570 C 0.41585 0.25357 0.33563 0.0
C571 C 0.39543 0.22687 0.36599 0.0
C572 C 0.41574 0.24718 0.28919 0.0
C573 C 0.36466 0.18422 0.19973 0.0
H574 H 0.45023 0.2304 0.13218 0.0
C575 C 0.37649 0.14891 0.01416 0.0
C576 C 0.39645 0.17605 0.98413 0.0
C577 C 0.37599 0.15498 0.06064 0.0
C578 C 0.42604 0.21757 0.15041 0.0
H579 H 0.35857 0.17242 0.37086 0.0
H580 H 0.35893 0.16113 0.29004 0.0
H581 H 0.45016 0.24098 0.21321 0.0
H582 H 0.43172 0.23088 0.97972 0.0
H583 H 0.43048 0.24152 0.06061 0.0
H584 H 0.3406 0.1607 0.13686 0.0
C585 C 0.37477 0.18716 0.30211 0.0
C586 C 0.42598 0.22365 0.19693 0.0
C587 C 0.37487 0.19357 0.3486 0.0
C588 C 0.4158 0.20942 1.00177 0.0
C589 C 0.4154 0.21547 0.04826 0.0
C590 C 0.36473 0.17809 0.1532 0.0
C591 C 0.39523 0.21388 0.27178 0.0
C592 C 0.39528 0.20712 0.22223 0.0
C593 C 0.39554 0.18832 0.07832 0.0
C594 C 0.39542 0.19474 0.12791 0.0
H595 H 0.43234 0.27946 0.34778 0.0
H596 H 0.43152 0.26848 0.26685 0.0
H597 H 0.34045 0.17143 0.21791 0.0
H598 H 0.36101 0.12294 1.00171 0.0
H599 H 0.36064 0.13342 0.08283 0.0
C600 C 0.1524 0.49101 0.06936 0.0
C601 C 0.17588 0.48172 0.08589 0.0
C602 C 0.14396 0.51169 0.0954 0.0
C603 C 0.14259 0.53974 0.21157 0.0
H604 H 0.16 0.62523 0.15682 0.0
C605 C 0.16759 0.65723 0.31734 0.0
C606 C 0.15924 0.6808 0.29889 0.0
C607 C 0.16242 0.6288 0.29208 0.0
C608 C 0.15413 0.60116 0.17253 0.0
H609 H 0.20793 0.48556 0.14311 0.0
H610 H 0.19288 0.52127 0.18856 0.0
H611 H 0.16333 0.58236 0.1105 0.0
H612 H 0.1366 0.69204 0.24128 0.0
H613 H 0.12623 0.64179 0.19802 0.0
H614 H 0.13348 0.55841 0.27367 0.0
C615 C 0.18119 0.51277 0.15549 0.0
C616 C 0.15618 0.57668 0.1459 0.0
C617 C 0.19008 0.49268 0.12924 0.0
C618 C 0.14381 0.6745 0.25597 0.0
C619 C 0.13804 0.6458 0.2311 0.0
C620 C 0.14001 0.56401 0.23813 0.0
C621 C 0.15831 0.52269 0.13867 0.0
C622 C 0.15129 0.54618 0.16544 0.0
C623 C 0.14823 0.62313 0.24823 0.0
C624 C 0.14663 0.59542 0.21918 0.0
H625 H 0.141 0.48278 0.03611 0.0
H626 H 0.12624 0.51909 0.08181 0.0
H627 H 0.13839 0.51617 0.22722 0.0
H628 H 0.1796 0.6616 0.35035 0.0
H629 H 0.17099 0.61219 0.30621 0.0
C630 C 0.68573 0.18429 0.45688 0.0
C631 C 0.68714 0.18507 0.40921 0.0
C632 C 0.65643 0.17948 0.4796 0.0
C633 C 0.58221 0.19122 0.46451 0.0
H634 H 0.55023 0.13799 0.57557 0.0
C635 C 0.46438 0.17632 0.56001 0.0
C636 C 0.46787 0.18149 0.60718 0.0
C637 C 0.48852 0.17226 0.53526 0.0
C638 C 0.55902 0.15309 0.54475 0.0
H639 H 0.65844 0.18045 0.34801 0.0
H640 H 0.60699 0.17181 0.38788 0.0
H641 H 0.5968 0.13843 0.53218 0.0
H642 H 0.49878 0.18522 0.66558 0.0
H643 H 0.54136 0.1785 0.62205 0.0
H644 H 0.54493 0.20636 0.47733 0.0
C645 C 0.62884 0.17535 0.40756 0.0
C646 C 0.58562 0.15332 0.51989 0.0
C647 C 0.65824 0.18016 0.38473 0.0
C648 C 0.49541 0.18131 0.62929 0.0
C649 C 0.51969 0.17731 0.60439 0.0
C650 C 0.55563 0.19096 0.4893 0.0
C651 C 0.62778 0.1753 0.45525 0.0
C652 C 0.59774 0.1727 0.47976 0.0
C653 C 0.51678 0.17336 0.557 0.0
C654 C 0.54395 0.17215 0.52989 0.0
H655 H 0.70748 0.18794 0.4769 0.0
H656 H 0.65664 0.18007 0.51632 0.0
H657 H 0.59135 0.20688 0.43419 0.0
H658 H 0.44323 0.17589 0.54189 0.0
H659 H 0.48522 0.1686 0.49892 0.0
C660 C 0.3212 0.49644 0.96431 0.0
C661 C 0.28756 0.48198 0.94763 0.0
C662 C 0.34925 0.51779 0.93662 0.0
C663 C 0.36962 0.56986 0.83108 0.0
H664 H 0.45806 0.57505 0.84183 0.0
C665 C 0.48053 0.65161 0.70929 0.0
C666 C 0.51018 0.67659 0.7315 0.0
C667 C 0.45472 0.62408 0.7336 0.0
C668 C 0.43342 0.57369 0.8385 0.0
H669 H 0.25685 0.47689 0.8884 0.0
H670 H 0.30539 0.51253 0.83977 0.0
H671 H 0.40974 0.53411 0.88859 0.0
H672 H 0.53722 0.69108 0.79578 0.0
H673 H 0.49228 0.64259 0.83798 0.0
H674 H 0.39321 0.60905 0.78057 0.0
C675 C 0.3104 0.50889 0.87464 0.0
C676 C 0.40582 0.5505 0.86547 0.0
C677 C 0.28248 0.48825 0.90249 0.0
C678 C 0.51454 0.67233 0.7778 0.0
C679 C 0.48895 0.64451 0.80193 0.0
C680 C 0.39696 0.59251 0.80369 0.0
C681 C 0.34416 0.5245 0.89147 0.0
C682 C 0.37358 0.54844 0.86227 0.0
C683 C 0.45839 0.62077 0.78032 0.0
C684 C 0.42913 0.5948 0.80732 0.0
H685 H 0.32579 0.49196 0.99902 0.0
H686 H 0.37481 0.52964 0.95098 0.0
H687 H 0.34558 0.56979 0.82837 0.0
H688 H 0.47645 0.65421 0.67366 0.0
H689 H 0.43141 0.60592 0.7162 0.0
C690 C 0.78256 0.31278 0.29656 0.0
C691 C 0.79564 0.29272 0.27873 0.0
C692 C 0.78366 0.33938 0.27079 0.0
C693 C 0.82825 0.40085 0.18203 0.0
H694 H 0.74017 0.39136 0.15007 0.0
C695 C 0.80673 0.50729 0.1055 0.0
C696 C 0.78841 0.49866 0.0645 0.0
C697 C 0.80989 0.48255 0.13004 0.0
C698 C 0.76486 0.39417 0.15871 0.0
H699 H 0.82156 0.28557 0.22122 0.0
H700 H 0.8246 0.33298 0.17696 0.0
H701 H 0.74217 0.34856 0.19951 0.0
H702 H 0.75922 0.45768 0.01674 0.0
H703 H 0.76373 0.41382 0.0609 0.0
H704 H 0.85096 0.44703 0.14224 0.0
C705 C 0.81305 0.32771 0.21043 0.0
C706 C 0.76602 0.36998 0.18713 0.0
C707 C 0.81122 0.30063 0.23567 0.0
C708 C 0.77359 0.46494 0.04816 0.0
C709 C 0.77604 0.43994 0.07337 0.0
C710 C 0.82713 0.4255 0.15445 0.0
C711 C 0.79865 0.34677 0.22742 0.0
C712 C 0.7977 0.37311 0.19884 0.0
C713 C 0.79412 0.44863 0.11452 0.0
C714 C 0.79541 0.42217 0.14242 0.0
H715 H 0.77023 0.30703 0.32953 0.0
H716 H 0.77248 0.35392 0.28444 0.0
H717 H 0.85292 0.40361 0.19066 0.0
H718 H 0.81856 0.53319 0.11869 0.0
H719 H 0.82381 0.48968 0.16181 0.0
C720 C 0.27663 0.78584 0.47225 0.0
C721 C 0.27384 0.78483 0.42472 0.0
C722 C 0.30503 0.78706 0.49309 0.0
C723 C 0.37186 0.76467 0.47298 0.0
H724 H 0.41406 0.82055 0.57952 0.0
C725 C 0.49298 0.77568 0.5551 0.0
C726 C 0.49359 0.77442 0.60272 0.0
C727 C 0.46713 0.77846 0.5329 0.0
C728 C 0.40231 0.80457 0.55005 0.0
H729 H 0.29915 0.78524 0.36177 0.0
H730 H 0.34893 0.78762 0.3983 0.0
H731 H 0.36787 0.82388 0.54088 0.0
H732 H 0.4675 0.77513 0.66437 0.0
H733 H 0.42209 0.77962 0.62545 0.0
H734 H 0.40603 0.74511 0.48233 0.0
C735 C 0.32887 0.78703 0.41936 0.0
C736 C 0.37593 0.80652 0.5279 0.0
C737 C 0.30045 0.78586 0.39846 0.0
C738 C 0.4678 0.77608 0.62766 0.0
C739 C 0.44191 0.77888 0.60539 0.0
C740 C 0.39822 0.76271 0.49513 0.0
C741 C 0.33127 0.78728 0.4669 0.0
C742 C 0.36033 0.78646 0.48926 0.0
C743 C 0.44129 0.78003 0.55778 0.0
C744 C 0.41362 0.78252 0.53401 0.0
H745 H 0.2566 0.78509 0.49354 0.0
H746 H 0.30595 0.78684 0.52978 0.0
H747 H 0.35995 0.74846 0.44375 0.0
H748 H 0.51252 0.77462 0.53478 0.0
H749 H 0.46761 0.77975 0.49621 0.0
C750 C 0.65722 0.48571 0.95508 0.0
C751 C 0.68515 0.5131 0.93283 0.0
C752 C 0.6283 0.46234 0.9305 0.0
C753 C 0.6056 0.42817 0.8151 0.0
H754 H 0.51207 0.38374 0.86064 0.0
C755 C 0.49317 0.32249 0.71339 0.0
C756 C 0.47035 0.29323 0.73839 0.0
C757 C 0.51705 0.35243 0.73563 0.0
C758 C 0.5381 0.39587 0.84758 0.0
H759 H 0.70369 0.53895 0.86803 0.0
H760 H 0.65321 0.49859 0.82556 0.0
H761 H 0.55785 0.4311 0.9032 0.0
H762 H 0.45425 0.27271 0.80642 0.0
H763 H 0.49614 0.32455 0.8449 0.0
H764 H 0.58621 0.39256 0.76017 0.0
C765 C 0.65394 0.4946 0.86168 0.0
C766 C 0.56427 0.42294 0.87194 0.0
C767 C 0.68282 0.51778 0.88611 0.0
C768 C 0.47146 0.29476 0.78603 0.0
C769 C 0.4953 0.32461 0.80819 0.0
C770 C 0.57951 0.40115 0.79081 0.0
C771 C 0.62678 0.46609 0.88333 0.0
C772 C 0.59837 0.4391 0.8562 0.0
C773 C 0.51858 0.35368 0.78328 0.0
C774 C 0.54555 0.38438 0.80708 0.0
H775 H 0.65828 0.48147 0.99106 0.0
H776 H 0.60786 0.44049 0.94811 0.0
H777 H 0.6317 0.43967 0.80243 0.0
H778 H 0.49281 0.32223 0.67666 0.0
H779 H 0.53444 0.37457 0.71552 0.0
loop_
_geom_bond_atom_site_label_1
_geom_bond_atom_site_label_2
_geom_bond_distance
_geom_bond_site_symmetry_2
_ccdc_geom_bond_type
Tb0 C9 2.764 . S
Tb0 O10 2.325 . S
Tb0 O13 2.303 . S
Tb0 O17 2.322 1_554 S
Tb0 O18 2.349 . S
Tb0 O21 2.415 . S
Tb0 O22 2.399 . S
Tb1 O11 2.322 1_556 S
Tb1 O12 2.349 . S
Tb1 O14 2.415 . S
Tb1 O15 2.399 . S
Tb1 O16 2.325 . S
Tb1 O19 2.303 . S
Tb1 C30 2.764 . S
C2 O18 1.261 1_556 S
C2 O19 1.257 . S
C3 C6 1.358 . S
C3 C7 1.332 . S
C3 C9 1.504 . S
C4 C5 1.373 . S
C4 C8 1.308 . S
C5 C4 1.373 . S
C5 C6 1.429 . S
C5 H32 0.932 . S
C6 C3 1.358 . S
C6 C5 1.429 . S
C6 H33 0.930 . S
C7 C3 1.332 . S
C7 C8 1.394 . S
C7 H34 0.932 . S
C8 C4 1.308 . S
C8 C7 1.394 . S
C8 H35 0.929 . S
C9 Tb0 2.764 . S
C9 C3 1.504 . S
C9 O21 1.239 . S
C9 O22 1.263 . S
O10 Tb0 2.325 . S
O10 C20 1.236 . S
O11 Tb1 2.322 1_554 S
O11 C20 1.257 . S
O12 Tb1 2.349 . S
O12 C23 1.261 1_556 S
O13 Tb0 2.303 . S
O13 C23 1.257 . S
O14 Tb1 2.415 . S
O14 C30 1.239 . S
O15 Tb1 2.399 . S
O15 C30 1.263 . S
O16 Tb1 2.325 . S
O16 C31 1.236 . S
O17 Tb0 2.322 1_556 S
O17 C31 1.257 . S
O18 Tb0 2.349 . S
O18 C2 1.261 1_554 S
O19 Tb1 2.303 . S
O19 C2 1.257 . S
C20 O10 1.236 . S
C20 O11 1.257 . S
O21 Tb0 2.415 . S
O21 C9 1.239 . S
O22 Tb0 2.399 . S
O22 C9 1.263 . S
C23 O12 1.261 1_554 S
C23 O13 1.257 . S
C24 C27 1.358 . S
C24 C28 1.332 . S
C24 C30 1.504 . S
C25 C26 1.373 . S
C25 C29 1.308 . S
C26 C25 1.373 . S
C26 C27 1.429 . S
C26 H36 0.932 . S
C27 C24 1.358 . S
C27 C26 1.429 . S
C27 H37 0.930 . S
C28 C24 1.332 . S
C28 C29 1.394 . S
C28 H38 0.932 . S
C29 C25 1.308 . S
C29 C28 1.394 . S
C29 H39 0.929 . S
C30 Tb1 2.764 . S
C30 O14 1.239 . S
C30 O15 1.263 . S
C30 C24 1.504 . S
C31 O16 1.236 . S
C31 O17 1.257 . S
H32 C5 0.932 . S
H33 C6 0.930 . S
H34 C7 0.932 . S
H35 C8 0.929 . S
H36 C26 0.932 . S
H37 C27 0.930 . S
H38 C28 0.932 . S
H39 C29 0.929 . S
Tb40 C49 2.764 . S
Tb40 O50 2.325 . S
Tb40 O53 2.303 . S
Tb40 O57 2.322 . S
Tb40 O58 2.349 . S
Tb40 O61 2.415 . S
Tb40 O62 2.399 . S
Tb41 O51 2.322 . S
Tb41 O52 2.349 . S
Tb41 O54 2.415 . S
Tb41 O55 2.399 . S
Tb41 O56 2.325 . S
Tb41 O59 2.303 . S
Tb41 C70 2.764 . S
C42 O58 1.261 . S
C42 O59 1.257 . S
C43 C46 1.358 . S
C43 C47 1.332 . S
C43 C49 1.504 . S
C44 C45 1.373 . S
C44 C48 1.308 . S
C45 C44 1.373 . S
C45 C46 1.429 . S
C45 H72 0.932 . S
C46 C43 1.358 . S
C46 C45 1.429 . S
C46 H73 0.930 . S
C47 C43 1.332 . S
C47 C48 1.394 . S
C47 H74 0.932 . S
C48 C44 1.308 . S
C48 C47 1.394 . S
C48 H75 0.929 . S
C49 Tb40 2.764 . S
C49 C43 1.504 . S
C49 O61 1.239 . S
C49 O62 1.263 . S
O50 Tb40 2.325 . S
O50 C60 1.236 . S
O51 Tb41 2.322 . S
O51 C60 1.257 . S
O52 Tb41 2.349 . S
O52 C63 1.261 . S
O53 Tb40 2.303 . S
O53 C63 1.257 . S
O54 Tb41 2.415 . S
O54 C70 1.239 . S
O55 Tb41 2.399 . S
O55 C70 1.263 . S
O56 Tb41 2.325 . S
O56 C71 1.236 . S
O57 Tb40 2.322 . S
O57 C71 1.257 . S
O58 Tb40 2.349 . S
O58 C42 1.261 . S
O59 Tb41 2.303 . S
O59 C42 1.257 . S
C60 O50 1.236 . S
C60 O51 1.257 . S
O61 Tb40 2.415 . S
O61 C49 1.239 . S
O62 Tb40 2.399 . S
O62 C49 1.263 . S
C63 O52 1.261 . S
C63 O53 1.257 . S
C64 C67 1.358 . S
C64 C68 1.332 . S
C64 C70 1.504 . S
C65 C66 1.373 . S
C65 C69 1.308 . S
C66 C65 1.373 . S
C66 C67 1.429 . S
C66 H76 0.932 . S
C67 C64 1.358 . S
C67 C66 1.429 . S
C67 H77 0.930 . S
C68 C64 1.332 . S
C68 C69 1.394 . S
C68 H78 0.932 . S
C69 C65 1.308 . S
C69 C68 1.394 . S
C69 H79 0.929 . S
C70 Tb41 2.764 . S
C70 O54 1.239 . S
C70 O55 1.263 . S
C70 C64 1.504 . S
C71 O56 1.236 . S
C71 O57 1.257 . S
H72 C45 0.932 . S
H73 C46 0.930 . S
H74 C47 0.932 . S
H75 C48 0.929 . S
H76 C66 0.932 . S
H77 C67 0.930 . S
H78 C68 0.932 . S
H79 C69 0.929 . S
Tb80 C89 2.764 . S
Tb80 O90 2.325 . S
Tb80 O93 2.303 . S
Tb80 O97 2.322 . S
Tb80 O98 2.349 . S
Tb80 O101 2.415 . S
Tb80 O102 2.399 . S
Tb81 O91 2.322 . S
Tb81 O92 2.349 . S
Tb81 O94 2.415 . S
Tb81 O95 2.399 . S
Tb81 O96 2.325 . S
Tb81 O99 2.303 . S
Tb81 C110 2.764 . S
C82 O98 1.261 . S
C82 O99 1.257 . S
C83 C86 1.358 . S
C83 C87 1.332 . S
C83 C89 1.504 . S
C84 C85 1.373 . S
C84 C88 1.308 . S
C85 C84 1.373 . S
C85 C86 1.429 . S
C85 H112 0.932 . S
C86 C83 1.358 . S
C86 C85 1.429 . S
C86 H113 0.930 . S
C87 C83 1.332 . S
C87 C88 1.394 . S
C87 H114 0.932 . S
C88 C84 1.308 . S
C88 C87 1.394 . S
C88 H115 0.929 . S
C89 Tb80 2.764 . S
C89 C83 1.504 . S
C89 O101 1.239 . S
C89 O102 1.263 . S
O90 Tb80 2.325 . S
O90 C100 1.236 . S
O91 Tb81 2.322 . S
O91 C100 1.257 . S
O92 Tb81 2.349 . S
O92 C103 1.261 . S
O93 Tb80 2.303 . S
O93 C103 1.257 . S
O94 Tb81 2.415 . S
O94 C110 1.239 . S
O95 Tb81 2.399 . S
O95 C110 1.263 . S
O96 Tb81 2.325 . S
O96 C111 1.236 . S
O97 Tb80 2.322 . S
O97 C111 1.257 . S
O98 Tb80 2.349 . S
O98 C82 1.261 . S
O99 Tb81 2.303 . S
O99 C82 1.257 . S
C100 O90 1.236 . S
C100 O91 1.257 . S
O101 Tb80 2.415 . S
O101 C89 1.239 . S
O102 Tb80 2.399 . S
O102 C89 1.263 . S
C103 O92 1.261 . S
C103 O93 1.257 . S
C104 C107 1.358 . S
C104 C108 1.332 . S
C104 C110 1.504 . S
C105 C106 1.373 . S
C105 C109 1.308 . S
C106 C105 1.373 . S
C106 C107 1.429 . S
C106 H116 0.932 . S
C107 C104 1.358 . S
C107 C106 1.429 . S
C107 H117 0.930 . S
C108 C104 1.332 . S
C108 C109 1.394 . S
C108 H118 0.932 . S
C109 C105 1.308 . S
C109 C108 1.394 . S
C109 H119 0.929 . S
C110 Tb81 2.764 . S
C110 O94 1.239 . S
C110 O95 1.263 . S
C110 C104 1.504 . S
C111 O96 1.236 . S
C111 O97 1.257 . S
H112 C85 0.932 . S
H113 C86 0.930 . S
H114 C87 0.932 . S
H115 C88 0.929 . S
H116 C106 0.932 . S
H117 C107 0.930 . S
H118 C108 0.932 . S
H119 C109 0.929 . S
Tb120 C129 2.764 . S
Tb120 O130 2.325 . S
Tb120 O133 2.303 . S
Tb120 O137 2.322 1_554 S
Tb120 O138 2.349 . S
Tb120 O141 2.415 . S
Tb120 O142 2.399 . S
Tb121 O131 2.322 1_556 S
Tb121 O132 2.349 . S
Tb121 O134 2.415 . S
Tb121 O135 2.399 . S
Tb121 O136 2.325 . S
Tb121 O139 2.303 . S
Tb121 C150 2.764 . S
C122 O138 1.261 1_556 S
C122 O139 1.257 . S
C123 C126 1.358 . S
C123 C127 1.332 . S
C123 C129 1.504 . S
C124 C125 1.373 . S
C124 C128 1.308 . S
C125 C124 1.373 . S
C125 C126 1.429 . S
C125 H152 0.932 . S
C126 C123 1.358 . S
C126 C125 1.429 . S
C126 H153 0.930 . S
C127 C123 1.332 . S
C127 C128 1.394 . S
C127 H154 0.932 . S
C128 C124 1.308 . S
C128 C127 1.394 . S
C128 H155 0.929 . S
C129 Tb120 2.764 . S
C129 C123 1.504 . S
C129 O141 1.239 . S
C129 O142 1.263 . S
O130 Tb120 2.325 . S
O130 C140 1.236 . S
O131 Tb121 2.322 1_554 S
O131 C140 1.257 . S
O132 Tb121 2.349 . S
O132 C143 1.261 1_556 S
O133 Tb120 2.303 . S
O133 C143 1.257 . S
O134 Tb121 2.415 . S
O134 C150 1.239 . S
O135 Tb121 2.399 . S
O135 C150 1.263 . S
O136 Tb121 2.325 . S
O136 C151 1.236 . S
O137 Tb120 2.322 1_556 S
O137 C151 1.257 . S
O138 Tb120 2.349 . S
O138 C122 1.261 1_554 S
O139 Tb121 2.303 . S
O139 C122 1.257 . S
C140 O130 1.236 . S
C140 O131 1.257 . S
O141 Tb120 2.415 . S
O141 C129 1.239 . S
O142 Tb120 2.399 . S
O142 C129 1.263 . S
C143 O132 1.261 1_554 S
C143 O133 1.257 . S
C144 C147 1.358 . S
C144 C148 1.332 . S
C144 C150 1.504 . S
C145 C146 1.373 . S
C145 C149 1.308 . S
C146 C145 1.373 . S
C146 C147 1.429 . S
C146 H156 0.932 . S
C147 C144 1.358 . S
C147 C146 1.429 . S
C147 H157 0.930 . S
C148 C144 1.332 . S
C148 C149 1.394 . S
C148 H158 0.932 . S
C149 C145 1.308 . S
C149 C148 1.394 . S
C149 H159 0.929 . S
C150 Tb121 2.764 . S
C150 O134 1.239 . S
C150 O135 1.263 . S
C150 C144 1.504 . S
C151 O136 1.236 . S
C151 O137 1.257 . S
H152 C125 0.932 . S
H153 C126 0.930 . S
H154 C127 0.932 . S
H155 C128 0.929 . S
H156 C146 0.932 . S
H157 C147 0.930 . S
H158 C148 0.932 . S
H159 C149 0.929 . S
Tb160 C169 2.764 . S
Tb160 O170 2.325 . S
Tb160 O173 2.303 . S
Tb160 O177 2.322 . S
Tb160 O178 2.349 . S
Tb160 O181 2.415 . S
Tb160 O182 2.399 . S
Tb161 O171 2.322 . S
Tb161 O172 2.349 . S
Tb161 O174 2.415 . S
Tb161 O175 2.399 . S
Tb161 O176 2.325 . S
Tb161 O179 2.303 . S
Tb161 C190 2.764 . S
C162 O178 1.261 . S
C162 O179 1.257 . S
C163 C166 1.358 . S
C163 C167 1.332 . S
C163 C169 1.504 . S
C164 C165 1.373 . S
C164 C168 1.308 . S
C165 C164 1.373 . S
C165 C166 1.429 . S
C165 H192 0.932 . S
C166 C163 1.358 . S
C166 C165 1.429 . S
C166 H193 0.930 . S
C167 C163 1.332 . S
C167 C168 1.394 . S
C167 H194 0.932 . S
C168 C164 1.308 . S
C168 C167 1.394 . S
C168 H195 0.929 . S
C169 Tb160 2.764 . S
C169 C163 1.504 . S
C169 O181 1.239 . S
C169 O182 1.263 . S
O170 Tb160 2.325 . S
O170 C180 1.236 . S
O171 Tb161 2.322 . S
O171 C180 1.257 . S
O172 Tb161 2.349 . S
O172 C183 1.261 . S
O173 Tb160 2.303 . S
O173 C183 1.257 . S
O174 Tb161 2.415 . S
O174 C190 1.239 . S
O175 Tb161 2.399 . S
O175 C190 1.263 . S
O176 Tb161 2.325 . S
O176 C191 1.236 . S
O177 Tb160 2.322 . S
O177 C191 1.257 . S
O178 Tb160 2.349 . S
O178 C162 1.261 . S
O179 Tb161 2.303 . S
O179 C162 1.257 . S
C180 O170 1.236 . S
C180 O171 1.257 . S
O181 Tb160 2.415 . S
O181 C169 1.239 . S
O182 Tb160 2.399 . S
O182 C169 1.263 . S
C183 O172 1.261 . S
C183 O173 1.257 . S
C184 C187 1.358 . S
C184 C188 1.332 . S
C184 C190 1.504 . S
C185 C186 1.373 . S
C185 C189 1.308 . S
C186 C185 1.373 . S
C186 C187 1.429 . S
C186 H196 0.932 . S
C187 C184 1.358 . S
C187 C186 1.429 . S
C187 H197 0.930 . S
C188 C184 1.332 . S
C188 C189 1.394 . S
C188 H198 0.932 . S
C189 C185 1.308 . S
C189 C188 1.394 . S
C189 H199 0.929 . S
C190 Tb161 2.764 . S
C190 O174 1.239 . S
C190 O175 1.263 . S
C190 C184 1.504 . S
C191 O176 1.236 . S
C191 O177 1.257 . S
H192 C165 0.932 . S
H193 C166 0.930 . S
H194 C167 0.932 . S
H195 C168 0.929 . S
H196 C186 0.932 . S
H197 C187 0.930 . S
H198 C188 0.932 . S
H199 C189 0.929 . S
Tb200 C209 2.764 . S
Tb200 O210 2.325 . S
Tb200 O213 2.303 . S
Tb200 O217 2.322 . S
Tb200 O218 2.349 . S
Tb200 O221 2.415 . S
Tb200 O222 2.399 . S
Tb201 O211 2.322 . S
Tb201 O212 2.349 . S
Tb201 O214 2.415 . S
Tb201 O215 2.399 . S
Tb201 O216 2.325 . S
Tb201 O219 2.303 . S
Tb201 C230 2.764 . S
C202 O218 1.261 . S
C202 O219 1.257 . S
C203 C206 1.358 . S
C203 C207 1.332 . S
C203 C209 1.504 . S
C204 C205 1.373 . S
C204 C208 1.308 . S
C205 C204 1.373 . S
C205 C206 1.429 . S
C205 H232 0.932 . S
C206 C203 1.358 . S
C206 C205 1.429 . S
C206 H233 0.930 . S
C207 C203 1.332 . S
C207 C208 1.394 . S
C207 H234 0.932 . S
C208 C204 1.308 . S
C208 C207 1.394 . S
C208 H235 0.929 . S
C209 Tb200 2.764 . S
C209 C203 1.504 . S
C209 O221 1.239 . S
C209 O222 1.263 . S
O210 Tb200 2.325 . S
O210 C220 1.236 . S
O211 Tb201 2.322 . S
O211 C220 1.257 . S
O212 Tb201 2.349 . S
O212 C223 1.261 . S
O213 Tb200 2.303 . S
O213 C223 1.257 . S
O214 Tb201 2.415 . S
O214 C230 1.239 . S
O215 Tb201 2.399 . S
O215 C230 1.263 . S
O216 Tb201 2.325 . S
O216 C231 1.236 . S
O217 Tb200 2.322 . S
O217 C231 1.257 . S
O218 Tb200 2.349 . S
O218 C202 1.261 . S
O219 Tb201 2.303 . S
O219 C202 1.257 . S
C220 O210 1.236 . S
C220 O211 1.257 . S
O221 Tb200 2.415 . S
O221 C209 1.239 . S
O222 Tb200 2.399 . S
O222 C209 1.263 . S
C223 O212 1.261 . S
C223 O213 1.257 . S
C224 C227 1.358 . S
C224 C228 1.332 . S
C224 C230 1.504 . S
C225 C226 1.373 . S
C225 C229 1.308 . S
C226 C225 1.373 . S
C226 C227 1.429 . S
C226 H236 0.932 . S
C227 C224 1.358 . S
C227 C226 1.429 . S
C227 H237 0.930 . S
C228 C224 1.332 . S
C228 C229 1.394 . S
C228 H238 0.932 . S
C229 C225 1.308 . S
C229 C228 1.394 . S
C229 H239 0.929 . S
C230 Tb201 2.764 . S
C230 O214 1.239 . S
C230 O215 1.263 . S
C230 C224 1.504 . S
C231 O216 1.236 . S
C231 O217 1.257 . S
H232 C205 0.932 . S
H233 C206 0.930 . S
H234 C207 0.932 . S
H235 C208 0.929 . S
H236 C226 0.932 . S
H237 C227 0.930 . S
H238 C228 0.932 . S
H239 C229 0.929 . S
C240 C241 1.349 . S
C240 C242 1.327 . S
C240 H265 0.950 . S
C241 C240 1.349 . S
C241 C257 1.349 . S
C242 C240 1.327 . S
C242 C261 1.429 . S
C242 H266 0.950 . S
C243 C260 1.574 . S
C243 C262 1.368 . S
C243 H267 0.949 . S
H244 C248 0.949 . S
C245 C246 1.349 . S
C245 C247 1.327 . S
C245 H268 0.950 . S
C246 C245 1.349 . S
C246 C258 1.349 . S
C247 C245 1.327 . S
C247 C263 1.429 . S
C247 H269 0.950 . S
C248 H244 0.949 . S
C248 C256 1.574 . S
C248 C264 1.368 . S
H249 C257 0.950 . S
H250 C255 0.950 . S
H251 C256 0.949 . S
H252 C258 0.950 . S
H253 C259 0.950 . S
H254 C260 0.949 . S
C255 H250 0.950 . S
C255 C257 1.327 . S
C255 C261 1.429 . S
C256 C248 1.574 . S
C256 H251 0.949 . S
C256 C262 1.368 . S
C257 C241 1.349 . S
C257 H249 0.950 . S
C257 C255 1.327 . S
C258 C246 1.349 . S
C258 H252 0.950 . S
C258 C259 1.327 . S
C259 H253 0.950 . S
C259 C258 1.327 . S
C259 C263 1.429 . S
C260 C243 1.574 . S
C260 H254 0.949 . S
C260 C264 1.368 . S
C261 C242 1.429 . S
C261 C255 1.429 . S
C261 C262 1.523 . S
C262 C243 1.368 . S
C262 C256 1.368 . S
C262 C261 1.523 . S
C263 C247 1.429 . S
C263 C259 1.429 . S
C263 C264 1.523 . S
C264 C248 1.368 . S
C264 C260 1.368 . S
C264 C263 1.523 . S
H265 C240 0.950 . S
H266 C242 0.950 . S
H267 C243 0.949 . S
H268 C245 0.950 . S
H269 C247 0.950 . S
C270 C271 1.349 . S
C270 C272 1.327 . S
C270 H295 0.950 . S
C271 C270 1.349 . S
C271 C287 1.349 . S
C272 C270 1.327 . S
C272 C291 1.429 . S
C272 H296 0.950 . S
C273 C290 1.574 1_455 S
C273 C292 1.368 . S
C273 H297 0.949 . S
H274 C278 0.949 . S
C275 C276 1.349 . S
C275 C277 1.327 . S
C275 H298 0.950 . S
C276 C275 1.349 . S
C276 C288 1.349 . S
C277 C275 1.327 . S
C277 C293 1.429 . S
C277 H299 0.950 . S
C278 H274 0.949 . S
C278 C286 1.574 1_655 S
C278 C294 1.368 . S
H279 C287 0.950 . S
H280 C285 0.950 . S
H281 C286 0.949 . S
H282 C288 0.950 . S
H283 C289 0.950 . S
H284 C290 0.949 . S
C285 H280 0.950 . S
C285 C287 1.327 . S
C285 C291 1.429 . S
C286 C278 1.574 1_455 S
C286 H281 0.949 . S
C286 C292 1.368 . S
C287 C271 1.349 . S
C287 H279 0.950 . S
C287 C285 1.327 . S
C288 C276 1.349 . S
C288 H282 0.950 . S
C288 C289 1.327 . S
C289 H283 0.950 . S
C289 C288 1.327 . S
C289 C293 1.429 . S
C290 C273 1.574 1_655 S
C290 H284 0.949 . S
C290 C294 1.368 . S
C291 C272 1.429 . S
C291 C285 1.429 . S
C291 C292 1.523 . S
C292 C273 1.368 . S
C292 C286 1.368 . S
C292 C291 1.523 . S
C293 C277 1.429 . S
C293 C289 1.429 . S
C293 C294 1.523 . S
C294 C278 1.368 . S
C294 C290 1.368 . S
C294 C293 1.523 . S
H295 C270 0.950 . S
H296 C272 0.950 . S
H297 C273 0.949 . S
H298 C275 0.950 . S
H299 C277 0.950 . S
C300 C301 1.349 . S
C300 C302 1.327 . S
C300 H325 0.950 . S
C301 C300 1.349 . S
C301 C317 1.349 . S
C302 C300 1.327 . S
C302 C321 1.429 . S
C302 H326 0.950 . S
C303 C320 1.569 1_545 S
C303 C322 1.368 . S
C303 H327 0.949 . S
H304 C308 0.949 . S
C305 C306 1.349 . S
C305 C307 1.327 . S
C305 H328 0.950 . S
C306 C305 1.349 . S
C306 C318 1.349 . S
C307 C305 1.327 . S
C307 C323 1.429 . S
C307 H329 0.950 . S
C308 H304 0.949 . S
C308 C316 1.574 . S
C308 C324 1.368 . S
H309 C317 0.950 . S
H310 C315 0.950 . S
H311 C316 0.949 . S
H312 C318 0.950 . S
H313 C319 0.950 . S
H314 C320 0.948 . S
C315 H310 0.950 . S
C315 C317 1.327 . S
C315 C321 1.429 . S
C316 C308 1.574 . S
C316 H311 0.949 . S
C316 C322 1.368 1_565 S
C317 C301 1.349 . S
C317 H309 0.950 . S
C317 C315 1.327 . S
C318 C306 1.349 . S
C318 H312 0.950 . S
C318 C319 1.327 . S
C319 H313 0.950 . S
C319 C318 1.327 . S
C319 C323 1.429 . S
C320 C303 1.569 1_565 S
C320 H314 0.948 . S
C320 C324 1.373 . S
C321 C302 1.429 . S
C321 C315 1.429 . S
C321 C322 1.523 . S
C322 C303 1.368 . S
C322 C316 1.368 1_545 S
C322 C321 1.523 . S
C323 C307 1.429 . S
C323 C319 1.429 . S
C323 C324 1.523 . S
C324 C308 1.368 . S
C324 C320 1.373 . S
C324 C323 1.523 . S
H325 C300 0.950 . S
H326 C302 0.950 . S
H327 C303 0.949 . S
H328 C305 0.950 . S
H329 C307 0.950 . S
C330 C331 1.349 . S
C330 C332 1.327 . S
C330 H355 0.950 . S
C331 C330 1.349 . S
C331 C347 1.349 . S
C332 C330 1.327 . S
C332 C351 1.429 . S
C332 H356 0.950 . S
C333 C350 1.574 . S
C333 C352 1.368 . S
C333 H357 0.949 . S
H334 C338 0.949 . S
C335 C336 1.349 . S
C335 C337 1.327 . S
C335 H358 0.950 . S
C336 C335 1.349 . S
C336 C348 1.349 . S
C337 C335 1.327 . S
C337 C353 1.429 . S
C337 H359 0.950 . S
C338 H334 0.949 . S
C338 C346 1.574 . S
C338 C354 1.368 . S
H339 C347 0.950 . S
H340 C345 0.950 . S
H341 C346 0.949 . S
H342 C348 0.950 . S
H343 C349 0.950 . S
H344 C350 0.949 . S
C345 H340 0.950 . S
C345 C347 1.327 . S
C345 C351 1.429 . S
C346 C338 1.574 . S
C346 H341 0.949 . S
C346 C352 1.368 . S
C347 C331 1.349 . S
C347 H339 0.950 . S
C347 C345 1.327 . S
C348 C336 1.349 . S
C348 H342 0.950 . S
C348 C349 1.327 . S
C349 H343 0.950 . S
C349 C348 1.327 . S
C349 C353 1.429 . S
C350 C333 1.574 . S
C350 H344 0.949 . S
C350 C354 1.368 . S
C351 C332 1.429 . S
C351 C345 1.429 . S
C351 C352 1.523 . S
C352 C333 1.368 . S
C352 C346 1.368 . S
C352 C351 1.523 . S
C353 C337 1.429 . S
C353 C349 1.429 . S
C353 C354 1.523 . S
C354 C338 1.368 . S
C354 C350 1.368 . S
C354 C353 1.523 . S
H355 C330 0.950 . S
H356 C332 0.950 . S
H357 C333 0.949 . S
H358 C335 0.950 . S
H359 C337 0.950 . S
C360 C361 1.349 . S
C360 C362 1.327 . S
C360 H385 0.950 . S
C361 C360 1.349 . S
C361 C377 1.349 . S
C362 C360 1.327 . S
C362 C381 1.429 . S
C362 H386 0.950 . S
C363 C380 1.574 1_455 S
C363 C382 1.368 . S
C363 H387 0.949 . S
H364 C368 0.949 . S
C365 C366 1.349 . S
C365 C367 1.327 . S
C365 H388 0.950 . S
C366 C365 1.349 . S
C366 C378 1.349 . S
C367 C365 1.327 . S
C367 C383 1.429 . S
C367 H389 0.950 . S
C368 H364 0.949 . S
C368 C376 1.574 1_655 S
C368 C384 1.368 . S
H369 C377 0.950 . S
H370 C375 0.950 . S
H371 C376 0.949 . S
H372 C378 0.950 . S
H373 C379 0.950 . S
H374 C380 0.949 . S
C375 H370 0.950 . S
C375 C377 1.327 . S
C375 C381 1.429 . S
C376 C368 1.574 1_455 S
C376 H371 0.949 . S
C376 C382 1.368 . S
C377 C361 1.349 . S
C377 H369 0.950 . S
C377 C375 1.327 . S
C378 C366 1.349 . S
C378 H372 0.950 . S
C378 C379 1.327 . S
C379 H373 0.950 . S
C379 C378 1.327 . S
C379 C383 1.429 . S
C380 C363 1.574 1_655 S
C380 H374 0.949 . S
C380 C384 1.368 . S
C381 C362 1.429 . S
C381 C375 1.429 . S
C381 C382 1.523 . S
C382 C363 1.368 . S
C382 C376 1.368 . S
C382 C381 1.523 . S
C383 C367 1.429 . S
C383 C379 1.429 . S
C383 C384 1.523 . S
C384 C368 1.368 . S
C384 C380 1.368 . S
C384 C383 1.523 . S
H385 C360 0.950 . S
H386 C362 0.950 . S
H387 C363 0.949 . S
H388 C365 0.950 . S
H389 C367 0.950 . S
C390 C391 1.349 . S
C390 C392 1.327 . S
C390 H415 0.950 . S
C391 C390 1.349 . S
C391 C407 1.349 . S
C392 C390 1.327 . S
C392 C411 1.429 . S
C392 H416 0.950 . S
C393 C410 1.574 1_545 S
C393 C412 1.368 . S
C393 H417 0.949 . S
H394 C398 0.949 . S
C395 C396 1.349 . S
C395 C397 1.327 . S
C395 H418 0.950 . S
C396 C395 1.349 . S
C396 C408 1.349 . S
C397 C395 1.327 . S
C397 C413 1.429 . S
C397 H419 0.950 . S
C398 H394 0.949 . S
C398 C406 1.574 1_565 S
C398 C414 1.368 . S
H399 C407 0.950 . S
H400 C405 0.950 . S
H401 C406 0.949 . S
H402 C408 0.950 . S
H403 C409 0.950 . S
H404 C410 0.949 . S
C405 H400 0.950 . S
C405 C407 1.327 . S
C405 C411 1.429 . S
C406 C398 1.574 1_545 S
C406 H401 0.949 . S
C406 C412 1.368 . S
C407 C391 1.349 . S
C407 H399 0.950 . S
C407 C405 1.327 . S
C408 C396 1.349 . S
C408 H402 0.950 . S
C408 C409 1.327 . S
C409 H403 0.950 . S
C409 C408 1.327 . S
C409 C413 1.429 . S
C410 C393 1.574 1_565 S
C410 H404 0.949 . S
C410 C414 1.368 . S
C411 C392 1.429 . S
C411 C405 1.429 . S
C411 C412 1.523 . S
C412 C393 1.368 . S
C412 C406 1.368 . S
C412 C411 1.523 . S
C413 C397 1.429 . S
C413 C409 1.429 . S
C413 C414 1.523 . S
C414 C398 1.368 . S
C414 C410 1.368 . S
C414 C413 1.523 . S
H415 C390 0.950 . S
H416 C392 0.950 . S
H417 C393 0.949 . S
H418 C395 0.950 . S
H419 C397 0.950 . S
C420 C421 1.349 . S
C420 C422 1.327 . S
C420 H445 0.950 . S
C421 C420 1.349 . S
C421 C437 1.349 . S
C422 C420 1.327 . S
C422 C441 1.429 . S
C422 H446 0.950 . S
C423 C440 1.574 . S
C423 C442 1.368 . S
C423 H447 0.949 . S
H424 C428 0.949 . S
C425 C426 1.349 . S
C425 C427 1.327 . S
C425 H448 0.950 . S
C426 C425 1.349 . S
C426 C438 1.349 . S
C427 C425 1.327 . S
C427 C443 1.429 . S
C427 H449 0.950 . S
C428 H424 0.949 . S
C428 C436 1.574 . S
C428 C444 1.368 . S
H429 C437 0.950 . S
H430 C435 0.950 . S
H431 C436 0.949 . S
H432 C438 0.950 . S
H433 C439 0.950 . S
H434 C440 0.949 . S
C435 H430 0.950 . S
C435 C437 1.327 . S
C435 C441 1.429 . S
C436 C428 1.574 . S
C436 H431 0.949 . S
C436 C442 1.368 . S
C437 C421 1.349 . S
C437 H429 0.950 . S
C437 C435 1.327 . S
C438 C426 1.349 . S
C438 H432 0.950 . S
C438 C439 1.327 . S
C439 H433 0.950 . S
C439 C438 1.327 . S
C439 C443 1.429 . S
C440 C423 1.574 . S
C440 H434 0.949 . S
C440 C444 1.368 . S
C441 C422 1.429 . S
C441 C435 1.429 . S
C441 C442 1.523 . S
C442 C423 1.368 . S
C442 C436 1.368 . S
C442 C441 1.523 . S
C443 C427 1.429 . S
C443 C439 1.429 . S
C443 C444 1.523 . S
C444 C428 1.368 . S
C444 C440 1.368 . S
C444 C443 1.523 . S
H445 C420 0.950 . S
H446 C422 0.950 . S
H447 C423 0.949 . S
H448 C425 0.950 . S
H449 C427 0.950 . S
C450 C451 1.349 1_556 S
C450 C452 1.327 . S
C450 H475 0.950 1_556 S
C451 C450 1.349 1_554 S
C451 C467 1.349 1_554 S
C452 C450 1.327 . S
C452 C471 1.429 . S
C452 H476 0.950 . S
C453 C470 1.574 . S
C453 C472 1.368 . S
C453 H477 0.949 . S
H454 C458 0.949 . S
C455 C456 1.349 . S
C455 C457 1.327 . S
C455 H478 0.950 . S
C456 C455 1.349 . S
C456 C468 1.349 . S
C457 C455 1.327 . S
C457 C473 1.429 . S
C457 H479 0.950 . S
C458 H454 0.949 . S
C458 C466 1.574 . S
C458 C474 1.368 . S
H459 C467 0.950 . S
H460 C465 0.950 . S
H461 C466 0.949 . S
H462 C468 0.950 . S
H463 C469 0.950 . S
H464 C470 0.949 . S
C465 H460 0.950 . S
C465 C467 1.327 . S
C465 C471 1.429 . S
C466 C458 1.574 . S
C466 H461 0.949 . S
C466 C472 1.368 . S
C467 C451 1.349 1_556 S
C467 H459 0.950 . S
C467 C465 1.327 . S
C468 C456 1.349 . S
C468 H462 0.950 . S
C468 C469 1.327 . S
C469 H463 0.950 . S
C469 C468 1.327 . S
C469 C473 1.429 . S
C470 C453 1.574 . S
C470 H464 0.949 . S
C470 C474 1.368 . S
C471 C452 1.429 . S
C471 C465 1.429 . S
C471 C472 1.523 . S
C472 C453 1.368 . S
C472 C466 1.368 . S
C472 C471 1.523 . S
C473 C457 1.429 . S
C473 C469 1.429 . S
C473 C474 1.523 . S
C474 C458 1.368 . S
C474 C470 1.368 . S
C474 C473 1.523 . S
H475 C450 0.950 1_554 S
H476 C452 0.950 . S
H477 C453 0.949 . S
H478 C455 0.950 . S
H479 C457 0.950 . S
C480 C481 1.349 . S
C480 C482 1.327 . S
C480 H505 0.950 . S
C481 C480 1.349 . S
C481 C497 1.349 . S
C482 C480 1.327 . S
C482 C501 1.429 . S
C482 H506 0.950 . S
C483 C500 1.574 . S
C483 C502 1.368 . S
C483 H507 0.949 . S
H484 C488 0.949 . S
C485 C486 1.349 1_554 S
C485 C487 1.327 . S
C485 H508 0.950 1_554 S
C486 C485 1.349 1_556 S
C486 C498 1.349 1_556 S
C487 C485 1.327 . S
C487 C503 1.429 . S
C487 H509 0.950 . S
C488 H484 0.949 . S
C488 C496 1.574 . S
C488 C504 1.368 . S
H489 C497 0.950 . S
H490 C495 0.950 . S
H491 C496 0.949 . S
H492 C498 0.945 1_556 S
H493 C499 0.950 . S
H494 C500 0.949 . S
C495 H490 0.950 . S
C495 C497 1.327 . S
C495 C501 1.429 . S
C496 C488 1.574 . S
C496 H491 0.949 . S
C496 C502 1.368 . S
C497 C481 1.349 . S
C497 H489 0.950 . S
C497 C495 1.327 . S
C498 C486 1.349 1_554 S
C498 H492 0.945 1_554 S
C498 C499 1.327 . S
C499 H493 0.950 . S
C499 C498 1.327 . S
C499 C503 1.429 . S
C500 C483 1.574 . S
C500 H494 0.949 . S
C500 C504 1.368 . S
C501 C482 1.429 . S
C501 C495 1.429 . S
C501 C502 1.523 . S
C502 C483 1.368 . S
C502 C496 1.368 . S
C502 C501 1.523 . S
C503 C487 1.429 . S
C503 C499 1.429 . S
C503 C504 1.523 . S
C504 C488 1.368 . S
C504 C500 1.368 . S
C504 C503 1.523 . S
H505 C480 0.950 . S
H506 C482 0.950 . S
H507 C483 0.949 . S
H508 C485 0.950 1_556 S
H509 C487 0.950 . S
C510 C511 1.349 . S
C510 C512 1.327 . S
C510 H535 0.950 . S
C511 C510 1.349 . S
C511 C527 1.349 . S
C512 C510 1.327 . S
C512 C531 1.429 . S
C512 H536 0.950 . S
C513 C530 1.574 . S
C513 C532 1.368 . S
C513 H537 0.949 . S
H514 C518 0.949 . S
C515 C516 1.349 . S
C515 C517 1.327 . S
C515 H538 0.950 . S
C516 C515 1.349 . S
C516 C528 1.349 . S
C517 C515 1.327 . S
C517 C533 1.429 . S
C517 H539 0.950 . S
C518 H514 0.949 . S
C518 C526 1.574 . S
C518 C534 1.368 . S
H519 C527 0.950 . S
H520 C525 0.950 . S
H521 C526 0.949 . S
H522 C528 0.950 . S
H523 C529 0.950 . S
H524 C530 0.949 . S
C525 H520 0.950 . S
C525 C527 1.327 . S
C525 C531 1.429 . S
C526 C518 1.574 . S
C526 H521 0.949 . S
C526 C532 1.368 . S
C527 C511 1.349 . S
C527 H519 0.950 . S
C527 C525 1.327 . S
C528 C516 1.349 . S
C528 H522 0.950 . S
C528 C529 1.327 . S
C529 H523 0.950 . S
C529 C528 1.327 . S
C529 C533 1.429 . S
C530 C513 1.574 . S
C530 H524 0.949 . S
C530 C534 1.368 . S
C531 C512 1.429 . S
C531 C525 1.429 . S
C531 C532 1.523 . S
C532 C513 1.368 . S
C532 C526 1.368 . S
C532 C531 1.523 . S
C533 C517 1.429 . S
C533 C529 1.429 . S
C533 C534 1.523 . S
C534 C518 1.368 . S
C534 C530 1.368 . S
C534 C533 1.523 . S
H535 C510 0.950 . S
H536 C512 0.950 . S
H537 C513 0.949 . S
H538 C515 0.950 . S
H539 C517 0.950 . S
C540 C541 1.349 . S
C540 C542 1.327 . S
C540 H565 0.950 . S
C541 C540 1.349 . S
C541 C557 1.349 . S
C542 C540 1.327 . S
C542 C561 1.429 . S
C542 H566 0.950 . S
C543 C560 1.574 . S
C543 C562 1.368 . S
C543 H567 0.949 . S
H544 C548 0.949 . S
C545 C546 1.349 1_556 S
C545 C547 1.327 . S
C545 H568 0.950 1_556 S
C546 C545 1.349 1_554 S
C546 C558 1.349 1_554 S
C547 C545 1.327 . S
C547 C563 1.429 . S
C547 H569 0.950 . S
C548 H544 0.949 . S
C548 C556 1.574 . S
C548 C564 1.368 . S
H549 C557 0.950 . S
H550 C555 0.950 . S
H551 C556 0.949 . S
H552 C558 0.950 . S
H553 C559 0.950 . S
H554 C560 0.949 . S
C555 H550 0.950 . S
C555 C557 1.327 . S
C555 C561 1.429 . S
C556 C548 1.574 . S
C556 H551 0.949 . S
C556 C562 1.368 . S
C557 C541 1.349 . S
C557 H549 0.950 . S
C557 C555 1.327 . S
C558 C546 1.349 1_556 S
C558 H552 0.950 . S
C558 C559 1.327 . S
C559 H553 0.950 . S
C559 C558 1.327 . S
C559 C563 1.429 . S
C560 C543 1.574 . S
C560 H554 0.949 . S
C560 C564 1.368 . S
C561 C542 1.429 . S
C561 C555 1.429 . S
C561 C562 1.523 . S
C562 C543 1.368 . S
C562 C556 1.368 . S
C562 C561 1.523 . S
C563 C547 1.429 . S
C563 C559 1.429 . S
C563 C564 1.523 . S
C564 C548 1.368 . S
C564 C560 1.368 . S
C564 C563 1.523 . S
H565 C540 0.950 . S
H566 C542 0.950 . S
H567 C543 0.949 . S
H568 C545 0.950 1_554 S
H569 C547 0.950 . S
C570 C571 1.349 . S
C570 C572 1.327 . S
C570 H595 0.950 . S
C571 C570 1.349 . S
C571 C587 1.349 . S
C572 C570 1.327 . S
C572 C591 1.429 . S
C572 H596 0.950 . S
C573 C590 1.574 . S
C573 C592 1.368 . S
C573 H597 0.949 . S
H574 C578 0.949 . S
C575 C576 1.349 1_554 S
C575 C577 1.327 . S
C575 H598 0.950 1_554 S
C576 C575 1.349 1_556 S
C576 C588 1.349 1_556 S
C577 C575 1.327 . S
C577 C593 1.429 . S
C577 H599 0.950 . S
C578 H574 0.949 . S
C578 C586 1.574 . S
C578 C594 1.368 . S
H579 C587 0.950 . S
H580 C585 0.950 . S
H581 C586 0.949 . S
H582 C588 0.954 . S
H583 C589 0.950 . S
H584 C590 0.949 . S
C585 H580 0.950 . S
C585 C587 1.327 . S
C585 C591 1.429 . S
C586 C578 1.574 . S
C586 H581 0.949 . S
C586 C592 1.368 . S
C587 C571 1.349 . S
C587 H579 0.950 . S
C587 C585 1.327 . S
C588 C576 1.349 1_554 S
C588 H582 0.954 . S
C588 C589 1.327 . S
C589 H583 0.950 . S
C589 C588 1.327 . S
C589 C593 1.429 . S
C590 C573 1.574 . S
C590 H584 0.949 . S
C590 C594 1.368 . S
C591 C572 1.429 . S
C591 C585 1.429 . S
C591 C592 1.523 . S
C592 C573 1.368 . S
C592 C586 1.368 . S
C592 C591 1.523 . S
C593 C577 1.429 . S
C593 C589 1.429 . S
C593 C594 1.523 . S
C594 C578 1.368 . S
C594 C590 1.368 . S
C594 C593 1.523 . S
H595 C570 0.950 . S
H596 C572 0.950 . S
H597 C573 0.949 . S
H598 C575 0.950 1_556 S
H599 C577 0.950 . S
C600 C601 1.349 . S
C600 C602 1.327 . S
C600 H625 0.950 . S
C601 C600 1.349 . S
C601 C617 1.349 . S
C602 C600 1.327 . S
C602 C621 1.429 . S
C602 H626 0.950 . S
C603 C620 1.574 . S
C603 C622 1.368 . S
C603 H627 0.949 . S
H604 C608 0.949 . S
C605 C606 1.349 . S
C605 C607 1.327 . S
C605 H628 0.950 . S
C606 C605 1.349 . S
C606 C618 1.349 . S
C607 C605 1.327 . S
C607 C623 1.429 . S
C607 H629 0.950 . S
C608 H604 0.949 . S
C608 C616 1.574 . S
C608 C624 1.368 . S
H609 C617 0.950 . S
H610 C615 0.950 . S
H611 C616 0.949 . S
H612 C618 0.950 . S
H613 C619 0.950 . S
H614 C620 0.949 . S
C615 H610 0.950 . S
C615 C617 1.327 . S
C615 C621 1.429 . S
C616 C608 1.574 . S
C616 H611 0.949 . S
C616 C622 1.368 . S
C617 C601 1.349 . S
C617 H609 0.950 . S
C617 C615 1.327 . S
C618 C606 1.349 . S
C618 H612 0.950 . S
C618 C619 1.327 . S
C619 H613 0.950 . S
C619 C618 1.327 . S
C619 C623 1.429 . S
C620 C603 1.574 . S
C620 H614 0.949 . S
C620 C624 1.368 . S
C621 C602 1.429 . S
C621 C615 1.429 . S
C621 C622 1.523 . S
C622 C603 1.368 . S
C622 C616 1.368 . S
C622 C621 1.523 . S
C623 C607 1.429 . S
C623 C619 1.429 . S
C623 C624 1.523 . S
C624 C608 1.368 . S
C624 C620 1.368 . S
C624 C623 1.523 . S
H625 C600 0.950 . S
H626 C602 0.950 . S
H627 C603 0.949 . S
H628 C605 0.950 . S
H629 C607 0.950 . S
C630 C631 1.349 . S
C630 C632 1.327 . S
C630 H655 0.950 . S
C631 C630 1.349 . S
C631 C647 1.349 . S
C632 C630 1.327 . S
C632 C651 1.429 . S
C632 H656 0.950 . S
C633 C650 1.574 . S
C633 C652 1.368 . S
C633 H657 0.949 . S
H634 C638 0.949 . S
C635 C636 1.349 . S
C635 C637 1.327 . S
C635 H658 0.950 . S
C636 C635 1.349 . S
C636 C648 1.349 . S
C637 C635 1.327 . S
C637 C653 1.429 . S
C637 H659 0.950 . S
C638 H634 0.949 . S
C638 C646 1.574 . S
C638 C654 1.368 . S
H639 C647 0.950 . S
H640 C645 0.950 . S
H641 C646 0.949 . S
H642 C648 0.950 . S
H643 C649 0.950 . S
H644 C650 0.949 . S
C645 H640 0.950 . S
C645 C647 1.327 . S
C645 C651 1.429 . S
C646 C638 1.574 . S
C646 H641 0.949 . S
C646 C652 1.368 . S
C647 C631 1.349 . S
C647 H639 0.950 . S
C647 C645 1.327 . S
C648 C636 1.349 . S
C648 H642 0.950 . S
C648 C649 1.327 . S
C649 H643 0.950 . S
C649 C648 1.327 . S
C649 C653 1.429 . S
C650 C633 1.574 . S
C650 H644 0.949 . S
C650 C654 1.368 . S
C651 C632 1.429 . S
C651 C645 1.429 . S
C651 C652 1.523 . S
C652 C633 1.368 . S
C652 C646 1.368 . S
C652 C651 1.523 . S
C653 C637 1.429 . S
C653 C649 1.429 . S
C653 C654 1.523 . S
C654 C638 1.368 . S
C654 C650 1.368 . S
C654 C653 1.523 . S
H655 C630 0.950 . S
H656 C632 0.950 . S
H657 C633 0.949 . S
H658 C635 0.950 . S
H659 C637 0.950 . S
C660 C661 1.349 . S
C660 C662 1.327 . S
C660 H685 0.950 . S
C661 C660 1.349 . S
C661 C677 1.349 . S
C662 C660 1.327 . S
C662 C681 1.429 . S
C662 H686 0.950 . S
C663 C680 1.574 . S
C663 C682 1.368 . S
C663 H687 0.949 . S
H664 C668 0.949 . S
C665 C666 1.349 . S
C665 C667 1.327 . S
C665 H688 0.950 . S
C666 C665 1.349 . S
C666 C678 1.349 . S
C667 C665 1.327 . S
C667 C683 1.429 . S
C667 H689 0.950 . S
C668 H664 0.949 . S
C668 C676 1.574 . S
C668 C684 1.368 . S
H669 C677 0.950 . S
H670 C675 0.950 . S
H671 C676 0.949 . S
H672 C678 0.950 . S
H673 C679 0.950 . S
H674 C680 0.949 . S
C675 H670 0.950 . S
C675 C677 1.327 . S
C675 C681 1.429 . S
C676 C668 1.574 . S
C676 H671 0.949 . S
C676 C682 1.368 . S
C677 C661 1.349 . S
C677 H669 0.950 . S
C677 C675 1.327 . S
C678 C666 1.349 . S
C678 H672 0.950 . S
C678 C679 1.327 . S
C679 H673 0.950 . S
C679 C678 1.327 . S
C679 C683 1.429 . S
C680 C663 1.574 . S
C680 H674 0.949 . S
C680 C684 1.368 . S
C681 C662 1.429 . S
C681 C675 1.429 . S
C681 C682 1.523 . S
C682 C663 1.368 . S
C682 C676 1.368 . S
C682 C681 1.523 . S
C683 C667 1.429 . S
C683 C679 1.429 . S
C683 C684 1.523 . S
C684 C668 1.368 . S
C684 C680 1.368 . S
C684 C683 1.523 . S
H685 C660 0.950 . S
H686 C662 0.950 . S
H687 C663 0.949 . S
H688 C665 0.950 . S
H689 C667 0.950 . S
C690 C691 1.349 . S
C690 C692 1.327 . S
C690 H715 0.950 . S
C691 C690 1.349 . S
C691 C707 1.349 . S
C692 C690 1.327 . S
C692 C711 1.429 . S
C692 H716 0.950 . S
C693 C710 1.574 . S
C693 C712 1.368 . S
C693 H717 0.949 . S
H694 C698 0.949 . S
C695 C696 1.349 . S
C695 C697 1.327 . S
C695 H718 0.950 . S
C696 C695 1.349 . S
C696 C708 1.349 . S
C697 C695 1.327 . S
C697 C713 1.429 . S
C697 H719 0.950 . S
C698 H694 0.949 . S
C698 C706 1.574 . S
C698 C714 1.368 . S
H699 C707 0.950 . S
H700 C705 0.950 . S
H701 C706 0.949 . S
H702 C708 0.950 . S
H703 C709 0.950 . S
H704 C710 0.949 . S
C705 H700 0.950 . S
C705 C707 1.327 . S
C705 C711 1.429 . S
C706 C698 1.574 . S
C706 H701 0.949 . S
C706 C712 1.368 . S
C707 C691 1.349 . S
C707 H699 0.950 . S
C707 C705 1.327 . S
C708 C696 1.349 . S
C708 H702 0.950 . S
C708 C709 1.327 . S
C709 H703 0.950 . S
C709 C708 1.327 . S
C709 C713 1.429 . S
C710 C693 1.574 . S
C710 H704 0.949 . S
C710 C714 1.368 . S
C711 C692 1.429 . S
C711 C705 1.429 . S
C711 C712 1.523 . S
C712 C693 1.368 . S
C712 C706 1.368 . S
C712 C711 1.523 . S
C713 C697 1.429 . S
C713 C709 1.429 . S
C713 C714 1.523 . S
C714 C698 1.368 . S
C714 C710 1.368 . S
C714 C713 1.523 . S
H715 C690 0.950 . S
H716 C692 0.950 . S
H717 C693 0.949 . S
H718 C695 0.950 . S
H719 C697 0.950 . S
C720 C721 1.349 . S
C720 C722 1.327 . S
C720 H745 0.950 . S
C721 C720 1.349 . S
C721 C737 1.349 . S
C722 C720 1.327 . S
C722 C741 1.429 . S
C722 H746 0.950 . S
C723 C740 1.574 . S
C723 C742 1.368 . S
C723 H747 0.949 . S
H724 C728 0.949 . S
C725 C726 1.349 . S
C725 C727 1.327 . S
C725 H748 0.950 . S
C726 C725 1.349 . S
C726 C738 1.349 . S
C727 C725 1.327 . S
C727 C743 1.429 . S
C727 H749 0.950 . S
C728 H724 0.949 . S
C728 C736 1.574 . S
C728 C744 1.368 . S
H729 C737 0.950 . S
H730 C735 0.950 . S
H731 C736 0.949 . S
H732 C738 0.950 . S
H733 C739 0.950 . S
H734 C740 0.949 . S
C735 H730 0.950 . S
C735 C737 1.327 . S
C735 C741 1.429 . S
C736 C728 1.574 . S
C736 H731 0.949 . S
C736 C742 1.368 . S
C737 C721 1.349 . S
C737 H729 0.950 . S
C737 C735 1.327 . S
C738 C726 1.349 . S
C738 H732 0.950 . S
C738 C739 1.327 . S
C739 H733 0.950 . S
C739 C738 1.327 . S
C739 C743 1.429 . S
C740 C723 1.574 . S
C740 H734 0.949 . S
C740 C744 1.368 . S
C741 C722 1.429 . S
C741 C735 1.429 . S
C741 C742 1.523 . S
C742 C723 1.368 . S
C742 C736 1.368 . S
C742 C741 1.523 . S
C743 C727 1.429 . S
C743 C739 1.429 . S
C743 C744 1.523 . S
C744 C728 1.368 . S
C744 C740 1.368 . S
C744 C743 1.523 . S
H745 C720 0.950 . S
H746 C722 0.950 . S
H747 C723 0.949 . S
H748 C725 0.950 . S
H749 C727 0.950 . S
C750 C751 1.349 . S
C750 C752 1.327 . S
C750 H775 0.950 . S
C751 C750 1.349 . S
C751 C767 1.349 . S
C752 C750 1.327 . S
C752 C771 1.429 . S
C752 H776 0.950 . S
C753 C770 1.574 . S
C753 C772 1.368 . S
C753 H777 0.949 . S
H754 C758 0.949 . S
C755 C756 1.349 . S
C755 C757 1.327 . S
C755 H778 0.950 . S
C756 C755 1.349 . S
C756 C768 1.349 . S
C757 C755 1.327 . S
C757 C773 1.429 . S
C757 H779 0.950 . S
C758 H754 0.949 . S
C758 C766 1.574 . S
C758 C774 1.368 . S
H759 C767 0.950 . S
H760 C765 0.950 . S
H761 C766 0.949 . S
H762 C768 0.950 . S
H763 C769 0.950 . S
H764 C770 0.949 . S
C765 H760 0.950 . S
C765 C767 1.327 . S
C765 C771 1.429 . S
C766 C758 1.574 . S
C766 H761 0.949 . S
C766 C772 1.368 . S
C767 C751 1.349 . S
C767 H759 0.950 . S
C767 C765 1.327 . S
C768 C756 1.349 . S
C768 H762 0.950 . S
C768 C769 1.327 . S
C769 H763 0.950 . S
C769 C768 1.327 . S
C769 C773 1.429 . S
C770 C753 1.574 . S
C770 H764 0.949 . S
C770 C774 1.368 . S
C771 C752 1.429 . S
C771 C765 1.429 . S
C771 C772 1.523 . S
C772 C753 1.368 . S
C772 C766 1.368 . S
C772 C771 1.523 . S
C773 C757 1.429 . S
C773 C769 1.429 . S
C773 C774 1.523 . S
C774 C758 1.368 . S
C774 C770 1.368 . S
C774 C773 1.523 . S
H775 C750 0.950 . S
H776 C752 0.950 . S
H777 C753 0.949 . S
H778 C755 0.950 . S
H779 C757 0.950 . S
C241 C223 1.323 . S
C246 C31 1.344 . S
C271 C23 1.323 . S
C276 C71 1.344 . S
C301 C63 1.323 . S
C306 C111 1.344 . S
C331 C103 1.323 . S
C336 C151 1.344 . S
C361 C191 1.344 . S
C366 C143 1.323 . S
C391 C231 1.344 . S
C396 C183 1.323 . S
C421 C25 1.191 . S
C426 C4 1.191 . S
C451 C65 1.191 . S
C456 C44 1.191 . S
C481 C105 1.191 . S
C486 C84 1.191 . S
C511 C145 1.191 . S
C516 C124 1.191 . S
C541 C164 1.191 . S
C546 C185 1.191 . S
C571 C225 1.191 . S
C576 C204 1.191 . S
C601 C20 1.567 . S
C606 C162 1.576 . S
C631 C60 1.566 . S
C636 C202 1.576 . S
C661 C2 1.576 . S
C666 C100 1.567 . S
C691 C42 1.576 . S
C696 C140 1.567 . S
C721 C180 1.566 . S
C726 C82 1.576 . S
C751 C122 1.576 . S
C756 C220 1.567 . S
