# Generated by pormake.
# Topology umj, (4)-cn, num edge types: 1
# Building blocks:
#     Node 0, Type 0, BuildingBlock: ESEHIV_clean_sbu_0, # of connection points: 4
#     Node 1, Type 0, BuildingBlock: ESEHIV_clean_sbu_0, # of connection points: 4
#     Node 2, Type 0, BuildingBlock: ESEHIV_clean_sbu_0, # of connection points: 4
#     Node 3, Type 0, BuildingBlock: ESEHIV_clean_sbu_0, # of connection points: 4
#     Node 4, Type 0, BuildingBlock: ESEHIV_clean_sbu_0, # of connection points: 4
#     Node 5, Type 0, BuildingBlock: ESEHIV_clean_sbu_0, # of connection points: 4
#     Node 6, Type 0, BuildingBlock: ESEHIV_clean_sbu_0, # of connection points: 4
#     Node 7, Type 0, BuildingBlock: ESEHIV_clean_sbu_0, # of connection points: 4
#     Node 8, Type 0, BuildingBlock: ESEHIV_clean_sbu_0, # of connection points: 4
#     Node 9, Type 0, BuildingBlock: ESEHIV_clean_sbu_0, # of connection points: 4
#     Node 10, Type 0, BuildingBlock: ESEHIV_clean_sbu_0, # of connection points: 4
#     Node 11, Type 0, BuildingBlock: ESEHIV_clean_sbu_0, # of connection points: 4
#     Edge 12, Type (0, 0), BuildingBlock: UVAHIK_clean_linker_0, # of connection points: 2
#     Edge 13, Type (0, 0), BuildingBlock: UVAHIK_clean_linker_0, # of connection points: 2
#     Edge 14, Type (0, 0), BuildingBlock: UVAHIK_clean_linker_0, # of connection points: 2
#     Edge 15, Type (0, 0), BuildingBlock: UVAHIK_clean_linker_0, # of connection points: 2
#     Edge 16, Type (0, 0), BuildingBlock: UVAHIK_clean_linker_0, # of connection points: 2
#     Edge 17, Type (0, 0), BuildingBlock: UVAHIK_clean_linker_0, # of connection points: 2
#     Edge 18, Type (0, 0), BuildingBlock: UVAHIK_clean_linker_0, # of connection points: 2
#     Edge 19, Type (0, 0), BuildingBlock: UVAHIK_clean_linker_0, # of connection points: 2
#     Edge 20, Type (0, 0), BuildingBlock: UVAHIK_clean_linker_0, # of connection points: 2
#     Edge 21, Type (0, 0), BuildingBlock: UVAHIK_clean_linker_0, # of connection points: 2
#     Edge 22, Type (0, 0), BuildingBlock: UVAHIK_clean_linker_0, # of connection points: 2
#     Edge 23, Type (0, 0), BuildingBlock: UVAHIK_clean_linker_0, # of connection points: 2
#     Edge 24, Type (0, 0), BuildingBlock: UVAHIK_clean_linker_0, # of connection points: 2
#     Edge 25, Type (0, 0), BuildingBlock: UVAHIK_clean_linker_0, # of connection points: 2
#     Edge 26, Type (0, 0), BuildingBlock: UVAHIK_clean_linker_0, # of connection points: 2
#     Edge 27, Type (0, 0), BuildingBlock: UVAHIK_clean_linker_0, # of connection points: 2
#     Edge 28, Type (0, 0), BuildingBlock: UVAHIK_clean_linker_0, # of connection points: 2
#     Edge 29, Type (0, 0), BuildingBlock: UVAHIK_clean_linker_0, # of connection points: 2
#     Edge 30, Type (0, 0), BuildingBlock: UVAHIK_clean_linker_0, # of connection points: 2
#     Edge 31, Type (0, 0), BuildingBlock: UVAHIK_clean_linker_0, # of connection points: 2
#     Edge 32, Type (0, 0), BuildingBlock: UVAHIK_clean_linker_0, # of connection points: 2
#     Edge 33, Type (0, 0), BuildingBlock: UVAHIK_clean_linker_0, # of connection points: 2
#     Edge 34, Type (0, 0), BuildingBlock: UVAHIK_clean_linker_0, # of connection points: 2
#     Edge 35, Type (0, 0), BuildingBlock: UVAHIK_clean_linker_0, # of connection points: 2
# Relax obj value: 0.040
# Max RMSD: 0.094
# Mean RMSD: 0.084
data_MOF--net-umj--node1-ESEHIV_clean_sbu_0--edge1-UVAHIK_clean_linker_0
_symmetry_space_group_name_H-M    P1
_symmetry_Int_Tables_number       1
_symmetry_cell_setting            triclinic
loop_
_symmetry_equiv_pos_as_xyz
'x, y, z'
_cell_length_a     38.453521
_cell_length_b     43.374367
_cell_length_c     114.4358
_cell_angle_alpha  89.9754
_cell_angle_beta   90.022359
_cell_angle_gamma 116.3939
loop_
_atom_site_label
_atom_site_type_symbol
_atom_site_fract_x
_atom_site_fract_y
_atom_site_fract_z
_atom_type_partial_charge
Cu0 Cu 0.04881 0.27474 0.09063 0.0
N1 N 0.07817 0.25099 0.09453 0.0
N2 N 0.08188 0.20116 0.09762 0.0
C3 C 0.06603 0.21785 0.09118 0.0
C4 C 0.10542 0.225 0.1053 0.0
C5 C 0.10306 0.2556 0.10339 0.0
O6 O 0.03683 0.26246 0.07405 0.0
C7 C 0.02317 0.27308 0.1128 0.0
O8 O 0.05892 0.29752 0.11314 0.0
H9 H 0.04285 0.20521 0.08493 0.0
H10 H 0.11595 0.27849 0.10874 0.0
N11 N 0.07128 0.32385 0.0914 0.0
N12 N 0.07341 0.37685 0.09185 0.0
C13 C 0.05092 0.3425 0.09048 0.0
C14 C 0.10808 0.3472 0.09345 0.0
C15 C 0.10949 0.37966 0.09371 0.0
C16 C 0.06744 0.27698 0.06776 0.0
O17 O 0.09998 0.29808 0.07285 0.0
H18 H 0.02 0.33082 0.08885 0.0
H19 H 0.13209 0.34102 0.09486 0.0
O20 O 1.00929 0.2583 0.10303 0.0
H21 H 0.1216 0.2202 0.11221 0.0
H22 H 0.13518 0.4034 0.09542 0.0
Cu23 Cu 0.78089 0.03535 0.41748 0.0
N24 N 0.76419 1.00238 0.42952 0.0
N25 N 0.75596 0.98723 0.44846 0.0
C26 C 0.76559 1.01301 0.44064 0.0
C27 C 0.74803 0.95889 0.44193 0.0
C28 C 0.75301 0.9683 0.43021 0.0
O29 O 0.74001 0.05085 0.41707 0.0
C30 C 0.85278 0.04599 0.42209 0.0
O31 O 0.83364 1.01325 0.41943 0.0
H32 H 0.77529 0.03978 0.44292 0.0
H33 H 0.74982 0.95172 0.42282 0.0
N34 N 0.78703 0.02338 0.40202 0.0
N35 N 0.81132 0.03541 0.38378 0.0
C36 C 0.80483 0.04802 0.39392 0.0
C37 C 0.78184 0.99376 0.39687 0.0
C38 C 0.79677 1.0011 0.38562 0.0
C39 C 0.70828 0.02655 0.41333 0.0
O40 O 0.70888 0.99782 0.40997 0.0
H41 H 0.81465 0.0751 0.39571 0.0
H42 H 0.76948 0.96887 0.4011 0.0
O43 O 0.83478 0.06475 0.42199 0.0
H44 H 0.73959 0.93328 0.44533 0.0
H45 H 0.79736 0.98261 0.37938 0.0
Cu46 Cu 0.7511 0.78255 0.76442 0.0
N47 N 0.76664 0.82927 0.76808 0.0
N48 N 0.81522 0.88233 0.77124 0.0
C49 C 0.80207 0.85341 0.76468 0.0
C50 C 0.78655 0.87632 0.77905 0.0
C51 C 0.75677 0.84366 0.77711 0.0
O52 O 0.7726 0.7875 0.74843 0.0
C53 C 0.75289 0.76333 0.78708 0.0
O54 O 0.71954 0.76469 0.78648 0.0
H55 H 0.81986 0.84825 0.75841 0.0
H56 H 0.73163 0.83031 0.78262 0.0
N57 N 0.69713 0.75074 0.7642 0.0
N58 N 0.64336 0.69947 0.76418 0.0
C59 C 0.68281 0.71592 0.764 0.0
C60 C 0.66563 0.75661 0.76456 0.0
C61 C 0.63269 0.7253 0.76453 0.0
C62 C 0.74997 0.78124 0.7396 0.0
O63 O 0.71252 0.76284 0.74116 0.0
H64 H 0.70122 0.703 0.76368 0.0
H65 H 0.66654 0.78188 0.76495 0.0
O66 O 0.77347 0.76885 0.77779 0.0
H67 H 0.78795 0.89341 0.78612 0.0
H68 H 0.60314 0.72201 0.76496 0.0
Cu69 Cu 0.98256 0.75703 0.09071 0.0
N70 N 0.95364 0.78129 0.09451 0.0
N71 N 0.94998 0.83118 0.09746 0.0
C72 C 0.96654 0.81461 0.09128 0.0
C73 C 0.92519 0.80708 0.10484 0.0
C74 C 0.9275 0.77642 0.10301 0.0
O75 O 0.99429 0.76877 0.07408 0.0
C76 C 1.00752 0.75931 0.11292 0.0
O77 O 0.97115 0.73608 0.11325 0.0
H78 H 0.99048 0.82735 0.08528 0.0
H79 H 0.91343 0.7532 0.10816 0.0
N80 N 0.95978 0.70794 0.09165 0.0
N81 N 0.95749 0.65483 0.0922 0.0
C82 C 0.97992 0.68914 0.0906 0.0
C83 C 0.92315 0.6848 0.09399 0.0
C84 C 0.92164 0.65231 0.09433 0.0
C85 C 0.96348 0.75421 0.06788 0.0
O86 O 0.93101 0.73345 0.07308 0.0
H87 H 1.01071 0.70079 0.0888 0.0
H88 H 0.89934 0.69114 0.09555 0.0
O89 O 0.02216 0.77327 0.1031 0.0
H90 H 0.908 0.81167 0.11148 0.0
H91 H 0.89591 0.62881 0.09622 0.0
Cu92 Cu 0.24756 0.99242 0.41863 0.0
N93 N 0.26187 0.02543 0.43064 0.0
N94 N 0.26894 0.04052 0.44959 0.0
C95 C 0.26231 0.01531 0.44174 0.0
C96 C 0.27293 0.06797 0.44309 0.0
C97 C 0.26863 0.0586 0.43137 0.0
O98 O 0.28727 0.97559 0.41958 0.0
C99 C 0.17477 0.98256 0.42086 0.0
O100 O 0.19449 0.01459 0.41744 0.0
H101 H 0.25589 0.98909 0.444 0.0
H102 H 0.26904 0.07443 0.42402 0.0
N103 N 0.24599 1.0045 0.40287 0.0
N104 N 0.22485 0.99296 0.3843 0.0
C105 C 0.22767 0.97992 0.39479 0.0
C106 C 0.25547 0.03453 0.39732 0.0
C107 C 0.24242 0.02748 0.38586 0.0
C108 C 0.32122 1.00073 0.41861 0.0
O109 O 0.32407 0.0316 0.41661 0.0
H110 H 0.21478 0.95273 0.39683 0.0
H111 H 0.26944 0.05961 0.40139 0.0
O112 O 0.19265 0.96397 0.42225 0.0
H113 H 0.27802 0.09286 0.44652 0.0
H114 H 0.24517 0.04634 0.37927 0.0
Cu115 Cu 0.27875 0.24724 0.76457 0.0
N116 N 0.26307 0.20038 0.76806 0.0
N117 N 0.21452 0.14724 0.77112 0.0
C118 C 0.22752 0.17641 0.76469 0.0
C119 C 0.24344 0.15291 0.77881 0.0
C120 C 0.2732 0.18563 0.77693 0.0
O121 O 0.25757 0.24313 0.7486 0.0
C122 C 0.27721 0.2659 0.78727 0.0
O123 O 0.31033 0.26415 0.7866 0.0
H124 H 0.20958 0.18182 0.75853 0.0
H125 H 0.29854 0.19873 0.78238 0.0
N126 N 0.33274 0.27914 0.76432 0.0
N127 N 0.38655 0.33041 0.76443 0.0
C128 C 0.3471 0.31395 0.76396 0.0
C129 C 0.36419 0.27327 0.76505 0.0
C130 C 0.39713 0.30456 0.76508 0.0
C131 C 0.27941 0.24173 0.74037 0.0
O132 O 0.31564 0.24924 0.7428 0.0
H133 H 0.32867 0.32685 0.76364 0.0
H134 H 0.36324 0.24802 0.76561 0.0
O135 O 0.25659 0.26078 0.77802 0.0
H136 H 0.24224 0.13555 0.78576 0.0
H137 H 0.42663 0.30773 0.76552 0.0
Cu138 Cu 0.76118 0.99175 0.60417 0.0
N139 N 0.78042 0.02494 0.5922 0.0
N140 N 0.79064 0.04042 0.57331 0.0
C141 C 0.77827 1.01427 0.58106 0.0
C142 C 0.80106 0.06905 0.5799 0.0
C143 C 0.7949 0.05943 0.59159 0.0
O144 O 0.70457 0.97457 0.60302 0.0
C145 C 0.82468 0.98309 0.60186 0.0
O146 O 0.83639 0.01523 0.60506 0.0
H147 H 0.7664 0.98736 0.57869 0.0
H148 H 0.79979 0.07626 0.59902 0.0
N149 N 0.77443 1.00363 0.61997 0.0
N150 N 0.78314 0.99183 0.6386 0.0
C151 C 0.76742 0.97895 0.62807 0.0
C152 C 0.7954 0.03356 0.62553 0.0
C153 C 0.80081 0.02635 0.63703 0.0
C154 C 0.69534 0.99925 0.60453 0.0
O155 O 0.72296 0.02976 0.60723 0.0
H156 H 0.7526 0.95179 0.62603 0.0
H157 H 0.80717 0.05865 0.62144 0.0
O158 O 0.78823 0.96379 0.60064 0.0
H159 H 0.81218 0.09502 0.57654 0.0
H160 H 0.81698 0.04511 0.64363 0.0
Cu161 Cu 0.79016 0.75598 0.93231 0.0
N162 N 0.84326 0.77995 0.92835 0.0
N163 N 0.8968 0.82986 0.92527 0.0
C164 C 0.86411 0.81316 0.93165 0.0
C165 C 0.89676 0.80597 0.91768 0.0
C166 C 0.86378 0.7753 0.91959 0.0
O167 O 0.79091 0.76787 0.94898 0.0
C168 C 0.76632 0.75793 0.91017 0.0
O169 O 0.7782 0.7339 0.90979 0.0
H170 H 0.8534 0.82578 0.93784 0.0
H171 H 0.85401 0.7523 0.9143 0.0
N172 N 0.76347 0.70689 0.93144 0.0
N173 N 0.71253 0.65391 0.93104 0.0
C174 C 0.72436 0.68829 0.93218 0.0
C175 C 0.77695 0.68345 0.92972 0.0
C176 C 0.74582 0.65096 0.92951 0.0
C177 C 0.80741 0.75326 0.95504 0.0
O178 O 0.81892 0.73265 0.94968 0.0
H179 H 0.70499 0.69994 0.93357 0.0
H180 H 0.80725 0.68956 0.92858 0.0
O181 O 0.76683 0.7724 0.91998 0.0
H182 H 0.91796 0.81074 0.91083 0.0
H183 H 0.74768 0.62707 0.9281 0.0
Cu184 Cu 0.04888 0.78282 0.25867 0.0
N185 N 0.07976 0.82969 0.25508 0.0
N186 N 0.0842 0.88273 0.252 0.0
C187 C 0.06808 0.85356 0.25843 0.0
C188 C 0.1075 0.87714 0.24432 0.0
C189 C 0.10465 0.8445 0.24621 0.0
O190 O 0.03217 0.78708 0.27468 0.0
C191 C 0.02788 0.76392 0.23603 0.0
O192 O 0.06301 0.76618 0.23654 0.0
H193 H 0.04474 0.84809 0.26461 0.0
H194 H 0.11701 0.83149 0.24078 0.0
N195 N 0.07119 0.75115 0.25881 0.0
N196 N 0.0739 0.70001 0.25865 0.0
C197 C 0.05081 0.71632 0.25912 0.0
C198 C 0.10858 0.7572 0.25812 0.0
C199 C 0.11035 0.72599 0.25805 0.0
C200 C 0.05337 0.78589 0.28314 0.0
O201 O 0.07938 0.77475 0.28105 0.0
H202 H 0.01944 0.7033 0.25942 0.0
H203 H 0.13288 0.78252 0.25762 0.0
O204 O 1.01261 0.76887 0.24536 0.0
H205 H 0.12368 0.89455 0.23737 0.0
H206 H 0.13675 0.72295 0.25764 0.0
Cu207 Cu 0.27056 0.03476 0.60535 0.0
N208 N 0.25298 1.00161 0.59339 0.0
N209 N 0.24509 0.98643 0.57445 0.0
C210 C 0.26291 1.01193 0.58227 0.0
C211 C 0.22286 0.95859 0.58099 0.0
C212 C 0.22786 0.96801 0.5927 0.0
O213 O 0.32685 0.04939 0.60554 0.0
C214 C 0.21007 0.04679 0.60109 0.0
O215 O 0.19572 1.01428 0.60413 0.0
H216 H 0.28158 0.03842 0.57998 0.0
H217 H 0.21319 0.9519 0.60008 0.0
N218 N 0.25286 0.02324 0.62088 0.0
N219 N 0.24097 0.03547 0.63913 0.0
C220 C 0.25939 0.04804 0.62889 0.0
C221 C 0.22936 0.99356 0.6262 0.0
C222 C 0.222 1.00103 0.63746 0.0
C223 C 0.33372 0.02462 0.60908 0.0
O224 O 0.30401 0.99602 0.61239 0.0
H225 H 0.27601 0.07514 0.62696 0.0
H226 H 0.21741 0.96849 0.62211 0.0
O227 O 0.24699 0.06479 0.60081 0.0
H228 H 0.2039 0.93337 0.57758 0.0
H229 H 0.2037 0.9825 0.64384 0.0
Cu230 Cu 0.24056 0.27401 0.93236 0.0
N231 N 0.18751 0.24998 0.92834 0.0
N232 N 0.134 0.20006 0.92524 0.0
C233 C 0.16663 0.21678 0.93165 0.0
C234 C 0.13411 0.22394 0.91763 0.0
C235 C 0.16707 0.25461 0.91954 0.0
O236 O 0.23967 0.26236 0.94905 0.0
C237 C 0.26459 0.27169 0.91029 0.0
O238 O 0.25272 0.29571 0.90981 0.0
H239 H 0.17728 0.20418 0.93787 0.0
H240 H 0.17688 0.27761 0.91425 0.0
N241 N 0.2672 0.32309 0.93139 0.0
N242 N 0.31815 0.37617 0.93083 0.0
C243 C 0.3063 0.34178 0.9321 0.0
C244 C 0.25362 0.34641 0.92959 0.0
C245 C 0.28469 0.3789 0.92927 0.0
C246 C 0.22308 0.27702 0.95504 0.0
O247 O 0.21157 0.29751 0.94959 0.0
H248 H 0.3256 0.33001 0.93333 0.0
H249 H 0.22328 0.34023 0.92852 0.0
O250 O 0.26402 0.25739 0.92014 0.0
H251 H 0.11297 0.21915 0.91076 0.0
H252 H 0.28239 0.40263 0.92802 0.0
Cu253 Cu 0.98704 0.24819 0.25846 0.0
N254 N 0.95587 0.20132 0.25493 0.0
N255 N 0.95129 0.14822 0.25188 0.0
C256 C 0.9673 0.17732 0.25835 0.0
C257 C 0.92833 0.15398 0.24411 0.0
C258 C 0.93128 0.18666 0.24598 0.0
O259 O 1.00384 0.24406 0.27445 0.0
C260 C 1.0076 0.26723 0.23581 0.0
O261 O 0.97275 0.26555 0.23647 0.0
H262 H 0.99044 0.18268 0.26459 0.0
H263 H 0.91927 0.19981 0.24048 0.0
N264 N 0.96502 0.28008 0.25875 0.0
N265 N 0.96261 0.33132 0.25886 0.0
C266 C 0.98554 0.31487 0.2593 0.0
C267 C 0.92771 0.27427 0.25787 0.0
C268 C 0.92614 0.30556 0.25798 0.0
C269 C 0.97918 0.2409 0.28246 0.0
O270 O 0.94911 0.24613 0.2797 0.0
H271 H 0.01686 0.3278 0.25999 0.0
H272 H 0.90338 0.24906 0.25704 0.0
O273 O 0.02295 0.26192 0.24506 0.0
H274 H 0.91238 0.13669 0.23711 0.0
H275 H 0.9 0.30892 0.25718 0.0
C276 C 0.02559 0.29755 0.21691 0.0
C277 C 0.0241 0.27051 0.22397 0.0
C278 C 0.02551 0.29509 0.20473 0.0
C279 C 0.03489 0.24627 0.17926 0.0
H280 H 0.96074 0.27376 0.16548 0.0
C281 C 1.00286 0.23203 0.12948 0.0
C282 C 1.00358 0.2615 0.12416 0.0
C283 C 1.00017 0.22828 0.1417 0.0
C284 C 0.98174 0.26613 0.16913 0.0
H285 H 0.02319 0.2203 0.22381 0.0
H286 H 0.02381 0.21613 0.20241 0.0
H287 H 0.97235 0.27943 0.18644 0.0
H288 H 1.00061 0.30936 0.12734 0.0
H289 H 0.99484 0.30263 0.14845 0.0
H290 H 0.0448 0.23361 0.16185 0.0
C291 C 0.0254 0.23945 0.20632 0.0
C292 C 0.98854 0.26951 0.18118 0.0
C293 C 0.02559 0.242 0.21858 0.0
C294 C 0.99879 0.28584 0.13118 0.0
C295 C 0.99587 0.28206 0.14333 0.0
C296 C 0.02824 0.24306 0.16714 0.0
C297 C 0.02344 0.26528 0.19926 0.0
C298 C 0.01571 0.26024 0.18641 0.0
C299 C 0.99817 0.25396 0.14883 0.0
C300 C 1.00199 0.25348 0.16187 0.0
H301 H 0.02369 0.3195 0.22082 0.0
H302 H 0.02495 0.31584 0.19959 0.0
H303 H 0.05594 0.23883 0.18298 0.0
H304 H 1.00787 0.21346 0.12431 0.0
H305 H 1.00152 0.20607 0.14559 0.0
C306 C 0.76335 0.9677 0.4684 0.0
C307 C 0.75677 0.99068 0.46109 0.0
C308 C 0.76678 0.97278 0.48056 0.0
C309 C 0.74601 0.02008 0.50483 0.0
H310 H 0.82403 1.00366 0.52144 0.0
C311 C 0.78513 0.0608 0.55336 0.0
C312 C 0.7904 0.03719 0.5607 0.0
C313 C 0.78192 0.05582 0.54119 0.0
C314 C 0.80183 1.00811 0.51698 0.0
H315 H 0.74705 0.03627 0.46105 0.0
H316 H 0.75378 0.04545 0.48202 0.0
H317 H 0.81501 0.99217 0.50053 0.0
H318 H 0.79814 0.99062 0.56084 0.0
H319 H 0.79215 0.98179 0.53981 0.0
H320 H 0.73293 0.03613 0.52129 0.0
C321 C 0.75612 0.02335 0.47843 0.0
C322 C 0.79656 1.00139 0.50495 0.0
C323 C 0.75272 0.01829 0.46632 0.0
C324 C 0.79353 1.00909 0.55551 0.0
C325 C 0.79051 1.00421 0.54339 0.0
C326 C 0.75134 0.02687 0.51685 0.0
C327 C 0.76355 1.00089 0.48575 0.0
C328 C 0.76857 1.00727 0.49868 0.0
C329 C 0.78422 0.02726 0.53604 0.0
C330 C 0.7793 0.02095 0.52312 0.0
H331 H 0.76679 0.94625 0.46472 0.0
H332 H 0.77195 0.95461 0.4859 0.0
H333 H 0.72373 0.02446 0.50039 0.0
H334 H 0.78243 0.08262 0.55704 0.0
H335 H 0.77759 0.07439 0.53582 0.0
C336 C 0.79643 0.78876 0.80426 0.0
C337 C 0.7664 0.76015 0.7989 0.0
C338 C 0.79911 0.79125 0.81652 0.0
C339 C 0.73288 0.76042 0.84184 0.0
H340 H 0.8258 0.79738 0.8609 0.0
C341 C 0.72856 0.74463 0.89188 0.0
C342 C 0.7578 0.76924 0.89882 0.0
C343 C 0.72902 0.74822 0.87972 0.0
C344 C 0.79956 0.78761 0.8557 0.0
H345 H 0.71726 0.71094 0.80208 0.0
H346 H 0.72274 0.71448 0.82331 0.0
H347 H 0.83111 0.79224 0.83975 0.0
H348 H 0.80994 0.81753 0.89852 0.0
H349 H 0.81025 0.8246 0.87724 0.0
H350 H 0.70122 0.75579 0.85764 0.0
C351 C 0.74383 0.73537 0.81816 0.0
C352 C 0.80265 0.78446 0.84356 0.0
C353 C 0.74114 0.73298 0.80598 0.0
C354 C 0.78626 0.79875 0.89342 0.0
C355 C 0.78692 0.80232 0.88119 0.0
C356 C 0.7298 0.76375 0.85391 0.0
C357 C 0.77159 0.76525 0.82361 0.0
C358 C 0.76924 0.77014 0.8365 0.0
C359 C 0.75912 0.77641 0.87414 0.0
C360 C 0.76299 0.77679 0.86108 0.0
H361 H 0.81552 0.81056 0.79903 0.0
H362 H 0.82085 0.81463 0.82042 0.0
H363 H 0.70655 0.75022 0.83666 0.0
H364 H 0.70709 0.72107 0.89578 0.0
H365 H 0.70735 0.72746 0.87467 0.0
C366 C 0.03261 0.74565 0.13099 0.0
C367 C 0.02722 0.77028 0.12429 0.0
C368 C 0.03401 0.74773 0.1432 0.0
C369 C 0.03939 0.80163 0.16914 0.0
H370 H 0.97306 0.71302 0.18291 0.0
C371 C 1.00646 0.78731 0.21899 0.0
C372 C 1.0105 0.75985 0.22428 0.0
C373 C 1.00428 0.78904 0.20674 0.0
C374 C 0.99191 0.73797 0.17927 0.0
H375 H 0.02082 0.8173 0.12509 0.0
H376 H 0.02413 0.82152 0.14645 0.0
H377 H 0.98414 0.71756 0.16194 0.0
H378 H 1.01392 0.71219 0.22102 0.0
H379 H 1.00914 0.71453 0.1999 0.0
H380 H 0.04753 0.82189 0.18658 0.0
C381 C 0.02774 0.80072 0.14228 0.0
C382 C 0.99845 0.74056 0.1672 0.0
C383 C 0.02641 0.79862 0.13001 0.0
C384 C 1.00971 0.73315 0.21719 0.0
C385 C 1.00725 0.73469 0.20503 0.0
C386 C 0.033 0.799 0.18128 0.0
C387 C 0.02953 0.7743 0.14904 0.0
C388 C 0.02274 0.77229 0.16196 0.0
C389 C 1.00597 0.76327 0.19958 0.0
C390 C 1.00956 0.767 0.18654 0.0
H391 H 0.03225 0.72306 0.12684 0.0
H392 H 0.03629 0.72732 0.1481 0.0
H393 H 0.05819 0.82649 0.16542 0.0
H394 H 1.00822 0.80877 0.22422 0.0
H395 H 1.00285 0.81124 0.20288 0.0
C396 C 0.28052 0.01642 0.55657 0.0
C397 C 0.24772 0.98992 0.56182 0.0
C398 C 0.2823 0.0217 0.54447 0.0
C399 C 0.23973 0.97967 0.51625 0.0
H400 H 0.28477 0.07359 0.50475 0.0
C401 C 0.27678 1.01152 0.46739 0.0
C402 C 0.26866 0.03707 0.46221 0.0
C403 C 0.2739 1.00621 0.47949 0.0
C404 C 0.27183 0.04719 0.50778 0.0
H405 H 0.19131 0.9477 0.55823 0.0
H406 H 0.1945 0.95674 0.53707 0.0
H407 H 0.27935 0.06274 0.52575 0.0
H408 H 0.25186 0.07758 0.46593 0.0
H409 H 0.24707 0.0685 0.48708 0.0
H410 H 0.23185 0.96412 0.49829 0.0
C411 C 0.21898 0.97343 0.54237 0.0
C412 C 0.26911 0.04094 0.51986 0.0
C413 C 0.21715 0.96817 0.55453 0.0
C414 C 0.25863 0.05787 0.46957 0.0
C415 C 0.25582 0.05258 0.48173 0.0
C416 C 0.24261 0.98593 0.50417 0.0
C417 C 0.25141 1.00057 0.53719 0.0
C418 C 0.25324 1.00709 0.52428 0.0
C419 C 0.26294 0.02636 0.48684 0.0
C420 C 0.25892 0.01979 0.49975 0.0
H421 H 0.30506 0.03323 0.56181 0.0
H422 H 0.30816 0.04231 0.54081 0.0
H423 H 0.22757 0.95329 0.51929 0.0
H424 H 0.28547 0.99549 0.46209 0.0
H425 H 0.28055 0.98636 0.48309 0.0
C426 C 0.2898 0.29614 0.80619 0.0
C427 C 0.26406 0.26923 0.79912 0.0
C428 C 0.28722 0.29371 0.81837 0.0
C429 C 0.22803 0.24521 0.84378 0.0
H430 H 0.3293 0.27233 0.85782 0.0
C431 C 0.24422 0.23069 0.89362 0.0
C432 C 0.273 0.26005 0.899 0.0
C433 C 0.24351 0.227 0.8814 0.0
C434 C 0.30077 0.2648 0.8541 0.0
H435 H 0.21422 0.21926 0.79926 0.0
H436 H 0.20909 0.21514 0.82065 0.0
H437 H 0.32398 0.27799 0.83683 0.0
H438 H 0.32424 0.30781 0.89593 0.0
H439 H 0.32389 0.30118 0.87483 0.0
H440 H 0.20494 0.23263 0.86114 0.0
C441 C 0.23114 0.23835 0.81675 0.0
C442 C 0.2977 0.26818 0.84203 0.0
C443 C 0.2337 0.24088 0.80449 0.0
C444 C 0.30251 0.28434 0.89205 0.0
C445 C 0.302 0.28063 0.8799 0.0
C446 C 0.23112 0.24199 0.85592 0.0
C447 C 0.25908 0.26405 0.82383 0.0
C448 C 0.26141 0.25904 0.83671 0.0
C449 C 0.27158 0.25265 0.87433 0.0
C450 C 0.26764 0.25226 0.86128 0.0
H451 H 0.31392 0.31797 0.80229 0.0
H452 H 0.30866 0.31438 0.82352 0.0
H453 H 0.19963 0.23788 0.84 0.0
H454 H 0.22035 0.21217 0.89873 0.0
H455 H 0.21992 0.20488 0.87747 0.0
C456 C 0.08965 0.29864 0.04779 0.0
C457 C 0.06918 0.27035 0.05512 0.0
C458 C 0.10131 0.29415 0.03662 0.0
C459 C 0.12718 0.23502 0.01955 0.0
H460 H 0.13384 0.29728 0.9944 0.0
C461 C 0.19169 0.2378 0.97221 0.0
C462 C 0.21379 0.27103 0.96767 0.0
C463 C 0.17288 0.23338 0.98311 0.0
C464 C 0.13246 0.27978 1.00134 0.0
H465 H 0.04442 0.21489 0.05642 0.0
H466 H 0.0645 0.20675 0.03666 0.0
H467 H 0.09861 0.2964 0.01212 0.0
H468 H 0.2356 0.32542 0.97127 0.0
H469 H 0.20409 0.31787 0.9902 0.0
H470 H 0.16147 0.21866 1.0086 0.0
C471 C 0.0714 0.23255 0.0396 0.0
C472 C 0.11214 0.27924 0.01154 0.0
C473 C 0.05926 0.2371 0.05083 0.0
C474 C 0.21895 0.29951 0.97457 0.0
C475 C 0.20041 0.29516 0.98536 0.0
C476 C 0.14745 0.23542 1.00924 0.0
C477 C 0.09332 0.26116 0.03243 0.0
C478 C 0.11006 0.2576 0.02095 0.0
C479 C 0.17575 0.26213 0.98957 0.0
C480 C 0.15129 0.25858 1.00015 0.0
H481 H 0.09845 0.3246 0.05096 0.0
H482 H 0.11857 0.3169 0.03152 0.0
H483 H 0.12642 0.21811 0.02661 0.0
H484 H 0.1865 0.21538 0.96697 0.0
H485 H 0.15418 0.20757 0.98611 0.0
C486 C 0.83456 0.08826 0.37158 0.0
C487 C 0.83186 0.05523 0.37361 0.0
C488 C 0.85582 0.1083 0.36212 0.0
C489 C 0.89799 0.10413 0.33321 0.0
H490 H 0.95634 0.20256 0.33785 0.0
C491 C 0.9848 0.19585 0.29522 0.0
C492 C 0.97844 0.22523 0.29407 0.0
C493 C 0.97321 0.17562 0.30544 0.0
C494 C 0.94012 0.17515 0.33635 0.0
H495 H 0.84953 0.01754 0.36696 0.0
H496 H 0.88649 0.05245 0.35043 0.0
H497 H 0.9224 0.16574 0.35426 0.0
H498 H 0.95678 0.25727 0.30293 0.0
H499 H 0.93758 0.22293 0.32066 0.0
H500 H 0.91528 0.11377 0.31521 0.0
C501 C 0.87186 0.06275 0.35617 0.0
C502 C 0.92046 0.15395 0.34579 0.0
C503 C 0.85055 0.04263 0.36569 0.0
C504 C 0.96258 0.23506 0.3036 0.0
C505 C 0.95147 0.21523 0.3138 0.0
C506 C 0.9177 0.1254 0.32373 0.0
C507 C 0.87516 0.09608 0.35432 0.0
C508 C 0.89843 0.11818 0.34434 0.0
C509 C 0.95544 0.1846 0.31476 0.0
C510 C 0.93846 0.16135 0.32511 0.0
H511 H 0.81999 0.09871 0.37727 0.0
H512 H 0.85674 0.1334 0.36086 0.0
H513 H 0.88121 0.07679 0.33169 0.0
H514 H 0.99621 0.18718 0.28795 0.0
H515 H 0.97712 0.15242 0.3059 0.0
C516 C 0.73896 0.78897 0.7185 0.0
C517 C 0.763 0.80071 0.7284 0.0
C518 C 0.74501 0.81008 0.7087 0.0
C519 C 0.81373 0.89064 0.69373 0.0
H520 H 0.71842 0.88743 0.68125 0.0
C521 C 0.81149 0.98591 0.65764 0.0
C522 C 0.78258 0.9722 0.64897 0.0
C523 C 0.81128 0.96618 0.66745 0.0
C524 C 0.74539 0.88847 0.68448 0.0
H525 H 0.81383 0.84363 0.73542 0.0
H526 H 0.82461 0.88064 0.71822 0.0
H527 H 0.71569 0.85063 0.69756 0.0
H528 H 0.73035 0.9268 0.6441 0.0
H529 H 0.73038 0.8926 0.66087 0.0
H530 H 0.84334 0.9286 0.68053 0.0
C531 C 0.801 0.85486 0.71806 0.0
C532 C 0.74382 0.86723 0.69389 0.0
C533 C 0.79495 0.83355 0.72792 0.0
C534 C 0.75338 0.93831 0.65046 0.0
C535 C 0.75314 0.9187 0.66022 0.0
C536 C 0.8153 0.91193 0.68424 0.0
C537 C 0.77522 0.84382 0.70848 0.0
C538 C 0.77786 0.8676 0.69859 0.0
C539 C 0.78202 0.93224 0.6689 0.0
C540 C 0.78106 0.91087 0.67937 0.0
H541 H 0.7142 0.7638 0.7185 0.0
H542 H 0.72517 0.80022 0.7014 0.0
H543 H 0.84055 0.89164 0.69707 0.0
H544 H 0.83466 1.01173 0.6568 0.0
H545 H 0.83386 0.97771 0.67395 0.0
C546 C 0.94017 0.73193 0.04803 0.0
C547 C 0.96144 0.76041 0.05521 0.0
C548 C 0.92838 0.7362 0.03685 0.0
C549 C 0.904 0.79579 0.01946 0.0
H550 H 0.89492 0.73183 0.99466 0.0
C551 C 0.83941 0.79268 0.9721 0.0
C552 C 0.81662 0.75945 0.96767 0.0
C553 C 0.85818 0.79706 0.98301 0.0
C554 C 0.89696 0.74979 1.0015 0.0
H555 H 0.98749 0.81597 0.0562 0.0
H556 H 0.96719 0.82373 0.03642 0.0
H557 H 0.93016 0.73268 0.01238 0.0
H558 H 0.79361 0.70507 0.97146 0.0
H559 H 0.82504 0.71256 0.99041 0.0
H560 H 0.87038 0.81268 1.00841 0.0
C561 C 0.95974 0.79794 0.0395 0.0
C562 C 0.9173 0.75032 0.0117 0.0
C563 C 0.97201 0.79359 0.05074 0.0
C564 C 0.81077 0.73098 0.97468 0.0
C565 C 0.82927 0.73529 0.98548 0.0
C566 C 0.88371 0.7954 1.00915 0.0
C567 C 0.93705 0.76918 0.03249 0.0
C568 C 0.92026 0.77261 0.02098 0.0
C569 C 0.8546 0.76826 0.98959 0.0
C570 C 0.879 0.77165 1.00018 0.0
H571 H 0.9309 0.70603 0.05133 0.0
H572 H 0.91053 0.71335 0.03188 0.0
H573 H 0.90544 0.81321 0.02642 0.0
H574 H 0.84516 0.81508 0.96677 0.0
H575 H 0.87742 0.82283 0.98593 0.0
C576 C 0.06988 0.7928 0.30436 0.0
C577 C 0.05606 0.80345 0.29453 0.0
C578 C 0.08191 0.81323 0.31441 0.0
C579 C 0.12172 0.9042 0.32371 0.0
H580 H 0.11043 0.86454 0.35465 0.0
C581 C 0.18917 0.9874 0.36556 0.0
C582 C 0.20478 0.97344 0.37402 0.0
C583 C 0.16806 0.96759 0.35596 0.0
C584 C 0.11427 0.87612 0.34607 0.0
H585 H 0.0429 0.8437 0.28776 0.0
H586 H 0.06364 0.87949 0.30544 0.0
H587 H 0.07632 0.82799 0.33822 0.0
H588 H 0.21149 0.92785 0.37858 0.0
H589 H 0.17521 0.89371 0.36201 0.0
H590 H 0.16026 0.95229 0.33158 0.0
C591 C 0.06528 0.8552 0.30531 0.0
C592 C 0.0945 0.85508 0.33661 0.0
C593 C 0.05278 0.83444 0.29524 0.0
C594 C 0.19931 0.93938 0.37245 0.0
C595 C 0.1783 0.91966 0.3629 0.0
C596 C 0.14157 0.92531 0.3332 0.0
C597 C 0.0809 0.84523 0.31495 0.0
C598 C 0.09844 0.8686 0.32523 0.0
C599 C 0.16194 0.93325 0.35455 0.0
C600 C 0.13874 0.91146 0.3445 0.0
H601 H 0.07319 0.76928 0.30407 0.0
H602 H 0.09406 0.80468 0.32153 0.0
H603 H 0.12591 0.91558 0.31508 0.0
H604 H 0.1924 1.01336 0.36648 0.0
H605 H 0.15577 0.97897 0.3498 0.0
C606 C 0.2701 0.08879 0.65112 0.0
C607 C 0.24031 0.05534 0.64929 0.0
C608 C 0.26895 0.10877 0.6606 0.0
C609 C 0.22431 0.10401 0.68985 0.0
H610 H 0.26163 0.20209 0.68507 0.0
C611 C 0.22892 0.19532 0.7279 0.0
C612 C 0.26421 0.22536 0.72885 0.0
C613 C 0.22022 0.17491 0.71773 0.0
C614 C 0.25124 0.17478 0.68661 0.0
H615 H 0.18593 0.01683 0.65631 0.0
H616 H 0.184 0.05162 0.67288 0.0
H617 H 0.25867 0.16539 0.66863 0.0
H618 H 0.31696 0.25832 0.71966 0.0
H619 H 0.30169 0.22361 0.70203 0.0
H620 H 0.21752 0.11363 0.70791 0.0
C621 C 0.20848 0.06232 0.66696 0.0
C622 C 0.24965 0.15365 0.67715 0.0
C623 C 0.20961 0.04227 0.65743 0.0
C624 C 0.28931 0.23557 0.71916 0.0
C625 C 0.28051 0.21553 0.70902 0.0
C626 C 0.22592 0.12521 0.69934 0.0
C627 C 0.23798 0.09604 0.66862 0.0
C628 C 0.23688 0.11802 0.67864 0.0
C629 C 0.24641 0.18433 0.70824 0.0
C630 C 0.24013 0.16104 0.69791 0.0
H631 H 0.29469 0.09964 0.64526 0.0
H632 H 0.29274 0.13421 0.6617 0.0
H633 H 0.21454 0.07679 0.69141 0.0
H634 H 0.20929 0.18638 0.73528 0.0
H635 H 0.19349 0.15127 0.71742 0.0
C636 C 0.94161 0.59209 0.09278 0.0
C637 C 0.96925 0.62697 0.09199 0.0
C638 C 0.95283 0.5653 0.09268 0.0
C639 C 0.03932 0.54728 0.09681 0.0
H640 H 0.97262 0.46013 0.08227 0.0
C641 C 0.08906 0.43927 0.09029 0.0
C642 C 0.06155 0.40457 0.09167 0.0
C643 C 0.07784 0.46607 0.09027 0.0
C644 C 0.99152 0.4841 0.08651 0.0
H645 H 0.03122 0.65988 0.09042 0.0
H646 H 0.05037 0.61359 0.09001 0.0
H647 H 0.95357 0.50672 0.08226 0.0
H648 H 1.00004 0.37174 0.09418 0.0
H649 H 0.98067 0.41812 0.09411 0.0
H650 H 0.07735 0.52466 0.101 0.0
C651 C 0.01983 0.60692 0.09091 0.0
C652 C 0.98051 0.51104 0.08651 0.0
C653 C 1.00864 0.63377 0.09104 0.0
C654 C 0.02229 0.39779 0.09295 0.0
C655 C 1.01106 0.42462 0.0929 0.0
C656 C 0.05038 0.52036 0.09677 0.0
C657 C 0.99216 0.57212 0.09175 0.0
C658 C 1.00415 0.5432 0.09167 0.0
C659 C 0.03864 0.45931 0.0916 0.0
C660 C 0.0267 0.48822 0.09163 0.0
H661 H 0.911 0.58511 0.09347 0.0
H662 H 0.93044 0.5391 0.09351 0.0
H663 H 0.05821 0.57118 0.10108 0.0
H664 H 0.11946 0.44593 0.08909 0.0
H665 H 0.10004 0.49218 0.08903 0.0
C666 C 0.66307 0.05153 0.42013 0.0
C667 C 0.67016 0.02782 0.41339 0.0
C668 C 0.62522 0.0488 0.421 0.0
C669 C 0.52668 1.00605 0.4069 0.0
H670 H 0.4903 0.02144 0.43687 0.0
C671 C 0.36406 0.97117 0.41499 0.0
C672 C 0.35779 0.99755 0.42022 0.0
C673 C 0.40156 0.97298 0.41482 0.0
C674 C 0.50002 0.01709 0.42842 0.0
H675 H 0.64305 0.98344 0.40197 0.0
H676 H 0.57822 0.97851 0.4036 0.0
H677 H 0.55772 0.03149 0.43472 0.0
H678 H 0.38516 0.04535 0.42991 0.0
H679 H 0.44968 0.04809 0.42984 0.0
H680 H 0.46889 0.9914 0.40064 0.0
C681 C 0.60143 0.99949 0.40813 0.0
C682 C 0.53886 0.02314 0.42716 0.0
C683 C 0.63888 1.00221 0.40727 0.0
C684 C 0.38908 0.02458 0.42581 0.0
C685 C 0.42614 0.02612 0.42581 0.0
C686 C 0.48783 0.99975 0.40818 0.0
C687 C 0.59375 0.02241 0.4151 0.0
C688 C 0.55281 0.01769 0.41638 0.0
C689 C 0.43323 1.00089 0.42006 0.0
C690 C 0.47394 1.00523 0.41896 0.0
H691 H 0.68642 0.07145 0.42499 0.0
H692 H 0.6206 0.06723 0.42634 0.0
H693 H 0.53629 1.00212 0.39838 0.0
H694 H 0.34058 0.95024 0.41051 0.0
H695 H 0.40596 0.95293 0.4104 0.0
C696 C 0.45133 0.38067 0.7679 0.0
C697 C 0.41205 0.3675 0.76446 0.0
C698 C 0.47604 0.41628 0.76787 0.0
C699 C 0.48577 0.5007 0.7559 0.0
H700 H 0.56609 0.53964 0.77945 0.0
C701 C 0.57841 0.64935 0.76094 0.0
C702 C 0.6179 0.66241 0.76411 0.0
C703 C 0.55368 0.61374 0.76096 0.0
C704 C 0.54421 0.52932 0.77269 0.0
H705 H 0.36878 0.38293 0.75826 0.0
H706 H 0.41134 0.44455 0.75844 0.0
H707 H 0.52276 0.47817 0.77962 0.0
H708 H 0.66158 0.64696 0.76986 0.0
H709 H 0.61891 0.58527 0.76972 0.0
H710 H 0.50718 0.55189 0.749 0.0
C711 C 0.4233 0.42722 0.76102 0.0
C712 C 0.51912 0.49375 0.77278 0.0
C713 C 0.39853 0.39154 0.76104 0.0
C714 C 0.63165 0.63834 0.76727 0.0
C715 C 0.60685 0.60268 0.76732 0.0
C716 C 0.51082 0.53627 0.75582 0.0
C717 C 0.4626 0.44033 0.76443 0.0
C718 C 0.48939 0.47867 0.76438 0.0
C719 C 0.56735 0.58964 0.76416 0.0
C720 C 0.54056 0.55133 0.76421 0.0
H721 H 0.46327 0.36356 0.77071 0.0
H722 H 0.50603 0.42486 0.77042 0.0
H723 H 0.46394 0.49041 0.74912 0.0
H724 H 0.56639 0.6666 0.75834 0.0
H725 H 0.52354 0.60517 0.7586 0.0
C726 C 0.40438 0.04993 0.60261 0.0
C727 C 0.37288 0.02536 0.60892 0.0
C728 C 0.43947 0.04714 0.60174 0.0
C729 C 0.49358 1.00224 0.61536 0.0
H730 H 0.54883 0.02225 0.58589 0.0
C731 C 0.62247 0.96899 0.60737 0.0
C732 C 0.65572 0.99616 0.60268 0.0
C733 C 0.5867 0.97067 0.60738 0.0
C734 C 0.53378 0.0166 0.5942 0.0
H735 H 0.35426 0.97921 0.61954 0.0
H736 H 0.41407 0.9742 0.61789 0.0
H737 H 0.49117 0.03188 0.58793 0.0
H738 H 0.67721 0.04533 0.5938 0.0
H739 H 0.61532 0.04787 0.5936 0.0
H740 H 0.53603 0.98674 0.62158 0.0
C741 C 0.41243 0.99591 0.61371 0.0
C742 C 0.50082 0.0224 0.5954 0.0
C743 C 0.37774 0.99869 0.61457 0.0
C744 C 0.65204 0.02394 0.59747 0.0
C745 C 0.61646 0.02536 0.59731 0.0
C746 C 0.52629 0.9962 0.61412 0.0
C747 C 0.44382 0.01982 0.60721 0.0
C748 C 0.48016 0.01528 0.60601 0.0
C749 C 0.58348 0.99926 0.60254 0.0
C750 C 0.54693 1.00335 0.60354 0.0
H751 H 0.40162 0.0707 0.59811 0.0
H752 H 0.46312 0.06633 0.59676 0.0
H753 H 0.47906 0.99701 0.62375 0.0
H754 H 0.62455 0.94747 0.61155 0.0
H755 H 0.56175 0.94995 0.6114 0.0
C756 C 0.36587 0.43785 0.9276 0.0
C757 C 0.35784 0.40397 0.93094 0.0
C758 C 0.40396 0.46464 0.92774 0.0
C759 C 0.50855 0.48189 0.92789 0.0
H760 H 0.52654 0.57332 0.93763 0.0
C761 C 0.66547 0.59213 0.93392 0.0
C762 C 0.67293 0.62624 0.93123 0.0
C763 C 0.62739 0.56532 0.934 0.0
C764 C 0.52225 0.54814 0.93472 0.0
H765 H 0.38537 0.37283 0.93715 0.0
H766 H 0.45115 0.41916 0.9373 0.0
H767 H 0.46073 0.52679 0.93752 0.0
H768 H 0.64506 0.65818 0.92635 0.0
H769 H 0.57915 0.61175 0.92635 0.0
H770 H 0.56993 0.50321 0.92498 0.0
C771 C 0.42782 0.42491 0.93446 0.0
C772 C 0.4842 0.52123 0.93467 0.0
C773 C 0.38968 0.3981 0.93438 0.0
C774 C 0.64081 0.63253 0.92863 0.0
C775 C 0.6027 0.60568 0.92865 0.0
C776 C 0.54658 0.50883 0.92788 0.0
C777 C 0.43569 0.45872 0.93116 0.0
C778 C 0.4766 0.48758 0.93126 0.0
C779 C 0.59519 0.57149 0.93132 0.0
C780 C 0.55424 0.54253 0.93131 0.0
H781 H 0.34286 0.44394 0.92475 0.0
H782 H 0.40855 0.49003 0.92495 0.0
H783 H 0.50415 0.45664 0.92501 0.0
H784 H 0.68907 0.58607 0.93616 0.0
H785 H 0.62326 0.53974 0.93634 0.0
C786 C 0.08864 0.64994 0.25521 0.0
C787 C 0.0624 0.66295 0.25861 0.0
C788 C 0.07785 0.61437 0.25525 0.0
C789 C 1.00313 0.52977 0.26719 0.0
H790 H 0.04519 0.49114 0.24378 0.0
C791 C 0.94757 0.38121 0.26209 0.0
C792 C 0.97421 0.36834 0.25903 0.0
C793 C 0.95838 0.41679 0.2621 0.0
C794 C 0.03343 0.50138 0.2505 0.0
H795 H 1.00357 0.64726 0.26476 0.0
H796 H 0.98467 0.5857 0.26459 0.0
H797 H 0.06308 0.55253 0.24357 0.0
H798 H 0.03365 0.38404 0.25352 0.0
H799 H 0.05253 0.44572 0.25368 0.0
H800 H 0.97334 0.47854 0.27408 0.0
C801 C 1.014 0.60314 0.26203 0.0
C802 C 0.04378 0.5369 0.25038 0.0
C803 C 0.0248 0.63878 0.26201 0.0
C804 C 1.01219 0.39255 0.25602 0.0
C805 C 0.02297 0.42819 0.25598 0.0
C806 C 0.99272 0.49423 0.26729 0.0
C807 C 0.04032 0.59018 0.25866 0.0
C808 C 0.02889 0.55187 0.25873 0.0
C809 C 0.99626 0.44103 0.25902 0.0
C810 C 1.00766 0.4793 0.25895 0.0
H811 H 0.11773 0.66716 0.25242 0.0
H812 H 0.09937 0.60592 0.25273 0.0
H813 H 0.9914 0.53997 0.27393 0.0
H814 H 0.91819 0.36381 0.26458 0.0
H815 H 0.93665 0.42522 0.26437 0.0
C816 C 0.0685 0.14637 0.10794 0.0
C817 C 0.0706 0.1644 0.09752 0.0
C818 C 0.05532 0.11046 0.1079 0.0
C819 C 0.04329 0.03689 0.08907 0.0
H820 H 0.96657 0.98128 0.11187 0.0
C821 C 0.97352 0.8871 0.08696 0.0
C822 C 0.96128 0.86795 0.09736 0.0
C823 C 0.986 0.92291 0.0869 0.0
C824 C 0.98851 0.99618 0.10554 0.0
H825 H 0.06115 0.15851 0.07884 0.0
H826 H 0.0391 0.09606 0.07871 0.0
H827 H 0.99112 0.04361 0.11207 0.0
H828 H 0.95333 0.87196 0.11592 0.0
H829 H 0.97623 0.9341 0.11597 0.0
H830 H 0.04196 0.98998 0.08273 0.0
C831 C 0.04735 0.10969 0.08695 0.0
C832 C 1.00248 0.03217 0.10564 0.0
C833 C 0.05982 0.14551 0.08702 0.0
C834 C 0.96189 0.8857 0.10771 0.0
C835 C 0.97503 0.9216 0.1077 0.0
C836 C 0.02986 1.00096 0.08909 0.0
C837 C 0.04451 0.09155 0.0974 0.0
C838 C 0.02998 0.05309 0.09738 0.0
C839 C 0.98743 0.94103 0.09729 0.0
C840 C 1.00202 0.97977 0.09729 0.0
H841 H 0.0761 0.1599 0.1162 0.0
H842 H 0.05379 0.09748 0.11611 0.0
H843 H 0.06478 0.05213 0.08265 0.0
H844 H 0.97311 0.87427 0.07881 0.0
H845 H 0.99423 0.93624 0.07861 0.0
C846 C 0.9068 0.05218 0.43498 0.0
C847 C 0.89464 0.05878 0.42408 0.0
C848 C 0.93922 0.04548 0.4358 0.0
C849 C 0.98174 1.00243 0.41795 0.0
H850 H 0.06602 0.03263 0.44033 0.0
C851 C 0.11047 0.9697 0.41304 0.0
C852 C 0.13301 0.97077 0.4228 0.0
C853 C 0.07798 0.97596 0.41419 0.0
C854 C 0.04215 0.02323 0.43417 0.0
H855 H 0.90842 0.06611 0.40567 0.0
H856 H 0.96527 0.05503 0.40708 0.0
H857 H 0.0212 0.05867 0.44045 0.0
H858 H 0.13781 0.97688 0.44156 0.0
H859 H 0.07955 0.98567 0.44378 0.0
H860 H 1.0014 0.96633 0.41185 0.0
C861 C 0.94984 0.055 0.41501 0.0
C862 C 0.01678 0.03856 0.43417 0.0
C863 C 0.9178 0.06211 0.41423 0.0
C864 C 0.12027 0.97489 0.43392 0.0
C865 C 0.08747 0.98092 0.43512 0.0
C866 C 1.00657 0.9867 0.41808 0.0
C867 C 0.95955 0.04473 0.42568 0.0
C868 C 0.98678 0.02878 0.4259 0.0
C869 C 0.0671 0.98342 0.4252 0.0
C870 C 0.03767 0.99725 0.42604 0.0
H871 H 0.88872 0.04829 0.44263 0.0
H872 H 0.94598 0.03761 0.44414 0.0
H873 H 0.95821 0.99367 0.41167 0.0
H874 H 0.12042 0.96776 0.40433 0.0
H875 H 0.06363 0.97792 0.40629 0.0
C876 C 0.15379 0.10906 0.76062 0.0
C877 C 0.17534 0.11924 0.77106 0.0
C878 C 0.1152 0.08319 0.7606 0.0
C879 C 0.02871 0.04068 0.77961 0.0
H880 H 0.99293 0.96899 0.7561 0.0
C881 C 0.87294 0.92653 0.78159 0.0
C882 C 0.85439 0.91034 0.77116 0.0
C883 C 0.91177 0.95197 0.78158 0.0
C884 C 1.00191 0.98906 0.76264 0.0
H885 H 0.17253 0.11002 0.78972 0.0
H886 H 0.10523 0.06531 0.78973 0.0
H887 H 0.06025 1.01269 0.75599 0.0
H888 H 0.8622 0.90922 0.75248 0.0
H889 H 0.92891 0.95428 0.75231 0.0
H890 H 0.97042 0.018 0.78609 0.0
C891 C 0.1183 0.07723 0.78151 0.0
C892 C 0.04088 1.01415 0.76259 0.0
C893 C 0.15712 0.10267 0.78149 0.0
C894 C 0.87561 0.92088 0.76069 0.0
C895 C 0.91421 0.94668 0.76063 0.0
C896 C 0.98958 0.01592 0.77955 0.0
C897 C 0.09669 0.06712 0.77107 0.0
C898 C 0.05497 0.04029 0.77111 0.0
C899 C 0.93331 0.96253 0.7711 0.0
C900 C 0.97534 0.98948 0.77109 0.0
H901 H 0.16684 0.12116 0.75242 0.0
H902 H 0.09954 0.07632 0.7524 0.0
H903 H 0.03825 0.06063 0.78622 0.0
H904 H 0.85785 0.91876 0.78986 0.0
H905 H 0.92506 0.96268 0.78989 0.0
C906 C 0.87234 0.97696 0.58877 0.0
C907 C 0.85528 0.97211 0.5999 0.0
C908 C 0.91168 0.98452 0.58758 0.0
C909 C 0.99999 0.03213 0.60402 0.0
H910 H 0.05142 0.99686 0.58254 0.0
C911 C 0.16149 0.06398 0.60845 0.0
C912 C 0.18167 0.06013 0.5988 0.0
C913 C 0.12287 0.05834 0.60735 0.0
C914 C 0.0377 1.00769 0.58842 0.0
H915 H 0.86498 0.96897 0.61838 0.0
H916 H 0.93317 0.98146 0.61632 0.0
H917 H 0.98054 0.9711 0.58301 0.0
H918 H 0.17841 0.05003 0.58024 0.0
H919 H 0.11186 0.04249 0.57807 0.0
H920 H 0.05652 0.06922 0.60928 0.0
C921 C 0.91637 0.97951 0.60851 0.0
C922 C 0.99697 0.99255 0.58875 0.0
C923 C 0.87711 0.97163 0.60967 0.0
C924 C 0.16389 0.05414 0.58777 0.0
C925 C 0.12529 0.04881 0.58661 0.0
C926 C 0.04057 0.04764 0.60355 0.0
C927 C 0.93457 0.98786 0.59753 0.0
C928 C 0.97772 1.00413 0.59675 0.0
C929 C 0.10349 0.04882 0.59652 0.0
C930 C 0.06018 0.03525 0.59592 0.0
H931 H 0.85656 0.97868 0.58115 0.0
H932 H 0.92495 0.99086 0.57901 0.0
H933 H 0.98594 0.04221 0.61008 0.0
H934 H 0.17404 0.06737 0.61712 0.0
H935 H 0.1074 0.0584 0.61524 0.0
C936 C 0.93861 0.8846 0.91496 0.0
C937 C 0.92226 0.86665 0.92537 0.0
C938 C 0.96125 0.92053 0.91498 0.0
C939 C 0.02164 0.99449 0.9339 0.0
H940 H 1.00154 0.04948 0.91063 0.0
C941 C 0.1008 0.14432 0.93581 0.0
C942 C 0.10851 0.16328 0.92535 0.0
C943 C 0.07756 0.10848 0.93589 0.0
C944 C 1.00828 0.03475 0.9171 0.0
H945 H 0.9179 0.87272 0.944 0.0
H946 H 0.9581 0.9352 0.9441 0.0
H947 H 0.96398 0.9871 0.91048 0.0
H948 H 0.09798 0.15888 0.90671 0.0
H949 H 0.05883 0.09671 0.90671 0.0
H950 H 0.06669 0.04164 0.94034 0.0
C951 C 0.95313 0.92149 0.93588 0.0
C952 C 0.9864 0.99873 0.91703 0.0
C953 C 0.9299 0.88565 0.93583 0.0
C954 C 0.09219 0.14531 0.91496 0.0
C955 C 0.06948 0.10939 0.915 0.0
C956 C 0.04399 0.03045 0.93386 0.0
C957 C 0.96884 0.93956 0.92544 0.0
C958 C 0.99263 0.97804 0.92545 0.0
C959 C 0.06172 0.09016 0.92546 0.0
C960 C 0.0377 0.0514 0.92549 0.0
H961 H 0.93306 0.87098 0.90672 0.0
H962 H 0.97303 0.93344 0.90678 0.0
H963 H 0.02762 0.97944 0.94044 0.0
H964 H 0.11258 0.15731 0.94399 0.0
H965 H 0.07186 0.09529 0.94421 0.0
C966 C 0.06177 0.92088 0.26252 0.0
C967 C 0.07304 0.91069 0.25207 0.0
C968 C 0.04917 0.94678 0.26255 0.0
C969 C 1.00528 0.98942 0.2436 0.0
H970 H 0.04198 0.06127 0.26705 0.0
C971 C 0.96436 0.10378 0.24158 0.0
C972 C 0.96241 0.12023 0.25199 0.0
C973 C 0.97757 0.07827 0.24161 0.0
C974 C 0.03065 0.04116 0.26053 0.0
H975 H 0.07934 0.91992 0.23341 0.0
H976 H 0.05693 0.96466 0.23343 0.0
H977 H 0.06523 0.0174 0.26715 0.0
H978 H 0.97192 0.12175 0.27065 0.0
H979 H 0.99324 0.07655 0.27085 0.0
H980 H 0.96978 1.01219 0.23714 0.0
C981 C 0.0581 0.95274 0.24164 0.0
C982 C 0.04433 0.01597 0.26056 0.0
C983 C 0.07136 0.92727 0.24164 0.0
C984 C 0.97335 0.10989 0.26246 0.0
C985 C 0.98596 0.084 0.26253 0.0
C986 C 0.99109 1.01426 0.24366 0.0
C987 C 0.04673 0.96288 0.25209 0.0
C988 C 0.03201 0.98978 0.25207 0.0
C989 C 0.98877 0.06787 0.25208 0.0
C990 C 1.00359 0.04078 0.2521 0.0
H991 H 0.06274 0.90877 0.27071 0.0
H992 H 0.04047 0.95366 0.27076 0.0
H993 H 0.99465 0.96942 0.23701 0.0
H994 H 0.95684 0.11139 0.23332 0.0
H995 H 0.97983 0.06737 0.23331 0.0
loop_
_geom_bond_atom_site_label_1
_geom_bond_atom_site_label_2
_geom_bond_distance
_geom_bond_site_symmetry_2
_ccdc_geom_bond_type
Cu0 N1 1.999 . S
Cu0 O6 1.974 1_655 S
Cu0 N11 1.993 1_655 S
Cu0 O20 1.959 . S
N1 Cu0 1.999 . S
N1 C3 1.263 1_655 S
N1 C5 1.389 . S
N2 C3 1.358 1_655 S
N2 C4 1.400 . S
C3 N1 1.263 1_455 S
C3 N2 1.358 1_455 S
C3 H9 0.930 . S
C4 N2 1.400 . S
C4 C5 1.351 . S
C4 H21 0.930 . S
C5 N1 1.389 . S
C5 C4 1.351 . S
C5 H10 0.930 . S
O6 Cu0 1.974 1_455 S
O6 C16 1.282 . S
C7 O8 1.244 1_655 S
C7 O20 1.263 . S
O8 C7 1.244 1_455 S
H9 C3 0.930 . S
H10 C5 0.930 . S
N11 Cu0 1.993 1_455 S
N11 C13 1.313 1_455 S
N11 C14 1.400 . S
N12 C13 1.345 1_455 S
N12 C15 1.335 . S
C13 N11 1.313 1_655 S
C13 N12 1.345 1_655 S
C13 H18 0.930 . S
C14 N11 1.400 . S
C14 C15 1.346 . S
C14 H19 0.930 . S
C15 N12 1.335 . S
C15 C14 1.346 . S
C15 H22 0.929 . S
C16 O6 1.282 . S
C16 O17 1.216 . S
O17 C16 1.216 . S
H18 C13 0.930 . S
H19 C14 0.930 . S
O20 Cu0 1.959 . S
O20 C7 1.263 . S
H21 C4 0.930 . S
H22 C15 0.929 . S
Cu23 N24 1.999 . S
Cu23 O29 1.974 . S
Cu23 N34 1.985 . S
Cu23 O43 1.959 . S
N24 Cu23 1.999 . S
N24 C26 1.263 . S
N24 C28 1.389 . S
N25 C26 1.358 . S
N25 C27 1.400 . S
C26 N24 1.263 . S
C26 N25 1.358 . S
C26 H32 0.930 . S
C27 N25 1.400 . S
C27 C28 1.351 . S
C27 H44 0.930 . S
C28 N24 1.389 . S
C28 C27 1.351 . S
C28 H33 0.930 . S
O29 Cu23 1.974 . S
O29 C39 1.282 . S
C30 O31 1.261 1_545 S
C30 O43 1.251 . S
O31 C30 1.261 1_565 S
H32 C26 0.930 . S
H33 C28 0.930 . S
N34 Cu23 1.985 . S
N34 C36 1.335 . S
N34 C37 1.390 . S
N35 C36 1.345 . S
N35 C38 1.336 . S
C36 N34 1.335 . S
C36 N35 1.345 . S
C36 H41 0.930 . S
C37 N34 1.390 . S
C37 C38 1.346 . S
C37 H42 0.930 . S
C38 N35 1.336 . S
C38 C37 1.346 . S
C38 H45 0.929 . S
C39 O29 1.282 . S
C39 O40 1.216 1_545 S
O40 C39 1.216 1_565 S
H41 C36 0.930 . S
H42 C37 0.930 . S
O43 Cu23 1.959 . S
O43 C30 1.251 . S
H44 C27 0.930 . S
H45 C38 0.929 . S
Cu46 N47 1.999 . S
Cu46 O52 1.974 . S
Cu46 N57 1.985 . S
Cu46 O66 1.959 . S
N47 Cu46 1.999 . S
N47 C49 1.263 . S
N47 C51 1.389 . S
N48 C49 1.358 . S
N48 C50 1.400 . S
C49 N47 1.263 . S
C49 N48 1.358 . S
C49 H55 0.930 . S
C50 N48 1.400 . S
C50 C51 1.351 . S
C50 H67 0.930 . S
C51 N47 1.389 . S
C51 C50 1.351 . S
C51 H56 0.930 . S
O52 Cu46 1.974 . S
O52 C62 1.282 . S
C53 O54 1.261 . S
C53 O66 1.251 . S
O54 C53 1.261 . S
H55 C49 0.930 . S
H56 C51 0.930 . S
N57 Cu46 1.985 . S
N57 C59 1.335 . S
N57 C60 1.390 . S
N58 C59 1.345 . S
N58 C61 1.336 . S
C59 N57 1.335 . S
C59 N58 1.345 . S
C59 H64 0.930 . S
C60 N57 1.390 . S
C60 C61 1.346 . S
C60 H65 0.930 . S
C61 N58 1.336 . S
C61 C60 1.346 . S
C61 H68 0.929 . S
C62 O52 1.282 . S
C62 O63 1.216 . S
O63 C62 1.216 . S
H64 C59 0.930 . S
H65 C60 0.930 . S
O66 Cu46 1.959 . S
O66 C53 1.251 . S
H67 C50 0.930 . S
H68 C61 0.929 . S
Cu69 N70 1.999 . S
Cu69 O75 1.974 1_455 S
Cu69 N80 1.993 1_455 S
Cu69 O89 1.959 . S
N70 Cu69 1.999 . S
N70 C72 1.263 1_455 S
N70 C74 1.389 . S
N71 C72 1.358 1_455 S
N71 C73 1.400 . S
C72 N70 1.263 1_655 S
C72 N71 1.358 1_655 S
C72 H78 0.930 . S
C73 N71 1.400 . S
C73 C74 1.351 . S
C73 H90 0.930 . S
C74 N70 1.389 . S
C74 C73 1.351 . S
C74 H79 0.930 . S
O75 Cu69 1.974 1_655 S
O75 C85 1.282 . S
C76 O77 1.246 1_455 S
C76 O89 1.262 . S
O77 C76 1.246 1_655 S
H78 C72 0.930 . S
H79 C74 0.930 . S
N80 Cu69 1.993 1_655 S
N80 C82 1.313 1_655 S
N80 C83 1.400 . S
N81 C82 1.345 1_655 S
N81 C84 1.336 . S
C82 N80 1.313 1_455 S
C82 N81 1.345 1_455 S
C82 H87 0.930 . S
C83 N80 1.400 . S
C83 C84 1.346 . S
C83 H88 0.930 . S
C84 N81 1.336 . S
C84 C83 1.346 . S
C84 H91 0.929 . S
C85 O75 1.282 . S
C85 O86 1.216 . S
O86 C85 1.216 . S
H87 C82 0.930 . S
H88 C83 0.930 . S
O89 Cu69 1.959 . S
O89 C76 1.262 . S
H90 C73 0.930 . S
H91 C84 0.929 . S
Cu92 N93 1.999 . S
Cu92 O98 1.974 . S
Cu92 N103 1.985 . S
Cu92 O112 1.959 . S
N93 Cu92 1.999 . S
N93 C95 1.263 . S
N93 C97 1.389 . S
N94 C95 1.358 . S
N94 C96 1.400 . S
C95 N93 1.263 . S
C95 N94 1.358 . S
C95 H101 0.930 . S
C96 N94 1.400 . S
C96 C97 1.351 . S
C96 H113 0.930 . S
C97 N93 1.389 . S
C97 C96 1.351 . S
C97 H102 0.930 . S
O98 Cu92 1.974 . S
O98 C108 1.282 . S
C99 O100 1.261 1_565 S
C99 O112 1.251 . S
O100 C99 1.261 1_545 S
H101 C95 0.930 . S
H102 C97 0.930 . S
N103 Cu92 1.985 . S
N103 C105 1.335 . S
N103 C106 1.390 . S
N104 C105 1.345 . S
N104 C107 1.336 . S
C105 N103 1.335 . S
C105 N104 1.345 . S
C105 H110 0.930 . S
C106 N103 1.390 . S
C106 C107 1.346 . S
C106 H111 0.930 . S
C107 N104 1.336 . S
C107 C106 1.346 . S
C107 H114 0.929 . S
C108 O98 1.282 . S
C108 O109 1.216 1_565 S
O109 C108 1.216 1_545 S
H110 C105 0.930 . S
H111 C106 0.930 . S
O112 Cu92 1.959 . S
O112 C99 1.251 . S
H113 C96 0.930 . S
H114 C107 0.929 . S
Cu115 N116 1.999 . S
Cu115 O121 1.974 . S
Cu115 N126 1.985 . S
Cu115 O135 1.959 . S
N116 Cu115 1.999 . S
N116 C118 1.263 . S
N116 C120 1.389 . S
N117 C118 1.358 . S
N117 C119 1.400 . S
C118 N116 1.263 . S
C118 N117 1.358 . S
C118 H124 0.930 . S
C119 N117 1.400 . S
C119 C120 1.351 . S
C119 H136 0.930 . S
C120 N116 1.389 . S
C120 C119 1.351 . S
C120 H125 0.930 . S
O121 Cu115 1.974 . S
O121 C131 1.282 . S
C122 O123 1.261 . S
C122 O135 1.251 . S
O123 C122 1.261 . S
H124 C118 0.930 . S
H125 C120 0.930 . S
N126 Cu115 1.985 . S
N126 C128 1.335 . S
N126 C129 1.390 . S
N127 C128 1.345 . S
N127 C130 1.336 . S
C128 N126 1.335 . S
C128 N127 1.345 . S
C128 H133 0.930 . S
C129 N126 1.390 . S
C129 C130 1.346 . S
C129 H134 0.930 . S
C130 N127 1.336 . S
C130 C129 1.346 . S
C130 H137 0.929 . S
C131 O121 1.282 . S
C131 O132 1.216 . S
O132 C131 1.216 . S
H133 C128 0.930 . S
H134 C129 0.930 . S
O135 Cu115 1.959 . S
O135 C122 1.251 . S
H136 C119 0.930 . S
H137 C130 0.929 . S
Cu138 N139 1.999 . S
Cu138 O144 1.974 . S
Cu138 N149 1.985 . S
Cu138 O158 1.959 . S
N139 Cu138 1.999 . S
N139 C141 1.263 . S
N139 C143 1.389 . S
N140 C141 1.358 . S
N140 C142 1.400 . S
C141 N139 1.263 . S
C141 N140 1.358 . S
C141 H147 0.930 . S
C142 N140 1.400 . S
C142 C143 1.351 . S
C142 H159 0.930 . S
C143 N139 1.389 . S
C143 C142 1.351 . S
C143 H148 0.930 . S
O144 Cu138 1.974 . S
O144 C154 1.282 . S
C145 O146 1.261 1_565 S
C145 O158 1.251 . S
O146 C145 1.261 1_545 S
H147 C141 0.930 . S
H148 C143 0.930 . S
N149 Cu138 1.985 . S
N149 C151 1.335 . S
N149 C152 1.390 . S
N150 C151 1.345 . S
N150 C153 1.336 . S
C151 N149 1.335 . S
C151 N150 1.345 . S
C151 H156 0.930 . S
C152 N149 1.390 . S
C152 C153 1.346 . S
C152 H157 0.930 . S
C153 N150 1.336 . S
C153 C152 1.346 . S
C153 H160 0.929 . S
C154 O144 1.282 . S
C154 O155 1.216 1_565 S
O155 C154 1.216 1_545 S
H156 C151 0.930 . S
H157 C152 0.930 . S
O158 Cu138 1.959 . S
O158 C145 1.251 . S
H159 C142 0.930 . S
H160 C153 0.929 . S
Cu161 N162 1.999 . S
Cu161 O167 1.974 . S
Cu161 N172 1.985 . S
Cu161 O181 1.959 . S
N162 Cu161 1.999 . S
N162 C164 1.263 . S
N162 C166 1.389 . S
N163 C164 1.358 . S
N163 C165 1.400 . S
C164 N162 1.263 . S
C164 N163 1.358 . S
C164 H170 0.930 . S
C165 N163 1.400 . S
C165 C166 1.351 . S
C165 H182 0.930 . S
C166 N162 1.389 . S
C166 C165 1.351 . S
C166 H171 0.930 . S
O167 Cu161 1.974 . S
O167 C177 1.282 . S
C168 O169 1.261 . S
C168 O181 1.251 . S
O169 C168 1.261 . S
H170 C164 0.930 . S
H171 C166 0.930 . S
N172 Cu161 1.985 . S
N172 C174 1.335 . S
N172 C175 1.390 . S
N173 C174 1.345 . S
N173 C176 1.336 . S
C174 N172 1.335 . S
C174 N173 1.345 . S
C174 H179 0.930 . S
C175 N172 1.390 . S
C175 C176 1.346 . S
C175 H180 0.930 . S
C176 N173 1.336 . S
C176 C175 1.346 . S
C176 H183 0.929 . S
C177 O167 1.282 . S
C177 O178 1.216 . S
O178 C177 1.216 . S
H179 C174 0.930 . S
H180 C175 0.930 . S
O181 Cu161 1.959 . S
O181 C168 1.251 . S
H182 C165 0.930 . S
H183 C176 0.929 . S
Cu184 N185 1.999 . S
Cu184 O190 1.974 1_655 S
Cu184 N195 1.985 1_655 S
Cu184 O204 1.959 . S
N185 Cu184 1.999 . S
N185 C187 1.263 1_655 S
N185 C189 1.389 . S
N186 C187 1.358 1_655 S
N186 C188 1.400 . S
C187 N185 1.263 1_455 S
C187 N186 1.358 1_455 S
C187 H193 0.930 . S
C188 N186 1.400 . S
C188 C189 1.351 . S
C188 H205 0.930 . S
C189 N185 1.389 . S
C189 C188 1.351 . S
C189 H194 0.930 . S
O190 Cu184 1.974 1_455 S
O190 C200 1.282 . S
C191 O192 1.261 . S
C191 O204 1.251 1_455 S
O192 C191 1.261 . S
H193 C187 0.930 . S
H194 C189 0.930 . S
N195 Cu184 1.985 1_455 S
N195 C197 1.335 1_455 S
N195 C198 1.390 . S
N196 C197 1.345 1_455 S
N196 C199 1.336 . S
C197 N195 1.335 1_655 S
C197 N196 1.345 1_655 S
C197 H202 0.930 . S
C198 N195 1.390 . S
C198 C199 1.346 . S
C198 H203 0.930 . S
C199 N196 1.336 . S
C199 C198 1.346 . S
C199 H206 0.929 . S
C200 O190 1.282 . S
C200 O201 1.216 . S
O201 C200 1.216 . S
H202 C197 0.930 . S
H203 C198 0.930 . S
O204 Cu184 1.959 . S
O204 C191 1.251 1_655 S
H205 C188 0.930 . S
H206 C199 0.929 . S
Cu207 N208 1.999 . S
Cu207 O213 1.974 . S
Cu207 N218 1.985 . S
Cu207 O227 1.959 . S
N208 Cu207 1.999 . S
N208 C210 1.263 . S
N208 C212 1.389 . S
N209 C210 1.358 . S
N209 C211 1.400 . S
C210 N208 1.263 . S
C210 N209 1.358 . S
C210 H216 0.930 . S
C211 N209 1.400 . S
C211 C212 1.351 . S
C211 H228 0.930 . S
C212 N208 1.389 . S
C212 C211 1.351 . S
C212 H217 0.930 . S
O213 Cu207 1.974 . S
O213 C223 1.282 . S
C214 O215 1.261 1_545 S
C214 O227 1.251 . S
O215 C214 1.261 1_565 S
H216 C210 0.930 . S
H217 C212 0.930 . S
N218 Cu207 1.985 . S
N218 C220 1.335 . S
N218 C221 1.390 . S
N219 C220 1.345 . S
N219 C222 1.336 . S
C220 N218 1.335 . S
C220 N219 1.345 . S
C220 H225 0.930 . S
C221 N218 1.390 . S
C221 C222 1.346 . S
C221 H226 0.930 . S
C222 N219 1.336 . S
C222 C221 1.346 . S
C222 H229 0.929 . S
C223 O213 1.282 . S
C223 O224 1.216 1_545 S
O224 C223 1.216 1_565 S
H225 C220 0.930 . S
H226 C221 0.930 . S
O227 Cu207 1.959 . S
O227 C214 1.251 . S
H228 C211 0.930 . S
H229 C222 0.929 . S
Cu230 N231 1.999 . S
Cu230 O236 1.974 . S
Cu230 N241 1.985 . S
Cu230 O250 1.959 . S
N231 Cu230 1.999 . S
N231 C233 1.263 . S
N231 C235 1.389 . S
N232 C233 1.358 . S
N232 C234 1.400 . S
C233 N231 1.263 . S
C233 N232 1.358 . S
C233 H239 0.930 . S
C234 N232 1.400 . S
C234 C235 1.351 . S
C234 H251 0.930 . S
C235 N231 1.389 . S
C235 C234 1.351 . S
C235 H240 0.930 . S
O236 Cu230 1.974 . S
O236 C246 1.282 . S
C237 O238 1.261 . S
C237 O250 1.251 . S
O238 C237 1.261 . S
H239 C233 0.930 . S
H240 C235 0.930 . S
N241 Cu230 1.985 . S
N241 C243 1.335 . S
N241 C244 1.390 . S
N242 C243 1.345 . S
N242 C245 1.336 . S
C243 N241 1.335 . S
C243 N242 1.345 . S
C243 H248 0.930 . S
C244 N241 1.390 . S
C244 C245 1.346 . S
C244 H249 0.930 . S
C245 N242 1.336 . S
C245 C244 1.346 . S
C245 H252 0.929 . S
C246 O236 1.282 . S
C246 O247 1.216 . S
O247 C246 1.216 . S
H248 C243 0.930 . S
H249 C244 0.930 . S
O250 Cu230 1.959 . S
O250 C237 1.251 . S
H251 C234 0.930 . S
H252 C245 0.929 . S
Cu253 N254 1.999 . S
Cu253 O259 1.974 1_455 S
Cu253 N264 1.985 1_455 S
Cu253 O273 1.959 . S
N254 Cu253 1.999 . S
N254 C256 1.263 1_455 S
N254 C258 1.389 . S
N255 C256 1.358 1_455 S
N255 C257 1.400 . S
C256 N254 1.263 1_655 S
C256 N255 1.358 1_655 S
C256 H262 0.930 . S
C257 N255 1.400 . S
C257 C258 1.351 . S
C257 H274 0.930 . S
C258 N254 1.389 . S
C258 C257 1.351 . S
C258 H263 0.930 . S
O259 Cu253 1.974 1_655 S
O259 C269 1.282 . S
C260 O261 1.261 . S
C260 O273 1.251 1_655 S
O261 C260 1.261 . S
H262 C256 0.930 . S
H263 C258 0.930 . S
N264 Cu253 1.985 1_655 S
N264 C266 1.335 1_655 S
N264 C267 1.390 . S
N265 C266 1.345 1_655 S
N265 C268 1.336 . S
C266 N264 1.335 1_455 S
C266 N265 1.345 1_455 S
C266 H271 0.930 . S
C267 N264 1.390 . S
C267 C268 1.346 . S
C267 H272 0.930 . S
C268 N265 1.336 . S
C268 C267 1.346 . S
C268 H275 0.929 . S
C269 O259 1.282 . S
C269 O270 1.216 . S
O270 C269 1.216 . S
H271 C266 0.930 . S
H272 C267 0.930 . S
O273 Cu253 1.959 . S
O273 C260 1.251 1_455 S
H274 C257 0.930 . S
H275 C268 0.929 . S
C276 C277 1.349 1_455 S
C276 C278 1.327 . S
C276 H301 0.950 . S
C277 C276 1.349 1_655 S
C277 C293 1.349 . S
C278 C276 1.327 . S
C278 C297 1.429 1_455 S
C278 H302 0.950 . S
C279 C296 1.574 . S
C279 C298 1.368 . S
C279 H303 0.949 . S
H280 C284 0.949 . S
C281 C282 1.349 . S
C281 C283 1.327 . S
C281 H304 0.950 . S
C282 C281 1.349 . S
C282 C294 1.349 1_655 S
C283 C281 1.327 . S
C283 C299 1.429 . S
C283 H305 0.950 . S
C284 H280 0.949 . S
C284 C292 1.574 . S
C284 C300 1.368 1_455 S
H285 C293 0.950 . S
H286 C291 0.950 . S
H287 C292 0.949 . S
H288 C294 0.950 . S
H289 C295 0.950 . S
H290 C296 0.949 . S
C291 H286 0.950 . S
C291 C293 1.327 . S
C291 C297 1.429 . S
C292 C284 1.574 . S
C292 H287 0.949 . S
C292 C298 1.368 1_455 S
C293 C277 1.349 . S
C293 H285 0.950 . S
C293 C291 1.327 . S
C294 C282 1.349 1_455 S
C294 H288 0.950 . S
C294 C295 1.327 . S
C295 H289 0.950 . S
C295 C294 1.327 . S
C295 C299 1.429 1_455 S
C296 C279 1.574 . S
C296 H290 0.949 . S
C296 C300 1.368 . S
C297 C278 1.429 1_655 S
C297 C291 1.429 . S
C297 C298 1.523 . S
C298 C279 1.368 . S
C298 C292 1.368 1_655 S
C298 C297 1.523 . S
C299 C283 1.429 . S
C299 C295 1.429 1_655 S
C299 C300 1.523 . S
C300 C284 1.368 1_655 S
C300 C296 1.368 . S
C300 C299 1.523 . S
H301 C276 0.950 . S
H302 C278 0.950 . S
H303 C279 0.949 . S
H304 C281 0.950 . S
H305 C283 0.950 . S
C306 C307 1.349 1_565 S
C306 C308 1.327 . S
C306 H331 0.950 . S
C307 C306 1.349 1_545 S
C307 C323 1.349 . S
C308 C306 1.327 . S
C308 C327 1.429 1_565 S
C308 H332 0.950 . S
C309 C326 1.574 . S
C309 C328 1.368 . S
C309 H333 0.949 . S
H310 C314 0.949 . S
C311 C312 1.349 1_545 S
C311 C313 1.327 . S
C311 H334 0.950 . S
C312 C311 1.349 1_565 S
C312 C324 1.349 . S
C313 C311 1.327 . S
C313 C329 1.429 1_545 S
C313 H335 0.950 . S
C314 H310 0.949 . S
C314 C322 1.574 . S
C314 C330 1.368 . S
H315 C323 0.950 . S
H316 C321 0.950 . S
H317 C322 0.949 . S
H318 C324 0.950 . S
H319 C325 0.950 . S
H320 C326 0.949 . S
C321 H316 0.950 . S
C321 C323 1.327 . S
C321 C327 1.429 . S
C322 C314 1.574 . S
C322 H317 0.949 . S
C322 C328 1.368 1_565 S
C323 C307 1.349 . S
C323 H315 0.950 . S
C323 C321 1.327 . S
C324 C312 1.349 . S
C324 H318 0.950 . S
C324 C325 1.327 . S
C325 H319 0.950 . S
C325 C324 1.327 . S
C325 C329 1.429 . S
C326 C309 1.574 . S
C326 H320 0.949 . S
C326 C330 1.368 1_545 S
C327 C308 1.429 1_545 S
C327 C321 1.429 . S
C327 C328 1.523 . S
C328 C309 1.368 . S
C328 C322 1.368 1_545 S
C328 C327 1.523 . S
C329 C313 1.429 1_565 S
C329 C325 1.429 . S
C329 C330 1.523 . S
C330 C314 1.368 . S
C330 C326 1.368 1_565 S
C330 C329 1.523 . S
H331 C306 0.950 . S
H332 C308 0.950 . S
H333 C309 0.949 . S
H334 C311 0.950 . S
H335 C313 0.950 . S
C336 C337 1.349 . S
C336 C338 1.327 . S
C336 H361 0.950 . S
C337 C336 1.349 . S
C337 C353 1.349 . S
C338 C336 1.327 . S
C338 C357 1.429 . S
C338 H362 0.950 . S
C339 C356 1.574 . S
C339 C358 1.368 . S
C339 H363 0.949 . S
H340 C344 0.949 . S
C341 C342 1.349 . S
C341 C343 1.327 . S
C341 H364 0.950 . S
C342 C341 1.349 . S
C342 C354 1.349 . S
C343 C341 1.327 . S
C343 C359 1.429 . S
C343 H365 0.950 . S
C344 H340 0.949 . S
C344 C352 1.574 . S
C344 C360 1.368 . S
H345 C353 0.950 . S
H346 C351 0.950 . S
H347 C352 0.949 . S
H348 C354 0.950 . S
H349 C355 0.950 . S
H350 C356 0.949 . S
C351 H346 0.950 . S
C351 C353 1.327 . S
C351 C357 1.429 . S
C352 C344 1.574 . S
C352 H347 0.949 . S
C352 C358 1.368 . S
C353 C337 1.349 . S
C353 H345 0.950 . S
C353 C351 1.327 . S
C354 C342 1.349 . S
C354 H348 0.950 . S
C354 C355 1.327 . S
C355 H349 0.950 . S
C355 C354 1.327 . S
C355 C359 1.429 . S
C356 C339 1.574 . S
C356 H350 0.949 . S
C356 C360 1.368 . S
C357 C338 1.429 . S
C357 C351 1.429 . S
C357 C358 1.523 . S
C358 C339 1.368 . S
C358 C352 1.368 . S
C358 C357 1.523 . S
C359 C343 1.429 . S
C359 C355 1.429 . S
C359 C360 1.523 . S
C360 C344 1.368 . S
C360 C356 1.368 . S
C360 C359 1.523 . S
H361 C336 0.950 . S
H362 C338 0.950 . S
H363 C339 0.949 . S
H364 C341 0.950 . S
H365 C343 0.950 . S
C366 C367 1.349 . S
C366 C368 1.327 . S
C366 H391 0.950 . S
C367 C366 1.349 . S
C367 C383 1.360 . S
C368 C366 1.327 . S
C368 C387 1.429 . S
C368 H392 0.950 . S
C369 C386 1.574 . S
C369 C388 1.368 1_655 S
C369 H393 0.950 . S
H370 C374 0.949 . S
C371 C372 1.343 1_655 S
C371 C373 1.327 . S
C371 H394 0.956 . S
C372 C371 1.343 1_455 S
C372 C384 1.349 . S
C373 C371 1.327 . S
C373 C389 1.423 1_655 S
C373 H395 0.955 . S
C374 H370 0.949 . S
C374 C382 1.574 . S
C374 C390 1.368 . S
H375 C383 0.939 1_655 S
H376 C381 0.943 1_655 S
H377 C382 0.949 . S
H378 C384 0.950 . S
H379 C385 0.950 . S
H380 C386 0.953 . S
C381 H376 0.943 1_455 S
C381 C383 1.327 . S
C381 C387 1.435 . S
C382 C374 1.574 . S
C382 H377 0.949 . S
C382 C388 1.368 . S
C383 C367 1.360 . S
C383 H375 0.939 1_455 S
C383 C381 1.327 . S
C384 C372 1.349 . S
C384 H378 0.950 . S
C384 C385 1.327 . S
C385 H379 0.950 . S
C385 C384 1.327 . S
C385 C389 1.429 . S
C386 C369 1.574 . S
C386 H380 0.953 . S
C386 C390 1.364 1_655 S
C387 C368 1.429 . S
C387 C381 1.435 . S
C387 C388 1.523 . S
C388 C369 1.368 1_455 S
C388 C382 1.368 . S
C388 C387 1.523 . S
C389 C373 1.423 1_455 S
C389 C385 1.429 . S
C389 C390 1.523 . S
C390 C374 1.368 . S
C390 C386 1.364 1_455 S
C390 C389 1.523 . S
H391 C366 0.950 . S
H392 C368 0.950 . S
H393 C369 0.950 . S
H394 C371 0.956 . S
H395 C373 0.955 . S
C396 C397 1.349 . S
C396 C398 1.327 . S
C396 H421 0.950 . S
C397 C396 1.349 . S
C397 C413 1.349 1_545 S
C398 C396 1.327 . S
C398 C417 1.429 . S
C398 H422 0.950 . S
C399 C416 1.574 . S
C399 C418 1.368 1_565 S
C399 H423 0.949 . S
H400 C404 0.949 . S
C401 C402 1.349 . S
C401 C403 1.327 . S
C401 H424 0.950 . S
C402 C401 1.349 . S
C402 C414 1.349 1_565 S
C403 C401 1.327 . S
C403 C419 1.429 . S
C403 H425 0.950 . S
C404 H400 0.949 . S
C404 C412 1.574 . S
C404 C420 1.368 1_545 S
H405 C413 0.950 . S
H406 C411 0.950 . S
H407 C412 0.949 . S
H408 C414 0.950 . S
H409 C415 0.950 . S
H410 C416 0.949 . S
C411 H406 0.950 . S
C411 C413 1.327 . S
C411 C417 1.429 1_565 S
C412 C404 1.574 . S
C412 H407 0.949 . S
C412 C418 1.368 . S
C413 C397 1.349 1_565 S
C413 H405 0.950 . S
C413 C411 1.327 . S
C414 C402 1.349 1_545 S
C414 H408 0.950 . S
C414 C415 1.327 . S
C415 H409 0.950 . S
C415 C414 1.327 . S
C415 C419 1.429 1_545 S
C416 C399 1.574 . S
C416 H410 0.949 . S
C416 C420 1.368 . S
C417 C398 1.429 . S
C417 C411 1.429 1_545 S
C417 C418 1.523 . S
C418 C399 1.368 1_545 S
C418 C412 1.368 . S
C418 C417 1.523 . S
C419 C403 1.429 . S
C419 C415 1.429 1_565 S
C419 C420 1.523 . S
C420 C404 1.368 1_565 S
C420 C416 1.368 . S
C420 C419 1.523 . S
H421 C396 0.950 . S
H422 C398 0.950 . S
H423 C399 0.949 . S
H424 C401 0.950 . S
H425 C403 0.950 . S
C426 C427 1.349 . S
C426 C428 1.327 . S
C426 H451 0.950 . S
C427 C426 1.349 . S
C427 C443 1.349 . S
C428 C426 1.327 . S
C428 C447 1.429 . S
C428 H452 0.950 . S
C429 C446 1.574 . S
C429 C448 1.368 . S
C429 H453 0.949 . S
H430 C434 0.949 . S
C431 C432 1.349 . S
C431 C433 1.327 . S
C431 H454 0.950 . S
C432 C431 1.349 . S
C432 C444 1.349 . S
C433 C431 1.327 . S
C433 C449 1.429 . S
C433 H455 0.950 . S
C434 H430 0.949 . S
C434 C442 1.574 . S
C434 C450 1.368 . S
H435 C443 0.950 . S
H436 C441 0.950 . S
H437 C442 0.949 . S
H438 C444 0.950 . S
H439 C445 0.950 . S
H440 C446 0.949 . S
C441 H436 0.950 . S
C441 C443 1.327 . S
C441 C447 1.429 . S
C442 C434 1.574 . S
C442 H437 0.949 . S
C442 C448 1.368 . S
C443 C427 1.349 . S
C443 H435 0.950 . S
C443 C441 1.327 . S
C444 C432 1.349 . S
C444 H438 0.950 . S
C444 C445 1.327 . S
C445 H439 0.950 . S
C445 C444 1.327 . S
C445 C449 1.429 . S
C446 C429 1.574 . S
C446 H440 0.949 . S
C446 C450 1.368 . S
C447 C428 1.429 . S
C447 C441 1.429 . S
C447 C448 1.523 . S
C448 C429 1.368 . S
C448 C442 1.368 . S
C448 C447 1.523 . S
C449 C433 1.429 . S
C449 C445 1.429 . S
C449 C450 1.523 . S
C450 C434 1.368 . S
C450 C446 1.368 . S
C450 C449 1.523 . S
H451 C426 0.950 . S
H452 C428 0.950 . S
H453 C429 0.949 . S
H454 C431 0.950 . S
H455 C433 0.950 . S
C456 C457 1.349 . S
C456 C458 1.327 . S
C456 H481 0.950 . S
C457 C456 1.349 . S
C457 C473 1.349 . S
C458 C456 1.327 . S
C458 C477 1.429 . S
C458 H482 0.950 . S
C459 C476 1.574 1_554 S
C459 C478 1.368 . S
C459 H483 0.949 . S
H460 C464 0.949 . S
C461 C462 1.349 . S
C461 C463 1.327 . S
C461 H484 0.950 . S
C462 C461 1.349 . S
C462 C474 1.349 . S
C463 C461 1.327 . S
C463 C479 1.429 . S
C463 H485 0.950 . S
C464 H460 0.949 . S
C464 C472 1.574 1_556 S
C464 C480 1.368 . S
H465 C473 0.950 . S
H466 C471 0.950 . S
H467 C472 0.949 . S
H468 C474 0.950 . S
H469 C475 0.950 . S
H470 C476 0.949 . S
C471 H466 0.950 . S
C471 C473 1.327 . S
C471 C477 1.429 . S
C472 C464 1.574 1_554 S
C472 H467 0.949 . S
C472 C478 1.368 . S
C473 C457 1.349 . S
C473 H465 0.950 . S
C473 C471 1.327 . S
C474 C462 1.349 . S
C474 H468 0.950 . S
C474 C475 1.327 . S
C475 H469 0.950 . S
C475 C474 1.327 . S
C475 C479 1.429 . S
C476 C459 1.574 1_556 S
C476 H470 0.949 . S
C476 C480 1.368 . S
C477 C458 1.429 . S
C477 C471 1.429 . S
C477 C478 1.523 . S
C478 C459 1.368 . S
C478 C472 1.368 . S
C478 C477 1.523 . S
C479 C463 1.429 . S
C479 C475 1.429 . S
C479 C480 1.523 . S
C480 C464 1.368 . S
C480 C476 1.368 . S
C480 C479 1.523 . S
H481 C456 0.950 . S
H482 C458 0.950 . S
H483 C459 0.949 . S
H484 C461 0.950 . S
H485 C463 0.950 . S
C486 C487 1.349 . S
C486 C488 1.327 . S
C486 H511 0.950 . S
C487 C486 1.349 . S
C487 C503 1.349 . S
C488 C486 1.327 . S
C488 C507 1.429 . S
C488 H512 0.950 . S
C489 C506 1.574 . S
C489 C508 1.368 . S
C489 H513 0.949 . S
H490 C494 0.949 . S
C491 C492 1.349 . S
C491 C493 1.327 . S
C491 H514 0.950 . S
C492 C491 1.349 . S
C492 C504 1.349 . S
C493 C491 1.327 . S
C493 C509 1.429 . S
C493 H515 0.950 . S
C494 H490 0.949 . S
C494 C502 1.574 . S
C494 C510 1.368 . S
H495 C503 0.950 . S
H496 C501 0.950 . S
H497 C502 0.949 . S
H498 C504 0.950 . S
H499 C505 0.950 . S
H500 C506 0.949 . S
C501 H496 0.950 . S
C501 C503 1.327 . S
C501 C507 1.429 . S
C502 C494 1.574 . S
C502 H497 0.949 . S
C502 C508 1.368 . S
C503 C487 1.349 . S
C503 H495 0.950 . S
C503 C501 1.327 . S
C504 C492 1.349 . S
C504 H498 0.950 . S
C504 C505 1.327 . S
C505 H499 0.950 . S
C505 C504 1.327 . S
C505 C509 1.429 . S
C506 C489 1.574 . S
C506 H500 0.949 . S
C506 C510 1.368 . S
C507 C488 1.429 . S
C507 C501 1.429 . S
C507 C508 1.523 . S
C508 C489 1.368 . S
C508 C502 1.368 . S
C508 C507 1.523 . S
C509 C493 1.429 . S
C509 C505 1.429 . S
C509 C510 1.523 . S
C510 C494 1.368 . S
C510 C506 1.368 . S
C510 C509 1.523 . S
H511 C486 0.950 . S
H512 C488 0.950 . S
H513 C489 0.949 . S
H514 C491 0.950 . S
H515 C493 0.950 . S
C516 C517 1.349 . S
C516 C518 1.327 . S
C516 H541 0.950 . S
C517 C516 1.349 . S
C517 C533 1.349 . S
C518 C516 1.327 . S
C518 C537 1.429 . S
C518 H542 0.950 . S
C519 C536 1.574 . S
C519 C538 1.368 . S
C519 H543 0.949 . S
H520 C524 0.949 . S
C521 C522 1.349 . S
C521 C523 1.327 . S
C521 H544 0.950 . S
C522 C521 1.349 . S
C522 C534 1.349 . S
C523 C521 1.327 . S
C523 C539 1.429 . S
C523 H545 0.950 . S
C524 H520 0.949 . S
C524 C532 1.574 . S
C524 C540 1.368 . S
H525 C533 0.950 . S
H526 C531 0.950 . S
H527 C532 0.949 . S
H528 C534 0.950 . S
H529 C535 0.950 . S
H530 C536 0.949 . S
C531 H526 0.950 . S
C531 C533 1.327 . S
C531 C537 1.429 . S
C532 C524 1.574 . S
C532 H527 0.949 . S
C532 C538 1.368 . S
C533 C517 1.349 . S
C533 H525 0.950 . S
C533 C531 1.327 . S
C534 C522 1.349 . S
C534 H528 0.950 . S
C534 C535 1.327 . S
C535 H529 0.950 . S
C535 C534 1.327 . S
C535 C539 1.429 . S
C536 C519 1.574 . S
C536 H530 0.949 . S
C536 C540 1.368 . S
C537 C518 1.429 . S
C537 C531 1.429 . S
C537 C538 1.523 . S
C538 C519 1.368 . S
C538 C532 1.368 . S
C538 C537 1.523 . S
C539 C523 1.429 . S
C539 C535 1.429 . S
C539 C540 1.523 . S
C540 C524 1.368 . S
C540 C536 1.368 . S
C540 C539 1.523 . S
H541 C516 0.950 . S
H542 C518 0.950 . S
H543 C519 0.949 . S
H544 C521 0.950 . S
H545 C523 0.950 . S
C546 C547 1.349 . S
C546 C548 1.327 . S
C546 H571 0.950 . S
C547 C546 1.349 . S
C547 C563 1.349 . S
C548 C546 1.327 . S
C548 C567 1.429 . S
C548 H572 0.950 . S
C549 C566 1.574 1_554 S
C549 C568 1.368 . S
C549 H573 0.949 . S
H550 C554 0.949 . S
C551 C552 1.349 . S
C551 C553 1.327 . S
C551 H574 0.950 . S
C552 C551 1.349 . S
C552 C564 1.349 . S
C553 C551 1.327 . S
C553 C569 1.429 . S
C553 H575 0.950 . S
C554 H550 0.949 . S
C554 C562 1.574 1_556 S
C554 C570 1.368 . S
H555 C563 0.950 . S
H556 C561 0.950 . S
H557 C562 0.949 . S
H558 C564 0.950 . S
H559 C565 0.950 . S
H560 C566 0.949 . S
C561 H556 0.950 . S
C561 C563 1.327 . S
C561 C567 1.429 . S
C562 C554 1.574 1_554 S
C562 H557 0.949 . S
C562 C568 1.368 . S
C563 C547 1.349 . S
C563 H555 0.950 . S
C563 C561 1.327 . S
C564 C552 1.349 . S
C564 H558 0.950 . S
C564 C565 1.327 . S
C565 H559 0.950 . S
C565 C564 1.327 . S
C565 C569 1.429 . S
C566 C549 1.574 1_556 S
C566 H560 0.949 . S
C566 C570 1.368 . S
C567 C548 1.429 . S
C567 C561 1.429 . S
C567 C568 1.523 . S
C568 C549 1.368 . S
C568 C562 1.368 . S
C568 C567 1.523 . S
C569 C553 1.429 . S
C569 C565 1.429 . S
C569 C570 1.523 . S
C570 C554 1.368 . S
C570 C566 1.368 . S
C570 C569 1.523 . S
H571 C546 0.950 . S
H572 C548 0.950 . S
H573 C549 0.949 . S
H574 C551 0.950 . S
H575 C553 0.950 . S
C576 C577 1.349 . S
C576 C578 1.327 . S
C576 H601 0.950 . S
C577 C576 1.349 . S
C577 C593 1.349 . S
C578 C576 1.327 . S
C578 C597 1.429 . S
C578 H602 0.950 . S
C579 C596 1.574 . S
C579 C598 1.368 . S
C579 H603 0.949 . S
H580 C584 0.949 . S
C581 C582 1.349 . S
C581 C583 1.327 . S
C581 H604 0.950 . S
C582 C581 1.349 . S
C582 C594 1.349 . S
C583 C581 1.327 . S
C583 C599 1.429 . S
C583 H605 0.950 . S
C584 H580 0.949 . S
C584 C592 1.574 . S
C584 C600 1.368 . S
H585 C593 0.950 . S
H586 C591 0.950 . S
H587 C592 0.949 . S
H588 C594 0.950 . S
H589 C595 0.950 . S
H590 C596 0.949 . S
C591 H586 0.950 . S
C591 C593 1.327 . S
C591 C597 1.429 . S
C592 C584 1.574 . S
C592 H587 0.949 . S
C592 C598 1.368 . S
C593 C577 1.349 . S
C593 H585 0.950 . S
C593 C591 1.327 . S
C594 C582 1.349 . S
C594 H588 0.950 . S
C594 C595 1.327 . S
C595 H589 0.950 . S
C595 C594 1.327 . S
C595 C599 1.429 . S
C596 C579 1.574 . S
C596 H590 0.949 . S
C596 C600 1.368 . S
C597 C578 1.429 . S
C597 C591 1.429 . S
C597 C598 1.523 . S
C598 C579 1.368 . S
C598 C592 1.368 . S
C598 C597 1.523 . S
C599 C583 1.429 . S
C599 C595 1.429 . S
C599 C600 1.523 . S
C600 C584 1.368 . S
C600 C596 1.368 . S
C600 C599 1.523 . S
H601 C576 0.950 . S
H602 C578 0.950 . S
H603 C579 0.949 . S
H604 C581 0.950 . S
H605 C583 0.950 . S
C606 C607 1.349 . S
C606 C608 1.327 . S
C606 H631 0.950 . S
C607 C606 1.349 . S
C607 C623 1.349 . S
C608 C606 1.327 . S
C608 C627 1.429 . S
C608 H632 0.950 . S
C609 C626 1.574 . S
C609 C628 1.368 . S
C609 H633 0.949 . S
H610 C614 0.949 . S
C611 C612 1.349 . S
C611 C613 1.327 . S
C611 H634 0.950 . S
C612 C611 1.349 . S
C612 C624 1.349 . S
C613 C611 1.327 . S
C613 C629 1.429 . S
C613 H635 0.950 . S
C614 H610 0.949 . S
C614 C622 1.574 . S
C614 C630 1.368 . S
H615 C623 0.950 . S
H616 C621 0.950 . S
H617 C622 0.949 . S
H618 C624 0.950 . S
H619 C625 0.950 . S
H620 C626 0.949 . S
C621 H616 0.950 . S
C621 C623 1.327 . S
C621 C627 1.429 . S
C622 C614 1.574 . S
C622 H617 0.949 . S
C622 C628 1.368 . S
C623 C607 1.349 . S
C623 H615 0.950 . S
C623 C621 1.327 . S
C624 C612 1.349 . S
C624 H618 0.950 . S
C624 C625 1.327 . S
C625 H619 0.950 . S
C625 C624 1.327 . S
C625 C629 1.429 . S
C626 C609 1.574 . S
C626 H620 0.949 . S
C626 C630 1.368 . S
C627 C608 1.429 . S
C627 C621 1.429 . S
C627 C628 1.523 . S
C628 C609 1.368 . S
C628 C622 1.368 . S
C628 C627 1.523 . S
C629 C613 1.429 . S
C629 C625 1.429 . S
C629 C630 1.523 . S
C630 C614 1.368 . S
C630 C626 1.368 . S
C630 C629 1.523 . S
H631 C606 0.950 . S
H632 C608 0.950 . S
H633 C609 0.949 . S
H634 C611 0.950 . S
H635 C613 0.950 . S
C636 C637 1.349 1_655 S
C636 C638 1.327 . S
C636 H661 0.950 . S
C637 C636 1.349 1_455 S
C637 C653 1.349 . S
C638 C636 1.327 . S
C638 C657 1.429 1_655 S
C638 H662 0.950 . S
C639 C656 1.574 . S
C639 C658 1.391 . S
C639 H663 0.949 . S
H640 C644 0.949 . S
C641 C642 1.349 1_455 S
C641 C643 1.327 . S
C641 H664 0.950 . S
C642 C641 1.349 1_655 S
C642 C654 1.349 . S
C643 C641 1.327 . S
C643 C659 1.429 1_455 S
C643 H665 0.950 . S
C644 H640 0.949 . S
C644 C652 1.574 . S
C644 C660 1.368 . S
H645 C653 0.950 . S
H646 C651 0.950 . S
H647 C652 0.949 . S
H648 C654 0.950 . S
H649 C655 0.950 . S
H650 C656 0.949 . S
C651 H646 0.950 . S
C651 C653 1.327 . S
C651 C657 1.429 . S
C652 C644 1.574 . S
C652 H647 0.949 . S
C652 C658 1.357 1_655 S
C653 C637 1.349 . S
C653 H645 0.950 . S
C653 C651 1.327 . S
C654 C642 1.349 . S
C654 H648 0.950 . S
C654 C655 1.327 . S
C655 H649 0.950 . S
C655 C654 1.327 . S
C655 C659 1.429 . S
C656 C639 1.574 . S
C656 H650 0.949 . S
C656 C660 1.368 1_455 S
C657 C638 1.429 1_455 S
C657 C651 1.429 . S
C657 C658 1.509 . S
C658 C639 1.391 . S
C658 C652 1.357 1_455 S
C658 C657 1.509 . S
C659 C643 1.429 1_655 S
C659 C655 1.429 . S
C659 C660 1.523 . S
C660 C644 1.368 . S
C660 C656 1.368 1_655 S
C660 C659 1.523 . S
H661 C636 0.950 . S
H662 C638 0.950 . S
H663 C639 0.949 . S
H664 C641 0.950 . S
H665 C643 0.950 . S
C666 C667 1.349 . S
C666 C668 1.327 . S
C666 H691 0.950 . S
C667 C666 1.349 . S
C667 C683 1.349 . S
C668 C666 1.327 . S
C668 C687 1.429 . S
C668 H692 0.950 . S
C669 C686 1.574 . S
C669 C688 1.368 1_565 S
C669 H693 0.949 . S
H670 C674 0.949 . S
C671 C672 1.349 . S
C671 C673 1.327 . S
C671 H694 0.950 . S
C672 C671 1.349 . S
C672 C684 1.349 . S
C673 C671 1.327 . S
C673 C689 1.429 . S
C673 H695 0.950 . S
C674 H670 0.949 . S
C674 C682 1.574 . S
C674 C690 1.368 1_545 S
H675 C683 0.950 1_565 S
H676 C681 0.950 . S
H677 C682 0.949 . S
H678 C684 0.949 1_545 S
H679 C685 0.950 . S
H680 C686 0.949 . S
C681 H676 0.950 . S
C681 C683 1.327 1_565 S
C681 C687 1.429 1_565 S
C682 C674 1.574 . S
C682 H677 0.949 . S
C682 C688 1.368 . S
C683 C667 1.349 . S
C683 H675 0.950 1_545 S
C683 C681 1.327 1_545 S
C684 C672 1.349 . S
C684 H678 0.949 1_565 S
C684 C685 1.328 1_565 S
C685 H679 0.950 . S
C685 C684 1.328 1_545 S
C685 C689 1.429 1_545 S
C686 C669 1.574 . S
C686 H680 0.949 . S
C686 C690 1.368 . S
C687 C668 1.429 . S
C687 C681 1.429 1_545 S
C687 C688 1.523 . S
C688 C669 1.368 1_545 S
C688 C682 1.368 . S
C688 C687 1.523 . S
C689 C673 1.429 . S
C689 C685 1.429 1_565 S
C689 C690 1.523 . S
C690 C674 1.368 1_565 S
C690 C686 1.368 . S
C690 C689 1.523 . S
H691 C666 0.950 . S
H692 C668 0.950 . S
H693 C669 0.949 . S
H694 C671 0.950 . S
H695 C673 0.950 . S
C696 C697 1.349 . S
C696 C698 1.327 . S
C696 H721 0.950 . S
C697 C696 1.349 . S
C697 C713 1.349 . S
C698 C696 1.327 . S
C698 C717 1.429 . S
C698 H722 0.950 . S
C699 C716 1.574 . S
C699 C718 1.368 . S
C699 H723 0.949 . S
H700 C704 0.949 . S
C701 C702 1.349 . S
C701 C703 1.327 . S
C701 H724 0.950 . S
C702 C701 1.349 . S
C702 C714 1.349 . S
C703 C701 1.327 . S
C703 C719 1.429 . S
C703 H725 0.950 . S
C704 H700 0.949 . S
C704 C712 1.574 . S
C704 C720 1.368 . S
H705 C713 0.950 . S
H706 C711 0.950 . S
H707 C712 0.949 . S
H708 C714 0.950 . S
H709 C715 0.950 . S
H710 C716 0.949 . S
C711 H706 0.950 . S
C711 C713 1.327 . S
C711 C717 1.429 . S
C712 C704 1.574 . S
C712 H707 0.949 . S
C712 C718 1.368 . S
C713 C697 1.349 . S
C713 H705 0.950 . S
C713 C711 1.327 . S
C714 C702 1.349 . S
C714 H708 0.950 . S
C714 C715 1.327 . S
C715 H709 0.950 . S
C715 C714 1.327 . S
C715 C719 1.429 . S
C716 C699 1.574 . S
C716 H710 0.949 . S
C716 C720 1.368 . S
C717 C698 1.429 . S
C717 C711 1.429 . S
C717 C718 1.523 . S
C718 C699 1.368 . S
C718 C712 1.368 . S
C718 C717 1.523 . S
C719 C703 1.429 . S
C719 C715 1.429 . S
C719 C720 1.523 . S
C720 C704 1.368 . S
C720 C716 1.368 . S
C720 C719 1.523 . S
H721 C696 0.950 . S
H722 C698 0.950 . S
H723 C699 0.949 . S
H724 C701 0.950 . S
H725 C703 0.950 . S
C726 C727 1.349 . S
C726 C728 1.327 . S
C726 H751 0.950 . S
C727 C726 1.349 . S
C727 C743 1.350 . S
C728 C726 1.327 . S
C728 C747 1.429 . S
C728 H752 0.950 . S
C729 C746 1.574 . S
C729 C748 1.368 1_565 S
C729 H753 0.949 . S
H730 C734 0.949 . S
C731 C732 1.349 . S
C731 C733 1.327 . S
C731 H754 0.950 . S
C732 C731 1.349 . S
C732 C744 1.349 . S
C733 C731 1.327 . S
C733 C749 1.429 . S
C733 H755 0.950 . S
C734 H730 0.949 . S
C734 C742 1.574 . S
C734 C750 1.368 1_545 S
H735 C743 0.950 1_565 S
H736 C741 0.950 . S
H737 C742 0.949 . S
H738 C744 0.950 1_545 S
H739 C745 0.950 . S
H740 C746 0.949 . S
C741 H736 0.950 . S
C741 C743 1.326 1_565 S
C741 C747 1.429 1_565 S
C742 C734 1.574 . S
C742 H737 0.949 . S
C742 C748 1.368 . S
C743 C727 1.350 . S
C743 H735 0.950 1_545 S
C743 C741 1.326 1_545 S
C744 C732 1.349 . S
C744 H738 0.950 1_565 S
C744 C745 1.327 1_565 S
C745 H739 0.950 . S
C745 C744 1.327 1_545 S
C745 C749 1.429 1_545 S
C746 C729 1.574 . S
C746 H740 0.949 . S
C746 C750 1.368 . S
C747 C728 1.429 . S
C747 C741 1.429 1_545 S
C747 C748 1.523 . S
C748 C729 1.368 1_545 S
C748 C742 1.368 . S
C748 C747 1.523 . S
C749 C733 1.429 . S
C749 C745 1.429 1_565 S
C749 C750 1.523 . S
C750 C734 1.368 1_565 S
C750 C746 1.368 . S
C750 C749 1.523 . S
H751 C726 0.950 . S
H752 C728 0.950 . S
H753 C729 0.949 . S
H754 C731 0.950 . S
H755 C733 0.950 . S
C756 C757 1.349 . S
C756 C758 1.327 . S
C756 H781 0.950 . S
C757 C756 1.349 . S
C757 C773 1.349 . S
C758 C756 1.327 . S
C758 C777 1.429 . S
C758 H782 0.950 . S
C759 C776 1.574 . S
C759 C778 1.368 . S
C759 H783 0.949 . S
H760 C764 0.949 . S
C761 C762 1.349 . S
C761 C763 1.327 . S
C761 H784 0.950 . S
C762 C761 1.349 . S
C762 C774 1.349 . S
C763 C761 1.327 . S
C763 C779 1.429 . S
C763 H785 0.950 . S
C764 H760 0.949 . S
C764 C772 1.574 . S
C764 C780 1.368 . S
H765 C773 0.950 . S
H766 C771 0.950 . S
H767 C772 0.949 . S
H768 C774 0.950 . S
H769 C775 0.950 . S
H770 C776 0.949 . S
C771 H766 0.950 . S
C771 C773 1.327 . S
C771 C777 1.429 . S
C772 C764 1.574 . S
C772 H767 0.949 . S
C772 C778 1.368 . S
C773 C757 1.349 . S
C773 H765 0.950 . S
C773 C771 1.327 . S
C774 C762 1.349 . S
C774 H768 0.950 . S
C774 C775 1.327 . S
C775 H769 0.950 . S
C775 C774 1.327 . S
C775 C779 1.429 . S
C776 C759 1.574 . S
C776 H770 0.949 . S
C776 C780 1.368 . S
C777 C758 1.429 . S
C777 C771 1.429 . S
C777 C778 1.523 . S
C778 C759 1.368 . S
C778 C772 1.368 . S
C778 C777 1.523 . S
C779 C763 1.429 . S
C779 C775 1.429 . S
C779 C780 1.523 . S
C780 C764 1.368 . S
C780 C776 1.368 . S
C780 C779 1.523 . S
H781 C756 0.950 . S
H782 C758 0.950 . S
H783 C759 0.949 . S
H784 C761 0.950 . S
H785 C763 0.950 . S
C786 C787 1.349 . S
C786 C788 1.327 . S
C786 H811 0.950 . S
C787 C786 1.349 . S
C787 C803 1.349 1_455 S
C788 C786 1.327 . S
C788 C807 1.429 . S
C788 H812 0.950 . S
C789 C806 1.574 . S
C789 C808 1.363 1_655 S
C789 H813 0.949 . S
H790 C794 0.949 . S
C791 C792 1.349 . S
C791 C793 1.327 . S
C791 H814 0.950 . S
C792 C791 1.349 . S
C792 C804 1.349 1_655 S
C793 C791 1.327 . S
C793 C809 1.429 . S
C793 H815 0.950 . S
C794 H790 0.949 . S
C794 C802 1.574 . S
C794 C810 1.361 1_455 S
H795 C803 0.950 . S
H796 C801 0.950 . S
H797 C802 0.949 . S
H798 C804 0.950 . S
H799 C805 0.950 . S
H800 C806 0.949 . S
C801 H796 0.950 . S
C801 C803 1.327 . S
C801 C807 1.429 1_655 S
C802 C794 1.574 . S
C802 H797 0.949 . S
C802 C808 1.379 . S
C803 C787 1.349 1_655 S
C803 H795 0.950 . S
C803 C801 1.327 . S
C804 C792 1.349 1_455 S
C804 H798 0.950 . S
C804 C805 1.327 . S
C805 H799 0.950 . S
C805 C804 1.327 . S
C805 C809 1.429 1_455 S
C806 C789 1.574 . S
C806 H800 0.949 . S
C806 C810 1.383 . S
C807 C788 1.429 . S
C807 C801 1.429 1_455 S
C807 C808 1.516 . S
C808 C789 1.363 1_455 S
C808 C802 1.379 . S
C808 C807 1.516 . S
C809 C793 1.429 . S
C809 C805 1.429 1_655 S
C809 C810 1.514 . S
C810 C794 1.361 1_655 S
C810 C806 1.383 . S
C810 C809 1.514 . S
H811 C786 0.950 . S
H812 C788 0.950 . S
H813 C789 0.949 . S
H814 C791 0.950 . S
H815 C793 0.950 . S
C816 C817 1.349 . S
C816 C818 1.327 . S
C816 H841 0.950 . S
C817 C816 1.349 . S
C817 C833 1.349 1_655 S
C818 C816 1.327 . S
C818 C837 1.429 . S
C818 H842 0.950 . S
C819 C836 1.574 1_545 S
C819 C838 1.358 1_455 S
C819 H843 0.949 . S
H820 C824 0.949 . S
C821 C822 1.349 . S
C821 C823 1.327 . S
C821 H844 0.950 . S
C822 C821 1.349 . S
C822 C834 1.349 1_455 S
C823 C821 1.327 . S
C823 C839 1.429 . S
C823 H845 0.950 . S
C824 H820 0.949 . S
C824 C832 1.574 1_565 S
C824 C840 1.359 1_655 S
H825 C833 0.950 . S
H826 C831 0.950 . S
H827 C832 0.949 . S
H828 C834 0.950 . S
H829 C835 0.950 . S
H830 C836 0.949 . S
C831 H826 0.950 . S
C831 C833 1.327 . S
C831 C837 1.429 1_455 S
C832 C824 1.574 1_545 S
C832 H827 0.949 . S
C832 C838 1.373 . S
C833 C817 1.349 1_455 S
C833 H825 0.950 . S
C833 C831 1.327 . S
C834 C822 1.349 1_655 S
C834 H828 0.950 . S
C834 C835 1.327 . S
C835 H829 0.950 . S
C835 C834 1.327 . S
C835 C839 1.429 1_655 S
C836 C819 1.574 1_565 S
C836 H830 0.949 . S
C836 C840 1.373 . S
C837 C818 1.429 . S
C837 C831 1.429 1_655 S
C837 C838 1.530 . S
C838 C819 1.358 1_655 S
C838 C832 1.373 . S
C838 C837 1.530 . S
C839 C823 1.429 . S
C839 C835 1.429 1_455 S
C839 C840 1.530 . S
C840 C824 1.359 1_455 S
C840 C836 1.373 . S
C840 C839 1.530 . S
H841 C816 0.950 . S
H842 C818 0.950 . S
H843 C819 0.949 . S
H844 C821 0.950 . S
H845 C823 0.950 . S
C846 C847 1.349 . S
C846 C848 1.327 1_545 S
C846 H871 0.950 1_545 S
C847 C846 1.349 . S
C847 C863 1.349 . S
C848 C846 1.327 1_565 S
C848 C867 1.429 1_565 S
C848 H872 0.950 . S
C849 C866 1.574 1_655 S
C849 C868 1.368 . S
C849 H873 0.949 . S
H850 C854 0.949 . S
C851 C852 1.349 . S
C851 C853 1.327 1_565 S
C851 H874 0.950 1_565 S
C852 C851 1.349 . S
C852 C864 1.349 . S
C853 C851 1.327 1_545 S
C853 C869 1.429 1_545 S
C853 H875 0.950 . S
C854 H850 0.949 . S
C854 C862 1.574 1_455 S
C854 C870 1.368 . S
H855 C863 0.950 . S
H856 C861 0.950 . S
H857 C862 0.949 . S
H858 C864 0.950 . S
H859 C865 0.950 . S
H860 C866 0.949 . S
C861 H856 0.950 . S
C861 C863 1.327 . S
C861 C867 1.429 . S
C862 C854 1.574 1_655 S
C862 H857 0.949 . S
C862 C868 1.368 1_565 S
C863 C847 1.349 . S
C863 H855 0.950 . S
C863 C861 1.327 . S
C864 C852 1.349 . S
C864 H858 0.950 . S
C864 C865 1.327 . S
C865 H859 0.950 . S
C865 C864 1.327 . S
C865 C869 1.429 . S
C866 C849 1.574 1_455 S
C866 H860 0.949 . S
C866 C870 1.368 1_545 S
C867 C848 1.429 1_545 S
C867 C861 1.429 . S
C867 C868 1.523 . S
C868 C849 1.368 . S
C868 C862 1.368 1_545 S
C868 C867 1.523 . S
C869 C853 1.429 1_565 S
C869 C865 1.429 . S
C869 C870 1.523 . S
C870 C854 1.368 . S
C870 C866 1.368 1_565 S
C870 C869 1.523 . S
H871 C846 0.950 1_565 S
H872 C848 0.950 . S
H873 C849 0.949 . S
H874 C851 0.950 1_545 S
H875 C853 0.950 . S
C876 C877 1.349 . S
C876 C878 1.327 . S
C876 H901 0.950 . S
C877 C876 1.349 . S
C877 C893 1.349 . S
C878 C876 1.327 . S
C878 C897 1.429 . S
C878 H902 0.950 . S
C879 C896 1.574 1_445 S
C879 C898 1.368 . S
C879 H903 0.949 . S
H880 C884 0.949 . S
C881 C882 1.349 . S
C881 C883 1.327 . S
C881 H904 0.950 . S
C882 C881 1.349 . S
C882 C894 1.349 . S
C883 C881 1.327 . S
C883 C899 1.429 . S
C883 H905 0.950 . S
C884 H880 0.949 . S
C884 C892 1.574 1_665 S
C884 C900 1.368 . S
H885 C893 0.950 . S
H886 C891 0.950 . S
H887 C892 0.949 . S
H888 C894 0.950 . S
H889 C895 0.950 . S
H890 C896 0.949 . S
C891 H886 0.950 . S
C891 C893 1.327 . S
C891 C897 1.429 . S
C892 C884 1.574 1_445 S
C892 H887 0.949 . S
C892 C898 1.368 . S
C893 C877 1.349 . S
C893 H885 0.950 . S
C893 C891 1.327 . S
C894 C882 1.349 . S
C894 H888 0.950 . S
C894 C895 1.327 . S
C895 H889 0.950 . S
C895 C894 1.327 . S
C895 C899 1.429 . S
C896 C879 1.574 1_665 S
C896 H890 0.949 . S
C896 C900 1.368 . S
C897 C878 1.429 . S
C897 C891 1.429 . S
C897 C898 1.523 . S
C898 C879 1.368 . S
C898 C892 1.368 . S
C898 C897 1.523 . S
C899 C883 1.429 . S
C899 C895 1.429 . S
C899 C900 1.523 . S
C900 C884 1.368 . S
C900 C896 1.368 . S
C900 C899 1.523 . S
H901 C876 0.950 . S
H902 C878 0.950 . S
H903 C879 0.949 . S
H904 C881 0.950 . S
H905 C883 0.950 . S
C906 C907 1.349 . S
C906 C908 1.327 1_565 S
C906 H931 0.950 1_565 S
C907 C906 1.349 . S
C907 C923 1.349 . S
C908 C906 1.327 1_545 S
C908 C927 1.429 1_545 S
C908 H932 0.950 . S
C909 C926 1.574 1_655 S
C909 C928 1.368 . S
C909 H933 0.949 . S
H910 C914 0.949 . S
C911 C912 1.349 . S
C911 C913 1.327 1_545 S
C911 H934 0.950 1_545 S
C912 C911 1.349 . S
C912 C924 1.349 . S
C913 C911 1.327 1_565 S
C913 C929 1.429 1_565 S
C913 H935 0.950 . S
C914 H910 0.949 . S
C914 C922 1.574 1_455 S
C914 C930 1.368 . S
H915 C923 0.950 . S
H916 C921 0.950 . S
H917 C922 0.949 . S
H918 C924 0.950 . S
H919 C925 0.950 . S
H920 C926 0.949 . S
C921 H916 0.950 . S
C921 C923 1.327 . S
C921 C927 1.429 . S
C922 C914 1.574 1_655 S
C922 H917 0.949 . S
C922 C928 1.368 1_545 S
C923 C907 1.349 . S
C923 H915 0.950 . S
C923 C921 1.327 . S
C924 C912 1.349 . S
C924 H918 0.950 . S
C924 C925 1.327 . S
C925 H919 0.950 . S
C925 C924 1.327 . S
C925 C929 1.429 . S
C926 C909 1.574 1_455 S
C926 H920 0.949 . S
C926 C930 1.368 1_565 S
C927 C908 1.429 1_565 S
C927 C921 1.429 . S
C927 C928 1.523 . S
C928 C909 1.368 . S
C928 C922 1.368 1_565 S
C928 C927 1.523 . S
C929 C913 1.429 1_545 S
C929 C925 1.429 . S
C929 C930 1.523 . S
C930 C914 1.368 . S
C930 C926 1.368 1_545 S
C930 C929 1.523 . S
H931 C906 0.950 1_545 S
H932 C908 0.950 . S
H933 C909 0.949 . S
H934 C911 0.950 1_565 S
H935 C913 0.950 . S
C936 C937 1.349 . S
C936 C938 1.327 . S
C936 H961 0.950 . S
C937 C936 1.349 . S
C937 C953 1.349 . S
C938 C936 1.327 . S
C938 C957 1.429 . S
C938 H962 0.950 . S
C939 C956 1.574 1_665 S
C939 C958 1.368 . S
C939 H963 0.949 . S
H940 C944 0.949 . S
C941 C942 1.349 . S
C941 C943 1.327 . S
C941 H964 0.950 . S
C942 C941 1.349 . S
C942 C954 1.349 . S
C943 C941 1.327 . S
C943 C959 1.429 . S
C943 H965 0.950 . S
C944 H940 0.949 . S
C944 C952 1.574 1_445 S
C944 C960 1.368 . S
H945 C953 0.950 . S
H946 C951 0.950 . S
H947 C952 0.949 . S
H948 C954 0.950 . S
H949 C955 0.950 . S
H950 C956 0.949 . S
C951 H946 0.950 . S
C951 C953 1.327 . S
C951 C957 1.429 . S
C952 C944 1.574 1_665 S
C952 H947 0.949 . S
C952 C958 1.368 . S
C953 C937 1.349 . S
C953 H945 0.950 . S
C953 C951 1.327 . S
C954 C942 1.349 . S
C954 H948 0.950 . S
C954 C955 1.327 . S
C955 H949 0.950 . S
C955 C954 1.327 . S
C955 C959 1.429 . S
C956 C939 1.574 1_445 S
C956 H950 0.949 . S
C956 C960 1.368 . S
C957 C938 1.429 . S
C957 C951 1.429 . S
C957 C958 1.523 . S
C958 C939 1.368 . S
C958 C952 1.368 . S
C958 C957 1.523 . S
C959 C943 1.429 . S
C959 C955 1.429 . S
C959 C960 1.523 . S
C960 C944 1.368 . S
C960 C956 1.368 . S
C960 C959 1.523 . S
H961 C936 0.950 . S
H962 C938 0.950 . S
H963 C939 0.949 . S
H964 C941 0.950 . S
H965 C943 0.950 . S
C966 C967 1.349 . S
C966 C968 1.327 . S
C966 H991 0.950 . S
C967 C966 1.349 . S
C967 C983 1.349 1_455 S
C968 C966 1.327 . S
C968 C987 1.429 . S
C968 H992 0.950 . S
C969 C986 1.574 1_565 S
C969 C988 1.357 1_655 S
C969 H993 0.949 . S
H970 C974 0.949 . S
C971 C972 1.349 . S
C971 C973 1.327 . S
C971 H994 0.950 . S
C972 C971 1.349 . S
C972 C984 1.349 1_655 S
C973 C971 1.327 . S
C973 C989 1.429 . S
C973 H995 0.950 . S
C974 H970 0.949 . S
C974 C982 1.574 1_545 S
C974 C990 1.354 1_455 S
H975 C983 0.950 . S
H976 C981 0.950 . S
H977 C982 0.949 . S
H978 C984 0.950 . S
H979 C985 0.950 . S
H980 C986 0.949 . S
C981 H976 0.950 . S
C981 C983 1.327 . S
C981 C987 1.429 1_655 S
C982 C974 1.574 1_565 S
C982 H977 0.949 . S
C982 C988 1.373 . S
C983 C967 1.349 1_655 S
C983 H975 0.950 . S
C983 C981 1.327 . S
C984 C972 1.349 1_455 S
C984 H978 0.950 . S
C984 C985 1.327 . S
C985 H979 0.950 . S
C985 C984 1.327 . S
C985 C989 1.429 1_455 S
C986 C969 1.574 1_545 S
C986 H980 0.949 . S
C986 C990 1.375 . S
C987 C968 1.429 . S
C987 C981 1.429 1_455 S
C987 C988 1.531 . S
C988 C969 1.357 1_455 S
C988 C982 1.373 . S
C988 C987 1.531 . S
C989 C973 1.429 . S
C989 C985 1.429 1_655 S
C989 C990 1.533 . S
C990 C974 1.354 1_655 S
C990 C986 1.375 . S
C990 C989 1.533 . S
H991 C966 0.950 . S
H992 C968 0.950 . S
H993 C969 0.949 . S
H994 C971 0.950 . S
H995 C973 0.950 . S
C277 C260 1.665 . S
C282 C7 1.667 . S
C307 N25 1.569 . S
C312 N140 1.569 . S
C337 C53 1.665 . S
C342 C168 1.665 . S
C367 C76 1.667 . S
C372 C191 1.665 . S
C397 N209 1.568 . S
C402 N94 1.568 . S
C427 C122 1.665 . S
C432 C237 1.665 . S
C457 C16 1.630 . S
C462 C246 1.630 . S
C487 N35 1.619 . S
C492 C269 1.615 . S
C517 C62 1.615 . S
C522 N150 1.619 . S
C547 C85 1.630 . S
C552 C177 1.630 . S
C577 C200 1.615 . S
C582 N104 1.619 . S
C607 N219 1.619 . S
C612 C131 1.615 . S
C637 N81 1.437 1_455 S
C642 N12 1.438 1_655 S
C667 C39 1.509 . S
C672 C108 1.509 . S
C697 N127 1.481 . S
C702 N58 1.481 . S
C727 C223 1.509 . S
C732 C154 1.509 . S
C757 N242 1.437 . S
C762 N173 1.437 . S
C787 N196 1.481 . S
C792 N265 1.481 . S
C817 N2 1.452 . S
C822 N71 1.452 . S
C847 C30 1.676 . S
C852 C99 1.676 . S
C877 N117 1.401 . S
C882 N48 1.401 . S
C907 C145 1.676 . S
C912 C214 1.676 . S
C937 N163 1.452 . S
C942 N232 1.452 . S
C967 N186 1.402 1_455 S
C972 N255 1.402 1_655 S
