# Generated by pormake.
# Topology bcg, (8)-cn, num edge types: 1
# Building blocks:
#     Node 0, Type 0, BuildingBlock: NUHRAL_clean_sbu_3, # of connection points: 8
#     Node 1, Type 0, BuildingBlock: NUHRAL_clean_sbu_3, # of connection points: 8
#     Node 2, Type 0, BuildingBlock: NUHRAL_clean_sbu_3, # of connection points: 8
#     Node 3, Type 0, BuildingBlock: NUHRAL_clean_sbu_3, # of connection points: 8
#     Edge 4, Type (0, 0), BuildingBlock: KIFKEQ_clean_linker_1, # of connection points: 2
#     Edge 5, Type (0, 0), BuildingBlock: KIFKEQ_clean_linker_1, # of connection points: 2
#     Edge 6, Type (0, 0), BuildingBlock: KIFKEQ_clean_linker_1, # of connection points: 2
#     Edge 7, Type (0, 0), BuildingBlock: KIFKEQ_clean_linker_1, # of connection points: 2
#     Edge 8, Type (0, 0), BuildingBlock: KIFKEQ_clean_linker_1, # of connection points: 2
#     Edge 9, Type (0, 0), BuildingBlock: KIFKEQ_clean_linker_1, # of connection points: 2
#     Edge 10, Type (0, 0), BuildingBlock: KIFKEQ_clean_linker_1, # of connection points: 2
#     Edge 11, Type (0, 0), BuildingBlock: KIFKEQ_clean_linker_1, # of connection points: 2
#     Edge 12, Type (0, 0), BuildingBlock: KIFKEQ_clean_linker_1, # of connection points: 2
#     Edge 13, Type (0, 0), BuildingBlock: KIFKEQ_clean_linker_1, # of connection points: 2
#     Edge 14, Type (0, 0), BuildingBlock: KIFKEQ_clean_linker_1, # of connection points: 2
#     Edge 15, Type (0, 0), BuildingBlock: KIFKEQ_clean_linker_1, # of connection points: 2
#     Edge 16, Type (0, 0), BuildingBlock: KIFKEQ_clean_linker_1, # of connection points: 2
#     Edge 17, Type (0, 0), BuildingBlock: KIFKEQ_clean_linker_1, # of connection points: 2
#     Edge 18, Type (0, 0), BuildingBlock: KIFKEQ_clean_linker_1, # of connection points: 2
#     Edge 19, Type (0, 0), BuildingBlock: KIFKEQ_clean_linker_1, # of connection points: 2
# Relax obj value: 0.165
# Max RMSD: 0.233
# Mean RMSD: 0.233
data_MOF--net-bcg--node1-NUHRAL_clean_sbu_3--edge1-KIFKEQ_clean_linker_1
_symmetry_space_group_name_H-M    P1
_symmetry_Int_Tables_number       1
_symmetry_cell_setting            triclinic
loop_
_symmetry_equiv_pos_as_xyz
'x, y, z'
_cell_length_a     22.20141
_cell_length_b     17.815471
_cell_length_c     33.875398
_cell_angle_alpha  80.455916
_cell_angle_beta   89.991773
_cell_angle_gamma 89.948902
loop_
_atom_site_label
_atom_site_type_symbol
_atom_site_fract_x
_atom_site_fract_y
_atom_site_fract_z
_atom_type_partial_charge
C0 C 0.07201 0.36761 0.06295 0.0
C1 C 1.02115 0.36368 0.03874 0.0
C2 C 0.96395 0.38096 0.05245 0.0
C3 C 0.9581 0.40165 0.09034 0.0
C4 C 1.00826 0.40515 0.1151 0.0
C5 C 0.06543 0.388 0.10113 0.0
O6 O 0.23837 0.22032 0.99424 0.0
Tb7 Tb 0.18792 0.32625 0.98826 0.0
O8 O 0.13883 0.34298 0.93196 0.0
O9 O 0.26903 0.10908 0.02759 0.0
Eu10 Eu 0.35622 0.17488 0.02497 0.0
O11 O 0.16049 0.40271 0.02543 0.0
C12 C 0.41399 0.16652 0.95911 0.0
O13 O 0.1382 0.28092 0.03907 0.0
O14 O 0.31297 0.28914 0.0279 0.0
O15 O 0.27453 0.38553 0.98329 0.0
C16 C 0.13218 0.34848 0.04957 0.0
C17 C 0.3933 0.12967 0.11459 0.0
O18 O 0.34077 0.09558 0.1151 0.0
C19 C 0.22388 0.15135 0.01166 0.0
C20 C 0.32197 0.35144 0.00182 0.0
O21 O 0.41418 0.16538 0.08025 0.0
C22 C 0.47233 0.18676 0.94006 0.0
C23 C 0.53521 0.20324 0.88021 0.0
C24 C 0.48126 0.17855 0.89987 0.0
C25 C 0.51796 0.21794 0.96097 0.0
C26 C 0.57138 0.24371 0.94134 0.0
C27 C 0.57967 0.23616 0.90126 0.0
C28 C 0.16984 0.32994 0.90072 0.0
O29 O 0.22709 0.31216 0.90597 0.0
O30 O 0.41373 0.11123 0.99016 0.0
O31 O 0.37955 0.22423 0.96394 0.0
H32 H 0.026 0.34657 0.00964 0.0
H33 H 0.91339 0.41105 0.10149 0.0
H34 H 0.1047 0.39015 0.11993 0.0
H35 H 0.44594 0.15438 0.88379 0.0
H36 H 0.51159 0.22298 0.99213 0.0
H37 H 0.62217 0.25372 0.88683 0.0
C38 C 0.59354 0.81977 0.05378 0.0
C39 C 0.54122 0.79773 0.03479 0.0
C40 C 0.48715 0.78182 0.05673 0.0
C41 C 0.48663 0.78828 0.09754 0.0
C42 C 0.53783 0.81137 0.11632 0.0
C43 C 0.5911 0.82706 0.09441 0.0
O44 O 0.70669 0.70509 0.96063 0.0
Tb45 Tb 0.71376 0.82037 0.97348 0.0
O46 O 0.66823 0.86252 0.91769 0.0
O47 O 0.74072 0.63822 0.02007 0.0
Eu48 Eu 0.82778 0.70282 0.01966 0.0
O49 O 0.64619 0.88297 0.99622 0.0
C50 C 0.9015 0.68132 0.96303 0.0
O51 O 0.69351 0.78982 0.03468 0.0
O52 O 0.82789 0.82284 0.03155 0.0
O53 O 0.79904 0.88163 0.96985 0.0
C54 C 0.6504 0.84132 0.032 0.0
C55 C 0.83781 0.67574 0.11156 0.0
O56 O 0.78047 0.69318 0.10664 0.0
C57 C 0.70525 0.64434 0.9886 0.0
C58 C 0.83221 0.88015 0.00208 0.0
O59 O 0.87061 0.67048 0.07994 0.0
C60 C 0.96037 0.70401 0.94414 0.0
C61 C 1.01946 0.73194 0.8826 0.0
C62 C 0.96453 0.71259 0.90218 0.0
C63 C 1.0126 0.71317 0.96675 0.0
C64 C 0.06783 0.73294 0.94723 0.0
C65 C 0.07042 0.74301 0.90537 0.0
C66 C 0.69948 0.8776 0.88444 0.0
O67 O 0.75838 0.87049 0.88622 0.0
O68 O 0.90182 0.63959 0.99894 0.0
O69 O 0.85757 0.7318 0.95759 0.0
H70 H 0.5425 0.79368 0.00324 0.0
H71 H 0.44514 0.77914 0.11456 0.0
H72 H 0.63048 0.84609 0.10892 0.0
H73 H 0.925 0.7037 0.88472 0.0
H74 H 1.01045 0.70482 0.99914 0.0
H75 H 0.11336 0.75613 0.89053 0.0
C76 C 0.06491 0.65293 0.44604 0.0
C77 C 1.0162 0.64457 0.4729 0.0
C78 C 0.95782 0.63318 0.45901 0.0
C79 C 0.94887 0.63058 0.41836 0.0
C80 C 0.99657 0.64253 0.39107 0.0
C81 C 0.05498 0.65181 0.40517 0.0
O82 O 0.23491 0.80093 0.50955 0.0
Tb83 Tb 0.18362 0.6956 0.5187 0.0
O84 O 0.1344 0.68945 0.57452 0.0
O85 O 0.26511 0.90561 0.46907 0.0
Eu86 Eu 0.35198 0.83952 0.47449 0.0
O87 O 0.151 0.61497 0.4857 0.0
C88 C 0.40808 0.85497 0.53997 0.0
O89 O 0.13575 0.73761 0.46653 0.0
O90 O 0.30579 0.72575 0.47588 0.0
O91 O 0.26924 0.63395 0.52381 0.0
C92 C 0.1259 0.66837 0.45923 0.0
C93 C 0.39399 0.88752 0.38608 0.0
O94 O 0.34498 0.929 0.38583 0.0
C95 C 0.2205 0.86642 0.4878 0.0
C96 C 0.31573 0.6652 0.503 0.0
O97 O 0.4107 0.84508 0.41979 0.0
C98 C 0.46614 0.83727 0.55989 0.0
C99 C 0.527 0.82661 0.62043 0.0
C100 C 0.47383 0.84997 0.59946 0.0
C101 C 0.51236 0.80308 0.54084 0.0
C102 C 0.56497 0.77866 0.56189 0.0
C103 C 0.57197 0.79047 0.60138 0.0
C104 C 0.16498 0.7078 0.60474 0.0
O105 O 0.22208 0.72586 0.59902 0.0
O106 O 0.40762 0.90797 0.50789 0.0
O107 O 0.37475 0.79576 0.53631 0.0
H108 H 0.02345 0.64881 0.50411 0.0
H109 H 0.90356 0.62458 0.40728 0.0
H110 H 0.09211 0.66193 0.38415 0.0
H111 H 0.43808 0.87642 0.61413 0.0
H112 H 0.50705 0.79463 0.51009 0.0
H113 H 0.61384 0.7736 0.61689 0.0
C114 C 0.59403 0.21659 0.44405 0.0
C115 C 0.54243 0.23947 0.46352 0.0
C116 C 0.48727 0.25315 0.44251 0.0
C117 C 0.48498 0.24342 0.40216 0.0
C118 C 0.53552 0.21954 0.38295 0.0
C119 C 0.58982 0.20624 0.40392 0.0
O120 O 0.71334 0.328 0.53831 0.0
Tb121 Tb 0.71818 0.21473 0.52256 0.0
O122 O 0.67565 0.17175 0.57937 0.0
O123 O 0.74714 0.40332 0.4813 0.0
Eu124 Eu 0.83692 0.34463 0.48172 0.0
O125 O 0.65016 0.15271 0.49999 0.0
C126 C 0.90539 0.35789 0.54241 0.0
O127 O 0.69372 0.25026 0.46238 0.0
O128 O 0.83792 0.22776 0.46562 0.0
O129 O 0.80394 0.15499 0.52322 0.0
C130 C 0.65203 0.197 0.46483 0.0
C131 C 0.8526 0.41266 0.3917 0.0
O132 O 0.79365 0.41493 0.39482 0.0
C133 C 0.70933 0.39014 0.51151 0.0
C134 C 0.84172 0.16652 0.4929 0.0
O135 O 0.88449 0.38869 0.42395 0.0
C136 C 0.9643 0.33548 0.56125 0.0
C137 C 0.02381 0.30855 0.62262 0.0
C138 C 0.9687 0.32746 0.60317 0.0
C139 C 1.01634 0.32602 0.53852 0.0
C140 C 0.07178 0.30664 0.55788 0.0
C141 C 0.07467 0.29733 0.59973 0.0
C142 C 0.70789 0.16729 0.61216 0.0
O143 O 0.76552 0.18394 0.60884 0.0
O144 O 0.90593 0.40624 0.50857 0.0
O145 O 0.86385 0.30478 0.54371 0.0
H146 H 0.54513 0.24592 0.49472 0.0
H147 H 0.44275 0.25079 0.38589 0.0
H148 H 0.62869 0.18661 0.38909 0.0
H149 H 0.9292 0.3364 0.62066 0.0
H150 H 1.01382 0.33378 0.50614 0.0
H151 H 0.11775 0.28458 0.61445 0.0
H152 H 0.6231 0.38306 0.92255 0.0
H153 H 0.63242 0.17247 0.00612 0.0
H154 H 0.71911 0.42336 0.94781 0.0
H155 H 0.72871 0.21213 0.03125 0.0
H156 H 0.9308 0.25585 0.02152 0.0
H157 H 0.83099 0.22885 0.9968 0.0
H158 H 0.77158 0.45446 0.00981 0.0
H159 H 0.87159 0.48149 0.03438 0.0
C160 C 0.64528 0.34635 0.94696 0.0
C161 C 0.62102 0.27474 0.96244 0.0
C162 C 0.70008 0.36917 0.96128 0.0
C163 C 0.73182 0.31995 0.99075 0.0
C164 C 0.70558 0.25034 0.0079 0.0
C165 C 0.65033 0.22808 0.99399 0.0
C166 C 0.89684 0.30019 0.0181 0.0
C167 C 0.90862 0.37063 0.0298 0.0
C168 C 0.83957 0.28443 0.00462 0.0
C169 C 0.79341 0.33911 0.00226 0.0
C170 C 0.80631 0.41125 0.01158 0.0
C171 C 0.86341 0.42674 0.02546 0.0
H172 H 0.13552 0.85969 0.94771 0.0
H173 H 0.13036 0.61929 0.99342 0.0
H174 H 0.23802 0.86667 0.97296 0.0
H175 H 0.23402 0.62455 0.01716 0.0
H176 H 0.4026 0.67559 0.08644 0.0
H177 H 0.3002 0.66413 0.063 0.0
H178 H 0.33778 0.83465 0.95951 0.0
H179 H 0.43954 0.84921 0.98451 0.0
C180 C 0.15628 0.80854 0.96379 0.0
C181 C 0.12484 0.73926 0.96927 0.0
C182 C 0.21547 0.81206 0.97763 0.0
C183 C 0.24528 0.74597 0.99664 0.0
C184 C 0.2128 0.67693 0.0031 0.0
C185 C 0.15319 0.67374 0.9897 0.0
C186 C 0.38912 0.71049 0.05855 0.0
C187 C 0.42924 0.76415 0.03768 0.0
C188 C 0.33025 0.70349 0.04488 0.0
C189 C 0.30974 0.74933 0.00959 0.0
C190 C 0.35112 0.79976 0.9874 0.0
C191 C 0.41004 0.80717 0.0013 0.0
H192 H 0.63688 0.84889 0.50286 0.0
H193 H 0.60771 0.63434 0.58039 0.0
H194 H 0.73462 0.80325 0.48298 0.0
H195 H 0.70508 0.58768 0.55986 0.0
H196 H 0.86161 0.53673 0.4681 0.0
H197 H 0.76205 0.56378 0.4934 0.0
H198 H 0.83139 0.76932 0.5283 0.0
H199 H 0.93112 0.7418 0.50367 0.0
C200 C 0.65076 0.79117 0.51459 0.0
C201 C 0.6153 0.74477 0.54287 0.0
C202 C 0.70675 0.76547 0.50374 0.0
C203 C 0.72754 0.69269 0.52065 0.0
C204 C 0.69006 0.64422 0.54676 0.0
C205 C 0.6345 0.67054 0.55822 0.0
C206 C 0.85603 0.58597 0.48269 0.0
C207 C 0.90401 0.63696 0.48422 0.0
C208 C 0.79908 0.60168 0.49679 0.0
C209 C 0.78917 0.66923 0.51193 0.0
C210 C 0.83802 0.71737 0.51613 0.0
C211 C 0.89516 0.70106 0.50264 0.0
H212 H 0.14162 0.18071 0.56037 0.0
H213 H 0.13164 0.4178 0.50792 0.0
H214 H 0.2432 0.17309 0.53379 0.0
H215 H 0.23452 0.4121 0.48274 0.0
H216 H 0.4005 0.3561 0.41215 0.0
H217 H 0.2993 0.36875 0.43737 0.0
H218 H 0.34312 0.20811 0.54369 0.0
H219 H 0.4436 0.19202 0.51699 0.0
C220 C 0.16115 0.23099 0.54261 0.0
C221 C 0.12858 0.2995 0.53564 0.0
C222 C 0.21986 0.22717 0.52795 0.0
C223 C 0.24811 0.29224 0.50652 0.0
C224 C 0.21451 0.36043 0.49867 0.0
C225 C 0.15535 0.36386 0.51291 0.0
C226 C 0.38866 0.32355 0.44101 0.0
C227 C 0.43014 0.27206 0.4622 0.0
C228 C 0.33046 0.33133 0.45571 0.0
C229 C 0.312 0.28854 0.49239 0.0
C230 C 0.35481 0.24054 0.51479 0.0
C231 C 0.41303 0.23228 0.49986 0.0
H232 H 0.66663 0.53179 0.048 0.0
H233 H 0.63878 0.62501 0.92327 0.0
H234 H 0.57854 0.4513 0.04674 0.0
H235 H 0.55203 0.54224 0.92148 0.0
H236 H 0.35378 0.48324 0.95314 0.0
H237 H 0.45254 0.54262 0.94622 0.0
H238 H 0.52811 0.34942 0.02476 0.0
H239 H 0.42858 0.29208 0.03308 0.0
C240 C 0.64254 0.53376 0.02004 0.0
C241 C 0.6589 0.58587 0.98598 0.0
C242 C 0.59208 0.48722 0.01921 0.0
C243 C 0.55733 0.49125 0.98415 0.0
C244 C 0.57663 0.53929 0.9493 0.0
C245 C 0.62663 0.58639 0.95026 0.0
C246 C 0.39158 0.45303 0.96858 0.0
C247 C 0.38322 0.38299 0.99384 0.0
C248 C 0.44849 0.4868 0.96436 0.0
C249 C 0.49853 0.45095 0.98503 0.0
C250 C 0.49049 0.37935 0.00896 0.0
C251 C 0.43343 0.34609 0.01352 0.0
H252 H 0.66527 0.50004 0.4529 0.0
H253 H 0.63897 0.39855 0.57662 0.0
H254 H 0.5731 0.57295 0.45478 0.0
H255 H 0.548 0.47394 0.57915 0.0
H256 H 0.34896 0.53144 0.54964 0.0
H257 H 0.44846 0.4731 0.55488 0.0
H258 H 0.52106 0.67071 0.47832 0.0
H259 H 0.42116 0.72643 0.47147 0.0
C260 C 0.64048 0.49464 0.48077 0.0
C261 C 0.65888 0.44288 0.51442 0.0
C262 C 0.58766 0.53676 0.48197 0.0
C263 C 0.5525 0.52868 0.51703 0.0
C264 C 0.57301 0.48007 0.55136 0.0
C265 C 0.62543 0.43729 0.55 0.0
C266 C 0.38633 0.56269 0.53429 0.0
C267 C 0.37712 0.63362 0.51002 0.0
C268 C 0.44358 0.52951 0.53749 0.0
C269 C 0.49298 0.56704 0.51687 0.0
C270 C 0.48397 0.63936 0.49394 0.0
C271 C 0.42665 0.67178 0.49026 0.0
H272 H 0.12781 0.20992 0.96686 0.0
H273 H 0.18014 0.02464 0.05904 0.0
H274 H 0.02656 0.15734 0.96613 0.0
H275 H 0.07997 0.96972 0.05728 0.0
H276 H 0.8858 0.91283 0.06906 0.0
H277 H 0.97579 0.98869 0.07332 0.0
H278 H 0.97924 0.04791 0.94434 0.0
H279 H 0.8878 0.97317 0.94019 0.0
C280 C 0.11731 0.15877 0.98743 0.0
C281 C 0.16148 0.12241 0.01347 0.0
C282 C 0.05957 0.12796 0.98665 0.0
C283 C 0.04506 0.05945 0.01171 0.0
C284 C 0.08923 0.02341 0.03811 0.0
C285 C 0.1468 0.05456 0.03896 0.0
C286 C 0.90517 0.94309 0.04161 0.0
C287 C 0.88019 0.93652 0.00423 0.0
C288 C 0.95696 0.98616 0.04407 0.0
C289 C 0.98532 0.02317 0.00918 0.0
C290 C 0.95831 0.02035 0.97183 0.0
C291 C 0.90598 0.97753 0.96939 0.0
H292 H 0.94793 0.20101 0.45562 0.0
H293 H 0.85015 1.01439 0.52456 0.0
H294 H 0.03365 0.11903 0.45192 0.0
H295 H 0.93589 0.92982 0.51914 0.0
H296 H 0.1325 0.84085 0.54397 0.0
H297 H 0.03548 0.90513 0.54317 0.0
H298 H 0.07121 0.01949 0.42252 0.0
H299 H 0.16942 0.95788 0.42453 0.0
C300 C 0.94436 0.14174 0.46934 0.0
C301 C 0.89223 0.1139 0.49019 0.0
C302 C 0.99351 0.09434 0.46692 0.0
C303 C 0.99159 1.01723 0.48464 0.0
C304 C 0.9391 0.98902 0.50535 0.0
C305 C 0.88996 0.0372 0.50838 0.0
C306 C 0.11881 0.8785 0.51706 0.0
C307 C 0.15829 0.89499 0.48444 0.0
C308 C 0.06315 0.91533 0.5165 0.0
C309 C 0.0458 0.96869 0.48304 0.0
C310 C 0.08382 0.98059 0.44929 0.0
C311 C 0.13989 0.94496 0.45022 0.0
H312 H 0.5197 0.32224 0.31495 0.0
H313 H 0.53439 0.08153 0.35883 0.0
H314 H 0.49493 0.29561 0.24804 0.0
H315 H 0.50844 0.0545 0.29212 0.0
H316 H 0.36224 0.06102 0.18995 0.0
H317 H 0.40637 0.0815 0.25323 0.0
H318 H 0.53915 0.23121 0.18939 0.0
H319 H 0.49439 0.21232 0.12564 0.0
C320 C 0.51879 0.26376 0.30991 0.0
C321 C 0.52936 0.20388 0.34165 0.0
C322 C 0.50476 0.2485 0.27176 0.0
C323 C 0.49975 0.17302 0.26498 0.0
C324 C 0.51194 0.11316 0.2966 0.0
C325 C 0.52709 0.12852 0.33457 0.0
C326 C 0.40137 0.0975 0.18923 0.0
C327 C 0.42468 0.13515 0.15267 0.0
C328 C 0.42692 0.10856 0.22551 0.0
C329 C 0.47656 0.15701 0.22616 0.0
C330 C 0.50091 0.1934 0.18968 0.0
C331 C 0.4754 0.18228 0.15325 0.0
H332 H 0.52066 0.70509 0.18266 0.0
H333 H 0.54092 0.9466 0.14334 0.0
H334 H 0.49599 0.72769 0.25026 0.0
H335 H 0.5151 0.96971 0.21077 0.0
H336 H 0.36759 0.96354 0.31132 0.0
H337 H 0.41301 0.94568 0.248 0.0
H338 H 0.5384 0.78379 0.31105 0.0
H339 H 0.49205 0.79966 0.37479 0.0
C340 C 0.52115 0.7628 0.18889 0.0
C341 C 0.53311 0.82411 0.15819 0.0
C342 C 0.50716 0.77578 0.22744 0.0
C343 C 0.50359 0.85042 0.23567 0.0
C344 C 0.51751 0.91163 0.20517 0.0
C345 C 0.53262 0.8985 0.16679 0.0
C346 C 0.40538 0.92489 0.31189 0.0
C347 C 0.42607 0.88288 0.34817 0.0
C348 C 0.43175 0.91542 0.2756 0.0
C349 C 0.47974 0.86444 0.2747 0.0
C350 C 0.50149 0.82363 0.31096 0.0
C351 C 0.47505 0.83295 0.34739 0.0
H352 H 0.57032 0.7259 0.68299 0.0
H353 H 0.50895 0.95833 0.65113 0.0
H354 H 0.60688 0.75354 0.74695 0.0
H355 H 0.54424 0.98492 0.71635 0.0
H356 H 0.57841 0.89613 0.86976 0.0
H357 H 0.52667 0.89397 0.80596 0.0
H358 H 0.69809 0.88379 0.74734 0.0
H359 H 0.75015 0.88642 0.81052 0.0
C360 C 0.56373 0.78254 0.68997 0.0
C361 C 0.53761 0.84027 0.66187 0.0
C362 C 0.58449 0.79814 0.72651 0.0
C363 C 0.57878 0.87141 0.73596 0.0
C364 C 0.54909 0.92814 0.70932 0.0
C365 C 0.52865 0.91271 0.67232 0.0
C366 C 0.60511 0.89507 0.8431 0.0
C367 C 0.66838 0.8902 0.84529 0.0
C368 C 0.57545 0.89416 0.80672 0.0
C369 C 0.6087 0.8884 0.7722 0.0
C370 C 0.67179 0.8884 0.77379 0.0
C371 C 0.70144 0.88978 0.80995 0.0
H372 H 0.51575 0.07772 0.84419 0.0
H373 H 0.58276 0.30852 0.82127 0.0
H374 H 0.55246 0.05839 0.77802 0.0
H375 H 0.62081 0.288 0.75645 0.0
H376 H 0.75982 0.1776 0.68383 0.0
H377 H 0.70942 0.17981 0.74748 0.0
H378 H 0.53912 0.13465 0.69494 0.0
H379 H 0.58937 0.13287 0.6305 0.0
C380 C 0.53709 0.12461 0.82478 0.0
C381 C 0.54719 0.19432 0.83811 0.0
C382 C 0.55832 0.11332 0.78718 0.0
C383 C 0.59023 0.17134 0.76278 0.0
C384 C 0.59709 0.24213 0.77512 0.0
C385 C 0.57539 0.25372 0.81219 0.0
C386 C 0.71181 0.16684 0.6858 0.0
C387 C 0.67848 0.15613 0.65192 0.0
C388 C 0.68305 0.16823 0.72225 0.0
C389 C 0.62053 0.15804 0.72577 0.0
C390 C 0.58745 0.14253 0.69278 0.0
C391 C 0.61622 0.14179 0.65601 0.0
H392 H 0.91402 0.73895 0.35242 0.0
H393 H 0.04782 0.57331 0.33242 0.0
H394 H 0.88041 0.74934 0.28346 0.0
H395 H 1.01401 0.58395 0.26253 0.0
H396 H 0.95795 0.67706 0.12996 0.0
H397 H 1.003 0.67432 0.19622 0.0
H398 H 0.82542 0.65826 0.24908 0.0
H399 H 0.78057 0.6622 0.18327 0.0
C400 C 0.93639 0.70494 0.33306 0.0
C401 C 0.98268 0.65422 0.34781 0.0
C402 C 0.91711 0.71083 0.29364 0.0
C403 C 0.94376 0.6663 0.26793 0.0
C404 C 0.99262 0.6188 0.28184 0.0
C405 C 1.01196 0.6127 0.32166 0.0
C406 C 0.92866 0.67274 0.15581 0.0
C407 C 0.86571 0.66982 0.15149 0.0
C408 C 0.95447 0.67123 0.19364 0.0
C409 C 0.91768 0.66686 0.22767 0.0
C410 C 0.85484 0.66313 0.22326 0.0
C411 C 0.82916 0.66482 0.18561 0.0
H412 H 0.7976 0.44763 0.31917 0.0
H413 H 0.97305 0.40794 0.37383 0.0
H414 H 0.8423 0.45373 0.25363 0.0
H415 H 1.01869 0.4168 0.30757 0.0
H416 H 0.05869 0.33442 0.18582 0.0
H417 H 0.02661 0.34624 0.25354 0.0
H418 H 0.90061 0.52166 0.20437 0.0
H419 H 0.93423 0.51242 0.13744 0.0
C420 C 0.846 0.44155 0.31716 0.0
C421 C 0.8816 0.4265 0.35179 0.0
C422 C 0.87191 0.44553 0.27937 0.0
C423 C 0.93435 0.4354 0.27507 0.0
C424 C 0.97036 0.42327 0.30973 0.0
C425 C 0.94426 0.41893 0.3477 0.0
C426 C 0.0257 0.37744 0.18966 0.0
C427 C 0.99852 0.4219 0.1562 0.0
C428 C 1.00708 0.3841 0.22851 0.0
C429 C 0.96065 0.43497 0.23458 0.0
C430 C 0.93619 0.48194 0.20104 0.0
C431 C 0.95536 0.47632 0.16252 0.0
H432 H 0.05195 0.36139 0.87754 0.0
H433 H 0.22388 0.2949 0.83432 0.0
H434 H 1.00658 0.35208 0.81228 0.0
H435 H 0.17907 0.28592 0.77013 0.0
H436 H 0.0784 0.19712 0.67517 0.0
H437 H 0.10605 0.20083 0.74445 0.0
H438 H 1.01352 0.41568 0.73868 0.0
H439 H 0.98539 0.4116 0.66903 0.0
C440 C 0.08002 0.34513 0.8542 0.0
C441 C 0.14147 0.32858 0.86122 0.0
C442 C 0.05409 0.33986 0.81691 0.0
C443 C 0.08907 0.31707 0.7863 0.0
C444 C 0.15056 0.30193 0.79333 0.0
C445 C 0.17638 0.30771 0.83017 0.0
C446 C 0.06319 0.24457 0.68888 0.0
C447 C 0.03044 0.30452 0.66657 0.0
C448 C 0.07914 0.24685 0.72849 0.0
C449 C 0.06294 0.30929 0.74676 0.0
C450 C 0.02656 0.3668 0.72542 0.0
C451 C 1.01042 0.36442 0.68561 0.0
H452 H 0.04828 0.67279 0.62909 0.0
H453 H 0.21764 0.75302 0.66915 0.0
H454 H 1.00299 0.6838 0.69407 0.0
H455 H 0.17305 0.76321 0.73327 0.0
H456 H 0.07174 0.84499 0.82994 0.0
H457 H 0.09904 0.84231 0.76048 0.0
H458 H 1.01111 0.62445 0.76677 0.0
H459 H 0.983 0.62787 0.83643 0.0
C460 C 0.07578 0.69263 0.65166 0.0
C461 C 0.13651 0.71222 0.64387 0.0
C462 C 0.04991 0.69878 0.68884 0.0
C463 C 0.0842 0.72538 0.71863 0.0
C464 C 0.14494 0.74421 0.71073 0.0
C465 C 0.17069 0.7377 0.67395 0.0
C466 C 0.05739 0.79716 0.81625 0.0
C467 C 0.02586 0.73629 0.83866 0.0
C468 C 0.07322 0.7954 0.77656 0.0
C469 C 0.05826 0.73245 0.75835 0.0
C470 C 0.02316 0.67382 0.7799 0.0
C471 C 1.00703 0.67579 0.81974 0.0
loop_
_geom_bond_atom_site_label_1
_geom_bond_atom_site_label_2
_geom_bond_distance
_geom_bond_site_symmetry_2
_ccdc_geom_bond_type
C0 C1 1.387 . S
C0 C5 1.380 . S
C0 C16 1.494 . S
C1 C0 1.387 . S
C1 C2 1.386 1_455 S
C1 H32 0.930 1_455 S
C2 C1 1.386 1_655 S
C2 C3 1.397 . S
C3 C2 1.397 . S
C3 C4 1.393 1_655 S
C3 H33 0.930 . S
C4 C3 1.393 1_455 S
C4 C5 1.395 . S
C5 C0 1.380 . S
C5 C4 1.395 . S
C5 H34 0.930 . S
O6 Tb7 2.295 . S
O6 C19 1.241 1_556 S
Tb7 O6 2.295 . S
Tb7 O8 2.312 . S
Tb7 O11 2.438 . S
Tb7 O13 2.472 1_556 S
Tb7 O15 2.308 . S
Tb7 C16 2.821 1_556 S
O8 Tb7 2.312 . S
O8 C28 1.264 . S
O9 Eu10 2.308 . S
O9 C19 1.245 . S
Eu10 O9 2.308 . S
Eu10 C12 2.821 1_554 S
Eu10 O14 2.295 . S
Eu10 O21 2.312 . S
Eu10 O30 2.438 . S
Eu10 O31 2.472 1_554 S
O11 Tb7 2.438 . S
O11 C16 1.263 1_556 S
C12 Eu10 2.821 1_556 S
C12 C22 1.494 . S
C12 O30 1.263 1_556 S
C12 O31 1.264 . S
O13 Tb7 2.472 1_554 S
O13 C16 1.264 . S
O14 Eu10 2.295 . S
O14 C20 1.242 . S
O15 Tb7 2.308 . S
O15 C20 1.243 1_556 S
C16 C0 1.494 . S
C16 Tb7 2.821 1_554 S
C16 O11 1.263 1_554 S
C16 O13 1.264 . S
C17 O18 1.260 . S
C17 O21 1.264 . S
O18 C17 1.260 . S
C19 O6 1.241 1_554 S
C19 O9 1.245 . S
C20 O14 1.242 . S
C20 O15 1.243 1_554 S
O21 Eu10 2.312 . S
O21 C17 1.264 . S
C22 C12 1.494 . S
C22 C24 1.380 . S
C22 C25 1.387 . S
C23 C24 1.395 . S
C23 C27 1.393 . S
C24 C22 1.380 . S
C24 C23 1.395 . S
C24 H35 0.930 . S
C25 C22 1.387 . S
C25 C26 1.386 . S
C25 H36 0.930 . S
C26 C25 1.386 . S
C26 C27 1.397 . S
C27 C23 1.393 . S
C27 C26 1.397 . S
C27 H37 0.930 . S
C28 O8 1.264 . S
C28 O29 1.260 . S
O29 C28 1.260 . S
O30 Eu10 2.438 . S
O30 C12 1.263 1_554 S
O31 Eu10 2.472 1_556 S
O31 C12 1.264 . S
H32 C1 0.930 1_655 S
H33 C3 0.930 . S
H34 C5 0.930 . S
H35 C24 0.930 . S
H36 C25 0.930 . S
H37 C27 0.930 . S
C38 C39 1.387 . S
C38 C43 1.380 . S
C38 C54 1.494 . S
C39 C38 1.387 . S
C39 C40 1.386 . S
C39 H70 0.930 . S
C40 C39 1.386 . S
C40 C41 1.397 . S
C41 C40 1.397 . S
C41 C42 1.393 . S
C41 H71 0.930 . S
C42 C41 1.393 . S
C42 C43 1.395 . S
C43 C38 1.380 . S
C43 C42 1.395 . S
C43 H72 0.930 . S
O44 Tb45 2.295 . S
O44 C57 1.241 1_556 S
Tb45 O44 2.295 . S
Tb45 O46 2.312 . S
Tb45 O49 2.438 . S
Tb45 O51 2.472 1_556 S
Tb45 O53 2.308 . S
Tb45 C54 2.821 1_556 S
O46 Tb45 2.312 . S
O46 C66 1.264 . S
O47 Eu48 2.308 . S
O47 C57 1.245 . S
Eu48 O47 2.308 . S
Eu48 C50 2.821 1_554 S
Eu48 O52 2.295 . S
Eu48 O59 2.312 . S
Eu48 O68 2.438 . S
Eu48 O69 2.472 1_554 S
O49 Tb45 2.438 . S
O49 C54 1.263 1_556 S
C50 Eu48 2.821 1_556 S
C50 C60 1.494 . S
C50 O68 1.263 1_556 S
C50 O69 1.264 . S
O51 Tb45 2.472 1_554 S
O51 C54 1.264 . S
O52 Eu48 2.295 . S
O52 C58 1.242 . S
O53 Tb45 2.308 . S
O53 C58 1.243 1_556 S
C54 C38 1.494 . S
C54 Tb45 2.821 1_554 S
C54 O49 1.263 1_554 S
C54 O51 1.264 . S
C55 O56 1.260 . S
C55 O59 1.264 . S
O56 C55 1.260 . S
C57 O44 1.241 1_554 S
C57 O47 1.245 . S
C58 O52 1.242 . S
C58 O53 1.243 1_554 S
O59 Eu48 2.312 . S
O59 C55 1.264 . S
C60 C50 1.494 . S
C60 C62 1.380 . S
C60 C63 1.387 . S
C61 C62 1.395 . S
C61 C65 1.393 1_655 S
C62 C60 1.380 . S
C62 C61 1.395 . S
C62 H73 0.930 . S
C63 C60 1.387 . S
C63 C64 1.386 1_655 S
C63 H74 0.930 1_655 S
C64 C63 1.386 1_455 S
C64 C65 1.397 . S
C65 C61 1.393 1_455 S
C65 C64 1.397 . S
C65 H75 0.930 . S
C66 O46 1.264 . S
C66 O67 1.260 . S
O67 C66 1.260 . S
O68 Eu48 2.438 . S
O68 C50 1.263 1_554 S
O69 Eu48 2.472 1_556 S
O69 C50 1.264 . S
H70 C39 0.930 . S
H71 C41 0.930 . S
H72 C43 0.930 . S
H73 C62 0.930 . S
H74 C63 0.930 1_455 S
H75 C65 0.930 . S
C76 C77 1.387 . S
C76 C81 1.380 . S
C76 C92 1.494 . S
C77 C76 1.387 . S
C77 C78 1.386 1_455 S
C77 H108 0.930 1_455 S
C78 C77 1.386 1_655 S
C78 C79 1.397 . S
C79 C78 1.397 . S
C79 C80 1.393 1_655 S
C79 H109 0.930 . S
C80 C79 1.393 1_455 S
C80 C81 1.395 . S
C81 C76 1.380 . S
C81 C80 1.395 . S
C81 H110 0.930 . S
O82 Tb83 2.295 . S
O82 C95 1.242 . S
Tb83 O82 2.295 . S
Tb83 O84 2.312 . S
Tb83 O87 2.438 . S
Tb83 O89 2.472 . S
Tb83 O91 2.308 . S
Tb83 C92 2.821 . S
O84 Tb83 2.312 . S
O84 C104 1.264 . S
O85 Eu86 2.308 . S
O85 C95 1.243 . S
Eu86 O85 2.308 . S
Eu86 C88 2.821 . S
Eu86 O90 2.295 . S
Eu86 O97 2.312 . S
Eu86 O106 2.438 . S
Eu86 O107 2.472 . S
O87 Tb83 2.438 . S
O87 C92 1.263 . S
C88 Eu86 2.821 . S
C88 C98 1.494 . S
C88 O106 1.263 . S
C88 O107 1.264 . S
O89 Tb83 2.472 . S
O89 C92 1.264 . S
O90 Eu86 2.295 . S
O90 C96 1.242 . S
O91 Tb83 2.308 . S
O91 C96 1.243 . S
C92 C76 1.494 . S
C92 Tb83 2.821 . S
C92 O87 1.263 . S
C92 O89 1.264 . S
C93 O94 1.260 . S
C93 O97 1.264 . S
O94 C93 1.260 . S
C95 O82 1.242 . S
C95 O85 1.243 . S
C96 O90 1.242 . S
C96 O91 1.243 . S
O97 Eu86 2.312 . S
O97 C93 1.264 . S
C98 C88 1.494 . S
C98 C100 1.380 . S
C98 C101 1.387 . S
C99 C100 1.395 . S
C99 C103 1.393 . S
C100 C98 1.380 . S
C100 C99 1.395 . S
C100 H111 0.930 . S
C101 C98 1.387 . S
C101 C102 1.386 . S
C101 H112 0.930 . S
C102 C101 1.386 . S
C102 C103 1.397 . S
C103 C99 1.393 . S
C103 C102 1.397 . S
C103 H113 0.930 . S
C104 O84 1.264 . S
C104 O105 1.260 . S
O105 C104 1.260 . S
O106 Eu86 2.438 . S
O106 C88 1.263 . S
O107 Eu86 2.472 . S
O107 C88 1.264 . S
H108 C77 0.930 1_655 S
H109 C79 0.930 . S
H110 C81 0.930 . S
H111 C100 0.930 . S
H112 C101 0.930 . S
H113 C103 0.930 . S
C114 C115 1.387 . S
C114 C119 1.380 . S
C114 C130 1.494 . S
C115 C114 1.387 . S
C115 C116 1.386 . S
C115 H146 0.930 . S
C116 C115 1.386 . S
C116 C117 1.397 . S
C117 C116 1.397 . S
C117 C118 1.393 . S
C117 H147 0.930 . S
C118 C117 1.393 . S
C118 C119 1.395 . S
C119 C114 1.380 . S
C119 C118 1.395 . S
C119 H148 0.930 . S
O120 Tb121 2.295 . S
O120 C133 1.242 . S
Tb121 O120 2.295 . S
Tb121 O122 2.312 . S
Tb121 O125 2.438 . S
Tb121 O127 2.472 . S
Tb121 O129 2.308 . S
Tb121 C130 2.821 . S
O122 Tb121 2.312 . S
O122 C142 1.264 . S
O123 Eu124 2.308 . S
O123 C133 1.243 . S
Eu124 O123 2.308 . S
Eu124 C126 2.821 . S
Eu124 O128 2.295 . S
Eu124 O135 2.312 . S
Eu124 O144 2.438 . S
Eu124 O145 2.472 . S
O125 Tb121 2.438 . S
O125 C130 1.263 . S
C126 Eu124 2.821 . S
C126 C136 1.494 . S
C126 O144 1.263 . S
C126 O145 1.264 . S
O127 Tb121 2.472 . S
O127 C130 1.264 . S
O128 Eu124 2.295 . S
O128 C134 1.242 . S
O129 Tb121 2.308 . S
O129 C134 1.243 . S
C130 C114 1.494 . S
C130 Tb121 2.821 . S
C130 O125 1.263 . S
C130 O127 1.264 . S
C131 O132 1.260 . S
C131 O135 1.264 . S
O132 C131 1.260 . S
C133 O120 1.242 . S
C133 O123 1.243 . S
C134 O128 1.242 . S
C134 O129 1.243 . S
O135 Eu124 2.312 . S
O135 C131 1.264 . S
C136 C126 1.494 . S
C136 C138 1.380 . S
C136 C139 1.387 . S
C137 C138 1.395 . S
C137 C141 1.393 1_655 S
C138 C136 1.380 . S
C138 C137 1.395 . S
C138 H149 0.930 . S
C139 C136 1.387 . S
C139 C140 1.386 1_655 S
C139 H150 0.930 1_655 S
C140 C139 1.386 1_455 S
C140 C141 1.397 . S
C141 C137 1.393 1_455 S
C141 C140 1.397 . S
C141 H151 0.930 . S
C142 O122 1.264 . S
C142 O143 1.260 . S
O143 C142 1.260 . S
O144 Eu124 2.438 . S
O144 C126 1.263 . S
O145 Eu124 2.472 . S
O145 C126 1.264 . S
H146 C115 0.930 . S
H147 C117 0.930 . S
H148 C119 0.930 . S
H149 C138 0.930 . S
H150 C139 0.930 1_455 S
H151 C141 0.930 . S
H152 C160 0.950 . S
H153 C165 0.950 1_554 S
H154 C162 0.950 . S
H155 C164 0.950 . S
H156 C166 0.950 . S
H157 C168 0.950 . S
H158 C170 0.950 . S
H159 C171 0.950 1_556 S
C160 H152 0.950 . S
C160 C161 1.386 . S
C160 C162 1.391 . S
C161 C160 1.386 . S
C161 C165 1.393 . S
C162 H154 0.950 . S
C162 C160 1.391 . S
C162 C163 1.400 . S
C163 C162 1.400 . S
C163 C164 1.398 1_556 S
C163 C169 1.491 1_556 S
C164 H155 0.950 . S
C164 C163 1.398 1_554 S
C164 C165 1.391 1_554 S
C165 H153 0.950 1_556 S
C165 C161 1.393 . S
C165 C164 1.391 1_556 S
C166 H156 0.950 . S
C166 C167 1.386 . S
C166 C168 1.391 . S
C167 C166 1.386 . S
C167 C171 1.393 . S
C168 H157 0.950 . S
C168 C166 1.391 . S
C168 C169 1.400 . S
C169 C163 1.491 1_554 S
C169 C168 1.400 . S
C169 C170 1.398 1_554 S
C170 H158 0.950 . S
C170 C169 1.398 1_556 S
C170 C171 1.391 1_556 S
C171 H159 0.950 1_554 S
C171 C167 1.393 . S
C171 C170 1.391 1_554 S
H172 C180 0.950 . S
H173 C185 0.950 . S
H174 C182 0.950 . S
H175 C184 0.950 . S
H176 C186 0.950 . S
H177 C188 0.950 . S
H178 C190 0.950 . S
H179 C191 0.950 . S
C180 H172 0.950 . S
C180 C181 1.386 . S
C180 C182 1.391 . S
C181 C180 1.386 . S
C181 C185 1.393 . S
C182 H174 0.950 . S
C182 C180 1.391 . S
C182 C183 1.400 . S
C183 C182 1.400 . S
C183 C184 1.398 1_556 S
C183 C189 1.491 1_556 S
C184 H175 0.950 . S
C184 C183 1.398 1_554 S
C184 C185 1.391 1_554 S
C185 H173 0.950 . S
C185 C181 1.393 . S
C185 C184 1.391 1_556 S
C186 H176 0.950 . S
C186 C187 1.386 . S
C186 C188 1.391 . S
C187 C186 1.386 . S
C187 C191 1.393 . S
C188 H177 0.950 . S
C188 C186 1.391 . S
C188 C189 1.400 . S
C189 C183 1.491 1_554 S
C189 C188 1.400 . S
C189 C190 1.398 1_554 S
C190 H178 0.950 . S
C190 C189 1.398 1_556 S
C190 C191 1.391 1_556 S
C191 H179 0.950 . S
C191 C187 1.393 . S
C191 C190 1.391 1_554 S
H192 C200 0.950 . S
H193 C205 0.950 . S
H194 C202 0.950 . S
H195 C204 0.950 . S
H196 C206 0.950 . S
H197 C208 0.950 . S
H198 C210 0.950 . S
H199 C211 0.950 . S
C200 H192 0.950 . S
C200 C201 1.386 . S
C200 C202 1.391 . S
C201 C200 1.386 . S
C201 C205 1.393 . S
C202 H194 0.950 . S
C202 C200 1.391 . S
C202 C203 1.400 . S
C203 C202 1.400 . S
C203 C204 1.398 . S
C203 C209 1.491 . S
C204 H195 0.950 . S
C204 C203 1.398 . S
C204 C205 1.391 . S
C205 H193 0.950 . S
C205 C201 1.393 . S
C205 C204 1.391 . S
C206 H196 0.950 . S
C206 C207 1.386 . S
C206 C208 1.391 . S
C207 C206 1.386 . S
C207 C211 1.393 . S
C208 H197 0.950 . S
C208 C206 1.391 . S
C208 C209 1.400 . S
C209 C203 1.491 . S
C209 C208 1.400 . S
C209 C210 1.398 . S
C210 H198 0.950 . S
C210 C209 1.398 . S
C210 C211 1.391 . S
C211 H199 0.950 . S
C211 C207 1.393 . S
C211 C210 1.391 . S
H212 C220 0.950 . S
H213 C225 0.950 . S
H214 C222 0.950 . S
H215 C224 0.950 . S
H216 C226 0.950 . S
H217 C228 0.950 . S
H218 C230 0.950 . S
H219 C231 0.950 . S
C220 H212 0.950 . S
C220 C221 1.386 . S
C220 C222 1.391 . S
C221 C220 1.386 . S
C221 C225 1.393 . S
C222 H214 0.950 . S
C222 C220 1.391 . S
C222 C223 1.400 . S
C223 C222 1.400 . S
C223 C224 1.398 . S
C223 C229 1.491 . S
C224 H215 0.950 . S
C224 C223 1.398 . S
C224 C225 1.391 . S
C225 H213 0.950 . S
C225 C221 1.393 . S
C225 C224 1.391 . S
C226 H216 0.950 . S
C226 C227 1.386 . S
C226 C228 1.391 . S
C227 C226 1.386 . S
C227 C231 1.393 . S
C228 H217 0.950 . S
C228 C226 1.391 . S
C228 C229 1.400 . S
C229 C223 1.491 . S
C229 C228 1.400 . S
C229 C230 1.398 . S
C230 H218 0.950 . S
C230 C229 1.398 . S
C230 C231 1.391 . S
C231 H219 0.950 . S
C231 C227 1.393 . S
C231 C230 1.391 . S
H232 C240 0.950 . S
H233 C245 0.950 . S
H234 C242 0.950 . S
H235 C244 0.950 . S
H236 C246 0.950 . S
H237 C248 0.950 . S
H238 C250 0.950 . S
H239 C251 0.950 . S
C240 H232 0.950 . S
C240 C241 1.375 1_554 S
C240 C242 1.391 . S
C241 C240 1.375 1_556 S
C241 C245 1.405 . S
C242 H234 0.950 . S
C242 C240 1.391 . S
C242 C243 1.400 . S
C243 C242 1.400 . S
C243 C244 1.398 1_554 S
C243 C249 1.491 . S
C244 H235 0.950 . S
C244 C243 1.398 1_556 S
C244 C245 1.391 . S
C245 H233 0.950 . S
C245 C241 1.405 . S
C245 C244 1.391 . S
C246 H236 0.950 . S
C246 C247 1.386 1_556 S
C246 C248 1.391 . S
C247 C246 1.386 1_554 S
C247 C251 1.393 . S
C248 H237 0.950 . S
C248 C246 1.391 . S
C248 C249 1.400 1_556 S
C249 C243 1.491 . S
C249 C248 1.400 1_554 S
C249 C250 1.398 . S
C250 H238 0.950 . S
C250 C249 1.398 . S
C250 C251 1.391 . S
C251 H239 0.950 . S
C251 C247 1.393 . S
C251 C250 1.391 . S
H252 C260 0.950 . S
H253 C265 0.950 . S
H254 C262 0.950 . S
H255 C264 0.950 . S
H256 C266 0.950 . S
H257 C268 0.950 . S
H258 C270 0.950 . S
H259 C271 0.950 . S
C260 H252 0.950 . S
C260 C261 1.386 . S
C260 C262 1.391 . S
C261 C260 1.386 . S
C261 C265 1.393 . S
C262 H254 0.950 . S
C262 C260 1.391 . S
C262 C263 1.400 . S
C263 C262 1.400 . S
C263 C264 1.398 . S
C263 C269 1.491 . S
C264 H255 0.950 . S
C264 C263 1.398 . S
C264 C265 1.391 . S
C265 H253 0.950 . S
C265 C261 1.393 . S
C265 C264 1.391 . S
C266 H256 0.950 . S
C266 C267 1.386 . S
C266 C268 1.391 . S
C267 C266 1.386 . S
C267 C271 1.393 . S
C268 H257 0.950 . S
C268 C266 1.391 . S
C268 C269 1.400 . S
C269 C263 1.491 . S
C269 C268 1.400 . S
C269 C270 1.398 . S
C270 H258 0.950 . S
C270 C269 1.398 . S
C270 C271 1.391 . S
C271 H259 0.950 . S
C271 C267 1.393 . S
C271 C270 1.391 . S
H272 C280 0.950 . S
H273 C285 0.950 . S
H274 C282 0.950 1_565 S
H275 C284 0.950 . S
H276 C286 0.950 . S
H277 C288 0.950 1_545 S
H278 C290 0.950 . S
H279 C291 0.950 . S
C280 H272 0.950 . S
C280 C281 1.372 1_556 S
C280 C282 1.391 . S
C281 C280 1.372 1_554 S
C281 C285 1.405 . S
C282 H274 0.950 1_545 S
C282 C280 1.391 . S
C282 C283 1.400 1_556 S
C283 C282 1.400 1_554 S
C283 C284 1.398 . S
C283 C289 1.491 1_445 S
C284 H275 0.950 . S
C284 C283 1.398 . S
C284 C285 1.391 . S
C285 H273 0.950 . S
C285 C281 1.405 . S
C285 C284 1.391 . S
C286 H276 0.950 . S
C286 C287 1.386 . S
C286 C288 1.391 . S
C287 C286 1.386 . S
C287 C291 1.393 1_554 S
C288 H277 0.950 1_565 S
C288 C286 1.391 . S
C288 C289 1.400 . S
C289 C283 1.491 1_665 S
C289 C288 1.400 . S
C289 C290 1.398 1_554 S
C290 H278 0.950 . S
C290 C289 1.398 1_556 S
C290 C291 1.391 . S
C291 H279 0.950 . S
C291 C287 1.393 1_556 S
C291 C290 1.391 . S
H292 C300 0.950 . S
H293 C305 0.950 . S
H294 C302 0.950 1_565 S
H295 C304 0.950 . S
H296 C306 0.950 . S
H297 C308 0.950 1_545 S
H298 C310 0.950 . S
H299 C311 0.950 . S
C300 H292 0.950 . S
C300 C301 1.386 . S
C300 C302 1.391 . S
C301 C300 1.386 . S
C301 C305 1.393 . S
C302 H294 0.950 1_545 S
C302 C300 1.391 . S
C302 C303 1.400 . S
C303 C302 1.400 . S
C303 C304 1.398 . S
C303 C309 1.491 1_645 S
C304 H295 0.950 . S
C304 C303 1.398 . S
C304 C305 1.391 . S
C305 H293 0.950 . S
C305 C301 1.393 . S
C305 C304 1.391 . S
C306 H296 0.950 . S
C306 C307 1.386 . S
C306 C308 1.391 . S
C307 C306 1.386 . S
C307 C311 1.393 . S
C308 H297 0.950 1_565 S
C308 C306 1.391 . S
C308 C309 1.400 . S
C309 C303 1.491 1_465 S
C309 C308 1.400 . S
C309 C310 1.398 . S
C310 H298 0.950 . S
C310 C309 1.398 . S
C310 C311 1.391 . S
C311 H299 0.950 . S
C311 C307 1.393 . S
C311 C310 1.391 . S
H312 C320 0.950 . S
H313 C325 0.950 . S
H314 C322 0.950 . S
H315 C324 0.950 . S
H316 C326 0.950 . S
H317 C328 0.950 . S
H318 C330 0.950 . S
H319 C331 0.950 . S
C320 H312 0.950 . S
C320 C321 1.386 . S
C320 C322 1.391 . S
C321 C320 1.386 . S
C321 C325 1.393 . S
C322 H314 0.950 . S
C322 C320 1.391 . S
C322 C323 1.400 . S
C323 C322 1.400 . S
C323 C324 1.398 . S
C323 C329 1.491 . S
C324 H315 0.950 . S
C324 C323 1.398 . S
C324 C325 1.391 . S
C325 H313 0.950 . S
C325 C321 1.393 . S
C325 C324 1.391 . S
C326 H316 0.950 . S
C326 C327 1.386 . S
C326 C328 1.391 . S
C327 C326 1.386 . S
C327 C331 1.393 . S
C328 H317 0.950 . S
C328 C326 1.391 . S
C328 C329 1.400 . S
C329 C323 1.491 . S
C329 C328 1.400 . S
C329 C330 1.398 . S
C330 H318 0.950 . S
C330 C329 1.398 . S
C330 C331 1.391 . S
C331 H319 0.950 . S
C331 C327 1.393 . S
C331 C330 1.391 . S
H332 C340 0.950 . S
H333 C345 0.950 . S
H334 C342 0.950 . S
H335 C344 0.950 . S
H336 C346 0.950 . S
H337 C348 0.950 . S
H338 C350 0.950 . S
H339 C351 0.950 . S
C340 H332 0.950 . S
C340 C341 1.386 . S
C340 C342 1.391 . S
C341 C340 1.386 . S
C341 C345 1.393 . S
C342 H334 0.950 . S
C342 C340 1.391 . S
C342 C343 1.400 . S
C343 C342 1.400 . S
C343 C344 1.398 . S
C343 C349 1.491 . S
C344 H335 0.950 . S
C344 C343 1.398 . S
C344 C345 1.391 . S
C345 H333 0.950 . S
C345 C341 1.393 . S
C345 C344 1.391 . S
C346 H336 0.950 . S
C346 C347 1.386 . S
C346 C348 1.391 . S
C347 C346 1.386 . S
C347 C351 1.393 . S
C348 H337 0.950 . S
C348 C346 1.391 . S
C348 C349 1.400 . S
C349 C343 1.491 . S
C349 C348 1.400 . S
C349 C350 1.398 . S
C350 H338 0.950 . S
C350 C349 1.398 . S
C350 C351 1.391 . S
C351 H339 0.950 . S
C351 C347 1.393 . S
C351 C350 1.391 . S
H352 C360 0.950 . S
H353 C365 0.950 . S
H354 C362 0.950 . S
H355 C364 0.950 . S
H356 C366 0.950 . S
H357 C368 0.950 . S
H358 C370 0.950 . S
H359 C371 0.950 . S
C360 H352 0.950 . S
C360 C361 1.386 . S
C360 C362 1.391 . S
C361 C360 1.386 . S
C361 C365 1.393 . S
C362 H354 0.950 . S
C362 C360 1.391 . S
C362 C363 1.400 . S
C363 C362 1.400 . S
C363 C364 1.398 . S
C363 C369 1.491 . S
C364 H355 0.950 . S
C364 C363 1.398 . S
C364 C365 1.391 . S
C365 H353 0.950 . S
C365 C361 1.393 . S
C365 C364 1.391 . S
C366 H356 0.950 . S
C366 C367 1.386 . S
C366 C368 1.391 . S
C367 C366 1.386 . S
C367 C371 1.393 . S
C368 H357 0.950 . S
C368 C366 1.391 . S
C368 C369 1.400 . S
C369 C363 1.491 . S
C369 C368 1.400 . S
C369 C370 1.398 . S
C370 H358 0.950 . S
C370 C369 1.398 . S
C370 C371 1.391 . S
C371 H359 0.950 . S
C371 C367 1.393 . S
C371 C370 1.391 . S
H372 C380 0.950 . S
H373 C385 0.950 . S
H374 C382 0.950 . S
H375 C384 0.950 . S
H376 C386 0.950 . S
H377 C388 0.950 . S
H378 C390 0.950 . S
H379 C391 0.950 . S
C380 H372 0.950 . S
C380 C381 1.386 . S
C380 C382 1.391 . S
C381 C380 1.386 . S
C381 C385 1.393 . S
C382 H374 0.950 . S
C382 C380 1.391 . S
C382 C383 1.400 . S
C383 C382 1.400 . S
C383 C384 1.398 . S
C383 C389 1.491 . S
C384 H375 0.950 . S
C384 C383 1.398 . S
C384 C385 1.391 . S
C385 H373 0.950 . S
C385 C381 1.393 . S
C385 C384 1.391 . S
C386 H376 0.950 . S
C386 C387 1.386 . S
C386 C388 1.391 . S
C387 C386 1.386 . S
C387 C391 1.393 . S
C388 H377 0.950 . S
C388 C386 1.391 . S
C388 C389 1.400 . S
C389 C383 1.491 . S
C389 C388 1.400 . S
C389 C390 1.398 . S
C390 H378 0.950 . S
C390 C389 1.398 . S
C390 C391 1.391 . S
C391 H379 0.950 . S
C391 C387 1.393 . S
C391 C390 1.391 . S
H392 C400 0.950 . S
H393 C405 0.950 . S
H394 C402 0.950 . S
H395 C404 0.950 . S
H396 C406 0.950 . S
H397 C408 0.950 . S
H398 C410 0.950 . S
H399 C411 0.950 . S
C400 H392 0.950 . S
C400 C401 1.386 1_655 S
C400 C402 1.391 . S
C401 C400 1.386 1_455 S
C401 C405 1.393 . S
C402 H394 0.950 . S
C402 C400 1.391 . S
C402 C403 1.400 . S
C403 C402 1.400 . S
C403 C404 1.398 1_655 S
C403 C409 1.491 . S
C404 H395 0.950 . S
C404 C403 1.398 1_455 S
C404 C405 1.391 . S
C405 H393 0.950 . S
C405 C401 1.393 . S
C405 C404 1.391 . S
C406 H396 0.950 . S
C406 C407 1.386 . S
C406 C408 1.391 . S
C407 C406 1.386 . S
C407 C411 1.393 . S
C408 H397 0.950 . S
C408 C406 1.391 . S
C408 C409 1.400 . S
C409 C403 1.491 . S
C409 C408 1.400 . S
C409 C410 1.398 . S
C410 H398 0.950 . S
C410 C409 1.398 . S
C410 C411 1.391 . S
C411 H399 0.950 . S
C411 C407 1.393 . S
C411 C410 1.391 . S
H412 C420 0.950 . S
H413 C425 0.950 . S
H414 C422 0.950 . S
H415 C424 0.950 . S
H416 C426 0.950 . S
H417 C428 0.950 . S
H418 C430 0.950 . S
H419 C431 0.950 . S
C420 H412 0.950 . S
C420 C421 1.386 . S
C420 C422 1.391 . S
C421 C420 1.386 . S
C421 C425 1.393 . S
C422 H414 0.950 . S
C422 C420 1.391 . S
C422 C423 1.400 . S
C423 C422 1.400 . S
C423 C424 1.398 . S
C423 C429 1.491 . S
C424 H415 0.950 . S
C424 C423 1.398 . S
C424 C425 1.391 . S
C425 H413 0.950 . S
C425 C421 1.393 . S
C425 C424 1.391 . S
C426 H416 0.950 . S
C426 C427 1.386 . S
C426 C428 1.391 . S
C427 C426 1.386 . S
C427 C431 1.393 1_455 S
C428 H417 0.950 . S
C428 C426 1.391 . S
C428 C429 1.400 1_455 S
C429 C423 1.491 . S
C429 C428 1.400 1_655 S
C429 C430 1.398 . S
C430 H418 0.950 . S
C430 C429 1.398 . S
C430 C431 1.391 . S
C431 H419 0.950 . S
C431 C427 1.393 1_655 S
C431 C430 1.391 . S
H432 C440 0.950 . S
H433 C445 0.950 . S
H434 C442 0.950 . S
H435 C444 0.950 . S
H436 C446 0.950 . S
H437 C448 0.950 . S
H438 C450 0.950 . S
H439 C451 0.950 . S
C440 H432 0.950 . S
C440 C441 1.386 . S
C440 C442 1.391 . S
C441 C440 1.386 . S
C441 C445 1.393 . S
C442 H434 0.950 . S
C442 C440 1.391 . S
C442 C443 1.400 . S
C443 C442 1.400 . S
C443 C444 1.398 . S
C443 C449 1.491 . S
C444 H435 0.950 . S
C444 C443 1.398 . S
C444 C445 1.391 . S
C445 H433 0.950 . S
C445 C441 1.393 . S
C445 C444 1.391 . S
C446 H436 0.950 . S
C446 C447 1.386 . S
C446 C448 1.391 1_655 S
C447 C446 1.386 . S
C447 C451 1.393 . S
C448 H437 0.950 . S
C448 C446 1.391 1_455 S
C448 C449 1.400 . S
C449 C443 1.491 . S
C449 C448 1.400 . S
C449 C450 1.398 1_455 S
C450 H438 0.950 . S
C450 C449 1.398 1_655 S
C450 C451 1.391 . S
C451 H439 0.950 . S
C451 C447 1.393 . S
C451 C450 1.391 . S
H452 C460 0.950 . S
H453 C465 0.950 . S
H454 C462 0.950 . S
H455 C464 0.950 . S
H456 C466 0.950 . S
H457 C468 0.950 . S
H458 C470 0.950 . S
H459 C471 0.950 . S
C460 H452 0.950 . S
C460 C461 1.386 . S
C460 C462 1.391 . S
C461 C460 1.386 . S
C461 C465 1.393 . S
C462 H454 0.950 . S
C462 C460 1.391 . S
C462 C463 1.400 . S
C463 C462 1.400 . S
C463 C464 1.398 . S
C463 C469 1.491 . S
C464 H455 0.950 . S
C464 C463 1.398 . S
C464 C465 1.391 . S
C465 H453 0.950 . S
C465 C461 1.393 . S
C465 C464 1.391 . S
C466 H456 0.950 . S
C466 C467 1.386 1_455 S
C466 C468 1.391 . S
C467 C466 1.386 1_655 S
C467 C471 1.393 . S
C468 H457 0.950 . S
C468 C466 1.391 . S
C468 C469 1.400 . S
C469 C463 1.491 . S
C469 C468 1.400 . S
C469 C470 1.398 1_455 S
C470 H458 0.950 . S
C470 C469 1.398 1_655 S
C470 C471 1.391 . S
C471 H459 0.950 . S
C471 C467 1.393 . S
C471 C470 1.391 . S
C161 C26 2.027 . S
C167 C2 2.027 . S
C181 C64 2.026 . S
C187 C40 2.026 . S
C201 C102 2.033 . S
C207 C78 2.033 . S
C221 C140 2.025 . S
C227 C116 2.025 . S
C241 C57 1.638 1_556 S
C247 C20 1.640 . S
C261 C133 1.640 . S
C267 C96 1.640 . S
C281 C19 1.648 . S
C287 C58 1.647 . S
C301 C134 1.642 . S
C307 C95 1.642 . S
C321 C118 1.194 . S
C327 C17 1.217 . S
C341 C42 1.194 . S
C347 C93 1.217 . S
C361 C99 1.165 . S
C367 C66 1.232 . S
C381 C23 1.197 . S
C387 C142 1.198 . S
C401 C80 1.198 . S
C407 C55 1.198 . S
C421 C131 1.218 . S
C427 C4 1.161 . S
C441 C28 1.201 . S
C447 C137 1.201 . S
C461 C104 1.198 . S
C467 C61 1.198 . S
