# Generated by pormake.
# Topology wkf, (6)-cn, num edge types: 1
# Building blocks:
#     Node 0, Type 0, BuildingBlock: KUMBUR_clean_sbu_1, # of connection points: 6
#     Node 1, Type 0, BuildingBlock: KUMBUR_clean_sbu_1, # of connection points: 6
#     Node 2, Type 0, BuildingBlock: KUMBUR_clean_sbu_1, # of connection points: 6
#     Node 3, Type 0, BuildingBlock: KUMBUR_clean_sbu_1, # of connection points: 6
#     Node 4, Type 0, BuildingBlock: KUMBUR_clean_sbu_1, # of connection points: 6
#     Node 5, Type 0, BuildingBlock: KUMBUR_clean_sbu_1, # of connection points: 6
#     Node 6, Type 0, BuildingBlock: KUMBUR_clean_sbu_1, # of connection points: 6
#     Node 7, Type 0, BuildingBlock: KUMBUR_clean_sbu_1, # of connection points: 6
#     Node 8, Type 0, BuildingBlock: KUMBUR_clean_sbu_1, # of connection points: 6
#     Node 9, Type 0, BuildingBlock: KUMBUR_clean_sbu_1, # of connection points: 6
#     Node 10, Type 0, BuildingBlock: KUMBUR_clean_sbu_1, # of connection points: 6
#     Node 11, Type 0, BuildingBlock: KUMBUR_clean_sbu_1, # of connection points: 6
#     Edge 12, Type (0, 0), BuildingBlock: EZIPEK_clean_linker_0, # of connection points: 2
#     Edge 13, Type (0, 0), BuildingBlock: EZIPEK_clean_linker_0, # of connection points: 2
#     Edge 14, Type (0, 0), BuildingBlock: EZIPEK_clean_linker_0, # of connection points: 2
#     Edge 15, Type (0, 0), BuildingBlock: EZIPEK_clean_linker_0, # of connection points: 2
#     Edge 16, Type (0, 0), BuildingBlock: EZIPEK_clean_linker_0, # of connection points: 2
#     Edge 17, Type (0, 0), BuildingBlock: EZIPEK_clean_linker_0, # of connection points: 2
#     Edge 18, Type (0, 0), BuildingBlock: EZIPEK_clean_linker_0, # of connection points: 2
#     Edge 19, Type (0, 0), BuildingBlock: EZIPEK_clean_linker_0, # of connection points: 2
#     Edge 20, Type (0, 0), BuildingBlock: EZIPEK_clean_linker_0, # of connection points: 2
#     Edge 21, Type (0, 0), BuildingBlock: EZIPEK_clean_linker_0, # of connection points: 2
#     Edge 22, Type (0, 0), BuildingBlock: EZIPEK_clean_linker_0, # of connection points: 2
#     Edge 23, Type (0, 0), BuildingBlock: EZIPEK_clean_linker_0, # of connection points: 2
#     Edge 24, Type (0, 0), BuildingBlock: EZIPEK_clean_linker_0, # of connection points: 2
#     Edge 25, Type (0, 0), BuildingBlock: EZIPEK_clean_linker_0, # of connection points: 2
#     Edge 26, Type (0, 0), BuildingBlock: EZIPEK_clean_linker_0, # of connection points: 2
#     Edge 27, Type (0, 0), BuildingBlock: EZIPEK_clean_linker_0, # of connection points: 2
#     Edge 28, Type (0, 0), BuildingBlock: EZIPEK_clean_linker_0, # of connection points: 2
#     Edge 29, Type (0, 0), BuildingBlock: EZIPEK_clean_linker_0, # of connection points: 2
#     Edge 30, Type (0, 0), BuildingBlock: EZIPEK_clean_linker_0, # of connection points: 2
#     Edge 31, Type (0, 0), BuildingBlock: EZIPEK_clean_linker_0, # of connection points: 2
#     Edge 32, Type (0, 0), BuildingBlock: EZIPEK_clean_linker_0, # of connection points: 2
#     Edge 33, Type (0, 0), BuildingBlock: EZIPEK_clean_linker_0, # of connection points: 2
#     Edge 34, Type (0, 0), BuildingBlock: EZIPEK_clean_linker_0, # of connection points: 2
#     Edge 35, Type (0, 0), BuildingBlock: EZIPEK_clean_linker_0, # of connection points: 2
#     Edge 36, Type (0, 0), BuildingBlock: EZIPEK_clean_linker_0, # of connection points: 2
#     Edge 37, Type (0, 0), BuildingBlock: EZIPEK_clean_linker_0, # of connection points: 2
#     Edge 38, Type (0, 0), BuildingBlock: EZIPEK_clean_linker_0, # of connection points: 2
#     Edge 39, Type (0, 0), BuildingBlock: EZIPEK_clean_linker_0, # of connection points: 2
#     Edge 40, Type (0, 0), BuildingBlock: EZIPEK_clean_linker_0, # of connection points: 2
#     Edge 41, Type (0, 0), BuildingBlock: EZIPEK_clean_linker_0, # of connection points: 2
#     Edge 42, Type (0, 0), BuildingBlock: EZIPEK_clean_linker_0, # of connection points: 2
#     Edge 43, Type (0, 0), BuildingBlock: EZIPEK_clean_linker_0, # of connection points: 2
#     Edge 44, Type (0, 0), BuildingBlock: EZIPEK_clean_linker_0, # of connection points: 2
#     Edge 45, Type (0, 0), BuildingBlock: EZIPEK_clean_linker_0, # of connection points: 2
#     Edge 46, Type (0, 0), BuildingBlock: EZIPEK_clean_linker_0, # of connection points: 2
#     Edge 47, Type (0, 0), BuildingBlock: EZIPEK_clean_linker_0, # of connection points: 2
# Relax obj value: 0.329
# Max RMSD: 0.291
# Mean RMSD: 0.279
data_MOF--net-wkf--node1-KUMBUR_clean_sbu_1--edge1-EZIPEK_clean_linker_0
_symmetry_space_group_name_H-M    P1
_symmetry_Int_Tables_number       1
_symmetry_cell_setting            triclinic
loop_
_symmetry_equiv_pos_as_xyz
'x, y, z'
_cell_length_a     22.575123
_cell_length_b     22.621096
_cell_length_c     69.005331
_cell_angle_alpha  89.866351
_cell_angle_beta   89.860287
_cell_angle_gamma 119.38048
loop_
_atom_site_label
_atom_site_type_symbol
_atom_site_fract_x
_atom_site_fract_y
_atom_site_fract_z
_atom_type_partial_charge
Tb0 Tb 0.43621 0.91152 0.36393 0.0
C1 C 0.72277 0.96945 0.3628 0.0
N2 N 0.69442 0.95189 0.38062 0.0
C3 C 0.78533 0.93377 0.39121 0.0
C4 C 0.78485 0.97165 0.35851 0.0
C5 C 0.72198 0.92897 0.39437 0.0
C6 C 0.81787 0.95708 0.37335 0.0
C7 C 0.70923 0.98926 0.32919 0.0
C8 C 0.68645 0.98009 0.34861 0.0
C9 C 0.77249 0.99448 0.32481 0.0
C10 C 0.8107 0.98645 0.33952 0.0
Tb11 Tb 0.60628 0.9718 0.3868 0.0
N12 N 0.62542 0.97411 0.35358 0.0
C13 C 0.66625 0.98927 0.31468 0.0
C14 C 0.58139 0.96795 0.33918 0.0
C15 C 0.60121 0.9765 0.31968 0.0
H16 H 0.69708 0.91053 0.4082 0.0
H17 H 0.56583 0.97236 0.3085 0.0
H18 H 0.46049 0.99205 0.32105 0.0
H19 H 0.23743 0.84802 0.41782 0.0
H20 H 0.53006 0.95386 0.34234 0.0
H21 H 0.68136 0.99545 0.29957 0.0
H22 H 0.32014 0.82915 0.39974 0.0
H23 H 0.80902 0.91958 0.40256 0.0
H24 H 0.79124 1.00251 0.31003 0.0
H25 H 0.85859 0.98887 0.33592 0.0
H26 H 0.42592 0.06982 0.30625 0.0
H27 H 0.86721 0.96132 0.37101 0.0
H28 H 0.2163 0.94153 0.40851 0.0
N29 N 0.41185 0.98595 0.34812 0.0
C30 C 0.36832 1.00071 0.35801 0.0
C31 C 0.41028 1.05149 0.3209 0.0
C32 C 0.34766 1.0451 0.35005 0.0
C33 C 0.42945 1.00727 0.32929 0.0
C34 C 0.37006 0.07116 0.33142 0.0
N35 N 0.35078 0.9149 0.381 0.0
C36 C 0.31337 0.87144 0.3957 0.0
C37 C 0.28853 0.97552 0.38474 0.0
C38 C 0.33739 0.96465 0.37502 0.0
C39 C 0.25407 0.93453 0.40068 0.0
C40 C 0.26571 0.88157 0.40596 0.0
H41 H 0.35343 0.10339 0.32459 0.0
H42 H 0.28541 0.09243 0.35454 0.0
H43 H 0.23586 1.03377 0.38505 0.0
O44 O 0.33638 0.83351 0.35807 0.0
O45 O 0.44812 0.96704 0.3922 0.0
O46 O 0.56313 1.03143 0.39781 0.0
O47 O 0.40779 0.87392 0.3349 0.0
O48 O 0.42314 0.83956 0.38729 0.0
O49 O 0.51961 0.89817 0.4059 0.0
O50 O 0.70298 1.04432 0.39642 0.0
O51 O 0.57256 0.86518 0.37993 0.0
O52 O 0.48863 0.84426 0.35765 0.0
O53 O 0.63097 0.96904 0.41604 0.0
O54 O 0.61486 0.06738 0.37277 0.0
O55 O 0.50974 1.02828 0.35832 0.0
C56 C 0.50084 1.01726 0.40125 0.0
C57 C 0.28749 0.82998 0.32688 0.0
C58 C 0.2027 0.7842 0.29997 0.0
C59 C 0.17955 0.82896 0.3055 0.0
C60 C 0.25608 0.8674 0.33269 0.0
C61 C 0.20511 0.86908 0.32185 0.0
C62 C 0.25854 0.7859 0.3105 0.0
C63 C 0.45531 0.84925 0.40389 0.0
C64 C 0.34421 0.83239 0.33941 0.0
C65 C 0.30167 0.05836 0.36031 0.0
C66 C 0.2729 1.02439 0.3777 0.0
C67 C 0.53251 0.82636 0.36605 0.0
C68 C 0.69941 0.07845 0.42859 0.0
C69 C 0.74817 0.19823 0.43543 0.0
C70 C 0.74305 0.18449 0.45539 0.0
C71 C 0.69587 0.06483 0.44855 0.0
C72 C 0.72046 0.14462 0.42227 0.0
C73 C 0.71515 0.1175 0.46191 0.0
C74 C 0.57189 0.08075 0.36271 0.0
C75 C 0.688 1.02549 0.41446 0.0
H76 H 0.13842 0.82999 0.2977 0.0
H77 H 0.26848 0.89352 0.34615 0.0
H78 H 0.18347 0.90004 0.3266 0.0
H79 H 0.27772 0.75228 0.30638 0.0
H80 H 0.76443 0.22552 0.46577 0.0
H81 H 0.67904 1.01379 0.45376 0.0
H82 H 0.725 0.15623 0.4069 0.0
H83 H 0.71241 0.10686 0.47728 0.0
Tb84 Tb 0.57201 0.40901 0.52853 0.0
C85 C 0.78186 0.70808 0.52996 0.0
N86 N 0.77711 0.68004 0.54762 0.0
C87 C 0.88299 0.77761 0.55669 0.0
C88 C 0.83533 0.77353 0.52525 0.0
C89 C 0.82972 0.71214 0.56046 0.0
C90 C 0.88474 0.80934 0.53921 0.0
C91 C 0.7475 0.69021 0.49648 0.0
C92 C 0.73851 0.66725 0.51591 0.0
C93 C 0.7965 0.75729 0.49198 0.0
C94 C 0.8404 0.79909 0.50641 0.0
Tb95 Tb 0.68076 0.5772 0.55387 0.0
N96 N 0.6936 0.6022 0.52087 0.0
C97 C 0.71055 0.64386 0.482 0.0
C98 C 0.6613 0.55636 0.50646 0.0
C99 C 0.66897 0.5761 0.48697 0.0
H100 H 0.83176 0.68814 0.57375 0.0
H101 H 0.64238 0.53892 0.4758 0.0
H102 H 0.52753 0.44578 0.48528 0.0
H103 H 0.41514 0.19883 0.5767 0.0
H104 H 0.62962 0.50428 0.50971 0.0
H105 H 0.71645 0.65908 0.4669 0.0
H106 H 0.52229 0.27927 0.56054 0.0
H107 H 0.92321 0.80312 0.56717 0.0
H108 H 0.80328 0.77607 0.47722 0.0
H109 H 0.88044 0.84955 0.50259 0.0
H110 H 0.42182 0.43113 0.4703 0.0
H111 H 0.9266 0.85964 0.53618 0.0
H112 H 0.30775 0.19585 0.56773 0.0
N113 N 0.47927 0.39833 0.51192 0.0
C114 C 0.41869 0.35839 0.521 0.0
C115 C 0.42046 0.41136 0.48469 0.0
C116 C 0.35734 0.34921 0.51303 0.0
C117 C 0.48014 0.41931 0.49317 0.0
C118 C 0.35924 0.37839 0.49497 0.0
N119 N 0.47656 0.3233 0.54283 0.0
C120 C 0.47583 0.27842 0.55639 0.0
C121 C 0.35497 0.27414 0.54579 0.0
C122 C 0.4174 0.31991 0.53699 0.0
C123 C 0.35471 0.23158 0.56059 0.0
C124 C 0.41518 0.23288 0.56565 0.0
H125 H 0.31319 0.37237 0.48834 0.0
H126 H 0.24833 0.30099 0.517 0.0
H127 H 0.24621 0.23622 0.54582 0.0
O128 O 0.5464 0.30916 0.52077 0.0
O129 O 0.53665 0.4126 0.55871 0.0
O130 O 0.57655 0.52588 0.56457 0.0
O131 O 0.5904 0.38785 0.49957 0.0
O132 O 0.62388 0.3885 0.55231 0.0
O133 O 0.68083 0.48899 0.56909 0.0
O134 O 0.68579 0.65578 0.57181 0.0
O135 O 0.75643 0.55114 0.54232 0.0
O136 O 0.69044 0.45611 0.52351 0.0
O137 O 0.72441 0.59042 0.58111 0.0
O138 O 0.59083 0.5858 0.54187 0.0
O139 O 0.53183 0.48616 0.52448 0.0
C140 C 0.53392 0.46211 0.56815 0.0
C141 C 0.51282 0.27408 0.48812 0.0
C142 C 0.48186 0.19585 0.46007 0.0
C143 C 0.4135 0.17731 0.46305 0.0
C144 C 0.44313 0.25008 0.49101 0.0
C145 C 0.39442 0.20402 0.4784 0.0
C146 C 0.53218 0.24572 0.47248 0.0
C147 C 0.66179 0.42352 0.56708 0.0
C148 C 0.56313 0.32262 0.50261 0.0
C149 C 0.29574 0.30746 0.52265 0.0
C150 C 0.29456 0.27027 0.53904 0.0
C151 C 0.75249 0.50476 0.52996 0.0
C152 C 0.67282 0.62194 0.60542 0.0
C153 C 0.60522 0.64344 0.629 0.0
C154 C 0.60746 0.59644 0.64176 0.0
C155 C 0.67874 0.57872 0.61905 0.0
C156 C 0.63659 0.6548 0.61066 0.0
C157 C 0.64554 0.56536 0.63692 0.0
C158 C 0.53799 0.54572 0.53047 0.0
C159 C 0.70807 0.63551 0.58645 0.0
H160 H 0.37424 0.13963 0.4539 0.0
H161 H 0.42536 0.26463 0.50347 0.0
H162 H 0.34113 0.18711 0.48098 0.0
H163 H 0.58517 0.2602 0.47043 0.0
H164 H 0.58203 0.58576 0.65569 0.0
H165 H 0.70876 0.55483 0.61594 0.0
H166 H 0.63548 0.69181 0.60086 0.0
H167 H 0.64962 0.53098 0.64707 0.0
Tb168 Tb 0.22217 0.54929 0.6941 0.0
C169 C 0.13393 0.76104 0.69205 0.0
N170 N 0.15916 0.75663 0.70939 0.0
C171 C 0.17794 0.86749 0.71778 0.0
C172 C 0.12724 0.81795 0.68704 0.0
C173 C 0.18429 0.81026 0.7219 0.0
C174 C 0.1479 0.87075 0.70043 0.0
C175 C 0.10788 0.72041 0.65921 0.0
C176 C 0.12416 0.71285 0.67848 0.0
C177 C 0.0946 0.77327 0.65452 0.0
C178 C 0.10439 0.82218 0.66846 0.0
Tb179 Tb 0.15721 0.65669 0.7163 0.0
N180 N 0.14246 0.66587 0.68342 0.0
C181 C 0.11176 0.67881 0.64494 0.0
C182 C 0.15338 0.63078 0.66909 0.0
C183 C 0.13689 0.63548 0.6498 0.0
H184 H 0.20832 0.80861 0.73525 0.0
H185 H 0.14461 0.6065 0.63861 0.0
H186 H 0.15601 0.51212 0.64978 0.0
H187 H 0.25921 0.39395 0.748 0.0
H188 H 0.17575 0.59989 0.67228 0.0
H189 H 0.1003 0.68327 0.62994 0.0
H190 H 0.28384 0.50131 0.73253 0.0
H191 H 0.19654 0.90916 0.72792 0.0
H192 H 1.08107 0.77926 0.63988 0.0
H193 H 0.0979 0.86494 0.66439 0.0
H194 H 0.1 0.41056 0.62926 0.0
H195 H 0.14391 0.91552 0.69713 0.0
H196 H 0.18289 0.28533 0.73222 0.0
N197 N 0.15595 0.45792 0.67506 0.0
C198 C 0.14368 0.39695 0.68248 0.0
C199 C 0.11133 0.40593 0.64423 0.0
C200 C 0.11409 0.33806 0.6709 0.0
C201 C 0.14221 0.46324 0.656 0.0
C202 C 0.09725 0.34313 0.6517 0.0
N203 N 0.21148 0.45434 0.70971 0.0
C204 C 0.24753 0.45439 0.72581 0.0
C205 C 0.15984 0.33249 0.70824 0.0
C206 C 0.1691 0.39478 0.70075 0.0
C207 C 0.19025 0.33228 0.72583 0.0
C208 C 0.23443 0.39357 0.7346 0.0
H209 H 1.07515 0.29911 0.64235 0.0
H210 H 1.08342 0.23106 0.66961 0.0
H211 H 0.11917 0.22534 0.70268 0.0
O212 O 0.30444 0.53079 0.69102 0.0
O213 O 0.17759 0.51567 0.72394 0.0
O214 O 0.10195 0.55422 0.72767 0.0
O215 O 0.27055 0.56245 0.66635 0.0
O216 O 0.29072 0.60226 0.71815 0.0
O217 O 0.24511 0.66153 0.73301 0.0
O218 O 1.08334 0.67314 0.73021 0.0
O219 O 0.26018 0.73275 0.7063 0.0
O220 O 0.28586 0.66669 0.68617 0.0
O221 O 0.1728 0.68731 0.74522 0.0
O222 O 1.06243 0.56538 0.70374 0.0
O223 O 0.10378 0.50159 0.68838 0.0
C224 C 0.12416 0.51311 0.73261 0.0
C225 C 0.31575 0.48512 0.66081 0.0
C226 C 0.35699 0.44457 0.63309 0.0
C227 C 0.32338 0.37914 0.6411 0.0
C228 C 0.29164 0.42051 0.66917 0.0
C229 C 0.2922 0.36761 0.65912 0.0
C230 C 0.35105 0.49766 0.64269 0.0
C231 C 0.29173 0.64179 0.73222 0.0
C232 C 0.31035 0.53945 0.67234 0.0
C233 C 0.10553 0.27654 0.67838 0.0
C234 C 0.12591 0.27324 0.69723 0.0
C235 C 0.30062 0.72908 0.69309 0.0
C236 C 1.07157 0.63562 0.76301 0.0
C237 C 0.96098 0.5639 0.77746 0.0
C238 C 0.99139 0.55518 0.79408 0.0
C239 C 0.10224 0.62951 0.78008 0.0
C240 C 1.00099 0.6005 0.76163 0.0
C241 C 1.06225 0.58804 0.79531 0.0
C242 C 1.04984 0.50992 0.69341 0.0
C243 C 0.11257 0.68044 0.74702 0.0
H244 H 0.32588 0.33773 0.63402 0.0
H245 H 0.27432 0.41075 0.68389 0.0
H246 H 0.27106 0.31791 0.66577 0.0
H247 H 0.37559 0.54828 0.63661 0.0
H248 H 0.96079 0.5281 0.80656 0.0
H249 H 0.15696 0.65694 0.78169 0.0
H250 H 0.97652 0.60741 0.74898 0.0
H251 H 0.08622 0.58382 0.8084 0.0
Tb252 Tb 0.7277 0.20325 0.86138 0.0
C253 C 0.42503 0.11369 0.86324 0.0
N254 N 0.4576 0.14301 0.87986 0.0
C255 C 0.36368 0.15757 0.88983 0.0
C256 C 0.35928 0.1031 0.85939 0.0
C257 C 0.4296 0.16837 0.89271 0.0
C258 C 0.32765 0.12324 0.8733 0.0
C259 C 0.43553 0.08551 0.83022 0.0
C260 C 0.46233 0.10426 0.84906 0.0
C261 C 0.36769 0.06846 0.82669 0.0
C262 C 0.32944 0.07715 0.84132 0.0
Tb263 Tb 0.55707 0.14238 0.8854 0.0
N264 N 0.52881 0.12582 0.85292 0.0
C265 C 0.47931 0.09041 0.81521 0.0
C266 C 0.5727 0.13742 0.83791 0.0
C267 C 0.54858 0.11858 0.81896 0.0
H268 H 0.45717 0.19491 0.90552 0.0
H269 H 0.58339 0.1267 0.80716 0.0
H270 H 0.6866 0.13676 0.81645 0.0
H271 H 0.93456 0.23174 0.90755 0.0
H272 H 0.62619 0.16104 0.8404 0.0
H273 H 0.46105 0.07707 0.80049 0.0
H274 H 0.85345 0.26477 0.8946 0.0
H275 H 0.34081 0.17589 0.90032 0.0
H276 H 0.34582 1.05272 0.8124 0.0
H277 H 0.27855 0.06766 0.83813 0.0
H278 H 0.70367 1.05512 0.79695 0.0
H279 H 0.277 0.11579 0.87095 0.0
H280 H 0.94201 0.13573 0.89313 0.0
N281 N 0.73876 0.12868 0.84115 0.0
C282 C 0.78105 0.10631 0.84795 0.0
C283 C 0.72482 0.06833 0.81137 0.0
C284 C 0.79317 0.06062 0.83708 0.0
C285 C 0.71491 0.1143 0.82249 0.0
C286 C 0.7629 1.04025 0.81886 0.0
N287 N 0.81139 0.18493 0.87377 0.0
C288 C 0.85516 0.22193 0.88834 0.0
C289 C 0.86416 0.11479 0.87175 0.0
C290 C 0.81667 0.13367 0.86511 0.0
C291 C 0.90513 0.14898 0.88761 0.0
C292 C 0.90138 0.20349 0.89572 0.0
H293 H 0.77109 1.00518 0.8101 0.0
H294 H 0.84833 1.00534 0.83593 0.0
H295 H 0.90871 1.05047 0.86651 0.0
O296 O 0.82848 0.28193 0.85649 0.0
O297 O 0.71898 0.15276 0.89059 0.0
O298 O 0.60475 0.08679 0.89663 0.0
O299 O 0.75755 0.25069 0.83341 0.0
O300 O 0.74644 0.26416 0.88782 0.0
O301 O 0.64062 0.22915 0.9017 0.0
O302 O 0.46844 0.06951 0.89952 0.0
O303 O 0.58444 0.24612 0.87562 0.0
O304 O 0.67548 0.27071 0.85525 0.0
O305 O 0.54383 0.15671 0.91482 0.0
O306 O 0.55255 1.04748 0.87206 0.0
O307 O 0.6556 0.08778 0.85618 0.0
C308 C 0.66742 0.10321 0.90045 0.0
C309 C 0.87656 0.29166 0.82465 0.0
C310 C 0.95817 0.33802 0.79681 0.0
C311 C 0.98231 0.29356 0.80176 0.0
C312 C 0.90765 0.25303 0.82952 0.0
C313 C 0.95786 0.25221 0.81802 0.0
C314 C 0.9037 0.33624 0.80817 0.0
C315 C 0.70811 0.26664 0.90194 0.0
C316 C 0.82137 0.2888 0.83806 0.0
C317 C 0.83784 1.03946 0.84423 0.0
C318 C 0.87262 0.06574 0.86161 0.0
C319 C 0.62822 0.28638 0.86237 0.0
C320 C 0.49605 1.05255 0.93149 0.0
C321 C 0.45773 0.93881 0.94369 0.0
C322 C 0.49095 0.96514 0.9613 0.0
C323 C 0.5275 0.07887 0.94939 0.0
C324 C 0.46552 0.9828 0.9284 0.0
C325 C 0.52742 1.03543 0.96391 0.0
C326 C 0.59488 1.03508 0.86123 0.0
C327 C 0.4914 0.09653 0.91644 0.0
H328 H 1.02297 0.29323 0.79345 0.0
H329 H 0.89542 0.22497 0.84274 0.0
H330 H 0.97966 0.22076 0.82214 0.0
H331 H 0.88428 0.37015 0.80456 0.0
H332 H 0.48462 0.93169 0.97333 0.0
H333 H 0.55042 0.13255 0.95234 0.0
H334 H 0.43935 0.96137 0.91489 0.0
H335 H 0.5517 1.05606 0.97765 0.0
Tb336 Tb 0.5918 0.71081 0.02983 0.0
C337 C 0.37739 0.4132 0.03006 0.0
N338 N 0.38302 0.44294 0.04741 0.0
C339 C 0.27735 0.34812 0.05771 0.0
C340 C 0.32275 0.34826 0.02599 0.0
C341 C 0.33175 0.41342 0.0608 0.0
C342 C 0.27406 0.31448 0.04045 0.0
C343 C 0.41478 0.42596 0.99681 0.0
C344 C 0.42329 0.45106 1.01589 0.0
C345 C 0.36309 0.3596 0.99282 0.0
C346 C 0.31721 0.32058 1.00745 0.0
Tb347 Tb 0.48347 0.53965 0.0532 0.0
N348 N 0.47103 0.51551 1.02037 0.0
C349 C 0.45554 0.46969 0.98214 0.0
C350 C 0.50588 0.55984 1.00572 0.0
C351 C 0.49982 0.53747 0.98652 0.0
H352 H 0.33408 0.43895 0.07422 0.0
H353 H 0.52824 0.57259 0.97501 0.0
H354 H 0.62149 0.6725 0.9847 0.0
H355 H 0.76494 0.91476 0.07688 0.0
H356 H 0.53735 0.61259 1.0086 0.0
H357 H 0.45038 0.45274 0.96725 0.0
H358 H 0.65306 0.8366 0.06313 0.0
H359 H 0.23826 0.32369 0.06866 0.0
H360 H 0.35639 0.33912 0.97831 0.0
H361 H 0.27596 0.27045 1.00406 0.0
H362 H 0.72116 0.68758 0.96599 0.0
H363 H 0.23226 0.26372 0.03812 0.0
H364 H 0.86858 0.91915 0.06343 0.0
N365 N 0.67867 0.7222 1.00989 0.0
C366 C 0.74218 0.7627 1.01718 0.0
C367 C 0.72762 0.70808 0.98047 0.0
C368 C 0.80048 0.77331 1.00683 0.0
C369 C 0.67117 0.69937 0.99114 0.0
C370 C 0.7924 0.74385 0.98852 0.0
N371 N 0.692 0.79322 0.04269 0.0
C372 C 0.69761 0.83708 0.05721 0.0
C373 C 0.81401 0.84298 0.04163 0.0
C374 C 0.74882 0.79742 0.03444 0.0
C375 C 0.81939 0.8837 0.0575 0.0
C376 C 0.76106 0.88168 0.06506 0.0
H377 H 0.83608 0.75088 0.98015 0.0
H378 H 0.91006 0.8242 1.00684 0.0
H379 H 0.92235 0.88402 0.03743 0.0
O380 O 0.61097 0.81145 0.02568 0.0
O381 O 0.63428 0.70069 0.05864 0.0
O382 O 0.58518 0.58649 0.06477 0.0
O383 O 0.5776 0.74374 1.00189 0.0
O384 O 0.55125 0.72896 0.05673 0.0
O385 O 0.47891 0.62288 0.06977 0.0
O386 O 0.46934 0.44972 0.06641 0.0
O387 O 0.40671 0.56776 0.04443 0.0
O388 O 0.4722 0.65786 0.0238 0.0
O389 O 0.45655 0.52389 0.08264 0.0
O390 O 0.57282 0.53403 0.03922 0.0
O391 O 0.63652 0.63886 0.02461 0.0
C392 C 0.63189 0.6485 0.06838 0.0
C393 C 0.65384 0.86368 0.99455 0.0
C394 C 0.69154 0.94885 0.96752 0.0
C395 C 0.75911 0.97065 0.97281 0.0
C396 C 0.72236 0.89322 0.99995 0.0
C397 C 0.77413 0.94404 0.989 0.0
C398 C 0.6383 0.89345 0.97828 0.0
C399 C 0.50929 0.69032 0.07045 0.0
C400 C 0.60048 0.80668 1.00709 0.0
C401 C 0.86503 0.81542 1.01463 0.0
C402 C 0.87188 0.84972 0.03204 0.0
C403 C 0.40981 0.61083 0.03105 0.0
C404 C 0.51374 0.47441 0.09843 0.0
C405 C 0.58854 0.43366 0.11022 0.0
C406 C 0.59733 0.46849 0.12768 0.0
C407 C 0.52118 0.50778 0.11617 0.0
C408 C 0.551 0.44111 0.09523 0.0
C409 C 0.56489 0.50697 0.13041 0.0
C410 C 0.62823 0.57733 0.02903 0.0
C411 C 0.46514 0.47127 0.08362 0.0
H412 H 0.8008 1.01072 0.96475 0.0
H413 H 0.73664 0.87893 1.01308 0.0
H414 H 0.82651 0.9642 0.99342 0.0
H415 H 0.58577 0.87484 0.97429 0.0
H416 H 0.62523 0.46227 0.13952 0.0
H417 H 0.49205 0.53297 0.11922 0.0
H418 H 0.54445 0.41353 0.08184 0.0
H419 H 0.5702 0.53268 0.14404 0.0
Tb420 Tb 0.95081 0.57019 0.19664 0.0
C421 C 1.03756 0.35684 0.19649 0.0
N422 N 1.01925 0.36479 0.21455 0.0
C423 C 1.01236 0.2594 0.22431 0.0
C424 C 1.04647 0.30102 0.19173 0.0
C425 C 1.00256 0.31469 0.22812 0.0
C426 C 1.03567 0.25314 0.20612 0.0
C427 C 1.05041 0.38968 0.16279 0.0
C428 C 1.03979 0.40066 0.18234 0.0
C429 C 1.06425 0.33727 0.1581 0.0
C430 C 1.06234 0.29294 0.17258 0.0
Tb431 Tb 1.01591 0.46309 0.22052 0.0
N432 N 1.02378 0.44907 0.18748 0.0
C433 C 1.04263 0.42887 0.14843 0.0
C434 C 1.01089 0.4832 0.17324 0.0
C435 C 1.02088 0.4745 0.15367 0.0
H436 H 0.98206 0.31688 0.24206 0.0
H437 H 1.01115 0.50262 0.14261 0.0
H438 H 1.02626 0.61463 0.15264 0.0
H439 H 0.90326 0.72929 0.24621 0.0
H440 H 0.99157 0.51631 0.17669 0.0
H441 H 1.04978 0.42177 0.13325 0.0
H442 H 0.87463 0.6221 0.22966 0.0
H443 H 1.00088 0.22108 0.23532 0.0
H444 H 1.07338 0.32871 0.14321 0.0
H445 H 1.07013 0.25087 0.16868 0.0
H446 H 0.11411 0.71977 0.13698 0.0
H447 H 1.04197 0.20957 0.20307 0.0
H448 H 1.00674 0.83523 0.23679 0.0
N449 N 1.03059 0.66262 0.1796 0.0
C450 C 1.05231 0.72313 0.18878 0.0
C451 C 0.09793 0.72115 0.15167 0.0
C452 C 0.10301 0.78409 0.18046 0.0
C453 C 1.04801 0.66177 0.16054 0.0
C454 C 0.12742 0.78204 0.16195 0.0
N455 N 0.96247 0.6663 0.21142 0.0
C456 C 0.9196 0.66806 0.2253 0.0
C457 C 1.03518 0.78727 0.21427 0.0
C458 C 1.01758 0.7248 0.20533 0.0
C459 C 0.99464 0.78825 0.22952 0.0
C460 C 0.93593 0.72864 0.2348 0.0
H461 H 0.16613 0.82782 0.15502 0.0
H462 H 0.16402 0.89267 0.18427 0.0
H463 H 0.10559 0.89545 0.21402 0.0
O464 O 0.87411 0.59539 0.1907 0.0
O465 O 0.98687 0.60194 0.22707 0.0
O466 O 1.06595 0.56779 0.2308 0.0
O467 O 0.90852 0.55612 0.16809 0.0
O468 O 0.88156 0.51571 0.22087 0.0
O469 O 0.92694 0.45739 0.23667 0.0
O470 O 0.09382 0.45698 0.23591 0.0
O471 O 0.91326 0.38608 0.21024 0.0
O472 O 0.88238 0.45143 0.19119 0.0
O473 O 0.99713 0.429 0.24913 0.0
O474 O 0.1116 0.55124 0.20758 0.0
O475 O 1.06874 0.61245 0.1919 0.0
C476 C 1.04077 0.60645 0.23589 0.0
C477 C 0.86889 0.63521 0.15892 0.0
C478 C 0.81942 0.67283 0.13245 0.0
C479 C 0.87022 0.7399 0.13584 0.0
C480 C 0.91467 0.70391 0.16236 0.0
C481 C 0.9166 0.7552 0.15076 0.0
C482 C 0.81965 0.61975 0.14391 0.0
C483 C 0.87969 0.47591 0.2352 0.0
C484 C 0.86966 0.58216 0.1723 0.0
C485 C 0.12414 0.84557 0.19021 0.0
C486 C 0.09057 0.84713 0.20714 0.0
C487 C 0.86962 0.38919 0.19797 0.0
C488 C 0.09265 0.49018 0.26881 0.0
C489 C 0.19451 0.56459 0.28702 0.0
C490 C 0.1552 0.57518 0.30083 0.0
C491 C 1.05335 0.49848 0.28333 0.0
C492 C 0.1633 0.52391 0.27076 0.0
C493 C 1.08458 0.54111 0.2991 0.0
C494 C 0.12306 0.60546 0.19691 0.0
C495 C 1.05984 0.44454 0.25217 0.0
H496 H 0.87277 0.78115 0.1272 0.0
H497 H 0.94807 0.71888 0.17446 0.0
H498 H 0.9536 0.80758 0.15366 0.0
H499 H 0.78137 0.56753 0.1414 0.0
H500 H 0.17868 0.60557 0.31356 0.0
H501 H 0.99843 0.47202 0.28257 0.0
H502 H 0.19402 0.51495 0.26032 0.0
H503 H 1.05375 0.54657 0.31022 0.0
Tb504 Tb 0.21416 0.69596 0.51131 0.0
C505 C 0.14097 0.40032 0.50418 0.0
N506 N 0.16056 0.43314 0.48698 0.0
C507 C 0.17775 0.34372 0.47434 0.0
C508 C 0.13639 0.33642 0.507 0.0
C509 C 0.18298 0.40769 0.47247 0.0
C510 C 0.15269 0.30709 0.49153 0.0
C511 C 0.12192 0.40675 0.53833 0.0
C512 C 0.13309 0.43461 0.51946 0.0
C513 C 0.11253 0.34114 0.5411 0.0
C514 C 0.11944 0.3058 0.5254 0.0
Tb515 Tb 0.15584 0.5318 0.48402 0.0
N516 N 0.14452 0.49855 0.51615 0.0
C517 C 0.12488 0.44725 0.55395 0.0
C518 C 0.1525 0.53942 0.53153 0.0
C519 C 0.14227 0.51458 0.55056 0.0
H520 H 0.20424 0.43601 0.45927 0.0
H521 H 0.14832 0.54757 0.56261 0.0
H522 H 0.12367 0.6372 0.55274 0.0
H523 H 0.27841 0.92474 0.47025 0.0
H524 H 0.16807 0.5915 0.52929 0.0
H525 H 0.11738 0.42821 0.56869 0.0
H526 H 0.29533 0.8308 0.48143 0.0
H527 H 0.19377 0.32307 0.4626 0.0
H528 H 0.10298 0.31857 0.55544 0.0
H529 H 0.11499 0.25644 0.52784 0.0
H530 H 1.04113 0.65675 0.5712 0.0
H531 H 0.14956 0.25795 0.49305 0.0
H532 H 0.1849 0.93908 0.48387 0.0
N533 N 0.13498 0.70563 0.53001 0.0
C534 C 0.12215 0.75586 0.52416 0.0
C535 C 1.06285 0.68435 0.55787 0.0
C536 C 1.07444 0.76793 0.53413 0.0
C537 C 0.11008 0.67381 0.54748 0.0
C538 C 1.04347 0.73019 0.55087 0.0
N539 N 0.21104 0.79053 0.50092 0.0
C540 C 0.25434 0.83623 0.48752 0.0
C541 C 0.14965 0.8525 0.50314 0.0
C542 C 0.16045 0.79872 0.50902 0.0
C543 C 0.19179 0.89732 0.48878 0.0
C544 C 0.2448 0.88957 0.4811 0.0
H545 H 1.00672 0.73813 0.55893 0.0
H546 H 1.02451 0.82875 0.53503 0.0
H547 H 0.0893 0.9019 0.50771 0.0
O548 O 0.28079 0.79319 0.52344 0.0
O549 O 0.18176 0.70166 0.48101 0.0
O550 O 0.10656 0.58976 0.47508 0.0
O551 O 0.26169 0.70195 0.53814 0.0
O552 O 0.28432 0.71815 0.48628 0.0
O553 O 0.24608 0.61729 0.46982 0.0
O554 O 1.08095 0.44931 0.46808 0.0
O555 O 0.25789 0.55577 0.49484 0.0
O556 O 0.28361 0.64603 0.51546 0.0
O557 O 0.17323 0.52551 0.4546 0.0
O558 O 1.05874 0.52068 0.49747 0.0
O559 O 0.09687 0.62175 0.51399 0.0
C560 C 0.13081 0.65395 0.47102 0.0
C561 C 0.28869 0.79868 0.55864 0.0
C562 C 0.33624 0.89184 0.58308 0.0
C563 C 0.28644 0.84811 0.59625 0.0
C564 C 0.24433 0.7562 0.57317 0.0
C565 C 0.24131 0.7812 0.59136 0.0
C566 C 0.33548 0.86747 0.56383 0.0
C567 C 0.29004 0.68277 0.47175 0.0
C568 C 0.29114 0.7682 0.53926 0.0
C569 C 1.06151 0.81939 0.52768 0.0
C570 C 0.09869 0.86126 0.51216 0.0
C571 C 0.29852 0.59897 0.50809 0.0
C572 C 1.07427 0.48581 0.43594 0.0
C573 C 0.9674 0.45247 0.41944 0.0
C574 C 1.00166 0.50115 0.405 0.0
C575 C 0.10864 0.53214 0.42081 0.0
C576 C 1.0035 0.44678 0.4352 0.0
C577 C 1.07238 0.54019 0.4056 0.0
C578 C 1.04489 0.56125 0.50842 0.0
C579 C 0.11243 0.47533 0.45172 0.0
H580 H 0.28541 0.86454 0.61093 0.0
H581 H 0.21322 0.70248 0.57089 0.0
H582 H 0.20581 0.74736 0.60212 0.0
H583 H 0.37365 0.90026 0.55345 0.0
H584 H 0.97445 0.50487 0.39257 0.0
H585 H 0.1636 0.5617 0.4206 0.0
H586 H 0.97662 0.4079 0.44609 0.0
H587 H 0.09943 0.57522 0.39392 0.0
Tb588 Tb 0.56931 0.19522 0.67567 0.0
C589 C 0.8138 0.17834 0.67823 0.0
N590 N 0.79496 0.18052 0.65973 0.0
C591 C 0.91067 0.2298 0.64906 0.0
C592 C 0.88231 0.20145 0.68285 0.0
C593 C 0.84235 0.20689 0.64518 0.0
C594 C 0.93025 0.22605 0.66793 0.0
C595 C 0.78428 0.15911 0.71225 0.0
C596 C 0.76488 0.15707 0.69266 0.0
C597 C 0.85223 0.17978 0.71685 0.0
C598 C 0.90119 0.20083 0.70216 0.0
Tb599 Tb 0.68163 0.13408 0.65433 0.0
N600 N 0.69968 0.13878 0.68764 0.0
C601 C 0.73541 0.14237 0.72674 0.0
C602 C 0.6532 0.12554 0.70207 0.0
C603 C 0.66978 0.12635 0.72161 0.0
H604 H 0.82767 0.21107 0.63057 0.0
H605 H 0.63182 0.11538 0.73273 0.0
H606 H 0.48554 0.07806 0.71088 0.0
H607 H 0.48037 0.32806 0.62825 0.0
H608 H 0.6036 0.11596 0.69915 0.0
H609 H 0.74828 0.14363 0.74191 0.0
H610 H 0.56723 0.31906 0.64691 0.0
H611 H 0.94803 0.25027 0.63753 0.0
H612 H 0.8677 0.18117 0.73178 0.0
H613 H 0.95376 0.21814 0.70592 0.0
H614 H 0.36682 1.00653 0.72131 0.0
H615 H 0.98245 0.2431 0.67098 0.0
H616 H 0.35928 0.2484 0.63369 0.0
N617 N 0.46171 0.12616 0.68793 0.0
C618 C 0.41169 0.13253 0.67886 0.0
C619 C 0.37864 1.04163 0.70934 0.0
C620 C 0.34273 0.09087 0.68411 0.0
C621 C 0.44603 0.08327 0.70357 0.0
C622 C 0.32668 1.04481 0.69941 0.0
N623 N 0.49675 0.22594 0.66102 0.0
C624 C 0.51503 0.28034 0.64888 0.0
C625 C 0.37818 0.1902 0.65526 0.0
C626 C 0.42951 0.18281 0.6648 0.0
C627 C 0.39714 0.24204 0.64162 0.0
C628 C 0.46569 0.28748 0.63858 0.0
H629 H 0.27444 1.01236 0.70387 0.0
H630 H 0.23874 0.06494 0.6779 0.0
H631 H 0.26971 0.15123 0.65243 0.0
O632 O 0.54869 0.26649 0.69005 0.0
O633 O 0.5165 0.13004 0.64966 0.0
O634 O 0.58924 0.09455 0.63737 0.0
O635 O 0.59247 0.21436 0.70549 0.0
O636 O 0.62551 0.26107 0.65077 0.0
O637 O 0.67101 0.20466 0.63364 0.0
O638 O 0.70991 0.05893 0.65072 0.0
O639 O 0.74922 0.24386 0.65835 0.0
O640 O 0.68828 0.26313 0.68156 0.0
O641 O 0.71181 0.12006 0.62675 0.0
O642 O 0.59451 1.03982 0.66809 0.0
O643 O 0.52143 0.0781 0.67715 0.0
C644 C 0.53113 0.09442 0.637 0.0
C645 C 0.52716 0.25268 0.72481 0.0
C646 C 0.48279 0.3032 0.74914 0.0
C647 C 0.44836 0.23976 0.75834 0.0
C648 C 0.49878 0.1937 0.73631 0.0
C649 C 0.4573 0.18612 0.75218 0.0
C650 C 0.52093 0.30908 0.73186 0.0
C651 C 0.65176 0.25152 0.63467 0.0
C652 C 0.56879 0.25695 0.70696 0.0
C653 C 0.29189 0.09719 0.67423 0.0
C654 C 0.30954 0.14637 0.65975 0.0
C655 C 0.74935 0.28209 0.67266 0.0
C656 C 0.6832 1.0084 0.61955 0.0
C657 C 0.62668 0.88626 0.61587 0.0
C658 C 0.635 0.89414 0.59569 0.0
C659 C 0.69122 1.01596 0.59933 0.0
C660 C 0.64736 0.94334 0.6276 0.0
C661 C 0.66594 0.9589 0.58745 0.0
C662 C 0.53307 1.02577 0.67461 0.0
C663 C 0.71728 0.06816 0.63208 0.0
H664 H 0.41948 0.23358 0.77149 0.0
H665 H 0.51039 0.15372 0.73359 0.0
H666 H 0.43469 0.13926 0.76042 0.0
H667 H 0.54833 0.35778 0.72463 0.0
H668 H 0.61948 0.85045 0.58641 0.0
H669 H 0.71838 0.06592 0.59278 0.0
H670 H 0.64063 0.93663 0.64317 0.0
H671 H 0.67275 0.96494 0.5719 0.0
Tb672 Tb 0.43095 0.55568 0.84146 0.0
C673 C 0.72978 0.77317 0.8418 0.0
N674 N 0.6987 0.76851 0.82473 0.0
C675 C 0.79243 0.87512 0.81461 0.0
C676 C 0.79489 0.82771 0.84578 0.0
C677 C 0.72693 0.82077 0.81164 0.0
C678 C 0.82749 0.87738 0.83151 0.0
C679 C 0.71901 0.73404 0.87478 0.0
C680 C 0.69289 0.72645 0.85585 0.0
C681 C 0.7857 0.78547 0.87864 0.0
C682 C 0.82384 0.83219 0.86408 0.0
Tb683 Tb 0.60257 0.66761 0.81877 0.0
N684 N 0.62808 0.67912 0.8515 0.0
C685 C 0.67586 0.69282 0.88948 0.0
C686 C 0.58421 0.6442 0.86623 0.0
C687 C 0.60762 0.64929 0.8853 0.0
H688 H 0.70031 0.81905 0.79848 0.0
H689 H 0.57312 0.62079 0.89692 0.0
H690 H 0.47004 0.5374 0.88759 0.0
H691 H 0.2361 0.37011 0.79435 0.0
H692 H 0.53119 0.61325 0.86343 0.0
H693 H 0.69358 0.69726 0.90426 0.0
H694 H 0.31211 0.48517 0.80632 0.0
H695 H 0.81594 0.91496 0.80385 0.0
H696 H 0.80702 0.79143 0.89302 0.0
H697 H 0.87418 0.87331 0.8674 0.0
H698 H 0.45591 0.44328 0.90867 0.0
H699 H 0.87836 0.91917 0.83379 0.0
H700 H 0.22886 0.27071 0.81146 0.0
N701 N 0.42006 0.47419 0.86343 0.0
C702 C 0.37922 0.40905 0.85743 0.0
C703 C 0.43511 0.43305 0.89417 0.0
C704 C 0.36883 0.35364 0.86917 0.0
C705 C 0.44387 0.48646 0.8821 0.0
C706 C 0.39871 0.36644 0.88753 0.0
N707 N 0.35151 0.4522 0.82957 0.0
C708 C 0.31038 0.44254 0.81389 0.0
C709 C 0.30136 0.331 0.83353 0.0
C710 C 0.34566 0.39788 0.83975 0.0
C711 C 0.26323 0.32129 0.8167 0.0
C712 C 0.26694 0.37724 0.80704 0.0
H713 H 0.39183 0.32513 0.89695 0.0
H714 H 0.31884 0.2443 0.87138 0.0
H715 H 0.26065 0.22424 0.84011 0.0
O716 O 0.32945 0.53617 0.84335 0.0
O717 O 0.44605 0.50958 0.81378 0.0
O718 O 0.55977 0.56803 0.80608 0.0
O719 O 0.39143 0.56814 0.86849 0.0
O720 O 0.41233 0.59193 0.81402 0.0
O721 O 0.51838 0.6723 0.8027 0.0
O722 O 0.6938 0.68559 0.80552 0.0
O723 O 0.57287 0.74253 0.82766 0.0
O724 O 0.48257 0.67489 0.84798 0.0
O725 O 0.61726 0.6949 0.78934 0.0
O726 O 0.60787 0.5784 0.83295 0.0
O727 O 0.50321 0.51266 0.84762 0.0
C728 C 0.49963 0.51591 0.8037 0.0
C729 C 0.27038 0.49035 0.87349 0.0
C730 C 0.18636 0.44963 0.90081 0.0
C731 C 0.16051 0.3833 0.89379 0.0
C732 C 0.23624 0.42389 0.86623 0.0
C733 C 0.1841 0.37095 0.87652 0.0
C734 C 0.2433 0.50352 0.89077 0.0
C735 C 0.45094 0.63774 0.8012 0.0
C736 C 0.32974 0.54487 0.86199 0.0
C737 C 0.3273 0.28726 0.86254 0.0
C738 C 0.29401 0.27591 0.84473 0.0
C739 C 0.52913 0.73794 0.841 0.0
C740 C 0.67347 0.64529 0.77307 0.0
C741 C 0.72382 0.57917 0.76111 0.0
C742 C 0.698 0.578 0.74256 0.0
C743 C 0.64731 0.64389 0.7545 0.0
C744 C 0.70662 0.60807 0.77649 0.0
C745 C 0.65773 0.6084 0.73948 0.0
C746 C 0.56505 0.52211 0.84295 0.0
C747 C 0.67215 0.69008 0.78835 0.0
H748 H 0.11929 0.34084 0.90129 0.0
H749 H 0.24812 0.41227 0.85223 0.0
H750 H 0.16051 0.31996 0.87076 0.0
H751 H 0.26531 0.55494 0.89614 0.0
H752 H 0.71203 0.55721 0.7304 0.0
H753 H 0.62082 0.67185 0.75146 0.0
H754 H 0.72768 0.60924 0.7907 0.0
H755 H 0.63836 0.60832 0.72514 0.0
Tb756 Tb 0.94312 0.41049 1.00973 0.0
C757 C 1.02155 0.70691 1.00888 0.0
N758 N 0.99855 0.67706 0.99151 0.0
C759 C 0.98729 0.77214 0.98091 0.0
C760 C 1.03099 0.77203 1.01281 0.0
C761 C 0.97723 0.70667 0.97796 0.0
C762 C 1.01649 0.80588 0.99819 0.0
C763 C 1.04574 0.69465 0.0422 0.0
C764 C 1.02981 0.66921 1.02315 0.0
C765 C 1.05916 0.76106 0.04607 0.0
C766 C 1.05212 0.79992 0.03134 0.0
Tb767 Tb 1.00365 0.58014 0.98597 0.0
N768 N 1.01458 0.60479 1.01876 0.0
C769 C 1.04376 0.65131 0.05693 0.0
C770 C 1.00633 0.56089 0.03347 0.0
C771 C 1.02207 0.58358 0.05263 0.0
H772 H 0.9552 0.68107 0.9645 0.0
H773 H 1.01639 0.54866 0.06414 0.0
H774 H 1.01504 0.44822 0.05422 0.0
H775 H 0.90602 0.20335 0.9624 0.0
H776 H 0.98653 0.5082 0.03068 0.0
H777 H 1.05516 0.66855 0.07179 0.0
H778 H 0.8745 0.28339 0.97687 0.0
H779 H 0.97297 0.79667 0.96984 0.0
H780 H 1.07237 0.7818 0.06056 0.0
H781 H 1.06026 0.85017 0.03463 0.0
H782 H 0.10072 0.43155 0.07182 0.0
H783 H 1.02489 0.85682 1.00042 0.0
H784 H 1.00596 0.19762 0.97449 0.0
N785 N 1.02015 0.39805 0.02864 0.0
C786 C 1.04224 0.35686 1.02083 0.0
C787 C 0.08539 0.41113 0.05739 0.0
C788 C 0.09064 0.34549 0.03052 0.0
C789 C 1.03687 0.42051 0.04738 0.0
C790 C 0.11363 0.37489 0.04873 0.0
N791 N 0.95858 0.32621 0.99641 0.0
C792 C 0.91883 0.28223 0.98222 0.0
C793 C 1.0303 0.27488 0.99627 0.0
C794 C 1.01184 0.32142 1.0039 0.0
C795 C 0.99315 0.23382 0.98075 0.0
C796 C 0.93644 0.23663 0.97395 0.0
H797 H 0.15084 0.36731 0.05661 0.0
H798 H 0.14922 0.29354 0.0294 0.0
H799 H 0.09777 0.23278 0.99931 0.0
O800 O 0.86438 0.31039 1.01523 0.0
O801 O 0.98956 0.41816 0.98001 0.0
O802 O 1.05891 0.53181 0.97519 0.0
O803 O 0.8985 0.38211 0.03808 0.0
O804 O 0.88001 0.39147 0.98385 0.0
O805 O 0.91535 0.49673 0.96979 0.0
O806 O 1.07804 0.66997 0.97271 0.0
O807 O 0.89913 0.55256 0.99459 0.0
O808 O 0.87643 0.46416 1.0158 0.0
O809 O 0.99436 0.59435 0.9563 0.0
O810 O 0.099 0.58678 0.99991 0.0
O811 O 1.05935 0.48197 1.0144 0.0
C812 C 1.03994 0.46953 0.97043 0.0
C813 C 0.85775 0.26366 0.047 0.0
C814 C 0.8115 0.18086 0.07447 0.0
C815 C 0.85782 0.15877 0.0697 0.0
C816 C 0.89867 0.23493 0.0423 0.0
C817 C 0.9003 0.18502 0.05371 0.0
C818 C 0.81221 0.2348 0.0632 0.0
C819 C 0.87633 0.42932 0.96985 0.0
C820 C 0.85942 0.31831 0.0337 0.0
C821 C 0.11202 0.30255 1.02222 0.0
C822 C 1.08241 0.26775 1.00508 0.0
C823 C 0.86007 0.51043 1.00821 0.0
C824 C 0.10201 0.64387 0.94132 0.0
C825 C 0.21815 0.68714 0.93026 0.0
C826 C 0.19511 0.64835 0.91335 0.0
C827 C 1.07894 0.60679 0.92402 0.0
C828 C 0.17174 0.68054 0.94473 0.0
C829 C 0.12532 0.6069 0.91049 0.0
C830 C 0.11182 0.54364 1.01014 0.0
C831 C 1.05449 0.64728 0.95545 0.0
H832 H 0.85898 0.11856 0.07798 0.0
H833 H 0.92801 0.24888 0.02931 0.0
H834 H 0.93344 0.16499 0.04973 0.0
H835 H 0.77692 0.25267 0.06669 0.0
H836 H 0.23042 0.65386 0.90191 0.0
H837 H 1.02545 0.57945 0.92069 0.0
H838 H 0.19057 0.71132 0.95768 0.0
H839 H 0.10707 0.5782 0.89722 0.0
Tb840 Tb 0.59636 0.92594 0.17799 0.0
C841 C 0.37088 1.00175 0.17038 0.0
N842 N 0.38614 0.98097 0.15371 0.0
C843 C 0.27909 0.95837 0.14024 0.0
C844 C 0.31023 1.00464 0.17247 0.0
C845 C 0.33943 0.95532 0.1391 0.0
C846 C 0.26516 0.98473 0.15684 0.0
C847 C 0.39438 1.02514 0.20442 0.0
C848 C 0.41247 1.01215 0.18597 0.0
C849 C 0.33699 1.03361 0.20639 0.0
C850 C 0.29494 1.02347 0.19038 0.0
Tb851 Tb 0.49042 0.98756 0.15189 0.0
N852 N 0.46557 1.0006 0.18348 0.0
C853 C 0.43166 1.02448 0.22046 0.0
C854 C 0.497 0.99287 0.19932 0.0
C855 C 0.48189 1.00624 0.21796 0.0
H856 H 0.34948 0.93401 0.12633 0.0
H857 H 0.50801 1.00135 0.23045 0.0
H858 H 0.59378 0.97312 0.22374 0.0
H859 H 0.80829 0.93756 0.13711 0.0
H860 H 0.53218 0.97455 0.19766 0.0
H861 H 0.41932 1.0338 0.23492 0.0
H862 H 0.68741 0.88927 0.14612 0.0
H863 H 0.24319 0.93992 0.1284 0.0
H864 H 0.32282 1.04456 0.22038 0.0
H865 H 0.24904 1.02688 0.19226 0.0
H866 H 0.67657 1.04964 0.2477 0.0
H867 H 0.21802 0.98625 0.15781 0.0
H868 H 0.8969 1.03286 0.15583 0.0
N869 N 0.66744 0.99796 0.20133 0.0
C870 C 0.73527 1.02744 0.1972 0.0
C871 C 0.69358 1.04493 0.2334 0.0
C872 C 0.78425 0.0721 0.21039 0.0
C873 C 0.64661 1.00229 0.21968 0.0
C874 C 0.76244 0.08174 0.22852 0.0
N875 N 0.70682 0.9597 0.16901 0.0
C876 C 0.72563 0.93155 0.15428 0.0
C877 C 0.82502 1.03742 0.17575 0.0
C878 C 0.75525 1.00972 0.18011 0.0
C879 C 0.84386 1.01268 0.15968 0.0
C880 C 0.79403 0.95868 0.14913 0.0
H881 H 0.79859 0.11519 0.23912 0.0
H882 H 0.89161 0.13791 0.21535 0.0
H883 H 0.92755 0.10858 0.18488 0.0
O884 O 0.62783 0.85299 0.18228 0.0
O885 O 0.62966 0.96124 0.14734 0.0
O886 O 0.59696 1.04094 0.14386 0.0
O887 O 0.57045 0.86788 0.20427 0.0
O888 O 0.55471 0.86185 0.15175 0.0
O889 O 0.48133 0.89405 0.13826 0.0
O890 O 0.47379 1.05703 0.13577 0.0
O891 O 0.41459 0.88472 0.16221 0.0
O892 O 0.47788 0.85979 0.18375 0.0
O893 O 0.48059 0.9752 0.12182 0.0
O894 O 0.57753 0.08355 0.16551 0.0
O895 O 0.63664 1.04254 0.18318 0.0
C896 C 0.63484 1.0155 0.13848 0.0
C897 C 0.65466 0.83718 0.2149 0.0
C898 C 0.6835 0.79049 0.24394 0.0
C899 C 0.75225 0.83742 0.24083 0.0
C900 C 0.72482 0.87934 0.21197 0.0
C901 C 0.77258 0.88102 0.22498 0.0
C902 C 0.63398 0.79129 0.23107 0.0
C903 C 0.50825 0.85349 0.13865 0.0
C904 C 0.60561 0.83795 0.2 0.0
C905 C 0.85342 0.10298 0.20547 0.0
C906 C 0.8738 0.08611 0.18812 0.0
C907 C 0.41648 0.8441 0.17576 0.0
C908 C 0.5311 0.07901 0.10534 0.0
C909 C 0.60455 0.1948 0.09487 0.0
C910 C 0.61401 0.17202 0.07687 0.0
C911 C 0.53887 1.05606 0.0871 0.0
C912 C 0.56833 0.14804 0.10952 0.0
C913 C 0.58212 0.10237 0.07317 0.0
C914 C 0.63025 0.09619 0.17716 0.0
C915 C 0.48049 1.03205 0.11935 0.0
H916 H 0.79091 0.83817 0.25027 0.0
H917 H 0.74378 0.90967 0.19916 0.0
H918 H 0.82617 0.91488 0.22236 0.0
H919 H 0.58064 0.75522 0.23323 0.0
H920 H 0.64088 0.20773 0.06529 0.0
H921 H 0.51066 1.00265 0.08352 0.0
H922 H 0.56105 0.16677 0.12329 0.0
H923 H 0.58752 0.08449 0.0591 0.0
Tb924 Tb 0.73247 0.558 0.34272 0.0
C925 C 0.44768 0.33229 0.34393 0.0
N926 N 0.47614 0.34333 0.32612 0.0
C927 C 0.38708 0.23531 0.31553 0.0
C928 C 0.3864 0.27276 0.34822 0.0
C929 C 0.44967 0.29352 0.31238 0.0
C930 C 0.35424 0.22587 0.33337 0.0
C931 C 0.46052 0.36476 0.37755 0.0
C932 C 0.48322 0.37866 0.35813 0.0
C933 C 0.39797 0.30702 0.38192 0.0
C934 C 0.36049 0.26139 0.3672 0.0
Tb935 Tb 0.56273 0.45039 0.31994 0.0
N936 N 0.5436 0.43342 0.35315 0.0
C937 C 0.50298 0.40716 0.39205 0.0
C938 C 0.58727 0.47075 0.36756 0.0
C939 C 0.56752 0.45918 0.38706 0.0
H940 H 0.47477 0.30023 0.29856 0.0
H941 H 0.6026 0.48996 0.39824 0.0
H942 H 0.70828 0.61548 0.38547 0.0
H943 H 0.93025 0.69033 0.28861 0.0
H944 H 0.63833 0.5077 0.3644 0.0
H945 H 0.48795 0.39798 0.40717 0.0
H946 H 0.84952 0.59037 0.30717 0.0
H947 H 0.36405 0.19805 0.30416 0.0
H948 H 0.3793 0.29606 0.39671 0.0
H949 H 0.31321 0.21614 0.3708 0.0
H950 H 0.73984 0.7272 0.39955 0.0
H951 H 0.30523 0.18137 0.33564 0.0
H952 H 0.94801 0.80387 0.29714 0.0
N953 N 0.75497 0.65631 0.35809 0.0
C954 C 0.79703 0.7136 0.34788 0.0
C955 C 0.75531 0.72388 0.38492 0.0
C956 C 0.81578 0.77824 0.35541 0.0
C957 C 0.73791 0.66085 0.37694 0.0
C958 C 0.79334 0.7826 0.37399 0.0
N959 N 0.81692 0.64537 0.32543 0.0
C960 C 0.855 0.639 0.3109 0.0
C961 C 0.87612 0.76677 0.32099 0.0
C962 C 0.8286 0.70799 0.33102 0.0
C963 C 0.91124 0.75984 0.3052 0.0
C964 C 0.90151 0.69585 0.30037 0.0
H965 H 0.80843 0.83118 0.38048 0.0
H966 H 0.87441 0.88648 0.35017 0.0
H967 H 0.9254 0.87646 0.31993 0.0
O968 O 0.83298 0.58034 0.34895 0.0
O969 O 0.71935 0.60084 0.31416 0.0
O970 O 0.60425 0.55193 0.30864 0.0
O971 O 0.76062 0.54891 0.37187 0.0
O972 O 0.74674 0.49894 0.31974 0.0
O973 O 0.65019 0.46241 0.30108 0.0
O974 O 0.46539 0.42641 0.31039 0.0
O975 O 0.59758 0.37768 0.32671 0.0
O976 O 0.68074 0.4391 0.34913 0.0
O977 O 0.5381 0.42357 0.29071 0.0
O978 O 0.55316 0.53702 0.33387 0.0
O979 O 0.65832 0.60158 0.34813 0.0
C980 C 0.66634 0.59881 0.30498 0.0
C981 C 0.87995 0.62597 0.38023 0.0
C982 C 0.96352 0.66645 0.40754 0.0
C983 C 0.98408 0.73333 0.40186 0.0
C984 C 0.9094 0.69395 0.37427 0.0
C985 C 0.95825 0.74676 0.38524 0.0
C986 C 0.90944 0.61204 0.3969 0.0
C987 C 0.71458 0.47668 0.30318 0.0
C988 C 0.82471 0.57152 0.36761 0.0
C989 C 0.86009 0.8365 0.34479 0.0
C990 C 0.88958 0.83078 0.32756 0.0
C991 C 0.63731 0.3781 0.34069 0.0
C992 C 0.46805 0.4643 0.27827 0.0
C993 C 0.41728 0.53477 0.2718 0.0
C994 C 0.42034 0.52519 0.25181 0.0
C995 C 0.46969 0.45333 0.25831 0.0
C996 C 0.44741 0.50994 0.28472 0.0
C997 C 0.44846 0.48604 0.24509 0.0
C998 C 0.59605 0.59268 0.34381 0.0
C999 C 0.4805 0.42292 0.29235 0.0
H1000 H 1.02383 0.77561 0.4097 0.0
H1001 H 0.89712 0.70691 0.3606 0.0
H1002 H 0.97823 0.79864 0.38036 0.0
H1003 H 0.89218 0.56002 0.40112 0.0
H1004 H 0.39725 0.54419 0.2416 0.0
H1005 H 0.48633 0.4188 0.253 0.0
H1006 H 0.44459 0.51787 0.30011 0.0
H1007 H 0.44964 0.47743 0.2297 0.0
C1008 C 0.14284 0.71409 0.24854 0.0
C1009 C 1.07733 0.65741 0.25202 0.0
C1010 C 0.09374 0.68432 0.2871 0.0
C1011 C 0.16296 0.73497 0.28378 0.0
N1012 N 0.25338 0.79767 0.26103 0.0
N1013 N 0.98734 0.59243 0.27457 0.0
C1014 C 0.18734 0.74952 0.26437 0.0
C1015 C 1.05176 0.64425 0.27131 0.0
N1016 N 0.16073 0.7369 0.22998 0.0
N1017 N 1.06788 0.67513 0.3055 0.0
H1018 H 0.95466 0.56592 0.2633 0.0
H1019 H 0.96647 0.57425 0.28819 0.0
H1020 H 0.09814 0.69799 0.31759 0.0
H1021 H 1.01651 0.64635 0.30891 0.0
H1022 H 0.2036 0.78244 0.22626 0.0
H1023 H 0.12889 0.71276 0.21834 0.0
H1024 H 0.27649 0.8073 0.24747 0.0
H1025 H 0.28684 0.82508 0.27213 0.0
C1026 C 0.48538 0.16439 0.42495 0.0
C1027 C 0.49624 0.15648 0.44487 0.0
C1028 C 0.5127 0.0599 0.43613 0.0
C1029 C 0.49323 0.06174 0.41651 0.0
N1030 N 0.46078 0.11759 0.39243 0.0
N1031 N 0.5085 0.08854 0.46976 0.0
C1032 C 0.47902 0.11437 0.41105 0.0
C1033 C 0.507 0.10219 0.45051 0.0
N1034 N 0.48339 0.22131 0.41926 0.0
N1035 N 0.53806 1.01839 0.44119 0.0
H1036 H 0.50638 0.11882 0.4808 0.0
H1037 H 0.50616 1.04405 0.47486 0.0
H1038 H 0.54062 0.98437 0.43165 0.0
H1039 H 0.55909 1.01952 0.45468 0.0
H1040 H 0.48222 0.23452 0.40486 0.0
H1041 H 0.48903 0.25889 0.42902 0.0
H1042 H 0.44165 0.14875 0.38783 0.0
H1043 H 0.46232 0.08654 0.38164 0.0
C1044 C 0.38408 0.45578 0.59688 0.0
C1045 C 0.40451 0.4548 0.61628 0.0
C1046 C 0.50308 0.44552 0.60393 0.0
C1047 C 0.48373 0.44841 0.58452 0.0
N1048 N 0.39906 0.44274 0.56248 0.0
N1049 N 0.48302 0.44881 0.63862 0.0
C1050 C 0.42223 0.44978 0.58103 0.0
C1051 C 0.46406 0.44962 0.61983 0.0
N1052 N 0.32866 0.46369 0.59365 0.0
N1053 N 0.55857 0.43771 0.60702 0.0
H1054 H 0.45911 0.45714 0.65042 0.0
H1055 H 0.52302 0.44156 0.64291 0.0
H1056 H 0.58534 0.43145 0.59571 0.0
H1057 H 0.57717 0.43428 0.62046 0.0
H1058 H 0.31347 0.47079 0.58003 0.0
H1059 H 0.29973 0.46748 0.60488 0.0
H1060 H 0.35156 0.43585 0.55865 0.0
H1061 H 0.4266 0.43994 0.55077 0.0
C1062 C 0.10686 0.48248 0.76862 0.0
C1063 C 0.08649 0.46388 0.74908 0.0
C1064 C 0.97677 0.36948 0.76098 0.0
C1065 C 0.99678 0.388 0.78056 0.0
N1066 N 1.08474 0.45704 0.80313 0.0
N1067 N 1.01082 0.37874 0.72704 0.0
C1068 C 1.06309 0.44325 0.78435 0.0
C1069 C 1.02375 0.4042 0.74541 0.0
N1070 N 0.16848 0.53809 0.7721 0.0
N1071 N 0.91249 0.31831 0.7573 0.0
H1072 H 1.04577 0.40125 0.71578 0.0
H1073 H 0.96907 0.33263 0.72329 0.0
H1074 H 0.87738 0.2924 0.76832 0.0
H1075 H 0.89217 0.30488 0.74347 0.0
H1076 H 0.18563 0.55935 0.78568 0.0
H1077 H 0.20252 0.56446 0.76099 0.0
H1078 H 0.13445 0.49052 0.80721 0.0
H1079 H 1.05272 0.43314 0.81492 0.0
C1080 C 0.71975 0.096 0.93322 0.0
C1081 C 0.67691 0.06256 0.91704 0.0
C1082 C 0.64797 0.9531 0.93354 0.0
C1083 C 0.68081 0.9867 0.95074 0.0
N1084 N 0.73501 0.09293 0.96795 0.0
N1085 N 0.58348 0.95325 0.90619 0.0
C1086 C 0.71298 0.05903 0.95082 0.0
C1087 C 0.63594 0.98955 0.91851 0.0
N1088 N 0.76681 0.16317 0.9322 0.0
N1089 N 0.63009 0.88657 0.93094 0.0
H1090 H 0.56989 0.97399 0.89495 0.0
H1091 H 0.54893 0.90192 0.90834 0.0
H1092 H 0.63882 0.85812 0.94129 0.0
H1093 H 0.61246 0.86188 0.91772 0.0
H1094 H 0.80387 0.18755 0.94275 0.0
H1095 H 0.77175 0.19383 0.92043 0.0
H1096 H 0.75309 0.14491 0.96924 0.0
H1097 H 0.72788 0.06788 0.98119 0.0
C1098 C 0.7632 0.6247 0.09986 0.0
C1099 C 0.768 0.66197 0.1167 0.0
C1100 C 0.69658 0.7025 0.10025 0.0
C1101 C 0.68277 0.65665 0.08447 0.0
N1102 N 0.6926 0.55811 0.07389 0.0
N1103 N 0.72505 0.72479 0.13437 0.0
C1104 C 0.71256 0.61283 0.08569 0.0
C1105 C 0.7306 0.6976 0.11726 0.0
N1106 N 0.80883 0.6025 0.09673 0.0
N1107 N 0.67684 0.75056 0.09947 0.0
H1108 H 0.74657 0.71986 0.14721 0.0
H1109 H 0.69304 0.7454 0.13625 0.0
H1110 H 0.64673 0.75311 0.08855 0.0
H1111 H 0.6934 0.79023 0.10938 0.0
H1112 H 0.81199 0.58134 0.08362 0.0
H1113 H 0.84736 0.61072 0.10646 0.0
H1114 H 0.70751 0.52168 0.07614 0.0
H1115 H 0.65758 0.5448 0.06294 0.0
C1116 C 0.43128 0.05929 0.61222 0.0
C1117 C 0.48042 1.0469 0.62171 0.0
C1118 C 0.45152 0.95388 0.59818 0.0
C1119 C 0.39369 0.95632 0.5917 0.0
N1120 N 0.32571 1.0112 0.59374 0.0
N1121 N 0.51441 0.96097 0.62651 0.0
C1122 C 0.38273 1.00914 0.59912 0.0
C1123 C 0.48482 0.98883 0.61531 0.0
N1124 N 0.4322 0.11943 0.6149 0.0
N1125 N 0.47354 0.91541 0.58868 0.0
H1126 H 0.5318 0.97706 0.64035 0.0
H1127 H 0.51122 0.91456 0.62325 0.0
H1128 H 0.45029 0.88755 0.57631 0.0
H1129 H 0.51994 0.91832 0.59196 0.0
H1130 H 0.40055 0.13287 0.60741 0.0
H1131 H 0.46956 0.15887 0.62295 0.0
H1132 H 0.3106 1.04337 0.60014 0.0
H1133 H 0.29204 0.97797 0.58345 0.0
C1134 C 0.43961 0.38345 0.76102 0.0
C1135 C 0.49029 0.36329 0.7609 0.0
C1136 C 0.54652 0.44087 0.78818 0.0
C1137 C 0.49532 0.46189 0.78903 0.0
N1138 N 0.40006 0.4598 0.77259 0.0
N1139 N 0.58593 0.36545 0.7769 0.0
C1140 C 0.4433 0.43418 0.77453 0.0
C1141 C 0.54141 0.39003 0.77517 0.0
N1142 N 0.38593 0.35169 0.74867 0.0
N1143 N 0.60336 0.46794 0.79926 0.0
H1144 H 0.58648 0.32929 0.76768 0.0
H1145 H 0.62248 0.38057 0.78779 0.0
H1146 H 0.6189 0.50787 0.80881 0.0
H1147 H 0.6189 0.50787 0.80881 0.0
H1148 H 0.34208 0.35574 0.74956 0.0
H1149 H 0.38363 0.31751 0.73816 0.0
H1150 H 0.36817 0.45003 0.76078 0.0
H1151 H 0.40061 0.49649 0.78173 0.0
C1152 C 0.15171 0.5003 0.95142 0.0
C1153 C 1.07858 0.46047 0.95325 0.0
C1154 C 1.07844 0.42867 0.91887 0.0
C1155 C 0.15075 0.45881 0.91844 0.0
N1156 N 0.25289 0.50576 0.9375 0.0
N1157 N 0.97563 0.37384 0.93807 0.0
C1158 C 0.18633 0.48934 0.93564 0.0
C1159 C 1.04313 0.4201 0.93688 0.0
N1160 N 0.18977 0.55054 0.96418 0.0
N1161 N 1.04302 0.41082 0.90189 0.0
H1162 H 0.94615 0.3671 0.95028 0.0
H1163 H 0.94993 0.33868 0.92716 0.0
H1164 H 1.06695 0.42024 0.88839 0.0
H1165 H 0.9911 0.39436 0.90115 0.0
H1166 H 0.17051 0.56271 0.97611 0.0
H1167 H 0.24127 0.58446 0.96196 0.0
H1168 H 0.27894 0.52159 0.95059 0.0
H1169 H 0.2798 0.49687 0.92667 0.0
C1170 C 0.74323 0.11669 0.12581 0.0
C1171 C 0.68513 1.05254 0.12216 0.0
C1172 C 0.70793 0.07428 0.08691 0.0
C1173 C 0.76144 0.1415 0.0906 0.0
N1174 N 0.82744 0.22814 0.11371 0.0
N1175 N 0.61239 0.96975 0.09906 0.0
C1176 C 0.77811 0.16297 0.11014 0.0
C1177 C 0.66801 1.03118 0.10262 0.0
N1178 N 0.76679 0.13208 0.14434 0.0
N1179 N 0.69625 1.05113 0.06825 0.0
H1180 H 0.58541 0.93615 0.11016 0.0
H1181 H 0.59149 0.95289 0.08542 0.0
H1182 H 0.72033 0.08245 0.05636 0.0
H1183 H 0.66482 1.00066 0.06448 0.0
H1184 H 0.8127 0.1742 0.1481 0.0
H1185 H 0.74251 0.09923 0.15589 0.0
H1186 H 0.83914 0.24942 0.12747 0.0
H1187 H 0.85351 0.26285 0.10264 0.0
C1188 C 0.68663 0.71615 0.29394 0.0
C1189 C 0.67322 0.64937 0.28916 0.0
C1190 C 0.65797 0.67291 0.2548 0.0
C1191 C 0.66839 0.73814 0.25974 0.0
N1192 N 0.68177 0.81789 0.28456 0.0
N1193 N 0.62902 0.56009 0.26519 0.0
C1194 C 0.67971 0.7585 0.27952 0.0
C1195 C 0.65346 0.62668 0.26967 0.0
N1196 N 0.70469 0.7388 0.31244 0.0
N1197 N 0.65581 0.65585 0.23571 0.0
H1198 H 0.62814 0.525 0.27502 0.0
H1199 H 0.60738 0.53904 0.25189 0.0
H1200 H 0.65665 0.6867 0.22435 0.0
H1201 H 0.65867 0.61355 0.23105 0.0
H1202 H 0.72307 0.78891 0.31667 0.0
H1203 H 0.70363 0.70731 0.32356 0.0
H1204 H 0.68354 0.83388 0.29877 0.0
H1205 H 0.67573 0.8488 0.27441 0.0
C1206 C 1.02849 0.66179 0.45895 0.0
C1207 C 0.09408 0.67009 0.45519 0.0
C1208 C 1.07452 0.67724 0.42011 0.0
C1209 C 1.00505 0.65856 0.42373 0.0
N1210 N 0.91601 0.63293 0.44693 0.0
N1211 N 0.18197 0.69099 0.43216 0.0
C1212 C 0.9822 0.65072 0.44329 0.0
C1213 C 0.11785 0.67997 0.43573 0.0
N1214 N 1.01197 0.66806 0.47759 0.0
N1215 N 0.09951 0.69363 0.40163 0.0
H1216 H 0.21581 0.69837 0.44329 0.0
H1217 H 0.2012 0.69113 0.41844 0.0
H1218 H 1.0686 0.68595 0.38963 0.0
H1219 H 0.15094 0.71663 0.39813 0.0
H1220 H 1.04587 0.67849 0.48899 0.0
H1221 H 0.96808 0.66927 0.48155 0.0
H1222 H 0.89421 0.62181 0.46067 0.0
H1223 H 0.88133 0.6249 0.43591 0.0
C1224 C 0.55341 0.6834 0.33541 0.0
C1225 C 0.57523 0.65008 0.34941 0.0
C1226 C 0.5586 0.72473 0.37431 0.0
C1227 C 0.54145 0.76152 0.36009 0.0
N1228 N 0.53838 0.77973 0.32585 0.0
N1229 N 0.58184 0.63273 0.38335 0.0
C1230 C 0.54253 0.74093 0.34039 0.0
C1231 C 0.57418 0.6704 0.3691 0.0
N1232 N 0.5404 0.65894 0.31698 0.0
N1233 N 0.56063 0.74174 0.39337 0.0
H1234 H 0.59056 0.59262 0.38033 0.0
H1235 H 0.57383 0.63644 0.39803 0.0
H1236 H 0.53826 0.76914 0.39868 0.0
H1237 H 0.58573 0.72998 0.40403 0.0
H1238 H 0.51568 0.67291 0.30673 0.0
H1239 H 0.54868 0.62006 0.31235 0.0
H1240 H 0.54845 0.77505 0.31137 0.0
H1241 H 0.53161 0.82134 0.32839 0.0
C1242 C 0.87435 0.51936 0.53827 0.0
C1243 C 0.82386 0.50952 0.5239 0.0
C1244 C 0.91466 0.52379 0.49922 0.0
C1245 C 0.96703 0.5402 0.51362 0.0
N1246 N 0.98283 0.52699 0.54728 0.0
N1247 N 0.80258 0.50813 0.48983 0.0
C1248 C 0.94278 0.53152 0.53325 0.0
C1249 C 0.84607 0.51247 0.50418 0.0
N1250 N 0.85657 0.51607 0.55728 0.0
N1251 N 0.92918 0.51606 0.48051 0.0
H1252 H 0.7538 0.50001 0.49267 0.0
H1253 H 0.81562 0.51666 0.47524 0.0
H1254 H 0.97683 0.52499 0.47602 0.0
H1255 H 0.89296 0.49587 0.46964 0.0
H1256 H 0.89139 0.53443 0.56859 0.0
H1257 H 0.80621 0.49577 0.56163 0.0
H1258 H 0.96776 0.51323 0.56159 0.0
H1259 H 1.02933 0.53015 0.54407 0.0
C1260 C 0.40283 0.92258 0.67346 0.0
C1261 C 0.47357 0.94774 0.67851 0.0
C1262 C 0.43316 0.82476 0.68928 0.0
C1263 C 0.36243 0.80145 0.68563 0.0
N1264 N 0.28743 0.82795 0.66819 0.0
N1265 N 0.5492 0.91749 0.69486 0.0
C1266 C 0.34984 0.85122 0.67636 0.0
C1267 C 0.4864 0.8967 0.68718 0.0
N1268 N 0.38482 0.96686 0.66564 0.0
N1269 N 0.45067 0.77679 0.69381 0.0
H1270 H 0.58763 0.96795 0.69474 0.0
H1271 H 0.56105 0.88643 0.70324 0.0
H1272 H 0.41455 0.72551 0.69383 0.0
H1273 H 0.50059 0.78636 0.69489 0.0
H1274 H 0.33498 0.95764 0.66487 0.0
H1275 H 0.41975 1.01453 0.66054 0.0
H1276 H 0.27322 0.85661 0.65956 0.0
H1277 H 0.25253 0.77643 0.66792 0.0
C1278 C 0.64965 0.47465 0.85416 0.0
C1279 C 0.58399 0.46263 0.84743 0.0
C1280 C 0.55143 0.33727 0.84865 0.0
C1281 C 0.61714 0.34873 0.8549 0.0
N1282 N 0.73344 0.43552 0.85807 0.0
N1283 N 0.48049 0.37663 0.83298 0.0
C1284 C 0.66733 0.4197 0.85599 0.0
C1285 C 0.53726 0.39212 0.84351 0.0
N1286 N 0.69543 0.53896 0.85969 0.0
N1287 N 0.50127 0.27198 0.84665 0.0
H1288 H 0.46929 0.41319 0.82797 0.0
H1289 H 0.44839 0.32884 0.82727 0.0
H1290 H 0.51266 0.23299 0.84574 0.0
H1291 H 0.44975 0.25729 0.84596 0.0
H1292 H 0.74093 0.55134 0.86664 0.0
H1293 H 0.68478 0.57885 0.85902 0.0
H1294 H 0.7741 0.48481 0.85731 0.0
H1295 H 0.74769 0.39815 0.85817 0.0
C1296 C 0.23398 0.61973 0.02733 0.0
C1297 C 0.18953 0.56281 1.01538 0.0
C1298 C 0.2942 0.54779 1.01069 0.0
C1299 C 0.33677 0.60065 0.02397 0.0
N1300 N 0.33453 0.67519 0.04826 0.0
N1301 N 0.18173 0.46632 0.99836 0.0
C1302 C 0.30268 0.63322 0.03307 0.0
C1303 C 0.22126 0.52507 1.00809 0.0
N1304 N 0.21055 0.66164 0.03359 0.0
N1305 N 0.32442 0.52028 0.99959 0.0
H1306 H 0.13166 0.4508 0.99459 0.0
H1307 H 0.19734 0.43121 0.99497 0.0
H1308 H 0.37634 0.53757 1.00036 0.0
H1309 H 0.30038 0.48689 0.98821 0.0
H1310 H 0.24128 0.70786 0.04036 0.0
H1311 H 0.1614 0.65233 0.03074 0.0
H1312 H 0.3116 0.69546 0.05712 0.0
H1313 H 0.3818 0.68402 0.05309 0.0
C1314 C 0.76519 0.2649 0.20668 0.0
C1315 C 0.80298 0.31705 0.1923 0.0
C1316 C 0.72216 0.22804 0.16799 0.0
C1317 C 0.68827 0.17415 0.18228 0.0
N1318 N 0.66686 0.15622 0.21629 0.0
N1319 N 0.81708 0.3394 0.15813 0.0
C1320 C 0.70817 0.19702 0.20185 0.0
C1321 C 0.78021 0.29587 0.17273 0.0
N1322 N 0.78322 0.28023 0.22561 0.0
N1323 N 0.69751 0.2159 0.14954 0.0
H1324 H 0.85843 0.38725 0.1607 0.0
H1325 H 0.81046 0.3268 0.14352 0.0
H1326 H 0.65937 0.1689 0.14498 0.0
H1327 H 0.71111 0.25347 0.13905 0.0
H1328 H 0.76927 0.24394 0.23654 0.0
H1329 H 0.81377 0.32973 0.2303 0.0
H1330 H 0.67078 0.17041 0.23076 0.0
H1331 H 0.62338 0.11025 0.21344 0.0
C1332 C 0.38397 0.59075 0.53399 0.0
C1333 C 0.36478 0.59312 0.51422 0.0
C1334 C 0.46241 0.57055 0.5052 0.0
C1335 C 0.48002 0.56569 0.52495 0.0
N1336 N 0.46566 0.5933 0.55776 0.0
N1337 N 0.39158 0.58528 0.48092 0.0
C1338 C 0.4431 0.5825 0.5391 0.0
C1339 C 0.40595 0.58276 0.49998 0.0
N1340 N 0.34272 0.59177 0.54832 0.0
N1341 N 0.50479 0.57051 0.49108 0.0
H1342 H 0.36191 0.6061 0.47634 0.0
H1343 H 0.40794 0.56613 0.46968 0.0
H1344 H 0.54685 0.56514 0.49425 0.0
H1345 H 0.50247 0.58132 0.47654 0.0
H1346 H 0.34691 0.58156 0.56281 0.0
H1347 H 0.30015 0.59687 0.54552 0.0
H1348 H 0.44858 0.61441 0.56827 0.0
H1349 H 0.50546 0.58632 0.56248 0.0
C1350 C 0.87614 0.38186 0.66399 0.0
C1351 C 0.8238 0.34545 0.67848 0.0
C1352 C 0.91589 0.42398 0.70243 0.0
C1353 C 0.97087 0.4534 0.68824 0.0
N1354 N 0.99523 0.45474 0.65437 0.0
N1355 N 0.80452 0.33082 0.71282 0.0
C1356 C 0.94806 0.42952 0.66884 0.0
C1357 C 0.84708 0.36697 0.69798 0.0
N1358 N 0.85638 0.37542 0.64506 0.0
N1359 N 0.92803 0.45103 0.72056 0.0
H1360 H 0.7562 0.28983 0.71056 0.0
H1361 H 0.81908 0.33749 0.7273 0.0
H1362 H 0.97538 0.48874 0.72507 0.0
H1363 H 0.88966 0.43988 0.73066 0.0
H1364 H 0.88801 0.40472 0.6338 0.0
H1365 H 0.806 0.34681 0.64073 0.0
H1366 H 0.98759 0.43313 0.64066 0.0
H1367 H 1.04328 0.49617 0.65646 0.0
C1368 C 0.5166 0.91123 0.8453 0.0
C1369 C 0.57591 0.95745 0.8562 0.0
C1370 C 0.5938 0.8546 0.86061 0.0
C1371 C 0.53841 0.81027 0.84825 0.0
N1372 N 0.45686 0.808 0.82565 0.0
N1373 N 0.67573 0.96821 0.87202 0.0
C1374 C 0.50267 0.84229 0.83986 0.0
C1375 C 0.61579 0.92733 0.86295 0.0
N1376 N 0.4726 0.93309 0.8398 0.0
N1377 N 0.62439 0.82618 0.87115 0.0
H1378 H 0.69066 1.01804 0.87575 0.0
H1379 H 0.71229 0.95399 0.87486 0.0
H1380 H 0.60747 0.77439 0.87068 0.0
H1381 H 0.66021 0.85151 0.88191 0.0
H1382 H 0.42494 0.90126 0.83391 0.0
H1383 H 0.48197 0.98225 0.84244 0.0
H1384 H 0.43395 0.82919 0.81716 0.0
H1385 H 0.44687 0.76003 0.82125 0.0
C1386 C 0.67612 0.50238 1.01151 0.0
C1387 C 0.68709 0.55831 0.0238 0.0
C1388 C 0.80593 0.57256 0.02877 0.0
C1389 C 0.79709 0.52074 1.01517 0.0
N1390 N 0.72374 0.45008 0.98992 0.0
N1391 N 0.7735 0.65393 0.04121 0.0
C1392 C 0.73186 0.48958 1.00564 0.0
C1393 C 0.75547 0.59544 0.03135 0.0
N1394 N 0.61184 0.4609 1.00498 0.0
N1395 N 0.86269 0.59931 0.04 0.0
H1396 H 0.73894 0.67013 0.0446 0.0
H1397 H 0.82344 0.68855 0.04487 0.0
H1398 H 0.89757 0.58195 0.03918 0.0
H1399 H 0.87128 0.63243 0.05145 0.0
H1400 H 0.59767 0.41533 0.99787 0.0
H1401 H 0.57159 0.46973 1.00798 0.0
H1402 H 0.68144 0.43103 0.9809 0.0
H1403 H 0.76301 0.4428 0.98475 0.0
C1404 C 0.29195 0.74079 0.16709 0.0
C1405 C 0.34397 0.77785 0.18149 0.0
C1406 C 0.25487 0.69566 0.20572 0.0
C1407 C 0.20068 0.66375 0.19158 0.0
N1408 N 0.18106 0.64572 0.15756 0.0
N1409 N 0.36535 0.7904 0.21571 0.0
C1410 C 0.22323 0.68487 0.17199 0.0
C1411 C 0.32251 0.75416 0.20103 0.0
N1412 N 0.30835 0.75817 0.1481 0.0
N1413 N 0.24325 0.66875 0.22394 0.0
H1414 H 0.4126 0.83296 0.2133 0.0
H1415 H 0.3522 0.78213 0.23031 0.0
H1416 H 0.19624 0.63033 0.22862 0.0
H1417 H 0.28162 0.68073 0.23402 0.0
H1418 H 0.27264 0.74599 0.13716 0.0
H1419 H 0.35838 0.7855 0.14328 0.0
H1420 H 0.19431 0.65042 0.14297 0.0
H1421 H 0.1339 0.60361 0.16041 0.0
C1422 C 0.62629 0.2818 0.36631 0.0
C1423 C 0.62817 0.30424 0.34663 0.0
C1424 C 0.59433 0.18086 0.3375 0.0
C1425 C 0.59274 0.1588 0.35717 0.0
N1426 N 0.62745 0.20097 0.38967 0.0
N1427 N 0.61064 0.26708 0.31328 0.0
C1428 C 0.61479 0.21325 0.37123 0.0
C1429 C 0.61112 0.251 0.33235 0.0
N1430 N 0.63049 0.32439 0.38088 0.0
N1431 N 0.58591 0.13573 0.32322 0.0
H1432 H 0.6341 0.3167 0.30812 0.0
H1433 H 0.58603 0.23149 0.30246 0.0
H1434 H 0.57641 0.08675 0.32621 0.0
H1435 H 0.59372 0.14736 0.30853 0.0
H1436 H 0.61989 0.30939 0.39533 0.0
H1437 H 0.63796 0.37294 0.37836 0.0
H1438 H 0.65225 0.23889 0.39994 0.0
H1439 H 0.61884 0.15382 0.39429 0.0
C1440 C 0.3844 0.79279 0.45613 0.0
C1441 C 0.34297 0.72108 0.45526 0.0
C1442 C 0.38594 0.73138 0.42092 0.0
C1443 C 0.41589 0.80354 0.42136 0.0
N1444 N 0.41225 0.89424 0.43847 0.0
N1445 N 0.31426 0.62121 0.4358 0.0
C1446 C 0.4069 0.83188 0.43874 0.0
C1447 C 0.34657 0.69009 0.43732 0.0
N1448 N 0.40596 0.82473 0.47349 0.0
N1449 N 0.39655 0.70189 0.40502 0.0
H1450 H 0.30265 0.58929 0.44773 0.0
H1451 H 0.30195 0.59585 0.42259 0.0
H1452 H 0.4218 0.72932 0.39266 0.0
H1453 H 0.38422 0.65115 0.40441 0.0
H1454 H 0.43853 0.877 0.47443 0.0
H1455 H 0.39978 0.79821 0.4864 0.0
H1456 H 0.40062 0.91455 0.45052 0.0
H1457 H 0.4185 0.92023 0.42557 0.0
C1458 C 0.65414 0.31333 0.58125 0.0
C1459 C 0.67462 0.38344 0.5835 0.0
C1460 C 0.69389 0.37001 0.61858 0.0
C1461 C 0.66265 0.29775 0.61685 0.0
N1462 N 0.60557 0.2014 0.59542 0.0
N1463 N 0.75183 0.4795 0.60253 0.0
C1464 C 0.64143 0.26997 0.59784 0.0
C1465 C 0.70461 0.41238 0.60174 0.0
N1466 N 0.65456 0.28915 0.56315 0.0
N1467 N 0.71397 0.39946 0.63636 0.0
H1468 H 0.76859 0.51043 0.59035 0.0
H1469 H 0.78206 0.50224 0.61461 0.0
H1470 H 0.71572 0.37357 0.64863 0.0
H1471 H 0.72612 0.44946 0.63907 0.0
H1472 H 0.64613 0.24024 0.5606 0.0
H1473 H 0.67465 0.32096 0.55113 0.0
H1474 H 0.58027 0.1787 0.58262 0.0
H1475 H 0.59581 0.16705 0.60654 0.0
C1476 C 0.43287 0.63609 0.76416 0.0
C1477 C 0.41577 0.64736 0.78325 0.0
C1478 C 0.33281 0.67613 0.76803 0.0
C1479 C 0.34268 0.65591 0.74924 0.0
N1480 N 0.42513 0.64528 0.72933 0.0
N1481 N 0.33614 0.66413 0.80283 0.0
C1482 C 0.39909 0.64361 0.74733 0.0
C1483 C 0.36179 0.66302 0.78498 0.0
N1484 N 0.47812 0.61287 0.76201 0.0
N1485 N 0.30202 0.71481 0.76974 0.0
H1486 H 0.35543 0.65665 0.81572 0.0
H1487 H 0.29162 0.6667 0.80468 0.0
H1488 H 0.29379 0.738 0.75781 0.0
H1489 H 0.29713 0.73468 0.78287 0.0
H1490 H 0.48523 0.59332 0.74912 0.0
H1491 H 0.50346 0.60572 0.77355 0.0
H1492 H 0.47049 0.64505 0.72683 0.0
H1493 H 0.40708 0.6567 0.71691 0.0
C1494 C 0.72843 0.28797 0.93924 0.0
C1495 C 0.74501 0.31198 0.91968 0.0
C1496 C 0.84851 0.41194 0.93282 0.0
C1497 C 0.82856 0.39182 0.95253 0.0
N1498 N 0.73751 0.31375 0.97359 0.0
N1499 N 0.81402 0.40837 0.89938 0.0
C1500 C 0.76484 0.33099 0.9554 0.0
C1501 C 0.80276 0.37754 0.91704 0.0
N1502 N 0.68115 0.22197 0.94267 0.0
N1503 N 0.91358 0.46016 0.92865 0.0
H1504 H 0.78117 0.38608 0.8878 0.0
H1505 H 0.85104 0.45871 0.89698 0.0
H1506 H 0.95108 0.48179 0.93913 0.0
H1507 H 0.93268 0.47059 0.91454 0.0
H1508 H 0.6737 0.19927 0.95627 0.0
H1509 H 0.65619 0.18733 0.93168 0.0
H1510 H 0.68804 0.27497 0.9762 0.0
H1511 H 0.76084 0.34208 0.98589 0.0
C1512 C 0.50446 0.74542 0.12432 0.0
C1513 C 0.4929 0.80159 0.12196 0.0
C1514 C 0.48333 0.77937 0.08635 0.0
C1515 C 0.49956 0.72594 0.08838 0.0
N1516 N 0.5337 0.66469 0.11027 0.0
N1517 N 0.432 0.83994 0.10125 0.0
C1518 C 0.51101 0.71005 0.1077 0.0
C1519 C 0.47121 0.80969 0.10314 0.0
N1520 N 0.50281 0.72151 0.14264 0.0
N1521 N 0.47998 0.80285 0.06836 0.0
H1522 H 0.4088 0.84901 0.11301 0.0
H1523 H 0.41129 0.8435 0.08812 0.0
H1524 H 0.48384 0.78111 0.0555 0.0
H1525 H 0.47827 0.84765 0.06626 0.0
H1526 H 0.50366 0.67685 0.14568 0.0
H1527 H 0.49084 0.74111 0.15476 0.0
H1528 H 0.55276 0.65816 0.12333 0.0
H1529 H 0.54143 0.63918 0.09891 0.0
C1530 C 0.76219 0.50696 0.26837 0.0
C1531 C 0.7543 0.47021 0.28577 0.0
C1532 C 0.82505 0.42656 0.26977 0.0
C1533 C 0.82703 0.46041 0.25183 0.0
N1534 N 0.76048 0.49898 0.23371 0.0
N1535 N 0.77619 0.38905 0.30222 0.0
C1536 C 0.78395 0.48972 0.251 0.0
C1537 C 0.78554 0.42845 0.28624 0.0
N1538 N 0.75674 0.56401 0.26856 0.0
N1539 N 0.85872 0.3906 0.27113 0.0
H1540 H 0.75064 0.39116 0.31457 0.0
H1541 H 0.78993 0.35141 0.30293 0.0
H1542 H 0.87245 0.37266 0.25907 0.0
H1543 H 0.87061 0.3762 0.28425 0.0
H1544 H 0.76764 0.5953 0.2564 0.0
H1545 H 0.75115 0.58422 0.28144 0.0
H1546 H 0.72723 0.51862 0.2329 0.0
H1547 H 0.76551 0.47757 0.22087 0.0
C1548 C 0.89779 0.3366 0.40857 0.0
C1549 C 0.89895 0.39484 0.41614 0.0
C1550 C 0.78822 0.3233 0.43136 0.0
C1551 C 0.7972 0.26631 0.42798 0.0
N1552 N 0.8713 0.2234 0.4169 0.0
N1553 N 0.84419 0.44639 0.4336 0.0
C1554 C 0.85436 0.27377 0.41726 0.0
C1555 C 0.84302 0.38912 0.42695 0.0
N1556 N 0.94199 0.34214 0.39423 0.0
N1557 N 0.72828 0.3144 0.4388 0.0
H1558 H 0.88381 0.49466 0.4301 0.0
H1559 H 0.80779 0.44589 0.443 0.0
H1560 H 0.68758 0.26646 0.44202 0.0
H1561 H 0.7171 0.35369 0.44027 0.0
H1562 H 0.93982 0.29998 0.38744 0.0
H1563 H 0.97528 0.38844 0.38774 0.0
H1564 H 0.91608 0.22974 0.4106 0.0
H1565 H 0.84586 0.1787 0.42493 0.0
C1566 C 0.5428 0.76204 0.61961 0.0
C1567 C 0.6053 0.81948 0.62493 0.0
C1568 C 0.62932 0.74703 0.64574 0.0
C1569 C 0.5814 0.69044 0.63532 0.0
N1570 N 0.48511 0.64055 0.61426 0.0
N1571 N 0.71418 0.8634 0.64141 0.0
C1572 C 0.53394 0.6966 0.6234 0.0
C1573 C 0.64978 0.81176 0.63799 0.0
N1574 N 0.49353 0.77007 0.61059 0.0
N1575 N 0.65931 0.7389 0.66188 0.0
H1576 H 0.73576 0.91005 0.63431 0.0
H1577 H 0.74934 0.85683 0.64957 0.0
H1578 H 0.6443 0.69136 0.6679 0.0
H1579 H 0.6925 0.77965 0.67045 0.0
H1580 H 0.44525 0.72989 0.60764 0.0
H1581 H 0.49925 0.81771 0.60764 0.0
H1582 H 0.45308 0.64195 0.60366 0.0
H1583 H 0.47948 0.59271 0.617 0.0
C1584 C 0.77963 0.50544 0.76345 0.0
C1585 C 0.78365 0.57005 0.76409 0.0
C1586 C 0.89162 0.61779 0.78083 0.0
C1587 C 0.89272 0.55657 0.77811 0.0
N1588 N 0.84048 0.44173 0.76678 0.0
N1589 N 0.85452 0.69157 0.76703 0.0
C1590 C 0.83712 0.49979 0.76946 0.0
C1591 C 0.84319 0.62746 0.77085 0.0
N1592 N 0.72175 0.45052 0.75703 0.0
N1593 N 0.93888 0.66784 0.79228 0.0
H1594 H 0.82173 0.70089 0.75856 0.0
H1595 H 0.90005 0.7351 0.77032 0.0
H1596 H 0.97577 0.66233 0.79987 0.0
H1597 H 0.93667 0.71153 0.79579 0.0
H1598 H 0.71365 0.40112 0.75742 0.0
H1599 H 0.68045 0.45437 0.75183 0.0
H1600 H 0.80456 0.39987 0.75915 0.0
H1601 H 0.88125 0.43661 0.77189 0.0
C1602 C 0.40444 0.81142 0.94011 0.0
C1603 C 0.39812 0.87032 0.94257 0.0
C1604 C 0.28234 0.81093 0.9309 0.0
C1605 C 0.28455 0.74959 0.93085 0.0
N1606 N 0.34559 0.68876 0.93619 0.0
N1607 N 0.32445 0.91897 0.94643 0.0
C1608 C 0.3452 0.74884 0.93565 0.0
C1609 C 0.33469 0.86753 0.94 0.0
N1610 N 0.46658 0.81573 0.9418 0.0
N1611 N 0.22977 0.81475 0.92234 0.0
H1612 H 0.36144 0.96064 0.95398 0.0
H1613 H 0.27703 0.91632 0.94616 0.0
H1614 H 0.19094 0.77401 0.91495 0.0
H1615 H 0.22897 0.86021 0.92079 0.0
H1616 H 0.47598 0.77632 0.93831 0.0
H1617 H 0.50942 0.86042 0.94601 0.0
H1618 H 0.38606 0.68375 0.94149 0.0
H1619 H 0.30373 0.6433 0.93191 0.0
C1620 C 0.66758 0.32049 0.10183 0.0
C1621 C 0.60723 0.26085 0.09657 0.0
C1622 C 0.53885 0.31087 0.1066 0.0
C1623 C 0.59845 0.37398 0.10905 0.0
N1624 N 0.72051 0.44135 0.10851 0.0
N1625 N 0.48759 0.20681 0.08868 0.0
C1626 C 0.66351 0.37976 0.10657 0.0
C1627 C 0.54361 0.2588 0.09714 0.0
N1628 N 0.72765 0.31983 0.10262 0.0
N1629 N 0.47765 0.30077 0.11343 0.0
H1630 H 0.48934 0.16795 0.08105 0.0
H1631 H 0.4414 0.20648 0.08749 0.0
H1632 H 0.47278 0.3377 0.12121 0.0
H1633 H 0.43366 0.25353 0.11326 0.0
H1634 H 0.77228 0.35971 0.10812 0.0
H1635 H 0.73155 0.27735 0.09868 0.0
H1636 H 0.76914 0.45031 0.10502 0.0
H1637 H 0.71821 0.48416 0.11297 0.0
C1638 C 0.31309 0.50592 0.29115 0.0
C1639 C 0.36822 0.55405 0.27965 0.0
C1640 C 0.31884 0.62891 0.28009 0.0
C1641 C 0.26435 0.57963 0.2913 0.0
N1642 N 0.22722 0.48935 0.3147 0.0
N1643 N 0.43326 0.66877 0.26765 0.0
C1644 C 0.26909 0.52555 0.29974 0.0
C1645 C 0.37475 0.6186 0.27569 0.0
N1646 N 0.29809 0.43959 0.29228 0.0
N1647 N 0.31497 0.68322 0.27304 0.0
H1648 H 0.47475 0.66196 0.26446 0.0
H1649 H 0.44259 0.71824 0.26562 0.0
H1650 H 0.27429 0.69093 0.27657 0.0
H1651 H 0.35034 0.71874 0.26348 0.0
H1652 H 0.25473 0.4023 0.29925 0.0
H1653 H 0.32323 0.41964 0.28424 0.0
H1654 H 0.23181 0.45139 0.322 0.0
H1655 H 0.19369 0.50282 0.3211 0.0
loop_
_geom_bond_atom_site_label_1
_geom_bond_atom_site_label_2
_geom_bond_distance
_geom_bond_site_symmetry_2
_ccdc_geom_bond_type
Tb0 N29 2.617 1_565 S
Tb0 N35 2.572 . S
Tb0 O44 2.465 . S
Tb0 O45 2.387 1_565 S
Tb0 O47 2.428 . S
Tb0 O48 2.308 . S
Tb0 O52 2.349 . S
Tb0 O55 2.393 1_565 S
Tb0 C64 2.802 . S
C1 N2 1.379 . S
C1 C4 1.416 . S
C1 C8 1.424 . S
N2 C1 1.379 . S
N2 C5 1.334 . S
N2 Tb11 2.617 1_565 S
C3 C5 1.390 . S
C3 C6 1.339 . S
C3 H23 0.930 . S
C4 C1 1.416 . S
C4 C6 1.416 . S
C4 C10 1.448 . S
C5 N2 1.334 . S
C5 C3 1.390 . S
C5 H16 0.930 . S
C6 C3 1.339 . S
C6 C4 1.416 . S
C6 H27 0.930 . S
C7 C8 1.413 . S
C7 C9 1.427 . S
C7 C13 1.416 1_565 S
C8 C1 1.424 . S
C8 C7 1.413 . S
C8 N12 1.361 1_565 S
C9 C7 1.427 . S
C9 C10 1.328 . S
C9 H24 0.929 . S
C10 C4 1.448 . S
C10 C9 1.328 . S
C10 H25 0.930 . S
Tb11 N2 2.617 1_545 S
Tb11 N12 2.572 . S
Tb11 O46 2.349 . S
Tb11 O49 2.393 1_545 S
Tb11 O50 2.465 . S
Tb11 O51 2.387 1_545 S
Tb11 O53 2.428 . S
Tb11 O54 2.308 . S
Tb11 C75 2.802 . S
N12 C8 1.361 1_545 S
N12 Tb11 2.572 . S
N12 C14 1.340 . S
C13 C7 1.416 1_545 S
C13 C15 1.332 . S
C13 H21 0.931 . S
C14 N12 1.340 . S
C14 C15 1.407 . S
C14 H20 0.930 . S
C15 C13 1.332 . S
C15 C14 1.407 . S
C15 H17 0.929 . S
H16 C5 0.930 . S
H17 C15 0.929 . S
H18 C33 0.930 . S
H19 C40 0.929 . S
H20 C14 0.930 . S
H21 C13 0.931 . S
H22 C36 0.930 . S
H23 C3 0.930 . S
H24 C9 0.929 . S
H25 C10 0.930 . S
H26 C31 0.930 . S
H27 C6 0.930 . S
H28 C39 0.931 . S
N29 Tb0 2.617 1_545 S
N29 C30 1.379 . S
N29 C33 1.334 . S
C30 N29 1.379 . S
C30 C32 1.416 . S
C30 C38 1.424 . S
C31 H26 0.930 . S
C31 C33 1.390 . S
C31 C34 1.339 . S
C32 C30 1.416 . S
C32 C34 1.416 . S
C32 C65 1.448 . S
C33 H18 0.930 . S
C33 N29 1.334 . S
C33 C31 1.390 . S
C34 C31 1.339 . S
C34 C32 1.416 . S
C34 H41 0.930 . S
N35 Tb0 2.572 . S
N35 C36 1.340 . S
N35 C38 1.361 1_565 S
C36 H22 0.930 . S
C36 N35 1.340 . S
C36 C40 1.407 . S
C37 C38 1.413 . S
C37 C39 1.416 1_545 S
C37 C66 1.427 . S
C38 C30 1.424 . S
C38 N35 1.361 1_545 S
C38 C37 1.413 . S
C39 H28 0.931 . S
C39 C37 1.416 1_565 S
C39 C40 1.332 . S
C40 H19 0.929 . S
C40 C36 1.407 . S
C40 C39 1.332 . S
H41 C34 0.930 . S
H42 C65 0.930 . S
H43 C66 0.929 . S
O44 Tb0 2.465 . S
O44 C64 1.264 . S
O45 Tb0 2.387 1_545 S
O45 C56 1.264 . S
O46 Tb11 2.349 . S
O46 C56 1.243 . S
O47 Tb0 2.428 . S
O47 C64 1.256 . S
O48 Tb0 2.308 . S
O48 C63 1.266 . S
O49 Tb11 2.393 1_565 S
O49 C63 1.248 . S
O50 Tb11 2.465 . S
O50 C75 1.264 . S
O51 Tb11 2.387 1_565 S
O51 C67 1.264 . S
O52 Tb0 2.349 . S
O52 C67 1.243 . S
O53 Tb11 2.428 . S
O53 C75 1.256 . S
O54 Tb11 2.308 . S
O54 C74 1.266 . S
O55 Tb0 2.393 1_545 S
O55 C74 1.248 . S
C56 O45 1.264 . S
C56 O46 1.243 . S
C57 C60 1.399 . S
C57 C62 1.383 . S
C57 C64 1.496 . S
C58 C59 1.399 . S
C58 C62 1.389 . S
C59 C58 1.399 . S
C59 C61 1.380 . S
C59 H76 0.929 . S
C60 C57 1.399 . S
C60 C61 1.392 . S
C60 H77 0.929 . S
C61 C59 1.380 . S
C61 C60 1.392 . S
C61 H78 0.929 . S
C62 C57 1.383 . S
C62 C58 1.389 . S
C62 H79 0.931 . S
C63 O48 1.266 . S
C63 O49 1.248 . S
C64 Tb0 2.802 . S
C64 O44 1.264 . S
C64 O47 1.256 . S
C64 C57 1.496 . S
C65 C32 1.448 . S
C65 H42 0.930 . S
C65 C66 1.328 . S
C66 C37 1.427 . S
C66 H43 0.929 . S
C66 C65 1.328 . S
C67 O51 1.264 . S
C67 O52 1.243 . S
C68 C71 1.399 . S
C68 C72 1.383 . S
C68 C75 1.496 . S
C69 C70 1.399 . S
C69 C72 1.389 . S
C70 C69 1.399 . S
C70 C73 1.380 . S
C70 H80 0.929 . S
C71 C68 1.399 . S
C71 C73 1.392 . S
C71 H81 0.929 . S
C72 C68 1.383 . S
C72 C69 1.389 . S
C72 H82 0.931 . S
C73 C70 1.380 . S
C73 C71 1.392 . S
C73 H83 0.929 . S
C74 O54 1.266 . S
C74 O55 1.248 . S
C75 Tb11 2.802 . S
C75 O50 1.264 . S
C75 O53 1.256 . S
C75 C68 1.496 . S
H76 C59 0.929 . S
H77 C60 0.929 . S
H78 C61 0.929 . S
H79 C62 0.931 . S
H80 C70 0.929 . S
H81 C71 0.929 . S
H82 C72 0.931 . S
H83 C73 0.929 . S
Tb84 N113 2.617 . S
Tb84 N119 2.572 . S
Tb84 O128 2.465 . S
Tb84 O129 2.387 . S
Tb84 O131 2.428 . S
Tb84 O132 2.308 . S
Tb84 O136 2.349 . S
Tb84 O139 2.393 . S
Tb84 C148 2.802 . S
C85 N86 1.379 . S
C85 C88 1.416 . S
C85 C92 1.424 . S
N86 C85 1.379 . S
N86 C89 1.334 . S
N86 Tb95 2.617 . S
C87 C89 1.390 . S
C87 C90 1.339 . S
C87 H107 0.930 . S
C88 C85 1.416 . S
C88 C90 1.416 . S
C88 C94 1.448 . S
C89 N86 1.334 . S
C89 C87 1.390 . S
C89 H100 0.930 . S
C90 C87 1.339 . S
C90 C88 1.416 . S
C90 H111 0.930 . S
C91 C92 1.413 . S
C91 C93 1.427 . S
C91 C97 1.416 . S
C92 C85 1.424 . S
C92 C91 1.413 . S
C92 N96 1.361 . S
C93 C91 1.427 . S
C93 C94 1.328 . S
C93 H108 0.929 . S
C94 C88 1.448 . S
C94 C93 1.328 . S
C94 H109 0.930 . S
Tb95 N86 2.617 . S
Tb95 N96 2.572 . S
Tb95 O130 2.349 . S
Tb95 O133 2.393 . S
Tb95 O134 2.465 . S
Tb95 O135 2.387 . S
Tb95 O137 2.428 . S
Tb95 O138 2.308 . S
Tb95 C159 2.802 . S
N96 C92 1.361 . S
N96 Tb95 2.572 . S
N96 C98 1.340 . S
C97 C91 1.416 . S
C97 C99 1.332 . S
C97 H105 0.931 . S
C98 N96 1.340 . S
C98 C99 1.407 . S
C98 H104 0.930 . S
C99 C97 1.332 . S
C99 C98 1.407 . S
C99 H101 0.929 . S
H100 C89 0.930 . S
H101 C99 0.929 . S
H102 C117 0.930 . S
H103 C124 0.929 . S
H104 C98 0.930 . S
H105 C97 0.931 . S
H106 C120 0.930 . S
H107 C87 0.930 . S
H108 C93 0.929 . S
H109 C94 0.930 . S
H110 C115 0.930 . S
H111 C90 0.930 . S
H112 C123 0.931 . S
N113 Tb84 2.617 . S
N113 C114 1.379 . S
N113 C117 1.334 . S
C114 N113 1.379 . S
C114 C116 1.416 . S
C114 C122 1.424 . S
C115 H110 0.930 . S
C115 C117 1.390 . S
C115 C118 1.339 . S
C116 C114 1.416 . S
C116 C118 1.416 . S
C116 C149 1.448 . S
C117 H102 0.930 . S
C117 N113 1.334 . S
C117 C115 1.390 . S
C118 C115 1.339 . S
C118 C116 1.416 . S
C118 H125 0.930 . S
N119 Tb84 2.572 . S
N119 C120 1.340 . S
N119 C122 1.361 . S
C120 H106 0.930 . S
C120 N119 1.340 . S
C120 C124 1.407 . S
C121 C122 1.413 . S
C121 C123 1.416 . S
C121 C150 1.427 . S
C122 C114 1.424 . S
C122 N119 1.361 . S
C122 C121 1.413 . S
C123 H112 0.931 . S
C123 C121 1.416 . S
C123 C124 1.332 . S
C124 H103 0.929 . S
C124 C120 1.407 . S
C124 C123 1.332 . S
H125 C118 0.930 . S
H126 C149 0.930 . S
H127 C150 0.929 . S
O128 Tb84 2.465 . S
O128 C148 1.264 . S
O129 Tb84 2.387 . S
O129 C140 1.264 . S
O130 Tb95 2.349 . S
O130 C140 1.243 . S
O131 Tb84 2.428 . S
O131 C148 1.256 . S
O132 Tb84 2.308 . S
O132 C147 1.266 . S
O133 Tb95 2.393 . S
O133 C147 1.248 . S
O134 Tb95 2.465 . S
O134 C159 1.264 . S
O135 Tb95 2.387 . S
O135 C151 1.264 . S
O136 Tb84 2.349 . S
O136 C151 1.243 . S
O137 Tb95 2.428 . S
O137 C159 1.256 . S
O138 Tb95 2.308 . S
O138 C158 1.266 . S
O139 Tb84 2.393 . S
O139 C158 1.248 . S
C140 O129 1.264 . S
C140 O130 1.243 . S
C141 C144 1.399 . S
C141 C146 1.383 . S
C141 C148 1.496 . S
C142 C143 1.399 . S
C142 C146 1.389 . S
C143 C142 1.399 . S
C143 C145 1.380 . S
C143 H160 0.929 . S
C144 C141 1.399 . S
C144 C145 1.392 . S
C144 H161 0.929 . S
C145 C143 1.380 . S
C145 C144 1.392 . S
C145 H162 0.929 . S
C146 C141 1.383 . S
C146 C142 1.389 . S
C146 H163 0.931 . S
C147 O132 1.266 . S
C147 O133 1.248 . S
C148 Tb84 2.802 . S
C148 O128 1.264 . S
C148 O131 1.256 . S
C148 C141 1.496 . S
C149 C116 1.448 . S
C149 H126 0.930 . S
C149 C150 1.328 . S
C150 C121 1.427 . S
C150 H127 0.929 . S
C150 C149 1.328 . S
C151 O135 1.264 . S
C151 O136 1.243 . S
C152 C155 1.399 . S
C152 C156 1.383 . S
C152 C159 1.496 . S
C153 C154 1.399 . S
C153 C156 1.389 . S
C154 C153 1.399 . S
C154 C157 1.380 . S
C154 H164 0.929 . S
C155 C152 1.399 . S
C155 C157 1.392 . S
C155 H165 0.929 . S
C156 C152 1.383 . S
C156 C153 1.389 . S
C156 H166 0.931 . S
C157 C154 1.380 . S
C157 C155 1.392 . S
C157 H167 0.929 . S
C158 O138 1.266 . S
C158 O139 1.248 . S
C159 Tb95 2.802 . S
C159 O134 1.264 . S
C159 O137 1.256 . S
C159 C152 1.496 . S
H160 C143 0.929 . S
H161 C144 0.929 . S
H162 C145 0.929 . S
H163 C146 0.931 . S
H164 C154 0.929 . S
H165 C155 0.929 . S
H166 C156 0.931 . S
H167 C157 0.929 . S
Tb168 N197 2.617 1_455 S
Tb168 N203 2.572 . S
Tb168 O212 2.465 . S
Tb168 O213 2.387 1_455 S
Tb168 O215 2.428 . S
Tb168 O216 2.308 . S
Tb168 O220 2.349 . S
Tb168 O223 2.393 1_455 S
Tb168 C232 2.802 . S
C169 N170 1.379 . S
C169 C172 1.416 . S
C169 C176 1.424 . S
N170 C169 1.379 . S
N170 C173 1.334 . S
N170 Tb179 2.617 1_455 S
C171 C173 1.390 . S
C171 C174 1.339 . S
C171 H191 0.930 . S
C172 C169 1.416 . S
C172 C174 1.416 . S
C172 C178 1.448 . S
C173 N170 1.334 . S
C173 C171 1.390 . S
C173 H184 0.930 . S
C174 C171 1.339 . S
C174 C172 1.416 . S
C174 H195 0.930 . S
C175 C176 1.413 . S
C175 C177 1.427 . S
C175 C181 1.416 1_455 S
C176 C169 1.424 . S
C176 C175 1.413 . S
C176 N180 1.361 1_455 S
C177 C175 1.427 . S
C177 C178 1.328 . S
C177 H192 0.929 . S
C178 C172 1.448 . S
C178 C177 1.328 . S
C178 H193 0.930 . S
Tb179 N170 2.617 1_655 S
Tb179 N180 2.572 . S
Tb179 O214 2.349 . S
Tb179 O217 2.393 1_655 S
Tb179 O218 2.465 . S
Tb179 O219 2.387 1_655 S
Tb179 O221 2.428 . S
Tb179 O222 2.308 . S
Tb179 C243 2.802 . S
N180 C176 1.361 1_655 S
N180 Tb179 2.572 . S
N180 C182 1.340 . S
C181 C175 1.416 1_655 S
C181 C183 1.332 . S
C181 H189 0.931 . S
C182 N180 1.340 . S
C182 C183 1.407 . S
C182 H188 0.930 . S
C183 C181 1.332 . S
C183 C182 1.407 . S
C183 H185 0.929 . S
H184 C173 0.930 . S
H185 C183 0.929 . S
H186 C201 0.930 . S
H187 C208 0.929 . S
H188 C182 0.930 . S
H189 C181 0.931 . S
H190 C204 0.930 . S
H191 C171 0.930 . S
H192 C177 0.929 . S
H193 C178 0.930 . S
H194 C199 0.930 . S
H195 C174 0.930 . S
H196 C207 0.931 . S
N197 Tb168 2.617 1_655 S
N197 C198 1.379 . S
N197 C201 1.334 . S
C198 N197 1.379 . S
C198 C200 1.416 . S
C198 C206 1.424 . S
C199 H194 0.930 . S
C199 C201 1.390 . S
C199 C202 1.339 . S
C200 C198 1.416 . S
C200 C202 1.416 . S
C200 C233 1.448 . S
C201 H186 0.930 . S
C201 N197 1.334 . S
C201 C199 1.390 . S
C202 C199 1.339 . S
C202 C200 1.416 . S
C202 H209 0.930 . S
N203 Tb168 2.572 . S
N203 C204 1.340 . S
N203 C206 1.361 1_455 S
C204 H190 0.930 . S
C204 N203 1.340 . S
C204 C208 1.407 . S
C205 C206 1.413 . S
C205 C207 1.416 1_655 S
C205 C234 1.427 . S
C206 C198 1.424 . S
C206 N203 1.361 1_655 S
C206 C205 1.413 . S
C207 H196 0.931 . S
C207 C205 1.416 1_455 S
C207 C208 1.332 . S
C208 H187 0.929 . S
C208 C204 1.407 . S
C208 C207 1.332 . S
H209 C202 0.930 . S
H210 C233 0.930 . S
H211 C234 0.929 . S
O212 Tb168 2.465 . S
O212 C232 1.264 . S
O213 Tb168 2.387 1_655 S
O213 C224 1.264 . S
O214 Tb179 2.349 . S
O214 C224 1.243 . S
O215 Tb168 2.428 . S
O215 C232 1.256 . S
O216 Tb168 2.308 . S
O216 C231 1.266 . S
O217 Tb179 2.393 1_455 S
O217 C231 1.248 . S
O218 Tb179 2.465 . S
O218 C243 1.264 . S
O219 Tb179 2.387 1_455 S
O219 C235 1.264 . S
O220 Tb168 2.349 . S
O220 C235 1.243 . S
O221 Tb179 2.428 . S
O221 C243 1.256 . S
O222 Tb179 2.308 . S
O222 C242 1.266 . S
O223 Tb168 2.393 1_655 S
O223 C242 1.248 . S
C224 O213 1.264 . S
C224 O214 1.243 . S
C225 C228 1.399 . S
C225 C230 1.383 . S
C225 C232 1.496 . S
C226 C227 1.399 . S
C226 C230 1.389 . S
C227 C226 1.399 . S
C227 C229 1.380 . S
C227 H244 0.929 . S
C228 C225 1.399 . S
C228 C229 1.392 . S
C228 H245 0.929 . S
C229 C227 1.380 . S
C229 C228 1.392 . S
C229 H246 0.929 . S
C230 C225 1.383 . S
C230 C226 1.389 . S
C230 H247 0.931 . S
C231 O216 1.266 . S
C231 O217 1.248 . S
C232 Tb168 2.802 . S
C232 O212 1.264 . S
C232 O215 1.256 . S
C232 C225 1.496 . S
C233 C200 1.448 . S
C233 H210 0.930 . S
C233 C234 1.328 . S
C234 C205 1.427 . S
C234 H211 0.929 . S
C234 C233 1.328 . S
C235 O219 1.264 . S
C235 O220 1.243 . S
C236 C239 1.399 . S
C236 C240 1.383 . S
C236 C243 1.496 . S
C237 C238 1.399 . S
C237 C240 1.389 . S
C238 C237 1.399 . S
C238 C241 1.380 . S
C238 H248 0.929 . S
C239 C236 1.399 . S
C239 C241 1.392 . S
C239 H249 0.929 . S
C240 C236 1.383 . S
C240 C237 1.389 . S
C240 H250 0.931 . S
C241 C238 1.380 . S
C241 C239 1.392 . S
C241 H251 0.929 . S
C242 O222 1.266 . S
C242 O223 1.248 . S
C243 Tb179 2.802 . S
C243 O218 1.264 . S
C243 O221 1.256 . S
C243 C236 1.496 . S
H244 C227 0.929 . S
H245 C228 0.929 . S
H246 C229 0.929 . S
H247 C230 0.931 . S
H248 C238 0.929 . S
H249 C239 0.929 . S
H250 C240 0.931 . S
H251 C241 0.929 . S
Tb252 N281 2.617 1_545 S
Tb252 N287 2.572 . S
Tb252 O296 2.465 . S
Tb252 O297 2.387 1_545 S
Tb252 O299 2.428 . S
Tb252 O300 2.308 . S
Tb252 O304 2.349 . S
Tb252 O307 2.393 1_545 S
Tb252 C316 2.802 . S
C253 N254 1.379 . S
C253 C256 1.416 . S
C253 C260 1.424 . S
N254 C253 1.379 . S
N254 C257 1.334 . S
N254 Tb263 2.617 1_545 S
C255 C257 1.390 . S
C255 C258 1.339 . S
C255 H275 0.930 . S
C256 C253 1.416 . S
C256 C258 1.416 . S
C256 C262 1.448 . S
C257 N254 1.334 . S
C257 C255 1.390 . S
C257 H268 0.930 . S
C258 C255 1.339 . S
C258 C256 1.416 . S
C258 H279 0.930 . S
C259 C260 1.413 . S
C259 C261 1.427 . S
C259 C265 1.416 1_545 S
C260 C253 1.424 . S
C260 C259 1.413 . S
C260 N264 1.361 1_545 S
C261 C259 1.427 . S
C261 C262 1.328 . S
C261 H276 0.929 . S
C262 C256 1.448 . S
C262 C261 1.328 . S
C262 H277 0.930 . S
Tb263 N254 2.617 1_565 S
Tb263 N264 2.572 . S
Tb263 O298 2.349 . S
Tb263 O301 2.393 1_565 S
Tb263 O302 2.465 . S
Tb263 O303 2.387 1_565 S
Tb263 O305 2.428 . S
Tb263 O306 2.308 . S
Tb263 C327 2.802 . S
N264 C260 1.361 1_565 S
N264 Tb263 2.572 . S
N264 C266 1.340 . S
C265 C259 1.416 1_565 S
C265 C267 1.332 . S
C265 H273 0.931 . S
C266 N264 1.340 . S
C266 C267 1.407 . S
C266 H272 0.930 . S
C267 C265 1.332 . S
C267 C266 1.407 . S
C267 H269 0.929 . S
H268 C257 0.930 . S
H269 C267 0.929 . S
H270 C285 0.930 . S
H271 C292 0.929 . S
H272 C266 0.930 . S
H273 C265 0.931 . S
H274 C288 0.930 . S
H275 C255 0.930 . S
H276 C261 0.929 . S
H277 C262 0.930 . S
H278 C283 0.930 . S
H279 C258 0.930 . S
H280 C291 0.931 . S
N281 Tb252 2.617 1_565 S
N281 C282 1.379 . S
N281 C285 1.334 . S
C282 N281 1.379 . S
C282 C284 1.416 . S
C282 C290 1.424 . S
C283 H278 0.930 . S
C283 C285 1.390 . S
C283 C286 1.339 . S
C284 C282 1.416 . S
C284 C286 1.416 . S
C284 C317 1.448 . S
C285 H270 0.930 . S
C285 N281 1.334 . S
C285 C283 1.390 . S
C286 C283 1.339 . S
C286 C284 1.416 . S
C286 H293 0.930 . S
N287 Tb252 2.572 . S
N287 C288 1.340 . S
N287 C290 1.361 1_545 S
C288 H274 0.930 . S
C288 N287 1.340 . S
C288 C292 1.407 . S
C289 C290 1.413 . S
C289 C291 1.416 1_565 S
C289 C318 1.427 . S
C290 C282 1.424 . S
C290 N287 1.361 1_565 S
C290 C289 1.413 . S
C291 H280 0.931 . S
C291 C289 1.416 1_545 S
C291 C292 1.332 . S
C292 H271 0.929 . S
C292 C288 1.407 . S
C292 C291 1.332 . S
H293 C286 0.930 . S
H294 C317 0.930 . S
H295 C318 0.929 . S
O296 Tb252 2.465 . S
O296 C316 1.264 . S
O297 Tb252 2.387 1_565 S
O297 C308 1.264 . S
O298 Tb263 2.349 . S
O298 C308 1.243 . S
O299 Tb252 2.428 . S
O299 C316 1.256 . S
O300 Tb252 2.308 . S
O300 C315 1.266 . S
O301 Tb263 2.393 1_545 S
O301 C315 1.248 . S
O302 Tb263 2.465 . S
O302 C327 1.264 . S
O303 Tb263 2.387 1_545 S
O303 C319 1.264 . S
O304 Tb252 2.349 . S
O304 C319 1.243 . S
O305 Tb263 2.428 . S
O305 C327 1.256 . S
O306 Tb263 2.308 . S
O306 C326 1.266 . S
O307 Tb252 2.393 1_565 S
O307 C326 1.248 . S
C308 O297 1.264 . S
C308 O298 1.243 . S
C309 C312 1.399 . S
C309 C314 1.383 . S
C309 C316 1.496 . S
C310 C311 1.399 . S
C310 C314 1.389 . S
C311 C310 1.399 . S
C311 C313 1.380 . S
C311 H328 0.929 . S
C312 C309 1.399 . S
C312 C313 1.392 . S
C312 H329 0.929 . S
C313 C311 1.380 . S
C313 C312 1.392 . S
C313 H330 0.929 . S
C314 C309 1.383 . S
C314 C310 1.389 . S
C314 H331 0.931 . S
C315 O300 1.266 . S
C315 O301 1.248 . S
C316 Tb252 2.802 . S
C316 O296 1.264 . S
C316 O299 1.256 . S
C316 C309 1.496 . S
C317 C284 1.448 . S
C317 H294 0.930 . S
C317 C318 1.328 . S
C318 C289 1.427 . S
C318 H295 0.929 . S
C318 C317 1.328 . S
C319 O303 1.264 . S
C319 O304 1.243 . S
C320 C323 1.399 . S
C320 C324 1.383 . S
C320 C327 1.496 . S
C321 C322 1.399 . S
C321 C324 1.389 . S
C322 C321 1.399 . S
C322 C325 1.380 . S
C322 H332 0.929 . S
C323 C320 1.399 . S
C323 C325 1.392 . S
C323 H333 0.929 . S
C324 C320 1.383 . S
C324 C321 1.389 . S
C324 H334 0.931 . S
C325 C322 1.380 . S
C325 C323 1.392 . S
C325 H335 0.929 . S
C326 O306 1.266 . S
C326 O307 1.248 . S
C327 Tb263 2.802 . S
C327 O302 1.264 . S
C327 O305 1.256 . S
C327 C320 1.496 . S
H328 C311 0.929 . S
H329 C312 0.929 . S
H330 C313 0.929 . S
H331 C314 0.931 . S
H332 C322 0.929 . S
H333 C323 0.929 . S
H334 C324 0.931 . S
H335 C325 0.929 . S
Tb336 N365 2.617 1_554 S
Tb336 N371 2.572 . S
Tb336 O380 2.475 . S
Tb336 O381 2.387 . S
Tb336 O383 2.428 1_554 S
Tb336 O384 2.308 . S
Tb336 O388 2.349 . S
Tb336 O391 2.393 1_554 S
Tb336 C400 2.802 1_554 S
C337 N338 1.379 . S
C337 C340 1.416 . S
C337 C344 1.424 . S
N338 C337 1.379 . S
N338 C341 1.334 . S
N338 Tb347 2.617 . S
C339 C341 1.390 . S
C339 C342 1.339 . S
C339 H359 0.930 . S
C340 C337 1.416 . S
C340 C342 1.416 . S
C340 C346 1.448 . S
C341 N338 1.334 . S
C341 C339 1.390 . S
C341 H352 0.930 . S
C342 C339 1.339 . S
C342 C340 1.416 . S
C342 H363 0.930 . S
C343 C344 1.413 . S
C343 C345 1.427 . S
C343 C349 1.416 . S
C344 C337 1.424 . S
C344 C343 1.413 . S
C344 N348 1.361 . S
C345 C343 1.427 . S
C345 C346 1.328 . S
C345 H360 0.929 . S
C346 C340 1.448 . S
C346 C345 1.328 . S
C346 H361 0.930 . S
Tb347 N338 2.617 . S
Tb347 N348 2.572 . S
Tb347 O382 2.349 . S
Tb347 O385 2.393 . S
Tb347 O386 2.465 . S
Tb347 O387 2.387 . S
Tb347 O389 2.428 . S
Tb347 O390 2.308 . S
Tb347 C411 2.802 . S
N348 C344 1.361 . S
N348 Tb347 2.572 . S
N348 C350 1.340 . S
C349 C343 1.416 . S
C349 C351 1.332 . S
C349 H357 0.931 . S
C350 N348 1.340 . S
C350 C351 1.407 . S
C350 H356 0.930 . S
C351 C349 1.332 . S
C351 C350 1.407 . S
C351 H353 0.929 . S
H352 C341 0.930 . S
H353 C351 0.929 . S
H354 C369 0.930 . S
H355 C376 0.929 . S
H356 C350 0.930 . S
H357 C349 0.931 . S
H358 C372 0.930 . S
H359 C339 0.930 . S
H360 C345 0.929 . S
H361 C346 0.930 . S
H362 C367 0.930 . S
H363 C342 0.930 . S
H364 C375 0.931 . S
N365 Tb336 2.617 1_556 S
N365 C366 1.379 1_556 S
N365 C369 1.334 . S
C366 N365 1.379 1_554 S
C366 C368 1.420 . S
C366 C374 1.424 . S
C367 H362 0.930 . S
C367 C369 1.390 . S
C367 C370 1.339 . S
C368 C366 1.420 . S
C368 C370 1.405 1_554 S
C368 C401 1.457 . S
C369 H354 0.930 . S
C369 N365 1.334 . S
C369 C367 1.390 . S
C370 C367 1.339 . S
C370 C368 1.405 1_556 S
C370 H377 0.930 . S
N371 Tb336 2.572 . S
N371 C372 1.340 . S
N371 C374 1.361 . S
C372 H358 0.930 . S
C372 N371 1.340 . S
C372 C376 1.407 . S
C373 C374 1.413 . S
C373 C375 1.416 . S
C373 C402 1.427 . S
C374 C366 1.424 . S
C374 N371 1.361 . S
C374 C373 1.413 . S
C375 H364 0.931 . S
C375 C373 1.416 . S
C375 C376 1.332 . S
C376 H355 0.929 . S
C376 C372 1.407 . S
C376 C375 1.332 . S
H377 C370 0.930 . S
H378 C401 0.930 . S
H379 C402 0.929 . S
O380 Tb336 2.475 . S
O380 C400 1.230 1_554 S
O381 Tb336 2.387 . S
O381 C392 1.264 . S
O382 Tb347 2.349 . S
O382 C392 1.243 . S
O383 Tb336 2.428 1_556 S
O383 C400 1.256 . S
O384 Tb336 2.308 . S
O384 C399 1.266 . S
O385 Tb347 2.393 . S
O385 C399 1.248 . S
O386 Tb347 2.465 . S
O386 C411 1.264 . S
O387 Tb347 2.387 . S
O387 C403 1.264 . S
O388 Tb336 2.349 . S
O388 C403 1.243 . S
O389 Tb347 2.428 . S
O389 C411 1.256 . S
O390 Tb347 2.308 . S
O390 C410 1.266 . S
O391 Tb336 2.393 1_556 S
O391 C410 1.248 1_556 S
C392 O381 1.264 . S
C392 O382 1.243 . S
C393 C396 1.399 . S
C393 C398 1.383 . S
C393 C400 1.496 . S
C394 C395 1.399 . S
C394 C398 1.389 . S
C395 C394 1.399 . S
C395 C397 1.380 . S
C395 H412 0.929 . S
C396 C393 1.399 . S
C396 C397 1.392 . S
C396 H413 0.929 . S
C397 C395 1.380 . S
C397 C396 1.392 . S
C397 H414 0.929 . S
C398 C393 1.383 . S
C398 C394 1.389 . S
C398 H415 0.931 . S
C399 O384 1.266 . S
C399 O385 1.248 . S
C400 Tb336 2.802 1_556 S
C400 O380 1.230 1_556 S
C400 O383 1.256 . S
C400 C393 1.496 . S
C401 C368 1.457 . S
C401 H378 0.930 . S
C401 C402 1.328 . S
C402 C373 1.427 . S
C402 H379 0.929 . S
C402 C401 1.328 . S
C403 O387 1.264 . S
C403 O388 1.243 . S
C404 C407 1.399 . S
C404 C408 1.383 . S
C404 C411 1.496 . S
C405 C406 1.399 . S
C405 C408 1.389 . S
C406 C405 1.399 . S
C406 C409 1.380 . S
C406 H416 0.929 . S
C407 C404 1.399 . S
C407 C409 1.392 . S
C407 H417 0.929 . S
C408 C404 1.383 . S
C408 C405 1.389 . S
C408 H418 0.931 . S
C409 C406 1.380 . S
C409 C407 1.392 . S
C409 H419 0.929 . S
C410 O390 1.266 . S
C410 O391 1.248 1_554 S
C411 Tb347 2.802 . S
C411 O386 1.264 . S
C411 O389 1.256 . S
C411 C404 1.496 . S
H412 C395 0.929 . S
H413 C396 0.929 . S
H414 C397 0.929 . S
H415 C398 0.931 . S
H416 C406 0.929 . S
H417 C407 0.929 . S
H418 C408 0.931 . S
H419 C409 0.929 . S
Tb420 N449 2.617 1_655 S
Tb420 N455 2.572 . S
Tb420 O464 2.465 . S
Tb420 O465 2.387 1_655 S
Tb420 O467 2.428 . S
Tb420 O468 2.308 . S
Tb420 O472 2.349 . S
Tb420 O475 2.393 1_655 S
Tb420 C484 2.802 . S
C421 N422 1.379 . S
C421 C424 1.416 . S
C421 C428 1.424 . S
N422 C421 1.379 . S
N422 C425 1.334 . S
N422 Tb431 2.617 1_655 S
C423 C425 1.390 . S
C423 C426 1.339 . S
C423 H443 0.930 . S
C424 C421 1.416 . S
C424 C426 1.416 . S
C424 C430 1.448 . S
C425 N422 1.334 . S
C425 C423 1.390 . S
C425 H436 0.930 . S
C426 C423 1.339 . S
C426 C424 1.416 . S
C426 H447 0.930 . S
C427 C428 1.413 . S
C427 C429 1.427 . S
C427 C433 1.416 1_655 S
C428 C421 1.424 . S
C428 C427 1.413 . S
C428 N432 1.361 1_655 S
C429 C427 1.427 . S
C429 C430 1.328 . S
C429 H444 0.929 . S
C430 C424 1.448 . S
C430 C429 1.328 . S
C430 H445 0.930 . S
Tb431 N422 2.617 1_455 S
Tb431 N432 2.572 . S
Tb431 O466 2.349 . S
Tb431 O469 2.393 1_455 S
Tb431 O470 2.465 . S
Tb431 O471 2.387 1_455 S
Tb431 O473 2.428 . S
Tb431 O474 2.308 . S
Tb431 C495 2.802 . S
N432 C428 1.361 1_455 S
N432 Tb431 2.572 . S
N432 C434 1.340 . S
C433 C427 1.416 1_455 S
C433 C435 1.332 . S
C433 H441 0.931 . S
C434 N432 1.340 . S
C434 C435 1.407 . S
C434 H440 0.930 . S
C435 C433 1.332 . S
C435 C434 1.407 . S
C435 H437 0.929 . S
H436 C425 0.930 . S
H437 C435 0.929 . S
H438 C453 0.930 . S
H439 C460 0.929 . S
H440 C434 0.930 . S
H441 C433 0.931 . S
H442 C456 0.930 . S
H443 C423 0.930 . S
H444 C429 0.929 . S
H445 C430 0.930 . S
H446 C451 0.930 . S
H447 C426 0.930 . S
H448 C459 0.931 . S
N449 Tb420 2.617 1_455 S
N449 C450 1.379 . S
N449 C453 1.334 . S
C450 N449 1.379 . S
C450 C452 1.416 . S
C450 C458 1.424 . S
C451 H446 0.930 . S
C451 C453 1.390 . S
C451 C454 1.339 . S
C452 C450 1.416 . S
C452 C454 1.416 . S
C452 C485 1.448 . S
C453 H438 0.930 . S
C453 N449 1.334 . S
C453 C451 1.390 . S
C454 C451 1.339 . S
C454 C452 1.416 . S
C454 H461 0.930 . S
N455 Tb420 2.572 . S
N455 C456 1.340 . S
N455 C458 1.361 1_655 S
C456 H442 0.930 . S
C456 N455 1.340 . S
C456 C460 1.407 . S
C457 C458 1.413 . S
C457 C459 1.416 1_455 S
C457 C486 1.427 . S
C458 C450 1.424 . S
C458 N455 1.361 1_455 S
C458 C457 1.413 . S
C459 H448 0.931 . S
C459 C457 1.416 1_655 S
C459 C460 1.332 . S
C460 H439 0.929 . S
C460 C456 1.407 . S
C460 C459 1.332 . S
H461 C454 0.930 . S
H462 C485 0.930 . S
H463 C486 0.929 . S
O464 Tb420 2.465 . S
O464 C484 1.264 . S
O465 Tb420 2.387 1_455 S
O465 C476 1.264 . S
O466 Tb431 2.349 . S
O466 C476 1.243 . S
O467 Tb420 2.428 . S
O467 C484 1.256 . S
O468 Tb420 2.308 . S
O468 C483 1.266 . S
O469 Tb431 2.393 1_655 S
O469 C483 1.248 . S
O470 Tb431 2.465 . S
O470 C495 1.264 . S
O471 Tb431 2.387 1_655 S
O471 C487 1.264 . S
O472 Tb420 2.349 . S
O472 C487 1.243 . S
O473 Tb431 2.428 . S
O473 C495 1.256 . S
O474 Tb431 2.308 . S
O474 C494 1.266 . S
O475 Tb420 2.393 1_455 S
O475 C494 1.248 . S
C476 O465 1.264 . S
C476 O466 1.243 . S
C477 C480 1.399 . S
C477 C482 1.383 . S
C477 C484 1.496 . S
C478 C479 1.399 . S
C478 C482 1.389 . S
C479 C478 1.399 . S
C479 C481 1.380 . S
C479 H496 0.929 . S
C480 C477 1.399 . S
C480 C481 1.392 . S
C480 H497 0.929 . S
C481 C479 1.380 . S
C481 C480 1.392 . S
C481 H498 0.929 . S
C482 C477 1.383 . S
C482 C478 1.389 . S
C482 H499 0.931 . S
C483 O468 1.266 . S
C483 O469 1.248 . S
C484 Tb420 2.802 . S
C484 O464 1.264 . S
C484 O467 1.256 . S
C484 C477 1.496 . S
C485 C452 1.448 . S
C485 H462 0.930 . S
C485 C486 1.328 . S
C486 C457 1.427 . S
C486 H463 0.929 . S
C486 C485 1.328 . S
C487 O471 1.264 . S
C487 O472 1.243 . S
C488 C491 1.399 . S
C488 C492 1.383 . S
C488 C495 1.496 . S
C489 C490 1.399 . S
C489 C492 1.389 . S
C490 C489 1.399 . S
C490 C493 1.380 . S
C490 H500 0.929 . S
C491 C488 1.399 . S
C491 C493 1.392 . S
C491 H501 0.929 . S
C492 C488 1.383 . S
C492 C489 1.389 . S
C492 H502 0.931 . S
C493 C490 1.380 . S
C493 C491 1.392 . S
C493 H503 0.929 . S
C494 O474 1.266 . S
C494 O475 1.248 . S
C495 Tb431 2.802 . S
C495 O470 1.264 . S
C495 O473 1.256 . S
C495 C488 1.496 . S
H496 C479 0.929 . S
H497 C480 0.929 . S
H498 C481 0.929 . S
H499 C482 0.931 . S
H500 C490 0.929 . S
H501 C491 0.929 . S
H502 C492 0.931 . S
H503 C493 0.929 . S
Tb504 N533 2.617 1_455 S
Tb504 N539 2.572 . S
Tb504 O548 2.465 . S
Tb504 O549 2.387 1_455 S
Tb504 O551 2.428 . S
Tb504 O552 2.308 . S
Tb504 O556 2.349 . S
Tb504 O559 2.393 1_455 S
Tb504 C568 2.802 . S
C505 N506 1.379 . S
C505 C508 1.416 . S
C505 C512 1.424 . S
N506 C505 1.379 . S
N506 C509 1.334 . S
N506 Tb515 2.617 1_455 S
C507 C509 1.390 . S
C507 C510 1.339 . S
C507 H527 0.930 . S
C508 C505 1.416 . S
C508 C510 1.416 . S
C508 C514 1.448 . S
C509 N506 1.334 . S
C509 C507 1.390 . S
C509 H520 0.930 . S
C510 C507 1.339 . S
C510 C508 1.416 . S
C510 H531 0.930 . S
C511 C512 1.413 . S
C511 C513 1.427 . S
C511 C517 1.416 1_455 S
C512 C505 1.424 . S
C512 C511 1.413 . S
C512 N516 1.361 1_455 S
C513 C511 1.427 . S
C513 C514 1.328 . S
C513 H528 0.929 . S
C514 C508 1.448 . S
C514 C513 1.328 . S
C514 H529 0.930 . S
Tb515 N506 2.617 1_655 S
Tb515 N516 2.572 . S
Tb515 O550 2.349 . S
Tb515 O553 2.393 1_655 S
Tb515 O554 2.465 . S
Tb515 O555 2.387 1_655 S
Tb515 O557 2.428 . S
Tb515 O558 2.308 . S
Tb515 C579 2.802 . S
N516 C512 1.361 1_655 S
N516 Tb515 2.572 . S
N516 C518 1.340 . S
C517 C511 1.416 1_655 S
C517 C519 1.332 . S
C517 H525 0.931 . S
C518 N516 1.340 . S
C518 C519 1.407 . S
C518 H524 0.930 . S
C519 C517 1.332 . S
C519 C518 1.407 . S
C519 H521 0.929 . S
H520 C509 0.930 . S
H521 C519 0.929 . S
H522 C537 0.930 . S
H523 C544 0.929 . S
H524 C518 0.930 . S
H525 C517 0.931 . S
H526 C540 0.930 . S
H527 C507 0.930 . S
H528 C513 0.929 . S
H529 C514 0.930 . S
H530 C535 0.930 . S
H531 C510 0.930 . S
H532 C543 0.931 . S
N533 Tb504 2.617 1_655 S
N533 C534 1.379 . S
N533 C537 1.334 . S
C534 N533 1.379 . S
C534 C536 1.416 . S
C534 C542 1.424 . S
C535 H530 0.930 . S
C535 C537 1.390 . S
C535 C538 1.339 . S
C536 C534 1.416 . S
C536 C538 1.416 . S
C536 C569 1.448 . S
C537 H522 0.930 . S
C537 N533 1.334 . S
C537 C535 1.390 . S
C538 C535 1.339 . S
C538 C536 1.416 . S
C538 H545 0.930 . S
N539 Tb504 2.572 . S
N539 C540 1.340 . S
N539 C542 1.361 1_455 S
C540 H526 0.930 . S
C540 N539 1.340 . S
C540 C544 1.407 . S
C541 C542 1.413 . S
C541 C543 1.416 1_655 S
C541 C570 1.427 . S
C542 C534 1.424 . S
C542 N539 1.361 1_655 S
C542 C541 1.413 . S
C543 H532 0.931 . S
C543 C541 1.416 1_455 S
C543 C544 1.332 . S
C544 H523 0.929 . S
C544 C540 1.407 . S
C544 C543 1.332 . S
H545 C538 0.930 . S
H546 C569 0.930 . S
H547 C570 0.929 . S
O548 Tb504 2.465 . S
O548 C568 1.264 . S
O549 Tb504 2.387 1_655 S
O549 C560 1.264 . S
O550 Tb515 2.349 . S
O550 C560 1.243 . S
O551 Tb504 2.428 . S
O551 C568 1.256 . S
O552 Tb504 2.308 . S
O552 C567 1.266 . S
O553 Tb515 2.393 1_455 S
O553 C567 1.248 . S
O554 Tb515 2.465 . S
O554 C579 1.264 . S
O555 Tb515 2.387 1_455 S
O555 C571 1.264 . S
O556 Tb504 2.349 . S
O556 C571 1.243 . S
O557 Tb515 2.428 . S
O557 C579 1.256 . S
O558 Tb515 2.308 . S
O558 C578 1.266 . S
O559 Tb504 2.393 1_655 S
O559 C578 1.248 . S
C560 O549 1.264 . S
C560 O550 1.243 . S
C561 C564 1.399 . S
C561 C566 1.383 . S
C561 C568 1.496 . S
C562 C563 1.399 . S
C562 C566 1.389 . S
C563 C562 1.399 . S
C563 C565 1.380 . S
C563 H580 0.929 . S
C564 C561 1.399 . S
C564 C565 1.392 . S
C564 H581 0.929 . S
C565 C563 1.380 . S
C565 C564 1.392 . S
C565 H582 0.929 . S
C566 C561 1.383 . S
C566 C562 1.389 . S
C566 H583 0.931 . S
C567 O552 1.266 . S
C567 O553 1.248 . S
C568 Tb504 2.802 . S
C568 O548 1.264 . S
C568 O551 1.256 . S
C568 C561 1.496 . S
C569 C536 1.448 . S
C569 H546 0.930 . S
C569 C570 1.328 . S
C570 C541 1.427 . S
C570 H547 0.929 . S
C570 C569 1.328 . S
C571 O555 1.264 . S
C571 O556 1.243 . S
C572 C575 1.399 . S
C572 C576 1.383 . S
C572 C579 1.496 . S
C573 C574 1.399 . S
C573 C576 1.389 . S
C574 C573 1.399 . S
C574 C577 1.380 . S
C574 H584 0.929 . S
C575 C572 1.399 . S
C575 C577 1.392 . S
C575 H585 0.929 . S
C576 C572 1.383 . S
C576 C573 1.389 . S
C576 H586 0.931 . S
C577 C574 1.380 . S
C577 C575 1.392 . S
C577 H587 0.929 . S
C578 O558 1.266 . S
C578 O559 1.248 . S
C579 Tb515 2.802 . S
C579 O554 1.264 . S
C579 O557 1.256 . S
C579 C572 1.496 . S
H580 C563 0.929 . S
H581 C564 0.929 . S
H582 C565 0.929 . S
H583 C566 0.931 . S
H584 C574 0.929 . S
H585 C575 0.929 . S
H586 C576 0.931 . S
H587 C577 0.929 . S
Tb588 N617 2.617 1_545 S
Tb588 N623 2.572 . S
Tb588 O632 2.465 . S
Tb588 O633 2.387 1_545 S
Tb588 O635 2.428 . S
Tb588 O636 2.308 . S
Tb588 O640 2.349 . S
Tb588 O643 2.393 1_545 S
Tb588 C652 2.802 . S
C589 N590 1.379 . S
C589 C592 1.416 . S
C589 C596 1.424 . S
N590 C589 1.379 . S
N590 C593 1.334 . S
N590 Tb599 2.617 1_545 S
C591 C593 1.390 . S
C591 C594 1.339 . S
C591 H611 0.930 . S
C592 C589 1.416 . S
C592 C594 1.416 . S
C592 C598 1.448 . S
C593 N590 1.334 . S
C593 C591 1.390 . S
C593 H604 0.930 . S
C594 C591 1.339 . S
C594 C592 1.416 . S
C594 H615 0.930 . S
C595 C596 1.413 . S
C595 C597 1.427 . S
C595 C601 1.416 1_545 S
C596 C589 1.424 . S
C596 C595 1.413 . S
C596 N600 1.361 1_545 S
C597 C595 1.427 . S
C597 C598 1.328 . S
C597 H612 0.929 . S
C598 C592 1.448 . S
C598 C597 1.328 . S
C598 H613 0.930 . S
Tb599 N590 2.617 1_565 S
Tb599 N600 2.572 . S
Tb599 O634 2.349 . S
Tb599 O637 2.393 1_565 S
Tb599 O638 2.465 . S
Tb599 O639 2.387 1_565 S
Tb599 O641 2.428 . S
Tb599 O642 2.308 . S
Tb599 C663 2.802 . S
N600 C596 1.361 1_565 S
N600 Tb599 2.572 . S
N600 C602 1.340 . S
C601 C595 1.416 1_565 S
C601 C603 1.332 . S
C601 H609 0.931 . S
C602 N600 1.340 . S
C602 C603 1.407 . S
C602 H608 0.930 . S
C603 C601 1.332 . S
C603 C602 1.407 . S
C603 H605 0.929 . S
H604 C593 0.930 . S
H605 C603 0.929 . S
H606 C621 0.930 . S
H607 C628 0.929 . S
H608 C602 0.930 . S
H609 C601 0.931 . S
H610 C624 0.930 . S
H611 C591 0.930 . S
H612 C597 0.929 . S
H613 C598 0.930 . S
H614 C619 0.930 . S
H615 C594 0.930 . S
H616 C627 0.931 . S
N617 Tb588 2.617 1_565 S
N617 C618 1.379 . S
N617 C621 1.334 . S
C618 N617 1.379 . S
C618 C620 1.416 . S
C618 C626 1.424 . S
C619 H614 0.930 . S
C619 C621 1.390 . S
C619 C622 1.339 . S
C620 C618 1.416 . S
C620 C622 1.416 . S
C620 C653 1.448 . S
C621 H606 0.930 . S
C621 N617 1.334 . S
C621 C619 1.390 . S
C622 C619 1.339 . S
C622 C620 1.416 . S
C622 H629 0.930 . S
N623 Tb588 2.572 . S
N623 C624 1.340 . S
N623 C626 1.361 1_545 S
C624 H610 0.930 . S
C624 N623 1.340 . S
C624 C628 1.407 . S
C625 C626 1.413 . S
C625 C627 1.416 1_565 S
C625 C654 1.427 . S
C626 C618 1.424 . S
C626 N623 1.361 1_565 S
C626 C625 1.413 . S
C627 H616 0.931 . S
C627 C625 1.416 1_545 S
C627 C628 1.332 . S
C628 H607 0.929 . S
C628 C624 1.407 . S
C628 C627 1.332 . S
H629 C622 0.930 . S
H630 C653 0.930 . S
H631 C654 0.929 . S
O632 Tb588 2.465 . S
O632 C652 1.264 . S
O633 Tb588 2.387 1_565 S
O633 C644 1.264 . S
O634 Tb599 2.349 . S
O634 C644 1.243 . S
O635 Tb588 2.428 . S
O635 C652 1.256 . S
O636 Tb588 2.308 . S
O636 C651 1.266 . S
O637 Tb599 2.393 1_545 S
O637 C651 1.248 . S
O638 Tb599 2.465 . S
O638 C663 1.264 . S
O639 Tb599 2.387 1_545 S
O639 C655 1.264 . S
O640 Tb588 2.349 . S
O640 C655 1.243 . S
O641 Tb599 2.428 . S
O641 C663 1.256 . S
O642 Tb599 2.308 . S
O642 C662 1.266 . S
O643 Tb588 2.393 1_565 S
O643 C662 1.248 . S
C644 O633 1.264 . S
C644 O634 1.243 . S
C645 C648 1.399 . S
C645 C650 1.383 . S
C645 C652 1.496 . S
C646 C647 1.399 . S
C646 C650 1.389 . S
C647 C646 1.399 . S
C647 C649 1.380 . S
C647 H664 0.929 . S
C648 C645 1.399 . S
C648 C649 1.392 . S
C648 H665 0.929 . S
C649 C647 1.380 . S
C649 C648 1.392 . S
C649 H666 0.929 . S
C650 C645 1.383 . S
C650 C646 1.389 . S
C650 H667 0.931 . S
C651 O636 1.266 . S
C651 O637 1.248 . S
C652 Tb588 2.802 . S
C652 O632 1.264 . S
C652 O635 1.256 . S
C652 C645 1.496 . S
C653 C620 1.448 . S
C653 H630 0.930 . S
C653 C654 1.328 . S
C654 C625 1.427 . S
C654 H631 0.929 . S
C654 C653 1.328 . S
C655 O639 1.264 . S
C655 O640 1.243 . S
C656 C659 1.399 . S
C656 C660 1.383 . S
C656 C663 1.496 . S
C657 C658 1.399 . S
C657 C660 1.389 . S
C658 C657 1.399 . S
C658 C661 1.380 . S
C658 H668 0.929 . S
C659 C656 1.399 . S
C659 C661 1.392 . S
C659 H669 0.929 . S
C660 C656 1.383 . S
C660 C657 1.389 . S
C660 H670 0.931 . S
C661 C658 1.380 . S
C661 C659 1.392 . S
C661 H671 0.929 . S
C662 O642 1.266 . S
C662 O643 1.248 . S
C663 Tb599 2.802 . S
C663 O638 1.264 . S
C663 O641 1.256 . S
C663 C656 1.496 . S
H664 C647 0.929 . S
H665 C648 0.929 . S
H666 C649 0.929 . S
H667 C650 0.931 . S
H668 C658 0.929 . S
H669 C659 0.929 . S
H670 C660 0.931 . S
H671 C661 0.929 . S
Tb672 N701 2.617 . S
Tb672 N707 2.572 . S
Tb672 O716 2.465 . S
Tb672 O717 2.387 . S
Tb672 O719 2.428 . S
Tb672 O720 2.308 . S
Tb672 O724 2.349 . S
Tb672 O727 2.393 . S
Tb672 C736 2.802 . S
C673 N674 1.379 . S
C673 C676 1.416 . S
C673 C680 1.424 . S
N674 C673 1.379 . S
N674 C677 1.334 . S
N674 Tb683 2.617 . S
C675 C677 1.390 . S
C675 C678 1.339 . S
C675 H695 0.930 . S
C676 C673 1.416 . S
C676 C678 1.416 . S
C676 C682 1.448 . S
C677 N674 1.334 . S
C677 C675 1.390 . S
C677 H688 0.930 . S
C678 C675 1.339 . S
C678 C676 1.416 . S
C678 H699 0.930 . S
C679 C680 1.413 . S
C679 C681 1.427 . S
C679 C685 1.416 . S
C680 C673 1.424 . S
C680 C679 1.413 . S
C680 N684 1.361 . S
C681 C679 1.427 . S
C681 C682 1.328 . S
C681 H696 0.929 . S
C682 C676 1.448 . S
C682 C681 1.328 . S
C682 H697 0.930 . S
Tb683 N674 2.617 . S
Tb683 N684 2.572 . S
Tb683 O718 2.349 . S
Tb683 O721 2.393 . S
Tb683 O722 2.465 . S
Tb683 O723 2.387 . S
Tb683 O725 2.428 . S
Tb683 O726 2.308 . S
Tb683 C747 2.802 . S
N684 C680 1.361 . S
N684 Tb683 2.572 . S
N684 C686 1.340 . S
C685 C679 1.416 . S
C685 C687 1.332 . S
C685 H693 0.931 . S
C686 N684 1.340 . S
C686 C687 1.407 . S
C686 H692 0.930 . S
C687 C685 1.332 . S
C687 C686 1.407 . S
C687 H689 0.929 . S
H688 C677 0.930 . S
H689 C687 0.929 . S
H690 C705 0.930 . S
H691 C712 0.929 . S
H692 C686 0.930 . S
H693 C685 0.931 . S
H694 C708 0.930 . S
H695 C675 0.930 . S
H696 C681 0.929 . S
H697 C682 0.930 . S
H698 C703 0.930 . S
H699 C678 0.930 . S
H700 C711 0.931 . S
N701 Tb672 2.617 . S
N701 C702 1.379 . S
N701 C705 1.334 . S
C702 N701 1.379 . S
C702 C704 1.416 . S
C702 C710 1.424 . S
C703 H698 0.930 . S
C703 C705 1.390 . S
C703 C706 1.339 . S
C704 C702 1.416 . S
C704 C706 1.416 . S
C704 C737 1.448 . S
C705 H690 0.930 . S
C705 N701 1.334 . S
C705 C703 1.390 . S
C706 C703 1.339 . S
C706 C704 1.416 . S
C706 H713 0.930 . S
N707 Tb672 2.572 . S
N707 C708 1.340 . S
N707 C710 1.361 . S
C708 H694 0.930 . S
C708 N707 1.340 . S
C708 C712 1.407 . S
C709 C710 1.413 . S
C709 C711 1.416 . S
C709 C738 1.427 . S
C710 C702 1.424 . S
C710 N707 1.361 . S
C710 C709 1.413 . S
C711 H700 0.931 . S
C711 C709 1.416 . S
C711 C712 1.332 . S
C712 H691 0.929 . S
C712 C708 1.407 . S
C712 C711 1.332 . S
H713 C706 0.930 . S
H714 C737 0.930 . S
H715 C738 0.929 . S
O716 Tb672 2.465 . S
O716 C736 1.264 . S
O717 Tb672 2.387 . S
O717 C728 1.264 . S
O718 Tb683 2.349 . S
O718 C728 1.243 . S
O719 Tb672 2.428 . S
O719 C736 1.256 . S
O720 Tb672 2.308 . S
O720 C735 1.266 . S
O721 Tb683 2.393 . S
O721 C735 1.248 . S
O722 Tb683 2.465 . S
O722 C747 1.264 . S
O723 Tb683 2.387 . S
O723 C739 1.264 . S
O724 Tb672 2.349 . S
O724 C739 1.243 . S
O725 Tb683 2.428 . S
O725 C747 1.256 . S
O726 Tb683 2.308 . S
O726 C746 1.266 . S
O727 Tb672 2.393 . S
O727 C746 1.248 . S
C728 O717 1.264 . S
C728 O718 1.243 . S
C729 C732 1.399 . S
C729 C734 1.383 . S
C729 C736 1.496 . S
C730 C731 1.399 . S
C730 C734 1.389 . S
C731 C730 1.399 . S
C731 C733 1.380 . S
C731 H748 0.929 . S
C732 C729 1.399 . S
C732 C733 1.392 . S
C732 H749 0.929 . S
C733 C731 1.380 . S
C733 C732 1.392 . S
C733 H750 0.929 . S
C734 C729 1.383 . S
C734 C730 1.389 . S
C734 H751 0.931 . S
C735 O720 1.266 . S
C735 O721 1.248 . S
C736 Tb672 2.802 . S
C736 O716 1.264 . S
C736 O719 1.256 . S
C736 C729 1.496 . S
C737 C704 1.448 . S
C737 H714 0.930 . S
C737 C738 1.328 . S
C738 C709 1.427 . S
C738 H715 0.929 . S
C738 C737 1.328 . S
C739 O723 1.264 . S
C739 O724 1.243 . S
C740 C743 1.399 . S
C740 C744 1.383 . S
C740 C747 1.496 . S
C741 C742 1.399 . S
C741 C744 1.389 . S
C742 C741 1.399 . S
C742 C745 1.380 . S
C742 H752 0.929 . S
C743 C740 1.399 . S
C743 C745 1.392 . S
C743 H753 0.929 . S
C744 C740 1.383 . S
C744 C741 1.389 . S
C744 H754 0.931 . S
C745 C742 1.380 . S
C745 C743 1.392 . S
C745 H755 0.929 . S
C746 O726 1.266 . S
C746 O727 1.248 . S
C747 Tb683 2.802 . S
C747 O722 1.264 . S
C747 O725 1.256 . S
C747 C740 1.496 . S
H748 C731 0.929 . S
H749 C732 0.929 . S
H750 C733 0.929 . S
H751 C734 0.931 . S
H752 C742 0.929 . S
H753 C743 0.929 . S
H754 C744 0.931 . S
H755 C745 0.929 . S
Tb756 N785 2.617 1_656 S
Tb756 N791 2.572 . S
Tb756 O800 2.462 1_556 S
Tb756 O801 2.387 1_655 S
Tb756 O803 2.428 1_556 S
Tb756 O804 2.308 . S
Tb756 O808 2.364 . S
Tb756 O811 2.393 1_656 S
Tb756 C820 2.802 1_556 S
C757 N758 1.379 . S
C757 C760 1.416 . S
C757 C764 1.424 . S
N758 C757 1.379 . S
N758 C761 1.334 . S
N758 Tb767 2.617 1_655 S
C759 C761 1.390 . S
C759 C762 1.339 . S
C759 H779 0.930 . S
C760 C757 1.416 . S
C760 C762 1.416 . S
C760 C766 1.448 . S
C761 N758 1.334 . S
C761 C759 1.390 . S
C761 H772 0.930 . S
C762 C759 1.339 . S
C762 C760 1.416 . S
C762 H783 0.930 . S
C763 C764 1.413 . S
C763 C765 1.427 . S
C763 C769 1.416 1_655 S
C764 C757 1.424 . S
C764 C763 1.413 . S
C764 N768 1.361 1_655 S
C765 C763 1.427 . S
C765 C766 1.328 . S
C765 H780 0.929 . S
C766 C760 1.448 . S
C766 C765 1.328 . S
C766 H781 0.930 . S
Tb767 N758 2.617 1_455 S
Tb767 N768 2.572 . S
Tb767 O802 2.349 . S
Tb767 O805 2.393 1_455 S
Tb767 O806 2.465 . S
Tb767 O807 2.387 1_455 S
Tb767 O809 2.428 . S
Tb767 O810 2.308 . S
Tb767 C831 2.802 . S
N768 C764 1.361 1_455 S
N768 Tb767 2.572 . S
N768 C770 1.340 . S
C769 C763 1.416 1_455 S
C769 C771 1.332 . S
C769 H777 0.931 . S
C770 N768 1.340 . S
C770 C771 1.407 . S
C770 H776 0.930 . S
C771 C769 1.332 . S
C771 C770 1.407 . S
C771 H773 0.929 . S
H772 C761 0.930 . S
H773 C771 0.929 . S
H774 C789 0.930 . S
H775 C796 0.929 . S
H776 C770 0.930 . S
H777 C769 0.931 . S
H778 C792 0.930 . S
H779 C759 0.930 . S
H780 C765 0.929 . S
H781 C766 0.930 . S
H782 C787 0.930 . S
H783 C762 0.930 . S
H784 C795 0.931 . S
N785 Tb756 2.617 1_454 S
N785 C786 1.379 1_554 S
N785 C789 1.334 . S
C786 N785 1.379 1_556 S
C786 C788 1.423 . S
C786 C794 1.424 . S
C787 H782 0.930 . S
C787 C789 1.390 . S
C787 C790 1.339 . S
C788 C786 1.423 . S
C788 C790 1.397 1_556 S
C788 C821 1.462 . S
C789 H774 0.930 . S
C789 N785 1.334 . S
C789 C787 1.390 . S
C790 C787 1.339 . S
C790 C788 1.397 1_554 S
C790 H797 0.930 . S
N791 Tb756 2.572 . S
N791 C792 1.340 . S
N791 C794 1.361 1_655 S
C792 H778 0.930 . S
C792 N791 1.340 . S
C792 C796 1.407 . S
C793 C794 1.413 . S
C793 C795 1.416 1_455 S
C793 C822 1.427 . S
C794 C786 1.424 . S
C794 N791 1.361 1_455 S
C794 C793 1.413 . S
C795 H784 0.931 . S
C795 C793 1.416 1_655 S
C795 C796 1.332 . S
C796 H775 0.929 . S
C796 C792 1.407 . S
C796 C795 1.332 . S
H797 C790 0.930 . S
H798 C821 0.930 . S
H799 C822 0.929 . S
O800 Tb756 2.462 1_554 S
O800 C820 1.273 . S
O801 Tb756 2.387 1_455 S
O801 C812 1.264 . S
O802 Tb767 2.349 . S
O802 C812 1.243 . S
O803 Tb756 2.428 1_554 S
O803 C820 1.256 . S
O804 Tb756 2.308 . S
O804 C819 1.266 . S
O805 Tb767 2.393 1_655 S
O805 C819 1.248 . S
O806 Tb767 2.465 . S
O806 C831 1.264 . S
O807 Tb767 2.387 1_655 S
O807 C823 1.264 . S
O808 Tb756 2.364 . S
O808 C823 1.260 . S
O809 Tb767 2.428 . S
O809 C831 1.256 . S
O810 Tb767 2.308 . S
O810 C830 1.266 . S
O811 Tb756 2.393 1_454 S
O811 C830 1.248 1_554 S
C812 O801 1.264 . S
C812 O802 1.243 . S
C813 C816 1.399 . S
C813 C818 1.383 . S
C813 C820 1.496 . S
C814 C815 1.399 . S
C814 C818 1.389 . S
C815 C814 1.399 . S
C815 C817 1.380 . S
C815 H832 0.929 . S
C816 C813 1.399 . S
C816 C817 1.392 . S
C816 H833 0.929 . S
C817 C815 1.380 . S
C817 C816 1.392 . S
C817 H834 0.929 . S
C818 C813 1.383 . S
C818 C814 1.389 . S
C818 H835 0.931 . S
C819 O804 1.266 . S
C819 O805 1.248 . S
C820 Tb756 2.802 1_554 S
C820 O800 1.273 . S
C820 O803 1.256 . S
C820 C813 1.496 . S
C821 C788 1.462 . S
C821 H798 0.930 . S
C821 C822 1.328 . S
C822 C793 1.427 . S
C822 H799 0.929 . S
C822 C821 1.328 . S
C823 O807 1.264 . S
C823 O808 1.260 . S
C824 C827 1.399 . S
C824 C828 1.383 . S
C824 C831 1.496 . S
C825 C826 1.399 . S
C825 C828 1.389 . S
C826 C825 1.399 . S
C826 C829 1.380 . S
C826 H836 0.929 . S
C827 C824 1.399 . S
C827 C829 1.392 . S
C827 H837 0.929 . S
C828 C824 1.383 . S
C828 C825 1.389 . S
C828 H838 0.931 . S
C829 C826 1.380 . S
C829 C827 1.392 . S
C829 H839 0.929 . S
C830 O810 1.266 . S
C830 O811 1.248 1_556 S
C831 Tb767 2.802 . S
C831 O806 1.264 . S
C831 O809 1.256 . S
C831 C824 1.496 . S
H832 C815 0.929 . S
H833 C816 0.929 . S
H834 C817 0.929 . S
H835 C818 0.931 . S
H836 C826 0.929 . S
H837 C827 0.929 . S
H838 C828 0.931 . S
H839 C829 0.929 . S
Tb840 N869 2.617 1_565 S
Tb840 N875 2.572 . S
Tb840 O884 2.465 . S
Tb840 O885 2.387 1_565 S
Tb840 O887 2.428 . S
Tb840 O888 2.308 . S
Tb840 O892 2.349 . S
Tb840 O895 2.393 1_565 S
Tb840 C904 2.802 . S
C841 N842 1.379 . S
C841 C844 1.416 . S
C841 C848 1.424 . S
N842 C841 1.379 . S
N842 C845 1.334 . S
N842 Tb851 2.617 1_565 S
C843 C845 1.390 . S
C843 C846 1.339 . S
C843 H863 0.930 . S
C844 C841 1.416 . S
C844 C846 1.416 . S
C844 C850 1.448 . S
C845 N842 1.334 . S
C845 C843 1.390 . S
C845 H856 0.930 . S
C846 C843 1.339 . S
C846 C844 1.416 . S
C846 H867 0.930 . S
C847 C848 1.413 . S
C847 C849 1.427 . S
C847 C853 1.416 1_565 S
C848 C841 1.424 . S
C848 C847 1.413 . S
C848 N852 1.361 1_565 S
C849 C847 1.427 . S
C849 C850 1.328 . S
C849 H864 0.929 . S
C850 C844 1.448 . S
C850 C849 1.328 . S
C850 H865 0.930 . S
Tb851 N842 2.617 1_545 S
Tb851 N852 2.572 . S
Tb851 O886 2.349 . S
Tb851 O889 2.393 1_545 S
Tb851 O890 2.465 . S
Tb851 O891 2.387 1_545 S
Tb851 O893 2.428 . S
Tb851 O894 2.308 . S
Tb851 C915 2.802 . S
N852 C848 1.361 1_545 S
N852 Tb851 2.572 . S
N852 C854 1.340 . S
C853 C847 1.416 1_545 S
C853 C855 1.332 . S
C853 H861 0.931 . S
C854 N852 1.340 . S
C854 C855 1.407 . S
C854 H860 0.930 . S
C855 C853 1.332 . S
C855 C854 1.407 . S
C855 H857 0.929 . S
H856 C845 0.930 . S
H857 C855 0.929 . S
H858 C873 0.930 . S
H859 C880 0.929 . S
H860 C854 0.930 . S
H861 C853 0.931 . S
H862 C876 0.930 . S
H863 C843 0.930 . S
H864 C849 0.929 . S
H865 C850 0.930 . S
H866 C871 0.930 . S
H867 C846 0.930 . S
H868 C879 0.931 . S
N869 Tb840 2.617 1_545 S
N869 C870 1.379 . S
N869 C873 1.334 . S
C870 N869 1.379 . S
C870 C872 1.416 . S
C870 C878 1.424 . S
C871 H866 0.930 . S
C871 C873 1.390 . S
C871 C874 1.339 . S
C872 C870 1.416 . S
C872 C874 1.416 . S
C872 C905 1.448 . S
C873 H858 0.930 . S
C873 N869 1.334 . S
C873 C871 1.390 . S
C874 C871 1.339 . S
C874 C872 1.416 . S
C874 H881 0.930 . S
N875 Tb840 2.572 . S
N875 C876 1.340 . S
N875 C878 1.361 1_565 S
C876 H862 0.930 . S
C876 N875 1.340 . S
C876 C880 1.407 . S
C877 C878 1.413 . S
C877 C879 1.416 1_545 S
C877 C906 1.427 . S
C878 C870 1.424 . S
C878 N875 1.361 1_545 S
C878 C877 1.413 . S
C879 H868 0.931 . S
C879 C877 1.416 1_565 S
C879 C880 1.332 . S
C880 H859 0.929 . S
C880 C876 1.407 . S
C880 C879 1.332 . S
H881 C874 0.930 . S
H882 C905 0.930 . S
H883 C906 0.929 . S
O884 Tb840 2.465 . S
O884 C904 1.264 . S
O885 Tb840 2.387 1_545 S
O885 C896 1.264 . S
O886 Tb851 2.349 . S
O886 C896 1.243 . S
O887 Tb840 2.428 . S
O887 C904 1.256 . S
O888 Tb840 2.308 . S
O888 C903 1.266 . S
O889 Tb851 2.393 1_565 S
O889 C903 1.248 . S
O890 Tb851 2.465 . S
O890 C915 1.264 . S
O891 Tb851 2.387 1_565 S
O891 C907 1.264 . S
O892 Tb840 2.349 . S
O892 C907 1.243 . S
O893 Tb851 2.428 . S
O893 C915 1.256 . S
O894 Tb851 2.308 . S
O894 C914 1.266 . S
O895 Tb840 2.393 1_545 S
O895 C914 1.248 . S
C896 O885 1.264 . S
C896 O886 1.243 . S
C897 C900 1.399 . S
C897 C902 1.383 . S
C897 C904 1.496 . S
C898 C899 1.399 . S
C898 C902 1.389 . S
C899 C898 1.399 . S
C899 C901 1.380 . S
C899 H916 0.929 . S
C900 C897 1.399 . S
C900 C901 1.392 . S
C900 H917 0.929 . S
C901 C899 1.380 . S
C901 C900 1.392 . S
C901 H918 0.929 . S
C902 C897 1.383 . S
C902 C898 1.389 . S
C902 H919 0.931 . S
C903 O888 1.266 . S
C903 O889 1.248 . S
C904 Tb840 2.802 . S
C904 O884 1.264 . S
C904 O887 1.256 . S
C904 C897 1.496 . S
C905 C872 1.448 . S
C905 H882 0.930 . S
C905 C906 1.328 . S
C906 C877 1.427 . S
C906 H883 0.929 . S
C906 C905 1.328 . S
C907 O891 1.264 . S
C907 O892 1.243 . S
C908 C911 1.399 . S
C908 C912 1.383 . S
C908 C915 1.496 . S
C909 C910 1.399 . S
C909 C912 1.389 . S
C910 C909 1.399 . S
C910 C913 1.380 . S
C910 H920 0.929 . S
C911 C908 1.399 . S
C911 C913 1.392 . S
C911 H921 0.929 . S
C912 C908 1.383 . S
C912 C909 1.389 . S
C912 H922 0.931 . S
C913 C910 1.380 . S
C913 C911 1.392 . S
C913 H923 0.929 . S
C914 O894 1.266 . S
C914 O895 1.248 . S
C915 Tb851 2.802 . S
C915 O890 1.264 . S
C915 O893 1.256 . S
C915 C908 1.496 . S
H916 C899 0.929 . S
H917 C900 0.929 . S
H918 C901 0.929 . S
H919 C902 0.931 . S
H920 C910 0.929 . S
H921 C911 0.929 . S
H922 C912 0.931 . S
H923 C913 0.929 . S
Tb924 N953 2.617 . S
Tb924 N959 2.572 . S
Tb924 O968 2.465 . S
Tb924 O969 2.387 . S
Tb924 O971 2.428 . S
Tb924 O972 2.308 . S
Tb924 O976 2.349 . S
Tb924 O979 2.393 . S
Tb924 C988 2.802 . S
C925 N926 1.379 . S
C925 C928 1.416 . S
C925 C932 1.424 . S
N926 C925 1.379 . S
N926 C929 1.334 . S
N926 Tb935 2.617 . S
C927 C929 1.390 . S
C927 C930 1.339 . S
C927 H947 0.930 . S
C928 C925 1.416 . S
C928 C930 1.416 . S
C928 C934 1.448 . S
C929 N926 1.334 . S
C929 C927 1.390 . S
C929 H940 0.930 . S
C930 C927 1.339 . S
C930 C928 1.416 . S
C930 H951 0.930 . S
C931 C932 1.413 . S
C931 C933 1.427 . S
C931 C937 1.416 . S
C932 C925 1.424 . S
C932 C931 1.413 . S
C932 N936 1.361 . S
C933 C931 1.427 . S
C933 C934 1.328 . S
C933 H948 0.929 . S
C934 C928 1.448 . S
C934 C933 1.328 . S
C934 H949 0.930 . S
Tb935 N926 2.617 . S
Tb935 N936 2.572 . S
Tb935 O970 2.349 . S
Tb935 O973 2.393 . S
Tb935 O974 2.465 . S
Tb935 O975 2.387 . S
Tb935 O977 2.428 . S
Tb935 O978 2.308 . S
Tb935 C999 2.802 . S
N936 C932 1.361 . S
N936 Tb935 2.572 . S
N936 C938 1.340 . S
C937 C931 1.416 . S
C937 C939 1.332 . S
C937 H945 0.931 . S
C938 N936 1.340 . S
C938 C939 1.407 . S
C938 H944 0.930 . S
C939 C937 1.332 . S
C939 C938 1.407 . S
C939 H941 0.929 . S
H940 C929 0.930 . S
H941 C939 0.929 . S
H942 C957 0.930 . S
H943 C964 0.929 . S
H944 C938 0.930 . S
H945 C937 0.931 . S
H946 C960 0.930 . S
H947 C927 0.930 . S
H948 C933 0.929 . S
H949 C934 0.930 . S
H950 C955 0.930 . S
H951 C930 0.930 . S
H952 C963 0.931 . S
N953 Tb924 2.617 . S
N953 C954 1.379 . S
N953 C957 1.334 . S
C954 N953 1.379 . S
C954 C956 1.416 . S
C954 C962 1.424 . S
C955 H950 0.930 . S
C955 C957 1.390 . S
C955 C958 1.339 . S
C956 C954 1.416 . S
C956 C958 1.416 . S
C956 C989 1.448 . S
C957 H942 0.930 . S
C957 N953 1.334 . S
C957 C955 1.390 . S
C958 C955 1.339 . S
C958 C956 1.416 . S
C958 H965 0.930 . S
N959 Tb924 2.572 . S
N959 C960 1.340 . S
N959 C962 1.361 . S
C960 H946 0.930 . S
C960 N959 1.340 . S
C960 C964 1.407 . S
C961 C962 1.413 . S
C961 C963 1.416 . S
C961 C990 1.427 . S
C962 C954 1.424 . S
C962 N959 1.361 . S
C962 C961 1.413 . S
C963 H952 0.931 . S
C963 C961 1.416 . S
C963 C964 1.332 . S
C964 H943 0.929 . S
C964 C960 1.407 . S
C964 C963 1.332 . S
H965 C958 0.930 . S
H966 C989 0.930 . S
H967 C990 0.929 . S
O968 Tb924 2.465 . S
O968 C988 1.264 . S
O969 Tb924 2.387 . S
O969 C980 1.264 . S
O970 Tb935 2.349 . S
O970 C980 1.243 . S
O971 Tb924 2.428 . S
O971 C988 1.256 . S
O972 Tb924 2.308 . S
O972 C987 1.266 . S
O973 Tb935 2.393 . S
O973 C987 1.248 . S
O974 Tb935 2.465 . S
O974 C999 1.264 . S
O975 Tb935 2.387 . S
O975 C991 1.264 . S
O976 Tb924 2.349 . S
O976 C991 1.243 . S
O977 Tb935 2.428 . S
O977 C999 1.256 . S
O978 Tb935 2.308 . S
O978 C998 1.266 . S
O979 Tb924 2.393 . S
O979 C998 1.248 . S
C980 O969 1.264 . S
C980 O970 1.243 . S
C981 C984 1.399 . S
C981 C986 1.383 . S
C981 C988 1.496 . S
C982 C983 1.399 . S
C982 C986 1.389 . S
C983 C982 1.399 . S
C983 C985 1.380 . S
C983 H1000 0.929 . S
C984 C981 1.399 . S
C984 C985 1.392 . S
C984 H1001 0.929 . S
C985 C983 1.380 . S
C985 C984 1.392 . S
C985 H1002 0.929 . S
C986 C981 1.383 . S
C986 C982 1.389 . S
C986 H1003 0.931 . S
C987 O972 1.266 . S
C987 O973 1.248 . S
C988 Tb924 2.802 . S
C988 O968 1.264 . S
C988 O971 1.256 . S
C988 C981 1.496 . S
C989 C956 1.448 . S
C989 H966 0.930 . S
C989 C990 1.328 . S
C990 C961 1.427 . S
C990 H967 0.929 . S
C990 C989 1.328 . S
C991 O975 1.264 . S
C991 O976 1.243 . S
C992 C995 1.399 . S
C992 C996 1.383 . S
C992 C999 1.496 . S
C993 C994 1.399 . S
C993 C996 1.389 . S
C994 C993 1.399 . S
C994 C997 1.380 . S
C994 H1004 0.929 . S
C995 C992 1.399 . S
C995 C997 1.392 . S
C995 H1005 0.929 . S
C996 C992 1.383 . S
C996 C993 1.389 . S
C996 H1006 0.931 . S
C997 C994 1.380 . S
C997 C995 1.392 . S
C997 H1007 0.929 . S
C998 O978 1.266 . S
C998 O979 1.248 . S
C999 Tb935 2.802 . S
C999 O974 1.264 . S
C999 O977 1.256 . S
C999 C992 1.496 . S
H1000 C983 0.929 . S
H1001 C984 0.929 . S
H1002 C985 0.929 . S
H1003 C986 0.931 . S
H1004 C994 0.929 . S
H1005 C995 0.929 . S
H1006 C996 0.931 . S
H1007 C997 0.929 . S
C1008 C1009 1.363 . S
C1008 C1014 1.379 . S
C1008 N1016 1.356 . S
C1009 C1008 1.363 . S
C1009 C1015 1.363 . S
C1010 C1011 1.363 . S
C1010 C1015 1.379 . S
C1010 N1017 1.356 . S
C1011 C1010 1.363 . S
C1011 C1014 1.363 . S
N1012 C1014 1.356 . S
N1012 H1024 0.984 . S
N1012 H1025 0.985 . S
N1013 C1015 1.356 . S
N1013 H1018 0.984 . S
N1013 H1019 0.985 1_455 S
C1014 C1008 1.379 . S
C1014 C1011 1.363 . S
C1014 N1012 1.356 . S
C1015 C1009 1.363 . S
C1015 C1010 1.379 . S
C1015 N1013 1.356 . S
N1016 C1008 1.356 . S
N1016 H1022 0.984 . S
N1016 H1023 0.984 . S
N1017 C1010 1.356 . S
N1017 H1020 0.984 . S
N1017 H1021 0.985 1_455 S
H1018 N1013 0.984 . S
H1019 N1013 0.985 1_655 S
H1020 N1017 0.984 . S
H1021 N1017 0.985 1_655 S
H1022 N1016 0.984 . S
H1023 N1016 0.984 . S
H1024 N1012 0.984 . S
H1025 N1012 0.985 . S
C1026 C1027 1.363 . S
C1026 C1032 1.379 . S
C1026 N1034 1.356 . S
C1027 C1026 1.363 . S
C1027 C1033 1.363 . S
C1028 C1029 1.363 . S
C1028 C1033 1.379 . S
C1028 N1035 1.366 . S
C1029 C1028 1.363 . S
C1029 C1032 1.363 . S
N1030 C1032 1.356 . S
N1030 H1042 0.984 . S
N1030 H1043 0.985 . S
N1031 C1033 1.356 1_565 S
N1031 H1036 0.984 1_565 S
N1031 H1037 0.985 . S
C1032 C1026 1.379 . S
C1032 C1029 1.363 . S
C1032 N1030 1.356 . S
C1033 C1027 1.363 . S
C1033 C1028 1.379 . S
C1033 N1031 1.356 1_545 S
N1034 C1026 1.356 . S
N1034 H1040 0.984 . S
N1034 H1041 0.984 . S
N1035 C1028 1.366 . S
N1035 H1038 0.992 . S
N1035 H1039 0.968 1_545 S
H1036 N1031 0.984 1_545 S
H1037 N1031 0.985 . S
H1038 N1035 0.992 . S
H1039 N1035 0.968 1_565 S
H1040 N1034 0.984 . S
H1041 N1034 0.984 . S
H1042 N1030 0.984 . S
H1043 N1030 0.985 . S
C1044 C1045 1.363 . S
C1044 C1050 1.379 . S
C1044 N1052 1.356 . S
C1045 C1044 1.363 . S
C1045 C1051 1.363 . S
C1046 C1047 1.363 . S
C1046 C1051 1.379 . S
C1046 N1053 1.356 . S
C1047 C1046 1.363 . S
C1047 C1050 1.363 . S
N1048 C1050 1.356 . S
N1048 H1060 0.984 . S
N1048 H1061 0.985 . S
N1049 C1051 1.356 . S
N1049 H1054 0.984 . S
N1049 H1055 0.985 . S
C1050 C1044 1.379 . S
C1050 C1047 1.363 . S
C1050 N1048 1.356 . S
C1051 C1045 1.363 . S
C1051 C1046 1.379 . S
C1051 N1049 1.356 . S
N1052 C1044 1.356 . S
N1052 H1058 0.984 . S
N1052 H1059 0.984 . S
N1053 C1046 1.356 . S
N1053 H1056 0.984 . S
N1053 H1057 0.985 . S
H1054 N1049 0.984 . S
H1055 N1049 0.985 . S
H1056 N1053 0.984 . S
H1057 N1053 0.985 . S
H1058 N1052 0.984 . S
H1059 N1052 0.984 . S
H1060 N1048 0.984 . S
H1061 N1048 0.985 . S
C1062 C1063 1.363 . S
C1062 C1068 1.379 . S
C1062 N1070 1.356 . S
C1063 C1062 1.363 . S
C1063 C1069 1.363 . S
C1064 C1065 1.363 . S
C1064 C1069 1.379 . S
C1064 N1071 1.356 . S
C1065 C1064 1.363 . S
C1065 C1068 1.363 . S
N1066 C1068 1.356 . S
N1066 H1078 0.984 1_655 S
N1066 H1079 0.985 . S
N1067 C1069 1.356 . S
N1067 H1072 0.984 . S
N1067 H1073 0.985 . S
C1068 C1062 1.379 . S
C1068 C1065 1.363 . S
C1068 N1066 1.356 . S
C1069 C1063 1.363 . S
C1069 C1064 1.379 . S
C1069 N1067 1.356 . S
N1070 C1062 1.356 . S
N1070 H1076 0.984 1_655 S
N1070 H1077 0.984 . S
N1071 C1064 1.356 . S
N1071 H1074 0.984 . S
N1071 H1075 0.985 . S
H1072 N1067 0.984 . S
H1073 N1067 0.985 . S
H1074 N1071 0.984 . S
H1075 N1071 0.985 . S
H1076 N1070 0.984 1_455 S
H1077 N1070 0.984 . S
H1078 N1066 0.984 1_455 S
H1079 N1066 0.985 . S
C1080 C1081 1.363 . S
C1080 C1086 1.379 . S
C1080 N1088 1.356 . S
C1081 C1080 1.363 . S
C1081 C1087 1.363 . S
C1082 C1083 1.363 . S
C1082 C1087 1.379 . S
C1082 N1089 1.356 . S
C1083 C1082 1.363 . S
C1083 C1086 1.363 . S
N1084 C1086 1.356 1_545 S
N1084 H1096 0.984 . S
N1084 H1097 0.985 1_545 S
N1085 C1087 1.356 . S
N1085 H1090 0.984 . S
N1085 H1091 0.985 . S
C1086 C1080 1.379 . S
C1086 C1083 1.363 . S
C1086 N1084 1.356 1_565 S
C1087 C1081 1.363 . S
C1087 C1082 1.379 . S
C1087 N1085 1.356 . S
N1088 C1080 1.356 . S
N1088 H1094 0.984 1_565 S
N1088 H1095 0.984 . S
N1089 C1082 1.356 . S
N1089 H1092 0.984 . S
N1089 H1093 0.985 . S
H1090 N1085 0.984 . S
H1091 N1085 0.985 . S
H1092 N1089 0.984 . S
H1093 N1089 0.985 . S
H1094 N1088 0.984 1_545 S
H1095 N1088 0.984 . S
H1096 N1084 0.984 . S
H1097 N1084 0.985 1_565 S
C1098 C1099 1.363 . S
C1098 C1104 1.379 . S
C1098 N1106 1.356 . S
C1099 C1098 1.363 . S
C1099 C1105 1.363 . S
C1100 C1101 1.363 . S
C1100 C1105 1.379 . S
C1100 N1107 1.356 . S
C1101 C1100 1.363 . S
C1101 C1104 1.363 . S
N1102 C1104 1.356 . S
N1102 H1114 0.984 . S
N1102 H1115 0.985 . S
N1103 C1105 1.356 . S
N1103 H1108 0.984 . S
N1103 H1109 0.985 . S
C1104 C1098 1.379 . S
C1104 C1101 1.363 . S
C1104 N1102 1.356 . S
C1105 C1099 1.363 . S
C1105 C1100 1.379 . S
C1105 N1103 1.356 . S
N1106 C1098 1.356 . S
N1106 H1112 0.984 . S
N1106 H1113 0.984 . S
N1107 C1100 1.356 . S
N1107 H1110 0.984 . S
N1107 H1111 0.985 . S
H1108 N1103 0.984 . S
H1109 N1103 0.985 . S
H1110 N1107 0.984 . S
H1111 N1107 0.985 . S
H1112 N1106 0.984 . S
H1113 N1106 0.984 . S
H1114 N1102 0.984 . S
H1115 N1102 0.985 . S
C1116 C1117 1.363 . S
C1116 C1122 1.379 . S
C1116 N1124 1.356 . S
C1117 C1116 1.363 . S
C1117 C1123 1.363 . S
C1118 C1119 1.363 . S
C1118 C1123 1.379 . S
C1118 N1125 1.356 . S
C1119 C1118 1.363 . S
C1119 C1122 1.363 . S
N1120 C1122 1.356 . S
N1120 H1132 0.984 . S
N1120 H1133 0.985 . S
N1121 C1123 1.356 . S
N1121 H1126 0.984 . S
N1121 H1127 0.985 . S
C1122 C1116 1.379 . S
C1122 C1119 1.363 . S
C1122 N1120 1.356 . S
C1123 C1117 1.363 . S
C1123 C1118 1.379 . S
C1123 N1121 1.356 . S
N1124 C1116 1.356 . S
N1124 H1130 0.984 1_565 S
N1124 H1131 0.984 . S
N1125 C1118 1.356 . S
N1125 H1128 0.984 . S
N1125 H1129 0.985 . S
H1126 N1121 0.984 . S
H1127 N1121 0.985 . S
H1128 N1125 0.984 . S
H1129 N1125 0.985 . S
H1130 N1124 0.984 1_545 S
H1131 N1124 0.984 . S
H1132 N1120 0.984 . S
H1133 N1120 0.985 . S
C1134 C1135 1.363 . S
C1134 C1140 1.379 . S
C1134 N1142 1.356 . S
C1135 C1134 1.363 . S
C1135 C1141 1.363 . S
C1136 C1137 1.363 . S
C1136 C1141 1.379 . S
C1136 N1143 1.356 . S
C1137 C1136 1.363 . S
C1137 C1140 1.363 . S
N1138 C1140 1.356 . S
N1138 H1150 0.984 . S
N1138 H1151 0.985 . S
N1139 C1141 1.356 . S
N1139 H1144 0.984 . S
N1139 H1145 0.985 . S
C1140 C1134 1.379 . S
C1140 C1137 1.363 . S
C1140 N1138 1.356 . S
C1141 C1135 1.363 . S
C1141 C1136 1.379 . S
C1141 N1139 1.356 . S
N1142 C1134 1.356 . S
N1142 H1148 0.984 . S
N1142 H1149 0.984 . S
N1143 C1136 1.356 . S
N1143 H1146 0.984 . S
N1143 H1147 0.985 . S
H1144 N1139 0.984 . S
H1145 N1139 0.985 . S
H1146 N1143 0.984 . S
H1147 N1143 0.985 . S
H1148 N1142 0.984 . S
H1149 N1142 0.984 . S
H1150 N1138 0.984 . S
H1151 N1138 0.985 . S
C1152 C1153 1.363 . S
C1152 C1158 1.379 . S
C1152 N1160 1.356 . S
C1153 C1152 1.363 . S
C1153 C1159 1.363 . S
C1154 C1155 1.363 . S
C1154 C1159 1.379 . S
C1154 N1161 1.356 . S
C1155 C1154 1.363 . S
C1155 C1158 1.363 . S
N1156 C1158 1.356 . S
N1156 H1168 0.984 . S
N1156 H1169 0.985 . S
N1157 C1159 1.356 . S
N1157 H1162 0.984 . S
N1157 H1163 0.985 . S
C1158 C1152 1.379 . S
C1158 C1155 1.363 . S
C1158 N1156 1.356 . S
C1159 C1153 1.363 . S
C1159 C1154 1.379 . S
C1159 N1157 1.356 . S
N1160 C1152 1.356 . S
N1160 H1166 0.984 . S
N1160 H1167 0.984 . S
N1161 C1154 1.356 . S
N1161 H1164 0.984 . S
N1161 H1165 0.985 . S
H1162 N1157 0.984 . S
H1163 N1157 0.985 . S
H1164 N1161 0.984 . S
H1165 N1161 0.985 . S
H1166 N1160 0.984 . S
H1167 N1160 0.984 . S
H1168 N1156 0.984 . S
H1169 N1156 0.985 . S
C1170 C1171 1.363 . S
C1170 C1176 1.379 . S
C1170 N1178 1.356 . S
C1171 C1170 1.363 . S
C1171 C1177 1.363 . S
C1172 C1173 1.363 . S
C1172 C1177 1.379 . S
C1172 N1179 1.356 . S
C1173 C1172 1.363 . S
C1173 C1176 1.363 . S
N1174 C1176 1.356 . S
N1174 H1186 0.984 . S
N1174 H1187 0.985 . S
N1175 C1177 1.356 . S
N1175 H1180 0.984 . S
N1175 H1181 0.985 1_545 S
C1176 C1170 1.379 . S
C1176 C1173 1.363 . S
C1176 N1174 1.356 . S
C1177 C1171 1.363 . S
C1177 C1172 1.379 . S
C1177 N1175 1.356 . S
N1178 C1170 1.356 . S
N1178 H1184 0.984 . S
N1178 H1185 0.984 . S
N1179 C1172 1.356 . S
N1179 H1182 0.984 . S
N1179 H1183 0.985 . S
H1180 N1175 0.984 . S
H1181 N1175 0.985 1_565 S
H1182 N1179 0.984 . S
H1183 N1179 0.985 . S
H1184 N1178 0.984 . S
H1185 N1178 0.984 . S
H1186 N1174 0.984 . S
H1187 N1174 0.985 . S
C1188 C1189 1.363 . S
C1188 C1194 1.379 . S
C1188 N1196 1.356 . S
C1189 C1188 1.363 . S
C1189 C1195 1.363 . S
C1190 C1191 1.363 . S
C1190 C1195 1.379 . S
C1190 N1197 1.356 . S
C1191 C1190 1.363 . S
C1191 C1194 1.363 . S
N1192 C1194 1.356 . S
N1192 H1204 0.984 . S
N1192 H1205 0.985 . S
N1193 C1195 1.356 . S
N1193 H1198 0.984 . S
N1193 H1199 0.985 . S
C1194 C1188 1.379 . S
C1194 C1191 1.363 . S
C1194 N1192 1.356 . S
C1195 C1189 1.363 . S
C1195 C1190 1.379 . S
C1195 N1193 1.356 . S
N1196 C1188 1.356 . S
N1196 H1202 0.984 . S
N1196 H1203 0.984 . S
N1197 C1190 1.356 . S
N1197 H1200 0.984 . S
N1197 H1201 0.985 . S
H1198 N1193 0.984 . S
H1199 N1193 0.985 . S
H1200 N1197 0.984 . S
H1201 N1197 0.985 . S
H1202 N1196 0.984 . S
H1203 N1196 0.984 . S
H1204 N1192 0.984 . S
H1205 N1192 0.985 . S
C1206 C1207 1.363 . S
C1206 C1212 1.379 . S
C1206 N1214 1.356 . S
C1207 C1206 1.363 . S
C1207 C1213 1.363 . S
C1208 C1209 1.363 . S
C1208 C1213 1.379 . S
C1208 N1215 1.356 . S
C1209 C1208 1.363 . S
C1209 C1212 1.363 . S
N1210 C1212 1.356 . S
N1210 H1222 0.984 . S
N1210 H1223 0.985 . S
N1211 C1213 1.356 . S
N1211 H1216 0.984 . S
N1211 H1217 0.985 . S
C1212 C1206 1.379 . S
C1212 C1209 1.363 . S
C1212 N1210 1.356 . S
C1213 C1207 1.363 . S
C1213 C1208 1.379 . S
C1213 N1211 1.356 . S
N1214 C1206 1.356 . S
N1214 H1220 0.984 . S
N1214 H1221 0.984 . S
N1215 C1208 1.356 . S
N1215 H1218 0.984 . S
N1215 H1219 0.985 . S
H1216 N1211 0.984 . S
H1217 N1211 0.985 . S
H1218 N1215 0.984 . S
H1219 N1215 0.985 . S
H1220 N1214 0.984 . S
H1221 N1214 0.984 . S
H1222 N1210 0.984 . S
H1223 N1210 0.985 . S
C1224 C1225 1.363 . S
C1224 C1230 1.379 . S
C1224 N1232 1.356 . S
C1225 C1224 1.363 . S
C1225 C1231 1.363 . S
C1226 C1227 1.363 . S
C1226 C1231 1.379 . S
C1226 N1233 1.356 . S
C1227 C1226 1.363 . S
C1227 C1230 1.363 . S
N1228 C1230 1.356 . S
N1228 H1240 0.984 . S
N1228 H1241 0.985 . S
N1229 C1231 1.356 . S
N1229 H1234 0.984 . S
N1229 H1235 0.985 . S
C1230 C1224 1.379 . S
C1230 C1227 1.363 . S
C1230 N1228 1.356 . S
C1231 C1225 1.363 . S
C1231 C1226 1.379 . S
C1231 N1229 1.356 . S
N1232 C1224 1.356 . S
N1232 H1238 0.984 . S
N1232 H1239 0.984 . S
N1233 C1226 1.356 . S
N1233 H1236 0.984 . S
N1233 H1237 0.985 . S
H1234 N1229 0.984 . S
H1235 N1229 0.985 . S
H1236 N1233 0.984 . S
H1237 N1233 0.985 . S
H1238 N1232 0.984 . S
H1239 N1232 0.984 . S
H1240 N1228 0.984 . S
H1241 N1228 0.985 . S
C1242 C1243 1.363 . S
C1242 C1248 1.379 . S
C1242 N1250 1.356 . S
C1243 C1242 1.363 . S
C1243 C1249 1.363 . S
C1244 C1245 1.363 . S
C1244 C1249 1.379 . S
C1244 N1251 1.356 . S
C1245 C1244 1.363 . S
C1245 C1248 1.363 . S
N1246 C1248 1.356 . S
N1246 H1258 0.984 . S
N1246 H1259 0.985 . S
N1247 C1249 1.356 . S
N1247 H1252 0.984 . S
N1247 H1253 0.985 . S
C1248 C1242 1.379 . S
C1248 C1245 1.363 . S
C1248 N1246 1.356 . S
C1249 C1243 1.363 . S
C1249 C1244 1.379 . S
C1249 N1247 1.356 . S
N1250 C1242 1.356 . S
N1250 H1256 0.984 . S
N1250 H1257 0.984 . S
N1251 C1244 1.356 . S
N1251 H1254 0.984 . S
N1251 H1255 0.985 . S
H1252 N1247 0.984 . S
H1253 N1247 0.985 . S
H1254 N1251 0.984 . S
H1255 N1251 0.985 . S
H1256 N1250 0.984 . S
H1257 N1250 0.984 . S
H1258 N1246 0.984 . S
H1259 N1246 0.985 . S
C1260 C1261 1.363 . S
C1260 C1266 1.379 . S
C1260 N1268 1.356 . S
C1261 C1260 1.363 . S
C1261 C1267 1.363 . S
C1262 C1263 1.363 . S
C1262 C1267 1.379 . S
C1262 N1269 1.356 . S
C1263 C1262 1.363 . S
C1263 C1266 1.363 . S
N1264 C1266 1.356 . S
N1264 H1276 0.984 . S
N1264 H1277 0.985 . S
N1265 C1267 1.356 . S
N1265 H1270 0.984 . S
N1265 H1271 0.985 . S
C1266 C1260 1.379 . S
C1266 C1263 1.363 . S
C1266 N1264 1.356 . S
C1267 C1261 1.363 . S
C1267 C1262 1.379 . S
C1267 N1265 1.356 . S
N1268 C1260 1.356 . S
N1268 H1274 0.984 . S
N1268 H1275 0.984 . S
N1269 C1262 1.356 . S
N1269 H1272 0.984 . S
N1269 H1273 0.985 . S
H1270 N1265 0.984 . S
H1271 N1265 0.985 . S
H1272 N1269 0.984 . S
H1273 N1269 0.985 . S
H1274 N1268 0.984 . S
H1275 N1268 0.984 . S
H1276 N1264 0.984 . S
H1277 N1264 0.985 . S
C1278 C1279 1.363 . S
C1278 C1284 1.379 . S
C1278 N1286 1.356 . S
C1279 C1278 1.363 . S
C1279 C1285 1.363 . S
C1280 C1281 1.363 . S
C1280 C1285 1.379 . S
C1280 N1287 1.356 . S
C1281 C1280 1.363 . S
C1281 C1284 1.363 . S
N1282 C1284 1.356 . S
N1282 H1294 0.984 . S
N1282 H1295 0.985 . S
N1283 C1285 1.356 . S
N1283 H1288 0.984 . S
N1283 H1289 0.985 . S
C1284 C1278 1.379 . S
C1284 C1281 1.363 . S
C1284 N1282 1.356 . S
C1285 C1279 1.363 . S
C1285 C1280 1.379 . S
C1285 N1283 1.356 . S
N1286 C1278 1.356 . S
N1286 H1292 0.984 . S
N1286 H1293 0.984 . S
N1287 C1280 1.356 . S
N1287 H1290 0.984 . S
N1287 H1291 0.985 . S
H1288 N1283 0.984 . S
H1289 N1283 0.985 . S
H1290 N1287 0.984 . S
H1291 N1287 0.985 . S
H1292 N1286 0.984 . S
H1293 N1286 0.984 . S
H1294 N1282 0.984 . S
H1295 N1282 0.985 . S
C1296 C1297 1.363 1_554 S
C1296 C1302 1.379 . S
C1296 N1304 1.356 . S
C1297 C1296 1.363 1_556 S
C1297 C1303 1.363 . S
C1298 C1299 1.363 . S
C1298 C1303 1.379 . S
C1298 N1305 1.356 . S
C1299 C1298 1.363 . S
C1299 C1302 1.363 1_556 S
N1300 C1302 1.356 . S
N1300 H1312 0.984 . S
N1300 H1313 0.985 . S
N1301 C1303 1.356 . S
N1301 H1306 0.984 . S
N1301 H1307 0.985 . S
C1302 C1296 1.379 . S
C1302 C1299 1.363 1_554 S
C1302 N1300 1.356 . S
C1303 C1297 1.363 . S
C1303 C1298 1.379 . S
C1303 N1301 1.356 . S
N1304 C1296 1.356 . S
N1304 H1310 0.984 . S
N1304 H1311 0.984 . S
N1305 C1298 1.356 . S
N1305 H1308 0.984 . S
N1305 H1309 0.985 . S
H1306 N1301 0.984 . S
H1307 N1301 0.985 . S
H1308 N1305 0.984 . S
H1309 N1305 0.985 . S
H1310 N1304 0.984 . S
H1311 N1304 0.984 . S
H1312 N1300 0.984 . S
H1313 N1300 0.985 . S
C1314 C1315 1.363 . S
C1314 C1320 1.379 . S
C1314 N1322 1.356 . S
C1315 C1314 1.363 . S
C1315 C1321 1.363 . S
C1316 C1317 1.363 . S
C1316 C1321 1.379 . S
C1316 N1323 1.356 . S
C1317 C1316 1.363 . S
C1317 C1320 1.363 . S
N1318 C1320 1.356 . S
N1318 H1330 0.984 . S
N1318 H1331 0.985 . S
N1319 C1321 1.356 . S
N1319 H1324 0.984 . S
N1319 H1325 0.985 . S
C1320 C1314 1.379 . S
C1320 C1317 1.363 . S
C1320 N1318 1.356 . S
C1321 C1315 1.363 . S
C1321 C1316 1.379 . S
C1321 N1319 1.356 . S
N1322 C1314 1.356 . S
N1322 H1328 0.984 . S
N1322 H1329 0.984 . S
N1323 C1316 1.356 . S
N1323 H1326 0.984 . S
N1323 H1327 0.985 . S
H1324 N1319 0.984 . S
H1325 N1319 0.985 . S
H1326 N1323 0.984 . S
H1327 N1323 0.985 . S
H1328 N1322 0.984 . S
H1329 N1322 0.984 . S
H1330 N1318 0.984 . S
H1331 N1318 0.985 . S
C1332 C1333 1.363 . S
C1332 C1338 1.379 . S
C1332 N1340 1.356 . S
C1333 C1332 1.363 . S
C1333 C1339 1.363 . S
C1334 C1335 1.363 . S
C1334 C1339 1.379 . S
C1334 N1341 1.356 . S
C1335 C1334 1.363 . S
C1335 C1338 1.363 . S
N1336 C1338 1.356 . S
N1336 H1348 0.984 . S
N1336 H1349 0.985 . S
N1337 C1339 1.356 . S
N1337 H1342 0.984 . S
N1337 H1343 0.985 . S
C1338 C1332 1.379 . S
C1338 C1335 1.363 . S
C1338 N1336 1.356 . S
C1339 C1333 1.363 . S
C1339 C1334 1.379 . S
C1339 N1337 1.356 . S
N1340 C1332 1.356 . S
N1340 H1346 0.984 . S
N1340 H1347 0.984 . S
N1341 C1334 1.356 . S
N1341 H1344 0.984 . S
N1341 H1345 0.985 . S
H1342 N1337 0.984 . S
H1343 N1337 0.985 . S
H1344 N1341 0.984 . S
H1345 N1341 0.985 . S
H1346 N1340 0.984 . S
H1347 N1340 0.984 . S
H1348 N1336 0.984 . S
H1349 N1336 0.985 . S
C1350 C1351 1.363 . S
C1350 C1356 1.379 . S
C1350 N1358 1.356 . S
C1351 C1350 1.363 . S
C1351 C1357 1.363 . S
C1352 C1353 1.363 . S
C1352 C1357 1.379 . S
C1352 N1359 1.356 . S
C1353 C1352 1.363 . S
C1353 C1356 1.363 . S
N1354 C1356 1.356 . S
N1354 H1366 0.984 . S
N1354 H1367 0.985 . S
N1355 C1357 1.356 . S
N1355 H1360 0.984 . S
N1355 H1361 0.985 . S
C1356 C1350 1.379 . S
C1356 C1353 1.363 . S
C1356 N1354 1.356 . S
C1357 C1351 1.363 . S
C1357 C1352 1.379 . S
C1357 N1355 1.356 . S
N1358 C1350 1.356 . S
N1358 H1364 0.984 . S
N1358 H1365 0.984 . S
N1359 C1352 1.356 . S
N1359 H1362 0.984 . S
N1359 H1363 0.985 . S
H1360 N1355 0.984 . S
H1361 N1355 0.985 . S
H1362 N1359 0.984 . S
H1363 N1359 0.985 . S
H1364 N1358 0.984 . S
H1365 N1358 0.984 . S
H1366 N1354 0.984 . S
H1367 N1354 0.985 . S
C1368 C1369 1.363 . S
C1368 C1374 1.379 . S
C1368 N1376 1.356 . S
C1369 C1368 1.363 . S
C1369 C1375 1.363 . S
C1370 C1371 1.363 . S
C1370 C1375 1.379 . S
C1370 N1377 1.356 . S
C1371 C1370 1.363 . S
C1371 C1374 1.363 . S
N1372 C1374 1.356 . S
N1372 H1384 0.984 . S
N1372 H1385 0.985 . S
N1373 C1375 1.356 . S
N1373 H1378 0.984 . S
N1373 H1379 0.985 . S
C1374 C1368 1.379 . S
C1374 C1371 1.363 . S
C1374 N1372 1.356 . S
C1375 C1369 1.363 . S
C1375 C1370 1.379 . S
C1375 N1373 1.356 . S
N1376 C1368 1.356 . S
N1376 H1382 0.984 . S
N1376 H1383 0.984 . S
N1377 C1370 1.356 . S
N1377 H1380 0.984 . S
N1377 H1381 0.985 . S
H1378 N1373 0.984 . S
H1379 N1373 0.985 . S
H1380 N1377 0.984 . S
H1381 N1377 0.985 . S
H1382 N1376 0.984 . S
H1383 N1376 0.984 . S
H1384 N1372 0.984 . S
H1385 N1372 0.985 . S
C1386 C1387 1.363 1_556 S
C1386 C1392 1.379 . S
C1386 N1394 1.356 . S
C1387 C1386 1.363 1_554 S
C1387 C1393 1.363 . S
C1388 C1389 1.363 . S
C1388 C1393 1.379 . S
C1388 N1395 1.356 . S
C1389 C1388 1.363 . S
C1389 C1392 1.363 1_554 S
N1390 C1392 1.356 . S
N1390 H1402 0.984 . S
N1390 H1403 0.985 . S
N1391 C1393 1.356 . S
N1391 H1396 0.984 . S
N1391 H1397 0.985 . S
C1392 C1386 1.379 . S
C1392 C1389 1.363 1_556 S
C1392 N1390 1.356 . S
C1393 C1387 1.363 . S
C1393 C1388 1.379 . S
C1393 N1391 1.356 . S
N1394 C1386 1.356 . S
N1394 H1400 0.984 . S
N1394 H1401 0.984 . S
N1395 C1388 1.356 . S
N1395 H1398 0.984 . S
N1395 H1399 0.985 . S
H1396 N1391 0.984 . S
H1397 N1391 0.985 . S
H1398 N1395 0.984 . S
H1399 N1395 0.985 . S
H1400 N1394 0.984 . S
H1401 N1394 0.984 . S
H1402 N1390 0.984 . S
H1403 N1390 0.985 . S
C1404 C1405 1.363 . S
C1404 C1410 1.379 . S
C1404 N1412 1.356 . S
C1405 C1404 1.363 . S
C1405 C1411 1.363 . S
C1406 C1407 1.363 . S
C1406 C1411 1.379 . S
C1406 N1413 1.356 . S
C1407 C1406 1.363 . S
C1407 C1410 1.363 . S
N1408 C1410 1.356 . S
N1408 H1420 0.984 . S
N1408 H1421 0.985 . S
N1409 C1411 1.356 . S
N1409 H1414 0.984 . S
N1409 H1415 0.985 . S
C1410 C1404 1.379 . S
C1410 C1407 1.363 . S
C1410 N1408 1.356 . S
C1411 C1405 1.363 . S
C1411 C1406 1.379 . S
C1411 N1409 1.356 . S
N1412 C1404 1.356 . S
N1412 H1418 0.984 . S
N1412 H1419 0.984 . S
N1413 C1406 1.356 . S
N1413 H1416 0.984 . S
N1413 H1417 0.985 . S
H1414 N1409 0.984 . S
H1415 N1409 0.985 . S
H1416 N1413 0.984 . S
H1417 N1413 0.985 . S
H1418 N1412 0.984 . S
H1419 N1412 0.984 . S
H1420 N1408 0.984 . S
H1421 N1408 0.985 . S
C1422 C1423 1.363 . S
C1422 C1428 1.379 . S
C1422 N1430 1.356 . S
C1423 C1422 1.363 . S
C1423 C1429 1.363 . S
C1424 C1425 1.363 . S
C1424 C1429 1.379 . S
C1424 N1431 1.356 . S
C1425 C1424 1.363 . S
C1425 C1428 1.363 . S
N1426 C1428 1.356 . S
N1426 H1438 0.984 . S
N1426 H1439 0.985 . S
N1427 C1429 1.356 . S
N1427 H1432 0.984 . S
N1427 H1433 0.985 . S
C1428 C1422 1.379 . S
C1428 C1425 1.363 . S
C1428 N1426 1.356 . S
C1429 C1423 1.363 . S
C1429 C1424 1.379 . S
C1429 N1427 1.356 . S
N1430 C1422 1.356 . S
N1430 H1436 0.984 . S
N1430 H1437 0.984 . S
N1431 C1424 1.356 . S
N1431 H1434 0.984 . S
N1431 H1435 0.985 . S
H1432 N1427 0.984 . S
H1433 N1427 0.985 . S
H1434 N1431 0.984 . S
H1435 N1431 0.985 . S
H1436 N1430 0.984 . S
H1437 N1430 0.984 . S
H1438 N1426 0.984 . S
H1439 N1426 0.985 . S
C1440 C1441 1.363 . S
C1440 C1446 1.379 . S
C1440 N1448 1.356 . S
C1441 C1440 1.363 . S
C1441 C1447 1.363 . S
C1442 C1443 1.363 . S
C1442 C1447 1.379 . S
C1442 N1449 1.356 . S
C1443 C1442 1.363 . S
C1443 C1446 1.363 . S
N1444 C1446 1.356 . S
N1444 H1456 0.984 . S
N1444 H1457 0.985 . S
N1445 C1447 1.356 . S
N1445 H1450 0.984 . S
N1445 H1451 0.985 . S
C1446 C1440 1.379 . S
C1446 C1443 1.363 . S
C1446 N1444 1.356 . S
C1447 C1441 1.363 . S
C1447 C1442 1.379 . S
C1447 N1445 1.356 . S
N1448 C1440 1.356 . S
N1448 H1454 0.984 . S
N1448 H1455 0.984 . S
N1449 C1442 1.356 . S
N1449 H1452 0.984 . S
N1449 H1453 0.985 . S
H1450 N1445 0.984 . S
H1451 N1445 0.985 . S
H1452 N1449 0.984 . S
H1453 N1449 0.985 . S
H1454 N1448 0.984 . S
H1455 N1448 0.984 . S
H1456 N1444 0.984 . S
H1457 N1444 0.985 . S
C1458 C1459 1.363 . S
C1458 C1464 1.379 . S
C1458 N1466 1.356 . S
C1459 C1458 1.363 . S
C1459 C1465 1.363 . S
C1460 C1461 1.363 . S
C1460 C1465 1.379 . S
C1460 N1467 1.356 . S
C1461 C1460 1.363 . S
C1461 C1464 1.363 . S
N1462 C1464 1.356 . S
N1462 H1474 0.984 . S
N1462 H1475 0.985 . S
N1463 C1465 1.356 . S
N1463 H1468 0.984 . S
N1463 H1469 0.985 . S
C1464 C1458 1.379 . S
C1464 C1461 1.363 . S
C1464 N1462 1.356 . S
C1465 C1459 1.363 . S
C1465 C1460 1.379 . S
C1465 N1463 1.356 . S
N1466 C1458 1.356 . S
N1466 H1472 0.984 . S
N1466 H1473 0.984 . S
N1467 C1460 1.356 . S
N1467 H1470 0.984 . S
N1467 H1471 0.985 . S
H1468 N1463 0.984 . S
H1469 N1463 0.985 . S
H1470 N1467 0.984 . S
H1471 N1467 0.985 . S
H1472 N1466 0.984 . S
H1473 N1466 0.984 . S
H1474 N1462 0.984 . S
H1475 N1462 0.985 . S
C1476 C1477 1.363 . S
C1476 C1482 1.379 . S
C1476 N1484 1.356 . S
C1477 C1476 1.363 . S
C1477 C1483 1.363 . S
C1478 C1479 1.363 . S
C1478 C1483 1.379 . S
C1478 N1485 1.356 . S
C1479 C1478 1.363 . S
C1479 C1482 1.363 . S
N1480 C1482 1.356 . S
N1480 H1492 0.984 . S
N1480 H1493 0.985 . S
N1481 C1483 1.356 . S
N1481 H1486 0.984 . S
N1481 H1487 0.985 . S
C1482 C1476 1.379 . S
C1482 C1479 1.363 . S
C1482 N1480 1.356 . S
C1483 C1477 1.363 . S
C1483 C1478 1.379 . S
C1483 N1481 1.356 . S
N1484 C1476 1.356 . S
N1484 H1490 0.984 . S
N1484 H1491 0.984 . S
N1485 C1478 1.356 . S
N1485 H1488 0.984 . S
N1485 H1489 0.985 . S
H1486 N1481 0.984 . S
H1487 N1481 0.985 . S
H1488 N1485 0.984 . S
H1489 N1485 0.985 . S
H1490 N1484 0.984 . S
H1491 N1484 0.984 . S
H1492 N1480 0.984 . S
H1493 N1480 0.985 . S
C1494 C1495 1.363 . S
C1494 C1500 1.379 . S
C1494 N1502 1.356 . S
C1495 C1494 1.363 . S
C1495 C1501 1.363 . S
C1496 C1497 1.363 . S
C1496 C1501 1.379 . S
C1496 N1503 1.356 . S
C1497 C1496 1.363 . S
C1497 C1500 1.363 . S
N1498 C1500 1.356 . S
N1498 H1510 0.984 . S
N1498 H1511 0.985 . S
N1499 C1501 1.356 . S
N1499 H1504 0.984 . S
N1499 H1505 0.985 . S
C1500 C1494 1.379 . S
C1500 C1497 1.363 . S
C1500 N1498 1.356 . S
C1501 C1495 1.363 . S
C1501 C1496 1.379 . S
C1501 N1499 1.356 . S
N1502 C1494 1.356 . S
N1502 H1508 0.984 . S
N1502 H1509 0.984 . S
N1503 C1496 1.356 . S
N1503 H1506 0.984 . S
N1503 H1507 0.985 . S
H1504 N1499 0.984 . S
H1505 N1499 0.985 . S
H1506 N1503 0.984 . S
H1507 N1503 0.985 . S
H1508 N1502 0.984 . S
H1509 N1502 0.984 . S
H1510 N1498 0.984 . S
H1511 N1498 0.985 . S
C1512 C1513 1.363 . S
C1512 C1518 1.379 . S
C1512 N1520 1.356 . S
C1513 C1512 1.363 . S
C1513 C1519 1.363 . S
C1514 C1515 1.363 . S
C1514 C1519 1.379 . S
C1514 N1521 1.356 . S
C1515 C1514 1.363 . S
C1515 C1518 1.363 . S
N1516 C1518 1.356 . S
N1516 H1528 0.984 . S
N1516 H1529 0.985 . S
N1517 C1519 1.356 . S
N1517 H1522 0.984 . S
N1517 H1523 0.985 . S
C1518 C1512 1.379 . S
C1518 C1515 1.363 . S
C1518 N1516 1.356 . S
C1519 C1513 1.363 . S
C1519 C1514 1.379 . S
C1519 N1517 1.356 . S
N1520 C1512 1.356 . S
N1520 H1526 0.984 . S
N1520 H1527 0.984 . S
N1521 C1514 1.356 . S
N1521 H1524 0.984 . S
N1521 H1525 0.985 . S
H1522 N1517 0.984 . S
H1523 N1517 0.985 . S
H1524 N1521 0.984 . S
H1525 N1521 0.985 . S
H1526 N1520 0.984 . S
H1527 N1520 0.984 . S
H1528 N1516 0.984 . S
H1529 N1516 0.985 . S
C1530 C1531 1.363 . S
C1530 C1536 1.379 . S
C1530 N1538 1.356 . S
C1531 C1530 1.363 . S
C1531 C1537 1.363 . S
C1532 C1533 1.363 . S
C1532 C1537 1.379 . S
C1532 N1539 1.356 . S
C1533 C1532 1.363 . S
C1533 C1536 1.363 . S
N1534 C1536 1.356 . S
N1534 H1546 0.984 . S
N1534 H1547 0.985 . S
N1535 C1537 1.356 . S
N1535 H1540 0.984 . S
N1535 H1541 0.985 . S
C1536 C1530 1.379 . S
C1536 C1533 1.363 . S
C1536 N1534 1.356 . S
C1537 C1531 1.363 . S
C1537 C1532 1.379 . S
C1537 N1535 1.356 . S
N1538 C1530 1.356 . S
N1538 H1544 0.984 . S
N1538 H1545 0.984 . S
N1539 C1532 1.356 . S
N1539 H1542 0.984 . S
N1539 H1543 0.985 . S
H1540 N1535 0.984 . S
H1541 N1535 0.985 . S
H1542 N1539 0.984 . S
H1543 N1539 0.985 . S
H1544 N1538 0.984 . S
H1545 N1538 0.984 . S
H1546 N1534 0.984 . S
H1547 N1534 0.985 . S
C1548 C1549 1.363 . S
C1548 C1554 1.379 . S
C1548 N1556 1.356 . S
C1549 C1548 1.363 . S
C1549 C1555 1.363 . S
C1550 C1551 1.363 . S
C1550 C1555 1.379 . S
C1550 N1557 1.356 . S
C1551 C1550 1.363 . S
C1551 C1554 1.363 . S
N1552 C1554 1.356 . S
N1552 H1564 0.984 . S
N1552 H1565 0.985 . S
N1553 C1555 1.356 . S
N1553 H1558 0.984 . S
N1553 H1559 0.985 . S
C1554 C1548 1.379 . S
C1554 C1551 1.363 . S
C1554 N1552 1.356 . S
C1555 C1549 1.363 . S
C1555 C1550 1.379 . S
C1555 N1553 1.356 . S
N1556 C1548 1.356 . S
N1556 H1562 0.984 . S
N1556 H1563 0.984 . S
N1557 C1550 1.356 . S
N1557 H1560 0.984 . S
N1557 H1561 0.985 . S
H1558 N1553 0.984 . S
H1559 N1553 0.985 . S
H1560 N1557 0.984 . S
H1561 N1557 0.985 . S
H1562 N1556 0.984 . S
H1563 N1556 0.984 . S
H1564 N1552 0.984 . S
H1565 N1552 0.985 . S
C1566 C1567 1.363 . S
C1566 C1572 1.379 . S
C1566 N1574 1.356 . S
C1567 C1566 1.363 . S
C1567 C1573 1.363 . S
C1568 C1569 1.363 . S
C1568 C1573 1.379 . S
C1568 N1575 1.356 . S
C1569 C1568 1.363 . S
C1569 C1572 1.363 . S
N1570 C1572 1.356 . S
N1570 H1582 0.984 . S
N1570 H1583 0.985 . S
N1571 C1573 1.356 . S
N1571 H1576 0.984 . S
N1571 H1577 0.985 . S
C1572 C1566 1.379 . S
C1572 C1569 1.363 . S
C1572 N1570 1.356 . S
C1573 C1567 1.363 . S
C1573 C1568 1.379 . S
C1573 N1571 1.356 . S
N1574 C1566 1.356 . S
N1574 H1580 0.984 . S
N1574 H1581 0.984 . S
N1575 C1568 1.356 . S
N1575 H1578 0.984 . S
N1575 H1579 0.985 . S
H1576 N1571 0.984 . S
H1577 N1571 0.985 . S
H1578 N1575 0.984 . S
H1579 N1575 0.985 . S
H1580 N1574 0.984 . S
H1581 N1574 0.984 . S
H1582 N1570 0.984 . S
H1583 N1570 0.985 . S
C1584 C1585 1.363 . S
C1584 C1590 1.379 . S
C1584 N1592 1.356 . S
C1585 C1584 1.363 . S
C1585 C1591 1.363 . S
C1586 C1587 1.363 . S
C1586 C1591 1.379 . S
C1586 N1593 1.356 . S
C1587 C1586 1.363 . S
C1587 C1590 1.363 . S
N1588 C1590 1.356 . S
N1588 H1600 0.984 . S
N1588 H1601 0.985 . S
N1589 C1591 1.356 . S
N1589 H1594 0.984 . S
N1589 H1595 0.985 . S
C1590 C1584 1.379 . S
C1590 C1587 1.363 . S
C1590 N1588 1.356 . S
C1591 C1585 1.363 . S
C1591 C1586 1.379 . S
C1591 N1589 1.356 . S
N1592 C1584 1.356 . S
N1592 H1598 0.984 . S
N1592 H1599 0.984 . S
N1593 C1586 1.356 . S
N1593 H1596 0.984 . S
N1593 H1597 0.985 . S
H1594 N1589 0.984 . S
H1595 N1589 0.985 . S
H1596 N1593 0.984 . S
H1597 N1593 0.985 . S
H1598 N1592 0.984 . S
H1599 N1592 0.984 . S
H1600 N1588 0.984 . S
H1601 N1588 0.985 . S
C1602 C1603 1.363 . S
C1602 C1608 1.379 . S
C1602 N1610 1.356 . S
C1603 C1602 1.363 . S
C1603 C1609 1.363 . S
C1604 C1605 1.363 . S
C1604 C1609 1.379 . S
C1604 N1611 1.356 . S
C1605 C1604 1.363 . S
C1605 C1608 1.363 . S
N1606 C1608 1.356 . S
N1606 H1618 0.984 . S
N1606 H1619 0.985 . S
N1607 C1609 1.356 . S
N1607 H1612 0.984 . S
N1607 H1613 0.985 . S
C1608 C1602 1.379 . S
C1608 C1605 1.363 . S
C1608 N1606 1.356 . S
C1609 C1603 1.363 . S
C1609 C1604 1.379 . S
C1609 N1607 1.356 . S
N1610 C1602 1.356 . S
N1610 H1616 0.984 . S
N1610 H1617 0.984 . S
N1611 C1604 1.356 . S
N1611 H1614 0.984 . S
N1611 H1615 0.985 . S
H1612 N1607 0.984 . S
H1613 N1607 0.985 . S
H1614 N1611 0.984 . S
H1615 N1611 0.985 . S
H1616 N1610 0.984 . S
H1617 N1610 0.984 . S
H1618 N1606 0.984 . S
H1619 N1606 0.985 . S
C1620 C1621 1.363 . S
C1620 C1626 1.379 . S
C1620 N1628 1.356 . S
C1621 C1620 1.363 . S
C1621 C1627 1.363 . S
C1622 C1623 1.363 . S
C1622 C1627 1.379 . S
C1622 N1629 1.356 . S
C1623 C1622 1.363 . S
C1623 C1626 1.363 . S
N1624 C1626 1.356 . S
N1624 H1636 0.984 . S
N1624 H1637 0.985 . S
N1625 C1627 1.356 . S
N1625 H1630 0.984 . S
N1625 H1631 0.985 . S
C1626 C1620 1.379 . S
C1626 C1623 1.363 . S
C1626 N1624 1.356 . S
C1627 C1621 1.363 . S
C1627 C1622 1.379 . S
C1627 N1625 1.356 . S
N1628 C1620 1.356 . S
N1628 H1634 0.984 . S
N1628 H1635 0.984 . S
N1629 C1622 1.356 . S
N1629 H1632 0.984 . S
N1629 H1633 0.985 . S
H1630 N1625 0.984 . S
H1631 N1625 0.985 . S
H1632 N1629 0.984 . S
H1633 N1629 0.985 . S
H1634 N1628 0.984 . S
H1635 N1628 0.984 . S
H1636 N1624 0.984 . S
H1637 N1624 0.985 . S
C1638 C1639 1.363 . S
C1638 C1644 1.379 . S
C1638 N1646 1.356 . S
C1639 C1638 1.363 . S
C1639 C1645 1.363 . S
C1640 C1641 1.363 . S
C1640 C1645 1.379 . S
C1640 N1647 1.356 . S
C1641 C1640 1.363 . S
C1641 C1644 1.363 . S
N1642 C1644 1.356 . S
N1642 H1654 0.984 . S
N1642 H1655 0.985 . S
N1643 C1645 1.356 . S
N1643 H1648 0.984 . S
N1643 H1649 0.985 . S
C1644 C1638 1.379 . S
C1644 C1641 1.363 . S
C1644 N1642 1.356 . S
C1645 C1639 1.363 . S
C1645 C1640 1.379 . S
C1645 N1643 1.356 . S
N1646 C1638 1.356 . S
N1646 H1652 0.984 . S
N1646 H1653 0.984 . S
N1647 C1640 1.356 . S
N1647 H1650 0.984 . S
N1647 H1651 0.985 . S
H1648 N1643 0.984 . S
H1649 N1643 0.985 . S
H1650 N1647 0.984 . S
H1651 N1647 0.985 . S
H1652 N1646 0.984 . S
H1653 N1646 0.984 . S
H1654 N1642 0.984 . S
H1655 N1642 0.985 . S
C1009 C476 1.733 . S
C1011 C58 1.254 . S
C1027 C142 1.426 . S
C1029 C56 2.043 . S
C1045 C226 1.372 . S
C1047 C140 1.865 . S
C1063 C224 1.733 . S
C1065 C310 1.254 . S
C1081 C308 2.043 . S
C1083 C394 1.425 . S
C1099 C478 1.372 . S
C1101 C392 1.865 . S
C1117 C644 1.733 . S
C1119 C562 1.254 . S
C1135 C646 1.372 . S
C1137 C728 1.865 . S
C1153 C812 2.043 . S
C1155 C730 1.425 . S
C1171 C896 1.733 . S
C1173 C814 1.254 . S
C1189 C980 1.864 . S
C1191 C898 1.373 . S
C1207 C560 2.043 . S
C1209 C982 1.425 . S
C1225 C998 3.692 . S
C1227 C67 3.606 . S
C1243 C151 3.015 . S
C1245 C578 3.097 . S
C1261 C662 3.418 . S
C1263 C235 3.317 . S
C1279 C746 3.692 . S
C1281 C319 3.606 . S
C1297 C830 3.100 . S
C1299 C403 3.012 1_556 S
C1315 C487 3.319 . S
C1317 C914 3.417 . S
C1333 C571 3.603 . S
C1335 C158 3.694 . S
C1351 C655 3.318 . S
C1353 C242 3.417 . S
C1369 C326 3.100 . S
C1371 C739 3.012 . S
C1387 C410 3.692 . S
C1389 C823 3.606 1_554 S
C1405 C907 3.318 . S
C1407 C494 3.417 . S
C1423 C991 3.015 . S
C1425 C74 3.097 . S
C1441 C567 2.827 . S
C1443 C63 2.829 . S
C1459 C147 1.951 . S
C1461 C651 1.983 . S
C1477 C735 1.951 . S
C1479 C231 1.983 . S
C1495 C315 2.827 . S
C1497 C819 2.829 . S
C1513 C903 1.981 . S
C1515 C399 1.953 . S
C1531 C987 1.951 . S
C1533 C483 1.983 . S
C1549 C573 0.553 . S
C1551 C69 0.552 . S
C1567 C657 0.546 . S
C1569 C153 0.536 . S
C1585 C741 0.538 . S
C1587 C237 0.544 . S
C1603 C321 0.553 . S
C1605 C825 0.552 . S
C1621 C909 0.546 . S
C1623 C405 0.536 . S
C1639 C993 0.538 . S
C1641 C489 0.544 . S
