# Generated by pormake.
# Topology uoq, (4)-cn, num edge types: 1
# Building blocks:
#     Node 0, Type 0, BuildingBlock: ICAMEG_clean_sbu_1, # of connection points: 4
#     Node 1, Type 0, BuildingBlock: ICAMEG_clean_sbu_1, # of connection points: 4
#     Node 2, Type 0, BuildingBlock: ICAMEG_clean_sbu_1, # of connection points: 4
#     Node 3, Type 0, BuildingBlock: ICAMEG_clean_sbu_1, # of connection points: 4
#     Node 4, Type 0, BuildingBlock: ICAMEG_clean_sbu_1, # of connection points: 4
#     Node 5, Type 0, BuildingBlock: ICAMEG_clean_sbu_1, # of connection points: 4
#     Node 6, Type 0, BuildingBlock: ICAMEG_clean_sbu_1, # of connection points: 4
#     Node 7, Type 0, BuildingBlock: ICAMEG_clean_sbu_1, # of connection points: 4
#     Node 8, Type 0, BuildingBlock: ICAMEG_clean_sbu_1, # of connection points: 4
#     Node 9, Type 0, BuildingBlock: ICAMEG_clean_sbu_1, # of connection points: 4
#     Node 10, Type 0, BuildingBlock: ICAMEG_clean_sbu_1, # of connection points: 4
#     Node 11, Type 0, BuildingBlock: ICAMEG_clean_sbu_1, # of connection points: 4
#     Edge 12, Type (0, 0), None
#     Edge 13, Type (0, 0), None
#     Edge 14, Type (0, 0), None
#     Edge 15, Type (0, 0), None
#     Edge 16, Type (0, 0), None
#     Edge 17, Type (0, 0), None
#     Edge 18, Type (0, 0), None
#     Edge 19, Type (0, 0), None
#     Edge 20, Type (0, 0), None
#     Edge 21, Type (0, 0), None
#     Edge 22, Type (0, 0), None
#     Edge 23, Type (0, 0), None
#     Edge 24, Type (0, 0), None
#     Edge 25, Type (0, 0), None
#     Edge 26, Type (0, 0), None
#     Edge 27, Type (0, 0), None
#     Edge 28, Type (0, 0), None
#     Edge 29, Type (0, 0), None
#     Edge 30, Type (0, 0), None
#     Edge 31, Type (0, 0), None
#     Edge 32, Type (0, 0), None
#     Edge 33, Type (0, 0), None
#     Edge 34, Type (0, 0), None
#     Edge 35, Type (0, 0), None
# Relax obj value: 0.261
# Max RMSD: 0.230
# Mean RMSD: 0.230
data_MOF--net-uoq--node1-ICAMEG_clean_sbu_1--edge1-none
_symmetry_space_group_name_H-M    P1
_symmetry_Int_Tables_number       1
_symmetry_cell_setting            triclinic
loop_
_symmetry_equiv_pos_as_xyz
'x, y, z'
_cell_length_a     29.269976
_cell_length_b     29.427436
_cell_length_c     12.937832
_cell_angle_alpha  90.399684
_cell_angle_beta   89.630671
_cell_angle_gamma 120.07083
loop_
_atom_site_label
_atom_site_type_symbol
_atom_site_fract_x
_atom_site_fract_y
_atom_site_fract_z
_atom_type_partial_charge
Co0 Co 0.31709 0.44687 0.40973 0.0
Co1 Co 0.3343 0.45953 0.14976 0.0
O2 O 0.29576 0.44975 0.26984 0.0
C3 C 0.28349 0.52549 0.44932 0.0
O4 O 0.33041 0.56741 0.44447 0.0
C5 C 0.22122 0.39432 0.00028 0.0
O6 O 0.18778 0.34404 -0.0125 0.0
O7 O 0.35063 0.40084 0.20815 0.0
O8 O 0.35996 0.41609 0.3789 0.0
H9 H 0.51011 0.54117 -0.0159 0.0
H10 H 0.20749 0.40174 0.33815 0.0
O11 O 0.27565 0.47923 0.43877 0.0
H12 H 0.21888 0.24681 0.43175 0.0
H13 H 0.25689 0.43737 0.76892 0.0
H14 H 0.36141 0.39176 0.54244 0.0
H15 H 0.29216 0.33337 0.46187 0.0
H16 H 0.29488 0.48705 0.61414 0.0
O17 O 0.26215 0.40637 0.06409 0.0
H18 H 0.44833 0.49522 0.12481 0.0
H19 H 0.31949 0.44819 0.91999 0.0
H20 H 0.32774 0.34425 0.70103 0.0
H21 H 0.13271 0.31379 0.3004 0.0
H22 H 0.26997 0.36272 0.81383 0.0
H23 H 0.13816 0.23546 0.34688 0.0
O24 O 0.38567 0.51958 0.39404 0.0
H25 H 0.22838 0.55062 0.15501 0.0
H26 H 0.3961 0.56453 0.04225 0.0
H27 H 0.38046 0.63773 0.01186 0.0
H28 H 0.29742 0.63195 0.0716 0.0
H29 H 0.2432 0.47628 0.17719 0.0
H30 H 0.38105 0.47053 0.77592 0.0
H31 H 0.47816 0.52701 0.80799 0.0
O32 O 0.39881 0.5169 0.22323 0.0
C33 C 0.36138 0.39105 0.3023 0.0
C34 C 0.46839 0.5184 0.96965 0.0
C35 C 0.39589 0.48113 0.85238 0.0
N36 N 0.37937 0.47153 0.0323 0.0
C37 C 0.43257 0.49402 0.04922 0.0
C38 C 0.36085 0.46531 0.93461 0.0
C39 C 0.44995 0.51117 0.87023 0.0
C40 C 0.20942 0.36841 0.36305 0.0
N41 N 0.25398 0.37536 0.41084 0.0
C42 C 0.16736 0.31845 0.33916 0.0
C43 C 0.17037 0.27435 0.36493 0.0
C44 C 0.21532 0.28075 0.41345 0.0
C45 C 0.2569 0.33131 0.4342 0.0
C46 C 0.27974 0.42695 0.71946 0.0
C47 C 0.34023 0.404 0.59118 0.0
C48 C 0.3013 0.45493 0.62853 0.0
N49 N 0.3268 0.44001 0.559 0.0
C50 C 0.31967 0.37521 0.68182 0.0
C51 C 0.28718 0.3853 0.74433 0.0
C52 C 0.41428 0.53949 0.31079 0.0
C53 C 0.26501 0.55357 0.12899 0.0
C54 C 0.35838 0.55999 0.06367 0.0
C55 C 0.35016 0.60218 0.04753 0.0
C56 C 0.30359 0.59908 0.08184 0.0
N57 N 0.3203 0.51505 0.10968 0.0
C58 C 0.27401 0.51171 0.14204 0.0
Co59 Co 0.86873 0.30751 0.75116 0.0
Co60 Co 0.86932 0.32031 0.49017 0.0
O61 O 0.84849 0.2842 0.61303 0.0
C62 C 0.76118 0.28251 0.81048 0.0
O63 O 0.77699 0.32847 0.853 0.0
C64 C 0.8222 0.21126 0.33597 0.0
O65 O 0.83924 0.1789 0.31203 0.0
O66 O 0.94859 0.34409 0.54226 0.0
O67 O 0.94367 0.34478 0.71808 0.0
H68 H 0.9824 0.48113 0.30297 0.0
H69 H 0.79987 0.19673 0.68428 0.0
O70 O 0.79371 0.27014 0.77441 0.0
H71 H 0.96123 0.20441 0.81364 0.0
H72 H 0.83421 0.24316 0.11172 0.0
H73 H 0.9646 0.37635 0.88031 0.0
H74 H 0.94807 0.27948 0.83534 0.0
H75 H 0.80731 0.26086 0.94862 0.0
O76 O 0.85223 0.24987 0.40329 0.0
H77 H 0.95274 0.42421 0.44941 0.0
H78 H 0.8322 0.30334 0.27065 0.0
H79 H 0.99373 0.35702 0.04223 0.0
H80 H 0.81373 0.12214 0.65308 0.0
H81 H 0.92839 0.28996 0.16044 0.0
H82 H 0.89513 0.12559 0.71768 0.0
O83 O 0.86658 0.37724 0.72856 0.0
H84 H 0.68346 0.21726 0.59029 0.0
H85 H 0.81277 0.37404 0.40237 0.0
H86 H 0.72204 0.3567 0.42316 0.0
H87 H 0.65662 0.27564 0.51961 0.0
H88 H 0.76805 0.22622 0.53979 0.0
H89 H 0.85471 0.36166 0.12562 0.0
H90 H 0.93181 0.45423 0.13946 0.0
O91 O 0.87693 0.38599 0.55698 0.0
C92 C 0.97044 0.3539 0.63659 0.0
C93 C 0.94868 0.44309 0.29377 0.0
C94 C 0.87837 0.37577 0.19375 0.0
N95 N 0.89269 0.35969 0.36675 0.0
C96 C 0.93299 0.40969 0.37644 0.0
C97 C 0.86575 0.34202 0.2766 0.0
C98 C 0.92059 0.42685 0.20213 0.0
C99 C 0.83503 0.1986 0.71388 0.0
N100 N 0.87231 0.24294 0.76336 0.0
C101 C 0.84299 0.1563 0.69485 0.0
C102 C 0.88861 0.15825 0.73103 0.0
C103 C 0.92546 0.20228 0.7855 0.0
C104 C 0.91695 0.24457 0.79997 0.0
C105 C 0.8631 0.27334 0.06217 0.0
C106 C 0.93538 0.34881 0.93138 0.0
C107 C 0.84794 0.28443 0.96804 0.0
N108 N 0.88423 0.31972 0.89979 0.0
C109 C 0.95229 0.33786 0.02403 0.0
C110 C 0.91589 0.29952 0.08936 0.0
C111 C 0.87138 0.40314 0.64371 0.0
C112 C 0.71002 0.24886 0.54038 0.0
C113 C 0.7833 0.33695 0.43455 0.0
C114 C 0.73229 0.32817 0.44939 0.0
C115 C 0.69579 0.28369 0.50328 0.0
N116 N 0.79636 0.3008 0.4673 0.0
C117 C 0.75917 0.25597 0.51556 0.0
Co118 Co 0.56013 0.87522 0.09166 0.0
Co119 Co 0.54489 0.87097 0.82767 0.0
O120 O 0.56149 0.84957 0.95273 0.0
C121 C 0.48401 0.7618 0.12474 0.0
O122 O 0.44696 0.75935 0.06441 0.0
C123 C 0.60215 0.81326 0.7071 0.0
O124 O 0.6247 0.79964 0.77808 0.0
O125 O 0.59914 0.95076 0.87491 0.0
O126 O 0.59367 0.94716 0.04901 0.0
H127 H 0.43716 0.93082 0.7519 0.0
H128 H 0.60695 0.80895 0.03177 0.0
O129 O 0.52726 0.80371 0.13898 0.0
H130 H 0.75685 0.97889 0.14123 0.0
H131 H 0.63135 0.88882 0.43513 0.0
H132 H 0.55994 0.96675 0.1965 0.0
H133 H 0.66603 0.9596 0.16963 0.0
H134 H 0.57058 0.83582 0.29682 0.0
O135 O 0.5962 0.85476 0.72719 0.0
H136 H 0.52636 0.95624 0.79322 0.0
H137 H 0.51994 0.83812 0.59642 0.0
H138 H 0.6199 0.01969 0.33536 0.0
H139 H 0.6974 0.82859 -0.00544 0.0
H140 H 0.6578 0.98154 0.45292 0.0
H141 H 0.77335 0.9143 0.04862 0.0
O142 O 0.48733 0.86996 0.0731 0.0
H143 H 0.47408 0.68163 0.89105 0.0
H144 H 0.42926 0.81027 0.76962 0.0
H145 H 0.36345 0.71715 0.7545 0.0
H146 H 0.38562 0.65238 0.82843 0.0
H147 H 0.5425 0.77204 0.87077 0.0
H148 H 0.43454 0.82477 0.52409 0.0
H149 H 0.38664 0.85644 0.62794 0.0
O150 O 0.48669 0.87703 0.90215 0.0
C151 C 0.60974 0.97323 0.96826 0.0
C152 C 0.45596 0.91341 0.70897 0.0
C153 C 0.45534 0.85269 0.58422 0.0
N154 N 0.5252 0.89457 0.70599 0.0
C155 C 0.50759 0.92796 0.73167 0.0
C156 C 0.50448 0.86276 0.62154 0.0
C157 C 0.42858 0.87315 0.63842 0.0
C158 C 0.63948 0.84628 0.05634 0.0
N159 N 0.63033 0.8829 0.10296 0.0
C160 C 0.6908 0.85732 0.0342 0.0
C161 C 0.73336 0.90536 0.06457 0.0
C162 C 0.72411 0.94143 0.11712 0.0
C163 C 0.67221 0.92968 0.13499 0.0
C164 C 0.61364 0.90503 0.3859 0.0
C165 C 0.57375 0.94849 0.25053 0.0
C166 C 0.57932 0.87546 0.3066 0.0
N167 N 0.56456 0.89892 0.23352 0.0
C168 C 0.60819 0.97915 0.3284 0.0
C169 C 0.62935 0.95765 0.39476 0.0
C170 C 0.46557 0.87414 -0.01048 0.0
C171 C 0.46533 0.70901 0.85392 0.0
C172 C 0.44131 0.78203 0.78187 0.0
C173 C 0.40273 0.72926 0.78129 0.0
C174 C 0.41491 0.69283 0.82018 0.0
N175 N 0.49242 0.79743 0.80555 0.0
C176 C 0.50409 0.76085 0.84157 0.0
Co177 Co 0.67326 0.54289 0.43994 0.0
Co178 Co 0.67384 0.53802 0.17609 0.0
O179 O 0.70799 0.54563 0.30567 0.0
C180 C 0.71122 0.47044 0.4753 0.0
O181 O 0.68159 0.44105 0.39915 0.0
C182 C 0.77308 0.56833 0.01415 0.0
O183 O 0.75283 0.51846 -0.00557 0.0
O184 O 0.66149 0.60069 0.22986 0.0
O185 O 0.63078 0.57137 0.38932 0.0
H186 H 0.50358 0.46179 0.08507 0.0
H187 H 0.78779 0.60798 0.37545 0.0
O188 O 0.71316 0.51324 0.49929 0.0
H189 H 0.7411 0.73197 0.53339 0.0
H190 H 0.68432 0.58318 0.81708 0.0
H191 H 0.56522 0.50782 0.51874 0.0
H192 H 0.6803 0.6375 0.54548 0.0
H193 H 0.71824 0.57304 0.64948 0.0
O194 O 0.74854 0.5836 0.08415 0.0
H195 H 0.5783 0.53871 0.14585 0.0
H196 H 0.67689 0.51655 0.93747 0.0
H197 H 0.53067 0.51694 0.68648 0.0
H198 H 0.84497 0.7022 0.34711 0.0
H199 H 0.58713 0.54993 0.8363 0.0
H200 H 0.82297 0.76543 0.42877 0.0
O201 O 0.61208 0.47079 0.40801 0.0
H202 H 0.7728 0.44033 0.18207 0.0
H203 H 0.60307 0.42547 0.09857 0.0
H204 H 0.62166 0.35737 0.03476 0.0
H205 H 0.70934 0.36709 0.06783 0.0
H206 H 0.75719 0.51247 0.22068 0.0
H207 H 0.59813 0.44109 0.85876 0.0
H208 H 0.51386 0.40809 0.95549 0.0
O209 O 0.60393 0.48614 0.24288 0.0
C210 C 0.64053 0.60405 0.31945 0.0
C211 C 0.54026 0.47585 0.04458 0.0
C212 C 0.5945 0.46372 0.9209 0.0
N213 N 0.63287 0.52898 0.05295 0.0
C214 C 0.58412 0.52106 0.07758 0.0
C215 C 0.63873 0.50659 0.96511 0.0
C216 C 0.54603 0.44608 0.96899 0.0
C217 C 0.77633 0.63437 0.40912 0.0
N218 N 0.73003 0.61565 0.46314 0.0
C219 C 0.80941 0.68818 0.39304 0.0
C220 C 0.7972 0.72363 0.43912 0.0
C221 C 0.7516 0.70488 0.49856 0.0
C222 C 0.71795 0.65077 0.50807 0.0
C223 C 0.65761 0.56543 0.75279 0.0
C224 C 0.59127 0.52316 0.58452 0.0
C225 C 0.6766 0.5595 0.65781 0.0
N226 N 0.64373 0.54013 0.57451 0.0
C227 C 0.57109 0.5276 0.67892 0.0
C228 C 0.60404 0.54829 0.76324 0.0
C229 C 0.58589 0.45819 0.32341 0.0
C230 C 0.73662 0.438 0.15684 0.0
C231 C 0.64202 0.43122 0.10777 0.0
C232 C 0.6517 0.39155 0.07526 0.0
C233 C 0.70044 0.39639 0.09605 0.0
N234 N 0.68173 0.47694 0.14831 0.0
C235 C 0.72666 0.47827 0.18188 0.0
Co236 Co 0.12317 0.67204 0.75143 0.0
Co237 Co 0.13151 0.6693 0.4878 0.0
O238 O 0.15318 0.70348 0.61769 0.0
C239 C 0.23641 0.71345 0.7874 0.0
O240 O 0.23797 0.67988 0.72246 0.0
C241 C 0.20505 0.78436 0.37639 0.0
O242 O 0.24539 0.79661 0.43524 0.0
O243 O 0.05322 0.6512 0.53425 0.0
O244 O 0.05215 0.62838 0.70214 0.0
H245 H 0.06827 0.51142 0.2853 0.0
H246 H 0.17271 0.78523 0.69279 0.0
O247 O 0.19418 0.71443 0.80537 0.0
H248 H 0.00167 0.74153 0.84445 0.0
H249 H 0.10032 0.70917 0.11155 0.0
H250 H 0.0526 0.56617 0.85788 0.0
H251 H 0.0314 0.67702 0.8433 0.0
H252 H 0.14353 0.72566 0.94341 0.0
O253 O 0.15771 0.7438 0.4029 0.0
H254 H 0.0522 0.56112 0.41636 0.0
H255 H 0.16819 0.70072 0.26894 0.0
H256 H 0.01102 0.54607 0.03391 0.0
H257 H 0.14438 0.8507 0.68814 0.0
H258 H 0.03402 0.6205 0.15671 0.0
H259 H 0.05774 0.82898 0.76458 0.0
O260 O 0.13477 0.61119 0.72304 0.0
H261 H 0.32942 0.75607 0.52979 0.0
H262 H 0.17251 0.60298 0.39042 0.0
H263 H 0.25854 0.61475 0.34816 0.0
H264 H 0.33798 0.69147 0.41491 0.0
H265 H 0.24221 0.74233 0.56866 0.0
H266 H 0.17198 0.65266 0.12434 0.0
H267 H 0.1259 0.55853 0.12993 0.0
O268 O 0.11328 0.59948 0.55424 0.0
C269 C 0.02859 0.63172 0.62453 0.0
C270 C 0.08482 0.5527 0.27438 0.0
C271 C 0.14552 0.63231 0.18801 0.0
N272 N 0.10939 0.63473 0.35412 0.0
C273 C 0.07742 0.58167 0.3515 0.0
C274 C 0.14036 0.65995 0.26969 0.0
C275 C 0.11856 0.57848 0.19144 0.0
C276 C 0.13641 0.77612 0.72845 0.0
N277 N 0.1056 0.72792 0.77125 0.0
C278 C 0.11973 0.81298 0.72431 0.0
C279 C 0.07111 0.80073 0.76678 0.0
C280 C 0.03981 0.75184 0.81194 0.0
C281 C 0.0574 0.71564 0.81228 0.0
C282 C 0.08992 0.67733 0.05734 0.0
C283 C 0.06365 0.59706 0.9146 0.0
C284 C 0.11514 0.68634 0.96302 0.0
N285 N 0.09922 0.64772 0.89014 0.0
C286 C 0.0396 0.58569 0.01238 0.0
C287 C 0.05163 0.62678 0.08165 0.0
C288 C 0.12189 0.58334 0.6398 0.0
C289 C 0.29522 0.72284 0.49607 0.0
C290 C 0.20642 0.63888 0.41434 0.0
C291 C 0.2554 0.64409 0.39363 0.0
C292 C 0.30009 0.68689 0.43341 0.0
N293 N 0.2018 0.67743 0.46538 0.0
C294 C 0.24522 0.71575 0.51516 0.0
Co295 Co 0.43821 0.1261 0.09178 0.0
Co296 Co 0.44914 0.12538 0.82832 0.0
O297 O 0.4426 0.15429 0.95413 0.0
C298 C 0.51945 0.2365 0.13167 0.0
O299 O 0.5577 0.23552 0.08024 0.0
C300 C 0.38696 0.17669 0.68059 0.0
O301 O 0.33691 0.16289 0.67436 0.0
O302 O 0.38916 0.04881 0.88141 0.0
O303 O 0.40496 0.05415 0.05138 0.0
H304 H 0.44671 0.9851 0.6155 0.0
H305 H 0.39397 0.19253 0.0262 0.0
O306 O 0.47312 0.19753 0.13646 0.0
H307 H 0.24034 0.0274 0.14022 0.0
H308 H 0.37701 0.1341 0.43858 0.0
H309 H 0.4211 0.02774 0.20866 0.0
H310 H 0.32953 0.04285 0.16517 0.0
H311 H 0.44308 0.17505 0.30205 0.0
O312 O 0.39842 0.14848 0.74656 0.0
H313 H 0.45589 0.03236 0.77877 0.0
H314 H 0.46762 0.15946 0.61001 0.0
H315 H 0.35537 0.98489 0.34805 0.0
H316 H 0.3048 0.17702 -0.00796 0.0
H317 H 0.33061 0.03728 0.45991 0.0
H318 H 0.2269 0.09371 0.0491 0.0
O319 O 0.50874 0.12957 0.06913 0.0
H320 H 0.55204 0.32293 0.81426 0.0
H321 H 0.55458 0.16004 0.73809 0.0
H322 H 0.63286 0.24478 0.70088 0.0
H323 H 0.63159 0.32596 0.73413 0.0
H324 H 0.47353 0.23658 0.85035 0.0
H325 H 0.47584 0.12114 0.44966 0.0
H326 H 0.45433 0.02871 0.44972 0.0
O327 O 0.50294 0.11106 0.89693 0.0
C328 C 0.38299 0.02718 0.974 0.0
C329 C 0.45349 0.02415 0.61408 0.0
C330 C 0.46586 0.09901 0.52006 0.0
N331 N 0.45658 0.096 0.70272 0.0
C332 C 0.45639 0.05001 0.70562 0.0
C333 C 0.46285 0.12132 0.61175 0.0
C334 C 0.4573 0.04845 0.52093 0.0
C335 C 0.36073 0.15672 0.05244 0.0
N336 N 0.36833 0.11985 0.10055 0.0
C337 C 0.31007 0.14779 0.03197 0.0
C338 C 0.2664 0.10108 0.0639 0.0
C339 C 0.27395 0.06412 0.11573 0.0
C340 C 0.32523 0.0739 0.13229 0.0
C341 C 0.38522 0.11006 0.38665 0.0
C342 C 0.41178 0.05133 0.25838 0.0
C343 C 0.42241 0.13311 0.30737 0.0
N344 N 0.43055 0.10309 0.23636 0.0
C345 C 0.37434 0.02661 0.33713 0.0
C346 C 0.35974 0.05599 0.39935 0.0
C347 C 0.52709 0.12095 -0.01584 0.0
C348 C 0.55266 0.2872 0.79721 0.0
C349 C 0.55321 0.19549 0.75336 0.0
C350 C 0.59794 0.24333 0.73253 0.0
C351 C 0.59732 0.28923 0.75343 0.0
N352 N 0.50853 0.19324 0.79237 0.0
C353 C 0.50836 0.23832 0.81732 0.0
Co354 Co 0.56461 0.68379 0.21169 0.0
Co355 Co 0.54514 0.67191 0.47389 0.0
O356 O 0.56468 0.71025 0.35013 0.0
C357 C 0.4863 0.7163 0.15681 0.0
O358 O 0.44434 0.67045 0.17311 0.0
C359 C 0.59265 0.78532 0.59793 0.0
O360 O 0.58261 0.80841 0.52344 0.0
O361 O 0.60258 0.64926 0.43199 0.0
O362 O 0.59572 0.6435 0.25756 0.0
H363 H 0.43311 0.50422 0.56563 0.0
H364 H 0.61349 0.79534 0.27533 0.0
O365 O 0.53304 0.72507 0.16987 0.0
H366 H 0.7628 0.7752 0.16206 0.0
H367 H 0.57176 0.70975 0.82724 0.0
H368 H 0.6037 0.61756 0.1017 0.0
H369 H 0.67279 0.70386 0.13866 0.0
H370 H 0.54552 0.71562 0.00044 0.0
O371 O 0.59272 0.74055 0.5768 0.0
H372 H 0.52344 0.56585 0.51523 0.0
H373 H 0.51892 0.6839 0.69506 0.0
H374 H 0.63763 0.61859 0.93389 0.0
H375 H 0.70363 0.86638 0.30918 0.0
H376 H 0.619 0.66181 0.78874 0.0
H377 H 0.77955 0.85686 0.25188 0.0
O378 O 0.49044 0.61755 0.22919 0.0
H379 H 0.46465 0.78597 0.4322 0.0
H380 H 0.4281 0.61307 0.53332 0.0
H381 H 0.36842 0.64356 0.59773 0.0
H382 H 0.39127 0.73491 0.55965 0.0
H383 H 0.52501 0.7567 0.39158 0.0
H384 H 0.43795 0.61588 0.78208 0.0
H385 H 0.3878 0.53453 0.69139 0.0
O386 O 0.48989 0.60704 0.3992 0.0
C387 C 0.61386 0.63677 0.33943 0.0
C388 C 0.45418 0.5417 0.60441 0.0
C389 C 0.45759 0.60597 0.72393 0.0
N390 N 0.52436 0.62904 0.59632 0.0
C391 C 0.50573 0.57729 0.57612 0.0
C392 C 0.50541 0.64313 0.67966 0.0
C393 C 0.42925 0.55762 0.67576 0.0
C394 C 0.6457 0.79075 0.24899 0.0
N395 N 0.6361 0.74511 0.20163 0.0
C396 C 0.69702 0.83111 0.26945 0.0
C397 C 0.73952 0.82577 0.23737 0.0
C398 C 0.7301 0.78018 0.18622 0.0
C399 C 0.67815 0.73995 0.17028 0.0
C400 C 0.57759 0.68836 0.88709 0.0
C401 C 0.59344 0.63595 0.04372 0.0
C402 C 0.56149 0.69044 -0.01226 0.0
N403 N 0.5697 0.66477 0.06687 0.0
C404 C 0.61335 0.63623 0.9457 0.0
C405 C 0.60422 0.66157 0.86578 0.0
C406 C 0.46796 0.59107 0.31218 0.0
C407 C 0.4582 0.74993 0.46621 0.0
C408 C 0.43985 0.65358 0.52706 0.0
C409 C 0.4047 0.66995 0.55781 0.0
C410 C 0.41659 0.72053 0.53337 0.0
N411 N 0.48842 0.6888 0.48884 0.0
C412 C 0.49324 0.73276 0.44332 0.0
Co413 Co 0.87062 0.54623 0.52409 0.0
Co414 Co 0.86708 0.53921 0.78918 0.0
O415 O 0.84506 0.55115 0.6613 0.0
C416 C 0.7586 0.47061 0.49905 0.0
O417 O 0.75955 0.43786 0.56601 0.0
C418 C 0.82363 0.60561 0.94784 0.0
O419 O 0.84114 0.65579 0.96322 0.0
O420 O 0.94598 0.59437 0.73562 0.0
O421 O 0.94401 0.579 0.56294 0.0
H422 H 0.94352 0.44904 0.86316 0.0
H423 H 0.8167 0.60627 0.59512 0.0
O424 O 0.79859 0.51447 0.4801 0.0
H425 H 0.98287 0.73577 0.42805 0.0
H426 H 0.86278 0.57791 0.14989 0.0
H427 H 0.9524 0.52998 0.41328 0.0
H428 H 0.95241 0.64187 0.41362 0.0
H429 H 0.83264 0.56361 0.3285 0.0
O430 O 0.85085 0.59403 0.8774 0.0
H431 H 0.96112 0.53692 0.8364 0.0
H432 H 0.8283 0.50747 0.01537 0.0
H433 H 0.98514 0.54675 0.23211 0.0
H434 H 0.85047 0.70016 0.62396 0.0
H435 H 0.94099 0.57119 0.10135 0.0
H436 H 0.93359 0.76597 0.53868 0.0
O437 O 0.86341 0.47351 0.55372 0.0
H438 H 0.67596 0.48007 0.76843 0.0
H439 H 0.8025 0.42201 0.83949 0.0
H440 H 0.70759 0.36045 0.86725 0.0
H441 H 0.64386 0.39165 0.83892 0.0
H442 H 0.77058 0.54261 0.7617 0.0
H443 H 0.81733 0.4218 0.06827 0.0
H444 H 0.86775 0.38888 0.97193 0.0
O445 O 0.87493 0.47963 0.72462 0.0
C446 C 0.96902 0.60237 0.64274 0.0
C447 C 0.92088 0.4629 0.90538 0.0
C448 C 0.84936 0.44784 0.0186 0.0
N449 N 0.89212 0.5245 0.91455 0.0
C450 C 0.93122 0.51379 0.8924 0.0
C451 C 0.85675 0.49685 -0.00936 0.0
C452 C 0.87852 0.42922 0.96669 0.0
C453 C 0.85382 0.63408 0.55977 0.0
N454 N 0.88247 0.61737 0.50347 0.0
C455 C 0.87263 0.68754 0.57626 0.0
C456 C 0.9191 0.72444 0.52809 0.0
C457 C 0.94647 0.7075 0.4654 0.0
C458 C 0.92801 0.65378 0.45521 0.0
C459 C 0.882 0.5662 0.20625 0.0
C460 C 0.93198 0.53923 0.35521 0.0
C461 C 0.86437 0.55675 0.30788 0.0
N462 N 0.8897 0.54421 0.38153 0.0
C463 C 0.9508 0.54887 0.25365 0.0
C464 C 0.92586 0.56257 0.17935 0.0
C465 C 0.86986 0.45512 0.64011 0.0
C466 C 0.70351 0.46789 0.79095 0.0
C467 C 0.77531 0.43616 0.83349 0.0
C468 C 0.72147 0.40072 0.84548 0.0
C469 C 0.68558 0.41761 0.82734 0.0
N470 N 0.79303 0.48791 0.81367 0.0
C471 C 0.75742 0.50294 0.78648 0.0
Co472 Co 0.31257 0.86481 0.89878 0.0
Co473 Co 0.33747 0.87836 0.15603 0.0
O474 O 0.29589 0.84351 0.04144 0.0
C475 C 0.28361 0.7595 0.82288 0.0
O476 O 0.32811 0.77809 0.77171 0.0
C477 C 0.22116 0.81269 0.26888 0.0
O478 O 0.19151 0.7881 0.18896 0.0
O479 O 0.34616 0.94974 0.0956 0.0
O480 O 0.35251 0.93997 0.92543 0.0
H481 H 0.51312 0.98343 0.31991 0.0
H482 H 0.20649 0.79939 -0.01328 0.0
O483 O 0.27325 0.7896 0.87543 0.0
H484 H 0.20377 0.95341 0.85068 0.0
H485 H 0.22465 0.84054 0.5662 0.0
H486 H 0.38117 0.95967 0.76298 0.0
H487 H 0.28091 0.94343 0.82491 0.0
H488 H 0.2535 0.80766 0.70792 0.0
O489 O 0.26795 0.85537 0.25276 0.0
H490 H 0.45079 0.96438 0.17809 0.0
H491 H 0.32375 0.87916 0.38768 0.0
H492 H 0.353 0.9935 0.61928 0.0
H493 H 0.12774 0.80758 0.01502 0.0
H494 H 0.27527 0.93347 0.5174 0.0
H495 H 0.12655 0.88597 0.94878 0.0
O496 O 0.38239 0.86265 0.91155 0.0
H497 H 0.26155 0.68241 0.15246 0.0
H498 H 0.41327 0.85117 0.25642 0.0
H499 H 0.41751 0.77158 0.27499 0.0
H500 H 0.34306 0.68663 0.21792 0.0
H501 H 0.25725 0.7629 0.13719 0.0
H502 H 0.38368 0.91038 0.52747 0.0
H503 H 0.48142 0.95235 0.49331 0.0
O504 O 0.40279 0.89108 0.07598 0.0
C505 C 0.35631 0.96853 0.00025 0.0
C506 C 0.47161 0.96038 0.33325 0.0
C507 C 0.39946 0.91759 0.451 0.0
N508 N 0.38284 0.91585 0.27111 0.0
C509 C 0.43564 0.94892 0.2539 0.0
C510 C 0.36471 0.90218 0.36963 0.0
C511 C 0.45341 0.94261 0.43171 0.0
C512 C 0.20501 0.83173 0.95254 0.0
N513 N 0.24763 0.86878 0.89895 0.0
C514 C 0.16087 0.83705 0.97116 0.0
C515 C 0.16033 0.8811 0.93448 0.0
C516 C 0.20348 0.91874 0.87898 0.0
C517 C 0.24701 0.91212 0.86253 0.0
C518 C 0.26129 0.86607 0.60504 0.0
C519 C 0.34893 0.93218 0.71767 0.0
C520 C 0.27826 0.84765 0.68724 0.0
N521 N 0.31941 0.88112 0.74906 0.0
C522 C 0.33306 0.95201 0.63567 0.0
C523 C 0.28884 0.91858 0.57916 0.0
C524 C 0.41359 0.87557 -0.00843 0.0
C525 C 0.2944 0.71946 0.17738 0.0
C526 C 0.37841 0.81466 0.23799 0.0
C527 C 0.3819 0.76938 0.2463 0.0
C528 C 0.34018 0.72177 0.21318 0.0
N529 N 0.33404 0.81299 0.19943 0.0
C530 C 0.29195 0.76553 0.1711 0.0
Co531 Co 0.4443 0.31889 0.20747 0.0
Co532 Co 0.45392 0.32833 0.46761 0.0
O533 O 0.45037 0.29448 0.34237 0.0
C534 C 0.52071 0.28404 0.16092 0.0
O535 O 0.56032 0.3222 0.21087 0.0
C536 C 0.42445 0.22458 0.61022 0.0
O537 O 0.47462 0.24043 0.61685 0.0
O538 O 0.38984 0.33803 0.41464 0.0
O539 O 0.41677 0.36203 0.25219 0.0
H540 H 0.44126 0.4589 0.69124 0.0
H541 H 0.39486 0.20858 0.27668 0.0
O542 O 0.47508 0.27879 0.15943 0.0
H543 H 0.24548 0.22938 0.17318 0.0
H544 H 0.38246 0.24996 0.86161 0.0
H545 H 0.42077 0.39779 0.09309 0.0
H546 H 0.33549 0.29908 0.14235 0.0
H547 H 0.44851 0.27571 -0.0044 0.0
O548 O 0.40921 0.25234 0.55145 0.0
H549 H 0.44727 0.42219 0.52374 0.0
H550 H 0.47614 0.31461 0.68316 0.0
H551 H 0.35681 0.37483 0.95391 0.0
H552 H 0.30478 0.13878 0.31731 0.0
H553 H 0.33365 0.298 0.84248 0.0
H554 H 0.2289 0.14888 0.26551 0.0
O555 O 0.51652 0.38324 0.2309 0.0
H556 H 0.59021 0.27248 0.43704 0.0
H557 H 0.55191 0.40507 0.57571 0.0
H558 H 0.63532 0.41165 0.61706 0.0
H559 H 0.65774 0.34901 0.54354 0.0
H560 H 0.50318 0.26198 0.41213 0.0
H561 H 0.4828 0.35539 0.83941 0.0
H562 H 0.46197 0.42896 0.85219 0.0
O563 O 0.50265 0.39816 0.39821 0.0
C564 C 0.38792 0.35891 0.32514 0.0
C565 C 0.44941 0.42769 0.68912 0.0
C566 C 0.47136 0.36968 0.77478 0.0
N567 N 0.4565 0.36262 0.59422 0.0
C568 C 0.45114 0.40566 0.59519 0.0
C569 C 0.46624 0.34465 0.68304 0.0
C570 C 0.46079 0.41049 0.77956 0.0
C571 C 0.36264 0.21307 0.25225 0.0
N572 N 0.37219 0.2579 0.20297 0.0
C573 C 0.31138 0.17355 0.27653 0.0
C574 C 0.26885 0.17919 0.24753 0.0
C575 C 0.27815 0.22405 0.1949 0.0
C576 C 0.33005 0.26324 0.17436 0.0
C577 C 0.39012 0.28207 0.91336 0.0
C578 C 0.41424 0.36616 0.04243 0.0
C579 C 0.42763 0.29689 -0.00836 0.0
N580 N 0.435 0.33454 0.06341 0.0
C581 C 0.37699 0.35306 0.96368 0.0
C582 C 0.36344 0.3095 0.90152 0.0
C583 C 0.53215 0.41005 0.31686 0.0
C584 C 0.58162 0.30093 0.47074 0.0
C585 C 0.55797 0.37333 0.55153 0.0
C586 C 0.60665 0.37871 0.572 0.0
C587 C 0.61893 0.34291 0.52978 0.0
N588 N 0.51961 0.3301 0.50039 0.0
C589 C 0.53202 0.29534 0.45603 0.0
Co590 Co 0.12684 0.44509 0.53492 0.0
Co591 Co 0.12808 0.45695 0.79703 0.0
O592 O 0.15831 0.4527 0.67055 0.0
C593 C 0.23737 0.52551 0.48732 0.0
O594 O 0.2391 0.56307 0.54527 0.0
C595 C 0.20703 0.43113 0.93727 0.0
O596 O 0.24215 0.48104 0.93965 0.0
O597 O 0.05449 0.39088 0.74678 0.0
O598 O 0.0547 0.41194 0.58115 0.0
H599 H 0.98606 0.45669 0.01102 0.0
H600 H 0.19794 0.40544 0.59179 0.0
O601 O 0.1974 0.47996 0.48355 0.0
H602 H 0.03055 0.24763 0.50033 0.0
H603 H 0.12675 0.37727 0.19077 0.0
H604 H 0.02749 0.42836 0.42494 0.0
H605 H 0.04311 0.33512 0.47056 0.0
H606 H 0.17143 0.44674 0.32048 0.0
O607 O 0.16252 0.41495 0.8813 0.0
H608 H 0.03169 0.45995 0.846 0.0
H609 H 0.15907 0.47195 0.0201 0.0
H610 H 0.97955 0.35977 0.29062 0.0
H611 H 0.18586 0.31816 0.6301 0.0
H612 H 0.02906 0.33029 0.18037 0.0
H613 H 0.1013 0.23832 0.58491 0.0
O614 O 0.1299 0.51438 0.55575 0.0
H615 H 0.31686 0.596 0.75024 0.0
H616 H 0.14901 0.55388 0.91342 0.0
H617 H 0.22594 0.63839 0.94964 0.0
H618 H 0.31085 0.6609 0.8716 0.0
H619 H 0.24228 0.50893 0.73324 0.0
H620 H 0.11644 0.47458 0.17786 0.0
H621 H 0.02376 0.45464 0.17284 0.0
O622 O 0.10564 0.50461 0.72539 0.0
C623 C 0.03021 0.38514 0.65716 0.0
C624 C 0.02363 0.45964 0.01041 0.0
C625 C 0.09506 0.46478 0.10666 0.0
N626 N 0.09535 0.45983 0.92329 0.0
C627 C 0.04942 0.46066 0.91932 0.0
C628 C 0.11944 0.46434 0.01568 0.0
C629 C 0.04524 0.4587 0.10362 0.0
C630 C 0.16142 0.37108 0.57151 0.0
N631 N 0.12193 0.37631 0.52808 0.0
C632 C 0.15455 0.32166 0.59386 0.0
C633 C 0.10714 0.27689 0.56849 0.0
C634 C 0.06764 0.28211 0.5204 0.0
C635 C 0.07558 0.33224 0.50144 0.0
C636 C 0.10398 0.38631 0.24474 0.0
C637 C 0.04881 0.41673 0.37437 0.0
C638 C 0.12922 0.42506 0.32029 0.0
N639 N 0.10094 0.43497 0.39246 0.0
C640 C 0.02169 0.37785 0.29922 0.0
C641 C 0.04938 0.36097 0.23725 0.0
C642 C 0.11884 0.53093 0.64002 0.0
C643 C 0.28126 0.58654 0.79204 0.0
C644 C 0.18655 0.56061 0.88495 0.0
C645 C 0.22981 0.6099 0.90262 0.0
C646 C 0.27756 0.62276 0.85648 0.0
N647 N 0.19133 0.52312 0.82993 0.0
C648 C 0.2378 0.53669 0.7805 0.0
Co649 Co 0.66826 0.12543 0.87128 0.0
Co650 Co 0.66637 0.13095 0.13248 0.0
O651 O 0.70005 0.1579 0.00388 0.0
C652 C 0.71175 0.23709 0.83725 0.0
O653 O 0.68132 0.23915 0.90983 0.0
C654 C 0.76918 0.19819 0.28154 0.0
O655 O 0.74588 0.22308 0.31663 0.0
O656 O 0.65336 0.05568 0.08102 0.0
O657 O 0.62354 0.05504 0.92227 0.0
H658 H 0.50934 0.07901 0.33375 0.0
H659 H 0.78227 0.17822 0.93364 0.0
O660 O 0.70931 0.19421 0.81109 0.0
H661 H 0.74015 0.00322 0.81078 0.0
H662 H 0.68756 0.0682 0.52136 0.0
H663 H 0.56109 0.06283 0.78093 0.0
H664 H 0.67722 0.03384 0.78673 0.0
H665 H 0.71809 0.12938 0.66878 0.0
O666 O 0.74346 0.15963 0.21121 0.0
H667 H 0.55162 0.05739 0.19655 0.0
H668 H 0.69304 0.12417 0.36425 0.0
H669 H 0.52975 0.00929 0.62303 0.0
H670 H 0.84394 0.14711 0.96819 0.0
H671 H 0.58977 0.00643 0.50231 0.0
H672 H 0.82338 0.05879 0.90644 0.0
O673 O 0.60771 0.13787 0.89928 0.0
H674 H 0.76411 0.32878 0.14528 0.0
H675 H 0.59531 0.17028 0.21814 0.0
H676 H 0.60908 0.25468 0.27664 0.0
H677 H 0.69509 0.33454 0.24766 0.0
H678 H 0.75003 0.24197 0.0941 0.0
H679 H 0.65264 0.14667 0.50493 0.0
H680 H 0.56232 0.12819 0.49179 0.0
O681 O 0.59604 0.11307 0.06571 0.0
C682 C 0.63346 0.03193 -0.00884 0.0
C683 C 0.54992 0.0897 0.34266 0.0
C684 C 0.63123 0.13037 0.43526 0.0
N685 N 0.62878 0.10216 0.26173 0.0
C686 C 0.57505 0.07917 0.26222 0.0
C687 C 0.6548 0.11962 0.35298 0.0
C688 C 0.57918 0.11766 0.4285 0.0
C689 C 0.77251 0.14009 0.90609 0.0
N690 N 0.7257 0.10898 0.8567 0.0
C691 C 0.80775 0.12235 0.92653 0.0
C692 C 0.79627 0.0729 0.89185 0.0
C693 C 0.74986 0.04197 0.83753 0.0
C694 C 0.71476 0.06035 0.8218 0.0
C695 C 0.65953 0.06749 0.57713 0.0
C696 C 0.58894 0.0665 0.72184 0.0
C697 C 0.67651 0.10248 0.66005 0.0
N698 N 0.64176 0.09772 0.7361 0.0
C699 C 0.57059 0.03519 0.63439 0.0
C700 C 0.60566 0.03342 0.56535 0.0
C701 C 0.58013 0.1245 -0.01697 0.0
C702 C 0.72756 0.29366 0.16427 0.0
C703 C 0.63376 0.20373 0.20837 0.0
C704 C 0.64087 0.25214 0.23963 0.0
C705 C 0.68874 0.29709 0.22054 0.0
N706 N 0.67409 0.19959 0.16406 0.0
C707 C 0.71897 0.24434 0.13431 0.0
loop_
_geom_bond_atom_site_label_1
_geom_bond_atom_site_label_2
_geom_bond_distance
_geom_bond_site_symmetry_2
_ccdc_geom_bond_type
Co0 O2 2.143 . S
Co0 O8 2.074 . S
Co0 O11 2.093 . S
Co0 O24 2.097 . S
Co0 N41 2.151 . S
Co0 N49 2.214 . S
Co1 O2 2.160 . S
Co1 O7 2.058 . S
Co1 O17 2.057 . S
Co1 O32 2.037 . S
Co1 N36 2.145 . S
Co1 N57 2.257 . S
O2 Co0 2.143 . S
O2 Co1 2.160 . S
C3 O4 1.278 . S
C3 O11 1.224 . S
O4 C3 1.278 . S
C5 O6 1.245 . S
C5 O17 1.232 . S
O6 C5 1.245 . S
O7 Co1 2.058 . S
O7 C33 1.269 . S
O8 Co0 2.074 . S
O8 C33 1.257 . S
H9 C34 0.930 . S
H10 C40 0.930 . S
O11 Co0 2.093 . S
O11 C3 1.224 . S
H12 C44 0.929 . S
H13 C46 0.930 . S
H14 C47 0.930 . S
H15 C45 0.929 . S
H16 C48 0.928 . S
O17 Co1 2.057 . S
O17 C5 1.232 . S
H18 C37 0.929 . S
H19 C38 0.929 . S
H20 C50 0.931 . S
H21 C42 0.929 . S
H22 C51 0.930 . S
H23 C43 0.931 . S
O24 Co0 2.097 . S
O24 C52 1.214 . S
H25 C53 0.929 . S
H26 C54 0.929 . S
H27 C55 0.930 . S
H28 C56 0.929 . S
H29 C58 0.930 . S
H30 C35 0.930 . S
H31 C39 0.930 . S
O32 Co1 2.037 . S
O32 C52 1.234 . S
C33 O7 1.269 . S
C33 O8 1.257 . S
C34 H9 0.930 . S
C34 C37 1.388 1_556 S
C34 C39 1.418 . S
C35 H30 0.930 . S
C35 C38 1.404 . S
C35 C39 1.353 . S
N36 Co1 2.145 . S
N36 C37 1.397 . S
N36 C38 1.334 1_554 S
C37 H18 0.929 . S
C37 C34 1.388 1_554 S
C37 N36 1.397 . S
C38 H19 0.929 . S
C38 C35 1.404 . S
C38 N36 1.334 1_556 S
C39 H31 0.930 . S
C39 C34 1.418 . S
C39 C35 1.353 . S
C40 H10 0.930 . S
C40 N41 1.330 . S
C40 C42 1.446 . S
N41 Co0 2.151 . S
N41 C40 1.330 . S
N41 C45 1.418 . S
C42 H21 0.929 . S
C42 C40 1.446 . S
C42 C43 1.332 . S
C43 H23 0.931 . S
C43 C42 1.332 . S
C43 C44 1.267 . S
C44 H12 0.929 . S
C44 C43 1.267 . S
C44 C45 1.251 . S
C45 H15 0.929 . S
C45 N41 1.418 . S
C45 C44 1.251 . S
C46 H13 0.930 . S
C46 C48 1.406 . S
C46 C51 1.261 . S
C47 H14 0.930 . S
C47 N49 1.325 . S
C47 C50 1.357 . S
C48 H16 0.928 . S
C48 C46 1.406 . S
C48 N49 1.261 . S
N49 Co0 2.214 . S
N49 C47 1.325 . S
N49 C48 1.261 . S
C50 H20 0.931 . S
C50 C47 1.357 . S
C50 C51 1.312 . S
C51 H22 0.930 . S
C51 C46 1.261 . S
C51 C50 1.312 . S
C52 O24 1.214 . S
C52 O32 1.234 . S
C53 H25 0.929 . S
C53 C56 1.391 . S
C53 C58 1.391 . S
C54 H26 0.929 . S
C54 C55 1.390 . S
C54 N57 1.391 . S
C55 H27 0.930 . S
C55 C54 1.390 . S
C55 C56 1.392 . S
C56 H28 0.929 . S
C56 C53 1.391 . S
C56 C55 1.392 . S
N57 Co1 2.257 . S
N57 C54 1.391 . S
N57 C58 1.388 . S
C58 H29 0.930 . S
C58 C53 1.391 . S
C58 N57 1.388 . S
Co59 O61 2.143 . S
Co59 O67 2.074 . S
Co59 O70 2.093 . S
Co59 O83 2.097 . S
Co59 N100 2.151 . S
Co59 N108 2.214 . S
Co60 O61 2.160 . S
Co60 O66 2.058 . S
Co60 O76 2.057 . S
Co60 O91 2.037 . S
Co60 N95 2.145 . S
Co60 N116 2.257 . S
O61 Co59 2.143 . S
O61 Co60 2.160 . S
C62 O63 1.278 . S
C62 O70 1.224 . S
O63 C62 1.278 . S
C64 O65 1.245 . S
C64 O76 1.232 . S
O65 C64 1.245 . S
O66 Co60 2.058 . S
O66 C92 1.269 . S
O67 Co59 2.074 . S
O67 C92 1.257 . S
H68 C93 0.930 . S
H69 C99 0.930 . S
O70 Co59 2.093 . S
O70 C62 1.224 . S
H71 C103 0.929 1_455 S
H72 C105 0.930 . S
H73 C106 0.930 . S
H74 C104 0.929 . S
H75 C107 0.928 . S
O76 Co60 2.057 . S
O76 C64 1.232 . S
H77 C96 0.929 . S
H78 C97 0.929 . S
H79 C109 0.931 . S
H80 C101 0.929 . S
H81 C110 0.930 1_455 S
H82 C102 0.931 . S
O83 Co59 2.097 . S
O83 C111 1.214 . S
H84 C112 0.929 . S
H85 C113 0.929 . S
H86 C114 0.930 . S
H87 C115 0.929 . S
H88 C117 0.930 . S
H89 C94 0.930 . S
H90 C98 0.930 . S
O91 Co60 2.037 . S
O91 C111 1.234 . S
C92 O66 1.269 . S
C92 O67 1.257 . S
C93 H68 0.930 . S
C93 C96 1.388 . S
C93 C98 1.418 . S
C94 H89 0.930 . S
C94 C97 1.404 . S
C94 C98 1.353 . S
N95 Co60 2.145 . S
N95 C96 1.397 . S
N95 C97 1.334 . S
C96 H77 0.929 . S
C96 C93 1.388 . S
C96 N95 1.397 . S
C97 H78 0.929 . S
C97 C94 1.404 . S
C97 N95 1.334 . S
C98 H90 0.930 . S
C98 C93 1.418 . S
C98 C94 1.353 . S
C99 H69 0.930 . S
C99 N100 1.330 . S
C99 C101 1.446 . S
N100 Co59 2.151 . S
N100 C99 1.330 . S
N100 C104 1.418 . S
C101 H80 0.929 . S
C101 C99 1.446 . S
C101 C102 1.332 . S
C102 H82 0.931 . S
C102 C101 1.332 . S
C102 C103 1.267 . S
C103 H71 0.929 1_655 S
C103 C102 1.267 . S
C103 C104 1.251 . S
C104 H74 0.929 . S
C104 N100 1.418 . S
C104 C103 1.251 . S
C105 H72 0.930 . S
C105 C107 1.406 1_554 S
C105 C110 1.261 . S
C106 H73 0.930 . S
C106 N108 1.325 . S
C106 C109 1.357 1_655 S
C107 H75 0.928 . S
C107 C105 1.406 1_556 S
C107 N108 1.261 . S
N108 Co59 2.214 . S
N108 C106 1.325 . S
N108 C107 1.261 . S
C109 H79 0.931 . S
C109 C106 1.357 1_455 S
C109 C110 1.312 1_456 S
C110 H81 0.930 1_655 S
C110 C105 1.261 . S
C110 C109 1.312 1_654 S
C111 O83 1.214 . S
C111 O91 1.234 . S
C112 H84 0.929 . S
C112 C115 1.391 . S
C112 C117 1.391 . S
C113 H85 0.929 . S
C113 C114 1.390 . S
C113 N116 1.391 . S
C114 H86 0.930 . S
C114 C113 1.390 . S
C114 C115 1.392 . S
C115 H87 0.929 . S
C115 C112 1.391 . S
C115 C114 1.392 . S
N116 Co60 2.257 . S
N116 C113 1.391 . S
N116 C117 1.388 . S
C117 H88 0.930 . S
C117 C112 1.391 . S
C117 N116 1.388 . S
Co118 O120 2.143 1_554 S
Co118 O126 2.074 . S
Co118 O129 2.093 . S
Co118 O142 2.097 . S
Co118 N159 2.151 . S
Co118 N167 2.214 . S
Co119 O120 2.160 . S
Co119 O125 2.058 . S
Co119 O135 2.057 . S
Co119 O150 2.037 . S
Co119 N154 2.145 . S
Co119 N175 2.257 . S
O120 Co118 2.143 1_556 S
O120 Co119 2.160 . S
C121 O122 1.278 . S
C121 O129 1.224 . S
O122 C121 1.278 . S
C123 O124 1.245 . S
C123 O135 1.232 . S
O124 C123 1.245 . S
O125 Co119 2.058 . S
O125 C151 1.269 . S
O126 Co118 2.074 . S
O126 C151 1.257 1_554 S
H127 C152 0.930 . S
H128 C158 0.930 . S
O129 Co118 2.093 . S
O129 C121 1.224 . S
H130 C162 0.929 1_545 S
H131 C164 0.930 . S
H132 C165 0.930 . S
H133 C163 0.929 . S
H134 C166 0.928 . S
O135 Co119 2.057 . S
O135 C123 1.232 . S
H136 C155 0.929 . S
H137 C156 0.929 . S
H138 C168 0.931 . S
H139 C160 0.929 . S
H140 C169 0.930 1_545 S
H141 C161 0.931 . S
O142 Co118 2.097 . S
O142 C170 1.214 . S
H143 C171 0.929 . S
H144 C172 0.929 . S
H145 C173 0.930 . S
H146 C174 0.929 . S
H147 C176 0.930 . S
H148 C153 0.930 . S
H149 C157 0.930 . S
O150 Co119 2.037 . S
O150 C170 1.234 1_556 S
C151 O125 1.269 . S
C151 O126 1.257 1_556 S
C152 H127 0.930 . S
C152 C155 1.388 . S
C152 C157 1.418 . S
C153 H148 0.930 . S
C153 C156 1.404 . S
C153 C157 1.353 . S
N154 Co119 2.145 . S
N154 C155 1.397 . S
N154 C156 1.334 . S
C155 H136 0.929 . S
C155 C152 1.388 . S
C155 N154 1.397 . S
C156 H137 0.929 . S
C156 C153 1.404 . S
C156 N154 1.334 . S
C157 H149 0.930 . S
C157 C152 1.418 . S
C157 C153 1.353 . S
C158 H128 0.930 . S
C158 N159 1.330 . S
C158 C160 1.446 . S
N159 Co118 2.151 . S
N159 C158 1.330 . S
N159 C163 1.418 . S
C160 H139 0.929 . S
C160 C158 1.446 . S
C160 C161 1.332 . S
C161 H141 0.931 . S
C161 C160 1.332 . S
C161 C162 1.267 . S
C162 H130 0.929 1_565 S
C162 C161 1.267 . S
C162 C163 1.251 . S
C163 H133 0.929 . S
C163 N159 1.418 . S
C163 C162 1.251 . S
C164 H131 0.930 . S
C164 C166 1.406 . S
C164 C169 1.261 . S
C165 H132 0.930 . S
C165 N167 1.325 . S
C165 C168 1.357 1_565 S
C166 H134 0.928 . S
C166 C164 1.406 . S
C166 N167 1.261 . S
N167 Co118 2.214 . S
N167 C165 1.325 . S
N167 C166 1.261 . S
C168 H138 0.931 . S
C168 C165 1.357 1_545 S
C168 C169 1.312 1_545 S
C169 H140 0.930 1_565 S
C169 C164 1.261 . S
C169 C168 1.312 1_565 S
C170 O142 1.214 . S
C170 O150 1.234 1_554 S
C171 H143 0.929 . S
C171 C174 1.391 . S
C171 C176 1.391 . S
C172 H144 0.929 . S
C172 C173 1.390 . S
C172 N175 1.391 . S
C173 H145 0.930 . S
C173 C172 1.390 . S
C173 C174 1.392 . S
C174 H146 0.929 . S
C174 C171 1.391 . S
C174 C173 1.392 . S
N175 Co119 2.257 . S
N175 C172 1.391 . S
N175 C176 1.388 . S
C176 H147 0.930 . S
C176 C171 1.391 . S
C176 N175 1.388 . S
Co177 O179 2.143 . S
Co177 O185 2.074 . S
Co177 O188 2.093 . S
Co177 O201 2.097 . S
Co177 N218 2.151 . S
Co177 N226 2.214 . S
Co178 O179 2.160 . S
Co178 O184 2.058 . S
Co178 O194 2.057 . S
Co178 O209 2.037 . S
Co178 N213 2.145 . S
Co178 N234 2.257 . S
O179 Co177 2.143 . S
O179 Co178 2.160 . S
C180 O181 1.278 . S
C180 O188 1.224 . S
O181 C180 1.278 . S
C182 O183 1.245 . S
C182 O194 1.232 . S
O183 C182 1.245 . S
O184 Co178 2.058 . S
O184 C210 1.269 . S
O185 Co177 2.074 . S
O185 C210 1.257 . S
H186 C211 0.930 . S
H187 C217 0.930 . S
O188 Co177 2.093 . S
O188 C180 1.224 . S
H189 C221 0.929 . S
H190 C223 0.930 . S
H191 C224 0.930 . S
H192 C222 0.929 . S
H193 C225 0.928 . S
O194 Co178 2.057 . S
O194 C182 1.232 . S
H195 C214 0.929 . S
H196 C215 0.929 . S
H197 C227 0.931 . S
H198 C219 0.929 . S
H199 C228 0.930 . S
H200 C220 0.931 . S
O201 Co177 2.097 . S
O201 C229 1.214 . S
H202 C230 0.929 . S
H203 C231 0.929 . S
H204 C232 0.930 . S
H205 C233 0.929 . S
H206 C235 0.930 . S
H207 C212 0.930 . S
H208 C216 0.930 . S
O209 Co178 2.037 . S
O209 C229 1.234 . S
C210 O184 1.269 . S
C210 O185 1.257 . S
C211 H186 0.930 . S
C211 C214 1.388 1_556 S
C211 C216 1.418 . S
C212 H207 0.930 . S
C212 C215 1.404 . S
C212 C216 1.353 . S
N213 Co178 2.145 . S
N213 C214 1.397 . S
N213 C215 1.334 1_554 S
C214 H195 0.929 . S
C214 C211 1.388 1_554 S
C214 N213 1.397 . S
C215 H196 0.929 . S
C215 C212 1.404 . S
C215 N213 1.334 1_556 S
C216 H208 0.930 . S
C216 C211 1.418 . S
C216 C212 1.353 . S
C217 H187 0.930 . S
C217 N218 1.330 . S
C217 C219 1.446 . S
N218 Co177 2.151 . S
N218 C217 1.330 . S
N218 C222 1.418 . S
C219 H198 0.929 . S
C219 C217 1.446 . S
C219 C220 1.332 . S
C220 H200 0.931 . S
C220 C219 1.332 . S
C220 C221 1.267 . S
C221 H189 0.929 . S
C221 C220 1.267 . S
C221 C222 1.251 . S
C222 H192 0.929 . S
C222 N218 1.418 . S
C222 C221 1.251 . S
C223 H190 0.930 . S
C223 C225 1.406 . S
C223 C228 1.261 . S
C224 H191 0.930 . S
C224 N226 1.325 . S
C224 C227 1.357 . S
C225 H193 0.928 . S
C225 C223 1.406 . S
C225 N226 1.261 . S
N226 Co177 2.214 . S
N226 C224 1.325 . S
N226 C225 1.261 . S
C227 H197 0.931 . S
C227 C224 1.357 . S
C227 C228 1.312 . S
C228 H199 0.930 . S
C228 C223 1.261 . S
C228 C227 1.312 . S
C229 O201 1.214 . S
C229 O209 1.234 . S
C230 H202 0.929 . S
C230 C233 1.391 . S
C230 C235 1.391 . S
C231 H203 0.929 . S
C231 C232 1.390 . S
C231 N234 1.391 . S
C232 H204 0.930 . S
C232 C231 1.390 . S
C232 C233 1.392 . S
C233 H205 0.929 . S
C233 C230 1.391 . S
C233 C232 1.392 . S
N234 Co178 2.257 . S
N234 C231 1.391 . S
N234 C235 1.388 . S
C235 H206 0.930 . S
C235 C230 1.391 . S
C235 N234 1.388 . S
Co236 O238 2.143 . S
Co236 O244 2.074 . S
Co236 O247 2.093 . S
Co236 O260 2.097 . S
Co236 N277 2.151 . S
Co236 N285 2.214 . S
Co237 O238 2.160 . S
Co237 O243 2.058 . S
Co237 O253 2.057 . S
Co237 O268 2.037 . S
Co237 N272 2.145 . S
Co237 N293 2.257 . S
O238 Co236 2.143 . S
O238 Co237 2.160 . S
C239 O240 1.278 . S
C239 O247 1.224 . S
O240 C239 1.278 . S
C241 O242 1.245 . S
C241 O253 1.232 . S
O242 C241 1.245 . S
O243 Co237 2.058 . S
O243 C269 1.269 . S
O244 Co236 2.074 . S
O244 C269 1.257 . S
H245 C270 0.930 . S
H246 C276 0.930 . S
O247 Co236 2.093 . S
O247 C239 1.224 . S
H248 C280 0.929 1_655 S
H249 C282 0.930 . S
H250 C283 0.930 . S
H251 C281 0.929 . S
H252 C284 0.928 . S
O253 Co237 2.057 . S
O253 C241 1.232 . S
H254 C273 0.929 . S
H255 C274 0.929 . S
H256 C286 0.931 . S
H257 C278 0.929 . S
H258 C287 0.930 1_655 S
H259 C279 0.931 . S
O260 Co236 2.097 . S
O260 C288 1.214 . S
H261 C289 0.929 . S
H262 C290 0.929 . S
H263 C291 0.930 . S
H264 C292 0.929 . S
H265 C294 0.930 . S
H266 C271 0.930 . S
H267 C275 0.930 . S
O268 Co237 2.037 . S
O268 C288 1.234 . S
C269 O243 1.269 . S
C269 O244 1.257 . S
C270 H245 0.930 . S
C270 C273 1.388 . S
C270 C275 1.418 . S
C271 H266 0.930 . S
C271 C274 1.404 . S
C271 C275 1.353 . S
N272 Co237 2.145 . S
N272 C273 1.397 . S
N272 C274 1.334 . S
C273 H254 0.929 . S
C273 C270 1.388 . S
C273 N272 1.397 . S
C274 H255 0.929 . S
C274 C271 1.404 . S
C274 N272 1.334 . S
C275 H267 0.930 . S
C275 C270 1.418 . S
C275 C271 1.353 . S
C276 H246 0.930 . S
C276 N277 1.330 . S
C276 C278 1.446 . S
N277 Co236 2.151 . S
N277 C276 1.330 . S
N277 C281 1.418 . S
C278 H257 0.929 . S
C278 C276 1.446 . S
C278 C279 1.332 . S
C279 H259 0.931 . S
C279 C278 1.332 . S
C279 C280 1.267 . S
C280 H248 0.929 1_455 S
C280 C279 1.267 . S
C280 C281 1.251 . S
C281 H251 0.929 . S
C281 N277 1.418 . S
C281 C280 1.251 . S
C282 H249 0.930 . S
C282 C284 1.406 1_554 S
C282 C287 1.261 . S
C283 H250 0.930 . S
C283 N285 1.325 . S
C283 C286 1.357 1_455 S
C284 H252 0.928 . S
C284 C282 1.406 1_556 S
C284 N285 1.261 . S
N285 Co236 2.214 . S
N285 C283 1.325 . S
N285 C284 1.261 . S
C286 H256 0.931 . S
C286 C283 1.357 1_655 S
C286 C287 1.312 1_656 S
C287 H258 0.930 1_455 S
C287 C282 1.261 . S
C287 C286 1.312 1_454 S
C288 O260 1.214 . S
C288 O268 1.234 . S
C289 H261 0.929 . S
C289 C292 1.391 . S
C289 C294 1.391 . S
C290 H262 0.929 . S
C290 C291 1.390 . S
C290 N293 1.391 . S
C291 H263 0.930 . S
C291 C290 1.390 . S
C291 C292 1.392 . S
C292 H264 0.929 . S
C292 C289 1.391 . S
C292 C291 1.392 . S
N293 Co237 2.257 . S
N293 C290 1.391 . S
N293 C294 1.388 . S
C294 H265 0.930 . S
C294 C289 1.391 . S
C294 N293 1.388 . S
Co295 O297 2.143 1_554 S
Co295 O303 2.074 . S
Co295 O306 2.093 . S
Co295 O319 2.097 . S
Co295 N336 2.151 . S
Co295 N344 2.214 . S
Co296 O297 2.160 . S
Co296 O302 2.058 . S
Co296 O312 2.057 . S
Co296 O327 2.037 . S
Co296 N331 2.145 . S
Co296 N352 2.257 . S
O297 Co295 2.143 1_556 S
O297 Co296 2.160 . S
C298 O299 1.278 . S
C298 O306 1.224 . S
O299 C298 1.278 . S
C300 O301 1.245 . S
C300 O312 1.232 . S
O301 C300 1.245 . S
O302 Co296 2.058 . S
O302 C328 1.269 . S
O303 Co295 2.074 . S
O303 C328 1.257 1_554 S
H304 C329 0.930 . S
H305 C335 0.930 . S
O306 Co295 2.093 . S
O306 C298 1.224 . S
H307 C339 0.929 1_565 S
H308 C341 0.930 . S
H309 C342 0.930 . S
H310 C340 0.929 . S
H311 C343 0.928 . S
O312 Co296 2.057 . S
O312 C300 1.232 . S
H313 C332 0.929 . S
H314 C333 0.929 . S
H315 C345 0.931 . S
H316 C337 0.929 . S
H317 C346 0.930 1_565 S
H318 C338 0.931 . S
O319 Co295 2.097 . S
O319 C347 1.214 . S
H320 C348 0.929 . S
H321 C349 0.929 . S
H322 C350 0.930 . S
H323 C351 0.929 . S
H324 C353 0.930 . S
H325 C330 0.930 . S
H326 C334 0.930 . S
O327 Co296 2.037 . S
O327 C347 1.234 1_556 S
C328 O302 1.269 . S
C328 O303 1.257 1_556 S
C329 H304 0.930 . S
C329 C332 1.388 . S
C329 C334 1.418 . S
C330 H325 0.930 . S
C330 C333 1.404 . S
C330 C334 1.353 . S
N331 Co296 2.145 . S
N331 C332 1.397 . S
N331 C333 1.334 . S
C332 H313 0.929 . S
C332 C329 1.388 . S
C332 N331 1.397 . S
C333 H314 0.929 . S
C333 C330 1.404 . S
C333 N331 1.334 . S
C334 H326 0.930 . S
C334 C329 1.418 . S
C334 C330 1.353 . S
C335 H305 0.930 . S
C335 N336 1.330 . S
C335 C337 1.446 . S
N336 Co295 2.151 . S
N336 C335 1.330 . S
N336 C340 1.418 . S
C337 H316 0.929 . S
C337 C335 1.446 . S
C337 C338 1.332 . S
C338 H318 0.931 . S
C338 C337 1.332 . S
C338 C339 1.267 . S
C339 H307 0.929 1_545 S
C339 C338 1.267 . S
C339 C340 1.251 . S
C340 H310 0.929 . S
C340 N336 1.418 . S
C340 C339 1.251 . S
C341 H308 0.930 . S
C341 C343 1.406 . S
C341 C346 1.261 . S
C342 H309 0.930 . S
C342 N344 1.325 . S
C342 C345 1.357 1_545 S
C343 H311 0.928 . S
C343 C341 1.406 . S
C343 N344 1.261 . S
N344 Co295 2.214 . S
N344 C342 1.325 . S
N344 C343 1.261 . S
C345 H315 0.931 . S
C345 C342 1.357 1_565 S
C345 C346 1.312 1_565 S
C346 H317 0.930 1_545 S
C346 C341 1.261 . S
C346 C345 1.312 1_545 S
C347 O319 1.214 . S
C347 O327 1.234 1_554 S
C348 H320 0.929 . S
C348 C351 1.391 . S
C348 C353 1.391 . S
C349 H321 0.929 . S
C349 C350 1.390 . S
C349 N352 1.391 . S
C350 H322 0.930 . S
C350 C349 1.390 . S
C350 C351 1.392 . S
C351 H323 0.929 . S
C351 C348 1.391 . S
C351 C350 1.392 . S
N352 Co296 2.257 . S
N352 C349 1.391 . S
N352 C353 1.388 . S
C353 H324 0.930 . S
C353 C348 1.391 . S
C353 N352 1.388 . S
Co354 O356 2.143 . S
Co354 O362 2.074 . S
Co354 O365 2.093 . S
Co354 O378 2.097 . S
Co354 N395 2.151 . S
Co354 N403 2.214 . S
Co355 O356 2.160 . S
Co355 O361 2.058 . S
Co355 O371 2.057 . S
Co355 O386 2.037 . S
Co355 N390 2.145 . S
Co355 N411 2.257 . S
O356 Co354 2.143 . S
O356 Co355 2.160 . S
C357 O358 1.278 . S
C357 O365 1.224 . S
O358 C357 1.278 . S
C359 O360 1.245 . S
C359 O371 1.232 . S
O360 C359 1.245 . S
O361 Co355 2.058 . S
O361 C387 1.269 . S
O362 Co354 2.074 . S
O362 C387 1.257 . S
H363 C388 0.930 . S
H364 C394 0.930 . S
O365 Co354 2.093 . S
O365 C357 1.224 . S
H366 C398 0.929 . S
H367 C400 0.930 . S
H368 C401 0.930 . S
H369 C399 0.929 . S
H370 C402 0.928 . S
O371 Co355 2.057 . S
O371 C359 1.232 . S
H372 C391 0.929 . S
H373 C392 0.929 . S
H374 C404 0.931 . S
H375 C396 0.929 . S
H376 C405 0.930 . S
H377 C397 0.931 . S
O378 Co354 2.097 . S
O378 C406 1.214 . S
H379 C407 0.929 . S
H380 C408 0.929 . S
H381 C409 0.930 . S
H382 C410 0.929 . S
H383 C412 0.930 . S
H384 C389 0.930 . S
H385 C393 0.930 . S
O386 Co355 2.037 . S
O386 C406 1.234 . S
C387 O361 1.269 . S
C387 O362 1.257 . S
C388 H363 0.930 . S
C388 C391 1.388 . S
C388 C393 1.418 . S
C389 H384 0.930 . S
C389 C392 1.404 . S
C389 C393 1.353 . S
N390 Co355 2.145 . S
N390 C391 1.397 . S
N390 C392 1.334 . S
C391 H372 0.929 . S
C391 C388 1.388 . S
C391 N390 1.397 . S
C392 H373 0.929 . S
C392 C389 1.404 . S
C392 N390 1.334 . S
C393 H385 0.930 . S
C393 C388 1.418 . S
C393 C389 1.353 . S
C394 H364 0.930 . S
C394 N395 1.330 . S
C394 C396 1.446 . S
N395 Co354 2.151 . S
N395 C394 1.330 . S
N395 C399 1.418 . S
C396 H375 0.929 . S
C396 C394 1.446 . S
C396 C397 1.332 . S
C397 H377 0.931 . S
C397 C396 1.332 . S
C397 C398 1.267 . S
C398 H366 0.929 . S
C398 C397 1.267 . S
C398 C399 1.251 . S
C399 H369 0.929 . S
C399 N395 1.418 . S
C399 C398 1.251 . S
C400 H367 0.930 . S
C400 C402 1.406 1_556 S
C400 C405 1.261 . S
C401 H368 0.930 . S
C401 N403 1.325 . S
C401 C404 1.357 . S
C402 H370 0.928 . S
C402 C400 1.406 1_554 S
C402 N403 1.261 . S
N403 Co354 2.214 . S
N403 C401 1.325 . S
N403 C402 1.261 . S
C404 H374 0.931 . S
C404 C401 1.357 . S
C404 C405 1.312 1_554 S
C405 H376 0.930 . S
C405 C400 1.261 . S
C405 C404 1.312 1_556 S
C406 O378 1.214 . S
C406 O386 1.234 . S
C407 H379 0.929 . S
C407 C410 1.391 . S
C407 C412 1.391 . S
C408 H380 0.929 . S
C408 C409 1.390 . S
C408 N411 1.391 . S
C409 H381 0.930 . S
C409 C408 1.390 . S
C409 C410 1.392 . S
C410 H382 0.929 . S
C410 C407 1.391 . S
C410 C409 1.392 . S
N411 Co355 2.257 . S
N411 C408 1.391 . S
N411 C412 1.388 . S
C412 H383 0.930 . S
C412 C407 1.391 . S
C412 N411 1.388 . S
Co413 O415 2.143 . S
Co413 O421 2.074 . S
Co413 O424 2.093 . S
Co413 O437 2.097 . S
Co413 N454 2.151 . S
Co413 N462 2.214 . S
Co414 O415 2.160 . S
Co414 O420 2.058 . S
Co414 O430 2.057 . S
Co414 O445 2.037 . S
Co414 N449 2.145 . S
Co414 N470 2.257 . S
O415 Co413 2.143 . S
O415 Co414 2.160 . S
C416 O417 1.278 . S
C416 O424 1.224 . S
O417 C416 1.278 . S
C418 O419 1.245 . S
C418 O430 1.232 . S
O419 C418 1.245 . S
O420 Co414 2.058 . S
O420 C446 1.269 . S
O421 Co413 2.074 . S
O421 C446 1.257 . S
H422 C447 0.930 . S
H423 C453 0.930 . S
O424 Co413 2.093 . S
O424 C416 1.224 . S
H425 C457 0.929 1_455 S
H426 C459 0.930 . S
H427 C460 0.930 . S
H428 C458 0.929 . S
H429 C461 0.928 . S
O430 Co414 2.057 . S
O430 C418 1.232 . S
H431 C450 0.929 . S
H432 C451 0.929 . S
H433 C463 0.931 . S
H434 C455 0.929 . S
H435 C464 0.930 1_455 S
H436 C456 0.931 . S
O437 Co413 2.097 . S
O437 C465 1.214 . S
H438 C466 0.929 . S
H439 C467 0.929 . S
H440 C468 0.930 . S
H441 C469 0.929 . S
H442 C471 0.930 . S
H443 C448 0.930 . S
H444 C452 0.930 . S
O445 Co414 2.037 . S
O445 C465 1.234 . S
C446 O420 1.269 . S
C446 O421 1.257 . S
C447 H422 0.930 . S
C447 C450 1.388 1_554 S
C447 C452 1.418 . S
C448 H443 0.930 . S
C448 C451 1.404 . S
C448 C452 1.353 . S
N449 Co414 2.145 . S
N449 C450 1.397 . S
N449 C451 1.334 1_556 S
C450 H431 0.929 . S
C450 C447 1.388 1_556 S
C450 N449 1.397 . S
C451 H432 0.929 . S
C451 C448 1.404 . S
C451 N449 1.334 1_554 S
C452 H444 0.930 . S
C452 C447 1.418 . S
C452 C448 1.353 . S
C453 H423 0.930 . S
C453 N454 1.330 . S
C453 C455 1.446 . S
N454 Co413 2.151 . S
N454 C453 1.330 . S
N454 C458 1.418 . S
C455 H434 0.929 . S
C455 C453 1.446 . S
C455 C456 1.332 . S
C456 H436 0.931 . S
C456 C455 1.332 . S
C456 C457 1.267 . S
C457 H425 0.929 1_655 S
C457 C456 1.267 . S
C457 C458 1.251 . S
C458 H428 0.929 . S
C458 N454 1.418 . S
C458 C457 1.251 . S
C459 H426 0.930 . S
C459 C461 1.406 . S
C459 C464 1.261 . S
C460 H427 0.930 . S
C460 N462 1.325 . S
C460 C463 1.357 1_655 S
C461 H429 0.928 . S
C461 C459 1.406 . S
C461 N462 1.261 . S
N462 Co413 2.214 . S
N462 C460 1.325 . S
N462 C461 1.261 . S
C463 H433 0.931 . S
C463 C460 1.357 1_455 S
C463 C464 1.312 1_455 S
C464 H435 0.930 1_655 S
C464 C459 1.261 . S
C464 C463 1.312 1_655 S
C465 O437 1.214 . S
C465 O445 1.234 . S
C466 H438 0.929 . S
C466 C469 1.391 . S
C466 C471 1.391 . S
C467 H439 0.929 . S
C467 C468 1.390 . S
C467 N470 1.391 . S
C468 H440 0.930 . S
C468 C467 1.390 . S
C468 C469 1.392 . S
C469 H441 0.929 . S
C469 C466 1.391 . S
C469 C468 1.392 . S
N470 Co414 2.257 . S
N470 C467 1.391 . S
N470 C471 1.388 . S
C471 H442 0.930 . S
C471 C466 1.391 . S
C471 N470 1.388 . S
Co472 O474 2.143 1_556 S
Co472 O480 2.074 . S
Co472 O483 2.093 . S
Co472 O496 2.097 . S
Co472 N513 2.151 . S
Co472 N521 2.214 . S
Co473 O474 2.160 . S
Co473 O479 2.058 . S
Co473 O489 2.057 . S
Co473 O504 2.037 . S
Co473 N508 2.145 . S
Co473 N529 2.257 . S
O474 Co472 2.143 1_554 S
O474 Co473 2.160 . S
C475 O476 1.278 . S
C475 O483 1.224 . S
O476 C475 1.278 . S
C477 O478 1.245 . S
C477 O489 1.232 . S
O478 C477 1.245 . S
O479 Co473 2.058 . S
O479 C505 1.269 . S
O480 Co472 2.074 . S
O480 C505 1.257 1_556 S
H481 C506 0.930 . S
H482 C512 0.930 . S
O483 Co472 2.093 . S
O483 C475 1.224 . S
H484 C516 0.929 1_545 S
H485 C518 0.930 . S
H486 C519 0.930 . S
H487 C517 0.929 . S
H488 C520 0.928 . S
O489 Co473 2.057 . S
O489 C477 1.232 . S
H490 C509 0.929 . S
H491 C510 0.929 . S
H492 C522 0.931 . S
H493 C514 0.929 . S
H494 C523 0.930 1_545 S
H495 C515 0.931 . S
O496 Co472 2.097 . S
O496 C524 1.214 . S
H497 C525 0.929 . S
H498 C526 0.929 . S
H499 C527 0.930 . S
H500 C528 0.929 . S
H501 C530 0.930 . S
H502 C507 0.930 . S
H503 C511 0.930 . S
O504 Co473 2.037 . S
O504 C524 1.234 1_554 S
C505 O479 1.269 . S
C505 O480 1.257 1_554 S
C506 H481 0.930 . S
C506 C509 1.388 . S
C506 C511 1.418 . S
C507 H502 0.930 . S
C507 C510 1.404 . S
C507 C511 1.353 . S
N508 Co473 2.145 . S
N508 C509 1.397 . S
N508 C510 1.334 . S
C509 H490 0.929 . S
C509 C506 1.388 . S
C509 N508 1.397 . S
C510 H491 0.929 . S
C510 C507 1.404 . S
C510 N508 1.334 . S
C511 H503 0.930 . S
C511 C506 1.418 . S
C511 C507 1.353 . S
C512 H482 0.930 . S
C512 N513 1.330 . S
C512 C514 1.446 . S
N513 Co472 2.151 . S
N513 C512 1.330 . S
N513 C517 1.418 . S
C514 H493 0.929 . S
C514 C512 1.446 . S
C514 C515 1.332 . S
C515 H495 0.931 . S
C515 C514 1.332 . S
C515 C516 1.267 . S
C516 H484 0.929 1_565 S
C516 C515 1.267 . S
C516 C517 1.251 . S
C517 H487 0.929 . S
C517 N513 1.418 . S
C517 C516 1.251 . S
C518 H485 0.930 . S
C518 C520 1.406 . S
C518 C523 1.261 . S
C519 H486 0.930 . S
C519 N521 1.325 . S
C519 C522 1.357 1_565 S
C520 H488 0.928 . S
C520 C518 1.406 . S
C520 N521 1.261 . S
N521 Co472 2.214 . S
N521 C519 1.325 . S
N521 C520 1.261 . S
C522 H492 0.931 . S
C522 C519 1.357 1_545 S
C522 C523 1.312 1_545 S
C523 H494 0.930 1_565 S
C523 C518 1.261 . S
C523 C522 1.312 1_565 S
C524 O496 1.214 . S
C524 O504 1.234 1_556 S
C525 H497 0.929 . S
C525 C528 1.391 . S
C525 C530 1.391 . S
C526 H498 0.929 . S
C526 C527 1.390 . S
C526 N529 1.391 . S
C527 H499 0.930 . S
C527 C526 1.390 . S
C527 C528 1.392 . S
C528 H500 0.929 . S
C528 C525 1.391 . S
C528 C527 1.392 . S
N529 Co473 2.257 . S
N529 C526 1.391 . S
N529 C530 1.388 . S
C530 H501 0.930 . S
C530 C525 1.391 . S
C530 N529 1.388 . S
Co531 O533 2.143 . S
Co531 O539 2.074 . S
Co531 O542 2.093 . S
Co531 O555 2.097 . S
Co531 N572 2.151 . S
Co531 N580 2.214 . S
Co532 O533 2.160 . S
Co532 O538 2.058 . S
Co532 O548 2.057 . S
Co532 O563 2.037 . S
Co532 N567 2.145 . S
Co532 N588 2.257 . S
O533 Co531 2.143 . S
O533 Co532 2.160 . S
C534 O535 1.278 . S
C534 O542 1.224 . S
O535 C534 1.278 . S
C536 O537 1.245 . S
C536 O548 1.232 . S
O537 C536 1.245 . S
O538 Co532 2.058 . S
O538 C564 1.269 . S
O539 Co531 2.074 . S
O539 C564 1.257 . S
H540 C565 0.930 . S
H541 C571 0.930 . S
O542 Co531 2.093 . S
O542 C534 1.224 . S
H543 C575 0.929 . S
H544 C577 0.930 . S
H545 C578 0.930 . S
H546 C576 0.929 . S
H547 C579 0.928 . S
O548 Co532 2.057 . S
O548 C536 1.232 . S
H549 C568 0.929 . S
H550 C569 0.929 . S
H551 C581 0.931 . S
H552 C573 0.929 . S
H553 C582 0.930 . S
H554 C574 0.931 . S
O555 Co531 2.097 . S
O555 C583 1.214 . S
H556 C584 0.929 . S
H557 C585 0.929 . S
H558 C586 0.930 . S
H559 C587 0.929 . S
H560 C589 0.930 . S
H561 C566 0.930 . S
H562 C570 0.930 . S
O563 Co532 2.037 . S
O563 C583 1.234 . S
C564 O538 1.269 . S
C564 O539 1.257 . S
C565 H540 0.930 . S
C565 C568 1.388 . S
C565 C570 1.418 . S
C566 H561 0.930 . S
C566 C569 1.404 . S
C566 C570 1.353 . S
N567 Co532 2.145 . S
N567 C568 1.397 . S
N567 C569 1.334 . S
C568 H549 0.929 . S
C568 C565 1.388 . S
C568 N567 1.397 . S
C569 H550 0.929 . S
C569 C566 1.404 . S
C569 N567 1.334 . S
C570 H562 0.930 . S
C570 C565 1.418 . S
C570 C566 1.353 . S
C571 H541 0.930 . S
C571 N572 1.330 . S
C571 C573 1.446 . S
N572 Co531 2.151 . S
N572 C571 1.330 . S
N572 C576 1.418 . S
C573 H552 0.929 . S
C573 C571 1.446 . S
C573 C574 1.332 . S
C574 H554 0.931 . S
C574 C573 1.332 . S
C574 C575 1.267 . S
C575 H543 0.929 . S
C575 C574 1.267 . S
C575 C576 1.251 . S
C576 H546 0.929 . S
C576 N572 1.418 . S
C576 C575 1.251 . S
C577 H544 0.930 . S
C577 C579 1.406 1_556 S
C577 C582 1.261 . S
C578 H545 0.930 . S
C578 N580 1.325 . S
C578 C581 1.357 . S
C579 H547 0.928 . S
C579 C577 1.406 1_554 S
C579 N580 1.261 . S
N580 Co531 2.214 . S
N580 C578 1.325 . S
N580 C579 1.261 . S
C581 H551 0.931 . S
C581 C578 1.357 . S
C581 C582 1.312 1_554 S
C582 H553 0.930 . S
C582 C577 1.261 . S
C582 C581 1.312 1_556 S
C583 O555 1.214 . S
C583 O563 1.234 . S
C584 H556 0.929 . S
C584 C587 1.391 . S
C584 C589 1.391 . S
C585 H557 0.929 . S
C585 C586 1.390 . S
C585 N588 1.391 . S
C586 H558 0.930 . S
C586 C585 1.390 . S
C586 C587 1.392 . S
C587 H559 0.929 . S
C587 C584 1.391 . S
C587 C586 1.392 . S
N588 Co532 2.257 . S
N588 C585 1.391 . S
N588 C589 1.388 . S
C589 H560 0.930 . S
C589 C584 1.391 . S
C589 N588 1.388 . S
Co590 O592 2.143 . S
Co590 O598 2.074 . S
Co590 O601 2.093 . S
Co590 O614 2.097 . S
Co590 N631 2.151 . S
Co590 N639 2.214 . S
Co591 O592 2.160 . S
Co591 O597 2.058 . S
Co591 O607 2.057 . S
Co591 O622 2.037 . S
Co591 N626 2.145 . S
Co591 N647 2.257 . S
O592 Co590 2.143 . S
O592 Co591 2.160 . S
C593 O594 1.278 . S
C593 O601 1.224 . S
O594 C593 1.278 . S
C595 O596 1.245 . S
C595 O607 1.232 . S
O596 C595 1.245 . S
O597 Co591 2.058 . S
O597 C623 1.269 . S
O598 Co590 2.074 . S
O598 C623 1.257 . S
H599 C624 0.930 . S
H600 C630 0.930 . S
O601 Co590 2.093 . S
O601 C593 1.224 . S
H602 C634 0.929 1_655 S
H603 C636 0.930 . S
H604 C637 0.930 . S
H605 C635 0.929 . S
H606 C638 0.928 . S
O607 Co591 2.057 . S
O607 C595 1.232 . S
H608 C627 0.929 . S
H609 C628 0.929 . S
H610 C640 0.931 . S
H611 C632 0.929 . S
H612 C641 0.930 1_655 S
H613 C633 0.931 . S
O614 Co590 2.097 . S
O614 C642 1.214 . S
H615 C643 0.929 . S
H616 C644 0.929 . S
H617 C645 0.930 . S
H618 C646 0.929 . S
H619 C648 0.930 . S
H620 C625 0.930 . S
H621 C629 0.930 . S
O622 Co591 2.037 . S
O622 C642 1.234 . S
C623 O597 1.269 . S
C623 O598 1.257 . S
C624 H599 0.930 . S
C624 C627 1.388 1_554 S
C624 C629 1.418 . S
C625 H620 0.930 . S
C625 C628 1.404 . S
C625 C629 1.353 . S
N626 Co591 2.145 . S
N626 C627 1.397 . S
N626 C628 1.334 1_556 S
C627 H608 0.929 . S
C627 C624 1.388 1_556 S
C627 N626 1.397 . S
C628 H609 0.929 . S
C628 C625 1.404 . S
C628 N626 1.334 1_554 S
C629 H621 0.930 . S
C629 C624 1.418 . S
C629 C625 1.353 . S
C630 H600 0.930 . S
C630 N631 1.330 . S
C630 C632 1.446 . S
N631 Co590 2.151 . S
N631 C630 1.330 . S
N631 C635 1.418 . S
C632 H611 0.929 . S
C632 C630 1.446 . S
C632 C633 1.332 . S
C633 H613 0.931 . S
C633 C632 1.332 . S
C633 C634 1.267 . S
C634 H602 0.929 1_455 S
C634 C633 1.267 . S
C634 C635 1.251 . S
C635 H605 0.929 . S
C635 N631 1.418 . S
C635 C634 1.251 . S
C636 H603 0.930 . S
C636 C638 1.406 . S
C636 C641 1.261 . S
C637 H604 0.930 . S
C637 N639 1.325 . S
C637 C640 1.357 1_455 S
C638 H606 0.928 . S
C638 C636 1.406 . S
C638 N639 1.261 . S
N639 Co590 2.214 . S
N639 C637 1.325 . S
N639 C638 1.261 . S
C640 H610 0.931 . S
C640 C637 1.357 1_655 S
C640 C641 1.312 1_655 S
C641 H612 0.930 1_455 S
C641 C636 1.261 . S
C641 C640 1.312 1_455 S
C642 O614 1.214 . S
C642 O622 1.234 . S
C643 H615 0.929 . S
C643 C646 1.391 . S
C643 C648 1.391 . S
C644 H616 0.929 . S
C644 C645 1.390 . S
C644 N647 1.391 . S
C645 H617 0.930 . S
C645 C644 1.390 . S
C645 C646 1.392 . S
C646 H618 0.929 . S
C646 C643 1.391 . S
C646 C645 1.392 . S
N647 Co591 2.257 . S
N647 C644 1.391 . S
N647 C648 1.388 . S
C648 H619 0.930 . S
C648 C643 1.391 . S
C648 N647 1.388 . S
Co649 O651 2.143 1_556 S
Co649 O657 2.074 . S
Co649 O660 2.093 . S
Co649 O673 2.097 . S
Co649 N690 2.151 . S
Co649 N698 2.214 . S
Co650 O651 2.160 . S
Co650 O656 2.058 . S
Co650 O666 2.057 . S
Co650 O681 2.037 . S
Co650 N685 2.145 . S
Co650 N706 2.257 . S
O651 Co649 2.143 1_554 S
O651 Co650 2.160 . S
C652 O653 1.278 . S
C652 O660 1.224 . S
O653 C652 1.278 . S
C654 O655 1.245 . S
C654 O666 1.232 . S
O655 C654 1.245 . S
O656 Co650 2.058 . S
O656 C682 1.269 . S
O657 Co649 2.074 . S
O657 C682 1.257 1_556 S
H658 C683 0.930 . S
H659 C689 0.930 . S
O660 Co649 2.093 . S
O660 C652 1.224 . S
H661 C693 0.929 1_565 S
H662 C695 0.930 . S
H663 C696 0.930 . S
H664 C694 0.929 . S
H665 C697 0.928 . S
O666 Co650 2.057 . S
O666 C654 1.232 . S
H667 C686 0.929 . S
H668 C687 0.929 . S
H669 C699 0.931 . S
H670 C691 0.929 . S
H671 C700 0.930 1_565 S
H672 C692 0.931 . S
O673 Co649 2.097 . S
O673 C701 1.214 . S
H674 C702 0.929 . S
H675 C703 0.929 . S
H676 C704 0.930 . S
H677 C705 0.929 . S
H678 C707 0.930 . S
H679 C684 0.930 . S
H680 C688 0.930 . S
O681 Co650 2.037 . S
O681 C701 1.234 1_554 S
C682 O656 1.269 . S
C682 O657 1.257 1_554 S
C683 H658 0.930 . S
C683 C686 1.388 . S
C683 C688 1.418 . S
C684 H679 0.930 . S
C684 C687 1.404 . S
C684 C688 1.353 . S
N685 Co650 2.145 . S
N685 C686 1.397 . S
N685 C687 1.334 . S
C686 H667 0.929 . S
C686 C683 1.388 . S
C686 N685 1.397 . S
C687 H668 0.929 . S
C687 C684 1.404 . S
C687 N685 1.334 . S
C688 H680 0.930 . S
C688 C683 1.418 . S
C688 C684 1.353 . S
C689 H659 0.930 . S
C689 N690 1.330 . S
C689 C691 1.446 . S
N690 Co649 2.151 . S
N690 C689 1.330 . S
N690 C694 1.418 . S
C691 H670 0.929 . S
C691 C689 1.446 . S
C691 C692 1.332 . S
C692 H672 0.931 . S
C692 C691 1.332 . S
C692 C693 1.267 . S
C693 H661 0.929 1_545 S
C693 C692 1.267 . S
C693 C694 1.251 . S
C694 H664 0.929 . S
C694 N690 1.418 . S
C694 C693 1.251 . S
C695 H662 0.930 . S
C695 C697 1.406 . S
C695 C700 1.261 . S
C696 H663 0.930 . S
C696 N698 1.325 . S
C696 C699 1.357 1_545 S
C697 H665 0.928 . S
C697 C695 1.406 . S
C697 N698 1.261 . S
N698 Co649 2.214 . S
N698 C696 1.325 . S
N698 C697 1.261 . S
C699 H669 0.931 . S
C699 C696 1.357 1_565 S
C699 C700 1.312 1_565 S
C700 H671 0.930 1_545 S
C700 C695 1.261 . S
C700 C699 1.312 1_545 S
C701 O673 1.214 . S
C701 O681 1.234 1_556 S
C702 H674 0.929 . S
C702 C705 1.391 . S
C702 C707 1.391 . S
C703 H675 0.929 . S
C703 C704 1.390 . S
C703 N706 1.391 . S
C704 H676 0.930 . S
C704 C703 1.390 . S
C704 C705 1.392 . S
C705 H677 0.929 . S
C705 C702 1.391 . S
C705 C704 1.392 . S
N706 Co650 2.257 . S
N706 C703 1.391 . S
N706 C707 1.388 . S
C707 H678 0.930 . S
C707 C702 1.391 . S
C707 N706 1.388 . S
C33 C564 2.506 . S
C92 C623 2.505 1_655 S
C151 C682 2.505 1_566 S
C210 C387 2.506 . S
C446 C269 2.505 1_655 S
C505 C328 2.505 1_564 S
C595 C5 2.399 1_556 S
C64 C654 2.398 . S
C123 C359 2.399 . S
C182 C418 2.399 1_554 S
C241 C477 2.398 . S
C300 C536 2.399 . S
C593 C3 0.832 . S
C62 C652 0.832 . S
C121 C357 0.832 . S
C180 C416 0.832 . S
C239 C475 0.832 . S
C298 C534 0.832 . S
C52 C406 1.992 . S
C465 C111 1.992 . S
C170 C524 1.992 1_554 S
C229 C583 1.992 . S
C288 C642 1.992 . S
C701 C347 1.992 1_556 S
