# Generated by pormake.
# Topology vby, (6)-cn, num edge types: 1
# Building blocks:
#     Node 0, Type 0, BuildingBlock: PAMTOO_clean_sbu_0, # of connection points: 6
#     Node 1, Type 0, BuildingBlock: PAMTOO_clean_sbu_0, # of connection points: 6
#     Node 2, Type 0, BuildingBlock: PAMTOO_clean_sbu_0, # of connection points: 6
#     Node 3, Type 0, BuildingBlock: PAMTOO_clean_sbu_0, # of connection points: 6
#     Node 4, Type 0, BuildingBlock: PAMTOO_clean_sbu_0, # of connection points: 6
#     Node 5, Type 0, BuildingBlock: PAMTOO_clean_sbu_0, # of connection points: 6
#     Node 6, Type 0, BuildingBlock: PAMTOO_clean_sbu_0, # of connection points: 6
#     Node 7, Type 0, BuildingBlock: PAMTOO_clean_sbu_0, # of connection points: 6
#     Edge 8, Type (0, 0), BuildingBlock: XUDNAN_clean_linker_2, # of connection points: 2
#     Edge 9, Type (0, 0), BuildingBlock: XUDNAN_clean_linker_2, # of connection points: 2
#     Edge 10, Type (0, 0), BuildingBlock: XUDNAN_clean_linker_2, # of connection points: 2
#     Edge 11, Type (0, 0), BuildingBlock: XUDNAN_clean_linker_2, # of connection points: 2
#     Edge 12, Type (0, 0), BuildingBlock: XUDNAN_clean_linker_2, # of connection points: 2
#     Edge 13, Type (0, 0), BuildingBlock: XUDNAN_clean_linker_2, # of connection points: 2
#     Edge 14, Type (0, 0), BuildingBlock: XUDNAN_clean_linker_2, # of connection points: 2
#     Edge 15, Type (0, 0), BuildingBlock: XUDNAN_clean_linker_2, # of connection points: 2
#     Edge 16, Type (0, 0), BuildingBlock: XUDNAN_clean_linker_2, # of connection points: 2
#     Edge 17, Type (0, 0), BuildingBlock: XUDNAN_clean_linker_2, # of connection points: 2
#     Edge 18, Type (0, 0), BuildingBlock: XUDNAN_clean_linker_2, # of connection points: 2
#     Edge 19, Type (0, 0), BuildingBlock: XUDNAN_clean_linker_2, # of connection points: 2
#     Edge 20, Type (0, 0), BuildingBlock: XUDNAN_clean_linker_2, # of connection points: 2
#     Edge 21, Type (0, 0), BuildingBlock: XUDNAN_clean_linker_2, # of connection points: 2
#     Edge 22, Type (0, 0), BuildingBlock: XUDNAN_clean_linker_2, # of connection points: 2
#     Edge 23, Type (0, 0), BuildingBlock: XUDNAN_clean_linker_2, # of connection points: 2
#     Edge 24, Type (0, 0), BuildingBlock: XUDNAN_clean_linker_2, # of connection points: 2
#     Edge 25, Type (0, 0), BuildingBlock: XUDNAN_clean_linker_2, # of connection points: 2
#     Edge 26, Type (0, 0), BuildingBlock: XUDNAN_clean_linker_2, # of connection points: 2
#     Edge 27, Type (0, 0), BuildingBlock: XUDNAN_clean_linker_2, # of connection points: 2
#     Edge 28, Type (0, 0), BuildingBlock: XUDNAN_clean_linker_2, # of connection points: 2
#     Edge 29, Type (0, 0), BuildingBlock: XUDNAN_clean_linker_2, # of connection points: 2
#     Edge 30, Type (0, 0), BuildingBlock: XUDNAN_clean_linker_2, # of connection points: 2
#     Edge 31, Type (0, 0), BuildingBlock: XUDNAN_clean_linker_2, # of connection points: 2
# Relax obj value: 0.142
# Max RMSD: 0.192
# Mean RMSD: 0.183
data_MOF--net-vby--node1-PAMTOO_clean_sbu_0--edge1-XUDNAN_clean_linker_2
_symmetry_space_group_name_H-M    P1
_symmetry_Int_Tables_number       1
_symmetry_cell_setting            triclinic
loop_
_symmetry_equiv_pos_as_xyz
'x, y, z'
_cell_length_a     15.294299
_cell_length_b     104.06598
_cell_length_c     30.060702
_cell_angle_alpha  85.11306
_cell_angle_beta   94.173793
_cell_angle_gamma 90.078843
loop_
_atom_site_label
_atom_site_type_symbol
_atom_site_fract_x
_atom_site_fract_y
_atom_site_fract_z
_atom_type_partial_charge
Dy0 Dy 0.08255 0.40539 0.01762 0.0
Dy1 Dy 0.07936 0.37319 0.01991 0.0
C2 C 0.07281 0.38816 0.1059 0.0
O3 O 0.21976 0.39967 0.00631 0.0
O4 O 0.2198 0.37815 0.0325 0.0
O5 O 0.06487 0.42191 0.05442 0.0
O6 O 0.11384 0.42451 0.98818 0.0
O7 O 0.10575 0.38034 0.94949 0.0
O8 O 0.04831 0.40093 0.94748 0.0
O9 O 0.94482 0.3795 -0.00362 0.0
O10 O 0.93946 0.40006 0.01953 0.0
O11 O 0.0606 0.35502 0.99019 0.0
O12 O 0.08855 0.35532 0.06175 0.0
C13 C 0.2606 0.38868 0.01848 0.0
O14 O 0.12362 0.39645 0.08554 0.0
O15 O 0.03129 0.37955 0.08323 0.0
C16 C 0.05202 0.44313 0.01699 0.0
C17 C 1.00778 0.4694 0.02013 0.0
C18 C 0.96482 0.45971 0.04571 0.0
C19 C 0.98675 0.44671 0.04423 0.0
C20 C 0.09098 0.45273 0.98938 0.0
C21 C 0.06894 0.46572 0.99079 0.0
C22 C 0.09167 0.43008 0.02303 0.0
C23 C 0.07669 0.39116 0.92734 0.0
C24 C 0.90071 0.38972 0.00481 0.0
C25 C 0.13297 0.33648 0.02948 0.0
C26 C 0.22081 0.31239 0.03436 0.0
C27 C 0.18608 0.31828 -0.00705 0.0
C28 C 0.14242 0.33017 0.99055 0.0
C29 C 0.16935 0.33072 0.07069 0.0
C30 C 0.21289 0.31886 0.07307 0.0
C31 C 0.07704 0.34816 0.02829 0.0
H32 H 0.91634 0.46221 0.0681 0.0
H33 H 0.95567 0.43956 0.06609 0.0
H34 H 0.14238 0.45027 0.96858 0.0
H35 H 0.10384 0.47292 0.9709 0.0
H36 H 0.19181 0.31363 0.96239 0.0
H37 H 0.11423 0.33426 0.95835 0.0
H38 H 0.16186 0.33517 0.10148 0.0
H39 H 0.23746 0.31454 0.10562 0.0
Dy40 Dy 0.97156 0.66058 0.97913 0.0
Dy41 Dy 0.96272 0.6287 0.97089 0.0
C42 C 0.97687 0.64045 0.06801 0.0
O43 O 0.10911 0.65394 0.96964 0.0
O44 O 0.0999 0.63259 -0.004 0.0
O45 O 1.02781 0.67766 0.00614 0.0
O46 O 0.92603 0.67944 0.95168 0.0
O47 O 1.00247 0.63691 0.90483 0.0
O48 O 0.95289 0.65765 0.90628 0.0
O49 O 0.83339 0.63787 0.94851 0.0
O50 O 0.83426 0.6545 -0.00687 0.0
O51 O 1.00843 0.61111 0.94658 0.0
O52 O 0.88778 0.61122 0.98045 0.0
C53 C 0.1465 0.64281 0.98441 0.0
O54 O 0.98579 0.65235 0.05025 0.0
O55 O 0.96159 0.63053 0.04419 0.0
C56 C 0.94683 0.69747 -0.00564 0.0
C57 C 0.88723 0.72116 0.02074 0.0
C58 C 0.88023 0.70968 0.04874 0.0
C59 C 0.90967 0.69788 0.03557 0.0
C60 C 0.95423 0.70889 0.96671 0.0
C61 C 0.92501 0.72059 0.9797 0.0
C62 C 0.97922 0.68549 0.97849 0.0
C63 C 0.98217 0.64828 0.88477 0.0
C64 C 0.79144 0.64569 0.97162 0.0
C65 C 0.96248 0.59095 0.98135 0.0
C66 C 0.97899 0.56426 0.00793 0.0
C67 C 1.02731 0.56998 0.97349 0.0
C68 C 1.01887 0.58315 0.96028 0.0
C69 C 0.91655 0.58536 0.01692 0.0
C70 C 0.92492 0.57216 0.03013 0.0
C71 C 0.94364 0.60429 0.96178 0.0
H72 H 0.85106 0.70978 0.08047 0.0
H73 H 0.90331 0.68914 0.05736 0.0
H74 H 0.98318 0.70876 0.93488 0.0
H75 H 0.93324 0.72923 0.95771 0.0
H76 H 0.07066 0.56424 0.95616 0.0
H77 H 0.05436 0.58716 0.93245 0.0
H78 H 0.8717 0.59105 0.03354 0.0
H79 H 0.88612 0.56806 0.0565 0.0
Dy80 Dy 0.10448 0.66079 0.46835 0.0
Dy81 Dy 0.11125 0.62857 0.49066 0.0
C82 C 0.09655 0.64194 0.39284 0.0
O83 O 0.96502 0.65527 0.47904 0.0
O84 O 0.96906 0.63296 0.47916 0.0
O85 O 0.13129 0.67743 0.42326 0.0
O86 O 0.07107 0.67988 0.48517 0.0
O87 O 0.06882 0.63653 0.55242 0.0
O88 O 0.13215 0.65658 0.54201 0.0
O89 O 0.24218 0.63586 0.51172 0.0
O90 O 0.24618 0.65488 0.4673 0.0
O91 O 0.14952 0.61101 0.53159 0.0
O92 O 0.0948 0.61014 0.4631 0.0
C93 C 0.92653 0.64391 0.48 0.0
O94 O 0.05647 0.65174 0.40687 0.0
O95 O 0.1461 0.63429 0.42093 0.0
C96 C 0.15457 0.6976 0.45448 0.0
C97 C 0.23718 0.72189 0.45981 0.0
C98 C 0.2219 0.71659 0.41845 0.0
C99 C 0.181 0.70463 0.41585 0.0
C100 C 0.17066 0.70277 0.49605 0.0
C101 C 0.21155 0.71479 0.49866 0.0
C102 C 0.10333 0.68561 0.44968 0.0
C103 C 0.09541 0.64751 0.56752 0.0
C104 C 0.28598 0.64533 0.49243 0.0
C105 C 0.09417 0.59039 0.51064 0.0
C106 C 0.0674 0.56351 0.52916 0.0
C107 C 0.08158 0.57163 0.56421 0.0
C108 C 0.09528 0.5849 0.55506 0.0
C109 C 0.07559 0.5824 0.47575 0.0
C110 C 0.06231 0.56917 0.48483 0.0
C111 C 0.12685 0.60364 0.49967 0.0
H112 H 0.23925 0.72185 0.38772 0.0
H113 H 0.16809 0.701 0.38328 0.0
H114 H 0.15052 0.69764 0.52648 0.0
H115 H 0.22303 0.71852 0.53112 0.0
H116 H 0.08448 0.56768 0.59879 0.0
H117 H 0.11018 0.59074 0.58276 0.0
H118 H 0.07595 0.58627 0.44113 0.0
H119 H 0.05286 0.56328 0.45687 0.0
Dy120 Dy 0.97365 0.37359 0.51688 0.0
Dy121 Dy 0.96153 0.40584 0.50379 0.0
C122 C 0.95261 0.38927 0.42211 0.0
O123 O 0.11452 0.37984 0.51825 0.0
O124 O 0.10116 0.40162 0.49489 0.0
O125 O 0.94677 0.35562 0.48786 0.0
O126 O 1.01163 0.35544 0.55457 0.0
O127 O 0.03095 0.40091 0.57027 0.0
O128 O 0.97228 0.38077 0.58573 0.0
O129 O 0.84446 0.39831 0.53616 0.0
O130 O 0.82982 0.37879 0.50747 0.0
O131 O 0.90706 0.42338 0.52362 0.0
O132 O 0.98234 0.42406 0.46503 0.0
C133 C 0.14863 0.39113 0.50605 0.0
O134 O 0.99946 0.38034 0.44633 0.0
O135 O 0.90825 0.39769 0.44147 0.0
C136 C 0.93839 0.33599 0.53517 0.0
C137 C 0.87819 0.31025 0.5491 0.0
C138 C 0.83083 0.31934 0.51929 0.0
C139 C 0.86061 0.33206 0.51235 0.0
C140 C 0.98401 0.32706 0.56596 0.0
C141 C 0.95435 0.31437 0.57291 0.0
C142 C 0.98015 0.34855 0.52286 0.0
C143 C 1.01124 0.39129 0.59895 0.0
C144 C 0.79505 0.38893 0.52277 0.0
C145 C 0.97491 0.44343 0.50239 0.0
C146 C 1.01749 0.46905 0.52107 0.0
C147 C 1.01346 0.45919 0.55601 0.0
C148 C 0.99234 0.44652 0.5468 0.0
C149 C 0.98159 0.45315 0.46749 0.0
C150 C 1.00278 0.4658 0.47665 0.0
C151 C 0.94007 0.43068 0.49165 0.0
H152 H 0.77129 0.31657 0.50083 0.0
H153 H 0.82413 0.33868 0.48812 0.0
H154 H 0.04494 0.32974 0.5834 0.0
H155 H 0.9934 0.30765 0.59563 0.0
H156 H 1.02363 0.46132 0.59063 0.0
H157 H 0.98718 0.43925 0.57448 0.0
H158 H 0.96797 0.45104 0.43299 0.0
H159 H 1.00688 0.47305 0.44884 0.0
Dy160 Dy 0.61375 0.90556 0.01247 0.0
Dy161 Dy 0.59756 0.8738 0.00438 0.0
C162 C 0.59794 0.88574 0.09722 0.0
O163 O 0.75048 0.89763 0.02686 0.0
O164 O 0.73456 0.87906 0.99096 0.0
O165 O 0.64029 0.92201 0.05148 0.0
O166 O 0.61882 0.92458 0.97911 0.0
O167 O 0.55367 0.88341 0.93726 0.0
O168 O 0.63886 0.9013 0.94307 0.0
O169 O 0.46083 0.8805 0.00834 0.0
O170 O 0.46954 0.90275 -0.00429 0.0
O171 O 0.62116 0.8569 0.96983 0.0
O172 O 0.55473 0.85511 0.03133 0.0
C173 C 0.78398 0.8881 0.0074 0.0
O174 O 0.56774 0.89661 0.07653 0.0
O175 O 0.63639 0.87718 0.07547 0.0
C176 C 0.58669 0.94257 0.0187 0.0
C177 C 0.5227 0.96816 0.01403 0.0
C178 C 0.5888 0.9638 0.04685 0.0
C179 C 0.62063 0.95115 0.04901 0.0
C180 C 0.51741 0.94666 0.98744 0.0
C181 C 0.48591 0.95933 0.98508 0.0
C182 C 0.63265 0.93021 0.01605 0.0
C183 C 0.59232 0.89355 0.91869 0.0
C184 C 0.42434 0.89196 -0.00021 0.0
C185 C 0.63408 0.8366 0.01358 0.0
C186 C 0.70222 0.81127 0.0332 0.0
C187 C 0.7181 0.81844 -0.00721 0.0
C188 C 0.6842 0.83092 0.98304 0.0
C189 C 0.62036 0.82959 0.0546 0.0
C190 C 0.65436 0.8171 0.06437 0.0
C191 C 0.58791 0.84902 0.00021 0.0
H192 H 0.61745 0.97025 0.07028 0.0
H193 H 0.67433 0.94823 0.07327 0.0
H194 H 0.49008 0.94027 0.96347 0.0
H195 H 0.43556 0.96234 0.95911 0.0
H196 H 0.7558 0.81434 0.9683 0.0
H197 H 0.69522 0.83597 0.95094 0.0
H198 H 0.58093 0.83358 0.07863 0.0
H199 H 0.6401 0.81181 0.0956 0.0
Dy200 Dy 0.46255 0.15976 0.98858 0.0
Dy201 Dy 0.45224 0.12769 0.99087 0.0
C202 C 0.46928 0.14208 0.08122 0.0
O203 O 0.59538 0.15331 0.97482 0.0
O204 O 0.59585 0.13209 0.00427 0.0
O205 O 0.52284 0.17766 0.00573 0.0
O206 O 0.40939 0.17787 0.95776 0.0
O207 O 0.49602 0.13403 0.9235 0.0
O208 O 0.43258 0.15404 0.91907 0.0
O209 O 0.31479 0.13569 0.97823 0.0
O210 O 0.33251 0.15442 0.01249 0.0
O211 O 0.39586 0.11086 0.9627 0.0
O212 O 0.47946 0.10879 0.02466 0.0
C213 C 0.63709 0.14275 0.9913 0.0
O214 O 0.49624 0.15281 0.06031 0.0
O215 O 0.43174 0.13283 0.05973 0.0
C216 C 0.43622 0.19699 -0.00553 0.0
C217 C 0.39392 0.22181 0.01834 0.0
C218 C 0.42309 0.21202 0.05139 0.0
C219 C 0.44415 0.19971 0.03956 0.0
C220 C 0.40497 0.20662 0.96175 0.0
C221 C 0.38405 0.21887 0.97346 0.0
C222 C 0.46671 0.18473 0.97952 0.0
C223 C 0.46988 0.14474 0.90027 0.0
C224 C 0.28194 0.14534 -0.00268 0.0
C225 C 0.45646 0.08977 0.98506 0.0
C226 C 0.46671 0.06289 0.97806 0.0
C227 C 0.42073 0.07096 0.94441 0.0
C228 C 0.41547 0.08425 0.94792 0.0
C229 C 0.50729 0.08181 0.01718 0.0
C230 C 0.5127 0.06852 0.01361 0.0
C231 C 0.43168 0.10293 -0.00513 0.0
H232 H 0.43042 0.21391 0.08633 0.0
H233 H 0.46818 0.19243 0.06547 0.0
H234 H 0.39923 0.20477 0.92671 0.0
H235 H 0.36326 0.22618 0.94702 0.0
H236 H 0.38573 0.06694 0.91623 0.0
H237 H 0.37507 0.09006 0.9228 0.0
H238 H 0.53858 0.08571 0.04657 0.0
H239 H 0.54819 0.06257 0.04026 0.0
Dy240 Dy 0.59739 0.15883 0.4879 0.0
Dy241 Dy 0.59789 0.12612 0.5037 0.0
C242 C 0.5829 0.14133 0.40771 0.0
O243 O 0.46441 0.15319 0.50625 0.0
O244 O 0.45481 0.1315 0.49546 0.0
O245 O 0.64035 0.17663 0.45304 0.0
O246 O 0.54787 0.1771 0.50411 0.0
O247 O 0.57114 0.13346 0.56933 0.0
O248 O 0.63737 0.15332 0.55975 0.0
O249 O 0.7382 0.13176 0.51656 0.0
O250 O 0.73639 0.15296 0.4859 0.0
O251 O 0.63183 0.10778 0.54069 0.0
O252 O 0.57077 0.10838 0.47283 0.0
C253 C 0.41914 0.14254 0.50324 0.0
O254 O 0.5483 0.15135 0.42347 0.0
O255 O 0.62895 0.1328 0.43418 0.0
C256 C 0.6392 0.19558 0.49334 0.0
C257 C 0.70434 0.21959 0.51961 0.0
C258 C 0.72137 0.21538 0.47777 0.0
C259 C 0.6889 0.20355 0.46477 0.0
C260 C 0.62375 0.19964 0.53555 0.0
C261 C 0.65581 0.21147 0.54846 0.0
C262 C 0.59618 0.18388 0.47693 0.0
C263 C 0.60254 0.14407 0.5853 0.0
C264 C 0.77802 0.14246 0.50324 0.0
C265 C 0.567 0.08803 0.51672 0.0
C266 C 0.52931 0.06135 0.53241 0.0
C267 C 0.53898 0.06931 0.56817 0.0
C268 C 0.55811 0.08249 0.56045 0.0
C269 C 0.55331 0.08024 0.48094 0.0
C270 C 0.5348 0.0671 0.48861 0.0
C271 C 0.60341 0.10113 0.50762 0.0
H272 H 0.75948 0.22124 0.45487 0.0
H273 H 0.70114 0.20076 0.43186 0.0
H274 H 0.58481 0.19385 0.55829 0.0
H275 H 0.64001 0.21442 0.58062 0.0
H276 H 0.53381 0.06531 0.60231 0.0
H277 H 0.56885 0.0882 0.5888 0.0
H278 H 0.56127 0.08417 0.44693 0.0
H279 H 0.52937 0.06136 0.46017 0.0
Dy280 Dy 0.48939 0.8735 0.51932 0.0
Dy281 Dy 0.49263 0.90514 0.4867 0.0
C282 C 0.48175 0.88379 0.41464 0.0
O283 O 0.62926 0.88033 0.5297 0.0
O284 O 0.62027 0.89658 0.47336 0.0
O285 O 0.55004 0.85467 0.52422 0.0
O286 O 0.42634 0.85714 0.55325 0.0
O287 O 0.53363 0.90375 0.55979 0.0
O288 O 0.48371 0.88344 0.58182 0.0
O289 O 0.36397 0.90055 0.5144 0.0
O290 O 0.35052 0.87963 0.49698 0.0
O291 O 0.42715 0.92259 0.45652 0.0
O292 O 0.56478 0.92291 0.4793 0.0
C293 C 0.66716 0.88869 0.50193 0.0
O294 O 0.5033 0.87454 0.446 0.0
O295 O 0.46072 0.89551 0.42371 0.0
C296 C 0.45602 0.83653 0.52914 0.0
C297 C 0.41279 0.81168 0.50285 0.0
C298 C 0.43107 0.82183 0.47077 0.0
C299 C 0.4524 0.83414 0.48377 0.0
C300 C 0.43537 0.82656 0.56101 0.0
C301 C 0.41385 0.81428 0.54806 0.0
C302 C 0.48613 0.849 0.54451 0.0
C303 C 0.51413 0.8948 0.59105 0.0
C304 C 0.31494 0.89055 0.50589 0.0
C305 C 0.48657 0.94255 0.47786 0.0
C306 C 0.4838 0.96773 0.50701 0.0
C307 C 0.48041 0.95676 0.53786 0.0
C308 C 0.48197 0.94428 0.52342 0.0
C309 C 0.48753 0.95341 0.44696 0.0
C310 C 0.48623 0.96584 0.46128 0.0
C311 C 0.49709 0.92966 0.46187 0.0
H312 H 0.42957 0.82023 0.43559 0.0
H313 H 0.46765 0.84171 0.45853 0.0
H314 H 0.43806 0.8282 0.59621 0.0
H315 H 0.40111 0.8067 0.57373 0.0
H316 H 0.47732 0.95779 0.57324 0.0
H317 H 0.48134 0.93601 0.54786 0.0
H318 H 0.49181 0.95227 0.41168 0.0
H319 H 0.49039 0.97397 0.43654 0.0
H320 H 0.39432 0.406 0.03524 0.0
H321 H 0.33795 0.36865 0.98585 0.0
H322 H 0.49318 0.36609 0.97186 0.0
H323 H 0.56534 0.41581 0.96018 0.0
H324 H 0.63401 0.42298 0.0026 0.0
H325 H 0.51677 0.42262 0.0058 0.0
H326 H 0.53679 0.41094 0.08549 0.0
H327 H 0.65398 0.41132 0.08259 0.0
H328 H 0.59953 0.39617 0.0944 0.0
H329 H 0.6498 0.36724 0.96296 0.0
H330 H 0.80788 0.37063 0.96741 0.0
H331 H 0.77296 0.40665 0.02786 0.0
C332 C 0.41508 0.39736 0.02119 0.0
C333 C 0.35447 0.38752 0.01141 0.0
C334 C 0.38359 0.37624 -0.00625 0.0
C335 C 0.47141 0.37475 0.98536 0.0
C336 C 0.52968 0.38454 -0.00457 0.0
C337 C 0.50366 0.39554 0.01357 0.0
C338 C 0.58226 0.40403 0.02426 0.0
C339 C 0.57408 0.41714 -0.00345 0.0
C340 C 0.59381 0.40571 0.07469 0.0
C341 C 0.65609 0.39597 0.00952 0.0
C342 C 0.62316 0.38491 0.9923 0.0
C343 C 0.6767 0.37583 0.97656 0.0
C344 C 0.76689 0.37788 0.97939 0.0
C345 C 0.80373 0.38887 -0.00154 0.0
C346 C 0.74711 0.39817 0.01309 0.0
H347 H 0.27624 0.66171 0.98155 0.0
H348 H 0.23727 0.62023 0.98906 0.0
H349 H 0.39585 0.61692 0.98807 0.0
H350 H 0.45199 0.66284 0.90814 0.0
H351 H 0.51386 0.67503 0.93565 0.0
H352 H 0.39642 0.67445 0.93745 0.0
H353 H 0.41319 0.67299 0.02403 0.0
H354 H 0.53073 0.67358 0.02251 0.0
H355 H 0.48043 0.66041 0.054 0.0
H356 H 0.55523 0.61773 0.98166 0.0
H357 H 0.7114 0.62259 0.97563 0.0
H358 H 0.65644 0.66346 0.97715 0.0
C359 C 0.30125 0.65195 0.98315 0.0
C360 C 0.24357 0.64124 0.98537 0.0
C361 C 0.27935 0.62861 0.9876 0.0
C362 C 0.36968 0.62661 0.98693 0.0
C363 C 0.42445 0.63729 0.98457 0.0
C364 C 0.39228 0.64972 0.98323 0.0
C365 C 0.46711 0.65941 0.98127 0.0
C366 C 0.4567 0.66847 0.93805 0.0
C367 C 0.47321 0.66705 0.02294 0.0
C368 C 0.54576 0.65044 0.98109 0.0
C369 C 0.51877 0.63774 0.98269 0.0
C370 C 0.57738 0.62762 0.98084 0.0
C371 C 0.66607 0.6305 0.97721 0.0
C372 C 0.69639 0.64339 0.97606 0.0
C373 C 0.63533 0.65351 0.97847 0.0
H374 H 0.79042 0.66044 0.44659 0.0
H375 H 0.85123 0.62528 0.53161 0.0
H376 H 0.69635 0.62309 0.54732 0.0
H377 H 0.61766 0.67231 0.51144 0.0
H378 H 0.54832 0.6781 0.46285 0.0
H379 H 0.66564 0.6777 0.46012 0.0
H380 H 0.64755 0.66384 0.39247 0.0
H381 H 0.53027 0.66425 0.39489 0.0
H382 H 0.58682 0.64899 0.3975 0.0
H383 H 0.53947 0.62426 0.55405 0.0
H384 H 0.38092 0.62742 0.54641 0.0
H385 H 0.41165 0.66126 0.45346 0.0
C386 C 0.77072 0.65237 0.4687 0.0
C387 C 0.8326 0.64301 0.4879 0.0
C388 C 0.80474 0.63247 0.51625 0.0
C389 C 0.71705 0.6312 0.52569 0.0
C390 C 0.65755 0.64047 0.50617 0.0
C391 C 0.68229 0.65078 0.47786 0.0
C392 C 0.60264 0.6588 0.45929 0.0
C393 C 0.60897 0.67254 0.47433 0.0
C394 C 0.59116 0.65898 0.40799 0.0
C395 C 0.52977 0.65126 0.48134 0.0
C396 C 0.56401 0.64087 0.50874 0.0
C397 C 0.51155 0.63233 0.53265 0.0
C398 C 0.42109 0.63425 0.52791 0.0
C399 C 0.38302 0.64456 0.49901 0.0
C400 C 0.4385 0.65331 0.47583 0.0
H401 H 0.65964 0.37104 0.51225 0.0
H402 H 0.71201 0.41139 0.53144 0.0
H403 H 0.5551 0.41579 0.52816 0.0
H404 H 0.46691 0.37658 0.43563 0.0
H405 H 0.40658 0.363 0.45864 0.0
H406 H 0.52469 0.36255 0.46212 0.0
H407 H 0.52746 0.35781 0.54818 0.0
H408 H 0.40936 0.35821 0.54494 0.0
H409 H 0.47117 0.36857 0.58055 0.0
H410 H 0.39669 0.41661 0.52042 0.0
H411 H 0.23789 0.41338 0.51417 0.0
H412 H 0.27785 0.37243 0.50334 0.0
C413 C 0.63779 0.38076 0.51589 0.0
C414 C 0.69884 0.39083 0.52223 0.0
C415 C 0.66741 0.40343 0.52692 0.0
C416 C 0.57798 0.40611 0.5249 0.0
C417 C 0.51979 0.39609 0.51854 0.0
C418 C 0.54753 0.38364 0.51455 0.0
C419 C 0.46901 0.37475 0.5089 0.0
C420 C 0.46669 0.36887 0.46363 0.0
C421 C 0.46929 0.36421 0.54798 0.0
C422 C 0.39376 0.38425 0.51021 0.0
C423 C 0.42551 0.3965 0.51537 0.0
C424 C 0.37062 0.40707 0.51656 0.0
C425 C 0.28027 0.40512 0.51273 0.0
C426 C 0.24509 0.39266 0.50817 0.0
C427 C 0.3028 0.38205 0.50697 0.0
H428 H 0.91917 0.90294 0.04337 0.0
H429 H 0.86445 0.87263 0.95437 0.0
H430 H 1.01907 0.87215 0.93866 0.0
H431 H 0.08623 0.9195 0.97864 0.0
H432 H 0.15558 0.92298 0.0272 0.0
H433 H 0.03867 0.92167 0.03066 0.0
H434 H 0.06224 0.90412 0.09689 0.0
H435 H 0.17911 0.90546 0.09387 0.0
H436 H 0.12682 0.89001 0.09031 0.0
H437 H 0.17675 0.87406 0.93337 0.0
H438 H 0.33611 0.87724 0.94335 0.0
H439 H 0.29728 0.90623 0.03566 0.0
C440 C 0.93984 0.89625 0.02051 0.0
C441 C 0.87901 0.88783 0.00015 0.0
C442 C 0.90909 0.87915 0.97064 0.0
C443 C 0.99702 0.87885 0.96116 0.0
C444 C 0.05492 0.88725 0.98143 0.0
C445 C 1.0284 0.89572 0.01079 0.0
C446 C 0.10645 0.90319 0.0295 0.0
C447 C 0.09608 0.9177 0.01567 0.0
C448 C 0.11941 0.90053 0.08068 0.0
C449 C 0.1806 0.8974 0.00644 0.0
C450 C 0.14839 0.88833 0.97851 0.0
C451 C 0.20291 0.88119 0.95485 0.0
C452 C 0.29323 0.88307 0.96071 0.0
C453 C 0.32853 0.89203 0.98989 0.0
C454 C 0.27155 0.89951 0.01243 0.0
H455 H 0.14989 0.12821 0.97358 0.0
H456 H 0.19609 0.16473 0.03149 0.0
H457 H 0.03867 0.16696 0.03939 0.0
H458 H 0.94869 0.13758 0.91041 0.0
H459 H 0.89565 0.12222 0.92016 0.0
H460 H 1.01331 0.123 0.92017 0.0
H461 H 1.02784 0.11106 -0.00048 0.0
H462 H 0.91012 0.11027 -0.00019 0.0
H463 H 0.97339 0.11747 0.04409 0.0
H464 H 0.87883 0.1662 0.03808 0.0
H465 H 0.72034 0.16235 0.02787 0.0
H466 H 0.76983 0.12602 0.97304 0.0
C467 C 0.12683 0.13664 0.98809 0.0
C468 C 0.18604 0.14629 0.0019 0.0
C469 C 0.15283 0.15717 0.02065 0.0
C470 C 0.0632 0.15854 0.0254 0.0
C471 C 1.00689 0.14893 0.01151 0.0
C472 C 0.03677 0.13817 -0.00668 0.0
C473 C 0.96051 0.12947 0.98036 0.0
C474 C 0.95419 0.12799 0.92977 0.0
C475 C 0.96846 0.11629 0.00757 0.0
C476 C 0.88343 0.13719 -0.00642 0.0
C477 C 0.91256 0.14836 0.01153 0.0
C478 C 0.8551 0.15744 0.02446 0.0
C479 C 0.76521 0.15518 0.01842 0.0
C480 C 0.73304 0.14388 -8e-05 0.0
C481 C 0.79291 0.13463 0.98792 0.0
H482 H 0.28484 0.12506 0.48588 0.0
H483 H 0.33918 0.16217 0.53831 0.0
H484 H 0.1837 0.16505 0.54809 0.0
H485 H 0.08566 0.13437 0.42406 0.0
H486 H 1.02878 0.11944 0.43633 0.0
H487 H 0.14647 0.11949 0.43603 0.0
H488 H 0.15947 0.1086 0.51698 0.0
H489 H 0.04166 0.1085 0.51751 0.0
H490 H 0.10721 0.11598 0.56034 0.0
H491 H 1.025 0.16537 0.54615 0.0
H492 H 0.86543 0.16245 0.53561 0.0
H493 H 0.90554 0.12484 0.48799 0.0
C494 C 0.26395 0.13369 0.49993 0.0
C495 C 0.32473 0.14341 0.5109 0.0
C496 C 0.29449 0.15461 0.52904 0.0
C497 C 0.20599 0.15634 0.53505 0.0
C498 C 0.14778 0.14678 0.52321 0.0
C499 C 0.17481 0.13561 0.50637 0.0
C500 C 0.09644 0.12717 0.49498 0.0
C501 C 0.08892 0.12499 0.44487 0.0
C502 C 0.10152 0.1143 0.5242 0.0
C503 C 1.02178 0.13556 0.50704 0.0
C504 C 0.05373 0.1468 0.52335 0.0
C505 C 0.99888 0.15654 0.5341 0.0
C506 C 0.90849 0.15482 0.52779 0.0
C507 C 0.87371 0.14341 0.51133 0.0
C508 C 0.93091 0.13355 0.50137 0.0
H509 H 0.80328 0.87052 0.51368 0.0
H510 H 0.74836 0.91162 0.49708 0.0
H511 H 0.90617 0.91616 0.49801 0.0
H512 H 1.0067 0.87217 0.58619 0.0
H513 H 0.06229 0.85984 0.56023 0.0
H514 H 0.94461 0.85955 0.56124 0.0
H515 H 0.92965 0.85931 0.475 0.0
H516 H 0.04724 0.85966 0.47371 0.0
H517 H 0.98097 0.87183 0.44089 0.0
H518 H 0.06648 0.91665 0.49953 0.0
H519 H 0.22488 0.91314 0.49949 0.0
H520 H 0.18465 0.87167 0.5114 0.0
C521 C 0.82499 0.88044 0.51088 0.0
C522 C 0.76343 0.89074 0.50552 0.0
C523 C 0.79413 0.90359 0.5011 0.0
C524 C 0.88376 0.90628 0.50169 0.0
C525 C 0.94271 0.89601 0.50624 0.0
C526 C 0.91527 0.88333 0.51057 0.0
C527 C 0.99385 0.87423 0.51282 0.0
C528 C 1.00235 0.86596 0.5578 0.0
C529 C 0.98752 0.86576 0.47324 0.0
C530 C 0.06903 0.88381 0.50907 0.0
C531 C 0.03724 0.8963 0.50568 0.0
C532 C 0.09235 0.90692 0.50218 0.0
C533 C 0.18262 0.90479 0.50227 0.0
C534 C 0.21795 0.89213 0.50547 0.0
C535 C 0.15992 0.88147 0.5087 0.0
H536 H 0.98169 0.54523 0.94991 0.0
H537 H 0.98223 0.55103 0.09126 0.0
H538 H 0.98309 0.52742 0.1094 0.0
H539 H 0.84273 0.51735 0.95178 0.0
H540 H 0.90198 0.50948 0.912 0.0
H541 H 0.89966 0.52682 0.91004 0.0
H542 H 0.06951 0.5273 0.91657 0.0
H543 H 0.07237 0.50997 0.91828 0.0
H544 H 0.12871 0.51807 0.96259 0.0
H545 H 0.98565 0.50315 0.11209 0.0
H546 H 0.99547 0.48009 0.09958 0.0
H547 H 0.99437 0.49015 0.95639 0.0
C548 C 0.98293 0.54157 0.98476 0.0
C549 C 0.98192 0.55003 0.01918 0.0
C550 C 0.98195 0.54477 0.06426 0.0
C551 C 0.98273 0.53137 0.0749 0.0
C552 C 0.98339 0.52334 0.04011 0.0
C553 C 0.98381 0.52824 -0.00403 0.0
C554 C 0.98569 0.51753 0.96489 0.0
C555 C 0.90256 0.51782 0.93279 0.0
C556 C 0.06904 0.51826 0.93907 0.0
C557 C 0.98718 0.50581 -0.00151 0.0
C558 C 0.98516 0.50937 0.04166 0.0
C559 C 0.98676 0.50025 0.07841 0.0
C560 C 0.99162 0.48716 0.07089 0.0
C561 C 0.99507 0.48327 0.02696 0.0
C562 C 0.99216 0.49279 0.99037 0.0
H563 H 0.94122 0.4912 0.47823 0.0
H564 H 0.13279 0.47795 0.58601 0.0
H565 H 0.16032 0.50051 0.6024 0.0
H566 H 0.06026 0.51907 0.439 0.0
H567 H 0.96372 0.52896 0.42565 0.0
H568 H 0.95674 0.51174 0.42366 0.0
H569 H 0.83405 0.51091 0.47889 0.0
H570 H 0.84092 0.52813 0.48121 0.0
H571 H 0.8538 0.5176 0.53208 0.0
H572 H 0.17053 0.52468 0.60544 0.0
H573 H 0.16543 0.5484 0.59383 0.0
H574 H 0.96604 0.54592 0.48442 0.0
C575 C 0.98948 0.49301 0.50511 0.0
C576 C 0.03475 0.48271 0.53084 0.0
C577 C 0.09633 0.48559 0.56615 0.0
C578 C 0.11271 0.4984 0.57562 0.0
C579 C 0.06694 0.50828 0.54958 0.0
C580 C 1.00665 0.50573 0.51501 0.0
C581 C 0.96749 0.5181 0.4915 0.0
C582 C 0.98833 0.51955 0.44203 0.0
C583 C 0.86817 0.51872 0.49622 0.0
C584 C 1.01586 0.52803 0.51794 0.0
C585 C 0.07258 0.52217 0.55144 0.0
C586 C 0.12576 0.52936 0.57955 0.0
C587 C 0.12177 0.54288 0.57289 0.0
C588 C 0.06492 0.54916 0.53836 0.0
C589 C 1.01069 0.54152 0.51095 0.0
H590 H 0.62761 0.9895 0.02181 0.0
H591 H 0.35733 0.97826 -0.0076 0.0
H592 H 0.31514 1.00119 0.97774 0.0
H593 H 0.57707 0.01746 0.0798 0.0
H594 H 0.66638 0.02681 0.05829 0.0
H595 H 0.6751 1.0095 0.06622 0.0
H596 H 0.70787 1.00883 0.98308 0.0
H597 H 0.69844 0.02614 0.97476 0.0
H598 H 0.63163 1.01618 0.93978 0.0
H599 H 0.30276 0.0253 0.96495 0.0
H600 H 0.31901 0.04895 0.95948 0.0
H601 H 0.59673 0.04455 -0.00091 0.0
C602 C 0.55921 0.99182 0.01303 0.0
C603 C 0.49586 0.982 0.00817 0.0
C604 C 0.4074 0.98555 -0.00427 0.0
C605 C 0.38268 0.99856 0.9875 0.0
C606 C 0.44702 1.00794 0.99209 0.0
C607 C 0.5333 1.00475 0.00496 0.0
C608 C 0.58952 1.0167 0.00782 0.0
C609 C 0.62934 0.01767 0.05589 0.0
C610 C 0.66108 0.01697 0.97436 0.0
C611 C 0.52134 0.02713 -0.00554 0.0
C612 C 0.4397 0.02186 0.98527 0.0
C613 C 0.36638 0.02954 0.97202 0.0
C614 C 0.37648 0.04297 0.96863 0.0
C615 C 0.45927 0.04862 0.97855 0.0
C616 C 0.53258 0.04053 0.99144 0.0
H617 H 0.43365 0.04462 0.48097 0.0
H618 H 0.60765 0.04537 0.60154 0.0
H619 H 0.60461 0.02164 0.61152 0.0
H620 H 0.30488 1.01639 0.51806 0.0
H621 H 0.2976 1.01033 0.46351 0.0
H622 H 0.30554 0.02743 0.46849 0.0
H623 H 0.4418 0.02843 0.42193 0.0
H624 H 0.43448 1.01135 0.41694 0.0
H625 H 0.53467 0.01813 0.43988 0.0
H626 H 0.59323 0.99766 0.60497 0.0
H627 H 0.57433 0.97554 0.58239 0.0
H628 H 0.40872 0.99027 0.46577 0.0
C629 C 0.47075 0.03985 0.5097 0.0
C630 C 0.52044 0.04702 0.54061 0.0
C631 C 0.56742 0.04024 0.57783 0.0
C632 C 0.56666 0.0267 0.58366 0.0
C633 C 0.5185 0.01998 0.55209 0.0
C634 C 0.47109 0.02633 0.51593 0.0
C635 C 0.4287 1.01682 0.48547 0.0
C636 C 0.32821 0.0178 0.4838 0.0
C637 C 0.46193 0.0188 0.43827 0.0
C638 C 0.46129 1.00415 0.50961 0.0
C639 C 0.51232 1.00617 0.54819 0.0
C640 C 0.5524 0.99596 0.57513 0.0
C641 C 0.54076 0.98338 0.56212 0.0
C642 C 0.48959 0.98104 0.52235 0.0
C643 C 0.44868 0.99165 0.4962 0.0
H644 H 0.16654 0.29142 0.98987 0.0
H645 H 0.36707 0.3037 0.08678 0.0
H646 H 0.42979 0.2817 0.09545 0.0
H647 H 0.13448 0.2599 0.04286 0.0
H648 H 0.11999 0.2523 0.99116 0.0
H649 H 0.09076 0.26901 -0.00753 0.0
H650 H 0.19322 0.27537 0.92928 0.0
H651 H 0.2222 0.25866 0.92751 0.0
H652 H 0.30673 0.27045 0.93625 0.0
H653 H 0.47064 0.25826 0.09356 0.0
H654 H 0.4904 0.23551 0.07867 0.0
H655 H 0.26259 0.2386 0.9833 0.0
C656 C 0.22435 0.28956 0.01249 0.0
C657 C 0.2617 0.29933 0.03771 0.0
C658 C 0.33653 0.29636 0.0675 0.0
C659 C 0.37284 0.2839 0.07256 0.0
C660 C 0.33375 0.27448 0.04756 0.0
C661 C 0.26147 0.27718 0.01793 0.0
C662 C 0.23218 0.26536 -0.00516 0.0
C663 C 0.13882 0.26141 0.00602 0.0
C664 C 0.23903 0.2676 0.94396 0.0
C665 C 0.29939 0.25559 0.01604 0.0
C666 C 0.35723 0.26102 0.04647 0.0
C667 C 0.42553 0.2539 0.0699 0.0
C668 C 0.43576 0.24094 0.06149 0.0
C669 C 0.37804 0.23521 0.02986 0.0
C670 C 0.30843 0.24268 0.00736 0.0
H671 H 0.6975 0.79269 0.97361 0.0
H672 H 0.77361 0.79882 0.11207 0.0
H673 H 0.82184 0.77604 0.12564 0.0
H674 H 0.61763 0.76022 -0.00635 0.0
H675 H 0.65881 0.75492 0.94356 0.0
H676 H 0.62768 0.77154 0.94547 0.0
H677 H 0.78214 0.77882 0.92365 0.0
H678 H 0.81358 0.76224 0.92147 0.0
H679 H 0.87768 0.77242 0.95681 0.0
H680 H 0.86657 0.75251 0.12291 0.0
H681 H 0.90683 0.73074 0.10355 0.0
H682 H 0.79943 0.74034 0.96717 0.0
C683 C 0.7249 0.7893 0.00676 0.0
C684 C 0.732 0.79759 0.04174 0.0
C685 C 0.76676 0.79264 0.08481 0.0
C686 C 0.79455 0.77972 0.09281 0.0
C687 C 0.78674 0.77184 0.05746 0.0
C688 C 0.75269 0.77647 0.0153 0.0
C689 C 0.75261 0.76616 0.9827 0.0
C690 C 0.65858 0.76303 0.96534 0.0
C691 C 0.80993 0.77015 0.94388 0.0
C692 C 0.79319 0.75504 0.01286 0.0
C693 C 0.81199 0.75843 0.05595 0.0
C694 C 0.8516 0.74975 0.08931 0.0
C695 C 0.87375 0.73737 0.07809 0.0
C696 C 0.85662 0.73381 0.03382 0.0
C697 C 0.81445 0.74277 0.00119 0.0
H698 H 0.19327 0.7415 0.51069 0.0
H699 H 0.37343 0.73181 0.41337 0.0
H700 H 0.4358 0.75368 0.41308 0.0
H701 H 0.15187 0.77404 0.46646 0.0
H702 H 0.14838 0.78033 0.52036 0.0
H703 H 0.11833 0.76383 0.51363 0.0
H704 H 0.23396 0.75601 0.57743 0.0
H705 H 0.264 0.7725 0.58455 0.0
H706 H 0.34644 0.76099 0.57411 0.0
H707 H 0.47709 0.77674 0.42215 0.0
H708 H 0.49847 0.79908 0.44226 0.0
H709 H 0.29242 0.79389 0.5341 0.0
C710 C 0.24665 0.7439 0.48977 0.0
C711 C 0.27804 0.73489 0.46187 0.0
C712 C 0.34721 0.73856 0.43453 0.0
C713 C 0.38342 0.75095 0.43428 0.0
C714 C 0.35015 0.75963 0.46166 0.0
C715 C 0.2837 0.75626 0.48912 0.0
C716 C 0.25966 0.76745 0.51516 0.0
C717 C 0.16388 0.77166 0.50317 0.0
C718 C 0.27708 0.76403 0.56581 0.0
C719 C 0.32293 0.77764 0.498 0.0
C720 C 0.37432 0.77292 0.46707 0.0
C721 C 0.43715 0.78054 0.44631 0.0
C722 C 0.44832 0.79327 0.45771 0.0
C723 C 0.39702 0.79832 0.48966 0.0
C724 C 0.3333 0.79033 0.50986 0.0
H725 H 0.81181 0.29514 0.48341 0.0
H726 H 0.88364 0.29392 0.62614 0.0
H727 H 0.84874 0.27072 0.63386 0.0
H728 H 0.62779 0.27297 0.49181 0.0
H729 H 0.64914 0.26566 0.44142 0.0
H730 H 0.67868 0.28222 0.44734 0.0
H731 H 0.83864 0.27703 0.43175 0.0
H732 H 0.80982 0.26043 0.42623 0.0
H733 H 0.89762 0.26436 0.46601 0.0
H734 H 0.81076 0.24742 0.62574 0.0
H735 H 0.76619 0.22602 0.60308 0.0
H736 H 0.71236 0.24252 0.46617 0.0
C737 C 0.8189 0.29007 0.51645 0.0
C738 C 0.85096 0.29643 0.55416 0.0
C739 C 0.86054 0.28929 0.5966 0.0
C740 C 0.84048 0.2761 0.60138 0.0
C741 C 0.81037 0.27012 0.56347 0.0
C742 C 0.79891 0.27688 0.52188 0.0
C743 C 0.76594 0.26812 0.48647 0.0
C744 C 0.67498 0.27251 0.46554 0.0
C745 C 0.83196 0.26745 0.4505 0.0
C746 C 0.76105 0.25537 0.51463 0.0
C747 C 0.78715 0.25673 0.55893 0.0
C748 C 0.78936 0.24628 0.5912 0.0
C749 C 0.7634 0.23414 0.57798 0.0
C750 C 0.735 0.23249 0.53283 0.0
C751 C 0.73445 0.24333 0.50086 0.0
H752 H 0.05601 0.37024 0.17781 0.0
H753 H 0.03742 0.41114 0.13616 0.0
H754 H 0.99564 0.41548 0.21106 0.0
H755 H 0.87857 0.36853 0.25261 0.0
H756 H 0.93582 0.35756 0.29444 0.0
H757 H 0.95807 0.35736 0.23645 0.0
H758 H 0.12319 0.36094 0.25712 0.0
H759 H 0.10149 0.36109 0.31517 0.0
H760 H 0.15656 0.37452 0.28765 0.0
H761 H 0.95338 0.41551 0.28892 0.0
H762 H 0.93114 0.41168 0.36926 0.0
H763 H 0.99013 0.37104 0.36462 0.0
C764 C 0.04249 0.38007 0.18463 0.0
C765 C 0.04928 0.39037 0.1513 0.0
C766 C 0.03273 0.40314 0.16133 0.0
C767 C 1.00843 0.40569 0.20367 0.0
C768 C 1.0025 0.39538 0.23593 0.0
C769 C 1.02043 0.38284 0.22736 0.0
C770 C 1.01532 0.37372 0.26931 0.0
C771 C 0.9426 0.3637 0.2628 0.0
C772 C 0.10445 0.36719 0.28312 0.0
C773 C 0.9919 0.38313 0.30259 0.0
C774 C 0.98316 0.39551 0.28219 0.0
C775 C 0.96036 0.40587 0.30541 0.0
C776 C 0.94745 0.40358 0.351 0.0
C777 C 0.95902 0.39107 0.37316 0.0
C778 C 0.98118 0.3807 0.34852 0.0
H779 H 0.96925 0.65782 0.13165 0.0
H780 H 1.0172 0.6174 0.11559 0.0
H781 H 0.05293 0.61342 0.1969 0.0
H782 H 0.14006 0.66179 0.21538 0.0
H783 H 0.07797 0.67212 0.24669 0.0
H784 H 0.05327 0.67181 0.18731 0.0
H785 H 0.89167 0.66609 0.20042 0.0
H786 H 0.91566 0.66651 0.25985 0.0
H787 H 0.86798 0.65229 0.23795 0.0
H788 H 0.0938 0.61413 0.27894 0.0
H789 H 0.12222 0.61902 0.35766 0.0
H790 H 0.0408 0.65869 0.32108 0.0
C791 C 0.98657 0.64811 0.14527 0.0
C792 C 0.99055 0.63793 0.11721 0.0
C793 C 1.01314 0.62535 0.1364 0.0
C794 C 0.034 0.62299 0.18254 0.0
C795 C 0.03085 0.63328 0.20913 0.0
C796 C 1.00639 0.64554 0.19136 0.0
C797 C 1.00758 0.65487 0.22744 0.0
C798 C 0.07367 0.66579 0.21867 0.0
C799 C 0.91522 0.66025 0.23166 0.0
C800 C 0.03781 0.64597 0.26812 0.0
C801 C 0.05148 0.63358 0.25676 0.0
C802 C 0.0825 0.62376 0.28835 0.0
C803 C 0.09893 0.62665 0.33289 0.0
C804 C 0.0834 0.63921 0.34543 0.0
C805 C 0.05257 0.64897 0.31251 0.0
H806 H 0.99826 0.63046 0.82351 0.0
H807 H 0.99588 0.67167 0.83717 0.0
H808 H 1.02551 0.67584 0.75764 0.0
H809 H 0.17048 0.63027 0.7498 0.0
H810 H 0.12092 0.61821 0.71654 0.0
H811 H 0.09851 0.61838 0.77448 0.0
H812 H 0.93175 0.61969 0.75194 0.0
H813 H 0.9536 0.61944 0.69394 0.0
H814 H 0.88981 0.6324 0.71153 0.0
H815 H 0.06281 0.67554 0.6782 0.0
H816 H 0.09285 0.67092 0.60171 0.0
H817 H 0.06426 0.62993 0.63829 0.0
C818 C 1.00369 0.64036 0.80973 0.0
C819 C 0.99502 0.65074 0.83655 0.0
C820 C 1.0019 0.66357 0.81721 0.0
C821 C 1.01907 0.66604 0.77213 0.0
C822 C 1.02813 0.65559 0.74677 0.0
C823 C 1.0196 0.64301 0.76463 0.0
C824 C 0.03093 0.63355 0.72982 0.0
C825 C 0.10992 0.62458 0.74349 0.0
C826 C 0.94649 0.62582 0.72131 0.0
C827 C 0.04813 0.64278 0.6897 0.0
C828 C 0.04686 0.65544 0.70037 0.0
C829 C 0.06337 0.66568 0.66932 0.0
C830 C 0.08082 0.66294 0.62602 0.0
C831 C 0.0808 0.65007 0.61402 0.0
C832 C 0.0642 0.63987 0.6464 0.0
H833 H 1.00313 0.3732 0.67239 0.0
H834 H 0.06135 0.41343 0.63518 0.0
H835 H 0.0896 0.41713 0.71422 0.0
H836 H 0.89314 0.37852 0.77046 0.0
H837 H 0.93781 0.36446 0.80348 0.0
H838 H 0.92414 0.36457 0.74343 0.0
H839 H 0.08866 0.35902 0.74113 0.0
H840 H 0.10287 0.35891 0.80122 0.0
H841 H 0.17022 0.36917 0.76658 0.0
H842 H 0.10311 0.41724 0.79584 0.0
H843 H 0.10713 0.41339 0.87786 0.0
H844 H 0.04784 0.37297 0.86578 0.0
C845 C 1.02224 0.38275 0.68094 0.0
C846 C 1.03 0.393 0.64727 0.0
C847 C 0.05523 0.40537 0.65999 0.0
C848 C 0.07146 0.40761 0.70497 0.0
C849 C 0.06309 0.39739 0.7372 0.0
C850 C 0.03973 0.38518 0.72608 0.0
C851 C 0.03502 0.37601 0.76805 0.0
C852 C 0.94199 0.37057 0.77155 0.0
C853 C 0.10327 0.36513 0.76931 0.0
C854 C 0.05799 0.38508 0.80419 0.0
C855 C 0.07366 0.39737 0.7853 0.0
C856 C 0.09191 0.40764 0.81115 0.0
C857 C 0.09373 0.40537 0.8577 0.0
C858 C 0.0783 0.39289 0.87811 0.0
C859 C 0.0612 0.38256 0.85099 0.0
H860 H 0.54021 0.90224 0.15544 0.0
H861 H 0.62295 0.86264 0.14753 0.0
H862 H 0.59258 0.85755 0.22664 0.0
H863 H 0.63481 0.90527 0.26651 0.0
H864 H 0.5468 0.91514 0.28174 0.0
H865 H 0.57267 0.9155 0.22418 0.0
H866 H 0.41185 0.90962 0.20131 0.0
H867 H 0.3857 0.90911 0.25891 0.0
H868 H 0.36445 0.89529 0.22753 0.0
H869 H 0.55351 0.85678 0.3064 0.0
H870 H 0.52031 0.8607 0.38301 0.0
H871 H 0.46498 0.90094 0.33937 0.0
C872 C 0.55195 0.89249 0.17028 0.0
C873 C 0.5839 0.88283 0.14522 0.0
C874 C 0.59884 0.87021 0.16605 0.0
C875 C 0.58127 0.86721 0.2109 0.0
C876 C 0.54904 0.87693 0.23446 0.0
C877 C 0.53525 0.88934 0.21503 0.0
C878 C 0.50318 0.89812 0.2482 0.0
C879 C 0.56826 0.90915 0.2556 0.0
C880 C 0.4108 0.90334 0.23307 0.0
C881 C 0.50179 0.88872 0.28949 0.0
C882 C 0.5276 0.87653 0.28068 0.0
C883 C 0.53316 0.86628 0.3137 0.0
C884 C 0.51396 0.86863 0.35717 0.0
C885 C 0.49001 0.88115 0.36742 0.0
C886 C 0.48242 0.89125 0.33273 0.0
H887 H 0.48712 0.16005 0.14404 0.0
H888 H 0.487 0.1189 0.12931 0.0
H889 H 0.51772 0.11449 0.2106 0.0
H890 H 0.65911 0.15992 0.2325 0.0
H891 H 0.6077 0.17178 0.2625 0.0
H892 H 0.58692 0.17192 0.20269 0.0
H893 H 0.41995 0.17053 0.21171 0.0
H894 H 0.44018 0.17042 0.27153 0.0
H895 H 0.37796 0.15761 0.24786 0.0
H896 H 0.55486 0.11433 0.29198 0.0
H897 H 0.58301 0.11837 0.37128 0.0
H898 H 0.54964 0.1595 0.33611 0.0
C899 C 0.49356 0.15014 0.15805 0.0
C900 C 0.48472 0.13982 0.13036 0.0
C901 C 0.49285 0.12695 0.14988 0.0
C902 C 0.51076 0.12434 0.19602 0.0
C903 C 0.51924 0.13467 0.22239 0.0
C904 C 0.50984 0.14731 0.20443 0.0
C905 C 0.51948 0.15655 0.24094 0.0
C906 C 0.59799 0.16557 0.23425 0.0
C907 C 0.43431 0.16423 0.24313 0.0
C908 C 0.5364 0.14709 0.28199 0.0
C909 C 0.53694 0.13454 0.27025 0.0
C910 C 0.55395 0.1241 0.30175 0.0
C911 C 0.57025 0.1265 0.34666 0.0
C912 C 0.56818 0.13923 0.3598 0.0
C913 C 0.55083 0.14966 0.32699 0.0
H914 H 0.49444 0.12659 0.84046 0.0
H915 H 0.48736 0.16785 0.85264 0.0
H916 H 0.52647 0.17192 0.77468 0.0
H917 H 0.67483 0.12638 0.77013 0.0
H918 H 0.62812 0.11434 0.7359 0.0
H919 H 0.60117 0.11447 0.79322 0.0
H920 H 0.43578 0.11576 0.7675 0.0
H921 H 0.4622 0.11553 0.71015 0.0
H922 H 0.39653 0.12847 0.7264 0.0
H923 H 0.57195 0.17166 0.69726 0.0
H924 H 0.60399 0.16725 0.621 0.0
H925 H 0.57293 0.1262 0.65585 0.0
C926 C 0.50098 0.13647 0.82659 0.0
C927 C 0.488 0.14691 0.8526 0.0
C928 C 0.4964 0.15971 0.83326 0.0
C929 C 0.51919 0.16212 0.78909 0.0
C930 C 0.53222 0.15165 0.76445 0.0
C931 C 0.5221 0.13908 0.78209 0.0
C932 C 0.53646 0.12964 0.74747 0.0
C933 C 0.61482 0.12068 0.76259 0.0
C934 C 0.45275 0.1219 0.73728 0.0
C935 C 0.5566 0.1389 0.70779 0.0
C936 C 0.55497 0.15153 0.71869 0.0
C937 C 0.57298 0.16183 0.68817 0.0
C938 C 0.59165 0.1592 0.64497 0.0
C939 C 0.59101 0.14637 0.63241 0.0
C940 C 0.5737 0.13609 0.66443 0.0
H941 H 0.47473 0.87912 0.66492 0.0
H942 H 0.58679 0.91637 0.62516 0.0
H943 H 0.61596 0.92026 0.70474 0.0
H944 H 0.36984 0.8891 0.76081 0.0
H945 H 0.3928 0.87406 0.79387 0.0
H946 H 0.37837 0.87439 0.73377 0.0
H947 H 0.5304 0.86352 0.73232 0.0
H948 H 0.54544 0.86319 0.79237 0.0
H949 H 0.62589 0.87085 0.75816 0.0
H950 H 0.63821 0.91971 0.78847 0.0
H951 H 0.64854 0.91506 0.87045 0.0
H952 H 0.5202 0.87826 0.85543 0.0
C953 C 0.505 0.88814 0.67278 0.0
C954 C 0.52859 0.89743 0.63866 0.0
C955 C 0.56804 0.9091 0.65062 0.0
C956 C 0.58492 0.9114 0.69574 0.0
C957 C 0.56154 0.90198 0.72845 0.0
C958 C 0.52202 0.89061 0.71755 0.0
C959 C 0.50438 0.88198 0.75906 0.0
C960 C 0.40547 0.87976 0.76204 0.0
C961 C 0.55454 0.86913 0.76055 0.0
C962 C 0.54106 0.89021 0.79509 0.0
C963 C 0.57364 0.90171 0.77671 0.0
C964 C 0.61253 0.91077 0.80325 0.0
C965 C 0.61826 0.90801 0.84982 0.0
C966 C 0.58515 0.89629 0.86945 0.0
C967 C 0.54579 0.88732 0.84154 0.0
loop_
_geom_bond_atom_site_label_1
_geom_bond_atom_site_label_2
_geom_bond_distance
_geom_bond_site_symmetry_2
_ccdc_geom_bond_type
Dy0 O3 2.307 . S
Dy0 O5 2.395 . S
Dy0 O6 2.379 1_554 S
Dy0 O8 2.339 1_554 S
Dy0 O10 2.298 1_454 S
Dy0 O14 2.275 . S
Dy0 C22 2.738 1_455 S
Dy1 O4 2.298 . S
Dy1 O7 2.275 1_554 S
Dy1 O9 2.307 1_455 S
Dy1 O11 2.395 1_554 S
Dy1 O12 2.379 . S
Dy1 O15 2.339 . S
Dy1 C31 2.738 . S
C2 O14 1.254 . S
C2 O15 1.257 . S
O3 Dy0 2.307 . S
O3 C13 1.266 . S
O4 Dy1 2.298 . S
O4 C13 1.236 . S
O5 Dy0 2.395 . S
O5 C22 1.255 1_455 S
O6 Dy0 2.379 1_556 S
O6 C22 1.249 1_456 S
O7 Dy1 2.275 1_556 S
O7 C23 1.254 . S
O8 Dy0 2.339 1_556 S
O8 C23 1.257 . S
O9 Dy1 2.307 1_655 S
O9 C24 1.266 . S
O10 Dy0 2.298 1_656 S
O10 C24 1.236 1_556 S
O11 Dy1 2.395 1_556 S
O11 C31 1.255 1_556 S
O12 Dy1 2.379 . S
O12 C31 1.249 . S
C13 O3 1.266 . S
C13 O4 1.236 . S
O14 Dy0 2.275 . S
O14 C2 1.254 . S
O15 Dy1 2.339 . S
O15 C2 1.257 . S
C16 C19 1.344 . S
C16 C20 1.328 1_554 S
C16 C22 1.516 . S
C17 C18 1.304 . S
C17 C21 1.323 1_554 S
C18 C17 1.304 . S
C18 C19 1.371 . S
C18 H32 0.930 . S
C19 C16 1.344 . S
C19 C18 1.371 . S
C19 H33 0.931 . S
C20 C16 1.328 1_556 S
C20 C21 1.433 . S
C20 H34 0.931 . S
C21 C17 1.323 1_556 S
C21 C20 1.433 . S
C21 H35 0.933 . S
C22 Dy0 2.738 1_655 S
C22 O5 1.255 1_655 S
C22 O6 1.249 1_654 S
C22 C16 1.516 . S
C23 O7 1.254 . S
C23 O8 1.257 . S
C24 O9 1.266 . S
C24 O10 1.236 1_554 S
C25 C28 1.344 1_554 S
C25 C29 1.328 . S
C25 C31 1.516 . S
C26 C27 1.304 1_554 S
C26 C30 1.323 . S
C27 C26 1.304 1_556 S
C27 C28 1.371 . S
C27 H36 0.930 . S
C28 C25 1.344 1_556 S
C28 C27 1.371 . S
C28 H37 0.931 . S
C29 C25 1.328 . S
C29 C30 1.433 . S
C29 H38 0.931 . S
C30 C26 1.323 . S
C30 C29 1.433 . S
C30 H39 0.933 . S
C31 Dy1 2.738 . S
C31 O11 1.255 1_554 S
C31 O12 1.249 . S
C31 C25 1.516 . S
H32 C18 0.930 . S
H33 C19 0.931 . S
H34 C20 0.931 . S
H35 C21 0.933 . S
H36 C27 0.930 . S
H37 C28 0.931 . S
H38 C29 0.931 . S
H39 C30 0.933 . S
Dy40 O43 2.307 1_655 S
Dy40 O45 2.395 . S
Dy40 O46 2.379 1_554 S
Dy40 O48 2.339 1_554 S
Dy40 O50 2.298 1_554 S
Dy40 O54 2.275 . S
Dy40 C62 2.738 . S
Dy41 O44 2.298 1_655 S
Dy41 O47 2.275 1_554 S
Dy41 O49 2.307 . S
Dy41 O51 2.395 1_554 S
Dy41 O52 2.379 . S
Dy41 O55 2.339 . S
Dy41 C71 2.738 1_655 S
C42 O54 1.254 . S
C42 O55 1.257 . S
O43 Dy40 2.307 1_455 S
O43 C53 1.266 . S
O44 Dy41 2.298 1_455 S
O44 C53 1.236 . S
O45 Dy40 2.395 . S
O45 C62 1.255 . S
O46 Dy40 2.379 1_556 S
O46 C62 1.249 1_556 S
O47 Dy41 2.275 1_556 S
O47 C63 1.254 . S
O48 Dy40 2.339 1_556 S
O48 C63 1.257 . S
O49 Dy41 2.307 . S
O49 C64 1.266 . S
O50 Dy40 2.298 1_556 S
O50 C64 1.236 1_556 S
O51 Dy41 2.395 1_556 S
O51 C71 1.255 1_656 S
O52 Dy41 2.379 . S
O52 C71 1.249 1_655 S
C53 O43 1.266 . S
C53 O44 1.236 . S
O54 Dy40 2.275 . S
O54 C42 1.254 . S
O55 Dy41 2.339 . S
O55 C42 1.257 . S
C56 C59 1.344 . S
C56 C60 1.328 1_554 S
C56 C62 1.516 . S
C57 C58 1.304 . S
C57 C61 1.323 1_554 S
C58 C57 1.304 . S
C58 C59 1.371 . S
C58 H72 0.930 . S
C59 C56 1.344 . S
C59 C58 1.371 . S
C59 H73 0.931 . S
C60 C56 1.328 1_556 S
C60 C61 1.433 . S
C60 H74 0.931 . S
C61 C57 1.323 1_556 S
C61 C60 1.433 . S
C61 H75 0.933 . S
C62 Dy40 2.738 . S
C62 O45 1.255 . S
C62 O46 1.249 1_554 S
C62 C56 1.516 . S
C63 O47 1.254 . S
C63 O48 1.257 . S
C64 O49 1.266 . S
C64 O50 1.236 1_554 S
C65 C68 1.344 1_554 S
C65 C69 1.328 . S
C65 C71 1.516 . S
C66 C67 1.304 1_554 S
C66 C70 1.323 . S
C67 C66 1.304 1_556 S
C67 C68 1.371 . S
C67 H76 0.930 . S
C68 C65 1.344 1_556 S
C68 C67 1.371 . S
C68 H77 0.931 . S
C69 C65 1.328 . S
C69 C70 1.433 . S
C69 H78 0.931 . S
C70 C66 1.323 . S
C70 C69 1.433 . S
C70 H79 0.933 . S
C71 Dy41 2.738 1_455 S
C71 O51 1.255 1_454 S
C71 O52 1.249 1_455 S
C71 C65 1.516 . S
H72 C58 0.930 . S
H73 C59 0.931 . S
H74 C60 0.931 . S
H75 C61 0.933 . S
H76 C67 0.930 . S
H77 C68 0.931 . S
H78 C69 0.931 . S
H79 C70 0.933 . S
Dy80 O83 2.307 1_455 S
Dy80 O85 2.395 . S
Dy80 O86 2.379 . S
Dy80 O88 2.339 . S
Dy80 O90 2.298 . S
Dy80 O94 2.275 . S
Dy80 C102 2.738 . S
Dy81 O84 2.298 1_455 S
Dy81 O87 2.275 . S
Dy81 O89 2.307 . S
Dy81 O91 2.395 . S
Dy81 O92 2.379 . S
Dy81 O95 2.339 . S
Dy81 C111 2.737 1_455 S
C82 O94 1.254 . S
C82 O95 1.257 . S
O83 Dy80 2.307 1_655 S
O83 C93 1.266 . S
O84 Dy81 2.298 1_655 S
O84 C93 1.236 . S
O85 Dy80 2.395 . S
O85 C102 1.255 . S
O86 Dy80 2.379 . S
O86 C102 1.249 . S
O87 Dy81 2.275 . S
O87 C103 1.254 . S
O88 Dy80 2.339 . S
O88 C103 1.257 . S
O89 Dy81 2.307 . S
O89 C104 1.266 . S
O90 Dy80 2.298 . S
O90 C104 1.236 . S
O91 Dy81 2.395 . S
O91 C111 1.255 1_455 S
O92 Dy81 2.379 . S
O92 C111 1.249 1_455 S
C93 O83 1.266 . S
C93 O84 1.236 . S
O94 Dy80 2.275 . S
O94 C82 1.254 . S
O95 Dy81 2.339 . S
O95 C82 1.257 . S
C96 C99 1.344 . S
C96 C100 1.328 . S
C96 C102 1.516 . S
C97 C98 1.304 . S
C97 C101 1.323 . S
C98 C97 1.304 . S
C98 C99 1.371 . S
C98 H112 0.930 . S
C99 C96 1.344 . S
C99 C98 1.371 . S
C99 H113 0.931 . S
C100 C96 1.328 . S
C100 C101 1.433 . S
C100 H114 0.931 . S
C101 C97 1.323 . S
C101 C100 1.433 . S
C101 H115 0.933 . S
C102 Dy80 2.738 . S
C102 O85 1.255 . S
C102 O86 1.249 . S
C102 C96 1.516 . S
C103 O87 1.254 . S
C103 O88 1.257 . S
C104 O89 1.266 . S
C104 O90 1.236 . S
C105 C108 1.344 . S
C105 C109 1.328 . S
C105 C111 1.516 . S
C106 C107 1.304 . S
C106 C110 1.323 . S
C107 C106 1.304 . S
C107 C108 1.371 . S
C107 H116 0.930 . S
C108 C105 1.344 . S
C108 C107 1.371 . S
C108 H117 0.931 . S
C109 C105 1.328 . S
C109 C110 1.433 . S
C109 H118 0.931 . S
C110 C106 1.323 . S
C110 C109 1.433 . S
C110 H119 0.933 . S
C111 Dy81 2.737 1_655 S
C111 O91 1.255 1_655 S
C111 O92 1.249 1_655 S
C111 C105 1.516 . S
H112 C98 0.930 . S
H113 C99 0.931 . S
H114 C100 0.931 . S
H115 C101 0.933 . S
H116 C107 0.930 . S
H117 C108 0.931 . S
H118 C109 0.931 . S
H119 C110 0.933 . S
Dy120 O123 2.307 1_655 S
Dy120 O125 2.395 . S
Dy120 O126 2.379 . S
Dy120 O128 2.339 . S
Dy120 O130 2.298 . S
Dy120 O134 2.275 . S
Dy120 C142 2.738 . S
Dy121 O124 2.298 1_655 S
Dy121 O127 2.275 . S
Dy121 O129 2.307 . S
Dy121 O131 2.395 . S
Dy121 O132 2.379 . S
Dy121 O135 2.339 . S
Dy121 C151 2.742 . S
C122 O134 1.254 . S
C122 O135 1.257 . S
O123 Dy120 2.307 1_455 S
O123 C133 1.266 . S
O124 Dy121 2.298 1_455 S
O124 C133 1.236 . S
O125 Dy120 2.395 . S
O125 C142 1.255 . S
O126 Dy120 2.379 . S
O126 C142 1.249 . S
O127 Dy121 2.275 . S
O127 C143 1.254 . S
O128 Dy120 2.339 . S
O128 C143 1.257 . S
O129 Dy121 2.307 . S
O129 C144 1.266 . S
O130 Dy120 2.298 . S
O130 C144 1.236 . S
O131 Dy121 2.395 . S
O131 C151 1.257 . S
O132 Dy121 2.379 . S
O132 C151 1.252 . S
C133 O123 1.266 . S
C133 O124 1.236 . S
O134 Dy120 2.275 . S
O134 C122 1.254 . S
O135 Dy121 2.339 . S
O135 C122 1.257 . S
C136 C139 1.344 . S
C136 C140 1.328 . S
C136 C142 1.516 . S
C137 C138 1.304 . S
C137 C141 1.323 . S
C138 C137 1.304 . S
C138 C139 1.371 . S
C138 H152 0.930 . S
C139 C136 1.344 . S
C139 C138 1.371 . S
C139 H153 0.931 . S
C140 C136 1.328 . S
C140 C141 1.433 . S
C140 H154 0.931 . S
C141 C137 1.323 . S
C141 C140 1.433 . S
C141 H155 0.933 . S
C142 Dy120 2.738 . S
C142 O125 1.255 . S
C142 O126 1.249 . S
C142 C136 1.516 . S
C143 O127 1.254 . S
C143 O128 1.257 . S
C144 O129 1.266 . S
C144 O130 1.236 . S
C145 C148 1.344 . S
C145 C149 1.328 . S
C145 C151 1.512 1_455 S
C146 C147 1.304 . S
C146 C150 1.323 . S
C147 C146 1.304 . S
C147 C148 1.371 . S
C147 H156 0.930 . S
C148 C145 1.344 . S
C148 C147 1.371 . S
C148 H157 0.931 . S
C149 C145 1.328 . S
C149 C150 1.433 . S
C149 H158 0.931 . S
C150 C146 1.323 . S
C150 C149 1.433 . S
C150 H159 0.933 . S
C151 Dy121 2.742 . S
C151 O131 1.257 . S
C151 O132 1.252 . S
C151 C145 1.512 1_655 S
H152 C138 0.930 . S
H153 C139 0.931 . S
H154 C140 0.931 . S
H155 C141 0.933 . S
H156 C147 0.930 . S
H157 C148 0.931 . S
H158 C149 0.931 . S
H159 C150 0.933 . S
Dy160 O163 2.307 . S
Dy160 O165 2.395 . S
Dy160 O166 2.379 1_554 S
Dy160 O168 2.339 1_554 S
Dy160 O170 2.298 1_554 S
Dy160 O174 2.275 . S
Dy160 C182 2.738 . S
Dy161 O164 2.298 . S
Dy161 O167 2.275 1_554 S
Dy161 O169 2.307 . S
Dy161 O171 2.395 1_554 S
Dy161 O172 2.379 . S
Dy161 O175 2.339 . S
Dy161 C191 2.738 . S
C162 O174 1.254 . S
C162 O175 1.257 . S
O163 Dy160 2.307 . S
O163 C173 1.266 . S
O164 Dy161 2.298 . S
O164 C173 1.236 . S
O165 Dy160 2.395 . S
O165 C182 1.255 . S
O166 Dy160 2.379 1_556 S
O166 C182 1.249 1_556 S
O167 Dy161 2.275 1_556 S
O167 C183 1.254 . S
O168 Dy160 2.339 1_556 S
O168 C183 1.257 . S
O169 Dy161 2.307 . S
O169 C184 1.266 . S
O170 Dy160 2.298 1_556 S
O170 C184 1.236 1_556 S
O171 Dy161 2.395 1_556 S
O171 C191 1.255 1_556 S
O172 Dy161 2.379 . S
O172 C191 1.249 . S
C173 O163 1.266 . S
C173 O164 1.236 . S
O174 Dy160 2.275 . S
O174 C162 1.254 . S
O175 Dy161 2.339 . S
O175 C162 1.257 . S
C176 C179 1.344 . S
C176 C180 1.328 1_554 S
C176 C182 1.516 . S
C177 C178 1.304 . S
C177 C181 1.323 1_554 S
C178 C177 1.304 . S
C178 C179 1.371 . S
C178 H192 0.930 . S
C179 C176 1.344 . S
C179 C178 1.371 . S
C179 H193 0.931 . S
C180 C176 1.328 1_556 S
C180 C181 1.433 . S
C180 H194 0.931 . S
C181 C177 1.323 1_556 S
C181 C180 1.433 . S
C181 H195 0.933 . S
C182 Dy160 2.738 . S
C182 O165 1.255 . S
C182 O166 1.249 1_554 S
C182 C176 1.516 . S
C183 O167 1.254 . S
C183 O168 1.257 . S
C184 O169 1.266 . S
C184 O170 1.236 1_554 S
C185 C188 1.344 1_554 S
C185 C189 1.328 . S
C185 C191 1.516 . S
C186 C187 1.304 1_554 S
C186 C190 1.323 . S
C187 C186 1.304 1_556 S
C187 C188 1.371 . S
C187 H196 0.930 . S
C188 C185 1.344 1_556 S
C188 C187 1.371 . S
C188 H197 0.931 . S
C189 C185 1.328 . S
C189 C190 1.433 . S
C189 H198 0.931 . S
C190 C186 1.323 . S
C190 C189 1.433 . S
C190 H199 0.933 . S
C191 Dy161 2.738 . S
C191 O171 1.255 1_554 S
C191 O172 1.249 . S
C191 C185 1.516 . S
H192 C178 0.930 . S
H193 C179 0.931 . S
H194 C180 0.931 . S
H195 C181 0.933 . S
H196 C187 0.930 . S
H197 C188 0.931 . S
H198 C189 0.931 . S
H199 C190 0.933 . S
Dy200 O203 2.307 . S
Dy200 O205 2.395 . S
Dy200 O206 2.379 1_554 S
Dy200 O208 2.339 1_554 S
Dy200 O210 2.298 1_554 S
Dy200 O214 2.275 . S
Dy200 C222 2.738 . S
Dy201 O204 2.298 . S
Dy201 O207 2.275 1_554 S
Dy201 O209 2.307 . S
Dy201 O211 2.395 1_554 S
Dy201 O212 2.379 . S
Dy201 O215 2.339 . S
Dy201 C231 2.738 . S
C202 O214 1.254 . S
C202 O215 1.257 . S
O203 Dy200 2.307 . S
O203 C213 1.266 . S
O204 Dy201 2.298 . S
O204 C213 1.236 . S
O205 Dy200 2.395 . S
O205 C222 1.255 . S
O206 Dy200 2.379 1_556 S
O206 C222 1.249 1_556 S
O207 Dy201 2.275 1_556 S
O207 C223 1.254 . S
O208 Dy200 2.339 1_556 S
O208 C223 1.257 . S
O209 Dy201 2.307 . S
O209 C224 1.266 . S
O210 Dy200 2.298 1_556 S
O210 C224 1.236 1_556 S
O211 Dy201 2.395 1_556 S
O211 C231 1.255 1_556 S
O212 Dy201 2.379 . S
O212 C231 1.249 . S
C213 O203 1.266 . S
C213 O204 1.236 . S
O214 Dy200 2.275 . S
O214 C202 1.254 . S
O215 Dy201 2.339 . S
O215 C202 1.257 . S
C216 C219 1.344 . S
C216 C220 1.328 1_554 S
C216 C222 1.516 . S
C217 C218 1.304 . S
C217 C221 1.323 1_554 S
C218 C217 1.304 . S
C218 C219 1.371 . S
C218 H232 0.930 . S
C219 C216 1.344 . S
C219 C218 1.371 . S
C219 H233 0.931 . S
C220 C216 1.328 1_556 S
C220 C221 1.433 . S
C220 H234 0.931 . S
C221 C217 1.323 1_556 S
C221 C220 1.433 . S
C221 H235 0.933 . S
C222 Dy200 2.738 . S
C222 O205 1.255 . S
C222 O206 1.249 1_554 S
C222 C216 1.516 . S
C223 O207 1.254 . S
C223 O208 1.257 . S
C224 O209 1.266 . S
C224 O210 1.236 1_554 S
C225 C228 1.344 1_554 S
C225 C229 1.328 . S
C225 C231 1.516 . S
C226 C227 1.304 1_554 S
C226 C230 1.323 . S
C227 C226 1.304 1_556 S
C227 C228 1.371 . S
C227 H236 0.930 . S
C228 C225 1.344 1_556 S
C228 C227 1.371 . S
C228 H237 0.931 . S
C229 C225 1.328 . S
C229 C230 1.433 . S
C229 H238 0.931 . S
C230 C226 1.323 . S
C230 C229 1.433 . S
C230 H239 0.933 . S
C231 Dy201 2.738 . S
C231 O211 1.255 1_554 S
C231 O212 1.249 . S
C231 C225 1.516 . S
H232 C218 0.930 . S
H233 C219 0.931 . S
H234 C220 0.931 . S
H235 C221 0.933 . S
H236 C227 0.930 . S
H237 C228 0.931 . S
H238 C229 0.931 . S
H239 C230 0.933 . S
Dy240 O243 2.307 . S
Dy240 O245 2.395 . S
Dy240 O246 2.379 . S
Dy240 O248 2.339 . S
Dy240 O250 2.298 . S
Dy240 O254 2.275 . S
Dy240 C262 2.738 . S
Dy241 O244 2.298 . S
Dy241 O247 2.275 . S
Dy241 O249 2.307 . S
Dy241 O251 2.395 . S
Dy241 O252 2.379 . S
Dy241 O255 2.339 . S
Dy241 C271 2.738 . S
C242 O254 1.254 . S
C242 O255 1.257 . S
O243 Dy240 2.307 . S
O243 C253 1.266 . S
O244 Dy241 2.298 . S
O244 C253 1.236 . S
O245 Dy240 2.395 . S
O245 C262 1.255 . S
O246 Dy240 2.379 . S
O246 C262 1.249 . S
O247 Dy241 2.275 . S
O247 C263 1.254 . S
O248 Dy240 2.339 . S
O248 C263 1.257 . S
O249 Dy241 2.307 . S
O249 C264 1.266 . S
O250 Dy240 2.298 . S
O250 C264 1.236 . S
O251 Dy241 2.395 . S
O251 C271 1.255 . S
O252 Dy241 2.379 . S
O252 C271 1.249 . S
C253 O243 1.266 . S
C253 O244 1.236 . S
O254 Dy240 2.275 . S
O254 C242 1.254 . S
O255 Dy241 2.339 . S
O255 C242 1.257 . S
C256 C259 1.344 . S
C256 C260 1.328 . S
C256 C262 1.516 . S
C257 C258 1.304 . S
C257 C261 1.323 . S
C258 C257 1.304 . S
C258 C259 1.371 . S
C258 H272 0.930 . S
C259 C256 1.344 . S
C259 C258 1.371 . S
C259 H273 0.931 . S
C260 C256 1.328 . S
C260 C261 1.433 . S
C260 H274 0.931 . S
C261 C257 1.323 . S
C261 C260 1.433 . S
C261 H275 0.933 . S
C262 Dy240 2.738 . S
C262 O245 1.255 . S
C262 O246 1.249 . S
C262 C256 1.516 . S
C263 O247 1.254 . S
C263 O248 1.257 . S
C264 O249 1.266 . S
C264 O250 1.236 . S
C265 C268 1.344 . S
C265 C269 1.328 . S
C265 C271 1.516 . S
C266 C267 1.304 . S
C266 C270 1.323 . S
C267 C266 1.304 . S
C267 C268 1.371 . S
C267 H276 0.930 . S
C268 C265 1.344 . S
C268 C267 1.371 . S
C268 H277 0.931 . S
C269 C265 1.328 . S
C269 C270 1.433 . S
C269 H278 0.931 . S
C270 C266 1.323 . S
C270 C269 1.433 . S
C270 H279 0.933 . S
C271 Dy241 2.738 . S
C271 O251 1.255 . S
C271 O252 1.249 . S
C271 C265 1.516 . S
H272 C258 0.930 . S
H273 C259 0.931 . S
H274 C260 0.931 . S
H275 C261 0.933 . S
H276 C267 0.930 . S
H277 C268 0.931 . S
H278 C269 0.931 . S
H279 C270 0.933 . S
Dy280 O283 2.307 . S
Dy280 O285 2.395 . S
Dy280 O286 2.379 . S
Dy280 O288 2.339 . S
Dy280 O290 2.298 . S
Dy280 O294 2.275 . S
Dy280 C302 2.738 . S
Dy281 O284 2.298 . S
Dy281 O287 2.275 . S
Dy281 O289 2.307 . S
Dy281 O291 2.395 . S
Dy281 O292 2.379 . S
Dy281 O295 2.339 . S
Dy281 C311 2.738 . S
C282 O294 1.254 . S
C282 O295 1.257 . S
O283 Dy280 2.307 . S
O283 C293 1.266 . S
O284 Dy281 2.298 . S
O284 C293 1.236 . S
O285 Dy280 2.395 . S
O285 C302 1.255 . S
O286 Dy280 2.379 . S
O286 C302 1.249 . S
O287 Dy281 2.275 . S
O287 C303 1.254 . S
O288 Dy280 2.339 . S
O288 C303 1.257 . S
O289 Dy281 2.307 . S
O289 C304 1.266 . S
O290 Dy280 2.298 . S
O290 C304 1.236 . S
O291 Dy281 2.395 . S
O291 C311 1.255 . S
O292 Dy281 2.379 . S
O292 C311 1.249 . S
C293 O283 1.266 . S
C293 O284 1.236 . S
O294 Dy280 2.275 . S
O294 C282 1.254 . S
O295 Dy281 2.339 . S
O295 C282 1.257 . S
C296 C299 1.344 . S
C296 C300 1.328 . S
C296 C302 1.516 . S
C297 C298 1.304 . S
C297 C301 1.323 . S
C298 C297 1.304 . S
C298 C299 1.371 . S
C298 H312 0.930 . S
C299 C296 1.344 . S
C299 C298 1.371 . S
C299 H313 0.931 . S
C300 C296 1.328 . S
C300 C301 1.433 . S
C300 H314 0.931 . S
C301 C297 1.323 . S
C301 C300 1.433 . S
C301 H315 0.933 . S
C302 Dy280 2.738 . S
C302 O285 1.255 . S
C302 O286 1.249 . S
C302 C296 1.516 . S
C303 O287 1.254 . S
C303 O288 1.257 . S
C304 O289 1.266 . S
C304 O290 1.236 . S
C305 C308 1.344 . S
C305 C309 1.328 . S
C305 C311 1.516 . S
C306 C307 1.304 . S
C306 C310 1.323 . S
C307 C306 1.304 . S
C307 C308 1.371 . S
C307 H316 0.930 . S
C308 C305 1.344 . S
C308 C307 1.371 . S
C308 H317 0.931 . S
C309 C305 1.328 . S
C309 C310 1.433 . S
C309 H318 0.931 . S
C310 C306 1.323 . S
C310 C309 1.433 . S
C310 H319 0.933 . S
C311 Dy281 2.738 . S
C311 O291 1.255 . S
C311 O292 1.249 . S
C311 C305 1.516 . S
H312 C298 0.930 . S
H313 C299 0.931 . S
H314 C300 0.931 . S
H315 C301 0.933 . S
H316 C307 0.930 . S
H317 C308 0.931 . S
H318 C309 0.931 . S
H319 C310 0.933 . S
H320 C332 0.930 . S
H321 C334 0.930 . S
H322 C335 0.930 . S
H323 C339 0.959 . S
H324 C339 0.959 . S
H325 C339 0.961 . S
H326 C340 0.960 . S
H327 C340 0.961 . S
H328 C340 0.959 . S
H329 C343 0.929 . S
H330 C344 0.931 . S
H331 C346 0.930 . S
C332 H320 0.930 . S
C332 C333 1.399 . S
C332 C337 1.399 . S
C333 C332 1.399 . S
C333 C334 1.376 1_554 S
C334 H321 0.930 . S
C334 C333 1.376 1_556 S
C334 C335 1.388 . S
C335 H322 0.930 . S
C335 C334 1.388 . S
C335 C336 1.390 . S
C336 C335 1.390 . S
C336 C337 1.394 1_556 S
C336 C342 1.465 . S
C337 C332 1.399 . S
C337 C336 1.394 1_554 S
C337 C338 1.516 . S
C338 C337 1.516 . S
C338 C339 1.502 . S
C338 C340 1.561 . S
C338 C341 1.526 . S
C339 H323 0.959 . S
C339 H324 0.959 . S
C339 H325 0.961 . S
C339 C338 1.502 . S
C340 H326 0.960 . S
C340 H327 0.961 . S
C340 H328 0.959 . S
C340 C338 1.561 . S
C341 C338 1.526 . S
C341 C342 1.396 1_554 S
C341 C346 1.390 . S
C342 C336 1.465 . S
C342 C341 1.396 1_556 S
C342 C343 1.399 . S
C343 H329 0.929 . S
C343 C342 1.399 . S
C343 C344 1.385 . S
C344 H330 0.931 . S
C344 C343 1.385 . S
C344 C345 1.389 1_556 S
C345 C344 1.389 1_554 S
C345 C346 1.387 . S
C346 H331 0.930 . S
C346 C341 1.390 . S
C346 C345 1.387 . S
H347 C359 0.930 . S
H348 C361 0.930 . S
H349 C362 0.930 . S
H350 C366 0.959 . S
H351 C366 0.959 . S
H352 C366 0.961 . S
H353 C367 0.960 . S
H354 C367 0.961 . S
H355 C367 0.959 . S
H356 C370 0.929 . S
H357 C371 0.931 . S
H358 C373 0.930 . S
C359 H347 0.930 . S
C359 C360 1.399 1_556 S
C359 C364 1.399 . S
C360 C359 1.399 1_554 S
C360 C361 1.376 . S
C361 H348 0.930 . S
C361 C360 1.376 . S
C361 C362 1.388 . S
C362 H349 0.930 . S
C362 C361 1.388 . S
C362 C363 1.390 . S
C363 C362 1.390 . S
C363 C364 1.394 1_554 S
C363 C369 1.465 . S
C364 C359 1.399 . S
C364 C363 1.394 1_556 S
C364 C365 1.516 . S
C365 C364 1.516 . S
C365 C366 1.502 . S
C365 C367 1.561 . S
C365 C368 1.526 . S
C366 H350 0.959 . S
C366 H351 0.959 . S
C366 H352 0.961 . S
C366 C365 1.502 . S
C367 H353 0.960 . S
C367 H354 0.961 . S
C367 H355 0.959 . S
C367 C365 1.561 . S
C368 C365 1.526 . S
C368 C369 1.396 1_556 S
C368 C373 1.390 . S
C369 C363 1.465 . S
C369 C368 1.396 1_554 S
C369 C370 1.399 . S
C370 H356 0.929 . S
C370 C369 1.399 . S
C370 C371 1.385 . S
C371 H357 0.931 . S
C371 C370 1.385 . S
C371 C372 1.389 . S
C372 C371 1.389 . S
C372 C373 1.387 1_554 S
C373 H358 0.930 . S
C373 C368 1.390 . S
C373 C372 1.387 1_556 S
H374 C386 0.930 . S
H375 C388 0.930 . S
H376 C389 0.930 . S
H377 C393 0.959 . S
H378 C393 0.959 . S
H379 C393 0.961 . S
H380 C394 0.960 . S
H381 C394 0.961 . S
H382 C394 0.959 . S
H383 C397 0.929 . S
H384 C398 0.931 . S
H385 C400 0.930 . S
C386 H374 0.930 . S
C386 C387 1.399 . S
C386 C391 1.399 . S
C387 C386 1.399 . S
C387 C388 1.376 . S
C388 H375 0.930 . S
C388 C387 1.376 . S
C388 C389 1.388 . S
C389 H376 0.930 . S
C389 C388 1.388 . S
C389 C390 1.390 . S
C390 C389 1.390 . S
C390 C391 1.394 . S
C390 C396 1.465 . S
C391 C386 1.399 . S
C391 C390 1.394 . S
C391 C392 1.516 . S
C392 C391 1.516 . S
C392 C393 1.502 . S
C392 C394 1.561 . S
C392 C395 1.526 . S
C393 H377 0.959 . S
C393 H378 0.959 . S
C393 H379 0.961 . S
C393 C392 1.502 . S
C394 H380 0.960 . S
C394 H381 0.961 . S
C394 H382 0.959 . S
C394 C392 1.561 . S
C395 C392 1.526 . S
C395 C396 1.396 . S
C395 C400 1.390 . S
C396 C390 1.465 . S
C396 C395 1.396 . S
C396 C397 1.399 . S
C397 H383 0.929 . S
C397 C396 1.399 . S
C397 C398 1.385 . S
C398 H384 0.931 . S
C398 C397 1.385 . S
C398 C399 1.389 . S
C399 C398 1.389 . S
C399 C400 1.387 . S
C400 H385 0.930 . S
C400 C395 1.390 . S
C400 C399 1.387 . S
H401 C413 0.930 . S
H402 C415 0.930 . S
H403 C416 0.930 . S
H404 C420 0.959 . S
H405 C420 0.959 . S
H406 C420 0.961 . S
H407 C421 0.960 . S
H408 C421 0.961 . S
H409 C421 0.959 . S
H410 C424 0.929 . S
H411 C425 0.931 . S
H412 C427 0.930 . S
C413 H401 0.930 . S
C413 C414 1.399 . S
C413 C418 1.399 . S
C414 C413 1.399 . S
C414 C415 1.376 . S
C415 H402 0.930 . S
C415 C414 1.376 . S
C415 C416 1.388 . S
C416 H403 0.930 . S
C416 C415 1.388 . S
C416 C417 1.390 . S
C417 C416 1.390 . S
C417 C418 1.394 . S
C417 C423 1.465 . S
C418 C413 1.399 . S
C418 C417 1.394 . S
C418 C419 1.516 . S
C419 C418 1.516 . S
C419 C420 1.502 . S
C419 C421 1.561 . S
C419 C422 1.526 . S
C420 H404 0.959 . S
C420 H405 0.959 . S
C420 H406 0.961 . S
C420 C419 1.502 . S
C421 H407 0.960 . S
C421 H408 0.961 . S
C421 H409 0.959 . S
C421 C419 1.561 . S
C422 C419 1.526 . S
C422 C423 1.396 . S
C422 C427 1.390 . S
C423 C417 1.465 . S
C423 C422 1.396 . S
C423 C424 1.399 . S
C424 H410 0.929 . S
C424 C423 1.399 . S
C424 C425 1.385 . S
C425 H411 0.931 . S
C425 C424 1.385 . S
C425 C426 1.389 . S
C426 C425 1.389 . S
C426 C427 1.387 . S
C427 H412 0.930 . S
C427 C422 1.390 . S
C427 C426 1.387 . S
H428 C440 0.930 . S
H429 C442 0.930 . S
H430 C443 0.930 . S
H431 C447 0.959 . S
H432 C447 0.959 . S
H433 C447 0.961 1_655 S
H434 C448 0.960 . S
H435 C448 0.961 . S
H436 C448 0.959 . S
H437 C451 0.929 . S
H438 C452 0.931 . S
H439 C454 0.930 . S
C440 H428 0.930 . S
C440 C441 1.399 . S
C440 C445 1.399 . S
C441 C440 1.399 . S
C441 C442 1.376 1_554 S
C442 H429 0.930 . S
C442 C441 1.376 1_556 S
C442 C443 1.388 . S
C443 H430 0.930 . S
C443 C442 1.388 . S
C443 C444 1.390 1_656 S
C444 C443 1.390 1_454 S
C444 C445 1.394 1_455 S
C444 C450 1.465 . S
C445 C440 1.399 . S
C445 C444 1.394 1_655 S
C445 C446 1.516 1_655 S
C446 C445 1.516 1_455 S
C446 C447 1.502 . S
C446 C448 1.561 . S
C446 C449 1.526 . S
C447 H431 0.959 . S
C447 H432 0.959 . S
C447 H433 0.961 1_455 S
C447 C446 1.502 . S
C448 H434 0.960 . S
C448 H435 0.961 . S
C448 H436 0.959 . S
C448 C446 1.561 . S
C449 C446 1.526 . S
C449 C450 1.396 . S
C449 C454 1.390 . S
C450 C444 1.465 . S
C450 C449 1.396 . S
C450 C451 1.399 1_554 S
C451 H437 0.929 . S
C451 C450 1.399 1_556 S
C451 C452 1.385 . S
C452 H438 0.931 . S
C452 C451 1.385 . S
C452 C453 1.389 1_556 S
C453 C452 1.389 1_554 S
C453 C454 1.387 . S
C454 H439 0.930 . S
C454 C449 1.390 . S
C454 C453 1.387 . S
H455 C467 0.930 . S
H456 C469 0.930 . S
H457 C470 0.930 . S
H458 C474 0.959 . S
H459 C474 0.959 . S
H460 C474 0.961 . S
H461 C475 0.960 1_455 S
H462 C475 0.961 . S
H463 C475 0.959 . S
H464 C478 0.929 . S
H465 C479 0.931 . S
H466 C481 0.930 . S
C467 H455 0.930 . S
C467 C468 1.399 1_556 S
C467 C472 1.399 . S
C468 C467 1.399 1_554 S
C468 C469 1.376 . S
C469 H456 0.930 . S
C469 C468 1.376 . S
C469 C470 1.388 . S
C470 H457 0.930 . S
C470 C469 1.388 . S
C470 C471 1.390 1_455 S
C471 C470 1.390 1_655 S
C471 C472 1.394 1_654 S
C471 C477 1.465 . S
C472 C467 1.399 . S
C472 C471 1.394 1_456 S
C472 C473 1.516 1_455 S
C473 C472 1.516 1_655 S
C473 C474 1.502 . S
C473 C475 1.561 . S
C473 C476 1.526 . S
C474 H458 0.959 . S
C474 H459 0.959 . S
C474 H460 0.961 . S
C474 C473 1.502 . S
C475 H461 0.960 1_655 S
C475 H462 0.961 . S
C475 H463 0.959 . S
C475 C473 1.561 . S
C476 C473 1.526 . S
C476 C477 1.396 1_556 S
C476 C481 1.390 . S
C477 C471 1.465 . S
C477 C476 1.396 1_554 S
C477 C478 1.399 . S
C478 H464 0.929 . S
C478 C477 1.399 . S
C478 C479 1.385 . S
C479 H465 0.931 . S
C479 C478 1.385 . S
C479 C480 1.389 . S
C480 C479 1.389 . S
C480 C481 1.387 1_554 S
C481 H466 0.930 . S
C481 C476 1.390 . S
C481 C480 1.387 1_556 S
H482 C494 0.930 . S
H483 C496 0.930 . S
H484 C497 0.930 . S
H485 C501 0.959 . S
H486 C501 0.959 1_655 S
H487 C501 0.961 . S
H488 C502 0.960 . S
H489 C502 0.961 1_655 S
H490 C502 0.959 . S
H491 C505 0.930 1_455 S
H492 C506 0.931 . S
H493 C508 0.930 . S
C494 H482 0.930 . S
C494 C495 1.399 . S
C494 C499 1.399 . S
C495 C494 1.399 . S
C495 C496 1.376 . S
C496 H483 0.930 . S
C496 C495 1.376 . S
C496 C497 1.388 . S
C497 H484 0.930 . S
C497 C496 1.388 . S
C497 C498 1.390 . S
C498 C497 1.390 . S
C498 C499 1.394 . S
C498 C504 1.465 . S
C499 C494 1.399 . S
C499 C498 1.394 . S
C499 C500 1.516 . S
C500 C499 1.516 . S
C500 C501 1.502 . S
C500 C502 1.561 . S
C500 C503 1.526 1_455 S
C501 H485 0.959 . S
C501 H486 0.959 1_455 S
C501 H487 0.961 . S
C501 C500 1.502 . S
C502 H488 0.960 . S
C502 H489 0.961 1_455 S
C502 H490 0.959 . S
C502 C500 1.561 . S
C503 C500 1.526 1_655 S
C503 C504 1.396 1_655 S
C503 C508 1.390 . S
C504 C498 1.465 . S
C504 C503 1.396 1_455 S
C504 C505 1.399 1_455 S
C505 H491 0.930 1_655 S
C505 C504 1.399 1_655 S
C505 C506 1.385 . S
C506 H492 0.931 . S
C506 C505 1.385 . S
C506 C507 1.389 . S
C507 C506 1.389 . S
C507 C508 1.387 . S
C508 H493 0.930 . S
C508 C503 1.390 . S
C508 C507 1.387 . S
H509 C521 0.930 . S
H510 C523 0.930 . S
H511 C524 0.930 . S
H512 C528 0.959 . S
H513 C528 0.959 . S
H514 C528 0.961 . S
H515 C529 0.960 . S
H516 C529 0.961 . S
H517 C529 0.959 . S
H518 C532 0.929 . S
H519 C533 0.931 . S
H520 C535 0.930 . S
C521 H509 0.930 . S
C521 C522 1.399 . S
C521 C526 1.399 . S
C522 C521 1.399 . S
C522 C523 1.376 . S
C523 H510 0.930 . S
C523 C522 1.376 . S
C523 C524 1.388 . S
C524 H511 0.930 . S
C524 C523 1.388 . S
C524 C525 1.390 . S
C525 C524 1.390 . S
C525 C526 1.394 . S
C525 C531 1.465 . S
C526 C521 1.399 . S
C526 C525 1.394 . S
C526 C527 1.516 . S
C527 C526 1.516 . S
C527 C528 1.502 . S
C527 C529 1.561 . S
C527 C530 1.526 1_655 S
C528 H512 0.959 . S
C528 H513 0.959 . S
C528 H514 0.961 . S
C528 C527 1.502 . S
C529 H515 0.960 . S
C529 H516 0.961 . S
C529 H517 0.959 . S
C529 C527 1.561 . S
C530 C527 1.526 1_455 S
C530 C531 1.396 1_455 S
C530 C535 1.390 . S
C531 C525 1.465 . S
C531 C530 1.396 1_655 S
C531 C532 1.399 1_655 S
C532 H518 0.929 . S
C532 C531 1.399 1_455 S
C532 C533 1.385 . S
C533 H519 0.931 . S
C533 C532 1.385 . S
C533 C534 1.389 . S
C534 C533 1.389 . S
C534 C535 1.387 . S
C535 H520 0.930 . S
C535 C530 1.390 . S
C535 C534 1.387 . S
H536 C548 0.930 . S
H537 C550 0.930 . S
H538 C551 0.930 . S
H539 C555 0.959 . S
H540 C555 0.959 . S
H541 C555 0.961 . S
H542 C556 0.960 . S
H543 C556 0.961 . S
H544 C556 0.959 . S
H545 C559 0.929 1_455 S
H546 C560 0.931 . S
H547 C562 0.930 . S
C548 H536 0.930 . S
C548 C549 1.399 1_556 S
C548 C553 1.399 . S
C549 C548 1.399 1_554 S
C549 C550 1.376 . S
C550 H537 0.930 . S
C550 C549 1.376 . S
C550 C551 1.388 . S
C551 H538 0.930 . S
C551 C550 1.388 . S
C551 C552 1.390 . S
C552 C551 1.390 . S
C552 C553 1.394 1_554 S
C552 C558 1.465 1_455 S
C553 C548 1.399 . S
C553 C552 1.394 1_556 S
C553 C554 1.516 1_455 S
C554 C553 1.516 1_655 S
C554 C555 1.502 . S
C554 C556 1.561 1_655 S
C554 C557 1.526 . S
C555 H539 0.959 . S
C555 H540 0.959 . S
C555 H541 0.961 . S
C555 C554 1.502 . S
C556 H542 0.960 . S
C556 H543 0.961 . S
C556 H544 0.959 . S
C556 C554 1.561 1_455 S
C557 C554 1.526 . S
C557 C558 1.396 1_556 S
C557 C562 1.390 . S
C558 C552 1.465 1_655 S
C558 C557 1.396 1_554 S
C558 C559 1.399 . S
C559 H545 0.929 1_655 S
C559 C558 1.399 . S
C559 C560 1.385 . S
C560 H546 0.931 . S
C560 C559 1.385 . S
C560 C561 1.389 . S
C561 C560 1.389 . S
C561 C562 1.387 1_554 S
C562 H547 0.930 . S
C562 C557 1.390 . S
C562 C561 1.387 1_556 S
H563 C575 0.930 . S
H564 C577 0.930 . S
H565 C578 0.930 . S
H566 C582 0.959 . S
H567 C582 0.959 . S
H568 C582 0.961 . S
H569 C583 0.960 . S
H570 C583 0.961 . S
H571 C583 0.959 . S
H572 C586 0.929 . S
H573 C587 0.931 . S
H574 C589 0.930 . S
C575 H563 0.930 . S
C575 C576 1.399 . S
C575 C580 1.399 . S
C576 C575 1.399 . S
C576 C577 1.376 . S
C577 H564 0.930 . S
C577 C576 1.376 . S
C577 C578 1.388 . S
C578 H565 0.930 . S
C578 C577 1.388 . S
C578 C579 1.390 . S
C579 C578 1.390 . S
C579 C580 1.394 . S
C579 C585 1.465 1_455 S
C580 C575 1.399 . S
C580 C579 1.394 . S
C580 C581 1.516 1_455 S
C581 C580 1.516 1_655 S
C581 C582 1.502 1_655 S
C581 C583 1.561 . S
C581 C584 1.526 . S
C582 H566 0.959 . S
C582 H567 0.959 . S
C582 H568 0.961 . S
C582 C581 1.502 1_455 S
C583 H569 0.960 . S
C583 H570 0.961 . S
C583 H571 0.959 . S
C583 C581 1.561 . S
C584 C581 1.526 . S
C584 C585 1.396 . S
C584 C589 1.390 . S
C585 C579 1.465 1_655 S
C585 C584 1.396 . S
C585 C586 1.399 . S
C586 H572 0.929 . S
C586 C585 1.399 . S
C586 C587 1.385 . S
C587 H573 0.931 . S
C587 C586 1.385 . S
C587 C588 1.389 . S
C588 C587 1.389 . S
C588 C589 1.387 . S
C589 H574 0.930 . S
C589 C584 1.390 . S
C589 C588 1.387 . S
H590 C602 0.930 . S
H591 C604 0.930 . S
H592 C605 0.930 . S
H593 C609 0.959 . S
H594 C609 0.959 . S
H595 C609 0.961 . S
H596 C610 0.960 . S
H597 C610 0.961 . S
H598 C610 0.959 1_556 S
H599 C613 0.929 . S
H600 C614 0.931 . S
H601 C616 0.930 . S
C602 H590 0.930 . S
C602 C603 1.399 . S
C602 C607 1.399 . S
C603 C602 1.399 . S
C603 C604 1.376 1_554 S
C604 H591 0.930 . S
C604 C603 1.376 1_556 S
C604 C605 1.388 . S
C605 H592 0.930 . S
C605 C604 1.388 . S
C605 C606 1.390 . S
C606 C605 1.390 . S
C606 C607 1.394 1_556 S
C606 C612 1.465 1_565 S
C607 C602 1.399 . S
C607 C606 1.394 1_554 S
C607 C608 1.516 . S
C608 C607 1.516 . S
C608 C609 1.502 . S
C608 C610 1.561 . S
C608 C611 1.526 1_565 S
C609 H593 0.959 . S
C609 H594 0.959 . S
C609 H595 0.961 . S
C609 C608 1.502 . S
C610 H596 0.960 . S
C610 H597 0.961 . S
C610 H598 0.959 1_554 S
C610 C608 1.561 . S
C611 C608 1.526 1_545 S
C611 C612 1.396 1_554 S
C611 C616 1.390 . S
C612 C606 1.465 1_545 S
C612 C611 1.396 1_556 S
C612 C613 1.399 . S
C613 H599 0.929 . S
C613 C612 1.399 . S
C613 C614 1.385 . S
C614 H600 0.931 . S
C614 C613 1.385 . S
C614 C615 1.389 1_556 S
C615 C614 1.389 1_554 S
C615 C616 1.387 . S
C616 H601 0.930 . S
C616 C611 1.390 . S
C616 C615 1.387 . S
H617 C629 0.930 . S
H618 C631 0.930 . S
H619 C632 0.930 . S
H620 C636 0.959 . S
H621 C636 0.959 . S
H622 C636 0.961 1_545 S
H623 C637 0.960 . S
H624 C637 0.954 . S
H625 C637 0.959 . S
H626 C640 0.929 . S
H627 C641 0.931 . S
H628 C643 0.930 . S
C629 H617 0.930 . S
C629 C630 1.399 . S
C629 C634 1.399 . S
C630 C629 1.399 . S
C630 C631 1.376 . S
C631 H618 0.930 . S
C631 C630 1.376 . S
C631 C632 1.388 . S
C632 H619 0.930 . S
C632 C631 1.388 . S
C632 C633 1.390 . S
C633 C632 1.390 . S
C633 C634 1.394 . S
C633 C639 1.465 1_545 S
C634 C629 1.399 . S
C634 C633 1.394 . S
C634 C635 1.556 . S
C635 C634 1.556 . S
C635 C636 1.484 1_545 S
C635 C637 1.579 . S
C635 C638 1.489 1_545 S
C636 H620 0.959 . S
C636 H621 0.959 . S
C636 H622 0.961 1_565 S
C636 C635 1.484 1_565 S
C637 H623 0.960 . S
C637 H624 0.954 . S
C637 H625 0.959 . S
C637 C635 1.579 . S
C638 C635 1.489 1_565 S
C638 C639 1.396 . S
C638 C643 1.390 . S
C639 C633 1.465 1_565 S
C639 C638 1.396 . S
C639 C640 1.399 . S
C640 H626 0.929 . S
C640 C639 1.399 . S
C640 C641 1.385 . S
C641 H627 0.931 . S
C641 C640 1.385 . S
C641 C642 1.389 . S
C642 C641 1.389 . S
C642 C643 1.387 . S
C643 H628 0.930 . S
C643 C638 1.390 . S
C643 C642 1.387 . S
H644 C656 0.930 . S
H645 C658 0.930 . S
H646 C659 0.930 . S
H647 C663 0.959 . S
H648 C663 0.959 . S
H649 C663 0.961 . S
H650 C664 0.960 . S
H651 C664 0.961 . S
H652 C664 0.959 . S
H653 C667 0.929 . S
H654 C668 0.931 . S
H655 C670 0.930 . S
C656 H644 0.930 . S
C656 C657 1.399 1_556 S
C656 C661 1.399 . S
C657 C656 1.399 1_554 S
C657 C658 1.376 . S
C658 H645 0.930 . S
C658 C657 1.376 . S
C658 C659 1.388 . S
C659 H646 0.930 . S
C659 C658 1.388 . S
C659 C660 1.390 . S
C660 C659 1.390 . S
C660 C661 1.394 1_554 S
C660 C666 1.465 . S
C661 C656 1.399 . S
C661 C660 1.394 1_556 S
C661 C662 1.516 . S
C662 C661 1.516 . S
C662 C663 1.502 . S
C662 C664 1.561 . S
C662 C665 1.526 . S
C663 H647 0.959 . S
C663 H648 0.959 . S
C663 H649 0.961 . S
C663 C662 1.502 . S
C664 H650 0.960 . S
C664 H651 0.961 . S
C664 H652 0.959 . S
C664 C662 1.561 . S
C665 C662 1.526 . S
C665 C666 1.396 1_556 S
C665 C670 1.390 . S
C666 C660 1.465 . S
C666 C665 1.396 1_554 S
C666 C667 1.399 . S
C667 H653 0.929 . S
C667 C666 1.399 . S
C667 C668 1.385 . S
C668 H654 0.931 . S
C668 C667 1.385 . S
C668 C669 1.389 . S
C669 C668 1.389 . S
C669 C670 1.387 1_554 S
C670 H655 0.930 . S
C670 C665 1.390 . S
C670 C669 1.387 1_556 S
H671 C683 0.930 . S
H672 C685 0.930 . S
H673 C686 0.930 . S
H674 C690 0.959 . S
H675 C690 0.959 . S
H676 C690 0.961 . S
H677 C691 0.960 . S
H678 C691 0.961 . S
H679 C691 0.959 . S
H680 C694 0.929 . S
H681 C695 0.931 . S
H682 C697 0.930 . S
C683 H671 0.930 . S
C683 C684 1.399 1_556 S
C683 C688 1.399 . S
C684 C683 1.399 1_554 S
C684 C685 1.376 . S
C685 H672 0.930 . S
C685 C684 1.376 . S
C685 C686 1.388 . S
C686 H673 0.930 . S
C686 C685 1.388 . S
C686 C687 1.390 . S
C687 C686 1.390 . S
C687 C688 1.394 1_554 S
C687 C693 1.465 . S
C688 C683 1.399 . S
C688 C687 1.394 1_556 S
C688 C689 1.516 . S
C689 C688 1.516 . S
C689 C690 1.502 . S
C689 C691 1.561 . S
C689 C692 1.526 . S
C690 H674 0.959 . S
C690 H675 0.959 . S
C690 H676 0.961 . S
C690 C689 1.502 . S
C691 H677 0.960 . S
C691 H678 0.961 . S
C691 H679 0.959 . S
C691 C689 1.561 . S
C692 C689 1.526 . S
C692 C693 1.396 1_556 S
C692 C697 1.390 . S
C693 C687 1.465 . S
C693 C692 1.396 1_554 S
C693 C694 1.399 . S
C694 H680 0.929 . S
C694 C693 1.399 . S
C694 C695 1.385 . S
C695 H681 0.931 . S
C695 C694 1.385 . S
C695 C696 1.389 . S
C696 C695 1.389 . S
C696 C697 1.387 1_554 S
C697 H682 0.930 . S
C697 C692 1.390 . S
C697 C696 1.387 1_556 S
H698 C710 0.930 . S
H699 C712 0.930 . S
H700 C713 0.930 . S
H701 C717 0.959 . S
H702 C717 0.959 . S
H703 C717 0.961 . S
H704 C718 0.960 . S
H705 C718 0.961 . S
H706 C718 0.959 . S
H707 C721 0.929 . S
H708 C722 0.931 . S
H709 C724 0.930 . S
C710 H698 0.930 . S
C710 C711 1.399 . S
C710 C715 1.399 . S
C711 C710 1.399 . S
C711 C712 1.376 . S
C712 H699 0.930 . S
C712 C711 1.376 . S
C712 C713 1.388 . S
C713 H700 0.930 . S
C713 C712 1.388 . S
C713 C714 1.390 . S
C714 C713 1.390 . S
C714 C715 1.394 . S
C714 C720 1.465 . S
C715 C710 1.399 . S
C715 C714 1.394 . S
C715 C716 1.516 . S
C716 C715 1.516 . S
C716 C717 1.502 . S
C716 C718 1.561 . S
C716 C719 1.526 . S
C717 H701 0.959 . S
C717 H702 0.959 . S
C717 H703 0.961 . S
C717 C716 1.502 . S
C718 H704 0.960 . S
C718 H705 0.961 . S
C718 H706 0.959 . S
C718 C716 1.561 . S
C719 C716 1.526 . S
C719 C720 1.396 . S
C719 C724 1.390 . S
C720 C714 1.465 . S
C720 C719 1.396 . S
C720 C721 1.399 . S
C721 H707 0.929 . S
C721 C720 1.399 . S
C721 C722 1.385 . S
C722 H708 0.931 . S
C722 C721 1.385 . S
C722 C723 1.389 . S
C723 C722 1.389 . S
C723 C724 1.387 . S
C724 H709 0.930 . S
C724 C719 1.390 . S
C724 C723 1.387 . S
H725 C737 0.930 . S
H726 C739 0.930 . S
H727 C740 0.930 . S
H728 C744 0.959 . S
H729 C744 0.959 . S
H730 C744 0.961 . S
H731 C745 0.960 . S
H732 C745 0.961 . S
H733 C745 0.959 . S
H734 C748 0.929 . S
H735 C749 0.931 . S
H736 C751 0.930 . S
C737 H725 0.930 . S
C737 C738 1.399 . S
C737 C742 1.399 . S
C738 C737 1.399 . S
C738 C739 1.376 . S
C739 H726 0.930 . S
C739 C738 1.376 . S
C739 C740 1.388 . S
C740 H727 0.930 . S
C740 C739 1.388 . S
C740 C741 1.390 . S
C741 C740 1.390 . S
C741 C742 1.394 . S
C741 C747 1.465 . S
C742 C737 1.399 . S
C742 C741 1.394 . S
C742 C743 1.516 . S
C743 C742 1.516 . S
C743 C744 1.502 . S
C743 C745 1.561 . S
C743 C746 1.526 . S
C744 H728 0.959 . S
C744 H729 0.959 . S
C744 H730 0.961 . S
C744 C743 1.502 . S
C745 H731 0.960 . S
C745 H732 0.961 . S
C745 H733 0.959 . S
C745 C743 1.561 . S
C746 C743 1.526 . S
C746 C747 1.396 . S
C746 C751 1.390 . S
C747 C741 1.465 . S
C747 C746 1.396 . S
C747 C748 1.399 . S
C748 H734 0.929 . S
C748 C747 1.399 . S
C748 C749 1.385 . S
C749 H735 0.931 . S
C749 C748 1.385 . S
C749 C750 1.389 . S
C750 C749 1.389 . S
C750 C751 1.387 . S
C751 H736 0.930 . S
C751 C746 1.390 . S
C751 C750 1.387 . S
H752 C764 0.930 1_655 S
H753 C766 0.930 . S
H754 C767 0.930 . S
H755 C771 0.959 . S
H756 C771 0.959 . S
H757 C771 0.961 . S
H758 C772 0.960 . S
H759 C772 0.961 1_655 S
H760 C772 0.959 . S
H761 C775 0.929 . S
H762 C776 0.931 . S
H763 C778 0.930 . S
C764 H752 0.930 1_455 S
C764 C765 1.399 . S
C764 C769 1.399 1_455 S
C765 C764 1.399 . S
C765 C766 1.376 . S
C766 H753 0.930 . S
C766 C765 1.376 . S
C766 C767 1.388 . S
C767 H754 0.930 . S
C767 C766 1.388 . S
C767 C768 1.390 . S
C768 C767 1.390 . S
C768 C769 1.394 1_455 S
C768 C774 1.465 1_455 S
C769 C764 1.399 1_655 S
C769 C768 1.394 1_655 S
C769 C770 1.516 . S
C770 C769 1.516 . S
C770 C771 1.502 . S
C770 C772 1.561 1_655 S
C770 C773 1.526 . S
C771 H755 0.959 . S
C771 H756 0.959 . S
C771 H757 0.961 . S
C771 C770 1.502 . S
C772 H758 0.960 . S
C772 H759 0.961 1_455 S
C772 H760 0.959 . S
C772 C770 1.561 1_455 S
C773 C770 1.526 . S
C773 C774 1.397 . S
C773 C778 1.390 . S
C774 C768 1.465 1_655 S
C774 C773 1.397 . S
C774 C775 1.399 1_655 S
C775 H761 0.929 . S
C775 C774 1.399 1_455 S
C775 C776 1.385 1_455 S
C776 H762 0.931 . S
C776 C775 1.385 1_655 S
C776 C777 1.389 . S
C777 C776 1.389 . S
C777 C778 1.387 . S
C778 H763 0.930 . S
C778 C773 1.390 . S
C778 C777 1.387 . S
H779 C791 0.934 . S
H780 C793 0.930 . S
H781 C794 0.930 . S
H782 C798 0.959 . S
H783 C798 0.959 . S
H784 C798 0.961 . S
H785 C799 0.960 . S
H786 C799 0.961 . S
H787 C799 0.959 . S
H788 C802 0.929 . S
H789 C803 0.931 . S
H790 C805 0.930 . S
C791 H779 0.934 . S
C791 C792 1.399 . S
C791 C796 1.399 . S
C792 C791 1.399 . S
C792 C793 1.376 . S
C793 H780 0.930 . S
C793 C792 1.376 . S
C793 C794 1.388 . S
C794 H781 0.930 . S
C794 C793 1.388 . S
C794 C795 1.390 . S
C795 C794 1.390 . S
C795 C796 1.394 . S
C795 C801 1.465 . S
C796 C791 1.399 . S
C796 C795 1.394 . S
C796 C797 1.516 1_655 S
C797 C796 1.516 1_455 S
C797 C798 1.502 . S
C797 C799 1.561 1_455 S
C797 C800 1.526 . S
C798 H782 0.959 . S
C798 H783 0.959 . S
C798 H784 0.961 . S
C798 C797 1.502 . S
C799 H785 0.960 . S
C799 H786 0.961 . S
C799 H787 0.959 . S
C799 C797 1.561 1_655 S
C800 C797 1.526 . S
C800 C801 1.396 1_455 S
C800 C805 1.390 . S
C801 C795 1.465 . S
C801 C800 1.396 1_655 S
C801 C802 1.399 . S
C802 H788 0.929 . S
C802 C801 1.399 . S
C802 C803 1.385 1_655 S
C803 H789 0.931 . S
C803 C802 1.385 1_455 S
C803 C804 1.389 . S
C804 C803 1.389 . S
C804 C805 1.387 . S
C805 H790 0.930 . S
C805 C800 1.390 . S
C805 C804 1.387 . S
H806 C818 0.930 . S
H807 C820 0.930 . S
H808 C821 0.930 . S
H809 C825 0.959 . S
H810 C825 0.959 . S
H811 C825 0.961 . S
H812 C826 0.960 . S
H813 C826 0.961 . S
H814 C826 0.959 1_655 S
H815 C829 0.929 . S
H816 C830 0.931 . S
H817 C832 0.930 . S
C818 H806 0.930 . S
C818 C819 1.399 1_455 S
C818 C823 1.399 . S
C819 C818 1.399 1_655 S
C819 C820 1.376 . S
C820 H807 0.930 . S
C820 C819 1.376 . S
C820 C821 1.388 . S
C821 H808 0.930 . S
C821 C820 1.388 . S
C821 C822 1.390 . S
C822 C821 1.390 . S
C822 C823 1.394 1_655 S
C822 C828 1.465 . S
C823 C818 1.399 . S
C823 C822 1.394 1_455 S
C823 C824 1.516 . S
C824 C823 1.516 . S
C824 C825 1.502 . S
C824 C826 1.561 . S
C824 C827 1.526 . S
C825 H809 0.959 . S
C825 H810 0.959 . S
C825 H811 0.961 . S
C825 C824 1.502 . S
C826 H812 0.960 . S
C826 H813 0.961 . S
C826 H814 0.959 1_455 S
C826 C824 1.561 . S
C827 C824 1.526 . S
C827 C828 1.396 1_455 S
C827 C832 1.390 . S
C828 C822 1.465 . S
C828 C827 1.396 1_655 S
C828 C829 1.399 . S
C829 H815 0.929 . S
C829 C828 1.399 . S
C829 C830 1.385 . S
C830 H816 0.931 . S
C830 C829 1.385 . S
C830 C831 1.389 1_655 S
C831 C830 1.389 1_455 S
C831 C832 1.387 . S
C832 H817 0.930 . S
C832 C827 1.390 . S
C832 C831 1.387 . S
H833 C845 0.930 . S
H834 C847 0.930 . S
H835 C848 0.930 . S
H836 C852 0.959 . S
H837 C852 0.959 . S
H838 C852 0.961 . S
H839 C853 0.960 . S
H840 C853 0.961 . S
H841 C853 0.959 . S
H842 C856 0.929 . S
H843 C857 0.931 . S
H844 C859 0.930 . S
C845 H833 0.930 . S
C845 C846 1.399 . S
C845 C850 1.399 . S
C846 C845 1.399 . S
C846 C847 1.376 1_655 S
C847 H834 0.930 . S
C847 C846 1.376 1_455 S
C847 C848 1.388 . S
C848 H835 0.930 . S
C848 C847 1.388 . S
C848 C849 1.390 . S
C849 C848 1.390 . S
C849 C850 1.394 1_455 S
C849 C855 1.465 . S
C850 C845 1.399 . S
C850 C849 1.394 1_655 S
C850 C851 1.516 1_655 S
C851 C850 1.516 1_455 S
C851 C852 1.492 1_455 S
C851 C853 1.570 . S
C851 C854 1.528 . S
C852 H836 0.959 . S
C852 H837 0.959 . S
C852 H838 0.961 . S
C852 C851 1.492 1_655 S
C853 H839 0.960 . S
C853 H840 0.961 . S
C853 H841 0.959 . S
C853 C851 1.570 . S
C854 C851 1.528 . S
C854 C855 1.396 . S
C854 C859 1.390 . S
C855 C849 1.465 . S
C855 C854 1.396 . S
C855 C856 1.399 . S
C856 H842 0.929 . S
C856 C855 1.399 . S
C856 C857 1.385 . S
C857 H843 0.931 . S
C857 C856 1.385 . S
C857 C858 1.389 . S
C858 C857 1.389 . S
C858 C859 1.387 . S
C859 H844 0.930 . S
C859 C854 1.390 . S
C859 C858 1.387 . S
H860 C872 0.930 . S
H861 C874 0.930 . S
H862 C875 0.930 . S
H863 C879 0.959 . S
H864 C879 0.959 . S
H865 C879 0.961 . S
H866 C880 0.960 . S
H867 C880 0.961 . S
H868 C880 0.959 . S
H869 C883 0.929 . S
H870 C884 0.931 . S
H871 C886 0.930 . S
C872 H860 0.930 . S
C872 C873 1.399 . S
C872 C877 1.399 . S
C873 C872 1.399 . S
C873 C874 1.376 . S
C874 H861 0.930 . S
C874 C873 1.376 . S
C874 C875 1.388 . S
C875 H862 0.930 . S
C875 C874 1.388 . S
C875 C876 1.390 . S
C876 C875 1.390 . S
C876 C877 1.394 . S
C876 C882 1.465 . S
C877 C872 1.399 . S
C877 C876 1.394 . S
C877 C878 1.516 . S
C878 C877 1.516 . S
C878 C879 1.502 . S
C878 C880 1.561 . S
C878 C881 1.526 . S
C879 H863 0.959 . S
C879 H864 0.959 . S
C879 H865 0.961 . S
C879 C878 1.502 . S
C880 H866 0.960 . S
C880 H867 0.961 . S
C880 H868 0.959 . S
C880 C878 1.561 . S
C881 C878 1.526 . S
C881 C882 1.396 . S
C881 C886 1.390 . S
C882 C876 1.465 . S
C882 C881 1.396 . S
C882 C883 1.399 . S
C883 H869 0.929 . S
C883 C882 1.399 . S
C883 C884 1.385 . S
C884 H870 0.931 . S
C884 C883 1.385 . S
C884 C885 1.389 . S
C885 C884 1.389 . S
C885 C886 1.387 . S
C886 H871 0.930 . S
C886 C881 1.390 . S
C886 C885 1.387 . S
H887 C899 0.930 . S
H888 C901 0.930 . S
H889 C902 0.930 . S
H890 C906 0.959 . S
H891 C906 0.959 . S
H892 C906 0.961 . S
H893 C907 0.960 . S
H894 C907 0.961 . S
H895 C907 0.959 . S
H896 C910 0.929 . S
H897 C911 0.931 . S
H898 C913 0.930 . S
C899 H887 0.930 . S
C899 C900 1.399 . S
C899 C904 1.399 . S
C900 C899 1.399 . S
C900 C901 1.376 . S
C901 H888 0.930 . S
C901 C900 1.376 . S
C901 C902 1.388 . S
C902 H889 0.930 . S
C902 C901 1.388 . S
C902 C903 1.390 . S
C903 C902 1.390 . S
C903 C904 1.394 . S
C903 C909 1.465 . S
C904 C899 1.399 . S
C904 C903 1.394 . S
C904 C905 1.516 . S
C905 C904 1.516 . S
C905 C906 1.502 . S
C905 C907 1.561 . S
C905 C908 1.526 . S
C906 H890 0.959 . S
C906 H891 0.959 . S
C906 H892 0.961 . S
C906 C905 1.502 . S
C907 H893 0.960 . S
C907 H894 0.961 . S
C907 H895 0.959 . S
C907 C905 1.561 . S
C908 C905 1.526 . S
C908 C909 1.396 . S
C908 C913 1.390 . S
C909 C903 1.465 . S
C909 C908 1.396 . S
C909 C910 1.399 . S
C910 H896 0.929 . S
C910 C909 1.399 . S
C910 C911 1.385 . S
C911 H897 0.931 . S
C911 C910 1.385 . S
C911 C912 1.389 . S
C912 C911 1.389 . S
C912 C913 1.387 . S
C913 H898 0.930 . S
C913 C908 1.390 . S
C913 C912 1.387 . S
H914 C926 0.930 . S
H915 C928 0.930 . S
H916 C929 0.930 . S
H917 C933 0.959 . S
H918 C933 0.959 . S
H919 C933 0.961 . S
H920 C934 0.960 . S
H921 C934 0.961 . S
H922 C934 0.959 . S
H923 C937 0.929 . S
H924 C938 0.931 . S
H925 C940 0.930 . S
C926 H914 0.930 . S
C926 C927 1.399 . S
C926 C931 1.399 . S
C927 C926 1.399 . S
C927 C928 1.376 . S
C928 H915 0.930 . S
C928 C927 1.376 . S
C928 C929 1.388 . S
C929 H916 0.930 . S
C929 C928 1.388 . S
C929 C930 1.390 . S
C930 C929 1.390 . S
C930 C931 1.394 . S
C930 C936 1.465 . S
C931 C926 1.399 . S
C931 C930 1.394 . S
C931 C932 1.516 . S
C932 C931 1.516 . S
C932 C933 1.502 . S
C932 C934 1.561 . S
C932 C935 1.526 . S
C933 H917 0.959 . S
C933 H918 0.959 . S
C933 H919 0.961 . S
C933 C932 1.502 . S
C934 H920 0.960 . S
C934 H921 0.961 . S
C934 H922 0.959 . S
C934 C932 1.561 . S
C935 C932 1.526 . S
C935 C936 1.396 . S
C935 C940 1.390 . S
C936 C930 1.465 . S
C936 C935 1.396 . S
C936 C937 1.399 . S
C937 H923 0.929 . S
C937 C936 1.399 . S
C937 C938 1.385 . S
C938 H924 0.931 . S
C938 C937 1.385 . S
C938 C939 1.389 . S
C939 C938 1.389 . S
C939 C940 1.387 . S
C940 H925 0.930 . S
C940 C935 1.390 . S
C940 C939 1.387 . S
H941 C953 0.930 . S
H942 C955 0.930 . S
H943 C956 0.930 . S
H944 C960 0.959 . S
H945 C960 0.959 . S
H946 C960 0.961 . S
H947 C961 0.960 . S
H948 C961 0.961 . S
H949 C961 0.959 . S
H950 C964 0.929 . S
H951 C965 0.931 . S
H952 C967 0.930 . S
C953 H941 0.930 . S
C953 C954 1.399 . S
C953 C958 1.399 . S
C954 C953 1.399 . S
C954 C955 1.376 . S
C955 H942 0.930 . S
C955 C954 1.376 . S
C955 C956 1.388 . S
C956 H943 0.930 . S
C956 C955 1.388 . S
C956 C957 1.390 . S
C957 C956 1.390 . S
C957 C958 1.394 . S
C957 C963 1.465 . S
C958 C953 1.399 . S
C958 C957 1.394 . S
C958 C959 1.516 . S
C959 C958 1.516 . S
C959 C960 1.502 . S
C959 C961 1.561 . S
C959 C962 1.526 . S
C960 H944 0.959 . S
C960 H945 0.959 . S
C960 H946 0.961 . S
C960 C959 1.502 . S
C961 H947 0.960 . S
C961 H948 0.961 . S
C961 H949 0.959 . S
C961 C959 1.561 . S
C962 C959 1.526 . S
C962 C963 1.396 . S
C962 C967 1.390 . S
C963 C957 1.465 . S
C963 C962 1.396 . S
C963 C964 1.399 . S
C964 H950 0.929 . S
C964 C963 1.399 . S
C964 C965 1.385 . S
C965 H951 0.931 . S
C965 C964 1.385 . S
C965 C966 1.389 . S
C966 C965 1.389 . S
C966 C967 1.387 . S
C967 H952 0.930 . S
C967 C962 1.390 . S
C967 C966 1.387 . S
C333 C13 2.104 . S
C345 C24 2.076 . S
C360 C53 2.079 . S
C372 C64 2.093 . S
C387 C93 2.103 . S
C399 C104 2.070 . S
C414 C144 2.082 . S
C426 C133 2.122 . S
C441 C173 2.106 . S
C453 C184 2.071 . S
C468 C224 2.096 . S
C480 C213 2.076 . S
C495 C253 2.089 . S
C507 C264 2.088 . S
C522 C293 2.123 . S
C534 C304 2.082 . S
C549 C66 2.330 . S
C561 C17 2.307 . S
C576 C146 2.310 . S
C588 C106 2.336 . S
C603 C177 2.329 . S
C615 C226 2.289 . S
C630 C266 2.311 . S
C642 C306 2.337 . S
C657 C26 1.682 . S
C669 C217 1.661 . S
C684 C186 1.681 . S
C696 C57 1.663 . S
C711 C97 1.712 . S
C723 C297 1.679 . S
C738 C137 1.691 . S
C750 C257 1.695 . S
C765 C2 1.664 . S
C777 C122 1.570 . S
C792 C42 1.503 . S
C804 C82 1.438 . S
C819 C63 1.603 . S
C831 C103 1.550 . S
C846 C143 1.491 . S
C858 C23 1.432 . S
C873 C162 1.605 . S
C885 C282 1.647 . S
C900 C202 1.505 . S
C912 C242 1.438 . S
C927 C223 1.585 . S
C939 C263 1.539 . S
C954 C303 1.474 . S
C966 C183 1.452 . S
