# Generated by pormake.
# Topology qdl, (4)-cn, num edge types: 1
# Building blocks:
#     Node 0, Type 0, BuildingBlock: MUDLON_clean_sbu_0, # of connection points: 4
#     Node 1, Type 0, BuildingBlock: MUDLON_clean_sbu_0, # of connection points: 4
#     Node 2, Type 0, BuildingBlock: MUDLON_clean_sbu_0, # of connection points: 4
#     Node 3, Type 0, BuildingBlock: MUDLON_clean_sbu_0, # of connection points: 4
#     Node 4, Type 0, BuildingBlock: MUDLON_clean_sbu_0, # of connection points: 4
#     Node 5, Type 0, BuildingBlock: MUDLON_clean_sbu_0, # of connection points: 4
#     Edge 6, Type (0, 0), BuildingBlock: FUNLAD_clean_linker_0, # of connection points: 2
#     Edge 7, Type (0, 0), BuildingBlock: FUNLAD_clean_linker_0, # of connection points: 2
#     Edge 8, Type (0, 0), BuildingBlock: FUNLAD_clean_linker_0, # of connection points: 2
#     Edge 9, Type (0, 0), BuildingBlock: FUNLAD_clean_linker_0, # of connection points: 2
#     Edge 10, Type (0, 0), BuildingBlock: FUNLAD_clean_linker_0, # of connection points: 2
#     Edge 11, Type (0, 0), BuildingBlock: FUNLAD_clean_linker_0, # of connection points: 2
#     Edge 12, Type (0, 0), BuildingBlock: FUNLAD_clean_linker_0, # of connection points: 2
#     Edge 13, Type (0, 0), BuildingBlock: FUNLAD_clean_linker_0, # of connection points: 2
#     Edge 14, Type (0, 0), BuildingBlock: FUNLAD_clean_linker_0, # of connection points: 2
#     Edge 15, Type (0, 0), BuildingBlock: FUNLAD_clean_linker_0, # of connection points: 2
#     Edge 16, Type (0, 0), BuildingBlock: FUNLAD_clean_linker_0, # of connection points: 2
#     Edge 17, Type (0, 0), BuildingBlock: FUNLAD_clean_linker_0, # of connection points: 2
# Relax obj value: 0.001
# Max RMSD: 0.015
# Mean RMSD: 0.013
data_MOF--net-qdl--node1-MUDLON_clean_sbu_0--edge1-FUNLAD_clean_linker_0
_symmetry_space_group_name_H-M    P1
_symmetry_Int_Tables_number       1
_symmetry_cell_setting            triclinic
loop_
_symmetry_equiv_pos_as_xyz
'x, y, z'
_cell_length_a     17.528597
_cell_length_b     17.536778
_cell_length_c     104.24428
_cell_angle_alpha  90.252517
_cell_angle_beta   90.671779
_cell_angle_gamma 119.6282
loop_
_atom_site_label
_atom_site_type_symbol
_atom_site_fract_x
_atom_site_fract_y
_atom_site_fract_z
_atom_type_partial_charge
Mg0 Mg 0.95256 0.99175 0.10487 0.0
C1 C 0.88444 0.80415 0.11364 0.0
O2 O 0.92803 0.84737 0.12399 0.0
C3 C 0.84968 0.08204 0.11399 0.0
O4 O 0.85022 0.04501 0.12489 0.0
C5 C 0.05627 0.10424 0.12831 0.0
O6 O 0.05395 0.16687 0.12175 0.0
O7 O 1.0259 0.0287 0.12313 0.0
O8 O 0.87695 0.84711 0.10433 0.0
O9 O 0.03153 0.02523 0.08748 0.0
C10 C 0.02872 0.07782 0.07934 0.0
O11 O 0.98607 0.11944 0.08222 0.0
O12 O 0.8804 0.06471 0.10408 0.0
Mg13 Mg 0.21446 0.24474 0.43924 0.0
C14 C 0.11644 0.33985 0.44776 0.0
O15 O 0.1316 0.3178 0.45913 0.0
C16 C 0.38501 0.25779 0.44389 0.0
O17 O 0.32644 0.17482 0.44546 0.0
C18 C 0.20707 0.20106 0.46699 0.0
O19 O 0.27451 0.28094 0.4665 0.0
O20 O 0.16584 0.16467 0.45657 0.0
O21 O 0.14992 0.32456 0.43798 0.0
O22 O 0.18048 0.17224 0.42098 0.0
C23 C 0.23066 0.21307 0.4117 0.0
O24 O 0.29899 0.29082 0.414 0.0
O25 O 0.35814 0.31099 0.44089 0.0
Mg26 Mg 1.01942 0.17341 0.77411 0.0
C27 C 0.82527 0.07164 0.76617 0.0
O28 O 0.85979 0.08318 0.75475 0.0
C29 C 0.17592 0.34265 0.76971 0.0
O30 O 0.1988 0.28283 0.76757 0.0
C31 C 1.01623 0.06654 0.79721 0.0
O32 O 0.94394 1.00769 0.79135 0.0
O33 O 0.06373 0.13978 0.79181 0.0
O34 O 0.87581 0.10907 0.77581 0.0
O35 O 0.04598 0.12272 0.75639 0.0
C36 C 0.04929 0.16326 0.7461 0.0
O37 O 0.03901 0.23245 0.74685 0.0
O38 O 0.09721 0.31722 0.77303 0.0
Mg39 Mg 1.0095 0.87311 0.60593 0.0
C40 C 0.16722 0.86071 0.60227 0.0
O41 O 0.18961 0.94311 0.60033 0.0
C42 C 0.81617 0.77863 0.59749 0.0
O43 O 0.85139 0.80295 0.58615 0.0
C44 C 0.04266 0.909 0.57799 0.0
O45 O 0.02833 0.8283 0.57898 0.0
O46 O 0.03936 0.94841 0.5881 0.0
O47 O 0.08827 0.80749 0.60533 0.0
O48 O 0.04812 0.95143 0.62365 0.0
C49 C 1.02644 0.90612 0.63385 0.0
O50 O 0.98637 0.82021 0.63272 0.0
O51 O 0.8663 0.79253 0.6072 0.0
Mg52 Mg 0.19954 0.97084 0.93874 0.0
C53 C 0.39156 0.08873 0.9462 0.0
O54 O 0.35561 0.09707 0.95671 0.0
C55 C 0.05561 0.78894 0.93306 0.0
O56 O 1.02571 0.8369 0.92772 0.0
C57 C 0.1788 0.98314 0.91111 0.0
O58 O 0.21716 0.93544 0.91248 0.0
O59 O 0.15988 1.01136 0.92119 0.0
O60 O 0.34238 0.03533 0.93749 0.0
O61 O 0.16571 1.00471 0.95733 0.0
C62 C 0.16848 0.95789 0.96645 0.0
O63 O 0.18938 0.89736 0.96372 0.0
O64 O 0.13181 0.82738 0.93825 0.0
Mg65 Mg 0.93546 0.99179 0.27203 0.0
C66 C 0.91537 0.1469 0.27136 0.0
O67 O 0.99978 0.1752 0.27024 0.0
C68 C 0.84742 0.80578 0.26107 0.0
O69 O 0.86973 0.84948 0.25029 0.0
C70 C 0.97681 0.04898 0.24493 0.0
O71 O 0.9001 0.04346 0.24662 0.0
O72 O 1.01286 0.0321 0.25437 0.0
O73 O 0.86389 0.06476 0.27256 0.0
O74 O 1.00734 0.02434 0.29038 0.0
C75 C 0.95682 0.98676 0.29977 0.0
O76 O 0.8729 0.93439 0.29729 0.0
O77 O 0.85971 0.84804 0.27156 0.0
C78 C 0.86737 0.66436 0.1227 0.0
C79 C 0.85645 0.70918 0.1123 0.0
C80 C 0.85207 0.57852 0.12123 0.0
C81 C 0.82461 0.53444 0.1093 0.0
C82 C 0.81138 0.57844 0.09899 0.0
C83 C 0.82668 0.66456 0.10047 0.0
C84 C 0.81628 0.44614 0.10701 0.0
C85 C 0.80598 0.38947 0.11649 0.0
C86 C 0.80799 0.30552 0.11481 0.0
C87 C 0.78639 0.24903 0.12534 0.0
C88 C 0.79612 0.17451 0.12485 0.0
C89 C 0.82782 0.15407 0.11379 0.0
H90 H 0.85546 0.32491 0.09521 0.0
C91 C 0.84622 0.20839 0.10304 0.0
C92 C 0.83681 0.28336 0.10353 0.0
H93 H 0.87128 0.19502 0.09437 0.0
H94 H 0.89072 0.69662 0.13194 0.0
H95 H 0.86567 0.54892 0.12937 0.0
H96 H 0.79086 0.54675 0.08966 0.0
H97 H 0.81804 0.69708 0.09223 0.0
H98 H 0.81926 0.42827 0.09714 0.0
H99 H 0.79624 0.40529 0.12619 0.0
H100 H 0.76409 0.26388 0.13417 0.0
H101 H 0.78122 0.13436 0.13333 0.0
C102 C 0.54619 0.36035 0.43992 0.0
C103 C 0.47922 0.28637 0.44598 0.0
C104 C 0.63441 0.38146 0.44141 0.0
C105 C 0.65685 0.32955 0.44915 0.0
C106 C 0.58985 0.25775 0.45551 0.0
C107 C 0.5023 0.23587 0.45384 0.0
C108 C 0.74854 0.34719 0.45105 0.0
C109 C 0.81212 0.38432 0.44224 0.0
C110 C 0.89793 0.3863 0.44375 0.0
C111 C 0.94046 0.3795 0.43282 0.0
C112 C 1.01468 0.36929 0.43403 0.0
C113 C 0.04833 0.36636 0.44623 0.0
H114 H 0.90699 0.39878 0.46454 0.0
C115 C 1.00961 0.3798 0.45712 0.0
C116 C 0.9356 0.38999 0.4559 0.0
H117 H 0.03455 0.37938 0.46666 0.0
H118 H 0.53024 0.40049 0.43381 0.0
H119 H 0.68463 0.4384 0.43658 0.0
H120 H 0.60506 0.217 0.46161 0.0
H121 H 0.45244 0.17892 0.45874 0.0
H122 H 0.76106 0.31953 0.45959 0.0
H123 H 0.79756 0.40446 0.43312 0.0
H124 H 0.91371 0.37769 0.42333 0.0
H125 H 0.04311 0.35968 0.42543 0.0
C126 C 0.67727 0.96302 0.75714 0.0
C127 C 0.7319 1.00342 0.76792 0.0
C128 C 0.59417 0.88926 0.75848 0.0
C129 C 0.56371 0.85333 0.77065 0.0
C130 C 0.61568 0.89732 0.7815 0.0
C131 C 0.69902 0.97137 0.78016 0.0
C132 C 0.48056 0.76818 0.77225 0.0
C133 C 0.45102 0.70361 0.76329 0.0
C134 C 0.37688 0.61274 0.76509 0.0
C135 C 0.37837 0.54453 0.75822 0.0
C136 C 0.3124 0.4577 0.75969 0.0
C137 C 0.24165 0.43644 0.76786 0.0
H138 H 0.30116 0.64338 0.7784 0.0
C139 C 0.23789 0.50468 0.77445 0.0
C140 C 0.3054 0.59221 0.77316 0.0
H141 H 0.18409 0.49023 0.78081 0.0
H142 H 0.69977 0.98664 0.74757 0.0
H143 H 0.55477 0.85963 0.74991 0.0
H144 H 0.59355 0.87198 0.79102 0.0
H145 H 0.73911 1.00097 0.78868 0.0
H146 H 0.44871 0.75512 0.78149 0.0
H147 H 0.4884 0.71465 0.75458 0.0
H148 H 0.43199 0.55819 0.75185 0.0
H149 H 0.31703 0.40692 0.75438 0.0
C150 C 0.22761 0.75815 0.60628 0.0
C151 C 0.23321 0.83243 0.60028 0.0
C152 C 0.29449 0.73674 0.60472 0.0
C153 C 0.36713 0.78863 0.59696 0.0
C154 C 0.37063 0.86088 0.5907 0.0
C155 C 0.30525 0.88304 0.59244 0.0
C156 C 0.44062 0.77047 0.59491 0.0
C157 C 0.46855 0.73239 0.60358 0.0
C158 C 0.55201 0.73029 0.60192 0.0
C159 C 0.60329 0.73666 0.61277 0.0
C160 C 0.68753 0.74732 0.61141 0.0
C161 C 0.72196 0.75122 0.59915 0.0
H162 H 0.54492 0.7188 0.58112 0.0
C163 C 0.66788 0.73802 0.58834 0.0
C164 C 0.58385 0.72729 0.5897 0.0
H165 H 0.69158 0.73912 0.57875 0.0
H166 H 0.17269 0.71784 0.61235 0.0
H167 H 0.28881 0.67947 0.60948 0.0
H168 H 0.42527 0.90166 0.5846 0.0
H169 H 0.31124 0.94018 0.58757 0.0
H170 H 0.4792 0.79857 0.58637 0.0
H171 H 0.43556 0.71173 0.61271 0.0
H172 H 0.58002 0.7379 0.62231 0.0
H173 H 0.72711 0.75671 0.61995 0.0
C174 C 0.53867 0.21164 0.95325 0.0
C175 C 0.48515 0.15179 0.94366 0.0
C176 C 0.62217 0.28058 0.95038 0.0
C177 C 0.65429 0.29117 0.93782 0.0
C178 C 0.60248 0.22872 0.9284 0.0
C179 C 0.5191 0.1595 0.93128 0.0
C180 C 0.73545 0.3717 0.93384 0.0
C181 C 0.79967 0.42632 0.94205 0.0
C182 C 0.87046 0.51533 0.93841 0.0
C183 C 0.94885 0.5566 0.9457 0.0
C184 C 1.01175 0.64436 0.94355 0.0
C185 C 0.99659 0.69306 0.9342 0.0
H186 H 0.79691 0.53515 0.9231 0.0
C187 C 0.9195 0.651 0.92664 0.0
C188 C 0.85722 0.56333 0.92871 0.0
H189 H 0.90575 0.6867 0.91937 0.0
H190 H 0.5146 0.20767 0.96289 0.0
H191 H 0.65876 0.32793 0.95789 0.0
H192 H 0.6252 0.23533 0.91863 0.0
H193 H 0.47968 0.11468 0.92365 0.0
H194 H 0.74063 0.38792 0.92373 0.0
H195 H 0.79959 0.40674 0.95192 0.0
H196 H 0.96045 0.52155 0.95332 0.0
H197 H 0.07023 0.67508 0.94959 0.0
C198 C 0.93688 0.29346 0.26532 0.0
C199 C 0.88302 0.21058 0.27065 0.0
C200 C 0.91004 0.3562 0.26488 0.0
C201 C 0.82862 0.33808 0.26985 0.0
C202 C 0.77468 0.25542 0.27526 0.0
C203 C 0.80107 0.19166 0.27551 0.0
C204 C 0.80245 0.40702 0.2701 0.0
C205 C 0.82439 0.46613 0.26063 0.0
C206 C 0.81345 0.54513 0.26108 0.0
C207 C 0.81697 0.58744 0.24952 0.0
C208 C 0.82213 0.66954 0.24952 0.0
C209 C 0.82496 0.71216 0.26112 0.0
H210 H 0.80958 0.55542 0.28182 0.0
C211 C 0.81647 0.66779 0.2727 0.0
C212 C 0.8108 0.58511 0.2727 0.0
H213 H 0.81861 0.69875 0.28181 0.0
H214 H 1.00046 0.31035 0.2615 0.0
H215 H 0.95453 0.41991 0.26097 0.0
H216 H 0.71207 0.24015 0.27929 0.0
H217 H 0.75843 0.12857 0.27975 0.0
H218 H 0.76519 0.40906 0.27821 0.0
H219 H 0.85422 0.45747 0.25206 0.0
H220 H 0.81923 0.55841 0.24044 0.0
H221 H 0.82818 0.70136 0.24041 0.0
C222 C 0.98335 0.10367 0.2227 0.0
C223 C 1.01478 0.06719 0.23191 0.0
C224 C 1.0102 0.11252 0.20997 0.0
C225 C 0.06947 0.08505 0.20606 0.0
C226 C 0.10246 0.05022 0.21533 0.0
C227 C 0.0761 0.04214 0.22816 0.0
C228 C 0.09086 0.08446 0.19225 0.0
C229 C 0.08775 0.14013 0.18361 0.0
C230 C 0.09337 0.13267 0.16941 0.0
C231 C 0.10696 0.20413 0.1618 0.0
C232 C 0.09984 0.19641 0.14841 0.0
C233 C 0.07825 0.1166 0.14227 0.0
H234 H 0.06349 0.99663 0.16867 0.0
C235 C 0.06878 0.04617 0.14982 0.0
C236 C 0.07604 0.05394 0.16324 0.0
H237 H 0.05186 0.98359 0.14543 0.0
H238 H 0.93588 0.12348 0.22524 0.0
H239 H 0.98103 0.13726 0.20314 0.0
H240 H 0.14748 0.02768 0.21258 0.0
H241 H 0.10095 1.01311 0.235 0.0
H242 H 0.10818 0.03585 0.18917 0.0
H243 H 0.07845 0.19349 0.18705 0.0
H244 H 0.12014 0.26553 0.16624 0.0
H245 H 0.10766 0.2521 0.14293 0.0
C246 C 0.06195 0.90451 0.55427 0.0
C247 C 0.06078 0.95122 0.56521 0.0
C248 C 0.07954 0.94311 0.54216 0.0
C249 C 0.09604 0.02963 0.54064 0.0
C250 C 0.09532 0.07651 0.55159 0.0
C251 C 0.07752 0.03773 0.56373 0.0
C252 C 0.11903 0.07457 0.52798 0.0
C253 C 0.09896 0.032 0.51652 0.0
C254 C 0.12648 0.07724 0.50393 0.0
C255 C 0.08061 0.03295 0.49266 0.0
C256 C 0.10623 0.07255 0.48063 0.0
C257 C 0.17901 0.1572 0.47959 0.0
H258 H 0.2391 0.19708 0.51115 0.0
C259 C 0.22548 0.20099 0.49085 0.0
C260 C 0.19986 0.16161 0.50283 0.0
H261 H 0.28236 0.266 0.49043 0.0
H262 H 0.04998 0.83792 0.55504 0.0
H263 H 0.08215 0.90533 0.53413 0.0
H264 H 0.10868 0.14356 0.55076 0.0
H265 H 0.0774 0.07569 0.57194 0.0
H266 H 0.15211 0.14572 0.5282 0.0
H267 H 0.05878 0.96106 0.51623 0.0
H268 H 1.02446 0.96749 0.49317 0.0
H269 H 0.06911 0.03684 0.47217 0.0
C270 C 0.09736 0.1201 0.81834 0.0
C271 C 0.0372 0.05044 0.81043 0.0
C272 C 0.11227 0.10521 0.8311 0.0
C273 C 0.06785 0.02008 0.83617 0.0
C274 C 1.00958 0.9504 0.82815 0.0
C275 C 0.99371 0.96542 0.81549 0.0
C276 C 0.08348 1.00058 0.84954 0.0
C277 C 0.10763 0.05823 0.85944 0.0
C278 C 0.12393 0.03706 0.8727 0.0
C279 C 0.11168 0.07935 0.88333 0.0
C280 C 0.12809 0.06144 0.89587 0.0
C281 C 0.15852 1.00184 0.898 0.0
H282 H 0.16767 0.94582 0.86697 0.0
C283 C 0.17157 0.96038 0.88733 0.0
C284 C 0.15465 0.97773 0.87487 0.0
H285 H 0.19548 0.91449 0.88857 0.0
H286 H 0.13195 0.18643 0.81474 0.0
H287 H 0.15946 0.16019 0.83687 0.0
H288 H 0.97522 0.88403 0.83175 0.0
H289 H 0.94717 0.91024 0.80966 0.0
H290 H 0.07033 0.93425 0.85135 0.0
H291 H 0.11235 0.12169 0.85796 0.0
H292 H 0.08891 0.12604 0.88194 0.0
H293 H 0.11785 0.09488 0.90385 0.0
C294 C 0.09089 0.02547 0.06194 0.0
C295 C 0.06175 0.08295 0.06611 0.0
C296 C 0.11203 0.02357 0.04906 0.0
C297 C 0.10428 0.07908 0.04003 0.0
C298 C 0.07951 0.13951 0.04435 0.0
C299 C 0.05796 0.14111 0.0572 0.0
C300 C 0.12136 0.07583 0.02608 0.0
C301 C 0.11005 1.0024 1.02011 0.0
C302 C 0.12514 0.99505 1.0062 0.0
C303 C 0.13281 0.9227 1.00218 0.0
C304 C 0.14624 0.91109 0.98932 0.0
C305 C 0.15165 0.97117 0.98 0.0
H306 H 0.12207 0.11085 0.99944 0.0
C307 C 0.1427 0.04322 0.98389 0.0
C308 C 0.12966 0.05522 0.99686 0.0
H309 H 0.14629 0.09056 0.97694 0.0
H310 H 0.09531 0.98027 0.06855 0.0
H311 H 0.13427 0.97842 0.04626 0.0
H312 H 0.07421 0.18396 0.03769 0.0
H313 H 0.03638 0.18674 0.06008 0.0
H314 H 0.14073 0.13491 1.02061 0.0
H315 H 0.08878 0.94344 0.02572 0.0
H316 H 0.12902 0.87484 1.00906 0.0
H317 H 0.15238 0.85453 0.98672 0.0
C318 C 0.07595 0.06503 0.31665 0.0
C319 C 0.98882 1.00309 0.31332 0.0
C320 C 0.10293 0.08241 0.3296 0.0
C321 C 0.04315 0.03774 0.33948 0.0
C322 C 0.95666 0.97517 0.33606 0.0
C323 C 0.92993 0.95788 0.3232 0.0
C324 C 0.06549 0.05687 0.35344 0.0
C325 C 0.1478 0.10034 0.35839 0.0
C326 C 0.16804 0.1236 0.3723 0.0
C327 C 0.24994 0.19523 0.37575 0.0
C328 C 0.27059 0.2226 0.38855 0.0
C329 C 0.21018 0.1784 0.39832 0.0
H330 H 0.04591 0.01967 0.37998 0.0
C331 C 0.12947 0.10437 0.39499 0.0
C332 C 0.10855 0.07714 0.38212 0.0
H333 H 0.08174 0.0684 0.40228 0.0
H334 H 0.12285 0.10134 0.30928 0.0
H335 H 0.16974 0.13254 0.33172 0.0
H336 H 0.90893 0.93981 0.34339 0.0
H337 H 0.86229 0.90956 0.32105 0.0
H338 H 1.0105 0.03469 0.35988 0.0
H339 H 0.20324 0.12361 0.35203 0.0
H340 H 0.29756 0.23172 0.36846 0.0
H341 H 0.33374 0.27948 0.39075 0.0
C342 C 1.01166 0.89455 0.65774 0.0
C343 C 0.04222 0.94751 0.6468 0.0
C344 C 1.02282 0.93187 0.66998 0.0
C345 C 0.06585 0.02362 0.67167 0.0
C346 C 0.09688 0.07655 0.66073 0.0
C347 C 0.08538 0.03907 0.64845 0.0
C348 C 0.07499 0.06639 0.68449 0.0
C349 C 0.06404 0.02547 0.69586 0.0
C350 C 0.06585 0.06564 0.70864 0.0
C351 C 0.07015 0.0233 0.71985 0.0
C352 C 0.06645 0.0554 0.73204 0.0
C353 C 0.05814 0.13073 0.73332 0.0
H354 H 0.05235 0.17551 0.70173 0.0
C355 C 0.05495 0.17376 0.72213 0.0
C356 C 0.05828 0.14157 0.70997 0.0
H357 H 0.04803 0.2317 0.72272 0.0
H358 H 0.97749 0.82371 0.65685 0.0
H359 H 0.99529 0.88794 0.67797 0.0
H360 H 0.12962 0.14736 0.66167 0.0
H361 H 0.1096 0.08184 0.64024 0.0
H362 H 0.09229 0.1349 0.6844 0.0
H363 H 0.05369 0.95918 0.69597 0.0
H364 H 0.07536 0.96437 0.71919 0.0
H365 H 0.06891 0.02049 0.74044 0.0
loop_
_geom_bond_atom_site_label_1
_geom_bond_atom_site_label_2
_geom_bond_distance
_geom_bond_site_symmetry_2
_ccdc_geom_bond_type
Mg0 O7 2.141 . S
Mg0 O8 2.048 1_545 S
Mg0 O9 2.048 . S
Mg0 O12 2.141 . S
C1 O2 1.313 . S
C1 O8 1.195 1_455 S
O2 C1 1.313 . S
C3 O4 1.245 . S
C3 O12 1.289 1_455 S
O4 C3 1.245 . S
C5 O6 1.245 . S
C5 O7 1.289 1_455 S
O6 C5 1.245 . S
O7 Mg0 2.141 . S
O7 C5 1.289 1_655 S
O8 Mg0 2.048 1_565 S
O8 C1 1.195 1_655 S
O9 Mg0 2.048 . S
O9 C10 1.195 1_655 S
C10 O9 1.195 1_455 S
C10 O11 1.313 . S
O11 C10 1.313 . S
O12 Mg0 2.141 . S
O12 C3 1.289 1_655 S
Mg13 O20 2.141 . S
Mg13 O21 2.048 1_455 S
Mg13 O22 2.048 . S
Mg13 O25 2.141 . S
C14 O15 1.313 1_545 S
C14 O21 1.195 . S
O15 C14 1.313 1_565 S
C16 O17 1.245 1_545 S
C16 O25 1.289 . S
O17 C16 1.245 1_565 S
C18 O19 1.245 1_545 S
C18 O20 1.289 . S
O19 C18 1.245 1_565 S
O20 Mg13 2.141 . S
O20 C18 1.289 . S
O21 Mg13 2.048 1_655 S
O21 C14 1.195 . S
O22 Mg13 2.048 . S
O22 C23 1.195 . S
C23 O22 1.195 . S
C23 O24 1.313 1_445 S
O24 C23 1.313 1_665 S
O25 Mg13 2.141 . S
O25 C16 1.289 . S
Mg26 O33 2.141 . S
Mg26 O34 2.048 1_445 S
Mg26 O35 2.048 . S
Mg26 O38 2.141 . S
C27 O28 1.313 . S
C27 O34 1.195 . S
O28 C27 1.313 . S
C29 O30 1.245 . S
C29 O38 1.289 . S
O30 C29 1.245 . S
C31 O32 1.245 1_545 S
C31 O33 1.289 . S
O32 C31 1.245 1_565 S
O33 Mg26 2.141 . S
O33 C31 1.289 . S
O34 Mg26 2.048 1_665 S
O34 C27 1.195 . S
O35 Mg26 2.048 . S
O35 C36 1.195 . S
C36 O35 1.195 . S
C36 O37 1.313 1_545 S
O37 C36 1.313 1_565 S
O38 Mg26 2.141 . S
O38 C29 1.289 . S
Mg39 O46 2.141 . S
Mg39 O47 2.048 . S
Mg39 O48 2.048 . S
Mg39 O51 2.141 1_455 S
C40 O41 1.313 1_545 S
C40 O47 1.195 . S
O41 C40 1.313 1_565 S
C42 O43 1.245 1_545 S
C42 O51 1.289 . S
O43 C42 1.245 1_565 S
C44 O45 1.245 1_445 S
C44 O46 1.289 . S
O45 C44 1.245 1_665 S
O46 Mg39 2.141 . S
O46 C44 1.289 . S
O47 Mg39 2.048 . S
O47 C40 1.195 . S
O48 Mg39 2.048 . S
O48 C49 1.195 . S
C49 O48 1.195 . S
C49 O50 1.313 1_545 S
O50 C49 1.313 1_565 S
O51 Mg39 2.141 1_655 S
O51 C42 1.289 . S
Mg52 O59 2.141 . S
Mg52 O60 2.048 1_655 S
Mg52 O61 2.048 . S
Mg52 O64 2.141 1_545 S
C53 O54 1.313 . S
C53 O60 1.195 . S
O54 C53 1.313 . S
C55 O56 1.245 . S
C55 O64 1.289 . S
O56 C55 1.245 . S
C57 O58 1.245 1_545 S
C57 O59 1.289 1_455 S
O58 C57 1.245 1_565 S
O59 Mg52 2.141 . S
O59 C57 1.289 1_655 S
O60 Mg52 2.048 1_455 S
O60 C53 1.195 . S
O61 Mg52 2.048 . S
O61 C62 1.195 1_655 S
C62 O61 1.195 1_455 S
C62 O63 1.313 . S
O63 C62 1.313 . S
O64 Mg52 2.141 1_565 S
O64 C55 1.289 . S
Mg65 O72 2.141 . S
Mg65 O73 2.048 1_565 S
Mg65 O74 2.048 . S
Mg65 O77 2.141 . S
C66 O67 1.313 . S
C66 O73 1.195 1_455 S
O67 C66 1.313 . S
C68 O69 1.245 . S
C68 O77 1.289 1_455 S
O69 C68 1.245 . S
C70 O71 1.245 . S
C70 O72 1.289 1_445 S
O71 C70 1.245 . S
O72 Mg65 2.141 . S
O72 C70 1.289 1_665 S
O73 Mg65 2.048 1_545 S
O73 C66 1.195 1_655 S
O74 Mg65 2.048 . S
O74 C75 1.195 1_665 S
C75 O74 1.195 1_445 S
C75 O76 1.313 . S
O76 C75 1.313 . S
O77 Mg65 2.141 . S
O77 C68 1.289 1_655 S
C78 C79 1.386 . S
C78 C80 1.383 . S
C78 H94 0.951 . S
C79 C78 1.386 . S
C79 C83 1.383 1_455 S
C80 C78 1.383 . S
C80 C81 1.402 1_455 S
C80 H95 0.951 . S
C81 C80 1.402 1_655 S
C81 C82 1.375 . S
C81 C84 1.481 . S
C82 C81 1.375 . S
C82 C83 1.367 . S
C82 H96 0.951 . S
C83 C79 1.383 1_655 S
C83 C82 1.367 . S
C83 H97 0.950 . S
C84 C81 1.481 . S
C84 C85 1.297 1_655 S
C84 H98 0.950 . S
C85 C84 1.297 1_455 S
C85 C86 1.479 . S
C85 H99 0.950 . S
C86 C85 1.479 . S
C86 C87 1.375 . S
C86 C92 1.404 1_455 S
C87 C86 1.375 . S
C87 C88 1.369 . S
C87 H100 0.950 . S
C88 C87 1.369 . S
C88 C89 1.392 . S
C88 H101 0.951 . S
C89 C88 1.392 . S
C89 C91 1.384 1_455 S
H90 C92 0.949 . S
C91 C89 1.384 1_655 S
C91 C92 1.385 . S
C91 H93 0.950 . S
C92 C86 1.404 1_655 S
C92 H90 0.949 . S
C92 C91 1.385 . S
H93 C91 0.950 . S
H94 C78 0.951 . S
H95 C80 0.951 . S
H96 C82 0.951 . S
H97 C83 0.950 . S
H98 C84 0.950 . S
H99 C85 0.950 . S
H100 C87 0.950 . S
H101 C88 0.951 . S
C102 C103 1.386 . S
C102 C104 1.383 . S
C102 H118 0.951 . S
C103 C102 1.386 . S
C103 C107 1.383 1_545 S
C104 C102 1.383 . S
C104 C105 1.402 . S
C104 H119 0.951 . S
C105 C104 1.402 . S
C105 C106 1.375 1_545 S
C105 C108 1.481 . S
C106 C105 1.375 1_565 S
C106 C107 1.367 . S
C106 H120 0.951 . S
C107 C103 1.383 1_565 S
C107 C106 1.367 . S
C107 H121 0.950 . S
C108 C105 1.481 . S
C108 C109 1.297 . S
C108 H122 0.950 1_545 S
C109 C108 1.297 . S
C109 C110 1.479 . S
C109 H123 0.950 . S
C110 C109 1.479 . S
C110 C111 1.375 . S
C110 C116 1.404 . S
C111 C110 1.375 . S
C111 C112 1.369 . S
C111 H124 0.950 . S
C112 C111 1.369 . S
C112 C113 1.392 . S
C112 H125 0.951 . S
C113 C112 1.392 . S
C113 C115 1.384 . S
H114 C116 0.949 1_565 S
C115 C113 1.384 . S
C115 C116 1.385 . S
C115 H117 0.950 1_545 S
C116 C110 1.404 . S
C116 H114 0.949 1_545 S
C116 C115 1.385 . S
H117 C115 0.950 1_565 S
H118 C102 0.951 . S
H119 C104 0.951 . S
H120 C106 0.951 . S
H121 C107 0.950 . S
H122 C108 0.950 1_565 S
H123 C109 0.950 . S
H124 C111 0.950 . S
H125 C112 0.951 . S
C126 C127 1.386 . S
C126 C128 1.383 . S
C126 H142 0.951 . S
C127 C126 1.386 . S
C127 C131 1.383 . S
C128 C126 1.383 . S
C128 C129 1.402 . S
C128 H143 0.951 . S
C129 C128 1.402 . S
C129 C130 1.375 . S
C129 C132 1.481 . S
C130 C129 1.375 . S
C130 C131 1.367 . S
C130 H144 0.951 . S
C131 C127 1.383 . S
C131 C130 1.367 . S
C131 H145 0.950 . S
C132 C129 1.481 . S
C132 C133 1.297 . S
C132 H146 0.950 . S
C133 C132 1.297 . S
C133 C134 1.479 . S
C133 H147 0.950 . S
C134 C133 1.479 . S
C134 C135 1.375 . S
C134 C140 1.404 . S
C135 C134 1.375 . S
C135 C136 1.369 . S
C135 H148 0.950 . S
C136 C135 1.369 . S
C136 C137 1.392 . S
C136 H149 0.951 . S
C137 C136 1.392 . S
C137 C139 1.384 . S
H138 C140 0.949 . S
C139 C137 1.384 . S
C139 C140 1.385 . S
C139 H141 0.950 . S
C140 C134 1.404 . S
C140 H138 0.949 . S
C140 C139 1.385 . S
H141 C139 0.950 . S
H142 C126 0.951 . S
H143 C128 0.951 . S
H144 C130 0.951 . S
H145 C131 0.950 . S
H146 C132 0.950 . S
H147 C133 0.950 . S
H148 C135 0.950 . S
H149 C136 0.951 . S
C150 C151 1.386 . S
C150 C152 1.383 . S
C150 H166 0.951 . S
C151 C150 1.386 . S
C151 C155 1.383 1_545 S
C152 C150 1.383 . S
C152 C153 1.402 1_545 S
C152 H167 0.951 . S
C153 C152 1.402 1_565 S
C153 C154 1.375 . S
C153 C156 1.481 . S
C154 C153 1.375 . S
C154 C155 1.367 . S
C154 H168 0.951 . S
C155 C151 1.383 1_565 S
C155 C154 1.367 . S
C155 H169 0.950 . S
C156 C153 1.481 . S
C156 C157 1.298 1_565 S
C156 H170 0.950 . S
C157 C156 1.298 1_545 S
C157 C158 1.472 1_545 S
C157 H171 0.958 . S
C158 C157 1.472 1_565 S
C158 C159 1.375 1_565 S
C158 C164 1.404 . S
C159 C158 1.375 1_545 S
C159 C160 1.369 . S
C159 H172 0.950 . S
C160 C159 1.369 . S
C160 C161 1.392 . S
C160 H173 0.951 . S
C161 C160 1.392 . S
C161 C163 1.384 1_545 S
H162 C164 0.949 . S
C163 C161 1.384 1_565 S
C163 C164 1.385 . S
C163 H165 0.950 . S
C164 C158 1.404 . S
C164 H162 0.949 . S
C164 C163 1.385 . S
H165 C163 0.950 . S
H166 C150 0.951 . S
H167 C152 0.951 . S
H168 C154 0.951 . S
H169 C155 0.950 . S
H170 C156 0.950 . S
H171 C157 0.958 . S
H172 C159 0.950 . S
H173 C160 0.951 . S
C174 C175 1.386 . S
C174 C176 1.383 . S
C174 H190 0.951 . S
C175 C174 1.386 . S
C175 C179 1.383 . S
C176 C174 1.383 . S
C176 C177 1.402 . S
C176 H191 0.951 . S
C177 C176 1.402 . S
C177 C178 1.375 . S
C177 C180 1.481 . S
C178 C177 1.375 . S
C178 C179 1.367 . S
C178 H192 0.951 . S
C179 C175 1.383 . S
C179 C178 1.367 . S
C179 H193 0.950 . S
C180 C177 1.481 . S
C180 C181 1.297 . S
C180 H194 0.950 . S
C181 C180 1.297 . S
C181 C182 1.479 . S
C181 H195 0.950 . S
C182 C181 1.479 . S
C182 C183 1.375 . S
C182 C188 1.404 . S
C183 C182 1.375 . S
C183 C184 1.369 . S
C183 H196 0.950 . S
C184 C183 1.369 . S
C184 C185 1.392 . S
C184 H197 0.951 . S
C185 C184 1.392 . S
C185 C187 1.384 . S
H186 C188 0.949 . S
C187 C185 1.384 . S
C187 C188 1.385 . S
C187 H189 0.950 . S
C188 C182 1.404 . S
C188 H186 0.949 . S
C188 C187 1.385 . S
H189 C187 0.950 . S
H190 C174 0.951 . S
H191 C176 0.951 . S
H192 C178 0.951 . S
H193 C179 0.950 . S
H194 C180 0.950 . S
H195 C181 0.950 . S
H196 C183 0.950 . S
H197 C184 0.951 . S
C198 C199 1.386 . S
C198 C200 1.383 . S
C198 H214 0.951 . S
C199 C198 1.386 . S
C199 C203 1.383 1_455 S
C200 C198 1.383 . S
C200 C201 1.402 . S
C200 H215 0.951 . S
C201 C200 1.402 . S
C201 C202 1.375 1_455 S
C201 C204 1.481 1_455 S
C202 C201 1.375 1_655 S
C202 C203 1.367 . S
C202 H216 0.951 . S
C203 C199 1.383 1_655 S
C203 C202 1.367 . S
C203 H217 0.950 . S
C204 C201 1.481 1_655 S
C204 C205 1.297 1_655 S
C204 H218 0.950 . S
C205 C204 1.297 1_455 S
C205 C206 1.479 . S
C205 H219 0.950 . S
C206 C205 1.479 . S
C206 C207 1.375 . S
C206 C212 1.404 1_455 S
C207 C206 1.375 . S
C207 C208 1.369 . S
C207 H220 0.950 . S
C208 C207 1.369 . S
C208 C209 1.392 . S
C208 H221 0.951 . S
C209 C208 1.392 . S
C209 C211 1.384 1_455 S
H210 C212 0.949 . S
C211 C209 1.384 1_655 S
C211 C212 1.385 . S
C211 H213 0.950 . S
C212 C206 1.404 1_655 S
C212 H210 0.949 . S
C212 C211 1.385 . S
H213 C211 0.950 . S
H214 C198 0.951 . S
H215 C200 0.951 . S
H216 C202 0.951 . S
H217 C203 0.950 . S
H218 C204 0.950 . S
H219 C205 0.950 . S
H220 C207 0.950 . S
H221 C208 0.951 . S
C222 C223 1.386 . S
C222 C224 1.383 . S
C222 H238 0.951 . S
C223 C222 1.386 . S
C223 C227 1.383 1_445 S
C224 C222 1.383 . S
C224 C225 1.402 1_545 S
C224 H239 0.951 . S
C225 C224 1.402 1_565 S
C225 C226 1.375 1_455 S
C225 C228 1.480 1_455 S
C226 C225 1.375 1_655 S
C226 C227 1.367 . S
C226 H240 0.951 . S
C227 C223 1.383 1_665 S
C227 C226 1.367 . S
C227 H241 0.950 . S
C228 C225 1.480 1_655 S
C228 C229 1.288 1_665 S
C228 H242 0.962 . S
C229 C228 1.288 1_445 S
C229 C230 1.479 . S
C229 H243 0.950 . S
C230 C229 1.479 . S
C230 C231 1.375 . S
C230 C236 1.404 1_445 S
C231 C230 1.375 . S
C231 C232 1.369 . S
C231 H244 0.950 . S
C232 C231 1.369 . S
C232 C233 1.392 . S
C232 H245 0.951 . S
C233 C232 1.392 . S
C233 C235 1.384 1_445 S
H234 C236 0.949 . S
C235 C233 1.384 1_665 S
C235 C236 1.385 . S
C235 H237 0.950 . S
C236 C230 1.404 1_665 S
C236 H234 0.949 . S
C236 C235 1.385 . S
H237 C235 0.950 . S
H238 C222 0.951 . S
H239 C224 0.951 . S
H240 C226 0.951 . S
H241 C227 0.950 . S
H242 C228 0.962 . S
H243 C229 0.950 . S
H244 C231 0.950 . S
H245 C232 0.951 . S
C246 C247 1.386 1_655 S
C246 C248 1.383 . S
C246 H262 0.947 . S
C247 C246 1.386 1_455 S
C247 C251 1.383 . S
C248 C246 1.383 . S
C248 C249 1.402 1_655 S
C248 H263 0.951 . S
C249 C248 1.402 1_455 S
C249 C250 1.375 . S
C249 C252 1.481 . S
C250 C249 1.375 . S
C250 C251 1.367 . S
C250 H264 0.951 . S
C251 C247 1.383 . S
C251 C250 1.367 . S
C251 H265 0.950 . S
C252 C249 1.481 . S
C252 C253 1.297 . S
C252 H266 0.950 . S
C253 C252 1.297 . S
C253 C254 1.479 . S
C253 H267 0.950 1_455 S
C254 C253 1.479 . S
C254 C255 1.375 1_455 S
C254 C260 1.404 . S
C255 C254 1.375 1_655 S
C255 C256 1.369 . S
C255 H268 0.950 . S
C256 C255 1.369 . S
C256 C257 1.392 1_655 S
C256 H269 0.951 . S
C257 C256 1.392 1_455 S
C257 C259 1.384 . S
H258 C260 0.949 . S
C259 C257 1.384 . S
C259 C260 1.385 . S
C259 H261 0.950 . S
C260 C254 1.404 . S
C260 H258 0.949 . S
C260 C259 1.385 . S
H261 C259 0.950 . S
H262 C246 0.947 . S
H263 C248 0.951 . S
H264 C250 0.951 . S
H265 C251 0.950 . S
H266 C252 0.950 . S
H267 C253 0.950 1_655 S
H268 C255 0.950 . S
H269 C256 0.951 . S
C270 C271 1.386 1_655 S
C270 C272 1.383 . S
C270 H286 0.951 . S
C271 C270 1.386 1_455 S
C271 C275 1.383 1_545 S
C272 C270 1.383 . S
C272 C273 1.402 1_645 S
C272 H287 0.951 . S
C273 C272 1.402 1_465 S
C273 C274 1.375 . S
C273 C276 1.481 . S
C274 C273 1.375 . S
C274 C275 1.367 . S
C274 H288 0.951 . S
C275 C271 1.383 1_565 S
C275 C274 1.367 . S
C275 H289 0.950 . S
C276 C273 1.481 . S
C276 C277 1.297 1_465 S
C276 H290 0.950 . S
C277 C276 1.297 1_645 S
C277 C278 1.479 . S
C277 H291 0.950 . S
C278 C277 1.479 . S
C278 C279 1.375 . S
C278 C284 1.404 1_645 S
C279 C278 1.375 . S
C279 C280 1.369 . S
C279 H292 0.950 . S
C280 C279 1.369 . S
C280 C281 1.392 . S
C280 H293 0.951 . S
C281 C280 1.392 . S
C281 C283 1.384 1_645 S
H282 C284 0.949 . S
C283 C281 1.384 1_465 S
C283 C284 1.385 . S
C283 H285 0.950 . S
C284 C278 1.404 1_465 S
C284 H282 0.949 . S
C284 C283 1.385 . S
H285 C283 0.950 . S
H286 C270 0.951 . S
H287 C272 0.951 . S
H288 C274 0.951 . S
H289 C275 0.950 . S
H290 C276 0.950 . S
H291 C277 0.950 . S
H292 C279 0.950 . S
H293 C280 0.951 . S
C294 C295 1.386 1_665 S
C294 C296 1.383 . S
C294 H310 0.951 . S
C295 C294 1.386 1_445 S
C295 C299 1.383 . S
C296 C294 1.383 . S
C296 C297 1.402 1_665 S
C296 H311 0.951 . S
C297 C296 1.402 1_445 S
C297 C298 1.375 . S
C297 C300 1.481 . S
C298 C297 1.375 . S
C298 C299 1.367 . S
C298 H312 0.951 . S
C299 C295 1.383 . S
C299 C298 1.367 . S
C299 H313 0.950 . S
C300 C297 1.481 . S
C300 C301 1.297 1_454 S
C300 H314 0.950 . S
C301 C300 1.297 1_656 S
C301 C302 1.479 . S
C301 H315 0.950 1_545 S
C302 C301 1.479 . S
C302 C303 1.375 1_545 S
C302 C308 1.404 1_655 S
C303 C302 1.375 1_565 S
C303 C304 1.369 . S
C303 H316 0.950 . S
C304 C303 1.369 . S
C304 C305 1.392 1_565 S
C304 H317 0.951 . S
C305 C304 1.392 1_545 S
C305 C307 1.384 1_655 S
H306 C308 0.949 . S
C307 C305 1.384 1_455 S
C307 C308 1.385 . S
C307 H309 0.950 . S
C308 C302 1.404 1_455 S
C308 H306 0.949 . S
C308 C307 1.385 . S
H309 C307 0.950 . S
H310 C294 0.951 . S
H311 C296 0.951 . S
H312 C298 0.951 . S
H313 C299 0.950 . S
H314 C300 0.950 . S
H315 C301 0.950 1_565 S
H316 C303 0.950 . S
H317 C304 0.951 . S
C318 C319 1.386 1_565 S
C318 C320 1.383 . S
C318 H334 0.951 . S
C319 C318 1.386 1_545 S
C319 C323 1.383 . S
C320 C318 1.383 . S
C320 C321 1.402 1_565 S
C320 H335 0.951 . S
C321 C320 1.402 1_545 S
C321 C322 1.375 . S
C321 C324 1.481 . S
C322 C321 1.375 . S
C322 C323 1.367 . S
C322 H336 0.951 . S
C323 C319 1.383 . S
C323 C322 1.367 . S
C323 H337 0.950 . S
C324 C321 1.481 . S
C324 C325 1.297 . S
C324 H338 0.950 . S
C325 C324 1.297 . S
C325 C326 1.479 . S
C325 H339 0.950 1_545 S
C326 C325 1.479 . S
C326 C327 1.375 1_545 S
C326 C332 1.404 . S
C327 C326 1.375 1_565 S
C327 C328 1.369 . S
C327 H340 0.950 . S
C328 C327 1.369 . S
C328 C329 1.392 1_565 S
C328 H341 0.951 . S
C329 C328 1.392 1_545 S
C329 C331 1.384 . S
H330 C332 0.949 . S
C331 C329 1.384 . S
C331 C332 1.385 . S
C331 H333 0.950 . S
C332 C326 1.404 . S
C332 H330 0.949 . S
C332 C331 1.385 . S
H333 C331 0.950 . S
H334 C318 0.951 . S
H335 C320 0.951 . S
H336 C322 0.951 . S
H337 C323 0.950 . S
H338 C324 0.950 . S
H339 C325 0.950 1_565 S
H340 C327 0.950 . S
H341 C328 0.951 . S
C342 C343 1.386 1_655 S
C342 C344 1.383 . S
C342 H358 0.951 . S
C343 C342 1.386 1_455 S
C343 C347 1.383 . S
C344 C342 1.383 . S
C344 C345 1.402 1_655 S
C344 H359 0.948 . S
C345 C344 1.402 1_455 S
C345 C346 1.375 . S
C345 C348 1.481 1_545 S
C346 C345 1.375 . S
C346 C347 1.367 . S
C346 H360 0.951 . S
C347 C343 1.383 . S
C347 C346 1.367 . S
C347 H361 0.950 . S
C348 C345 1.481 1_565 S
C348 C349 1.290 1_455 S
C348 H362 0.950 1_565 S
C349 C348 1.290 1_655 S
C349 C350 1.478 1_655 S
C349 H363 0.960 . S
C350 C349 1.478 1_455 S
C350 C351 1.375 1_455 S
C350 C356 1.404 . S
C351 C350 1.375 1_655 S
C351 C352 1.369 1_565 S
C351 H364 0.950 . S
C352 C351 1.369 1_545 S
C352 C353 1.392 1_655 S
C352 H365 0.951 . S
C353 C352 1.392 1_455 S
C353 C355 1.384 . S
H354 C356 0.949 . S
C355 C353 1.384 . S
C355 C356 1.385 1_545 S
C355 H357 0.950 . S
C356 C350 1.404 . S
C356 H354 0.949 . S
C356 C355 1.385 1_565 S
H357 C355 0.950 . S
H358 C342 0.951 . S
H359 C344 0.948 . S
H360 C346 0.951 . S
H361 C347 0.950 . S
H362 C348 0.950 1_545 S
H363 C349 0.960 . S
H364 C351 0.950 . S
H365 C352 0.951 . S
C79 C1 1.499 . S
C89 C3 1.473 . S
C103 C16 1.483 . S
C113 C14 1.499 . S
C127 C27 1.497 . S
C137 C29 1.463 . S
C151 C40 1.480 . S
C161 C42 1.464 . S
C175 C53 1.484 . S
C185 C55 1.457 . S
C199 C66 1.498 . S
C209 C68 1.491 . S
C223 C70 1.492 . S
C233 C5 1.473 . S
C247 C44 1.497 . S
C257 C18 1.500 . S
C271 C31 1.483 . S
C281 C57 1.478 1_655 S
C295 C10 1.494 . S
C305 C62 1.501 1_655 S
C319 C75 1.481 . S
C329 C23 1.495 . S
C343 C49 1.482 . S
C353 C36 1.471 . S
