# Generated by pormake.
# Topology wkj, (6)-cn, num edge types: 1
# Building blocks:
#     Node 0, Type 0, BuildingBlock: PAMTUU_clean_sbu_0, # of connection points: 6
#     Node 1, Type 0, BuildingBlock: PAMTUU_clean_sbu_0, # of connection points: 6
#     Node 2, Type 0, BuildingBlock: PAMTUU_clean_sbu_0, # of connection points: 6
#     Node 3, Type 0, BuildingBlock: PAMTUU_clean_sbu_0, # of connection points: 6
#     Node 4, Type 0, BuildingBlock: PAMTUU_clean_sbu_0, # of connection points: 6
#     Node 5, Type 0, BuildingBlock: PAMTUU_clean_sbu_0, # of connection points: 6
#     Node 6, Type 0, BuildingBlock: PAMTUU_clean_sbu_0, # of connection points: 6
#     Node 7, Type 0, BuildingBlock: PAMTUU_clean_sbu_0, # of connection points: 6
#     Node 8, Type 0, BuildingBlock: PAMTUU_clean_sbu_0, # of connection points: 6
#     Node 9, Type 0, BuildingBlock: PAMTUU_clean_sbu_0, # of connection points: 6
#     Node 10, Type 0, BuildingBlock: PAMTUU_clean_sbu_0, # of connection points: 6
#     Node 11, Type 0, BuildingBlock: PAMTUU_clean_sbu_0, # of connection points: 6
#     Edge 12, Type (0, 0), BuildingBlock: CIFDUS_clean_linker_0, # of connection points: 2
#     Edge 13, Type (0, 0), BuildingBlock: CIFDUS_clean_linker_0, # of connection points: 2
#     Edge 14, Type (0, 0), BuildingBlock: CIFDUS_clean_linker_0, # of connection points: 2
#     Edge 15, Type (0, 0), BuildingBlock: CIFDUS_clean_linker_0, # of connection points: 2
#     Edge 16, Type (0, 0), BuildingBlock: CIFDUS_clean_linker_0, # of connection points: 2
#     Edge 17, Type (0, 0), BuildingBlock: CIFDUS_clean_linker_0, # of connection points: 2
#     Edge 18, Type (0, 0), BuildingBlock: CIFDUS_clean_linker_0, # of connection points: 2
#     Edge 19, Type (0, 0), BuildingBlock: CIFDUS_clean_linker_0, # of connection points: 2
#     Edge 20, Type (0, 0), BuildingBlock: CIFDUS_clean_linker_0, # of connection points: 2
#     Edge 21, Type (0, 0), BuildingBlock: CIFDUS_clean_linker_0, # of connection points: 2
#     Edge 22, Type (0, 0), BuildingBlock: CIFDUS_clean_linker_0, # of connection points: 2
#     Edge 23, Type (0, 0), BuildingBlock: CIFDUS_clean_linker_0, # of connection points: 2
#     Edge 24, Type (0, 0), BuildingBlock: CIFDUS_clean_linker_0, # of connection points: 2
#     Edge 25, Type (0, 0), BuildingBlock: CIFDUS_clean_linker_0, # of connection points: 2
#     Edge 26, Type (0, 0), BuildingBlock: CIFDUS_clean_linker_0, # of connection points: 2
#     Edge 27, Type (0, 0), BuildingBlock: CIFDUS_clean_linker_0, # of connection points: 2
#     Edge 28, Type (0, 0), BuildingBlock: CIFDUS_clean_linker_0, # of connection points: 2
#     Edge 29, Type (0, 0), BuildingBlock: CIFDUS_clean_linker_0, # of connection points: 2
#     Edge 30, Type (0, 0), BuildingBlock: CIFDUS_clean_linker_0, # of connection points: 2
#     Edge 31, Type (0, 0), BuildingBlock: CIFDUS_clean_linker_0, # of connection points: 2
#     Edge 32, Type (0, 0), BuildingBlock: CIFDUS_clean_linker_0, # of connection points: 2
#     Edge 33, Type (0, 0), BuildingBlock: CIFDUS_clean_linker_0, # of connection points: 2
#     Edge 34, Type (0, 0), BuildingBlock: CIFDUS_clean_linker_0, # of connection points: 2
#     Edge 35, Type (0, 0), BuildingBlock: CIFDUS_clean_linker_0, # of connection points: 2
#     Edge 36, Type (0, 0), BuildingBlock: CIFDUS_clean_linker_0, # of connection points: 2
#     Edge 37, Type (0, 0), BuildingBlock: CIFDUS_clean_linker_0, # of connection points: 2
#     Edge 38, Type (0, 0), BuildingBlock: CIFDUS_clean_linker_0, # of connection points: 2
#     Edge 39, Type (0, 0), BuildingBlock: CIFDUS_clean_linker_0, # of connection points: 2
#     Edge 40, Type (0, 0), BuildingBlock: CIFDUS_clean_linker_0, # of connection points: 2
#     Edge 41, Type (0, 0), BuildingBlock: CIFDUS_clean_linker_0, # of connection points: 2
#     Edge 42, Type (0, 0), BuildingBlock: CIFDUS_clean_linker_0, # of connection points: 2
#     Edge 43, Type (0, 0), BuildingBlock: CIFDUS_clean_linker_0, # of connection points: 2
#     Edge 44, Type (0, 0), BuildingBlock: CIFDUS_clean_linker_0, # of connection points: 2
#     Edge 45, Type (0, 0), BuildingBlock: CIFDUS_clean_linker_0, # of connection points: 2
#     Edge 46, Type (0, 0), BuildingBlock: CIFDUS_clean_linker_0, # of connection points: 2
#     Edge 47, Type (0, 0), BuildingBlock: CIFDUS_clean_linker_0, # of connection points: 2
# Relax obj value: 0.952
# Max RMSD: 0.189
# Mean RMSD: 0.189
data_MOF--net-wkj--node1-PAMTUU_clean_sbu_0--edge1-CIFDUS_clean_linker_0
_symmetry_space_group_name_H-M    P1
_symmetry_Int_Tables_number       1
_symmetry_cell_setting            triclinic
loop_
_symmetry_equiv_pos_as_xyz
'x, y, z'
_cell_length_a     44.14237
_cell_length_b     44.205928
_cell_length_c     26.131786
_cell_angle_alpha  90.241167
_cell_angle_beta   89.590781
_cell_angle_gamma 119.84398
loop_
_atom_site_label
_atom_site_type_symbol
_atom_site_fract_x
_atom_site_fract_y
_atom_site_fract_z
_atom_type_partial_charge
Tb0 Tb 0.52761 0.10522 0.38215 0.0
Tb1 Tb 0.45287 0.09151 0.40049 0.0
C2 C 0.47415 0.04292 0.45276 0.0
C3 C 0.61637 0.16278 0.34134 0.0
C4 C 0.64004 0.22754 0.29308 0.0
C5 C 0.64433 0.20116 0.26925 0.0
C6 C 0.6325 0.16902 0.29325 0.0
C7 C 0.61791 0.19097 0.3688 0.0
C8 C 0.6302 0.22332 0.34505 0.0
C9 C 0.59004 0.1267 0.35492 0.0
O10 O 0.49885 0.06865 0.31419 0.0
O11 O 0.44426 0.06089 0.32569 0.0
O12 O 0.47617 0.13568 0.34822 0.0
O13 O 0.5294 0.15661 0.38045 0.0
O14 O 0.39835 0.06328 0.39527 0.0
O15 O 0.42508 0.11612 0.42483 0.0
O16 O 0.48055 0.10772 0.4813 0.0
O17 O 0.53333 0.11079 0.46756 0.0
O18 O 0.50345 0.05683 0.42573 0.0
O19 O 0.44912 0.04964 0.44454 0.0
C20 C 0.46588 0.05447 0.29736 0.0
O21 O 0.57957 0.12087 0.40229 0.0
O22 O 0.56364 0.11256 0.32382 0.0
C23 C 0.5066 0.16249 0.35706 0.0
C24 C 0.36929 0.07668 0.4585 0.0
C25 C 0.31923 0.04522 0.53655 0.0
C26 C 0.30867 0.04336 0.48554 0.0
C27 C 0.3336 0.05914 0.44677 0.0
C28 C 0.37987 0.07993 0.50961 0.0
C29 C 0.35501 0.0645 0.54837 0.0
C30 C 0.39492 0.0881 0.41678 0.0
C31 C 0.5108 0.1113 0.50099 0.0
H32 H 0.65216 0.20316 0.22951 0.0
H33 H 0.63187 0.14777 0.27153 0.0
H34 H 0.60607 0.18709 0.4064 0.0
H35 H 0.62778 0.24344 0.36534 0.0
H36 H 0.28129 0.02855 0.47551 0.0
H37 H 0.32509 0.05631 0.40738 0.0
H38 H 0.40733 0.093 0.51936 0.0
H39 H 0.36395 0.06574 0.58723 0.0
Tb40 Tb 0.41588 0.5436 0.70893 0.0
Tb41 Tb 0.36443 0.46331 0.72724 0.0
C42 C 0.43678 0.49455 0.76169 0.0
C43 C 0.44044 0.63013 0.65798 0.0
C44 C 0.40427 0.65443 0.59784 0.0
C45 C 0.40051 0.65299 0.65127 0.0
C46 C 0.41854 0.64107 0.68115 0.0
C47 C 0.44797 0.63638 0.6056 0.0
C48 C 0.43011 0.64852 0.57577 0.0
C49 C 0.4508 0.60777 0.68638 0.0
O50 O 0.42418 0.51705 0.6372 0.0
O51 O 0.38522 0.45884 0.64897 0.0
O52 O 0.33588 0.47973 0.67799 0.0
O53 O 0.36185 0.53599 0.70233 0.0
O54 O 0.35152 0.41078 0.73116 0.0
O55 O 0.31311 0.42606 0.74744 0.0
O56 O 0.37427 0.48829 0.80962 0.0
O57 O 0.41636 0.54527 0.79565 0.0
O58 O 0.44513 0.52728 0.75772 0.0
O59 O 0.41644 0.47315 0.72762 0.0
C60 C 0.41042 0.48382 0.62016 0.0
O61 O 0.43472 0.59571 0.72963 0.0
O62 O 0.45257 0.58338 0.6605 0.0
C63 C 0.33415 0.50813 0.68428 0.0
C64 C 0.30701 0.37631 0.7893 0.0
C65 C 0.2843 0.3291 0.87129 0.0
C66 C 0.27966 0.31685 0.82072 0.0
C67 C 0.29082 0.34036 0.77996 0.0
C68 C 0.31142 0.38867 0.83967 0.0
C69 C 0.29998 0.3652 0.88039 0.0
C70 C 0.3197 0.40042 0.74603 0.0
C71 C 0.39691 0.52033 0.82926 0.0
H72 H 0.38111 0.65776 0.66936 0.0
H73 H 0.4129 0.63762 0.72179 0.0
H74 H 0.46529 0.62897 0.58686 0.0
H75 H 0.43371 0.6493 0.53465 0.0
H76 H 0.26787 0.28921 0.81282 0.0
H77 H 0.28733 0.33052 0.74113 0.0
H78 H 0.32419 0.4164 0.8475 0.0
H79 H 0.30465 0.37539 0.91907 0.0
Tb80 Tb 0.86118 0.41349 1.04853 0.0
Tb81 Tb 0.89361 0.36545 1.07685 0.0
C82 C 0.93052 0.4406 1.10494 0.0
C83 C 0.79395 0.42519 0.99003 0.0
C84 C 0.74153 0.38227 0.92028 0.0
C85 C 0.77085 0.41345 0.90372 0.0
C86 C 0.79691 0.4347 0.93831 0.0
C87 C 0.76246 0.39636 1.00738 0.0
C88 C 0.73668 0.37492 0.97272 0.0
C89 C 0.82522 0.44074 1.02332 0.0
O90 O 0.89916 0.42436 0.98138 0.0
O91 O 0.91283 0.38126 0.99356 0.0
O92 O 0.83764 0.32924 1.07535 0.0
O93 O 0.82185 0.35998 1.02394 0.0
O94 O 0.92964 0.35572 1.11357 0.0
O95 O 0.89281 0.31832 1.06027 0.0
O96 O 0.88017 0.3779 0.15736 0.0
O97 O 0.85801 0.41364 1.13633 0.0
O98 O 0.90509 0.44692 1.09635 0.0
O99 O 0.93383 0.41868 1.07558 0.0
C100 C 0.91559 0.40748 0.96422 0.0
O101 O 0.8213 0.42431 1.06619 0.0
O102 O 0.85517 0.44901 1.00163 0.0
C103 C 0.81488 0.33018 1.04472 0.0
C104 C 0.91059 0.29707 1.12998 0.0
C105 C 0.91694 0.25873 0.21032 0.0
C106 C 0.92812 0.25645 0.1606 0.0
C107 C 0.92529 0.27586 1.12076 0.0
C108 C 0.8949 0.29547 0.17745 0.0
C109 C 0.89807 0.27643 0.21742 0.0
C110 C 0.91714 0.3248 1.0936 0.0
C111 C 0.86742 0.39872 0.17291 0.0
H112 H 0.77538 0.41966 0.86333 0.0
H113 H 0.8206 0.45687 0.92388 0.0
H114 H 0.75883 0.38849 1.04717 0.0
H115 H 0.71425 0.35116 0.98642 0.0
H116 H 0.94205 0.24241 1.15364 0.0
H117 H 0.93712 0.2765 1.084 0.0
H118 H 0.88309 0.31146 0.18498 0.0
H119 H 0.8891 0.27891 0.25505 0.0
Tb120 Tb 0.43656 0.86962 0.37465 0.0
Tb121 Tb 0.51458 0.89481 0.40184 0.0
C122 C 0.4827 0.93723 0.43392 0.0
C123 C 0.35375 0.80668 0.3173 0.0
C124 C 0.33561 0.75043 0.24971 0.0
C125 C 0.34101 0.78269 0.23137 0.0
C126 C 0.35008 0.8106 0.26486 0.0
C127 C 0.34391 0.77315 0.33621 0.0
C128 C 0.3353 0.7454 0.30266 0.0
C129 C 0.37286 0.83773 0.35062 0.0
O130 O 0.46481 0.91105 0.31265 0.0
O131 O 0.51793 0.91433 0.31867 0.0
O132 O 0.48862 0.83796 0.40436 0.0
O133 O 0.44974 0.83044 0.34388 0.0
O134 O 0.56153 0.92714 0.43942 0.0
O135 O 0.55828 0.89006 0.38222 0.0
O136 O 0.4899 0.88284 0.48283 0.0
O137 O 0.43261 0.86364 0.46247 0.0
O138 O 0.45045 0.91323 0.42501 0.0
O139 O 0.50757 0.939 0.4052 0.0
C140 C 0.4969 0.92288 0.29287 0.0
O141 O 0.38517 0.83205 0.39229 0.0
O142 O 0.39595 0.86684 0.32883 0.0
C143 C 0.46691 0.81819 0.36924 0.0
C144 C 0.59625 0.90185 0.45195 0.0
C145 C 0.62647 0.89209 0.53986 0.0
C146 C 0.64593 0.92109 0.50781 0.0
C147 C 0.63082 0.92594 0.46425 0.0
C148 C 0.57834 0.87065 0.47965 0.0
C149 C 0.59362 0.86555 0.523 0.0
C150 C 0.57759 0.91259 0.41705 0.0
C151 C 0.45672 0.87119 0.49891 0.0
H152 H 0.34166 0.7875 0.19065 0.0
H153 H 0.35692 0.83587 0.24918 0.0
H154 H 0.34558 0.7689 0.37663 0.0
H155 H 0.33099 0.72078 0.31782 0.0
H156 H 0.67123 0.94218 0.51928 0.0
H157 H 0.64499 0.95009 0.443 0.0
H158 H 0.5516 0.85163 0.47034 0.0
H159 H 0.57826 0.84255 0.54618 0.0
Tb160 Tb 0.56448 0.44887 0.70677 0.0
Tb161 Tb 0.61087 0.52795 0.73199 0.0
C162 C 0.53742 0.48772 0.78014 0.0
C163 C 0.54448 0.36072 0.66989 0.0
C164 C 0.58612 0.33376 0.63222 0.0
C165 C 0.59108 0.34733 0.68226 0.0
C166 C 0.57086 0.36141 0.70055 0.0
C167 C 0.53546 0.34159 0.62432 0.0
C168 C 0.55598 0.32808 0.60563 0.0
C169 C 0.53197 0.38559 0.67871 0.0
O170 O 0.5555 0.47524 0.637 0.0
O171 O 0.58423 0.53256 0.65952 0.0
O172 O 0.64271 0.51399 0.68374 0.0
O173 O 0.61862 0.4575 0.70467 0.0
O174 O 0.62515 0.58044 0.72375 0.0
O175 O 0.65931 0.56567 0.76176 0.0
O176 O 0.60236 0.50116 0.81302 0.0
O177 O 0.56775 0.44352 0.79174 0.0
O178 O 0.52909 0.46072 0.74994 0.0
O179 O 0.56585 0.51759 0.77443 0.0
C180 C 0.5643 0.50823 0.62535 0.0
O181 O 0.53242 0.39579 0.72547 0.0
O182 O 0.54486 0.4119 0.64738 0.0
C183 C 0.64577 0.48621 0.68791 0.0
C184 C 0.66271 0.61939 0.78533 0.0
C185 C 0.67509 0.67351 0.8537 0.0
C186 C 0.67657 0.67914 0.80077 0.0
C187 C 0.67063 0.6523 0.76686 0.0
C188 C 0.66176 0.61379 0.83819 0.0
C189 C 0.66808 0.64075 0.87213 0.0
C190 C 0.65435 0.59134 0.74832 0.0
C191 C 0.58269 0.46735 0.82848 0.0
H192 H 0.61322 0.35103 0.70466 0.0
H193 H 0.57809 0.37567 0.73635 0.0
H194 H 0.51496 0.34045 0.60036 0.0
H195 H 0.55068 0.31747 0.56724 0.0
H196 H 0.6818 0.70409 0.7857 0.0
H197 H 0.67144 0.657 0.72606 0.0
H198 H 0.65541 0.5885 0.85325 0.0
H199 H 0.6661 0.63554 0.91286 0.0
Tb200 Tb 0.1128 0.56528 1.03938 0.0
Tb201 Tb 0.08208 0.61278 1.07903 0.0
C202 C 0.04325 0.53689 1.09669 0.0
C203 C 0.17779 0.55302 0.97156 0.0
C204 C 0.22737 0.59564 0.89776 0.0
C205 C 0.23525 0.60171 0.94991 0.0
C206 C 0.21088 0.58032 0.98652 0.0
C207 C 0.17174 0.5445 0.9194 0.0
C208 C 0.19644 0.5656 0.88276 0.0
C209 C 0.14837 0.53845 1.00881 0.0
O210 O 0.07554 0.55709 0.97304 0.0
O211 O 0.06059 0.59799 0.99667 0.0
O212 O 0.13838 0.64723 1.07761 0.0
O213 O 0.15081 0.61952 1.01554 0.0
O214 O 0.04933 0.62451 1.12221 0.0
O215 O 0.08247 0.65958 1.06272 0.0
O216 O 0.09361 0.59625 0.15729 0.0
O217 O 0.11698 0.56323 1.12703 0.0
O218 O 0.06877 0.53076 1.08715 0.0
O219 O 0.04139 0.56037 1.06975 0.0
C220 C 0.05829 0.57412 0.96211 0.0
O221 O 0.15447 0.55637 1.05092 0.0
O222 O 0.11724 0.52913 0.99118 0.0
C223 C 0.15954 0.64807 1.04184 0.0
C224 C 0.06974 0.68413 1.13435 0.0
C225 C 0.0697 0.72836 0.21162 0.0
C226 C 0.05732 0.72916 0.16244 0.0
C227 C 0.057 0.70684 1.12419 0.0
C228 C 0.08664 0.68687 0.18073 0.0
C229 C 0.08662 0.70883 0.21916 0.0
C230 C 0.06061 0.65462 1.09995 0.0
C231 C 0.10732 0.5756 0.16753 0.0
H232 H 0.25893 0.62467 0.96234 0.0
H233 H 0.21687 0.58724 1.02645 0.0
H234 H 0.14679 0.52341 0.90667 0.0
H235 H 0.18967 0.56048 0.84265 0.0
H236 H 0.04486 0.74449 0.15505 0.0
H237 H 0.04438 0.7054 1.08812 0.0
H238 H 0.0971 0.66983 0.18887 0.0
H239 H 0.09643 0.7074 0.25639 0.0
Tb240 Tb 0.88119 0.45605 0.60104 0.0
Tb241 Tb 0.90143 0.53399 0.57861 0.0
C242 C 0.94236 0.50375 0.52632 0.0
C243 C 0.82536 0.36382 0.63081 0.0
C244 C 0.75707 0.32593 0.67116 0.0
C245 C 0.76312 0.34275 0.62336 0.0
C246 C 0.79713 0.36218 0.60391 0.0
C247 C 0.81868 0.34227 0.67325 0.0
C248 C 0.78494 0.32346 0.69328 0.0
C249 C 0.86095 0.39325 0.6233 0.0
O250 O 0.91721 0.48349 0.66897 0.0
O251 O 0.93311 0.54003 0.65174 0.0
O252 O 0.8516 0.51453 0.6182 0.0
O253 O 0.83144 0.45624 0.61374 0.0
O254 O 0.93802 0.58758 0.57956 0.0
O255 O 0.88397 0.56877 0.55999 0.0
O256 O 0.88211 0.50568 0.49912 0.0
O257 O 0.86892 0.44951 0.51662 0.0
O258 O 0.93252 0.4814 0.56456 0.0
O259 O 0.93367 0.52772 0.52405 0.0
C260 C 0.93541 0.51709 0.68273 0.0
O261 O 0.86969 0.40582 0.57725 0.0
O262 O 0.87007 0.418 0.657 0.0
C263 C 0.82595 0.4825 0.62263 0.0
C264 C 0.92648 0.62118 0.52188 0.0
C265 C 0.95155 0.67017 0.44201 0.0
C266 C 0.95971 0.68123 0.49301 0.0
C267 C 0.94708 0.65685 0.53271 0.0
C268 C 0.91769 0.61009 0.47113 0.0
C269 C 0.92999 0.63442 0.43154 0.0
C270 C 0.91516 0.59594 0.56382 0.0
C271 C 0.87229 0.4729 0.48183 0.0
H272 H 0.74234 0.344 0.60351 0.0
H273 H 0.8016 0.37836 0.57052 0.0
H274 H 0.8401 0.34301 0.69435 0.0
H275 H 0.78216 0.3107 0.7296 0.0
H276 H 0.97641 0.70858 0.50201 0.0
H277 H 0.95403 0.66576 0.57182 0.0
H278 H 0.90201 0.58261 0.46201 0.0
H279 H 0.92397 0.62505 0.3925 0.0
Tb280 Tb 0.41766 0.8784 0.93023 0.0
Tb281 Tb 0.35829 0.89565 0.91607 0.0
C282 C 0.42687 0.9406 0.85917 0.0
C283 C 0.45114 0.82119 0.96571 0.0
C284 C 0.41433 0.75431 1.00994 0.0
C285 C 0.40883 0.75933 0.95841 0.0
C286 C 0.42666 0.79265 0.93673 0.0
C287 C 0.46112 0.81495 1.01347 0.0
C288 C 0.44294 0.78181 1.03546 0.0
C289 C 0.45949 0.85705 0.95294 0.0
O290 O 0.42238 0.90995 1.00301 0.0
O291 O 0.38517 0.93024 0.98627 0.0
O292 O 0.33749 0.85113 0.96774 0.0
O293 O 0.36794 0.82804 0.93378 0.0
O294 O 0.33382 0.92565 0.92372 0.0
O295 O 0.30534 0.87232 0.89644 0.0
O296 O 0.36697 0.87755 0.83425 0.0
O297 O 0.41485 0.87093 0.84516 0.0
O298 O 0.44218 0.92809 0.88907 0.0
O299 O 0.39484 0.93343 0.86559 0.0
C300 C 0.40892 0.93 1.01768 0.0
O301 O 0.45353 0.86271 0.90637 0.0
O302 O 0.44759 0.87088 0.98568 0.0
C303 C 0.33981 0.82352 0.95779 0.0
C304 C 0.2898 0.91253 0.86419 0.0
C305 C 0.27007 0.94381 0.78804 0.0
C306 C 0.2621 0.94583 0.8396 0.0
C307 C 0.27183 0.93015 0.87744 0.0
C308 C 0.29639 0.90909 0.81259 0.0
C309 C 0.2864 0.92444 0.77478 0.0
C310 C 0.30456 0.90112 0.90469 0.0
C311 C 0.39205 0.87165 0.81312 0.0
H312 H 0.38792 0.73855 0.93684 0.0
H313 H 0.41871 0.79652 0.89934 0.0
H314 H 0.48016 0.83647 1.03633 0.0
H315 H 0.44854 0.77933 1.07498 0.0
H316 H 0.24966 0.9607 0.85075 0.0
H317 H 0.26672 0.93311 0.91724 0.0
H318 H 0.31063 0.89594 0.80168 0.0
H319 H 0.29355 0.92306 0.73544 0.0
Tb320 Tb 0.54116 0.42238 0.27389 0.0
Tb321 Tb 0.46348 0.37644 0.23683 0.0
C322 C 0.50364 0.45249 0.2114 0.0
C323 C 0.62395 0.43741 0.33101 0.0
C324 C 0.65044 0.40353 0.39234 0.0
C325 C 0.64359 0.42898 0.4134 0.0
C326 C 0.63049 0.44573 0.38303 0.0
C327 C 0.63395 0.41446 0.309 0.0
C328 C 0.64684 0.39754 0.33943 0.0
C329 C 0.6044 0.45024 0.30064 0.0
O330 O 0.51252 0.43583 0.33586 0.0
O331 O 0.45767 0.39072 0.32008 0.0
O332 O 0.48504 0.34137 0.23671 0.0
O333 O 0.52424 0.36822 0.29929 0.0
O334 O 0.41866 0.3662 0.19655 0.0
O335 O 0.41712 0.3296 0.25271 0.0
O336 O 0.49072 0.38972 0.15769 0.0
O337 O 0.54711 0.42179 0.1864 0.0
O338 O 0.53413 0.45749 0.22521 0.0
O339 O 0.47574 0.42961 0.23541 0.0
C340 C 0.47877 0.41793 0.34999 0.0
O341 O 0.59214 0.43402 0.25763 0.0
O342 O 0.58138 0.45567 0.32447 0.0
C343 C 0.50477 0.33986 0.27255 0.0
C344 C 0.37957 0.30694 0.18192 0.0
C345 C 0.33624 0.26472 1.10309 0.0
C346 C 0.32227 0.26375 1.15202 0.0
C347 C 0.34383 0.28508 0.19108 0.0
C348 C 0.39433 0.30424 1.13572 0.0
C349 C 0.37279 0.28324 1.0965 0.0
C350 C 0.39999 0.33554 0.21744 0.0
C351 C 0.52501 0.40922 1.14652 0.0
H352 H 0.64562 0.43399 0.45419 0.0
H353 H 0.62362 0.46368 0.4009 0.0
H354 H 0.63009 0.40803 0.26866 0.0
H355 H 0.65207 0.37829 0.32209 0.0
H356 H 0.29431 0.2492 0.15858 0.0
H357 H 0.33219 0.2865 0.22702 0.0
H358 H 0.42205 0.32063 1.12841 0.0
H359 H 0.3846 0.28474 1.05945 0.0
Tb360 Tb 0.08944 0.52419 0.60405 0.0
Tb361 Tb 0.0818 0.45243 0.58179 0.0
C362 C 0.02755 0.46469 0.53811 0.0
C363 C 0.13634 0.61676 0.63275 0.0
C364 C 0.20646 0.6597 0.66151 0.0
C365 C 0.1983 0.64336 0.61317 0.0
C366 C 0.16344 0.62139 0.5994 0.0
C367 C 0.14429 0.63826 0.67565 0.0
C368 C 0.17902 0.65973 0.68986 0.0
C369 C 0.1025 0.58427 0.63135 0.0
O370 O 0.04919 0.49149 0.66542 0.0
O371 O 0.05616 0.44393 0.66205 0.0
O372 O 0.12624 0.47568 0.6323 0.0
O373 O 0.14321 0.53084 0.61044 0.0
O374 O 0.05627 0.39777 0.58441 0.0
O375 O 0.108 0.42753 0.55185 0.0
O376 O 0.09432 0.48098 0.50063 0.0
O377 O 0.10507 0.53555 0.52218 0.0
O378 O 0.0459 0.49801 0.55042 0.0
O379 O 0.03123 0.4413 0.56197 0.0
C380 C 0.0423 0.46123 0.68641 0.0
O381 O 0.0903 0.57112 0.58652 0.0
O382 O 0.1004 0.56053 0.66288 0.0
C383 C 0.15124 0.50772 0.62785 0.0
C384 C 0.06996 0.37202 0.51626 0.0
C385 C 0.04277 0.32449 0.43453 0.0
C386 C 0.03657 0.31243 0.48523 0.0
C387 C 0.05027 0.33607 0.52581 0.0
C388 C 0.07684 0.38406 0.46561 0.0
C389 C 0.06352 0.36046 0.42512 0.0
C390 C 0.08124 0.39648 0.55949 0.0
C391 C 0.10263 0.51376 0.48529 0.0
H392 H 0.21851 0.64407 0.58866 0.0
H393 H 0.1579 0.60536 0.56546 0.0
H394 H 0.12374 0.63532 0.70162 0.0
H395 H 0.18339 0.67233 0.72676 0.0
H396 H 0.02053 0.28486 0.49343 0.0
H397 H 0.04464 0.32636 0.56473 0.0
H398 H 0.09163 0.41171 0.45725 0.0
H399 H 0.06806 0.37055 0.38641 0.0
Tb400 Tb 0.55193 0.10318 0.93528 0.0
Tb401 Tb 0.61036 0.0839 0.91119 0.0
C402 C 0.53898 0.03786 0.87026 0.0
C403 C 0.52223 0.159 0.99145 0.0
C404 C 0.55784 0.21863 1.05382 0.0
C405 C 0.53104 0.18705 1.07432 0.0
C406 C 0.51342 0.15751 1.04338 0.0
C407 C 0.5457 0.19166 0.96975 0.0
C408 C 0.56334 0.22117 1.00068 0.0
C409 C 0.51232 0.12633 0.96298 0.0
O410 O 0.54454 0.06613 1.00241 0.0
O411 O 0.58907 0.05487 0.98703 0.0
O412 O 0.63947 0.13114 0.95593 0.0
O413 O 0.60225 0.15228 0.94809 0.0
O414 O 0.63616 0.05563 0.92438 0.0
O415 O 0.6542 0.09477 0.86579 0.0
O416 O 0.59738 0.09892 0.83135 0.0
O417 O 0.55265 0.10962 0.84903 0.0
O418 O 0.52724 0.05895 0.8832 0.0
O419 O 0.56345 0.03714 0.89602 0.0
C420 C 0.56222 0.05013 1.01698 0.0
O421 O 0.52557 0.13026 0.91739 0.0
O422 O 0.51485 0.10219 0.98785 0.0
C423 C 0.6333 0.157 0.95996 0.0
C424 C 0.65582 0.04315 0.84892 0.0
C425 C 0.64403 0.98544 0.78924 0.0
C426 C 0.66687 -0.00451 0.83094 0.0
C427 C 0.67249 0.0241 0.86099 0.0
C428 C 0.63452 0.03413 0.8056 0.0
C429 C 0.62858 0.00544 0.77614 0.0
C430 C 0.65668 0.06898 0.8851 0.0
C431 C 0.57328 0.10696 0.8139 0.0
H432 H 0.52615 0.18398 1.11516 0.0
H433 H 0.49521 0.13284 1.06102 0.0
H434 H 0.55273 0.19401 0.92958 0.0
H435 H 0.58344 0.2452 0.98366 0.0
H436 H 0.67927 0.98053 0.84126 0.0
H437 H 0.68881 0.03061 0.8946 0.0
H438 H 0.62128 0.04837 0.79568 0.0
H439 H 0.61139 -0.00149 0.74345 0.0
Tb440 Tb 0.44213 0.56103 0.26559 0.0
Tb441 Tb 0.51836 0.61951 0.2409 0.0
C442 C 0.49414 0.54811 0.20381 0.0
C443 C 0.35415 0.532 0.31332 0.0
C444 C 0.32755 0.5689 0.3676 0.0
C445 C 0.33464 0.54505 0.39303 0.0
C446 C 0.34796 0.52684 0.3661 0.0
C447 C 0.34207 0.55175 0.28704 0.0
C448 C 0.32916 0.57029 0.31404 0.0
C449 C 0.37826 0.52245 0.28763 0.0
O450 O 0.47267 0.54986 0.32638 0.0
O451 O 0.51945 0.60473 0.32565 0.0
O452 O 0.48825 0.64596 0.23666 0.0
O453 O 0.44904 0.61175 0.29569 0.0
O454 O 0.56799 0.63676 0.21011 0.0
O455 O 0.55787 0.67079 0.25793 0.0
O456 O 0.49462 0.60703 0.15929 0.0
O457 O 0.43818 0.5654 0.17865 0.0
O458 O 0.46098 0.53606 0.21305 0.0
O459 O 0.51686 0.57095 0.23466 0.0
C460 C 0.5024 0.57336 0.34894 0.0
O461 O 0.38984 0.53704 0.24341 0.0
O462 O 0.40352 0.52375 0.31501 0.0
C463 C 0.46541 0.64192 0.27157 0.0
C464 C 0.59953 0.69603 0.19132 0.0
C465 C 0.64268 0.73416 1.10908 0.0
C466 C 0.65619 0.73959 0.15903 0.0
C467 C 0.63476 0.72022 0.19984 0.0
C468 C 0.58485 0.69454 1.14345 0.0
C469 C 0.60625 0.71341 1.10255 0.0
C470 C 0.58043 0.66815 0.2285 0.0
C471 C 0.46207 0.58401 1.1427 0.0
H472 H 0.3338 0.54342 0.43441 0.0
H473 H 0.35636 0.51131 0.38724 0.0
H474 H 0.34551 0.55556 0.24604 0.0
H475 H 0.32358 0.58819 0.29351 0.0
H476 H 0.68389 0.75615 0.16574 0.0
H477 H 0.64634 0.72195 0.23694 0.0
H478 H 0.55753 0.67613 1.13644 0.0
H479 H 0.59457 0.70835 1.06496 0.0
H480 H 0.47392 0.18215 0.28604 0.0
H481 H 0.55274 0.2254 0.40275 0.0
H482 H 0.55908 0.28319 0.38842 0.0
H483 H 0.54231 0.32254 0.34253 0.0
H484 H 0.4637 0.27759 0.22507 0.0
H485 H 0.4582 0.2208 0.23936 0.0
C486 C 0.49284 0.20423 0.30816 0.0
C487 C 0.51295 0.19888 0.34536 0.0
C488 C 0.49675 0.23778 0.29934 0.0
C489 C 0.53707 0.22825 0.37351 0.0
C490 C 0.54076 0.26156 0.3653 0.0
C491 C 0.52399 0.3004 0.31994 0.0
C492 C 0.5034 0.30519 0.2826 0.0
C493 C 0.52076 0.26686 0.3283 0.0
C494 C 0.48003 0.27556 0.25403 0.0
C495 C 0.47674 0.24265 0.2622 0.0
H496 H 0.31555 0.55993 0.66114 0.0
H497 H 0.27113 0.44964 0.68903 0.0
H498 H 0.21297 0.44062 0.67659 0.0
H499 H 0.17325 0.46228 0.65669 0.0
H500 H 0.21412 0.57086 0.62213 0.0
H501 H 0.27378 0.58189 0.63755 0.0
C502 C 0.29318 0.53397 0.66441 0.0
C503 C 0.29868 0.50557 0.67601 0.0
C504 C 0.25857 0.52844 0.65593 0.0
C505 C 0.26869 0.4722 0.67985 0.0
C506 C 0.23494 0.46685 0.67283 0.0
C507 C 0.19502 0.48861 0.65278 0.0
C508 C 0.18846 0.51581 0.63892 0.0
C509 C 0.2294 0.49458 0.66071 0.0
C510 C 0.21778 0.54941 0.63353 0.0
C511 C 0.25216 0.55565 0.64216 0.0
H512 H 0.74858 0.31632 1.01134 0.0
H513 H 0.80779 0.26569 1.04769 0.0
H514 H 0.75813 0.20933 1.02611 0.0
H515 H 0.69807 0.17331 0.99577 0.0
H516 H 0.63642 0.22139 0.96077 0.0
H517 H 0.68577 0.27865 0.98372 0.0
C518 C 0.75064 0.29298 1.01427 0.0
C519 C 0.78259 0.29592 1.03099 0.0
C520 C 0.72118 0.2597 1.00219 0.0
C521 C 0.78404 0.26487 1.03522 0.0
C522 C 0.75545 0.23231 1.0227 0.0
C523 C 0.69518 0.19621 0.99299 0.0
C524 C 0.66301 0.19243 0.97621 0.0
C525 C 0.7239 0.22927 1.006 0.0
C526 C 0.66045 0.22294 0.97346 0.0
C527 C 0.68898 0.25597 0.98633 0.0
H528 H 0.46009 0.66946 0.36578 0.0
H529 H 0.46163 0.6859 0.2032 0.0
H530 H 0.46075 0.74008 0.21789 0.0
H531 H 0.45976 0.78403 0.27652 0.0
H532 H 0.46626 0.77199 0.43881 0.0
H533 H 0.46293 0.71562 0.42477 0.0
C534 C 0.45928 0.68438 0.33354 0.0
C535 C 0.46001 0.67261 0.28318 0.0
C536 C 0.45981 0.71664 0.34224 0.0
C537 C 0.46039 0.69351 0.24228 0.0
C538 C 0.45983 0.7247 0.25065 0.0
C539 C 0.45999 0.76889 0.30889 0.0
C540 C 0.46271 0.78247 0.35891 0.0
C541 C 0.45944 0.73668 0.30039 0.0
C542 C 0.46394 0.76249 0.39995 0.0
C543 C 0.46208 0.73004 0.39189 0.0
H544 H 0.6674 0.43566 0.68947 0.0
H545 H 0.7044 0.54379 0.65364 0.0
H546 H 0.76153 0.55207 0.63195 0.0
H547 H 0.8025 0.52981 0.62271 0.0
H548 H 0.76713 0.42172 0.65467 0.0
H549 H 0.70936 0.41294 0.67754 0.0
C550 C 0.68783 0.46096 0.67657 0.0
C551 C 0.68063 0.48892 0.67336 0.0
C552 C 0.72163 0.46588 0.66342 0.0
C553 C 0.70821 0.52149 0.65675 0.0
C554 C 0.74136 0.52644 0.64422 0.0
C555 C 0.78226 0.50416 0.63483 0.0
C556 C 0.7899 0.47657 0.63703 0.0
C557 C 0.74856 0.49896 0.64743 0.0
C558 C 0.76264 0.44364 0.65248 0.0
C559 C 0.72931 0.43853 0.66581 0.0
H560 H 0.27938 0.80671 1.0111 0.0
H561 H 0.33126 0.75887 0.93354 0.0
H562 H 0.28223 0.70105 0.95398 0.0
H563 H 0.22171 0.66278 0.99087 0.0
H564 H 0.17109 0.71268 1.06679 0.0
H565 H 0.22116 0.76969 1.04904 0.0
C566 C 0.28004 0.78368 0.99832 0.0
C567 C 0.30965 0.78768 0.97099 0.0
C568 C 0.25101 0.7502 1.00898 0.0
C569 C 0.30931 0.75708 0.95488 0.0
C570 C 0.28075 0.72372 0.96594 0.0
C571 C 0.22153 0.68614 1.00298 0.0
C572 C 0.1919 0.68278 1.02983 0.0
C573 C 0.25106 0.71973 0.99252 0.0
C574 C 0.19299 0.71377 1.0462 0.0
C575 C 0.22183 0.74673 1.03591 0.0
H576 H 0.54838 0.24438 1.14423 0.0
H577 H 0.62847 0.25058 1.04237 0.0
H578 H 0.66951 0.2683 1.11259 0.0
H579 H 0.67473 0.26126 0.20475 0.0
H580 H 0.59196 0.24905 0.30621 0.0
H581 H 0.56145 0.25688 0.23567 0.0
C582 C 0.57524 0.25101 1.13713 0.0
C583 C 0.58484 0.24449 1.08871 0.0
C584 C 0.59832 0.25963 0.17834 0.0
C585 C 0.62006 0.2545 1.07951 0.0
C586 C 0.64358 0.26435 1.11995 0.0
C587 C 0.65061 0.26153 0.21172 0.0
C588 C 0.63446 0.25187 0.26016 0.0
C589 C 0.63188 0.26376 0.17009 0.0
C590 C 0.6045 0.25483 0.26915 0.0
C591 C 0.58657 0.25884 0.22842 0.0
H592 H 0.29158 0.56558 0.45469 0.0
H593 H 0.36782 0.63827 0.34813 0.0
H594 H 0.39386 0.68151 0.41548 0.0
H595 H 0.40884 0.68728 0.50705 0.0
H596 H 0.33478 0.61286 0.61385 0.0
H597 H 0.29417 0.58249 0.54485 0.0
C598 C 0.31283 0.59153 0.44583 0.0
C599 C 0.32884 0.59808 0.39741 0.0
C600 C 0.32917 0.61566 0.48546 0.0
C601 C 0.3555 0.63213 0.38556 0.0
C602 C 0.37096 0.65681 0.42437 0.0
C603 C 0.38302 0.66557 0.51547 0.0
C604 C 0.37555 0.65111 0.56486 0.0
C605 C 0.36029 0.64731 0.47516 0.0
C606 C 0.34159 0.62385 0.57582 0.0
C607 C 0.31842 0.60613 0.53619 0.0
H608 H 0.71023 0.38677 0.83356 0.0
H609 H 0.73025 0.3163 0.92091 0.0
H610 H 0.72027 0.27992 0.84593 0.0
H611 H 0.72612 0.28058 0.75266 0.0
H612 H 0.71686 0.35839 0.66561 0.0
H613 H 0.69793 0.37578 0.74199 0.0
C614 C 0.71083 0.3626 0.83648 0.0
C615 C 0.72156 0.35454 0.88233 0.0
C616 C 0.70731 0.34298 0.79233 0.0
C617 C 0.7218 0.32293 0.88612 0.0
C618 C 0.71664 0.30235 0.84286 0.0
C619 C 0.71974 0.30125 0.74999 0.0
C620 C 0.72691 0.32063 0.70437 0.0
C621 C 0.71261 0.31403 0.79501 0.0
C622 C 0.71435 0.34434 0.70057 0.0
C623 C 0.70402 0.35499 0.74451 0.0
H624 H 0.41774 0.71955 1.09551 0.0
H625 H 0.34384 0.72558 0.99562 0.0
H626 H 0.30406 0.71414 1.06673 0.0
H627 H 0.30217 0.72539 0.15884 0.0
H628 H 0.37762 0.72193 0.25902 0.0
H629 H 0.40309 0.70719 0.18684 0.0
C630 C 0.39233 0.71697 1.08886 0.0
C631 C 0.38524 0.72679 1.04122 0.0
C632 C 0.37001 0.71167 1.13062 0.0
C633 C 0.35115 0.72055 1.03249 0.0
C634 C 0.3283 0.71423 1.07342 0.0
C635 C 0.32334 0.72006 0.16514 0.0
C636 C 0.33897 0.72632 0.21356 0.0
C637 C 0.3393 0.71356 1.12321 0.0
C638 C 0.36555 0.71812 0.22182 0.0
C639 C 0.38066 0.71032 0.18044 0.0
H640 H 0.6903 0.41834 0.478 0.0
H641 H 0.61712 0.33253 0.38515 0.0
H642 H 0.59838 0.29414 0.45946 0.0
H643 H 0.58675 0.29331 0.55176 0.0
H644 H 0.65492 0.38263 0.64311 0.0
H645 H 0.6925 0.4099 0.5701 0.0
C646 C 0.6713 0.39086 0.4737 0.0
C647 C 0.65356 0.37877 0.42714 0.0
C648 C 0.65902 0.36952 0.51715 0.0
C649 C 0.63027 0.34282 0.42118 0.0
C650 C 0.61918 0.32088 0.46385 0.0
C651 C 0.61065 0.3181 0.55616 0.0
C652 C 0.61647 0.33704 0.602 0.0
C653 C 0.63072 0.33508 0.51263 0.0
C654 C 0.64882 0.36785 0.60804 0.0
C655 C 0.6702 0.38396 0.56576 0.0
H656 H 0.2558 0.59363 0.80567 0.0
H657 H 0.23686 0.66031 0.90505 0.0
H658 H 0.24693 0.70019 0.83509 0.0
H659 H 0.24064 0.70388 0.743 0.0
H660 H 0.24905 0.63064 0.64298 0.0
H661 H 0.26723 0.60859 0.71416 0.0
C662 C 0.25548 0.61773 0.8122 0.0
C663 C 0.24577 0.6242 0.86044 0.0
C664 C 0.25887 0.63933 0.77076 0.0
C665 C 0.24533 0.6554 0.86869 0.0
C666 C 0.25042 0.67791 0.82825 0.0
C667 C 0.24697 0.68342 0.73642 0.0
C668 C 0.23876 0.66579 0.68912 0.0
C669 C 0.25414 0.6684 0.77846 0.0
C670 C 0.25159 0.64267 0.67992 0.0
C671 C 0.26169 0.62952 0.72085 0.0
H672 H 0.41118 -0.0055 1.05909 0.0
H673 H 0.43292 0.91409 1.10666 0.0
H674 H 0.44881 0.9407 0.19151 0.0
H675 H 0.45875 0.98836 0.25734 0.0
H676 H 0.44144 0.07117 0.20882 0.0
H677 H 0.42293 0.04334 1.12455 0.0
C678 C 0.41957 0.98244 1.08736 0.0
C679 C 0.41994 0.95063 1.07249 0.0
C680 C 0.43063 -0.0006 1.13844 0.0
C681 C 0.43166 0.93765 1.11316 0.0
C682 C 0.44124 0.95342 0.16319 0.0
C683 C 0.45211 0.00135 0.2283 0.0
C684 C 0.45347 0.03393 0.24269 0.0
C685 C 0.44144 0.98471 0.17711 0.0
C686 C 0.44188 0.0472 0.20223 0.0
C687 C 0.43104 0.03084 1.15254 0.0
H688 H 0.4593 0.47055 0.38106 0.0
H689 H 0.46412 0.38354 0.44481 0.0
H690 H 0.44394 0.39365 0.52758 0.0
H691 H 0.4245 0.42773 0.58704 0.0
H692 H 0.42639 0.51889 0.52572 0.0
H693 H 0.4435 0.5069 0.44191 0.0
C694 C 0.45684 0.45392 0.41292 0.0
C695 C 0.46489 0.42607 0.40341 0.0
C696 C 0.44561 0.46073 0.4633 0.0
C697 C 0.45919 0.40516 0.44767 0.0
C698 C 0.44739 0.41116 0.4964 0.0
C699 C 0.42861 0.44541 0.55581 0.0
C700 C 0.42293 0.47477 0.5662 0.0
C701 C 0.44043 0.43897 0.50567 0.0
C702 C 0.42969 0.49628 0.52233 0.0
C703 C 0.43979 0.48923 0.47298 0.0
H704 H -0.01319 0.47048 0.73412 0.0
H705 H 0.0436 0.41701 0.76352 0.0
H706 H 0.01244 0.39619 0.84547 0.0
H707 H 0.9682 0.39275 0.9144 0.0
H708 H 0.91393 0.4493 0.88535 0.0
H709 H 0.94381 0.46814 0.80279 0.0
C710 C -0.00633 0.45536 0.75868 0.0
C711 C 0.01992 0.4472 0.73958 0.0
C712 C 0.97511 0.44321 0.80836 0.0
C713 C 0.02481 0.42498 0.77386 0.0
C714 C 0.00654 0.41281 0.82223 0.0
C715 C 0.96258 0.40935 0.89068 0.0
C716 C 0.93709 0.41873 0.91001 0.0
C717 C 0.98142 0.42162 0.84096 0.0
C718 C 0.93227 0.44072 0.87519 0.0
C719 C 0.95001 0.45203 0.82658 0.0
H720 H 0.51299 0.91801 0.18302 0.0
H721 H 0.5144 -0.00717 0.29023 0.0
H722 H 0.5324 0.03609 0.22143 0.0
H723 H 0.54638 0.05485 1.12693 0.0
H724 H 0.55001 0.98177 1.02122 0.0
H725 H 0.53138 0.93827 1.08973 0.0
C726 C 0.51713 0.94369 0.19225 0.0
C727 C 0.51085 0.95021 0.24511 0.0
C728 C 0.52824 0.96995 1.15057 0.0
C729 C 0.51775 0.98501 0.25224 0.0
C730 C 0.52836 0.0105 0.21174 0.0
C731 C 0.54326 0.02952 1.11797 0.0
C732 C 0.55008 0.02325 1.06528 0.0
C733 C 0.53328 0.00364 0.15994 0.0
C734 C 0.54555 0.9892 1.05884 0.0
C735 C 0.53462 0.96358 1.09919 0.0
H736 H 0.55566 0.56745 0.58777 0.0
H737 H 0.54517 0.47057 0.5335 0.0
H738 H 0.52892 0.48134 0.44918 0.0
H739 H 0.51541 0.51755 0.38568 0.0
H740 H 0.5222 0.61249 0.44042 0.0
H741 H 0.54081 0.60311 0.5244 0.0
C742 C 0.54965 0.54814 0.55812 0.0
C743 C 0.55252 0.51742 0.57098 0.0
C744 C 0.53852 0.55406 0.50724 0.0
C745 C 0.54384 0.49418 0.5286 0.0
C746 C 0.5341 0.50044 0.47883 0.0
C747 C 0.51982 0.536 0.41594 0.0
C748 C 0.51539 0.56575 0.4034 0.0
C749 C 0.53075 0.53007 0.46684 0.0
C750 C 0.52418 0.58924 0.44549 0.0
C751 C 0.53507 0.58367 0.49502 0.0
H752 H 0.06322 0.55685 0.85276 0.0
H753 H -0.00738 0.56867 0.95444 0.0
H754 H 0.95068 0.55304 0.88456 0.0
H755 H 0.93097 0.53485 0.7914 0.0
H756 H 0.00386 0.52892 0.68745 0.0
H757 H 0.04546 0.5434 0.75772 0.0
C758 C 0.0388 0.55624 0.86052 0.0
C759 C 0.03272 0.56442 0.9126 0.0
C760 C 0.01392 0.54804 0.81764 0.0
C761 C -0.00011 0.5631 0.91742 0.0
C762 C 0.97516 0.55388 0.87627 0.0
C763 C 0.95592 0.53673 0.78317 0.0
C764 C 0.96231 0.5294 0.73083 0.0
C765 C 0.98134 0.54616 0.82556 0.0
C766 C -0.00379 0.53338 0.72494 0.0
C767 C 0.02071 0.54187 0.76634 0.0
H768 H 0.52886 0.05268 0.50987 0.0
H769 H 0.41673 0.00132 0.51392 0.0
H770 H 0.41536 0.95632 0.56887 0.0
H771 H 0.43792 0.92619 0.51188 0.0
H772 H 0.54795 0.97793 0.47744 0.0
H773 H 0.55832 0.02099 0.54327 0.0
C774 C 0.50406 0.03182 0.5241 0.0
C775 C 0.47296 0.02656 0.50179 0.0
C776 C 0.50331 0.00387 0.55019 0.0
C777 C 0.44112 0.00319 0.52549 0.0
C778 C 0.44062 0.97794 0.55789 0.0
C779 C 0.46447 0.94642 0.52015 0.0
C780 C 0.49136 0.95227 0.48549 0.0
C781 C 0.46975 0.97337 0.55366 0.0
C782 C 0.52605 0.97541 0.49975 0.0
C783 C 0.5319 -0.00045 0.53837 0.0
H784 H 0.46845 0.52934 0.84912 0.0
H785 H 0.3982 0.4258 0.79412 0.0
H786 H 0.42088 0.40195 0.85598 0.0
H787 H 0.48324 0.42817 0.8202 0.0
H788 H 0.5562 0.53449 0.86071 0.0
H789 H 0.51283 0.53552 0.91724 0.0
C790 C 0.45689 0.50124 0.85247 0.0
C791 C 0.43587 0.47994 0.8126 0.0
C792 C 0.4718 0.48737 0.88583 0.0
C793 C 0.41783 0.44351 0.82034 0.0
C794 C 0.43044 0.42978 0.85688 0.0
C795 C 0.48997 0.45131 0.84286 0.0
C796 C 0.51976 0.48289 0.82975 0.0
C797 C 0.46427 0.45286 0.87319 0.0
C798 C 0.53091 0.51113 0.86429 0.0
C799 C 0.50636 0.51131 0.89791 0.0
H800 H 0.92665 0.48183 0.17829 0.0
H801 H 0.9644 0.41013 0.15466 0.0
H802 H 0.0095 0.44095 0.21666 0.0
H803 H 0.04771 0.49581 0.16897 0.0
H804 H 0.00824 0.56619 1.14597 0.0
H805 H 0.96775 0.53944 0.21558 0.0
C806 C 0.94479 0.47281 0.18764 0.0
C807 C 0.94547 0.44717 0.1567 0.0
C808 C 0.97543 0.495 0.21452 0.0
C809 C 0.96516 0.43208 0.17371 0.0
C810 C -0.00884 0.45005 0.20982 0.0
C811 C 0.03041 0.50559 0.18018 0.0
C812 C 0.0283 0.53008 1.14868 0.0
C813 C 0.00206 0.48554 0.21295 0.0
C814 C 0.00909 0.54563 0.16667 0.0
C815 C 0.98572 0.53004 0.2071 0.0
H816 H 0.04095 0.50507 0.4555 0.0
H817 H 0.97535 0.39966 0.50654 0.0
H818 H 0.93009 0.39423 0.44812 0.0
H819 H 0.91734 0.43946 0.48778 0.0
H820 H 0.98485 0.54756 0.44985 0.0
H821 H 0.01718 0.53058 0.39105 0.0
C822 C 0.01788 0.47994 0.4509 0.0
C823 C 0.00958 0.45458 0.48895 0.0
C824 C -0.00884 0.47765 0.41963 0.0
C825 C 0.98072 0.42116 0.48131 0.0
C826 C 0.95522 0.418 0.44694 0.0
C827 C 0.93825 0.4593 0.46466 0.0
C828 C 0.95215 0.49463 0.47776 0.0
C829 C 0.95755 0.44961 0.43262 0.0
C830 C 0.97645 0.52019 0.44455 0.0
C831 C -0.00589 0.5102 0.40992 0.0
H832 H 0.4699 0.92631 0.80368 0.0
H833 H 0.41155 0.98013 0.79347 0.0
H834 H 0.45432 0.02066 0.73221 0.0
H835 H 0.50601 0.04988 0.79279 0.0
H836 H 0.56192 -0.00433 0.82659 0.0
H837 H 0.52941 0.95345 0.76018 0.0
C838 C 0.46613 0.94656 0.78664 0.0
C839 C 0.44169 0.95432 0.80873 0.0
C840 C 0.49239 0.97172 0.7551 0.0
C841 C 0.43331 0.97674 0.78205 0.0
C842 C 0.45742 -0.00073 0.74601 0.0
C843 C 0.51221 0.02955 0.78395 0.0
C844 C 0.53257 0.02305 0.81853 0.0
C845 C 0.49071 0.00294 0.74982 0.0
C846 C 0.54348 -0.00077 0.804 0.0
C847 C 0.5251 0.97537 0.76529 0.0
H848 H 0.45313 0.51288 1.12325 0.0
H849 H 0.56075 0.58286 0.15955 0.0
H850 H 0.57809 0.55221 1.09961 0.0
H851 H 0.55569 0.49587 1.14813 0.0
H852 H 0.44492 0.42477 1.14938 0.0
H853 H 0.43816 0.45671 1.07915 0.0
C854 C 0.48066 0.5219 1.1167 0.0
C855 C 0.50516 0.54588 1.15125 0.0
C856 C 0.49016 0.50026 1.08985 0.0
C857 C 0.54074 0.56137 1.13793 0.0
C858 C 0.5505 0.54369 1.10309 0.0
C859 C 0.52998 0.48707 1.1321 0.0
C860 C 0.50039 0.46183 0.15866 0.0
C861 C 0.52552 0.50845 1.09691 0.0
C862 C 0.46785 0.44719 1.13401 0.0
C863 C 0.46431 0.46515 1.09285 0.0
H864 H 0.24414 0.92541 0.69204 0.0
H865 H 0.2901 0.01255 0.79635 0.0
H866 H 0.30243 0.05291 0.72565 0.0
H867 H 0.31257 0.06356 0.63338 0.0
H868 H 0.27078 0.97644 0.52894 0.0
H869 H 0.24367 0.93605 0.60004 0.0
C870 C 0.25593 0.95318 0.69929 0.0
C871 C 0.2669 0.9661 0.74893 0.0
C872 C 0.26416 0.9763 0.65824 0.0
C873 C 0.28152 0.002 0.75834 0.0
C874 C 0.28893 0.02514 0.71784 0.0
C875 C 0.29666 0.03579 0.62624 0.0
C876 C 0.29427 0.02289 0.57638 0.0
C877 C 0.28229 0.01266 0.66745 0.0
C878 C 0.27308 0.98698 0.56712 0.0
C879 C 0.25788 0.96382 0.60783 0.0
H880 H 0.28251 0.27657 1.0891 0.0
H881 H 0.34051 0.23446 1.01288 0.0
H882 H 0.32192 0.24453 0.92987 0.0
H883 H 0.30294 0.27965 0.88124 0.0
H884 H 0.24924 0.32566 0.95921 0.0
H885 H 0.25185 0.29908 1.03955 0.0
C886 C 0.28983 0.26797 1.05463 0.0
C887 C 0.31381 0.25581 1.05713 0.0
C888 C 0.28052 0.27545 1.00728 0.0
C889 C 0.32278 0.24473 1.01186 0.0
C890 C 0.31238 0.25075 0.96439 0.0
C891 C 0.29064 0.28271 0.91544 0.0
C892 C 0.27666 0.30517 0.91488 0.0
C893 C 0.29342 0.26843 0.96178 0.0
C894 C 0.26079 0.30902 0.95926 0.0
C895 C 0.26231 0.29387 1.0051 0.0
H896 H 0.98335 0.27187 0.21952 0.0
H897 H 0.8864 0.23126 0.30372 0.0
H898 H 0.91808 0.24215 0.3842 0.0
H899 H 0.974 0.27642 0.42893 0.0
H900 H 0.07051 0.32006 0.34325 0.0
H901 H 0.03817 0.29399 0.26474 0.0
C902 C 0.96876 0.26382 0.25517 0.0
C903 C 0.9326 0.25165 0.2556 0.0
C904 C -0.01275 0.27146 0.3011 0.0
C905 C 0.91436 0.24148 0.30243 0.0
C906 C 0.9325 0.24789 0.34846 0.0
C907 C -0.01203 0.27907 0.3934 0.0
C908 C 0.02446 0.30069 0.39144 0.0
C909 C 0.96912 0.26501 0.34818 0.0
C910 C 0.04233 0.30405 0.34527 0.0
C911 C 0.02386 0.2892 0.30045 0.0
H912 H 0.68951 0.97128 0.73891 0.0
H913 H 0.57999 0.93067 0.77019 0.0
H914 H 0.56462 0.8884 0.70101 0.0
H915 H 0.58222 0.87472 0.62042 0.0
H916 H 0.69153 0.91798 0.58366 0.0
H917 H 0.70721 0.94657 0.66725 0.0
C918 C 0.66239 0.95225 0.73158 0.0
C919 C 0.63583 0.95433 0.75846 0.0
C920 C 0.65376 0.92889 0.69045 0.0
C921 C 0.60073 0.9297 0.74911 0.0
C922 C 0.59197 0.90563 0.70959 0.0
C923 C 0.6095 0.88895 0.63125 0.0
C924 C 0.6357 0.89523 0.59498 0.0
C925 C 0.61825 0.90656 0.67811 0.0
C926 C 0.67085 0.91361 0.61034 0.0
C927 C 0.67984 0.93019 0.65799 0.0
H928 H 0.6348 0.75231 1.01187 0.0
H929 H 0.70317 0.73126 1.10388 0.0
H930 H 0.72575 0.71796 1.02773 0.0
H931 H 0.71393 0.6962 0.93966 0.0
H932 H 0.64058 0.71015 0.84905 0.0
H933 H 0.63193 0.74171 0.91934 0.0
C934 C 0.65523 0.7456 1.01515 0.0
C935 C 0.66602 0.74141 1.06389 0.0
C936 C 0.66646 0.73548 0.97132 0.0
C937 C 0.69377 0.73436 1.06723 0.0
C938 C 0.70643 0.72608 1.02354 0.0
C939 C 0.69674 0.70696 0.93503 0.0
C940 C 0.67727 0.7002 0.89003 0.0
C941 C 0.69098 0.72394 0.97611 0.0
C942 C 0.65566 0.71485 0.88366 0.0
C943 C 0.65054 0.73271 0.92395 0.0
H944 H 0.00543 0.72072 0.22487 0.0
H945 H 0.10412 0.75843 0.30148 0.0
H946 H 0.07509 0.75059 0.38427 0.0
H947 H 0.02026 0.71775 0.43276 0.0
H948 H 0.92175 0.67658 0.35469 0.0
H949 H 0.95229 0.70185 0.27431 0.0
C950 C 0.02107 0.72889 0.25932 0.0
C951 C 0.05674 0.73895 0.25704 0.0
C952 C 0.00399 0.72282 0.30663 0.0
C953 C 0.07641 0.74961 0.30232 0.0
C954 C 0.05978 0.74491 0.34969 0.0
C955 C 0.00549 0.71557 0.39859 0.0
C956 C 0.9689 0.6946 0.3991 0.0
C957 C 0.02326 0.72906 0.35222 0.0
C958 C 0.95001 0.69198 0.35471 0.0
C959 C 0.96745 0.70636 0.30881 0.0
H960 H 0.56702 0.10994 0.55795 0.0
H961 H 0.47308 0.11401 0.58797 0.0
H962 H 0.48327 0.11411 0.68036 0.0
H963 H 0.51865 0.11257 0.75749 0.0
H964 H 0.61083 0.10534 0.7268 0.0
H965 H 0.6014 0.10686 0.63463 0.0
C966 C 0.54844 0.11104 0.58405 0.0
C967 C 0.51881 0.11242 0.56189 0.0
C968 C 0.55433 0.11049 0.63964 0.0
C969 C 0.49612 0.11331 0.6001 0.0
C970 C 0.50208 0.11326 0.65444 0.0
C971 C 0.53723 0.11159 0.73125 0.0
C972 C 0.56645 0.10931 0.75322 0.0
C973 C 0.53113 0.11188 0.6756 0.0
C974 C 0.58855 0.1075 0.71484 0.0
C975 C 0.58293 0.10828 0.66062 0.0
H976 H 0.4523 0.57829 0.88684 0.0
H977 H 0.359 0.48025 0.91571 0.0
H978 H 0.36873 0.49031 1.00823 0.0
H979 H 0.40393 0.52692 1.0859 0.0
H980 H 0.49936 0.62292 1.05616 0.0
H981 H 0.48855 0.61358 0.96396 0.0
C982 C 0.43356 0.55881 0.91274 0.0
C983 C 0.40393 0.52809 0.89024 0.0
C984 C 0.43992 0.56458 0.96841 0.0
C985 C 0.38164 0.50415 0.92816 0.0
C986 C 0.38743 0.51006 0.98256 0.0
C987 C 0.42263 0.54632 1.05987 0.0
C988 C 0.45292 0.57661 1.0821 0.0
C989 C 0.41646 0.54022 1.00411 0.0
C990 C 0.47586 0.59973 1.04396 0.0
C991 C 0.46954 0.5942 0.98972 0.0
H992 H 0.8664 0.45724 0.22611 0.0
H993 H 0.86818 0.36305 0.26137 0.0
H994 H 0.86785 0.37521 0.35298 0.0
H995 H 0.86698 0.41235 0.42767 0.0
H996 H 0.87172 0.50981 0.39337 0.0
H997 H 0.86924 0.4965 0.30152 0.0
C998 C 0.86652 0.43888 0.25327 0.0
C999 C 0.8667 0.40811 0.23291 0.0
C1000 C 0.86742 0.44682 0.30855 0.0
C1001 C 0.86763 0.38643 0.27226 0.0
C1002 C 0.86748 0.3936 0.3261 0.0
C1003 C 0.86752 0.43117 0.40077 0.0
C1004 C 0.86928 0.46276 0.42149 0.0
C1005 C 0.86733 0.42369 0.34558 0.0
C1006 C 0.87009 0.48543 0.38229 0.0
C1007 C 0.86877 0.47764 0.3283 0.0
H1008 H 0.39626 0.86659 0.55621 0.0
H1009 H 0.49558 0.87368 0.58503 0.0
H1010 H 0.48505 0.87316 0.67725 0.0
H1011 H 0.44811 0.87083 0.75445 0.0
H1012 H 0.351 0.8687 0.72727 0.0
H1013 H 0.36019 0.86701 0.63452 0.0
C1014 C 0.41589 0.86779 0.58206 0.0
C1015 C 0.44724 0.86964 0.55953 0.0
C1016 C 0.40988 0.86837 0.63791 0.0
C1017 C 0.47126 0.87184 0.59743 0.0
C1018 C 0.46511 0.87161 0.6517 0.0
C1019 C 0.42846 0.86992 0.72894 0.0
C1020 C 0.39801 0.86955 0.75198 0.0
C1021 C 0.43454 0.86986 0.67327 0.0
C1022 C 0.37437 0.86871 0.71445 0.0
C1023 C 0.37986 0.86783 0.65991 0.0
H1024 H 0.61145 0.49377 0.93421 0.0
H1025 H 0.52315 0.40813 0.86072 0.0
H1026 H 0.49726 0.38438 0.94369 0.0
H1027 H 0.49713 0.38541 1.04165 0.0
H1028 H 0.58904 0.46552 1.11598 0.0
H1029 H 0.61386 0.49159 1.0329 0.0
C1030 C 0.58655 0.46983 0.93543 0.0
C1031 C 0.57001 0.45409 0.88686 0.0
C1032 C 0.57141 0.45422 0.98608 0.0
C1033 C 0.53772 0.42239 0.89408 0.0
C1034 C 0.52232 0.40819 0.94303 0.0
C1035 C 0.52276 0.40848 1.04059 0.0
C1036 C 0.54007 0.42268 1.08914 0.0
C1037 C 0.53853 0.42347 0.99016 0.0
C1038 C 0.57374 0.45277 1.08236 0.0
C1039 C 0.58842 0.46825 1.03342 0.0
H1040 H 0.10746 0.48869 0.3782 0.0
H1041 H 0.10262 0.57321 0.4535 0.0
H1042 H 0.10214 0.59804 0.37126 0.0
H1043 H 0.10254 0.59835 0.27342 0.0
H1044 H 0.11352 0.51801 0.19657 0.0
H1045 H 0.11218 0.49144 0.2791 0.0
C1046 C 0.1066 0.51273 0.37762 0.0
C1047 C 0.10507 0.5279 0.42673 0.0
C1048 C 0.10732 0.52874 0.32718 0.0
C1049 C 0.10406 0.55952 0.41998 0.0
C1050 C 0.10362 0.57431 0.37135 0.0
C1051 C 0.1049 0.57512 0.27375 0.0
C1052 C 0.10809 0.56123 0.22463 0.0
C1053 C 0.10521 0.55958 0.32383 0.0
C1054 C 0.11114 0.53073 0.23061 0.0
C1055 C 0.11028 0.51494 0.27927 0.0
loop_
_geom_bond_atom_site_label_1
_geom_bond_atom_site_label_2
_geom_bond_distance
_geom_bond_site_symmetry_2
_ccdc_geom_bond_type
Tb0 C9 2.764 . S
Tb0 O10 2.325 . S
Tb0 O13 2.303 . S
Tb0 O17 2.322 . S
Tb0 O18 2.349 . S
Tb0 O21 2.415 . S
Tb0 O22 2.399 . S
Tb1 O11 2.322 . S
Tb1 O12 2.349 . S
Tb1 O14 2.415 . S
Tb1 O15 2.399 . S
Tb1 O16 2.325 . S
Tb1 O19 2.303 . S
Tb1 C30 2.764 . S
C2 O18 1.261 . S
C2 O19 1.257 . S
C3 C6 1.358 . S
C3 C7 1.332 . S
C3 C9 1.504 . S
C4 C5 1.373 . S
C4 C8 1.308 . S
C5 C4 1.373 . S
C5 C6 1.429 . S
C5 H32 0.932 . S
C6 C3 1.358 . S
C6 C5 1.429 . S
C6 H33 0.930 . S
C7 C3 1.332 . S
C7 C8 1.394 . S
C7 H34 0.932 . S
C8 C4 1.308 . S
C8 C7 1.394 . S
C8 H35 0.929 . S
C9 Tb0 2.764 . S
C9 C3 1.504 . S
C9 O21 1.239 . S
C9 O22 1.263 . S
O10 Tb0 2.325 . S
O10 C20 1.236 . S
O11 Tb1 2.322 . S
O11 C20 1.257 . S
O12 Tb1 2.349 . S
O12 C23 1.261 . S
O13 Tb0 2.303 . S
O13 C23 1.257 . S
O14 Tb1 2.415 . S
O14 C30 1.239 . S
O15 Tb1 2.399 . S
O15 C30 1.263 . S
O16 Tb1 2.325 . S
O16 C31 1.236 . S
O17 Tb0 2.322 . S
O17 C31 1.257 . S
O18 Tb0 2.349 . S
O18 C2 1.261 . S
O19 Tb1 2.303 . S
O19 C2 1.257 . S
C20 O10 1.236 . S
C20 O11 1.257 . S
O21 Tb0 2.415 . S
O21 C9 1.239 . S
O22 Tb0 2.399 . S
O22 C9 1.263 . S
C23 O12 1.261 . S
C23 O13 1.257 . S
C24 C27 1.358 . S
C24 C28 1.332 . S
C24 C30 1.504 . S
C25 C26 1.373 . S
C25 C29 1.308 . S
C26 C25 1.373 . S
C26 C27 1.429 . S
C26 H36 0.932 . S
C27 C24 1.358 . S
C27 C26 1.429 . S
C27 H37 0.930 . S
C28 C24 1.332 . S
C28 C29 1.394 . S
C28 H38 0.932 . S
C29 C25 1.308 . S
C29 C28 1.394 . S
C29 H39 0.929 . S
C30 Tb1 2.764 . S
C30 O14 1.239 . S
C30 O15 1.263 . S
C30 C24 1.504 . S
C31 O16 1.236 . S
C31 O17 1.257 . S
H32 C5 0.932 . S
H33 C6 0.930 . S
H34 C7 0.932 . S
H35 C8 0.929 . S
H36 C26 0.932 . S
H37 C27 0.930 . S
H38 C28 0.932 . S
H39 C29 0.929 . S
Tb40 C49 2.764 . S
Tb40 O50 2.325 . S
Tb40 O53 2.303 . S
Tb40 O57 2.322 . S
Tb40 O58 2.349 . S
Tb40 O61 2.415 . S
Tb40 O62 2.399 . S
Tb41 O51 2.322 . S
Tb41 O52 2.349 . S
Tb41 O54 2.415 . S
Tb41 O55 2.399 . S
Tb41 O56 2.325 . S
Tb41 O59 2.303 . S
Tb41 C70 2.764 . S
C42 O58 1.261 . S
C42 O59 1.257 . S
C43 C46 1.358 . S
C43 C47 1.332 . S
C43 C49 1.504 . S
C44 C45 1.373 . S
C44 C48 1.308 . S
C45 C44 1.373 . S
C45 C46 1.429 . S
C45 H72 0.932 . S
C46 C43 1.358 . S
C46 C45 1.429 . S
C46 H73 0.930 . S
C47 C43 1.332 . S
C47 C48 1.394 . S
C47 H74 0.932 . S
C48 C44 1.308 . S
C48 C47 1.394 . S
C48 H75 0.929 . S
C49 Tb40 2.764 . S
C49 C43 1.504 . S
C49 O61 1.239 . S
C49 O62 1.263 . S
O50 Tb40 2.325 . S
O50 C60 1.236 . S
O51 Tb41 2.322 . S
O51 C60 1.257 . S
O52 Tb41 2.349 . S
O52 C63 1.261 . S
O53 Tb40 2.303 . S
O53 C63 1.257 . S
O54 Tb41 2.415 . S
O54 C70 1.239 . S
O55 Tb41 2.399 . S
O55 C70 1.263 . S
O56 Tb41 2.325 . S
O56 C71 1.236 . S
O57 Tb40 2.322 . S
O57 C71 1.257 . S
O58 Tb40 2.349 . S
O58 C42 1.261 . S
O59 Tb41 2.303 . S
O59 C42 1.257 . S
C60 O50 1.236 . S
C60 O51 1.257 . S
O61 Tb40 2.415 . S
O61 C49 1.239 . S
O62 Tb40 2.399 . S
O62 C49 1.263 . S
C63 O52 1.261 . S
C63 O53 1.257 . S
C64 C67 1.358 . S
C64 C68 1.332 . S
C64 C70 1.504 . S
C65 C66 1.373 . S
C65 C69 1.308 . S
C66 C65 1.373 . S
C66 C67 1.429 . S
C66 H76 0.932 . S
C67 C64 1.358 . S
C67 C66 1.429 . S
C67 H77 0.930 . S
C68 C64 1.332 . S
C68 C69 1.394 . S
C68 H78 0.932 . S
C69 C65 1.308 . S
C69 C68 1.394 . S
C69 H79 0.929 . S
C70 Tb41 2.764 . S
C70 O54 1.239 . S
C70 O55 1.263 . S
C70 C64 1.504 . S
C71 O56 1.236 . S
C71 O57 1.257 . S
H72 C45 0.932 . S
H73 C46 0.930 . S
H74 C47 0.932 . S
H75 C48 0.929 . S
H76 C66 0.932 . S
H77 C67 0.930 . S
H78 C68 0.932 . S
H79 C69 0.929 . S
Tb80 C89 2.764 . S
Tb80 O90 2.325 . S
Tb80 O93 2.303 . S
Tb80 O97 2.322 . S
Tb80 O98 2.349 . S
Tb80 O101 2.415 . S
Tb80 O102 2.399 . S
Tb81 O91 2.322 . S
Tb81 O92 2.349 . S
Tb81 O94 2.415 1_556 S
Tb81 O95 2.412 . S
Tb81 O96 2.325 . S
Tb81 O99 2.303 . S
Tb81 C110 2.764 1_556 S
C82 O98 1.261 . S
C82 O99 1.257 . S
C83 C86 1.358 . S
C83 C87 1.332 . S
C83 C89 1.504 . S
C84 C85 1.373 . S
C84 C88 1.308 . S
C85 C84 1.373 . S
C85 C86 1.429 . S
C85 H112 0.932 . S
C86 C83 1.358 . S
C86 C85 1.429 . S
C86 H113 0.930 . S
C87 C83 1.332 . S
C87 C88 1.394 . S
C87 H114 0.932 . S
C88 C84 1.308 . S
C88 C87 1.394 . S
C88 H115 0.929 . S
C89 Tb80 2.764 . S
C89 C83 1.504 . S
C89 O101 1.239 . S
C89 O102 1.263 . S
O90 Tb80 2.325 . S
O90 C100 1.236 . S
O91 Tb81 2.322 . S
O91 C100 1.257 . S
O92 Tb81 2.349 . S
O92 C103 1.261 . S
O93 Tb80 2.303 . S
O93 C103 1.257 . S
O94 Tb81 2.415 1_554 S
O94 C110 1.239 . S
O95 Tb81 2.412 . S
O95 C110 1.255 1_556 S
O96 Tb81 2.325 . S
O96 C111 1.236 . S
O97 Tb80 2.322 . S
O97 C111 1.257 . S
O98 Tb80 2.349 . S
O98 C82 1.261 . S
O99 Tb81 2.303 . S
O99 C82 1.257 . S
C100 O90 1.236 . S
C100 O91 1.257 . S
O101 Tb80 2.415 . S
O101 C89 1.239 . S
O102 Tb80 2.399 . S
O102 C89 1.263 . S
C103 O92 1.261 . S
C103 O93 1.257 . S
C104 C107 1.358 . S
C104 C108 1.332 . S
C104 C110 1.504 . S
C105 C106 1.373 . S
C105 C109 1.308 . S
C106 C105 1.373 . S
C106 C107 1.429 . S
C106 H116 0.932 . S
C107 C104 1.358 . S
C107 C106 1.429 . S
C107 H117 0.930 . S
C108 C104 1.332 . S
C108 C109 1.394 . S
C108 H118 0.932 . S
C109 C105 1.308 . S
C109 C108 1.394 . S
C109 H119 0.929 . S
C110 Tb81 2.764 1_554 S
C110 O94 1.239 . S
C110 O95 1.255 1_554 S
C110 C104 1.504 . S
C111 O96 1.236 . S
C111 O97 1.257 . S
H112 C85 0.932 . S
H113 C86 0.930 . S
H114 C87 0.932 . S
H115 C88 0.929 . S
H116 C106 0.932 . S
H117 C107 0.930 . S
H118 C108 0.932 . S
H119 C109 0.929 . S
Tb120 C129 2.764 . S
Tb120 O130 2.325 . S
Tb120 O133 2.303 . S
Tb120 O137 2.322 . S
Tb120 O138 2.349 . S
Tb120 O141 2.415 . S
Tb120 O142 2.399 . S
Tb121 O131 2.322 . S
Tb121 O132 2.349 . S
Tb121 O134 2.415 . S
Tb121 O135 2.399 . S
Tb121 O136 2.325 . S
Tb121 O139 2.303 . S
Tb121 C150 2.764 . S
C122 O138 1.261 . S
C122 O139 1.257 . S
C123 C126 1.358 . S
C123 C127 1.332 . S
C123 C129 1.504 . S
C124 C125 1.373 . S
C124 C128 1.308 . S
C125 C124 1.373 . S
C125 C126 1.429 . S
C125 H152 0.932 . S
C126 C123 1.358 . S
C126 C125 1.429 . S
C126 H153 0.930 . S
C127 C123 1.332 . S
C127 C128 1.394 . S
C127 H154 0.932 . S
C128 C124 1.308 . S
C128 C127 1.394 . S
C128 H155 0.929 . S
C129 Tb120 2.764 . S
C129 C123 1.504 . S
C129 O141 1.239 . S
C129 O142 1.263 . S
O130 Tb120 2.325 . S
O130 C140 1.236 . S
O131 Tb121 2.322 . S
O131 C140 1.257 . S
O132 Tb121 2.349 . S
O132 C143 1.261 . S
O133 Tb120 2.303 . S
O133 C143 1.257 . S
O134 Tb121 2.415 . S
O134 C150 1.239 . S
O135 Tb121 2.399 . S
O135 C150 1.263 . S
O136 Tb121 2.325 . S
O136 C151 1.236 . S
O137 Tb120 2.322 . S
O137 C151 1.257 . S
O138 Tb120 2.349 . S
O138 C122 1.261 . S
O139 Tb121 2.303 . S
O139 C122 1.257 . S
C140 O130 1.236 . S
C140 O131 1.257 . S
O141 Tb120 2.415 . S
O141 C129 1.239 . S
O142 Tb120 2.399 . S
O142 C129 1.263 . S
C143 O132 1.261 . S
C143 O133 1.257 . S
C144 C147 1.358 . S
C144 C148 1.332 . S
C144 C150 1.504 . S
C145 C146 1.373 . S
C145 C149 1.308 . S
C146 C145 1.373 . S
C146 C147 1.429 . S
C146 H156 0.932 . S
C147 C144 1.358 . S
C147 C146 1.429 . S
C147 H157 0.930 . S
C148 C144 1.332 . S
C148 C149 1.394 . S
C148 H158 0.932 . S
C149 C145 1.308 . S
C149 C148 1.394 . S
C149 H159 0.929 . S
C150 Tb121 2.764 . S
C150 O134 1.239 . S
C150 O135 1.263 . S
C150 C144 1.504 . S
C151 O136 1.236 . S
C151 O137 1.257 . S
H152 C125 0.932 . S
H153 C126 0.930 . S
H154 C127 0.932 . S
H155 C128 0.929 . S
H156 C146 0.932 . S
H157 C147 0.930 . S
H158 C148 0.932 . S
H159 C149 0.929 . S
Tb160 C169 2.764 . S
Tb160 O170 2.325 . S
Tb160 O173 2.303 . S
Tb160 O177 2.322 . S
Tb160 O178 2.349 . S
Tb160 O181 2.415 . S
Tb160 O182 2.399 . S
Tb161 O171 2.322 . S
Tb161 O172 2.349 . S
Tb161 O174 2.415 . S
Tb161 O175 2.399 . S
Tb161 O176 2.325 . S
Tb161 O179 2.303 . S
Tb161 C190 2.764 . S
C162 O178 1.261 . S
C162 O179 1.257 . S
C163 C166 1.358 . S
C163 C167 1.332 . S
C163 C169 1.504 . S
C164 C165 1.373 . S
C164 C168 1.308 . S
C165 C164 1.373 . S
C165 C166 1.429 . S
C165 H192 0.932 . S
C166 C163 1.358 . S
C166 C165 1.429 . S
C166 H193 0.930 . S
C167 C163 1.332 . S
C167 C168 1.394 . S
C167 H194 0.932 . S
C168 C164 1.308 . S
C168 C167 1.394 . S
C168 H195 0.929 . S
C169 Tb160 2.764 . S
C169 C163 1.504 . S
C169 O181 1.239 . S
C169 O182 1.263 . S
O170 Tb160 2.325 . S
O170 C180 1.236 . S
O171 Tb161 2.322 . S
O171 C180 1.257 . S
O172 Tb161 2.349 . S
O172 C183 1.261 . S
O173 Tb160 2.303 . S
O173 C183 1.257 . S
O174 Tb161 2.415 . S
O174 C190 1.239 . S
O175 Tb161 2.399 . S
O175 C190 1.263 . S
O176 Tb161 2.325 . S
O176 C191 1.236 . S
O177 Tb160 2.322 . S
O177 C191 1.257 . S
O178 Tb160 2.349 . S
O178 C162 1.261 . S
O179 Tb161 2.303 . S
O179 C162 1.257 . S
C180 O170 1.236 . S
C180 O171 1.257 . S
O181 Tb160 2.415 . S
O181 C169 1.239 . S
O182 Tb160 2.399 . S
O182 C169 1.263 . S
C183 O172 1.261 . S
C183 O173 1.257 . S
C184 C187 1.358 . S
C184 C188 1.332 . S
C184 C190 1.504 . S
C185 C186 1.373 . S
C185 C189 1.308 . S
C186 C185 1.373 . S
C186 C187 1.429 . S
C186 H196 0.932 . S
C187 C184 1.358 . S
C187 C186 1.429 . S
C187 H197 0.930 . S
C188 C184 1.332 . S
C188 C189 1.394 . S
C188 H198 0.932 . S
C189 C185 1.308 . S
C189 C188 1.394 . S
C189 H199 0.929 . S
C190 Tb161 2.764 . S
C190 O174 1.239 . S
C190 O175 1.263 . S
C190 C184 1.504 . S
C191 O176 1.236 . S
C191 O177 1.257 . S
H192 C165 0.932 . S
H193 C166 0.930 . S
H194 C167 0.932 . S
H195 C168 0.929 . S
H196 C186 0.932 . S
H197 C187 0.930 . S
H198 C188 0.932 . S
H199 C189 0.929 . S
Tb200 C209 2.764 . S
Tb200 O210 2.325 . S
Tb200 O213 2.303 . S
Tb200 O217 2.322 . S
Tb200 O218 2.349 . S
Tb200 O221 2.415 . S
Tb200 O222 2.399 . S
Tb201 O211 2.322 . S
Tb201 O212 2.349 . S
Tb201 O214 2.415 1_556 S
Tb201 O215 2.412 . S
Tb201 O216 2.325 . S
Tb201 O219 2.303 . S
Tb201 C230 2.764 1_556 S
C202 O218 1.261 . S
C202 O219 1.257 . S
C203 C206 1.358 . S
C203 C207 1.332 . S
C203 C209 1.504 . S
C204 C205 1.373 . S
C204 C208 1.308 . S
C205 C204 1.373 . S
C205 C206 1.429 . S
C205 H232 0.932 . S
C206 C203 1.358 . S
C206 C205 1.429 . S
C206 H233 0.930 . S
C207 C203 1.332 . S
C207 C208 1.394 . S
C207 H234 0.932 . S
C208 C204 1.308 . S
C208 C207 1.394 . S
C208 H235 0.929 . S
C209 Tb200 2.764 . S
C209 C203 1.504 . S
C209 O221 1.239 . S
C209 O222 1.263 . S
O210 Tb200 2.325 . S
O210 C220 1.236 . S
O211 Tb201 2.322 . S
O211 C220 1.257 . S
O212 Tb201 2.349 . S
O212 C223 1.261 . S
O213 Tb200 2.303 . S
O213 C223 1.257 . S
O214 Tb201 2.415 1_554 S
O214 C230 1.239 . S
O215 Tb201 2.412 . S
O215 C230 1.255 1_556 S
O216 Tb201 2.325 . S
O216 C231 1.236 . S
O217 Tb200 2.322 . S
O217 C231 1.257 . S
O218 Tb200 2.349 . S
O218 C202 1.261 . S
O219 Tb201 2.303 . S
O219 C202 1.257 . S
C220 O210 1.236 . S
C220 O211 1.257 . S
O221 Tb200 2.415 . S
O221 C209 1.239 . S
O222 Tb200 2.399 . S
O222 C209 1.263 . S
C223 O212 1.261 . S
C223 O213 1.257 . S
C224 C227 1.358 . S
C224 C228 1.332 . S
C224 C230 1.504 . S
C225 C226 1.373 . S
C225 C229 1.308 . S
C226 C225 1.373 . S
C226 C227 1.429 . S
C226 H236 0.932 . S
C227 C224 1.358 . S
C227 C226 1.429 . S
C227 H237 0.930 . S
C228 C224 1.332 . S
C228 C229 1.394 . S
C228 H238 0.932 . S
C229 C225 1.308 . S
C229 C228 1.394 . S
C229 H239 0.929 . S
C230 Tb201 2.764 1_554 S
C230 O214 1.239 . S
C230 O215 1.255 1_554 S
C230 C224 1.504 . S
C231 O216 1.236 . S
C231 O217 1.257 . S
H232 C205 0.932 . S
H233 C206 0.930 . S
H234 C207 0.932 . S
H235 C208 0.929 . S
H236 C226 0.932 . S
H237 C227 0.930 . S
H238 C228 0.932 . S
H239 C229 0.929 . S
Tb240 C249 2.764 . S
Tb240 O250 2.325 . S
Tb240 O253 2.303 . S
Tb240 O257 2.322 . S
Tb240 O258 2.349 . S
Tb240 O261 2.415 . S
Tb240 O262 2.399 . S
Tb241 O251 2.322 . S
Tb241 O252 2.349 . S
Tb241 O254 2.415 . S
Tb241 O255 2.399 . S
Tb241 O256 2.325 . S
Tb241 O259 2.303 . S
Tb241 C270 2.764 . S
C242 O258 1.261 . S
C242 O259 1.257 . S
C243 C246 1.358 . S
C243 C247 1.332 . S
C243 C249 1.504 . S
C244 C245 1.373 . S
C244 C248 1.308 . S
C245 C244 1.373 . S
C245 C246 1.429 . S
C245 H272 0.932 . S
C246 C243 1.358 . S
C246 C245 1.429 . S
C246 H273 0.930 . S
C247 C243 1.332 . S
C247 C248 1.394 . S
C247 H274 0.932 . S
C248 C244 1.308 . S
C248 C247 1.394 . S
C248 H275 0.929 . S
C249 Tb240 2.764 . S
C249 C243 1.504 . S
C249 O261 1.239 . S
C249 O262 1.263 . S
O250 Tb240 2.325 . S
O250 C260 1.236 . S
O251 Tb241 2.322 . S
O251 C260 1.257 . S
O252 Tb241 2.349 . S
O252 C263 1.261 . S
O253 Tb240 2.303 . S
O253 C263 1.257 . S
O254 Tb241 2.415 . S
O254 C270 1.239 . S
O255 Tb241 2.399 . S
O255 C270 1.263 . S
O256 Tb241 2.325 . S
O256 C271 1.236 . S
O257 Tb240 2.322 . S
O257 C271 1.257 . S
O258 Tb240 2.349 . S
O258 C242 1.261 . S
O259 Tb241 2.303 . S
O259 C242 1.257 . S
C260 O250 1.236 . S
C260 O251 1.257 . S
O261 Tb240 2.415 . S
O261 C249 1.239 . S
O262 Tb240 2.399 . S
O262 C249 1.263 . S
C263 O252 1.261 . S
C263 O253 1.257 . S
C264 C267 1.358 . S
C264 C268 1.332 . S
C264 C270 1.504 . S
C265 C266 1.373 . S
C265 C269 1.308 . S
C266 C265 1.373 . S
C266 C267 1.429 . S
C266 H276 0.932 . S
C267 C264 1.358 . S
C267 C266 1.429 . S
C267 H277 0.930 . S
C268 C264 1.332 . S
C268 C269 1.394 . S
C268 H278 0.932 . S
C269 C265 1.308 . S
C269 C268 1.394 . S
C269 H279 0.929 . S
C270 Tb241 2.764 . S
C270 O254 1.239 . S
C270 O255 1.263 . S
C270 C264 1.504 . S
C271 O256 1.236 . S
C271 O257 1.257 . S
H272 C245 0.932 . S
H273 C246 0.930 . S
H274 C247 0.932 . S
H275 C248 0.929 . S
H276 C266 0.932 . S
H277 C267 0.930 . S
H278 C268 0.932 . S
H279 C269 0.929 . S
Tb280 C289 2.764 . S
Tb280 O290 2.325 . S
Tb280 O293 2.303 . S
Tb280 O297 2.322 . S
Tb280 O298 2.349 . S
Tb280 O301 2.415 . S
Tb280 O302 2.399 . S
Tb281 O291 2.322 . S
Tb281 O292 2.349 . S
Tb281 O294 2.415 . S
Tb281 O295 2.399 . S
Tb281 O296 2.325 . S
Tb281 O299 2.303 . S
Tb281 C310 2.764 . S
C282 O298 1.261 . S
C282 O299 1.257 . S
C283 C286 1.358 . S
C283 C287 1.332 . S
C283 C289 1.504 . S
C284 C285 1.373 . S
C284 C288 1.308 . S
C285 C284 1.373 . S
C285 C286 1.429 . S
C285 H312 0.932 . S
C286 C283 1.358 . S
C286 C285 1.429 . S
C286 H313 0.930 . S
C287 C283 1.332 . S
C287 C288 1.394 . S
C287 H314 0.932 . S
C288 C284 1.308 . S
C288 C287 1.394 . S
C288 H315 0.929 . S
C289 Tb280 2.764 . S
C289 C283 1.504 . S
C289 O301 1.239 . S
C289 O302 1.263 . S
O290 Tb280 2.325 . S
O290 C300 1.236 . S
O291 Tb281 2.322 . S
O291 C300 1.257 . S
O292 Tb281 2.349 . S
O292 C303 1.261 . S
O293 Tb280 2.303 . S
O293 C303 1.257 . S
O294 Tb281 2.415 . S
O294 C310 1.239 . S
O295 Tb281 2.399 . S
O295 C310 1.263 . S
O296 Tb281 2.325 . S
O296 C311 1.236 . S
O297 Tb280 2.322 . S
O297 C311 1.257 . S
O298 Tb280 2.349 . S
O298 C282 1.261 . S
O299 Tb281 2.303 . S
O299 C282 1.257 . S
C300 O290 1.236 . S
C300 O291 1.257 . S
O301 Tb280 2.415 . S
O301 C289 1.239 . S
O302 Tb280 2.399 . S
O302 C289 1.263 . S
C303 O292 1.261 . S
C303 O293 1.257 . S
C304 C307 1.358 . S
C304 C308 1.332 . S
C304 C310 1.504 . S
C305 C306 1.373 . S
C305 C309 1.308 . S
C306 C305 1.373 . S
C306 C307 1.429 . S
C306 H316 0.932 . S
C307 C304 1.358 . S
C307 C306 1.429 . S
C307 H317 0.930 . S
C308 C304 1.332 . S
C308 C309 1.394 . S
C308 H318 0.932 . S
C309 C305 1.308 . S
C309 C308 1.394 . S
C309 H319 0.929 . S
C310 Tb281 2.764 . S
C310 O294 1.239 . S
C310 O295 1.263 . S
C310 C304 1.504 . S
C311 O296 1.236 . S
C311 O297 1.257 . S
H312 C285 0.932 . S
H313 C286 0.930 . S
H314 C287 0.932 . S
H315 C288 0.929 . S
H316 C306 0.932 . S
H317 C307 0.930 . S
H318 C308 0.932 . S
H319 C309 0.929 . S
Tb320 C329 2.764 . S
Tb320 O330 2.325 . S
Tb320 O333 2.303 . S
Tb320 O337 2.322 . S
Tb320 O338 2.349 . S
Tb320 O341 2.415 . S
Tb320 O342 2.399 . S
Tb321 O331 2.322 . S
Tb321 O332 2.349 . S
Tb321 O334 2.415 1_554 S
Tb321 O335 2.412 . S
Tb321 O336 2.325 . S
Tb321 O339 2.303 . S
Tb321 C350 2.764 1_554 S
C322 O338 1.261 . S
C322 O339 1.257 . S
C323 C326 1.358 . S
C323 C327 1.332 . S
C323 C329 1.504 . S
C324 C325 1.373 . S
C324 C328 1.308 . S
C325 C324 1.373 . S
C325 C326 1.429 . S
C325 H352 0.932 . S
C326 C323 1.358 . S
C326 C325 1.429 . S
C326 H353 0.930 . S
C327 C323 1.332 . S
C327 C328 1.394 . S
C327 H354 0.932 . S
C328 C324 1.308 . S
C328 C327 1.394 . S
C328 H355 0.929 . S
C329 Tb320 2.764 . S
C329 C323 1.504 . S
C329 O341 1.239 . S
C329 O342 1.263 . S
O330 Tb320 2.325 . S
O330 C340 1.236 . S
O331 Tb321 2.322 . S
O331 C340 1.257 . S
O332 Tb321 2.349 . S
O332 C343 1.261 . S
O333 Tb320 2.303 . S
O333 C343 1.257 . S
O334 Tb321 2.415 1_556 S
O334 C350 1.239 . S
O335 Tb321 2.412 . S
O335 C350 1.255 1_554 S
O336 Tb321 2.325 . S
O336 C351 1.236 . S
O337 Tb320 2.322 . S
O337 C351 1.257 . S
O338 Tb320 2.349 . S
O338 C322 1.261 . S
O339 Tb321 2.303 . S
O339 C322 1.257 . S
C340 O330 1.236 . S
C340 O331 1.257 . S
O341 Tb320 2.415 . S
O341 C329 1.239 . S
O342 Tb320 2.399 . S
O342 C329 1.263 . S
C343 O332 1.261 . S
C343 O333 1.257 . S
C344 C347 1.358 . S
C344 C348 1.332 . S
C344 C350 1.504 . S
C345 C346 1.373 . S
C345 C349 1.308 . S
C346 C345 1.373 . S
C346 C347 1.429 . S
C346 H356 0.932 . S
C347 C344 1.358 . S
C347 C346 1.429 . S
C347 H357 0.930 . S
C348 C344 1.332 . S
C348 C349 1.394 . S
C348 H358 0.932 . S
C349 C345 1.308 . S
C349 C348 1.394 . S
C349 H359 0.929 . S
C350 Tb321 2.764 1_556 S
C350 O334 1.239 . S
C350 O335 1.255 1_556 S
C350 C344 1.504 . S
C351 O336 1.236 . S
C351 O337 1.257 . S
H352 C325 0.932 . S
H353 C326 0.930 . S
H354 C327 0.932 . S
H355 C328 0.929 . S
H356 C346 0.932 . S
H357 C347 0.930 . S
H358 C348 0.932 . S
H359 C349 0.929 . S
Tb360 C369 2.764 . S
Tb360 O370 2.325 . S
Tb360 O373 2.303 . S
Tb360 O377 2.322 . S
Tb360 O378 2.349 . S
Tb360 O381 2.415 . S
Tb360 O382 2.399 . S
Tb361 O371 2.322 . S
Tb361 O372 2.349 . S
Tb361 O374 2.415 . S
Tb361 O375 2.399 . S
Tb361 O376 2.325 . S
Tb361 O379 2.303 . S
Tb361 C390 2.764 . S
C362 O378 1.261 . S
C362 O379 1.257 . S
C363 C366 1.358 . S
C363 C367 1.332 . S
C363 C369 1.504 . S
C364 C365 1.373 . S
C364 C368 1.308 . S
C365 C364 1.373 . S
C365 C366 1.429 . S
C365 H392 0.932 . S
C366 C363 1.358 . S
C366 C365 1.429 . S
C366 H393 0.930 . S
C367 C363 1.332 . S
C367 C368 1.394 . S
C367 H394 0.932 . S
C368 C364 1.308 . S
C368 C367 1.394 . S
C368 H395 0.929 . S
C369 Tb360 2.764 . S
C369 C363 1.504 . S
C369 O381 1.239 . S
C369 O382 1.263 . S
O370 Tb360 2.325 . S
O370 C380 1.236 . S
O371 Tb361 2.322 . S
O371 C380 1.257 . S
O372 Tb361 2.349 . S
O372 C383 1.261 . S
O373 Tb360 2.303 . S
O373 C383 1.257 . S
O374 Tb361 2.415 . S
O374 C390 1.239 . S
O375 Tb361 2.399 . S
O375 C390 1.263 . S
O376 Tb361 2.325 . S
O376 C391 1.236 . S
O377 Tb360 2.322 . S
O377 C391 1.257 . S
O378 Tb360 2.349 . S
O378 C362 1.261 . S
O379 Tb361 2.303 . S
O379 C362 1.257 . S
C380 O370 1.236 . S
C380 O371 1.257 . S
O381 Tb360 2.415 . S
O381 C369 1.239 . S
O382 Tb360 2.399 . S
O382 C369 1.263 . S
C383 O372 1.261 . S
C383 O373 1.257 . S
C384 C387 1.358 . S
C384 C388 1.332 . S
C384 C390 1.504 . S
C385 C386 1.373 . S
C385 C389 1.308 . S
C386 C385 1.373 . S
C386 C387 1.429 . S
C386 H396 0.932 . S
C387 C384 1.358 . S
C387 C386 1.429 . S
C387 H397 0.930 . S
C388 C384 1.332 . S
C388 C389 1.394 . S
C388 H398 0.932 . S
C389 C385 1.308 . S
C389 C388 1.394 . S
C389 H399 0.929 . S
C390 Tb361 2.764 . S
C390 O374 1.239 . S
C390 O375 1.263 . S
C390 C384 1.504 . S
C391 O376 1.236 . S
C391 O377 1.257 . S
H392 C365 0.932 . S
H393 C366 0.930 . S
H394 C367 0.932 . S
H395 C368 0.929 . S
H396 C386 0.932 . S
H397 C387 0.930 . S
H398 C388 0.932 . S
H399 C389 0.929 . S
Tb400 C409 2.764 . S
Tb400 O410 2.325 . S
Tb400 O413 2.303 . S
Tb400 O417 2.322 . S
Tb400 O418 2.349 . S
Tb400 O421 2.415 . S
Tb400 O422 2.399 . S
Tb401 O411 2.322 . S
Tb401 O412 2.349 . S
Tb401 O414 2.415 . S
Tb401 O415 2.399 . S
Tb401 O416 2.325 . S
Tb401 O419 2.303 . S
Tb401 C430 2.764 . S
C402 O418 1.261 . S
C402 O419 1.257 . S
C403 C406 1.358 . S
C403 C407 1.332 . S
C403 C409 1.504 . S
C404 C405 1.373 . S
C404 C408 1.308 . S
C405 C404 1.373 . S
C405 C406 1.429 . S
C405 H432 0.932 . S
C406 C403 1.358 . S
C406 C405 1.429 . S
C406 H433 0.930 . S
C407 C403 1.332 . S
C407 C408 1.394 . S
C407 H434 0.932 . S
C408 C404 1.308 . S
C408 C407 1.394 . S
C408 H435 0.929 . S
C409 Tb400 2.764 . S
C409 C403 1.504 . S
C409 O421 1.239 . S
C409 O422 1.263 . S
O410 Tb400 2.325 . S
O410 C420 1.236 . S
O411 Tb401 2.322 . S
O411 C420 1.257 . S
O412 Tb401 2.349 . S
O412 C423 1.261 . S
O413 Tb400 2.303 . S
O413 C423 1.257 . S
O414 Tb401 2.415 . S
O414 C430 1.239 . S
O415 Tb401 2.399 . S
O415 C430 1.263 . S
O416 Tb401 2.325 . S
O416 C431 1.236 . S
O417 Tb400 2.322 . S
O417 C431 1.257 . S
O418 Tb400 2.349 . S
O418 C402 1.261 . S
O419 Tb401 2.303 . S
O419 C402 1.257 . S
C420 O410 1.236 . S
C420 O411 1.257 . S
O421 Tb400 2.415 . S
O421 C409 1.239 . S
O422 Tb400 2.399 . S
O422 C409 1.263 . S
C423 O412 1.261 . S
C423 O413 1.257 . S
C424 C427 1.358 . S
C424 C428 1.332 . S
C424 C430 1.504 . S
C425 C426 1.373 . S
C425 C429 1.308 . S
C426 C425 1.373 . S
C426 C427 1.429 . S
C426 H436 0.932 . S
C427 C424 1.358 . S
C427 C426 1.429 . S
C427 H437 0.930 . S
C428 C424 1.332 . S
C428 C429 1.394 . S
C428 H438 0.932 . S
C429 C425 1.308 . S
C429 C428 1.394 . S
C429 H439 0.929 . S
C430 Tb401 2.764 . S
C430 O414 1.239 . S
C430 O415 1.263 . S
C430 C424 1.504 . S
C431 O416 1.236 . S
C431 O417 1.257 . S
H432 C405 0.932 . S
H433 C406 0.930 . S
H434 C407 0.932 . S
H435 C408 0.929 . S
H436 C426 0.932 . S
H437 C427 0.930 . S
H438 C428 0.932 . S
H439 C429 0.929 . S
Tb440 C449 2.764 . S
Tb440 O450 2.325 . S
Tb440 O453 2.303 . S
Tb440 O457 2.322 . S
Tb440 O458 2.349 . S
Tb440 O461 2.415 . S
Tb440 O462 2.399 . S
Tb441 O451 2.322 . S
Tb441 O452 2.349 . S
Tb441 O454 2.415 1_554 S
Tb441 O455 2.412 . S
Tb441 O456 2.325 . S
Tb441 O459 2.303 . S
Tb441 C470 2.764 1_554 S
C442 O458 1.261 . S
C442 O459 1.257 . S
C443 C446 1.358 . S
C443 C447 1.332 . S
C443 C449 1.504 . S
C444 C445 1.373 . S
C444 C448 1.308 . S
C445 C444 1.373 . S
C445 C446 1.429 . S
C445 H472 0.932 . S
C446 C443 1.358 . S
C446 C445 1.429 . S
C446 H473 0.930 . S
C447 C443 1.332 . S
C447 C448 1.394 . S
C447 H474 0.932 . S
C448 C444 1.308 . S
C448 C447 1.394 . S
C448 H475 0.929 . S
C449 Tb440 2.764 . S
C449 C443 1.504 . S
C449 O461 1.239 . S
C449 O462 1.263 . S
O450 Tb440 2.325 . S
O450 C460 1.236 . S
O451 Tb441 2.322 . S
O451 C460 1.257 . S
O452 Tb441 2.349 . S
O452 C463 1.261 . S
O453 Tb440 2.303 . S
O453 C463 1.257 . S
O454 Tb441 2.415 1_556 S
O454 C470 1.239 . S
O455 Tb441 2.412 . S
O455 C470 1.255 1_554 S
O456 Tb441 2.325 . S
O456 C471 1.236 . S
O457 Tb440 2.322 . S
O457 C471 1.257 . S
O458 Tb440 2.349 . S
O458 C442 1.261 . S
O459 Tb441 2.303 . S
O459 C442 1.257 . S
C460 O450 1.236 . S
C460 O451 1.257 . S
O461 Tb440 2.415 . S
O461 C449 1.239 . S
O462 Tb440 2.399 . S
O462 C449 1.263 . S
C463 O452 1.261 . S
C463 O453 1.257 . S
C464 C467 1.358 . S
C464 C468 1.332 . S
C464 C470 1.504 . S
C465 C466 1.373 . S
C465 C469 1.308 . S
C466 C465 1.373 . S
C466 C467 1.429 . S
C466 H476 0.932 . S
C467 C464 1.358 . S
C467 C466 1.429 . S
C467 H477 0.930 . S
C468 C464 1.332 . S
C468 C469 1.394 . S
C468 H478 0.932 . S
C469 C465 1.308 . S
C469 C468 1.394 . S
C469 H479 0.929 . S
C470 Tb441 2.764 1_556 S
C470 O454 1.239 . S
C470 O455 1.255 1_556 S
C470 C464 1.504 . S
C471 O456 1.236 . S
C471 O457 1.257 . S
H472 C445 0.932 . S
H473 C446 0.930 . S
H474 C447 0.932 . S
H475 C448 0.929 . S
H476 C466 0.932 . S
H477 C467 0.930 . S
H478 C468 0.932 . S
H479 C469 0.929 . S
H480 C486 0.930 . S
H481 C489 0.930 . S
H482 C490 0.930 . S
H483 C491 0.930 . S
H484 C494 0.930 . S
H485 C495 0.930 . S
C486 H480 0.930 . S
C486 C487 1.355 . S
C486 C488 1.415 . S
C487 C486 1.355 . S
C487 C489 1.419 . S
C488 C486 1.415 . S
C488 C493 1.425 . S
C488 C495 1.409 . S
C489 H481 0.930 . S
C489 C487 1.419 . S
C489 C490 1.362 . S
C490 H482 0.930 . S
C490 C489 1.362 . S
C490 C493 1.409 . S
C491 H483 0.930 . S
C491 C492 1.355 . S
C491 C493 1.415 . S
C492 C491 1.355 . S
C492 C494 1.419 . S
C493 C488 1.425 . S
C493 C490 1.409 . S
C493 C491 1.415 . S
C494 H484 0.930 . S
C494 C492 1.419 . S
C494 C495 1.362 . S
C495 H485 0.930 . S
C495 C488 1.409 . S
C495 C494 1.362 . S
H496 C502 0.930 . S
H497 C505 0.930 . S
H498 C506 0.930 . S
H499 C507 0.930 . S
H500 C510 0.930 . S
H501 C511 0.930 . S
C502 H496 0.930 . S
C502 C503 1.355 . S
C502 C504 1.415 . S
C503 C502 1.355 . S
C503 C505 1.419 . S
C504 C502 1.415 . S
C504 C509 1.425 . S
C504 C511 1.409 . S
C505 H497 0.930 . S
C505 C503 1.419 . S
C505 C506 1.362 . S
C506 H498 0.930 . S
C506 C505 1.362 . S
C506 C509 1.409 . S
C507 H499 0.930 . S
C507 C508 1.355 . S
C507 C509 1.415 . S
C508 C507 1.355 . S
C508 C510 1.419 . S
C509 C504 1.425 . S
C509 C506 1.409 . S
C509 C507 1.415 . S
C510 H500 0.930 . S
C510 C508 1.419 . S
C510 C511 1.362 . S
C511 H501 0.930 . S
C511 C504 1.409 . S
C511 C510 1.362 . S
H512 C518 0.930 . S
H513 C521 0.930 . S
H514 C522 0.930 . S
H515 C523 0.930 . S
H516 C526 0.930 . S
H517 C527 0.930 . S
C518 H512 0.930 . S
C518 C519 1.355 . S
C518 C520 1.415 . S
C519 C518 1.355 . S
C519 C521 1.419 . S
C520 C518 1.415 . S
C520 C525 1.425 . S
C520 C527 1.409 . S
C521 H513 0.930 . S
C521 C519 1.419 . S
C521 C522 1.362 . S
C522 H514 0.930 . S
C522 C521 1.362 . S
C522 C525 1.409 . S
C523 H515 0.930 . S
C523 C524 1.355 . S
C523 C525 1.415 . S
C524 C523 1.355 . S
C524 C526 1.419 . S
C525 C520 1.425 . S
C525 C522 1.409 . S
C525 C523 1.415 . S
C526 H516 0.930 . S
C526 C524 1.419 . S
C526 C527 1.362 . S
C527 H517 0.930 . S
C527 C520 1.409 . S
C527 C526 1.362 . S
H528 C534 0.930 . S
H529 C537 0.930 . S
H530 C538 0.930 . S
H531 C539 0.930 . S
H532 C542 0.930 . S
H533 C543 0.930 . S
C534 H528 0.930 . S
C534 C535 1.355 . S
C534 C536 1.415 . S
C535 C534 1.355 . S
C535 C537 1.419 . S
C536 C534 1.415 . S
C536 C541 1.425 . S
C536 C543 1.409 . S
C537 H529 0.930 . S
C537 C535 1.419 . S
C537 C538 1.362 . S
C538 H530 0.930 . S
C538 C537 1.362 . S
C538 C541 1.409 . S
C539 H531 0.930 . S
C539 C540 1.355 . S
C539 C541 1.415 . S
C540 C539 1.355 . S
C540 C542 1.419 . S
C541 C536 1.425 . S
C541 C538 1.409 . S
C541 C539 1.415 . S
C542 H532 0.930 . S
C542 C540 1.419 . S
C542 C543 1.362 . S
C543 H533 0.930 . S
C543 C536 1.409 . S
C543 C542 1.362 . S
H544 C550 0.930 . S
H545 C553 0.930 . S
H546 C554 0.930 . S
H547 C555 0.930 . S
H548 C558 0.930 . S
H549 C559 0.930 . S
C550 H544 0.930 . S
C550 C551 1.355 . S
C550 C552 1.415 . S
C551 C550 1.355 . S
C551 C553 1.419 . S
C552 C550 1.415 . S
C552 C557 1.425 . S
C552 C559 1.409 . S
C553 H545 0.930 . S
C553 C551 1.419 . S
C553 C554 1.362 . S
C554 H546 0.930 . S
C554 C553 1.362 . S
C554 C557 1.409 . S
C555 H547 0.930 . S
C555 C556 1.355 . S
C555 C557 1.415 . S
C556 C555 1.355 . S
C556 C558 1.419 . S
C557 C552 1.425 . S
C557 C554 1.409 . S
C557 C555 1.415 . S
C558 H548 0.930 . S
C558 C556 1.419 . S
C558 C559 1.362 . S
C559 H549 0.930 . S
C559 C552 1.409 . S
C559 C558 1.362 . S
H560 C566 0.930 . S
H561 C569 0.930 . S
H562 C570 0.930 . S
H563 C571 0.930 . S
H564 C574 0.930 . S
H565 C575 0.930 . S
C566 H560 0.930 . S
C566 C567 1.355 . S
C566 C568 1.415 . S
C567 C566 1.355 . S
C567 C569 1.419 . S
C568 C566 1.415 . S
C568 C573 1.425 . S
C568 C575 1.409 . S
C569 H561 0.930 . S
C569 C567 1.419 . S
C569 C570 1.362 . S
C570 H562 0.930 . S
C570 C569 1.362 . S
C570 C573 1.409 . S
C571 H563 0.930 . S
C571 C572 1.355 . S
C571 C573 1.415 . S
C572 C571 1.355 . S
C572 C574 1.419 . S
C573 C568 1.425 . S
C573 C570 1.409 . S
C573 C571 1.415 . S
C574 H564 0.930 . S
C574 C572 1.419 . S
C574 C575 1.362 . S
C575 H565 0.930 . S
C575 C568 1.409 . S
C575 C574 1.362 . S
H576 C582 0.930 . S
H577 C585 0.930 . S
H578 C586 0.930 . S
H579 C587 0.930 . S
H580 C590 0.930 . S
H581 C591 0.930 . S
C582 H576 0.930 . S
C582 C583 1.355 . S
C582 C584 1.415 . S
C583 C582 1.355 . S
C583 C585 1.419 1_556 S
C584 C582 1.415 . S
C584 C589 1.425 1_556 S
C584 C591 1.409 . S
C585 H577 0.930 . S
C585 C583 1.419 1_554 S
C585 C586 1.362 . S
C586 H578 0.930 . S
C586 C585 1.362 . S
C586 C589 1.409 . S
C587 H579 0.930 . S
C587 C588 1.355 . S
C587 C589 1.415 . S
C588 C587 1.355 . S
C588 C590 1.419 1_554 S
C589 C584 1.425 1_554 S
C589 C586 1.409 . S
C589 C587 1.415 . S
C590 H580 0.930 . S
C590 C588 1.419 1_556 S
C590 C591 1.362 . S
C591 H581 0.930 . S
C591 C584 1.409 . S
C591 C590 1.362 . S
H592 C598 0.930 . S
H593 C601 0.930 . S
H594 C602 0.930 . S
H595 C603 0.930 . S
H596 C606 0.930 . S
H597 C607 0.930 . S
C598 H592 0.930 . S
C598 C599 1.355 . S
C598 C600 1.415 . S
C599 C598 1.355 . S
C599 C601 1.419 . S
C600 C598 1.415 . S
C600 C605 1.425 . S
C600 C607 1.409 . S
C601 H593 0.930 . S
C601 C599 1.419 . S
C601 C602 1.362 . S
C602 H594 0.930 . S
C602 C601 1.362 . S
C602 C605 1.409 . S
C603 H595 0.930 . S
C603 C604 1.355 . S
C603 C605 1.415 . S
C604 C603 1.355 . S
C604 C606 1.419 . S
C605 C600 1.425 . S
C605 C602 1.409 . S
C605 C603 1.415 . S
C606 H596 0.930 . S
C606 C604 1.419 . S
C606 C607 1.362 . S
C607 H597 0.930 . S
C607 C600 1.409 . S
C607 C606 1.362 . S
H608 C614 0.930 . S
H609 C617 0.930 . S
H610 C618 0.930 . S
H611 C619 0.930 . S
H612 C622 0.930 . S
H613 C623 0.930 . S
C614 H608 0.930 . S
C614 C615 1.355 . S
C614 C616 1.415 . S
C615 C614 1.355 . S
C615 C617 1.419 . S
C616 C614 1.415 . S
C616 C621 1.425 . S
C616 C623 1.409 . S
C617 H609 0.930 . S
C617 C615 1.419 . S
C617 C618 1.362 . S
C618 H610 0.930 . S
C618 C617 1.362 . S
C618 C621 1.409 . S
C619 H611 0.930 . S
C619 C620 1.355 . S
C619 C621 1.415 . S
C620 C619 1.355 . S
C620 C622 1.419 . S
C621 C616 1.425 . S
C621 C618 1.409 . S
C621 C619 1.415 . S
C622 H612 0.930 . S
C622 C620 1.419 . S
C622 C623 1.362 . S
C623 H613 0.930 . S
C623 C616 1.409 . S
C623 C622 1.362 . S
H624 C630 0.930 . S
H625 C633 0.930 1_554 S
H626 C634 0.930 . S
H627 C635 0.930 . S
H628 C638 0.930 1_556 S
H629 C639 0.930 . S
C630 H624 0.930 . S
C630 C631 1.355 . S
C630 C632 1.415 . S
C631 C630 1.355 . S
C631 C633 1.419 . S
C632 C630 1.415 . S
C632 C637 1.425 1_556 S
C632 C639 1.409 . S
C633 H625 0.930 1_556 S
C633 C631 1.419 . S
C633 C634 1.362 1_556 S
C634 H626 0.930 . S
C634 C633 1.362 1_554 S
C634 C637 1.409 . S
C635 H627 0.930 . S
C635 C636 1.355 . S
C635 C637 1.415 . S
C636 C635 1.355 . S
C636 C638 1.419 . S
C637 C632 1.425 1_554 S
C637 C634 1.409 . S
C637 C635 1.415 . S
C638 H628 0.930 1_554 S
C638 C636 1.419 . S
C638 C639 1.362 1_554 S
C639 H629 0.930 . S
C639 C632 1.409 . S
C639 C638 1.362 1_556 S
H640 C646 0.930 . S
H641 C649 0.930 . S
H642 C650 0.930 . S
H643 C651 0.930 . S
H644 C654 0.930 . S
H645 C655 0.930 . S
C646 H640 0.930 . S
C646 C647 1.355 . S
C646 C648 1.415 . S
C647 C646 1.355 . S
C647 C649 1.419 . S
C648 C646 1.415 . S
C648 C653 1.425 . S
C648 C655 1.409 . S
C649 H641 0.930 . S
C649 C647 1.419 . S
C649 C650 1.362 . S
C650 H642 0.930 . S
C650 C649 1.362 . S
C650 C653 1.409 . S
C651 H643 0.930 . S
C651 C652 1.355 . S
C651 C653 1.415 . S
C652 C651 1.355 . S
C652 C654 1.419 . S
C653 C648 1.425 . S
C653 C650 1.409 . S
C653 C651 1.415 . S
C654 H644 0.930 . S
C654 C652 1.419 . S
C654 C655 1.362 . S
C655 H645 0.930 . S
C655 C648 1.409 . S
C655 C654 1.362 . S
H656 C662 0.930 . S
H657 C665 0.930 . S
H658 C666 0.930 . S
H659 C667 0.930 . S
H660 C670 0.930 . S
H661 C671 0.930 . S
C662 H656 0.930 . S
C662 C663 1.355 . S
C662 C664 1.415 . S
C663 C662 1.355 . S
C663 C665 1.419 . S
C664 C662 1.415 . S
C664 C669 1.425 . S
C664 C671 1.409 . S
C665 H657 0.930 . S
C665 C663 1.419 . S
C665 C666 1.362 . S
C666 H658 0.930 . S
C666 C665 1.362 . S
C666 C669 1.409 . S
C667 H659 0.930 . S
C667 C668 1.355 . S
C667 C669 1.415 . S
C668 C667 1.355 . S
C668 C670 1.419 . S
C669 C664 1.425 . S
C669 C666 1.409 . S
C669 C667 1.415 . S
C670 H660 0.930 . S
C670 C668 1.419 . S
C670 C671 1.362 . S
C671 H661 0.930 . S
C671 C664 1.409 . S
C671 C670 1.362 . S
H672 C678 0.930 1_545 S
H673 C681 0.930 . S
H674 C682 0.930 . S
H675 C683 0.930 1_565 S
H676 C686 0.930 . S
H677 C687 0.930 . S
C678 H672 0.930 1_565 S
C678 C679 1.355 . S
C678 C680 1.415 1_565 S
C679 C678 1.355 . S
C679 C681 1.419 . S
C680 C678 1.415 1_545 S
C680 C685 1.425 1_546 S
C680 C687 1.409 . S
C681 H673 0.930 . S
C681 C679 1.419 . S
C681 C682 1.362 1_556 S
C682 H674 0.930 . S
C682 C681 1.362 1_554 S
C682 C685 1.409 . S
C683 H675 0.930 1_545 S
C683 C684 1.355 . S
C683 C685 1.415 1_545 S
C684 C683 1.355 . S
C684 C686 1.419 . S
C685 C680 1.425 1_564 S
C685 C682 1.409 . S
C685 C683 1.415 1_565 S
C686 H676 0.930 . S
C686 C684 1.419 . S
C686 C687 1.362 1_554 S
C687 H677 0.930 . S
C687 C680 1.409 . S
C687 C686 1.362 1_556 S
H688 C694 0.930 . S
H689 C697 0.930 . S
H690 C698 0.930 . S
H691 C699 0.930 . S
H692 C702 0.930 . S
H693 C703 0.930 . S
C694 H688 0.930 . S
C694 C695 1.355 . S
C694 C696 1.415 . S
C695 C694 1.355 . S
C695 C697 1.419 . S
C696 C694 1.415 . S
C696 C701 1.425 . S
C696 C703 1.409 . S
C697 H689 0.930 . S
C697 C695 1.419 . S
C697 C698 1.362 . S
C698 H690 0.930 . S
C698 C697 1.362 . S
C698 C701 1.409 . S
C699 H691 0.930 . S
C699 C700 1.355 . S
C699 C701 1.415 . S
C700 C699 1.355 . S
C700 C702 1.419 . S
C701 C696 1.425 . S
C701 C698 1.409 . S
C701 C699 1.415 . S
C702 H692 0.930 . S
C702 C700 1.419 . S
C702 C703 1.362 . S
C703 H693 0.930 . S
C703 C696 1.409 . S
C703 C702 1.362 . S
H704 C710 0.930 . S
H705 C713 0.930 . S
H706 C714 0.930 . S
H707 C715 0.930 . S
H708 C718 0.930 . S
H709 C719 0.930 . S
C710 H704 0.930 . S
C710 C711 1.355 . S
C710 C712 1.416 . S
C711 C710 1.355 . S
C711 C713 1.419 . S
C712 C710 1.416 . S
C712 C717 1.430 1_455 S
C712 C719 1.405 1_455 S
C713 H705 0.930 . S
C713 C711 1.419 . S
C713 C714 1.362 . S
C714 H706 0.930 . S
C714 C713 1.362 . S
C714 C717 1.405 1_455 S
C715 H707 0.930 . S
C715 C716 1.355 . S
C715 C717 1.416 . S
C716 C715 1.355 . S
C716 C718 1.419 . S
C717 C712 1.430 1_655 S
C717 C714 1.405 1_655 S
C717 C715 1.416 . S
C718 H708 0.930 . S
C718 C716 1.419 . S
C718 C719 1.362 . S
C719 H709 0.930 . S
C719 C712 1.405 1_655 S
C719 C718 1.362 . S
H720 C726 0.930 . S
H721 C729 0.930 . S
H722 C730 0.930 . S
H723 C731 0.930 . S
H724 C734 0.930 . S
H725 C735 0.930 . S
C726 H720 0.930 . S
C726 C727 1.355 . S
C726 C728 1.415 1_554 S
C727 C726 1.355 . S
C727 C729 1.419 1_565 S
C728 C726 1.415 1_556 S
C728 C733 1.425 1_566 S
C728 C735 1.409 . S
C729 H721 0.930 . S
C729 C727 1.419 1_545 S
C729 C730 1.362 . S
C730 H722 0.930 . S
C730 C729 1.362 . S
C730 C733 1.409 . S
C731 H723 0.930 . S
C731 C732 1.355 . S
C731 C733 1.415 1_556 S
C732 C731 1.355 . S
C732 C734 1.419 1_545 S
C733 C728 1.425 1_544 S
C733 C730 1.409 . S
C733 C731 1.415 1_554 S
C734 H724 0.930 . S
C734 C732 1.419 1_565 S
C734 C735 1.362 . S
C735 H725 0.930 . S
C735 C728 1.409 . S
C735 C734 1.362 . S
H736 C742 0.930 . S
H737 C745 0.930 . S
H738 C746 0.930 . S
H739 C747 0.930 . S
H740 C750 0.930 . S
H741 C751 0.930 . S
C742 H736 0.930 . S
C742 C743 1.355 . S
C742 C744 1.415 . S
C743 C742 1.355 . S
C743 C745 1.419 . S
C744 C742 1.415 . S
C744 C749 1.425 . S
C744 C751 1.409 . S
C745 H737 0.930 . S
C745 C743 1.419 . S
C745 C746 1.362 . S
C746 H738 0.930 . S
C746 C745 1.362 . S
C746 C749 1.409 . S
C747 H739 0.930 . S
C747 C748 1.355 . S
C747 C749 1.415 . S
C748 C747 1.355 . S
C748 C750 1.419 . S
C749 C744 1.425 . S
C749 C746 1.409 . S
C749 C747 1.415 . S
C750 H740 0.930 . S
C750 C748 1.419 . S
C750 C751 1.362 . S
C751 H741 0.930 . S
C751 C744 1.409 . S
C751 C750 1.362 . S
H752 C758 0.930 . S
H753 C761 0.930 . S
H754 C762 0.930 . S
H755 C763 0.930 . S
H756 C766 0.930 . S
H757 C767 0.930 . S
C758 H752 0.930 . S
C758 C759 1.355 . S
C758 C760 1.415 . S
C759 C758 1.355 . S
C759 C761 1.419 1_455 S
C760 C758 1.415 . S
C760 C765 1.425 1_455 S
C760 C767 1.409 . S
C761 H753 0.930 . S
C761 C759 1.419 1_655 S
C761 C762 1.362 . S
C762 H754 0.930 . S
C762 C761 1.362 . S
C762 C765 1.409 . S
C763 H755 0.930 . S
C763 C764 1.355 . S
C763 C765 1.415 . S
C764 C763 1.355 . S
C764 C766 1.419 1_655 S
C765 C760 1.425 1_655 S
C765 C762 1.409 . S
C765 C763 1.415 . S
C766 H756 0.930 . S
C766 C764 1.419 1_455 S
C766 C767 1.362 . S
C767 H757 0.930 . S
C767 C760 1.409 . S
C767 C766 1.362 . S
H768 C774 0.930 . S
H769 C777 0.930 . S
H770 C778 0.930 . S
H771 C779 0.930 . S
H772 C782 0.930 . S
H773 C783 0.930 . S
C774 H768 0.930 . S
C774 C775 1.355 . S
C774 C776 1.415 . S
C775 C774 1.355 . S
C775 C777 1.419 . S
C776 C774 1.415 . S
C776 C781 1.425 1_545 S
C776 C783 1.409 . S
C777 H769 0.930 . S
C777 C775 1.419 . S
C777 C778 1.362 1_545 S
C778 H770 0.930 . S
C778 C777 1.362 1_565 S
C778 C781 1.409 . S
C779 H771 0.930 . S
C779 C780 1.355 . S
C779 C781 1.415 . S
C780 C779 1.355 . S
C780 C782 1.419 . S
C781 C776 1.425 1_565 S
C781 C778 1.409 . S
C781 C779 1.415 . S
C782 H772 0.930 . S
C782 C780 1.419 . S
C782 C783 1.362 1_565 S
C783 H773 0.930 . S
C783 C776 1.409 . S
C783 C782 1.362 1_545 S
H784 C790 0.930 . S
H785 C793 0.930 . S
H786 C794 0.930 . S
H787 C795 0.930 . S
H788 C798 0.930 . S
H789 C799 0.930 . S
C790 H784 0.930 . S
C790 C791 1.355 . S
C790 C792 1.415 . S
C791 C790 1.355 . S
C791 C793 1.419 . S
C792 C790 1.415 . S
C792 C797 1.425 . S
C792 C799 1.409 . S
C793 H785 0.930 . S
C793 C791 1.419 . S
C793 C794 1.362 . S
C794 H786 0.930 . S
C794 C793 1.362 . S
C794 C797 1.409 . S
C795 H787 0.930 . S
C795 C796 1.355 . S
C795 C797 1.415 . S
C796 C795 1.355 . S
C796 C798 1.419 . S
C797 C792 1.425 . S
C797 C794 1.409 . S
C797 C795 1.415 . S
C798 H788 0.930 . S
C798 C796 1.419 . S
C798 C799 1.362 . S
C799 H789 0.930 . S
C799 C792 1.409 . S
C799 C798 1.362 . S
H800 C806 0.930 . S
H801 C809 0.930 . S
H802 C810 0.930 . S
H803 C811 0.930 . S
H804 C814 0.930 . S
H805 C815 0.930 . S
C806 H800 0.930 . S
C806 C807 1.355 . S
C806 C808 1.415 . S
C807 C806 1.355 . S
C807 C809 1.419 . S
C808 C806 1.415 . S
C808 C813 1.425 1_655 S
C808 C815 1.409 . S
C809 H801 0.930 . S
C809 C807 1.419 . S
C809 C810 1.362 1_655 S
C810 H802 0.930 . S
C810 C809 1.362 1_455 S
C810 C813 1.409 . S
C811 H803 0.930 . S
C811 C812 1.355 . S
C811 C813 1.415 . S
C812 C811 1.355 . S
C812 C814 1.419 . S
C813 C808 1.425 1_455 S
C813 C810 1.409 . S
C813 C811 1.415 . S
C814 H804 0.930 . S
C814 C812 1.419 . S
C814 C815 1.362 1_455 S
C815 H805 0.930 . S
C815 C808 1.409 . S
C815 C814 1.362 1_655 S
H816 C822 0.930 . S
H817 C825 0.930 . S
H818 C826 0.930 . S
H819 C827 0.930 . S
H820 C830 0.930 . S
H821 C831 0.930 . S
C822 H816 0.930 . S
C822 C823 1.355 . S
C822 C824 1.415 . S
C823 C822 1.355 . S
C823 C825 1.419 . S
C824 C822 1.415 . S
C824 C829 1.425 1_455 S
C824 C831 1.409 . S
C825 H817 0.930 . S
C825 C823 1.419 . S
C825 C826 1.362 1_455 S
C826 H818 0.930 . S
C826 C825 1.362 1_655 S
C826 C829 1.409 . S
C827 H819 0.930 . S
C827 C828 1.355 . S
C827 C829 1.415 . S
C828 C827 1.355 . S
C828 C830 1.419 . S
C829 C824 1.425 1_655 S
C829 C826 1.409 . S
C829 C827 1.415 . S
C830 H820 0.930 . S
C830 C828 1.419 . S
C830 C831 1.362 1_655 S
C831 H821 0.930 . S
C831 C824 1.409 . S
C831 C830 1.362 1_455 S
H832 C838 0.930 . S
H833 C841 0.930 . S
H834 C842 0.930 . S
H835 C843 0.930 . S
H836 C846 0.930 . S
H837 C847 0.930 . S
C838 H832 0.930 . S
C838 C839 1.355 . S
C838 C840 1.415 . S
C839 C838 1.355 . S
C839 C841 1.419 . S
C840 C838 1.415 . S
C840 C845 1.425 1_565 S
C840 C847 1.409 . S
C841 H833 0.930 . S
C841 C839 1.419 . S
C841 C842 1.362 1_565 S
C842 H834 0.930 . S
C842 C841 1.362 1_545 S
C842 C845 1.409 . S
C843 H835 0.930 . S
C843 C844 1.355 . S
C843 C845 1.415 . S
C844 C843 1.355 . S
C844 C846 1.419 . S
C845 C840 1.425 1_545 S
C845 C842 1.409 . S
C845 C843 1.415 . S
C846 H836 0.930 . S
C846 C844 1.419 . S
C846 C847 1.362 1_545 S
C847 H837 0.930 . S
C847 C840 1.409 . S
C847 C846 1.362 1_565 S
H848 C854 0.930 . S
H849 C857 0.930 . S
H850 C858 0.930 . S
H851 C859 0.930 . S
H852 C862 0.930 . S
H853 C863 0.930 . S
C854 H848 0.930 . S
C854 C855 1.355 . S
C854 C856 1.415 . S
C855 C854 1.355 . S
C855 C857 1.419 . S
C856 C854 1.415 . S
C856 C861 1.425 . S
C856 C863 1.409 . S
C857 H849 0.930 . S
C857 C855 1.419 . S
C857 C858 1.362 . S
C858 H850 0.930 . S
C858 C857 1.362 . S
C858 C861 1.409 . S
C859 H851 0.930 . S
C859 C860 1.355 . S
C859 C861 1.415 . S
C860 C859 1.355 . S
C860 C862 1.419 . S
C861 C856 1.425 . S
C861 C858 1.409 . S
C861 C859 1.415 . S
C862 H852 0.930 . S
C862 C860 1.419 . S
C862 C863 1.362 . S
C863 H853 0.930 . S
C863 C856 1.409 . S
C863 C862 1.362 . S
H864 C870 0.930 . S
H865 C873 0.930 . S
H866 C874 0.930 1_545 S
H867 C875 0.930 . S
H868 C878 0.930 . S
H869 C879 0.930 1_565 S
C870 H864 0.930 . S
C870 C871 1.355 . S
C870 C872 1.415 . S
C871 C870 1.355 . S
C871 C873 1.419 . S
C872 C870 1.415 . S
C872 C877 1.425 1_565 S
C872 C879 1.409 1_565 S
C873 H865 0.930 . S
C873 C871 1.419 . S
C873 C874 1.362 . S
C874 H866 0.930 1_565 S
C874 C873 1.362 . S
C874 C877 1.409 1_565 S
C875 H867 0.930 . S
C875 C876 1.355 . S
C875 C877 1.415 . S
C876 C875 1.355 . S
C876 C878 1.419 . S
C877 C872 1.425 1_545 S
C877 C874 1.409 1_545 S
C877 C875 1.415 . S
C878 H868 0.930 . S
C878 C876 1.419 . S
C878 C879 1.362 . S
C879 H869 0.930 1_545 S
C879 C872 1.409 1_545 S
C879 C878 1.362 . S
H880 C886 0.930 . S
H881 C889 0.930 . S
H882 C890 0.930 . S
H883 C891 0.930 . S
H884 C894 0.930 . S
H885 C895 0.930 . S
C886 H880 0.930 . S
C886 C887 1.355 . S
C886 C888 1.415 . S
C887 C886 1.355 . S
C887 C889 1.419 . S
C888 C886 1.415 . S
C888 C893 1.425 . S
C888 C895 1.409 . S
C889 H881 0.930 . S
C889 C887 1.419 . S
C889 C890 1.362 . S
C890 H882 0.930 . S
C890 C889 1.362 . S
C890 C893 1.409 . S
C891 H883 0.930 . S
C891 C892 1.355 . S
C891 C893 1.415 . S
C892 C891 1.355 . S
C892 C894 1.419 . S
C893 C888 1.425 . S
C893 C890 1.409 . S
C893 C891 1.415 . S
C894 H884 0.930 . S
C894 C892 1.419 . S
C894 C895 1.362 . S
C895 H885 0.930 . S
C895 C888 1.409 . S
C895 C894 1.362 . S
H896 C902 0.930 . S
H897 C905 0.930 . S
H898 C906 0.930 . S
H899 C907 0.930 . S
H900 C910 0.930 . S
H901 C911 0.930 . S
C902 H896 0.930 . S
C902 C903 1.355 . S
C902 C904 1.415 . S
C903 C902 1.355 . S
C903 C905 1.419 . S
C904 C902 1.415 . S
C904 C909 1.425 1_655 S
C904 C911 1.409 1_655 S
C905 H897 0.930 . S
C905 C903 1.419 . S
C905 C906 1.362 . S
C906 H898 0.930 . S
C906 C905 1.362 . S
C906 C909 1.409 1_655 S
C907 H899 0.930 . S
C907 C908 1.355 . S
C907 C909 1.415 . S
C908 C907 1.355 . S
C908 C910 1.419 . S
C909 C904 1.425 1_455 S
C909 C906 1.409 1_455 S
C909 C907 1.415 . S
C910 H900 0.930 . S
C910 C908 1.419 . S
C910 C911 1.362 . S
C911 H901 0.930 . S
C911 C904 1.409 1_455 S
C911 C910 1.362 . S
H912 C918 0.930 . S
H913 C921 0.930 . S
H914 C922 0.930 1_565 S
H915 C923 0.930 . S
H916 C926 0.930 . S
H917 C927 0.930 1_545 S
C918 H912 0.930 . S
C918 C919 1.355 . S
C918 C920 1.415 . S
C919 C918 1.355 . S
C919 C921 1.419 . S
C920 C918 1.415 . S
C920 C925 1.425 1_545 S
C920 C927 1.409 1_545 S
C921 H913 0.930 . S
C921 C919 1.419 . S
C921 C922 1.362 . S
C922 H914 0.930 1_545 S
C922 C921 1.362 . S
C922 C925 1.409 1_545 S
C923 H915 0.930 . S
C923 C924 1.355 . S
C923 C925 1.415 . S
C924 C923 1.355 . S
C924 C926 1.419 . S
C925 C920 1.425 1_565 S
C925 C922 1.409 1_565 S
C925 C923 1.415 . S
C926 H916 0.930 . S
C926 C924 1.419 . S
C926 C927 1.362 . S
C927 H917 0.930 1_565 S
C927 C920 1.409 1_565 S
C927 C926 1.362 . S
H928 C934 0.930 . S
H929 C937 0.930 . S
H930 C938 0.930 . S
H931 C939 0.930 . S
H932 C942 0.930 . S
H933 C943 0.930 . S
C934 H928 0.930 . S
C934 C935 1.355 . S
C934 C936 1.415 . S
C935 C934 1.355 . S
C935 C937 1.419 . S
C936 C934 1.415 . S
C936 C941 1.425 . S
C936 C943 1.409 . S
C937 H929 0.930 . S
C937 C935 1.419 . S
C937 C938 1.362 . S
C938 H930 0.930 . S
C938 C937 1.362 . S
C938 C941 1.409 . S
C939 H931 0.930 . S
C939 C940 1.355 . S
C939 C941 1.415 . S
C940 C939 1.355 . S
C940 C942 1.419 . S
C941 C936 1.425 . S
C941 C938 1.409 . S
C941 C939 1.415 . S
C942 H932 0.930 . S
C942 C940 1.419 . S
C942 C943 1.362 . S
C943 H933 0.930 . S
C943 C936 1.409 . S
C943 C942 1.362 . S
H944 C950 0.930 . S
H945 C953 0.930 . S
H946 C954 0.930 . S
H947 C955 0.930 . S
H948 C958 0.930 . S
H949 C959 0.930 . S
C950 H944 0.930 . S
C950 C951 1.355 . S
C950 C952 1.423 . S
C951 C950 1.355 . S
C951 C953 1.419 . S
C952 C950 1.423 . S
C952 C957 1.432 1_455 S
C952 C959 1.397 1_455 S
C953 H945 0.930 . S
C953 C951 1.419 . S
C953 C954 1.362 . S
C954 H946 0.930 . S
C954 C953 1.362 . S
C954 C957 1.397 1_455 S
C955 H947 0.930 . S
C955 C956 1.355 . S
C955 C957 1.423 . S
C956 C955 1.355 . S
C956 C958 1.419 . S
C957 C952 1.432 1_655 S
C957 C954 1.397 1_655 S
C957 C955 1.423 . S
C958 H948 0.930 . S
C958 C956 1.419 . S
C958 C959 1.362 . S
C959 H949 0.930 . S
C959 C952 1.397 1_655 S
C959 C958 1.362 . S
H960 C966 0.930 . S
H961 C969 0.930 . S
H962 C970 0.930 . S
H963 C971 0.930 . S
H964 C974 0.930 . S
H965 C975 0.930 . S
C966 H960 0.930 . S
C966 C967 1.355 . S
C966 C968 1.415 . S
C967 C966 1.355 . S
C967 C969 1.419 . S
C968 C966 1.415 . S
C968 C973 1.425 . S
C968 C975 1.409 . S
C969 H961 0.930 . S
C969 C967 1.419 . S
C969 C970 1.362 . S
C970 H962 0.930 . S
C970 C969 1.362 . S
C970 C973 1.409 . S
C971 H963 0.930 . S
C971 C972 1.355 . S
C971 C973 1.415 . S
C972 C971 1.355 . S
C972 C974 1.419 . S
C973 C968 1.425 . S
C973 C970 1.409 . S
C973 C971 1.415 . S
C974 H964 0.930 . S
C974 C972 1.419 . S
C974 C975 1.362 . S
C975 H965 0.930 . S
C975 C968 1.409 . S
C975 C974 1.362 . S
H976 C982 0.930 . S
H977 C985 0.930 . S
H978 C986 0.930 . S
H979 C987 0.930 . S
H980 C990 0.930 . S
H981 C991 0.930 . S
C982 H976 0.930 . S
C982 C983 1.355 . S
C982 C984 1.415 . S
C983 C982 1.355 . S
C983 C985 1.419 . S
C984 C982 1.415 . S
C984 C989 1.425 . S
C984 C991 1.409 . S
C985 H977 0.930 . S
C985 C983 1.419 . S
C985 C986 1.362 . S
C986 H978 0.930 . S
C986 C985 1.362 . S
C986 C989 1.409 . S
C987 H979 0.930 . S
C987 C988 1.355 . S
C987 C989 1.415 . S
C988 C987 1.355 . S
C988 C990 1.419 . S
C989 C984 1.425 . S
C989 C986 1.409 . S
C989 C987 1.415 . S
C990 H980 0.930 . S
C990 C988 1.419 . S
C990 C991 1.362 . S
C991 H981 0.930 . S
C991 C984 1.409 . S
C991 C990 1.362 . S
H992 C998 0.930 . S
H993 C1001 0.930 . S
H994 C1002 0.930 . S
H995 C1003 0.930 . S
H996 C1006 0.930 . S
H997 C1007 0.930 . S
C998 H992 0.930 . S
C998 C999 1.355 . S
C998 C1000 1.415 . S
C999 C998 1.355 . S
C999 C1001 1.419 . S
C1000 C998 1.415 . S
C1000 C1005 1.425 . S
C1000 C1007 1.409 . S
C1001 H993 0.930 . S
C1001 C999 1.419 . S
C1001 C1002 1.362 . S
C1002 H994 0.930 . S
C1002 C1001 1.362 . S
C1002 C1005 1.409 . S
C1003 H995 0.930 . S
C1003 C1004 1.355 . S
C1003 C1005 1.415 . S
C1004 C1003 1.355 . S
C1004 C1006 1.419 . S
C1005 C1000 1.425 . S
C1005 C1002 1.409 . S
C1005 C1003 1.415 . S
C1006 H996 0.930 . S
C1006 C1004 1.419 . S
C1006 C1007 1.362 . S
C1007 H997 0.930 . S
C1007 C1000 1.409 . S
C1007 C1006 1.362 . S
H1008 C1014 0.930 . S
H1009 C1017 0.930 . S
H1010 C1018 0.930 . S
H1011 C1019 0.930 . S
H1012 C1022 0.930 . S
H1013 C1023 0.930 . S
C1014 H1008 0.930 . S
C1014 C1015 1.355 . S
C1014 C1016 1.415 . S
C1015 C1014 1.355 . S
C1015 C1017 1.419 . S
C1016 C1014 1.415 . S
C1016 C1021 1.425 . S
C1016 C1023 1.409 . S
C1017 H1009 0.930 . S
C1017 C1015 1.419 . S
C1017 C1018 1.362 . S
C1018 H1010 0.930 . S
C1018 C1017 1.362 . S
C1018 C1021 1.409 . S
C1019 H1011 0.930 . S
C1019 C1020 1.355 . S
C1019 C1021 1.415 . S
C1020 C1019 1.355 . S
C1020 C1022 1.419 . S
C1021 C1016 1.425 . S
C1021 C1018 1.409 . S
C1021 C1019 1.415 . S
C1022 H1012 0.930 . S
C1022 C1020 1.419 . S
C1022 C1023 1.362 . S
C1023 H1013 0.930 . S
C1023 C1016 1.409 . S
C1023 C1022 1.362 . S
H1024 C1030 0.930 . S
H1025 C1033 0.930 . S
H1026 C1034 0.930 . S
H1027 C1035 0.930 . S
H1028 C1038 0.930 . S
H1029 C1039 0.930 . S
C1030 H1024 0.930 . S
C1030 C1031 1.355 . S
C1030 C1032 1.415 . S
C1031 C1030 1.355 . S
C1031 C1033 1.419 . S
C1032 C1030 1.415 . S
C1032 C1037 1.425 . S
C1032 C1039 1.409 . S
C1033 H1025 0.930 . S
C1033 C1031 1.419 . S
C1033 C1034 1.362 . S
C1034 H1026 0.930 . S
C1034 C1033 1.362 . S
C1034 C1037 1.409 . S
C1035 H1027 0.930 . S
C1035 C1036 1.355 . S
C1035 C1037 1.415 . S
C1036 C1035 1.355 . S
C1036 C1038 1.419 . S
C1037 C1032 1.425 . S
C1037 C1034 1.409 . S
C1037 C1035 1.415 . S
C1038 H1028 0.930 . S
C1038 C1036 1.419 . S
C1038 C1039 1.362 . S
C1039 H1029 0.930 . S
C1039 C1032 1.409 . S
C1039 C1038 1.362 . S
H1040 C1046 0.930 . S
H1041 C1049 0.930 . S
H1042 C1050 0.930 . S
H1043 C1051 0.930 . S
H1044 C1054 0.930 . S
H1045 C1055 0.930 . S
C1046 H1040 0.930 . S
C1046 C1047 1.355 . S
C1046 C1048 1.415 . S
C1047 C1046 1.355 . S
C1047 C1049 1.419 . S
C1048 C1046 1.415 . S
C1048 C1053 1.425 . S
C1048 C1055 1.409 . S
C1049 H1041 0.930 . S
C1049 C1047 1.419 . S
C1049 C1050 1.362 . S
C1050 H1042 0.930 . S
C1050 C1049 1.362 . S
C1050 C1053 1.409 . S
C1051 H1043 0.930 . S
C1051 C1052 1.355 . S
C1051 C1053 1.415 . S
C1052 C1051 1.355 . S
C1052 C1054 1.419 . S
C1053 C1048 1.425 . S
C1053 C1050 1.409 . S
C1053 C1051 1.415 . S
C1054 H1044 0.930 . S
C1054 C1052 1.419 . S
C1054 C1055 1.362 . S
C1055 H1045 0.930 . S
C1055 C1048 1.409 . S
C1055 C1054 1.362 . S
C487 C23 1.012 . S
C492 C343 0.990 . S
C503 C63 0.997 . S
C508 C383 1.025 . S
C519 C103 1.036 . S
C524 C423 1.059 . S
C535 C463 1.065 . S
C540 C143 1.050 . S
C551 C183 0.987 . S
C556 C263 1.000 . S
C567 C303 1.042 . S
C572 C223 1.012 . S
C583 C404 1.521 . S
C588 C4 1.487 . S
C599 C444 1.471 . S
C604 C44 1.513 . S
C615 C84 1.499 . S
C620 C244 1.524 . S
C631 C284 1.519 . S
C636 C124 1.481 . S
C647 C324 1.486 . S
C652 C164 1.521 . S
C663 C204 1.507 . S
C668 C364 1.463 . S
C679 C300 4.481 . S
C684 C20 4.493 . S
C695 C340 4.491 . S
C700 C60 4.486 . S
C711 C380 4.494 . S
C716 C100 4.477 . S
C727 C140 4.477 . S
C732 C420 4.478 . S
C743 C180 4.493 . S
C748 C460 4.482 . S
C759 C220 4.486 . S
C764 C260 4.472 . S
C775 C2 1.069 . S
C780 C122 1.055 . S
C791 C42 1.020 . S
C796 C162 1.082 . S
C807 C82 1.041 . S
C812 C202 1.077 . S
C823 C362 1.051 . S
C828 C242 1.072 . S
C839 C282 1.039 . S
C844 C402 1.077 . S
C855 C442 1.056 . S
C860 C322 1.068 . S
C871 C305 0.821 . S
C876 C25 0.777 . S
C887 C345 0.954 . S
C892 C65 0.873 . S
C903 C105 0.894 . S
C908 C385 0.959 . S
C919 C425 0.789 . S
C924 C145 0.884 . S
C935 C465 0.783 . S
C940 C185 0.870 . S
C951 C225 0.930 . S
C956 C265 0.957 . S
C967 C31 4.634 . S
C972 C431 4.630 . S
C983 C71 4.636 . S
C988 C471 4.628 1_556 S
C999 C111 4.629 1_554 S
C1004 C271 4.635 . S
C1015 C151 4.634 . S
C1020 C311 4.631 . S
C1031 C191 4.635 . S
C1036 C351 4.628 1_556 S
C1047 C391 4.634 . S
C1052 C231 4.629 1_554 S
