# Generated by pormake.
# Topology rkf, (6)-cn, num edge types: 1
# Building blocks:
#     Node 0, Type 0, BuildingBlock: BETGAK_clean_sbu_0, # of connection points: 6
#     Node 1, Type 0, BuildingBlock: BETGAK_clean_sbu_0, # of connection points: 6
#     Node 2, Type 0, BuildingBlock: BETGAK_clean_sbu_0, # of connection points: 6
#     Node 3, Type 0, BuildingBlock: BETGAK_clean_sbu_0, # of connection points: 6
#     Node 4, Type 0, BuildingBlock: BETGAK_clean_sbu_0, # of connection points: 6
#     Node 5, Type 0, BuildingBlock: BETGAK_clean_sbu_0, # of connection points: 6
#     Edge 6, Type (0, 0), BuildingBlock: XIVTED_clean_linker_0, # of connection points: 2
#     Edge 7, Type (0, 0), BuildingBlock: XIVTED_clean_linker_0, # of connection points: 2
#     Edge 8, Type (0, 0), BuildingBlock: XIVTED_clean_linker_0, # of connection points: 2
#     Edge 9, Type (0, 0), BuildingBlock: XIVTED_clean_linker_0, # of connection points: 2
#     Edge 10, Type (0, 0), BuildingBlock: XIVTED_clean_linker_0, # of connection points: 2
#     Edge 11, Type (0, 0), BuildingBlock: XIVTED_clean_linker_0, # of connection points: 2
#     Edge 12, Type (0, 0), BuildingBlock: XIVTED_clean_linker_0, # of connection points: 2
#     Edge 13, Type (0, 0), BuildingBlock: XIVTED_clean_linker_0, # of connection points: 2
#     Edge 14, Type (0, 0), BuildingBlock: XIVTED_clean_linker_0, # of connection points: 2
#     Edge 15, Type (0, 0), BuildingBlock: XIVTED_clean_linker_0, # of connection points: 2
#     Edge 16, Type (0, 0), BuildingBlock: XIVTED_clean_linker_0, # of connection points: 2
#     Edge 17, Type (0, 0), BuildingBlock: XIVTED_clean_linker_0, # of connection points: 2
#     Edge 18, Type (0, 0), BuildingBlock: XIVTED_clean_linker_0, # of connection points: 2
#     Edge 19, Type (0, 0), BuildingBlock: XIVTED_clean_linker_0, # of connection points: 2
#     Edge 20, Type (0, 0), BuildingBlock: XIVTED_clean_linker_0, # of connection points: 2
#     Edge 21, Type (0, 0), BuildingBlock: XIVTED_clean_linker_0, # of connection points: 2
#     Edge 22, Type (0, 0), BuildingBlock: XIVTED_clean_linker_0, # of connection points: 2
#     Edge 23, Type (0, 0), BuildingBlock: XIVTED_clean_linker_0, # of connection points: 2
# Relax obj value: 0.735
# Max RMSD: 0.251
# Mean RMSD: 0.251
data_MOF--net-rkf--node1-BETGAK_clean_sbu_0--edge1-XIVTED_clean_linker_0
_symmetry_space_group_name_H-M    P1
_symmetry_Int_Tables_number       1
_symmetry_cell_setting            triclinic
loop_
_symmetry_equiv_pos_as_xyz
'x, y, z'
_cell_length_a     26.309075
_cell_length_b     26.173663
_cell_length_c     43.127055
_cell_angle_alpha  90.714433
_cell_angle_beta   89.707892
_cell_angle_gamma 120.16338
loop_
_atom_site_label
_atom_site_type_symbol
_atom_site_fract_x
_atom_site_fract_y
_atom_site_fract_z
_atom_type_partial_charge
La0 La 0.2403 0.0014 0.19256 0.0
La1 La 0.31562 0.12631 1.16747 0.0
C2 C 0.21415 0.90514 0.2181 0.0
C3 C 0.23078 0.88916 0.24726 0.0
C4 C 0.26871 0.93332 0.26802 0.0
C5 C 0.28213 0.91839 0.29648 0.0
C6 C 0.25867 0.85873 0.30467 0.0
C7 C 0.2233 0.81455 0.28288 0.0
C8 C 0.20924 0.82972 0.25446 0.0
C9 C 0.18407 0.05552 1.17697 0.0
C10 C 0.29441 0.11479 0.23975 0.0
C11 C 0.36702 0.22804 1.14463 0.0
C12 C 0.36369 0.26831 1.12263 0.0
C13 C 0.38913 0.32788 1.13143 0.0
C14 C 0.38529 0.368 1.11211 0.0
C15 C 0.35618 0.34919 1.08352 0.0
C16 C 0.33154 0.28953 1.07439 0.0
C17 C 0.33499 0.2491 1.09396 0.0
C18 C 0.37118 0.07307 0.18748 0.0
C19 C 0.23623 0.01744 1.12063 0.0
O20 O 0.18224 0.93064 0.22058 0.0
O21 O 0.25709 0.93192 0.19822 0.0
O22 O 0.15955 -0.00187 1.1757 0.0
O23 O 0.23365 0.07743 0.18894 0.0
O24 O 0.27374 0.05675 0.23612 0.0
O25 O 0.30789 0.14948 0.21536 0.0
O26 O 0.37338 0.18444 1.13392 0.0
O27 O 0.33077 0.21264 1.16809 0.0
O28 O 0.39166 0.12919 0.18981 0.0
O29 O 0.32448 0.05036 1.17224 0.0
O30 O 0.26208 0.07567 1.12607 0.0
O31 O 0.22969 -0.01989 1.14294 0.0
H32 H 0.2869 -0.02054 0.26262 0.0
H33 H 0.30855 0.95396 0.31259 0.0
H34 H 0.20517 0.76823 0.28806 0.0
H35 H 0.18076 0.79505 0.23835 0.0
H36 H 0.4115 0.3433 1.15353 0.0
H37 H 0.40504 0.41376 1.11954 0.0
H38 H 0.30833 0.27391 1.05254 0.0
H39 H 0.31476 0.20309 1.08693 0.0
La40 La 0.3509 0.31916 0.51804 0.0
La41 La 0.30141 0.39617 0.49899 0.0
C42 C 0.4245 0.291 0.53548 0.0
C43 C 0.45389 0.28764 0.56331 0.0
C44 C 0.43425 0.29215 0.59287 0.0
C45 C 0.45903 0.28235 0.61902 0.0
C46 C 0.50367 0.26785 0.61586 0.0
C47 C 0.52581 0.2675 0.5862 0.0
C48 C 0.50096 0.27731 0.56009 0.0
C49 C 0.23844 0.26276 0.50547 0.0
C50 C 0.30023 0.37017 0.57112 0.0
C51 C 0.24846 0.44795 0.48062 0.0
C52 C 0.20369 0.4453 0.45954 0.0
C53 C 0.16655 0.46522 0.4708 0.0
C54 C 0.1225 0.46292 0.45205 0.0
C55 C 0.11503 0.4409 0.42159 0.0
C56 C 0.15291 0.42167 0.41011 0.0
C57 C 0.19691 0.4236 0.42905 0.0
C58 C 0.41408 0.45129 0.51318 0.0
C59 C 0.32227 0.31714 0.44773 0.0
O60 O 0.36788 0.25351 0.5333 0.0
O61 O 0.43864 0.34427 0.5268 0.0
O62 O 0.27129 0.239 0.50173 0.0
O63 O 0.26747 0.31216 0.51845 0.0
O64 O 0.33086 0.34327 0.56457 0.0
O65 O 0.28194 0.39155 0.54876 0.0
O66 O 0.29854 0.45737 0.46896 0.0
O67 O 0.22926 0.40893 0.50273 0.0
O68 O 0.37943 0.47146 0.51954 0.0
O69 O 0.38601 0.40404 0.49795 0.0
O70 O 0.29261 0.34462 0.45539 0.0
O71 O 0.35572 0.31061 0.4682 0.0
H72 H 0.39817 0.30061 0.59564 0.0
H73 H 0.44032 0.28204 0.64149 0.0
H74 H 0.56032 0.25681 0.58312 0.0
H75 H 0.51696 0.2745 0.53729 0.0
H76 H 0.17143 0.48231 0.49429 0.0
H77 H 0.0943 0.47846 0.46137 0.0
H78 H 0.14758 0.40387 0.38678 0.0
H79 H 0.22509 0.40779 0.42002 0.0
La80 La 0.07312 0.3677 0.84174 0.0
La81 La -0.01072 0.24181 0.82337 0.0
C82 C 0.1162 0.47314 0.86021 0.0
C83 C 0.14197 0.50187 0.89008 0.0
C84 C 0.11785 0.47201 0.91787 0.0
C85 C 0.15201 0.48827 0.9447 0.0
C86 C 0.21095 0.53437 0.94406 0.0
C87 C 0.23216 0.56902 0.91729 0.0
C88 C 0.19784 0.55273 0.89042 0.0
C89 C 0.1151 0.29694 0.8491 0.0
C90 C -0.01844 0.27261 0.89288 0.0
C91 C 0.93515 0.13722 0.80296 0.0
C92 C 0.87573 0.08446 0.80373 0.0
C93 C 0.86732 0.03215 0.81711 0.0
C94 C 0.81402 -0.0208 0.81323 0.0
C95 C 0.76842 -0.02265 0.79538 0.0
C96 C 0.77577 0.03079 0.78389 0.0
C97 C 0.82863 0.08366 0.7881 0.0
C98 C 0.95034 0.31699 0.81859 0.0
C99 C 0.09046 0.32584 0.77676 0.0
O100 O 0.14624 0.45278 0.8457 0.0
O101 O 0.05962 0.4351 0.85971 0.0
O102 O 0.14816 0.35238 0.84286 0.0
O103 O 0.0633 0.28519 0.85333 0.0
O104 O 0.02077 0.3289 0.88581 0.0
O105 O -0.03464 0.22984 0.87194 0.0
O106 O -0.03416 0.15271 0.8287 0.0
O107 O 0.94115 0.18284 0.78764 0.0
O108 O 0.91872 0.26347 0.8285 0.0
O109 O 0.00018 0.32546 0.81156 0.0
O110 O 0.05986 0.27202 0.78838 0.0
O111 O 0.09211 0.37131 0.79172 0.0
H112 H 0.07473 0.43276 0.91829 0.0
H113 H 0.13413 0.46043 0.96483 0.0
H114 H 0.27703 0.60542 0.91629 0.0
H115 H 0.21708 0.5765 0.86919 0.0
H116 H 0.90291 0.03161 0.82936 0.0
H117 H 0.80969 0.93927 0.82296 0.0
H118 H 0.74241 0.03157 0.76966 0.0
H119 H 0.83347 0.1232 0.77755 0.0
La120 La 0.78744 0.13346 1.17841 0.0
La121 La 0.80289 0.02977 1.16388 0.0
C122 C 0.75244 0.20582 0.1874 0.0
C123 C 0.77058 0.25343 0.21095 0.0
C124 C 0.82701 0.3037 0.20974 0.0
C125 C 0.84995 0.3414 0.23531 0.0
C126 C 0.81682 0.33031 0.26266 0.0
C127 C 0.75787 0.284 0.2625 0.0
C128 C 0.73504 0.24571 0.23689 0.0
C129 C 0.89598 0.1566 0.18241 0.0
C130 C 0.80561 0.06302 0.23356 0.0
C131 C 0.81722 0.9463 1.14766 0.0
C132 C 0.82262 0.89544 1.13726 0.0
C133 C 0.86498 0.88426 1.1502 0.0
C134 C 0.86225 0.83 1.1447 0.0
C135 C 0.81663 0.78615 1.12651 0.0
C136 C 0.77607 0.79871 1.11258 0.0
C137 C 0.77899 0.85261 1.11786 0.0
C138 C 0.69614 0.00644 1.1786 0.0
C139 C 0.81495 0.11487 1.10784 0.0
O140 O 0.79269 0.21335 1.16708 0.0
O141 O 0.72431 0.15147 0.19775 0.0
O142 O 0.87536 0.18296 0.19961 0.0
O143 O 0.85767 0.12277 1.16355 0.0
O144 O 0.77857 0.09226 0.22492 0.0
O145 O 0.82934 0.0442 0.2125 0.0
O146 O 0.77453 0.95355 1.13725 0.0
O147 O 0.85535 -0.01076 1.16574 0.0
O148 O 0.71947 -0.02301 0.1888 0.0
O149 O 0.73156 0.04668 1.16137 0.0
O150 O 0.82306 0.07149 1.11776 0.0
O151 O 0.79617 0.14203 1.12716 0.0
H152 H 0.85541 0.31183 0.18991 0.0
H153 H 0.89551 0.37617 0.23431 0.0
H154 H 0.73047 0.27511 0.28282 0.0
H155 H 0.69092 0.208 0.23818 0.0
H156 H 0.8988 0.91644 1.16551 0.0
H157 H 0.89461 0.82172 1.15528 0.0
H158 H 0.74167 0.76665 1.0975 0.0
H159 H 0.7457 0.85974 1.10755 0.0
La160 La 0.7647 0.8548 0.51541 0.0
La161 La 0.89107 0.89371 0.50095 0.0
C162 C 0.65854 0.79213 0.53127 0.0
C163 C 0.6302 0.76637 0.56104 0.0
C164 C 0.65846 0.74942 0.58262 0.0
C165 C 0.63955 0.73915 0.61335 0.0
C166 C 0.59155 0.74511 0.62312 0.0
C167 C 0.55941 0.75552 0.60052 0.0
C168 C 0.57898 0.76664 0.56978 0.0
C169 C 0.83695 0.96781 0.5223 0.0
C170 C 0.85333 0.85387 0.56924 0.0
C171 C -0.00273 0.9396 0.48584 0.0
C172 C 0.04104 0.92064 0.48916 0.0
C173 C 0.09911 0.96152 0.49753 0.0
C174 C 0.14246 0.94543 0.4963 0.0
C175 C 0.12864 0.88853 0.48589 0.0
C176 C 0.06912 0.84648 0.48023 0.0
C177 C 0.02591 0.86222 0.48212 0.0
C178 C 0.81529 0.77981 0.49448 0.0
C179 C 0.81302 0.91327 0.45056 0.0
O180 O 0.68648 0.84993 0.53066 0.0
O181 O 0.68924 0.77072 0.51844 0.0
O182 O 0.78333 0.94622 0.51258 0.0
O183 O 0.8468 0.92694 0.52872 0.0
O184 O 0.79845 0.83818 0.56035 0.0
O185 O 0.89779 0.88065 0.54982 0.0
O186 O -0.01999 0.95389 0.51137 0.0
O187 O -0.04659 0.90726 0.46705 0.0
O188 O 0.86773 0.80058 0.50549 0.0
O189 O 0.80821 0.82196 0.48726 0.0
O190 O 0.86594 0.93256 0.46287 0.0
O191 O 0.76477 0.87484 0.46572 0.0
H192 H 0.69757 0.74794 0.57633 0.0
H193 H 0.66592 0.73152 0.62977 0.0
H194 H 0.52126 0.75876 0.60688 0.0
H195 H 0.55615 0.77899 0.55332 0.0
H196 H 0.11142 0.00653 0.50374 0.0
H197 H 0.18723 -0.02135 0.50194 0.0
H198 H 0.05577 0.80235 0.47192 0.0
H199 H -0.01891 0.8293 0.47624 0.0
La200 La 0.9507 0.78139 0.85777 0.0
La201 La 0.07719 0.82825 0.83976 0.0
C202 C 0.85179 0.70532 0.87826 0.0
C203 C 0.83562 0.66768 0.90565 0.0
C204 C 0.87981 0.67115 0.92498 0.0
C205 C 0.86549 0.63976 0.95248 0.0
C206 C 0.80628 0.60262 0.96105 0.0
C207 C 0.76214 0.59478 0.93981 0.0
C208 C 0.77673 0.62773 0.91254 0.0
C209 C 0.00825 0.89343 0.84496 0.0
C210 C 0.05236 0.83278 0.91129 0.0
C211 C 0.18332 0.87804 0.82411 0.0
C212 C 0.23376 0.91899 0.80541 0.0
C213 C 0.28459 0.96064 0.82121 0.0
C214 C 0.33521 -0.00125 0.80493 0.0
C215 C 0.33598 -0.00424 0.77247 0.0
C216 C 0.28512 0.95352 0.75659 0.0
C217 C 0.23422 0.91524 0.77298 0.0
C218 C 0.01644 0.7153 0.85498 0.0
C219 C -0.01963 0.80945 0.78713 0.0
O220 O 0.87532 0.76226 0.88367 0.0
O221 O 0.88118 0.69398 0.85743 0.0
O222 O 0.9514 0.86062 0.84119 0.0
O223 O 0.028 0.86465 0.85826 0.0
O224 O -0.00492 0.80316 0.90437 0.0
O225 O 0.09246 0.84962 0.88921 0.0
O226 O 0.14298 0.82745 0.81214 0.0
O227 O 0.16196 0.90116 0.84359 0.0
O228 O 0.07116 0.74996 0.86151 0.0
O229 O -0.00049 0.7438 0.83919 0.0
O230 O 0.03729 0.83503 0.79514 0.0
O231 O 0.93806 0.78102 0.80779 0.0
H232 H 0.92563 0.69968 0.91936 0.0
H233 H 0.90145 0.64813 0.96771 0.0
H234 H 0.71612 0.56512 0.9447 0.0
H235 H 0.74206 0.62298 0.89723 0.0
H236 H 0.28525 0.96342 0.84632 0.0
H237 H 0.37381 0.03048 0.81775 0.0
H238 H 0.28427 0.95096 0.7315 0.0
H239 H 0.19554 0.88305 0.76038 0.0
H240 H 0.94559 0.1649 1.1267 0.0
H241 H 0.21709 0.16326 0.20098 0.0
H242 H -0.01437 0.19573 0.2244 0.0
H243 H 0.09079 0.02881 1.13913 0.0
H244 H 0.16653 0.21926 0.19554 0.0
H245 H 0.03739 0.16547 1.11803 0.0
C246 C -0.02516 0.17378 1.14619 0.0
C247 C -0.04224 0.17795 1.17653 0.0
C248 C 0.1511 0.17835 0.18257 0.0
C249 C 0.06172 0.17921 1.16659 0.0
C250 C 0.17935 0.14612 0.18573 0.0
C251 C 0.15678 0.0908 1.17095 0.0
C252 C 0.10095 0.15542 1.16406 0.0
C253 C 0.10832 0.07067 1.15138 0.0
C254 C 0.02708 0.17444 1.14111 0.0
C255 C -0.00266 0.19118 0.20084 0.0
N256 N 0.08141 0.10299 1.14866 0.0
N257 N 0.04747 0.18976 0.19547 0.0
H258 H 0.91525 0.03273 0.56624 0.0
H259 H 0.16536 0.29781 0.52925 0.0
H260 H 0.86656 0.03811 0.47155 0.0
H261 H 0.167 0.1604 0.47358 0.0
H262 H 0.05788 0.24082 0.52991 0.0
H263 H 0.01009 0.12215 0.55733 0.0
C264 C 0.92399 0.05413 0.54392 0.0
C265 C 0.88383 0.02883 0.51956 0.0
C266 C 0.08203 0.22441 0.51676 0.0
C267 C -0.00833 0.12812 0.50899 0.0
C268 C 0.14305 0.25639 0.51647 0.0
C269 C 0.17463 0.23287 0.50179 0.0
C270 C 0.05296 0.16934 0.50186 0.0
C271 C 0.14387 0.17923 0.48557 0.0
C272 C -0.02226 0.10467 0.53885 0.0
C273 C 0.89692 0.05696 0.4908 0.0
N274 N 0.08421 0.14856 0.48637 0.0
N275 N 0.95117 0.10437 0.48583 0.0
H276 H 0.11315 0.96889 0.8716 0.0
H277 H 0.11014 0.23052 0.89716 0.0
H278 H -0.01814 0.96292 0.80963 0.0
H279 H 0.15324 0.25927 0.80008 0.0
H280 H 0.10514 0.13469 0.89283 0.0
H281 H 0.1647 0.07709 0.87051 0.0
C282 C 0.09593 -0.00962 0.85723 0.0
C283 C 0.04273 0.95747 0.84108 0.0
C284 C 0.11775 0.16301 0.87276 0.0
C285 C 0.10216 0.07981 0.83914 0.0
C286 C 0.12081 0.21743 0.87524 0.0
C287 C 0.13221 0.25209 0.84892 0.0
C288 C 0.12366 0.14271 0.84351 0.0
C289 C 0.14427 0.23317 0.82077 0.0
C290 C 0.12551 0.05176 0.85656 0.0
C291 C 0.02228 -0.01288 0.82275 0.0
N292 N 0.13741 0.17825 0.81842 0.0
N293 N 0.05197 0.0471 0.82245 0.0
H294 H 0.3755 0.36625 1.02124 0.0
H295 H 0.32005 0.54856 0.93477 0.0
H296 H 0.32162 0.4275 1.10134 0.0
H297 H 0.19548 0.52149 1.00732 0.0
H298 H 0.37258 0.51992 0.97026 0.0
H299 H 0.35768 0.43135 0.98877 0.0
C300 C 0.36063 0.39408 1.03198 0.0
C301 C 0.34975 0.39145 1.06389 0.0
C302 C 0.33397 0.52059 0.97849 0.0
C303 C 0.33062 0.46718 1.02717 0.0
C304 C 0.30454 0.53824 0.95843 0.0
C305 C 0.25225 0.53601 0.96785 0.0
C306 C 0.31056 0.49995 1.008 0.0
C307 C 0.23463 0.52219 0.99885 0.0
C308 C 0.35141 0.43204 1.01355 0.0
C309 C 0.33084 0.42858 1.07679 0.0
N310 N 0.26313 0.50356 1.01771 0.0
N311 N 0.32089 0.46424 1.05828 0.0
H312 H 0.00064 0.39798 0.43861 0.0
H313 H 0.79676 0.28227 0.32071 0.0
H314 H 0.11881 0.47303 0.36109 0.0
H315 H 0.90816 0.44465 0.27211 0.0
H316 H 0.8635 0.31974 0.36444 0.0
H317 H 0.91907 0.38356 0.40552 0.0
C318 C 0.00946 0.41191 0.41468 0.0
C319 C 0.06631 0.43585 0.40235 0.0
C320 C 0.87243 0.34805 0.34465 0.0
C321 C -0.02664 0.41882 0.36446 0.0
C322 C 0.83398 0.32673 0.31951 0.0
C323 C 0.84722 0.35969 0.29216 0.0
C324 C 0.92494 0.40235 0.34232 0.0
C325 C 0.89707 0.4167 0.29221 0.0
C326 C -0.03713 0.40329 0.39582 0.0
C327 C 0.07537 0.45324 0.37126 0.0
N328 N 0.93509 0.4355 0.31652 0.0
N329 N 0.02924 0.44414 0.35329 0.0
H330 H 0.76758 0.8741 0.78141 0.0
H331 H 0.5559 0.81709 0.65092 0.0
H332 H 0.65394 0.949 0.78322 0.0
H333 H 0.6088 0.68992 0.67309 0.0
H334 H 0.57343 0.85142 0.70422 0.0
H335 H 0.69636 0.79357 0.74923 0.0
C336 C 0.72689 0.87293 0.77599 0.0
C337 C 0.71808 0.92005 0.78425 0.0
C338 C 0.57975 0.81489 0.69771 0.0
C339 C 0.63688 0.82826 0.74615 0.0
C340 C 0.5693 0.79473 0.66706 0.0
C341 C 0.58309 0.75186 0.65687 0.0
C342 C 0.60561 0.79325 0.71818 0.0
C343 C 0.60031 0.72509 0.67938 0.0
C344 C 0.6861 0.8267 0.75732 0.0
C345 C 0.66407 0.91524 0.77625 0.0
N346 N 0.613 0.74755 0.70872 0.0
N347 N 0.62637 0.87128 0.75683 0.0
H348 H 0.71825 0.67668 1.128 0.0
H349 H 0.87092 0.57851 1.00355 0.0
H350 H 0.9044 0.76392 1.10965 0.0
H351 H 0.70718 0.5785 0.99502 0.0
H352 H 0.86877 0.59379 1.05937 0.0
H353 H 0.70511 0.59051 1.0985 0.0
C354 C 0.75665 0.67684 1.11869 0.0
C355 C 0.81211 0.72837 1.11989 0.0
C356 C 0.83229 0.58795 1.04521 0.0
C357 C 0.79734 0.63016 1.08664 0.0
C358 C 0.83377 0.58025 1.0132 0.0
C359 C 0.79182 0.58242 0.99388 0.0
C360 C 0.78735 0.59542 1.05791 0.0
C361 C 0.7423 0.57936 1.0083 0.0
C362 C 0.74912 0.62751 1.10211 0.0
C363 C 0.86065 0.72563 1.10848 0.0
N364 N 0.74228 0.58764 1.03938 0.0
N365 N 0.85193 0.67785 1.09144 0.0
H366 H 0.12689 0.78139 0.48276 0.0
H367 H 0.35234 0.91777 0.34509 0.0
H368 H 0.23932 0.96717 0.46359 0.0
H369 H 0.17762 0.76528 0.33937 0.0
H370 H 0.34443 0.91439 0.40161 0.0
H371 H 0.18189 0.75879 0.44458 0.0
C372 C 0.16387 0.81766 0.47129 0.0
C373 C 0.17545 0.87614 0.47493 0.0
C374 C 0.30895 0.88036 0.38784 0.0
C375 C 0.24043 0.85036 0.43274 0.0
C376 C 0.31297 0.88259 0.35557 0.0
C377 C 0.26422 0.84383 0.33727 0.0
C378 C 0.25633 0.83847 0.40178 0.0
C379 C 0.21586 0.79724 0.35227 0.0
C380 C 0.19568 0.80453 0.44982 0.0
C381 C 0.22675 0.92118 0.46104 0.0
N382 N 0.21252 0.79677 0.38369 0.0
N383 N 0.25637 0.90722 0.43994 0.0
H384 H 0.38829 -0.02362 0.72215 0.0
H385 H 0.52381 0.30658 0.67648 0.0
H386 H 0.40258 0.1144 0.7836 0.0
H387 H 0.51463 0.1697 0.61591 0.0
H388 H 0.51145 0.24467 0.721 0.0
H389 H 0.46278 0.05159 0.68866 0.0
C390 C 0.40775 0.02252 0.72877 0.0
C391 C 0.38816 0.03936 0.75514 0.0
C392 C 0.51385 0.22882 0.69803 0.0
C393 C 0.47297 0.12555 0.71703 0.0
C394 C 0.52093 0.26422 0.67263 0.0
C395 C 0.51807 0.24232 0.64247 0.0
C396 C 0.50273 0.17092 0.693 0.0
C397 C 0.51602 0.18797 0.63875 0.0
C398 C 0.45061 0.06545 0.70983 0.0
C399 C 0.41596 0.09953 0.76325 0.0
N400 N 0.50665 0.15334 0.66369 0.0
N401 N 0.45604 0.14055 0.74388 0.0
H402 H 0.45837 0.10729 0.22996 0.0
H403 H 0.61257 -0.01815 1.13603 0.0
H404 H 0.36021 0.97347 1.16064 0.0
H405 H 0.64653 0.00468 0.23432 0.0
H406 H 0.51816 -0.02341 1.14486 0.0
H407 H 0.52627 0.06929 0.23429 0.0
C408 C 0.45057 0.06913 0.21616 0.0
C409 C 0.40472 0.04396 0.19452 0.0
C410 C 0.54548 -0.01884 1.16461 0.0
C411 C 0.48179 0.00121 0.199 0.0
C412 C 0.59923 -0.01548 1.15954 0.0
C413 C 0.63648 -0.00627 0.18454 0.0
C414 C 0.53045 -0.01043 0.19473 0.0
C415 C 0.61822 -0.00267 0.21461 0.0
C416 C 0.48885 0.04723 0.21882 0.0
C417 C 0.39562 -0.00571 1.17737 0.0
N418 N 0.56678 -0.00314 0.21889 0.0
N419 N 0.43495 -0.0246 0.17935 0.0
H420 H 0.47934 0.53797 0.55508 0.0
H421 H 0.74166 0.70991 0.44942 0.0
H422 H 0.49455 0.44798 0.47424 0.0
H423 H 0.77635 0.71507 0.54727 0.0
H424 H 0.64836 0.61742 0.45658 0.0
H425 H 0.5856 0.60802 0.55282 0.0
C426 C 0.50534 0.5325 0.53719 0.0
C427 C 0.47852 0.48764 0.5147 0.0
C428 C 0.67712 0.63801 0.47633 0.0
C429 C 0.59883 0.56764 0.51165 0.0
C430 C 0.73011 0.6905 0.47225 0.0
C431 C 0.76648 0.71917 0.49774 0.0
C432 C 0.65954 0.61573 0.5063 0.0
C433 C 0.74952 0.69336 0.52704 0.0
C434 C 0.56575 0.5721 0.53604 0.0
C435 C 0.51381 0.48214 0.49196 0.0
N436 N 0.69625 0.64364 0.53073 0.0
N437 N 0.57214 0.5227 0.49053 0.0
H438 H 0.90715 0.33969 0.87158 0.0
H439 H 0.03065 0.64586 0.89641 0.0
H440 H -0.02793 0.40648 0.78031 0.0
H441 H 0.94208 0.63828 0.81117 0.0
H442 H -0.00265 0.54005 0.89032 0.0
H443 H 0.90966 0.43305 0.88458 0.0
C444 C 0.92002 0.37323 0.85403 0.0
C445 C 0.93923 0.36582 0.82482 0.0
C446 C -0.01599 0.56135 0.87343 0.0
C447 C 0.9419 0.47124 0.83933 0.0
C448 C 0.00322 0.62153 0.87678 0.0
C449 C -0.01095 0.65047 0.85423 0.0
C450 C -0.04807 0.53068 0.84692 0.0
C451 C -0.0463 0.61735 0.8291 0.0
C452 C 0.92202 0.42642 0.86154 0.0
C453 C -0.04319 0.41081 0.80302 0.0
N454 N 0.93763 0.55943 0.82566 0.0
N455 N -0.04241 0.46168 0.81068 0.0
H456 H 0.29533 0.07282 0.29878 0.0
H457 H 0.28323 0.33678 0.39136 0.0
H458 H 0.29741 0.21909 0.25263 0.0
H459 H 0.34377 0.2278 0.43286 0.0
H460 H 0.27455 0.28636 0.34121 0.0
H461 H 0.29962 0.12089 0.34905 0.0
C462 C 0.29658 0.11482 0.29911 0.0
C463 C 0.29658 0.14188 0.27114 0.0
C464 C 0.28973 0.27357 0.36137 0.0
C465 C 0.30044 0.197 0.3289 0.0
C466 C 0.29457 0.30236 0.39006 0.0
C467 C 0.31494 0.28735 0.41658 0.0
C468 C 0.30407 0.22839 0.35914 0.0
C469 C 0.32864 0.24184 0.41319 0.0
C470 C 0.29912 0.14239 0.32787 0.0
C471 C 0.29804 0.19651 0.27335 0.0
N472 N 0.32275 0.21411 0.38531 0.0
N473 N 0.29962 0.22186 0.30147 0.0
H474 H 0.26343 0.44309 0.59634 0.0
H475 H 0.1124 0.24603 0.74602 0.0
H476 H 0.28332 0.29441 0.6196 0.0
H477 H 0.14665 0.42484 0.73927 0.0
H478 H 0.16832 0.25973 0.69827 0.0
H479 H 0.21596 0.43478 0.64658 0.0
C480 C 0.25846 0.40899 0.61211 0.0
C481 C 0.278 0.36961 0.60347 0.0
C482 C 0.16386 0.29611 0.70723 0.0
C483 C 0.22171 0.35891 0.66135 0.0
C484 C 0.13162 0.28834 0.73461 0.0
C485 C 0.12452 0.33439 0.74713 0.0
C486 C 0.18876 0.35009 0.69147 0.0
C487 C 0.15075 0.38798 0.7308 0.0
C488 C 0.23114 0.40426 0.64089 0.0
C489 C 0.26971 0.32622 0.62513 0.0
N490 N 0.1811 0.39412 0.70386 0.0
N491 N 0.24173 0.32164 0.65273 0.0
H492 H -0.01881 0.3402 0.9441 0.0
H493 H 0.83656 0.06063 1.05866 0.0
H494 H 0.92671 0.161 0.91638 0.0
H495 H 0.84221 0.22357 1.08312 0.0
H496 H 0.87692 0.101 1.00774 0.0
H497 H 0.93884 0.30355 0.99609 0.0
C498 C -0.03936 0.29342 0.94878 0.0
C499 C -0.0423 0.25396 0.92535 0.0
C500 C 0.86914 0.12807 1.02408 0.0
C501 C 0.90931 0.21156 0.98516 0.0
C502 C 0.84582 0.10482 1.05334 0.0
C503 C 0.83512 0.13818 1.07551 0.0
C504 C 0.88325 0.18596 1.01651 0.0
C505 C 0.84884 0.19563 1.06686 0.0
C506 C 0.9362 0.27242 0.97851 0.0
C507 C 0.93013 0.19362 0.9332 0.0
N508 N 0.87242 0.21772 1.03829 0.0
N509 N 0.90762 0.17472 0.96207 0.0
H510 H 0.88888 0.04572 0.26135 0.0
H511 H 0.71638 0.90786 0.42061 0.0
H512 H 0.72678 0.04208 0.28214 0.0
H513 H 0.90154 0.97285 0.40823 0.0
H514 H 0.7141 0.94784 0.36935 0.0
H515 H 0.88952 0.0113 0.31371 0.0
C516 C 0.85343 0.03809 0.27698 0.0
C517 C 0.8079 0.04745 0.26699 0.0
C518 C 0.75521 0.95341 0.37792 0.0
C519 C 0.80767 0.006 0.32776 0.0
C520 C 0.75653 0.93028 0.40723 0.0
C521 C 0.80925 0.93657 0.41916 0.0
C522 C 0.80674 -0.01764 0.35987 0.0
C523 C 0.85973 0.96659 0.40042 0.0
C524 C 0.85385 0.01826 0.30706 0.0
C525 C 0.76322 0.0363 0.28869 0.0
N526 N 0.85706 -0.01234 0.37197 0.0
N527 N 0.76389 0.01567 0.31777 0.0
H528 H 0.78035 0.80227 0.62103 0.0
H529 H 0.04979 0.86309 0.73526 0.0
H530 H -0.03807 0.88492 0.59281 0.0
H531 H 0.86843 0.76936 0.76417 0.0
H532 H 0.01764 0.87254 0.68329 0.0
H533 H 0.81022 0.79067 0.67353 0.0
C534 C 0.82628 0.8179 0.62565 0.0
C535 C 0.86826 0.84465 0.60192 0.0
C536 C -0.01525 0.84978 0.70097 0.0
C537 C 0.90325 0.83168 0.66253 0.0
C538 C 0.00326 0.84432 0.73082 0.0
C539 C -0.03785 0.81515 0.75459 0.0
C540 C 0.92442 0.82622 0.69439 0.0
C541 C 0.90222 0.79209 0.74691 0.0
C542 C 0.84346 0.81129 0.65577 0.0
C543 C 0.92738 0.86401 0.60987 0.0
N544 N 0.88539 0.79815 0.71781 0.0
N545 N 0.94277 0.85727 0.6391 0.0
H546 H 0.00749 0.87668 0.95594 0.0
H547 H 0.23583 0.92453 1.09034 0.0
H548 H 0.14863 0.84104 0.94052 0.0
H549 H 0.1762 0.04932 1.07945 0.0
H550 H 0.18954 0.87813 1.04055 0.0
H551 H 0.05252 0.92364 1.00626 0.0
C552 C 0.0472 0.87757 0.96334 0.0
C553 C 0.07383 0.85414 0.94387 0.0
C554 C 0.18664 0.91574 1.04897 0.0
C555 C 0.12569 0.9079 1.00175 0.0
C556 C 0.21316 0.9424 1.07745 0.0
C557 C 0.21078 -0.0084 1.08916 0.0
C558 C 0.15529 0.93672 1.03216 0.0
C559 C 0.18012 0.01218 1.07126 0.0
C560 C 0.07329 0.90506 0.99194 0.0
C561 C 0.12616 0.85801 0.95466 0.0
N562 N 0.1531 -0.01565 1.04398 0.0
N563 N 0.14982 0.88361 0.98276 0.0
loop_
_geom_bond_atom_site_label_1
_geom_bond_atom_site_label_2
_geom_bond_distance
_geom_bond_site_symmetry_2
_ccdc_geom_bond_type
La0 C2 2.928 . S
La0 O20 2.521 . S
La0 O21 2.628 . S
La0 O22 2.554 . S
La0 O23 2.731 1_554 S
La0 O24 2.470 . S
La0 O29 2.482 . S
La0 O31 2.503 1_554 S
La1 C11 2.928 . S
La1 O23 2.493 . S
La1 O25 2.503 1_556 S
La1 O26 2.521 . S
La1 O27 2.628 . S
La1 O28 2.554 . S
La1 O29 2.757 1_556 S
La1 O30 2.470 . S
C2 La0 2.928 . S
C2 C3 1.503 . S
C2 O20 1.261 . S
C2 O21 1.243 . S
C3 C2 1.503 . S
C3 C4 1.394 . S
C3 C8 1.373 . S
C4 C3 1.394 . S
C4 C5 1.380 1_545 S
C4 H32 0.931 1_545 S
C5 C4 1.380 1_565 S
C5 C6 1.376 1_565 S
C5 H33 0.930 . S
C6 C5 1.376 1_545 S
C6 C7 1.370 . S
C7 C6 1.370 . S
C7 C8 1.396 . S
C7 H34 0.929 . S
C8 C3 1.373 . S
C8 C7 1.396 . S
C8 H35 0.929 . S
C9 O22 1.240 . S
C9 O23 1.273 1_554 S
C10 O24 1.258 . S
C10 O25 1.256 . S
C11 La1 2.928 . S
C11 C12 1.503 . S
C11 O26 1.261 . S
C11 O27 1.243 . S
C12 C11 1.503 . S
C12 C13 1.394 . S
C12 C17 1.373 . S
C13 C12 1.394 . S
C13 C14 1.380 . S
C13 H36 0.930 . S
C14 C13 1.380 . S
C14 C15 1.376 . S
C14 H37 0.930 . S
C15 C14 1.376 . S
C15 C16 1.370 . S
C16 C15 1.370 . S
C16 C17 1.396 . S
C16 H38 0.929 . S
C17 C12 1.373 . S
C17 C16 1.396 . S
C17 H39 0.929 . S
C18 O28 1.240 1_554 S
C18 O29 1.289 . S
C19 O30 1.258 . S
C19 O31 1.256 . S
O20 La0 2.521 . S
O20 C2 1.261 . S
O21 La0 2.628 . S
O21 C2 1.243 . S
O22 La0 2.554 . S
O22 C9 1.240 . S
O23 La0 2.731 1_556 S
O23 La1 2.493 . S
O23 C9 1.273 1_556 S
O24 La0 2.470 . S
O24 C10 1.258 . S
O25 La1 2.503 1_554 S
O25 C10 1.256 . S
O26 La1 2.521 . S
O26 C11 1.261 . S
O27 La1 2.628 . S
O27 C11 1.243 . S
O28 La1 2.554 . S
O28 C18 1.240 1_556 S
O29 La0 2.482 . S
O29 La1 2.757 1_554 S
O29 C18 1.289 . S
O30 La1 2.470 . S
O30 C19 1.258 . S
O31 La0 2.503 1_556 S
O31 C19 1.256 . S
H32 C4 0.931 1_565 S
H33 C5 0.930 . S
H34 C7 0.929 . S
H35 C8 0.929 . S
H36 C13 0.930 . S
H37 C14 0.930 . S
H38 C16 0.929 . S
H39 C17 0.929 . S
La40 C42 2.928 . S
La40 O60 2.521 . S
La40 O61 2.628 . S
La40 O62 2.554 . S
La40 O63 2.757 . S
La40 O64 2.470 . S
La40 O69 2.482 . S
La40 O71 2.503 . S
La41 C51 2.928 . S
La41 O63 2.482 . S
La41 O65 2.503 . S
La41 O66 2.521 . S
La41 O67 2.628 . S
La41 O68 2.554 . S
La41 O69 2.757 . S
La41 O70 2.470 . S
C42 La40 2.928 . S
C42 C43 1.503 . S
C42 O60 1.261 . S
C42 O61 1.243 . S
C43 C42 1.503 . S
C43 C44 1.394 . S
C43 C48 1.373 . S
C44 C43 1.394 . S
C44 C45 1.380 . S
C44 H72 0.930 . S
C45 C44 1.380 . S
C45 C46 1.376 . S
C45 H73 0.930 . S
C46 C45 1.376 . S
C46 C47 1.370 . S
C47 C46 1.370 . S
C47 C48 1.396 . S
C47 H74 0.929 . S
C48 C43 1.373 . S
C48 C47 1.396 . S
C48 H75 0.929 . S
C49 O62 1.240 . S
C49 O63 1.289 . S
C50 O64 1.258 . S
C50 O65 1.256 . S
C51 La41 2.928 . S
C51 C52 1.503 . S
C51 O66 1.261 . S
C51 O67 1.243 . S
C52 C51 1.503 . S
C52 C53 1.394 . S
C52 C57 1.373 . S
C53 C52 1.394 . S
C53 C54 1.380 . S
C53 H76 0.930 . S
C54 C53 1.380 . S
C54 C55 1.376 . S
C54 H77 0.930 . S
C55 C54 1.376 . S
C55 C56 1.370 . S
C56 C55 1.370 . S
C56 C57 1.396 . S
C56 H78 0.929 . S
C57 C52 1.373 . S
C57 C56 1.396 . S
C57 H79 0.929 . S
C58 O68 1.240 . S
C58 O69 1.289 . S
C59 O70 1.258 . S
C59 O71 1.256 . S
O60 La40 2.521 . S
O60 C42 1.261 . S
O61 La40 2.628 . S
O61 C42 1.243 . S
O62 La40 2.554 . S
O62 C49 1.240 . S
O63 La40 2.757 . S
O63 La41 2.482 . S
O63 C49 1.289 . S
O64 La40 2.470 . S
O64 C50 1.258 . S
O65 La41 2.503 . S
O65 C50 1.256 . S
O66 La41 2.521 . S
O66 C51 1.261 . S
O67 La41 2.628 . S
O67 C51 1.243 . S
O68 La41 2.554 . S
O68 C58 1.240 . S
O69 La40 2.482 . S
O69 La41 2.757 . S
O69 C58 1.289 . S
O70 La41 2.470 . S
O70 C59 1.258 . S
O71 La40 2.503 . S
O71 C59 1.256 . S
H72 C44 0.930 . S
H73 C45 0.930 . S
H74 C47 0.929 . S
H75 C48 0.929 . S
H76 C53 0.930 . S
H77 C54 0.930 . S
H78 C56 0.929 . S
H79 C57 0.929 . S
La80 C82 2.928 . S
La80 O100 2.521 . S
La80 O101 2.628 . S
La80 O102 2.554 . S
La80 O103 2.762 . S
La80 O104 2.470 1_455 S
La80 O109 2.469 1_455 S
La80 O111 2.503 . S
La81 C91 2.928 . S
La81 O103 2.464 1_655 S
La81 O105 2.503 . S
La81 O106 2.521 . S
La81 O107 2.628 . S
La81 O108 2.554 . S
La81 O109 2.761 . S
La81 O110 2.470 1_655 S
C82 La80 2.928 . S
C82 C83 1.503 . S
C82 O100 1.261 . S
C82 O101 1.243 . S
C83 C82 1.503 . S
C83 C84 1.394 . S
C83 C88 1.373 . S
C84 C83 1.394 . S
C84 C85 1.380 . S
C84 H112 0.930 . S
C85 C84 1.380 . S
C85 C86 1.376 . S
C85 H113 0.930 . S
C86 C85 1.376 . S
C86 C87 1.370 . S
C87 C86 1.370 . S
C87 C88 1.396 . S
C87 H114 0.929 . S
C88 C83 1.373 . S
C88 C87 1.396 . S
C88 H115 0.929 . S
C89 O102 1.240 . S
C89 O103 1.304 . S
C90 O104 1.258 . S
C90 O105 1.256 . S
C91 La81 2.928 . S
C91 C92 1.503 . S
C91 O106 1.261 . S
C91 O107 1.243 . S
C92 C91 1.503 . S
C92 C93 1.394 . S
C92 C97 1.373 . S
C93 C92 1.394 . S
C93 C94 1.380 . S
C93 H116 0.930 . S
C94 C93 1.380 . S
C94 C95 1.376 . S
C94 H117 0.930 . S
C95 C94 1.376 . S
C95 C96 1.370 . S
C96 C95 1.370 . S
C96 C97 1.396 . S
C96 H118 0.929 . S
C97 C92 1.373 . S
C97 C96 1.396 . S
C97 H119 0.929 . S
C98 O108 1.240 . S
C98 O109 1.300 . S
C99 O110 1.258 . S
C99 O111 1.256 . S
O100 La80 2.521 . S
O100 C82 1.261 . S
O101 La80 2.628 . S
O101 C82 1.243 . S
O102 La80 2.554 . S
O102 C89 1.240 . S
O103 La80 2.762 . S
O103 La81 2.464 1_455 S
O103 C89 1.304 . S
O104 La80 2.470 1_655 S
O104 C90 1.258 . S
O105 La81 2.503 . S
O105 C90 1.256 . S
O106 La81 2.521 . S
O106 C91 1.261 . S
O107 La81 2.628 . S
O107 C91 1.243 . S
O108 La81 2.554 . S
O108 C98 1.240 . S
O109 La80 2.469 1_655 S
O109 La81 2.761 . S
O109 C98 1.300 . S
O110 La81 2.470 1_455 S
O110 C99 1.258 . S
O111 La80 2.503 . S
O111 C99 1.256 . S
H112 C84 0.930 . S
H113 C85 0.930 . S
H114 C87 0.929 . S
H115 C88 0.929 . S
H116 C93 0.930 . S
H117 C94 0.930 . S
H118 C96 0.929 . S
H119 C97 0.929 . S
La120 C122 2.928 . S
La120 O140 2.521 . S
La120 O141 2.628 . S
La120 O142 2.554 . S
La120 O143 2.732 1_554 S
La120 O144 2.470 1_545 S
La120 O149 2.482 . S
La120 O151 2.503 1_554 S
La121 C131 2.928 . S
La121 O143 2.493 1_565 S
La121 O145 2.503 1_556 S
La121 O146 2.521 . S
La121 O147 2.628 . S
La121 O148 2.554 . S
La121 O149 2.757 1_566 S
La121 O150 2.470 1_565 S
C122 La120 2.928 . S
C122 C123 1.503 . S
C122 O140 1.261 . S
C122 O141 1.243 . S
C123 C122 1.503 . S
C123 C124 1.394 . S
C123 C128 1.373 . S
C124 C123 1.394 . S
C124 C125 1.380 . S
C124 H152 0.930 . S
C125 C124 1.380 . S
C125 C126 1.376 . S
C125 H153 0.930 . S
C126 C125 1.376 . S
C126 C127 1.370 . S
C127 C126 1.370 . S
C127 C128 1.396 . S
C127 H154 0.929 . S
C128 C123 1.373 . S
C128 C127 1.396 . S
C128 H155 0.929 . S
C129 O142 1.240 . S
C129 O143 1.273 1_554 S
C130 O144 1.258 . S
C130 O145 1.256 . S
C131 La121 2.928 . S
C131 C132 1.503 . S
C131 O146 1.261 . S
C131 O147 1.243 . S
C132 C131 1.503 . S
C132 C133 1.394 . S
C132 C137 1.373 . S
C133 C132 1.394 . S
C133 C134 1.380 . S
C133 H156 0.930 . S
C134 C133 1.380 . S
C134 C135 1.376 . S
C134 H157 0.930 . S
C135 C134 1.376 . S
C135 C136 1.370 . S
C136 C135 1.370 . S
C136 C137 1.396 . S
C136 H158 0.929 . S
C137 C132 1.373 . S
C137 C136 1.396 . S
C137 H159 0.929 . S
C138 O148 1.240 1_554 S
C138 O149 1.289 1_565 S
C139 O150 1.258 . S
C139 O151 1.256 . S
O140 La120 2.521 . S
O140 C122 1.261 . S
O141 La120 2.628 . S
O141 C122 1.243 . S
O142 La120 2.554 . S
O142 C129 1.240 . S
O143 La120 2.732 1_556 S
O143 La121 2.493 1_545 S
O143 C129 1.273 1_556 S
O144 La120 2.470 1_565 S
O144 C130 1.258 . S
O145 La121 2.503 1_554 S
O145 C130 1.256 . S
O146 La121 2.521 . S
O146 C131 1.261 . S
O147 La121 2.628 . S
O147 C131 1.243 . S
O148 La121 2.554 . S
O148 C138 1.240 1_556 S
O149 La120 2.482 . S
O149 La121 2.757 1_544 S
O149 C138 1.289 1_545 S
O150 La121 2.470 1_545 S
O150 C139 1.258 . S
O151 La120 2.503 1_556 S
O151 C139 1.256 . S
H152 C124 0.930 . S
H153 C125 0.930 . S
H154 C127 0.929 . S
H155 C128 0.929 . S
H156 C133 0.930 . S
H157 C134 0.930 . S
H158 C136 0.929 . S
H159 C137 0.929 . S
La160 C162 2.928 . S
La160 O180 2.521 . S
La160 O181 2.628 . S
La160 O182 2.554 . S
La160 O183 2.757 . S
La160 O184 2.470 . S
La160 O189 2.482 . S
La160 O191 2.503 . S
La161 C171 2.928 . S
La161 O183 2.482 . S
La161 O185 2.503 . S
La161 O186 2.521 . S
La161 O187 2.628 1_655 S
La161 O188 2.554 . S
La161 O189 2.757 . S
La161 O190 2.470 . S
C162 La160 2.928 . S
C162 C163 1.503 . S
C162 O180 1.261 . S
C162 O181 1.243 . S
C163 C162 1.503 . S
C163 C164 1.394 . S
C163 C168 1.373 . S
C164 C163 1.394 . S
C164 C165 1.380 . S
C164 H192 0.930 . S
C165 C164 1.380 . S
C165 C166 1.376 . S
C165 H193 0.930 . S
C166 C165 1.376 . S
C166 C167 1.370 . S
C167 C166 1.370 . S
C167 C168 1.396 . S
C167 H194 0.929 . S
C168 C163 1.373 . S
C168 C167 1.396 . S
C168 H195 0.929 . S
C169 O182 1.240 1_455 S
C169 O183 1.289 1_455 S
C170 O184 1.258 . S
C170 O185 1.256 . S
C171 La161 2.928 . S
C171 C172 1.503 1_655 S
C171 O186 1.261 . S
C171 O187 1.243 1_655 S
C172 C171 1.503 1_455 S
C172 C173 1.394 1_455 S
C172 C177 1.373 . S
C173 C172 1.394 1_655 S
C173 C174 1.380 1_655 S
C173 H196 0.930 . S
C174 C173 1.380 1_455 S
C174 C175 1.376 . S
C174 H197 0.930 1_455 S
C175 C174 1.376 . S
C175 C176 1.370 . S
C176 C175 1.370 . S
C176 C177 1.396 . S
C176 H198 0.929 . S
C177 C172 1.373 . S
C177 C176 1.396 . S
C177 H199 0.929 . S
C178 O188 1.240 . S
C178 O189 1.289 . S
C179 O190 1.258 . S
C179 O191 1.256 . S
O180 La160 2.521 . S
O180 C162 1.261 . S
O181 La160 2.628 . S
O181 C162 1.243 . S
O182 La160 2.554 . S
O182 C169 1.240 1_655 S
O183 La160 2.757 . S
O183 La161 2.482 . S
O183 C169 1.289 1_655 S
O184 La160 2.470 . S
O184 C170 1.258 . S
O185 La161 2.503 . S
O185 C170 1.256 . S
O186 La161 2.521 . S
O186 C171 1.261 . S
O187 La161 2.628 1_455 S
O187 C171 1.243 1_455 S
O188 La161 2.554 . S
O188 C178 1.240 . S
O189 La160 2.482 . S
O189 La161 2.757 . S
O189 C178 1.289 . S
O190 La161 2.470 . S
O190 C179 1.258 . S
O191 La160 2.503 . S
O191 C179 1.256 . S
H192 C164 0.930 . S
H193 C165 0.930 . S
H194 C167 0.929 . S
H195 C168 0.929 . S
H196 C173 0.930 . S
H197 C174 0.930 1_655 S
H198 C176 0.929 . S
H199 C177 0.929 . S
La200 C202 2.928 . S
La200 O220 2.521 . S
La200 O221 2.628 . S
La200 O222 2.554 . S
La200 O223 2.757 . S
La200 O224 2.470 . S
La200 O229 2.482 . S
La200 O231 2.503 . S
La201 C211 2.928 . S
La201 O223 2.482 . S
La201 O225 2.503 . S
La201 O226 2.521 . S
La201 O227 2.628 1_565 S
La201 O228 2.554 . S
La201 O229 2.757 . S
La201 O230 2.470 . S
C202 La200 2.928 . S
C202 C203 1.503 . S
C202 O220 1.261 . S
C202 O221 1.243 . S
C203 C202 1.503 . S
C203 C204 1.394 . S
C203 C208 1.373 . S
C204 C203 1.394 . S
C204 C205 1.380 1_455 S
C204 H232 0.930 1_455 S
C205 C204 1.380 1_655 S
C205 C206 1.376 1_655 S
C205 H233 0.930 . S
C206 C205 1.376 1_455 S
C206 C207 1.370 . S
C207 C206 1.370 . S
C207 C208 1.396 . S
C207 H234 0.929 . S
C208 C203 1.373 . S
C208 C207 1.396 . S
C208 H235 0.929 . S
C209 O222 1.240 1_545 S
C209 O223 1.289 1_545 S
C210 O224 1.258 . S
C210 O225 1.256 . S
C211 La201 2.928 . S
C211 C212 1.503 1_565 S
C211 O226 1.261 . S
C211 O227 1.243 1_565 S
C212 C211 1.503 1_545 S
C212 C213 1.394 1_545 S
C212 C217 1.373 . S
C213 C212 1.394 1_565 S
C213 C214 1.380 1_565 S
C213 H236 0.930 . S
C214 C213 1.380 1_545 S
C214 C215 1.376 . S
C214 H237 0.930 1_545 S
C215 C214 1.376 . S
C215 C216 1.370 . S
C216 C215 1.370 . S
C216 C217 1.396 . S
C216 H238 0.929 . S
C217 C212 1.373 . S
C217 C216 1.396 . S
C217 H239 0.929 . S
C218 O228 1.240 . S
C218 O229 1.289 . S
C219 O230 1.258 . S
C219 O231 1.256 . S
O220 La200 2.521 . S
O220 C202 1.261 . S
O221 La200 2.628 . S
O221 C202 1.243 . S
O222 La200 2.554 . S
O222 C209 1.240 1_565 S
O223 La200 2.757 . S
O223 La201 2.482 . S
O223 C209 1.289 1_565 S
O224 La200 2.470 . S
O224 C210 1.258 . S
O225 La201 2.503 . S
O225 C210 1.256 . S
O226 La201 2.521 . S
O226 C211 1.261 . S
O227 La201 2.628 1_545 S
O227 C211 1.243 1_545 S
O228 La201 2.554 . S
O228 C218 1.240 . S
O229 La200 2.482 . S
O229 La201 2.757 . S
O229 C218 1.289 . S
O230 La201 2.470 . S
O230 C219 1.258 . S
O231 La200 2.503 . S
O231 C219 1.256 . S
H232 C204 0.930 1_655 S
H233 C205 0.930 . S
H234 C207 0.929 . S
H235 C208 0.929 . S
H236 C213 0.930 . S
H237 C214 0.930 1_565 S
H238 C216 0.929 . S
H239 C217 0.929 . S
H240 C246 0.930 . S
H241 C250 0.930 . S
H242 C255 0.929 . S
H243 C253 0.929 . S
H244 C248 0.929 . S
H245 C254 0.929 . S
C246 H240 0.930 . S
C246 C247 1.367 1_566 S
C246 C254 1.378 1_665 S
C247 C246 1.367 1_544 S
C247 C255 1.433 . S
C248 H244 0.929 . S
C248 C250 1.378 . S
C248 C252 1.350 . S
C249 C252 1.463 . S
C249 C254 1.350 1_554 S
C249 N257 1.427 . S
C250 H241 0.930 . S
C250 C248 1.378 . S
C250 C251 1.367 . S
C251 C250 1.367 . S
C251 C253 1.433 1_554 S
C252 C248 1.350 . S
C252 C249 1.463 . S
C252 N256 1.427 1_554 S
C253 H243 0.929 . S
C253 C251 1.433 1_556 S
C253 N256 1.384 . S
C254 H245 0.929 . S
C254 C246 1.378 1_445 S
C254 C249 1.350 1_556 S
C255 H242 0.929 . S
C255 C247 1.433 . S
C255 N257 1.384 1_655 S
N256 C252 1.427 1_556 S
N256 C253 1.384 . S
N257 C249 1.427 . S
N257 C255 1.384 1_455 S
H258 C264 0.930 1_655 S
H259 C268 0.930 . S
H260 C273 0.929 . S
H261 C271 0.929 . S
H262 C266 0.929 . S
H263 C272 0.929 . S
C264 H258 0.930 1_455 S
C264 C265 1.367 . S
C264 C272 1.378 1_565 S
C265 C264 1.367 . S
C265 C273 1.433 . S
C266 H262 0.929 . S
C266 C268 1.378 . S
C266 C270 1.350 . S
C267 C270 1.463 . S
C267 C272 1.350 . S
C267 N275 1.427 . S
C268 H259 0.930 . S
C268 C266 1.378 . S
C268 C269 1.367 . S
C269 C268 1.367 . S
C269 C271 1.433 . S
C270 C266 1.350 . S
C270 C267 1.463 . S
C270 N274 1.427 . S
C271 H261 0.929 . S
C271 C269 1.433 . S
C271 N274 1.384 . S
C272 H263 0.929 . S
C272 C264 1.378 1_545 S
C272 C267 1.350 . S
C273 H260 0.929 . S
C273 C265 1.433 . S
C273 N275 1.384 1_565 S
N274 C270 1.427 . S
N274 C271 1.384 . S
N275 C267 1.427 . S
N275 C273 1.384 1_545 S
H276 C282 0.930 . S
H277 C286 0.930 . S
H278 C291 0.929 1_565 S
H279 C289 0.929 . S
H280 C284 0.929 . S
H281 C290 0.929 . S
C282 H276 0.930 . S
C282 C283 1.367 . S
C282 C290 1.378 . S
C283 C282 1.367 . S
C283 C291 1.433 . S
C284 H280 0.929 . S
C284 C286 1.378 1_455 S
C284 C288 1.350 . S
C285 C288 1.463 . S
C285 C290 1.350 . S
C285 N293 1.427 . S
C286 H277 0.930 . S
C286 C284 1.378 1_655 S
C286 C287 1.367 1_655 S
C287 C286 1.367 1_455 S
C287 C289 1.433 . S
C288 C284 1.350 . S
C288 C285 1.463 . S
C288 N292 1.427 . S
C289 H279 0.929 . S
C289 C287 1.433 . S
C289 N292 1.384 . S
C290 H281 0.929 . S
C290 C282 1.378 . S
C290 C285 1.350 . S
C291 H278 0.929 1_545 S
C291 C283 1.433 . S
C291 N293 1.384 . S
N292 C288 1.427 . S
N292 C289 1.384 . S
N293 C285 1.427 . S
N293 C291 1.384 . S
H294 C300 0.930 . S
H295 C304 0.930 . S
H296 C309 0.929 . S
H297 C307 0.929 . S
H298 C302 0.929 . S
H299 C308 0.929 . S
C300 H294 0.930 . S
C300 C301 1.367 . S
C300 C308 1.378 . S
C301 C300 1.367 . S
C301 C309 1.433 . S
C302 H298 0.929 . S
C302 C304 1.378 . S
C302 C306 1.350 . S
C303 C306 1.463 . S
C303 C308 1.350 . S
C303 N311 1.427 . S
C304 H295 0.930 . S
C304 C302 1.378 . S
C304 C305 1.367 . S
C305 C304 1.367 . S
C305 C307 1.433 . S
C306 C302 1.350 . S
C306 C303 1.463 . S
C306 N310 1.427 . S
C307 H297 0.929 . S
C307 C305 1.433 . S
C307 N310 1.384 . S
C308 H299 0.929 . S
C308 C300 1.378 . S
C308 C303 1.350 . S
C309 H296 0.929 . S
C309 C301 1.433 . S
C309 N311 1.384 . S
N310 C306 1.427 . S
N310 C307 1.384 . S
N311 C303 1.427 . S
N311 C309 1.384 . S
H312 C318 0.930 . S
H313 C322 0.930 . S
H314 C327 0.929 . S
H315 C325 0.929 . S
H316 C320 0.929 1_455 S
H317 C326 0.943 . S
C318 H312 0.930 . S
C318 C319 1.367 . S
C318 C326 1.378 . S
C319 C318 1.367 . S
C319 C327 1.433 . S
C320 H316 0.929 1_655 S
C320 C322 1.378 . S
C320 C324 1.350 . S
C321 C324 1.463 1_455 S
C321 C326 1.350 . S
C321 N329 1.427 . S
C322 H313 0.930 . S
C322 C320 1.378 . S
C322 C323 1.367 . S
C323 C322 1.367 . S
C323 C325 1.433 . S
C324 C320 1.350 . S
C324 C321 1.463 1_655 S
C324 N328 1.427 . S
C325 H315 0.929 . S
C325 C323 1.433 . S
C325 N328 1.384 . S
C326 H317 0.943 . S
C326 C318 1.378 . S
C326 C321 1.350 . S
C327 H314 0.929 . S
C327 C319 1.433 . S
C327 N329 1.384 . S
N328 C324 1.427 . S
N328 C325 1.384 . S
N329 C321 1.427 . S
N329 C327 1.384 . S
H330 C336 0.930 . S
H331 C340 0.930 . S
H332 C345 0.929 . S
H333 C343 0.929 . S
H334 C338 0.929 1_545 S
H335 C344 0.929 . S
C336 H330 0.930 . S
C336 C337 1.367 . S
C336 C344 1.378 . S
C337 C336 1.367 . S
C337 C345 1.433 . S
C338 H334 0.929 1_565 S
C338 C340 1.378 . S
C338 C342 1.350 . S
C339 C342 1.463 1_545 S
C339 C344 1.350 . S
C339 N347 1.427 . S
C340 H331 0.930 . S
C340 C338 1.378 . S
C340 C341 1.367 . S
C341 C340 1.367 . S
C341 C343 1.433 . S
C342 C338 1.350 . S
C342 C339 1.463 1_565 S
C342 N346 1.427 . S
C343 H333 0.929 . S
C343 C341 1.433 . S
C343 N346 1.384 . S
C344 H335 0.929 . S
C344 C336 1.378 . S
C344 C339 1.350 . S
C345 H332 0.929 . S
C345 C337 1.433 . S
C345 N347 1.384 . S
N346 C342 1.427 . S
N346 C343 1.384 . S
N347 C339 1.427 . S
N347 C345 1.384 . S
H348 C354 0.930 . S
H349 C358 0.930 . S
H350 C363 0.929 . S
H351 C361 0.929 . S
H352 C356 0.929 . S
H353 C362 0.929 . S
C354 H348 0.930 . S
C354 C355 1.367 . S
C354 C362 1.378 . S
C355 C354 1.367 . S
C355 C363 1.433 . S
C356 H352 0.929 . S
C356 C358 1.378 . S
C356 C360 1.350 . S
C357 C360 1.463 . S
C357 C362 1.350 . S
C357 N365 1.427 . S
C358 H349 0.930 . S
C358 C356 1.378 . S
C358 C359 1.367 . S
C359 C358 1.367 . S
C359 C361 1.433 . S
C360 C356 1.350 . S
C360 C357 1.463 . S
C360 N364 1.427 . S
C361 H351 0.929 . S
C361 C359 1.433 . S
C361 N364 1.384 . S
C362 H353 0.929 . S
C362 C354 1.378 . S
C362 C357 1.350 . S
C363 H350 0.929 . S
C363 C355 1.433 . S
C363 N365 1.384 . S
N364 C360 1.427 . S
N364 C361 1.384 . S
N365 C357 1.427 . S
N365 C363 1.384 . S
H366 C372 0.930 . S
H367 C376 0.930 1_545 S
H368 C381 0.929 . S
H369 C379 0.929 . S
H370 C374 0.929 . S
H371 C380 0.929 . S
C372 H366 0.930 . S
C372 C373 1.367 . S
C372 C380 1.378 . S
C373 C372 1.367 . S
C373 C381 1.433 . S
C374 H370 0.929 . S
C374 C376 1.378 . S
C374 C378 1.350 . S
C375 C378 1.463 . S
C375 C380 1.350 . S
C375 N383 1.427 . S
C376 H367 0.930 1_565 S
C376 C374 1.378 . S
C376 C377 1.367 . S
C377 C376 1.367 . S
C377 C379 1.433 . S
C378 C374 1.350 . S
C378 C375 1.463 . S
C378 N382 1.427 . S
C379 H369 0.929 . S
C379 C377 1.433 . S
C379 N382 1.384 . S
C380 H371 0.929 . S
C380 C372 1.378 . S
C380 C375 1.350 . S
C381 H368 0.929 . S
C381 C373 1.433 . S
C381 N383 1.384 . S
N382 C378 1.427 . S
N382 C379 1.384 . S
N383 C375 1.427 . S
N383 C381 1.384 . S
H384 C390 0.930 . S
H385 C394 0.930 . S
H386 C399 0.929 . S
H387 C397 0.929 . S
H388 C392 0.929 . S
H389 C398 0.929 . S
C390 H384 0.930 . S
C390 C391 1.367 . S
C390 C398 1.378 . S
C391 C390 1.367 . S
C391 C399 1.433 . S
C392 H388 0.929 . S
C392 C394 1.378 . S
C392 C396 1.350 . S
C393 C396 1.463 . S
C393 C398 1.350 . S
C393 N401 1.427 . S
C394 H385 0.930 . S
C394 C392 1.378 . S
C394 C395 1.367 . S
C395 C394 1.367 . S
C395 C397 1.433 . S
C396 C392 1.350 . S
C396 C393 1.463 . S
C396 N400 1.427 . S
C397 H387 0.929 . S
C397 C395 1.433 . S
C397 N400 1.384 . S
C398 H389 0.929 . S
C398 C390 1.378 . S
C398 C393 1.350 . S
C399 H386 0.929 . S
C399 C391 1.433 . S
C399 N401 1.384 . S
N400 C396 1.427 . S
N400 C397 1.384 . S
N401 C393 1.427 . S
N401 C399 1.384 . S
H402 C408 0.930 . S
H403 C412 0.930 . S
H404 C417 0.929 . S
H405 C415 0.929 . S
H406 C410 0.929 . S
H407 C416 0.929 . S
C408 H402 0.930 . S
C408 C409 1.367 . S
C408 C416 1.378 . S
C409 C408 1.367 . S
C409 C417 1.433 1_554 S
C410 H406 0.929 . S
C410 C412 1.378 . S
C410 C414 1.350 1_556 S
C411 C414 1.463 . S
C411 C416 1.350 . S
C411 N419 1.427 1_554 S
C412 H403 0.930 . S
C412 C410 1.378 . S
C412 C413 1.367 1_556 S
C413 C412 1.367 1_554 S
C413 C415 1.433 . S
C414 C410 1.350 1_554 S
C414 C411 1.463 . S
C414 N418 1.427 . S
C415 H405 0.929 . S
C415 C413 1.433 . S
C415 N418 1.384 . S
C416 H407 0.929 . S
C416 C408 1.378 . S
C416 C411 1.350 . S
C417 H404 0.929 . S
C417 C409 1.433 1_556 S
C417 N419 1.384 . S
N418 C414 1.427 . S
N418 C415 1.384 . S
N419 C411 1.427 1_556 S
N419 C417 1.384 . S
H420 C426 0.930 . S
H421 C430 0.930 . S
H422 C435 0.929 . S
H423 C433 0.929 . S
H424 C428 0.929 . S
H425 C434 0.929 . S
C426 H420 0.930 . S
C426 C427 1.367 . S
C426 C434 1.378 . S
C427 C426 1.367 . S
C427 C435 1.433 . S
C428 H424 0.929 . S
C428 C430 1.378 . S
C428 C432 1.350 . S
C429 C432 1.463 . S
C429 C434 1.350 . S
C429 N437 1.427 . S
C430 H421 0.930 . S
C430 C428 1.378 . S
C430 C431 1.367 . S
C431 C430 1.367 . S
C431 C433 1.433 . S
C432 C428 1.350 . S
C432 C429 1.463 . S
C432 N436 1.427 . S
C433 H423 0.929 . S
C433 C431 1.433 . S
C433 N436 1.384 . S
C434 H425 0.929 . S
C434 C426 1.378 . S
C434 C429 1.350 . S
C435 H422 0.929 . S
C435 C427 1.433 . S
C435 N437 1.384 . S
N436 C432 1.427 . S
N436 C433 1.384 . S
N437 C429 1.427 . S
N437 C435 1.384 . S
H438 C444 0.930 . S
H439 C448 0.930 . S
H440 C453 0.929 . S
H441 C451 0.929 . S
H442 C446 0.929 . S
H443 C452 0.929 . S
C444 H438 0.930 . S
C444 C445 1.374 . S
C444 C452 1.378 1_655 S
C445 C444 1.374 . S
C445 C453 1.425 1_655 S
C446 H442 0.929 . S
C446 C448 1.378 . S
C446 C450 1.350 . S
C447 C450 1.463 . S
C447 C452 1.350 . S
C447 N455 1.427 . S
C448 H439 0.930 . S
C448 C446 1.378 . S
C448 C449 1.367 . S
C449 C448 1.367 . S
C449 C451 1.433 . S
C450 C446 1.350 . S
C450 C447 1.463 . S
C450 N454 1.427 . S
C451 H441 0.929 . S
C451 C449 1.433 . S
C451 N454 1.384 . S
C452 H443 0.929 . S
C452 C444 1.378 1_455 S
C452 C447 1.350 . S
C453 H440 0.929 . S
C453 C445 1.425 1_455 S
C453 N455 1.384 . S
N454 C450 1.427 . S
N454 C451 1.384 . S
N455 C447 1.427 . S
N455 C453 1.384 . S
H456 C462 0.930 . S
H457 C466 0.930 . S
H458 C471 0.929 . S
H459 C469 0.929 . S
H460 C464 0.929 . S
H461 C470 0.929 . S
C462 H456 0.930 . S
C462 C463 1.367 . S
C462 C470 1.378 . S
C463 C462 1.367 . S
C463 C471 1.433 . S
C464 H460 0.929 . S
C464 C466 1.378 . S
C464 C468 1.350 . S
C465 C468 1.463 . S
C465 C470 1.350 . S
C465 N473 1.427 . S
C466 H457 0.930 . S
C466 C464 1.378 . S
C466 C467 1.367 . S
C467 C466 1.367 . S
C467 C469 1.433 . S
C468 C464 1.350 . S
C468 C465 1.463 . S
C468 N472 1.427 . S
C469 H459 0.929 . S
C469 C467 1.433 . S
C469 N472 1.384 . S
C470 H461 0.929 . S
C470 C462 1.378 . S
C470 C465 1.350 . S
C471 H458 0.929 . S
C471 C463 1.433 . S
C471 N473 1.384 . S
N472 C468 1.427 . S
N472 C469 1.384 . S
N473 C465 1.427 . S
N473 C471 1.384 . S
H474 C480 0.930 . S
H475 C484 0.930 . S
H476 C489 0.929 . S
H477 C487 0.929 . S
H478 C482 0.929 . S
H479 C488 0.929 . S
C480 H474 0.930 . S
C480 C481 1.367 . S
C480 C488 1.378 . S
C481 C480 1.367 . S
C481 C489 1.433 . S
C482 H478 0.929 . S
C482 C484 1.378 . S
C482 C486 1.350 . S
C483 C486 1.463 . S
C483 C488 1.350 . S
C483 N491 1.427 . S
C484 H475 0.930 . S
C484 C482 1.378 . S
C484 C485 1.367 . S
C485 C484 1.367 . S
C485 C487 1.433 . S
C486 C482 1.350 . S
C486 C483 1.463 . S
C486 N490 1.427 . S
C487 H477 0.929 . S
C487 C485 1.433 . S
C487 N490 1.384 . S
C488 H479 0.929 . S
C488 C480 1.378 . S
C488 C483 1.350 . S
C489 H476 0.929 . S
C489 C481 1.433 . S
C489 N491 1.384 . S
N490 C486 1.427 . S
N490 C487 1.384 . S
N491 C483 1.427 . S
N491 C489 1.384 . S
H492 C498 0.930 . S
H493 C502 0.930 . S
H494 C507 0.929 . S
H495 C505 0.929 . S
H496 C500 0.929 . S
H497 C506 0.929 . S
C498 H492 0.930 . S
C498 C499 1.367 . S
C498 C506 1.378 . S
C499 C498 1.367 . S
C499 C507 1.433 . S
C500 H496 0.929 . S
C500 C502 1.378 . S
C500 C504 1.350 . S
C501 C504 1.463 . S
C501 C506 1.350 . S
C501 N509 1.427 . S
C502 H493 0.930 . S
C502 C500 1.378 . S
C502 C503 1.367 . S
C503 C502 1.367 . S
C503 C505 1.433 . S
C504 C500 1.350 . S
C504 C501 1.463 . S
C504 N508 1.427 . S
C505 H495 0.929 . S
C505 C503 1.433 . S
C505 N508 1.384 . S
C506 H497 0.929 . S
C506 C498 1.378 . S
C506 C501 1.350 . S
C507 H494 0.929 . S
C507 C499 1.433 . S
C507 N509 1.384 . S
N508 C504 1.427 . S
N508 C505 1.384 . S
N509 C501 1.427 . S
N509 C507 1.384 . S
H510 C516 0.930 . S
H511 C520 0.930 . S
H512 C525 0.930 1_545 S
H513 C523 0.929 . S
H514 C518 0.929 . S
H515 C524 0.929 . S
C516 H510 0.930 . S
C516 C517 1.367 . S
C516 C524 1.378 . S
C517 C516 1.367 . S
C517 C525 1.433 . S
C518 H514 0.929 . S
C518 C520 1.378 . S
C518 C522 1.350 . S
C519 C522 1.463 . S
C519 C524 1.350 . S
C519 N527 1.427 . S
C520 H511 0.930 . S
C520 C518 1.378 . S
C520 C521 1.367 . S
C521 C520 1.367 . S
C521 C523 1.433 . S
C522 C518 1.350 . S
C522 C519 1.463 . S
C522 N526 1.427 . S
C523 H513 0.929 . S
C523 C521 1.433 . S
C523 N526 1.384 . S
C524 H515 0.929 . S
C524 C516 1.378 . S
C524 C519 1.350 . S
C525 H512 0.930 1_565 S
C525 C517 1.433 . S
C525 N527 1.384 . S
N526 C522 1.427 . S
N526 C523 1.384 . S
N527 C519 1.427 . S
N527 C525 1.384 . S
H528 C534 0.930 . S
H529 C538 0.930 . S
H530 C543 0.929 . S
H531 C541 0.929 . S
H532 C536 0.929 . S
H533 C542 0.929 . S
C534 H528 0.930 . S
C534 C535 1.367 . S
C534 C542 1.378 . S
C535 C534 1.367 . S
C535 C543 1.433 1_655 S
C536 H532 0.929 . S
C536 C538 1.378 . S
C536 C540 1.350 . S
C537 C540 1.463 . S
C537 C542 1.350 1_455 S
C537 N545 1.427 . S
C538 H529 0.930 . S
C538 C536 1.378 . S
C538 C539 1.367 . S
C539 C538 1.367 . S
C539 C541 1.433 . S
C540 C536 1.350 . S
C540 C537 1.463 . S
C540 N544 1.427 . S
C541 H531 0.929 . S
C541 C539 1.433 . S
C541 N544 1.384 . S
C542 H533 0.929 . S
C542 C534 1.378 . S
C542 C537 1.350 1_655 S
C543 H530 0.929 . S
C543 C535 1.433 1_455 S
C543 N545 1.384 . S
N544 C540 1.427 . S
N544 C541 1.384 . S
N545 C537 1.427 . S
N545 C543 1.384 . S
H546 C552 0.930 . S
H547 C556 0.930 . S
H548 C561 0.929 . S
H549 C559 0.929 . S
H550 C554 0.929 . S
H551 C560 0.929 . S
C552 H546 0.930 . S
C552 C553 1.367 1_545 S
C552 C560 1.378 . S
C553 C552 1.367 1_565 S
C553 C561 1.433 . S
C554 H550 0.929 . S
C554 C556 1.378 . S
C554 C558 1.350 . S
C555 C558 1.463 . S
C555 C560 1.350 . S
C555 N563 1.427 . S
C556 H547 0.930 . S
C556 C554 1.378 . S
C556 C557 1.367 . S
C557 C556 1.367 . S
C557 C559 1.433 . S
C558 C554 1.350 . S
C558 C555 1.463 . S
C558 N562 1.427 . S
C559 H549 0.929 . S
C559 C557 1.433 . S
C559 N562 1.384 . S
C560 H551 0.929 . S
C560 C552 1.378 . S
C560 C555 1.350 . S
C561 H548 0.929 . S
C561 C553 1.433 . S
C561 N563 1.384 1_565 S
N562 C558 1.427 . S
N562 C559 1.384 . S
N563 C555 1.427 . S
N563 C561 1.384 1_545 S
C247 C129 0.671 . S
C251 C9 0.666 . S
C265 C169 0.637 . S
C269 C49 0.622 . S
C283 C209 0.657 . S
C287 C89 0.670 . S
C301 C15 0.754 . S
C305 C86 0.775 . S
C319 C55 0.751 . S
C323 C126 0.743 . S
C337 C95 0.742 . S
C341 C166 0.742 . S
C355 C135 0.776 . S
C359 C206 0.786 1_655 S
C373 C175 0.783 . S
C377 C6 0.784 1_565 S
C391 C215 0.777 . S
C395 C46 0.786 . S
C409 C18 1.252 . S
C413 C138 1.242 1_545 S
C427 C58 1.249 . S
C431 C178 1.241 . S
C445 C98 1.248 . S
C449 C218 1.254 . S
C463 C10 4.082 . S
C467 C59 4.146 . S
C481 C50 4.085 . S
C485 C99 4.148 . S
C499 C90 4.080 . S
C503 C139 4.145 . S
C517 C130 4.084 . S
C521 C179 4.148 . S
C535 C170 4.082 . S
C539 C219 4.146 . S
C553 C210 4.080 . S
C557 C19 4.146 . S
