# Generated by pormake.
# Topology wgb, (5)-cn, num edge types: 1
# Building blocks:
#     Node 0, Type 0, BuildingBlock: XOMCOT_clean_sbu_0, # of connection points: 5
#     Node 1, Type 0, BuildingBlock: XOMCOT_clean_sbu_0, # of connection points: 5
#     Node 2, Type 0, BuildingBlock: XOMCOT_clean_sbu_0, # of connection points: 5
#     Node 3, Type 0, BuildingBlock: XOMCOT_clean_sbu_0, # of connection points: 5
#     Node 4, Type 0, BuildingBlock: XOMCOT_clean_sbu_0, # of connection points: 5
#     Node 5, Type 0, BuildingBlock: XOMCOT_clean_sbu_0, # of connection points: 5
#     Node 6, Type 0, BuildingBlock: XOMCOT_clean_sbu_0, # of connection points: 5
#     Node 7, Type 0, BuildingBlock: XOMCOT_clean_sbu_0, # of connection points: 5
#     Node 8, Type 0, BuildingBlock: XOMCOT_clean_sbu_0, # of connection points: 5
#     Node 9, Type 0, BuildingBlock: XOMCOT_clean_sbu_0, # of connection points: 5
#     Node 10, Type 0, BuildingBlock: XOMCOT_clean_sbu_0, # of connection points: 5
#     Node 11, Type 0, BuildingBlock: XOMCOT_clean_sbu_0, # of connection points: 5
#     Node 12, Type 0, BuildingBlock: XOMCOT_clean_sbu_0, # of connection points: 5
#     Node 13, Type 0, BuildingBlock: XOMCOT_clean_sbu_0, # of connection points: 5
#     Node 14, Type 0, BuildingBlock: XOMCOT_clean_sbu_0, # of connection points: 5
#     Node 15, Type 0, BuildingBlock: XOMCOT_clean_sbu_0, # of connection points: 5
#     Edge 16, Type (0, 0), BuildingBlock: KIFKEQ_clean_linker_1, # of connection points: 2
#     Edge 17, Type (0, 0), BuildingBlock: KIFKEQ_clean_linker_1, # of connection points: 2
#     Edge 18, Type (0, 0), BuildingBlock: KIFKEQ_clean_linker_1, # of connection points: 2
#     Edge 19, Type (0, 0), BuildingBlock: KIFKEQ_clean_linker_1, # of connection points: 2
#     Edge 20, Type (0, 0), BuildingBlock: KIFKEQ_clean_linker_1, # of connection points: 2
#     Edge 21, Type (0, 0), BuildingBlock: KIFKEQ_clean_linker_1, # of connection points: 2
#     Edge 22, Type (0, 0), BuildingBlock: KIFKEQ_clean_linker_1, # of connection points: 2
#     Edge 23, Type (0, 0), BuildingBlock: KIFKEQ_clean_linker_1, # of connection points: 2
#     Edge 24, Type (0, 0), BuildingBlock: KIFKEQ_clean_linker_1, # of connection points: 2
#     Edge 25, Type (0, 0), BuildingBlock: KIFKEQ_clean_linker_1, # of connection points: 2
#     Edge 26, Type (0, 0), BuildingBlock: KIFKEQ_clean_linker_1, # of connection points: 2
#     Edge 27, Type (0, 0), BuildingBlock: KIFKEQ_clean_linker_1, # of connection points: 2
#     Edge 28, Type (0, 0), BuildingBlock: KIFKEQ_clean_linker_1, # of connection points: 2
#     Edge 29, Type (0, 0), BuildingBlock: KIFKEQ_clean_linker_1, # of connection points: 2
#     Edge 30, Type (0, 0), BuildingBlock: KIFKEQ_clean_linker_1, # of connection points: 2
#     Edge 31, Type (0, 0), BuildingBlock: KIFKEQ_clean_linker_1, # of connection points: 2
#     Edge 32, Type (0, 0), BuildingBlock: KIFKEQ_clean_linker_1, # of connection points: 2
#     Edge 33, Type (0, 0), BuildingBlock: KIFKEQ_clean_linker_1, # of connection points: 2
#     Edge 34, Type (0, 0), BuildingBlock: KIFKEQ_clean_linker_1, # of connection points: 2
#     Edge 35, Type (0, 0), BuildingBlock: KIFKEQ_clean_linker_1, # of connection points: 2
#     Edge 36, Type (0, 0), BuildingBlock: KIFKEQ_clean_linker_1, # of connection points: 2
#     Edge 37, Type (0, 0), BuildingBlock: KIFKEQ_clean_linker_1, # of connection points: 2
#     Edge 38, Type (0, 0), BuildingBlock: KIFKEQ_clean_linker_1, # of connection points: 2
#     Edge 39, Type (0, 0), BuildingBlock: KIFKEQ_clean_linker_1, # of connection points: 2
#     Edge 40, Type (0, 0), BuildingBlock: KIFKEQ_clean_linker_1, # of connection points: 2
#     Edge 41, Type (0, 0), BuildingBlock: KIFKEQ_clean_linker_1, # of connection points: 2
#     Edge 42, Type (0, 0), BuildingBlock: KIFKEQ_clean_linker_1, # of connection points: 2
#     Edge 43, Type (0, 0), BuildingBlock: KIFKEQ_clean_linker_1, # of connection points: 2
#     Edge 44, Type (0, 0), BuildingBlock: KIFKEQ_clean_linker_1, # of connection points: 2
#     Edge 45, Type (0, 0), BuildingBlock: KIFKEQ_clean_linker_1, # of connection points: 2
#     Edge 46, Type (0, 0), BuildingBlock: KIFKEQ_clean_linker_1, # of connection points: 2
#     Edge 47, Type (0, 0), BuildingBlock: KIFKEQ_clean_linker_1, # of connection points: 2
#     Edge 48, Type (0, 0), BuildingBlock: KIFKEQ_clean_linker_1, # of connection points: 2
#     Edge 49, Type (0, 0), BuildingBlock: KIFKEQ_clean_linker_1, # of connection points: 2
#     Edge 50, Type (0, 0), BuildingBlock: KIFKEQ_clean_linker_1, # of connection points: 2
#     Edge 51, Type (0, 0), BuildingBlock: KIFKEQ_clean_linker_1, # of connection points: 2
#     Edge 52, Type (0, 0), BuildingBlock: KIFKEQ_clean_linker_1, # of connection points: 2
#     Edge 53, Type (0, 0), BuildingBlock: KIFKEQ_clean_linker_1, # of connection points: 2
#     Edge 54, Type (0, 0), BuildingBlock: KIFKEQ_clean_linker_1, # of connection points: 2
#     Edge 55, Type (0, 0), BuildingBlock: KIFKEQ_clean_linker_1, # of connection points: 2
# Relax obj value: 0.087
# Max RMSD: 0.116
# Mean RMSD: 0.116
data_MOF--net-wgb--node1-XOMCOT_clean_sbu_0--edge1-KIFKEQ_clean_linker_1
_symmetry_space_group_name_H-M    P1
_symmetry_Int_Tables_number       1
_symmetry_cell_setting            triclinic
loop_
_symmetry_equiv_pos_as_xyz
'x, y, z'
_cell_length_a     58.354156
_cell_length_b     58.277045
_cell_length_c     27.936452
_cell_angle_alpha  89.960847
_cell_angle_beta   89.988766
_cell_angle_gamma 90.117654
loop_
_atom_site_label
_atom_site_type_symbol
_atom_site_fract_x
_atom_site_fract_y
_atom_site_fract_z
_atom_type_partial_charge
Co0 Co 0.34341 0.10678 0.18109 0.0
C1 C 0.34059 0.15725 0.16681 0.0
C2 C 0.33409 0.1472 0.23953 0.0
C3 C 0.33331 0.17074 0.23683 0.0
N4 N 0.33853 0.13876 0.19566 0.0
N5 N 0.33742 0.17705 0.19113 0.0
H6 H 0.34507 0.15631 0.12932 0.0
H7 H 0.33211 0.13695 0.27153 0.0
C8 C 0.30541 0.08115 0.23386 0.0
O9 O 0.30759 0.06274 0.20723 0.0
N10 N 0.34871 0.0745 0.16746 0.0
C11 C 0.34498 0.06295 0.12639 0.0
C12 C 0.35091 0.04034 0.13307 0.0
C13 C 0.35712 0.05871 0.19829 0.0
N14 N 0.35856 0.03761 0.17835 0.0
C15 C 0.33481 0.11555 0.0816 0.0
C16 C 0.28808 0.10804 0.08195 0.0
C17 C 0.29883 0.11303 0.03812 0.0
C18 C 0.32252 0.11723 0.03879 0.0
C19 C 0.30097 0.10686 0.12424 0.0
N20 N 0.32422 0.10996 0.1237 0.0
H21 H 0.35304 0.11848 0.08048 0.0
H22 H 0.29194 0.10332 0.15694 0.0
H23 H 0.33813 0.07006 0.09377 0.0
H24 H 0.36186 0.06263 0.23477 0.0
O25 O 0.37327 0.11433 0.15435 0.0
O26 O 0.36661 0.1057 0.23025 0.0
O27 O 0.3168 0.09937 0.22457 0.0
C28 C 0.38125 0.11155 0.19746 0.0
H29 H 0.32999 0.18231 0.2663 0.0
H30 H 0.34918 0.02693 0.10658 0.0
H31 H 0.26986 0.10462 0.08371 0.0
H32 H 0.33168 0.12184 1.00648 0.0
Co33 Co 0.10504 0.6705 0.83122 0.0
C34 C 0.15528 0.67257 0.84714 0.0
C35 C 0.14595 0.67973 0.77426 0.0
C36 C 0.16944 0.68028 0.77782 0.0
N37 N 0.13713 0.67493 0.81765 0.0
N38 N 0.17529 0.67578 0.82359 0.0
H39 H 0.1539 0.66804 0.8846 0.0
H40 H 0.13597 0.68232 0.74209 0.0
C41 C 0.08179 0.71184 0.78677 0.0
O42 O 0.06701 0.71354 0.82204 0.0
N43 N 0.07248 0.66585 0.84313 0.0
C44 C 0.06124 0.66435 0.88525 0.0
C45 C 0.03846 0.66023 0.87649 0.0
C46 C 0.05623 0.66222 0.80935 0.0
N47 N 0.03526 0.65893 0.8288 0.0
C48 C 0.10978 0.67779 0.93235 0.0
C49 C 0.11451 0.72488 0.93071 0.0
C50 C 0.11395 0.71377 0.9755 0.0
C51 C 0.11179 0.68976 0.97547 0.0
C52 C 0.11198 0.71221 0.88826 0.0
N53 N 0.10857 0.689 0.88948 0.0
H54 H 0.10831 0.65933 0.93373 0.0
H55 H 0.11324 0.72117 0.8546 0.0
H56 H 0.06863 0.66566 0.92035 0.0
H57 H 0.05971 0.66221 0.7713 0.0
O58 O 0.11165 0.64004 0.85661 0.0
O59 O 0.10369 0.64801 0.78101 0.0
O60 O 0.09817 0.69742 0.78863 0.0
C61 C 0.10913 0.63275 0.81283 0.0
H62 H 0.1813 0.68386 0.74895 0.0
H63 H 0.02535 0.65773 0.90342 0.0
H64 H 0.11719 0.74322 0.92816 0.0
H65 H 0.11114 0.68008 1.00849 0.0
Co66 Co 0.66975 0.90903 0.18855 0.0
C67 C 0.67107 0.8585 0.17363 0.0
C68 C 0.68226 0.86843 0.24394 0.0
C69 C 0.68439 0.84503 0.2398 0.0
N70 N 0.67417 0.87687 0.20238 0.0
N71 N 0.67735 0.83883 0.1957 0.0
H72 H 0.66504 0.85956 0.13705 0.0
H73 H 0.68654 0.87862 0.27502 0.0
C74 C 0.69849 0.92961 0.26191 0.0
O75 O 0.68004 0.94136 0.27267 0.0
N76 N 0.66591 0.94169 0.17545 0.0
C77 C 0.68215 0.95509 0.15523 0.0
C78 C 0.67675 0.97772 0.16273 0.0
C79 C 0.65067 0.9566 0.19475 0.0
N80 N 0.6571 0.97866 0.18793 0.0
C81 C 0.67626 0.91025 0.08699 0.0
C82 C 0.72188 0.89741 0.08719 0.0
C83 C 0.7115 0.90287 0.04322 0.0
C84 C 0.68821 0.90903 0.04364 0.0
C85 C 0.70926 0.89867 0.12972 0.0
N86 N 0.68691 0.90555 0.12931 0.0
H87 H 0.65849 0.91545 0.08681 0.0
H88 H 0.71757 0.89426 0.16302 0.0
H89 H 0.69794 0.94894 0.13967 0.0
H90 H 0.63652 0.95161 0.2175 0.0
O91 O 0.63896 0.90245 0.16561 0.0
O92 O 0.64826 0.91041 0.24068 0.0
O93 O 0.69829 0.91612 0.22594 0.0
C94 C 0.63249 0.90479 0.21 0.0
H95 H 0.69061 0.83342 0.26711 0.0
H96 H 0.68724 0.99236 0.1531 0.0
H97 H 0.73978 0.89266 0.08908 0.0
H98 H 0.67919 0.91288 0.01076 0.0
Co99 Co 0.90817 0.34371 0.83368 0.0
C100 C 0.85767 0.34113 0.84622 0.0
C101 C 0.86824 0.33461 0.7739 0.0
C102 C 0.84471 0.33423 0.77555 0.0
N103 N 0.87634 0.3388 0.81815 0.0
N104 N 0.83807 0.33837 0.82097 0.0
H105 H 0.85837 0.34562 0.88374 0.0
H106 H 0.8787 0.33275 0.74225 0.0
C107 C 0.93353 0.3045 0.78457 0.0
O108 O 0.95076 0.30508 0.81477 0.0
N109 N 0.9403 0.34905 0.84795 0.0
C110 C 0.95071 0.34955 0.89101 0.0
C111 C 0.97343 0.35502 0.88458 0.0
C112 C 0.95683 0.35466 0.81604 0.0
N113 N 0.97732 0.35816 0.83741 0.0
C114 C 0.89954 0.33556 0.93375 0.0
C115 C 0.90444 0.28843 0.93277 0.0
C116 C 0.90045 0.29935 0.9767 0.0
C117 C 0.89755 0.32322 0.9766 0.0
C118 C 0.90602 0.30137 0.8906 0.0
N119 N 0.90447 0.3248 0.89149 0.0
H120 H 0.89771 0.35396 0.93494 0.0
H121 H 0.90828 0.2922 0.85761 0.0
H122 H 0.9426 0.34655 0.92509 0.0
H123 H 0.95393 0.35572 0.77785 0.0
O124 O 0.90074 0.37404 0.85887 0.0
O125 O 0.90976 0.3663 0.78373 0.0
O126 O 0.91582 0.31694 0.79112 0.0
C127 C 0.90372 0.38144 0.81526 0.0
H128 H 0.83338 0.33128 0.7455 0.0
H129 H 0.98599 0.35702 0.91278 0.0
H130 H 0.90607 0.26995 0.93086 0.0
H131 H 0.89438 0.33243 1.00959 0.0
Co132 Co 0.34689 0.40981 0.08822 0.0
C133 C 0.34126 0.35877 0.09857 0.0
C134 C 0.33798 0.37043 0.02618 0.0
C135 C 0.33645 0.34688 0.02643 0.0
N136 N 0.34069 0.37799 0.07147 0.0
N137 N 0.33852 0.33958 0.07199 0.0
H138 H 0.3447 0.35844 0.13639 0.0
H139 H 0.33759 0.38135 0.99486 0.0
C140 C 0.30131 0.41006 0.03998 0.0
O141 O 0.29548 0.39247 0.06685 0.0
N142 N 0.35356 0.44142 0.10283 0.0
C143 C 0.35941 0.45035 0.14553 0.0
C144 C 0.36437 0.47328 0.13932 0.0
C145 C 0.35525 0.45882 0.07118 0.0
N146 N 0.36182 0.47857 0.09252 0.0
C147 C 0.33591 0.39633 0.18488 0.0
C148 C 0.29545 0.42052 0.19291 0.0
C149 C 0.30279 0.40735 0.23206 0.0
C150 C 0.32351 0.39539 0.22771 0.0
C151 C 0.30849 0.42109 0.15079 0.0
N152 N 0.32788 0.40812 0.14609 0.0
H153 H 0.35233 0.38789 0.18342 0.0
H154 H 0.3032 0.43257 0.12261 0.0
H155 H 0.36056 0.44077 0.17859 0.0
H156 H 0.35199 0.45693 0.03325 0.0
O157 O 0.37626 0.40063 0.11468 0.0
O158 O 0.37011 0.41058 0.03916 0.0
O159 O 0.32061 0.41999 0.0464 0.0
C160 C 0.38441 0.4037 0.07174 0.0
H161 H 0.33415 0.336 0.99542 0.0
H162 H 0.37021 0.48494 0.16689 0.0
H163 H 0.28012 0.43089 0.19526 0.0
H164 H 0.33018 0.38535 0.2572 0.0
Co165 Co 0.40639 0.67123 0.93802 0.0
C166 C 0.35603 0.67406 0.92467 0.0
C167 C 0.36621 0.68065 0.99722 0.0
C168 C 0.34267 0.68133 0.99481 0.0
N169 N 0.37454 0.6762 0.95327 0.0
N170 N 0.3363 0.67718 0.9492 0.0
H171 H 0.3569 0.66954 0.88718 0.0
H172 H 0.37652 0.68268 0.02908 0.0
C173 C 0.43187 0.71084 0.98573 0.0
O174 O 0.44916 0.70982 0.95573 0.0
N175 N 0.4385 0.66582 0.92373 0.0
C176 C 0.44881 0.66525 0.88055 0.0
C177 C 0.47162 0.6603 0.88681 0.0
C178 C 0.45519 0.66069 0.95558 0.0
N179 N 0.47569 0.65754 0.934 0.0
C180 C 0.39765 0.67855 0.83776 0.0
C181 C 0.40311 0.72561 0.8367 0.0
C182 C 0.39904 0.71434 0.79307 0.0
C183 C 0.39584 0.69046 0.79439 0.0
C184 C 0.40454 0.71307 0.87941 0.0
N185 N 0.40272 0.68966 0.87954 0.0
H186 H 0.39548 0.66016 0.83738 0.0
H187 H 0.40707 0.72253 0.91195 0.0
H188 H 0.4406 0.66796 0.8465 0.0
H189 H 0.45246 0.65989 0.99385 0.0
O190 O 0.3988 0.64072 0.91391 0.0
O191 O 0.40802 0.64897 0.98873 0.0
O192 O 0.41407 0.69839 0.97964 0.0
C193 C 0.4019 0.63361 0.95768 0.0
H194 H 0.33115 0.68459 0.02438 0.0
H195 H 0.48417 0.65849 0.85854 0.0
H196 H 0.40559 0.74401 0.83804 0.0
H197 H 0.39194 0.68091 0.76218 0.0
Co198 Co 0.66829 0.60758 0.0805 0.0
C199 C 0.67294 0.65783 0.09631 0.0
C200 C 0.68473 0.64752 0.02677 0.0
C201 C 0.68741 0.67088 0.03084 0.0
N202 N 0.67602 0.63929 0.06801 0.0
N203 N 0.67995 0.67733 0.07445 0.0
H204 H 0.66573 0.65711 0.13196 0.0
H205 H 0.6883 0.63735 0.99536 0.0
C206 C 0.706 0.57961 0.03182 0.0
O207 O 0.70278 0.5617 0.05957 0.0
N208 N 0.65997 0.5758 0.09227 0.0
C209 C 0.65573 0.56576 0.13488 0.0
C210 C 0.6476 0.54391 0.12709 0.0
C211 C 0.65399 0.55995 0.05911 0.0
N212 N 0.64656 0.54027 0.07951 0.0
C213 C 0.67555 0.61483 0.18129 0.0
C214 C 0.72185 0.60531 0.18378 0.0
C215 C 0.71078 0.61069 0.22699 0.0
C216 C 0.68729 0.61579 0.22497 0.0
C217 C 0.70951 0.60476 0.14075 0.0
N218 N 0.68643 0.6088 0.13982 0.0
H219 H 0.65749 0.61872 0.18115 0.0
H220 H 0.71893 0.60124 0.10859 0.0
H221 H 0.6577 0.57374 0.16942 0.0
H222 H 0.65467 0.56292 0.02089 0.0
O223 O 0.63836 0.61699 0.10441 0.0
O224 O 0.64641 0.60864 0.02907 0.0
O225 O 0.69518 0.59834 0.03924 0.0
C226 C 0.63131 0.61513 0.06034 0.0
H227 H 0.69376 0.68237 1.00337 0.0
H228 H 0.64277 0.53163 0.1544 0.0
H229 H 0.73994 0.60125 0.183 0.0
H230 H 0.67795 0.62071 0.25681 0.0
Co231 Co 0.6057 0.34539 0.93363 0.0
C232 C 0.65606 0.34419 0.91632 0.0
C233 C 0.64693 0.33756 0.98956 0.0
C234 C 0.67038 0.33744 0.98596 0.0
N235 N 0.63798 0.34174 0.94603 0.0
N236 N 0.67613 0.34164 0.94001 0.0
H237 H 0.65458 0.34828 0.87865 0.0
H238 H 0.63704 0.33518 0.02192 0.0
C239 C 0.58357 0.30359 0.98031 0.0
O240 O 0.56611 0.30377 0.95077 0.0
N241 N 0.5728 0.34921 0.92298 0.0
C242 C 0.5596 0.34128 0.8867 0.0
C243 C 0.53697 0.34588 0.89659 0.0
C244 C 0.55777 0.35872 0.95411 0.0
N245 N 0.53593 0.35686 0.93884 0.0
C246 C 0.60735 0.33871 0.83193 0.0
C247 C 0.61601 0.29208 0.83288 0.0
C248 C 0.61283 0.30305 0.7886 0.0
C249 C 0.60877 0.32676 0.7886 0.0
C250 C 0.61412 0.30463 0.87556 0.0
N251 N 0.60901 0.32751 0.87479 0.0
H252 H 0.60393 0.3569 0.83108 0.0
H253 H 0.61691 0.29584 0.90905 0.0
H254 H 0.5654 0.33145 0.8564 0.0
H255 H 0.56246 0.3659 0.98843 0.0
O256 O 0.61138 0.3762 0.90889 0.0
O257 O 0.60462 0.36752 0.98468 0.0
O258 O 0.6002 0.31762 0.97507 0.0
C259 C 0.60931 0.38316 0.95302 0.0
H260 H 0.68229 0.3344 0.01496 0.0
H261 H 0.52234 0.34108 0.87493 0.0
H262 H 0.6195 0.27385 0.83461 0.0
H263 H 0.6067 0.33605 0.75529 0.0
Co264 Co 0.84392 0.60447 0.68471 0.0
C265 C 0.83879 0.65451 0.66879 0.0
C266 C 0.8325 0.64472 0.74174 0.0
C267 C 0.83101 0.66818 0.73845 0.0
N268 N 0.83725 0.63617 0.69812 0.0
N269 N 0.83503 0.67432 0.69264 0.0
H270 H 0.84352 0.65347 0.63141 0.0
H271 H 0.83106 0.63465 0.77408 0.0
C272 C 0.80557 0.57788 0.73496 0.0
O273 O 0.80646 0.56056 0.70498 0.0
N274 N 0.8511 0.57257 0.67248 0.0
C275 C 0.85609 0.5627 0.6301 0.0
C276 C 0.86382 0.54076 0.63825 0.0
C277 C 0.85616 0.55655 0.70584 0.0
N278 N 0.86384 0.53694 0.68583 0.0
C279 C 0.83538 0.61076 0.58417 0.0
C280 C 0.78836 0.60537 0.58609 0.0
C281 C 0.7991 0.60918 0.54185 0.0
C282 C 0.82293 0.61221 0.54146 0.0
C283 C 0.80144 0.60434 0.62817 0.0
N284 N 0.82481 0.60621 0.62686 0.0
H285 H 0.85371 0.61301 0.5826 0.0
H286 H 0.79241 0.60244 0.66146 0.0
H287 H 0.85522 0.57092 0.59561 0.0
H288 H 0.85506 0.55949 0.74403 0.0
O289 O 0.87366 0.61343 0.65861 0.0
O290 O 0.86674 0.60493 0.73437 0.0
O291 O 0.81769 0.59586 0.7281 0.0
C292 C 0.8814 0.61142 0.70216 0.0
H293 H 0.8275 0.67984 0.76767 0.0
H294 H 0.86935 0.52864 0.61128 0.0
H295 H 0.76991 0.60362 0.58834 0.0
H296 H 0.83201 0.61526 0.50824 0.0
Co297 Co 0.60307 0.16796 0.33395 0.0
C298 C 0.65342 0.17045 0.35067 0.0
C299 C 0.64414 0.17561 0.27703 0.0
C300 C 0.66752 0.17738 0.2809 0.0
N301 N 0.63531 0.17147 0.3207 0.0
N302 N 0.67336 0.17419 0.32714 0.0
H303 H 0.65201 0.16739 0.38877 0.0
H304 H 0.6342 0.1771 0.24451 0.0
C305 C 0.58082 0.20878 0.28377 0.0
O306 O 0.5628 0.20846 0.31179 0.0
N307 N 0.57023 0.16431 0.34562 0.0
C308 C 0.55724 0.17284 0.38158 0.0
C309 C 0.53453 0.16819 0.37236 0.0
C310 C 0.55501 0.15441 0.31537 0.0
N311 N 0.53324 0.1566 0.33085 0.0
C312 C 0.60538 0.17621 0.43504 0.0
C313 C 0.61431 0.22275 0.43093 0.0
C314 C 0.61175 0.21244 0.47622 0.0
C315 C 0.60742 0.18871 0.47758 0.0
C316 C 0.61184 0.20964 0.38911 0.0
N317 N 0.60672 0.18678 0.39147 0.0
H318 H 0.60172 0.15807 0.43717 0.0
H319 H 0.61439 0.21794 0.355 0.0
H320 H 0.56324 0.18311 0.4111 0.0
H321 H 0.5595 0.14679 0.28136 0.0
O322 O 0.60888 0.13772 0.36085 0.0
O323 O 0.60156 0.14489 0.28455 0.0
O324 O 0.59755 0.19512 0.29083 0.0
C325 C 0.60636 0.12992 0.31746 0.0
H326 H 0.67936 0.18043 0.25173 0.0
H327 H 0.52002 0.17344 0.39386 0.0
H328 H 0.61846 0.24079 0.42761 0.0
H329 H 0.60504 0.17979 0.5112 0.0
Co330 Co 0.16916 0.40856 0.68828 0.0
C331 C 0.17155 0.3583 0.67182 0.0
C332 C 0.17968 0.36766 0.74421 0.0
C333 C 0.18019 0.34416 0.74068 0.0
N334 N 0.17435 0.37649 0.70109 0.0
N335 N 0.17505 0.33829 0.69522 0.0
H336 H 0.16632 0.35961 0.63478 0.0
H337 H 0.18248 0.37764 0.77632 0.0
C338 C 0.20842 0.43305 0.74011 0.0
O339 O 0.2055 0.45251 0.71727 0.0
N340 N 0.16345 0.44093 0.67656 0.0
C341 C 0.16171 0.45175 0.63398 0.0
C342 C 0.15419 0.47379 0.6415 0.0
C343 C 0.15677 0.45664 0.70938 0.0
N344 N 0.15112 0.47682 0.68884 0.0
C345 C 0.17628 0.40192 0.58725 0.0
C346 C 0.2234 0.40649 0.58693 0.0
C347 C 0.21208 0.40351 0.54307 0.0
C348 C 0.18819 0.4009 0.54379 0.0
C349 C 0.21084 0.40756 0.62959 0.0
N350 N 0.18743 0.40604 0.62945 0.0
H351 H 0.15789 0.40003 0.58664 0.0
H352 H 0.2203 0.40953 0.66232 0.0
H353 H 0.1649 0.44427 0.59939 0.0
H354 H 0.15547 0.45319 0.74736 0.0
O355 O 0.13869 0.40132 0.66386 0.0
O356 O 0.14706 0.40904 0.73936 0.0
O357 O 0.19656 0.41532 0.72964 0.0
C358 C 0.13167 0.40349 0.70791 0.0
H359 H 0.18401 0.33229 0.7694 0.0
H360 H 0.151 0.48658 0.61419 0.0
H361 H 0.24185 0.40842 0.58833 0.0
H362 H 0.17871 0.39802 0.51101 0.0
Co363 Co 0.40853 0.84709 0.33491 0.0
C364 C 0.35824 0.84274 0.34798 0.0
C365 C 0.36869 0.83711 0.27524 0.0
C366 C 0.34518 0.83575 0.27744 0.0
N367 N 0.37683 0.84139 0.31943 0.0
N368 N 0.33866 0.83928 0.32316 0.0
H369 H 0.35892 0.84694 0.38564 0.0
H370 H 0.3791 0.83566 0.24338 0.0
C371 C 0.43462 0.80837 0.28521 0.0
O372 O 0.45263 0.81024 0.31309 0.0
N373 N 0.44043 0.85333 0.34932 0.0
C374 C 0.45013 0.85648 0.39266 0.0
C375 C 0.47236 0.86381 0.38638 0.0
C376 C 0.45686 0.8591 0.31734 0.0
N377 N 0.47654 0.8654 0.33905 0.0
C378 C 0.3995 0.8392 0.43486 0.0
C379 C 0.4065 0.79237 0.43576 0.0
C380 C 0.40138 0.80335 0.47922 0.0
C381 C 0.39751 0.82711 0.47797 0.0
C382 C 0.40809 0.80508 0.39326 0.0
N383 N 0.40529 0.82838 0.39317 0.0
H384 H 0.39665 0.85748 0.43533 0.0
H385 H 0.4115 0.7958 0.36087 0.0
H386 H 0.44167 0.85443 0.42668 0.0
H387 H 0.45425 0.85925 0.27897 0.0
O388 O 0.40031 0.87728 0.35955 0.0
O389 O 0.4098 0.86961 0.28456 0.0
O390 O 0.4166 0.8202 0.293 0.0
C391 C 0.40351 0.88468 0.31603 0.0
H392 H 0.33378 0.83244 0.24766 0.0
H393 H 0.48448 0.86784 0.41449 0.0
H394 H 0.40964 0.77409 0.43443 0.0
H395 H 0.39285 0.83643 0.51002 0.0
Co396 Co 0.84705 0.90651 0.58943 0.0
C397 C 0.8406 0.85548 0.59977 0.0
C398 C 0.83707 0.8674 0.52762 0.0
C399 C 0.83501 0.84391 0.52763 0.0
N400 N 0.84027 0.87478 0.57293 0.0
N401 N 0.83723 0.83646 0.57303 0.0
H402 H 0.84425 0.85493 0.63748 0.0
H403 H 0.83662 0.87841 0.49645 0.0
C404 C 0.80084 0.90652 0.54509 0.0
O405 O 0.79564 0.88905 0.57286 0.0
N406 N 0.85436 0.93801 0.60363 0.0
C407 C 0.86226 0.94629 0.64546 0.0
C408 C 0.86834 0.96891 0.63899 0.0
C409 C 0.85575 0.95556 0.57224 0.0
N410 N 0.86435 0.97468 0.59291 0.0
C411 C 0.83679 0.89277 0.68656 0.0
C412 C 0.79753 0.91868 0.6967 0.0
C413 C 0.80425 0.90457 0.73494 0.0
C414 C 0.82445 0.89174 0.72952 0.0
C415 C 0.81026 0.919 0.65428 0.0
N416 N 0.82896 0.90517 0.64847 0.0
H417 H 0.85292 0.88381 0.6843 0.0
H418 H 0.8053 0.93091 0.6266 0.0
H419 H 0.86421 0.93636 0.67791 0.0
H420 H 0.85167 0.95398 0.53458 0.0
O421 O 0.87692 0.89716 0.61348 0.0
O422 O 0.86914 0.90692 0.53856 0.0
O423 O 0.82007 0.91677 0.54985 0.0
C424 C 0.88413 0.89996 0.56966 0.0
H425 H 0.83222 0.83315 0.4966 0.0
H426 H 0.87553 0.98013 0.66597 0.0
H427 H 0.78283 0.92989 0.69977 0.0
H428 H 0.83076 0.88093 0.75811 0.0
Co429 Co 0.90486 0.16866 0.43823 0.0
C430 C 0.85461 0.17262 0.425 0.0
C431 C 0.86543 0.18319 0.49502 0.0
C432 C 0.84196 0.18466 0.49275 0.0
N433 N 0.87335 0.17586 0.45247 0.0
N434 N 0.83511 0.17794 0.44877 0.0
H435 H 0.85521 0.16573 0.38911 0.0
H436 H 0.87594 0.18655 0.52608 0.0
C437 C 0.93272 0.20691 0.48552 0.0
O438 O 0.95066 0.20375 0.45795 0.0
N439 N 0.93651 0.16087 0.42492 0.0
C440 C 0.94618 0.15677 0.38191 0.0
C441 C 0.96813 0.14889 0.38886 0.0
C442 C 0.95266 0.15505 0.45743 0.0
N443 N 0.97217 0.14787 0.4363 0.0
C444 C 0.89627 0.1755 0.33767 0.0
C445 C 0.90546 0.22196 0.33417 0.0
C446 C 0.89965 0.21073 0.29139 0.0
C447 C 0.89473 0.18715 0.2939 0.0
C448 C 0.90658 0.20972 0.37727 0.0
N449 N 0.90268 0.18657 0.37869 0.0
H450 H 0.89255 0.15736 0.33828 0.0
H451 H 0.91049 0.21928 0.40906 0.0
H452 H 0.93786 0.15867 0.34768 0.0
H453 H 0.95002 0.15565 0.49577 0.0
O454 O 0.8956 0.13834 0.41563 0.0
O455 O 0.90475 0.14709 0.49024 0.0
O456 O 0.91409 0.19588 0.47834 0.0
C457 C 0.89803 0.13166 0.45988 0.0
H458 H 0.83085 0.19017 0.52153 0.0
H459 H 0.9802 0.14419 0.36112 0.0
H460 H 0.90945 0.24011 0.33455 0.0
H461 H 0.88955 0.17768 0.26238 0.0
Co462 Co 0.16695 0.10697 0.57972 0.0
C463 C 0.16962 0.15738 0.59402 0.0
C464 C 0.17567 0.1475 0.52107 0.0
C465 C 0.17638 0.17104 0.52381 0.0
N466 N 0.17151 0.13898 0.56503 0.0
N467 N 0.17258 0.17722 0.56965 0.0
H468 H 0.16548 0.15634 0.63169 0.0
H469 H 0.17756 0.13728 0.48902 0.0
C470 C 0.20707 0.08254 0.53214 0.0
O471 O 0.20648 0.06534 0.56252 0.0
N472 N 0.16199 0.07466 0.59324 0.0
C473 C 0.16112 0.06412 0.63618 0.0
C474 C 0.15652 0.04123 0.62927 0.0
C475 C 0.15739 0.05802 0.56086 0.0
N476 N 0.15428 0.03735 0.5819 0.0
C477 C 0.17435 0.11496 0.68022 0.0
C478 C 0.22149 0.11096 0.68017 0.0
C479 C 0.21023 0.11416 0.72397 0.0
C480 C 0.18636 0.1167 0.72345 0.0
C481 C 0.20887 0.10968 0.63761 0.0
N482 N 0.18544 0.11063 0.63803 0.0
H483 H 0.15593 0.11643 0.68106 0.0
H484 H 0.21828 0.10812 0.60475 0.0
H485 H 0.16333 0.07222 0.67051 0.0
H486 H 0.15686 0.06096 0.52263 0.0
O487 O 0.13649 0.11383 0.60457 0.0
O488 O 0.14458 0.10533 0.52932 0.0
O489 O 0.19407 0.09993 0.53769 0.0
C490 C 0.12927 0.11097 0.56084 0.0
H491 H 0.1795 0.1827 0.49434 0.0
H492 H 0.15454 0.02852 0.65723 0.0
H493 H 0.24 0.10967 0.67871 0.0
H494 H 0.17693 0.11933 0.75638 0.0
Co495 Co 0.10752 0.8437 0.43708 0.0
C496 C 0.15758 0.83996 0.42243 0.0
C497 C 0.14757 0.83185 0.49451 0.0
C498 C 0.17107 0.83079 0.49155 0.0
N499 N 0.13919 0.83756 0.45123 0.0
N500 N 0.17732 0.83592 0.44628 0.0
H501 H 0.15658 0.8453 0.38538 0.0
H502 H 0.13733 0.82915 0.5263 0.0
C503 C 0.08207 0.80337 0.48139 0.0
O504 O 0.06743 0.80195 0.4458 0.0
N505 N 0.07547 0.85024 0.42441 0.0
C506 C 0.06573 0.85695 0.38289 0.0
C507 C 0.04361 0.86371 0.39169 0.0
C508 C 0.05906 0.85332 0.458 0.0
N509 N 0.03947 0.86152 0.43889 0.0
C510 C 0.11175 0.83593 0.33596 0.0
C511 C 0.11387 0.78862 0.33823 0.0
C512 C 0.11347 0.79972 0.29366 0.0
C513 C 0.11276 0.82371 0.29299 0.0
C514 C 0.11228 0.80154 0.38057 0.0
N515 N 0.11011 0.82492 0.37903 0.0
H516 H 0.11199 0.85442 0.33435 0.0
H517 H 0.11317 0.79263 0.41433 0.0
H518 H 0.07408 0.85821 0.34869 0.0
H519 H 0.06182 0.85079 0.49596 0.0
O520 O 0.11604 0.87373 0.41167 0.0
O521 O 0.10715 0.8663 0.48708 0.0
O522 O 0.09891 0.8173 0.47975 0.0
C523 C 0.11345 0.88125 0.45526 0.0
H524 H 0.18266 0.82663 0.52051 0.0
H525 H 0.03166 0.87037 0.36552 0.0
H526 H 0.11505 0.7701 0.34034 0.0
H527 H 0.11326 0.83301 0.25941 0.0
H528 H 0.29659 0.11657 0.29475 0.0
H529 H 0.28026 0.04516 0.27036 0.0
H530 H 0.27419 0.11606 0.36766 0.0
H531 H 0.25694 0.04489 0.34319 0.0
H532 H 0.23598 0.04791 0.50302 0.0
H533 H 0.25963 0.04696 0.43061 0.0
H534 H 0.23533 0.1145 0.39229 0.0
H535 H 0.21257 0.11578 0.46456 0.0
C536 C 0.28805 0.10077 0.30465 0.0
C537 C 0.29024 0.08091 0.27648 0.0
C538 C 0.27505 0.10051 0.34652 0.0
C539 C 0.26366 0.08046 0.36133 0.0
C540 C 0.2657 0.06056 0.33311 0.0
C541 C 0.27886 0.06079 0.2911 0.0
C542 C 0.2359 0.06262 0.47931 0.0
C543 C 0.22243 0.08195 0.48983 0.0
C544 C 0.24927 0.06198 0.43758 0.0
C545 C 0.24943 0.08067 0.4056 0.0
C546 C 0.23597 0.09995 0.41638 0.0
C547 C 0.22277 0.10062 0.45791 0.0
H548 H 0.09448 0.81593 0.57101 0.0
H549 H 0.06204 0.76088 0.49268 0.0
H550 H 0.09093 0.79402 0.64502 0.0
H551 H 0.05902 0.73856 0.56727 0.0
H552 H 0.09577 0.70005 0.69755 0.0
H553 H 0.09216 0.72195 0.62356 0.0
H554 H 0.05811 0.77623 0.70055 0.0
H555 H 0.0612 0.75393 0.77508 0.0
C556 C 0.08654 0.79912 0.56964 0.0
C557 C 0.07871 0.79 0.52594 0.0
C558 C 0.08433 0.7867 0.61213 0.0
C559 C 0.07466 0.76466 0.61186 0.0
C560 C 0.06653 0.75557 0.56835 0.0
C561 C 0.06824 0.76829 0.52579 0.0
C562 C 0.08741 0.71662 0.6988 0.0
C563 C 0.07895 0.72539 0.74227 0.0
C564 C 0.08515 0.72902 0.65629 0.0
C565 C 0.07479 0.7507 0.65632 0.0
C566 C 0.06615 0.7595 0.69964 0.0
C567 C 0.06792 0.74679 0.74218 0.0
H568 H 0.76749 0.87975 0.50594 0.0
H569 H 0.80138 0.94532 0.48969 0.0
H570 H 0.74572 0.88687 0.43297 0.0
H571 H 0.7792 0.95251 0.41669 0.0
H572 H 0.73013 0.89565 0.27474 0.0
H573 H 0.75628 0.89138 0.34257 0.0
H574 H 0.73562 0.95765 0.39605 0.0
H575 H 0.70923 0.96186 0.32869 0.0
C576 C 0.7701 0.89581 0.48714 0.0
C577 C 0.7861 0.91202 0.50366 0.0
C578 C 0.75783 0.89974 0.44506 0.0
C579 C 0.76104 0.92009 0.41899 0.0
C580 C 0.77652 0.93664 0.43613 0.0
C581 C 0.78912 0.93254 0.47788 0.0
C582 C 0.73154 0.90953 0.30037 0.0
C583 C 0.71751 0.92901 0.29669 0.0
C584 C 0.74635 0.90699 0.33933 0.0
C585 C 0.7477 0.92408 0.37472 0.0
C586 C 0.73489 0.94425 0.36923 0.0
C587 C 0.71979 0.94662 0.33075 0.0
H588 H 0.90289 0.30363 0.71138 0.0
H589 H 0.96653 0.27309 0.75783 0.0
H590 H 0.90431 0.28177 0.63824 0.0
H591 H 0.96752 0.25018 0.6842 0.0
H592 H 0.9706 0.22834 0.52418 0.0
H593 H 0.97199 0.25209 0.59656 0.0
H594 H 0.89892 0.24338 0.6142 0.0
H595 H 0.89739 0.2209 0.54174 0.0
C596 C 0.91711 0.29203 0.70635 0.0
C597 C 0.93448 0.29001 0.74095 0.0
C598 C 0.91788 0.27936 0.66419 0.0
C599 C 0.93589 0.26398 0.65541 0.0
C600 C 0.95347 0.262 0.6897 0.0
C601 C 0.9528 0.27495 0.73207 0.0
C602 C 0.95483 0.23182 0.54325 0.0
C603 C 0.93387 0.2227 0.52705 0.0
C604 C 0.95567 0.24518 0.58502 0.0
C605 C 0.93557 0.24969 0.61124 0.0
C606 C 0.9147 0.24063 0.59464 0.0
C607 C 0.91385 0.22751 0.55307 0.0
H608 H 0.2603 0.39143 0.01341 0.0
H609 H 0.3096 0.44332 0.97248 0.0
H610 H 0.23878 0.39874 0.94044 0.0
H611 H 0.28809 0.45039 0.89887 0.0
H612 H 0.22421 0.39416 0.78248 0.0
H613 H 0.24627 0.39077 0.8557 0.0
H614 H 0.25092 0.46459 0.86517 0.0
H615 H 0.22871 0.46808 0.79099 0.0
C616 C 0.26646 0.40454 0.98909 0.0
C617 C 0.2868 0.41663 0.99866 0.0
C618 C 0.2542 0.40862 0.94704 0.0
C619 C 0.26194 0.42488 0.91346 0.0
C620 C 0.28167 0.43778 0.92403 0.0
C621 C 0.29401 0.43366 0.96618 0.0
C622 C 0.22999 0.40974 0.79988 0.0
C623 C 0.22445 0.43142 0.7811 0.0
C624 C 0.24253 0.40777 0.84211 0.0
C625 C 0.24993 0.42741 0.86681 0.0
C626 C 0.2454 0.44914 0.84697 0.0
C627 C 0.23273 0.45113 0.80447 0.0
H628 H 0.47052 0.7829 0.24934 0.0
H629 H 0.3994 0.79954 0.22409 0.0
H630 H 0.47071 0.75948 0.17647 0.0
H631 H 0.39986 0.7772 0.15133 0.0
H632 H 0.46715 0.73898 0.01555 0.0
H633 H 0.4687 0.76211 0.08871 0.0
H634 H 0.40091 0.73841 0.12689 0.0
H635 H 0.39902 0.71628 0.05393 0.0
C636 C 0.45495 0.78153 0.22845 0.0
C637 C 0.43493 0.79305 0.24281 0.0
C638 C 0.45512 0.76833 0.18643 0.0
C639 C 0.43528 0.7664 0.15802 0.0
C640 C 0.41535 0.77792 0.17262 0.0
C641 C 0.41514 0.79092 0.21443 0.0
C642 C 0.45252 0.73893 0.03941 0.0
C643 C 0.4329 0.72587 0.02856 0.0
C644 C 0.4535 0.75199 0.08157 0.0
C645 C 0.4349 0.75221 0.11368 0.0
C646 C 0.4154 0.73904 0.1027 0.0
C647 C 0.41437 0.72619 0.06073 0.0
H648 H 0.7274 0.54158 0.99398 0.0
H649 H 0.72013 0.61475 0.97461 0.0
H650 H 0.75156 0.5399 0.92224 0.0
H651 H 0.74308 0.61294 0.90277 0.0
H652 H 0.77412 0.54468 0.76157 0.0
H653 H 0.75057 0.54392 0.83437 0.0
H654 H 0.78169 0.60754 0.88021 0.0
H655 H 0.80428 0.60867 0.80796 0.0
C656 C 0.73097 0.55729 0.97462 0.0
C657 C 0.7218 0.57831 0.99022 0.0
C658 C 0.74459 0.55628 0.9332 0.0
C659 C 0.74933 0.57628 0.90667 0.0
C660 C 0.74016 0.59722 0.92258 0.0
C661 C 0.72676 0.59824 0.96379 0.0
C662 C 0.77577 0.55854 0.78714 0.0
C663 C 0.79089 0.5769 0.77841 0.0
C664 C 0.76243 0.55801 0.82905 0.0
C665 C 0.76404 0.5758 0.86302 0.0
C666 C 0.77953 0.59382 0.85447 0.0
C667 C 0.79262 0.59442 0.81281 0.0
H668 H 0.54635 0.23579 0.24751 0.0
H669 H 0.61647 0.2154 0.22206 0.0
H670 H 0.54688 0.25818 0.17344 0.0
H671 H 0.61675 0.23707 0.14793 0.0
H672 H 0.61785 0.29755 0.04548 0.0
H673 H 0.61675 0.27573 0.11938 0.0
H674 H 0.548 0.25308 0.08644 0.0
H675 H 0.54884 0.27561 0.01256 0.0
C676 C 0.56189 0.23615 0.22633 0.0
C677 C 0.58136 0.22379 0.24086 0.0
C678 C 0.56211 0.24877 0.1836 0.0
C679 C 0.58183 0.24936 0.15457 0.0
C680 C 0.60135 0.23724 0.16957 0.0
C681 C 0.60114 0.22469 0.21212 0.0
C682 C 0.60249 0.28787 0.0537 0.0
C683 C 0.58342 0.28839 0.02296 0.0
C684 C 0.60191 0.27523 0.09614 0.0
C685 C 0.58228 0.26266 0.10901 0.0
C686 C 0.56329 0.26284 0.07794 0.0
C687 C 0.56386 0.27555 0.03533 0.0
H688 H 0.35222 0.30193 0.02271 0.0
H689 H 0.32516 0.32395 0.15893 0.0
H690 H 0.35257 0.26234 0.05084 0.0
H691 H 0.32522 0.28436 0.187 0.0
H692 H 0.35028 0.21515 0.23958 0.0
H693 H 0.35097 0.25442 0.21012 0.0
H694 H 0.32764 0.23092 0.07174 0.0
H695 H 0.32727 0.19147 0.10131 0.0
C696 C 0.34613 0.29829 0.05852 0.0
C697 C 0.33868 0.31613 0.0886 0.0
C698 C 0.34631 0.27557 0.07466 0.0
C699 C 0.33895 0.2701 0.12124 0.0
C700 C 0.33141 0.28796 0.15122 0.0
C701 C 0.33134 0.31068 0.13515 0.0
C702 C 0.34517 0.21836 0.20295 0.0
C703 C 0.33857 0.20018 0.17288 0.0
C704 C 0.34553 0.24091 0.18604 0.0
C705 C 0.33918 0.24592 0.13864 0.0
C706 C 0.33289 0.22769 0.10829 0.0
C707 C 0.33265 0.20506 0.1252 0.0
H708 H 0.21348 0.66218 0.77686 0.0
H709 H 0.18906 0.68662 0.91338 0.0
H710 H 0.2525 0.66154 0.8075 0.0
H711 H 0.22823 0.68648 0.94407 0.0
H712 H 0.29836 0.66368 0.99745 0.0
H713 H 0.25919 0.66226 0.96751 0.0
H714 H 0.28262 0.68692 0.82994 0.0
H715 H 0.32186 0.68785 0.85986 0.0
C716 C 0.2165 0.66759 0.81337 0.0
C717 C 0.19821 0.67457 0.84263 0.0
C718 C 0.2389 0.66728 0.83095 0.0
C719 C 0.24363 0.67412 0.87819 0.0
C720 C 0.22524 0.68081 0.9077 0.0
C721 C 0.20277 0.68093 0.89016 0.0
C722 C 0.29511 0.66889 0.96089 0.0
C723 C 0.31321 0.67593 0.93104 0.0
C724 C 0.27263 0.66813 0.94371 0.0
C725 C 0.26765 0.67453 0.89631 0.0
C726 C 0.28582 0.68148 0.86641 0.0
C727 C 0.30834 0.68207 0.88352 0.0
H728 H 0.71036 0.80721 0.20792 0.0
H729 H 0.64494 0.81872 0.14044 0.0
H730 H 0.71055 0.76773 0.1782 0.0
H731 H 0.64486 0.77884 0.11129 0.0
H732 H 0.6465 0.69693 0.12766 0.0
H733 H 0.64519 0.73693 0.15567 0.0
H734 H 0.71106 0.74961 0.0905 0.0
H735 H 0.71213 0.70993 0.06192 0.0
C736 C 0.69601 0.80121 0.18679 0.0
C737 C 0.67764 0.81594 0.17641 0.0
C738 C 0.69614 0.7787 0.1697 0.0
C739 C 0.67768 0.77027 0.14269 0.0
C740 C 0.65923 0.78494 0.13233 0.0
C741 C 0.65934 0.8077 0.14858 0.0
C742 C 0.66068 0.7083 0.11961 0.0
C743 C 0.67942 0.70041 0.09272 0.0
C744 C 0.65985 0.73115 0.13519 0.0
C745 C 0.678 0.74629 0.12506 0.0
C746 C 0.69686 0.73827 0.09879 0.0
C747 C 0.69745 0.71564 0.08238 0.0
H748 H 0.82248 0.3286 0.91 0.0
H749 H 0.80091 0.3522 0.77065 0.0
H750 H 0.78292 0.33031 0.93798 0.0
H751 H 0.76145 0.35423 0.79858 0.0
H752 H 0.69047 0.33003 0.85102 0.0
H753 H 0.72995 0.32991 0.82168 0.0
H754 H 0.75308 0.35691 0.95744 0.0
H755 H 0.71381 0.35664 0.98665 0.0
C756 C 0.80933 0.3344 0.88553 0.0
C757 C 0.81483 0.34014 0.83808 0.0
C758 C 0.78664 0.33542 0.90151 0.0
C759 C 0.76894 0.34237 0.87048 0.0
C760 C 0.77454 0.34839 0.82319 0.0
C761 C 0.79719 0.34725 0.80718 0.0
C762 C 0.704 0.33615 0.87427 0.0
C763 C 0.69908 0.34313 0.92125 0.0
C764 C 0.72662 0.33611 0.85754 0.0
C765 C 0.74476 0.3432 0.88738 0.0
C766 C 0.73965 0.35081 0.93388 0.0
C767 C 0.71712 0.35072 0.95061 0.0
H768 H 0.85029 0.79874 0.52343 0.0
H769 H 0.82343 0.821 0.65965 0.0
H770 H 0.85017 0.75911 0.55148 0.0
H771 H 0.82298 0.78141 0.68762 0.0
H772 H 0.84815 0.71243 0.74048 0.0
H773 H 0.8489 0.7516 0.71059 0.0
H774 H 0.82496 0.72786 0.5728 0.0
H775 H 0.82457 0.68845 0.60285 0.0
C776 C 0.84413 0.79513 0.55921 0.0
C777 C 0.83693 0.81301 0.5894 0.0
C778 C 0.84403 0.77241 0.57528 0.0
C779 C 0.83663 0.76705 0.62186 0.0
C780 C 0.82922 0.78495 0.65185 0.0
C781 C 0.82945 0.80766 0.63586 0.0
C782 C 0.8429 0.71557 0.70391 0.0
C783 C 0.83612 0.69737 0.67412 0.0
C784 C 0.8433 0.73805 0.68675 0.0
C785 C 0.83679 0.74294 0.63941 0.0
C786 C 0.83031 0.72468 0.60932 0.0
C787 C 0.83006 0.70211 0.62648 0.0
H788 H 0.82069 0.17824 0.35629 0.0
H789 H 0.79633 0.17386 0.50212 0.0
H790 H 0.78137 0.17627 0.3276 0.0
H791 H 0.75704 0.17313 0.47356 0.0
H792 H 0.6898 0.15019 0.40291 0.0
H793 H 0.72922 0.15 0.43256 0.0
H794 H 0.74796 0.19989 0.32481 0.0
H795 H 0.70883 0.19972 0.29502 0.0
C796 C 0.80702 0.17681 0.38228 0.0
C797 C 0.81181 0.17634 0.43158 0.0
C798 C 0.7844 0.17597 0.36584 0.0
C799 C 0.76597 0.17472 0.39827 0.0
C800 C 0.77077 0.1739 0.44752 0.0
C801 C 0.79338 0.17465 0.46394 0.0
C802 C 0.70235 0.16121 0.38591 0.0
C803 C 0.69626 0.17483 0.34643 0.0
C804 C 0.72494 0.16113 0.40283 0.0
C805 C 0.74186 0.17479 0.3808 0.0
C806 C 0.73556 0.18873 0.34192 0.0
C807 C 0.71309 0.18869 0.3249 0.0
H808 H 0.18444 0.32432 0.60495 0.0
H809 H 0.16157 0.30026 0.74306 0.0
H810 H 0.18324 0.28509 0.57446 0.0
H811 H 0.15986 0.26117 0.71264 0.0
H812 H 0.18444 0.1914 0.6585 0.0
H813 H 0.18439 0.23068 0.68862 0.0
H814 H 0.1581 0.25449 0.55276 0.0
H815 H 0.15864 0.2153 0.52261 0.0
C816 C 0.17887 0.31067 0.62857 0.0
C817 C 0.17327 0.31534 0.67645 0.0
C818 C 0.17814 0.28817 0.61115 0.0
C819 C 0.17156 0.26988 0.64116 0.0
C820 C 0.16549 0.27471 0.68879 0.0
C821 C 0.16641 0.29714 0.70624 0.0
C822 C 0.17848 0.20503 0.6353 0.0
C823 C 0.17166 0.20028 0.58814 0.0
C824 C 0.1784 0.22756 0.65252 0.0
C825 C 0.17129 0.24583 0.62309 0.0
C826 C 0.16412 0.24096 0.57614 0.0
C827 C 0.16438 0.21847 0.55885 0.0
H828 H 0.30064 0.85279 0.2756 0.0
H829 H 0.3243 0.82675 0.41146 0.0
H830 H 0.26139 0.85286 0.30526 0.0
H831 H 0.28498 0.82626 0.44107 0.0
H832 H 0.21522 0.84877 0.49505 0.0
H833 H 0.25437 0.85047 0.46519 0.0
H834 H 0.2309 0.82761 0.32636 0.0
H835 H 0.1916 0.82648 0.35628 0.0
C836 C 0.2974 0.84688 0.31171 0.0
C837 C 0.31554 0.83971 0.34118 0.0
C838 C 0.27488 0.84686 0.32872 0.0
C839 C 0.26993 0.83948 0.37554 0.0
C840 C 0.28815 0.83241 0.40508 0.0
C841 C 0.3107 0.83264 0.38816 0.0
C842 C 0.21846 0.84402 0.45822 0.0
C843 C 0.20036 0.83739 0.42805 0.0
C844 C 0.24092 0.84494 0.44109 0.0
C845 C 0.24589 0.83905 0.3934 0.0
C846 C 0.2277 0.83259 0.36309 0.0
C847 C 0.20518 0.83189 0.38018 0.0
H848 H 0.31341 0.10026 0.94832 0.0
H849 H 0.25416 0.12684 0.02261 0.0
H850 H 0.29262 0.10179 0.87338 0.0
H851 H 0.23271 0.12658 0.94802 0.0
H852 H 0.20617 0.14431 0.79887 0.0
H853 H 0.22751 0.14456 0.874 0.0
H854 H 0.26425 0.08397 0.82869 0.0
H855 H 0.24355 0.08444 0.75308 0.0
C856 C 0.29594 0.10648 0.94888 0.0
C857 C 0.28565 0.11356 0.99202 0.0
C858 C 0.2838 0.10696 0.90569 0.0
C859 C 0.2608 0.11419 0.90416 0.0
C860 C 0.25044 0.12118 0.94731 0.0
C861 C 0.2627 0.12097 0.9905 0.0
C862 C 0.21883 0.13107 0.8051 0.0
C863 C 0.22325 0.11443 0.7699 0.0
C864 C 0.23103 0.13111 0.84835 0.0
C865 C 0.24776 0.11429 0.85788 0.0
C866 C 0.25195 0.09754 0.8226 0.0
C867 C 0.24 0.09772 0.77914 0.0
H868 H 0.08357 0.80311 0.21924 0.0
H869 H 0.14419 0.76706 0.2646 0.0
H870 H 0.084 0.78249 0.14355 0.0
H871 H 0.14577 0.74733 0.18763 0.0
H872 H 0.13215 0.69991 0.06235 0.0
H873 H 0.13127 0.71968 0.13834 0.0
H874 H 0.10033 0.77852 0.06989 0.0
H875 H 0.09899 0.75779 0.99488 0.0
C876 C 0.09715 0.79086 0.21266 0.0
C877 C 0.11381 0.78665 0.24785 0.0
C878 C 0.09759 0.77913 0.16892 0.0
C879 C 0.11504 0.76317 0.15852 0.0
C880 C 0.13176 0.75906 0.19406 0.0
C881 C 0.13099 0.77046 0.2383 0.0
C882 C 0.1247 0.71689 0.06337 0.0
C883 C 0.11533 0.72692 0.02181 0.0
C884 C 0.12462 0.72853 0.10727 0.0
C885 C 0.11563 0.75087 0.11113 0.0
C886 C 0.10694 0.76119 0.06923 0.0
C887 C 0.10659 0.74936 0.02552 0.0
H888 H 0.74615 0.87338 0.01664 0.0
H889 H 0.70752 0.93172 0.96567 0.0
H890 H 0.76857 0.87367 0.94294 0.0
H891 H 0.72951 0.93144 0.89157 0.0
H892 H 0.75747 0.90716 0.74556 0.0
H893 H 0.73521 0.90663 0.81934 0.0
H894 H 0.79738 0.8989 0.9013 0.0
H895 H 0.81984 0.90012 0.82775 0.0
C896 C 0.74246 0.88635 0.99 0.0
C897 C 0.72491 0.90254 0.9975 0.0
C898 C 0.75531 0.88645 0.94761 0.0
C899 C 0.75082 0.90255 0.91133 0.0
C900 C 0.7332 0.91859 0.91852 0.0
C901 C 0.72051 0.91867 0.96107 0.0
C902 C 0.76652 0.90564 0.77924 0.0
C903 C 0.79058 0.90375 0.78031 0.0
C904 C 0.75368 0.90526 0.8216 0.0
C905 C 0.7645 0.90272 0.86623 0.0
C906 C 0.78849 0.90058 0.86745 0.0
C907 C 0.80137 0.9012 0.82512 0.0
H908 H 0.91118 0.19508 0.20152 0.0
H909 H 0.88637 0.25545 0.27466 0.0
H910 H 0.91004 0.21567 0.12594 0.0
H911 H 0.88683 0.27651 0.19964 0.0
H912 H 0.86983 0.30335 0.05085 0.0
H913 H 0.86876 0.28168 0.12554 0.0
H914 H 0.9288 0.24393 0.08108 0.0
H915 H 0.9293 0.26513 1.00593 0.0
C916 C 0.90543 0.21273 0.20167 0.0
C917 C 0.89887 0.22346 0.24469 0.0
C918 C 0.90513 0.22473 0.15816 0.0
C919 C 0.89847 0.24793 0.15624 0.0
C920 C 0.89181 0.25863 0.19923 0.0
C921 C 0.8919 0.24658 0.24267 0.0
C922 C 0.88281 0.29043 0.05712 0.0
C923 C 0.89962 0.28596 0.0223 0.0
C924 C 0.88228 0.27802 0.10014 0.0
C925 C 0.89871 0.26094 0.10983 0.0
C926 C 0.91555 0.25655 0.07485 0.0
C927 C 0.9159 0.26878 0.03165 0.0
H928 H 0.20036 0.42403 0.45821 0.0
H929 H 0.25331 0.3829 0.52339 0.0
H930 H 0.22198 0.42491 0.38359 0.0
H931 H 0.27483 0.38345 0.44859 0.0
H932 H 0.31885 0.40919 0.32432 0.0
H933 H 0.29694 0.40801 0.39849 0.0
H934 H 0.23419 0.40247 0.31716 0.0
H935 H 0.25617 0.40402 0.24295 0.0
C936 C 0.21649 0.41492 0.45646 0.0
C937 C 0.22507 0.40342 0.49695 0.0
C938 C 0.22892 0.4154 0.41355 0.0
C939 C 0.25026 0.40429 0.40978 0.0
C940 C 0.25871 0.39259 0.45021 0.0
C941 C 0.24632 0.39221 0.4932 0.0
C942 C 0.30039 0.40754 0.32223 0.0
C943 C 0.28931 0.40666 0.27754 0.0
C944 C 0.28778 0.40682 0.36488 0.0
C945 C 0.26371 0.40507 0.36413 0.0
C946 C 0.25264 0.40419 0.31935 0.0
C947 C 0.26526 0.40504 0.27668 0.0
H948 H 0.41403 0.81772 0.56937 0.0
H949 H 0.38626 0.759 0.49453 0.0
H950 H 0.41238 0.79643 0.64434 0.0
H951 H 0.3854 0.73756 0.5695 0.0
H952 H 0.41376 0.70011 0.70423 0.0
H953 H 0.4133 0.72127 0.62902 0.0
H954 H 0.38338 0.77949 0.7008 0.0
H955 H 0.38306 0.75816 0.7759 0.0
C956 C 0.40736 0.80038 0.56874 0.0
C957 C 0.40025 0.79023 0.52542 0.0
C958 C 0.4065 0.78813 0.61189 0.0
C959 C 0.39878 0.76527 0.61297 0.0
C960 C 0.39171 0.75505 0.56984 0.0
C961 C 0.39231 0.76738 0.52673 0.0
C962 C 0.40668 0.71726 0.70408 0.0
C963 C 0.39843 0.72729 0.74663 0.0
C964 C 0.40652 0.72944 0.66081 0.0
C965 C 0.39836 0.7521 0.65885 0.0
C966 C 0.39008 0.76217 0.70118 0.0
C967 C 0.38998 0.7499 0.74438 0.0
H968 H 0.69513 0.59839 0.31651 0.0
H969 H 0.75559 0.62357 0.24398 0.0
H970 H 0.71561 0.59921 0.39216 0.0
H971 H 0.77654 0.62279 0.31907 0.0
H972 H 0.803 0.6399 0.46785 0.0
H973 H 0.78148 0.64087 0.39312 0.0
H974 H 0.74368 0.58063 0.43755 0.0
H975 H 0.76476 0.58024 0.51286 0.0
C976 C 0.71278 0.60414 0.3165 0.0
C977 C 0.72355 0.61097 0.27364 0.0
C978 C 0.72471 0.60425 0.36006 0.0
C979 C 0.74788 0.61098 0.36221 0.0
C980 C 0.75866 0.61778 0.31933 0.0
C981 C 0.74668 0.61787 0.27584 0.0
C982 C 0.7901 0.62685 0.46158 0.0
C983 C 0.78562 0.60999 0.49641 0.0
C984 C 0.77778 0.62732 0.41852 0.0
C985 C 0.76076 0.61077 0.40874 0.0
C986 C 0.75629 0.59394 0.4438 0.0
C987 C 0.76844 0.59364 0.48709 0.0
H988 H 0.64395 0.27059 0.75964 0.0
H989 H 0.5828 0.30573 0.71375 0.0
H990 H 0.6449 0.24957 0.68414 0.0
H991 H 0.58305 0.28418 0.63917 0.0
H992 H 0.59865 0.25731 0.49154 0.0
H993 H 0.60037 0.27935 0.56514 0.0
H994 H 0.62818 0.2205 0.63908 0.0
H995 H 0.62821 0.19909 0.56467 0.0
C996 C 0.63056 0.27365 0.73355 0.0
C997 C 0.61336 0.28991 0.7427 0.0
C998 C 0.63102 0.26151 0.69018 0.0
C999 C 0.61406 0.26504 0.65494 0.0
C1000 C 0.59674 0.28123 0.66454 0.0
C1001 C 0.5965 0.29357 0.70757 0.0
C1002 C 0.60558 0.24913 0.52316 0.0
C1003 C 0.61323 0.22623 0.52159 0.0
C1004 C 0.6062 0.26173 0.5659 0.0
C1005 C 0.61423 0.25181 0.60875 0.0
C1006 C 0.62209 0.22898 0.60706 0.0
C1007 C 0.62174 0.21648 0.5642 0.0
H1008 H 0.3711 0.99807 0.13386 0.0
H1009 H 0.36345 0.02865 0.27395 0.0
H1010 H 0.38251 0.96237 0.17052 0.0
H1011 H 0.37642 0.99311 0.31063 0.0
H1012 H 0.37557 0.91654 0.35852 0.0
H1013 H 0.36542 0.95444 0.3272 0.0
H1014 H 0.41305 0.94486 0.21031 0.0
H1015 H 0.4222 0.90686 0.24038 0.0
C1016 C 0.37188 0.99734 0.17248 0.0
C1017 C 0.36618 0.0165 0.20063 0.0
C1018 C 0.37883 0.9768 0.19365 0.0
C1019 C 0.38065 0.97479 0.24369 0.0
C1020 C 0.37507 0.99392 0.27201 0.0
C1021 C 0.36788 0.01449 0.25079 0.0
C1022 C 0.38399 0.92274 0.32644 0.0
C1023 C 0.39946 0.90871 0.30156 0.0
C1024 C 0.37824 0.94448 0.30849 0.0
C1025 C 0.38811 0.95266 0.26565 0.0
C1026 C 0.40454 0.93895 0.2425 0.0
C1027 C 0.40996 0.9172 0.25995 0.0
H1028 H 0.91613 0.62879 0.64564 0.0
H1029 H 0.90048 0.60751 0.7902 0.0
H1030 H 0.95435 0.64132 0.67207 0.0
H1031 H 0.93823 0.61978 0.81612 0.0
H1032 H 0.99284 0.66959 0.86011 0.0
H1033 H 0.95648 0.65805 0.82524 0.0
H1034 H 0.99217 0.62604 0.70763 0.0
H1035 H 0.02894 0.63755 0.74304 0.0
C1036 C 0.9209 0.62659 0.68282 0.0
C1037 C 0.90521 0.61734 0.71589 0.0
C1038 C 0.94275 0.63371 0.6979 0.0
C1039 C 0.94914 0.63186 0.74632 0.0
C1040 C 0.93366 0.6219 0.77879 0.0
C1041 C 0.91203 0.61474 0.7638 0.0
C1042 C 0.99303 0.66005 0.82689 0.0
C1043 C 0.01384 0.65412 0.80489 0.0
C1044 C 0.97216 0.65346 0.80684 0.0
C1045 C 0.97147 0.64077 0.76413 0.0
C1046 C 0.99218 0.63581 0.74059 0.0
C1047 C 0.01321 0.64241 0.76084 0.0
H1048 H 0.61245 0.99012 0.1983 0.0
H1049 H 0.68123 0.01226 0.23094 0.0
H1050 H 0.59729 0.02533 0.23523 0.0
H1051 H 0.66628 0.04705 0.26811 0.0
H1052 H 0.63087 0.0978 0.36713 0.0
H1053 H 0.6413 0.05917 0.3402 0.0
H1054 H 0.60096 0.06865 0.21225 0.0
H1055 H 0.59082 0.10728 0.23873 0.0
C1056 C 0.62424 1.00243 0.21372 0.0
C1057 C 0.64797 0.99868 0.21126 0.0
C1058 C 0.61563 0.02252 0.23471 0.0
C1059 C 0.63063 0.03887 0.25465 0.0
C1060 C 0.65431 0.03468 0.25345 0.0
C1061 C 0.66288 0.01491 0.2317 0.0
C1062 C 0.62393 0.09145 0.33369 0.0
C1063 C 0.61017 0.10557 0.30488 0.0
C1064 C 0.62997 0.06942 0.31819 0.0
C1065 C 0.62199 0.06096 0.27405 0.0
C1066 C 0.60723 0.07465 0.24654 0.0
C1067 C 0.60154 0.0968 0.26159 0.0
H1068 H 0.09588 0.3868 0.65378 0.0
H1069 H 0.11355 0.40921 0.79649 0.0
H1070 H 0.05761 0.37574 0.68238 0.0
H1071 H 0.07566 0.39845 0.82459 0.0
H1072 H 0.01983 0.34972 0.87186 0.0
H1073 H 0.05619 0.36147 0.83742 0.0
H1074 H 0.02076 0.39158 0.71723 0.0
H1075 H 0.98403 0.37995 0.75214 0.0
C1076 C 0.09152 0.3896 0.69101 0.0
C1077 C 0.1078 0.39868 0.72295 0.0
C1078 C 0.06963 0.38332 0.70734 0.0
C1079 C 0.06375 0.38591 0.7559 0.0
C1080 C 0.07981 0.39577 0.78721 0.0
C1081 C 0.10152 0.40206 0.77098 0.0
C1082 C 0.01966 0.35901 0.83833 0.0
C1083 C 0.9989 0.36415 0.81522 0.0
C1084 C 0.04056 0.36572 0.81849 0.0
C1085 C 0.04135 0.37773 0.77489 0.0
C1086 C 0.0207 0.38227 0.75081 0.0
C1087 C 0.99967 0.37559 0.77082 0.0
H1088 H 0.38068 0.59882 0.90778 0.0
H1089 H 0.41309 0.61444 0.0429 0.0
H1090 H 0.37027 0.56068 0.93819 0.0
H1091 H 0.40318 0.57658 0.07269 0.0
H1092 H 0.35864 0.52051 0.13325 0.0
H1093 H 0.36855 0.55728 0.09755 0.0
H1094 H 0.38562 0.52329 0.96493 0.0
H1095 H 0.37555 0.48635 1.00082 0.0
C1096 C 0.38584 0.594 0.94364 0.0
C1097 C 0.39752 0.60969 0.97307 0.0
C1098 C 0.37991 0.57218 0.96106 0.0
C1099 C 0.38557 0.5657 1.00819 0.0
C1100 C 0.39803 0.58117 0.0367 0.0
C1101 C 0.40386 0.60286 0.01944 0.0
C1102 C 0.36459 0.52083 0.09656 0.0
C1103 C 0.36649 0.50043 0.07013 0.0
C1104 C 0.37031 0.54192 0.07604 0.0
C1105 C 0.37819 0.54323 0.02852 0.0
C1106 C 0.37948 0.52292 1.00151 0.0
C1107 C 0.37369 0.50174 0.0221 0.0
H1108 H 0.61337 0.61126 0.97116 0.0
H1109 H 0.59565 0.6313 0.11533 0.0
H1110 H 0.57531 0.62173 0.94403 0.0
H1111 H 0.5572 0.64212 0.08771 0.0
H1112 H 0.48343 0.63584 0.01887 0.0
H1113 H 0.52071 0.62556 0.053 0.0
H1114 H 0.55458 0.65787 0.93312 0.0
H1115 H 0.51767 0.66818 0.89942 0.0
C1116 C 0.60133 0.61791 0.99716 0.0
C1117 C 0.60761 0.62061 0.04537 0.0
C1118 C 0.5795 0.62403 0.9815 0.0
C1119 C 0.56331 0.63305 0.01357 0.0
C1120 C 0.5693 0.63518 0.06217 0.0
C1121 C 0.59131 0.62907 0.07793 0.0
C1122 C 0.49885 0.64096 1.00014 0.0
C1123 C 0.49752 0.65253 0.95598 0.0
C1124 C 0.52019 0.63507 0.0197 0.0
C1125 C 0.54058 0.64061 0.99541 0.0
C1126 C 0.53919 0.65286 0.95217 0.0
C1127 C 0.51798 0.65873 0.93276 0.0
H1128 H 0.66345 0.52143 0.99814 0.0
H1129 H 0.61241 0.51228 0.10811 0.0
H1130 H 0.65309 0.48414 0.96381 0.0
H1131 H 0.60144 0.4756 0.07337 0.0
H1132 H 0.60938 0.39989 0.04353 0.0
H1133 H 0.61723 0.43861 0.07007 0.0
H1134 H 0.6253 0.46041 0.92309 0.0
H1135 H 0.61814 0.42094 0.89641 0.0
C1136 C 0.64972 0.51161 0.01436 0.0
C1137 C 0.63895 0.51956 0.05617 0.0
C1138 C 0.64372 0.49027 0.99469 0.0
C1139 C 0.62664 0.47659 0.0162 0.0
C1140 C 0.61512 0.48526 0.05658 0.0
C1141 C 0.62132 0.50634 0.07648 0.0
C1142 C 0.6127 0.4129 0.01668 0.0
C1143 C 0.61306 0.4073 0.9678 0.0
C1144 C 0.61705 0.43526 0.03195 0.0
C1145 C 0.62169 0.45284 0.9988 0.0
C1146 C 0.62196 0.4473 0.94969 0.0
C1147 C 0.61771 0.42474 0.93434 0.0
H1148 H 0.41256 0.3717 0.11208 0.0
H1149 H 0.41014 0.42395 1.00259 0.0
H1150 H 0.45094 0.36044 0.08449 0.0
H1151 H 0.44871 0.41322 0.9763 0.0
H1152 H 0.52877 0.39705 0.98426 0.0
H1153 H 0.49295 0.40975 0.02251 0.0
H1154 H 0.46166 0.3446 0.98892 0.0
H1155 H 0.49714 0.33226 0.94946 0.0
C1156 C 0.42044 0.38107 0.08288 0.0
C1157 C 0.40845 0.39864 0.05935 0.0
C1158 C 0.44228 0.3746 0.06707 0.0
C1159 C 0.45265 0.38606 0.02847 0.0
C1160 C 0.44107 0.40427 1.00635 0.0
C1161 C 0.41903 0.41032 0.02127 0.0
C1162 C 0.51425 0.38548 0.9855 0.0
C1163 C 0.51554 0.36379 0.96379 0.0
C1164 C 0.49386 0.3927 1.0072 0.0
C1165 C 0.47473 0.37805 1.00873 0.0
C1166 C 0.47628 0.35609 0.98842 0.0
C1167 C 0.49643 0.34912 0.96565 0.0
H1168 H 0.89248 0.41866 0.87155 0.0
H1169 H 0.90485 0.3984 0.72512 0.0
H1170 H 0.88456 0.45794 0.84447 0.0
H1171 H 0.89625 0.43681 0.69819 0.0
H1172 H 0.8995 0.51037 0.66053 0.0
H1173 H 0.91111 0.47424 0.69671 0.0
H1174 H 0.85676 0.48062 0.80106 0.0
H1175 H 0.84579 0.51745 0.76542 0.0
C1176 C 0.89354 0.42259 0.83372 0.0
C1177 C 0.89944 0.40546 0.80055 0.0
C1178 C 0.88887 0.44502 0.81814 0.0
C1179 C 0.88996 0.45067 0.76912 0.0
C1180 C 0.8958 0.43338 0.73628 0.0
C1181 C 0.90059 0.41119 0.75177 0.0
C1182 C 0.89012 0.50407 0.6913 0.0
C1183 C 0.87156 0.51649 0.70977 0.0
C1184 C 0.89669 0.48332 0.71204 0.0
C1185 C 0.8846 0.47421 0.75132 0.0
C1186 C 0.86656 0.48714 0.77105 0.0
C1187 C 0.86019 0.50817 0.7506 0.0
H1188 H 0.49482 0.1815 0.31939 0.0
H1189 H 0.5255 0.11609 0.28701 0.0
H1190 H 0.45928 0.16932 0.27982 0.0
H1191 H 0.4896 0.10356 0.24864 0.0
H1192 H 0.40606 0.09124 0.26778 0.0
H1193 H 0.44479 0.10131 0.29448 0.0
H1194 H 0.44912 0.15279 0.18385 0.0
H1195 H 0.41058 0.14219 0.15589 0.0
C1196 C 0.49387 0.16453 0.30378 0.0
C1197 C 0.51273 0.14965 0.30631 0.0
C1198 C 0.4737 0.15765 0.28093 0.0
C1199 C 0.47188 0.13559 0.26119 0.0
C1200 C 0.49073 0.1207 0.26349 0.0
C1201 C 0.51116 0.12782 0.28528 0.0
C1202 C 0.41546 0.10441 0.24864 0.0
C1203 C 0.40542 0.11595 0.20981 0.0
C1204 C 0.43758 0.11009 0.2638 0.0
C1205 C 0.44978 0.12778 0.24113 0.0
C1206 C 0.43997 0.13904 0.20169 0.0
C1207 C 0.41804 0.13293 0.18567 0.0
H1208 H 0.11746 0.50429 0.65699 0.0
H1209 H 0.16564 0.49537 0.77234 0.0
H1210 H 0.10502 0.54054 0.6913 0.0
H1211 H 0.15403 0.53239 0.80615 0.0
H1212 H 0.11746 0.59516 0.87019 0.0
H1213 H 0.12556 0.55582 0.84409 0.0
H1214 H 0.11996 0.57759 0.69656 0.0
H1215 H 0.11105 0.61609 0.72249 0.0
C1216 C 0.12543 0.51023 0.68973 0.0
C1217 C 0.14268 0.49724 0.71172 0.0
C1218 C 0.11842 0.53106 0.70937 0.0
C1219 C 0.12883 0.53975 0.75107 0.0
C1220 C 0.14551 0.52625 0.7742 0.0
C1221 C 0.15225 0.5051 0.75484 0.0
C1222 C 0.11777 0.59136 0.83225 0.0
C1223 C 0.11345 0.60869 0.79845 0.0
C1224 C 0.12255 0.56887 0.81724 0.0
C1225 C 0.12324 0.56336 0.76813 0.0
C1226 C 0.11899 0.58088 0.73465 0.0
C1227 C 0.11403 0.60312 0.74957 0.0
H1228 H 0.59422 0.89665 0.155 0.0
H1229 H 0.61703 0.90312 0.30143 0.0
H1230 H 0.55521 0.88888 0.18326 0.0
H1231 H 0.57872 0.89455 0.32955 0.0
H1232 H 0.50523 0.89827 0.37102 0.0
H1233 H 0.54177 0.90973 0.33639 0.0
H1234 H 0.53226 0.86043 0.22245 0.0
H1235 H 0.49514 0.84967 0.25663 0.0
C1236 C 0.5909 0.8964 0.19314 0.0
C1237 C 0.60866 0.90061 0.22595 0.0
C1238 C 0.5686 0.89181 0.20939 0.0
C1239 C 0.56369 0.8912 0.25877 0.0
C1240 C 0.5816 0.8954 0.2913 0.0
C1241 C 0.6037 0.90017 0.27513 0.0
C1242 C 0.51097 0.88995 0.33854 0.0
C1243 C 0.49751 0.87293 0.31679 0.0
C1244 C 0.53195 0.89643 0.31868 0.0
C1245 C 0.54024 0.88578 0.27692 0.0
C1246 C 0.52639 0.86918 0.25435 0.0
C1247 C 0.50517 0.86293 0.27396 0.0
H1248 H 0.89893 0.1159 0.55108 0.0
H1249 H 0.88581 0.09394 0.40598 0.0
H1250 H 0.89082 0.07758 0.57999 0.0
H1251 H 0.87819 0.05491 0.43512 0.0
H1252 H 0.84248 0.99457 0.51785 0.0
H1253 H 0.85089 0.03209 0.48222 0.0
H1254 H 0.90768 0.04042 0.57994 0.0
H1255 H 0.89901 1.00341 0.61571 0.0
C1256 C 0.89448 0.1028 0.52519 0.0
C1257 C 0.89314 0.10796 0.47614 0.0
C1258 C 0.88995 0.08071 0.54182 0.0
C1259 C 0.88411 0.06302 0.5099 0.0
C1260 C 0.88253 0.06816 0.46072 0.0
C1261 C 0.88701 0.09046 0.44398 0.0
C1262 C 0.85684 1.00442 0.53137 0.0
C1263 C 0.86985 0.99621 0.57012 0.0
C1264 C 0.86171 0.02586 0.51089 0.0
C1265 C 0.87978 0.03945 0.52861 0.0
C1266 C 0.89326 0.03075 0.56619 0.0
C1267 C 0.88829 0.0095 0.58678 0.0
H1268 H 0.0918 0.12012 0.61773 0.0
H1269 H 0.11242 0.11099 0.4705 0.0
H1270 H 0.05236 0.12722 0.59136 0.0
H1271 H 0.07374 0.11884 0.44423 0.0
H1272 H 1.00005 0.11388 0.40712 0.0
H1273 H 0.03679 0.10302 0.44141 0.0
H1274 H 0.02874 0.15489 0.5507 0.0
H1275 H 0.9914 0.16508 0.51692 0.0
C1276 C 0.08792 0.11963 0.57984 0.0
C1277 C 0.1052 0.11485 0.54625 0.0
C1278 C 0.06537 0.12383 0.56466 0.0
C1279 C 0.05974 0.12344 0.51561 0.0
C1280 C 0.07718 0.11873 0.48232 0.0
C1281 C 0.09951 0.11438 0.49742 0.0
C1282 C 1.00612 0.12286 0.43858 0.0
C1283 C 0.99303 0.14047 0.45904 0.0
C1284 C 0.02723 0.11673 0.45823 0.0
C1285 C 0.03603 0.12834 0.49842 0.0
C1286 C 0.02249 0.14544 0.51998 0.0
C1287 C 1.00114 0.15136 0.50061 0.0
H1288 H 0.10757 0.90002 0.5431 0.0
H1289 H 0.13023 0.91673 0.39998 0.0
H1290 H 0.11773 0.93829 0.5698 0.0
H1291 H 0.14067 0.95547 0.42723 0.0
H1292 H 0.16474 0.99527 0.6162 0.0
H1293 H 0.15462 0.95838 0.58184 0.0
H1294 H 0.12347 0.99247 0.46111 0.0
H1295 H 0.13348 0.02977 0.49598 0.0
C1296 C 0.11468 0.9119 0.51719 0.0
C1297 C 0.11828 0.90525 0.46946 0.0
C1298 C 0.12062 0.93384 0.53264 0.0
C1299 C 0.13032 0.94979 0.50082 0.0
C1300 C 0.13321 0.94352 0.45255 0.0
C1301 C 0.1273 0.92137 0.43701 0.0
C1302 C 0.15559 0.99502 0.58252 0.0
C1303 C 0.14958 0.01555 0.55934 0.0
C1304 C 0.14984 0.97383 0.56273 0.0
C1305 C 0.13794 0.97252 0.51911 0.0
C1306 C 0.13269 0.99296 0.49474 0.0
C1307 C 0.13843 0.0143 0.51472 0.0
H1308 H 0.01956 0.84095 0.51545 0.0
H1309 H 0.0132 0.89809 0.41825 0.0
H1310 H 0.98253 0.85091 0.55158 0.0
H1311 H 0.97685 0.90847 0.45467 0.0
H1312 H 0.90099 0.90122 0.47942 0.0
H1313 H 0.93936 0.89245 0.4524 0.0
H1314 H 0.96001 0.87869 0.59816 0.0
H1315 H 0.92087 0.88696 0.62538 0.0
C1316 C 0.01038 0.85583 0.50241 0.0
C1317 C 0.01896 0.86849 0.46349 0.0
C1318 C 0.98926 0.8616 0.52311 0.0
C1319 C 0.97649 0.88025 0.50544 0.0
C1320 C 0.98584 0.89359 0.46826 0.0
C1321 C 0.0067 0.88769 0.44737 0.0
C1322 C 0.91366 0.89642 0.50592 0.0
C1323 C 0.9079 0.89492 0.55462 0.0
C1324 C 0.93579 0.89152 0.4904 0.0
C1325 C 0.95293 0.88516 0.52314 0.0
C1326 C 0.94719 0.88346 0.57199 0.0
C1327 C 0.92484 0.88831 0.58761 0.0
loop_
_geom_bond_atom_site_label_1
_geom_bond_atom_site_label_2
_geom_bond_distance
_geom_bond_site_symmetry_2
_ccdc_geom_bond_type
Co0 N4 2.148 . S
Co0 N10 2.128 . S
Co0 N20 2.194 . S
Co0 O25 2.351 . S
Co0 O26 2.155 . S
Co0 O27 2.096 . S
C1 N4 1.301 . S
C1 N5 1.328 . S
C1 H6 0.930 . S
C2 C3 1.333 . S
C2 N4 1.317 . S
C2 H7 0.930 . S
C3 C2 1.333 . S
C3 N5 1.350 . S
C3 H29 0.931 . S
N4 Co0 2.148 . S
N4 C1 1.301 . S
N4 C2 1.317 . S
N5 C1 1.328 . S
N5 C3 1.350 . S
H6 C1 0.930 . S
H7 C2 0.930 . S
C8 O9 1.224 . S
C8 O27 1.247 . S
O9 C8 1.224 . S
N10 Co0 2.128 . S
N10 C11 1.355 . S
N10 C13 1.311 . S
C11 N10 1.355 . S
C11 C12 1.363 . S
C11 H23 0.929 . S
C12 C11 1.363 . S
C12 N14 1.375 . S
C12 H30 0.931 . S
C13 N10 1.311 . S
C13 N14 1.347 . S
C13 H24 0.929 . S
N14 C12 1.375 . S
N14 C13 1.347 . S
C15 C18 1.365 . S
C15 N20 1.328 . S
C15 H21 0.929 . S
C16 C17 1.362 . S
C16 C19 1.378 . S
C16 H31 0.929 . S
C17 C16 1.362 . S
C17 C18 1.366 . S
C18 C15 1.365 . S
C18 C17 1.366 . S
C18 H32 0.930 . S
C19 C16 1.378 . S
C19 N20 1.315 . S
C19 H22 0.930 . S
N20 Co0 2.194 . S
N20 C15 1.328 . S
N20 C19 1.315 . S
H21 C15 0.929 . S
H22 C19 0.930 . S
H23 C11 0.929 . S
H24 C13 0.929 . S
O25 Co0 2.351 . S
O25 C28 1.244 . S
O26 Co0 2.155 . S
O26 C28 1.240 . S
O27 Co0 2.096 . S
O27 C8 1.247 . S
C28 O25 1.244 . S
C28 O26 1.240 . S
H29 C3 0.931 . S
H30 C12 0.931 . S
H31 C16 0.929 . S
H32 C18 0.930 . S
Co33 N37 2.148 . S
Co33 N43 2.128 . S
Co33 N53 2.194 . S
Co33 O58 2.351 . S
Co33 O59 2.155 . S
Co33 O60 2.096 . S
C34 N37 1.301 . S
C34 N38 1.328 . S
C34 H39 0.930 . S
C35 C36 1.333 . S
C35 N37 1.317 . S
C35 H40 0.930 . S
C36 C35 1.333 . S
C36 N38 1.350 . S
C36 H62 0.931 . S
N37 Co33 2.148 . S
N37 C34 1.301 . S
N37 C35 1.317 . S
N38 C34 1.328 . S
N38 C36 1.350 . S
H39 C34 0.930 . S
H40 C35 0.930 . S
C41 O42 1.224 . S
C41 O60 1.247 . S
O42 C41 1.224 . S
N43 Co33 2.128 . S
N43 C44 1.355 . S
N43 C46 1.311 . S
C44 N43 1.355 . S
C44 C45 1.363 . S
C44 H56 0.929 . S
C45 C44 1.363 . S
C45 N47 1.375 . S
C45 H63 0.931 . S
C46 N43 1.311 . S
C46 N47 1.347 . S
C46 H57 0.929 . S
N47 C45 1.375 . S
N47 C46 1.347 . S
C48 C51 1.365 . S
C48 N53 1.328 . S
C48 H54 0.929 . S
C49 C50 1.362 . S
C49 C52 1.378 . S
C49 H64 0.929 . S
C50 C49 1.362 . S
C50 C51 1.366 . S
C51 C48 1.365 . S
C51 C50 1.366 . S
C51 H65 0.930 . S
C52 C49 1.378 . S
C52 N53 1.315 . S
C52 H55 0.930 . S
N53 Co33 2.194 . S
N53 C48 1.328 . S
N53 C52 1.315 . S
H54 C48 0.929 . S
H55 C52 0.930 . S
H56 C44 0.929 . S
H57 C46 0.929 . S
O58 Co33 2.351 . S
O58 C61 1.244 . S
O59 Co33 2.155 . S
O59 C61 1.240 . S
O60 Co33 2.096 . S
O60 C41 1.247 . S
C61 O58 1.244 . S
C61 O59 1.240 . S
H62 C36 0.931 . S
H63 C45 0.931 . S
H64 C49 0.929 . S
H65 C51 0.930 . S
Co66 N70 2.148 . S
Co66 N76 2.128 . S
Co66 N86 2.194 . S
Co66 O91 2.351 . S
Co66 O92 2.155 . S
Co66 O93 2.096 . S
C67 N70 1.301 . S
C67 N71 1.328 . S
C67 H72 0.930 . S
C68 C69 1.333 . S
C68 N70 1.317 . S
C68 H73 0.930 . S
C69 C68 1.333 . S
C69 N71 1.350 . S
C69 H95 0.931 . S
N70 Co66 2.148 . S
N70 C67 1.301 . S
N70 C68 1.317 . S
N71 C67 1.328 . S
N71 C69 1.350 . S
H72 C67 0.930 . S
H73 C68 0.930 . S
C74 O75 1.224 . S
C74 O93 1.247 . S
O75 C74 1.224 . S
N76 Co66 2.128 . S
N76 C77 1.355 . S
N76 C79 1.311 . S
C77 N76 1.355 . S
C77 C78 1.363 . S
C77 H89 0.929 . S
C78 C77 1.363 . S
C78 N80 1.375 . S
C78 H96 0.931 . S
C79 N76 1.311 . S
C79 N80 1.347 . S
C79 H90 0.929 . S
N80 C78 1.375 . S
N80 C79 1.347 . S
C81 C84 1.365 . S
C81 N86 1.328 . S
C81 H87 0.929 . S
C82 C83 1.362 . S
C82 C85 1.378 . S
C82 H97 0.929 . S
C83 C82 1.362 . S
C83 C84 1.366 . S
C84 C81 1.365 . S
C84 C83 1.366 . S
C84 H98 0.930 . S
C85 C82 1.378 . S
C85 N86 1.315 . S
C85 H88 0.930 . S
N86 Co66 2.194 . S
N86 C81 1.328 . S
N86 C85 1.315 . S
H87 C81 0.929 . S
H88 C85 0.930 . S
H89 C77 0.929 . S
H90 C79 0.929 . S
O91 Co66 2.351 . S
O91 C94 1.244 . S
O92 Co66 2.155 . S
O92 C94 1.240 . S
O93 Co66 2.096 . S
O93 C74 1.247 . S
C94 O91 1.244 . S
C94 O92 1.240 . S
H95 C69 0.931 . S
H96 C78 0.931 . S
H97 C82 0.929 . S
H98 C84 0.930 . S
Co99 N103 2.148 . S
Co99 N109 2.128 . S
Co99 N119 2.194 . S
Co99 O124 2.351 . S
Co99 O125 2.155 . S
Co99 O126 2.096 . S
C100 N103 1.301 . S
C100 N104 1.328 . S
C100 H105 0.930 . S
C101 C102 1.333 . S
C101 N103 1.317 . S
C101 H106 0.930 . S
C102 C101 1.333 . S
C102 N104 1.350 . S
C102 H128 0.931 . S
N103 Co99 2.148 . S
N103 C100 1.301 . S
N103 C101 1.317 . S
N104 C100 1.328 . S
N104 C102 1.350 . S
H105 C100 0.930 . S
H106 C101 0.930 . S
C107 O108 1.224 . S
C107 O126 1.247 . S
O108 C107 1.224 . S
N109 Co99 2.128 . S
N109 C110 1.355 . S
N109 C112 1.311 . S
C110 N109 1.355 . S
C110 C111 1.363 . S
C110 H122 0.929 . S
C111 C110 1.363 . S
C111 N113 1.375 . S
C111 H129 0.931 . S
C112 N109 1.311 . S
C112 N113 1.347 . S
C112 H123 0.929 . S
N113 C111 1.375 . S
N113 C112 1.347 . S
C114 C117 1.365 . S
C114 N119 1.328 . S
C114 H120 0.929 . S
C115 C116 1.362 . S
C115 C118 1.378 . S
C115 H130 0.929 . S
C116 C115 1.362 . S
C116 C117 1.366 . S
C117 C114 1.365 . S
C117 C116 1.366 . S
C117 H131 0.930 . S
C118 C115 1.378 . S
C118 N119 1.315 . S
C118 H121 0.930 . S
N119 Co99 2.194 . S
N119 C114 1.328 . S
N119 C118 1.315 . S
H120 C114 0.929 . S
H121 C118 0.930 . S
H122 C110 0.929 . S
H123 C112 0.929 . S
O124 Co99 2.351 . S
O124 C127 1.244 . S
O125 Co99 2.155 . S
O125 C127 1.240 . S
O126 Co99 2.096 . S
O126 C107 1.247 . S
C127 O124 1.244 . S
C127 O125 1.240 . S
H128 C102 0.931 . S
H129 C111 0.931 . S
H130 C115 0.929 . S
H131 C117 0.930 . S
Co132 N136 2.148 . S
Co132 N142 2.128 . S
Co132 N152 2.194 . S
Co132 O157 2.351 . S
Co132 O158 2.155 . S
Co132 O159 2.096 1_554 S
C133 N136 1.301 . S
C133 N137 1.328 . S
C133 H138 0.930 . S
C134 C135 1.333 . S
C134 N136 1.317 . S
C134 H139 0.930 . S
C135 C134 1.333 . S
C135 N137 1.350 . S
C135 H161 0.931 . S
N136 Co132 2.148 . S
N136 C133 1.301 . S
N136 C134 1.317 . S
N137 C133 1.328 . S
N137 C135 1.350 . S
H138 C133 0.930 . S
H139 C134 0.930 . S
C140 O141 1.224 . S
C140 O159 1.247 1_554 S
O141 C140 1.224 . S
N142 Co132 2.128 . S
N142 C143 1.355 . S
N142 C145 1.311 . S
C143 N142 1.355 . S
C143 C144 1.363 . S
C143 H155 0.929 . S
C144 C143 1.363 . S
C144 N146 1.375 . S
C144 H162 0.931 . S
C145 N142 1.311 . S
C145 N146 1.347 . S
C145 H156 0.929 . S
N146 C144 1.375 . S
N146 C145 1.347 . S
C147 C150 1.365 . S
C147 N152 1.328 . S
C147 H153 0.929 . S
C148 C149 1.362 . S
C148 C151 1.378 . S
C148 H163 0.929 . S
C149 C148 1.362 . S
C149 C150 1.366 . S
C150 C147 1.365 . S
C150 C149 1.366 . S
C150 H164 0.930 . S
C151 C148 1.378 . S
C151 N152 1.315 . S
C151 H154 0.930 . S
N152 Co132 2.194 . S
N152 C147 1.328 . S
N152 C151 1.315 . S
H153 C147 0.929 . S
H154 C151 0.930 . S
H155 C143 0.929 . S
H156 C145 0.929 . S
O157 Co132 2.351 . S
O157 C160 1.244 . S
O158 Co132 2.155 . S
O158 C160 1.240 . S
O159 Co132 2.096 1_556 S
O159 C140 1.247 1_556 S
C160 O157 1.244 . S
C160 O158 1.240 . S
H161 C135 0.931 . S
H162 C144 0.931 . S
H163 C148 0.929 . S
H164 C150 0.930 . S
Co165 N169 2.148 . S
Co165 N175 2.128 . S
Co165 N185 2.194 . S
Co165 O190 2.351 . S
Co165 O191 2.155 . S
Co165 O192 2.096 1_556 S
C166 N169 1.301 . S
C166 N170 1.328 . S
C166 H171 0.930 . S
C167 C168 1.333 . S
C167 N169 1.317 . S
C167 H172 0.930 . S
C168 C167 1.333 . S
C168 N170 1.350 . S
C168 H194 0.931 . S
N169 Co165 2.148 . S
N169 C166 1.301 . S
N169 C167 1.317 . S
N170 C166 1.328 . S
N170 C168 1.350 . S
H171 C166 0.930 . S
H172 C167 0.930 . S
C173 O174 1.224 . S
C173 O192 1.247 1_556 S
O174 C173 1.224 . S
N175 Co165 2.128 . S
N175 C176 1.355 . S
N175 C178 1.311 . S
C176 N175 1.355 . S
C176 C177 1.363 . S
C176 H188 0.929 . S
C177 C176 1.363 . S
C177 N179 1.375 . S
C177 H195 0.931 . S
C178 N175 1.311 . S
C178 N179 1.347 . S
C178 H189 0.929 . S
N179 C177 1.375 . S
N179 C178 1.347 . S
C180 C183 1.365 . S
C180 N185 1.328 . S
C180 H186 0.929 . S
C181 C182 1.362 . S
C181 C184 1.378 . S
C181 H196 0.929 . S
C182 C181 1.362 . S
C182 C183 1.366 . S
C183 C180 1.365 . S
C183 C182 1.366 . S
C183 H197 0.930 . S
C184 C181 1.378 . S
C184 N185 1.315 . S
C184 H187 0.930 . S
N185 Co165 2.194 . S
N185 C180 1.328 . S
N185 C184 1.315 . S
H186 C180 0.929 . S
H187 C184 0.930 . S
H188 C176 0.929 . S
H189 C178 0.929 . S
O190 Co165 2.351 . S
O190 C193 1.244 . S
O191 Co165 2.155 . S
O191 C193 1.240 . S
O192 Co165 2.096 1_554 S
O192 C173 1.247 1_554 S
C193 O190 1.244 . S
C193 O191 1.240 . S
H194 C168 0.931 . S
H195 C177 0.931 . S
H196 C181 0.929 . S
H197 C183 0.930 . S
Co198 N202 2.148 . S
Co198 N208 2.128 . S
Co198 N218 2.194 . S
Co198 O223 2.351 . S
Co198 O224 2.155 . S
Co198 O225 2.096 1_554 S
C199 N202 1.301 . S
C199 N203 1.328 . S
C199 H204 0.930 . S
C200 C201 1.333 . S
C200 N202 1.317 . S
C200 H205 0.930 . S
C201 C200 1.333 . S
C201 N203 1.350 . S
C201 H227 0.931 . S
N202 Co198 2.148 . S
N202 C199 1.301 . S
N202 C200 1.317 . S
N203 C199 1.328 . S
N203 C201 1.350 . S
H204 C199 0.930 . S
H205 C200 0.930 . S
C206 O207 1.224 . S
C206 O225 1.247 1_554 S
O207 C206 1.224 . S
N208 Co198 2.128 . S
N208 C209 1.355 . S
N208 C211 1.311 . S
C209 N208 1.355 . S
C209 C210 1.363 . S
C209 H221 0.929 . S
C210 C209 1.363 . S
C210 N212 1.375 . S
C210 H228 0.931 . S
C211 N208 1.311 . S
C211 N212 1.347 . S
C211 H222 0.929 . S
N212 C210 1.375 . S
N212 C211 1.347 . S
C213 C216 1.365 . S
C213 N218 1.328 . S
C213 H219 0.929 . S
C214 C215 1.362 . S
C214 C217 1.378 . S
C214 H229 0.929 . S
C215 C214 1.362 . S
C215 C216 1.366 . S
C216 C213 1.365 . S
C216 C215 1.366 . S
C216 H230 0.930 . S
C217 C214 1.378 . S
C217 N218 1.315 . S
C217 H220 0.930 . S
N218 Co198 2.194 . S
N218 C213 1.328 . S
N218 C217 1.315 . S
H219 C213 0.929 . S
H220 C217 0.930 . S
H221 C209 0.929 . S
H222 C211 0.929 . S
O223 Co198 2.351 . S
O223 C226 1.244 . S
O224 Co198 2.155 . S
O224 C226 1.240 . S
O225 Co198 2.096 1_556 S
O225 C206 1.247 1_556 S
C226 O223 1.244 . S
C226 O224 1.240 . S
H227 C201 0.931 . S
H228 C210 0.931 . S
H229 C214 0.929 . S
H230 C216 0.930 . S
Co231 N235 2.148 . S
Co231 N241 2.128 . S
Co231 N251 2.194 . S
Co231 O256 2.351 . S
Co231 O257 2.155 . S
Co231 O258 2.096 1_556 S
C232 N235 1.301 . S
C232 N236 1.328 . S
C232 H237 0.930 . S
C233 C234 1.333 . S
C233 N235 1.317 . S
C233 H238 0.930 . S
C234 C233 1.333 . S
C234 N236 1.350 . S
C234 H260 0.931 . S
N235 Co231 2.148 . S
N235 C232 1.301 . S
N235 C233 1.317 . S
N236 C232 1.328 . S
N236 C234 1.350 . S
H237 C232 0.930 . S
H238 C233 0.930 . S
C239 O240 1.224 . S
C239 O258 1.247 1_556 S
O240 C239 1.224 . S
N241 Co231 2.128 . S
N241 C242 1.355 . S
N241 C244 1.311 . S
C242 N241 1.355 . S
C242 C243 1.363 . S
C242 H254 0.929 . S
C243 C242 1.363 . S
C243 N245 1.375 . S
C243 H261 0.931 . S
C244 N241 1.311 . S
C244 N245 1.347 . S
C244 H255 0.929 . S
N245 C243 1.375 . S
N245 C244 1.347 . S
C246 C249 1.365 . S
C246 N251 1.328 . S
C246 H252 0.929 . S
C247 C248 1.362 . S
C247 C250 1.378 . S
C247 H262 0.929 . S
C248 C247 1.362 . S
C248 C249 1.366 . S
C249 C246 1.365 . S
C249 C248 1.366 . S
C249 H263 0.930 . S
C250 C247 1.378 . S
C250 N251 1.315 . S
C250 H253 0.930 . S
N251 Co231 2.194 . S
N251 C246 1.328 . S
N251 C250 1.315 . S
H252 C246 0.929 . S
H253 C250 0.930 . S
H254 C242 0.929 . S
H255 C244 0.929 . S
O256 Co231 2.351 . S
O256 C259 1.244 . S
O257 Co231 2.155 . S
O257 C259 1.240 . S
O258 Co231 2.096 1_554 S
O258 C239 1.247 1_554 S
C259 O256 1.244 . S
C259 O257 1.240 . S
H260 C234 0.931 . S
H261 C243 0.931 . S
H262 C247 0.929 . S
H263 C249 0.930 . S
Co264 N268 2.148 . S
Co264 N274 2.128 . S
Co264 N284 2.194 . S
Co264 O289 2.351 . S
Co264 O290 2.155 . S
Co264 O291 2.096 . S
C265 N268 1.301 . S
C265 N269 1.328 . S
C265 H270 0.930 . S
C266 C267 1.333 . S
C266 N268 1.317 . S
C266 H271 0.930 . S
C267 C266 1.333 . S
C267 N269 1.350 . S
C267 H293 0.931 . S
N268 Co264 2.148 . S
N268 C265 1.301 . S
N268 C266 1.317 . S
N269 C265 1.328 . S
N269 C267 1.350 . S
H270 C265 0.930 . S
H271 C266 0.930 . S
C272 O273 1.224 . S
C272 O291 1.247 . S
O273 C272 1.224 . S
N274 Co264 2.128 . S
N274 C275 1.355 . S
N274 C277 1.311 . S
C275 N274 1.355 . S
C275 C276 1.363 . S
C275 H287 0.929 . S
C276 C275 1.363 . S
C276 N278 1.375 . S
C276 H294 0.931 . S
C277 N274 1.311 . S
C277 N278 1.347 . S
C277 H288 0.929 . S
N278 C276 1.375 . S
N278 C277 1.347 . S
C279 C282 1.365 . S
C279 N284 1.328 . S
C279 H285 0.929 . S
C280 C281 1.362 . S
C280 C283 1.378 . S
C280 H295 0.929 . S
C281 C280 1.362 . S
C281 C282 1.366 . S
C282 C279 1.365 . S
C282 C281 1.366 . S
C282 H296 0.930 . S
C283 C280 1.378 . S
C283 N284 1.315 . S
C283 H286 0.930 . S
N284 Co264 2.194 . S
N284 C279 1.328 . S
N284 C283 1.315 . S
H285 C279 0.929 . S
H286 C283 0.930 . S
H287 C275 0.929 . S
H288 C277 0.929 . S
O289 Co264 2.351 . S
O289 C292 1.244 . S
O290 Co264 2.155 . S
O290 C292 1.240 . S
O291 Co264 2.096 . S
O291 C272 1.247 . S
C292 O289 1.244 . S
C292 O290 1.240 . S
H293 C267 0.931 . S
H294 C276 0.931 . S
H295 C280 0.929 . S
H296 C282 0.930 . S
Co297 N301 2.148 . S
Co297 N307 2.128 . S
Co297 N317 2.194 . S
Co297 O322 2.351 . S
Co297 O323 2.155 . S
Co297 O324 2.096 . S
C298 N301 1.301 . S
C298 N302 1.328 . S
C298 H303 0.930 . S
C299 C300 1.333 . S
C299 N301 1.317 . S
C299 H304 0.930 . S
C300 C299 1.333 . S
C300 N302 1.350 . S
C300 H326 0.931 . S
N301 Co297 2.148 . S
N301 C298 1.301 . S
N301 C299 1.317 . S
N302 C298 1.328 . S
N302 C300 1.350 . S
H303 C298 0.930 . S
H304 C299 0.930 . S
C305 O306 1.224 . S
C305 O324 1.247 . S
O306 C305 1.224 . S
N307 Co297 2.128 . S
N307 C308 1.355 . S
N307 C310 1.311 . S
C308 N307 1.355 . S
C308 C309 1.363 . S
C308 H320 0.929 . S
C309 C308 1.363 . S
C309 N311 1.375 . S
C309 H327 0.931 . S
C310 N307 1.311 . S
C310 N311 1.347 . S
C310 H321 0.929 . S
N311 C309 1.375 . S
N311 C310 1.347 . S
C312 C315 1.365 . S
C312 N317 1.328 . S
C312 H318 0.929 . S
C313 C314 1.362 . S
C313 C316 1.378 . S
C313 H328 0.929 . S
C314 C313 1.362 . S
C314 C315 1.366 . S
C315 C312 1.365 . S
C315 C314 1.366 . S
C315 H329 0.930 . S
C316 C313 1.378 . S
C316 N317 1.315 . S
C316 H319 0.930 . S
N317 Co297 2.194 . S
N317 C312 1.328 . S
N317 C316 1.315 . S
H318 C312 0.929 . S
H319 C316 0.930 . S
H320 C308 0.929 . S
H321 C310 0.929 . S
O322 Co297 2.351 . S
O322 C325 1.244 . S
O323 Co297 2.155 . S
O323 C325 1.240 . S
O324 Co297 2.096 . S
O324 C305 1.247 . S
C325 O322 1.244 . S
C325 O323 1.240 . S
H326 C300 0.931 . S
H327 C309 0.931 . S
H328 C313 0.929 . S
H329 C315 0.930 . S
Co330 N334 2.148 . S
Co330 N340 2.128 . S
Co330 N350 2.194 . S
Co330 O355 2.351 . S
Co330 O356 2.155 . S
Co330 O357 2.096 . S
C331 N334 1.301 . S
C331 N335 1.328 . S
C331 H336 0.930 . S
C332 C333 1.333 . S
C332 N334 1.317 . S
C332 H337 0.930 . S
C333 C332 1.333 . S
C333 N335 1.350 . S
C333 H359 0.931 . S
N334 Co330 2.148 . S
N334 C331 1.301 . S
N334 C332 1.317 . S
N335 C331 1.328 . S
N335 C333 1.350 . S
H336 C331 0.930 . S
H337 C332 0.930 . S
C338 O339 1.224 . S
C338 O357 1.247 . S
O339 C338 1.224 . S
N340 Co330 2.128 . S
N340 C341 1.355 . S
N340 C343 1.311 . S
C341 N340 1.355 . S
C341 C342 1.363 . S
C341 H353 0.929 . S
C342 C341 1.363 . S
C342 N344 1.375 . S
C342 H360 0.931 . S
C343 N340 1.311 . S
C343 N344 1.347 . S
C343 H354 0.929 . S
N344 C342 1.375 . S
N344 C343 1.347 . S
C345 C348 1.365 . S
C345 N350 1.328 . S
C345 H351 0.929 . S
C346 C347 1.362 . S
C346 C349 1.378 . S
C346 H361 0.929 . S
C347 C346 1.362 . S
C347 C348 1.366 . S
C348 C345 1.365 . S
C348 C347 1.366 . S
C348 H362 0.930 . S
C349 C346 1.378 . S
C349 N350 1.315 . S
C349 H352 0.930 . S
N350 Co330 2.194 . S
N350 C345 1.328 . S
N350 C349 1.315 . S
H351 C345 0.929 . S
H352 C349 0.930 . S
H353 C341 0.929 . S
H354 C343 0.929 . S
O355 Co330 2.351 . S
O355 C358 1.244 . S
O356 Co330 2.155 . S
O356 C358 1.240 . S
O357 Co330 2.096 . S
O357 C338 1.247 . S
C358 O355 1.244 . S
C358 O356 1.240 . S
H359 C333 0.931 . S
H360 C342 0.931 . S
H361 C346 0.929 . S
H362 C348 0.930 . S
Co363 N367 2.148 . S
Co363 N373 2.128 . S
Co363 N383 2.194 . S
Co363 O388 2.351 . S
Co363 O389 2.155 . S
Co363 O390 2.096 . S
C364 N367 1.301 . S
C364 N368 1.328 . S
C364 H369 0.930 . S
C365 C366 1.333 . S
C365 N367 1.317 . S
C365 H370 0.930 . S
C366 C365 1.333 . S
C366 N368 1.350 . S
C366 H392 0.931 . S
N367 Co363 2.148 . S
N367 C364 1.301 . S
N367 C365 1.317 . S
N368 C364 1.328 . S
N368 C366 1.350 . S
H369 C364 0.930 . S
H370 C365 0.930 . S
C371 O372 1.224 . S
C371 O390 1.247 . S
O372 C371 1.224 . S
N373 Co363 2.128 . S
N373 C374 1.355 . S
N373 C376 1.311 . S
C374 N373 1.355 . S
C374 C375 1.363 . S
C374 H386 0.929 . S
C375 C374 1.363 . S
C375 N377 1.375 . S
C375 H393 0.931 . S
C376 N373 1.311 . S
C376 N377 1.347 . S
C376 H387 0.929 . S
N377 C375 1.375 . S
N377 C376 1.347 . S
C378 C381 1.365 . S
C378 N383 1.328 . S
C378 H384 0.929 . S
C379 C380 1.362 . S
C379 C382 1.378 . S
C379 H394 0.929 . S
C380 C379 1.362 . S
C380 C381 1.366 . S
C381 C378 1.365 . S
C381 C380 1.366 . S
C381 H395 0.930 . S
C382 C379 1.378 . S
C382 N383 1.315 . S
C382 H385 0.930 . S
N383 Co363 2.194 . S
N383 C378 1.328 . S
N383 C382 1.315 . S
H384 C378 0.929 . S
H385 C382 0.930 . S
H386 C374 0.929 . S
H387 C376 0.929 . S
O388 Co363 2.351 . S
O388 C391 1.244 . S
O389 Co363 2.155 . S
O389 C391 1.240 . S
O390 Co363 2.096 . S
O390 C371 1.247 . S
C391 O388 1.244 . S
C391 O389 1.240 . S
H392 C366 0.931 . S
H393 C375 0.931 . S
H394 C379 0.929 . S
H395 C381 0.930 . S
Co396 N400 2.148 . S
Co396 N406 2.128 . S
Co396 N416 2.194 . S
Co396 O421 2.351 . S
Co396 O422 2.155 . S
Co396 O423 2.096 . S
C397 N400 1.301 . S
C397 N401 1.328 . S
C397 H402 0.930 . S
C398 C399 1.333 . S
C398 N400 1.317 . S
C398 H403 0.930 . S
C399 C398 1.333 . S
C399 N401 1.350 . S
C399 H425 0.931 . S
N400 Co396 2.148 . S
N400 C397 1.301 . S
N400 C398 1.317 . S
N401 C397 1.328 . S
N401 C399 1.350 . S
H402 C397 0.930 . S
H403 C398 0.930 . S
C404 O405 1.224 . S
C404 O423 1.247 . S
O405 C404 1.224 . S
N406 Co396 2.128 . S
N406 C407 1.355 . S
N406 C409 1.311 . S
C407 N406 1.355 . S
C407 C408 1.363 . S
C407 H419 0.929 . S
C408 C407 1.363 . S
C408 N410 1.375 . S
C408 H426 0.931 . S
C409 N406 1.311 . S
C409 N410 1.347 . S
C409 H420 0.929 . S
N410 C408 1.375 . S
N410 C409 1.347 . S
C411 C414 1.365 . S
C411 N416 1.328 . S
C411 H417 0.929 . S
C412 C413 1.362 . S
C412 C415 1.378 . S
C412 H427 0.929 . S
C413 C412 1.362 . S
C413 C414 1.366 . S
C414 C411 1.365 . S
C414 C413 1.366 . S
C414 H428 0.930 . S
C415 C412 1.378 . S
C415 N416 1.315 . S
C415 H418 0.930 . S
N416 Co396 2.194 . S
N416 C411 1.328 . S
N416 C415 1.315 . S
H417 C411 0.929 . S
H418 C415 0.930 . S
H419 C407 0.929 . S
H420 C409 0.929 . S
O421 Co396 2.351 . S
O421 C424 1.244 . S
O422 Co396 2.155 . S
O422 C424 1.240 . S
O423 Co396 2.096 . S
O423 C404 1.247 . S
C424 O421 1.244 . S
C424 O422 1.240 . S
H425 C399 0.931 . S
H426 C408 0.931 . S
H427 C412 0.929 . S
H428 C414 0.930 . S
Co429 N433 2.148 . S
Co429 N439 2.128 . S
Co429 N449 2.194 . S
Co429 O454 2.351 . S
Co429 O455 2.155 . S
Co429 O456 2.096 . S
C430 N433 1.301 . S
C430 N434 1.328 . S
C430 H435 0.930 . S
C431 C432 1.333 . S
C431 N433 1.317 . S
C431 H436 0.930 . S
C432 C431 1.333 . S
C432 N434 1.350 . S
C432 H458 0.931 . S
N433 Co429 2.148 . S
N433 C430 1.301 . S
N433 C431 1.317 . S
N434 C430 1.328 . S
N434 C432 1.350 . S
H435 C430 0.930 . S
H436 C431 0.930 . S
C437 O438 1.224 . S
C437 O456 1.247 . S
O438 C437 1.224 . S
N439 Co429 2.128 . S
N439 C440 1.355 . S
N439 C442 1.311 . S
C440 N439 1.355 . S
C440 C441 1.363 . S
C440 H452 0.929 . S
C441 C440 1.363 . S
C441 N443 1.375 . S
C441 H459 0.931 . S
C442 N439 1.311 . S
C442 N443 1.347 . S
C442 H453 0.929 . S
N443 C441 1.375 . S
N443 C442 1.347 . S
C444 C447 1.365 . S
C444 N449 1.328 . S
C444 H450 0.929 . S
C445 C446 1.362 . S
C445 C448 1.378 . S
C445 H460 0.929 . S
C446 C445 1.362 . S
C446 C447 1.366 . S
C447 C444 1.365 . S
C447 C446 1.366 . S
C447 H461 0.930 . S
C448 C445 1.378 . S
C448 N449 1.315 . S
C448 H451 0.930 . S
N449 Co429 2.194 . S
N449 C444 1.328 . S
N449 C448 1.315 . S
H450 C444 0.929 . S
H451 C448 0.930 . S
H452 C440 0.929 . S
H453 C442 0.929 . S
O454 Co429 2.351 . S
O454 C457 1.244 . S
O455 Co429 2.155 . S
O455 C457 1.240 . S
O456 Co429 2.096 . S
O456 C437 1.247 . S
C457 O454 1.244 . S
C457 O455 1.240 . S
H458 C432 0.931 . S
H459 C441 0.931 . S
H460 C445 0.929 . S
H461 C447 0.930 . S
Co462 N466 2.148 . S
Co462 N472 2.128 . S
Co462 N482 2.194 . S
Co462 O487 2.351 . S
Co462 O488 2.155 . S
Co462 O489 2.096 . S
C463 N466 1.301 . S
C463 N467 1.328 . S
C463 H468 0.930 . S
C464 C465 1.333 . S
C464 N466 1.317 . S
C464 H469 0.930 . S
C465 C464 1.333 . S
C465 N467 1.350 . S
C465 H491 0.931 . S
N466 Co462 2.148 . S
N466 C463 1.301 . S
N466 C464 1.317 . S
N467 C463 1.328 . S
N467 C465 1.350 . S
H468 C463 0.930 . S
H469 C464 0.930 . S
C470 O471 1.224 . S
C470 O489 1.247 . S
O471 C470 1.224 . S
N472 Co462 2.128 . S
N472 C473 1.355 . S
N472 C475 1.311 . S
C473 N472 1.355 . S
C473 C474 1.363 . S
C473 H485 0.929 . S
C474 C473 1.363 . S
C474 N476 1.375 . S
C474 H492 0.931 . S
C475 N472 1.311 . S
C475 N476 1.347 . S
C475 H486 0.929 . S
N476 C474 1.375 . S
N476 C475 1.347 . S
C477 C480 1.365 . S
C477 N482 1.328 . S
C477 H483 0.929 . S
C478 C479 1.362 . S
C478 C481 1.378 . S
C478 H493 0.929 . S
C479 C478 1.362 . S
C479 C480 1.366 . S
C480 C477 1.365 . S
C480 C479 1.366 . S
C480 H494 0.930 . S
C481 C478 1.378 . S
C481 N482 1.315 . S
C481 H484 0.930 . S
N482 Co462 2.194 . S
N482 C477 1.328 . S
N482 C481 1.315 . S
H483 C477 0.929 . S
H484 C481 0.930 . S
H485 C473 0.929 . S
H486 C475 0.929 . S
O487 Co462 2.351 . S
O487 C490 1.244 . S
O488 Co462 2.155 . S
O488 C490 1.240 . S
O489 Co462 2.096 . S
O489 C470 1.247 . S
C490 O487 1.244 . S
C490 O488 1.240 . S
H491 C465 0.931 . S
H492 C474 0.931 . S
H493 C478 0.929 . S
H494 C480 0.930 . S
Co495 N499 2.148 . S
Co495 N505 2.128 . S
Co495 N515 2.194 . S
Co495 O520 2.351 . S
Co495 O521 2.155 . S
Co495 O522 2.096 . S
C496 N499 1.301 . S
C496 N500 1.328 . S
C496 H501 0.930 . S
C497 C498 1.333 . S
C497 N499 1.317 . S
C497 H502 0.930 . S
C498 C497 1.333 . S
C498 N500 1.350 . S
C498 H524 0.931 . S
N499 Co495 2.148 . S
N499 C496 1.301 . S
N499 C497 1.317 . S
N500 C496 1.328 . S
N500 C498 1.350 . S
H501 C496 0.930 . S
H502 C497 0.930 . S
C503 O504 1.224 . S
C503 O522 1.247 . S
O504 C503 1.224 . S
N505 Co495 2.128 . S
N505 C506 1.355 . S
N505 C508 1.311 . S
C506 N505 1.355 . S
C506 C507 1.363 . S
C506 H518 0.929 . S
C507 C506 1.363 . S
C507 N509 1.375 . S
C507 H525 0.931 . S
C508 N505 1.311 . S
C508 N509 1.347 . S
C508 H519 0.929 . S
N509 C507 1.375 . S
N509 C508 1.347 . S
C510 C513 1.365 . S
C510 N515 1.328 . S
C510 H516 0.929 . S
C511 C512 1.362 . S
C511 C514 1.378 . S
C511 H526 0.929 . S
C512 C511 1.362 . S
C512 C513 1.366 . S
C513 C510 1.365 . S
C513 C512 1.366 . S
C513 H527 0.930 . S
C514 C511 1.378 . S
C514 N515 1.315 . S
C514 H517 0.930 . S
N515 Co495 2.194 . S
N515 C510 1.328 . S
N515 C514 1.315 . S
H516 C510 0.929 . S
H517 C514 0.930 . S
H518 C506 0.929 . S
H519 C508 0.929 . S
O520 Co495 2.351 . S
O520 C523 1.244 . S
O521 Co495 2.155 . S
O521 C523 1.240 . S
O522 Co495 2.096 . S
O522 C503 1.247 . S
C523 O520 1.244 . S
C523 O521 1.240 . S
H524 C498 0.931 . S
H525 C507 0.931 . S
H526 C511 0.929 . S
H527 C513 0.930 . S
H528 C536 0.950 . S
H529 C541 0.950 . S
H530 C538 0.950 . S
H531 C540 0.950 . S
H532 C542 0.950 . S
H533 C544 0.950 . S
H534 C546 0.950 . S
H535 C547 0.950 . S
C536 H528 0.950 . S
C536 C537 1.386 . S
C536 C538 1.391 . S
C537 C536 1.386 . S
C537 C541 1.393 . S
C538 H530 0.950 . S
C538 C536 1.391 . S
C538 C539 1.400 . S
C539 C538 1.400 . S
C539 C540 1.398 . S
C539 C545 1.491 . S
C540 H531 0.950 . S
C540 C539 1.398 . S
C540 C541 1.391 . S
C541 H529 0.950 . S
C541 C537 1.393 . S
C541 C540 1.391 . S
C542 H532 0.950 . S
C542 C543 1.386 . S
C542 C544 1.391 . S
C543 C542 1.386 . S
C543 C547 1.393 . S
C544 H533 0.950 . S
C544 C542 1.391 . S
C544 C545 1.400 . S
C545 C539 1.491 . S
C545 C544 1.400 . S
C545 C546 1.398 . S
C546 H534 0.950 . S
C546 C545 1.398 . S
C546 C547 1.391 . S
C547 H535 0.950 . S
C547 C543 1.393 . S
C547 C546 1.391 . S
H548 C556 0.950 . S
H549 C561 0.950 . S
H550 C558 0.950 . S
H551 C560 0.950 . S
H552 C562 0.950 . S
H553 C564 0.950 . S
H554 C566 0.950 . S
H555 C567 0.950 . S
C556 H548 0.950 . S
C556 C557 1.386 . S
C556 C558 1.391 . S
C557 C556 1.386 . S
C557 C561 1.393 . S
C558 H550 0.950 . S
C558 C556 1.391 . S
C558 C559 1.400 . S
C559 C558 1.400 . S
C559 C560 1.398 . S
C559 C565 1.491 . S
C560 H551 0.950 . S
C560 C559 1.398 . S
C560 C561 1.391 . S
C561 H549 0.950 . S
C561 C557 1.393 . S
C561 C560 1.391 . S
C562 H552 0.950 . S
C562 C563 1.386 . S
C562 C564 1.391 . S
C563 C562 1.386 . S
C563 C567 1.393 . S
C564 H553 0.950 . S
C564 C562 1.391 . S
C564 C565 1.400 . S
C565 C559 1.491 . S
C565 C564 1.400 . S
C565 C566 1.398 . S
C566 H554 0.950 . S
C566 C565 1.398 . S
C566 C567 1.391 . S
C567 H555 0.950 . S
C567 C563 1.393 . S
C567 C566 1.391 . S
H568 C576 0.950 . S
H569 C581 0.950 . S
H570 C578 0.950 . S
H571 C580 0.950 . S
H572 C582 0.950 . S
H573 C584 0.950 . S
H574 C586 0.950 . S
H575 C587 0.950 . S
C576 H568 0.950 . S
C576 C577 1.386 . S
C576 C578 1.391 . S
C577 C576 1.386 . S
C577 C581 1.393 . S
C578 H570 0.950 . S
C578 C576 1.391 . S
C578 C579 1.400 . S
C579 C578 1.400 . S
C579 C580 1.398 . S
C579 C585 1.491 . S
C580 H571 0.950 . S
C580 C579 1.398 . S
C580 C581 1.391 . S
C581 H569 0.950 . S
C581 C577 1.393 . S
C581 C580 1.391 . S
C582 H572 0.950 . S
C582 C583 1.386 . S
C582 C584 1.391 . S
C583 C582 1.386 . S
C583 C587 1.393 . S
C584 H573 0.950 . S
C584 C582 1.391 . S
C584 C585 1.400 . S
C585 C579 1.491 . S
C585 C584 1.400 . S
C585 C586 1.398 . S
C586 H574 0.950 . S
C586 C585 1.398 . S
C586 C587 1.391 . S
C587 H575 0.950 . S
C587 C583 1.393 . S
C587 C586 1.391 . S
H588 C596 0.950 . S
H589 C601 0.950 . S
H590 C598 0.950 . S
H591 C600 0.950 . S
H592 C602 0.950 . S
H593 C604 0.950 . S
H594 C606 0.950 . S
H595 C607 0.950 . S
C596 H588 0.950 . S
C596 C597 1.386 . S
C596 C598 1.391 . S
C597 C596 1.386 . S
C597 C601 1.393 . S
C598 H590 0.950 . S
C598 C596 1.391 . S
C598 C599 1.400 . S
C599 C598 1.400 . S
C599 C600 1.398 . S
C599 C605 1.491 . S
C600 H591 0.950 . S
C600 C599 1.398 . S
C600 C601 1.391 . S
C601 H589 0.950 . S
C601 C597 1.393 . S
C601 C600 1.391 . S
C602 H592 0.950 . S
C602 C603 1.386 . S
C602 C604 1.391 . S
C603 C602 1.386 . S
C603 C607 1.393 . S
C604 H593 0.950 . S
C604 C602 1.391 . S
C604 C605 1.400 . S
C605 C599 1.491 . S
C605 C604 1.400 . S
C605 C606 1.398 . S
C606 H594 0.950 . S
C606 C605 1.398 . S
C606 C607 1.391 . S
C607 H595 0.950 . S
C607 C603 1.393 . S
C607 C606 1.391 . S
H608 C616 0.950 . S
H609 C621 0.950 . S
H610 C618 0.950 . S
H611 C620 0.950 . S
H612 C622 0.950 . S
H613 C624 0.950 . S
H614 C626 0.950 . S
H615 C627 0.950 . S
C616 H608 0.950 . S
C616 C617 1.386 . S
C616 C618 1.391 . S
C617 C616 1.386 . S
C617 C621 1.393 . S
C618 H610 0.950 . S
C618 C616 1.391 . S
C618 C619 1.400 . S
C619 C618 1.400 . S
C619 C620 1.398 . S
C619 C625 1.491 . S
C620 H611 0.950 . S
C620 C619 1.398 . S
C620 C621 1.391 . S
C621 H609 0.950 . S
C621 C617 1.393 . S
C621 C620 1.391 . S
C622 H612 0.950 . S
C622 C623 1.386 . S
C622 C624 1.391 . S
C623 C622 1.386 . S
C623 C627 1.393 . S
C624 H613 0.950 . S
C624 C622 1.391 . S
C624 C625 1.400 . S
C625 C619 1.491 . S
C625 C624 1.400 . S
C625 C626 1.398 . S
C626 H614 0.950 . S
C626 C625 1.398 . S
C626 C627 1.391 . S
C627 H615 0.950 . S
C627 C623 1.393 . S
C627 C626 1.391 . S
H628 C636 0.950 . S
H629 C641 0.950 . S
H630 C638 0.950 . S
H631 C640 0.950 . S
H632 C642 0.950 1_556 S
H633 C644 0.950 . S
H634 C646 0.950 . S
H635 C647 0.950 . S
C636 H628 0.950 . S
C636 C637 1.386 . S
C636 C638 1.391 . S
C637 C636 1.386 . S
C637 C641 1.393 . S
C638 H630 0.950 . S
C638 C636 1.391 . S
C638 C639 1.400 . S
C639 C638 1.400 . S
C639 C640 1.398 . S
C639 C645 1.491 . S
C640 H631 0.950 . S
C640 C639 1.398 . S
C640 C641 1.391 . S
C641 H629 0.950 . S
C641 C637 1.393 . S
C641 C640 1.391 . S
C642 H632 0.950 1_554 S
C642 C643 1.386 . S
C642 C644 1.391 . S
C643 C642 1.386 . S
C643 C647 1.393 . S
C644 H633 0.950 . S
C644 C642 1.391 . S
C644 C645 1.400 . S
C645 C639 1.491 . S
C645 C644 1.400 . S
C645 C646 1.398 . S
C646 H634 0.950 . S
C646 C645 1.398 . S
C646 C647 1.391 . S
C647 H635 0.950 . S
C647 C643 1.393 . S
C647 C646 1.391 . S
H648 C656 0.950 1_554 S
H649 C661 0.950 . S
H650 C658 0.950 . S
H651 C660 0.950 . S
H652 C662 0.950 . S
H653 C664 0.950 . S
H654 C666 0.950 . S
H655 C667 0.950 . S
C656 H648 0.950 1_556 S
C656 C657 1.386 . S
C656 C658 1.391 . S
C657 C656 1.386 . S
C657 C661 1.393 . S
C658 H650 0.950 . S
C658 C656 1.391 . S
C658 C659 1.400 . S
C659 C658 1.400 . S
C659 C660 1.398 . S
C659 C665 1.491 . S
C660 H651 0.950 . S
C660 C659 1.398 . S
C660 C661 1.391 . S
C661 H649 0.950 . S
C661 C657 1.393 . S
C661 C660 1.391 . S
C662 H652 0.950 . S
C662 C663 1.386 . S
C662 C664 1.391 . S
C663 C662 1.386 . S
C663 C667 1.393 . S
C664 H653 0.950 . S
C664 C662 1.391 . S
C664 C665 1.400 . S
C665 C659 1.491 . S
C665 C664 1.400 . S
C665 C666 1.398 . S
C666 H654 0.950 . S
C666 C665 1.398 . S
C666 C667 1.391 . S
C667 H655 0.950 . S
C667 C663 1.393 . S
C667 C666 1.391 . S
H668 C676 0.950 . S
H669 C681 0.950 . S
H670 C678 0.950 . S
H671 C680 0.950 . S
H672 C682 0.950 . S
H673 C684 0.950 . S
H674 C686 0.950 . S
H675 C687 0.950 . S
C676 H668 0.950 . S
C676 C677 1.386 . S
C676 C678 1.391 . S
C677 C676 1.386 . S
C677 C681 1.393 . S
C678 H670 0.950 . S
C678 C676 1.391 . S
C678 C679 1.400 . S
C679 C678 1.400 . S
C679 C680 1.398 . S
C679 C685 1.491 . S
C680 H671 0.950 . S
C680 C679 1.398 . S
C680 C681 1.391 . S
C681 H669 0.950 . S
C681 C677 1.393 . S
C681 C680 1.391 . S
C682 H672 0.950 . S
C682 C683 1.386 . S
C682 C684 1.391 . S
C683 C682 1.386 . S
C683 C687 1.393 . S
C684 H673 0.950 . S
C684 C682 1.391 . S
C684 C685 1.400 . S
C685 C679 1.491 . S
C685 C684 1.400 . S
C685 C686 1.398 . S
C686 H674 0.950 . S
C686 C685 1.398 . S
C686 C687 1.391 . S
C687 H675 0.950 . S
C687 C683 1.393 . S
C687 C686 1.391 . S
H688 C696 0.950 . S
H689 C701 0.950 . S
H690 C698 0.950 . S
H691 C700 0.950 . S
H692 C702 0.950 . S
H693 C704 0.950 . S
H694 C706 0.950 . S
H695 C707 0.950 . S
C696 H688 0.950 . S
C696 C697 1.386 . S
C696 C698 1.391 . S
C697 C696 1.386 . S
C697 C701 1.393 . S
C698 H690 0.950 . S
C698 C696 1.391 . S
C698 C699 1.400 . S
C699 C698 1.400 . S
C699 C700 1.398 . S
C699 C705 1.491 . S
C700 H691 0.950 . S
C700 C699 1.398 . S
C700 C701 1.391 . S
C701 H689 0.950 . S
C701 C697 1.393 . S
C701 C700 1.391 . S
C702 H692 0.950 . S
C702 C703 1.386 . S
C702 C704 1.391 . S
C703 C702 1.386 . S
C703 C707 1.393 . S
C704 H693 0.950 . S
C704 C702 1.391 . S
C704 C705 1.400 . S
C705 C699 1.491 . S
C705 C704 1.400 . S
C705 C706 1.398 . S
C706 H694 0.950 . S
C706 C705 1.398 . S
C706 C707 1.391 . S
C707 H695 0.950 . S
C707 C703 1.393 . S
C707 C706 1.391 . S
H708 C716 0.950 . S
H709 C721 0.950 . S
H710 C718 0.950 . S
H711 C720 0.950 . S
H712 C722 0.950 . S
H713 C724 0.950 . S
H714 C726 0.950 . S
H715 C727 0.950 . S
C716 H708 0.950 . S
C716 C717 1.386 . S
C716 C718 1.391 . S
C717 C716 1.386 . S
C717 C721 1.393 . S
C718 H710 0.950 . S
C718 C716 1.391 . S
C718 C719 1.400 . S
C719 C718 1.400 . S
C719 C720 1.398 . S
C719 C725 1.491 . S
C720 H711 0.950 . S
C720 C719 1.398 . S
C720 C721 1.391 . S
C721 H709 0.950 . S
C721 C717 1.393 . S
C721 C720 1.391 . S
C722 H712 0.950 . S
C722 C723 1.386 . S
C722 C724 1.391 . S
C723 C722 1.386 . S
C723 C727 1.393 . S
C724 H713 0.950 . S
C724 C722 1.391 . S
C724 C725 1.400 . S
C725 C719 1.491 . S
C725 C724 1.400 . S
C725 C726 1.398 . S
C726 H714 0.950 . S
C726 C725 1.398 . S
C726 C727 1.391 . S
C727 H715 0.950 . S
C727 C723 1.393 . S
C727 C726 1.391 . S
H728 C736 0.950 . S
H729 C741 0.950 . S
H730 C738 0.950 . S
H731 C740 0.950 . S
H732 C742 0.950 . S
H733 C744 0.950 . S
H734 C746 0.950 . S
H735 C747 0.950 . S
C736 H728 0.950 . S
C736 C737 1.386 . S
C736 C738 1.391 . S
C737 C736 1.386 . S
C737 C741 1.393 . S
C738 H730 0.950 . S
C738 C736 1.391 . S
C738 C739 1.400 . S
C739 C738 1.400 . S
C739 C740 1.398 . S
C739 C745 1.491 . S
C740 H731 0.950 . S
C740 C739 1.398 . S
C740 C741 1.391 . S
C741 H729 0.950 . S
C741 C737 1.393 . S
C741 C740 1.391 . S
C742 H732 0.950 . S
C742 C743 1.386 . S
C742 C744 1.391 . S
C743 C742 1.386 . S
C743 C747 1.393 . S
C744 H733 0.950 . S
C744 C742 1.391 . S
C744 C745 1.400 . S
C745 C739 1.491 . S
C745 C744 1.400 . S
C745 C746 1.398 . S
C746 H734 0.950 . S
C746 C745 1.398 . S
C746 C747 1.391 . S
C747 H735 0.950 . S
C747 C743 1.393 . S
C747 C746 1.391 . S
H748 C756 0.950 . S
H749 C761 0.950 . S
H750 C758 0.950 . S
H751 C760 0.950 . S
H752 C762 0.950 . S
H753 C764 0.950 . S
H754 C766 0.950 . S
H755 C767 0.950 . S
C756 H748 0.950 . S
C756 C757 1.386 . S
C756 C758 1.391 . S
C757 C756 1.386 . S
C757 C761 1.393 . S
C758 H750 0.950 . S
C758 C756 1.391 . S
C758 C759 1.400 . S
C759 C758 1.400 . S
C759 C760 1.398 . S
C759 C765 1.491 . S
C760 H751 0.950 . S
C760 C759 1.398 . S
C760 C761 1.391 . S
C761 H749 0.950 . S
C761 C757 1.393 . S
C761 C760 1.391 . S
C762 H752 0.950 . S
C762 C763 1.386 . S
C762 C764 1.391 . S
C763 C762 1.386 . S
C763 C767 1.393 . S
C764 H753 0.950 . S
C764 C762 1.391 . S
C764 C765 1.400 . S
C765 C759 1.491 . S
C765 C764 1.400 . S
C765 C766 1.398 . S
C766 H754 0.950 . S
C766 C765 1.398 . S
C766 C767 1.391 . S
C767 H755 0.950 . S
C767 C763 1.393 . S
C767 C766 1.391 . S
H768 C776 0.950 . S
H769 C781 0.950 . S
H770 C778 0.950 . S
H771 C780 0.950 . S
H772 C782 0.950 . S
H773 C784 0.950 . S
H774 C786 0.950 . S
H775 C787 0.950 . S
C776 H768 0.950 . S
C776 C777 1.386 . S
C776 C778 1.391 . S
C777 C776 1.386 . S
C777 C781 1.393 . S
C778 H770 0.950 . S
C778 C776 1.391 . S
C778 C779 1.400 . S
C779 C778 1.400 . S
C779 C780 1.398 . S
C779 C785 1.491 . S
C780 H771 0.950 . S
C780 C779 1.398 . S
C780 C781 1.391 . S
C781 H769 0.950 . S
C781 C777 1.393 . S
C781 C780 1.391 . S
C782 H772 0.950 . S
C782 C783 1.386 . S
C782 C784 1.391 . S
C783 C782 1.386 . S
C783 C787 1.393 . S
C784 H773 0.950 . S
C784 C782 1.391 . S
C784 C785 1.400 . S
C785 C779 1.491 . S
C785 C784 1.400 . S
C785 C786 1.398 . S
C786 H774 0.950 . S
C786 C785 1.398 . S
C786 C787 1.391 . S
C787 H775 0.950 . S
C787 C783 1.393 . S
C787 C786 1.391 . S
H788 C796 0.950 . S
H789 C801 0.950 . S
H790 C798 0.950 . S
H791 C800 0.950 . S
H792 C802 0.950 . S
H793 C804 0.950 . S
H794 C806 0.950 . S
H795 C807 0.950 . S
C796 H788 0.950 . S
C796 C797 1.386 . S
C796 C798 1.391 . S
C797 C796 1.386 . S
C797 C801 1.393 . S
C798 H790 0.950 . S
C798 C796 1.391 . S
C798 C799 1.400 . S
C799 C798 1.400 . S
C799 C800 1.398 . S
C799 C805 1.491 . S
C800 H791 0.950 . S
C800 C799 1.398 . S
C800 C801 1.391 . S
C801 H789 0.950 . S
C801 C797 1.393 . S
C801 C800 1.391 . S
C802 H792 0.950 . S
C802 C803 1.386 . S
C802 C804 1.391 . S
C803 C802 1.386 . S
C803 C807 1.393 . S
C804 H793 0.950 . S
C804 C802 1.391 . S
C804 C805 1.400 . S
C805 C799 1.491 . S
C805 C804 1.400 . S
C805 C806 1.398 . S
C806 H794 0.950 . S
C806 C805 1.398 . S
C806 C807 1.391 . S
C807 H795 0.950 . S
C807 C803 1.393 . S
C807 C806 1.391 . S
H808 C816 0.950 . S
H809 C821 0.950 . S
H810 C818 0.950 . S
H811 C820 0.950 . S
H812 C822 0.950 . S
H813 C824 0.950 . S
H814 C826 0.950 . S
H815 C827 0.950 . S
C816 H808 0.950 . S
C816 C817 1.386 . S
C816 C818 1.391 . S
C817 C816 1.386 . S
C817 C821 1.393 . S
C818 H810 0.950 . S
C818 C816 1.391 . S
C818 C819 1.400 . S
C819 C818 1.400 . S
C819 C820 1.398 . S
C819 C825 1.491 . S
C820 H811 0.950 . S
C820 C819 1.398 . S
C820 C821 1.391 . S
C821 H809 0.950 . S
C821 C817 1.393 . S
C821 C820 1.391 . S
C822 H812 0.950 . S
C822 C823 1.386 . S
C822 C824 1.391 . S
C823 C822 1.386 . S
C823 C827 1.393 . S
C824 H813 0.950 . S
C824 C822 1.391 . S
C824 C825 1.400 . S
C825 C819 1.491 . S
C825 C824 1.400 . S
C825 C826 1.398 . S
C826 H814 0.950 . S
C826 C825 1.398 . S
C826 C827 1.391 . S
C827 H815 0.950 . S
C827 C823 1.393 . S
C827 C826 1.391 . S
H828 C836 0.950 . S
H829 C841 0.950 . S
H830 C838 0.950 . S
H831 C840 0.950 . S
H832 C842 0.950 . S
H833 C844 0.950 . S
H834 C846 0.950 . S
H835 C847 0.950 . S
C836 H828 0.950 . S
C836 C837 1.386 . S
C836 C838 1.391 . S
C837 C836 1.386 . S
C837 C841 1.393 . S
C838 H830 0.950 . S
C838 C836 1.391 . S
C838 C839 1.400 . S
C839 C838 1.400 . S
C839 C840 1.398 . S
C839 C845 1.491 . S
C840 H831 0.950 . S
C840 C839 1.398 . S
C840 C841 1.391 . S
C841 H829 0.950 . S
C841 C837 1.393 . S
C841 C840 1.391 . S
C842 H832 0.950 . S
C842 C843 1.386 . S
C842 C844 1.391 . S
C843 C842 1.386 . S
C843 C847 1.393 . S
C844 H833 0.950 . S
C844 C842 1.391 . S
C844 C845 1.400 . S
C845 C839 1.491 . S
C845 C844 1.400 . S
C845 C846 1.398 . S
C846 H834 0.950 . S
C846 C845 1.398 . S
C846 C847 1.391 . S
C847 H835 0.950 . S
C847 C843 1.393 . S
C847 C846 1.391 . S
H848 C856 0.950 . S
H849 C861 0.950 . S
H850 C858 0.950 . S
H851 C860 0.950 . S
H852 C862 0.950 . S
H853 C864 0.950 . S
H854 C866 0.950 . S
H855 C867 0.950 . S
C856 H848 0.950 . S
C856 C857 1.386 . S
C856 C858 1.391 . S
C857 C856 1.386 . S
C857 C861 1.393 . S
C858 H850 0.950 . S
C858 C856 1.391 . S
C858 C859 1.400 . S
C859 C858 1.400 . S
C859 C860 1.398 . S
C859 C865 1.491 . S
C860 H851 0.950 . S
C860 C859 1.398 . S
C860 C861 1.391 . S
C861 H849 0.950 . S
C861 C857 1.393 . S
C861 C860 1.391 . S
C862 H852 0.950 . S
C862 C863 1.386 . S
C862 C864 1.391 . S
C863 C862 1.386 . S
C863 C867 1.393 . S
C864 H853 0.950 . S
C864 C862 1.391 . S
C864 C865 1.400 . S
C865 C859 1.491 . S
C865 C864 1.400 . S
C865 C866 1.398 . S
C866 H854 0.950 . S
C866 C865 1.398 . S
C866 C867 1.391 . S
C867 H855 0.950 . S
C867 C863 1.393 . S
C867 C866 1.391 . S
H868 C876 0.950 . S
H869 C881 0.950 . S
H870 C878 0.950 . S
H871 C880 0.950 . S
H872 C882 0.950 . S
H873 C884 0.950 . S
H874 C886 0.950 . S
H875 C887 0.950 . S
C876 H868 0.950 . S
C876 C877 1.386 . S
C876 C878 1.391 . S
C877 C876 1.386 . S
C877 C881 1.393 . S
C878 H870 0.950 . S
C878 C876 1.391 . S
C878 C879 1.400 . S
C879 C878 1.400 . S
C879 C880 1.398 . S
C879 C885 1.491 . S
C880 H871 0.950 . S
C880 C879 1.398 . S
C880 C881 1.391 . S
C881 H869 0.950 . S
C881 C877 1.393 . S
C881 C880 1.391 . S
C882 H872 0.950 . S
C882 C883 1.386 . S
C882 C884 1.391 . S
C883 C882 1.386 . S
C883 C887 1.393 . S
C884 H873 0.950 . S
C884 C882 1.391 . S
C884 C885 1.400 . S
C885 C879 1.491 . S
C885 C884 1.400 . S
C885 C886 1.398 . S
C886 H874 0.950 . S
C886 C885 1.398 . S
C886 C887 1.391 . S
C887 H875 0.950 . S
C887 C883 1.393 . S
C887 C886 1.391 . S
H888 C896 0.950 1_554 S
H889 C901 0.950 . S
H890 C898 0.950 . S
H891 C900 0.950 . S
H892 C902 0.950 . S
H893 C904 0.950 . S
H894 C906 0.950 . S
H895 C907 0.950 . S
C896 H888 0.950 1_556 S
C896 C897 1.386 . S
C896 C898 1.391 . S
C897 C896 1.386 . S
C897 C901 1.393 . S
C898 H890 0.950 . S
C898 C896 1.391 . S
C898 C899 1.400 . S
C899 C898 1.400 . S
C899 C900 1.398 . S
C899 C905 1.491 . S
C900 H891 0.950 . S
C900 C899 1.398 . S
C900 C901 1.391 . S
C901 H889 0.950 . S
C901 C897 1.393 . S
C901 C900 1.391 . S
C902 H892 0.950 . S
C902 C903 1.386 . S
C902 C904 1.391 . S
C903 C902 1.386 . S
C903 C907 1.393 . S
C904 H893 0.950 . S
C904 C902 1.391 . S
C904 C905 1.400 . S
C905 C899 1.491 . S
C905 C904 1.400 . S
C905 C906 1.398 . S
C906 H894 0.950 . S
C906 C905 1.398 . S
C906 C907 1.391 . S
C907 H895 0.950 . S
C907 C903 1.393 . S
C907 C906 1.391 . S
H908 C916 0.950 . S
H909 C921 0.950 . S
H910 C918 0.950 . S
H911 C920 0.950 . S
H912 C922 0.950 . S
H913 C924 0.950 . S
H914 C926 0.950 . S
H915 C927 0.950 1_556 S
C916 H908 0.950 . S
C916 C917 1.386 . S
C916 C918 1.391 . S
C917 C916 1.386 . S
C917 C921 1.393 . S
C918 H910 0.950 . S
C918 C916 1.391 . S
C918 C919 1.400 . S
C919 C918 1.400 . S
C919 C920 1.398 . S
C919 C925 1.491 . S
C920 H911 0.950 . S
C920 C919 1.398 . S
C920 C921 1.391 . S
C921 H909 0.950 . S
C921 C917 1.393 . S
C921 C920 1.391 . S
C922 H912 0.950 . S
C922 C923 1.386 . S
C922 C924 1.391 . S
C923 C922 1.386 . S
C923 C927 1.393 . S
C924 H913 0.950 . S
C924 C922 1.391 . S
C924 C925 1.400 . S
C925 C919 1.491 . S
C925 C924 1.400 . S
C925 C926 1.398 . S
C926 H914 0.950 . S
C926 C925 1.398 . S
C926 C927 1.391 . S
C927 H915 0.950 1_554 S
C927 C923 1.393 . S
C927 C926 1.391 . S
H928 C936 0.950 . S
H929 C941 0.950 . S
H930 C938 0.950 . S
H931 C940 0.950 . S
H932 C942 0.950 . S
H933 C944 0.950 . S
H934 C946 0.950 . S
H935 C947 0.950 . S
C936 H928 0.950 . S
C936 C937 1.386 . S
C936 C938 1.391 . S
C937 C936 1.386 . S
C937 C941 1.393 . S
C938 H930 0.950 . S
C938 C936 1.391 . S
C938 C939 1.400 . S
C939 C938 1.400 . S
C939 C940 1.398 . S
C939 C945 1.491 . S
C940 H931 0.950 . S
C940 C939 1.398 . S
C940 C941 1.391 . S
C941 H929 0.950 . S
C941 C937 1.393 . S
C941 C940 1.391 . S
C942 H932 0.950 . S
C942 C943 1.386 . S
C942 C944 1.391 . S
C943 C942 1.386 . S
C943 C947 1.393 . S
C944 H933 0.950 . S
C944 C942 1.391 . S
C944 C945 1.400 . S
C945 C939 1.491 . S
C945 C944 1.400 . S
C945 C946 1.398 . S
C946 H934 0.950 . S
C946 C945 1.398 . S
C946 C947 1.391 . S
C947 H935 0.950 . S
C947 C943 1.393 . S
C947 C946 1.391 . S
H948 C956 0.950 . S
H949 C961 0.950 . S
H950 C958 0.950 . S
H951 C960 0.950 . S
H952 C962 0.950 . S
H953 C964 0.950 . S
H954 C966 0.950 . S
H955 C967 0.950 . S
C956 H948 0.950 . S
C956 C957 1.386 . S
C956 C958 1.391 . S
C957 C956 1.386 . S
C957 C961 1.393 . S
C958 H950 0.950 . S
C958 C956 1.391 . S
C958 C959 1.400 . S
C959 C958 1.400 . S
C959 C960 1.398 . S
C959 C965 1.491 . S
C960 H951 0.950 . S
C960 C959 1.398 . S
C960 C961 1.391 . S
C961 H949 0.950 . S
C961 C957 1.393 . S
C961 C960 1.391 . S
C962 H952 0.950 . S
C962 C963 1.386 . S
C962 C964 1.391 . S
C963 C962 1.386 . S
C963 C967 1.393 . S
C964 H953 0.950 . S
C964 C962 1.391 . S
C964 C965 1.400 . S
C965 C959 1.491 . S
C965 C964 1.400 . S
C965 C966 1.398 . S
C966 H954 0.950 . S
C966 C965 1.398 . S
C966 C967 1.391 . S
C967 H955 0.950 . S
C967 C963 1.393 . S
C967 C966 1.391 . S
H968 C976 0.950 . S
H969 C981 0.950 . S
H970 C978 0.950 . S
H971 C980 0.950 . S
H972 C982 0.950 . S
H973 C984 0.950 . S
H974 C986 0.950 . S
H975 C987 0.950 . S
C976 H968 0.950 . S
C976 C977 1.386 . S
C976 C978 1.391 . S
C977 C976 1.386 . S
C977 C981 1.393 . S
C978 H970 0.950 . S
C978 C976 1.391 . S
C978 C979 1.400 . S
C979 C978 1.400 . S
C979 C980 1.398 . S
C979 C985 1.491 . S
C980 H971 0.950 . S
C980 C979 1.398 . S
C980 C981 1.391 . S
C981 H969 0.950 . S
C981 C977 1.393 . S
C981 C980 1.391 . S
C982 H972 0.950 . S
C982 C983 1.386 . S
C982 C984 1.391 . S
C983 C982 1.386 . S
C983 C987 1.393 . S
C984 H973 0.950 . S
C984 C982 1.391 . S
C984 C985 1.400 . S
C985 C979 1.491 . S
C985 C984 1.400 . S
C985 C986 1.398 . S
C986 H974 0.950 . S
C986 C985 1.398 . S
C986 C987 1.391 . S
C987 H975 0.950 . S
C987 C983 1.393 . S
C987 C986 1.391 . S
H988 C996 0.950 . S
H989 C1001 0.950 . S
H990 C998 0.950 . S
H991 C1000 0.950 . S
H992 C1002 0.950 . S
H993 C1004 0.950 . S
H994 C1006 0.950 . S
H995 C1007 0.950 . S
C996 H988 0.950 . S
C996 C997 1.386 . S
C996 C998 1.391 . S
C997 C996 1.386 . S
C997 C1001 1.393 . S
C998 H990 0.950 . S
C998 C996 1.391 . S
C998 C999 1.400 . S
C999 C998 1.400 . S
C999 C1000 1.398 . S
C999 C1005 1.491 . S
C1000 H991 0.950 . S
C1000 C999 1.398 . S
C1000 C1001 1.391 . S
C1001 H989 0.950 . S
C1001 C997 1.393 . S
C1001 C1000 1.391 . S
C1002 H992 0.950 . S
C1002 C1003 1.386 . S
C1002 C1004 1.391 . S
C1003 C1002 1.386 . S
C1003 C1007 1.393 . S
C1004 H993 0.950 . S
C1004 C1002 1.391 . S
C1004 C1005 1.400 . S
C1005 C999 1.491 . S
C1005 C1004 1.400 . S
C1005 C1006 1.398 . S
C1006 H994 0.950 . S
C1006 C1005 1.398 . S
C1006 C1007 1.391 . S
C1007 H995 0.950 . S
C1007 C1003 1.393 . S
C1007 C1006 1.391 . S
H1008 C1016 0.950 . S
H1009 C1021 0.950 1_545 S
H1010 C1018 0.950 . S
H1011 C1020 0.950 . S
H1012 C1022 0.950 . S
H1013 C1024 0.950 . S
H1014 C1026 0.950 . S
H1015 C1027 0.950 . S
C1016 H1008 0.950 . S
C1016 C1017 1.386 1_565 S
C1016 C1018 1.391 . S
C1017 C1016 1.386 1_545 S
C1017 C1021 1.393 1_545 S
C1018 H1010 0.950 . S
C1018 C1016 1.391 . S
C1018 C1019 1.400 . S
C1019 C1018 1.400 . S
C1019 C1020 1.398 . S
C1019 C1025 1.491 . S
C1020 H1011 0.950 . S
C1020 C1019 1.398 . S
C1020 C1021 1.391 . S
C1021 H1009 0.950 1_565 S
C1021 C1017 1.393 1_565 S
C1021 C1020 1.391 . S
C1022 H1012 0.950 . S
C1022 C1023 1.386 . S
C1022 C1024 1.391 . S
C1023 C1022 1.386 . S
C1023 C1027 1.393 . S
C1024 H1013 0.950 . S
C1024 C1022 1.391 . S
C1024 C1025 1.400 . S
C1025 C1019 1.491 . S
C1025 C1024 1.400 . S
C1025 C1026 1.398 . S
C1026 H1014 0.950 . S
C1026 C1025 1.398 . S
C1026 C1027 1.391 . S
C1027 H1015 0.950 . S
C1027 C1023 1.393 . S
C1027 C1026 1.391 . S
H1028 C1036 0.950 . S
H1029 C1041 0.950 . S
H1030 C1038 0.950 . S
H1031 C1040 0.950 . S
H1032 C1042 0.950 . S
H1033 C1044 0.950 . S
H1034 C1046 0.950 . S
H1035 C1047 0.981 . S
C1036 H1028 0.950 . S
C1036 C1037 1.386 . S
C1036 C1038 1.391 . S
C1037 C1036 1.386 . S
C1037 C1041 1.393 . S
C1038 H1030 0.950 . S
C1038 C1036 1.391 . S
C1038 C1039 1.400 . S
C1039 C1038 1.400 . S
C1039 C1040 1.398 . S
C1039 C1045 1.491 . S
C1040 H1031 0.950 . S
C1040 C1039 1.398 . S
C1040 C1041 1.391 . S
C1041 H1029 0.950 . S
C1041 C1037 1.393 . S
C1041 C1040 1.391 . S
C1042 H1032 0.950 . S
C1042 C1043 1.386 1_655 S
C1042 C1044 1.391 . S
C1043 C1042 1.386 1_455 S
C1043 C1047 1.397 . S
C1044 H1033 0.950 . S
C1044 C1042 1.391 . S
C1044 C1045 1.400 . S
C1045 C1039 1.491 . S
C1045 C1044 1.400 . S
C1045 C1046 1.398 . S
C1046 H1034 0.950 . S
C1046 C1045 1.398 . S
C1046 C1047 1.356 1_655 S
C1047 H1035 0.981 . S
C1047 C1043 1.397 . S
C1047 C1046 1.356 1_455 S
H1048 C1056 0.950 . S
H1049 C1061 0.950 . S
H1050 C1058 0.950 . S
H1051 C1060 0.950 . S
H1052 C1062 0.950 . S
H1053 C1064 0.950 . S
H1054 C1066 0.950 . S
H1055 C1067 0.950 . S
C1056 H1048 0.950 . S
C1056 C1057 1.386 . S
C1056 C1058 1.391 1_565 S
C1057 C1056 1.386 . S
C1057 C1061 1.393 1_565 S
C1058 H1050 0.950 . S
C1058 C1056 1.391 1_545 S
C1058 C1059 1.400 . S
C1059 C1058 1.400 . S
C1059 C1060 1.398 . S
C1059 C1065 1.491 . S
C1060 H1051 0.950 . S
C1060 C1059 1.398 . S
C1060 C1061 1.391 . S
C1061 H1049 0.950 . S
C1061 C1057 1.393 1_545 S
C1061 C1060 1.391 . S
C1062 H1052 0.950 . S
C1062 C1063 1.386 . S
C1062 C1064 1.391 . S
C1063 C1062 1.386 . S
C1063 C1067 1.393 . S
C1064 H1053 0.950 . S
C1064 C1062 1.391 . S
C1064 C1065 1.400 . S
C1065 C1059 1.491 . S
C1065 C1064 1.400 . S
C1065 C1066 1.398 . S
C1066 H1054 0.950 . S
C1066 C1065 1.398 . S
C1066 C1067 1.391 . S
C1067 H1055 0.950 . S
C1067 C1063 1.393 . S
C1067 C1066 1.391 . S
H1068 C1076 0.950 . S
H1069 C1081 0.950 . S
H1070 C1078 0.950 . S
H1071 C1080 0.950 . S
H1072 C1082 0.950 . S
H1073 C1084 0.950 . S
H1074 C1086 0.950 . S
H1075 C1087 0.950 1_655 S
C1076 H1068 0.950 . S
C1076 C1077 1.386 . S
C1076 C1078 1.391 . S
C1077 C1076 1.386 . S
C1077 C1081 1.393 . S
C1078 H1070 0.950 . S
C1078 C1076 1.391 . S
C1078 C1079 1.400 . S
C1079 C1078 1.400 . S
C1079 C1080 1.398 . S
C1079 C1085 1.491 . S
C1080 H1071 0.950 . S
C1080 C1079 1.398 . S
C1080 C1081 1.391 . S
C1081 H1069 0.950 . S
C1081 C1077 1.393 . S
C1081 C1080 1.391 . S
C1082 H1072 0.950 . S
C1082 C1083 1.386 1_455 S
C1082 C1084 1.391 . S
C1083 C1082 1.386 1_655 S
C1083 C1087 1.393 1_655 S
C1084 H1073 0.950 . S
C1084 C1082 1.391 . S
C1084 C1085 1.400 . S
C1085 C1079 1.491 . S
C1085 C1084 1.400 . S
C1085 C1086 1.398 . S
C1086 H1074 0.950 . S
C1086 C1085 1.398 . S
C1086 C1087 1.391 . S
C1087 H1075 0.950 1_455 S
C1087 C1083 1.393 1_455 S
C1087 C1086 1.391 . S
H1088 C1096 0.950 . S
H1089 C1101 0.950 1_554 S
H1090 C1098 0.950 . S
H1091 C1100 0.950 . S
H1092 C1102 0.950 . S
H1093 C1104 0.950 . S
H1094 C1106 0.950 . S
H1095 C1107 0.950 . S
C1096 H1088 0.950 . S
C1096 C1097 1.386 . S
C1096 C1098 1.391 . S
C1097 C1096 1.386 . S
C1097 C1101 1.393 . S
C1098 H1090 0.950 . S
C1098 C1096 1.391 . S
C1098 C1099 1.400 . S
C1099 C1098 1.400 . S
C1099 C1100 1.398 1_556 S
C1099 C1105 1.491 . S
C1100 H1091 0.950 . S
C1100 C1099 1.398 1_554 S
C1100 C1101 1.391 1_554 S
C1101 H1089 0.950 1_556 S
C1101 C1097 1.393 . S
C1101 C1100 1.391 1_556 S
C1102 H1092 0.950 . S
C1102 C1103 1.386 . S
C1102 C1104 1.391 . S
C1103 C1102 1.386 . S
C1103 C1107 1.393 1_554 S
C1104 H1093 0.950 . S
C1104 C1102 1.391 . S
C1104 C1105 1.400 1_554 S
C1105 C1099 1.491 . S
C1105 C1104 1.400 1_556 S
C1105 C1106 1.398 . S
C1106 H1094 0.950 . S
C1106 C1105 1.398 . S
C1106 C1107 1.391 . S
C1107 H1095 0.950 . S
C1107 C1103 1.393 1_556 S
C1107 C1106 1.391 . S
H1108 C1116 0.950 1_556 S
H1109 C1121 0.950 . S
H1110 C1118 0.950 . S
H1111 C1120 0.950 . S
H1112 C1122 0.950 . S
H1113 C1124 0.950 . S
H1114 C1126 0.950 . S
H1115 C1127 0.950 . S
C1116 H1108 0.950 1_554 S
C1116 C1117 1.386 . S
C1116 C1118 1.391 1_554 S
C1117 C1116 1.386 . S
C1117 C1121 1.393 . S
C1118 H1110 0.950 . S
C1118 C1116 1.391 1_556 S
C1118 C1119 1.400 1_556 S
C1119 C1118 1.400 1_554 S
C1119 C1120 1.398 . S
C1119 C1125 1.491 . S
C1120 H1111 0.950 . S
C1120 C1119 1.398 . S
C1120 C1121 1.391 . S
C1121 H1109 0.950 . S
C1121 C1117 1.393 . S
C1121 C1120 1.391 . S
C1122 H1112 0.950 . S
C1122 C1123 1.386 1_554 S
C1122 C1124 1.391 . S
C1123 C1122 1.386 1_556 S
C1123 C1127 1.393 . S
C1124 H1113 0.950 . S
C1124 C1122 1.391 . S
C1124 C1125 1.400 . S
C1125 C1119 1.491 . S
C1125 C1124 1.400 . S
C1125 C1126 1.398 1_554 S
C1126 H1114 0.950 . S
C1126 C1125 1.398 1_556 S
C1126 C1127 1.391 . S
C1127 H1115 0.950 . S
C1127 C1123 1.393 . S
C1127 C1126 1.391 . S
H1128 C1136 0.950 . S
H1129 C1141 0.950 . S
H1130 C1138 0.950 . S
H1131 C1140 0.950 . S
H1132 C1142 0.950 . S
H1133 C1144 0.950 1_554 S
H1134 C1146 0.950 . S
H1135 C1147 0.950 . S
C1136 H1128 0.950 . S
C1136 C1137 1.386 1_556 S
C1136 C1138 1.391 . S
C1137 C1136 1.386 1_554 S
C1137 C1141 1.393 . S
C1138 H1130 0.950 . S
C1138 C1136 1.391 . S
C1138 C1139 1.400 . S
C1139 C1138 1.400 . S
C1139 C1140 1.398 1_556 S
C1139 C1145 1.491 . S
C1140 H1131 0.950 . S
C1140 C1139 1.398 1_554 S
C1140 C1141 1.391 . S
C1141 H1129 0.950 . S
C1141 C1137 1.393 . S
C1141 C1140 1.391 . S
C1142 H1132 0.950 . S
C1142 C1143 1.386 . S
C1142 C1144 1.391 . S
C1143 C1142 1.386 . S
C1143 C1147 1.393 . S
C1144 H1133 0.950 1_556 S
C1144 C1142 1.391 . S
C1144 C1145 1.400 . S
C1145 C1139 1.491 . S
C1145 C1144 1.400 . S
C1145 C1146 1.398 . S
C1146 H1134 0.950 . S
C1146 C1145 1.398 . S
C1146 C1147 1.391 . S
C1147 H1135 0.950 . S
C1147 C1143 1.393 . S
C1147 C1146 1.391 . S
H1148 C1156 0.950 . S
H1149 C1161 0.950 . S
H1150 C1158 0.950 . S
H1151 C1160 0.950 . S
H1152 C1162 0.950 . S
H1153 C1164 0.950 . S
H1154 C1166 0.950 . S
H1155 C1167 0.950 . S
C1156 H1148 0.950 . S
C1156 C1157 1.386 . S
C1156 C1158 1.391 . S
C1157 C1156 1.386 . S
C1157 C1161 1.393 . S
C1158 H1150 0.950 . S
C1158 C1156 1.391 . S
C1158 C1159 1.400 . S
C1159 C1158 1.400 . S
C1159 C1160 1.398 . S
C1159 C1165 1.491 . S
C1160 H1151 0.950 . S
C1160 C1159 1.398 . S
C1160 C1161 1.391 . S
C1161 H1149 0.950 . S
C1161 C1157 1.393 . S
C1161 C1160 1.391 . S
C1162 H1152 0.950 . S
C1162 C1163 1.386 . S
C1162 C1164 1.391 . S
C1163 C1162 1.386 . S
C1163 C1167 1.393 . S
C1164 H1153 0.950 . S
C1164 C1162 1.391 . S
C1164 C1165 1.400 1_556 S
C1165 C1159 1.491 . S
C1165 C1164 1.400 1_554 S
C1165 C1166 1.398 . S
C1166 H1154 0.950 . S
C1166 C1165 1.398 . S
C1166 C1167 1.391 1_554 S
C1167 H1155 0.950 . S
C1167 C1163 1.393 . S
C1167 C1166 1.391 1_556 S
H1168 C1176 0.950 . S
H1169 C1181 0.950 . S
H1170 C1178 0.950 . S
H1171 C1180 0.950 . S
H1172 C1182 0.950 . S
H1173 C1184 0.950 . S
H1174 C1186 0.950 . S
H1175 C1187 0.950 . S
C1176 H1168 0.950 . S
C1176 C1177 1.386 . S
C1176 C1178 1.391 . S
C1177 C1176 1.386 . S
C1177 C1181 1.393 . S
C1178 H1170 0.950 . S
C1178 C1176 1.391 . S
C1178 C1179 1.400 . S
C1179 C1178 1.400 . S
C1179 C1180 1.398 . S
C1179 C1185 1.491 . S
C1180 H1171 0.950 . S
C1180 C1179 1.398 . S
C1180 C1181 1.391 . S
C1181 H1169 0.950 . S
C1181 C1177 1.393 . S
C1181 C1180 1.391 . S
C1182 H1172 0.950 . S
C1182 C1183 1.386 . S
C1182 C1184 1.391 . S
C1183 C1182 1.386 . S
C1183 C1187 1.393 . S
C1184 H1173 0.950 . S
C1184 C1182 1.391 . S
C1184 C1185 1.400 . S
C1185 C1179 1.491 . S
C1185 C1184 1.400 . S
C1185 C1186 1.398 . S
C1186 H1174 0.950 . S
C1186 C1185 1.398 . S
C1186 C1187 1.391 . S
C1187 H1175 0.950 . S
C1187 C1183 1.393 . S
C1187 C1186 1.391 . S
H1188 C1196 0.950 . S
H1189 C1201 0.950 . S
H1190 C1198 0.950 . S
H1191 C1200 0.950 . S
H1192 C1202 0.950 . S
H1193 C1204 0.950 . S
H1194 C1206 0.950 . S
H1195 C1207 0.950 . S
C1196 H1188 0.950 . S
C1196 C1197 1.386 . S
C1196 C1198 1.391 . S
C1197 C1196 1.386 . S
C1197 C1201 1.393 . S
C1198 H1190 0.950 . S
C1198 C1196 1.391 . S
C1198 C1199 1.400 . S
C1199 C1198 1.400 . S
C1199 C1200 1.398 . S
C1199 C1205 1.491 . S
C1200 H1191 0.950 . S
C1200 C1199 1.398 . S
C1200 C1201 1.391 . S
C1201 H1189 0.950 . S
C1201 C1197 1.393 . S
C1201 C1200 1.391 . S
C1202 H1192 0.950 . S
C1202 C1203 1.386 . S
C1202 C1204 1.391 . S
C1203 C1202 1.386 . S
C1203 C1207 1.393 . S
C1204 H1193 0.950 . S
C1204 C1202 1.391 . S
C1204 C1205 1.400 . S
C1205 C1199 1.491 . S
C1205 C1204 1.400 . S
C1205 C1206 1.398 . S
C1206 H1194 0.950 . S
C1206 C1205 1.398 . S
C1206 C1207 1.391 . S
C1207 H1195 0.950 . S
C1207 C1203 1.393 . S
C1207 C1206 1.391 . S
H1208 C1216 0.950 . S
H1209 C1221 0.950 . S
H1210 C1218 0.950 . S
H1211 C1220 0.950 . S
H1212 C1222 0.950 . S
H1213 C1224 0.950 . S
H1214 C1226 0.950 . S
H1215 C1227 0.950 . S
C1216 H1208 0.950 . S
C1216 C1217 1.386 . S
C1216 C1218 1.391 . S
C1217 C1216 1.386 . S
C1217 C1221 1.393 . S
C1218 H1210 0.950 . S
C1218 C1216 1.391 . S
C1218 C1219 1.400 . S
C1219 C1218 1.400 . S
C1219 C1220 1.398 . S
C1219 C1225 1.491 . S
C1220 H1211 0.950 . S
C1220 C1219 1.398 . S
C1220 C1221 1.391 . S
C1221 H1209 0.950 . S
C1221 C1217 1.393 . S
C1221 C1220 1.391 . S
C1222 H1212 0.950 . S
C1222 C1223 1.386 . S
C1222 C1224 1.391 . S
C1223 C1222 1.386 . S
C1223 C1227 1.393 . S
C1224 H1213 0.950 . S
C1224 C1222 1.391 . S
C1224 C1225 1.400 . S
C1225 C1219 1.491 . S
C1225 C1224 1.400 . S
C1225 C1226 1.398 . S
C1226 H1214 0.950 . S
C1226 C1225 1.398 . S
C1226 C1227 1.391 . S
C1227 H1215 0.950 . S
C1227 C1223 1.393 . S
C1227 C1226 1.391 . S
H1228 C1236 0.950 . S
H1229 C1241 0.950 . S
H1230 C1238 0.950 . S
H1231 C1240 0.950 . S
H1232 C1242 0.950 . S
H1233 C1244 0.950 . S
H1234 C1246 0.950 . S
H1235 C1247 0.950 . S
C1236 H1228 0.950 . S
C1236 C1237 1.386 . S
C1236 C1238 1.391 . S
C1237 C1236 1.386 . S
C1237 C1241 1.393 . S
C1238 H1230 0.950 . S
C1238 C1236 1.391 . S
C1238 C1239 1.400 . S
C1239 C1238 1.400 . S
C1239 C1240 1.398 . S
C1239 C1245 1.491 . S
C1240 H1231 0.950 . S
C1240 C1239 1.398 . S
C1240 C1241 1.391 . S
C1241 H1229 0.950 . S
C1241 C1237 1.393 . S
C1241 C1240 1.391 . S
C1242 H1232 0.950 . S
C1242 C1243 1.386 . S
C1242 C1244 1.391 . S
C1243 C1242 1.386 . S
C1243 C1247 1.393 . S
C1244 H1233 0.950 . S
C1244 C1242 1.391 . S
C1244 C1245 1.400 . S
C1245 C1239 1.491 . S
C1245 C1244 1.400 . S
C1245 C1246 1.398 . S
C1246 H1234 0.950 . S
C1246 C1245 1.398 . S
C1246 C1247 1.391 . S
C1247 H1235 0.950 . S
C1247 C1243 1.393 . S
C1247 C1246 1.391 . S
H1248 C1256 0.950 . S
H1249 C1261 0.950 . S
H1250 C1258 0.950 . S
H1251 C1260 0.950 . S
H1252 C1262 0.969 . S
H1253 C1264 0.950 . S
H1254 C1266 0.950 . S
H1255 C1267 0.950 . S
C1256 H1248 0.950 . S
C1256 C1257 1.386 . S
C1256 C1258 1.391 . S
C1257 C1256 1.386 . S
C1257 C1261 1.393 . S
C1258 H1250 0.950 . S
C1258 C1256 1.391 . S
C1258 C1259 1.400 . S
C1259 C1258 1.400 . S
C1259 C1260 1.398 . S
C1259 C1265 1.491 . S
C1260 H1251 0.950 . S
C1260 C1259 1.398 . S
C1260 C1261 1.391 . S
C1261 H1249 0.950 . S
C1261 C1257 1.393 . S
C1261 C1260 1.391 . S
C1262 H1252 0.969 . S
C1262 C1263 1.388 . S
C1262 C1264 1.371 1_565 S
C1263 C1262 1.388 . S
C1263 C1267 1.393 1_565 S
C1264 H1253 0.950 . S
C1264 C1262 1.371 1_545 S
C1264 C1265 1.400 . S
C1265 C1259 1.491 . S
C1265 C1264 1.400 . S
C1265 C1266 1.398 . S
C1266 H1254 0.950 . S
C1266 C1265 1.398 . S
C1266 C1267 1.391 . S
C1267 H1255 0.950 . S
C1267 C1263 1.393 1_545 S
C1267 C1266 1.391 . S
H1268 C1276 0.950 . S
H1269 C1281 0.950 . S
H1270 C1278 0.950 . S
H1271 C1280 0.950 . S
H1272 C1282 0.950 1_655 S
H1273 C1284 0.950 . S
H1274 C1286 0.950 . S
H1275 C1287 0.950 . S
C1276 H1268 0.950 . S
C1276 C1277 1.386 . S
C1276 C1278 1.391 . S
C1277 C1276 1.386 . S
C1277 C1281 1.393 . S
C1278 H1270 0.950 . S
C1278 C1276 1.391 . S
C1278 C1279 1.400 . S
C1279 C1278 1.400 . S
C1279 C1280 1.398 . S
C1279 C1285 1.491 . S
C1280 H1271 0.950 . S
C1280 C1279 1.398 . S
C1280 C1281 1.391 . S
C1281 H1269 0.950 . S
C1281 C1277 1.393 . S
C1281 C1280 1.391 . S
C1282 H1272 0.950 1_455 S
C1282 C1283 1.386 1_455 S
C1282 C1284 1.391 . S
C1283 C1282 1.386 1_655 S
C1283 C1287 1.393 1_655 S
C1284 H1273 0.950 . S
C1284 C1282 1.391 . S
C1284 C1285 1.400 . S
C1285 C1279 1.491 . S
C1285 C1284 1.400 . S
C1285 C1286 1.398 . S
C1286 H1274 0.950 . S
C1286 C1285 1.398 . S
C1286 C1287 1.391 . S
C1287 H1275 0.950 . S
C1287 C1283 1.393 1_455 S
C1287 C1286 1.391 . S
H1288 C1296 0.950 . S
H1289 C1301 0.950 . S
H1290 C1298 0.950 . S
H1291 C1300 0.950 . S
H1292 C1302 0.950 . S
H1293 C1304 0.950 . S
H1294 C1306 0.950 . S
H1295 C1307 0.971 . S
C1296 H1288 0.950 . S
C1296 C1297 1.386 . S
C1296 C1298 1.391 . S
C1297 C1296 1.386 . S
C1297 C1301 1.393 . S
C1298 H1290 0.950 . S
C1298 C1296 1.391 . S
C1298 C1299 1.400 . S
C1299 C1298 1.400 . S
C1299 C1300 1.398 . S
C1299 C1305 1.491 . S
C1300 H1291 0.950 . S
C1300 C1299 1.398 . S
C1300 C1301 1.391 . S
C1301 H1289 0.950 . S
C1301 C1297 1.393 . S
C1301 C1300 1.391 . S
C1302 H1292 0.950 . S
C1302 C1303 1.386 1_565 S
C1302 C1304 1.391 . S
C1303 C1302 1.386 1_545 S
C1303 C1307 1.396 . S
C1304 H1293 0.950 . S
C1304 C1302 1.391 . S
C1304 C1305 1.400 . S
C1305 C1299 1.491 . S
C1305 C1304 1.400 . S
C1305 C1306 1.398 . S
C1306 H1294 0.950 . S
C1306 C1305 1.398 . S
C1306 C1307 1.367 1_565 S
C1307 H1295 0.971 . S
C1307 C1303 1.396 . S
C1307 C1306 1.367 1_545 S
H1308 C1316 0.950 . S
H1309 C1321 0.937 1_455 S
H1310 C1318 0.950 . S
H1311 C1320 0.950 . S
H1312 C1322 0.950 . S
H1313 C1324 0.950 . S
H1314 C1326 0.950 . S
H1315 C1327 0.950 . S
C1316 H1308 0.950 . S
C1316 C1317 1.386 1_655 S
C1316 C1318 1.391 . S
C1317 C1316 1.386 1_455 S
C1317 C1321 1.393 1_455 S
C1318 H1310 0.950 . S
C1318 C1316 1.391 . S
C1318 C1319 1.400 . S
C1319 C1318 1.400 . S
C1319 C1320 1.398 . S
C1319 C1325 1.491 . S
C1320 H1311 0.950 . S
C1320 C1319 1.398 . S
C1320 C1321 1.391 . S
C1321 H1309 0.937 1_655 S
C1321 C1317 1.393 1_655 S
C1321 C1320 1.391 . S
C1322 H1312 0.950 . S
C1322 C1323 1.386 . S
C1322 C1324 1.391 . S
C1323 C1322 1.386 . S
C1323 C1327 1.393 . S
C1324 H1313 0.950 . S
C1324 C1322 1.391 . S
C1324 C1325 1.400 . S
C1325 C1319 1.491 . S
C1325 C1324 1.400 . S
C1325 C1326 1.398 . S
C1326 H1314 0.950 . S
C1326 C1325 1.398 . S
C1326 C1327 1.391 . S
C1327 H1315 0.950 . S
C1327 C1323 1.393 . S
C1327 C1326 1.391 . S
C537 C8 0.982 . S
C543 C470 0.977 . S
C557 C503 0.982 . S
C563 C41 0.977 . S
C577 C404 0.983 . S
C583 C74 0.978 . S
C597 C107 0.981 . S
C603 C437 0.980 . S
C617 C140 0.982 1_556 S
C623 C338 0.978 . S
C637 C371 0.978 . S
C643 C173 0.983 1_554 S
C657 C206 0.983 1_556 S
C663 C272 0.977 . S
C677 C305 0.981 . S
C683 C239 0.977 1_554 S
C697 N137 1.345 . S
C703 N5 1.334 . S
C717 N38 1.334 . S
C723 N170 1.345 . S
C737 N71 1.331 . S
C743 N203 1.330 . S
C757 N104 1.340 . S
C763 N236 1.330 . S
C777 N401 1.345 . S
C783 N269 1.334 . S
C797 N434 1.346 . S
C803 N302 1.336 . S
C817 N335 1.332 . S
C823 N467 1.343 . S
C837 N368 1.332 . S
C843 N500 1.343 . S
C857 C17 1.560 1_556 S
C863 C479 1.554 . S
C877 C512 1.563 . S
C883 C50 1.569 1_554 S
C897 C83 1.556 1_556 S
C903 C413 1.568 . S
C917 C446 1.557 . S
C923 C116 1.569 1_554 S
C937 C347 1.567 . S
C943 C149 1.555 . S
C957 C380 1.555 . S
C963 C182 1.566 . S
C977 C215 1.561 . S
C983 C281 1.554 . S
C997 C248 1.561 . S
C1003 C314 1.554 . S
C1017 N14 1.549 . S
C1023 C391 1.601 . S
C1037 C292 1.605 . S
C1043 N47 1.544 . S
C1057 N80 1.565 . S
C1063 C325 1.601 . S
C1077 C358 1.601 . S
C1083 N113 1.549 . S
C1097 C193 1.604 . S
C1103 N146 1.569 . S
C1117 C226 1.606 . S
C1123 N179 1.569 . S
C1137 N212 1.560 . S
C1143 C259 1.612 . S
C1157 C160 1.600 . S
C1163 N245 1.561 . S
C1177 C127 1.612 . S
C1183 N278 1.561 . S
C1197 N311 1.557 . S
C1203 C28 1.600 . S
C1217 N344 1.547 . S
C1223 C61 1.611 . S
C1237 C94 1.600 . S
C1243 N377 1.555 . S
C1257 C457 1.612 . S
C1263 N410 1.552 . S
C1277 C490 1.600 . S
C1283 N443 1.553 . S
C1297 C523 1.600 . S
C1303 N476 1.560 . S
C1317 N509 1.550 . S
C1323 C424 1.601 . S
