# Generated by pormake.
# Topology whw, (6)-cn, num edge types: 1
# Building blocks:
#     Node 0, Type 0, BuildingBlock: BETDIP_clean_sbu_0, # of connection points: 6
#     Node 1, Type 0, BuildingBlock: BETDIP_clean_sbu_0, # of connection points: 6
#     Node 2, Type 0, BuildingBlock: BETDIP_clean_sbu_0, # of connection points: 6
#     Node 3, Type 0, BuildingBlock: BETDIP_clean_sbu_0, # of connection points: 6
#     Node 4, Type 0, BuildingBlock: BETDIP_clean_sbu_0, # of connection points: 6
#     Node 5, Type 0, BuildingBlock: BETDIP_clean_sbu_0, # of connection points: 6
#     Node 6, Type 0, BuildingBlock: BETDIP_clean_sbu_0, # of connection points: 6
#     Node 7, Type 0, BuildingBlock: BETDIP_clean_sbu_0, # of connection points: 6
#     Node 8, Type 0, BuildingBlock: BETDIP_clean_sbu_0, # of connection points: 6
#     Node 9, Type 0, BuildingBlock: BETDIP_clean_sbu_0, # of connection points: 6
#     Node 10, Type 0, BuildingBlock: BETDIP_clean_sbu_0, # of connection points: 6
#     Node 11, Type 0, BuildingBlock: BETDIP_clean_sbu_0, # of connection points: 6
#     Node 12, Type 0, BuildingBlock: BETDIP_clean_sbu_0, # of connection points: 6
#     Node 13, Type 0, BuildingBlock: BETDIP_clean_sbu_0, # of connection points: 6
#     Node 14, Type 0, BuildingBlock: BETDIP_clean_sbu_0, # of connection points: 6
#     Node 15, Type 0, BuildingBlock: BETDIP_clean_sbu_0, # of connection points: 6
#     Edge 16, Type (0, 0), BuildingBlock: MIFKUJ_clean_linker_0, # of connection points: 2
#     Edge 17, Type (0, 0), BuildingBlock: MIFKUJ_clean_linker_0, # of connection points: 2
#     Edge 18, Type (0, 0), BuildingBlock: MIFKUJ_clean_linker_0, # of connection points: 2
#     Edge 19, Type (0, 0), BuildingBlock: MIFKUJ_clean_linker_0, # of connection points: 2
#     Edge 20, Type (0, 0), BuildingBlock: MIFKUJ_clean_linker_0, # of connection points: 2
#     Edge 21, Type (0, 0), BuildingBlock: MIFKUJ_clean_linker_0, # of connection points: 2
#     Edge 22, Type (0, 0), BuildingBlock: MIFKUJ_clean_linker_0, # of connection points: 2
#     Edge 23, Type (0, 0), BuildingBlock: MIFKUJ_clean_linker_0, # of connection points: 2
#     Edge 24, Type (0, 0), BuildingBlock: MIFKUJ_clean_linker_0, # of connection points: 2
#     Edge 25, Type (0, 0), BuildingBlock: MIFKUJ_clean_linker_0, # of connection points: 2
#     Edge 26, Type (0, 0), BuildingBlock: MIFKUJ_clean_linker_0, # of connection points: 2
#     Edge 27, Type (0, 0), BuildingBlock: MIFKUJ_clean_linker_0, # of connection points: 2
#     Edge 28, Type (0, 0), BuildingBlock: MIFKUJ_clean_linker_0, # of connection points: 2
#     Edge 29, Type (0, 0), BuildingBlock: MIFKUJ_clean_linker_0, # of connection points: 2
#     Edge 30, Type (0, 0), BuildingBlock: MIFKUJ_clean_linker_0, # of connection points: 2
#     Edge 31, Type (0, 0), BuildingBlock: MIFKUJ_clean_linker_0, # of connection points: 2
#     Edge 32, Type (0, 0), BuildingBlock: MIFKUJ_clean_linker_0, # of connection points: 2
#     Edge 33, Type (0, 0), BuildingBlock: MIFKUJ_clean_linker_0, # of connection points: 2
#     Edge 34, Type (0, 0), BuildingBlock: MIFKUJ_clean_linker_0, # of connection points: 2
#     Edge 35, Type (0, 0), BuildingBlock: MIFKUJ_clean_linker_0, # of connection points: 2
#     Edge 36, Type (0, 0), BuildingBlock: MIFKUJ_clean_linker_0, # of connection points: 2
#     Edge 37, Type (0, 0), BuildingBlock: MIFKUJ_clean_linker_0, # of connection points: 2
#     Edge 38, Type (0, 0), BuildingBlock: MIFKUJ_clean_linker_0, # of connection points: 2
#     Edge 39, Type (0, 0), BuildingBlock: MIFKUJ_clean_linker_0, # of connection points: 2
#     Edge 40, Type (0, 0), BuildingBlock: MIFKUJ_clean_linker_0, # of connection points: 2
#     Edge 41, Type (0, 0), BuildingBlock: MIFKUJ_clean_linker_0, # of connection points: 2
#     Edge 42, Type (0, 0), BuildingBlock: MIFKUJ_clean_linker_0, # of connection points: 2
#     Edge 43, Type (0, 0), BuildingBlock: MIFKUJ_clean_linker_0, # of connection points: 2
#     Edge 44, Type (0, 0), BuildingBlock: MIFKUJ_clean_linker_0, # of connection points: 2
#     Edge 45, Type (0, 0), BuildingBlock: MIFKUJ_clean_linker_0, # of connection points: 2
#     Edge 46, Type (0, 0), BuildingBlock: MIFKUJ_clean_linker_0, # of connection points: 2
#     Edge 47, Type (0, 0), BuildingBlock: MIFKUJ_clean_linker_0, # of connection points: 2
#     Edge 48, Type (0, 0), BuildingBlock: MIFKUJ_clean_linker_0, # of connection points: 2
#     Edge 49, Type (0, 0), BuildingBlock: MIFKUJ_clean_linker_0, # of connection points: 2
#     Edge 50, Type (0, 0), BuildingBlock: MIFKUJ_clean_linker_0, # of connection points: 2
#     Edge 51, Type (0, 0), BuildingBlock: MIFKUJ_clean_linker_0, # of connection points: 2
#     Edge 52, Type (0, 0), BuildingBlock: MIFKUJ_clean_linker_0, # of connection points: 2
#     Edge 53, Type (0, 0), BuildingBlock: MIFKUJ_clean_linker_0, # of connection points: 2
#     Edge 54, Type (0, 0), BuildingBlock: MIFKUJ_clean_linker_0, # of connection points: 2
#     Edge 55, Type (0, 0), BuildingBlock: MIFKUJ_clean_linker_0, # of connection points: 2
#     Edge 56, Type (0, 0), BuildingBlock: MIFKUJ_clean_linker_0, # of connection points: 2
#     Edge 57, Type (0, 0), BuildingBlock: MIFKUJ_clean_linker_0, # of connection points: 2
#     Edge 58, Type (0, 0), BuildingBlock: MIFKUJ_clean_linker_0, # of connection points: 2
#     Edge 59, Type (0, 0), BuildingBlock: MIFKUJ_clean_linker_0, # of connection points: 2
#     Edge 60, Type (0, 0), BuildingBlock: MIFKUJ_clean_linker_0, # of connection points: 2
#     Edge 61, Type (0, 0), BuildingBlock: MIFKUJ_clean_linker_0, # of connection points: 2
#     Edge 62, Type (0, 0), BuildingBlock: MIFKUJ_clean_linker_0, # of connection points: 2
#     Edge 63, Type (0, 0), BuildingBlock: MIFKUJ_clean_linker_0, # of connection points: 2
# Relax obj value: 0.399
# Max RMSD: 0.236
# Mean RMSD: 0.209
data_MOF--net-whw--node1-BETDIP_clean_sbu_0--edge1-MIFKUJ_clean_linker_0
_symmetry_space_group_name_H-M    P1
_symmetry_Int_Tables_number       1
_symmetry_cell_setting            triclinic
loop_
_symmetry_equiv_pos_as_xyz
'x, y, z'
_cell_length_a     59.904688
_cell_length_b     59.737393
_cell_length_c     41.796259
_cell_angle_alpha  90.560081
_cell_angle_beta   80.506793
_cell_angle_gamma 102.21
loop_
_atom_site_label
_atom_site_type_symbol
_atom_site_fract_x
_atom_site_fract_y
_atom_site_fract_z
_atom_type_partial_charge
Tb0 Tb 0.03419 0.11976 0.18746 0.0
Tb1 Tb 0.01967 0.12845 0.11786 0.0
C2 C 0.04505 0.12991 0.24328 0.0
C3 C 0.0511 0.13617 0.27679 0.0
C4 C 0.0367 0.14672 0.29961 0.0
C5 C 0.04345 0.15499 0.3293 0.0
C6 C 0.06505 0.1533 0.33764 0.0
C7 C 0.07931 0.14249 0.31478 0.0
C8 C 0.07251 0.13417 0.28512 0.0
C9 C 0.0221 0.08251 0.15417 0.0
C10 C 0.98242 0.12505 0.18058 0.0
C11 C 0.0124 0.12907 0.0592 0.0
C12 C 0.00207 0.13921 0.03314 0.0
C13 C 0.98522 0.12517 1.01757 0.0
C14 C 0.97777 0.13309 0.99009 0.0
C15 C 0.98685 0.15547 0.97666 0.0
C16 C 0.00339 0.16971 0.99274 0.0
C17 C 0.01092 0.16173 1.02019 0.0
C18 C 0.03358 0.16444 0.15297 0.0
C19 C 0.0695 0.12083 0.12445 0.0
O20 O 0.02548 0.13204 0.23479 0.0
O21 O 0.05762 0.12008 0.22104 0.0
O22 O 0.01501 0.10093 0.15317 0.0
O23 O 0.03352 0.08334 0.1784 0.0
O24 O -0.0016 0.12385 0.19876 0.0
O25 O 0.98613 0.12582 0.14838 0.0
O26 O -0.00105 0.11537 0.08227 0.0
O27 O 0.0304 0.14149 0.06976 0.0
O28 O 0.03985 0.14586 0.15142 0.0
O29 O 0.02101 0.16474 0.13056 0.0
O30 O 0.05198 0.11576 0.1079 0.0
O31 O 0.06685 0.12857 0.15436 0.0
H32 H 0.02022 0.149 0.2943 0.0
H33 H 0.03151 0.16272 0.34577 0.0
H34 H 0.09621 0.14095 0.31921 0.0
H35 H 0.08443 0.12665 0.26824 0.0
H36 H 0.97815 0.10766 1.02617 0.0
H37 H 0.96483 0.12144 0.97928 0.0
H38 H 0.01122 0.18693 0.98349 0.0
H39 H 0.02422 0.17311 1.03073 0.0
Tb40 Tb 0.15216 0.76529 0.45616 0.0
Tb41 Tb 0.13658 0.71766 0.43279 0.0
C42 C 0.16122 0.80101 0.48737 0.0
C43 C 0.15853 0.80682 0.52205 0.0
C44 C 0.13869 0.81408 0.53745 0.0
C45 C 0.1364 0.81953 0.57026 0.0
C46 C 0.15387 0.81778 0.58822 0.0
C47 C 0.1737 0.81064 0.5728 0.0
C48 C 0.17608 0.80536 0.54004 0.0
C49 C 0.18287 0.75129 0.41211 0.0
C50 C 0.13832 0.72194 0.50866 0.0
C51 C 0.13852 0.67878 0.41084 0.0
C52 C 0.1444 0.67185 0.37736 0.0
C53 C 0.15574 0.65364 0.37061 0.0
C54 C 0.16491 0.6496 0.33859 0.0
C55 C 0.16321 0.66409 0.31326 0.0
C56 C 0.15118 0.68181 0.32008 0.0
C57 C 0.14181 0.68561 0.35184 0.0
C58 C 0.1038 0.73923 0.455 0.0
C59 C 0.13495 0.75964 0.38809 0.0
O60 O 0.14223 0.79519 0.47449 0.0
O61 O 0.17612 0.78802 0.47803 0.0
O62 O 0.16961 0.73927 0.4352 0.0
O63 O 0.18043 0.77215 0.41506 0.0
O64 O 0.14623 0.74445 0.50254 0.0
O65 O 0.13333 0.70796 0.48465 0.0
O66 O 0.15576 0.69236 0.42144 0.0
O67 O 0.11913 0.68596 0.41811 0.0
O68 O 0.12216 0.7397 0.46539 0.0
O69 O 0.10191 0.72459 0.43184 0.0
O70 O 0.13915 0.73859 0.38848 0.0
O71 O 0.13607 0.77261 0.41426 0.0
H72 H 0.12494 0.81552 0.52421 0.0
H73 H 0.12085 0.82488 0.58167 0.0
H74 H 0.18757 0.80948 0.58597 0.0
H75 H 0.19175 0.80015 0.52884 0.0
H76 H 0.15816 0.64308 0.39015 0.0
H77 H 0.17396 0.63573 0.33373 0.0
H78 H 0.14922 0.69289 0.30082 0.0
H79 H 0.13323 0.69981 0.35655 0.0
Tb80 Tb 0.49727 0.84069 0.64381 0.0
Tb81 Tb 0.544 0.8692 0.65862 0.0
C82 C 0.4556 0.83041 0.63692 0.0
C83 C 0.44305 0.83427 0.61101 0.0
C84 C 0.45338 0.85091 0.58659 0.0
C85 C 0.44139 0.85475 0.56202 0.0
C86 C 0.41893 0.84187 0.56137 0.0
C87 C 0.40866 0.82514 0.58585 0.0
C88 C 0.42066 0.82143 0.61061 0.0
C89 C 0.5281 0.81786 0.65566 0.0
C90 C 0.53889 0.84967 0.58691 0.0
C91 C 0.58421 0.88061 0.67123 0.0
C92 C 0.5962 0.8747 0.69665 0.0
C93 C 0.58352 0.86593 0.72672 0.0
C94 C 0.5949 0.86195 0.75177 0.0
C95 C 0.61922 0.86751 0.74765 0.0
C96 C 0.63194 0.87549 0.71708 0.0
C97 C 0.62044 0.87898 0.69165 0.0
C98 C 0.52191 0.89662 0.63207 0.0
C99 C 0.50252 0.85056 0.71908 0.0
O100 O 0.46471 0.84899 0.65113 0.0
O101 O 0.46986 0.81646 0.63023 0.0
O102 O 0.52395 0.83592 0.66815 0.0
O103 O 0.51303 0.81028 0.63684 0.0
O104 O 0.51607 0.84695 0.59453 0.0
O105 O 0.55276 0.85628 0.60881 0.0
O106 O 0.57816 0.86434 0.65105 0.0
O107 O 0.56776 0.89176 0.68116 0.0
O108 O 0.51535 0.87543 0.63841 0.0
O109 O 0.54108 0.90322 0.64293 0.0
O110 O 0.52447 0.8617 0.70928 0.0
O111 O 0.48921 0.8416 0.69754 0.0
H112 H 0.47075 0.86086 0.5865 0.0
H113 H 0.44991 0.86744 0.54312 0.0
H114 H 0.39137 0.81501 0.58588 0.0
H115 H 0.41249 0.80852 0.62937 0.0
H116 H 0.56479 0.86262 0.73111 0.0
H117 H 0.58459 0.85517 0.77474 0.0
H118 H 0.65068 0.88002 0.71322 0.0
H119 H 0.63044 0.88579 0.66851 0.0
Tb120 Tb 0.40218 0.20876 0.86701 0.0
Tb121 Tb 0.40814 0.25715 0.84336 0.0
C122 C 0.40096 0.17111 0.89363 0.0
C123 C 0.4061 0.16439 0.92458 0.0
C124 C 0.42081 0.17989 0.94129 0.0
C125 C 0.42176 0.17536 0.97361 0.0
C126 C 0.40791 0.15536 0.98954 0.0
C127 C 0.3942 0.13931 0.97216 0.0
C128 C 0.39331 0.14383 0.93982 0.0
C129 C 0.36546 0.21917 0.84855 0.0
C130 C 0.41161 0.24929 0.91819 0.0
C131 C 0.39822 0.2947 0.83152 0.0
C132 C 0.39465 0.30601 0.80252 0.0
C133 C 0.3815 0.32294 0.80588 0.0
C134 C 0.37568 0.3321 0.77855 0.0
C135 C 0.38289 0.32434 0.74749 0.0
C136 C 0.39627 0.30745 0.74432 0.0
C137 C 0.40198 0.29825 0.77164 0.0
C138 C 0.4462 0.24215 0.83441 0.0
C139 C 0.41373 0.21811 0.79159 0.0
O140 O 0.41859 0.18164 0.87235 0.0
O141 O 0.38322 0.18099 0.89651 0.0
O142 O 0.37929 0.23152 0.86452 0.0
O143 O 0.37191 0.20007 0.84278 0.0
O144 O 0.40617 0.22688 0.91317 0.0
O145 O 0.41379 0.26436 0.894 0.0
O146 O 0.3829 0.27583 0.84009 0.0
O147 O 0.41935 0.29252 0.83299 0.0
O148 O 0.43021 0.23758 0.85875 0.0
O149 O 0.44216 0.25742 0.81539 0.0
O150 O 0.40682 0.23795 0.79714 0.0
O151 O 0.41561 0.20501 0.81601 0.0
H152 H 0.43062 0.19599 0.92993 0.0
H153 H 0.43231 0.18808 0.98661 0.0
H154 H 0.3836 0.12365 0.98389 0.0
H155 H 0.38174 0.13183 0.92721 0.0
H156 H 0.37533 0.32873 0.82972 0.0
H157 H 0.36526 0.34498 0.78177 0.0
H158 H 0.4025 0.30143 0.72067 0.0
H159 H 0.41183 0.28488 0.76873 0.0
Tb160 Tb 0.02326 0.85818 0.95557 0.0
Tb161 Tb 0.00204 0.86138 0.89061 0.0
C162 C 0.04601 0.85927 1.00221 0.0
C163 C 0.04794 0.85108 0.0356 0.0
C164 C 0.05974 0.86644 0.05606 0.0
C165 C 0.06517 0.8589 0.08523 0.0
C166 C 0.05897 0.83555 0.09538 0.0
C167 C 0.04656 0.82025 0.07513 0.0
C168 C 0.04126 0.82783 0.04578 0.0
C169 C -0.00113 0.82049 0.93498 0.0
C170 C 0.97104 0.86128 0.95967 0.0
C171 C 0.98825 0.85009 0.83715 0.0
C172 C 0.9798 0.84291 0.80538 0.0
C173 C 0.96715 0.82053 0.80155 0.0
C174 C 0.96037 0.81331 0.77151 0.0
C175 C 0.96593 0.82812 0.74378 0.0
C176 C 0.97846 0.85062 0.74782 0.0
C177 C 0.98527 0.85781 0.77788 0.0
C178 C 0.01072 0.89977 0.92299 0.0
C179 C 0.05615 0.86535 0.88644 0.0
O180 O 0.03288 0.87389 0.99871 0.0
O181 O 0.04627 0.84464 0.97861 0.0
O182 O 0.01228 0.83644 0.91775 0.0
O183 O -0.00039 0.82484 0.9652 0.0
O184 O 0.98996 0.86681 0.97345 0.0
O185 O 0.9715 0.8553 0.92878 0.0
O186 O 0.98269 0.83676 0.86332 0.0
O187 O 0.00091 0.87034 0.84172 0.0
O188 O 0.02198 0.88397 0.92095 0.0
O189 O -0.00471 0.89529 0.90379 0.0
O190 O 0.03824 0.86364 0.87114 0.0
O191 O 0.05446 0.86461 0.91846 0.0
H192 H 0.06561 0.88437 0.04887 0.0
H193 H 0.07503 0.87146 0.09919 0.0
H194 H 0.04093 0.80223 0.08176 0.0
H195 H 0.03234 0.81534 1.03069 0.0
H196 H 0.96259 0.80836 0.82184 0.0
H197 H 0.95053 0.796 0.77025 0.0
H198 H 0.98355 0.86271 0.72748 0.0
H199 H -0.00486 0.87509 0.77941 0.0
Tb200 Tb 0.4205 0.77408 0.13176 0.0
Tb201 Tb 0.40032 0.72473 0.11094 0.0
C202 C 0.42138 0.8146 0.14824 0.0
C203 C 0.41175 0.82451 0.17836 0.0
C204 C 0.38914 0.81522 0.19412 0.0
C205 C 0.38134 0.82196 0.22519 0.0
C206 C 0.39574 0.83866 0.2407 0.0
C207 C 0.41783 0.84907 0.22405 0.0
C208 C 0.42583 0.84191 0.19315 0.0
C209 C 0.4504 0.74971 0.10675 0.0
C210 C 0.4177 0.73335 0.18014 0.0
C211 C 0.3953 0.6848 0.09064 0.0
C212 C 0.40083 0.67333 0.06022 0.0
C213 C 0.42147 0.68129 0.03848 0.0
C214 C 0.42466 0.67193 1.00773 0.0
C215 C 0.40707 0.65489 0.99835 0.0
C216 C 0.38682 0.6465 1.02051 0.0
C217 C 0.3838 0.65556 0.05134 0.0
C218 C 0.36767 0.74145 0.14966 0.0
C219 C 0.41397 0.76618 0.05633 0.0
O220 O 0.40616 0.80303 0.13164 0.0
O221 O 0.43823 0.8041 0.15056 0.0
O222 O 0.43109 0.74966 0.09932 0.0
O223 O 0.45522 0.76644 0.1264 0.0
O224 O 0.41654 0.75525 0.17777 0.0
O225 O 0.41435 0.71915 0.15564 0.0
O226 O 0.41257 0.6943 0.10545 0.0
O227 O 0.38015 0.6977 0.09 0.0
O228 O 0.38849 0.75067 0.13969 0.0
O229 O 0.36419 0.72201 0.13564 0.0
O230 O 0.40627 0.74369 0.06315 0.0
O231 O 0.41974 0.78073 0.07958 0.0
H232 H 0.37775 0.80213 0.18292 0.0
H233 H 0.36431 0.81357 0.23744 0.0
H234 H 0.42939 0.86181 0.23562 0.0
H235 H 0.44333 0.8493 0.18136 0.0
H236 H 0.43468 0.69523 0.04478 0.0
H237 H 0.44031 0.67875 0.99074 0.0
H238 H 0.3731 0.63335 1.01364 0.0
H239 H 0.36772 0.64937 0.06782 0.0
Tb240 Tb 0.50237 0.11582 0.40821 0.0
Tb241 Tb 0.55035 0.13786 0.41641 0.0
C242 C 0.4641 0.09972 0.3908 0.0
C243 C 0.45382 0.1057 0.36364 0.0
C244 C 0.46597 0.12389 0.34267 0.0
C245 C 0.4569 0.12976 0.31634 0.0
C246 C 0.43571 0.11703 0.30975 0.0
C247 C 0.42329 0.09885 0.33101 0.0
C248 C 0.43232 0.09325 0.35797 0.0
C249 C 0.52345 0.08951 0.43787 0.0
C250 C 0.54185 0.13224 0.34475 0.0
C251 C 0.59065 0.14422 0.42908 0.0
C252 C 0.60248 0.13638 0.45323 0.0
C253 C 0.62603 0.13609 0.44484 0.0
C254 C 0.63779 0.12871 0.46745 0.0
C255 C 0.62613 0.12163 0.49886 0.0
C256 C 0.60219 0.12104 0.50663 0.0
C257 C 0.59043 0.12825 0.4839 0.0
C258 C 0.52717 0.16608 0.39503 0.0
C259 C 0.50859 0.13749 0.47578 0.0
O260 O 0.46695 0.11552 0.4125 0.0
O261 O 0.48254 0.0911 0.38259 0.0
O262 O 0.53266 0.10269 0.41354 0.0
O263 O 0.50179 0.08977 0.4442 0.0
O264 O 0.51942 0.12699 0.35734 0.0
O265 O 0.55758 0.13402 0.36387 0.0
O266 O 0.5822 0.12817 0.41022 0.0
O267 O 0.57636 0.15773 0.4389 0.0
O268 O 0.51982 0.14946 0.41445 0.0
O269 O 0.54957 0.16916 0.38855 0.0
O270 O 0.53103 0.13712 0.46724 0.0
O271 O 0.49423 0.13255 0.45437 0.0
H272 H 0.48259 0.13354 0.34645 0.0
H273 H 0.46673 0.14414 0.30091 0.0
H274 H 0.40701 0.08859 0.32635 0.0
H275 H 0.42278 0.07905 0.37397 0.0
H276 H 0.63538 0.14185 0.42089 0.0
H277 H 0.65612 0.1291 0.46064 0.0
H278 H 0.59272 0.11606 0.53074 0.0
H279 H 0.5721 0.12795 0.49047 0.0
Tb280 Tb 0.12974 0.23508 0.72812 0.0
Tb281 Tb 0.13534 0.28323 0.70316 0.0
C282 C 0.1375 0.20072 0.75476 0.0
C283 C 0.1471 0.19672 0.78385 0.0
C284 C 0.16365 0.18308 0.78201 0.0
C285 C 0.17234 0.17847 0.80974 0.0
C286 C 0.16458 0.1875 0.83966 0.0
C287 C 0.1483 0.20149 0.84122 0.0
C288 C 0.1398 0.20625 0.81355 0.0
C289 C 0.09125 0.24361 0.71423 0.0
C290 C 0.1226 0.27542 0.77846 0.0
C291 C 0.13798 0.32184 0.67737 0.0
C292 C 0.13946 0.33016 0.64422 0.0
C293 C 0.13475 0.31451 0.61985 0.0
C294 C 0.14038 0.32159 0.58743 0.0
C295 C 0.1506 0.34455 0.57902 0.0
C296 C 0.15419 0.36058 0.60339 0.0
C297 C 0.14883 0.35333 0.63597 0.0
C298 C 0.17193 0.27325 0.72268 0.0
C299 C 0.13157 0.24128 0.65214 0.0
O300 O 0.1521 0.21284 0.73134 0.0
O301 O 0.11733 0.20654 0.75958 0.0
O302 O 0.10689 0.25771 0.72509 0.0
O303 O 0.09602 0.22341 0.71397 0.0
O304 O 0.12927 0.25554 0.77344 0.0
O305 O 0.12032 0.28791 0.75364 0.0
O306 O 0.11841 0.30858 0.69067 0.0
O307 O 0.15586 0.31381 0.68198 0.0
O308 O 0.15846 0.26061 0.70648 0.0
O309 O 0.16514 0.29223 0.7281 0.0
O310 O 0.13243 0.26342 0.65785 0.0
O311 O 0.13253 0.22695 0.67587 0.0
H312 H 0.16961 0.17574 0.7592 0.0
H313 H 0.18484 0.16761 0.8079 0.0
H314 H 0.1416 0.20827 0.86409 0.0
H315 H 0.12719 0.217 0.81563 0.0
H316 H 0.12751 0.29669 0.62582 0.0
H317 H 0.13707 0.30909 0.56887 0.0
H318 H 0.16188 0.37841 0.59717 0.0
H319 H 0.15276 0.36558 0.6546 0.0
Tb320 Tb 0.90381 0.27054 0.63739 0.0
Tb321 Tb 0.89379 0.22285 0.61343 0.0
C322 C 0.89735 0.30728 0.66205 0.0
C323 C 0.89726 0.31291 0.69632 0.0
C324 C 0.88314 0.29754 0.7205 0.0
C325 C 0.88994 0.29585 0.75046 0.0
C326 C 0.9106 0.30975 0.75657 0.0
C327 C 0.92266 0.32746 0.73451 0.0
C328 C 0.91588 0.32917 0.7045 0.0
C329 C 0.94007 0.25384 0.615 0.0
C330 C 0.91176 0.23043 0.68121 0.0
C331 C 0.88743 0.18695 0.58203 0.0
C332 C 0.89114 0.18224 0.54732 0.0
C333 C 0.90889 0.19635 0.52582 0.0
C334 C 0.91086 0.19308 0.49248 0.0
C335 C 0.89497 0.17579 0.48011 0.0
C336 C 0.87727 0.16165 0.5017 0.0
C337 C 0.8754 0.16485 0.5351 0.0
C338 C 0.86127 0.23313 0.65849 0.0
C339 C 0.90324 0.26633 0.56147 0.0
O340 O 0.88039 0.29075 0.65628 0.0
O341 O 0.9175 0.30486 0.64628 0.0
O342 O 0.9215 0.25096 0.60433 0.0
O343 O 0.93966 0.26765 0.63931 0.0
O344 O 0.90568 0.25071 0.6812 0.0
O345 O 0.91137 0.21749 0.65487 0.0
O346 O 0.90612 0.19419 0.59518 0.0
O347 O 0.87131 0.19865 0.59093 0.0
O348 O 0.87274 0.24585 0.63481 0.0
O349 O 0.86744 0.21373 0.65664 0.0
O350 O 0.89805 0.24361 0.56702 0.0
O351 O 0.90575 0.28035 0.5861 0.0
H352 H 0.8684 0.28498 0.71518 0.0
H353 H 0.88042 0.28216 0.76738 0.0
H354 H 0.93856 0.33849 0.73923 0.0
H355 H 0.92687 0.34126 0.68635 0.0
H356 H 0.92094 0.21017 0.53474 0.0
H357 H 0.92451 0.20437 0.47631 0.0
H358 H 0.86495 0.14807 0.49276 0.0
H359 H 0.86143 0.154 0.55138 0.0
Tb360 Tb 0.6376 0.73239 0.21577 0.0
Tb361 Tb 0.64334 0.78098 0.19168 0.0
C362 C 0.64854 0.70063 0.24446 0.0
C363 C 0.66097 0.70166 0.2722 0.0
C364 C 0.67181 0.72297 0.28258 0.0
C365 C 0.68332 0.72449 0.30918 0.0
C366 C 0.68318 0.70471 0.32726 0.0
C367 C 0.67256 0.68322 0.31632 0.0
C368 C 0.66176 0.68174 0.28885 0.0
C369 C 0.60024 0.73886 0.19591 0.0
C370 C 0.6261 0.77212 0.26588 0.0
C371 C 0.64912 0.8192 0.16343 0.0
C372 C 0.64974 0.8274 0.13021 0.0
C373 C 0.63024 0.82231 0.11477 0.0
C374 C 0.63239 0.82752 0.08177 0.0
C375 C 0.65397 0.83821 0.06395 0.0
C376 C 0.67309 0.8445 0.07996 0.0
C377 C 0.67097 0.83917 0.1128 0.0
C378 C 0.67862 0.77101 0.21457 0.0
C379 C 0.64112 0.73973 0.1401 0.0
O380 O 0.66092 0.71107 0.21794 0.0
O381 O 0.62796 0.70552 0.25071 0.0
O382 O 0.61446 0.75377 0.20863 0.0
O383 O 0.60522 0.71885 0.19886 0.0
O384 O 0.63146 0.75163 0.26134 0.0
O385 O 0.62722 0.78617 0.24109 0.0
O386 O 0.6292 0.80872 0.18004 0.0
O387 O 0.66588 0.80892 0.16653 0.0
O388 O 0.66625 0.75878 0.19677 0.0
O389 O 0.67122 0.7896 0.22048 0.0
O390 O 0.64069 0.76157 0.14644 0.0
O391 O 0.6423 0.72512 0.16337 0.0
H392 H 0.67081 0.73854 0.2706 0.0
H393 H 0.69155 0.74131 0.31615 0.0
H394 H 0.67149 0.66754 0.32977 0.0
H395 H 0.65337 0.66511 0.2813 0.0
H396 H 0.61355 0.81389 0.12792 0.0
H397 H 0.61738 0.82254 0.06997 0.0
H398 H 0.68979 0.85328 0.067 0.0
H399 H 0.68617 0.84362 0.1244 0.0
Tb400 Tb 0.64693 0.26635 0.95561 0.0
Tb401 Tb 0.62557 0.21859 0.94295 0.0
C402 C 0.66077 0.30367 0.9813 0.0
C403 C 0.65739 0.31091 1.01514 0.0
C404 C 0.6367 0.30193 0.03626 0.0
C405 C 0.6342 0.30748 0.06895 0.0
C406 C 0.65241 0.32196 0.08119 0.0
C407 C 0.67313 0.3309 0.06005 0.0
C408 C 0.67557 0.32545 1.0272 0.0
C409 C 0.6738 0.24615 0.91403 0.0
C410 C 0.63362 0.22688 1.0133 0.0
C411 C 0.61725 0.18047 0.91707 0.0
C412 C 0.62211 0.17382 0.88315 0.0
C413 C 0.64447 0.18047 0.86504 0.0
C414 C 0.64862 0.17564 0.83226 0.0
C415 C 0.63053 0.16407 0.81682 0.0
C416 C 0.60813 0.15742 0.83501 0.0
C417 C 0.60398 0.16223 0.86795 0.0
C418 C 0.59665 0.24185 0.97706 0.0
C419 C 0.62601 0.25881 0.89105 0.0
O420 O 0.64228 0.2994 0.96737 0.0
O421 O 0.67314 0.28798 0.97562 0.0
O422 O 0.66093 0.23678 0.93969 0.0
O423 O 0.67316 0.26755 0.91285 0.0
O424 O 0.63715 0.24895 1.00484 0.0
O425 O 0.63194 0.21109 0.99107 0.0
O426 O 0.63532 0.18754 0.9313 0.0
O427 O 0.60205 0.19344 0.92308 0.0
O428 O 0.61308 0.24866 0.95429 0.0
O429 O 0.595 0.21986 0.97996 0.0
O430 O 0.62508 0.23664 0.89666 0.0
O431 O 0.63239 0.27426 0.91283 0.0
H432 H 0.62258 0.2903 1.02764 0.0
H433 H 0.61819 0.30003 0.08484 0.0
H434 H 0.68738 0.34215 0.06891 0.0
H435 H 0.69176 0.3323 1.01131 0.0
H436 H 0.65878 0.18965 0.87603 0.0
H437 H 0.66607 0.18097 0.81912 0.0
H438 H 0.59372 0.14889 0.82371 0.0
H439 H 0.58655 0.15728 0.88142 0.0
Tb440 Tb 0.90413 0.71107 0.37263 0.0
Tb441 Tb 0.90803 0.75972 0.34978 0.0
C442 C 0.90205 0.67239 0.39737 0.0
C443 C 0.89884 0.6633 0.43038 0.0
C444 C 0.89238 0.67668 0.45649 0.0
C445 C 0.88892 0.6681 0.48802 0.0
C446 C 0.89131 0.64569 0.49401 0.0
C447 C 0.89737 0.63209 0.46766 0.0
C448 C 0.9012 0.64092 0.43595 0.0
C449 C 0.86905 0.71991 0.34787 0.0
C450 C 0.90315 0.75112 0.42587 0.0
C451 C 0.89525 0.79119 0.32345 0.0
C452 C 0.88283 0.79096 0.29583 0.0
C453 C 0.86544 0.80352 0.29669 0.0
C454 C 0.85367 0.80335 0.27035 0.0
C455 C 0.85912 0.79055 0.24279 0.0
C456 C 0.87568 0.77701 0.24302 0.0
C457 C 0.88739 0.77726 0.26916 0.0
C458 C 0.94578 0.75413 0.36887 0.0
C459 C 0.92252 0.72143 0.29909 0.0
O460 O 0.92158 0.68692 0.38732 0.0
O461 O 0.88415 0.67934 0.39024 0.0
O462 O 0.88034 0.73215 0.36688 0.0
O463 O 0.87728 0.70174 0.34211 0.0
O464 O 0.90274 0.72925 0.41915 0.0
O465 O 0.90339 0.76632 0.40259 0.0
O466 O 0.88311 0.77948 0.34912 0.0
O467 O 0.91643 0.78769 0.3169 0.0
O468 O 0.93191 0.73909 0.35607 0.0
O469 O 0.94014 0.77391 0.36694 0.0
O470 O 0.91498 0.74094 0.30356 0.0
O471 O 0.92287 0.70827 0.32419 0.0
H472 H 0.88988 0.69372 0.45256 0.0
H473 H 0.88485 0.67928 0.5077 0.0
H474 H 0.89919 0.61472 0.47154 0.0
H475 H 0.90587 0.6303 0.41584 0.0
H476 H 0.86122 0.81372 0.31749 0.0
H477 H 0.84077 0.81369 0.2712 0.0
H478 H 0.88062 0.76711 0.22225 0.0
H479 H 0.90043 0.76712 0.26801 0.0
Tb480 Tb 0.54166 0.62438 0.67724 0.0
Tb481 Tb 0.52012 0.62907 0.61343 0.0
C482 C 0.55287 0.635 0.73247 0.0
C483 C 0.55885 0.64169 0.76563 0.0
C484 C 0.54506 0.65362 0.78708 0.0
C485 C 0.55088 0.66073 0.81756 0.0
C486 C 0.5709 0.65642 0.82812 0.0
C487 C 0.58469 0.6444 0.80639 0.0
C488 C 0.57874 0.63713 0.77592 0.0
C489 C 0.53355 0.58673 0.64328 0.0
C490 C 0.48763 0.6174 0.68275 0.0
C491 C 0.49806 0.6268 0.56597 0.0
C492 C 0.49695 0.638 0.53407 0.0
C493 C 0.5053 0.62938 0.50393 0.0
C494 C 0.50121 0.63791 0.47442 0.0
C495 C 0.48841 0.65526 0.47388 0.0
C496 C 0.4805 0.6641 0.5041 0.0
C497 C 0.48465 0.65566 0.53346 0.0
C498 C 0.54467 0.66725 0.63275 0.0
C499 C 0.57315 0.63048 0.60928 0.0
O500 O 0.53726 0.643 0.72028 0.0
O501 O 0.56208 0.62055 0.71346 0.0
O502 O 0.52196 0.60226 0.64601 0.0
O503 O 0.54836 0.5906 0.66339 0.0
O504 O 0.50509 0.61353 0.696 0.0
O505 O 0.48975 0.62445 0.65216 0.0
O506 O 0.51403 0.615 0.56792 0.0
O507 O 0.49374 0.63818 0.59243 0.0
O508 O 0.53288 0.65049 0.65029 0.0
O509 O 0.54061 0.66389 0.60347 0.0
O510 O 0.55455 0.62281 0.59548 0.0
O511 O 0.57187 0.63586 0.64032 0.0
H512 H 0.52959 0.65755 0.78032 0.0
H513 H 0.53935 0.66956 0.83279 0.0
H514 H 0.60051 0.6409 0.8124 0.0
H515 H 0.59002 0.62823 0.76014 0.0
H516 H 0.51459 0.61563 0.50314 0.0
H517 H 0.50802 0.6307 0.45199 0.0
H518 H 0.47025 0.67708 0.50539 0.0
H519 H 0.47743 0.66256 0.55594 0.0
Tb520 Tb 0.00293 0.35614 0.15619 0.0
Tb521 Tb 0.04788 0.38126 0.17121 0.0
C522 C 0.96442 0.34615 0.13869 0.0
C523 C 0.96104 0.34055 0.10514 0.0
C524 C 0.96527 0.35831 0.08165 0.0
C525 C 0.97037 0.35383 0.04885 0.0
C526 C 0.97058 0.33138 0.03875 0.0
C527 C 0.96388 0.31332 0.06198 0.0
C528 C 0.95916 0.31786 0.0949 0.0
C529 C 0.03218 0.33062 0.1659 0.0
C530 C 0.04654 0.35975 0.10145 0.0
C531 C 0.08429 0.3991 0.19191 0.0
C532 C 0.09521 0.39516 0.21943 0.0
C533 C 0.08271 0.3809 0.24564 0.0
C534 C 0.09396 0.37532 0.27006 0.0
C535 C 0.11775 0.38405 0.26864 0.0
C536 C 0.13011 0.39888 0.24292 0.0
C537 C 0.11888 0.40429 0.21827 0.0
C538 C 0.02762 0.40564 0.1366 0.0
C539 C 0.00525 0.36143 0.23112 0.0
O540 O 0.97497 0.36735 0.1426 0.0
O541 O 0.97271 0.33137 0.15373 0.0
O542 O 0.02847 0.34813 0.18024 0.0
O543 O 0.01807 0.3255 0.14513 0.0
O544 O 0.02406 0.35965 0.10752 0.0
O545 O 0.05938 0.36511 0.12476 0.0
O546 O 0.08299 0.38255 0.17105 0.0
O547 O 0.06511 0.40678 0.19856 0.0
O548 O 0.01763 0.39218 0.16036 0.0
O549 O 0.04941 0.40644 0.13358 0.0
O550 O 0.02752 0.37191 0.22175 0.0
O551 O -0.00814 0.35483 0.20899 0.0
H552 H 0.96643 0.37596 0.08865 0.0
H553 H 0.97527 0.36815 1.03162 0.0
H554 H 0.96294 0.29571 0.05484 0.0
H555 H 0.9556 0.30376 0.11238 0.0
H556 H 0.06442 0.37376 0.24699 0.0
H557 H 0.08409 0.36432 0.29019 0.0
H558 H 0.14848 0.40584 0.24158 0.0
H559 H 0.12874 0.41522 0.19802 0.0
Tb560 Tb 0.51757 0.35537 0.4531 0.0
Tb561 Tb 0.50037 0.36394 0.38656 0.0
C562 C 0.52617 0.35482 0.51089 0.0
C563 C 0.53703 0.34592 0.53707 0.0
C564 C 0.54826 0.36151 0.55784 0.0
C565 C 0.55582 0.35399 0.58537 0.0
C566 C 0.5525 0.33044 0.59349 0.0
C567 C 0.54156 0.3148 0.57221 0.0
C568 C 0.53389 0.32238 0.54468 0.0
C569 C 0.49789 0.31994 0.42193 0.0
C570 C 0.46873 0.3686 0.45115 0.0
C571 C 0.48876 0.35237 0.33189 0.0
C572 C 0.48219 0.34438 0.29938 0.0
C573 C 0.48566 0.32303 0.28715 0.0
C574 C 0.47952 0.31526 0.25705 0.0
C575 C 0.4695 0.32842 0.23775 0.0
C576 C 0.46588 0.34975 0.25019 0.0
C577 C 0.47212 0.35756 0.28033 0.0
C578 C 0.51656 0.40146 0.4164 0.0
C579 C 0.55267 0.3574 0.38833 0.0
O580 O 0.53892 0.3689 0.48775 0.0
O581 O 0.50855 0.34144 0.50074 0.0
O582 O 0.49305 0.33914 0.42456 0.0
O583 O 0.51428 0.31919 0.43848 0.0
O584 O 0.48721 0.37102 0.46577 0.0
O585 O 0.46855 0.36095 0.42127 0.0
O586 O 0.49981 0.34089 0.34809 0.0
O587 O 0.48472 0.37115 0.34632 0.0
O588 O 0.52286 0.3825 0.41724 0.0
O589 O 0.50346 0.40064 0.39412 0.0
O590 O 0.53642 0.36099 0.37201 0.0
O591 O 0.54983 0.35529 0.42041 0.0
H592 H 0.55056 0.37976 0.55337 0.0
H593 H 0.56363 0.36689 0.60089 0.0
H594 H 0.53881 0.29654 0.57674 0.0
H595 H 0.52509 0.30974 0.52968 0.0
H596 H 0.49303 0.31209 0.30102 0.0
H597 H 0.48234 0.29861 0.24922 0.0
H598 H 0.45852 0.36073 0.2364 0.0
H599 H 0.46906 0.37404 0.28866 0.0
Tb600 Tb 0.00369 0.62212 0.90697 0.0
Tb601 Tb 0.05051 0.64887 0.92149 0.0
C602 C 0.96329 0.61335 0.89513 0.0
C603 C 0.95294 0.62044 0.86892 0.0
C604 C 0.96711 0.63377 0.84296 0.0
C605 C 0.95808 0.638 0.81565 0.0
C606 C 0.93477 0.62873 0.81386 0.0
C607 C 0.92039 0.61611 0.84052 0.0
C608 C 0.92945 0.61203 0.86802 0.0
C609 C 0.02444 0.59298 0.93214 0.0
C610 C 0.045 0.63906 0.84632 0.0
C611 C 0.09265 0.65942 0.92607 0.0
C612 C 0.10688 0.65846 0.95102 0.0
C613 C 0.09753 0.64594 0.98005 0.0
C614 C 0.1114 0.64491 1.00349 0.0
C615 C 0.13477 0.6565 0.99825 0.0
C616 C 0.14404 0.66898 0.96904 0.0
C617 C 0.13017 0.66989 0.94553 0.0
C618 C 0.02015 0.67294 0.9107 0.0
C619 C 0.0097 0.64 0.97946 0.0
O620 O 0.97063 0.62958 0.91465 0.0
O621 O 0.97836 0.60054 0.88586 0.0
O622 O 0.03203 0.61421 0.92647 0.0
O623 O 0.00516 0.58748 0.92125 0.0
O624 O 0.02289 0.62862 0.85616 0.0
O625 O 0.05845 0.6476 0.86783 0.0
O626 O 0.08253 0.63949 0.91632 0.0
O627 O 0.07883 0.67389 0.93077 0.0
O628 O 0.02427 0.65518 0.89712 0.0
O629 O 0.03443 0.67882 0.93113 0.0
O630 O 0.03251 0.64286 0.97128 0.0
O631 O -0.00436 0.63373 0.95774 0.0
H632 H 0.98537 0.6401 0.84325 0.0
H633 H 0.96966 0.6475 0.79533 0.0
H634 H 0.90228 0.609 0.83983 0.0
H635 H 0.91838 0.60165 0.88797 0.0
H636 H 0.07951 0.63708 0.98461 0.0
H637 H 0.10368 0.63551 1.02603 0.0
H638 H 0.162 0.67799 0.96437 0.0
H639 H 0.1376 0.67955 0.9231 0.0
H640 H 0.08249 0.09274 0.07666 0.0
H641 H 0.11841 0.10107 0.03744 0.0
H642 H 0.14477 0.159 0.09289 0.0
H643 H 0.10928 0.15027 0.13286 0.0
H644 H 0.12041 0.16091 1.03134 0.0
H645 H 0.18215 0.13839 0.07274 0.0
H646 H 0.20155 0.11141 0.09582 0.0
H647 H 0.19873 0.07091 1.01057 0.0
H648 H 0.17896 0.09744 0.98715 0.0
H649 H 0.17729 0.21507 0.88887 0.0
H650 H 0.17674 0.20264 0.94442 0.0
H651 H 0.16685 0.13234 0.91484 0.0
H652 H 0.16682 0.14468 0.85926 0.0
H653 H 0.19045 0.14006 0.96841 0.0
H654 H 0.12282 0.15047 0.93317 0.0
H655 H 0.09257 0.16568 0.91286 0.0
H656 H 0.09493 0.21623 0.98663 0.0
H657 H 0.12613 0.20208 1.00639 0.0
C658 C 0.09644 0.10655 0.08128 0.0
C659 C 0.09299 0.12129 0.10709 0.0
C660 C 0.11712 0.11103 0.05923 0.0
C661 C 0.13417 0.13066 0.0623 0.0
C662 C 0.13196 0.14356 0.09043 0.0
C663 C 0.1115 0.13875 0.11297 0.0
C664 C 0.14733 0.14232 1.03207 0.0
C665 C 0.13628 0.15712 1.01797 0.0
C666 C 0.16704 0.1359 1.01429 0.0
C667 C 0.17889 0.11986 1.02828 0.0
C668 C 0.18543 0.12361 0.05903 0.0
C669 C 0.19656 0.10842 0.07215 0.0
C670 C 0.20133 0.08944 0.0547 0.0
C671 C 0.19502 0.08563 1.02406 0.0
C672 C 0.18389 0.10076 1.01083 0.0
C673 C 0.17564 0.19705 0.894 0.0
C674 C 0.17143 0.18081 0.87 0.0
C675 C 0.17552 0.18998 0.92568 0.0
C676 C 0.17132 0.16657 0.93372 0.0
C677 C 0.17011 0.1505 0.90903 0.0
C678 C 0.17006 0.15758 0.87728 0.0
C679 C 0.16346 0.15882 0.96788 0.0
C680 C 0.17519 0.14464 0.98233 0.0
C681 C 0.14338 0.16465 0.98577 0.0
C682 C 0.1273 0.17553 0.9708 0.0
C683 C 0.11755 0.16536 0.94436 0.0
C684 C 0.10005 0.17366 0.93312 0.0
C685 C 0.09172 0.19179 0.9486 0.0
C686 C 0.10131 0.20208 0.97479 0.0
C687 C 0.11912 0.19413 0.98574 0.0
H688 H 0.07791 0.19797 0.94018 0.0
H689 H 0.20995 0.0777 0.06489 0.0
H690 H 0.12565 0.80208 0.37543 0.0
H691 H 0.11302 0.81507 0.32722 0.0
H692 H 0.11402 0.74933 0.28454 0.0
H693 H 0.12747 0.73659 0.33191 0.0
H694 H 0.12935 0.77844 0.23848 0.0
H695 H 0.06206 0.76966 0.32091 0.0
H696 H 0.03975 0.77623 0.37395 0.0
H697 H 0.05232 0.8481 0.35045 0.0
H698 H 0.0751 0.84203 0.29751 0.0
H699 H 0.06818 0.79315 0.10979 0.0
H700 H 0.07971 0.78038 0.15862 0.0
H701 H 0.0787 0.84645 0.20032 0.0
H702 H 0.06574 0.85891 0.15243 0.0
H703 H 0.06319 0.81709 0.24702 0.0
H704 H 0.13188 0.82555 0.16533 0.0
H705 H 0.15512 0.8186 0.11315 0.0
H706 H 0.13924 0.74642 0.13587 0.0
H707 H 0.11554 0.75293 0.18787 0.0
C708 C 0.12331 0.79035 0.35575 0.0
C709 C 0.12771 0.76816 0.35806 0.0
C710 C 0.1158 0.79778 0.32803 0.0
C711 C 0.112 0.78318 0.30173 0.0
C712 C 0.1167 0.76114 0.30398 0.0
C713 C 0.12439 0.75379 0.33146 0.0
C714 C 0.10345 0.79066 0.27188 0.0
C715 C 0.11466 0.78662 0.24061 0.0
C716 C 0.08448 0.8018 0.27373 0.0
C717 C 0.0705 0.80542 0.30537 0.0
C718 C 0.06019 0.78689 0.32713 0.0
C719 C 0.04745 0.79052 0.35718 0.0
C720 C 0.04467 0.81259 0.36559 0.0
C721 C 0.05453 0.83103 0.34392 0.0
C722 C 0.06737 0.82751 0.31389 0.0
C723 C 0.07004 0.80504 0.12934 0.0
C724 C 0.06595 0.82734 0.12622 0.0
C725 C 0.07712 0.79773 0.15745 0.0
C726 C 0.08082 0.81245 0.1836 0.0
C727 C 0.07631 0.83454 0.18086 0.0
C728 C 0.06906 0.84182 0.15288 0.0
C729 C 0.08918 0.80496 0.21365 0.0
C730 C 0.07789 0.80894 0.24494 0.0
C731 C 0.10801 0.79365 0.21187 0.0
C732 C 0.12189 0.78971 0.18039 0.0
C733 C 0.13322 0.80819 0.15906 0.0
C734 C 0.14646 0.80433 0.12952 0.0
C735 C 0.14863 0.78208 0.12117 0.0
C736 C 0.13753 0.76364 0.14233 0.0
C737 C 0.12421 0.7674 0.17183 0.0
H738 H 0.15892 0.77914 0.09832 0.0
H739 H 0.03487 0.81544 0.38887 0.0
H740 H 0.37682 0.80763 0.28993 0.0
H741 H 0.37055 0.81477 0.34778 0.0
H742 H 0.39302 0.88754 0.32767 0.0
H743 H 0.39954 0.88038 0.26935 0.0
H744 H 0.41702 0.87389 0.36761 0.0
H745 H 0.33662 0.86435 0.36589 0.0
H746 H 0.29836 0.84666 0.35242 0.0
H747 H 0.29828 0.78511 0.40463 0.0
H748 H 0.33663 0.80236 0.41828 0.0
H749 H 0.41532 0.88223 0.53534 0.0
H750 H 0.40133 0.88798 0.48482 0.0
H751 H 0.38206 0.81471 0.47534 0.0
H752 H 0.39584 0.80899 0.5259 0.0
H753 H 0.35183 0.8368 0.45227 0.0
H754 H 0.43503 0.84384 0.44355 0.0
H755 H 0.47361 0.8608 0.45663 0.0
H756 H 0.46872 0.92661 0.42152 0.0
H757 H 0.42983 0.91013 0.40897 0.0
C758 C 0.37983 0.8252 0.29776 0.0
C759 C 0.38877 0.84347 0.27522 0.0
C760 C 0.3761 0.82928 0.33088 0.0
C761 C 0.38109 0.85172 0.34207 0.0
C762 C 0.38898 0.8701 0.31951 0.0
C763 C 0.39281 0.86601 0.2863 0.0
C764 C 0.38144 0.85543 0.37707 0.0
C765 C 0.4025 0.86642 0.38616 0.0
C766 C 0.36267 0.84522 0.40121 0.0
C767 C 0.33956 0.83468 0.39308 0.0
C768 C 0.3285 0.84702 0.37442 0.0
C769 C 0.30675 0.83709 0.36685 0.0
C770 C 0.29586 0.81481 0.37775 0.0
C771 C 0.3067 0.8024 0.39629 0.0
C772 C 0.32842 0.81228 0.40406 0.0
C773 C 0.40769 0.86744 0.52269 0.0
C774 C 0.40695 0.84523 0.53416 0.0
C775 C 0.39962 0.8707 0.49401 0.0
C776 C 0.39099 0.85176 0.47616 0.0
C777 C 0.38862 0.82955 0.48883 0.0
C778 C 0.39654 0.8263 0.51766 0.0
C779 C 0.38749 0.8548 0.44244 0.0
C780 C 0.36599 0.84495 0.43367 0.0
C781 C 0.40589 0.86598 0.41844 0.0
C782 C 0.42937 0.87583 0.42577 0.0
C783 C 0.44208 0.86197 0.43891 0.0
C784 C 0.46401 0.8715 0.44623 0.0
C785 C 0.47357 0.89479 0.44004 0.0
C786 C 0.46127 0.90858 0.42636 0.0
C787 C 0.43925 0.89917 0.41924 0.0
H788 H 0.49054 0.90214 0.44575 0.0
H789 H 0.27907 0.80714 0.37174 0.0
H790 H 0.40988 0.23541 0.73115 0.0
H791 H 0.42607 0.22362 0.67699 0.0
H792 H 0.45451 0.17373 0.7216 0.0
H793 H 0.43855 0.18513 0.77496 0.0
H794 H 0.48628 0.19648 0.673 0.0
H795 H 0.40552 0.15777 0.68629 0.0
H796 H 0.36356 0.15674 0.69633 0.0
H797 H 0.37149 0.20095 0.61299 0.0
H798 H 0.41358 0.2024 0.60263 0.0
H799 H 0.52019 0.13115 0.53611 0.0
H800 H 0.5041 0.14498 0.58853 0.0
H801 H 0.46203 0.17966 0.54044 0.0
H802 H 0.47655 0.1641 0.4889 0.0
H803 H 0.43728 0.16681 0.59089 0.0
H804 H 0.51751 0.20635 0.57613 0.0
H805 H 0.55994 0.21023 0.56702 0.0
H806 H 0.55424 0.16841 0.65219 0.0
H807 H 0.5118 0.16426 0.66175 0.0
C808 C 0.41947 0.22186 0.7294 0.0
C809 C 0.42257 0.21117 0.75781 0.0
C810 C 0.42876 0.21507 0.69832 0.0
C811 C 0.4416 0.1976 0.69482 0.0
C812 C 0.44481 0.18721 0.72321 0.0
C813 C 0.4354 0.19373 0.75398 0.0
C814 C 0.45169 0.18979 0.66204 0.0
C815 C 0.47552 0.18988 0.65509 0.0
C816 C 0.43801 0.18159 0.63806 0.0
C817 C 0.41269 0.18034 0.64384 0.0
C818 C 0.39832 0.16735 0.67019 0.0
C819 C 0.37453 0.16668 0.67593 0.0
C820 C 0.36488 0.17879 0.65533 0.0
C821 C 0.379 0.19157 0.62891 0.0
C822 C 0.40282 0.19229 0.62306 0.0
C823 C 0.50749 0.14171 0.53682 0.0
C824 C 0.49969 0.14641 0.50814 0.0
C825 C 0.49839 0.14996 0.56694 0.0
C826 C 0.48199 0.16411 0.56918 0.0
C827 C 0.47445 0.16884 0.54022 0.0
C828 C 0.4829 0.15994 0.51044 0.0
C829 C 0.47221 0.17355 0.60129 0.0
C830 C 0.44831 0.17366 0.60834 0.0
C831 C 0.48597 0.18233 0.6252 0.0
C832 C 0.51147 0.18483 0.61947 0.0
C833 C 0.52531 0.19791 0.59282 0.0
C834 C 0.54937 0.2002 0.58762 0.0
C835 C 0.55978 0.18957 0.609 0.0
C836 C 0.54617 0.17668 0.63568 0.0
C837 C 0.52213 0.17439 0.64103 0.0
H838 H 0.5784 0.19134 0.60493 0.0
H839 H 0.34645 0.17822 0.6598 0.0
H840 H 0.84777 0.75862 0.19695 0.0
H841 H 0.84966 0.76739 0.13973 0.0
H842 H 0.85402 0.83876 0.16083 0.0
H843 H 0.85232 0.83034 0.21798 0.0
H844 H 0.8381 0.82544 0.09928 0.0
H845 H 0.90572 0.82562 0.15639 0.0
H846 H 0.9245 0.80681 0.19367 0.0
H847 H 0.91464 0.74548 0.13854 0.0
H848 H 0.89552 0.76393 0.10127 0.0
H849 H 0.96281 0.87829 1.02004 0.0
H850 H 0.92878 0.86508 0.06108 0.0
H851 H 0.89407 0.82537 0.99002 0.0
H852 H 0.92806 0.839 0.94821 0.0
H853 H 0.91906 0.81553 0.06897 0.0
H854 H 0.83128 0.81935 0.03471 0.0
H855 H 0.81429 0.84255 1.00068 0.0
H856 H 0.86697 0.90171 1.01231 0.0
H857 H 0.88404 0.87896 0.04676 0.0
C858 C 0.84815 0.77607 0.18973 0.0
C859 C 0.85077 0.79391 0.21197 0.0
C860 C 0.84898 0.78099 0.15697 0.0
C861 C 0.85259 0.80378 0.14607 0.0
C862 C 0.85127 0.82104 0.16881 0.0
C863 C 0.8504 0.81615 0.20164 0.0
C864 C 0.86497 0.81042 0.1129 0.0
C865 C 0.85561 0.8229 0.09214 0.0
C866 C 0.8879 0.80732 0.10392 0.0
C867 C 0.89941 0.79615 0.12602 0.0
C868 C 0.90765 0.80815 0.15224 0.0
C869 C 0.9183 0.79757 0.17336 0.0
C870 C 0.92085 0.77501 0.16838 0.0
C871 C 0.91272 0.76298 0.14229 0.0
C872 C 0.90201 0.7735 0.12114 0.0
C873 C 0.94773 0.86731 1.01277 0.0
C874 C 0.94844 0.85898 0.98118 0.0
C875 C 0.92826 0.85986 0.03626 0.0
C876 C 0.90919 0.84397 1.02859 0.0
C877 C 0.9087 0.83763 0.99631 0.0
C878 C 0.92817 0.84539 0.97254 0.0
C879 C 0.8925 0.83108 0.05543 0.0
C880 C 0.9012 0.81733 0.07514 0.0
C881 C 0.86924 0.83338 0.06333 0.0
C882 C 0.85913 0.84735 0.04286 0.0
C883 C 0.83922 0.83732 1.03 0.0
C884 C 0.82956 0.85039 1.01066 0.0
C885 C 0.83962 0.87356 1.0042 0.0
C886 C 0.85929 0.88373 1.01717 0.0
C887 C 0.86899 0.87073 0.03653 0.0
H888 H 0.83212 0.88366 0.98923 0.0
H889 H 0.92904 0.76686 0.18483 0.0
H890 H 0.92375 0.18917 0.69335 0.0
H891 H 0.93717 0.17688 0.74142 0.0
H892 H 0.9325 0.24158 0.78534 0.0
H893 H 0.91898 0.25391 0.7375 0.0
H894 H 0.97284 0.22848 0.79559 0.0
H895 H 0.89175 0.19214 0.80609 0.0
H896 H 0.85754 0.16724 0.78958 0.0
H897 H 0.88984 0.10952 0.78888 0.0
H898 H 0.92447 0.13417 0.80508 0.0
H899 H 0.98225 0.19917 0.95902 0.0
H900 H 0.97058 0.21179 0.90991 0.0
H901 H 0.96317 0.1432 0.87412 0.0
H902 H 0.97456 0.13047 0.92321 0.0
H903 H 0.9299 0.15812 0.85818 0.0
H904 H 0.01032 0.19203 0.84622 0.0
H905 H 0.04608 0.21539 0.86109 0.0
H906 H 0.01787 0.2757 0.86052 0.0
H907 H 0.982 0.25271 0.8457 0.0
C908 C 0.92549 0.20085 0.7132 0.0
C909 C 0.91998 0.22261 0.71107 0.0
C910 C 0.93324 0.19374 0.74095 0.0
C911 C 0.93594 0.2081 0.76775 0.0
C912 C 0.93079 0.22997 0.76543 0.0
C913 C 0.92285 0.23701 0.73782 0.0
C914 C 0.94357 0.20024 0.79824 0.0
C915 C 0.96325 0.21319 0.80939 0.0
C916 C 0.93178 0.17987 0.81627 0.0
C917 C 0.91084 0.16508 0.80668 0.0
C918 C 0.89167 0.17418 0.80236 0.0
C919 C 0.87216 0.16009 0.79302 0.0
C920 C 0.87152 0.13681 0.78815 0.0
C921 C 0.89037 0.12757 0.79266 0.0
C922 C 0.90993 0.14159 0.80194 0.0
C923 C 0.97836 0.18667 0.94071 0.0
C924 C 0.97955 0.16358 0.94589 0.0
C925 C 0.97163 0.19402 0.91221 0.0
C926 C 0.96612 0.17873 0.8872 0.0
C927 C 0.96713 0.15566 0.89248 0.0
C928 C 0.97368 0.14828 0.92103 0.0
C929 C 0.95912 0.18647 0.85599 0.0
C930 C 0.93961 0.1734 0.84449 0.0
C931 C 0.9713 0.20656 0.83739 0.0
C932 C -0.00685 0.22053 0.84562 0.0
C933 C 0.01164 0.21024 0.84955 0.0
C934 C 0.032 0.22344 0.85786 0.0
C935 C 0.03419 0.24699 0.86198 0.0
C936 C 0.01612 0.25744 0.8575 0.0
C937 C -0.00424 0.24433 0.84916 0.0
H938 H 0.04992 0.25714 0.86855 0.0
H939 H 0.8564 0.12594 0.78091 0.0
H940 H 0.65982 0.19101 0.76821 0.0
H941 H 0.66858 0.18197 0.7113 0.0
H942 H 0.62006 0.11705 0.72893 0.0
H943 H 0.61194 0.12548 0.78638 0.0
H944 H 0.65911 0.11147 0.69327 0.0
H945 H 0.60322 0.16045 0.66914 0.0
H946 H 0.58744 0.19557 0.67252 0.0
H947 H 0.65639 0.23694 0.65864 0.0
H948 H 0.67255 0.20201 0.65384 0.0
H949 H 0.61327 0.08972 0.54872 0.0
H950 H 0.62779 0.09312 0.60002 0.0
H951 H 0.68288 0.14929 0.55951 0.0
H952 H 0.66821 0.14637 0.50845 0.0
H953 H 0.6501 0.16185 0.60488 0.0
H954 H 0.6966 0.10615 0.59719 0.0
H955 H 0.70649 0.06859 0.58543 0.0
H956 H 0.65003 0.0365 0.65863 0.0
H957 H 0.63957 0.07381 0.67055 0.0
C958 C 0.65102 0.17476 0.76008 0.0
C959 C 0.63512 0.15899 0.78189 0.0
C960 C 0.65579 0.16979 0.72736 0.0
C961 C 0.64474 0.14899 0.71579 0.0
C962 C 0.62876 0.13324 0.7374 0.0
C963 C 0.62399 0.13818 0.77017 0.0
C964 C 0.65034 0.14325 0.68138 0.0
C965 C 0.65712 0.12241 0.67383 0.0
C966 C 0.64844 0.15784 0.65607 0.0
C967 C 0.63903 0.17873 0.66194 0.0
C968 C 0.61497 0.17706 0.66715 0.0
C969 C 0.60598 0.19689 0.66881 0.0
C970 C 0.62089 0.21846 0.66592 0.0
C971 C 0.64486 0.22023 0.66099 0.0
C972 C 0.65394 0.20044 0.65857 0.0
C973 C 0.62902 0.10217 0.55032 0.0
C974 C 0.63919 0.11815 0.52487 0.0
C975 C 0.63749 0.10392 0.57956 0.0
C976 C 0.65624 0.12166 0.58358 0.0
C977 C 0.66838 0.1355 0.55676 0.0
C978 C 0.65991 0.13378 0.52754 0.0
C979 C 0.65838 0.12978 0.61656 0.0
C980 C 0.6529 0.15112 0.62404 0.0
C981 C 0.66098 0.11536 0.64161 0.0
C982 C 0.66725 0.09283 0.63469 0.0
C983 C 0.68618 0.09108 0.61064 0.0
C984 C 0.69192 0.06982 0.60397 0.0
C985 C 0.67889 0.05017 0.62125 0.0
C986 C 0.66012 0.05174 0.64528 0.0
C987 C 0.65432 0.07296 0.65206 0.0
H988 H 0.68335 0.03372 0.61604 0.0
H989 H 0.61387 0.23378 0.66756 0.0
H990 H 0.58398 0.86145 0.55342 0.0
H991 H 0.59948 0.84868 0.49959 0.0
H992 H 0.53199 0.80845 0.49192 0.0
H993 H 0.51624 0.82167 0.54477 0.0
H994 H 0.57869 0.78689 0.47792 0.0
H995 H 0.53814 0.84452 0.44802 0.0
H996 H 0.52992 0.88331 0.4505 0.0
H997 H 0.60176 0.91236 0.41618 0.0
H998 H 0.61043 0.8737 0.41396 0.0
H999 H 0.5957 0.74702 0.31576 0.0
H1000 H 0.58098 0.76 0.36927 0.0
H1001 H 0.62553 0.82673 0.3468 0.0
H1002 H 0.63837 0.81425 0.29217 0.0
H1003 H 0.59112 0.83541 0.37835 0.0
H1004 H 0.63237 0.77836 0.40436 0.0
H1005 H 0.64155 0.73995 0.4027 0.0
H1006 H 0.57156 0.71026 0.44611 0.0
H1007 H 0.56191 0.74842 0.44787 0.0
C1008 C 0.57238 0.85005 0.54018 0.0
C1009 C 0.54874 0.84285 0.5536 0.0
C1010 C 0.58129 0.84268 0.50936 0.0
C1011 C 0.56696 0.8275 0.4915 0.0
C1012 C 0.54347 0.82012 0.50502 0.0
C1013 C 0.53445 0.82788 0.53533 0.0
C1014 C 0.57627 0.81935 0.45875 0.0
C1015 C 0.58133 0.79742 0.45606 0.0
C1016 C 0.58018 0.83311 0.43019 0.0
C1017 C 0.57497 0.85628 0.43124 0.0
C1018 C 0.55221 0.8592 0.44134 0.0
C1019 C 0.54746 0.88115 0.44262 0.0
C1020 C 0.56532 0.9003 0.43363 0.0
C1021 C 0.58795 0.89752 0.42322 0.0
C1022 C 0.59279 0.87559 0.42192 0.0
C1023 C 0.60241 0.76443 0.32235 0.0
C1024 C 0.61834 0.77952 0.29961 0.0
C1025 C 0.59415 0.77189 0.35335 0.0
C1026 C 0.60243 0.79439 0.36334 0.0
C1027 C 0.61859 0.80933 0.34044 0.0
C1028 C 0.62612 0.80213 0.30903 0.0
C1029 C 0.59392 0.80264 0.39689 0.0
C1030 C 0.58887 0.82471 0.39993 0.0
C1031 C 0.59032 0.78903 0.4259 0.0
C1032 C 0.59637 0.76621 0.42593 0.0
C1033 C 0.61895 0.76363 0.41354 0.0
C1034 C 0.62424 0.7419 0.41261 0.0
C1035 C 0.60715 0.72268 0.42418 0.0
C1036 C 0.5848 0.72516 0.43715 0.0
C1037 C 0.57941 0.74683 0.43817 0.0
H1038 H 0.61118 0.70585 0.42294 0.0
H1039 H 0.56162 0.91728 0.43464 0.0
H1040 H 0.68179 0.73978 0.37038 0.0
H1041 H 0.68073 0.73688 0.42819 0.0
H1042 H 0.69902 0.67094 0.41758 0.0
H1043 H 0.70161 0.67417 0.35891 0.0
H1044 H 0.64456 0.70029 0.44578 0.0
H1045 H 0.71379 0.65799 0.4914 0.0
H1046 H 0.75564 0.6667 0.49369 0.0
H1047 H 0.75836 0.7384 0.47961 0.0
H1048 H 0.71652 0.7301 0.4774 0.0
H1049 H 0.58603 0.6143 0.54951 0.0
H1050 H 0.61894 0.63253 0.50906 0.0
H1051 H 0.64337 0.68049 0.57982 0.0
H1052 H 0.61085 0.66212 0.62066 0.0
H1053 H 0.67978 0.67006 0.53093 0.0
H1054 H 0.60926 0.69913 0.53937 0.0
H1055 H 0.56679 0.69421 0.54463 0.0
H1056 H 0.56747 0.65628 0.45694 0.0
H1057 H 0.60994 0.66104 0.451 0.0
C1058 C 0.68693 0.72515 0.37967 0.0
C1059 C 0.69062 0.70661 0.35981 0.0
C1060 C 0.68643 0.72364 0.41306 0.0
C1061 C 0.68926 0.7035 0.42728 0.0
C1062 C 0.69659 0.68661 0.40715 0.0
C1063 C 0.69751 0.68826 0.37357 0.0
C1064 C 0.67655 0.69655 0.46025 0.0
C1065 C 0.65243 0.69413 0.46457 0.0
C1066 C 0.68672 0.68861 0.48493 0.0
C1067 C 0.71211 0.69338 0.48375 0.0
C1068 C 0.72336 0.67559 0.48859 0.0
C1069 C 0.74706 0.68046 0.49001 0.0
C1070 C 0.75966 0.70309 0.4868 0.0
C1071 C 0.74859 0.72088 0.48206 0.0
C1072 C 0.72491 0.71608 0.48053 0.0
C1073 C 0.59882 0.62825 0.55673 0.0
C1074 C 0.59566 0.63711 0.58794 0.0
C1075 C 0.61762 0.63858 0.53368 0.0
C1076 C 0.63316 0.65814 0.54144 0.0
C1077 C 0.63145 0.6655 0.57345 0.0
C1078 C 0.6128 0.65497 0.5967 0.0
C1079 C 0.64812 0.67299 0.51503 0.0
C1080 C 0.67227 0.67673 0.51215 0.0
C1081 C 0.63813 0.68272 0.49177 0.0
C1082 C 0.61271 0.68041 0.49478 0.0
C1083 C 0.60033 0.68974 0.52123 0.0
C1084 C 0.57629 0.68697 0.52435 0.0
C1085 C 0.56446 0.67486 0.50126 0.0
C1086 C 0.57666 0.66561 0.47484 0.0
C1087 C 0.60071 0.66843 0.4715 0.0
H1088 H 0.54585 0.67274 0.50377 0.0
H1089 H 0.77799 0.70684 0.48793 0.0
H1090 H 0.59657 0.23287 0.85433 0.0
H1091 H 0.58195 0.24437 0.80748 0.0
H1092 H 0.62482 0.31206 0.80923 0.0
H1093 H 0.63725 0.30113 0.85879 0.0
H1094 H 0.59164 0.31949 0.7892 0.0
H1095 H 0.63319 0.25996 0.75038 0.0
H1096 H 0.64086 0.22112 0.75268 0.0
H1097 H 0.57098 0.19204 0.74032 0.0
H1098 H 0.56275 0.2307 0.7386 0.0
H1099 H 0.5889 0.35125 0.625 0.0
H1100 H 0.59997 0.33921 0.67466 0.0
H1101 H 0.54508 0.279 0.68207 0.0
H1102 H 0.53346 0.29115 0.63271 0.0
H1103 H 0.5827 0.26726 0.69715 0.0
H1104 H 0.54232 0.32672 0.73246 0.0
H1105 H 0.53395 0.36539 0.73177 0.0
H1106 H 0.60251 0.39476 0.74964 0.0
H1107 H 0.61138 0.35627 0.75002 0.0
C1108 C 0.60283 0.25028 0.84491 0.0
C1109 C 0.61824 0.26596 0.86069 0.0
C1110 C 0.59468 0.25687 0.81736 0.0
C1111 C 0.60268 0.27907 0.80299 0.0
C1112 C 0.61813 0.29477 0.81896 0.0
C1113 C 0.62548 0.28845 0.84746 0.0
C1114 C 0.59498 0.28604 0.77192 0.0
C1115 C 0.59023 0.30805 0.769 0.0
C1116 C 0.59204 0.27131 0.74511 0.0
C1117 C 0.59731 0.24818 0.74471 0.0
C1118 C 0.61945 0.24526 0.74828 0.0
C1119 C 0.62383 0.22325 0.74971 0.0
C1120 C 0.60627 0.20407 0.74726 0.0
C1121 C 0.58442 0.20689 0.74282 0.0
C1122 C 0.57991 0.22883 0.74147 0.0
C1123 C 0.5788 0.33558 0.63717 0.0
C1124 C 0.55997 0.32247 0.62411 0.0
C1125 C 0.58531 0.3286 0.66592 0.0
C1126 C 0.57331 0.30819 0.68303 0.0
C1127 C 0.55482 0.29481 0.6698 0.0
C1128 C 0.54821 0.30182 0.64111 0.0
C1129 C 0.58011 0.3008 0.71434 0.0
C1130 C 0.58446 0.27871 0.71731 0.0
C1131 C 0.58292 0.31552 0.74101 0.0
C1132 C 0.57758 0.33864 0.74094 0.0
C1133 C 0.55566 0.34144 0.73601 0.0
C1134 C 0.55082 0.36332 0.73572 0.0
C1135 C 0.56771 0.38252 0.74057 0.0
C1136 C 0.58945 0.37987 0.74584 0.0
C1137 C 0.59439 0.35803 0.74612 0.0
H1138 H 0.56393 0.39945 0.74033 0.0
H1139 H 0.6096 0.18703 0.74822 0.0
H1140 H -0.0039 0.30043 1.01291 0.0
H1141 H 0.00235 0.28911 0.95619 0.0
H1142 H 0.96781 0.34099 0.93019 0.0
H1143 H 0.96095 0.35192 0.98622 0.0
H1144 H 0.95832 0.27502 0.93284 0.0
H1145 H 0.98823 0.36046 0.88049 0.0
H1146 H 0.02029 0.39435 0.86902 0.0
H1147 H 0.06916 0.35068 0.85084 0.0
H1148 H 0.03738 0.31655 0.86404 0.0
H1149 H 0.89484 0.30647 0.82169 0.0
H1150 H 0.916 0.2978 0.86387 0.0
H1151 H 0.97213 0.28724 0.79002 0.0
H1152 H 0.9513 0.29661 0.74806 0.0
H1153 H 0.98636 0.31942 0.82927 0.0
H1154 H 0.94085 0.24444 0.84187 0.0
H1155 H 0.90625 0.21314 0.8493 0.0
H1156 H 0.88255 0.23871 0.94212 0.0
H1157 H 0.91692 0.2703 0.93521 0.0
C1158 C 0.99017 0.30965 0.99494 0.0
C1159 C 0.97765 0.32681 1.00413 0.0
C1160 C -0.00578 0.30348 0.96255 0.0
C1161 C 0.98615 0.31468 0.93897 0.0
C1162 C 0.97511 0.33283 0.94778 0.0
C1163 C 0.9709 0.33886 0.98003 0.0
C1164 C 0.98268 0.3038 0.90808 0.0
C1165 C 0.96466 0.28432 0.90985 0.0
C1166 C -0.00855 0.31569 0.87821 0.0
C1167 C 0.01062 0.33607 0.87437 0.0
C1168 C 0.00589 0.35814 0.87509 0.0
C1169 C 0.02399 0.37737 0.8682 0.0
C1170 C 0.04681 0.37467 0.85979 0.0
C1171 C 0.05155 0.35273 0.85822 0.0
C1172 C 0.03354 0.33346 0.86571 0.0
C1173 C 0.91157 0.30203 0.81471 0.0
C1174 C 0.92195 0.30288 0.7821 0.0
C1175 C 0.92346 0.29673 0.83861 0.0
C1176 C 0.94556 0.29178 0.8299 0.0
C1177 C 0.95512 0.29105 0.7971 0.0
C1178 C 0.94341 0.29667 0.77333 0.0
C1179 C 0.96031 0.29196 0.85477 0.0
C1180 C 0.98049 0.30924 0.85162 0.0
C1181 C 0.95274 0.2786 0.88377 0.0
C1182 C 0.93177 0.25966 0.88805 0.0
C1183 C 0.92835 0.24337 0.86388 0.0
C1184 C 0.90871 0.22558 0.86799 0.0
C1185 C 0.89225 0.22385 0.89618 0.0
C1186 C 0.89538 0.23998 0.92033 0.0
C1187 C 0.91501 0.25781 0.91636 0.0
H1188 H 0.87704 0.21005 0.89926 0.0
H1189 H 0.06078 0.38956 0.85417 0.0
H1190 H 0.93561 0.681 0.28271 0.0
H1191 H 0.94982 0.6678 0.22954 0.0
H1192 H 0.94383 0.73068 0.18544 0.0
H1193 H 0.92893 0.74396 0.23911 0.0
H1194 H 0.93007 0.69747 0.14828 0.0
H1195 H -0.00192 0.71817 0.19609 0.0
H1196 H 0.02296 0.71871 0.23771 0.0
H1197 H 0.01761 0.64613 0.22955 0.0
H1198 H -0.00753 0.6451 0.18814 0.0
H1199 H 0.03316 0.66532 1.0234 0.0
H1200 H 0.01787 0.6795 0.07542 0.0
H1201 H 0.94893 0.64387 0.06519 0.0
H1202 H 0.96418 0.63079 1.01181 0.0
H1203 H 0.0007 0.66522 0.12979 0.0
H1204 H 0.9065 0.66649 0.11482 0.0
H1205 H 0.88349 0.67304 0.07341 0.0
H1206 H 0.94519 0.70975 1.01314 0.0
H1207 H 0.96838 0.70414 0.05445 0.0
C1208 C 0.9373 0.69221 0.26186 0.0
C1209 C 0.93113 0.71375 0.26566 0.0
C1210 C 0.94566 0.68459 0.23119 0.0
C1211 C 0.94849 0.69829 0.20302 0.0
C1212 C 0.942 0.7197 0.20657 0.0
C1213 C 0.93348 0.72734 0.23741 0.0
C1214 C 0.95778 0.69 0.17012 0.0
C1215 C 0.94552 0.69039 0.14429 0.0
C1216 C 0.97819 0.68102 0.16423 0.0
C1217 C -0.00679 0.68153 0.18923 0.0
C1218 C 0.00207 0.70229 0.20335 0.0
C1219 C 0.01624 0.7027 0.22687 0.0
C1220 C 0.02182 0.68246 0.23633 0.0
C1221 C 0.01326 0.66179 0.22223 0.0
C1222 C -0.00093 0.66129 0.19871 0.0
C1223 C 0.01471 0.66036 1.03211 0.0
C1224 C 3e-05 0.64675 1.01302 0.0
C1225 C 0.00587 0.66856 0.06223 0.0
C1226 C 0.98198 0.66326 0.07487 0.0
C1227 C 0.96731 0.64902 0.0562 0.0
C1228 C 0.97613 0.64121 1.0256 0.0
C1229 C 0.97291 0.67247 0.10749 0.0
C1230 C 0.98519 0.67219 0.13351 0.0
C1231 C 0.95276 0.682 0.11333 0.0
C1232 C 0.93922 0.68462 0.08755 0.0
C1233 C 0.91514 0.67596 0.09266 0.0
C1234 C 0.90203 0.67962 0.06928 0.0
C1235 C 0.91281 0.69191 0.04067 0.0
C1236 C 0.93676 0.7004 0.03531 0.0
C1237 C 0.94993 0.69696 0.0587 0.0
H1238 H 0.90252 0.69489 1.02283 0.0
H1239 H 0.03281 0.68281 0.25453 0.0
H1240 H 0.45952 0.40813 0.47657 0.0
H1241 H 0.42931 0.411 0.52272 0.0
H1242 H 0.40143 0.33837 0.5188 0.0
H1243 H 0.43058 0.33596 0.47129 0.0
H1244 H 0.36868 0.35774 0.54877 0.0
H1245 H 0.4487 0.35903 0.55732 0.0
H1246 H 0.49093 0.37393 0.54694 0.0
H1247 H 0.4815 0.43859 0.58625 0.0
H1248 H 0.43909 0.42408 0.59663 0.0
H1249 H 0.36958 0.30211 0.69407 0.0
H1250 H 0.36925 0.31939 0.64175 0.0
H1251 H 0.38282 0.38665 0.68239 0.0
H1252 H 0.38424 0.36944 0.73457 0.0
H1253 H 0.41576 0.38188 0.63513 0.0
H1254 H 0.33382 0.36763 0.64579 0.0
H1255 H 0.29392 0.34494 0.65981 0.0
H1256 H 0.30886 0.29644 0.58721 0.0
H1257 H 0.34894 0.31861 0.57305 0.0
C1258 C 0.44614 0.39311 0.48465 0.0
C1259 C 0.44723 0.37181 0.4709 0.0
C1260 C 0.42896 0.39471 0.511 0.0
C1261 C 0.41362 0.37476 0.52488 0.0
C1262 C 0.41312 0.35398 0.50866 0.0
C1263 C 0.42983 0.35255 0.48161 0.0
C1264 C 0.40221 0.37421 0.55923 0.0
C1265 C 0.37881 0.36322 0.56778 0.0
C1266 C 0.41539 0.38161 0.58405 0.0
C1267 C 0.44078 0.39062 0.57728 0.0
C1268 C 0.45564 0.37649 0.56347 0.0
C1269 C 0.47959 0.38485 0.55759 0.0
C1270 C 0.48891 0.40721 0.56574 0.0
C1271 C 0.47427 0.4213 0.57979 0.0
C1272 C 0.45026 0.41303 0.58568 0.0
C1273 C 0.37208 0.32055 0.69203 0.0
C1274 C 0.37751 0.33444 0.71819 0.0
C1275 C 0.37143 0.33043 0.66222 0.0
C1276 C 0.3759 0.35435 0.65815 0.0
C1277 C 0.37919 0.36815 0.68507 0.0
C1278 C 0.38001 0.35827 0.71488 0.0
C1279 C 0.38238 0.36461 0.62493 0.0
C1280 C 0.40507 0.37741 0.61646 0.0
C1281 C 0.36875 0.35803 0.60043 0.0
C1282 C 0.34445 0.34486 0.60833 0.0
C1283 C 0.32864 0.35209 0.63287 0.0
C1284 C 0.30597 0.33931 0.64085 0.0
C1285 C 0.29886 0.31927 0.62441 0.0
C1286 C 0.31438 0.312 0.59988 0.0
C1287 C 0.33706 0.32471 0.5918 0.0
H1288 H 0.28132 0.30937 0.63067 0.0
H1289 H 0.50748 0.41349 0.56137 0.0
H1290 H 0.48303 0.69861 0.4574 0.0
H1291 H 0.47157 0.71137 0.40843 0.0
H1292 H 0.46946 0.64434 0.36867 0.0
H1293 H 0.4805 0.6312 0.41793 0.0
H1294 H 0.4887 0.67679 0.32147 0.0
H1295 H 0.41921 0.66321 0.40148 0.0
H1296 H 0.39528 0.66772 0.45414 0.0
H1297 H 0.4065 0.74008 0.43504 0.0
H1298 H 0.43077 0.73606 0.38244 0.0
H1299 H 0.4267 0.69102 0.19307 0.0
H1300 H 0.43908 0.67807 0.24144 0.0
H1301 H 0.43664 0.74342 0.28486 0.0
H1302 H 0.42397 0.75633 0.23678 0.0
H1303 H 0.42005 0.71189 0.33012 0.0
H1304 H 0.48917 0.72704 0.25178 0.0
H1305 H 0.51431 0.72449 0.1994 0.0
H1306 H 0.50558 0.65202 0.21518 0.0
H1307 H 0.48017 0.65409 0.26751 0.0
C1308 C 0.47993 0.68634 0.43856 0.0
C1309 C 0.48262 0.66361 0.44245 0.0
C1310 C 0.47338 0.69379 0.41022 0.0
C1311 C 0.46919 0.67887 0.38452 0.0
C1312 C 0.47249 0.65638 0.38783 0.0
C1313 C 0.47897 0.64887 0.41626 0.0
C1314 C 0.46111 0.68658 0.35461 0.0
C1315 C 0.47348 0.68415 0.32346 0.0
C1316 C 0.44162 0.69692 0.35661 0.0
C1317 C 0.42699 0.69936 0.38817 0.0
C1318 C 0.41671 0.68011 0.40862 0.0
C1319 C 0.40307 0.68257 0.43844 0.0
C1320 C 0.39942 0.70418 0.44797 0.0
C1321 C 0.40937 0.72336 0.42765 0.0
C1322 C 0.42305 0.721 0.39782 0.0
C1323 C 0.42866 0.70267 0.21292 0.0
C1324 C 0.42423 0.72483 0.21059 0.0
C1325 C 0.43599 0.69526 0.24069 0.0
C1326 C 0.43929 0.70975 0.26715 0.0
C1327 C 0.43441 0.73173 0.2651 0.0
C1328 C 0.42713 0.73916 0.23733 0.0
C1329 C 0.44758 0.70206 0.29689 0.0
C1330 C 0.43526 0.70451 0.32804 0.0
C1331 C 0.46728 0.69202 0.29488 0.0
C1332 C 0.48255 0.69068 0.26342 0.0
C1333 C 0.49246 0.71053 0.24397 0.0
C1334 C 0.50679 0.70918 0.21431 0.0
C1335 C 0.51146 0.6881 0.20392 0.0
C1336 C 0.5019 0.66834 0.22323 0.0
C1337 C 0.48755 0.66959 0.25291 0.0
H1338 H 0.52252 0.68708 0.18094 0.0
H1339 H 0.38885 0.70605 0.47107 0.0
H1340 H 0.19182 0.69649 0.27204 0.0
H1341 H 0.20103 0.69416 0.21312 0.0
H1342 H 0.16673 0.62279 0.21931 0.0
H1343 H 0.15776 0.62496 0.27854 0.0
H1344 H 0.20451 0.63573 0.16341 0.0
H1345 H 0.13244 0.65482 0.2148 0.0
H1346 H 0.10942 0.67577 0.2539 0.0
H1347 H 0.14856 0.73979 0.20979 0.0
H1348 H 0.17178 0.71915 0.1703 0.0
H1349 H 0.13773 0.62019 0.03536 0.0
H1350 H 0.15599 0.62167 0.08376 0.0
H1351 H 0.18186 0.69446 0.06787 0.0
H1352 H 0.16331 0.69317 1.01981 0.0
H1353 H 0.15454 0.68334 0.12636 0.0
H1354 H 0.21958 0.65995 0.06458 0.0
H1355 H 0.23978 0.63619 1.02636 0.0
H1356 H 0.21169 0.57737 0.08989 0.0
H1357 H 0.19103 0.6007 0.12831 0.0
C1358 C 0.18689 0.68014 0.26086 0.0
C1359 C 0.17362 0.66103 0.27948 0.0
C1360 C 0.19236 0.67877 0.22733 0.0
C1361 C 0.18421 0.6584 0.21201 0.0
C1362 C 0.1732 0.63861 0.23083 0.0
C1363 C 0.16795 0.63991 0.26455 0.0
C1364 C 0.18223 0.65931 0.17739 0.0
C1365 C 0.19364 0.64608 0.1551 0.0
C1366 C 0.16812 0.67297 0.16679 0.0
C1367 C 0.15392 0.68548 0.18985 0.0
C1368 C 0.13614 0.67337 0.21351 0.0
C1369 C 0.12303 0.68517 0.23565 0.0
C1370 C 0.12748 0.70908 0.23422 0.0
C1371 C 0.14505 0.72125 0.21069 0.0
C1372 C 0.15816 0.70952 0.18838 0.0
C1373 C 0.14766 0.63642 0.04192 0.0
C1374 C 0.14891 0.65661 1.02411 0.0
C1375 C 0.15831 0.6372 0.06929 0.0
C1376 C 0.17036 0.65816 0.07922 0.0
C1377 C 0.17276 0.6781 0.0604 0.0
C1378 C 0.1622 0.67733 0.03296 0.0
C1379 C 0.17693 0.65983 0.11182 0.0
C1380 C 0.16602 0.67342 0.13411 0.0
C1381 C 0.19117 0.64617 0.12222 0.0
C1382 C 0.20362 0.63207 0.09925 0.0
C1383 C 0.21755 0.64191 0.0703 0.0
C1384 C 0.22912 0.62852 0.04861 0.0
C1385 C 0.22699 0.60528 0.05567 0.0
C1386 C 0.21332 0.59538 0.08446 0.0
C1387 C 0.20171 0.60869 0.10623 0.0
H1388 H 0.23596 0.59494 0.03884 0.0
H1389 H 0.11724 0.71813 0.25131 0.0
H1390 H 0.14874 0.28179 0.82777 0.0
H1391 H 0.13926 0.29763 0.88152 0.0
H1392 H 0.07224 0.30212 0.86034 0.0
H1393 H 0.08272 0.28845 0.80566 0.0
H1394 H 0.08345 0.33609 0.89312 0.0
H1395 H 0.08874 0.25792 0.90993 0.0
H1396 H 0.11098 0.22753 0.90063 0.0
H1397 H 0.16021 0.26305 0.95752 0.0
H1398 H 0.13935 0.29468 0.96491 0.0
H1399 H 0.02347 0.34339 0.05155 0.0
H1400 H 0.03822 0.32831 0.99988 0.0
H1401 H 0.10674 0.34121 1.02439 0.0
H1402 H 0.09184 0.35585 0.07725 0.0
H1403 H 0.09721 0.29944 0.99181 0.0
H1404 H 0.09738 0.37929 0.96248 0.0
H1405 H 0.07804 0.4121 0.96939 0.0
H1406 H 0.01689 0.37064 0.9415 0.0
H1407 H 0.0361 0.33772 0.934 0.0
C1408 C 0.13196 0.28614 0.83466 0.0
C1409 C 0.11642 0.28357 0.81235 0.0
C1410 C 0.12639 0.29515 0.86571 0.0
C1411 C 0.10454 0.30072 0.87624 0.0
C1412 C 0.08915 0.29814 0.85361 0.0
C1413 C 0.09509 0.29004 0.82219 0.0
C1414 C 0.09745 0.30903 0.91044 0.0
C1415 C 0.08621 0.32764 0.91441 0.0
C1416 C 0.10142 0.29885 0.93921 0.0
C1417 C 0.11261 0.27884 0.93764 0.0
C1418 C 0.10435 0.25932 0.9204 0.0
C1419 C 0.11687 0.242 0.91513 0.0
C1420 C 0.13697 0.24334 0.92853 0.0
C1421 C 0.14466 0.26208 0.9471 0.0
C1422 C 0.13264 0.27986 0.95151 0.0
C1423 C 0.04176 0.34324 0.04619 0.0
C1424 C 0.05642 0.35134 0.06891 0.0
C1425 C 0.05023 0.33454 1.01626 0.0
C1426 C 0.0738 0.33384 1.00737 0.0
C1427 C 0.08851 0.34151 1.03019 0.0
C1428 C 0.07996 0.35012 0.06047 0.0
C1429 C 0.08283 0.32597 0.97387 0.0
C1430 C 0.09437 0.30759 0.97021 0.0
C1431 C 0.07907 0.33613 0.94528 0.0
C1432 C 0.06821 0.35625 0.94721 0.0
C1433 C 0.07992 0.37733 0.95737 0.0
C1434 C 0.069 0.3959 0.96144 0.0
C1435 C 0.0463 0.39349 0.95563 0.0
C1436 C 0.03454 0.37253 0.94563 0.0
C1437 C 0.04549 0.35399 0.94119 0.0
H1438 H 0.03779 0.40782 0.95903 0.0
H1439 H 0.14646 0.22977 0.92474 0.0
H1440 H 0.04671 0.29487 0.13328 0.0
H1441 H 0.07774 0.27696 0.14504 0.0
H1442 H 0.09633 0.32983 0.21281 0.0
H1443 H 0.06387 0.346 0.20395 0.0
H1444 H 0.12817 0.2861 0.15926 0.0
H1445 H 0.0907 0.30739 0.268 0.0
H1446 H 0.06093 0.32642 0.29743 0.0
H1447 H 0.00825 0.28107 0.2559 0.0
H1448 H 0.03782 0.26229 0.22532 0.0
H1449 H 0.04483 0.16848 0.21269 0.0
H1450 H 0.07316 0.19856 0.23228 0.0
H1451 H 0.08185 0.23587 0.14145 0.0
H1452 H 0.05395 0.2051 0.12193 0.0
H1453 H 0.06884 0.23979 0.24335 0.0
H1454 H 0.13122 0.26226 0.11535 0.0
H1455 H 0.15532 0.24135 0.07822 0.0
H1456 H 0.15402 0.19373 0.15507 0.0
H1457 H 0.13035 0.21462 0.19307 0.0
C1458 C 0.05767 0.30278 0.15026 0.0
C1459 C 0.05274 0.32151 0.16815 0.0
C1460 C 0.07576 0.29296 0.15639 0.0
C1461 C 0.08913 0.30199 0.18017 0.0
C1462 C 0.08614 0.32252 0.19465 0.0
C1463 C 0.06751 0.33169 0.18957 0.0
C1464 C 0.09904 0.2859 0.19699 0.0
C1465 C 0.11592 0.27595 0.17839 0.0
C1466 C 0.0845 0.27353 0.22414 0.0
C1467 C 0.06645 0.28339 0.24461 0.0
C1468 C 0.07274 0.30137 0.26543 0.0
C1469 C 0.05594 0.31223 0.28206 0.0
C1470 C 0.03272 0.3049 0.27868 0.0
C1471 C 0.02623 0.28669 0.25858 0.0
C1472 C 0.04301 0.27597 0.24152 0.0
C1473 C 0.05303 0.1829 0.19699 0.0
C1474 C 0.04727 0.18449 0.16609 0.0
C1475 C 0.06938 0.2 0.208 0.0
C1476 C 0.08035 0.21905 0.18795 0.0
C1477 C 0.07428 0.22088 0.15701 0.0
C1478 C 0.05785 0.2037 0.14615 0.0
C1479 C 0.09456 0.23916 0.20094 0.0
C1480 C 0.08281 0.24993 0.22619 0.0
C1481 C 0.1139 0.25214 0.18029 0.0
C1482 C 0.12916 0.24032 0.15739 0.0
C1483 C 0.13642 0.24767 0.1247 0.0
C1484 C 0.14993 0.23568 0.10336 0.0
C1485 C 0.15627 0.21628 0.11429 0.0
C1486 C 0.14916 0.20881 0.14663 0.0
C1487 C 0.1357 0.22073 0.16809 0.0
H1488 H 0.16662 0.20697 0.09768 0.0
H1489 H 0.01977 0.31336 0.29159 0.0
H1490 H 0.94002 0.72012 0.41583 0.0
H1491 H 0.95611 0.72648 0.46557 0.0
H1492 H 0.00634 0.7846 0.41935 0.0
H1493 H 0.98744 0.78055 0.37186 0.0
H1494 H 0.98707 0.72704 0.49162 0.0
H1495 H 0.02726 0.82689 0.46172 0.0
H1496 H 0.01509 0.85934 0.4394 0.0
H1497 H 0.94448 0.82219 0.45555 0.0
H1498 H 0.95623 0.78945 0.4786 0.0
H1499 H 0.0743 0.75583 0.42397 0.0
H1500 H 0.04257 0.77303 0.4492 0.0
H1501 H 0.06405 0.76974 0.54247 0.0
H1502 H 0.09672 0.75358 0.51669 0.0
H1503 H 0.02667 0.80678 0.50837 0.0
H1504 H 0.02026 0.74027 0.57504 0.0
H1505 H 0.04129 0.71183 0.59073 0.0
H1506 H 0.04774 0.68677 0.49375 0.0
H1507 H 0.02677 0.71497 0.47753 0.0
C1508 C 0.95424 0.7344 0.41642 0.0
C1509 C 0.96153 0.75063 0.39081 0.0
C1510 C 0.96355 0.73808 0.44503 0.0
C1511 C 0.98123 0.75735 0.44749 0.0
C1512 C -0.00873 0.77096 0.41943 0.0
C1513 C 0.98104 0.76812 0.39174 0.0
C1514 C 0.99042 0.76271 0.47828 0.0
C1515 C -0.00517 0.74466 0.49592 0.0
C1516 C -0.0005 0.78571 0.4864 0.0
C1517 C -0.00754 0.80574 0.47295 0.0
C1518 C 0.00902 0.82569 0.46141 0.0
C1519 C 0.00224 0.84414 0.4483 0.0
C1520 C 0.97898 0.84291 0.44637 0.0
C1521 C 0.96246 0.82317 0.45736 0.0
C1522 C 0.96915 0.80469 0.47052 0.0
C1523 C 0.07259 0.75945 0.44962 0.0
C1524 C 0.08708 0.75267 0.46876 0.0
C1525 C 0.05486 0.76977 0.46398 0.0
C1526 C 0.05082 0.77237 0.4979 0.0
C1527 C 0.06694 0.76798 0.51639 0.0
C1528 C 0.08522 0.75832 0.50172 0.0
C1529 C 0.02659 0.7712 0.51302 0.0
C1530 C 0.01724 0.78953 0.50523 0.0
C1531 C 0.01262 0.74889 0.51448 0.0
C1532 C 0.02156 0.72943 0.52531 0.0
C1533 C 0.02567 0.7283 0.55732 0.0
C1534 C 0.03773 0.71235 0.56622 0.0
C1535 C 0.04585 0.69756 0.54322 0.0
C1536 C 0.04134 0.69819 0.51155 0.0
C1537 C 0.02922 0.71402 0.50255 0.0
H1538 H 0.05596 0.68588 0.54975 0.0
H1539 H 0.97377 0.85718 0.43612 0.0
H1540 H 0.5633 0.70625 0.59911 0.0
H1541 H 0.59421 0.73656 0.6096 0.0
H1542 H 0.60183 0.69881 0.69356 0.0
H1543 H 0.56962 0.66843 0.68317 0.0
H1544 H 0.60144 0.73666 0.71306 0.0
H1545 H 0.65739 0.7277 0.63135 0.0
H1546 H 0.67771 0.71479 0.58068 0.0
H1547 H 0.64828 0.75743 0.52488 0.0
H1548 H 0.62789 0.77074 0.57495 0.0
H1549 H 0.55607 0.83019 0.69957 0.0
H1550 H 0.59328 0.82044 0.70186 0.0
H1551 H 0.58357 0.77525 0.62164 0.0
H1552 H 0.54787 0.78762 0.61684 0.0
H1553 H 0.63078 0.79239 0.62116 0.0
H1554 H 0.56262 0.75362 0.72958 0.0
H1555 H 0.54408 0.76613 0.78197 0.0
H1556 H 0.60548 0.81734 0.78737 0.0
H1557 H 0.62445 0.80495 0.73521 0.0
C1558 C 0.5718 0.70417 0.61948 0.0
C1559 C 0.56383 0.68511 0.64054 0.0
C1560 C 0.59005 0.72142 0.6252 0.0
C1561 C 0.60124 0.71999 0.65201 0.0
C1562 C 0.59381 0.70038 0.67253 0.0
C1563 C 0.57509 0.68318 0.66698 0.0
C1564 C 0.6161 0.74122 0.66208 0.0
C1565 C 0.60879 0.74887 0.69313 0.0
C1566 C 0.62862 0.75776 0.63803 0.0
C1567 C 0.64133 0.75054 0.60726 0.0
C1568 C 0.65533 0.73446 0.60831 0.0
C1569 C 0.66689 0.72707 0.57963 0.0
C1570 C 0.66433 0.73532 0.5496 0.0
C1571 C 0.65038 0.75117 0.54819 0.0
C1572 C 0.639 0.75885 0.57679 0.0
C1573 C 0.56236 0.81868 0.68194 0.0
C1574 C 0.54936 0.80983 0.65791 0.0
C1575 C 0.58351 0.81289 0.68349 0.0
C1576 C 0.59136 0.79685 0.66232 0.0
C1577 C 0.57827 0.788 0.63807 0.0
C1578 C 0.55755 0.79459 0.6357 0.0
C1579 C 0.61019 0.78568 0.66866 0.0
C1580 C 0.62516 0.78029 0.6415 0.0
C1581 C 0.60601 0.77148 0.69682 0.0
C1582 C 0.59488 0.77841 0.72856 0.0
C1583 C 0.57219 0.76743 0.74211 0.0
C1584 C 0.56161 0.77453 0.7717 0.0
C1585 C 0.57359 0.79255 0.78794 0.0
C1586 C 0.59621 0.80343 0.77471 0.0
C1587 C 0.60692 0.79631 0.74524 0.0
H1588 H 0.56535 0.79807 0.81079 0.0
H1589 H 0.67312 0.72941 0.52743 0.0
H1590 H 0.59523 0.28595 0.96316 0.0
H1591 H 0.57586 0.28686 0.9172 0.0
H1592 H 0.52844 0.22361 0.95209 0.0
H1593 H 0.55048 0.22123 0.99534 0.0
H1594 H 0.55641 0.21591 0.90053 0.0
H1595 H 0.50405 0.27628 0.90964 0.0
H1596 H 0.49832 0.31556 0.92072 0.0
H1597 H 0.5671 0.34321 0.87038 0.0
H1598 H 0.57295 0.30403 0.85858 0.0
H1599 H 0.45691 0.2107 0.87217 0.0
H1600 H 0.49475 0.20256 0.87059 0.0
H1601 H 0.51966 0.24251 0.78142 0.0
H1602 H 0.48093 0.24976 0.78217 0.0
H1603 H 0.52865 0.26729 0.83164 0.0
H1604 H 0.5487 0.20127 0.79683 0.0
H1605 H 0.54954 0.16144 0.7817 0.0
H1606 H 0.5346 0.1405 0.88219 0.0
H1607 H 0.53331 0.17994 0.89801 0.0
C1608 C 0.57978 0.2729 0.96214 0.0
C1609 C 0.57612 0.25201 0.97946 0.0
C1610 C 0.56868 0.27344 0.93543 0.0
C1611 C 0.5515 0.25455 0.92994 0.0
C1612 C 0.54258 0.23778 0.9549 0.0
C1613 C 0.55482 0.23668 0.98025 0.0
C1614 C 0.54745 0.24878 0.8966 0.0
C1615 C 0.54945 0.22675 0.88587 0.0
C1616 C 0.54188 0.26408 0.87527 0.0
C1617 C 0.53921 0.28739 0.88429 0.0
C1618 C 0.51801 0.29079 0.90135 0.0
C1619 C 0.51466 0.313 0.90746 0.0
C1620 C 0.53244 0.33188 0.89658 0.0
C1621 C 0.55345 0.32858 0.87913 0.0
C1622 C 0.55677 0.3064 0.87264 0.0
C1623 C 0.47004 0.21665 0.85124 0.0
C1624 C 0.46649 0.23178 0.82822 0.0
C1625 C 0.49178 0.21165 0.84992 0.0
C1626 C 0.51041 0.22299 0.82674 0.0
C1627 C 0.50563 0.23407 0.79996 0.0
C1628 C 0.48366 0.23874 0.80094 0.0
C1629 C 0.53193 0.23247 0.83948 0.0
C1630 C 0.53524 0.25597 0.84611 0.0
C1631 C 0.54147 0.21817 0.85757 0.0
C1632 C 0.54135 0.19393 0.84857 0.0
C1633 C 0.54561 0.18822 0.81572 0.0
C1634 C 0.54612 0.16565 0.80702 0.0
C1635 C 0.54225 0.14849 0.83096 0.0
C1636 C 0.53773 0.15384 0.86365 0.0
C1637 C 0.53722 0.17638 0.87249 0.0
H1638 H 0.5427 0.13104 0.82418 0.0
H1639 H 0.52985 0.34905 0.90147 0.0
H1640 H 0.95365 0.81228 0.96164 0.0
H1641 H 0.92266 0.782 0.94832 0.0
H1642 H 0.97191 0.75916 0.87468 0.0
H1643 H 0.00178 0.79219 0.8841 0.0
H1644 H 0.92826 0.73973 0.86549 0.0
H1645 H 0.96611 0.75021 0.97009 0.0
H1646 H 0.96891 0.77093 1.02123 0.0
H1647 H 0.89475 0.76057 0.04252 0.0
H1648 H 0.8916 0.73964 0.99163 0.0
H1649 H -0.00126 0.67952 0.86054 0.0
H1650 H 0.96035 0.68723 0.86283 0.0
H1651 H 0.95148 0.6842 0.9681 0.0
H1652 H 0.99037 0.67901 0.96476 0.0
H1653 H 0.92205 0.69912 0.96951 0.0
H1654 H 0.89942 0.66358 0.89683 0.0
H1655 H 0.87884 0.64142 0.8568 0.0
H1656 H 0.90956 0.69415 0.78429 0.0
H1657 H 0.93099 0.71649 0.82327 0.0
C1658 C 0.95737 0.80167 0.94123 0.0
C1659 C 0.97994 0.80428 0.92401 0.0
C1660 C 0.93974 0.7842 0.93381 0.0
C1661 C 0.94522 0.76752 0.91184 0.0
C1662 C 0.96724 0.77158 0.89217 0.0
C1663 C 0.98447 0.79016 0.89794 0.0
C1664 C 0.93163 0.74366 0.91568 0.0
C1665 C 0.92832 0.73084 0.88789 0.0
C1666 C 0.92688 0.7318 0.94612 0.0
C1667 C 0.92863 0.74357 0.97716 0.0
C1668 C 0.95044 0.75231 0.98584 0.0
C1669 C 0.95209 0.76406 1.01473 0.0
C1670 C 0.93203 0.76706 0.03513 0.0
C1671 C 0.91027 0.75817 1.02677 0.0
C1672 C 0.90853 0.74633 0.99796 0.0
C1673 C 0.98844 0.681 0.88403 0.0
C1674 C -0.00237 0.67937 0.91243 0.0
C1675 C 0.96611 0.68503 0.88554 0.0
C1676 C 0.95213 0.68714 0.9157 0.0
C1677 C 0.96125 0.6838 0.94411 0.0
C1678 C 0.98388 0.68081 0.94244 0.0
C1679 C 0.93083 0.69724 0.91759 0.0
C1680 C 0.92424 0.708 0.94653 0.0
C1681 C 0.92627 0.70691 0.8892 0.0
C1682 C 0.91665 0.69212 0.8636 0.0
C1683 C 0.90222 0.67044 0.87227 0.0
C1684 C 0.89023 0.65783 0.8497 0.0
C1685 C 0.89262 0.66652 0.81818 0.0
C1686 C 0.90744 0.68761 0.80891 0.0
C1687 C 0.91957 0.70027 0.8313 0.0
H1688 H 0.88323 0.65676 0.80079 0.0
H1689 H 0.93337 0.77629 0.05736 0.0
H1690 H 0.60256 0.77857 0.16229 0.0
H1691 H 0.59048 0.78137 0.11006 0.0
H1692 H 0.55271 0.7111 0.12227 0.0
H1693 H 0.56781 0.70771 0.17212 0.0
H1694 H 0.57086 0.71471 0.06523 0.0
H1695 H 0.53007 0.77062 0.12933 0.0
H1696 H 0.5303 0.80638 0.15959 0.0
H1697 H 0.57739 0.84443 0.08031 0.0
H1698 H 0.57739 0.80885 0.04968 0.0
H1699 H 0.47881 0.72444 0.12469 0.0
H1700 H 0.51347 0.71681 0.09135 0.0
H1701 H 0.49649 0.74767 1.00804 0.0
H1702 H 0.46091 0.7541 0.0413 0.0
H1703 H 0.5321 0.77555 0.03894 0.0
H1704 H 0.53796 0.71663 0.97579 0.0
H1705 H 0.52915 0.67971 0.94883 0.0
H1706 H 0.53603 0.64417 0.03421 0.0
H1707 H 0.54319 0.68059 0.06251 0.0
C1708 C 0.59157 0.76395 0.15392 0.0
C1709 C 0.58677 0.74294 0.17079 0.0
C1710 C 0.58431 0.76557 0.12409 0.0
C1711 C 0.57068 0.7465 0.11164 0.0
C1712 C 0.56388 0.72601 0.13041 0.0
C1713 C 0.57211 0.72417 0.15938 0.0
C1714 C 0.56307 0.74741 0.07953 0.0
C1715 C 0.56187 0.72782 0.0602 0.0
C1716 C 0.55412 0.76586 0.06931 0.0
C1717 C 0.55408 0.78714 0.08758 0.0
C1718 C 0.54054 0.78663 0.1185 0.0
C1719 C 0.5406 0.80684 0.13567 0.0
C1720 C 0.55395 0.82765 0.12196 0.0
C1721 C 0.56712 0.8283 0.09095 0.0
C1722 C 0.56709 0.80814 0.07367 0.0
C1723 C 0.48206 0.72866 0.09895 0.0
C1724 C 0.46794 0.74047 0.08559 0.0
C1725 C 0.50163 0.72393 0.07956 0.0
C1726 C 0.50796 0.73224 0.04709 0.0
C1727 C 0.49209 0.7413 0.03285 0.0
C1728 C 0.47199 0.74526 0.05204 0.0
C1729 C 0.53299 0.7399 0.03494 0.0
C1730 C 0.5412 0.76241 0.04398 0.0
C1731 C 0.54679 0.72389 0.03735 0.0
C1732 C 0.54193 0.70159 1.02102 0.0
C1733 C 0.53754 0.70096 0.98893 0.0
C1734 C 0.53267 0.68007 0.97344 0.0
C1735 C 0.53242 0.65965 0.9896 0.0
C1736 C 0.53653 0.66003 1.02155 0.0
C1737 C 0.54099 0.68083 0.03735 0.0
H1738 H 0.52885 0.64352 0.97745 0.0
H1739 H 0.55402 0.84327 0.1353 0.0
H1740 H 0.53972 0.19935 0.34684 0.0
H1741 H 0.51392 0.21701 0.3215 0.0
H1742 H 0.45483 0.17025 0.37598 0.0
H1743 H 0.48066 0.15677 0.40592 0.0
H1744 H 0.43936 0.20036 0.37817 0.0
H1745 H 0.51175 0.24878 0.26891 0.0
H1746 H 0.53431 0.23631 0.22071 0.0
H1747 H 0.48868 0.1699 0.22991 0.0
H1748 H 0.46552 0.18209 0.27862 0.0
H1749 H 0.51455 0.28304 0.39768 0.0
H1750 H 0.49724 0.25486 0.36108 0.0
H1751 H 0.44257 0.29129 0.35841 0.0
H1752 H 0.45893 0.31863 0.39664 0.0
H1753 H 0.47788 0.2589 0.29271 0.0
H1754 H 0.40662 0.25539 0.3596 0.0
H1755 H 0.38036 0.26593 0.40651 0.0
H1756 H 0.41584 0.23711 0.47164 0.0
H1757 H 0.44243 0.22663 0.42516 0.0
C1758 C 0.52118 0.19313 0.35341 0.0
C1759 C 0.51214 0.17649 0.37806 0.0
C1760 C 0.50621 0.20266 0.33804 0.0
C1761 C 0.48186 0.19482 0.34579 0.0
C1762 C 0.47322 0.17721 0.36939 0.0
C1763 C 0.4881 0.16904 0.38631 0.0
C1764 C 0.46591 0.20841 0.33525 0.0
C1765 C 0.44753 0.21257 0.35862 0.0
C1766 C 0.47324 0.22336 0.3077 0.0
C1767 C 0.48677 0.21641 0.27759 0.0
C1768 C 0.50621 0.23162 0.26058 0.0
C1769 C 0.51925 0.2245 0.23311 0.0
C1770 C 0.51297 0.20228 0.22202 0.0
C1771 C 0.49356 0.18711 0.2385 0.0
C1772 C 0.48053 0.19408 0.26619 0.0
C1773 C 0.49891 0.28501 0.38921 0.0
C1774 C 0.48802 0.30282 0.39997 0.0
C1775 C 0.48937 0.26936 0.36766 0.0
C1776 C 0.46904 0.2715 0.35623 0.0
C1777 C 0.45842 0.28959 0.36646 0.0
C1778 C 0.46769 0.30499 0.38853 0.0
C1779 C 0.45697 0.25184 0.33984 0.0
C1780 C 0.46909 0.24565 0.31068 0.0
C1781 C 0.44252 0.23439 0.36063 0.0
C1782 C 0.42634 0.24004 0.38887 0.0
C1783 C 0.40875 0.25125 0.38394 0.0
C1784 C 0.39385 0.25726 0.41045 0.0
C1785 C 0.39639 0.25214 0.44203 0.0
C1786 C 0.41383 0.24098 0.44716 0.0
C1787 C 0.42878 0.23494 0.42074 0.0
H1788 H 0.38487 0.25685 0.46252 0.0
H1789 H 0.52315 0.19675 0.20078 0.0
H1790 H 0.04674 0.2214 0.7185 0.0
H1791 H 0.02699 0.21546 0.67174 0.0
H1792 H 0.07955 0.26885 0.61856 0.0
H1793 H 0.09685 0.27689 0.66678 0.0
H1794 H 0.05479 0.26233 0.58282 0.0
H1795 H 0.08096 0.20436 0.62241 0.0
H1796 H 0.08986 0.17766 0.66061 0.0
H1797 H 0.01857 0.14216 0.67762 0.0
H1798 H 0.00927 0.16883 0.63984 0.0
H1799 H 0.95174 0.24076 0.55354 0.0
H1800 H 0.98351 0.22176 0.53266 0.0
H1801 H -0.0022 0.21761 0.63036 0.0
H1802 H 0.96712 0.23731 0.65038 0.0
H1803 H 0.01461 0.18082 0.58453 0.0
H1804 H 0.02338 0.27914 0.56453 0.0
H1805 H 0.01933 0.30368 0.5196 0.0
H1806 H 0.03273 0.2519 0.45149 0.0
H1807 H 0.03661 0.22696 0.49608 0.0
C1808 C 0.05338 0.2326 0.69728 0.0
C1809 C 0.07429 0.24864 0.69536 0.0
C1810 C 0.04263 0.22866 0.67008 0.0
C1811 C 0.05378 0.23944 0.64015 0.0
C1812 C 0.07174 0.25873 0.64039 0.0
C1813 C 0.08166 0.26354 0.66827 0.0
C1814 C 0.04726 0.22971 0.60926 0.0
C1815 C 0.04646 0.24436 0.58351 0.0
C1816 C 0.03914 0.20568 0.60625 0.0
C1817 C 0.04456 0.18854 0.6278 0.0
C1818 C 0.06727 0.19077 0.6341 0.0
C1819 C 0.07233 0.1757 0.65585 0.0
C1820 C 0.05478 0.15818 0.67152 0.0
C1821 C 0.03216 0.15569 0.66536 0.0
C1822 C 0.02703 0.17073 0.64357 0.0
C1823 C 0.96167 0.23542 0.57036 0.0
C1824 C 0.95786 0.24109 0.60326 0.0
C1825 C 0.97946 0.22422 0.5585 0.0
C1826 C -0.00675 0.21822 0.57964 0.0
C1827 C 0.98762 0.22195 0.6132 0.0
C1828 C 0.97038 0.23369 0.62477 0.0
C1829 C 0.01691 0.21502 0.56701 0.0
C1830 C 0.0241 0.19843 0.58389 0.0
C1831 C 0.03273 0.2361 0.56008 0.0
C1832 C 0.03058 0.25133 0.53354 0.0
C1833 C 0.02563 0.27307 0.53995 0.0
C1834 C 0.02318 0.28697 0.51457 0.0
C1835 C 0.02583 0.27939 0.4827 0.0
C1836 C 0.03068 0.25777 0.47617 0.0
C1837 C 0.03288 0.2437 0.5015 0.0
H1838 H 0.02409 0.29025 0.46307 0.0
H1839 H 0.05871 0.14654 0.68841 0.0
H1840 H -0.00679 0.07363 0.10879 0.0
H1841 H -0.00841 0.04327 0.06853 0.0
H1842 H 0.04637 0.01981 0.10445 0.0
H1843 H 0.04804 0.05007 0.14446 0.0
H1844 H 0.05324 0.02161 0.03766 0.0
H1845 H -0.00848 0.99109 0.12505 0.0
H1846 H 0.95591 0.99123 0.16418 0.0
H1847 H 0.91864 -0.00499 0.08569 0.0
H1848 H 0.95414 -0.00478 0.04608 0.0
H1849 H 0.04309 0.91281 0.96287 0.0
H1850 H 0.04511 0.94397 1.00169 0.0
H1851 H 0.98508 0.96182 0.97274 0.0
H1852 H 0.98261 0.93027 0.93488 0.0
H1853 H 0.98089 0.96349 0.0356 0.0
H1854 H 0.04164 0.99376 0.94795 0.0
H1855 H 0.07702 0.99452 0.90797 0.0
H1856 H 0.11587 0.99242 0.98512 0.0
H1857 H 0.08063 0.99133 1.02559 0.0
C1858 C 0.00497 0.06207 0.1079 0.0
C1859 C 0.02074 0.06424 0.12975 0.0
C1860 C 0.00396 0.04464 0.08503 0.0
C1861 C 0.01879 0.0291 0.08349 0.0
C1862 C 0.03476 0.03152 0.10506 0.0
C1863 C 0.0356 0.04876 0.12807 0.0
C1864 C 0.01757 0.01014 0.05977 0.0
C1865 C 0.03749 0.00875 0.03744 0.0
C1866 C -0.00309 0.99362 0.05887 0.0
C1867 C 0.97554 0.99342 0.08262 0.0
C1868 C 0.97578 0.99215 0.11614 0.0
C1869 C 0.95561 0.99213 0.1384 0.0
C1870 C 0.93504 0.9932 0.12743 0.0
C1871 C 0.93459 0.99423 0.09416 0.0
C1872 C 0.95473 0.99428 0.07179 0.0
C1873 C 0.03026 0.9233 0.965 0.0
C1874 C 0.01263 0.91899 0.94594 0.0
C1875 C 0.03154 0.94128 0.98698 0.0
C1876 C 0.01539 0.95556 0.99007 0.0
C1877 C -0.00224 0.95116 0.97098 0.0
C1878 C -0.00357 0.93315 0.94917 0.0
C1879 C 0.01659 0.97488 1.01333 0.0
C1880 C -0.00334 0.97635 0.03565 0.0
C1881 C 0.03721 0.99159 1.01404 0.0
C1882 C 0.05844 0.99222 0.98979 0.0
C1883 C 0.05768 0.99327 0.95639 0.0
C1884 C 0.07772 0.99379 0.93364 0.0
C1885 C 0.09867 0.99345 0.94399 0.0
C1886 C 0.09963 0.99265 0.97713 0.0
C1887 C 0.07963 0.99209 0.99999 0.0
H1888 H 0.11417 0.99387 0.92634 0.0
H1889 H 0.91944 0.99317 0.1447 0.0
H1890 H 0.18192 0.72494 0.35844 0.0
H1891 H 0.21478 0.72332 0.31547 0.0
H1892 H 0.26134 0.76351 0.37322 0.0
H1893 H 0.22831 0.76599 0.41524 0.0
H1894 H 0.2714 0.78119 0.31661 0.0
H1895 H 0.25751 0.70408 0.35602 0.0
H1896 H 0.23566 0.66492 0.37184 0.0
H1897 H 0.22319 0.65321 0.27423 0.0
H1898 H 0.24415 0.69261 0.25802 0.0
H1899 H 0.37456 0.76361 0.20681 0.0
H1900 H 0.34443 0.76668 0.25353 0.0
H1901 H 0.29173 0.73507 0.19855 0.0
H1902 H 0.32157 0.7324 0.15213 0.0
H1903 H 0.28685 0.71295 0.25593 0.0
H1904 H 0.29867 0.7907 0.21779 0.0
H1905 H 0.3186 0.8306 0.20284 0.0
H1906 H 0.33497 0.84076 0.29881 0.0
H1907 H 0.316 0.80059 0.31397 0.0
C1908 C 0.19927 0.73276 0.36229 0.0
C1909 C 0.20268 0.74514 0.39043 0.0
C1910 C 0.21812 0.73194 0.33764 0.0
C1911 C 0.24081 0.74324 0.34089 0.0
C1912 C 0.24415 0.75476 0.3698 0.0
C1913 C 0.2253 0.7559 0.39408 0.0
C1914 C 0.26077 0.74453 0.31351 0.0
C1915 C 0.27501 0.76613 0.30381 0.0
C1916 C 0.26533 0.72507 0.29603 0.0
C1917 C 0.25224 0.70147 0.30588 0.0
C1918 C 0.24982 0.6933 0.338 0.0
C1919 C 0.23757 0.67105 0.34705 0.0
C1920 C 0.22796 0.65663 0.32408 0.0
C1921 C 0.23055 0.66444 0.29203 0.0
C1922 C 0.24255 0.68677 0.28292 0.0
C1923 C 0.35652 0.75823 0.20434 0.0
C1924 C 0.35041 0.74827 0.17552 0.0
C1925 C 0.33928 0.75974 0.23118 0.0
C1926 C 0.31569 0.75102 0.22971 0.0
C1927 C 0.30971 0.74186 0.20047 0.0
C1928 C 0.32681 0.7405 0.17381 0.0
C1929 C 0.29721 0.74956 0.25898 0.0
C1930 C 0.28331 0.72792 0.26903 0.0
C1931 C 0.29303 0.76894 0.27683 0.0
C1932 C 0.30604 0.79254 0.26696 0.0
C1933 C 0.30691 0.80128 0.23554 0.0
C1934 C 0.31797 0.82398 0.22706 0.0
C1935 C 0.32799 0.83822 0.24991 0.0
C1936 C 0.32717 0.82971 0.28118 0.0
C1937 C 0.31637 0.80695 0.28967 0.0
H1938 H 0.33649 0.8558 0.24333 0.0
H1939 H 0.21859 0.63937 0.33109 0.0
H1940 H 0.53949 0.08597 0.4939 0.0
H1941 H 0.53992 0.05028 0.52188 0.0
H1942 H 0.52305 0.01227 0.43768 0.0
H1943 H 0.52251 0.04814 0.40983 0.0
H1944 H 0.49383 0.99405 0.49066 0.0
H1945 H 0.57584 0.01681 0.46294 0.0
H1946 H 0.61436 0.04247 0.45835 0.0
H1947 H 0.60648 0.0461 0.56212 0.0
H1948 H 0.56763 0.02101 0.56736 0.0
H1949 H 0.5082 0.88964 0.57207 0.0
H1950 H 0.50791 0.92044 0.53332 0.0
H1951 H 0.51871 0.97012 0.60777 0.0
H1952 H 0.51863 0.93965 0.64619 0.0
H1953 H 0.55296 0.97915 0.55302 0.0
H1954 H 0.47032 0.96219 0.58087 0.0
H1955 H 0.43025 0.93968 0.58736 0.0
H1956 H 0.43897 0.92626 0.48553 0.0
H1957 H 0.47936 0.94842 0.47842 0.0
C1958 C 0.53699 0.07011 0.48085 0.0
C1959 C 0.53175 0.0699 0.44931 0.0
C1960 C 0.537 0.04962 0.49696 0.0
C1961 C 0.53156 0.02839 0.48198 0.0
C1962 C 0.52735 0.02832 0.44983 0.0
C1963 C 0.52745 0.04887 0.43367 0.0
C1964 C 0.52838 0.00639 0.50087 0.0
C1965 C 0.50702 0.99055 0.50366 0.0
C1966 C 0.54527 0.00193 0.51859 0.0
C1967 C 0.56867 0.01713 0.51552 0.0
C1968 C 0.58219 0.02327 0.48479 0.0
C1969 C 0.6041 0.03772 0.48207 0.0
C1970 C 0.61283 0.04597 0.50992 0.0
C1971 C 0.59967 0.03975 0.54056 0.0
C1972 C 0.57768 0.02543 0.54341 0.0
C1973 C 0.50921 0.90696 0.58054 0.0
C1974 C 0.51298 0.91218 0.61238 0.0
C1975 C 0.50944 0.92464 0.55824 0.0
C1976 C 0.51365 0.94773 0.56747 0.0
C1977 C 0.51565 0.95256 0.59991 0.0
C1978 C 0.51529 0.93504 0.62201 0.0
C1979 C 0.5183 0.96717 0.54328 0.0
C1980 C 0.53998 0.98248 0.53949 0.0
C1981 C 0.50168 0.97119 0.52484 0.0
C1982 C 0.47796 0.95673 0.5292 0.0
C1983 C 0.46386 0.95411 0.55993 0.0
C1984 C 0.44107 0.9415 0.56369 0.0
C1985 C 0.43211 0.93158 0.53684 0.0
C1986 C 0.44601 0.93396 0.50624 0.0
C1987 C 0.46885 0.94654 0.50234 0.0
H1988 H 0.41432 0.92219 0.53972 0.0
H1989 H 0.62981 0.05714 0.50775 0.0
H1990 H 0.34133 0.19686 0.80413 0.0
H1991 H 0.30851 0.2063 0.78371 0.0
H1992 H 0.31143 0.26485 0.84541 0.0
H1993 H 0.34326 0.25428 0.86781 0.0
H1994 H 0.26873 0.24684 0.84482 0.0
H1995 H 0.33392 0.26844 0.76143 0.0
H1996 H 0.36849 0.26325 0.72352 0.0
H1997 H 0.3263 0.21146 0.67458 0.0
H1998 H 0.29154 0.21569 0.7129 0.0
H1999 H 0.19877 0.29926 0.76108 0.0
H2000 H 0.23241 0.29137 0.78109 0.0
H2001 H 0.22521 0.22751 0.73078 0.0
H2002 H 0.19231 0.23618 0.7088 0.0
H2003 H 0.27039 0.24966 0.72583 0.0
H2004 H 0.20351 0.23359 0.81236 0.0
H2005 H 0.17153 0.24655 0.84739 0.0
H2006 H 0.22036 0.29557 0.89038 0.0
H2007 H 0.25267 0.28422 0.85413 0.0
C2008 C 0.33495 0.21172 0.81345 0.0
C2009 C 0.3454 0.22528 0.83683 0.0
C2010 C 0.31625 0.21723 0.80154 0.0
C2011 C 0.30781 0.23673 0.81218 0.0
C2012 C 0.31775 0.2499 0.83638 0.0
C2013 C 0.33623 0.24409 0.84881 0.0
C2014 C 0.28869 0.24328 0.79792 0.0
C2015 C 0.26924 0.24768 0.81879 0.0
C2016 C 0.28924 0.24446 0.76389 0.0
C2017 C 0.3101 0.24222 0.74031 0.0
C2018 C 0.33201 0.2558 0.74276 0.0
C2019 C 0.35166 0.25301 0.72122 0.0
C2020 C 0.34961 0.237 0.6967 0.0
C2021 C 0.32788 0.22378 0.69366 0.0
C2022 C 0.3082 0.22633 0.71533 0.0
C2023 C 0.20437 0.28355 0.75414 0.0
C2024 C 0.19245 0.268 0.73408 0.0
C2025 C 0.22359 0.27903 0.76572 0.0
C2026 C 0.23103 0.25855 0.75821 0.0
C2027 C 0.21962 0.24329 0.7373 0.0
C2028 C 0.20058 0.24805 0.72515 0.0
C2029 C 0.25038 0.2529 0.77271 0.0
C2030 C 0.26989 0.24869 0.75185 0.0
C2031 C 0.25017 0.25266 0.80673 0.0
C2032 C 0.23061 0.25817 0.83018 0.0
C2033 C 0.20749 0.24724 0.82911 0.0
C2034 C 0.18928 0.25439 0.84905 0.0
C2035 C 0.19391 0.27173 0.87115 0.0
C2036 C 0.21679 0.2821 0.87325 0.0
C2037 C 0.23507 0.27546 0.85282 0.0
H2038 H 0.17977 0.27719 0.88656 0.0
H2039 H 0.36485 0.23487 0.68004 0.0
H2040 H 0.6725 0.23811 0.85065 0.0
H2041 H 0.70495 0.23388 0.80861 0.0
H2042 H 0.74721 0.23196 0.88227 0.0
H2043 H 0.71443 0.23581 0.92443 0.0
H2044 H 0.76909 0.26344 0.83657 0.0
H2045 H 0.73065 0.18652 0.8383 0.0
H2046 H 0.70186 0.15077 0.83539 0.0
H2047 H 0.7006 0.16631 0.73579 0.0
H2048 H 0.72804 0.20294 0.73864 0.0
H2049 H 0.85806 0.22156 0.72164 0.0
H2050 H 0.8271 0.22468 0.76668 0.0
H2051 H 0.79493 0.25918 0.70285 0.0
H2052 H 0.82659 0.25688 0.65772 0.0
H2053 H 0.76943 0.21071 0.7443 0.0
H2054 H 0.80703 0.29127 0.74875 0.0
H2055 H 0.84013 0.32294 0.75338 0.0
H2056 H 0.84742 0.29398 0.84372 0.0
H2057 H 0.81448 0.26199 0.83946 0.0
C2058 C 0.68843 0.23579 0.85793 0.0
C2059 C 0.69072 0.23662 0.89089 0.0
C2060 C 0.70708 0.23354 0.83383 0.0
C2061 C 0.72872 0.23265 0.84204 0.0
C2062 C 0.73076 0.23259 0.87516 0.0
C2063 C 0.71192 0.23444 0.89935 0.0
C2064 C 0.74954 0.23388 0.81602 0.0
C2065 C 0.76908 0.2517 0.8166 0.0
C2066 C 0.74978 0.21873 0.78961 0.0
C2067 C 0.73127 0.19781 0.78887 0.0
C2068 C 0.72371 0.18274 0.81604 0.0
C2069 C 0.70762 0.16224 0.81438 0.0
C2070 C 0.69922 0.15635 0.7855 0.0
C2071 C 0.70678 0.17105 0.75831 0.0
C2072 C 0.72249 0.19178 0.76001 0.0
C2073 C 0.84469 0.23035 0.71739 0.0
C2074 C 0.84474 0.23903 0.68619 0.0
C2075 C 0.82701 0.2321 0.74317 0.0
C2076 C 0.80865 0.24211 0.7382 0.0
C2077 C 0.809 0.25149 0.70728 0.0
C2078 C 0.82712 0.25028 0.68157 0.0
C2079 C 0.78817 0.24059 0.7645 0.0
C2080 C 0.76896 0.22254 0.76414 0.0
C2081 C 0.78837 0.25515 0.79135 0.0
C2082 C 0.80842 0.27413 0.79362 0.0
C2083 C 0.81584 0.29152 0.76942 0.0
C2084 C 0.83447 0.30961 0.77209 0.0
C2085 C 0.8458 0.31053 0.7989 0.0
C2086 C 0.83857 0.2933 0.82304 0.0
C2087 C 0.8199 0.2752 0.82052 0.0
H2088 H 0.86026 0.32452 0.80087 0.0
H2089 H 0.6869 0.1404 0.78417 0.0
H2090 H 0.84154 0.75021 0.36782 0.0
H2091 H 0.81045 0.75907 0.34188 0.0
H2092 H 0.82486 0.7126 0.26538 0.0
H2093 H 0.85601 0.70379 0.29121 0.0
H2094 H 0.81598 0.75138 0.24126 0.0
H2095 H 0.77984 0.69474 0.32187 0.0
H2096 H 0.76926 0.67515 0.37556 0.0
H2097 H 0.74103 0.73176 0.41541 0.0
H2098 H 0.75154 0.75168 0.36212 0.0
H2099 H 0.70345 0.73889 0.19154 0.0
H2100 H 0.73744 0.73055 0.2111 0.0
H2101 H 0.7344 0.78368 0.28125 0.0
H2102 H 0.7007 0.79222 0.26166 0.0
H2103 H 0.73711 0.73914 0.3063 0.0
H2104 H 0.78041 0.7974 0.22232 0.0
H2105 H 0.78794 0.81293 0.1661 0.0
H2106 H 0.79899 0.74794 0.12992 0.0
H2107 H 0.79183 0.73217 0.18601 0.0
C2108 C 0.83823 0.74212 0.34528 0.0
C2109 C 0.8511 0.72629 0.33155 0.0
C2110 C 0.82039 0.74706 0.33058 0.0
C2111 C 0.81513 0.73628 0.30187 0.0
C2112 C 0.82854 0.72106 0.28755 0.0
C2113 C 0.84622 0.71595 0.30242 0.0
C2114 C 0.79511 0.74029 0.28754 0.0
C2115 C 0.79877 0.74863 0.2554 0.0
C2116 C 0.77247 0.73637 0.30579 0.0
C2117 C 0.76679 0.72483 0.33816 0.0
C2118 C 0.77166 0.70312 0.34223 0.0
C2119 C 0.7656 0.69191 0.37256 0.0
C2120 C 0.7546 0.70222 0.39893 0.0
C2121 C 0.74968 0.7238 0.39508 0.0
C2122 C 0.75562 0.73504 0.36479 0.0
C2123 C 0.71014 0.74881 0.21103 0.0
C2124 C 0.69947 0.76615 0.22517 0.0
C2125 C 0.72957 0.74413 0.22205 0.0
C2126 C 0.73846 0.7566 0.24749 0.0
C2127 C 0.72784 0.77394 0.26151 0.0
C2128 C 0.70865 0.77882 0.25025 0.0
C2129 C 0.75828 0.75107 0.26049 0.0
C2130 C 0.75446 0.7422 0.29228 0.0
C2131 C 0.78062 0.75411 0.24171 0.0
C2132 C 0.7855 0.76363 0.20818 0.0
C2133 C 0.78444 0.78646 0.20232 0.0
C2134 C 0.78866 0.7953 0.17052 0.0
C2135 C 0.79379 0.78139 0.14444 0.0
C2136 C 0.79489 0.75865 0.15013 0.0
C2137 C 0.79092 0.74981 0.18191 0.0
H2138 H 0.79709 0.78827 0.11985 0.0
H2139 H 0.74964 0.69331 0.42217 0.0
H2140 H 0.5024 0.57515 0.60126 0.0
H2141 H 0.49979 0.54345 0.56319 0.0
H2142 H 0.55678 0.52256 0.59677 0.0
H2143 H 0.55959 0.55428 0.63439 0.0
H2144 H 0.53117 0.5339 0.51266 0.0
H2145 H 0.54849 0.46341 0.59415 0.0
H2146 H 0.54142 0.45144 0.65191 0.0
H2147 H 0.48383 0.48471 0.67001 0.0
H2148 H 0.49033 0.49658 0.61231 0.0
H2149 H 0.54655 0.40978 0.46084 0.0
H2150 H 0.55028 0.44106 0.49968 0.0
H2151 H 0.49638 0.46636 0.46409 0.0
H2152 H 0.4929 0.43555 0.42541 0.0
H2153 H 0.52205 0.45323 0.54892 0.0
H2154 H 0.50436 0.52371 0.46773 0.0
H2155 H 0.51068 0.53496 0.40976 0.0
H2156 H 0.56783 0.5011 0.39097 0.0
H2157 H 0.56207 0.48993 0.44887 0.0
C2158 C 0.51444 0.56387 0.60034 0.0
C2159 C 0.53129 0.56731 0.62068 0.0
C2160 C 0.51291 0.54571 0.57864 0.0
C2161 C 0.52797 0.53042 0.57719 0.0
C2162 C 0.54474 0.53385 0.59764 0.0
C2163 C 0.54637 0.55207 0.61911 0.0
C2164 C 0.5265 0.51115 0.55395 0.0
C2165 C 0.52875 0.5162 0.52068 0.0
C2166 C 0.52408 0.48807 0.56416 0.0
C2167 C 0.52014 0.48118 0.59898 0.0
C2168 C 0.53432 0.46817 0.61046 0.0
C2169 C 0.53039 0.46138 0.64318 0.0
C2170 C 0.51225 0.4674 0.66464 0.0
C2171 C 0.49795 0.48017 0.6534 0.0
C2172 C 0.50179 0.48698 0.6207 0.0
C2173 C 0.53549 0.42199 0.46149 0.0
C2174 C 0.51948 0.42019 0.44003 0.0
C2175 C 0.53765 0.43992 0.48361 0.0
C2176 C 0.52393 0.45647 0.48453 0.0
C2177 C 0.50765 0.45431 0.46344 0.0
C2178 C 0.50561 0.43657 0.44132 0.0
C2179 C 0.52624 0.47582 0.50767 0.0
C2180 C 0.5243 0.47086 0.5409 0.0
C2181 C 0.52884 0.49896 0.49745 0.0
C2182 C 0.53262 0.50579 0.4626 0.0
C2183 C 0.51833 0.51874 0.45125 0.0
C2184 C 0.52181 0.52509 0.4184 0.0
C2185 C 0.5396 0.51868 0.39668 0.0
C2186 C 0.554 0.50598 0.40779 0.0
C2187 C 0.55062 0.4996 0.44062 0.0
H2188 H 0.54225 0.5236 0.37126 0.0
H2189 H 0.50924 0.46212 0.68996 0.0
H2190 H 0.01762 0.54777 0.92393 0.0
H2191 H 0.01888 0.51838 0.96313 0.0
H2192 H 0.04898 0.57045 1.02477 0.0
H2193 H 0.04731 0.6004 0.98531 0.0
H2194 H 0.06651 0.52324 1.0162 0.0
H2195 H -0.00061 0.55598 0.04883 0.0
H2196 H 0.96532 0.5701 0.03872 0.0
H2197 H 0.93523 0.50356 1.00717 0.0
H2198 H 0.96938 0.48915 1.01648 0.0
H2199 H 0.03975 0.44955 0.15392 0.0
H2200 H 0.03946 0.48352 0.12188 0.0
H2201 H 0.00015 0.44092 0.05793 0.0
H2202 H 0.00093 0.40671 0.08978 0.0
H2203 H 0.98754 0.48553 0.07071 0.0
H2204 H 0.0533 0.45305 0.0337 0.0
H2205 H 0.08734 0.43733 0.03945 0.0
H2206 H 0.11984 0.50153 0.07538 0.0
H2207 H 0.08576 0.51752 0.07031 0.0
C2208 C 0.02521 0.55304 0.94534 0.0
C2209 C 0.03247 0.57644 0.95142 0.0
C2210 C 0.02578 0.53616 0.96784 0.0
C2211 C 0.03372 0.54215 0.99709 0.0
C2212 C 0.04277 0.56543 1.00231 0.0
C2213 C 0.04205 0.58254 0.97963 0.0
C2214 C 0.03031 0.52398 1.02281 0.0
C2215 C 0.04933 0.51539 1.02875 0.0
C2216 C 0.00777 0.51306 0.03823 0.0
C2217 C 0.98705 0.52155 0.03307 0.0
C2218 C 0.98561 0.54441 0.03945 0.0
C2219 C 0.96627 0.55246 0.03391 0.0
C2220 C 0.94814 0.53775 1.02225 0.0
C2221 C 0.9493 0.51494 1.01618 0.0
C2222 C 0.96864 0.50682 1.0216 0.0
C2223 C 0.03014 0.44752 0.13389 0.0
C2224 C 0.01978 0.42551 0.12489 0.0
C2225 C 0.03024 0.46695 0.11533 0.0
C2226 C 0.01998 0.46483 0.08728 0.0
C2227 C 0.00808 0.44303 0.07956 0.0
C2228 C 0.00822 0.42348 0.09802 0.0
C2229 C 0.02378 0.48497 0.06453 0.0
C2230 C 0.00479 0.4937 0.05877 0.0
C2231 C 0.04632 0.49587 0.04902 0.0
C2232 C 0.06686 0.48639 0.05204 0.0
C2233 C 0.0676 0.46374 0.04315 0.0
C2234 C 0.08691 0.45479 0.04622 0.0
C2235 C 0.10571 0.4684 0.05789 0.0
C2236 C 0.10524 0.491 0.06642 0.0
C2237 C 0.08593 0.50002 0.06344 0.0
H2238 H 0.12066 0.46145 0.06024 0.0
H2239 H 0.93317 0.54401 1.01798 0.0
H2240 H 0.05319 0.18984 0.37461 0.0
H2241 H 0.0648 0.20433 0.42555 0.0
H2242 H 0.10691 0.15411 0.4248 0.0
H2243 H 0.09448 0.13876 0.37477 0.0
H2244 H 0.08781 0.15612 0.48348 0.0
H2245 H 0.12785 0.21771 0.40679 0.0
H2246 H 0.1311 0.24819 0.36578 0.0
H2247 H 0.08564 0.28055 0.43195 0.0
H2248 H 0.08216 0.25027 0.47332 0.0
H2249 H 0.13742 0.19984 0.62329 0.0
H2250 H 0.1291 0.18556 0.57075 0.0
H2251 H 0.1041 0.24639 0.55396 0.0
H2252 H 0.11632 0.26196 0.60342 0.0
H2253 H 0.11549 0.23855 0.50163 0.0
H2254 H 0.06342 0.17084 0.5669 0.0
H2255 H 0.05449 0.13812 0.60607 0.0
H2256 H 0.11683 0.11733 0.56317 0.0
H2257 H 0.12561 0.14946 0.52311 0.0
C2258 C 0.06476 0.18156 0.38516 0.0
C2259 C 0.07268 0.16283 0.36952 0.0
C2260 C 0.0718 0.19027 0.41451 0.0
C2261 C 0.08732 0.18087 0.42965 0.0
C2262 C 0.0951 0.1621 0.41423 0.0
C2263 C 0.08804 0.15334 0.38496 0.0
C2264 C 0.09486 0.18985 0.46173 0.0
C2265 C 0.09403 0.17422 0.48717 0.0
C2266 C 0.10248 0.21349 0.46802 0.0
C2267 C 0.10452 0.23157 0.44301 0.0
C2268 C 0.11843 0.23124 0.41251 0.0
C2269 C 0.12038 0.24853 0.38924 0.0
C2270 C 0.10857 0.26628 0.39625 0.0
C2271 C 0.09478 0.26679 0.42654 0.0
C2272 C 0.09284 0.24959 0.44991 0.0
C2273 C 0.13041 0.21033 0.60821 0.0
C2274 C 0.12725 0.23216 0.61873 0.0
C2275 C 0.12488 0.20174 0.5779 0.0
C2276 C 0.11468 0.21396 0.55727 0.0
C2277 C 0.11185 0.23593 0.568 0.0
C2278 C 0.11857 0.24494 0.59727 0.0
C2279 C 0.10779 0.20486 0.52449 0.0
C2280 C 0.10893 0.22047 0.49857 0.0
C2281 C 0.09986 0.18121 0.51795 0.0
C2282 C 0.09555 0.16293 0.54301 0.0
C2283 C 0.07539 0.15952 0.56638 0.0
C2284 C 0.07026 0.141 0.58848 0.0
C2285 C 0.08532 0.12596 0.58758 0.0
C2286 C 0.10531 0.12914 0.56411 0.0
C2287 C 0.11028 0.14738 0.54155 0.0
H2288 H 0.08135 0.1117 0.60481 0.0
H2289 H 0.11013 0.27967 0.37823 0.0
H2290 H 0.1403 0.85518 0.61615 0.0
H2291 H 0.13599 0.86463 0.67355 0.0
H2292 H 0.1583 0.80331 0.69586 0.0
H2293 H 0.16234 0.79358 0.63835 0.0
H2294 H 0.1184 0.8081 0.73511 0.0
H2295 H 0.19378 0.85393 0.70185 0.0
H2296 H 0.22429 0.8815 0.66693 0.0
H2297 H 0.18526 0.93396 0.68813 0.0
H2298 H 0.15433 0.90663 0.72278 0.0
H2299 H 0.08977 0.84219 0.89316 0.0
H2300 H 0.12087 0.83665 0.84953 0.0
H2301 H 0.10382 0.88698 0.78972 0.0
H2302 H 0.07279 0.8923 0.83286 0.0
H2303 H 0.15135 0.88428 0.77581 0.0
H2304 H 0.07265 0.83554 0.78664 0.0
H2305 H 0.03916 0.80993 0.81963 0.0
H2306 H 0.08299 0.76507 0.839 0.0
H2307 H 0.11677 0.79065 0.80631 0.0
C2308 C 0.14428 0.84372 0.6333 0.0
C2309 C 0.15161 0.82365 0.62288 0.0
C2310 C 0.1421 0.84927 0.66598 0.0
C2311 C 0.14724 0.83486 0.6888 0.0
C2312 C 0.15454 0.81477 0.67851 0.0
C2313 C 0.15686 0.80928 0.64574 0.0
C2314 C 0.1431 0.84004 0.72365 0.0
C2315 C 0.12622 0.82443 0.74429 0.0
C2316 C 0.153 0.86154 0.73543 0.0
C2317 C 0.17169 0.87817 0.71489 0.0
C2318 C 0.19163 0.87131 0.69894 0.0
C2319 C 0.20901 0.88691 0.6792 0.0
C2320 C 0.20671 0.90947 0.6753 0.0
C2321 C 0.18703 0.91649 0.6912 0.0
C2322 C 0.16959 0.90096 0.71095 0.0
C2323 C 0.09344 0.85278 0.87124 0.0
C2324 C 0.07884 0.86739 0.86592 0.0
C2325 C 0.11115 0.84962 0.8464 0.0
C2326 C 0.11436 0.86121 0.81635 0.0
C2327 C 0.10164 0.87792 0.81274 0.0
C2328 C 0.08382 0.88083 0.83728 0.0
C2329 C 0.12644 0.85254 0.78671 0.0
C2330 C 0.14449 0.86753 0.76696 0.0
C2331 C 0.11746 0.83062 0.77543 0.0
C2332 C 0.09715 0.81492 0.79419 0.0
C2333 C 0.07509 0.82018 0.79793 0.0
C2334 C 0.05608 0.80572 0.81658 0.0
C2335 C 0.05894 0.78586 0.83136 0.0
C2336 C 0.0808 0.78043 0.82747 0.0
C2337 C 0.09987 0.79487 0.80886 0.0
H2338 H 0.04422 0.77469 0.84584 0.0
H2339 H 0.22018 0.92151 0.65999 0.0
H2340 H 0.42406 0.74194 1.00068 0.0
H2341 H 0.4399 0.75691 0.94513 0.0
H2342 H 0.43686 0.82524 0.97654 0.0
H2343 H 0.42146 0.81044 1.03207 0.0
H2344 H 0.42224 0.81939 0.91969 0.0
H2345 H 0.48854 0.80811 0.96017 0.0
H2346 H 0.51582 0.78955 0.98264 0.0
H2347 H 0.51628 0.74331 0.90342 0.0
H2348 H 0.48859 0.76125 0.88079 0.0
H2349 H 0.52604 0.85645 0.77187 0.0
H2350 H 0.51143 0.84339 0.82852 0.0
H2351 H 0.44397 0.81645 0.80399 0.0
H2352 H 0.4583 0.82968 0.74783 0.0
H2353 H 0.49537 0.80369 0.85875 0.0
H2354 H 0.40095 0.81573 0.86798 0.0
H2355 H 0.37963 0.84149 0.84603 0.0
H2356 H 0.44132 0.89459 0.82986 0.0
H2357 H 0.46293 0.86926 0.85209 0.0
C2358 C 0.42643 0.76013 0.99578 0.0
C2359 C 0.42108 0.77483 1.02129 0.0
C2360 C 0.43582 0.76878 0.96383 0.0
C2361 C 0.43993 0.79242 0.95603 0.0
C2362 C 0.43402 0.80699 0.98135 0.0
C2363 C 0.42506 0.79842 1.01335 0.0
C2364 C 0.44998 0.80198 0.92175 0.0
C2365 C 0.43815 0.81571 0.90643 0.0
C2366 C 0.47116 0.798 0.90405 0.0
C2367 C 0.48621 0.78585 0.91902 0.0
C2368 C 0.49407 0.79369 0.94787 0.0
C2369 C 0.50973 0.78336 0.96053 0.0
C2370 C 0.51769 0.76518 0.94455 0.0
C2371 C 0.50993 0.75724 0.91593 0.0
C2372 C 0.49426 0.76749 0.90316 0.0
C2373 C 0.508 0.84806 0.77854 0.0
C2374 C 0.49344 0.84447 0.75476 0.0
C2375 C 0.49962 0.84035 0.81116 0.0
C2376 C 0.47634 0.82895 0.82135 0.0
C2377 C 0.46184 0.82548 0.79758 0.0
C2378 C 0.47017 0.83309 0.76508 0.0
C2379 C 0.46724 0.82045 0.85638 0.0
C2380 C 0.47927 0.80703 0.87186 0.0
C2381 C 0.4465 0.82507 0.87453 0.0
C2382 C 0.4336 0.8405 0.86139 0.0
C2383 C 0.40994 0.83293 0.85984 0.0
C2384 C 0.39781 0.84745 0.84733 0.0
C2385 C 0.40913 0.86963 0.83646 0.0
C2386 C 0.4326 0.87737 0.83817 0.0
C2387 C 0.4448 0.86293 0.85069 0.0
H2388 H 0.39971 0.88084 0.82676 0.0
H2389 H 0.5299 0.75728 0.95432 0.0
H2390 H 0.39119 0.11708 0.30117 0.0
H2391 H 0.37857 0.12621 0.25071 0.0
H2392 H 0.44932 0.13836 0.20116 0.0
H2393 H 0.46187 0.12838 0.2504 0.0
H2394 H 0.42499 0.17317 0.19074 0.0
H2395 H 0.41679 0.08972 0.19222 0.0
H2396 H 0.40022 0.05095 0.21601 0.0
H2397 H 0.33164 0.06039 0.21188 0.0
H2398 H 0.34784 0.09937 0.18844 0.0
H2399 H 0.44346 0.16103 1.02393 0.0
H2400 H 0.44063 0.15746 0.08273 0.0
H2401 H 0.36605 0.13957 0.0933 0.0
H2402 H 0.36881 0.14289 0.03439 0.0
H2403 H 0.38187 0.11186 0.1295 0.0
H2404 H 0.39237 0.19228 0.11433 0.0
H2405 H 0.41017 0.23003 0.08852 0.0
H2406 H 0.47479 0.22702 0.11814 0.0
H2407 H 0.45747 0.18892 0.14371 0.0
C2408 C 0.40397 0.12151 0.27941 0.0
C2409 C 0.42754 0.12224 0.2798 0.0
C2410 C 0.39677 0.12689 0.25083 0.0
C2411 C 0.41311 0.13316 0.22259 0.0
C2412 C 0.43656 0.13389 0.22297 0.0
C2413 C 0.44368 0.12825 0.25118 0.0
C2414 C 0.40622 0.13815 0.1918 0.0
C2415 C 0.41542 0.1599 0.1773 0.0
C2416 C 0.39317 0.12091 0.175 0.0
C2417 C 0.38348 0.09754 0.18906 0.0
C2418 C 0.39816 0.0836 0.1967 0.0
C2419 C 0.38885 0.06158 0.21005 0.0
C2420 C 0.36489 0.05324 0.21558 0.0
C2421 C 0.35019 0.06689 0.20767 0.0
C2422 C 0.35943 0.08895 0.19436 0.0
C2423 C 0.4265 0.15639 0.03885 0.0
C2424 C 0.40637 0.15218 1.02478 0.0
C2425 C 0.42487 0.15448 0.07235 0.0
C2426 C 0.40309 0.14871 0.09228 0.0
C2427 C 0.38298 0.14417 0.07826 0.0
C2428 C 0.3846 0.14592 0.0447 0.0
C2429 C 0.4016 0.14664 0.1277 0.0
C2430 C 0.39075 0.12547 0.14314 0.0
C2431 C 0.41321 0.16444 0.14537 0.0
C2432 C 0.42363 0.18763 0.13075 0.0
C2433 C 0.41042 0.19959 0.1152 0.0
C2434 C 0.42045 0.22107 0.10057 0.0
C2435 C 0.44366 0.23091 0.10151 0.0
C2436 C 0.45683 0.21935 0.11736 0.0
C2437 C 0.4469 0.1978 0.13197 0.0
H2438 H 0.45147 0.24746 0.08999 0.0
H2439 H 0.35771 0.03618 0.22589 0.0
H2440 H 0.9123 0.7264 0.47577 0.0
H2441 H 0.92152 0.73896 0.52843 0.0
H2442 H 0.90953 0.8057 0.50875 0.0
H2443 H 0.90152 0.79342 0.45462 0.0
H2444 H 0.94713 0.8114 0.53516 0.0
H2445 H 0.87183 0.76211 0.5658 0.0
H2446 H 0.84268 0.72599 0.56748 0.0
H2447 H 0.88546 0.69124 0.61292 0.0
H2448 H 0.91531 0.72694 0.61045 0.0
H2449 H 0.95451 0.8532 0.69504 0.0
H2450 H 0.94321 0.84047 0.6432 0.0
H2451 H 0.94959 0.77204 0.6651 0.0
H2452 H 0.96092 0.78464 0.71701 0.0
H2453 H 0.9142 0.76698 0.63775 0.0
H2454 H 0.98989 0.81126 0.60495 0.0
H2455 H 0.02295 0.8443 0.59961 0.0
H2456 H 0.98408 0.88478 0.55612 0.0
H2457 H 0.95065 0.85205 0.56158 0.0
C2458 C 0.91128 0.74372 0.48247 0.0
C2459 C 0.906 0.75873 0.46021 0.0
C2460 C 0.91652 0.75094 0.51317 0.0
C2461 C 0.91602 0.77336 0.52368 0.0
C2462 C 0.91006 0.78827 0.5019 0.0
C2463 C 0.90534 0.78116 0.47071 0.0
C2464 C 0.92276 0.78143 0.55636 0.0
C2465 C 0.93955 0.80177 0.55757 0.0
C2466 C 0.91388 0.7687 0.58608 0.0
C2467 C 0.89592 0.74721 0.58766 0.0
C2468 C 0.87516 0.74672 0.57584 0.0
C2469 C 0.85854 0.72629 0.57685 0.0
C2470 C 0.86232 0.70629 0.59005 0.0
C2471 C 0.88269 0.70669 0.60238 0.0
C2472 C 0.89947 0.72702 0.60116 0.0
C2473 C 0.95385 0.83545 0.68893 0.0
C2474 C 0.95887 0.82018 0.71108 0.0
C2475 C 0.9473 0.82809 0.65881 0.0
C2476 C 0.94565 0.80513 0.64914 0.0
C2477 C 0.9505 0.78982 0.67129 0.0
C2478 C 0.95699 0.79715 0.70145 0.0
C2479 C 0.93854 0.79706 0.61657 0.0
C2480 C 0.92174 0.77666 0.61536 0.0
C2481 C 0.94786 0.80937 0.58664 0.0
C2482 C 0.96763 0.82931 0.58417 0.0
C2483 C 0.98828 0.8273 0.59463 0.0
C2484 C 0.00712 0.84595 0.59148 0.0
C2485 C 0.00558 0.86666 0.57767 0.0
C2486 C 0.98522 0.86875 0.56692 0.0
C2487 C 0.96632 0.85016 0.57004 0.0
H2488 H 0.0202 0.88107 0.57521 0.0
H2489 H 0.84942 0.6905 0.59086 0.0
H2490 H 0.86077 0.17007 0.44282 0.0
H2491 H 0.86471 0.16397 0.38418 0.0
H2492 H 0.93785 0.16719 0.3798 0.0
H2493 H 0.93405 0.17373 0.43789 0.0
H2494 H 0.932 0.18979 0.33076 0.0
H2495 H 0.89727 0.11582 0.38254 0.0
H2496 H 0.86741 0.08779 0.41777 0.0
H2497 H 0.81641 0.09754 0.36114 0.0
H2498 H 0.84596 0.12588 0.32579 0.0
H2499 H 0.95799 0.09712 0.22982 0.0
H2500 H 0.92916 0.10716 0.27235 0.0
H2501 H 0.92731 0.16659 0.2157 0.0
H2502 H 0.95659 0.15649 0.17287 0.0
H2503 H 0.88836 0.1186 0.28905 0.0
H2504 H 0.93702 0.21154 0.26426 0.0
H2505 H 0.97388 0.23395 0.23421 0.0
H2506 H 0.00688 0.17782 0.2445 0.0
H2507 H 0.97034 0.15527 0.2748 0.0
C2508 C 0.87765 0.16948 0.4292 0.0
C2509 C 0.89713 0.17236 0.44477 0.0
C2510 C 0.87988 0.16604 0.39578 0.0
C2511 C 0.90156 0.16508 0.37762 0.0
C2512 C 0.92099 0.16813 0.39323 0.0
C2513 C 0.91882 0.17181 0.42643 0.0
C2514 C 0.90431 0.1601 0.34257 0.0
C2515 C 0.9221 0.17448 0.32149 0.0
C2516 C 0.89153 0.14003 0.33049 0.0
C2517 C 0.87371 0.12322 0.35188 0.0
C2518 C 0.87963 0.11215 0.37781 0.0
C2519 C 0.86279 0.09618 0.39775 0.0
C2520 C 0.84001 0.09097 0.39178 0.0
C2521 C 0.83405 0.10167 0.3658 0.0
C2522 C 0.85083 0.11769 0.34582 0.0
C2523 C 0.95059 0.11171 0.2258 0.0
C2524 C 0.95957 0.12624 0.1985 0.0
C2525 C 0.93402 0.11741 0.25005 0.0
C2526 C 0.92648 0.1379 0.24748 0.0
C2527 C 0.93312 0.15081 0.2182 0.0
C2528 C 0.94972 0.145 0.19371 0.0
C2529 C 0.91661 0.14782 0.27775 0.0
C2530 C 0.89744 0.1345 0.29793 0.0
C2531 C 0.92893 0.16822 0.28966 0.0
C2532 C 0.9509 0.18165 0.27128 0.0
C2533 C 0.95216 0.20402 0.26002 0.0
C2534 C 0.973 0.21674 0.24298 0.0
C2535 C -0.00731 0.20727 0.23727 0.0
C2536 C -0.00838 0.1851 0.24873 0.0
C2537 C 0.97085 0.17235 0.26582 0.0
H2538 H 0.0088 0.21713 0.2241 0.0
H2539 H 0.82699 0.07857 0.40722 0.0
H2540 H 0.59818 0.23753 0.05636 0.0
H2541 H 0.58143 0.22089 0.11013 0.0
H2542 H 0.63535 0.18255 0.1049 0.0
H2543 H 0.65039 0.1973 0.04909 0.0
H2544 H 0.60205 0.1567 0.1346 0.0
H2545 H 0.62752 0.23674 0.16792 0.0
H2546 H 0.63068 0.27855 0.16247 0.0
H2547 H 0.55712 0.26776 0.16598 0.0
H2548 H 0.55377 0.22597 0.17064 0.0
H2549 H 0.58445 0.13366 0.30696 0.0
H2550 H 0.59906 0.1495 0.25177 0.0
H2551 H 0.53306 0.16591 0.2472 0.0
H2552 H 0.51816 0.14973 0.30241 0.0
H2553 H 0.57123 0.20291 0.22367 0.0
H2554 H 0.54778 0.12256 0.20454 0.0
H2555 H 0.54662 0.08143 0.2123 0.0
H2556 H 0.62029 0.09334 0.18185 0.0
H2557 H 0.62193 0.13461 0.17434 0.0
C2558 C 0.60675 0.22587 0.0669 0.0
C2559 C 0.62603 0.21924 0.04843 0.0
C2560 C 0.59727 0.21646 0.09829 0.0
C2561 C 0.60737 0.2009 0.11337 0.0
C2562 C 0.62693 0.1945 0.09478 0.0
C2563 C 0.63581 0.20318 0.06273 0.0
C2564 C 0.59708 0.19057 0.14745 0.0
C2565 C 0.59581 0.16713 0.154 0.0
C2566 C 0.58811 0.2034 0.17356 0.0
C2567 C 0.59029 0.2284 0.17032 0.0
C2568 C 0.61206 0.24337 0.1676 0.0
C2569 C 0.61391 0.26702 0.16451 0.0
C2570 C 0.59408 0.27578 0.16407 0.0
C2571 C 0.57242 0.26096 0.1666 0.0
C2572 C 0.57052 0.23735 0.16968 0.0
C2573 C 0.57284 0.14033 0.29417 0.0
C2574 C 0.5499 0.13995 0.30945 0.0
C2575 C 0.58131 0.14952 0.26238 0.0
C2576 C 0.56733 0.15909 0.24471 0.0
C2577 C 0.5444 0.1588 0.25992 0.0
C2578 C 0.53575 0.14921 0.29158 0.0
C2579 C 0.57676 0.16933 0.21065 0.0
C2580 C 0.57777 0.19267 0.2042 0.0
C2581 C 0.58597 0.15651 0.18486 0.0
C2582 C 0.585 0.1317 0.18917 0.0
C2583 C 0.56376 0.11643 0.19974 0.0
C2584 C 0.56301 0.09309 0.20405 0.0
C2585 C 0.58337 0.08479 0.19765 0.0
C2586 C 0.60453 0.0998 0.18684 0.0
C2587 C 0.60538 0.12316 0.18252 0.0
H2588 H 0.58276 0.06671 0.201 0.0
H2589 H 0.59541 0.29401 0.16167 0.0
H2590 H 0.65994 0.85374 0.75087 0.0
H2591 H 0.67813 0.8525 0.79919 0.0
H2592 H 0.62219 0.8777 0.85652 0.0
H2593 H 0.6051 0.88054 0.80861 0.0
H2594 H 0.66127 0.8975 0.87365 0.0
H2595 H 0.62577 0.81808 0.8464 0.0
H2596 H 0.62437 0.78464 0.811 0.0
H2597 H 0.69481 0.78376 0.81806 0.0
H2598 H 0.69672 0.81726 0.85334 0.0
H2599 H 0.62502 0.85482 1.03094 0.0
H2600 H 0.62998 0.86211 0.97253 0.0
H2601 H 0.69422 0.83873 0.95888 0.0
H2602 H 0.68909 0.83081 1.01733 0.0
H2603 H 0.66646 0.8213 0.91422 0.0
H2604 H 0.69768 0.89427 0.95299 0.0
H2605 H 0.69897 0.92713 0.9893 0.0
H2606 H 0.63729 0.94047 0.96074 0.0
H2607 H 0.6354 0.90748 0.92462 0.0
C2608 C 0.65181 0.85935 0.77374 0.0
C2609 C 0.63087 0.86684 0.77607 0.0
C2610 C 0.66212 0.85849 0.8013 0.0
C2611 C 0.65136 0.86477 0.8315 0.0
C2612 C 0.63083 0.87278 0.8335 0.0
C2613 C 0.62083 0.87401 0.80612 0.0
C2614 C 0.66021 0.86212 0.86189 0.0
C2615 C 0.66256 0.88087 0.88249 0.0
C2616 C 0.66294 0.84067 0.87287 0.0
C2617 C 0.6615 0.82036 0.85208 0.0
C2618 C 0.64102 0.81088 0.84016 0.0
C2619 C 0.64016 0.79199 0.82002 0.0
C2620 C 0.65955 0.78229 0.81196 0.0
C2621 C 0.67983 0.79137 0.82417 0.0
C2622 C 0.68082 0.8103 0.84423 0.0
C2623 C 0.64012 0.8511 1.01549 0.0
C2624 C 0.65677 0.84245 1.02863 0.0
C2625 C 0.64305 0.85545 0.98222 0.0
C2626 C 0.66269 0.85132 0.96162 0.0
C2627 C 0.6791 0.84222 0.97452 0.0
C2628 C 0.6762 0.83789 1.00784 0.0
C2629 C 0.66562 0.85627 0.92653 0.0
C2630 C 0.66584 0.83807 0.90511 0.0
C2631 C 0.66516 0.87822 0.91477 0.0
C2632 C 0.6664 0.89834 0.93611 0.0
C2633 C 0.68433 0.90414 0.95455 0.0
C2634 C 0.68517 0.9228 0.97511 0.0
C2635 C 0.66822 0.93587 0.97733 0.0
C2636 C 0.65042 0.93034 0.95896 0.0
C2637 C 0.64949 0.91169 0.93838 0.0
H2638 H 0.66889 0.9503 0.99328 0.0
H2639 H 0.65879 0.76761 0.79648 0.0
H2640 H 0.55853 0.69213 0.86649 0.0
H2641 H 0.56831 0.70447 0.9187 0.0
H2642 H 0.60925 0.65321 0.91799 0.0
H2643 H 0.59793 0.63932 0.86681 0.0
H2644 H 0.59034 0.65559 0.97681 0.0
H2645 H 0.62965 0.7197 0.89835 0.0
H2646 H 0.62674 0.74855 0.85831 0.0
H2647 H 0.57962 0.77556 0.92935 0.0
H2648 H 0.58197 0.74661 0.96963 0.0
H2649 H 0.64632 0.6984 0.11085 0.0
H2650 H 0.63668 0.68451 0.05856 0.0
H2651 H 0.61298 0.74654 0.04392 0.0
H2652 H 0.62671 0.76173 0.09244 0.0
H2653 H 0.62122 0.7378 0.9923 0.0
H2654 H 0.5808 0.68008 0.07268 0.0
H2655 H 0.57376 0.64959 0.11445 0.0
H2656 H 0.61149 0.60986 0.04848 0.0
H2657 H 0.61875 0.6402 1.00619 0.0
C2658 C 0.56934 0.683 0.87724 0.0
C2659 C 0.57735 0.66451 0.86111 0.0
C2660 C 0.5754 0.69055 0.90745 0.0
C2661 C 0.59029 0.68046 0.92282 0.0
C2662 C 0.59797 0.66174 0.90717 0.0
C2663 C 0.59163 0.65392 0.87716 0.0
C2664 C 0.59803 0.68923 0.95471 0.0
C2665 C 0.59735 0.67358 0.98011 0.0
C2666 C 0.60606 0.71281 0.96057 0.0
C2667 C 0.60592 0.73096 0.93685 0.0
C2668 C 0.61878 0.73188 0.90541 0.0
C2669 C 0.61718 0.74823 0.88268 0.0
C2670 C 0.60301 0.76391 0.89128 0.0
C2671 C 0.59059 0.76343 0.92272 0.0
C2672 C 0.59206 0.74707 0.94551 0.0
C2673 C 0.63934 0.70918 0.09617 0.0
C2674 C 0.63673 0.73108 0.1069 0.0
C2675 C 0.63313 0.70091 0.0662 0.0
C2676 C 0.62246 0.71347 0.04678 0.0
C2677 C 0.62072 0.73572 0.05737 0.0
C2678 C 0.62827 0.74447 0.08608 0.0
C2679 C 0.61358 0.70421 1.01554 0.0
C2680 C 0.6141 0.71975 0.98993 0.0
C2681 C 0.60426 0.68058 1.01037 0.0
C2682 C 0.6003 0.66253 0.03614 0.0
C2683 C 0.5875 0.66485 0.06693 0.0
C2684 C 0.58352 0.64759 0.09078 0.0
C2685 C 0.59216 0.62778 0.08413 0.0
C2686 C 0.6048 0.62521 0.05361 0.0
C2687 C 0.60883 0.64245 1.02967 0.0
H2688 H 0.58907 0.61442 0.10264 0.0
H2689 H 0.60151 0.77635 0.87358 0.0
H2690 H 0.57756 0.38792 0.34243 0.0
H2691 H 0.60637 0.38044 0.29767 0.0
H2692 H 0.60579 0.31566 0.34301 0.0
H2693 H 0.57663 0.32326 0.38822 0.0
H2694 H 0.64822 0.36945 0.28224 0.0
H2695 H 0.60167 0.27587 0.27699 0.0
H2696 H 0.56536 0.24888 0.2997 0.0
H2697 H 0.52999 0.30456 0.31386 0.0
H2698 H 0.56587 0.33176 0.29029 0.0
H2699 H 0.68256 0.32061 0.1235 0.0
H2700 H 0.67568 0.32602 0.18247 0.0
H2701 H 0.60909 0.34069 0.17596 0.0
H2702 H 0.61584 0.33543 0.11742 0.0
H2703 H 0.60809 0.30553 0.22207 0.0
H2704 H 0.6498 0.38278 0.18673 0.0
H2705 H 0.6838 0.41107 0.16001 0.0
H2706 H 0.72562 0.39029 0.22354 0.0
H2707 H 0.69188 0.36163 0.25036 0.0
C2708 C 0.58433 0.37254 0.3435 0.0
C2709 C 0.57493 0.3561 0.36848 0.0
C2710 C 0.60084 0.36828 0.31795 0.0
C2711 C 0.60794 0.34732 0.31672 0.0
C2712 C 0.6004 0.33188 0.34344 0.0
C2713 C 0.5839 0.33627 0.3693 0.0
C2714 C 0.61946 0.34049 0.28511 0.0
C2715 C 0.63977 0.35513 0.26933 0.0
C2716 C 0.60834 0.3219 0.2681 0.0
C2717 C 0.58661 0.30589 0.28261 0.0
C2718 C 0.58615 0.28234 0.28502 0.0
C2719 C 0.56563 0.26701 0.29789 0.0
C2720 C 0.54545 0.27504 0.30837 0.0
C2721 C 0.54567 0.29839 0.30581 0.0
C2722 C 0.5661 0.31378 0.29267 0.0
C2723 C 0.66663 0.32534 0.13469 0.0
C2724 C 0.64959 0.32737 0.11605 0.0
C2725 C 0.66272 0.32833 0.16827 0.0
C2726 C 0.64178 0.33346 0.18345 0.0
C2727 C 0.62525 0.33646 0.16465 0.0
C2728 C 0.6291 0.33343 0.13127 0.0
C2729 C 0.63626 0.33494 0.21907 0.0
C2730 C 0.61711 0.31924 0.23544 0.0
C2731 C 0.6482 0.3527 0.23636 0.0
C2732 C 0.66843 0.36985 0.22021 0.0
C2733 C 0.66631 0.38407 0.19476 0.0
C2734 C 0.68551 0.40021 0.17966 0.0
C2735 C 0.70688 0.40241 0.18998 0.0
C2736 C 0.70907 0.38852 0.21551 0.0
C2737 C 0.68992 0.37233 0.23067 0.0
H2738 H 0.72172 0.41493 0.17828 0.0
H2739 H 0.52963 0.26311 0.31824 0.0
H2740 H 0.0195 0.3772 0.28967 0.0
H2741 H 0.00311 0.3622 0.34502 0.0
H2742 H 0.955 0.30881 0.30645 0.0
H2743 H 0.96999 0.32482 0.25216 0.0
H2744 H 0.9318 0.31675 0.35422 0.0
H2745 H 0.00854 0.29927 0.35534 0.0
H2746 H 0.05105 0.30624 0.35173 0.0
H2747 H 0.04978 0.36473 0.41191 0.0
H2748 H 0.00715 0.35745 0.41709 0.0
H2749 H 0.90092 0.24497 0.50192 0.0
H2750 H 0.91806 0.26104 0.44712 0.0
H2751 H 0.94346 0.32604 0.48796 0.0
H2752 H 0.92602 0.3104 0.54232 0.0
H2753 H 0.97781 0.31266 0.44129 0.0
H2754 H 0.8983 0.32012 0.44852 0.0
H2755 H 0.856 0.3055 0.45709 0.0
H2756 H 0.86368 0.25933 0.37861 0.0
H2757 H 0.90607 0.27348 0.36984 0.0
C2758 C 0.0053 0.36237 0.29305 0.0
C2759 C -0.00405 0.35268 0.26593 0.0
C2760 C -0.00397 0.35338 0.32505 0.0
C2761 C 0.97758 0.33382 0.33114 0.0
C2762 C 0.96879 0.324 0.30367 0.0
C2763 C 0.97754 0.33329 0.27207 0.0
C2764 C 0.96654 0.32402 0.36543 0.0
C2765 C 0.94226 0.31558 0.37272 0.0
C2766 C 0.97924 0.32257 0.3911 0.0
C2767 C 0.00482 0.32814 0.38596 0.0
C2768 C 0.0174 0.3138 0.36741 0.0
C2769 C 0.04147 0.31768 0.36532 0.0
C2770 C 0.05316 0.33615 0.38108 0.0
C2771 C 0.04074 0.35056 0.39946 0.0
C2772 C 0.01663 0.34645 0.40223 0.0
C2773 C 0.90981 0.26279 0.4993 0.0
C2774 C 0.91163 0.27628 0.52711 0.0
C2775 C 0.91977 0.27202 0.46773 0.0
C2776 C 0.93228 0.29496 0.46282 0.0
C2777 C 0.93408 0.30836 0.49055 0.0
C2778 C 0.92381 0.29932 0.52191 0.0
C2779 C 0.94356 0.30506 0.42917 0.0
C2780 C 0.96767 0.3137 0.42232 0.0
C2781 C 0.93083 0.30607 0.40365 0.0
C2782 C 0.90536 0.29771 0.40873 0.0
C2783 C 0.89098 0.30673 0.43325 0.0
C2784 C 0.86698 0.29856 0.43811 0.0
C2785 C 0.85716 0.28146 0.41846 0.0
C2786 C 0.87131 0.27255 0.39384 0.0
C2787 C 0.89532 0.28067 0.38889 0.0
H2788 H 0.83858 0.27515 0.42226 0.0
H2789 H 0.07179 0.33916 0.37931 0.0
H2790 H 0.94339 0.66644 0.77384 0.0
H2791 H 0.93048 0.66922 0.72193 0.0
H2792 H 0.89568 0.5979 0.73174 0.0
H2793 H 0.9075 0.5954 0.78436 0.0
H2794 H 0.94119 0.65021 0.66966 0.0
H2795 H 0.85106 0.58626 0.69155 0.0
H2796 H 0.8181 0.57466 0.73612 0.0
H2797 H 0.83719 0.63911 0.78149 0.0
H2798 H 0.86999 0.65128 0.73694 0.0
H2799 H 0.91786 0.6201 0.51807 0.0
H2800 H 0.91983 0.61418 0.575 0.0
H2801 H 0.86341 0.64866 0.60321 0.0
H2802 H 0.86009 0.65303 0.54646 0.0
H2803 H 0.86192 0.61867 0.64722 0.0
H2804 H 0.92024 0.67808 0.59037 0.0
H2805 H 0.95216 0.69596 0.54734 0.0
H2806 H -0.00534 0.65227 0.57473 0.0
H2807 H 0.96281 0.63386 0.61768 0.0
C2808 C 0.9327 0.65147 0.76508 0.0
C2809 C 0.9261 0.63082 0.78331 0.0
C2810 C 0.92536 0.65306 0.73547 0.0
C2811 C 0.91188 0.63385 0.7232 0.0
C2812 C 0.90547 0.61313 0.74122 0.0
C2813 C 0.91228 0.61171 0.77123 0.0
C2814 C 0.9059 0.63495 0.69053 0.0
C2815 C 0.92382 0.64343 0.6648 0.0
C2816 C 0.88313 0.62661 0.68437 0.0
C2817 C 0.86312 0.6196 0.71098 0.0
C2818 C 0.84814 0.59802 0.71091 0.0
C2819 C 0.82949 0.59134 0.73621 0.0
C2820 C 0.82558 0.60611 0.76166 0.0
C2821 C 0.84026 0.62765 0.76181 0.0
C2822 C 0.85889 0.63445 0.73655 0.0
C2823 C 0.90526 0.62561 0.53636 0.0
C2824 C 0.88921 0.63758 0.52781 0.0
C2825 C 0.9066 0.62247 0.56887 0.0
C2826 C 0.89237 0.6318 0.59309 0.0
C2827 C 0.87482 0.64169 0.58479 0.0
C2828 C 0.87313 0.6444 0.55235 0.0
C2829 C 0.89732 0.63343 0.62646 0.0
C2830 C 0.87923 0.62552 0.65223 0.0
C2831 C 0.91973 0.64335 0.63288 0.0
C2832 C 0.93899 0.6544 0.60706 0.0
C2833 C 0.9363 0.67216 0.58712 0.0
C2834 C 0.9544 0.6824 0.56274 0.0
C2835 C 0.97536 0.67515 0.55822 0.0
C2836 C 0.97835 0.65778 0.57821 0.0
C2837 C 0.96028 0.64744 0.60258 0.0
H2838 H 0.98927 0.68297 0.53922 0.0
H2839 H 0.81116 0.60088 0.78124 0.0
H2840 H 0.43286 0.33517 0.20812 0.0
H2841 H 0.42283 0.32196 0.15565 0.0
H2842 H 0.48064 0.28859 0.14001 0.0
H2843 H 0.49115 0.30225 0.19198 0.0
H2844 H 0.47947 0.30718 0.08542 0.0
H2845 H 0.42223 0.25807 0.15901 0.0
H2846 H 0.39074 0.2467 0.20554 0.0
H2847 H 0.34786 0.28284 0.16247 0.0
H2848 H 0.37923 0.2946 0.11576 0.0
H2849 H 0.4027 0.22499 0.97684 0.0
H2850 H 0.41224 0.23809 1.02971 0.0
H2851 H 0.44327 0.30539 0.98821 0.0
H2852 H 0.43343 0.29247 0.93534 0.0
H2853 H 0.39984 0.26892 0.0719 0.0
H2854 H 0.48987 0.33018 1.03029 0.0
H2855 H 0.52579 0.33265 0.99071 0.0
H2856 H 0.5066 0.26064 0.97399 0.0
H2857 H 0.47103 0.25757 1.01411 0.0
C2858 C 0.44366 0.32517 0.19358 0.0
C2859 C 0.46297 0.31998 0.20507 0.0
C2860 C 0.43767 0.31731 0.16338 0.0
C2861 C 0.45071 0.30391 0.14322 0.0
C2862 C 0.47007 0.29881 0.15454 0.0
C2863 C 0.476 0.30656 0.18479 0.0
C2864 C 0.44459 0.29564 0.11033 0.0
C2865 C 0.46195 0.29905 0.08259 0.0
C2866 C 0.42196 0.28421 0.10597 0.0
C2867 C 0.40316 0.27746 0.13411 0.0
C2868 C 0.40616 0.26377 0.15961 0.0
C2869 C 0.38832 0.25721 0.18597 0.0
C2870 C 0.36734 0.26412 0.18702 0.0
C2871 C 0.36414 0.27754 0.16165 0.0
C2872 C 0.38194 0.28415 0.13521 0.0
C2873 C 0.41143 0.24266 0.97883 0.0
C2874 C 0.41701 0.25758 0.95128 0.0
C2875 C 0.41691 0.25022 1.00941 0.0
C2876 C 0.42865 0.2729 1.0137 0.0
C2877 C 0.43438 0.28779 0.98615 0.0
C2878 C 0.42856 0.28035 0.95567 0.0
C2879 C 0.43468 0.2809 0.04675 0.0
C2880 C 0.41727 0.27752 0.07455 0.0
C2881 C 0.45748 0.29164 0.05137 0.0
C2882 C 0.47763 0.29372 1.02494 0.0
C2883 C 0.49328 0.31489 1.01803 0.0
C2884 C 0.51369 0.31636 0.99573 0.0
C2885 C 0.51865 0.29675 0.98024 0.0
C2886 C 0.50293 0.27576 0.98633 0.0
C2887 C 0.48257 0.27416 1.00875 0.0
H2888 H 0.5346 0.29792 0.96332 0.0
H2889 H 0.35354 0.25901 0.20746 0.0
H2890 H 0.44116 0.63634 0.96428 0.0
H2891 H 0.44567 0.62684 0.90672 0.0
H2892 H 0.38231 0.64833 0.89895 0.0
H2893 H 0.3772 0.65674 0.95688 0.0
H2894 H 0.38693 0.61138 0.86195 0.0
H2895 H 0.43499 0.68739 0.8748 0.0
H2896 H 0.46289 0.71199 0.90452 0.0
H2897 H 0.511 0.66813 0.87955 0.0
H2898 H 0.48375 0.64371 0.84871 0.0
H2899 H 0.46223 0.65001 0.69056 0.0
H2900 H 0.43691 0.65556 0.74105 0.0
H2901 H 0.43969 0.58876 0.77627 0.0
H2902 H 0.4656 0.58351 0.72641 0.0
H2903 H 0.46075 0.65296 0.79686 0.0
H2904 H 0.38687 0.57278 0.83301 0.0
H2905 H 0.35792 0.54614 0.80755 0.0
H2906 H 0.36004 0.5978 0.73575 0.0
H2907 H 0.38873 0.62487 0.76104 0.0
C2908 C 0.4281 0.63869 0.95027 0.0
C2909 C 0.40896 0.64736 0.96462 0.0
C2910 C 0.43067 0.63336 0.91751 0.0
C2911 C 0.41457 0.63741 0.8985 0.0
C2912 C 0.39492 0.64515 0.91321 0.0
C2913 C 0.39207 0.64999 0.94615 0.0
C2914 C 0.41922 0.63532 0.86292 0.0
C2915 C 0.40297 0.62052 0.84758 0.0
C2916 C 0.43993 0.6477 0.84426 0.0
C2917 C 0.45739 0.66381 0.8594 0.0
C2918 C 0.45171 0.68326 0.87517 0.0
C2919 C 0.46741 0.69716 0.89215 0.0
C2920 C 0.48877 0.69167 0.8937 0.0
C2921 C 0.49463 0.67252 0.87781 0.0
C2922 C 0.47915 0.65876 0.86036 0.0
C2923 C 0.4564 0.63605 0.70837 0.0
C2924 C 0.4658 0.61639 0.70492 0.0
C2925 C 0.44209 0.6393 0.73722 0.0
C2926 C 0.43663 0.62261 0.76228 0.0
C2927 C 0.44362 0.60173 0.75704 0.0
C2928 C 0.45835 0.59872 0.72859 0.0
C2929 C 0.4286 0.6287 0.79579 0.0
C2930 C 0.4444 0.64419 0.81094 0.0
C2931 C 0.40748 0.61696 0.81409 0.0
C2932 C 0.39012 0.6008 0.7988 0.0
C2933 C 0.3811 0.5785 0.81187 0.0
C2934 C 0.36473 0.56331 0.79745 0.0
C2935 C 0.35719 0.57026 0.77 0.0
C2936 C 0.36596 0.59242 0.75694 0.0
C2937 C 0.38232 0.60767 0.77127 0.0
H2938 H 0.34452 0.55848 0.75888 0.0
H2939 H 0.50071 0.70211 0.90743 0.0
H2940 H 0.1328 0.67792 0.53347 0.0
H2941 H 0.11752 0.6631 0.58885 0.0
H2942 H 0.10752 0.73028 0.6179 0.0
H2943 H 0.12456 0.74535 0.56314 0.0
H2944 H 0.1174 0.71586 0.66541 0.0
H2945 H 0.05674 0.67349 0.60856 0.0
H2946 H 0.04006 0.64739 0.5681 0.0
H2947 H 0.07465 0.59618 0.59477 0.0
H2948 H 0.09095 0.62164 0.6359 0.0
H2949 H 0.02125 0.63637 0.79393 0.0
H2950 H 0.03646 0.64976 0.73756 0.0
H2951 H 0.10533 0.66823 0.76088 0.0
H2952 H 0.09018 0.65554 0.81708 0.0
H2953 H 0.06395 0.64016 0.68786 0.0
H2954 H 0.13945 0.71236 0.71462 0.0
H2955 H 0.14879 0.73875 0.7586 0.0
H2956 H 0.0763 0.73419 0.7929 0.0
H2957 H 0.06654 0.70807 0.74888 0.0
C2958 C 0.12759 0.68962 0.55174 0.0
C2959 C 0.13031 0.71299 0.54344 0.0
C2960 C 0.11828 0.68097 0.58368 0.0
C2961 C 0.11039 0.69512 0.6085 0.0
C2962 C 0.11329 0.71858 0.60005 0.0
C2963 C 0.1232 0.72734 0.56836 0.0
C2964 C 0.09991 0.68596 0.64314 0.0
C2965 C 0.10569 0.69928 0.66991 0.0
C2966 C 0.08422 0.66439 0.65044 0.0
C2967 C 0.07534 0.64957 0.62481 0.0
C2968 C 0.06095 0.65675 0.60548 0.0
C2969 C 0.05149 0.64206 0.58259 0.0
C2970 C 0.05655 0.62031 0.5786 0.0
C2971 C 0.07085 0.61308 0.59775 0.0
C2972 C 0.08008 0.62755 0.62098 0.0
C2973 C 0.03968 0.64309 0.78707 0.0
C2974 C 0.05433 0.64479 0.81062 0.0
C2975 C 0.04845 0.65086 0.75456 0.0
C2976 C 0.0722 0.66065 0.74433 0.0
C2977 C 0.0869 0.6615 0.76764 0.0
C2978 C 0.07815 0.65394 0.80008 0.0
C2979 C 0.08157 0.67003 0.7097 0.0
C2980 C 0.07563 0.65676 0.68312 0.0
C2981 C 0.09657 0.69191 0.70257 0.0
C2982 C 0.10228 0.70803 0.72868 0.0
C2983 C 0.12551 0.71708 0.73145 0.0
C2984 C 0.13088 0.73199 0.7564 0.0
C2985 C 0.11316 0.73805 0.77863 0.0
C2986 C 0.09002 0.72941 0.77577 0.0
C2987 C 0.08456 0.71454 0.75084 0.0
H2988 H 0.11737 0.74939 0.79809 0.0
H2989 H 0.04925 0.60901 0.56083 0.0
H2990 H 0.14298 0.41299 0.30598 0.0
H2991 H 0.15825 0.40286 0.35322 0.0
H2992 H 0.13446 0.331 0.33581 0.0
H2993 H 0.11818 0.34129 0.28937 0.0
H2994 H 0.12089 0.33785 0.39427 0.0
H2995 H 0.19417 0.35739 0.32816 0.0
H2996 H 0.22589 0.37984 0.28856 0.0
H2997 H 0.2332 0.43566 0.35418 0.0
H2998 H 0.2013 0.4137 0.394 0.0
H2999 H 0.1812 0.32856 0.53438 0.0
H3000 H 0.18625 0.33378 0.47523 0.0
H3001 H 0.13903 0.37981 0.4876 0.0
H3002 H 0.13437 0.37505 0.54671 0.0
H3003 H 0.19481 0.37711 0.42782 0.0
H3004 H 0.09542 0.34677 0.45009 0.0
H3005 H 0.06539 0.32285 0.49045 0.0
H3006 H 0.11396 0.28292 0.50867 0.0
H3007 H 0.14408 0.30623 0.46784 0.0
C3008 C 0.14146 0.39507 0.31198 0.0
C3009 C 0.12944 0.37787 0.2944 0.0
C3010 C 0.15034 0.38925 0.33875 0.0
C3011 C 0.14784 0.36614 0.34777 0.0
C3012 C 0.13664 0.34892 0.32924 0.0
C3013 C 0.12735 0.35477 0.30285 0.0
C3014 C 0.15432 0.36022 0.37873 0.0
C3015 C 0.13728 0.34609 0.4012 0.0
C3016 C 0.17586 0.3706 0.38778 0.0
C3017 C 0.19526 0.38388 0.36407 0.0
C3018 C 0.20246 0.37449 0.3341 0.0
C3019 C 0.22048 0.38713 0.31161 0.0
C3020 C 0.23154 0.40916 0.31884 0.0
C3021 C 0.22463 0.41858 0.34862 0.0
C3022 C 0.20661 0.40602 0.3712 0.0
C3023 C 0.17255 0.34035 0.52432 0.0
C3024 C 0.15731 0.35135 0.54463 0.0
C3025 C 0.17554 0.34339 0.49075 0.0
C3026 C 0.16289 0.35703 0.47743 0.0
C3027 C 0.14894 0.36928 0.49776 0.0
C3028 C 0.14627 0.36656 0.53132 0.0
C3029 C 0.16108 0.3557 0.44288 0.0
C3030 C 0.17884 0.36843 0.42011 0.0
C3031 C 0.14058 0.34343 0.43311 0.0
C3032 C 0.1221 0.3285 0.45629 0.0
C3033 C 0.09963 0.33278 0.46253 0.0
C3034 C 0.08258 0.31931 0.48549 0.0
C3035 C 0.0878 0.30145 0.50226 0.0
C3036 C 0.10999 0.29686 0.49585 0.0
C3037 C 0.12704 0.31019 0.47278 0.0
H3038 H 0.07468 0.29112 0.52017 0.0
H3039 H 0.24548 0.41893 0.30138 0.0
loop_
_geom_bond_atom_site_label_1
_geom_bond_atom_site_label_2
_geom_bond_distance
_geom_bond_site_symmetry_2
_ccdc_geom_bond_type
Tb0 C2 2.809 . S
Tb0 O20 2.484 . S
Tb0 O21 2.440 . S
Tb0 O22 2.658 . S
Tb0 O23 2.409 . S
Tb0 O24 2.378 . S
Tb0 O28 2.325 . S
Tb0 O31 2.341 . S
Tb1 C11 2.809 . S
Tb1 O22 2.325 . S
Tb1 O25 2.341 . S
Tb1 O26 2.484 . S
Tb1 O27 2.440 . S
Tb1 O28 2.658 . S
Tb1 O29 2.409 . S
Tb1 O30 2.378 . S
C2 Tb0 2.809 . S
C2 C3 1.514 . S
C2 O20 1.248 . S
C2 O21 1.266 . S
C3 C2 1.514 . S
C3 C4 1.359 . S
C3 C8 1.348 . S
C4 C3 1.359 . S
C4 C5 1.380 . S
C4 H32 0.929 . S
C5 C4 1.380 . S
C5 C6 1.347 . S
C5 H33 0.931 . S
C6 C5 1.347 . S
C6 C7 1.369 . S
C7 C6 1.369 . S
C7 C8 1.408 . S
C7 H34 0.930 . S
C8 C3 1.348 . S
C8 C7 1.408 . S
C8 H35 0.930 . S
C9 O22 1.281 . S
C9 O23 1.254 . S
C10 O24 1.236 . S
C10 O25 1.266 . S
C11 Tb1 2.809 . S
C11 C12 1.514 . S
C11 O26 1.248 . S
C11 O27 1.266 . S
C12 C11 1.514 . S
C12 C13 1.359 1_554 S
C12 C17 1.348 1_454 S
C13 C12 1.359 1_556 S
C13 C14 1.380 1_455 S
C13 H36 0.929 . S
C14 C13 1.380 1_655 S
C14 C15 1.347 . S
C14 H37 0.931 . S
C15 C14 1.347 . S
C15 C16 1.369 . S
C16 C15 1.369 . S
C16 C17 1.408 . S
C16 H38 0.930 . S
C17 C12 1.348 1_656 S
C17 C16 1.408 . S
C17 H39 0.930 1_556 S
C18 O28 1.281 . S
C18 O29 1.254 . S
C19 O30 1.236 . S
C19 O31 1.266 . S
O20 Tb0 2.484 . S
O20 C2 1.248 . S
O21 Tb0 2.440 . S
O21 C2 1.266 . S
O22 Tb0 2.658 . S
O22 Tb1 2.325 . S
O22 C9 1.281 . S
O23 Tb0 2.409 . S
O23 C9 1.254 . S
O24 Tb0 2.378 . S
O24 C10 1.236 . S
O25 Tb1 2.341 . S
O25 C10 1.266 . S
O26 Tb1 2.484 . S
O26 C11 1.248 . S
O27 Tb1 2.440 . S
O27 C11 1.266 . S
O28 Tb0 2.325 . S
O28 Tb1 2.658 . S
O28 C18 1.281 . S
O29 Tb1 2.409 . S
O29 C18 1.254 . S
O30 Tb1 2.378 . S
O30 C19 1.236 . S
O31 Tb0 2.341 . S
O31 C19 1.266 . S
H32 C4 0.929 . S
H33 C5 0.931 . S
H34 C7 0.930 . S
H35 C8 0.930 . S
H36 C13 0.929 . S
H37 C14 0.931 . S
H38 C16 0.930 . S
H39 C17 0.930 1_554 S
Tb40 C42 2.809 . S
Tb40 O60 2.484 . S
Tb40 O61 2.440 . S
Tb40 O62 2.658 . S
Tb40 O63 2.409 . S
Tb40 O64 2.378 . S
Tb40 O68 2.325 . S
Tb40 O71 2.341 . S
Tb41 C51 2.809 . S
Tb41 O62 2.325 . S
Tb41 O65 2.341 . S
Tb41 O66 2.484 . S
Tb41 O67 2.440 . S
Tb41 O68 2.658 . S
Tb41 O69 2.409 . S
Tb41 O70 2.378 . S
C42 Tb40 2.809 . S
C42 C43 1.514 . S
C42 O60 1.248 . S
C42 O61 1.266 . S
C43 C42 1.514 . S
C43 C44 1.359 . S
C43 C48 1.348 . S
C44 C43 1.359 . S
C44 C45 1.380 . S
C44 H72 0.929 . S
C45 C44 1.380 . S
C45 C46 1.347 . S
C45 H73 0.931 . S
C46 C45 1.347 . S
C46 C47 1.369 . S
C47 C46 1.369 . S
C47 C48 1.408 . S
C47 H74 0.930 . S
C48 C43 1.348 . S
C48 C47 1.408 . S
C48 H75 0.930 . S
C49 O62 1.281 . S
C49 O63 1.254 . S
C50 O64 1.236 . S
C50 O65 1.266 . S
C51 Tb41 2.809 . S
C51 C52 1.514 . S
C51 O66 1.248 . S
C51 O67 1.266 . S
C52 C51 1.514 . S
C52 C53 1.359 . S
C52 C57 1.348 . S
C53 C52 1.359 . S
C53 C54 1.380 . S
C53 H76 0.929 . S
C54 C53 1.380 . S
C54 C55 1.347 . S
C54 H77 0.931 . S
C55 C54 1.347 . S
C55 C56 1.369 . S
C56 C55 1.369 . S
C56 C57 1.408 . S
C56 H78 0.930 . S
C57 C52 1.348 . S
C57 C56 1.408 . S
C57 H79 0.930 . S
C58 O68 1.281 . S
C58 O69 1.254 . S
C59 O70 1.236 . S
C59 O71 1.266 . S
O60 Tb40 2.484 . S
O60 C42 1.248 . S
O61 Tb40 2.440 . S
O61 C42 1.266 . S
O62 Tb40 2.658 . S
O62 Tb41 2.325 . S
O62 C49 1.281 . S
O63 Tb40 2.409 . S
O63 C49 1.254 . S
O64 Tb40 2.378 . S
O64 C50 1.236 . S
O65 Tb41 2.341 . S
O65 C50 1.266 . S
O66 Tb41 2.484 . S
O66 C51 1.248 . S
O67 Tb41 2.440 . S
O67 C51 1.266 . S
O68 Tb40 2.325 . S
O68 Tb41 2.658 . S
O68 C58 1.281 . S
O69 Tb41 2.409 . S
O69 C58 1.254 . S
O70 Tb41 2.378 . S
O70 C59 1.236 . S
O71 Tb40 2.341 . S
O71 C59 1.266 . S
H72 C44 0.929 . S
H73 C45 0.931 . S
H74 C47 0.930 . S
H75 C48 0.930 . S
H76 C53 0.929 . S
H77 C54 0.931 . S
H78 C56 0.930 . S
H79 C57 0.930 . S
Tb80 C82 2.809 . S
Tb80 O100 2.484 . S
Tb80 O101 2.440 . S
Tb80 O102 2.658 . S
Tb80 O103 2.409 . S
Tb80 O104 2.378 . S
Tb80 O108 2.325 . S
Tb80 O111 2.341 . S
Tb81 C91 2.809 . S
Tb81 O102 2.325 . S
Tb81 O105 2.341 . S
Tb81 O106 2.484 . S
Tb81 O107 2.440 . S
Tb81 O108 2.658 . S
Tb81 O109 2.409 . S
Tb81 O110 2.378 . S
C82 Tb80 2.809 . S
C82 C83 1.514 . S
C82 O100 1.248 . S
C82 O101 1.266 . S
C83 C82 1.514 . S
C83 C84 1.359 . S
C83 C88 1.348 . S
C84 C83 1.359 . S
C84 C85 1.380 . S
C84 H112 0.929 . S
C85 C84 1.380 . S
C85 C86 1.347 . S
C85 H113 0.931 . S
C86 C85 1.347 . S
C86 C87 1.369 . S
C87 C86 1.369 . S
C87 C88 1.408 . S
C87 H114 0.930 . S
C88 C83 1.348 . S
C88 C87 1.408 . S
C88 H115 0.930 . S
C89 O102 1.281 . S
C89 O103 1.254 . S
C90 O104 1.236 . S
C90 O105 1.266 . S
C91 Tb81 2.809 . S
C91 C92 1.514 . S
C91 O106 1.248 . S
C91 O107 1.266 . S
C92 C91 1.514 . S
C92 C93 1.359 . S
C92 C97 1.348 . S
C93 C92 1.359 . S
C93 C94 1.380 . S
C93 H116 0.929 . S
C94 C93 1.380 . S
C94 C95 1.347 . S
C94 H117 0.931 . S
C95 C94 1.347 . S
C95 C96 1.369 . S
C96 C95 1.369 . S
C96 C97 1.408 . S
C96 H118 0.930 . S
C97 C92 1.348 . S
C97 C96 1.408 . S
C97 H119 0.930 . S
C98 O108 1.281 . S
C98 O109 1.254 . S
C99 O110 1.236 . S
C99 O111 1.266 . S
O100 Tb80 2.484 . S
O100 C82 1.248 . S
O101 Tb80 2.440 . S
O101 C82 1.266 . S
O102 Tb80 2.658 . S
O102 Tb81 2.325 . S
O102 C89 1.281 . S
O103 Tb80 2.409 . S
O103 C89 1.254 . S
O104 Tb80 2.378 . S
O104 C90 1.236 . S
O105 Tb81 2.341 . S
O105 C90 1.266 . S
O106 Tb81 2.484 . S
O106 C91 1.248 . S
O107 Tb81 2.440 . S
O107 C91 1.266 . S
O108 Tb80 2.325 . S
O108 Tb81 2.658 . S
O108 C98 1.281 . S
O109 Tb81 2.409 . S
O109 C98 1.254 . S
O110 Tb81 2.378 . S
O110 C99 1.236 . S
O111 Tb80 2.341 . S
O111 C99 1.266 . S
H112 C84 0.929 . S
H113 C85 0.931 . S
H114 C87 0.930 . S
H115 C88 0.930 . S
H116 C93 0.929 . S
H117 C94 0.931 . S
H118 C96 0.930 . S
H119 C97 0.930 . S
Tb120 C122 2.809 . S
Tb120 O140 2.484 . S
Tb120 O141 2.440 . S
Tb120 O142 2.658 . S
Tb120 O143 2.409 . S
Tb120 O144 2.378 . S
Tb120 O148 2.325 . S
Tb120 O151 2.341 . S
Tb121 C131 2.809 . S
Tb121 O142 2.325 . S
Tb121 O145 2.341 . S
Tb121 O146 2.484 . S
Tb121 O147 2.440 . S
Tb121 O148 2.658 . S
Tb121 O149 2.409 . S
Tb121 O150 2.378 . S
C122 Tb120 2.809 . S
C122 C123 1.514 . S
C122 O140 1.248 . S
C122 O141 1.266 . S
C123 C122 1.514 . S
C123 C124 1.359 . S
C123 C128 1.348 . S
C124 C123 1.359 . S
C124 C125 1.394 . S
C124 H152 0.929 . S
C125 C124 1.394 . S
C125 C126 1.342 1_556 S
C125 H153 0.922 1_556 S
C126 C125 1.342 1_554 S
C126 C127 1.365 1_554 S
C127 C126 1.365 1_556 S
C127 C128 1.414 . S
C127 H154 0.929 1_556 S
C128 C123 1.348 . S
C128 C127 1.414 . S
C128 H155 0.930 . S
C129 O142 1.281 . S
C129 O143 1.254 . S
C130 O144 1.236 . S
C130 O145 1.266 . S
C131 Tb121 2.809 . S
C131 C132 1.514 . S
C131 O146 1.248 . S
C131 O147 1.266 . S
C132 C131 1.514 . S
C132 C133 1.359 . S
C132 C137 1.348 . S
C133 C132 1.359 . S
C133 C134 1.380 . S
C133 H156 0.929 . S
C134 C133 1.380 . S
C134 C135 1.347 . S
C134 H157 0.931 . S
C135 C134 1.347 . S
C135 C136 1.369 . S
C136 C135 1.369 . S
C136 C137 1.408 . S
C136 H158 0.930 . S
C137 C132 1.348 . S
C137 C136 1.408 . S
C137 H159 0.930 . S
C138 O148 1.281 . S
C138 O149 1.254 . S
C139 O150 1.236 . S
C139 O151 1.266 . S
O140 Tb120 2.484 . S
O140 C122 1.248 . S
O141 Tb120 2.440 . S
O141 C122 1.266 . S
O142 Tb120 2.658 . S
O142 Tb121 2.325 . S
O142 C129 1.281 . S
O143 Tb120 2.409 . S
O143 C129 1.254 . S
O144 Tb120 2.378 . S
O144 C130 1.236 . S
O145 Tb121 2.341 . S
O145 C130 1.266 . S
O146 Tb121 2.484 . S
O146 C131 1.248 . S
O147 Tb121 2.440 . S
O147 C131 1.266 . S
O148 Tb120 2.325 . S
O148 Tb121 2.658 . S
O148 C138 1.281 . S
O149 Tb121 2.409 . S
O149 C138 1.254 . S
O150 Tb121 2.378 . S
O150 C139 1.236 . S
O151 Tb120 2.341 . S
O151 C139 1.266 . S
H152 C124 0.929 . S
H153 C125 0.922 1_554 S
H154 C127 0.929 1_554 S
H155 C128 0.930 . S
H156 C133 0.929 . S
H157 C134 0.931 . S
H158 C136 0.930 . S
H159 C137 0.930 . S
Tb160 C162 2.809 . S
Tb160 O180 2.484 . S
Tb160 O181 2.440 . S
Tb160 O182 2.658 . S
Tb160 O183 2.409 . S
Tb160 O184 2.378 . S
Tb160 O188 2.325 . S
Tb160 O191 2.341 . S
Tb161 C171 2.809 . S
Tb161 O182 2.325 1_655 S
Tb161 O185 2.341 . S
Tb161 O186 2.484 . S
Tb161 O187 2.440 . S
Tb161 O188 2.658 1_655 S
Tb161 O189 2.409 . S
Tb161 O190 2.378 1_655 S
C162 Tb160 2.809 . S
C162 C163 1.514 . S
C162 O180 1.248 . S
C162 O181 1.266 . S
C163 C162 1.514 . S
C163 C164 1.359 1_556 S
C163 C168 1.348 1_556 S
C164 C163 1.359 1_554 S
C164 C165 1.380 . S
C164 H192 0.929 . S
C165 C164 1.380 . S
C165 C166 1.347 . S
C165 H193 0.931 . S
C166 C165 1.347 . S
C166 C167 1.369 . S
C167 C166 1.369 . S
C167 C168 1.408 . S
C167 H194 0.930 . S
C168 C163 1.348 1_554 S
C168 C167 1.408 . S
C168 H195 0.930 1_554 S
C169 O182 1.281 . S
C169 O183 1.254 . S
C170 O184 1.236 1_655 S
C170 O185 1.266 . S
C171 Tb161 2.809 . S
C171 C172 1.514 . S
C171 O186 1.248 . S
C171 O187 1.266 . S
C172 C171 1.514 . S
C172 C173 1.359 . S
C172 C177 1.348 . S
C173 C172 1.359 . S
C173 C174 1.380 . S
C173 H196 0.929 . S
C174 C173 1.380 . S
C174 C175 1.347 . S
C174 H197 0.931 . S
C175 C174 1.347 . S
C175 C176 1.369 . S
C176 C175 1.369 . S
C176 C177 1.408 . S
C176 H198 0.930 . S
C177 C172 1.348 . S
C177 C176 1.408 . S
C177 H199 0.930 . S
C178 O188 1.281 . S
C178 O189 1.254 1_455 S
C179 O190 1.236 . S
C179 O191 1.266 . S
O180 Tb160 2.484 . S
O180 C162 1.248 . S
O181 Tb160 2.440 . S
O181 C162 1.266 . S
O182 Tb160 2.658 . S
O182 Tb161 2.325 1_455 S
O182 C169 1.281 . S
O183 Tb160 2.409 . S
O183 C169 1.254 . S
O184 Tb160 2.378 . S
O184 C170 1.236 1_455 S
O185 Tb161 2.341 . S
O185 C170 1.266 . S
O186 Tb161 2.484 . S
O186 C171 1.248 . S
O187 Tb161 2.440 . S
O187 C171 1.266 . S
O188 Tb160 2.325 . S
O188 Tb161 2.658 1_455 S
O188 C178 1.281 . S
O189 Tb161 2.409 . S
O189 C178 1.254 1_655 S
O190 Tb161 2.378 1_455 S
O190 C179 1.236 . S
O191 Tb160 2.341 . S
O191 C179 1.266 . S
H192 C164 0.929 . S
H193 C165 0.931 . S
H194 C167 0.930 . S
H195 C168 0.930 1_556 S
H196 C173 0.929 . S
H197 C174 0.931 . S
H198 C176 0.930 . S
H199 C177 0.930 . S
Tb200 C202 2.809 . S
Tb200 O220 2.484 . S
Tb200 O221 2.440 . S
Tb200 O222 2.658 . S
Tb200 O223 2.409 . S
Tb200 O224 2.378 . S
Tb200 O228 2.325 . S
Tb200 O231 2.341 . S
Tb201 C211 2.809 . S
Tb201 O222 2.325 . S
Tb201 O225 2.341 . S
Tb201 O226 2.484 . S
Tb201 O227 2.440 . S
Tb201 O228 2.658 . S
Tb201 O229 2.409 . S
Tb201 O230 2.378 . S
C202 Tb200 2.809 . S
C202 C203 1.514 . S
C202 O220 1.248 . S
C202 O221 1.266 . S
C203 C202 1.514 . S
C203 C204 1.359 . S
C203 C208 1.348 . S
C204 C203 1.359 . S
C204 C205 1.380 . S
C204 H232 0.929 . S
C205 C204 1.380 . S
C205 C206 1.347 . S
C205 H233 0.931 . S
C206 C205 1.347 . S
C206 C207 1.369 . S
C207 C206 1.369 . S
C207 C208 1.408 . S
C207 H234 0.930 . S
C208 C203 1.348 . S
C208 C207 1.408 . S
C208 H235 0.930 . S
C209 O222 1.281 . S
C209 O223 1.254 . S
C210 O224 1.236 . S
C210 O225 1.266 . S
C211 Tb201 2.809 . S
C211 C212 1.514 1_554 S
C211 O226 1.248 . S
C211 O227 1.266 . S
C212 C211 1.514 1_556 S
C212 C213 1.359 . S
C212 C217 1.348 . S
C213 C212 1.359 . S
C213 C214 1.380 . S
C213 H236 0.929 . S
C214 C213 1.380 . S
C214 C215 1.347 . S
C214 H237 0.931 . S
C215 C214 1.347 . S
C215 C216 1.369 . S
C216 C215 1.369 . S
C216 C217 1.408 . S
C216 H238 0.930 . S
C217 C212 1.348 . S
C217 C216 1.408 . S
C217 H239 0.915 1_556 S
C218 O228 1.281 . S
C218 O229 1.254 . S
C219 O230 1.236 . S
C219 O231 1.266 . S
O220 Tb200 2.484 . S
O220 C202 1.248 . S
O221 Tb200 2.440 . S
O221 C202 1.266 . S
O222 Tb200 2.658 . S
O222 Tb201 2.325 . S
O222 C209 1.281 . S
O223 Tb200 2.409 . S
O223 C209 1.254 . S
O224 Tb200 2.378 . S
O224 C210 1.236 . S
O225 Tb201 2.341 . S
O225 C210 1.266 . S
O226 Tb201 2.484 . S
O226 C211 1.248 . S
O227 Tb201 2.440 . S
O227 C211 1.266 . S
O228 Tb200 2.325 . S
O228 Tb201 2.658 . S
O228 C218 1.281 . S
O229 Tb201 2.409 . S
O229 C218 1.254 . S
O230 Tb201 2.378 . S
O230 C219 1.236 . S
O231 Tb200 2.341 . S
O231 C219 1.266 . S
H232 C204 0.929 . S
H233 C205 0.931 . S
H234 C207 0.930 . S
H235 C208 0.930 . S
H236 C213 0.929 . S
H237 C214 0.931 . S
H238 C216 0.930 . S
H239 C217 0.915 1_554 S
Tb240 C242 2.809 . S
Tb240 O260 2.484 . S
Tb240 O261 2.440 . S
Tb240 O262 2.658 . S
Tb240 O263 2.409 . S
Tb240 O264 2.378 . S
Tb240 O268 2.325 . S
Tb240 O271 2.341 . S
Tb241 C251 2.809 . S
Tb241 O262 2.325 . S
Tb241 O265 2.341 . S
Tb241 O266 2.484 . S
Tb241 O267 2.440 . S
Tb241 O268 2.658 . S
Tb241 O269 2.409 . S
Tb241 O270 2.378 . S
C242 Tb240 2.809 . S
C242 C243 1.514 . S
C242 O260 1.248 . S
C242 O261 1.266 . S
C243 C242 1.514 . S
C243 C244 1.359 . S
C243 C248 1.348 . S
C244 C243 1.359 . S
C244 C245 1.380 . S
C244 H272 0.929 . S
C245 C244 1.380 . S
C245 C246 1.347 . S
C245 H273 0.931 . S
C246 C245 1.347 . S
C246 C247 1.369 . S
C247 C246 1.369 . S
C247 C248 1.408 . S
C247 H274 0.930 . S
C248 C243 1.348 . S
C248 C247 1.408 . S
C248 H275 0.930 . S
C249 O262 1.281 . S
C249 O263 1.254 . S
C250 O264 1.236 . S
C250 O265 1.266 . S
C251 Tb241 2.809 . S
C251 C252 1.514 . S
C251 O266 1.248 . S
C251 O267 1.266 . S
C252 C251 1.514 . S
C252 C253 1.359 . S
C252 C257 1.348 . S
C253 C252 1.359 . S
C253 C254 1.380 . S
C253 H276 0.929 . S
C254 C253 1.380 . S
C254 C255 1.347 . S
C254 H277 0.931 . S
C255 C254 1.347 . S
C255 C256 1.369 . S
C256 C255 1.369 . S
C256 C257 1.408 . S
C256 H278 0.930 . S
C257 C252 1.348 . S
C257 C256 1.408 . S
C257 H279 0.930 . S
C258 O268 1.281 . S
C258 O269 1.254 . S
C259 O270 1.236 . S
C259 O271 1.266 . S
O260 Tb240 2.484 . S
O260 C242 1.248 . S
O261 Tb240 2.440 . S
O261 C242 1.266 . S
O262 Tb240 2.658 . S
O262 Tb241 2.325 . S
O262 C249 1.281 . S
O263 Tb240 2.409 . S
O263 C249 1.254 . S
O264 Tb240 2.378 . S
O264 C250 1.236 . S
O265 Tb241 2.341 . S
O265 C250 1.266 . S
O266 Tb241 2.484 . S
O266 C251 1.248 . S
O267 Tb241 2.440 . S
O267 C251 1.266 . S
O268 Tb240 2.325 . S
O268 Tb241 2.658 . S
O268 C258 1.281 . S
O269 Tb241 2.409 . S
O269 C258 1.254 . S
O270 Tb241 2.378 . S
O270 C259 1.236 . S
O271 Tb240 2.341 . S
O271 C259 1.266 . S
H272 C244 0.929 . S
H273 C245 0.931 . S
H274 C247 0.930 . S
H275 C248 0.930 . S
H276 C253 0.929 . S
H277 C254 0.931 . S
H278 C256 0.930 . S
H279 C257 0.930 . S
Tb280 C282 2.809 . S
Tb280 O300 2.484 . S
Tb280 O301 2.440 . S
Tb280 O302 2.658 . S
Tb280 O303 2.409 . S
Tb280 O304 2.378 . S
Tb280 O308 2.325 . S
Tb280 O311 2.341 . S
Tb281 C291 2.809 . S
Tb281 O302 2.325 . S
Tb281 O305 2.341 . S
Tb281 O306 2.484 . S
Tb281 O307 2.440 . S
Tb281 O308 2.658 . S
Tb281 O309 2.409 . S
Tb281 O310 2.378 . S
C282 Tb280 2.809 . S
C282 C283 1.514 . S
C282 O300 1.248 . S
C282 O301 1.266 . S
C283 C282 1.514 . S
C283 C284 1.359 . S
C283 C288 1.348 . S
C284 C283 1.359 . S
C284 C285 1.380 . S
C284 H312 0.929 . S
C285 C284 1.380 . S
C285 C286 1.347 . S
C285 H313 0.931 . S
C286 C285 1.347 . S
C286 C287 1.369 . S
C287 C286 1.369 . S
C287 C288 1.408 . S
C287 H314 0.930 . S
C288 C283 1.348 . S
C288 C287 1.408 . S
C288 H315 0.930 . S
C289 O302 1.281 . S
C289 O303 1.254 . S
C290 O304 1.236 . S
C290 O305 1.266 . S
C291 Tb281 2.809 . S
C291 C292 1.514 . S
C291 O306 1.248 . S
C291 O307 1.266 . S
C292 C291 1.514 . S
C292 C293 1.359 . S
C292 C297 1.348 . S
C293 C292 1.359 . S
C293 C294 1.380 . S
C293 H316 0.929 . S
C294 C293 1.380 . S
C294 C295 1.347 . S
C294 H317 0.931 . S
C295 C294 1.347 . S
C295 C296 1.369 . S
C296 C295 1.369 . S
C296 C297 1.408 . S
C296 H318 0.930 . S
C297 C292 1.348 . S
C297 C296 1.408 . S
C297 H319 0.930 . S
C298 O308 1.281 . S
C298 O309 1.254 . S
C299 O310 1.236 . S
C299 O311 1.266 . S
O300 Tb280 2.484 . S
O300 C282 1.248 . S
O301 Tb280 2.440 . S
O301 C282 1.266 . S
O302 Tb280 2.658 . S
O302 Tb281 2.325 . S
O302 C289 1.281 . S
O303 Tb280 2.409 . S
O303 C289 1.254 . S
O304 Tb280 2.378 . S
O304 C290 1.236 . S
O305 Tb281 2.341 . S
O305 C290 1.266 . S
O306 Tb281 2.484 . S
O306 C291 1.248 . S
O307 Tb281 2.440 . S
O307 C291 1.266 . S
O308 Tb280 2.325 . S
O308 Tb281 2.658 . S
O308 C298 1.281 . S
O309 Tb281 2.409 . S
O309 C298 1.254 . S
O310 Tb281 2.378 . S
O310 C299 1.236 . S
O311 Tb280 2.341 . S
O311 C299 1.266 . S
H312 C284 0.929 . S
H313 C285 0.931 . S
H314 C287 0.930 . S
H315 C288 0.930 . S
H316 C293 0.929 . S
H317 C294 0.931 . S
H318 C296 0.930 . S
H319 C297 0.930 . S
Tb320 C322 2.809 . S
Tb320 O340 2.484 . S
Tb320 O341 2.440 . S
Tb320 O342 2.658 . S
Tb320 O343 2.409 . S
Tb320 O344 2.378 . S
Tb320 O348 2.325 . S
Tb320 O351 2.341 . S
Tb321 C331 2.809 . S
Tb321 O342 2.325 . S
Tb321 O345 2.341 . S
Tb321 O346 2.484 . S
Tb321 O347 2.440 . S
Tb321 O348 2.658 . S
Tb321 O349 2.409 . S
Tb321 O350 2.378 . S
C322 Tb320 2.809 . S
C322 C323 1.514 . S
C322 O340 1.248 . S
C322 O341 1.266 . S
C323 C322 1.514 . S
C323 C324 1.359 . S
C323 C328 1.348 . S
C324 C323 1.359 . S
C324 C325 1.380 . S
C324 H352 0.929 . S
C325 C324 1.380 . S
C325 C326 1.347 . S
C325 H353 0.931 . S
C326 C325 1.347 . S
C326 C327 1.369 . S
C327 C326 1.369 . S
C327 C328 1.408 . S
C327 H354 0.930 . S
C328 C323 1.348 . S
C328 C327 1.408 . S
C328 H355 0.930 . S
C329 O342 1.281 . S
C329 O343 1.254 . S
C330 O344 1.236 . S
C330 O345 1.266 . S
C331 Tb321 2.809 . S
C331 C332 1.514 . S
C331 O346 1.248 . S
C331 O347 1.266 . S
C332 C331 1.514 . S
C332 C333 1.359 . S
C332 C337 1.348 . S
C333 C332 1.359 . S
C333 C334 1.380 . S
C333 H356 0.929 . S
C334 C333 1.380 . S
C334 C335 1.347 . S
C334 H357 0.931 . S
C335 C334 1.347 . S
C335 C336 1.369 . S
C336 C335 1.369 . S
C336 C337 1.408 . S
C336 H358 0.930 . S
C337 C332 1.348 . S
C337 C336 1.408 . S
C337 H359 0.930 . S
C338 O348 1.281 . S
C338 O349 1.254 . S
C339 O350 1.236 . S
C339 O351 1.266 . S
O340 Tb320 2.484 . S
O340 C322 1.248 . S
O341 Tb320 2.440 . S
O341 C322 1.266 . S
O342 Tb320 2.658 . S
O342 Tb321 2.325 . S
O342 C329 1.281 . S
O343 Tb320 2.409 . S
O343 C329 1.254 . S
O344 Tb320 2.378 . S
O344 C330 1.236 . S
O345 Tb321 2.341 . S
O345 C330 1.266 . S
O346 Tb321 2.484 . S
O346 C331 1.248 . S
O347 Tb321 2.440 . S
O347 C331 1.266 . S
O348 Tb320 2.325 . S
O348 Tb321 2.658 . S
O348 C338 1.281 . S
O349 Tb321 2.409 . S
O349 C338 1.254 . S
O350 Tb321 2.378 . S
O350 C339 1.236 . S
O351 Tb320 2.341 . S
O351 C339 1.266 . S
H352 C324 0.929 . S
H353 C325 0.931 . S
H354 C327 0.930 . S
H355 C328 0.930 . S
H356 C333 0.929 . S
H357 C334 0.931 . S
H358 C336 0.930 . S
H359 C337 0.930 . S
Tb360 C362 2.809 . S
Tb360 O380 2.484 . S
Tb360 O381 2.440 . S
Tb360 O382 2.658 . S
Tb360 O383 2.409 . S
Tb360 O384 2.378 . S
Tb360 O388 2.325 . S
Tb360 O391 2.341 . S
Tb361 C371 2.809 . S
Tb361 O382 2.325 . S
Tb361 O385 2.341 . S
Tb361 O386 2.484 . S
Tb361 O387 2.440 . S
Tb361 O388 2.658 . S
Tb361 O389 2.409 . S
Tb361 O390 2.378 . S
C362 Tb360 2.809 . S
C362 C363 1.514 . S
C362 O380 1.248 . S
C362 O381 1.266 . S
C363 C362 1.514 . S
C363 C364 1.359 . S
C363 C368 1.348 . S
C364 C363 1.359 . S
C364 C365 1.380 . S
C364 H392 0.929 . S
C365 C364 1.380 . S
C365 C366 1.347 . S
C365 H393 0.931 . S
C366 C365 1.347 . S
C366 C367 1.369 . S
C367 C366 1.369 . S
C367 C368 1.408 . S
C367 H394 0.930 . S
C368 C363 1.348 . S
C368 C367 1.408 . S
C368 H395 0.930 . S
C369 O382 1.281 . S
C369 O383 1.254 . S
C370 O384 1.236 . S
C370 O385 1.266 . S
C371 Tb361 2.809 . S
C371 C372 1.514 . S
C371 O386 1.248 . S
C371 O387 1.266 . S
C372 C371 1.514 . S
C372 C373 1.359 . S
C372 C377 1.348 . S
C373 C372 1.359 . S
C373 C374 1.394 . S
C373 H396 0.929 . S
C374 C373 1.394 . S
C374 C375 1.341 1_554 S
C374 H397 0.922 1_554 S
C375 C374 1.341 1_556 S
C375 C376 1.365 1_556 S
C376 C375 1.365 1_554 S
C376 C377 1.414 . S
C376 H398 0.928 1_554 S
C377 C372 1.348 . S
C377 C376 1.414 . S
C377 H399 0.930 . S
C378 O388 1.281 . S
C378 O389 1.254 . S
C379 O390 1.236 . S
C379 O391 1.266 . S
O380 Tb360 2.484 . S
O380 C362 1.248 . S
O381 Tb360 2.440 . S
O381 C362 1.266 . S
O382 Tb360 2.658 . S
O382 Tb361 2.325 . S
O382 C369 1.281 . S
O383 Tb360 2.409 . S
O383 C369 1.254 . S
O384 Tb360 2.378 . S
O384 C370 1.236 . S
O385 Tb361 2.341 . S
O385 C370 1.266 . S
O386 Tb361 2.484 . S
O386 C371 1.248 . S
O387 Tb361 2.440 . S
O387 C371 1.266 . S
O388 Tb360 2.325 . S
O388 Tb361 2.658 . S
O388 C378 1.281 . S
O389 Tb361 2.409 . S
O389 C378 1.254 . S
O390 Tb361 2.378 . S
O390 C379 1.236 . S
O391 Tb360 2.341 . S
O391 C379 1.266 . S
H392 C364 0.929 . S
H393 C365 0.931 . S
H394 C367 0.930 . S
H395 C368 0.930 . S
H396 C373 0.929 . S
H397 C374 0.922 1_556 S
H398 C376 0.928 1_556 S
H399 C377 0.930 . S
Tb400 C402 2.809 . S
Tb400 O420 2.484 . S
Tb400 O421 2.440 . S
Tb400 O422 2.658 . S
Tb400 O423 2.409 . S
Tb400 O424 2.378 . S
Tb400 O428 2.325 . S
Tb400 O431 2.341 . S
Tb401 C411 2.809 . S
Tb401 O422 2.325 . S
Tb401 O425 2.341 . S
Tb401 O426 2.484 . S
Tb401 O427 2.440 . S
Tb401 O428 2.658 . S
Tb401 O429 2.409 . S
Tb401 O430 2.378 . S
C402 Tb400 2.809 . S
C402 C403 1.514 1_556 S
C402 O420 1.248 . S
C402 O421 1.266 . S
C403 C402 1.514 1_554 S
C403 C404 1.359 . S
C403 C408 1.348 . S
C404 C403 1.359 . S
C404 C405 1.380 . S
C404 H432 0.929 . S
C405 C404 1.380 . S
C405 C406 1.347 . S
C405 H433 0.931 . S
C406 C405 1.347 . S
C406 C407 1.369 . S
C407 C406 1.369 . S
C407 C408 1.408 . S
C407 H434 0.930 . S
C408 C403 1.348 . S
C408 C407 1.408 . S
C408 H435 0.915 1_554 S
C409 O422 1.281 . S
C409 O423 1.254 . S
C410 O424 1.236 . S
C410 O425 1.266 . S
C411 Tb401 2.809 . S
C411 C412 1.514 . S
C411 O426 1.248 . S
C411 O427 1.266 . S
C412 C411 1.514 . S
C412 C413 1.359 . S
C412 C417 1.348 . S
C413 C412 1.359 . S
C413 C414 1.380 . S
C413 H436 0.929 . S
C414 C413 1.380 . S
C414 C415 1.347 . S
C414 H437 0.931 . S
C415 C414 1.347 . S
C415 C416 1.369 . S
C416 C415 1.369 . S
C416 C417 1.408 . S
C416 H438 0.930 . S
C417 C412 1.348 . S
C417 C416 1.408 . S
C417 H439 0.930 . S
C418 O428 1.281 . S
C418 O429 1.254 . S
C419 O430 1.236 . S
C419 O431 1.266 . S
O420 Tb400 2.484 . S
O420 C402 1.248 . S
O421 Tb400 2.440 . S
O421 C402 1.266 . S
O422 Tb400 2.658 . S
O422 Tb401 2.325 . S
O422 C409 1.281 . S
O423 Tb400 2.409 . S
O423 C409 1.254 . S
O424 Tb400 2.378 . S
O424 C410 1.236 . S
O425 Tb401 2.341 . S
O425 C410 1.266 . S
O426 Tb401 2.484 . S
O426 C411 1.248 . S
O427 Tb401 2.440 . S
O427 C411 1.266 . S
O428 Tb400 2.325 . S
O428 Tb401 2.658 . S
O428 C418 1.281 . S
O429 Tb401 2.409 . S
O429 C418 1.254 . S
O430 Tb401 2.378 . S
O430 C419 1.236 . S
O431 Tb400 2.341 . S
O431 C419 1.266 . S
H432 C404 0.929 . S
H433 C405 0.931 . S
H434 C407 0.930 . S
H435 C408 0.915 1_556 S
H436 C413 0.929 . S
H437 C414 0.931 . S
H438 C416 0.930 . S
H439 C417 0.930 . S
Tb440 C442 2.809 . S
Tb440 O460 2.484 . S
Tb440 O461 2.440 . S
Tb440 O462 2.658 . S
Tb440 O463 2.409 . S
Tb440 O464 2.378 . S
Tb440 O468 2.325 . S
Tb440 O471 2.341 . S
Tb441 C451 2.809 . S
Tb441 O462 2.325 . S
Tb441 O465 2.341 . S
Tb441 O466 2.484 . S
Tb441 O467 2.440 . S
Tb441 O468 2.658 . S
Tb441 O469 2.409 . S
Tb441 O470 2.378 . S
C442 Tb440 2.809 . S
C442 C443 1.514 . S
C442 O460 1.248 . S
C442 O461 1.266 . S
C443 C442 1.514 . S
C443 C444 1.359 . S
C443 C448 1.348 . S
C444 C443 1.359 . S
C444 C445 1.380 . S
C444 H472 0.929 . S
C445 C444 1.380 . S
C445 C446 1.347 . S
C445 H473 0.931 . S
C446 C445 1.347 . S
C446 C447 1.369 . S
C447 C446 1.369 . S
C447 C448 1.408 . S
C447 H474 0.930 . S
C448 C443 1.348 . S
C448 C447 1.408 . S
C448 H475 0.930 . S
C449 O462 1.281 . S
C449 O463 1.254 . S
C450 O464 1.236 . S
C450 O465 1.266 . S
C451 Tb441 2.809 . S
C451 C452 1.514 . S
C451 O466 1.248 . S
C451 O467 1.266 . S
C452 C451 1.514 . S
C452 C453 1.359 . S
C452 C457 1.348 . S
C453 C452 1.359 . S
C453 C454 1.380 . S
C453 H476 0.929 . S
C454 C453 1.380 . S
C454 C455 1.347 . S
C454 H477 0.931 . S
C455 C454 1.347 . S
C455 C456 1.369 . S
C456 C455 1.369 . S
C456 C457 1.408 . S
C456 H478 0.930 . S
C457 C452 1.348 . S
C457 C456 1.408 . S
C457 H479 0.930 . S
C458 O468 1.281 . S
C458 O469 1.254 . S
C459 O470 1.236 . S
C459 O471 1.266 . S
O460 Tb440 2.484 . S
O460 C442 1.248 . S
O461 Tb440 2.440 . S
O461 C442 1.266 . S
O462 Tb440 2.658 . S
O462 Tb441 2.325 . S
O462 C449 1.281 . S
O463 Tb440 2.409 . S
O463 C449 1.254 . S
O464 Tb440 2.378 . S
O464 C450 1.236 . S
O465 Tb441 2.341 . S
O465 C450 1.266 . S
O466 Tb441 2.484 . S
O466 C451 1.248 . S
O467 Tb441 2.440 . S
O467 C451 1.266 . S
O468 Tb440 2.325 . S
O468 Tb441 2.658 . S
O468 C458 1.281 . S
O469 Tb441 2.409 . S
O469 C458 1.254 . S
O470 Tb441 2.378 . S
O470 C459 1.236 . S
O471 Tb440 2.341 . S
O471 C459 1.266 . S
H472 C444 0.929 . S
H473 C445 0.931 . S
H474 C447 0.930 . S
H475 C448 0.930 . S
H476 C453 0.929 . S
H477 C454 0.931 . S
H478 C456 0.930 . S
H479 C457 0.930 . S
Tb480 C482 2.809 . S
Tb480 O500 2.484 . S
Tb480 O501 2.440 . S
Tb480 O502 2.658 . S
Tb480 O503 2.409 . S
Tb480 O504 2.378 . S
Tb480 O508 2.325 . S
Tb480 O511 2.341 . S
Tb481 C491 2.809 . S
Tb481 O502 2.325 . S
Tb481 O505 2.341 . S
Tb481 O506 2.484 . S
Tb481 O507 2.440 . S
Tb481 O508 2.658 . S
Tb481 O509 2.409 . S
Tb481 O510 2.378 . S
C482 Tb480 2.809 . S
C482 C483 1.514 . S
C482 O500 1.248 . S
C482 O501 1.266 . S
C483 C482 1.514 . S
C483 C484 1.359 . S
C483 C488 1.348 . S
C484 C483 1.359 . S
C484 C485 1.380 . S
C484 H512 0.929 . S
C485 C484 1.380 . S
C485 C486 1.347 . S
C485 H513 0.931 . S
C486 C485 1.347 . S
C486 C487 1.369 . S
C487 C486 1.369 . S
C487 C488 1.408 . S
C487 H514 0.930 . S
C488 C483 1.348 . S
C488 C487 1.408 . S
C488 H515 0.930 . S
C489 O502 1.281 . S
C489 O503 1.254 . S
C490 O504 1.236 . S
C490 O505 1.266 . S
C491 Tb481 2.809 . S
C491 C492 1.514 . S
C491 O506 1.248 . S
C491 O507 1.266 . S
C492 C491 1.514 . S
C492 C493 1.359 . S
C492 C497 1.348 . S
C493 C492 1.359 . S
C493 C494 1.380 . S
C493 H516 0.929 . S
C494 C493 1.380 . S
C494 C495 1.347 . S
C494 H517 0.931 . S
C495 C494 1.347 . S
C495 C496 1.369 . S
C496 C495 1.369 . S
C496 C497 1.408 . S
C496 H518 0.930 . S
C497 C492 1.348 . S
C497 C496 1.408 . S
C497 H519 0.930 . S
C498 O508 1.281 . S
C498 O509 1.254 . S
C499 O510 1.236 . S
C499 O511 1.266 . S
O500 Tb480 2.484 . S
O500 C482 1.248 . S
O501 Tb480 2.440 . S
O501 C482 1.266 . S
O502 Tb480 2.658 . S
O502 Tb481 2.325 . S
O502 C489 1.281 . S
O503 Tb480 2.409 . S
O503 C489 1.254 . S
O504 Tb480 2.378 . S
O504 C490 1.236 . S
O505 Tb481 2.341 . S
O505 C490 1.266 . S
O506 Tb481 2.484 . S
O506 C491 1.248 . S
O507 Tb481 2.440 . S
O507 C491 1.266 . S
O508 Tb480 2.325 . S
O508 Tb481 2.658 . S
O508 C498 1.281 . S
O509 Tb481 2.409 . S
O509 C498 1.254 . S
O510 Tb481 2.378 . S
O510 C499 1.236 . S
O511 Tb480 2.341 . S
O511 C499 1.266 . S
H512 C484 0.929 . S
H513 C485 0.931 . S
H514 C487 0.930 . S
H515 C488 0.930 . S
H516 C493 0.929 . S
H517 C494 0.931 . S
H518 C496 0.930 . S
H519 C497 0.930 . S
Tb520 C522 2.809 . S
Tb520 O540 2.484 . S
Tb520 O541 2.440 . S
Tb520 O542 2.658 . S
Tb520 O543 2.409 . S
Tb520 O544 2.378 . S
Tb520 O548 2.325 . S
Tb520 O551 2.341 . S
Tb521 C531 2.809 . S
Tb521 O542 2.325 . S
Tb521 O545 2.341 . S
Tb521 O546 2.484 . S
Tb521 O547 2.440 . S
Tb521 O548 2.658 . S
Tb521 O549 2.409 . S
Tb521 O550 2.378 . S
C522 Tb520 2.809 . S
C522 C523 1.514 . S
C522 O540 1.248 . S
C522 O541 1.266 . S
C523 C522 1.514 . S
C523 C524 1.359 1_554 S
C523 C528 1.348 1_454 S
C524 C523 1.359 1_556 S
C524 C525 1.380 1_455 S
C524 H552 0.929 . S
C525 C524 1.380 1_655 S
C525 C526 1.347 . S
C525 H553 0.931 . S
C526 C525 1.347 . S
C526 C527 1.369 . S
C527 C526 1.369 . S
C527 C528 1.408 . S
C527 H554 0.930 . S
C528 C523 1.348 1_656 S
C528 C527 1.408 . S
C528 H555 0.930 1_556 S
C529 O542 1.281 . S
C529 O543 1.254 . S
C530 O544 1.236 . S
C530 O545 1.266 . S
C531 Tb521 2.809 . S
C531 C532 1.514 . S
C531 O546 1.248 . S
C531 O547 1.266 . S
C532 C531 1.514 . S
C532 C533 1.359 . S
C532 C537 1.348 . S
C533 C532 1.359 . S
C533 C534 1.380 . S
C533 H556 0.929 . S
C534 C533 1.380 . S
C534 C535 1.347 . S
C534 H557 0.931 . S
C535 C534 1.347 . S
C535 C536 1.369 . S
C536 C535 1.369 . S
C536 C537 1.408 . S
C536 H558 0.930 . S
C537 C532 1.348 . S
C537 C536 1.408 . S
C537 H559 0.930 . S
C538 O548 1.281 . S
C538 O549 1.254 . S
C539 O550 1.236 . S
C539 O551 1.266 . S
O540 Tb520 2.484 . S
O540 C522 1.248 . S
O541 Tb520 2.440 . S
O541 C522 1.266 . S
O542 Tb520 2.658 . S
O542 Tb521 2.325 . S
O542 C529 1.281 . S
O543 Tb520 2.409 . S
O543 C529 1.254 . S
O544 Tb520 2.378 . S
O544 C530 1.236 . S
O545 Tb521 2.341 . S
O545 C530 1.266 . S
O546 Tb521 2.484 . S
O546 C531 1.248 . S
O547 Tb521 2.440 . S
O547 C531 1.266 . S
O548 Tb520 2.325 . S
O548 Tb521 2.658 . S
O548 C538 1.281 . S
O549 Tb521 2.409 . S
O549 C538 1.254 . S
O550 Tb521 2.378 . S
O550 C539 1.236 . S
O551 Tb520 2.341 . S
O551 C539 1.266 . S
H552 C524 0.929 . S
H553 C525 0.931 . S
H554 C527 0.930 . S
H555 C528 0.930 1_554 S
H556 C533 0.929 . S
H557 C534 0.931 . S
H558 C536 0.930 . S
H559 C537 0.930 . S
Tb560 C562 2.809 . S
Tb560 O580 2.484 . S
Tb560 O581 2.440 . S
Tb560 O582 2.658 . S
Tb560 O583 2.409 . S
Tb560 O584 2.378 . S
Tb560 O588 2.325 . S
Tb560 O591 2.341 . S
Tb561 C571 2.809 . S
Tb561 O582 2.325 . S
Tb561 O585 2.341 . S
Tb561 O586 2.484 . S
Tb561 O587 2.440 . S
Tb561 O588 2.658 . S
Tb561 O589 2.409 . S
Tb561 O590 2.378 . S
C562 Tb560 2.809 . S
C562 C563 1.514 . S
C562 O580 1.248 . S
C562 O581 1.266 . S
C563 C562 1.514 . S
C563 C564 1.359 . S
C563 C568 1.348 . S
C564 C563 1.359 . S
C564 C565 1.380 . S
C564 H592 0.929 . S
C565 C564 1.380 . S
C565 C566 1.347 . S
C565 H593 0.931 . S
C566 C565 1.347 . S
C566 C567 1.369 . S
C567 C566 1.369 . S
C567 C568 1.408 . S
C567 H594 0.930 . S
C568 C563 1.348 . S
C568 C567 1.408 . S
C568 H595 0.930 . S
C569 O582 1.281 . S
C569 O583 1.254 . S
C570 O584 1.236 . S
C570 O585 1.266 . S
C571 Tb561 2.809 . S
C571 C572 1.514 . S
C571 O586 1.248 . S
C571 O587 1.266 . S
C572 C571 1.514 . S
C572 C573 1.359 . S
C572 C577 1.348 . S
C573 C572 1.359 . S
C573 C574 1.380 . S
C573 H596 0.929 . S
C574 C573 1.380 . S
C574 C575 1.347 . S
C574 H597 0.931 . S
C575 C574 1.347 . S
C575 C576 1.369 . S
C576 C575 1.369 . S
C576 C577 1.408 . S
C576 H598 0.930 . S
C577 C572 1.348 . S
C577 C576 1.408 . S
C577 H599 0.930 . S
C578 O588 1.281 . S
C578 O589 1.254 . S
C579 O590 1.236 . S
C579 O591 1.266 . S
O580 Tb560 2.484 . S
O580 C562 1.248 . S
O581 Tb560 2.440 . S
O581 C562 1.266 . S
O582 Tb560 2.658 . S
O582 Tb561 2.325 . S
O582 C569 1.281 . S
O583 Tb560 2.409 . S
O583 C569 1.254 . S
O584 Tb560 2.378 . S
O584 C570 1.236 . S
O585 Tb561 2.341 . S
O585 C570 1.266 . S
O586 Tb561 2.484 . S
O586 C571 1.248 . S
O587 Tb561 2.440 . S
O587 C571 1.266 . S
O588 Tb560 2.325 . S
O588 Tb561 2.658 . S
O588 C578 1.281 . S
O589 Tb561 2.409 . S
O589 C578 1.254 . S
O590 Tb561 2.378 . S
O590 C579 1.236 . S
O591 Tb560 2.341 . S
O591 C579 1.266 . S
H592 C564 0.929 . S
H593 C565 0.931 . S
H594 C567 0.930 . S
H595 C568 0.930 . S
H596 C573 0.929 . S
H597 C574 0.931 . S
H598 C576 0.930 . S
H599 C577 0.930 . S
Tb600 C602 2.809 . S
Tb600 O620 2.484 . S
Tb600 O621 2.440 . S
Tb600 O622 2.658 1_655 S
Tb600 O623 2.409 . S
Tb600 O624 2.378 1_655 S
Tb600 O628 2.325 1_655 S
Tb600 O631 2.341 . S
Tb601 C611 2.809 . S
Tb601 O622 2.325 . S
Tb601 O625 2.341 . S
Tb601 O626 2.484 . S
Tb601 O627 2.440 . S
Tb601 O628 2.658 . S
Tb601 O629 2.409 . S
Tb601 O630 2.378 . S
C602 Tb600 2.809 . S
C602 C603 1.514 . S
C602 O620 1.248 . S
C602 O621 1.266 . S
C603 C602 1.514 . S
C603 C604 1.359 . S
C603 C608 1.348 . S
C604 C603 1.359 . S
C604 C605 1.380 . S
C604 H632 0.929 . S
C605 C604 1.380 . S
C605 C606 1.347 . S
C605 H633 0.931 . S
C606 C605 1.347 . S
C606 C607 1.369 . S
C607 C606 1.369 . S
C607 C608 1.408 . S
C607 H634 0.930 . S
C608 C603 1.348 . S
C608 C607 1.408 . S
C608 H635 0.930 . S
C609 O622 1.281 . S
C609 O623 1.254 1_455 S
C610 O624 1.236 . S
C610 O625 1.266 . S
C611 Tb601 2.809 . S
C611 C612 1.514 . S
C611 O626 1.248 . S
C611 O627 1.266 . S
C612 C611 1.514 . S
C612 C613 1.359 1_556 S
C612 C617 1.348 1_556 S
C613 C612 1.359 1_554 S
C613 C614 1.380 . S
C613 H636 0.929 . S
C614 C613 1.380 . S
C614 C615 1.347 . S
C614 H637 0.931 . S
C615 C614 1.347 . S
C615 C616 1.369 . S
C616 C615 1.369 . S
C616 C617 1.408 . S
C616 H638 0.930 . S
C617 C612 1.348 1_554 S
C617 C616 1.408 . S
C617 H639 0.930 1_554 S
C618 O628 1.281 . S
C618 O629 1.254 . S
C619 O630 1.236 1_655 S
C619 O631 1.266 . S
O620 Tb600 2.484 . S
O620 C602 1.248 . S
O621 Tb600 2.440 . S
O621 C602 1.266 . S
O622 Tb600 2.658 1_455 S
O622 Tb601 2.325 . S
O622 C609 1.281 . S
O623 Tb600 2.409 . S
O623 C609 1.254 1_655 S
O624 Tb600 2.378 1_455 S
O624 C610 1.236 . S
O625 Tb601 2.341 . S
O625 C610 1.266 . S
O626 Tb601 2.484 . S
O626 C611 1.248 . S
O627 Tb601 2.440 . S
O627 C611 1.266 . S
O628 Tb600 2.325 1_455 S
O628 Tb601 2.658 . S
O628 C618 1.281 . S
O629 Tb601 2.409 . S
O629 C618 1.254 . S
O630 Tb601 2.378 . S
O630 C619 1.236 1_455 S
O631 Tb600 2.341 . S
O631 C619 1.266 . S
H632 C604 0.929 . S
H633 C605 0.931 . S
H634 C607 0.930 . S
H635 C608 0.930 . S
H636 C613 0.929 . S
H637 C614 0.931 . S
H638 C616 0.930 . S
H639 C617 0.930 1_556 S
H640 C658 0.951 . S
H641 C660 0.951 1_556 S
H642 C662 0.950 . S
H643 C663 0.950 . S
H644 C665 0.950 . S
H645 C668 0.950 . S
H646 C669 0.950 . S
H647 C671 0.950 . S
H648 C672 0.950 . S
H649 C673 0.951 . S
H650 C675 0.951 . S
H651 C677 0.950 . S
H652 C678 0.950 . S
H653 C680 0.950 . S
H654 C683 0.950 . S
H655 C684 0.950 . S
H656 C686 0.950 . S
H657 C687 0.950 . S
C658 H640 0.951 . S
C658 C659 1.366 . S
C658 C660 1.388 . S
C659 C658 1.366 . S
C659 C663 1.385 . S
C660 H641 0.951 1_554 S
C660 C658 1.388 . S
C660 C661 1.366 . S
C661 C660 1.366 . S
C661 C662 1.414 . S
C661 C664 1.499 1_554 S
C662 H642 0.950 . S
C662 C661 1.414 . S
C662 C663 1.374 . S
C663 H643 0.950 . S
C663 C659 1.385 . S
C663 C662 1.374 . S
C664 C661 1.499 1_556 S
C664 C665 1.373 . S
C664 C666 1.389 . S
C665 H644 0.950 . S
C665 C664 1.373 . S
C665 C681 1.377 . S
C666 C664 1.389 . S
C666 C667 1.524 . S
C666 C680 1.377 . S
C667 C666 1.524 . S
C667 C668 1.397 1_556 S
C667 C672 1.363 . S
C668 H645 0.950 . S
C668 C667 1.397 1_554 S
C668 C669 1.334 . S
C669 H646 0.950 . S
C669 C668 1.334 . S
C669 C670 1.287 . S
C670 C669 1.287 . S
C670 C671 1.524 1_554 S
C670 H689 0.913 . S
C671 H647 0.950 . S
C671 C670 1.524 1_556 S
C671 C672 1.415 . S
C672 H648 0.950 . S
C672 C667 1.363 . S
C672 C671 1.415 . S
C673 H649 0.951 . S
C673 C674 1.366 . S
C673 C675 1.388 . S
C674 C673 1.366 . S
C674 C678 1.385 . S
C675 H650 0.951 . S
C675 C673 1.388 . S
C675 C676 1.366 . S
C676 C675 1.366 . S
C676 C677 1.414 . S
C676 C679 1.499 . S
C677 H651 0.950 . S
C677 C676 1.414 . S
C677 C678 1.374 . S
C678 H652 0.950 . S
C678 C674 1.385 . S
C678 C677 1.374 . S
C679 C676 1.499 . S
C679 C680 1.373 . S
C679 C681 1.389 . S
C680 H653 0.950 . S
C680 C666 1.377 . S
C680 C679 1.373 . S
C681 C665 1.377 . S
C681 C679 1.389 . S
C681 C682 1.524 . S
C682 C681 1.524 . S
C682 C683 1.397 . S
C682 C687 1.363 . S
C683 H654 0.950 . S
C683 C682 1.397 . S
C683 C684 1.334 . S
C684 H655 0.950 . S
C684 C683 1.334 . S
C684 C685 1.287 . S
C685 C684 1.287 . S
C685 C686 1.524 . S
C685 H688 0.999 . S
C686 H656 0.950 . S
C686 C685 1.524 . S
C686 C687 1.415 . S
C687 H657 0.950 . S
C687 C682 1.363 . S
C687 C686 1.415 . S
H688 C685 0.999 . S
H689 C670 0.913 . S
H690 C708 0.951 . S
H691 C710 0.951 . S
H692 C712 0.950 . S
H693 C713 0.950 . S
H694 C715 0.950 . S
H695 C718 0.950 . S
H696 C719 0.950 . S
H697 C721 0.950 . S
H698 C722 0.950 . S
H699 C723 0.951 . S
H700 C725 0.951 . S
H701 C727 0.950 . S
H702 C728 0.950 . S
H703 C730 0.950 . S
H704 C733 0.950 . S
H705 C734 0.950 . S
H706 C736 0.950 . S
H707 C737 0.950 . S
C708 H690 0.951 . S
C708 C709 1.366 . S
C708 C710 1.388 . S
C709 C708 1.366 . S
C709 C713 1.385 . S
C710 H691 0.951 . S
C710 C708 1.388 . S
C710 C711 1.366 . S
C711 C710 1.366 . S
C711 C712 1.414 . S
C711 C714 1.499 . S
C712 H692 0.950 . S
C712 C711 1.414 . S
C712 C713 1.374 . S
C713 H693 0.950 . S
C713 C709 1.385 . S
C713 C712 1.374 . S
C714 C711 1.499 . S
C714 C715 1.373 . S
C714 C716 1.389 . S
C715 H694 0.950 . S
C715 C714 1.373 . S
C715 C731 1.377 . S
C716 C714 1.389 . S
C716 C717 1.524 . S
C716 C730 1.377 . S
C717 C716 1.524 . S
C717 C718 1.397 . S
C717 C722 1.363 . S
C718 H695 0.950 . S
C718 C717 1.397 . S
C718 C719 1.334 . S
C719 H696 0.950 . S
C719 C718 1.334 . S
C719 C720 1.287 . S
C720 C719 1.287 . S
C720 C721 1.524 . S
C720 H739 0.913 . S
C721 H697 0.950 . S
C721 C720 1.524 . S
C721 C722 1.415 . S
C722 H698 0.950 . S
C722 C717 1.363 . S
C722 C721 1.415 . S
C723 H699 0.951 . S
C723 C724 1.366 . S
C723 C725 1.388 . S
C724 C723 1.366 . S
C724 C728 1.385 . S
C725 H700 0.951 . S
C725 C723 1.388 . S
C725 C726 1.366 . S
C726 C725 1.366 . S
C726 C727 1.414 . S
C726 C729 1.499 . S
C727 H701 0.950 . S
C727 C726 1.414 . S
C727 C728 1.374 . S
C728 H702 0.950 . S
C728 C724 1.385 . S
C728 C727 1.374 . S
C729 C726 1.499 . S
C729 C730 1.373 . S
C729 C731 1.389 . S
C730 H703 0.950 . S
C730 C716 1.377 . S
C730 C729 1.373 . S
C731 C715 1.377 . S
C731 C729 1.389 . S
C731 C732 1.524 . S
C732 C731 1.524 . S
C732 C733 1.397 . S
C732 C737 1.363 . S
C733 H704 0.950 . S
C733 C732 1.397 . S
C733 C734 1.334 . S
C734 H705 0.950 . S
C734 C733 1.334 . S
C734 C735 1.287 . S
C735 C734 1.287 . S
C735 C736 1.524 . S
C735 H738 0.999 . S
C736 H706 0.950 . S
C736 C735 1.524 . S
C736 C737 1.415 . S
C737 H707 0.950 . S
C737 C732 1.363 . S
C737 C736 1.415 . S
H738 C735 0.999 . S
H739 C720 0.913 . S
H740 C758 0.951 . S
H741 C760 0.951 . S
H742 C762 0.950 . S
H743 C763 0.950 . S
H744 C765 0.950 . S
H745 C768 0.950 . S
H746 C769 0.950 . S
H747 C771 0.950 . S
H748 C772 0.950 . S
H749 C773 0.951 . S
H750 C775 0.951 . S
H751 C777 0.950 . S
H752 C778 0.950 . S
H753 C780 0.950 . S
H754 C783 0.950 . S
H755 C784 0.950 . S
H756 C786 0.950 . S
H757 C787 0.950 . S
C758 H740 0.951 . S
C758 C759 1.366 . S
C758 C760 1.388 . S
C759 C758 1.366 . S
C759 C763 1.385 . S
C760 H741 0.951 . S
C760 C758 1.388 . S
C760 C761 1.366 . S
C761 C760 1.366 . S
C761 C762 1.414 . S
C761 C764 1.499 . S
C762 H742 0.950 . S
C762 C761 1.414 . S
C762 C763 1.374 . S
C763 H743 0.950 . S
C763 C759 1.385 . S
C763 C762 1.374 . S
C764 C761 1.499 . S
C764 C765 1.373 . S
C764 C766 1.389 . S
C765 H744 0.950 . S
C765 C764 1.373 . S
C765 C781 1.377 . S
C766 C764 1.389 . S
C766 C767 1.524 . S
C766 C780 1.377 . S
C767 C766 1.524 . S
C767 C768 1.397 . S
C767 C772 1.363 . S
C768 H745 0.950 . S
C768 C767 1.397 . S
C768 C769 1.334 . S
C769 H746 0.950 . S
C769 C768 1.334 . S
C769 C770 1.287 . S
C770 C769 1.287 . S
C770 C771 1.524 . S
C770 H789 0.913 . S
C771 H747 0.950 . S
C771 C770 1.524 . S
C771 C772 1.415 . S
C772 H748 0.950 . S
C772 C767 1.363 . S
C772 C771 1.415 . S
C773 H749 0.951 . S
C773 C774 1.366 . S
C773 C775 1.388 . S
C774 C773 1.366 . S
C774 C778 1.385 . S
C775 H750 0.951 . S
C775 C773 1.388 . S
C775 C776 1.366 . S
C776 C775 1.366 . S
C776 C777 1.414 . S
C776 C779 1.499 . S
C777 H751 0.950 . S
C777 C776 1.414 . S
C777 C778 1.374 . S
C778 H752 0.950 . S
C778 C774 1.385 . S
C778 C777 1.374 . S
C779 C776 1.499 . S
C779 C780 1.373 . S
C779 C781 1.389 . S
C780 H753 0.950 . S
C780 C766 1.377 . S
C780 C779 1.373 . S
C781 C765 1.377 . S
C781 C779 1.389 . S
C781 C782 1.524 . S
C782 C781 1.524 . S
C782 C783 1.397 . S
C782 C787 1.363 . S
C783 H754 0.950 . S
C783 C782 1.397 . S
C783 C784 1.334 . S
C784 H755 0.950 . S
C784 C783 1.334 . S
C784 C785 1.287 . S
C785 C784 1.287 . S
C785 C786 1.524 . S
C785 H788 0.999 . S
C786 H756 0.950 . S
C786 C785 1.524 . S
C786 C787 1.415 . S
C787 H757 0.950 . S
C787 C782 1.363 . S
C787 C786 1.415 . S
H788 C785 0.999 . S
H789 C770 0.913 . S
H790 C808 0.951 . S
H791 C810 0.951 . S
H792 C812 0.950 . S
H793 C813 0.950 . S
H794 C815 0.950 . S
H795 C818 0.950 . S
H796 C819 0.950 . S
H797 C821 0.950 . S
H798 C822 0.950 . S
H799 C823 0.951 . S
H800 C825 0.951 . S
H801 C827 0.950 . S
H802 C828 0.950 . S
H803 C830 0.950 . S
H804 C833 0.950 . S
H805 C834 0.950 . S
H806 C836 0.950 . S
H807 C837 0.950 . S
C808 H790 0.951 . S
C808 C809 1.366 . S
C808 C810 1.388 . S
C809 C808 1.366 . S
C809 C813 1.385 . S
C810 H791 0.951 . S
C810 C808 1.388 . S
C810 C811 1.366 . S
C811 C810 1.366 . S
C811 C812 1.414 . S
C811 C814 1.499 . S
C812 H792 0.950 . S
C812 C811 1.414 . S
C812 C813 1.374 . S
C813 H793 0.950 . S
C813 C809 1.385 . S
C813 C812 1.374 . S
C814 C811 1.499 . S
C814 C815 1.373 . S
C814 C816 1.389 . S
C815 H794 0.950 . S
C815 C814 1.373 . S
C815 C831 1.377 . S
C816 C814 1.389 . S
C816 C817 1.524 . S
C816 C830 1.377 . S
C817 C816 1.524 . S
C817 C818 1.397 . S
C817 C822 1.363 . S
C818 H795 0.950 . S
C818 C817 1.397 . S
C818 C819 1.334 . S
C819 H796 0.950 . S
C819 C818 1.334 . S
C819 C820 1.287 . S
C820 C819 1.287 . S
C820 C821 1.524 . S
C820 H839 0.913 . S
C821 H797 0.950 . S
C821 C820 1.524 . S
C821 C822 1.415 . S
C822 H798 0.950 . S
C822 C817 1.363 . S
C822 C821 1.415 . S
C823 H799 0.951 . S
C823 C824 1.366 . S
C823 C825 1.388 . S
C824 C823 1.366 . S
C824 C828 1.385 . S
C825 H800 0.951 . S
C825 C823 1.388 . S
C825 C826 1.366 . S
C826 C825 1.366 . S
C826 C827 1.414 . S
C826 C829 1.499 . S
C827 H801 0.950 . S
C827 C826 1.414 . S
C827 C828 1.374 . S
C828 H802 0.950 . S
C828 C824 1.385 . S
C828 C827 1.374 . S
C829 C826 1.499 . S
C829 C830 1.373 . S
C829 C831 1.389 . S
C830 H803 0.950 . S
C830 C816 1.377 . S
C830 C829 1.373 . S
C831 C815 1.377 . S
C831 C829 1.389 . S
C831 C832 1.524 . S
C832 C831 1.524 . S
C832 C833 1.397 . S
C832 C837 1.363 . S
C833 H804 0.950 . S
C833 C832 1.397 . S
C833 C834 1.334 . S
C834 H805 0.950 . S
C834 C833 1.334 . S
C834 C835 1.287 . S
C835 C834 1.287 . S
C835 C836 1.524 . S
C835 H838 0.999 . S
C836 H806 0.950 . S
C836 C835 1.524 . S
C836 C837 1.415 . S
C837 H807 0.950 . S
C837 C832 1.363 . S
C837 C836 1.415 . S
H838 C835 0.999 . S
H839 C820 0.913 . S
H840 C858 0.951 . S
H841 C860 0.951 . S
H842 C862 0.950 . S
H843 C863 0.950 . S
H844 C865 0.950 . S
H845 C868 0.950 . S
H846 C869 0.950 . S
H847 C871 0.950 . S
H848 C872 0.950 . S
H849 C873 0.951 . S
H850 C875 0.951 1_554 S
H851 C877 0.950 . S
H852 C878 0.950 1_455 S
H853 C880 0.950 . S
H854 C883 0.950 . S
H855 C884 0.950 . S
H856 C886 0.950 . S
H857 C887 0.950 . S
C858 H840 0.951 . S
C858 C859 1.366 . S
C858 C860 1.388 . S
C859 C858 1.366 . S
C859 C863 1.385 . S
C860 H841 0.951 . S
C860 C858 1.388 . S
C860 C861 1.366 . S
C861 C860 1.366 . S
C861 C862 1.414 . S
C861 C864 1.499 . S
C862 H842 0.950 . S
C862 C861 1.414 . S
C862 C863 1.374 . S
C863 H843 0.950 . S
C863 C859 1.385 . S
C863 C862 1.374 . S
C864 C861 1.499 . S
C864 C865 1.373 . S
C864 C866 1.389 . S
C865 H844 0.950 . S
C865 C864 1.373 . S
C865 C881 1.377 . S
C866 C864 1.389 . S
C866 C867 1.524 . S
C866 C880 1.377 . S
C867 C866 1.524 . S
C867 C868 1.397 . S
C867 C872 1.363 . S
C868 H845 0.950 . S
C868 C867 1.397 . S
C868 C869 1.334 1_655 S
C869 H846 0.950 . S
C869 C868 1.334 1_455 S
C869 C870 1.287 . S
C870 C869 1.287 . S
C870 C871 1.524 . S
C870 H889 0.913 . S
C871 H847 0.950 . S
C871 C870 1.524 . S
C871 C872 1.415 1_455 S
C872 H848 0.950 . S
C872 C867 1.363 . S
C872 C871 1.415 1_655 S
C873 H849 0.951 . S
C873 C874 1.366 . S
C873 C875 1.388 . S
C874 C873 1.366 . S
C874 C878 1.385 . S
C875 H850 0.951 1_556 S
C875 C873 1.388 . S
C875 C876 1.366 . S
C876 C875 1.366 . S
C876 C877 1.414 . S
C876 C879 1.499 1_556 S
C877 H851 0.950 . S
C877 C876 1.414 . S
C877 C878 1.374 . S
C878 H852 0.950 1_655 S
C878 C874 1.385 . S
C878 C877 1.374 . S
C879 C876 1.499 1_554 S
C879 C880 1.373 . S
C879 C881 1.389 . S
C880 H853 0.950 . S
C880 C866 1.377 . S
C880 C879 1.373 . S
C881 C865 1.377 . S
C881 C879 1.389 . S
C881 C882 1.524 . S
C882 C881 1.524 . S
C882 C883 1.397 1_554 S
C882 C887 1.363 . S
C883 H854 0.950 . S
C883 C882 1.397 1_556 S
C883 C884 1.334 . S
C884 H855 0.950 . S
C884 C883 1.334 . S
C884 C885 1.287 . S
C885 C884 1.287 . S
C885 C886 1.524 1_556 S
C885 H888 0.999 . S
C886 H856 0.950 . S
C886 C885 1.524 1_554 S
C886 C887 1.415 . S
C887 H857 0.950 . S
C887 C882 1.363 . S
C887 C886 1.415 . S
H888 C885 0.999 . S
H889 C870 0.913 . S
H890 C908 0.951 . S
H891 C910 0.951 . S
H892 C912 0.950 . S
H893 C913 0.950 . S
H894 C915 0.950 . S
H895 C918 0.950 . S
H896 C919 0.950 . S
H897 C921 0.950 . S
H898 C922 0.950 . S
H899 C923 0.951 . S
H900 C925 0.951 . S
H901 C927 0.950 . S
H902 C928 0.950 . S
H903 C930 0.950 . S
H904 C933 0.950 . S
H905 C934 0.950 . S
H906 C936 0.950 . S
H907 C937 0.950 . S
C908 H890 0.951 . S
C908 C909 1.366 . S
C908 C910 1.388 . S
C909 C908 1.366 . S
C909 C913 1.385 . S
C910 H891 0.951 . S
C910 C908 1.388 . S
C910 C911 1.366 . S
C911 C910 1.366 . S
C911 C912 1.414 . S
C911 C914 1.499 . S
C912 H892 0.950 . S
C912 C911 1.414 . S
C912 C913 1.374 . S
C913 H893 0.950 . S
C913 C909 1.385 . S
C913 C912 1.374 . S
C914 C911 1.499 . S
C914 C915 1.373 . S
C914 C916 1.389 . S
C915 H894 0.950 . S
C915 C914 1.373 . S
C915 C931 1.377 . S
C916 C914 1.389 . S
C916 C917 1.524 . S
C916 C930 1.377 . S
C917 C916 1.524 . S
C917 C918 1.397 . S
C917 C922 1.363 . S
C918 H895 0.950 . S
C918 C917 1.397 . S
C918 C919 1.334 . S
C919 H896 0.950 . S
C919 C918 1.334 . S
C919 C920 1.287 . S
C920 C919 1.287 . S
C920 C921 1.524 . S
C920 H939 0.913 . S
C921 H897 0.950 . S
C921 C920 1.524 . S
C921 C922 1.415 . S
C922 H898 0.950 . S
C922 C917 1.363 . S
C922 C921 1.415 . S
C923 H899 0.951 . S
C923 C924 1.366 . S
C923 C925 1.388 . S
C924 C923 1.366 . S
C924 C928 1.385 . S
C925 H900 0.951 . S
C925 C923 1.388 . S
C925 C926 1.366 . S
C926 C925 1.366 . S
C926 C927 1.414 . S
C926 C929 1.499 . S
C927 H901 0.950 . S
C927 C926 1.414 . S
C927 C928 1.374 . S
C928 H902 0.950 . S
C928 C924 1.385 . S
C928 C927 1.374 . S
C929 C926 1.499 . S
C929 C930 1.373 . S
C929 C931 1.389 . S
C930 H903 0.950 . S
C930 C916 1.377 . S
C930 C929 1.373 . S
C931 C915 1.377 . S
C931 C929 1.389 . S
C931 C932 1.524 . S
C932 C931 1.524 . S
C932 C933 1.397 1_655 S
C932 C937 1.363 . S
C933 H904 0.950 . S
C933 C932 1.397 1_455 S
C933 C934 1.334 . S
C934 H905 0.950 . S
C934 C933 1.334 . S
C934 C935 1.287 . S
C935 C934 1.287 . S
C935 C936 1.524 . S
C935 H938 0.999 . S
C936 H906 0.950 . S
C936 C935 1.524 . S
C936 C937 1.415 1_455 S
C937 H907 0.950 . S
C937 C932 1.363 . S
C937 C936 1.415 1_655 S
H938 C935 0.999 . S
H939 C920 0.913 . S
H940 C958 0.951 . S
H941 C960 0.951 . S
H942 C962 0.950 . S
H943 C963 0.950 . S
H944 C965 0.950 . S
H945 C968 0.950 . S
H946 C969 0.950 . S
H947 C971 0.950 . S
H948 C972 0.950 . S
H949 C973 0.951 . S
H950 C975 0.951 . S
H951 C977 0.950 . S
H952 C978 0.950 . S
H953 C980 0.950 . S
H954 C983 0.950 . S
H955 C984 0.950 . S
H956 C986 0.950 . S
H957 C987 0.950 . S
C958 H940 0.951 . S
C958 C959 1.366 . S
C958 C960 1.388 . S
C959 C958 1.366 . S
C959 C963 1.385 . S
C960 H941 0.951 . S
C960 C958 1.388 . S
C960 C961 1.366 . S
C961 C960 1.366 . S
C961 C962 1.414 . S
C961 C964 1.499 . S
C962 H942 0.950 . S
C962 C961 1.414 . S
C962 C963 1.374 . S
C963 H943 0.950 . S
C963 C959 1.385 . S
C963 C962 1.374 . S
C964 C961 1.499 . S
C964 C965 1.373 . S
C964 C966 1.389 . S
C965 H944 0.950 . S
C965 C964 1.373 . S
C965 C981 1.377 . S
C966 C964 1.389 . S
C966 C967 1.524 . S
C966 C980 1.377 . S
C967 C966 1.524 . S
C967 C968 1.397 . S
C967 C972 1.363 . S
C968 H945 0.950 . S
C968 C967 1.397 . S
C968 C969 1.334 . S
C969 H946 0.950 . S
C969 C968 1.334 . S
C969 C970 1.287 . S
C970 C969 1.287 . S
C970 C971 1.524 . S
C970 H989 0.913 . S
C971 H947 0.950 . S
C971 C970 1.524 . S
C971 C972 1.415 . S
C972 H948 0.950 . S
C972 C967 1.363 . S
C972 C971 1.415 . S
C973 H949 0.951 . S
C973 C974 1.366 . S
C973 C975 1.388 . S
C974 C973 1.366 . S
C974 C978 1.385 . S
C975 H950 0.951 . S
C975 C973 1.388 . S
C975 C976 1.366 . S
C976 C975 1.366 . S
C976 C977 1.414 . S
C976 C979 1.499 . S
C977 H951 0.950 . S
C977 C976 1.414 . S
C977 C978 1.374 . S
C978 H952 0.950 . S
C978 C974 1.385 . S
C978 C977 1.374 . S
C979 C976 1.499 . S
C979 C980 1.373 . S
C979 C981 1.389 . S
C980 H953 0.950 . S
C980 C966 1.377 . S
C980 C979 1.373 . S
C981 C965 1.377 . S
C981 C979 1.389 . S
C981 C982 1.524 . S
C982 C981 1.524 . S
C982 C983 1.397 . S
C982 C987 1.363 . S
C983 H954 0.950 . S
C983 C982 1.397 . S
C983 C984 1.334 . S
C984 H955 0.950 . S
C984 C983 1.334 . S
C984 C985 1.287 . S
C985 C984 1.287 . S
C985 C986 1.524 . S
C985 H988 0.999 . S
C986 H956 0.950 . S
C986 C985 1.524 . S
C986 C987 1.415 . S
C987 H957 0.950 . S
C987 C982 1.363 . S
C987 C986 1.415 . S
H988 C985 0.999 . S
H989 C970 0.913 . S
H990 C1008 0.951 . S
H991 C1010 0.951 . S
H992 C1012 0.950 . S
H993 C1013 0.950 . S
H994 C1015 0.950 . S
H995 C1018 0.950 . S
H996 C1019 0.950 . S
H997 C1021 0.950 . S
H998 C1022 0.950 . S
H999 C1023 0.951 . S
H1000 C1025 0.951 . S
H1001 C1027 0.950 . S
H1002 C1028 0.950 . S
H1003 C1030 0.950 . S
H1004 C1033 0.950 . S
H1005 C1034 0.950 . S
H1006 C1036 0.950 . S
H1007 C1037 0.950 . S
C1008 H990 0.951 . S
C1008 C1009 1.366 . S
C1008 C1010 1.388 . S
C1009 C1008 1.366 . S
C1009 C1013 1.385 . S
C1010 H991 0.951 . S
C1010 C1008 1.388 . S
C1010 C1011 1.366 . S
C1011 C1010 1.366 . S
C1011 C1012 1.414 . S
C1011 C1014 1.499 . S
C1012 H992 0.950 . S
C1012 C1011 1.414 . S
C1012 C1013 1.374 . S
C1013 H993 0.950 . S
C1013 C1009 1.385 . S
C1013 C1012 1.374 . S
C1014 C1011 1.499 . S
C1014 C1015 1.373 . S
C1014 C1016 1.389 . S
C1015 H994 0.950 . S
C1015 C1014 1.373 . S
C1015 C1031 1.377 . S
C1016 C1014 1.389 . S
C1016 C1017 1.524 . S
C1016 C1030 1.377 . S
C1017 C1016 1.524 . S
C1017 C1018 1.397 . S
C1017 C1022 1.363 . S
C1018 H995 0.950 . S
C1018 C1017 1.397 . S
C1018 C1019 1.334 . S
C1019 H996 0.950 . S
C1019 C1018 1.334 . S
C1019 C1020 1.287 . S
C1020 C1019 1.287 . S
C1020 C1021 1.524 . S
C1020 H1039 0.913 . S
C1021 H997 0.950 . S
C1021 C1020 1.524 . S
C1021 C1022 1.415 . S
C1022 H998 0.950 . S
C1022 C1017 1.363 . S
C1022 C1021 1.415 . S
C1023 H999 0.951 . S
C1023 C1024 1.366 . S
C1023 C1025 1.388 . S
C1024 C1023 1.366 . S
C1024 C1028 1.385 . S
C1025 H1000 0.951 . S
C1025 C1023 1.388 . S
C1025 C1026 1.366 . S
C1026 C1025 1.366 . S
C1026 C1027 1.414 . S
C1026 C1029 1.499 . S
C1027 H1001 0.950 . S
C1027 C1026 1.414 . S
C1027 C1028 1.374 . S
C1028 H1002 0.950 . S
C1028 C1024 1.385 . S
C1028 C1027 1.374 . S
C1029 C1026 1.499 . S
C1029 C1030 1.373 . S
C1029 C1031 1.389 . S
C1030 H1003 0.950 . S
C1030 C1016 1.377 . S
C1030 C1029 1.373 . S
C1031 C1015 1.377 . S
C1031 C1029 1.389 . S
C1031 C1032 1.524 . S
C1032 C1031 1.524 . S
C1032 C1033 1.397 . S
C1032 C1037 1.363 . S
C1033 H1004 0.950 . S
C1033 C1032 1.397 . S
C1033 C1034 1.334 . S
C1034 H1005 0.950 . S
C1034 C1033 1.334 . S
C1034 C1035 1.287 . S
C1035 C1034 1.287 . S
C1035 C1036 1.524 . S
C1035 H1038 0.999 . S
C1036 H1006 0.950 . S
C1036 C1035 1.524 . S
C1036 C1037 1.415 . S
C1037 H1007 0.950 . S
C1037 C1032 1.363 . S
C1037 C1036 1.415 . S
H1038 C1035 0.999 . S
H1039 C1020 0.913 . S
H1040 C1058 0.951 . S
H1041 C1060 0.951 . S
H1042 C1062 0.950 . S
H1043 C1063 0.950 . S
H1044 C1065 0.950 . S
H1045 C1068 0.950 . S
H1046 C1069 0.950 . S
H1047 C1071 0.950 . S
H1048 C1072 0.950 . S
H1049 C1073 0.951 . S
H1050 C1075 0.951 . S
H1051 C1077 0.950 . S
H1052 C1078 0.950 . S
H1053 C1080 0.950 . S
H1054 C1083 0.950 . S
H1055 C1084 0.950 . S
H1056 C1086 0.950 . S
H1057 C1087 0.950 . S
C1058 H1040 0.951 . S
C1058 C1059 1.366 . S
C1058 C1060 1.388 . S
C1059 C1058 1.366 . S
C1059 C1063 1.385 . S
C1060 H1041 0.951 . S
C1060 C1058 1.388 . S
C1060 C1061 1.366 . S
C1061 C1060 1.366 . S
C1061 C1062 1.414 . S
C1061 C1064 1.499 . S
C1062 H1042 0.950 . S
C1062 C1061 1.414 . S
C1062 C1063 1.374 . S
C1063 H1043 0.950 . S
C1063 C1059 1.385 . S
C1063 C1062 1.374 . S
C1064 C1061 1.499 . S
C1064 C1065 1.373 . S
C1064 C1066 1.389 . S
C1065 H1044 0.950 . S
C1065 C1064 1.373 . S
C1065 C1081 1.377 . S
C1066 C1064 1.389 . S
C1066 C1067 1.524 . S
C1066 C1080 1.377 . S
C1067 C1066 1.524 . S
C1067 C1068 1.397 . S
C1067 C1072 1.363 . S
C1068 H1045 0.950 . S
C1068 C1067 1.397 . S
C1068 C1069 1.334 . S
C1069 H1046 0.950 . S
C1069 C1068 1.334 . S
C1069 C1070 1.287 . S
C1070 C1069 1.287 . S
C1070 C1071 1.524 . S
C1070 H1089 0.913 . S
C1071 H1047 0.950 . S
C1071 C1070 1.524 . S
C1071 C1072 1.415 . S
C1072 H1048 0.950 . S
C1072 C1067 1.363 . S
C1072 C1071 1.415 . S
C1073 H1049 0.951 . S
C1073 C1074 1.366 . S
C1073 C1075 1.388 . S
C1074 C1073 1.366 . S
C1074 C1078 1.385 . S
C1075 H1050 0.951 . S
C1075 C1073 1.388 . S
C1075 C1076 1.366 . S
C1076 C1075 1.366 . S
C1076 C1077 1.414 . S
C1076 C1079 1.499 . S
C1077 H1051 0.950 . S
C1077 C1076 1.414 . S
C1077 C1078 1.374 . S
C1078 H1052 0.950 . S
C1078 C1074 1.385 . S
C1078 C1077 1.374 . S
C1079 C1076 1.499 . S
C1079 C1080 1.373 . S
C1079 C1081 1.389 . S
C1080 H1053 0.950 . S
C1080 C1066 1.377 . S
C1080 C1079 1.373 . S
C1081 C1065 1.377 . S
C1081 C1079 1.389 . S
C1081 C1082 1.524 . S
C1082 C1081 1.524 . S
C1082 C1083 1.397 . S
C1082 C1087 1.363 . S
C1083 H1054 0.950 . S
C1083 C1082 1.397 . S
C1083 C1084 1.334 . S
C1084 H1055 0.950 . S
C1084 C1083 1.334 . S
C1084 C1085 1.287 . S
C1085 C1084 1.287 . S
C1085 C1086 1.524 . S
C1085 H1088 0.999 . S
C1086 H1056 0.950 . S
C1086 C1085 1.524 . S
C1086 C1087 1.415 . S
C1087 H1057 0.950 . S
C1087 C1082 1.363 . S
C1087 C1086 1.415 . S
H1088 C1085 0.999 . S
H1089 C1070 0.913 . S
H1090 C1108 0.951 . S
H1091 C1110 0.951 . S
H1092 C1112 0.950 . S
H1093 C1113 0.950 . S
H1094 C1115 0.950 . S
H1095 C1118 0.950 . S
H1096 C1119 0.950 . S
H1097 C1121 0.950 . S
H1098 C1122 0.950 . S
H1099 C1123 0.951 . S
H1100 C1125 0.951 . S
H1101 C1127 0.950 . S
H1102 C1128 0.950 . S
H1103 C1130 0.950 . S
H1104 C1133 0.950 . S
H1105 C1134 0.950 . S
H1106 C1136 0.950 . S
H1107 C1137 0.950 . S
C1108 H1090 0.951 . S
C1108 C1109 1.366 . S
C1108 C1110 1.388 . S
C1109 C1108 1.366 . S
C1109 C1113 1.385 . S
C1110 H1091 0.951 . S
C1110 C1108 1.388 . S
C1110 C1111 1.366 . S
C1111 C1110 1.366 . S
C1111 C1112 1.414 . S
C1111 C1114 1.499 . S
C1112 H1092 0.950 . S
C1112 C1111 1.414 . S
C1112 C1113 1.374 . S
C1113 H1093 0.950 . S
C1113 C1109 1.385 . S
C1113 C1112 1.374 . S
C1114 C1111 1.499 . S
C1114 C1115 1.373 . S
C1114 C1116 1.389 . S
C1115 H1094 0.950 . S
C1115 C1114 1.373 . S
C1115 C1131 1.377 . S
C1116 C1114 1.389 . S
C1116 C1117 1.524 . S
C1116 C1130 1.377 . S
C1117 C1116 1.524 . S
C1117 C1118 1.397 . S
C1117 C1122 1.363 . S
C1118 H1095 0.950 . S
C1118 C1117 1.397 . S
C1118 C1119 1.334 . S
C1119 H1096 0.950 . S
C1119 C1118 1.334 . S
C1119 C1120 1.287 . S
C1120 C1119 1.287 . S
C1120 C1121 1.524 . S
C1120 H1139 0.913 . S
C1121 H1097 0.950 . S
C1121 C1120 1.524 . S
C1121 C1122 1.415 . S
C1122 H1098 0.950 . S
C1122 C1117 1.363 . S
C1122 C1121 1.415 . S
C1123 H1099 0.951 . S
C1123 C1124 1.366 . S
C1123 C1125 1.388 . S
C1124 C1123 1.366 . S
C1124 C1128 1.385 . S
C1125 H1100 0.951 . S
C1125 C1123 1.388 . S
C1125 C1126 1.366 . S
C1126 C1125 1.366 . S
C1126 C1127 1.414 . S
C1126 C1129 1.499 . S
C1127 H1101 0.950 . S
C1127 C1126 1.414 . S
C1127 C1128 1.374 . S
C1128 H1102 0.950 . S
C1128 C1124 1.385 . S
C1128 C1127 1.374 . S
C1129 C1126 1.499 . S
C1129 C1130 1.373 . S
C1129 C1131 1.389 . S
C1130 H1103 0.950 . S
C1130 C1116 1.377 . S
C1130 C1129 1.373 . S
C1131 C1115 1.377 . S
C1131 C1129 1.389 . S
C1131 C1132 1.524 . S
C1132 C1131 1.524 . S
C1132 C1133 1.397 . S
C1132 C1137 1.363 . S
C1133 H1104 0.950 . S
C1133 C1132 1.397 . S
C1133 C1134 1.334 . S
C1134 H1105 0.950 . S
C1134 C1133 1.334 . S
C1134 C1135 1.287 . S
C1135 C1134 1.287 . S
C1135 C1136 1.524 . S
C1135 H1138 0.999 . S
C1136 H1106 0.950 . S
C1136 C1135 1.524 . S
C1136 C1137 1.415 . S
C1137 H1107 0.950 . S
C1137 C1132 1.363 . S
C1137 C1136 1.415 . S
H1138 C1135 0.999 . S
H1139 C1120 0.913 . S
H1140 C1158 0.951 . S
H1141 C1160 0.951 1_455 S
H1142 C1162 0.950 . S
H1143 C1163 0.950 . S
H1144 C1165 0.950 . S
H1145 C1168 0.950 . S
H1146 C1169 0.942 1_655 S
H1147 C1171 0.950 . S
H1148 C1172 0.950 . S
H1149 C1173 0.951 . S
H1150 C1175 0.951 . S
H1151 C1177 0.950 . S
H1152 C1178 0.950 . S
H1153 C1180 0.950 . S
H1154 C1183 0.950 . S
H1155 C1184 0.950 . S
H1156 C1186 0.950 . S
H1157 C1187 0.950 . S
C1158 H1140 0.951 . S
C1158 C1159 1.366 1_455 S
C1158 C1160 1.388 1_455 S
C1159 C1158 1.366 1_655 S
C1159 C1163 1.385 . S
C1160 H1141 0.951 1_655 S
C1160 C1158 1.388 1_655 S
C1160 C1161 1.366 . S
C1161 C1160 1.366 . S
C1161 C1162 1.414 . S
C1161 C1164 1.499 . S
C1162 H1142 0.950 . S
C1162 C1161 1.414 . S
C1162 C1163 1.374 . S
C1163 H1143 0.950 . S
C1163 C1159 1.385 . S
C1163 C1162 1.374 . S
C1164 C1161 1.499 . S
C1164 C1165 1.373 . S
C1164 C1166 1.389 . S
C1165 H1144 0.950 . S
C1165 C1164 1.373 . S
C1165 C1181 1.377 . S
C1166 C1164 1.389 . S
C1166 C1167 1.524 . S
C1166 C1180 1.377 . S
C1167 C1166 1.524 . S
C1167 C1168 1.397 . S
C1167 C1172 1.363 1_655 S
C1168 H1145 0.950 . S
C1168 C1167 1.397 . S
C1168 C1169 1.314 1_655 S
C1169 H1146 0.942 1_455 S
C1169 C1168 1.314 1_455 S
C1169 C1170 1.317 . S
C1170 C1169 1.317 . S
C1170 C1171 1.524 . S
C1170 H1189 0.913 . S
C1171 H1147 0.950 . S
C1171 C1170 1.524 . S
C1171 C1172 1.415 . S
C1172 H1148 0.950 . S
C1172 C1167 1.363 1_455 S
C1172 C1171 1.415 . S
C1173 H1149 0.951 . S
C1173 C1174 1.366 . S
C1173 C1175 1.388 . S
C1174 C1173 1.366 . S
C1174 C1178 1.385 . S
C1175 H1150 0.951 . S
C1175 C1173 1.388 . S
C1175 C1176 1.366 . S
C1176 C1175 1.366 . S
C1176 C1177 1.414 . S
C1176 C1179 1.499 . S
C1177 H1151 0.950 . S
C1177 C1176 1.414 . S
C1177 C1178 1.374 . S
C1178 H1152 0.950 . S
C1178 C1174 1.385 . S
C1178 C1177 1.374 . S
C1179 C1176 1.499 . S
C1179 C1180 1.373 . S
C1179 C1181 1.389 . S
C1180 H1153 0.950 . S
C1180 C1166 1.377 . S
C1180 C1179 1.373 . S
C1181 C1165 1.377 . S
C1181 C1179 1.389 . S
C1181 C1182 1.524 . S
C1182 C1181 1.524 . S
C1182 C1183 1.397 . S
C1182 C1187 1.363 . S
C1183 H1154 0.950 . S
C1183 C1182 1.397 . S
C1183 C1184 1.334 . S
C1184 H1155 0.950 . S
C1184 C1183 1.334 . S
C1184 C1185 1.287 . S
C1185 C1184 1.287 . S
C1185 C1186 1.524 . S
C1185 H1188 0.999 . S
C1186 H1156 0.950 . S
C1186 C1185 1.524 . S
C1186 C1187 1.415 . S
C1187 H1157 0.950 . S
C1187 C1182 1.363 . S
C1187 C1186 1.415 . S
H1188 C1185 0.999 . S
H1189 C1170 0.913 . S
H1190 C1208 0.951 . S
H1191 C1210 0.951 . S
H1192 C1212 0.950 . S
H1193 C1213 0.950 . S
H1194 C1215 0.950 . S
H1195 C1218 0.950 . S
H1196 C1219 0.970 . S
H1197 C1221 0.950 . S
H1198 C1222 0.950 . S
H1199 C1223 0.951 1_556 S
H1200 C1225 0.951 . S
H1201 C1227 0.950 . S
H1202 C1228 0.950 . S
H1203 C1230 0.950 . S
H1204 C1233 0.950 . S
H1205 C1234 0.950 . S
H1206 C1236 0.950 . S
H1207 C1237 0.950 . S
C1208 H1190 0.951 . S
C1208 C1209 1.366 . S
C1208 C1210 1.388 . S
C1209 C1208 1.366 . S
C1209 C1213 1.385 . S
C1210 H1191 0.951 . S
C1210 C1208 1.388 . S
C1210 C1211 1.366 . S
C1211 C1210 1.366 . S
C1211 C1212 1.414 . S
C1211 C1214 1.499 . S
C1212 H1192 0.950 . S
C1212 C1211 1.414 . S
C1212 C1213 1.374 . S
C1213 H1193 0.950 . S
C1213 C1209 1.385 . S
C1213 C1212 1.374 . S
C1214 C1211 1.499 . S
C1214 C1215 1.373 . S
C1214 C1216 1.389 . S
C1215 H1194 0.950 . S
C1215 C1214 1.373 . S
C1215 C1231 1.377 . S
C1216 C1214 1.389 . S
C1216 C1217 1.524 . S
C1216 C1230 1.377 . S
C1217 C1216 1.524 . S
C1217 C1218 1.397 . S
C1217 C1222 1.363 . S
C1218 H1195 0.950 . S
C1218 C1217 1.397 . S
C1218 C1219 1.334 . S
C1219 H1196 0.970 . S
C1219 C1218 1.334 . S
C1219 C1220 1.287 . S
C1220 C1219 1.287 . S
C1220 C1221 1.524 . S
C1220 H1239 0.907 1_655 S
C1221 H1197 0.950 . S
C1221 C1220 1.524 . S
C1221 C1222 1.415 . S
C1222 H1198 0.950 . S
C1222 C1217 1.363 . S
C1222 C1221 1.415 . S
C1223 H1199 0.951 1_554 S
C1223 C1224 1.366 1_554 S
C1223 C1225 1.388 . S
C1224 C1223 1.366 1_556 S
C1224 C1228 1.385 1_556 S
C1225 H1200 0.951 . S
C1225 C1223 1.388 . S
C1225 C1226 1.366 . S
C1226 C1225 1.366 . S
C1226 C1227 1.414 . S
C1226 C1229 1.499 . S
C1227 H1201 0.950 . S
C1227 C1226 1.414 . S
C1227 C1228 1.374 . S
C1228 H1202 0.950 . S
C1228 C1224 1.385 1_554 S
C1228 C1227 1.374 . S
C1229 C1226 1.499 . S
C1229 C1230 1.373 . S
C1229 C1231 1.389 . S
C1230 H1203 0.950 . S
C1230 C1216 1.377 . S
C1230 C1229 1.373 . S
C1231 C1215 1.377 . S
C1231 C1229 1.389 . S
C1231 C1232 1.524 . S
C1232 C1231 1.524 . S
C1232 C1233 1.397 . S
C1232 C1237 1.363 . S
C1233 H1204 0.950 . S
C1233 C1232 1.397 . S
C1233 C1234 1.334 . S
C1234 H1205 0.950 . S
C1234 C1233 1.334 . S
C1234 C1235 1.287 . S
C1235 C1234 1.287 . S
C1235 C1236 1.524 . S
C1235 H1238 0.999 . S
C1236 H1206 0.950 . S
C1236 C1235 1.524 . S
C1236 C1237 1.415 . S
C1237 H1207 0.950 . S
C1237 C1232 1.363 . S
C1237 C1236 1.415 . S
H1238 C1235 0.999 . S
H1239 C1220 0.907 1_455 S
H1240 C1258 0.951 . S
H1241 C1260 0.951 . S
H1242 C1262 0.950 . S
H1243 C1263 0.950 . S
H1244 C1265 0.950 . S
H1245 C1268 0.950 . S
H1246 C1269 0.950 . S
H1247 C1271 0.950 . S
H1248 C1272 0.950 . S
H1249 C1273 0.951 . S
H1250 C1275 0.951 . S
H1251 C1277 0.950 . S
H1252 C1278 0.950 . S
H1253 C1280 0.950 . S
H1254 C1283 0.950 . S
H1255 C1284 0.950 . S
H1256 C1286 0.950 . S
H1257 C1287 0.950 . S
C1258 H1240 0.951 . S
C1258 C1259 1.366 . S
C1258 C1260 1.388 . S
C1259 C1258 1.366 . S
C1259 C1263 1.385 . S
C1260 H1241 0.951 . S
C1260 C1258 1.388 . S
C1260 C1261 1.366 . S
C1261 C1260 1.366 . S
C1261 C1262 1.414 . S
C1261 C1264 1.499 . S
C1262 H1242 0.950 . S
C1262 C1261 1.414 . S
C1262 C1263 1.374 . S
C1263 H1243 0.950 . S
C1263 C1259 1.385 . S
C1263 C1262 1.374 . S
C1264 C1261 1.499 . S
C1264 C1265 1.373 . S
C1264 C1266 1.389 . S
C1265 H1244 0.950 . S
C1265 C1264 1.373 . S
C1265 C1281 1.377 . S
C1266 C1264 1.389 . S
C1266 C1267 1.524 . S
C1266 C1280 1.377 . S
C1267 C1266 1.524 . S
C1267 C1268 1.397 . S
C1267 C1272 1.363 . S
C1268 H1245 0.950 . S
C1268 C1267 1.397 . S
C1268 C1269 1.334 . S
C1269 H1246 0.950 . S
C1269 C1268 1.334 . S
C1269 C1270 1.287 . S
C1270 C1269 1.287 . S
C1270 C1271 1.524 . S
C1270 H1289 0.913 . S
C1271 H1247 0.950 . S
C1271 C1270 1.524 . S
C1271 C1272 1.415 . S
C1272 H1248 0.950 . S
C1272 C1267 1.363 . S
C1272 C1271 1.415 . S
C1273 H1249 0.951 . S
C1273 C1274 1.366 . S
C1273 C1275 1.388 . S
C1274 C1273 1.366 . S
C1274 C1278 1.385 . S
C1275 H1250 0.951 . S
C1275 C1273 1.388 . S
C1275 C1276 1.366 . S
C1276 C1275 1.366 . S
C1276 C1277 1.414 . S
C1276 C1279 1.499 . S
C1277 H1251 0.950 . S
C1277 C1276 1.414 . S
C1277 C1278 1.374 . S
C1278 H1252 0.950 . S
C1278 C1274 1.385 . S
C1278 C1277 1.374 . S
C1279 C1276 1.499 . S
C1279 C1280 1.373 . S
C1279 C1281 1.389 . S
C1280 H1253 0.950 . S
C1280 C1266 1.377 . S
C1280 C1279 1.373 . S
C1281 C1265 1.377 . S
C1281 C1279 1.389 . S
C1281 C1282 1.524 . S
C1282 C1281 1.524 . S
C1282 C1283 1.397 . S
C1282 C1287 1.363 . S
C1283 H1254 0.950 . S
C1283 C1282 1.397 . S
C1283 C1284 1.334 . S
C1284 H1255 0.950 . S
C1284 C1283 1.334 . S
C1284 C1285 1.287 . S
C1285 C1284 1.287 . S
C1285 C1286 1.524 . S
C1285 H1288 0.999 . S
C1286 H1256 0.950 . S
C1286 C1285 1.524 . S
C1286 C1287 1.415 . S
C1287 H1257 0.950 . S
C1287 C1282 1.363 . S
C1287 C1286 1.415 . S
H1288 C1285 0.999 . S
H1289 C1270 0.913 . S
H1290 C1308 0.951 . S
H1291 C1310 0.951 . S
H1292 C1312 0.950 . S
H1293 C1313 0.950 . S
H1294 C1315 0.950 . S
H1295 C1318 0.950 . S
H1296 C1319 0.950 . S
H1297 C1321 0.950 . S
H1298 C1322 0.950 . S
H1299 C1323 0.951 . S
H1300 C1325 0.951 . S
H1301 C1327 0.950 . S
H1302 C1328 0.950 . S
H1303 C1330 0.950 . S
H1304 C1333 0.950 . S
H1305 C1334 0.950 . S
H1306 C1336 0.950 . S
H1307 C1337 0.950 . S
C1308 H1290 0.951 . S
C1308 C1309 1.366 . S
C1308 C1310 1.388 . S
C1309 C1308 1.366 . S
C1309 C1313 1.385 . S
C1310 H1291 0.951 . S
C1310 C1308 1.388 . S
C1310 C1311 1.366 . S
C1311 C1310 1.366 . S
C1311 C1312 1.414 . S
C1311 C1314 1.499 . S
C1312 H1292 0.950 . S
C1312 C1311 1.414 . S
C1312 C1313 1.374 . S
C1313 H1293 0.950 . S
C1313 C1309 1.385 . S
C1313 C1312 1.374 . S
C1314 C1311 1.499 . S
C1314 C1315 1.373 . S
C1314 C1316 1.389 . S
C1315 H1294 0.950 . S
C1315 C1314 1.373 . S
C1315 C1331 1.377 . S
C1316 C1314 1.389 . S
C1316 C1317 1.524 . S
C1316 C1330 1.377 . S
C1317 C1316 1.524 . S
C1317 C1318 1.397 . S
C1317 C1322 1.363 . S
C1318 H1295 0.950 . S
C1318 C1317 1.397 . S
C1318 C1319 1.334 . S
C1319 H1296 0.950 . S
C1319 C1318 1.334 . S
C1319 C1320 1.287 . S
C1320 C1319 1.287 . S
C1320 C1321 1.524 . S
C1320 H1339 0.913 . S
C1321 H1297 0.950 . S
C1321 C1320 1.524 . S
C1321 C1322 1.415 . S
C1322 H1298 0.950 . S
C1322 C1317 1.363 . S
C1322 C1321 1.415 . S
C1323 H1299 0.951 . S
C1323 C1324 1.366 . S
C1323 C1325 1.388 . S
C1324 C1323 1.366 . S
C1324 C1328 1.385 . S
C1325 H1300 0.951 . S
C1325 C1323 1.388 . S
C1325 C1326 1.366 . S
C1326 C1325 1.366 . S
C1326 C1327 1.414 . S
C1326 C1329 1.499 . S
C1327 H1301 0.950 . S
C1327 C1326 1.414 . S
C1327 C1328 1.374 . S
C1328 H1302 0.950 . S
C1328 C1324 1.385 . S
C1328 C1327 1.374 . S
C1329 C1326 1.499 . S
C1329 C1330 1.373 . S
C1329 C1331 1.389 . S
C1330 H1303 0.950 . S
C1330 C1316 1.377 . S
C1330 C1329 1.373 . S
C1331 C1315 1.377 . S
C1331 C1329 1.389 . S
C1331 C1332 1.524 . S
C1332 C1331 1.524 . S
C1332 C1333 1.397 . S
C1332 C1337 1.363 . S
C1333 H1304 0.950 . S
C1333 C1332 1.397 . S
C1333 C1334 1.334 . S
C1334 H1305 0.950 . S
C1334 C1333 1.334 . S
C1334 C1335 1.287 . S
C1335 C1334 1.287 . S
C1335 C1336 1.524 . S
C1335 H1338 0.999 . S
C1336 H1306 0.950 . S
C1336 C1335 1.524 . S
C1336 C1337 1.415 . S
C1337 H1307 0.950 . S
C1337 C1332 1.363 . S
C1337 C1336 1.415 . S
H1338 C1335 0.999 . S
H1339 C1320 0.913 . S
H1340 C1358 0.951 . S
H1341 C1360 0.951 . S
H1342 C1362 0.950 . S
H1343 C1363 0.950 . S
H1344 C1365 0.950 . S
H1345 C1368 0.950 . S
H1346 C1369 0.950 . S
H1347 C1371 0.950 . S
H1348 C1372 0.950 . S
H1349 C1373 0.951 . S
H1350 C1375 0.951 . S
H1351 C1377 0.950 . S
H1352 C1378 0.950 . S
H1353 C1380 0.950 . S
H1354 C1383 0.950 . S
H1355 C1384 0.950 . S
H1356 C1386 0.950 . S
H1357 C1387 0.950 . S
C1358 H1340 0.951 . S
C1358 C1359 1.366 . S
C1358 C1360 1.388 . S
C1359 C1358 1.366 . S
C1359 C1363 1.385 . S
C1360 H1341 0.951 . S
C1360 C1358 1.388 . S
C1360 C1361 1.366 . S
C1361 C1360 1.366 . S
C1361 C1362 1.414 . S
C1361 C1364 1.499 . S
C1362 H1342 0.950 . S
C1362 C1361 1.414 . S
C1362 C1363 1.374 . S
C1363 H1343 0.950 . S
C1363 C1359 1.385 . S
C1363 C1362 1.374 . S
C1364 C1361 1.499 . S
C1364 C1365 1.373 . S
C1364 C1366 1.389 . S
C1365 H1344 0.950 . S
C1365 C1364 1.373 . S
C1365 C1381 1.377 . S
C1366 C1364 1.389 . S
C1366 C1367 1.524 . S
C1366 C1380 1.377 . S
C1367 C1366 1.524 . S
C1367 C1368 1.397 . S
C1367 C1372 1.363 . S
C1368 H1345 0.950 . S
C1368 C1367 1.397 . S
C1368 C1369 1.334 . S
C1369 H1346 0.950 . S
C1369 C1368 1.334 . S
C1369 C1370 1.287 . S
C1370 C1369 1.287 . S
C1370 C1371 1.524 . S
C1370 H1389 0.913 . S
C1371 H1347 0.950 . S
C1371 C1370 1.524 . S
C1371 C1372 1.415 . S
C1372 H1348 0.950 . S
C1372 C1367 1.363 . S
C1372 C1371 1.415 . S
C1373 H1349 0.951 . S
C1373 C1374 1.366 . S
C1373 C1375 1.388 . S
C1374 C1373 1.366 . S
C1374 C1378 1.385 . S
C1375 H1350 0.951 . S
C1375 C1373 1.388 . S
C1375 C1376 1.366 . S
C1376 C1375 1.366 . S
C1376 C1377 1.414 . S
C1376 C1379 1.499 . S
C1377 H1351 0.950 . S
C1377 C1376 1.414 . S
C1377 C1378 1.374 . S
C1378 H1352 0.950 . S
C1378 C1374 1.385 . S
C1378 C1377 1.374 . S
C1379 C1376 1.499 . S
C1379 C1380 1.373 . S
C1379 C1381 1.389 . S
C1380 H1353 0.950 . S
C1380 C1366 1.377 . S
C1380 C1379 1.373 . S
C1381 C1365 1.377 . S
C1381 C1379 1.389 . S
C1381 C1382 1.524 . S
C1382 C1381 1.524 . S
C1382 C1383 1.397 . S
C1382 C1387 1.363 . S
C1383 H1354 0.950 . S
C1383 C1382 1.397 . S
C1383 C1384 1.334 . S
C1384 H1355 0.950 . S
C1384 C1383 1.334 . S
C1384 C1385 1.287 . S
C1385 C1384 1.287 . S
C1385 C1386 1.524 . S
C1385 H1388 0.999 . S
C1386 H1356 0.950 . S
C1386 C1385 1.524 . S
C1386 C1387 1.415 . S
C1387 H1357 0.950 . S
C1387 C1382 1.363 . S
C1387 C1386 1.415 . S
H1388 C1385 0.999 . S
H1389 C1370 0.913 . S
H1390 C1408 0.951 . S
H1391 C1410 0.951 . S
H1392 C1412 0.950 . S
H1393 C1413 0.950 . S
H1394 C1415 0.950 . S
H1395 C1418 0.950 . S
H1396 C1419 0.950 . S
H1397 C1421 0.950 . S
H1398 C1422 0.950 . S
H1399 C1423 0.951 . S
H1400 C1425 0.951 . S
H1401 C1427 0.950 . S
H1402 C1428 0.950 1_554 S
H1403 C1430 0.950 . S
H1404 C1433 0.950 . S
H1405 C1434 0.950 . S
H1406 C1436 0.950 . S
H1407 C1437 0.950 . S
C1408 H1390 0.951 . S
C1408 C1409 1.366 . S
C1408 C1410 1.388 . S
C1409 C1408 1.366 . S
C1409 C1413 1.385 . S
C1410 H1391 0.951 . S
C1410 C1408 1.388 . S
C1410 C1411 1.366 . S
C1411 C1410 1.366 . S
C1411 C1412 1.414 . S
C1411 C1414 1.499 . S
C1412 H1392 0.950 . S
C1412 C1411 1.414 . S
C1412 C1413 1.374 . S
C1413 H1393 0.950 . S
C1413 C1409 1.385 . S
C1413 C1412 1.374 . S
C1414 C1411 1.499 . S
C1414 C1415 1.373 . S
C1414 C1416 1.389 . S
C1415 H1394 0.950 . S
C1415 C1414 1.373 . S
C1415 C1431 1.377 . S
C1416 C1414 1.389 . S
C1416 C1417 1.524 . S
C1416 C1430 1.377 . S
C1417 C1416 1.524 . S
C1417 C1418 1.397 . S
C1417 C1422 1.363 . S
C1418 H1395 0.950 . S
C1418 C1417 1.397 . S
C1418 C1419 1.334 . S
C1419 H1396 0.950 . S
C1419 C1418 1.334 . S
C1419 C1420 1.287 . S
C1420 C1419 1.287 . S
C1420 C1421 1.524 . S
C1420 H1439 0.913 . S
C1421 H1397 0.950 . S
C1421 C1420 1.524 . S
C1421 C1422 1.415 . S
C1422 H1398 0.950 . S
C1422 C1417 1.363 . S
C1422 C1421 1.415 . S
C1423 H1399 0.951 . S
C1423 C1424 1.366 1_556 S
C1423 C1425 1.388 . S
C1424 C1423 1.366 1_554 S
C1424 C1428 1.385 1_554 S
C1425 H1400 0.951 . S
C1425 C1423 1.388 . S
C1425 C1426 1.366 . S
C1426 C1425 1.366 . S
C1426 C1427 1.414 . S
C1426 C1429 1.499 . S
C1427 H1401 0.950 . S
C1427 C1426 1.414 . S
C1427 C1428 1.374 . S
C1428 H1402 0.950 1_556 S
C1428 C1424 1.385 1_556 S
C1428 C1427 1.374 . S
C1429 C1426 1.499 . S
C1429 C1430 1.373 . S
C1429 C1431 1.389 . S
C1430 H1403 0.950 . S
C1430 C1416 1.377 . S
C1430 C1429 1.373 . S
C1431 C1415 1.377 . S
C1431 C1429 1.389 . S
C1431 C1432 1.524 . S
C1432 C1431 1.524 . S
C1432 C1433 1.397 . S
C1432 C1437 1.363 . S
C1433 H1404 0.950 . S
C1433 C1432 1.397 . S
C1433 C1434 1.334 . S
C1434 H1405 0.950 . S
C1434 C1433 1.334 . S
C1434 C1435 1.287 . S
C1435 C1434 1.287 . S
C1435 C1436 1.524 . S
C1435 H1438 0.999 . S
C1436 H1406 0.950 . S
C1436 C1435 1.524 . S
C1436 C1437 1.415 . S
C1437 H1407 0.950 . S
C1437 C1432 1.363 . S
C1437 C1436 1.415 . S
H1438 C1435 0.999 . S
H1439 C1420 0.913 . S
H1440 C1458 0.951 . S
H1441 C1460 0.951 . S
H1442 C1462 0.950 . S
H1443 C1463 0.950 . S
H1444 C1465 0.950 . S
H1445 C1468 0.950 . S
H1446 C1469 0.950 . S
H1447 C1471 0.950 . S
H1448 C1472 0.950 . S
H1449 C1473 0.951 . S
H1450 C1475 0.951 . S
H1451 C1477 0.950 . S
H1452 C1478 0.950 . S
H1453 C1480 0.950 . S
H1454 C1483 0.950 . S
H1455 C1484 0.950 . S
H1456 C1486 0.950 . S
H1457 C1487 0.950 . S
C1458 H1440 0.951 . S
C1458 C1459 1.366 . S
C1458 C1460 1.388 . S
C1459 C1458 1.366 . S
C1459 C1463 1.385 . S
C1460 H1441 0.951 . S
C1460 C1458 1.388 . S
C1460 C1461 1.366 . S
C1461 C1460 1.366 . S
C1461 C1462 1.414 . S
C1461 C1464 1.499 . S
C1462 H1442 0.950 . S
C1462 C1461 1.414 . S
C1462 C1463 1.374 . S
C1463 H1443 0.950 . S
C1463 C1459 1.385 . S
C1463 C1462 1.374 . S
C1464 C1461 1.499 . S
C1464 C1465 1.373 . S
C1464 C1466 1.389 . S
C1465 H1444 0.950 . S
C1465 C1464 1.373 . S
C1465 C1481 1.377 . S
C1466 C1464 1.389 . S
C1466 C1467 1.524 . S
C1466 C1480 1.377 . S
C1467 C1466 1.524 . S
C1467 C1468 1.397 . S
C1467 C1472 1.363 . S
C1468 H1445 0.950 . S
C1468 C1467 1.397 . S
C1468 C1469 1.334 1_455 S
C1469 H1446 0.950 . S
C1469 C1468 1.334 1_655 S
C1469 C1470 1.287 . S
C1470 C1469 1.287 . S
C1470 C1471 1.524 . S
C1470 H1489 0.913 . S
C1471 H1447 0.950 . S
C1471 C1470 1.524 . S
C1471 C1472 1.415 1_655 S
C1472 H1448 0.950 . S
C1472 C1467 1.363 . S
C1472 C1471 1.415 1_455 S
C1473 H1449 0.951 . S
C1473 C1474 1.366 . S
C1473 C1475 1.388 . S
C1474 C1473 1.366 . S
C1474 C1478 1.385 . S
C1475 H1450 0.951 . S
C1475 C1473 1.388 . S
C1475 C1476 1.366 . S
C1476 C1475 1.366 . S
C1476 C1477 1.414 . S
C1476 C1479 1.499 . S
C1477 H1451 0.950 . S
C1477 C1476 1.414 . S
C1477 C1478 1.374 . S
C1478 H1452 0.950 . S
C1478 C1474 1.385 . S
C1478 C1477 1.374 . S
C1479 C1476 1.499 . S
C1479 C1480 1.373 . S
C1479 C1481 1.389 . S
C1480 H1453 0.950 . S
C1480 C1466 1.377 . S
C1480 C1479 1.373 . S
C1481 C1465 1.377 . S
C1481 C1479 1.389 . S
C1481 C1482 1.524 . S
C1482 C1481 1.524 . S
C1482 C1483 1.397 . S
C1482 C1487 1.363 . S
C1483 H1454 0.950 . S
C1483 C1482 1.397 . S
C1483 C1484 1.334 . S
C1484 H1455 0.950 . S
C1484 C1483 1.334 . S
C1484 C1485 1.287 . S
C1485 C1484 1.287 . S
C1485 C1486 1.524 . S
C1485 H1488 0.999 . S
C1486 H1456 0.950 . S
C1486 C1485 1.524 . S
C1486 C1487 1.415 . S
C1487 H1457 0.950 . S
C1487 C1482 1.363 . S
C1487 C1486 1.415 . S
H1488 C1485 0.999 . S
H1489 C1470 0.913 . S
H1490 C1508 0.951 . S
H1491 C1510 0.951 . S
H1492 C1512 0.950 . S
H1493 C1513 0.950 . S
H1494 C1515 0.950 . S
H1495 C1518 0.950 . S
H1496 C1519 0.950 . S
H1497 C1521 0.950 . S
H1498 C1522 0.950 . S
H1499 C1523 0.951 . S
H1500 C1525 0.951 . S
H1501 C1527 0.950 . S
H1502 C1528 0.950 . S
H1503 C1530 0.950 . S
H1504 C1533 0.950 . S
H1505 C1534 0.950 . S
H1506 C1536 0.950 . S
H1507 C1537 0.950 . S
C1508 H1490 0.951 . S
C1508 C1509 1.366 . S
C1508 C1510 1.388 . S
C1509 C1508 1.366 . S
C1509 C1513 1.385 . S
C1510 H1491 0.951 . S
C1510 C1508 1.388 . S
C1510 C1511 1.366 . S
C1511 C1510 1.366 . S
C1511 C1512 1.414 . S
C1511 C1514 1.499 1_655 S
C1512 H1492 0.950 . S
C1512 C1511 1.414 . S
C1512 C1513 1.374 . S
C1513 H1493 0.950 . S
C1513 C1509 1.385 . S
C1513 C1512 1.374 . S
C1514 C1511 1.499 1_455 S
C1514 C1515 1.373 . S
C1514 C1516 1.389 . S
C1515 H1494 0.950 . S
C1515 C1514 1.373 . S
C1515 C1531 1.377 . S
C1516 C1514 1.389 . S
C1516 C1517 1.524 . S
C1516 C1530 1.377 . S
C1517 C1516 1.524 . S
C1517 C1518 1.397 . S
C1517 C1522 1.363 . S
C1518 H1495 0.950 . S
C1518 C1517 1.397 . S
C1518 C1519 1.334 1_455 S
C1519 H1496 0.950 . S
C1519 C1518 1.334 1_655 S
C1519 C1520 1.287 . S
C1520 C1519 1.287 . S
C1520 C1521 1.524 . S
C1520 H1539 0.913 . S
C1521 H1497 0.950 . S
C1521 C1520 1.524 . S
C1521 C1522 1.415 1_655 S
C1522 H1498 0.950 . S
C1522 C1517 1.363 . S
C1522 C1521 1.415 1_455 S
C1523 H1499 0.951 . S
C1523 C1524 1.366 . S
C1523 C1525 1.388 . S
C1524 C1523 1.366 . S
C1524 C1528 1.385 . S
C1525 H1500 0.951 . S
C1525 C1523 1.388 . S
C1525 C1526 1.366 . S
C1526 C1525 1.366 . S
C1526 C1527 1.414 . S
C1526 C1529 1.499 . S
C1527 H1501 0.950 . S
C1527 C1526 1.414 . S
C1527 C1528 1.374 . S
C1528 H1502 0.950 . S
C1528 C1524 1.385 . S
C1528 C1527 1.374 . S
C1529 C1526 1.499 . S
C1529 C1530 1.373 . S
C1529 C1531 1.389 . S
C1530 H1503 0.950 . S
C1530 C1516 1.377 . S
C1530 C1529 1.373 . S
C1531 C1515 1.377 . S
C1531 C1529 1.389 . S
C1531 C1532 1.524 . S
C1532 C1531 1.524 . S
C1532 C1533 1.397 . S
C1532 C1537 1.363 . S
C1533 H1504 0.950 . S
C1533 C1532 1.397 . S
C1533 C1534 1.334 . S
C1534 H1505 0.950 . S
C1534 C1533 1.334 . S
C1534 C1535 1.287 . S
C1535 C1534 1.287 . S
C1535 C1536 1.524 . S
C1535 H1538 0.999 . S
C1536 H1506 0.950 . S
C1536 C1535 1.524 . S
C1536 C1537 1.415 . S
C1537 H1507 0.950 . S
C1537 C1532 1.363 . S
C1537 C1536 1.415 . S
H1538 C1535 0.999 . S
H1539 C1520 0.913 . S
H1540 C1558 0.951 . S
H1541 C1560 0.951 . S
H1542 C1562 0.950 . S
H1543 C1563 0.950 . S
H1544 C1565 0.950 . S
H1545 C1568 0.950 . S
H1546 C1569 0.950 . S
H1547 C1571 0.950 . S
H1548 C1572 0.950 . S
H1549 C1573 0.951 . S
H1550 C1575 0.951 . S
H1551 C1577 0.950 . S
H1552 C1578 0.950 . S
H1553 C1580 0.950 . S
H1554 C1583 0.950 . S
H1555 C1584 0.950 . S
H1556 C1586 0.950 . S
H1557 C1587 0.950 . S
C1558 H1540 0.951 . S
C1558 C1559 1.366 . S
C1558 C1560 1.388 . S
C1559 C1558 1.366 . S
C1559 C1563 1.385 . S
C1560 H1541 0.951 . S
C1560 C1558 1.388 . S
C1560 C1561 1.366 . S
C1561 C1560 1.366 . S
C1561 C1562 1.414 . S
C1561 C1564 1.499 . S
C1562 H1542 0.950 . S
C1562 C1561 1.414 . S
C1562 C1563 1.374 . S
C1563 H1543 0.950 . S
C1563 C1559 1.385 . S
C1563 C1562 1.374 . S
C1564 C1561 1.499 . S
C1564 C1565 1.373 . S
C1564 C1566 1.389 . S
C1565 H1544 0.950 . S
C1565 C1564 1.373 . S
C1565 C1581 1.377 . S
C1566 C1564 1.389 . S
C1566 C1567 1.524 . S
C1566 C1580 1.377 . S
C1567 C1566 1.524 . S
C1567 C1568 1.397 . S
C1567 C1572 1.363 . S
C1568 H1545 0.950 . S
C1568 C1567 1.397 . S
C1568 C1569 1.334 . S
C1569 H1546 0.950 . S
C1569 C1568 1.334 . S
C1569 C1570 1.287 . S
C1570 C1569 1.287 . S
C1570 C1571 1.524 . S
C1570 H1589 0.913 . S
C1571 H1547 0.950 . S
C1571 C1570 1.524 . S
C1571 C1572 1.415 . S
C1572 H1548 0.950 . S
C1572 C1567 1.363 . S
C1572 C1571 1.415 . S
C1573 H1549 0.951 . S
C1573 C1574 1.366 . S
C1573 C1575 1.388 . S
C1574 C1573 1.366 . S
C1574 C1578 1.385 . S
C1575 H1550 0.951 . S
C1575 C1573 1.388 . S
C1575 C1576 1.366 . S
C1576 C1575 1.366 . S
C1576 C1577 1.414 . S
C1576 C1579 1.499 . S
C1577 H1551 0.950 . S
C1577 C1576 1.414 . S
C1577 C1578 1.374 . S
C1578 H1552 0.950 . S
C1578 C1574 1.385 . S
C1578 C1577 1.374 . S
C1579 C1576 1.499 . S
C1579 C1580 1.373 . S
C1579 C1581 1.389 . S
C1580 H1553 0.950 . S
C1580 C1566 1.377 . S
C1580 C1579 1.373 . S
C1581 C1565 1.377 . S
C1581 C1579 1.389 . S
C1581 C1582 1.524 . S
C1582 C1581 1.524 . S
C1582 C1583 1.397 . S
C1582 C1587 1.363 . S
C1583 H1554 0.950 . S
C1583 C1582 1.397 . S
C1583 C1584 1.334 . S
C1584 H1555 0.950 . S
C1584 C1583 1.334 . S
C1584 C1585 1.287 . S
C1585 C1584 1.287 . S
C1585 C1586 1.524 . S
C1585 H1588 0.999 . S
C1586 H1556 0.950 . S
C1586 C1585 1.524 . S
C1586 C1587 1.415 . S
C1587 H1557 0.950 . S
C1587 C1582 1.363 . S
C1587 C1586 1.415 . S
H1588 C1585 0.999 . S
H1589 C1570 0.913 . S
H1590 C1608 0.951 . S
H1591 C1610 0.951 . S
H1592 C1612 0.950 . S
H1593 C1613 0.950 . S
H1594 C1615 0.950 . S
H1595 C1618 0.950 . S
H1596 C1619 0.950 . S
H1597 C1621 0.950 . S
H1598 C1622 0.950 . S
H1599 C1623 0.951 . S
H1600 C1625 0.951 . S
H1601 C1627 0.950 . S
H1602 C1628 0.950 . S
H1603 C1630 0.950 . S
H1604 C1633 0.950 . S
H1605 C1634 0.950 . S
H1606 C1636 0.950 . S
H1607 C1637 0.950 . S
C1608 H1590 0.951 . S
C1608 C1609 1.366 . S
C1608 C1610 1.388 . S
C1609 C1608 1.366 . S
C1609 C1613 1.385 . S
C1610 H1591 0.951 . S
C1610 C1608 1.388 . S
C1610 C1611 1.366 . S
C1611 C1610 1.366 . S
C1611 C1612 1.414 . S
C1611 C1614 1.499 . S
C1612 H1592 0.950 . S
C1612 C1611 1.414 . S
C1612 C1613 1.374 . S
C1613 H1593 0.950 . S
C1613 C1609 1.385 . S
C1613 C1612 1.374 . S
C1614 C1611 1.499 . S
C1614 C1615 1.373 . S
C1614 C1616 1.389 . S
C1615 H1594 0.950 . S
C1615 C1614 1.373 . S
C1615 C1631 1.377 . S
C1616 C1614 1.389 . S
C1616 C1617 1.524 . S
C1616 C1630 1.377 . S
C1617 C1616 1.524 . S
C1617 C1618 1.397 . S
C1617 C1622 1.363 . S
C1618 H1595 0.950 . S
C1618 C1617 1.397 . S
C1618 C1619 1.334 . S
C1619 H1596 0.950 . S
C1619 C1618 1.334 . S
C1619 C1620 1.287 . S
C1620 C1619 1.287 . S
C1620 C1621 1.524 . S
C1620 H1639 0.913 . S
C1621 H1597 0.950 . S
C1621 C1620 1.524 . S
C1621 C1622 1.415 . S
C1622 H1598 0.950 . S
C1622 C1617 1.363 . S
C1622 C1621 1.415 . S
C1623 H1599 0.951 . S
C1623 C1624 1.366 . S
C1623 C1625 1.388 . S
C1624 C1623 1.366 . S
C1624 C1628 1.385 . S
C1625 H1600 0.951 . S
C1625 C1623 1.388 . S
C1625 C1626 1.366 . S
C1626 C1625 1.366 . S
C1626 C1627 1.414 . S
C1626 C1629 1.499 . S
C1627 H1601 0.950 . S
C1627 C1626 1.414 . S
C1627 C1628 1.374 . S
C1628 H1602 0.950 . S
C1628 C1624 1.385 . S
C1628 C1627 1.374 . S
C1629 C1626 1.499 . S
C1629 C1630 1.373 . S
C1629 C1631 1.389 . S
C1630 H1603 0.950 . S
C1630 C1616 1.377 . S
C1630 C1629 1.373 . S
C1631 C1615 1.377 . S
C1631 C1629 1.389 . S
C1631 C1632 1.524 . S
C1632 C1631 1.524 . S
C1632 C1633 1.397 . S
C1632 C1637 1.363 . S
C1633 H1604 0.950 . S
C1633 C1632 1.397 . S
C1633 C1634 1.334 . S
C1634 H1605 0.950 . S
C1634 C1633 1.334 . S
C1634 C1635 1.287 . S
C1635 C1634 1.287 . S
C1635 C1636 1.524 . S
C1635 H1638 0.999 . S
C1636 H1606 0.950 . S
C1636 C1635 1.524 . S
C1636 C1637 1.415 . S
C1637 H1607 0.950 . S
C1637 C1632 1.363 . S
C1637 C1636 1.415 . S
H1638 C1635 0.999 . S
H1639 C1620 0.913 . S
H1640 C1658 0.951 . S
H1641 C1660 0.951 . S
H1642 C1662 0.950 . S
H1643 C1663 0.950 . S
H1644 C1665 0.950 1_655 S
H1645 C1668 0.950 . S
H1646 C1669 0.950 . S
H1647 C1671 0.950 . S
H1648 C1672 0.950 . S
H1649 C1673 0.951 . S
H1650 C1675 0.951 . S
H1651 C1677 0.950 . S
H1652 C1678 0.950 . S
H1653 C1680 0.950 . S
H1654 C1683 0.950 . S
H1655 C1684 0.950 . S
H1656 C1686 0.950 . S
H1657 C1687 0.950 . S
C1658 H1640 0.951 . S
C1658 C1659 1.366 . S
C1658 C1660 1.388 . S
C1659 C1658 1.366 . S
C1659 C1663 1.385 . S
C1660 H1641 0.951 . S
C1660 C1658 1.388 . S
C1660 C1661 1.366 . S
C1661 C1660 1.366 . S
C1661 C1662 1.414 . S
C1661 C1664 1.499 . S
C1662 H1642 0.950 . S
C1662 C1661 1.414 . S
C1662 C1663 1.374 . S
C1663 H1643 0.950 . S
C1663 C1659 1.385 . S
C1663 C1662 1.374 . S
C1664 C1661 1.499 . S
C1664 C1665 1.373 . S
C1664 C1666 1.389 . S
C1665 H1644 0.950 1_455 S
C1665 C1664 1.373 . S
C1665 C1681 1.377 1_455 S
C1666 C1664 1.389 . S
C1666 C1667 1.524 . S
C1666 C1680 1.377 . S
C1667 C1666 1.524 . S
C1667 C1668 1.397 . S
C1667 C1672 1.363 . S
C1668 H1645 0.950 . S
C1668 C1667 1.397 . S
C1668 C1669 1.334 . S
C1669 H1646 0.950 . S
C1669 C1668 1.334 . S
C1669 C1670 1.287 . S
C1670 C1669 1.287 . S
C1670 C1671 1.524 . S
C1670 H1689 0.913 . S
C1671 H1647 0.950 . S
C1671 C1670 1.524 . S
C1671 C1672 1.415 . S
C1672 H1648 0.950 . S
C1672 C1667 1.363 . S
C1672 C1671 1.415 . S
C1673 H1649 0.951 . S
C1673 C1674 1.366 . S
C1673 C1675 1.388 . S
C1674 C1673 1.366 . S
C1674 C1678 1.385 . S
C1675 H1650 0.951 . S
C1675 C1673 1.388 . S
C1675 C1676 1.366 . S
C1676 C1675 1.366 . S
C1676 C1677 1.414 . S
C1676 C1679 1.499 . S
C1677 H1651 0.950 . S
C1677 C1676 1.414 . S
C1677 C1678 1.374 . S
C1678 H1652 0.950 . S
C1678 C1674 1.385 . S
C1678 C1677 1.374 . S
C1679 C1676 1.499 . S
C1679 C1680 1.373 . S
C1679 C1681 1.388 1_455 S
C1680 H1653 0.950 . S
C1680 C1666 1.377 . S
C1680 C1679 1.373 . S
C1681 C1665 1.377 1_655 S
C1681 C1679 1.388 1_655 S
C1681 C1682 1.526 . S
C1682 C1681 1.526 . S
C1682 C1683 1.397 . S
C1682 C1687 1.363 . S
C1683 H1654 0.950 . S
C1683 C1682 1.397 . S
C1683 C1684 1.334 . S
C1684 H1655 0.950 . S
C1684 C1683 1.334 . S
C1684 C1685 1.287 . S
C1685 C1684 1.287 . S
C1685 C1686 1.524 . S
C1685 H1688 0.999 . S
C1686 H1656 0.950 . S
C1686 C1685 1.524 . S
C1686 C1687 1.415 . S
C1687 H1657 0.950 . S
C1687 C1682 1.363 . S
C1687 C1686 1.415 . S
H1688 C1685 0.999 . S
H1689 C1670 0.913 . S
H1690 C1708 0.951 . S
H1691 C1710 0.951 . S
H1692 C1712 0.950 . S
H1693 C1713 0.950 . S
H1694 C1715 0.950 . S
H1695 C1718 0.950 . S
H1696 C1719 0.950 . S
H1697 C1721 0.950 . S
H1698 C1722 0.950 . S
H1699 C1723 0.951 . S
H1700 C1725 0.951 . S
H1701 C1727 0.950 . S
H1702 C1728 0.950 . S
H1703 C1730 0.950 . S
H1704 C1733 0.950 . S
H1705 C1734 0.950 . S
H1706 C1736 0.950 . S
H1707 C1737 0.950 . S
C1708 H1690 0.951 . S
C1708 C1709 1.366 . S
C1708 C1710 1.388 . S
C1709 C1708 1.366 . S
C1709 C1713 1.385 . S
C1710 H1691 0.951 . S
C1710 C1708 1.388 . S
C1710 C1711 1.366 . S
C1711 C1710 1.366 . S
C1711 C1712 1.414 . S
C1711 C1714 1.499 . S
C1712 H1692 0.950 . S
C1712 C1711 1.414 . S
C1712 C1713 1.374 . S
C1713 H1693 0.950 . S
C1713 C1709 1.385 . S
C1713 C1712 1.374 . S
C1714 C1711 1.499 . S
C1714 C1715 1.373 . S
C1714 C1716 1.389 . S
C1715 H1694 0.950 . S
C1715 C1714 1.373 . S
C1715 C1731 1.377 . S
C1716 C1714 1.389 . S
C1716 C1717 1.524 . S
C1716 C1730 1.377 . S
C1717 C1716 1.524 . S
C1717 C1718 1.397 . S
C1717 C1722 1.363 . S
C1718 H1695 0.950 . S
C1718 C1717 1.397 . S
C1718 C1719 1.334 . S
C1719 H1696 0.950 . S
C1719 C1718 1.334 . S
C1719 C1720 1.287 . S
C1720 C1719 1.287 . S
C1720 C1721 1.524 . S
C1720 H1739 0.913 . S
C1721 H1697 0.950 . S
C1721 C1720 1.524 . S
C1721 C1722 1.415 . S
C1722 H1698 0.950 . S
C1722 C1717 1.363 . S
C1722 C1721 1.415 . S
C1723 H1699 0.951 . S
C1723 C1724 1.366 . S
C1723 C1725 1.388 . S
C1724 C1723 1.366 . S
C1724 C1728 1.385 . S
C1725 H1700 0.951 . S
C1725 C1723 1.388 . S
C1725 C1726 1.366 . S
C1726 C1725 1.366 . S
C1726 C1727 1.414 . S
C1726 C1729 1.499 . S
C1727 H1701 0.950 . S
C1727 C1726 1.414 . S
C1727 C1728 1.374 . S
C1728 H1702 0.950 . S
C1728 C1724 1.385 . S
C1728 C1727 1.374 . S
C1729 C1726 1.499 . S
C1729 C1730 1.373 . S
C1729 C1731 1.389 . S
C1730 H1703 0.950 . S
C1730 C1716 1.377 . S
C1730 C1729 1.373 . S
C1731 C1715 1.377 . S
C1731 C1729 1.389 . S
C1731 C1732 1.524 . S
C1732 C1731 1.524 . S
C1732 C1733 1.397 . S
C1732 C1737 1.363 . S
C1733 H1704 0.950 . S
C1733 C1732 1.397 . S
C1733 C1734 1.334 . S
C1734 H1705 0.950 . S
C1734 C1733 1.334 . S
C1734 C1735 1.287 . S
C1735 C1734 1.287 . S
C1735 C1736 1.524 . S
C1735 H1738 0.999 . S
C1736 H1706 0.950 . S
C1736 C1735 1.524 . S
C1736 C1737 1.415 . S
C1737 H1707 0.950 . S
C1737 C1732 1.363 . S
C1737 C1736 1.415 . S
H1738 C1735 0.999 . S
H1739 C1720 0.913 . S
H1740 C1758 0.951 . S
H1741 C1760 0.951 . S
H1742 C1762 0.950 . S
H1743 C1763 0.950 . S
H1744 C1765 0.950 . S
H1745 C1768 0.950 . S
H1746 C1769 0.950 . S
H1747 C1771 0.950 . S
H1748 C1772 0.950 . S
H1749 C1773 0.951 . S
H1750 C1775 0.951 . S
H1751 C1777 0.950 . S
H1752 C1778 0.950 . S
H1753 C1780 0.950 . S
H1754 C1783 0.950 . S
H1755 C1784 0.950 . S
H1756 C1786 0.950 . S
H1757 C1787 0.950 . S
C1758 H1740 0.951 . S
C1758 C1759 1.366 . S
C1758 C1760 1.388 . S
C1759 C1758 1.366 . S
C1759 C1763 1.385 . S
C1760 H1741 0.951 . S
C1760 C1758 1.388 . S
C1760 C1761 1.366 . S
C1761 C1760 1.366 . S
C1761 C1762 1.414 . S
C1761 C1764 1.499 . S
C1762 H1742 0.950 . S
C1762 C1761 1.414 . S
C1762 C1763 1.374 . S
C1763 H1743 0.950 . S
C1763 C1759 1.385 . S
C1763 C1762 1.374 . S
C1764 C1761 1.499 . S
C1764 C1765 1.373 . S
C1764 C1766 1.389 . S
C1765 H1744 0.950 . S
C1765 C1764 1.373 . S
C1765 C1781 1.377 . S
C1766 C1764 1.389 . S
C1766 C1767 1.524 . S
C1766 C1780 1.377 . S
C1767 C1766 1.524 . S
C1767 C1768 1.397 . S
C1767 C1772 1.363 . S
C1768 H1745 0.950 . S
C1768 C1767 1.397 . S
C1768 C1769 1.334 . S
C1769 H1746 0.950 . S
C1769 C1768 1.334 . S
C1769 C1770 1.287 . S
C1770 C1769 1.287 . S
C1770 C1771 1.524 . S
C1770 H1789 0.913 . S
C1771 H1747 0.950 . S
C1771 C1770 1.524 . S
C1771 C1772 1.415 . S
C1772 H1748 0.950 . S
C1772 C1767 1.363 . S
C1772 C1771 1.415 . S
C1773 H1749 0.951 . S
C1773 C1774 1.366 . S
C1773 C1775 1.388 . S
C1774 C1773 1.366 . S
C1774 C1778 1.385 . S
C1775 H1750 0.951 . S
C1775 C1773 1.388 . S
C1775 C1776 1.366 . S
C1776 C1775 1.366 . S
C1776 C1777 1.414 . S
C1776 C1779 1.499 . S
C1777 H1751 0.950 . S
C1777 C1776 1.414 . S
C1777 C1778 1.374 . S
C1778 H1752 0.950 . S
C1778 C1774 1.385 . S
C1778 C1777 1.374 . S
C1779 C1776 1.499 . S
C1779 C1780 1.373 . S
C1779 C1781 1.389 . S
C1780 H1753 0.950 . S
C1780 C1766 1.377 . S
C1780 C1779 1.373 . S
C1781 C1765 1.377 . S
C1781 C1779 1.389 . S
C1781 C1782 1.524 . S
C1782 C1781 1.524 . S
C1782 C1783 1.397 . S
C1782 C1787 1.363 . S
C1783 H1754 0.950 . S
C1783 C1782 1.397 . S
C1783 C1784 1.334 . S
C1784 H1755 0.950 . S
C1784 C1783 1.334 . S
C1784 C1785 1.287 . S
C1785 C1784 1.287 . S
C1785 C1786 1.524 . S
C1785 H1788 0.999 . S
C1786 H1756 0.950 . S
C1786 C1785 1.524 . S
C1786 C1787 1.415 . S
C1787 H1757 0.950 . S
C1787 C1782 1.363 . S
C1787 C1786 1.415 . S
H1788 C1785 0.999 . S
H1789 C1770 0.913 . S
H1790 C1808 0.951 . S
H1791 C1810 0.951 . S
H1792 C1812 0.950 . S
H1793 C1813 0.950 . S
H1794 C1815 0.950 . S
H1795 C1818 0.950 . S
H1796 C1819 0.950 . S
H1797 C1821 0.950 . S
H1798 C1822 0.950 . S
H1799 C1823 0.951 . S
H1800 C1825 0.951 1_455 S
H1801 C1827 0.950 . S
H1802 C1828 0.950 . S
H1803 C1830 0.950 . S
H1804 C1833 0.950 . S
H1805 C1834 0.950 . S
H1806 C1836 0.950 . S
H1807 C1837 0.950 . S
C1808 H1790 0.951 . S
C1808 C1809 1.366 . S
C1808 C1810 1.388 . S
C1809 C1808 1.366 . S
C1809 C1813 1.385 . S
C1810 H1791 0.951 . S
C1810 C1808 1.388 . S
C1810 C1811 1.366 . S
C1811 C1810 1.366 . S
C1811 C1812 1.414 . S
C1811 C1814 1.499 . S
C1812 H1792 0.950 . S
C1812 C1811 1.414 . S
C1812 C1813 1.374 . S
C1813 H1793 0.950 . S
C1813 C1809 1.385 . S
C1813 C1812 1.374 . S
C1814 C1811 1.499 . S
C1814 C1815 1.373 . S
C1814 C1816 1.389 . S
C1815 H1794 0.950 . S
C1815 C1814 1.373 . S
C1815 C1831 1.377 . S
C1816 C1814 1.389 . S
C1816 C1817 1.524 . S
C1816 C1830 1.377 . S
C1817 C1816 1.524 . S
C1817 C1818 1.397 . S
C1817 C1822 1.363 . S
C1818 H1795 0.950 . S
C1818 C1817 1.397 . S
C1818 C1819 1.334 . S
C1819 H1796 0.950 . S
C1819 C1818 1.334 . S
C1819 C1820 1.287 . S
C1820 C1819 1.287 . S
C1820 C1821 1.524 . S
C1820 H1839 0.913 . S
C1821 H1797 0.950 . S
C1821 C1820 1.524 . S
C1821 C1822 1.415 . S
C1822 H1798 0.950 . S
C1822 C1817 1.363 . S
C1822 C1821 1.415 . S
C1823 H1799 0.951 . S
C1823 C1824 1.366 . S
C1823 C1825 1.388 . S
C1824 C1823 1.366 . S
C1824 C1828 1.385 . S
C1825 H1800 0.951 1_655 S
C1825 C1823 1.388 . S
C1825 C1826 1.366 . S
C1826 C1825 1.366 . S
C1826 C1827 1.414 . S
C1826 C1829 1.499 1_655 S
C1827 H1801 0.950 . S
C1827 C1826 1.414 . S
C1827 C1828 1.374 . S
C1828 H1802 0.950 . S
C1828 C1824 1.385 . S
C1828 C1827 1.374 . S
C1829 C1826 1.499 1_455 S
C1829 C1830 1.373 . S
C1829 C1831 1.389 . S
C1830 H1803 0.950 . S
C1830 C1816 1.377 . S
C1830 C1829 1.373 . S
C1831 C1815 1.377 . S
C1831 C1829 1.389 . S
C1831 C1832 1.524 . S
C1832 C1831 1.524 . S
C1832 C1833 1.397 . S
C1832 C1837 1.363 . S
C1833 H1804 0.950 . S
C1833 C1832 1.397 . S
C1833 C1834 1.334 . S
C1834 H1805 0.950 . S
C1834 C1833 1.334 . S
C1834 C1835 1.287 . S
C1835 C1834 1.287 . S
C1835 C1836 1.524 . S
C1835 H1838 0.999 . S
C1836 H1806 0.950 . S
C1836 C1835 1.524 . S
C1836 C1837 1.415 . S
C1837 H1807 0.950 . S
C1837 C1832 1.363 . S
C1837 C1836 1.415 . S
H1838 C1835 0.999 . S
H1839 C1820 0.913 . S
H1840 C1858 0.951 . S
H1841 C1860 0.951 . S
H1842 C1862 0.950 . S
H1843 C1863 0.950 . S
H1844 C1865 0.950 . S
H1845 C1868 0.950 . S
H1846 C1869 0.950 . S
H1847 C1871 0.950 . S
H1848 C1872 0.950 . S
H1849 C1873 0.951 . S
H1850 C1875 0.951 . S
H1851 C1877 0.950 1_655 S
H1852 C1878 0.950 1_655 S
H1853 C1880 0.950 . S
H1854 C1883 0.950 . S
H1855 C1884 0.950 . S
H1856 C1886 0.950 . S
H1857 C1887 0.950 . S
C1858 H1840 0.951 . S
C1858 C1859 1.366 . S
C1858 C1860 1.388 . S
C1859 C1858 1.366 . S
C1859 C1863 1.385 . S
C1860 H1841 0.951 . S
C1860 C1858 1.388 . S
C1860 C1861 1.366 . S
C1861 C1860 1.366 . S
C1861 C1862 1.414 . S
C1861 C1864 1.499 . S
C1862 H1842 0.950 . S
C1862 C1861 1.414 . S
C1862 C1863 1.374 . S
C1863 H1843 0.950 . S
C1863 C1859 1.385 . S
C1863 C1862 1.374 . S
C1864 C1861 1.499 . S
C1864 C1865 1.373 1_554 S
C1864 C1866 1.389 1_545 S
C1865 H1844 0.950 . S
C1865 C1864 1.373 1_556 S
C1865 C1881 1.377 . S
C1866 C1864 1.389 1_565 S
C1866 C1867 1.524 . S
C1866 C1880 1.377 . S
C1867 C1866 1.524 . S
C1867 C1868 1.397 . S
C1867 C1872 1.363 1_455 S
C1868 H1845 0.950 . S
C1868 C1867 1.397 . S
C1868 C1869 1.334 . S
C1869 H1846 0.950 . S
C1869 C1868 1.334 . S
C1869 C1870 1.287 . S
C1870 C1869 1.287 . S
C1870 C1871 1.524 1_455 S
C1870 H1889 0.911 1_455 S
C1871 H1847 0.950 . S
C1871 C1870 1.524 1_655 S
C1871 C1872 1.415 . S
C1872 H1848 0.950 . S
C1872 C1867 1.363 1_655 S
C1872 C1871 1.415 . S
C1873 H1849 0.951 . S
C1873 C1874 1.366 . S
C1873 C1875 1.388 . S
C1874 C1873 1.366 . S
C1874 C1878 1.385 . S
C1875 H1850 0.951 . S
C1875 C1873 1.388 . S
C1875 C1876 1.366 . S
C1876 C1875 1.366 . S
C1876 C1877 1.414 . S
C1876 C1879 1.499 . S
C1877 H1851 0.950 1_455 S
C1877 C1876 1.414 . S
C1877 C1878 1.374 . S
C1878 H1852 0.950 1_455 S
C1878 C1874 1.385 . S
C1878 C1877 1.374 . S
C1879 C1876 1.499 . S
C1879 C1880 1.373 1_556 S
C1879 C1881 1.389 1_565 S
C1880 H1853 0.950 . S
C1880 C1866 1.377 . S
C1880 C1879 1.373 1_554 S
C1881 C1865 1.377 . S
C1881 C1879 1.389 1_545 S
C1881 C1882 1.524 . S
C1882 C1881 1.524 . S
C1882 C1883 1.397 . S
C1882 C1887 1.363 . S
C1883 H1854 0.950 . S
C1883 C1882 1.397 . S
C1883 C1884 1.334 . S
C1884 H1855 0.950 . S
C1884 C1883 1.334 . S
C1884 C1885 1.287 . S
C1885 C1884 1.287 . S
C1885 C1886 1.524 . S
C1885 H1888 0.999 . S
C1886 H1856 0.950 . S
C1886 C1885 1.524 . S
C1886 C1887 1.415 . S
C1887 H1857 0.950 . S
C1887 C1882 1.363 . S
C1887 C1886 1.415 . S
H1888 C1885 0.999 . S
H1889 C1870 0.911 1_655 S
H1890 C1908 0.951 . S
H1891 C1910 0.951 . S
H1892 C1912 0.950 . S
H1893 C1913 0.950 . S
H1894 C1915 0.950 . S
H1895 C1918 0.950 . S
H1896 C1919 0.950 . S
H1897 C1921 0.950 . S
H1898 C1922 0.950 . S
H1899 C1923 0.951 . S
H1900 C1925 0.951 . S
H1901 C1927 0.950 . S
H1902 C1928 0.950 . S
H1903 C1930 0.950 . S
H1904 C1933 0.950 . S
H1905 C1934 0.950 . S
H1906 C1936 0.950 . S
H1907 C1937 0.950 . S
C1908 H1890 0.951 . S
C1908 C1909 1.366 . S
C1908 C1910 1.388 . S
C1909 C1908 1.366 . S
C1909 C1913 1.385 . S
C1910 H1891 0.951 . S
C1910 C1908 1.388 . S
C1910 C1911 1.366 . S
C1911 C1910 1.366 . S
C1911 C1912 1.414 . S
C1911 C1914 1.499 . S
C1912 H1892 0.950 . S
C1912 C1911 1.414 . S
C1912 C1913 1.374 . S
C1913 H1893 0.950 . S
C1913 C1909 1.385 . S
C1913 C1912 1.374 . S
C1914 C1911 1.499 . S
C1914 C1915 1.373 . S
C1914 C1916 1.389 . S
C1915 H1894 0.950 . S
C1915 C1914 1.373 . S
C1915 C1931 1.377 . S
C1916 C1914 1.389 . S
C1916 C1917 1.524 . S
C1916 C1930 1.377 . S
C1917 C1916 1.524 . S
C1917 C1918 1.397 . S
C1917 C1922 1.363 . S
C1918 H1895 0.950 . S
C1918 C1917 1.397 . S
C1918 C1919 1.334 . S
C1919 H1896 0.950 . S
C1919 C1918 1.334 . S
C1919 C1920 1.287 . S
C1920 C1919 1.287 . S
C1920 C1921 1.524 . S
C1920 H1939 0.913 . S
C1921 H1897 0.950 . S
C1921 C1920 1.524 . S
C1921 C1922 1.415 . S
C1922 H1898 0.950 . S
C1922 C1917 1.363 . S
C1922 C1921 1.415 . S
C1923 H1899 0.951 . S
C1923 C1924 1.366 . S
C1923 C1925 1.388 . S
C1924 C1923 1.366 . S
C1924 C1928 1.385 . S
C1925 H1900 0.951 . S
C1925 C1923 1.388 . S
C1925 C1926 1.366 . S
C1926 C1925 1.366 . S
C1926 C1927 1.414 . S
C1926 C1929 1.499 . S
C1927 H1901 0.950 . S
C1927 C1926 1.414 . S
C1927 C1928 1.374 . S
C1928 H1902 0.950 . S
C1928 C1924 1.385 . S
C1928 C1927 1.374 . S
C1929 C1926 1.499 . S
C1929 C1930 1.373 . S
C1929 C1931 1.389 . S
C1930 H1903 0.950 . S
C1930 C1916 1.377 . S
C1930 C1929 1.373 . S
C1931 C1915 1.377 . S
C1931 C1929 1.389 . S
C1931 C1932 1.524 . S
C1932 C1931 1.524 . S
C1932 C1933 1.397 . S
C1932 C1937 1.363 . S
C1933 H1904 0.950 . S
C1933 C1932 1.397 . S
C1933 C1934 1.334 . S
C1934 H1905 0.950 . S
C1934 C1933 1.334 . S
C1934 C1935 1.287 . S
C1935 C1934 1.287 . S
C1935 C1936 1.524 . S
C1935 H1938 0.999 . S
C1936 H1906 0.950 . S
C1936 C1935 1.524 . S
C1936 C1937 1.415 . S
C1937 H1907 0.950 . S
C1937 C1932 1.363 . S
C1937 C1936 1.415 . S
H1938 C1935 0.999 . S
H1939 C1920 0.913 . S
H1940 C1958 0.951 . S
H1941 C1960 0.951 . S
H1942 C1962 0.950 . S
H1943 C1963 0.950 . S
H1944 C1965 0.948 . S
H1945 C1968 0.950 . S
H1946 C1969 0.950 . S
H1947 C1971 0.950 . S
H1948 C1972 0.950 . S
H1949 C1973 0.951 . S
H1950 C1975 0.951 . S
H1951 C1977 0.950 . S
H1952 C1978 0.950 . S
H1953 C1980 0.948 . S
H1954 C1983 0.950 . S
H1955 C1984 0.950 . S
H1956 C1986 0.950 . S
H1957 C1987 0.950 . S
C1958 H1940 0.951 . S
C1958 C1959 1.366 . S
C1958 C1960 1.388 . S
C1959 C1958 1.366 . S
C1959 C1963 1.385 . S
C1960 H1941 0.951 . S
C1960 C1958 1.388 . S
C1960 C1961 1.366 . S
C1961 C1960 1.366 . S
C1961 C1962 1.414 . S
C1961 C1964 1.499 . S
C1962 H1942 0.950 . S
C1962 C1961 1.414 . S
C1962 C1963 1.374 . S
C1963 H1943 0.950 . S
C1963 C1959 1.385 . S
C1963 C1962 1.374 . S
C1964 C1961 1.499 . S
C1964 C1965 1.387 . S
C1964 C1966 1.389 . S
C1965 H1944 0.948 . S
C1965 C1964 1.387 . S
C1965 C1981 1.357 1_545 S
C1966 C1964 1.389 . S
C1966 C1967 1.524 . S
C1966 C1980 1.358 1_545 S
C1967 C1966 1.524 . S
C1967 C1968 1.397 . S
C1967 C1972 1.363 . S
C1968 H1945 0.950 . S
C1968 C1967 1.397 . S
C1968 C1969 1.334 . S
C1969 H1946 0.950 . S
C1969 C1968 1.334 . S
C1969 C1970 1.287 . S
C1970 C1969 1.287 . S
C1970 C1971 1.524 . S
C1970 H1989 0.913 . S
C1971 H1947 0.950 . S
C1971 C1970 1.524 . S
C1971 C1972 1.415 . S
C1972 H1948 0.950 . S
C1972 C1967 1.363 . S
C1972 C1971 1.415 . S
C1973 H1949 0.951 . S
C1973 C1974 1.366 . S
C1973 C1975 1.388 . S
C1974 C1973 1.366 . S
C1974 C1978 1.385 . S
C1975 H1950 0.951 . S
C1975 C1973 1.388 . S
C1975 C1976 1.366 . S
C1976 C1975 1.366 . S
C1976 C1977 1.414 . S
C1976 C1979 1.499 . S
C1977 H1951 0.950 . S
C1977 C1976 1.414 . S
C1977 C1978 1.374 . S
C1978 H1952 0.950 . S
C1978 C1974 1.385 . S
C1978 C1977 1.374 . S
C1979 C1976 1.499 . S
C1979 C1980 1.385 . S
C1979 C1981 1.389 . S
C1980 H1953 0.948 . S
C1980 C1966 1.358 1_565 S
C1980 C1979 1.385 . S
C1981 C1965 1.357 1_565 S
C1981 C1979 1.389 . S
C1981 C1982 1.524 . S
C1982 C1981 1.524 . S
C1982 C1983 1.397 . S
C1982 C1987 1.363 . S
C1983 H1954 0.950 . S
C1983 C1982 1.397 . S
C1983 C1984 1.334 . S
C1984 H1955 0.950 . S
C1984 C1983 1.334 . S
C1984 C1985 1.287 . S
C1985 C1984 1.287 . S
C1985 C1986 1.524 . S
C1985 H1988 0.999 . S
C1986 H1956 0.950 . S
C1986 C1985 1.524 . S
C1986 C1987 1.415 . S
C1987 H1957 0.950 . S
C1987 C1982 1.363 . S
C1987 C1986 1.415 . S
H1988 C1985 0.999 . S
H1989 C1970 0.913 . S
H1990 C2008 0.951 . S
H1991 C2010 0.951 . S
H1992 C2012 0.950 . S
H1993 C2013 0.950 . S
H1994 C2015 0.950 . S
H1995 C2018 0.950 . S
H1996 C2019 0.950 . S
H1997 C2021 0.950 . S
H1998 C2022 0.950 . S
H1999 C2023 0.951 . S
H2000 C2025 0.951 . S
H2001 C2027 0.950 . S
H2002 C2028 0.950 . S
H2003 C2030 0.950 . S
H2004 C2033 0.950 . S
H2005 C2034 0.950 . S
H2006 C2036 0.950 . S
H2007 C2037 0.950 . S
C2008 H1990 0.951 . S
C2008 C2009 1.366 . S
C2008 C2010 1.388 . S
C2009 C2008 1.366 . S
C2009 C2013 1.385 . S
C2010 H1991 0.951 . S
C2010 C2008 1.388 . S
C2010 C2011 1.366 . S
C2011 C2010 1.366 . S
C2011 C2012 1.414 . S
C2011 C2014 1.499 . S
C2012 H1992 0.950 . S
C2012 C2011 1.414 . S
C2012 C2013 1.374 . S
C2013 H1993 0.950 . S
C2013 C2009 1.385 . S
C2013 C2012 1.374 . S
C2014 C2011 1.499 . S
C2014 C2015 1.373 . S
C2014 C2016 1.389 . S
C2015 H1994 0.950 . S
C2015 C2014 1.373 . S
C2015 C2031 1.377 . S
C2016 C2014 1.389 . S
C2016 C2017 1.524 . S
C2016 C2030 1.377 . S
C2017 C2016 1.524 . S
C2017 C2018 1.397 . S
C2017 C2022 1.363 . S
C2018 H1995 0.950 . S
C2018 C2017 1.397 . S
C2018 C2019 1.334 . S
C2019 H1996 0.950 . S
C2019 C2018 1.334 . S
C2019 C2020 1.287 . S
C2020 C2019 1.287 . S
C2020 C2021 1.524 . S
C2020 H2039 0.913 . S
C2021 H1997 0.950 . S
C2021 C2020 1.524 . S
C2021 C2022 1.415 . S
C2022 H1998 0.950 . S
C2022 C2017 1.363 . S
C2022 C2021 1.415 . S
C2023 H1999 0.951 . S
C2023 C2024 1.366 . S
C2023 C2025 1.388 . S
C2024 C2023 1.366 . S
C2024 C2028 1.385 . S
C2025 H2000 0.951 . S
C2025 C2023 1.388 . S
C2025 C2026 1.366 . S
C2026 C2025 1.366 . S
C2026 C2027 1.414 . S
C2026 C2029 1.499 . S
C2027 H2001 0.950 . S
C2027 C2026 1.414 . S
C2027 C2028 1.374 . S
C2028 H2002 0.950 . S
C2028 C2024 1.385 . S
C2028 C2027 1.374 . S
C2029 C2026 1.499 . S
C2029 C2030 1.373 . S
C2029 C2031 1.389 . S
C2030 H2003 0.950 . S
C2030 C2016 1.377 . S
C2030 C2029 1.373 . S
C2031 C2015 1.377 . S
C2031 C2029 1.389 . S
C2031 C2032 1.524 . S
C2032 C2031 1.524 . S
C2032 C2033 1.397 . S
C2032 C2037 1.363 . S
C2033 H2004 0.950 . S
C2033 C2032 1.397 . S
C2033 C2034 1.334 . S
C2034 H2005 0.950 . S
C2034 C2033 1.334 . S
C2034 C2035 1.287 . S
C2035 C2034 1.287 . S
C2035 C2036 1.524 . S
C2035 H2038 0.999 . S
C2036 H2006 0.950 . S
C2036 C2035 1.524 . S
C2036 C2037 1.415 . S
C2037 H2007 0.950 . S
C2037 C2032 1.363 . S
C2037 C2036 1.415 . S
H2038 C2035 0.999 . S
H2039 C2020 0.913 . S
H2040 C2058 0.951 . S
H2041 C2060 0.951 . S
H2042 C2062 0.950 . S
H2043 C2063 0.950 . S
H2044 C2065 0.950 . S
H2045 C2068 0.950 . S
H2046 C2069 0.950 . S
H2047 C2071 0.950 . S
H2048 C2072 0.950 . S
H2049 C2073 0.951 . S
H2050 C2075 0.951 . S
H2051 C2077 0.950 . S
H2052 C2078 0.950 . S
H2053 C2080 0.950 . S
H2054 C2083 0.950 . S
H2055 C2084 0.950 . S
H2056 C2086 0.950 . S
H2057 C2087 0.950 . S
C2058 H2040 0.951 . S
C2058 C2059 1.366 . S
C2058 C2060 1.388 . S
C2059 C2058 1.366 . S
C2059 C2063 1.385 . S
C2060 H2041 0.951 . S
C2060 C2058 1.388 . S
C2060 C2061 1.366 . S
C2061 C2060 1.366 . S
C2061 C2062 1.414 . S
C2061 C2064 1.499 . S
C2062 H2042 0.950 . S
C2062 C2061 1.414 . S
C2062 C2063 1.374 . S
C2063 H2043 0.950 . S
C2063 C2059 1.385 . S
C2063 C2062 1.374 . S
C2064 C2061 1.499 . S
C2064 C2065 1.373 . S
C2064 C2066 1.389 . S
C2065 H2044 0.950 . S
C2065 C2064 1.373 . S
C2065 C2081 1.377 . S
C2066 C2064 1.389 . S
C2066 C2067 1.524 . S
C2066 C2080 1.377 . S
C2067 C2066 1.524 . S
C2067 C2068 1.397 . S
C2067 C2072 1.363 . S
C2068 H2045 0.950 . S
C2068 C2067 1.397 . S
C2068 C2069 1.334 . S
C2069 H2046 0.950 . S
C2069 C2068 1.334 . S
C2069 C2070 1.287 . S
C2070 C2069 1.287 . S
C2070 C2071 1.524 . S
C2070 H2089 0.913 . S
C2071 H2047 0.950 . S
C2071 C2070 1.524 . S
C2071 C2072 1.415 . S
C2072 H2048 0.950 . S
C2072 C2067 1.363 . S
C2072 C2071 1.415 . S
C2073 H2049 0.951 . S
C2073 C2074 1.366 . S
C2073 C2075 1.388 . S
C2074 C2073 1.366 . S
C2074 C2078 1.385 . S
C2075 H2050 0.951 . S
C2075 C2073 1.388 . S
C2075 C2076 1.366 . S
C2076 C2075 1.366 . S
C2076 C2077 1.414 . S
C2076 C2079 1.499 . S
C2077 H2051 0.950 . S
C2077 C2076 1.414 . S
C2077 C2078 1.374 . S
C2078 H2052 0.950 . S
C2078 C2074 1.385 . S
C2078 C2077 1.374 . S
C2079 C2076 1.499 . S
C2079 C2080 1.373 . S
C2079 C2081 1.389 . S
C2080 H2053 0.950 . S
C2080 C2066 1.377 . S
C2080 C2079 1.373 . S
C2081 C2065 1.377 . S
C2081 C2079 1.389 . S
C2081 C2082 1.524 . S
C2082 C2081 1.524 . S
C2082 C2083 1.397 . S
C2082 C2087 1.363 . S
C2083 H2054 0.950 . S
C2083 C2082 1.397 . S
C2083 C2084 1.334 . S
C2084 H2055 0.950 . S
C2084 C2083 1.334 . S
C2084 C2085 1.287 . S
C2085 C2084 1.287 . S
C2085 C2086 1.524 . S
C2085 H2088 0.999 . S
C2086 H2056 0.950 . S
C2086 C2085 1.524 . S
C2086 C2087 1.415 . S
C2087 H2057 0.950 . S
C2087 C2082 1.363 . S
C2087 C2086 1.415 . S
H2088 C2085 0.999 . S
H2089 C2070 0.913 . S
H2090 C2108 0.951 . S
H2091 C2110 0.951 . S
H2092 C2112 0.950 . S
H2093 C2113 0.950 . S
H2094 C2115 0.950 . S
H2095 C2118 0.950 . S
H2096 C2119 0.950 . S
H2097 C2121 0.950 . S
H2098 C2122 0.950 . S
H2099 C2123 0.951 . S
H2100 C2125 0.951 . S
H2101 C2127 0.950 . S
H2102 C2128 0.950 . S
H2103 C2130 0.950 . S
H2104 C2133 0.950 . S
H2105 C2134 0.950 . S
H2106 C2136 0.950 . S
H2107 C2137 0.950 . S
C2108 H2090 0.951 . S
C2108 C2109 1.366 . S
C2108 C2110 1.388 . S
C2109 C2108 1.366 . S
C2109 C2113 1.385 . S
C2110 H2091 0.951 . S
C2110 C2108 1.388 . S
C2110 C2111 1.366 . S
C2111 C2110 1.366 . S
C2111 C2112 1.414 . S
C2111 C2114 1.499 . S
C2112 H2092 0.950 . S
C2112 C2111 1.414 . S
C2112 C2113 1.374 . S
C2113 H2093 0.950 . S
C2113 C2109 1.385 . S
C2113 C2112 1.374 . S
C2114 C2111 1.499 . S
C2114 C2115 1.373 . S
C2114 C2116 1.389 . S
C2115 H2094 0.950 . S
C2115 C2114 1.373 . S
C2115 C2131 1.377 . S
C2116 C2114 1.389 . S
C2116 C2117 1.524 . S
C2116 C2130 1.377 . S
C2117 C2116 1.524 . S
C2117 C2118 1.397 . S
C2117 C2122 1.363 . S
C2118 H2095 0.950 . S
C2118 C2117 1.397 . S
C2118 C2119 1.334 . S
C2119 H2096 0.950 . S
C2119 C2118 1.334 . S
C2119 C2120 1.287 . S
C2120 C2119 1.287 . S
C2120 C2121 1.524 . S
C2120 H2139 0.913 . S
C2121 H2097 0.950 . S
C2121 C2120 1.524 . S
C2121 C2122 1.415 . S
C2122 H2098 0.950 . S
C2122 C2117 1.363 . S
C2122 C2121 1.415 . S
C2123 H2099 0.951 . S
C2123 C2124 1.366 . S
C2123 C2125 1.388 . S
C2124 C2123 1.366 . S
C2124 C2128 1.385 . S
C2125 H2100 0.951 . S
C2125 C2123 1.388 . S
C2125 C2126 1.366 . S
C2126 C2125 1.366 . S
C2126 C2127 1.414 . S
C2126 C2129 1.499 . S
C2127 H2101 0.950 . S
C2127 C2126 1.414 . S
C2127 C2128 1.374 . S
C2128 H2102 0.950 . S
C2128 C2124 1.385 . S
C2128 C2127 1.374 . S
C2129 C2126 1.499 . S
C2129 C2130 1.373 . S
C2129 C2131 1.389 . S
C2130 H2103 0.950 . S
C2130 C2116 1.377 . S
C2130 C2129 1.373 . S
C2131 C2115 1.377 . S
C2131 C2129 1.389 . S
C2131 C2132 1.524 . S
C2132 C2131 1.524 . S
C2132 C2133 1.397 . S
C2132 C2137 1.363 . S
C2133 H2104 0.950 . S
C2133 C2132 1.397 . S
C2133 C2134 1.334 . S
C2134 H2105 0.950 . S
C2134 C2133 1.334 . S
C2134 C2135 1.287 . S
C2135 C2134 1.287 . S
C2135 C2136 1.524 . S
C2135 H2138 0.999 . S
C2136 H2106 0.950 . S
C2136 C2135 1.524 . S
C2136 C2137 1.415 . S
C2137 H2107 0.950 . S
C2137 C2132 1.363 . S
C2137 C2136 1.415 . S
H2138 C2135 0.999 . S
H2139 C2120 0.913 . S
H2140 C2158 0.951 . S
H2141 C2160 0.951 . S
H2142 C2162 0.950 . S
H2143 C2163 0.950 . S
H2144 C2165 0.950 . S
H2145 C2168 0.950 . S
H2146 C2169 0.950 . S
H2147 C2171 0.950 . S
H2148 C2172 0.950 . S
H2149 C2173 0.951 . S
H2150 C2175 0.951 . S
H2151 C2177 0.950 . S
H2152 C2178 0.950 . S
H2153 C2180 0.950 . S
H2154 C2183 0.950 . S
H2155 C2184 0.950 . S
H2156 C2186 0.950 . S
H2157 C2187 0.950 . S
C2158 H2140 0.951 . S
C2158 C2159 1.366 . S
C2158 C2160 1.388 . S
C2159 C2158 1.366 . S
C2159 C2163 1.385 . S
C2160 H2141 0.951 . S
C2160 C2158 1.388 . S
C2160 C2161 1.366 . S
C2161 C2160 1.366 . S
C2161 C2162 1.414 . S
C2161 C2164 1.499 . S
C2162 H2142 0.950 . S
C2162 C2161 1.414 . S
C2162 C2163 1.374 . S
C2163 H2143 0.950 . S
C2163 C2159 1.385 . S
C2163 C2162 1.374 . S
C2164 C2161 1.499 . S
C2164 C2165 1.373 . S
C2164 C2166 1.389 . S
C2165 H2144 0.950 . S
C2165 C2164 1.373 . S
C2165 C2181 1.377 . S
C2166 C2164 1.389 . S
C2166 C2167 1.524 . S
C2166 C2180 1.377 . S
C2167 C2166 1.524 . S
C2167 C2168 1.397 . S
C2167 C2172 1.363 . S
C2168 H2145 0.950 . S
C2168 C2167 1.397 . S
C2168 C2169 1.334 . S
C2169 H2146 0.950 . S
C2169 C2168 1.334 . S
C2169 C2170 1.287 . S
C2170 C2169 1.287 . S
C2170 C2171 1.524 . S
C2170 H2189 0.913 . S
C2171 H2147 0.950 . S
C2171 C2170 1.524 . S
C2171 C2172 1.415 . S
C2172 H2148 0.950 . S
C2172 C2167 1.363 . S
C2172 C2171 1.415 . S
C2173 H2149 0.951 . S
C2173 C2174 1.366 . S
C2173 C2175 1.388 . S
C2174 C2173 1.366 . S
C2174 C2178 1.385 . S
C2175 H2150 0.951 . S
C2175 C2173 1.388 . S
C2175 C2176 1.366 . S
C2176 C2175 1.366 . S
C2176 C2177 1.414 . S
C2176 C2179 1.499 . S
C2177 H2151 0.950 . S
C2177 C2176 1.414 . S
C2177 C2178 1.374 . S
C2178 H2152 0.950 . S
C2178 C2174 1.385 . S
C2178 C2177 1.374 . S
C2179 C2176 1.499 . S
C2179 C2180 1.373 . S
C2179 C2181 1.389 . S
C2180 H2153 0.950 . S
C2180 C2166 1.377 . S
C2180 C2179 1.373 . S
C2181 C2165 1.377 . S
C2181 C2179 1.389 . S
C2181 C2182 1.524 . S
C2182 C2181 1.524 . S
C2182 C2183 1.397 . S
C2182 C2187 1.363 . S
C2183 H2154 0.950 . S
C2183 C2182 1.397 . S
C2183 C2184 1.334 . S
C2184 H2155 0.950 . S
C2184 C2183 1.334 . S
C2184 C2185 1.287 . S
C2185 C2184 1.287 . S
C2185 C2186 1.524 . S
C2185 H2188 0.999 . S
C2186 H2156 0.950 . S
C2186 C2185 1.524 . S
C2186 C2187 1.415 . S
C2187 H2157 0.950 . S
C2187 C2182 1.363 . S
C2187 C2186 1.415 . S
H2188 C2185 0.999 . S
H2189 C2170 0.913 . S
H2190 C2208 0.956 . S
H2191 C2210 0.951 . S
H2192 C2212 0.950 . S
H2193 C2213 0.950 . S
H2194 C2215 0.950 . S
H2195 C2218 0.950 . S
H2196 C2219 0.950 . S
H2197 C2221 0.950 . S
H2198 C2222 0.950 . S
H2199 C2223 0.951 . S
H2200 C2225 0.951 . S
H2201 C2227 0.950 . S
H2202 C2228 0.950 . S
H2203 C2230 0.950 . S
H2204 C2233 0.950 . S
H2205 C2234 0.950 . S
H2206 C2236 0.950 . S
H2207 C2237 0.950 . S
C2208 H2190 0.956 . S
C2208 C2209 1.366 . S
C2208 C2210 1.388 . S
C2209 C2208 1.366 . S
C2209 C2213 1.385 . S
C2210 H2191 0.951 . S
C2210 C2208 1.388 . S
C2210 C2211 1.366 . S
C2211 C2210 1.366 . S
C2211 C2212 1.414 . S
C2211 C2214 1.499 . S
C2212 H2192 0.950 . S
C2212 C2211 1.414 . S
C2212 C2213 1.374 . S
C2213 H2193 0.950 . S
C2213 C2209 1.385 . S
C2213 C2212 1.374 . S
C2214 C2211 1.499 . S
C2214 C2215 1.373 . S
C2214 C2216 1.389 . S
C2215 H2194 0.950 . S
C2215 C2214 1.373 . S
C2215 C2231 1.377 1_556 S
C2216 C2214 1.389 . S
C2216 C2217 1.524 1_455 S
C2216 C2230 1.377 1_556 S
C2217 C2216 1.524 1_655 S
C2217 C2218 1.397 1_556 S
C2217 C2222 1.363 . S
C2218 H2195 0.950 . S
C2218 C2217 1.397 1_554 S
C2218 C2219 1.334 . S
C2219 H2196 0.950 . S
C2219 C2218 1.334 . S
C2219 C2220 1.287 . S
C2220 C2219 1.287 . S
C2220 C2221 1.524 1_554 S
C2220 H2239 0.913 . S
C2221 H2197 0.950 . S
C2221 C2220 1.524 1_556 S
C2221 C2222 1.415 . S
C2222 H2198 0.950 . S
C2222 C2217 1.363 . S
C2222 C2221 1.415 . S
C2223 H2199 0.951 . S
C2223 C2224 1.366 . S
C2223 C2225 1.388 . S
C2224 C2223 1.366 . S
C2224 C2228 1.385 . S
C2225 H2200 0.951 . S
C2225 C2223 1.388 . S
C2225 C2226 1.366 . S
C2226 C2225 1.366 . S
C2226 C2227 1.414 . S
C2226 C2229 1.499 . S
C2227 H2201 0.950 . S
C2227 C2226 1.414 . S
C2227 C2228 1.374 . S
C2228 H2202 0.950 . S
C2228 C2224 1.385 . S
C2228 C2227 1.374 . S
C2229 C2226 1.499 . S
C2229 C2230 1.373 . S
C2229 C2231 1.389 . S
C2230 H2203 0.950 . S
C2230 C2216 1.377 1_554 S
C2230 C2229 1.373 . S
C2231 C2215 1.377 1_554 S
C2231 C2229 1.389 . S
C2231 C2232 1.524 . S
C2232 C2231 1.524 . S
C2232 C2233 1.397 1_554 S
C2232 C2237 1.363 . S
C2233 H2204 0.950 . S
C2233 C2232 1.397 1_556 S
C2233 C2234 1.334 . S
C2234 H2205 0.950 . S
C2234 C2233 1.334 . S
C2234 C2235 1.287 . S
C2235 C2234 1.287 . S
C2235 C2236 1.524 1_556 S
C2235 H2238 0.999 . S
C2236 H2206 0.950 . S
C2236 C2235 1.524 1_554 S
C2236 C2237 1.415 . S
C2237 H2207 0.950 . S
C2237 C2232 1.363 . S
C2237 C2236 1.415 . S
H2238 C2235 0.999 . S
H2239 C2220 0.913 . S
H2240 C2258 0.951 . S
H2241 C2260 0.951 . S
H2242 C2262 0.950 . S
H2243 C2263 0.950 . S
H2244 C2265 0.950 . S
H2245 C2268 0.950 . S
H2246 C2269 0.950 . S
H2247 C2271 0.950 . S
H2248 C2272 0.950 . S
H2249 C2273 0.951 . S
H2250 C2275 0.951 . S
H2251 C2277 0.950 . S
H2252 C2278 0.950 . S
H2253 C2280 0.950 . S
H2254 C2283 0.950 . S
H2255 C2284 0.950 . S
H2256 C2286 0.950 . S
H2257 C2287 0.950 . S
C2258 H2240 0.951 . S
C2258 C2259 1.366 . S
C2258 C2260 1.388 . S
C2259 C2258 1.366 . S
C2259 C2263 1.385 . S
C2260 H2241 0.951 . S
C2260 C2258 1.388 . S
C2260 C2261 1.366 . S
C2261 C2260 1.366 . S
C2261 C2262 1.414 . S
C2261 C2264 1.499 . S
C2262 H2242 0.950 . S
C2262 C2261 1.414 . S
C2262 C2263 1.374 . S
C2263 H2243 0.950 . S
C2263 C2259 1.385 . S
C2263 C2262 1.374 . S
C2264 C2261 1.499 . S
C2264 C2265 1.373 . S
C2264 C2266 1.389 . S
C2265 H2244 0.950 . S
C2265 C2264 1.373 . S
C2265 C2281 1.377 . S
C2266 C2264 1.389 . S
C2266 C2267 1.524 . S
C2266 C2280 1.377 . S
C2267 C2266 1.524 . S
C2267 C2268 1.397 . S
C2267 C2272 1.363 . S
C2268 H2245 0.950 . S
C2268 C2267 1.397 . S
C2268 C2269 1.334 . S
C2269 H2246 0.950 . S
C2269 C2268 1.334 . S
C2269 C2270 1.287 . S
C2270 C2269 1.287 . S
C2270 C2271 1.524 . S
C2270 H2289 0.913 . S
C2271 H2247 0.950 . S
C2271 C2270 1.524 . S
C2271 C2272 1.415 . S
C2272 H2248 0.950 . S
C2272 C2267 1.363 . S
C2272 C2271 1.415 . S
C2273 H2249 0.951 . S
C2273 C2274 1.366 . S
C2273 C2275 1.388 . S
C2274 C2273 1.366 . S
C2274 C2278 1.385 . S
C2275 H2250 0.951 . S
C2275 C2273 1.388 . S
C2275 C2276 1.366 . S
C2276 C2275 1.366 . S
C2276 C2277 1.414 . S
C2276 C2279 1.499 . S
C2277 H2251 0.950 . S
C2277 C2276 1.414 . S
C2277 C2278 1.374 . S
C2278 H2252 0.950 . S
C2278 C2274 1.385 . S
C2278 C2277 1.374 . S
C2279 C2276 1.499 . S
C2279 C2280 1.373 . S
C2279 C2281 1.389 . S
C2280 H2253 0.950 . S
C2280 C2266 1.377 . S
C2280 C2279 1.373 . S
C2281 C2265 1.377 . S
C2281 C2279 1.389 . S
C2281 C2282 1.524 . S
C2282 C2281 1.524 . S
C2282 C2283 1.397 . S
C2282 C2287 1.363 . S
C2283 H2254 0.950 . S
C2283 C2282 1.397 . S
C2283 C2284 1.334 . S
C2284 H2255 0.950 . S
C2284 C2283 1.334 . S
C2284 C2285 1.287 . S
C2285 C2284 1.287 . S
C2285 C2286 1.524 . S
C2285 H2288 0.999 . S
C2286 H2256 0.950 . S
C2286 C2285 1.524 . S
C2286 C2287 1.415 . S
C2287 H2257 0.950 . S
C2287 C2282 1.363 . S
C2287 C2286 1.415 . S
H2288 C2285 0.999 . S
H2289 C2270 0.913 . S
H2290 C2308 0.951 . S
H2291 C2310 0.951 . S
H2292 C2312 0.950 . S
H2293 C2313 0.950 . S
H2294 C2315 0.950 . S
H2295 C2318 0.950 . S
H2296 C2319 0.950 . S
H2297 C2321 0.950 . S
H2298 C2322 0.950 . S
H2299 C2323 0.951 . S
H2300 C2325 0.951 . S
H2301 C2327 0.950 . S
H2302 C2328 0.950 . S
H2303 C2330 0.950 . S
H2304 C2333 0.950 . S
H2305 C2334 0.950 . S
H2306 C2336 0.950 . S
H2307 C2337 0.950 . S
C2308 H2290 0.951 . S
C2308 C2309 1.366 . S
C2308 C2310 1.388 . S
C2309 C2308 1.366 . S
C2309 C2313 1.385 . S
C2310 H2291 0.951 . S
C2310 C2308 1.388 . S
C2310 C2311 1.366 . S
C2311 C2310 1.366 . S
C2311 C2312 1.414 . S
C2311 C2314 1.499 . S
C2312 H2292 0.950 . S
C2312 C2311 1.414 . S
C2312 C2313 1.374 . S
C2313 H2293 0.950 . S
C2313 C2309 1.385 . S
C2313 C2312 1.374 . S
C2314 C2311 1.499 . S
C2314 C2315 1.373 . S
C2314 C2316 1.389 . S
C2315 H2294 0.950 . S
C2315 C2314 1.373 . S
C2315 C2331 1.377 . S
C2316 C2314 1.389 . S
C2316 C2317 1.524 . S
C2316 C2330 1.377 . S
C2317 C2316 1.524 . S
C2317 C2318 1.397 . S
C2317 C2322 1.363 . S
C2318 H2295 0.950 . S
C2318 C2317 1.397 . S
C2318 C2319 1.334 . S
C2319 H2296 0.950 . S
C2319 C2318 1.334 . S
C2319 C2320 1.287 . S
C2320 C2319 1.287 . S
C2320 C2321 1.524 . S
C2320 H2339 0.913 . S
C2321 H2297 0.950 . S
C2321 C2320 1.524 . S
C2321 C2322 1.415 . S
C2322 H2298 0.950 . S
C2322 C2317 1.363 . S
C2322 C2321 1.415 . S
C2323 H2299 0.951 . S
C2323 C2324 1.366 . S
C2323 C2325 1.388 . S
C2324 C2323 1.366 . S
C2324 C2328 1.385 . S
C2325 H2300 0.951 . S
C2325 C2323 1.388 . S
C2325 C2326 1.366 . S
C2326 C2325 1.366 . S
C2326 C2327 1.414 . S
C2326 C2329 1.499 . S
C2327 H2301 0.950 . S
C2327 C2326 1.414 . S
C2327 C2328 1.374 . S
C2328 H2302 0.950 . S
C2328 C2324 1.385 . S
C2328 C2327 1.374 . S
C2329 C2326 1.499 . S
C2329 C2330 1.373 . S
C2329 C2331 1.389 . S
C2330 H2303 0.950 . S
C2330 C2316 1.377 . S
C2330 C2329 1.373 . S
C2331 C2315 1.377 . S
C2331 C2329 1.389 . S
C2331 C2332 1.524 . S
C2332 C2331 1.524 . S
C2332 C2333 1.397 . S
C2332 C2337 1.363 . S
C2333 H2304 0.950 . S
C2333 C2332 1.397 . S
C2333 C2334 1.334 . S
C2334 H2305 0.950 . S
C2334 C2333 1.334 . S
C2334 C2335 1.287 . S
C2335 C2334 1.287 . S
C2335 C2336 1.524 . S
C2335 H2338 0.999 . S
C2336 H2306 0.950 . S
C2336 C2335 1.524 . S
C2336 C2337 1.415 . S
C2337 H2307 0.950 . S
C2337 C2332 1.363 . S
C2337 C2336 1.415 . S
H2338 C2335 0.999 . S
H2339 C2320 0.913 . S
H2340 C2358 0.951 . S
H2341 C2360 0.951 . S
H2342 C2362 0.950 . S
H2343 C2363 0.950 . S
H2344 C2365 0.950 . S
H2345 C2368 0.950 . S
H2346 C2369 0.950 . S
H2347 C2371 0.950 . S
H2348 C2372 0.950 . S
H2349 C2373 0.951 . S
H2350 C2375 0.951 . S
H2351 C2377 0.950 . S
H2352 C2378 0.950 . S
H2353 C2380 0.950 . S
H2354 C2383 0.950 . S
H2355 C2384 0.950 . S
H2356 C2386 0.950 . S
H2357 C2387 0.950 . S
C2358 H2340 0.951 . S
C2358 C2359 1.366 . S
C2358 C2360 1.388 . S
C2359 C2358 1.366 . S
C2359 C2363 1.385 . S
C2360 H2341 0.951 . S
C2360 C2358 1.388 . S
C2360 C2361 1.366 . S
C2361 C2360 1.366 . S
C2361 C2362 1.414 . S
C2361 C2364 1.499 . S
C2362 H2342 0.950 . S
C2362 C2361 1.414 . S
C2362 C2363 1.374 . S
C2363 H2343 0.950 . S
C2363 C2359 1.385 . S
C2363 C2362 1.374 . S
C2364 C2361 1.499 . S
C2364 C2365 1.373 . S
C2364 C2366 1.389 . S
C2365 H2344 0.950 . S
C2365 C2364 1.373 . S
C2365 C2381 1.377 . S
C2366 C2364 1.389 . S
C2366 C2367 1.524 . S
C2366 C2380 1.377 . S
C2367 C2366 1.524 . S
C2367 C2368 1.397 . S
C2367 C2372 1.363 . S
C2368 H2345 0.950 . S
C2368 C2367 1.397 . S
C2368 C2369 1.334 . S
C2369 H2346 0.950 . S
C2369 C2368 1.334 . S
C2369 C2370 1.287 . S
C2370 C2369 1.287 . S
C2370 C2371 1.524 . S
C2370 H2389 0.913 . S
C2371 H2347 0.950 . S
C2371 C2370 1.524 . S
C2371 C2372 1.415 . S
C2372 H2348 0.950 . S
C2372 C2367 1.363 . S
C2372 C2371 1.415 . S
C2373 H2349 0.951 . S
C2373 C2374 1.366 . S
C2373 C2375 1.388 . S
C2374 C2373 1.366 . S
C2374 C2378 1.385 . S
C2375 H2350 0.951 . S
C2375 C2373 1.388 . S
C2375 C2376 1.366 . S
C2376 C2375 1.366 . S
C2376 C2377 1.414 . S
C2376 C2379 1.499 . S
C2377 H2351 0.950 . S
C2377 C2376 1.414 . S
C2377 C2378 1.374 . S
C2378 H2352 0.950 . S
C2378 C2374 1.385 . S
C2378 C2377 1.374 . S
C2379 C2376 1.499 . S
C2379 C2380 1.373 . S
C2379 C2381 1.389 . S
C2380 H2353 0.950 . S
C2380 C2366 1.377 . S
C2380 C2379 1.373 . S
C2381 C2365 1.377 . S
C2381 C2379 1.389 . S
C2381 C2382 1.524 . S
C2382 C2381 1.524 . S
C2382 C2383 1.397 . S
C2382 C2387 1.363 . S
C2383 H2354 0.950 . S
C2383 C2382 1.397 . S
C2383 C2384 1.334 . S
C2384 H2355 0.950 . S
C2384 C2383 1.334 . S
C2384 C2385 1.287 . S
C2385 C2384 1.287 . S
C2385 C2386 1.524 . S
C2385 H2388 0.999 . S
C2386 H2356 0.950 . S
C2386 C2385 1.524 . S
C2386 C2387 1.415 . S
C2387 H2357 0.950 . S
C2387 C2382 1.363 . S
C2387 C2386 1.415 . S
H2388 C2385 0.999 . S
H2389 C2370 0.913 . S
H2390 C2408 0.951 . S
H2391 C2410 0.951 . S
H2392 C2412 0.950 . S
H2393 C2413 0.950 . S
H2394 C2415 0.950 . S
H2395 C2418 0.950 . S
H2396 C2419 0.950 . S
H2397 C2421 0.950 . S
H2398 C2422 0.950 . S
H2399 C2423 0.951 . S
H2400 C2425 0.951 . S
H2401 C2427 0.950 . S
H2402 C2428 0.950 . S
H2403 C2430 0.950 . S
H2404 C2433 0.950 . S
H2405 C2434 0.950 . S
H2406 C2436 0.950 . S
H2407 C2437 0.950 . S
C2408 H2390 0.951 . S
C2408 C2409 1.366 . S
C2408 C2410 1.388 . S
C2409 C2408 1.366 . S
C2409 C2413 1.385 . S
C2410 H2391 0.951 . S
C2410 C2408 1.388 . S
C2410 C2411 1.366 . S
C2411 C2410 1.366 . S
C2411 C2412 1.414 . S
C2411 C2414 1.499 . S
C2412 H2392 0.950 . S
C2412 C2411 1.414 . S
C2412 C2413 1.374 . S
C2413 H2393 0.950 . S
C2413 C2409 1.385 . S
C2413 C2412 1.374 . S
C2414 C2411 1.499 . S
C2414 C2415 1.373 . S
C2414 C2416 1.389 . S
C2415 H2394 0.950 . S
C2415 C2414 1.373 . S
C2415 C2431 1.377 . S
C2416 C2414 1.389 . S
C2416 C2417 1.524 . S
C2416 C2430 1.377 . S
C2417 C2416 1.524 . S
C2417 C2418 1.397 . S
C2417 C2422 1.363 . S
C2418 H2395 0.950 . S
C2418 C2417 1.397 . S
C2418 C2419 1.334 . S
C2419 H2396 0.950 . S
C2419 C2418 1.334 . S
C2419 C2420 1.287 . S
C2420 C2419 1.287 . S
C2420 C2421 1.524 . S
C2420 H2439 0.913 . S
C2421 H2397 0.950 . S
C2421 C2420 1.524 . S
C2421 C2422 1.415 . S
C2422 H2398 0.950 . S
C2422 C2417 1.363 . S
C2422 C2421 1.415 . S
C2423 H2399 0.951 . S
C2423 C2424 1.366 . S
C2423 C2425 1.388 . S
C2424 C2423 1.366 . S
C2424 C2428 1.385 . S
C2425 H2400 0.951 . S
C2425 C2423 1.388 . S
C2425 C2426 1.366 . S
C2426 C2425 1.366 . S
C2426 C2427 1.414 . S
C2426 C2429 1.499 . S
C2427 H2401 0.950 . S
C2427 C2426 1.414 . S
C2427 C2428 1.374 . S
C2428 H2402 0.950 . S
C2428 C2424 1.385 . S
C2428 C2427 1.374 . S
C2429 C2426 1.499 . S
C2429 C2430 1.373 . S
C2429 C2431 1.389 . S
C2430 H2403 0.950 . S
C2430 C2416 1.377 . S
C2430 C2429 1.373 . S
C2431 C2415 1.377 . S
C2431 C2429 1.389 . S
C2431 C2432 1.524 . S
C2432 C2431 1.524 . S
C2432 C2433 1.397 . S
C2432 C2437 1.363 . S
C2433 H2404 0.950 . S
C2433 C2432 1.397 . S
C2433 C2434 1.334 . S
C2434 H2405 0.950 . S
C2434 C2433 1.334 . S
C2434 C2435 1.287 . S
C2435 C2434 1.287 . S
C2435 C2436 1.524 . S
C2435 H2438 0.999 . S
C2436 H2406 0.950 . S
C2436 C2435 1.524 . S
C2436 C2437 1.415 . S
C2437 H2407 0.950 . S
C2437 C2432 1.363 . S
C2437 C2436 1.415 . S
H2438 C2435 0.999 . S
H2439 C2420 0.913 . S
H2440 C2458 0.951 . S
H2441 C2460 0.951 . S
H2442 C2462 0.950 . S
H2443 C2463 0.950 . S
H2444 C2465 0.950 . S
H2445 C2468 0.950 . S
H2446 C2469 0.950 . S
H2447 C2471 0.950 . S
H2448 C2472 0.950 . S
H2449 C2473 0.951 . S
H2450 C2475 0.951 . S
H2451 C2477 0.950 . S
H2452 C2478 0.950 . S
H2453 C2480 0.950 . S
H2454 C2483 0.950 . S
H2455 C2484 0.950 . S
H2456 C2486 0.950 . S
H2457 C2487 0.950 . S
C2458 H2440 0.951 . S
C2458 C2459 1.366 . S
C2458 C2460 1.388 . S
C2459 C2458 1.366 . S
C2459 C2463 1.385 . S
C2460 H2441 0.951 . S
C2460 C2458 1.388 . S
C2460 C2461 1.366 . S
C2461 C2460 1.366 . S
C2461 C2462 1.414 . S
C2461 C2464 1.499 . S
C2462 H2442 0.950 . S
C2462 C2461 1.414 . S
C2462 C2463 1.374 . S
C2463 H2443 0.950 . S
C2463 C2459 1.385 . S
C2463 C2462 1.374 . S
C2464 C2461 1.499 . S
C2464 C2465 1.373 . S
C2464 C2466 1.389 . S
C2465 H2444 0.950 . S
C2465 C2464 1.373 . S
C2465 C2481 1.377 . S
C2466 C2464 1.389 . S
C2466 C2467 1.524 . S
C2466 C2480 1.377 . S
C2467 C2466 1.524 . S
C2467 C2468 1.397 . S
C2467 C2472 1.363 . S
C2468 H2445 0.950 . S
C2468 C2467 1.397 . S
C2468 C2469 1.334 . S
C2469 H2446 0.950 . S
C2469 C2468 1.334 . S
C2469 C2470 1.287 . S
C2470 C2469 1.287 . S
C2470 C2471 1.524 . S
C2470 H2489 0.913 . S
C2471 H2447 0.950 . S
C2471 C2470 1.524 . S
C2471 C2472 1.415 . S
C2472 H2448 0.950 . S
C2472 C2467 1.363 . S
C2472 C2471 1.415 . S
C2473 H2449 0.951 . S
C2473 C2474 1.366 . S
C2473 C2475 1.388 . S
C2474 C2473 1.366 . S
C2474 C2478 1.385 . S
C2475 H2450 0.951 . S
C2475 C2473 1.388 . S
C2475 C2476 1.366 . S
C2476 C2475 1.366 . S
C2476 C2477 1.414 . S
C2476 C2479 1.499 . S
C2477 H2451 0.950 . S
C2477 C2476 1.414 . S
C2477 C2478 1.374 . S
C2478 H2452 0.950 . S
C2478 C2474 1.385 . S
C2478 C2477 1.374 . S
C2479 C2476 1.499 . S
C2479 C2480 1.373 . S
C2479 C2481 1.389 . S
C2480 H2453 0.950 . S
C2480 C2466 1.377 . S
C2480 C2479 1.373 . S
C2481 C2465 1.377 . S
C2481 C2479 1.389 . S
C2481 C2482 1.524 . S
C2482 C2481 1.524 . S
C2482 C2483 1.397 . S
C2482 C2487 1.363 . S
C2483 H2454 0.950 . S
C2483 C2482 1.397 . S
C2483 C2484 1.334 . S
C2484 H2455 0.950 . S
C2484 C2483 1.334 . S
C2484 C2485 1.287 . S
C2485 C2484 1.287 . S
C2485 C2486 1.524 . S
C2485 H2488 0.999 . S
C2486 H2456 0.950 . S
C2486 C2485 1.524 . S
C2486 C2487 1.415 . S
C2487 H2457 0.950 . S
C2487 C2482 1.363 . S
C2487 C2486 1.415 . S
H2488 C2485 0.999 . S
H2489 C2470 0.913 . S
H2490 C2508 0.951 . S
H2491 C2510 0.951 . S
H2492 C2512 0.950 . S
H2493 C2513 0.950 . S
H2494 C2515 0.950 . S
H2495 C2518 0.950 . S
H2496 C2519 0.950 . S
H2497 C2521 0.950 . S
H2498 C2522 0.950 . S
H2499 C2523 0.951 . S
H2500 C2525 0.951 . S
H2501 C2527 0.950 . S
H2502 C2528 0.950 . S
H2503 C2530 0.950 . S
H2504 C2533 0.950 1_655 S
H2505 C2534 0.950 . S
H2506 C2536 0.950 . S
H2507 C2537 0.950 . S
C2508 H2490 0.951 . S
C2508 C2509 1.366 . S
C2508 C2510 1.388 . S
C2509 C2508 1.366 . S
C2509 C2513 1.385 . S
C2510 H2491 0.951 . S
C2510 C2508 1.388 . S
C2510 C2511 1.366 . S
C2511 C2510 1.366 . S
C2511 C2512 1.414 . S
C2511 C2514 1.499 . S
C2512 H2492 0.950 . S
C2512 C2511 1.414 . S
C2512 C2513 1.374 . S
C2513 H2493 0.950 . S
C2513 C2509 1.385 . S
C2513 C2512 1.374 . S
C2514 C2511 1.499 . S
C2514 C2515 1.373 . S
C2514 C2516 1.389 . S
C2515 H2494 0.950 . S
C2515 C2514 1.373 . S
C2515 C2531 1.377 . S
C2516 C2514 1.389 . S
C2516 C2517 1.524 . S
C2516 C2530 1.377 . S
C2517 C2516 1.524 . S
C2517 C2518 1.397 . S
C2517 C2522 1.363 . S
C2518 H2495 0.950 . S
C2518 C2517 1.397 . S
C2518 C2519 1.334 . S
C2519 H2496 0.950 . S
C2519 C2518 1.334 . S
C2519 C2520 1.287 . S
C2520 C2519 1.287 . S
C2520 C2521 1.524 . S
C2520 H2539 0.913 . S
C2521 H2497 0.950 . S
C2521 C2520 1.524 . S
C2521 C2522 1.415 . S
C2522 H2498 0.950 . S
C2522 C2517 1.363 . S
C2522 C2521 1.415 . S
C2523 H2499 0.951 . S
C2523 C2524 1.366 . S
C2523 C2525 1.388 . S
C2524 C2523 1.366 . S
C2524 C2528 1.385 1_455 S
C2525 H2500 0.951 . S
C2525 C2523 1.388 . S
C2525 C2526 1.366 1_455 S
C2526 C2525 1.366 1_655 S
C2526 C2527 1.414 . S
C2526 C2529 1.499 . S
C2527 H2501 0.950 . S
C2527 C2526 1.414 . S
C2527 C2528 1.374 . S
C2528 H2502 0.950 . S
C2528 C2524 1.385 1_655 S
C2528 C2527 1.374 . S
C2529 C2526 1.499 . S
C2529 C2530 1.373 . S
C2529 C2531 1.389 . S
C2530 H2503 0.950 . S
C2530 C2516 1.377 . S
C2530 C2529 1.373 . S
C2531 C2515 1.377 . S
C2531 C2529 1.389 . S
C2531 C2532 1.524 1_655 S
C2532 C2531 1.524 1_455 S
C2532 C2533 1.397 . S
C2532 C2537 1.363 . S
C2533 H2504 0.950 1_455 S
C2533 C2532 1.397 . S
C2533 C2534 1.334 . S
C2534 H2505 0.950 . S
C2534 C2533 1.334 . S
C2534 C2535 1.287 . S
C2535 C2534 1.287 . S
C2535 C2536 1.524 . S
C2535 H2538 0.999 . S
C2536 H2506 0.950 . S
C2536 C2535 1.524 . S
C2536 C2537 1.415 . S
C2537 H2507 0.950 . S
C2537 C2532 1.363 . S
C2537 C2536 1.415 . S
H2538 C2535 0.999 . S
H2539 C2520 0.913 . S
H2540 C2558 0.951 . S
H2541 C2560 0.951 . S
H2542 C2562 0.950 . S
H2543 C2563 0.950 . S
H2544 C2565 0.950 . S
H2545 C2568 0.950 . S
H2546 C2569 0.950 . S
H2547 C2571 0.950 . S
H2548 C2572 0.950 . S
H2549 C2573 0.951 . S
H2550 C2575 0.951 . S
H2551 C2577 0.950 . S
H2552 C2578 0.950 . S
H2553 C2580 0.950 . S
H2554 C2583 0.950 . S
H2555 C2584 0.950 . S
H2556 C2586 0.950 . S
H2557 C2587 0.950 . S
C2558 H2540 0.951 . S
C2558 C2559 1.366 . S
C2558 C2560 1.388 . S
C2559 C2558 1.366 . S
C2559 C2563 1.385 . S
C2560 H2541 0.951 . S
C2560 C2558 1.388 . S
C2560 C2561 1.366 . S
C2561 C2560 1.366 . S
C2561 C2562 1.414 . S
C2561 C2564 1.499 . S
C2562 H2542 0.950 . S
C2562 C2561 1.414 . S
C2562 C2563 1.374 . S
C2563 H2543 0.950 . S
C2563 C2559 1.385 . S
C2563 C2562 1.374 . S
C2564 C2561 1.499 . S
C2564 C2565 1.373 . S
C2564 C2566 1.389 . S
C2565 H2544 0.950 . S
C2565 C2564 1.373 . S
C2565 C2581 1.377 . S
C2566 C2564 1.389 . S
C2566 C2567 1.524 . S
C2566 C2580 1.377 . S
C2567 C2566 1.524 . S
C2567 C2568 1.397 . S
C2567 C2572 1.363 . S
C2568 H2545 0.950 . S
C2568 C2567 1.397 . S
C2568 C2569 1.334 . S
C2569 H2546 0.950 . S
C2569 C2568 1.334 . S
C2569 C2570 1.287 . S
C2570 C2569 1.287 . S
C2570 C2571 1.524 . S
C2570 H2589 0.913 . S
C2571 H2547 0.950 . S
C2571 C2570 1.524 . S
C2571 C2572 1.415 . S
C2572 H2548 0.950 . S
C2572 C2567 1.363 . S
C2572 C2571 1.415 . S
C2573 H2549 0.951 . S
C2573 C2574 1.366 . S
C2573 C2575 1.388 . S
C2574 C2573 1.366 . S
C2574 C2578 1.385 . S
C2575 H2550 0.951 . S
C2575 C2573 1.388 . S
C2575 C2576 1.366 . S
C2576 C2575 1.366 . S
C2576 C2577 1.414 . S
C2576 C2579 1.499 . S
C2577 H2551 0.950 . S
C2577 C2576 1.414 . S
C2577 C2578 1.374 . S
C2578 H2552 0.950 . S
C2578 C2574 1.385 . S
C2578 C2577 1.374 . S
C2579 C2576 1.499 . S
C2579 C2580 1.373 . S
C2579 C2581 1.389 . S
C2580 H2553 0.950 . S
C2580 C2566 1.377 . S
C2580 C2579 1.373 . S
C2581 C2565 1.377 . S
C2581 C2579 1.389 . S
C2581 C2582 1.524 . S
C2582 C2581 1.524 . S
C2582 C2583 1.397 . S
C2582 C2587 1.363 . S
C2583 H2554 0.950 . S
C2583 C2582 1.397 . S
C2583 C2584 1.334 . S
C2584 H2555 0.950 . S
C2584 C2583 1.334 . S
C2584 C2585 1.287 . S
C2585 C2584 1.287 . S
C2585 C2586 1.524 . S
C2585 H2588 0.999 . S
C2586 H2556 0.950 . S
C2586 C2585 1.524 . S
C2586 C2587 1.415 . S
C2587 H2557 0.950 . S
C2587 C2582 1.363 . S
C2587 C2586 1.415 . S
H2588 C2585 0.999 . S
H2589 C2570 0.913 . S
H2590 C2608 0.951 . S
H2591 C2610 0.951 . S
H2592 C2612 0.950 . S
H2593 C2613 0.950 . S
H2594 C2615 0.950 . S
H2595 C2618 0.950 . S
H2596 C2619 0.950 . S
H2597 C2621 0.950 . S
H2598 C2622 0.950 . S
H2599 C2623 0.951 . S
H2600 C2625 0.951 . S
H2601 C2627 0.950 . S
H2602 C2628 0.950 . S
H2603 C2630 0.950 . S
H2604 C2633 0.950 . S
H2605 C2634 0.950 . S
H2606 C2636 0.950 . S
H2607 C2637 0.950 . S
C2608 H2590 0.951 . S
C2608 C2609 1.366 . S
C2608 C2610 1.388 . S
C2609 C2608 1.366 . S
C2609 C2613 1.385 . S
C2610 H2591 0.951 . S
C2610 C2608 1.388 . S
C2610 C2611 1.366 . S
C2611 C2610 1.366 . S
C2611 C2612 1.414 . S
C2611 C2614 1.499 . S
C2612 H2592 0.950 . S
C2612 C2611 1.414 . S
C2612 C2613 1.374 . S
C2613 H2593 0.950 . S
C2613 C2609 1.385 . S
C2613 C2612 1.374 . S
C2614 C2611 1.499 . S
C2614 C2615 1.373 . S
C2614 C2616 1.389 . S
C2615 H2594 0.950 . S
C2615 C2614 1.373 . S
C2615 C2631 1.377 . S
C2616 C2614 1.389 . S
C2616 C2617 1.524 . S
C2616 C2630 1.377 . S
C2617 C2616 1.524 . S
C2617 C2618 1.397 . S
C2617 C2622 1.363 . S
C2618 H2595 0.950 . S
C2618 C2617 1.397 . S
C2618 C2619 1.334 . S
C2619 H2596 0.950 . S
C2619 C2618 1.334 . S
C2619 C2620 1.287 . S
C2620 C2619 1.287 . S
C2620 C2621 1.524 . S
C2620 H2639 0.913 . S
C2621 H2597 0.950 . S
C2621 C2620 1.524 . S
C2621 C2622 1.415 . S
C2622 H2598 0.950 . S
C2622 C2617 1.363 . S
C2622 C2621 1.415 . S
C2623 H2599 0.951 . S
C2623 C2624 1.366 . S
C2623 C2625 1.388 . S
C2624 C2623 1.366 . S
C2624 C2628 1.385 . S
C2625 H2600 0.951 . S
C2625 C2623 1.388 . S
C2625 C2626 1.366 . S
C2626 C2625 1.366 . S
C2626 C2627 1.414 . S
C2626 C2629 1.499 . S
C2627 H2601 0.950 . S
C2627 C2626 1.414 . S
C2627 C2628 1.374 . S
C2628 H2602 0.950 . S
C2628 C2624 1.385 . S
C2628 C2627 1.374 . S
C2629 C2626 1.499 . S
C2629 C2630 1.373 . S
C2629 C2631 1.389 . S
C2630 H2603 0.950 . S
C2630 C2616 1.377 . S
C2630 C2629 1.373 . S
C2631 C2615 1.377 . S
C2631 C2629 1.389 . S
C2631 C2632 1.524 . S
C2632 C2631 1.524 . S
C2632 C2633 1.397 . S
C2632 C2637 1.363 . S
C2633 H2604 0.950 . S
C2633 C2632 1.397 . S
C2633 C2634 1.334 . S
C2634 H2605 0.950 . S
C2634 C2633 1.334 . S
C2634 C2635 1.287 . S
C2635 C2634 1.287 . S
C2635 C2636 1.524 . S
C2635 H2638 0.989 1_556 S
C2636 H2606 0.950 . S
C2636 C2635 1.524 . S
C2636 C2637 1.415 . S
C2637 H2607 0.950 . S
C2637 C2632 1.363 . S
C2637 C2636 1.415 . S
H2638 C2635 0.989 1_554 S
H2639 C2620 0.913 . S
H2640 C2658 0.951 . S
H2641 C2660 0.951 . S
H2642 C2662 0.950 . S
H2643 C2663 0.950 . S
H2644 C2665 0.950 . S
H2645 C2668 0.950 . S
H2646 C2669 0.950 . S
H2647 C2671 0.950 . S
H2648 C2672 0.950 . S
H2649 C2673 0.951 . S
H2650 C2675 0.951 1_556 S
H2651 C2677 0.950 . S
H2652 C2678 0.950 . S
H2653 C2680 0.950 . S
H2654 C2683 0.950 . S
H2655 C2684 0.950 . S
H2656 C2686 0.950 . S
H2657 C2687 0.950 . S
C2658 H2640 0.951 . S
C2658 C2659 1.366 . S
C2658 C2660 1.388 . S
C2659 C2658 1.366 . S
C2659 C2663 1.385 . S
C2660 H2641 0.951 . S
C2660 C2658 1.388 . S
C2660 C2661 1.366 . S
C2661 C2660 1.366 . S
C2661 C2662 1.414 . S
C2661 C2664 1.499 . S
C2662 H2642 0.950 . S
C2662 C2661 1.414 . S
C2662 C2663 1.374 . S
C2663 H2643 0.950 . S
C2663 C2659 1.385 . S
C2663 C2662 1.374 . S
C2664 C2661 1.499 . S
C2664 C2665 1.373 . S
C2664 C2666 1.389 . S
C2665 H2644 0.950 . S
C2665 C2664 1.373 . S
C2665 C2681 1.377 . S
C2666 C2664 1.389 . S
C2666 C2667 1.524 . S
C2666 C2680 1.377 . S
C2667 C2666 1.524 . S
C2667 C2668 1.397 . S
C2667 C2672 1.363 . S
C2668 H2645 0.950 . S
C2668 C2667 1.397 . S
C2668 C2669 1.334 . S
C2669 H2646 0.950 . S
C2669 C2668 1.334 . S
C2669 C2670 1.287 . S
C2670 C2669 1.287 . S
C2670 C2671 1.524 . S
C2670 H2689 0.913 . S
C2671 H2647 0.950 . S
C2671 C2670 1.524 . S
C2671 C2672 1.415 . S
C2672 H2648 0.950 . S
C2672 C2667 1.363 . S
C2672 C2671 1.415 . S
C2673 H2649 0.951 . S
C2673 C2674 1.366 . S
C2673 C2675 1.388 . S
C2674 C2673 1.366 . S
C2674 C2678 1.385 . S
C2675 H2650 0.951 1_554 S
C2675 C2673 1.388 . S
C2675 C2676 1.366 1_554 S
C2676 C2675 1.366 1_556 S
C2676 C2677 1.414 1_556 S
C2676 C2679 1.499 . S
C2677 H2651 0.950 . S
C2677 C2676 1.414 1_554 S
C2677 C2678 1.374 . S
C2678 H2652 0.950 . S
C2678 C2674 1.385 . S
C2678 C2677 1.374 . S
C2679 C2676 1.499 . S
C2679 C2680 1.373 . S
C2679 C2681 1.389 . S
C2680 H2653 0.950 . S
C2680 C2666 1.377 . S
C2680 C2679 1.373 . S
C2681 C2665 1.377 . S
C2681 C2679 1.389 . S
C2681 C2682 1.524 . S
C2682 C2681 1.524 . S
C2682 C2683 1.397 1_556 S
C2682 C2687 1.363 . S
C2683 H2654 0.950 . S
C2683 C2682 1.397 1_554 S
C2683 C2684 1.334 . S
C2684 H2655 0.950 . S
C2684 C2683 1.334 . S
C2684 C2685 1.287 . S
C2685 C2684 1.287 . S
C2685 C2686 1.524 1_554 S
C2685 H2688 0.999 . S
C2686 H2656 0.950 . S
C2686 C2685 1.524 1_556 S
C2686 C2687 1.415 . S
C2687 H2657 0.950 . S
C2687 C2682 1.363 . S
C2687 C2686 1.415 . S
H2688 C2685 0.999 . S
H2689 C2670 0.913 . S
H2690 C2708 0.951 . S
H2691 C2710 0.951 . S
H2692 C2712 0.950 . S
H2693 C2713 0.950 . S
H2694 C2715 0.950 . S
H2695 C2718 0.950 . S
H2696 C2719 0.950 . S
H2697 C2721 0.950 . S
H2698 C2722 0.950 . S
H2699 C2723 0.951 . S
H2700 C2725 0.951 . S
H2701 C2727 0.950 . S
H2702 C2728 0.950 . S
H2703 C2730 0.950 . S
H2704 C2733 0.950 . S
H2705 C2734 0.950 . S
H2706 C2736 0.950 . S
H2707 C2737 0.950 . S
C2708 H2690 0.951 . S
C2708 C2709 1.366 . S
C2708 C2710 1.388 . S
C2709 C2708 1.366 . S
C2709 C2713 1.385 . S
C2710 H2691 0.951 . S
C2710 C2708 1.388 . S
C2710 C2711 1.366 . S
C2711 C2710 1.366 . S
C2711 C2712 1.414 . S
C2711 C2714 1.499 . S
C2712 H2692 0.950 . S
C2712 C2711 1.414 . S
C2712 C2713 1.374 . S
C2713 H2693 0.950 . S
C2713 C2709 1.385 . S
C2713 C2712 1.374 . S
C2714 C2711 1.499 . S
C2714 C2715 1.373 . S
C2714 C2716 1.389 . S
C2715 H2694 0.950 . S
C2715 C2714 1.373 . S
C2715 C2731 1.377 . S
C2716 C2714 1.389 . S
C2716 C2717 1.524 . S
C2716 C2730 1.377 . S
C2717 C2716 1.524 . S
C2717 C2718 1.397 . S
C2717 C2722 1.363 . S
C2718 H2695 0.950 . S
C2718 C2717 1.397 . S
C2718 C2719 1.334 . S
C2719 H2696 0.950 . S
C2719 C2718 1.334 . S
C2719 C2720 1.287 . S
C2720 C2719 1.287 . S
C2720 C2721 1.524 . S
C2720 H2739 0.913 . S
C2721 H2697 0.950 . S
C2721 C2720 1.524 . S
C2721 C2722 1.415 . S
C2722 H2698 0.950 . S
C2722 C2717 1.363 . S
C2722 C2721 1.415 . S
C2723 H2699 0.951 . S
C2723 C2724 1.366 . S
C2723 C2725 1.388 . S
C2724 C2723 1.366 . S
C2724 C2728 1.385 . S
C2725 H2700 0.951 . S
C2725 C2723 1.388 . S
C2725 C2726 1.366 . S
C2726 C2725 1.366 . S
C2726 C2727 1.414 . S
C2726 C2729 1.499 . S
C2727 H2701 0.950 . S
C2727 C2726 1.414 . S
C2727 C2728 1.374 . S
C2728 H2702 0.950 . S
C2728 C2724 1.385 . S
C2728 C2727 1.374 . S
C2729 C2726 1.499 . S
C2729 C2730 1.373 . S
C2729 C2731 1.389 . S
C2730 H2703 0.950 . S
C2730 C2716 1.377 . S
C2730 C2729 1.373 . S
C2731 C2715 1.377 . S
C2731 C2729 1.389 . S
C2731 C2732 1.524 . S
C2732 C2731 1.524 . S
C2732 C2733 1.397 . S
C2732 C2737 1.363 . S
C2733 H2704 0.950 . S
C2733 C2732 1.397 . S
C2733 C2734 1.334 . S
C2734 H2705 0.950 . S
C2734 C2733 1.334 . S
C2734 C2735 1.287 . S
C2735 C2734 1.287 . S
C2735 C2736 1.524 . S
C2735 H2738 0.999 . S
C2736 H2706 0.950 . S
C2736 C2735 1.524 . S
C2736 C2737 1.415 . S
C2737 H2707 0.950 . S
C2737 C2732 1.363 . S
C2737 C2736 1.415 . S
H2738 C2735 0.999 . S
H2739 C2720 0.913 . S
H2740 C2758 0.951 . S
H2741 C2760 0.951 . S
H2742 C2762 0.950 . S
H2743 C2763 0.950 . S
H2744 C2765 0.950 . S
H2745 C2768 0.950 . S
H2746 C2769 0.950 . S
H2747 C2771 0.950 . S
H2748 C2772 0.950 . S
H2749 C2773 0.951 . S
H2750 C2775 0.951 . S
H2751 C2777 0.950 . S
H2752 C2778 0.950 . S
H2753 C2780 0.950 . S
H2754 C2783 0.950 . S
H2755 C2784 0.950 . S
H2756 C2786 0.950 . S
H2757 C2787 0.950 . S
C2758 H2740 0.951 . S
C2758 C2759 1.366 1_655 S
C2758 C2760 1.388 . S
C2759 C2758 1.366 1_455 S
C2759 C2763 1.385 . S
C2760 H2741 0.951 . S
C2760 C2758 1.388 . S
C2760 C2761 1.366 . S
C2761 C2760 1.366 . S
C2761 C2762 1.414 . S
C2761 C2764 1.499 . S
C2762 H2742 0.950 . S
C2762 C2761 1.414 . S
C2762 C2763 1.374 1_655 S
C2763 H2743 0.950 . S
C2763 C2759 1.385 . S
C2763 C2762 1.374 1_455 S
C2764 C2761 1.499 . S
C2764 C2765 1.373 . S
C2764 C2766 1.389 . S
C2765 H2744 0.950 . S
C2765 C2764 1.373 . S
C2765 C2781 1.377 . S
C2766 C2764 1.389 . S
C2766 C2767 1.524 1_655 S
C2766 C2780 1.377 . S
C2767 C2766 1.524 1_455 S
C2767 C2768 1.397 . S
C2767 C2772 1.363 1_455 S
C2768 H2745 0.950 . S
C2768 C2767 1.397 . S
C2768 C2769 1.334 . S
C2769 H2746 0.950 . S
C2769 C2768 1.334 . S
C2769 C2770 1.287 . S
C2770 C2769 1.287 . S
C2770 C2771 1.524 . S
C2770 H2789 0.913 . S
C2771 H2747 0.950 . S
C2771 C2770 1.524 . S
C2771 C2772 1.415 1_455 S
C2772 H2748 0.950 . S
C2772 C2767 1.363 1_655 S
C2772 C2771 1.415 1_655 S
C2773 H2749 0.951 . S
C2773 C2774 1.366 . S
C2773 C2775 1.388 . S
C2774 C2773 1.366 . S
C2774 C2778 1.385 . S
C2775 H2750 0.951 . S
C2775 C2773 1.388 . S
C2775 C2776 1.366 . S
C2776 C2775 1.366 . S
C2776 C2777 1.414 . S
C2776 C2779 1.499 . S
C2777 H2751 0.950 . S
C2777 C2776 1.414 . S
C2777 C2778 1.374 . S
C2778 H2752 0.950 . S
C2778 C2774 1.385 . S
C2778 C2777 1.374 . S
C2779 C2776 1.499 . S
C2779 C2780 1.373 . S
C2779 C2781 1.389 . S
C2780 H2753 0.950 . S
C2780 C2766 1.377 . S
C2780 C2779 1.373 . S
C2781 C2765 1.377 . S
C2781 C2779 1.389 . S
C2781 C2782 1.524 . S
C2782 C2781 1.524 . S
C2782 C2783 1.397 . S
C2782 C2787 1.363 . S
C2783 H2754 0.950 . S
C2783 C2782 1.397 . S
C2783 C2784 1.334 . S
C2784 H2755 0.950 . S
C2784 C2783 1.334 . S
C2784 C2785 1.287 . S
C2785 C2784 1.287 . S
C2785 C2786 1.524 . S
C2785 H2788 0.999 . S
C2786 H2756 0.950 . S
C2786 C2785 1.524 . S
C2786 C2787 1.415 . S
C2787 H2757 0.950 . S
C2787 C2782 1.363 . S
C2787 C2786 1.415 . S
H2788 C2785 0.999 . S
H2789 C2770 0.913 . S
H2790 C2808 0.951 . S
H2791 C2810 0.951 . S
H2792 C2812 0.950 . S
H2793 C2813 0.950 . S
H2794 C2815 0.950 . S
H2795 C2818 0.950 . S
H2796 C2819 0.950 . S
H2797 C2821 0.950 . S
H2798 C2822 0.950 . S
H2799 C2823 0.951 . S
H2800 C2825 0.951 . S
H2801 C2827 0.950 . S
H2802 C2828 0.950 . S
H2803 C2830 0.950 . S
H2804 C2833 0.950 . S
H2805 C2834 0.950 . S
H2806 C2836 0.950 . S
H2807 C2837 0.950 . S
C2808 H2790 0.951 . S
C2808 C2809 1.366 . S
C2808 C2810 1.388 . S
C2809 C2808 1.366 . S
C2809 C2813 1.385 . S
C2810 H2791 0.951 . S
C2810 C2808 1.388 . S
C2810 C2811 1.366 . S
C2811 C2810 1.366 . S
C2811 C2812 1.414 . S
C2811 C2814 1.499 . S
C2812 H2792 0.950 . S
C2812 C2811 1.414 . S
C2812 C2813 1.374 . S
C2813 H2793 0.950 . S
C2813 C2809 1.385 . S
C2813 C2812 1.374 . S
C2814 C2811 1.499 . S
C2814 C2815 1.373 . S
C2814 C2816 1.389 . S
C2815 H2794 0.950 . S
C2815 C2814 1.373 . S
C2815 C2831 1.377 . S
C2816 C2814 1.389 . S
C2816 C2817 1.524 . S
C2816 C2830 1.377 . S
C2817 C2816 1.524 . S
C2817 C2818 1.397 . S
C2817 C2822 1.363 . S
C2818 H2795 0.950 . S
C2818 C2817 1.397 . S
C2818 C2819 1.334 . S
C2819 H2796 0.950 . S
C2819 C2818 1.334 . S
C2819 C2820 1.287 . S
C2820 C2819 1.287 . S
C2820 C2821 1.524 . S
C2820 H2839 0.913 . S
C2821 H2797 0.950 . S
C2821 C2820 1.524 . S
C2821 C2822 1.415 . S
C2822 H2798 0.950 . S
C2822 C2817 1.363 . S
C2822 C2821 1.415 . S
C2823 H2799 0.951 . S
C2823 C2824 1.366 . S
C2823 C2825 1.388 . S
C2824 C2823 1.366 . S
C2824 C2828 1.385 . S
C2825 H2800 0.951 . S
C2825 C2823 1.388 . S
C2825 C2826 1.366 . S
C2826 C2825 1.366 . S
C2826 C2827 1.414 . S
C2826 C2829 1.499 . S
C2827 H2801 0.950 . S
C2827 C2826 1.414 . S
C2827 C2828 1.374 . S
C2828 H2802 0.950 . S
C2828 C2824 1.385 . S
C2828 C2827 1.374 . S
C2829 C2826 1.499 . S
C2829 C2830 1.373 . S
C2829 C2831 1.389 . S
C2830 H2803 0.950 . S
C2830 C2816 1.377 . S
C2830 C2829 1.373 . S
C2831 C2815 1.377 . S
C2831 C2829 1.389 . S
C2831 C2832 1.524 . S
C2832 C2831 1.524 . S
C2832 C2833 1.397 . S
C2832 C2837 1.363 . S
C2833 H2804 0.950 . S
C2833 C2832 1.397 . S
C2833 C2834 1.334 . S
C2834 H2805 0.950 . S
C2834 C2833 1.334 . S
C2834 C2835 1.287 . S
C2835 C2834 1.287 . S
C2835 C2836 1.524 . S
C2835 H2838 0.999 . S
C2836 H2806 0.950 . S
C2836 C2835 1.524 . S
C2836 C2837 1.415 . S
C2837 H2807 0.950 . S
C2837 C2832 1.363 . S
C2837 C2836 1.415 . S
H2838 C2835 0.999 . S
H2839 C2820 0.913 . S
H2840 C2858 0.951 . S
H2841 C2860 0.951 . S
H2842 C2862 0.950 . S
H2843 C2863 0.950 . S
H2844 C2865 0.950 . S
H2845 C2868 0.950 . S
H2846 C2869 0.950 . S
H2847 C2871 0.950 . S
H2848 C2872 0.950 . S
H2849 C2873 0.951 . S
H2850 C2875 0.951 1_554 S
H2851 C2877 0.950 . S
H2852 C2878 0.950 . S
H2853 C2880 0.950 . S
H2854 C2883 0.950 . S
H2855 C2884 0.950 . S
H2856 C2886 0.950 . S
H2857 C2887 0.950 . S
C2858 H2840 0.951 . S
C2858 C2859 1.366 . S
C2858 C2860 1.388 . S
C2859 C2858 1.366 . S
C2859 C2863 1.385 . S
C2860 H2841 0.951 . S
C2860 C2858 1.388 . S
C2860 C2861 1.366 . S
C2861 C2860 1.366 . S
C2861 C2862 1.414 . S
C2861 C2864 1.499 . S
C2862 H2842 0.950 . S
C2862 C2861 1.414 . S
C2862 C2863 1.374 . S
C2863 H2843 0.950 . S
C2863 C2859 1.385 . S
C2863 C2862 1.374 . S
C2864 C2861 1.499 . S
C2864 C2865 1.373 . S
C2864 C2866 1.389 . S
C2865 H2844 0.950 . S
C2865 C2864 1.373 . S
C2865 C2881 1.377 . S
C2866 C2864 1.389 . S
C2866 C2867 1.524 . S
C2866 C2880 1.377 . S
C2867 C2866 1.524 . S
C2867 C2868 1.397 . S
C2867 C2872 1.363 . S
C2868 H2845 0.950 . S
C2868 C2867 1.397 . S
C2868 C2869 1.334 . S
C2869 H2846 0.950 . S
C2869 C2868 1.334 . S
C2869 C2870 1.287 . S
C2870 C2869 1.287 . S
C2870 C2871 1.524 . S
C2870 H2889 0.913 . S
C2871 H2847 0.950 . S
C2871 C2870 1.524 . S
C2871 C2872 1.415 . S
C2872 H2848 0.950 . S
C2872 C2867 1.363 . S
C2872 C2871 1.415 . S
C2873 H2849 0.951 . S
C2873 C2874 1.366 . S
C2873 C2875 1.388 . S
C2874 C2873 1.366 . S
C2874 C2878 1.385 . S
C2875 H2850 0.951 1_556 S
C2875 C2873 1.388 . S
C2875 C2876 1.366 1_556 S
C2876 C2875 1.366 1_554 S
C2876 C2877 1.414 1_554 S
C2876 C2879 1.499 . S
C2877 H2851 0.950 . S
C2877 C2876 1.414 1_556 S
C2877 C2878 1.374 . S
C2878 H2852 0.950 . S
C2878 C2874 1.385 . S
C2878 C2877 1.374 . S
C2879 C2876 1.499 . S
C2879 C2880 1.373 . S
C2879 C2881 1.389 . S
C2880 H2853 0.950 . S
C2880 C2866 1.377 . S
C2880 C2879 1.373 . S
C2881 C2865 1.377 . S
C2881 C2879 1.389 . S
C2881 C2882 1.524 . S
C2882 C2881 1.524 . S
C2882 C2883 1.397 1_554 S
C2882 C2887 1.363 . S
C2883 H2854 0.950 . S
C2883 C2882 1.397 1_556 S
C2883 C2884 1.334 . S
C2884 H2855 0.950 . S
C2884 C2883 1.334 . S
C2884 C2885 1.287 . S
C2885 C2884 1.287 . S
C2885 C2886 1.524 1_556 S
C2885 H2888 0.999 . S
C2886 H2856 0.950 . S
C2886 C2885 1.524 1_554 S
C2886 C2887 1.415 . S
C2887 H2857 0.950 . S
C2887 C2882 1.363 . S
C2887 C2886 1.415 . S
H2888 C2885 0.999 . S
H2889 C2870 0.913 . S
H2890 C2908 0.951 . S
H2891 C2910 0.951 . S
H2892 C2912 0.950 . S
H2893 C2913 0.950 . S
H2894 C2915 0.950 . S
H2895 C2918 0.950 . S
H2896 C2919 0.950 . S
H2897 C2921 0.950 . S
H2898 C2922 0.950 . S
H2899 C2923 0.951 . S
H2900 C2925 0.951 . S
H2901 C2927 0.950 . S
H2902 C2928 0.950 . S
H2903 C2930 0.950 . S
H2904 C2933 0.950 . S
H2905 C2934 0.950 . S
H2906 C2936 0.950 . S
H2907 C2937 0.950 . S
C2908 H2890 0.951 . S
C2908 C2909 1.366 . S
C2908 C2910 1.388 . S
C2909 C2908 1.366 . S
C2909 C2913 1.385 . S
C2910 H2891 0.951 . S
C2910 C2908 1.388 . S
C2910 C2911 1.366 . S
C2911 C2910 1.366 . S
C2911 C2912 1.414 . S
C2911 C2914 1.499 . S
C2912 H2892 0.950 . S
C2912 C2911 1.414 . S
C2912 C2913 1.374 . S
C2913 H2893 0.950 . S
C2913 C2909 1.385 . S
C2913 C2912 1.374 . S
C2914 C2911 1.499 . S
C2914 C2915 1.373 . S
C2914 C2916 1.389 . S
C2915 H2894 0.950 . S
C2915 C2914 1.373 . S
C2915 C2931 1.377 . S
C2916 C2914 1.389 . S
C2916 C2917 1.524 . S
C2916 C2930 1.377 . S
C2917 C2916 1.524 . S
C2917 C2918 1.397 . S
C2917 C2922 1.363 . S
C2918 H2895 0.950 . S
C2918 C2917 1.397 . S
C2918 C2919 1.334 . S
C2919 H2896 0.950 . S
C2919 C2918 1.334 . S
C2919 C2920 1.287 . S
C2920 C2919 1.287 . S
C2920 C2921 1.524 . S
C2920 H2939 0.913 . S
C2921 H2897 0.950 . S
C2921 C2920 1.524 . S
C2921 C2922 1.415 . S
C2922 H2898 0.950 . S
C2922 C2917 1.363 . S
C2922 C2921 1.415 . S
C2923 H2899 0.951 . S
C2923 C2924 1.366 . S
C2923 C2925 1.388 . S
C2924 C2923 1.366 . S
C2924 C2928 1.385 . S
C2925 H2900 0.951 . S
C2925 C2923 1.388 . S
C2925 C2926 1.366 . S
C2926 C2925 1.366 . S
C2926 C2927 1.414 . S
C2926 C2929 1.499 . S
C2927 H2901 0.950 . S
C2927 C2926 1.414 . S
C2927 C2928 1.374 . S
C2928 H2902 0.950 . S
C2928 C2924 1.385 . S
C2928 C2927 1.374 . S
C2929 C2926 1.499 . S
C2929 C2930 1.373 . S
C2929 C2931 1.389 . S
C2930 H2903 0.950 . S
C2930 C2916 1.377 . S
C2930 C2929 1.373 . S
C2931 C2915 1.377 . S
C2931 C2929 1.389 . S
C2931 C2932 1.524 . S
C2932 C2931 1.524 . S
C2932 C2933 1.397 . S
C2932 C2937 1.363 . S
C2933 H2904 0.950 . S
C2933 C2932 1.397 . S
C2933 C2934 1.334 . S
C2934 H2905 0.950 . S
C2934 C2933 1.334 . S
C2934 C2935 1.287 . S
C2935 C2934 1.287 . S
C2935 C2936 1.524 . S
C2935 H2938 0.999 . S
C2936 H2906 0.950 . S
C2936 C2935 1.524 . S
C2936 C2937 1.415 . S
C2937 H2907 0.950 . S
C2937 C2932 1.363 . S
C2937 C2936 1.415 . S
H2938 C2935 0.999 . S
H2939 C2920 0.913 . S
H2940 C2958 0.951 . S
H2941 C2960 0.951 . S
H2942 C2962 0.950 . S
H2943 C2963 0.950 . S
H2944 C2965 0.950 . S
H2945 C2968 0.950 . S
H2946 C2969 0.950 . S
H2947 C2971 0.950 . S
H2948 C2972 0.950 . S
H2949 C2973 0.951 . S
H2950 C2975 0.951 . S
H2951 C2977 0.950 . S
H2952 C2978 0.950 . S
H2953 C2980 0.950 . S
H2954 C2983 0.950 . S
H2955 C2984 0.950 . S
H2956 C2986 0.950 . S
H2957 C2987 0.950 . S
C2958 H2940 0.951 . S
C2958 C2959 1.366 . S
C2958 C2960 1.388 . S
C2959 C2958 1.366 . S
C2959 C2963 1.385 . S
C2960 H2941 0.951 . S
C2960 C2958 1.388 . S
C2960 C2961 1.366 . S
C2961 C2960 1.366 . S
C2961 C2962 1.414 . S
C2961 C2964 1.499 . S
C2962 H2942 0.950 . S
C2962 C2961 1.414 . S
C2962 C2963 1.374 . S
C2963 H2943 0.950 . S
C2963 C2959 1.385 . S
C2963 C2962 1.374 . S
C2964 C2961 1.499 . S
C2964 C2965 1.373 . S
C2964 C2966 1.389 . S
C2965 H2944 0.950 . S
C2965 C2964 1.373 . S
C2965 C2981 1.377 . S
C2966 C2964 1.389 . S
C2966 C2967 1.524 . S
C2966 C2980 1.377 . S
C2967 C2966 1.524 . S
C2967 C2968 1.397 . S
C2967 C2972 1.363 . S
C2968 H2945 0.950 . S
C2968 C2967 1.397 . S
C2968 C2969 1.334 . S
C2969 H2946 0.950 . S
C2969 C2968 1.334 . S
C2969 C2970 1.287 . S
C2970 C2969 1.287 . S
C2970 C2971 1.524 . S
C2970 H2989 0.913 . S
C2971 H2947 0.950 . S
C2971 C2970 1.524 . S
C2971 C2972 1.415 . S
C2972 H2948 0.950 . S
C2972 C2967 1.363 . S
C2972 C2971 1.415 . S
C2973 H2949 0.951 . S
C2973 C2974 1.366 . S
C2973 C2975 1.388 . S
C2974 C2973 1.366 . S
C2974 C2978 1.385 . S
C2975 H2950 0.951 . S
C2975 C2973 1.388 . S
C2975 C2976 1.366 . S
C2976 C2975 1.366 . S
C2976 C2977 1.414 . S
C2976 C2979 1.499 . S
C2977 H2951 0.950 . S
C2977 C2976 1.414 . S
C2977 C2978 1.374 . S
C2978 H2952 0.950 . S
C2978 C2974 1.385 . S
C2978 C2977 1.374 . S
C2979 C2976 1.499 . S
C2979 C2980 1.373 . S
C2979 C2981 1.389 . S
C2980 H2953 0.950 . S
C2980 C2966 1.377 . S
C2980 C2979 1.373 . S
C2981 C2965 1.377 . S
C2981 C2979 1.389 . S
C2981 C2982 1.524 . S
C2982 C2981 1.524 . S
C2982 C2983 1.397 . S
C2982 C2987 1.363 . S
C2983 H2954 0.950 . S
C2983 C2982 1.397 . S
C2983 C2984 1.334 . S
C2984 H2955 0.950 . S
C2984 C2983 1.334 . S
C2984 C2985 1.287 . S
C2985 C2984 1.287 . S
C2985 C2986 1.524 . S
C2985 H2988 0.999 . S
C2986 H2956 0.950 . S
C2986 C2985 1.524 . S
C2986 C2987 1.415 . S
C2987 H2957 0.950 . S
C2987 C2982 1.363 . S
C2987 C2986 1.415 . S
H2988 C2985 0.999 . S
H2989 C2970 0.913 . S
H2990 C3008 0.951 . S
H2991 C3010 0.951 . S
H2992 C3012 0.950 . S
H2993 C3013 0.950 . S
H2994 C3015 0.950 . S
H2995 C3018 0.950 . S
H2996 C3019 0.950 . S
H2997 C3021 0.950 . S
H2998 C3022 0.950 . S
H2999 C3023 0.951 . S
H3000 C3025 0.951 . S
H3001 C3027 0.950 . S
H3002 C3028 0.950 . S
H3003 C3030 0.950 . S
H3004 C3033 0.950 . S
H3005 C3034 0.950 . S
H3006 C3036 0.950 . S
H3007 C3037 0.950 . S
C3008 H2990 0.951 . S
C3008 C3009 1.366 . S
C3008 C3010 1.388 . S
C3009 C3008 1.366 . S
C3009 C3013 1.385 . S
C3010 H2991 0.951 . S
C3010 C3008 1.388 . S
C3010 C3011 1.366 . S
C3011 C3010 1.366 . S
C3011 C3012 1.414 . S
C3011 C3014 1.499 . S
C3012 H2992 0.950 . S
C3012 C3011 1.414 . S
C3012 C3013 1.374 . S
C3013 H2993 0.950 . S
C3013 C3009 1.385 . S
C3013 C3012 1.374 . S
C3014 C3011 1.499 . S
C3014 C3015 1.373 . S
C3014 C3016 1.389 . S
C3015 H2994 0.950 . S
C3015 C3014 1.373 . S
C3015 C3031 1.377 . S
C3016 C3014 1.389 . S
C3016 C3017 1.524 . S
C3016 C3030 1.377 . S
C3017 C3016 1.524 . S
C3017 C3018 1.397 . S
C3017 C3022 1.363 . S
C3018 H2995 0.950 . S
C3018 C3017 1.397 . S
C3018 C3019 1.334 . S
C3019 H2996 0.950 . S
C3019 C3018 1.334 . S
C3019 C3020 1.287 . S
C3020 C3019 1.287 . S
C3020 C3021 1.524 . S
C3020 H3039 0.913 . S
C3021 H2997 0.950 . S
C3021 C3020 1.524 . S
C3021 C3022 1.415 . S
C3022 H2998 0.950 . S
C3022 C3017 1.363 . S
C3022 C3021 1.415 . S
C3023 H2999 0.951 . S
C3023 C3024 1.366 . S
C3023 C3025 1.388 . S
C3024 C3023 1.366 . S
C3024 C3028 1.385 . S
C3025 H3000 0.951 . S
C3025 C3023 1.388 . S
C3025 C3026 1.366 . S
C3026 C3025 1.366 . S
C3026 C3027 1.414 . S
C3026 C3029 1.499 . S
C3027 H3001 0.950 . S
C3027 C3026 1.414 . S
C3027 C3028 1.374 . S
C3028 H3002 0.950 . S
C3028 C3024 1.385 . S
C3028 C3027 1.374 . S
C3029 C3026 1.499 . S
C3029 C3030 1.373 . S
C3029 C3031 1.389 . S
C3030 H3003 0.950 . S
C3030 C3016 1.377 . S
C3030 C3029 1.373 . S
C3031 C3015 1.377 . S
C3031 C3029 1.389 . S
C3031 C3032 1.524 . S
C3032 C3031 1.524 . S
C3032 C3033 1.397 . S
C3032 C3037 1.363 . S
C3033 H3004 0.950 . S
C3033 C3032 1.397 . S
C3033 C3034 1.334 . S
C3034 H3005 0.950 . S
C3034 C3033 1.334 . S
C3034 C3035 1.287 . S
C3035 C3034 1.287 . S
C3035 C3036 1.524 . S
C3035 H3038 0.999 . S
C3036 H3006 0.950 . S
C3036 C3035 1.524 . S
C3036 C3037 1.415 . S
C3037 H3007 0.950 . S
C3037 C3032 1.363 . S
C3037 C3036 1.415 . S
H3038 C3035 0.999 . S
H3039 C3020 0.913 . S
C659 C19 0.641 . S
C674 C286 0.571 . S
C709 C59 1.903 . S
C724 C166 1.933 . S
C759 C206 1.000 . S
C774 C86 0.950 . S
C809 C139 2.513 . S
C824 C259 2.487 . S
C859 C455 0.571 . S
C874 C170 0.641 . S
C909 C330 1.903 . S
C924 C15 1.933 . S
C959 C415 1.001 . S
C974 C255 0.950 . S
C1009 C90 2.487 . S
C1024 C370 2.513 . S
C1059 C366 0.569 . S
C1074 C499 0.641 . S
C1109 C419 1.903 . S
C1124 C566 1.933 . S
C1159 C526 0.950 . S
C1174 C326 1.000 . S
C1209 C459 2.514 . S
C1224 C619 2.488 . S
C1259 C570 0.640 . S
C1274 C135 0.569 . S
C1309 C495 1.933 . S
C1324 C210 1.903 . S
C1359 C55 1.001 . S
C1374 C615 0.950 . S
C1409 C290 2.513 . S
C1424 C530 2.487 . S
C1459 C529 0.901 . S
C1474 C18 0.913 . S
C1509 C458 0.615 . S
C1524 C58 0.847 . S
C1559 C498 0.914 . S
C1574 C89 0.901 . S
C1609 C418 0.845 . S
C1624 C138 0.612 . S
C1659 C169 0.916 . S
C1674 C618 0.899 . S
C1709 C369 0.612 . S
C1724 C209 0.846 . S
C1759 C258 0.900 . S
C1774 C569 0.914 . S
C1809 C289 0.614 . S
C1824 C329 0.846 . S
C1859 C9 1.409 . S
C1874 C178 1.409 . S
C1909 C49 1.879 . S
C1924 C218 1.879 . S
C1959 C249 1.248 . S
C1974 C98 1.248 . S
C2009 C129 1.109 . S
C2024 C298 1.109 . S
C2059 C409 1.880 . S
C2074 C338 1.880 . S
C2109 C449 1.109 . S
C2124 C378 1.109 . S
C2159 C489 1.409 . S
C2174 C578 1.409 . S
C2209 C609 1.249 . S
C2224 C538 1.249 . S
C2259 C6 2.809 . S
C2274 C299 2.859 . S
C2309 C46 1.047 . S
C2324 C179 1.080 . S
C2359 C219 3.668 1_556 S
C2374 C99 3.655 . S
C2409 C246 0.537 . S
C2424 C126 0.551 . S
C2459 C450 2.858 . S
C2474 C175 2.809 . S
C2509 C335 1.047 . S
C2524 C10 1.080 . S
C2559 C410 3.668 1_554 S
C2574 C250 3.655 . S
C2609 C95 0.540 . S
C2624 C375 0.552 . S
C2659 C486 2.809 . S
C2674 C379 2.858 . S
C2709 C579 1.080 . S
C2724 C406 1.047 . S
C2759 C539 3.655 . S
C2774 C339 3.668 . S
C2809 C606 0.538 . S
C2824 C446 0.553 . S
C2859 C575 2.809 . S
C2874 C130 2.859 . S
C2909 C215 1.048 . S
C2924 C490 1.079 . S
C2959 C50 3.668 . S
C2974 C610 3.655 . S
C3009 C535 0.538 . S
C3024 C295 0.553 . S
