# Generated by pormake.
# Topology uka, (4)-cn, num edge types: 1
# Building blocks:
#     Node 0, Type 0, BuildingBlock: CEKHIL_clean_sbu_0, # of connection points: 4
#     Node 1, Type 0, BuildingBlock: CEKHIL_clean_sbu_0, # of connection points: 4
#     Node 2, Type 0, BuildingBlock: CEKHIL_clean_sbu_0, # of connection points: 4
#     Node 3, Type 0, BuildingBlock: CEKHIL_clean_sbu_0, # of connection points: 4
#     Node 4, Type 0, BuildingBlock: CEKHIL_clean_sbu_0, # of connection points: 4
#     Node 5, Type 0, BuildingBlock: CEKHIL_clean_sbu_0, # of connection points: 4
#     Node 6, Type 0, BuildingBlock: CEKHIL_clean_sbu_0, # of connection points: 4
#     Node 7, Type 0, BuildingBlock: CEKHIL_clean_sbu_0, # of connection points: 4
#     Node 8, Type 0, BuildingBlock: CEKHIL_clean_sbu_0, # of connection points: 4
#     Node 9, Type 0, BuildingBlock: CEKHIL_clean_sbu_0, # of connection points: 4
#     Node 10, Type 0, BuildingBlock: CEKHIL_clean_sbu_0, # of connection points: 4
#     Node 11, Type 0, BuildingBlock: CEKHIL_clean_sbu_0, # of connection points: 4
#     Node 12, Type 0, BuildingBlock: CEKHIL_clean_sbu_0, # of connection points: 4
#     Node 13, Type 0, BuildingBlock: CEKHIL_clean_sbu_0, # of connection points: 4
#     Node 14, Type 0, BuildingBlock: CEKHIL_clean_sbu_0, # of connection points: 4
#     Node 15, Type 0, BuildingBlock: CEKHIL_clean_sbu_0, # of connection points: 4
#     Node 16, Type 0, BuildingBlock: CEKHIL_clean_sbu_0, # of connection points: 4
#     Node 17, Type 0, BuildingBlock: CEKHIL_clean_sbu_0, # of connection points: 4
#     Node 18, Type 0, BuildingBlock: CEKHIL_clean_sbu_0, # of connection points: 4
#     Node 19, Type 0, BuildingBlock: CEKHIL_clean_sbu_0, # of connection points: 4
#     Node 20, Type 0, BuildingBlock: CEKHIL_clean_sbu_0, # of connection points: 4
#     Node 21, Type 0, BuildingBlock: CEKHIL_clean_sbu_0, # of connection points: 4
#     Node 22, Type 0, BuildingBlock: CEKHIL_clean_sbu_0, # of connection points: 4
#     Node 23, Type 0, BuildingBlock: CEKHIL_clean_sbu_0, # of connection points: 4
#     Node 24, Type 0, BuildingBlock: CEKHIL_clean_sbu_0, # of connection points: 4
#     Node 25, Type 0, BuildingBlock: CEKHIL_clean_sbu_0, # of connection points: 4
#     Node 26, Type 0, BuildingBlock: CEKHIL_clean_sbu_0, # of connection points: 4
#     Node 27, Type 0, BuildingBlock: CEKHIL_clean_sbu_0, # of connection points: 4
#     Node 28, Type 0, BuildingBlock: CEKHIL_clean_sbu_0, # of connection points: 4
#     Node 29, Type 0, BuildingBlock: CEKHIL_clean_sbu_0, # of connection points: 4
#     Node 30, Type 0, BuildingBlock: CEKHIL_clean_sbu_0, # of connection points: 4
#     Node 31, Type 0, BuildingBlock: CEKHIL_clean_sbu_0, # of connection points: 4
#     Edge 32, Type (0, 0), BuildingBlock: EZIPEK_clean_linker_0, # of connection points: 2
#     Edge 33, Type (0, 0), BuildingBlock: EZIPEK_clean_linker_0, # of connection points: 2
#     Edge 34, Type (0, 0), BuildingBlock: EZIPEK_clean_linker_0, # of connection points: 2
#     Edge 35, Type (0, 0), BuildingBlock: EZIPEK_clean_linker_0, # of connection points: 2
#     Edge 36, Type (0, 0), BuildingBlock: EZIPEK_clean_linker_0, # of connection points: 2
#     Edge 37, Type (0, 0), BuildingBlock: EZIPEK_clean_linker_0, # of connection points: 2
#     Edge 38, Type (0, 0), BuildingBlock: EZIPEK_clean_linker_0, # of connection points: 2
#     Edge 39, Type (0, 0), BuildingBlock: EZIPEK_clean_linker_0, # of connection points: 2
#     Edge 40, Type (0, 0), BuildingBlock: EZIPEK_clean_linker_0, # of connection points: 2
#     Edge 41, Type (0, 0), BuildingBlock: EZIPEK_clean_linker_0, # of connection points: 2
#     Edge 42, Type (0, 0), BuildingBlock: EZIPEK_clean_linker_0, # of connection points: 2
#     Edge 43, Type (0, 0), BuildingBlock: EZIPEK_clean_linker_0, # of connection points: 2
#     Edge 44, Type (0, 0), BuildingBlock: EZIPEK_clean_linker_0, # of connection points: 2
#     Edge 45, Type (0, 0), BuildingBlock: EZIPEK_clean_linker_0, # of connection points: 2
#     Edge 46, Type (0, 0), BuildingBlock: EZIPEK_clean_linker_0, # of connection points: 2
#     Edge 47, Type (0, 0), BuildingBlock: EZIPEK_clean_linker_0, # of connection points: 2
#     Edge 48, Type (0, 0), BuildingBlock: EZIPEK_clean_linker_0, # of connection points: 2
#     Edge 49, Type (0, 0), BuildingBlock: EZIPEK_clean_linker_0, # of connection points: 2
#     Edge 50, Type (0, 0), BuildingBlock: EZIPEK_clean_linker_0, # of connection points: 2
#     Edge 51, Type (0, 0), BuildingBlock: EZIPEK_clean_linker_0, # of connection points: 2
#     Edge 52, Type (0, 0), BuildingBlock: EZIPEK_clean_linker_0, # of connection points: 2
#     Edge 53, Type (0, 0), BuildingBlock: EZIPEK_clean_linker_0, # of connection points: 2
#     Edge 54, Type (0, 0), BuildingBlock: EZIPEK_clean_linker_0, # of connection points: 2
#     Edge 55, Type (0, 0), BuildingBlock: EZIPEK_clean_linker_0, # of connection points: 2
#     Edge 56, Type (0, 0), BuildingBlock: EZIPEK_clean_linker_0, # of connection points: 2
#     Edge 57, Type (0, 0), BuildingBlock: EZIPEK_clean_linker_0, # of connection points: 2
#     Edge 58, Type (0, 0), BuildingBlock: EZIPEK_clean_linker_0, # of connection points: 2
#     Edge 59, Type (0, 0), BuildingBlock: EZIPEK_clean_linker_0, # of connection points: 2
#     Edge 60, Type (0, 0), BuildingBlock: EZIPEK_clean_linker_0, # of connection points: 2
#     Edge 61, Type (0, 0), BuildingBlock: EZIPEK_clean_linker_0, # of connection points: 2
#     Edge 62, Type (0, 0), BuildingBlock: EZIPEK_clean_linker_0, # of connection points: 2
#     Edge 63, Type (0, 0), BuildingBlock: EZIPEK_clean_linker_0, # of connection points: 2
#     Edge 64, Type (0, 0), BuildingBlock: EZIPEK_clean_linker_0, # of connection points: 2
#     Edge 65, Type (0, 0), BuildingBlock: EZIPEK_clean_linker_0, # of connection points: 2
#     Edge 66, Type (0, 0), BuildingBlock: EZIPEK_clean_linker_0, # of connection points: 2
#     Edge 67, Type (0, 0), BuildingBlock: EZIPEK_clean_linker_0, # of connection points: 2
#     Edge 68, Type (0, 0), BuildingBlock: EZIPEK_clean_linker_0, # of connection points: 2
#     Edge 69, Type (0, 0), BuildingBlock: EZIPEK_clean_linker_0, # of connection points: 2
#     Edge 70, Type (0, 0), BuildingBlock: EZIPEK_clean_linker_0, # of connection points: 2
#     Edge 71, Type (0, 0), BuildingBlock: EZIPEK_clean_linker_0, # of connection points: 2
#     Edge 72, Type (0, 0), BuildingBlock: EZIPEK_clean_linker_0, # of connection points: 2
#     Edge 73, Type (0, 0), BuildingBlock: EZIPEK_clean_linker_0, # of connection points: 2
#     Edge 74, Type (0, 0), BuildingBlock: EZIPEK_clean_linker_0, # of connection points: 2
#     Edge 75, Type (0, 0), BuildingBlock: EZIPEK_clean_linker_0, # of connection points: 2
#     Edge 76, Type (0, 0), BuildingBlock: EZIPEK_clean_linker_0, # of connection points: 2
#     Edge 77, Type (0, 0), BuildingBlock: EZIPEK_clean_linker_0, # of connection points: 2
#     Edge 78, Type (0, 0), BuildingBlock: EZIPEK_clean_linker_0, # of connection points: 2
#     Edge 79, Type (0, 0), BuildingBlock: EZIPEK_clean_linker_0, # of connection points: 2
#     Edge 80, Type (0, 0), BuildingBlock: EZIPEK_clean_linker_0, # of connection points: 2
#     Edge 81, Type (0, 0), BuildingBlock: EZIPEK_clean_linker_0, # of connection points: 2
#     Edge 82, Type (0, 0), BuildingBlock: EZIPEK_clean_linker_0, # of connection points: 2
#     Edge 83, Type (0, 0), BuildingBlock: EZIPEK_clean_linker_0, # of connection points: 2
#     Edge 84, Type (0, 0), BuildingBlock: EZIPEK_clean_linker_0, # of connection points: 2
#     Edge 85, Type (0, 0), BuildingBlock: EZIPEK_clean_linker_0, # of connection points: 2
#     Edge 86, Type (0, 0), BuildingBlock: EZIPEK_clean_linker_0, # of connection points: 2
#     Edge 87, Type (0, 0), BuildingBlock: EZIPEK_clean_linker_0, # of connection points: 2
#     Edge 88, Type (0, 0), BuildingBlock: EZIPEK_clean_linker_0, # of connection points: 2
#     Edge 89, Type (0, 0), BuildingBlock: EZIPEK_clean_linker_0, # of connection points: 2
#     Edge 90, Type (0, 0), BuildingBlock: EZIPEK_clean_linker_0, # of connection points: 2
#     Edge 91, Type (0, 0), BuildingBlock: EZIPEK_clean_linker_0, # of connection points: 2
#     Edge 92, Type (0, 0), BuildingBlock: EZIPEK_clean_linker_0, # of connection points: 2
#     Edge 93, Type (0, 0), BuildingBlock: EZIPEK_clean_linker_0, # of connection points: 2
#     Edge 94, Type (0, 0), BuildingBlock: EZIPEK_clean_linker_0, # of connection points: 2
#     Edge 95, Type (0, 0), BuildingBlock: EZIPEK_clean_linker_0, # of connection points: 2
# Relax obj value: 0.117
# Max RMSD: 0.170
# Mean RMSD: 0.170
data_MOF--net-uka--node1-CEKHIL_clean_sbu_0--edge1-EZIPEK_clean_linker_0
_symmetry_space_group_name_H-M    P1
_symmetry_Int_Tables_number       1
_symmetry_cell_setting            triclinic
loop_
_symmetry_equiv_pos_as_xyz
'x, y, z'
_cell_length_a     43.327486
_cell_length_b     43.279863
_cell_length_c     30.207637
_cell_angle_alpha  89.986089
_cell_angle_beta   90.061028
_cell_angle_gamma 90.009927
loop_
_atom_site_label
_atom_site_type_symbol
_atom_site_fract_x
_atom_site_fract_y
_atom_site_fract_z
_atom_type_partial_charge
Co0 Co 0.15181 0.26939 0.29847 0.0
O1 O 0.1914 0.25127 0.28653 0.0
O2 O 0.18426 0.29939 0.30939 0.0
C3 C 0.1342 0.22942 0.3405 0.0
O4 O 0.11407 0.29527 0.31527 0.0
Co5 Co 0.09293 0.23569 0.264 0.0
O6 O 0.07142 0.27095 0.2919 0.0
C7 C 0.12537 0.27999 0.20584 0.0
C8 C 0.20332 0.27718 0.29947 0.0
C9 C 0.08451 0.29413 0.30982 0.0
O10 O 0.14663 0.28436 0.2351 0.0
O11 O 0.10358 0.2603 0.21028 0.0
O12 O 0.152 0.25036 0.3573 0.0
O13 O 0.13025 0.23143 0.29817 0.0
Co14 Co 0.97871 0.87577 0.49132 0.0
O15 O 0.99675 0.91003 0.45987 0.0
O16 O 0.95857 0.91357 0.50854 0.0
C17 C 0.0241 0.85425 0.5126 0.0
O18 O 0.95579 0.8469 0.53282 0.0
Co19 Co 0.98863 0.80741 0.46461 0.0
O20 O 0.97418 0.79855 0.52542 0.0
C21 C 0.94188 0.84503 0.41742 0.0
C22 C 0.97845 0.92737 0.48316 0.0
C23 C 0.95863 0.81883 0.54606 0.0
O24 O 0.94731 0.8684 0.44262 0.0
O25 O 0.95679 0.81955 0.41957 0.0
O26 O 0.01223 0.87756 0.53347 0.0
O27 O 0.00941 0.84619 0.47702 0.0
Co28 Co 0.36008 0.74444 0.75446 0.0
O29 O 0.32637 0.76436 0.72475 0.0
O30 O 0.32303 0.72053 0.76288 0.0
C31 C 0.37734 0.78843 0.78707 0.0
O32 O 0.38915 0.71779 0.79077 0.0
Co33 Co 0.42859 0.76325 0.73813 0.0
O34 O 0.4376 0.73661 0.78974 0.0
C35 C 0.3969 0.7193 0.67744 0.0
C36 C 0.30932 0.74254 0.74114 0.0
C37 C 0.41746 0.71748 0.80347 0.0
O38 O 0.37165 0.72007 0.6999 0.0
O39 O 0.42055 0.73604 0.68582 0.0
O40 O 0.35494 0.77255 0.80421 0.0
O41 O 0.38737 0.7779 0.74982 0.0
Co42 Co 0.49157 0.12382 0.02 0.0
O43 O 0.47568 0.09658 0.97492 0.0
O44 O 0.5113 0.08463 0.02524 0.0
C45 C 0.44675 0.14217 0.04659 0.0
O46 O 0.51231 0.14385 0.07269 0.0
Co47 Co 0.48194 0.19539 0.01627 0.0
O48 O 0.50284 0.195 0.07462 0.0
C49 C 0.53124 0.16656 0.96289 0.0
C50 C 0.49286 0.07575 0.99389 0.0
C51 C 0.51504 0.17062 0.09052 0.0
O52 O 0.52549 0.13982 0.97981 0.0
O53 O 0.51515 0.19073 0.97076 0.0
O54 O 0.45572 0.11447 0.0561 0.0
O55 O 0.46208 0.15539 0.01505 0.0
Co56 Co 0.14564 0.7475 0.23724 0.0
O57 O 0.17933 0.76991 0.2631 0.0
O58 O 0.18337 0.72444 0.22954 0.0
C59 C 0.12584 0.78863 0.20036 0.0
O60 O 0.11671 0.71856 0.20453 0.0
Co61 Co 0.07711 0.76504 0.25706 0.0
O62 O 0.06775 0.73606 0.2082 0.0
C63 C 0.11177 0.72457 0.31896 0.0
C64 C 0.19684 0.74802 0.24796 0.0
C65 C 0.08804 0.71735 0.19375 0.0
O66 O 0.13615 0.72529 0.29459 0.0
O67 O 0.08732 0.74021 0.31103 0.0
O68 O 0.14889 0.77298 0.18464 0.0
O69 O 0.11713 0.78024 0.23944 0.0
Co70 Co 0.52993 0.89339 0.48317 0.0
O71 O 0.5206 0.92723 0.52262 0.0
O72 O 0.55594 0.92844 0.47045 0.0
C73 C 0.48014 0.88235 0.46492 0.0
O74 O 0.5451 0.86538 0.43378 0.0
Co75 Co 0.50714 0.82588 0.49771 0.0
O76 O 0.52093 0.81938 0.43587 0.0
C77 C 0.56123 0.84917 0.54793 0.0
C78 C 0.54094 0.9433 0.50087 0.0
C79 C 0.53897 0.83867 0.41735 0.0
O80 O 0.56117 0.87497 0.52625 0.0
O81 O 0.54064 0.82822 0.5432 0.0
O82 O 0.49484 0.90503 0.44625 0.0
O83 O 0.4953 0.86892 0.49629 0.0
Co84 Co 0.34327 0.2517 0.71188 0.0
O85 O 0.30639 0.23595 0.73801 0.0
O86 O 0.31046 0.2817 0.70505 0.0
C87 C 0.35335 0.2076 0.67382 0.0
O88 O 0.3776 0.27472 0.68025 0.0
Co89 Co 0.40631 0.21927 0.7305 0.0
O90 O 0.4216 0.24693 0.68317 0.0
C91 C 0.38215 0.26666 0.79298 0.0
C92 C 0.29313 0.26075 0.72345 0.0
C93 C 0.40608 0.27024 0.67018 0.0
O94 O 0.35751 0.27076 0.76968 0.0
O95 O 0.40273 0.24633 0.78423 0.0
O96 O 0.33454 0.22822 0.6584 0.0
O97 O 0.36394 0.21359 0.71292 0.0
Co98 Co 0.98698 0.10648 0.98803 0.0
O99 O 0.99911 0.07146 0.0231 0.0
O100 O 0.96065 0.07198 0.97452 0.0
C101 C 0.03564 0.11898 0.96619 0.0
O102 O 0.96912 0.13593 0.94286 0.0
Co103 Co 0.00947 0.17359 0.00655 0.0
O104 O 0.99096 0.1829 0.94792 0.0
C105 C 0.95671 0.14784 0.05707 0.0
C106 C 0.97869 0.05619 0.00035 0.0
C107 C 0.97282 0.16374 0.92924 0.0
O108 O 0.95718 0.1225 0.03452 0.0
O109 O 0.97673 0.1694 0.0529 0.0
O110 O 0.02028 0.09697 0.94706 0.0
O111 O 0.02191 0.13096 3e-05 0.0
Co112 Co 0.87923 0.72431 0.73159 0.0
O113 O 0.85068 0.74787 0.7667 0.0
O114 O 0.84037 0.70293 0.73453 0.0
C115 C 0.89452 0.76588 0.69144 0.0
O116 O 0.90032 0.69473 0.68936 0.0
Co117 Co 0.94958 0.737 0.72741 0.0
O118 O 0.94655 0.7142 0.67069 0.0
C119 C 0.9235 0.70068 0.80195 0.0
C120 C 0.83037 0.72731 0.75509 0.0
C121 C 0.9243 0.69549 0.66451 0.0
O122 O 0.89616 0.70163 0.78499 0.0
O123 O 0.947 0.71426 0.78516 0.0
O124 O 0.86956 0.75079 0.6818 0.0
O125 O 0.90899 0.75576 0.72598 0.0
Co126 Co 0.00339 0.11029 0.4759 0.0
O127 O 0.9776 0.07762 0.49825 0.0
O128 O 0.02548 0.07165 0.4735 0.0
C129 C 0.96824 0.13216 0.4302 0.0
O130 O 0.03589 0.1377 0.44702 0.0
Co131 Co 0.98512 0.17935 0.49374 0.0
O132 O 0.02337 0.18716 0.46044 0.0
C133 C 0.01654 0.14349 0.56357 0.0
C134 C 0.0001 0.0592 0.48793 0.0
C135 C 0.04076 0.16685 0.4428 0.0
O136 O 0.02004 0.11985 0.53787 0.0
O137 O 0.00136 0.16761 0.55255 0.0
O138 O 0.98267 0.10727 0.41835 0.0
O139 O 0.97211 0.14006 0.47095 0.0
Co140 Co 0.61917 0.26015 0.23915 0.0
O141 O 0.64905 0.23903 0.27572 0.0
O142 O 0.65991 0.27558 0.22667 0.0
C143 C 0.59457 0.21632 0.21891 0.0
O144 O 0.59653 0.28522 0.19225 0.0
Co145 Co 0.5481 0.25797 0.25232 0.0
O146 O 0.54628 0.27234 0.19023 0.0
C147 C 0.58695 0.29865 0.30872 0.0
C148 C 0.66975 0.25461 0.25401 0.0
C149 C 0.56985 0.28545 0.17362 0.0
O150 O 0.61145 0.29264 0.28603 0.0
O151 O 0.56069 0.28597 0.30185 0.0
O152 O 0.61973 0.22509 0.19927 0.0
O153 O 0.58575 0.23381 0.25109 0.0
Co154 Co 0.48717 0.89331 0.96763 0.0
O155 O 0.50759 0.92574 -8e-05 0.0
O156 O 0.46229 0.92995 0.96582 0.0
C157 C 0.52779 0.87874 0.92669 0.0
O158 O 0.46024 0.86622 0.92859 0.0
Co159 Co 0.50732 0.82462 0.97734 0.0
O160 O 0.47681 0.81689 0.92986 0.0
C161 C 0.46763 0.85261 0.04554 0.0
C162 C 0.48511 0.94322 0.98632 0.0
C163 C 0.45891 0.83797 0.91552 0.0
O164 O 0.46559 0.87781 0.02296 0.0
O165 O 0.4846 0.82973 0.03447 0.0
O166 O 0.51215 0.90315 0.91647 0.0
O167 O 0.52115 0.86631 0.96458 0.0
Co168 Co 0.87917 0.27509 0.78188 0.0
O169 O 0.84916 0.25121 0.7495 0.0
O170 O 0.83825 0.28972 0.79542 0.0
C171 C 0.90498 0.23283 0.80572 0.0
O172 O 0.90234 0.30328 0.82435 0.0
Co173 Co 0.94897 0.27433 0.76417 0.0
O174 O 0.95228 0.28967 0.82565 0.0
C175 C 0.90782 0.31131 0.7063 0.0
C176 C 0.82855 0.26702 0.77094 0.0
C177 C 0.92926 0.30368 0.84218 0.0
O178 O 0.88428 0.3052 0.73094 0.0
O179 O 0.93478 0.30016 0.71301 0.0
O180 O 0.88059 0.24286 0.82592 0.0
O181 O 0.91282 0.24825 0.7708 0.0
Co182 Co 0.49612 0.1208 0.52718 0.0
O183 O 0.52933 0.09572 0.5038 0.0
O184 O 0.48248 0.07861 0.51968 0.0
C185 C 0.52577 0.14355 0.58041 0.0
O186 O 0.45669 0.13733 0.55469 0.0
Co187 Co 0.49691 0.19255 0.52947 0.0
O188 O 0.45441 0.18921 0.55269 0.0
C189 C 0.47936 0.16028 0.447 0.0
C190 C 0.51068 0.0724 0.50817 0.0
C191 C 0.44296 0.16305 0.56241 0.0
O192 O 0.48124 0.13334 0.46543 0.0
O193 O 0.48689 0.1854 0.46637 0.0
O194 O 0.51414 0.1163 0.58653 0.0
O195 O 0.52058 0.15563 0.54203 0.0
Co196 Co 0.61426 0.73129 0.24357 0.0
O197 O 0.64193 0.75322 0.20444 0.0
O198 O 0.65459 0.71286 0.24585 0.0
C199 C 0.59512 0.77516 0.27501 0.0
O200 O 0.5955 0.7044 0.29094 0.0
Co201 Co 0.54333 0.7381 0.24592 0.0
O202 O 0.5466 0.71819 0.30492 0.0
C203 C 0.57244 0.69695 0.17907 0.0
C204 C 0.66339 0.73548 0.22067 0.0
C205 C 0.57089 0.70302 0.31422 0.0
O206 O 0.59958 0.70169 0.19564 0.0
O207 O 0.54812 0.71087 0.19262 0.0
O208 O 0.62109 0.76319 0.28751 0.0
O209 O 0.58185 0.76074 0.24273 0.0
Co210 Co 0.01089 0.87448 0.00715 0.0
O211 O 0.98601 0.90442 0.97601 0.0
O212 O 0.02458 0.91545 0.02186 0.0
C213 C 0.97011 0.84634 0.0306 0.0
O214 O 0.04036 0.85173 0.048 0.0
Co215 Co 0.01297 0.80479 0.98749 0.0
O216 O 0.03163 0.80062 0.04687 0.0
C217 C 0.04761 0.84857 0.93065 0.0
C218 C 0.00201 0.92509 0.99719 0.0
C219 C 0.04395 0.82446 0.06386 0.0
O220 O 0.04076 0.87154 0.95587 0.0
O221 O 0.03749 0.8211 0.9365 0.0
O222 O 0.979 0.871 0.05147 0.0
O223 O 0.98549 0.8398 0.99517 0.0
Co224 Co 0.6505 0.76569 0.76995 0.0
O225 O 0.68191 0.74022 0.74398 0.0
O226 O 0.6901 0.7854 0.777 0.0
C227 C 0.62723 0.72721 0.80815 0.0
O228 O 0.62461 0.79775 0.8021 0.0
Co229 Co 0.58059 0.75367 0.75105 0.0
O230 O 0.57499 0.78247 0.8013 0.0
C231 C 0.618 0.79022 0.68745 0.0
C232 C 0.7013 0.76066 0.75867 0.0
C233 C 0.59638 0.80052 0.81438 0.0
O234 O 0.64238 0.78803 0.71187 0.0
O235 O 0.59239 0.77678 0.69616 0.0
O236 O 0.65206 0.74015 0.82329 0.0
O237 O 0.61922 0.73551 0.76872 0.0
Co238 Co 0.48636 0.36794 0.98745 0.0
O239 O 0.50756 0.39327 0.94428 0.0
O240 O 0.46818 0.40839 0.98576 0.0
C241 C 0.5299 0.35021 0.0214 0.0
O242 O 0.46013 0.3511 0.03711 0.0
Co243 Co 0.49458 0.29661 0.99518 0.0
O244 O 0.47297 0.3019 0.05259 0.0
C245 C 0.45222 0.32259 0.92748 0.0
C246 C 0.4902 0.41566 0.95859 0.0
C247 C 0.4582 0.32666 0.06088 0.0
O248 O 0.45625 0.35045 0.94201 0.0
O249 O 0.46744 0.29923 0.94168 0.0
O250 O 0.51863 0.37726 0.0303 0.0
O251 O 0.51563 0.3358 0.99002 0.0
Co252 Co 0.85118 0.23607 0.2589 0.0
O253 O 0.81474 0.2504 0.22902 0.0
O254 O 0.81669 0.20976 0.27382 0.0
C255 C 0.86441 0.28383 0.28367 0.0
O256 O 0.88359 0.2152 0.29729 0.0
Co257 Co 0.91702 0.26003 0.23569 0.0
O258 O 0.9295 0.23916 0.29118 0.0
C259 C 0.88828 0.2093 0.18312 0.0
C260 C 0.80021 0.229 0.25067 0.0
C261 C 0.91191 0.21902 0.30874 0.0
O262 O 0.86377 0.20903 0.20731 0.0
O263 O 0.91039 0.22867 0.18773 0.0
O264 O 0.84438 0.26697 0.3044 0.0
O265 O 0.87489 0.27174 0.24761 0.0
Co266 Co 0.01571 0.6112 0.5023 0.0
O267 O 0.00313 0.58253 0.45744 0.0
O268 O 0.04025 0.57433 0.50596 0.0
C269 C 0.96752 0.62216 0.52712 0.0
O270 O 0.0341 0.6334 0.55472 0.0
Co271 Co 0.99516 0.68029 0.50209 0.0
O272 O 0.01502 0.68153 0.56121 0.0
C273 C 0.04743 0.65992 0.44581 0.0
C274 C 0.02288 0.56332 0.47461 0.0
C275 C 0.03204 0.65944 0.57467 0.0
O276 O 0.04638 0.63224 0.46165 0.0
O277 O 0.02776 0.681 0.45524 0.0
O278 O 0.98182 0.59729 0.53954 0.0
O279 O 0.98178 0.6379 0.49712 0.0
Co280 Co 0.65049 0.23707 0.76166 0.0
O281 O 0.68423 0.25435 0.79433 0.0
O282 O 0.68572 0.21007 0.75725 0.0
C283 C 0.63769 0.28015 0.72409 0.0
O284 O 0.62105 0.21372 0.72101 0.0
Co285 Co 0.58382 0.26327 0.77721 0.0
O286 O 0.57357 0.23426 0.7289 0.0
C287 C 0.60946 0.21763 0.83929 0.0
C288 C 0.70046 0.23184 0.77812 0.0
C289 C 0.59225 0.21536 0.7107 0.0
O290 O 0.63388 0.21409 0.81537 0.0
O291 O 0.5887 0.23793 0.83176 0.0
O292 O 0.66142 0.26396 0.71251 0.0
O293 O 0.62589 0.2727 0.76188 0.0
Co294 Co 0.02497 0.38397 0.01355 0.0
O295 O 0.0099 0.41436 0.05466 0.0
O296 O 0.04857 0.42154 0.0088 0.0
C297 C 0.97787 0.3709 0.98556 0.0
O298 O 0.04576 0.36019 0.96442 0.0
Co299 Co 0.00594 0.31453 0.01871 0.0
O300 O 0.0257 0.31229 0.95963 0.0
C301 C 0.05637 0.33799 0.07593 0.0
C302 C 0.02965 0.43349 0.03743 0.0
C303 C 0.04324 0.33377 0.94559 0.0
O304 O 0.05479 0.36517 0.05822 0.0
O305 O 0.03739 0.31613 0.06721 0.0
O306 O 0.99228 0.39553 0.97254 0.0
O307 O 0.99125 0.35663 0.0179 0.0
Co308 Co 0.84496 0.76017 0.21067 0.0
O309 O 0.81003 0.74611 0.24432 0.0
O310 O 0.80845 0.7818 0.19151 0.0
C311 C 0.86326 0.71218 0.19525 0.0
O312 O 0.87433 0.77897 0.16609 0.0
Co313 Co 0.91332 0.74548 0.23541 0.0
O314 O 0.92296 0.76229 0.17605 0.0
C315 C 0.87982 0.7958 0.28175 0.0
C316 C 0.79369 0.76388 0.2187 0.0
C317 C 0.90278 0.7775 0.15449 0.0
O318 O 0.85585 0.79305 0.25647 0.0
O319 O 0.90326 0.77788 0.28012 0.0
O320 O 0.84086 0.72413 0.17238 0.0
O321 O 0.87224 0.72887 0.22819 0.0
Co322 Co 0.49432 0.61289 0.48585 0.0
O323 O 0.50988 0.5812 0.52461 0.0
O324 O 0.46946 0.57633 0.47981 0.0
C325 C 0.54064 0.62659 0.45651 0.0
O326 O 0.47251 0.63832 0.43938 0.0
Co327 Co 0.5146 0.68199 0.49339 0.0
O328 O 0.49164 0.68661 0.43687 0.0
C329 C 0.46573 0.65754 0.55207 0.0
C330 C 0.48913 0.5635 0.50656 0.0
C331 C 0.47382 0.66544 0.42254 0.0
O332 O 0.4659 0.63096 0.53258 0.0
O333 O 0.48539 0.67894 0.54432 0.0
O334 O 0.52598 0.60227 0.44279 0.0
O335 O 0.52829 0.63973 0.49047 0.0
Co336 Co 0.37685 0.25832 0.25392 0.0
O337 O 0.35769 0.28238 0.30032 0.0
O338 O 0.33727 0.24114 0.26803 0.0
C339 C 0.39036 0.30005 0.21307 0.0
O340 O 0.3866 0.22888 0.20352 0.0
Co341 Co 0.44424 0.26351 0.22166 0.0
O342 O 0.42824 0.24504 0.16654 0.0
C343 C 0.42864 0.22239 0.29801 0.0
C344 C 0.33373 0.26485 0.29383 0.0
C345 C 0.40437 0.22813 0.16962 0.0
O346 O 0.4 0.23105 0.29784 0.0
O347 O 0.44829 0.23173 0.26936 0.0
O348 O 0.36266 0.28874 0.21094 0.0
O349 O 0.40843 0.28636 0.24078 0.0
Co350 Co 0.50819 0.59986 0.94794 0.0
O351 O 0.48539 0.56488 0.97032 0.0
O352 O 0.53258 0.56254 0.94245 0.0
C353 C 0.46926 0.6187 0.90537 0.0
O354 O 0.53788 0.63038 0.91946 0.0
Co355 Co 0.4858 0.66755 0.96575 0.0
O356 O 0.51472 0.677 0.91685 0.0
C357 C 0.52464 0.63495 0.03226 0.0
C358 C 0.50841 0.54802 0.95731 0.0
C359 C 0.53646 0.65862 0.90624 0.0
O360 O 0.52625 0.61021 0.00837 0.0
O361 O 0.50866 0.65876 0.02195 0.0
O362 O 0.48645 0.5962 0.89189 0.0
O363 O 0.47431 0.62697 0.94582 0.0
Co364 Co 0.12748 0.76278 0.7145 0.0
O365 O 0.1587 0.7469 0.75397 0.0
O366 O 0.16667 0.78112 0.70037 0.0
C367 C 0.10703 0.71589 0.69892 0.0
O368 O 0.10308 0.78296 0.6648 0.0
Co369 Co 0.05688 0.75487 0.72806 0.0
O370 O 0.05301 0.76948 0.66621 0.0
C371 C 0.09181 0.80162 0.77998 0.0
C372 C 0.17802 0.76307 0.73061 0.0
C373 C 0.07588 0.78268 0.6478 0.0
O374 O 0.11653 0.79709 0.75716 0.0
O375 O 0.06698 0.78593 0.77508 0.0
O376 O 0.13158 0.72586 0.67887 0.0
O377 O 0.09647 0.73412 0.72913 0.0
Co378 Co 0.97242 0.38884 0.4664 0.0
O379 O 0.99742 0.41754 0.4996 0.0
O380 O 0.95608 0.42972 0.46116 0.0
C381 C 0.01263 0.3651 0.4323 0.0
O382 O 0.94191 0.36831 0.42453 0.0
Co383 Co 0.97419 0.31886 0.4775 0.0
O384 O 0.94968 0.31709 0.42259 0.0
C385 C 0.94185 0.35539 0.54408 0.0
C386 C 0.97923 0.43912 0.48478 0.0
C387 C 0.93699 0.34145 0.40804 0.0
O388 O 0.94544 0.37989 0.52024 0.0
O389 O 0.95353 0.32924 0.53414 0.0
O390 O 0.00183 0.3912 0.41797 0.0
O391 O 0.00021 0.35497 0.46856 0.0
Co392 Co 0.37707 0.77771 0.27469 0.0
O393 O 0.34807 0.75578 0.23764 0.0
O394 O 0.33743 0.79758 0.27731 0.0
C395 C 0.39603 0.73502 0.30872 0.0
O396 O 0.3986 0.8052 0.31981 0.0
Co397 Co 0.44853 0.7675 0.27249 0.0
O398 O 0.44758 0.78949 0.32992 0.0
C399 C 0.41795 0.80618 0.204 0.0
C400 C 0.32753 0.77479 0.25326 0.0
C401 C 0.42452 0.80613 0.34049 0.0
O402 O 0.39159 0.80459 0.22381 0.0
O403 O 0.44219 0.79179 0.21677 0.0
O404 O 0.36984 0.74681 0.32008 0.0
O405 O 0.40852 0.74787 0.27459 0.0
Co406 Co 0.99273 0.61093 0.03797 0.0
O407 O 0.01691 0.58101 0.00575 0.0
O408 O 0.97141 0.57207 0.03507 0.0
C409 C 0.03157 0.6277 0.08194 0.0
O410 O 0.96166 0.63372 0.07608 0.0
Co411 Co 0.0069 0.68166 0.03778 0.0
O412 O 0.975 0.68363 0.08467 0.0
C413 C 0.97277 0.65359 0.96288 0.0
C414 C 0.99549 0.56098 0.01507 0.0
C415 C 0.95753 0.66066 0.09286 0.0
O416 O 0.97202 0.62693 0.98213 0.0
O417 O 0.98719 0.67707 0.97825 0.0
O418 O 0.01729 0.60211 0.09047 0.0
O419 O 0.02386 0.64066 0.04501 0.0
Co420 Co 0.11701 0.23267 0.768 0.0
O421 O 0.14183 0.25557 0.7264 0.0
O422 O 0.15603 0.2123 0.75998 0.0
C423 C 0.10417 0.27637 0.80514 0.0
O424 O 0.10124 0.20363 0.81594 0.0
Co425 Co 0.04883 0.24262 0.79048 0.0
O426 O 0.05851 0.2226 0.84722 0.0
C427 C 0.06704 0.19952 0.71729 0.0
C428 C 0.16369 0.23625 0.73657 0.0
C429 C 0.08084 0.20365 0.84672 0.0
O430 O 0.09573 0.20759 0.71994 0.0
O431 O 0.04677 0.20907 0.74482 0.0
O432 O 0.12979 0.26198 0.81317 0.0
O433 O 0.08679 0.26346 0.7758 0.0
Co434 Co 0.5203 0.38355 0.54482 0.0
O435 O 0.49368 0.41068 0.51136 0.0
O436 O 0.53681 0.42476 0.54559 0.0
C437 C 0.48147 0.36056 0.58233 0.0
O438 O 0.55296 0.36465 0.58505 0.0
Co439 Co 0.51579 0.31168 0.5421 0.0
O440 O 0.54434 0.31383 0.59343 0.0
C441 C 0.54572 0.34563 0.46852 0.0
C442 C 0.51222 0.43267 0.52378 0.0
C443 C 0.55872 0.33856 0.6034 0.0
O444 O 0.54495 0.37147 0.4901 0.0
O445 O 0.53261 0.32081 0.48188 0.0
O446 O 0.49192 0.38722 0.59517 0.0
O447 O 0.49323 0.34983 0.54645 0.0
C448 C 0.09483 0.16437 0.40589 0.0
C449 C 0.06557 0.17884 0.41308 0.0
C450 C 0.08628 0.22646 0.3843 0.0
C451 C 0.11291 0.21162 0.36894 0.0
N452 N 0.14164 0.16428 0.36102 0.0
N453 N 0.03193 0.21924 0.38528 0.0
C454 C 0.11687 0.17966 0.37796 0.0
C455 C 0.06071 0.20843 0.39466 0.0
N456 N 0.10248 0.13754 0.42691 0.0
N457 N 0.08562 0.25731 0.3925 0.0
H458 H 0.0121 0.20572 0.38815 0.0
H459 H 0.029 0.24004 0.36856 0.0
H460 H 0.10525 0.27113 0.39067 0.0
H461 H 0.06652 0.26755 0.40746 0.0
H462 H 0.12448 0.12791 0.42516 0.0
H463 H 0.08809 0.12648 0.44941 0.0
H464 H 0.14415 0.14039 0.36341 0.0
H465 H 0.15851 0.17539 0.34218 0.0
C466 C 0.04965 0.80293 0.53089 0.0
C467 C 0.04843 0.83546 0.535 0.0
C468 C 0.07469 0.83294 0.60647 0.0
C469 C 0.07036 0.80036 0.60658 0.0
N470 N 0.05692 0.7535 0.56773 0.0
N471 N 0.07416 0.88027 0.56343 0.0
C472 C 0.05914 0.78501 0.56812 0.0
C473 C 0.06581 0.85005 0.56859 0.0
N474 N 0.04394 0.78958 0.49082 0.0
N475 N 0.08476 0.8479 0.64365 0.0
H476 H 0.06883 0.89258 0.53465 0.0
H477 H 0.08913 0.89182 0.58475 0.0
H478 H 0.09137 0.83658 0.67255 0.0
H479 H 0.08448 0.87183 0.64711 0.0
H480 H 0.04605 0.76603 0.48461 0.0
H481 H 0.04117 0.80278 0.46222 0.0
H482 H 0.04559 0.74109 0.54309 0.0
H483 H 0.0656 0.73968 0.59318 0.0
C484 C 0.40424 0.83342 0.88751 0.0
C485 C 0.43656 0.82986 0.88042 0.0
C486 C 0.42644 0.8163 0.80357 0.0
C487 C 0.39516 0.81117 0.81394 0.0
N488 N 0.35213 0.823 0.86121 0.0
N489 N 0.47817 0.814 0.83151 0.0
C490 C 0.3833 0.82247 0.85459 0.0
C491 C 0.44765 0.82018 0.83843 0.0
N492 N 0.39366 0.84692 0.9255 0.0
N493 N 0.43566 0.81927 0.76063 0.0
H494 H 0.49506 0.8163 0.85578 0.0
H495 H 0.48623 0.80417 0.80219 0.0
H496 H 0.41984 0.82043 0.73462 0.0
H497 H 0.4582 0.82511 0.75186 0.0
H498 H 0.37067 0.85256 0.93111 0.0
H499 H 0.40813 0.85419 0.95096 0.0
H500 H 0.34172 0.8268 0.89174 0.0
H501 H 0.33651 0.81989 0.83526 0.0
C502 C 0.40221 0.21027 0.09114 0.0
C503 C 0.40105 0.2031 0.13675 0.0
C504 C 0.42485 0.15334 0.12354 0.0
C505 C 0.4268 0.16029 0.07723 0.0
N506 N 0.40557 0.19008 0.01659 0.0
N507 N 0.39647 0.16241 0.19102 0.0
C508 C 0.41151 0.18705 0.06078 0.0
C509 C 0.40666 0.17256 0.15082 0.0
N510 N 0.39522 0.23943 0.07717 0.0
N511 N 0.4429 0.13137 0.14341 0.0
H512 H 0.3823 0.17559 0.21143 0.0
H513 H 0.3986 0.13945 0.20104 0.0
H514 H 0.4609 0.11963 0.12839 0.0
H515 H 0.44338 0.12823 0.17763 0.0
H516 H 0.39922 0.24712 0.04497 0.0
H517 H 0.38652 0.25617 0.0987 0.0
H518 H 0.3928 0.20832 0.00344 0.0
H519 H 0.41025 0.17252 0.99392 0.0
C520 C 0.11848 0.81579 0.12814 0.0
C521 C 0.10673 0.80831 0.17047 0.0
C522 C 0.05418 0.81864 0.14489 0.0
C523 C 0.06557 0.82046 0.10097 0.0
N524 N 0.10823 0.82036 0.04968 0.0
N525 N 0.0667 0.81981 0.22313 0.0
C526 C 0.09771 0.8195 0.09231 0.0
C527 C 0.07544 0.8148 0.18034 0.0
N528 N 0.14938 0.82098 0.12307 0.0
N529 N 0.0231 0.8196 0.15249 0.0
H530 H 0.08274 0.8215 0.24876 0.0
H531 H 0.04458 0.82662 0.23235 0.0
H532 H 0.00695 0.82337 0.12739 0.0
H533 H 0.01318 0.81473 0.18309 0.0
H534 H 0.15929 0.82892 0.09382 0.0
H535 H 0.16449 0.82112 0.15002 0.0
H536 H 0.13112 0.81631 0.04096 0.0
H537 H 0.09355 0.82272 0.02253 0.0
C538 C 0.43469 0.81608 0.42075 0.0
C539 C 0.42841 0.82791 0.37782 0.0
C540 C 0.44088 0.88015 0.40355 0.0
C541 C 0.45355 0.86699 0.44235 0.0
N542 N 0.44528 0.82804 0.49776 0.0
N543 N 0.42195 0.87171 0.32902 0.0
C544 C 0.44501 0.83658 0.45427 0.0
C545 C 0.42952 0.86028 0.36976 0.0
N546 N 0.43198 0.78514 0.42885 0.0
N547 N 0.43864 0.91152 0.40023 0.0
H548 H 0.41238 0.85817 0.30408 0.0
H549 H 0.42626 0.89436 0.3192 0.0
H550 H 0.44458 0.926 0.42653 0.0
H551 H 0.42769 0.9229 0.37423 0.0
H552 H 0.43979 0.77459 0.45776 0.0
H553 H 0.42312 0.76976 0.40554 0.0
H554 H 0.43731 0.80676 0.50909 0.0
H555 H 0.44974 0.84392 0.52295 0.0
C556 C 0.36264 0.18437 0.59848 0.0
C557 C 0.36767 0.18381 0.64478 0.0
C558 C 0.41589 0.15586 0.63466 0.0
C559 C 0.41442 0.16306 0.58875 0.0
N560 N 0.38537 0.1801 0.52528 0.0
N561 N 0.38834 0.15369 0.70451 0.0
C562 C 0.38713 0.17552 0.56997 0.0
C563 C 0.3909 0.16446 0.6622 0.0
N564 N 0.33416 0.19178 0.5823 0.0
N565 N 0.44202 0.14332 0.65259 0.0
H566 H 0.36878 0.15806 0.72368 0.0
H567 H 0.40333 0.13753 0.71833 0.0
H568 H 0.46078 0.13606 0.63378 0.0
H569 H 0.44584 0.14161 0.68654 0.0
H570 H 0.32839 0.19109 0.54887 0.0
H571 H 0.31517 0.1947 0.6031 0.0
H572 H 0.36778 0.19249 0.5099 0.0
H573 H 0.40238 0.1722 0.50359 0.0
C574 C 0.0806 0.18697 0.92587 0.0
C575 C 0.08093 0.17882 0.88029 0.0
C576 C 0.06969 0.12518 0.89989 0.0
C577 C 0.06101 0.13535 0.94246 0.0
N578 N 0.07409 0.1696 0.002 0.0
N579 N 0.0767 0.1394 0.82339 0.0
C580 C 0.07155 0.16441 0.95758 0.0
C581 C 0.07686 0.14748 0.86715 0.0
N582 N 0.08775 0.2165 0.93823 0.0
N583 N 0.07156 0.09428 0.89134 0.0
H584 H 0.08117 0.15477 0.79772 0.0
H585 H 0.06984 0.11768 0.81223 0.0
H586 H 0.06843 0.07785 0.91625 0.0
H587 H 0.08004 0.0853 0.86176 0.0
H588 H 0.08473 0.22513 0.97009 0.0
H589 H 0.0963 0.23279 0.91589 0.0
H590 H 0.08292 0.18976 0.01583 0.0
H591 H 0.07037 0.15201 0.02503 0.0
C592 C 0.90961 0.80196 0.58119 0.0
C593 C 0.94131 0.80921 0.58548 0.0
C594 C 0.93888 0.79936 0.66524 0.0
C595 C 0.90833 0.78824 0.65946 0.0
N596 N 0.86094 0.79611 0.61909 0.0
N597 N 0.98686 0.81535 0.63052 0.0
C598 C 0.89243 0.79479 0.61956 0.0
C599 C 0.95615 0.80838 0.62735 0.0
N600 N 0.8963 0.8002 0.54024 0.0
N601 N 0.95022 0.80379 0.70696 0.0
H602 H -0.00019 0.82313 0.60366 0.0
H603 H -1e-05 0.8118 0.65893 0.0
H604 H 0.93635 0.80178 0.73499 0.0
H605 H 0.97166 0.8135 0.71378 0.0
H606 H 0.8741 0.79172 0.53498 0.0
H607 H 0.90854 0.80433 0.51114 0.0
H608 H 0.84821 0.80296 0.5915 0.0
H609 H 0.84791 0.79486 0.64807 0.0
C610 C 0.96689 0.15948 0.35615 0.0
C611 C 0.95299 0.15313 0.39789 0.0
C612 C 0.91367 0.19262 0.38277 0.0
C613 C 0.92581 0.19648 0.33962 0.0
N614 N 0.95893 0.17745 0.28135 0.0
N615 N 0.90877 0.1587 0.44602 0.0
C616 C 0.95088 0.17806 0.32511 0.0
C617 C 0.9251 0.16832 0.40986 0.0
N618 N 0.99612 0.14961 0.34664 0.0
N619 N 0.89192 0.2127 0.39842 0.0
H620 H 0.91544 0.13994 0.46547 0.0
H621 H 0.88691 0.16709 0.4538 0.0
H622 H 0.88326 0.23099 0.37965 0.0
H623 H 0.88464 0.21292 0.43129 0.0
H624 H 0.00819 0.1569 0.31869 0.0
H625 H 0.00994 0.13728 0.36849 0.0
H626 H 0.97478 0.16173 0.26847 0.0
H627 H 0.94752 0.19022 0.25706 0.0
C628 C 0.52195 0.1866 0.16957 0.0
C629 C 0.5346 0.17374 0.13025 0.0
C630 C 0.58604 0.17448 0.16372 0.0
C631 C 0.57407 0.19303 0.19798 0.0
N632 N 0.53073 0.19941 0.24669 0.0
N633 N 0.57893 0.1538 0.09021 0.0
C634 C 0.54192 0.19377 0.20526 0.0
C635 C 0.5666 0.16624 0.12787 0.0
N636 N 0.49117 0.19314 0.17213 0.0
N637 N 0.61575 0.16411 0.16658 0.0
H638 H 0.56591 0.14707 0.06293 0.0
H639 H 0.60255 0.15189 0.08463 0.0
H640 H 0.62945 0.16866 0.1943 0.0
H641 H 0.62546 0.14831 0.14468 0.0
H642 H 0.48139 0.20592 0.19773 0.0
H643 H 0.4756 0.18732 0.14725 0.0
H644 H 0.50742 0.19807 0.25484 0.0
H645 H 0.54525 0.2011 0.27414 0.0
C646 C 0.54217 0.8621 0.84919 0.0
C647 C 0.54971 0.86454 0.89509 0.0
C648 C 0.59633 0.83344 0.88345 0.0
C649 C 0.58652 0.82816 0.8394 0.0
N650 N 0.55953 0.84746 0.77578 0.0
N651 N 0.58915 0.86247 0.95145 0.0
C652 C 0.56266 0.84616 0.82079 0.0
C653 C 0.57846 0.8532 0.91096 0.0
N654 N 0.51451 0.87245 0.83301 0.0
N655 N 0.62239 0.81943 0.89895 0.0
H656 H 0.57738 0.87829 0.97126 0.0
H657 H 0.61092 0.85701 0.96372 0.0
H658 H 0.63812 0.80862 0.87802 0.0
H659 H 0.62841 0.81843 0.93228 0.0
H660 H 0.50719 0.86883 0.80059 0.0
H661 H 0.49678 0.88129 0.8523 0.0
H662 H 0.54479 0.8627 0.75952 0.0
H663 H 0.57429 0.83553 0.75453 0.0
C664 C 0.95519 0.20387 0.82096 0.0
C665 C 0.92262 0.20632 0.82443 0.0
C666 C 0.92252 0.17281 0.88939 0.0
C667 C 0.95527 0.17411 0.88999 0.0
N668 N 0.00194 0.17923 0.8477 0.0
N669 N 0.87624 0.17968 0.84551 0.0
C670 C 0.97145 0.18621 0.85309 0.0
C671 C 0.90659 0.18629 0.85337 0.0
N672 N 0.97059 0.21818 0.78744 0.0
N673 N 0.90644 0.16028 0.92389 0.0
H674 H 0.86473 0.18797 0.81752 0.0
H675 H 0.86384 0.16323 0.86332 0.0
H676 H 0.91675 0.14903 0.95048 0.0
H677 H 0.88263 0.16267 0.92739 0.0
H678 H 0.99425 0.2223 0.78808 0.0
H679 H 0.95977 0.22468 0.75812 0.0
H680 H 0.01424 0.1841 0.81897 0.0
H681 H 0.01397 0.16549 0.87022 0.0
C682 C 0.58519 0.16387 0.67008 0.0
C683 C 0.57947 0.19622 0.67409 0.0
C684 C 0.53578 0.19117 0.62445 0.0
C685 C 0.54357 0.16025 0.61509 0.0
N686 N 0.58016 0.11851 0.62332 0.0
N687 N 0.55571 0.24145 0.64108 0.0
C688 C 0.56968 0.14687 0.63615 0.0
C689 C 0.55711 0.21015 0.64629 0.0
N690 N 0.60392 0.14893 0.69946 0.0
N691 N 0.50666 0.20154 0.61713 0.0
H692 H 0.57194 0.25639 0.65492 0.0
H693 H 0.54048 0.2519 0.61888 0.0
H694 H 0.48916 0.18576 0.61122 0.0
H695 H 0.49933 0.22372 0.62564 0.0
H696 H 0.60593 0.12495 0.70051 0.0
H697 H 0.61543 0.16002 0.72514 0.0
H698 H 0.60087 0.10917 0.63471 0.0
H699 H 0.56966 0.10559 0.59837 0.0
C700 C 0.59953 0.81635 0.33232 0.0
C701 C 0.58064 0.80066 0.30132 0.0
C702 C 0.53504 0.82229 0.33807 0.0
C703 C 0.55373 0.82956 0.3752 0.0
N704 N 0.60468 0.83471 0.40731 0.0
N705 N 0.5303 0.79695 0.26692 0.0
C706 C 0.5863 0.82749 0.37202 0.0
C707 C 0.54829 0.80632 0.30148 0.0
N708 N 0.62989 0.82165 0.32283 0.0
N709 N 0.50511 0.83221 0.33701 0.0
H710 H 0.53935 0.792 0.23583 0.0
H711 H 0.50635 0.7954 0.26856 0.0
H712 H 0.49526 0.84463 0.36298 0.0
H713 H 0.49113 0.83103 0.30903 0.0
H714 H 0.64425 0.83509 0.34273 0.0
H715 H 0.6394 0.81606 0.29212 0.0
H716 H 0.62823 0.82984 0.40816 0.0
H717 H 0.59623 0.84367 0.43688 0.0
C718 C 0.92826 0.77767 0.08024 0.0
C719 C 0.91276 0.79418 0.11423 0.0
C720 C 0.92225 0.84254 0.07485 0.0
C721 C 0.94442 0.82721 0.04862 0.0
N722 N 0.9602 0.7795 0.0143 0.0
N723 N 0.89261 0.84268 0.14221 0.0
C724 C 0.94476 0.79443 0.04725 0.0
C725 C 0.90836 0.82663 0.11052 0.0
N726 N 0.92606 0.74614 0.07889 0.0
N727 N 0.91406 0.87219 0.06461 0.0
H728 H 0.88061 0.83225 0.16794 0.0
H729 H 0.89273 0.86671 0.1443 0.0
H730 H 0.92301 0.8836 0.03697 0.0
H731 H 0.89605 0.88395 0.07995 0.0
H732 H 0.93514 0.73241 0.05389 0.0
H733 H 0.91291 0.73362 0.1016 0.0
H734 H 0.96577 0.75612 0.01486 0.0
H735 H 0.96555 0.79041 0.98459 0.0
C736 C 0.57894 0.69694 0.90448 0.0
C737 C 0.56327 0.67232 0.88341 0.0
C738 C 0.59568 0.67899 0.81773 0.0
C739 C 0.60731 0.707 0.83583 0.0
N740 N 0.60695 0.7444 0.89562 0.0
N741 N 0.55558 0.63986 0.81959 0.0
C742 C 0.59851 0.71626 0.87924 0.0
C743 C 0.57152 0.66306 0.84004 0.0
N744 N 0.57539 0.70166 0.94897 0.0
N745 N 0.60848 0.66709 0.78008 0.0
H746 H 0.53855 0.62703 0.83554 0.0
H747 H 0.55792 0.6346 0.78611 0.0
H748 H 0.62693 0.67756 0.76376 0.0
H749 H 0.603 0.64536 0.76756 0.0
H750 H 0.589 0.71695 0.96712 0.0
H751 H 0.561 0.68809 0.96863 0.0
H752 H 0.59761 0.7539 0.92434 0.0
H753 H 0.62116 0.7596 0.87884 0.0
C754 C 0.56052 0.28535 0.09179 0.0
C755 C 0.56621 0.30219 0.13133 0.0
C756 C 0.56259 0.35078 0.09023 0.0
C757 C 0.55084 0.33422 0.05348 0.0
N758 N 0.55552 0.28714 0.01178 0.0
N759 N 0.57274 0.35096 0.16903 0.0
C760 C 0.55481 0.30176 0.05182 0.0
C761 C 0.56798 0.33493 0.13064 0.0
N762 N 0.55989 0.25377 0.09272 0.0
N763 N 0.5701 0.38124 0.08556 0.0
H764 H 0.57678 0.34023 0.19938 0.0
H765 H 0.57043 0.37485 0.17146 0.0
H766 H 0.5692 0.39234 0.05491 0.0
H767 H 0.58098 0.39418 0.1101 0.0
H768 H 0.55202 0.24028 0.06652 0.0
H769 H 0.56587 0.24096 0.1207 0.0
H770 H 0.56019 0.26373 0.00782 0.0
H771 H 0.55561 0.29936 0.98202 0.0
C772 C 0.9085 0.3214 0.29387 0.0
C773 C 0.87867 0.31107 0.30581 0.0
C774 C 0.88367 0.33544 0.37832 0.0
C775 C 0.91573 0.33825 0.37038 0.0
N776 N 0.95853 0.33925 0.31961 0.0
N777 N 0.83321 0.32321 0.34775 0.0
C778 C 0.92804 0.33341 0.32747 0.0
C779 C 0.86465 0.32299 0.3445 0.0
N780 N 0.91726 0.32129 0.2505 0.0
N781 N 0.87192 0.34299 0.41884 0.0
H782 H 0.81915 0.31628 0.32146 0.0
H783 H 0.82115 0.3332 0.37385 0.0
H784 H 0.88518 0.35374 0.4432 0.0
H785 H 0.84948 0.33797 0.42875 0.0
H786 H 0.93823 0.32998 0.23922 0.0
H787 H 0.90174 0.31627 0.2251 0.0
H788 H 0.96987 0.33296 0.29063 0.0
H789 H 0.9728 0.34972 0.34309 0.0
C790 C 0.92657 0.68686 0.58285 0.0
C791 C 0.9259 0.67431 0.6263 0.0
C792 C 0.93535 0.62272 0.59625 0.0
C793 C 0.94346 0.63662 0.55557 0.0
N794 N 0.93028 0.67659 0.50391 0.0
N795 N 0.92703 0.62985 0.67477 0.0
C796 C 0.93383 0.66719 0.54676 0.0
C797 C 0.92862 0.64193 0.63305 0.0
N798 N 0.92121 0.71766 0.57647 0.0
N799 N 0.93285 0.59133 0.59884 0.0
H800 H 0.92152 0.64303 0.70247 0.0
H801 H 0.93284 0.60711 0.68231 0.0
H802 H 0.93492 0.57734 0.57086 0.0
H803 H 0.9249 0.57969 0.62677 0.0
H804 H 0.92507 0.72907 0.54664 0.0
H805 H 0.91367 0.73214 0.6018 0.0
H806 H 0.92152 0.69803 0.49471 0.0
H807 H 0.93283 0.66125 0.4775 0.0
C808 C 0.58452 0.3426 0.67813 0.0
C809 C 0.58593 0.33536 0.63267 0.0
C810 C 0.62358 0.29537 0.64583 0.0
C811 C 0.62187 0.30103 0.69233 0.0
N812 N 0.60882 0.33748 0.75022 0.0
N813 N 0.61929 0.31962 0.5742 0.0
C814 C 0.60478 0.32703 0.70794 0.0
C815 C 0.60991 0.31678 0.61693 0.0
N816 N 0.56436 0.36459 0.69233 0.0
N817 N 0.63496 0.26844 0.62874 0.0
H818 H 0.61093 0.33768 0.55464 0.0
H819 H 0.63801 0.30745 0.56133 0.0
H820 H 0.64029 0.24908 0.64759 0.0
H821 H 0.63439 0.26363 0.59491 0.0
H822 H 0.55913 0.36837 0.72553 0.0
H823 H 0.55307 0.3791 0.66999 0.0
H824 H 0.59845 0.35742 0.76241 0.0
H825 H 0.62516 0.32811 0.77172 0.0
C826 C 0.94355 0.37189 0.91847 0.0
C827 C 0.95421 0.35598 0.95648 0.0
C828 C 0.93857 0.30672 0.92382 0.0
C829 C 0.93406 0.32205 0.88275 0.0
N830 N 0.93108 0.36925 0.84041 0.0
N831 N 0.94504 0.31203 0.00329 0.0
C832 C 0.93546 0.35476 0.88012 0.0
C833 C 0.94663 0.32438 0.96178 0.0
N834 N 0.93979 0.4032 0.9201 0.0
N835 N 0.93608 0.27526 0.92613 0.0
H836 H 0.94717 0.32567 0.03159 0.0
H837 H 0.9376 0.28962 0.00986 0.0
H838 H 0.9287 0.26177 0.89952 0.0
H839 H 0.94275 0.26238 0.95366 0.0
H840 H 0.92997 0.41612 0.89464 0.0
H841 H 0.94287 0.41562 0.9494 0.0
H842 H 0.93566 0.39258 0.83517 0.0
H843 H 0.92464 0.35748 0.81178 0.0
C844 C 0.90047 0.66343 0.10777 0.0
C845 C 0.9314 0.66535 0.12355 0.0
C846 C 0.91249 0.6818 0.19598 0.0
C847 C 0.88328 0.68733 0.17677 0.0
N848 N 0.8458 0.66854 0.12487 0.0
N849 N 0.96708 0.67494 0.18355 0.0
C850 C 0.87602 0.67349 0.13568 0.0
C851 C 0.93746 0.67368 0.16818 0.0
N852 N 0.89465 0.65387 0.06546 0.0
N853 N 0.91578 0.68269 0.24091 0.0
H854 H 0.98595 0.66813 0.16461 0.0
H855 H 0.97306 0.68444 0.21406 0.0
H856 H 0.89685 0.6854 0.2619 0.0
H857 H 0.93608 0.67665 0.25725 0.0
H858 H 0.87328 0.65594 0.05003 0.0
H859 H 0.91159 0.64483 0.04477 0.0
H860 H 0.83856 0.65675 0.09671 0.0
H861 H 0.82799 0.67304 0.14719 0.0
C862 C 0.57251 0.64993 0.34729 0.0
C863 C 0.57101 0.68251 0.35316 0.0
C864 C 0.56746 0.67547 0.43328 0.0
C865 C 0.56144 0.64378 0.42595 0.0
N866 N 0.57496 0.59948 0.38257 0.0
N867 N 0.57038 0.72687 0.40167 0.0
C868 C 0.56931 0.63047 0.38483 0.0
C869 C 0.56989 0.69551 0.39626 0.0
N870 N 0.57508 0.63764 0.30579 0.0
N871 N 0.57266 0.68576 0.47532 0.0
H872 H 0.57387 0.74221 0.37548 0.0
H873 H 0.56594 0.73774 0.43175 0.0
H874 H 0.57393 0.67054 0.50208 0.0
H875 H 0.57933 0.70826 0.48289 0.0
H876 H 0.57229 0.61425 0.29884 0.0
H877 H 0.57861 0.65103 0.27761 0.0
H878 H 0.58299 0.58828 0.35436 0.0
H879 H 0.57502 0.58562 0.41087 0.0
C880 C 0.40627 0.32643 0.09731 0.0
C881 C 0.43894 0.32799 0.1009 0.0
C882 C 0.43503 0.32861 0.18139 0.0
C883 C 0.40379 0.31959 0.17742 0.0
N884 N 0.35699 0.32631 0.13578 0.0
N885 N 0.48475 0.33361 0.14569 0.0
C886 C 0.38837 0.3235 0.13652 0.0
C887 C 0.45342 0.3305 0.14282 0.0
N888 N 0.39264 0.32656 0.05651 0.0
N889 N 0.44648 0.33647 0.222 0.0
H890 H 0.49873 0.33672 0.11799 0.0
H891 H 0.49703 0.33168 0.17523 0.0
H892 H 0.43235 0.33743 0.24996 0.0
H893 H 0.46851 0.34539 0.22705 0.0
H894 H 0.3695 0.32139 0.05106 0.0
H895 H 0.40488 0.33106 0.02756 0.0
H896 H 0.34416 0.33067 0.10732 0.0
H897 H 0.34411 0.3283 0.1648 0.0
C898 C 0.42729 0.65742 0.89393 0.0
C899 C 0.45034 0.63828 0.87491 0.0
C900 C 0.44663 0.66794 0.80573 0.0
C901 C 0.42834 0.6902 0.82813 0.0
N902 N 0.40167 0.7072 0.89363 0.0
N903 N 0.47752 0.62167 0.8088 0.0
C904 C 0.41849 0.68511 0.87213 0.0
C905 C 0.4585 0.64222 0.82952 0.0
N906 N 0.41287 0.64827 0.93193 0.0
N907 N 0.45139 0.6706 0.76106 0.0
H908 H 0.4797 0.59872 0.81853 0.0
H909 H 0.49 0.6269 0.78035 0.0
H910 H 0.44324 0.68908 0.74224 0.0
H911 H 0.46137 0.65352 0.74156 0.0
H912 H 0.39412 0.65984 0.94562 0.0
H913 H 0.41731 0.62689 0.94671 0.0
H914 H 0.3967 0.70629 0.92732 0.0
H915 H 0.39471 0.72776 0.87849 0.0
C916 C 0.10272 0.67245 0.64588 0.0
C917 C 0.08895 0.68981 0.68 0.0
C918 C 0.03793 0.67359 0.65446 0.0
C919 C 0.0517 0.6648 0.61372 0.0
N920 N 0.098 0.65435 0.57091 0.0
N921 N 0.04514 0.69501 0.72832 0.0
C922 C 0.08435 0.6629 0.60981 0.0
C923 C 0.05691 0.68653 0.68823 0.0
N924 N 0.13327 0.66498 0.64853 0.0
N925 N 0.00701 0.66897 0.66057 0.0
H926 H 0.05938 0.69929 0.7555 0.0
H927 H 0.02174 0.69616 0.73569 0.0
H928 H 0.99325 0.65828 0.63672 0.0
H929 H 0.99517 0.67399 0.68957 0.0
H930 H 0.1442 0.65024 0.62625 0.0
H931 H 0.1465 0.67059 0.67634 0.0
H932 H 0.12162 0.65647 0.56524 0.0
H933 H 0.08585 0.64727 0.54297 0.0
C934 C 0.05991 0.36202 0.38322 0.0
C935 C 0.03481 0.34708 0.40484 0.0
C936 C 0.03521 0.30748 0.34866 0.0
C937 C 0.06435 0.31735 0.33293 0.0
N938 N 0.10249 0.35798 0.33101 0.0
N939 N 0.01103 0.2978 0.4182 0.0
C940 C 0.07627 0.34593 0.34904 0.0
C941 C 0.02587 0.31753 0.39058 0.0
N942 N 0.06824 0.39116 0.39575 0.0
N943 N 0.01616 0.28921 0.32409 0.0
H944 H 0.01283 0.30072 0.45229 0.0
H945 H 0.003 0.27624 0.40806 0.0
H946 H 0.01995 0.28503 0.29054 0.0
H947 H 0.99448 0.28244 0.33568 0.0
H948 H 0.08392 0.40476 0.37838 0.0
H949 H 0.05878 0.40203 0.42343 0.0
H950 H 0.11459 0.37645 0.34461 0.0
H951 H 0.11199 0.34935 0.30186 0.0
C952 C 0.4206 0.68111 0.4032 0.0
C953 C 0.45077 0.67412 0.38904 0.0
C954 C 0.43805 0.69516 0.31666 0.0
C955 C 0.41239 0.71109 0.3356 0.0
N956 N 0.38248 0.7209 0.40341 0.0
N957 N 0.48841 0.67276 0.3307 0.0
C958 C 0.404 0.70425 0.38043 0.0
C959 C 0.45967 0.68068 0.34519 0.0
N960 N 0.40798 0.66637 0.43878 0.0
N961 N 0.44095 0.69231 0.27183 0.0
H962 H 0.50392 0.66043 0.35039 0.0
H963 H 0.49702 0.67956 0.29999 0.0
H964 H 0.42354 0.69885 0.24991 0.0
H965 H 0.45838 0.67937 0.25696 0.0
H966 H 0.3849 0.66913 0.44779 0.0
H967 H 0.4195 0.6491 0.45625 0.0
H968 H 0.37841 0.71734 0.43705 0.0
H969 H 0.37176 0.74086 0.39243 0.0
C970 C 0.04646 0.64388 0.16042 0.0
C971 C 0.05229 0.64384 0.11393 0.0
C972 C 0.08507 0.68968 0.12135 0.0
C973 C 0.07745 0.69112 0.16677 0.0
N974 N 0.05763 0.66642 0.23233 0.0
N975 N 0.08713 0.65809 0.05533 0.0
C976 C 0.06018 0.6672 0.18717 0.0
C977 C 0.07484 0.66408 0.09607 0.0
N978 N 0.02718 0.62258 0.17914 0.0
N979 N 0.10087 0.71342 0.10188 0.0
H980 H 0.08137 0.63832 0.03733 0.0
H981 H 0.10548 0.67049 0.04193 0.0
H982 H 0.10891 0.73256 0.11946 0.0
H983 H 0.10395 0.71529 0.06779 0.0
H984 H 0.01727 0.62524 0.21028 0.0
H985 H 0.02114 0.60182 0.16431 0.0
H986 H 0.04865 0.64783 0.24995 0.0
H987 H 0.06667 0.68355 0.25287 0.0
C988 C 0.06249 0.31366 0.82725 0.0
C989 C 0.09261 0.30181 0.83385 0.0
C990 C 0.09375 0.32329 0.90848 0.0
C991 C 0.06139 0.32793 0.90536 0.0
N992 N 0.01533 0.33234 0.86105 0.0
N993 N 0.14131 0.31168 0.8695 0.0
C994 C 0.04591 0.32495 0.86426 0.0
C995 C 0.10981 0.31158 0.87117 0.0
N996 N 0.05085 0.31598 0.78534 0.0
N997 N 0.10881 0.32883 0.94744 0.0
H998 H 0.1533 0.3071 0.84031 0.0
H999 H 0.15537 0.32026 0.89461 0.0
H1000 H 0.09835 0.3397 0.97427 0.0
H1001 H 0.13134 0.32177 0.95378 0.0
H1002 H 0.0297 0.32606 0.7778 0.0
H1003 H 0.06434 0.31155 0.75747 0.0
H1004 H 0.00182 0.32757 0.83337 0.0
H1005 H 0.00318 0.34257 0.88695 0.0
C1006 C 0.46607 0.33245 0.65194 0.0
C1007 C 0.45919 0.34174 0.60797 0.0
C1008 C 0.41663 0.30434 0.60474 0.0
C1009 C 0.42321 0.29563 0.64891 0.0
N1010 N 0.44914 0.3061 0.71815 0.0
N1011 N 0.42358 0.34235 0.54661 0.0
C1012 C 0.44637 0.31117 0.67361 0.0
C1013 C 0.43306 0.32944 0.58563 0.0
N1014 N 0.49233 0.34249 0.67229 0.0
N1015 N 0.3957 0.2878 0.58051 0.0
H1016 H 0.43465 0.36133 0.5324 0.0
H1017 H 0.40312 0.33636 0.53069 0.0
H1018 H 0.38322 0.26932 0.59359 0.0
H1019 H 0.3924 0.29082 0.54663 0.0
H1020 H 0.50096 0.33299 0.70148 0.0
H1021 H 0.50669 0.35903 0.65852 0.0
H1022 H 0.46301 0.31946 0.73883 0.0
H1023 H 0.4355 0.29038 0.73542 0.0
C1024 C 0.28412 0.25343 0.33262 0.0
C1025 C 0.3021 0.27414 0.30717 0.0
C1026 C 0.2551 0.30082 0.28216 0.0
C1027 C 0.23713 0.27951 0.30664 0.0
N1028 N 0.23442 0.24191 0.36542 0.0
N1029 N 0.3055 0.32296 0.26832 0.0
C1030 C 0.25167 0.25782 0.33519 0.0
C1031 C 0.28786 0.2998 0.28579 0.0
N1032 N 0.29808 0.22906 0.35331 0.0
N1033 N 0.24106 0.32059 0.25313 0.0
H1034 H 0.32946 0.32331 0.27003 0.0
H1035 H 0.29633 0.3435 0.25612 0.0
H1036 H 0.21717 0.32217 0.24972 0.0
H1037 H 0.25303 0.33386 0.23008 0.0
H1038 H 0.286 0.2108 0.36758 0.0
H1039 H 0.32203 0.22652 0.35453 0.0
H1040 H 0.24388 0.22775 0.38978 0.0
H1041 H 0.21076 0.24533 0.36904 0.0
C1042 C 0.98212 0.97862 0.44496 0.0
C1043 C 0.98283 0.96131 0.48474 0.0
C1044 C 0.9931 0.00866 0.52717 0.0
C1045 C 0.99531 0.02537 0.48701 0.0
N1046 N 0.99574 0.02595 0.40698 0.0
N1047 N 0.99518 0.95867 0.56283 0.0
C1048 C 0.9911 0.01022 0.44567 0.0
C1049 C 0.98979 0.976 0.52573 0.0
N1050 N 0.97151 0.96521 0.40687 0.0
N1051 N 0.99422 0.02397 0.56673 0.0
H1052 H 0.99404 0.93464 0.56331 0.0
H1053 H 0.0037 0.96787 0.59226 0.0
H1054 H 0.99837 0.04765 0.56919 0.0
H1055 H 0.98896 0.01357 0.5969 0.0
H1056 H 0.96724 0.97743 0.37781 0.0
H1057 H 0.96413 0.94229 0.40535 0.0
H1058 H 0.99662 0.01529 0.37611 0.0
H1059 H 0.00103 0.04941 0.40571 0.0
C1060 C 0.25898 0.75434 0.77771 0.0
C1061 C 0.27541 0.74504 0.73925 0.0
C1062 C 0.22755 0.74517 0.6963 0.0
C1063 C 0.21165 0.75747 0.73356 0.0
N1064 N 0.21276 0.7781 0.80752 0.0
N1065 N 0.27665 0.73474 0.66091 0.0
C1066 C 0.22745 0.76301 0.77383 0.0
C1067 C 0.26007 0.74145 0.69821 0.0
N1068 N 0.27352 0.75509 0.8179 0.0
N1069 N 0.21146 0.7356 0.65981 0.0
H1070 H 0.30023 0.72986 0.66146 0.0
H1071 H 0.26745 0.73581 0.62908 0.0
H1072 H 0.18763 0.73764 0.65677 0.0
H1073 H 0.22133 0.72313 0.63398 0.0
H1074 H 0.26197 0.75825 0.84777 0.0
H1075 H 0.2969 0.75028 0.82205 0.0
H1076 H 0.22382 0.78587 0.83603 0.0
H1077 H 0.18992 0.78547 0.80523 0.0
C1078 C 0.515 0.02531 0.97047 0.0
C1079 C 0.48919 0.04244 0.98521 0.0
C1080 C 0.46233 0.99456 0.00522 0.0
C1081 C 0.48733 0.97731 0.98797 0.0
N1082 N 0.53492 0.97626 0.94572 0.0
N1083 N 0.43593 0.0437 0.0092 0.0
C1084 C 0.51306 0.99263 0.96838 0.0
C1085 C 0.46201 0.02717 -7e-05 0.0
N1086 N 0.54155 0.04034 0.95878 0.0
N1087 N 0.4397 0.97993 0.02883 0.0
H1088 H 0.43468 0.06765 0.00699 0.0
H1089 H 0.41458 0.0335 0.01529 0.0
H1090 H 0.43968 0.95616 0.03457 0.0
H1091 H 0.42265 0.99154 0.04648 0.0
H1092 H 0.56255 0.02914 0.95389 0.0
H1093 H 0.54301 0.06434 0.95614 0.0
H1094 H 0.55184 0.98654 0.92617 0.0
H1095 H 0.53496 0.95235 0.94313 0.0
C1096 C 0.24583 0.7548 0.29029 0.0
C1097 C 0.23082 0.75152 0.24892 0.0
C1098 C 0.27892 0.76491 0.21003 0.0
C1099 C 0.29414 0.76725 0.25143 0.0
N1100 N 0.29368 0.75904 0.33079 0.0
N1101 N 0.23308 0.75007 0.16897 0.0
C1102 C 0.27802 0.76085 0.29153 0.0
C1103 C 0.24745 0.75527 0.20862 0.0
N1104 N 0.22915 0.75241 0.32861 0.0
N1105 N 0.29413 0.77353 0.17231 0.0
H1106 H 0.20962 0.7453 0.166 0.0
H1107 H 0.24465 0.74869 0.13887 0.0
H1108 H 0.31704 0.78092 0.17228 0.0
H1109 H 0.28365 0.77568 0.14146 0.0
H1110 H 0.23745 0.75918 0.35948 0.0
H1111 H 0.20625 0.74501 0.32946 0.0
H1112 H 0.28421 0.75023 0.35982 0.0
H1113 H 0.31695 0.76421 0.33422 0.0
C1114 C 0.53227 0.99095 0.5466 0.0
C1115 C 0.54269 0.97779 0.5064 0.0
C1116 C 0.53641 0.02788 0.46902 0.0
C1117 C 0.52246 0.04005 0.50771 0.0
N1118 N 0.5086 0.0341 0.58483 0.0
N1119 N 0.56924 0.98836 0.43765 0.0
C1120 C 0.52105 0.02191 0.54709 0.0
C1121 C 0.54918 0.99754 0.4699 0.0
N1122 N 0.53539 0.97432 0.58485 0.0
N1123 N 0.5361 0.04469 0.43069 0.0
H1124 H 0.58273 0.96857 0.44041 0.0
H1125 H 0.57641 0.00264 0.4119 0.0
H1126 H 0.52692 0.06692 0.42864 0.0
H1127 H 0.54244 0.03562 0.40009 0.0
H1128 H 0.53061 0.98281 0.61631 0.0
H1129 H 0.54625 0.95279 0.58551 0.0
H1130 H 0.50294 0.02113 0.61264 0.0
H1131 H 0.5027 0.05729 0.58817 0.0
C1132 C 0.21452 0.25113 0.77088 0.0
C1133 C 0.19658 0.24536 0.73198 0.0
C1134 C 0.2417 0.25684 0.68578 0.0
C1135 C 0.25918 0.26268 0.7247 0.0
N1136 N 0.26079 0.27405 0.80223 0.0
N1137 N 0.19134 0.24828 0.65259 0.0
C1138 C 0.245 0.26263 0.76657 0.0
C1139 C 0.20956 0.25031 0.68944 0.0
N1140 N 0.203 0.24499 0.81209 0.0
N1141 N 0.25619 0.25574 0.64564 0.0
H1142 H 0.16827 0.24149 0.65371 0.0
H1143 H 0.19854 0.25506 0.62117 0.0
H1144 H 0.27935 0.26155 0.64145 0.0
H1145 H 0.24577 0.24765 0.61683 0.0
H1146 H 0.2165 0.2449 0.84062 0.0
H1147 H 0.18061 0.2377 0.8182 0.0
H1148 H 0.25081 0.27786 0.8331 0.0
H1149 H 0.28316 0.28284 0.79955 0.0
C1150 C 0.98703 0.00708 0.95729 0.0
C1151 C 0.98002 0.02197 0.99827 0.0
C1152 C 0.9827 0.97208 0.03663 0.0
C1153 C 0.99309 0.95804 0.99682 0.0
N1154 N 0.00773 0.96185 0.92022 0.0
N1155 N 0.97185 0.01927 0.07708 0.0
C1156 C 0.99544 0.97531 0.95723 0.0
C1157 C 0.97801 0.00459 0.03797 0.0
N1158 N 0.98637 0.02324 0.91836 0.0
N1159 N 0.97613 0.95411 0.07267 0.0
H1160 H 0.96543 0.0425 0.07885 0.0
H1161 H 0.97428 0.00892 0.10798 0.0
H1162 H 0.97896 0.93017 0.07287 0.0
H1163 H 0.96544 0.96229 0.10113 0.0
H1164 H 0.98641 0.01273 0.88741 0.0
H1165 H 0.98422 0.04713 0.91621 0.0
H1166 H 0.01383 0.97395 0.8918 0.0
H1167 H 0.01422 0.93864 0.91889 0.0
C1168 C 0.78039 0.73874 0.71609 0.0
C1169 C 0.79701 0.73482 0.75657 0.0
C1170 C 0.75066 0.74865 0.79868 0.0
C1171 C 0.73476 0.75419 0.75824 0.0
N1172 N 0.73544 0.76017 0.67916 0.0
N1173 N 0.79945 0.73956 0.83601 0.0
C1174 C 0.74987 0.75067 0.71714 0.0
C1175 C 0.7826 0.74102 0.79775 0.0
N1176 N 0.79363 0.73121 0.67643 0.0
N1177 N 0.73487 0.7491 0.83787 0.0
H1178 H 0.82219 0.73167 0.83712 0.0
H1179 H 0.79152 0.74769 0.86637 0.0
H1180 H 0.71161 0.75491 0.84026 0.0
H1181 H 0.74414 0.74161 0.8678 0.0
H1182 H 0.78125 0.72935 0.64701 0.0
H1183 H 0.81661 0.72493 0.67264 0.0
H1184 H 0.74634 0.76176 0.64856 0.0
H1185 H 0.71315 0.76931 0.67883 0.0
C1186 C 0.71676 0.2342 0.21505 0.0
C1187 C 0.70274 0.24534 0.25468 0.0
C1188 C 0.75219 0.24095 0.29378 0.0
C1189 C 0.76616 0.23015 0.25406 0.0
N1190 N 0.76147 0.21053 0.18009 0.0
N1191 N 0.70536 0.25449 0.33332 0.0
C1192 C 0.7483 0.22506 0.2156 0.0
C1193 C 0.71989 0.24695 0.29462 0.0
N1194 N 0.69996 0.23243 0.17677 0.0
N1195 N 0.7701 0.24726 0.32999 0.0
H1196 H 0.68235 0.26144 0.33483 0.0
H1197 H 0.71549 0.25221 0.36441 0.0
H1198 H 0.79347 0.24187 0.33182 0.0
H1199 H 0.76231 0.25929 0.35763 0.0
H1200 H 0.70962 0.22871 0.14571 0.0
H1201 H 0.67621 0.23585 0.17536 0.0
H1202 H 0.74931 0.2032 0.15231 0.0
H1203 H 0.78446 0.20332 0.17998 0.0
C1204 C 0.75159 0.23784 0.81543 0.0
C1205 C 0.73444 0.2351 0.77571 0.0
C1206 C 0.77863 0.25469 0.73304 0.0
C1207 C 0.79606 0.25647 0.77258 0.0
N1208 N 0.80165 0.24333 0.85003 0.0
N1209 N 0.73331 0.23536 0.6954 0.0
C1210 C 0.78326 0.24627 0.81345 0.0
C1211 C 0.74857 0.2415 0.73407 0.0
N1212 N 0.73741 0.23277 0.8552 0.0
N1213 N 0.79014 0.26726 0.6949 0.0
H1214 H 0.71083 0.2271 0.6938 0.0
H1215 H 0.74386 0.23601 0.66447 0.0
H1216 H 0.81188 0.27752 0.69306 0.0
H1217 H 0.77725 0.27013 0.66609 0.0
H1218 H 0.74728 0.23846 0.88558 0.0
H1219 H 0.71499 0.22416 0.85777 0.0
H1220 H 0.7946 0.23254 0.87912 0.0
H1221 H 0.8249 0.24932 0.85042 0.0
C1222 C 0.74485 0.75002 0.17778 0.0
C1223 C 0.75968 0.76066 0.21706 0.0
C1224 C 0.71174 0.75399 0.25852 0.0
C1225 C 0.6964 0.74461 0.21886 0.0
N1226 N 0.69675 0.73926 0.13946 0.0
N1227 N 0.75576 0.78 0.29137 0.0
C1228 C 0.71241 0.74469 0.178 0.0
C1229 C 0.74264 0.76478 0.25639 0.0
N1230 N 0.76195 0.743 0.1411 0.0
N1231 N 0.69713 0.75221 0.29853 0.0
H1232 H 0.77827 0.78859 0.29054 0.0
H1233 H 0.74352 0.78691 0.31931 0.0
H1234 H 0.67418 0.74592 0.30235 0.0
H1235 H 0.70849 0.75484 0.3287 0.0
H1236 H 0.75297 0.73168 0.11354 0.0
H1237 H 0.78573 0.74613 0.13925 0.0
H1238 H 0.70637 0.74265 0.10824 0.0
H1239 H 0.67341 0.73343 0.13852 0.0
C1240 C 0.52497 0.46168 0.96971 0.0
C1241 C 0.49772 0.44874 0.95077 0.0
C1242 C 0.48051 0.50068 0.92967 0.0
C1243 C 0.50542 0.51379 0.95415 0.0
N1244 N 0.54935 0.50687 0.00201 0.0
N1245 N 0.44869 0.45576 0.91462 0.0
C1246 C 0.52734 0.49432 0.97495 0.0
C1247 C 0.47527 0.46825 0.93129 0.0
N1248 N 0.54858 0.44292 0.98313 0.0
N1249 N 0.46263 0.51899 0.90316 0.0
H1250 H 0.44517 0.43199 0.91181 0.0
H1251 H 0.42955 0.4689 0.90561 0.0
H1252 H 0.46592 0.54267 0.90006 0.0
H1253 H 0.44642 0.51038 0.88087 0.0
H1254 H 0.57019 0.45119 0.9925 0.0
H1255 H 0.54786 0.41896 0.98121 0.0
H1256 H 0.56366 0.4938 0.02243 0.0
H1257 H 0.55155 0.53058 0.00727 0.0
C1258 C 0.0143 0.48163 0.51209 0.0
C1259 C 0.98849 0.4725 0.48611 0.0
C1260 C 0.99438 0.51918 0.44109 0.0
C1261 C 0.01867 0.52928 0.46865 0.0
N1262 N 0.06004 0.51371 0.51683 0.0
N1263 N 0.94699 0.49045 0.43873 0.0
C1264 C 0.03118 0.50858 0.50026 0.0
C1265 C 0.97653 0.49334 0.45394 0.0
N1266 N 0.02102 0.46613 0.5503 0.0
N1267 N 0.98895 0.53384 0.40185 0.0
H1268 H 0.93095 0.47576 0.45345 0.0
H1269 H 0.93691 0.50635 0.41714 0.0
H1270 H 0.00344 0.55137 0.39033 0.0
H1271 H 0.97298 0.52589 0.37872 0.0
H1272 H 0.03795 0.47324 0.5725 0.0
H1273 H 0.00671 0.4488 0.56279 0.0
H1274 H 0.07147 0.49815 0.53748 0.0
H1275 H 0.07415 0.53133 0.50471 0.0
C1276 C 0.04315 0.48776 0.01329 0.0
C1277 C 0.02473 0.46786 0.03968 0.0
C1278 C 0.98347 0.50651 0.03972 0.0
C1279 C 0.0019 0.52682 0.01395 0.0
N1280 N 0.04407 0.53103 0.96245 0.0
N1281 N 0.98406 0.46564 0.09399 0.0
C1282 C 0.03041 0.51588 0.9969 0.0
C1283 C 0.99685 0.47939 0.05772 0.0
N1284 N 0.07353 0.48086 0.0066 0.0
N1285 N 0.95256 0.51167 0.04423 0.0
H1286 H 0.99547 0.44832 0.1116 0.0
H1287 H 0.96485 0.47461 0.11028 0.0
H1288 H 0.94097 0.52843 0.02581 0.0
H1289 H 0.93787 0.49625 0.0603 0.0
H1290 H 0.08887 0.4957 0.99072 0.0
H1291 H 0.08425 0.46233 0.02251 0.0
H1292 H 0.06358 0.5228 0.94613 0.0
H1293 H 0.03332 0.54937 0.94616 0.0
C1294 C 0.49806 0.48381 0.55731 0.0
C1295 C 0.50371 0.46564 0.51882 0.0
C1296 C 0.49805 0.51147 0.47204 0.0
C1297 C 0.49142 0.52947 0.51035 0.0
N1298 N 0.47933 0.53224 0.58789 0.0
N1299 N 0.50335 0.46064 0.43935 0.0
C1300 C 0.48983 0.51547 0.5526 0.0
C1301 C 0.50163 0.47897 0.47612 0.0
N1302 N 0.5006 0.47084 0.59845 0.0
N1303 N 0.50306 0.52555 0.43212 0.0
H1304 H 0.50789 0.43704 0.44079 0.0
H1305 H 0.49805 0.46836 0.40758 0.0
H1306 H 0.50079 0.5492 0.42696 0.0
H1307 H 0.51198 0.51416 0.40461 0.0
H1308 H 0.50094 0.48359 0.62765 0.0
H1309 H 0.50382 0.44727 0.60365 0.0
H1310 H 0.4745 0.52278 0.61879 0.0
H1311 H 0.47276 0.55537 0.58527 0.0
C1312 C 0.08945 0.34445 0.14478 0.0
C1313 C 0.08327 0.32925 0.10411 0.0
C1314 C 0.1187 0.28727 0.12482 0.0
C1315 C 0.12231 0.3009 0.16699 0.0
N1316 N 0.12204 0.34758 0.21012 0.0
N1317 N 0.09932 0.29159 0.04976 0.0
C1318 C 0.11155 0.33141 0.17439 0.0
C1319 C 0.10058 0.30252 0.09218 0.0
N1320 N 0.07271 0.36986 0.15667 0.0
N1321 N 0.13119 0.25878 0.11725 0.0
H1322 H 0.08581 0.30186 0.0253 0.0
H1323 H 0.11335 0.27395 0.03781 0.0
H1324 H 0.14593 0.24824 0.14011 0.0
H1325 H 0.12632 0.24533 0.08955 0.0
H1326 H 0.07355 0.37965 0.18815 0.0
H1327 H 0.05635 0.38007 0.13603 0.0
H1328 H 0.11678 0.37072 0.21577 0.0
H1329 H 0.13895 0.33884 0.23124 0.0
C1330 C 0.87241 0.81686 0.35775 0.0
C1331 C 0.88271 0.82151 0.31387 0.0
C1332 C 0.92421 0.85533 0.34014 0.0
C1333 C 0.91691 0.84657 0.38394 0.0
N1334 N 0.8784 0.8301 0.43566 0.0
N1335 N 0.91006 0.85328 0.26224 0.0
C1336 C 0.88878 0.83123 0.3931 0.0
C1337 C 0.9056 0.84402 0.30488 0.0
N1338 N 0.84849 0.79706 0.36541 0.0
N1339 N 0.94996 0.8727 0.33242 0.0
H1340 H 0.89612 0.84494 0.2368 0.0
H1341 H 0.92524 0.8707 0.2528 0.0
H1342 H 0.96306 0.88203 0.3582 0.0
H1343 H 0.95866 0.87736 0.30103 0.0
H1344 H 0.84172 0.78987 0.39682 0.0
H1345 H 0.83581 0.78733 0.33951 0.0
H1346 H 0.85735 0.82052 0.44493 0.0
H1347 H 0.88996 0.84168 0.46107 0.0
C1348 C 0.41134 0.66725 0.65011 0.0
C1349 C 0.40057 0.69738 0.64039 0.0
C1350 C 0.42218 0.6939 0.56603 0.0
C1351 C 0.43884 0.66702 0.57933 0.0
N1352 N 0.44821 0.62671 0.63274 0.0
N1353 N 0.39095 0.73793 0.58836 0.0
C1354 C 0.43244 0.65269 0.62055 0.0
C1355 C 0.40384 0.70982 0.59752 0.0
N1356 N 0.40195 0.65319 0.68824 0.0
N1357 N 0.42465 0.7045 0.52354 0.0
H1358 H 0.37612 0.74891 0.6106 0.0
H1359 H 0.39525 0.75066 0.5598 0.0
H1360 H 0.43888 0.69412 0.50012 0.0
H1361 H 0.41135 0.72229 0.51043 0.0
H1362 H 0.40708 0.63039 0.69631 0.0
H1363 H 0.38666 0.66383 0.71013 0.0
H1364 H 0.44724 0.6171 0.6643 0.0
H1365 H 0.4636 0.61546 0.61173 0.0
C1366 C 0.58589 0.16853 0.86441 0.0
C1367 C 0.60224 0.19579 0.87551 0.0
C1368 C 0.58134 0.19356 0.95053 0.0
C1369 C 0.55952 0.17122 0.93597 0.0
N1370 N 0.54199 0.13541 0.88019 0.0
N1371 N 0.61903 0.23254 0.92972 0.0
C1372 C 0.56261 0.1574 0.89362 0.0
C1373 C 0.60161 0.20727 0.91925 0.0
N1374 N 0.59209 0.15413 0.82522 0.0
N1375 N 0.58226 0.2018 0.99417 0.0
H1376 H 0.63509 0.24179 0.90761 0.0
H1377 H 0.61697 0.24478 0.95925 0.0
H1378 H 0.56728 0.19241 0.01757 0.0
H1379 H 0.59921 0.21592 0.00782 0.0
H1380 H 0.58261 0.13301 0.81594 0.0
H1381 H 0.60924 0.16211 0.80392 0.0
H1382 H 0.54077 0.12696 0.84797 0.0
H1383 H 0.52492 0.12652 0.90087 0.0
C1384 C 0.09025 0.697 0.4318 0.0
C1385 C 0.07404 0.66996 0.41843 0.0
C1386 C 0.10038 0.67193 0.34685 0.0
C1387 C 0.10958 0.70262 0.35633 0.0
N1388 N 0.11703 0.74359 0.40862 0.0
N1389 N 0.06458 0.63048 0.3636 0.0
C1390 C 0.1063 0.71461 0.39953 0.0
C1391 C 0.08006 0.65647 0.37651 0.0
N1392 N 0.08977 0.7059 0.4752 0.0
N1393 N 0.11034 0.65812 0.30884 0.0
H1394 H 0.04962 0.61844 0.38433 0.0
H1395 H 0.06518 0.6218 0.33145 0.0
H1396 H 0.12505 0.66928 0.28669 0.0
H1397 H 0.10643 0.63496 0.30142 0.0
H1398 H 0.10289 0.72402 0.48782 0.0
H1399 H 0.07811 0.69336 0.49946 0.0
H1400 H 0.1121 0.75557 0.43767 0.0
H1401 H 0.13022 0.75604 0.38584 0.0
C1402 C 0.61717 0.79684 0.60558 0.0
C1403 C 0.61771 0.81058 0.64798 0.0
C1404 C 0.5908 0.85633 0.6194 0.0
C1405 C 0.58713 0.84103 0.5782 0.0
N1406 N 0.60478 0.80198 0.52748 0.0
N1407 N 0.61531 0.85664 0.69199 0.0
C1408 C 0.60336 0.8131 0.56975 0.0
C1409 C 0.60825 0.84168 0.65353 0.0
N1410 N 0.62826 0.76751 0.60053 0.0
N1411 N 0.57573 0.88353 0.627 0.0
H1412 H 0.628 0.84601 0.71714 0.0
H1413 H 0.61109 0.88001 0.69739 0.0
H1414 H 0.56337 0.89509 0.60245 0.0
H1415 H 0.57437 0.89401 0.65795 0.0
H1416 H 0.6254 0.75436 0.57198 0.0
H1417 H 0.63978 0.756 0.62606 0.0
H1418 H 0.61797 0.783 0.5181 0.0
H1419 H 0.59453 0.8135 0.50096 0.0
C1420 C 0.38916 0.27538 0.87397 0.0
C1421 C 0.38921 0.28754 0.83059 0.0
C1422 C 0.42501 0.32862 0.85331 0.0
C1423 C 0.42658 0.31524 0.89617 0.0
N1424 N 0.40273 0.28242 0.95109 0.0
N1425 N 0.39815 0.33099 0.78268 0.0
C1426 C 0.40601 0.29083 0.90773 0.0
C1427 C 0.40391 0.31617 0.82171 0.0
N1428 N 0.37416 0.24822 0.88224 0.0
N1429 N 0.44515 0.35148 0.8416 0.0
H1430 H 0.38305 0.32211 0.75897 0.0
H1431 H 0.40608 0.35316 0.77557 0.0
H1432 H 0.46094 0.36118 0.86361 0.0
H1433 H 0.44763 0.35949 0.80928 0.0
H1434 H 0.37651 0.23577 0.91156 0.0
H1435 H 0.36017 0.23751 0.85862 0.0
H1436 H 0.38612 0.26687 0.96219 0.0
H1437 H 0.41487 0.2931 0.97663 0.0
C1438 C 0.89058 0.1942 0.10441 0.0
C1439 C 0.89318 0.18525 0.14908 0.0
C1440 C 0.92678 0.14202 0.12787 0.0
C1441 C 0.92972 0.15543 0.08528 0.0
N1442 N 0.91308 0.19296 0.03109 0.0
N1443 N 0.90979 0.1488 0.2041 0.0
C1444 C 0.91057 0.18068 0.07264 0.0
C1445 C 0.90944 0.158 0.16084 0.0
N1446 N 0.86952 0.21631 0.09307 0.0
N1447 N 0.94139 0.11478 0.13692 0.0
H1448 H 0.89624 0.15956 0.22815 0.0
H1449 H 0.92379 0.13129 0.21647 0.0
H1450 H 0.95456 0.10312 0.11336 0.0
H1451 H 0.93874 0.10257 0.16635 0.0
H1452 H 0.86457 0.22264 0.06058 0.0
H1453 H 0.85488 0.22627 0.11653 0.0
H1454 H 0.90253 0.21341 0.02119 0.0
H1455 H 0.92718 0.18335 0.0068 0.0
C1456 C 0.93041 0.68187 0.92425 0.0
C1457 C 0.95417 0.65922 0.92242 0.0
C1458 C 0.94892 0.65693 0.84172 0.0
C1459 C 0.92904 0.683 0.84323 0.0
N1460 N 0.90063 0.72079 0.8852 0.0
N1461 N 0.98659 0.62508 0.88004 0.0
C1462 C 0.91913 0.6952 0.88434 0.0
C1463 C 0.96313 0.64619 0.88137 0.0
N1464 N 0.91887 0.69074 0.96439 0.0
N1465 N 0.95416 0.64261 0.80212 0.0
H1466 H 0.99706 0.61627 0.90846 0.0
H1467 H 0.99688 0.61746 0.85089 0.0
H1468 H 0.94413 0.65023 0.77269 0.0
H1469 H 0.9661 0.62188 0.79887 0.0
H1470 H 0.89949 0.70468 0.96821 0.0
H1471 H 0.92734 0.68216 0.99425 0.0
H1472 H 0.89579 0.73333 0.91377 0.0
H1473 H 0.89125 0.73067 0.85672 0.0
C1474 C 0.02323 0.18152 0.66846 0.0
C1475 C 0.05516 0.1797 0.67999 0.0
C1476 C 0.06208 0.14403 0.61716 0.0
C1477 C 0.02977 0.14479 0.60908 0.0
N1478 N 0.9796 0.15288 0.64074 0.0
N1479 N 0.10219 0.14957 0.67267 0.0
C1480 C 0.01052 0.15872 0.6408 0.0
C1481 C 0.07392 0.15792 0.65676 0.0
N1482 N 0.00563 0.2067 0.67893 0.0
N1483 N 0.08157 0.13136 0.58678 0.0
H1484 H 0.11055 0.1569 0.70324 0.0
H1485 H 0.11549 0.13228 0.65808 0.0
H1486 H 0.07372 0.12005 0.55849 0.0
H1487 H 0.1055 0.13347 0.58897 0.0
H1488 H 0.98269 0.20885 0.66888 0.0
H1489 H 0.01494 0.22736 0.69059 0.0
H1490 H 0.96481 0.16201 0.66464 0.0
H1491 H 0.96986 0.13654 0.61942 0.0
C1492 C 0.5573 0.35698 0.3881 0.0
C1493 C 0.56522 0.34202 0.42833 0.0
C1494 C 0.5992 0.30614 0.38823 0.0
C1495 C 0.58863 0.31898 0.34797 0.0
N1496 N 0.56626 0.36152 0.30874 0.0
N1497 N 0.59898 0.30757 0.46828 0.0
C1498 C 0.57077 0.34637 0.34785 0.0
C1499 C 0.58832 0.3186 0.42878 0.0
N1500 N 0.53518 0.37945 0.38796 0.0
N1501 N 0.61739 0.28032 0.38746 0.0
H1502 H 0.58957 0.3144 0.49832 0.0
H1503 H 0.61806 0.29316 0.47162 0.0
H1504 H 0.62671 0.27146 0.35832 0.0
H1505 H 0.62259 0.26701 0.41517 0.0
H1506 H 0.52589 0.38905 0.3593 0.0
H1507 H 0.5249 0.38756 0.41685 0.0
H1508 H 0.55528 0.38282 0.30604 0.0
H1509 H 0.57622 0.35375 0.27932 0.0
C1510 C 0.42362 0.82599 0.08261 0.0
C1511 C 0.44779 0.84811 0.08495 0.0
C1512 C 0.44144 0.85122 0.16535 0.0
C1513 C 0.42152 0.82522 0.16359 0.0
N1514 N 0.39187 0.78852 0.12148 0.0
N1515 N 0.47895 0.88344 0.12723 0.0
C1516 C 0.41142 0.81331 0.12238 0.0
C1517 C 0.45598 0.86179 0.1259 0.0
N1518 N 0.41272 0.81696 0.04215 0.0
N1519 N 0.44658 0.86536 0.20511 0.0
H1520 H 0.48932 0.89222 0.09873 0.0
H1521 H 0.48865 0.89189 0.15634 0.0
H1522 H 0.43613 0.85774 0.2342 0.0
H1523 H 0.45891 0.88581 0.20888 0.0
H1524 H 0.39332 0.80316 0.03767 0.0
H1525 H 0.42189 0.82532 0.0126 0.0
H1526 H 0.38653 0.77609 0.09299 0.0
H1527 H 0.38168 0.77948 0.14994 0.0
C1528 C 0.89794 0.33426 0.58684 0.0
C1529 C 0.9226 0.35573 0.58465 0.0
C1530 C 0.92304 0.3588 0.66545 0.0
C1531 C 0.90464 0.33173 0.6671 0.0
N1532 N 0.87186 0.29491 0.63011 0.0
N1533 N 0.95652 0.39159 0.62126 0.0
C1534 C 0.89043 0.32038 0.62811 0.0
C1535 C 0.93389 0.3697 0.62382 0.0
N1536 N 0.88261 0.32658 0.54889 0.0
N1537 N 0.93048 0.37344 0.70402 0.0
H1538 H 0.96407 0.40068 0.5912 0.0
H1539 H 0.96846 0.40004 0.64863 0.0
H1540 H 0.92225 0.36565 0.73448 0.0
H1541 H 0.94205 0.39449 0.70549 0.0
H1542 H 0.86296 0.31277 0.54812 0.0
H1543 H 0.88817 0.33666 0.51854 0.0
H1544 H 0.86383 0.28317 0.60231 0.0
H1545 H 0.86541 0.28467 0.65993 0.0
C1546 C 0.42449 0.17671 0.35199 0.0
C1547 C 0.4413 0.2021 0.33398 0.0
C1548 C 0.48682 0.18435 0.37474 0.0
C1549 C 0.46838 0.16468 0.4008 0.0
N1550 N 0.4183 0.14263 0.41529 0.0
N1551 N 0.48716 0.23429 0.34049 0.0
C1552 C 0.43682 0.16061 0.38944 0.0
C1553 C 0.47232 0.20693 0.34827 0.0
N1554 N 0.39752 0.16727 0.33293 0.0
N1555 N 0.51819 0.18307 0.37833 0.0
H1556 H 0.47611 0.25367 0.32747 0.0
H1557 H 0.50908 0.23915 0.35296 0.0
H1558 H 0.52909 0.16673 0.39845 0.0
H1559 H 0.53285 0.19595 0.35811 0.0
H1560 H 0.38583 0.14742 0.34294 0.0
H1561 H 0.38866 0.17719 0.30418 0.0
H1562 H 0.39439 0.14186 0.41161 0.0
H1563 H 0.42683 0.12974 0.44178 0.0
C1564 C 0.52996 0.63547 0.11447 0.0
C1565 C 0.54393 0.63843 0.07251 0.0
C1566 C 0.58278 0.6738 0.10308 0.0
C1567 C 0.56743 0.67269 0.14461 0.0
N1568 N 0.5332 0.64482 0.19344 0.0
N1569 N 0.58901 0.65083 0.03011 0.0
C1570 C 0.54333 0.65078 0.15148 0.0
C1571 C 0.57242 0.65417 0.06819 0.0
N1572 N 0.50298 0.61936 0.11824 0.0
N1573 N 0.60543 0.69515 0.09565 0.0
H1574 H 0.58152 0.63658 0.00436 0.0
H1575 H 0.61116 0.65967 0.02583 0.0
H1576 H 0.61357 0.71013 0.11997 0.0
H1577 H 0.61479 0.69945 0.06451 0.0
H1578 H 0.48929 0.61946 0.14656 0.0
H1579 H 0.49377 0.60673 0.09191 0.0
H1580 H 0.51762 0.62733 0.20113 0.0
H1581 H 0.54258 0.65564 0.22119 0.0
C1582 C 0.06698 0.84839 0.81127 0.0
C1583 C 0.09078 0.82597 0.81438 0.0
C1584 C 0.09675 0.83815 0.89285 0.0
C1585 C 0.06774 0.8529 0.89174 0.0
N1586 N 0.0272 0.87713 0.85032 0.0
N1587 N 0.13051 0.80102 0.85755 0.0
C1588 C 0.05396 0.8605 0.85079 0.0
C1589 C 0.10712 0.82205 0.85471 0.0
N1590 N 0.05633 0.85695 0.77054 0.0
N1591 N 0.11344 0.8387 0.93112 0.0
H1592 H 0.13849 0.78871 0.83028 0.0
H1593 H 0.14095 0.79467 0.88726 0.0
H1594 H 0.10574 0.85116 0.95858 0.0
H1595 H 0.13572 0.82992 0.93398 0.0
H1596 H 0.04032 0.87451 0.76546 0.0
H1597 H 0.06576 0.84798 0.74148 0.0
H1598 H 0.01382 0.88063 0.82211 0.0
H1599 H 0.01804 0.88682 0.87908 0.0
loop_
_geom_bond_atom_site_label_1
_geom_bond_atom_site_label_2
_geom_bond_distance
_geom_bond_site_symmetry_2
_ccdc_geom_bond_type
Co0 O1 2.216 . S
Co0 O2 2.091 . S
Co0 O4 2.004 . S
Co0 O10 2.021 . S
Co0 O12 2.137 . S
Co0 O13 2.244 . S
O1 Co0 2.216 . S
O1 C8 1.247 . S
O2 Co0 2.091 . S
O2 C8 1.261 . S
C3 O12 1.247 . S
C3 O13 1.272 . S
O4 Co0 2.004 . S
O4 C9 1.259 . S
Co5 O6 2.061 . S
Co5 O11 2.052 . S
Co5 O13 2.135 . S
O6 Co5 2.061 . S
O6 C9 1.235 . S
C7 O10 1.238 . S
C7 O11 1.241 . S
C8 O1 1.247 . S
C8 O2 1.261 . S
C9 O4 1.259 . S
C9 O6 1.235 . S
O10 Co0 2.021 . S
O10 C7 1.238 . S
O11 Co5 2.052 . S
O11 C7 1.241 . S
O12 Co0 2.137 . S
O12 C3 1.247 . S
O13 Co0 2.244 . S
O13 C3 1.272 . S
O13 Co5 2.135 . S
Co14 O15 2.216 . S
Co14 O16 2.091 . S
Co14 O18 2.004 . S
Co14 O24 2.021 . S
Co14 O26 2.137 . S
Co14 O27 2.244 . S
O15 Co14 2.216 . S
O15 C22 1.247 . S
O16 Co14 2.091 . S
O16 C22 1.261 . S
C17 O26 1.247 . S
C17 O27 1.272 . S
O18 Co14 2.004 . S
O18 C23 1.259 . S
Co19 O20 2.061 . S
Co19 O25 2.052 . S
Co19 O27 2.135 . S
O20 Co19 2.061 . S
O20 C23 1.235 . S
C21 O24 1.238 . S
C21 O25 1.241 . S
C22 O15 1.247 . S
C22 O16 1.261 . S
C23 O18 1.259 . S
C23 O20 1.235 . S
O24 Co14 2.021 . S
O24 C21 1.238 . S
O25 Co19 2.052 . S
O25 C21 1.241 . S
O26 Co14 2.137 . S
O26 C17 1.247 . S
O27 Co14 2.244 . S
O27 C17 1.272 . S
O27 Co19 2.135 . S
Co28 O29 2.216 . S
Co28 O30 2.091 . S
Co28 O32 2.004 . S
Co28 O38 2.021 . S
Co28 O40 2.137 . S
Co28 O41 2.244 . S
O29 Co28 2.216 . S
O29 C36 1.247 . S
O30 Co28 2.091 . S
O30 C36 1.261 . S
C31 O40 1.247 . S
C31 O41 1.272 . S
O32 Co28 2.004 . S
O32 C37 1.259 . S
Co33 O34 2.061 . S
Co33 O39 2.052 . S
Co33 O41 2.135 . S
O34 Co33 2.061 . S
O34 C37 1.235 . S
C35 O38 1.238 . S
C35 O39 1.241 . S
C36 O29 1.247 . S
C36 O30 1.261 . S
C37 O32 1.259 . S
C37 O34 1.235 . S
O38 Co28 2.021 . S
O38 C35 1.238 . S
O39 Co33 2.052 . S
O39 C35 1.241 . S
O40 Co28 2.137 . S
O40 C31 1.247 . S
O41 Co28 2.244 . S
O41 C31 1.272 . S
O41 Co33 2.135 . S
Co42 O43 2.216 . S
Co42 O44 2.091 . S
Co42 O46 2.004 . S
Co42 O52 2.021 1_554 S
Co42 O54 2.137 . S
Co42 O55 2.244 . S
O43 Co42 2.216 . S
O43 C50 1.247 . S
O44 Co42 2.091 . S
O44 C50 1.261 . S
C45 O54 1.247 . S
C45 O55 1.272 . S
O46 Co42 2.004 . S
O46 C51 1.259 . S
Co47 O48 2.061 . S
Co47 O53 2.052 1_554 S
Co47 O55 2.135 . S
O48 Co47 2.061 . S
O48 C51 1.235 . S
C49 O52 1.238 . S
C49 O53 1.241 . S
C50 O43 1.247 . S
C50 O44 1.261 . S
C51 O46 1.259 . S
C51 O48 1.235 . S
O52 Co42 2.021 1_556 S
O52 C49 1.238 . S
O53 Co47 2.052 1_556 S
O53 C49 1.241 . S
O54 Co42 2.137 . S
O54 C45 1.247 . S
O55 Co42 2.244 . S
O55 C45 1.272 . S
O55 Co47 2.135 . S
Co56 O57 2.216 . S
Co56 O58 2.091 . S
Co56 O60 2.004 . S
Co56 O66 2.021 . S
Co56 O68 2.137 . S
Co56 O69 2.244 . S
O57 Co56 2.216 . S
O57 C64 1.247 . S
O58 Co56 2.091 . S
O58 C64 1.261 . S
C59 O68 1.247 . S
C59 O69 1.272 . S
O60 Co56 2.004 . S
O60 C65 1.259 . S
Co61 O62 2.061 . S
Co61 O67 2.052 . S
Co61 O69 2.135 . S
O62 Co61 2.061 . S
O62 C65 1.235 . S
C63 O66 1.238 . S
C63 O67 1.241 . S
C64 O57 1.247 . S
C64 O58 1.261 . S
C65 O60 1.259 . S
C65 O62 1.235 . S
O66 Co56 2.021 . S
O66 C63 1.238 . S
O67 Co61 2.052 . S
O67 C63 1.241 . S
O68 Co56 2.137 . S
O68 C59 1.247 . S
O69 Co56 2.244 . S
O69 C59 1.272 . S
O69 Co61 2.135 . S
Co70 O71 2.216 . S
Co70 O72 2.091 . S
Co70 O74 2.004 . S
Co70 O80 2.021 . S
Co70 O82 2.137 . S
Co70 O83 2.244 . S
O71 Co70 2.216 . S
O71 C78 1.247 . S
O72 Co70 2.091 . S
O72 C78 1.261 . S
C73 O82 1.247 . S
C73 O83 1.272 . S
O74 Co70 2.004 . S
O74 C79 1.259 . S
Co75 O76 2.061 . S
Co75 O81 2.052 . S
Co75 O83 2.135 . S
O76 Co75 2.061 . S
O76 C79 1.235 . S
C77 O80 1.238 . S
C77 O81 1.241 . S
C78 O71 1.247 . S
C78 O72 1.261 . S
C79 O74 1.259 . S
C79 O76 1.235 . S
O80 Co70 2.021 . S
O80 C77 1.238 . S
O81 Co75 2.052 . S
O81 C77 1.241 . S
O82 Co70 2.137 . S
O82 C73 1.247 . S
O83 Co70 2.244 . S
O83 C73 1.272 . S
O83 Co75 2.135 . S
Co84 O85 2.216 . S
Co84 O86 2.091 . S
Co84 O88 2.004 . S
Co84 O94 2.021 . S
Co84 O96 2.137 . S
Co84 O97 2.244 . S
O85 Co84 2.216 . S
O85 C92 1.247 . S
O86 Co84 2.091 . S
O86 C92 1.261 . S
C87 O96 1.247 . S
C87 O97 1.272 . S
O88 Co84 2.004 . S
O88 C93 1.259 . S
Co89 O90 2.061 . S
Co89 O95 2.052 . S
Co89 O97 2.135 . S
O90 Co89 2.061 . S
O90 C93 1.235 . S
C91 O94 1.238 . S
C91 O95 1.241 . S
C92 O85 1.247 . S
C92 O86 1.261 . S
C93 O88 1.259 . S
C93 O90 1.235 . S
O94 Co84 2.021 . S
O94 C91 1.238 . S
O95 Co89 2.052 . S
O95 C91 1.241 . S
O96 Co84 2.137 . S
O96 C87 1.247 . S
O97 Co84 2.244 . S
O97 C87 1.272 . S
O97 Co89 2.135 . S
Co98 O99 2.216 . S
Co98 O100 2.091 . S
Co98 O102 2.004 . S
Co98 O108 2.021 1_556 S
Co98 O110 2.137 . S
Co98 O111 2.244 . S
O99 Co98 2.216 . S
O99 C106 1.247 . S
O100 Co98 2.091 . S
O100 C106 1.261 . S
C101 O110 1.247 . S
C101 O111 1.272 . S
O102 Co98 2.004 . S
O102 C107 1.259 . S
Co103 O104 2.061 . S
Co103 O109 2.052 1_556 S
Co103 O111 2.135 . S
O104 Co103 2.061 . S
O104 C107 1.235 . S
C105 O108 1.238 . S
C105 O109 1.241 . S
C106 O99 1.247 . S
C106 O100 1.261 . S
C107 O102 1.259 . S
C107 O104 1.235 . S
O108 Co98 2.021 1_554 S
O108 C105 1.238 . S
O109 Co103 2.052 1_554 S
O109 C105 1.241 . S
O110 Co98 2.137 . S
O110 C101 1.247 . S
O111 Co98 2.244 . S
O111 C101 1.272 . S
O111 Co103 2.135 . S
Co112 O113 2.216 . S
Co112 O114 2.091 . S
Co112 O116 2.004 . S
Co112 O122 2.021 . S
Co112 O124 2.137 . S
Co112 O125 2.244 . S
O113 Co112 2.216 . S
O113 C120 1.247 . S
O114 Co112 2.091 . S
O114 C120 1.261 . S
C115 O124 1.247 . S
C115 O125 1.272 . S
O116 Co112 2.004 . S
O116 C121 1.259 . S
Co117 O118 2.061 . S
Co117 O123 2.052 . S
Co117 O125 2.135 . S
O118 Co117 2.061 . S
O118 C121 1.235 . S
C119 O122 1.238 . S
C119 O123 1.241 . S
C120 O113 1.247 . S
C120 O114 1.261 . S
C121 O116 1.259 . S
C121 O118 1.235 . S
O122 Co112 2.021 . S
O122 C119 1.238 . S
O123 Co117 2.052 . S
O123 C119 1.241 . S
O124 Co112 2.137 . S
O124 C115 1.247 . S
O125 Co112 2.244 . S
O125 C115 1.272 . S
O125 Co117 2.135 . S
Co126 O127 2.216 . S
Co126 O128 2.091 . S
Co126 O130 2.004 . S
Co126 O136 2.021 . S
Co126 O138 2.137 . S
Co126 O139 2.244 . S
O127 Co126 2.216 . S
O127 C134 1.247 . S
O128 Co126 2.091 . S
O128 C134 1.261 . S
C129 O138 1.247 . S
C129 O139 1.272 . S
O130 Co126 2.004 . S
O130 C135 1.259 . S
Co131 O132 2.061 . S
Co131 O137 2.052 . S
Co131 O139 2.135 . S
O132 Co131 2.061 . S
O132 C135 1.235 . S
C133 O136 1.238 . S
C133 O137 1.241 . S
C134 O127 1.247 . S
C134 O128 1.261 . S
C135 O130 1.259 . S
C135 O132 1.235 . S
O136 Co126 2.021 . S
O136 C133 1.238 . S
O137 Co131 2.052 . S
O137 C133 1.241 . S
O138 Co126 2.137 . S
O138 C129 1.247 . S
O139 Co126 2.244 . S
O139 C129 1.272 . S
O139 Co131 2.135 . S
Co140 O141 2.216 . S
Co140 O142 2.091 . S
Co140 O144 2.004 . S
Co140 O150 2.021 . S
Co140 O152 2.137 . S
Co140 O153 2.244 . S
O141 Co140 2.216 . S
O141 C148 1.247 . S
O142 Co140 2.091 . S
O142 C148 1.261 . S
C143 O152 1.247 . S
C143 O153 1.272 . S
O144 Co140 2.004 . S
O144 C149 1.259 . S
Co145 O146 2.061 . S
Co145 O151 2.052 . S
Co145 O153 2.135 . S
O146 Co145 2.061 . S
O146 C149 1.235 . S
C147 O150 1.238 . S
C147 O151 1.241 . S
C148 O141 1.247 . S
C148 O142 1.261 . S
C149 O144 1.259 . S
C149 O146 1.235 . S
O150 Co140 2.021 . S
O150 C147 1.238 . S
O151 Co145 2.052 . S
O151 C147 1.241 . S
O152 Co140 2.137 . S
O152 C143 1.247 . S
O153 Co140 2.244 . S
O153 C143 1.272 . S
O153 Co145 2.135 . S
Co154 O155 2.216 . S
Co154 O156 2.091 . S
Co154 O158 2.004 . S
Co154 O164 2.021 1_556 S
Co154 O166 2.137 . S
Co154 O167 2.244 . S
O155 Co154 2.216 . S
O155 C162 1.247 . S
O156 Co154 2.091 . S
O156 C162 1.261 . S
C157 O166 1.247 . S
C157 O167 1.272 . S
O158 Co154 2.004 . S
O158 C163 1.259 . S
Co159 O160 2.061 . S
Co159 O165 2.052 1_556 S
Co159 O167 2.135 . S
O160 Co159 2.061 . S
O160 C163 1.235 . S
C161 O164 1.238 . S
C161 O165 1.241 . S
C162 O155 1.247 . S
C162 O156 1.261 . S
C163 O158 1.259 . S
C163 O160 1.235 . S
O164 Co154 2.021 1_554 S
O164 C161 1.238 . S
O165 Co159 2.052 1_554 S
O165 C161 1.241 . S
O166 Co154 2.137 . S
O166 C157 1.247 . S
O167 Co154 2.244 . S
O167 C157 1.272 . S
O167 Co159 2.135 . S
Co168 O169 2.216 . S
Co168 O170 2.091 . S
Co168 O172 2.004 . S
Co168 O178 2.021 . S
Co168 O180 2.137 . S
Co168 O181 2.244 . S
O169 Co168 2.216 . S
O169 C176 1.247 . S
O170 Co168 2.091 . S
O170 C176 1.261 . S
C171 O180 1.247 . S
C171 O181 1.272 . S
O172 Co168 2.004 . S
O172 C177 1.259 . S
Co173 O174 2.061 . S
Co173 O179 2.052 . S
Co173 O181 2.135 . S
O174 Co173 2.061 . S
O174 C177 1.235 . S
C175 O178 1.238 . S
C175 O179 1.241 . S
C176 O169 1.247 . S
C176 O170 1.261 . S
C177 O172 1.259 . S
C177 O174 1.235 . S
O178 Co168 2.021 . S
O178 C175 1.238 . S
O179 Co173 2.052 . S
O179 C175 1.241 . S
O180 Co168 2.137 . S
O180 C171 1.247 . S
O181 Co168 2.244 . S
O181 C171 1.272 . S
O181 Co173 2.135 . S
Co182 O183 2.216 . S
Co182 O184 2.091 . S
Co182 O186 2.004 . S
Co182 O192 2.021 . S
Co182 O194 2.137 . S
Co182 O195 2.244 . S
O183 Co182 2.216 . S
O183 C190 1.247 . S
O184 Co182 2.091 . S
O184 C190 1.261 . S
C185 O194 1.247 . S
C185 O195 1.272 . S
O186 Co182 2.004 . S
O186 C191 1.259 . S
Co187 O188 2.061 . S
Co187 O193 2.052 . S
Co187 O195 2.135 . S
O188 Co187 2.061 . S
O188 C191 1.235 . S
C189 O192 1.238 . S
C189 O193 1.241 . S
C190 O183 1.247 . S
C190 O184 1.261 . S
C191 O186 1.259 . S
C191 O188 1.235 . S
O192 Co182 2.021 . S
O192 C189 1.238 . S
O193 Co187 2.052 . S
O193 C189 1.241 . S
O194 Co182 2.137 . S
O194 C185 1.247 . S
O195 Co182 2.244 . S
O195 C185 1.272 . S
O195 Co187 2.135 . S
Co196 O197 2.216 . S
Co196 O198 2.091 . S
Co196 O200 2.004 . S
Co196 O206 2.021 . S
Co196 O208 2.137 . S
Co196 O209 2.244 . S
O197 Co196 2.216 . S
O197 C204 1.247 . S
O198 Co196 2.091 . S
O198 C204 1.261 . S
C199 O208 1.247 . S
C199 O209 1.272 . S
O200 Co196 2.004 . S
O200 C205 1.259 . S
Co201 O202 2.061 . S
Co201 O207 2.052 . S
Co201 O209 2.135 . S
O202 Co201 2.061 . S
O202 C205 1.235 . S
C203 O206 1.238 . S
C203 O207 1.241 . S
C204 O197 1.247 . S
C204 O198 1.261 . S
C205 O200 1.259 . S
C205 O202 1.235 . S
O206 Co196 2.021 . S
O206 C203 1.238 . S
O207 Co201 2.052 . S
O207 C203 1.241 . S
O208 Co196 2.137 . S
O208 C199 1.247 . S
O209 Co196 2.244 . S
O209 C199 1.272 . S
O209 Co201 2.135 . S
Co210 O211 2.216 . S
Co210 O212 2.091 . S
Co210 O214 2.004 . S
Co210 O220 2.021 1_554 S
Co210 O222 2.137 . S
Co210 O223 2.244 . S
O211 Co210 2.216 . S
O211 C218 1.247 . S
O212 Co210 2.091 . S
O212 C218 1.261 . S
C213 O222 1.247 . S
C213 O223 1.272 . S
O214 Co210 2.004 . S
O214 C219 1.259 . S
Co215 O216 2.061 . S
Co215 O221 2.052 1_554 S
Co215 O223 2.135 . S
O216 Co215 2.061 . S
O216 C219 1.235 . S
C217 O220 1.238 . S
C217 O221 1.241 . S
C218 O211 1.247 . S
C218 O212 1.261 . S
C219 O214 1.259 . S
C219 O216 1.235 . S
O220 Co210 2.021 1_556 S
O220 C217 1.238 . S
O221 Co215 2.052 1_556 S
O221 C217 1.241 . S
O222 Co210 2.137 . S
O222 C213 1.247 . S
O223 Co210 2.244 . S
O223 C213 1.272 . S
O223 Co215 2.135 . S
Co224 O225 2.216 . S
Co224 O226 2.091 . S
Co224 O228 2.004 . S
Co224 O234 2.021 . S
Co224 O236 2.137 . S
Co224 O237 2.244 . S
O225 Co224 2.216 . S
O225 C232 1.247 . S
O226 Co224 2.091 . S
O226 C232 1.261 . S
C227 O236 1.247 . S
C227 O237 1.272 . S
O228 Co224 2.004 . S
O228 C233 1.259 . S
Co229 O230 2.061 . S
Co229 O235 2.052 . S
Co229 O237 2.135 . S
O230 Co229 2.061 . S
O230 C233 1.235 . S
C231 O234 1.238 . S
C231 O235 1.241 . S
C232 O225 1.247 . S
C232 O226 1.261 . S
C233 O228 1.259 . S
C233 O230 1.235 . S
O234 Co224 2.021 . S
O234 C231 1.238 . S
O235 Co229 2.052 . S
O235 C231 1.241 . S
O236 Co224 2.137 . S
O236 C227 1.247 . S
O237 Co224 2.244 . S
O237 C227 1.272 . S
O237 Co229 2.135 . S
Co238 O239 2.216 . S
Co238 O240 2.091 . S
Co238 O242 2.004 . S
Co238 O248 2.021 1_554 S
Co238 O250 2.137 . S
Co238 O251 2.244 . S
O239 Co238 2.216 . S
O239 C246 1.247 . S
O240 Co238 2.091 . S
O240 C246 1.261 . S
C241 O250 1.247 . S
C241 O251 1.272 . S
O242 Co238 2.004 . S
O242 C247 1.259 . S
Co243 O244 2.061 . S
Co243 O249 2.052 1_554 S
Co243 O251 2.135 . S
O244 Co243 2.061 . S
O244 C247 1.235 . S
C245 O248 1.238 . S
C245 O249 1.241 . S
C246 O239 1.247 . S
C246 O240 1.261 . S
C247 O242 1.259 . S
C247 O244 1.235 . S
O248 Co238 2.021 1_556 S
O248 C245 1.238 . S
O249 Co243 2.052 1_556 S
O249 C245 1.241 . S
O250 Co238 2.137 . S
O250 C241 1.247 . S
O251 Co238 2.244 . S
O251 C241 1.272 . S
O251 Co243 2.135 . S
Co252 O253 2.216 . S
Co252 O254 2.091 . S
Co252 O256 2.004 . S
Co252 O262 2.021 . S
Co252 O264 2.137 . S
Co252 O265 2.244 . S
O253 Co252 2.216 . S
O253 C260 1.247 . S
O254 Co252 2.091 . S
O254 C260 1.261 . S
C255 O264 1.247 . S
C255 O265 1.272 . S
O256 Co252 2.004 . S
O256 C261 1.259 . S
Co257 O258 2.061 . S
Co257 O263 2.052 . S
Co257 O265 2.135 . S
O258 Co257 2.061 . S
O258 C261 1.235 . S
C259 O262 1.238 . S
C259 O263 1.241 . S
C260 O253 1.247 . S
C260 O254 1.261 . S
C261 O256 1.259 . S
C261 O258 1.235 . S
O262 Co252 2.021 . S
O262 C259 1.238 . S
O263 Co257 2.052 . S
O263 C259 1.241 . S
O264 Co252 2.137 . S
O264 C255 1.247 . S
O265 Co252 2.244 . S
O265 C255 1.272 . S
O265 Co257 2.135 . S
Co266 O267 2.216 . S
Co266 O268 2.091 . S
Co266 O270 2.004 . S
Co266 O276 2.021 . S
Co266 O278 2.137 . S
Co266 O279 2.244 . S
O267 Co266 2.216 . S
O267 C274 1.247 . S
O268 Co266 2.091 . S
O268 C274 1.261 . S
C269 O278 1.247 . S
C269 O279 1.272 . S
O270 Co266 2.004 . S
O270 C275 1.259 . S
Co271 O272 2.061 . S
Co271 O277 2.052 . S
Co271 O279 2.135 . S
O272 Co271 2.061 . S
O272 C275 1.235 . S
C273 O276 1.238 . S
C273 O277 1.241 . S
C274 O267 1.247 . S
C274 O268 1.261 . S
C275 O270 1.259 . S
C275 O272 1.235 . S
O276 Co266 2.021 . S
O276 C273 1.238 . S
O277 Co271 2.052 . S
O277 C273 1.241 . S
O278 Co266 2.137 . S
O278 C269 1.247 . S
O279 Co266 2.244 . S
O279 C269 1.272 . S
O279 Co271 2.135 . S
Co280 O281 2.216 . S
Co280 O282 2.091 . S
Co280 O284 2.004 . S
Co280 O290 2.021 . S
Co280 O292 2.137 . S
Co280 O293 2.244 . S
O281 Co280 2.216 . S
O281 C288 1.247 . S
O282 Co280 2.091 . S
O282 C288 1.261 . S
C283 O292 1.247 . S
C283 O293 1.272 . S
O284 Co280 2.004 . S
O284 C289 1.259 . S
Co285 O286 2.061 . S
Co285 O291 2.052 . S
Co285 O293 2.135 . S
O286 Co285 2.061 . S
O286 C289 1.235 . S
C287 O290 1.238 . S
C287 O291 1.241 . S
C288 O281 1.247 . S
C288 O282 1.261 . S
C289 O284 1.259 . S
C289 O286 1.235 . S
O290 Co280 2.021 . S
O290 C287 1.238 . S
O291 Co285 2.052 . S
O291 C287 1.241 . S
O292 Co280 2.137 . S
O292 C283 1.247 . S
O293 Co280 2.244 . S
O293 C283 1.272 . S
O293 Co285 2.135 . S
Co294 O295 2.216 . S
Co294 O296 2.091 . S
Co294 O298 2.004 . S
Co294 O304 2.021 1_556 S
Co294 O306 2.137 . S
Co294 O307 2.244 . S
O295 Co294 2.216 . S
O295 C302 1.247 . S
O296 Co294 2.091 . S
O296 C302 1.261 . S
C297 O306 1.247 . S
C297 O307 1.272 . S
O298 Co294 2.004 . S
O298 C303 1.259 . S
Co299 O300 2.061 . S
Co299 O305 2.052 1_556 S
Co299 O307 2.135 . S
O300 Co299 2.061 . S
O300 C303 1.235 . S
C301 O304 1.238 . S
C301 O305 1.241 . S
C302 O295 1.247 . S
C302 O296 1.261 . S
C303 O298 1.259 . S
C303 O300 1.235 . S
O304 Co294 2.021 1_554 S
O304 C301 1.238 . S
O305 Co299 2.052 1_554 S
O305 C301 1.241 . S
O306 Co294 2.137 . S
O306 C297 1.247 . S
O307 Co294 2.244 . S
O307 C297 1.272 . S
O307 Co299 2.135 . S
Co308 O309 2.216 . S
Co308 O310 2.091 . S
Co308 O312 2.004 . S
Co308 O318 2.021 . S
Co308 O320 2.137 . S
Co308 O321 2.244 . S
O309 Co308 2.216 . S
O309 C316 1.247 . S
O310 Co308 2.091 . S
O310 C316 1.261 . S
C311 O320 1.247 . S
C311 O321 1.272 . S
O312 Co308 2.004 . S
O312 C317 1.259 . S
Co313 O314 2.061 . S
Co313 O319 2.052 . S
Co313 O321 2.135 . S
O314 Co313 2.061 . S
O314 C317 1.235 . S
C315 O318 1.238 . S
C315 O319 1.241 . S
C316 O309 1.247 . S
C316 O310 1.261 . S
C317 O312 1.259 . S
C317 O314 1.235 . S
O318 Co308 2.021 . S
O318 C315 1.238 . S
O319 Co313 2.052 . S
O319 C315 1.241 . S
O320 Co308 2.137 . S
O320 C311 1.247 . S
O321 Co308 2.244 . S
O321 C311 1.272 . S
O321 Co313 2.135 . S
Co322 O323 2.216 . S
Co322 O324 2.091 . S
Co322 O326 2.004 . S
Co322 O332 2.021 . S
Co322 O334 2.137 . S
Co322 O335 2.244 . S
O323 Co322 2.216 . S
O323 C330 1.247 . S
O324 Co322 2.091 . S
O324 C330 1.261 . S
C325 O334 1.247 . S
C325 O335 1.272 . S
O326 Co322 2.004 . S
O326 C331 1.259 . S
Co327 O328 2.061 . S
Co327 O333 2.052 . S
Co327 O335 2.135 . S
O328 Co327 2.061 . S
O328 C331 1.235 . S
C329 O332 1.238 . S
C329 O333 1.241 . S
C330 O323 1.247 . S
C330 O324 1.261 . S
C331 O326 1.259 . S
C331 O328 1.235 . S
O332 Co322 2.021 . S
O332 C329 1.238 . S
O333 Co327 2.052 . S
O333 C329 1.241 . S
O334 Co322 2.137 . S
O334 C325 1.247 . S
O335 Co322 2.244 . S
O335 C325 1.272 . S
O335 Co327 2.135 . S
Co336 O337 2.216 . S
Co336 O338 2.091 . S
Co336 O340 2.004 . S
Co336 O346 2.021 . S
Co336 O348 2.137 . S
Co336 O349 2.244 . S
O337 Co336 2.216 . S
O337 C344 1.247 . S
O338 Co336 2.091 . S
O338 C344 1.261 . S
C339 O348 1.247 . S
C339 O349 1.272 . S
O340 Co336 2.004 . S
O340 C345 1.259 . S
Co341 O342 2.061 . S
Co341 O347 2.052 . S
Co341 O349 2.135 . S
O342 Co341 2.061 . S
O342 C345 1.235 . S
C343 O346 1.238 . S
C343 O347 1.241 . S
C344 O337 1.247 . S
C344 O338 1.261 . S
C345 O340 1.259 . S
C345 O342 1.235 . S
O346 Co336 2.021 . S
O346 C343 1.238 . S
O347 Co341 2.052 . S
O347 C343 1.241 . S
O348 Co336 2.137 . S
O348 C339 1.247 . S
O349 Co336 2.244 . S
O349 C339 1.272 . S
O349 Co341 2.135 . S
Co350 O351 2.216 . S
Co350 O352 2.091 . S
Co350 O354 2.004 . S
Co350 O360 2.021 1_556 S
Co350 O362 2.137 . S
Co350 O363 2.244 . S
O351 Co350 2.216 . S
O351 C358 1.247 . S
O352 Co350 2.091 . S
O352 C358 1.261 . S
C353 O362 1.247 . S
C353 O363 1.272 . S
O354 Co350 2.004 . S
O354 C359 1.259 . S
Co355 O356 2.061 . S
Co355 O361 2.052 1_556 S
Co355 O363 2.135 . S
O356 Co355 2.061 . S
O356 C359 1.235 . S
C357 O360 1.238 . S
C357 O361 1.241 . S
C358 O351 1.247 . S
C358 O352 1.261 . S
C359 O354 1.259 . S
C359 O356 1.235 . S
O360 Co350 2.021 1_554 S
O360 C357 1.238 . S
O361 Co355 2.052 1_554 S
O361 C357 1.241 . S
O362 Co350 2.137 . S
O362 C353 1.247 . S
O363 Co350 2.244 . S
O363 C353 1.272 . S
O363 Co355 2.135 . S
Co364 O365 2.216 . S
Co364 O366 2.091 . S
Co364 O368 2.004 . S
Co364 O374 2.021 . S
Co364 O376 2.137 . S
Co364 O377 2.244 . S
O365 Co364 2.216 . S
O365 C372 1.247 . S
O366 Co364 2.091 . S
O366 C372 1.261 . S
C367 O376 1.247 . S
C367 O377 1.272 . S
O368 Co364 2.004 . S
O368 C373 1.259 . S
Co369 O370 2.061 . S
Co369 O375 2.052 . S
Co369 O377 2.135 . S
O370 Co369 2.061 . S
O370 C373 1.235 . S
C371 O374 1.238 . S
C371 O375 1.241 . S
C372 O365 1.247 . S
C372 O366 1.261 . S
C373 O368 1.259 . S
C373 O370 1.235 . S
O374 Co364 2.021 . S
O374 C371 1.238 . S
O375 Co369 2.052 . S
O375 C371 1.241 . S
O376 Co364 2.137 . S
O376 C367 1.247 . S
O377 Co364 2.244 . S
O377 C367 1.272 . S
O377 Co369 2.135 . S
Co378 O379 2.216 . S
Co378 O380 2.091 . S
Co378 O382 2.004 . S
Co378 O388 2.021 . S
Co378 O390 2.137 . S
Co378 O391 2.244 . S
O379 Co378 2.216 . S
O379 C386 1.247 . S
O380 Co378 2.091 . S
O380 C386 1.261 . S
C381 O390 1.247 . S
C381 O391 1.272 . S
O382 Co378 2.004 . S
O382 C387 1.259 . S
Co383 O384 2.061 . S
Co383 O389 2.052 . S
Co383 O391 2.135 . S
O384 Co383 2.061 . S
O384 C387 1.235 . S
C385 O388 1.238 . S
C385 O389 1.241 . S
C386 O379 1.247 . S
C386 O380 1.261 . S
C387 O382 1.259 . S
C387 O384 1.235 . S
O388 Co378 2.021 . S
O388 C385 1.238 . S
O389 Co383 2.052 . S
O389 C385 1.241 . S
O390 Co378 2.137 . S
O390 C381 1.247 . S
O391 Co378 2.244 . S
O391 C381 1.272 . S
O391 Co383 2.135 . S
Co392 O393 2.216 . S
Co392 O394 2.091 . S
Co392 O396 2.004 . S
Co392 O402 2.021 . S
Co392 O404 2.137 . S
Co392 O405 2.244 . S
O393 Co392 2.216 . S
O393 C400 1.247 . S
O394 Co392 2.091 . S
O394 C400 1.261 . S
C395 O404 1.247 . S
C395 O405 1.272 . S
O396 Co392 2.004 . S
O396 C401 1.259 . S
Co397 O398 2.061 . S
Co397 O403 2.052 . S
Co397 O405 2.135 . S
O398 Co397 2.061 . S
O398 C401 1.235 . S
C399 O402 1.238 . S
C399 O403 1.241 . S
C400 O393 1.247 . S
C400 O394 1.261 . S
C401 O396 1.259 . S
C401 O398 1.235 . S
O402 Co392 2.021 . S
O402 C399 1.238 . S
O403 Co397 2.052 . S
O403 C399 1.241 . S
O404 Co392 2.137 . S
O404 C395 1.247 . S
O405 Co392 2.244 . S
O405 C395 1.272 . S
O405 Co397 2.135 . S
Co406 O407 2.216 . S
Co406 O408 2.091 . S
Co406 O410 2.004 . S
Co406 O416 2.021 1_554 S
Co406 O418 2.137 . S
Co406 O419 2.244 . S
O407 Co406 2.216 . S
O407 C414 1.247 . S
O408 Co406 2.091 . S
O408 C414 1.261 . S
C409 O418 1.247 . S
C409 O419 1.272 . S
O410 Co406 2.004 . S
O410 C415 1.259 . S
Co411 O412 2.061 . S
Co411 O417 2.052 1_554 S
Co411 O419 2.135 . S
O412 Co411 2.061 . S
O412 C415 1.235 . S
C413 O416 1.238 . S
C413 O417 1.241 . S
C414 O407 1.247 . S
C414 O408 1.261 . S
C415 O410 1.259 . S
C415 O412 1.235 . S
O416 Co406 2.021 1_556 S
O416 C413 1.238 . S
O417 Co411 2.052 1_556 S
O417 C413 1.241 . S
O418 Co406 2.137 . S
O418 C409 1.247 . S
O419 Co406 2.244 . S
O419 C409 1.272 . S
O419 Co411 2.135 . S
Co420 O421 2.216 . S
Co420 O422 2.091 . S
Co420 O424 2.004 . S
Co420 O430 2.021 . S
Co420 O432 2.137 . S
Co420 O433 2.244 . S
O421 Co420 2.216 . S
O421 C428 1.247 . S
O422 Co420 2.091 . S
O422 C428 1.261 . S
C423 O432 1.247 . S
C423 O433 1.272 . S
O424 Co420 2.004 . S
O424 C429 1.259 . S
Co425 O426 2.061 . S
Co425 O431 2.052 . S
Co425 O433 2.135 . S
O426 Co425 2.061 . S
O426 C429 1.235 . S
C427 O430 1.238 . S
C427 O431 1.241 . S
C428 O421 1.247 . S
C428 O422 1.261 . S
C429 O424 1.259 . S
C429 O426 1.235 . S
O430 Co420 2.021 . S
O430 C427 1.238 . S
O431 Co425 2.052 . S
O431 C427 1.241 . S
O432 Co420 2.137 . S
O432 C423 1.247 . S
O433 Co420 2.244 . S
O433 C423 1.272 . S
O433 Co425 2.135 . S
Co434 O435 2.216 . S
Co434 O436 2.091 . S
Co434 O438 2.004 . S
Co434 O444 2.021 . S
Co434 O446 2.137 . S
Co434 O447 2.244 . S
O435 Co434 2.216 . S
O435 C442 1.247 . S
O436 Co434 2.091 . S
O436 C442 1.261 . S
C437 O446 1.247 . S
C437 O447 1.272 . S
O438 Co434 2.004 . S
O438 C443 1.259 . S
Co439 O440 2.061 . S
Co439 O445 2.052 . S
Co439 O447 2.135 . S
O440 Co439 2.061 . S
O440 C443 1.235 . S
C441 O444 1.238 . S
C441 O445 1.241 . S
C442 O435 1.247 . S
C442 O436 1.261 . S
C443 O438 1.259 . S
C443 O440 1.235 . S
O444 Co434 2.021 . S
O444 C441 1.238 . S
O445 Co439 2.052 . S
O445 C441 1.241 . S
O446 Co434 2.137 . S
O446 C437 1.247 . S
O447 Co434 2.244 . S
O447 C437 1.272 . S
O447 Co439 2.135 . S
C448 C449 1.363 . S
C448 C454 1.379 . S
C448 N456 1.356 . S
C449 C448 1.363 . S
C449 C455 1.363 . S
C450 C451 1.363 . S
C450 C455 1.379 . S
C450 N457 1.356 . S
C451 C450 1.363 . S
C451 C454 1.363 . S
N452 C454 1.356 . S
N452 H464 0.984 . S
N452 H465 0.985 . S
N453 C455 1.356 . S
N453 H458 0.984 . S
N453 H459 0.985 . S
C454 C448 1.379 . S
C454 C451 1.363 . S
C454 N452 1.356 . S
C455 C449 1.363 . S
C455 C450 1.379 . S
C455 N453 1.356 . S
N456 C448 1.356 . S
N456 H462 0.984 . S
N456 H463 0.984 . S
N457 C450 1.356 . S
N457 H460 0.984 . S
N457 H461 0.985 . S
H458 N453 0.984 . S
H459 N453 0.985 . S
H460 N457 0.984 . S
H461 N457 0.985 . S
H462 N456 0.984 . S
H463 N456 0.984 . S
H464 N452 0.984 . S
H465 N452 0.985 . S
C466 C467 1.363 . S
C466 C472 1.379 . S
C466 N474 1.356 . S
C467 C466 1.363 . S
C467 C473 1.363 . S
C468 C469 1.363 . S
C468 C473 1.379 . S
C468 N475 1.356 . S
C469 C468 1.363 . S
C469 C472 1.363 . S
N470 C472 1.356 . S
N470 H482 0.984 . S
N470 H483 0.985 . S
N471 C473 1.356 . S
N471 H476 0.984 . S
N471 H477 0.985 . S
C472 C466 1.379 . S
C472 C469 1.363 . S
C472 N470 1.356 . S
C473 C467 1.363 . S
C473 C468 1.379 . S
C473 N471 1.356 . S
N474 C466 1.356 . S
N474 H480 0.984 . S
N474 H481 0.984 1_455 S
N475 C468 1.356 . S
N475 H478 0.984 . S
N475 H479 0.985 . S
H476 N471 0.984 . S
H477 N471 0.985 . S
H478 N475 0.984 . S
H479 N475 0.985 . S
H480 N474 0.984 . S
H481 N474 0.984 1_655 S
H482 N470 0.984 . S
H483 N470 0.985 . S
C484 C485 1.363 . S
C484 C490 1.379 . S
C484 N492 1.356 . S
C485 C484 1.363 . S
C485 C491 1.363 . S
C486 C487 1.363 . S
C486 C491 1.379 . S
C486 N493 1.356 . S
C487 C486 1.363 . S
C487 C490 1.363 . S
N488 C490 1.356 . S
N488 H500 0.984 . S
N488 H501 0.985 . S
N489 C491 1.356 . S
N489 H494 0.984 . S
N489 H495 0.985 . S
C490 C484 1.379 . S
C490 C487 1.363 . S
C490 N488 1.356 . S
C491 C485 1.363 . S
C491 C486 1.379 . S
C491 N489 1.356 . S
N492 C484 1.356 . S
N492 H498 0.984 . S
N492 H499 0.984 . S
N493 C486 1.356 . S
N493 H496 0.984 . S
N493 H497 0.985 . S
H494 N489 0.984 . S
H495 N489 0.985 . S
H496 N493 0.984 . S
H497 N493 0.985 . S
H498 N492 0.984 . S
H499 N492 0.984 . S
H500 N488 0.984 . S
H501 N488 0.985 . S
C502 C503 1.363 . S
C502 C508 1.379 . S
C502 N510 1.356 . S
C503 C502 1.363 . S
C503 C509 1.363 . S
C504 C505 1.363 . S
C504 C509 1.379 . S
C504 N511 1.356 . S
C505 C504 1.363 . S
C505 C508 1.363 . S
N506 C508 1.356 . S
N506 H518 0.984 . S
N506 H519 0.985 . S
N507 C509 1.356 . S
N507 H512 0.984 . S
N507 H513 0.985 . S
C508 C502 1.379 . S
C508 C505 1.363 . S
C508 N506 1.356 . S
C509 C503 1.363 . S
C509 C504 1.379 . S
C509 N507 1.356 . S
N510 C502 1.356 . S
N510 H516 0.984 . S
N510 H517 0.984 . S
N511 C504 1.356 . S
N511 H514 0.984 . S
N511 H515 0.985 . S
H512 N507 0.984 . S
H513 N507 0.985 . S
H514 N511 0.984 . S
H515 N511 0.985 . S
H516 N510 0.984 . S
H517 N510 0.984 . S
H518 N506 0.984 . S
H519 N506 0.985 . S
C520 C521 1.363 . S
C520 C526 1.379 . S
C520 N528 1.356 . S
C521 C520 1.363 . S
C521 C527 1.363 . S
C522 C523 1.363 . S
C522 C527 1.379 . S
C522 N529 1.356 . S
C523 C522 1.363 . S
C523 C526 1.363 . S
N524 C526 1.356 . S
N524 H536 0.984 . S
N524 H537 0.985 . S
N525 C527 1.356 . S
N525 H530 0.984 . S
N525 H531 0.985 . S
C526 C520 1.379 . S
C526 C523 1.363 . S
C526 N524 1.356 . S
C527 C521 1.363 . S
C527 C522 1.379 . S
C527 N525 1.356 . S
N528 C520 1.356 . S
N528 H534 0.984 . S
N528 H535 0.984 . S
N529 C522 1.356 . S
N529 H532 0.984 . S
N529 H533 0.985 . S
H530 N525 0.984 . S
H531 N525 0.985 . S
H532 N529 0.984 . S
H533 N529 0.985 . S
H534 N528 0.984 . S
H535 N528 0.984 . S
H536 N524 0.984 . S
H537 N524 0.985 . S
C538 C539 1.363 . S
C538 C544 1.379 . S
C538 N546 1.356 . S
C539 C538 1.363 . S
C539 C545 1.363 . S
C540 C541 1.363 . S
C540 C545 1.379 . S
C540 N547 1.356 . S
C541 C540 1.363 . S
C541 C544 1.363 . S
N542 C544 1.356 . S
N542 H554 0.984 . S
N542 H555 0.985 . S
N543 C545 1.356 . S
N543 H548 0.984 . S
N543 H549 0.985 . S
C544 C538 1.379 . S
C544 C541 1.363 . S
C544 N542 1.356 . S
C545 C539 1.363 . S
C545 C540 1.379 . S
C545 N543 1.356 . S
N546 C538 1.356 . S
N546 H552 0.984 . S
N546 H553 0.984 . S
N547 C540 1.356 . S
N547 H550 0.984 . S
N547 H551 0.985 . S
H548 N543 0.984 . S
H549 N543 0.985 . S
H550 N547 0.984 . S
H551 N547 0.985 . S
H552 N546 0.984 . S
H553 N546 0.984 . S
H554 N542 0.984 . S
H555 N542 0.985 . S
C556 C557 1.363 . S
C556 C562 1.379 . S
C556 N564 1.356 . S
C557 C556 1.363 . S
C557 C563 1.363 . S
C558 C559 1.363 . S
C558 C563 1.379 . S
C558 N565 1.356 . S
C559 C558 1.363 . S
C559 C562 1.363 . S
N560 C562 1.356 . S
N560 H572 0.984 . S
N560 H573 0.985 . S
N561 C563 1.356 . S
N561 H566 0.984 . S
N561 H567 0.985 . S
C562 C556 1.379 . S
C562 C559 1.363 . S
C562 N560 1.356 . S
C563 C557 1.363 . S
C563 C558 1.379 . S
C563 N561 1.356 . S
N564 C556 1.356 . S
N564 H570 0.984 . S
N564 H571 0.984 . S
N565 C558 1.356 . S
N565 H568 0.984 . S
N565 H569 0.985 . S
H566 N561 0.984 . S
H567 N561 0.985 . S
H568 N565 0.984 . S
H569 N565 0.985 . S
H570 N564 0.984 . S
H571 N564 0.984 . S
H572 N560 0.984 . S
H573 N560 0.985 . S
C574 C575 1.363 . S
C574 C580 1.379 . S
C574 N582 1.356 . S
C575 C574 1.363 . S
C575 C581 1.363 . S
C576 C577 1.363 . S
C576 C581 1.379 . S
C576 N583 1.356 . S
C577 C576 1.363 . S
C577 C580 1.363 . S
N578 C580 1.356 . S
N578 H590 0.984 . S
N578 H591 0.955 1_455 S
N579 C581 1.356 . S
N579 H584 0.984 . S
N579 H585 0.985 . S
C580 C574 1.379 . S
C580 C577 1.363 . S
C580 N578 1.356 . S
C581 C575 1.363 . S
C581 C576 1.379 . S
C581 N579 1.356 . S
N582 C574 1.356 . S
N582 H588 0.984 . S
N582 H589 0.984 . S
N583 C576 1.356 . S
N583 H586 0.984 1_455 S
N583 H587 0.985 . S
H584 N579 0.984 . S
H585 N579 0.985 . S
H586 N583 0.984 1_655 S
H587 N583 0.985 . S
H588 N582 0.984 . S
H589 N582 0.984 . S
H590 N578 0.984 . S
H591 N578 0.955 1_655 S
C592 C593 1.363 . S
C592 C598 1.379 . S
C592 N600 1.356 . S
C593 C592 1.363 . S
C593 C599 1.363 . S
C594 C595 1.363 . S
C594 C599 1.379 . S
C594 N601 1.356 . S
C595 C594 1.363 . S
C595 C598 1.363 . S
N596 C598 1.356 . S
N596 H608 0.984 . S
N596 H609 0.985 . S
N597 C599 1.356 . S
N597 H602 0.984 . S
N597 H603 0.985 . S
C598 C592 1.379 . S
C598 C595 1.363 . S
C598 N596 1.356 . S
C599 C593 1.363 . S
C599 C594 1.379 . S
C599 N597 1.356 . S
N600 C592 1.356 . S
N600 H606 0.984 . S
N600 H607 0.984 . S
N601 C594 1.356 . S
N601 H604 0.984 . S
N601 H605 0.985 . S
H602 N597 0.984 . S
H603 N597 0.985 . S
H604 N601 0.984 . S
H605 N601 0.985 . S
H606 N600 0.984 . S
H607 N600 0.984 . S
H608 N596 0.984 . S
H609 N596 0.985 . S
C610 C611 1.363 . S
C610 C616 1.379 . S
C610 N618 1.356 . S
C611 C610 1.363 . S
C611 C617 1.363 . S
C612 C613 1.363 . S
C612 C617 1.379 . S
C612 N619 1.356 . S
C613 C612 1.363 . S
C613 C616 1.363 . S
N614 C616 1.356 . S
N614 H626 0.984 . S
N614 H627 0.985 . S
N615 C617 1.356 . S
N615 H620 0.984 . S
N615 H621 0.985 . S
C616 C610 1.379 . S
C616 C613 1.363 . S
C616 N614 1.356 . S
C617 C611 1.363 . S
C617 C612 1.379 . S
C617 N615 1.356 . S
N618 C610 1.356 . S
N618 H624 0.984 . S
N618 H625 0.984 1_655 S
N619 C612 1.356 . S
N619 H622 0.984 . S
N619 H623 0.985 . S
H620 N615 0.984 . S
H621 N615 0.985 . S
H622 N619 0.984 . S
H623 N619 0.985 . S
H624 N618 0.984 . S
H625 N618 0.984 1_455 S
H626 N614 0.984 . S
H627 N614 0.985 . S
C628 C629 1.363 . S
C628 C634 1.379 . S
C628 N636 1.356 . S
C629 C628 1.363 . S
C629 C635 1.363 . S
C630 C631 1.363 . S
C630 C635 1.379 . S
C630 N637 1.356 . S
C631 C630 1.363 . S
C631 C634 1.363 . S
N632 C634 1.356 . S
N632 H644 0.984 . S
N632 H645 0.985 . S
N633 C635 1.356 . S
N633 H638 0.984 . S
N633 H639 0.985 . S
C634 C628 1.379 . S
C634 C631 1.363 . S
C634 N632 1.356 . S
C635 C629 1.363 . S
C635 C630 1.379 . S
C635 N633 1.356 . S
N636 C628 1.356 . S
N636 H642 0.984 . S
N636 H643 0.984 . S
N637 C630 1.356 . S
N637 H640 0.984 . S
N637 H641 0.985 . S
H638 N633 0.984 . S
H639 N633 0.985 . S
H640 N637 0.984 . S
H641 N637 0.985 . S
H642 N636 0.984 . S
H643 N636 0.984 . S
H644 N632 0.984 . S
H645 N632 0.985 . S
C646 C647 1.363 . S
C646 C652 1.379 . S
C646 N654 1.356 . S
C647 C646 1.363 . S
C647 C653 1.363 . S
C648 C649 1.363 . S
C648 C653 1.379 . S
C648 N655 1.356 . S
C649 C648 1.363 . S
C649 C652 1.363 . S
N650 C652 1.356 . S
N650 H662 0.984 . S
N650 H663 0.985 . S
N651 C653 1.356 . S
N651 H656 0.984 . S
N651 H657 0.985 . S
C652 C646 1.379 . S
C652 C649 1.363 . S
C652 N650 1.356 . S
C653 C647 1.363 . S
C653 C648 1.379 . S
C653 N651 1.356 . S
N654 C646 1.356 . S
N654 H660 0.984 . S
N654 H661 0.984 . S
N655 C648 1.356 . S
N655 H658 0.984 . S
N655 H659 0.985 . S
H656 N651 0.984 . S
H657 N651 0.985 . S
H658 N655 0.984 . S
H659 N655 0.985 . S
H660 N654 0.984 . S
H661 N654 0.984 . S
H662 N650 0.984 . S
H663 N650 0.985 . S
C664 C665 1.363 . S
C664 C670 1.379 . S
C664 N672 1.356 . S
C665 C664 1.363 . S
C665 C671 1.363 . S
C666 C667 1.363 . S
C666 C671 1.379 . S
C666 N673 1.356 . S
C667 C666 1.363 . S
C667 C670 1.363 . S
N668 C670 1.356 . S
N668 H680 0.984 . S
N668 H681 0.985 . S
N669 C671 1.356 . S
N669 H674 0.984 . S
N669 H675 0.985 . S
C670 C664 1.379 . S
C670 C667 1.363 . S
C670 N668 1.356 . S
C671 C665 1.363 . S
C671 C666 1.379 . S
C671 N669 1.356 . S
N672 C664 1.356 . S
N672 H678 0.984 . S
N672 H679 0.984 . S
N673 C666 1.356 . S
N673 H676 0.984 . S
N673 H677 0.985 . S
H674 N669 0.984 . S
H675 N669 0.985 . S
H676 N673 0.984 . S
H677 N673 0.985 . S
H678 N672 0.984 . S
H679 N672 0.984 . S
H680 N668 0.984 . S
H681 N668 0.985 . S
C682 C683 1.363 . S
C682 C688 1.379 . S
C682 N690 1.356 . S
C683 C682 1.363 . S
C683 C689 1.363 . S
C684 C685 1.363 . S
C684 C689 1.379 . S
C684 N691 1.356 . S
C685 C684 1.363 . S
C685 C688 1.363 . S
N686 C688 1.356 . S
N686 H698 0.984 . S
N686 H699 0.985 . S
N687 C689 1.356 . S
N687 H692 0.984 . S
N687 H693 0.985 . S
C688 C682 1.379 . S
C688 C685 1.363 . S
C688 N686 1.356 . S
C689 C683 1.363 . S
C689 C684 1.379 . S
C689 N687 1.356 . S
N690 C682 1.356 . S
N690 H696 0.984 . S
N690 H697 0.984 . S
N691 C684 1.356 . S
N691 H694 0.984 . S
N691 H695 0.985 . S
H692 N687 0.984 . S
H693 N687 0.985 . S
H694 N691 0.984 . S
H695 N691 0.985 . S
H696 N690 0.984 . S
H697 N690 0.984 . S
H698 N686 0.984 . S
H699 N686 0.985 . S
C700 C701 1.363 . S
C700 C706 1.379 . S
C700 N708 1.356 . S
C701 C700 1.363 . S
C701 C707 1.363 . S
C702 C703 1.363 . S
C702 C707 1.379 . S
C702 N709 1.356 . S
C703 C702 1.363 . S
C703 C706 1.363 . S
N704 C706 1.356 . S
N704 H716 0.984 . S
N704 H717 0.985 . S
N705 C707 1.356 . S
N705 H710 0.984 . S
N705 H711 0.985 . S
C706 C700 1.379 . S
C706 C703 1.363 . S
C706 N704 1.356 . S
C707 C701 1.363 . S
C707 C702 1.379 . S
C707 N705 1.356 . S
N708 C700 1.356 . S
N708 H714 0.984 . S
N708 H715 0.984 . S
N709 C702 1.356 . S
N709 H712 0.984 . S
N709 H713 0.985 . S
H710 N705 0.984 . S
H711 N705 0.985 . S
H712 N709 0.984 . S
H713 N709 0.985 . S
H714 N708 0.984 . S
H715 N708 0.984 . S
H716 N704 0.984 . S
H717 N704 0.985 . S
C718 C719 1.363 . S
C718 C724 1.379 . S
C718 N726 1.356 . S
C719 C718 1.363 . S
C719 C725 1.363 . S
C720 C721 1.363 . S
C720 C725 1.379 . S
C720 N727 1.356 . S
C721 C720 1.363 . S
C721 C724 1.363 . S
N722 C724 1.356 . S
N722 H734 0.984 . S
N722 H735 0.985 1_655 S
N723 C725 1.356 . S
N723 H728 0.984 . S
N723 H729 0.985 . S
C724 C718 1.379 . S
C724 C721 1.363 . S
C724 N722 1.356 . S
C725 C719 1.363 . S
C725 C720 1.379 . S
C725 N723 1.356 . S
N726 C718 1.356 . S
N726 H732 0.984 . S
N726 H733 0.984 . S
N727 C720 1.356 . S
N727 H730 0.984 . S
N727 H731 0.985 . S
H728 N723 0.984 . S
H729 N723 0.985 . S
H730 N727 0.984 . S
H731 N727 0.985 . S
H732 N726 0.984 . S
H733 N726 0.984 . S
H734 N722 0.984 . S
H735 N722 0.985 1_455 S
C736 C737 1.363 . S
C736 C742 1.379 . S
C736 N744 1.356 . S
C737 C736 1.363 . S
C737 C743 1.363 . S
C738 C739 1.363 . S
C738 C743 1.379 . S
C738 N745 1.356 . S
C739 C738 1.363 . S
C739 C742 1.363 . S
N740 C742 1.356 . S
N740 H752 0.984 . S
N740 H753 0.985 . S
N741 C743 1.356 . S
N741 H746 0.984 . S
N741 H747 0.985 . S
C742 C736 1.379 . S
C742 C739 1.363 . S
C742 N740 1.356 . S
C743 C737 1.363 . S
C743 C738 1.379 . S
C743 N741 1.356 . S
N744 C736 1.356 . S
N744 H750 0.984 . S
N744 H751 0.984 . S
N745 C738 1.356 . S
N745 H748 0.984 . S
N745 H749 0.985 . S
H746 N741 0.984 . S
H747 N741 0.985 . S
H748 N745 0.984 . S
H749 N745 0.985 . S
H750 N744 0.984 . S
H751 N744 0.984 . S
H752 N740 0.984 . S
H753 N740 0.985 . S
C754 C755 1.363 . S
C754 C760 1.379 . S
C754 N762 1.356 . S
C755 C754 1.363 . S
C755 C761 1.363 . S
C756 C757 1.363 . S
C756 C761 1.379 . S
C756 N763 1.356 . S
C757 C756 1.363 . S
C757 C760 1.363 . S
N758 C760 1.356 . S
N758 H770 0.984 . S
N758 H771 0.985 . S
N759 C761 1.356 . S
N759 H764 0.984 . S
N759 H765 0.985 . S
C760 C754 1.379 . S
C760 C757 1.363 . S
C760 N758 1.356 . S
C761 C755 1.363 . S
C761 C756 1.379 . S
C761 N759 1.356 . S
N762 C754 1.356 . S
N762 H768 0.984 . S
N762 H769 0.984 . S
N763 C756 1.356 . S
N763 H766 0.984 . S
N763 H767 0.985 . S
H764 N759 0.984 . S
H765 N759 0.985 . S
H766 N763 0.984 . S
H767 N763 0.985 . S
H768 N762 0.984 . S
H769 N762 0.984 . S
H770 N758 0.984 . S
H771 N758 0.985 . S
C772 C773 1.363 . S
C772 C778 1.379 . S
C772 N780 1.356 . S
C773 C772 1.363 . S
C773 C779 1.363 . S
C774 C775 1.363 . S
C774 C779 1.379 . S
C774 N781 1.356 . S
C775 C774 1.363 . S
C775 C778 1.363 . S
N776 C778 1.356 . S
N776 H788 0.984 . S
N776 H789 0.985 . S
N777 C779 1.356 . S
N777 H782 0.984 . S
N777 H783 0.985 . S
C778 C772 1.379 . S
C778 C775 1.363 . S
C778 N776 1.356 . S
C779 C773 1.363 . S
C779 C774 1.379 . S
C779 N777 1.356 . S
N780 C772 1.356 . S
N780 H786 0.984 . S
N780 H787 0.984 . S
N781 C774 1.356 . S
N781 H784 0.984 . S
N781 H785 0.985 . S
H782 N777 0.984 . S
H783 N777 0.985 . S
H784 N781 0.984 . S
H785 N781 0.985 . S
H786 N780 0.984 . S
H787 N780 0.984 . S
H788 N776 0.984 . S
H789 N776 0.985 . S
C790 C791 1.363 . S
C790 C796 1.379 . S
C790 N798 1.356 . S
C791 C790 1.363 . S
C791 C797 1.363 . S
C792 C793 1.363 . S
C792 C797 1.379 . S
C792 N799 1.356 . S
C793 C792 1.363 . S
C793 C796 1.363 . S
N794 C796 1.356 . S
N794 H806 0.984 . S
N794 H807 0.985 . S
N795 C797 1.356 . S
N795 H800 0.984 . S
N795 H801 0.985 . S
C796 C790 1.379 . S
C796 C793 1.363 . S
C796 N794 1.356 . S
C797 C791 1.363 . S
C797 C792 1.379 . S
C797 N795 1.356 . S
N798 C790 1.356 . S
N798 H804 0.984 . S
N798 H805 0.984 . S
N799 C792 1.356 . S
N799 H802 0.984 1_655 S
N799 H803 0.980 1_655 S
H800 N795 0.984 . S
H801 N795 0.985 . S
H802 N799 0.984 1_455 S
H803 N799 0.980 1_455 S
H804 N798 0.984 . S
H805 N798 0.984 . S
H806 N794 0.984 . S
H807 N794 0.985 . S
C808 C809 1.363 . S
C808 C814 1.379 . S
C808 N816 1.356 . S
C809 C808 1.363 . S
C809 C815 1.363 . S
C810 C811 1.363 . S
C810 C815 1.379 . S
C810 N817 1.356 . S
C811 C810 1.363 . S
C811 C814 1.363 . S
N812 C814 1.356 . S
N812 H824 0.984 . S
N812 H825 0.985 . S
N813 C815 1.356 . S
N813 H818 0.984 . S
N813 H819 0.985 . S
C814 C808 1.379 . S
C814 C811 1.363 . S
C814 N812 1.356 . S
C815 C809 1.363 . S
C815 C810 1.379 . S
C815 N813 1.356 . S
N816 C808 1.356 . S
N816 H822 0.984 . S
N816 H823 0.984 . S
N817 C810 1.356 . S
N817 H820 0.984 . S
N817 H821 0.985 . S
H818 N813 0.984 . S
H819 N813 0.985 . S
H820 N817 0.984 . S
H821 N817 0.985 . S
H822 N816 0.984 . S
H823 N816 0.984 . S
H824 N812 0.984 . S
H825 N812 0.985 . S
C826 C827 1.363 . S
C826 C832 1.379 . S
C826 N834 1.356 1_655 S
C827 C826 1.363 . S
C827 C833 1.363 . S
C828 C829 1.363 . S
C828 C833 1.379 . S
C828 N835 1.356 . S
C829 C828 1.363 . S
C829 C832 1.363 . S
N830 C832 1.356 . S
N830 H842 0.984 . S
N830 H843 0.985 . S
N831 C833 1.356 . S
N831 H836 0.984 . S
N831 H837 0.985 . S
C832 C826 1.379 . S
C832 C829 1.363 . S
C832 N830 1.356 . S
C833 C827 1.363 . S
C833 C828 1.379 . S
C833 N831 1.356 . S
N834 C826 1.356 1_455 S
N834 H840 0.984 . S
N834 H841 0.984 . S
N835 C828 1.356 . S
N835 H838 0.984 . S
N835 H839 0.985 . S
H836 N831 0.984 . S
H837 N831 0.985 . S
H838 N835 0.984 . S
H839 N835 0.985 . S
H840 N834 0.984 . S
H841 N834 0.984 . S
H842 N830 0.984 . S
H843 N830 0.985 . S
C844 C845 1.363 . S
C844 C850 1.379 . S
C844 N852 1.356 . S
C845 C844 1.363 . S
C845 C851 1.363 . S
C846 C847 1.363 . S
C846 C851 1.379 . S
C846 N853 1.356 . S
C847 C846 1.363 . S
C847 C850 1.363 . S
N848 C850 1.356 . S
N848 H860 0.984 . S
N848 H861 0.985 . S
N849 C851 1.356 . S
N849 H854 0.984 . S
N849 H855 0.985 . S
C850 C844 1.379 . S
C850 C847 1.363 . S
C850 N848 1.356 . S
C851 C845 1.363 . S
C851 C846 1.379 . S
C851 N849 1.356 . S
N852 C844 1.356 . S
N852 H858 0.984 . S
N852 H859 0.984 . S
N853 C846 1.356 . S
N853 H856 0.984 . S
N853 H857 0.985 . S
H854 N849 0.984 . S
H855 N849 0.985 . S
H856 N853 0.984 . S
H857 N853 0.985 . S
H858 N852 0.984 . S
H859 N852 0.984 . S
H860 N848 0.984 . S
H861 N848 0.985 . S
C862 C863 1.363 . S
C862 C868 1.379 . S
C862 N870 1.356 . S
C863 C862 1.363 . S
C863 C869 1.363 . S
C864 C865 1.363 . S
C864 C869 1.379 . S
C864 N871 1.356 . S
C865 C864 1.363 . S
C865 C868 1.363 . S
N866 C868 1.356 . S
N866 H878 0.984 . S
N866 H879 0.985 . S
N867 C869 1.356 . S
N867 H872 0.984 . S
N867 H873 0.985 . S
C868 C862 1.379 . S
C868 C865 1.363 . S
C868 N866 1.356 . S
C869 C863 1.363 . S
C869 C864 1.379 . S
C869 N867 1.356 . S
N870 C862 1.356 . S
N870 H876 0.984 . S
N870 H877 0.984 . S
N871 C864 1.356 . S
N871 H874 0.984 . S
N871 H875 0.985 . S
H872 N867 0.984 . S
H873 N867 0.985 . S
H874 N871 0.984 . S
H875 N871 0.985 . S
H876 N870 0.984 . S
H877 N870 0.984 . S
H878 N866 0.984 . S
H879 N866 0.985 . S
C880 C881 1.363 . S
C880 C886 1.379 . S
C880 N888 1.356 . S
C881 C880 1.363 . S
C881 C887 1.363 . S
C882 C883 1.363 . S
C882 C887 1.379 . S
C882 N889 1.356 . S
C883 C882 1.363 . S
C883 C886 1.363 . S
N884 C886 1.356 . S
N884 H896 0.984 . S
N884 H897 0.985 . S
N885 C887 1.356 . S
N885 H890 0.984 . S
N885 H891 0.985 . S
C886 C880 1.379 . S
C886 C883 1.363 . S
C886 N884 1.356 . S
C887 C881 1.363 . S
C887 C882 1.379 . S
C887 N885 1.356 . S
N888 C880 1.356 . S
N888 H894 0.984 . S
N888 H895 0.984 . S
N889 C882 1.356 . S
N889 H892 0.984 . S
N889 H893 0.985 . S
H890 N885 0.984 . S
H891 N885 0.985 . S
H892 N889 0.984 . S
H893 N889 0.985 . S
H894 N888 0.984 . S
H895 N888 0.984 . S
H896 N884 0.984 . S
H897 N884 0.985 . S
C898 C899 1.363 . S
C898 C904 1.379 . S
C898 N906 1.356 . S
C899 C898 1.363 . S
C899 C905 1.363 . S
C900 C901 1.363 . S
C900 C905 1.379 . S
C900 N907 1.356 . S
C901 C900 1.363 . S
C901 C904 1.363 . S
N902 C904 1.356 . S
N902 H914 0.984 . S
N902 H915 0.985 . S
N903 C905 1.356 . S
N903 H908 0.984 . S
N903 H909 0.985 . S
C904 C898 1.379 . S
C904 C901 1.363 . S
C904 N902 1.356 . S
C905 C899 1.363 . S
C905 C900 1.379 . S
C905 N903 1.356 . S
N906 C898 1.356 . S
N906 H912 0.984 . S
N906 H913 0.984 . S
N907 C900 1.356 . S
N907 H910 0.984 . S
N907 H911 0.985 . S
H908 N903 0.984 . S
H909 N903 0.985 . S
H910 N907 0.984 . S
H911 N907 0.985 . S
H912 N906 0.984 . S
H913 N906 0.984 . S
H914 N902 0.984 . S
H915 N902 0.985 . S
C916 C917 1.363 . S
C916 C922 1.379 . S
C916 N924 1.356 . S
C917 C916 1.363 . S
C917 C923 1.363 . S
C918 C919 1.363 . S
C918 C923 1.379 . S
C918 N925 1.356 . S
C919 C918 1.363 . S
C919 C922 1.363 . S
N920 C922 1.356 . S
N920 H932 0.984 . S
N920 H933 0.985 . S
N921 C923 1.356 . S
N921 H926 0.984 . S
N921 H927 0.985 . S
C922 C916 1.379 . S
C922 C919 1.363 . S
C922 N920 1.356 . S
C923 C917 1.363 . S
C923 C918 1.379 . S
C923 N921 1.356 . S
N924 C916 1.356 . S
N924 H930 0.984 . S
N924 H931 0.984 . S
N925 C918 1.356 . S
N925 H928 0.984 . S
N925 H929 0.985 . S
H926 N921 0.984 . S
H927 N921 0.985 . S
H928 N925 0.984 . S
H929 N925 0.985 . S
H930 N924 0.984 . S
H931 N924 0.984 . S
H932 N920 0.984 . S
H933 N920 0.985 . S
C934 C935 1.363 . S
C934 C940 1.379 . S
C934 N942 1.356 . S
C935 C934 1.363 . S
C935 C941 1.363 . S
C936 C937 1.363 . S
C936 C941 1.379 . S
C936 N943 1.356 . S
C937 C936 1.363 . S
C937 C940 1.363 . S
N938 C940 1.356 . S
N938 H950 0.984 . S
N938 H951 0.985 . S
N939 C941 1.356 1_655 S
N939 H944 0.984 . S
N939 H945 0.985 . S
C940 C934 1.379 . S
C940 C937 1.363 . S
C940 N938 1.356 . S
C941 C935 1.363 . S
C941 C936 1.379 . S
C941 N939 1.356 1_455 S
N942 C934 1.356 . S
N942 H948 0.984 . S
N942 H949 0.984 . S
N943 C936 1.356 . S
N943 H946 0.984 . S
N943 H947 0.985 . S
H944 N939 0.984 . S
H945 N939 0.985 . S
H946 N943 0.984 . S
H947 N943 0.985 . S
H948 N942 0.984 . S
H949 N942 0.984 . S
H950 N938 0.984 . S
H951 N938 0.985 . S
C952 C953 1.363 . S
C952 C958 1.379 . S
C952 N960 1.356 . S
C953 C952 1.363 . S
C953 C959 1.363 . S
C954 C955 1.363 . S
C954 C959 1.379 . S
C954 N961 1.356 . S
C955 C954 1.363 . S
C955 C958 1.363 . S
N956 C958 1.356 . S
N956 H968 0.984 . S
N956 H969 0.985 . S
N957 C959 1.356 . S
N957 H962 0.984 . S
N957 H963 0.985 . S
C958 C952 1.379 . S
C958 C955 1.363 . S
C958 N956 1.356 . S
C959 C953 1.363 . S
C959 C954 1.379 . S
C959 N957 1.356 . S
N960 C952 1.356 . S
N960 H966 0.984 . S
N960 H967 0.984 . S
N961 C954 1.356 . S
N961 H964 0.984 . S
N961 H965 0.985 . S
H962 N957 0.984 . S
H963 N957 0.985 . S
H964 N961 0.984 . S
H965 N961 0.985 . S
H966 N960 0.984 . S
H967 N960 0.984 . S
H968 N956 0.984 . S
H969 N956 0.985 . S
C970 C971 1.363 . S
C970 C976 1.379 . S
C970 N978 1.356 1_455 S
C971 C970 1.363 . S
C971 C977 1.363 . S
C972 C973 1.363 . S
C972 C977 1.379 . S
C972 N979 1.356 . S
C973 C972 1.363 . S
C973 C976 1.363 . S
N974 C976 1.356 . S
N974 H986 0.984 . S
N974 H987 0.985 . S
N975 C977 1.356 . S
N975 H980 0.984 . S
N975 H981 0.985 . S
C976 C970 1.379 . S
C976 C973 1.363 . S
C976 N974 1.356 . S
C977 C971 1.363 . S
C977 C972 1.379 . S
C977 N975 1.356 . S
N978 C970 1.356 1_655 S
N978 H984 0.984 . S
N978 H985 0.984 . S
N979 C972 1.356 . S
N979 H982 0.984 . S
N979 H983 0.985 . S
H980 N975 0.984 . S
H981 N975 0.985 . S
H982 N979 0.984 . S
H983 N979 0.985 . S
H984 N978 0.984 . S
H985 N978 0.984 . S
H986 N974 0.984 . S
H987 N974 0.985 . S
C988 C989 1.363 . S
C988 C994 1.379 . S
C988 N996 1.356 . S
C989 C988 1.363 . S
C989 C995 1.363 . S
C990 C991 1.363 . S
C990 C995 1.379 . S
C990 N997 1.356 . S
C991 C990 1.363 . S
C991 C994 1.363 . S
N992 C994 1.356 . S
N992 H1004 0.984 . S
N992 H1005 0.985 . S
N993 C995 1.356 . S
N993 H998 0.984 . S
N993 H999 0.985 . S
C994 C988 1.379 . S
C994 C991 1.363 . S
C994 N992 1.356 . S
C995 C989 1.363 . S
C995 C990 1.379 . S
C995 N993 1.356 . S
N996 C988 1.356 . S
N996 H1002 0.984 . S
N996 H1003 0.984 . S
N997 C990 1.356 . S
N997 H1000 0.984 . S
N997 H1001 0.985 . S
H998 N993 0.984 . S
H999 N993 0.985 . S
H1000 N997 0.984 . S
H1001 N997 0.985 . S
H1002 N996 0.984 . S
H1003 N996 0.984 . S
H1004 N992 0.984 . S
H1005 N992 0.985 . S
C1006 C1007 1.363 . S
C1006 C1012 1.379 . S
C1006 N1014 1.356 . S
C1007 C1006 1.363 . S
C1007 C1013 1.363 . S
C1008 C1009 1.363 . S
C1008 C1013 1.379 . S
C1008 N1015 1.356 . S
C1009 C1008 1.363 . S
C1009 C1012 1.363 . S
N1010 C1012 1.356 . S
N1010 H1022 0.984 . S
N1010 H1023 0.985 . S
N1011 C1013 1.356 . S
N1011 H1016 0.984 . S
N1011 H1017 0.985 . S
C1012 C1006 1.379 . S
C1012 C1009 1.363 . S
C1012 N1010 1.356 . S
C1013 C1007 1.363 . S
C1013 C1008 1.379 . S
C1013 N1011 1.356 . S
N1014 C1006 1.356 . S
N1014 H1020 0.984 . S
N1014 H1021 0.984 . S
N1015 C1008 1.356 . S
N1015 H1018 0.984 . S
N1015 H1019 0.985 . S
H1016 N1011 0.984 . S
H1017 N1011 0.985 . S
H1018 N1015 0.984 . S
H1019 N1015 0.985 . S
H1020 N1014 0.984 . S
H1021 N1014 0.984 . S
H1022 N1010 0.984 . S
H1023 N1010 0.985 . S
C1024 C1025 1.363 . S
C1024 C1030 1.379 . S
C1024 N1032 1.356 . S
C1025 C1024 1.363 . S
C1025 C1031 1.363 . S
C1026 C1027 1.363 . S
C1026 C1031 1.379 . S
C1026 N1033 1.356 . S
C1027 C1026 1.363 . S
C1027 C1030 1.363 . S
N1028 C1030 1.356 . S
N1028 H1040 0.984 . S
N1028 H1041 0.985 . S
N1029 C1031 1.356 . S
N1029 H1034 0.984 . S
N1029 H1035 0.985 . S
C1030 C1024 1.379 . S
C1030 C1027 1.363 . S
C1030 N1028 1.356 . S
C1031 C1025 1.363 . S
C1031 C1026 1.379 . S
C1031 N1029 1.356 . S
N1032 C1024 1.356 . S
N1032 H1038 0.984 . S
N1032 H1039 0.984 . S
N1033 C1026 1.356 . S
N1033 H1036 0.984 . S
N1033 H1037 0.985 . S
H1034 N1029 0.984 . S
H1035 N1029 0.985 . S
H1036 N1033 0.984 . S
H1037 N1033 0.985 . S
H1038 N1032 0.984 . S
H1039 N1032 0.984 . S
H1040 N1028 0.984 . S
H1041 N1028 0.985 . S
C1042 C1043 1.363 . S
C1042 C1048 1.379 1_655 S
C1042 N1050 1.356 . S
C1043 C1042 1.363 . S
C1043 C1049 1.363 1_565 S
C1044 C1045 1.363 . S
C1044 C1049 1.379 1_455 S
C1044 N1051 1.356 . S
C1045 C1044 1.363 . S
C1045 C1048 1.363 1_545 S
N1046 C1048 1.356 1_545 S
N1046 H1058 0.984 1_545 S
N1046 H1059 0.985 . S
N1047 C1049 1.356 1_565 S
N1047 H1052 0.984 . S
N1047 H1053 0.985 1_565 S
C1048 C1042 1.379 1_455 S
C1048 C1045 1.363 1_565 S
C1048 N1046 1.356 1_565 S
C1049 C1043 1.363 1_545 S
C1049 C1044 1.379 1_655 S
C1049 N1047 1.356 1_545 S
N1050 C1042 1.356 . S
N1050 H1056 0.984 . S
N1050 H1057 0.984 . S
N1051 C1044 1.356 . S
N1051 H1054 0.984 . S
N1051 H1055 0.985 . S
H1052 N1047 0.984 . S
H1053 N1047 0.985 1_545 S
H1054 N1051 0.984 . S
H1055 N1051 0.985 . S
H1056 N1050 0.984 . S
H1057 N1050 0.984 . S
H1058 N1046 0.984 1_565 S
H1059 N1046 0.985 . S
C1060 C1061 1.363 . S
C1060 C1066 1.379 . S
C1060 N1068 1.356 . S
C1061 C1060 1.363 . S
C1061 C1067 1.363 . S
C1062 C1063 1.363 . S
C1062 C1067 1.379 . S
C1062 N1069 1.356 . S
C1063 C1062 1.363 . S
C1063 C1066 1.363 . S
N1064 C1066 1.356 . S
N1064 H1076 0.984 . S
N1064 H1077 0.985 . S
N1065 C1067 1.356 . S
N1065 H1070 0.984 . S
N1065 H1071 0.985 . S
C1066 C1060 1.379 . S
C1066 C1063 1.363 . S
C1066 N1064 1.356 . S
C1067 C1061 1.363 . S
C1067 C1062 1.379 . S
C1067 N1065 1.356 . S
N1068 C1060 1.356 . S
N1068 H1074 0.984 . S
N1068 H1075 0.984 . S
N1069 C1062 1.356 . S
N1069 H1072 0.984 . S
N1069 H1073 0.985 . S
H1070 N1065 0.984 . S
H1071 N1065 0.985 . S
H1072 N1069 0.984 . S
H1073 N1069 0.985 . S
H1074 N1068 0.984 . S
H1075 N1068 0.984 . S
H1076 N1064 0.984 . S
H1077 N1064 0.985 . S
C1078 C1079 1.363 1_565 S
C1078 C1084 1.379 1_554 S
C1078 N1086 1.356 . S
C1079 C1078 1.363 1_545 S
C1079 C1085 1.363 . S
C1080 C1081 1.363 1_545 S
C1080 C1085 1.379 1_556 S
C1080 N1087 1.356 . S
C1081 C1080 1.363 1_565 S
C1081 C1084 1.363 . S
N1082 C1084 1.356 . S
N1082 H1094 0.984 . S
N1082 H1095 0.985 . S
N1083 C1085 1.356 . S
N1083 H1088 0.984 . S
N1083 H1089 0.985 . S
C1084 C1078 1.379 1_556 S
C1084 C1081 1.363 . S
C1084 N1082 1.356 . S
C1085 C1079 1.363 . S
C1085 C1080 1.379 1_554 S
C1085 N1083 1.356 . S
N1086 C1078 1.356 . S
N1086 H1092 0.984 . S
N1086 H1093 0.984 1_565 S
N1087 C1080 1.356 . S
N1087 H1090 0.984 1_545 S
N1087 H1091 0.985 . S
H1088 N1083 0.984 . S
H1089 N1083 0.985 . S
H1090 N1087 0.984 1_565 S
H1091 N1087 0.985 . S
H1092 N1086 0.984 . S
H1093 N1086 0.984 1_545 S
H1094 N1082 0.984 . S
H1095 N1082 0.985 . S
C1096 C1097 1.363 . S
C1096 C1102 1.379 . S
C1096 N1104 1.356 . S
C1097 C1096 1.363 . S
C1097 C1103 1.363 . S
C1098 C1099 1.363 . S
C1098 C1103 1.379 . S
C1098 N1105 1.356 . S
C1099 C1098 1.363 . S
C1099 C1102 1.363 . S
N1100 C1102 1.356 . S
N1100 H1112 0.984 . S
N1100 H1113 0.985 . S
N1101 C1103 1.356 . S
N1101 H1106 0.984 . S
N1101 H1107 0.985 . S
C1102 C1096 1.379 . S
C1102 C1099 1.363 . S
C1102 N1100 1.356 . S
C1103 C1097 1.363 . S
C1103 C1098 1.379 . S
C1103 N1101 1.356 . S
N1104 C1096 1.356 . S
N1104 H1110 0.984 . S
N1104 H1111 0.984 . S
N1105 C1098 1.356 . S
N1105 H1108 0.984 . S
N1105 H1109 0.985 . S
H1106 N1101 0.984 . S
H1107 N1101 0.985 . S
H1108 N1105 0.984 . S
H1109 N1105 0.985 . S
H1110 N1104 0.984 . S
H1111 N1104 0.984 . S
H1112 N1100 0.984 . S
H1113 N1100 0.985 . S
C1114 C1115 1.363 . S
C1114 C1120 1.379 . S
C1114 N1122 1.356 . S
C1115 C1114 1.363 . S
C1115 C1121 1.363 1_565 S
C1116 C1117 1.363 . S
C1116 C1121 1.379 . S
C1116 N1123 1.356 . S
C1117 C1116 1.363 . S
C1117 C1120 1.363 1_545 S
N1118 C1120 1.356 . S
N1118 H1130 0.984 . S
N1118 H1131 0.985 1_565 S
N1119 C1121 1.356 . S
N1119 H1124 0.984 1_545 S
N1119 H1125 0.985 . S
C1120 C1114 1.379 . S
C1120 C1117 1.363 1_565 S
C1120 N1118 1.356 . S
C1121 C1115 1.363 1_545 S
C1121 C1116 1.379 . S
C1121 N1119 1.356 . S
N1122 C1114 1.356 . S
N1122 H1128 0.984 . S
N1122 H1129 0.984 . S
N1123 C1116 1.356 . S
N1123 H1126 0.984 . S
N1123 H1127 0.985 . S
H1124 N1119 0.984 1_565 S
H1125 N1119 0.985 . S
H1126 N1123 0.984 . S
H1127 N1123 0.985 . S
H1128 N1122 0.984 . S
H1129 N1122 0.984 . S
H1130 N1118 0.984 . S
H1131 N1118 0.985 1_545 S
C1132 C1133 1.363 . S
C1132 C1138 1.379 . S
C1132 N1140 1.356 . S
C1133 C1132 1.363 . S
C1133 C1139 1.363 . S
C1134 C1135 1.363 . S
C1134 C1139 1.379 . S
C1134 N1141 1.356 . S
C1135 C1134 1.363 . S
C1135 C1138 1.363 . S
N1136 C1138 1.356 . S
N1136 H1148 0.984 . S
N1136 H1149 0.985 . S
N1137 C1139 1.356 . S
N1137 H1142 0.984 . S
N1137 H1143 0.985 . S
C1138 C1132 1.379 . S
C1138 C1135 1.363 . S
C1138 N1136 1.356 . S
C1139 C1133 1.363 . S
C1139 C1134 1.379 . S
C1139 N1137 1.356 . S
N1140 C1132 1.356 . S
N1140 H1146 0.984 . S
N1140 H1147 0.984 . S
N1141 C1134 1.356 . S
N1141 H1144 0.984 . S
N1141 H1145 0.985 . S
H1142 N1137 0.984 . S
H1143 N1137 0.985 . S
H1144 N1141 0.984 . S
H1145 N1141 0.985 . S
H1146 N1140 0.984 . S
H1147 N1140 0.984 . S
H1148 N1136 0.984 . S
H1149 N1136 0.985 . S
C1150 C1151 1.363 1_565 S
C1150 C1156 1.379 1_655 S
C1150 N1158 1.356 . S
C1151 C1150 1.363 1_545 S
C1151 C1157 1.363 1_556 S
C1152 C1153 1.363 1_545 S
C1152 C1157 1.379 1_455 S
C1152 N1159 1.356 . S
C1153 C1152 1.363 1_565 S
C1153 C1156 1.363 1_554 S
N1154 C1156 1.356 . S
N1154 H1166 0.984 . S
N1154 H1167 0.985 . S
N1155 C1157 1.356 . S
N1155 H1160 0.984 . S
N1155 H1161 0.985 . S
C1156 C1150 1.379 1_455 S
C1156 C1153 1.363 1_556 S
C1156 N1154 1.356 . S
C1157 C1151 1.363 1_554 S
C1157 C1152 1.379 1_655 S
C1157 N1155 1.356 . S
N1158 C1150 1.356 . S
N1158 H1164 0.984 . S
N1158 H1165 0.984 1_565 S
N1159 C1152 1.356 . S
N1159 H1162 0.984 1_545 S
N1159 H1163 0.985 . S
H1160 N1155 0.984 . S
H1161 N1155 0.985 . S
H1162 N1159 0.984 1_565 S
H1163 N1159 0.985 . S
H1164 N1158 0.984 . S
H1165 N1158 0.984 1_545 S
H1166 N1154 0.984 . S
H1167 N1154 0.985 . S
C1168 C1169 1.363 . S
C1168 C1174 1.379 . S
C1168 N1176 1.356 . S
C1169 C1168 1.363 . S
C1169 C1175 1.363 . S
C1170 C1171 1.363 . S
C1170 C1175 1.379 . S
C1170 N1177 1.356 . S
C1171 C1170 1.363 . S
C1171 C1174 1.363 . S
N1172 C1174 1.356 . S
N1172 H1184 0.984 . S
N1172 H1185 0.985 . S
N1173 C1175 1.356 . S
N1173 H1178 0.984 . S
N1173 H1179 0.985 . S
C1174 C1168 1.379 . S
C1174 C1171 1.363 . S
C1174 N1172 1.356 . S
C1175 C1169 1.363 . S
C1175 C1170 1.379 . S
C1175 N1173 1.356 . S
N1176 C1168 1.356 . S
N1176 H1182 0.984 . S
N1176 H1183 0.984 . S
N1177 C1170 1.356 . S
N1177 H1180 0.984 . S
N1177 H1181 0.985 . S
H1178 N1173 0.984 . S
H1179 N1173 0.985 . S
H1180 N1177 0.984 . S
H1181 N1177 0.985 . S
H1182 N1176 0.984 . S
H1183 N1176 0.984 . S
H1184 N1172 0.984 . S
H1185 N1172 0.985 . S
C1186 C1187 1.363 . S
C1186 C1192 1.379 . S
C1186 N1194 1.356 . S
C1187 C1186 1.363 . S
C1187 C1193 1.363 . S
C1188 C1189 1.363 . S
C1188 C1193 1.379 . S
C1188 N1195 1.356 . S
C1189 C1188 1.363 . S
C1189 C1192 1.363 . S
N1190 C1192 1.356 . S
N1190 H1202 0.984 . S
N1190 H1203 0.985 . S
N1191 C1193 1.356 . S
N1191 H1196 0.984 . S
N1191 H1197 0.985 . S
C1192 C1186 1.379 . S
C1192 C1189 1.363 . S
C1192 N1190 1.356 . S
C1193 C1187 1.363 . S
C1193 C1188 1.379 . S
C1193 N1191 1.356 . S
N1194 C1186 1.356 . S
N1194 H1200 0.984 . S
N1194 H1201 0.984 . S
N1195 C1188 1.356 . S
N1195 H1198 0.984 . S
N1195 H1199 0.985 . S
H1196 N1191 0.984 . S
H1197 N1191 0.985 . S
H1198 N1195 0.984 . S
H1199 N1195 0.985 . S
H1200 N1194 0.984 . S
H1201 N1194 0.984 . S
H1202 N1190 0.984 . S
H1203 N1190 0.985 . S
C1204 C1205 1.363 . S
C1204 C1210 1.379 . S
C1204 N1212 1.356 . S
C1205 C1204 1.363 . S
C1205 C1211 1.363 . S
C1206 C1207 1.363 . S
C1206 C1211 1.379 . S
C1206 N1213 1.356 . S
C1207 C1206 1.363 . S
C1207 C1210 1.363 . S
N1208 C1210 1.356 . S
N1208 H1220 0.984 . S
N1208 H1221 0.985 . S
N1209 C1211 1.356 . S
N1209 H1214 0.984 . S
N1209 H1215 0.985 . S
C1210 C1204 1.379 . S
C1210 C1207 1.363 . S
C1210 N1208 1.356 . S
C1211 C1205 1.363 . S
C1211 C1206 1.379 . S
C1211 N1209 1.356 . S
N1212 C1204 1.356 . S
N1212 H1218 0.984 . S
N1212 H1219 0.984 . S
N1213 C1206 1.356 . S
N1213 H1216 0.984 . S
N1213 H1217 0.985 . S
H1214 N1209 0.984 . S
H1215 N1209 0.985 . S
H1216 N1213 0.984 . S
H1217 N1213 0.985 . S
H1218 N1212 0.984 . S
H1219 N1212 0.984 . S
H1220 N1208 0.984 . S
H1221 N1208 0.985 . S
C1222 C1223 1.363 . S
C1222 C1228 1.379 . S
C1222 N1230 1.356 . S
C1223 C1222 1.363 . S
C1223 C1229 1.363 . S
C1224 C1225 1.363 . S
C1224 C1229 1.379 . S
C1224 N1231 1.356 . S
C1225 C1224 1.363 . S
C1225 C1228 1.363 . S
N1226 C1228 1.356 . S
N1226 H1238 0.984 . S
N1226 H1239 0.985 . S
N1227 C1229 1.356 . S
N1227 H1232 0.984 . S
N1227 H1233 0.985 . S
C1228 C1222 1.379 . S
C1228 C1225 1.363 . S
C1228 N1226 1.356 . S
C1229 C1223 1.363 . S
C1229 C1224 1.379 . S
C1229 N1227 1.356 . S
N1230 C1222 1.356 . S
N1230 H1236 0.984 . S
N1230 H1237 0.984 . S
N1231 C1224 1.356 . S
N1231 H1234 0.984 . S
N1231 H1235 0.985 . S
H1232 N1227 0.984 . S
H1233 N1227 0.985 . S
H1234 N1231 0.984 . S
H1235 N1231 0.985 . S
H1236 N1230 0.984 . S
H1237 N1230 0.984 . S
H1238 N1226 0.984 . S
H1239 N1226 0.985 . S
C1240 C1241 1.357 1_556 S
C1240 C1246 1.384 . S
C1240 N1248 1.355 1_556 S
C1241 C1240 1.357 1_554 S
C1241 C1247 1.363 . S
C1242 C1243 1.357 1_554 S
C1242 C1247 1.384 . S
C1242 N1249 1.355 1_554 S
C1243 C1242 1.357 1_556 S
C1243 C1246 1.363 . S
N1244 C1246 1.356 . S
N1244 H1256 0.984 . S
N1244 H1257 0.985 . S
N1245 C1247 1.356 . S
N1245 H1250 0.984 . S
N1245 H1251 0.985 . S
C1246 C1240 1.384 . S
C1246 C1243 1.363 . S
C1246 N1244 1.356 . S
C1247 C1241 1.363 . S
C1247 C1242 1.384 . S
C1247 N1245 1.356 . S
N1248 C1240 1.355 1_554 S
N1248 H1254 0.984 1_554 S
N1248 H1255 0.984 . S
N1249 C1242 1.355 1_556 S
N1249 H1252 0.984 . S
N1249 H1253 0.985 1_556 S
H1250 N1245 0.984 . S
H1251 N1245 0.985 . S
H1252 N1249 0.984 . S
H1253 N1249 0.985 1_554 S
H1254 N1248 0.984 1_556 S
H1255 N1248 0.984 . S
H1256 N1244 0.984 . S
H1257 N1244 0.985 . S
C1258 C1259 1.363 1_455 S
C1258 C1264 1.379 . S
C1258 N1266 1.356 1_455 S
C1259 C1258 1.363 1_655 S
C1259 C1265 1.363 . S
C1260 C1261 1.363 1_655 S
C1260 C1265 1.379 . S
C1260 N1267 1.356 1_655 S
C1261 C1260 1.363 1_455 S
C1261 C1264 1.363 . S
N1262 C1264 1.356 . S
N1262 H1274 0.984 . S
N1262 H1275 0.985 . S
N1263 C1265 1.356 . S
N1263 H1268 0.984 . S
N1263 H1269 0.985 . S
C1264 C1258 1.379 . S
C1264 C1261 1.363 . S
C1264 N1262 1.356 . S
C1265 C1259 1.363 . S
C1265 C1260 1.379 . S
C1265 N1263 1.356 . S
N1266 C1258 1.356 1_655 S
N1266 H1272 0.984 1_655 S
N1266 H1273 0.984 . S
N1267 C1260 1.356 1_455 S
N1267 H1270 0.984 . S
N1267 H1271 0.985 1_455 S
H1268 N1263 0.984 . S
H1269 N1263 0.985 . S
H1270 N1267 0.984 . S
H1271 N1267 0.985 1_655 S
H1272 N1266 0.984 1_455 S
H1273 N1266 0.984 . S
H1274 N1262 0.984 . S
H1275 N1262 0.985 . S
C1276 C1277 1.363 . S
C1276 C1282 1.379 . S
C1276 N1284 1.356 . S
C1277 C1276 1.363 . S
C1277 C1283 1.363 1_456 S
C1278 C1279 1.363 . S
C1278 C1283 1.379 . S
C1278 N1285 1.356 . S
C1279 C1278 1.363 . S
C1279 C1282 1.363 1_654 S
N1280 C1282 1.356 1_655 S
N1280 H1292 0.984 1_655 S
N1280 H1293 0.985 1_556 S
N1281 C1283 1.356 1_455 S
N1281 H1286 0.984 1_554 S
N1281 H1287 0.985 1_455 S
C1282 C1276 1.379 . S
C1282 C1279 1.363 1_456 S
C1282 N1280 1.356 1_455 S
C1283 C1277 1.363 1_654 S
C1283 C1278 1.379 . S
C1283 N1281 1.356 1_655 S
N1284 C1276 1.356 . S
N1284 H1290 0.984 . S
N1284 H1291 0.984 . S
N1285 C1278 1.356 . S
N1285 H1288 0.984 . S
N1285 H1289 0.985 . S
H1286 N1281 0.984 1_556 S
H1287 N1281 0.985 1_655 S
H1288 N1285 0.984 . S
H1289 N1285 0.985 . S
H1290 N1284 0.984 . S
H1291 N1284 0.984 . S
H1292 N1280 0.984 1_455 S
H1293 N1280 0.985 1_554 S
C1294 C1295 1.363 . S
C1294 C1300 1.379 . S
C1294 N1302 1.356 . S
C1295 C1294 1.363 . S
C1295 C1301 1.363 . S
C1296 C1297 1.363 . S
C1296 C1301 1.379 . S
C1296 N1303 1.356 . S
C1297 C1296 1.363 . S
C1297 C1300 1.363 . S
N1298 C1300 1.356 . S
N1298 H1310 0.984 . S
N1298 H1311 0.985 . S
N1299 C1301 1.356 . S
N1299 H1304 0.984 . S
N1299 H1305 0.985 . S
C1300 C1294 1.379 . S
C1300 C1297 1.363 . S
C1300 N1298 1.356 . S
C1301 C1295 1.363 . S
C1301 C1296 1.379 . S
C1301 N1299 1.356 . S
N1302 C1294 1.356 . S
N1302 H1308 0.984 . S
N1302 H1309 0.984 . S
N1303 C1296 1.356 . S
N1303 H1306 0.984 . S
N1303 H1307 0.985 . S
H1304 N1299 0.984 . S
H1305 N1299 0.985 . S
H1306 N1303 0.984 . S
H1307 N1303 0.985 . S
H1308 N1302 0.984 . S
H1309 N1302 0.984 . S
H1310 N1298 0.984 . S
H1311 N1298 0.985 . S
C1312 C1313 1.363 . S
C1312 C1318 1.379 . S
C1312 N1320 1.356 . S
C1313 C1312 1.363 . S
C1313 C1319 1.363 . S
C1314 C1315 1.363 . S
C1314 C1319 1.379 . S
C1314 N1321 1.356 . S
C1315 C1314 1.363 . S
C1315 C1318 1.363 . S
N1316 C1318 1.356 . S
N1316 H1328 0.984 . S
N1316 H1329 0.985 . S
N1317 C1319 1.356 . S
N1317 H1322 0.984 . S
N1317 H1323 0.985 . S
C1318 C1312 1.379 . S
C1318 C1315 1.363 . S
C1318 N1316 1.356 . S
C1319 C1313 1.363 . S
C1319 C1314 1.379 . S
C1319 N1317 1.356 . S
N1320 C1312 1.356 . S
N1320 H1326 0.984 . S
N1320 H1327 0.984 . S
N1321 C1314 1.356 . S
N1321 H1324 0.984 . S
N1321 H1325 0.985 . S
H1322 N1317 0.984 . S
H1323 N1317 0.985 . S
H1324 N1321 0.984 . S
H1325 N1321 0.985 . S
H1326 N1320 0.984 . S
H1327 N1320 0.984 . S
H1328 N1316 0.984 . S
H1329 N1316 0.985 . S
C1330 C1331 1.363 . S
C1330 C1336 1.379 . S
C1330 N1338 1.356 . S
C1331 C1330 1.363 . S
C1331 C1337 1.363 . S
C1332 C1333 1.363 . S
C1332 C1337 1.379 . S
C1332 N1339 1.356 . S
C1333 C1332 1.363 . S
C1333 C1336 1.363 . S
N1334 C1336 1.356 . S
N1334 H1346 0.984 . S
N1334 H1347 0.985 . S
N1335 C1337 1.356 . S
N1335 H1340 0.984 . S
N1335 H1341 0.985 . S
C1336 C1330 1.379 . S
C1336 C1333 1.363 . S
C1336 N1334 1.356 . S
C1337 C1331 1.363 . S
C1337 C1332 1.379 . S
C1337 N1335 1.356 . S
N1338 C1330 1.356 . S
N1338 H1344 0.984 . S
N1338 H1345 0.984 . S
N1339 C1332 1.356 . S
N1339 H1342 0.984 . S
N1339 H1343 0.985 . S
H1340 N1335 0.984 . S
H1341 N1335 0.985 . S
H1342 N1339 0.984 . S
H1343 N1339 0.985 . S
H1344 N1338 0.984 . S
H1345 N1338 0.984 . S
H1346 N1334 0.984 . S
H1347 N1334 0.985 . S
C1348 C1349 1.363 . S
C1348 C1354 1.379 . S
C1348 N1356 1.356 . S
C1349 C1348 1.363 . S
C1349 C1355 1.363 . S
C1350 C1351 1.363 . S
C1350 C1355 1.379 . S
C1350 N1357 1.356 . S
C1351 C1350 1.363 . S
C1351 C1354 1.363 . S
N1352 C1354 1.356 . S
N1352 H1364 0.984 . S
N1352 H1365 0.985 . S
N1353 C1355 1.356 . S
N1353 H1358 0.984 . S
N1353 H1359 0.985 . S
C1354 C1348 1.379 . S
C1354 C1351 1.363 . S
C1354 N1352 1.356 . S
C1355 C1349 1.363 . S
C1355 C1350 1.379 . S
C1355 N1353 1.356 . S
N1356 C1348 1.356 . S
N1356 H1362 0.984 . S
N1356 H1363 0.984 . S
N1357 C1350 1.356 . S
N1357 H1360 0.984 . S
N1357 H1361 0.985 . S
H1358 N1353 0.984 . S
H1359 N1353 0.985 . S
H1360 N1357 0.984 . S
H1361 N1357 0.985 . S
H1362 N1356 0.984 . S
H1363 N1356 0.984 . S
H1364 N1352 0.984 . S
H1365 N1352 0.985 . S
C1366 C1367 1.363 . S
C1366 C1372 1.379 . S
C1366 N1374 1.356 . S
C1367 C1366 1.363 . S
C1367 C1373 1.363 . S
C1368 C1369 1.363 . S
C1368 C1373 1.379 . S
C1368 N1375 1.356 . S
C1369 C1368 1.363 . S
C1369 C1372 1.363 . S
N1370 C1372 1.356 . S
N1370 H1382 0.984 . S
N1370 H1383 0.985 . S
N1371 C1373 1.356 . S
N1371 H1376 0.984 . S
N1371 H1377 0.985 . S
C1372 C1366 1.379 . S
C1372 C1369 1.363 . S
C1372 N1370 1.356 . S
C1373 C1367 1.363 . S
C1373 C1368 1.379 . S
C1373 N1371 1.356 . S
N1374 C1366 1.356 . S
N1374 H1380 0.984 . S
N1374 H1381 0.984 . S
N1375 C1368 1.356 . S
N1375 H1378 0.984 . S
N1375 H1379 0.985 . S
H1376 N1371 0.984 . S
H1377 N1371 0.985 . S
H1378 N1375 0.984 . S
H1379 N1375 0.985 . S
H1380 N1374 0.984 . S
H1381 N1374 0.984 . S
H1382 N1370 0.984 . S
H1383 N1370 0.985 . S
C1384 C1385 1.363 . S
C1384 C1390 1.379 . S
C1384 N1392 1.356 . S
C1385 C1384 1.363 . S
C1385 C1391 1.363 . S
C1386 C1387 1.363 . S
C1386 C1391 1.379 . S
C1386 N1393 1.356 . S
C1387 C1386 1.363 . S
C1387 C1390 1.363 . S
N1388 C1390 1.356 . S
N1388 H1400 0.984 . S
N1388 H1401 0.985 . S
N1389 C1391 1.356 . S
N1389 H1394 0.984 . S
N1389 H1395 0.985 . S
C1390 C1384 1.379 . S
C1390 C1387 1.363 . S
C1390 N1388 1.356 . S
C1391 C1385 1.363 . S
C1391 C1386 1.379 . S
C1391 N1389 1.356 . S
N1392 C1384 1.356 . S
N1392 H1398 0.984 . S
N1392 H1399 0.984 . S
N1393 C1386 1.356 . S
N1393 H1396 0.984 . S
N1393 H1397 0.985 . S
H1394 N1389 0.984 . S
H1395 N1389 0.985 . S
H1396 N1393 0.984 . S
H1397 N1393 0.985 . S
H1398 N1392 0.984 . S
H1399 N1392 0.984 . S
H1400 N1388 0.984 . S
H1401 N1388 0.985 . S
C1402 C1403 1.363 . S
C1402 C1408 1.379 . S
C1402 N1410 1.356 . S
C1403 C1402 1.363 . S
C1403 C1409 1.363 . S
C1404 C1405 1.363 . S
C1404 C1409 1.379 . S
C1404 N1411 1.356 . S
C1405 C1404 1.363 . S
C1405 C1408 1.363 . S
N1406 C1408 1.356 . S
N1406 H1418 0.984 . S
N1406 H1419 0.985 . S
N1407 C1409 1.356 . S
N1407 H1412 0.984 . S
N1407 H1413 0.985 . S
C1408 C1402 1.379 . S
C1408 C1405 1.363 . S
C1408 N1406 1.356 . S
C1409 C1403 1.363 . S
C1409 C1404 1.379 . S
C1409 N1407 1.356 . S
N1410 C1402 1.356 . S
N1410 H1416 0.984 . S
N1410 H1417 0.984 . S
N1411 C1404 1.356 . S
N1411 H1414 0.984 . S
N1411 H1415 0.985 . S
H1412 N1407 0.984 . S
H1413 N1407 0.985 . S
H1414 N1411 0.984 . S
H1415 N1411 0.985 . S
H1416 N1410 0.984 . S
H1417 N1410 0.984 . S
H1418 N1406 0.984 . S
H1419 N1406 0.985 . S
C1420 C1421 1.363 . S
C1420 C1426 1.379 . S
C1420 N1428 1.356 . S
C1421 C1420 1.363 . S
C1421 C1427 1.363 . S
C1422 C1423 1.363 . S
C1422 C1427 1.379 . S
C1422 N1429 1.356 . S
C1423 C1422 1.363 . S
C1423 C1426 1.363 . S
N1424 C1426 1.356 . S
N1424 H1436 0.984 . S
N1424 H1437 0.985 . S
N1425 C1427 1.356 . S
N1425 H1430 0.984 . S
N1425 H1431 0.985 . S
C1426 C1420 1.379 . S
C1426 C1423 1.363 . S
C1426 N1424 1.356 . S
C1427 C1421 1.363 . S
C1427 C1422 1.379 . S
C1427 N1425 1.356 . S
N1428 C1420 1.356 . S
N1428 H1434 0.984 . S
N1428 H1435 0.984 . S
N1429 C1422 1.356 . S
N1429 H1432 0.984 . S
N1429 H1433 0.985 . S
H1430 N1425 0.984 . S
H1431 N1425 0.985 . S
H1432 N1429 0.984 . S
H1433 N1429 0.985 . S
H1434 N1428 0.984 . S
H1435 N1428 0.984 . S
H1436 N1424 0.984 . S
H1437 N1424 0.985 . S
C1438 C1439 1.363 . S
C1438 C1444 1.379 . S
C1438 N1446 1.356 . S
C1439 C1438 1.363 . S
C1439 C1445 1.363 . S
C1440 C1441 1.363 . S
C1440 C1445 1.379 . S
C1440 N1447 1.356 . S
C1441 C1440 1.363 . S
C1441 C1444 1.363 . S
N1442 C1444 1.356 . S
N1442 H1454 0.984 . S
N1442 H1455 0.985 . S
N1443 C1445 1.356 . S
N1443 H1448 0.984 . S
N1443 H1449 0.985 . S
C1444 C1438 1.379 . S
C1444 C1441 1.363 . S
C1444 N1442 1.356 . S
C1445 C1439 1.363 . S
C1445 C1440 1.379 . S
C1445 N1443 1.356 . S
N1446 C1438 1.356 . S
N1446 H1452 0.984 . S
N1446 H1453 0.984 . S
N1447 C1440 1.356 . S
N1447 H1450 0.984 . S
N1447 H1451 0.985 . S
H1448 N1443 0.984 . S
H1449 N1443 0.985 . S
H1450 N1447 0.984 . S
H1451 N1447 0.985 . S
H1452 N1446 0.984 . S
H1453 N1446 0.984 . S
H1454 N1442 0.984 . S
H1455 N1442 0.985 . S
C1456 C1457 1.363 . S
C1456 C1462 1.379 . S
C1456 N1464 1.356 . S
C1457 C1456 1.363 . S
C1457 C1463 1.363 . S
C1458 C1459 1.363 . S
C1458 C1463 1.379 . S
C1458 N1465 1.356 . S
C1459 C1458 1.363 . S
C1459 C1462 1.363 . S
N1460 C1462 1.356 . S
N1460 H1472 0.984 . S
N1460 H1473 0.985 . S
N1461 C1463 1.356 . S
N1461 H1466 0.984 . S
N1461 H1467 0.985 . S
C1462 C1456 1.379 . S
C1462 C1459 1.363 . S
C1462 N1460 1.356 . S
C1463 C1457 1.363 . S
C1463 C1458 1.379 . S
C1463 N1461 1.356 . S
N1464 C1456 1.356 . S
N1464 H1470 0.984 . S
N1464 H1471 0.984 . S
N1465 C1458 1.356 . S
N1465 H1468 0.984 . S
N1465 H1469 0.985 . S
H1466 N1461 0.984 . S
H1467 N1461 0.985 . S
H1468 N1465 0.984 . S
H1469 N1465 0.985 . S
H1470 N1464 0.984 . S
H1471 N1464 0.984 . S
H1472 N1460 0.984 . S
H1473 N1460 0.985 . S
C1474 C1475 1.363 . S
C1474 C1480 1.379 . S
C1474 N1482 1.356 . S
C1475 C1474 1.363 . S
C1475 C1481 1.363 . S
C1476 C1477 1.363 . S
C1476 C1481 1.379 . S
C1476 N1483 1.356 . S
C1477 C1476 1.363 . S
C1477 C1480 1.363 . S
N1478 C1480 1.356 . S
N1478 H1490 0.984 . S
N1478 H1491 0.985 . S
N1479 C1481 1.356 . S
N1479 H1484 0.984 . S
N1479 H1485 0.985 . S
C1480 C1474 1.379 . S
C1480 C1477 1.363 . S
C1480 N1478 1.356 . S
C1481 C1475 1.363 . S
C1481 C1476 1.379 . S
C1481 N1479 1.356 . S
N1482 C1474 1.356 . S
N1482 H1488 0.984 . S
N1482 H1489 0.984 . S
N1483 C1476 1.356 . S
N1483 H1486 0.984 . S
N1483 H1487 0.985 . S
H1484 N1479 0.984 . S
H1485 N1479 0.985 . S
H1486 N1483 0.984 . S
H1487 N1483 0.985 . S
H1488 N1482 0.984 . S
H1489 N1482 0.984 . S
H1490 N1478 0.984 . S
H1491 N1478 0.985 . S
C1492 C1493 1.363 . S
C1492 C1498 1.379 . S
C1492 N1500 1.356 . S
C1493 C1492 1.363 . S
C1493 C1499 1.363 . S
C1494 C1495 1.363 . S
C1494 C1499 1.379 . S
C1494 N1501 1.356 . S
C1495 C1494 1.363 . S
C1495 C1498 1.363 . S
N1496 C1498 1.356 . S
N1496 H1508 0.984 . S
N1496 H1509 0.985 . S
N1497 C1499 1.356 . S
N1497 H1502 0.984 . S
N1497 H1503 0.985 . S
C1498 C1492 1.379 . S
C1498 C1495 1.363 . S
C1498 N1496 1.356 . S
C1499 C1493 1.363 . S
C1499 C1494 1.379 . S
C1499 N1497 1.356 . S
N1500 C1492 1.356 . S
N1500 H1506 0.984 . S
N1500 H1507 0.984 . S
N1501 C1494 1.356 . S
N1501 H1504 0.984 . S
N1501 H1505 0.985 . S
H1502 N1497 0.984 . S
H1503 N1497 0.985 . S
H1504 N1501 0.984 . S
H1505 N1501 0.985 . S
H1506 N1500 0.984 . S
H1507 N1500 0.984 . S
H1508 N1496 0.984 . S
H1509 N1496 0.985 . S
C1510 C1511 1.363 . S
C1510 C1516 1.379 . S
C1510 N1518 1.356 . S
C1511 C1510 1.363 . S
C1511 C1517 1.363 . S
C1512 C1513 1.363 . S
C1512 C1517 1.379 . S
C1512 N1519 1.356 . S
C1513 C1512 1.363 . S
C1513 C1516 1.363 . S
N1514 C1516 1.356 . S
N1514 H1526 0.984 . S
N1514 H1527 0.985 . S
N1515 C1517 1.356 . S
N1515 H1520 0.984 . S
N1515 H1521 0.985 . S
C1516 C1510 1.379 . S
C1516 C1513 1.363 . S
C1516 N1514 1.356 . S
C1517 C1511 1.363 . S
C1517 C1512 1.379 . S
C1517 N1515 1.356 . S
N1518 C1510 1.356 . S
N1518 H1524 0.984 . S
N1518 H1525 0.984 . S
N1519 C1512 1.356 . S
N1519 H1522 0.984 . S
N1519 H1523 0.985 . S
H1520 N1515 0.984 . S
H1521 N1515 0.985 . S
H1522 N1519 0.984 . S
H1523 N1519 0.985 . S
H1524 N1518 0.984 . S
H1525 N1518 0.984 . S
H1526 N1514 0.984 . S
H1527 N1514 0.985 . S
C1528 C1529 1.363 . S
C1528 C1534 1.379 . S
C1528 N1536 1.356 . S
C1529 C1528 1.363 . S
C1529 C1535 1.363 . S
C1530 C1531 1.363 . S
C1530 C1535 1.379 . S
C1530 N1537 1.356 . S
C1531 C1530 1.363 . S
C1531 C1534 1.363 . S
N1532 C1534 1.356 . S
N1532 H1544 0.984 . S
N1532 H1545 0.985 . S
N1533 C1535 1.356 . S
N1533 H1538 0.984 . S
N1533 H1539 0.985 . S
C1534 C1528 1.379 . S
C1534 C1531 1.363 . S
C1534 N1532 1.356 . S
C1535 C1529 1.363 . S
C1535 C1530 1.379 . S
C1535 N1533 1.356 . S
N1536 C1528 1.356 . S
N1536 H1542 0.984 . S
N1536 H1543 0.984 . S
N1537 C1530 1.356 . S
N1537 H1540 0.984 . S
N1537 H1541 0.985 . S
H1538 N1533 0.984 . S
H1539 N1533 0.985 . S
H1540 N1537 0.984 . S
H1541 N1537 0.985 . S
H1542 N1536 0.984 . S
H1543 N1536 0.984 . S
H1544 N1532 0.984 . S
H1545 N1532 0.985 . S
C1546 C1547 1.363 . S
C1546 C1552 1.379 . S
C1546 N1554 1.356 . S
C1547 C1546 1.363 . S
C1547 C1553 1.363 . S
C1548 C1549 1.363 . S
C1548 C1553 1.379 . S
C1548 N1555 1.356 . S
C1549 C1548 1.363 . S
C1549 C1552 1.363 . S
N1550 C1552 1.356 . S
N1550 H1562 0.984 . S
N1550 H1563 0.985 . S
N1551 C1553 1.356 . S
N1551 H1556 0.984 . S
N1551 H1557 0.985 . S
C1552 C1546 1.379 . S
C1552 C1549 1.363 . S
C1552 N1550 1.356 . S
C1553 C1547 1.363 . S
C1553 C1548 1.379 . S
C1553 N1551 1.356 . S
N1554 C1546 1.356 . S
N1554 H1560 0.984 . S
N1554 H1561 0.984 . S
N1555 C1548 1.356 . S
N1555 H1558 0.984 . S
N1555 H1559 0.985 . S
H1556 N1551 0.984 . S
H1557 N1551 0.985 . S
H1558 N1555 0.984 . S
H1559 N1555 0.985 . S
H1560 N1554 0.984 . S
H1561 N1554 0.984 . S
H1562 N1550 0.984 . S
H1563 N1550 0.985 . S
C1564 C1565 1.363 . S
C1564 C1570 1.379 . S
C1564 N1572 1.356 . S
C1565 C1564 1.363 . S
C1565 C1571 1.363 . S
C1566 C1567 1.363 . S
C1566 C1571 1.379 . S
C1566 N1573 1.356 . S
C1567 C1566 1.363 . S
C1567 C1570 1.363 . S
N1568 C1570 1.356 . S
N1568 H1580 0.984 . S
N1568 H1581 0.985 . S
N1569 C1571 1.356 . S
N1569 H1574 0.984 . S
N1569 H1575 0.985 . S
C1570 C1564 1.379 . S
C1570 C1567 1.363 . S
C1570 N1568 1.356 . S
C1571 C1565 1.363 . S
C1571 C1566 1.379 . S
C1571 N1569 1.356 . S
N1572 C1564 1.356 . S
N1572 H1578 0.984 . S
N1572 H1579 0.984 . S
N1573 C1566 1.356 . S
N1573 H1576 0.984 . S
N1573 H1577 0.985 . S
H1574 N1569 0.984 . S
H1575 N1569 0.985 . S
H1576 N1573 0.984 . S
H1577 N1573 0.985 . S
H1578 N1572 0.984 . S
H1579 N1572 0.984 . S
H1580 N1568 0.984 . S
H1581 N1568 0.985 . S
C1582 C1583 1.363 . S
C1582 C1588 1.379 . S
C1582 N1590 1.356 . S
C1583 C1582 1.363 . S
C1583 C1589 1.363 . S
C1584 C1585 1.363 . S
C1584 C1589 1.379 . S
C1584 N1591 1.356 . S
C1585 C1584 1.363 . S
C1585 C1588 1.363 . S
N1586 C1588 1.356 . S
N1586 H1598 0.984 . S
N1586 H1599 0.985 . S
N1587 C1589 1.356 . S
N1587 H1592 0.984 . S
N1587 H1593 0.985 . S
C1588 C1582 1.379 . S
C1588 C1585 1.363 . S
C1588 N1586 1.356 . S
C1589 C1583 1.363 . S
C1589 C1584 1.379 . S
C1589 N1587 1.356 . S
N1590 C1582 1.356 . S
N1590 H1596 0.984 . S
N1590 H1597 0.984 . S
N1591 C1584 1.356 . S
N1591 H1594 0.984 . S
N1591 H1595 0.985 . S
H1592 N1587 0.984 . S
H1593 N1587 0.985 . S
H1594 N1591 0.984 . S
H1595 N1591 0.985 . S
H1596 N1590 0.984 . S
H1597 N1590 0.984 . S
H1598 N1586 0.984 . S
H1599 N1586 0.985 . S
C449 C135 1.214 . S
C451 C3 1.345 . S
C467 C17 1.344 1_455 S
C469 C373 1.214 . S
C485 C163 1.214 . S
C487 C31 1.345 . S
C503 C345 1.214 . S
C505 C45 1.344 . S
C521 C59 1.345 . S
C523 C219 1.214 . S
C539 C401 1.214 . S
C541 C73 1.344 . S
C557 C87 1.345 . S
C559 C191 1.214 . S
C575 C429 1.214 . S
C577 C101 1.344 1_455 S
C593 C23 1.214 . S
C595 C115 1.345 . S
C611 C129 1.344 1_655 S
C613 C261 1.214 . S
C629 C51 1.214 . S
C631 C143 1.345 . S
C647 C157 1.344 . S
C649 C233 1.214 . S
C665 C171 1.345 . S
C667 C107 1.214 . S
C683 C289 1.214 . S
C685 C185 1.344 . S
C701 C199 1.345 . S
C703 C79 1.214 . S
C719 C317 1.214 . S
C721 C213 1.344 1_655 S
C737 C359 1.214 . S
C739 C227 1.345 . S
C755 C149 1.214 . S
C757 C241 1.344 . S
C773 C255 1.345 . S
C775 C387 1.214 . S
C791 C121 1.214 . S
C793 C269 1.344 1_655 S
C809 C443 1.214 . S
C811 C283 1.345 . S
C827 C297 1.344 1_655 S
C829 C177 1.214 . S
C845 C415 1.214 . S
C847 C311 1.345 . S
C863 C205 1.214 . S
C865 C325 1.344 . S
C881 C247 1.214 . S
C883 C339 1.345 . S
C899 C353 1.344 . S
C901 C37 1.214 . S
C917 C367 1.345 . S
C919 C275 1.214 . S
C935 C381 1.344 1_455 S
C937 C9 1.214 . S
C953 C331 1.214 . S
C955 C395 1.345 . S
C971 C409 1.344 1_455 S
C973 C65 1.214 . S
C989 C423 1.345 . S
C991 C303 1.214 . S
C1007 C437 1.344 . S
C1009 C93 1.214 . S
C1025 C344 1.606 . S
C1027 C8 1.606 . S
C1043 C22 1.606 . S
C1045 C134 1.606 . S
C1061 C36 1.606 . S
C1063 C372 1.606 . S
C1079 C50 1.606 . S
C1081 C162 1.606 . S
C1097 C64 1.606 . S
C1099 C400 1.606 . S
C1115 C78 1.606 . S
C1117 C190 1.606 . S
C1133 C428 1.606 . S
C1135 C92 1.606 . S
C1151 C106 1.606 . S
C1153 C218 1.606 . S
C1169 C120 1.606 . S
C1171 C232 1.606 . S
C1187 C148 1.606 . S
C1189 C260 1.606 . S
C1205 C288 1.606 . S
C1207 C176 1.606 . S
C1223 C316 1.606 . S
C1225 C204 1.606 . S
C1241 C246 1.606 . S
C1243 C358 1.606 . S
C1259 C386 1.606 . S
C1261 C274 1.606 . S
C1277 C302 1.606 . S
C1279 C414 1.606 . S
C1295 C442 1.606 . S
C1297 C330 1.606 . S
C1313 C301 1.658 . S
C1315 C7 1.658 . S
C1331 C315 1.658 . S
C1333 C21 1.658 . S
C1349 C35 1.658 . S
C1351 C329 1.658 . S
C1367 C287 1.658 . S
C1369 C49 1.658 . S
C1385 C273 1.658 . S
C1387 C63 1.658 . S
C1403 C231 1.658 . S
C1405 C77 1.658 . S
C1421 C91 1.658 . S
C1423 C245 1.658 . S
C1439 C259 1.658 . S
C1441 C105 1.658 . S
C1457 C413 1.658 . S
C1459 C119 1.658 . S
C1475 C427 1.658 . S
C1477 C133 1.658 . S
C1493 C441 1.658 . S
C1495 C147 1.658 . S
C1511 C161 1.658 . S
C1513 C399 1.658 . S
C1529 C385 1.658 . S
C1531 C175 1.658 . S
C1547 C343 1.658 . S
C1549 C189 1.658 . S
C1565 C357 1.658 . S
C1567 C203 1.658 . S
C1583 C371 1.658 . S
C1585 C217 1.658 . S
