# Generated by pormake.
# Topology vbm, (6)-cn, num edge types: 1
# Building blocks:
#     Node 0, Type 0, BuildingBlock: KUMJIN_clean_sbu_1, # of connection points: 6
#     Node 1, Type 0, BuildingBlock: KUMJIN_clean_sbu_1, # of connection points: 6
#     Node 2, Type 0, BuildingBlock: KUMJIN_clean_sbu_1, # of connection points: 6
#     Node 3, Type 0, BuildingBlock: KUMJIN_clean_sbu_1, # of connection points: 6
#     Node 4, Type 0, BuildingBlock: KUMJIN_clean_sbu_1, # of connection points: 6
#     Node 5, Type 0, BuildingBlock: KUMJIN_clean_sbu_1, # of connection points: 6
#     Node 6, Type 0, BuildingBlock: KUMJIN_clean_sbu_1, # of connection points: 6
#     Node 7, Type 0, BuildingBlock: KUMJIN_clean_sbu_1, # of connection points: 6
#     Node 8, Type 0, BuildingBlock: KUMJIN_clean_sbu_1, # of connection points: 6
#     Node 9, Type 0, BuildingBlock: KUMJIN_clean_sbu_1, # of connection points: 6
#     Node 10, Type 0, BuildingBlock: KUMJIN_clean_sbu_1, # of connection points: 6
#     Node 11, Type 0, BuildingBlock: KUMJIN_clean_sbu_1, # of connection points: 6
#     Node 12, Type 0, BuildingBlock: KUMJIN_clean_sbu_1, # of connection points: 6
#     Node 13, Type 0, BuildingBlock: KUMJIN_clean_sbu_1, # of connection points: 6
#     Node 14, Type 0, BuildingBlock: KUMJIN_clean_sbu_1, # of connection points: 6
#     Node 15, Type 0, BuildingBlock: KUMJIN_clean_sbu_1, # of connection points: 6
#     Edge 16, Type (0, 0), BuildingBlock: CIFDUS_clean_linker_0, # of connection points: 2
#     Edge 17, Type (0, 0), BuildingBlock: CIFDUS_clean_linker_0, # of connection points: 2
#     Edge 18, Type (0, 0), BuildingBlock: CIFDUS_clean_linker_0, # of connection points: 2
#     Edge 19, Type (0, 0), BuildingBlock: CIFDUS_clean_linker_0, # of connection points: 2
#     Edge 20, Type (0, 0), BuildingBlock: CIFDUS_clean_linker_0, # of connection points: 2
#     Edge 21, Type (0, 0), BuildingBlock: CIFDUS_clean_linker_0, # of connection points: 2
#     Edge 22, Type (0, 0), BuildingBlock: CIFDUS_clean_linker_0, # of connection points: 2
#     Edge 23, Type (0, 0), BuildingBlock: CIFDUS_clean_linker_0, # of connection points: 2
#     Edge 24, Type (0, 0), BuildingBlock: CIFDUS_clean_linker_0, # of connection points: 2
#     Edge 25, Type (0, 0), BuildingBlock: CIFDUS_clean_linker_0, # of connection points: 2
#     Edge 26, Type (0, 0), BuildingBlock: CIFDUS_clean_linker_0, # of connection points: 2
#     Edge 27, Type (0, 0), BuildingBlock: CIFDUS_clean_linker_0, # of connection points: 2
#     Edge 28, Type (0, 0), BuildingBlock: CIFDUS_clean_linker_0, # of connection points: 2
#     Edge 29, Type (0, 0), BuildingBlock: CIFDUS_clean_linker_0, # of connection points: 2
#     Edge 30, Type (0, 0), BuildingBlock: CIFDUS_clean_linker_0, # of connection points: 2
#     Edge 31, Type (0, 0), BuildingBlock: CIFDUS_clean_linker_0, # of connection points: 2
#     Edge 32, Type (0, 0), BuildingBlock: CIFDUS_clean_linker_0, # of connection points: 2
#     Edge 33, Type (0, 0), BuildingBlock: CIFDUS_clean_linker_0, # of connection points: 2
#     Edge 34, Type (0, 0), BuildingBlock: CIFDUS_clean_linker_0, # of connection points: 2
#     Edge 35, Type (0, 0), BuildingBlock: CIFDUS_clean_linker_0, # of connection points: 2
#     Edge 36, Type (0, 0), BuildingBlock: CIFDUS_clean_linker_0, # of connection points: 2
#     Edge 37, Type (0, 0), BuildingBlock: CIFDUS_clean_linker_0, # of connection points: 2
#     Edge 38, Type (0, 0), BuildingBlock: CIFDUS_clean_linker_0, # of connection points: 2
#     Edge 39, Type (0, 0), BuildingBlock: CIFDUS_clean_linker_0, # of connection points: 2
#     Edge 40, Type (0, 0), BuildingBlock: CIFDUS_clean_linker_0, # of connection points: 2
#     Edge 41, Type (0, 0), BuildingBlock: CIFDUS_clean_linker_0, # of connection points: 2
#     Edge 42, Type (0, 0), BuildingBlock: CIFDUS_clean_linker_0, # of connection points: 2
#     Edge 43, Type (0, 0), BuildingBlock: CIFDUS_clean_linker_0, # of connection points: 2
#     Edge 44, Type (0, 0), BuildingBlock: CIFDUS_clean_linker_0, # of connection points: 2
#     Edge 45, Type (0, 0), BuildingBlock: CIFDUS_clean_linker_0, # of connection points: 2
#     Edge 46, Type (0, 0), BuildingBlock: CIFDUS_clean_linker_0, # of connection points: 2
#     Edge 47, Type (0, 0), BuildingBlock: CIFDUS_clean_linker_0, # of connection points: 2
#     Edge 48, Type (0, 0), BuildingBlock: CIFDUS_clean_linker_0, # of connection points: 2
#     Edge 49, Type (0, 0), BuildingBlock: CIFDUS_clean_linker_0, # of connection points: 2
#     Edge 50, Type (0, 0), BuildingBlock: CIFDUS_clean_linker_0, # of connection points: 2
#     Edge 51, Type (0, 0), BuildingBlock: CIFDUS_clean_linker_0, # of connection points: 2
#     Edge 52, Type (0, 0), BuildingBlock: CIFDUS_clean_linker_0, # of connection points: 2
#     Edge 53, Type (0, 0), BuildingBlock: CIFDUS_clean_linker_0, # of connection points: 2
#     Edge 54, Type (0, 0), BuildingBlock: CIFDUS_clean_linker_0, # of connection points: 2
#     Edge 55, Type (0, 0), BuildingBlock: CIFDUS_clean_linker_0, # of connection points: 2
#     Edge 56, Type (0, 0), BuildingBlock: CIFDUS_clean_linker_0, # of connection points: 2
#     Edge 57, Type (0, 0), BuildingBlock: CIFDUS_clean_linker_0, # of connection points: 2
#     Edge 58, Type (0, 0), BuildingBlock: CIFDUS_clean_linker_0, # of connection points: 2
#     Edge 59, Type (0, 0), BuildingBlock: CIFDUS_clean_linker_0, # of connection points: 2
#     Edge 60, Type (0, 0), BuildingBlock: CIFDUS_clean_linker_0, # of connection points: 2
#     Edge 61, Type (0, 0), BuildingBlock: CIFDUS_clean_linker_0, # of connection points: 2
#     Edge 62, Type (0, 0), BuildingBlock: CIFDUS_clean_linker_0, # of connection points: 2
#     Edge 63, Type (0, 0), BuildingBlock: CIFDUS_clean_linker_0, # of connection points: 2
# Relax obj value: 0.077
# Max RMSD: 0.144
# Mean RMSD: 0.144
data_MOF--net-vbm--node1-KUMJIN_clean_sbu_1--edge1-CIFDUS_clean_linker_0
_symmetry_space_group_name_H-M    P1
_symmetry_Int_Tables_number       1
_symmetry_cell_setting            triclinic
loop_
_symmetry_equiv_pos_as_xyz
'x, y, z'
_cell_length_a     46.439624
_cell_length_b     23.047885
_cell_length_c     50.167751
_cell_angle_alpha  90.018141
_cell_angle_beta   90.233429
_cell_angle_gamma 89.920709
loop_
_atom_site_label
_atom_site_type_symbol
_atom_site_fract_x
_atom_site_fract_y
_atom_site_fract_z
_atom_type_partial_charge
Eu0 Eu 0.12583 0.19567 0.14674 0.0
C1 C 0.22515 0.04852 0.11015 0.0
N2 N 0.19982 0.0566 0.09706 0.0
C3 C 0.22478 0.0767 0.05645 0.0
C4 C 0.25152 0.05646 0.0969 0.0
C5 C 0.19913 0.06855 0.07043 0.0
C6 C 0.25111 0.07121 0.0698 0.0
C7 C 0.25059 0.0236 0.15086 0.0
C8 C 0.22456 0.03283 0.13694 0.0
C9 C 0.27689 0.03213 0.13779 0.0
C10 C 0.27737 0.04893 0.11097 0.0
Eu11 Eu 0.15777 0.04275 0.12199 0.0
N12 N 0.1987 0.0245 0.14905 0.0
C13 C 0.24944 1.00466 0.17733 0.0
C14 C 0.19755 1.002 0.17419 0.0
C15 C 0.22279 0.99303 0.18891 0.0
H16 H 0.17876 0.07228 0.0601 0.0
H17 H 0.2217 0.97611 0.209 0.0
H18 H 0.12548 0.19668 0.21441 0.0
H19 H 0.03591 0.24804 0.08056 0.0
H20 H 0.17738 0.9891 0.18281 0.0
H21 H 0.26899 0.99715 0.18869 0.0
H22 H 0.08719 0.23854 0.09379 0.0
H23 H 0.22425 0.08717 0.03543 0.0
H24 H 0.29694 0.02468 0.14816 0.0
H25 H 0.29776 0.05531 0.10111 0.0
H26 H 0.09057 0.18196 0.25072 0.0
H27 H 0.27097 0.07763 0.05895 0.0
H28 H 0.99756 0.22564 0.1131 0.0
N29 N 0.09407 0.18971 0.18359 0.0
C30 C 0.06547 0.1898 0.17766 0.0
C31 C 0.08324 0.18312 0.23022 0.0
C32 C 0.04462 0.1834 0.19781 0.0
C33 C 0.10303 0.19034 0.20955 0.0
C34 C 0.05393 0.17836 0.22429 0.0
N35 N 0.07757 0.20955 0.13296 0.0
C36 C 0.07046 0.22898 0.10804 0.0
C37 C 0.02751 0.20561 0.14502 0.0
C38 C 0.05695 0.20095 0.15165 0.0
C39 C 0.01995 0.22156 0.11897 0.0
C40 C 0.04154 0.23431 0.10054 0.0
H41 H 0.03861 0.17338 0.24035 0.0
H42 H 0.99891 0.17906 0.20623 0.0
H43 H 0.98393 0.1983 0.15993 0.0
O44 O 0.1431 0.27525 0.12913 0.0
O45 O 0.09703 0.13128 0.12512 0.0
O46 O 0.11204 0.04153 0.13859 0.0
O47 O 0.11968 0.27938 0.16617 0.0
O48 O 0.13825 0.19011 0.10241 0.0
O49 O 0.13355 0.09288 0.09061 0.0
O50 O 0.16577 0.94883 0.12351 0.0
O51 O 0.18258 0.12828 0.11768 0.0
O52 O 0.1723 0.17406 0.15642 0.0
O53 O 0.1434 0.9871 0.08927 0.0
O54 O 0.13828 0.04422 0.16297 0.0
O55 O 0.14554 0.1368 0.17924 0.0
C56 C 0.09131 0.07815 0.13254 0.0
C57 C 0.15258 0.35522 0.15747 0.0
C58 C 0.16732 0.4564 0.15336 0.0
C59 C 0.18394 0.45034 0.17668 0.0
C60 C 0.17002 0.34918 0.18017 0.0
C61 C 0.18563 0.39674 0.18971 0.0
C62 C 0.15165 0.40842 0.14396 0.0
C63 C 0.13474 0.14838 0.08452 0.0
C64 C 0.13369 0.30835 0.1482 0.0
C65 C 0.01522 0.18466 0.19106 0.0
C66 C 1.00668 0.19576 0.16471 0.0
C67 C 0.1902 0.16405 0.13686 0.0
C68 C 0.15017 0.88224 0.0884 0.0
C69 C 0.15038 0.77613 0.09235 0.0
C70 C 0.1389 0.77277 0.06632 0.0
C71 C 0.13931 0.87727 0.06237 0.0
C72 C 0.1562 0.83157 0.10312 0.0
C73 C 0.13384 0.82284 0.05143 0.0
C74 C 0.14014 0.08102 0.1829 0.0
C75 C 0.15299 0.94015 0.10071 0.0
H76 H 0.19595 0.48673 0.1846 0.0
H77 H 0.17114 0.30821 0.19071 0.0
H78 H 0.19885 0.39224 0.20741 0.0
H79 H 0.13803 0.41286 0.12645 0.0
H80 H 0.13314 0.73155 0.05748 0.0
H81 H 0.1345 0.9155 0.0506 0.0
H82 H 0.16503 0.83556 0.12304 0.0
H83 H 0.12504 0.81945 0.03147 0.0
Eu84 Eu 0.90462 0.81731 0.14889 0.0
C85 C 0.79837 0.94277 0.11326 0.0
N86 N 0.82458 0.94184 0.10131 0.0
C87 C 0.8027 0.91694 0.05954 0.0
C88 C 0.77327 0.92797 0.0989 0.0
C89 C 0.82701 0.93126 0.07467 0.0
C90 C 0.77574 0.91463 0.07176 0.0
C91 C 0.77 0.95645 0.15327 0.0
C92 C 0.79685 0.95694 0.14016 0.0
C93 C 0.74501 0.94075 0.13914 0.0
C94 C 0.74664 0.92667 0.11203 0.0
Eu95 Eu 0.86462 0.96578 0.12813 0.0
N96 N 0.82151 0.97107 0.15348 0.0
C97 C 0.76901 0.97211 0.18018 0.0
C98 C 0.82028 0.98943 0.17931 0.0
C99 C 0.79421 0.98937 0.19314 0.0
H100 H 0.84767 0.93434 0.06506 0.0
H101 H 0.79354 1.00325 0.21375 0.0
H102 H 0.90413 0.78489 0.21391 0.0
H103 H 0.99492 0.79884 0.07966 0.0
H104 H 0.83909 1.00545 0.1893 0.0
H105 H 0.74884 0.97221 0.19096 0.0
H106 H 0.94366 0.80154 0.09283 0.0
H107 H 0.80475 0.90787 0.03846 0.0
H108 H 0.72427 0.93981 0.14896 0.0
H109 H 0.72715 0.91495 0.10137 0.0
H110 H 0.93884 0.7788 0.25153 0.0
H111 H 0.75696 0.90316 0.06002 0.0
H112 H 0.03306 0.80365 0.1142 0.0
N113 N 0.9362 0.80422 0.18534 0.0
C114 C 0.9648 0.80619 0.17991 0.0
C115 C 0.94643 0.78734 0.23154 0.0
C116 C 0.98546 0.8014 0.20047 0.0
C117 C 0.92682 0.79174 0.21038 0.0
C118 C 0.97588 0.79331 0.22664 0.0
N119 N 0.9529 0.81082 0.13417 0.0
C120 C 0.9602 0.80405 0.10797 0.0
C121 C 1.0029 0.80732 0.14698 0.0
C122 C 0.97342 0.80918 0.15352 0.0
C123 C 1.01064 0.80517 0.12005 0.0
C124 C 0.98917 0.80241 0.10048 0.0
H125 H 0.99106 0.78944 0.24301 0.0
H126 H 0.0311 0.79992 0.20972 0.0
H127 H 0.04637 0.80505 0.16285 0.0
O128 O 0.88458 0.74545 0.12748 0.0
O129 O 0.93147 0.89047 0.13212 0.0
O130 O 0.91044 0.97685 0.14419 0.0
O131 O 0.91233 0.72761 0.16116 0.0
O132 O 0.89039 0.82817 0.10543 0.0
O133 O 0.89346 0.9264 0.09684 0.0
O134 O 0.85302 0.05738 0.1328 0.0
O135 O 0.84483 0.87523 0.12576 0.0
O136 O 0.8597 0.83387 0.16419 0.0
O137 O 0.87046 0.02684 0.09551 0.0
O138 O 0.8822 0.96668 0.17034 0.0
O139 O 0.88873 0.87112 0.18482 0.0
C140 C 0.9333 0.94364 0.14108 0.0
C141 C 0.87623 0.65914 0.15148 0.0
C142 C 0.86688 0.55555 0.15501 0.0
C143 C 0.84024 0.56793 0.16686 0.0
C144 C 0.84958 0.67098 0.16332 0.0
C145 C 0.83157 0.62539 0.17087 0.0
C146 C 0.88482 0.60155 0.1474 0.0
C147 C 0.89343 0.87209 0.08886 0.0
C148 C 0.8955 0.7058 0.14302 0.0
C149 C 0.0149 0.80284 0.19417 0.0
C150 C 0.0236 0.80574 0.16747 0.0
C151 C 0.83909 0.84447 0.14705 0.0
C152 C 0.88424 0.12043 0.10978 0.0
C153 C 0.89443 0.22351 0.11639 0.0
C154 C 0.92347 0.21287 0.10992 0.0
C155 C 0.91333 0.11096 0.10359 0.0
C156 C 0.87498 0.17656 0.11642 0.0
C157 C 0.93281 0.15691 0.10378 0.0
C158 C 0.88646 0.92784 0.18931 0.0
C159 C 0.86354 0.07197 0.10975 0.0
H160 H 0.82649 0.53299 0.17339 0.0
H161 H 0.84285 0.7152 0.16681 0.0
H162 H 0.81099 0.63457 0.18002 0.0
H163 H 0.90535 0.59257 0.13802 0.0
H164 H 0.93898 0.24785 0.10915 0.0
H165 H 0.92094 0.06806 0.09846 0.0
H166 H 0.85265 0.18329 0.12181 0.0
H167 H 0.95518 0.14922 0.09888 0.0
Eu168 Eu 0.13564 0.82388 0.36217 0.0
C169 C 0.22971 0.95632 0.41978 0.0
N170 N 0.20193 0.95006 0.42791 0.0
C171 C 0.21778 0.91911 0.47103 0.0
C172 C 0.25272 0.94285 0.43716 0.0
C173 C 0.1957 0.93425 0.45338 0.0
C174 C 0.24642 0.92376 0.46298 0.0
C175 C 0.2637 0.97502 0.38413 0.0
C176 C 0.23506 0.97205 0.39339 0.0
C177 C 0.28662 0.96304 0.40163 0.0
C178 C 0.28116 0.94702 0.42803 0.0
Eu179 Eu 0.16604 0.97254 0.39634 0.0
N180 N 0.21235 0.98104 0.37645 0.0
C181 C 0.2685 0.98857 0.35736 0.0
C182 C 0.21713 0.99498 0.3504 0.0
C183 C 0.24513 0.99876 0.34049 0.0
H184 H 0.17371 0.93366 0.4601 0.0
H185 H 0.24867 1.00938 0.31974 0.0
H186 H 0.14172 0.81835 0.29565 0.0
H187 H 0.04505 0.76094 0.42505 0.0
H188 H 0.19972 1.00322 0.33694 0.0
H189 H 0.29013 0.99077 0.34945 0.0
H190 H 0.0953 0.78759 0.41518 0.0
H191 H 0.21269 0.90409 0.49088 0.0
H192 H 0.30869 0.96497 0.39482 0.0
H193 H 0.2991 0.93692 0.44112 0.0
H194 H 0.11063 0.80229 0.2562 0.0
H195 H 0.26349 0.91231 0.47681 0.0
H196 H 1.00983 0.74996 0.38826 0.0
N197 N 0.10773 0.80697 0.3234 0.0
C198 C 0.07972 0.79253 0.32708 0.0
C199 C 0.10161 0.79975 0.27602 0.0
C200 C 0.0612 0.78278 0.30518 0.0
C201 C 0.11909 0.8091 0.29837 0.0
C202 C 0.07245 0.78713 0.27941 0.0
N203 N 0.08836 0.79446 0.37339 0.0
C204 C 0.0801 0.78362 0.39902 0.0
C205 C 0.04088 0.76993 0.3575 0.0
C206 C 0.06974 0.7858 0.35285 0.0
C207 C 0.03185 0.76197 0.38383 0.0
C208 C 0.05165 0.76819 0.40466 0.0
H209 H 0.05894 0.77992 0.26206 0.0
H210 H 0.01765 0.76103 0.29311 0.0
H211 H 0.99979 0.75016 0.33898 0.0
O212 O 0.14691 0.74036 0.38078 0.0
O213 O 0.09997 0.88439 0.37442 0.0
O214 O 0.11843 0.97695 0.3836 0.0
O215 O 0.1543 0.75355 0.33886 0.0
O216 O 0.14655 0.82699 0.407 0.0
O217 O 0.13492 0.91954 0.42058 0.0
O218 O 0.17425 0.06633 0.39232 0.0
O219 O 0.19129 0.88709 0.39579 0.0
O220 O 0.17869 0.86331 0.35427 0.0
O221 O 0.15892 0.03063 0.43015 0.0
O222 O 0.1527 0.98549 0.35353 0.0
O223 O 0.14372 0.8971 0.33171 0.0
C224 C 0.09707 0.9407 0.37786 0.0
C225 C 0.1414 0.6585 0.35219 0.0
C226 C 0.13855 0.55404 0.36081 0.0
C227 C 0.12013 0.54814 0.33869 0.0
C228 C 0.12262 0.65132 0.33036 0.0
C229 C 0.11212 0.59653 0.32373 0.0
C230 C 0.14905 0.60961 0.36758 0.0
C231 C 0.13791 0.86393 0.42547 0.0
C232 C 0.15391 0.71614 0.35825 0.0
C233 C 0.03226 0.76821 0.30968 0.0
C234 C 0.0221 0.76195 0.3358 0.0
C235 C 0.19717 0.85979 0.37364 0.0
C236 C 0.16811 0.1345 0.42937 0.0
C237 C 0.16817 0.24092 0.42564 0.0
C238 C 0.17511 0.24394 0.45301 0.0
C239 C 0.17415 0.13932 0.45668 0.0
C240 C 0.16483 0.18531 0.41396 0.0
C241 C 0.1777 0.19369 0.46834 0.0
C242 C 0.14678 0.95457 0.33207 0.0
C243 C 0.16725 0.07633 0.417 0.0
H244 H 0.1115 0.5061 0.33326 0.0
H245 H 0.11626 0.68782 0.31816 0.0
H246 H 0.09774 0.59155 0.30684 0.0
H247 H 0.1635 0.61461 0.38445 0.0
H248 H 0.17906 0.28508 0.46273 0.0
H249 H 0.17695 0.10091 0.46888 0.0
H250 H 0.15946 0.18113 0.39303 0.0
H251 H 0.18297 0.19693 0.48933 0.0
Eu252 Eu 0.90732 0.21093 0.36718 0.0
C253 C 0.8093 0.0654 0.40941 0.0
N254 N 0.8362 0.06947 0.42001 0.0
C255 C 0.81656 0.08348 0.46359 0.0
C256 C 0.78481 0.07249 0.4256 0.0
C257 C 0.8402 0.0764 0.44676 0.0
C258 C 0.78873 0.08208 0.45295 0.0
C259 C 0.77868 0.05112 0.3707 0.0
C260 C 0.80638 0.05511 0.38218 0.0
C261 C 0.75425 0.0588 0.38675 0.0
C262 C 0.75728 0.06956 0.41408 0.0
Eu263 Eu 0.87485 0.05784 0.39032 0.0
N264 N 0.83049 0.04786 0.36709 0.0
C265 C 0.77631 0.03838 0.34351 0.0
C266 C 0.82814 0.03148 0.34105 0.0
C267 C 0.80115 0.02771 0.32873 0.0
H268 H 0.86162 0.07609 0.45516 0.0
H269 H 0.7995 0.01557 0.30794 0.0
H270 H 0.91008 0.21403 0.29986 0.0
H271 H 0.99431 0.26791 0.43556 0.0
H272 H 0.84681 0.01941 0.32982 0.0
H273 H 0.75544 0.03501 0.33394 0.0
H274 H 0.94368 0.2543 0.42116 0.0
H275 H 0.81982 0.08972 0.48477 0.0
H276 H 0.73288 0.05556 0.37837 0.0
H277 H 0.73818 0.07498 0.42616 0.0
H278 H 0.94596 0.19964 0.26427 0.0
H279 H 0.77044 0.08766 0.46604 0.0
H280 H 0.034 0.24821 0.404 0.0
N281 N 0.94032 0.20473 0.33131 0.0
C282 C 0.96871 0.20622 0.33798 0.0
C283 C 0.95265 0.19998 0.28497 0.0
C284 C 0.99025 0.20122 0.31834 0.0
C285 C 0.93221 0.2062 0.30516 0.0
C286 C 0.9818 0.19602 0.29163 0.0
N287 N 0.95495 0.2256 0.38231 0.0
C288 C 0.96096 0.24553 0.40736 0.0
C289 C 1.00539 0.22521 0.37146 0.0
C290 C 0.97627 0.21822 0.36416 0.0
C291 C 1.01188 0.24222 0.39762 0.0
C292 C 0.98954 0.25341 0.4155 0.0
H293 H 0.99765 0.19219 0.27594 0.0
H294 H 0.03622 0.20015 0.31103 0.0
H295 H 0.04949 0.22105 0.35761 0.0
O296 O 0.89058 0.2913 0.3845 0.0
O297 O 0.93632 0.14512 0.38764 0.0
O298 O 0.92005 0.05757 0.37265 0.0
O299 O 0.91426 0.29401 0.34757 0.0
O300 O 0.89466 0.20353 0.41127 0.0
O301 O 0.90008 0.10588 0.42205 0.0
O302 O 0.86413 0.96599 0.38625 0.0
O303 O 0.85074 0.14316 0.39599 0.0
O304 O 0.86055 0.19139 0.35775 0.0
O305 O 0.8897 0.99488 0.4198 0.0
O306 O 0.89129 0.06075 0.34795 0.0
O307 O 0.88644 0.15609 0.33397 0.0
C308 C 0.9412 0.09142 0.38041 0.0
C309 C 0.88167 0.37027 0.35551 0.0
C310 C 0.87056 0.47382 0.35509 0.0
C311 C 0.84942 0.46335 0.33546 0.0
C312 C 0.86002 0.36019 0.33656 0.0
C313 C 0.84407 0.40681 0.32647 0.0
C314 C 0.88685 0.42666 0.36462 0.0
C315 C 0.89849 0.16115 0.42877 0.0
C316 C 0.90033 0.32372 0.36534 0.0
C317 C 0.0194 0.20459 0.3258 0.0
C318 C 0.02695 0.21667 0.35231 0.0
C319 C 0.84274 0.17908 0.3771 0.0
C320 C 0.90081 0.90309 0.40099 0.0
C321 C 0.90972 0.80377 0.38657 0.0
C322 C 0.93941 0.81243 0.38989 0.0
C323 C 0.93068 0.91148 0.40381 0.0
C324 C 0.89048 0.84914 0.39211 0.0
C325 C 0.94982 0.86624 0.39831 0.0
C326 C 0.88892 0.09989 0.32896 0.0
C327 C 0.88021 0.95042 0.40631 0.0
H328 H 0.83629 0.49838 0.32771 0.0
H329 H 0.85578 0.31667 0.32938 0.0
H330 H 0.82738 0.3991 0.31178 0.0
H331 H 0.90416 0.43371 0.37881 0.0
H332 H 0.95449 0.77777 0.38565 0.0
H333 H 0.93929 0.95292 0.41015 0.0
H334 H 0.86752 0.84238 0.38958 0.0
H335 H 0.97278 0.87296 0.4005 0.0
Eu336 Eu 0.86129 0.98459 0.89035 0.0
C337 C 0.96107 0.83012 0.84152 0.0
N338 N 0.93255 0.82574 0.83574 0.0
C339 C 0.94339 0.81009 0.78964 0.0
C340 C 0.9819 0.82768 0.82117 0.0
C341 C 0.92365 0.81187 0.81062 0.0
C342 C 0.9726 0.81941 0.79485 0.0
C343 C 0.99903 0.83008 0.87491 0.0
C344 C 0.96956 0.83132 0.86805 0.0
C345 C 0.01983 0.83175 0.85469 0.0
C346 C 1.01128 0.83063 0.82785 0.0
Eu347 Eu 0.90072 0.83598 0.87203 0.0
N348 N 0.94893 0.82987 0.88717 0.0
C349 C 1.00666 0.82506 0.90186 0.0
C350 C 0.95616 0.82092 0.91327 0.0
C351 C 0.98512 0.81933 0.92106 0.0
H352 H 0.90126 0.8019 0.80688 0.0
H353 H 0.99081 0.81373 0.94184 0.0
H354 H 0.84692 0.94808 0.95356 0.0
H355 H 0.78772 0.04131 0.80876 0.0
H356 H 0.9396 0.81595 0.92812 0.0
H357 H 0.02907 0.82383 0.90794 0.0
H358 H 0.83475 0.02762 0.83018 0.0
H359 H 0.93611 0.80078 0.76957 0.0
H360 H 0.04259 0.83182 0.85958 0.0
H361 H 0.02759 0.82968 0.81247 0.0
H362 H 0.80466 0.92846 0.98166 0.0
H363 H 0.98791 0.8173 0.77863 0.0
H364 H 0.74316 0.0241 0.83421 0.0
N365 N 0.82233 0.96222 0.91835 0.0
C366 C 0.79564 0.96989 0.90771 0.0
C367 C 0.80182 0.93933 0.96083 0.0
C368 C 0.77083 0.96105 0.92331 0.0
C369 C 0.82577 0.94946 0.94474 0.0
C370 C 0.7742 0.94467 0.95002 0.0
N371 N 0.81751 0.99649 0.86672 0.0
C372 C 0.81574 0.01655 0.84117 0.0
C373 C 0.76572 0.99691 0.86996 0.0
C374 C 0.79319 0.98719 0.88119 0.0
C375 C 0.76384 0.01578 0.84351 0.0
C376 C 0.78896 0.02554 0.82906 0.0
H377 H 0.75565 0.9375 0.96262 0.0
H378 H 0.72422 0.96476 0.92382 0.0
H379 H 0.72001 0.99875 0.87775 0.0
O380 O 0.85018 0.0776 0.88691 0.0
O381 O 0.83983 0.89521 0.89379 0.0
O382 O 0.85583 0.85213 0.85628 0.0
O383 O 0.87244 0.04417 0.9223 0.0
O384 O 0.877 0.98252 0.84763 0.0
O385 O 0.88434 0.88605 0.83501 0.0
O386 O 0.87747 0.76301 0.8899 0.0
O387 O 0.92766 0.91043 0.88792 0.0
O388 O 0.90596 0.99269 0.8718 0.0
O389 O 0.91211 0.74689 0.86232 0.0
O390 O 0.88826 0.84985 0.91595 0.0
O391 O 0.89086 0.94897 0.9217 0.0
C392 C 0.83491 0.86191 0.87303 0.0
C393 C 0.86189 0.14706 0.92245 0.0
C394 C 0.86119 0.25265 0.91884 0.0
C395 C 0.86692 0.25671 0.9463 0.0
C396 C 0.86746 0.15224 0.94991 0.0
C397 C 0.8698 0.20677 0.96173 0.0
C398 C 0.85829 0.19757 0.90699 0.0
C399 C 0.88102 0.94205 0.82935 0.0
C400 C 0.86151 0.08897 0.91013 0.0
C401 C 0.74354 0.97047 0.91207 0.0
C402 C 0.74107 0.98911 0.88564 0.0
C403 C 0.92925 0.96274 0.87781 0.0
C404 C 0.87542 0.67757 0.86365 0.0
C405 C 0.86637 0.57354 0.85933 0.0
C406 C 0.85055 0.58471 0.83585 0.0
C407 C 0.85914 0.68802 0.84057 0.0
C408 C 0.8784 0.62085 0.87324 0.0
C409 C 0.8466 0.64165 0.82686 0.0
C410 C 0.89252 0.896 0.93104 0.0
C411 C 0.89182 0.72406 0.8766 0.0
H412 H 0.86904 0.29868 0.95583 0.0
H413 H 0.87022 0.11408 0.96227 0.0
H414 H 0.87415 0.21033 0.98288 0.0
H415 H 0.85431 0.19417 0.88574 0.0
H416 H 0.84129 0.54958 0.82435 0.0
H417 H 0.85671 0.7317 0.83289 0.0
H418 H 0.8905 0.61383 0.89147 0.0
H419 H 0.83425 0.64973 0.80889 0.0
Eu420 Eu 0.16384 0.03881 0.88626 0.0
C421 C 0.05935 0.21001 0.85634 0.0
N422 N 0.08366 0.19357 0.84348 0.0
C423 C 0.05713 0.18171 0.80277 0.0
C424 C 0.03256 0.21096 0.84301 0.0
C425 C 0.08317 0.1813 0.81688 0.0
C426 C 0.03164 0.19597 0.81596 0.0
C427 C 0.03673 0.2459 0.89652 0.0
C428 C 0.06147 0.22723 0.88271 0.0
C429 C 1.00978 0.24469 0.88369 0.0
C430 C 1.0077 0.22734 0.85698 0.0
Eu431 Eu 0.12645 0.19048 0.86888 0.0
N432 N 0.0879 0.22857 0.89442 0.0
C433 C 0.03994 0.26669 0.92257 0.0
C434 C 0.09135 0.25251 0.91914 0.0
C435 C 0.06743 0.27083 0.93376 0.0
H436 H 0.10283 0.17101 0.80649 0.0
H437 H 0.07025 0.28868 0.95356 0.0
H438 H 0.17096 0.05393 0.95364 0.0
H439 H 0.24582 0.02892 0.80937 0.0
H440 H 0.11254 0.25816 0.92768 0.0
H441 H 0.02147 0.28134 0.93387 0.0
H442 H 0.19652 0.0216 0.82785 0.0
H443 H 0.05674 0.17114 0.78175 0.0
H444 H 0.9905 0.25833 0.89407 0.0
H445 H 0.98686 0.22766 0.84718 0.0
H446 H 0.20897 0.0794 0.98574 0.0
H447 H 1.01148 0.19616 0.805 0.0
H448 H 0.28633 0.05477 0.83894 0.0
N449 N 0.19837 0.05925 0.91979 0.0
C450 C 0.22607 0.0634 0.91109 0.0
C451 C 0.214 0.07586 0.96475 0.0
C452 C 0.24867 0.07654 0.92895 0.0
C453 C 0.1923 0.06266 0.94635 0.0
C454 C 0.24223 0.08358 0.956 0.0
N455 N 0.20973 0.04384 0.8671 0.0
C456 C 0.21438 0.03248 0.84078 0.0
C457 C 0.26029 0.0594 0.87451 0.0
C458 C 0.23198 0.05452 0.88415 0.0
C459 C 0.26508 0.05072 0.84724 0.0
C460 C 0.24214 0.03647 0.83037 0.0
H461 H 0.25899 0.09371 0.97035 0.0
H462 H 0.29451 0.09235 0.93276 0.0
H463 H 0.3046 0.07774 0.88519 0.0
O464 O 0.16283 0.95332 0.86732 0.0
O465 O 0.18649 0.11912 0.86888 0.0
O466 O 0.16633 0.18762 0.89424 0.0
O467 O 0.17388 0.96063 0.90898 0.0
O468 O 0.14121 0.03866 0.84704 0.0
O469 O 0.14396 0.13487 0.83406 0.0
O470 O 0.1241 0.28532 0.86598 0.0
O471 O 0.09726 0.11198 0.86405 0.0
O472 O 0.11521 0.04272 0.89328 0.0
O473 O 0.15471 0.23671 0.84132 0.0
O474 O 0.1374 0.17341 0.91289 0.0
O475 O 0.13584 0.07403 0.91926 0.0
C476 C 0.1893 0.16638 0.8832 0.0
C477 C 0.14914 0.87642 0.89541 0.0
C478 C 0.13906 0.77241 0.89279 0.0
C479 C 0.11387 0.78169 0.9078 0.0
C480 C 0.1239 0.88465 0.91016 0.0
C481 C 0.10631 0.83747 0.9162 0.0
C482 C 0.15643 0.82065 0.88648 0.0
C483 C 0.14009 0.07907 0.8288 0.0
C484 C 0.1682 0.9255 0.88934 0.0
C485 C 0.27693 0.0819 0.91934 0.0
C486 C 0.28271 0.07341 0.89222 0.0
C487 C 0.09378 0.06681 0.87974 0.0
C488 C 0.15547 0.34219 0.83706 0.0
C489 C 0.15902 0.44804 0.83834 0.0
C490 C 0.17984 0.44566 0.81812 0.0
C491 C 0.17634 0.34097 0.81687 0.0
C492 C 0.14671 0.39603 0.84759 0.0
C493 C 0.18834 0.39246 0.80744 0.0
C494 C 0.13182 0.12751 0.92769 0.0
C495 C 0.1449 0.28733 0.84864 0.0
H496 H 0.10019 0.74584 0.9135 0.0
H497 H 0.11801 0.92744 0.91719 0.0
H498 H 0.08691 0.84403 0.92772 0.0
H499 H 0.17562 0.81519 0.87452 0.0
H500 H 0.18948 0.48504 0.81048 0.0
H501 H 0.18372 0.30018 0.80861 0.0
H502 H 0.13108 0.39745 0.86356 0.0
H503 H 0.20449 0.3911 0.79196 0.0
Eu504 Eu 0.86952 0.05603 0.62554 0.0
C505 C 0.95779 0.23339 0.68159 0.0
N506 N 0.92876 0.23023 0.68455 0.0
C507 C 0.93338 0.25137 0.73112 0.0
C508 C 0.97593 0.24296 0.70377 0.0
C509 C 0.91631 0.2425 0.70845 0.0
C510 C 0.96336 0.25044 0.72887 0.0
C511 C 0.99914 0.2376 0.65217 0.0
C512 C 0.96929 0.23082 0.65608 0.0
C513 C 0.01741 0.24413 0.67434 0.0
C514 C 1.00584 0.24674 0.70008 0.0
Eu515 Eu 0.90206 0.21015 0.6456 0.0
N516 N 0.95114 0.22383 0.635 0.0
C517 C 1.00965 0.23901 0.62605 0.0
C518 C 0.96096 0.22952 0.60947 0.0
C519 C 0.9904 0.23597 0.60462 0.0
H520 H 0.89316 0.24591 0.70989 0.0
H521 H 0.99822 0.23879 0.58436 0.0
H522 H 0.85349 0.08686 0.56226 0.0
H523 H 0.7978 0.99777 0.70799 0.0
H524 H 0.94616 0.22777 0.59286 0.0
H525 H 0.03245 0.24414 0.62222 0.0
H526 H 0.84409 1.00619 0.68492 0.0
H527 H 0.92342 0.2596 0.75022 0.0
H528 H 0.04045 0.24866 0.67175 0.0
H529 H 0.02014 0.25338 0.71692 0.0
H530 H 0.81028 0.10462 0.53435 0.0
H531 H 0.97655 0.2578 0.74641 0.0
H532 H 0.7526 0.02254 0.68437 0.0
N533 N 0.82953 0.0743 0.59774 0.0
C534 C 0.8031 0.06825 0.60895 0.0
C535 C 0.80798 0.09488 0.55533 0.0
C536 C 0.7779 0.07785 0.59382 0.0
C537 C 0.83237 0.08523 0.57115 0.0
C538 C 0.78063 0.09177 0.56676 0.0
N539 N 0.82613 0.04208 0.64955 0.0
C540 C 0.82492 0.02041 0.67483 0.0
C541 C 0.77419 0.04635 0.64781 0.0
C542 C 0.80138 0.05273 0.63568 0.0
C543 C 0.77304 0.02795 0.67435 0.0
C544 C 0.79851 0.01417 0.68778 0.0
H545 H 0.76177 0.09939 0.55446 0.0
H546 H 0.73125 0.08026 0.59478 0.0
H547 H 0.72798 0.05268 0.642 0.0
O548 O 0.86056 0.96209 0.62777 0.0
O549 O 0.84757 0.1437 0.61838 0.0
O550 O 0.8564 0.18891 0.65716 0.0
O551 O 0.88244 0.99925 0.59318 0.0
O552 O 0.88429 0.06045 0.66851 0.0
O553 O 0.8842 0.15788 0.68109 0.0
O554 O 0.87819 0.27822 0.62433 0.0
O555 O 0.9341 0.14003 0.63408 0.0
O556 O 0.91431 0.05106 0.6447 0.0
O557 O 0.90882 0.30111 0.65509 0.0
O558 O 0.89466 0.19352 0.6009 0.0
O559 O 0.9007 0.0947 0.59666 0.0
C560 C 0.83855 0.17746 0.6377 0.0
C561 C 0.87447 0.89559 0.59182 0.0
C562 C 0.87154 0.79019 0.59398 0.0
C563 C 0.88228 0.78672 0.5679 0.0
C564 C 0.88497 0.89122 0.56564 0.0
C565 C 0.88873 0.83706 0.55377 0.0
C566 C 0.86735 0.84479 0.60582 0.0
C567 C 0.8845 0.1016 0.6868 0.0
C568 C 0.8724 0.95296 0.60464 0.0
C569 C 0.75087 0.07281 0.60604 0.0
C570 C 0.74902 0.0572 0.63297 0.0
C571 C 0.93661 0.08612 0.64221 0.0
C572 C 0.8707 0.36555 0.64842 0.0
C573 C 0.86138 0.46945 0.65205 0.0
C574 C 0.8413 0.45794 0.67232 0.0
C575 C 0.85054 0.35463 0.66848 0.0
C576 C 0.87548 0.4224 0.63987 0.0
C577 C 0.83559 0.40077 0.68011 0.0
C578 C 0.90048 0.14701 0.58656 0.0
C579 C 0.88966 0.31994 0.6383 0.0
H580 H 0.88556 0.74497 0.55844 0.0
H581 H 0.89056 0.92966 0.55437 0.0
H582 H 0.89693 0.83407 0.53365 0.0
H583 H 0.85948 0.84748 0.6261 0.0
H584 H 0.83029 0.49297 0.68244 0.0
H585 H 0.84701 0.31088 0.67559 0.0
H586 H 0.89083 0.42981 0.62401 0.0
H587 H 0.82013 0.39237 0.69572 0.0
Eu588 Eu 0.16304 0.98501 0.61621 0.0
C589 C 0.06833 0.81832 0.67242 0.0
N590 N 0.09626 0.82663 0.67956 0.0
C591 C 0.08301 0.8249 0.72578 0.0
C592 C 0.0464 0.81545 0.69175 0.0
C593 C 0.10399 0.82701 0.70588 0.0
C594 C 0.05402 0.82019 0.71868 0.0
C595 C 0.0336 0.79506 0.63782 0.0
C596 C 0.062 0.80788 0.64589 0.0
C597 C 1.01142 0.79551 0.65676 0.0
C598 C 0.01781 0.80562 0.68369 0.0
Eu599 Eu 0.13004 0.83386 0.64426 0.0
N600 N 0.08396 0.8073 0.62813 0.0
C601 C 0.02853 0.78045 0.61113 0.0
C602 C 0.07948 0.78945 0.60248 0.0
C603 C 0.05166 0.77672 0.59348 0.0
H604 H 0.12644 0.82937 0.71161 0.0
H605 H 0.04808 0.76391 0.57298 0.0
H606 H 0.15305 0.98767 0.54971 0.0
H607 H 0.26291 0.98408 0.67479 0.0
H608 H 0.0973 0.78578 0.58887 0.0
H609 H 1.007 0.77035 0.60413 0.0
H610 H 0.21049 0.98083 0.66798 0.0
H611 H 0.08925 0.82663 0.74658 0.0
H612 H 0.9894 0.78638 0.65092 0.0
H613 H 1.00063 0.80395 0.69822 0.0
H614 H 0.1826 0.99467 0.50924 0.0
H615 H 0.03783 0.81813 0.73415 0.0
H616 H 0.29547 0.98919 0.636 0.0
N617 N 0.18905 0.98357 0.57604 0.0
C618 C 0.21822 0.98612 0.57859 0.0
C619 C 0.1929 0.99141 0.52857 0.0
C620 C 0.23592 0.99009 0.55588 0.0
C621 C 0.17621 0.98669 0.55156 0.0
C622 C 0.22287 0.99302 0.53073 0.0
N623 N 0.21298 0.9847 0.6257 0.0
C624 C 0.22426 0.98384 0.65087 0.0
C625 C 0.26071 0.98898 0.60708 0.0
C626 C 0.23051 0.98707 0.60401 0.0
C627 C 0.27237 0.98801 0.63285 0.0
C628 C 0.25407 0.98522 0.6548 0.0
H629 H 0.23577 0.99755 0.51292 0.0
H630 H 0.27984 0.99533 0.54168 0.0
H631 H 0.30154 0.99318 0.58645 0.0
O632 O 0.17229 0.07322 0.62922 0.0
O633 O 0.19062 0.90186 0.61494 0.0
O634 O 0.17428 0.86603 0.65355 0.0
O635 O 0.14947 0.05933 0.59206 0.0
O636 O 0.15899 0.98691 0.66048 0.0
O637 O 0.13834 0.90213 0.67737 0.0
O638 O 0.14581 0.7527 0.6267 0.0
O639 O 0.09843 0.89405 0.62477 0.0
O640 O 0.11669 0.98504 0.63346 0.0
O641 O 0.13885 0.75843 0.66905 0.0
O642 O 0.1433 0.84116 0.59978 0.0
O643 O 0.1332 0.93648 0.5892 0.0
C644 C 0.19337 0.86484 0.63469 0.0
C645 C 0.17558 0.1471 0.59693 0.0
C646 C 0.17773 0.25185 0.5912 0.0
C647 C 0.2043 0.24581 0.5782 0.0
C648 C 0.20206 0.14152 0.58388 0.0
C649 C 0.21628 0.19075 0.57445 0.0
C650 C 0.16349 0.20214 0.60044 0.0
C651 C 0.14888 0.95546 0.6801 0.0
C652 C 0.16053 0.09723 0.60838 0.0
C653 C 0.26596 0.9925 0.55894 0.0
C654 C 0.27832 0.99154 0.58444 0.0
C655 C 0.09475 0.94913 0.62994 0.0
C656 C 0.12849 0.66928 0.64862 0.0
C657 C 0.12761 0.56554 0.63919 0.0
C658 C 0.09951 0.56287 0.64959 0.0
C659 C 0.10034 0.66577 0.65862 0.0
C660 C 0.1419 0.61936 0.63868 0.0
C661 C 0.08596 0.6128 0.65903 0.0
C662 C 0.1359 0.88186 0.58237 0.0
C663 C 0.14427 0.72439 0.64908 0.0
H664 H 0.21566 0.28354 0.57086 0.0
H665 H 0.21189 0.09963 0.58124 0.0
H666 H 0.23675 0.18626 0.56441 0.0
H667 H 0.14327 0.20639 0.61104 0.0
H668 H 0.0881 0.52205 0.65091 0.0
H669 H 0.08961 0.70367 0.66646 0.0
H670 H 0.16345 0.62266 0.63058 0.0
H671 H 0.06438 0.61028 0.66701 0.0
Eu672 Eu 0.63109 0.71213 0.15186 0.0
C673 C 0.71855 0.55144 0.09941 0.0
N674 N 0.69112 0.56128 0.09087 0.0
C675 C 0.70733 0.57162 0.04589 0.0
C676 C 0.7417 0.55362 0.08132 0.0
C677 C 0.68512 0.56981 0.06455 0.0
C678 C 0.73578 0.56382 0.05431 0.0
C679 C 0.7521 0.53596 0.13595 0.0
C680 C 0.72358 0.54258 0.12658 0.0
C681 C 0.77514 0.53798 0.11794 0.0
C682 C 0.76997 0.54655 0.09073 0.0
Eu683 Eu 0.65485 0.55435 0.12323 0.0
N684 N 0.70087 0.54273 0.14387 0.0
C685 C 0.75674 0.52827 0.16325 0.0
C686 C 0.70561 0.53525 0.17056 0.0
C687 C 0.73345 0.528 0.18058 0.0
H688 H 0.66313 0.57432 0.05793 0.0
H689 H 0.73692 0.52211 0.20176 0.0
H690 H 0.63907 0.72906 0.21782 0.0
H691 H 0.54133 0.77601 0.08722 0.0
H692 H 0.68842 0.53455 0.18459 0.0
H693 H 0.77817 0.52245 0.17122 0.0
H694 H 0.59064 0.74369 0.09758 0.0
H695 H 0.70247 0.57879 0.02504 0.0
H696 H 0.7971 0.53366 0.1249 0.0
H697 H 0.78804 0.54833 0.07715 0.0
H698 H 0.60979 0.75869 0.25658 0.0
H699 H 0.75298 0.56566 0.03981 0.0
H700 H 0.50774 0.80004 0.12374 0.0
N701 N 0.60489 0.74004 0.18998 0.0
C702 C 0.57744 0.75831 0.18585 0.0
C703 C 0.60035 0.75841 0.23682 0.0
C704 C 0.55992 0.77543 0.20737 0.0
C705 C 0.61682 0.74154 0.21486 0.0
C706 C 0.57165 0.77473 0.23312 0.0
N707 N 0.58486 0.74665 0.1396 0.0
C708 C 0.5762 0.7532 0.11372 0.0
C709 C 0.5388 0.78124 0.15489 0.0
C710 C 0.56712 0.76177 0.15993 0.0
C711 C 0.52937 0.78545 0.12843 0.0
C712 C 0.54825 0.77188 0.10776 0.0
H713 H 0.55891 0.78769 0.25017 0.0
H714 H 0.51766 0.80655 0.2188 0.0
H715 H 0.49909 0.81117 0.17284 0.0
O716 O 0.63813 0.80004 0.13631 0.0
O717 O 0.59266 0.65387 0.1437 0.0
O718 O 0.60803 0.55818 0.1368 0.0
O719 O 0.65959 0.77235 0.17236 0.0
O720 O 0.64012 0.7032 0.10717 0.0
O721 O 0.62522 0.61014 0.09828 0.0
O722 O 0.6605 0.45963 0.12714 0.0
O723 O 0.68241 0.63439 0.11655 0.0
O724 O 0.6744 0.66974 0.15717 0.0
O725 O 0.64107 0.49702 0.09117 0.0
O726 O 0.64278 0.55037 0.16704 0.0
O727 O 0.63466 0.64365 0.18459 0.0
C728 C 0.58788 0.5977 0.14126 0.0
C729 C 0.64726 0.87198 0.16941 0.0
C730 C 0.63991 0.9766 0.16568 0.0
C731 C 0.63755 0.98022 0.19354 0.0
C732 C 0.64538 0.87693 0.19732 0.0
C733 C 0.64021 0.93059 0.2092 0.0
C734 C 0.64448 0.92215 0.1537 0.0
C735 C 0.63111 0.66301 0.09038 0.0
C736 C 0.65386 0.81571 0.15663 0.0
C737 C 0.53151 0.7937 0.20249 0.0
C738 C 0.52096 0.79643 0.17632 0.0
C739 C 0.69079 0.66728 0.13623 0.0
C740 C 0.64696 0.39273 0.09118 0.0
C741 C 0.64684 0.28694 0.09487 0.0
C742 C 0.64447 0.28321 0.06693 0.0
C743 C 0.64422 0.3878 0.0634 0.0
C744 C 0.6481 0.34225 0.10685 0.0
C745 C 0.64301 0.33331 0.0514 0.0
C746 C 0.63707 0.58646 0.18688 0.0
C747 C 0.64983 0.45052 0.10344 0.0
H748 H 0.63367 0.02153 0.2032 0.0
H749 H 0.64836 0.83973 0.21012 0.0
H750 H 0.63863 0.93383 0.23067 0.0
H751 H 0.64673 0.91905 0.13224 0.0
H752 H 0.64418 0.24156 0.05695 0.0
H753 H 0.64352 0.42608 0.05088 0.0
H754 H 0.6497 0.3462 0.12832 0.0
H755 H 0.64125 0.32987 0.02993 0.0
Eu756 Eu 0.39879 0.32765 0.14631 0.0
C757 C 0.30336 0.46613 0.09063 0.0
N758 N 0.33158 0.46307 0.08368 0.0
C759 C 0.31857 0.45086 0.03777 0.0
C760 C 0.28152 0.45876 0.07131 0.0
C761 C 0.33944 0.45779 0.05764 0.0
C762 C 0.28946 0.45065 0.04465 0.0
C763 C 0.26716 0.47724 0.12502 0.0
C764 C 0.29627 0.47611 0.11723 0.0
C765 C 0.24546 0.46842 0.10593 0.0
C766 C 0.25254 0.4597 0.07914 0.0
Eu767 Eu 0.36505 0.47602 0.11843 0.0
N768 N 0.31776 0.48302 0.13556 0.0
C769 C 0.26066 0.48668 0.15185 0.0
C770 C 0.31145 0.49272 0.16172 0.0
C771 C 0.28288 0.49456 0.17026 0.0
H772 H 0.36179 0.46007 0.05203 0.0
H773 H 0.278 0.50201 0.19106 0.0
H774 H 0.40007 0.31348 0.21297 0.0
H775 H 0.48465 0.2689 0.07726 0.0
H776 H 0.32817 0.49894 0.1762 0.0
H777 H 0.23858 0.48823 0.1585 0.0
H778 H 0.43438 0.28618 0.09136 0.0
H779 H 0.32498 0.44616 0.01717 0.0
H780 H 0.22313 0.46798 0.11179 0.0
H781 H 0.23545 0.45354 0.06464 0.0
H782 H 0.43608 0.31445 0.24956 0.0
H783 H 0.27331 0.4451 0.02921 0.0
H784 H 0.52448 0.27984 0.10982 0.0
N785 N 0.43133 0.32209 0.18252 0.0
C786 C 0.4597 0.31878 0.17617 0.0
C787 C 0.44304 0.31664 0.22902 0.0
C788 C 0.48104 0.31715 0.19625 0.0
C789 C 0.42271 0.31718 0.20836 0.0
C790 C 0.47237 0.31798 0.22295 0.0
N791 N 0.44597 0.30934 0.131 0.0
C792 C 0.45168 0.2916 0.10557 0.0
C793 C 0.4962 0.30164 0.14257 0.0
C794 C 0.46723 0.31123 0.14966 0.0
C795 C 0.50251 0.28772 0.11604 0.0
C796 C 0.48008 0.28146 0.0976 0.0
H797 H 0.48808 0.3168 0.23897 0.0
H798 H 0.52686 0.31122 0.20422 0.0
H799 H 0.54013 0.29753 0.15719 0.0
O800 O 0.37636 0.25179 0.1299 0.0
O801 O 0.42853 0.39185 0.12627 0.0
O802 O 0.41018 0.48103 0.13705 0.0
O803 O 0.40496 0.24192 0.16367 0.0
O804 O 0.3846 0.33133 0.10239 0.0
O805 O 0.3931 0.42604 0.09017 0.0
O806 O 0.35463 0.5693 0.12239 0.0
O807 O 0.33942 0.39026 0.11951 0.0
O808 O 0.3542 0.35364 0.15921 0.0
O809 O 0.38018 0.53733 0.08878 0.0
O810 O 0.37714 0.48273 0.16172 0.0
O811 O 0.38513 0.39065 0.18009 0.0
C812 C 0.43224 0.44664 0.13237 0.0
C813 C 0.3698 0.1693 0.15764 0.0
C814 C 0.35598 0.06726 0.1555 0.0
C815 C 0.34043 0.07431 0.17929 0.0
C816 C 0.35364 0.17616 0.18096 0.0
C817 C 0.33902 0.12865 0.19172 0.0
C818 C 0.37068 0.11522 0.14492 0.0
C819 C 0.39043 0.37093 0.08423 0.0
C820 C 0.38777 0.21605 0.14704 0.0
C821 C 0.51014 0.31177 0.1891 0.0
C822 C 0.5177 0.3039 0.16231 0.0
C823 C 0.33407 0.3598 0.14115 0.0
C824 C 0.37125 0.64101 0.08954 0.0
C825 C 0.3705 0.7469 0.09479 0.0
C826 C 0.38198 0.7519 0.0689 0.0
C827 C 0.38197 0.64785 0.06361 0.0
C828 C 0.36509 0.6907 0.10496 0.0
C829 C 0.38724 0.70291 0.05342 0.0
C830 C 0.38123 0.4478 0.18218 0.0
C831 C 0.36869 0.58188 0.1007 0.0
H832 H 0.32882 0.03824 0.18792 0.0
H833 H 0.35277 0.21775 0.19101 0.0
H834 H 0.32668 0.13385 0.20982 0.0
H835 H 0.38344 0.1102 0.12699 0.0
H836 H 0.38756 0.7937 0.06059 0.0
H837 H 0.38682 0.61051 0.05129 0.0
H838 H 0.3565 0.68542 0.12484 0.0
H839 H 0.39598 0.70762 0.03357 0.0
Eu840 Eu 0.62543 0.32443 0.37 0.0
C841 C 0.7323 0.45135 0.40341 0.0
N842 N 0.70611 0.45172 0.41537 0.0
C843 C 0.72781 0.42973 0.45754 0.0
C844 C 0.75732 0.43748 0.41809 0.0
C845 C 0.70355 0.44309 0.44215 0.0
C846 C 0.7548 0.42646 0.44544 0.0
C847 C 0.76055 0.45967 0.36307 0.0
C848 C 0.7338 0.46239 0.37616 0.0
C849 C 0.78542 0.44496 0.37761 0.0
C850 C 0.78387 0.43414 0.405 0.0
Eu851 Eu 0.66632 0.47241 0.38788 0.0
N852 N 0.70915 0.47491 0.36246 0.0
C853 C 0.7615 0.4717 0.33575 0.0
C854 C 0.71021 0.48965 0.33614 0.0
C855 C 0.73628 0.48748 0.32232 0.0
H856 H 0.6828 0.44635 0.45163 0.0
H857 H 0.73694 0.49836 0.30135 0.0
H858 H 0.62362 0.31058 0.30261 0.0
H859 H 0.53588 0.29927 0.43891 0.0
H860 H 0.69121 0.50407 0.3257 0.0
H861 H 0.78162 0.46991 0.32494 0.0
H862 H 0.587 0.30022 0.42497 0.0
H863 H 0.72566 0.42171 0.47868 0.0
H864 H 0.80602 0.44182 0.36795 0.0
H865 H 0.80333 0.42296 0.41584 0.0
H866 H 0.5884 0.32203 0.26609 0.0
H867 H 0.77354 0.4156 0.45738 0.0
H868 H 0.49738 0.31756 0.40565 0.0
N869 N 0.59307 0.32671 0.33326 0.0
C870 C 0.56466 0.33126 0.33932 0.0
C871 C 0.58147 0.32562 0.2866 0.0
C872 C 0.54357 0.33584 0.3191 0.0
C873 C 0.60148 0.3203 0.30736 0.0
C874 C 0.55243 0.33458 0.29247 0.0
N875 N 0.57724 0.32037 0.38462 0.0
C876 C 0.57024 0.30821 0.41043 0.0
C877 C 0.52708 0.32699 0.37275 0.0
C878 C 0.55645 0.32693 0.36576 0.0
C879 C 0.51971 0.31788 0.39948 0.0
C880 C 0.54138 0.30754 0.41832 0.0
H881 H 0.53692 0.33801 0.27635 0.0
H882 H 0.49786 0.34349 0.31081 0.0
H883 H 0.48343 0.33579 0.35784 0.0
O884 O 0.64152 0.24752 0.39059 0.0
O885 O 0.59953 0.39916 0.38722 0.0
O886 O 0.62107 0.4807 0.37057 0.0
O887 O 0.61565 0.23764 0.35505 0.0
O888 O 0.63936 0.3372 0.41374 0.0
O889 O 0.63834 0.43675 0.42047 0.0
O890 O 0.67818 0.56331 0.38158 0.0
O891 O 0.68624 0.38206 0.39305 0.0
O892 O 0.67106 0.33646 0.35575 0.0
O893 O 0.65871 0.53704 0.4187 0.0
O894 O 0.64743 0.46885 0.34615 0.0
O895 O 0.64731 0.37132 0.33509 0.0
C896 C 0.59795 0.45215 0.37788 0.0
C897 C 0.65057 0.16614 0.3635 0.0
C898 C 0.6608 0.0635 0.35734 0.0
C899 C 0.68713 0.07787 0.34542 0.0
C900 C 0.67699 0.18005 0.35165 0.0
C901 C 0.69522 0.13595 0.34269 0.0
C902 C 0.64252 0.10794 0.36622 0.0
C903 C 0.63665 0.3832 0.4293 0.0
C904 C 0.63104 0.21147 0.37309 0.0
C905 C 0.51433 0.33925 0.32605 0.0
C906 C 0.5061 0.33474 0.35283 0.0
C907 C 0.69165 0.34813 0.3727 0.0
C908 C 0.64483 0.62763 0.40106 0.0
C909 C 0.63406 0.73016 0.39336 0.0
C910 C 0.60452 0.71778 0.39646 0.0
C911 C 0.61523 0.61626 0.40352 0.0
C912 C 0.65407 0.68429 0.39561 0.0
C913 C 0.59526 0.66118 0.40121 0.0
C914 C 0.64588 0.42673 0.32844 0.0
C915 C 0.66611 0.58046 0.40361 0.0
H916 H 0.70135 0.04412 0.33817 0.0
H917 H 0.68343 0.22477 0.34925 0.0
H918 H 0.71562 0.14679 0.3336 0.0
H919 H 0.62218 0.0972 0.37554 0.0
H920 H 0.58846 0.75181 0.39555 0.0
H921 H 0.60752 0.57274 0.40733 0.0
H922 H 0.67685 0.69218 0.39284 0.0
H923 H 0.5725 0.65217 0.40333 0.0
Eu924 Eu 0.3972 0.67853 0.36645 0.0
C925 C 0.29927 0.53479 0.4094 0.0
N926 N 0.32518 0.54091 0.42185 0.0
C927 C 0.30177 0.56092 0.46323 0.0
C928 C 0.2734 0.54239 0.42358 0.0
C929 C 0.32689 0.55302 0.44842 0.0
C930 C 0.27493 0.55565 0.4508 0.0
C931 C 0.27212 0.5158 0.36891 0.0
C932 C 0.29876 0.52258 0.38219 0.0
C933 C 0.24629 0.52363 0.38296 0.0
C934 C 0.24693 0.53699 0.4102 0.0
Eu935 Eu 0.3663 0.52825 0.39525 0.0
N936 N 0.32415 0.51582 0.36893 0.0
C937 C 0.27219 0.49992 0.342 0.0
C938 C 0.32412 0.49515 0.34345 0.0
C939 C 0.29829 0.48849 0.32937 0.0
H940 H 0.34767 0.55704 0.45802 0.0
H941 H 0.29852 0.4732 0.30897 0.0
H942 H 0.39825 0.67865 0.29965 0.0
H943 H 0.48465 0.72408 0.43718 0.0
H944 H 0.3437 0.48128 0.33412 0.0
H945 H 0.25219 0.4942 0.3311 0.0
H946 H 0.43464 0.70809 0.4233 0.0
H947 H 0.3031 0.57132 0.48417 0.0
H948 H 0.22567 0.51883 0.37301 0.0
H949 H 0.22682 0.54274 0.42076 0.0
H950 H 0.43386 0.68296 0.26326 0.0
H951 H 0.25553 0.56198 0.46238 0.0
H952 H 0.52339 0.72674 0.40354 0.0
N953 N 0.42951 0.6861 0.33038 0.0
C954 C 0.45764 0.69528 0.33663 0.0
C955 C 0.44088 0.68601 0.28381 0.0
C956 C 0.47869 0.69917 0.31651 0.0
C957 C 0.42081 0.68265 0.30444 0.0
C958 C 0.46999 0.69391 0.28987 0.0
N959 N 0.4446 0.69717 0.38223 0.0
C960 C 0.45115 0.70696 0.40839 0.0
C961 C 0.49439 0.71178 0.37035 0.0
C962 C 0.46539 0.70155 0.36327 0.0
C963 C 0.50137 0.71887 0.3973 0.0
C964 C 0.47959 0.71711 0.41635 0.0
H965 H 0.4855 0.69667 0.27384 0.0
H966 H 0.52409 0.71134 0.30837 0.0
H967 H 0.53784 0.72224 0.3555 0.0
O968 O 0.38494 0.76159 0.38424 0.0
O969 O 0.43025 0.60541 0.36901 0.0
O970 O 0.41442 0.54085 0.40125 0.0
O971 O 0.38991 0.75469 0.34155 0.0
O972 O 0.3868 0.67416 0.41129 0.0
O973 O 0.39286 0.57843 0.42469 0.0
O974 O 0.37179 0.43704 0.38507 0.0
O975 O 0.34103 0.61239 0.39974 0.0
O976 O 0.35107 0.65143 0.35975 0.0
O977 O 0.36536 0.4615 0.42621 0.0
O978 O 0.38626 0.52775 0.35422 0.0
O979 O 0.37651 0.61754 0.33623 0.0
C980 C 0.43466 0.56225 0.38574 0.0
C981 C 0.40113 0.84459 0.36134 0.0
C982 C 0.40105 0.9494 0.36786 0.0
C983 C 0.43029 0.95089 0.36064 0.0
C984 C 0.43027 0.84696 0.35418 0.0
C985 C 0.44475 0.89989 0.35389 0.0
C986 C 0.38661 0.89579 0.3682 0.0
C987 C 0.39163 0.6343 0.42977 0.0
C988 C 0.38549 0.78929 0.3616 0.0
C989 C 0.50762 0.70852 0.32355 0.0
C990 C 0.51545 0.7148 0.35039 0.0
C991 C 0.33414 0.64774 0.38037 0.0
C992 C 0.34955 0.36831 0.41257 0.0
C993 C 0.34467 0.26309 0.41088 0.0
C994 C 0.3152 0.26889 0.41674 0.0
C995 C 0.32018 0.3736 0.41845 0.0
C996 C 0.36159 0.31331 0.40869 0.0
C997 C 0.3031 0.32392 0.4205 0.0
C998 C 0.38351 0.56239 0.33358 0.0
C999 C 0.36823 0.41897 0.40938 0.0
H1000 H 0.44189 0.99159 0.35983 0.0
H1001 H 0.44177 0.80815 0.34863 0.0
H1002 H 0.46721 0.90145 0.34823 0.0
H1003 H 0.36416 0.89374 0.374 0.0
H1004 H 0.30163 0.23099 0.41871 0.0
H1005 H 0.31048 0.41581 0.42136 0.0
H1006 H 0.38418 0.30982 0.4035 0.0
H1007 H 0.28043 0.32804 0.42505 0.0
Eu1008 Eu 0.35989 0.47301 0.88795 0.0
C1009 C 0.4615 0.31493 0.83492 0.0
N1010 N 0.43268 0.31636 0.83 0.0
C1011 C 0.44108 0.3031 0.7833 0.0
C1012 C 0.48135 0.30905 0.81388 0.0
C1013 C 0.42223 0.30819 0.80485 0.0
C1014 C 0.47078 0.30428 0.78779 0.0
C1015 C 0.50084 0.31305 0.86699 0.0
C1016 C 0.47116 0.31685 0.86119 0.0
C1017 C 0.52069 0.30851 0.84604 0.0
C1018 C 0.51098 0.30676 0.81957 0.0
Eu1019 Eu 0.40277 0.32787 0.86752 0.0
N1020 N 0.45151 0.32244 0.88109 0.0
C1021 C 0.50968 0.31354 0.8937 0.0
C1022 C 0.45988 0.3197 0.90719 0.0
C1023 C 0.48909 0.31628 0.91388 0.0
H1024 H 0.39935 0.30435 0.80152 0.0
H1025 H 0.49569 0.31535 0.93459 0.0
H1026 H 0.34315 0.43716 0.95067 0.0
H1027 H 0.29077 0.49783 0.79977 0.0
H1028 H 0.4441 0.32054 0.92286 0.0
H1029 H 0.53229 0.31072 0.89895 0.0
H1030 H 0.33585 0.50454 0.82537 0.0
H1031 H 0.43269 0.29747 0.7633 0.0
H1032 H 0.54359 0.306 0.85012 0.0
H1033 H 0.52655 0.30263 0.80364 0.0
H1034 H 0.29964 0.41196 0.97656 0.0
H1035 H 0.48534 0.29982 0.77108 0.0
H1036 H 0.24598 0.46701 0.82212 0.0
N1037 N 0.32028 0.44622 0.91416 0.0
C1038 C 0.29429 0.44602 0.90151 0.0
C1039 C 0.2979 0.42131 0.95549 0.0
C1040 C 0.26899 0.43182 0.91551 0.0
C1041 C 0.32247 0.43509 0.94079 0.0
C1042 C 0.27107 0.41956 0.94281 0.0
N1043 N 0.31799 0.47073 0.86099 0.0
C1044 C 0.31707 0.48748 0.83495 0.0
C1045 C 0.2666 0.45512 0.86052 0.0
C1046 C 0.2932 0.45742 0.87418 0.0
C1047 C 0.26597 0.46829 0.8333 0.0
C1048 C 0.29125 0.48531 0.82056 0.0
H1049 H 0.25212 0.40839 0.95424 0.0
H1050 H 0.223 0.41769 0.9122 0.0
H1051 H 0.22091 0.43791 0.86418 0.0
O1052 O 0.35054 0.56367 0.87782 0.0
O1053 O 0.34178 0.38022 0.89115 0.0
O1054 O 0.35731 0.33988 0.85288 0.0
O1055 O 0.35397 0.5378 0.91904 0.0
O1056 O 0.38132 0.47514 0.84757 0.0
O1057 O 0.38164 0.37945 0.83362 0.0
O1058 O 0.38517 0.25285 0.88879 0.0
O1059 O 0.43249 0.40328 0.87568 0.0
O1060 O 0.4084 0.4891 0.88614 0.0
O1061 O 0.41209 0.2401 0.85424 0.0
O1062 O 0.39153 0.34169 0.91167 0.0
O1063 O 0.38987 0.44075 0.91963 0.0
C1064 C 0.33703 0.34611 0.87058 0.0
C1065 C 0.37212 0.63007 0.90768 0.0
C1066 C 0.38496 0.73185 0.90161 0.0
C1067 C 0.40966 0.72313 0.9174 0.0
C1068 C 0.39695 0.62234 0.92343 0.0
C1069 C 0.41562 0.6686 0.92813 0.0
C1070 C 0.36632 0.6849 0.89666 0.0
C1071 C 0.38313 0.43579 0.82869 0.0
C1072 C 0.35245 0.5811 0.90246 0.0
C1073 C 0.24262 0.42901 0.90181 0.0
C1074 C 0.24144 0.44039 0.87442 0.0
C1075 C 0.43205 0.4589 0.88132 0.0
C1076 C 0.37755 0.16883 0.86252 0.0
C1077 C 0.36471 0.06615 0.86291 0.0
C1078 C 0.34609 0.07632 0.84118 0.0
C1079 C 0.35863 0.17818 0.84115 0.0
C1080 C 0.38048 0.11313 0.87338 0.0
C1081 C 0.3428 0.13207 0.83067 0.0
C1082 C 0.39477 0.3873 0.92732 0.0
C1083 C 0.39626 0.21541 0.87222 0.0
H1084 H 0.42451 0.75841 0.9212 0.0
H1085 H 0.40198 0.58052 0.93213 0.0
H1086 H 0.43478 0.66216 0.94014 0.0
H1087 H 0.34716 0.69118 0.88457 0.0
H1088 H 0.33393 0.04127 0.83235 0.0
H1089 H 0.35677 0.2207 0.83217 0.0
H1090 H 0.39587 0.10628 0.88938 0.0
H1091 H 0.32828 0.13934 0.81407 0.0
Eu1092 Eu 0.66593 0.54056 0.89436 0.0
C1093 C 0.56838 0.67894 0.8362 0.0
N1094 N 0.59728 0.68213 0.83226 0.0
C1095 C 0.58986 0.68005 0.7849 0.0
C1096 C 0.54914 0.67325 0.81453 0.0
C1097 C 0.60797 0.68674 0.80702 0.0
C1098 C 0.56036 0.67198 0.78868 0.0
C1099 C 0.52796 0.68935 0.86635 0.0
C1100 C 0.55786 0.68672 0.86176 0.0
C1101 C 0.50876 0.67996 0.8451 0.0
C1102 C 0.51933 0.67178 0.81923 0.0
Eu1103 Eu 0.62622 0.68693 0.87135 0.0
N1104 N 0.57693 0.69513 0.88194 0.0
C1105 C 0.5183 0.70317 0.89201 0.0
C1106 C 0.56778 0.71195 0.90661 0.0
C1107 C 0.53832 0.7155 0.91211 0.0
H1108 H 0.63053 0.69568 0.80385 0.0
H1109 H 0.53107 0.72746 0.93184 0.0
H1110 H 0.68506 0.57135 0.95682 0.0
H1111 H 0.73329 0.5059 0.80604 0.0
H1112 H 0.58329 0.72134 0.92214 0.0
H1113 H 0.49549 0.70575 0.89633 0.0
H1114 H 0.68898 0.50008 0.83245 0.0
H1115 H 0.59861 0.68192 0.76495 0.0
H1116 H 0.4857 0.68078 0.84831 0.0
H1117 H 0.50425 0.66664 0.80287 0.0
H1118 H 0.72916 0.59799 0.98198 0.0
H1119 H 0.54631 0.6676 0.7715 0.0
H1120 H 0.77839 0.54111 0.82687 0.0
N1121 N 0.70681 0.56456 0.91981 0.0
C1122 C 0.73234 0.56589 0.90669 0.0
C1123 C 0.73029 0.58932 0.96081 0.0
C1124 C 0.75788 0.58154 0.92013 0.0
C1125 C 0.70544 0.57434 0.94659 0.0
C1126 C 0.75659 0.59342 0.94749 0.0
N1127 N 0.70759 0.53806 0.86716 0.0
C1128 C 0.70793 0.51858 0.84146 0.0
C1129 C 0.75875 0.55562 0.86537 0.0
C1130 C 0.73263 0.55333 0.87955 0.0
C1131 C 0.75873 0.53996 0.83843 0.0
C1132 C 0.7333 0.52039 0.82657 0.0
H1133 H 0.77576 0.60556 0.95852 0.0
H1134 H 0.80355 0.59783 0.91574 0.0
H1135 H 0.80415 0.57556 0.86794 0.0
O1136 O 0.67908 0.4498 0.88966 0.0
O1137 O 0.68412 0.63205 0.90059 0.0
O1138 O 0.67323 0.6743 0.86136 0.0
O1139 O 0.6594 0.47796 0.92632 0.0
O1140 O 0.64594 0.53906 0.85343 0.0
O1141 O 0.64894 0.63353 0.83877 0.0
O1142 O 0.64241 0.76537 0.89076 0.0
O1143 O 0.59864 0.61673 0.89028 0.0
O1144 O 0.61995 0.53055 0.87839 0.0
O1145 O 0.61707 0.77241 0.85474 0.0
O1146 O 0.63534 0.67768 0.91652 0.0
O1147 O 0.63751 0.57866 0.92597 0.0
C1148 C 0.6913 0.66704 0.88109 0.0
C1149 C 0.64717 0.3844 0.91041 0.0
C1150 C 0.63752 0.28286 0.89971 0.0
C1151 C 0.60873 0.29064 0.90742 0.0
C1152 C 0.61809 0.39147 0.91753 0.0
C1153 C 0.59909 0.34475 0.91611 0.0
C1154 C 0.65669 0.33002 0.90116 0.0
C1155 C 0.64551 0.57756 0.83415 0.0
C1156 C 0.66742 0.43369 0.91199 0.0
C1157 C 0.78372 0.58531 0.90586 0.0
C1158 C 0.78409 0.57262 0.87858 0.0
C1159 C 0.59685 0.562 0.88338 0.0
C1160 C 0.6508 0.84615 0.86309 0.0
C1161 C 0.66367 0.94892 0.86332 0.0
C1162 C 0.68506 0.93687 0.84421 0.0
C1163 C 0.67275 0.83471 0.84477 0.0
C1164 C 0.64627 0.90284 0.87218 0.0
C1165 C 0.68972 0.88013 0.83529 0.0
C1166 C 0.63373 0.63304 0.93315 0.0
C1167 C 0.63187 0.80005 0.87272 0.0
H1168 H 0.59358 0.255 0.90632 0.0
H1169 H 0.60996 0.43309 0.92419 0.0
H1170 H 0.5768 0.35057 0.92175 0.0
H1171 H 0.67897 0.32427 0.89534 0.0
H1172 H 0.6987 0.97081 0.83651 0.0
H1173 H 0.67651 0.79099 0.83764 0.0
H1174 H 0.62881 0.91084 0.88597 0.0
H1175 H 0.70658 0.87136 0.821 0.0
Eu1176 Eu 0.36376 0.54303 0.62735 0.0
C1177 C 0.47015 0.69164 0.6568 0.0
N1178 N 0.44475 0.69194 0.67002 0.0
C1179 C 0.46957 0.68098 0.71168 0.0
C1180 C 0.49639 0.68325 0.67046 0.0
C1181 C 0.4441 0.68903 0.69715 0.0
C1182 C 0.49582 0.67711 0.69824 0.0
C1183 C 0.49575 0.70345 0.61527 0.0
C1184 C 0.46974 0.70118 0.62962 0.0
C1185 C 0.52193 0.69214 0.62847 0.0
C1186 C 0.52224 0.68207 0.65604 0.0
Eu1187 Eu 0.4023 0.69645 0.64404 0.0
N1188 N 0.44403 0.7119 0.61756 0.0
C1189 C 0.49474 0.71892 0.58832 0.0
C1190 C 0.44328 0.7323 0.592 0.0
C1191 C 0.46845 0.73472 0.57681 0.0
H1192 H 0.42383 0.69186 0.70744 0.0
H1193 H 0.46756 0.74919 0.5563 0.0
H1194 H 0.36741 0.53945 0.55971 0.0
H1195 H 0.26845 0.53398 0.69006 0.0
H1196 H 0.42327 0.74665 0.58312 0.0
H1197 H 0.51423 0.72112 0.57656 0.0
H1198 H 0.32046 0.52593 0.67956 0.0
H1199 H 0.46893 0.67747 0.73318 0.0
H1200 H 0.5421 0.69274 0.6177 0.0
H1201 H 0.54262 0.67476 0.66609 0.0
H1202 H 0.33618 0.5622 0.52148 0.0
H1203 H 0.51551 0.67058 0.7095 0.0
H1204 H 0.23369 0.55969 0.65448 0.0
N1205 N 0.33513 0.55661 0.58865 0.0
C1206 C 0.30644 0.56419 0.59289 0.0
C1207 C 0.32756 0.56389 0.54147 0.0
C1208 C 0.28738 0.57489 0.5715 0.0
C1209 C 0.34548 0.55255 0.5633 0.0
C1210 C 0.29846 0.57624 0.54562 0.0
N1211 N 0.31467 0.54755 0.63875 0.0
C1212 C 0.30521 0.53668 0.66398 0.0
C1213 C 0.2661 0.56371 0.62362 0.0
C1214 C 0.29582 0.55838 0.61858 0.0
C1215 C 0.25631 0.55559 0.64974 0.0
C1216 C 0.2759 0.54123 0.66993 0.0
H1217 H 0.2845 0.58455 0.5287 0.0
H1218 H 0.24292 0.59098 0.56034 0.0
H1219 H 0.22432 0.58135 0.60601 0.0
O1220 O 0.36748 0.4618 0.64973 0.0
O1221 O 0.33835 0.6232 0.64187 0.0
O1222 O 0.36254 0.6903 0.61856 0.0
O1223 O 0.35599 0.4592 0.60821 0.0
O1224 O 0.37662 0.55368 0.67 0.0
O1225 O 0.38003 0.65232 0.68011 0.0
O1226 O 0.41084 0.78958 0.64098 0.0
O1227 O 0.42392 0.61259 0.657 0.0
O1228 O 0.41291 0.54814 0.62366 0.0
O1229 O 0.37748 0.75894 0.6674 0.0
O1230 O 0.39054 0.67542 0.6006 0.0
O1231 O 0.39558 0.57641 0.59681 0.0
C1232 C 0.33851 0.67289 0.62908 0.0
C1233 C 0.38611 0.38466 0.62448 0.0
C1234 C 0.40662 0.28897 0.63351 0.0
C1235 C 0.43105 0.30421 0.61865 0.0
C1236 C 0.4107 0.39882 0.60962 0.0
C1237 C 0.43295 0.35866 0.60667 0.0
C1238 C 0.38399 0.32931 0.63624 0.0
C1239 C 0.3766 0.59694 0.68708 0.0
C1240 C 0.36369 0.42894 0.62894 0.0
C1241 C 0.25783 0.58221 0.57652 0.0
C1242 C 0.24721 0.57656 0.60251 0.0
C1243 C 0.43122 0.57005 0.64108 0.0
C1244 C 0.39658 0.85331 0.67565 0.0
C1245 C 0.3972 0.9587 0.68223 0.0
C1246 C 0.40491 0.9494 0.70908 0.0
C1247 C 0.40447 0.84513 0.70236 0.0
C1248 C 0.39311 0.90996 0.66566 0.0
C1249 C 0.40859 0.8931 0.71896 0.0
C1250 C 0.39783 0.62896 0.58685 0.0
C1251 C 0.39085 0.80398 0.6578 0.0
H1252 H 0.44873 0.2739 0.61641 0.0
H1253 H 0.41283 0.44118 0.60051 0.0
H1254 H 0.45188 0.37004 0.5953 0.0
H1255 H 0.3653 0.31835 0.64809 0.0
H1256 H 0.40778 0.98559 0.72259 0.0
H1257 H 0.4072 0.80186 0.7104 0.0
H1258 H 0.38741 0.91588 0.64486 0.0
H1259 H 0.41448 0.88666 0.73965 0.0
Eu1260 Eu 0.662 0.4888 0.61778 0.0
C1261 C 0.56688 0.33514 0.6771 0.0
N1262 N 0.595 0.33636 0.68458 0.0
C1263 C 0.58145 0.33188 0.73061 0.0
C1264 C 0.54478 0.33344 0.6963 0.0
C1265 C 0.60257 0.33371 0.71085 0.0
C1266 C 0.5524 0.33226 0.72333 0.0
C1267 C 0.53119 0.3315 0.64171 0.0
C1268 C 0.56021 0.33421 0.65012 0.0
C1269 C 0.50909 0.3315 0.66075 0.0
C1270 C 0.51587 0.33238 0.68797 0.0
Eu1271 Eu 0.62933 0.34538 0.65019 0.0
N1272 N 0.5821 0.33486 0.63213 0.0
C1273 C 0.52525 0.32782 0.61443 0.0
C1274 C 0.57636 0.32687 0.60569 0.0
C1275 C 0.54796 0.32446 0.59639 0.0
H1276 H 0.62504 0.33247 0.71652 0.0
H1277 H 0.54362 0.31923 0.57531 0.0
H1278 H 0.65679 0.48435 0.55099 0.0
H1279 H 0.75702 0.49674 0.68224 0.0
H1280 H 0.59336 0.32085 0.5916 0.0
H1281 H 0.50327 0.32567 0.60716 0.0
H1282 H 0.70507 0.49788 0.67192 0.0
H1283 H 0.5876 0.33015 0.75143 0.0
H1284 H 0.4867 0.3299 0.65463 0.0
H1285 H 0.49861 0.33148 0.70243 0.0
H1286 H 0.68926 0.47853 0.51214 0.0
H1287 H 0.53607 0.33084 0.73868 0.0
H1288 H 0.79227 0.48974 0.64562 0.0
N1289 N 0.69087 0.48527 0.57932 0.0
C1290 C 0.71981 0.48658 0.58355 0.0
C1291 C 0.69813 0.48047 0.53211 0.0
C1292 C 0.73914 0.48405 0.56198 0.0
C1293 C 0.6798 0.483 0.55412 0.0
C1294 C 0.72793 0.48089 0.53605 0.0
N1295 N 0.71105 0.49136 0.63009 0.0
C1296 C 0.72028 0.49555 0.65585 0.0
C1297 C 0.76004 0.48979 0.61458 0.0
C1298 C 0.73019 0.49005 0.60959 0.0
C1299 C 0.7696 0.49145 0.64103 0.0
C1300 C 0.7497 0.49495 0.66174 0.0
H1301 H 0.74211 0.47909 0.51898 0.0
H1302 H 0.78411 0.48255 0.5506 0.0
H1303 H 0.8024 0.48706 0.59667 0.0
O1304 O 0.6563 0.57471 0.63525 0.0
O1305 O 0.69043 0.4066 0.62041 0.0
O1306 O 0.67525 0.36877 0.65968 0.0
O1307 O 0.66111 0.56597 0.59254 0.0
O1308 O 0.65155 0.49616 0.66176 0.0
O1309 O 0.64884 0.40521 0.68194 0.0
O1310 O 0.64018 0.26168 0.63242 0.0
O1311 O 0.60072 0.42574 0.65072 0.0
O1312 O 0.61366 0.47416 0.61261 0.0
O1313 O 0.63507 0.26854 0.67508 0.0
O1314 O 0.6436 0.3445 0.60608 0.0
O1315 O 0.63287 0.43624 0.59175 0.0
C1316 C 0.69461 0.37217 0.64099 0.0
C1317 C 0.67783 0.65261 0.61259 0.0
C1318 C 0.68387 0.75573 0.62196 0.0
C1319 C 0.71281 0.75158 0.61398 0.0
C1320 C 0.70675 0.64906 0.6048 0.0
C1321 C 0.72412 0.69847 0.60548 0.0
C1322 C 0.66653 0.70581 0.62108 0.0
C1323 C 0.65034 0.46271 0.68299 0.0
C1324 C 0.65897 0.60162 0.61255 0.0
C1325 C 0.76894 0.48453 0.56692 0.0
C1326 C 0.77936 0.48716 0.59315 0.0
C1327 C 0.59477 0.46203 0.63132 0.0
C1328 C 0.62301 0.17937 0.65495 0.0
C1329 C 0.62243 0.07478 0.64777 0.0
C1330 C 0.59292 0.07419 0.65408 0.0
C1331 C 0.59358 0.1781 0.66107 0.0
C1332 C 0.63732 0.12783 0.64831 0.0
C1333 C 0.57865 0.1256 0.66069 0.0
C1334 C 0.63834 0.38175 0.58671 0.0
C1335 C 0.63917 0.23391 0.65501 0.0
H1336 H 0.72679 0.78912 0.61465 0.0
H1337 H 0.71586 0.60836 0.5982 0.0
H1338 H 0.74645 0.69557 0.5995 0.0
H1339 H 0.64405 0.7083 0.62675 0.0
H1340 H 0.58075 0.03415 0.65352 0.0
H1341 H 0.58218 0.21749 0.66613 0.0
H1342 H 0.66013 0.1291 0.64382 0.0
H1343 H 0.55593 0.12477 0.66539 0.0
H1344 H 0.22161 0.22151 0.1752 0.0
H1345 H 0.21782 0.19056 0.09049 0.0
H1346 H 0.26048 0.25059 0.08399 0.0
H1347 H 0.29988 0.31134 0.10233 0.0
H1348 H 0.30613 0.33541 0.18733 0.0
H1349 H 0.26178 0.27996 0.19366 0.0
C1350 C 0.23008 0.22806 0.15532 0.0
C1351 C 0.21633 0.2013 0.13341 0.0
C1352 C 0.25521 0.2619 0.15172 0.0
C1353 C 0.2279 0.21005 0.10781 0.0
C1354 C 0.25233 0.24471 0.10402 0.0
C1355 C 0.29142 0.30466 0.12221 0.0
C1356 C 0.30635 0.32775 0.14432 0.0
C1357 C 0.2663 0.2708 0.12581 0.0
C1358 C 0.2952 0.31804 0.16996 0.0
C1359 C 0.26978 0.28626 0.17361 0.0
H1360 H 0.80509 0.80278 0.1071 0.0
H1361 H 0.81023 0.81786 0.19259 0.0
H1362 H 0.76423 0.76674 0.19699 0.0
H1363 H 0.72281 0.71574 0.17644 0.0
H1364 H 0.71959 0.69588 0.09097 0.0
H1365 H 0.76427 0.75076 0.08665 0.0
C1366 C 0.79604 0.79508 0.12668 0.0
C1367 C 0.81101 0.81413 0.14951 0.0
C1368 C 0.76986 0.76467 0.12905 0.0
C1369 C 0.79917 0.80337 0.17474 0.0
C1370 C 0.77284 0.77424 0.17724 0.0
C1371 C 0.73181 0.72377 0.15688 0.0
C1372 C 0.71768 0.70202 0.13407 0.0
C1373 C 0.75801 0.75439 0.15454 0.0
C1374 C 0.72991 0.71213 0.10888 0.0
C1375 C 0.75552 0.74355 0.10637 0.0
H1376 H 0.3051 0.70716 0.34155 0.0
H1377 H 0.30684 0.67748 0.42643 0.0
H1378 H 0.26566 0.7422 0.43217 0.0
H1379 H 0.2284 0.8068 0.41303 0.0
H1380 H 0.22458 0.83077 0.32785 0.0
H1381 H 0.26718 0.76964 0.32234 0.0
C1382 C 0.29653 0.71507 0.3613 0.0
C1383 C 0.30917 0.68759 0.38349 0.0
C1384 C 0.27236 0.75156 0.36444 0.0
C1385 C 0.29754 0.69785 0.40894 0.0
C1386 C 0.27398 0.73504 0.41228 0.0
C1387 C 0.23697 0.79866 0.39329 0.0
C1388 C 0.22331 0.8232 0.37087 0.0
C1389 C 0.26112 0.76207 0.39018 0.0
C1390 C 0.23457 0.81203 0.34541 0.0
C1391 C 0.25898 0.77713 0.34224 0.0
H1392 H 0.80915 0.22953 0.33847 0.0
H1393 H 0.81511 0.20353 0.42345 0.0
H1394 H 0.77002 0.25607 0.42982 0.0
H1395 H 0.72785 0.30756 0.4113 0.0
H1396 H 0.71965 0.32719 0.32623 0.0
H1397 H 0.76638 0.27985 0.31984 0.0
C1398 C 0.80062 0.23573 0.35836 0.0
C1399 C 0.81559 0.21265 0.38042 0.0
C1400 C 0.77414 0.26494 0.36189 0.0
C1401 C 0.80404 0.22052 0.40607 0.0
C1402 C 0.77822 0.25072 0.40977 0.0
C1403 C 0.73642 0.30162 0.3914 0.0
C1404 C 0.72037 0.32085 0.36927 0.0
C1405 C 0.76295 0.27283 0.38785 0.0
C1406 C 0.73157 0.31244 0.34357 0.0
C1407 C 0.75831 0.28545 0.33992 0.0
H1408 H 0.72496 0.71231 0.84159 0.0
H1409 H 0.71577 0.70737 0.927 0.0
H1410 H 0.75807 0.76952 0.93221 0.0
H1411 H 0.79854 0.82467 0.91254 0.0
H1412 H 0.81016 0.82229 0.82734 0.0
H1413 H 0.76635 0.76456 0.82202 0.0
C1414 C 0.73215 0.72518 0.86132 0.0
C1415 C 0.717 0.70548 0.88385 0.0
C1416 C 0.75708 0.75988 0.86422 0.0
C1417 C 0.72694 0.72182 0.90929 0.0
C1418 C 0.75117 0.75752 0.9123 0.0
C1419 C 0.79137 0.81177 0.89281 0.0
C1420 C 0.8076 0.82821 0.87034 0.0
C1421 C 0.76651 0.77681 0.88993 0.0
C1422 C 0.79815 0.81033 0.84497 0.0
C1423 C 0.77305 0.77724 0.8419 0.0
H1424 H 0.29819 0.3213 0.91001 0.0
H1425 H 0.31655 0.28653 0.82739 0.0
H1426 H 0.2744 0.2235 0.82448 0.0
H1427 H 0.2307 0.1809 0.84494 0.0
H1428 H 0.2094 0.22586 0.92587 0.0
H1429 H 0.25349 0.28331 0.9297 0.0
C1430 C 0.29272 0.3009 0.89122 0.0
C1431 C 0.31073 0.30887 0.86899 0.0
C1432 C 0.26762 0.26659 0.88934 0.0
C1433 C 0.30346 0.2807 0.84499 0.0
C1434 C 0.27916 0.24486 0.84323 0.0
C1435 C 0.23588 0.20304 0.86342 0.0
C1436 C 0.21687 0.19892 0.88514 0.0
C1437 C 0.26093 0.23764 0.86523 0.0
C1438 C 0.22365 0.22847 0.90886 0.0
C1439 C 0.24889 0.26127 0.91108 0.0
H1440 H 0.72911 0.3255 0.60229 0.0
H1441 H 0.72237 0.34704 0.68738 0.0
H1442 H 0.76659 0.29106 0.69393 0.0
H1443 H 0.80641 0.23221 0.67571 0.0
H1444 H 0.81171 0.20565 0.59082 0.0
H1445 H 0.76891 0.26572 0.58404 0.0
C1446 C 0.73746 0.31813 0.62223 0.0
C1447 C 0.72238 0.34042 0.64432 0.0
C1448 C 0.76256 0.28415 0.62594 0.0
C1449 C 0.73338 0.33007 0.67005 0.0
C1450 C 0.75871 0.29801 0.67382 0.0
C1451 C 0.79827 0.23986 0.65572 0.0
C1452 C 0.81238 0.21431 0.63384 0.0
C1453 C 0.77334 0.27418 0.65196 0.0
C1454 C 0.80127 0.22424 0.6081 0.0
C1455 C 0.7768 0.25896 0.60416 0.0
H1456 H 0.24155 0.85918 0.60318 0.0
H1457 H 0.20051 0.77514 0.66975 0.0
H1458 H 0.2404 0.70649 0.67317 0.0
H1459 H 0.28838 0.67204 0.65848 0.0
H1460 H 0.32994 0.75897 0.59298 0.0
H1461 H 0.28903 0.82449 0.58832 0.0
C1462 C 0.24128 0.8259 0.61843 0.0
C1463 C 0.21785 0.82268 0.63613 0.0
C1464 C 0.2647 0.78692 0.62069 0.0
C1465 C 0.2181 0.77897 0.65577 0.0
C1466 C 0.24102 0.73952 0.65781 0.0
C1467 C 0.28831 0.70486 0.64301 0.0
C1468 C 0.31233 0.71018 0.62612 0.0
C1469 C 0.26461 0.74324 0.64052 0.0
C1470 C 0.31192 0.75373 0.60641 0.0
C1471 C 0.28843 0.79137 0.60365 0.0
H1472 H 0.12492 0.92032 0.28364 0.0
H1473 H 0.16367 0.06719 0.32306 0.0
H1474 H 0.16487 0.12005 0.28121 0.0
H1475 H 0.1575 0.12303 0.23224 0.0
H1476 H 0.11397 0.97921 0.19441 0.0
H1477 H 0.11235 0.92748 0.23639 0.0
C1478 C 0.13387 0.96349 0.28314 0.0
C1479 C 0.14535 0.98795 0.3065 0.0
C1480 C 0.13369 0.99482 0.25903 0.0
C1481 C 0.15554 0.04566 0.30539 0.0
C1482 C 0.15612 0.07648 0.28137 0.0
C1483 C 0.14713 0.08101 0.23328 0.0
C1484 C 0.13628 0.05518 0.20991 0.0
C1485 C 0.14562 0.05126 0.25788 0.0
C1486 C 0.12303 1.00023 0.21184 0.0
C1487 C 0.122 0.97028 0.23594 0.0
H1488 H 0.89807 0.98885 0.31216 0.0
H1489 H 0.87579 0.15893 0.28241 0.0
H1490 H 0.87704 0.12206 0.23684 0.0
H1491 H 0.88339 0.04116 0.2056 0.0
H1492 H 0.89285 0.86743 0.23657 0.0
H1493 H 0.8978 0.90605 0.28147 0.0
C1494 C 0.89346 0.01824 0.29581 0.0
C1495 C 0.88829 0.0777 0.30093 0.0
C1496 C 0.89184 0.99574 0.26979 0.0
C1497 C 0.88161 0.11406 0.27927 0.0
C1498 C 0.88175 0.09262 0.25313 0.0
C1499 C 0.88619 1.01121 0.22206 0.0
C1500 C 0.88839 0.95086 0.21719 0.0
C1501 C 0.88682 0.03349 0.24818 0.0
C1502 C 0.89209 0.91374 0.23916 0.0
C1503 C 0.89453 0.93594 0.26505 0.0
H1504 H 0.89041 0.99084 0.70543 0.0
H1505 H 0.87744 0.16665 0.73261 0.0
H1506 H 0.87806 0.13327 0.77869 0.0
H1507 H 0.88096 0.05392 0.8112 0.0
H1508 H 0.88302 0.87684 0.7832 0.0
H1509 H 0.88781 0.91094 0.73751 0.0
C1510 C 0.88742 0.02221 0.72129 0.0
C1511 C 0.88445 0.08184 0.7152 0.0
C1512 C 0.88581 1.00219 0.74771 0.0
C1513 C 0.88076 0.12108 0.73637 0.0
C1514 C 0.88069 0.10177 0.76284 0.0
C1515 C 0.88217 0.02238 0.79521 0.0
C1516 C 0.88244 0.96234 0.80108 0.0
C1517 C 0.88304 0.04236 0.76873 0.0
C1518 C 0.88397 0.92293 0.77975 0.0
C1519 C 0.8863 0.94256 0.75344 0.0
H1520 H 0.16929 0.10824 0.78369 0.0
H1521 H 0.10084 1.00008 0.81306 0.0
H1522 H 0.09742 0.95081 0.77 0.0
H1523 H 0.1153 0.93581 0.72432 0.0
H1524 H 0.1846 0.04309 0.69557 0.0
H1525 H 0.18627 0.0946 0.73763 0.0
C1526 C 0.15325 0.07479 0.78037 0.0
C1527 C 0.13523 0.05807 0.80134 0.0
C1528 C 0.15193 0.0454 0.75575 0.0
C1529 C 0.1149 0.01377 0.79705 0.0
C1530 C 0.11305 0.98529 0.77252 0.0
C1531 C 0.13115 0.96943 0.72742 0.0
C1532 C 0.15027 0.98381 0.70681 0.0
C1533 C 0.13188 0.99986 0.75183 0.0
C1534 C 0.16987 0.02973 0.71104 0.0
C1535 C 0.17078 0.05987 0.73515 0.0
H1536 H 0.62299 0.5256 0.30892 0.0
H1537 H 0.66469 0.36741 0.28411 0.0
H1538 H 0.6638 0.40085 0.23768 0.0
H1539 H 0.65324 0.47764 0.20458 0.0
H1540 H 0.61129 0.63472 0.23043 0.0
H1541 H 0.61019 0.59916 0.2759 0.0
C1542 C 0.63188 0.49828 0.29337 0.0
C1543 C 0.64395 0.44412 0.29999 0.0
C1544 C 0.63155 0.51799 0.26691 0.0
C1545 C 0.65504 0.40905 0.27953 0.0
C1546 C 0.65468 0.42835 0.253 0.0
C1547 C 0.64408 0.50448 0.22013 0.0
C1548 C 0.63387 0.56082 0.21408 0.0
C1549 C 0.64333 0.48319 0.24649 0.0
C1550 C 0.62092 0.5932 0.23452 0.0
C1551 C 0.61989 0.57235 0.2606 0.0
H1552 H 0.36801 0.60674 0.28466 0.0
H1553 H 0.40447 0.45482 0.32225 0.0
H1554 H 0.40564 0.40496 0.2796 0.0
H1555 H 0.39539 0.40349 0.2317 0.0
H1556 H 0.3656 0.55991 0.19317 0.0
H1557 H 0.36296 0.60851 0.23587 0.0
C1558 C 0.37695 0.5634 0.28349 0.0
C1559 C 0.38621 0.5351 0.3068 0.0
C1560 C 0.37847 0.53515 0.25864 0.0
C1561 C 0.39699 0.47801 0.30477 0.0
C1562 C 0.3977 0.44918 0.28031 0.0
C1563 C 0.38859 0.44806 0.23241 0.0
C1564 C 0.3804 0.47675 0.20887 0.0
C1565 C 0.3883 0.47715 0.2571 0.0
C1566 C 0.37168 0.53543 0.21073 0.0
C1567 C 0.37025 0.56383 0.23527 0.0
H1568 H 0.39135 0.54676 0.81079 0.0
H1569 H 0.37021 0.37414 0.7835 0.0
H1570 H 0.36617 0.40964 0.73802 0.0
H1571 H 0.36764 0.48865 0.7063 0.0
H1572 H 0.38467 0.66372 0.73275 0.0
H1573 H 0.39029 0.62829 0.77859 0.0
C1574 C 0.386 0.51673 0.79489 0.0
C1575 C 0.38193 0.45717 0.80067 0.0
C1576 C 0.38248 0.53803 0.76875 0.0
C1577 C 0.3746 0.41942 0.77975 0.0
C1578 C 0.37177 0.43999 0.75371 0.0
C1579 C 0.37261 0.51966 0.7219 0.0
C1580 C 0.37654 0.57895 0.71568 0.0
C1581 C 0.37557 0.4991 0.74804 0.0
C1582 C 0.38223 0.61784 0.73662 0.0
C1583 C 0.3854 0.5975 0.76289 0.0
H1584 H 0.66448 0.6223 0.78592 0.0
H1585 H 0.61986 0.47688 0.82078 0.0
H1586 H 0.61822 0.42833 0.778 0.0
H1587 H 0.63065 0.42478 0.73103 0.0
H1588 H 0.67273 0.57025 0.69424 0.0
H1589 H 0.67423 0.6207 0.73707 0.0
C1590 C 0.65394 0.58057 0.784 0.0
C1591 C 0.64229 0.55358 0.80672 0.0
C1592 C 0.65298 0.55223 0.75898 0.0
C1593 C 0.62909 0.49891 0.80381 0.0
C1594 C 0.6282 0.47075 0.77928 0.0
C1595 C 0.6403 0.46709 0.73227 0.0
C1596 C 0.65189 0.49266 0.70935 0.0
C1597 C 0.64043 0.49651 0.75681 0.0
C1598 C 0.6638 0.54878 0.71152 0.0
C1599 C 0.66461 0.57795 0.73607 0.0
H1600 H 0.15152 0.209 0.96308 0.0
H1601 H 0.09626 0.05943 0.95586 0.0
H1602 H 0.08972 0.05727 1.00398 0.0
H1603 H 0.10371 0.09063 0.04808 0.0
H1604 H 0.16038 0.23733 0.05697 0.0
H1605 H 0.16202 0.24878 0.00827 0.0
C1606 C 0.13752 0.17698 0.9721 0.0
C1607 C 0.12446 0.13425 0.95607 0.0
C1608 C 0.13434 0.17519 1.00003 0.0
C1609 C 0.10665 0.09245 0.96789 0.0
C1610 C 0.10294 0.09112 0.99538 0.0
C1611 C 0.11614 0.12565 0.03937 0.0
C1612 C 0.1321 0.16279 0.05595 0.0
C1613 C 0.11734 0.13111 0.01164 0.0
C1614 C 0.1478 0.2084 0.04452 0.0
C1615 C 0.14891 0.21459 0.01671 0.0
H1616 H 0.87624 0.81157 0.9668 0.0
H1617 H 0.92536 0.96963 0.95962 0.0
H1618 H 0.9316 0.97384 0.00766 0.0
H1619 H 0.91947 0.93856 0.05195 0.0
H1620 H 0.87067 0.78088 0.06071 0.0
H1621 H 0.86819 0.77022 0.01209 0.0
C1622 C 0.88881 0.84608 0.97579 0.0
C1623 C 0.90001 0.89055 0.95966 0.0
C1624 C 0.89213 0.84874 1.00378 0.0
C1625 C 0.91615 0.93525 0.97159 0.0
C1626 C 0.91975 0.93782 0.9991 0.0
C1627 C 0.90856 0.90148 0.04322 0.0
C1628 C 0.89509 0.86088 0.05984 0.0
C1629 C 0.90718 0.89579 0.01542 0.0
C1630 C 0.88131 0.81269 0.04829 0.0
C1631 C 0.87975 0.80676 0.02049 0.0
H1632 H 0.10045 0.90153 0.46248 0.0
H1633 H 0.17331 0.7881 0.45225 0.0
H1634 H 0.17763 0.77714 0.5008 0.0
H1635 H 0.1642 0.81101 0.54654 0.0
H1636 H 0.09069 0.9239 0.55518 0.0
H1637 H 0.08282 0.92309 0.50721 0.0
C1638 C 0.11683 0.87323 0.47088 0.0
C1639 C 0.13657 0.8459 0.45385 0.0
C1640 C 0.11919 0.8674 0.49869 0.0
C1641 C 0.15764 0.80914 0.46495 0.0
C1642 C 0.16029 0.80339 0.49276 0.0
C1643 C 0.14597 0.83378 0.5379 0.0
C1644 C 0.12814 0.86777 0.55439 0.0
C1645 C 0.14168 0.83372 0.50992 0.0
C1646 C 0.10481 0.89773 0.5429 0.0
C1647 C 0.10034 0.89752 0.51543 0.0
H1648 H 0.88037 0.22615 0.54996 0.0
H1649 H 0.93572 0.07669 0.5588 0.0
H1650 H 0.94172 0.07106 0.51078 0.0
H1651 H 0.92795 0.10224 0.46621 0.0
H1652 H 0.87224 0.25018 0.45572 0.0
H1653 H 0.86995 0.26334 0.50425 0.0
C1654 C 0.89424 0.19332 0.54131 0.0
C1655 C 0.90742 0.15169 0.5579 0.0
C1656 C 0.89732 0.18967 0.51337 0.0
C1657 C 0.9251 0.10892 0.54646 0.0
C1658 C 0.92855 0.10555 0.51897 0.0
C1659 C 0.91557 0.13781 0.47454 0.0
C1660 C 0.90016 0.17494 0.45751 0.0
C1661 C 0.91419 0.14466 0.50224 0.0
C1662 C 0.88443 0.22121 0.46849 0.0
C1663 C 0.88297 0.22846 0.49623 0.0
H1664 H 0.5995 0.60718 0.05313 0.0
H1665 H 0.66181 0.74426 0.06235 0.0
H1666 H 0.66596 0.75229 0.01376 0.0
H1667 H 0.65541 0.7126 0.96853 0.0
H1668 H 0.59471 0.57214 0.9608 0.0
H1669 H 0.58625 0.57337 0.00872 0.0
C1670 C 0.61369 0.63944 0.04452 0.0
C1671 C 0.63043 0.67482 0.06132 0.0
C1672 C 0.61637 0.64293 0.01672 0.0
C1673 C 0.64857 0.71666 0.04985 0.0
C1674 C 0.65111 0.72095 0.02206 0.0
C1675 C 0.63985 0.68342 0.97738 0.0
C1676 C 0.62565 0.6424 0.96125 0.0
C1677 C 0.63559 0.68336 1.00525 0.0
C1678 C 0.60591 0.60398 0.9729 0.0
C1679 C 0.60111 0.60455 1.00029 0.0
H1680 H 0.37256 0.30902 0.96281 0.0
H1681 H 0.43241 0.45097 0.95549 0.0
H1682 H 0.43911 0.45307 1.0037 0.0
H1683 H 0.42399 0.42257 0.0479 0.0
H1684 H 0.36221 0.28472 0.05677 0.0
H1685 H 0.36051 0.27208 0.00814 0.0
C1686 C 0.38758 0.33924 0.97185 0.0
C1687 C 0.40202 0.3798 0.95575 0.0
C1688 C 0.39074 0.34129 0.99983 0.0
C1689 C 0.42106 0.41952 0.96759 0.0
C1690 C 0.42484 0.42084 0.99512 0.0
C1691 C 0.41049 0.38908 0.0392 0.0
C1692 C 0.39309 0.35492 0.05579 0.0
C1693 C 0.40917 0.38317 0.01144 0.0
C1694 C 0.37591 0.31135 0.04436 0.0
C1695 C 0.37476 0.30452 0.01656 0.0
H1696 H 0.66314 0.31482 0.46685 0.0
H1697 H 0.5946 0.43883 0.4554 0.0
H1698 H 0.58689 0.4438 0.50339 0.0
H1699 H 0.60288 0.42153 0.54854 0.0
H1700 H 0.67276 0.3017 0.56157 0.0
H1701 H 0.67652 0.28551 0.51323 0.0
C1702 C 0.64608 0.3416 0.47497 0.0
C1703 C 0.62938 0.37634 0.45773 0.0
C1704 C 0.64224 0.34544 0.50284 0.0
C1705 C 0.60769 0.41183 0.46837 0.0
C1706 C 0.60333 0.41482 0.49578 0.0
C1707 C 0.61864 0.39113 0.5408 0.0
C1708 C 0.63764 0.36312 0.55846 0.0
C1709 C 0.62098 0.38316 0.5132 0.0
C1710 C 0.6578 0.3235 0.5483 0.0
C1711 C 0.66009 0.31469 0.52067 0.0
H1712 H 0.37588 0.70501 0.55017 0.0
H1713 H 0.43474 0.56142 0.55954 0.0
H1714 H 0.44038 0.5549 0.51135 0.0
H1715 H 0.42448 0.58222 0.46678 0.0
H1716 H 0.36459 0.72333 0.45607 0.0
H1717 H 0.36364 0.73932 0.50449 0.0
C1718 C 0.39044 0.67335 0.54158 0.0
C1719 C 0.40476 0.63346 0.55826 0.0
C1720 C 0.3931 0.669 0.51368 0.0
C1721 C 0.42338 0.59224 0.54701 0.0
C1722 C 0.42654 0.58838 0.51949 0.0
C1723 C 0.41151 0.61702 0.47504 0.0
C1724 C 0.39444 0.65124 0.45804 0.0
C1725 C 0.41084 0.62526 0.50267 0.0
C1726 C 0.378 0.69663 0.46885 0.0
C1727 C 0.37732 0.70544 0.49651 0.0
H1728 H 0.96181 0.01446 0.1071 0.0
H1729 H 0.96991 0.92671 0.1824 0.0
H1730 H 0.02042 0.9567 0.18585 0.0
H1731 H 0.06253 1.00827 0.16709 0.0
H1732 H 0.05272 0.10307 0.09358 0.0
H1733 H 1.00252 0.07212 0.0901 0.0
C1734 C 0.97443 1.00345 0.12457 0.0
C1735 C 0.96231 0.96859 0.1445 0.0
C1736 C 1.00318 0.02226 0.12669 0.0
C1737 C 0.97905 0.95302 0.16671 0.0
C1738 C 1.00785 0.97035 0.16871 0.0
C1739 C 0.04936 0.02166 0.15027 0.0
C1740 C 0.06128 0.05739 0.13049 0.0
C1741 C 0.02026 1.00463 0.1487 0.0
C1742 C 0.04395 0.07551 0.10903 0.0
C1743 C 0.01526 0.0578 0.10702 0.0
H1744 H 0.96606 0.99985 0.35444 0.0
H1745 H 0.98273 0.12911 0.41459 0.0
H1746 H 0.03267 0.09742 0.41809 0.0
H1747 H 0.07211 0.03205 0.40426 0.0
H1748 H 0.05495 0.90124 0.34491 0.0
H1749 H 1.00511 0.93312 0.34138 0.0
C1750 C 0.9806 0.02077 0.36841 0.0
C1751 C 0.97081 0.06789 0.3837 0.0
C1752 C 1.00937 1.00159 0.37065 0.0
C1753 C 0.98992 0.09412 0.40189 0.0
C1754 C 0.0185 0.07565 0.40409 0.0
C1755 C 0.05749 1.01088 0.39045 0.0
C1756 C 0.06726 0.96371 0.37517 0.0
C1757 C 0.02861 0.02965 0.38844 0.0
C1758 C 0.04791 0.93659 0.35745 0.0
C1759 C 0.01935 0.95514 0.35522 0.0
H1760 H 0.04585 0.08952 0.84952 0.0
H1761 H 0.07546 0.98686 0.91614 0.0
H1762 H 0.02745 0.94616 0.92129 0.0
H1763 H 0.97671 0.94146 0.90777 0.0
H1764 H 0.94614 0.04605 0.84233 0.0
H1765 H 0.99451 0.08683 0.83672 0.0
C1766 C 0.04176 0.05901 0.86542 0.0
C1767 C 0.06443 0.04166 0.88245 0.0
C1768 C 1.01379 0.0367 0.86871 0.0
C1769 C 0.0587 1.00072 0.90252 0.0
C1770 C 0.03111 0.97765 0.90563 0.0
C1771 C 0.98071 0.97257 0.89205 0.0
C1772 C 0.958 0.98997 0.87522 0.0
C1773 C 1.0085 0.99543 0.88891 0.0
C1774 C 0.96328 0.03193 0.85554 0.0
C1775 C 0.99096 0.05495 0.85224 0.0
H1776 H 0.96159 0.99923 0.61374 0.0
H1777 H 0.97794 0.12062 0.67709 0.0
H1778 H 0.02894 0.09396 0.6776 0.0
H1779 H 0.06943 0.03529 0.65976 0.0
H1780 H 0.05203 0.91036 0.59778 0.0
H1781 H 1.00141 0.93806 0.59722 0.0
C1782 C 0.97631 0.01906 0.62789 0.0
C1783 C 0.9662 0.06269 0.64503 0.0
C1784 C 1.00563 1.00278 0.62825 0.0
C1785 C 0.98546 0.0883 0.66317 0.0
C1786 C 0.01461 0.07269 0.66358 0.0
C1787 C 0.05458 0.01477 0.64595 0.0
C1788 C 0.06462 0.97102 0.62876 0.0
C1789 C 0.02511 0.03039 0.64598 0.0
C1790 C 0.04493 0.94404 0.61131 0.0
C1791 C 0.01588 0.95982 0.61096 0.0
H1792 H 0.45445 0.54491 0.15621 0.0
H1793 H 0.47693 0.4036 0.10395 0.0
H1794 H 0.5268 0.43483 0.10356 0.0
H1795 H 0.56451 0.50245 0.11764 0.0
H1796 H 0.54256 0.64832 0.16742 0.0
H1797 H 0.49238 0.61627 0.16874 0.0
C1798 C 0.47026 0.52128 0.14462 0.0
C1799 C 0.46198 0.47063 0.13083 0.0
C1800 C 0.49915 0.54065 0.14388 0.0
C1801 C 0.48278 0.44108 0.11569 0.0
C1802 C 0.51138 0.45938 0.11517 0.0
C1803 C 0.54881 0.52712 0.12892 0.0
C1804 C 0.55742 0.57771 0.14244 0.0
C1805 C 0.5199 0.50882 0.12933 0.0
C1806 C 0.53657 0.6095 0.15661 0.0
C1807 C 0.50782 0.59104 0.15747 0.0
H1808 H 0.48191 0.58646 0.35512 0.0
H1809 H 0.45391 0.48042 0.42105 0.0
H1810 H 0.5019 0.4383 0.42464 0.0
H1811 H 0.55188 0.43169 0.40937 0.0
H1812 H 0.58058 0.53914 0.34444 0.0
H1813 H 0.53259 0.58289 0.34105 0.0
C1814 C 0.48634 0.55513 0.37065 0.0
C1815 C 0.46419 0.5375 0.388 0.0
C1816 C 0.51421 0.53162 0.37293 0.0
C1817 C 0.47038 0.4952 0.40743 0.0
C1818 C 0.4979 0.47105 0.40957 0.0
C1819 C 0.54752 0.46418 0.39428 0.0
C1820 C 0.56953 0.48123 0.37681 0.0
C1821 C 0.51994 0.48886 0.39242 0.0
C1822 C 0.56392 0.525 0.35801 0.0
C1823 C 0.53646 0.54983 0.356 0.0
H1824 H 0.48101 0.43264 0.8545 0.0
H1825 H 0.44741 0.55062 0.91325 0.0
H1826 H 0.49543 0.5924 0.91947 0.0
H1827 H 0.54759 0.5921 0.90945 0.0
H1828 H 0.58101 0.47091 0.8519 0.0
H1829 H 0.53278 0.43161 0.84486 0.0
C1830 C 0.48422 0.46675 0.86902 0.0
C1831 C 0.46059 0.48783 0.88366 0.0
C1832 C 0.51202 0.48938 0.87292 0.0
C1833 C 0.46505 0.53388 0.90156 0.0
C1834 C 0.49262 0.55735 0.9053 0.0
C1835 C 0.54423 0.55756 0.89515 0.0
C1836 C 0.56785 0.53537 0.8808 0.0
C1837 C 0.51633 0.53506 0.89126 0.0
C1838 C 0.56329 0.48907 0.86309 0.0
C1839 C 0.53565 0.46663 0.85901 0.0
H1840 H 0.46877 0.54677 0.60096 0.0
H1841 H 0.45993 0.54215 0.68637 0.0
H1842 H 0.50942 0.50662 0.69095 0.0
H1843 H 0.5556 0.4786 0.67072 0.0
H1844 H 0.56608 0.49139 0.58556 0.0
H1845 H 0.51586 0.52224 0.58077 0.0
C1846 C 0.47768 0.53726 0.62049 0.0
C1847 C 0.46068 0.54598 0.64329 0.0
C1848 C 0.50656 0.51893 0.62302 0.0
C1849 C 0.4726 0.53514 0.66857 0.0
C1850 C 0.5009 0.51503 0.67118 0.0
C1851 C 0.54689 0.48827 0.65112 0.0
C1852 C 0.56461 0.48283 0.62854 0.0
C1853 C 0.51815 0.50709 0.64857 0.0
C1854 C 0.55303 0.49577 0.6033 0.0
C1855 C 0.52424 0.5131 0.60053 0.0
H1856 H 0.16571 0.6685 0.07414 0.0
H1857 H 0.14567 0.76067 0.14683 0.0
H1858 H 0.15142 0.67129 0.17218 0.0
H1859 H 0.15936 0.56528 0.17354 0.0
H1860 H 0.17219 0.47248 0.09984 0.0
H1861 H 0.17099 0.56342 0.07507 0.0
C1862 C 0.16205 0.66937 0.09546 0.0
C1863 C 0.15514 0.72197 0.10829 0.0
C1864 C 0.16385 0.61727 0.10982 0.0
C1865 C 0.15153 0.72158 0.13619 0.0
C1866 C 0.15447 0.67014 0.15078 0.0
C1867 C 0.16209 0.56516 0.15208 0.0
C1868 C 0.1663 0.51226 0.13861 0.0
C1869 C 0.1603 0.61757 0.13777 0.0
C1870 C 0.16904 0.51259 0.11071 0.0
C1871 C 0.16842 0.56459 0.09652 0.0
H1872 H 0.92371 0.30845 0.14312 0.0
H1873 H 0.8426 0.27412 0.10366 0.0
H1874 H 0.82649 0.37241 0.11345 0.0
H1875 H 0.83602 0.46935 0.13174 0.0
H1876 H 0.91831 0.506 0.168 0.0
H1877 H 0.93374 0.40592 0.16015 0.0
C1878 C 0.90264 0.32247 0.13629 0.0
C1879 C 0.88447 0.28345 0.12268 0.0
C1880 C 0.8938 0.37969 0.14122 0.0
C1881 C 0.85695 0.3025 0.11461 0.0
C1882 C 0.84777 0.35901 0.11997 0.0
C1883 C 0.85723 0.45525 0.13807 0.0
C1884 C 0.87597 0.49477 0.1505 0.0
C1885 C 0.86606 0.39802 0.13314 0.0
C1886 C 0.90358 0.47628 0.15827 0.0
C1887 C 0.91236 0.41911 0.15387 0.0
H1888 H 0.14937 0.34798 0.44258 0.0
H1889 H 0.17948 0.25867 0.37213 0.0
H1890 H 0.17331 0.34713 0.34624 0.0
H1891 H 0.15917 0.45027 0.34334 0.0
H1892 H 0.13351 0.54106 0.41454 0.0
H1893 H 0.13972 0.45216 0.44065 0.0
C1894 C 0.15533 0.34758 0.42173 0.0
C1895 C 0.16482 0.29563 0.40959 0.0
C1896 C 0.15289 0.39936 0.40707 0.0
C1897 C 0.17145 0.29689 0.3822 0.0
C1898 C 0.16828 0.34791 0.36732 0.0
C1899 C 0.15516 0.45054 0.36463 0.0
C1900 C 0.14574 0.50201 0.37701 0.0
C1901 C 0.15895 0.39934 0.37952 0.0
C1902 C 0.14093 0.50208 0.40462 0.0
C1903 C 0.14426 0.45115 0.41948 0.0
H1904 H 0.86796 0.57721 0.32813 0.0
H1905 H 0.88534 0.50501 0.40606 0.0
H1906 H 0.89921 0.60028 0.42245 0.0
H1907 H 0.90817 0.70398 0.41439 0.0
H1908 H 0.88721 0.77811 0.33798 0.0
H1909 H 0.87225 0.68251 0.32139 0.0
C1910 C 0.87423 0.58227 0.34883 0.0
C1911 C 0.87614 0.53334 0.36557 0.0
C1912 C 0.88154 0.63766 0.35843 0.0
C1913 C 0.88453 0.54126 0.39236 0.0
C1914 C 0.89226 0.59593 0.40189 0.0
C1915 C 0.90013 0.69891 0.39418 0.0
C1916 C 0.89893 0.74721 0.37725 0.0
C1917 C 0.89125 0.64425 0.38502 0.0
C1918 C 0.8883 0.741 0.3512 0.0
C1919 C 0.87984 0.68651 0.34177 0.0
H1920 H 0.90068 0.33778 0.91542 0.0
H1921 H 0.81676 0.2877 0.88677 0.0
H1922 H 0.81108 0.38233 0.86489 0.0
H1923 H 0.82878 0.48152 0.85694 0.0
H1924 H 0.91426 0.52826 0.88376 0.0
H1925 H 0.92026 0.43299 0.9037 0.0
C1926 C 0.88126 0.34758 0.90419 0.0
C1927 C 0.85903 0.30645 0.90287 0.0
C1928 C 0.87825 0.40166 0.8917 0.0
C1929 C 0.83413 0.31894 0.88798 0.0
C1930 C 0.83084 0.37305 0.87564 0.0
C1931 C 0.84891 0.47083 0.86676 0.0
C1932 C 0.8707 0.51312 0.86933 0.0
C1933 C 0.85259 0.41516 0.87777 0.0
C1934 C 0.89662 0.49777 0.88221 0.0
C1935 C 0.90027 0.44291 0.89343 0.0
H1936 H 0.19421 0.53471 0.85518 0.0
H1937 H 0.10463 0.48857 0.84725 0.0
H1938 H 0.09047 0.58459 0.86348 0.0
H1939 H 0.10365 0.68299 0.87768 0.0
H1940 H 0.19347 0.72655 0.88833 0.0
H1941 H 0.20734 0.63079 0.87247 0.0
C1942 C 0.17159 0.54575 0.85701 0.0
C1943 C 0.15048 0.50488 0.84979 0.0
C1944 C 0.16364 0.60081 0.86646 0.0
C1945 C 0.12126 0.5193 0.85272 0.0
C1946 C 0.11317 0.57427 0.86186 0.0
C1947 C 0.12627 0.67149 0.87701 0.0
C1948 C 0.14739 0.71278 0.88398 0.0
C1949 C 0.13419 0.61558 0.86853 0.0
C1950 C 0.17662 0.69668 0.88248 0.0
C1951 C 0.18465 0.64154 0.87365 0.0
H1952 H 0.90881 0.70362 0.60426 0.0
H1953 H 0.82094 0.75687 0.61673 0.0
H1954 H 0.81008 0.66275 0.63722 0.0
H1955 H 0.82514 0.56358 0.64861 0.0
H1956 H 0.91394 0.51283 0.6377 0.0
H1957 H 0.92485 0.60789 0.61951 0.0
C1958 C 0.88736 0.69454 0.61166 0.0
C1959 C 0.86558 0.73632 0.60882 0.0
C1960 C 0.8814 0.64081 0.62342 0.0
C1961 C 0.83796 0.72496 0.61877 0.0
C1962 C 0.83177 0.67122 0.63035 0.0
C1963 C 0.84692 0.57315 0.64252 0.0
C1964 C 0.86836 0.52991 0.64375 0.0
C1965 C 0.85325 0.62845 0.63236 0.0
C1966 C 0.89662 0.54415 0.63605 0.0
C1967 C 0.90303 0.59881 0.62584 0.0
H1968 H 0.20425 0.34703 0.6115 0.0
H1969 H 0.12242 0.2854 0.58208 0.0
H1970 H 0.10006 0.37828 0.5931 0.0
H1971 H 0.10348 0.47548 0.61212 0.0
H1972 H 0.18442 0.53511 0.64456 0.0
H1973 H 0.20774 0.44553 0.63031 0.0
C1974 C 0.18165 0.35442 0.60714 0.0
C1975 C 0.16498 0.3097 0.59597 0.0
C1976 C 0.16885 0.40758 0.61391 0.0
C1977 C 0.1356 0.31924 0.59081 0.0
C1978 C 0.12284 0.37227 0.59706 0.0
C1979 C 0.12615 0.46877 0.61636 0.0
C1980 C 0.1421 0.51204 0.62952 0.0
C1981 C 0.13918 0.41643 0.6089 0.0
C1982 C 0.17167 0.503 0.63415 0.0
C1983 C 0.18499 0.45148 0.62623 0.0
H1984 H 0.66784 0.07795 0.17432 0.0
H1985 H 0.60847 0.99441 0.12032 0.0
H1986 H 0.60492 0.08353 0.09397 0.0
H1987 H 0.6179 0.18538 0.08701 0.0
H1988 H 0.67933 0.26727 0.13981 0.0
H1989 H 0.68202 0.17906 0.1665 0.0
C1990 C 0.65399 0.07947 0.15687 0.0
C1991 C 0.63828 0.02997 0.14933 0.0
C1992 C 0.65218 0.13061 0.14182 0.0
C1993 C 0.62085 0.03199 0.1264 0.0
C1994 C 0.61872 0.08294 0.11145 0.0
C1995 C 0.63221 0.18387 0.10412 0.0
C1996 C 0.64834 0.23322 0.11131 0.0
C1997 C 0.63424 0.13252 0.11902 0.0
C1998 C 0.66625 0.23051 0.13398 0.0
C1999 C 0.66803 0.17985 0.14916 0.0
H2000 H 0.3536 0.85375 0.07711 0.0
H2001 H 0.37583 0.76172 0.14936 0.0
H2002 H 0.37115 0.85154 0.17479 0.0
H2003 H 0.36411 0.95819 0.17604 0.0
H2004 H 0.34905 0.04993 0.10232 0.0
H2005 H 0.34861 0.95865 0.07792 0.0
C2006 C 0.35795 0.853 0.09835 0.0
C2007 C 0.36542 0.8005 0.11103 0.0
C2008 C 0.35681 0.90523 0.11264 0.0
C2009 C 0.36973 0.8009 0.13886 0.0
C2010 C 0.36739 0.85256 0.15346 0.0
C2011 C 0.36059 0.95801 0.15466 0.0
C2012 C 0.35632 1.01085 0.14108 0.0
C2013 C 0.36142 0.90522 0.14049 0.0
C2014 C 0.35234 1.00999 0.11329 0.0
C2015 C 0.35201 0.95776 0.0993 0.0
H2016 H 0.69097 0.97884 0.38239 0.0
H2017 H 0.61149 1.01199 0.3404 0.0
H2018 H 0.59673 0.91104 0.34681 0.0
H2019 H 0.60651 0.81404 0.36429 0.0
H2020 H 0.68388 0.78336 0.4104 0.0
H2021 H 0.6998 0.88209 0.40165 0.0
C2022 C 0.67054 0.9636 0.37451 0.0
C2023 C 0.65238 1.00223 0.36078 0.0
C2024 C 0.66194 0.90599 0.37882 0.0
C2025 C 0.62574 0.98269 0.35102 0.0
C2026 C 0.61736 0.92511 0.35465 0.0
C2027 C 0.62665 0.8289 0.37287 0.0
C2028 C 0.64388 0.79067 0.38798 0.0
C2029 C 0.63523 0.88648 0.36864 0.0
C2030 C 0.6703 0.81097 0.39823 0.0
C2031 C 0.67936 0.86779 0.39347 0.0
H2032 H 0.42066 0.03772 0.39869 0.0
H2033 H 0.3469 0.98299 0.35262 0.0
H2034 H 0.32228 0.07409 0.36298 0.0
H2035 H 0.32268 0.17105 0.38339 0.0
H2036 H 0.39687 0.22542 0.42908 0.0
H2037 H 0.42059 0.13316 0.42003 0.0
C2038 C 0.39926 0.04585 0.39078 0.0
C2039 C 0.38569 1.00379 0.37483 0.0
C2040 C 0.38538 0.09837 0.39656 0.0
C2041 C 0.35773 0.0145 0.36514 0.0
C2042 C 0.3437 0.06664 0.37093 0.0
C2043 C 0.34385 0.16235 0.3917 0.0
C2044 C 0.35801 0.20523 0.40677 0.0
C2045 C 0.3574 0.10906 0.38647 0.0
C2046 C 0.38564 0.19353 0.41708 0.0
C2047 C 0.39918 0.14067 0.41203 0.0
H2048 H 0.38488 0.83433 0.92798 0.0
H2049 H 0.37125 0.7594 0.8502 0.0
H2050 H 0.36367 0.85621 0.8313 0.0
H2051 H 0.36321 0.96189 0.83667 0.0
H2052 H 0.37348 0.03617 0.91526 0.0
H2053 H 0.38103 0.93981 0.93387 0.0
C2054 C 0.38027 0.83934 0.90688 0.0
C2055 C 0.37883 0.79005 0.89043 0.0
C2056 C 0.37574 0.89491 0.89626 0.0
C2057 C 0.37236 0.79682 0.86324 0.0
C2058 C 0.36818 0.85209 0.85243 0.0
C2059 C 0.36653 0.95725 0.85795 0.0
C2060 C 0.36803 1.0068 0.87438 0.0
C2061 C 0.37004 0.90147 0.86874 0.0
C2062 C 0.37292 0.9993 0.90189 0.0
C2063 C 0.37698 0.94405 0.91266 0.0
H2064 H 0.63402 0.1804 0.92557 0.0
H2065 H 0.66229 0.25715 0.85194 0.0
H2066 H 0.67337 0.16063 0.83401 0.0
H2067 H 0.67171 0.05427 0.83843 0.0
H2068 H 0.64745 0.97903 0.91402 0.0
H2069 H 0.6375 0.07495 0.93171 0.0
C2070 C 0.64281 0.17581 0.90567 0.0
C2071 C 0.64712 0.2254 0.88995 0.0
C2072 C 0.64934 0.12047 0.89568 0.0
C2073 C 0.65885 0.21935 0.86435 0.0
C2074 C 0.66502 0.16424 0.85409 0.0
C2075 C 0.66469 0.05857 0.8589 0.0
C2076 C 0.65957 1.00864 0.87445 0.0
C2077 C 0.65991 0.11436 0.86944 0.0
C2078 C 0.65046 0.01597 0.90101 0.0
C2079 C 0.64509 0.07106 0.91138 0.0
H2080 H 0.42972 0.05394 0.6938 0.0
H2081 H 0.35687 0.99931 0.64638 0.0
H2082 H 0.3522 0.09719 0.62814 0.0
H2083 H 0.36976 0.19872 0.62479 0.0
H2084 H 0.44285 0.25151 0.67205 0.0
H2085 H 0.44587 0.15476 0.69187 0.0
C2086 C 0.4125 0.06346 0.67981 0.0
C2087 C 0.39374 0.01892 0.67154 0.0
C2088 C 0.40984 0.11992 0.66949 0.0
C2089 C 0.37195 0.03226 0.65289 0.0
C2090 C 0.3691 0.08847 0.64256 0.0
C2091 C 0.38603 0.18895 0.6397 0.0
C2092 C 0.406 0.23194 0.64711 0.0
C2093 C 0.38802 0.13267 0.6506 0.0
C2094 C 0.42728 0.21891 0.66614 0.0
C2095 C 0.42906 0.16362 0.67738 0.0
H2096 H 0.69226 0.86309 0.60064 0.0
H2097 H 0.64769 0.77409 0.66391 0.0
H2098 H 0.62507 0.86484 0.67756 0.0
H2099 H 0.61733 0.96905 0.67117 0.0
H2100 H 0.66184 0.05846 0.60802 0.0
H2101 H 0.68585 0.96837 0.59528 0.0
C2102 C 0.67792 0.8637 0.61764 0.0
C2103 C 0.67154 0.81176 0.63109 0.0
C2104 C 0.66506 0.91614 0.62549 0.0
C2105 C 0.6526 0.81324 0.6529 0.0
C2106 C 0.63976 0.86517 0.66082 0.0
C2107 C 0.6321 0.96873 0.65448 0.0
C2108 C 0.63758 0.02031 0.64047 0.0
C2109 C 0.64561 0.91673 0.6471 0.0
C2110 C 0.65733 0.01944 0.61927 0.0
C2111 C 0.67096 0.96787 0.61186 0.0
loop_
_geom_bond_atom_site_label_1
_geom_bond_atom_site_label_2
_geom_bond_distance
_geom_bond_site_symmetry_2
_ccdc_geom_bond_type
Eu0 N29 2.600 . S
Eu0 N35 2.562 . S
Eu0 O44 2.462 . S
Eu0 O45 2.373 . S
Eu0 O47 2.432 . S
Eu0 O48 2.291 . S
Eu0 O52 2.335 . S
Eu0 O55 2.372 . S
Eu0 C64 2.787 . S
C1 N2 1.365 . S
C1 C4 1.405 . S
C1 C8 1.448 . S
N2 C1 1.365 . S
N2 C5 1.319 . S
N2 Eu11 2.600 . S
C3 C5 1.397 . S
C3 C6 1.367 . S
C3 H23 0.931 . S
C4 C1 1.405 . S
C4 C6 1.403 . S
C4 C10 1.439 . S
C5 N2 1.319 . S
C5 C3 1.397 . S
C5 H16 0.930 . S
C6 C3 1.367 . S
C6 C4 1.403 . S
C6 H27 0.929 . S
C7 C8 1.430 . S
C7 C9 1.387 1_545 S
C7 C13 1.404 1_545 S
C8 C1 1.448 . S
C8 C7 1.430 . S
C8 N12 1.351 . S
C9 C7 1.387 1_565 S
C9 C10 1.375 1_565 S
C9 H24 0.930 . S
C10 C4 1.439 . S
C10 C9 1.375 1_545 S
C10 H25 0.931 . S
Eu11 N2 2.600 . S
Eu11 N12 2.562 . S
Eu11 O46 2.335 . S
Eu11 O49 2.372 . S
Eu11 O50 2.462 1_545 S
Eu11 O51 2.373 . S
Eu11 O53 2.432 1_545 S
Eu11 O54 2.291 . S
Eu11 C75 2.787 1_545 S
N12 C8 1.351 . S
N12 Eu11 2.562 . S
N12 C14 1.325 . S
C13 C7 1.404 1_565 S
C13 C15 1.366 . S
C13 H21 0.930 . S
C14 N12 1.325 . S
C14 C15 1.416 1_545 S
C14 H20 0.929 . S
C15 C13 1.366 . S
C15 C14 1.416 1_565 S
C15 H17 0.930 . S
H16 C5 0.930 . S
H17 C15 0.930 . S
H18 C33 0.930 . S
H19 C40 0.930 . S
H20 C14 0.929 . S
H21 C13 0.930 . S
H22 C36 0.929 . S
H23 C3 0.931 . S
H24 C9 0.930 . S
H25 C10 0.931 . S
H26 C31 0.931 . S
H27 C6 0.929 . S
H28 C39 0.930 1_655 S
N29 Eu0 2.600 . S
N29 C30 1.365 . S
N29 C33 1.319 . S
C30 N29 1.365 . S
C30 C32 1.405 . S
C30 C38 1.448 . S
C31 H26 0.931 . S
C31 C33 1.397 . S
C31 C34 1.367 . S
C32 C30 1.405 . S
C32 C34 1.403 . S
C32 C65 1.439 1_455 S
C33 H18 0.930 . S
C33 N29 1.319 . S
C33 C31 1.397 . S
C34 C31 1.367 . S
C34 C32 1.403 . S
C34 H41 0.929 . S
N35 Eu0 2.562 . S
N35 C36 1.325 . S
N35 C38 1.351 . S
C36 H22 0.929 . S
C36 N35 1.325 . S
C36 C40 1.416 . S
C37 C38 1.430 . S
C37 C39 1.404 . S
C37 C66 1.387 1_455 S
C38 C30 1.448 . S
C38 N35 1.351 . S
C38 C37 1.430 . S
C39 H28 0.930 1_455 S
C39 C37 1.404 . S
C39 C40 1.366 . S
C40 H19 0.930 . S
C40 C36 1.416 . S
C40 C39 1.366 . S
H41 C34 0.929 . S
H42 C65 0.931 . S
H43 C66 0.931 . S
O44 Eu0 2.462 . S
O44 C64 1.252 . S
O45 Eu0 2.373 . S
O45 C56 1.249 . S
O46 Eu11 2.335 . S
O46 C56 1.264 . S
O47 Eu0 2.432 . S
O47 C64 1.268 . S
O48 Eu0 2.291 . S
O48 C63 1.255 . S
O49 Eu11 2.372 . S
O49 C63 1.257 . S
O50 Eu11 2.462 1_565 S
O50 C75 1.252 . S
O51 Eu11 2.373 . S
O51 C67 1.249 . S
O52 Eu0 2.335 . S
O52 C67 1.264 . S
O53 Eu11 2.432 1_565 S
O53 C75 1.268 . S
O54 Eu11 2.291 . S
O54 C74 1.255 . S
O55 Eu0 2.372 . S
O55 C74 1.257 . S
C56 O45 1.249 . S
C56 O46 1.264 . S
C57 C60 1.382 . S
C57 C62 1.390 . S
C57 C64 1.506 . S
C58 C59 1.398 . S
C58 C62 1.392 . S
C59 C58 1.398 . S
C59 C61 1.372 . S
C59 H76 0.931 . S
C60 C57 1.382 . S
C60 C61 1.390 . S
C60 H77 0.931 . S
C61 C59 1.372 . S
C61 C60 1.390 . S
C61 H78 0.929 . S
C62 C57 1.390 . S
C62 C58 1.392 . S
C62 H79 0.930 . S
C63 O48 1.255 . S
C63 O49 1.257 . S
C64 Eu0 2.787 . S
C64 O44 1.252 . S
C64 O47 1.268 . S
C64 C57 1.506 . S
C65 C32 1.439 1_655 S
C65 H42 0.931 . S
C65 C66 1.374 . S
C66 C37 1.387 1_655 S
C66 H43 0.931 . S
C66 C65 1.374 . S
C67 O51 1.249 . S
C67 O52 1.264 . S
C68 C71 1.382 . S
C68 C72 1.390 . S
C68 C75 1.506 . S
C69 C70 1.398 . S
C69 C72 1.392 . S
C70 C69 1.398 . S
C70 C73 1.372 . S
C70 H80 0.931 . S
C71 C68 1.382 . S
C71 C73 1.390 . S
C71 H81 0.931 . S
C72 C68 1.390 . S
C72 C69 1.392 . S
C72 H82 0.930 . S
C73 C70 1.372 . S
C73 C71 1.390 . S
C73 H83 0.929 . S
C74 O54 1.255 . S
C74 O55 1.257 . S
C75 Eu11 2.787 1_565 S
C75 O50 1.252 . S
C75 O53 1.268 . S
C75 C68 1.506 . S
H76 C59 0.931 . S
H77 C60 0.931 . S
H78 C61 0.929 . S
H79 C62 0.930 . S
H80 C70 0.931 . S
H81 C71 0.931 . S
H82 C72 0.930 . S
H83 C73 0.929 . S
Eu84 N113 2.600 . S
Eu84 N119 2.562 . S
Eu84 O128 2.462 . S
Eu84 O129 2.373 . S
Eu84 O131 2.432 . S
Eu84 O132 2.291 . S
Eu84 O136 2.335 . S
Eu84 O139 2.372 . S
Eu84 C148 2.787 . S
C85 N86 1.365 . S
C85 C88 1.405 . S
C85 C92 1.448 . S
N86 C85 1.365 . S
N86 C89 1.319 . S
N86 Eu95 2.600 . S
C87 C89 1.397 . S
C87 C90 1.367 . S
C87 H107 0.931 . S
C88 C85 1.405 . S
C88 C90 1.403 . S
C88 C94 1.439 . S
C89 N86 1.319 . S
C89 C87 1.397 . S
C89 H100 0.930 . S
C90 C87 1.367 . S
C90 C88 1.403 . S
C90 H111 0.929 . S
C91 C92 1.430 . S
C91 C93 1.387 1_565 S
C91 C97 1.404 1_565 S
C92 C85 1.448 . S
C92 C91 1.430 . S
C92 N96 1.351 . S
C93 C91 1.387 1_545 S
C93 C94 1.375 1_545 S
C93 H108 0.930 . S
C94 C88 1.439 . S
C94 C93 1.375 1_565 S
C94 H109 0.931 . S
Eu95 N86 2.600 . S
Eu95 N96 2.562 . S
Eu95 O130 2.335 . S
Eu95 O133 2.372 . S
Eu95 O134 2.462 1_565 S
Eu95 O135 2.373 . S
Eu95 O137 2.432 1_565 S
Eu95 O138 2.291 . S
Eu95 C159 2.787 1_565 S
N96 C92 1.351 . S
N96 Eu95 2.562 . S
N96 C98 1.325 . S
C97 C91 1.404 1_545 S
C97 C99 1.366 . S
C97 H105 0.930 . S
C98 N96 1.325 . S
C98 C99 1.416 1_565 S
C98 H104 0.929 . S
C99 C97 1.366 . S
C99 C98 1.416 1_545 S
C99 H101 0.930 . S
H100 C89 0.930 . S
H101 C99 0.930 . S
H102 C117 0.930 . S
H103 C124 0.930 . S
H104 C98 0.929 . S
H105 C97 0.930 . S
H106 C120 0.929 . S
H107 C87 0.931 . S
H108 C93 0.930 . S
H109 C94 0.931 . S
H110 C115 0.931 . S
H111 C90 0.929 . S
H112 C123 0.930 1_455 S
N113 Eu84 2.600 . S
N113 C114 1.365 . S
N113 C117 1.319 . S
C114 N113 1.365 . S
C114 C116 1.405 . S
C114 C122 1.448 . S
C115 H110 0.931 . S
C115 C117 1.397 . S
C115 C118 1.367 . S
C116 C114 1.405 . S
C116 C118 1.403 . S
C116 C149 1.439 1_655 S
C117 H102 0.930 . S
C117 N113 1.319 . S
C117 C115 1.397 . S
C118 C115 1.367 . S
C118 C116 1.403 . S
C118 H125 0.929 . S
N119 Eu84 2.562 . S
N119 C120 1.325 . S
N119 C122 1.351 . S
C120 H106 0.929 . S
C120 N119 1.325 . S
C120 C124 1.416 . S
C121 C122 1.430 . S
C121 C123 1.404 . S
C121 C150 1.387 1_655 S
C122 C114 1.448 . S
C122 N119 1.351 . S
C122 C121 1.430 . S
C123 H112 0.930 1_655 S
C123 C121 1.404 . S
C123 C124 1.366 . S
C124 H103 0.930 . S
C124 C120 1.416 . S
C124 C123 1.366 . S
H125 C118 0.929 . S
H126 C149 0.931 . S
H127 C150 0.931 . S
O128 Eu84 2.462 . S
O128 C148 1.252 . S
O129 Eu84 2.373 . S
O129 C140 1.249 . S
O130 Eu95 2.335 . S
O130 C140 1.264 . S
O131 Eu84 2.432 . S
O131 C148 1.268 . S
O132 Eu84 2.291 . S
O132 C147 1.255 . S
O133 Eu95 2.372 . S
O133 C147 1.257 . S
O134 Eu95 2.462 1_545 S
O134 C159 1.252 . S
O135 Eu95 2.373 . S
O135 C151 1.249 . S
O136 Eu84 2.335 . S
O136 C151 1.264 . S
O137 Eu95 2.432 1_545 S
O137 C159 1.268 . S
O138 Eu95 2.291 . S
O138 C158 1.255 . S
O139 Eu84 2.372 . S
O139 C158 1.257 . S
C140 O129 1.249 . S
C140 O130 1.264 . S
C141 C144 1.382 . S
C141 C146 1.390 . S
C141 C148 1.506 . S
C142 C143 1.398 . S
C142 C146 1.392 . S
C143 C142 1.398 . S
C143 C145 1.372 . S
C143 H160 0.931 . S
C144 C141 1.382 . S
C144 C145 1.390 . S
C144 H161 0.931 . S
C145 C143 1.372 . S
C145 C144 1.390 . S
C145 H162 0.929 . S
C146 C141 1.390 . S
C146 C142 1.392 . S
C146 H163 0.930 . S
C147 O132 1.255 . S
C147 O133 1.257 . S
C148 Eu84 2.787 . S
C148 O128 1.252 . S
C148 O131 1.268 . S
C148 C141 1.506 . S
C149 C116 1.439 1_455 S
C149 H126 0.931 . S
C149 C150 1.374 . S
C150 C121 1.387 1_455 S
C150 H127 0.931 . S
C150 C149 1.374 . S
C151 O135 1.249 . S
C151 O136 1.264 . S
C152 C155 1.382 . S
C152 C156 1.390 . S
C152 C159 1.506 . S
C153 C154 1.398 . S
C153 C156 1.392 . S
C154 C153 1.398 . S
C154 C157 1.372 . S
C154 H164 0.931 . S
C155 C152 1.382 . S
C155 C157 1.390 . S
C155 H165 0.931 . S
C156 C152 1.390 . S
C156 C153 1.392 . S
C156 H166 0.930 . S
C157 C154 1.372 . S
C157 C155 1.390 . S
C157 H167 0.929 . S
C158 O138 1.255 . S
C158 O139 1.257 . S
C159 Eu95 2.787 1_545 S
C159 O134 1.252 . S
C159 O137 1.268 . S
C159 C152 1.506 . S
H160 C143 0.931 . S
H161 C144 0.931 . S
H162 C145 0.929 . S
H163 C146 0.930 . S
H164 C154 0.931 . S
H165 C155 0.931 . S
H166 C156 0.930 . S
H167 C157 0.929 . S
Eu168 N197 2.600 . S
Eu168 N203 2.562 . S
Eu168 O212 2.462 . S
Eu168 O213 2.373 . S
Eu168 O215 2.432 . S
Eu168 O216 2.291 . S
Eu168 O220 2.335 . S
Eu168 O223 2.372 . S
Eu168 C232 2.787 . S
C169 N170 1.365 . S
C169 C172 1.405 . S
C169 C176 1.448 . S
N170 C169 1.365 . S
N170 C173 1.319 . S
N170 Eu179 2.600 . S
C171 C173 1.397 . S
C171 C174 1.367 . S
C171 H191 0.931 . S
C172 C169 1.405 . S
C172 C174 1.403 . S
C172 C178 1.439 . S
C173 N170 1.319 . S
C173 C171 1.397 . S
C173 H184 0.930 . S
C174 C171 1.367 . S
C174 C172 1.403 . S
C174 H195 0.929 . S
C175 C176 1.430 . S
C175 C177 1.387 1_565 S
C175 C181 1.404 1_565 S
C176 C169 1.448 . S
C176 C175 1.430 . S
C176 N180 1.351 . S
C177 C175 1.387 1_545 S
C177 C178 1.375 1_545 S
C177 H192 0.930 . S
C178 C172 1.439 . S
C178 C177 1.375 1_565 S
C178 H193 0.931 . S
Eu179 N170 2.600 . S
Eu179 N180 2.562 . S
Eu179 O214 2.335 . S
Eu179 O217 2.372 . S
Eu179 O218 2.462 1_565 S
Eu179 O219 2.373 . S
Eu179 O221 2.432 1_565 S
Eu179 O222 2.291 . S
Eu179 C243 2.787 1_565 S
N180 C176 1.351 . S
N180 Eu179 2.562 . S
N180 C182 1.325 . S
C181 C175 1.404 1_545 S
C181 C183 1.366 . S
C181 H189 0.930 . S
C182 N180 1.325 . S
C182 C183 1.416 1_565 S
C182 H188 0.929 . S
C183 C181 1.366 . S
C183 C182 1.416 1_545 S
C183 H185 0.930 . S
H184 C173 0.930 . S
H185 C183 0.930 . S
H186 C201 0.930 . S
H187 C208 0.930 . S
H188 C182 0.929 . S
H189 C181 0.930 . S
H190 C204 0.929 . S
H191 C171 0.931 . S
H192 C177 0.930 . S
H193 C178 0.931 . S
H194 C199 0.931 . S
H195 C174 0.929 . S
H196 C207 0.930 1_655 S
N197 Eu168 2.600 . S
N197 C198 1.365 . S
N197 C201 1.319 . S
C198 N197 1.365 . S
C198 C200 1.405 . S
C198 C206 1.448 . S
C199 H194 0.931 . S
C199 C201 1.397 . S
C199 C202 1.367 . S
C200 C198 1.405 . S
C200 C202 1.403 . S
C200 C233 1.439 1_455 S
C201 H186 0.930 . S
C201 N197 1.319 . S
C201 C199 1.397 . S
C202 C199 1.367 . S
C202 C200 1.403 . S
C202 H209 0.929 . S
N203 Eu168 2.562 . S
N203 C204 1.325 . S
N203 C206 1.351 . S
C204 H190 0.929 . S
C204 N203 1.325 . S
C204 C208 1.416 . S
C205 C206 1.430 . S
C205 C207 1.404 . S
C205 C234 1.387 1_455 S
C206 C198 1.448 . S
C206 N203 1.351 . S
C206 C205 1.430 . S
C207 H196 0.930 1_455 S
C207 C205 1.404 . S
C207 C208 1.366 . S
C208 H187 0.930 . S
C208 C204 1.416 . S
C208 C207 1.366 . S
H209 C202 0.929 . S
H210 C233 0.931 . S
H211 C234 0.931 . S
O212 Eu168 2.462 . S
O212 C232 1.252 . S
O213 Eu168 2.373 . S
O213 C224 1.249 . S
O214 Eu179 2.335 . S
O214 C224 1.264 . S
O215 Eu168 2.432 . S
O215 C232 1.268 . S
O216 Eu168 2.291 . S
O216 C231 1.255 . S
O217 Eu179 2.372 . S
O217 C231 1.257 . S
O218 Eu179 2.462 1_545 S
O218 C243 1.252 . S
O219 Eu179 2.373 . S
O219 C235 1.249 . S
O220 Eu168 2.335 . S
O220 C235 1.264 . S
O221 Eu179 2.432 1_545 S
O221 C243 1.268 . S
O222 Eu179 2.291 . S
O222 C242 1.255 . S
O223 Eu168 2.372 . S
O223 C242 1.257 . S
C224 O213 1.249 . S
C224 O214 1.264 . S
C225 C228 1.382 . S
C225 C230 1.390 . S
C225 C232 1.506 . S
C226 C227 1.398 . S
C226 C230 1.392 . S
C227 C226 1.398 . S
C227 C229 1.372 . S
C227 H244 0.931 . S
C228 C225 1.382 . S
C228 C229 1.390 . S
C228 H245 0.931 . S
C229 C227 1.372 . S
C229 C228 1.390 . S
C229 H246 0.929 . S
C230 C225 1.390 . S
C230 C226 1.392 . S
C230 H247 0.930 . S
C231 O216 1.255 . S
C231 O217 1.257 . S
C232 Eu168 2.787 . S
C232 O212 1.252 . S
C232 O215 1.268 . S
C232 C225 1.506 . S
C233 C200 1.439 1_655 S
C233 H210 0.931 . S
C233 C234 1.374 . S
C234 C205 1.387 1_655 S
C234 H211 0.931 . S
C234 C233 1.374 . S
C235 O219 1.249 . S
C235 O220 1.264 . S
C236 C239 1.382 . S
C236 C240 1.390 . S
C236 C243 1.506 . S
C237 C238 1.398 . S
C237 C240 1.392 . S
C238 C237 1.398 . S
C238 C241 1.372 . S
C238 H248 0.931 . S
C239 C236 1.382 . S
C239 C241 1.390 . S
C239 H249 0.931 . S
C240 C236 1.390 . S
C240 C237 1.392 . S
C240 H250 0.930 . S
C241 C238 1.372 . S
C241 C239 1.390 . S
C241 H251 0.929 . S
C242 O222 1.255 . S
C242 O223 1.257 . S
C243 Eu179 2.787 1_545 S
C243 O218 1.252 . S
C243 O221 1.268 . S
C243 C236 1.506 . S
H244 C227 0.931 . S
H245 C228 0.931 . S
H246 C229 0.929 . S
H247 C230 0.930 . S
H248 C238 0.931 . S
H249 C239 0.931 . S
H250 C240 0.930 . S
H251 C241 0.929 . S
Eu252 N281 2.600 . S
Eu252 N287 2.562 . S
Eu252 O296 2.462 . S
Eu252 O297 2.373 . S
Eu252 O299 2.432 . S
Eu252 O300 2.291 . S
Eu252 O304 2.335 . S
Eu252 O307 2.372 . S
Eu252 C316 2.787 . S
C253 N254 1.365 . S
C253 C256 1.405 . S
C253 C260 1.448 . S
N254 C253 1.365 . S
N254 C257 1.319 . S
N254 Eu263 2.600 . S
C255 C257 1.397 . S
C255 C258 1.367 . S
C255 H275 0.931 . S
C256 C253 1.405 . S
C256 C258 1.403 . S
C256 C262 1.439 . S
C257 N254 1.319 . S
C257 C255 1.397 . S
C257 H268 0.930 . S
C258 C255 1.367 . S
C258 C256 1.403 . S
C258 H279 0.929 . S
C259 C260 1.430 . S
C259 C261 1.387 1_545 S
C259 C265 1.404 1_545 S
C260 C253 1.448 . S
C260 C259 1.430 . S
C260 N264 1.351 . S
C261 C259 1.387 1_565 S
C261 C262 1.375 1_565 S
C261 H276 0.930 . S
C262 C256 1.439 . S
C262 C261 1.375 1_545 S
C262 H277 0.931 . S
Eu263 N254 2.600 . S
Eu263 N264 2.562 . S
Eu263 O298 2.335 . S
Eu263 O301 2.372 . S
Eu263 O302 2.462 1_545 S
Eu263 O303 2.373 . S
Eu263 O305 2.432 1_545 S
Eu263 O306 2.291 . S
Eu263 C327 2.787 1_545 S
N264 C260 1.351 . S
N264 Eu263 2.562 . S
N264 C266 1.325 . S
C265 C259 1.404 1_565 S
C265 C267 1.366 . S
C265 H273 0.930 . S
C266 N264 1.325 . S
C266 C267 1.416 1_545 S
C266 H272 0.929 . S
C267 C265 1.366 . S
C267 C266 1.416 1_565 S
C267 H269 0.930 . S
H268 C257 0.930 . S
H269 C267 0.930 . S
H270 C285 0.930 . S
H271 C292 0.930 . S
H272 C266 0.929 . S
H273 C265 0.930 . S
H274 C288 0.929 . S
H275 C255 0.931 . S
H276 C261 0.930 . S
H277 C262 0.931 . S
H278 C283 0.931 . S
H279 C258 0.929 . S
H280 C291 0.930 1_455 S
N281 Eu252 2.600 . S
N281 C282 1.365 . S
N281 C285 1.319 . S
C282 N281 1.365 . S
C282 C284 1.405 . S
C282 C290 1.448 . S
C283 H278 0.931 . S
C283 C285 1.397 . S
C283 C286 1.367 . S
C284 C282 1.405 . S
C284 C286 1.403 . S
C284 C317 1.439 1_655 S
C285 H270 0.930 . S
C285 N281 1.319 . S
C285 C283 1.397 . S
C286 C283 1.367 . S
C286 C284 1.403 . S
C286 H293 0.929 . S
N287 Eu252 2.562 . S
N287 C288 1.325 . S
N287 C290 1.351 . S
C288 H274 0.929 . S
C288 N287 1.325 . S
C288 C292 1.416 . S
C289 C290 1.430 . S
C289 C291 1.404 . S
C289 C318 1.387 1_655 S
C290 C282 1.448 . S
C290 N287 1.351 . S
C290 C289 1.430 . S
C291 H280 0.930 1_655 S
C291 C289 1.404 . S
C291 C292 1.366 . S
C292 H271 0.930 . S
C292 C288 1.416 . S
C292 C291 1.366 . S
H293 C286 0.929 . S
H294 C317 0.931 . S
H295 C318 0.931 . S
O296 Eu252 2.462 . S
O296 C316 1.252 . S
O297 Eu252 2.373 . S
O297 C308 1.249 . S
O298 Eu263 2.335 . S
O298 C308 1.264 . S
O299 Eu252 2.432 . S
O299 C316 1.268 . S
O300 Eu252 2.291 . S
O300 C315 1.255 . S
O301 Eu263 2.372 . S
O301 C315 1.257 . S
O302 Eu263 2.462 1_565 S
O302 C327 1.252 . S
O303 Eu263 2.373 . S
O303 C319 1.249 . S
O304 Eu252 2.335 . S
O304 C319 1.264 . S
O305 Eu263 2.432 1_565 S
O305 C327 1.268 . S
O306 Eu263 2.291 . S
O306 C326 1.255 . S
O307 Eu252 2.372 . S
O307 C326 1.257 . S
C308 O297 1.249 . S
C308 O298 1.264 . S
C309 C312 1.382 . S
C309 C314 1.390 . S
C309 C316 1.506 . S
C310 C311 1.398 . S
C310 C314 1.392 . S
C311 C310 1.398 . S
C311 C313 1.372 . S
C311 H328 0.931 . S
C312 C309 1.382 . S
C312 C313 1.390 . S
C312 H329 0.931 . S
C313 C311 1.372 . S
C313 C312 1.390 . S
C313 H330 0.929 . S
C314 C309 1.390 . S
C314 C310 1.392 . S
C314 H331 0.930 . S
C315 O300 1.255 . S
C315 O301 1.257 . S
C316 Eu252 2.787 . S
C316 O296 1.252 . S
C316 O299 1.268 . S
C316 C309 1.506 . S
C317 C284 1.439 1_455 S
C317 H294 0.931 . S
C317 C318 1.374 . S
C318 C289 1.387 1_455 S
C318 H295 0.931 . S
C318 C317 1.374 . S
C319 O303 1.249 . S
C319 O304 1.264 . S
C320 C323 1.382 . S
C320 C324 1.390 . S
C320 C327 1.506 . S
C321 C322 1.398 . S
C321 C324 1.392 . S
C322 C321 1.398 . S
C322 C325 1.372 . S
C322 H332 0.931 . S
C323 C320 1.382 . S
C323 C325 1.390 . S
C323 H333 0.931 . S
C324 C320 1.390 . S
C324 C321 1.392 . S
C324 H334 0.930 . S
C325 C322 1.372 . S
C325 C323 1.390 . S
C325 H335 0.929 . S
C326 O306 1.255 . S
C326 O307 1.257 . S
C327 Eu263 2.787 1_565 S
C327 O302 1.252 . S
C327 O305 1.268 . S
C327 C320 1.506 . S
H328 C311 0.931 . S
H329 C312 0.931 . S
H330 C313 0.929 . S
H331 C314 0.930 . S
H332 C322 0.931 . S
H333 C323 0.931 . S
H334 C324 0.930 . S
H335 C325 0.929 . S
Eu336 N365 2.600 . S
Eu336 N371 2.562 . S
Eu336 O380 2.462 1_565 S
Eu336 O381 2.373 . S
Eu336 O383 2.432 1_565 S
Eu336 O384 2.291 . S
Eu336 O388 2.335 . S
Eu336 O391 2.372 . S
Eu336 C400 2.787 1_565 S
C337 N338 1.365 . S
C337 C340 1.405 . S
C337 C344 1.448 . S
N338 C337 1.365 . S
N338 C341 1.319 . S
N338 Eu347 2.600 . S
C339 C341 1.397 . S
C339 C342 1.367 . S
C339 H359 0.931 . S
C340 C337 1.405 . S
C340 C342 1.403 . S
C340 C346 1.439 1_655 S
C341 N338 1.319 . S
C341 C339 1.397 . S
C341 H352 0.930 . S
C342 C339 1.367 . S
C342 C340 1.403 . S
C342 H363 0.929 . S
C343 C344 1.430 . S
C343 C345 1.387 1_655 S
C343 C349 1.404 . S
C344 C337 1.448 . S
C344 C343 1.430 . S
C344 N348 1.351 . S
C345 C343 1.387 1_455 S
C345 C346 1.374 . S
C345 H360 0.931 . S
C346 C340 1.439 1_455 S
C346 C345 1.374 . S
C346 H361 0.931 . S
Eu347 N338 2.600 . S
Eu347 N348 2.562 . S
Eu347 O382 2.335 . S
Eu347 O385 2.372 . S
Eu347 O386 2.462 . S
Eu347 O387 2.373 . S
Eu347 O389 2.432 . S
Eu347 O390 2.291 . S
Eu347 C411 2.787 . S
N348 C344 1.351 . S
N348 Eu347 2.562 . S
N348 C350 1.325 . S
C349 C343 1.404 . S
C349 C351 1.366 . S
C349 H357 0.930 1_655 S
C350 N348 1.325 . S
C350 C351 1.416 . S
C350 H356 0.929 . S
C351 C349 1.366 . S
C351 C350 1.416 . S
C351 H353 0.930 . S
H352 C341 0.930 . S
H353 C351 0.930 . S
H354 C369 0.930 . S
H355 C376 0.930 . S
H356 C350 0.929 . S
H357 C349 0.930 1_455 S
H358 C372 0.929 . S
H359 C339 0.931 . S
H360 C345 0.931 . S
H361 C346 0.931 . S
H362 C367 0.931 . S
H363 C342 0.929 . S
H364 C375 0.930 . S
N365 Eu336 2.600 . S
N365 C366 1.365 . S
N365 C369 1.319 . S
C366 N365 1.365 . S
C366 C368 1.405 . S
C366 C374 1.448 . S
C367 H362 0.931 . S
C367 C369 1.397 . S
C367 C370 1.367 . S
C368 C366 1.405 . S
C368 C370 1.403 . S
C368 C401 1.439 . S
C369 H354 0.930 . S
C369 N365 1.319 . S
C369 C367 1.397 . S
C370 C367 1.367 . S
C370 C368 1.403 . S
C370 H377 0.929 . S
N371 Eu336 2.562 . S
N371 C372 1.325 . S
N371 C374 1.351 . S
C372 H358 0.929 . S
C372 N371 1.325 . S
C372 C376 1.416 1_565 S
C373 C374 1.430 . S
C373 C375 1.404 1_565 S
C373 C402 1.387 1_565 S
C374 C366 1.448 . S
C374 N371 1.351 . S
C374 C373 1.430 . S
C375 H364 0.930 . S
C375 C373 1.404 1_545 S
C375 C376 1.366 . S
C376 H355 0.930 . S
C376 C372 1.416 1_545 S
C376 C375 1.366 . S
H377 C370 0.929 . S
H378 C401 0.931 . S
H379 C402 0.930 . S
O380 Eu336 2.462 1_545 S
O380 C400 1.252 . S
O381 Eu336 2.373 . S
O381 C392 1.249 . S
O382 Eu347 2.335 . S
O382 C392 1.264 . S
O383 Eu336 2.432 1_545 S
O383 C400 1.268 . S
O384 Eu336 2.291 . S
O384 C399 1.255 . S
O385 Eu347 2.372 . S
O385 C399 1.257 . S
O386 Eu347 2.462 . S
O386 C411 1.252 . S
O387 Eu347 2.373 . S
O387 C403 1.249 . S
O388 Eu336 2.335 . S
O388 C403 1.264 . S
O389 Eu347 2.432 . S
O389 C411 1.268 . S
O390 Eu347 2.291 . S
O390 C410 1.255 . S
O391 Eu336 2.372 . S
O391 C410 1.257 . S
C392 O381 1.249 . S
C392 O382 1.264 . S
C393 C396 1.382 . S
C393 C398 1.390 . S
C393 C400 1.506 . S
C394 C395 1.398 . S
C394 C398 1.392 . S
C395 C394 1.398 . S
C395 C397 1.372 . S
C395 H412 0.931 . S
C396 C393 1.382 . S
C396 C397 1.390 . S
C396 H413 0.931 . S
C397 C395 1.372 . S
C397 C396 1.390 . S
C397 H414 0.929 . S
C398 C393 1.390 . S
C398 C394 1.392 . S
C398 H415 0.930 . S
C399 O384 1.255 . S
C399 O385 1.257 . S
C400 Eu336 2.787 1_545 S
C400 O380 1.252 . S
C400 O383 1.268 . S
C400 C393 1.506 . S
C401 C368 1.439 . S
C401 H378 0.931 . S
C401 C402 1.375 1_565 S
C402 C373 1.387 1_545 S
C402 H379 0.930 . S
C402 C401 1.375 1_545 S
C403 O387 1.249 . S
C403 O388 1.264 . S
C404 C407 1.382 . S
C404 C408 1.390 . S
C404 C411 1.506 . S
C405 C406 1.398 . S
C405 C408 1.392 . S
C406 C405 1.398 . S
C406 C409 1.372 . S
C406 H416 0.931 . S
C407 C404 1.382 . S
C407 C409 1.390 . S
C407 H417 0.931 . S
C408 C404 1.390 . S
C408 C405 1.392 . S
C408 H418 0.930 . S
C409 C406 1.372 . S
C409 C407 1.390 . S
C409 H419 0.929 . S
C410 O390 1.255 . S
C410 O391 1.257 . S
C411 Eu347 2.787 . S
C411 O386 1.252 . S
C411 O389 1.268 . S
C411 C404 1.506 . S
H412 C395 0.931 . S
H413 C396 0.931 . S
H414 C397 0.929 . S
H415 C398 0.930 . S
H416 C406 0.931 . S
H417 C407 0.931 . S
H418 C408 0.930 . S
H419 C409 0.929 . S
Eu420 N449 2.600 . S
Eu420 N455 2.562 . S
Eu420 O464 2.462 1_545 S
Eu420 O465 2.373 . S
Eu420 O467 2.432 1_545 S
Eu420 O468 2.291 . S
Eu420 O472 2.335 . S
Eu420 O475 2.372 . S
Eu420 C484 2.787 1_545 S
C421 N422 1.365 . S
C421 C424 1.405 . S
C421 C428 1.448 . S
N422 C421 1.365 . S
N422 C425 1.319 . S
N422 Eu431 2.600 . S
C423 C425 1.397 . S
C423 C426 1.367 . S
C423 H443 0.931 . S
C424 C421 1.405 . S
C424 C426 1.403 . S
C424 C430 1.439 1_455 S
C425 N422 1.319 . S
C425 C423 1.397 . S
C425 H436 0.930 . S
C426 C423 1.367 . S
C426 C424 1.403 . S
C426 H447 0.929 . S
C427 C428 1.430 . S
C427 C429 1.387 1_455 S
C427 C433 1.404 . S
C428 C421 1.448 . S
C428 C427 1.430 . S
C428 N432 1.351 . S
C429 C427 1.387 1_655 S
C429 C430 1.374 . S
C429 H444 0.931 . S
C430 C424 1.439 1_655 S
C430 C429 1.374 . S
C430 H445 0.931 . S
Eu431 N422 2.600 . S
Eu431 N432 2.562 . S
Eu431 O466 2.335 . S
Eu431 O469 2.372 . S
Eu431 O470 2.462 . S
Eu431 O471 2.373 . S
Eu431 O473 2.432 . S
Eu431 O474 2.291 . S
Eu431 C495 2.787 . S
N432 C428 1.351 . S
N432 Eu431 2.562 . S
N432 C434 1.325 . S
C433 C427 1.404 . S
C433 C435 1.366 . S
C433 H441 0.930 1_455 S
C434 N432 1.325 . S
C434 C435 1.416 . S
C434 H440 0.929 . S
C435 C433 1.366 . S
C435 C434 1.416 . S
C435 H437 0.930 . S
H436 C425 0.930 . S
H437 C435 0.930 . S
H438 C453 0.930 . S
H439 C460 0.930 . S
H440 C434 0.929 . S
H441 C433 0.930 1_655 S
H442 C456 0.929 . S
H443 C423 0.931 . S
H444 C429 0.931 . S
H445 C430 0.931 . S
H446 C451 0.931 . S
H447 C426 0.929 . S
H448 C459 0.930 . S
N449 Eu420 2.600 . S
N449 C450 1.365 . S
N449 C453 1.319 . S
C450 N449 1.365 . S
C450 C452 1.405 . S
C450 C458 1.448 . S
C451 H446 0.931 . S
C451 C453 1.397 . S
C451 C454 1.367 . S
C452 C450 1.405 . S
C452 C454 1.403 . S
C452 C485 1.439 . S
C453 H438 0.930 . S
C453 N449 1.319 . S
C453 C451 1.397 . S
C454 C451 1.367 . S
C454 C452 1.403 . S
C454 H461 0.929 . S
N455 Eu420 2.562 . S
N455 C456 1.325 . S
N455 C458 1.351 . S
C456 H442 0.929 . S
C456 N455 1.325 . S
C456 C460 1.416 1_545 S
C457 C458 1.430 . S
C457 C459 1.404 1_545 S
C457 C486 1.387 1_545 S
C458 C450 1.448 . S
C458 N455 1.351 . S
C458 C457 1.430 . S
C459 H448 0.930 . S
C459 C457 1.404 1_565 S
C459 C460 1.366 . S
C460 H439 0.930 . S
C460 C456 1.416 1_565 S
C460 C459 1.366 . S
H461 C454 0.929 . S
H462 C485 0.931 . S
H463 C486 0.930 . S
O464 Eu420 2.462 1_565 S
O464 C484 1.252 . S
O465 Eu420 2.373 . S
O465 C476 1.249 . S
O466 Eu431 2.335 . S
O466 C476 1.264 . S
O467 Eu420 2.432 1_565 S
O467 C484 1.268 . S
O468 Eu420 2.291 . S
O468 C483 1.255 . S
O469 Eu431 2.372 . S
O469 C483 1.257 . S
O470 Eu431 2.462 . S
O470 C495 1.252 . S
O471 Eu431 2.373 . S
O471 C487 1.249 . S
O472 Eu420 2.335 . S
O472 C487 1.264 . S
O473 Eu431 2.432 . S
O473 C495 1.268 . S
O474 Eu431 2.291 . S
O474 C494 1.255 . S
O475 Eu420 2.372 . S
O475 C494 1.257 . S
C476 O465 1.249 . S
C476 O466 1.264 . S
C477 C480 1.382 . S
C477 C482 1.390 . S
C477 C484 1.506 . S
C478 C479 1.398 . S
C478 C482 1.392 . S
C479 C478 1.398 . S
C479 C481 1.372 . S
C479 H496 0.931 . S
C480 C477 1.382 . S
C480 C481 1.390 . S
C480 H497 0.931 . S
C481 C479 1.372 . S
C481 C480 1.390 . S
C481 H498 0.929 . S
C482 C477 1.390 . S
C482 C478 1.392 . S
C482 H499 0.930 . S
C483 O468 1.255 . S
C483 O469 1.257 . S
C484 Eu420 2.787 1_565 S
C484 O464 1.252 . S
C484 O467 1.268 . S
C484 C477 1.506 . S
C485 C452 1.439 . S
C485 H462 0.931 . S
C485 C486 1.375 1_545 S
C486 C457 1.387 1_565 S
C486 H463 0.930 . S
C486 C485 1.375 1_565 S
C487 O471 1.249 . S
C487 O472 1.264 . S
C488 C491 1.382 . S
C488 C492 1.390 . S
C488 C495 1.506 . S
C489 C490 1.398 . S
C489 C492 1.392 . S
C490 C489 1.398 . S
C490 C493 1.372 . S
C490 H500 0.931 . S
C491 C488 1.382 . S
C491 C493 1.390 . S
C491 H501 0.931 . S
C492 C488 1.390 . S
C492 C489 1.392 . S
C492 H502 0.930 . S
C493 C490 1.372 . S
C493 C491 1.390 . S
C493 H503 0.929 . S
C494 O474 1.255 . S
C494 O475 1.257 . S
C495 Eu431 2.787 . S
C495 O470 1.252 . S
C495 O473 1.268 . S
C495 C488 1.506 . S
H496 C479 0.931 . S
H497 C480 0.931 . S
H498 C481 0.929 . S
H499 C482 0.930 . S
H500 C490 0.931 . S
H501 C491 0.931 . S
H502 C492 0.930 . S
H503 C493 0.929 . S
Eu504 N533 2.600 . S
Eu504 N539 2.562 . S
Eu504 O548 2.462 1_545 S
Eu504 O549 2.373 . S
Eu504 O551 2.432 1_545 S
Eu504 O552 2.291 . S
Eu504 O556 2.335 . S
Eu504 O559 2.372 . S
Eu504 C568 2.787 1_545 S
C505 N506 1.365 . S
C505 C508 1.405 . S
C505 C512 1.448 . S
N506 C505 1.365 . S
N506 C509 1.319 . S
N506 Eu515 2.600 . S
C507 C509 1.397 . S
C507 C510 1.367 . S
C507 H527 0.931 . S
C508 C505 1.405 . S
C508 C510 1.403 . S
C508 C514 1.439 1_655 S
C509 N506 1.319 . S
C509 C507 1.397 . S
C509 H520 0.930 . S
C510 C507 1.367 . S
C510 C508 1.403 . S
C510 H531 0.929 . S
C511 C512 1.430 . S
C511 C513 1.387 1_655 S
C511 C517 1.404 . S
C512 C505 1.448 . S
C512 C511 1.430 . S
C512 N516 1.351 . S
C513 C511 1.387 1_455 S
C513 C514 1.374 . S
C513 H528 0.931 . S
C514 C508 1.439 1_455 S
C514 C513 1.374 . S
C514 H529 0.931 . S
Eu515 N506 2.600 . S
Eu515 N516 2.562 . S
Eu515 O550 2.335 . S
Eu515 O553 2.372 . S
Eu515 O554 2.462 . S
Eu515 O555 2.373 . S
Eu515 O557 2.432 . S
Eu515 O558 2.291 . S
Eu515 C579 2.787 . S
N516 C512 1.351 . S
N516 Eu515 2.562 . S
N516 C518 1.325 . S
C517 C511 1.404 . S
C517 C519 1.366 . S
C517 H525 0.930 1_655 S
C518 N516 1.325 . S
C518 C519 1.416 . S
C518 H524 0.929 . S
C519 C517 1.366 . S
C519 C518 1.416 . S
C519 H521 0.930 . S
H520 C509 0.930 . S
H521 C519 0.930 . S
H522 C537 0.930 . S
H523 C544 0.930 . S
H524 C518 0.929 . S
H525 C517 0.930 1_455 S
H526 C540 0.929 . S
H527 C507 0.931 . S
H528 C513 0.931 . S
H529 C514 0.931 . S
H530 C535 0.931 . S
H531 C510 0.929 . S
H532 C543 0.930 . S
N533 Eu504 2.600 . S
N533 C534 1.365 . S
N533 C537 1.319 . S
C534 N533 1.365 . S
C534 C536 1.405 . S
C534 C542 1.448 . S
C535 H530 0.931 . S
C535 C537 1.397 . S
C535 C538 1.367 . S
C536 C534 1.405 . S
C536 C538 1.403 . S
C536 C569 1.439 . S
C537 H522 0.930 . S
C537 N533 1.319 . S
C537 C535 1.397 . S
C538 C535 1.367 . S
C538 C536 1.403 . S
C538 H545 0.929 . S
N539 Eu504 2.562 . S
N539 C540 1.325 . S
N539 C542 1.351 . S
C540 H526 0.929 . S
C540 N539 1.325 . S
C540 C544 1.416 1_545 S
C541 C542 1.430 . S
C541 C543 1.404 1_545 S
C541 C570 1.387 1_545 S
C542 C534 1.448 . S
C542 N539 1.351 . S
C542 C541 1.430 . S
C543 H532 0.930 . S
C543 C541 1.404 1_565 S
C543 C544 1.366 . S
C544 H523 0.930 . S
C544 C540 1.416 1_565 S
C544 C543 1.366 . S
H545 C538 0.929 . S
H546 C569 0.931 . S
H547 C570 0.930 . S
O548 Eu504 2.462 1_565 S
O548 C568 1.252 . S
O549 Eu504 2.373 . S
O549 C560 1.249 . S
O550 Eu515 2.335 . S
O550 C560 1.264 . S
O551 Eu504 2.432 1_565 S
O551 C568 1.268 . S
O552 Eu504 2.291 . S
O552 C567 1.255 . S
O553 Eu515 2.372 . S
O553 C567 1.257 . S
O554 Eu515 2.462 . S
O554 C579 1.252 . S
O555 Eu515 2.373 . S
O555 C571 1.249 . S
O556 Eu504 2.335 . S
O556 C571 1.264 . S
O557 Eu515 2.432 . S
O557 C579 1.268 . S
O558 Eu515 2.291 . S
O558 C578 1.255 . S
O559 Eu504 2.372 . S
O559 C578 1.257 . S
C560 O549 1.249 . S
C560 O550 1.264 . S
C561 C564 1.382 . S
C561 C566 1.390 . S
C561 C568 1.506 . S
C562 C563 1.398 . S
C562 C566 1.392 . S
C563 C562 1.398 . S
C563 C565 1.372 . S
C563 H580 0.931 . S
C564 C561 1.382 . S
C564 C565 1.390 . S
C564 H581 0.931 . S
C565 C563 1.372 . S
C565 C564 1.390 . S
C565 H582 0.929 . S
C566 C561 1.390 . S
C566 C562 1.392 . S
C566 H583 0.930 . S
C567 O552 1.255 . S
C567 O553 1.257 . S
C568 Eu504 2.787 1_565 S
C568 O548 1.252 . S
C568 O551 1.268 . S
C568 C561 1.506 . S
C569 C536 1.439 . S
C569 H546 0.931 . S
C569 C570 1.375 1_545 S
C570 C541 1.387 1_565 S
C570 H547 0.930 . S
C570 C569 1.375 1_565 S
C571 O555 1.249 . S
C571 O556 1.264 . S
C572 C575 1.382 . S
C572 C576 1.390 . S
C572 C579 1.506 . S
C573 C574 1.398 . S
C573 C576 1.392 . S
C574 C573 1.398 . S
C574 C577 1.372 . S
C574 H584 0.931 . S
C575 C572 1.382 . S
C575 C577 1.390 . S
C575 H585 0.931 . S
C576 C572 1.390 . S
C576 C573 1.392 . S
C576 H586 0.930 . S
C577 C574 1.372 . S
C577 C575 1.390 . S
C577 H587 0.929 . S
C578 O558 1.255 . S
C578 O559 1.257 . S
C579 Eu515 2.787 . S
C579 O554 1.252 . S
C579 O557 1.268 . S
C579 C572 1.506 . S
H580 C563 0.931 . S
H581 C564 0.931 . S
H582 C565 0.929 . S
H583 C566 0.930 . S
H584 C574 0.931 . S
H585 C575 0.931 . S
H586 C576 0.930 . S
H587 C577 0.929 . S
Eu588 N617 2.600 . S
Eu588 N623 2.562 . S
Eu588 O632 2.462 1_565 S
Eu588 O633 2.373 . S
Eu588 O635 2.432 1_565 S
Eu588 O636 2.291 . S
Eu588 O640 2.335 . S
Eu588 O643 2.372 . S
Eu588 C652 2.787 1_565 S
C589 N590 1.365 . S
C589 C592 1.405 . S
C589 C596 1.448 . S
N590 C589 1.365 . S
N590 C593 1.319 . S
N590 Eu599 2.600 . S
C591 C593 1.397 . S
C591 C594 1.367 . S
C591 H611 0.931 . S
C592 C589 1.405 . S
C592 C594 1.403 . S
C592 C598 1.439 1_455 S
C593 N590 1.319 . S
C593 C591 1.397 . S
C593 H604 0.930 . S
C594 C591 1.367 . S
C594 C592 1.403 . S
C594 H615 0.929 . S
C595 C596 1.430 . S
C595 C597 1.387 1_455 S
C595 C601 1.404 . S
C596 C589 1.448 . S
C596 C595 1.430 . S
C596 N600 1.351 . S
C597 C595 1.387 1_655 S
C597 C598 1.374 . S
C597 H612 0.931 . S
C598 C592 1.439 1_655 S
C598 C597 1.374 . S
C598 H613 0.931 . S
Eu599 N590 2.600 . S
Eu599 N600 2.562 . S
Eu599 O634 2.335 . S
Eu599 O637 2.372 . S
Eu599 O638 2.462 . S
Eu599 O639 2.373 . S
Eu599 O641 2.432 . S
Eu599 O642 2.291 . S
Eu599 C663 2.787 . S
N600 C596 1.351 . S
N600 Eu599 2.562 . S
N600 C602 1.325 . S
C601 C595 1.404 . S
C601 C603 1.366 . S
C601 H609 0.930 1_455 S
C602 N600 1.325 . S
C602 C603 1.416 . S
C602 H608 0.929 . S
C603 C601 1.366 . S
C603 C602 1.416 . S
C603 H605 0.930 . S
H604 C593 0.930 . S
H605 C603 0.930 . S
H606 C621 0.930 . S
H607 C628 0.930 . S
H608 C602 0.929 . S
H609 C601 0.930 1_655 S
H610 C624 0.929 . S
H611 C591 0.931 . S
H612 C597 0.931 . S
H613 C598 0.931 . S
H614 C619 0.931 . S
H615 C594 0.929 . S
H616 C627 0.930 . S
N617 Eu588 2.600 . S
N617 C618 1.365 . S
N617 C621 1.319 . S
C618 N617 1.365 . S
C618 C620 1.405 . S
C618 C626 1.448 . S
C619 H614 0.931 . S
C619 C621 1.397 . S
C619 C622 1.367 . S
C620 C618 1.405 . S
C620 C622 1.403 . S
C620 C653 1.439 . S
C621 H606 0.930 . S
C621 N617 1.319 . S
C621 C619 1.397 . S
C622 C619 1.367 . S
C622 C620 1.403 . S
C622 H629 0.929 . S
N623 Eu588 2.562 . S
N623 C624 1.325 . S
N623 C626 1.351 . S
C624 H610 0.929 . S
C624 N623 1.325 . S
C624 C628 1.416 1_565 S
C625 C626 1.430 . S
C625 C627 1.404 1_565 S
C625 C654 1.387 1_565 S
C626 C618 1.448 . S
C626 N623 1.351 . S
C626 C625 1.430 . S
C627 H616 0.930 . S
C627 C625 1.404 1_545 S
C627 C628 1.366 . S
C628 H607 0.930 . S
C628 C624 1.416 1_545 S
C628 C627 1.366 . S
H629 C622 0.929 . S
H630 C653 0.931 . S
H631 C654 0.930 . S
O632 Eu588 2.462 1_545 S
O632 C652 1.252 . S
O633 Eu588 2.373 . S
O633 C644 1.249 . S
O634 Eu599 2.335 . S
O634 C644 1.264 . S
O635 Eu588 2.432 1_545 S
O635 C652 1.268 . S
O636 Eu588 2.291 . S
O636 C651 1.255 . S
O637 Eu599 2.372 . S
O637 C651 1.257 . S
O638 Eu599 2.462 . S
O638 C663 1.252 . S
O639 Eu599 2.373 . S
O639 C655 1.249 . S
O640 Eu588 2.335 . S
O640 C655 1.264 . S
O641 Eu599 2.432 . S
O641 C663 1.268 . S
O642 Eu599 2.291 . S
O642 C662 1.255 . S
O643 Eu588 2.372 . S
O643 C662 1.257 . S
C644 O633 1.249 . S
C644 O634 1.264 . S
C645 C648 1.382 . S
C645 C650 1.390 . S
C645 C652 1.506 . S
C646 C647 1.398 . S
C646 C650 1.392 . S
C647 C646 1.398 . S
C647 C649 1.372 . S
C647 H664 0.931 . S
C648 C645 1.382 . S
C648 C649 1.390 . S
C648 H665 0.931 . S
C649 C647 1.372 . S
C649 C648 1.390 . S
C649 H666 0.929 . S
C650 C645 1.390 . S
C650 C646 1.392 . S
C650 H667 0.930 . S
C651 O636 1.255 . S
C651 O637 1.257 . S
C652 Eu588 2.787 1_545 S
C652 O632 1.252 . S
C652 O635 1.268 . S
C652 C645 1.506 . S
C653 C620 1.439 . S
C653 H630 0.931 . S
C653 C654 1.375 1_565 S
C654 C625 1.387 1_545 S
C654 H631 0.930 . S
C654 C653 1.375 1_545 S
C655 O639 1.249 . S
C655 O640 1.264 . S
C656 C659 1.382 . S
C656 C660 1.390 . S
C656 C663 1.506 . S
C657 C658 1.398 . S
C657 C660 1.392 . S
C658 C657 1.398 . S
C658 C661 1.372 . S
C658 H668 0.931 . S
C659 C656 1.382 . S
C659 C661 1.390 . S
C659 H669 0.931 . S
C660 C656 1.390 . S
C660 C657 1.392 . S
C660 H670 0.930 . S
C661 C658 1.372 . S
C661 C659 1.390 . S
C661 H671 0.929 . S
C662 O642 1.255 . S
C662 O643 1.257 . S
C663 Eu599 2.787 . S
C663 O638 1.252 . S
C663 O641 1.268 . S
C663 C656 1.506 . S
H664 C647 0.931 . S
H665 C648 0.931 . S
H666 C649 0.929 . S
H667 C650 0.930 . S
H668 C658 0.931 . S
H669 C659 0.931 . S
H670 C660 0.930 . S
H671 C661 0.929 . S
Eu672 N701 2.600 . S
Eu672 N707 2.562 . S
Eu672 O716 2.462 . S
Eu672 O717 2.373 . S
Eu672 O719 2.432 . S
Eu672 O720 2.291 . S
Eu672 O724 2.335 . S
Eu672 O727 2.372 . S
Eu672 C736 2.787 . S
C673 N674 1.365 . S
C673 C676 1.405 . S
C673 C680 1.448 . S
N674 C673 1.365 . S
N674 C677 1.319 . S
N674 Eu683 2.600 . S
C675 C677 1.397 . S
C675 C678 1.367 . S
C675 H695 0.931 . S
C676 C673 1.405 . S
C676 C678 1.403 . S
C676 C682 1.439 . S
C677 N674 1.319 . S
C677 C675 1.397 . S
C677 H688 0.930 . S
C678 C675 1.367 . S
C678 C676 1.403 . S
C678 H699 0.929 . S
C679 C680 1.430 . S
C679 C681 1.387 . S
C679 C685 1.404 . S
C680 C673 1.448 . S
C680 C679 1.430 . S
C680 N684 1.351 . S
C681 C679 1.387 . S
C681 C682 1.374 . S
C681 H696 0.931 . S
C682 C676 1.439 . S
C682 C681 1.374 . S
C682 H697 0.931 . S
Eu683 N674 2.600 . S
Eu683 N684 2.562 . S
Eu683 O718 2.335 . S
Eu683 O721 2.372 . S
Eu683 O722 2.462 . S
Eu683 O723 2.373 . S
Eu683 O725 2.432 . S
Eu683 O726 2.291 . S
Eu683 C747 2.787 . S
N684 C680 1.351 . S
N684 Eu683 2.562 . S
N684 C686 1.325 . S
C685 C679 1.404 . S
C685 C687 1.366 . S
C685 H693 0.930 . S
C686 N684 1.325 . S
C686 C687 1.416 . S
C686 H692 0.929 . S
C687 C685 1.366 . S
C687 C686 1.416 . S
C687 H689 0.930 . S
H688 C677 0.930 . S
H689 C687 0.930 . S
H690 C705 0.930 . S
H691 C712 0.930 . S
H692 C686 0.929 . S
H693 C685 0.930 . S
H694 C708 0.929 . S
H695 C675 0.931 . S
H696 C681 0.931 . S
H697 C682 0.931 . S
H698 C703 0.931 . S
H699 C678 0.929 . S
H700 C711 0.930 . S
N701 Eu672 2.600 . S
N701 C702 1.365 . S
N701 C705 1.319 . S
C702 N701 1.365 . S
C702 C704 1.405 . S
C702 C710 1.448 . S
C703 H698 0.931 . S
C703 C705 1.397 . S
C703 C706 1.367 . S
C704 C702 1.405 . S
C704 C706 1.403 . S
C704 C737 1.439 . S
C705 H690 0.930 . S
C705 N701 1.319 . S
C705 C703 1.397 . S
C706 C703 1.367 . S
C706 C704 1.403 . S
C706 H713 0.929 . S
N707 Eu672 2.562 . S
N707 C708 1.325 . S
N707 C710 1.351 . S
C708 H694 0.929 . S
C708 N707 1.325 . S
C708 C712 1.416 . S
C709 C710 1.430 . S
C709 C711 1.404 . S
C709 C738 1.387 . S
C710 C702 1.448 . S
C710 N707 1.351 . S
C710 C709 1.430 . S
C711 H700 0.930 . S
C711 C709 1.404 . S
C711 C712 1.366 . S
C712 H691 0.930 . S
C712 C708 1.416 . S
C712 C711 1.366 . S
H713 C706 0.929 . S
H714 C737 0.931 . S
H715 C738 0.931 . S
O716 Eu672 2.462 . S
O716 C736 1.252 . S
O717 Eu672 2.373 . S
O717 C728 1.249 . S
O718 Eu683 2.335 . S
O718 C728 1.264 . S
O719 Eu672 2.432 . S
O719 C736 1.268 . S
O720 Eu672 2.291 . S
O720 C735 1.255 . S
O721 Eu683 2.372 . S
O721 C735 1.257 . S
O722 Eu683 2.462 . S
O722 C747 1.252 . S
O723 Eu683 2.373 . S
O723 C739 1.249 . S
O724 Eu672 2.335 . S
O724 C739 1.264 . S
O725 Eu683 2.432 . S
O725 C747 1.268 . S
O726 Eu683 2.291 . S
O726 C746 1.255 . S
O727 Eu672 2.372 . S
O727 C746 1.257 . S
C728 O717 1.249 . S
C728 O718 1.264 . S
C729 C732 1.382 . S
C729 C734 1.390 . S
C729 C736 1.506 . S
C730 C731 1.398 . S
C730 C734 1.392 . S
C731 C730 1.398 . S
C731 C733 1.372 . S
C731 H748 0.931 1_565 S
C732 C729 1.382 . S
C732 C733 1.390 . S
C732 H749 0.931 . S
C733 C731 1.372 . S
C733 C732 1.390 . S
C733 H750 0.929 . S
C734 C729 1.390 . S
C734 C730 1.392 . S
C734 H751 0.930 . S
C735 O720 1.255 . S
C735 O721 1.257 . S
C736 Eu672 2.787 . S
C736 O716 1.252 . S
C736 O719 1.268 . S
C736 C729 1.506 . S
C737 C704 1.439 . S
C737 H714 0.931 . S
C737 C738 1.374 . S
C738 C709 1.387 . S
C738 H715 0.931 . S
C738 C737 1.374 . S
C739 O723 1.249 . S
C739 O724 1.264 . S
C740 C743 1.382 . S
C740 C744 1.390 . S
C740 C747 1.506 . S
C741 C742 1.398 . S
C741 C744 1.392 . S
C742 C741 1.398 . S
C742 C745 1.372 . S
C742 H752 0.931 . S
C743 C740 1.382 . S
C743 C745 1.390 . S
C743 H753 0.931 . S
C744 C740 1.390 . S
C744 C741 1.392 . S
C744 H754 0.930 . S
C745 C742 1.372 . S
C745 C743 1.390 . S
C745 H755 0.929 . S
C746 O726 1.255 . S
C746 O727 1.257 . S
C747 Eu683 2.787 . S
C747 O722 1.252 . S
C747 O725 1.268 . S
C747 C740 1.506 . S
H748 C731 0.931 1_545 S
H749 C732 0.931 . S
H750 C733 0.929 . S
H751 C734 0.930 . S
H752 C742 0.931 . S
H753 C743 0.931 . S
H754 C744 0.930 . S
H755 C745 0.929 . S
Eu756 N785 2.600 . S
Eu756 N791 2.562 . S
Eu756 O800 2.462 . S
Eu756 O801 2.373 . S
Eu756 O803 2.432 . S
Eu756 O804 2.291 . S
Eu756 O808 2.335 . S
Eu756 O811 2.372 . S
Eu756 C820 2.787 . S
C757 N758 1.365 . S
C757 C760 1.405 . S
C757 C764 1.448 . S
N758 C757 1.365 . S
N758 C761 1.319 . S
N758 Eu767 2.600 . S
C759 C761 1.397 . S
C759 C762 1.367 . S
C759 H779 0.931 . S
C760 C757 1.405 . S
C760 C762 1.403 . S
C760 C766 1.439 . S
C761 N758 1.319 . S
C761 C759 1.397 . S
C761 H772 0.930 . S
C762 C759 1.367 . S
C762 C760 1.403 . S
C762 H783 0.929 . S
C763 C764 1.430 . S
C763 C765 1.387 . S
C763 C769 1.404 . S
C764 C757 1.448 . S
C764 C763 1.430 . S
C764 N768 1.351 . S
C765 C763 1.387 . S
C765 C766 1.374 . S
C765 H780 0.931 . S
C766 C760 1.439 . S
C766 C765 1.374 . S
C766 H781 0.931 . S
Eu767 N758 2.600 . S
Eu767 N768 2.562 . S
Eu767 O802 2.335 . S
Eu767 O805 2.372 . S
Eu767 O806 2.462 . S
Eu767 O807 2.373 . S
Eu767 O809 2.432 . S
Eu767 O810 2.291 . S
Eu767 C831 2.787 . S
N768 C764 1.351 . S
N768 Eu767 2.562 . S
N768 C770 1.325 . S
C769 C763 1.404 . S
C769 C771 1.366 . S
C769 H777 0.930 . S
C770 N768 1.325 . S
C770 C771 1.416 . S
C770 H776 0.929 . S
C771 C769 1.366 . S
C771 C770 1.416 . S
C771 H773 0.930 . S
H772 C761 0.930 . S
H773 C771 0.930 . S
H774 C789 0.930 . S
H775 C796 0.930 . S
H776 C770 0.929 . S
H777 C769 0.930 . S
H778 C792 0.929 . S
H779 C759 0.931 . S
H780 C765 0.931 . S
H781 C766 0.931 . S
H782 C787 0.931 . S
H783 C762 0.929 . S
H784 C795 0.930 . S
N785 Eu756 2.600 . S
N785 C786 1.365 . S
N785 C789 1.319 . S
C786 N785 1.365 . S
C786 C788 1.405 . S
C786 C794 1.448 . S
C787 H782 0.931 . S
C787 C789 1.397 . S
C787 C790 1.367 . S
C788 C786 1.405 . S
C788 C790 1.403 . S
C788 C821 1.439 . S
C789 H774 0.930 . S
C789 N785 1.319 . S
C789 C787 1.397 . S
C790 C787 1.367 . S
C790 C788 1.403 . S
C790 H797 0.929 . S
N791 Eu756 2.562 . S
N791 C792 1.325 . S
N791 C794 1.351 . S
C792 H778 0.929 . S
C792 N791 1.325 . S
C792 C796 1.416 . S
C793 C794 1.430 . S
C793 C795 1.404 . S
C793 C822 1.387 . S
C794 C786 1.448 . S
C794 N791 1.351 . S
C794 C793 1.430 . S
C795 H784 0.930 . S
C795 C793 1.404 . S
C795 C796 1.366 . S
C796 H775 0.930 . S
C796 C792 1.416 . S
C796 C795 1.366 . S
H797 C790 0.929 . S
H798 C821 0.931 . S
H799 C822 0.931 . S
O800 Eu756 2.462 . S
O800 C820 1.252 . S
O801 Eu756 2.373 . S
O801 C812 1.249 . S
O802 Eu767 2.335 . S
O802 C812 1.264 . S
O803 Eu756 2.432 . S
O803 C820 1.268 . S
O804 Eu756 2.291 . S
O804 C819 1.255 . S
O805 Eu767 2.372 . S
O805 C819 1.257 . S
O806 Eu767 2.462 . S
O806 C831 1.252 . S
O807 Eu767 2.373 . S
O807 C823 1.249 . S
O808 Eu756 2.335 . S
O808 C823 1.264 . S
O809 Eu767 2.432 . S
O809 C831 1.268 . S
O810 Eu767 2.291 . S
O810 C830 1.255 . S
O811 Eu756 2.372 . S
O811 C830 1.257 . S
C812 O801 1.249 . S
C812 O802 1.264 . S
C813 C816 1.382 . S
C813 C818 1.390 . S
C813 C820 1.506 . S
C814 C815 1.398 . S
C814 C818 1.392 . S
C815 C814 1.398 . S
C815 C817 1.372 . S
C815 H832 0.931 1_545 S
C816 C813 1.382 . S
C816 C817 1.390 . S
C816 H833 0.931 . S
C817 C815 1.372 . S
C817 C816 1.390 . S
C817 H834 0.929 . S
C818 C813 1.390 . S
C818 C814 1.392 . S
C818 H835 0.930 . S
C819 O804 1.255 . S
C819 O805 1.257 . S
C820 Eu756 2.787 . S
C820 O800 1.252 . S
C820 O803 1.268 . S
C820 C813 1.506 . S
C821 C788 1.439 . S
C821 H798 0.931 . S
C821 C822 1.374 . S
C822 C793 1.387 . S
C822 H799 0.931 . S
C822 C821 1.374 . S
C823 O807 1.249 . S
C823 O808 1.264 . S
C824 C827 1.382 . S
C824 C828 1.390 . S
C824 C831 1.506 . S
C825 C826 1.398 . S
C825 C828 1.392 . S
C826 C825 1.398 . S
C826 C829 1.372 . S
C826 H836 0.931 . S
C827 C824 1.382 . S
C827 C829 1.390 . S
C827 H837 0.931 . S
C828 C824 1.390 . S
C828 C825 1.392 . S
C828 H838 0.930 . S
C829 C826 1.372 . S
C829 C827 1.390 . S
C829 H839 0.929 . S
C830 O810 1.255 . S
C830 O811 1.257 . S
C831 Eu767 2.787 . S
C831 O806 1.252 . S
C831 O809 1.268 . S
C831 C824 1.506 . S
H832 C815 0.931 1_565 S
H833 C816 0.931 . S
H834 C817 0.929 . S
H835 C818 0.930 . S
H836 C826 0.931 . S
H837 C827 0.931 . S
H838 C828 0.930 . S
H839 C829 0.929 . S
Eu840 N869 2.600 . S
Eu840 N875 2.562 . S
Eu840 O884 2.462 . S
Eu840 O885 2.373 . S
Eu840 O887 2.432 . S
Eu840 O888 2.291 . S
Eu840 O892 2.335 . S
Eu840 O895 2.372 . S
Eu840 C904 2.787 . S
C841 N842 1.365 . S
C841 C844 1.405 . S
C841 C848 1.448 . S
N842 C841 1.365 . S
N842 C845 1.319 . S
N842 Eu851 2.600 . S
C843 C845 1.397 . S
C843 C846 1.367 . S
C843 H863 0.931 . S
C844 C841 1.405 . S
C844 C846 1.403 . S
C844 C850 1.439 . S
C845 N842 1.319 . S
C845 C843 1.397 . S
C845 H856 0.930 . S
C846 C843 1.367 . S
C846 C844 1.403 . S
C846 H867 0.929 . S
C847 C848 1.430 . S
C847 C849 1.387 . S
C847 C853 1.404 . S
C848 C841 1.448 . S
C848 C847 1.430 . S
C848 N852 1.351 . S
C849 C847 1.387 . S
C849 C850 1.374 . S
C849 H864 0.931 . S
C850 C844 1.439 . S
C850 C849 1.374 . S
C850 H865 0.931 . S
Eu851 N842 2.600 . S
Eu851 N852 2.562 . S
Eu851 O886 2.335 . S
Eu851 O889 2.372 . S
Eu851 O890 2.462 . S
Eu851 O891 2.373 . S
Eu851 O893 2.432 . S
Eu851 O894 2.291 . S
Eu851 C915 2.787 . S
N852 C848 1.351 . S
N852 Eu851 2.562 . S
N852 C854 1.325 . S
C853 C847 1.404 . S
C853 C855 1.366 . S
C853 H861 0.930 . S
C854 N852 1.325 . S
C854 C855 1.416 . S
C854 H860 0.929 . S
C855 C853 1.366 . S
C855 C854 1.416 . S
C855 H857 0.930 . S
H856 C845 0.930 . S
H857 C855 0.930 . S
H858 C873 0.930 . S
H859 C880 0.930 . S
H860 C854 0.929 . S
H861 C853 0.930 . S
H862 C876 0.929 . S
H863 C843 0.931 . S
H864 C849 0.931 . S
H865 C850 0.931 . S
H866 C871 0.931 . S
H867 C846 0.929 . S
H868 C879 0.930 . S
N869 Eu840 2.600 . S
N869 C870 1.365 . S
N869 C873 1.319 . S
C870 N869 1.365 . S
C870 C872 1.405 . S
C870 C878 1.448 . S
C871 H866 0.931 . S
C871 C873 1.397 . S
C871 C874 1.367 . S
C872 C870 1.405 . S
C872 C874 1.403 . S
C872 C905 1.439 . S
C873 H858 0.930 . S
C873 N869 1.319 . S
C873 C871 1.397 . S
C874 C871 1.367 . S
C874 C872 1.403 . S
C874 H881 0.929 . S
N875 Eu840 2.562 . S
N875 C876 1.325 . S
N875 C878 1.351 . S
C876 H862 0.929 . S
C876 N875 1.325 . S
C876 C880 1.416 . S
C877 C878 1.430 . S
C877 C879 1.404 . S
C877 C906 1.387 . S
C878 C870 1.448 . S
C878 N875 1.351 . S
C878 C877 1.430 . S
C879 H868 0.930 . S
C879 C877 1.404 . S
C879 C880 1.366 . S
C880 H859 0.930 . S
C880 C876 1.416 . S
C880 C879 1.366 . S
H881 C874 0.929 . S
H882 C905 0.931 . S
H883 C906 0.931 . S
O884 Eu840 2.462 . S
O884 C904 1.252 . S
O885 Eu840 2.373 . S
O885 C896 1.249 . S
O886 Eu851 2.335 . S
O886 C896 1.264 . S
O887 Eu840 2.432 . S
O887 C904 1.268 . S
O888 Eu840 2.291 . S
O888 C903 1.255 . S
O889 Eu851 2.372 . S
O889 C903 1.257 . S
O890 Eu851 2.462 . S
O890 C915 1.252 . S
O891 Eu851 2.373 . S
O891 C907 1.249 . S
O892 Eu840 2.335 . S
O892 C907 1.264 . S
O893 Eu851 2.432 . S
O893 C915 1.268 . S
O894 Eu851 2.291 . S
O894 C914 1.255 . S
O895 Eu840 2.372 . S
O895 C914 1.257 . S
C896 O885 1.249 . S
C896 O886 1.264 . S
C897 C900 1.382 . S
C897 C902 1.390 . S
C897 C904 1.506 . S
C898 C899 1.398 . S
C898 C902 1.392 . S
C899 C898 1.398 . S
C899 C901 1.372 . S
C899 H916 0.931 1_545 S
C900 C897 1.382 . S
C900 C901 1.390 . S
C900 H917 0.931 . S
C901 C899 1.372 . S
C901 C900 1.390 . S
C901 H918 0.929 . S
C902 C897 1.390 . S
C902 C898 1.392 . S
C902 H919 0.930 . S
C903 O888 1.255 . S
C903 O889 1.257 . S
C904 Eu840 2.787 . S
C904 O884 1.252 . S
C904 O887 1.268 . S
C904 C897 1.506 . S
C905 C872 1.439 . S
C905 H882 0.931 . S
C905 C906 1.374 . S
C906 C877 1.387 . S
C906 H883 0.931 . S
C906 C905 1.374 . S
C907 O891 1.249 . S
C907 O892 1.264 . S
C908 C911 1.382 . S
C908 C912 1.390 . S
C908 C915 1.506 . S
C909 C910 1.398 . S
C909 C912 1.392 . S
C910 C909 1.398 . S
C910 C913 1.372 . S
C910 H920 0.931 . S
C911 C908 1.382 . S
C911 C913 1.390 . S
C911 H921 0.931 . S
C912 C908 1.390 . S
C912 C909 1.392 . S
C912 H922 0.930 . S
C913 C910 1.372 . S
C913 C911 1.390 . S
C913 H923 0.929 . S
C914 O894 1.255 . S
C914 O895 1.257 . S
C915 Eu851 2.787 . S
C915 O890 1.252 . S
C915 O893 1.268 . S
C915 C908 1.506 . S
H916 C899 0.931 1_565 S
H917 C900 0.931 . S
H918 C901 0.929 . S
H919 C902 0.930 . S
H920 C910 0.931 . S
H921 C911 0.931 . S
H922 C912 0.930 . S
H923 C913 0.929 . S
Eu924 N953 2.600 . S
Eu924 N959 2.562 . S
Eu924 O968 2.462 . S
Eu924 O969 2.373 . S
Eu924 O971 2.432 . S
Eu924 O972 2.291 . S
Eu924 O976 2.335 . S
Eu924 O979 2.372 . S
Eu924 C988 2.787 . S
C925 N926 1.365 . S
C925 C928 1.405 . S
C925 C932 1.448 . S
N926 C925 1.365 . S
N926 C929 1.319 . S
N926 Eu935 2.600 . S
C927 C929 1.397 . S
C927 C930 1.367 . S
C927 H947 0.931 . S
C928 C925 1.405 . S
C928 C930 1.403 . S
C928 C934 1.439 . S
C929 N926 1.319 . S
C929 C927 1.397 . S
C929 H940 0.930 . S
C930 C927 1.367 . S
C930 C928 1.403 . S
C930 H951 0.929 . S
C931 C932 1.430 . S
C931 C933 1.387 . S
C931 C937 1.404 . S
C932 C925 1.448 . S
C932 C931 1.430 . S
C932 N936 1.351 . S
C933 C931 1.387 . S
C933 C934 1.374 . S
C933 H948 0.931 . S
C934 C928 1.439 . S
C934 C933 1.374 . S
C934 H949 0.931 . S
Eu935 N926 2.600 . S
Eu935 N936 2.562 . S
Eu935 O970 2.335 . S
Eu935 O973 2.372 . S
Eu935 O974 2.462 . S
Eu935 O975 2.373 . S
Eu935 O977 2.432 . S
Eu935 O978 2.291 . S
Eu935 C999 2.787 . S
N936 C932 1.351 . S
N936 Eu935 2.562 . S
N936 C938 1.325 . S
C937 C931 1.404 . S
C937 C939 1.366 . S
C937 H945 0.930 . S
C938 N936 1.325 . S
C938 C939 1.416 . S
C938 H944 0.929 . S
C939 C937 1.366 . S
C939 C938 1.416 . S
C939 H941 0.930 . S
H940 C929 0.930 . S
H941 C939 0.930 . S
H942 C957 0.930 . S
H943 C964 0.930 . S
H944 C938 0.929 . S
H945 C937 0.930 . S
H946 C960 0.929 . S
H947 C927 0.931 . S
H948 C933 0.931 . S
H949 C934 0.931 . S
H950 C955 0.931 . S
H951 C930 0.929 . S
H952 C963 0.930 . S
N953 Eu924 2.600 . S
N953 C954 1.365 . S
N953 C957 1.319 . S
C954 N953 1.365 . S
C954 C956 1.405 . S
C954 C962 1.448 . S
C955 H950 0.931 . S
C955 C957 1.397 . S
C955 C958 1.367 . S
C956 C954 1.405 . S
C956 C958 1.403 . S
C956 C989 1.439 . S
C957 H942 0.930 . S
C957 N953 1.319 . S
C957 C955 1.397 . S
C958 C955 1.367 . S
C958 C956 1.403 . S
C958 H965 0.929 . S
N959 Eu924 2.562 . S
N959 C960 1.325 . S
N959 C962 1.351 . S
C960 H946 0.929 . S
C960 N959 1.325 . S
C960 C964 1.416 . S
C961 C962 1.430 . S
C961 C963 1.404 . S
C961 C990 1.387 . S
C962 C954 1.448 . S
C962 N959 1.351 . S
C962 C961 1.430 . S
C963 H952 0.930 . S
C963 C961 1.404 . S
C963 C964 1.366 . S
C964 H943 0.930 . S
C964 C960 1.416 . S
C964 C963 1.366 . S
H965 C958 0.929 . S
H966 C989 0.931 . S
H967 C990 0.931 . S
O968 Eu924 2.462 . S
O968 C988 1.252 . S
O969 Eu924 2.373 . S
O969 C980 1.249 . S
O970 Eu935 2.335 . S
O970 C980 1.264 . S
O971 Eu924 2.432 . S
O971 C988 1.268 . S
O972 Eu924 2.291 . S
O972 C987 1.255 . S
O973 Eu935 2.372 . S
O973 C987 1.257 . S
O974 Eu935 2.462 . S
O974 C999 1.252 . S
O975 Eu935 2.373 . S
O975 C991 1.249 . S
O976 Eu924 2.335 . S
O976 C991 1.264 . S
O977 Eu935 2.432 . S
O977 C999 1.268 . S
O978 Eu935 2.291 . S
O978 C998 1.255 . S
O979 Eu924 2.372 . S
O979 C998 1.257 . S
C980 O969 1.249 . S
C980 O970 1.264 . S
C981 C984 1.382 . S
C981 C986 1.390 . S
C981 C988 1.506 . S
C982 C983 1.398 . S
C982 C986 1.392 . S
C983 C982 1.398 . S
C983 C985 1.372 . S
C983 H1000 0.931 1_565 S
C984 C981 1.382 . S
C984 C985 1.390 . S
C984 H1001 0.931 . S
C985 C983 1.372 . S
C985 C984 1.390 . S
C985 H1002 0.929 . S
C986 C981 1.390 . S
C986 C982 1.392 . S
C986 H1003 0.930 . S
C987 O972 1.255 . S
C987 O973 1.257 . S
C988 Eu924 2.787 . S
C988 O968 1.252 . S
C988 O971 1.268 . S
C988 C981 1.506 . S
C989 C956 1.439 . S
C989 H966 0.931 . S
C989 C990 1.374 . S
C990 C961 1.387 . S
C990 H967 0.931 . S
C990 C989 1.374 . S
C991 O975 1.249 . S
C991 O976 1.264 . S
C992 C995 1.382 . S
C992 C996 1.390 . S
C992 C999 1.506 . S
C993 C994 1.398 . S
C993 C996 1.392 . S
C994 C993 1.398 . S
C994 C997 1.372 . S
C994 H1004 0.931 . S
C995 C992 1.382 . S
C995 C997 1.390 . S
C995 H1005 0.931 . S
C996 C992 1.390 . S
C996 C993 1.392 . S
C996 H1006 0.930 . S
C997 C994 1.372 . S
C997 C995 1.390 . S
C997 H1007 0.929 . S
C998 O978 1.255 . S
C998 O979 1.257 . S
C999 Eu935 2.787 . S
C999 O974 1.252 . S
C999 O977 1.268 . S
C999 C992 1.506 . S
H1000 C983 0.931 1_545 S
H1001 C984 0.931 . S
H1002 C985 0.929 . S
H1003 C986 0.930 . S
H1004 C994 0.931 . S
H1005 C995 0.931 . S
H1006 C996 0.930 . S
H1007 C997 0.929 . S
Eu1008 N1037 2.600 . S
Eu1008 N1043 2.562 . S
Eu1008 O1052 2.462 . S
Eu1008 O1053 2.373 . S
Eu1008 O1055 2.432 . S
Eu1008 O1056 2.291 . S
Eu1008 O1060 2.335 . S
Eu1008 O1063 2.372 . S
Eu1008 C1072 2.787 . S
C1009 N1010 1.365 . S
C1009 C1012 1.405 . S
C1009 C1016 1.448 . S
N1010 C1009 1.365 . S
N1010 C1013 1.319 . S
N1010 Eu1019 2.600 . S
C1011 C1013 1.397 . S
C1011 C1014 1.367 . S
C1011 H1031 0.931 . S
C1012 C1009 1.405 . S
C1012 C1014 1.403 . S
C1012 C1018 1.439 . S
C1013 N1010 1.319 . S
C1013 C1011 1.397 . S
C1013 H1024 0.930 . S
C1014 C1011 1.367 . S
C1014 C1012 1.403 . S
C1014 H1035 0.929 . S
C1015 C1016 1.430 . S
C1015 C1017 1.387 . S
C1015 C1021 1.404 . S
C1016 C1009 1.448 . S
C1016 C1015 1.430 . S
C1016 N1020 1.351 . S
C1017 C1015 1.387 . S
C1017 C1018 1.374 . S
C1017 H1032 0.931 . S
C1018 C1012 1.439 . S
C1018 C1017 1.374 . S
C1018 H1033 0.931 . S
Eu1019 N1010 2.600 . S
Eu1019 N1020 2.562 . S
Eu1019 O1054 2.335 . S
Eu1019 O1057 2.372 . S
Eu1019 O1058 2.462 . S
Eu1019 O1059 2.373 . S
Eu1019 O1061 2.432 . S
Eu1019 O1062 2.291 . S
Eu1019 C1083 2.787 . S
N1020 C1016 1.351 . S
N1020 Eu1019 2.562 . S
N1020 C1022 1.325 . S
C1021 C1015 1.404 . S
C1021 C1023 1.366 . S
C1021 H1029 0.930 . S
C1022 N1020 1.325 . S
C1022 C1023 1.416 . S
C1022 H1028 0.929 . S
C1023 C1021 1.366 . S
C1023 C1022 1.416 . S
C1023 H1025 0.930 . S
H1024 C1013 0.930 . S
H1025 C1023 0.930 . S
H1026 C1041 0.930 . S
H1027 C1048 0.930 . S
H1028 C1022 0.929 . S
H1029 C1021 0.930 . S
H1030 C1044 0.929 . S
H1031 C1011 0.931 . S
H1032 C1017 0.931 . S
H1033 C1018 0.931 . S
H1034 C1039 0.931 . S
H1035 C1014 0.929 . S
H1036 C1047 0.930 . S
N1037 Eu1008 2.600 . S
N1037 C1038 1.365 . S
N1037 C1041 1.319 . S
C1038 N1037 1.365 . S
C1038 C1040 1.405 . S
C1038 C1046 1.448 . S
C1039 H1034 0.931 . S
C1039 C1041 1.397 . S
C1039 C1042 1.367 . S
C1040 C1038 1.405 . S
C1040 C1042 1.403 . S
C1040 C1073 1.439 . S
C1041 H1026 0.930 . S
C1041 N1037 1.319 . S
C1041 C1039 1.397 . S
C1042 C1039 1.367 . S
C1042 C1040 1.403 . S
C1042 H1049 0.929 . S
N1043 Eu1008 2.562 . S
N1043 C1044 1.325 . S
N1043 C1046 1.351 . S
C1044 H1030 0.929 . S
C1044 N1043 1.325 . S
C1044 C1048 1.416 . S
C1045 C1046 1.430 . S
C1045 C1047 1.404 . S
C1045 C1074 1.387 . S
C1046 C1038 1.448 . S
C1046 N1043 1.351 . S
C1046 C1045 1.430 . S
C1047 H1036 0.930 . S
C1047 C1045 1.404 . S
C1047 C1048 1.366 . S
C1048 H1027 0.930 . S
C1048 C1044 1.416 . S
C1048 C1047 1.366 . S
H1049 C1042 0.929 . S
H1050 C1073 0.931 . S
H1051 C1074 0.931 . S
O1052 Eu1008 2.462 . S
O1052 C1072 1.252 . S
O1053 Eu1008 2.373 . S
O1053 C1064 1.249 . S
O1054 Eu1019 2.335 . S
O1054 C1064 1.264 . S
O1055 Eu1008 2.432 . S
O1055 C1072 1.268 . S
O1056 Eu1008 2.291 . S
O1056 C1071 1.255 . S
O1057 Eu1019 2.372 . S
O1057 C1071 1.257 . S
O1058 Eu1019 2.462 . S
O1058 C1083 1.252 . S
O1059 Eu1019 2.373 . S
O1059 C1075 1.249 . S
O1060 Eu1008 2.335 . S
O1060 C1075 1.264 . S
O1061 Eu1019 2.432 . S
O1061 C1083 1.268 . S
O1062 Eu1019 2.291 . S
O1062 C1082 1.255 . S
O1063 Eu1008 2.372 . S
O1063 C1082 1.257 . S
C1064 O1053 1.249 . S
C1064 O1054 1.264 . S
C1065 C1068 1.382 . S
C1065 C1070 1.390 . S
C1065 C1072 1.506 . S
C1066 C1067 1.398 . S
C1066 C1070 1.392 . S
C1067 C1066 1.398 . S
C1067 C1069 1.372 . S
C1067 H1084 0.931 . S
C1068 C1065 1.382 . S
C1068 C1069 1.390 . S
C1068 H1085 0.931 . S
C1069 C1067 1.372 . S
C1069 C1068 1.390 . S
C1069 H1086 0.929 . S
C1070 C1065 1.390 . S
C1070 C1066 1.392 . S
C1070 H1087 0.930 . S
C1071 O1056 1.255 . S
C1071 O1057 1.257 . S
C1072 Eu1008 2.787 . S
C1072 O1052 1.252 . S
C1072 O1055 1.268 . S
C1072 C1065 1.506 . S
C1073 C1040 1.439 . S
C1073 H1050 0.931 . S
C1073 C1074 1.374 . S
C1074 C1045 1.387 . S
C1074 H1051 0.931 . S
C1074 C1073 1.374 . S
C1075 O1059 1.249 . S
C1075 O1060 1.264 . S
C1076 C1079 1.382 . S
C1076 C1080 1.390 . S
C1076 C1083 1.506 . S
C1077 C1078 1.398 . S
C1077 C1080 1.392 . S
C1078 C1077 1.398 . S
C1078 C1081 1.372 . S
C1078 H1088 0.931 1_545 S
C1079 C1076 1.382 . S
C1079 C1081 1.390 . S
C1079 H1089 0.931 . S
C1080 C1076 1.390 . S
C1080 C1077 1.392 . S
C1080 H1090 0.930 . S
C1081 C1078 1.372 . S
C1081 C1079 1.390 . S
C1081 H1091 0.929 . S
C1082 O1062 1.255 . S
C1082 O1063 1.257 . S
C1083 Eu1019 2.787 . S
C1083 O1058 1.252 . S
C1083 O1061 1.268 . S
C1083 C1076 1.506 . S
H1084 C1067 0.931 . S
H1085 C1068 0.931 . S
H1086 C1069 0.929 . S
H1087 C1070 0.930 . S
H1088 C1078 0.931 1_565 S
H1089 C1079 0.931 . S
H1090 C1080 0.930 . S
H1091 C1081 0.929 . S
Eu1092 N1121 2.600 . S
Eu1092 N1127 2.562 . S
Eu1092 O1136 2.462 . S
Eu1092 O1137 2.373 . S
Eu1092 O1139 2.432 . S
Eu1092 O1140 2.291 . S
Eu1092 O1144 2.335 . S
Eu1092 O1147 2.372 . S
Eu1092 C1156 2.787 . S
C1093 N1094 1.365 . S
C1093 C1096 1.405 . S
C1093 C1100 1.448 . S
N1094 C1093 1.365 . S
N1094 C1097 1.319 . S
N1094 Eu1103 2.600 . S
C1095 C1097 1.397 . S
C1095 C1098 1.367 . S
C1095 H1115 0.931 . S
C1096 C1093 1.405 . S
C1096 C1098 1.403 . S
C1096 C1102 1.439 . S
C1097 N1094 1.319 . S
C1097 C1095 1.397 . S
C1097 H1108 0.930 . S
C1098 C1095 1.367 . S
C1098 C1096 1.403 . S
C1098 H1119 0.929 . S
C1099 C1100 1.430 . S
C1099 C1101 1.387 . S
C1099 C1105 1.404 . S
C1100 C1093 1.448 . S
C1100 C1099 1.430 . S
C1100 N1104 1.351 . S
C1101 C1099 1.387 . S
C1101 C1102 1.374 . S
C1101 H1116 0.931 . S
C1102 C1096 1.439 . S
C1102 C1101 1.374 . S
C1102 H1117 0.931 . S
Eu1103 N1094 2.600 . S
Eu1103 N1104 2.562 . S
Eu1103 O1138 2.335 . S
Eu1103 O1141 2.372 . S
Eu1103 O1142 2.462 . S
Eu1103 O1143 2.373 . S
Eu1103 O1145 2.432 . S
Eu1103 O1146 2.291 . S
Eu1103 C1167 2.787 . S
N1104 C1100 1.351 . S
N1104 Eu1103 2.562 . S
N1104 C1106 1.325 . S
C1105 C1099 1.404 . S
C1105 C1107 1.366 . S
C1105 H1113 0.930 . S
C1106 N1104 1.325 . S
C1106 C1107 1.416 . S
C1106 H1112 0.929 . S
C1107 C1105 1.366 . S
C1107 C1106 1.416 . S
C1107 H1109 0.930 . S
H1108 C1097 0.930 . S
H1109 C1107 0.930 . S
H1110 C1125 0.930 . S
H1111 C1132 0.930 . S
H1112 C1106 0.929 . S
H1113 C1105 0.930 . S
H1114 C1128 0.929 . S
H1115 C1095 0.931 . S
H1116 C1101 0.931 . S
H1117 C1102 0.931 . S
H1118 C1123 0.931 . S
H1119 C1098 0.929 . S
H1120 C1131 0.930 . S
N1121 Eu1092 2.600 . S
N1121 C1122 1.365 . S
N1121 C1125 1.319 . S
C1122 N1121 1.365 . S
C1122 C1124 1.405 . S
C1122 C1130 1.448 . S
C1123 H1118 0.931 . S
C1123 C1125 1.397 . S
C1123 C1126 1.367 . S
C1124 C1122 1.405 . S
C1124 C1126 1.403 . S
C1124 C1157 1.439 . S
C1125 H1110 0.930 . S
C1125 N1121 1.319 . S
C1125 C1123 1.397 . S
C1126 C1123 1.367 . S
C1126 C1124 1.403 . S
C1126 H1133 0.929 . S
N1127 Eu1092 2.562 . S
N1127 C1128 1.325 . S
N1127 C1130 1.351 . S
C1128 H1114 0.929 . S
C1128 N1127 1.325 . S
C1128 C1132 1.416 . S
C1129 C1130 1.430 . S
C1129 C1131 1.404 . S
C1129 C1158 1.387 . S
C1130 C1122 1.448 . S
C1130 N1127 1.351 . S
C1130 C1129 1.430 . S
C1131 H1120 0.930 . S
C1131 C1129 1.404 . S
C1131 C1132 1.366 . S
C1132 H1111 0.930 . S
C1132 C1128 1.416 . S
C1132 C1131 1.366 . S
H1133 C1126 0.929 . S
H1134 C1157 0.931 . S
H1135 C1158 0.931 . S
O1136 Eu1092 2.462 . S
O1136 C1156 1.252 . S
O1137 Eu1092 2.373 . S
O1137 C1148 1.249 . S
O1138 Eu1103 2.335 . S
O1138 C1148 1.264 . S
O1139 Eu1092 2.432 . S
O1139 C1156 1.268 . S
O1140 Eu1092 2.291 . S
O1140 C1155 1.255 . S
O1141 Eu1103 2.372 . S
O1141 C1155 1.257 . S
O1142 Eu1103 2.462 . S
O1142 C1167 1.252 . S
O1143 Eu1103 2.373 . S
O1143 C1159 1.249 . S
O1144 Eu1092 2.335 . S
O1144 C1159 1.264 . S
O1145 Eu1103 2.432 . S
O1145 C1167 1.268 . S
O1146 Eu1103 2.291 . S
O1146 C1166 1.255 . S
O1147 Eu1092 2.372 . S
O1147 C1166 1.257 . S
C1148 O1137 1.249 . S
C1148 O1138 1.264 . S
C1149 C1152 1.382 . S
C1149 C1154 1.390 . S
C1149 C1156 1.506 . S
C1150 C1151 1.398 . S
C1150 C1154 1.392 . S
C1151 C1150 1.398 . S
C1151 C1153 1.372 . S
C1151 H1168 0.931 . S
C1152 C1149 1.382 . S
C1152 C1153 1.390 . S
C1152 H1169 0.931 . S
C1153 C1151 1.372 . S
C1153 C1152 1.390 . S
C1153 H1170 0.929 . S
C1154 C1149 1.390 . S
C1154 C1150 1.392 . S
C1154 H1171 0.930 . S
C1155 O1140 1.255 . S
C1155 O1141 1.257 . S
C1156 Eu1092 2.787 . S
C1156 O1136 1.252 . S
C1156 O1139 1.268 . S
C1156 C1149 1.506 . S
C1157 C1124 1.439 . S
C1157 H1134 0.931 . S
C1157 C1158 1.374 . S
C1158 C1129 1.387 . S
C1158 H1135 0.931 . S
C1158 C1157 1.374 . S
C1159 O1143 1.249 . S
C1159 O1144 1.264 . S
C1160 C1163 1.382 . S
C1160 C1164 1.390 . S
C1160 C1167 1.506 . S
C1161 C1162 1.398 . S
C1161 C1164 1.392 . S
C1162 C1161 1.398 . S
C1162 C1165 1.372 . S
C1162 H1172 0.931 1_565 S
C1163 C1160 1.382 . S
C1163 C1165 1.390 . S
C1163 H1173 0.931 . S
C1164 C1160 1.390 . S
C1164 C1161 1.392 . S
C1164 H1174 0.930 . S
C1165 C1162 1.372 . S
C1165 C1163 1.390 . S
C1165 H1175 0.929 . S
C1166 O1146 1.255 . S
C1166 O1147 1.257 . S
C1167 Eu1103 2.787 . S
C1167 O1142 1.252 . S
C1167 O1145 1.268 . S
C1167 C1160 1.506 . S
H1168 C1151 0.931 . S
H1169 C1152 0.931 . S
H1170 C1153 0.929 . S
H1171 C1154 0.930 . S
H1172 C1162 0.931 1_545 S
H1173 C1163 0.931 . S
H1174 C1164 0.930 . S
H1175 C1165 0.929 . S
Eu1176 N1205 2.600 . S
Eu1176 N1211 2.562 . S
Eu1176 O1220 2.462 . S
Eu1176 O1221 2.373 . S
Eu1176 O1223 2.432 . S
Eu1176 O1224 2.291 . S
Eu1176 O1228 2.335 . S
Eu1176 O1231 2.372 . S
Eu1176 C1240 2.787 . S
C1177 N1178 1.365 . S
C1177 C1180 1.405 . S
C1177 C1184 1.448 . S
N1178 C1177 1.365 . S
N1178 C1181 1.319 . S
N1178 Eu1187 2.600 . S
C1179 C1181 1.397 . S
C1179 C1182 1.367 . S
C1179 H1199 0.931 . S
C1180 C1177 1.405 . S
C1180 C1182 1.403 . S
C1180 C1186 1.439 . S
C1181 N1178 1.319 . S
C1181 C1179 1.397 . S
C1181 H1192 0.930 . S
C1182 C1179 1.367 . S
C1182 C1180 1.403 . S
C1182 H1203 0.929 . S
C1183 C1184 1.430 . S
C1183 C1185 1.387 . S
C1183 C1189 1.404 . S
C1184 C1177 1.448 . S
C1184 C1183 1.430 . S
C1184 N1188 1.351 . S
C1185 C1183 1.387 . S
C1185 C1186 1.374 . S
C1185 H1200 0.931 . S
C1186 C1180 1.439 . S
C1186 C1185 1.374 . S
C1186 H1201 0.931 . S
Eu1187 N1178 2.600 . S
Eu1187 N1188 2.562 . S
Eu1187 O1222 2.335 . S
Eu1187 O1225 2.372 . S
Eu1187 O1226 2.462 . S
Eu1187 O1227 2.373 . S
Eu1187 O1229 2.432 . S
Eu1187 O1230 2.291 . S
Eu1187 C1251 2.787 . S
N1188 C1184 1.351 . S
N1188 Eu1187 2.562 . S
N1188 C1190 1.325 . S
C1189 C1183 1.404 . S
C1189 C1191 1.366 . S
C1189 H1197 0.930 . S
C1190 N1188 1.325 . S
C1190 C1191 1.416 . S
C1190 H1196 0.929 . S
C1191 C1189 1.366 . S
C1191 C1190 1.416 . S
C1191 H1193 0.930 . S
H1192 C1181 0.930 . S
H1193 C1191 0.930 . S
H1194 C1209 0.930 . S
H1195 C1216 0.930 . S
H1196 C1190 0.929 . S
H1197 C1189 0.930 . S
H1198 C1212 0.929 . S
H1199 C1179 0.931 . S
H1200 C1185 0.931 . S
H1201 C1186 0.931 . S
H1202 C1207 0.931 . S
H1203 C1182 0.929 . S
H1204 C1215 0.930 . S
N1205 Eu1176 2.600 . S
N1205 C1206 1.365 . S
N1205 C1209 1.319 . S
C1206 N1205 1.365 . S
C1206 C1208 1.405 . S
C1206 C1214 1.448 . S
C1207 H1202 0.931 . S
C1207 C1209 1.397 . S
C1207 C1210 1.367 . S
C1208 C1206 1.405 . S
C1208 C1210 1.403 . S
C1208 C1241 1.439 . S
C1209 H1194 0.930 . S
C1209 N1205 1.319 . S
C1209 C1207 1.397 . S
C1210 C1207 1.367 . S
C1210 C1208 1.403 . S
C1210 H1217 0.929 . S
N1211 Eu1176 2.562 . S
N1211 C1212 1.325 . S
N1211 C1214 1.351 . S
C1212 H1198 0.929 . S
C1212 N1211 1.325 . S
C1212 C1216 1.416 . S
C1213 C1214 1.430 . S
C1213 C1215 1.404 . S
C1213 C1242 1.387 . S
C1214 C1206 1.448 . S
C1214 N1211 1.351 . S
C1214 C1213 1.430 . S
C1215 H1204 0.930 . S
C1215 C1213 1.404 . S
C1215 C1216 1.366 . S
C1216 H1195 0.930 . S
C1216 C1212 1.416 . S
C1216 C1215 1.366 . S
H1217 C1210 0.929 . S
H1218 C1241 0.931 . S
H1219 C1242 0.931 . S
O1220 Eu1176 2.462 . S
O1220 C1240 1.252 . S
O1221 Eu1176 2.373 . S
O1221 C1232 1.249 . S
O1222 Eu1187 2.335 . S
O1222 C1232 1.264 . S
O1223 Eu1176 2.432 . S
O1223 C1240 1.268 . S
O1224 Eu1176 2.291 . S
O1224 C1239 1.255 . S
O1225 Eu1187 2.372 . S
O1225 C1239 1.257 . S
O1226 Eu1187 2.462 . S
O1226 C1251 1.252 . S
O1227 Eu1187 2.373 . S
O1227 C1243 1.249 . S
O1228 Eu1176 2.335 . S
O1228 C1243 1.264 . S
O1229 Eu1187 2.432 . S
O1229 C1251 1.268 . S
O1230 Eu1187 2.291 . S
O1230 C1250 1.255 . S
O1231 Eu1176 2.372 . S
O1231 C1250 1.257 . S
C1232 O1221 1.249 . S
C1232 O1222 1.264 . S
C1233 C1236 1.382 . S
C1233 C1238 1.390 . S
C1233 C1240 1.506 . S
C1234 C1235 1.398 . S
C1234 C1238 1.392 . S
C1235 C1234 1.398 . S
C1235 C1237 1.372 . S
C1235 H1252 0.931 . S
C1236 C1233 1.382 . S
C1236 C1237 1.390 . S
C1236 H1253 0.931 . S
C1237 C1235 1.372 . S
C1237 C1236 1.390 . S
C1237 H1254 0.929 . S
C1238 C1233 1.390 . S
C1238 C1234 1.392 . S
C1238 H1255 0.930 . S
C1239 O1224 1.255 . S
C1239 O1225 1.257 . S
C1240 Eu1176 2.787 . S
C1240 O1220 1.252 . S
C1240 O1223 1.268 . S
C1240 C1233 1.506 . S
C1241 C1208 1.439 . S
C1241 H1218 0.931 . S
C1241 C1242 1.374 . S
C1242 C1213 1.387 . S
C1242 H1219 0.931 . S
C1242 C1241 1.374 . S
C1243 O1227 1.249 . S
C1243 O1228 1.264 . S
C1244 C1247 1.382 . S
C1244 C1248 1.390 . S
C1244 C1251 1.506 . S
C1245 C1246 1.398 . S
C1245 C1248 1.392 . S
C1246 C1245 1.398 . S
C1246 C1249 1.372 . S
C1246 H1256 0.931 1_565 S
C1247 C1244 1.382 . S
C1247 C1249 1.390 . S
C1247 H1257 0.931 . S
C1248 C1244 1.390 . S
C1248 C1245 1.392 . S
C1248 H1258 0.930 . S
C1249 C1246 1.372 . S
C1249 C1247 1.390 . S
C1249 H1259 0.929 . S
C1250 O1230 1.255 . S
C1250 O1231 1.257 . S
C1251 Eu1187 2.787 . S
C1251 O1226 1.252 . S
C1251 O1229 1.268 . S
C1251 C1244 1.506 . S
H1252 C1235 0.931 . S
H1253 C1236 0.931 . S
H1254 C1237 0.929 . S
H1255 C1238 0.930 . S
H1256 C1246 0.931 1_545 S
H1257 C1247 0.931 . S
H1258 C1248 0.930 . S
H1259 C1249 0.929 . S
Eu1260 N1289 2.600 . S
Eu1260 N1295 2.562 . S
Eu1260 O1304 2.462 . S
Eu1260 O1305 2.373 . S
Eu1260 O1307 2.432 . S
Eu1260 O1308 2.291 . S
Eu1260 O1312 2.335 . S
Eu1260 O1315 2.372 . S
Eu1260 C1324 2.787 . S
C1261 N1262 1.365 . S
C1261 C1264 1.405 . S
C1261 C1268 1.448 . S
N1262 C1261 1.365 . S
N1262 C1265 1.319 . S
N1262 Eu1271 2.600 . S
C1263 C1265 1.397 . S
C1263 C1266 1.367 . S
C1263 H1283 0.931 . S
C1264 C1261 1.405 . S
C1264 C1266 1.403 . S
C1264 C1270 1.439 . S
C1265 N1262 1.319 . S
C1265 C1263 1.397 . S
C1265 H1276 0.930 . S
C1266 C1263 1.367 . S
C1266 C1264 1.403 . S
C1266 H1287 0.929 . S
C1267 C1268 1.430 . S
C1267 C1269 1.387 . S
C1267 C1273 1.404 . S
C1268 C1261 1.448 . S
C1268 C1267 1.430 . S
C1268 N1272 1.351 . S
C1269 C1267 1.387 . S
C1269 C1270 1.374 . S
C1269 H1284 0.931 . S
C1270 C1264 1.439 . S
C1270 C1269 1.374 . S
C1270 H1285 0.931 . S
Eu1271 N1262 2.600 . S
Eu1271 N1272 2.562 . S
Eu1271 O1306 2.335 . S
Eu1271 O1309 2.372 . S
Eu1271 O1310 2.462 . S
Eu1271 O1311 2.373 . S
Eu1271 O1313 2.432 . S
Eu1271 O1314 2.291 . S
Eu1271 C1335 2.787 . S
N1272 C1268 1.351 . S
N1272 Eu1271 2.562 . S
N1272 C1274 1.325 . S
C1273 C1267 1.404 . S
C1273 C1275 1.366 . S
C1273 H1281 0.930 . S
C1274 N1272 1.325 . S
C1274 C1275 1.416 . S
C1274 H1280 0.929 . S
C1275 C1273 1.366 . S
C1275 C1274 1.416 . S
C1275 H1277 0.930 . S
H1276 C1265 0.930 . S
H1277 C1275 0.930 . S
H1278 C1293 0.930 . S
H1279 C1300 0.930 . S
H1280 C1274 0.929 . S
H1281 C1273 0.930 . S
H1282 C1296 0.929 . S
H1283 C1263 0.931 . S
H1284 C1269 0.931 . S
H1285 C1270 0.931 . S
H1286 C1291 0.931 . S
H1287 C1266 0.929 . S
H1288 C1299 0.930 . S
N1289 Eu1260 2.600 . S
N1289 C1290 1.365 . S
N1289 C1293 1.319 . S
C1290 N1289 1.365 . S
C1290 C1292 1.405 . S
C1290 C1298 1.448 . S
C1291 H1286 0.931 . S
C1291 C1293 1.397 . S
C1291 C1294 1.367 . S
C1292 C1290 1.405 . S
C1292 C1294 1.403 . S
C1292 C1325 1.439 . S
C1293 H1278 0.930 . S
C1293 N1289 1.319 . S
C1293 C1291 1.397 . S
C1294 C1291 1.367 . S
C1294 C1292 1.403 . S
C1294 H1301 0.929 . S
N1295 Eu1260 2.562 . S
N1295 C1296 1.325 . S
N1295 C1298 1.351 . S
C1296 H1282 0.929 . S
C1296 N1295 1.325 . S
C1296 C1300 1.416 . S
C1297 C1298 1.430 . S
C1297 C1299 1.404 . S
C1297 C1326 1.387 . S
C1298 C1290 1.448 . S
C1298 N1295 1.351 . S
C1298 C1297 1.430 . S
C1299 H1288 0.930 . S
C1299 C1297 1.404 . S
C1299 C1300 1.366 . S
C1300 H1279 0.930 . S
C1300 C1296 1.416 . S
C1300 C1299 1.366 . S
H1301 C1294 0.929 . S
H1302 C1325 0.931 . S
H1303 C1326 0.931 . S
O1304 Eu1260 2.462 . S
O1304 C1324 1.252 . S
O1305 Eu1260 2.373 . S
O1305 C1316 1.249 . S
O1306 Eu1271 2.335 . S
O1306 C1316 1.264 . S
O1307 Eu1260 2.432 . S
O1307 C1324 1.268 . S
O1308 Eu1260 2.291 . S
O1308 C1323 1.255 . S
O1309 Eu1271 2.372 . S
O1309 C1323 1.257 . S
O1310 Eu1271 2.462 . S
O1310 C1335 1.252 . S
O1311 Eu1271 2.373 . S
O1311 C1327 1.249 . S
O1312 Eu1260 2.335 . S
O1312 C1327 1.264 . S
O1313 Eu1271 2.432 . S
O1313 C1335 1.268 . S
O1314 Eu1271 2.291 . S
O1314 C1334 1.255 . S
O1315 Eu1260 2.372 . S
O1315 C1334 1.257 . S
C1316 O1305 1.249 . S
C1316 O1306 1.264 . S
C1317 C1320 1.382 . S
C1317 C1322 1.390 . S
C1317 C1324 1.506 . S
C1318 C1319 1.398 . S
C1318 C1322 1.392 . S
C1319 C1318 1.398 . S
C1319 C1321 1.372 . S
C1319 H1336 0.931 . S
C1320 C1317 1.382 . S
C1320 C1321 1.390 . S
C1320 H1337 0.931 . S
C1321 C1319 1.372 . S
C1321 C1320 1.390 . S
C1321 H1338 0.929 . S
C1322 C1317 1.390 . S
C1322 C1318 1.392 . S
C1322 H1339 0.930 . S
C1323 O1308 1.255 . S
C1323 O1309 1.257 . S
C1324 Eu1260 2.787 . S
C1324 O1304 1.252 . S
C1324 O1307 1.268 . S
C1324 C1317 1.506 . S
C1325 C1292 1.439 . S
C1325 H1302 0.931 . S
C1325 C1326 1.374 . S
C1326 C1297 1.387 . S
C1326 H1303 0.931 . S
C1326 C1325 1.374 . S
C1327 O1311 1.249 . S
C1327 O1312 1.264 . S
C1328 C1331 1.382 . S
C1328 C1332 1.390 . S
C1328 C1335 1.506 . S
C1329 C1330 1.398 . S
C1329 C1332 1.392 . S
C1330 C1329 1.398 . S
C1330 C1333 1.372 . S
C1330 H1340 0.931 1_545 S
C1331 C1328 1.382 . S
C1331 C1333 1.390 . S
C1331 H1341 0.931 . S
C1332 C1328 1.390 . S
C1332 C1329 1.392 . S
C1332 H1342 0.930 . S
C1333 C1330 1.372 . S
C1333 C1331 1.390 . S
C1333 H1343 0.929 . S
C1334 O1314 1.255 . S
C1334 O1315 1.257 . S
C1335 Eu1271 2.787 . S
C1335 O1310 1.252 . S
C1335 O1313 1.268 . S
C1335 C1328 1.506 . S
H1336 C1319 0.931 . S
H1337 C1320 0.931 . S
H1338 C1321 0.929 . S
H1339 C1322 0.930 . S
H1340 C1330 0.931 1_565 S
H1341 C1331 0.931 . S
H1342 C1332 0.930 . S
H1343 C1333 0.929 . S
H1344 C1350 0.930 . S
H1345 C1353 0.930 . S
H1346 C1354 0.930 . S
H1347 C1355 0.930 . S
H1348 C1358 0.930 . S
H1349 C1359 0.930 . S
C1350 H1344 0.930 . S
C1350 C1351 1.355 . S
C1350 C1352 1.415 . S
C1351 C1350 1.355 . S
C1351 C1353 1.419 . S
C1352 C1350 1.415 . S
C1352 C1357 1.425 . S
C1352 C1359 1.409 . S
C1353 H1345 0.930 . S
C1353 C1351 1.419 . S
C1353 C1354 1.362 . S
C1354 H1346 0.930 . S
C1354 C1353 1.362 . S
C1354 C1357 1.409 . S
C1355 H1347 0.930 . S
C1355 C1356 1.355 . S
C1355 C1357 1.415 . S
C1356 C1355 1.355 . S
C1356 C1358 1.419 . S
C1357 C1352 1.425 . S
C1357 C1354 1.409 . S
C1357 C1355 1.415 . S
C1358 H1348 0.930 . S
C1358 C1356 1.419 . S
C1358 C1359 1.362 . S
C1359 H1349 0.930 . S
C1359 C1352 1.409 . S
C1359 C1358 1.362 . S
H1360 C1366 0.930 . S
H1361 C1369 0.930 . S
H1362 C1370 0.930 . S
H1363 C1371 0.930 . S
H1364 C1374 0.930 . S
H1365 C1375 0.930 . S
C1366 H1360 0.930 . S
C1366 C1367 1.355 . S
C1366 C1368 1.415 . S
C1367 C1366 1.355 . S
C1367 C1369 1.419 . S
C1368 C1366 1.415 . S
C1368 C1373 1.425 . S
C1368 C1375 1.409 . S
C1369 H1361 0.930 . S
C1369 C1367 1.419 . S
C1369 C1370 1.362 . S
C1370 H1362 0.930 . S
C1370 C1369 1.362 . S
C1370 C1373 1.409 . S
C1371 H1363 0.930 . S
C1371 C1372 1.355 . S
C1371 C1373 1.415 . S
C1372 C1371 1.355 . S
C1372 C1374 1.419 . S
C1373 C1368 1.425 . S
C1373 C1370 1.409 . S
C1373 C1371 1.415 . S
C1374 H1364 0.930 . S
C1374 C1372 1.419 . S
C1374 C1375 1.362 . S
C1375 H1365 0.930 . S
C1375 C1368 1.409 . S
C1375 C1374 1.362 . S
H1376 C1382 0.930 . S
H1377 C1385 0.930 . S
H1378 C1386 0.930 . S
H1379 C1387 0.930 . S
H1380 C1390 0.930 . S
H1381 C1391 0.930 . S
C1382 H1376 0.930 . S
C1382 C1383 1.355 . S
C1382 C1384 1.415 . S
C1383 C1382 1.355 . S
C1383 C1385 1.419 . S
C1384 C1382 1.415 . S
C1384 C1389 1.425 . S
C1384 C1391 1.409 . S
C1385 H1377 0.930 . S
C1385 C1383 1.419 . S
C1385 C1386 1.362 . S
C1386 H1378 0.930 . S
C1386 C1385 1.362 . S
C1386 C1389 1.409 . S
C1387 H1379 0.930 . S
C1387 C1388 1.355 . S
C1387 C1389 1.415 . S
C1388 C1387 1.355 . S
C1388 C1390 1.419 . S
C1389 C1384 1.425 . S
C1389 C1386 1.409 . S
C1389 C1387 1.415 . S
C1390 H1380 0.930 . S
C1390 C1388 1.419 . S
C1390 C1391 1.362 . S
C1391 H1381 0.930 . S
C1391 C1384 1.409 . S
C1391 C1390 1.362 . S
H1392 C1398 0.930 . S
H1393 C1401 0.930 . S
H1394 C1402 0.930 . S
H1395 C1403 0.930 . S
H1396 C1406 0.930 . S
H1397 C1407 0.930 . S
C1398 H1392 0.930 . S
C1398 C1399 1.355 . S
C1398 C1400 1.415 . S
C1399 C1398 1.355 . S
C1399 C1401 1.419 . S
C1400 C1398 1.415 . S
C1400 C1405 1.425 . S
C1400 C1407 1.409 . S
C1401 H1393 0.930 . S
C1401 C1399 1.419 . S
C1401 C1402 1.362 . S
C1402 H1394 0.930 . S
C1402 C1401 1.362 . S
C1402 C1405 1.409 . S
C1403 H1395 0.930 . S
C1403 C1404 1.355 . S
C1403 C1405 1.415 . S
C1404 C1403 1.355 . S
C1404 C1406 1.419 . S
C1405 C1400 1.425 . S
C1405 C1402 1.409 . S
C1405 C1403 1.415 . S
C1406 H1396 0.930 . S
C1406 C1404 1.419 . S
C1406 C1407 1.362 . S
C1407 H1397 0.930 . S
C1407 C1400 1.409 . S
C1407 C1406 1.362 . S
H1408 C1414 0.930 . S
H1409 C1417 0.930 . S
H1410 C1418 0.930 . S
H1411 C1419 0.930 . S
H1412 C1422 0.930 . S
H1413 C1423 0.930 . S
C1414 H1408 0.930 . S
C1414 C1415 1.355 . S
C1414 C1416 1.415 . S
C1415 C1414 1.355 . S
C1415 C1417 1.419 . S
C1416 C1414 1.415 . S
C1416 C1421 1.425 . S
C1416 C1423 1.409 . S
C1417 H1409 0.930 . S
C1417 C1415 1.419 . S
C1417 C1418 1.362 . S
C1418 H1410 0.930 . S
C1418 C1417 1.362 . S
C1418 C1421 1.409 . S
C1419 H1411 0.930 . S
C1419 C1420 1.355 . S
C1419 C1421 1.415 . S
C1420 C1419 1.355 . S
C1420 C1422 1.419 . S
C1421 C1416 1.425 . S
C1421 C1418 1.409 . S
C1421 C1419 1.415 . S
C1422 H1412 0.930 . S
C1422 C1420 1.419 . S
C1422 C1423 1.362 . S
C1423 H1413 0.930 . S
C1423 C1416 1.409 . S
C1423 C1422 1.362 . S
H1424 C1430 0.930 . S
H1425 C1433 0.930 . S
H1426 C1434 0.930 . S
H1427 C1435 0.930 . S
H1428 C1438 0.930 . S
H1429 C1439 0.930 . S
C1430 H1424 0.930 . S
C1430 C1431 1.355 . S
C1430 C1432 1.415 . S
C1431 C1430 1.355 . S
C1431 C1433 1.419 . S
C1432 C1430 1.415 . S
C1432 C1437 1.425 . S
C1432 C1439 1.409 . S
C1433 H1425 0.930 . S
C1433 C1431 1.419 . S
C1433 C1434 1.362 . S
C1434 H1426 0.930 . S
C1434 C1433 1.362 . S
C1434 C1437 1.409 . S
C1435 H1427 0.930 . S
C1435 C1436 1.355 . S
C1435 C1437 1.415 . S
C1436 C1435 1.355 . S
C1436 C1438 1.419 . S
C1437 C1432 1.425 . S
C1437 C1434 1.409 . S
C1437 C1435 1.415 . S
C1438 H1428 0.930 . S
C1438 C1436 1.419 . S
C1438 C1439 1.362 . S
C1439 H1429 0.930 . S
C1439 C1432 1.409 . S
C1439 C1438 1.362 . S
H1440 C1446 0.930 . S
H1441 C1449 0.930 . S
H1442 C1450 0.930 . S
H1443 C1451 0.930 . S
H1444 C1454 0.930 . S
H1445 C1455 0.930 . S
C1446 H1440 0.930 . S
C1446 C1447 1.355 . S
C1446 C1448 1.415 . S
C1447 C1446 1.355 . S
C1447 C1449 1.419 . S
C1448 C1446 1.415 . S
C1448 C1453 1.425 . S
C1448 C1455 1.409 . S
C1449 H1441 0.930 . S
C1449 C1447 1.419 . S
C1449 C1450 1.362 . S
C1450 H1442 0.930 . S
C1450 C1449 1.362 . S
C1450 C1453 1.409 . S
C1451 H1443 0.930 . S
C1451 C1452 1.355 . S
C1451 C1453 1.415 . S
C1452 C1451 1.355 . S
C1452 C1454 1.419 . S
C1453 C1448 1.425 . S
C1453 C1450 1.409 . S
C1453 C1451 1.415 . S
C1454 H1444 0.930 . S
C1454 C1452 1.419 . S
C1454 C1455 1.362 . S
C1455 H1445 0.930 . S
C1455 C1448 1.409 . S
C1455 C1454 1.362 . S
H1456 C1462 0.930 . S
H1457 C1465 0.930 . S
H1458 C1466 0.930 . S
H1459 C1467 0.930 . S
H1460 C1470 0.930 . S
H1461 C1471 0.930 . S
C1462 H1456 0.930 . S
C1462 C1463 1.355 . S
C1462 C1464 1.415 . S
C1463 C1462 1.355 . S
C1463 C1465 1.419 . S
C1464 C1462 1.415 . S
C1464 C1469 1.425 . S
C1464 C1471 1.409 . S
C1465 H1457 0.930 . S
C1465 C1463 1.419 . S
C1465 C1466 1.362 . S
C1466 H1458 0.930 . S
C1466 C1465 1.362 . S
C1466 C1469 1.409 . S
C1467 H1459 0.930 . S
C1467 C1468 1.355 . S
C1467 C1469 1.415 . S
C1468 C1467 1.355 . S
C1468 C1470 1.419 . S
C1469 C1464 1.425 . S
C1469 C1466 1.409 . S
C1469 C1467 1.415 . S
C1470 H1460 0.930 . S
C1470 C1468 1.419 . S
C1470 C1471 1.362 . S
C1471 H1461 0.930 . S
C1471 C1464 1.409 . S
C1471 C1470 1.362 . S
H1472 C1478 0.930 . S
H1473 C1481 0.930 . S
H1474 C1482 0.930 . S
H1475 C1483 0.930 . S
H1476 C1486 0.930 . S
H1477 C1487 0.930 . S
C1478 H1472 0.930 . S
C1478 C1479 1.355 . S
C1478 C1480 1.415 . S
C1479 C1478 1.355 . S
C1479 C1481 1.419 1_565 S
C1480 C1478 1.415 . S
C1480 C1485 1.425 1_565 S
C1480 C1487 1.409 . S
C1481 H1473 0.930 . S
C1481 C1479 1.419 1_545 S
C1481 C1482 1.362 . S
C1482 H1474 0.930 . S
C1482 C1481 1.362 . S
C1482 C1485 1.409 . S
C1483 H1475 0.930 . S
C1483 C1484 1.355 . S
C1483 C1485 1.415 . S
C1484 C1483 1.355 . S
C1484 C1486 1.419 1_545 S
C1485 C1480 1.425 1_545 S
C1485 C1482 1.409 . S
C1485 C1483 1.415 . S
C1486 H1476 0.930 . S
C1486 C1484 1.419 1_565 S
C1486 C1487 1.362 . S
C1487 H1477 0.930 . S
C1487 C1480 1.409 . S
C1487 C1486 1.362 . S
H1488 C1494 0.930 1_565 S
H1489 C1497 0.930 . S
H1490 C1498 0.930 . S
H1491 C1499 0.930 1_545 S
H1492 C1502 0.930 . S
H1493 C1503 0.930 . S
C1494 H1488 0.930 1_545 S
C1494 C1495 1.355 . S
C1494 C1496 1.415 1_545 S
C1495 C1494 1.355 . S
C1495 C1497 1.419 . S
C1496 C1494 1.415 1_565 S
C1496 C1501 1.425 1_565 S
C1496 C1503 1.409 . S
C1497 H1489 0.930 . S
C1497 C1495 1.419 . S
C1497 C1498 1.362 . S
C1498 H1490 0.930 . S
C1498 C1497 1.362 . S
C1498 C1501 1.409 . S
C1499 H1491 0.930 1_565 S
C1499 C1500 1.355 . S
C1499 C1501 1.415 1_565 S
C1500 C1499 1.355 . S
C1500 C1502 1.419 . S
C1501 C1496 1.425 1_545 S
C1501 C1498 1.409 . S
C1501 C1499 1.415 1_545 S
C1502 H1492 0.930 . S
C1502 C1500 1.419 . S
C1502 C1503 1.362 . S
C1503 H1493 0.930 . S
C1503 C1496 1.409 . S
C1503 C1502 1.362 . S
H1504 C1510 0.930 1_565 S
H1505 C1513 0.930 . S
H1506 C1514 0.930 . S
H1507 C1515 0.930 1_545 S
H1508 C1518 0.930 . S
H1509 C1519 0.930 . S
C1510 H1504 0.930 1_545 S
C1510 C1511 1.355 . S
C1510 C1512 1.415 1_545 S
C1511 C1510 1.355 . S
C1511 C1513 1.419 . S
C1512 C1510 1.415 1_565 S
C1512 C1517 1.425 1_565 S
C1512 C1519 1.409 . S
C1513 H1505 0.930 . S
C1513 C1511 1.419 . S
C1513 C1514 1.362 . S
C1514 H1506 0.930 . S
C1514 C1513 1.362 . S
C1514 C1517 1.409 . S
C1515 H1507 0.930 1_565 S
C1515 C1516 1.355 . S
C1515 C1517 1.415 1_565 S
C1516 C1515 1.355 . S
C1516 C1518 1.419 . S
C1517 C1512 1.425 1_545 S
C1517 C1514 1.409 . S
C1517 C1515 1.415 1_545 S
C1518 H1508 0.930 . S
C1518 C1516 1.419 . S
C1518 C1519 1.362 . S
C1519 H1509 0.930 . S
C1519 C1512 1.409 . S
C1519 C1518 1.362 . S
H1520 C1526 0.930 . S
H1521 C1529 0.929 1_565 S
H1522 C1530 0.930 . S
H1523 C1531 0.930 . S
H1524 C1534 0.929 1_545 S
H1525 C1535 0.930 . S
C1526 H1520 0.930 . S
C1526 C1527 1.355 . S
C1526 C1528 1.415 . S
C1527 C1526 1.355 . S
C1527 C1529 1.422 . S
C1528 C1526 1.415 . S
C1528 C1533 1.425 1_545 S
C1528 C1535 1.409 . S
C1529 H1521 0.929 1_545 S
C1529 C1527 1.422 . S
C1529 C1530 1.360 1_545 S
C1530 H1522 0.930 . S
C1530 C1529 1.360 1_565 S
C1530 C1533 1.409 . S
C1531 H1523 0.930 . S
C1531 C1532 1.355 . S
C1531 C1533 1.415 . S
C1532 C1531 1.355 . S
C1532 C1534 1.422 . S
C1533 C1528 1.425 1_565 S
C1533 C1530 1.409 . S
C1533 C1531 1.415 . S
C1534 H1524 0.929 1_565 S
C1534 C1532 1.422 . S
C1534 C1535 1.360 1_565 S
C1535 H1525 0.930 . S
C1535 C1528 1.409 . S
C1535 C1534 1.360 1_545 S
H1536 C1542 0.930 . S
H1537 C1545 0.930 . S
H1538 C1546 0.930 . S
H1539 C1547 0.930 . S
H1540 C1550 0.930 . S
H1541 C1551 0.930 . S
C1542 H1536 0.930 . S
C1542 C1543 1.355 . S
C1542 C1544 1.415 . S
C1543 C1542 1.355 . S
C1543 C1545 1.419 . S
C1544 C1542 1.415 . S
C1544 C1549 1.425 . S
C1544 C1551 1.409 . S
C1545 H1537 0.930 . S
C1545 C1543 1.419 . S
C1545 C1546 1.362 . S
C1546 H1538 0.930 . S
C1546 C1545 1.362 . S
C1546 C1549 1.409 . S
C1547 H1539 0.930 . S
C1547 C1548 1.355 . S
C1547 C1549 1.415 . S
C1548 C1547 1.355 . S
C1548 C1550 1.419 . S
C1549 C1544 1.425 . S
C1549 C1546 1.409 . S
C1549 C1547 1.415 . S
C1550 H1540 0.930 . S
C1550 C1548 1.419 . S
C1550 C1551 1.362 . S
C1551 H1541 0.930 . S
C1551 C1544 1.409 . S
C1551 C1550 1.362 . S
H1552 C1558 0.930 . S
H1553 C1561 0.930 . S
H1554 C1562 0.930 . S
H1555 C1563 0.930 . S
H1556 C1566 0.930 . S
H1557 C1567 0.930 . S
C1558 H1552 0.930 . S
C1558 C1559 1.355 . S
C1558 C1560 1.415 . S
C1559 C1558 1.355 . S
C1559 C1561 1.419 . S
C1560 C1558 1.415 . S
C1560 C1565 1.425 . S
C1560 C1567 1.409 . S
C1561 H1553 0.930 . S
C1561 C1559 1.419 . S
C1561 C1562 1.362 . S
C1562 H1554 0.930 . S
C1562 C1561 1.362 . S
C1562 C1565 1.409 . S
C1563 H1555 0.930 . S
C1563 C1564 1.355 . S
C1563 C1565 1.415 . S
C1564 C1563 1.355 . S
C1564 C1566 1.419 . S
C1565 C1560 1.425 . S
C1565 C1562 1.409 . S
C1565 C1563 1.415 . S
C1566 H1556 0.930 . S
C1566 C1564 1.419 . S
C1566 C1567 1.362 . S
C1567 H1557 0.930 . S
C1567 C1560 1.409 . S
C1567 C1566 1.362 . S
H1568 C1574 0.930 . S
H1569 C1577 0.930 . S
H1570 C1578 0.930 . S
H1571 C1579 0.930 . S
H1572 C1582 0.930 . S
H1573 C1583 0.930 . S
C1574 H1568 0.930 . S
C1574 C1575 1.355 . S
C1574 C1576 1.415 . S
C1575 C1574 1.355 . S
C1575 C1577 1.419 . S
C1576 C1574 1.415 . S
C1576 C1581 1.425 . S
C1576 C1583 1.409 . S
C1577 H1569 0.930 . S
C1577 C1575 1.419 . S
C1577 C1578 1.362 . S
C1578 H1570 0.930 . S
C1578 C1577 1.362 . S
C1578 C1581 1.409 . S
C1579 H1571 0.930 . S
C1579 C1580 1.355 . S
C1579 C1581 1.415 . S
C1580 C1579 1.355 . S
C1580 C1582 1.419 . S
C1581 C1576 1.425 . S
C1581 C1578 1.409 . S
C1581 C1579 1.415 . S
C1582 H1572 0.930 . S
C1582 C1580 1.419 . S
C1582 C1583 1.362 . S
C1583 H1573 0.930 . S
C1583 C1576 1.409 . S
C1583 C1582 1.362 . S
H1584 C1590 0.930 . S
H1585 C1593 0.930 . S
H1586 C1594 0.930 . S
H1587 C1595 0.930 . S
H1588 C1598 0.930 . S
H1589 C1599 0.930 . S
C1590 H1584 0.930 . S
C1590 C1591 1.355 . S
C1590 C1592 1.415 . S
C1591 C1590 1.355 . S
C1591 C1593 1.419 . S
C1592 C1590 1.415 . S
C1592 C1597 1.425 . S
C1592 C1599 1.409 . S
C1593 H1585 0.930 . S
C1593 C1591 1.419 . S
C1593 C1594 1.362 . S
C1594 H1586 0.930 . S
C1594 C1593 1.362 . S
C1594 C1597 1.409 . S
C1595 H1587 0.930 . S
C1595 C1596 1.355 . S
C1595 C1597 1.415 . S
C1596 C1595 1.355 . S
C1596 C1598 1.419 . S
C1597 C1592 1.425 . S
C1597 C1594 1.409 . S
C1597 C1595 1.415 . S
C1598 H1588 0.930 . S
C1598 C1596 1.419 . S
C1598 C1599 1.362 . S
C1599 H1589 0.930 . S
C1599 C1592 1.409 . S
C1599 C1598 1.362 . S
H1600 C1606 0.930 . S
H1601 C1609 0.930 . S
H1602 C1610 0.930 . S
H1603 C1611 0.930 . S
H1604 C1614 0.930 . S
H1605 C1615 0.930 . S
C1606 H1600 0.930 . S
C1606 C1607 1.355 . S
C1606 C1608 1.415 . S
C1607 C1606 1.355 . S
C1607 C1609 1.419 . S
C1608 C1606 1.415 . S
C1608 C1613 1.425 1_556 S
C1608 C1615 1.409 1_556 S
C1609 H1601 0.930 . S
C1609 C1607 1.419 . S
C1609 C1610 1.362 . S
C1610 H1602 0.930 . S
C1610 C1609 1.362 . S
C1610 C1613 1.409 1_556 S
C1611 H1603 0.930 . S
C1611 C1612 1.355 . S
C1611 C1613 1.415 . S
C1612 C1611 1.355 . S
C1612 C1614 1.419 . S
C1613 C1608 1.425 1_554 S
C1613 C1610 1.409 1_554 S
C1613 C1611 1.415 . S
C1614 H1604 0.930 . S
C1614 C1612 1.419 . S
C1614 C1615 1.362 . S
C1615 H1605 0.930 . S
C1615 C1608 1.409 1_554 S
C1615 C1614 1.362 . S
H1616 C1622 0.930 . S
H1617 C1625 0.930 . S
H1618 C1626 0.930 . S
H1619 C1627 0.930 . S
H1620 C1630 0.930 . S
H1621 C1631 0.930 . S
C1622 H1616 0.930 . S
C1622 C1623 1.355 . S
C1622 C1624 1.415 . S
C1623 C1622 1.355 . S
C1623 C1625 1.419 . S
C1624 C1622 1.415 . S
C1624 C1629 1.425 1_556 S
C1624 C1631 1.409 1_556 S
C1625 H1617 0.930 . S
C1625 C1623 1.419 . S
C1625 C1626 1.362 . S
C1626 H1618 0.930 . S
C1626 C1625 1.362 . S
C1626 C1629 1.409 1_556 S
C1627 H1619 0.930 . S
C1627 C1628 1.355 . S
C1627 C1629 1.415 . S
C1628 C1627 1.355 . S
C1628 C1630 1.419 . S
C1629 C1624 1.425 1_554 S
C1629 C1626 1.409 1_554 S
C1629 C1627 1.415 . S
C1630 H1620 0.930 . S
C1630 C1628 1.419 . S
C1630 C1631 1.362 . S
C1631 H1621 0.930 . S
C1631 C1624 1.409 1_554 S
C1631 C1630 1.362 . S
H1632 C1638 0.930 . S
H1633 C1641 0.930 . S
H1634 C1642 0.930 . S
H1635 C1643 0.930 . S
H1636 C1646 0.930 . S
H1637 C1647 0.930 . S
C1638 H1632 0.930 . S
C1638 C1639 1.355 . S
C1638 C1640 1.415 . S
C1639 C1638 1.355 . S
C1639 C1641 1.419 . S
C1640 C1638 1.415 . S
C1640 C1645 1.425 . S
C1640 C1647 1.409 . S
C1641 H1633 0.930 . S
C1641 C1639 1.419 . S
C1641 C1642 1.362 . S
C1642 H1634 0.930 . S
C1642 C1641 1.362 . S
C1642 C1645 1.409 . S
C1643 H1635 0.930 . S
C1643 C1644 1.355 . S
C1643 C1645 1.415 . S
C1644 C1643 1.355 . S
C1644 C1646 1.419 . S
C1645 C1640 1.425 . S
C1645 C1642 1.409 . S
C1645 C1643 1.415 . S
C1646 H1636 0.930 . S
C1646 C1644 1.419 . S
C1646 C1647 1.362 . S
C1647 H1637 0.930 . S
C1647 C1640 1.409 . S
C1647 C1646 1.362 . S
H1648 C1654 0.930 . S
H1649 C1657 0.930 . S
H1650 C1658 0.930 . S
H1651 C1659 0.930 . S
H1652 C1662 0.930 . S
H1653 C1663 0.930 . S
C1654 H1648 0.930 . S
C1654 C1655 1.355 . S
C1654 C1656 1.415 . S
C1655 C1654 1.355 . S
C1655 C1657 1.419 . S
C1656 C1654 1.415 . S
C1656 C1661 1.425 . S
C1656 C1663 1.409 . S
C1657 H1649 0.930 . S
C1657 C1655 1.419 . S
C1657 C1658 1.362 . S
C1658 H1650 0.930 . S
C1658 C1657 1.362 . S
C1658 C1661 1.409 . S
C1659 H1651 0.930 . S
C1659 C1660 1.355 . S
C1659 C1661 1.415 . S
C1660 C1659 1.355 . S
C1660 C1662 1.419 . S
C1661 C1656 1.425 . S
C1661 C1658 1.409 . S
C1661 C1659 1.415 . S
C1662 H1652 0.930 . S
C1662 C1660 1.419 . S
C1662 C1663 1.362 . S
C1663 H1653 0.930 . S
C1663 C1656 1.409 . S
C1663 C1662 1.362 . S
H1664 C1670 0.930 . S
H1665 C1673 0.930 . S
H1666 C1674 0.930 . S
H1667 C1675 0.930 . S
H1668 C1678 0.930 . S
H1669 C1679 0.930 . S
C1670 H1664 0.930 . S
C1670 C1671 1.355 . S
C1670 C1672 1.415 . S
C1671 C1670 1.355 . S
C1671 C1673 1.419 . S
C1672 C1670 1.415 . S
C1672 C1677 1.425 1_554 S
C1672 C1679 1.409 1_554 S
C1673 H1665 0.930 . S
C1673 C1671 1.419 . S
C1673 C1674 1.362 . S
C1674 H1666 0.930 . S
C1674 C1673 1.362 . S
C1674 C1677 1.409 1_554 S
C1675 H1667 0.930 . S
C1675 C1676 1.355 . S
C1675 C1677 1.415 . S
C1676 C1675 1.355 . S
C1676 C1678 1.419 . S
C1677 C1672 1.425 1_556 S
C1677 C1674 1.409 1_556 S
C1677 C1675 1.415 . S
C1678 H1668 0.930 . S
C1678 C1676 1.419 . S
C1678 C1679 1.362 . S
C1679 H1669 0.930 . S
C1679 C1672 1.409 1_556 S
C1679 C1678 1.362 . S
H1680 C1686 0.930 . S
H1681 C1689 0.930 . S
H1682 C1690 0.930 . S
H1683 C1691 0.930 . S
H1684 C1694 0.930 . S
H1685 C1695 0.930 . S
C1686 H1680 0.930 . S
C1686 C1687 1.355 . S
C1686 C1688 1.415 . S
C1687 C1686 1.355 . S
C1687 C1689 1.419 . S
C1688 C1686 1.415 . S
C1688 C1693 1.425 1_556 S
C1688 C1695 1.409 1_556 S
C1689 H1681 0.930 . S
C1689 C1687 1.419 . S
C1689 C1690 1.362 . S
C1690 H1682 0.930 . S
C1690 C1689 1.362 . S
C1690 C1693 1.409 1_556 S
C1691 H1683 0.930 . S
C1691 C1692 1.355 . S
C1691 C1693 1.415 . S
C1692 C1691 1.355 . S
C1692 C1694 1.419 . S
C1693 C1688 1.425 1_554 S
C1693 C1690 1.409 1_554 S
C1693 C1691 1.415 . S
C1694 H1684 0.930 . S
C1694 C1692 1.419 . S
C1694 C1695 1.362 . S
C1695 H1685 0.930 . S
C1695 C1688 1.409 1_554 S
C1695 C1694 1.362 . S
H1696 C1702 0.930 . S
H1697 C1705 0.930 . S
H1698 C1706 0.930 . S
H1699 C1707 0.930 . S
H1700 C1710 0.930 . S
H1701 C1711 0.930 . S
C1702 H1696 0.930 . S
C1702 C1703 1.355 . S
C1702 C1704 1.415 . S
C1703 C1702 1.355 . S
C1703 C1705 1.419 . S
C1704 C1702 1.415 . S
C1704 C1709 1.425 . S
C1704 C1711 1.409 . S
C1705 H1697 0.930 . S
C1705 C1703 1.419 . S
C1705 C1706 1.362 . S
C1706 H1698 0.930 . S
C1706 C1705 1.362 . S
C1706 C1709 1.409 . S
C1707 H1699 0.930 . S
C1707 C1708 1.355 . S
C1707 C1709 1.415 . S
C1708 C1707 1.355 . S
C1708 C1710 1.419 . S
C1709 C1704 1.425 . S
C1709 C1706 1.409 . S
C1709 C1707 1.415 . S
C1710 H1700 0.930 . S
C1710 C1708 1.419 . S
C1710 C1711 1.362 . S
C1711 H1701 0.930 . S
C1711 C1704 1.409 . S
C1711 C1710 1.362 . S
H1712 C1718 0.930 . S
H1713 C1721 0.930 . S
H1714 C1722 0.930 . S
H1715 C1723 0.930 . S
H1716 C1726 0.930 . S
H1717 C1727 0.930 . S
C1718 H1712 0.930 . S
C1718 C1719 1.355 . S
C1718 C1720 1.415 . S
C1719 C1718 1.355 . S
C1719 C1721 1.419 . S
C1720 C1718 1.415 . S
C1720 C1725 1.425 . S
C1720 C1727 1.409 . S
C1721 H1713 0.930 . S
C1721 C1719 1.419 . S
C1721 C1722 1.362 . S
C1722 H1714 0.930 . S
C1722 C1721 1.362 . S
C1722 C1725 1.409 . S
C1723 H1715 0.930 . S
C1723 C1724 1.355 . S
C1723 C1725 1.415 . S
C1724 C1723 1.355 . S
C1724 C1726 1.419 . S
C1725 C1720 1.425 . S
C1725 C1722 1.409 . S
C1725 C1723 1.415 . S
C1726 H1716 0.930 . S
C1726 C1724 1.419 . S
C1726 C1727 1.362 . S
C1727 H1717 0.930 . S
C1727 C1720 1.409 . S
C1727 C1726 1.362 . S
H1728 C1734 0.930 . S
H1729 C1737 0.930 . S
H1730 C1738 0.955 . S
H1731 C1739 0.930 . S
H1732 C1742 0.930 . S
H1733 C1743 0.955 . S
C1734 H1728 0.930 . S
C1734 C1735 1.355 1_545 S
C1734 C1736 1.415 . S
C1735 C1734 1.355 1_565 S
C1735 C1737 1.419 . S
C1736 C1734 1.415 . S
C1736 C1741 1.425 1_645 S
C1736 C1743 1.421 . S
C1737 H1729 0.930 . S
C1737 C1735 1.419 . S
C1737 C1738 1.327 1_655 S
C1738 H1730 0.955 . S
C1738 C1737 1.327 1_455 S
C1738 C1741 1.421 . S
C1739 H1731 0.930 . S
C1739 C1740 1.355 1_565 S
C1739 C1741 1.415 . S
C1740 C1739 1.355 1_545 S
C1740 C1742 1.419 . S
C1741 C1736 1.425 1_465 S
C1741 C1738 1.421 . S
C1741 C1739 1.415 . S
C1742 H1732 0.930 . S
C1742 C1740 1.419 . S
C1742 C1743 1.327 1_455 S
C1743 H1733 0.955 . S
C1743 C1736 1.421 . S
C1743 C1742 1.327 1_655 S
H1744 C1750 0.930 . S
H1745 C1753 0.930 . S
H1746 C1754 0.930 . S
H1747 C1755 0.930 . S
H1748 C1758 0.930 . S
H1749 C1759 0.930 . S
C1750 H1744 0.930 . S
C1750 C1751 1.355 1_565 S
C1750 C1752 1.415 . S
C1751 C1750 1.355 1_545 S
C1751 C1753 1.419 . S
C1752 C1750 1.415 . S
C1752 C1757 1.425 1_665 S
C1752 C1759 1.409 . S
C1753 H1745 0.930 . S
C1753 C1751 1.419 . S
C1753 C1754 1.362 1_655 S
C1754 H1746 0.930 . S
C1754 C1753 1.362 1_455 S
C1754 C1757 1.409 . S
C1755 H1747 0.930 . S
C1755 C1756 1.355 1_545 S
C1755 C1757 1.415 . S
C1756 C1755 1.355 1_565 S
C1756 C1758 1.419 . S
C1757 C1752 1.425 1_445 S
C1757 C1754 1.409 . S
C1757 C1755 1.415 . S
C1758 H1748 0.930 . S
C1758 C1756 1.419 . S
C1758 C1759 1.362 1_455 S
C1759 H1749 0.930 . S
C1759 C1752 1.409 . S
C1759 C1758 1.362 1_655 S
H1760 C1766 0.930 . S
H1761 C1769 0.930 . S
H1762 C1770 0.930 . S
H1763 C1771 0.930 . S
H1764 C1774 0.930 . S
H1765 C1775 0.930 . S
C1766 H1760 0.930 . S
C1766 C1767 1.355 . S
C1766 C1768 1.397 1_455 S
C1767 C1766 1.355 . S
C1767 C1769 1.419 1_545 S
C1768 C1766 1.397 1_655 S
C1768 C1773 1.424 1_645 S
C1768 C1775 1.427 . S
C1769 H1761 0.930 . S
C1769 C1767 1.419 1_565 S
C1769 C1770 1.362 . S
C1770 H1762 0.930 . S
C1770 C1769 1.362 . S
C1770 C1773 1.427 . S
C1771 H1763 0.930 . S
C1771 C1772 1.355 . S
C1771 C1773 1.397 1_655 S
C1772 C1771 1.355 . S
C1772 C1774 1.419 1_565 S
C1773 C1768 1.424 1_465 S
C1773 C1770 1.427 . S
C1773 C1771 1.397 1_455 S
C1774 H1764 0.930 . S
C1774 C1772 1.419 1_545 S
C1774 C1775 1.362 . S
C1775 H1765 0.930 . S
C1775 C1768 1.427 . S
C1775 C1774 1.362 . S
H1776 C1782 0.930 . S
H1777 C1785 0.930 . S
H1778 C1786 0.935 . S
H1779 C1787 0.930 . S
H1780 C1790 0.930 . S
H1781 C1791 0.935 . S
C1782 H1776 0.930 . S
C1782 C1783 1.355 1_565 S
C1782 C1784 1.415 . S
C1783 C1782 1.355 1_545 S
C1783 C1785 1.419 . S
C1784 C1782 1.415 . S
C1784 C1789 1.425 1_665 S
C1784 C1791 1.412 . S
C1785 H1777 0.930 . S
C1785 C1783 1.419 . S
C1785 C1786 1.355 1_655 S
C1786 H1778 0.935 . S
C1786 C1785 1.355 1_455 S
C1786 C1789 1.412 . S
C1787 H1779 0.930 . S
C1787 C1788 1.355 1_545 S
C1787 C1789 1.415 . S
C1788 C1787 1.355 1_565 S
C1788 C1790 1.419 . S
C1789 C1784 1.425 1_445 S
C1789 C1786 1.412 . S
C1789 C1787 1.415 . S
C1790 H1780 0.930 . S
C1790 C1788 1.419 . S
C1790 C1791 1.355 1_455 S
C1791 H1781 0.935 . S
C1791 C1784 1.412 . S
C1791 C1790 1.355 1_655 S
H1792 C1798 0.930 . S
H1793 C1801 0.930 . S
H1794 C1802 0.930 . S
H1795 C1803 0.930 . S
H1796 C1806 0.930 . S
H1797 C1807 0.930 . S
C1798 H1792 0.930 . S
C1798 C1799 1.355 . S
C1798 C1800 1.415 . S
C1799 C1798 1.355 . S
C1799 C1801 1.419 . S
C1800 C1798 1.415 . S
C1800 C1805 1.425 . S
C1800 C1807 1.409 . S
C1801 H1793 0.930 . S
C1801 C1799 1.419 . S
C1801 C1802 1.362 . S
C1802 H1794 0.930 . S
C1802 C1801 1.362 . S
C1802 C1805 1.409 . S
C1803 H1795 0.930 . S
C1803 C1804 1.355 . S
C1803 C1805 1.415 . S
C1804 C1803 1.355 . S
C1804 C1806 1.419 . S
C1805 C1800 1.425 . S
C1805 C1802 1.409 . S
C1805 C1803 1.415 . S
C1806 H1796 0.930 . S
C1806 C1804 1.419 . S
C1806 C1807 1.362 . S
C1807 H1797 0.930 . S
C1807 C1800 1.409 . S
C1807 C1806 1.362 . S
H1808 C1814 0.930 . S
H1809 C1817 0.930 . S
H1810 C1818 0.930 . S
H1811 C1819 0.930 . S
H1812 C1822 0.930 . S
H1813 C1823 0.930 . S
C1814 H1808 0.930 . S
C1814 C1815 1.355 . S
C1814 C1816 1.415 . S
C1815 C1814 1.355 . S
C1815 C1817 1.419 . S
C1816 C1814 1.415 . S
C1816 C1821 1.425 . S
C1816 C1823 1.409 . S
C1817 H1809 0.930 . S
C1817 C1815 1.419 . S
C1817 C1818 1.362 . S
C1818 H1810 0.930 . S
C1818 C1817 1.362 . S
C1818 C1821 1.409 . S
C1819 H1811 0.930 . S
C1819 C1820 1.355 . S
C1819 C1821 1.415 . S
C1820 C1819 1.355 . S
C1820 C1822 1.419 . S
C1821 C1816 1.425 . S
C1821 C1818 1.409 . S
C1821 C1819 1.415 . S
C1822 H1812 0.930 . S
C1822 C1820 1.419 . S
C1822 C1823 1.362 . S
C1823 H1813 0.930 . S
C1823 C1816 1.409 . S
C1823 C1822 1.362 . S
H1824 C1830 0.930 . S
H1825 C1833 0.930 . S
H1826 C1834 0.930 . S
H1827 C1835 0.930 . S
H1828 C1838 0.930 . S
H1829 C1839 0.930 . S
C1830 H1824 0.930 . S
C1830 C1831 1.355 . S
C1830 C1832 1.415 . S
C1831 C1830 1.355 . S
C1831 C1833 1.419 . S
C1832 C1830 1.415 . S
C1832 C1837 1.425 . S
C1832 C1839 1.409 . S
C1833 H1825 0.930 . S
C1833 C1831 1.419 . S
C1833 C1834 1.362 . S
C1834 H1826 0.930 . S
C1834 C1833 1.362 . S
C1834 C1837 1.409 . S
C1835 H1827 0.930 . S
C1835 C1836 1.355 . S
C1835 C1837 1.415 . S
C1836 C1835 1.355 . S
C1836 C1838 1.419 . S
C1837 C1832 1.425 . S
C1837 C1834 1.409 . S
C1837 C1835 1.415 . S
C1838 H1828 0.930 . S
C1838 C1836 1.419 . S
C1838 C1839 1.362 . S
C1839 H1829 0.930 . S
C1839 C1832 1.409 . S
C1839 C1838 1.362 . S
H1840 C1846 0.930 . S
H1841 C1849 0.930 . S
H1842 C1850 0.930 . S
H1843 C1851 0.930 . S
H1844 C1854 0.930 . S
H1845 C1855 0.930 . S
C1846 H1840 0.930 . S
C1846 C1847 1.355 . S
C1846 C1848 1.415 . S
C1847 C1846 1.355 . S
C1847 C1849 1.419 . S
C1848 C1846 1.415 . S
C1848 C1853 1.425 . S
C1848 C1855 1.409 . S
C1849 H1841 0.930 . S
C1849 C1847 1.419 . S
C1849 C1850 1.362 . S
C1850 H1842 0.930 . S
C1850 C1849 1.362 . S
C1850 C1853 1.409 . S
C1851 H1843 0.930 . S
C1851 C1852 1.355 . S
C1851 C1853 1.415 . S
C1852 C1851 1.355 . S
C1852 C1854 1.419 . S
C1853 C1848 1.425 . S
C1853 C1850 1.409 . S
C1853 C1851 1.415 . S
C1854 H1844 0.930 . S
C1854 C1852 1.419 . S
C1854 C1855 1.362 . S
C1855 H1845 0.930 . S
C1855 C1848 1.409 . S
C1855 C1854 1.362 . S
H1856 C1862 0.930 . S
H1857 C1865 0.930 . S
H1858 C1866 0.930 . S
H1859 C1867 0.930 . S
H1860 C1870 0.930 . S
H1861 C1871 0.930 . S
C1862 H1856 0.930 . S
C1862 C1863 1.355 . S
C1862 C1864 1.415 . S
C1863 C1862 1.355 . S
C1863 C1865 1.419 . S
C1864 C1862 1.415 . S
C1864 C1869 1.425 . S
C1864 C1871 1.409 . S
C1865 H1857 0.930 . S
C1865 C1863 1.419 . S
C1865 C1866 1.362 . S
C1866 H1858 0.930 . S
C1866 C1865 1.362 . S
C1866 C1869 1.409 . S
C1867 H1859 0.930 . S
C1867 C1868 1.355 . S
C1867 C1869 1.415 . S
C1868 C1867 1.355 . S
C1868 C1870 1.419 . S
C1869 C1864 1.425 . S
C1869 C1866 1.409 . S
C1869 C1867 1.415 . S
C1870 H1860 0.930 . S
C1870 C1868 1.419 . S
C1870 C1871 1.362 . S
C1871 H1861 0.930 . S
C1871 C1864 1.409 . S
C1871 C1870 1.362 . S
H1872 C1878 0.930 . S
H1873 C1881 0.930 . S
H1874 C1882 0.930 . S
H1875 C1883 0.930 . S
H1876 C1886 0.930 . S
H1877 C1887 0.930 . S
C1878 H1872 0.930 . S
C1878 C1879 1.355 . S
C1878 C1880 1.415 . S
C1879 C1878 1.355 . S
C1879 C1881 1.419 . S
C1880 C1878 1.415 . S
C1880 C1885 1.425 . S
C1880 C1887 1.409 . S
C1881 H1873 0.930 . S
C1881 C1879 1.419 . S
C1881 C1882 1.362 . S
C1882 H1874 0.930 . S
C1882 C1881 1.362 . S
C1882 C1885 1.409 . S
C1883 H1875 0.930 . S
C1883 C1884 1.355 . S
C1883 C1885 1.415 . S
C1884 C1883 1.355 . S
C1884 C1886 1.419 . S
C1885 C1880 1.425 . S
C1885 C1882 1.409 . S
C1885 C1883 1.415 . S
C1886 H1876 0.930 . S
C1886 C1884 1.419 . S
C1886 C1887 1.362 . S
C1887 H1877 0.930 . S
C1887 C1880 1.409 . S
C1887 C1886 1.362 . S
H1888 C1894 0.930 . S
H1889 C1897 0.930 . S
H1890 C1898 0.930 . S
H1891 C1899 0.930 . S
H1892 C1902 0.930 . S
H1893 C1903 0.930 . S
C1894 H1888 0.930 . S
C1894 C1895 1.355 . S
C1894 C1896 1.415 . S
C1895 C1894 1.355 . S
C1895 C1897 1.419 . S
C1896 C1894 1.415 . S
C1896 C1901 1.425 . S
C1896 C1903 1.409 . S
C1897 H1889 0.930 . S
C1897 C1895 1.419 . S
C1897 C1898 1.362 . S
C1898 H1890 0.930 . S
C1898 C1897 1.362 . S
C1898 C1901 1.409 . S
C1899 H1891 0.930 . S
C1899 C1900 1.355 . S
C1899 C1901 1.415 . S
C1900 C1899 1.355 . S
C1900 C1902 1.419 . S
C1901 C1896 1.425 . S
C1901 C1898 1.409 . S
C1901 C1899 1.415 . S
C1902 H1892 0.930 . S
C1902 C1900 1.419 . S
C1902 C1903 1.362 . S
C1903 H1893 0.930 . S
C1903 C1896 1.409 . S
C1903 C1902 1.362 . S
H1904 C1910 0.930 . S
H1905 C1913 0.930 . S
H1906 C1914 0.930 . S
H1907 C1915 0.930 . S
H1908 C1918 0.930 . S
H1909 C1919 0.930 . S
C1910 H1904 0.930 . S
C1910 C1911 1.355 . S
C1910 C1912 1.415 . S
C1911 C1910 1.355 . S
C1911 C1913 1.419 . S
C1912 C1910 1.415 . S
C1912 C1917 1.425 . S
C1912 C1919 1.409 . S
C1913 H1905 0.930 . S
C1913 C1911 1.419 . S
C1913 C1914 1.362 . S
C1914 H1906 0.930 . S
C1914 C1913 1.362 . S
C1914 C1917 1.409 . S
C1915 H1907 0.930 . S
C1915 C1916 1.355 . S
C1915 C1917 1.415 . S
C1916 C1915 1.355 . S
C1916 C1918 1.419 . S
C1917 C1912 1.425 . S
C1917 C1914 1.409 . S
C1917 C1915 1.415 . S
C1918 H1908 0.930 . S
C1918 C1916 1.419 . S
C1918 C1919 1.362 . S
C1919 H1909 0.930 . S
C1919 C1912 1.409 . S
C1919 C1918 1.362 . S
H1920 C1926 0.930 . S
H1921 C1929 0.930 . S
H1922 C1930 0.930 . S
H1923 C1931 0.930 . S
H1924 C1934 0.930 . S
H1925 C1935 0.930 . S
C1926 H1920 0.930 . S
C1926 C1927 1.355 . S
C1926 C1928 1.415 . S
C1927 C1926 1.355 . S
C1927 C1929 1.419 . S
C1928 C1926 1.415 . S
C1928 C1933 1.425 . S
C1928 C1935 1.409 . S
C1929 H1921 0.930 . S
C1929 C1927 1.419 . S
C1929 C1930 1.362 . S
C1930 H1922 0.930 . S
C1930 C1929 1.362 . S
C1930 C1933 1.409 . S
C1931 H1923 0.930 . S
C1931 C1932 1.355 . S
C1931 C1933 1.415 . S
C1932 C1931 1.355 . S
C1932 C1934 1.419 . S
C1933 C1928 1.425 . S
C1933 C1930 1.409 . S
C1933 C1931 1.415 . S
C1934 H1924 0.930 . S
C1934 C1932 1.419 . S
C1934 C1935 1.362 . S
C1935 H1925 0.930 . S
C1935 C1928 1.409 . S
C1935 C1934 1.362 . S
H1936 C1942 0.930 . S
H1937 C1945 0.930 . S
H1938 C1946 0.930 . S
H1939 C1947 0.930 . S
H1940 C1950 0.930 . S
H1941 C1951 0.930 . S
C1942 H1936 0.930 . S
C1942 C1943 1.355 . S
C1942 C1944 1.415 . S
C1943 C1942 1.355 . S
C1943 C1945 1.419 . S
C1944 C1942 1.415 . S
C1944 C1949 1.425 . S
C1944 C1951 1.409 . S
C1945 H1937 0.930 . S
C1945 C1943 1.419 . S
C1945 C1946 1.362 . S
C1946 H1938 0.930 . S
C1946 C1945 1.362 . S
C1946 C1949 1.409 . S
C1947 H1939 0.930 . S
C1947 C1948 1.355 . S
C1947 C1949 1.415 . S
C1948 C1947 1.355 . S
C1948 C1950 1.419 . S
C1949 C1944 1.425 . S
C1949 C1946 1.409 . S
C1949 C1947 1.415 . S
C1950 H1940 0.930 . S
C1950 C1948 1.419 . S
C1950 C1951 1.362 . S
C1951 H1941 0.930 . S
C1951 C1944 1.409 . S
C1951 C1950 1.362 . S
H1952 C1958 0.930 . S
H1953 C1961 0.930 . S
H1954 C1962 0.930 . S
H1955 C1963 0.930 . S
H1956 C1966 0.930 . S
H1957 C1967 0.930 . S
C1958 H1952 0.930 . S
C1958 C1959 1.355 . S
C1958 C1960 1.415 . S
C1959 C1958 1.355 . S
C1959 C1961 1.419 . S
C1960 C1958 1.415 . S
C1960 C1965 1.425 . S
C1960 C1967 1.409 . S
C1961 H1953 0.930 . S
C1961 C1959 1.419 . S
C1961 C1962 1.362 . S
C1962 H1954 0.930 . S
C1962 C1961 1.362 . S
C1962 C1965 1.409 . S
C1963 H1955 0.930 . S
C1963 C1964 1.355 . S
C1963 C1965 1.415 . S
C1964 C1963 1.355 . S
C1964 C1966 1.419 . S
C1965 C1960 1.425 . S
C1965 C1962 1.409 . S
C1965 C1963 1.415 . S
C1966 H1956 0.930 . S
C1966 C1964 1.419 . S
C1966 C1967 1.362 . S
C1967 H1957 0.930 . S
C1967 C1960 1.409 . S
C1967 C1966 1.362 . S
H1968 C1974 0.930 . S
H1969 C1977 0.930 . S
H1970 C1978 0.930 . S
H1971 C1979 0.930 . S
H1972 C1982 0.930 . S
H1973 C1983 0.930 . S
C1974 H1968 0.930 . S
C1974 C1975 1.355 . S
C1974 C1976 1.415 . S
C1975 C1974 1.355 . S
C1975 C1977 1.419 . S
C1976 C1974 1.415 . S
C1976 C1981 1.425 . S
C1976 C1983 1.409 . S
C1977 H1969 0.930 . S
C1977 C1975 1.419 . S
C1977 C1978 1.362 . S
C1978 H1970 0.930 . S
C1978 C1977 1.362 . S
C1978 C1981 1.409 . S
C1979 H1971 0.930 . S
C1979 C1980 1.355 . S
C1979 C1981 1.415 . S
C1980 C1979 1.355 . S
C1980 C1982 1.419 . S
C1981 C1976 1.425 . S
C1981 C1978 1.409 . S
C1981 C1979 1.415 . S
C1982 H1972 0.930 . S
C1982 C1980 1.419 . S
C1982 C1983 1.362 . S
C1983 H1973 0.930 . S
C1983 C1976 1.409 . S
C1983 C1982 1.362 . S
H1984 C1990 0.930 . S
H1985 C1993 0.930 . S
H1986 C1994 0.930 . S
H1987 C1995 0.930 . S
H1988 C1998 0.930 . S
H1989 C1999 0.930 . S
C1990 H1984 0.930 . S
C1990 C1991 1.355 . S
C1990 C1992 1.415 . S
C1991 C1990 1.355 . S
C1991 C1993 1.419 . S
C1992 C1990 1.415 . S
C1992 C1997 1.425 . S
C1992 C1999 1.409 . S
C1993 H1985 0.930 . S
C1993 C1991 1.419 . S
C1993 C1994 1.362 . S
C1994 H1986 0.930 . S
C1994 C1993 1.362 . S
C1994 C1997 1.409 . S
C1995 H1987 0.930 . S
C1995 C1996 1.355 . S
C1995 C1997 1.415 . S
C1996 C1995 1.355 . S
C1996 C1998 1.419 . S
C1997 C1992 1.425 . S
C1997 C1994 1.409 . S
C1997 C1995 1.415 . S
C1998 H1988 0.930 . S
C1998 C1996 1.419 . S
C1998 C1999 1.362 . S
C1999 H1989 0.930 . S
C1999 C1992 1.409 . S
C1999 C1998 1.362 . S
H2000 C2006 0.930 . S
H2001 C2009 0.930 . S
H2002 C2010 0.930 . S
H2003 C2011 0.930 . S
H2004 C2014 0.930 . S
H2005 C2015 0.930 . S
C2006 H2000 0.930 . S
C2006 C2007 1.355 . S
C2006 C2008 1.415 . S
C2007 C2006 1.355 . S
C2007 C2009 1.419 . S
C2008 C2006 1.415 . S
C2008 C2013 1.425 . S
C2008 C2015 1.409 . S
C2009 H2001 0.930 . S
C2009 C2007 1.419 . S
C2009 C2010 1.362 . S
C2010 H2002 0.930 . S
C2010 C2009 1.362 . S
C2010 C2013 1.409 . S
C2011 H2003 0.930 . S
C2011 C2012 1.355 . S
C2011 C2013 1.415 . S
C2012 C2011 1.355 . S
C2012 C2014 1.419 . S
C2013 C2008 1.425 . S
C2013 C2010 1.409 . S
C2013 C2011 1.415 . S
C2014 H2004 0.930 . S
C2014 C2012 1.419 . S
C2014 C2015 1.362 . S
C2015 H2005 0.930 . S
C2015 C2008 1.409 . S
C2015 C2014 1.362 . S
H2016 C2022 0.930 . S
H2017 C2025 0.930 . S
H2018 C2026 0.930 . S
H2019 C2027 0.930 . S
H2020 C2030 0.930 . S
H2021 C2031 0.930 . S
C2022 H2016 0.930 . S
C2022 C2023 1.355 . S
C2022 C2024 1.415 . S
C2023 C2022 1.355 . S
C2023 C2025 1.419 . S
C2024 C2022 1.415 . S
C2024 C2029 1.425 . S
C2024 C2031 1.409 . S
C2025 H2017 0.930 . S
C2025 C2023 1.419 . S
C2025 C2026 1.362 . S
C2026 H2018 0.930 . S
C2026 C2025 1.362 . S
C2026 C2029 1.409 . S
C2027 H2019 0.930 . S
C2027 C2028 1.355 . S
C2027 C2029 1.415 . S
C2028 C2027 1.355 . S
C2028 C2030 1.419 . S
C2029 C2024 1.425 . S
C2029 C2026 1.409 . S
C2029 C2027 1.415 . S
C2030 H2020 0.930 . S
C2030 C2028 1.419 . S
C2030 C2031 1.362 . S
C2031 H2021 0.930 . S
C2031 C2024 1.409 . S
C2031 C2030 1.362 . S
H2032 C2038 0.930 . S
H2033 C2041 0.930 1_565 S
H2034 C2042 0.930 . S
H2035 C2043 0.930 . S
H2036 C2046 0.930 . S
H2037 C2047 0.930 . S
C2038 H2032 0.930 . S
C2038 C2039 1.355 . S
C2038 C2040 1.415 . S
C2039 C2038 1.355 . S
C2039 C2041 1.419 . S
C2040 C2038 1.415 . S
C2040 C2045 1.425 . S
C2040 C2047 1.409 . S
C2041 H2033 0.930 1_545 S
C2041 C2039 1.419 . S
C2041 C2042 1.362 . S
C2042 H2034 0.930 . S
C2042 C2041 1.362 . S
C2042 C2045 1.409 . S
C2043 H2035 0.930 . S
C2043 C2044 1.355 . S
C2043 C2045 1.415 . S
C2044 C2043 1.355 . S
C2044 C2046 1.419 . S
C2045 C2040 1.425 . S
C2045 C2042 1.409 . S
C2045 C2043 1.415 . S
C2046 H2036 0.930 . S
C2046 C2044 1.419 . S
C2046 C2047 1.362 . S
C2047 H2037 0.930 . S
C2047 C2040 1.409 . S
C2047 C2046 1.362 . S
H2048 C2054 0.930 . S
H2049 C2057 0.930 . S
H2050 C2058 0.930 . S
H2051 C2059 0.930 . S
H2052 C2062 0.930 . S
H2053 C2063 0.930 . S
C2054 H2048 0.930 . S
C2054 C2055 1.355 . S
C2054 C2056 1.415 . S
C2055 C2054 1.355 . S
C2055 C2057 1.419 . S
C2056 C2054 1.415 . S
C2056 C2061 1.425 . S
C2056 C2063 1.409 . S
C2057 H2049 0.930 . S
C2057 C2055 1.419 . S
C2057 C2058 1.362 . S
C2058 H2050 0.930 . S
C2058 C2057 1.362 . S
C2058 C2061 1.409 . S
C2059 H2051 0.930 . S
C2059 C2060 1.355 . S
C2059 C2061 1.415 . S
C2060 C2059 1.355 . S
C2060 C2062 1.419 . S
C2061 C2056 1.425 . S
C2061 C2058 1.409 . S
C2061 C2059 1.415 . S
C2062 H2052 0.930 . S
C2062 C2060 1.419 . S
C2062 C2063 1.362 . S
C2063 H2053 0.930 . S
C2063 C2056 1.409 . S
C2063 C2062 1.362 . S
H2064 C2070 0.930 . S
H2065 C2073 0.930 . S
H2066 C2074 0.930 . S
H2067 C2075 0.930 . S
H2068 C2078 0.930 . S
H2069 C2079 0.930 . S
C2070 H2064 0.930 . S
C2070 C2071 1.355 . S
C2070 C2072 1.415 . S
C2071 C2070 1.355 . S
C2071 C2073 1.419 . S
C2072 C2070 1.415 . S
C2072 C2077 1.425 . S
C2072 C2079 1.409 . S
C2073 H2065 0.930 . S
C2073 C2071 1.419 . S
C2073 C2074 1.362 . S
C2074 H2066 0.930 . S
C2074 C2073 1.362 . S
C2074 C2077 1.409 . S
C2075 H2067 0.930 . S
C2075 C2076 1.355 . S
C2075 C2077 1.415 . S
C2076 C2075 1.355 . S
C2076 C2078 1.419 . S
C2077 C2072 1.425 . S
C2077 C2074 1.409 . S
C2077 C2075 1.415 . S
C2078 H2068 0.930 . S
C2078 C2076 1.419 . S
C2078 C2079 1.362 . S
C2079 H2069 0.930 . S
C2079 C2072 1.409 . S
C2079 C2078 1.362 . S
H2080 C2086 0.930 . S
H2081 C2089 0.930 . S
H2082 C2090 0.930 . S
H2083 C2091 0.930 . S
H2084 C2094 0.930 . S
H2085 C2095 0.930 . S
C2086 H2080 0.930 . S
C2086 C2087 1.355 . S
C2086 C2088 1.415 . S
C2087 C2086 1.355 . S
C2087 C2089 1.419 . S
C2088 C2086 1.415 . S
C2088 C2093 1.425 . S
C2088 C2095 1.409 . S
C2089 H2081 0.930 . S
C2089 C2087 1.419 . S
C2089 C2090 1.362 . S
C2090 H2082 0.930 . S
C2090 C2089 1.362 . S
C2090 C2093 1.409 . S
C2091 H2083 0.930 . S
C2091 C2092 1.355 . S
C2091 C2093 1.415 . S
C2092 C2091 1.355 . S
C2092 C2094 1.419 . S
C2093 C2088 1.425 . S
C2093 C2090 1.409 . S
C2093 C2091 1.415 . S
C2094 H2084 0.930 . S
C2094 C2092 1.419 . S
C2094 C2095 1.362 . S
C2095 H2085 0.930 . S
C2095 C2088 1.409 . S
C2095 C2094 1.362 . S
H2096 C2102 0.930 . S
H2097 C2105 0.930 . S
H2098 C2106 0.930 . S
H2099 C2107 0.930 . S
H2100 C2110 0.930 . S
H2101 C2111 0.930 . S
C2102 H2096 0.930 . S
C2102 C2103 1.355 . S
C2102 C2104 1.415 . S
C2103 C2102 1.355 . S
C2103 C2105 1.419 . S
C2104 C2102 1.415 . S
C2104 C2109 1.425 . S
C2104 C2111 1.409 . S
C2105 H2097 0.930 . S
C2105 C2103 1.419 . S
C2105 C2106 1.362 . S
C2106 H2098 0.930 . S
C2106 C2105 1.362 . S
C2106 C2109 1.409 . S
C2107 H2099 0.930 . S
C2107 C2108 1.355 . S
C2107 C2109 1.415 . S
C2108 C2107 1.355 . S
C2108 C2110 1.419 . S
C2109 C2104 1.425 . S
C2109 C2106 1.409 . S
C2109 C2107 1.415 . S
C2110 H2100 0.930 . S
C2110 C2108 1.419 . S
C2110 C2111 1.362 . S
C2111 H2101 0.930 . S
C2111 C2104 1.409 . S
C2111 C2110 1.362 . S
C1351 C67 1.483 . S
C1356 C823 1.508 . S
C1367 C151 1.497 . S
C1372 C739 1.479 . S
C1383 C991 1.476 . S
C1388 C235 1.502 . S
C1399 C319 1.477 . S
C1404 C907 1.501 . S
C1415 C1148 1.478 . S
C1420 C392 1.498 . S
C1431 C1064 1.489 . S
C1436 C476 1.485 . S
C1447 C1316 1.507 . S
C1452 C560 1.477 . S
C1463 C644 1.490 . S
C1468 C1232 1.484 . S
C1479 C242 1.666 . S
C1484 C74 1.669 . S
C1495 C326 1.663 . S
C1500 C158 1.660 . S
C1511 C567 1.661 . S
C1516 C399 1.661 . S
C1527 C483 1.669 . S
C1532 C651 1.664 . S
C1543 C914 1.660 . S
C1548 C746 1.662 . S
C1559 C998 1.669 . S
C1564 C830 1.666 . S
C1575 C1071 1.662 . S
C1580 C1239 1.669 . S
C1591 C1155 1.669 . S
C1596 C1323 1.663 . S
C1607 C494 1.662 . S
C1612 C63 1.693 . S
C1623 C410 1.643 . S
C1628 C147 1.712 . S
C1639 C231 1.682 . S
C1644 C662 1.674 . S
C1655 C578 1.682 . S
C1660 C315 1.673 . S
C1671 C735 1.688 . S
C1676 C1166 1.667 . S
C1687 C1082 1.673 . S
C1692 C819 1.682 . S
C1703 C903 1.703 . S
C1708 C1334 1.652 . S
C1719 C1250 1.680 . S
C1724 C987 1.676 . S
C1735 C140 1.496 . S
C1740 C56 1.493 . S
C1751 C308 1.498 . S
C1756 C224 1.490 . S
C1767 C487 1.504 . S
C1772 C403 1.482 . S
C1783 C571 1.485 . S
C1788 C655 1.504 . S
C1799 C812 1.507 . S
C1804 C728 1.481 . S
C1815 C980 1.489 . S
C1820 C896 1.497 . S
C1831 C1075 1.506 . S
C1836 C1159 1.482 . S
C1847 C1243 1.482 . S
C1852 C1327 1.505 . S
C1863 C69 1.357 . S
C1868 C58 1.357 . S
C1879 C153 1.368 . S
C1884 C142 1.368 . S
C1895 C237 1.433 . S
C1900 C226 1.433 . S
C1911 C310 1.434 . S
C1916 C321 1.434 . S
C1927 C394 1.328 . S
C1932 C405 1.328 . S
C1943 C489 1.339 . S
C1948 C478 1.339 . S
C1959 C562 1.322 . S
C1964 C573 1.322 . S
C1975 C646 1.337 . S
C1980 C657 1.337 . S
C1991 C730 1.323 1_545 S
C1996 C741 1.323 . S
C2007 C825 1.372 . S
C2012 C814 1.372 1_565 S
C2023 C898 1.325 1_565 S
C2028 C909 1.325 . S
C2039 C982 1.326 1_545 S
C2044 C993 1.326 . S
C2055 C1066 1.434 . S
C2060 C1077 1.434 1_565 S
C2071 C1150 1.423 . S
C2076 C1161 1.423 1_545 S
C2087 C1245 1.367 1_545 S
C2092 C1234 1.367 . S
C2103 C1318 1.415 . S
C2108 C1329 1.415 1_565 S
