# Generated by pormake.
# Topology smt, (6)-cn, num edge types: 1
# Building blocks:
#     Node 0, Type 0, BuildingBlock: VOLQOD_clean_sbu_1, # of connection points: 6
#     Node 1, Type 0, BuildingBlock: VOLQOD_clean_sbu_1, # of connection points: 6
#     Node 2, Type 0, BuildingBlock: VOLQOD_clean_sbu_1, # of connection points: 6
#     Node 3, Type 0, BuildingBlock: VOLQOD_clean_sbu_1, # of connection points: 6
#     Node 4, Type 0, BuildingBlock: VOLQOD_clean_sbu_1, # of connection points: 6
#     Node 5, Type 0, BuildingBlock: VOLQOD_clean_sbu_1, # of connection points: 6
#     Edge 6, Type (0, 0), BuildingBlock: FUNLAD_clean_linker_0, # of connection points: 2
#     Edge 7, Type (0, 0), BuildingBlock: FUNLAD_clean_linker_0, # of connection points: 2
#     Edge 8, Type (0, 0), BuildingBlock: FUNLAD_clean_linker_0, # of connection points: 2
#     Edge 9, Type (0, 0), BuildingBlock: FUNLAD_clean_linker_0, # of connection points: 2
#     Edge 10, Type (0, 0), BuildingBlock: FUNLAD_clean_linker_0, # of connection points: 2
#     Edge 11, Type (0, 0), BuildingBlock: FUNLAD_clean_linker_0, # of connection points: 2
#     Edge 12, Type (0, 0), BuildingBlock: FUNLAD_clean_linker_0, # of connection points: 2
#     Edge 13, Type (0, 0), BuildingBlock: FUNLAD_clean_linker_0, # of connection points: 2
#     Edge 14, Type (0, 0), BuildingBlock: FUNLAD_clean_linker_0, # of connection points: 2
#     Edge 15, Type (0, 0), BuildingBlock: FUNLAD_clean_linker_0, # of connection points: 2
#     Edge 16, Type (0, 0), BuildingBlock: FUNLAD_clean_linker_0, # of connection points: 2
#     Edge 17, Type (0, 0), BuildingBlock: FUNLAD_clean_linker_0, # of connection points: 2
#     Edge 18, Type (0, 0), BuildingBlock: FUNLAD_clean_linker_0, # of connection points: 2
#     Edge 19, Type (0, 0), BuildingBlock: FUNLAD_clean_linker_0, # of connection points: 2
#     Edge 20, Type (0, 0), BuildingBlock: FUNLAD_clean_linker_0, # of connection points: 2
#     Edge 21, Type (0, 0), BuildingBlock: FUNLAD_clean_linker_0, # of connection points: 2
#     Edge 22, Type (0, 0), BuildingBlock: FUNLAD_clean_linker_0, # of connection points: 2
#     Edge 23, Type (0, 0), BuildingBlock: FUNLAD_clean_linker_0, # of connection points: 2
# Relax obj value: 0.336
# Max RMSD: 0.251
# Mean RMSD: 0.251
data_MOF--net-smt--node1-VOLQOD_clean_sbu_1--edge1-FUNLAD_clean_linker_0
_symmetry_space_group_name_H-M    P1
_symmetry_Int_Tables_number       1
_symmetry_cell_setting            triclinic
loop_
_symmetry_equiv_pos_as_xyz
'x, y, z'
_cell_length_a     42.035003
_cell_length_b     41.902195
_cell_length_c     31.030627
_cell_angle_alpha  90.00535
_cell_angle_beta   89.835995
_cell_angle_gamma 120.04939
loop_
_atom_site_label
_atom_site_type_symbol
_atom_site_fract_x
_atom_site_fract_y
_atom_site_fract_z
_atom_type_partial_charge
O0 O 0.4482 0.03643 0.05126 0.0
Zn1 Zn 0.46436 0.07732 0.00801 0.0
O2 O 0.42989 0.09528 0.00469 0.0
Zn3 Zn 0.40908 0.0876 0.94693 0.0
Zn4 Zn 0.39119 0.06863 0.04595 0.0
Zn5 Zn 0.45447 0.14716 0.01943 0.0
O6 O 0.42002 0.13578 0.91982 0.0
O7 O 0.45984 0.17645 0.96633 0.0
O8 O 0.47311 0.06172 0.95022 0.0
O9 O 0.43469 0.06919 0.90815 0.0
O10 O 0.35458 0.04963 0.9466 0.0
O11 O 0.3453 0.03446 0.01591 0.0
O12 O 0.37972 0.10192 0.07968 0.0
O13 O 0.51279 0.1168 0.03042 0.0
O14 O 0.42487 0.1578 0.06219 0.0
O15 O 0.50471 0.16426 0.04396 0.0
C16 C 0.42541 0.02667 0.0824 0.0
C17 C 0.44333 0.16885 0.93019 0.0
C18 C 0.33366 0.03028 0.97743 0.0
C19 C 0.45943 0.06049 0.9133 0.0
C20 C 0.39552 0.13676 0.08295 0.0
C21 C 0.52459 0.14924 0.04478 0.0
O22 O 0.40337 0.03902 0.08608 0.0
O23 O 0.40417 0.45841 0.23595 0.0
Zn24 Zn 0.3814 0.47128 0.18628 0.0
O25 O 0.32844 0.43768 0.18448 0.0
Zn26 Zn 0.31308 0.41267 0.12921 0.0
Zn27 Zn 0.3149 0.40093 0.22866 0.0
Zn28 Zn 0.30285 0.46452 0.19535 0.0
O29 O 0.27948 0.42602 0.09754 0.0
O30 O 0.28052 0.46886 0.14061 0.0
O31 O 0.40519 0.47213 0.12896 0.0
O32 O 0.35714 0.43103 0.0913 0.0
O33 O 0.29176 0.35749 0.13444 0.0
O34 O 0.30297 0.3529 0.2033 0.0
O35 O 0.26911 0.39138 0.25852 0.0
O36 O 0.39225 0.52277 0.19975 0.0
O37 O 0.26109 0.43745 0.2374 0.0
O38 O 0.3376 0.51598 0.21552 0.0
C39 C 0.38986 0.43723 0.26845 0.0
C40 C 0.27149 0.45107 0.10529 0.0
C41 C 0.29212 0.33852 0.16634 0.0
C42 C 0.3913 0.45426 0.09424 0.0
C43 C 0.25086 0.40803 0.25901 0.0
C44 C 0.37244 0.53594 0.21292 0.0
O45 O 0.35538 0.41517 0.271 0.0
O46 O 0.93935 0.41266 0.38343 0.0
Zn47 Zn 0.89794 0.38799 0.34119 0.0
O48 O 0.87711 0.33495 0.34071 0.0
Zn49 Zn 0.88332 0.31858 0.28391 0.0
Zn50 Zn 0.90267 0.32264 0.38288 0.0
Zn51 Zn 0.82543 0.31069 0.35664 0.0
O52 O 0.83421 0.28219 0.25844 0.0
O53 O 0.79521 0.28499 0.30479 0.0
O54 O 0.9149 0.40981 0.28252 0.0
O55 O 0.90462 0.36144 0.24296 0.0
O56 O 0.91885 0.29903 0.28514 0.0
O57 O 0.9349 0.30755 0.35404 0.0
O58 O 0.86827 0.27976 0.41833 0.0
O59 O 0.86058 0.4007 0.36153 0.0
O60 O 0.81327 0.27121 0.40159 0.0
O61 O 0.81089 0.34734 0.37768 0.0
C62 C 0.94868 0.39982 0.41506 0.0
C63 C 0.8017 0.274 0.2693 0.0
C64 C 0.93807 0.29793 0.3162 0.0
C65 C 0.91564 0.39568 0.2465 0.0
C66 C 0.83355 0.26206 0.42247 0.0
C67 C 0.82794 0.38247 0.37611 0.0
O68 O 0.93454 0.36527 0.42071 0.0
O69 O 0.53075 0.96026 0.54432 0.0
Zn70 Zn 0.51141 0.91991 0.49989 0.0
O71 O 0.53802 0.89347 0.50023 0.0
Zn72 Zn 0.5645 0.90013 0.44662 0.0
Zn73 Zn 0.57168 0.91198 0.54731 0.0
Zn74 Zn 0.50484 0.84184 0.5095 0.0
O75 O 0.55036 0.85088 0.41879 0.0
O76 O 0.49834 0.81505 0.45434 0.0
O77 O 0.51071 0.93858 0.44056 0.0
O78 O 0.54809 0.92499 0.40434 0.0
O79 O 0.6194 0.93384 0.4549 0.0
O80 O 0.6214 0.94634 0.52476 0.0
O81 O 0.57508 0.8716 0.57665 0.0
O82 O 0.45966 0.88654 0.5192 0.0
O83 O 0.52723 0.82138 0.55023 0.0
O84 O 0.45579 0.83247 0.53147 0.0
C85 C 0.5447 0.96064 0.58088 0.0
C86 C 0.52022 0.82043 0.42311 0.0
C87 C 0.63718 0.95138 0.48835 0.0
C88 C 0.52675 0.93833 0.40577 0.0
C89 C 0.55564 0.83671 0.57405 0.0
C90 C 0.44174 0.85326 0.5321 0.0
O91 O 0.55816 0.93993 0.58858 0.0
O92 O 0.57312 0.52077 0.73455 0.0
Zn93 Zn 0.59641 0.50987 0.68372 0.0
O94 O 0.6491 0.54449 0.68157 0.0
Zn95 Zn 0.66322 0.56749 0.62515 0.0
Zn96 Zn 0.66126 0.58247 0.72395 0.0
Zn97 Zn 0.6762 0.51952 0.69525 0.0
O98 O 0.69896 0.5558 0.59567 0.0
O99 O 0.70352 0.51829 0.64287 0.0
O100 O 0.57134 0.50821 0.62735 0.0
O101 O 0.61918 0.54685 0.58735 0.0
O102 O 0.68108 0.62208 0.6277 0.0
O103 O 0.67012 0.62875 0.69622 0.0
O104 O 0.7074 0.59479 0.75452 0.0
O105 O 0.58729 0.45916 0.69639 0.0
O106 O 0.7148 0.547 0.74033 0.0
O107 O 0.64199 0.46726 0.71432 0.0
C108 C 0.587 0.5428 0.7663 0.0
C109 C 0.71115 0.53457 0.60649 0.0
C110 C 0.67963 0.64161 0.65832 0.0
C111 C 0.58494 0.52447 0.59163 0.0
C112 C 0.72485 0.57756 0.75921 0.0
C113 C 0.60731 0.44664 0.71055 0.0
O114 O 0.62098 0.56697 0.7672 0.0
O115 O 0.04252 0.564 0.88266 0.0
Zn116 Zn 0.08203 0.59035 0.83821 0.0
O117 O 0.09803 0.64252 0.83593 0.0
Zn118 Zn 0.0867 0.65508 0.77971 0.0
Zn119 Zn 0.07226 0.65306 0.88005 0.0
Zn120 Zn 0.15051 0.67143 0.84718 0.0
O121 O 0.13284 0.69172 0.74915 0.0
O122 O 0.17709 0.69692 0.79284 0.0
O123 O 0.06442 0.56614 0.78083 0.0
O124 O 0.06538 0.61079 0.74136 0.0
O125 O 0.05001 0.67294 0.78377 0.0
O126 O 0.03725 0.66565 0.85371 0.0
O127 O 0.10602 0.6976 0.91364 0.0
O128 O 0.12327 0.583 0.85714 0.0
O129 O 0.16147 0.71135 0.8905 0.0
O130 O 0.17019 0.63927 0.86886 0.0
C131 C 0.03212 0.57583 0.91438 0.0
C132 C 0.16668 0.70401 0.75738 0.0
C133 C 0.03203 0.67424 0.81621 0.0
C134 C 0.05895 0.57786 0.74538 0.0
C135 C 0.14072 0.71819 0.91399 0.0
C136 C 0.15609 0.60434 0.86955 0.0
O137 O 0.04355 0.61005 0.91915 0.0
C138 C 0.28564 0.98512 0.92702 0.0
C139 C 0.29635 -0.00062 0.9688 0.0
C140 C 0.25416 0.95069 0.92103 0.0
C141 C 0.23348 0.93019 0.95675 0.0
C142 C 0.24191 0.94619 -0.0022 0.0
C143 C 0.27299 0.98057 0.00375 0.0
C144 C 0.20697 0.89059 0.95179 0.0
C145 C 0.20938 0.8659 0.97726 0.0
C146 C 0.18999 0.82639 0.96679 0.0
C147 C 0.20974 0.80758 0.96599 0.0
C148 C 0.19333 0.77154 0.95042 0.0
C149 C 0.15659 0.75356 0.93688 0.0
H150 H 0.13702 0.8219 0.95614 0.0
C151 C 0.1361 0.77159 0.94077 0.0
C152 C 0.15282 0.80794 0.95513 0.0
H153 H 0.10773 0.75838 0.93035 0.0
H154 H 0.30289 -0.00083 0.89944 0.0
H155 H 0.24776 0.93879 0.88903 0.0
H156 H 0.22574 0.9311 0.02564 0.0
H157 H 0.27996 0.99124 0.03626 0.0
H158 H 0.18967 0.88143 0.92329 0.0
H159 H 0.23011 0.87537 0.00241 0.0
H160 H 0.23845 0.82146 0.97514 0.0
H161 H 0.20961 0.75815 0.94781 0.0
C162 C 0.28012 0.28545 0.11843 0.0
C163 C 0.28371 0.30015 0.16002 0.0
C164 C 0.28032 0.25248 0.11252 0.0
C165 C 0.28448 0.23417 0.14801 0.0
C166 C 0.2841 0.24675 0.18977 0.0
C167 C 0.28364 0.27943 0.19573 0.0
C168 C 0.29465 0.20565 0.14059 0.0
C169 C 0.32335 0.20722 0.16163 0.0
C170 C 0.34147 0.18699 0.14637 0.0
C171 C 0.37996 0.20563 0.14387 0.0
C172 C 0.39783 0.18897 0.12426 0.0
C173 C 0.37744 0.153 0.10805 0.0
H174 H 0.29139 0.13543 0.13408 0.0
C175 C 0.33902 0.13349 0.11315 0.0
C176 C 0.32111 0.1505 0.13182 0.0
H177 H 0.32262 0.10568 0.10094 0.0
H178 H 0.27963 0.30053 0.09033 0.0
H179 H 0.28021 0.24293 0.08004 0.0
H180 H 0.28632 0.23246 0.21768 0.0
H181 H 0.28548 0.28951 0.2283 0.0
H182 H 0.28317 0.18777 0.11273 0.0
H183 H 0.33761 0.2283 0.18599 0.0
H184 H 0.39611 0.23379 0.15516 0.0
H185 H 0.42748 0.20445 0.12099 0.0
C186 C 0.98212 0.29219 0.2665 0.0
C187 C 0.96815 0.29013 0.30824 0.0
C188 C 0.01624 0.29448 0.26081 0.0
C189 C 0.03672 0.29514 0.29677 0.0
C190 C 0.02095 0.28899 0.33794 0.0
C191 C -0.01314 0.28631 0.34361 0.0
C192 C 0.07606 0.30739 0.29169 0.0
C193 C 0.10111 0.33495 0.3163 0.0
C194 C 0.14068 0.35337 0.30652 0.0
C195 C 0.16126 0.39202 0.30638 0.0
C196 C 0.19778 0.41018 0.29241 0.0
C197 C 0.21445 0.38982 0.27978 0.0
H198 H 0.14242 0.30315 0.29624 0.0
C199 C 0.19444 0.35113 0.28279 0.0
C200 C 0.1577 0.33301 0.29561 0.0
H201 H 0.20657 0.33471 0.27309 0.0
H202 H 0.96816 0.29484 0.23862 0.0
H203 H 0.02793 0.29884 0.22871 0.0
H204 H 0.03599 0.28852 0.36601 0.0
H205 H 0.97643 0.2838 0.37614 0.0
H206 H 0.08477 0.29784 0.26392 0.0
H207 H 0.09212 0.34746 0.3406 0.0
H208 H 0.14855 0.40814 0.31504 0.0
H209 H 0.21266 0.44 0.29049 0.0
C210 C 0.83655 0.20918 0.45462 0.0
C211 C 0.81656 0.22737 0.44728 0.0
C212 C 0.81914 0.17347 0.47122 0.0
C213 C 0.78162 0.15563 0.48148 0.0
C214 C 0.76229 0.17472 0.47733 0.0
C215 C 0.77949 0.2102 0.45978 0.0
C216 C 0.76145 0.11638 0.49373 0.0
C217 C 0.76613 0.09104 0.47236 0.0
C218 C 0.73912 0.05149 0.47717 0.0
C219 C 0.72328 0.03006 0.44025 0.0
C220 C 0.6914 -0.00442 0.44378 0.0
C221 C 0.67542 0.9821 0.48442 0.0
H222 H 0.73798 0.05208 0.54692 0.0
C223 C 0.69408 0.00182 0.52156 0.0
C224 C 0.72555 0.03632 0.51795 0.0
H225 H 0.683 -0.00814 0.55346 0.0
H226 H 0.86521 0.22171 0.4454 0.0
H227 H 0.83474 0.15947 0.47496 0.0
H228 H 0.73333 0.16141 0.48544 0.0
H229 H 0.76352 0.22367 0.45476 0.0
H230 H 0.73855 0.10749 0.51606 0.0
H231 H 0.78601 0.09952 0.4462 0.0
H232 H 0.73371 0.04124 0.4085 0.0
H233 H 0.67793 0.98087 0.41461 0.0
C234 C 0.60524 0.83106 0.61109 0.0
C235 C 0.5699 0.81401 0.59291 0.0
C236 C 0.62238 0.81065 0.61999 0.0
C237 C 0.60426 0.7726 0.61134 0.0
C238 C 0.56798 0.75522 0.59607 0.0
C239 C 0.55093 0.77565 0.58697 0.0
C240 C 0.62262 0.75036 0.61473 0.0
C241 C 0.65526 0.7616 0.6338 0.0
C242 C 0.6701 0.73639 0.63692 0.0
C243 C 0.68281 0.73172 0.67673 0.0
C244 C 0.68905 0.70233 0.68287 0.0
C245 C 0.6833 0.67773 0.64897 0.0
H246 H 0.65928 0.71807 0.57046 0.0
C247 C 0.6748 0.68513 0.6078 0.0
C248 C 0.66806 0.7142 0.60185 0.0
H249 H 0.67044 0.6668 0.58102 0.0
H250 H 0.62065 0.8606 0.61611 0.0
H251 H 0.65034 0.82534 0.63155 0.0
H252 H 0.55322 0.72588 0.58948 0.0
H253 H 0.52361 0.76161 0.5732 0.0
H254 H 0.60799 0.72268 0.60127 0.0
H255 H 0.66935 0.7875 0.65109 0.0
H256 H 0.68508 0.74894 0.70395 0.0
H257 H 0.69612 0.69751 0.71483 0.0
C258 C -0.01201 0.68253 0.76966 0.0
C259 C 0.00216 0.68266 0.81065 0.0
C260 C 0.95507 0.68296 0.7658 0.0
C261 C 0.93591 0.68314 0.80282 0.0
C262 C 0.95196 0.68705 0.84343 0.0
C263 C 0.98482 0.68688 0.84731 0.0
C264 C 0.89736 0.67415 0.79894 0.0
C265 C 0.87135 0.64861 0.82488 0.0
C266 C 0.83208 0.63115 0.81416 0.0
C267 C 0.81051 0.5926 0.8157 0.0
C268 C 0.77484 0.57491 0.79936 0.0
C269 C 0.75997 0.59568 0.7825 0.0
H270 H 0.83271 0.68186 0.79862 0.0
C271 C 0.78068 0.6344 0.78409 0.0
C272 C 0.81665 0.65203 0.79941 0.0
H273 H 0.76988 0.6511 0.77128 0.0
H274 H 0.00097 0.67975 0.74082 0.0
H275 H 0.94321 0.6803 0.73413 0.0
H276 H 0.9381 0.68824 0.87236 0.0
H277 H -0.00447 0.688 0.87933 0.0
H278 H 0.88943 0.68354 0.77041 0.0
H279 H 0.87911 0.6359 0.85021 0.0
H280 H 0.82199 0.5761 0.82724 0.0
H281 H 0.75932 0.54505 0.79875 0.0
C282 C 0.45545 -0.00519 0.11731 0.0
C283 C 0.42784 0.0044 0.11775 0.0
C284 C 0.46223 0.9799 0.15395 0.0
C285 C 0.44158 0.97445 0.19176 0.0
C286 C 0.412 0.98101 0.191 0.0
C287 C 0.40525 -0.00398 0.1544 0.0
C288 C 0.45135 0.96389 0.233 0.0
C289 C 0.48632 0.97443 0.24336 0.0
C290 C 0.49698 0.96677 0.28579 0.0
C291 C 0.52806 0.96273 0.28833 0.0
C292 C 0.5384 0.95453 0.3276 0.0
C293 C 0.51814 0.95081 0.36525 0.0
H294 H 0.45422 0.96885 0.32314 0.0
C295 C 0.488 0.95657 0.36305 0.0
C296 C 0.47748 0.96445 0.32367 0.0
H297 H 0.47196 0.95411 0.39152 0.0
H298 H 0.47293 0.00028 0.08935 0.0
H299 H 0.4842 0.97355 0.15282 0.0
H300 H 0.3953 0.97637 0.21953 0.0
H301 H 0.38343 0.00262 0.15561 0.0
H302 H 0.42948 0.94924 0.25639 0.0
H303 H 0.50822 0.98919 0.22005 0.0
H304 H 0.54387 0.96504 0.25967 0.0
H305 H 0.56195 0.95054 0.32827 0.0
C306 C 0.44972 0.46925 0.30804 0.0
C307 C 0.41312 0.44036 0.30572 0.0
C308 C 0.47017 0.4748 0.34551 0.0
C309 C 0.45434 0.45158 0.38147 0.0
C310 C 0.41859 0.42145 0.37821 0.0
C311 C 0.39806 0.41599 0.34085 0.0
C312 C 0.47419 0.45829 0.42289 0.0
C313 C 0.49886 0.4924 0.43633 0.0
C314 C 0.51931 0.50012 0.47741 0.0
C315 C 0.55367 0.53232 0.4802 0.0
C316 C 0.57452 0.54042 0.51761 0.0
C317 C 0.56124 0.51674 0.55347 0.0
H318 H 0.47846 0.45237 0.51318 0.0
C319 C 0.52619 0.48515 0.55142 0.0
C320 C 0.50539 0.47683 0.51366 0.0
H321 H 0.51516 0.46649 0.57862 0.0
H322 H 0.4623 0.48828 0.28141 0.0
H323 H 0.49823 0.49742 0.34622 0.0
H324 H 0.40601 0.40282 0.4052 0.0
H325 H 0.37005 0.39319 0.33998 0.0
H326 H 0.46725 0.43458 0.44323 0.0
H327 H 0.50531 0.51596 0.41593 0.0
H328 H 0.5648 0.55095 0.45296 0.0
H329 H 0.60127 0.56521 0.51825 0.0
C330 C 0.04438 0.5672 0.66692 0.0
C331 C 0.04702 0.55353 0.7073 0.0
C332 C 0.03517 0.54503 0.63037 0.0
C333 C 0.02855 0.50872 0.63341 0.0
C334 C 0.0302 0.49472 0.67387 0.0
C335 C 0.03957 0.51696 0.71047 0.0
C336 C 0.01781 0.48415 0.59548 0.0
C337 C 0.02762 0.4967 0.5549 0.0
C338 C 0.01227 0.47232 0.51703 0.0
C339 C 0.00597 0.48667 0.47927 0.0
C340 C -0.01326 0.46338 0.44508 0.0
C341 C 0.97381 0.42534 0.44799 0.0
H342 H 0.00767 0.42316 0.5466 0.0
C343 C 0.9827 0.41153 0.48447 0.0
C344 C 0.00183 0.43481 0.51865 0.0
H345 H 0.97378 0.38247 0.48737 0.0
H346 H 0.04967 0.59516 0.66337 0.0
H347 H 0.03267 0.55633 0.60006 0.0
H348 H 0.0246 0.46662 0.6771 0.0
H349 H 0.04121 0.50553 0.74114 0.0
H350 H 0.00045 0.45481 0.60146 0.0
H351 H 0.04492 0.52603 0.54888 0.0
H352 H 0.01426 0.51562 0.47707 0.0
H353 H 0.98075 0.47499 0.41719 0.0
C354 C 0.5526 0.97957 0.65826 0.0
C355 C 0.54111 0.98203 0.61653 0.0
C356 C 0.54392 -0.00534 0.69333 0.0
C357 C 0.52384 0.01294 0.68732 0.0
C358 C 0.514 0.01697 0.64533 0.0
C359 C 0.52262 0.0018 0.61026 0.0
C360 C 0.50955 0.02493 0.72395 0.0
C361 C 0.52295 0.03006 0.76431 0.0
C362 C 0.50591 0.03795 0.80181 0.0
C363 C 0.51481 0.03183 0.84343 0.0
C364 C 0.49923 0.03845 0.87971 0.0
C365 C 0.47437 0.05136 0.8751 0.0
H366 H 0.4744 0.05759 0.76612 0.0
C367 C 0.46548 0.05757 0.8335 0.0
C368 C 0.48125 0.05124 0.79728 0.0
H369 H 0.44691 0.06814 0.82881 0.0
H370 H 0.56683 0.96445 0.66426 0.0
H371 H 0.55142 0.99008 0.72505 0.0
H372 H 0.49851 0.03088 0.63974 0.0
H373 H 0.5134 0.00429 0.57852 0.0
H374 H 0.48603 0.02812 0.71709 0.0
H375 H 0.54666 0.02709 0.77094 0.0
H376 H 0.5338 0.02175 0.84795 0.0
H377 H 0.50684 0.03359 0.91133 0.0
C378 C 0.44913 0.49396 0.0522 0.0
C379 C 0.41419 0.46228 0.05505 0.0
C380 C 0.46858 0.50348 0.01321 0.0
C381 C 0.45352 0.48121 0.97639 0.0
C382 C 0.41909 0.44907 0.97981 0.0
C383 C 0.3997 0.43966 0.01858 0.0
C384 C 0.47164 0.49073 0.93339 0.0
C385 C 0.50747 0.51519 0.92682 0.0
C386 C 0.52536 0.52315 0.88367 0.0
C387 C 0.55936 0.55553 0.87827 0.0
C388 C 0.57861 0.5628 0.83941 0.0
C389 C 0.5643 0.53771 0.80501 0.0
H390 H 0.48503 0.47264 0.85161 0.0
C391 C 0.52974 0.50584 0.80984 0.0
C392 C 0.51057 0.49846 0.84878 0.0
H393 H 0.51813 0.48571 0.78418 0.0
H394 H 0.46089 0.51214 0.07961 0.0
H395 H 0.49466 0.52888 0.01203 0.0
H396 H 0.40682 0.43132 0.95214 0.0
H397 H 0.3729 0.41495 0.01962 0.0
H398 H 0.45429 0.47638 0.90608 0.0
H399 H 0.52488 0.53 0.9539 0.0
H400 H 0.57146 0.575 0.90452 0.0
H401 H 0.60519 0.58764 0.83681 0.0
C402 C -0.00127 0.56251 0.98474 0.0
C403 C 0.00843 0.54966 0.94797 0.0
C404 C 0.98002 0.53864 0.01879 0.0
C405 C 0.97078 0.50146 0.01678 0.0
C406 C 0.97829 0.48808 0.97899 0.0
C407 C -0.00286 0.51197 0.94493 0.0
C408 C 0.95467 0.47638 0.0541 0.0
C409 C 0.96335 0.48836 0.09497 0.0
C410 C 0.95053 0.46372 0.13306 0.0
C411 C 0.95072 0.4789 0.17341 0.0
C412 C 0.93965 0.45692 0.21033 0.0
C413 C 0.92842 0.41926 0.20768 0.0
H414 H 0.94062 0.4136 0.10031 0.0
C415 C 0.92881 0.40415 0.16738 0.0
C416 C 0.93986 0.42614 0.13046 0.0
H417 H 0.92062 0.37529 0.16425 0.0
H418 H 0.00645 0.59125 0.98782 0.0
H419 H 0.97328 0.54953 0.0468 0.0
H420 H 0.97095 0.45939 0.9765 0.0
H421 H 0.00381 0.50109 0.91684 0.0
H422 H 0.93725 0.44723 0.04737 0.0
H423 H 0.98113 0.5176 0.10114 0.0
H424 H 0.95925 0.50787 0.17637 0.0
H425 H 0.93978 0.46948 0.24089 0.0
C426 C 0.48197 0.23475 0.90846 0.0
C427 C 0.45445 0.1987 0.89813 0.0
C428 C 0.49626 0.26212 0.87698 0.0
C429 C 0.48343 0.25407 0.83437 0.0
C430 C 0.45444 0.21874 0.82448 0.0
C431 C 0.4402 0.19114 0.85602 0.0
C432 C 0.49977 0.28252 0.80024 0.0
C433 C 0.53586 0.30783 0.80009 0.0
C434 C 0.55336 0.34014 0.77078 0.0
C435 C 0.59191 0.36118 0.76966 0.0
C436 C 0.60968 0.39493 0.74801 0.0
C437 C 0.58918 0.40843 0.72716 0.0
H438 H 0.50321 0.3378 0.74824 0.0
C439 C 0.55067 0.38638 0.72613 0.0
C440 C 0.53291 0.35269 0.74784 0.0
H441 H 0.534 0.39588 0.71025 0.0
H442 H 0.49326 0.24173 0.94066 0.0
H443 H 0.51755 0.28956 0.88606 0.0
H444 H 0.44365 0.21216 0.79201 0.0
H445 H 0.41884 0.1637 0.84706 0.0
H446 H 0.48186 0.28186 0.77475 0.0
H447 H 0.5536 0.30541 0.8237 0.0
H448 H 0.60836 0.35219 0.78703 0.0
H449 H 0.63939 0.41112 0.74929 0.0
C450 C 0.1606 0.54926 0.89102 0.0
C451 C 0.17663 0.58782 0.88889 0.0
C452 C 0.17716 0.53324 0.91466 0.0
C453 C 0.21039 0.55548 0.93647 0.0
C454 C 0.22732 0.59398 0.93249 0.0
C455 C 0.21071 0.61003 0.90887 0.0
C456 C 0.22606 0.53998 0.96729 0.0
C457 C 0.21615 0.50406 0.96952 0.0
C458 C 0.22873 0.4894 0.00494 0.0
C459 C 0.23409 0.45941 -0.00262 0.0
C460 C 0.24698 0.44601 0.03027 0.0
C461 C 0.2542 0.46213 0.07147 0.0
H462 H 0.22901 0.5265 0.05406 0.0
C463 C 0.24703 0.49097 0.07942 0.0
C464 C 0.2344 0.5044 0.04661 0.0
H465 H 0.2518 0.50376 0.11088 0.0
H466 H 0.13437 0.53129 0.87594 0.0
H467 H 0.1627 0.50353 0.91734 0.0
H468 H 0.25289 0.61179 0.94901 0.0
H469 H 0.22386 0.63981 0.9078 0.0
H470 H 0.24616 0.55913 0.99006 0.0
H471 H 0.199 0.48489 0.94481 0.0
H472 H 0.22921 0.44695 0.96571 0.0
H473 H 0.25202 0.42362 0.02314 0.0
C474 C 0.58208 0.1511 0.06948 0.0
C475 C 0.56097 0.16847 0.06584 0.0
C476 C 0.61443 0.16719 0.0935 0.0
C477 C 0.62654 0.20122 0.11416 0.0
C478 C 0.60611 0.21914 0.10926 0.0
C479 C 0.57372 0.20304 0.08526 0.0
C480 C 0.65827 0.21731 0.14403 0.0
C481 C 0.68446 0.20776 0.14497 0.0
C482 C 0.71383 0.22259 0.17789 0.0
C483 C 0.74883 0.22844 0.1674 0.0
C484 C 0.77733 0.24413 0.19748 0.0
C485 C 0.77108 0.25378 0.23878 0.0
H486 H 0.68007 0.22494 0.22956 0.0
C487 C 0.73547 0.24604 0.24987 0.0
C488 C 0.70716 0.23056 0.21983 0.0
H489 H 0.72949 0.2526 0.28156 0.0
H490 H 0.57302 0.12439 0.05502 0.0
H491 H 0.62877 0.15197 0.09716 0.0
H492 H 0.61474 0.24532 0.12495 0.0
H493 H 0.55816 0.21719 0.08309 0.0
H494 H 0.66007 0.23814 0.16636 0.0
H495 H 0.68545 0.18987 0.12037 0.0
H496 H 0.75442 0.22188 0.13549 0.0
H497 H 0.80439 0.2495 0.18799 0.0
C498 C 0.47469 0.75866 0.39435 0.0
C499 C 0.5094 0.79063 0.39104 0.0
C500 C 0.46345 0.73053 0.36419 0.0
C501 C 0.48651 0.73364 0.32963 0.0
C502 C 0.52157 0.7651 0.32669 0.0
C503 C 0.53285 0.79356 0.35694 0.0
C504 C 0.47492 0.70323 0.29808 0.0
C505 C 0.43933 0.68165 0.28717 0.0
C506 C 0.42403 0.64638 0.263 0.0
C507 C 0.38575 0.6258 0.25747 0.0
C508 C 0.3691 0.5904 0.24006 0.0
C509 C 0.39038 0.57471 0.22752 0.0
H510 H 0.47507 0.64595 0.25197 0.0
C511 C 0.42884 0.59588 0.23105 0.0
C512 C 0.44554 0.6313 0.24869 0.0
H513 H 0.44609 0.58468 0.22143 0.0
H514 H 0.45597 0.7552 0.42035 0.0
H515 H 0.43685 0.70604 0.36862 0.0
H516 H 0.54007 0.7678 0.30075 0.0
H517 H 0.55986 0.81774 0.35365 0.0
H518 H 0.49608 0.69849 0.28488 0.0
H519 H 0.41956 0.6892 0.29878 0.0
H520 H 0.36841 0.63663 0.26802 0.0
H521 H 0.33942 0.57503 0.23744 0.0
C522 C 0.8321 0.44124 0.40052 0.0
C523 C 0.81068 0.40299 0.39376 0.0
C524 C 0.81702 0.4605 0.42036 0.0
C525 C 0.78011 0.44197 0.43367 0.0
C526 C 0.75813 0.40418 0.425 0.0
C527 C 0.77335 0.38472 0.40558 0.0
C528 C 0.76446 0.46126 0.45808 0.0
C529 C 0.78411 0.48667 0.48815 0.0
C530 C 0.76735 0.5021 0.5172 0.0
C531 C 0.77661 0.50628 0.561 0.0
C532 C 0.75894 0.51778 0.58997 0.0
C533 C 0.73258 0.52642 0.57533 0.0
H534 H 0.73477 0.50948 0.46837 0.0
C535 C 0.72483 0.52428 0.53107 0.0
C536 C 0.74182 0.51182 0.50222 0.0
H537 H 0.70452 0.53073 0.51903 0.0
H538 H 0.86088 0.45628 0.39151 0.0
H539 H 0.83438 0.48984 0.42562 0.0
H540 H 0.7295 0.38943 0.43468 0.0
H541 H 0.75604 0.35535 0.40043 0.0
H542 H 0.73531 0.45163 0.45459 0.0
H543 H 0.81207 0.49318 0.49505 0.0
H544 H 0.79646 0.49922 0.5731 0.0
H545 H 0.76552 0.51942 0.62393 0.0
C546 C 0.38131 0.80204 0.55868 0.0
C547 C 0.4053 0.83988 0.55201 0.0
C548 C 0.34865 0.78991 0.58174 0.0
C549 C 0.33966 0.8155 0.5989 0.0
C550 C 0.36318 0.85318 0.59134 0.0
C551 C 0.39547 0.86528 0.56767 0.0
C552 C 0.30826 0.80391 0.62866 0.0
C553 C 0.27711 0.77128 0.62542 0.0
C554 C 0.24855 0.75756 0.65936 0.0
C555 C 0.21158 0.73499 0.64807 0.0
C556 C 0.18458 0.719 0.68002 0.0
C557 C 0.19436 0.72456 0.72381 0.0
H558 H 0.28659 0.78073 0.71291 0.0
C559 C 0.23132 0.74762 0.73507 0.0
C560 C 0.25816 0.76415 0.70317 0.0
H561 H 0.23962 0.75229 0.76857 0.0
H562 H 0.38821 0.78187 0.54706 0.0
H563 H 0.33147 0.76067 0.5879 0.0
H564 H 0.35695 0.87337 0.60459 0.0
H565 H 0.4135 0.89467 0.56334 0.0
H566 H 0.31116 0.82274 0.65446 0.0
H567 H 0.2725 0.75392 0.59741 0.0
H568 H 0.20365 0.72929 0.61452 0.0
H569 H 0.15631 0.70105 0.67042 0.0
loop_
_geom_bond_atom_site_label_1
_geom_bond_atom_site_label_2
_geom_bond_distance
_geom_bond_site_symmetry_2
_ccdc_geom_bond_type
O0 Zn1 1.953 . S
O0 C16 1.225 . S
Zn1 O0 1.953 . S
Zn1 O2 1.949 . S
Zn1 O8 1.919 1_554 S
Zn1 O13 1.924 . S
O2 Zn1 1.949 . S
O2 Zn3 1.923 1_554 S
O2 Zn4 1.950 . S
O2 Zn5 1.945 . S
Zn3 O2 1.923 1_556 S
Zn3 O6 1.933 . S
Zn3 O9 1.941 . S
Zn3 O10 1.965 . S
Zn4 O2 1.950 . S
Zn4 O11 1.938 . S
Zn4 O12 1.906 . S
Zn4 O22 1.953 . S
Zn5 O2 1.945 . S
Zn5 O7 1.932 1_554 S
Zn5 O14 1.977 . S
Zn5 O15 1.910 . S
O6 Zn3 1.933 . S
O6 C17 1.226 . S
O7 Zn5 1.932 1_556 S
O7 C17 1.307 . S
O8 Zn1 1.919 1_556 S
O8 C19 1.253 . S
O9 Zn3 1.941 . S
O9 C19 1.283 . S
O10 Zn3 1.965 . S
O10 C18 1.303 . S
O11 Zn4 1.938 . S
O11 C18 1.247 1_554 S
O12 Zn4 1.906 . S
O12 C20 1.304 . S
O13 Zn1 1.924 . S
O13 C21 1.311 . S
O14 Zn5 1.977 . S
O14 C20 1.272 . S
O15 Zn5 1.910 . S
O15 C21 1.231 . S
C16 O0 1.225 . S
C16 O22 1.298 . S
C17 O6 1.226 . S
C17 O7 1.307 . S
C18 O10 1.303 . S
C18 O11 1.247 1_556 S
C19 O8 1.253 . S
C19 O9 1.283 . S
C20 O12 1.304 . S
C20 O14 1.272 . S
C21 O13 1.311 . S
C21 O15 1.231 . S
O22 Zn4 1.953 . S
O22 C16 1.298 . S
O23 Zn24 1.953 . S
O23 C39 1.225 . S
Zn24 O23 1.953 . S
Zn24 O25 1.949 . S
Zn24 O31 1.919 . S
Zn24 O36 1.924 . S
O25 Zn24 1.949 . S
O25 Zn26 1.923 . S
O25 Zn27 1.950 . S
O25 Zn28 1.945 . S
Zn26 O25 1.923 . S
Zn26 O29 1.933 . S
Zn26 O32 1.941 . S
Zn26 O33 1.965 . S
Zn27 O25 1.950 . S
Zn27 O34 1.938 . S
Zn27 O35 1.906 . S
Zn27 O45 1.953 . S
Zn28 O25 1.945 . S
Zn28 O30 1.932 . S
Zn28 O37 1.977 . S
Zn28 O38 1.910 . S
O29 Zn26 1.933 . S
O29 C40 1.226 . S
O30 Zn28 1.932 . S
O30 C40 1.307 . S
O31 Zn24 1.919 . S
O31 C42 1.253 . S
O32 Zn26 1.941 . S
O32 C42 1.283 . S
O33 Zn26 1.965 . S
O33 C41 1.303 . S
O34 Zn27 1.938 . S
O34 C41 1.247 . S
O35 Zn27 1.906 . S
O35 C43 1.304 . S
O36 Zn24 1.924 . S
O36 C44 1.311 . S
O37 Zn28 1.977 . S
O37 C43 1.272 . S
O38 Zn28 1.910 . S
O38 C44 1.231 . S
C39 O23 1.225 . S
C39 O45 1.298 . S
C40 O29 1.226 . S
C40 O30 1.307 . S
C41 O33 1.303 . S
C41 O34 1.247 . S
C42 O31 1.253 . S
C42 O32 1.283 . S
C43 O35 1.304 . S
C43 O37 1.272 . S
C44 O36 1.311 . S
C44 O38 1.231 . S
O45 Zn27 1.953 . S
O45 C39 1.298 . S
O46 Zn47 1.953 . S
O46 C62 1.225 . S
Zn47 O46 1.953 . S
Zn47 O48 1.949 . S
Zn47 O54 1.919 . S
Zn47 O59 1.924 . S
O48 Zn47 1.949 . S
O48 Zn49 1.923 . S
O48 Zn50 1.950 . S
O48 Zn51 1.945 . S
Zn49 O48 1.923 . S
Zn49 O52 1.933 . S
Zn49 O55 1.941 . S
Zn49 O56 1.965 . S
Zn50 O48 1.950 . S
Zn50 O57 1.938 . S
Zn50 O58 1.906 . S
Zn50 O68 1.953 . S
Zn51 O48 1.945 . S
Zn51 O53 1.932 . S
Zn51 O60 1.977 . S
Zn51 O61 1.910 . S
O52 Zn49 1.933 . S
O52 C63 1.226 . S
O53 Zn51 1.932 . S
O53 C63 1.307 . S
O54 Zn47 1.919 . S
O54 C65 1.253 . S
O55 Zn49 1.941 . S
O55 C65 1.283 . S
O56 Zn49 1.965 . S
O56 C64 1.303 . S
O57 Zn50 1.938 . S
O57 C64 1.247 . S
O58 Zn50 1.906 . S
O58 C66 1.304 . S
O59 Zn47 1.924 . S
O59 C67 1.311 . S
O60 Zn51 1.977 . S
O60 C66 1.272 . S
O61 Zn51 1.910 . S
O61 C67 1.231 . S
C62 O46 1.225 . S
C62 O68 1.298 . S
C63 O52 1.226 . S
C63 O53 1.307 . S
C64 O56 1.303 . S
C64 O57 1.247 . S
C65 O54 1.253 . S
C65 O55 1.283 . S
C66 O58 1.304 . S
C66 O60 1.272 . S
C67 O59 1.311 . S
C67 O61 1.231 . S
O68 Zn50 1.953 . S
O68 C62 1.298 . S
O69 Zn70 1.953 . S
O69 C85 1.225 . S
Zn70 O69 1.953 . S
Zn70 O71 1.949 . S
Zn70 O77 1.919 . S
Zn70 O82 1.924 . S
O71 Zn70 1.949 . S
O71 Zn72 1.923 . S
O71 Zn73 1.950 . S
O71 Zn74 1.945 . S
Zn72 O71 1.923 . S
Zn72 O75 1.933 . S
Zn72 O78 1.941 . S
Zn72 O79 1.965 . S
Zn73 O71 1.950 . S
Zn73 O80 1.938 . S
Zn73 O81 1.906 . S
Zn73 O91 1.953 . S
Zn74 O71 1.945 . S
Zn74 O76 1.932 . S
Zn74 O83 1.977 . S
Zn74 O84 1.910 . S
O75 Zn72 1.933 . S
O75 C86 1.226 . S
O76 Zn74 1.932 . S
O76 C86 1.307 . S
O77 Zn70 1.919 . S
O77 C88 1.253 . S
O78 Zn72 1.941 . S
O78 C88 1.283 . S
O79 Zn72 1.965 . S
O79 C87 1.303 . S
O80 Zn73 1.938 . S
O80 C87 1.247 . S
O81 Zn73 1.906 . S
O81 C89 1.304 . S
O82 Zn70 1.924 . S
O82 C90 1.311 . S
O83 Zn74 1.977 . S
O83 C89 1.272 . S
O84 Zn74 1.910 . S
O84 C90 1.231 . S
C85 O69 1.225 . S
C85 O91 1.298 . S
C86 O75 1.226 . S
C86 O76 1.307 . S
C87 O79 1.303 . S
C87 O80 1.247 . S
C88 O77 1.253 . S
C88 O78 1.283 . S
C89 O81 1.304 . S
C89 O83 1.272 . S
C90 O82 1.311 . S
C90 O84 1.231 . S
O91 Zn73 1.953 . S
O91 C85 1.298 . S
O92 Zn93 1.953 . S
O92 C108 1.225 . S
Zn93 O92 1.953 . S
Zn93 O94 1.949 . S
Zn93 O100 1.919 . S
Zn93 O105 1.924 . S
O94 Zn93 1.949 . S
O94 Zn95 1.923 . S
O94 Zn96 1.950 . S
O94 Zn97 1.945 . S
Zn95 O94 1.923 . S
Zn95 O98 1.933 . S
Zn95 O101 1.941 . S
Zn95 O102 1.965 . S
Zn96 O94 1.950 . S
Zn96 O103 1.938 . S
Zn96 O104 1.906 . S
Zn96 O114 1.953 . S
Zn97 O94 1.945 . S
Zn97 O99 1.932 . S
Zn97 O106 1.977 . S
Zn97 O107 1.910 . S
O98 Zn95 1.933 . S
O98 C109 1.226 . S
O99 Zn97 1.932 . S
O99 C109 1.307 . S
O100 Zn93 1.919 . S
O100 C111 1.253 . S
O101 Zn95 1.941 . S
O101 C111 1.283 . S
O102 Zn95 1.965 . S
O102 C110 1.303 . S
O103 Zn96 1.938 . S
O103 C110 1.247 . S
O104 Zn96 1.906 . S
O104 C112 1.304 . S
O105 Zn93 1.924 . S
O105 C113 1.311 . S
O106 Zn97 1.977 . S
O106 C112 1.272 . S
O107 Zn97 1.910 . S
O107 C113 1.231 . S
C108 O92 1.225 . S
C108 O114 1.298 . S
C109 O98 1.226 . S
C109 O99 1.307 . S
C110 O102 1.303 . S
C110 O103 1.247 . S
C111 O100 1.253 . S
C111 O101 1.283 . S
C112 O104 1.304 . S
C112 O106 1.272 . S
C113 O105 1.311 . S
C113 O107 1.231 . S
O114 Zn96 1.953 . S
O114 C108 1.298 . S
O115 Zn116 1.953 . S
O115 C131 1.225 . S
Zn116 O115 1.953 . S
Zn116 O117 1.949 . S
Zn116 O123 1.919 . S
Zn116 O128 1.924 . S
O117 Zn116 1.949 . S
O117 Zn118 1.923 . S
O117 Zn119 1.950 . S
O117 Zn120 1.945 . S
Zn118 O117 1.923 . S
Zn118 O121 1.933 . S
Zn118 O124 1.941 . S
Zn118 O125 1.965 . S
Zn119 O117 1.950 . S
Zn119 O126 1.938 . S
Zn119 O127 1.906 . S
Zn119 O137 1.953 . S
Zn120 O117 1.945 . S
Zn120 O122 1.932 . S
Zn120 O129 1.977 . S
Zn120 O130 1.910 . S
O121 Zn118 1.933 . S
O121 C132 1.226 . S
O122 Zn120 1.932 . S
O122 C132 1.307 . S
O123 Zn116 1.919 . S
O123 C134 1.253 . S
O124 Zn118 1.941 . S
O124 C134 1.283 . S
O125 Zn118 1.965 . S
O125 C133 1.303 . S
O126 Zn119 1.938 . S
O126 C133 1.247 . S
O127 Zn119 1.906 . S
O127 C135 1.304 . S
O128 Zn116 1.924 . S
O128 C136 1.311 . S
O129 Zn120 1.977 . S
O129 C135 1.272 . S
O130 Zn120 1.910 . S
O130 C136 1.231 . S
C131 O115 1.225 . S
C131 O137 1.298 . S
C132 O121 1.226 . S
C132 O122 1.307 . S
C133 O125 1.303 . S
C133 O126 1.247 . S
C134 O123 1.253 . S
C134 O124 1.283 . S
C135 O127 1.304 . S
C135 O129 1.272 . S
C136 O128 1.311 . S
C136 O130 1.231 . S
O137 Zn119 1.953 . S
O137 C131 1.298 . S
C138 C139 1.386 1_565 S
C138 C140 1.383 . S
C138 H154 0.954 1_565 S
C139 C138 1.386 1_545 S
C139 C143 1.383 1_546 S
C140 C138 1.383 . S
C140 C141 1.402 . S
C140 H155 0.951 . S
C141 C140 1.402 . S
C141 C142 1.375 1_556 S
C141 C144 1.481 . S
C142 C141 1.375 1_554 S
C142 C143 1.372 . S
C142 H156 0.951 . S
C143 C139 1.383 1_564 S
C143 C142 1.372 . S
C143 H157 0.944 1_565 S
C144 C141 1.481 . S
C144 C145 1.297 . S
C144 H158 0.950 . S
C145 C144 1.297 . S
C145 C146 1.479 . S
C145 H159 0.950 . S
C146 C145 1.479 . S
C146 C147 1.375 . S
C146 C152 1.404 . S
C147 C146 1.375 . S
C147 C148 1.369 . S
C147 H160 0.950 . S
C148 C147 1.369 . S
C148 C149 1.392 . S
C148 H161 0.951 . S
C149 C148 1.392 . S
C149 C151 1.384 . S
H150 C152 0.949 . S
C151 C149 1.384 . S
C151 C152 1.385 . S
C151 H153 0.950 . S
C152 C146 1.404 . S
C152 H150 0.949 . S
C152 C151 1.385 . S
H153 C151 0.950 . S
H154 C138 0.954 1_545 S
H155 C140 0.951 . S
H156 C142 0.951 . S
H157 C143 0.944 1_545 S
H158 C144 0.950 . S
H159 C145 0.950 . S
H160 C147 0.950 . S
H161 C148 0.951 . S
C162 C163 1.386 . S
C162 C164 1.383 . S
C162 H178 0.951 . S
C163 C162 1.386 . S
C163 C167 1.383 . S
C164 C162 1.383 . S
C164 C165 1.402 . S
C164 H179 0.951 . S
C165 C164 1.402 . S
C165 C166 1.375 . S
C165 C168 1.481 . S
C166 C165 1.375 . S
C166 C167 1.367 . S
C166 H180 0.951 . S
C167 C163 1.383 . S
C167 C166 1.367 . S
C167 H181 0.950 . S
C168 C165 1.481 . S
C168 C169 1.297 . S
C168 H182 0.950 . S
C169 C168 1.297 . S
C169 C170 1.479 . S
C169 H183 0.950 . S
C170 C169 1.479 . S
C170 C171 1.375 . S
C170 C176 1.404 . S
C171 C170 1.375 . S
C171 C172 1.369 . S
C171 H184 0.950 . S
C172 C171 1.369 . S
C172 C173 1.392 . S
C172 H185 0.951 . S
C173 C172 1.392 . S
C173 C175 1.384 . S
H174 C176 0.949 . S
C175 C173 1.384 . S
C175 C176 1.385 . S
C175 H177 0.950 . S
C176 C170 1.404 . S
C176 H174 0.949 . S
C176 C175 1.385 . S
H177 C175 0.950 . S
H178 C162 0.951 . S
H179 C164 0.951 . S
H180 C166 0.951 . S
H181 C167 0.950 . S
H182 C168 0.950 . S
H183 C169 0.950 . S
H184 C171 0.950 . S
H185 C172 0.951 . S
C186 C187 1.386 1_455 S
C186 C188 1.383 . S
C186 H202 0.951 . S
C187 C186 1.386 1_655 S
C187 C191 1.383 . S
C188 C186 1.383 . S
C188 C189 1.402 . S
C188 H203 0.951 . S
C189 C188 1.402 . S
C189 C190 1.375 . S
C189 C192 1.481 . S
C190 C189 1.375 . S
C190 C191 1.367 1_455 S
C190 H204 0.951 . S
C191 C187 1.383 . S
C191 C190 1.367 1_655 S
C191 H205 0.950 . S
C192 C189 1.481 . S
C192 C193 1.297 . S
C192 H206 0.950 . S
C193 C192 1.297 . S
C193 C194 1.479 . S
C193 H207 0.950 . S
C194 C193 1.479 . S
C194 C195 1.375 . S
C194 C200 1.404 . S
C195 C194 1.375 . S
C195 C196 1.369 . S
C195 H208 0.950 . S
C196 C195 1.369 . S
C196 C197 1.392 . S
C196 H209 0.951 . S
C197 C196 1.392 . S
C197 C199 1.384 . S
H198 C200 0.949 . S
C199 C197 1.384 . S
C199 C200 1.385 . S
C199 H201 0.950 . S
C200 C194 1.404 . S
C200 H198 0.949 . S
C200 C199 1.385 . S
H201 C199 0.950 . S
H202 C186 0.951 . S
H203 C188 0.951 . S
H204 C190 0.951 . S
H205 C191 0.950 . S
H206 C192 0.950 . S
H207 C193 0.950 . S
H208 C195 0.950 . S
H209 C196 0.951 . S
C210 C211 1.386 . S
C210 C212 1.383 . S
C210 H226 0.951 . S
C211 C210 1.386 . S
C211 C215 1.383 . S
C212 C210 1.383 . S
C212 C213 1.402 . S
C212 H227 0.951 . S
C213 C212 1.402 . S
C213 C214 1.375 . S
C213 C216 1.481 . S
C214 C213 1.375 . S
C214 C215 1.367 . S
C214 H228 0.951 . S
C215 C211 1.383 . S
C215 C214 1.367 . S
C215 H229 0.950 . S
C216 C213 1.481 . S
C216 C217 1.297 . S
C216 H230 0.950 . S
C217 C216 1.297 . S
C217 C218 1.479 . S
C217 H231 0.950 . S
C218 C217 1.479 . S
C218 C219 1.375 . S
C218 C224 1.404 . S
C219 C218 1.375 . S
C219 C220 1.369 1_545 S
C219 H232 0.950 . S
C220 C219 1.369 1_565 S
C220 C221 1.392 . S
C220 H233 0.951 . S
C221 C220 1.392 . S
C221 C223 1.384 1_565 S
H222 C224 0.949 . S
C223 C221 1.384 1_545 S
C223 C224 1.385 . S
C223 H225 0.950 . S
C224 C218 1.404 . S
C224 H222 0.949 . S
C224 C223 1.385 . S
H225 C223 0.950 . S
H226 C210 0.951 . S
H227 C212 0.951 . S
H228 C214 0.951 . S
H229 C215 0.950 . S
H230 C216 0.950 . S
H231 C217 0.950 . S
H232 C219 0.950 . S
H233 C220 0.951 . S
C234 C235 1.386 . S
C234 C236 1.383 . S
C234 H250 0.951 . S
C235 C234 1.386 . S
C235 C239 1.383 . S
C236 C234 1.383 . S
C236 C237 1.402 . S
C236 H251 0.951 . S
C237 C236 1.402 . S
C237 C238 1.375 . S
C237 C240 1.481 . S
C238 C237 1.375 . S
C238 C239 1.367 . S
C238 H252 0.951 . S
C239 C235 1.383 . S
C239 C238 1.367 . S
C239 H253 0.950 . S
C240 C237 1.481 . S
C240 C241 1.297 . S
C240 H254 0.950 . S
C241 C240 1.297 . S
C241 C242 1.479 . S
C241 H255 0.950 . S
C242 C241 1.479 . S
C242 C243 1.375 . S
C242 C248 1.404 . S
C243 C242 1.375 . S
C243 C244 1.369 . S
C243 H256 0.950 . S
C244 C243 1.369 . S
C244 C245 1.392 . S
C244 H257 0.951 . S
C245 C244 1.392 . S
C245 C247 1.384 . S
H246 C248 0.949 . S
C247 C245 1.384 . S
C247 C248 1.385 . S
C247 H249 0.950 . S
C248 C242 1.404 . S
C248 H246 0.949 . S
C248 C247 1.385 . S
H249 C247 0.950 . S
H250 C234 0.951 . S
H251 C236 0.951 . S
H252 C238 0.951 . S
H253 C239 0.950 . S
H254 C240 0.950 . S
H255 C241 0.950 . S
H256 C243 0.950 . S
H257 C244 0.951 . S
C258 C259 1.386 1_655 S
C258 C260 1.383 . S
C258 H274 0.951 1_655 S
C259 C258 1.386 1_455 S
C259 C263 1.376 1_455 S
C260 C258 1.383 . S
C260 C261 1.402 . S
C260 H275 0.951 . S
C261 C260 1.402 . S
C261 C262 1.375 . S
C261 C264 1.481 . S
C262 C261 1.375 . S
C262 C263 1.375 . S
C262 H276 0.951 . S
C263 C259 1.376 1_655 S
C263 C262 1.375 . S
C263 H277 0.948 1_655 S
C264 C261 1.481 . S
C264 C265 1.297 . S
C264 H278 0.950 . S
C265 C264 1.297 . S
C265 C266 1.479 . S
C265 H279 0.950 . S
C266 C265 1.479 . S
C266 C267 1.375 . S
C266 C272 1.404 . S
C267 C266 1.375 . S
C267 C268 1.369 . S
C267 H280 0.950 . S
C268 C267 1.369 . S
C268 C269 1.392 . S
C268 H281 0.951 . S
C269 C268 1.392 . S
C269 C271 1.384 . S
H270 C272 0.949 . S
C271 C269 1.384 . S
C271 C272 1.385 . S
C271 H273 0.950 . S
C272 C266 1.404 . S
C272 H270 0.949 . S
C272 C271 1.385 . S
H273 C271 0.950 . S
H274 C258 0.951 1_455 S
H275 C260 0.951 . S
H276 C262 0.951 . S
H277 C263 0.948 1_455 S
H278 C264 0.950 . S
H279 C265 0.950 . S
H280 C267 0.950 . S
H281 C268 0.951 . S
C282 C283 1.405 . S
C282 C284 1.375 1_545 S
C282 H298 0.939 1_545 S
C283 C282 1.405 . S
C283 C287 1.383 . S
C284 C282 1.375 1_565 S
C284 C285 1.402 1_565 S
C284 H299 0.951 . S
C285 C284 1.402 1_545 S
C285 C286 1.375 . S
C285 C288 1.481 . S
C286 C285 1.375 . S
C286 C287 1.367 . S
C286 H300 0.951 . S
C287 C283 1.383 . S
C287 C286 1.367 . S
C287 H301 0.950 . S
C288 C285 1.481 . S
C288 C289 1.297 1_545 S
C288 H302 0.950 . S
C289 C288 1.297 1_565 S
C289 C290 1.479 . S
C289 H303 0.950 . S
C290 C289 1.479 . S
C290 C291 1.375 . S
C290 C296 1.404 . S
C291 C290 1.375 . S
C291 C292 1.369 . S
C291 H304 0.950 . S
C292 C291 1.369 . S
C292 C293 1.392 . S
C292 H305 0.951 . S
C293 C292 1.392 . S
C293 C295 1.384 . S
H294 C296 0.949 1_545 S
C295 C293 1.384 . S
C295 C296 1.385 . S
C295 H297 0.950 . S
C296 C290 1.404 . S
C296 H294 0.949 1_565 S
C296 C295 1.385 . S
H297 C295 0.950 . S
H298 C282 0.939 1_565 S
H299 C284 0.951 . S
H300 C286 0.951 . S
H301 C287 0.950 . S
H302 C288 0.950 . S
H303 C289 0.950 . S
H304 C291 0.950 . S
H305 C292 0.951 . S
C306 C307 1.386 . S
C306 C308 1.383 . S
C306 H322 0.951 . S
C307 C306 1.386 . S
C307 C311 1.383 . S
C308 C306 1.383 . S
C308 C309 1.402 . S
C308 H323 0.951 . S
C309 C308 1.402 . S
C309 C310 1.375 . S
C309 C312 1.481 . S
C310 C309 1.375 . S
C310 C311 1.367 . S
C310 H324 0.951 . S
C311 C307 1.383 . S
C311 C310 1.367 . S
C311 H325 0.950 . S
C312 C309 1.481 . S
C312 C313 1.297 . S
C312 H326 0.950 . S
C313 C312 1.297 . S
C313 C314 1.479 . S
C313 H327 0.950 . S
C314 C313 1.479 . S
C314 C315 1.375 . S
C314 C320 1.404 . S
C315 C314 1.375 . S
C315 C316 1.369 . S
C315 H328 0.950 . S
C316 C315 1.369 . S
C316 C317 1.392 . S
C316 H329 0.951 . S
C317 C316 1.392 . S
C317 C319 1.384 . S
H318 C320 0.949 . S
C319 C317 1.384 . S
C319 C320 1.385 . S
C319 H321 0.950 . S
C320 C314 1.404 . S
C320 H318 0.949 . S
C320 C319 1.385 . S
H321 C319 0.950 . S
H322 C306 0.951 . S
H323 C308 0.951 . S
H324 C310 0.951 . S
H325 C311 0.950 . S
H326 C312 0.950 . S
H327 C313 0.950 . S
H328 C315 0.950 . S
H329 C316 0.951 . S
C330 C331 1.386 . S
C330 C332 1.383 . S
C330 H346 0.951 . S
C331 C330 1.386 . S
C331 C335 1.383 . S
C332 C330 1.383 . S
C332 C333 1.402 . S
C332 H347 0.951 . S
C333 C332 1.402 . S
C333 C334 1.375 . S
C333 C336 1.481 . S
C334 C333 1.375 . S
C334 C335 1.367 . S
C334 H348 0.951 . S
C335 C331 1.383 . S
C335 C334 1.367 . S
C335 H349 0.950 . S
C336 C333 1.481 . S
C336 C337 1.297 . S
C336 H350 0.950 . S
C337 C336 1.297 . S
C337 C338 1.479 . S
C337 H351 0.950 . S
C338 C337 1.479 . S
C338 C339 1.375 1_455 S
C338 C344 1.404 . S
C339 C338 1.375 1_655 S
C339 C340 1.369 . S
C339 H352 0.950 . S
C340 C339 1.369 . S
C340 C341 1.392 . S
C340 H353 0.951 . S
C341 C340 1.392 . S
C341 C343 1.384 1_655 S
H342 C344 0.949 . S
C343 C341 1.384 1_455 S
C343 C344 1.385 . S
C343 H345 0.950 . S
C344 C338 1.404 . S
C344 H342 0.949 . S
C344 C343 1.385 . S
H345 C343 0.950 . S
H346 C330 0.951 . S
H347 C332 0.951 . S
H348 C334 0.951 . S
H349 C335 0.950 . S
H350 C336 0.950 . S
H351 C337 0.950 . S
H352 C339 0.950 . S
H353 C340 0.951 . S
C354 C355 1.386 . S
C354 C356 1.383 . S
C354 H370 0.951 . S
C355 C354 1.386 . S
C355 C359 1.383 1_565 S
C356 C354 1.383 . S
C356 C357 1.402 1_565 S
C356 H371 0.951 . S
C357 C356 1.402 1_545 S
C357 C358 1.375 . S
C357 C360 1.481 . S
C358 C357 1.375 . S
C358 C359 1.367 . S
C358 H372 0.951 . S
C359 C355 1.383 1_545 S
C359 C358 1.367 . S
C359 H373 0.950 . S
C360 C357 1.481 . S
C360 C361 1.297 . S
C360 H374 0.950 . S
C361 C360 1.297 . S
C361 C362 1.479 . S
C361 H375 0.946 1_545 S
C362 C361 1.479 . S
C362 C363 1.375 . S
C362 C368 1.404 . S
C363 C362 1.375 . S
C363 C364 1.369 . S
C363 H376 0.950 1_545 S
C364 C363 1.369 . S
C364 C365 1.392 . S
C364 H377 0.951 . S
C365 C364 1.392 . S
C365 C367 1.384 . S
H366 C368 0.949 . S
C367 C365 1.384 . S
C367 C368 1.385 . S
C367 H369 0.950 . S
C368 C362 1.404 . S
C368 H366 0.949 . S
C368 C367 1.385 . S
H369 C367 0.950 . S
H370 C354 0.951 . S
H371 C356 0.951 . S
H372 C358 0.951 . S
H373 C359 0.950 . S
H374 C360 0.950 . S
H375 C361 0.946 1_565 S
H376 C363 0.950 1_565 S
H377 C364 0.951 . S
C378 C379 1.386 . S
C378 C380 1.383 . S
C378 H394 0.951 . S
C379 C378 1.386 . S
C379 C383 1.383 . S
C380 C378 1.383 . S
C380 C381 1.402 1_554 S
C380 H395 0.951 . S
C381 C380 1.402 1_556 S
C381 C382 1.375 1_556 S
C381 C384 1.481 . S
C382 C381 1.375 1_554 S
C382 C383 1.367 . S
C382 H396 0.951 1_554 S
C383 C379 1.383 . S
C383 C382 1.367 . S
C383 H397 0.950 . S
C384 C381 1.481 . S
C384 C385 1.297 . S
C384 H398 0.950 . S
C385 C384 1.297 . S
C385 C386 1.479 . S
C385 H399 0.950 . S
C386 C385 1.479 . S
C386 C387 1.375 . S
C386 C392 1.404 . S
C387 C386 1.375 . S
C387 C388 1.369 . S
C387 H400 0.950 . S
C388 C387 1.369 . S
C388 C389 1.392 . S
C388 H401 0.951 . S
C389 C388 1.392 . S
C389 C391 1.384 . S
H390 C392 0.949 . S
C391 C389 1.384 . S
C391 C392 1.385 . S
C391 H393 0.950 . S
C392 C386 1.404 . S
C392 H390 0.949 . S
C392 C391 1.385 . S
H393 C391 0.950 . S
H394 C378 0.951 . S
H395 C380 0.951 . S
H396 C382 0.951 1_556 S
H397 C383 0.950 . S
H398 C384 0.950 . S
H399 C385 0.950 . S
H400 C387 0.950 . S
H401 C388 0.951 . S
C402 C403 1.386 1_554 S
C402 C404 1.383 1_455 S
C402 H418 0.951 . S
C403 C402 1.386 1_556 S
C403 C407 1.383 . S
C404 C402 1.383 1_655 S
C404 C405 1.402 . S
C404 H419 0.951 . S
C405 C404 1.402 . S
C405 C406 1.375 1_655 S
C405 C408 1.481 . S
C406 C405 1.375 1_455 S
C406 C407 1.367 1_554 S
C406 H420 0.951 . S
C407 C403 1.383 . S
C407 C406 1.367 1_556 S
C407 H421 0.950 . S
C408 C405 1.481 . S
C408 C409 1.297 . S
C408 H422 0.950 . S
C409 C408 1.297 . S
C409 C410 1.479 . S
C409 H423 0.950 . S
C410 C409 1.479 . S
C410 C411 1.375 . S
C410 C416 1.404 . S
C411 C410 1.375 . S
C411 C412 1.369 . S
C411 H424 0.950 . S
C412 C411 1.369 . S
C412 C413 1.392 . S
C412 H425 0.951 . S
C413 C412 1.392 . S
C413 C415 1.384 . S
H414 C416 0.949 . S
C415 C413 1.384 . S
C415 C416 1.385 . S
C415 H417 0.950 . S
C416 C410 1.404 . S
C416 H414 0.949 . S
C416 C415 1.385 . S
H417 C415 0.950 . S
H418 C402 0.951 . S
H419 C404 0.951 . S
H420 C406 0.951 . S
H421 C407 0.950 . S
H422 C408 0.950 . S
H423 C409 0.950 . S
H424 C411 0.950 . S
H425 C412 0.951 . S
C426 C427 1.386 . S
C426 C428 1.383 . S
C426 H442 0.951 . S
C427 C426 1.386 . S
C427 C431 1.383 . S
C428 C426 1.383 . S
C428 C429 1.402 . S
C428 H443 0.951 . S
C429 C428 1.402 . S
C429 C430 1.375 . S
C429 C432 1.481 . S
C430 C429 1.375 . S
C430 C431 1.367 . S
C430 H444 0.951 . S
C431 C427 1.383 . S
C431 C430 1.367 . S
C431 H445 0.950 . S
C432 C429 1.481 . S
C432 C433 1.297 . S
C432 H446 0.950 . S
C433 C432 1.297 . S
C433 C434 1.479 . S
C433 H447 0.950 . S
C434 C433 1.479 . S
C434 C435 1.375 . S
C434 C440 1.404 . S
C435 C434 1.375 . S
C435 C436 1.369 . S
C435 H448 0.950 . S
C436 C435 1.369 . S
C436 C437 1.392 . S
C436 H449 0.951 . S
C437 C436 1.392 . S
C437 C439 1.384 . S
H438 C440 0.949 . S
C439 C437 1.384 . S
C439 C440 1.385 . S
C439 H441 0.950 . S
C440 C434 1.404 . S
C440 H438 0.949 . S
C440 C439 1.385 . S
H441 C439 0.950 . S
H442 C426 0.951 . S
H443 C428 0.951 . S
H444 C430 0.951 . S
H445 C431 0.950 . S
H446 C432 0.950 . S
H447 C433 0.950 . S
H448 C435 0.950 . S
H449 C436 0.951 . S
C450 C451 1.386 . S
C450 C452 1.383 . S
C450 H466 0.951 . S
C451 C450 1.386 . S
C451 C455 1.383 . S
C452 C450 1.383 . S
C452 C453 1.402 . S
C452 H467 0.951 . S
C453 C452 1.402 . S
C453 C454 1.375 . S
C453 C456 1.481 . S
C454 C453 1.375 . S
C454 C455 1.367 . S
C454 H468 0.951 . S
C455 C451 1.383 . S
C455 C454 1.367 . S
C455 H469 0.950 . S
C456 C453 1.481 . S
C456 C457 1.297 . S
C456 H470 0.950 1_556 S
C457 C456 1.297 . S
C457 C458 1.479 1_556 S
C457 H471 0.950 . S
C458 C457 1.479 1_554 S
C458 C459 1.375 . S
C458 C464 1.404 . S
C459 C458 1.375 . S
C459 C460 1.369 . S
C459 H472 0.950 1_554 S
C460 C459 1.369 . S
C460 C461 1.392 . S
C460 H473 0.951 . S
C461 C460 1.392 . S
C461 C463 1.384 . S
H462 C464 0.949 . S
C463 C461 1.384 . S
C463 C464 1.385 . S
C463 H465 0.950 . S
C464 C458 1.404 . S
C464 H462 0.949 . S
C464 C463 1.385 . S
H465 C463 0.950 . S
H466 C450 0.951 . S
H467 C452 0.951 . S
H468 C454 0.951 . S
H469 C455 0.950 . S
H470 C456 0.950 1_554 S
H471 C457 0.950 . S
H472 C459 0.950 1_556 S
H473 C460 0.951 . S
C474 C475 1.386 . S
C474 C476 1.383 . S
C474 H490 0.951 . S
C475 C474 1.386 . S
C475 C479 1.383 . S
C476 C474 1.383 . S
C476 C477 1.402 . S
C476 H491 0.951 . S
C477 C476 1.402 . S
C477 C478 1.375 . S
C477 C480 1.481 . S
C478 C477 1.375 . S
C478 C479 1.367 . S
C478 H492 0.951 . S
C479 C475 1.383 . S
C479 C478 1.367 . S
C479 H493 0.950 . S
C480 C477 1.481 . S
C480 C481 1.297 . S
C480 H494 0.950 . S
C481 C480 1.297 . S
C481 C482 1.479 . S
C481 H495 0.950 . S
C482 C481 1.479 . S
C482 C483 1.375 . S
C482 C488 1.404 . S
C483 C482 1.375 . S
C483 C484 1.369 . S
C483 H496 0.950 . S
C484 C483 1.369 . S
C484 C485 1.392 . S
C484 H497 0.951 . S
C485 C484 1.392 . S
C485 C487 1.384 . S
H486 C488 0.949 . S
C487 C485 1.384 . S
C487 C488 1.385 . S
C487 H489 0.950 . S
C488 C482 1.404 . S
C488 H486 0.949 . S
C488 C487 1.385 . S
H489 C487 0.950 . S
H490 C474 0.951 . S
H491 C476 0.951 . S
H492 C478 0.951 . S
H493 C479 0.950 . S
H494 C480 0.950 . S
H495 C481 0.950 . S
H496 C483 0.950 . S
H497 C484 0.951 . S
C498 C499 1.386 . S
C498 C500 1.383 . S
C498 H514 0.951 . S
C499 C498 1.386 . S
C499 C503 1.383 . S
C500 C498 1.383 . S
C500 C501 1.402 . S
C500 H515 0.951 . S
C501 C500 1.402 . S
C501 C502 1.375 . S
C501 C504 1.481 . S
C502 C501 1.375 . S
C502 C503 1.367 . S
C502 H516 0.951 . S
C503 C499 1.383 . S
C503 C502 1.367 . S
C503 H517 0.950 . S
C504 C501 1.481 . S
C504 C505 1.297 . S
C504 H518 0.950 . S
C505 C504 1.297 . S
C505 C506 1.479 . S
C505 H519 0.950 . S
C506 C505 1.479 . S
C506 C507 1.375 . S
C506 C512 1.404 . S
C507 C506 1.375 . S
C507 C508 1.369 . S
C507 H520 0.950 . S
C508 C507 1.369 . S
C508 C509 1.392 . S
C508 H521 0.951 . S
C509 C508 1.392 . S
C509 C511 1.384 . S
H510 C512 0.949 . S
C511 C509 1.384 . S
C511 C512 1.385 . S
C511 H513 0.950 . S
C512 C506 1.404 . S
C512 H510 0.949 . S
C512 C511 1.385 . S
H513 C511 0.950 . S
H514 C498 0.951 . S
H515 C500 0.951 . S
H516 C502 0.951 . S
H517 C503 0.950 . S
H518 C504 0.950 . S
H519 C505 0.950 . S
H520 C507 0.950 . S
H521 C508 0.951 . S
C522 C523 1.386 . S
C522 C524 1.383 . S
C522 H538 0.951 . S
C523 C522 1.386 . S
C523 C527 1.383 . S
C524 C522 1.383 . S
C524 C525 1.402 . S
C524 H539 0.951 . S
C525 C524 1.402 . S
C525 C526 1.375 . S
C525 C528 1.481 . S
C526 C525 1.375 . S
C526 C527 1.367 . S
C526 H540 0.951 . S
C527 C523 1.383 . S
C527 C526 1.367 . S
C527 H541 0.950 . S
C528 C525 1.481 . S
C528 C529 1.297 . S
C528 H542 0.950 . S
C529 C528 1.297 . S
C529 C530 1.479 . S
C529 H543 0.950 . S
C530 C529 1.479 . S
C530 C531 1.375 . S
C530 C536 1.404 . S
C531 C530 1.375 . S
C531 C532 1.369 . S
C531 H544 0.950 . S
C532 C531 1.369 . S
C532 C533 1.392 . S
C532 H545 0.951 . S
C533 C532 1.392 . S
C533 C535 1.384 . S
H534 C536 0.949 . S
C535 C533 1.384 . S
C535 C536 1.385 . S
C535 H537 0.950 . S
C536 C530 1.404 . S
C536 H534 0.949 . S
C536 C535 1.385 . S
H537 C535 0.950 . S
H538 C522 0.951 . S
H539 C524 0.951 . S
H540 C526 0.951 . S
H541 C527 0.950 . S
H542 C528 0.950 . S
H543 C529 0.950 . S
H544 C531 0.950 . S
H545 C532 0.951 . S
C546 C547 1.386 . S
C546 C548 1.383 . S
C546 H562 0.951 . S
C547 C546 1.386 . S
C547 C551 1.383 . S
C548 C546 1.383 . S
C548 C549 1.402 . S
C548 H563 0.951 . S
C549 C548 1.402 . S
C549 C550 1.375 . S
C549 C552 1.481 . S
C550 C549 1.375 . S
C550 C551 1.367 . S
C550 H564 0.951 . S
C551 C547 1.383 . S
C551 C550 1.367 . S
C551 H565 0.950 . S
C552 C549 1.481 . S
C552 C553 1.297 . S
C552 H566 0.950 . S
C553 C552 1.297 . S
C553 C554 1.479 . S
C553 H567 0.950 . S
C554 C553 1.479 . S
C554 C555 1.375 . S
C554 C560 1.404 . S
C555 C554 1.375 . S
C555 C556 1.369 . S
C555 H568 0.950 . S
C556 C555 1.369 . S
C556 C557 1.392 . S
C556 H569 0.951 . S
C557 C556 1.392 . S
C557 C559 1.384 . S
H558 C560 0.949 . S
C559 C557 1.384 . S
C559 C560 1.385 . S
C559 H561 0.950 . S
C560 C554 1.404 . S
C560 H558 0.949 . S
C560 C559 1.385 . S
H561 C559 0.950 . S
H562 C546 0.951 . S
H563 C548 0.951 . S
H564 C550 0.951 . S
H565 C551 0.950 . S
H566 C552 0.950 . S
H567 C553 0.950 . S
H568 C555 0.950 . S
H569 C556 0.951 . S
C139 C18 0.957 . S
C149 C135 0.924 . S
C163 C41 0.960 . S
C173 C20 0.939 . S
C187 C64 0.960 . S
C197 C43 0.942 . S
C211 C66 0.940 . S
C221 C87 0.960 . S
C235 C89 0.944 . S
C245 C110 0.937 . S
C259 C133 0.957 . S
C269 C112 0.923 . S
C283 C16 1.520 . S
C293 C88 1.492 . S
C307 C39 1.552 . S
C317 C111 1.526 . S
C331 C134 1.550 . S
C341 C62 1.530 . S
C355 C85 1.555 . S
C365 C19 1.552 . S
C379 C42 1.512 . S
C389 C108 1.512 . S
C403 C131 1.537 . S
C413 C65 1.554 . S
C427 C17 1.250 . S
C437 C113 1.230 . S
C451 C136 1.246 . S
C461 C40 1.247 . S
C475 C21 1.246 . S
C485 C63 1.245 . S
C499 C86 1.255 . S
C509 C44 1.211 . S
C523 C67 1.234 . S
C533 C109 1.264 . S
C547 C90 1.256 . S
C557 C132 1.177 . S
