# Generated by pormake.
# Topology mer, (4)-cn, num edge types: 1
# Building blocks:
#     Node 0, Type 0, BuildingBlock: CEKHIL_clean_sbu_0, # of connection points: 4
#     Node 1, Type 0, BuildingBlock: CEKHIL_clean_sbu_0, # of connection points: 4
#     Node 2, Type 0, BuildingBlock: CEKHIL_clean_sbu_0, # of connection points: 4
#     Node 3, Type 0, BuildingBlock: CEKHIL_clean_sbu_0, # of connection points: 4
#     Node 4, Type 0, BuildingBlock: CEKHIL_clean_sbu_0, # of connection points: 4
#     Node 5, Type 0, BuildingBlock: CEKHIL_clean_sbu_0, # of connection points: 4
#     Node 6, Type 0, BuildingBlock: CEKHIL_clean_sbu_0, # of connection points: 4
#     Node 7, Type 0, BuildingBlock: CEKHIL_clean_sbu_0, # of connection points: 4
#     Node 8, Type 0, BuildingBlock: CEKHIL_clean_sbu_0, # of connection points: 4
#     Node 9, Type 0, BuildingBlock: CEKHIL_clean_sbu_0, # of connection points: 4
#     Node 10, Type 0, BuildingBlock: CEKHIL_clean_sbu_0, # of connection points: 4
#     Node 11, Type 0, BuildingBlock: CEKHIL_clean_sbu_0, # of connection points: 4
#     Node 12, Type 0, BuildingBlock: CEKHIL_clean_sbu_0, # of connection points: 4
#     Node 13, Type 0, BuildingBlock: CEKHIL_clean_sbu_0, # of connection points: 4
#     Node 14, Type 0, BuildingBlock: CEKHIL_clean_sbu_0, # of connection points: 4
#     Node 15, Type 0, BuildingBlock: CEKHIL_clean_sbu_0, # of connection points: 4
#     Node 16, Type 0, BuildingBlock: CEKHIL_clean_sbu_0, # of connection points: 4
#     Node 17, Type 0, BuildingBlock: CEKHIL_clean_sbu_0, # of connection points: 4
#     Node 18, Type 0, BuildingBlock: CEKHIL_clean_sbu_0, # of connection points: 4
#     Node 19, Type 0, BuildingBlock: CEKHIL_clean_sbu_0, # of connection points: 4
#     Node 20, Type 0, BuildingBlock: CEKHIL_clean_sbu_0, # of connection points: 4
#     Node 21, Type 0, BuildingBlock: CEKHIL_clean_sbu_0, # of connection points: 4
#     Node 22, Type 0, BuildingBlock: CEKHIL_clean_sbu_0, # of connection points: 4
#     Node 23, Type 0, BuildingBlock: CEKHIL_clean_sbu_0, # of connection points: 4
#     Node 24, Type 0, BuildingBlock: CEKHIL_clean_sbu_0, # of connection points: 4
#     Node 25, Type 0, BuildingBlock: CEKHIL_clean_sbu_0, # of connection points: 4
#     Node 26, Type 0, BuildingBlock: CEKHIL_clean_sbu_0, # of connection points: 4
#     Node 27, Type 0, BuildingBlock: CEKHIL_clean_sbu_0, # of connection points: 4
#     Node 28, Type 0, BuildingBlock: CEKHIL_clean_sbu_0, # of connection points: 4
#     Node 29, Type 0, BuildingBlock: CEKHIL_clean_sbu_0, # of connection points: 4
#     Node 30, Type 0, BuildingBlock: CEKHIL_clean_sbu_0, # of connection points: 4
#     Node 31, Type 0, BuildingBlock: CEKHIL_clean_sbu_0, # of connection points: 4
#     Edge 32, Type (0, 0), BuildingBlock: ZUJKAS_clean_linker_0, # of connection points: 2
#     Edge 33, Type (0, 0), BuildingBlock: ZUJKAS_clean_linker_0, # of connection points: 2
#     Edge 34, Type (0, 0), BuildingBlock: ZUJKAS_clean_linker_0, # of connection points: 2
#     Edge 35, Type (0, 0), BuildingBlock: ZUJKAS_clean_linker_0, # of connection points: 2
#     Edge 36, Type (0, 0), BuildingBlock: ZUJKAS_clean_linker_0, # of connection points: 2
#     Edge 37, Type (0, 0), BuildingBlock: ZUJKAS_clean_linker_0, # of connection points: 2
#     Edge 38, Type (0, 0), BuildingBlock: ZUJKAS_clean_linker_0, # of connection points: 2
#     Edge 39, Type (0, 0), BuildingBlock: ZUJKAS_clean_linker_0, # of connection points: 2
#     Edge 40, Type (0, 0), BuildingBlock: ZUJKAS_clean_linker_0, # of connection points: 2
#     Edge 41, Type (0, 0), BuildingBlock: ZUJKAS_clean_linker_0, # of connection points: 2
#     Edge 42, Type (0, 0), BuildingBlock: ZUJKAS_clean_linker_0, # of connection points: 2
#     Edge 43, Type (0, 0), BuildingBlock: ZUJKAS_clean_linker_0, # of connection points: 2
#     Edge 44, Type (0, 0), BuildingBlock: ZUJKAS_clean_linker_0, # of connection points: 2
#     Edge 45, Type (0, 0), BuildingBlock: ZUJKAS_clean_linker_0, # of connection points: 2
#     Edge 46, Type (0, 0), BuildingBlock: ZUJKAS_clean_linker_0, # of connection points: 2
#     Edge 47, Type (0, 0), BuildingBlock: ZUJKAS_clean_linker_0, # of connection points: 2
#     Edge 48, Type (0, 0), BuildingBlock: ZUJKAS_clean_linker_0, # of connection points: 2
#     Edge 49, Type (0, 0), BuildingBlock: ZUJKAS_clean_linker_0, # of connection points: 2
#     Edge 50, Type (0, 0), BuildingBlock: ZUJKAS_clean_linker_0, # of connection points: 2
#     Edge 51, Type (0, 0), BuildingBlock: ZUJKAS_clean_linker_0, # of connection points: 2
#     Edge 52, Type (0, 0), BuildingBlock: ZUJKAS_clean_linker_0, # of connection points: 2
#     Edge 53, Type (0, 0), BuildingBlock: ZUJKAS_clean_linker_0, # of connection points: 2
#     Edge 54, Type (0, 0), BuildingBlock: ZUJKAS_clean_linker_0, # of connection points: 2
#     Edge 55, Type (0, 0), BuildingBlock: ZUJKAS_clean_linker_0, # of connection points: 2
#     Edge 56, Type (0, 0), BuildingBlock: ZUJKAS_clean_linker_0, # of connection points: 2
#     Edge 57, Type (0, 0), BuildingBlock: ZUJKAS_clean_linker_0, # of connection points: 2
#     Edge 58, Type (0, 0), BuildingBlock: ZUJKAS_clean_linker_0, # of connection points: 2
#     Edge 59, Type (0, 0), BuildingBlock: ZUJKAS_clean_linker_0, # of connection points: 2
#     Edge 60, Type (0, 0), BuildingBlock: ZUJKAS_clean_linker_0, # of connection points: 2
#     Edge 61, Type (0, 0), BuildingBlock: ZUJKAS_clean_linker_0, # of connection points: 2
#     Edge 62, Type (0, 0), BuildingBlock: ZUJKAS_clean_linker_0, # of connection points: 2
#     Edge 63, Type (0, 0), BuildingBlock: ZUJKAS_clean_linker_0, # of connection points: 2
#     Edge 64, Type (0, 0), BuildingBlock: ZUJKAS_clean_linker_0, # of connection points: 2
#     Edge 65, Type (0, 0), BuildingBlock: ZUJKAS_clean_linker_0, # of connection points: 2
#     Edge 66, Type (0, 0), BuildingBlock: ZUJKAS_clean_linker_0, # of connection points: 2
#     Edge 67, Type (0, 0), BuildingBlock: ZUJKAS_clean_linker_0, # of connection points: 2
#     Edge 68, Type (0, 0), BuildingBlock: ZUJKAS_clean_linker_0, # of connection points: 2
#     Edge 69, Type (0, 0), BuildingBlock: ZUJKAS_clean_linker_0, # of connection points: 2
#     Edge 70, Type (0, 0), BuildingBlock: ZUJKAS_clean_linker_0, # of connection points: 2
#     Edge 71, Type (0, 0), BuildingBlock: ZUJKAS_clean_linker_0, # of connection points: 2
#     Edge 72, Type (0, 0), BuildingBlock: ZUJKAS_clean_linker_0, # of connection points: 2
#     Edge 73, Type (0, 0), BuildingBlock: ZUJKAS_clean_linker_0, # of connection points: 2
#     Edge 74, Type (0, 0), BuildingBlock: ZUJKAS_clean_linker_0, # of connection points: 2
#     Edge 75, Type (0, 0), BuildingBlock: ZUJKAS_clean_linker_0, # of connection points: 2
#     Edge 76, Type (0, 0), BuildingBlock: ZUJKAS_clean_linker_0, # of connection points: 2
#     Edge 77, Type (0, 0), BuildingBlock: ZUJKAS_clean_linker_0, # of connection points: 2
#     Edge 78, Type (0, 0), BuildingBlock: ZUJKAS_clean_linker_0, # of connection points: 2
#     Edge 79, Type (0, 0), BuildingBlock: ZUJKAS_clean_linker_0, # of connection points: 2
#     Edge 80, Type (0, 0), BuildingBlock: ZUJKAS_clean_linker_0, # of connection points: 2
#     Edge 81, Type (0, 0), BuildingBlock: ZUJKAS_clean_linker_0, # of connection points: 2
#     Edge 82, Type (0, 0), BuildingBlock: ZUJKAS_clean_linker_0, # of connection points: 2
#     Edge 83, Type (0, 0), BuildingBlock: ZUJKAS_clean_linker_0, # of connection points: 2
#     Edge 84, Type (0, 0), BuildingBlock: ZUJKAS_clean_linker_0, # of connection points: 2
#     Edge 85, Type (0, 0), BuildingBlock: ZUJKAS_clean_linker_0, # of connection points: 2
#     Edge 86, Type (0, 0), BuildingBlock: ZUJKAS_clean_linker_0, # of connection points: 2
#     Edge 87, Type (0, 0), BuildingBlock: ZUJKAS_clean_linker_0, # of connection points: 2
#     Edge 88, Type (0, 0), BuildingBlock: ZUJKAS_clean_linker_0, # of connection points: 2
#     Edge 89, Type (0, 0), BuildingBlock: ZUJKAS_clean_linker_0, # of connection points: 2
#     Edge 90, Type (0, 0), BuildingBlock: ZUJKAS_clean_linker_0, # of connection points: 2
#     Edge 91, Type (0, 0), BuildingBlock: ZUJKAS_clean_linker_0, # of connection points: 2
#     Edge 92, Type (0, 0), BuildingBlock: ZUJKAS_clean_linker_0, # of connection points: 2
#     Edge 93, Type (0, 0), BuildingBlock: ZUJKAS_clean_linker_0, # of connection points: 2
#     Edge 94, Type (0, 0), BuildingBlock: ZUJKAS_clean_linker_0, # of connection points: 2
#     Edge 95, Type (0, 0), BuildingBlock: ZUJKAS_clean_linker_0, # of connection points: 2
# Relax obj value: 0.065
# Max RMSD: 0.118
# Mean RMSD: 0.118
data_MOF--net-mer--node1-CEKHIL_clean_sbu_0--edge1-ZUJKAS_clean_linker_0
_symmetry_space_group_name_H-M    P1
_symmetry_Int_Tables_number       1
_symmetry_cell_setting            triclinic
loop_
_symmetry_equiv_pos_as_xyz
'x, y, z'
_cell_length_a     80.56356
_cell_length_b     80.564588
_cell_length_c     69.466588
_cell_angle_alpha  89.994218
_cell_angle_beta   89.991036
_cell_angle_gamma 89.997113
loop_
_atom_site_label
_atom_site_type_symbol
_atom_site_fract_x
_atom_site_fract_y
_atom_site_fract_z
_atom_type_partial_charge
Co0 Co 0.11439 0.288 0.35684 0.0
O1 O 0.09288 0.29823 0.35741 0.0
O2 O 0.09769 0.27152 0.36261 0.0
C3 C 0.12311 0.30008 0.32949 0.0
O4 O 0.13467 0.27291 0.35667 0.0
Co5 Co 0.14665 0.30903 0.35953 0.0
O6 O 0.15701 0.28844 0.34935 0.0
C7 C 0.12654 0.3031 0.39441 0.0
C8 C 0.08702 0.28358 0.36124 0.0
C9 C 0.14994 0.27442 0.35152 0.0
O10 O 0.11738 0.29285 0.385 0.0
O11 O 0.13815 0.31163 0.38658 0.0
O12 O 0.11366 0.28702 0.32877 0.0
O13 O 0.12564 0.30617 0.34643 0.0
Co14 Co 0.7102 0.11353 0.35602 0.0
O15 O 0.70072 0.09166 0.35561 0.0
O16 O 0.7272 0.09726 0.36134 0.0
C17 C 0.69814 0.12292 0.32896 0.0
O18 O 0.72461 0.13427 0.35685 0.0
Co19 Co 0.68777 0.14468 0.36041 0.0
O20 O 0.70852 0.157 0.35471 0.0
C21 C 0.69398 0.12328 0.39396 0.0
C22 C 0.71551 0.08623 0.3596 0.0
C23 C 0.72275 0.15008 0.35519 0.0
O24 O 0.70506 0.11537 0.3843 0.0
O25 O 0.68472 0.13451 0.38654 0.0
O26 O 0.71144 0.11382 0.32795 0.0
O27 O 0.69175 0.12454 0.3459 0.0
Co28 Co 0.88387 0.71144 0.35583 0.0
O29 O 0.90586 0.70228 0.35637 0.0
O30 O 0.89978 0.72877 0.36134 0.0
C31 C 0.87547 0.69882 0.32868 0.0
O32 O 0.86284 0.72549 0.35568 0.0
Co33 Co 0.85304 0.68848 0.35947 0.0
O34 O 0.84075 0.70877 0.35178 0.0
C35 C 0.87332 0.69565 0.39373 0.0
C36 C 0.911 0.71719 0.3602 0.0
C37 C 0.84723 0.72319 0.3527 0.0
O38 O 0.88137 0.70667 0.38412 0.0
O39 O 0.86239 0.68615 0.38613 0.0
O40 O 0.88433 0.71229 0.32776 0.0
O41 O 0.87349 0.69266 0.34568 0.0
Co42 Co 0.28885 0.88412 0.35617 0.0
O43 O 0.2983 0.90597 0.35525 0.0
O44 O 0.27175 0.90051 0.3607 0.0
C45 C 0.30131 0.87434 0.32953 0.0
O46 O 0.27449 0.86333 0.35732 0.0
Co47 Co 0.31135 0.85315 0.3616 0.0
O48 O 0.29084 0.84081 0.35489 0.0
C49 C 0.30449 0.87499 0.39465 0.0
C50 C 0.28345 0.9115 0.35866 0.0
C51 C 0.27653 0.84756 0.35537 0.0
O52 O 0.29363 0.88284 0.38459 0.0
O53 O 0.31382 0.86361 0.38767 0.0
O54 O 0.28795 0.8833 0.32811 0.0
O55 O 0.30748 0.87302 0.34661 0.0
Co56 Co 0.11332 0.71069 0.6366 0.0
O57 O 0.09128 0.70163 0.63691 0.0
O58 O 0.09735 0.72804 0.63143 0.0
C59 C 0.12231 0.69829 0.66366 0.0
O60 O 0.13435 0.72471 0.63597 0.0
Co61 Co 0.14408 0.68772 0.63236 0.0
O62 O 0.15658 0.70809 0.6392 0.0
C63 C 0.1232 0.69474 0.59851 0.0
C64 C 0.0861 0.71656 0.63323 0.0
C65 C 0.15003 0.72248 0.63839 0.0
O66 O 0.11519 0.70571 0.60826 0.0
O67 O 0.1343 0.68533 0.60592 0.0
O68 O 0.11351 0.71178 0.66466 0.0
O69 O 0.12391 0.69196 0.64668 0.0
Co70 Co 0.28742 0.11454 0.63725 0.0
O71 O 0.2964 0.0925 0.63722 0.0
O72 O 0.27002 0.09871 0.63171 0.0
C73 C 0.29978 0.12306 0.66452 0.0
O74 O 0.27357 0.13569 0.63692 0.0
Co75 Co 0.31072 0.14515 0.63373 0.0
O76 O 0.29043 0.15766 0.64095 0.0
C77 C 0.30398 0.12448 0.59964 0.0
C78 C 0.28147 0.08741 0.63338 0.0
C79 C 0.27597 0.15129 0.63985 0.0
O80 O 0.29258 0.11674 0.60901 0.0
O81 O 0.31355 0.13526 0.6074 0.0
O82 O 0.28621 0.11436 0.66531 0.0
O83 O 0.30617 0.12484 0.6476 0.0
Co84 Co 0.88541 0.28955 0.63664 0.0
O85 O 0.90735 0.29881 0.63553 0.0
O86 O 0.90126 0.27231 0.63065 0.0
C87 C 0.87742 0.30207 0.66402 0.0
O88 O 0.86451 0.27537 0.63735 0.0
Co89 Co 0.85425 0.31223 0.63408 0.0
O90 O 0.84227 0.29177 0.64189 0.0
C91 C 0.87412 0.30565 0.59932 0.0
C92 C 0.91246 0.28391 0.63154 0.0
C93 C 0.84894 0.27744 0.64077 0.0
O94 O 0.88228 0.2944 0.60844 0.0
O95 O 0.86342 0.3151 0.60743 0.0
O96 O 0.88641 0.28867 0.66473 0.0
O97 O 0.8751 0.30822 0.64709 0.0
Co98 Co 0.71155 0.8866 0.63698 0.0
O99 O 0.7033 0.90893 0.63722 0.0
O100 O 0.72904 0.90177 0.62957 0.0
C101 C 0.70077 0.87884 0.66535 0.0
O102 O 0.72471 0.86507 0.63595 0.0
Co103 Co 0.68736 0.85664 0.63621 0.0
O104 O 0.70767 0.84367 0.64226 0.0
C105 C 0.69272 0.8762 0.60092 0.0
C106 C 0.71806 0.91346 0.63187 0.0
C107 C 0.72217 0.84963 0.6397 0.0
O108 O 0.70455 0.88414 0.60929 0.0
O109 O 0.6835 0.86567 0.60966 0.0
O110 O 0.7147 0.88697 0.66483 0.0
O111 O 0.69316 0.87713 0.64912 0.0
Co112 Co 0.88326 0.71151 0.63694 0.0
O113 O 0.90528 0.70252 0.63766 0.0
O114 O 0.89926 0.72887 0.6318 0.0
C115 C 0.87422 0.69923 0.66397 0.0
O116 O 0.86217 0.72541 0.63595 0.0
Co117 Co 0.85263 0.68848 0.63277 0.0
O118 O 0.84015 0.70871 0.64028 0.0
C119 C 0.87354 0.69543 0.59889 0.0
C120 C 0.9105 0.7174 0.63389 0.0
C121 C 0.84658 0.72313 0.63903 0.0
O122 O 0.88168 0.70628 0.60866 0.0
O123 O 0.86228 0.68618 0.60626 0.0
O124 O 0.88269 0.71293 0.66495 0.0
O125 O 0.87282 0.6927 0.64708 0.0
Co126 Co 0.28709 0.8847 0.63759 0.0
O127 O 0.29627 0.90667 0.63803 0.0
O128 O 0.26981 0.90078 0.6326 0.0
C129 C 0.29952 0.87551 0.66451 0.0
O130 O 0.27297 0.86374 0.63687 0.0
Co131 Co 0.30992 0.85388 0.63297 0.0
O132 O 0.28954 0.84145 0.63998 0.0
C133 C 0.30289 0.87503 0.59936 0.0
C134 C 0.28136 0.91195 0.63444 0.0
C135 C 0.27517 0.84804 0.63926 0.0
O136 O 0.29198 0.883 0.60923 0.0
O137 O 0.31227 0.86381 0.6066 0.0
O138 O 0.28607 0.88436 0.66564 0.0
O139 O 0.3058 0.87397 0.6475 0.0
Co140 Co 0.11431 0.28914 0.63718 0.0
O141 O 0.09227 0.29818 0.63673 0.0
O142 O 0.09853 0.27183 0.63113 0.0
C143 C 0.12253 0.30132 0.66465 0.0
O144 O 0.1354 0.2752 0.63714 0.0
Co145 Co 0.14509 0.31229 0.63435 0.0
O146 O 0.1574 0.29192 0.64169 0.0
C147 C 0.12511 0.30556 0.59973 0.0
C148 C 0.08724 0.28331 0.63252 0.0
C149 C 0.15098 0.2775 0.64035 0.0
O150 O 0.11694 0.29443 0.60903 0.0
O151 O 0.13598 0.31494 0.60763 0.0
O152 O 0.11373 0.2878 0.66523 0.0
O153 O 0.12455 0.30778 0.64781 0.0
Co154 Co 0.71296 0.11477 0.63637 0.0
O155 O 0.70396 0.09272 0.63586 0.0
O156 O 0.73035 0.09903 0.6306 0.0
C157 C 0.70053 0.1231 0.66366 0.0
O158 O 0.72691 0.13585 0.63645 0.0
Co159 Co 0.68995 0.14555 0.63295 0.0
O160 O 0.71023 0.15795 0.64043 0.0
C161 C 0.69678 0.12521 0.59867 0.0
C162 C 0.71888 0.08772 0.63179 0.0
C163 C 0.72464 0.15145 0.63947 0.0
O164 O 0.70794 0.11726 0.60815 0.0
O165 O 0.68733 0.13614 0.60634 0.0
O166 O 0.71404 0.11429 0.66441 0.0
O167 O 0.6942 0.12508 0.64673 0.0
Co168 Co 0.88315 0.28859 0.35628 0.0
O169 O 0.90471 0.29875 0.35628 0.0
O170 O 0.89989 0.27208 0.36174 0.0
C171 C 0.87392 0.30058 0.32909 0.0
O172 O 0.86286 0.27353 0.35662 0.0
Co173 Co 0.85108 0.30985 0.35972 0.0
O174 O 0.83996 0.28894 0.35186 0.0
C175 C 0.87218 0.30446 0.39384 0.0
C176 C 0.91057 0.2841 0.36007 0.0
C177 C 0.84721 0.27492 0.35323 0.0
O178 O 0.88068 0.29359 0.38452 0.0
O179 O 0.86077 0.31325 0.38606 0.0
O180 O 0.88335 0.2875 0.32818 0.0
O181 O 0.87177 0.30674 0.34606 0.0
Co182 Co 0.7084 0.88391 0.35833 0.0
O183 O 0.69915 0.90586 0.35892 0.0
O184 O 0.72552 0.8998 0.36469 0.0
C185 C 0.69653 0.87582 0.3306 0.0
O186 O 0.72254 0.86294 0.35827 0.0
Co187 Co 0.6855 0.85293 0.36057 0.0
O188 O 0.70605 0.84083 0.3534 0.0
C189 C 0.69155 0.87286 0.3954 0.0
C190 C 0.71395 0.911 0.36328 0.0
C191 C 0.7204 0.84737 0.3549 0.0
O192 O 0.70289 0.88101 0.38641 0.0
O193 O 0.68227 0.86206 0.3872 0.0
O194 O 0.70998 0.88474 0.33031 0.0
O195 O 0.68994 0.87359 0.34734 0.0
Co196 Co 0.11325 0.71168 0.35526 0.0
O197 O 0.09125 0.70253 0.35539 0.0
O198 O 0.09732 0.72895 0.3608 0.0
C199 C 0.12196 0.69935 0.32803 0.0
O200 O 0.13426 0.72574 0.35556 0.0
Co201 Co 0.14407 0.68872 0.35903 0.0
O202 O 0.15647 0.70913 0.35203 0.0
C203 C 0.12364 0.69576 0.39321 0.0
C204 C 0.08609 0.71742 0.35933 0.0
C205 C 0.14993 0.72352 0.35294 0.0
O206 O 0.1155 0.70667 0.38354 0.0
O207 O 0.13469 0.68636 0.38567 0.0
O208 O 0.11308 0.71281 0.32721 0.0
O209 O 0.12376 0.69299 0.34496 0.0
Co210 Co 0.28966 0.11493 0.35628 0.0
O211 O 0.2991 0.09307 0.35508 0.0
O212 O 0.27258 0.09853 0.36071 0.0
C213 C 0.30194 0.12507 0.32971 0.0
O214 O 0.27529 0.13568 0.35759 0.0
Co215 Co 0.31233 0.14581 0.36208 0.0
O216 O 0.29149 0.15848 0.35821 0.0
C217 C 0.30605 0.12323 0.39451 0.0
C218 C 0.28424 0.08754 0.35847 0.0
C219 C 0.27729 0.15153 0.35752 0.0
O220 O 0.29458 0.11599 0.38473 0.0
O221 O 0.31563 0.13431 0.38737 0.0
O222 O 0.28865 0.11601 0.32823 0.0
O223 O 0.30821 0.12616 0.34676 0.0
Co224 Co 0.61578 0.78951 0.85536 0.0
O225 O 0.59382 0.79867 0.85414 0.0
O226 O 0.59961 0.77234 0.86049 0.0
C227 C 0.62545 0.80133 0.82835 0.0
O228 O 0.63671 0.77544 0.85693 0.0
Co229 Co 0.64657 0.81231 0.85989 0.0
O230 O 0.65895 0.79188 0.85282 0.0
C231 C 0.62519 0.80576 0.89346 0.0
C232 C 0.58847 0.78386 0.8581 0.0
C233 C 0.65235 0.77754 0.85409 0.0
O234 O 0.61703 0.79499 0.8836 0.0
O235 O 0.63666 0.81484 0.88625 0.0
O236 O 0.61674 0.78777 0.82739 0.0
O237 O 0.6266 0.80808 0.84515 0.0
Co238 Co 0.21175 0.61403 0.85505 0.0
O239 O 0.20233 0.59214 0.85594 0.0
O240 O 0.2289 0.598 0.86067 0.0
C241 C 0.19912 0.62238 0.82785 0.0
O242 O 0.22614 0.6348 0.85447 0.0
Co243 Co 0.18944 0.64537 0.85826 0.0
O244 O 0.20993 0.65722 0.85031 0.0
C245 C 0.1961 0.62516 0.89274 0.0
C246 C 0.21722 0.58688 0.8597 0.0
C247 C 0.22419 0.65042 0.85122 0.0
O248 O 0.20713 0.61691 0.88335 0.0
O249 O 0.18674 0.63608 0.88489 0.0
O250 O 0.21244 0.61329 0.82695 0.0
O251 O 0.19309 0.62462 0.84487 0.0
Co252 Co 0.38443 0.20993 0.85699 0.0
O253 O 0.40631 0.20054 0.85769 0.0
O254 O 0.4005 0.22708 0.86268 0.0
C255 C 0.37619 0.19748 0.82966 0.0
O256 O 0.36356 0.22422 0.85659 0.0
Co257 Co 0.35323 0.18733 0.85986 0.0
O258 O 0.34141 0.20777 0.85172 0.0
C259 C 0.37317 0.19411 0.89457 0.0
C260 C 0.41162 0.21541 0.86139 0.0
C261 C 0.34802 0.22211 0.85298 0.0
O262 O 0.38156 0.20507 0.88525 0.0
O263 O 0.36225 0.1848 0.88662 0.0
O264 O 0.38517 0.21087 0.82891 0.0
O265 O 0.37396 0.1913 0.84661 0.0
Co266 Co 0.78761 0.38442 0.8561 0.0
O267 O 0.79638 0.40657 0.85645 0.0
O268 O 0.77006 0.40002 0.86185 0.0
C269 C 0.80009 0.37627 0.82874 0.0
O270 O 0.77387 0.3632 0.8561 0.0
Co271 Co 0.81097 0.3538 0.85908 0.0
O272 O 0.79073 0.3413 0.85169 0.0
C273 C 0.80407 0.37395 0.89358 0.0
C274 C 0.78138 0.41146 0.86032 0.0
C275 C 0.77626 0.34764 0.85292 0.0
O276 O 0.79276 0.38192 0.88432 0.0
O277 O 0.81361 0.36323 0.88563 0.0
O278 O 0.78645 0.38489 0.82803 0.0
O279 O 0.80643 0.37434 0.84565 0.0
Co280 Co 0.61441 0.21119 0.13674 0.0
O281 O 0.59236 0.20219 0.13605 0.0
O282 O 0.5987 0.22858 0.13085 0.0
C283 C 0.62257 0.19877 0.16412 0.0
O284 O 0.63552 0.22509 0.13697 0.0
Co285 Co 0.64513 0.18803 0.13361 0.0
O286 O 0.65749 0.2083 0.14124 0.0
C287 C 0.62529 0.19523 0.09902 0.0
C288 C 0.58738 0.21711 0.13197 0.0
C289 C 0.65109 0.22274 0.14013 0.0
O290 O 0.61711 0.20622 0.10852 0.0
O291 O 0.63615 0.18573 0.10677 0.0
O292 O 0.61375 0.21227 0.16479 0.0
O293 O 0.62462 0.19242 0.14722 0.0
Co294 Co 0.78879 0.61499 0.1356 0.0
O295 O 0.79782 0.59296 0.13467 0.0
O296 O 0.77136 0.59925 0.12987 0.0
C297 C 0.80152 0.62285 0.16293 0.0
O298 O 0.77484 0.63607 0.13627 0.0
Co299 Co 0.81183 0.64585 0.13283 0.0
O300 O 0.79161 0.65798 0.14106 0.0
C301 C 0.80457 0.62625 0.098 0.0
C302 C 0.78284 0.58793 0.13099 0.0
C303 C 0.77718 0.65158 0.13988 0.0
O304 O 0.79356 0.61795 0.10734 0.0
O305 O 0.81407 0.637 0.10595 0.0
O306 O 0.78798 0.61409 0.16368 0.0
O307 O 0.80765 0.6251 0.14596 0.0
Co308 Co 0.38617 0.78757 0.13717 0.0
O309 O 0.40822 0.79657 0.13651 0.0
O310 O 0.40186 0.77023 0.131 0.0
C311 C 0.37811 0.79967 0.16478 0.0
O312 O 0.36507 0.77365 0.13737 0.0
Co313 Co 0.3554 0.81076 0.13466 0.0
O314 O 0.34308 0.79038 0.14198 0.0
C315 C 0.37527 0.8042 0.0999 0.0
C316 C 0.4132 0.78167 0.13233 0.0
C317 C 0.34951 0.77596 0.14067 0.0
O318 O 0.38332 0.79287 0.10902 0.0
O319 O 0.3646 0.81368 0.10802 0.0
O320 O 0.38695 0.78618 0.16521 0.0
O321 O 0.376 0.8062 0.14798 0.0
Co322 Co 0.21126 0.38522 0.13806 0.0
O323 O 0.20209 0.4072 0.13815 0.0
O324 O 0.22856 0.40125 0.13287 0.0
C325 C 0.1987 0.3764 0.1651 0.0
O326 O 0.22533 0.36422 0.1377 0.0
Co327 Co 0.18834 0.35433 0.13416 0.0
O328 O 0.20873 0.34202 0.14145 0.0
C329 C 0.19532 0.37508 0.10016 0.0
C330 C 0.21701 0.41245 0.13456 0.0
C331 C 0.22311 0.34857 0.14048 0.0
O332 O 0.20638 0.38312 0.10973 0.0
O333 O 0.18587 0.3641 0.10776 0.0
O334 O 0.21219 0.38521 0.16617 0.0
O335 O 0.19252 0.37467 0.14808 0.0
Co336 Co 0.38579 0.21202 0.13726 0.0
O337 O 0.40785 0.20305 0.13659 0.0
O338 O 0.40141 0.22927 0.13044 0.0
C339 C 0.37803 0.20041 0.16527 0.0
O340 O 0.36463 0.22584 0.1373 0.0
Co341 Co 0.35515 0.18859 0.13573 0.0
O342 O 0.34279 0.20906 0.14258 0.0
C343 C 0.37447 0.19483 0.10047 0.0
C344 C 0.41277 0.21786 0.13193 0.0
C345 C 0.3491 0.2235 0.14078 0.0
O346 O 0.38271 0.20619 0.1093 0.0
O347 O 0.36386 0.18548 0.10889 0.0
O348 O 0.3868 0.21395 0.16525 0.0
O349 O 0.37582 0.19356 0.14867 0.0
Co350 Co 0.78762 0.38553 0.1366 0.0
O351 O 0.79668 0.40754 0.13606 0.0
O352 O 0.77032 0.40133 0.13053 0.0
C353 C 0.79976 0.37743 0.16418 0.0
O354 O 0.77368 0.36443 0.13673 0.0
Co355 Co 0.81085 0.35476 0.1341 0.0
O356 O 0.79046 0.34252 0.14157 0.0
C357 C 0.80417 0.37459 0.09932 0.0
C358 C 0.7818 0.41262 0.13198 0.0
C359 C 0.77603 0.34889 0.14015 0.0
O360 O 0.7929 0.38273 0.10846 0.0
O361 O 0.81362 0.36389 0.10741 0.0
O362 O 0.78624 0.38624 0.16466 0.0
O363 O 0.80625 0.37535 0.14736 0.0
Co364 Co 0.61492 0.78849 0.13655 0.0
O365 O 0.59283 0.79739 0.13562 0.0
O366 O 0.59928 0.77092 0.1311 0.0
C367 C 0.62296 0.80146 0.16362 0.0
O368 O 0.63608 0.77466 0.13713 0.0
Co369 Co 0.6456 0.81166 0.13301 0.0
O370 O 0.65799 0.79158 0.14121 0.0
C371 C 0.62562 0.80408 0.09861 0.0
C372 C 0.58791 0.78237 0.13195 0.0
C373 C 0.65163 0.77711 0.14036 0.0
O374 O 0.61761 0.79303 0.10822 0.0
O375 O 0.6364 0.81373 0.10625 0.0
O376 O 0.61424 0.78791 0.16462 0.0
O377 O 0.62503 0.80748 0.14657 0.0
Co378 Co 0.21116 0.61524 0.13636 0.0
O379 O 0.20192 0.59328 0.13638 0.0
O380 O 0.22839 0.59918 0.13109 0.0
C381 C 0.19872 0.6241 0.16347 0.0
O382 O 0.22536 0.63614 0.13607 0.0
Co383 Co 0.18849 0.64628 0.13248 0.0
O384 O 0.20896 0.6585 0.13968 0.0
C385 C 0.19517 0.62544 0.09849 0.0
C386 C 0.21683 0.58801 0.13275 0.0
C387 C 0.22328 0.65181 0.13881 0.0
O388 O 0.20627 0.61742 0.10802 0.0
O389 O 0.18577 0.63645 0.10612 0.0
O390 O 0.21214 0.61518 0.16445 0.0
O391 O 0.19249 0.6259 0.14647 0.0
Co392 Co 0.38511 0.78833 0.85643 0.0
O393 O 0.40686 0.79805 0.85664 0.0
O394 O 0.40152 0.77144 0.8618 0.0
C395 C 0.37627 0.80064 0.82925 0.0
O396 O 0.36449 0.7737 0.85643 0.0
Co397 Co 0.35361 0.81038 0.85998 0.0
O398 O 0.34191 0.78972 0.8524 0.0
C399 C 0.37434 0.80415 0.89417 0.0
C400 C 0.41245 0.78325 0.86024 0.0
C401 C 0.34883 0.77551 0.85336 0.0
O402 O 0.38262 0.79317 0.88474 0.0
O403 O 0.36321 0.81331 0.88641 0.0
O404 O 0.38544 0.78739 0.82834 0.0
O405 O 0.37418 0.80679 0.84623 0.0
Co406 Co 0.21141 0.38473 0.85654 0.0
O407 O 0.2021 0.40662 0.85794 0.0
O408 O 0.22873 0.40066 0.86196 0.0
C409 C 0.19824 0.37677 0.82956 0.0
O410 O 0.2256 0.36382 0.85542 0.0
Co411 Co 0.18874 0.3536 0.85983 0.0
O412 O 0.20899 0.34168 0.85126 0.0
C413 C 0.19631 0.37336 0.89443 0.0
C414 C 0.21705 0.4118 0.86143 0.0
C415 C 0.22337 0.34826 0.85201 0.0
O416 O 0.20724 0.3816 0.88489 0.0
O417 O 0.18669 0.36262 0.88666 0.0
O418 O 0.21163 0.38574 0.82844 0.0
O419 O 0.1925 0.37441 0.84668 0.0
Co420 Co 0.6146 0.20983 0.85561 0.0
O421 O 0.59263 0.20063 0.85566 0.0
O422 O 0.59856 0.2271 0.86094 0.0
C423 C 0.62339 0.1974 0.82849 0.0
O424 O 0.63559 0.22392 0.85588 0.0
Co425 Co 0.64545 0.1869 0.85953 0.0
O426 O 0.65772 0.20724 0.852 0.0
C427 C 0.62488 0.19399 0.89361 0.0
C428 C 0.58738 0.21552 0.85938 0.0
C429 C 0.65122 0.22165 0.85297 0.0
O430 O 0.61678 0.20494 0.88393 0.0
O431 O 0.63591 0.18456 0.8861 0.0
O432 O 0.6145 0.21084 0.82753 0.0
O433 O 0.62516 0.19113 0.84547 0.0
Co434 Co 0.78643 0.61331 0.85516 0.0
O435 O 0.79501 0.59113 0.8554 0.0
O436 O 0.76891 0.59788 0.86176 0.0
C437 C 0.79815 0.62097 0.82725 0.0
O438 O 0.77296 0.63468 0.85544 0.0
Co439 Co 0.81015 0.64361 0.85673 0.0
O440 O 0.78993 0.65618 0.84934 0.0
C441 C 0.80371 0.6243 0.892 0.0
C442 C 0.78013 0.58636 0.85994 0.0
C443 C 0.77544 0.65009 0.85146 0.0
O444 O 0.79241 0.616 0.88313 0.0
O445 O 0.81302 0.63498 0.88363 0.0
O446 O 0.78427 0.61275 0.82719 0.0
O447 O 0.80515 0.62293 0.8438 0.0
H448 H 0.24879 0.14633 0.33712 0.0
H449 H 0.22546 0.16564 0.33324 0.0
H450 H 0.24889 0.19968 0.37279 0.0
H451 H 0.27258 0.18096 0.37568 0.0
H452 H 0.20296 0.17834 0.35518 0.0
H453 H 0.24164 0.23015 0.32912 0.0
H454 H 0.24988 0.20954 0.3323 0.0
H455 H 0.24861 0.22368 0.35241 0.0
C456 C 0.2489 0.15796 0.34495 0.0
C457 C 0.26255 0.16232 0.35646 0.0
C458 C 0.23559 0.16898 0.34273 0.0
C459 C 0.23564 0.18437 0.35225 0.0
C460 C 0.24886 0.18822 0.36465 0.0
H461 H 0.15171 0.24791 0.37561 0.0
H462 H 0.17148 0.22491 0.37406 0.0
C463 C 0.26233 0.17746 0.36644 0.0
C464 C 0.22196 0.19648 0.34926 0.0
H465 H 0.21455 0.23746 0.34067 0.0
C466 C 0.20546 0.19124 0.35175 0.0
C467 C 0.22511 0.21321 0.3442 0.0
C468 C 0.24226 0.2194 0.33913 0.0
C469 C 0.19213 0.2024 0.35006 0.0
C470 C 0.19543 0.21943 0.34667 0.0
C471 C 0.2119 0.22449 0.34353 0.0
C472 C 0.18226 0.23238 0.34678 0.0
C473 C 0.1747 0.19567 0.35163 0.0
C474 C 0.18188 0.24455 0.33226 0.0
C475 C 0.17109 0.25806 0.33361 0.0
C476 C 0.16013 0.25941 0.34921 0.0
C477 C 0.15991 0.24695 0.3633 0.0
C478 C 0.17111 0.23371 0.3623 0.0
H479 H 0.17411 0.18256 0.34671 0.0
H480 H 0.17076 0.1959 0.36693 0.0
H481 H 0.16579 0.20308 0.343 0.0
H482 H 0.1903 0.24386 0.32012 0.0
H483 H 0.17141 0.26756 0.32256 0.0
H484 H 0.75527 0.1406 0.35055 0.0
H485 H 0.77982 0.15863 0.34945 0.0
H486 H 0.74863 0.20161 0.35683 0.0
H487 H 0.72408 0.18389 0.3578 0.0
H488 H 0.78184 0.19184 0.32172 0.0
H489 H 0.78878 0.19869 0.40109 0.0
H490 H 0.77991 0.18034 0.39019 0.0
H491 H 0.76808 0.19916 0.39124 0.0
C492 C 0.75362 0.15389 0.35193 0.0
C493 C 0.73769 0.16079 0.35427 0.0
C494 C 0.76765 0.16414 0.35127 0.0
C495 C 0.76594 0.18137 0.35314 0.0
C496 C 0.75012 0.1883 0.35542 0.0
H497 H 0.81604 0.27214 0.33818 0.0
H498 H 0.79851 0.24745 0.33704 0.0
C499 C 0.73612 0.17813 0.35593 0.0
C500 C 0.78057 0.19236 0.35266 0.0
H501 H 0.80436 0.21703 0.38146 0.0
C502 C 0.78698 0.19717 0.33475 0.0
C503 C 0.78722 0.19916 0.36972 0.0
C504 C 0.78077 0.19407 0.38923 0.0
C505 C 0.79946 0.20928 0.33346 0.0
C506 C 0.8055 0.21674 0.35049 0.0
C507 C 0.79966 0.21129 0.36844 0.0
C508 C 0.81676 0.23121 0.34996 0.0
C509 C 0.80584 0.21431 0.3139 0.0
C510 C 0.8328 0.23024 0.3577 0.0
C511 C 0.84293 0.24434 0.35831 0.0
C512 C 0.83701 0.2597 0.35151 0.0
C513 C 0.82096 0.26053 0.34361 0.0
C514 C 0.81096 0.24642 0.34281 0.0
H515 H 0.80314 0.20471 0.30284 0.0
H516 H 0.79969 0.22602 0.30943 0.0
H517 H 0.81943 0.21655 0.31432 0.0
H518 H 0.83741 0.21861 0.36342 0.0
H519 H 0.8552 0.2433 0.36456 0.0
H520 H 0.81419 0.72331 0.34386 0.0
H521 H 0.79528 0.74689 0.34362 0.0
H522 H 0.83565 0.77972 0.35807 0.0
H523 H 0.85486 0.75613 0.35823 0.0
H524 H 0.7897 0.76761 0.37621 0.0
H525 H 0.81183 0.80334 0.31254 0.0
H526 H 0.81685 0.78169 0.31605 0.0
H527 H 0.82717 0.79731 0.33003 0.0
C528 C 0.81916 0.73553 0.34683 0.0
C529 C 0.83607 0.73778 0.35116 0.0
C530 C 0.8083 0.74901 0.34666 0.0
C531 C 0.81409 0.76504 0.35072 0.0
C532 C 0.831 0.76747 0.35463 0.0
H533 H 0.75326 0.85534 0.36053 0.0
H534 H 0.77711 0.83642 0.36004 0.0
C535 C 0.84193 0.75395 0.35479 0.0
C536 C 0.80206 0.77887 0.35203 0.0
H537 H 0.7892 0.81445 0.32984 0.0
C538 C 0.78964 0.7779 0.36615 0.0
C539 C 0.80215 0.79235 0.339 0.0
C540 C 0.81513 0.79379 0.32344 0.0
C541 C 0.77706 0.78986 0.36731 0.0
C542 C 0.77672 0.80296 0.35378 0.0
C543 C 0.78948 0.80432 0.34011 0.0
C544 C 0.7626 0.81468 0.35297 0.0
C545 C 0.76414 0.78828 0.38294 0.0
C546 C 0.74667 0.80875 0.34869 0.0
C547 C 0.73306 0.81944 0.34898 0.0
C548 C 0.73511 0.83635 0.35347 0.0
C549 C 0.75121 0.84239 0.35711 0.0
C550 C 0.76486 0.83162 0.35682 0.0
H551 H 0.76864 0.78054 0.3951 0.0
H552 H 0.76051 0.80066 0.38858 0.0
H553 H 0.7529 0.78225 0.37692 0.0
H554 H 0.74474 0.79576 0.34533 0.0
H555 H 0.72091 0.81436 0.34589 0.0
H556 H 0.14156 0.75655 0.35565 0.0
H557 H 0.16045 0.78041 0.35579 0.0
H558 H 0.20214 0.74757 0.34794 0.0
H559 H 0.18356 0.72373 0.34783 0.0
H560 H 0.20429 0.77089 0.37994 0.0
H561 H 0.188 0.80088 0.31013 0.0
H562 H 0.17132 0.79522 0.32611 0.0
H563 H 0.18353 0.7793 0.31495 0.0
C564 C 0.15473 0.7544 0.35377 0.0
C565 C 0.16102 0.73818 0.35181 0.0
C566 C 0.16548 0.76807 0.35378 0.0
C567 C 0.18264 0.76571 0.35177 0.0
C568 C 0.18891 0.74961 0.34948 0.0
H569 H 0.27595 0.81384 0.35133 0.0
H570 H 0.25185 0.79561 0.35108 0.0
C571 C 0.17824 0.73599 0.34943 0.0
C572 C 0.19435 0.7798 0.35309 0.0
H573 H 0.20946 0.81313 0.32829 0.0
C574 C 0.20533 0.78022 0.36874 0.0
C575 C 0.19552 0.79201 0.33854 0.0
C576 C 0.18406 0.79191 0.32138 0.0
C577 C 0.21781 0.79227 0.36997 0.0
C578 C 0.21954 0.804 0.35496 0.0
C579 C 0.20811 0.80405 0.33971 0.0
C580 C 0.23391 0.81539 0.35423 0.0
C581 C 0.22922 0.79222 0.3872 0.0
C582 C 0.23175 0.83263 0.3555 0.0
C583 C 0.24556 0.84319 0.35561 0.0
C584 C 0.26174 0.83664 0.35434 0.0
C585 C 0.26373 0.81935 0.35251 0.0
C586 C 0.24996 0.80887 0.35242 0.0
H587 H 0.2235 0.78575 0.39968 0.0
H588 H 0.24085 0.78559 0.38343 0.0
H589 H 0.2325 0.80507 0.39158 0.0
H590 H 0.21942 0.83788 0.35677 0.0
H591 H 0.24356 0.85643 0.35695 0.0
H592 H 0.1415 0.75553 0.63709 0.0
H593 H 0.1603 0.77949 0.63727 0.0
H594 H 0.20226 0.74662 0.64257 0.0
H595 H 0.18378 0.7227 0.64236 0.0
H596 H 0.18582 0.78887 0.66588 0.0
H597 H 0.21143 0.77513 0.59347 0.0
H598 H 0.19204 0.76655 0.60193 0.0
H599 H 0.21142 0.75767 0.60955 0.0
C600 C 0.15473 0.75339 0.63836 0.0
C601 C 0.16112 0.73715 0.63952 0.0
C602 C 0.16542 0.7671 0.63849 0.0
C603 C 0.18264 0.76475 0.63964 0.0
C604 C 0.18901 0.74863 0.64136 0.0
H605 H 0.27488 0.81433 0.64356 0.0
H606 H 0.25092 0.79589 0.64392 0.0
C607 C 0.17839 0.73497 0.64129 0.0
C608 C 0.19417 0.779 0.63876 0.0
H609 H 0.22674 0.79421 0.61284 0.0
C610 C 0.19462 0.79025 0.65417 0.0
C611 C 0.20552 0.78076 0.62338 0.0
C612 C 0.20503 0.76949 0.60604 0.0
C613 C 0.2068 0.80272 0.65508 0.0
C614 C 0.21862 0.80395 0.64011 0.0
C615 C 0.2177 0.79313 0.62434 0.0
C616 C 0.23282 0.81555 0.64107 0.0
C617 C 0.20746 0.81399 0.6724 0.0
C618 C 0.23052 0.83275 0.63943 0.0
C619 C 0.24425 0.84341 0.63917 0.0
C620 C 0.26048 0.837 0.64049 0.0
C621 C 0.26261 0.81974 0.64246 0.0
C622 C 0.24893 0.80915 0.64268 0.0
H623 H 0.19879 0.80997 0.68393 0.0
H624 H 0.22025 0.81437 0.67835 0.0
H625 H 0.20409 0.82679 0.668 0.0
H626 H 0.21816 0.83788 0.63795 0.0
H627 H 0.24214 0.85662 0.63763 0.0
H628 H 0.27602 0.18437 0.6485 0.0
H629 H 0.25246 0.20331 0.64918 0.0
H630 H 0.21944 0.16303 0.63495 0.0
H631 H 0.243 0.1438 0.6344 0.0
H632 H 0.23135 0.20943 0.61744 0.0
H633 H 0.19639 0.1861 0.68109 0.0
H634 H 0.21793 0.18098 0.67694 0.0
H635 H 0.20198 0.17103 0.66311 0.0
C636 C 0.26376 0.17943 0.64565 0.0
C637 C 0.26144 0.16253 0.64132 0.0
C638 C 0.2503 0.19031 0.64607 0.0
C639 C 0.23422 0.18455 0.64226 0.0
C640 C 0.23174 0.16766 0.63823 0.0
H641 H 0.14338 0.24461 0.63437 0.0
H642 H 0.16259 0.221 0.63443 0.0
C643 C 0.24523 0.15672 0.63783 0.0
C644 C 0.22034 0.19656 0.64142 0.0
H645 H 0.18481 0.20877 0.66424 0.0
C646 C 0.22113 0.20924 0.62761 0.0
C647 C 0.20696 0.19615 0.6546 0.0
C648 C 0.20572 0.18292 0.66989 0.0
C649 C 0.20908 0.22175 0.62686 0.0
C650 C 0.19606 0.22174 0.6405 0.0
C651 C 0.19489 0.20874 0.65388 0.0
C652 C 0.18416 0.23569 0.64166 0.0
C653 C 0.21045 0.23496 0.61153 0.0
C654 C 0.1899 0.25164 0.64622 0.0
C655 C 0.17904 0.26511 0.64618 0.0
C656 C 0.16215 0.26291 0.64167 0.0
C657 C 0.15631 0.24677 0.63782 0.0
C658 C 0.16724 0.23326 0.63785 0.0
H659 H 0.2182 0.23076 0.59922 0.0
H660 H 0.19801 0.23854 0.60604 0.0
H661 H 0.21638 0.24616 0.61778 0.0
H662 H 0.20287 0.25369 0.64956 0.0
H663 H 0.18397 0.27729 0.64944 0.0
H664 H 0.7249 0.18463 0.64776 0.0
H665 H 0.74883 0.20305 0.64984 0.0
H666 H 0.78155 0.16197 0.63793 0.0
H667 H 0.75761 0.14333 0.63563 0.0
H668 H 0.77715 0.20079 0.67459 0.0
H669 H 0.7938 0.19727 0.59685 0.0
H670 H 0.77384 0.19063 0.60584 0.0
H671 H 0.79184 0.1779 0.60952 0.0
C672 C 0.73715 0.17944 0.64557 0.0
C673 C 0.73929 0.16248 0.64139 0.0
C674 C 0.75082 0.19001 0.64682 0.0
C675 C 0.7669 0.1839 0.64383 0.0
C676 C 0.76919 0.16695 0.64001 0.0
H677 H 0.85719 0.24466 0.63556 0.0
H678 H 0.83883 0.22051 0.63795 0.0
C679 C 0.75549 0.15632 0.63878 0.0
C680 C 0.78115 0.19547 0.64457 0.0
H681 H 0.80988 0.21488 0.61633 0.0
C682 C 0.78443 0.20377 0.66191 0.0
C683 C 0.79065 0.19923 0.62802 0.0
C684 C 0.78737 0.19091 0.60893 0.0
C685 C 0.79671 0.21607 0.66303 0.0
C686 C 0.80572 0.22035 0.64628 0.0
C687 C 0.80292 0.21157 0.62913 0.0
C688 C 0.81712 0.23476 0.64584 0.0
C689 C 0.79983 0.22449 0.68209 0.0
C690 C 0.81093 0.25074 0.64935 0.0
C691 C 0.82133 0.26454 0.64796 0.0
C692 C 0.83814 0.26265 0.64293 0.0
C693 C 0.84434 0.24657 0.63953 0.0
C694 C 0.83388 0.23275 0.64087 0.0
H695 H 0.79585 0.21656 0.69434 0.0
H696 H 0.81317 0.22759 0.68389 0.0
H697 H 0.79259 0.23619 0.68271 0.0
H698 H 0.79795 0.25259 0.65279 0.0
H699 H 0.81609 0.2767 0.65065 0.0
H700 H 0.85423 0.75592 0.63279 0.0
H701 H 0.83552 0.77983 0.63492 0.0
H702 H 0.7953 0.74739 0.65106 0.0
H703 H 0.81379 0.72351 0.64913 0.0
H704 H 0.80582 0.78454 0.61367 0.0
H705 H 0.7938 0.7841 0.6922 0.0
H706 H 0.81113 0.77331 0.68144 0.0
H707 H 0.79072 0.76425 0.68102 0.0
C708 C 0.84144 0.75388 0.63695 0.0
C709 C 0.83553 0.73776 0.64079 0.0
C710 C 0.83078 0.76755 0.63815 0.0
C711 C 0.81411 0.76538 0.64342 0.0
C712 C 0.80821 0.74936 0.64734 0.0
H713 H 0.72202 0.81655 0.64858 0.0
H714 H 0.74563 0.79762 0.64973 0.0
C715 C 0.81879 0.7357 0.64607 0.0
C716 C 0.80255 0.77964 0.64389 0.0
H717 H 0.77478 0.79968 0.67281 0.0
C718 C 0.79921 0.78807 0.62664 0.0
C719 C 0.79399 0.78418 0.66086 0.0
C720 C 0.79769 0.7761 0.67998 0.0
C721 C 0.78688 0.80036 0.62569 0.0
C722 C 0.77789 0.80445 0.64253 0.0
C723 C 0.78166 0.79644 0.65992 0.0
C724 C 0.76382 0.81625 0.64214 0.0
C725 C 0.78303 0.80831 0.60653 0.0
C726 C 0.76628 0.83306 0.63772 0.0
C727 C 0.75278 0.84396 0.63701 0.0
C728 C 0.73659 0.83823 0.64077 0.0
C729 C 0.73427 0.8214 0.6455 0.0
C730 C 0.74776 0.81055 0.64622 0.0
H731 H 0.78886 0.80152 0.59436 0.0
H732 H 0.76942 0.80883 0.60411 0.0
H733 H 0.78782 0.82122 0.60647 0.0
H734 H 0.77863 0.83774 0.63483 0.0
H735 H 0.75504 0.85685 0.63343 0.0
H736 H 0.64414 0.74487 0.86014 0.0
H737 H 0.66247 0.72068 0.85811 0.0
H738 H 0.70337 0.75247 0.84258 0.0
H739 H 0.68525 0.77669 0.84444 0.0
H740 H 0.69919 0.72287 0.81909 0.0
H741 H 0.69985 0.70997 0.89789 0.0
H742 H 0.67987 0.71207 0.88659 0.0
H743 H 0.69338 0.72973 0.88818 0.0
C744 C 0.65703 0.74674 0.85627 0.0
C745 C 0.66324 0.76276 0.85258 0.0
C746 C 0.66748 0.7329 0.85519 0.0
C747 C 0.68427 0.73486 0.85039 0.0
C748 C 0.69044 0.75075 0.84636 0.0
H749 H 0.7753 0.68245 0.83963 0.0
H750 H 0.75174 0.70139 0.83814 0.0
C751 C 0.68005 0.76458 0.8475 0.0
C752 C 0.69561 0.72044 0.84968 0.0
H753 H 0.71599 0.69259 0.87817 0.0
C754 C 0.70278 0.71614 0.83197 0.0
C755 C 0.70015 0.71167 0.8665 0.0
C756 C 0.69304 0.71608 0.88593 0.0
C757 C 0.71466 0.70346 0.83068 0.0
C758 C 0.7197 0.69514 0.84762 0.0
C759 C 0.71209 0.69903 0.86522 0.0
C760 C 0.73371 0.68325 0.84765 0.0
C761 C 0.7218 0.69916 0.81123 0.0
C762 C 0.73141 0.66682 0.85379 0.0
C763 C 0.74491 0.65592 0.85474 0.0
C764 C 0.76096 0.66135 0.84979 0.0
C765 C 0.76314 0.67783 0.84357 0.0
C766 C 0.74966 0.68866 0.84255 0.0
H767 H 0.71332 0.7029 0.79939 0.0
H768 H 0.7337 0.70589 0.80925 0.0
H769 H 0.7243 0.68564 0.81004 0.0
H770 H 0.7192 0.66247 0.85793 0.0
H771 H 0.74278 0.64334 0.85964 0.0
H772 H 0.22517 0.68335 0.84179 0.0
H773 H 0.24944 0.70126 0.83952 0.0
H774 H 0.28127 0.65991 0.85328 0.0
H775 H 0.25696 0.64177 0.85579 0.0
H776 H 0.28749 0.68849 0.87521 0.0
H777 H 0.28501 0.70361 0.79755 0.0
H778 H 0.2655 0.70689 0.80943 0.0
H779 H 0.27394 0.68625 0.80784 0.0
C780 C 0.23731 0.67796 0.84421 0.0
C781 C 0.23908 0.66108 0.84899 0.0
C782 C 0.2512 0.68822 0.84275 0.0
C783 C 0.26716 0.68185 0.84591 0.0
C784 C 0.26905 0.66502 0.85062 0.0
H785 H 0.35794 0.74271 0.85649 0.0
H786 H 0.33998 0.71827 0.85376 0.0
C787 C 0.25513 0.65469 0.85203 0.0
C788 C 0.28166 0.69313 0.84545 0.0
H789 H 0.30074 0.72227 0.81749 0.0
C790 C 0.29064 0.69567 0.86251 0.0
C791 C 0.28575 0.7024 0.82882 0.0
C792 C 0.27715 0.69954 0.80982 0.0
C793 C 0.30291 0.708 0.86372 0.0
C794 C 0.30639 0.71784 0.84735 0.0
C795 C 0.29797 0.71475 0.83004 0.0
C796 C 0.3176 0.73237 0.84835 0.0
C797 C 0.31141 0.71102 0.88276 0.0
C798 C 0.31102 0.74832 0.84578 0.0
C799 C 0.32119 0.76226 0.84726 0.0
C800 C 0.33823 0.76056 0.85128 0.0
C801 C 0.34487 0.7445 0.85349 0.0
C802 C 0.33463 0.73052 0.85201 0.0
H803 H 0.30535 0.70419 0.89475 0.0
H804 H 0.3245 0.70684 0.88181 0.0
H805 H 0.31145 0.72448 0.88626 0.0
H806 H 0.29791 0.74999 0.8429 0.0
H807 H 0.31563 0.77439 0.84538 0.0
H808 H 0.35576 0.25493 0.85924 0.0
H809 H 0.33677 0.27874 0.85833 0.0
H810 H 0.29676 0.24642 0.84125 0.0
H811 H 0.31542 0.22265 0.84221 0.0
H812 H 0.31516 0.29125 0.82751 0.0
H813 H 0.28053 0.2691 0.89159 0.0
H814 H 0.30088 0.2614 0.88534 0.0
H815 H 0.2828 0.25374 0.87304 0.0
C816 C 0.34294 0.2529 0.85517 0.0
C817 C 0.33708 0.23682 0.85106 0.0
C818 C 0.33214 0.26652 0.85463 0.0
C819 C 0.31534 0.26424 0.85004 0.0
C820 C 0.30963 0.24836 0.84516 0.0
H821 H 0.22364 0.31555 0.84171 0.0
H822 H 0.24732 0.29677 0.84067 0.0
C823 C 0.32035 0.23479 0.84571 0.0
C824 C 0.30348 0.27823 0.85094 0.0
H825 H 0.2678 0.29052 0.87318 0.0
C826 C 0.3049 0.29126 0.83762 0.0
C827 C 0.29022 0.2782 0.86426 0.0
C828 C 0.28855 0.26495 0.8795 0.0
C829 C 0.29285 0.30387 0.83667 0.0
C830 C 0.27924 0.30343 0.84951 0.0
C831 C 0.2782 0.29073 0.86326 0.0
C832 C 0.26538 0.31545 0.84843 0.0
C833 C 0.29438 0.31717 0.82149 0.0
C834 C 0.26774 0.33226 0.85295 0.0
C835 C 0.25417 0.34311 0.85357 0.0
C836 C 0.23802 0.33727 0.84983 0.0
C837 C 0.23585 0.32049 0.84481 0.0
C838 C 0.24938 0.30971 0.84417 0.0
H839 H 0.304 0.31411 0.8106 0.0
H840 H 0.28232 0.31903 0.81404 0.0
H841 H 0.29783 0.32907 0.82845 0.0
H842 H 0.27998 0.33687 0.85656 0.0
H843 H 0.2563 0.35594 0.85752 0.0
H844 H 0.68436 0.22181 0.84467 0.0
H845 H 0.70316 0.24547 0.8443 0.0
H846 H 0.6625 0.27832 0.8575 0.0
H847 H 0.64337 0.25463 0.85781 0.0
H848 H 0.68548 0.28986 0.82767 0.0
H849 H 0.71719 0.26964 0.89457 0.0
H850 H 0.71571 0.25373 0.87654 0.0
H851 H 0.69712 0.26176 0.88743 0.0
C852 C 0.67932 0.23403 0.84745 0.0
C853 C 0.66235 0.23626 0.8515 0.0
C854 C 0.69012 0.24755 0.84726 0.0
C855 C 0.68425 0.26356 0.8512 0.0
C856 C 0.66725 0.26601 0.85455 0.0
H857 H 0.74324 0.35537 0.85744 0.0
H858 H 0.71961 0.33624 0.85678 0.0
C859 C 0.65637 0.25245 0.85474 0.0
C860 C 0.69608 0.27755 0.85227 0.0
H861 H 0.73084 0.29042 0.87599 0.0
C862 C 0.69529 0.29016 0.83836 0.0
C863 C 0.70876 0.2779 0.86633 0.0
C864 C 0.70971 0.26513 0.88219 0.0
C865 C 0.70742 0.3027 0.83757 0.0
C866 C 0.72047 0.30262 0.85118 0.0
C867 C 0.72087 0.29035 0.8655 0.0
C868 C 0.73441 0.31454 0.85032 0.0
C869 C 0.70661 0.3155 0.82176 0.0
C870 C 0.75052 0.30864 0.84699 0.0
C871 C 0.76403 0.31945 0.84745 0.0
C872 C 0.76172 0.33644 0.85136 0.0
C873 C 0.74548 0.34238 0.85436 0.0
C874 C 0.73194 0.3315 0.85389 0.0
H875 H 0.69742 0.31215 0.81048 0.0
H876 H 0.70295 0.32764 0.828 0.0
H877 H 0.71897 0.31705 0.81491 0.0
H878 H 0.75267 0.29557 0.84424 0.0
H879 H 0.77631 0.31441 0.845 0.0
H880 H 0.64349 0.25566 0.13451 0.0
H881 H 0.6627 0.27927 0.1348 0.0
H882 H 0.70297 0.24645 0.14967 0.0
H883 H 0.68407 0.22285 0.1493 0.0
H884 H 0.68484 0.29139 0.16456 0.0
H885 H 0.71838 0.26959 0.09958 0.0
H886 H 0.69822 0.26172 0.10635 0.0
H887 H 0.71661 0.25414 0.11809 0.0
C888 C 0.65642 0.25347 0.13795 0.0
C889 C 0.66226 0.2373 0.14165 0.0
C890 C 0.66735 0.26698 0.13812 0.0
C891 C 0.68427 0.26451 0.14191 0.0
C892 C 0.69 0.24854 0.14633 0.0
H893 H 0.77598 0.31594 0.14942 0.0
H894 H 0.75242 0.29703 0.15015 0.0
C895 C 0.67914 0.23506 0.14615 0.0
C896 C 0.69617 0.27846 0.14084 0.0
H897 H 0.73149 0.29088 0.11791 0.0
C898 C 0.69494 0.29145 0.15424 0.0
C899 C 0.70922 0.2785 0.12723 0.0
C900 C 0.71064 0.26533 0.11187 0.0
C901 C 0.70698 0.30407 0.15499 0.0
C902 C 0.72039 0.30369 0.14187 0.0
C903 C 0.72124 0.29103 0.12804 0.0
C904 C 0.73424 0.31572 0.14276 0.0
C905 C 0.70567 0.3173 0.17027 0.0
C906 C 0.73178 0.33256 0.13849 0.0
C907 C 0.74529 0.3435 0.13804 0.0
C908 C 0.76147 0.33771 0.14175 0.0
C909 C 0.76375 0.32086 0.14639 0.0
C910 C 0.75028 0.31 0.14684 0.0
H911 H 0.69622 0.31419 0.18135 0.0
H912 H 0.71783 0.31915 0.17748 0.0
H913 H 0.7021 0.32923 0.16344 0.0
H914 H 0.71951 0.33716 0.13502 0.0
H915 H 0.74308 0.35638 0.13438 0.0
H916 H 0.77713 0.68438 0.14984 0.0
H917 H 0.75352 0.70323 0.15113 0.0
H918 H 0.72059 0.66322 0.13567 0.0
H919 H 0.7442 0.64407 0.13447 0.0
H920 H 0.73257 0.70967 0.1191 0.0
H921 H 0.69728 0.68576 0.18222 0.0
H922 H 0.7189 0.68082 0.17827 0.0
H923 H 0.70313 0.67086 0.16415 0.0
C924 C 0.76488 0.67947 0.14687 0.0
C925 C 0.7626 0.66269 0.14194 0.0
C926 C 0.75139 0.6903 0.14765 0.0
C927 C 0.73532 0.68459 0.14363 0.0
C928 C 0.73288 0.6678 0.13911 0.0
H929 H 0.64432 0.74411 0.13478 0.0
H930 H 0.66369 0.72064 0.13547 0.0
C931 C 0.7464 0.6569 0.13834 0.0
C932 C 0.72146 0.69662 0.14289 0.0
H933 H 0.68575 0.70856 0.16552 0.0
C934 C 0.72229 0.70939 0.1292 0.0
C935 C 0.70801 0.69609 0.15596 0.0
C936 C 0.70673 0.68273 0.1711 0.0
C937 C 0.7102 0.72186 0.12844 0.0
C938 C 0.69709 0.72172 0.14197 0.0
C939 C 0.6959 0.70864 0.15526 0.0
C940 C 0.68505 0.73555 0.14301 0.0
C941 C 0.7116 0.73514 0.11319 0.0
C942 C 0.69059 0.75156 0.14756 0.0
C943 C 0.67964 0.76496 0.14713 0.0
C944 C 0.66285 0.76261 0.14225 0.0
C945 C 0.65718 0.74639 0.1385 0.0
C946 C 0.6682 0.73296 0.1389 0.0
H947 H 0.71947 0.73104 0.10095 0.0
H948 H 0.69918 0.73864 0.10758 0.0
H949 H 0.71739 0.74636 0.11957 0.0
H950 H 0.7035 0.75374 0.15113 0.0
H951 H 0.68443 0.77721 0.15035 0.0
H952 H 0.22396 0.68517 0.14603 0.0
H953 H 0.24816 0.70324 0.14809 0.0
H954 H 0.28037 0.66139 0.13805 0.0
H955 H 0.25617 0.6431 0.13576 0.0
H956 H 0.2759 0.70094 0.17363 0.0
H957 H 0.29416 0.69568 0.09652 0.0
H958 H 0.27391 0.68953 0.10506 0.0
H959 H 0.29162 0.67659 0.10962 0.0
C960 C 0.23616 0.67974 0.14423 0.0
C961 C 0.23808 0.66266 0.1406 0.0
C962 C 0.24999 0.69011 0.14546 0.0
C963 C 0.26601 0.68367 0.14301 0.0
C964 C 0.26807 0.66662 0.1397 0.0
H965 H 0.3574 0.743 0.13601 0.0
H966 H 0.33864 0.71914 0.13819 0.0
C967 C 0.25422 0.65619 0.13848 0.0
C968 C 0.28044 0.69501 0.14387 0.0
H969 H 0.31009 0.71343 0.11601 0.0
C970 C 0.28349 0.70357 0.16109 0.0
C971 C 0.29036 0.6983 0.12751 0.0
C972 C 0.28736 0.68966 0.10856 0.0
C973 C 0.29595 0.71569 0.16227 0.0
C974 C 0.30537 0.71952 0.14568 0.0
C975 C 0.3028 0.71046 0.12868 0.0
C976 C 0.31696 0.73377 0.14522 0.0
C977 C 0.29879 0.72439 0.18121 0.0
C978 C 0.31093 0.74988 0.14829 0.0
C979 C 0.32155 0.76351 0.14703 0.0
C980 C 0.33844 0.76134 0.14256 0.0
C981 C 0.34448 0.74514 0.13954 0.0
C982 C 0.33379 0.73148 0.14076 0.0
H983 H 0.29449 0.71671 0.19353 0.0
H984 H 0.31213 0.72738 0.1833 0.0
H985 H 0.29165 0.73617 0.18139 0.0
H986 H 0.2979 0.75194 0.15132 0.0
H987 H 0.31642 0.77577 0.1494 0.0
H988 H 0.22343 0.31534 0.14828 0.0
H989 H 0.24723 0.2967 0.14875 0.0
H990 H 0.27984 0.33769 0.13601 0.0
H991 H 0.25603 0.35661 0.13566 0.0
H992 H 0.26885 0.29158 0.11704 0.0
H993 H 0.30257 0.31396 0.18203 0.0
H994 H 0.28099 0.31879 0.1777 0.0
H995 H 0.29693 0.32932 0.1644 0.0
C996 C 0.23564 0.32049 0.14572 0.0
C997 C 0.23777 0.33751 0.14186 0.0
C998 C 0.24924 0.30979 0.14601 0.0
C999 C 0.26528 0.31584 0.14255 0.0
C1000 C 0.26757 0.33283 0.139 0.0
H1001 H 0.35667 0.25644 0.13514 0.0
H1002 H 0.33739 0.28 0.13505 0.0
C1003 C 0.25394 0.3436 0.13872 0.0
C1004 C 0.27932 0.30404 0.14162 0.0
H1005 H 0.31456 0.29167 0.16492 0.0
C1006 C 0.2789 0.29166 0.12744 0.0
C1007 C 0.29248 0.3043 0.1551 0.0
C1008 C 0.29332 0.31722 0.17078 0.0
C1009 C 0.29107 0.27926 0.12662 0.0
C1010 C 0.30385 0.2791 0.14057 0.0
C1011 C 0.30467 0.29184 0.15432 0.0
C1012 C 0.31576 0.26518 0.14172 0.0
C1013 C 0.29008 0.26634 0.11094 0.0
C1014 C 0.31 0.24918 0.14598 0.0
C1015 C 0.3209 0.23575 0.14604 0.0
C1016 C 0.33785 0.23803 0.14191 0.0
C1017 C 0.3437 0.25421 0.13829 0.0
C1018 C 0.33272 0.26769 0.13824 0.0
H1019 H 0.28248 0.2707 0.09858 0.0
H1020 H 0.30264 0.26299 0.10562 0.0
H1021 H 0.28418 0.25496 0.11679 0.0
H1022 H 0.29698 0.24707 0.14904 0.0
H1023 H 0.31595 0.22353 0.14908 0.0
H1024 H 0.93507 0.30708 0.3565 0.0
H1025 H 0.96498 0.3026 0.35788 0.0
H1026 H 0.95707 0.25056 0.36909 0.0
H1027 H 0.9269 0.25493 0.36777 0.0
H1028 H 0.98228 0.26771 0.39324 0.0
H1029 H 0.99092 0.27722 0.3148 0.0
H1030 H 0.97883 0.29313 0.32628 0.0
H1031 H 0.97103 0.27224 0.32534 0.0
C1032 C 0.93964 0.29467 0.35932 0.0
C1033 C 0.92863 0.28133 0.36188 0.0
C1034 C 0.95673 0.29214 0.36005 0.0
C1035 C 0.96317 0.27622 0.3633 0.0
C1036 C 0.95228 0.26291 0.36644 0.0
H1037 H 0.07063 0.25434 0.36831 0.0
H1038 H 0.04045 0.25007 0.36973 0.0
C1039 C 0.93509 0.26543 0.36566 0.0
C1040 C 0.98134 0.27371 0.36307 0.0
H1041 H 0.01523 0.27926 0.33438 0.0
C1042 C 0.98953 0.2699 0.38034 0.0
C1043 C 0.99067 0.2765 0.34615 0.0
C1044 C 0.98243 0.27985 0.32703 0.0
C1045 C 0.00696 0.26985 0.38135 0.0
C1046 C 0.01625 0.27356 0.36463 0.0
C1047 C 0.00802 0.27653 0.34719 0.0
C1048 C 0.03442 0.27593 0.36516 0.0
C1049 C 0.01535 0.26671 0.40041 0.0
C1050 C 0.04091 0.29186 0.36214 0.0
C1051 C 0.05802 0.29432 0.36129 0.0
C1052 C 0.06898 0.28087 0.36334 0.0
C1053 C 0.06247 0.26493 0.3667 0.0
C1054 C 0.04527 0.26248 0.36759 0.0
H1055 H 0.00631 0.26571 0.41243 0.0
H1056 H 0.02251 0.25496 0.3996 0.0
H1057 H 0.02424 0.27686 0.40366 0.0
H1058 H 0.0327 0.30238 0.3602 0.0
H1059 H 0.06262 0.30676 0.35871 0.0
H1060 H 0.74512 0.0708 0.36741 0.0
H1061 H 0.74988 0.04094 0.37204 0.0
H1062 H 0.69782 0.03156 0.36258 0.0
H1063 H 0.69294 0.06118 0.35806 0.0
H1064 H 0.71243 0.01562 0.3962 0.0
H1065 H 0.74809 0.00503 0.32848 0.0
H1066 H 0.75468 0.0215 0.34424 0.0
H1067 H 0.73523 0.02316 0.33183 0.0
C1068 C 0.73472 0.06235 0.36629 0.0
C1069 C 0.71867 0.06832 0.3623 0.0
C1070 C 0.73747 0.04533 0.36888 0.0
C1071 C 0.72421 0.03409 0.36751 0.0
C1072 C 0.7082 0.04006 0.36369 0.0
H1073 H 0.69141 0.93606 0.36402 0.0
H1074 H 0.69662 0.96566 0.36787 0.0
C1075 C 0.70546 0.05699 0.36106 0.0
C1076 C 0.72671 0.01604 0.37 0.0
H1077 H 0.74066 0.98154 0.34652 0.0
C1078 C 0.71884 0.00817 0.38552 0.0
C1079 C 0.73522 0.00642 0.35614 0.0
C1080 C 0.74376 0.01435 0.33914 0.0
C1081 C 0.71855 0.99082 0.38705 0.0
C1082 C 0.72607 0.98115 0.37248 0.0
C1083 C 0.73486 0.98903 0.35762 0.0
C1084 C 0.72321 0.96305 0.37114 0.0
C1085 C 0.70979 0.98299 0.40396 0.0
C1086 C 0.73649 0.95178 0.37134 0.0
C1087 C 0.73354 0.93475 0.36908 0.0
C1088 C 0.71729 0.92884 0.36634 0.0
C1089 C 0.70407 0.9402 0.36615 0.0
C1090 C 0.70701 0.95712 0.36849 0.0
H1091 H 0.70957 0.99148 0.41656 0.0
H1092 H 0.69675 0.98027 0.39992 0.0
H1093 H 0.71585 0.97117 0.40826 0.0
H1094 H 0.7491 0.95616 0.37319 0.0
H1095 H 0.74398 0.92628 0.36923 0.0
H1096 H 0.06079 0.69512 0.35881 0.0
H1097 H 0.03121 0.7005 0.36285 0.0
H1098 H 0.04119 0.75269 0.37032 0.0
H1099 H 0.07103 0.74742 0.36617 0.0
H1100 H 0.01492 0.71631 0.39545 0.0
H1101 H 0.00598 0.74999 0.32605 0.0
H1102 H 0.02389 0.73704 0.33037 0.0
H1103 H 0.02224 0.75686 0.34195 0.0
C1104 C 0.05674 0.70776 0.36129 0.0
C1105 C 0.06823 0.72087 0.36207 0.0
C1106 C 0.03984 0.7108 0.36366 0.0
C1107 C 0.03405 0.72699 0.36674 0.0
C1108 C 0.04544 0.74013 0.36774 0.0
H1109 H 0.92627 0.74735 0.3653 0.0
H1110 H 0.95611 0.75252 0.36963 0.0
C1111 C 0.06245 0.73709 0.36542 0.0
C1112 C 0.01599 0.72979 0.36871 0.0
H1113 H 0.98208 0.74322 0.3437 0.0
C1114 C 0.00774 0.72245 0.38432 0.0
C1115 C 0.00671 0.73793 0.35424 0.0
C1116 C 0.01505 0.74587 0.33711 0.0
C1117 C 0.99037 0.7223 0.38535 0.0
C1118 C 0.98105 0.72943 0.37021 0.0
C1119 C 0.9893 0.73772 0.35524 0.0
C1120 C 0.96298 0.72658 0.36846 0.0
C1121 C 0.98211 0.71408 0.40235 0.0
C1122 C 0.95707 0.71034 0.36613 0.0
C1123 C 0.94018 0.70737 0.36356 0.0
C1124 C 0.92883 0.7206 0.36321 0.0
C1125 C 0.93473 0.73691 0.36557 0.0
C1126 C 0.95174 0.73988 0.36804 0.0
H1127 H 0.99035 0.7141 0.41518 0.0
H1128 H 0.97028 0.72036 0.40611 0.0
H1129 H 0.97933 0.70096 0.3987 0.0
H1130 H 0.96559 0.69993 0.36599 0.0
H1131 H 0.93605 0.69467 0.36174 0.0
H1132 H 0.30567 0.93649 0.35363 0.0
H1133 H 0.30049 0.96629 0.35446 0.0
H1134 H 0.24883 0.95735 0.36692 0.0
H1135 H 0.25391 0.92726 0.36616 0.0
H1136 H 0.2758 0.98331 0.32993 0.0
H1137 H 0.26577 0.99175 0.40878 0.0
H1138 H 0.27689 0.97407 0.3993 0.0
H1139 H 0.25482 0.97538 0.39648 0.0
C1140 C 0.2932 0.9408 0.35665 0.0
C1141 C 0.28018 0.92952 0.35981 0.0
C1142 C 0.29028 0.95784 0.3571 0.0
C1143 C 0.27432 0.96397 0.36084 0.0
C1144 C 0.26127 0.95281 0.36419 0.0
H1145 H 0.25485 0.07186 0.36685 0.0
H1146 H 0.24958 0.0418 0.3672 0.0
C1147 C 0.26418 0.93567 0.36369 0.0
C1148 C 0.27156 0.98209 0.36049 0.0
H1149 H 0.26722 0.01587 0.38975 0.0
C1150 C 0.27366 0.99043 0.34295 0.0
C1151 C 0.26864 0.99128 0.37749 0.0
C1152 C 0.26644 0.98277 0.39666 0.0
C1153 C 0.27365 0.0078 0.34207 0.0
C1154 C 0.27177 0.01702 0.35924 0.0
C1155 C 0.26872 0.00871 0.37664 0.0
C1156 C 0.27475 0.03512 0.3596 0.0
C1157 C 0.27616 0.01618 0.32286 0.0
C1158 C 0.29068 0.04118 0.35558 0.0
C1159 C 0.29373 0.05821 0.35544 0.0
C1160 C 0.28089 0.06952 0.35933 0.0
C1161 C 0.26497 0.06342 0.36371 0.0
C1162 C 0.26194 0.0463 0.36394 0.0
H1163 H 0.27276 0.00785 0.31074 0.0
H1164 H 0.26867 0.02772 0.32184 0.0
H1165 H 0.28944 0.01956 0.32124 0.0
H1166 H 0.30077 0.0327 0.35249 0.0
H1167 H 0.30615 0.06248 0.3521 0.0
H1168 H 0.06059 0.69472 0.63685 0.0
H1169 H 0.03092 0.70056 0.63571 0.0
H1170 H 0.04111 0.75229 0.62505 0.0
H1171 H 0.07107 0.74654 0.62612 0.0
H1172 H 0.01459 0.72522 0.66113 0.0
H1173 H 0.0062 0.73715 0.58263 0.0
H1174 H 0.02354 0.72524 0.59164 0.0
H1175 H 0.02294 0.74725 0.59524 0.0
C1176 C 0.05659 0.70734 0.63413 0.0
C1177 C 0.06818 0.72019 0.63162 0.0
C1178 C 0.03962 0.71064 0.63349 0.0
C1179 C 0.03388 0.72682 0.63022 0.0
C1180 C 0.04535 0.73969 0.62741 0.0
H1181 H 0.92583 0.74721 0.62631 0.0
H1182 H 0.95589 0.75267 0.62547 0.0
C1183 C 0.06242 0.7364 0.62809 0.0
C1184 C 0.01582 0.73001 0.63068 0.0
H1185 H 0.98206 0.73541 0.60164 0.0
C1186 C 0.00748 0.72775 0.6482 0.0
C1187 C 0.00666 0.73343 0.61379 0.0
C1188 C 0.01518 0.73588 0.59467 0.0
C1189 C 0.99012 0.728 0.64911 0.0
C1190 C 0.9809 0.73031 0.63202 0.0
C1191 C 0.98922 0.7336 0.61468 0.0
C1192 C 0.96282 0.72728 0.63162 0.0
C1193 C 0.98174 0.72517 0.66826 0.0
C1194 C 0.95691 0.71118 0.63495 0.0
C1195 C 0.93992 0.70804 0.6354 0.0
C1196 C 0.92846 0.72094 0.63249 0.0
C1197 C 0.93439 0.73704 0.62868 0.0
C1198 C 0.9515 0.74018 0.62818 0.0
H1199 H 0.99012 0.7282 0.68046 0.0
H1200 H 0.97028 0.73276 0.66952 0.0
H1201 H 0.97821 0.7119 0.66949 0.0
H1202 H 0.96549 0.70103 0.63737 0.0
H1203 H 0.93579 0.69548 0.63824 0.0
H1204 H 0.30329 0.9373 0.63863 0.0
H1205 H 0.29765 0.967 0.63756 0.0
H1206 H 0.24603 0.9572 0.62579 0.0
H1207 H 0.25157 0.92718 0.62681 0.0
H1208 H 0.26303 0.98324 0.60179 0.0
H1209 H 0.27047 0.99173 0.68054 0.0
H1210 H 0.28684 0.97992 0.66954 0.0
H1211 H 0.26606 0.9718 0.66975 0.0
C1212 C 0.29072 0.94139 0.63577 0.0
C1213 C 0.27784 0.92989 0.63295 0.0
C1214 C 0.28753 0.95838 0.63522 0.0
C1215 C 0.2714 0.96422 0.63186 0.0
C1216 C 0.25854 0.95286 0.62851 0.0
H1217 H 0.25137 0.07238 0.62681 0.0
H1218 H 0.2457 0.0424 0.62563 0.0
C1219 C 0.26172 0.93576 0.62913 0.0
C1220 C 0.26828 0.98228 0.63216 0.0
H1221 H 0.27311 0.01614 0.66104 0.0
C1222 C 0.26483 0.99048 0.61479 0.0
C1223 C 0.27055 0.99159 0.64919 0.0
C1224 C 0.27353 0.98332 0.66837 0.0
C1225 C 0.26478 0.00791 0.6138 0.0
C1226 C 0.26817 0.01718 0.63061 0.0
C1227 C 0.27059 0.00895 0.64817 0.0
C1228 C 0.27129 0.03523 0.63001 0.0
C1229 C 0.26216 0.01634 0.59466 0.0
C1230 C 0.28752 0.04098 0.63281 0.0
C1231 C 0.29078 0.05794 0.63351 0.0
C1232 C 0.27784 0.06952 0.63152 0.0
C1233 C 0.26158 0.06374 0.62838 0.0
C1234 C 0.25832 0.04667 0.62764 0.0
H1235 H 0.26059 0.0073 0.58272 0.0
H1236 H 0.25092 0.02428 0.59539 0.0
H1237 H 0.27288 0.02453 0.59135 0.0
H1238 H 0.29767 0.0323 0.63467 0.0
H1239 H 0.30344 0.06196 0.6359 0.0
H1240 H 0.06181 0.30544 0.63353 0.0
H1241 H 0.03232 0.30004 0.62894 0.0
H1242 H 0.04264 0.24813 0.61964 0.0
H1243 H 0.07241 0.25342 0.62438 0.0
H1244 H 0.0163 0.28527 0.59579 0.0
H1245 H 0.00715 0.24916 0.66349 0.0
H1246 H 0.02512 0.26218 0.65984 0.0
H1247 H 0.0234 0.24282 0.64729 0.0
C1248 C 0.05787 0.29285 0.63052 0.0
C1249 C 0.06943 0.27983 0.62941 0.0
C1250 C 0.04101 0.2898 0.62785 0.0
C1251 C 0.03533 0.27368 0.6241 0.0
C1252 C 0.0468 0.26063 0.62275 0.0
H1253 H 0.92751 0.25382 0.62529 0.0
H1254 H 0.95726 0.24856 0.62045 0.0
C1255 C 0.06377 0.26368 0.6254 0.0
C1256 C 0.01729 0.27087 0.62187 0.0
H1257 H 0.98331 0.25673 0.64621 0.0
C1258 C 0.00908 0.27877 0.60661 0.0
C1259 C 0.00797 0.26225 0.63593 0.0
C1260 C 0.01625 0.25364 0.65265 0.0
C1261 C 0.99171 0.27905 0.60558 0.0
C1262 C 0.98236 0.27148 0.6204 0.0
C1263 C 0.99056 0.26259 0.63494 0.0
C1264 C 0.96431 0.27442 0.62235 0.0
C1265 C 0.98352 0.28789 0.58897 0.0
C1266 C 0.95852 0.29064 0.62525 0.0
C1267 C 0.94167 0.29366 0.62809 0.0
C1268 C 0.93024 0.28049 0.62817 0.0
C1269 C 0.93603 0.26421 0.62524 0.0
C1270 C 0.95298 0.26119 0.62247 0.0
H1271 H 0.99171 0.28812 0.5761 0.0
H1272 H 0.97157 0.28192 0.58502 0.0
H1273 H 0.98097 0.30094 0.59315 0.0
H1274 H 0.96711 0.30098 0.62565 0.0
H1275 H 0.93763 0.30633 0.63036 0.0
H1276 H 0.74906 0.07289 0.62541 0.0
H1277 H 0.75447 0.04319 0.62024 0.0
H1278 H 0.70213 0.03299 0.62567 0.0
H1279 H 0.69663 0.0624 0.63075 0.0
H1280 H 0.74633 0.01668 0.64578 0.0
H1281 H 0.71511 0.00922 0.57544 0.0
H1282 H 0.7214 0.02923 0.58469 0.0
H1283 H 0.7023 0.01984 0.59262 0.0
C1284 C 0.73872 0.0643 0.62538 0.0
C1285 C 0.72241 0.06996 0.62845 0.0
C1286 C 0.74183 0.04738 0.62241 0.0
C1287 C 0.72866 0.03598 0.62223 0.0
C1288 C 0.71242 0.04165 0.62533 0.0
H1289 H 0.69664 0.93942 0.63347 0.0
H1290 H 0.7027 0.96876 0.62876 0.0
C1291 C 0.70932 0.05846 0.62837 0.0
C1292 C 0.73167 0.01798 0.61993 0.0
H1293 H 0.71773 0.9844 0.59481 0.0
C1294 C 0.74048 0.00959 0.63438 0.0
C1295 C 0.72412 0.00884 0.60494 0.0
C1296 C 0.71535 0.01727 0.58843 0.0
C1297 C 0.74072 0.99217 0.63511 0.0
C1298 C 0.73205 0.98305 0.62093 0.0
C1299 C 0.72428 0.99146 0.60573 0.0
C1300 C 0.72885 0.96509 0.62312 0.0
C1301 C 0.74921 0.98363 0.65175 0.0
C1302 C 0.74158 0.95329 0.62135 0.0
C1303 C 0.73814 0.93639 0.62404 0.0
C1304 C 0.72194 0.93115 0.62856 0.0
C1305 C 0.70926 0.94304 0.63008 0.0
C1306 C 0.71268 0.95982 0.62733 0.0
H1307 H 0.75415 0.9926 0.66246 0.0
H1308 H 0.7404 0.97514 0.65911 0.0
H1309 H 0.75968 0.97603 0.64627 0.0
H1310 H 0.75411 0.95715 0.61793 0.0
H1311 H 0.74815 0.92749 0.62272 0.0
H1312 H 0.56326 0.80589 0.85358 0.0
H1313 H 0.53353 0.80055 0.85513 0.0
H1314 H 0.543 0.74893 0.86731 0.0
H1315 H 0.57303 0.7542 0.8659 0.0
H1316 H 0.51611 0.77675 0.8312 0.0
H1317 H 0.5093 0.76455 0.90983 0.0
H1318 H 0.52701 0.77547 0.90013 0.0
H1319 H 0.52514 0.75349 0.89677 0.0
C1320 C 0.55908 0.7934 0.85669 0.0
C1321 C 0.5705 0.78045 0.8596 0.0
C1322 C 0.54208 0.79038 0.85756 0.0
C1323 C 0.5361 0.77439 0.86144 0.0
C1324 C 0.5474 0.7614 0.86452 0.0
H1325 H 0.42834 0.75366 0.86707 0.0
H1326 H 0.45846 0.74869 0.86749 0.0
C1327 C 0.56452 0.76442 0.86362 0.0
C1328 C 0.51798 0.77153 0.86151 0.0
H1329 H 0.4848 0.76598 0.89144 0.0
C1330 C 0.50927 0.77413 0.8443 0.0
C1331 C 0.50915 0.76801 0.87863 0.0
C1332 C 0.51802 0.76527 0.89747 0.0
C1333 C 0.49189 0.77405 0.8439 0.0
C1334 C 0.48303 0.77152 0.86121 0.0
C1335 C 0.4917 0.76797 0.87824 0.0
C1336 C 0.46493 0.77433 0.86212 0.0
C1337 C 0.4831 0.77721 0.82508 0.0
C1338 C 0.45874 0.79041 0.85941 0.0
C1339 C 0.44169 0.79328 0.8592 0.0
C1340 C 0.43047 0.78011 0.86174 0.0
C1341 C 0.43669 0.76404 0.86501 0.0
C1342 C 0.45385 0.76118 0.86527 0.0
H1343 H 0.49127 0.77457 0.81255 0.0
H1344 H 0.47172 0.76949 0.82389 0.0
H1345 H 0.47936 0.79045 0.82436 0.0
H1346 H 0.46714 0.80074 0.8572 0.0
H1347 H 0.43732 0.80582 0.85676 0.0
H1348 H 0.24722 0.42723 0.86572 0.0
H1349 H 0.25231 0.45708 0.87004 0.0
H1350 H 0.19959 0.46623 0.86836 0.0
H1351 H 0.19441 0.43667 0.86415 0.0
H1352 H 0.24238 0.4828 0.84454 0.0
H1353 H 0.21468 0.49139 0.9167 0.0
H1354 H 0.2207 0.47126 0.90757 0.0
H1355 H 0.20116 0.48033 0.90068 0.0
C1356 C 0.23673 0.43562 0.86645 0.0
C1357 C 0.22041 0.42961 0.86462 0.0
C1358 C 0.23966 0.45262 0.86892 0.0
C1359 C 0.22631 0.46378 0.86986 0.0
C1360 C 0.21005 0.45777 0.86811 0.0
H1361 H 0.19471 0.56174 0.86023 0.0
H1362 H 0.19999 0.53216 0.86451 0.0
C1363 C 0.20712 0.44087 0.86555 0.0
C1364 C 0.2291 0.48188 0.87141 0.0
H1365 H 0.21636 0.51587 0.8967 0.0
C1366 C 0.23708 0.49006 0.85616 0.0
C1367 C 0.22222 0.49126 0.88664 0.0
C1368 C 0.21436 0.4831 0.90393 0.0
C1369 C 0.23722 0.50747 0.85502 0.0
C1370 C 0.22934 0.51681 0.86962 0.0
C1371 C 0.2223 0.50863 0.88547 0.0
C1372 C 0.22656 0.53487 0.86764 0.0
C1373 C 0.24483 0.51572 0.83763 0.0
C1374 C 0.23979 0.54619 0.86816 0.0
C1375 C 0.23681 0.56319 0.86571 0.0
C1376 C 0.22056 0.56904 0.86271 0.0
C1377 C 0.20737 0.55764 0.86245 0.0
C1378 C 0.21035 0.54073 0.86494 0.0
H1379 H 0.24864 0.50659 0.82648 0.0
H1380 H 0.23591 0.5246 0.83112 0.0
H1381 H 0.25597 0.52284 0.84211 0.0
H1382 H 0.25237 0.54189 0.87045 0.0
H1383 H 0.24721 0.5717 0.86606 0.0
H1384 H 0.42711 0.24539 0.8672 0.0
H1385 H 0.45718 0.25068 0.86793 0.0
H1386 H 0.46649 0.19837 0.86057 0.0
H1387 H 0.43674 0.19298 0.85981 0.0
H1388 H 0.48372 0.23449 0.89301 0.0
H1389 H 0.49037 0.22318 0.8146 0.0
H1390 H 0.47077 0.22852 0.82565 0.0
H1391 H 0.47855 0.20765 0.82712 0.0
C1392 C 0.43559 0.23503 0.86588 0.0
C1393 C 0.42957 0.21879 0.86327 0.0
C1394 C 0.45272 0.23807 0.86632 0.0
C1395 C 0.46396 0.22492 0.86405 0.0
C1396 C 0.45796 0.20869 0.8621 0.0
H1397 H 0.56214 0.19326 0.8573 0.0
H1398 H 0.53243 0.19868 0.85912 0.0
C1399 C 0.44095 0.20564 0.86169 0.0
C1400 C 0.48204 0.22788 0.86306 0.0
H1401 H 0.51519 0.22172 0.8334 0.0
C1402 C 0.49065 0.23208 0.87993 0.0
C1403 C 0.49094 0.2248 0.84591 0.0
C1404 C 0.4822 0.22093 0.82722 0.0
C1405 C 0.5081 0.23213 0.88035 0.0
C1406 C 0.51697 0.22802 0.86345 0.0
C1407 C 0.50831 0.22479 0.84635 0.0
C1408 C 0.53509 0.22512 0.86357 0.0
C1409 C 0.51696 0.23561 0.89904 0.0
C1410 C 0.54642 0.23823 0.86557 0.0
C1411 C 0.56352 0.23517 0.86451 0.0
C1412 C 0.56945 0.21896 0.86138 0.0
C1413 C 0.558 0.20589 0.85967 0.0
C1414 C 0.54101 0.20895 0.86071 0.0
H1415 H 0.5082 0.23708 0.91128 0.0
H1416 H 0.52574 0.22538 0.90239 0.0
H1417 H 0.52431 0.24719 0.89762 0.0
H1418 H 0.54204 0.25082 0.86757 0.0
H1419 H 0.57206 0.24549 0.86586 0.0
H1420 H 0.75127 0.42592 0.86831 0.0
H1421 H 0.74504 0.45579 0.8697 0.0
H1422 H 0.79642 0.4669 0.85815 0.0
H1423 H 0.80277 0.43735 0.85677 0.0
H1424 H 0.76263 0.48264 0.89404 0.0
H1425 H 0.7673 0.4904 0.81483 0.0
H1426 H 0.76307 0.47061 0.82608 0.0
H1427 H 0.78388 0.47861 0.82545 0.0
C1428 C 0.76123 0.43476 0.86618 0.0
C1429 C 0.77749 0.4293 0.86229 0.0
C1430 C 0.75765 0.45176 0.86701 0.0
C1431 C 0.77025 0.46345 0.86382 0.0
C1432 C 0.78652 0.45802 0.86045 0.0
H1433 H 0.80179 0.56065 0.85777 0.0
H1434 H 0.79574 0.53109 0.85975 0.0
C1435 C 0.79011 0.44112 0.85969 0.0
C1436 C 0.76669 0.48142 0.86344 0.0
H1437 H 0.76998 0.51502 0.83386 0.0
C1438 C 0.76379 0.48976 0.88086 0.0
C1439 C 0.76815 0.49057 0.84618 0.0
C1440 C 0.77062 0.48211 0.82702 0.0
C1441 C 0.76355 0.5072 0.88159 0.0
C1442 C 0.76619 0.51632 0.8645 0.0
C1443 C 0.768 0.50793 0.84694 0.0
C1444 C 0.76946 0.53435 0.86475 0.0
C1445 C 0.76158 0.51582 0.90072 0.0
C1446 C 0.75663 0.54595 0.86708 0.0
C1447 C 0.76004 0.56299 0.86592 0.0
C1448 C 0.77632 0.56854 0.86236 0.0
C1449 C 0.78911 0.55681 0.86045 0.0
C1450 C 0.7857 0.5399 0.86159 0.0
H1451 H 0.76003 0.5069 0.91279 0.0
H1452 H 0.77262 0.52369 0.90361 0.0
H1453 H 0.75058 0.5241 0.90026 0.0
H1454 H 0.74398 0.54183 0.8694 0.0
H1455 H 0.74994 0.57176 0.86744 0.0
H1456 H 0.4382 0.19574 0.13241 0.0
H1457 H 0.46768 0.20124 0.12791 0.0
H1458 H 0.45727 0.25322 0.11928 0.0
H1459 H 0.42751 0.24782 0.12391 0.0
H1460 H 0.48392 0.2165 0.09509 0.0
H1461 H 0.49241 0.25163 0.16358 0.0
H1462 H 0.47454 0.23857 0.15953 0.0
H1463 H 0.47624 0.25812 0.14735 0.0
C1464 C 0.44212 0.20836 0.12954 0.0
C1465 C 0.43054 0.22137 0.12862 0.0
C1466 C 0.45898 0.21147 0.12692 0.0
C1467 C 0.46463 0.22764 0.12341 0.0
C1468 C 0.45313 0.24068 0.12218 0.0
H1469 H 0.57251 0.24733 0.1259 0.0
H1470 H 0.5428 0.25275 0.12087 0.0
C1471 C 0.43617 0.23757 0.12477 0.0
C1472 C 0.48267 0.23053 0.12143 0.0
H1473 H 0.51642 0.24428 0.14649 0.0
C1474 C 0.49103 0.22285 0.10612 0.0
C1475 C 0.49186 0.23893 0.13577 0.0
C1476 C 0.48341 0.24726 0.15258 0.0
C1477 C 0.50841 0.22258 0.10532 0.0
C1478 C 0.51761 0.22993 0.1204 0.0
C1479 C 0.50928 0.2386 0.13501 0.0
C1480 C 0.53563 0.22691 0.12255 0.0
C1481 C 0.51678 0.21394 0.08867 0.0
C1482 C 0.54132 0.21065 0.12541 0.0
C1483 C 0.55814 0.20754 0.12838 0.0
C1484 C 0.56963 0.22065 0.12861 0.0
C1485 C 0.56394 0.23697 0.12574 0.0
C1486 C 0.54701 0.24009 0.12286 0.0
H1487 H 0.5087 0.21382 0.07571 0.0
H1488 H 0.52873 0.22001 0.08495 0.0
H1489 H 0.51936 0.20086 0.0927 0.0
H1490 H 0.53268 0.20035 0.12565 0.0
H1491 H 0.5621 0.19484 0.13059 0.0
H1492 H 0.75268 0.57305 0.12437 0.0
H1493 H 0.74685 0.54309 0.12311 0.0
H1494 H 0.79883 0.53273 0.13163 0.0
H1495 H 0.80477 0.56237 0.13288 0.0
H1496 H 0.76389 0.51635 0.09782 0.0
H1497 H 0.7718 0.5091 0.17676 0.0
H1498 H 0.76681 0.52875 0.16562 0.0
H1499 H 0.78774 0.52107 0.16513 0.0
C1500 C 0.76286 0.56436 0.12583 0.0
C1501 C 0.77916 0.57006 0.12888 0.0
C1502 C 0.75951 0.5473 0.12508 0.0
C1503 C 0.77241 0.5358 0.12749 0.0
C1504 C 0.78871 0.54147 0.12994 0.0
H1505 H 0.80387 0.43802 0.134 0.0
H1506 H 0.79823 0.46768 0.132 0.0
C1507 C 0.79206 0.55842 0.13064 0.0
C1508 C 0.76912 0.51778 0.12815 0.0
H1509 H 0.77377 0.4844 0.15783 0.0
C1510 C 0.76563 0.50931 0.11098 0.0
C1511 C 0.77135 0.50876 0.14539 0.0
C1512 C 0.77449 0.51736 0.16434 0.0
C1513 C 0.76548 0.49186 0.1104 0.0
C1514 C 0.76882 0.48287 0.12743 0.0
C1515 C 0.77128 0.49139 0.14479 0.0
C1516 C 0.77186 0.46479 0.12725 0.0
C1517 C 0.76282 0.48313 0.09146 0.0
C1518 C 0.75886 0.45336 0.12509 0.0
C1519 C 0.76204 0.43628 0.12626 0.0
C1520 C 0.77826 0.4305 0.12965 0.0
C1521 C 0.79123 0.44205 0.13143 0.0
C1522 C 0.78805 0.45901 0.13029 0.0
H1523 H 0.76133 0.49197 0.07931 0.0
H1524 H 0.77348 0.47481 0.08836 0.0
H1525 H 0.75152 0.47529 0.09236 0.0
H1526 H 0.74625 0.45764 0.1229 0.0
H1527 H 0.7518 0.42766 0.12485 0.0
H1528 H 0.42806 0.75141 0.12657 0.0
H1529 H 0.45787 0.74586 0.12255 0.0
H1530 H 0.46809 0.79823 0.12736 0.0
H1531 H 0.43856 0.80388 0.13132 0.0
H1532 H 0.48433 0.78055 0.09535 0.0
H1533 H 0.49299 0.75081 0.16718 0.0
H1534 H 0.47654 0.74346 0.15184 0.0
H1535 H 0.47531 0.76386 0.16204 0.0
C1536 C 0.43669 0.76172 0.12672 0.0
C1537 C 0.43099 0.77807 0.12936 0.0
C1538 C 0.45367 0.75853 0.12447 0.0
C1539 C 0.46512 0.77164 0.1248 0.0
C1540 C 0.45942 0.78795 0.12708 0.0
H1541 H 0.56272 0.80457 0.12853 0.0
H1542 H 0.53326 0.79885 0.1242 0.0
C1543 C 0.44254 0.79115 0.1294 0.0
C1544 C 0.48316 0.76868 0.12308 0.0
H1545 H 0.51697 0.7569 0.14935 0.0
C1546 C 0.49147 0.7751 0.10698 0.0
C1547 C 0.49238 0.76144 0.13823 0.0
C1548 C 0.48396 0.75452 0.15589 0.0
C1549 C 0.50885 0.77524 0.10606 0.0
C1550 C 0.51809 0.76907 0.1218 0.0
C1551 C 0.5098 0.76165 0.13734 0.0
C1552 C 0.53612 0.77216 0.1235 0.0
C1553 C 0.51718 0.78248 0.08852 0.0
C1554 C 0.54747 0.75899 0.12489 0.0
C1555 C 0.56442 0.76224 0.12738 0.0
C1556 C 0.57016 0.77868 0.12881 0.0
C1557 C 0.55871 0.79178 0.12747 0.0
C1558 C 0.54187 0.78854 0.12485 0.0
H1559 H 0.509 0.78176 0.07567 0.0
H1560 H 0.51999 0.79577 0.09121 0.0
H1561 H 0.52902 0.77598 0.08532 0.0
H1562 H 0.54321 0.74626 0.12408 0.0
H1563 H 0.57297 0.7519 0.12844 0.0
H1564 H 0.24671 0.42766 0.12633 0.0
H1565 H 0.25225 0.45768 0.1252 0.0
H1566 H 0.20083 0.46751 0.13812 0.0
H1567 H 0.19519 0.43781 0.13925 0.0
H1568 H 0.23443 0.48374 0.10144 0.0
H1569 H 0.22911 0.49228 0.18043 0.0
H1570 H 0.23349 0.4724 0.1695 0.0
H1571 H 0.21261 0.48025 0.17001 0.0
C1572 C 0.2366 0.43625 0.12886 0.0
C1573 C 0.22054 0.43039 0.133 0.0
C1574 C 0.23978 0.45335 0.12819 0.0
C1575 C 0.22698 0.46472 0.13182 0.0
C1576 C 0.21091 0.45888 0.13553 0.0
H1577 H 0.1949 0.56261 0.13668 0.0
H1578 H 0.20061 0.53291 0.13566 0.0
C1579 C 0.20771 0.4419 0.13612 0.0
C1580 C 0.23008 0.48279 0.13199 0.0
H1581 H 0.2259 0.51666 0.16101 0.0
C1582 C 0.23298 0.49099 0.11449 0.0
C1583 C 0.22824 0.4921 0.14909 0.0
C1584 C 0.22584 0.48382 0.16837 0.0
C1585 C 0.23291 0.50842 0.11348 0.0
C1586 C 0.22996 0.51769 0.13041 0.0
C1587 C 0.22807 0.50946 0.14805 0.0
C1588 C 0.22684 0.53574 0.12989 0.0
C1589 C 0.23494 0.51683 0.09423 0.0
C1590 C 0.23974 0.54715 0.12688 0.0
C1591 C 0.23652 0.56423 0.1275 0.0
C1592 C 0.22036 0.57007 0.13115 0.0
C1593 C 0.20748 0.55854 0.13385 0.0
C1594 C 0.21071 0.54156 0.13328 0.0
H1595 H 0.23607 0.50778 0.08224 0.0
H1596 H 0.22416 0.52507 0.09139 0.0
H1597 H 0.24624 0.5247 0.09446 0.0
H1598 H 0.25229 0.54284 0.1244 0.0
H1599 H 0.24669 0.57283 0.12538 0.0
H1600 H 0.14448 0.32164 0.42012 0.0
H1601 H 0.1408 0.32317 0.45496 0.0
H1602 H 0.09866 0.29035 0.45117 0.0
H1603 H 0.10229 0.28853 0.41632 0.0
H1604 H 0.11273 0.33301 0.47752 0.0
H1605 H 0.13039 0.26698 0.48913 0.0
H1606 H 0.13435 0.2777 0.46678 0.0
H1607 H 0.11381 0.27044 0.4723 0.0
C1608 C 0.13438 0.31477 0.42663 0.0
C1609 C 0.1238 0.3048 0.4154 0.0
C1610 C 0.13228 0.31571 0.44655 0.0
C1611 C 0.11962 0.30669 0.4556 0.0
C1612 C 0.10869 0.29717 0.44444 0.0
H1613 H 0.10202 0.28936 0.57767 0.0
H1614 H 0.09861 0.2908 0.54276 0.0
C1615 C 0.11078 0.29618 0.42452 0.0
C1616 C 0.11823 0.30686 0.47679 0.0
H1617 H 0.1226 0.28234 0.51649 0.0
C1618 C 0.11481 0.32194 0.48608 0.0
C1619 C 0.12094 0.29237 0.48783 0.0
C1620 C 0.12521 0.27596 0.47858 0.0
C1621 C 0.11407 0.32292 0.50623 0.0
C1622 C 0.11713 0.30849 0.51728 0.0
C1623 C 0.12021 0.29336 0.50795 0.0
C1624 C 0.11811 0.30889 0.53852 0.0
C1625 C 0.10996 0.33935 0.51549 0.0
C1626 C 0.13019 0.31863 0.54767 0.0
C1627 C 0.13218 0.31786 0.56761 0.0
C1628 C 0.12224 0.30719 0.57876 0.0
C1629 C 0.10994 0.29767 0.56955 0.0
C1630 C 0.10794 0.29848 0.5496 0.0
H1631 H 0.10311 0.34761 0.50544 0.0
H1632 H 0.10238 0.33761 0.52869 0.0
H1633 H 0.12165 0.34571 0.51959 0.0
H1634 H 0.13843 0.32644 0.53933 0.0
H1635 H 0.14181 0.32533 0.57418 0.0
H1636 H 0.71228 0.10106 0.57749 0.0
H1637 H 0.71045 0.09647 0.54279 0.0
H1638 H 0.6758 0.13703 0.53784 0.0
H1639 H 0.67732 0.14163 0.57254 0.0
H1640 H 0.66709 0.10847 0.51604 0.0
H1641 H 0.73254 0.12795 0.50391 0.0
H1642 H 0.72962 0.11146 0.52099 0.0
H1643 H 0.72179 0.13184 0.52625 0.0
C1644 C 0.70423 0.10901 0.56906 0.0
C1645 C 0.6951 0.12186 0.5778 0.0
C1646 C 0.70323 0.10636 0.54923 0.0
C1647 C 0.69319 0.11658 0.53777 0.0
C1648 C 0.68366 0.12905 0.54648 0.0
H1649 H 0.67362 0.1387 0.41996 0.0
H1650 H 0.6726 0.1345 0.45468 0.0
C1651 C 0.68459 0.13168 0.56631 0.0
C1652 C 0.69306 0.11477 0.51661 0.0
H1653 H 0.71729 0.11963 0.47674 0.0
C1654 C 0.67807 0.11081 0.50741 0.0
C1655 C 0.70744 0.11778 0.50547 0.0
C1656 C 0.72375 0.12263 0.51458 0.0
C1657 C 0.67703 0.10994 0.48727 0.0
C1658 C 0.69131 0.11342 0.47613 0.0
C1659 C 0.70639 0.11692 0.48536 0.0
C1660 C 0.69072 0.11466 0.4549 0.0
C1661 C 0.66069 0.10534 0.47812 0.0
C1662 C 0.70138 0.10501 0.44352 0.0
C1663 C 0.70214 0.10749 0.42363 0.0
C1664 C 0.69231 0.11976 0.4148 0.0
C1665 C 0.68134 0.12912 0.42624 0.0
C1666 C 0.68063 0.12664 0.4461 0.0
H1667 H 0.65275 0.09814 0.48819 0.0
H1668 H 0.65389 0.11685 0.47424 0.0
H1669 H 0.66259 0.09794 0.46482 0.0
H1670 H 0.70935 0.09577 0.45009 0.0
H1671 H 0.71067 0.10001 0.41528 0.0
H1672 H 0.896 0.71283 0.41537 0.0
H1673 H 0.90014 0.71139 0.45018 0.0
H1674 H 0.86184 0.67418 0.45439 0.0
H1675 H 0.85771 0.67533 0.41964 0.0
H1676 H 0.87626 0.71849 0.47755 0.0
H1677 H 0.89919 0.6541 0.48651 0.0
H1678 H 0.89898 0.66454 0.46349 0.0
H1679 H 0.8803 0.65536 0.47289 0.0
C1680 C 0.88856 0.70421 0.42364 0.0
C1681 C 0.87648 0.69422 0.41467 0.0
C1682 C 0.89097 0.70339 0.44353 0.0
C1683 C 0.88147 0.69251 0.45479 0.0
C1684 C 0.86957 0.68238 0.44589 0.0
H1685 H 0.85738 0.6759 0.57265 0.0
H1686 H 0.86134 0.67524 0.53785 0.0
C1687 C 0.86715 0.68317 0.42602 0.0
C1688 C 0.883 0.69267 0.476 0.0
H1689 H 0.88947 0.66775 0.51501 0.0
C1690 C 0.87939 0.70747 0.48576 0.0
C1691 C 0.88705 0.67825 0.48661 0.0
C1692 C 0.89176 0.6622 0.47684 0.0
C1693 C 0.87901 0.70809 0.50592 0.0
C1694 C 0.88265 0.69356 0.51654 0.0
C1695 C 0.88669 0.67885 0.50679 0.0
C1696 C 0.88132 0.69317 0.53776 0.0
C1697 C 0.87402 0.72408 0.51566 0.0
C1698 C 0.89154 0.70319 0.54925 0.0
C1699 C 0.88927 0.70368 0.56918 0.0
C1700 C 0.8768 0.69406 0.57797 0.0
C1701 C 0.86705 0.68354 0.56641 0.0
C1702 C 0.8693 0.68311 0.5465 0.0
H1703 H 0.86825 0.73297 0.50543 0.0
H1704 H 0.86512 0.72165 0.52755 0.0
H1705 H 0.88519 0.73006 0.5219 0.0
H1706 H 0.90109 0.71082 0.54276 0.0
H1707 H 0.89713 0.71179 0.57764 0.0
H1708 H 0.28627 0.89864 0.57843 0.0
H1709 H 0.28744 0.90319 0.54365 0.0
H1710 H 0.32355 0.86397 0.53821 0.0
H1711 H 0.32269 0.85943 0.57291 0.0
H1712 H 0.33088 0.89275 0.51618 0.0
H1713 H 0.26608 0.87069 0.50523 0.0
H1714 H 0.26866 0.88734 0.52218 0.0
H1715 H 0.27725 0.86727 0.5274 0.0
C1716 C 0.29453 0.89101 0.56987 0.0
C1717 C 0.30425 0.87853 0.57848 0.0
C1718 C 0.29513 0.89362 0.55 0.0
C1719 C 0.30538 0.88374 0.53838 0.0
C1720 C 0.31551 0.87168 0.54696 0.0
H1721 H 0.32513 0.86056 0.42111 0.0
H1722 H 0.32587 0.86531 0.45573 0.0
C1723 C 0.31496 0.86908 0.56681 0.0
C1724 C 0.30518 0.88545 0.5172 0.0
H1725 H 0.28085 0.87901 0.47772 0.0
C1726 C 0.31992 0.88988 0.50774 0.0
C1727 C 0.29084 0.88171 0.50629 0.0
C1728 C 0.27482 0.87636 0.51571 0.0
C1729 C 0.32076 0.89045 0.48757 0.0
C1730 C 0.30657 0.88621 0.47667 0.0
C1731 C 0.29169 0.88229 0.48615 0.0
C1732 C 0.30711 0.88453 0.45548 0.0
C1733 C 0.33685 0.89552 0.47814 0.0
C1734 C 0.29615 0.89363 0.44386 0.0
C1735 C 0.29557 0.89085 0.42402 0.0
C1736 C 0.30586 0.8788 0.41546 0.0
C1737 C 0.31704 0.86995 0.42715 0.0
C1738 C 0.3176 0.87274 0.44697 0.0
H1739 H 0.34457 0.90321 0.48794 0.0
H1740 H 0.34406 0.88423 0.47444 0.0
H1741 H 0.33456 0.90261 0.46469 0.0
H1742 H 0.28786 0.9027 0.45021 0.0
H1743 H 0.28682 0.89792 0.41547 0.0
H1744 H 0.10049 0.71248 0.4147 0.0
H1745 H 0.09657 0.71137 0.44957 0.0
H1746 H 0.13575 0.67513 0.45413 0.0
H1747 H 0.13967 0.67593 0.41931 0.0
H1748 H 0.10725 0.6679 0.47677 0.0
H1749 H 0.12974 0.73257 0.48737 0.0
H1750 H 0.11288 0.73016 0.47067 0.0
H1751 H 0.13281 0.72138 0.46515 0.0
C1752 C 0.10825 0.70421 0.42308 0.0
C1753 C 0.12053 0.69442 0.41418 0.0
C1754 C 0.10601 0.70364 0.44301 0.0
C1755 C 0.11605 0.69337 0.4544 0.0
C1756 C 0.12792 0.68319 0.44556 0.0
H1757 H 0.13827 0.67405 0.57258 0.0
H1758 H 0.1343 0.67319 0.53782 0.0
C1759 C 0.13016 0.68371 0.42564 0.0
C1760 C 0.11463 0.69357 0.47562 0.0
H1761 H 0.12111 0.71804 0.51499 0.0
C1762 C 0.11018 0.67887 0.48516 0.0
C1763 C 0.11846 0.70793 0.48646 0.0
C1764 C 0.12388 0.72389 0.47697 0.0
C1765 C 0.10957 0.67811 0.50533 0.0
C1766 C 0.11379 0.69236 0.51616 0.0
C1767 C 0.11784 0.70716 0.50661 0.0
C1768 C 0.11511 0.69198 0.5374 0.0
C1769 C 0.1044 0.66209 0.51484 0.0
C1770 C 0.10578 0.703 0.54869 0.0
C1771 C 0.10811 0.70365 0.56861 0.0
C1772 C 0.11992 0.69335 0.57758 0.0
C1773 C 0.12903 0.68213 0.56621 0.0
C1774 C 0.1267 0.68152 0.54631 0.0
H1775 H 0.09687 0.65426 0.50498 0.0
H1776 H 0.11566 0.65495 0.51884 0.0
H1777 H 0.09711 0.66448 0.52813 0.0
H1778 H 0.09686 0.71127 0.54203 0.0
H1779 H 0.10085 0.71243 0.57689 0.0
H1780 H 0.33006 0.13413 0.41922 0.0
H1781 H 0.33108 0.1306 0.45403 0.0
H1782 H 0.28681 0.10059 0.45196 0.0
H1783 H 0.2857 0.1039 0.41696 0.0
H1784 H 0.30487 0.14172 0.47756 0.0
H1785 H 0.31786 0.07462 0.48877 0.0
H1786 H 0.32216 0.08509 0.46631 0.0
H1787 H 0.30126 0.07938 0.47237 0.0
C1788 C 0.32065 0.12656 0.42606 0.0
C1789 C 0.30769 0.11944 0.41528 0.0
C1790 C 0.3213 0.12453 0.44597 0.0
C1791 C 0.30909 0.11527 0.45551 0.0
C1792 C 0.2965 0.10757 0.4448 0.0
H1793 H 0.28384 0.10562 0.57649 0.0
H1794 H 0.28552 0.10247 0.54152 0.0
C1795 C 0.29584 0.10957 0.42481 0.0
C1796 C 0.3086 0.11526 0.47677 0.0
H1797 H 0.31117 0.09048 0.51652 0.0
C1798 C 0.30632 0.13053 0.48609 0.0
C1799 C 0.31033 0.10061 0.48776 0.0
C1800 C 0.31317 0.08398 0.47836 0.0
C1801 C 0.30566 0.13157 0.50618 0.0
C1802 C 0.30765 0.11697 0.51724 0.0
C1803 C 0.30974 0.10164 0.50794 0.0
C1804 C 0.30758 0.11754 0.53849 0.0
C1805 C 0.30254 0.14826 0.51539 0.0
C1806 C 0.31971 0.12667 0.54835 0.0
C1807 C 0.31875 0.12861 0.56827 0.0
C1808 C 0.30569 0.12132 0.57874 0.0
C1809 C 0.294 0.1115 0.56888 0.0
C1810 C 0.29494 0.10964 0.54891 0.0
H1811 H 0.2971 0.15725 0.50502 0.0
H1812 H 0.29404 0.14709 0.5279 0.0
H1813 H 0.31448 0.15345 0.52059 0.0
H1814 H 0.32974 0.1326 0.54055 0.0
H1815 H 0.3281 0.13606 0.57539 0.0
H1816 H 0.8585 0.32746 0.41807 0.0
H1817 H 0.86195 0.32955 0.45285 0.0
H1818 H 0.89588 0.28815 0.45191 0.0
H1819 H 0.89273 0.28606 0.417 0.0
H1820 H 0.85357 0.30433 0.47801 0.0
H1821 H 0.91988 0.3217 0.48643 0.0
H1822 H 0.90888 0.32388 0.46391 0.0
H1823 H 0.91631 0.30388 0.47146 0.0
C1824 C 0.86686 0.3189 0.42517 0.0
C1825 C 0.87526 0.30651 0.41472 0.0
C1826 C 0.86884 0.32015 0.44506 0.0
C1827 C 0.87928 0.30912 0.45489 0.0
C1828 C 0.88801 0.297 0.44452 0.0
H1829 H 0.89294 0.28597 0.57561 0.0
H1830 H 0.89506 0.28754 0.54052 0.0
C1831 C 0.88609 0.29575 0.42458 0.0
C1832 C 0.87977 0.30935 0.47616 0.0
H1833 H 0.90542 0.3139 0.51493 0.0
C1834 C 0.86488 0.30654 0.48609 0.0
C1835 C 0.89459 0.31211 0.48659 0.0
C1836 C 0.91081 0.31571 0.47659 0.0
C1837 C 0.8644 0.30621 0.50622 0.0
C1838 C 0.87918 0.30904 0.51668 0.0
C1839 C 0.89412 0.31178 0.5068 0.0
C1840 C 0.87923 0.3091 0.53794 0.0
C1841 C 0.84814 0.30249 0.51613 0.0
C1842 C 0.87 0.321 0.54804 0.0
C1843 C 0.86867 0.3201 0.56803 0.0
C1844 C 0.87665 0.30734 0.5783 0.0
C1845 C 0.88654 0.29589 0.56816 0.0
C1846 C 0.88781 0.29678 0.54812 0.0
H1847 H 0.83902 0.29671 0.50617 0.0
H1848 H 0.85002 0.29407 0.52859 0.0
H1849 H 0.84269 0.31425 0.52156 0.0
H1850 H 0.86353 0.33078 0.5404 0.0
H1851 H 0.86113 0.32927 0.57536 0.0
H1852 H 0.66849 0.86269 0.57816 0.0
H1853 H 0.66597 0.86454 0.54322 0.0
H1854 H 0.70864 0.89678 0.54112 0.0
H1855 H 0.71121 0.89522 0.57615 0.0
H1856 H 0.68152 0.90625 0.5162 0.0
H1857 H 0.69959 0.83997 0.50839 0.0
H1858 H 0.68235 0.84373 0.52419 0.0
H1859 H 0.70258 0.85139 0.53047 0.0
C1860 C 0.67728 0.8703 0.57035 0.0
C1861 C 0.69021 0.87862 0.57998 0.0
C1862 C 0.67583 0.8713 0.55036 0.0
C1863 C 0.6873 0.88055 0.53963 0.0
C1864 C 0.69972 0.88951 0.5492 0.0
H1865 H 0.70959 0.89352 0.41878 0.0
H1866 H 0.70734 0.89654 0.45367 0.0
C1867 C 0.70118 0.88855 0.56921 0.0
C1868 C 0.68687 0.88013 0.51838 0.0
H1869 H 0.69174 0.8541 0.48008 0.0
C1870 C 0.68375 0.89488 0.50825 0.0
C1871 C 0.68983 0.86526 0.50814 0.0
C1872 C 0.69392 0.8492 0.5183 0.0
C1873 C 0.68328 0.89507 0.48804 0.0
C1874 C 0.68629 0.88019 0.47782 0.0
C1875 C 0.68936 0.86547 0.48799 0.0
C1876 C 0.6867 0.87953 0.45655 0.0
C1877 C 0.67932 0.91111 0.47782 0.0
C1878 C 0.67594 0.86885 0.44666 0.0
C1879 C 0.67728 0.86695 0.42675 0.0
C1880 C 0.68949 0.87566 0.41635 0.0
C1881 C 0.70004 0.88663 0.4263 0.0
C1882 C 0.69869 0.88849 0.44624 0.0
H1883 H 0.67301 0.92009 0.4875 0.0
H1884 H 0.69103 0.91688 0.47274 0.0
H1885 H 0.67129 0.90886 0.46509 0.0
H1886 H 0.66666 0.86176 0.4544 0.0
H1887 H 0.66891 0.85844 0.41959 0.0
H1888 H 0.64101 0.82465 0.07279 0.0
H1889 H 0.63681 0.82595 0.03807 0.0
H1890 H 0.5991 0.78813 0.04202 0.0
H1891 H 0.60331 0.78653 0.07683 0.0
H1892 H 0.62289 0.7817 0.01432 0.0
H1893 H 0.59896 0.84584 0.00658 0.0
H1894 H 0.61794 0.84472 0.02004 0.0
H1895 H 0.59947 0.83513 0.02942 0.0
C1896 C 0.63169 0.8167 0.06636 0.0
C1897 C 0.62252 0.80545 0.07764 0.0
C1898 C 0.62923 0.81757 0.0465 0.0
C1899 C 0.61745 0.80734 0.03754 0.0
C1900 C 0.60816 0.79622 0.04872 0.0
H1901 H 0.60153 0.78929 0.91449 0.0
H1902 H 0.59753 0.78998 0.94937 0.0
C1903 C 0.61061 0.79531 0.06861 0.0
C1904 C 0.61579 0.8074 0.01634 0.0
H1905 H 0.60878 0.83272 0.97778 0.0
C1906 C 0.61956 0.79277 0.00631 0.0
C1907 C 0.61148 0.82189 0.006 0.0
C1908 C 0.60657 0.83774 0.01606 0.0
C1909 C 0.61984 0.79242 0.98613 0.0
C1910 C 0.61596 0.80703 0.97578 0.0
C1911 C 0.61175 0.82155 0.9858 0.0
C1912 C 0.61721 0.80769 0.95457 0.0
C1913 C 0.625 0.77662 0.97609 0.0
C1914 C 0.62916 0.81791 0.94594 0.0
C1915 C 0.63144 0.81763 0.92603 0.0
C1916 C 0.62177 0.80713 0.91436 0.0
C1917 C 0.60932 0.7974 0.92303 0.0
C1918 C 0.60704 0.79773 0.94296 0.0
H1919 H 0.63086 0.76764 0.98614 0.0
H1920 H 0.61388 0.77061 0.96973 0.0
H1921 H 0.63386 0.77931 0.96424 0.0
H1922 H 0.63708 0.82574 0.95468 0.0
H1923 H 0.64108 0.82536 0.91987 0.0
H1924 H 0.21518 0.60513 0.91583 0.0
H1925 H 0.21367 0.60231 0.95083 0.0
H1926 H 0.17194 0.63581 0.95221 0.0
H1927 H 0.17344 0.63893 0.91735 0.0
H1928 H 0.19753 0.64455 0.97695 0.0
H1929 H 0.18058 0.57816 0.98603 0.0
H1930 H 0.19818 0.5819 0.97074 0.0
H1931 H 0.178 0.58908 0.96351 0.0
C1932 C 0.20555 0.61177 0.92353 0.0
C1933 C 0.1945 0.62236 0.91375 0.0
C1934 C 0.20464 0.61003 0.94353 0.0
C1935 C 0.19258 0.61871 0.95405 0.0
C1936 C 0.1813 0.62895 0.94431 0.0
H1937 H 0.17174 0.63787 0.0739 0.0
H1938 H 0.1707 0.63501 0.03897 0.0
C1939 C 0.18221 0.63074 0.92436 0.0
C1940 C 0.19258 0.61833 0.97534 0.0
H1941 H 0.18803 0.59295 0.01436 0.0
C1942 C 0.19537 0.63329 0.98514 0.0
C1943 C 0.18989 0.60357 0.98591 0.0
C1944 C 0.18635 0.58727 0.97606 0.0
C1945 C 0.19567 0.63391 0.00527 0.0
C1946 C 0.1928 0.61921 0.01588 0.0
C1947 C 0.19017 0.60418 0.00613 0.0
C1948 C 0.19246 0.61937 0.03715 0.0
C1949 C 0.19931 0.65025 0.01503 0.0
C1950 C 0.20466 0.61094 0.04771 0.0
C1951 C 0.20528 0.61248 0.06775 0.0
C1952 C 0.19368 0.62247 0.07751 0.0
C1953 C 0.18102 0.63026 0.06687 0.0
C1954 C 0.18039 0.62867 0.04689 0.0
H1955 H 0.20521 0.65926 0.00503 0.0
H1956 H 0.18751 0.65577 0.02022 0.0
H1957 H 0.2076 0.64847 0.02763 0.0
H1958 H 0.21402 0.60363 0.0404 0.0
H1959 H 0.21513 0.60622 0.07548 0.0
H1960 H 0.39441 0.21323 0.07661 0.0
H1961 H 0.39619 0.2116 0.04151 0.0
H1962 H 0.36177 0.17063 0.04155 0.0
H1963 H 0.35971 0.1722 0.07655 0.0
H1964 H 0.40472 0.18459 0.01607 0.0
H1965 H 0.33966 0.20618 0.00706 0.0
H1966 H 0.35079 0.20816 0.0295 0.0
H1967 H 0.34212 0.1885 0.02256 0.0
C1968 C 0.38728 0.20379 0.0692 0.0
C1969 C 0.37673 0.19299 0.07942 0.0
C1970 C 0.38836 0.20287 0.04915 0.0
C1971 C 0.3789 0.19119 0.039 0.0
C1972 C 0.36893 0.17993 0.04916 0.0
H1973 H 0.358 0.17245 0.91929 0.0
H1974 H 0.36087 0.17103 0.95419 0.0
C1975 C 0.36782 0.18084 0.06918 0.0
C1976 C 0.37887 0.1912 0.01774 0.0
H1977 H 0.3537 0.19745 0.97895 0.0
C1978 C 0.39361 0.18744 0.0079 0.0
C1979 C 0.36434 0.195 0.00722 0.0
C1980 C 0.34835 0.19984 0.01707 0.0
C1981 C 0.39409 0.18702 0.9877 0.0
C1982 C 0.37951 0.1907 0.97721 0.0
C1983 C 0.36482 0.19455 0.98708 0.0
C1984 C 0.37908 0.19069 0.95594 0.0
C1985 C 0.41005 0.1823 0.97775 0.0
C1986 C 0.38846 0.20219 0.94537 0.0
C1987 C 0.38686 0.20307 0.92536 0.0
C1988 C 0.37575 0.19253 0.9156 0.0
C1989 C 0.36664 0.1808 0.92628 0.0
C1990 C 0.36826 0.17994 0.94624 0.0
H1991 H 0.41882 0.17602 0.98771 0.0
H1992 H 0.40759 0.17398 0.96533 0.0
H1993 H 0.41616 0.19369 0.97221 0.0
H1994 H 0.39665 0.21081 0.95265 0.0
H1995 H 0.39405 0.21226 0.91762 0.0
H1996 H 0.78469 0.39376 0.07575 0.0
H1997 H 0.78611 0.39586 0.04066 0.0
H1998 H 0.82879 0.36358 0.04021 0.0
H1999 H 0.82742 0.36119 0.07517 0.0
H2000 H 0.81239 0.40594 0.01514 0.0
H2001 H 0.7945 0.33982 0.00572 0.0
H2002 H 0.79206 0.35066 0.02828 0.0
H2003 H 0.81212 0.34311 0.02109 0.0
C2004 C 0.79446 0.38718 0.06823 0.0
C2005 C 0.8058 0.37711 0.07829 0.0
C2006 C 0.79526 0.38844 0.04818 0.0
C2007 C 0.80737 0.37965 0.0379 0.0
C2008 C 0.81916 0.37021 0.04791 0.0
H2009 H 0.82682 0.36016 0.91805 0.0
H2010 H 0.82835 0.36316 0.95293 0.0
C2011 C 0.81836 0.36889 0.06791 0.0
C2012 C 0.80729 0.37974 0.01664 0.0
H2013 H 0.8025 0.35443 0.97769 0.0
C2014 C 0.81018 0.39472 0.0069 0.0
C2015 C 0.80434 0.36506 0.00603 0.0
C2016 C 0.80043 0.34877 0.01577 0.0
C2017 C 0.81057 0.39532 0.9867 0.0
C2018 C 0.80774 0.3806 0.97612 0.0
C2019 C 0.80475 0.36567 0.98589 0.0
C2020 C 0.80772 0.38027 0.95485 0.0
C2021 C 0.81433 0.41158 0.97685 0.0
C2022 C 0.79566 0.389 0.94439 0.0
C2023 C 0.79472 0.38732 0.9244 0.0
C2024 C 0.80576 0.37676 0.91456 0.0
C2025 C 0.81807 0.36834 0.92511 0.0
C2026 C 0.81899 0.37005 0.94506 0.0
H2027 H 0.82013 0.42064 0.98685 0.0
H2028 H 0.82273 0.40968 0.96437 0.0
H2029 H 0.80259 0.41706 0.97143 0.0
H2030 H 0.78665 0.39671 0.95174 0.0
H2031 H 0.78508 0.39398 0.91674 0.0
H2032 H 0.64139 0.17518 0.07319 0.0
H2033 H 0.63772 0.1743 0.03831 0.0
H2034 H 0.59892 0.21099 0.0423 0.0
H2035 H 0.60256 0.21216 0.0772 0.0
H2036 H 0.60911 0.16737 0.01546 0.0
H2037 H 0.63279 0.23159 0.00474 0.0
H2038 H 0.6356 0.22038 0.027 0.0
H2039 H 0.61585 0.22954 0.0214 0.0
C2040 C 0.63201 0.18304 0.06671 0.0
C2041 C 0.6224 0.19389 0.07802 0.0
C2042 C 0.62992 0.18247 0.04677 0.0
C2043 C 0.61823 0.19275 0.03777 0.0
C2044 C 0.60822 0.20318 0.049 0.0
H2045 H 0.6029 0.21192 0.91546 0.0
H2046 H 0.59915 0.21079 0.95035 0.0
C2047 C 0.6103 0.20378 0.06895 0.0
C2048 C 0.61695 0.1929 0.01655 0.0
H2049 H 0.62383 0.21721 0.97714 0.0
C2050 C 0.61224 0.17827 0.00705 0.0
C2051 C 0.62104 0.20717 0.00568 0.0
C2052 C 0.62674 0.22304 0.01515 0.0
C2053 C 0.61159 0.17751 0.98688 0.0
C2054 C 0.61603 0.19167 0.97602 0.0
C2055 C 0.62038 0.2064 0.98554 0.0
C2056 C 0.61721 0.19129 0.95478 0.0
C2057 C 0.60612 0.16158 0.97739 0.0
C2058 C 0.62861 0.1807 0.94576 0.0
C2059 C 0.63082 0.1813 0.92584 0.0
C2060 C 0.62175 0.19264 0.91457 0.0
C2061 C 0.61012 0.20306 0.92366 0.0
C2062 C 0.60793 0.20243 0.9436 0.0
H2063 H 0.59856 0.15383 0.98731 0.0
H2064 H 0.59875 0.16411 0.9642 0.0
H2065 H 0.61724 0.15429 0.97322 0.0
H2066 H 0.63616 0.17227 0.95418 0.0
H2067 H 0.63991 0.17312 0.91938 0.0
H2068 H 0.78619 0.60549 0.07505 0.0
H2069 H 0.78746 0.60287 0.04002 0.0
H2070 H 0.82734 0.63853 0.03819 0.0
H2071 H 0.8261 0.64142 0.0731 0.0
H2072 H 0.80093 0.64567 0.0134 0.0
H2073 H 0.82212 0.58042 0.00506 0.0
H2074 H 0.80446 0.58321 0.02055 0.0
H2075 H 0.8242 0.59175 0.02737 0.0
C2076 C 0.79535 0.61267 0.06725 0.0
C2077 C 0.80599 0.62373 0.07693 0.0
C2078 C 0.79613 0.61105 0.04723 0.0
C2079 C 0.80762 0.62037 0.03659 0.0
C2080 C 0.81844 0.63118 0.0462 0.0
H2081 H 0.82632 0.63905 0.91593 0.0
H2082 H 0.82774 0.63719 0.95094 0.0
C2083 C 0.81768 0.63281 0.06617 0.0
C2084 C 0.80758 0.61984 0.01532 0.0
H2085 H 0.81356 0.5944 0.97662 0.0
C2086 C 0.80378 0.63449 0.00535 0.0
C2087 C 0.8112 0.60519 0.00492 0.0
C2088 C 0.81587 0.58926 0.01497 0.0
C2089 C 0.80332 0.63487 0.9852 0.0
C2090 C 0.80705 0.62027 0.97478 0.0
C2091 C 0.81076 0.60556 0.98472 0.0
C2092 C 0.80712 0.62014 0.95351 0.0
C2093 C 0.79854 0.65083 0.97524 0.0
C2094 C 0.79545 0.61065 0.94337 0.0
C2095 C 0.79462 0.61161 0.92331 0.0
C2096 C 0.80549 0.62207 0.91307 0.0
C2097 C 0.81763 0.63101 0.92332 0.0
C2098 C 0.81845 0.63 0.94334 0.0
H2099 H 0.79219 0.65957 0.98518 0.0
H2100 H 0.8099 0.657 0.96975 0.0
H2101 H 0.79023 0.64835 0.96281 0.0
H2102 H 0.78667 0.60289 0.95102 0.0
H2103 H 0.78518 0.60448 0.9159 0.0
H2104 H 0.36057 0.82684 0.91873 0.0
H2105 H 0.36378 0.82844 0.95357 0.0
H2106 H 0.3976 0.78697 0.95219 0.0
H2107 H 0.39467 0.78535 0.9172 0.0
H2108 H 0.35526 0.80277 0.97835 0.0
H2109 H 0.42149 0.82035 0.98731 0.0
H2110 H 0.41051 0.82284 0.96482 0.0
H2111 H 0.41792 0.80273 0.97199 0.0
C2112 C 0.36886 0.81815 0.92574 0.0
C2113 C 0.37729 0.80589 0.91513 0.0
C2114 C 0.37069 0.81912 0.94567 0.0
C2115 C 0.38104 0.80793 0.9554 0.0
C2116 C 0.3898 0.79593 0.94488 0.0
H2117 H 0.39443 0.78473 0.07631 0.0
H2118 H 0.39665 0.78626 0.04123 0.0
C2119 C 0.38801 0.79495 0.9249 0.0
C2120 C 0.38144 0.80796 0.97668 0.0
H2121 H 0.40685 0.81258 0.01565 0.0
C2122 C 0.36652 0.80501 0.98651 0.0
C2123 C 0.39618 0.81076 0.98723 0.0
C2124 C 0.41243 0.81449 0.97735 0.0
C2125 C 0.36594 0.80462 0.00665 0.0
C2126 C 0.38064 0.80755 0.01723 0.0
C2127 C 0.39561 0.8104 0.00744 0.0
C2128 C 0.38057 0.80762 0.0385 0.0
C2129 C 0.34965 0.80076 0.01643 0.0
C2130 C 0.37117 0.81943 0.04854 0.0
C2131 C 0.36978 0.81856 0.06853 0.0
C2132 C 0.37788 0.80591 0.07888 0.0
C2133 C 0.38793 0.79456 0.0688 0.0
C2134 C 0.38926 0.79543 0.04877 0.0
H2135 H 0.34066 0.79489 0.0064 0.0
H2136 H 0.35154 0.79238 0.02893 0.0
H2137 H 0.34406 0.81247 0.02179 0.0
H2138 H 0.36462 0.82912 0.04085 0.0
H2139 H 0.36211 0.82764 0.07581 0.0
H2140 H 0.21583 0.3932 0.9172 0.0
H2141 H 0.2149 0.39584 0.95228 0.0
H2142 H 0.17316 0.36241 0.95435 0.0
H2143 H 0.17404 0.35948 0.91943 0.0
H2144 H 0.18854 0.40577 0.97784 0.0
H2145 H 0.20845 0.34048 0.98914 0.0
H2146 H 0.21044 0.35088 0.96624 0.0
H2147 H 0.19068 0.34278 0.97377 0.0
C2148 C 0.2064 0.38645 0.92509 0.0
C2149 C 0.19515 0.37594 0.91549 0.0
C2150 C 0.20588 0.38802 0.94512 0.0
C2151 C 0.19414 0.3791 0.95584 0.0
C2152 C 0.1825 0.36914 0.94629 0.0
H2153 H 0.17307 0.36124 0.07514 0.0
H2154 H 0.17234 0.36404 0.04022 0.0
C2155 C 0.18302 0.36752 0.92632 0.0
C2156 C 0.19438 0.37969 0.97709 0.0
H2157 H 0.1995 0.35527 0.01673 0.0
C2158 C 0.19102 0.39478 0.9864 0.0
C2159 C 0.19771 0.36533 0.98811 0.0
C2160 C 0.20218 0.34897 0.97885 0.0
C2161 C 0.19041 0.39575 0.00658 0.0
C2162 C 0.19346 0.3813 0.01756 0.0
C2163 C 0.19705 0.3663 0.00821 0.0
C2164 C 0.1929 0.38126 0.03881 0.0
C2165 C 0.18612 0.41206 0.01599 0.0
C2166 C 0.20461 0.39018 0.04957 0.0
C2167 C 0.2051 0.38862 0.0696 0.0
C2168 C 0.19394 0.37799 0.07917 0.0
C2169 C 0.18191 0.36947 0.0683 0.0
C2170 C 0.18144 0.37106 0.04832 0.0
H2171 H 0.18059 0.42097 0.00559 0.0
H2172 H 0.17728 0.41016 0.02806 0.0
H2173 H 0.19757 0.41771 0.02196 0.0
H2174 H 0.21373 0.39791 0.04243 0.0
H2175 H 0.21452 0.39536 0.0775 0.0
H2176 H 0.17298 0.35452 0.16532 0.0
H2177 H 0.16064 0.34065 0.19307 0.0
H2178 H 0.19522 0.36552 0.23068 0.0
H2179 H 0.20798 0.37919 0.20282 0.0
H2180 H 0.19172 0.3322 0.23905 0.0
H2181 H 0.13004 0.36226 0.23208 0.0
H2182 H 0.13661 0.35175 0.21063 0.0
H2183 H 0.14807 0.36945 0.21913 0.0
C2184 C 0.17797 0.35707 0.17949 0.0
C2185 C 0.19137 0.36802 0.18194 0.0
C2186 C 0.17083 0.3492 0.19534 0.0
C2187 C 0.1768 0.35233 0.21394 0.0
C2188 C 0.19037 0.36305 0.21642 0.0
H2189 H 0.14654 0.32439 0.32839 0.0
H2190 H 0.1601 0.3361 0.3 0.0
C2191 C 0.19761 0.37085 0.20053 0.0
C2192 C 0.16896 0.34427 0.23076 0.0
H2193 H 0.13208 0.34005 0.25449 0.0
C2194 C 0.17871 0.33396 0.24249 0.0
C2195 C 0.15197 0.34663 0.23518 0.0
C2196 C 0.14109 0.35825 0.22371 0.0
C2197 C 0.17183 0.32576 0.25842 0.0
C2198 C 0.15485 0.32803 0.26269 0.0
C2199 C 0.14509 0.33828 0.25098 0.0
C2200 C 0.14711 0.3204 0.27976 0.0
C2201 C 0.18268 0.31462 0.27051 0.0
C2202 C 0.13523 0.30781 0.27764 0.0
C2203 C 0.1275 0.30102 0.29385 0.0
C2204 C 0.1314 0.30693 0.31233 0.0
C2205 C 0.14329 0.31958 0.31434 0.0
C2206 C 0.1511 0.32623 0.29817 0.0
H2207 H 0.19466 0.31178 0.2633 0.0
H2208 H 0.18539 0.32084 0.28441 0.0
H2209 H 0.17618 0.30278 0.27374 0.0
H2210 H 0.13196 0.30326 0.26346 0.0
H2211 H 0.11836 0.2913 0.29189 0.0
H2212 H 0.64455 0.17308 0.16549 0.0
H2213 H 0.65791 0.16126 0.194 0.0
H2214 H 0.63231 0.19653 0.23001 0.0
H2215 H 0.61892 0.20855 0.20153 0.0
H2216 H 0.67784 0.18036 0.22393 0.0
H2217 H 0.62145 0.14799 0.25123 0.0
H2218 H 0.62374 0.15397 0.22631 0.0
H2219 H 0.61929 0.16939 0.24419 0.0
C2220 C 0.64176 0.17834 0.17947 0.0
C2221 C 0.63065 0.1917 0.18131 0.0
C2222 C 0.64942 0.1716 0.1957 0.0
C2223 C 0.64597 0.17799 0.21401 0.0
C2224 C 0.63499 0.19139 0.21594 0.0
H2225 H 0.67307 0.14559 0.32854 0.0
H2226 H 0.66127 0.15977 0.30065 0.0
C2227 C 0.62739 0.19824 0.19969 0.0
C2228 C 0.6538 0.17051 0.23113 0.0
H2229 H 0.64562 0.1462 0.27015 0.0
C2230 C 0.67085 0.17288 0.23408 0.0
C2231 C 0.64456 0.16086 0.24427 0.0
C2232 C 0.62625 0.15775 0.2414 0.0
C2233 C 0.67893 0.16596 0.25008 0.0
C2234 C 0.66973 0.15606 0.26311 0.0
C2235 C 0.65264 0.15377 0.26013 0.0
C2236 C 0.67751 0.14794 0.27997 0.0
C2237 C 0.69712 0.1696 0.25308 0.0
C2238 C 0.69052 0.13653 0.27757 0.0
C2239 C 0.69739 0.12849 0.29353 0.0
C2240 C 0.69119 0.13158 0.31208 0.0
C2241 C 0.67812 0.14295 0.31442 0.0
C2242 C 0.67135 0.15106 0.2985 0.0
H2243 H 0.70102 0.18099 0.24528 0.0
H2244 H 0.70003 0.17116 0.2686 0.0
H2245 H 0.70457 0.15908 0.24746 0.0
H2246 H 0.69518 0.13362 0.26334 0.0
H2247 H 0.70739 0.11971 0.2913 0.0
H2248 H 0.82761 0.64429 0.16414 0.0
H2249 H 0.83984 0.65738 0.19246 0.0
H2250 H 0.80462 0.63205 0.22887 0.0
H2251 H 0.79201 0.61916 0.20046 0.0
H2252 H 0.80804 0.6651 0.23805 0.0
H2253 H 0.86984 0.63527 0.23169 0.0
H2254 H 0.86364 0.64608 0.21028 0.0
H2255 H 0.85203 0.62827 0.2182 0.0
C2256 C 0.82248 0.64146 0.17817 0.0
C2257 C 0.80891 0.63063 0.18011 0.0
C2258 C 0.82955 0.64888 0.19435 0.0
C2259 C 0.82334 0.64543 0.21278 0.0
C2260 C 0.80966 0.63477 0.21476 0.0
H2261 H 0.85312 0.67347 0.32789 0.0
H2262 H 0.83995 0.66105 0.29962 0.0
C2263 C 0.80249 0.62742 0.19855 0.0
C2264 C 0.83094 0.65321 0.22993 0.0
H2265 H 0.86755 0.65745 0.2542 0.0
C2266 C 0.82102 0.66335 0.24166 0.0
C2267 C 0.84789 0.65087 0.23459 0.0
C2268 C 0.85894 0.6394 0.22314 0.0
C2269 C 0.82768 0.67146 0.25777 0.0
C2270 C 0.84464 0.66929 0.26221 0.0
C2271 C 0.85457 0.65914 0.25057 0.0
C2272 C 0.85224 0.67716 0.27921 0.0
C2273 C 0.81667 0.68246 0.26983 0.0
C2274 C 0.86357 0.69023 0.27695 0.0
C2275 C 0.87105 0.69743 0.29307 0.0
C2276 C 0.86745 0.69148 0.31162 0.0
C2277 C 0.85613 0.67833 0.31378 0.0
C2278 C 0.84856 0.67125 0.29768 0.0
H2279 H 0.80453 0.6849 0.26278 0.0
H2280 H 0.81431 0.67638 0.2839 0.0
H2281 H 0.8229 0.6945 0.27272 0.0
H2282 H 0.86658 0.69486 0.26273 0.0
H2283 H 0.87975 0.70752 0.291 0.0
H2284 H 0.38202 0.78971 0.2021 0.0
H2285 H 0.36834 0.8012 0.23072 0.0
H2286 H 0.34201 0.83617 0.19503 0.0
H2287 H 0.35568 0.82493 0.16644 0.0
H2288 H 0.36899 0.83785 0.24141 0.0
H2289 H 0.30604 0.81124 0.22966 0.0
H2290 H 0.32455 0.80212 0.21943 0.0
H2291 H 0.31602 0.82071 0.20923 0.0
C2292 C 0.37329 0.79982 0.20037 0.0
C2293 C 0.36991 0.80643 0.18206 0.0
C2294 C 0.3655 0.80634 0.21669 0.0
C2295 C 0.35409 0.81938 0.21486 0.0
C2296 C 0.35066 0.82597 0.19663 0.0
H2297 H 0.29277 0.87737 0.29165 0.0
H2298 H 0.30581 0.8637 0.26402 0.0
C2299 C 0.35853 0.81957 0.18035 0.0
C2300 C 0.34617 0.82659 0.23207 0.0
H2301 H 0.30892 0.83072 0.25491 0.0
C2302 C 0.35589 0.83623 0.2445 0.0
C2303 C 0.32907 0.82451 0.23582 0.0
C2304 C 0.31825 0.81401 0.22294 0.0
C2305 C 0.34885 0.84421 0.26047 0.0
C2306 C 0.33173 0.84207 0.26434 0.0
C2307 C 0.32203 0.83232 0.25192 0.0
C2308 C 0.32362 0.84998 0.2811 0.0
C2309 C 0.35972 0.85525 0.27269 0.0
C2310 C 0.32911 0.84656 0.29985 0.0
C2311 C 0.32181 0.85446 0.31559 0.0
C2312 C 0.30871 0.86573 0.31288 0.0
C2313 C 0.30289 0.86879 0.29415 0.0
C2314 C 0.3103 0.86098 0.27838 0.0
H2315 H 0.37105 0.85922 0.26482 0.0
H2316 H 0.35289 0.8665 0.27744 0.0
H2317 H 0.36373 0.84832 0.28568 0.0
H2318 H 0.33908 0.83779 0.3023 0.0
H2319 H 0.32644 0.85172 0.32988 0.0
H2320 H 0.20792 0.61832 0.79013 0.0
H2321 H 0.19552 0.6318 0.76198 0.0
H2322 H 0.162 0.65867 0.79906 0.0
H2323 H 0.17398 0.64494 0.82712 0.0
H2324 H 0.14609 0.64488 0.76884 0.0
H2325 H 0.20171 0.67896 0.74323 0.0
H2326 H 0.20499 0.65703 0.7457 0.0
H2327 H 0.20071 0.66938 0.76669 0.0
C2328 C 0.19795 0.62715 0.79225 0.0
C2329 C 0.19194 0.6306 0.81081 0.0
C2330 C 0.19097 0.63494 0.77619 0.0
C2331 C 0.17803 0.64646 0.77847 0.0
C2332 C 0.17202 0.64988 0.79699 0.0
H2333 H 0.11929 0.70777 0.70124 0.0
H2334 H 0.13293 0.69537 0.72933 0.0
C2335 C 0.17889 0.64202 0.81301 0.0
C2336 C 0.17025 0.65447 0.76154 0.0
H2337 H 0.1783 0.67872 0.7223 0.0
C2338 C 0.15311 0.65236 0.75873 0.0
C2339 C 0.17945 0.66426 0.7484 0.0
C2340 C 0.1977 0.6677 0.75121 0.0
C2341 C 0.14498 0.65956 0.74297 0.0
C2342 C 0.15421 0.66915 0.72977 0.0
C2343 C 0.17132 0.6713 0.73251 0.0
C2344 C 0.14629 0.6769 0.71286 0.0
C2345 C 0.12661 0.65667 0.74033 0.0
C2346 C 0.1495 0.67071 0.69439 0.0
C2347 C 0.14168 0.67768 0.67838 0.0
C2348 C 0.13066 0.69107 0.6806 0.0
C2349 C 0.12769 0.69743 0.69912 0.0
C2350 C 0.13543 0.69036 0.71515 0.0
H2351 H 0.12183 0.64681 0.75004 0.0
H2352 H 0.1198 0.66833 0.74346 0.0
H2353 H 0.12389 0.65313 0.7252 0.0
H2354 H 0.15789 0.66033 0.69241 0.0
H2355 H 0.14427 0.67255 0.66429 0.0
H2356 H 0.32565 0.14481 0.66554 0.0
H2357 H 0.33798 0.15791 0.6939 0.0
H2358 H 0.30285 0.13261 0.73039 0.0
H2359 H 0.2903 0.11949 0.70204 0.0
H2360 H 0.31929 0.17788 0.72443 0.0
H2361 H 0.35182 0.12111 0.75041 0.0
H2362 H 0.34558 0.12371 0.72561 0.0
H2363 H 0.33033 0.11911 0.74364 0.0
C2364 C 0.32052 0.14204 0.67959 0.0
C2365 C 0.30705 0.13108 0.68161 0.0
C2366 C 0.32756 0.14956 0.69573 0.0
C2367 C 0.32135 0.1461 0.71413 0.0
C2368 C 0.30783 0.13529 0.71624 0.0
H2369 H 0.35391 0.1721 0.82864 0.0
H2370 H 0.34014 0.1604 0.80045 0.0
C2371 C 0.30069 0.12785 0.70007 0.0
C2372 C 0.32915 0.15375 0.73115 0.0
H2373 H 0.3539 0.14509 0.76965 0.0
C2374 C 0.32687 0.17077 0.73436 0.0
C2375 C 0.33896 0.14434 0.74397 0.0
C2376 C 0.34197 0.12606 0.74079 0.0
C2377 C 0.33401 0.17866 0.75035 0.0
C2378 C 0.34401 0.16929 0.7631 0.0
C2379 C 0.34625 0.15224 0.75983 0.0
C2380 C 0.35212 0.17683 0.78009 0.0
C2381 C 0.33044 0.19682 0.75368 0.0
C2382 C 0.36353 0.18988 0.77796 0.0
C2383 C 0.37133 0.1967 0.79409 0.0
C2384 C 0.368 0.19041 0.81255 0.0
C2385 C 0.35672 0.17723 0.8146 0.0
C2386 C 0.34884 0.17052 0.79851 0.0
H2387 H 0.31909 0.2009 0.74593 0.0
H2388 H 0.32885 0.19951 0.76925 0.0
H2389 H 0.34101 0.2043 0.74825 0.0
H2390 H 0.36654 0.19466 0.76381 0.0
H2391 H 0.38006 0.20678 0.79209 0.0
H2392 H 0.88094 0.29254 0.70161 0.0
H2393 H 0.86718 0.30458 0.72981 0.0
H2394 H 0.84133 0.33918 0.69309 0.0
H2395 H 0.85532 0.32757 0.66501 0.0
H2396 H 0.85489 0.35426 0.7241 0.0
H2397 H 0.81948 0.29857 0.74706 0.0
H2398 H 0.84141 0.29507 0.745 0.0
H2399 H 0.82949 0.3 0.72387 0.0
C2400 C 0.87229 0.30268 0.69958 0.0
C2401 C 0.86917 0.30909 0.68112 0.0
C2402 C 0.86435 0.30945 0.71566 0.0
C2403 C 0.85302 0.32258 0.71348 0.0
C2404 C 0.84996 0.329 0.69506 0.0
H2405 H 0.79062 0.37985 0.79119 0.0
H2406 H 0.80321 0.36673 0.76284 0.0
C2407 C 0.85797 0.32234 0.67904 0.0
C2408 C 0.84478 0.3301 0.7304 0.0
H2409 H 0.81951 0.32155 0.76861 0.0
C2410 C 0.84707 0.34713 0.73377 0.0
C2411 C 0.83455 0.32076 0.74293 0.0
C2412 C 0.83093 0.30262 0.73947 0.0
C2413 C 0.83961 0.35503 0.74952 0.0
C2414 C 0.82959 0.34565 0.76213 0.0
C2415 C 0.82725 0.32864 0.75882 0.0
C2416 C 0.82172 0.35328 0.77912 0.0
C2417 C 0.84267 0.37328 0.75281 0.0
C2418 C 0.82793 0.34986 0.79752 0.0
C2419 C 0.82088 0.35738 0.81365 0.0
C2420 C 0.80738 0.3683 0.81162 0.0
C2421 C 0.80102 0.37151 0.79316 0.0
C2422 C 0.80819 0.36406 0.777 0.0
H2423 H 0.85253 0.37826 0.74323 0.0
H2424 H 0.83105 0.38028 0.75005 0.0
H2425 H 0.8463 0.37553 0.76802 0.0
H2426 H 0.83838 0.34153 0.79936 0.0
H2427 H 0.82602 0.35463 0.8277 0.0
H2428 H 0.71922 0.86499 0.69406 0.0
H2429 H 0.70892 0.84897 0.72162 0.0
H2430 H 0.65852 0.85882 0.70377 0.0
H2431 H 0.66883 0.87375 0.67562 0.0
H2432 H 0.69202 0.85568 0.75137 0.0
H2433 H 0.65503 0.8105 0.71025 0.0
H2434 H 0.66902 0.82478 0.69861 0.0
H2435 H 0.64809 0.83101 0.70449 0.0
C2436 C 0.70596 0.86366 0.6961 0.0
C2437 C 0.69477 0.87044 0.68276 0.0
C2438 C 0.70007 0.85449 0.71178 0.0
C2439 C 0.68292 0.85224 0.7145 0.0
C2440 C 0.67179 0.85973 0.70158 0.0
H2441 H 0.63375 0.83337 0.82158 0.0
H2442 H 0.64901 0.84449 0.79409 0.0
C2443 C 0.67767 0.86845 0.68564 0.0
C2444 C 0.67655 0.84255 0.73112 0.0
H2445 H 0.64722 0.814 0.74365 0.0
C2446 C 0.6824 0.84638 0.74964 0.0
C2447 C 0.6644 0.82998 0.72894 0.0
C2448 C 0.65896 0.82371 0.70946 0.0
C2449 C 0.67584 0.83862 0.76604 0.0
C2450 C 0.66245 0.82737 0.76395 0.0
C2451 C 0.65721 0.82291 0.74538 0.0
C2452 C 0.65327 0.82054 0.78073 0.0
C2453 C 0.68351 0.8425 0.78534 0.0
C2454 C 0.64977 0.80347 0.78194 0.0
C2455 C 0.64043 0.7972 0.79726 0.0
C2456 C 0.63471 0.80787 0.81178 0.0
C2457 C 0.6382 0.82489 0.81062 0.0
C2458 C 0.64711 0.83121 0.79504 0.0
H2459 H 0.69688 0.84562 0.7838 0.0
H2460 H 0.67725 0.8535 0.79165 0.0
H2461 H 0.68234 0.83192 0.79549 0.0
H2462 H 0.65428 0.79498 0.77104 0.0
H2463 H 0.63796 0.784 0.79795 0.0
H2464 H 0.86167 0.71533 0.69524 0.0
H2465 H 0.84712 0.70294 0.72268 0.0
H2466 H 0.85448 0.65419 0.69824 0.0
H2467 H 0.86792 0.66669 0.67024 0.0
H2468 H 0.82519 0.65571 0.71151 0.0
H2469 H 0.86671 0.68096 0.76785 0.0
H2470 H 0.85697 0.69713 0.75424 0.0
H2471 H 0.87124 0.68311 0.74259 0.0
C2472 C 0.8602 0.70197 0.69585 0.0
C2473 C 0.86599 0.6919 0.68081 0.0
C2474 C 0.852 0.69488 0.71157 0.0
C2475 C 0.85005 0.67757 0.71281 0.0
C2476 C 0.85585 0.66756 0.69768 0.0
H2477 H 0.83056 0.62458 0.81822 0.0
H2478 H 0.84232 0.63791 0.78971 0.0
C2479 C 0.86358 0.67468 0.68172 0.0
C2480 C 0.84175 0.66977 0.72963 0.0
H2481 H 0.84213 0.66771 0.77866 0.0
C2482 C 0.82899 0.65825 0.7262 0.0
C2483 C 0.84679 0.67293 0.7488 0.0
C2484 C 0.86129 0.68407 0.75359 0.0
C2485 C 0.82132 0.64962 0.74132 0.0
C2486 C 0.82593 0.65325 0.76054 0.0
C2487 C 0.8385 0.66497 0.76396 0.0
C2488 C 0.81852 0.64455 0.77733 0.0
C2489 C 0.80888 0.63627 0.73637 0.0
C2490 C 0.80122 0.64374 0.7799 0.0
C2491 C 0.79451 0.63556 0.79586 0.0
C2492 C 0.80501 0.62868 0.80985 0.0
C2493 C 0.82225 0.62979 0.80754 0.0
C2494 C 0.82895 0.63746 0.79131 0.0
H2495 H 0.8108 0.63148 0.72154 0.0
H2496 H 0.80965 0.62567 0.74654 0.0
H2497 H 0.79617 0.64155 0.73704 0.0
H2498 H 0.7929 0.64961 0.76974 0.0
H2499 H 0.78115 0.6351 0.7976 0.0
H2500 H 0.38034 0.79173 0.79159 0.0
H2501 H 0.36707 0.80424 0.76334 0.0
H2502 H 0.34004 0.83772 0.8003 0.0
H2503 H 0.35353 0.82563 0.82846 0.0
H2504 H 0.33412 0.80667 0.75357 0.0
H2505 H 0.36148 0.86937 0.76244 0.0
H2506 H 0.36893 0.85154 0.77557 0.0
H2507 H 0.35056 0.86231 0.78341 0.0
C2508 C 0.37161 0.8018 0.79366 0.0
C2509 C 0.36807 0.80781 0.81219 0.0
C2510 C 0.36404 0.80891 0.77754 0.0
C2511 C 0.35283 0.82211 0.77973 0.0
C2512 C 0.34898 0.82784 0.79827 0.0
H2513 H 0.29054 0.87889 0.7022 0.0
H2514 H 0.30312 0.86528 0.7302 0.0
C2515 C 0.35663 0.82084 0.81435 0.0
C2516 C 0.34499 0.82981 0.76266 0.0
H2517 H 0.33977 0.86678 0.7394 0.0
C2518 C 0.33543 0.81978 0.75039 0.0
C2519 C 0.34676 0.84693 0.75855 0.0
C2520 C 0.35762 0.85814 0.77057 0.0
C2521 C 0.32734 0.82651 0.7343 0.0
C2522 C 0.32894 0.84364 0.73042 0.0
C2523 C 0.33851 0.85366 0.7426 0.0
C2524 C 0.32102 0.85138 0.71351 0.0
C2525 C 0.31694 0.81537 0.72169 0.0
C2526 C 0.32706 0.84809 0.69498 0.0
C2527 C 0.32002 0.85592 0.67903 0.0
C2528 C 0.30679 0.86711 0.68138 0.0
C2529 C 0.3007 0.8703 0.69997 0.0
C2530 C 0.30785 0.86255 0.71594 0.0
H2531 H 0.31467 0.80309 0.72846 0.0
H2532 H 0.30482 0.82131 0.71846 0.0
H2533 H 0.32346 0.81334 0.70781 0.0
H2534 H 0.33736 0.83962 0.69291 0.0
H2535 H 0.32498 0.85323 0.66488 0.0
H2536 H 0.14468 0.3268 0.66594 0.0
H2537 H 0.15808 0.33863 0.69436 0.0
H2538 H 0.13209 0.3038 0.73059 0.0
H2539 H 0.11867 0.29172 0.70213 0.0
H2540 H 0.13085 0.34052 0.7406 0.0
H2541 H 0.19428 0.31483 0.72951 0.0
H2542 H 0.18424 0.3239 0.70889 0.0
H2543 H 0.17596 0.3053 0.71933 0.0
C2544 C 0.14186 0.32159 0.67993 0.0
C2545 C 0.13064 0.30832 0.68184 0.0
C2546 C 0.14957 0.32832 0.69611 0.0
C2547 C 0.14615 0.32195 0.71444 0.0
C2548 C 0.13492 0.30877 0.71647 0.0
H2549 H 0.17289 0.35446 0.82924 0.0
H2550 H 0.16034 0.341 0.80136 0.0
C2551 C 0.12728 0.30192 0.70025 0.0
C2552 C 0.1539 0.32953 0.73153 0.0
H2553 H 0.191 0.33455 0.75443 0.0
C2554 C 0.14397 0.33917 0.74375 0.0
C2555 C 0.17102 0.32781 0.73535 0.0
C2556 C 0.18205 0.31732 0.72269 0.0
C2557 C 0.15082 0.34743 0.75963 0.0
C2558 C 0.16797 0.34561 0.76359 0.0
C2559 C 0.17787 0.33591 0.75135 0.0
C2560 C 0.17583 0.35356 0.78047 0.0
C2561 C 0.13973 0.35839 0.77168 0.0
C2562 C 0.18908 0.36467 0.77801 0.0
C2563 C 0.19646 0.37223 0.79397 0.0
C2564 C 0.19067 0.36878 0.81262 0.0
C2565 C 0.17753 0.35749 0.81503 0.0
C2566 C 0.17027 0.34986 0.79911 0.0
H2567 H 0.12844 0.36222 0.76365 0.0
H2568 H 0.13565 0.35142 0.78463 0.0
H2569 H 0.14639 0.36971 0.77651 0.0
H2570 H 0.19362 0.3676 0.76372 0.0
H2571 H 0.2066 0.38084 0.7917 0.0
H2572 H 0.70998 0.11925 0.70115 0.0
H2573 H 0.69758 0.13234 0.7296 0.0
H2574 H 0.66266 0.15815 0.69335 0.0
H2575 H 0.67485 0.14508 0.66487 0.0
H2576 H 0.68156 0.17778 0.72407 0.0
H2577 H 0.64852 0.12115 0.74958 0.0
H2578 H 0.66999 0.11903 0.74276 0.0
H2579 H 0.65475 0.12384 0.72479 0.0
C2580 C 0.69967 0.12771 0.69925 0.0
C2581 C 0.69333 0.13109 0.68082 0.0
C2582 C 0.69261 0.13514 0.71548 0.0
C2583 C 0.67919 0.14609 0.71348 0.0
C2584 C 0.673 0.14969 0.69511 0.0
H2585 H 0.62031 0.20685 0.7909 0.0
H2586 H 0.63427 0.19476 0.7629 0.0
C2587 C 0.67996 0.14219 0.67889 0.0
C2588 C 0.67146 0.15371 0.73057 0.0
H2589 H 0.64648 0.14507 0.76889 0.0
C2590 C 0.67388 0.17069 0.73392 0.0
C2591 C 0.66154 0.14432 0.7433 0.0
C2592 C 0.6584 0.12608 0.73999 0.0
C2593 C 0.66674 0.17856 0.74993 0.0
C2594 C 0.65659 0.16922 0.76255 0.0
C2595 C 0.65425 0.1522 0.75917 0.0
C2596 C 0.6483 0.17679 0.77942 0.0
C2597 C 0.67044 0.19668 0.75339 0.0
C2598 C 0.65121 0.1704 0.79789 0.0
C2599 C 0.64308 0.17711 0.81383 0.0
C2600 C 0.6319 0.19035 0.81157 0.0
C2601 C 0.62896 0.19673 0.79307 0.0
C2602 C 0.63701 0.18992 0.77709 0.0
H2603 H 0.68194 0.20065 0.74586 0.0
H2604 H 0.66003 0.20428 0.74777 0.0
H2605 H 0.67183 0.19932 0.76899 0.0
H2606 H 0.65981 0.16022 0.79998 0.0
H2607 H 0.6456 0.17192 0.82791 0.0
H2608 H 0.78936 0.3806 0.20144 0.0
H2609 H 0.80103 0.36694 0.22996 0.0
H2610 H 0.8371 0.34211 0.19426 0.0
H2611 H 0.82562 0.35573 0.16576 0.0
H2612 H 0.81807 0.32154 0.22306 0.0
H2613 H 0.84877 0.37797 0.25272 0.0
H2614 H 0.82741 0.37986 0.24544 0.0
H2615 H 0.8431 0.37615 0.22764 0.0
C2616 C 0.79978 0.37225 0.19969 0.0
C2617 C 0.80663 0.36927 0.18141 0.0
C2618 C 0.80642 0.36449 0.21595 0.0
C2619 C 0.81994 0.35364 0.21412 0.0
C2620 C 0.82666 0.35048 0.19589 0.0
H2621 H 0.87815 0.29201 0.29133 0.0
H2622 H 0.86451 0.30437 0.26326 0.0
C2623 C 0.82011 0.3583 0.17966 0.0
C2624 C 0.82723 0.34562 0.23122 0.0
H2625 H 0.85065 0.35346 0.27104 0.0
C2626 C 0.82519 0.32846 0.2336 0.0
C2627 C 0.83644 0.35478 0.24485 0.0
C2628 C 0.83921 0.3732 0.2426 0.0
C2629 C 0.83203 0.32018 0.24951 0.0
C2630 C 0.84147 0.3293 0.26303 0.0
C2631 C 0.84343 0.3465 0.26063 0.0
C2632 C 0.84939 0.32135 0.2799 0.0
C2633 C 0.82877 0.30185 0.25188 0.0
C2634 C 0.84569 0.32706 0.29848 0.0
C2635 C 0.85363 0.32022 0.31444 0.0
C2636 C 0.86541 0.30751 0.31212 0.0
C2637 C 0.86905 0.30172 0.29353 0.0
C2638 C 0.86118 0.30868 0.27751 0.0
H2639 H 0.81766 0.29784 0.24361 0.0
H2640 H 0.8396 0.29478 0.24639 0.0
H2641 H 0.82693 0.29857 0.26725 0.0
H2642 H 0.83668 0.33688 0.30062 0.0
H2643 H 0.85056 0.32495 0.32859 0.0
H2644 H 0.61897 0.7927 0.20133 0.0
H2645 H 0.63196 0.80555 0.22951 0.0
H2646 H 0.65821 0.83956 0.19244 0.0
H2647 H 0.64497 0.82711 0.16432 0.0
H2648 H 0.6648 0.80841 0.23904 0.0
H2649 H 0.63666 0.87085 0.23054 0.0
H2650 H 0.62942 0.85298 0.21732 0.0
H2651 H 0.6477 0.86395 0.20958 0.0
C2652 C 0.62745 0.80297 0.19921 0.0
C2653 C 0.63086 0.80899 0.18066 0.0
C2654 C 0.63487 0.81027 0.2153 0.0
C2655 C 0.64581 0.8237 0.21307 0.0
C2656 C 0.64948 0.8295 0.19452 0.0
H2657 H 0.70637 0.88035 0.29331 0.0
H2658 H 0.69464 0.86728 0.26445 0.0
C2659 C 0.64198 0.8223 0.17846 0.0
C2660 C 0.65361 0.83145 0.23013 0.0
H2661 H 0.65807 0.86828 0.2539 0.0
C2662 C 0.66327 0.82148 0.24234 0.0
C2663 C 0.65158 0.84852 0.23438 0.0
C2664 C 0.64065 0.85967 0.22238 0.0
C2665 C 0.67112 0.82818 0.25861 0.0
C2666 C 0.66917 0.84522 0.26273 0.0
C2667 C 0.65959 0.85523 0.25053 0.0
C2668 C 0.67649 0.8528 0.28008 0.0
C2669 C 0.68155 0.81706 0.27122 0.0
C2670 C 0.67001 0.84903 0.29828 0.0
C2671 C 0.67655 0.85654 0.3147 0.0
C2672 C 0.68973 0.8679 0.31318 0.0
C2673 C 0.69624 0.87161 0.29491 0.0
C2674 C 0.68958 0.86418 0.27845 0.0
H2675 H 0.68427 0.80497 0.2642 0.0
H2676 H 0.69346 0.82323 0.27491 0.0
H2677 H 0.67482 0.8146 0.28486 0.0
H2678 H 0.65977 0.8404 0.29974 0.0
H2679 H 0.67126 0.85345 0.32858 0.0
H2680 H 0.1185 0.70894 0.29053 0.0
H2681 H 0.13208 0.69682 0.26223 0.0
H2682 H 0.15771 0.66191 0.29868 0.0
H2683 H 0.14414 0.67383 0.32702 0.0
H2684 H 0.17762 0.68108 0.26853 0.0
H2685 H 0.1216 0.6479 0.24154 0.0
H2686 H 0.1192 0.66931 0.24846 0.0
H2687 H 0.12385 0.65402 0.26642 0.0
C2688 C 0.12702 0.69868 0.29251 0.0
C2689 C 0.13022 0.69227 0.31096 0.0
C2690 C 0.13473 0.69178 0.27636 0.0
C2691 C 0.14577 0.67845 0.27846 0.0
C2692 C 0.14918 0.67219 0.29685 0.0
H2693 H 0.20793 0.62078 0.20113 0.0
H2694 H 0.1955 0.63439 0.22916 0.0
C2695 C 0.14139 0.67899 0.31298 0.0
C2696 C 0.1537 0.67091 0.26143 0.0
H2697 H 0.14577 0.64632 0.22258 0.0
C2698 C 0.17072 0.67347 0.25844 0.0
C2699 C 0.14456 0.66107 0.24838 0.0
C2700 C 0.1263 0.65776 0.2513 0.0
C2701 C 0.17886 0.66657 0.24247 0.0
C2702 C 0.16977 0.65651 0.22951 0.0
C2703 C 0.15272 0.65401 0.23255 0.0
C2704 C 0.17761 0.6485 0.21262 0.0
C2705 C 0.19699 0.67043 0.2394 0.0
C2706 C 0.17141 0.65159 0.1941 0.0
C2707 C 0.17831 0.64366 0.17814 0.0
C2708 C 0.19156 0.6325 0.18041 0.0
C2709 C 0.19779 0.62941 0.19895 0.0
C2710 C 0.19079 0.63727 0.21495 0.0
H2711 H 0.20079 0.68186 0.2472 0.0
H2712 H 0.20459 0.66 0.24497 0.0
H2713 H 0.19984 0.67204 0.22387 0.0
H2714 H 0.16119 0.66015 0.19199 0.0
H2715 H 0.17323 0.64629 0.16403 0.0
H2716 H 0.32682 0.14794 0.33044 0.0
H2717 H 0.33883 0.16287 0.30318 0.0
H2718 H 0.30552 0.13739 0.26456 0.0
H2719 H 0.2931 0.12275 0.29187 0.0
H2720 H 0.35496 0.15014 0.27272 0.0
H2721 H 0.29975 0.18492 0.24749 0.0
H2722 H 0.30041 0.17466 0.27057 0.0
H2723 H 0.29613 0.16299 0.24904 0.0
C2724 C 0.32195 0.14562 0.31616 0.0
C2725 C 0.30899 0.13422 0.31326 0.0
C2726 C 0.32882 0.15416 0.30061 0.0
C2727 C 0.3229 0.15144 0.28189 0.0
C2728 C 0.30999 0.14 0.27895 0.0
H2729 H 0.35629 0.17464 0.16787 0.0
H2730 H 0.343 0.16374 0.19688 0.0
C2731 C 0.303 0.13155 0.29453 0.0
C2732 C 0.33086 0.15988 0.26538 0.0
H2733 H 0.32297 0.18402 0.22602 0.0
C2734 C 0.348 0.1577 0.26263 0.0
C2735 C 0.32175 0.16978 0.25227 0.0
C2736 C 0.30353 0.17338 0.25507 0.0
C2737 C 0.35618 0.16476 0.24682 0.0
C2738 C 0.34697 0.17425 0.23349 0.0
C2739 C 0.32992 0.17666 0.23632 0.0
C2740 C 0.35479 0.18124 0.2161 0.0
C2741 C 0.3745 0.16169 0.24412 0.0
C2742 C 0.36569 0.19476 0.21742 0.0
C2743 C 0.37327 0.20108 0.20086 0.0
C2744 C 0.37006 0.19389 0.18281 0.0
C2745 C 0.35904 0.18041 0.18158 0.0
C2746 C 0.35141 0.17419 0.1981 0.0
H2747 H 0.37939 0.15233 0.25441 0.0
H2748 H 0.37703 0.15739 0.22922 0.0
H2749 H 0.38138 0.17348 0.24632 0.0
H2750 H 0.36834 0.20038 0.23125 0.0
H2751 H 0.38167 0.2115 0.20222 0.0
loop_
_geom_bond_atom_site_label_1
_geom_bond_atom_site_label_2
_geom_bond_distance
_geom_bond_site_symmetry_2
_ccdc_geom_bond_type
Co0 O1 2.216 . S
Co0 O2 2.091 . S
Co0 O4 2.004 . S
Co0 O10 2.021 . S
Co0 O12 2.137 . S
Co0 O13 2.244 . S
O1 Co0 2.216 . S
O1 C8 1.247 . S
O2 Co0 2.091 . S
O2 C8 1.261 . S
C3 O12 1.247 . S
C3 O13 1.272 . S
O4 Co0 2.004 . S
O4 C9 1.259 . S
Co5 O6 2.061 . S
Co5 O11 2.052 . S
Co5 O13 2.135 . S
O6 Co5 2.061 . S
O6 C9 1.235 . S
C7 O10 1.238 . S
C7 O11 1.241 . S
C8 O1 1.247 . S
C8 O2 1.261 . S
C9 O4 1.259 . S
C9 O6 1.235 . S
O10 Co0 2.021 . S
O10 C7 1.238 . S
O11 Co5 2.052 . S
O11 C7 1.241 . S
O12 Co0 2.137 . S
O12 C3 1.247 . S
O13 Co0 2.244 . S
O13 C3 1.272 . S
O13 Co5 2.135 . S
Co14 O15 2.216 . S
Co14 O16 2.091 . S
Co14 O18 2.004 . S
Co14 O24 2.021 . S
Co14 O26 2.137 . S
Co14 O27 2.244 . S
O15 Co14 2.216 . S
O15 C22 1.247 . S
O16 Co14 2.091 . S
O16 C22 1.261 . S
C17 O26 1.247 . S
C17 O27 1.272 . S
O18 Co14 2.004 . S
O18 C23 1.259 . S
Co19 O20 2.061 . S
Co19 O25 2.052 . S
Co19 O27 2.135 . S
O20 Co19 2.061 . S
O20 C23 1.235 . S
C21 O24 1.238 . S
C21 O25 1.241 . S
C22 O15 1.247 . S
C22 O16 1.261 . S
C23 O18 1.259 . S
C23 O20 1.235 . S
O24 Co14 2.021 . S
O24 C21 1.238 . S
O25 Co19 2.052 . S
O25 C21 1.241 . S
O26 Co14 2.137 . S
O26 C17 1.247 . S
O27 Co14 2.244 . S
O27 C17 1.272 . S
O27 Co19 2.135 . S
Co28 O29 2.216 . S
Co28 O30 2.091 . S
Co28 O32 2.004 . S
Co28 O38 2.021 . S
Co28 O40 2.137 . S
Co28 O41 2.244 . S
O29 Co28 2.216 . S
O29 C36 1.247 . S
O30 Co28 2.091 . S
O30 C36 1.261 . S
C31 O40 1.247 . S
C31 O41 1.272 . S
O32 Co28 2.004 . S
O32 C37 1.259 . S
Co33 O34 2.061 . S
Co33 O39 2.052 . S
Co33 O41 2.135 . S
O34 Co33 2.061 . S
O34 C37 1.235 . S
C35 O38 1.238 . S
C35 O39 1.241 . S
C36 O29 1.247 . S
C36 O30 1.261 . S
C37 O32 1.259 . S
C37 O34 1.235 . S
O38 Co28 2.021 . S
O38 C35 1.238 . S
O39 Co33 2.052 . S
O39 C35 1.241 . S
O40 Co28 2.137 . S
O40 C31 1.247 . S
O41 Co28 2.244 . S
O41 C31 1.272 . S
O41 Co33 2.135 . S
Co42 O43 2.216 . S
Co42 O44 2.091 . S
Co42 O46 2.004 . S
Co42 O52 2.021 . S
Co42 O54 2.137 . S
Co42 O55 2.244 . S
O43 Co42 2.216 . S
O43 C50 1.247 . S
O44 Co42 2.091 . S
O44 C50 1.261 . S
C45 O54 1.247 . S
C45 O55 1.272 . S
O46 Co42 2.004 . S
O46 C51 1.259 . S
Co47 O48 2.061 . S
Co47 O53 2.052 . S
Co47 O55 2.135 . S
O48 Co47 2.061 . S
O48 C51 1.235 . S
C49 O52 1.238 . S
C49 O53 1.241 . S
C50 O43 1.247 . S
C50 O44 1.261 . S
C51 O46 1.259 . S
C51 O48 1.235 . S
O52 Co42 2.021 . S
O52 C49 1.238 . S
O53 Co47 2.052 . S
O53 C49 1.241 . S
O54 Co42 2.137 . S
O54 C45 1.247 . S
O55 Co42 2.244 . S
O55 C45 1.272 . S
O55 Co47 2.135 . S
Co56 O57 2.216 . S
Co56 O58 2.091 . S
Co56 O60 2.004 . S
Co56 O66 2.021 . S
Co56 O68 2.137 . S
Co56 O69 2.244 . S
O57 Co56 2.216 . S
O57 C64 1.247 . S
O58 Co56 2.091 . S
O58 C64 1.261 . S
C59 O68 1.247 . S
C59 O69 1.272 . S
O60 Co56 2.004 . S
O60 C65 1.259 . S
Co61 O62 2.061 . S
Co61 O67 2.052 . S
Co61 O69 2.135 . S
O62 Co61 2.061 . S
O62 C65 1.235 . S
C63 O66 1.238 . S
C63 O67 1.241 . S
C64 O57 1.247 . S
C64 O58 1.261 . S
C65 O60 1.259 . S
C65 O62 1.235 . S
O66 Co56 2.021 . S
O66 C63 1.238 . S
O67 Co61 2.052 . S
O67 C63 1.241 . S
O68 Co56 2.137 . S
O68 C59 1.247 . S
O69 Co56 2.244 . S
O69 C59 1.272 . S
O69 Co61 2.135 . S
Co70 O71 2.216 . S
Co70 O72 2.091 . S
Co70 O74 2.004 . S
Co70 O80 2.021 . S
Co70 O82 2.137 . S
Co70 O83 2.244 . S
O71 Co70 2.216 . S
O71 C78 1.247 . S
O72 Co70 2.091 . S
O72 C78 1.261 . S
C73 O82 1.247 . S
C73 O83 1.272 . S
O74 Co70 2.004 . S
O74 C79 1.259 . S
Co75 O76 2.061 . S
Co75 O81 2.052 . S
Co75 O83 2.135 . S
O76 Co75 2.061 . S
O76 C79 1.235 . S
C77 O80 1.238 . S
C77 O81 1.241 . S
C78 O71 1.247 . S
C78 O72 1.261 . S
C79 O74 1.259 . S
C79 O76 1.235 . S
O80 Co70 2.021 . S
O80 C77 1.238 . S
O81 Co75 2.052 . S
O81 C77 1.241 . S
O82 Co70 2.137 . S
O82 C73 1.247 . S
O83 Co70 2.244 . S
O83 C73 1.272 . S
O83 Co75 2.135 . S
Co84 O85 2.216 . S
Co84 O86 2.091 . S
Co84 O88 2.004 . S
Co84 O94 2.021 . S
Co84 O96 2.137 . S
Co84 O97 2.244 . S
O85 Co84 2.216 . S
O85 C92 1.247 . S
O86 Co84 2.091 . S
O86 C92 1.261 . S
C87 O96 1.247 . S
C87 O97 1.272 . S
O88 Co84 2.004 . S
O88 C93 1.259 . S
Co89 O90 2.061 . S
Co89 O95 2.052 . S
Co89 O97 2.135 . S
O90 Co89 2.061 . S
O90 C93 1.235 . S
C91 O94 1.238 . S
C91 O95 1.241 . S
C92 O85 1.247 . S
C92 O86 1.261 . S
C93 O88 1.259 . S
C93 O90 1.235 . S
O94 Co84 2.021 . S
O94 C91 1.238 . S
O95 Co89 2.052 . S
O95 C91 1.241 . S
O96 Co84 2.137 . S
O96 C87 1.247 . S
O97 Co84 2.244 . S
O97 C87 1.272 . S
O97 Co89 2.135 . S
Co98 O99 2.216 . S
Co98 O100 2.091 . S
Co98 O102 2.004 . S
Co98 O108 2.021 . S
Co98 O110 2.137 . S
Co98 O111 2.244 . S
O99 Co98 2.216 . S
O99 C106 1.247 . S
O100 Co98 2.091 . S
O100 C106 1.261 . S
C101 O110 1.247 . S
C101 O111 1.272 . S
O102 Co98 2.004 . S
O102 C107 1.259 . S
Co103 O104 2.061 . S
Co103 O109 2.052 . S
Co103 O111 2.135 . S
O104 Co103 2.061 . S
O104 C107 1.235 . S
C105 O108 1.238 . S
C105 O109 1.241 . S
C106 O99 1.247 . S
C106 O100 1.261 . S
C107 O102 1.259 . S
C107 O104 1.235 . S
O108 Co98 2.021 . S
O108 C105 1.238 . S
O109 Co103 2.052 . S
O109 C105 1.241 . S
O110 Co98 2.137 . S
O110 C101 1.247 . S
O111 Co98 2.244 . S
O111 C101 1.272 . S
O111 Co103 2.135 . S
Co112 O113 2.216 . S
Co112 O114 2.091 . S
Co112 O116 2.004 . S
Co112 O122 2.021 . S
Co112 O124 2.137 . S
Co112 O125 2.244 . S
O113 Co112 2.216 . S
O113 C120 1.247 . S
O114 Co112 2.091 . S
O114 C120 1.261 . S
C115 O124 1.247 . S
C115 O125 1.272 . S
O116 Co112 2.004 . S
O116 C121 1.259 . S
Co117 O118 2.061 . S
Co117 O123 2.052 . S
Co117 O125 2.135 . S
O118 Co117 2.061 . S
O118 C121 1.235 . S
C119 O122 1.238 . S
C119 O123 1.241 . S
C120 O113 1.247 . S
C120 O114 1.261 . S
C121 O116 1.259 . S
C121 O118 1.235 . S
O122 Co112 2.021 . S
O122 C119 1.238 . S
O123 Co117 2.052 . S
O123 C119 1.241 . S
O124 Co112 2.137 . S
O124 C115 1.247 . S
O125 Co112 2.244 . S
O125 C115 1.272 . S
O125 Co117 2.135 . S
Co126 O127 2.216 . S
Co126 O128 2.091 . S
Co126 O130 2.004 . S
Co126 O136 2.021 . S
Co126 O138 2.137 . S
Co126 O139 2.244 . S
O127 Co126 2.216 . S
O127 C134 1.247 . S
O128 Co126 2.091 . S
O128 C134 1.261 . S
C129 O138 1.247 . S
C129 O139 1.272 . S
O130 Co126 2.004 . S
O130 C135 1.259 . S
Co131 O132 2.061 . S
Co131 O137 2.052 . S
Co131 O139 2.135 . S
O132 Co131 2.061 . S
O132 C135 1.235 . S
C133 O136 1.238 . S
C133 O137 1.241 . S
C134 O127 1.247 . S
C134 O128 1.261 . S
C135 O130 1.259 . S
C135 O132 1.235 . S
O136 Co126 2.021 . S
O136 C133 1.238 . S
O137 Co131 2.052 . S
O137 C133 1.241 . S
O138 Co126 2.137 . S
O138 C129 1.247 . S
O139 Co126 2.244 . S
O139 C129 1.272 . S
O139 Co131 2.135 . S
Co140 O141 2.216 . S
Co140 O142 2.091 . S
Co140 O144 2.004 . S
Co140 O150 2.021 . S
Co140 O152 2.137 . S
Co140 O153 2.244 . S
O141 Co140 2.216 . S
O141 C148 1.247 . S
O142 Co140 2.091 . S
O142 C148 1.261 . S
C143 O152 1.247 . S
C143 O153 1.272 . S
O144 Co140 2.004 . S
O144 C149 1.259 . S
Co145 O146 2.061 . S
Co145 O151 2.052 . S
Co145 O153 2.135 . S
O146 Co145 2.061 . S
O146 C149 1.235 . S
C147 O150 1.238 . S
C147 O151 1.241 . S
C148 O141 1.247 . S
C148 O142 1.261 . S
C149 O144 1.259 . S
C149 O146 1.235 . S
O150 Co140 2.021 . S
O150 C147 1.238 . S
O151 Co145 2.052 . S
O151 C147 1.241 . S
O152 Co140 2.137 . S
O152 C143 1.247 . S
O153 Co140 2.244 . S
O153 C143 1.272 . S
O153 Co145 2.135 . S
Co154 O155 2.216 . S
Co154 O156 2.091 . S
Co154 O158 2.004 . S
Co154 O164 2.021 . S
Co154 O166 2.137 . S
Co154 O167 2.244 . S
O155 Co154 2.216 . S
O155 C162 1.247 . S
O156 Co154 2.091 . S
O156 C162 1.261 . S
C157 O166 1.247 . S
C157 O167 1.272 . S
O158 Co154 2.004 . S
O158 C163 1.259 . S
Co159 O160 2.061 . S
Co159 O165 2.052 . S
Co159 O167 2.135 . S
O160 Co159 2.061 . S
O160 C163 1.235 . S
C161 O164 1.238 . S
C161 O165 1.241 . S
C162 O155 1.247 . S
C162 O156 1.261 . S
C163 O158 1.259 . S
C163 O160 1.235 . S
O164 Co154 2.021 . S
O164 C161 1.238 . S
O165 Co159 2.052 . S
O165 C161 1.241 . S
O166 Co154 2.137 . S
O166 C157 1.247 . S
O167 Co154 2.244 . S
O167 C157 1.272 . S
O167 Co159 2.135 . S
Co168 O169 2.216 . S
Co168 O170 2.091 . S
Co168 O172 2.004 . S
Co168 O178 2.021 . S
Co168 O180 2.137 . S
Co168 O181 2.244 . S
O169 Co168 2.216 . S
O169 C176 1.247 . S
O170 Co168 2.091 . S
O170 C176 1.261 . S
C171 O180 1.247 . S
C171 O181 1.272 . S
O172 Co168 2.004 . S
O172 C177 1.259 . S
Co173 O174 2.061 . S
Co173 O179 2.052 . S
Co173 O181 2.135 . S
O174 Co173 2.061 . S
O174 C177 1.235 . S
C175 O178 1.238 . S
C175 O179 1.241 . S
C176 O169 1.247 . S
C176 O170 1.261 . S
C177 O172 1.259 . S
C177 O174 1.235 . S
O178 Co168 2.021 . S
O178 C175 1.238 . S
O179 Co173 2.052 . S
O179 C175 1.241 . S
O180 Co168 2.137 . S
O180 C171 1.247 . S
O181 Co168 2.244 . S
O181 C171 1.272 . S
O181 Co173 2.135 . S
Co182 O183 2.216 . S
Co182 O184 2.091 . S
Co182 O186 2.004 . S
Co182 O192 2.021 . S
Co182 O194 2.137 . S
Co182 O195 2.244 . S
O183 Co182 2.216 . S
O183 C190 1.247 . S
O184 Co182 2.091 . S
O184 C190 1.261 . S
C185 O194 1.247 . S
C185 O195 1.272 . S
O186 Co182 2.004 . S
O186 C191 1.259 . S
Co187 O188 2.061 . S
Co187 O193 2.052 . S
Co187 O195 2.135 . S
O188 Co187 2.061 . S
O188 C191 1.235 . S
C189 O192 1.238 . S
C189 O193 1.241 . S
C190 O183 1.247 . S
C190 O184 1.261 . S
C191 O186 1.259 . S
C191 O188 1.235 . S
O192 Co182 2.021 . S
O192 C189 1.238 . S
O193 Co187 2.052 . S
O193 C189 1.241 . S
O194 Co182 2.137 . S
O194 C185 1.247 . S
O195 Co182 2.244 . S
O195 C185 1.272 . S
O195 Co187 2.135 . S
Co196 O197 2.216 . S
Co196 O198 2.091 . S
Co196 O200 2.004 . S
Co196 O206 2.021 . S
Co196 O208 2.137 . S
Co196 O209 2.244 . S
O197 Co196 2.216 . S
O197 C204 1.247 . S
O198 Co196 2.091 . S
O198 C204 1.261 . S
C199 O208 1.247 . S
C199 O209 1.272 . S
O200 Co196 2.004 . S
O200 C205 1.259 . S
Co201 O202 2.061 . S
Co201 O207 2.052 . S
Co201 O209 2.135 . S
O202 Co201 2.061 . S
O202 C205 1.235 . S
C203 O206 1.238 . S
C203 O207 1.241 . S
C204 O197 1.247 . S
C204 O198 1.261 . S
C205 O200 1.259 . S
C205 O202 1.235 . S
O206 Co196 2.021 . S
O206 C203 1.238 . S
O207 Co201 2.052 . S
O207 C203 1.241 . S
O208 Co196 2.137 . S
O208 C199 1.247 . S
O209 Co196 2.244 . S
O209 C199 1.272 . S
O209 Co201 2.135 . S
Co210 O211 2.216 . S
Co210 O212 2.091 . S
Co210 O214 2.004 . S
Co210 O220 2.021 . S
Co210 O222 2.137 . S
Co210 O223 2.244 . S
O211 Co210 2.216 . S
O211 C218 1.247 . S
O212 Co210 2.091 . S
O212 C218 1.261 . S
C213 O222 1.247 . S
C213 O223 1.272 . S
O214 Co210 2.004 . S
O214 C219 1.259 . S
Co215 O216 2.061 . S
Co215 O221 2.052 . S
Co215 O223 2.135 . S
O216 Co215 2.061 . S
O216 C219 1.235 . S
C217 O220 1.238 . S
C217 O221 1.241 . S
C218 O211 1.247 . S
C218 O212 1.261 . S
C219 O214 1.259 . S
C219 O216 1.235 . S
O220 Co210 2.021 . S
O220 C217 1.238 . S
O221 Co215 2.052 . S
O221 C217 1.241 . S
O222 Co210 2.137 . S
O222 C213 1.247 . S
O223 Co210 2.244 . S
O223 C213 1.272 . S
O223 Co215 2.135 . S
Co224 O225 2.216 . S
Co224 O226 2.091 . S
Co224 O228 2.004 . S
Co224 O234 2.021 . S
Co224 O236 2.137 . S
Co224 O237 2.244 . S
O225 Co224 2.216 . S
O225 C232 1.247 . S
O226 Co224 2.091 . S
O226 C232 1.261 . S
C227 O236 1.247 . S
C227 O237 1.272 . S
O228 Co224 2.004 . S
O228 C233 1.259 . S
Co229 O230 2.061 . S
Co229 O235 2.052 . S
Co229 O237 2.135 . S
O230 Co229 2.061 . S
O230 C233 1.235 . S
C231 O234 1.238 . S
C231 O235 1.241 . S
C232 O225 1.247 . S
C232 O226 1.261 . S
C233 O228 1.259 . S
C233 O230 1.235 . S
O234 Co224 2.021 . S
O234 C231 1.238 . S
O235 Co229 2.052 . S
O235 C231 1.241 . S
O236 Co224 2.137 . S
O236 C227 1.247 . S
O237 Co224 2.244 . S
O237 C227 1.272 . S
O237 Co229 2.135 . S
Co238 O239 2.216 . S
Co238 O240 2.091 . S
Co238 O242 2.004 . S
Co238 O248 2.021 . S
Co238 O250 2.137 . S
Co238 O251 2.244 . S
O239 Co238 2.216 . S
O239 C246 1.247 . S
O240 Co238 2.091 . S
O240 C246 1.261 . S
C241 O250 1.247 . S
C241 O251 1.272 . S
O242 Co238 2.004 . S
O242 C247 1.259 . S
Co243 O244 2.061 . S
Co243 O249 2.052 . S
Co243 O251 2.135 . S
O244 Co243 2.061 . S
O244 C247 1.235 . S
C245 O248 1.238 . S
C245 O249 1.241 . S
C246 O239 1.247 . S
C246 O240 1.261 . S
C247 O242 1.259 . S
C247 O244 1.235 . S
O248 Co238 2.021 . S
O248 C245 1.238 . S
O249 Co243 2.052 . S
O249 C245 1.241 . S
O250 Co238 2.137 . S
O250 C241 1.247 . S
O251 Co238 2.244 . S
O251 C241 1.272 . S
O251 Co243 2.135 . S
Co252 O253 2.216 . S
Co252 O254 2.091 . S
Co252 O256 2.004 . S
Co252 O262 2.021 . S
Co252 O264 2.137 . S
Co252 O265 2.244 . S
O253 Co252 2.216 . S
O253 C260 1.247 . S
O254 Co252 2.091 . S
O254 C260 1.261 . S
C255 O264 1.247 . S
C255 O265 1.272 . S
O256 Co252 2.004 . S
O256 C261 1.259 . S
Co257 O258 2.061 . S
Co257 O263 2.052 . S
Co257 O265 2.135 . S
O258 Co257 2.061 . S
O258 C261 1.235 . S
C259 O262 1.238 . S
C259 O263 1.241 . S
C260 O253 1.247 . S
C260 O254 1.261 . S
C261 O256 1.259 . S
C261 O258 1.235 . S
O262 Co252 2.021 . S
O262 C259 1.238 . S
O263 Co257 2.052 . S
O263 C259 1.241 . S
O264 Co252 2.137 . S
O264 C255 1.247 . S
O265 Co252 2.244 . S
O265 C255 1.272 . S
O265 Co257 2.135 . S
Co266 O267 2.216 . S
Co266 O268 2.091 . S
Co266 O270 2.004 . S
Co266 O276 2.021 . S
Co266 O278 2.137 . S
Co266 O279 2.244 . S
O267 Co266 2.216 . S
O267 C274 1.247 . S
O268 Co266 2.091 . S
O268 C274 1.261 . S
C269 O278 1.247 . S
C269 O279 1.272 . S
O270 Co266 2.004 . S
O270 C275 1.259 . S
Co271 O272 2.061 . S
Co271 O277 2.052 . S
Co271 O279 2.135 . S
O272 Co271 2.061 . S
O272 C275 1.235 . S
C273 O276 1.238 . S
C273 O277 1.241 . S
C274 O267 1.247 . S
C274 O268 1.261 . S
C275 O270 1.259 . S
C275 O272 1.235 . S
O276 Co266 2.021 . S
O276 C273 1.238 . S
O277 Co271 2.052 . S
O277 C273 1.241 . S
O278 Co266 2.137 . S
O278 C269 1.247 . S
O279 Co266 2.244 . S
O279 C269 1.272 . S
O279 Co271 2.135 . S
Co280 O281 2.216 . S
Co280 O282 2.091 . S
Co280 O284 2.004 . S
Co280 O290 2.021 . S
Co280 O292 2.137 . S
Co280 O293 2.244 . S
O281 Co280 2.216 . S
O281 C288 1.247 . S
O282 Co280 2.091 . S
O282 C288 1.261 . S
C283 O292 1.247 . S
C283 O293 1.272 . S
O284 Co280 2.004 . S
O284 C289 1.259 . S
Co285 O286 2.061 . S
Co285 O291 2.052 . S
Co285 O293 2.135 . S
O286 Co285 2.061 . S
O286 C289 1.235 . S
C287 O290 1.238 . S
C287 O291 1.241 . S
C288 O281 1.247 . S
C288 O282 1.261 . S
C289 O284 1.259 . S
C289 O286 1.235 . S
O290 Co280 2.021 . S
O290 C287 1.238 . S
O291 Co285 2.052 . S
O291 C287 1.241 . S
O292 Co280 2.137 . S
O292 C283 1.247 . S
O293 Co280 2.244 . S
O293 C283 1.272 . S
O293 Co285 2.135 . S
Co294 O295 2.216 . S
Co294 O296 2.091 . S
Co294 O298 2.004 . S
Co294 O304 2.021 . S
Co294 O306 2.137 . S
Co294 O307 2.244 . S
O295 Co294 2.216 . S
O295 C302 1.247 . S
O296 Co294 2.091 . S
O296 C302 1.261 . S
C297 O306 1.247 . S
C297 O307 1.272 . S
O298 Co294 2.004 . S
O298 C303 1.259 . S
Co299 O300 2.061 . S
Co299 O305 2.052 . S
Co299 O307 2.135 . S
O300 Co299 2.061 . S
O300 C303 1.235 . S
C301 O304 1.238 . S
C301 O305 1.241 . S
C302 O295 1.247 . S
C302 O296 1.261 . S
C303 O298 1.259 . S
C303 O300 1.235 . S
O304 Co294 2.021 . S
O304 C301 1.238 . S
O305 Co299 2.052 . S
O305 C301 1.241 . S
O306 Co294 2.137 . S
O306 C297 1.247 . S
O307 Co294 2.244 . S
O307 C297 1.272 . S
O307 Co299 2.135 . S
Co308 O309 2.216 . S
Co308 O310 2.091 . S
Co308 O312 2.004 . S
Co308 O318 2.021 . S
Co308 O320 2.137 . S
Co308 O321 2.244 . S
O309 Co308 2.216 . S
O309 C316 1.247 . S
O310 Co308 2.091 . S
O310 C316 1.261 . S
C311 O320 1.247 . S
C311 O321 1.272 . S
O312 Co308 2.004 . S
O312 C317 1.259 . S
Co313 O314 2.061 . S
Co313 O319 2.052 . S
Co313 O321 2.135 . S
O314 Co313 2.061 . S
O314 C317 1.235 . S
C315 O318 1.238 . S
C315 O319 1.241 . S
C316 O309 1.247 . S
C316 O310 1.261 . S
C317 O312 1.259 . S
C317 O314 1.235 . S
O318 Co308 2.021 . S
O318 C315 1.238 . S
O319 Co313 2.052 . S
O319 C315 1.241 . S
O320 Co308 2.137 . S
O320 C311 1.247 . S
O321 Co308 2.244 . S
O321 C311 1.272 . S
O321 Co313 2.135 . S
Co322 O323 2.216 . S
Co322 O324 2.091 . S
Co322 O326 2.004 . S
Co322 O332 2.021 . S
Co322 O334 2.137 . S
Co322 O335 2.244 . S
O323 Co322 2.216 . S
O323 C330 1.247 . S
O324 Co322 2.091 . S
O324 C330 1.261 . S
C325 O334 1.247 . S
C325 O335 1.272 . S
O326 Co322 2.004 . S
O326 C331 1.259 . S
Co327 O328 2.061 . S
Co327 O333 2.052 . S
Co327 O335 2.135 . S
O328 Co327 2.061 . S
O328 C331 1.235 . S
C329 O332 1.238 . S
C329 O333 1.241 . S
C330 O323 1.247 . S
C330 O324 1.261 . S
C331 O326 1.259 . S
C331 O328 1.235 . S
O332 Co322 2.021 . S
O332 C329 1.238 . S
O333 Co327 2.052 . S
O333 C329 1.241 . S
O334 Co322 2.137 . S
O334 C325 1.247 . S
O335 Co322 2.244 . S
O335 C325 1.272 . S
O335 Co327 2.135 . S
Co336 O337 2.216 . S
Co336 O338 2.091 . S
Co336 O340 2.004 . S
Co336 O346 2.021 . S
Co336 O348 2.137 . S
Co336 O349 2.244 . S
O337 Co336 2.216 . S
O337 C344 1.247 . S
O338 Co336 2.091 . S
O338 C344 1.261 . S
C339 O348 1.247 . S
C339 O349 1.272 . S
O340 Co336 2.004 . S
O340 C345 1.259 . S
Co341 O342 2.061 . S
Co341 O347 2.052 . S
Co341 O349 2.135 . S
O342 Co341 2.061 . S
O342 C345 1.235 . S
C343 O346 1.238 . S
C343 O347 1.241 . S
C344 O337 1.247 . S
C344 O338 1.261 . S
C345 O340 1.259 . S
C345 O342 1.235 . S
O346 Co336 2.021 . S
O346 C343 1.238 . S
O347 Co341 2.052 . S
O347 C343 1.241 . S
O348 Co336 2.137 . S
O348 C339 1.247 . S
O349 Co336 2.244 . S
O349 C339 1.272 . S
O349 Co341 2.135 . S
Co350 O351 2.216 . S
Co350 O352 2.091 . S
Co350 O354 2.004 . S
Co350 O360 2.021 . S
Co350 O362 2.137 . S
Co350 O363 2.244 . S
O351 Co350 2.216 . S
O351 C358 1.247 . S
O352 Co350 2.091 . S
O352 C358 1.261 . S
C353 O362 1.247 . S
C353 O363 1.272 . S
O354 Co350 2.004 . S
O354 C359 1.259 . S
Co355 O356 2.061 . S
Co355 O361 2.052 . S
Co355 O363 2.135 . S
O356 Co355 2.061 . S
O356 C359 1.235 . S
C357 O360 1.238 . S
C357 O361 1.241 . S
C358 O351 1.247 . S
C358 O352 1.261 . S
C359 O354 1.259 . S
C359 O356 1.235 . S
O360 Co350 2.021 . S
O360 C357 1.238 . S
O361 Co355 2.052 . S
O361 C357 1.241 . S
O362 Co350 2.137 . S
O362 C353 1.247 . S
O363 Co350 2.244 . S
O363 C353 1.272 . S
O363 Co355 2.135 . S
Co364 O365 2.216 . S
Co364 O366 2.091 . S
Co364 O368 2.004 . S
Co364 O374 2.021 . S
Co364 O376 2.137 . S
Co364 O377 2.244 . S
O365 Co364 2.216 . S
O365 C372 1.247 . S
O366 Co364 2.091 . S
O366 C372 1.261 . S
C367 O376 1.247 . S
C367 O377 1.272 . S
O368 Co364 2.004 . S
O368 C373 1.259 . S
Co369 O370 2.061 . S
Co369 O375 2.052 . S
Co369 O377 2.135 . S
O370 Co369 2.061 . S
O370 C373 1.235 . S
C371 O374 1.238 . S
C371 O375 1.241 . S
C372 O365 1.247 . S
C372 O366 1.261 . S
C373 O368 1.259 . S
C373 O370 1.235 . S
O374 Co364 2.021 . S
O374 C371 1.238 . S
O375 Co369 2.052 . S
O375 C371 1.241 . S
O376 Co364 2.137 . S
O376 C367 1.247 . S
O377 Co364 2.244 . S
O377 C367 1.272 . S
O377 Co369 2.135 . S
Co378 O379 2.216 . S
Co378 O380 2.091 . S
Co378 O382 2.004 . S
Co378 O388 2.021 . S
Co378 O390 2.137 . S
Co378 O391 2.244 . S
O379 Co378 2.216 . S
O379 C386 1.247 . S
O380 Co378 2.091 . S
O380 C386 1.261 . S
C381 O390 1.247 . S
C381 O391 1.272 . S
O382 Co378 2.004 . S
O382 C387 1.259 . S
Co383 O384 2.061 . S
Co383 O389 2.052 . S
Co383 O391 2.135 . S
O384 Co383 2.061 . S
O384 C387 1.235 . S
C385 O388 1.238 . S
C385 O389 1.241 . S
C386 O379 1.247 . S
C386 O380 1.261 . S
C387 O382 1.259 . S
C387 O384 1.235 . S
O388 Co378 2.021 . S
O388 C385 1.238 . S
O389 Co383 2.052 . S
O389 C385 1.241 . S
O390 Co378 2.137 . S
O390 C381 1.247 . S
O391 Co378 2.244 . S
O391 C381 1.272 . S
O391 Co383 2.135 . S
Co392 O393 2.216 . S
Co392 O394 2.091 . S
Co392 O396 2.004 . S
Co392 O402 2.021 . S
Co392 O404 2.137 . S
Co392 O405 2.244 . S
O393 Co392 2.216 . S
O393 C400 1.247 . S
O394 Co392 2.091 . S
O394 C400 1.261 . S
C395 O404 1.247 . S
C395 O405 1.272 . S
O396 Co392 2.004 . S
O396 C401 1.259 . S
Co397 O398 2.061 . S
Co397 O403 2.052 . S
Co397 O405 2.135 . S
O398 Co397 2.061 . S
O398 C401 1.235 . S
C399 O402 1.238 . S
C399 O403 1.241 . S
C400 O393 1.247 . S
C400 O394 1.261 . S
C401 O396 1.259 . S
C401 O398 1.235 . S
O402 Co392 2.021 . S
O402 C399 1.238 . S
O403 Co397 2.052 . S
O403 C399 1.241 . S
O404 Co392 2.137 . S
O404 C395 1.247 . S
O405 Co392 2.244 . S
O405 C395 1.272 . S
O405 Co397 2.135 . S
Co406 O407 2.216 . S
Co406 O408 2.091 . S
Co406 O410 2.004 . S
Co406 O416 2.021 . S
Co406 O418 2.137 . S
Co406 O419 2.244 . S
O407 Co406 2.216 . S
O407 C414 1.247 . S
O408 Co406 2.091 . S
O408 C414 1.261 . S
C409 O418 1.247 . S
C409 O419 1.272 . S
O410 Co406 2.004 . S
O410 C415 1.259 . S
Co411 O412 2.061 . S
Co411 O417 2.052 . S
Co411 O419 2.135 . S
O412 Co411 2.061 . S
O412 C415 1.235 . S
C413 O416 1.238 . S
C413 O417 1.241 . S
C414 O407 1.247 . S
C414 O408 1.261 . S
C415 O410 1.259 . S
C415 O412 1.235 . S
O416 Co406 2.021 . S
O416 C413 1.238 . S
O417 Co411 2.052 . S
O417 C413 1.241 . S
O418 Co406 2.137 . S
O418 C409 1.247 . S
O419 Co406 2.244 . S
O419 C409 1.272 . S
O419 Co411 2.135 . S
Co420 O421 2.216 . S
Co420 O422 2.091 . S
Co420 O424 2.004 . S
Co420 O430 2.021 . S
Co420 O432 2.137 . S
Co420 O433 2.244 . S
O421 Co420 2.216 . S
O421 C428 1.247 . S
O422 Co420 2.091 . S
O422 C428 1.261 . S
C423 O432 1.247 . S
C423 O433 1.272 . S
O424 Co420 2.004 . S
O424 C429 1.259 . S
Co425 O426 2.061 . S
Co425 O431 2.052 . S
Co425 O433 2.135 . S
O426 Co425 2.061 . S
O426 C429 1.235 . S
C427 O430 1.238 . S
C427 O431 1.241 . S
C428 O421 1.247 . S
C428 O422 1.261 . S
C429 O424 1.259 . S
C429 O426 1.235 . S
O430 Co420 2.021 . S
O430 C427 1.238 . S
O431 Co425 2.052 . S
O431 C427 1.241 . S
O432 Co420 2.137 . S
O432 C423 1.247 . S
O433 Co420 2.244 . S
O433 C423 1.272 . S
O433 Co425 2.135 . S
Co434 O435 2.216 . S
Co434 O436 2.091 . S
Co434 O438 2.004 . S
Co434 O444 2.021 . S
Co434 O446 2.137 . S
Co434 O447 2.244 . S
O435 Co434 2.216 . S
O435 C442 1.247 . S
O436 Co434 2.091 . S
O436 C442 1.261 . S
C437 O446 1.247 . S
C437 O447 1.272 . S
O438 Co434 2.004 . S
O438 C443 1.259 . S
Co439 O440 2.061 . S
Co439 O445 2.052 . S
Co439 O447 2.135 . S
O440 Co439 2.061 . S
O440 C443 1.235 . S
C441 O444 1.238 . S
C441 O445 1.241 . S
C442 O435 1.247 . S
C442 O436 1.261 . S
C443 O438 1.259 . S
C443 O440 1.235 . S
O444 Co434 2.021 . S
O444 C441 1.238 . S
O445 Co439 2.052 . S
O445 C441 1.241 . S
O446 Co434 2.137 . S
O446 C437 1.247 . S
O447 Co434 2.244 . S
O447 C437 1.272 . S
O447 Co439 2.135 . S
H448 C456 0.929 . S
H449 C458 0.930 . S
H450 C460 0.930 . S
H451 C463 0.929 . S
H452 C466 0.930 . S
H453 C468 0.960 . S
H454 C468 0.960 . S
H455 C468 0.960 . S
C456 H448 0.929 . S
C456 C457 1.377 . S
C456 C458 1.384 . S
C457 C456 1.377 . S
C457 C463 1.390 . S
C458 H449 0.930 . S
C458 C456 1.384 . S
C458 C459 1.372 . S
C459 C458 1.372 . S
C459 C460 1.400 . S
C459 C464 1.490 . S
C460 H450 0.930 . S
C460 C459 1.400 . S
C460 C463 1.386 . S
H461 C477 0.930 . S
H462 C478 0.931 . S
C463 H451 0.929 . S
C463 C457 1.390 . S
C463 C460 1.386 . S
C464 C459 1.490 . S
C464 C466 1.395 . S
C464 C467 1.403 . S
H465 C471 0.930 . S
C466 H452 0.930 . S
C466 C464 1.395 . S
C466 C469 1.403 . S
C467 C464 1.403 . S
C467 C468 1.524 . S
C467 C471 1.400 . S
C468 H453 0.960 . S
C468 H454 0.960 . S
C468 H455 0.960 . S
C468 C467 1.524 . S
C469 C466 1.403 . S
C469 C470 1.392 . S
C469 C473 1.495 . S
C470 C469 1.392 . S
C470 C471 1.385 . S
C470 C472 1.478 . S
C471 H465 0.930 . S
C471 C467 1.400 . S
C471 C470 1.385 . S
C472 C470 1.478 . S
C472 C474 1.381 . S
C472 C478 1.383 . S
C473 C469 1.495 . S
C473 H479 0.959 . S
C473 H480 0.961 . S
C473 H481 0.960 . S
C474 C472 1.381 . S
C474 C475 1.394 . S
C474 H482 0.930 . S
C475 C474 1.394 . S
C475 C476 1.383 . S
C475 H483 0.929 . S
C476 C475 1.383 . S
C476 C477 1.377 . S
C477 H461 0.930 . S
C477 C476 1.377 . S
C477 C478 1.379 . S
C478 H462 0.931 . S
C478 C472 1.383 . S
C478 C477 1.379 . S
H479 C473 0.959 . S
H480 C473 0.961 . S
H481 C473 0.960 . S
H482 C474 0.930 . S
H483 C475 0.929 . S
H484 C492 0.929 . S
H485 C494 0.930 . S
H486 C496 0.930 . S
H487 C499 0.929 . S
H488 C502 0.930 . S
H489 C504 0.960 . S
H490 C504 0.960 . S
H491 C504 0.960 . S
C492 H484 0.929 . S
C492 C493 1.377 . S
C492 C494 1.384 . S
C493 C492 1.377 . S
C493 C499 1.390 . S
C494 H485 0.930 . S
C494 C492 1.384 . S
C494 C495 1.372 . S
C495 C494 1.372 . S
C495 C496 1.400 . S
C495 C500 1.490 . S
C496 H486 0.930 . S
C496 C495 1.400 . S
C496 C499 1.386 . S
H497 C513 0.930 . S
H498 C514 0.931 . S
C499 H487 0.929 . S
C499 C493 1.390 . S
C499 C496 1.386 . S
C500 C495 1.490 . S
C500 C502 1.395 . S
C500 C503 1.403 . S
H501 C507 0.930 . S
C502 H488 0.930 . S
C502 C500 1.395 . S
C502 C505 1.403 . S
C503 C500 1.403 . S
C503 C504 1.524 . S
C503 C507 1.400 . S
C504 H489 0.960 . S
C504 H490 0.960 . S
C504 H491 0.960 . S
C504 C503 1.524 . S
C505 C502 1.403 . S
C505 C506 1.392 . S
C505 C509 1.495 . S
C506 C505 1.392 . S
C506 C507 1.385 . S
C506 C508 1.478 . S
C507 H501 0.930 . S
C507 C503 1.400 . S
C507 C506 1.385 . S
C508 C506 1.478 . S
C508 C510 1.381 . S
C508 C514 1.383 . S
C509 C505 1.495 . S
C509 H515 0.959 . S
C509 H516 0.961 . S
C509 H517 0.960 . S
C510 C508 1.381 . S
C510 C511 1.394 . S
C510 H518 0.930 . S
C511 C510 1.394 . S
C511 C512 1.383 . S
C511 H519 0.929 . S
C512 C511 1.383 . S
C512 C513 1.377 . S
C513 H497 0.930 . S
C513 C512 1.377 . S
C513 C514 1.379 . S
C514 H498 0.931 . S
C514 C508 1.383 . S
C514 C513 1.379 . S
H515 C509 0.959 . S
H516 C509 0.961 . S
H517 C509 0.960 . S
H518 C510 0.930 . S
H519 C511 0.929 . S
H520 C528 0.929 . S
H521 C530 0.930 . S
H522 C532 0.930 . S
H523 C535 0.929 . S
H524 C538 0.930 . S
H525 C540 0.960 . S
H526 C540 0.960 . S
H527 C540 0.960 . S
C528 H520 0.929 . S
C528 C529 1.377 . S
C528 C530 1.384 . S
C529 C528 1.377 . S
C529 C535 1.390 . S
C530 H521 0.930 . S
C530 C528 1.384 . S
C530 C531 1.372 . S
C531 C530 1.372 . S
C531 C532 1.400 . S
C531 C536 1.490 . S
C532 H522 0.930 . S
C532 C531 1.400 . S
C532 C535 1.386 . S
H533 C549 0.930 . S
H534 C550 0.931 . S
C535 H523 0.929 . S
C535 C529 1.390 . S
C535 C532 1.386 . S
C536 C531 1.490 . S
C536 C538 1.395 . S
C536 C539 1.403 . S
H537 C543 0.930 . S
C538 H524 0.930 . S
C538 C536 1.395 . S
C538 C541 1.403 . S
C539 C536 1.403 . S
C539 C540 1.524 . S
C539 C543 1.400 . S
C540 H525 0.960 . S
C540 H526 0.960 . S
C540 H527 0.960 . S
C540 C539 1.524 . S
C541 C538 1.403 . S
C541 C542 1.392 . S
C541 C545 1.495 . S
C542 C541 1.392 . S
C542 C543 1.385 . S
C542 C544 1.478 . S
C543 H537 0.930 . S
C543 C539 1.400 . S
C543 C542 1.385 . S
C544 C542 1.478 . S
C544 C546 1.381 . S
C544 C550 1.383 . S
C545 C541 1.495 . S
C545 H551 0.959 . S
C545 H552 0.961 . S
C545 H553 0.960 . S
C546 C544 1.381 . S
C546 C547 1.394 . S
C546 H554 0.930 . S
C547 C546 1.394 . S
C547 C548 1.383 . S
C547 H555 0.929 . S
C548 C547 1.383 . S
C548 C549 1.377 . S
C549 H533 0.930 . S
C549 C548 1.377 . S
C549 C550 1.379 . S
C550 H534 0.931 . S
C550 C544 1.383 . S
C550 C549 1.379 . S
H551 C545 0.959 . S
H552 C545 0.961 . S
H553 C545 0.960 . S
H554 C546 0.930 . S
H555 C547 0.929 . S
H556 C564 0.929 . S
H557 C566 0.930 . S
H558 C568 0.930 . S
H559 C571 0.929 . S
H560 C574 0.930 . S
H561 C576 0.960 . S
H562 C576 0.960 . S
H563 C576 0.960 . S
C564 H556 0.929 . S
C564 C565 1.377 . S
C564 C566 1.384 . S
C565 C564 1.377 . S
C565 C571 1.390 . S
C566 H557 0.930 . S
C566 C564 1.384 . S
C566 C567 1.372 . S
C567 C566 1.372 . S
C567 C568 1.400 . S
C567 C572 1.490 . S
C568 H558 0.930 . S
C568 C567 1.400 . S
C568 C571 1.386 . S
H569 C585 0.930 . S
H570 C586 0.931 . S
C571 H559 0.929 . S
C571 C565 1.390 . S
C571 C568 1.386 . S
C572 C567 1.490 . S
C572 C574 1.395 . S
C572 C575 1.403 . S
H573 C579 0.930 . S
C574 H560 0.930 . S
C574 C572 1.395 . S
C574 C577 1.403 . S
C575 C572 1.403 . S
C575 C576 1.524 . S
C575 C579 1.400 . S
C576 H561 0.960 . S
C576 H562 0.960 . S
C576 H563 0.960 . S
C576 C575 1.524 . S
C577 C574 1.403 . S
C577 C578 1.392 . S
C577 C581 1.495 . S
C578 C577 1.392 . S
C578 C579 1.385 . S
C578 C580 1.478 . S
C579 H573 0.930 . S
C579 C575 1.400 . S
C579 C578 1.385 . S
C580 C578 1.478 . S
C580 C582 1.381 . S
C580 C586 1.383 . S
C581 C577 1.495 . S
C581 H587 0.959 . S
C581 H588 0.961 . S
C581 H589 0.960 . S
C582 C580 1.381 . S
C582 C583 1.394 . S
C582 H590 0.930 . S
C583 C582 1.394 . S
C583 C584 1.383 . S
C583 H591 0.929 . S
C584 C583 1.383 . S
C584 C585 1.377 . S
C585 H569 0.930 . S
C585 C584 1.377 . S
C585 C586 1.379 . S
C586 H570 0.931 . S
C586 C580 1.383 . S
C586 C585 1.379 . S
H587 C581 0.959 . S
H588 C581 0.961 . S
H589 C581 0.960 . S
H590 C582 0.930 . S
H591 C583 0.929 . S
H592 C600 0.929 . S
H593 C602 0.930 . S
H594 C604 0.930 . S
H595 C607 0.929 . S
H596 C610 0.930 . S
H597 C612 0.960 . S
H598 C612 0.960 . S
H599 C612 0.960 . S
C600 H592 0.929 . S
C600 C601 1.377 . S
C600 C602 1.384 . S
C601 C600 1.377 . S
C601 C607 1.390 . S
C602 H593 0.930 . S
C602 C600 1.384 . S
C602 C603 1.372 . S
C603 C602 1.372 . S
C603 C604 1.400 . S
C603 C608 1.490 . S
C604 H594 0.930 . S
C604 C603 1.400 . S
C604 C607 1.386 . S
H605 C621 0.930 . S
H606 C622 0.931 . S
C607 H595 0.929 . S
C607 C601 1.390 . S
C607 C604 1.386 . S
C608 C603 1.490 . S
C608 C610 1.395 . S
C608 C611 1.403 . S
H609 C615 0.930 . S
C610 H596 0.930 . S
C610 C608 1.395 . S
C610 C613 1.403 . S
C611 C608 1.403 . S
C611 C612 1.524 . S
C611 C615 1.400 . S
C612 H597 0.960 . S
C612 H598 0.960 . S
C612 H599 0.960 . S
C612 C611 1.524 . S
C613 C610 1.403 . S
C613 C614 1.392 . S
C613 C617 1.495 . S
C614 C613 1.392 . S
C614 C615 1.385 . S
C614 C616 1.478 . S
C615 H609 0.930 . S
C615 C611 1.400 . S
C615 C614 1.385 . S
C616 C614 1.478 . S
C616 C618 1.381 . S
C616 C622 1.383 . S
C617 C613 1.495 . S
C617 H623 0.959 . S
C617 H624 0.961 . S
C617 H625 0.960 . S
C618 C616 1.381 . S
C618 C619 1.394 . S
C618 H626 0.930 . S
C619 C618 1.394 . S
C619 C620 1.383 . S
C619 H627 0.929 . S
C620 C619 1.383 . S
C620 C621 1.377 . S
C621 H605 0.930 . S
C621 C620 1.377 . S
C621 C622 1.379 . S
C622 H606 0.931 . S
C622 C616 1.383 . S
C622 C621 1.379 . S
H623 C617 0.959 . S
H624 C617 0.961 . S
H625 C617 0.960 . S
H626 C618 0.930 . S
H627 C619 0.929 . S
H628 C636 0.929 . S
H629 C638 0.930 . S
H630 C640 0.930 . S
H631 C643 0.929 . S
H632 C646 0.930 . S
H633 C648 0.960 . S
H634 C648 0.960 . S
H635 C648 0.960 . S
C636 H628 0.929 . S
C636 C637 1.377 . S
C636 C638 1.384 . S
C637 C636 1.377 . S
C637 C643 1.390 . S
C638 H629 0.930 . S
C638 C636 1.384 . S
C638 C639 1.372 . S
C639 C638 1.372 . S
C639 C640 1.400 . S
C639 C644 1.490 . S
C640 H630 0.930 . S
C640 C639 1.400 . S
C640 C643 1.386 . S
H641 C657 0.930 . S
H642 C658 0.931 . S
C643 H631 0.929 . S
C643 C637 1.390 . S
C643 C640 1.386 . S
C644 C639 1.490 . S
C644 C646 1.395 . S
C644 C647 1.403 . S
H645 C651 0.930 . S
C646 H632 0.930 . S
C646 C644 1.395 . S
C646 C649 1.403 . S
C647 C644 1.403 . S
C647 C648 1.524 . S
C647 C651 1.400 . S
C648 H633 0.960 . S
C648 H634 0.960 . S
C648 H635 0.960 . S
C648 C647 1.524 . S
C649 C646 1.403 . S
C649 C650 1.392 . S
C649 C653 1.495 . S
C650 C649 1.392 . S
C650 C651 1.385 . S
C650 C652 1.478 . S
C651 H645 0.930 . S
C651 C647 1.400 . S
C651 C650 1.385 . S
C652 C650 1.478 . S
C652 C654 1.381 . S
C652 C658 1.383 . S
C653 C649 1.495 . S
C653 H659 0.959 . S
C653 H660 0.961 . S
C653 H661 0.960 . S
C654 C652 1.381 . S
C654 C655 1.394 . S
C654 H662 0.930 . S
C655 C654 1.394 . S
C655 C656 1.383 . S
C655 H663 0.929 . S
C656 C655 1.383 . S
C656 C657 1.377 . S
C657 H641 0.930 . S
C657 C656 1.377 . S
C657 C658 1.379 . S
C658 H642 0.931 . S
C658 C652 1.383 . S
C658 C657 1.379 . S
H659 C653 0.959 . S
H660 C653 0.961 . S
H661 C653 0.960 . S
H662 C654 0.930 . S
H663 C655 0.929 . S
H664 C672 0.929 . S
H665 C674 0.930 . S
H666 C676 0.930 . S
H667 C679 0.929 . S
H668 C682 0.930 . S
H669 C684 0.960 . S
H670 C684 0.960 . S
H671 C684 0.960 . S
C672 H664 0.929 . S
C672 C673 1.377 . S
C672 C674 1.384 . S
C673 C672 1.377 . S
C673 C679 1.390 . S
C674 H665 0.930 . S
C674 C672 1.384 . S
C674 C675 1.372 . S
C675 C674 1.372 . S
C675 C676 1.400 . S
C675 C680 1.490 . S
C676 H666 0.930 . S
C676 C675 1.400 . S
C676 C679 1.386 . S
H677 C693 0.930 . S
H678 C694 0.931 . S
C679 H667 0.929 . S
C679 C673 1.390 . S
C679 C676 1.386 . S
C680 C675 1.490 . S
C680 C682 1.395 . S
C680 C683 1.403 . S
H681 C687 0.930 . S
C682 H668 0.930 . S
C682 C680 1.395 . S
C682 C685 1.403 . S
C683 C680 1.403 . S
C683 C684 1.524 . S
C683 C687 1.400 . S
C684 H669 0.960 . S
C684 H670 0.960 . S
C684 H671 0.960 . S
C684 C683 1.524 . S
C685 C682 1.403 . S
C685 C686 1.392 . S
C685 C689 1.495 . S
C686 C685 1.392 . S
C686 C687 1.385 . S
C686 C688 1.478 . S
C687 H681 0.930 . S
C687 C683 1.400 . S
C687 C686 1.385 . S
C688 C686 1.478 . S
C688 C690 1.381 . S
C688 C694 1.383 . S
C689 C685 1.495 . S
C689 H695 0.959 . S
C689 H696 0.961 . S
C689 H697 0.960 . S
C690 C688 1.381 . S
C690 C691 1.394 . S
C690 H698 0.930 . S
C691 C690 1.394 . S
C691 C692 1.383 . S
C691 H699 0.929 . S
C692 C691 1.383 . S
C692 C693 1.377 . S
C693 H677 0.930 . S
C693 C692 1.377 . S
C693 C694 1.379 . S
C694 H678 0.931 . S
C694 C688 1.383 . S
C694 C693 1.379 . S
H695 C689 0.959 . S
H696 C689 0.961 . S
H697 C689 0.960 . S
H698 C690 0.930 . S
H699 C691 0.929 . S
H700 C708 0.929 . S
H701 C710 0.930 . S
H702 C712 0.930 . S
H703 C715 0.929 . S
H704 C718 0.930 . S
H705 C720 0.960 . S
H706 C720 0.960 . S
H707 C720 0.960 . S
C708 H700 0.929 . S
C708 C709 1.377 . S
C708 C710 1.384 . S
C709 C708 1.377 . S
C709 C715 1.390 . S
C710 H701 0.930 . S
C710 C708 1.384 . S
C710 C711 1.372 . S
C711 C710 1.372 . S
C711 C712 1.400 . S
C711 C716 1.490 . S
C712 H702 0.930 . S
C712 C711 1.400 . S
C712 C715 1.386 . S
H713 C729 0.930 . S
H714 C730 0.931 . S
C715 H703 0.929 . S
C715 C709 1.390 . S
C715 C712 1.386 . S
C716 C711 1.490 . S
C716 C718 1.395 . S
C716 C719 1.403 . S
H717 C723 0.930 . S
C718 H704 0.930 . S
C718 C716 1.395 . S
C718 C721 1.403 . S
C719 C716 1.403 . S
C719 C720 1.524 . S
C719 C723 1.400 . S
C720 H705 0.960 . S
C720 H706 0.960 . S
C720 H707 0.960 . S
C720 C719 1.524 . S
C721 C718 1.403 . S
C721 C722 1.392 . S
C721 C725 1.495 . S
C722 C721 1.392 . S
C722 C723 1.385 . S
C722 C724 1.478 . S
C723 H717 0.930 . S
C723 C719 1.400 . S
C723 C722 1.385 . S
C724 C722 1.478 . S
C724 C726 1.381 . S
C724 C730 1.383 . S
C725 C721 1.495 . S
C725 H731 0.959 . S
C725 H732 0.961 . S
C725 H733 0.960 . S
C726 C724 1.381 . S
C726 C727 1.394 . S
C726 H734 0.930 . S
C727 C726 1.394 . S
C727 C728 1.383 . S
C727 H735 0.929 . S
C728 C727 1.383 . S
C728 C729 1.377 . S
C729 H713 0.930 . S
C729 C728 1.377 . S
C729 C730 1.379 . S
C730 H714 0.931 . S
C730 C724 1.383 . S
C730 C729 1.379 . S
H731 C725 0.959 . S
H732 C725 0.961 . S
H733 C725 0.960 . S
H734 C726 0.930 . S
H735 C727 0.929 . S
H736 C744 0.929 . S
H737 C746 0.930 . S
H738 C748 0.930 . S
H739 C751 0.929 . S
H740 C754 0.930 . S
H741 C756 0.960 . S
H742 C756 0.960 . S
H743 C756 0.960 . S
C744 H736 0.929 . S
C744 C745 1.377 . S
C744 C746 1.384 . S
C745 C744 1.377 . S
C745 C751 1.390 . S
C746 H737 0.930 . S
C746 C744 1.384 . S
C746 C747 1.372 . S
C747 C746 1.372 . S
C747 C748 1.400 . S
C747 C752 1.490 . S
C748 H738 0.930 . S
C748 C747 1.400 . S
C748 C751 1.386 . S
H749 C765 0.930 . S
H750 C766 0.931 . S
C751 H739 0.929 . S
C751 C745 1.390 . S
C751 C748 1.386 . S
C752 C747 1.490 . S
C752 C754 1.395 . S
C752 C755 1.403 . S
H753 C759 0.930 . S
C754 H740 0.930 . S
C754 C752 1.395 . S
C754 C757 1.403 . S
C755 C752 1.403 . S
C755 C756 1.524 . S
C755 C759 1.400 . S
C756 H741 0.960 . S
C756 H742 0.960 . S
C756 H743 0.960 . S
C756 C755 1.524 . S
C757 C754 1.403 . S
C757 C758 1.392 . S
C757 C761 1.495 . S
C758 C757 1.392 . S
C758 C759 1.385 . S
C758 C760 1.478 . S
C759 H753 0.930 . S
C759 C755 1.400 . S
C759 C758 1.385 . S
C760 C758 1.478 . S
C760 C762 1.381 . S
C760 C766 1.383 . S
C761 C757 1.495 . S
C761 H767 0.959 . S
C761 H768 0.961 . S
C761 H769 0.960 . S
C762 C760 1.381 . S
C762 C763 1.394 . S
C762 H770 0.930 . S
C763 C762 1.394 . S
C763 C764 1.383 . S
C763 H771 0.929 . S
C764 C763 1.383 . S
C764 C765 1.377 . S
C765 H749 0.930 . S
C765 C764 1.377 . S
C765 C766 1.379 . S
C766 H750 0.931 . S
C766 C760 1.383 . S
C766 C765 1.379 . S
H767 C761 0.959 . S
H768 C761 0.961 . S
H769 C761 0.960 . S
H770 C762 0.930 . S
H771 C763 0.929 . S
H772 C780 0.929 . S
H773 C782 0.930 . S
H774 C784 0.930 . S
H775 C787 0.929 . S
H776 C790 0.930 . S
H777 C792 0.960 . S
H778 C792 0.960 . S
H779 C792 0.960 . S
C780 H772 0.929 . S
C780 C781 1.377 . S
C780 C782 1.384 . S
C781 C780 1.377 . S
C781 C787 1.390 . S
C782 H773 0.930 . S
C782 C780 1.384 . S
C782 C783 1.372 . S
C783 C782 1.372 . S
C783 C784 1.400 . S
C783 C788 1.490 . S
C784 H774 0.930 . S
C784 C783 1.400 . S
C784 C787 1.386 . S
H785 C801 0.930 . S
H786 C802 0.931 . S
C787 H775 0.929 . S
C787 C781 1.390 . S
C787 C784 1.386 . S
C788 C783 1.490 . S
C788 C790 1.395 . S
C788 C791 1.403 . S
H789 C795 0.930 . S
C790 H776 0.930 . S
C790 C788 1.395 . S
C790 C793 1.403 . S
C791 C788 1.403 . S
C791 C792 1.524 . S
C791 C795 1.400 . S
C792 H777 0.960 . S
C792 H778 0.960 . S
C792 H779 0.960 . S
C792 C791 1.524 . S
C793 C790 1.403 . S
C793 C794 1.392 . S
C793 C797 1.495 . S
C794 C793 1.392 . S
C794 C795 1.385 . S
C794 C796 1.478 . S
C795 H789 0.930 . S
C795 C791 1.400 . S
C795 C794 1.385 . S
C796 C794 1.478 . S
C796 C798 1.381 . S
C796 C802 1.383 . S
C797 C793 1.495 . S
C797 H803 0.959 . S
C797 H804 0.961 . S
C797 H805 0.960 . S
C798 C796 1.381 . S
C798 C799 1.394 . S
C798 H806 0.930 . S
C799 C798 1.394 . S
C799 C800 1.383 . S
C799 H807 0.929 . S
C800 C799 1.383 . S
C800 C801 1.377 . S
C801 H785 0.930 . S
C801 C800 1.377 . S
C801 C802 1.379 . S
C802 H786 0.931 . S
C802 C796 1.383 . S
C802 C801 1.379 . S
H803 C797 0.959 . S
H804 C797 0.961 . S
H805 C797 0.960 . S
H806 C798 0.930 . S
H807 C799 0.929 . S
H808 C816 0.929 . S
H809 C818 0.930 . S
H810 C820 0.930 . S
H811 C823 0.929 . S
H812 C826 0.930 . S
H813 C828 0.960 . S
H814 C828 0.960 . S
H815 C828 0.960 . S
C816 H808 0.929 . S
C816 C817 1.377 . S
C816 C818 1.384 . S
C817 C816 1.377 . S
C817 C823 1.390 . S
C818 H809 0.930 . S
C818 C816 1.384 . S
C818 C819 1.372 . S
C819 C818 1.372 . S
C819 C820 1.400 . S
C819 C824 1.490 . S
C820 H810 0.930 . S
C820 C819 1.400 . S
C820 C823 1.386 . S
H821 C837 0.930 . S
H822 C838 0.931 . S
C823 H811 0.929 . S
C823 C817 1.390 . S
C823 C820 1.386 . S
C824 C819 1.490 . S
C824 C826 1.395 . S
C824 C827 1.403 . S
H825 C831 0.930 . S
C826 H812 0.930 . S
C826 C824 1.395 . S
C826 C829 1.403 . S
C827 C824 1.403 . S
C827 C828 1.524 . S
C827 C831 1.400 . S
C828 H813 0.960 . S
C828 H814 0.960 . S
C828 H815 0.960 . S
C828 C827 1.524 . S
C829 C826 1.403 . S
C829 C830 1.392 . S
C829 C833 1.495 . S
C830 C829 1.392 . S
C830 C831 1.385 . S
C830 C832 1.478 . S
C831 H825 0.930 . S
C831 C827 1.400 . S
C831 C830 1.385 . S
C832 C830 1.478 . S
C832 C834 1.381 . S
C832 C838 1.383 . S
C833 C829 1.495 . S
C833 H839 0.959 . S
C833 H840 0.961 . S
C833 H841 0.960 . S
C834 C832 1.381 . S
C834 C835 1.394 . S
C834 H842 0.930 . S
C835 C834 1.394 . S
C835 C836 1.383 . S
C835 H843 0.929 . S
C836 C835 1.383 . S
C836 C837 1.377 . S
C837 H821 0.930 . S
C837 C836 1.377 . S
C837 C838 1.379 . S
C838 H822 0.931 . S
C838 C832 1.383 . S
C838 C837 1.379 . S
H839 C833 0.959 . S
H840 C833 0.961 . S
H841 C833 0.960 . S
H842 C834 0.930 . S
H843 C835 0.929 . S
H844 C852 0.929 . S
H845 C854 0.930 . S
H846 C856 0.930 . S
H847 C859 0.929 . S
H848 C862 0.930 . S
H849 C864 0.960 . S
H850 C864 0.960 . S
H851 C864 0.960 . S
C852 H844 0.929 . S
C852 C853 1.377 . S
C852 C854 1.384 . S
C853 C852 1.377 . S
C853 C859 1.390 . S
C854 H845 0.930 . S
C854 C852 1.384 . S
C854 C855 1.372 . S
C855 C854 1.372 . S
C855 C856 1.400 . S
C855 C860 1.490 . S
C856 H846 0.930 . S
C856 C855 1.400 . S
C856 C859 1.386 . S
H857 C873 0.930 . S
H858 C874 0.931 . S
C859 H847 0.929 . S
C859 C853 1.390 . S
C859 C856 1.386 . S
C860 C855 1.490 . S
C860 C862 1.395 . S
C860 C863 1.403 . S
H861 C867 0.930 . S
C862 H848 0.930 . S
C862 C860 1.395 . S
C862 C865 1.403 . S
C863 C860 1.403 . S
C863 C864 1.524 . S
C863 C867 1.400 . S
C864 H849 0.960 . S
C864 H850 0.960 . S
C864 H851 0.960 . S
C864 C863 1.524 . S
C865 C862 1.403 . S
C865 C866 1.392 . S
C865 C869 1.495 . S
C866 C865 1.392 . S
C866 C867 1.385 . S
C866 C868 1.478 . S
C867 H861 0.930 . S
C867 C863 1.400 . S
C867 C866 1.385 . S
C868 C866 1.478 . S
C868 C870 1.381 . S
C868 C874 1.383 . S
C869 C865 1.495 . S
C869 H875 0.959 . S
C869 H876 0.961 . S
C869 H877 0.960 . S
C870 C868 1.381 . S
C870 C871 1.394 . S
C870 H878 0.930 . S
C871 C870 1.394 . S
C871 C872 1.383 . S
C871 H879 0.929 . S
C872 C871 1.383 . S
C872 C873 1.377 . S
C873 H857 0.930 . S
C873 C872 1.377 . S
C873 C874 1.379 . S
C874 H858 0.931 . S
C874 C868 1.383 . S
C874 C873 1.379 . S
H875 C869 0.959 . S
H876 C869 0.961 . S
H877 C869 0.960 . S
H878 C870 0.930 . S
H879 C871 0.929 . S
H880 C888 0.929 . S
H881 C890 0.930 . S
H882 C892 0.930 . S
H883 C895 0.929 . S
H884 C898 0.930 . S
H885 C900 0.960 . S
H886 C900 0.960 . S
H887 C900 0.960 . S
C888 H880 0.929 . S
C888 C889 1.377 . S
C888 C890 1.384 . S
C889 C888 1.377 . S
C889 C895 1.390 . S
C890 H881 0.930 . S
C890 C888 1.384 . S
C890 C891 1.372 . S
C891 C890 1.372 . S
C891 C892 1.400 . S
C891 C896 1.490 . S
C892 H882 0.930 . S
C892 C891 1.400 . S
C892 C895 1.386 . S
H893 C909 0.930 . S
H894 C910 0.931 . S
C895 H883 0.929 . S
C895 C889 1.390 . S
C895 C892 1.386 . S
C896 C891 1.490 . S
C896 C898 1.395 . S
C896 C899 1.403 . S
H897 C903 0.930 . S
C898 H884 0.930 . S
C898 C896 1.395 . S
C898 C901 1.403 . S
C899 C896 1.403 . S
C899 C900 1.524 . S
C899 C903 1.400 . S
C900 H885 0.960 . S
C900 H886 0.960 . S
C900 H887 0.960 . S
C900 C899 1.524 . S
C901 C898 1.403 . S
C901 C902 1.392 . S
C901 C905 1.495 . S
C902 C901 1.392 . S
C902 C903 1.385 . S
C902 C904 1.478 . S
C903 H897 0.930 . S
C903 C899 1.400 . S
C903 C902 1.385 . S
C904 C902 1.478 . S
C904 C906 1.381 . S
C904 C910 1.383 . S
C905 C901 1.495 . S
C905 H911 0.959 . S
C905 H912 0.961 . S
C905 H913 0.960 . S
C906 C904 1.381 . S
C906 C907 1.394 . S
C906 H914 0.930 . S
C907 C906 1.394 . S
C907 C908 1.383 . S
C907 H915 0.929 . S
C908 C907 1.383 . S
C908 C909 1.377 . S
C909 H893 0.930 . S
C909 C908 1.377 . S
C909 C910 1.379 . S
C910 H894 0.931 . S
C910 C904 1.383 . S
C910 C909 1.379 . S
H911 C905 0.959 . S
H912 C905 0.961 . S
H913 C905 0.960 . S
H914 C906 0.930 . S
H915 C907 0.929 . S
H916 C924 0.929 . S
H917 C926 0.930 . S
H918 C928 0.930 . S
H919 C931 0.929 . S
H920 C934 0.930 . S
H921 C936 0.960 . S
H922 C936 0.960 . S
H923 C936 0.960 . S
C924 H916 0.929 . S
C924 C925 1.377 . S
C924 C926 1.384 . S
C925 C924 1.377 . S
C925 C931 1.390 . S
C926 H917 0.930 . S
C926 C924 1.384 . S
C926 C927 1.372 . S
C927 C926 1.372 . S
C927 C928 1.400 . S
C927 C932 1.490 . S
C928 H918 0.930 . S
C928 C927 1.400 . S
C928 C931 1.386 . S
H929 C945 0.930 . S
H930 C946 0.931 . S
C931 H919 0.929 . S
C931 C925 1.390 . S
C931 C928 1.386 . S
C932 C927 1.490 . S
C932 C934 1.395 . S
C932 C935 1.403 . S
H933 C939 0.930 . S
C934 H920 0.930 . S
C934 C932 1.395 . S
C934 C937 1.403 . S
C935 C932 1.403 . S
C935 C936 1.524 . S
C935 C939 1.400 . S
C936 H921 0.960 . S
C936 H922 0.960 . S
C936 H923 0.960 . S
C936 C935 1.524 . S
C937 C934 1.403 . S
C937 C938 1.392 . S
C937 C941 1.495 . S
C938 C937 1.392 . S
C938 C939 1.385 . S
C938 C940 1.478 . S
C939 H933 0.930 . S
C939 C935 1.400 . S
C939 C938 1.385 . S
C940 C938 1.478 . S
C940 C942 1.381 . S
C940 C946 1.383 . S
C941 C937 1.495 . S
C941 H947 0.959 . S
C941 H948 0.961 . S
C941 H949 0.960 . S
C942 C940 1.381 . S
C942 C943 1.394 . S
C942 H950 0.930 . S
C943 C942 1.394 . S
C943 C944 1.383 . S
C943 H951 0.929 . S
C944 C943 1.383 . S
C944 C945 1.377 . S
C945 H929 0.930 . S
C945 C944 1.377 . S
C945 C946 1.379 . S
C946 H930 0.931 . S
C946 C940 1.383 . S
C946 C945 1.379 . S
H947 C941 0.959 . S
H948 C941 0.961 . S
H949 C941 0.960 . S
H950 C942 0.930 . S
H951 C943 0.929 . S
H952 C960 0.929 . S
H953 C962 0.930 . S
H954 C964 0.930 . S
H955 C967 0.929 . S
H956 C970 0.930 . S
H957 C972 0.960 . S
H958 C972 0.960 . S
H959 C972 0.960 . S
C960 H952 0.929 . S
C960 C961 1.377 . S
C960 C962 1.384 . S
C961 C960 1.377 . S
C961 C967 1.390 . S
C962 H953 0.930 . S
C962 C960 1.384 . S
C962 C963 1.372 . S
C963 C962 1.372 . S
C963 C964 1.400 . S
C963 C968 1.490 . S
C964 H954 0.930 . S
C964 C963 1.400 . S
C964 C967 1.386 . S
H965 C981 0.930 . S
H966 C982 0.931 . S
C967 H955 0.929 . S
C967 C961 1.390 . S
C967 C964 1.386 . S
C968 C963 1.490 . S
C968 C970 1.395 . S
C968 C971 1.403 . S
H969 C975 0.930 . S
C970 H956 0.930 . S
C970 C968 1.395 . S
C970 C973 1.403 . S
C971 C968 1.403 . S
C971 C972 1.524 . S
C971 C975 1.400 . S
C972 H957 0.960 . S
C972 H958 0.960 . S
C972 H959 0.960 . S
C972 C971 1.524 . S
C973 C970 1.403 . S
C973 C974 1.392 . S
C973 C977 1.495 . S
C974 C973 1.392 . S
C974 C975 1.385 . S
C974 C976 1.478 . S
C975 H969 0.930 . S
C975 C971 1.400 . S
C975 C974 1.385 . S
C976 C974 1.478 . S
C976 C978 1.381 . S
C976 C982 1.383 . S
C977 C973 1.495 . S
C977 H983 0.959 . S
C977 H984 0.961 . S
C977 H985 0.960 . S
C978 C976 1.381 . S
C978 C979 1.394 . S
C978 H986 0.930 . S
C979 C978 1.394 . S
C979 C980 1.383 . S
C979 H987 0.929 . S
C980 C979 1.383 . S
C980 C981 1.377 . S
C981 H965 0.930 . S
C981 C980 1.377 . S
C981 C982 1.379 . S
C982 H966 0.931 . S
C982 C976 1.383 . S
C982 C981 1.379 . S
H983 C977 0.959 . S
H984 C977 0.961 . S
H985 C977 0.960 . S
H986 C978 0.930 . S
H987 C979 0.929 . S
H988 C996 0.929 . S
H989 C998 0.930 . S
H990 C1000 0.930 . S
H991 C1003 0.929 . S
H992 C1006 0.930 . S
H993 C1008 0.960 . S
H994 C1008 0.960 . S
H995 C1008 0.960 . S
C996 H988 0.929 . S
C996 C997 1.377 . S
C996 C998 1.384 . S
C997 C996 1.377 . S
C997 C1003 1.390 . S
C998 H989 0.930 . S
C998 C996 1.384 . S
C998 C999 1.372 . S
C999 C998 1.372 . S
C999 C1000 1.400 . S
C999 C1004 1.490 . S
C1000 H990 0.930 . S
C1000 C999 1.400 . S
C1000 C1003 1.386 . S
H1001 C1017 0.930 . S
H1002 C1018 0.931 . S
C1003 H991 0.929 . S
C1003 C997 1.390 . S
C1003 C1000 1.386 . S
C1004 C999 1.490 . S
C1004 C1006 1.395 . S
C1004 C1007 1.403 . S
H1005 C1011 0.930 . S
C1006 H992 0.930 . S
C1006 C1004 1.395 . S
C1006 C1009 1.403 . S
C1007 C1004 1.403 . S
C1007 C1008 1.524 . S
C1007 C1011 1.400 . S
C1008 H993 0.960 . S
C1008 H994 0.960 . S
C1008 H995 0.960 . S
C1008 C1007 1.524 . S
C1009 C1006 1.403 . S
C1009 C1010 1.392 . S
C1009 C1013 1.495 . S
C1010 C1009 1.392 . S
C1010 C1011 1.385 . S
C1010 C1012 1.478 . S
C1011 H1005 0.930 . S
C1011 C1007 1.400 . S
C1011 C1010 1.385 . S
C1012 C1010 1.478 . S
C1012 C1014 1.381 . S
C1012 C1018 1.383 . S
C1013 C1009 1.495 . S
C1013 H1019 0.959 . S
C1013 H1020 0.961 . S
C1013 H1021 0.960 . S
C1014 C1012 1.381 . S
C1014 C1015 1.394 . S
C1014 H1022 0.930 . S
C1015 C1014 1.394 . S
C1015 C1016 1.383 . S
C1015 H1023 0.929 . S
C1016 C1015 1.383 . S
C1016 C1017 1.377 . S
C1017 H1001 0.930 . S
C1017 C1016 1.377 . S
C1017 C1018 1.379 . S
C1018 H1002 0.931 . S
C1018 C1012 1.383 . S
C1018 C1017 1.379 . S
H1019 C1013 0.959 . S
H1020 C1013 0.961 . S
H1021 C1013 0.960 . S
H1022 C1014 0.930 . S
H1023 C1015 0.929 . S
H1024 C1032 0.929 . S
H1025 C1034 0.930 . S
H1026 C1036 0.930 . S
H1027 C1039 0.929 . S
H1028 C1042 0.930 . S
H1029 C1044 0.960 . S
H1030 C1044 0.960 . S
H1031 C1044 0.960 . S
C1032 H1024 0.929 . S
C1032 C1033 1.377 . S
C1032 C1034 1.384 . S
C1033 C1032 1.377 . S
C1033 C1039 1.390 . S
C1034 H1025 0.930 . S
C1034 C1032 1.384 . S
C1034 C1035 1.372 . S
C1035 C1034 1.372 . S
C1035 C1036 1.400 . S
C1035 C1040 1.490 . S
C1036 H1026 0.930 . S
C1036 C1035 1.400 . S
C1036 C1039 1.386 . S
H1037 C1053 0.930 . S
H1038 C1054 0.931 . S
C1039 H1027 0.929 . S
C1039 C1033 1.390 . S
C1039 C1036 1.386 . S
C1040 C1035 1.490 . S
C1040 C1042 1.395 . S
C1040 C1043 1.403 . S
H1041 C1047 0.930 . S
C1042 H1028 0.930 . S
C1042 C1040 1.395 . S
C1042 C1045 1.403 1_655 S
C1043 C1040 1.403 . S
C1043 C1044 1.524 . S
C1043 C1047 1.400 1_655 S
C1044 H1029 0.960 . S
C1044 H1030 0.960 . S
C1044 H1031 0.960 . S
C1044 C1043 1.524 . S
C1045 C1042 1.403 1_455 S
C1045 C1046 1.392 . S
C1045 C1049 1.495 . S
C1046 C1045 1.392 . S
C1046 C1047 1.385 . S
C1046 C1048 1.478 . S
C1047 H1041 0.930 . S
C1047 C1043 1.400 1_455 S
C1047 C1046 1.385 . S
C1048 C1046 1.478 . S
C1048 C1050 1.381 . S
C1048 C1054 1.383 . S
C1049 C1045 1.495 . S
C1049 H1055 0.959 . S
C1049 H1056 0.961 . S
C1049 H1057 0.960 . S
C1050 C1048 1.381 . S
C1050 C1051 1.394 . S
C1050 H1058 0.930 . S
C1051 C1050 1.394 . S
C1051 C1052 1.383 . S
C1051 H1059 0.929 . S
C1052 C1051 1.383 . S
C1052 C1053 1.377 . S
C1053 H1037 0.930 . S
C1053 C1052 1.377 . S
C1053 C1054 1.379 . S
C1054 H1038 0.931 . S
C1054 C1048 1.383 . S
C1054 C1053 1.379 . S
H1055 C1049 0.959 . S
H1056 C1049 0.961 . S
H1057 C1049 0.960 . S
H1058 C1050 0.930 . S
H1059 C1051 0.929 . S
H1060 C1068 0.929 . S
H1061 C1070 0.930 . S
H1062 C1072 0.930 . S
H1063 C1075 0.929 . S
H1064 C1078 0.930 . S
H1065 C1080 0.960 . S
H1066 C1080 0.960 . S
H1067 C1080 0.960 . S
C1068 H1060 0.929 . S
C1068 C1069 1.377 . S
C1068 C1070 1.384 . S
C1069 C1068 1.377 . S
C1069 C1075 1.390 . S
C1070 H1061 0.930 . S
C1070 C1068 1.384 . S
C1070 C1071 1.372 . S
C1071 C1070 1.372 . S
C1071 C1072 1.400 . S
C1071 C1076 1.490 . S
C1072 H1062 0.930 . S
C1072 C1071 1.400 . S
C1072 C1075 1.386 . S
H1073 C1089 0.930 . S
H1074 C1090 0.931 . S
C1075 H1063 0.929 . S
C1075 C1069 1.390 . S
C1075 C1072 1.386 . S
C1076 C1071 1.490 . S
C1076 C1078 1.395 . S
C1076 C1079 1.403 . S
H1077 C1083 0.930 . S
C1078 H1064 0.930 . S
C1078 C1076 1.395 . S
C1078 C1081 1.403 1_545 S
C1079 C1076 1.403 . S
C1079 C1080 1.524 . S
C1079 C1083 1.400 1_545 S
C1080 H1065 0.960 . S
C1080 H1066 0.960 . S
C1080 H1067 0.960 . S
C1080 C1079 1.524 . S
C1081 C1078 1.403 1_565 S
C1081 C1082 1.392 . S
C1081 C1085 1.495 . S
C1082 C1081 1.392 . S
C1082 C1083 1.385 . S
C1082 C1084 1.478 . S
C1083 H1077 0.930 . S
C1083 C1079 1.400 1_565 S
C1083 C1082 1.385 . S
C1084 C1082 1.478 . S
C1084 C1086 1.381 . S
C1084 C1090 1.383 . S
C1085 C1081 1.495 . S
C1085 H1091 0.959 . S
C1085 H1092 0.961 . S
C1085 H1093 0.960 . S
C1086 C1084 1.381 . S
C1086 C1087 1.394 . S
C1086 H1094 0.930 . S
C1087 C1086 1.394 . S
C1087 C1088 1.383 . S
C1087 H1095 0.929 . S
C1088 C1087 1.383 . S
C1088 C1089 1.377 . S
C1089 H1073 0.930 . S
C1089 C1088 1.377 . S
C1089 C1090 1.379 . S
C1090 H1074 0.931 . S
C1090 C1084 1.383 . S
C1090 C1089 1.379 . S
H1091 C1085 0.959 . S
H1092 C1085 0.961 . S
H1093 C1085 0.960 . S
H1094 C1086 0.930 . S
H1095 C1087 0.929 . S
H1096 C1104 0.929 . S
H1097 C1106 0.930 . S
H1098 C1108 0.930 . S
H1099 C1111 0.929 . S
H1100 C1114 0.930 . S
H1101 C1116 0.960 . S
H1102 C1116 0.960 . S
H1103 C1116 0.960 . S
C1104 H1096 0.929 . S
C1104 C1105 1.377 . S
C1104 C1106 1.384 . S
C1105 C1104 1.377 . S
C1105 C1111 1.390 . S
C1106 H1097 0.930 . S
C1106 C1104 1.384 . S
C1106 C1107 1.372 . S
C1107 C1106 1.372 . S
C1107 C1108 1.400 . S
C1107 C1112 1.490 . S
C1108 H1098 0.930 . S
C1108 C1107 1.400 . S
C1108 C1111 1.386 . S
H1109 C1125 0.930 . S
H1110 C1126 0.931 . S
C1111 H1099 0.929 . S
C1111 C1105 1.390 . S
C1111 C1108 1.386 . S
C1112 C1107 1.490 . S
C1112 C1114 1.395 . S
C1112 C1115 1.403 . S
H1113 C1119 0.930 . S
C1114 H1100 0.930 . S
C1114 C1112 1.395 . S
C1114 C1117 1.403 1_455 S
C1115 C1112 1.403 . S
C1115 C1116 1.524 . S
C1115 C1119 1.400 1_455 S
C1116 H1101 0.960 . S
C1116 H1102 0.960 . S
C1116 H1103 0.960 . S
C1116 C1115 1.524 . S
C1117 C1114 1.403 1_655 S
C1117 C1118 1.392 . S
C1117 C1121 1.495 . S
C1118 C1117 1.392 . S
C1118 C1119 1.385 . S
C1118 C1120 1.478 . S
C1119 H1113 0.930 . S
C1119 C1115 1.400 1_655 S
C1119 C1118 1.385 . S
C1120 C1118 1.478 . S
C1120 C1122 1.381 . S
C1120 C1126 1.383 . S
C1121 C1117 1.495 . S
C1121 H1127 0.959 . S
C1121 H1128 0.961 . S
C1121 H1129 0.960 . S
C1122 C1120 1.381 . S
C1122 C1123 1.394 . S
C1122 H1130 0.930 . S
C1123 C1122 1.394 . S
C1123 C1124 1.383 . S
C1123 H1131 0.929 . S
C1124 C1123 1.383 . S
C1124 C1125 1.377 . S
C1125 H1109 0.930 . S
C1125 C1124 1.377 . S
C1125 C1126 1.379 . S
C1126 H1110 0.931 . S
C1126 C1120 1.383 . S
C1126 C1125 1.379 . S
H1127 C1121 0.959 . S
H1128 C1121 0.961 . S
H1129 C1121 0.960 . S
H1130 C1122 0.930 . S
H1131 C1123 0.929 . S
H1132 C1140 0.929 . S
H1133 C1142 0.930 . S
H1134 C1144 0.930 . S
H1135 C1147 0.929 . S
H1136 C1150 0.930 . S
H1137 C1152 0.960 . S
H1138 C1152 0.960 . S
H1139 C1152 0.960 . S
C1140 H1132 0.929 . S
C1140 C1141 1.377 . S
C1140 C1142 1.384 . S
C1141 C1140 1.377 . S
C1141 C1147 1.390 . S
C1142 H1133 0.930 . S
C1142 C1140 1.384 . S
C1142 C1143 1.372 . S
C1143 C1142 1.372 . S
C1143 C1144 1.400 . S
C1143 C1148 1.490 . S
C1144 H1134 0.930 . S
C1144 C1143 1.400 . S
C1144 C1147 1.386 . S
H1145 C1161 0.930 . S
H1146 C1162 0.931 . S
C1147 H1135 0.929 . S
C1147 C1141 1.390 . S
C1147 C1144 1.386 . S
C1148 C1143 1.490 . S
C1148 C1150 1.395 . S
C1148 C1151 1.403 . S
H1149 C1155 0.930 . S
C1150 H1136 0.930 . S
C1150 C1148 1.395 . S
C1150 C1153 1.403 1_565 S
C1151 C1148 1.403 . S
C1151 C1152 1.524 . S
C1151 C1155 1.400 1_565 S
C1152 H1137 0.960 . S
C1152 H1138 0.960 . S
C1152 H1139 0.960 . S
C1152 C1151 1.524 . S
C1153 C1150 1.403 1_545 S
C1153 C1154 1.392 . S
C1153 C1157 1.495 . S
C1154 C1153 1.392 . S
C1154 C1155 1.385 . S
C1154 C1156 1.478 . S
C1155 H1149 0.930 . S
C1155 C1151 1.400 1_545 S
C1155 C1154 1.385 . S
C1156 C1154 1.478 . S
C1156 C1158 1.381 . S
C1156 C1162 1.383 . S
C1157 C1153 1.495 . S
C1157 H1163 0.959 . S
C1157 H1164 0.961 . S
C1157 H1165 0.960 . S
C1158 C1156 1.381 . S
C1158 C1159 1.394 . S
C1158 H1166 0.930 . S
C1159 C1158 1.394 . S
C1159 C1160 1.383 . S
C1159 H1167 0.929 . S
C1160 C1159 1.383 . S
C1160 C1161 1.377 . S
C1161 H1145 0.930 . S
C1161 C1160 1.377 . S
C1161 C1162 1.379 . S
C1162 H1146 0.931 . S
C1162 C1156 1.383 . S
C1162 C1161 1.379 . S
H1163 C1157 0.959 . S
H1164 C1157 0.961 . S
H1165 C1157 0.960 . S
H1166 C1158 0.930 . S
H1167 C1159 0.929 . S
H1168 C1176 0.929 . S
H1169 C1178 0.930 . S
H1170 C1180 0.930 . S
H1171 C1183 0.929 . S
H1172 C1186 0.930 . S
H1173 C1188 0.960 . S
H1174 C1188 0.960 . S
H1175 C1188 0.960 . S
C1176 H1168 0.929 . S
C1176 C1177 1.377 . S
C1176 C1178 1.384 . S
C1177 C1176 1.377 . S
C1177 C1183 1.390 . S
C1178 H1169 0.930 . S
C1178 C1176 1.384 . S
C1178 C1179 1.372 . S
C1179 C1178 1.372 . S
C1179 C1180 1.400 . S
C1179 C1184 1.490 . S
C1180 H1170 0.930 . S
C1180 C1179 1.400 . S
C1180 C1183 1.386 . S
H1181 C1197 0.930 . S
H1182 C1198 0.931 . S
C1183 H1171 0.929 . S
C1183 C1177 1.390 . S
C1183 C1180 1.386 . S
C1184 C1179 1.490 . S
C1184 C1186 1.395 . S
C1184 C1187 1.403 . S
H1185 C1191 0.930 . S
C1186 H1172 0.930 . S
C1186 C1184 1.395 . S
C1186 C1189 1.403 1_455 S
C1187 C1184 1.403 . S
C1187 C1188 1.524 . S
C1187 C1191 1.400 1_455 S
C1188 H1173 0.960 . S
C1188 H1174 0.960 . S
C1188 H1175 0.960 . S
C1188 C1187 1.524 . S
C1189 C1186 1.403 1_655 S
C1189 C1190 1.392 . S
C1189 C1193 1.495 . S
C1190 C1189 1.392 . S
C1190 C1191 1.385 . S
C1190 C1192 1.478 . S
C1191 H1185 0.930 . S
C1191 C1187 1.400 1_655 S
C1191 C1190 1.385 . S
C1192 C1190 1.478 . S
C1192 C1194 1.381 . S
C1192 C1198 1.383 . S
C1193 C1189 1.495 . S
C1193 H1199 0.959 . S
C1193 H1200 0.961 . S
C1193 H1201 0.960 . S
C1194 C1192 1.381 . S
C1194 C1195 1.394 . S
C1194 H1202 0.930 . S
C1195 C1194 1.394 . S
C1195 C1196 1.383 . S
C1195 H1203 0.929 . S
C1196 C1195 1.383 . S
C1196 C1197 1.377 . S
C1197 H1181 0.930 . S
C1197 C1196 1.377 . S
C1197 C1198 1.379 . S
C1198 H1182 0.931 . S
C1198 C1192 1.383 . S
C1198 C1197 1.379 . S
H1199 C1193 0.959 . S
H1200 C1193 0.961 . S
H1201 C1193 0.960 . S
H1202 C1194 0.930 . S
H1203 C1195 0.929 . S
H1204 C1212 0.929 . S
H1205 C1214 0.930 . S
H1206 C1216 0.930 . S
H1207 C1219 0.929 . S
H1208 C1222 0.930 . S
H1209 C1224 0.960 . S
H1210 C1224 0.960 . S
H1211 C1224 0.960 . S
C1212 H1204 0.929 . S
C1212 C1213 1.377 . S
C1212 C1214 1.384 . S
C1213 C1212 1.377 . S
C1213 C1219 1.390 . S
C1214 H1205 0.930 . S
C1214 C1212 1.384 . S
C1214 C1215 1.372 . S
C1215 C1214 1.372 . S
C1215 C1216 1.400 . S
C1215 C1220 1.490 . S
C1216 H1206 0.930 . S
C1216 C1215 1.400 . S
C1216 C1219 1.386 . S
H1217 C1233 0.930 . S
H1218 C1234 0.931 . S
C1219 H1207 0.929 . S
C1219 C1213 1.390 . S
C1219 C1216 1.386 . S
C1220 C1215 1.490 . S
C1220 C1222 1.395 . S
C1220 C1223 1.403 . S
H1221 C1227 0.930 . S
C1222 H1208 0.930 . S
C1222 C1220 1.395 . S
C1222 C1225 1.403 1_565 S
C1223 C1220 1.403 . S
C1223 C1224 1.524 . S
C1223 C1227 1.400 1_565 S
C1224 H1209 0.960 . S
C1224 H1210 0.960 . S
C1224 H1211 0.960 . S
C1224 C1223 1.524 . S
C1225 C1222 1.403 1_545 S
C1225 C1226 1.392 . S
C1225 C1229 1.495 . S
C1226 C1225 1.392 . S
C1226 C1227 1.385 . S
C1226 C1228 1.478 . S
C1227 H1221 0.930 . S
C1227 C1223 1.400 1_545 S
C1227 C1226 1.385 . S
C1228 C1226 1.478 . S
C1228 C1230 1.381 . S
C1228 C1234 1.383 . S
C1229 C1225 1.495 . S
C1229 H1235 0.959 . S
C1229 H1236 0.961 . S
C1229 H1237 0.960 . S
C1230 C1228 1.381 . S
C1230 C1231 1.394 . S
C1230 H1238 0.930 . S
C1231 C1230 1.394 . S
C1231 C1232 1.383 . S
C1231 H1239 0.929 . S
C1232 C1231 1.383 . S
C1232 C1233 1.377 . S
C1233 H1217 0.930 . S
C1233 C1232 1.377 . S
C1233 C1234 1.379 . S
C1234 H1218 0.931 . S
C1234 C1228 1.383 . S
C1234 C1233 1.379 . S
H1235 C1229 0.959 . S
H1236 C1229 0.961 . S
H1237 C1229 0.960 . S
H1238 C1230 0.930 . S
H1239 C1231 0.929 . S
H1240 C1248 0.929 . S
H1241 C1250 0.930 . S
H1242 C1252 0.930 . S
H1243 C1255 0.929 . S
H1244 C1258 0.930 . S
H1245 C1260 0.960 . S
H1246 C1260 0.960 . S
H1247 C1260 0.960 . S
C1248 H1240 0.929 . S
C1248 C1249 1.377 . S
C1248 C1250 1.384 . S
C1249 C1248 1.377 . S
C1249 C1255 1.390 . S
C1250 H1241 0.930 . S
C1250 C1248 1.384 . S
C1250 C1251 1.372 . S
C1251 C1250 1.372 . S
C1251 C1252 1.400 . S
C1251 C1256 1.490 . S
C1252 H1242 0.930 . S
C1252 C1251 1.400 . S
C1252 C1255 1.386 . S
H1253 C1269 0.930 . S
H1254 C1270 0.931 . S
C1255 H1243 0.929 . S
C1255 C1249 1.390 . S
C1255 C1252 1.386 . S
C1256 C1251 1.490 . S
C1256 C1258 1.395 . S
C1256 C1259 1.403 . S
H1257 C1263 0.930 . S
C1258 H1244 0.930 . S
C1258 C1256 1.395 . S
C1258 C1261 1.403 1_455 S
C1259 C1256 1.403 . S
C1259 C1260 1.524 . S
C1259 C1263 1.400 1_455 S
C1260 H1245 0.960 . S
C1260 H1246 0.960 . S
C1260 H1247 0.960 . S
C1260 C1259 1.524 . S
C1261 C1258 1.403 1_655 S
C1261 C1262 1.392 . S
C1261 C1265 1.495 . S
C1262 C1261 1.392 . S
C1262 C1263 1.385 . S
C1262 C1264 1.478 . S
C1263 H1257 0.930 . S
C1263 C1259 1.400 1_655 S
C1263 C1262 1.385 . S
C1264 C1262 1.478 . S
C1264 C1266 1.381 . S
C1264 C1270 1.383 . S
C1265 C1261 1.495 . S
C1265 H1271 0.959 . S
C1265 H1272 0.961 . S
C1265 H1273 0.960 . S
C1266 C1264 1.381 . S
C1266 C1267 1.394 . S
C1266 H1274 0.930 . S
C1267 C1266 1.394 . S
C1267 C1268 1.383 . S
C1267 H1275 0.929 . S
C1268 C1267 1.383 . S
C1268 C1269 1.377 . S
C1269 H1253 0.930 . S
C1269 C1268 1.377 . S
C1269 C1270 1.379 . S
C1270 H1254 0.931 . S
C1270 C1264 1.383 . S
C1270 C1269 1.379 . S
H1271 C1265 0.959 . S
H1272 C1265 0.961 . S
H1273 C1265 0.960 . S
H1274 C1266 0.930 . S
H1275 C1267 0.929 . S
H1276 C1284 0.929 . S
H1277 C1286 0.930 . S
H1278 C1288 0.930 . S
H1279 C1291 0.929 . S
H1280 C1294 0.930 . S
H1281 C1296 0.960 . S
H1282 C1296 0.960 . S
H1283 C1296 0.960 . S
C1284 H1276 0.929 . S
C1284 C1285 1.377 . S
C1284 C1286 1.384 . S
C1285 C1284 1.377 . S
C1285 C1291 1.390 . S
C1286 H1277 0.930 . S
C1286 C1284 1.384 . S
C1286 C1287 1.372 . S
C1287 C1286 1.372 . S
C1287 C1288 1.400 . S
C1287 C1292 1.490 . S
C1288 H1278 0.930 . S
C1288 C1287 1.400 . S
C1288 C1291 1.386 . S
H1289 C1305 0.930 . S
H1290 C1306 0.931 . S
C1291 H1279 0.929 . S
C1291 C1285 1.390 . S
C1291 C1288 1.386 . S
C1292 C1287 1.490 . S
C1292 C1294 1.395 . S
C1292 C1295 1.403 . S
H1293 C1299 0.930 . S
C1294 H1280 0.930 . S
C1294 C1292 1.395 . S
C1294 C1297 1.403 1_545 S
C1295 C1292 1.403 . S
C1295 C1296 1.524 . S
C1295 C1299 1.400 1_545 S
C1296 H1281 0.960 . S
C1296 H1282 0.960 . S
C1296 H1283 0.960 . S
C1296 C1295 1.524 . S
C1297 C1294 1.403 1_565 S
C1297 C1298 1.392 . S
C1297 C1301 1.495 . S
C1298 C1297 1.392 . S
C1298 C1299 1.385 . S
C1298 C1300 1.478 . S
C1299 H1293 0.930 . S
C1299 C1295 1.400 1_565 S
C1299 C1298 1.385 . S
C1300 C1298 1.478 . S
C1300 C1302 1.381 . S
C1300 C1306 1.383 . S
C1301 C1297 1.495 . S
C1301 H1307 0.959 . S
C1301 H1308 0.961 . S
C1301 H1309 0.960 . S
C1302 C1300 1.381 . S
C1302 C1303 1.394 . S
C1302 H1310 0.930 . S
C1303 C1302 1.394 . S
C1303 C1304 1.383 . S
C1303 H1311 0.929 . S
C1304 C1303 1.383 . S
C1304 C1305 1.377 . S
C1305 H1289 0.930 . S
C1305 C1304 1.377 . S
C1305 C1306 1.379 . S
C1306 H1290 0.931 . S
C1306 C1300 1.383 . S
C1306 C1305 1.379 . S
H1307 C1301 0.959 . S
H1308 C1301 0.961 . S
H1309 C1301 0.960 . S
H1310 C1302 0.930 . S
H1311 C1303 0.929 . S
H1312 C1320 0.929 . S
H1313 C1322 0.930 . S
H1314 C1324 0.930 . S
H1315 C1327 0.929 . S
H1316 C1330 0.930 . S
H1317 C1332 0.960 . S
H1318 C1332 0.960 . S
H1319 C1332 0.960 . S
C1320 H1312 0.929 . S
C1320 C1321 1.377 . S
C1320 C1322 1.384 . S
C1321 C1320 1.377 . S
C1321 C1327 1.390 . S
C1322 H1313 0.930 . S
C1322 C1320 1.384 . S
C1322 C1323 1.372 . S
C1323 C1322 1.372 . S
C1323 C1324 1.400 . S
C1323 C1328 1.490 . S
C1324 H1314 0.930 . S
C1324 C1323 1.400 . S
C1324 C1327 1.386 . S
H1325 C1341 0.930 . S
H1326 C1342 0.931 . S
C1327 H1315 0.929 . S
C1327 C1321 1.390 . S
C1327 C1324 1.386 . S
C1328 C1323 1.490 . S
C1328 C1330 1.395 . S
C1328 C1331 1.403 . S
H1329 C1335 0.930 . S
C1330 H1316 0.930 . S
C1330 C1328 1.395 . S
C1330 C1333 1.403 . S
C1331 C1328 1.403 . S
C1331 C1332 1.524 . S
C1331 C1335 1.400 . S
C1332 H1317 0.960 . S
C1332 H1318 0.960 . S
C1332 H1319 0.960 . S
C1332 C1331 1.524 . S
C1333 C1330 1.403 . S
C1333 C1334 1.392 . S
C1333 C1337 1.495 . S
C1334 C1333 1.392 . S
C1334 C1335 1.385 . S
C1334 C1336 1.478 . S
C1335 H1329 0.930 . S
C1335 C1331 1.400 . S
C1335 C1334 1.385 . S
C1336 C1334 1.478 . S
C1336 C1338 1.381 . S
C1336 C1342 1.383 . S
C1337 C1333 1.495 . S
C1337 H1343 0.959 . S
C1337 H1344 0.961 . S
C1337 H1345 0.960 . S
C1338 C1336 1.381 . S
C1338 C1339 1.394 . S
C1338 H1346 0.930 . S
C1339 C1338 1.394 . S
C1339 C1340 1.383 . S
C1339 H1347 0.929 . S
C1340 C1339 1.383 . S
C1340 C1341 1.377 . S
C1341 H1325 0.930 . S
C1341 C1340 1.377 . S
C1341 C1342 1.379 . S
C1342 H1326 0.931 . S
C1342 C1336 1.383 . S
C1342 C1341 1.379 . S
H1343 C1337 0.959 . S
H1344 C1337 0.961 . S
H1345 C1337 0.960 . S
H1346 C1338 0.930 . S
H1347 C1339 0.929 . S
H1348 C1356 0.929 . S
H1349 C1358 0.930 . S
H1350 C1360 0.930 . S
H1351 C1363 0.929 . S
H1352 C1366 0.930 . S
H1353 C1368 0.960 . S
H1354 C1368 0.960 . S
H1355 C1368 0.960 . S
C1356 H1348 0.929 . S
C1356 C1357 1.377 . S
C1356 C1358 1.384 . S
C1357 C1356 1.377 . S
C1357 C1363 1.390 . S
C1358 H1349 0.930 . S
C1358 C1356 1.384 . S
C1358 C1359 1.372 . S
C1359 C1358 1.372 . S
C1359 C1360 1.400 . S
C1359 C1364 1.490 . S
C1360 H1350 0.930 . S
C1360 C1359 1.400 . S
C1360 C1363 1.386 . S
H1361 C1377 0.930 . S
H1362 C1378 0.931 . S
C1363 H1351 0.929 . S
C1363 C1357 1.390 . S
C1363 C1360 1.386 . S
C1364 C1359 1.490 . S
C1364 C1366 1.395 . S
C1364 C1367 1.403 . S
H1365 C1371 0.930 . S
C1366 H1352 0.930 . S
C1366 C1364 1.395 . S
C1366 C1369 1.403 . S
C1367 C1364 1.403 . S
C1367 C1368 1.524 . S
C1367 C1371 1.400 . S
C1368 H1353 0.960 . S
C1368 H1354 0.960 . S
C1368 H1355 0.960 . S
C1368 C1367 1.524 . S
C1369 C1366 1.403 . S
C1369 C1370 1.392 . S
C1369 C1373 1.495 . S
C1370 C1369 1.392 . S
C1370 C1371 1.385 . S
C1370 C1372 1.478 . S
C1371 H1365 0.930 . S
C1371 C1367 1.400 . S
C1371 C1370 1.385 . S
C1372 C1370 1.478 . S
C1372 C1374 1.381 . S
C1372 C1378 1.383 . S
C1373 C1369 1.495 . S
C1373 H1379 0.959 . S
C1373 H1380 0.961 . S
C1373 H1381 0.960 . S
C1374 C1372 1.381 . S
C1374 C1375 1.394 . S
C1374 H1382 0.930 . S
C1375 C1374 1.394 . S
C1375 C1376 1.383 . S
C1375 H1383 0.929 . S
C1376 C1375 1.383 . S
C1376 C1377 1.377 . S
C1377 H1361 0.930 . S
C1377 C1376 1.377 . S
C1377 C1378 1.379 . S
C1378 H1362 0.931 . S
C1378 C1372 1.383 . S
C1378 C1377 1.379 . S
H1379 C1373 0.959 . S
H1380 C1373 0.961 . S
H1381 C1373 0.960 . S
H1382 C1374 0.930 . S
H1383 C1375 0.929 . S
H1384 C1392 0.929 . S
H1385 C1394 0.930 . S
H1386 C1396 0.930 . S
H1387 C1399 0.929 . S
H1388 C1402 0.930 . S
H1389 C1404 0.960 . S
H1390 C1404 0.960 . S
H1391 C1404 0.960 . S
C1392 H1384 0.929 . S
C1392 C1393 1.377 . S
C1392 C1394 1.384 . S
C1393 C1392 1.377 . S
C1393 C1399 1.390 . S
C1394 H1385 0.930 . S
C1394 C1392 1.384 . S
C1394 C1395 1.372 . S
C1395 C1394 1.372 . S
C1395 C1396 1.400 . S
C1395 C1400 1.490 . S
C1396 H1386 0.930 . S
C1396 C1395 1.400 . S
C1396 C1399 1.386 . S
H1397 C1413 0.930 . S
H1398 C1414 0.931 . S
C1399 H1387 0.929 . S
C1399 C1393 1.390 . S
C1399 C1396 1.386 . S
C1400 C1395 1.490 . S
C1400 C1402 1.395 . S
C1400 C1403 1.403 . S
H1401 C1407 0.930 . S
C1402 H1388 0.930 . S
C1402 C1400 1.395 . S
C1402 C1405 1.403 . S
C1403 C1400 1.403 . S
C1403 C1404 1.524 . S
C1403 C1407 1.400 . S
C1404 H1389 0.960 . S
C1404 H1390 0.960 . S
C1404 H1391 0.960 . S
C1404 C1403 1.524 . S
C1405 C1402 1.403 . S
C1405 C1406 1.392 . S
C1405 C1409 1.495 . S
C1406 C1405 1.392 . S
C1406 C1407 1.385 . S
C1406 C1408 1.478 . S
C1407 H1401 0.930 . S
C1407 C1403 1.400 . S
C1407 C1406 1.385 . S
C1408 C1406 1.478 . S
C1408 C1410 1.381 . S
C1408 C1414 1.383 . S
C1409 C1405 1.495 . S
C1409 H1415 0.959 . S
C1409 H1416 0.961 . S
C1409 H1417 0.960 . S
C1410 C1408 1.381 . S
C1410 C1411 1.394 . S
C1410 H1418 0.930 . S
C1411 C1410 1.394 . S
C1411 C1412 1.383 . S
C1411 H1419 0.929 . S
C1412 C1411 1.383 . S
C1412 C1413 1.377 . S
C1413 H1397 0.930 . S
C1413 C1412 1.377 . S
C1413 C1414 1.379 . S
C1414 H1398 0.931 . S
C1414 C1408 1.383 . S
C1414 C1413 1.379 . S
H1415 C1409 0.959 . S
H1416 C1409 0.961 . S
H1417 C1409 0.960 . S
H1418 C1410 0.930 . S
H1419 C1411 0.929 . S
H1420 C1428 0.929 . S
H1421 C1430 0.930 . S
H1422 C1432 0.930 . S
H1423 C1435 0.929 . S
H1424 C1438 0.930 . S
H1425 C1440 0.960 . S
H1426 C1440 0.960 . S
H1427 C1440 0.960 . S
C1428 H1420 0.929 . S
C1428 C1429 1.377 . S
C1428 C1430 1.384 . S
C1429 C1428 1.377 . S
C1429 C1435 1.390 . S
C1430 H1421 0.930 . S
C1430 C1428 1.384 . S
C1430 C1431 1.372 . S
C1431 C1430 1.372 . S
C1431 C1432 1.400 . S
C1431 C1436 1.490 . S
C1432 H1422 0.930 . S
C1432 C1431 1.400 . S
C1432 C1435 1.386 . S
H1433 C1449 0.930 . S
H1434 C1450 0.931 . S
C1435 H1423 0.929 . S
C1435 C1429 1.390 . S
C1435 C1432 1.386 . S
C1436 C1431 1.490 . S
C1436 C1438 1.395 . S
C1436 C1439 1.403 . S
H1437 C1443 0.930 . S
C1438 H1424 0.930 . S
C1438 C1436 1.395 . S
C1438 C1441 1.403 . S
C1439 C1436 1.403 . S
C1439 C1440 1.524 . S
C1439 C1443 1.400 . S
C1440 H1425 0.960 . S
C1440 H1426 0.960 . S
C1440 H1427 0.960 . S
C1440 C1439 1.524 . S
C1441 C1438 1.403 . S
C1441 C1442 1.392 . S
C1441 C1445 1.495 . S
C1442 C1441 1.392 . S
C1442 C1443 1.385 . S
C1442 C1444 1.478 . S
C1443 H1437 0.930 . S
C1443 C1439 1.400 . S
C1443 C1442 1.385 . S
C1444 C1442 1.478 . S
C1444 C1446 1.381 . S
C1444 C1450 1.383 . S
C1445 C1441 1.495 . S
C1445 H1451 0.959 . S
C1445 H1452 0.961 . S
C1445 H1453 0.960 . S
C1446 C1444 1.381 . S
C1446 C1447 1.394 . S
C1446 H1454 0.930 . S
C1447 C1446 1.394 . S
C1447 C1448 1.383 . S
C1447 H1455 0.929 . S
C1448 C1447 1.383 . S
C1448 C1449 1.377 . S
C1449 H1433 0.930 . S
C1449 C1448 1.377 . S
C1449 C1450 1.379 . S
C1450 H1434 0.931 . S
C1450 C1444 1.383 . S
C1450 C1449 1.379 . S
H1451 C1445 0.959 . S
H1452 C1445 0.961 . S
H1453 C1445 0.960 . S
H1454 C1446 0.930 . S
H1455 C1447 0.929 . S
H1456 C1464 0.929 . S
H1457 C1466 0.930 . S
H1458 C1468 0.930 . S
H1459 C1471 0.929 . S
H1460 C1474 0.930 . S
H1461 C1476 0.960 . S
H1462 C1476 0.960 . S
H1463 C1476 0.960 . S
C1464 H1456 0.929 . S
C1464 C1465 1.377 . S
C1464 C1466 1.384 . S
C1465 C1464 1.377 . S
C1465 C1471 1.390 . S
C1466 H1457 0.930 . S
C1466 C1464 1.384 . S
C1466 C1467 1.372 . S
C1467 C1466 1.372 . S
C1467 C1468 1.400 . S
C1467 C1472 1.490 . S
C1468 H1458 0.930 . S
C1468 C1467 1.400 . S
C1468 C1471 1.386 . S
H1469 C1485 0.930 . S
H1470 C1486 0.931 . S
C1471 H1459 0.929 . S
C1471 C1465 1.390 . S
C1471 C1468 1.386 . S
C1472 C1467 1.490 . S
C1472 C1474 1.395 . S
C1472 C1475 1.403 . S
H1473 C1479 0.930 . S
C1474 H1460 0.930 . S
C1474 C1472 1.395 . S
C1474 C1477 1.403 . S
C1475 C1472 1.403 . S
C1475 C1476 1.524 . S
C1475 C1479 1.400 . S
C1476 H1461 0.960 . S
C1476 H1462 0.960 . S
C1476 H1463 0.960 . S
C1476 C1475 1.524 . S
C1477 C1474 1.403 . S
C1477 C1478 1.392 . S
C1477 C1481 1.495 . S
C1478 C1477 1.392 . S
C1478 C1479 1.385 . S
C1478 C1480 1.478 . S
C1479 H1473 0.930 . S
C1479 C1475 1.400 . S
C1479 C1478 1.385 . S
C1480 C1478 1.478 . S
C1480 C1482 1.381 . S
C1480 C1486 1.383 . S
C1481 C1477 1.495 . S
C1481 H1487 0.959 . S
C1481 H1488 0.961 . S
C1481 H1489 0.960 . S
C1482 C1480 1.381 . S
C1482 C1483 1.394 . S
C1482 H1490 0.930 . S
C1483 C1482 1.394 . S
C1483 C1484 1.383 . S
C1483 H1491 0.929 . S
C1484 C1483 1.383 . S
C1484 C1485 1.377 . S
C1485 H1469 0.930 . S
C1485 C1484 1.377 . S
C1485 C1486 1.379 . S
C1486 H1470 0.931 . S
C1486 C1480 1.383 . S
C1486 C1485 1.379 . S
H1487 C1481 0.959 . S
H1488 C1481 0.961 . S
H1489 C1481 0.960 . S
H1490 C1482 0.930 . S
H1491 C1483 0.929 . S
H1492 C1500 0.929 . S
H1493 C1502 0.930 . S
H1494 C1504 0.930 . S
H1495 C1507 0.929 . S
H1496 C1510 0.930 . S
H1497 C1512 0.960 . S
H1498 C1512 0.960 . S
H1499 C1512 0.960 . S
C1500 H1492 0.929 . S
C1500 C1501 1.377 . S
C1500 C1502 1.384 . S
C1501 C1500 1.377 . S
C1501 C1507 1.390 . S
C1502 H1493 0.930 . S
C1502 C1500 1.384 . S
C1502 C1503 1.372 . S
C1503 C1502 1.372 . S
C1503 C1504 1.400 . S
C1503 C1508 1.490 . S
C1504 H1494 0.930 . S
C1504 C1503 1.400 . S
C1504 C1507 1.386 . S
H1505 C1521 0.930 . S
H1506 C1522 0.931 . S
C1507 H1495 0.929 . S
C1507 C1501 1.390 . S
C1507 C1504 1.386 . S
C1508 C1503 1.490 . S
C1508 C1510 1.395 . S
C1508 C1511 1.403 . S
H1509 C1515 0.930 . S
C1510 H1496 0.930 . S
C1510 C1508 1.395 . S
C1510 C1513 1.403 . S
C1511 C1508 1.403 . S
C1511 C1512 1.524 . S
C1511 C1515 1.400 . S
C1512 H1497 0.960 . S
C1512 H1498 0.960 . S
C1512 H1499 0.960 . S
C1512 C1511 1.524 . S
C1513 C1510 1.403 . S
C1513 C1514 1.392 . S
C1513 C1517 1.495 . S
C1514 C1513 1.392 . S
C1514 C1515 1.385 . S
C1514 C1516 1.478 . S
C1515 H1509 0.930 . S
C1515 C1511 1.400 . S
C1515 C1514 1.385 . S
C1516 C1514 1.478 . S
C1516 C1518 1.381 . S
C1516 C1522 1.383 . S
C1517 C1513 1.495 . S
C1517 H1523 0.959 . S
C1517 H1524 0.961 . S
C1517 H1525 0.960 . S
C1518 C1516 1.381 . S
C1518 C1519 1.394 . S
C1518 H1526 0.930 . S
C1519 C1518 1.394 . S
C1519 C1520 1.383 . S
C1519 H1527 0.929 . S
C1520 C1519 1.383 . S
C1520 C1521 1.377 . S
C1521 H1505 0.930 . S
C1521 C1520 1.377 . S
C1521 C1522 1.379 . S
C1522 H1506 0.931 . S
C1522 C1516 1.383 . S
C1522 C1521 1.379 . S
H1523 C1517 0.959 . S
H1524 C1517 0.961 . S
H1525 C1517 0.960 . S
H1526 C1518 0.930 . S
H1527 C1519 0.929 . S
H1528 C1536 0.929 . S
H1529 C1538 0.930 . S
H1530 C1540 0.930 . S
H1531 C1543 0.929 . S
H1532 C1546 0.930 . S
H1533 C1548 0.960 . S
H1534 C1548 0.960 . S
H1535 C1548 0.960 . S
C1536 H1528 0.929 . S
C1536 C1537 1.377 . S
C1536 C1538 1.384 . S
C1537 C1536 1.377 . S
C1537 C1543 1.390 . S
C1538 H1529 0.930 . S
C1538 C1536 1.384 . S
C1538 C1539 1.372 . S
C1539 C1538 1.372 . S
C1539 C1540 1.400 . S
C1539 C1544 1.490 . S
C1540 H1530 0.930 . S
C1540 C1539 1.400 . S
C1540 C1543 1.386 . S
H1541 C1557 0.930 . S
H1542 C1558 0.931 . S
C1543 H1531 0.929 . S
C1543 C1537 1.390 . S
C1543 C1540 1.386 . S
C1544 C1539 1.490 . S
C1544 C1546 1.395 . S
C1544 C1547 1.403 . S
H1545 C1551 0.930 . S
C1546 H1532 0.930 . S
C1546 C1544 1.395 . S
C1546 C1549 1.403 . S
C1547 C1544 1.403 . S
C1547 C1548 1.524 . S
C1547 C1551 1.400 . S
C1548 H1533 0.960 . S
C1548 H1534 0.960 . S
C1548 H1535 0.960 . S
C1548 C1547 1.524 . S
C1549 C1546 1.403 . S
C1549 C1550 1.392 . S
C1549 C1553 1.495 . S
C1550 C1549 1.392 . S
C1550 C1551 1.385 . S
C1550 C1552 1.478 . S
C1551 H1545 0.930 . S
C1551 C1547 1.400 . S
C1551 C1550 1.385 . S
C1552 C1550 1.478 . S
C1552 C1554 1.381 . S
C1552 C1558 1.383 . S
C1553 C1549 1.495 . S
C1553 H1559 0.959 . S
C1553 H1560 0.961 . S
C1553 H1561 0.960 . S
C1554 C1552 1.381 . S
C1554 C1555 1.394 . S
C1554 H1562 0.930 . S
C1555 C1554 1.394 . S
C1555 C1556 1.383 . S
C1555 H1563 0.929 . S
C1556 C1555 1.383 . S
C1556 C1557 1.377 . S
C1557 H1541 0.930 . S
C1557 C1556 1.377 . S
C1557 C1558 1.379 . S
C1558 H1542 0.931 . S
C1558 C1552 1.383 . S
C1558 C1557 1.379 . S
H1559 C1553 0.959 . S
H1560 C1553 0.961 . S
H1561 C1553 0.960 . S
H1562 C1554 0.930 . S
H1563 C1555 0.929 . S
H1564 C1572 0.929 . S
H1565 C1574 0.930 . S
H1566 C1576 0.930 . S
H1567 C1579 0.929 . S
H1568 C1582 0.930 . S
H1569 C1584 0.960 . S
H1570 C1584 0.960 . S
H1571 C1584 0.960 . S
C1572 H1564 0.929 . S
C1572 C1573 1.377 . S
C1572 C1574 1.384 . S
C1573 C1572 1.377 . S
C1573 C1579 1.390 . S
C1574 H1565 0.930 . S
C1574 C1572 1.384 . S
C1574 C1575 1.372 . S
C1575 C1574 1.372 . S
C1575 C1576 1.400 . S
C1575 C1580 1.490 . S
C1576 H1566 0.930 . S
C1576 C1575 1.400 . S
C1576 C1579 1.386 . S
H1577 C1593 0.930 . S
H1578 C1594 0.931 . S
C1579 H1567 0.929 . S
C1579 C1573 1.390 . S
C1579 C1576 1.386 . S
C1580 C1575 1.490 . S
C1580 C1582 1.395 . S
C1580 C1583 1.403 . S
H1581 C1587 0.930 . S
C1582 H1568 0.930 . S
C1582 C1580 1.395 . S
C1582 C1585 1.403 . S
C1583 C1580 1.403 . S
C1583 C1584 1.524 . S
C1583 C1587 1.400 . S
C1584 H1569 0.960 . S
C1584 H1570 0.960 . S
C1584 H1571 0.960 . S
C1584 C1583 1.524 . S
C1585 C1582 1.403 . S
C1585 C1586 1.392 . S
C1585 C1589 1.495 . S
C1586 C1585 1.392 . S
C1586 C1587 1.385 . S
C1586 C1588 1.478 . S
C1587 H1581 0.930 . S
C1587 C1583 1.400 . S
C1587 C1586 1.385 . S
C1588 C1586 1.478 . S
C1588 C1590 1.381 . S
C1588 C1594 1.383 . S
C1589 C1585 1.495 . S
C1589 H1595 0.959 . S
C1589 H1596 0.961 . S
C1589 H1597 0.960 . S
C1590 C1588 1.381 . S
C1590 C1591 1.394 . S
C1590 H1598 0.930 . S
C1591 C1590 1.394 . S
C1591 C1592 1.383 . S
C1591 H1599 0.929 . S
C1592 C1591 1.383 . S
C1592 C1593 1.377 . S
C1593 H1577 0.930 . S
C1593 C1592 1.377 . S
C1593 C1594 1.379 . S
C1594 H1578 0.931 . S
C1594 C1588 1.383 . S
C1594 C1593 1.379 . S
H1595 C1589 0.959 . S
H1596 C1589 0.961 . S
H1597 C1589 0.960 . S
H1598 C1590 0.930 . S
H1599 C1591 0.929 . S
H1600 C1608 0.929 . S
H1601 C1610 0.930 . S
H1602 C1612 0.930 . S
H1603 C1615 0.929 . S
H1604 C1618 0.930 . S
H1605 C1620 0.960 . S
H1606 C1620 0.960 . S
H1607 C1620 0.960 . S
C1608 H1600 0.929 . S
C1608 C1609 1.377 . S
C1608 C1610 1.384 . S
C1609 C1608 1.377 . S
C1609 C1615 1.390 . S
C1610 H1601 0.930 . S
C1610 C1608 1.384 . S
C1610 C1611 1.372 . S
C1611 C1610 1.372 . S
C1611 C1612 1.400 . S
C1611 C1616 1.490 . S
C1612 H1602 0.930 . S
C1612 C1611 1.400 . S
C1612 C1615 1.386 . S
H1613 C1629 0.930 . S
H1614 C1630 0.931 . S
C1615 H1603 0.929 . S
C1615 C1609 1.390 . S
C1615 C1612 1.386 . S
C1616 C1611 1.490 . S
C1616 C1618 1.395 . S
C1616 C1619 1.403 . S
H1617 C1623 0.930 . S
C1618 H1604 0.930 . S
C1618 C1616 1.395 . S
C1618 C1621 1.403 . S
C1619 C1616 1.403 . S
C1619 C1620 1.524 . S
C1619 C1623 1.400 . S
C1620 H1605 0.960 . S
C1620 H1606 0.960 . S
C1620 H1607 0.960 . S
C1620 C1619 1.524 . S
C1621 C1618 1.403 . S
C1621 C1622 1.392 . S
C1621 C1625 1.495 . S
C1622 C1621 1.392 . S
C1622 C1623 1.385 . S
C1622 C1624 1.478 . S
C1623 H1617 0.930 . S
C1623 C1619 1.400 . S
C1623 C1622 1.385 . S
C1624 C1622 1.478 . S
C1624 C1626 1.381 . S
C1624 C1630 1.383 . S
C1625 C1621 1.495 . S
C1625 H1631 0.959 . S
C1625 H1632 0.961 . S
C1625 H1633 0.960 . S
C1626 C1624 1.381 . S
C1626 C1627 1.394 . S
C1626 H1634 0.930 . S
C1627 C1626 1.394 . S
C1627 C1628 1.383 . S
C1627 H1635 0.929 . S
C1628 C1627 1.383 . S
C1628 C1629 1.377 . S
C1629 H1613 0.930 . S
C1629 C1628 1.377 . S
C1629 C1630 1.379 . S
C1630 H1614 0.931 . S
C1630 C1624 1.383 . S
C1630 C1629 1.379 . S
H1631 C1625 0.959 . S
H1632 C1625 0.961 . S
H1633 C1625 0.960 . S
H1634 C1626 0.930 . S
H1635 C1627 0.929 . S
H1636 C1644 0.929 . S
H1637 C1646 0.930 . S
H1638 C1648 0.930 . S
H1639 C1651 0.929 . S
H1640 C1654 0.930 . S
H1641 C1656 0.960 . S
H1642 C1656 0.960 . S
H1643 C1656 0.960 . S
C1644 H1636 0.929 . S
C1644 C1645 1.377 . S
C1644 C1646 1.384 . S
C1645 C1644 1.377 . S
C1645 C1651 1.390 . S
C1646 H1637 0.930 . S
C1646 C1644 1.384 . S
C1646 C1647 1.372 . S
C1647 C1646 1.372 . S
C1647 C1648 1.400 . S
C1647 C1652 1.490 . S
C1648 H1638 0.930 . S
C1648 C1647 1.400 . S
C1648 C1651 1.386 . S
H1649 C1665 0.930 . S
H1650 C1666 0.931 . S
C1651 H1639 0.929 . S
C1651 C1645 1.390 . S
C1651 C1648 1.386 . S
C1652 C1647 1.490 . S
C1652 C1654 1.395 . S
C1652 C1655 1.403 . S
H1653 C1659 0.930 . S
C1654 H1640 0.930 . S
C1654 C1652 1.395 . S
C1654 C1657 1.403 . S
C1655 C1652 1.403 . S
C1655 C1656 1.524 . S
C1655 C1659 1.400 . S
C1656 H1641 0.960 . S
C1656 H1642 0.960 . S
C1656 H1643 0.960 . S
C1656 C1655 1.524 . S
C1657 C1654 1.403 . S
C1657 C1658 1.392 . S
C1657 C1661 1.495 . S
C1658 C1657 1.392 . S
C1658 C1659 1.385 . S
C1658 C1660 1.478 . S
C1659 H1653 0.930 . S
C1659 C1655 1.400 . S
C1659 C1658 1.385 . S
C1660 C1658 1.478 . S
C1660 C1662 1.381 . S
C1660 C1666 1.383 . S
C1661 C1657 1.495 . S
C1661 H1667 0.959 . S
C1661 H1668 0.961 . S
C1661 H1669 0.960 . S
C1662 C1660 1.381 . S
C1662 C1663 1.394 . S
C1662 H1670 0.930 . S
C1663 C1662 1.394 . S
C1663 C1664 1.383 . S
C1663 H1671 0.929 . S
C1664 C1663 1.383 . S
C1664 C1665 1.377 . S
C1665 H1649 0.930 . S
C1665 C1664 1.377 . S
C1665 C1666 1.379 . S
C1666 H1650 0.931 . S
C1666 C1660 1.383 . S
C1666 C1665 1.379 . S
H1667 C1661 0.959 . S
H1668 C1661 0.961 . S
H1669 C1661 0.960 . S
H1670 C1662 0.930 . S
H1671 C1663 0.929 . S
H1672 C1680 0.929 . S
H1673 C1682 0.930 . S
H1674 C1684 0.930 . S
H1675 C1687 0.929 . S
H1676 C1690 0.930 . S
H1677 C1692 0.960 . S
H1678 C1692 0.960 . S
H1679 C1692 0.960 . S
C1680 H1672 0.929 . S
C1680 C1681 1.377 . S
C1680 C1682 1.384 . S
C1681 C1680 1.377 . S
C1681 C1687 1.390 . S
C1682 H1673 0.930 . S
C1682 C1680 1.384 . S
C1682 C1683 1.372 . S
C1683 C1682 1.372 . S
C1683 C1684 1.400 . S
C1683 C1688 1.490 . S
C1684 H1674 0.930 . S
C1684 C1683 1.400 . S
C1684 C1687 1.386 . S
H1685 C1701 0.930 . S
H1686 C1702 0.931 . S
C1687 H1675 0.929 . S
C1687 C1681 1.390 . S
C1687 C1684 1.386 . S
C1688 C1683 1.490 . S
C1688 C1690 1.395 . S
C1688 C1691 1.403 . S
H1689 C1695 0.930 . S
C1690 H1676 0.930 . S
C1690 C1688 1.395 . S
C1690 C1693 1.403 . S
C1691 C1688 1.403 . S
C1691 C1692 1.524 . S
C1691 C1695 1.400 . S
C1692 H1677 0.960 . S
C1692 H1678 0.960 . S
C1692 H1679 0.960 . S
C1692 C1691 1.524 . S
C1693 C1690 1.403 . S
C1693 C1694 1.392 . S
C1693 C1697 1.495 . S
C1694 C1693 1.392 . S
C1694 C1695 1.385 . S
C1694 C1696 1.478 . S
C1695 H1689 0.930 . S
C1695 C1691 1.400 . S
C1695 C1694 1.385 . S
C1696 C1694 1.478 . S
C1696 C1698 1.381 . S
C1696 C1702 1.383 . S
C1697 C1693 1.495 . S
C1697 H1703 0.959 . S
C1697 H1704 0.961 . S
C1697 H1705 0.960 . S
C1698 C1696 1.381 . S
C1698 C1699 1.394 . S
C1698 H1706 0.930 . S
C1699 C1698 1.394 . S
C1699 C1700 1.383 . S
C1699 H1707 0.929 . S
C1700 C1699 1.383 . S
C1700 C1701 1.377 . S
C1701 H1685 0.930 . S
C1701 C1700 1.377 . S
C1701 C1702 1.379 . S
C1702 H1686 0.931 . S
C1702 C1696 1.383 . S
C1702 C1701 1.379 . S
H1703 C1697 0.959 . S
H1704 C1697 0.961 . S
H1705 C1697 0.960 . S
H1706 C1698 0.930 . S
H1707 C1699 0.929 . S
H1708 C1716 0.929 . S
H1709 C1718 0.930 . S
H1710 C1720 0.930 . S
H1711 C1723 0.929 . S
H1712 C1726 0.930 . S
H1713 C1728 0.960 . S
H1714 C1728 0.960 . S
H1715 C1728 0.960 . S
C1716 H1708 0.929 . S
C1716 C1717 1.377 . S
C1716 C1718 1.384 . S
C1717 C1716 1.377 . S
C1717 C1723 1.390 . S
C1718 H1709 0.930 . S
C1718 C1716 1.384 . S
C1718 C1719 1.372 . S
C1719 C1718 1.372 . S
C1719 C1720 1.400 . S
C1719 C1724 1.490 . S
C1720 H1710 0.930 . S
C1720 C1719 1.400 . S
C1720 C1723 1.386 . S
H1721 C1737 0.930 . S
H1722 C1738 0.931 . S
C1723 H1711 0.929 . S
C1723 C1717 1.390 . S
C1723 C1720 1.386 . S
C1724 C1719 1.490 . S
C1724 C1726 1.395 . S
C1724 C1727 1.403 . S
H1725 C1731 0.930 . S
C1726 H1712 0.930 . S
C1726 C1724 1.395 . S
C1726 C1729 1.403 . S
C1727 C1724 1.403 . S
C1727 C1728 1.524 . S
C1727 C1731 1.400 . S
C1728 H1713 0.960 . S
C1728 H1714 0.960 . S
C1728 H1715 0.960 . S
C1728 C1727 1.524 . S
C1729 C1726 1.403 . S
C1729 C1730 1.392 . S
C1729 C1733 1.495 . S
C1730 C1729 1.392 . S
C1730 C1731 1.385 . S
C1730 C1732 1.478 . S
C1731 H1725 0.930 . S
C1731 C1727 1.400 . S
C1731 C1730 1.385 . S
C1732 C1730 1.478 . S
C1732 C1734 1.381 . S
C1732 C1738 1.383 . S
C1733 C1729 1.495 . S
C1733 H1739 0.959 . S
C1733 H1740 0.961 . S
C1733 H1741 0.960 . S
C1734 C1732 1.381 . S
C1734 C1735 1.394 . S
C1734 H1742 0.930 . S
C1735 C1734 1.394 . S
C1735 C1736 1.383 . S
C1735 H1743 0.929 . S
C1736 C1735 1.383 . S
C1736 C1737 1.377 . S
C1737 H1721 0.930 . S
C1737 C1736 1.377 . S
C1737 C1738 1.379 . S
C1738 H1722 0.931 . S
C1738 C1732 1.383 . S
C1738 C1737 1.379 . S
H1739 C1733 0.959 . S
H1740 C1733 0.961 . S
H1741 C1733 0.960 . S
H1742 C1734 0.930 . S
H1743 C1735 0.929 . S
H1744 C1752 0.929 . S
H1745 C1754 0.930 . S
H1746 C1756 0.930 . S
H1747 C1759 0.929 . S
H1748 C1762 0.930 . S
H1749 C1764 0.960 . S
H1750 C1764 0.960 . S
H1751 C1764 0.960 . S
C1752 H1744 0.929 . S
C1752 C1753 1.377 . S
C1752 C1754 1.384 . S
C1753 C1752 1.377 . S
C1753 C1759 1.390 . S
C1754 H1745 0.930 . S
C1754 C1752 1.384 . S
C1754 C1755 1.372 . S
C1755 C1754 1.372 . S
C1755 C1756 1.400 . S
C1755 C1760 1.490 . S
C1756 H1746 0.930 . S
C1756 C1755 1.400 . S
C1756 C1759 1.386 . S
H1757 C1773 0.930 . S
H1758 C1774 0.931 . S
C1759 H1747 0.929 . S
C1759 C1753 1.390 . S
C1759 C1756 1.386 . S
C1760 C1755 1.490 . S
C1760 C1762 1.395 . S
C1760 C1763 1.403 . S
H1761 C1767 0.930 . S
C1762 H1748 0.930 . S
C1762 C1760 1.395 . S
C1762 C1765 1.403 . S
C1763 C1760 1.403 . S
C1763 C1764 1.524 . S
C1763 C1767 1.400 . S
C1764 H1749 0.960 . S
C1764 H1750 0.960 . S
C1764 H1751 0.960 . S
C1764 C1763 1.524 . S
C1765 C1762 1.403 . S
C1765 C1766 1.392 . S
C1765 C1769 1.495 . S
C1766 C1765 1.392 . S
C1766 C1767 1.385 . S
C1766 C1768 1.478 . S
C1767 H1761 0.930 . S
C1767 C1763 1.400 . S
C1767 C1766 1.385 . S
C1768 C1766 1.478 . S
C1768 C1770 1.381 . S
C1768 C1774 1.383 . S
C1769 C1765 1.495 . S
C1769 H1775 0.959 . S
C1769 H1776 0.961 . S
C1769 H1777 0.960 . S
C1770 C1768 1.381 . S
C1770 C1771 1.394 . S
C1770 H1778 0.930 . S
C1771 C1770 1.394 . S
C1771 C1772 1.383 . S
C1771 H1779 0.929 . S
C1772 C1771 1.383 . S
C1772 C1773 1.377 . S
C1773 H1757 0.930 . S
C1773 C1772 1.377 . S
C1773 C1774 1.379 . S
C1774 H1758 0.931 . S
C1774 C1768 1.383 . S
C1774 C1773 1.379 . S
H1775 C1769 0.959 . S
H1776 C1769 0.961 . S
H1777 C1769 0.960 . S
H1778 C1770 0.930 . S
H1779 C1771 0.929 . S
H1780 C1788 0.929 . S
H1781 C1790 0.930 . S
H1782 C1792 0.930 . S
H1783 C1795 0.929 . S
H1784 C1798 0.930 . S
H1785 C1800 0.960 . S
H1786 C1800 0.960 . S
H1787 C1800 0.960 . S
C1788 H1780 0.929 . S
C1788 C1789 1.377 . S
C1788 C1790 1.384 . S
C1789 C1788 1.377 . S
C1789 C1795 1.390 . S
C1790 H1781 0.930 . S
C1790 C1788 1.384 . S
C1790 C1791 1.372 . S
C1791 C1790 1.372 . S
C1791 C1792 1.400 . S
C1791 C1796 1.490 . S
C1792 H1782 0.930 . S
C1792 C1791 1.400 . S
C1792 C1795 1.386 . S
H1793 C1809 0.930 . S
H1794 C1810 0.931 . S
C1795 H1783 0.929 . S
C1795 C1789 1.390 . S
C1795 C1792 1.386 . S
C1796 C1791 1.490 . S
C1796 C1798 1.395 . S
C1796 C1799 1.403 . S
H1797 C1803 0.930 . S
C1798 H1784 0.930 . S
C1798 C1796 1.395 . S
C1798 C1801 1.403 . S
C1799 C1796 1.403 . S
C1799 C1800 1.524 . S
C1799 C1803 1.400 . S
C1800 H1785 0.960 . S
C1800 H1786 0.960 . S
C1800 H1787 0.960 . S
C1800 C1799 1.524 . S
C1801 C1798 1.403 . S
C1801 C1802 1.392 . S
C1801 C1805 1.495 . S
C1802 C1801 1.392 . S
C1802 C1803 1.385 . S
C1802 C1804 1.478 . S
C1803 H1797 0.930 . S
C1803 C1799 1.400 . S
C1803 C1802 1.385 . S
C1804 C1802 1.478 . S
C1804 C1806 1.381 . S
C1804 C1810 1.383 . S
C1805 C1801 1.495 . S
C1805 H1811 0.959 . S
C1805 H1812 0.961 . S
C1805 H1813 0.960 . S
C1806 C1804 1.381 . S
C1806 C1807 1.394 . S
C1806 H1814 0.930 . S
C1807 C1806 1.394 . S
C1807 C1808 1.383 . S
C1807 H1815 0.929 . S
C1808 C1807 1.383 . S
C1808 C1809 1.377 . S
C1809 H1793 0.930 . S
C1809 C1808 1.377 . S
C1809 C1810 1.379 . S
C1810 H1794 0.931 . S
C1810 C1804 1.383 . S
C1810 C1809 1.379 . S
H1811 C1805 0.959 . S
H1812 C1805 0.961 . S
H1813 C1805 0.960 . S
H1814 C1806 0.930 . S
H1815 C1807 0.929 . S
H1816 C1824 0.929 . S
H1817 C1826 0.930 . S
H1818 C1828 0.930 . S
H1819 C1831 0.929 . S
H1820 C1834 0.930 . S
H1821 C1836 0.960 . S
H1822 C1836 0.960 . S
H1823 C1836 0.960 . S
C1824 H1816 0.929 . S
C1824 C1825 1.377 . S
C1824 C1826 1.384 . S
C1825 C1824 1.377 . S
C1825 C1831 1.390 . S
C1826 H1817 0.930 . S
C1826 C1824 1.384 . S
C1826 C1827 1.372 . S
C1827 C1826 1.372 . S
C1827 C1828 1.400 . S
C1827 C1832 1.490 . S
C1828 H1818 0.930 . S
C1828 C1827 1.400 . S
C1828 C1831 1.386 . S
H1829 C1845 0.930 . S
H1830 C1846 0.931 . S
C1831 H1819 0.929 . S
C1831 C1825 1.390 . S
C1831 C1828 1.386 . S
C1832 C1827 1.490 . S
C1832 C1834 1.395 . S
C1832 C1835 1.403 . S
H1833 C1839 0.930 . S
C1834 H1820 0.930 . S
C1834 C1832 1.395 . S
C1834 C1837 1.403 . S
C1835 C1832 1.403 . S
C1835 C1836 1.524 . S
C1835 C1839 1.400 . S
C1836 H1821 0.960 . S
C1836 H1822 0.960 . S
C1836 H1823 0.960 . S
C1836 C1835 1.524 . S
C1837 C1834 1.403 . S
C1837 C1838 1.392 . S
C1837 C1841 1.495 . S
C1838 C1837 1.392 . S
C1838 C1839 1.385 . S
C1838 C1840 1.478 . S
C1839 H1833 0.930 . S
C1839 C1835 1.400 . S
C1839 C1838 1.385 . S
C1840 C1838 1.478 . S
C1840 C1842 1.381 . S
C1840 C1846 1.383 . S
C1841 C1837 1.495 . S
C1841 H1847 0.959 . S
C1841 H1848 0.961 . S
C1841 H1849 0.960 . S
C1842 C1840 1.381 . S
C1842 C1843 1.394 . S
C1842 H1850 0.930 . S
C1843 C1842 1.394 . S
C1843 C1844 1.383 . S
C1843 H1851 0.929 . S
C1844 C1843 1.383 . S
C1844 C1845 1.377 . S
C1845 H1829 0.930 . S
C1845 C1844 1.377 . S
C1845 C1846 1.379 . S
C1846 H1830 0.931 . S
C1846 C1840 1.383 . S
C1846 C1845 1.379 . S
H1847 C1841 0.959 . S
H1848 C1841 0.961 . S
H1849 C1841 0.960 . S
H1850 C1842 0.930 . S
H1851 C1843 0.929 . S
H1852 C1860 0.929 . S
H1853 C1862 0.930 . S
H1854 C1864 0.930 . S
H1855 C1867 0.929 . S
H1856 C1870 0.930 . S
H1857 C1872 0.960 . S
H1858 C1872 0.960 . S
H1859 C1872 0.960 . S
C1860 H1852 0.929 . S
C1860 C1861 1.377 . S
C1860 C1862 1.384 . S
C1861 C1860 1.377 . S
C1861 C1867 1.390 . S
C1862 H1853 0.930 . S
C1862 C1860 1.384 . S
C1862 C1863 1.372 . S
C1863 C1862 1.372 . S
C1863 C1864 1.400 . S
C1863 C1868 1.490 . S
C1864 H1854 0.930 . S
C1864 C1863 1.400 . S
C1864 C1867 1.386 . S
H1865 C1881 0.930 . S
H1866 C1882 0.931 . S
C1867 H1855 0.929 . S
C1867 C1861 1.390 . S
C1867 C1864 1.386 . S
C1868 C1863 1.490 . S
C1868 C1870 1.395 . S
C1868 C1871 1.403 . S
H1869 C1875 0.930 . S
C1870 H1856 0.930 . S
C1870 C1868 1.395 . S
C1870 C1873 1.403 . S
C1871 C1868 1.403 . S
C1871 C1872 1.524 . S
C1871 C1875 1.400 . S
C1872 H1857 0.960 . S
C1872 H1858 0.960 . S
C1872 H1859 0.960 . S
C1872 C1871 1.524 . S
C1873 C1870 1.403 . S
C1873 C1874 1.392 . S
C1873 C1877 1.495 . S
C1874 C1873 1.392 . S
C1874 C1875 1.385 . S
C1874 C1876 1.478 . S
C1875 H1869 0.930 . S
C1875 C1871 1.400 . S
C1875 C1874 1.385 . S
C1876 C1874 1.478 . S
C1876 C1878 1.381 . S
C1876 C1882 1.383 . S
C1877 C1873 1.495 . S
C1877 H1883 0.959 . S
C1877 H1884 0.961 . S
C1877 H1885 0.960 . S
C1878 C1876 1.381 . S
C1878 C1879 1.394 . S
C1878 H1886 0.930 . S
C1879 C1878 1.394 . S
C1879 C1880 1.383 . S
C1879 H1887 0.929 . S
C1880 C1879 1.383 . S
C1880 C1881 1.377 . S
C1881 H1865 0.930 . S
C1881 C1880 1.377 . S
C1881 C1882 1.379 . S
C1882 H1866 0.931 . S
C1882 C1876 1.383 . S
C1882 C1881 1.379 . S
H1883 C1877 0.959 . S
H1884 C1877 0.961 . S
H1885 C1877 0.960 . S
H1886 C1878 0.930 . S
H1887 C1879 0.929 . S
H1888 C1896 0.929 . S
H1889 C1898 0.930 . S
H1890 C1900 0.930 . S
H1891 C1903 0.929 . S
H1892 C1906 0.930 . S
H1893 C1908 0.960 . S
H1894 C1908 0.960 . S
H1895 C1908 0.960 . S
C1896 H1888 0.929 . S
C1896 C1897 1.377 . S
C1896 C1898 1.384 . S
C1897 C1896 1.377 . S
C1897 C1903 1.390 . S
C1898 H1889 0.930 . S
C1898 C1896 1.384 . S
C1898 C1899 1.372 . S
C1899 C1898 1.372 . S
C1899 C1900 1.400 . S
C1899 C1904 1.490 . S
C1900 H1890 0.930 . S
C1900 C1899 1.400 . S
C1900 C1903 1.386 . S
H1901 C1917 0.930 . S
H1902 C1918 0.931 . S
C1903 H1891 0.929 . S
C1903 C1897 1.390 . S
C1903 C1900 1.386 . S
C1904 C1899 1.490 . S
C1904 C1906 1.395 . S
C1904 C1907 1.403 . S
H1905 C1911 0.930 . S
C1906 H1892 0.930 . S
C1906 C1904 1.395 . S
C1906 C1909 1.403 1_554 S
C1907 C1904 1.403 . S
C1907 C1908 1.524 . S
C1907 C1911 1.400 1_554 S
C1908 H1893 0.960 . S
C1908 H1894 0.960 . S
C1908 H1895 0.960 . S
C1908 C1907 1.524 . S
C1909 C1906 1.403 1_556 S
C1909 C1910 1.392 . S
C1909 C1913 1.495 . S
C1910 C1909 1.392 . S
C1910 C1911 1.385 . S
C1910 C1912 1.478 . S
C1911 H1905 0.930 . S
C1911 C1907 1.400 1_556 S
C1911 C1910 1.385 . S
C1912 C1910 1.478 . S
C1912 C1914 1.381 . S
C1912 C1918 1.383 . S
C1913 C1909 1.495 . S
C1913 H1919 0.959 . S
C1913 H1920 0.961 . S
C1913 H1921 0.960 . S
C1914 C1912 1.381 . S
C1914 C1915 1.394 . S
C1914 H1922 0.930 . S
C1915 C1914 1.394 . S
C1915 C1916 1.383 . S
C1915 H1923 0.929 . S
C1916 C1915 1.383 . S
C1916 C1917 1.377 . S
C1917 H1901 0.930 . S
C1917 C1916 1.377 . S
C1917 C1918 1.379 . S
C1918 H1902 0.931 . S
C1918 C1912 1.383 . S
C1918 C1917 1.379 . S
H1919 C1913 0.959 . S
H1920 C1913 0.961 . S
H1921 C1913 0.960 . S
H1922 C1914 0.930 . S
H1923 C1915 0.929 . S
H1924 C1932 0.929 . S
H1925 C1934 0.930 . S
H1926 C1936 0.930 . S
H1927 C1939 0.929 . S
H1928 C1942 0.930 . S
H1929 C1944 0.960 . S
H1930 C1944 0.960 . S
H1931 C1944 0.960 . S
C1932 H1924 0.929 . S
C1932 C1933 1.377 . S
C1932 C1934 1.384 . S
C1933 C1932 1.377 . S
C1933 C1939 1.390 . S
C1934 H1925 0.930 . S
C1934 C1932 1.384 . S
C1934 C1935 1.372 . S
C1935 C1934 1.372 . S
C1935 C1936 1.400 . S
C1935 C1940 1.490 . S
C1936 H1926 0.930 . S
C1936 C1935 1.400 . S
C1936 C1939 1.386 . S
H1937 C1953 0.930 . S
H1938 C1954 0.931 . S
C1939 H1927 0.929 . S
C1939 C1933 1.390 . S
C1939 C1936 1.386 . S
C1940 C1935 1.490 . S
C1940 C1942 1.395 . S
C1940 C1943 1.403 . S
H1941 C1947 0.930 . S
C1942 H1928 0.930 . S
C1942 C1940 1.395 . S
C1942 C1945 1.403 1_556 S
C1943 C1940 1.403 . S
C1943 C1944 1.524 . S
C1943 C1947 1.400 1_556 S
C1944 H1929 0.960 . S
C1944 H1930 0.960 . S
C1944 H1931 0.960 . S
C1944 C1943 1.524 . S
C1945 C1942 1.403 1_554 S
C1945 C1946 1.392 . S
C1945 C1949 1.495 . S
C1946 C1945 1.392 . S
C1946 C1947 1.385 . S
C1946 C1948 1.478 . S
C1947 H1941 0.930 . S
C1947 C1943 1.400 1_554 S
C1947 C1946 1.385 . S
C1948 C1946 1.478 . S
C1948 C1950 1.381 . S
C1948 C1954 1.383 . S
C1949 C1945 1.495 . S
C1949 H1955 0.959 . S
C1949 H1956 0.961 . S
C1949 H1957 0.960 . S
C1950 C1948 1.381 . S
C1950 C1951 1.394 . S
C1950 H1958 0.930 . S
C1951 C1950 1.394 . S
C1951 C1952 1.383 . S
C1951 H1959 0.929 . S
C1952 C1951 1.383 . S
C1952 C1953 1.377 . S
C1953 H1937 0.930 . S
C1953 C1952 1.377 . S
C1953 C1954 1.379 . S
C1954 H1938 0.931 . S
C1954 C1948 1.383 . S
C1954 C1953 1.379 . S
H1955 C1949 0.959 . S
H1956 C1949 0.961 . S
H1957 C1949 0.960 . S
H1958 C1950 0.930 . S
H1959 C1951 0.929 . S
H1960 C1968 0.929 . S
H1961 C1970 0.930 . S
H1962 C1972 0.930 . S
H1963 C1975 0.929 . S
H1964 C1978 0.930 . S
H1965 C1980 0.960 . S
H1966 C1980 0.960 . S
H1967 C1980 0.960 . S
C1968 H1960 0.929 . S
C1968 C1969 1.377 . S
C1968 C1970 1.384 . S
C1969 C1968 1.377 . S
C1969 C1975 1.390 . S
C1970 H1961 0.930 . S
C1970 C1968 1.384 . S
C1970 C1971 1.372 . S
C1971 C1970 1.372 . S
C1971 C1972 1.400 . S
C1971 C1976 1.490 . S
C1972 H1962 0.930 . S
C1972 C1971 1.400 . S
C1972 C1975 1.386 . S
H1973 C1989 0.930 . S
H1974 C1990 0.931 . S
C1975 H1963 0.929 . S
C1975 C1969 1.390 . S
C1975 C1972 1.386 . S
C1976 C1971 1.490 . S
C1976 C1978 1.395 . S
C1976 C1979 1.403 . S
H1977 C1983 0.930 . S
C1978 H1964 0.930 . S
C1978 C1976 1.395 . S
C1978 C1981 1.403 1_554 S
C1979 C1976 1.403 . S
C1979 C1980 1.524 . S
C1979 C1983 1.400 1_554 S
C1980 H1965 0.960 . S
C1980 H1966 0.960 . S
C1980 H1967 0.960 . S
C1980 C1979 1.524 . S
C1981 C1978 1.403 1_556 S
C1981 C1982 1.392 . S
C1981 C1985 1.495 . S
C1982 C1981 1.392 . S
C1982 C1983 1.385 . S
C1982 C1984 1.478 . S
C1983 H1977 0.930 . S
C1983 C1979 1.400 1_556 S
C1983 C1982 1.385 . S
C1984 C1982 1.478 . S
C1984 C1986 1.381 . S
C1984 C1990 1.383 . S
C1985 C1981 1.495 . S
C1985 H1991 0.959 . S
C1985 H1992 0.961 . S
C1985 H1993 0.960 . S
C1986 C1984 1.381 . S
C1986 C1987 1.394 . S
C1986 H1994 0.930 . S
C1987 C1986 1.394 . S
C1987 C1988 1.383 . S
C1987 H1995 0.929 . S
C1988 C1987 1.383 . S
C1988 C1989 1.377 . S
C1989 H1973 0.930 . S
C1989 C1988 1.377 . S
C1989 C1990 1.379 . S
C1990 H1974 0.931 . S
C1990 C1984 1.383 . S
C1990 C1989 1.379 . S
H1991 C1985 0.959 . S
H1992 C1985 0.961 . S
H1993 C1985 0.960 . S
H1994 C1986 0.930 . S
H1995 C1987 0.929 . S
H1996 C2004 0.929 . S
H1997 C2006 0.930 . S
H1998 C2008 0.930 . S
H1999 C2011 0.929 . S
H2000 C2014 0.930 . S
H2001 C2016 0.960 . S
H2002 C2016 0.960 . S
H2003 C2016 0.960 . S
C2004 H1996 0.929 . S
C2004 C2005 1.377 . S
C2004 C2006 1.384 . S
C2005 C2004 1.377 . S
C2005 C2011 1.390 . S
C2006 H1997 0.930 . S
C2006 C2004 1.384 . S
C2006 C2007 1.372 . S
C2007 C2006 1.372 . S
C2007 C2008 1.400 . S
C2007 C2012 1.490 . S
C2008 H1998 0.930 . S
C2008 C2007 1.400 . S
C2008 C2011 1.386 . S
H2009 C2025 0.930 . S
H2010 C2026 0.931 . S
C2011 H1999 0.929 . S
C2011 C2005 1.390 . S
C2011 C2008 1.386 . S
C2012 C2007 1.490 . S
C2012 C2014 1.395 . S
C2012 C2015 1.403 . S
H2013 C2019 0.930 . S
C2014 H2000 0.930 . S
C2014 C2012 1.395 . S
C2014 C2017 1.403 1_554 S
C2015 C2012 1.403 . S
C2015 C2016 1.524 . S
C2015 C2019 1.400 1_554 S
C2016 H2001 0.960 . S
C2016 H2002 0.960 . S
C2016 H2003 0.960 . S
C2016 C2015 1.524 . S
C2017 C2014 1.403 1_556 S
C2017 C2018 1.392 . S
C2017 C2021 1.495 . S
C2018 C2017 1.392 . S
C2018 C2019 1.385 . S
C2018 C2020 1.478 . S
C2019 H2013 0.930 . S
C2019 C2015 1.400 1_556 S
C2019 C2018 1.385 . S
C2020 C2018 1.478 . S
C2020 C2022 1.381 . S
C2020 C2026 1.383 . S
C2021 C2017 1.495 . S
C2021 H2027 0.959 . S
C2021 H2028 0.961 . S
C2021 H2029 0.960 . S
C2022 C2020 1.381 . S
C2022 C2023 1.394 . S
C2022 H2030 0.930 . S
C2023 C2022 1.394 . S
C2023 C2024 1.383 . S
C2023 H2031 0.929 . S
C2024 C2023 1.383 . S
C2024 C2025 1.377 . S
C2025 H2009 0.930 . S
C2025 C2024 1.377 . S
C2025 C2026 1.379 . S
C2026 H2010 0.931 . S
C2026 C2020 1.383 . S
C2026 C2025 1.379 . S
H2027 C2021 0.959 . S
H2028 C2021 0.961 . S
H2029 C2021 0.960 . S
H2030 C2022 0.930 . S
H2031 C2023 0.929 . S
H2032 C2040 0.929 . S
H2033 C2042 0.930 . S
H2034 C2044 0.930 . S
H2035 C2047 0.929 . S
H2036 C2050 0.930 . S
H2037 C2052 0.960 . S
H2038 C2052 0.960 . S
H2039 C2052 0.960 . S
C2040 H2032 0.929 . S
C2040 C2041 1.377 . S
C2040 C2042 1.384 . S
C2041 C2040 1.377 . S
C2041 C2047 1.390 . S
C2042 H2033 0.930 . S
C2042 C2040 1.384 . S
C2042 C2043 1.372 . S
C2043 C2042 1.372 . S
C2043 C2044 1.400 . S
C2043 C2048 1.490 . S
C2044 H2034 0.930 . S
C2044 C2043 1.400 . S
C2044 C2047 1.386 . S
H2045 C2061 0.930 . S
H2046 C2062 0.931 . S
C2047 H2035 0.929 . S
C2047 C2041 1.390 . S
C2047 C2044 1.386 . S
C2048 C2043 1.490 . S
C2048 C2050 1.395 . S
C2048 C2051 1.403 . S
H2049 C2055 0.930 . S
C2050 H2036 0.930 . S
C2050 C2048 1.395 . S
C2050 C2053 1.403 1_554 S
C2051 C2048 1.403 . S
C2051 C2052 1.524 . S
C2051 C2055 1.400 1_554 S
C2052 H2037 0.960 . S
C2052 H2038 0.960 . S
C2052 H2039 0.960 . S
C2052 C2051 1.524 . S
C2053 C2050 1.403 1_556 S
C2053 C2054 1.392 . S
C2053 C2057 1.495 . S
C2054 C2053 1.392 . S
C2054 C2055 1.385 . S
C2054 C2056 1.478 . S
C2055 H2049 0.930 . S
C2055 C2051 1.400 1_556 S
C2055 C2054 1.385 . S
C2056 C2054 1.478 . S
C2056 C2058 1.381 . S
C2056 C2062 1.383 . S
C2057 C2053 1.495 . S
C2057 H2063 0.959 . S
C2057 H2064 0.961 . S
C2057 H2065 0.960 . S
C2058 C2056 1.381 . S
C2058 C2059 1.394 . S
C2058 H2066 0.930 . S
C2059 C2058 1.394 . S
C2059 C2060 1.383 . S
C2059 H2067 0.929 . S
C2060 C2059 1.383 . S
C2060 C2061 1.377 . S
C2061 H2045 0.930 . S
C2061 C2060 1.377 . S
C2061 C2062 1.379 . S
C2062 H2046 0.931 . S
C2062 C2056 1.383 . S
C2062 C2061 1.379 . S
H2063 C2057 0.959 . S
H2064 C2057 0.961 . S
H2065 C2057 0.960 . S
H2066 C2058 0.930 . S
H2067 C2059 0.929 . S
H2068 C2076 0.929 . S
H2069 C2078 0.930 . S
H2070 C2080 0.930 . S
H2071 C2083 0.929 . S
H2072 C2086 0.930 . S
H2073 C2088 0.960 . S
H2074 C2088 0.960 . S
H2075 C2088 0.960 . S
C2076 H2068 0.929 . S
C2076 C2077 1.377 . S
C2076 C2078 1.384 . S
C2077 C2076 1.377 . S
C2077 C2083 1.390 . S
C2078 H2069 0.930 . S
C2078 C2076 1.384 . S
C2078 C2079 1.372 . S
C2079 C2078 1.372 . S
C2079 C2080 1.400 . S
C2079 C2084 1.490 . S
C2080 H2070 0.930 . S
C2080 C2079 1.400 . S
C2080 C2083 1.386 . S
H2081 C2097 0.930 . S
H2082 C2098 0.931 . S
C2083 H2071 0.929 . S
C2083 C2077 1.390 . S
C2083 C2080 1.386 . S
C2084 C2079 1.490 . S
C2084 C2086 1.395 . S
C2084 C2087 1.403 . S
H2085 C2091 0.930 . S
C2086 H2072 0.930 . S
C2086 C2084 1.395 . S
C2086 C2089 1.403 1_554 S
C2087 C2084 1.403 . S
C2087 C2088 1.524 . S
C2087 C2091 1.400 1_554 S
C2088 H2073 0.960 . S
C2088 H2074 0.960 . S
C2088 H2075 0.960 . S
C2088 C2087 1.524 . S
C2089 C2086 1.403 1_556 S
C2089 C2090 1.392 . S
C2089 C2093 1.495 . S
C2090 C2089 1.392 . S
C2090 C2091 1.385 . S
C2090 C2092 1.478 . S
C2091 H2085 0.930 . S
C2091 C2087 1.400 1_556 S
C2091 C2090 1.385 . S
C2092 C2090 1.478 . S
C2092 C2094 1.381 . S
C2092 C2098 1.383 . S
C2093 C2089 1.495 . S
C2093 H2099 0.959 . S
C2093 H2100 0.961 . S
C2093 H2101 0.960 . S
C2094 C2092 1.381 . S
C2094 C2095 1.394 . S
C2094 H2102 0.930 . S
C2095 C2094 1.394 . S
C2095 C2096 1.383 . S
C2095 H2103 0.929 . S
C2096 C2095 1.383 . S
C2096 C2097 1.377 . S
C2097 H2081 0.930 . S
C2097 C2096 1.377 . S
C2097 C2098 1.379 . S
C2098 H2082 0.931 . S
C2098 C2092 1.383 . S
C2098 C2097 1.379 . S
H2099 C2093 0.959 . S
H2100 C2093 0.961 . S
H2101 C2093 0.960 . S
H2102 C2094 0.930 . S
H2103 C2095 0.929 . S
H2104 C2112 0.929 . S
H2105 C2114 0.930 . S
H2106 C2116 0.930 . S
H2107 C2119 0.929 . S
H2108 C2122 0.930 . S
H2109 C2124 0.960 . S
H2110 C2124 0.960 . S
H2111 C2124 0.960 . S
C2112 H2104 0.929 . S
C2112 C2113 1.377 . S
C2112 C2114 1.384 . S
C2113 C2112 1.377 . S
C2113 C2119 1.390 . S
C2114 H2105 0.930 . S
C2114 C2112 1.384 . S
C2114 C2115 1.372 . S
C2115 C2114 1.372 . S
C2115 C2116 1.400 . S
C2115 C2120 1.490 . S
C2116 H2106 0.930 . S
C2116 C2115 1.400 . S
C2116 C2119 1.386 . S
H2117 C2133 0.930 . S
H2118 C2134 0.931 . S
C2119 H2107 0.929 . S
C2119 C2113 1.390 . S
C2119 C2116 1.386 . S
C2120 C2115 1.490 . S
C2120 C2122 1.395 . S
C2120 C2123 1.403 . S
H2121 C2127 0.930 . S
C2122 H2108 0.930 . S
C2122 C2120 1.395 . S
C2122 C2125 1.403 1_556 S
C2123 C2120 1.403 . S
C2123 C2124 1.524 . S
C2123 C2127 1.400 1_556 S
C2124 H2109 0.960 . S
C2124 H2110 0.960 . S
C2124 H2111 0.960 . S
C2124 C2123 1.524 . S
C2125 C2122 1.403 1_554 S
C2125 C2126 1.392 . S
C2125 C2129 1.495 . S
C2126 C2125 1.392 . S
C2126 C2127 1.385 . S
C2126 C2128 1.478 . S
C2127 H2121 0.930 . S
C2127 C2123 1.400 1_554 S
C2127 C2126 1.385 . S
C2128 C2126 1.478 . S
C2128 C2130 1.381 . S
C2128 C2134 1.383 . S
C2129 C2125 1.495 . S
C2129 H2135 0.959 . S
C2129 H2136 0.961 . S
C2129 H2137 0.960 . S
C2130 C2128 1.381 . S
C2130 C2131 1.394 . S
C2130 H2138 0.930 . S
C2131 C2130 1.394 . S
C2131 C2132 1.383 . S
C2131 H2139 0.929 . S
C2132 C2131 1.383 . S
C2132 C2133 1.377 . S
C2133 H2117 0.930 . S
C2133 C2132 1.377 . S
C2133 C2134 1.379 . S
C2134 H2118 0.931 . S
C2134 C2128 1.383 . S
C2134 C2133 1.379 . S
H2135 C2129 0.959 . S
H2136 C2129 0.961 . S
H2137 C2129 0.960 . S
H2138 C2130 0.930 . S
H2139 C2131 0.929 . S
H2140 C2148 0.929 . S
H2141 C2150 0.930 . S
H2142 C2152 0.930 . S
H2143 C2155 0.929 . S
H2144 C2158 0.930 . S
H2145 C2160 0.960 . S
H2146 C2160 0.960 . S
H2147 C2160 0.960 . S
C2148 H2140 0.929 . S
C2148 C2149 1.377 . S
C2148 C2150 1.384 . S
C2149 C2148 1.377 . S
C2149 C2155 1.390 . S
C2150 H2141 0.930 . S
C2150 C2148 1.384 . S
C2150 C2151 1.372 . S
C2151 C2150 1.372 . S
C2151 C2152 1.400 . S
C2151 C2156 1.490 . S
C2152 H2142 0.930 . S
C2152 C2151 1.400 . S
C2152 C2155 1.386 . S
H2153 C2169 0.930 . S
H2154 C2170 0.931 . S
C2155 H2143 0.929 . S
C2155 C2149 1.390 . S
C2155 C2152 1.386 . S
C2156 C2151 1.490 . S
C2156 C2158 1.395 . S
C2156 C2159 1.403 . S
H2157 C2163 0.930 . S
C2158 H2144 0.930 . S
C2158 C2156 1.395 . S
C2158 C2161 1.403 1_556 S
C2159 C2156 1.403 . S
C2159 C2160 1.524 . S
C2159 C2163 1.400 1_556 S
C2160 H2145 0.960 . S
C2160 H2146 0.960 . S
C2160 H2147 0.960 . S
C2160 C2159 1.524 . S
C2161 C2158 1.403 1_554 S
C2161 C2162 1.392 . S
C2161 C2165 1.495 . S
C2162 C2161 1.392 . S
C2162 C2163 1.385 . S
C2162 C2164 1.478 . S
C2163 H2157 0.930 . S
C2163 C2159 1.400 1_554 S
C2163 C2162 1.385 . S
C2164 C2162 1.478 . S
C2164 C2166 1.381 . S
C2164 C2170 1.383 . S
C2165 C2161 1.495 . S
C2165 H2171 0.959 . S
C2165 H2172 0.961 . S
C2165 H2173 0.960 . S
C2166 C2164 1.381 . S
C2166 C2167 1.394 . S
C2166 H2174 0.930 . S
C2167 C2166 1.394 . S
C2167 C2168 1.383 . S
C2167 H2175 0.929 . S
C2168 C2167 1.383 . S
C2168 C2169 1.377 . S
C2169 H2153 0.930 . S
C2169 C2168 1.377 . S
C2169 C2170 1.379 . S
C2170 H2154 0.931 . S
C2170 C2164 1.383 . S
C2170 C2169 1.379 . S
H2171 C2165 0.959 . S
H2172 C2165 0.961 . S
H2173 C2165 0.960 . S
H2174 C2166 0.930 . S
H2175 C2167 0.929 . S
H2176 C2184 0.929 . S
H2177 C2186 0.930 . S
H2178 C2188 0.930 . S
H2179 C2191 0.929 . S
H2180 C2194 0.930 . S
H2181 C2196 0.960 . S
H2182 C2196 0.960 . S
H2183 C2196 0.960 . S
C2184 H2176 0.929 . S
C2184 C2185 1.377 . S
C2184 C2186 1.384 . S
C2185 C2184 1.377 . S
C2185 C2191 1.390 . S
C2186 H2177 0.930 . S
C2186 C2184 1.384 . S
C2186 C2187 1.372 . S
C2187 C2186 1.372 . S
C2187 C2188 1.400 . S
C2187 C2192 1.490 . S
C2188 H2178 0.930 . S
C2188 C2187 1.400 . S
C2188 C2191 1.386 . S
H2189 C2205 0.930 . S
H2190 C2206 0.931 . S
C2191 H2179 0.929 . S
C2191 C2185 1.390 . S
C2191 C2188 1.386 . S
C2192 C2187 1.490 . S
C2192 C2194 1.395 . S
C2192 C2195 1.403 . S
H2193 C2199 0.930 . S
C2194 H2180 0.930 . S
C2194 C2192 1.395 . S
C2194 C2197 1.403 . S
C2195 C2192 1.403 . S
C2195 C2196 1.524 . S
C2195 C2199 1.400 . S
C2196 H2181 0.960 . S
C2196 H2182 0.960 . S
C2196 H2183 0.960 . S
C2196 C2195 1.524 . S
C2197 C2194 1.403 . S
C2197 C2198 1.392 . S
C2197 C2201 1.495 . S
C2198 C2197 1.392 . S
C2198 C2199 1.385 . S
C2198 C2200 1.478 . S
C2199 H2193 0.930 . S
C2199 C2195 1.400 . S
C2199 C2198 1.385 . S
C2200 C2198 1.478 . S
C2200 C2202 1.381 . S
C2200 C2206 1.383 . S
C2201 C2197 1.495 . S
C2201 H2207 0.959 . S
C2201 H2208 0.961 . S
C2201 H2209 0.960 . S
C2202 C2200 1.381 . S
C2202 C2203 1.394 . S
C2202 H2210 0.930 . S
C2203 C2202 1.394 . S
C2203 C2204 1.383 . S
C2203 H2211 0.929 . S
C2204 C2203 1.383 . S
C2204 C2205 1.377 . S
C2205 H2189 0.930 . S
C2205 C2204 1.377 . S
C2205 C2206 1.379 . S
C2206 H2190 0.931 . S
C2206 C2200 1.383 . S
C2206 C2205 1.379 . S
H2207 C2201 0.959 . S
H2208 C2201 0.961 . S
H2209 C2201 0.960 . S
H2210 C2202 0.930 . S
H2211 C2203 0.929 . S
H2212 C2220 0.929 . S
H2213 C2222 0.930 . S
H2214 C2224 0.930 . S
H2215 C2227 0.929 . S
H2216 C2230 0.930 . S
H2217 C2232 0.960 . S
H2218 C2232 0.960 . S
H2219 C2232 0.960 . S
C2220 H2212 0.929 . S
C2220 C2221 1.377 . S
C2220 C2222 1.384 . S
C2221 C2220 1.377 . S
C2221 C2227 1.390 . S
C2222 H2213 0.930 . S
C2222 C2220 1.384 . S
C2222 C2223 1.372 . S
C2223 C2222 1.372 . S
C2223 C2224 1.400 . S
C2223 C2228 1.490 . S
C2224 H2214 0.930 . S
C2224 C2223 1.400 . S
C2224 C2227 1.386 . S
H2225 C2241 0.930 . S
H2226 C2242 0.931 . S
C2227 H2215 0.929 . S
C2227 C2221 1.390 . S
C2227 C2224 1.386 . S
C2228 C2223 1.490 . S
C2228 C2230 1.395 . S
C2228 C2231 1.403 . S
H2229 C2235 0.930 . S
C2230 H2216 0.930 . S
C2230 C2228 1.395 . S
C2230 C2233 1.403 . S
C2231 C2228 1.403 . S
C2231 C2232 1.524 . S
C2231 C2235 1.400 . S
C2232 H2217 0.960 . S
C2232 H2218 0.960 . S
C2232 H2219 0.960 . S
C2232 C2231 1.524 . S
C2233 C2230 1.403 . S
C2233 C2234 1.392 . S
C2233 C2237 1.495 . S
C2234 C2233 1.392 . S
C2234 C2235 1.385 . S
C2234 C2236 1.478 . S
C2235 H2229 0.930 . S
C2235 C2231 1.400 . S
C2235 C2234 1.385 . S
C2236 C2234 1.478 . S
C2236 C2238 1.381 . S
C2236 C2242 1.383 . S
C2237 C2233 1.495 . S
C2237 H2243 0.959 . S
C2237 H2244 0.961 . S
C2237 H2245 0.960 . S
C2238 C2236 1.381 . S
C2238 C2239 1.394 . S
C2238 H2246 0.930 . S
C2239 C2238 1.394 . S
C2239 C2240 1.383 . S
C2239 H2247 0.929 . S
C2240 C2239 1.383 . S
C2240 C2241 1.377 . S
C2241 H2225 0.930 . S
C2241 C2240 1.377 . S
C2241 C2242 1.379 . S
C2242 H2226 0.931 . S
C2242 C2236 1.383 . S
C2242 C2241 1.379 . S
H2243 C2237 0.959 . S
H2244 C2237 0.961 . S
H2245 C2237 0.960 . S
H2246 C2238 0.930 . S
H2247 C2239 0.929 . S
H2248 C2256 0.929 . S
H2249 C2258 0.930 . S
H2250 C2260 0.930 . S
H2251 C2263 0.929 . S
H2252 C2266 0.930 . S
H2253 C2268 0.960 . S
H2254 C2268 0.960 . S
H2255 C2268 0.960 . S
C2256 H2248 0.929 . S
C2256 C2257 1.377 . S
C2256 C2258 1.384 . S
C2257 C2256 1.377 . S
C2257 C2263 1.390 . S
C2258 H2249 0.930 . S
C2258 C2256 1.384 . S
C2258 C2259 1.372 . S
C2259 C2258 1.372 . S
C2259 C2260 1.400 . S
C2259 C2264 1.490 . S
C2260 H2250 0.930 . S
C2260 C2259 1.400 . S
C2260 C2263 1.386 . S
H2261 C2277 0.930 . S
H2262 C2278 0.931 . S
C2263 H2251 0.929 . S
C2263 C2257 1.390 . S
C2263 C2260 1.386 . S
C2264 C2259 1.490 . S
C2264 C2266 1.395 . S
C2264 C2267 1.403 . S
H2265 C2271 0.930 . S
C2266 H2252 0.930 . S
C2266 C2264 1.395 . S
C2266 C2269 1.403 . S
C2267 C2264 1.403 . S
C2267 C2268 1.524 . S
C2267 C2271 1.400 . S
C2268 H2253 0.960 . S
C2268 H2254 0.960 . S
C2268 H2255 0.960 . S
C2268 C2267 1.524 . S
C2269 C2266 1.403 . S
C2269 C2270 1.392 . S
C2269 C2273 1.495 . S
C2270 C2269 1.392 . S
C2270 C2271 1.385 . S
C2270 C2272 1.478 . S
C2271 H2265 0.930 . S
C2271 C2267 1.400 . S
C2271 C2270 1.385 . S
C2272 C2270 1.478 . S
C2272 C2274 1.381 . S
C2272 C2278 1.383 . S
C2273 C2269 1.495 . S
C2273 H2279 0.959 . S
C2273 H2280 0.961 . S
C2273 H2281 0.960 . S
C2274 C2272 1.381 . S
C2274 C2275 1.394 . S
C2274 H2282 0.930 . S
C2275 C2274 1.394 . S
C2275 C2276 1.383 . S
C2275 H2283 0.929 . S
C2276 C2275 1.383 . S
C2276 C2277 1.377 . S
C2277 H2261 0.930 . S
C2277 C2276 1.377 . S
C2277 C2278 1.379 . S
C2278 H2262 0.931 . S
C2278 C2272 1.383 . S
C2278 C2277 1.379 . S
H2279 C2273 0.959 . S
H2280 C2273 0.961 . S
H2281 C2273 0.960 . S
H2282 C2274 0.930 . S
H2283 C2275 0.929 . S
H2284 C2292 0.929 . S
H2285 C2294 0.930 . S
H2286 C2296 0.930 . S
H2287 C2299 0.929 . S
H2288 C2302 0.930 . S
H2289 C2304 0.960 . S
H2290 C2304 0.960 . S
H2291 C2304 0.960 . S
C2292 H2284 0.929 . S
C2292 C2293 1.377 . S
C2292 C2294 1.384 . S
C2293 C2292 1.377 . S
C2293 C2299 1.390 . S
C2294 H2285 0.930 . S
C2294 C2292 1.384 . S
C2294 C2295 1.372 . S
C2295 C2294 1.372 . S
C2295 C2296 1.400 . S
C2295 C2300 1.490 . S
C2296 H2286 0.930 . S
C2296 C2295 1.400 . S
C2296 C2299 1.386 . S
H2297 C2313 0.930 . S
H2298 C2314 0.931 . S
C2299 H2287 0.929 . S
C2299 C2293 1.390 . S
C2299 C2296 1.386 . S
C2300 C2295 1.490 . S
C2300 C2302 1.395 . S
C2300 C2303 1.403 . S
H2301 C2307 0.930 . S
C2302 H2288 0.930 . S
C2302 C2300 1.395 . S
C2302 C2305 1.403 . S
C2303 C2300 1.403 . S
C2303 C2304 1.524 . S
C2303 C2307 1.400 . S
C2304 H2289 0.960 . S
C2304 H2290 0.960 . S
C2304 H2291 0.960 . S
C2304 C2303 1.524 . S
C2305 C2302 1.403 . S
C2305 C2306 1.392 . S
C2305 C2309 1.495 . S
C2306 C2305 1.392 . S
C2306 C2307 1.385 . S
C2306 C2308 1.478 . S
C2307 H2301 0.930 . S
C2307 C2303 1.400 . S
C2307 C2306 1.385 . S
C2308 C2306 1.478 . S
C2308 C2310 1.381 . S
C2308 C2314 1.383 . S
C2309 C2305 1.495 . S
C2309 H2315 0.959 . S
C2309 H2316 0.961 . S
C2309 H2317 0.960 . S
C2310 C2308 1.381 . S
C2310 C2311 1.394 . S
C2310 H2318 0.930 . S
C2311 C2310 1.394 . S
C2311 C2312 1.383 . S
C2311 H2319 0.929 . S
C2312 C2311 1.383 . S
C2312 C2313 1.377 . S
C2313 H2297 0.930 . S
C2313 C2312 1.377 . S
C2313 C2314 1.379 . S
C2314 H2298 0.931 . S
C2314 C2308 1.383 . S
C2314 C2313 1.379 . S
H2315 C2309 0.959 . S
H2316 C2309 0.961 . S
H2317 C2309 0.960 . S
H2318 C2310 0.930 . S
H2319 C2311 0.929 . S
H2320 C2328 0.929 . S
H2321 C2330 0.930 . S
H2322 C2332 0.930 . S
H2323 C2335 0.929 . S
H2324 C2338 0.930 . S
H2325 C2340 0.960 . S
H2326 C2340 0.960 . S
H2327 C2340 0.960 . S
C2328 H2320 0.929 . S
C2328 C2329 1.377 . S
C2328 C2330 1.384 . S
C2329 C2328 1.377 . S
C2329 C2335 1.390 . S
C2330 H2321 0.930 . S
C2330 C2328 1.384 . S
C2330 C2331 1.372 . S
C2331 C2330 1.372 . S
C2331 C2332 1.400 . S
C2331 C2336 1.490 . S
C2332 H2322 0.930 . S
C2332 C2331 1.400 . S
C2332 C2335 1.386 . S
H2333 C2349 0.930 . S
H2334 C2350 0.931 . S
C2335 H2323 0.929 . S
C2335 C2329 1.390 . S
C2335 C2332 1.386 . S
C2336 C2331 1.490 . S
C2336 C2338 1.395 . S
C2336 C2339 1.403 . S
H2337 C2343 0.930 . S
C2338 H2324 0.930 . S
C2338 C2336 1.395 . S
C2338 C2341 1.403 . S
C2339 C2336 1.403 . S
C2339 C2340 1.524 . S
C2339 C2343 1.400 . S
C2340 H2325 0.960 . S
C2340 H2326 0.960 . S
C2340 H2327 0.960 . S
C2340 C2339 1.524 . S
C2341 C2338 1.403 . S
C2341 C2342 1.392 . S
C2341 C2345 1.495 . S
C2342 C2341 1.392 . S
C2342 C2343 1.385 . S
C2342 C2344 1.478 . S
C2343 H2337 0.930 . S
C2343 C2339 1.400 . S
C2343 C2342 1.385 . S
C2344 C2342 1.478 . S
C2344 C2346 1.381 . S
C2344 C2350 1.383 . S
C2345 C2341 1.495 . S
C2345 H2351 0.959 . S
C2345 H2352 0.961 . S
C2345 H2353 0.960 . S
C2346 C2344 1.381 . S
C2346 C2347 1.394 . S
C2346 H2354 0.930 . S
C2347 C2346 1.394 . S
C2347 C2348 1.383 . S
C2347 H2355 0.929 . S
C2348 C2347 1.383 . S
C2348 C2349 1.377 . S
C2349 H2333 0.930 . S
C2349 C2348 1.377 . S
C2349 C2350 1.379 . S
C2350 H2334 0.931 . S
C2350 C2344 1.383 . S
C2350 C2349 1.379 . S
H2351 C2345 0.959 . S
H2352 C2345 0.961 . S
H2353 C2345 0.960 . S
H2354 C2346 0.930 . S
H2355 C2347 0.929 . S
H2356 C2364 0.929 . S
H2357 C2366 0.930 . S
H2358 C2368 0.930 . S
H2359 C2371 0.929 . S
H2360 C2374 0.930 . S
H2361 C2376 0.960 . S
H2362 C2376 0.960 . S
H2363 C2376 0.960 . S
C2364 H2356 0.929 . S
C2364 C2365 1.377 . S
C2364 C2366 1.384 . S
C2365 C2364 1.377 . S
C2365 C2371 1.390 . S
C2366 H2357 0.930 . S
C2366 C2364 1.384 . S
C2366 C2367 1.372 . S
C2367 C2366 1.372 . S
C2367 C2368 1.400 . S
C2367 C2372 1.490 . S
C2368 H2358 0.930 . S
C2368 C2367 1.400 . S
C2368 C2371 1.386 . S
H2369 C2385 0.930 . S
H2370 C2386 0.931 . S
C2371 H2359 0.929 . S
C2371 C2365 1.390 . S
C2371 C2368 1.386 . S
C2372 C2367 1.490 . S
C2372 C2374 1.395 . S
C2372 C2375 1.403 . S
H2373 C2379 0.930 . S
C2374 H2360 0.930 . S
C2374 C2372 1.395 . S
C2374 C2377 1.403 . S
C2375 C2372 1.403 . S
C2375 C2376 1.524 . S
C2375 C2379 1.400 . S
C2376 H2361 0.960 . S
C2376 H2362 0.960 . S
C2376 H2363 0.960 . S
C2376 C2375 1.524 . S
C2377 C2374 1.403 . S
C2377 C2378 1.392 . S
C2377 C2381 1.495 . S
C2378 C2377 1.392 . S
C2378 C2379 1.385 . S
C2378 C2380 1.478 . S
C2379 H2373 0.930 . S
C2379 C2375 1.400 . S
C2379 C2378 1.385 . S
C2380 C2378 1.478 . S
C2380 C2382 1.381 . S
C2380 C2386 1.383 . S
C2381 C2377 1.495 . S
C2381 H2387 0.959 . S
C2381 H2388 0.961 . S
C2381 H2389 0.960 . S
C2382 C2380 1.381 . S
C2382 C2383 1.394 . S
C2382 H2390 0.930 . S
C2383 C2382 1.394 . S
C2383 C2384 1.383 . S
C2383 H2391 0.929 . S
C2384 C2383 1.383 . S
C2384 C2385 1.377 . S
C2385 H2369 0.930 . S
C2385 C2384 1.377 . S
C2385 C2386 1.379 . S
C2386 H2370 0.931 . S
C2386 C2380 1.383 . S
C2386 C2385 1.379 . S
H2387 C2381 0.959 . S
H2388 C2381 0.961 . S
H2389 C2381 0.960 . S
H2390 C2382 0.930 . S
H2391 C2383 0.929 . S
H2392 C2400 0.929 . S
H2393 C2402 0.930 . S
H2394 C2404 0.930 . S
H2395 C2407 0.929 . S
H2396 C2410 0.930 . S
H2397 C2412 0.960 . S
H2398 C2412 0.960 . S
H2399 C2412 0.960 . S
C2400 H2392 0.929 . S
C2400 C2401 1.377 . S
C2400 C2402 1.384 . S
C2401 C2400 1.377 . S
C2401 C2407 1.390 . S
C2402 H2393 0.930 . S
C2402 C2400 1.384 . S
C2402 C2403 1.372 . S
C2403 C2402 1.372 . S
C2403 C2404 1.400 . S
C2403 C2408 1.490 . S
C2404 H2394 0.930 . S
C2404 C2403 1.400 . S
C2404 C2407 1.386 . S
H2405 C2421 0.930 . S
H2406 C2422 0.931 . S
C2407 H2395 0.929 . S
C2407 C2401 1.390 . S
C2407 C2404 1.386 . S
C2408 C2403 1.490 . S
C2408 C2410 1.395 . S
C2408 C2411 1.403 . S
H2409 C2415 0.930 . S
C2410 H2396 0.930 . S
C2410 C2408 1.395 . S
C2410 C2413 1.403 . S
C2411 C2408 1.403 . S
C2411 C2412 1.524 . S
C2411 C2415 1.400 . S
C2412 H2397 0.960 . S
C2412 H2398 0.960 . S
C2412 H2399 0.960 . S
C2412 C2411 1.524 . S
C2413 C2410 1.403 . S
C2413 C2414 1.392 . S
C2413 C2417 1.495 . S
C2414 C2413 1.392 . S
C2414 C2415 1.385 . S
C2414 C2416 1.478 . S
C2415 H2409 0.930 . S
C2415 C2411 1.400 . S
C2415 C2414 1.385 . S
C2416 C2414 1.478 . S
C2416 C2418 1.381 . S
C2416 C2422 1.383 . S
C2417 C2413 1.495 . S
C2417 H2423 0.959 . S
C2417 H2424 0.961 . S
C2417 H2425 0.960 . S
C2418 C2416 1.381 . S
C2418 C2419 1.394 . S
C2418 H2426 0.930 . S
C2419 C2418 1.394 . S
C2419 C2420 1.383 . S
C2419 H2427 0.929 . S
C2420 C2419 1.383 . S
C2420 C2421 1.377 . S
C2421 H2405 0.930 . S
C2421 C2420 1.377 . S
C2421 C2422 1.379 . S
C2422 H2406 0.931 . S
C2422 C2416 1.383 . S
C2422 C2421 1.379 . S
H2423 C2417 0.959 . S
H2424 C2417 0.961 . S
H2425 C2417 0.960 . S
H2426 C2418 0.930 . S
H2427 C2419 0.929 . S
H2428 C2436 0.929 . S
H2429 C2438 0.930 . S
H2430 C2440 0.930 . S
H2431 C2443 0.929 . S
H2432 C2446 0.930 . S
H2433 C2448 0.960 . S
H2434 C2448 0.960 . S
H2435 C2448 0.960 . S
C2436 H2428 0.929 . S
C2436 C2437 1.377 . S
C2436 C2438 1.384 . S
C2437 C2436 1.377 . S
C2437 C2443 1.390 . S
C2438 H2429 0.930 . S
C2438 C2436 1.384 . S
C2438 C2439 1.372 . S
C2439 C2438 1.372 . S
C2439 C2440 1.400 . S
C2439 C2444 1.490 . S
C2440 H2430 0.930 . S
C2440 C2439 1.400 . S
C2440 C2443 1.386 . S
H2441 C2457 0.930 . S
H2442 C2458 0.931 . S
C2443 H2431 0.929 . S
C2443 C2437 1.390 . S
C2443 C2440 1.386 . S
C2444 C2439 1.490 . S
C2444 C2446 1.395 . S
C2444 C2447 1.403 . S
H2445 C2451 0.930 . S
C2446 H2432 0.930 . S
C2446 C2444 1.395 . S
C2446 C2449 1.403 . S
C2447 C2444 1.403 . S
C2447 C2448 1.524 . S
C2447 C2451 1.400 . S
C2448 H2433 0.960 . S
C2448 H2434 0.960 . S
C2448 H2435 0.960 . S
C2448 C2447 1.524 . S
C2449 C2446 1.403 . S
C2449 C2450 1.392 . S
C2449 C2453 1.495 . S
C2450 C2449 1.392 . S
C2450 C2451 1.385 . S
C2450 C2452 1.478 . S
C2451 H2445 0.930 . S
C2451 C2447 1.400 . S
C2451 C2450 1.385 . S
C2452 C2450 1.478 . S
C2452 C2454 1.381 . S
C2452 C2458 1.383 . S
C2453 C2449 1.495 . S
C2453 H2459 0.959 . S
C2453 H2460 0.961 . S
C2453 H2461 0.960 . S
C2454 C2452 1.381 . S
C2454 C2455 1.394 . S
C2454 H2462 0.930 . S
C2455 C2454 1.394 . S
C2455 C2456 1.383 . S
C2455 H2463 0.929 . S
C2456 C2455 1.383 . S
C2456 C2457 1.377 . S
C2457 H2441 0.930 . S
C2457 C2456 1.377 . S
C2457 C2458 1.379 . S
C2458 H2442 0.931 . S
C2458 C2452 1.383 . S
C2458 C2457 1.379 . S
H2459 C2453 0.959 . S
H2460 C2453 0.961 . S
H2461 C2453 0.960 . S
H2462 C2454 0.930 . S
H2463 C2455 0.929 . S
H2464 C2472 0.929 . S
H2465 C2474 0.930 . S
H2466 C2476 0.930 . S
H2467 C2479 0.929 . S
H2468 C2482 0.930 . S
H2469 C2484 0.960 . S
H2470 C2484 0.960 . S
H2471 C2484 0.960 . S
C2472 H2464 0.929 . S
C2472 C2473 1.377 . S
C2472 C2474 1.384 . S
C2473 C2472 1.377 . S
C2473 C2479 1.390 . S
C2474 H2465 0.930 . S
C2474 C2472 1.384 . S
C2474 C2475 1.372 . S
C2475 C2474 1.372 . S
C2475 C2476 1.400 . S
C2475 C2480 1.490 . S
C2476 H2466 0.930 . S
C2476 C2475 1.400 . S
C2476 C2479 1.386 . S
H2477 C2493 0.930 . S
H2478 C2494 0.931 . S
C2479 H2467 0.929 . S
C2479 C2473 1.390 . S
C2479 C2476 1.386 . S
C2480 C2475 1.490 . S
C2480 C2482 1.395 . S
C2480 C2483 1.403 . S
H2481 C2487 0.930 . S
C2482 H2468 0.930 . S
C2482 C2480 1.395 . S
C2482 C2485 1.403 . S
C2483 C2480 1.403 . S
C2483 C2484 1.524 . S
C2483 C2487 1.400 . S
C2484 H2469 0.960 . S
C2484 H2470 0.960 . S
C2484 H2471 0.960 . S
C2484 C2483 1.524 . S
C2485 C2482 1.403 . S
C2485 C2486 1.392 . S
C2485 C2489 1.495 . S
C2486 C2485 1.392 . S
C2486 C2487 1.385 . S
C2486 C2488 1.478 . S
C2487 H2481 0.930 . S
C2487 C2483 1.400 . S
C2487 C2486 1.385 . S
C2488 C2486 1.478 . S
C2488 C2490 1.381 . S
C2488 C2494 1.383 . S
C2489 C2485 1.495 . S
C2489 H2495 0.959 . S
C2489 H2496 0.961 . S
C2489 H2497 0.960 . S
C2490 C2488 1.381 . S
C2490 C2491 1.394 . S
C2490 H2498 0.930 . S
C2491 C2490 1.394 . S
C2491 C2492 1.383 . S
C2491 H2499 0.929 . S
C2492 C2491 1.383 . S
C2492 C2493 1.377 . S
C2493 H2477 0.930 . S
C2493 C2492 1.377 . S
C2493 C2494 1.379 . S
C2494 H2478 0.931 . S
C2494 C2488 1.383 . S
C2494 C2493 1.379 . S
H2495 C2489 0.959 . S
H2496 C2489 0.961 . S
H2497 C2489 0.960 . S
H2498 C2490 0.930 . S
H2499 C2491 0.929 . S
H2500 C2508 0.929 . S
H2501 C2510 0.930 . S
H2502 C2512 0.930 . S
H2503 C2515 0.929 . S
H2504 C2518 0.930 . S
H2505 C2520 0.960 . S
H2506 C2520 0.960 . S
H2507 C2520 0.960 . S
C2508 H2500 0.929 . S
C2508 C2509 1.377 . S
C2508 C2510 1.384 . S
C2509 C2508 1.377 . S
C2509 C2515 1.390 . S
C2510 H2501 0.930 . S
C2510 C2508 1.384 . S
C2510 C2511 1.372 . S
C2511 C2510 1.372 . S
C2511 C2512 1.400 . S
C2511 C2516 1.490 . S
C2512 H2502 0.930 . S
C2512 C2511 1.400 . S
C2512 C2515 1.386 . S
H2513 C2529 0.930 . S
H2514 C2530 0.931 . S
C2515 H2503 0.929 . S
C2515 C2509 1.390 . S
C2515 C2512 1.386 . S
C2516 C2511 1.490 . S
C2516 C2518 1.395 . S
C2516 C2519 1.403 . S
H2517 C2523 0.930 . S
C2518 H2504 0.930 . S
C2518 C2516 1.395 . S
C2518 C2521 1.403 . S
C2519 C2516 1.403 . S
C2519 C2520 1.524 . S
C2519 C2523 1.400 . S
C2520 H2505 0.960 . S
C2520 H2506 0.960 . S
C2520 H2507 0.960 . S
C2520 C2519 1.524 . S
C2521 C2518 1.403 . S
C2521 C2522 1.392 . S
C2521 C2525 1.495 . S
C2522 C2521 1.392 . S
C2522 C2523 1.385 . S
C2522 C2524 1.478 . S
C2523 H2517 0.930 . S
C2523 C2519 1.400 . S
C2523 C2522 1.385 . S
C2524 C2522 1.478 . S
C2524 C2526 1.381 . S
C2524 C2530 1.383 . S
C2525 C2521 1.495 . S
C2525 H2531 0.959 . S
C2525 H2532 0.961 . S
C2525 H2533 0.960 . S
C2526 C2524 1.381 . S
C2526 C2527 1.394 . S
C2526 H2534 0.930 . S
C2527 C2526 1.394 . S
C2527 C2528 1.383 . S
C2527 H2535 0.929 . S
C2528 C2527 1.383 . S
C2528 C2529 1.377 . S
C2529 H2513 0.930 . S
C2529 C2528 1.377 . S
C2529 C2530 1.379 . S
C2530 H2514 0.931 . S
C2530 C2524 1.383 . S
C2530 C2529 1.379 . S
H2531 C2525 0.959 . S
H2532 C2525 0.961 . S
H2533 C2525 0.960 . S
H2534 C2526 0.930 . S
H2535 C2527 0.929 . S
H2536 C2544 0.929 . S
H2537 C2546 0.930 . S
H2538 C2548 0.930 . S
H2539 C2551 0.929 . S
H2540 C2554 0.930 . S
H2541 C2556 0.960 . S
H2542 C2556 0.960 . S
H2543 C2556 0.960 . S
C2544 H2536 0.929 . S
C2544 C2545 1.377 . S
C2544 C2546 1.384 . S
C2545 C2544 1.377 . S
C2545 C2551 1.390 . S
C2546 H2537 0.930 . S
C2546 C2544 1.384 . S
C2546 C2547 1.372 . S
C2547 C2546 1.372 . S
C2547 C2548 1.400 . S
C2547 C2552 1.490 . S
C2548 H2538 0.930 . S
C2548 C2547 1.400 . S
C2548 C2551 1.386 . S
H2549 C2565 0.930 . S
H2550 C2566 0.931 . S
C2551 H2539 0.929 . S
C2551 C2545 1.390 . S
C2551 C2548 1.386 . S
C2552 C2547 1.490 . S
C2552 C2554 1.395 . S
C2552 C2555 1.403 . S
H2553 C2559 0.930 . S
C2554 H2540 0.930 . S
C2554 C2552 1.395 . S
C2554 C2557 1.403 . S
C2555 C2552 1.403 . S
C2555 C2556 1.524 . S
C2555 C2559 1.400 . S
C2556 H2541 0.960 . S
C2556 H2542 0.960 . S
C2556 H2543 0.960 . S
C2556 C2555 1.524 . S
C2557 C2554 1.403 . S
C2557 C2558 1.392 . S
C2557 C2561 1.495 . S
C2558 C2557 1.392 . S
C2558 C2559 1.385 . S
C2558 C2560 1.478 . S
C2559 H2553 0.930 . S
C2559 C2555 1.400 . S
C2559 C2558 1.385 . S
C2560 C2558 1.478 . S
C2560 C2562 1.381 . S
C2560 C2566 1.383 . S
C2561 C2557 1.495 . S
C2561 H2567 0.959 . S
C2561 H2568 0.961 . S
C2561 H2569 0.960 . S
C2562 C2560 1.381 . S
C2562 C2563 1.394 . S
C2562 H2570 0.930 . S
C2563 C2562 1.394 . S
C2563 C2564 1.383 . S
C2563 H2571 0.929 . S
C2564 C2563 1.383 . S
C2564 C2565 1.377 . S
C2565 H2549 0.930 . S
C2565 C2564 1.377 . S
C2565 C2566 1.379 . S
C2566 H2550 0.931 . S
C2566 C2560 1.383 . S
C2566 C2565 1.379 . S
H2567 C2561 0.959 . S
H2568 C2561 0.961 . S
H2569 C2561 0.960 . S
H2570 C2562 0.930 . S
H2571 C2563 0.929 . S
H2572 C2580 0.929 . S
H2573 C2582 0.930 . S
H2574 C2584 0.930 . S
H2575 C2587 0.929 . S
H2576 C2590 0.930 . S
H2577 C2592 0.960 . S
H2578 C2592 0.960 . S
H2579 C2592 0.960 . S
C2580 H2572 0.929 . S
C2580 C2581 1.377 . S
C2580 C2582 1.384 . S
C2581 C2580 1.377 . S
C2581 C2587 1.390 . S
C2582 H2573 0.930 . S
C2582 C2580 1.384 . S
C2582 C2583 1.372 . S
C2583 C2582 1.372 . S
C2583 C2584 1.400 . S
C2583 C2588 1.490 . S
C2584 H2574 0.930 . S
C2584 C2583 1.400 . S
C2584 C2587 1.386 . S
H2585 C2601 0.930 . S
H2586 C2602 0.931 . S
C2587 H2575 0.929 . S
C2587 C2581 1.390 . S
C2587 C2584 1.386 . S
C2588 C2583 1.490 . S
C2588 C2590 1.395 . S
C2588 C2591 1.403 . S
H2589 C2595 0.930 . S
C2590 H2576 0.930 . S
C2590 C2588 1.395 . S
C2590 C2593 1.403 . S
C2591 C2588 1.403 . S
C2591 C2592 1.524 . S
C2591 C2595 1.400 . S
C2592 H2577 0.960 . S
C2592 H2578 0.960 . S
C2592 H2579 0.960 . S
C2592 C2591 1.524 . S
C2593 C2590 1.403 . S
C2593 C2594 1.392 . S
C2593 C2597 1.495 . S
C2594 C2593 1.392 . S
C2594 C2595 1.385 . S
C2594 C2596 1.478 . S
C2595 H2589 0.930 . S
C2595 C2591 1.400 . S
C2595 C2594 1.385 . S
C2596 C2594 1.478 . S
C2596 C2598 1.381 . S
C2596 C2602 1.383 . S
C2597 C2593 1.495 . S
C2597 H2603 0.959 . S
C2597 H2604 0.961 . S
C2597 H2605 0.960 . S
C2598 C2596 1.381 . S
C2598 C2599 1.394 . S
C2598 H2606 0.930 . S
C2599 C2598 1.394 . S
C2599 C2600 1.383 . S
C2599 H2607 0.929 . S
C2600 C2599 1.383 . S
C2600 C2601 1.377 . S
C2601 H2585 0.930 . S
C2601 C2600 1.377 . S
C2601 C2602 1.379 . S
C2602 H2586 0.931 . S
C2602 C2596 1.383 . S
C2602 C2601 1.379 . S
H2603 C2597 0.959 . S
H2604 C2597 0.961 . S
H2605 C2597 0.960 . S
H2606 C2598 0.930 . S
H2607 C2599 0.929 . S
H2608 C2616 0.929 . S
H2609 C2618 0.930 . S
H2610 C2620 0.930 . S
H2611 C2623 0.929 . S
H2612 C2626 0.930 . S
H2613 C2628 0.960 . S
H2614 C2628 0.960 . S
H2615 C2628 0.960 . S
C2616 H2608 0.929 . S
C2616 C2617 1.377 . S
C2616 C2618 1.384 . S
C2617 C2616 1.377 . S
C2617 C2623 1.390 . S
C2618 H2609 0.930 . S
C2618 C2616 1.384 . S
C2618 C2619 1.372 . S
C2619 C2618 1.372 . S
C2619 C2620 1.400 . S
C2619 C2624 1.490 . S
C2620 H2610 0.930 . S
C2620 C2619 1.400 . S
C2620 C2623 1.386 . S
H2621 C2637 0.930 . S
H2622 C2638 0.931 . S
C2623 H2611 0.929 . S
C2623 C2617 1.390 . S
C2623 C2620 1.386 . S
C2624 C2619 1.490 . S
C2624 C2626 1.395 . S
C2624 C2627 1.403 . S
H2625 C2631 0.930 . S
C2626 H2612 0.930 . S
C2626 C2624 1.395 . S
C2626 C2629 1.403 . S
C2627 C2624 1.403 . S
C2627 C2628 1.524 . S
C2627 C2631 1.400 . S
C2628 H2613 0.960 . S
C2628 H2614 0.960 . S
C2628 H2615 0.960 . S
C2628 C2627 1.524 . S
C2629 C2626 1.403 . S
C2629 C2630 1.392 . S
C2629 C2633 1.495 . S
C2630 C2629 1.392 . S
C2630 C2631 1.385 . S
C2630 C2632 1.478 . S
C2631 H2625 0.930 . S
C2631 C2627 1.400 . S
C2631 C2630 1.385 . S
C2632 C2630 1.478 . S
C2632 C2634 1.381 . S
C2632 C2638 1.383 . S
C2633 C2629 1.495 . S
C2633 H2639 0.959 . S
C2633 H2640 0.961 . S
C2633 H2641 0.960 . S
C2634 C2632 1.381 . S
C2634 C2635 1.394 . S
C2634 H2642 0.930 . S
C2635 C2634 1.394 . S
C2635 C2636 1.383 . S
C2635 H2643 0.929 . S
C2636 C2635 1.383 . S
C2636 C2637 1.377 . S
C2637 H2621 0.930 . S
C2637 C2636 1.377 . S
C2637 C2638 1.379 . S
C2638 H2622 0.931 . S
C2638 C2632 1.383 . S
C2638 C2637 1.379 . S
H2639 C2633 0.959 . S
H2640 C2633 0.961 . S
H2641 C2633 0.960 . S
H2642 C2634 0.930 . S
H2643 C2635 0.929 . S
H2644 C2652 0.929 . S
H2645 C2654 0.930 . S
H2646 C2656 0.930 . S
H2647 C2659 0.929 . S
H2648 C2662 0.930 . S
H2649 C2664 0.960 . S
H2650 C2664 0.960 . S
H2651 C2664 0.960 . S
C2652 H2644 0.929 . S
C2652 C2653 1.377 . S
C2652 C2654 1.384 . S
C2653 C2652 1.377 . S
C2653 C2659 1.390 . S
C2654 H2645 0.930 . S
C2654 C2652 1.384 . S
C2654 C2655 1.372 . S
C2655 C2654 1.372 . S
C2655 C2656 1.400 . S
C2655 C2660 1.490 . S
C2656 H2646 0.930 . S
C2656 C2655 1.400 . S
C2656 C2659 1.386 . S
H2657 C2673 0.930 . S
H2658 C2674 0.931 . S
C2659 H2647 0.929 . S
C2659 C2653 1.390 . S
C2659 C2656 1.386 . S
C2660 C2655 1.490 . S
C2660 C2662 1.395 . S
C2660 C2663 1.403 . S
H2661 C2667 0.930 . S
C2662 H2648 0.930 . S
C2662 C2660 1.395 . S
C2662 C2665 1.403 . S
C2663 C2660 1.403 . S
C2663 C2664 1.524 . S
C2663 C2667 1.400 . S
C2664 H2649 0.960 . S
C2664 H2650 0.960 . S
C2664 H2651 0.960 . S
C2664 C2663 1.524 . S
C2665 C2662 1.403 . S
C2665 C2666 1.392 . S
C2665 C2669 1.495 . S
C2666 C2665 1.392 . S
C2666 C2667 1.385 . S
C2666 C2668 1.478 . S
C2667 H2661 0.930 . S
C2667 C2663 1.400 . S
C2667 C2666 1.385 . S
C2668 C2666 1.478 . S
C2668 C2670 1.381 . S
C2668 C2674 1.383 . S
C2669 C2665 1.495 . S
C2669 H2675 0.959 . S
C2669 H2676 0.961 . S
C2669 H2677 0.960 . S
C2670 C2668 1.381 . S
C2670 C2671 1.394 . S
C2670 H2678 0.930 . S
C2671 C2670 1.394 . S
C2671 C2672 1.383 . S
C2671 H2679 0.929 . S
C2672 C2671 1.383 . S
C2672 C2673 1.377 . S
C2673 H2657 0.930 . S
C2673 C2672 1.377 . S
C2673 C2674 1.379 . S
C2674 H2658 0.931 . S
C2674 C2668 1.383 . S
C2674 C2673 1.379 . S
H2675 C2669 0.959 . S
H2676 C2669 0.961 . S
H2677 C2669 0.960 . S
H2678 C2670 0.930 . S
H2679 C2671 0.929 . S
H2680 C2688 0.929 . S
H2681 C2690 0.930 . S
H2682 C2692 0.930 . S
H2683 C2695 0.929 . S
H2684 C2698 0.930 . S
H2685 C2700 0.960 . S
H2686 C2700 0.960 . S
H2687 C2700 0.960 . S
C2688 H2680 0.929 . S
C2688 C2689 1.377 . S
C2688 C2690 1.384 . S
C2689 C2688 1.377 . S
C2689 C2695 1.390 . S
C2690 H2681 0.930 . S
C2690 C2688 1.384 . S
C2690 C2691 1.372 . S
C2691 C2690 1.372 . S
C2691 C2692 1.400 . S
C2691 C2696 1.490 . S
C2692 H2682 0.930 . S
C2692 C2691 1.400 . S
C2692 C2695 1.386 . S
H2693 C2709 0.930 . S
H2694 C2710 0.931 . S
C2695 H2683 0.929 . S
C2695 C2689 1.390 . S
C2695 C2692 1.386 . S
C2696 C2691 1.490 . S
C2696 C2698 1.395 . S
C2696 C2699 1.403 . S
H2697 C2703 0.930 . S
C2698 H2684 0.930 . S
C2698 C2696 1.395 . S
C2698 C2701 1.403 . S
C2699 C2696 1.403 . S
C2699 C2700 1.524 . S
C2699 C2703 1.400 . S
C2700 H2685 0.960 . S
C2700 H2686 0.960 . S
C2700 H2687 0.960 . S
C2700 C2699 1.524 . S
C2701 C2698 1.403 . S
C2701 C2702 1.392 . S
C2701 C2705 1.495 . S
C2702 C2701 1.392 . S
C2702 C2703 1.385 . S
C2702 C2704 1.478 . S
C2703 H2697 0.930 . S
C2703 C2699 1.400 . S
C2703 C2702 1.385 . S
C2704 C2702 1.478 . S
C2704 C2706 1.381 . S
C2704 C2710 1.383 . S
C2705 C2701 1.495 . S
C2705 H2711 0.959 . S
C2705 H2712 0.961 . S
C2705 H2713 0.960 . S
C2706 C2704 1.381 . S
C2706 C2707 1.394 . S
C2706 H2714 0.930 . S
C2707 C2706 1.394 . S
C2707 C2708 1.383 . S
C2707 H2715 0.929 . S
C2708 C2707 1.383 . S
C2708 C2709 1.377 . S
C2709 H2693 0.930 . S
C2709 C2708 1.377 . S
C2709 C2710 1.379 . S
C2710 H2694 0.931 . S
C2710 C2704 1.383 . S
C2710 C2709 1.379 . S
H2711 C2705 0.959 . S
H2712 C2705 0.961 . S
H2713 C2705 0.960 . S
H2714 C2706 0.930 . S
H2715 C2707 0.929 . S
H2716 C2724 0.929 . S
H2717 C2726 0.930 . S
H2718 C2728 0.930 . S
H2719 C2731 0.929 . S
H2720 C2734 0.930 . S
H2721 C2736 0.960 . S
H2722 C2736 0.960 . S
H2723 C2736 0.960 . S
C2724 H2716 0.929 . S
C2724 C2725 1.377 . S
C2724 C2726 1.384 . S
C2725 C2724 1.377 . S
C2725 C2731 1.390 . S
C2726 H2717 0.930 . S
C2726 C2724 1.384 . S
C2726 C2727 1.372 . S
C2727 C2726 1.372 . S
C2727 C2728 1.400 . S
C2727 C2732 1.490 . S
C2728 H2718 0.930 . S
C2728 C2727 1.400 . S
C2728 C2731 1.386 . S
H2729 C2745 0.930 . S
H2730 C2746 0.931 . S
C2731 H2719 0.929 . S
C2731 C2725 1.390 . S
C2731 C2728 1.386 . S
C2732 C2727 1.490 . S
C2732 C2734 1.395 . S
C2732 C2735 1.403 . S
H2733 C2739 0.930 . S
C2734 H2720 0.930 . S
C2734 C2732 1.395 . S
C2734 C2737 1.403 . S
C2735 C2732 1.403 . S
C2735 C2736 1.524 . S
C2735 C2739 1.400 . S
C2736 H2721 0.960 . S
C2736 H2722 0.960 . S
C2736 H2723 0.960 . S
C2736 C2735 1.524 . S
C2737 C2734 1.403 . S
C2737 C2738 1.392 . S
C2737 C2741 1.495 . S
C2738 C2737 1.392 . S
C2738 C2739 1.385 . S
C2738 C2740 1.478 . S
C2739 H2733 0.930 . S
C2739 C2735 1.400 . S
C2739 C2738 1.385 . S
C2740 C2738 1.478 . S
C2740 C2742 1.381 . S
C2740 C2746 1.383 . S
C2741 C2737 1.495 . S
C2741 H2747 0.959 . S
C2741 H2748 0.961 . S
C2741 H2749 0.960 . S
C2742 C2740 1.381 . S
C2742 C2743 1.394 . S
C2742 H2750 0.930 . S
C2743 C2742 1.394 . S
C2743 C2744 1.383 . S
C2743 H2751 0.929 . S
C2744 C2743 1.383 . S
C2744 C2745 1.377 . S
C2745 H2729 0.930 . S
C2745 C2744 1.377 . S
C2745 C2746 1.379 . S
C2746 H2730 0.931 . S
C2746 C2740 1.383 . S
C2746 C2745 1.379 . S
H2747 C2741 0.959 . S
H2748 C2741 0.961 . S
H2749 C2741 0.960 . S
H2750 C2742 0.930 . S
H2751 C2743 0.929 . S
C457 C219 1.465 . S
C476 C9 1.480 . S
C493 C23 1.469 . S
C512 C177 1.471 . S
C529 C37 1.469 . S
C548 C191 1.448 . S
C565 C205 1.470 . S
C584 C51 1.449 . S
C601 C65 1.469 . S
C620 C135 1.469 . S
C637 C79 1.469 . S
C656 C149 1.448 . S
C673 C163 1.464 . S
C692 C93 1.463 . S
C709 C121 1.470 . S
C728 C107 1.453 . S
C745 C233 1.469 . S
C764 C443 1.469 . S
C781 C247 1.464 . S
C800 C401 1.477 . S
C817 C261 1.464 . S
C836 C415 1.479 . S
C853 C429 1.465 . S
C872 C275 1.480 . S
C889 C289 1.464 . S
C908 C359 1.479 . S
C925 C303 1.469 . S
C944 C373 1.447 . S
C961 C387 1.466 . S
C980 C317 1.451 . S
C997 C331 1.469 . S
C1016 C345 1.447 . S
C1033 C176 1.403 . S
C1052 C8 1.395 . S
C1069 C22 1.401 . S
C1088 C190 1.400 . S
C1105 C204 1.403 . S
C1124 C36 1.396 . S
C1141 C50 1.402 . S
C1160 C218 1.400 . S
C1177 C64 1.401 . S
C1196 C120 1.403 . S
C1213 C134 1.402 . S
C1232 C78 1.395 . S
C1249 C148 1.402 . S
C1268 C92 1.403 . S
C1285 C162 1.402 . S
C1304 C106 1.395 . S
C1321 C232 1.401 . S
C1340 C400 1.403 . S
C1357 C414 1.401 . S
C1376 C246 1.401 . S
C1393 C260 1.403 . S
C1412 C428 1.396 . S
C1429 C274 1.402 . S
C1448 C442 1.395 . S
C1465 C344 1.402 . S
C1484 C288 1.402 . S
C1501 C302 1.402 . S
C1520 C358 1.395 . S
C1537 C316 1.401 . S
C1556 C372 1.398 . S
C1573 C330 1.401 . S
C1592 C386 1.396 . S
C1609 C7 1.218 . S
C1628 C147 1.214 . S
C1645 C161 1.225 . S
C1664 C21 1.217 . S
C1681 C35 1.225 . S
C1700 C119 1.213 . S
C1717 C133 1.223 . S
C1736 C49 1.231 . S
C1753 C203 1.222 . S
C1772 C63 1.232 . S
C1789 C217 1.225 . S
C1808 C77 1.203 . S
C1825 C175 1.225 . S
C1844 C91 1.214 . S
C1861 C105 1.220 . S
C1880 C189 1.239 . S
C1897 C371 1.218 . S
C1916 C231 1.211 . S
C1933 C245 1.220 . S
C1952 C385 1.202 . S
C1969 C343 1.219 . S
C1988 C259 1.239 . S
C2005 C357 1.216 . S
C2024 C273 1.231 . S
C2041 C287 1.217 . S
C2060 C427 1.238 . S
C2077 C301 1.222 . S
C2096 C441 1.198 . S
C2113 C399 1.224 . S
C2132 C315 1.199 . S
C2149 C413 1.218 . S
C2168 C329 1.238 . S
C2185 C325 1.093 . S
C2204 C3 1.081 . S
C2221 C283 1.093 . S
C2240 C17 1.068 . S
C2257 C297 1.093 . S
C2276 C31 1.079 . S
C2293 C311 1.083 . S
C2312 C45 1.099 . S
C2329 C241 1.086 . S
C2348 C59 1.074 . S
C2365 C73 1.092 . S
C2384 C255 1.066 . S
C2401 C87 1.083 . S
C2420 C269 1.088 . S
C2437 C101 1.090 . S
C2456 C227 1.099 . S
C2473 C115 1.083 . S
C2492 C437 1.062 . S
C2509 C395 1.090 . S
C2528 C129 1.098 . S
C2545 C143 1.093 . S
C2564 C409 1.109 . S
C2581 C157 1.084 . S
C2600 C423 1.067 . S
C2617 C353 1.083 . S
C2636 C171 1.062 . S
C2653 C367 1.090 . S
C2672 C185 1.097 . S
C2689 C199 1.084 . S
C2708 C381 1.067 . S
C2725 C213 1.087 . S
C2744 C339 1.079 . S
