# Generated by pormake.
# Topology sxb, (6)-cn, num edge types: 1
# Building blocks:
#     Node 0, Type 0, BuildingBlock: FUNLAD_clean_sbu_0, # of connection points: 6
#     Node 1, Type 0, BuildingBlock: FUNLAD_clean_sbu_0, # of connection points: 6
#     Node 2, Type 0, BuildingBlock: FUNLAD_clean_sbu_0, # of connection points: 6
#     Node 3, Type 0, BuildingBlock: FUNLAD_clean_sbu_0, # of connection points: 6
#     Edge 4, Type (0, 0), BuildingBlock: AJUNOK_clean_linker_0, # of connection points: 2
#     Edge 5, Type (0, 0), BuildingBlock: AJUNOK_clean_linker_0, # of connection points: 2
#     Edge 6, Type (0, 0), BuildingBlock: AJUNOK_clean_linker_0, # of connection points: 2
#     Edge 7, Type (0, 0), BuildingBlock: AJUNOK_clean_linker_0, # of connection points: 2
#     Edge 8, Type (0, 0), BuildingBlock: AJUNOK_clean_linker_0, # of connection points: 2
#     Edge 9, Type (0, 0), BuildingBlock: AJUNOK_clean_linker_0, # of connection points: 2
#     Edge 10, Type (0, 0), BuildingBlock: AJUNOK_clean_linker_0, # of connection points: 2
#     Edge 11, Type (0, 0), BuildingBlock: AJUNOK_clean_linker_0, # of connection points: 2
#     Edge 12, Type (0, 0), BuildingBlock: AJUNOK_clean_linker_0, # of connection points: 2
#     Edge 13, Type (0, 0), BuildingBlock: AJUNOK_clean_linker_0, # of connection points: 2
#     Edge 14, Type (0, 0), BuildingBlock: AJUNOK_clean_linker_0, # of connection points: 2
#     Edge 15, Type (0, 0), BuildingBlock: AJUNOK_clean_linker_0, # of connection points: 2
# Relax obj value: 0.086
# Max RMSD: 0.152
# Mean RMSD: 0.152
data_MOF--net-sxb--node1-FUNLAD_clean_sbu_0--edge1-AJUNOK_clean_linker_0
_symmetry_space_group_name_H-M    P1
_symmetry_Int_Tables_number       1
_symmetry_cell_setting            triclinic
loop_
_symmetry_equiv_pos_as_xyz
'x, y, z'
_cell_length_a     11.036488
_cell_length_b     19.52876
_cell_length_c     35.359844
_cell_angle_alpha  89.645647
_cell_angle_beta   91.53645
_cell_angle_gamma 89.983317
loop_
_atom_site_label
_atom_site_type_symbol
_atom_site_fract_x
_atom_site_fract_y
_atom_site_fract_z
_atom_type_partial_charge
C0 C 0.19042 0.0362 0.02378 0.0
N1 N 0.94565 0.00701 0.93337 0.0
C2 C 0.01548 0.05248 0.91443 0.0
C3 C 0.01997 0.0506 0.87502 0.0
C4 C -0.05009 1.00246 0.85473 0.0
C5 C 0.87548 0.95777 0.87502 0.0
C6 C 0.8764 0.96011 0.91446 0.0
Zn7 Zn 0.9468 0.00748 0.99128 0.0
C8 C 0.02823 0.87267 0.02303 0.0
N9 N -0.04964 0.00639 0.11165 0.0
C10 C 0.00881 0.05751 0.1307 0.0
C11 C 0.89183 0.95562 0.13034 0.0
C12 C 0.89023 0.95515 0.16979 0.0
C13 C -0.04913 0.00685 0.19007 0.0
C14 C 0.01067 0.05855 0.17017 0.0
Zn15 Zn -0.05083 0.00634 0.05401 0.0
O16 O 0.13087 0.0322 0.99271 0.0
C17 C 0.86644 0.14084 0.02158 0.0
O18 O 0.13477 0.03222 0.05469 0.0
H19 H 0.84625 0.91542 0.1146 0.0
H20 H 0.06889 0.08993 0.92988 0.0
H21 H 0.05385 0.09763 0.11524 0.0
O22 O 0.89171 0.11114 0.99088 0.0
O23 O 0.89032 0.11043 0.05285 0.0
H24 H 0.82165 0.92424 0.92993 0.0
O25 O 0.76351 0.98072 0.05274 0.0
O26 O 0.76265 0.9834 0.99081 0.0
O27 O 0.00771 0.90229 0.05417 0.0
O28 O 0.00152 0.90356 0.99217 0.0
C29 C 0.70515 0.97963 0.02131 0.0
H30 H 0.07875 0.08609 0.86066 0.0
H31 H 0.81628 0.92154 0.86069 0.0
H32 H 0.84343 0.91442 0.18435 0.0
H33 H 0.05709 0.09969 0.185 0.0
C34 C 0.70585 0.03137 0.52195 0.0
N35 N -0.04318 1.00257 0.61077 0.0
C36 C 0.88878 0.04879 0.62951 0.0
C37 C 0.88679 0.04791 0.66895 0.0
C38 C -0.04235 1.00004 0.68952 0.0
C39 C 0.0301 0.95443 0.66941 0.0
C40 C 0.02666 0.95579 0.62992 0.0
Zn41 Zn -0.04775 1.00289 0.55284 0.0
C42 C 0.86404 0.86992 0.52214 0.0
N43 N 0.94029 1.00346 0.43247 0.0
C44 C 0.88172 0.05448 0.413 0.0
C45 C -0.00111 0.95259 0.41422 0.0
C46 C 0.00211 0.95247 0.37481 0.0
C47 C 0.94346 0.0048 0.3541 0.0
C48 C 0.88139 0.05584 0.37349 0.0
Zn49 Zn 0.94446 1.00347 0.49013 0.0
O50 O 0.76885 0.02835 0.55241 0.0
C51 C 0.0308 0.13696 0.52148 0.0
O52 O 0.75867 0.02927 0.49049 0.0
H53 H 0.04398 0.91226 0.43027 0.0
H54 H 0.83499 0.08619 0.61388 0.0
H55 H 0.83609 0.09448 0.42813 0.0
O56 O 0.00922 0.10617 0.55236 0.0
O57 O 0.00352 0.10759 0.49036 0.0
H58 H 0.08008 0.91937 0.6146 0.0
O59 O 0.12999 0.97743 0.49042 0.0
O60 O 0.1359 0.97701 0.55235 0.0
O61 O 0.88535 0.89946 0.49084 0.0
O62 O 0.89439 0.89976 0.55281 0.0
C63 C 0.19068 0.97334 0.52136 0.0
H64 H 0.82934 0.08401 0.68316 0.0
H65 H 0.08975 0.9183 0.6839 0.0
H66 H 0.04945 0.9118 0.36064 0.0
H67 H 0.83523 0.09695 0.35827 0.0
C68 C 0.68643 0.53601 0.0206 0.0
N69 N 0.43904 0.50774 0.93116 0.0
C70 C 0.49788 0.55897 0.91293 0.0
C71 C 0.50188 0.55984 0.8735 0.0
C72 C 0.44365 0.50793 0.85269 0.0
C73 C 0.38146 0.4565 0.87207 0.0
C74 C 0.38109 0.45706 0.91157 0.0
Zn75 Zn 0.44151 0.5062 0.98904 0.0
C76 C 0.53123 0.37284 1.01967 0.0
N77 N 0.45013 0.50347 0.10976 0.0
C78 C 0.51121 0.55337 0.12905 0.0
C79 C 0.39081 0.45283 0.12833 0.0
C80 C 0.39085 0.45134 0.16785 0.0
C81 C 0.45417 0.50177 0.18836 0.0
C82 C 0.51495 0.55327 0.16858 0.0
Zn83 Zn 0.44679 0.50496 0.05182 0.0
O84 O 0.62428 0.53382 0.98995 0.0
C85 C 0.35677 0.63824 0.02045 0.0
O86 O 0.63266 0.53133 0.05185 0.0
H87 H 0.34325 0.41351 0.11246 0.0
H88 H 0.54257 0.59903 0.92901 0.0
H89 H 0.55688 0.59346 0.11375 0.0
O90 O 0.38026 0.60846 0.98965 0.0
O91 O 0.38634 0.60903 0.05165 0.0
H92 H 0.33535 0.41667 0.92662 0.0
O93 O 0.26085 0.47867 0.05067 0.0
O94 O 0.2588 0.47858 0.98872 0.0
O95 O 0.50714 0.40094 0.05099 0.0
O96 O 0.50269 0.40388 0.98903 0.0
C97 C 0.20178 0.47548 1.01937 0.0
H98 H 0.54938 0.60082 0.85939 0.0
H99 H 0.33567 0.41563 0.85683 0.0
H100 H 0.34312 0.41079 0.18226 0.0
H101 H 0.56342 0.5935 0.18354 0.0
C102 C 0.20566 0.53193 0.51891 0.0
N103 N 0.45118 0.50494 0.60988 0.0
C104 C 0.39151 0.55561 0.628 0.0
C105 C 0.39023 0.55683 0.66748 0.0
C106 C 0.45238 0.50603 0.68842 0.0
C107 C 0.51341 0.45446 0.66909 0.0
C108 C 0.5112 0.45471 0.62957 0.0
Zn109 Zn 0.44967 0.50395 0.55202 0.0
C110 C 0.3631 0.37006 0.52179 0.0
N111 N 0.44599 0.50109 0.43132 0.0
C112 C 0.38804 0.55172 0.41133 0.0
C113 C 0.50494 0.44982 0.41348 0.0
C114 C 0.50872 0.44873 0.37404 0.0
C115 C 0.45019 0.50049 0.35279 0.0
C116 C 0.38821 0.55208 0.3718 0.0
Zn117 Zn 0.44695 0.50234 0.48925 0.0
O118 O 0.2638 0.52838 0.55035 0.0
C119 C 0.53176 0.63677 0.52025 0.0
O120 O 0.26347 0.53008 0.48837 0.0
H121 H 0.54955 0.40975 0.42987 0.0
H122 H 0.34472 0.59515 0.61179 0.0
H123 H 0.34215 0.59213 0.42606 0.0
O124 O 0.50485 0.60751 0.55111 0.0
O125 O 0.50936 0.60595 0.48921 0.0
H126 H 0.55721 0.41465 0.6146 0.0
O127 O 0.62996 0.47426 0.49085 0.0
O128 O 0.63596 0.4793 0.55274 0.0
O129 O 0.38454 0.39905 0.49034 0.0
O130 O 0.39362 0.40038 0.5523 0.0
C131 C 0.69077 0.473 0.52181 0.0
H132 H 0.34239 0.59745 0.68153 0.0
H133 H 0.561 0.41395 0.6844 0.0
H134 H 0.55602 0.4076 0.36026 0.0
H135 H 0.34219 0.59285 0.35625 0.0
C136 C 0.25822 0.73647 0.05351 0.0
C137 C 0.27631 0.69958 1.02004 0.0
C138 C 0.17376 0.79024 0.0547 0.0
C139 C 0.10313 0.80926 0.02251 0.0
H140 H 0.30973 0.72376 0.07911 0.0
H141 H 0.16609 0.81814 0.08091 0.0
S142 S 0.1074 0.72545 0.92857 0.0
N143 N 0.2106 0.68376 0.9543 0.0
N144 N 0.05266 0.78438 0.95667 0.0
C145 C 0.1183 0.77186 0.98907 0.0
C146 C 0.20462 0.71733 0.98778 0.0
C147 C 0.64497 0.2775 0.05296 0.0
C148 C 0.61161 0.31144 1.019 0.0
C149 C 0.73138 0.22464 0.05379 0.0
C150 C 0.78887 0.20339 0.02071 0.0
H151 H 0.60461 0.29211 0.07931 0.0
H152 H 0.75136 0.19939 0.0806 0.0
S153 S 0.73876 0.27749 0.92453 0.0
N154 N 0.64642 0.32092 0.95139 0.0
N155 N 0.80835 0.22213 0.95307 0.0
C156 C 0.75756 0.23743 0.9866 0.0
C157 C 0.66909 0.29104 0.98569 0.0
C158 C 0.16403 0.22153 0.48859 0.0
C159 C 0.10744 0.19982 0.52186 0.0
C160 C 0.24975 0.27473 0.48906 0.0
C161 C 0.28331 0.30847 0.52285 0.0
H162 H 0.14399 0.19636 0.46194 0.0
H163 H 0.28953 0.28969 0.46258 0.0
S164 S 0.15736 0.2737 0.6176 0.0
N165 N 0.08821 0.21823 0.58941 0.0
N166 N 0.24901 0.31754 0.59042 0.0
C167 C 0.22645 0.28771 0.55631 0.0
C168 C 0.13863 0.23382 0.55577 0.0
C169 C 0.75429 0.7737 0.48905 0.0
C170 C 0.78433 0.80829 0.52285 0.0
C171 C 0.66869 0.72044 0.48813 0.0
C172 C 0.60863 0.69956 0.52095 0.0
H173 H 0.79684 0.78803 0.4629 0.0
H174 H 0.65138 0.69462 0.46151 0.0
S175 S 0.64868 0.77594 0.61647 0.0
N176 N 0.74302 0.81914 0.5899 0.0
N177 N 0.58252 0.71969 0.58808 0.0
C178 C 0.63633 0.73443 0.55486 0.0
C179 C 0.72405 0.78837 0.55586 0.0
C180 C 0.3847 0.99944 0.05519 0.0
C181 C 0.32355 0.02909 0.0237 0.0
C182 C 0.50689 0.98068 0.05365 0.0
C183 C 0.57256 0.99058 0.02053 0.0
H184 H 0.33709 0.98866 0.08096 0.0
H185 H 0.55029 0.95848 0.0787 0.0
S186 S 0.45648 0.07155 0.93119 0.0
N187 N 0.33915 0.07096 0.95914 0.0
N188 N 0.56853 0.03579 0.95603 0.0
C189 C 0.51285 0.02133 0.98899 0.0
C190 C 0.38867 0.04075 0.99068 0.0
C191 C 0.38008 0.00574 0.48874 0.0
C192 C 0.32395 0.98094 0.52141 0.0
C193 C 0.50227 0.02504 0.48958 0.0
C194 C 0.57326 0.02052 0.52312 0.0
H195 H 0.32862 0.01216 0.46244 0.0
H196 H 0.54149 0.04323 0.46361 0.0
S197 S 0.47134 0.95451 0.61596 0.0
N198 N 0.34999 0.9499 0.58783 0.0
N199 N 0.57917 0.98633 0.58964 0.0
C200 C 0.51855 0.99489 0.55594 0.0
C201 C 0.39434 0.97482 0.55498 0.0
C202 C 0.88574 0.51238 0.05333 0.0
C203 C 0.81972 0.52691 1.01961 0.0
C204 C 0.00739 0.49206 0.05284 0.0
C205 C 0.06844 0.48528 1.01861 0.0
H206 H 0.84267 0.51537 0.08044 0.0
H207 H 0.0543 0.48263 0.07967 0.0
S208 S 0.93732 0.51805 0.92219 0.0
N209 N 0.82542 0.53393 0.95086 0.0
N210 N 0.05312 0.49515 0.94989 0.0
C211 C 0.00348 0.49958 0.98459 0.0
C212 C 0.87983 0.52085 0.98512 0.0
C213 C 0.00849 0.52631 0.55179 0.0
C214 C 0.07276 0.5213 0.51809 0.0
C215 C 0.88669 0.5067 0.55329 0.0
C216 C 0.82408 0.48104 0.52117 0.0
H217 H 0.05282 0.54506 0.5774 0.0
H218 H 0.84067 0.51347 0.57969 0.0
S219 S -0.04741 0.45335 0.42649 0.0
N220 N 0.06549 0.48593 0.45206 0.0
N221 N 0.837 0.44893 0.45504 0.0
C222 C 0.88773 0.47456 0.48744 0.0
C223 C 0.0116 0.49497 0.48581 0.0
C224 C 0.83896 0.0063 0.29054 0.0
C225 C 0.94733 0.00618 0.31236 0.0
C226 C 0.84082 0.00602 0.25091 0.0
C227 C -0.0489 0.00691 0.23189 0.0
H228 H 0.7523 0.00563 0.30423 0.0
H229 H 0.75551 0.00574 0.23503 0.0
S230 S 0.2594 0.00808 0.27612 0.0
N231 N 0.16748 0.00754 0.31223 0.0
N232 N 0.17097 0.00778 0.23768 0.0
C233 C 0.05993 0.0075 0.25339 0.0
C234 C 0.05805 0.00686 0.29367 0.0
C235 C -0.04556 0.06121 0.79147 0.0
C236 C -0.04669 0.99995 0.81265 0.0
C237 C -0.04325 0.06061 0.75189 0.0
C238 C -0.04339 0.99873 0.73166 0.0
H239 H -0.04774 0.1103 0.80553 0.0
H240 H -0.04063 0.10926 0.73706 0.0
S241 S -0.04574 0.8238 0.77354 0.0
N242 N -0.04319 0.87539 0.81034 0.0
N243 N -0.0478 0.87429 0.73594 0.0
C244 C -0.04522 0.93697 0.75244 0.0
C245 C -0.04511 0.93758 0.79285 0.0
C246 C 0.3447 0.50205 0.28926 0.0
C247 C 0.45343 0.50065 0.31093 0.0
C248 C 0.34567 0.50162 0.24959 0.0
C249 C 0.45543 0.50107 0.23027 0.0
H250 H 0.2583 0.50274 0.3031 0.0
H251 H 0.26001 0.50257 0.23389 0.0
S252 S 0.76459 0.49799 0.27393 0.0
N253 N 0.67353 0.49881 0.31025 0.0
N254 N 0.67533 0.49882 0.23567 0.0
C255 C 0.56467 0.50008 0.2516 0.0
C256 C 0.56367 0.49956 0.29195 0.0
C257 C 0.342 0.50683 0.74929 0.0
C258 C 0.45239 0.50655 0.7303 0.0
C259 C 0.33984 0.50656 0.78894 0.0
C260 C 0.44799 0.5073 0.81088 0.0
H261 H 0.25678 0.50647 0.73335 0.0
H262 H 0.25303 0.50658 0.80254 0.0
S263 S 0.76036 0.50747 0.77484 0.0
N264 N 0.67223 0.50716 0.73632 0.0
N265 N 0.66815 0.50744 0.81087 0.0
C266 C 0.55884 0.50744 0.79224 0.0
C267 C 0.56105 0.50677 0.75193 0.0
loop_
_geom_bond_atom_site_label_1
_geom_bond_atom_site_label_2
_geom_bond_distance
_geom_bond_site_symmetry_2
_ccdc_geom_bond_type
C0 O16 1.234 1_554 S
C0 O18 1.272 . S
N1 C2 1.335 1_655 S
N1 C6 1.304 1_545 S
N1 Zn7 2.020 1_545 S
C2 N1 1.335 1_455 S
C2 C3 1.379 . S
C2 H20 0.952 . S
C3 C2 1.379 . S
C3 C4 1.390 1_455 S
C3 H30 0.949 . S
C4 C3 1.390 1_655 S
C4 C5 1.357 1_545 S
C5 C4 1.357 1_565 S
C5 C6 1.370 . S
C5 H31 0.950 . S
C6 N1 1.304 1_565 S
C6 C5 1.370 . S
C6 H24 0.948 . S
Zn7 N1 2.020 1_565 S
Zn7 O16 2.039 1_665 S
Zn7 O22 2.034 1_565 S
Zn7 O26 2.025 . S
Zn7 O28 2.024 1_655 S
C8 O27 1.246 . S
C8 O28 1.249 1_554 S
N9 C10 1.306 1_565 S
N9 C11 1.333 1_455 S
N9 Zn15 2.020 1_565 S
C10 N9 1.306 1_545 S
C10 C14 1.370 . S
C10 H21 0.948 . S
C11 N9 1.333 1_655 S
C11 C12 1.379 . S
C11 H19 0.952 . S
C12 C11 1.379 . S
C12 C13 1.390 1_655 S
C12 H32 0.949 . S
C13 C12 1.390 1_455 S
C13 C14 1.357 1_565 S
C14 C10 1.370 . S
C14 C13 1.357 1_545 S
C14 H33 0.950 . S
Zn15 N9 2.020 1_545 S
Zn15 O18 2.025 . S
Zn15 O23 2.024 1_455 S
Zn15 O25 2.039 1_445 S
Zn15 O27 2.034 1_545 S
O16 C0 1.234 1_556 S
O16 Zn7 2.039 1_445 S
C17 O22 1.224 1_554 S
C17 O23 1.272 . S
O18 C0 1.272 . S
O18 Zn15 2.025 . S
H19 C11 0.952 . S
H20 C2 0.952 . S
H21 C10 0.948 . S
O22 Zn7 2.034 1_545 S
O22 C17 1.224 1_556 S
O23 Zn15 2.024 1_655 S
O23 C17 1.272 . S
H24 C6 0.948 . S
O25 Zn15 2.039 1_665 S
O25 C29 1.251 . S
O26 Zn7 2.025 . S
O26 C29 1.254 1_556 S
O27 C8 1.246 . S
O27 Zn15 2.034 1_565 S
O28 Zn7 2.024 1_455 S
O28 C8 1.249 1_556 S
C29 O25 1.251 . S
C29 O26 1.254 1_554 S
H30 C3 0.949 . S
H31 C5 0.950 . S
H32 C12 0.949 . S
H33 C14 0.950 . S
C34 O50 1.251 . S
C34 O52 1.254 . S
N35 C36 1.335 1_455 S
N35 C40 1.304 1_545 S
N35 Zn41 2.020 1_545 S
C36 N35 1.335 1_655 S
C36 C37 1.379 . S
C36 H54 0.952 . S
C37 C36 1.379 . S
C37 C38 1.390 1_655 S
C37 H64 0.949 . S
C38 C37 1.390 1_455 S
C38 C39 1.357 1_545 S
C39 C38 1.357 1_565 S
C39 C40 1.370 . S
C39 H65 0.950 . S
C40 N35 1.304 1_565 S
C40 C39 1.370 . S
C40 H58 0.948 . S
Zn41 N35 2.020 1_565 S
Zn41 O50 2.039 1_465 S
Zn41 O56 2.034 1_565 S
Zn41 O60 2.025 . S
Zn41 O62 2.024 1_455 S
C42 O61 1.246 . S
C42 O62 1.249 . S
N43 C44 1.306 1_565 S
N43 C45 1.333 1_655 S
N43 Zn49 2.020 1_565 S
C44 N43 1.306 1_545 S
C44 C48 1.370 . S
C44 H55 0.948 . S
C45 N43 1.333 1_455 S
C45 C46 1.379 . S
C45 H53 0.952 . S
C46 C45 1.379 . S
C46 C47 1.390 1_455 S
C46 H66 0.949 . S
C47 C46 1.390 1_655 S
C47 C48 1.357 1_565 S
C48 C44 1.370 . S
C48 C47 1.357 1_545 S
C48 H67 0.950 . S
Zn49 N43 2.020 1_545 S
Zn49 O52 2.025 . S
Zn49 O57 2.024 1_655 S
Zn49 O59 2.039 1_645 S
Zn49 O61 2.034 1_545 S
O50 C34 1.251 . S
O50 Zn41 2.039 1_645 S
C51 O56 1.246 . S
C51 O57 1.249 . S
O52 C34 1.254 . S
O52 Zn49 2.025 . S
H53 C45 0.952 . S
H54 C36 0.952 . S
H55 C44 0.948 . S
O56 Zn41 2.034 1_545 S
O56 C51 1.246 . S
O57 Zn49 2.024 1_455 S
O57 C51 1.249 . S
H58 C40 0.948 . S
O59 Zn49 2.039 1_465 S
O59 C63 1.251 . S
O60 Zn41 2.025 . S
O60 C63 1.254 . S
O61 C42 1.246 . S
O61 Zn49 2.034 1_565 S
O62 Zn41 2.024 1_655 S
O62 C42 1.249 . S
C63 O59 1.251 . S
C63 O60 1.254 . S
H64 C37 0.949 . S
H65 C39 0.950 . S
H66 C46 0.949 . S
H67 C48 0.950 . S
C68 O84 1.234 1_554 S
C68 O86 1.272 . S
N69 C70 1.333 . S
N69 C74 1.307 . S
N69 Zn75 2.020 . S
C70 N69 1.333 . S
C70 C71 1.379 . S
C70 H88 0.952 . S
C71 C70 1.379 . S
C71 C72 1.390 . S
C71 H98 0.949 . S
C72 C71 1.390 . S
C72 C73 1.357 . S
C73 C72 1.357 . S
C73 C74 1.370 . S
C73 H99 0.950 . S
C74 N69 1.307 . S
C74 C73 1.370 . S
C74 H92 0.948 . S
Zn75 N69 2.020 . S
Zn75 O84 2.039 . S
Zn75 O90 2.034 . S
Zn75 O94 2.025 . S
Zn75 O96 2.024 . S
C76 O95 1.246 . S
C76 O96 1.249 1_554 S
N77 C78 1.307 . S
N77 C79 1.333 . S
N77 Zn83 2.020 . S
C78 N77 1.307 . S
C78 C82 1.370 . S
C78 H89 0.948 . S
C79 N77 1.333 . S
C79 C80 1.379 . S
C79 H87 0.952 . S
C80 C79 1.379 . S
C80 C81 1.390 . S
C80 H100 0.949 . S
C81 C80 1.390 . S
C81 C82 1.357 . S
C82 C78 1.370 . S
C82 C81 1.357 . S
C82 H101 0.950 . S
Zn83 N77 2.020 . S
Zn83 O86 2.025 . S
Zn83 O91 2.024 . S
Zn83 O93 2.039 . S
Zn83 O95 2.034 . S
O84 C68 1.234 1_556 S
O84 Zn75 2.039 . S
C85 O90 1.224 1_554 S
C85 O91 1.272 . S
O86 C68 1.272 . S
O86 Zn83 2.025 . S
H87 C79 0.952 . S
H88 C70 0.952 . S
H89 C78 0.948 . S
O90 Zn75 2.034 . S
O90 C85 1.224 1_556 S
O91 Zn83 2.024 . S
O91 C85 1.272 . S
H92 C74 0.948 . S
O93 Zn83 2.039 . S
O93 C97 1.251 . S
O94 Zn75 2.025 . S
O94 C97 1.254 1_556 S
O95 C76 1.246 . S
O95 Zn83 2.034 . S
O96 Zn75 2.024 . S
O96 C76 1.249 1_556 S
C97 O93 1.251 . S
C97 O94 1.254 1_554 S
H98 C71 0.949 . S
H99 C73 0.950 . S
H100 C80 0.949 . S
H101 C82 0.950 . S
C102 O118 1.251 . S
C102 O120 1.254 . S
N103 C104 1.333 . S
N103 C108 1.307 . S
N103 Zn109 2.020 . S
C104 N103 1.333 . S
C104 C105 1.379 . S
C104 H122 0.952 . S
C105 C104 1.379 . S
C105 C106 1.390 . S
C105 H132 0.949 . S
C106 C105 1.390 . S
C106 C107 1.357 . S
C107 C106 1.357 . S
C107 C108 1.370 . S
C107 H133 0.950 . S
C108 N103 1.307 . S
C108 C107 1.370 . S
C108 H126 0.948 . S
Zn109 N103 2.020 . S
Zn109 O118 2.039 . S
Zn109 O124 2.034 . S
Zn109 O128 2.025 . S
Zn109 O130 2.024 . S
C110 O129 1.246 . S
C110 O130 1.249 . S
N111 C112 1.307 . S
N111 C113 1.333 . S
N111 Zn117 2.020 . S
C112 N111 1.307 . S
C112 C116 1.370 . S
C112 H123 0.948 . S
C113 N111 1.333 . S
C113 C114 1.379 . S
C113 H121 0.952 . S
C114 C113 1.379 . S
C114 C115 1.390 . S
C114 H134 0.949 . S
C115 C114 1.390 . S
C115 C116 1.357 . S
C116 C112 1.370 . S
C116 C115 1.357 . S
C116 H135 0.950 . S
Zn117 N111 2.020 . S
Zn117 O120 2.025 . S
Zn117 O125 2.024 . S
Zn117 O127 2.039 . S
Zn117 O129 2.034 . S
O118 C102 1.251 . S
O118 Zn109 2.039 . S
C119 O124 1.246 . S
C119 O125 1.249 . S
O120 C102 1.254 . S
O120 Zn117 2.025 . S
H121 C113 0.952 . S
H122 C104 0.952 . S
H123 C112 0.948 . S
O124 Zn109 2.034 . S
O124 C119 1.246 . S
O125 Zn117 2.024 . S
O125 C119 1.249 . S
H126 C108 0.948 . S
O127 Zn117 2.039 . S
O127 C131 1.251 . S
O128 Zn109 2.025 . S
O128 C131 1.254 . S
O129 C110 1.246 . S
O129 Zn117 2.034 . S
O130 Zn109 2.024 . S
O130 C110 1.249 . S
C131 O127 1.251 . S
C131 O128 1.254 . S
H132 C105 0.949 . S
H133 C107 0.950 . S
H134 C114 0.949 . S
H135 C116 0.950 . S
C136 C137 1.365 1_554 S
C136 C138 1.419 . S
C136 H140 0.930 . S
C137 C136 1.365 1_556 S
C137 C146 1.432 . S
C138 C136 1.419 . S
C138 C139 1.363 . S
C138 H141 0.929 . S
C139 C138 1.363 . S
C139 C145 1.428 1_554 S
H140 C136 0.930 . S
H141 C138 0.929 . S
S142 N143 1.613 . S
S142 N144 1.610 . S
N143 S142 1.613 . S
N143 C146 1.350 . S
N144 S142 1.610 . S
N144 C145 1.351 . S
C145 C139 1.428 1_556 S
C145 N144 1.351 . S
C145 C146 1.434 . S
C146 C137 1.432 . S
C146 N143 1.350 . S
C146 C145 1.434 . S
C147 C148 1.369 . S
C147 C149 1.419 . S
C147 H151 0.930 . S
C148 C147 1.369 . S
C148 C157 1.429 1_554 S
C149 C147 1.419 . S
C149 C150 1.360 1_554 S
C149 H152 0.929 . S
C150 C149 1.360 1_556 S
C150 C156 1.431 . S
H151 C147 0.930 . S
H152 C149 0.929 . S
S153 N154 1.613 . S
S153 N155 1.610 . S
N154 S153 1.613 . S
N154 C157 1.350 . S
N155 S153 1.610 . S
N155 C156 1.351 . S
C156 C150 1.431 . S
C156 N155 1.351 . S
C156 C157 1.434 . S
C157 C148 1.429 1_556 S
C157 N154 1.350 . S
C157 C156 1.434 . S
C158 C159 1.369 . S
C158 C160 1.419 . S
C158 H162 0.930 . S
C159 C158 1.369 . S
C159 C168 1.429 . S
C160 C158 1.419 . S
C160 C161 1.363 . S
C160 H163 0.929 . S
C161 C160 1.363 . S
C161 C167 1.428 . S
H162 C158 0.930 . S
H163 C160 0.929 . S
S164 N165 1.613 . S
S164 N166 1.610 1_655 S
N165 S164 1.613 . S
N165 C168 1.350 1_655 S
N166 S164 1.610 1_455 S
N166 C167 1.351 . S
C167 C161 1.428 . S
C167 N166 1.351 . S
C167 C168 1.434 . S
C168 C159 1.429 . S
C168 N165 1.350 1_455 S
C168 C167 1.434 . S
C169 C170 1.369 . S
C169 C171 1.419 . S
C169 H173 0.930 . S
C170 C169 1.369 . S
C170 C179 1.429 . S
C171 C169 1.419 . S
C171 C172 1.363 . S
C171 H174 0.929 . S
C172 C171 1.363 . S
C172 C178 1.428 . S
H173 C169 0.930 . S
H174 C171 0.929 . S
S175 N176 1.613 . S
S175 N177 1.610 . S
N176 S175 1.613 . S
N176 C179 1.350 . S
N177 S175 1.610 . S
N177 C178 1.351 . S
C178 C172 1.428 . S
C178 N177 1.351 . S
C178 C179 1.434 . S
C179 C170 1.429 . S
C179 N176 1.350 . S
C179 C178 1.434 . S
C180 C181 1.370 1_564 S
C180 C182 1.419 . S
C180 H184 0.930 . S
C181 C180 1.370 1_546 S
C181 C190 1.427 . S
C182 C180 1.419 . S
C182 C183 1.363 . S
C182 H185 0.929 . S
C183 C182 1.363 . S
C183 C189 1.428 1_564 S
H184 C180 0.930 . S
H185 C182 0.929 . S
S186 N187 1.613 . S
S186 N188 1.610 . S
N187 S186 1.613 . S
N187 C190 1.350 . S
N188 S186 1.610 . S
N188 C189 1.351 . S
C189 C183 1.428 1_546 S
C189 N188 1.351 . S
C189 C190 1.434 . S
C190 C181 1.427 . S
C190 N187 1.350 . S
C190 C189 1.434 . S
C191 C192 1.369 1_545 S
C191 C193 1.419 . S
C191 H195 0.930 . S
C192 C191 1.369 1_565 S
C192 C201 1.429 . S
C193 C191 1.419 . S
C193 C194 1.363 . S
C193 H196 0.929 . S
C194 C193 1.363 . S
C194 C200 1.428 1_545 S
H195 C191 0.930 . S
H196 C193 0.929 . S
S197 N198 1.613 . S
S197 N199 1.610 . S
N198 S197 1.613 . S
N198 C201 1.350 . S
N199 S197 1.610 . S
N199 C200 1.351 . S
C200 C194 1.428 1_565 S
C200 N199 1.351 . S
C200 C201 1.434 . S
C201 C192 1.429 . S
C201 N198 1.350 . S
C201 C200 1.434 . S
C202 C203 1.370 1_554 S
C202 C204 1.419 1_655 S
C202 H206 0.930 . S
C203 C202 1.370 1_556 S
C203 C212 1.428 . S
C204 C202 1.419 1_455 S
C204 C205 1.363 . S
C204 H207 0.929 . S
C205 C204 1.363 . S
C205 C211 1.428 1_554 S
H206 C202 0.930 . S
H207 C204 0.929 . S
S208 N209 1.613 . S
S208 N210 1.610 1_655 S
N209 S208 1.613 . S
N209 C212 1.350 . S
N210 S208 1.610 1_455 S
N210 C211 1.351 . S
C211 C205 1.428 1_556 S
C211 N210 1.351 . S
C211 C212 1.434 1_455 S
C212 C203 1.428 . S
C212 N209 1.350 . S
C212 C211 1.434 1_655 S
C213 C214 1.369 . S
C213 C215 1.419 1_455 S
C213 H217 0.930 . S
C214 C213 1.369 . S
C214 C223 1.429 . S
C215 C213 1.419 1_655 S
C215 C216 1.363 . S
C215 H218 0.929 . S
C216 C215 1.363 . S
C216 C222 1.428 . S
H217 C213 0.930 . S
H218 C215 0.929 . S
S219 N220 1.613 . S
S219 N221 1.610 1_455 S
N220 S219 1.613 . S
N220 C223 1.350 . S
N221 S219 1.610 1_655 S
N221 C222 1.351 . S
C222 C216 1.428 . S
C222 N221 1.351 . S
C222 C223 1.434 1_655 S
C223 C214 1.429 . S
C223 N220 1.350 . S
C223 C222 1.434 1_455 S
C224 C225 1.369 1_655 S
C224 C226 1.419 . S
C224 H228 0.930 . S
C225 C224 1.369 1_455 S
C225 C234 1.429 1_565 S
C226 C224 1.419 . S
C226 C227 1.365 . S
C226 H229 0.929 . S
C227 C226 1.365 . S
C227 C233 1.427 1_665 S
H228 C224 0.930 . S
H229 C226 0.929 . S
S230 N231 1.613 . S
S230 N232 1.610 . S
N231 S230 1.613 . S
N231 C234 1.350 . S
N232 S230 1.610 . S
N232 C233 1.351 . S
C233 C227 1.427 1_445 S
C233 N232 1.351 . S
C233 C234 1.434 . S
C234 C225 1.429 1_545 S
C234 N231 1.350 . S
C234 C233 1.434 . S
C235 C236 1.369 . S
C235 C237 1.419 . S
C235 H239 0.930 . S
C236 C235 1.369 . S
C236 C245 1.429 1_445 S
C237 C235 1.419 . S
C237 C238 1.363 1_455 S
C237 H240 0.929 . S
C238 C237 1.363 1_655 S
C238 C244 1.428 1_545 S
H239 C235 0.930 . S
H240 C237 0.929 . S
S241 N242 1.613 . S
S241 N243 1.610 . S
N242 S241 1.613 . S
N242 C245 1.350 . S
N243 S241 1.610 . S
N243 C244 1.351 . S
C244 C238 1.428 1_565 S
C244 N243 1.351 . S
C244 C245 1.434 . S
C245 C236 1.429 1_665 S
C245 N242 1.350 . S
C245 C244 1.434 . S
C246 C247 1.369 . S
C246 C248 1.419 . S
C246 H250 0.930 . S
C247 C246 1.369 . S
C247 C256 1.429 . S
C248 C246 1.419 . S
C248 C249 1.363 . S
C248 H251 0.929 . S
C249 C248 1.363 . S
C249 C255 1.428 . S
H250 C246 0.930 . S
H251 C248 0.929 . S
S252 N253 1.613 . S
S252 N254 1.610 . S
N253 S252 1.613 . S
N253 C256 1.350 . S
N254 S252 1.610 . S
N254 C255 1.351 . S
C255 C249 1.428 . S
C255 N254 1.351 . S
C255 C256 1.434 . S
C256 C247 1.429 . S
C256 N253 1.350 . S
C256 C255 1.434 . S
C257 C258 1.369 . S
C257 C259 1.419 . S
C257 H261 0.930 . S
C258 C257 1.369 . S
C258 C267 1.429 . S
C259 C257 1.419 . S
C259 C260 1.363 . S
C259 H262 0.929 . S
C260 C259 1.363 . S
C260 C266 1.428 . S
H261 C257 0.930 . S
H262 C259 0.929 . S
S263 N264 1.613 . S
S263 N265 1.610 . S
N264 S263 1.613 . S
N264 C267 1.350 . S
N265 S263 1.610 . S
N265 C266 1.351 . S
C266 C260 1.428 . S
C266 N265 1.351 . S
C266 C267 1.434 . S
C267 C258 1.429 . S
C267 N264 1.350 . S
C267 C266 1.434 . S
C137 C85 1.614 1_556 S
C139 C8 1.617 . S
C148 C76 1.613 . S
C150 C17 1.615 1_556 S
C159 C51 1.617 . S
C161 C110 1.611 . S
C170 C42 1.615 . S
C172 C119 1.617 . S
C181 C0 1.045 1_556 S
C183 C29 1.037 . S
C192 C63 1.041 . S
C194 C34 1.041 . S
C203 C68 1.038 1_556 S
C205 C97 1.043 . S
C214 C102 1.038 . S
C216 C131 1.044 . S
C225 C47 1.499 1_455 S
C227 C13 1.498 1_655 S
C236 C4 1.499 1_455 S
C238 C38 1.498 1_655 S
C247 C115 1.500 . S
C249 C81 1.498 . S
C258 C106 1.498 . S
C260 C72 1.499 . S
