# Generated by pormake.
# Topology umz, (4)-cn, num edge types: 1
# Building blocks:
#     Node 0, Type 0, BuildingBlock: UXUYUI_clean_sbu_0, # of connection points: 4
#     Node 1, Type 0, BuildingBlock: UXUYUI_clean_sbu_0, # of connection points: 4
#     Node 2, Type 0, BuildingBlock: UXUYUI_clean_sbu_0, # of connection points: 4
#     Node 3, Type 0, BuildingBlock: UXUYUI_clean_sbu_0, # of connection points: 4
#     Node 4, Type 0, BuildingBlock: UXUYUI_clean_sbu_0, # of connection points: 4
#     Node 5, Type 0, BuildingBlock: UXUYUI_clean_sbu_0, # of connection points: 4
#     Node 6, Type 0, BuildingBlock: UXUYUI_clean_sbu_0, # of connection points: 4
#     Node 7, Type 0, BuildingBlock: UXUYUI_clean_sbu_0, # of connection points: 4
#     Node 8, Type 0, BuildingBlock: UXUYUI_clean_sbu_0, # of connection points: 4
#     Node 9, Type 0, BuildingBlock: UXUYUI_clean_sbu_0, # of connection points: 4
#     Node 10, Type 0, BuildingBlock: UXUYUI_clean_sbu_0, # of connection points: 4
#     Node 11, Type 0, BuildingBlock: UXUYUI_clean_sbu_0, # of connection points: 4
#     Node 12, Type 0, BuildingBlock: UXUYUI_clean_sbu_0, # of connection points: 4
#     Node 13, Type 0, BuildingBlock: UXUYUI_clean_sbu_0, # of connection points: 4
#     Node 14, Type 0, BuildingBlock: UXUYUI_clean_sbu_0, # of connection points: 4
#     Node 15, Type 0, BuildingBlock: UXUYUI_clean_sbu_0, # of connection points: 4
#     Edge 16, Type (0, 0), None
#     Edge 17, Type (0, 0), None
#     Edge 18, Type (0, 0), None
#     Edge 19, Type (0, 0), None
#     Edge 20, Type (0, 0), None
#     Edge 21, Type (0, 0), None
#     Edge 22, Type (0, 0), None
#     Edge 23, Type (0, 0), None
#     Edge 24, Type (0, 0), None
#     Edge 25, Type (0, 0), None
#     Edge 26, Type (0, 0), None
#     Edge 27, Type (0, 0), None
#     Edge 28, Type (0, 0), None
#     Edge 29, Type (0, 0), None
#     Edge 30, Type (0, 0), None
#     Edge 31, Type (0, 0), None
#     Edge 32, Type (0, 0), None
#     Edge 33, Type (0, 0), None
#     Edge 34, Type (0, 0), None
#     Edge 35, Type (0, 0), None
#     Edge 36, Type (0, 0), None
#     Edge 37, Type (0, 0), None
#     Edge 38, Type (0, 0), None
#     Edge 39, Type (0, 0), None
#     Edge 40, Type (0, 0), None
#     Edge 41, Type (0, 0), None
#     Edge 42, Type (0, 0), None
#     Edge 43, Type (0, 0), None
#     Edge 44, Type (0, 0), None
#     Edge 45, Type (0, 0), None
#     Edge 46, Type (0, 0), None
#     Edge 47, Type (0, 0), None
# Relax obj value: 0.340
# Max RMSD: 0.205
# Mean RMSD: 0.205
data_MOF--net-umz--node1-UXUYUI_clean_sbu_0--edge1-none
_symmetry_space_group_name_H-M    P1
_symmetry_Int_Tables_number       1
_symmetry_cell_setting            triclinic
loop_
_symmetry_equiv_pos_as_xyz
'x, y, z'
_cell_length_a     55.137701
_cell_length_b     55.1377
_cell_length_c     20.062651
_cell_angle_alpha  89.994822
_cell_angle_beta   90.0033
_cell_angle_gamma 89.996275
loop_
_atom_site_label
_atom_site_type_symbol
_atom_site_fract_x
_atom_site_fract_y
_atom_site_fract_z
_atom_type_partial_charge
Li0 Li -0.00085 0.62475 0.15411 0.0
Li1 Li 0.03748 0.63616 0.20591 0.0
Li2 Li 0.01849 0.66169 0.11969 0.0
Li3 Li 0.03782 0.62341 0.09078 0.0
C4 C 0.99847 0.67503 0.23385 0.0
N5 N 0.98382 0.7199 0.27978 0.0
C6 C 0.01279 0.68767 0.27963 0.0
C7 C 0.97662 0.68506 0.21181 0.0
C8 C 0.00506 0.71036 0.30222 0.0
C9 C 0.96957 0.70783 0.23547 0.0
C10 C 0.0357 0.58681 0.21148 0.0
C11 C 0.06768 0.56261 0.25972 0.0
N12 N 0.05139 0.55253 0.30242 0.0
C13 C 0.01926 0.5761 0.25565 0.0
C14 C 0.06011 0.57996 0.21342 0.0
C15 C 0.02756 0.55886 0.30133 0.0
C16 C 0.96245 0.58844 0.14416 0.0
N17 N 0.96997 0.60862 0.17711 0.0
C18 C 0.94111 0.60179 0.26394 0.0
C19 C 0.95944 0.61573 0.23524 0.0
C20 C 0.9334 0.58062 0.23179 0.0
C21 C 0.94375 0.57427 0.17032 0.0
H22 H 0.9718 0.58259 0.09969 0.0
H23 H 0.96625 0.63145 0.26138 0.0
C24 C 0.07861 0.63174 0.28898 0.0
N25 N 0.05401 0.63238 0.28737 0.0
C26 C 0.09043 0.61949 0.34042 0.0
C27 C 0.0514 0.6112 0.39063 0.0
C28 C 0.04037 0.6237 0.33843 0.0
C29 C 0.07665 0.60782 0.38992 0.0
H30 H 0.08895 0.63884 0.24768 0.0
H31 H 0.0208 0.62414 0.33485 0.0
C32 C 0.98701 0.62645 0.02633 0.0
N33 N 0.94848 0.60681 0.95691 0.0
C34 C 0.99059 0.60638 0.98496 0.0
C35 C 0.96391 0.63667 0.03205 0.0
C36 C 0.97085 0.59669 0.95032 0.0
C37 C 0.94464 0.62642 0.99668 0.0
C38 C 0.07425 0.65635 0.09683 0.0
C39 C 0.07655 0.67594 0.05304 0.0
C40 C 0.09348 0.64001 0.104 0.0
C41 C 0.09799 0.67875 0.01674 0.0
C42 C 0.1146 0.64342 0.0667 0.0
N43 N 0.1164 0.66256 0.0242 0.0
C44 C 0.02156 0.71348 0.11451 0.0
C45 C 0.00388 0.69385 0.02123 0.0
C46 C 0.02008 0.73587 0.08222 0.0
N47 N 0.0135 0.69308 0.0836 0.0
C48 C 0.00236 0.71575 0.98683 0.0
C49 C 0.01073 0.73705 0.01712 0.0
H50 H 0.02992 0.71225 0.16311 0.0
H51 H 0.9981 0.67733 0.99713 0.0
C52 C 0.06413 0.58491 0.02934 0.0
N53 N 0.05636 0.60818 0.02337 0.0
C54 C 0.07955 0.57499 0.98134 0.0
C55 C 0.07843 0.61316 0.92207 0.0
C56 C 0.06263 0.6221 0.97028 0.0
C57 C 0.08715 0.58926 0.92706 0.0
H58 H 0.05837 0.57405 0.07125 0.0
H59 H 0.05581 0.64043 0.96637 0.0
O60 O 0.00574 0.65287 0.21094 0.0
O61 O 0.02795 0.60389 0.16669 0.0
O62 O 0.00606 0.63621 0.06064 0.0
O63 O 0.05326 0.65316 0.13225 0.0
H64 H 0.02973 0.68009 0.29719 0.0
H65 H 0.96534 0.67542 0.17649 0.0
H66 H 0.01599 0.72042 0.33746 0.0
H67 H 0.95278 0.7159 0.21859 0.0
H68 H 0.08653 0.55722 0.26185 0.0
H69 H 0.00032 0.58115 0.25514 0.0
H70 H 0.07314 0.58813 0.18002 0.0
H71 H 0.01504 0.55054 0.336 0.0
H72 H 0.9336 0.60701 0.31173 0.0
H73 H 0.93849 0.55774 0.14498 0.0
H74 H 0.10999 0.61783 0.33906 0.0
H75 H 0.04007 0.60242 0.42752 0.0
H76 H 0.00838 0.5983 0.9799 0.0
H77 H 0.9609 0.65226 0.06377 0.0
H78 H 0.97332 0.58111 0.91828 0.0
H79 H 0.92663 0.63405 0.00087 0.0
H80 H 0.0619 0.68876 0.04671 0.0
H81 H 0.09194 0.62457 0.13686 0.0
H82 H 0.09996 0.69378 0.98249 0.0
H83 H 0.12951 0.63079 0.0713 0.0
H84 H 0.02707 0.75191 0.10675 0.0
H85 H 0.995 0.71599 0.93677 0.0
H86 H 0.0851 0.55625 0.98631 0.0
H87 H 0.08384 0.62498 0.88166 0.0
Li88 Li 0.87249 -0.00077 0.65424 0.0
Li89 Li 0.86104 0.03755 0.70604 0.0
Li90 Li 0.83553 0.01855 0.61981 0.0
Li91 Li 0.8738 0.03791 0.59092 0.0
C92 C 0.8222 0.99851 0.73398 0.0
N93 N 0.77735 0.98382 0.77993 0.0
C94 C 0.80955 0.01281 0.77977 0.0
C95 C 0.81219 0.97666 0.71193 0.0
C96 C 0.78687 0.00507 0.80237 0.0
C97 C 0.78944 0.96958 0.7356 0.0
C98 C 0.9104 0.0358 0.71161 0.0
C99 C 0.93459 0.06778 0.75983 0.0
N100 N 0.94468 0.0515 0.80253 0.0
C101 C 0.92112 0.01935 0.75579 0.0
C102 C 0.91724 0.06021 0.71354 0.0
C103 C 0.93836 0.02766 0.80146 0.0
C104 C 0.9088 0.96254 0.64426 0.0
N105 N 0.88862 0.97006 0.67723 0.0
C106 C 0.89548 0.94119 0.76405 0.0
C107 C 0.88152 0.95952 0.73536 0.0
C108 C 0.91664 0.93348 0.73188 0.0
C109 C 0.92298 0.94384 0.6704 0.0
H110 H 0.91464 0.9719 0.59978 0.0
H111 H 0.8658 0.96633 0.76152 0.0
C112 C 0.86546 0.07868 0.78912 0.0
N113 N 0.86482 0.05408 0.78751 0.0
C114 C 0.8777 0.09049 0.84055 0.0
C115 C 0.886 0.05147 0.89077 0.0
C116 C 0.8735 0.04044 0.83857 0.0
C117 C 0.88937 0.07672 0.89006 0.0
H118 H 0.85836 0.08902 0.74782 0.0
H119 H 0.87307 0.02086 0.83499 0.0
C120 C 0.87079 0.98709 0.52645 0.0
N121 N 0.89042 0.94858 0.45699 0.0
C122 C 0.89086 0.99069 0.48507 0.0
C123 C 0.86057 0.964 0.53215 0.0
C124 C 0.90054 0.97096 0.45041 0.0
C125 C 0.87082 0.94473 0.49677 0.0
C126 C 0.84084 0.07432 0.59697 0.0
C127 C 0.82124 0.07661 0.55319 0.0
C128 C 0.85716 0.09356 0.60412 0.0
C129 C 0.81842 0.09806 0.5169 0.0
C130 C 0.85374 0.11468 0.56684 0.0
N131 N 0.8346 0.11647 0.52436 0.0
C132 C 0.78373 0.02157 0.61463 0.0
C133 C 0.80339 0.00396 0.52129 0.0
C134 C 0.76134 0.02007 0.58233 0.0
N135 N 0.80415 0.01355 0.58369 0.0
C136 C 0.7815 0.00242 0.48689 0.0
C137 C 0.76019 0.01075 0.51721 0.0
H138 H 0.78495 0.02991 0.66325 0.0
H139 H 0.81992 0.99821 0.49718 0.0
C140 C 0.9123 0.06421 0.52948 0.0
N141 N 0.88903 0.05645 0.52351 0.0
C142 C 0.92223 0.07963 0.48147 0.0
C143 C 0.88406 0.07853 0.42222 0.0
C144 C 0.87511 0.06274 0.47043 0.0
C145 C 0.90796 0.08723 0.42719 0.0
H146 H 0.92316 0.05844 0.57138 0.0
H147 H 0.85678 0.05592 0.46653 0.0
O148 O 0.84435 0.00581 0.71106 0.0
O149 O 0.89333 0.02803 0.66683 0.0
O150 O 0.86102 0.00614 0.56078 0.0
O151 O 0.84404 0.05334 0.63238 0.0
H152 H 0.81712 0.02976 0.79734 0.0
H153 H 0.82184 0.96539 0.6766 0.0
H154 H 0.7768 0.01598 0.83763 0.0
H155 H 0.78138 0.95278 0.71871 0.0
H156 H 0.93997 0.08663 0.76195 0.0
H157 H 0.91607 0.00042 0.75529 0.0
H158 H 0.90906 0.07323 0.68013 0.0
H159 H 0.94668 0.01515 0.83614 0.0
H160 H 0.89026 0.93368 0.81184 0.0
H161 H 0.93951 0.93858 0.64504 0.0
H162 H 0.87936 0.11006 0.83919 0.0
H163 H 0.89478 0.04013 0.92766 0.0
H164 H 0.89893 0.00848 0.48002 0.0
H165 H 0.84498 0.96099 0.56388 0.0
H166 H 0.91612 0.97342 0.41836 0.0
H167 H 0.86319 0.92672 0.50094 0.0
H168 H 0.80843 0.06196 0.54687 0.0
H169 H 0.87262 0.09202 0.63698 0.0
H170 H 0.80339 0.10003 0.48266 0.0
H171 H 0.86637 0.1296 0.57143 0.0
H172 H 0.74529 0.02702 0.60688 0.0
H173 H 0.78128 0.99508 0.43681 0.0
H174 H 0.94098 0.08517 0.48644 0.0
H175 H 0.87223 0.08395 0.38181 0.0
Li176 Li 0.49804 0.87244 0.15423 0.0
Li177 Li 0.45971 0.86102 0.20601 0.0
Li178 Li 0.4787 0.83549 0.11979 0.0
Li179 Li 0.45936 0.87378 0.09089 0.0
C180 C 0.49871 0.82214 0.23396 0.0
N181 N 0.51337 0.77728 0.27989 0.0
C182 C 0.4844 0.80951 0.27973 0.0
C183 C 0.52056 0.81212 0.21192 0.0
C184 C 0.49212 0.78681 0.30232 0.0
C185 C 0.52762 0.78936 0.23558 0.0
C186 C 0.46148 0.91038 0.21158 0.0
C187 C 0.4295 0.93458 0.25978 0.0
N188 N 0.44579 0.94466 0.30249 0.0
C189 C 0.47792 0.92108 0.25575 0.0
C190 C 0.43707 0.91723 0.21349 0.0
C191 C 0.46963 0.93833 0.30142 0.0
C192 C 0.53474 0.90874 0.14429 0.0
N193 N 0.52721 0.88856 0.17724 0.0
C194 C 0.55607 0.8954 0.26409 0.0
C195 C 0.53774 0.88145 0.23538 0.0
C196 C 0.56379 0.91657 0.23193 0.0
C197 C 0.55343 0.92291 0.17044 0.0
H198 H 0.52539 0.91459 0.0998 0.0
H199 H 0.53093 0.86573 0.26153 0.0
C200 C 0.41857 0.86545 0.28908 0.0
N201 N 0.44317 0.86481 0.28747 0.0
C202 C 0.40676 0.8777 0.3405 0.0
C203 C 0.44579 0.88598 0.39073 0.0
C204 C 0.45681 0.87348 0.33854 0.0
C205 C 0.42054 0.88937 0.39001 0.0
H206 H 0.40823 0.85836 0.24778 0.0
H207 H 0.47639 0.87304 0.33496 0.0
C208 C 0.51018 0.87075 0.02644 0.0
N209 N 0.5487 0.89038 0.95702 0.0
C210 C 0.50659 0.89082 0.98507 0.0
C211 C 0.53327 0.86052 0.03216 0.0
C212 C 0.52633 0.9005 0.95042 0.0
C213 C 0.55254 0.87076 0.99679 0.0
C214 C 0.42293 0.84085 0.09693 0.0
C215 C 0.42063 0.82125 0.05315 0.0
C216 C 0.4037 0.85718 0.10408 0.0
C217 C 0.39919 0.81844 0.01684 0.0
C218 C 0.38258 0.85377 0.06679 0.0
N219 N 0.38078 0.83464 0.0243 0.0
C220 C 0.47563 0.7837 0.11459 0.0
C221 C 0.49329 0.80335 0.02129 0.0
C222 C 0.47712 0.76132 0.08228 0.0
N223 N 0.48368 0.80411 0.08367 0.0
C224 C 0.49481 0.78146 0.98688 0.0
C225 C 0.48645 0.76015 0.01717 0.0
H226 H 0.46729 0.78492 0.1632 0.0
H227 H 0.49906 0.81988 0.9972 0.0
C228 C 0.43306 0.91229 0.02943 0.0
N229 N 0.44083 0.88902 0.02347 0.0
C230 C 0.41765 0.92222 0.98142 0.0
C231 C 0.41876 0.88405 0.92217 0.0
C232 C 0.43455 0.8751 0.97039 0.0
C233 C 0.41005 0.90795 0.92714 0.0
H234 H 0.43883 0.92315 0.07133 0.0
H235 H 0.44136 0.85677 0.96648 0.0
O236 O 0.49144 0.84431 0.21105 0.0
O237 O 0.46924 0.8933 0.1668 0.0
O238 O 0.49113 0.86099 0.06076 0.0
O239 O 0.44392 0.84403 0.13235 0.0
H240 H 0.46746 0.81709 0.2973 0.0
H241 H 0.53184 0.82177 0.17661 0.0
H242 H 0.4812 0.77675 0.33756 0.0
H243 H 0.54441 0.78129 0.2187 0.0
H244 H 0.41066 0.93997 0.2619 0.0
H245 H 0.49686 0.91603 0.25526 0.0
H246 H 0.42404 0.90906 0.18009 0.0
H247 H 0.48214 0.94664 0.3361 0.0
H248 H 0.56358 0.89017 0.31188 0.0
H249 H 0.5587 0.93944 0.1451 0.0
H250 H 0.3872 0.87937 0.33914 0.0
H251 H 0.45712 0.89476 0.42761 0.0
H252 H 0.48881 0.8989 0.98001 0.0
H253 H 0.53628 0.84492 0.06389 0.0
H254 H 0.52387 0.91609 0.91838 0.0
H255 H 0.57055 0.86313 0.00097 0.0
H256 H 0.43528 0.80843 0.04682 0.0
H257 H 0.40525 0.87263 0.13695 0.0
H258 H 0.39721 0.80342 0.98259 0.0
H259 H 0.36767 0.86641 0.07138 0.0
H260 H 0.47014 0.74527 0.10681 0.0
H261 H 0.50216 0.78124 0.93681 0.0
H262 H 0.4121 0.94096 0.98638 0.0
H263 H 0.41334 0.87222 0.88176 0.0
Li264 Li 0.62472 0.498 0.65422 0.0
Li265 Li 0.63616 0.45967 0.70603 0.0
Li266 Li 0.66168 0.47866 0.61979 0.0
Li267 Li 0.62339 0.45932 0.59091 0.0
C268 C 0.67502 0.49869 0.73395 0.0
N269 N 0.71987 0.51337 0.7799 0.0
C270 C 0.68766 0.48439 0.77974 0.0
C271 C 0.68503 0.52054 0.71191 0.0
C272 C 0.71035 0.49212 0.80234 0.0
C273 C 0.70779 0.52761 0.73557 0.0
C274 C 0.5868 0.46143 0.7116 0.0
C275 C 0.56261 0.42945 0.75982 0.0
N276 N 0.55253 0.44574 0.80252 0.0
C277 C 0.57609 0.47788 0.75577 0.0
C278 C 0.57996 0.43702 0.71353 0.0
C279 C 0.55885 0.46957 0.80144 0.0
C280 C 0.58841 0.53469 0.64425 0.0
N281 N 0.60859 0.52717 0.67721 0.0
C282 C 0.60175 0.55603 0.76404 0.0
C283 C 0.6157 0.5377 0.73535 0.0
C284 C 0.58058 0.56374 0.73187 0.0
C285 C 0.57424 0.55339 0.67039 0.0
H286 H 0.58257 0.52534 0.59976 0.0
H287 H 0.63142 0.53089 0.7615 0.0
C288 C 0.63174 0.41854 0.78912 0.0
N289 N 0.63238 0.44314 0.7875 0.0
C290 C 0.6195 0.40673 0.84056 0.0
C291 C 0.6112 0.44575 0.89076 0.0
C292 C 0.6237 0.45678 0.83856 0.0
C293 C 0.60783 0.4205 0.89005 0.0
H294 H 0.63884 0.4082 0.74783 0.0
H295 H 0.62414 0.47635 0.83497 0.0
C296 C 0.62642 0.51013 0.52643 0.0
N297 N 0.60678 0.54865 0.45697 0.0
C298 C 0.60635 0.50655 0.48506 0.0
C299 C 0.63664 0.53323 0.53213 0.0
C300 C 0.59666 0.52628 0.45039 0.0
C301 C 0.62639 0.5525 0.49675 0.0
C302 C 0.65635 0.4229 0.59697 0.0
C303 C 0.67595 0.4206 0.55319 0.0
C304 C 0.64002 0.40366 0.60414 0.0
C305 C 0.67876 0.39916 0.5169 0.0
C306 C 0.64344 0.38254 0.56685 0.0
N307 N 0.66258 0.38075 0.52437 0.0
C308 C 0.71347 0.47563 0.6146 0.0
C309 C 0.69381 0.49326 0.52127 0.0
C310 C 0.73586 0.47712 0.58228 0.0
N311 N 0.69306 0.48366 0.58367 0.0
C312 C 0.7157 0.49478 0.48685 0.0
C313 C 0.73701 0.48645 0.51716 0.0
H314 H 0.71226 0.46729 0.66322 0.0
H315 H 0.67728 0.49901 0.49716 0.0
C316 C 0.5849 0.43301 0.52946 0.0
N317 N 0.60817 0.44078 0.5235 0.0
C318 C 0.57497 0.4176 0.48146 0.0
C319 C 0.61314 0.41871 0.42221 0.0
C320 C 0.62208 0.4345 0.47042 0.0
C321 C 0.58924 0.41 0.42718 0.0
H322 H 0.57404 0.43878 0.57137 0.0
H323 H 0.64041 0.44131 0.46651 0.0
O324 O 0.65286 0.49141 0.71104 0.0
O325 O 0.60388 0.46919 0.66681 0.0
O326 O 0.63618 0.49108 0.56076 0.0
O327 O 0.65316 0.44388 0.63237 0.0
H328 H 0.68009 0.46744 0.79731 0.0
H329 H 0.67538 0.53182 0.67658 0.0
H330 H 0.72041 0.4812 0.83759 0.0
H331 H 0.71585 0.5444 0.71869 0.0
H332 H 0.55722 0.4106 0.76195 0.0
H333 H 0.58114 0.49681 0.75526 0.0
H334 H 0.58813 0.424 0.68013 0.0
H335 H 0.55053 0.48208 0.83611 0.0
H336 H 0.60697 0.56354 0.81183 0.0
H337 H 0.55771 0.55866 0.64503 0.0
H338 H 0.61784 0.38716 0.8392 0.0
H339 H 0.60242 0.45709 0.92763 0.0
H340 H 0.59827 0.48876 0.48 0.0
H341 H 0.65223 0.53624 0.56386 0.0
H342 H 0.58108 0.52382 0.41835 0.0
H343 H 0.63402 0.57051 0.50092 0.0
H344 H 0.68876 0.43525 0.54686 0.0
H345 H 0.62457 0.4052 0.637 0.0
H346 H 0.69379 0.39718 0.48266 0.0
H347 H 0.63081 0.36763 0.57145 0.0
H348 H 0.75191 0.47016 0.60683 0.0
H349 H 0.71592 0.50213 0.43677 0.0
H350 H 0.55623 0.41205 0.48643 0.0
H351 H 0.62496 0.41329 0.38181 0.0
Li352 Li 0.01855 0.83553 0.87732 0.0
Li353 Li 0.03791 0.87381 0.90621 0.0
Li354 Li -0.00078 0.87249 0.84289 0.0
Li355 Li 0.03755 0.86105 0.79109 0.0
C356 C 0.98709 0.87079 0.97069 0.0
N357 N 0.94857 0.89043 0.04013 0.0
C358 C 0.99068 0.89086 0.01206 0.0
C359 C 0.96399 0.86057 0.96498 0.0
C360 C 0.97095 0.90055 0.04672 0.0
C361 C 0.94473 0.87082 0.00036 0.0
C362 C 0.07432 0.84085 0.90016 0.0
C363 C 0.11468 0.85374 0.93029 0.0
N364 N 0.11647 0.83461 0.97278 0.0
C365 C 0.07661 0.82125 0.94394 0.0
C366 C 0.09355 0.85717 0.89301 0.0
C367 C 0.09805 0.81842 0.98023 0.0
C368 C 0.02157 0.78374 0.8825 0.0
N369 N 0.01355 0.80415 0.91344 0.0
C370 C 0.00242 0.7815 0.01024 0.0
C371 C 0.00395 0.80339 0.97583 0.0
C372 C 0.01074 0.76019 0.97992 0.0
C373 C 0.02007 0.76135 0.9148 0.0
H374 H 0.02991 0.78495 0.83388 0.0
H375 H 0.9982 0.81992 -6e-05 0.0
C376 C 0.06421 0.91231 0.96765 0.0
N377 N 0.05645 0.88903 0.97362 0.0
C378 C 0.07962 0.92223 0.01565 0.0
C379 C 0.07852 0.88406 0.07491 0.0
C380 C 0.06273 0.87511 0.0267 0.0
C381 C 0.08723 0.90796 0.06994 0.0
H382 H 0.05844 0.92316 0.92575 0.0
H383 H 0.05592 0.85678 0.03061 0.0
C384 C 0.99851 0.8222 0.76316 0.0
N385 N 0.98382 0.77736 0.71721 0.0
C386 C 0.01281 0.80956 0.71737 0.0
C387 C 0.97666 0.81219 0.78521 0.0
C388 C 0.00507 0.78687 0.69477 0.0
C389 C 0.96959 0.78944 0.76154 0.0
C390 C 0.03579 0.91041 0.78552 0.0
C391 C 0.01935 0.92112 0.74134 0.0
C392 C 0.0602 0.91725 0.78359 0.0
C393 C 0.02765 0.93836 0.69567 0.0
C394 C 0.06778 0.9346 0.7373 0.0
N395 N 0.05149 0.94468 0.69459 0.0
C396 C 0.96254 0.90881 0.85287 0.0
C397 C 0.95952 0.88153 0.76178 0.0
C398 C 0.94384 0.92298 0.82673 0.0
N399 N 0.97005 0.88862 0.8199 0.0
C400 C 0.94118 0.89548 0.73309 0.0
C401 C 0.93348 0.91665 0.76526 0.0
H402 H 0.9719 0.91465 0.89735 0.0
H403 H 0.96632 0.8658 0.73562 0.0
C404 C 0.07868 0.86546 0.70801 0.0
N405 N 0.05408 0.86483 0.70963 0.0
C406 C 0.09049 0.8777 0.65658 0.0
C407 C 0.05146 0.886 0.60636 0.0
C408 C 0.04044 0.87351 0.65856 0.0
C409 C 0.07671 0.88938 0.60707 0.0
H410 H 0.08901 0.85836 0.74931 0.0
H411 H 0.02086 0.87307 0.66215 0.0
O412 O 0.00614 0.86103 0.93636 0.0
O413 O 0.05333 0.84404 0.86475 0.0
O414 O 0.0058 0.84436 0.78608 0.0
O415 O 0.02803 0.89333 0.83031 0.0
H416 H 0.00847 0.89893 0.01712 0.0
H417 H 0.96098 0.84498 0.93325 0.0
H418 H 0.97342 0.91613 0.07876 0.0
H419 H 0.92672 0.86319 0.99619 0.0
H420 H 0.12959 0.86637 0.9257 0.0
H421 H 0.06196 0.80843 0.95026 0.0
H422 H 0.09202 0.87262 0.86015 0.0
H423 H 0.10003 0.80339 0.01447 0.0
H424 H 0.99507 0.78128 0.06031 0.0
H425 H 0.02703 0.74529 0.89026 0.0
H426 H 0.08517 0.94098 0.01069 0.0
H427 H 0.08395 0.87223 0.11532 0.0
H428 H 0.02976 0.81713 0.69979 0.0
H429 H 0.96539 0.82185 0.82054 0.0
H430 H 0.01598 0.77681 0.65952 0.0
H431 H 0.95279 0.78138 0.77843 0.0
H432 H 0.00042 0.91607 0.74184 0.0
H433 H 0.07323 0.90907 0.817 0.0
H434 H 0.01515 0.94668 0.66098 0.0
H435 H 0.08662 0.93998 0.73517 0.0
H436 H 0.93858 0.93952 0.85208 0.0
H437 H 0.93367 0.89026 0.6853 0.0
H438 H 0.11006 0.87936 0.65794 0.0
H439 H 0.04013 0.89479 0.56948 0.0
Li440 Li 0.66169 0.01848 0.37744 0.0
Li441 Li 0.62341 0.03782 0.40635 0.0
Li442 Li 0.62474 -0.00086 0.34301 0.0
Li443 Li 0.63616 0.03747 0.29122 0.0
C444 C 0.62644 0.987 0.47079 0.0
N445 N 0.60681 0.94847 0.54021 0.0
C446 C 0.60637 0.99058 0.51216 0.0
C447 C 0.63667 0.9639 0.46508 0.0
C448 C 0.59669 0.97085 0.54681 0.0
C449 C 0.62642 0.94463 0.50044 0.0
C450 C 0.65634 0.07424 0.40029 0.0
C451 C 0.64342 0.1146 0.43042 0.0
N452 N 0.66255 0.11639 0.47292 0.0
C453 C 0.67594 0.07654 0.44408 0.0
C454 C 0.64001 0.09348 0.39313 0.0
C455 C 0.67875 0.09798 0.48038 0.0
C456 C 0.71348 0.02157 0.38261 0.0
N457 N 0.69308 0.0135 0.41353 0.0
C458 C 0.71575 0.00236 0.51029 0.0
C459 C 0.69385 0.00387 0.47589 0.0
C460 C 0.73705 0.01073 0.48 0.0
C461 C 0.73587 0.02009 0.41491 0.0
H462 H 0.71225 0.02992 0.33402 0.0
H463 H 0.67733 0.99809 0.49999 0.0
C464 C 0.58491 0.06413 0.46779 0.0
N465 N 0.60818 0.05635 0.47376 0.0
C466 C 0.57499 0.07954 0.51579 0.0
C467 C 0.61316 0.07842 0.57506 0.0
C468 C 0.6221 0.06263 0.52685 0.0
C469 C 0.58926 0.08714 0.57007 0.0
H470 H 0.57405 0.05836 0.42589 0.0
H471 H 0.64043 0.0558 0.53076 0.0
C472 C 0.67504 0.99847 0.26328 0.0
N473 N 0.7199 0.98383 0.21735 0.0
C474 C 0.68767 0.01279 0.2175 0.0
C475 C 0.68507 0.97663 0.28532 0.0
C476 C 0.71036 0.00507 0.19491 0.0
C477 C 0.70783 0.96957 0.26166 0.0
C478 C 0.58681 0.0357 0.28565 0.0
C479 C 0.5761 0.01925 0.24148 0.0
C480 C 0.57996 0.06011 0.28372 0.0
C481 C 0.55886 0.02755 0.19581 0.0
C482 C 0.56261 0.06768 0.23742 0.0
N483 N 0.55253 0.05139 0.19472 0.0
C484 C 0.58844 0.96245 0.35296 0.0
C485 C 0.61573 0.95944 0.2619 0.0
C486 C 0.57427 0.94375 0.3268 0.0
N487 N 0.60862 0.96997 0.32002 0.0
C488 C 0.60179 0.9411 0.23319 0.0
C489 C 0.58061 0.9334 0.26533 0.0
H490 H 0.58259 0.9718 0.39743 0.0
H491 H 0.63146 0.96624 0.23576 0.0
C492 C 0.63173 0.07861 0.20814 0.0
N493 N 0.63238 0.05401 0.20976 0.0
C494 C 0.61949 0.09042 0.15671 0.0
C495 C 0.6112 0.0514 0.10649 0.0
C496 C 0.6237 0.04037 0.15869 0.0
C497 C 0.60782 0.07665 0.10721 0.0
H498 H 0.63883 0.08894 0.24944 0.0
H499 H 0.62414 0.02079 0.16228 0.0
O500 O 0.63621 0.00605 0.43649 0.0
O501 O 0.65316 0.05326 0.36488 0.0
O502 O 0.65287 0.00574 0.28619 0.0
O503 O 0.60389 0.02794 0.33044 0.0
H504 H 0.5983 0.00837 0.51723 0.0
H505 H 0.65226 0.9609 0.43335 0.0
H506 H 0.5811 0.97331 0.57884 0.0
H507 H 0.63405 0.92662 0.49625 0.0
H508 H 0.63078 0.12951 0.42583 0.0
H509 H 0.68876 0.06189 0.45041 0.0
H510 H 0.62456 0.09193 0.36026 0.0
H511 H 0.69377 0.09996 0.51463 0.0
H512 H 0.71599 0.99499 0.56035 0.0
H513 H 0.75191 0.02708 0.39038 0.0
H514 H 0.55625 0.0851 0.51082 0.0
H515 H 0.62498 0.08384 0.61546 0.0
H516 H 0.68008 0.02973 0.19994 0.0
H517 H 0.67542 0.96534 0.32063 0.0
H518 H 0.72042 0.016 0.15967 0.0
H519 H 0.7159 0.95278 0.27854 0.0
H520 H 0.58115 0.00032 0.24199 0.0
H521 H 0.58813 0.07314 0.31712 0.0
H522 H 0.55054 0.01504 0.16113 0.0
H523 H 0.55722 0.08652 0.23528 0.0
H524 H 0.55773 0.93849 0.35214 0.0
H525 H 0.60701 0.9336 0.1854 0.0
H526 H 0.61783 0.10999 0.15806 0.0
H527 H 0.60242 0.04007 0.06961 0.0
Li528 Li 0.47867 0.66168 0.87733 0.0
Li529 Li 0.45932 0.6234 0.90622 0.0
Li530 Li 0.498 0.62473 0.8429 0.0
Li531 Li 0.45968 0.63616 0.79109 0.0
C532 C 0.51014 0.62642 0.97069 0.0
N533 N 0.54866 0.60678 0.04013 0.0
C534 C 0.50655 0.60635 0.01206 0.0
C535 C 0.53324 0.63664 0.96498 0.0
C536 C 0.52629 0.59666 0.04672 0.0
C537 C 0.55251 0.62639 0.00036 0.0
C538 C 0.4229 0.65635 0.90016 0.0
C539 C 0.38255 0.64344 0.93028 0.0
N540 N 0.38075 0.66258 0.97276 0.0
C541 C 0.42061 0.67595 0.94393 0.0
C542 C 0.40367 0.64003 0.89299 0.0
C543 C 0.39916 0.67877 0.98022 0.0
C544 C 0.47563 0.71347 0.88252 0.0
N545 N 0.48366 0.69306 0.91345 0.0
C546 C 0.49479 0.7157 0.01026 0.0
C547 C 0.49327 0.69382 0.97584 0.0
C548 C 0.48645 0.73702 0.97996 0.0
C549 C 0.47712 0.73586 0.91484 0.0
H550 H 0.46729 0.71226 0.83391 0.0
H551 H 0.49902 0.67729 -6e-05 0.0
C552 C 0.43302 0.5849 0.96767 0.0
N553 N 0.44079 0.60817 0.97363 0.0
C554 C 0.41761 0.57497 0.01567 0.0
C555 C 0.41871 0.61314 0.07492 0.0
C556 C 0.4345 0.62209 0.02671 0.0
C557 C 0.41 0.58925 0.06995 0.0
H558 H 0.43879 0.57404 0.92577 0.0
H559 H 0.44132 0.64042 0.03061 0.0
C560 C 0.49869 0.67502 0.76316 0.0
N561 N 0.51336 0.71988 0.71722 0.0
C562 C 0.48439 0.68766 0.71738 0.0
C563 C 0.52054 0.68504 0.78521 0.0
C564 C 0.49211 0.71035 0.69478 0.0
C565 C 0.52761 0.7078 0.76154 0.0
C566 C 0.46144 0.5868 0.78553 0.0
C567 C 0.47788 0.5761 0.74136 0.0
C568 C 0.43703 0.57996 0.78361 0.0
C569 C 0.46958 0.55885 0.6957 0.0
C570 C 0.42946 0.56261 0.73732 0.0
N571 N 0.44574 0.55253 0.69462 0.0
C572 C 0.53469 0.58841 0.85287 0.0
C573 C 0.53771 0.6157 0.76178 0.0
C574 C 0.55339 0.57424 0.82673 0.0
N575 N 0.52717 0.6086 0.81991 0.0
C576 C 0.55604 0.60175 0.73309 0.0
C577 C 0.56375 0.58058 0.76525 0.0
H578 H 0.52534 0.58257 0.89735 0.0
H579 H 0.5309 0.63142 0.73563 0.0
C580 C 0.41854 0.63174 0.70801 0.0
N581 N 0.44314 0.63238 0.70963 0.0
C582 C 0.40673 0.6195 0.65658 0.0
C583 C 0.44576 0.6112 0.60637 0.0
C584 C 0.45678 0.6237 0.65857 0.0
C585 C 0.42051 0.60783 0.60708 0.0
H586 H 0.40821 0.63884 0.7493 0.0
H587 H 0.47636 0.62414 0.66216 0.0
O588 O 0.49109 0.63618 0.93637 0.0
O589 O 0.44389 0.65316 0.86475 0.0
O590 O 0.49141 0.65286 0.78608 0.0
O591 O 0.4692 0.60388 0.83032 0.0
H592 H 0.48876 0.59827 0.01712 0.0
H593 H 0.53624 0.65223 0.93325 0.0
H594 H 0.52382 0.58108 0.07877 0.0
H595 H 0.57052 0.63402 0.99618 0.0
H596 H 0.36763 0.63081 0.92568 0.0
H597 H 0.43526 0.68877 0.95026 0.0
H598 H 0.40521 0.62458 0.86014 0.0
H599 H 0.39719 0.69379 0.01446 0.0
H600 H 0.50214 0.71593 0.06033 0.0
H601 H 0.47015 0.75191 0.8903 0.0
H602 H 0.41206 0.55623 0.01071 0.0
H603 H 0.41329 0.62497 0.11532 0.0
H604 H 0.46744 0.68009 0.69981 0.0
H605 H 0.53182 0.67539 0.82053 0.0
H606 H 0.4812 0.72042 0.65954 0.0
H607 H 0.5444 0.71586 0.77843 0.0
H608 H 0.49682 0.58114 0.74186 0.0
H609 H 0.424 0.58813 0.81701 0.0
H610 H 0.48209 0.55054 0.66102 0.0
H611 H 0.41061 0.55722 0.7352 0.0
H612 H 0.55865 0.5577 0.85208 0.0
H613 H 0.56355 0.60697 0.6853 0.0
H614 H 0.38717 0.61783 0.65793 0.0
H615 H 0.45709 0.60242 0.56949 0.0
Li616 Li 0.83549 0.4787 0.37733 0.0
Li617 Li 0.87378 0.45936 0.40624 0.0
Li618 Li 0.87244 0.49804 0.34289 0.0
Li619 Li 0.86102 0.45971 0.29112 0.0
C620 C 0.87074 0.51018 0.47068 0.0
N621 N 0.89038 0.54871 0.54009 0.0
C622 C 0.89082 0.5066 0.51205 0.0
C623 C 0.86052 0.53328 0.46496 0.0
C624 C 0.9005 0.52633 0.54669 0.0
C625 C 0.87076 0.55255 0.50032 0.0
C626 C 0.84085 0.42293 0.4002 0.0
C627 C 0.85377 0.38258 0.43035 0.0
N628 N 0.83464 0.38078 0.47284 0.0
C629 C 0.82125 0.42063 0.44399 0.0
C630 C 0.85718 0.4037 0.39305 0.0
C631 C 0.81844 0.39919 0.48029 0.0
C632 C 0.78371 0.47563 0.38254 0.0
N633 N 0.80411 0.48368 0.41345 0.0
C634 C 0.78146 0.49481 0.51023 0.0
C635 C 0.80335 0.4933 0.47582 0.0
C636 C 0.76015 0.48645 0.47995 0.0
C637 C 0.76132 0.47711 0.41485 0.0
H638 H 0.78492 0.46728 0.33393 0.0
H639 H 0.81987 0.49907 0.49991 0.0
C640 C 0.91229 0.43307 0.4677 0.0
N641 N 0.88902 0.44083 0.47366 0.0
C642 C 0.92222 0.41765 0.51571 0.0
C643 C 0.88405 0.41876 0.57496 0.0
C644 C 0.8751 0.43455 0.52674 0.0
C645 C 0.90795 0.41005 0.56999 0.0
H646 H 0.92315 0.43884 0.4258 0.0
H647 H 0.85677 0.44137 0.53065 0.0
C648 C 0.82214 0.49871 0.26317 0.0
N649 N 0.77728 0.51336 0.21724 0.0
C650 C 0.80951 0.4844 0.2174 0.0
C651 C 0.81212 0.52056 0.2852 0.0
C652 C 0.78681 0.49212 0.19481 0.0
C653 C 0.78935 0.52761 0.26155 0.0
C654 C 0.91038 0.46148 0.28555 0.0
C655 C 0.92108 0.47793 0.24137 0.0
C656 C 0.91723 0.43708 0.28364 0.0
C657 C 0.93832 0.46963 0.19571 0.0
C658 C 0.93458 0.42951 0.23735 0.0
N659 N 0.94466 0.44579 0.19464 0.0
C660 C 0.90874 0.53474 0.35284 0.0
C661 C 0.88145 0.53774 0.26175 0.0
C662 C 0.92291 0.55343 0.32667 0.0
N663 N 0.88856 0.52721 0.31989 0.0
C664 C 0.8954 0.55608 0.23304 0.0
C665 C 0.91657 0.56379 0.26519 0.0
H666 H 0.91459 0.52538 0.39732 0.0
H667 H 0.86573 0.53094 0.23561 0.0
C668 C 0.86545 0.41857 0.20806 0.0
N669 N 0.86481 0.44317 0.20966 0.0
C670 C 0.8777 0.40676 0.15663 0.0
C671 C 0.88599 0.44579 0.1064 0.0
C672 C 0.87348 0.45681 0.15859 0.0
C673 C 0.88937 0.42054 0.10712 0.0
H674 H 0.85836 0.40824 0.24936 0.0
H675 H 0.87304 0.47639 0.16217 0.0
O676 O 0.86098 0.49113 0.43637 0.0
O677 O 0.84403 0.44392 0.36478 0.0
O678 O 0.84431 0.49144 0.28608 0.0
O679 O 0.8933 0.46924 0.33033 0.0
H680 H 0.8989 0.48881 0.51712 0.0
H681 H 0.84493 0.53628 0.43323 0.0
H682 H 0.91609 0.52387 0.57873 0.0
H683 H 0.86313 0.57056 0.49613 0.0
H684 H 0.86641 0.36767 0.42576 0.0
H685 H 0.80843 0.43528 0.45031 0.0
H686 H 0.87263 0.40525 0.36019 0.0
H687 H 0.80342 0.39721 0.51454 0.0
H688 H 0.78123 0.50217 0.5603 0.0
H689 H 0.74527 0.47013 0.39032 0.0
H690 H 0.94096 0.41211 0.51075 0.0
H691 H 0.87222 0.41334 0.61537 0.0
H692 H 0.81709 0.46746 0.19984 0.0
H693 H 0.82176 0.53184 0.32051 0.0
H694 H 0.77675 0.4812 0.15957 0.0
H695 H 0.78128 0.54441 0.27842 0.0
H696 H 0.91603 0.49686 0.24186 0.0
H697 H 0.90906 0.42405 0.31704 0.0
H698 H 0.94664 0.48214 0.16102 0.0
H699 H 0.93997 0.41066 0.23523 0.0
H700 H 0.93945 0.5587 0.35202 0.0
H701 H 0.89017 0.56358 0.18525 0.0
H702 H 0.87937 0.3872 0.158 0.0
H703 H 0.89476 0.45712 0.06951 0.0
Li704 Li 0.9625 0.3735 0.91529 0.0
Li705 Li 0.97961 0.33583 0.88374 0.0
Li706 Li -0.00085 0.37429 0.85162 0.0
Li707 Li 0.96087 0.36337 0.80091 0.0
C708 C 0.99868 0.36978 0.00381 0.0
N709 N 0.00551 0.38885 0.12975 0.0
C710 C 0.00098 0.35436 0.05875 0.0
C711 C -2e-05 0.39488 0.01283 0.0
C712 C 0.00443 0.36436 0.12204 0.0
C713 C 0.00337 0.40417 0.07693 0.0
C714 C 0.92642 0.34143 0.91656 0.0
C715 C 0.88396 0.34512 0.94355 0.0
N716 N 0.88807 0.33385 0.00278 0.0
C717 C 0.93021 0.3298 0.97762 0.0
C718 C 0.90309 0.34906 0.8992 0.0
C719 C 0.9106 0.32614 0.02051 0.0
C720 C 0.92723 0.40638 0.95475 0.0
N721 N 0.94238 0.38912 0.9794 0.0
C722 C 0.92327 0.39135 0.0859 0.0
C723 C 0.94071 0.38149 0.04364 0.0
C724 C 0.90725 0.40913 0.06175 0.0
C725 C 0.90948 0.41674 0.99528 0.0
H726 H 0.92847 0.41158 0.90292 0.0
H727 H 0.9523 0.36714 0.06162 0.0
C728 C 0.00496 0.29815 0.94702 0.0
N729 N 0.98453 0.3037 0.91233 0.0
C730 C 0.00676 0.27599 0.98037 0.0
C731 C 0.96687 0.2655 0.93902 0.0
C732 C 0.96598 0.28768 0.90598 0.0
C733 C 0.98716 0.25978 0.97824 0.0
H734 H 0.01932 0.31143 0.95149 0.0
H735 H 0.9499 0.29269 0.87834 0.0
C736 C 0.97443 0.41151 0.79131 0.0
N737 N 0.98316 0.44541 0.69266 0.0
C738 C 0.98655 0.40479 0.73288 0.0
C739 C 0.96674 0.43548 0.79942 0.0
C740 C 0.9908 0.4222 0.68366 0.0
C741 C 0.97132 0.45235 0.74899 0.0
C742 C 0.99017 0.32595 0.75104 0.0
C743 C 0.01004 0.31799 0.7137 0.0
C744 C 0.968 0.31376 0.74556 0.0
C745 C 0.00743 0.29796 0.67165 0.0
C746 C 0.96614 0.29381 0.70299 0.0
N747 N 0.98572 0.28638 0.66723 0.0
C748 C 0.04524 0.37929 0.7924 0.0
C749 C 0.02973 0.41467 0.84461 0.0
C750 C 0.06332 0.39285 0.76083 0.0
N751 N 0.0285 0.39053 0.83146 0.0
C752 C 0.04721 0.42891 0.81347 0.0
C753 C 0.06366 0.41805 0.76937 0.0
H754 H 0.04357 0.36012 0.78225 0.0
H755 H 0.01593 0.42323 0.87469 0.0
C756 C 0.92355 0.38555 0.74028 0.0
N757 N 0.94158 0.36973 0.72528 0.0
C758 C 0.91171 0.3982 0.69001 0.0
C759 C 0.93612 0.37682 0.60891 0.0
C760 C 0.94783 0.36479 0.66117 0.0
C761 C 0.91834 0.39441 0.62322 0.0
H762 H 0.91983 0.38991 0.79181 0.0
H763 H 0.96292 0.35289 0.65063 0.0
O764 O 0.9951 0.36033 0.94159 0.0
O765 O 0.94548 0.3455 0.87426 0.0
O766 O 0.97012 0.39487 0.84068 0.0
O767 O 0.99263 0.34548 0.79271 0.0
H768 H -0.0001 0.33489 0.0527 0.0
H769 H 0.99787 0.40704 0.971 0.0
H770 H 0.00616 0.35266 0.16506 0.0
H771 H 0.0042 0.42357 0.08474 0.0
H772 H 0.86582 0.35102 0.93086 0.0
H773 H 0.94821 0.3242 0.99256 0.0
H774 H 0.89976 0.35793 0.85202 0.0
H775 H 0.91332 0.31735 0.06813 0.0
H776 H 0.92245 0.38516 0.13706 0.0
H777 H 0.8974 0.43025 0.97449 0.0
H778 H 0.02268 0.27211 0.01014 0.0
H779 H 0.95159 0.25322 0.93547 0.0
H780 H 0.99272 0.38638 0.72559 0.0
H781 H 0.9574 0.44101 0.84436 0.0
H782 H 0.0002 0.41724 0.63834 0.0
H783 H 0.96549 0.47096 0.75469 0.0
H784 H 0.02733 0.32716 0.71713 0.0
H785 H 0.9523 0.31967 0.77327 0.0
H786 H 0.02268 0.29162 0.64254 0.0
H787 H 0.94909 0.28425 0.69829 0.0
H788 H 0.07579 0.38405 0.72684 0.0
H789 H 0.04711 0.44838 0.82095 0.0
H790 H 0.89865 0.41194 0.70404 0.0
H791 H 0.94164 0.37308 0.55817 0.0
Li792 Li 0.12376 0.9625 0.41523 0.0
Li793 Li 0.16143 0.97962 0.38368 0.0
Li794 Li 0.12297 -0.00084 0.35156 0.0
Li795 Li 0.1339 0.96088 0.30085 0.0
C796 C 0.12747 0.99868 0.50375 0.0
N797 N 0.10841 0.0055 0.6297 0.0
C798 C 0.1429 0.00097 0.5587 0.0
C799 C 0.10238 -3e-05 0.51279 0.0
C800 C 0.13289 0.00441 0.62199 0.0
C801 C 0.09308 0.00336 0.57689 0.0
C802 C 0.15583 0.92643 0.41651 0.0
C803 C 0.15215 0.88396 0.4435 0.0
N804 N 0.16342 0.88807 0.50273 0.0
C805 C 0.16746 0.93022 0.47757 0.0
C806 C 0.14821 0.9031 0.39915 0.0
C807 C 0.17113 0.9106 0.52046 0.0
C808 C 0.09088 0.92723 0.45469 0.0
N809 N 0.10814 0.94238 0.47934 0.0
C810 C 0.10591 0.92327 0.58584 0.0
C811 C 0.11578 0.94071 0.54357 0.0
C812 C 0.08812 0.90726 0.56169 0.0
C813 C 0.08051 0.90949 0.49522 0.0
H814 H 0.08568 0.92848 0.40287 0.0
H815 H 0.13012 0.95229 0.56155 0.0
C816 C 0.1991 0.00497 0.44697 0.0
N817 N 0.19355 0.98453 0.41228 0.0
C818 C 0.22126 0.00676 0.48032 0.0
C819 C 0.23176 0.96688 0.43897 0.0
C820 C 0.20958 0.96598 0.40592 0.0
C821 C 0.23748 0.98716 0.4782 0.0
H822 H 0.18582 0.01932 0.45144 0.0
H823 H 0.20458 0.94991 0.37828 0.0
C824 C 0.08575 0.97444 0.29124 0.0
N825 N 0.05185 0.98318 0.19259 0.0
C826 C 0.09247 0.98656 0.23282 0.0
C827 C 0.06178 0.96675 0.29936 0.0
C828 C 0.07507 0.99081 0.1836 0.0
C829 C 0.04492 0.97133 0.24893 0.0
C830 C 0.17131 0.99018 0.25099 0.0
C831 C 0.17927 0.01006 0.21366 0.0
C832 C 0.1835 0.96802 0.24551 0.0
C833 C 0.1993 0.00746 0.17162 0.0
C834 C 0.20346 0.96615 0.20294 0.0
N835 N 0.21088 0.98574 0.16719 0.0
C836 C 0.11795 0.04525 0.29234 0.0
C837 C 0.08258 0.02974 0.34457 0.0
C838 C 0.10438 0.06333 0.26078 0.0
N839 N 0.10672 0.0285 0.33141 0.0
C840 C 0.06833 0.04721 0.31344 0.0
C841 C 0.07918 0.06366 0.26933 0.0
H842 H 0.13712 0.04358 0.28218 0.0
H843 H 0.07403 0.01593 0.37466 0.0
C844 C 0.11172 0.92356 0.24023 0.0
N845 N 0.12754 0.94159 0.22522 0.0
C846 C 0.09907 0.91172 0.18996 0.0
C847 C 0.12045 0.93613 0.10886 0.0
C848 C 0.13247 0.94784 0.16112 0.0
C849 C 0.10286 0.91835 0.12317 0.0
H850 H 0.10736 0.91984 0.29175 0.0
H851 H 0.14438 0.96293 0.15057 0.0
O852 O 0.13693 0.99511 0.44153 0.0
O853 O 0.15177 0.94548 0.3742 0.0
O854 O 0.10239 0.97012 0.34062 0.0
O855 O 0.15178 0.99264 0.29266 0.0
H856 H 0.16236 -0.00011 0.55264 0.0
H857 H 0.09021 0.99787 0.47096 0.0
H858 H 0.1446 0.00614 0.66501 0.0
H859 H 0.07369 0.00418 0.5847 0.0
H860 H 0.14625 0.86583 0.43081 0.0
H861 H 0.17306 0.94821 0.49251 0.0
H862 H 0.13934 0.89977 0.35197 0.0
H863 H 0.17992 0.91332 0.56808 0.0
H864 H 0.1121 0.92244 0.637 0.0
H865 H 0.067 0.89741 0.47444 0.0
H866 H 0.22514 0.02268 0.5101 0.0
H867 H 0.24404 0.95159 0.43542 0.0
H868 H 0.11088 0.99273 0.22553 0.0
H869 H 0.05625 0.95741 0.3443 0.0
H870 H 0.08002 0.00022 0.13828 0.0
H871 H 0.0263 0.9655 0.25462 0.0
H872 H 0.17009 0.02735 0.21709 0.0
H873 H 0.17759 0.95231 0.27321 0.0
H874 H 0.20564 0.02271 0.14251 0.0
H875 H 0.21301 0.9491 0.19824 0.0
H876 H 0.11318 0.0758 0.22679 0.0
H877 H 0.04887 0.04711 0.32094 0.0
H878 H 0.08534 0.89866 0.20398 0.0
H879 H 0.12419 0.94166 0.05811 0.0
Li880 Li 0.51761 0.16139 0.88375 0.0
Li881 Li 0.53471 0.12371 0.91532 0.0
Li882 Li 0.53635 0.13385 0.80094 0.0
Li883 Li 0.49806 0.12293 0.85162 0.0
C884 C 0.5708 0.15576 0.91662 0.0
N885 N 0.60914 0.16333 0.00287 0.0
C886 C 0.567 0.16739 0.97768 0.0
C887 C 0.59412 0.14813 0.89928 0.0
C888 C 0.58662 0.17104 0.02058 0.0
C889 C 0.61326 0.15205 0.94365 0.0
C890 C 0.49852 0.12744 0.00381 0.0
C891 C 0.49382 0.09305 0.07697 0.0
N892 N 0.49168 0.10837 0.12977 0.0
C893 C 0.49623 0.14286 0.05875 0.0
C894 C 0.49722 0.10234 0.01286 0.0
C895 C 0.49278 0.13286 0.12204 0.0
C896 C 0.49226 0.19907 0.947 0.0
N897 N 0.5127 0.19352 0.91234 0.0
C898 C 0.53036 0.23171 0.93906 0.0
C899 C 0.53125 0.20954 0.90601 0.0
C900 C 0.51006 0.23744 0.97825 0.0
C901 C 0.49047 0.22123 0.98035 0.0
H902 H 0.4779 0.1858 0.95145 0.0
H903 H 0.54733 0.20453 0.87839 0.0
C904 C 0.56997 0.09082 0.95481 0.0
N905 N 0.55482 0.10808 0.97945 0.0
C906 C 0.58771 0.08045 0.99535 0.0
C907 C 0.57392 0.10584 0.08596 0.0
C908 C 0.55649 0.11571 0.04368 0.0
C909 C 0.58994 0.08806 0.06182 0.0
H910 H 0.56872 0.08562 0.90299 0.0
H911 H 0.5449 0.13006 0.06165 0.0
C912 C 0.50706 0.17127 0.75104 0.0
N913 N 0.51153 0.21085 0.66724 0.0
C914 C 0.4872 0.17924 0.71369 0.0
C915 C 0.52923 0.18345 0.74558 0.0
C916 C 0.48981 0.19927 0.67164 0.0
C917 C 0.53111 0.20341 0.70301 0.0
C918 C 0.52278 0.08571 0.79134 0.0
C919 C 0.51066 0.09243 0.7329 0.0
C920 C 0.53046 0.06174 0.79947 0.0
C921 C 0.50642 0.07503 0.68368 0.0
C922 C 0.52588 0.04487 0.74904 0.0
N923 N 0.51405 0.05181 0.69269 0.0
C924 C 0.57367 0.11165 0.74034 0.0
C925 C 0.5494 0.13242 0.66121 0.0
C926 C 0.5855 0.09899 0.69009 0.0
N927 N 0.55565 0.12748 0.72533 0.0
C928 C 0.5611 0.12039 0.60897 0.0
C929 C 0.57888 0.10278 0.62329 0.0
H930 H 0.57739 0.10729 0.79187 0.0
H931 H 0.53431 0.14433 0.65065 0.0
C932 C 0.45198 0.11794 0.79233 0.0
N933 N 0.46871 0.1067 0.83143 0.0
C934 C 0.43391 0.10437 0.76075 0.0
C935 C 0.45 0.06832 0.81346 0.0
C936 C 0.46747 0.08256 0.84461 0.0
C937 C 0.43356 0.07917 0.76932 0.0
H938 H 0.45365 0.1371 0.78217 0.0
H939 H 0.48128 0.074 0.87472 0.0
O940 O 0.55174 0.15171 0.8743 0.0
O941 O 0.5021 0.13689 0.94159 0.0
O942 O 0.5046 0.15174 0.79272 0.0
O943 O 0.52709 0.10234 0.84071 0.0
H944 H 0.54901 0.17301 0.9926 0.0
H945 H 0.59745 0.13926 0.85211 0.0
H946 H 0.58389 0.17983 0.0682 0.0
H947 H 0.63139 0.14614 0.93098 0.0
H948 H 0.49299 0.07366 0.08478 0.0
H949 H 0.49731 0.16233 0.05269 0.0
H950 H 0.49933 0.09017 0.97104 0.0
H951 H 0.49105 0.14457 0.16505 0.0
H952 H 0.54564 0.24399 0.93552 0.0
H953 H 0.47454 0.22511 0.01011 0.0
H954 H 0.59979 0.06694 0.97458 0.0
H955 H 0.57474 0.11203 0.13712 0.0
H956 H 0.4699 0.17007 0.71711 0.0
H957 H 0.54493 0.17755 0.77331 0.0
H958 H 0.47457 0.20562 0.64252 0.0
H959 H 0.54816 0.21297 0.69833 0.0
H960 H 0.5045 0.11085 0.7256 0.0
H961 H 0.5398 0.0562 0.84442 0.0
H962 H 0.49702 0.07998 0.63835 0.0
H963 H 0.53171 0.02625 0.75475 0.0
H964 H 0.59856 0.08525 0.70412 0.0
H965 H 0.55558 0.12413 0.55822 0.0
H966 H 0.42144 0.11317 0.72674 0.0
H967 H 0.4501 0.04885 0.82097 0.0
Li968 Li 0.33579 0.51759 0.3837 0.0
Li969 Li 0.37347 0.5347 0.41525 0.0
Li970 Li 0.36333 0.53633 0.30087 0.0
Li971 Li 0.37425 0.49804 0.35158 0.0
C972 C 0.3414 0.57078 0.41651 0.0
N973 N 0.33381 0.60913 0.50272 0.0
C974 C 0.32977 0.56699 0.47757 0.0
C975 C 0.34902 0.59411 0.39914 0.0
C976 C 0.32611 0.58661 0.52045 0.0
C977 C 0.34509 0.61325 0.44349 0.0
C978 C 0.36975 0.49852 0.50378 0.0
C979 C 0.40415 0.49383 0.57691 0.0
N980 N 0.38882 0.49169 0.62973 0.0
C981 C 0.35433 0.49623 0.55872 0.0
C982 C 0.39485 0.49722 0.5128 0.0
C983 C 0.36434 0.49278 0.62201 0.0
C984 C 0.29811 0.49225 0.447 0.0
N985 N 0.30367 0.51268 0.4123 0.0
C986 C 0.26546 0.53034 0.43897 0.0
C987 C 0.28764 0.53124 0.40593 0.0
C988 C 0.25974 0.51006 0.47821 0.0
C989 C 0.27595 0.49046 0.48035 0.0
H990 H 0.31139 0.47789 0.45148 0.0
H991 H 0.29265 0.5473 0.37827 0.0
C992 C 0.40635 0.56997 0.45471 0.0
N993 N 0.38909 0.55482 0.47936 0.0
C994 C 0.41671 0.58771 0.49524 0.0
C995 C 0.39132 0.57393 0.58585 0.0
C996 C 0.38145 0.55649 0.54359 0.0
C997 C 0.4091 0.58994 0.56171 0.0
H998 H 0.41155 0.56872 0.40289 0.0
H999 H 0.36711 0.54491 0.56157 0.0
C1000 C 0.32591 0.50703 0.251 0.0
N1001 N 0.28633 0.51148 0.1672 0.0
C1002 C 0.31794 0.48716 0.21368 0.0
C1003 C 0.31372 0.5292 0.24552 0.0
C1004 C 0.29791 0.48977 0.17164 0.0
C1005 C 0.29376 0.53107 0.20294 0.0
C1006 C 0.41147 0.52277 0.29127 0.0
C1007 C 0.40475 0.51064 0.23284 0.0
C1008 C 0.43544 0.53045 0.29939 0.0
C1009 C 0.42215 0.50639 0.18363 0.0
C1010 C 0.45231 0.52587 0.24897 0.0
N1011 N 0.44537 0.51403 0.19263 0.0
C1012 C 0.38551 0.57365 0.24024 0.0
C1013 C 0.36475 0.54937 0.16113 0.0
C1014 C 0.39816 0.58548 0.18997 0.0
N1015 N 0.36969 0.55562 0.22524 0.0
C1016 C 0.37677 0.56108 0.10887 0.0
C1017 C 0.39437 0.57886 0.12318 0.0
H1018 H 0.38987 0.57737 0.29176 0.0
H1019 H 0.35285 0.53428 0.15058 0.0
C1020 C 0.37926 0.45196 0.29235 0.0
N1021 N 0.3905 0.4687 0.33143 0.0
C1022 C 0.39282 0.43388 0.26079 0.0
C1023 C 0.42888 0.44998 0.31345 0.0
C1024 C 0.41464 0.46746 0.34459 0.0
C1025 C 0.41803 0.43354 0.26934 0.0
H1026 H 0.36009 0.45363 0.2822 0.0
H1027 H 0.42319 0.48127 0.37468 0.0
O1028 O 0.34546 0.55172 0.37421 0.0
O1029 O 0.3603 0.50209 0.44155 0.0
O1030 O 0.34544 0.50457 0.29268 0.0
O1031 O 0.39483 0.52708 0.34064 0.0
H1032 H 0.32416 0.549 0.49251 0.0
H1033 H 0.35789 0.59744 0.35197 0.0
H1034 H 0.31732 0.58389 0.56807 0.0
H1035 H 0.35098 0.63138 0.43079 0.0
H1036 H 0.42354 0.49301 0.58472 0.0
H1037 H 0.33486 0.49731 0.55267 0.0
H1038 H 0.40701 0.49933 0.47098 0.0
H1039 H 0.35264 0.49106 0.66503 0.0
H1040 H 0.25318 0.54563 0.4354 0.0
H1041 H 0.27207 0.47455 0.51014 0.0
H1042 H 0.43022 0.59979 0.47446 0.0
H1043 H 0.38513 0.57475 0.63701 0.0
H1044 H 0.32711 0.46987 0.21712 0.0
H1045 H 0.31963 0.5449 0.27321 0.0
H1046 H 0.29157 0.47452 0.14253 0.0
H1047 H 0.28421 0.54812 0.19824 0.0
H1048 H 0.38634 0.50447 0.22556 0.0
H1049 H 0.44098 0.53979 0.34434 0.0
H1050 H 0.4172 0.49699 0.13831 0.0
H1051 H 0.47092 0.53169 0.25467 0.0
H1052 H 0.41189 0.59854 0.20399 0.0
H1053 H 0.37304 0.55555 0.05812 0.0
H1054 H 0.38403 0.42141 0.2268 0.0
H1055 H 0.44835 0.45009 0.32095 0.0
Li1056 Li 0.96088 0.1339 0.19626 0.0
Li1057 Li -0.00084 0.12297 0.14555 0.0
Li1058 Li 0.97962 0.16143 0.11343 0.0
Li1059 Li 0.9625 0.12376 0.08188 0.0
C1060 C 0.99018 0.17131 0.24613 0.0
N1061 N 0.98575 0.21088 0.32992 0.0
C1062 C 0.01006 0.17927 0.28345 0.0
C1063 C 0.96802 0.1835 0.25161 0.0
C1064 C 0.00746 0.1993 0.3255 0.0
C1065 C 0.96615 0.20345 0.29418 0.0
C1066 C 0.97443 0.08575 0.20588 0.0
C1067 C 0.97133 0.04492 0.24819 0.0
N1068 N 0.98318 0.05185 0.30453 0.0
C1069 C 0.98656 0.09247 0.2643 0.0
C1070 C 0.96675 0.06178 0.19777 0.0
C1071 C 0.99081 0.07507 0.31352 0.0
C1072 C 0.92356 0.11172 0.2569 0.0
N1073 N 0.94159 0.12754 0.2719 0.0
C1074 C 0.93613 0.12045 0.38826 0.0
C1075 C 0.94784 0.13247 0.336 0.0
C1076 C 0.91835 0.10286 0.37396 0.0
C1077 C 0.91172 0.09907 0.30716 0.0
H1078 H 0.91984 0.10736 0.20537 0.0
H1079 H 0.96294 0.14438 0.34655 0.0
C1080 C 0.04525 0.11795 0.20477 0.0
N1081 N 0.0285 0.10672 0.16571 0.0
C1082 C 0.06333 0.10438 0.23633 0.0
C1083 C 0.04721 0.06833 0.18368 0.0
C1084 C 0.02974 0.08258 0.15255 0.0
C1085 C 0.06366 0.07918 0.22778 0.0
H1086 H 0.04358 0.13712 0.21492 0.0
H1087 H 0.01592 0.07402 0.12246 0.0
C1088 C 0.92643 0.15583 0.08062 0.0
N1089 N 0.88807 0.16343 0.9944 0.0
C1090 C 0.93022 0.16746 0.01955 0.0
C1091 C 0.9031 0.14821 0.09798 0.0
C1092 C 0.9106 0.17113 0.97667 0.0
C1093 C 0.88396 0.15215 0.05363 0.0
C1094 C 0.99868 0.12747 0.99336 0.0
C1095 C 0.00097 0.1429 0.93841 0.0
C1096 C -3e-05 0.10238 0.98433 0.0
C1097 C 0.00441 0.13289 0.87512 0.0
C1098 C 0.00335 0.09308 0.92022 0.0
N1099 N 0.00549 0.10841 0.86741 0.0
C1100 C 0.00497 0.1991 0.05014 0.0
C1101 C 0.96598 0.20958 0.09119 0.0
C1102 C 0.00676 0.22126 0.01679 0.0
N1103 N 0.98453 0.19355 0.08484 0.0
C1104 C 0.96688 0.23176 0.05815 0.0
C1105 C 0.98716 0.23748 0.01892 0.0
H1106 H 0.01932 0.18582 0.04567 0.0
H1107 H 0.94991 0.20458 0.11884 0.0
C1108 C 0.92723 0.09088 0.04243 0.0
N1109 N 0.94238 0.10814 0.01778 0.0
C1110 C 0.90949 0.08051 0.0019 0.0
C1111 C 0.92326 0.10591 0.91129 0.0
C1112 C 0.9407 0.11578 0.95355 0.0
C1113 C 0.90725 0.08813 0.93543 0.0
H1114 H 0.92848 0.08568 0.09426 0.0
H1115 H 0.95229 0.13012 0.93557 0.0
O1116 O 0.99264 0.15178 0.20445 0.0
O1117 O 0.97012 0.10239 0.1565 0.0
O1118 O 0.94548 0.15177 0.12292 0.0
O1119 O 0.99511 0.13693 0.05558 0.0
H1120 H 0.02735 0.17009 0.28002 0.0
H1121 H 0.95232 0.17759 0.2239 0.0
H1122 H 0.02271 0.20563 0.3546 0.0
H1123 H 0.94911 0.21301 0.29888 0.0
H1124 H 0.9655 0.0263 0.2425 0.0
H1125 H 0.99273 0.11088 0.27159 0.0
H1126 H 0.9574 0.05625 0.15282 0.0
H1127 H 0.00022 0.08002 0.35884 0.0
H1128 H 0.94166 0.12419 0.43901 0.0
H1129 H 0.89866 0.08534 0.29315 0.0
H1130 H 0.0758 0.11318 0.27031 0.0
H1131 H 0.04711 0.04886 0.17618 0.0
H1132 H 0.94821 0.17307 0.00461 0.0
H1133 H 0.89977 0.13934 0.14515 0.0
H1134 H 0.91332 0.17992 0.92905 0.0
H1135 H 0.86583 0.14626 0.06632 0.0
H1136 H -0.00011 0.16236 0.94447 0.0
H1137 H 0.99787 0.09021 0.02615 0.0
H1138 H 0.00613 0.1446 0.83211 0.0
H1139 H 0.00418 0.07369 0.91242 0.0
H1140 H 0.02268 0.22514 0.98701 0.0
H1141 H 0.9516 0.24404 0.0617 0.0
H1142 H 0.89741 0.067 0.02269 0.0
H1143 H 0.92244 0.1121 0.86013 0.0
Li1144 Li 0.37428 -0.00085 0.64551 0.0
Li1145 Li 0.36336 0.96087 0.69622 0.0
Li1146 Li 0.3735 0.9625 0.58183 0.0
Li1147 Li 0.33583 0.97961 0.61339 0.0
C1148 C 0.41151 0.97443 0.70582 0.0
N1149 N 0.44541 0.98316 0.80446 0.0
C1150 C 0.40479 0.98655 0.76425 0.0
C1151 C 0.43547 0.96674 0.6977 0.0
C1152 C 0.42219 0.9908 0.81346 0.0
C1153 C 0.45234 0.97132 0.74813 0.0
C1154 C 0.32595 0.99017 0.74609 0.0
C1155 C 0.2938 0.96613 0.79413 0.0
N1156 N 0.28638 0.98572 0.82989 0.0
C1157 C 0.31799 0.01004 0.78342 0.0
C1158 C 0.31376 0.968 0.75156 0.0
C1159 C 0.29796 0.00743 0.82547 0.0
C1160 C 0.37929 0.04524 0.70472 0.0
N1161 N 0.39053 0.0285 0.66566 0.0
C1162 C 0.42891 0.04721 0.68365 0.0
C1163 C 0.41467 0.02974 0.65251 0.0
C1164 C 0.41805 0.06366 0.72775 0.0
C1165 C 0.39285 0.06332 0.73629 0.0
H1166 H 0.36012 0.04357 0.71487 0.0
H1167 H 0.42323 0.01593 0.62242 0.0
C1168 C 0.38555 0.92355 0.75685 0.0
N1169 N 0.36973 0.94158 0.77185 0.0
C1170 C 0.3982 0.91171 0.80712 0.0
C1171 C 0.37681 0.93612 0.88822 0.0
C1172 C 0.36479 0.94783 0.83596 0.0
C1173 C 0.39441 0.91834 0.87391 0.0
H1174 H 0.38991 0.91983 0.70532 0.0
H1175 H 0.35288 0.96292 0.8465 0.0
C1176 C 0.36978 0.99868 0.49332 0.0
N1177 N 0.38885 0.00551 0.36737 0.0
C1178 C 0.35436 0.00098 0.43837 0.0
C1179 C 0.39488 -2e-05 0.48429 0.0
C1180 C 0.36436 0.00443 0.37508 0.0
C1181 C 0.40417 0.00337 0.42018 0.0
C1182 C 0.34143 0.92642 0.58057 0.0
C1183 C 0.3298 0.93021 0.51951 0.0
C1184 C 0.34906 0.90309 0.59794 0.0
C1185 C 0.32614 0.91059 0.47662 0.0
C1186 C 0.34512 0.88395 0.55359 0.0
N1187 N 0.33385 0.88807 0.49436 0.0
C1188 C 0.40638 0.92723 0.54238 0.0
C1189 C 0.38148 0.94071 0.45349 0.0
C1190 C 0.41674 0.90948 0.50185 0.0
N1191 N 0.38912 0.94238 0.51772 0.0
C1192 C 0.39135 0.92327 0.41123 0.0
C1193 C 0.40913 0.90725 0.43538 0.0
H1194 H 0.41158 0.92847 0.5942 0.0
H1195 H 0.36714 0.9523 0.43551 0.0
C1196 C 0.29815 0.00496 0.5501 0.0
N1197 N 0.3037 0.98453 0.58479 0.0
C1198 C 0.27599 0.00675 0.51675 0.0
C1199 C 0.2655 0.96687 0.5581 0.0
C1200 C 0.28767 0.96597 0.59114 0.0
C1201 C 0.25978 0.98716 0.51887 0.0
H1202 H 0.31142 0.01932 0.54564 0.0
H1203 H 0.29268 0.9499 0.61879 0.0
O1204 O 0.39487 0.97012 0.65645 0.0
O1205 O 0.34548 0.99263 0.70441 0.0
O1206 O 0.36033 0.9951 0.55553 0.0
O1207 O 0.34549 0.94548 0.62287 0.0
H1208 H 0.38637 0.99272 0.77153 0.0
H1209 H 0.44101 0.9574 0.65276 0.0
H1210 H 0.41724 0.0002 0.85878 0.0
H1211 H 0.47096 0.96549 0.74243 0.0
H1212 H 0.28425 0.94909 0.79883 0.0
H1213 H 0.32716 0.02733 0.77999 0.0
H1214 H 0.31966 0.9523 0.72385 0.0
H1215 H 0.29162 0.02268 0.85459 0.0
H1216 H 0.44837 0.04711 0.67616 0.0
H1217 H 0.38405 0.07579 0.77028 0.0
H1218 H 0.41194 0.89865 0.79309 0.0
H1219 H 0.37308 0.94164 0.93896 0.0
H1220 H 0.33489 -0.0001 0.44442 0.0
H1221 H 0.40704 0.99787 0.52611 0.0
H1222 H 0.35266 0.00615 0.33206 0.0
H1223 H 0.42357 0.0042 0.41238 0.0
H1224 H 0.3242 0.94821 0.50456 0.0
H1225 H 0.35793 0.89976 0.64511 0.0
H1226 H 0.31735 0.91332 0.429 0.0
H1227 H 0.35102 0.86582 0.56628 0.0
H1228 H 0.43025 0.8974 0.52264 0.0
H1229 H 0.38516 0.92245 0.36007 0.0
H1230 H 0.27211 0.02268 0.48698 0.0
H1231 H 0.25322 0.95159 0.56165 0.0
Li1232 Li 0.49804 0.37424 0.14555 0.0
Li1233 Li 0.53633 0.36332 0.19627 0.0
Li1234 Li 0.5347 0.37346 0.08188 0.0
Li1235 Li 0.51759 0.33578 0.11344 0.0
C1236 C 0.52276 0.41146 0.20586 0.0
N1237 N 0.51402 0.44537 0.30449 0.0
C1238 C 0.51064 0.40474 0.26429 0.0
C1239 C 0.53044 0.43543 0.19773 0.0
C1240 C 0.50638 0.42215 0.3135 0.0
C1241 C 0.52586 0.4523 0.24815 0.0
C1242 C 0.50703 0.3259 0.24614 0.0
C1243 C 0.53107 0.29376 0.29419 0.0
N1244 N 0.51148 0.28632 0.32994 0.0
C1245 C 0.48716 0.31794 0.28346 0.0
C1246 C 0.5292 0.31372 0.25162 0.0
C1247 C 0.48976 0.29791 0.32551 0.0
C1248 C 0.45195 0.37925 0.20479 0.0
N1249 N 0.46869 0.39049 0.16571 0.0
C1250 C 0.44998 0.42887 0.18367 0.0
C1251 C 0.46746 0.41463 0.15253 0.0
C1252 C 0.43354 0.41802 0.22778 0.0
C1253 C 0.43388 0.39282 0.23635 0.0
H1254 H 0.45363 0.36009 0.21495 0.0
H1255 H 0.48126 0.42318 0.12244 0.0
C1256 C 0.57364 0.38551 0.2569 0.0
N1257 N 0.55562 0.36968 0.2719 0.0
C1258 C 0.58548 0.39816 0.30716 0.0
C1259 C 0.56107 0.37677 0.38827 0.0
C1260 C 0.54936 0.36474 0.33601 0.0
C1261 C 0.57885 0.39436 0.37396 0.0
H1262 H 0.57736 0.38986 0.20537 0.0
H1263 H 0.53428 0.35284 0.34655 0.0
C1264 C 0.49852 0.36974 0.99335 0.0
N1265 N 0.4917 0.38881 0.8674 0.0
C1266 C 0.49623 0.35432 0.93841 0.0
C1267 C 0.49723 0.39484 0.98432 0.0
C1268 C 0.49279 0.36432 0.87512 0.0
C1269 C 0.49384 0.40413 0.9202 0.0
C1270 C 0.57078 0.34139 0.08063 0.0
C1271 C 0.56699 0.32976 0.01957 0.0
C1272 C 0.59411 0.34902 0.098 0.0
C1273 C 0.58661 0.3261 0.97669 0.0
C1274 C 0.61325 0.34509 0.05365 0.0
N1275 N 0.60914 0.33381 0.99443 0.0
C1276 C 0.56996 0.40634 0.04242 0.0
C1277 C 0.55649 0.38144 0.95355 0.0
C1278 C 0.58771 0.41671 0.00189 0.0
N1279 N 0.55482 0.38908 0.01777 0.0
C1280 C 0.57393 0.39131 0.91128 0.0
C1281 C 0.58994 0.4091 0.93543 0.0
H1282 H 0.56871 0.41154 0.09424 0.0
H1283 H 0.54491 0.3671 0.93557 0.0
C1284 C 0.49225 0.29811 0.05014 0.0
N1285 N 0.51268 0.30366 0.08484 0.0
C1286 C 0.49046 0.27595 0.01679 0.0
C1287 C 0.53034 0.26546 0.05816 0.0
C1288 C 0.53124 0.28763 0.0912 0.0
C1289 C 0.51006 0.25974 0.01892 0.0
H1290 H 0.47789 0.31138 0.04566 0.0
H1291 H 0.5473 0.29264 0.11886 0.0
O1292 O 0.52708 0.39483 0.15649 0.0
O1293 O 0.50457 0.34543 0.20446 0.0
O1294 O 0.50209 0.36029 0.05558 0.0
O1295 O 0.55172 0.34545 0.12292 0.0
H1296 H 0.50447 0.38633 0.27158 0.0
H1297 H 0.53978 0.44097 0.15279 0.0
H1298 H 0.49698 0.41719 0.35882 0.0
H1299 H 0.53168 0.47092 0.24245 0.0
H1300 H 0.54812 0.2842 0.2989 0.0
H1301 H 0.46986 0.32711 0.28002 0.0
H1302 H 0.5449 0.31962 0.22392 0.0
H1303 H 0.47452 0.29156 0.35461 0.0
H1304 H 0.45008 0.44834 0.17616 0.0
H1305 H 0.42141 0.38402 0.27035 0.0
H1306 H 0.59854 0.41189 0.29314 0.0
H1307 H 0.55555 0.37303 0.43901 0.0
H1308 H 0.49731 0.33485 0.94447 0.0
H1309 H 0.49933 0.407 0.02614 0.0
H1310 H 0.49107 0.35262 0.8321 0.0
H1311 H 0.49301 0.42353 0.91239 0.0
H1312 H 0.549 0.32416 0.00462 0.0
H1313 H 0.59743 0.35789 0.14517 0.0
H1314 H 0.58389 0.31731 0.92907 0.0
H1315 H 0.63138 0.35099 0.06635 0.0
H1316 H 0.59979 0.43022 0.02267 0.0
H1317 H 0.57475 0.38512 0.86013 0.0
H1318 H 0.47454 0.27207 0.987 0.0
H1319 H 0.54563 0.25318 0.06172 0.0
Li1320 Li 0.13385 0.53636 0.69618 0.0
Li1321 Li 0.12294 0.49806 0.64551 0.0
Li1322 Li 0.16139 0.51761 0.61337 0.0
Li1323 Li 0.12371 0.53471 0.5818 0.0
C1324 C 0.17128 0.50706 0.74609 0.0
N1325 N 0.21085 0.51153 0.82989 0.0
C1326 C 0.17924 0.4872 0.78344 0.0
C1327 C 0.18346 0.52923 0.75154 0.0
C1328 C 0.19927 0.48981 0.82549 0.0
C1329 C 0.20341 0.53111 0.79411 0.0
C1330 C 0.08571 0.52278 0.70579 0.0
C1331 C 0.04487 0.52588 0.74808 0.0
N1332 N 0.05181 0.51405 0.80443 0.0
C1333 C 0.09243 0.51066 0.76423 0.0
C1334 C 0.06174 0.53046 0.69766 0.0
C1335 C 0.07503 0.50641 0.81345 0.0
C1336 C 0.11165 0.57367 0.75678 0.0
N1337 N 0.12748 0.55565 0.7718 0.0
C1338 C 0.12039 0.5611 0.88816 0.0
C1339 C 0.13242 0.5494 0.83591 0.0
C1340 C 0.10279 0.57888 0.87384 0.0
C1341 C 0.099 0.5855 0.80704 0.0
H1342 H 0.1073 0.57739 0.70525 0.0
H1343 H 0.14433 0.53431 0.84647 0.0
C1344 C 0.11794 0.45198 0.70479 0.0
N1345 N 0.1067 0.46872 0.66569 0.0
C1346 C 0.10437 0.43391 0.73637 0.0
C1347 C 0.06832 0.45 0.68366 0.0
C1348 C 0.08256 0.46748 0.65251 0.0
C1349 C 0.07917 0.43357 0.7278 0.0
H1350 H 0.1371 0.45365 0.71495 0.0
H1351 H 0.074 0.48128 0.6224 0.0
C1352 C 0.15577 0.5708 0.58051 0.0
N1353 N 0.16333 0.60915 0.49426 0.0
C1354 C 0.1674 0.56701 0.51945 0.0
C1355 C 0.14813 0.59413 0.59785 0.0
C1356 C 0.17105 0.58662 0.47655 0.0
C1357 C 0.15206 0.61326 0.55348 0.0
C1358 C 0.12744 0.49853 0.49331 0.0
C1359 C 0.14287 0.49623 0.43838 0.0
C1360 C 0.10235 0.49723 0.48426 0.0
C1361 C 0.13287 0.49278 0.37508 0.0
C1362 C 0.09306 0.49383 0.42015 0.0
N1363 N 0.10839 0.49169 0.36735 0.0
C1364 C 0.19907 0.49226 0.55013 0.0
C1365 C 0.20954 0.53126 0.59111 0.0
C1366 C 0.22123 0.49047 0.51678 0.0
N1367 N 0.19352 0.5127 0.58479 0.0
C1368 C 0.23172 0.53036 0.55807 0.0
C1369 C 0.23744 0.51006 0.51887 0.0
H1370 H 0.1858 0.4779 0.54568 0.0
H1371 H 0.20453 0.54733 0.61873 0.0
C1372 C 0.09083 0.56997 0.54232 0.0
N1373 N 0.10808 0.55482 0.51768 0.0
C1374 C 0.08045 0.58771 0.50178 0.0
C1375 C 0.10585 0.57393 0.41117 0.0
C1376 C 0.11572 0.55649 0.45344 0.0
C1377 C 0.08806 0.58994 0.43531 0.0
H1378 H 0.08563 0.56873 0.59414 0.0
H1379 H 0.13006 0.54491 0.43547 0.0
O1380 O 0.15175 0.5046 0.70441 0.0
O1381 O 0.10235 0.52709 0.65642 0.0
O1382 O 0.15172 0.55174 0.62283 0.0
O1383 O 0.13689 0.50211 0.55554 0.0
H1384 H 0.17007 0.4699 0.78002 0.0
H1385 H 0.17755 0.54493 0.72382 0.0
H1386 H 0.20562 0.47456 0.85461 0.0
H1387 H 0.21297 0.54816 0.7988 0.0
H1388 H 0.02625 0.53171 0.74238 0.0
H1389 H 0.11085 0.5045 0.77153 0.0
H1390 H 0.0562 0.5398 0.6527 0.0
H1391 H 0.07999 0.49702 0.85878 0.0
H1392 H 0.12413 0.55558 0.93891 0.0
H1393 H 0.08526 0.59856 0.793 0.0
H1394 H 0.11317 0.42144 0.77038 0.0
H1395 H 0.04885 0.4501 0.67615 0.0
H1396 H 0.17301 0.54901 0.50453 0.0
H1397 H 0.13926 0.59745 0.64502 0.0
H1398 H 0.17984 0.5839 0.42893 0.0
H1399 H 0.14615 0.63139 0.56615 0.0
H1400 H 0.16234 0.49732 0.44444 0.0
H1401 H 0.09018 0.49933 0.52608 0.0
H1402 H 0.14458 0.49106 0.33207 0.0
H1403 H 0.07367 0.493 0.41233 0.0
H1404 H 0.22512 0.47454 0.48703 0.0
H1405 H 0.244 0.54564 0.5616 0.0
H1406 H 0.06694 0.59979 0.52255 0.0
H1407 H 0.11204 0.57475 0.36001 0.0
loop_
_geom_bond_atom_site_label_1
_geom_bond_atom_site_label_2
_geom_bond_distance
_geom_bond_site_symmetry_2
_ccdc_geom_bond_type
Li0 N17 1.990 . S
Li0 O60 1.956 1_655 S
Li0 O61 1.970 1_655 S
Li0 O62 1.961 1_655 S
Li1 N25 1.990 . S
Li1 O60 1.970 . S
Li1 O61 1.956 . S
Li1 O63 1.961 . S
Li2 N47 1.990 . S
Li2 O60 1.961 . S
Li2 O62 1.956 . S
Li2 O63 1.970 . S
Li3 N53 1.990 1_554 S
Li3 O61 1.961 . S
Li3 O62 1.970 . S
Li3 O63 1.956 . S
C4 C6 1.348 . S
C4 C7 1.356 1_455 S
C4 O60 1.325 . S
N5 C8 1.314 . S
N5 C9 1.279 . S
C6 C4 1.348 . S
C6 C8 1.353 1_455 S
C6 H64 0.929 . S
C7 C4 1.356 1_655 S
C7 C9 1.358 . S
C7 H65 0.930 . S
C8 N5 1.314 . S
C8 C6 1.353 1_655 S
C8 H66 0.919 1_655 S
C9 N5 1.279 . S
C9 C7 1.358 . S
C9 H67 0.930 . S
C10 C13 1.348 . S
C10 C14 1.356 . S
C10 O61 1.325 . S
C11 N12 1.279 . S
C11 C14 1.358 . S
C11 H68 0.930 . S
N12 C11 1.279 . S
N12 C15 1.314 . S
C13 C10 1.348 . S
C13 C15 1.353 . S
C13 H69 0.951 . S
C14 C10 1.356 . S
C14 C11 1.358 . S
C14 H70 0.930 . S
C15 N12 1.314 . S
C15 C13 1.353 . S
C15 H71 0.930 . S
C16 N17 1.314 . S
C16 C21 1.353 . S
C16 H22 0.930 . S
N17 Li0 1.990 . S
N17 C16 1.314 . S
N17 C19 1.279 . S
C18 C19 1.358 . S
C18 C20 1.356 . S
C18 H72 0.930 . S
C19 N17 1.279 . S
C19 C18 1.358 . S
C19 H23 0.930 . S
C20 C18 1.356 . S
C20 C21 1.348 . S
C21 C16 1.353 . S
C21 C20 1.348 . S
C21 H73 0.929 . S
H22 C16 0.930 . S
H23 C19 0.930 . S
C24 N25 1.314 . S
C24 C26 1.353 . S
C24 H30 0.930 . S
N25 Li1 1.990 . S
N25 C24 1.314 . S
N25 C28 1.279 . S
C26 C24 1.353 . S
C26 C29 1.348 . S
C26 H74 0.929 . S
C27 C28 1.358 . S
C27 C29 1.356 . S
C27 H75 0.930 . S
C28 N25 1.279 . S
C28 C27 1.358 . S
C28 H31 0.930 . S
C29 C26 1.348 . S
C29 C27 1.356 . S
H30 C24 0.930 . S
H31 C28 0.930 . S
C32 C34 1.363 1_554 S
C32 C35 1.356 . S
C32 O62 1.325 1_655 S
N33 C36 1.314 . S
N33 C37 1.279 . S
C34 C32 1.363 1_556 S
C34 C36 1.384 . S
C34 H76 0.885 1_655 S
C35 C32 1.356 . S
C35 C37 1.358 1_554 S
C35 H77 0.930 . S
C36 N33 1.314 . S
C36 C34 1.384 . S
C36 H78 0.930 . S
C37 N33 1.279 . S
C37 C35 1.358 1_556 S
C37 H79 0.930 . S
C38 C39 1.348 . S
C38 C40 1.356 . S
C38 O63 1.325 . S
C39 C38 1.348 . S
C39 C41 1.353 . S
C39 H80 0.929 . S
C40 C38 1.356 . S
C40 C42 1.358 . S
C40 H81 0.930 . S
C41 C39 1.353 . S
C41 N43 1.314 . S
C41 H82 0.930 . S
C42 C40 1.358 . S
C42 N43 1.279 . S
C42 H83 0.930 . S
N43 C41 1.314 . S
N43 C42 1.279 . S
C44 C46 1.353 . S
C44 N47 1.314 . S
C44 H50 0.930 . S
C45 N47 1.279 . S
C45 C48 1.358 . S
C45 H51 0.930 . S
C46 C44 1.353 . S
C46 C49 1.348 . S
C46 H84 0.929 . S
N47 Li2 1.990 . S
N47 C44 1.314 . S
N47 C45 1.279 . S
C48 C45 1.358 . S
C48 C49 1.356 . S
C48 H85 0.930 1_454 S
C49 C46 1.348 . S
C49 C48 1.356 . S
H50 C44 0.930 . S
H51 C45 0.930 . S
C52 N53 1.314 . S
C52 C54 1.353 . S
C52 H58 0.930 . S
N53 Li3 1.990 1_556 S
N53 C52 1.314 . S
N53 C56 1.279 . S
C54 C52 1.353 . S
C54 C57 1.348 . S
C54 H86 0.929 . S
C55 C56 1.358 . S
C55 C57 1.356 . S
C55 H87 0.930 . S
C56 N53 1.279 . S
C56 C55 1.358 . S
C56 H59 0.930 . S
C57 C54 1.348 . S
C57 C55 1.356 . S
H58 C52 0.930 . S
H59 C56 0.930 . S
O60 Li0 1.956 1_455 S
O60 Li1 1.970 . S
O60 Li2 1.961 . S
O60 C4 1.325 . S
O61 Li0 1.970 1_455 S
O61 Li1 1.956 . S
O61 Li3 1.961 . S
O61 C10 1.325 . S
O62 Li0 1.961 1_455 S
O62 Li2 1.956 . S
O62 Li3 1.970 . S
O62 C32 1.325 1_455 S
O63 Li1 1.961 . S
O63 Li2 1.970 . S
O63 Li3 1.956 . S
O63 C38 1.325 . S
H64 C6 0.929 . S
H65 C7 0.930 . S
H66 C8 0.919 1_455 S
H67 C9 0.930 . S
H68 C11 0.930 . S
H69 C13 0.951 . S
H70 C14 0.930 . S
H71 C15 0.930 . S
H72 C18 0.930 . S
H73 C21 0.929 . S
H74 C26 0.929 . S
H75 C27 0.930 . S
H76 C34 0.885 1_455 S
H77 C35 0.930 . S
H78 C36 0.930 . S
H79 C37 0.930 . S
H80 C39 0.929 . S
H81 C40 0.930 . S
H82 C41 0.930 . S
H83 C42 0.930 . S
H84 C46 0.929 . S
H85 C48 0.930 1_656 S
H86 C54 0.929 . S
H87 C55 0.930 . S
Li88 N105 1.990 . S
Li88 O148 1.956 1_565 S
Li88 O149 1.970 1_565 S
Li88 O150 1.961 1_565 S
Li89 N113 1.990 . S
Li89 O148 1.970 . S
Li89 O149 1.956 . S
Li89 O151 1.961 . S
Li90 N135 1.990 . S
Li90 O148 1.961 . S
Li90 O150 1.956 . S
Li90 O151 1.970 . S
Li91 N141 1.990 . S
Li91 O149 1.961 . S
Li91 O150 1.970 . S
Li91 O151 1.956 . S
C92 C94 1.348 . S
C92 C95 1.356 1_545 S
C92 O148 1.325 . S
N93 C96 1.314 . S
N93 C97 1.279 . S
C94 C92 1.348 . S
C94 C96 1.353 1_545 S
C94 H152 0.929 . S
C95 C92 1.356 1_565 S
C95 C97 1.358 . S
C95 H153 0.930 . S
C96 N93 1.314 . S
C96 C94 1.353 1_565 S
C96 H154 0.919 1_565 S
C97 N93 1.279 . S
C97 C95 1.358 . S
C97 H155 0.930 . S
C98 C101 1.348 . S
C98 C102 1.356 . S
C98 O149 1.325 . S
C99 N100 1.279 . S
C99 C102 1.358 . S
C99 H156 0.930 . S
N100 C99 1.279 . S
N100 C103 1.314 . S
C101 C98 1.348 . S
C101 C103 1.353 . S
C101 H157 0.953 . S
C102 C98 1.356 . S
C102 C99 1.358 . S
C102 H158 0.930 . S
C103 N100 1.314 . S
C103 C101 1.353 . S
C103 H159 0.930 . S
C104 N105 1.314 . S
C104 C109 1.353 . S
C104 H110 0.930 . S
N105 Li88 1.990 . S
N105 C104 1.314 . S
N105 C107 1.279 . S
C106 C107 1.358 . S
C106 C108 1.356 . S
C106 H160 0.930 . S
C107 N105 1.279 . S
C107 C106 1.358 . S
C107 H111 0.930 . S
C108 C106 1.356 . S
C108 C109 1.348 . S
C109 C104 1.353 . S
C109 C108 1.348 . S
C109 H161 0.929 . S
H110 C104 0.930 . S
H111 C107 0.930 . S
C112 N113 1.314 . S
C112 C114 1.353 . S
C112 H118 0.930 . S
N113 Li89 1.990 . S
N113 C112 1.314 . S
N113 C116 1.279 . S
C114 C112 1.353 . S
C114 C117 1.348 . S
C114 H162 0.929 . S
C115 C116 1.358 . S
C115 C117 1.356 . S
C115 H163 0.930 . S
C116 N113 1.279 . S
C116 C115 1.358 . S
C116 H119 0.930 . S
C117 C114 1.348 . S
C117 C115 1.356 . S
H118 C112 0.930 . S
H119 C116 0.930 . S
C120 C122 1.362 . S
C120 C123 1.356 . S
C120 O150 1.325 1_565 S
N121 C124 1.314 . S
N121 C125 1.279 . S
C122 C120 1.362 . S
C122 C124 1.383 . S
C122 H164 0.887 1_565 S
C123 C120 1.356 . S
C123 C125 1.358 . S
C123 H165 0.930 . S
C124 N121 1.314 . S
C124 C122 1.383 . S
C124 H166 0.930 . S
C125 N121 1.279 . S
C125 C123 1.358 . S
C125 H167 0.930 . S
C126 C127 1.348 . S
C126 C128 1.356 . S
C126 O151 1.325 . S
C127 C126 1.348 . S
C127 C129 1.353 . S
C127 H168 0.929 . S
C128 C126 1.356 . S
C128 C130 1.358 . S
C128 H169 0.930 . S
C129 C127 1.353 . S
C129 N131 1.314 . S
C129 H170 0.930 . S
C130 C128 1.358 . S
C130 N131 1.279 . S
C130 H171 0.930 . S
N131 C129 1.314 . S
N131 C130 1.279 . S
C132 C134 1.353 . S
C132 N135 1.314 . S
C132 H138 0.930 . S
C133 N135 1.279 . S
C133 C136 1.358 . S
C133 H139 0.930 . S
C134 C132 1.353 . S
C134 C137 1.348 . S
C134 H172 0.929 . S
N135 Li90 1.990 . S
N135 C132 1.314 . S
N135 C133 1.279 . S
C136 C133 1.358 . S
C136 C137 1.356 . S
C136 H173 0.930 1_545 S
C137 C134 1.348 . S
C137 C136 1.356 . S
H138 C132 0.930 . S
H139 C133 0.930 . S
C140 N141 1.314 . S
C140 C142 1.353 . S
C140 H146 0.930 . S
N141 Li91 1.990 . S
N141 C140 1.314 . S
N141 C144 1.279 . S
C142 C140 1.353 . S
C142 C145 1.348 . S
C142 H174 0.929 . S
C143 C144 1.358 . S
C143 C145 1.356 . S
C143 H175 0.930 . S
C144 N141 1.279 . S
C144 C143 1.358 . S
C144 H147 0.930 . S
C145 C142 1.348 . S
C145 C143 1.356 . S
H146 C140 0.930 . S
H147 C144 0.930 . S
O148 Li88 1.956 1_545 S
O148 Li89 1.970 . S
O148 Li90 1.961 . S
O148 C92 1.325 . S
O149 Li88 1.970 1_545 S
O149 Li89 1.956 . S
O149 Li91 1.961 . S
O149 C98 1.325 . S
O150 Li88 1.961 1_545 S
O150 Li90 1.956 . S
O150 Li91 1.970 . S
O150 C120 1.325 1_545 S
O151 Li89 1.961 . S
O151 Li90 1.970 . S
O151 Li91 1.956 . S
O151 C126 1.325 . S
H152 C94 0.929 . S
H153 C95 0.930 . S
H154 C96 0.919 1_545 S
H155 C97 0.930 . S
H156 C99 0.930 . S
H157 C101 0.953 . S
H158 C102 0.930 . S
H159 C103 0.930 . S
H160 C106 0.930 . S
H161 C109 0.929 . S
H162 C114 0.929 . S
H163 C115 0.930 . S
H164 C122 0.887 1_545 S
H165 C123 0.930 . S
H166 C124 0.930 . S
H167 C125 0.930 . S
H168 C127 0.929 . S
H169 C128 0.930 . S
H170 C129 0.930 . S
H171 C130 0.930 . S
H172 C134 0.929 . S
H173 C136 0.930 1_565 S
H174 C142 0.929 . S
H175 C143 0.930 . S
Li176 N193 1.990 . S
Li176 O236 1.956 . S
Li176 O237 1.970 . S
Li176 O238 1.961 . S
Li177 N201 1.990 . S
Li177 O236 1.970 . S
Li177 O237 1.956 . S
Li177 O239 1.961 . S
Li178 N223 1.990 . S
Li178 O236 1.961 . S
Li178 O238 1.956 . S
Li178 O239 1.970 . S
Li179 N229 1.990 1_554 S
Li179 O237 1.961 . S
Li179 O238 1.970 . S
Li179 O239 1.956 . S
C180 C182 1.348 . S
C180 C183 1.356 . S
C180 O236 1.325 . S
N181 C184 1.314 . S
N181 C185 1.279 . S
C182 C180 1.348 . S
C182 C184 1.353 . S
C182 H240 0.929 . S
C183 C180 1.356 . S
C183 C185 1.358 . S
C183 H241 0.930 . S
C184 N181 1.314 . S
C184 C182 1.353 . S
C184 H242 0.930 . S
C185 N181 1.279 . S
C185 C183 1.358 . S
C185 H243 0.930 . S
C186 C189 1.348 . S
C186 C190 1.356 . S
C186 O237 1.325 . S
C187 N188 1.279 . S
C187 C190 1.358 . S
C187 H244 0.930 . S
N188 C187 1.279 . S
N188 C191 1.314 . S
C189 C186 1.348 . S
C189 C191 1.353 . S
C189 H245 0.929 . S
C190 C186 1.356 . S
C190 C187 1.358 . S
C190 H246 0.930 . S
C191 N188 1.314 . S
C191 C189 1.353 . S
C191 H247 0.930 . S
C192 N193 1.314 . S
C192 C197 1.353 . S
C192 H198 0.930 . S
N193 Li176 1.990 . S
N193 C192 1.314 . S
N193 C195 1.279 . S
C194 C195 1.358 . S
C194 C196 1.356 . S
C194 H248 0.930 . S
C195 N193 1.279 . S
C195 C194 1.358 . S
C195 H199 0.930 . S
C196 C194 1.356 . S
C196 C197 1.348 . S
C197 C192 1.353 . S
C197 C196 1.348 . S
C197 H249 0.929 . S
H198 C192 0.930 . S
H199 C195 0.930 . S
C200 N201 1.314 . S
C200 C202 1.353 . S
C200 H206 0.930 . S
N201 Li177 1.990 . S
N201 C200 1.314 . S
N201 C204 1.279 . S
C202 C200 1.353 . S
C202 C205 1.348 . S
C202 H250 0.929 . S
C203 C204 1.358 . S
C203 C205 1.356 . S
C203 H251 0.930 . S
C204 N201 1.279 . S
C204 C203 1.358 . S
C204 H207 0.930 . S
C205 C202 1.348 . S
C205 C203 1.356 . S
H206 C200 0.930 . S
H207 C204 0.930 . S
C208 C210 1.348 1_554 S
C208 C211 1.356 . S
C208 O238 1.325 . S
N209 C212 1.314 . S
N209 C213 1.279 . S
C210 C208 1.348 1_556 S
C210 C212 1.353 . S
C210 H252 0.929 . S
C211 C208 1.356 . S
C211 C213 1.358 1_554 S
C211 H253 0.930 . S
C212 N209 1.314 . S
C212 C210 1.353 . S
C212 H254 0.930 . S
C213 N209 1.279 . S
C213 C211 1.358 1_556 S
C213 H255 0.930 . S
C214 C215 1.348 . S
C214 C216 1.356 . S
C214 O239 1.325 . S
C215 C214 1.348 . S
C215 C217 1.353 . S
C215 H256 0.929 . S
C216 C214 1.356 . S
C216 C218 1.358 . S
C216 H257 0.930 . S
C217 C215 1.353 . S
C217 N219 1.314 . S
C217 H258 0.930 . S
C218 C216 1.358 . S
C218 N219 1.279 . S
C218 H259 0.930 . S
N219 C217 1.314 . S
N219 C218 1.279 . S
C220 C222 1.353 . S
C220 N223 1.314 . S
C220 H226 0.930 . S
C221 N223 1.279 . S
C221 C224 1.358 . S
C221 H227 0.930 . S
C222 C220 1.353 . S
C222 C225 1.348 . S
C222 H260 0.929 . S
N223 Li178 1.990 . S
N223 C220 1.314 . S
N223 C221 1.279 . S
C224 C221 1.358 . S
C224 C225 1.356 . S
C224 H261 0.930 1_554 S
C225 C222 1.348 . S
C225 C224 1.356 . S
H226 C220 0.930 . S
H227 C221 0.930 . S
C228 N229 1.314 . S
C228 C230 1.353 . S
C228 H234 0.930 . S
N229 Li179 1.990 1_556 S
N229 C228 1.314 . S
N229 C232 1.279 . S
C230 C228 1.353 . S
C230 C233 1.348 . S
C230 H262 0.929 . S
C231 C232 1.358 . S
C231 C233 1.356 . S
C231 H263 0.930 . S
C232 N229 1.279 . S
C232 C231 1.358 . S
C232 H235 0.930 . S
C233 C230 1.348 . S
C233 C231 1.356 . S
H234 C228 0.930 . S
H235 C232 0.930 . S
O236 Li176 1.956 . S
O236 Li177 1.970 . S
O236 Li178 1.961 . S
O236 C180 1.325 . S
O237 Li176 1.970 . S
O237 Li177 1.956 . S
O237 Li179 1.961 . S
O237 C186 1.325 . S
O238 Li176 1.961 . S
O238 Li178 1.956 . S
O238 Li179 1.970 . S
O238 C208 1.325 . S
O239 Li177 1.961 . S
O239 Li178 1.970 . S
O239 Li179 1.956 . S
O239 C214 1.325 . S
H240 C182 0.929 . S
H241 C183 0.930 . S
H242 C184 0.930 . S
H243 C185 0.930 . S
H244 C187 0.930 . S
H245 C189 0.929 . S
H246 C190 0.930 . S
H247 C191 0.930 . S
H248 C194 0.930 . S
H249 C197 0.929 . S
H250 C202 0.929 . S
H251 C203 0.930 . S
H252 C210 0.929 . S
H253 C211 0.930 . S
H254 C212 0.930 . S
H255 C213 0.930 . S
H256 C215 0.929 . S
H257 C216 0.930 . S
H258 C217 0.930 . S
H259 C218 0.930 . S
H260 C222 0.929 . S
H261 C224 0.930 1_556 S
H262 C230 0.929 . S
H263 C231 0.930 . S
Li264 N281 1.990 . S
Li264 O324 1.956 . S
Li264 O325 1.970 . S
Li264 O326 1.961 . S
Li265 N289 1.990 . S
Li265 O324 1.970 . S
Li265 O325 1.956 . S
Li265 O327 1.961 . S
Li266 N311 1.990 . S
Li266 O324 1.961 . S
Li266 O326 1.956 . S
Li266 O327 1.970 . S
Li267 N317 1.990 . S
Li267 O325 1.961 . S
Li267 O326 1.970 . S
Li267 O327 1.956 . S
C268 C270 1.348 . S
C268 C271 1.356 . S
C268 O324 1.325 . S
N269 C272 1.314 . S
N269 C273 1.279 . S
C270 C268 1.348 . S
C270 C272 1.353 . S
C270 H328 0.929 . S
C271 C268 1.356 . S
C271 C273 1.358 . S
C271 H329 0.930 . S
C272 N269 1.314 . S
C272 C270 1.353 . S
C272 H330 0.930 . S
C273 N269 1.279 . S
C273 C271 1.358 . S
C273 H331 0.930 . S
C274 C277 1.348 . S
C274 C278 1.356 . S
C274 O325 1.325 . S
C275 N276 1.279 . S
C275 C278 1.358 . S
C275 H332 0.930 . S
N276 C275 1.279 . S
N276 C279 1.314 . S
C277 C274 1.348 . S
C277 C279 1.353 . S
C277 H333 0.929 . S
C278 C274 1.356 . S
C278 C275 1.358 . S
C278 H334 0.930 . S
C279 N276 1.314 . S
C279 C277 1.353 . S
C279 H335 0.930 . S
C280 N281 1.314 . S
C280 C285 1.353 . S
C280 H286 0.930 . S
N281 Li264 1.990 . S
N281 C280 1.314 . S
N281 C283 1.279 . S
C282 C283 1.358 . S
C282 C284 1.356 . S
C282 H336 0.930 . S
C283 N281 1.279 . S
C283 C282 1.358 . S
C283 H287 0.930 . S
C284 C282 1.356 . S
C284 C285 1.348 . S
C285 C280 1.353 . S
C285 C284 1.348 . S
C285 H337 0.929 . S
H286 C280 0.930 . S
H287 C283 0.930 . S
C288 N289 1.314 . S
C288 C290 1.353 . S
C288 H294 0.930 . S
N289 Li265 1.990 . S
N289 C288 1.314 . S
N289 C292 1.279 . S
C290 C288 1.353 . S
C290 C293 1.348 . S
C290 H338 0.929 . S
C291 C292 1.358 . S
C291 C293 1.356 . S
C291 H339 0.930 . S
C292 N289 1.279 . S
C292 C291 1.358 . S
C292 H295 0.930 . S
C293 C290 1.348 . S
C293 C291 1.356 . S
H294 C288 0.930 . S
H295 C292 0.930 . S
C296 C298 1.348 . S
C296 C299 1.356 . S
C296 O326 1.325 . S
N297 C300 1.314 . S
N297 C301 1.279 . S
C298 C296 1.348 . S
C298 C300 1.353 . S
C298 H340 0.929 . S
C299 C296 1.356 . S
C299 C301 1.358 . S
C299 H341 0.930 . S
C300 N297 1.314 . S
C300 C298 1.353 . S
C300 H342 0.930 . S
C301 N297 1.279 . S
C301 C299 1.358 . S
C301 H343 0.930 . S
C302 C303 1.348 . S
C302 C304 1.356 . S
C302 O327 1.325 . S
C303 C302 1.348 . S
C303 C305 1.353 . S
C303 H344 0.929 . S
C304 C302 1.356 . S
C304 C306 1.358 . S
C304 H345 0.930 . S
C305 C303 1.353 . S
C305 N307 1.314 . S
C305 H346 0.930 . S
C306 C304 1.358 . S
C306 N307 1.279 . S
C306 H347 0.930 . S
N307 C305 1.314 . S
N307 C306 1.279 . S
C308 C310 1.353 . S
C308 N311 1.314 . S
C308 H314 0.930 . S
C309 N311 1.279 . S
C309 C312 1.358 . S
C309 H315 0.930 . S
C310 C308 1.353 . S
C310 C313 1.348 . S
C310 H348 0.929 . S
N311 Li266 1.990 . S
N311 C308 1.314 . S
N311 C309 1.279 . S
C312 C309 1.358 . S
C312 C313 1.356 . S
C312 H349 0.930 . S
C313 C310 1.348 . S
C313 C312 1.356 . S
H314 C308 0.930 . S
H315 C309 0.930 . S
C316 N317 1.314 . S
C316 C318 1.353 . S
C316 H322 0.930 . S
N317 Li267 1.990 . S
N317 C316 1.314 . S
N317 C320 1.279 . S
C318 C316 1.353 . S
C318 C321 1.348 . S
C318 H350 0.929 . S
C319 C320 1.358 . S
C319 C321 1.356 . S
C319 H351 0.930 . S
C320 N317 1.279 . S
C320 C319 1.358 . S
C320 H323 0.930 . S
C321 C318 1.348 . S
C321 C319 1.356 . S
H322 C316 0.930 . S
H323 C320 0.930 . S
O324 Li264 1.956 . S
O324 Li265 1.970 . S
O324 Li266 1.961 . S
O324 C268 1.325 . S
O325 Li264 1.970 . S
O325 Li265 1.956 . S
O325 Li267 1.961 . S
O325 C274 1.325 . S
O326 Li264 1.961 . S
O326 Li266 1.956 . S
O326 Li267 1.970 . S
O326 C296 1.325 . S
O327 Li265 1.961 . S
O327 Li266 1.970 . S
O327 Li267 1.956 . S
O327 C302 1.325 . S
H328 C270 0.929 . S
H329 C271 0.930 . S
H330 C272 0.930 . S
H331 C273 0.930 . S
H332 C275 0.930 . S
H333 C277 0.929 . S
H334 C278 0.930 . S
H335 C279 0.930 . S
H336 C282 0.930 . S
H337 C285 0.929 . S
H338 C290 0.929 . S
H339 C291 0.930 . S
H340 C298 0.929 . S
H341 C299 0.930 . S
H342 C300 0.930 . S
H343 C301 0.930 . S
H344 C303 0.929 . S
H345 C304 0.930 . S
H346 C305 0.930 . S
H347 C306 0.930 . S
H348 C310 0.929 . S
H349 C312 0.930 . S
H350 C318 0.929 . S
H351 C319 0.930 . S
Li352 N369 1.990 . S
Li352 O412 1.956 . S
Li352 O413 1.970 . S
Li352 O414 1.961 . S
Li353 N377 1.990 1_556 S
Li353 O412 1.970 . S
Li353 O413 1.956 . S
Li353 O415 1.961 . S
Li354 N399 1.990 . S
Li354 O412 1.961 1_655 S
Li354 O414 1.956 1_655 S
Li354 O415 1.970 1_655 S
Li355 N405 1.990 . S
Li355 O413 1.961 . S
Li355 O414 1.970 . S
Li355 O415 1.956 . S
C356 C358 1.362 1_556 S
C356 C359 1.356 . S
C356 O412 1.325 1_655 S
N357 C360 1.314 . S
N357 C361 1.279 . S
C358 C356 1.362 1_554 S
C358 C360 1.383 . S
C358 H416 0.887 1_655 S
C359 C356 1.356 . S
C359 C361 1.358 1_556 S
C359 H417 0.930 . S
C360 N357 1.314 . S
C360 C358 1.383 . S
C360 H418 0.930 . S
C361 N357 1.279 . S
C361 C359 1.358 1_554 S
C361 H419 0.930 . S
C362 C365 1.348 . S
C362 C366 1.356 . S
C362 O413 1.325 . S
C363 N364 1.279 . S
C363 C366 1.358 . S
C363 H420 0.930 . S
N364 C363 1.279 . S
N364 C367 1.314 . S
C365 C362 1.348 . S
C365 C367 1.353 . S
C365 H421 0.929 . S
C366 C362 1.356 . S
C366 C363 1.358 . S
C366 H422 0.930 . S
C367 N364 1.314 . S
C367 C365 1.353 . S
C367 H423 0.930 . S
C368 N369 1.314 . S
C368 C373 1.353 . S
C368 H374 0.930 . S
N369 Li352 1.990 . S
N369 C368 1.314 . S
N369 C371 1.279 . S
C370 C371 1.358 . S
C370 C372 1.356 . S
C370 H424 0.930 1_456 S
C371 N369 1.279 . S
C371 C370 1.358 . S
C371 H375 0.930 . S
C372 C370 1.356 . S
C372 C373 1.348 . S
C373 C368 1.353 . S
C373 C372 1.348 . S
C373 H425 0.929 . S
H374 C368 0.930 . S
H375 C371 0.930 . S
C376 N377 1.314 . S
C376 C378 1.353 . S
C376 H382 0.930 . S
N377 Li353 1.990 1_554 S
N377 C376 1.314 . S
N377 C380 1.279 . S
C378 C376 1.353 . S
C378 C381 1.348 . S
C378 H426 0.929 . S
C379 C380 1.358 . S
C379 C381 1.356 . S
C379 H427 0.930 . S
C380 N377 1.279 . S
C380 C379 1.358 . S
C380 H383 0.930 . S
C381 C378 1.348 . S
C381 C379 1.356 . S
H382 C376 0.930 . S
H383 C380 0.930 . S
C384 C386 1.348 . S
C384 C387 1.356 1_455 S
C384 O414 1.325 . S
N385 C388 1.314 . S
N385 C389 1.279 . S
C386 C384 1.348 . S
C386 C388 1.353 1_455 S
C386 H428 0.929 . S
C387 C384 1.356 1_655 S
C387 C389 1.358 . S
C387 H429 0.930 . S
C388 N385 1.314 . S
C388 C386 1.353 1_655 S
C388 H430 0.919 1_655 S
C389 N385 1.279 . S
C389 C387 1.358 . S
C389 H431 0.930 . S
C390 C391 1.348 . S
C390 C392 1.356 . S
C390 O415 1.325 . S
C391 C390 1.348 . S
C391 C393 1.353 . S
C391 H432 0.953 . S
C392 C390 1.356 . S
C392 C394 1.358 . S
C392 H433 0.930 . S
C393 C391 1.353 . S
C393 N395 1.314 . S
C393 H434 0.930 . S
C394 C392 1.358 . S
C394 N395 1.279 . S
C394 H435 0.930 . S
N395 C393 1.314 . S
N395 C394 1.279 . S
C396 C398 1.353 . S
C396 N399 1.314 . S
C396 H402 0.930 . S
C397 N399 1.279 . S
C397 C400 1.358 . S
C397 H403 0.930 . S
C398 C396 1.353 . S
C398 C401 1.348 . S
C398 H436 0.929 . S
N399 Li354 1.990 . S
N399 C396 1.314 . S
N399 C397 1.279 . S
C400 C397 1.358 . S
C400 C401 1.356 . S
C400 H437 0.930 . S
C401 C398 1.348 . S
C401 C400 1.356 . S
H402 C396 0.930 . S
H403 C397 0.930 . S
C404 N405 1.314 . S
C404 C406 1.353 . S
C404 H410 0.930 . S
N405 Li355 1.990 . S
N405 C404 1.314 . S
N405 C408 1.279 . S
C406 C404 1.353 . S
C406 C409 1.348 . S
C406 H438 0.929 . S
C407 C408 1.358 . S
C407 C409 1.356 . S
C407 H439 0.930 . S
C408 N405 1.279 . S
C408 C407 1.358 . S
C408 H411 0.930 . S
C409 C406 1.348 . S
C409 C407 1.356 . S
H410 C404 0.930 . S
H411 C408 0.930 . S
O412 Li352 1.956 . S
O412 Li353 1.970 . S
O412 Li354 1.961 1_455 S
O412 C356 1.325 1_455 S
O413 Li352 1.970 . S
O413 Li353 1.956 . S
O413 Li355 1.961 . S
O413 C362 1.325 . S
O414 Li352 1.961 . S
O414 Li354 1.956 1_455 S
O414 Li355 1.970 . S
O414 C384 1.325 . S
O415 Li353 1.961 . S
O415 Li354 1.970 1_455 S
O415 Li355 1.956 . S
O415 C390 1.325 . S
H416 C358 0.887 1_455 S
H417 C359 0.930 . S
H418 C360 0.930 . S
H419 C361 0.930 . S
H420 C363 0.930 . S
H421 C365 0.929 . S
H422 C366 0.930 . S
H423 C367 0.930 . S
H424 C370 0.930 1_654 S
H425 C373 0.929 . S
H426 C378 0.929 . S
H427 C379 0.930 . S
H428 C386 0.929 . S
H429 C387 0.930 . S
H430 C388 0.919 1_455 S
H431 C389 0.930 . S
H432 C391 0.953 . S
H433 C392 0.930 . S
H434 C393 0.930 . S
H435 C394 0.930 . S
H436 C398 0.929 . S
H437 C400 0.930 . S
H438 C406 0.929 . S
H439 C407 0.930 . S
Li440 N457 1.990 . S
Li440 O500 1.956 . S
Li440 O501 1.970 . S
Li440 O502 1.961 . S
Li441 N465 1.990 . S
Li441 O500 1.970 . S
Li441 O501 1.956 . S
Li441 O503 1.961 . S
Li442 N487 1.990 . S
Li442 O500 1.961 1_565 S
Li442 O502 1.956 1_565 S
Li442 O503 1.970 1_565 S
Li443 N493 1.990 . S
Li443 O501 1.961 . S
Li443 O502 1.970 . S
Li443 O503 1.956 . S
C444 C446 1.363 . S
C444 C447 1.356 . S
C444 O500 1.325 1_565 S
N445 C448 1.314 . S
N445 C449 1.279 . S
C446 C444 1.363 . S
C446 C448 1.384 . S
C446 H504 0.885 1_565 S
C447 C444 1.356 . S
C447 C449 1.358 . S
C447 H505 0.930 . S
C448 N445 1.314 . S
C448 C446 1.384 . S
C448 H506 0.930 . S
C449 N445 1.279 . S
C449 C447 1.358 . S
C449 H507 0.930 . S
C450 C453 1.348 . S
C450 C454 1.356 . S
C450 O501 1.325 . S
C451 N452 1.279 . S
C451 C454 1.358 . S
C451 H508 0.930 . S
N452 C451 1.279 . S
N452 C455 1.314 . S
C453 C450 1.348 . S
C453 C455 1.353 . S
C453 H509 0.929 . S
C454 C450 1.356 . S
C454 C451 1.358 . S
C454 H510 0.930 . S
C455 N452 1.314 . S
C455 C453 1.353 . S
C455 H511 0.930 . S
C456 N457 1.314 . S
C456 C461 1.353 . S
C456 H462 0.930 . S
N457 Li440 1.990 . S
N457 C456 1.314 . S
N457 C459 1.279 . S
C458 C459 1.358 . S
C458 C460 1.356 . S
C458 H512 0.930 1_545 S
C459 N457 1.279 . S
C459 C458 1.358 . S
C459 H463 0.930 . S
C460 C458 1.356 . S
C460 C461 1.348 . S
C461 C456 1.353 . S
C461 C460 1.348 . S
C461 H513 0.929 . S
H462 C456 0.930 . S
H463 C459 0.930 . S
C464 N465 1.314 . S
C464 C466 1.353 . S
C464 H470 0.930 . S
N465 Li441 1.990 . S
N465 C464 1.314 . S
N465 C468 1.279 . S
C466 C464 1.353 . S
C466 C469 1.348 . S
C466 H514 0.929 . S
C467 C468 1.358 . S
C467 C469 1.356 . S
C467 H515 0.930 . S
C468 N465 1.279 . S
C468 C467 1.358 . S
C468 H471 0.930 . S
C469 C466 1.348 . S
C469 C467 1.356 . S
H470 C464 0.930 . S
H471 C468 0.930 . S
C472 C474 1.348 . S
C472 C475 1.356 1_545 S
C472 O502 1.325 . S
N473 C476 1.314 . S
N473 C477 1.279 . S
C474 C472 1.348 . S
C474 C476 1.353 1_545 S
C474 H516 0.929 . S
C475 C472 1.356 1_565 S
C475 C477 1.358 . S
C475 H517 0.930 . S
C476 N473 1.314 . S
C476 C474 1.353 1_565 S
C476 H518 0.919 1_565 S
C477 N473 1.279 . S
C477 C475 1.358 . S
C477 H519 0.930 . S
C478 C479 1.348 . S
C478 C480 1.356 . S
C478 O503 1.325 . S
C479 C478 1.348 . S
C479 C481 1.353 . S
C479 H520 0.951 . S
C480 C478 1.356 . S
C480 C482 1.358 . S
C480 H521 0.930 . S
C481 C479 1.353 . S
C481 N483 1.314 . S
C481 H522 0.930 . S
C482 C480 1.358 . S
C482 N483 1.279 . S
C482 H523 0.930 . S
N483 C481 1.314 . S
N483 C482 1.279 . S
C484 C486 1.353 . S
C484 N487 1.314 . S
C484 H490 0.930 . S
C485 N487 1.279 . S
C485 C488 1.358 . S
C485 H491 0.930 . S
C486 C484 1.353 . S
C486 C489 1.348 . S
C486 H524 0.929 . S
N487 Li442 1.990 . S
N487 C484 1.314 . S
N487 C485 1.279 . S
C488 C485 1.358 . S
C488 C489 1.356 . S
C488 H525 0.930 . S
C489 C486 1.348 . S
C489 C488 1.356 . S
H490 C484 0.930 . S
H491 C485 0.930 . S
C492 N493 1.314 . S
C492 C494 1.353 . S
C492 H498 0.930 . S
N493 Li443 1.990 . S
N493 C492 1.314 . S
N493 C496 1.279 . S
C494 C492 1.353 . S
C494 C497 1.348 . S
C494 H526 0.929 . S
C495 C496 1.358 . S
C495 C497 1.356 . S
C495 H527 0.930 . S
C496 N493 1.279 . S
C496 C495 1.358 . S
C496 H499 0.930 . S
C497 C494 1.348 . S
C497 C495 1.356 . S
H498 C492 0.930 . S
H499 C496 0.930 . S
O500 Li440 1.956 . S
O500 Li441 1.970 . S
O500 Li442 1.961 1_545 S
O500 C444 1.325 1_545 S
O501 Li440 1.970 . S
O501 Li441 1.956 . S
O501 Li443 1.961 . S
O501 C450 1.325 . S
O502 Li440 1.961 . S
O502 Li442 1.956 1_545 S
O502 Li443 1.970 . S
O502 C472 1.325 . S
O503 Li441 1.961 . S
O503 Li442 1.970 1_545 S
O503 Li443 1.956 . S
O503 C478 1.325 . S
H504 C446 0.885 1_545 S
H505 C447 0.930 . S
H506 C448 0.930 . S
H507 C449 0.930 . S
H508 C451 0.930 . S
H509 C453 0.929 . S
H510 C454 0.930 . S
H511 C455 0.930 . S
H512 C458 0.930 1_565 S
H513 C461 0.929 . S
H514 C466 0.929 . S
H515 C467 0.930 . S
H516 C474 0.929 . S
H517 C475 0.930 . S
H518 C476 0.919 1_545 S
H519 C477 0.930 . S
H520 C479 0.951 . S
H521 C480 0.930 . S
H522 C481 0.930 . S
H523 C482 0.930 . S
H524 C486 0.929 . S
H525 C488 0.930 . S
H526 C494 0.929 . S
H527 C495 0.930 . S
Li528 N545 1.990 . S
Li528 O588 1.956 . S
Li528 O589 1.970 . S
Li528 O590 1.961 . S
Li529 N553 1.990 1_556 S
Li529 O588 1.970 . S
Li529 O589 1.956 . S
Li529 O591 1.961 . S
Li530 N575 1.990 . S
Li530 O588 1.961 . S
Li530 O590 1.956 . S
Li530 O591 1.970 . S
Li531 N581 1.990 . S
Li531 O589 1.961 . S
Li531 O590 1.970 . S
Li531 O591 1.956 . S
C532 C534 1.348 1_556 S
C532 C535 1.356 . S
C532 O588 1.325 . S
N533 C536 1.314 . S
N533 C537 1.279 . S
C534 C532 1.348 1_554 S
C534 C536 1.353 . S
C534 H592 0.929 . S
C535 C532 1.356 . S
C535 C537 1.358 1_556 S
C535 H593 0.930 . S
C536 N533 1.314 . S
C536 C534 1.353 . S
C536 H594 0.930 . S
C537 N533 1.279 . S
C537 C535 1.358 1_554 S
C537 H595 0.930 . S
C538 C541 1.348 . S
C538 C542 1.356 . S
C538 O589 1.325 . S
C539 N540 1.279 . S
C539 C542 1.358 . S
C539 H596 0.930 . S
N540 C539 1.279 . S
N540 C543 1.314 . S
C541 C538 1.348 . S
C541 C543 1.353 . S
C541 H597 0.929 . S
C542 C538 1.356 . S
C542 C539 1.358 . S
C542 H598 0.930 . S
C543 N540 1.314 . S
C543 C541 1.353 . S
C543 H599 0.930 . S
C544 N545 1.314 . S
C544 C549 1.353 . S
C544 H550 0.930 . S
N545 Li528 1.990 . S
N545 C544 1.314 . S
N545 C547 1.279 . S
C546 C547 1.358 . S
C546 C548 1.356 . S
C546 H600 0.930 1_556 S
C547 N545 1.279 . S
C547 C546 1.358 . S
C547 H551 0.930 . S
C548 C546 1.356 . S
C548 C549 1.348 . S
C549 C544 1.353 . S
C549 C548 1.348 . S
C549 H601 0.929 . S
H550 C544 0.930 . S
H551 C547 0.930 . S
C552 N553 1.314 . S
C552 C554 1.353 . S
C552 H558 0.930 . S
N553 Li529 1.990 1_554 S
N553 C552 1.314 . S
N553 C556 1.279 . S
C554 C552 1.353 . S
C554 C557 1.348 . S
C554 H602 0.929 . S
C555 C556 1.358 . S
C555 C557 1.356 . S
C555 H603 0.930 . S
C556 N553 1.279 . S
C556 C555 1.358 . S
C556 H559 0.930 . S
C557 C554 1.348 . S
C557 C555 1.356 . S
H558 C552 0.930 . S
H559 C556 0.930 . S
C560 C562 1.348 . S
C560 C563 1.356 . S
C560 O590 1.325 . S
N561 C564 1.314 . S
N561 C565 1.279 . S
C562 C560 1.348 . S
C562 C564 1.353 . S
C562 H604 0.929 . S
C563 C560 1.356 . S
C563 C565 1.358 . S
C563 H605 0.930 . S
C564 N561 1.314 . S
C564 C562 1.353 . S
C564 H606 0.930 . S
C565 N561 1.279 . S
C565 C563 1.358 . S
C565 H607 0.930 . S
C566 C567 1.348 . S
C566 C568 1.356 . S
C566 O591 1.325 . S
C567 C566 1.348 . S
C567 C569 1.353 . S
C567 H608 0.929 . S
C568 C566 1.356 . S
C568 C570 1.358 . S
C568 H609 0.930 . S
C569 C567 1.353 . S
C569 N571 1.314 . S
C569 H610 0.930 . S
C570 C568 1.358 . S
C570 N571 1.279 . S
C570 H611 0.930 . S
N571 C569 1.314 . S
N571 C570 1.279 . S
C572 C574 1.353 . S
C572 N575 1.314 . S
C572 H578 0.930 . S
C573 N575 1.279 . S
C573 C576 1.358 . S
C573 H579 0.930 . S
C574 C572 1.353 . S
C574 C577 1.348 . S
C574 H612 0.929 . S
N575 Li530 1.990 . S
N575 C572 1.314 . S
N575 C573 1.279 . S
C576 C573 1.358 . S
C576 C577 1.356 . S
C576 H613 0.930 . S
C577 C574 1.348 . S
C577 C576 1.356 . S
H578 C572 0.930 . S
H579 C573 0.930 . S
C580 N581 1.314 . S
C580 C582 1.353 . S
C580 H586 0.930 . S
N581 Li531 1.990 . S
N581 C580 1.314 . S
N581 C584 1.279 . S
C582 C580 1.353 . S
C582 C585 1.348 . S
C582 H614 0.929 . S
C583 C584 1.358 . S
C583 C585 1.356 . S
C583 H615 0.930 . S
C584 N581 1.279 . S
C584 C583 1.358 . S
C584 H587 0.930 . S
C585 C582 1.348 . S
C585 C583 1.356 . S
H586 C580 0.930 . S
H587 C584 0.930 . S
O588 Li528 1.956 . S
O588 Li529 1.970 . S
O588 Li530 1.961 . S
O588 C532 1.325 . S
O589 Li528 1.970 . S
O589 Li529 1.956 . S
O589 Li531 1.961 . S
O589 C538 1.325 . S
O590 Li528 1.961 . S
O590 Li530 1.956 . S
O590 Li531 1.970 . S
O590 C560 1.325 . S
O591 Li529 1.961 . S
O591 Li530 1.970 . S
O591 Li531 1.956 . S
O591 C566 1.325 . S
H592 C534 0.929 . S
H593 C535 0.930 . S
H594 C536 0.930 . S
H595 C537 0.930 . S
H596 C539 0.930 . S
H597 C541 0.929 . S
H598 C542 0.930 . S
H599 C543 0.930 . S
H600 C546 0.930 1_554 S
H601 C549 0.929 . S
H602 C554 0.929 . S
H603 C555 0.930 . S
H604 C562 0.929 . S
H605 C563 0.930 . S
H606 C564 0.930 . S
H607 C565 0.930 . S
H608 C567 0.929 . S
H609 C568 0.930 . S
H610 C569 0.930 . S
H611 C570 0.930 . S
H612 C574 0.929 . S
H613 C576 0.930 . S
H614 C582 0.929 . S
H615 C583 0.930 . S
Li616 N633 1.990 . S
Li616 O676 1.956 . S
Li616 O677 1.970 . S
Li616 O678 1.961 . S
Li617 N641 1.990 . S
Li617 O676 1.970 . S
Li617 O677 1.956 . S
Li617 O679 1.961 . S
Li618 N663 1.990 . S
Li618 O676 1.961 . S
Li618 O678 1.956 . S
Li618 O679 1.970 . S
Li619 N669 1.990 . S
Li619 O677 1.961 . S
Li619 O678 1.970 . S
Li619 O679 1.956 . S
C620 C622 1.348 . S
C620 C623 1.356 . S
C620 O676 1.325 . S
N621 C624 1.314 . S
N621 C625 1.279 . S
C622 C620 1.348 . S
C622 C624 1.353 . S
C622 H680 0.929 . S
C623 C620 1.356 . S
C623 C625 1.358 . S
C623 H681 0.930 . S
C624 N621 1.314 . S
C624 C622 1.353 . S
C624 H682 0.930 . S
C625 N621 1.279 . S
C625 C623 1.358 . S
C625 H683 0.930 . S
C626 C629 1.348 . S
C626 C630 1.356 . S
C626 O677 1.325 . S
C627 N628 1.279 . S
C627 C630 1.358 . S
C627 H684 0.930 . S
N628 C627 1.279 . S
N628 C631 1.314 . S
C629 C626 1.348 . S
C629 C631 1.353 . S
C629 H685 0.929 . S
C630 C626 1.356 . S
C630 C627 1.358 . S
C630 H686 0.930 . S
C631 N628 1.314 . S
C631 C629 1.353 . S
C631 H687 0.930 . S
C632 N633 1.314 . S
C632 C637 1.353 . S
C632 H638 0.930 . S
N633 Li616 1.990 . S
N633 C632 1.314 . S
N633 C635 1.279 . S
C634 C635 1.358 . S
C634 C636 1.356 . S
C634 H688 0.930 . S
C635 N633 1.279 . S
C635 C634 1.358 . S
C635 H639 0.930 . S
C636 C634 1.356 . S
C636 C637 1.348 . S
C637 C632 1.353 . S
C637 C636 1.348 . S
C637 H689 0.929 . S
H638 C632 0.930 . S
H639 C635 0.930 . S
C640 N641 1.314 . S
C640 C642 1.353 . S
C640 H646 0.930 . S
N641 Li617 1.990 . S
N641 C640 1.314 . S
N641 C644 1.279 . S
C642 C640 1.353 . S
C642 C645 1.348 . S
C642 H690 0.929 . S
C643 C644 1.358 . S
C643 C645 1.356 . S
C643 H691 0.930 . S
C644 N641 1.279 . S
C644 C643 1.358 . S
C644 H647 0.930 . S
C645 C642 1.348 . S
C645 C643 1.356 . S
H646 C640 0.930 . S
H647 C644 0.930 . S
C648 C650 1.348 . S
C648 C651 1.356 . S
C648 O678 1.325 . S
N649 C652 1.314 . S
N649 C653 1.279 . S
C650 C648 1.348 . S
C650 C652 1.353 . S
C650 H692 0.929 . S
C651 C648 1.356 . S
C651 C653 1.358 . S
C651 H693 0.930 . S
C652 N649 1.314 . S
C652 C650 1.353 . S
C652 H694 0.930 . S
C653 N649 1.279 . S
C653 C651 1.358 . S
C653 H695 0.930 . S
C654 C655 1.348 . S
C654 C656 1.356 . S
C654 O679 1.325 . S
C655 C654 1.348 . S
C655 C657 1.353 . S
C655 H696 0.929 . S
C656 C654 1.356 . S
C656 C658 1.358 . S
C656 H697 0.930 . S
C657 C655 1.353 . S
C657 N659 1.314 . S
C657 H698 0.930 . S
C658 C656 1.358 . S
C658 N659 1.279 . S
C658 H699 0.930 . S
N659 C657 1.314 . S
N659 C658 1.279 . S
C660 C662 1.353 . S
C660 N663 1.314 . S
C660 H666 0.930 . S
C661 N663 1.279 . S
C661 C664 1.358 . S
C661 H667 0.930 . S
C662 C660 1.353 . S
C662 C665 1.348 . S
C662 H700 0.929 . S
N663 Li618 1.990 . S
N663 C660 1.314 . S
N663 C661 1.279 . S
C664 C661 1.358 . S
C664 C665 1.356 . S
C664 H701 0.930 . S
C665 C662 1.348 . S
C665 C664 1.356 . S
H666 C660 0.930 . S
H667 C661 0.930 . S
C668 N669 1.314 . S
C668 C670 1.353 . S
C668 H674 0.930 . S
N669 Li619 1.990 . S
N669 C668 1.314 . S
N669 C672 1.279 . S
C670 C668 1.353 . S
C670 C673 1.348 . S
C670 H702 0.929 . S
C671 C672 1.358 . S
C671 C673 1.356 . S
C671 H703 0.930 . S
C672 N669 1.279 . S
C672 C671 1.358 . S
C672 H675 0.930 . S
C673 C670 1.348 . S
C673 C671 1.356 . S
H674 C668 0.930 . S
H675 C672 0.930 . S
O676 Li616 1.956 . S
O676 Li617 1.970 . S
O676 Li618 1.961 . S
O676 C620 1.325 . S
O677 Li616 1.970 . S
O677 Li617 1.956 . S
O677 Li619 1.961 . S
O677 C626 1.325 . S
O678 Li616 1.961 . S
O678 Li618 1.956 . S
O678 Li619 1.970 . S
O678 C648 1.325 . S
O679 Li617 1.961 . S
O679 Li618 1.970 . S
O679 Li619 1.956 . S
O679 C654 1.325 . S
H680 C622 0.929 . S
H681 C623 0.930 . S
H682 C624 0.930 . S
H683 C625 0.930 . S
H684 C627 0.930 . S
H685 C629 0.929 . S
H686 C630 0.930 . S
H687 C631 0.930 . S
H688 C634 0.930 . S
H689 C637 0.929 . S
H690 C642 0.929 . S
H691 C643 0.930 . S
H692 C650 0.929 . S
H693 C651 0.930 . S
H694 C652 0.930 . S
H695 C653 0.930 . S
H696 C655 0.929 . S
H697 C656 0.930 . S
H698 C657 0.930 . S
H699 C658 0.930 . S
H700 C662 0.929 . S
H701 C664 0.930 . S
H702 C670 0.929 . S
H703 C671 0.930 . S
Li704 N721 1.990 1_556 S
Li704 O764 1.956 . S
Li704 O765 1.970 . S
Li704 O766 1.961 . S
Li705 N729 1.990 . S
Li705 O764 1.970 . S
Li705 O765 1.956 . S
Li705 O767 1.961 . S
Li706 N751 2.026 . S
Li706 O764 1.954 1_455 S
Li706 O766 1.921 1_455 S
Li706 O767 1.958 1_455 S
Li707 N757 1.990 . S
Li707 O765 1.961 . S
Li707 O766 1.970 . S
Li707 O767 1.956 . S
C708 C710 1.348 1_556 S
C708 C711 1.356 1_556 S
C708 O764 1.325 1_455 S
N709 C712 1.314 . S
N709 C713 1.279 . S
C710 C708 1.348 1_554 S
C710 C712 1.353 . S
C710 H768 0.924 1_455 S
C711 C708 1.356 1_554 S
C711 C713 1.358 . S
C711 H769 0.930 1_554 S
C712 N709 1.314 . S
C712 C710 1.353 . S
C712 H770 0.930 . S
C713 N709 1.279 . S
C713 C711 1.358 . S
C713 H771 0.930 . S
C714 C717 1.348 . S
C714 C718 1.356 . S
C714 O765 1.325 . S
C715 N716 1.279 . S
C715 C718 1.358 . S
C715 H772 0.930 . S
N716 C715 1.279 . S
N716 C719 1.314 . S
C717 C714 1.348 . S
C717 C719 1.353 . S
C717 H773 0.929 . S
C718 C714 1.356 . S
C718 C715 1.358 . S
C718 H774 0.930 . S
C719 N716 1.314 . S
C719 C717 1.353 . S
C719 H775 0.930 1_556 S
C720 N721 1.314 . S
C720 C725 1.353 . S
C720 H726 0.930 1_554 S
N721 Li704 1.990 1_554 S
N721 C720 1.314 . S
N721 C723 1.279 . S
C722 C723 1.358 . S
C722 C724 1.356 . S
C722 H776 0.930 . S
C723 N721 1.279 . S
C723 C722 1.358 . S
C723 H727 0.930 . S
C724 C722 1.356 . S
C724 C725 1.348 . S
C725 C720 1.353 . S
C725 C724 1.348 . S
C725 H777 0.929 . S
H726 C720 0.930 1_556 S
H727 C723 0.930 . S
C728 N729 1.295 1_455 S
C728 C730 1.358 . S
C728 H734 0.946 . S
N729 Li705 1.990 . S
N729 C728 1.295 1_655 S
N729 C732 1.279 . S
C730 C728 1.358 . S
C730 C733 1.348 1_455 S
C730 H778 0.929 . S
C731 C732 1.358 . S
C731 C733 1.356 . S
C731 H779 0.930 . S
C732 N729 1.279 . S
C732 C731 1.358 . S
C732 H735 0.930 . S
C733 C730 1.348 1_655 S
C733 C731 1.356 . S
H734 C728 0.946 . S
H735 C732 0.930 . S
C736 C738 1.348 . S
C736 C739 1.356 . S
C736 O766 1.325 . S
N737 C740 1.314 . S
N737 C741 1.279 . S
C738 C736 1.348 . S
C738 C740 1.353 . S
C738 H780 0.929 . S
C739 C736 1.356 . S
C739 C741 1.358 . S
C739 H781 0.930 . S
C740 N737 1.314 . S
C740 C738 1.353 . S
C740 H782 0.930 . S
C741 N737 1.279 . S
C741 C739 1.358 . S
C741 H783 0.930 . S
C742 C743 1.348 1_655 S
C742 C744 1.356 . S
C742 O767 1.325 . S
C743 C742 1.348 1_455 S
C743 C745 1.353 . S
C743 H784 0.929 . S
C744 C742 1.356 . S
C744 C746 1.371 . S
C744 H785 0.930 . S
C745 C743 1.353 . S
C745 N747 1.314 . S
C745 H786 0.930 . S
C746 C744 1.371 . S
C746 N747 1.256 1_655 S
C746 H787 0.942 . S
N747 C745 1.314 . S
N747 C746 1.256 1_455 S
C748 C750 1.353 . S
C748 N751 1.314 . S
C748 H754 0.930 . S
C749 N751 1.279 . S
C749 C752 1.358 . S
C749 H755 0.930 . S
C750 C748 1.353 . S
C750 C753 1.348 . S
C750 H788 0.929 . S
N751 Li706 2.026 . S
N751 C748 1.314 . S
N751 C749 1.279 . S
C752 C749 1.358 . S
C752 C753 1.356 . S
C752 H789 0.930 . S
C753 C750 1.348 . S
C753 C752 1.356 . S
H754 C748 0.930 . S
H755 C749 0.930 . S
C756 N757 1.314 . S
C756 C758 1.353 . S
C756 H762 0.930 . S
N757 Li707 1.990 . S
N757 C756 1.314 . S
N757 C760 1.279 . S
C758 C756 1.353 . S
C758 C761 1.348 . S
C758 H790 0.929 . S
C759 C760 1.358 . S
C759 C761 1.356 . S
C759 H791 0.930 . S
C760 N757 1.279 . S
C760 C759 1.358 . S
C760 H763 0.930 . S
C761 C758 1.348 . S
C761 C759 1.356 . S
H762 C756 0.930 . S
H763 C760 0.930 . S
O764 Li704 1.956 . S
O764 Li705 1.970 . S
O764 Li706 1.954 1_655 S
O764 C708 1.325 1_655 S
O765 Li704 1.970 . S
O765 Li705 1.956 . S
O765 Li707 1.961 . S
O765 C714 1.325 . S
O766 Li704 1.961 . S
O766 Li706 1.921 1_655 S
O766 Li707 1.970 . S
O766 C736 1.325 . S
O767 Li705 1.961 . S
O767 Li706 1.958 1_655 S
O767 Li707 1.956 . S
O767 C742 1.325 . S
H768 C710 0.924 1_655 S
H769 C711 0.930 1_556 S
H770 C712 0.930 . S
H771 C713 0.930 . S
H772 C715 0.930 . S
H773 C717 0.929 . S
H774 C718 0.930 . S
H775 C719 0.930 1_554 S
H776 C722 0.930 . S
H777 C725 0.929 . S
H778 C730 0.929 . S
H779 C731 0.930 . S
H780 C738 0.929 . S
H781 C739 0.930 . S
H782 C740 0.930 . S
H783 C741 0.930 . S
H784 C743 0.929 . S
H785 C744 0.930 . S
H786 C745 0.930 . S
H787 C746 0.942 . S
H788 C750 0.929 . S
H789 C752 0.930 . S
H790 C758 0.929 . S
H791 C759 0.930 . S
Li792 N809 1.990 . S
Li792 O852 1.956 . S
Li792 O853 1.970 . S
Li792 O854 1.961 . S
Li793 N817 1.990 . S
Li793 O852 1.970 . S
Li793 O853 1.956 . S
Li793 O855 1.961 . S
Li794 N839 2.026 . S
Li794 O852 1.954 1_545 S
Li794 O854 1.921 1_545 S
Li794 O855 1.957 1_545 S
Li795 N845 1.990 . S
Li795 O853 1.961 . S
Li795 O854 1.970 . S
Li795 O855 1.956 . S
C796 C798 1.348 . S
C796 C799 1.356 . S
C796 O852 1.325 1_545 S
N797 C800 1.314 . S
N797 C801 1.279 . S
C798 C796 1.348 . S
C798 C800 1.353 . S
C798 H856 0.924 1_545 S
C799 C796 1.356 . S
C799 C801 1.358 . S
C799 H857 0.930 . S
C800 N797 1.314 . S
C800 C798 1.353 . S
C800 H858 0.930 . S
C801 N797 1.279 . S
C801 C799 1.358 . S
C801 H859 0.930 . S
C802 C805 1.348 . S
C802 C806 1.356 . S
C802 O853 1.325 . S
C803 N804 1.279 . S
C803 C806 1.358 . S
C803 H860 0.930 . S
N804 C803 1.279 . S
N804 C807 1.314 . S
C805 C802 1.348 . S
C805 C807 1.353 . S
C805 H861 0.929 . S
C806 C802 1.356 . S
C806 C803 1.358 . S
C806 H862 0.930 . S
C807 N804 1.314 . S
C807 C805 1.353 . S
C807 H863 0.930 . S
C808 N809 1.314 . S
C808 C813 1.353 . S
C808 H814 0.930 . S
N809 Li792 1.990 . S
N809 C808 1.314 . S
N809 C811 1.279 . S
C810 C811 1.358 . S
C810 C812 1.356 . S
C810 H864 0.930 . S
C811 N809 1.279 . S
C811 C810 1.358 . S
C811 H815 0.930 . S
C812 C810 1.356 . S
C812 C813 1.348 . S
C813 C808 1.353 . S
C813 C812 1.348 . S
C813 H865 0.929 . S
H814 C808 0.930 . S
H815 C811 0.930 . S
C816 N817 1.295 1_545 S
C816 C818 1.358 . S
C816 H822 0.946 . S
N817 Li793 1.990 . S
N817 C816 1.295 1_565 S
N817 C820 1.279 . S
C818 C816 1.358 . S
C818 C821 1.348 1_545 S
C818 H866 0.929 . S
C819 C820 1.358 . S
C819 C821 1.356 . S
C819 H867 0.930 . S
C820 N817 1.279 . S
C820 C819 1.358 . S
C820 H823 0.930 . S
C821 C818 1.348 1_565 S
C821 C819 1.356 . S
H822 C816 0.946 . S
H823 C820 0.930 . S
C824 C826 1.348 . S
C824 C827 1.356 . S
C824 O854 1.325 . S
N825 C828 1.314 . S
N825 C829 1.279 . S
C826 C824 1.348 . S
C826 C828 1.353 . S
C826 H868 0.929 . S
C827 C824 1.356 . S
C827 C829 1.358 . S
C827 H869 0.930 . S
C828 N825 1.314 . S
C828 C826 1.353 . S
C828 H870 0.930 . S
C829 N825 1.279 . S
C829 C827 1.358 . S
C829 H871 0.930 . S
C830 C831 1.348 1_565 S
C830 C832 1.356 . S
C830 O855 1.325 . S
C831 C830 1.348 1_545 S
C831 C833 1.353 . S
C831 H872 0.929 . S
C832 C830 1.356 . S
C832 C834 1.371 . S
C832 H873 0.930 . S
C833 C831 1.353 . S
C833 N835 1.314 . S
C833 H874 0.930 . S
C834 C832 1.371 . S
C834 N835 1.257 1_565 S
C834 H875 0.942 . S
N835 C833 1.314 . S
N835 C834 1.257 1_545 S
C836 C838 1.353 . S
C836 N839 1.314 . S
C836 H842 0.930 . S
C837 N839 1.279 . S
C837 C840 1.358 . S
C837 H843 0.930 . S
C838 C836 1.353 . S
C838 C841 1.348 . S
C838 H876 0.929 . S
N839 Li794 2.026 . S
N839 C836 1.314 . S
N839 C837 1.279 . S
C840 C837 1.358 . S
C840 C841 1.356 . S
C840 H877 0.930 . S
C841 C838 1.348 . S
C841 C840 1.356 . S
H842 C836 0.930 . S
H843 C837 0.930 . S
C844 N845 1.314 . S
C844 C846 1.353 . S
C844 H850 0.930 . S
N845 Li795 1.990 . S
N845 C844 1.314 . S
N845 C848 1.279 . S
C846 C844 1.353 . S
C846 C849 1.348 . S
C846 H878 0.929 . S
C847 C848 1.358 . S
C847 C849 1.356 . S
C847 H879 0.930 . S
C848 N845 1.279 . S
C848 C847 1.358 . S
C848 H851 0.930 . S
C849 C846 1.348 . S
C849 C847 1.356 . S
H850 C844 0.930 . S
H851 C848 0.930 . S
O852 Li792 1.956 . S
O852 Li793 1.970 . S
O852 Li794 1.954 1_565 S
O852 C796 1.325 1_565 S
O853 Li792 1.970 . S
O853 Li793 1.956 . S
O853 Li795 1.961 . S
O853 C802 1.325 . S
O854 Li792 1.961 . S
O854 Li794 1.921 1_565 S
O854 Li795 1.970 . S
O854 C824 1.325 . S
O855 Li793 1.961 . S
O855 Li794 1.957 1_565 S
O855 Li795 1.956 . S
O855 C830 1.325 . S
H856 C798 0.924 1_565 S
H857 C799 0.930 . S
H858 C800 0.930 . S
H859 C801 0.930 . S
H860 C803 0.930 . S
H861 C805 0.929 . S
H862 C806 0.930 . S
H863 C807 0.930 . S
H864 C810 0.930 . S
H865 C813 0.929 . S
H866 C818 0.929 . S
H867 C819 0.930 . S
H868 C826 0.929 . S
H869 C827 0.930 . S
H870 C828 0.930 . S
H871 C829 0.930 . S
H872 C831 0.929 . S
H873 C832 0.930 . S
H874 C833 0.930 . S
H875 C834 0.942 . S
H876 C838 0.929 . S
H877 C840 0.930 . S
H878 C846 0.929 . S
H879 C847 0.930 . S
Li880 N897 1.990 . S
Li880 O940 1.956 . S
Li880 O941 1.970 . S
Li880 O942 1.961 . S
Li881 N905 1.990 1_556 S
Li881 O940 1.970 . S
Li881 O941 1.956 . S
Li881 O943 1.961 . S
Li882 N927 1.990 . S
Li882 O940 1.961 . S
Li882 O942 1.956 . S
Li882 O943 1.970 . S
Li883 N933 1.990 . S
Li883 O941 1.961 . S
Li883 O942 1.970 . S
Li883 O943 1.956 . S
C884 C886 1.348 . S
C884 C887 1.356 . S
C884 O940 1.325 . S
N885 C888 1.314 . S
N885 C889 1.279 . S
C886 C884 1.348 . S
C886 C888 1.353 . S
C886 H944 0.929 . S
C887 C884 1.356 . S
C887 C889 1.358 . S
C887 H945 0.930 . S
C888 N885 1.314 . S
C888 C886 1.353 . S
C888 H946 0.930 1_556 S
C889 N885 1.279 . S
C889 C887 1.358 . S
C889 H947 0.930 . S
C890 C893 1.348 1_556 S
C890 C894 1.356 1_556 S
C890 O941 1.325 . S
C891 N892 1.279 . S
C891 C894 1.358 . S
C891 H948 0.930 . S
N892 C891 1.279 . S
N892 C895 1.314 . S
C893 C890 1.348 1_554 S
C893 C895 1.353 . S
C893 H949 0.929 . S
C894 C890 1.356 1_554 S
C894 C891 1.358 . S
C894 H950 0.930 1_554 S
C895 N892 1.314 . S
C895 C893 1.353 . S
C895 H951 0.930 . S
C896 N897 1.314 . S
C896 C901 1.353 . S
C896 H902 0.930 . S
N897 Li880 1.990 . S
N897 C896 1.314 . S
N897 C899 1.279 . S
C898 C899 1.358 . S
C898 C900 1.356 . S
C898 H952 0.930 . S
C899 N897 1.279 . S
C899 C898 1.358 . S
C899 H903 0.930 . S
C900 C898 1.356 . S
C900 C901 1.348 . S
C901 C896 1.353 . S
C901 C900 1.348 . S
C901 H953 0.929 . S
H902 C896 0.930 . S
H903 C899 0.930 . S
C904 N905 1.314 . S
C904 C906 1.353 . S
C904 H910 0.930 1_554 S
N905 Li881 1.990 1_554 S
N905 C904 1.314 . S
N905 C908 1.279 . S
C906 C904 1.353 . S
C906 C909 1.348 . S
C906 H954 0.929 . S
C907 C908 1.358 . S
C907 C909 1.356 . S
C907 H955 0.930 . S
C908 N905 1.279 . S
C908 C907 1.358 . S
C908 H911 0.930 . S
C909 C906 1.348 . S
C909 C907 1.356 . S
H910 C904 0.930 1_556 S
H911 C908 0.930 . S
C912 C914 1.348 . S
C912 C915 1.356 . S
C912 O942 1.325 . S
N913 C916 1.314 . S
N913 C917 1.279 . S
C914 C912 1.348 . S
C914 C916 1.353 . S
C914 H956 0.929 . S
C915 C912 1.356 . S
C915 C917 1.358 . S
C915 H957 0.930 . S
C916 N913 1.314 . S
C916 C914 1.353 . S
C916 H958 0.930 . S
C917 N913 1.279 . S
C917 C915 1.358 . S
C917 H959 0.930 . S
C918 C919 1.348 . S
C918 C920 1.356 . S
C918 O943 1.325 . S
C919 C918 1.348 . S
C919 C921 1.353 . S
C919 H960 0.929 . S
C920 C918 1.356 . S
C920 C922 1.358 . S
C920 H961 0.930 . S
C921 C919 1.353 . S
C921 N923 1.314 . S
C921 H962 0.930 . S
C922 C920 1.358 . S
C922 N923 1.279 . S
C922 H963 0.930 . S
N923 C921 1.314 . S
N923 C922 1.279 . S
C924 C926 1.353 . S
C924 N927 1.314 . S
C924 H930 0.930 . S
C925 N927 1.279 . S
C925 C928 1.358 . S
C925 H931 0.930 . S
C926 C924 1.353 . S
C926 C929 1.348 . S
C926 H964 0.929 . S
N927 Li882 1.990 . S
N927 C924 1.314 . S
N927 C925 1.279 . S
C928 C925 1.358 . S
C928 C929 1.356 . S
C928 H965 0.930 . S
C929 C926 1.348 . S
C929 C928 1.356 . S
H930 C924 0.930 . S
H931 C925 0.930 . S
C932 N933 1.314 . S
C932 C934 1.353 . S
C932 H938 0.930 . S
N933 Li883 1.990 . S
N933 C932 1.314 . S
N933 C936 1.279 . S
C934 C932 1.353 . S
C934 C937 1.348 . S
C934 H966 0.929 . S
C935 C936 1.358 . S
C935 C937 1.356 . S
C935 H967 0.930 . S
C936 N933 1.279 . S
C936 C935 1.358 . S
C936 H939 0.930 . S
C937 C934 1.348 . S
C937 C935 1.356 . S
H938 C932 0.930 . S
H939 C936 0.930 . S
O940 Li880 1.956 . S
O940 Li881 1.970 . S
O940 Li882 1.961 . S
O940 C884 1.325 . S
O941 Li880 1.970 . S
O941 Li881 1.956 . S
O941 Li883 1.961 . S
O941 C890 1.325 . S
O942 Li880 1.961 . S
O942 Li882 1.956 . S
O942 Li883 1.970 . S
O942 C912 1.325 . S
O943 Li881 1.961 . S
O943 Li882 1.970 . S
O943 Li883 1.956 . S
O943 C918 1.325 . S
H944 C886 0.929 . S
H945 C887 0.930 . S
H946 C888 0.930 1_554 S
H947 C889 0.930 . S
H948 C891 0.930 . S
H949 C893 0.929 . S
H950 C894 0.930 1_556 S
H951 C895 0.930 . S
H952 C898 0.930 . S
H953 C901 0.929 . S
H954 C906 0.929 . S
H955 C907 0.930 . S
H956 C914 0.929 . S
H957 C915 0.930 . S
H958 C916 0.930 . S
H959 C917 0.930 . S
H960 C919 0.929 . S
H961 C920 0.930 . S
H962 C921 0.930 . S
H963 C922 0.930 . S
H964 C926 0.929 . S
H965 C928 0.930 . S
H966 C934 0.929 . S
H967 C935 0.930 . S
Li968 N985 1.990 . S
Li968 O1028 1.956 . S
Li968 O1029 1.970 . S
Li968 O1030 1.961 . S
Li969 N993 1.990 . S
Li969 O1028 1.970 . S
Li969 O1029 1.956 . S
Li969 O1031 1.961 . S
Li970 N1015 1.990 . S
Li970 O1028 1.961 . S
Li970 O1030 1.956 . S
Li970 O1031 1.970 . S
Li971 N1021 1.990 . S
Li971 O1029 1.961 . S
Li971 O1030 1.970 . S
Li971 O1031 1.956 . S
C972 C974 1.348 . S
C972 C975 1.356 . S
C972 O1028 1.325 . S
N973 C976 1.314 . S
N973 C977 1.279 . S
C974 C972 1.348 . S
C974 C976 1.353 . S
C974 H1032 0.929 . S
C975 C972 1.356 . S
C975 C977 1.358 . S
C975 H1033 0.930 . S
C976 N973 1.314 . S
C976 C974 1.353 . S
C976 H1034 0.930 . S
C977 N973 1.279 . S
C977 C975 1.358 . S
C977 H1035 0.930 . S
C978 C981 1.348 . S
C978 C982 1.356 . S
C978 O1029 1.325 . S
C979 N980 1.279 . S
C979 C982 1.358 . S
C979 H1036 0.930 . S
N980 C979 1.279 . S
N980 C983 1.314 . S
C981 C978 1.348 . S
C981 C983 1.353 . S
C981 H1037 0.929 . S
C982 C978 1.356 . S
C982 C979 1.358 . S
C982 H1038 0.930 . S
C983 N980 1.314 . S
C983 C981 1.353 . S
C983 H1039 0.930 . S
C984 N985 1.314 . S
C984 C989 1.353 . S
C984 H990 0.930 . S
N985 Li968 1.990 . S
N985 C984 1.314 . S
N985 C987 1.279 . S
C986 C987 1.358 . S
C986 C988 1.356 . S
C986 H1040 0.930 . S
C987 N985 1.279 . S
C987 C986 1.358 . S
C987 H991 0.930 . S
C988 C986 1.356 . S
C988 C989 1.348 . S
C989 C984 1.353 . S
C989 C988 1.348 . S
C989 H1041 0.929 . S
H990 C984 0.930 . S
H991 C987 0.930 . S
C992 N993 1.314 . S
C992 C994 1.353 . S
C992 H998 0.930 . S
N993 Li969 1.990 . S
N993 C992 1.314 . S
N993 C996 1.279 . S
C994 C992 1.353 . S
C994 C997 1.348 . S
C994 H1042 0.929 . S
C995 C996 1.358 . S
C995 C997 1.356 . S
C995 H1043 0.930 . S
C996 N993 1.279 . S
C996 C995 1.358 . S
C996 H999 0.930 . S
C997 C994 1.348 . S
C997 C995 1.356 . S
H998 C992 0.930 . S
H999 C996 0.930 . S
C1000 C1002 1.348 . S
C1000 C1003 1.356 . S
C1000 O1030 1.325 . S
N1001 C1004 1.314 . S
N1001 C1005 1.279 . S
C1002 C1000 1.348 . S
C1002 C1004 1.353 . S
C1002 H1044 0.929 . S
C1003 C1000 1.356 . S
C1003 C1005 1.358 . S
C1003 H1045 0.930 . S
C1004 N1001 1.314 . S
C1004 C1002 1.353 . S
C1004 H1046 0.930 . S
C1005 N1001 1.279 . S
C1005 C1003 1.358 . S
C1005 H1047 0.930 . S
C1006 C1007 1.348 . S
C1006 C1008 1.356 . S
C1006 O1031 1.325 . S
C1007 C1006 1.348 . S
C1007 C1009 1.353 . S
C1007 H1048 0.929 . S
C1008 C1006 1.356 . S
C1008 C1010 1.358 . S
C1008 H1049 0.930 . S
C1009 C1007 1.353 . S
C1009 N1011 1.314 . S
C1009 H1050 0.930 . S
C1010 C1008 1.358 . S
C1010 N1011 1.279 . S
C1010 H1051 0.930 . S
N1011 C1009 1.314 . S
N1011 C1010 1.279 . S
C1012 C1014 1.353 . S
C1012 N1015 1.314 . S
C1012 H1018 0.930 . S
C1013 N1015 1.279 . S
C1013 C1016 1.358 . S
C1013 H1019 0.930 . S
C1014 C1012 1.353 . S
C1014 C1017 1.348 . S
C1014 H1052 0.929 . S
N1015 Li970 1.990 . S
N1015 C1012 1.314 . S
N1015 C1013 1.279 . S
C1016 C1013 1.358 . S
C1016 C1017 1.356 . S
C1016 H1053 0.930 . S
C1017 C1014 1.348 . S
C1017 C1016 1.356 . S
H1018 C1012 0.930 . S
H1019 C1013 0.930 . S
C1020 N1021 1.314 . S
C1020 C1022 1.353 . S
C1020 H1026 0.930 . S
N1021 Li971 1.990 . S
N1021 C1020 1.314 . S
N1021 C1024 1.279 . S
C1022 C1020 1.353 . S
C1022 C1025 1.348 . S
C1022 H1054 0.929 . S
C1023 C1024 1.358 . S
C1023 C1025 1.356 . S
C1023 H1055 0.930 . S
C1024 N1021 1.279 . S
C1024 C1023 1.358 . S
C1024 H1027 0.930 . S
C1025 C1022 1.348 . S
C1025 C1023 1.356 . S
H1026 C1020 0.930 . S
H1027 C1024 0.930 . S
O1028 Li968 1.956 . S
O1028 Li969 1.970 . S
O1028 Li970 1.961 . S
O1028 C972 1.325 . S
O1029 Li968 1.970 . S
O1029 Li969 1.956 . S
O1029 Li971 1.961 . S
O1029 C978 1.325 . S
O1030 Li968 1.961 . S
O1030 Li970 1.956 . S
O1030 Li971 1.970 . S
O1030 C1000 1.325 . S
O1031 Li969 1.961 . S
O1031 Li970 1.970 . S
O1031 Li971 1.956 . S
O1031 C1006 1.325 . S
H1032 C974 0.929 . S
H1033 C975 0.930 . S
H1034 C976 0.930 . S
H1035 C977 0.930 . S
H1036 C979 0.930 . S
H1037 C981 0.929 . S
H1038 C982 0.930 . S
H1039 C983 0.930 . S
H1040 C986 0.930 . S
H1041 C989 0.929 . S
H1042 C994 0.929 . S
H1043 C995 0.930 . S
H1044 C1002 0.929 . S
H1045 C1003 0.930 . S
H1046 C1004 0.930 . S
H1047 C1005 0.930 . S
H1048 C1007 0.929 . S
H1049 C1008 0.930 . S
H1050 C1009 0.930 . S
H1051 C1010 0.930 . S
H1052 C1014 0.929 . S
H1053 C1016 0.930 . S
H1054 C1022 0.929 . S
H1055 C1023 0.930 . S
Li1056 N1073 1.990 . S
Li1056 O1116 1.956 . S
Li1056 O1117 1.970 . S
Li1056 O1118 1.961 . S
Li1057 N1081 2.026 . S
Li1057 O1116 1.957 1_455 S
Li1057 O1117 1.921 1_455 S
Li1057 O1119 1.954 1_455 S
Li1058 N1103 1.990 . S
Li1058 O1116 1.961 . S
Li1058 O1118 1.956 . S
Li1058 O1119 1.970 . S
Li1059 N1109 1.990 1_554 S
Li1059 O1117 1.961 . S
Li1059 O1118 1.970 . S
Li1059 O1119 1.956 . S
C1060 C1062 1.348 1_655 S
C1060 C1063 1.356 . S
C1060 O1116 1.325 . S
N1061 C1064 1.314 . S
N1061 C1065 1.256 1_455 S
C1062 C1060 1.348 1_455 S
C1062 C1064 1.353 . S
C1062 H1120 0.929 . S
C1063 C1060 1.356 . S
C1063 C1065 1.371 . S
C1063 H1121 0.930 . S
C1064 N1061 1.314 . S
C1064 C1062 1.353 . S
C1064 H1122 0.930 . S
C1065 N1061 1.256 1_655 S
C1065 C1063 1.371 . S
C1065 H1123 0.942 . S
C1066 C1069 1.348 . S
C1066 C1070 1.356 . S
C1066 O1117 1.325 . S
C1067 N1068 1.279 . S
C1067 C1070 1.358 . S
C1067 H1124 0.930 . S
N1068 C1067 1.279 . S
N1068 C1071 1.314 . S
C1069 C1066 1.348 . S
C1069 C1071 1.353 . S
C1069 H1125 0.929 . S
C1070 C1066 1.356 . S
C1070 C1067 1.358 . S
C1070 H1126 0.930 . S
C1071 N1068 1.314 . S
C1071 C1069 1.353 . S
C1071 H1127 0.930 . S
C1072 N1073 1.314 . S
C1072 C1077 1.353 . S
C1072 H1078 0.930 . S
N1073 Li1056 1.990 . S
N1073 C1072 1.314 . S
N1073 C1075 1.279 . S
C1074 C1075 1.358 . S
C1074 C1076 1.356 . S
C1074 H1128 0.930 . S
C1075 N1073 1.279 . S
C1075 C1074 1.358 . S
C1075 H1079 0.930 . S
C1076 C1074 1.356 . S
C1076 C1077 1.348 . S
C1077 C1072 1.353 . S
C1077 C1076 1.348 . S
C1077 H1129 0.929 . S
H1078 C1072 0.930 . S
H1079 C1075 0.930 . S
C1080 N1081 1.314 . S
C1080 C1082 1.353 . S
C1080 H1086 0.930 . S
N1081 Li1057 2.026 . S
N1081 C1080 1.314 . S
N1081 C1084 1.279 . S
C1082 C1080 1.353 . S
C1082 C1085 1.348 . S
C1082 H1130 0.929 . S
C1083 C1084 1.358 . S
C1083 C1085 1.356 . S
C1083 H1131 0.930 . S
C1084 N1081 1.279 . S
C1084 C1083 1.358 . S
C1084 H1087 0.930 . S
C1085 C1082 1.348 . S
C1085 C1083 1.356 . S
H1086 C1080 0.930 . S
H1087 C1084 0.930 . S
C1088 C1090 1.348 . S
C1088 C1091 1.356 . S
C1088 O1118 1.325 . S
N1089 C1092 1.314 . S
N1089 C1093 1.279 . S
C1090 C1088 1.348 . S
C1090 C1092 1.353 . S
C1090 H1132 0.929 . S
C1091 C1088 1.356 . S
C1091 C1093 1.358 . S
C1091 H1133 0.930 . S
C1092 N1089 1.314 . S
C1092 C1090 1.353 . S
C1092 H1134 0.930 1_554 S
C1093 N1089 1.279 . S
C1093 C1091 1.358 . S
C1093 H1135 0.930 . S
C1094 C1095 1.348 1_554 S
C1094 C1096 1.356 1_554 S
C1094 O1119 1.325 1_455 S
C1095 C1094 1.348 1_556 S
C1095 C1097 1.353 . S
C1095 H1136 0.924 1_455 S
C1096 C1094 1.356 1_556 S
C1096 C1098 1.358 . S
C1096 H1137 0.930 1_556 S
C1097 C1095 1.353 . S
C1097 N1099 1.314 . S
C1097 H1138 0.930 . S
C1098 C1096 1.358 . S
C1098 N1099 1.279 . S
C1098 H1139 0.930 . S
N1099 C1097 1.314 . S
N1099 C1098 1.279 . S
C1100 C1102 1.358 . S
C1100 N1103 1.295 1_455 S
C1100 H1106 0.946 . S
C1101 N1103 1.279 . S
C1101 C1104 1.358 . S
C1101 H1107 0.930 . S
C1102 C1100 1.358 . S
C1102 C1105 1.348 1_455 S
C1102 H1140 0.929 . S
N1103 Li1058 1.990 . S
N1103 C1100 1.295 1_655 S
N1103 C1101 1.279 . S
C1104 C1101 1.358 . S
C1104 C1105 1.356 . S
C1104 H1141 0.930 . S
C1105 C1102 1.348 1_655 S
C1105 C1104 1.356 . S
H1106 C1100 0.946 . S
H1107 C1101 0.930 . S
C1108 N1109 1.314 . S
C1108 C1110 1.353 . S
C1108 H1114 0.930 1_556 S
N1109 Li1059 1.990 1_556 S
N1109 C1108 1.314 . S
N1109 C1112 1.279 . S
C1110 C1108 1.353 . S
C1110 C1113 1.348 . S
C1110 H1142 0.929 . S
C1111 C1112 1.358 . S
C1111 C1113 1.356 . S
C1111 H1143 0.930 . S
C1112 N1109 1.279 . S
C1112 C1111 1.358 . S
C1112 H1115 0.930 . S
C1113 C1110 1.348 . S
C1113 C1111 1.356 . S
H1114 C1108 0.930 1_554 S
H1115 C1112 0.930 . S
O1116 Li1056 1.956 . S
O1116 Li1057 1.957 1_655 S
O1116 Li1058 1.961 . S
O1116 C1060 1.325 . S
O1117 Li1056 1.970 . S
O1117 Li1057 1.921 1_655 S
O1117 Li1059 1.961 . S
O1117 C1066 1.325 . S
O1118 Li1056 1.961 . S
O1118 Li1058 1.956 . S
O1118 Li1059 1.970 . S
O1118 C1088 1.325 . S
O1119 Li1057 1.954 1_655 S
O1119 Li1058 1.970 . S
O1119 Li1059 1.956 . S
O1119 C1094 1.325 1_655 S
H1120 C1062 0.929 . S
H1121 C1063 0.930 . S
H1122 C1064 0.930 . S
H1123 C1065 0.942 . S
H1124 C1067 0.930 . S
H1125 C1069 0.929 . S
H1126 C1070 0.930 . S
H1127 C1071 0.930 . S
H1128 C1074 0.930 . S
H1129 C1077 0.929 . S
H1130 C1082 0.929 . S
H1131 C1083 0.930 . S
H1132 C1090 0.929 . S
H1133 C1091 0.930 . S
H1134 C1092 0.930 1_556 S
H1135 C1093 0.930 . S
H1136 C1095 0.924 1_655 S
H1137 C1096 0.930 1_554 S
H1138 C1097 0.930 . S
H1139 C1098 0.930 . S
H1140 C1102 0.929 . S
H1141 C1104 0.930 . S
H1142 C1110 0.929 . S
H1143 C1111 0.930 . S
Li1144 N1161 2.026 . S
Li1144 O1204 1.921 1_545 S
Li1144 O1205 1.957 1_545 S
Li1144 O1206 1.954 1_545 S
Li1145 N1169 1.990 . S
Li1145 O1204 1.970 . S
Li1145 O1205 1.956 . S
Li1145 O1207 1.961 . S
Li1146 N1191 1.990 . S
Li1146 O1204 1.961 . S
Li1146 O1206 1.956 . S
Li1146 O1207 1.970 . S
Li1147 N1197 1.990 . S
Li1147 O1205 1.961 . S
Li1147 O1206 1.970 . S
Li1147 O1207 1.956 . S
C1148 C1150 1.348 . S
C1148 C1151 1.356 . S
C1148 O1204 1.325 . S
N1149 C1152 1.314 . S
N1149 C1153 1.279 . S
C1150 C1148 1.348 . S
C1150 C1152 1.353 . S
C1150 H1208 0.929 . S
C1151 C1148 1.356 . S
C1151 C1153 1.358 . S
C1151 H1209 0.930 . S
C1152 N1149 1.314 . S
C1152 C1150 1.353 . S
C1152 H1210 0.930 . S
C1153 N1149 1.279 . S
C1153 C1151 1.358 . S
C1153 H1211 0.930 . S
C1154 C1157 1.348 1_565 S
C1154 C1158 1.356 . S
C1154 O1205 1.325 . S
C1155 N1156 1.256 1_565 S
C1155 C1158 1.371 . S
C1155 H1212 0.942 . S
N1156 C1155 1.256 1_545 S
N1156 C1159 1.314 . S
C1157 C1154 1.348 1_545 S
C1157 C1159 1.353 . S
C1157 H1213 0.929 . S
C1158 C1154 1.356 . S
C1158 C1155 1.371 . S
C1158 H1214 0.930 . S
C1159 N1156 1.314 . S
C1159 C1157 1.353 . S
C1159 H1215 0.930 . S
C1160 N1161 1.314 . S
C1160 C1165 1.353 . S
C1160 H1166 0.930 . S
N1161 Li1144 2.026 . S
N1161 C1160 1.314 . S
N1161 C1163 1.279 . S
C1162 C1163 1.358 . S
C1162 C1164 1.356 . S
C1162 H1216 0.930 . S
C1163 N1161 1.279 . S
C1163 C1162 1.358 . S
C1163 H1167 0.930 . S
C1164 C1162 1.356 . S
C1164 C1165 1.348 . S
C1165 C1160 1.353 . S
C1165 C1164 1.348 . S
C1165 H1217 0.929 . S
H1166 C1160 0.930 . S
H1167 C1163 0.930 . S
C1168 N1169 1.314 . S
C1168 C1170 1.353 . S
C1168 H1174 0.930 . S
N1169 Li1145 1.990 . S
N1169 C1168 1.314 . S
N1169 C1172 1.279 . S
C1170 C1168 1.353 . S
C1170 C1173 1.348 . S
C1170 H1218 0.929 . S
C1171 C1172 1.358 . S
C1171 C1173 1.356 . S
C1171 H1219 0.930 . S
C1172 N1169 1.279 . S
C1172 C1171 1.358 . S
C1172 H1175 0.930 . S
C1173 C1170 1.348 . S
C1173 C1171 1.356 . S
H1174 C1168 0.930 . S
H1175 C1172 0.930 . S
C1176 C1178 1.348 . S
C1176 C1179 1.356 . S
C1176 O1206 1.325 1_545 S
N1177 C1180 1.314 . S
N1177 C1181 1.279 . S
C1178 C1176 1.348 . S
C1178 C1180 1.353 . S
C1178 H1220 0.924 1_545 S
C1179 C1176 1.356 . S
C1179 C1181 1.358 . S
C1179 H1221 0.930 . S
C1180 N1177 1.314 . S
C1180 C1178 1.353 . S
C1180 H1222 0.930 . S
C1181 N1177 1.279 . S
C1181 C1179 1.358 . S
C1181 H1223 0.930 . S
C1182 C1183 1.348 . S
C1182 C1184 1.356 . S
C1182 O1207 1.325 . S
C1183 C1182 1.348 . S
C1183 C1185 1.353 . S
C1183 H1224 0.929 . S
C1184 C1182 1.356 . S
C1184 C1186 1.358 . S
C1184 H1225 0.930 . S
C1185 C1183 1.353 . S
C1185 N1187 1.314 . S
C1185 H1226 0.930 . S
C1186 C1184 1.358 . S
C1186 N1187 1.279 . S
C1186 H1227 0.930 . S
N1187 C1185 1.314 . S
N1187 C1186 1.279 . S
C1188 C1190 1.353 . S
C1188 N1191 1.314 . S
C1188 H1194 0.930 . S
C1189 N1191 1.279 . S
C1189 C1192 1.358 . S
C1189 H1195 0.930 . S
C1190 C1188 1.353 . S
C1190 C1193 1.348 . S
C1190 H1228 0.929 . S
N1191 Li1146 1.990 . S
N1191 C1188 1.314 . S
N1191 C1189 1.279 . S
C1192 C1189 1.358 . S
C1192 C1193 1.356 . S
C1192 H1229 0.930 . S
C1193 C1190 1.348 . S
C1193 C1192 1.356 . S
H1194 C1188 0.930 . S
H1195 C1189 0.930 . S
C1196 N1197 1.295 1_545 S
C1196 C1198 1.358 . S
C1196 H1202 0.946 . S
N1197 Li1147 1.990 . S
N1197 C1196 1.295 1_565 S
N1197 C1200 1.279 . S
C1198 C1196 1.358 . S
C1198 C1201 1.348 1_545 S
C1198 H1230 0.929 . S
C1199 C1200 1.358 . S
C1199 C1201 1.356 . S
C1199 H1231 0.930 . S
C1200 N1197 1.279 . S
C1200 C1199 1.358 . S
C1200 H1203 0.930 . S
C1201 C1198 1.348 1_565 S
C1201 C1199 1.356 . S
H1202 C1196 0.946 . S
H1203 C1200 0.930 . S
O1204 Li1144 1.921 1_565 S
O1204 Li1145 1.970 . S
O1204 Li1146 1.961 . S
O1204 C1148 1.325 . S
O1205 Li1144 1.957 1_565 S
O1205 Li1145 1.956 . S
O1205 Li1147 1.961 . S
O1205 C1154 1.325 . S
O1206 Li1144 1.954 1_565 S
O1206 Li1146 1.956 . S
O1206 Li1147 1.970 . S
O1206 C1176 1.325 1_565 S
O1207 Li1145 1.961 . S
O1207 Li1146 1.970 . S
O1207 Li1147 1.956 . S
O1207 C1182 1.325 . S
H1208 C1150 0.929 . S
H1209 C1151 0.930 . S
H1210 C1152 0.930 . S
H1211 C1153 0.930 . S
H1212 C1155 0.942 . S
H1213 C1157 0.929 . S
H1214 C1158 0.930 . S
H1215 C1159 0.930 . S
H1216 C1162 0.930 . S
H1217 C1165 0.929 . S
H1218 C1170 0.929 . S
H1219 C1171 0.930 . S
H1220 C1178 0.924 1_565 S
H1221 C1179 0.930 . S
H1222 C1180 0.930 . S
H1223 C1181 0.930 . S
H1224 C1183 0.929 . S
H1225 C1184 0.930 . S
H1226 C1185 0.930 . S
H1227 C1186 0.930 . S
H1228 C1190 0.929 . S
H1229 C1192 0.930 . S
H1230 C1198 0.929 . S
H1231 C1199 0.930 . S
Li1232 N1249 1.990 . S
Li1232 O1292 1.956 . S
Li1232 O1293 1.970 . S
Li1232 O1294 1.961 . S
Li1233 N1257 1.990 . S
Li1233 O1292 1.970 . S
Li1233 O1293 1.956 . S
Li1233 O1295 1.961 . S
Li1234 N1279 1.990 1_554 S
Li1234 O1292 1.961 . S
Li1234 O1294 1.956 . S
Li1234 O1295 1.970 . S
Li1235 N1285 1.990 . S
Li1235 O1293 1.961 . S
Li1235 O1294 1.970 . S
Li1235 O1295 1.956 . S
C1236 C1238 1.348 . S
C1236 C1239 1.356 . S
C1236 O1292 1.325 . S
N1237 C1240 1.314 . S
N1237 C1241 1.279 . S
C1238 C1236 1.348 . S
C1238 C1240 1.353 . S
C1238 H1296 0.929 . S
C1239 C1236 1.356 . S
C1239 C1241 1.358 . S
C1239 H1297 0.930 . S
C1240 N1237 1.314 . S
C1240 C1238 1.353 . S
C1240 H1298 0.930 . S
C1241 N1237 1.279 . S
C1241 C1239 1.358 . S
C1241 H1299 0.930 . S
C1242 C1245 1.348 . S
C1242 C1246 1.356 . S
C1242 O1293 1.325 . S
C1243 N1244 1.279 . S
C1243 C1246 1.358 . S
C1243 H1300 0.930 . S
N1244 C1243 1.279 . S
N1244 C1247 1.314 . S
C1245 C1242 1.348 . S
C1245 C1247 1.353 . S
C1245 H1301 0.929 . S
C1246 C1242 1.356 . S
C1246 C1243 1.358 . S
C1246 H1302 0.930 . S
C1247 N1244 1.314 . S
C1247 C1245 1.353 . S
C1247 H1303 0.930 . S
C1248 N1249 1.314 . S
C1248 C1253 1.353 . S
C1248 H1254 0.930 . S
N1249 Li1232 1.990 . S
N1249 C1248 1.314 . S
N1249 C1251 1.279 . S
C1250 C1251 1.358 . S
C1250 C1252 1.356 . S
C1250 H1304 0.930 . S
C1251 N1249 1.279 . S
C1251 C1250 1.358 . S
C1251 H1255 0.930 . S
C1252 C1250 1.356 . S
C1252 C1253 1.348 . S
C1253 C1248 1.353 . S
C1253 C1252 1.348 . S
C1253 H1305 0.929 . S
H1254 C1248 0.930 . S
H1255 C1251 0.930 . S
C1256 N1257 1.314 . S
C1256 C1258 1.353 . S
C1256 H1262 0.930 . S
N1257 Li1233 1.990 . S
N1257 C1256 1.314 . S
N1257 C1260 1.279 . S
C1258 C1256 1.353 . S
C1258 C1261 1.348 . S
C1258 H1306 0.929 . S
C1259 C1260 1.358 . S
C1259 C1261 1.356 . S
C1259 H1307 0.930 . S
C1260 N1257 1.279 . S
C1260 C1259 1.358 . S
C1260 H1263 0.930 . S
C1261 C1258 1.348 . S
C1261 C1259 1.356 . S
H1262 C1256 0.930 . S
H1263 C1260 0.930 . S
C1264 C1266 1.348 1_554 S
C1264 C1267 1.356 1_554 S
C1264 O1294 1.325 . S
N1265 C1268 1.314 . S
N1265 C1269 1.279 . S
C1266 C1264 1.348 1_556 S
C1266 C1268 1.353 . S
C1266 H1308 0.929 . S
C1267 C1264 1.356 1_556 S
C1267 C1269 1.358 . S
C1267 H1309 0.930 1_556 S
C1268 N1265 1.314 . S
C1268 C1266 1.353 . S
C1268 H1310 0.930 . S
C1269 N1265 1.279 . S
C1269 C1267 1.358 . S
C1269 H1311 0.930 . S
C1270 C1271 1.348 . S
C1270 C1272 1.356 . S
C1270 O1295 1.325 . S
C1271 C1270 1.348 . S
C1271 C1273 1.353 . S
C1271 H1312 0.929 . S
C1272 C1270 1.356 . S
C1272 C1274 1.358 . S
C1272 H1313 0.930 . S
C1273 C1271 1.353 . S
C1273 N1275 1.314 . S
C1273 H1314 0.930 1_554 S
C1274 C1272 1.358 . S
C1274 N1275 1.279 . S
C1274 H1315 0.930 . S
N1275 C1273 1.314 . S
N1275 C1274 1.279 . S
C1276 C1278 1.353 . S
C1276 N1279 1.314 . S
C1276 H1282 0.930 1_556 S
C1277 N1279 1.279 . S
C1277 C1280 1.358 . S
C1277 H1283 0.930 . S
C1278 C1276 1.353 . S
C1278 C1281 1.348 . S
C1278 H1316 0.929 . S
N1279 Li1234 1.990 1_556 S
N1279 C1276 1.314 . S
N1279 C1277 1.279 . S
C1280 C1277 1.358 . S
C1280 C1281 1.356 . S
C1280 H1317 0.930 . S
C1281 C1278 1.348 . S
C1281 C1280 1.356 . S
H1282 C1276 0.930 1_554 S
H1283 C1277 0.930 . S
C1284 N1285 1.314 . S
C1284 C1286 1.353 . S
C1284 H1290 0.930 . S
N1285 Li1235 1.990 . S
N1285 C1284 1.314 . S
N1285 C1288 1.279 . S
C1286 C1284 1.353 . S
C1286 C1289 1.348 . S
C1286 H1318 0.929 . S
C1287 C1288 1.358 . S
C1287 C1289 1.356 . S
C1287 H1319 0.930 . S
C1288 N1285 1.279 . S
C1288 C1287 1.358 . S
C1288 H1291 0.930 . S
C1289 C1286 1.348 . S
C1289 C1287 1.356 . S
H1290 C1284 0.930 . S
H1291 C1288 0.930 . S
O1292 Li1232 1.956 . S
O1292 Li1233 1.970 . S
O1292 Li1234 1.961 . S
O1292 C1236 1.325 . S
O1293 Li1232 1.970 . S
O1293 Li1233 1.956 . S
O1293 Li1235 1.961 . S
O1293 C1242 1.325 . S
O1294 Li1232 1.961 . S
O1294 Li1234 1.956 . S
O1294 Li1235 1.970 . S
O1294 C1264 1.325 . S
O1295 Li1233 1.961 . S
O1295 Li1234 1.970 . S
O1295 Li1235 1.956 . S
O1295 C1270 1.325 . S
H1296 C1238 0.929 . S
H1297 C1239 0.930 . S
H1298 C1240 0.930 . S
H1299 C1241 0.930 . S
H1300 C1243 0.930 . S
H1301 C1245 0.929 . S
H1302 C1246 0.930 . S
H1303 C1247 0.930 . S
H1304 C1250 0.930 . S
H1305 C1253 0.929 . S
H1306 C1258 0.929 . S
H1307 C1259 0.930 . S
H1308 C1266 0.929 . S
H1309 C1267 0.930 1_554 S
H1310 C1268 0.930 . S
H1311 C1269 0.930 . S
H1312 C1271 0.929 . S
H1313 C1272 0.930 . S
H1314 C1273 0.930 1_556 S
H1315 C1274 0.930 . S
H1316 C1278 0.929 . S
H1317 C1280 0.930 . S
H1318 C1286 0.929 . S
H1319 C1287 0.930 . S
Li1320 N1337 1.990 . S
Li1320 O1380 1.956 . S
Li1320 O1381 1.970 . S
Li1320 O1382 1.961 . S
Li1321 N1345 1.990 . S
Li1321 O1380 1.970 . S
Li1321 O1381 1.956 . S
Li1321 O1383 1.961 . S
Li1322 N1367 1.990 . S
Li1322 O1380 1.961 . S
Li1322 O1382 1.956 . S
Li1322 O1383 1.970 . S
Li1323 N1373 1.990 . S
Li1323 O1381 1.961 . S
Li1323 O1382 1.970 . S
Li1323 O1383 1.956 . S
C1324 C1326 1.348 . S
C1324 C1327 1.356 . S
C1324 O1380 1.325 . S
N1325 C1328 1.314 . S
N1325 C1329 1.279 . S
C1326 C1324 1.348 . S
C1326 C1328 1.353 . S
C1326 H1384 0.929 . S
C1327 C1324 1.356 . S
C1327 C1329 1.358 . S
C1327 H1385 0.930 . S
C1328 N1325 1.314 . S
C1328 C1326 1.353 . S
C1328 H1386 0.930 . S
C1329 N1325 1.279 . S
C1329 C1327 1.358 . S
C1329 H1387 0.930 . S
C1330 C1333 1.348 . S
C1330 C1334 1.356 . S
C1330 O1381 1.325 . S
C1331 N1332 1.279 . S
C1331 C1334 1.358 . S
C1331 H1388 0.930 . S
N1332 C1331 1.279 . S
N1332 C1335 1.314 . S
C1333 C1330 1.348 . S
C1333 C1335 1.353 . S
C1333 H1389 0.929 . S
C1334 C1330 1.356 . S
C1334 C1331 1.358 . S
C1334 H1390 0.930 . S
C1335 N1332 1.314 . S
C1335 C1333 1.353 . S
C1335 H1391 0.930 . S
C1336 N1337 1.314 . S
C1336 C1341 1.353 . S
C1336 H1342 0.930 . S
N1337 Li1320 1.990 . S
N1337 C1336 1.314 . S
N1337 C1339 1.279 . S
C1338 C1339 1.358 . S
C1338 C1340 1.356 . S
C1338 H1392 0.930 . S
C1339 N1337 1.279 . S
C1339 C1338 1.358 . S
C1339 H1343 0.930 . S
C1340 C1338 1.356 . S
C1340 C1341 1.348 . S
C1341 C1336 1.353 . S
C1341 C1340 1.348 . S
C1341 H1393 0.929 . S
H1342 C1336 0.930 . S
H1343 C1339 0.930 . S
C1344 N1345 1.314 . S
C1344 C1346 1.353 . S
C1344 H1350 0.930 . S
N1345 Li1321 1.990 . S
N1345 C1344 1.314 . S
N1345 C1348 1.279 . S
C1346 C1344 1.353 . S
C1346 C1349 1.348 . S
C1346 H1394 0.929 . S
C1347 C1348 1.358 . S
C1347 C1349 1.356 . S
C1347 H1395 0.930 . S
C1348 N1345 1.279 . S
C1348 C1347 1.358 . S
C1348 H1351 0.930 . S
C1349 C1346 1.348 . S
C1349 C1347 1.356 . S
H1350 C1344 0.930 . S
H1351 C1348 0.930 . S
C1352 C1354 1.348 . S
C1352 C1355 1.356 . S
C1352 O1382 1.325 . S
N1353 C1356 1.314 . S
N1353 C1357 1.279 . S
C1354 C1352 1.348 . S
C1354 C1356 1.353 . S
C1354 H1396 0.929 . S
C1355 C1352 1.356 . S
C1355 C1357 1.358 . S
C1355 H1397 0.930 . S
C1356 N1353 1.314 . S
C1356 C1354 1.353 . S
C1356 H1398 0.930 . S
C1357 N1353 1.279 . S
C1357 C1355 1.358 . S
C1357 H1399 0.930 . S
C1358 C1359 1.348 . S
C1358 C1360 1.356 . S
C1358 O1383 1.325 . S
C1359 C1358 1.348 . S
C1359 C1361 1.353 . S
C1359 H1400 0.929 . S
C1360 C1358 1.356 . S
C1360 C1362 1.358 . S
C1360 H1401 0.930 . S
C1361 C1359 1.353 . S
C1361 N1363 1.314 . S
C1361 H1402 0.930 . S
C1362 C1360 1.358 . S
C1362 N1363 1.279 . S
C1362 H1403 0.930 . S
N1363 C1361 1.314 . S
N1363 C1362 1.279 . S
C1364 C1366 1.353 . S
C1364 N1367 1.314 . S
C1364 H1370 0.930 . S
C1365 N1367 1.279 . S
C1365 C1368 1.358 . S
C1365 H1371 0.930 . S
C1366 C1364 1.353 . S
C1366 C1369 1.348 . S
C1366 H1404 0.929 . S
N1367 Li1322 1.990 . S
N1367 C1364 1.314 . S
N1367 C1365 1.279 . S
C1368 C1365 1.358 . S
C1368 C1369 1.356 . S
C1368 H1405 0.930 . S
C1369 C1366 1.348 . S
C1369 C1368 1.356 . S
H1370 C1364 0.930 . S
H1371 C1365 0.930 . S
C1372 N1373 1.314 . S
C1372 C1374 1.353 . S
C1372 H1378 0.930 . S
N1373 Li1323 1.990 . S
N1373 C1372 1.314 . S
N1373 C1376 1.279 . S
C1374 C1372 1.353 . S
C1374 C1377 1.348 . S
C1374 H1406 0.929 . S
C1375 C1376 1.358 . S
C1375 C1377 1.356 . S
C1375 H1407 0.930 . S
C1376 N1373 1.279 . S
C1376 C1375 1.358 . S
C1376 H1379 0.930 . S
C1377 C1374 1.348 . S
C1377 C1375 1.356 . S
H1378 C1372 0.930 . S
H1379 C1376 0.930 . S
O1380 Li1320 1.956 . S
O1380 Li1321 1.970 . S
O1380 Li1322 1.961 . S
O1380 C1324 1.325 . S
O1381 Li1320 1.970 . S
O1381 Li1321 1.956 . S
O1381 Li1323 1.961 . S
O1381 C1330 1.325 . S
O1382 Li1320 1.961 . S
O1382 Li1322 1.956 . S
O1382 Li1323 1.970 . S
O1382 C1352 1.325 . S
O1383 Li1321 1.961 . S
O1383 Li1322 1.970 . S
O1383 Li1323 1.956 . S
O1383 C1358 1.325 . S
H1384 C1326 0.929 . S
H1385 C1327 0.930 . S
H1386 C1328 0.930 . S
H1387 C1329 0.930 . S
H1388 C1331 0.930 . S
H1389 C1333 0.929 . S
H1390 C1334 0.930 . S
H1391 C1335 0.930 . S
H1392 C1338 0.930 . S
H1393 C1341 0.929 . S
H1394 C1346 0.929 . S
H1395 C1347 0.930 . S
H1396 C1354 0.929 . S
H1397 C1355 0.930 . S
H1398 C1356 0.930 . S
H1399 C1357 0.930 . S
H1400 C1359 0.929 . S
H1401 C1360 0.930 . S
H1402 C1361 0.930 . S
H1403 C1362 0.930 . S
H1404 C1366 0.929 . S
H1405 C1368 0.930 . S
H1406 C1374 0.929 . S
H1407 C1375 0.930 . S
C49 C372 3.216 1_554 S
C460 C137 3.216 . S
C225 C548 3.219 1_554 S
C313 C636 3.219 . S
C733 C1105 3.208 1_556 S
C1201 C821 3.208 . S
C900 C1289 3.208 1_556 S
C988 C1369 3.208 . S
C57 C1340 2.769 . S
C1076 C145 2.768 . S
C233 C1173 2.768 . S
C1261 C321 2.768 . S
C849 C381 2.768 . S
C929 C469 2.769 . S
C1017 C557 2.768 . S
C761 C645 2.768 . S
C724 C673 2.792 . S
C409 C812 2.792 . S
C497 C909 2.791 . S
C997 C585 2.792 . S
C117 C1113 2.792 . S
C1193 C205 2.792 . S
C1281 C293 2.792 . S
C1377 C29 2.791 . S
C665 C20 2.491 . S
C108 C401 2.491 . S
C196 C489 2.491 . S
C284 C577 2.490 . S
C1349 C753 2.487 . S
C1085 C841 2.488 . S
C1164 C937 2.487 . S
C1252 C1025 2.487 . S
