# Generated by pormake.
# Topology umg, (4)-cn, num edge types: 1
# Building blocks:
#     Node 0, Type 0, BuildingBlock: NAWXER_clean_sbu_0, # of connection points: 4
#     Node 1, Type 0, BuildingBlock: NAWXER_clean_sbu_0, # of connection points: 4
#     Node 2, Type 0, BuildingBlock: NAWXER_clean_sbu_0, # of connection points: 4
#     Node 3, Type 0, BuildingBlock: NAWXER_clean_sbu_0, # of connection points: 4
#     Node 4, Type 0, BuildingBlock: NAWXER_clean_sbu_0, # of connection points: 4
#     Node 5, Type 0, BuildingBlock: NAWXER_clean_sbu_0, # of connection points: 4
#     Node 6, Type 0, BuildingBlock: NAWXER_clean_sbu_0, # of connection points: 4
#     Node 7, Type 0, BuildingBlock: NAWXER_clean_sbu_0, # of connection points: 4
#     Node 8, Type 0, BuildingBlock: NAWXER_clean_sbu_0, # of connection points: 4
#     Node 9, Type 0, BuildingBlock: NAWXER_clean_sbu_0, # of connection points: 4
#     Node 10, Type 0, BuildingBlock: NAWXER_clean_sbu_0, # of connection points: 4
#     Node 11, Type 0, BuildingBlock: NAWXER_clean_sbu_0, # of connection points: 4
#     Edge 12, Type (0, 0), BuildingBlock: MIFKUJ_clean_linker_0, # of connection points: 2
#     Edge 13, Type (0, 0), BuildingBlock: MIFKUJ_clean_linker_0, # of connection points: 2
#     Edge 14, Type (0, 0), BuildingBlock: MIFKUJ_clean_linker_0, # of connection points: 2
#     Edge 15, Type (0, 0), BuildingBlock: MIFKUJ_clean_linker_0, # of connection points: 2
#     Edge 16, Type (0, 0), BuildingBlock: MIFKUJ_clean_linker_0, # of connection points: 2
#     Edge 17, Type (0, 0), BuildingBlock: MIFKUJ_clean_linker_0, # of connection points: 2
#     Edge 18, Type (0, 0), BuildingBlock: MIFKUJ_clean_linker_0, # of connection points: 2
#     Edge 19, Type (0, 0), BuildingBlock: MIFKUJ_clean_linker_0, # of connection points: 2
#     Edge 20, Type (0, 0), BuildingBlock: MIFKUJ_clean_linker_0, # of connection points: 2
#     Edge 21, Type (0, 0), BuildingBlock: MIFKUJ_clean_linker_0, # of connection points: 2
#     Edge 22, Type (0, 0), BuildingBlock: MIFKUJ_clean_linker_0, # of connection points: 2
#     Edge 23, Type (0, 0), BuildingBlock: MIFKUJ_clean_linker_0, # of connection points: 2
#     Edge 24, Type (0, 0), BuildingBlock: MIFKUJ_clean_linker_0, # of connection points: 2
#     Edge 25, Type (0, 0), BuildingBlock: MIFKUJ_clean_linker_0, # of connection points: 2
#     Edge 26, Type (0, 0), BuildingBlock: MIFKUJ_clean_linker_0, # of connection points: 2
#     Edge 27, Type (0, 0), BuildingBlock: MIFKUJ_clean_linker_0, # of connection points: 2
#     Edge 28, Type (0, 0), BuildingBlock: MIFKUJ_clean_linker_0, # of connection points: 2
#     Edge 29, Type (0, 0), BuildingBlock: MIFKUJ_clean_linker_0, # of connection points: 2
#     Edge 30, Type (0, 0), BuildingBlock: MIFKUJ_clean_linker_0, # of connection points: 2
#     Edge 31, Type (0, 0), BuildingBlock: MIFKUJ_clean_linker_0, # of connection points: 2
#     Edge 32, Type (0, 0), BuildingBlock: MIFKUJ_clean_linker_0, # of connection points: 2
#     Edge 33, Type (0, 0), BuildingBlock: MIFKUJ_clean_linker_0, # of connection points: 2
#     Edge 34, Type (0, 0), BuildingBlock: MIFKUJ_clean_linker_0, # of connection points: 2
#     Edge 35, Type (0, 0), BuildingBlock: MIFKUJ_clean_linker_0, # of connection points: 2
# Relax obj value: 0.016
# Max RMSD: 0.161
# Mean RMSD: 0.161
data_MOF--net-umg--node1-NAWXER_clean_sbu_0--edge1-MIFKUJ_clean_linker_0
_symmetry_space_group_name_H-M    P1
_symmetry_Int_Tables_number       1
_symmetry_cell_setting            triclinic
loop_
_symmetry_equiv_pos_as_xyz
'x, y, z'
_cell_length_a     38.335118
_cell_length_b     38.335383
_cell_length_c     113.77592
_cell_angle_alpha  90.057151
_cell_angle_beta   89.966276
_cell_angle_gamma 120.01658
loop_
_atom_site_label
_atom_site_type_symbol
_atom_site_fract_x
_atom_site_fract_y
_atom_site_fract_z
_atom_type_partial_charge
C0 C 0.20592 0.53284 0.08994 0.0
C1 C 0.33409 0.53472 0.08995 0.0
O2 O 0.21211 0.50333 0.09073 0.0
Zn3 Zn 0.27009 0.53397 0.08981 0.0
O4 O 0.23604 0.56865 0.08885 0.0
Zn5 Zn 0.3009 0.5969 0.0879 0.0
O6 O 0.31306 0.62164 0.07263 0.0
O7 O 0.28035 0.55529 0.07186 0.0
O8 O 0.33901 0.57027 0.08893 0.0
O9 O 0.29866 0.50471 0.09068 0.0
O10 O 0.2865 0.56788 0.10609 0.0
O11 O 0.31742 0.63222 0.10123 0.0
C12 C 0.29713 0.58947 0.06659 0.0
C13 C 0.30425 0.60516 0.10911 0.0
C14 C 0.70154 0.30029 0.44226 0.0
C15 C 0.71145 0.29451 0.39975 0.0
O16 O 0.68769 0.31349 0.43437 0.0
Zn17 Zn 0.70697 0.29749 0.42105 0.0
O18 O 0.72125 0.28272 0.43925 0.0
Zn19 Zn 0.73908 0.26668 0.42295 0.0
O20 O 0.79693 0.29523 0.42396 0.0
O21 O 0.77176 0.33563 0.42226 0.0
O22 O 0.72874 0.27768 0.40504 0.0
O23 O 0.69488 0.31014 0.40577 0.0
O24 O 0.67029 0.23267 0.42176 0.0
O25 O 0.7116 0.20863 0.42356 0.0
C26 C 0.80238 0.33069 0.4233 0.0
C27 C 0.67593 0.20249 0.42271 0.0
C28 C 0.40449 0.69929 0.77552 0.0
C29 C 0.42428 0.7114 0.73314 0.0
O30 O 0.37806 0.68591 0.76746 0.0
Zn31 Zn 0.41455 0.70584 0.75435 0.0
O32 O 0.44198 0.7191 0.77277 0.0
Zn33 Zn 0.47738 0.73797 0.75684 0.0
O34 O 0.50633 0.79573 0.75821 0.0
O35 O 0.44104 0.77047 0.75568 0.0
O36 O 0.45787 0.72851 0.73873 0.0
O37 O 0.39144 0.69444 0.73886 0.0
O38 O 0.44283 0.66938 0.75517 0.0
O39 O 0.50786 0.71048 0.75783 0.0
C40 C 0.47637 0.8011 0.75713 0.0
C41 C 0.47847 0.6749 0.75654 0.0
C42 C 0.70946 0.40756 0.10889 0.0
C43 C 0.71189 0.42148 0.06634 0.0
O44 O 0.69365 0.38006 0.10116 0.0
Zn45 Zn 0.70999 0.4147 0.08763 0.0
O46 O 0.72801 0.44464 0.10569 0.0
Zn47 Zn 0.74203 0.47782 0.08939 0.0
O48 O 0.7141 0.50771 0.09079 0.0
O49 O 0.67299 0.44237 0.08883 0.0
O50 O 0.72921 0.45582 0.07154 0.0
O51 O 0.69668 0.38944 0.07243 0.0
O52 O 0.77482 0.44201 0.08802 0.0
O53 O 0.80003 0.50762 0.08968 0.0
C54 C 0.67846 0.47806 0.09003 0.0
C55 C 0.80546 0.47762 0.08883 0.0
C56 C 0.30528 0.70034 0.44256 0.0
C57 C 0.29505 0.70974 0.40021 0.0
O58 O 0.31876 0.6875 0.43446 0.0
Zn59 Zn 0.2999 0.70519 0.4214 0.0
O60 O 0.28624 0.71882 0.43986 0.0
Zn61 Zn 0.26902 0.73699 0.42392 0.0
O62 O 0.21115 0.70941 0.42506 0.0
O63 O 0.23504 0.66819 0.4226 0.0
O64 O 0.27877 0.72714 0.40576 0.0
O65 O 0.31084 0.69281 0.40597 0.0
O66 O 0.3378 0.76993 0.42228 0.0
O67 O 0.29775 0.79494 0.42517 0.0
C68 C 0.20492 0.67376 0.42397 0.0
C69 C 0.33305 0.80049 0.42379 0.0
C70 C 0.53311 0.20235 0.75672 0.0
C71 C 0.53336 0.32966 0.75561 0.0
O72 O 0.50338 0.20826 0.75726 0.0
Zn73 Zn 0.5333 0.26612 0.7561 0.0
O74 O 0.56887 0.23265 0.75574 0.0
Zn75 Zn 0.59646 0.29733 0.75451 0.0
O76 O 0.63082 0.31577 0.76808 0.0
O77 O 0.56614 0.28484 0.77251 0.0
O78 O 0.56904 0.33476 0.75489 0.0
O79 O 0.50338 0.29418 0.75635 0.0
O80 O 0.55568 0.27582 0.73833 0.0
O81 O 0.622 0.30908 0.73932 0.0
C82 C 0.60317 0.30359 0.77578 0.0
C83 C 0.59007 0.29265 0.73318 0.0
C84 C 0.48033 0.80432 0.58321 0.0
C85 C 0.47889 0.6763 0.58284 0.0
O86 O 0.50974 0.79818 0.5819 0.0
Zn87 Zn 0.47946 0.74022 0.58295 0.0
O88 O 0.44471 0.77414 0.58458 0.0
Zn89 Zn 0.41669 0.70935 0.5854 0.0
O90 O 0.39333 0.69738 0.60084 0.0
O91 O 0.45976 0.73024 0.60105 0.0
O92 O 0.44343 0.67138 0.58416 0.0
O93 O 0.50877 0.71171 0.5818 0.0
O94 O 0.4442 0.72312 0.56697 0.0
O95 O 0.3803 0.69245 0.57229 0.0
C96 C 0.42609 0.71348 0.6066 0.0
C97 C 0.4067 0.70526 0.56422 0.0
C98 C 0.70208 0.40641 0.89761 0.0
C99 C 0.71278 0.42199 0.94008 0.0
O100 O 0.68975 0.37952 0.90552 0.0
Zn101 Zn 0.70873 0.41492 0.91884 0.0
O102 O 0.72107 0.44372 0.9006 0.0
Zn103 Zn 0.73983 0.47767 0.91684 0.0
O104 O 0.79779 0.5074 0.91569 0.0
O105 O 0.77335 0.44208 0.91759 0.0
O106 O 0.72913 0.4563 0.93487 0.0
O107 O 0.69755 0.38992 0.93401 0.0
O108 O 0.67135 0.44275 0.91852 0.0
O109 O 0.71232 0.50796 0.91602 0.0
C110 C 0.80369 0.47772 0.91644 0.0
C111 C 0.67681 0.47847 0.91732 0.0
C112 C 0.29725 0.71269 0.27373 0.0
C113 C 0.30287 0.70035 0.23128 0.0
O114 O 0.3124 0.69528 0.26789 0.0
Zn115 Zn 0.30023 0.70684 0.25247 0.0
O116 O 0.28082 0.73005 0.26827 0.0
Zn117 Zn 0.26976 0.7393 0.25028 0.0
O118 O 0.21168 0.71195 0.24962 0.0
O119 O 0.23553 0.67061 0.25179 0.0
O120 O 0.28554 0.72039 0.23417 0.0
O121 O 0.31599 0.68672 0.23925 0.0
O122 O 0.33864 0.77146 0.25102 0.0
O123 O 0.29868 0.79704 0.24898 0.0
C124 C 0.20543 0.67629 0.25069 0.0
C125 C 0.33401 0.80219 0.24975 0.0
C126 C 0.5915 0.29473 0.60674 0.0
C127 C 0.60914 0.30581 0.56434 0.0
O128 O 0.6239 0.31142 0.60082 0.0
Zn129 Zn 0.59978 0.30023 0.58549 0.0
O130 O 0.55752 0.278 0.60135 0.0
Zn131 Zn 0.53701 0.26893 0.58333 0.0
O132 O 0.50709 0.21106 0.58203 0.0
O133 O 0.57245 0.23549 0.58402 0.0
O134 O 0.57169 0.28719 0.56719 0.0
O135 O 0.63579 0.31862 0.57233 0.0
O136 O 0.57236 0.33771 0.58479 0.0
O137 O 0.50705 0.29686 0.58262 0.0
C138 C 0.53682 0.2052 0.58274 0.0
C139 C 0.53668 0.3324 0.58369 0.0
C140 C 0.30601 0.60456 0.89756 0.0
C141 C 0.29601 0.58921 0.94006 0.0
O142 O 0.31949 0.63174 0.90542 0.0
Zn143 Zn 0.30039 0.59656 0.91875 0.0
O144 O 0.28644 0.56731 0.90059 0.0
Zn145 Zn 0.26832 0.53355 0.91689 0.0
O146 O 0.21044 0.50428 0.9158 0.0
O147 O 0.23563 0.56984 0.91757 0.0
O148 O 0.27861 0.55504 0.93478 0.0
O149 O 0.3127 0.62136 0.93404 0.0
O150 O 0.33712 0.56853 0.91789 0.0
O151 O 0.29589 0.50303 0.91632 0.0
C152 C 0.20501 0.53429 0.91649 0.0
C153 C 0.33155 0.53273 0.91699 0.0
C154 C 0.71105 0.29285 0.27325 0.0
C155 C 0.70922 0.30537 0.23072 0.0
O156 O 0.69485 0.30876 0.26719 0.0
Zn157 Zn 0.70904 0.29788 0.25196 0.0
O158 O 0.72912 0.27668 0.268 0.0
Zn159 Zn 0.74189 0.26764 0.25013 0.0
O160 O 0.79978 0.29616 0.24995 0.0
O161 O 0.77404 0.33608 0.25179 0.0
O162 O 0.72838 0.28745 0.23389 0.0
O163 O 0.69243 0.31599 0.23843 0.0
O164 O 0.67273 0.23337 0.25062 0.0
O165 O 0.71428 0.20975 0.24862 0.0
C166 C 0.8049 0.33143 0.25098 0.0
C167 C 0.67852 0.20339 0.24936 0.0
H168 H 0.33091 0.65611 0.95421 0.0
H169 H 0.33187 0.65826 0.9757 0.0
H170 H 0.26401 0.52842 0.97684 0.0
H171 H 0.26247 0.52596 0.9554 0.0
H172 H 0.23432 0.56098 0.99202 0.0
H173 H 0.36495 0.57973 0.98231 0.0
H174 H 0.43113 0.61253 0.97246 0.0
H175 H 0.46236 0.72429 0.98958 0.0
H176 H 0.39611 0.69227 0.99942 0.0
H177 H 0.2634 0.52631 0.05118 0.0
H178 H 0.26388 0.52897 0.02975 0.0
H179 H 0.33211 0.65879 0.03101 0.0
H180 H 0.33213 0.65644 0.05251 0.0
H181 H 0.36201 0.6294 0.01465 0.0
H182 H 0.23301 0.61225 0.02428 0.0
H183 H 0.16653 0.58153 0.03384 0.0
H184 H 0.13222 0.46877 0.01685 0.0
H185 H 0.19874 0.4989 0.00721 0.0
C186 C 0.3162 0.628 0.95903 0.0
C187 C 0.29668 0.59085 0.95307 0.0
C188 C 0.31693 0.62929 0.97131 0.0
C189 C 0.29836 0.59348 0.97787 0.0
C190 C 0.27856 0.55641 0.97196 0.0
C191 C 0.27781 0.55508 0.95969 0.0
C192 C 0.29908 0.59447 0.99091 0.0
C193 C 0.26227 0.5755 0.99697 0.0
C194 C 0.33551 0.61447 0.99736 0.0
C195 C 0.37542 0.6337 0.9915 0.0
C196 C 0.38581 0.61138 0.9839 0.0
C197 C 0.42336 0.62982 0.97833 0.0
C198 C 0.45089 0.6705 0.98037 0.0
C199 C 0.44098 0.6928 0.988 0.0
C200 C 0.40345 0.67451 0.99358 0.0
C201 C 0.27852 0.55547 0.04692 0.0
C202 C 0.29762 0.59118 0.05358 0.0
C203 C 0.27862 0.55693 0.03466 0.0
C204 C 0.29764 0.5941 0.02878 0.0
C205 C 0.31718 0.62979 0.03537 0.0
C206 C 0.31706 0.62838 0.04766 0.0
C207 C 0.29725 0.59552 0.01574 0.0
C208 C 0.33409 0.61496 0.00969 0.0
C209 C 0.26086 0.57611 0.00928 0.0
C210 C 0.22097 0.55772 0.01512 0.0
C211 C 0.21141 0.58081 0.02266 0.0
C212 C 0.17367 0.56351 0.02808 0.0
C213 C 0.14517 0.52313 0.026 0.0
C214 C 0.15434 0.50002 0.01847 0.0
C215 C 0.19203 0.51722 0.013 0.0
H216 H 0.11593 0.50978 0.03019 0.0
H217 H 0.47994 0.68472 0.97605 0.0
H218 H 0.74198 0.26168 0.38442 0.0
H219 H 0.74111 0.26314 0.36299 0.0
H220 H 0.67921 0.33107 0.36411 0.0
H221 H 0.67938 0.32924 0.38561 0.0
H222 H 0.64626 0.27165 0.34797 0.0
H223 H 0.7792 0.37728 0.35774 0.0
H224 H 0.84553 0.4076 0.36745 0.0
H225 H 0.87155 0.32459 0.34953 0.0
H226 H 0.80511 0.29338 0.33984 0.0
H227 H 0.67803 0.32682 0.28736 0.0
H228 H 0.67739 0.32843 0.30885 0.0
H229 H 0.74012 0.26132 0.31004 0.0
H230 H 0.74144 0.26007 0.2886 0.0
H231 H 0.77275 0.3233 0.32505 0.0
H232 H 0.63921 0.21621 0.31583 0.0
H233 H 0.57274 0.18531 0.30619 0.0
H234 H 0.5479 0.2708 0.32307 0.0
H235 H 0.6145 0.30256 0.33269 0.0
C236 C 0.7282 0.27701 0.38013 0.0
C237 C 0.71089 0.29551 0.38674 0.0
C238 C 0.72787 0.27793 0.36787 0.0
C239 C 0.71057 0.29768 0.36195 0.0
C240 C 0.69282 0.31576 0.3685 0.0
C241 C 0.69305 0.31478 0.38079 0.0
C242 C 0.71083 0.29915 0.34891 0.0
C243 C 0.67397 0.28353 0.34295 0.0
C244 C 0.74692 0.31388 0.34238 0.0
C245 C 0.78702 0.33277 0.34814 0.0
C246 C 0.79894 0.3653 0.35594 0.0
C247 C 0.83658 0.38267 0.36143 0.0
C248 C 0.8627 0.36797 0.35913 0.0
C249 C 0.85127 0.33592 0.35131 0.0
C250 C 0.81364 0.3184 0.34581 0.0
C251 C 0.69159 0.3123 0.29219 0.0
C252 C 0.70973 0.29326 0.28626 0.0
C253 C 0.69108 0.31314 0.30448 0.0
C254 C 0.70841 0.29469 0.31106 0.0
C255 C 0.7266 0.27577 0.30515 0.0
C256 C 0.7272 0.27499 0.29288 0.0
C257 C 0.70815 0.29548 0.3241 0.0
C258 C 0.74505 0.31158 0.33007 0.0
C259 C 0.6721 0.28116 0.33063 0.0
C260 C 0.63201 0.26202 0.32488 0.0
C261 C 0.61971 0.22862 0.31741 0.0
C262 C 0.58198 0.21091 0.31196 0.0
C263 C 0.55616 0.22615 0.31399 0.0
C264 C 0.56796 0.25906 0.32149 0.0
C265 C 0.60568 0.27691 0.32695 0.0
H266 H 0.52697 0.2124 0.30976 0.0
H267 H 0.89182 0.38146 0.36339 0.0
H268 H 0.48916 0.74531 0.71835 0.0
H269 H 0.48888 0.74538 0.69689 0.0
H270 H 0.35896 0.67804 0.69693 0.0
H271 H 0.35892 0.67738 0.71843 0.0
H272 H 0.39034 0.64801 0.68111 0.0
H273 H 0.40954 0.77851 0.69126 0.0
H274 H 0.44253 0.84499 0.70096 0.0
H275 H 0.5533 0.8767 0.68318 0.0
H276 H 0.52115 0.81018 0.6735 0.0
H277 H 0.36055 0.67843 0.62122 0.0
H278 H 0.36029 0.67786 0.64271 0.0
H279 H 0.49017 0.74659 0.64294 0.0
H280 H 0.49075 0.74766 0.62147 0.0
H281 H 0.45867 0.77591 0.65861 0.0
H282 H 0.4423 0.64743 0.64878 0.0
H283 H 0.41167 0.58156 0.63881 0.0
H284 H 0.29881 0.54607 0.65587 0.0
H285 H 0.32866 0.61206 0.66582 0.0
C286 C 0.46048 0.73053 0.71381 0.0
C287 C 0.42403 0.71147 0.72012 0.0
C288 C 0.46039 0.73073 0.70154 0.0
C289 C 0.42389 0.71212 0.69531 0.0
C290 C 0.38747 0.69265 0.70156 0.0
C291 C 0.38751 0.69242 0.71385 0.0
C292 C 0.42375 0.71278 0.68227 0.0
C293 C 0.40475 0.67598 0.67619 0.0
C294 C 0.4436 0.74927 0.67586 0.0
C295 C 0.46301 0.78921 0.68173 0.0
C296 C 0.44103 0.79952 0.6895 0.0
C297 C 0.45956 0.83724 0.69498 0.0
C298 C 0.49999 0.86502 0.69269 0.0
C299 C 0.52199 0.85514 0.68494 0.0
C300 C 0.50362 0.81745 0.67945 0.0
C301 C 0.38908 0.69342 0.62583 0.0
C302 C 0.42568 0.71301 0.61962 0.0
C303 C 0.38887 0.69293 0.63812 0.0
C304 C 0.42523 0.71186 0.64442 0.0
C305 C 0.46177 0.73177 0.63825 0.0
C306 C 0.46202 0.73223 0.62597 0.0
C307 C 0.42518 0.71117 0.65745 0.0
C308 C 0.44417 0.74794 0.66354 0.0
C309 C 0.40566 0.67467 0.66386 0.0
C310 C 0.38761 0.63486 0.65795 0.0
C311 C 0.41086 0.62571 0.65034 0.0
C312 C 0.39365 0.58832 0.6447 0.0
C313 C 0.35328 0.55967 0.64668 0.0
C314 C 0.33007 0.56832 0.65433 0.0
C315 C 0.34712 0.60571 0.65998 0.0
H316 H 0.34001 0.53073 0.6423 0.0
H317 H 0.51423 0.89428 0.69689 0.0
H318 H 0.6947 0.35686 0.05227 0.0
H319 H 0.69356 0.35456 0.03074 0.0
H320 H 0.72348 0.47892 0.02957 0.0
H321 H 0.72515 0.48168 0.05106 0.0
H322 H 0.65874 0.42626 0.01445 0.0
H323 H 0.79474 0.45972 0.02428 0.0
H324 H 0.84576 0.44921 0.03431 0.0
H325 H 0.7994 0.33427 0.01738 0.0
H326 H 0.74768 0.34384 0.00738 0.0
H327 H 0.72378 0.48113 0.95556 0.0
H328 H 0.72072 0.47727 0.97704 0.0
H329 H 0.69625 0.35465 0.97545 0.0
H330 H 0.69869 0.35803 0.95394 0.0
H331 H 0.75573 0.40216 0.99198 0.0
H332 H 0.62233 0.36626 0.98187 0.0
H333 H 0.5667 0.37042 0.97244 0.0
H334 H 0.60274 0.48244 0.99009 0.0
H335 H 0.65915 0.47935 0.99948 0.0
C336 C 0.70093 0.38368 0.04743 0.0
C337 C 0.71013 0.41949 0.05336 0.0
C338 C 0.70039 0.38234 0.03515 0.0
C339 C 0.70864 0.41663 0.0286 0.0
C340 C 0.71707 0.45216 0.03448 0.0
C341 C 0.71815 0.4537 0.04675 0.0
C342 C 0.7087 0.41564 0.01559 0.0
C343 C 0.68027 0.42156 0.00951 0.0
C344 C 0.73587 0.40799 0.00922 0.0
C345 C 0.76707 0.4023 0.01518 0.0
C346 C 0.79519 0.43204 0.02278 0.0
C347 C 0.82428 0.42629 0.02844 0.0
C348 C 0.82574 0.39104 0.02651 0.0
C349 C 0.79818 0.36152 0.01888 0.0
C350 C 0.769 0.36711 0.01321 0.0
C351 C 0.71778 0.45334 0.95978 0.0
C352 C 0.71142 0.41986 0.95306 0.0
C353 C 0.7159 0.45115 0.97204 0.0
C354 C 0.70808 0.41561 0.97781 0.0
C355 C 0.7023 0.38232 0.97115 0.0
C356 C 0.70356 0.38428 0.95887 0.0
C357 C 0.70615 0.41345 0.99081 0.0
C358 C 0.73418 0.40688 0.99689 0.0
C359 C 0.67822 0.41992 0.9972 0.0
C360 C 0.64528 0.4228 0.99127 0.0
C361 C 0.61879 0.3921 0.98361 0.0
C362 C 0.58703 0.39419 0.9783 0.0
C363 C 0.58122 0.42668 0.98066 0.0
C364 C 0.60732 0.4573 0.98827 0.0
C365 C 0.63921 0.4554 0.99359 0.0
H366 H 0.55631 0.42792 0.97663 0.0
H367 H 0.84829 0.38665 0.0309 0.0
H368 H 0.32063 0.67114 0.28825 0.0
H369 H 0.32047 0.67053 0.30976 0.0
H370 H 0.27547 0.75356 0.31015 0.0
H371 H 0.27556 0.75442 0.28867 0.0
H372 H 0.33697 0.7748 0.3259 0.0
H373 H 0.21256 0.65725 0.31569 0.0
H374 H 0.16887 0.59284 0.30561 0.0
H375 H 0.23103 0.53972 0.32262 0.0
H376 H 0.2755 0.60405 0.33269 0.0
H377 H 0.272 0.75043 0.38531 0.0
H378 H 0.27333 0.75074 0.36383 0.0
H379 H 0.32025 0.66931 0.36413 0.0
H380 H 0.31899 0.66873 0.38564 0.0
H381 H 0.2584 0.64716 0.34805 0.0
H382 H 0.38224 0.76588 0.35858 0.0
H383 H 0.42444 0.83054 0.36873 0.0
H384 H 0.36154 0.88178 0.35112 0.0
H385 H 0.31853 0.8172 0.341 0.0
C386 C 0.31077 0.68934 0.29291 0.0
C387 C 0.298 0.71274 0.28675 0.0
C388 C 0.31056 0.68884 0.3052 0.0
C389 C 0.29765 0.71176 0.31154 0.0
C390 C 0.28552 0.73564 0.30542 0.0
C391 C 0.28547 0.73597 0.29314 0.0
C392 C 0.29668 0.71078 0.32457 0.0
C393 C 0.31942 0.74697 0.33075 0.0
C394 C 0.27435 0.67435 0.33087 0.0
C395 C 0.24766 0.6356 0.32484 0.0
C396 C 0.21716 0.63195 0.3172 0.0
C397 C 0.1922 0.59543 0.3115 0.0
C398 C 0.19725 0.56224 0.31344 0.0
C399 C 0.2272 0.56548 0.32111 0.0
C400 C 0.25228 0.60195 0.32682 0.0
C401 C 0.28258 0.73254 0.38082 0.0
C402 C 0.29552 0.70965 0.38719 0.0
C403 C 0.28344 0.73287 0.36855 0.0
C404 C 0.29721 0.71032 0.3624 0.0
C405 C 0.30957 0.68696 0.36871 0.0
C406 C 0.30896 0.6868 0.381 0.0
C407 C 0.29872 0.71117 0.34938 0.0
C408 C 0.27605 0.67496 0.3432 0.0
C409 C 0.32095 0.74763 0.34308 0.0
C410 C 0.34689 0.78656 0.34912 0.0
C411 C 0.37718 0.79082 0.35694 0.0
C412 C 0.40129 0.82748 0.36268 0.0
C413 C 0.39561 0.86021 0.3606 0.0
C414 C 0.36587 0.85638 0.35274 0.0
C415 C 0.34163 0.81976 0.34699 0.0
H416 H 0.41431 0.88857 0.36504 0.0
H417 H 0.17789 0.53398 0.30903 0.0
H418 H 0.52752 0.25591 0.7177 0.0
H419 H 0.53061 0.25639 0.69628 0.0
H420 H 0.66005 0.33006 0.69769 0.0
H421 H 0.65727 0.33001 0.7192 0.0
H422 H 0.6269 0.35752 0.68143 0.0
H423 H 0.61807 0.23205 0.69128 0.0
H424 H 0.5899 0.16597 0.70103 0.0
H425 H 0.47755 0.12493 0.68304 0.0
H426 H 0.50486 0.191 0.67331 0.0
H427 H 0.65781 0.33171 0.62101 0.0
H428 H 0.65952 0.33145 0.6425 0.0
H429 H 0.53007 0.2573 0.6434 0.0
H430 H 0.52805 0.25716 0.62193 0.0
H431 H 0.56628 0.23025 0.65853 0.0
H432 H 0.57393 0.35613 0.6493 0.0
H433 H 0.60148 0.42229 0.63965 0.0
H434 H 0.71557 0.46251 0.65649 0.0
H435 H 0.68885 0.39633 0.66612 0.0
C436 C 0.55671 0.2722 0.71349 0.0
C437 C 0.59218 0.29284 0.72018 0.0
C438 C 0.55841 0.2723 0.70123 0.0
C439 C 0.59559 0.2929 0.6954 0.0
C440 C 0.63106 0.31389 0.70203 0.0
C441 C 0.62941 0.31371 0.71431 0.0
C442 C 0.59721 0.29279 0.68238 0.0
C443 C 0.61426 0.32974 0.67641 0.0
C444 C 0.5799 0.25648 0.67585 0.0
C445 C 0.56341 0.21662 0.68165 0.0
C446 C 0.58725 0.20905 0.68947 0.0
C447 C 0.57145 0.17157 0.69498 0.0
C448 C 0.53193 0.14131 0.69268 0.0
C449 C 0.50815 0.14842 0.68483 0.0
C450 C 0.52379 0.18587 0.67931 0.0
C451 C 0.62969 0.31532 0.62577 0.0
C452 C 0.59277 0.29455 0.61975 0.0
C453 C 0.63072 0.31533 0.63805 0.0
C454 C 0.59489 0.29463 0.64454 0.0
C455 C 0.55807 0.27348 0.63856 0.0
C456 C 0.55698 0.27356 0.62629 0.0
C457 C 0.59572 0.29496 0.65757 0.0
C458 C 0.57912 0.25805 0.66354 0.0
C459 C 0.6134 0.33129 0.6641 0.0
C460 C 0.62952 0.37112 0.65833 0.0
C461 C 0.605 0.37896 0.65087 0.0
C462 C 0.62044 0.41648 0.64541 0.0
C463 C 0.66029 0.44654 0.64743 0.0
C464 C 0.68474 0.43917 0.65493 0.0
C465 C 0.66945 0.40166 0.66039 0.0
H466 H 0.67218 0.47559 0.6432 0.0
H467 H 0.51975 0.11231 0.69695 0.0
H468 H 0.31516 0.64156 0.22204 0.0
H469 H 0.31801 0.62665 0.2013 0.0
H470 H 0.3031 0.72718 0.19147 0.0
H471 H 0.29835 0.74099 0.2122 0.0
H472 H 0.25819 0.66793 0.17824 0.0
H473 H 0.39648 0.72814 0.18953 0.0
H474 H 0.45444 0.73786 0.20142 0.0
H475 H 0.4284 0.61804 0.1929 0.0
H476 H 0.36993 0.60741 0.18108 0.0
H477 H 0.31927 0.67693 0.11853 0.0
H478 H 0.32173 0.69401 0.13938 0.0
H479 H 0.30074 0.57624 0.14893 0.0
H480 H 0.29752 0.55857 0.12809 0.0
H481 H 0.36503 0.6448 0.16193 0.0
H482 H 0.22529 0.58691 0.15055 0.0
H483 H 0.17013 0.58129 0.13807 0.0
H484 H 0.20351 0.70344 0.1463 0.0
H485 H 0.2593 0.70998 0.15869 0.0
C486 C 0.31274 0.66062 0.21546 0.0
C487 C 0.30661 0.6925 0.21875 0.0
C488 C 0.31458 0.65221 0.20359 0.0
C489 C 0.31142 0.67616 0.19477 0.0
C490 C 0.30561 0.70821 0.19808 0.0
C491 C 0.303 0.71616 0.20994 0.0
C492 C 0.31283 0.66705 0.18212 0.0
C493 C 0.28197 0.66352 0.17468 0.0
C494 C 0.34341 0.66055 0.17743 0.0
C495 C 0.37859 0.66686 0.18451 0.0
C496 C 0.40293 0.70376 0.19027 0.0
C497 C 0.43591 0.70945 0.19698 0.0
C498 C 0.44503 0.67855 0.19794 0.0
C499 C 0.42126 0.64193 0.19216 0.0
C500 C 0.38823 0.63607 0.18544 0.0
C501 C 0.31545 0.65475 0.12507 0.0
C502 C 0.30805 0.61634 0.12168 0.0
C503 C 0.31678 0.66454 0.13695 0.0
C504 C 0.31125 0.6363 0.14565 0.0
C505 C 0.30508 0.59839 0.14232 0.0
C506 C 0.30309 0.58833 0.13043 0.0
C507 C 0.31061 0.64593 0.15821 0.0
C508 C 0.34149 0.64944 0.16558 0.0
C509 C 0.28049 0.65308 0.1628 0.0
C510 C 0.24673 0.64906 0.15544 0.0
C511 C 0.2211 0.61269 0.14961 0.0
C512 C 0.18967 0.60931 0.14257 0.0
C513 C 0.18339 0.64203 0.14137 0.0
C514 C 0.20845 0.67814 0.14723 0.0
C515 C 0.23996 0.68169 0.15426 0.0
H516 H 0.15904 0.63936 0.13591 0.0
H517 H 0.47058 0.68301 0.20315 0.0
H518 H 0.64236 0.31137 0.4517 0.0
H519 H 0.62892 0.31568 0.47246 0.0
H520 H 0.73179 0.30425 0.48195 0.0
H521 H 0.74406 0.29784 0.46117 0.0
H522 H 0.67495 0.26087 0.49594 0.0
H523 H 0.73083 0.39699 0.48321 0.0
H524 H 0.73844 0.45304 0.47078 0.0
H525 H 0.61845 0.4255 0.47968 0.0
H526 H 0.60992 0.36892 0.49205 0.0
H527 H 0.68239 0.32476 0.55515 0.0
H528 H 0.70047 0.32833 0.53437 0.0
H529 H 0.58131 0.30235 0.52445 0.0
H530 H 0.5627 0.29814 0.54522 0.0
H531 H 0.64869 0.36697 0.51115 0.0
H532 H 0.59629 0.22959 0.52434 0.0
H533 H 0.59513 0.17934 0.53804 0.0
H534 H 0.71708 0.21492 0.52878 0.0
H535 H 0.71941 0.26644 0.5153 0.0
C536 C 0.66222 0.30997 0.45821 0.0
C537 C 0.69435 0.30441 0.45481 0.0
C538 C 0.65466 0.31268 0.4701 0.0
C539 C 0.67977 0.31108 0.47882 0.0
C540 C 0.71197 0.30561 0.47541 0.0
C541 C 0.71904 0.30205 0.46353 0.0
C542 C 0.67178 0.31394 0.49149 0.0
C543 C 0.66985 0.2845 0.49925 0.0
C544 C 0.6646 0.34444 0.49588 0.0
C545 C 0.66962 0.37848 0.48847 0.0
C546 C 0.70596 0.4027 0.48245 0.0
C547 C 0.71045 0.4346 0.47542 0.0
C548 C 0.67891 0.44276 0.47442 0.0
C549 C 0.64284 0.41911 0.48046 0.0
C550 C 0.63817 0.38715 0.48749 0.0
C551 C 0.66014 0.32019 0.54855 0.0
C552 C 0.62103 0.31091 0.55182 0.0
C553 C 0.67052 0.32222 0.5367 0.0
C554 C 0.64214 0.31544 0.52792 0.0
C555 C 0.6036 0.30772 0.53112 0.0
C556 C 0.59298 0.30511 0.54298 0.0
C557 C 0.65191 0.31403 0.51541 0.0
C558 C 0.65404 0.34361 0.50774 0.0
C559 C 0.66008 0.2842 0.51114 0.0
C560 C 0.65818 0.25221 0.51891 0.0
C561 C 0.62298 0.22695 0.52529 0.0
C562 C 0.62212 0.19823 0.53303 0.0
C563 C 0.65604 0.19395 0.5343 0.0
C564 C 0.69085 0.21832 0.5278 0.0
C565 C 0.69199 0.24735 0.52013 0.0
H566 H 0.65534 0.17172 0.5403 0.0
H567 H 0.68245 0.46747 0.46898 0.0
H568 H 0.44987 0.73817 0.79475 0.0
H569 H 0.43121 0.72313 0.81541 0.0
H570 H 0.31404 0.62607 0.80525 0.0
H571 H 0.33202 0.64213 0.78454 0.0
H572 H 0.3053 0.66268 0.82301 0.0
H573 H 0.39202 0.60997 0.81485 0.0
H574 H 0.45309 0.6104 0.80783 0.0
H575 H 0.52451 0.70151 0.83319 0.0
H576 H 0.46392 0.70205 0.84025 0.0
H577 H 0.26558 0.55856 0.87853 0.0
H578 H 0.28049 0.57624 0.85771 0.0
H579 H 0.3799 0.69239 0.86741 0.0
H580 H 0.36471 0.67537 0.88824 0.0
H581 H 0.39649 0.64467 0.85009 0.0
H582 H 0.30481 0.69414 0.85803 0.0
H583 H 0.24092 0.68759 0.86502 0.0
H584 H 0.17536 0.5937 0.83981 0.0
H585 H 0.23887 0.59928 0.83278 0.0
C586 C 0.42007 0.71372 0.79691 0.0
C587 C 0.39249 0.69116 0.78802 0.0
C588 C 0.4095 0.70499 0.80874 0.0
C589 C 0.3715 0.67287 0.81192 0.0
C590 C 0.34357 0.6509 0.80303 0.0
C591 C 0.3539 0.66007 0.79119 0.0
C592 C 0.36108 0.66207 0.82449 0.0
C593 C 0.32506 0.65826 0.82887 0.0
C594 C 0.38693 0.65656 0.83222 0.0
C595 C 0.42347 0.65634 0.828 0.0
C596 C 0.42079 0.63033 0.81887 0.0
C597 C 0.45532 0.63036 0.81489 0.0
C598 C 0.49267 0.65604 0.82004 0.0
C599 C 0.49556 0.68168 0.8292 0.0
C600 C 0.46113 0.68181 0.8332 0.0
C601 C 0.29046 0.58795 0.87622 0.0
C602 C 0.31396 0.61562 0.885 0.0
C603 C 0.29886 0.59799 0.86435 0.0
C604 C 0.33123 0.63559 0.86107 0.0
C605 C 0.35477 0.66324 0.8698 0.0
C606 C 0.34595 0.65353 0.88167 0.0
C607 C 0.34112 0.64572 0.84852 0.0
C608 C 0.37692 0.6492 0.84417 0.0
C609 C 0.31471 0.65005 0.84079 0.0
C610 C 0.27655 0.64683 0.84497 0.0
C611 C 0.27674 0.67183 0.85405 0.0
C612 C 0.2406 0.66835 0.85801 0.0
C613 C 0.20409 0.64016 0.85289 0.0
C614 C 0.20366 0.61547 0.84378 0.0
C615 C 0.23972 0.61881 0.8398 0.0
H616 H 0.17614 0.63752 0.85596 0.0
H617 H 0.51937 0.65601 0.81695 0.0
H618 H 0.75179 0.45773 0.127 0.0
H619 H 0.75171 0.44013 0.14761 0.0
H620 H 0.66271 0.3167 0.13999 0.0
H621 H 0.6636 0.33386 0.11926 0.0
H622 H 0.69906 0.41388 0.1642 0.0
H623 H 0.6762 0.25334 0.15729 0.0
H624 H 0.69311 0.21659 0.14264 0.0
H625 H 0.79313 0.32808 0.13064 0.0
H626 H 0.77715 0.36541 0.14531 0.0
H627 H 0.65342 0.31815 0.21958 0.0
H628 H 0.65221 0.33427 0.19884 0.0
H629 H 0.76228 0.33181 0.19301 0.0
H630 H 0.76228 0.31352 0.21356 0.0
H631 H 0.7182 0.29958 0.17546 0.0
H632 H 0.75798 0.42247 0.19595 0.0
H633 H 0.75345 0.46721 0.2107 0.0
H634 H 0.64126 0.44498 0.19579 0.0
H635 H 0.64488 0.39967 0.18103 0.0
C636 C 0.73212 0.42683 0.1297 0.0
C637 C 0.70785 0.39713 0.12147 0.0
C638 C 0.73204 0.41684 0.14151 0.0
C639 C 0.70758 0.377 0.14535 0.0
C640 C 0.68247 0.34749 0.1372 0.0
C641 C 0.68286 0.35737 0.12536 0.0
C642 C 0.70863 0.36637 0.15785 0.0
C643 C 0.70319 0.38885 0.16667 0.0
C644 C 0.71513 0.33443 0.1611 0.0
C645 C 0.72516 0.31216 0.15232 0.0
C646 C 0.70186 0.26998 0.15155 0.0
C647 C 0.71128 0.24906 0.14324 0.0
C648 C 0.74409 0.27 0.13569 0.0
C649 C 0.76764 0.3119 0.13646 0.0
C650 C 0.75837 0.33296 0.14476 0.0
C651 C 0.67725 0.32095 0.21385 0.0
C652 C 0.70799 0.31469 0.21818 0.0
C653 C 0.67669 0.3304 0.20201 0.0
C654 C 0.70757 0.33503 0.19436 0.0
C655 C 0.73806 0.32837 0.19869 0.0
C656 C 0.7381 0.31801 0.21045 0.0
C657 C 0.70828 0.34689 0.18186 0.0
C658 C 0.71396 0.32457 0.17303 0.0
C659 C 0.70379 0.38011 0.17862 0.0
C660 C 0.70151 0.40738 0.18746 0.0
C661 C 0.73221 0.42691 0.19587 0.0
C662 C 0.72982 0.4524 0.20422 0.0
C663 C 0.69703 0.45885 0.2042 0.0
C664 C 0.66661 0.4399 0.1958 0.0
C665 C 0.66883 0.41434 0.18744 0.0
H666 H 0.69524 0.4786 0.21068 0.0
H667 H 0.7513 0.25374 0.12926 0.0
H668 H 0.33372 0.68806 0.5552 0.0
H669 H 0.31478 0.68333 0.53452 0.0
H670 H 0.43276 0.70589 0.52431 0.0
H671 H 0.45237 0.71229 0.54498 0.0
H672 H 0.41374 0.74836 0.51125 0.0
H673 H 0.34465 0.60952 0.52263 0.0
H674 H 0.29964 0.55036 0.53466 0.0
H675 H 0.19987 0.56742 0.52644 0.0
H676 H 0.24441 0.62702 0.51448 0.0
H677 H 0.36342 0.68676 0.45158 0.0
H678 H 0.37823 0.6832 0.47235 0.0
H679 H 0.27809 0.69818 0.48246 0.0
H680 H 0.26359 0.70272 0.46171 0.0
H681 H 0.2874 0.63491 0.49519 0.0
H682 H 0.35861 0.77486 0.48404 0.0
H683 H 0.40358 0.83135 0.47125 0.0
H684 H 0.501 0.80988 0.47883 0.0
H685 H 0.45604 0.75224 0.49142 0.0
C686 C 0.35554 0.69176 0.54855 0.0
C687 C 0.39452 0.70049 0.55172 0.0
C688 C 0.34461 0.68884 0.53671 0.0
C689 C 0.37212 0.69364 0.52782 0.0
C690 C 0.41098 0.70207 0.53099 0.0
C691 C 0.42213 0.70563 0.54282 0.0
C692 C 0.36093 0.69129 0.5152 0.0
C693 C 0.38642 0.72317 0.50774 0.0
C694 C 0.32486 0.65887 0.5106 0.0
C695 C 0.29796 0.62296 0.51775 0.0
C696 C 0.31317 0.60083 0.52346 0.0
C697 C 0.28773 0.56718 0.53025 0.0
C698 C 0.24694 0.55519 0.53133 0.0
C699 C 0.23148 0.57676 0.5256 0.0
C700 C 0.2568 0.61045 0.5188 0.0
C701 C 0.34432 0.68892 0.45822 0.0
C702 C 0.31248 0.69524 0.45504 0.0
C703 C 0.35283 0.68689 0.47006 0.0
C704 C 0.32925 0.69048 0.47889 0.0
C705 C 0.29651 0.69524 0.47574 0.0
C706 C 0.28845 0.69806 0.46391 0.0
C707 C 0.34029 0.69173 0.4914 0.0
C708 C 0.31478 0.65982 0.49878 0.0
C709 C 0.37648 0.72385 0.49592 0.0
C710 C 0.40382 0.75893 0.48855 0.0
C711 C 0.3895 0.7819 0.48289 0.0
C712 C 0.41503 0.8142 0.47569 0.0
C713 C 0.45519 0.82428 0.47422 0.0
C714 C 0.46987 0.80202 0.47996 0.0
C715 C 0.44435 0.76948 0.48712 0.0
H716 H 0.47493 0.84935 0.46864 0.0
H717 H 0.2273 0.52914 0.5366 0.0
H718 H 0.72098 0.4563 0.87858 0.0
H719 H 0.70442 0.43709 0.85797 0.0
H720 H 0.64716 0.31159 0.86759 0.0
H721 H 0.66393 0.33048 0.88821 0.0
H722 H 0.69236 0.3265 0.84804 0.0
H723 H 0.59113 0.35477 0.86213 0.0
H724 H 0.56545 0.39543 0.87156 0.0
H725 H 0.62313 0.4867 0.84515 0.0
H726 H 0.64969 0.44685 0.83566 0.0
H727 H 0.55141 0.2866 0.79422 0.0
H728 H 0.56823 0.30191 0.81499 0.0
H729 H 0.69456 0.35528 0.80674 0.0
H730 H 0.67802 0.33982 0.78593 0.0
H731 H 0.61191 0.37332 0.82591 0.0
H732 H 0.74115 0.33726 0.8298 0.0
H733 H 0.76212 0.29203 0.82081 0.0
H734 H 0.63912 0.20754 0.81204 0.0
H735 H 0.61737 0.25198 0.82112 0.0
C736 C 0.70503 0.4246 0.87632 0.0
C737 C 0.6936 0.39491 0.88506 0.0
C738 C 0.69547 0.41368 0.86454 0.0
C739 C 0.67417 0.37291 0.86127 0.0
C740 C 0.66358 0.34323 0.86993 0.0
C741 C 0.67309 0.3541 0.88172 0.0
C742 C 0.66224 0.36115 0.84885 0.0
C743 C 0.67485 0.33681 0.84319 0.0
C744 C 0.63881 0.37404 0.84259 0.0
C745 C 0.62274 0.398 0.84825 0.0
C746 C 0.59862 0.38366 0.85839 0.0
C747 C 0.58386 0.40654 0.86374 0.0
C748 C 0.59275 0.44367 0.85898 0.0
C749 C 0.61633 0.45796 0.84884 0.0
C750 C 0.63122 0.43523 0.84347 0.0
C751 C 0.58278 0.30141 0.79681 0.0
C752 C 0.61338 0.3119 0.78841 0.0
C753 C 0.59234 0.31028 0.80869 0.0
C754 C 0.6326 0.32952 0.81242 0.0
C755 C 0.66324 0.33999 0.80407 0.0
C756 C 0.65373 0.33122 0.79217 0.0
C757 C 0.64251 0.33914 0.82504 0.0
C758 C 0.62955 0.36313 0.83074 0.0
C759 C 0.66502 0.32536 0.83139 0.0
C760 C 0.67772 0.29818 0.82603 0.0
C761 C 0.71858 0.30897 0.82599 0.0
C762 C 0.7306 0.28347 0.82087 0.0
C763 C 0.70199 0.247 0.81583 0.0
C764 C 0.66127 0.23587 0.81592 0.0
C765 C 0.64909 0.26123 0.82103 0.0
H766 H 0.71136 0.22732 0.81187 0.0
H767 H 0.58128 0.46134 0.86313 0.0
H768 H 0.82687 0.41963 0.08731 0.0
H769 H 0.89457 0.42868 0.08778 0.0
H770 H 0.9451 0.55712 0.0912 0.0
H771 H 0.87736 0.54842 0.09059 0.0
H772 H 0.98565 0.53831 0.07514 0.0
H773 H 0.93823 0.49983 0.11486 0.0
H774 H 0.89007 0.45629 0.13001 0.0
H775 H 0.90442 0.35733 0.11868 0.0
H776 H 0.95226 0.40013 0.10335 0.0
H777 H 0.18328 0.58992 0.09102 0.0
H778 H 0.11511 0.57958 0.09125 0.0
H779 H 0.06622 0.45095 0.08967 0.0
H780 H 0.13454 0.46103 0.08971 0.0
H781 H 0.02424 0.4688 0.10479 0.0
H782 H 0.06963 0.50421 0.06526 0.0
H783 H 0.11618 0.54486 0.0495 0.0
H784 H 0.10367 0.6461 0.0595 0.0
H785 H 0.05751 0.60616 0.07552 0.0
C786 C 0.85233 0.44985 0.08815 0.0
C787 C 0.84665 0.48331 0.08895 0.0
C788 C 0.89103 0.45493 0.08848 0.0
C789 C 0.92486 0.49352 0.08968 0.0
C790 C 0.91938 0.52705 0.0903 0.0
C791 C 0.88065 0.52201 0.08998 0.0
C792 C 0.96598 0.49893 0.09017 0.0
C793 C 0.99429 0.52362 0.08174 0.0
C794 C 0.97681 0.47869 0.09854 0.0
C795 C 0.94857 0.45311 0.10789 0.0
C796 C 0.93093 0.46871 0.11555 0.0
C797 C 0.90371 0.44418 0.12418 0.0
C798 C 0.89412 0.40405 0.12529 0.0
C799 C 0.91185 0.38841 0.1178 0.0
C800 C 0.93905 0.41281 0.10915 0.0
C801 C 0.15808 0.55939 0.09073 0.0
C802 C 0.1644 0.5263 0.09026 0.0
C803 C 0.11907 0.55354 0.09083 0.0
C804 C 0.0855 0.51451 0.09029 0.0
C805 C 0.09166 0.48135 0.09007 0.0
C806 C 0.13074 0.48717 0.09005 0.0
C807 C 0.04407 0.50847 0.08981 0.0
C808 C 0.01567 0.4836 0.09822 0.0
C809 C 0.03296 0.52822 0.08134 0.0
C810 C 0.06043 0.55231 0.07167 0.0
C811 C 0.07703 0.53524 0.06416 0.0
C812 C 0.10333 0.55816 0.05516 0.0
C813 C 0.11297 0.5981 0.05349 0.0
C814 C 0.09623 0.61517 0.06081 0.0
C815 C 0.06998 0.5924 0.06986 0.0
H816 H 0.13334 0.6158 0.04651 0.0
H817 H 0.87301 0.38509 0.13196 0.0
H818 H 0.67585 0.13151 0.41971 0.0
H819 H 0.61751 0.06313 0.41973 0.0
H820 H 0.53881 0.11126 0.42607 0.0
H821 H 0.59678 0.17963 0.42596 0.0
H822 H 0.52354 0.04629 0.44076 0.0
H823 H 0.54125 0.07997 0.39975 0.0
H824 H 0.57888 0.10292 0.38112 0.0
H825 H 0.60169 0.00411 0.382 0.0
H826 H 0.5647 0.9809 0.40075 0.0
H827 H 0.33511 0.87159 0.42861 0.0
H828 H 0.39388 0.93949 0.42862 0.0
H829 H 0.47008 0.89085 0.4192 0.0
H830 H 0.4115 0.82291 0.4191 0.0
H831 H 0.48719 0.95614 0.40607 0.0
H832 H 0.47343 0.92401 0.44714 0.0
H833 H 0.43917 0.90185 0.46628 0.0
H834 H 0.41042 0.99661 0.46546 0.0
H835 H 0.4448 0.01955 0.44632 0.0
C836 C 0.64613 0.12753 0.42111 0.0
C837 C 0.64094 0.161 0.42281 0.0
C838 C 0.61284 0.08847 0.42108 0.0
C839 C 0.57385 0.08219 0.42284 0.0
C840 C 0.56864 0.11548 0.42469 0.0
C841 C 0.60181 0.15453 0.42457 0.0
C842 C 0.53845 0.04087 0.42286 0.0
C843 C 0.51525 0.02674 0.43312 0.0
C844 C 0.52832 0.01508 0.41299 0.0
C845 C 0.5506 0.02897 0.40173 0.0
C846 C 0.55463 0.06335 0.39604 0.0
C847 C 0.57577 0.07637 0.38544 0.0
C848 C 0.59277 0.05506 0.3804 0.0
C849 C 0.58857 0.02063 0.38593 0.0
C850 C 0.5675 0.00752 0.39654 0.0
C851 C 0.36436 0.8753 0.42655 0.0
C852 C 0.36857 0.84176 0.42387 0.0
C853 C 0.39798 0.91413 0.42662 0.0
C854 C 0.43646 0.92024 0.42401 0.0
C855 C 0.4407 0.88686 0.42125 0.0
C856 C 0.40716 0.84801 0.42123 0.0
C857 C 0.47219 0.96148 0.42398 0.0
C858 C 0.49546 0.97564 0.41371 0.0
C859 C 0.48257 0.98726 0.43386 0.0
C860 C 0.46126 0.97319 0.44525 0.0
C861 C 0.45948 0.93989 0.45099 0.0
C862 C 0.44012 0.92724 0.46186 0.0
C863 C 0.42234 0.94758 0.46705 0.0
C864 C 0.4241 0.9808 0.46141 0.0
C865 C 0.44364 0.99373 0.45058 0.0
H866 H 0.40736 0.93771 0.47546 0.0
H867 H 0.60911 0.06517 0.37219 0.0
H868 H 0.59132 0.40914 0.75677 0.0
H869 H 0.58192 0.46762 0.7571 0.0
H870 H 0.4532 0.38929 0.75499 0.0
H871 H 0.46229 0.33044 0.75465 0.0
H872 H 0.48121 0.4538 0.73974 0.0
H873 H 0.49463 0.43145 0.78058 0.0
H874 H 0.52709 0.42116 0.79789 0.0
H875 H 0.63214 0.53699 0.7924 0.0
H876 H 0.60052 0.54774 0.77494 0.0
H877 H 0.42156 0.59535 0.7545 0.0
H878 H 0.43175 0.53746 0.75441 0.0
H879 H 0.55977 0.61663 0.75847 0.0
H880 H 0.54979 0.67493 0.75874 0.0
H881 H 0.53284 0.55196 0.77266 0.0
H882 H 0.52016 0.57477 0.73194 0.0
H883 H 0.48853 0.58542 0.71448 0.0
H884 H 0.38336 0.46933 0.71951 0.0
H885 H 0.41415 0.45822 0.7371 0.0
C886 C 0.56097 0.40426 0.75637 0.0
C887 C 0.52752 0.36507 0.75571 0.0
C888 C 0.55567 0.43776 0.75661 0.0
C889 C 0.51686 0.43278 0.75618 0.0
C890 C 0.48342 0.39377 0.75536 0.0
C891 C 0.48866 0.36018 0.75519 0.0
C892 C 0.51126 0.46835 0.75651 0.0
C893 C 0.49198 0.47498 0.74701 0.0
C894 C 0.52632 0.49653 0.76585 0.0
C895 C 0.54535 0.49022 0.77638 0.0
C896 C 0.52478 0.45459 0.783 0.0
C897 C 0.54301 0.4487 0.79285 0.0
C898 C 0.5817 0.47835 0.79622 0.0
C899 C 0.60219 0.51402 0.78977 0.0
C900 C 0.58412 0.52004 0.7799 0.0
C901 C 0.45194 0.60057 0.75537 0.0
C902 C 0.4849 0.63986 0.75657 0.0
C903 C 0.45771 0.56738 0.75527 0.0
C904 C 0.49658 0.57272 0.75627 0.0
C905 C 0.52952 0.61182 0.75765 0.0
C906 C 0.52377 0.64511 0.75777 0.0
C907 C 0.50268 0.53741 0.75589 0.0
C908 C 0.52208 0.53082 0.76538 0.0
C909 C 0.48787 0.50933 0.74651 0.0
C910 C 0.46932 0.51584 0.73591 0.0
C911 C 0.49016 0.55164 0.72937 0.0
C912 C 0.4724 0.55774 0.71945 0.0
C913 C 0.43392 0.52812 0.71591 0.0
C914 C 0.41315 0.49228 0.72227 0.0
C915 C 0.43076 0.48605 0.73222 0.0
H916 H 0.42022 0.5329 0.70822 0.0
H917 H 0.59575 0.47374 0.80385 0.0
H918 H 0.59397 0.18309 0.57994 0.0
H919 H 0.58399 0.11491 0.57945 0.0
H920 H 0.45605 0.06552 0.58385 0.0
H921 H 0.46572 0.13368 0.5843 0.0
H922 H 0.48668 0.03135 0.59886 0.0
H923 H 0.49121 0.05947 0.55781 0.0
H924 H 0.51749 0.09519 0.53903 0.0
H925 H 0.62295 0.084 0.5426 0.0
H926 H 0.59759 0.04871 0.5615 0.0
H927 H 0.42386 0.82727 0.58605 0.0
H928 H 0.43412 0.89543 0.58585 0.0
H929 H 0.56133 0.94369 0.5801 0.0
H930 H 0.55127 0.87539 0.58014 0.0
H931 H 0.53135 0.9786 0.5658 0.0
H932 H 0.52614 0.94996 0.60697 0.0
H933 H 0.49729 0.91055 0.62507 0.0
H934 H 0.39184 0.92154 0.62102 0.0
H935 H 0.41982 0.96055 0.60279 0.0
C936 C 0.56367 0.15774 0.58077 0.0
C937 C 0.53063 0.16383 0.58218 0.0
C938 C 0.55801 0.11878 0.58043 0.0
C939 C 0.51925 0.08514 0.58155 0.0
C940 C 0.48621 0.09108 0.58296 0.0
C941 C 0.49179 0.13004 0.58318 0.0
C942 C 0.51339 0.04381 0.58162 0.0
C943 C 0.49596 0.01961 0.59157 0.0
C944 C 0.52644 0.02889 0.57222 0.0
C945 C 0.54265 0.05176 0.56114 0.0
C946 C 0.52026 0.0651 0.55468 0.0
C947 C 0.53491 0.08511 0.54399 0.0
C948 C 0.57178 0.09171 0.53961 0.0
C949 C 0.59432 0.07874 0.54598 0.0
C950 C 0.57984 0.05875 0.55669 0.0
C951 C 0.45408 0.85233 0.58476 0.0
C952 C 0.48678 0.84583 0.58315 0.0
C953 C 0.4599 0.89133 0.5847 0.0
C954 C 0.49856 0.92472 0.5831 0.0
C955 C 0.53124 0.91836 0.58138 0.0
C956 C 0.52545 0.87931 0.58144 0.0
C957 C 0.50472 0.96619 0.58305 0.0
C958 C 0.52222 0.99042 0.57311 0.0
C959 C 0.49174 0.98114 0.59246 0.0
C960 C 0.47492 0.95787 0.60345 0.0
C961 C 0.49666 0.94371 0.60989 0.0
C962 C 0.48049 0.92149 0.62018 0.0
C963 C 0.44272 0.91346 0.62418 0.0
C964 C 0.42108 0.92774 0.61791 0.0
C965 C 0.4371 0.94994 0.6076 0.0
H966 H 0.43025 0.89624 0.63215 0.0
H967 H 0.58285 0.10681 0.53127 0.0
H968 H 0.40932 0.58787 0.91156 0.0
H969 H 0.46767 0.57801 0.91125 0.0
H970 H 0.39201 0.45423 0.92172 0.0
H971 H 0.33316 0.46357 0.92182 0.0
H972 H 0.46773 0.50268 0.93519 0.0
H973 H 0.41808 0.46655 0.89538 0.0
H974 H 0.39588 0.47823 0.87619 0.0
H975 H 0.51136 0.58414 0.8711 0.0
H976 H 0.53406 0.57342 0.89036 0.0
H977 H 0.60039 0.42689 0.92501 0.0
H978 H 0.54255 0.43752 0.925 0.0
H979 H 0.61592 0.55503 0.90963 0.0
H980 H 0.67414 0.54484 0.90973 0.0
H981 H 0.54188 0.51115 0.89854 0.0
H982 H 0.59334 0.55227 0.9368 0.0
H983 H 0.61872 0.55033 0.95653 0.0
H984 H 0.50541 0.44609 0.96514 0.0
H985 H 0.4795 0.44697 0.94536 0.0
C986 C 0.40505 0.55851 0.91378 0.0
C987 C 0.36664 0.52646 0.91671 0.0
C988 C 0.43839 0.55293 0.91356 0.0
C989 C 0.43405 0.5154 0.91643 0.0
C990 C 0.39587 0.48341 0.91947 0.0
C991 C 0.36232 0.48876 0.91948 0.0
C992 C 0.46959 0.50982 0.91641 0.0
C993 C 0.48355 0.50374 0.92717 0.0
C994 C 0.49114 0.51309 0.90598 0.0
C995 C 0.47762 0.51941 0.89437 0.0
C996 C 0.43862 0.49254 0.89022 0.0
C997 C 0.42597 0.49894 0.87932 0.0
C998 C 0.45215 0.53197 0.87244 0.0
C999 C 0.49109 0.5586 0.87644 0.0
C1000 C 0.50387 0.55235 0.88735 0.0
C1001 C 0.60426 0.45502 0.92164 0.0
C1002 C 0.64188 0.48506 0.91739 0.0
C1003 C 0.57121 0.46109 0.92167 0.0
C1004 C 0.57499 0.49712 0.91735 0.0
C1005 C 0.61237 0.52701 0.913 0.0
C1006 C 0.64562 0.5212 0.91311 0.0
C1007 C 0.53974 0.5033 0.91733 0.0
C1008 C 0.52593 0.5097 0.90657 0.0
C1009 C 0.51882 0.50122 0.92779 0.0
C1010 C 0.53464 0.49939 0.93954 0.0
C1011 C 0.57401 0.52854 0.94283 0.0
C1012 C 0.58846 0.52774 0.95404 0.0
C1013 C 0.56371 0.49811 0.96208 0.0
C1014 C 0.52455 0.46901 0.9589 0.0
C1015 C 0.50996 0.46964 0.94768 0.0
H1016 H 0.57484 0.49793 0.97079 0.0
H1017 H 0.4423 0.53688 0.86401 0.0
H1018 H 0.13414 0.67667 0.25183 0.0
H1019 H 0.06581 0.6183 0.25199 0.0
H1020 H 0.11458 0.53866 0.24963 0.0
H1021 H 0.18282 0.59663 0.24948 0.0
H1022 H 0.05144 0.51772 0.23428 0.0
H1023 H 0.08053 0.54959 0.2752 0.0
H1024 H 0.10139 0.59351 0.29268 0.0
H1025 H 1.00267 0.61489 0.28758 0.0
H1026 H 0.98154 0.57151 0.26995 0.0
H1027 H 0.87694 0.33306 0.249 0.0
H1028 H 0.94457 0.39216 0.24898 0.0
H1029 H 0.89371 0.46951 0.25319 0.0
H1030 H 0.82601 0.4106 0.25336 0.0
H1031 H 0.95769 0.49238 0.26748 0.0
H1032 H 0.92806 0.45985 0.22666 0.0
H1033 H 0.90733 0.41604 0.20915 0.0
H1034 H 0.00716 0.39621 0.21396 0.0
H1035 H 0.02817 0.43946 0.2316 0.0
C1036 C 0.13031 0.64674 0.25133 0.0
C1037 C 0.16394 0.64131 0.25067 0.0
C1038 C 0.09128 0.61343 0.25147 0.0
C1039 C 0.08518 0.57417 0.25089 0.0
C1040 C 0.11863 0.5687 0.25008 0.0
C1041 C 0.15762 0.60191 0.25004 0.0
C1042 C 0.04393 0.53867 0.25114 0.0
C1043 C 0.03108 0.51189 0.2416 0.0
C1044 C 0.01714 0.53162 0.26058 0.0
C1045 C 0.02972 0.55765 0.27118 0.0
C1046 C 0.06348 0.56394 0.27774 0.0
C1047 C 0.07531 0.58868 0.28769 0.0
C1048 C 0.05344 0.60708 0.29122 0.0
C1049 C 0.01962 0.60068 0.28482 0.0
C1050 C 0.00768 0.57599 0.27486 0.0
C1051 C 0.88011 0.36262 0.24993 0.0
C1052 C 0.84602 0.36708 0.25113 0.0
C1053 C 0.9188 0.3964 0.24988 0.0
C1054 C 0.92417 0.4353 0.25095 0.0
C1055 C 0.89026 0.4398 0.25234 0.0
C1056 C 0.85157 0.40606 0.25239 0.0
C1057 C 0.96515 0.47131 0.25061 0.0
C1058 C 0.97798 0.49822 0.26014 0.0
C1059 C 0.99194 0.47851 0.24115 0.0
C1060 C 0.97945 0.45258 0.23052 0.0
C1061 C 0.94541 0.44589 0.22404 0.0
C1062 C 0.93364 0.4212 0.21408 0.0
C1063 C 0.95585 0.40327 0.21046 0.0
C1064 C 0.98995 0.41007 0.21678 0.0
C1065 C 1.00182 0.4347 0.22676 0.0
H1066 H 0.9467 0.38417 0.20275 0.0
H1067 H 0.06264 0.62622 0.29892 0.0
H1068 H 0.59862 0.42095 0.08893 0.0
H1069 H 0.54078 0.43131 0.08911 0.0
H1070 H 0.62055 0.55967 0.09186 0.0
H1071 H 0.67873 0.54954 0.09187 0.0
H1072 H 0.5575 0.53497 0.10649 0.0
H1073 H 0.5761 0.51678 0.06581 0.0
H1074 H 0.58469 0.48268 0.04859 0.0
H1075 H 0.46876 0.37883 0.05502 0.0
H1076 H 0.45971 0.4121 0.07239 0.0
H1077 H 0.41376 0.59271 0.09072 0.0
H1078 H 0.47216 0.58312 0.09102 0.0
H1079 H 0.39339 0.4543 0.09003 0.0
H1080 H 0.33471 0.46357 0.08969 0.0
H1081 H 0.45622 0.47992 0.07444 0.0
H1082 H 0.43817 0.49901 0.11524 0.0
H1083 H 0.43006 0.53405 0.1323 0.0
H1084 H 0.5457 0.63764 0.12534 0.0
H1085 H 0.55426 0.60341 0.10813 0.0
C1086 C 0.60395 0.45142 0.08959 0.0
C1087 C 0.64337 0.48444 0.09034 0.0
C1088 C 0.5708 0.4573 0.08964 0.0
C1089 C 0.57632 0.49631 0.09033 0.0
C1090 C 0.61558 0.52931 0.09128 0.0
C1091 C 0.6488 0.52346 0.09126 0.0
C1092 C 0.5411 0.5026 0.09007 0.0
C1093 C 0.53567 0.52343 0.0994 0.0
C1094 C 0.51214 0.48684 0.08094 0.0
C1095 C 0.51741 0.46679 0.07047 0.0
C1096 C 0.55257 0.48655 0.06361 0.0
C1097 C 0.5575 0.46739 0.05381 0.0
C1098 C 0.52734 0.42857 0.05073 0.0
C1099 C 0.49212 0.40888 0.05742 0.0
C1100 C 0.48706 0.42788 0.06724 0.0
C1101 C 0.40879 0.56231 0.09058 0.0
C1102 C 0.36951 0.5289 0.09021 0.0
C1103 C 0.44224 0.55689 0.0908 0.0
C1104 C 0.43712 0.51799 0.09065 0.0
C1105 C 0.39801 0.48458 0.09017 0.0
C1106 C 0.36451 0.48995 0.09002 0.0
C1107 C 0.4726 0.51217 0.09087 0.0
C1108 C 0.47808 0.49146 0.08153 0.0
C1109 C 0.50168 0.5282 0.09996 0.0
C1110 C 0.49667 0.54879 0.11032 0.0
C1111 C 0.46173 0.52939 0.11729 0.0
C1112 C 0.45707 0.54908 0.127 0.0
C1113 C 0.48729 0.58809 0.12988 0.0
C1114 C 0.52228 0.60744 0.12308 0.0
C1115 C 0.52707 0.5879 0.11335 0.0
H1116 H 0.48363 0.60328 0.1374 0.0
H1117 H 0.53121 0.41379 0.04314 0.0
H1118 H 0.87415 0.33137 0.42278 0.0
H1119 H 0.94205 0.38991 0.42313 0.0
H1120 H 0.89212 0.46867 0.4252 0.0
H1121 H 0.82411 0.41031 0.42455 0.0
H1122 H 0.95186 0.49759 0.41004 0.0
H1123 H 0.93376 0.44783 0.44952 0.0
H1124 H 0.91772 0.39706 0.46501 0.0
H1125 H 0.01467 0.38002 0.4533 0.0
H1126 H 0.03096 0.43031 0.43762 0.0
H1127 H 0.13399 0.67438 0.42619 0.0
H1128 H 0.06555 0.61649 0.42634 0.0
H1129 H 0.11311 0.53625 0.4223 0.0
H1130 H 0.1816 0.59385 0.42227 0.0
H1131 H 0.05445 0.50881 0.43871 0.0
H1132 H 0.07177 0.55855 0.39908 0.0
H1133 H 0.08774 0.60986 0.38377 0.0
H1134 H 0.9919 0.62766 0.39611 0.0
H1135 H 0.9757 0.57682 0.41161 0.0
C1136 C 0.87759 0.36113 0.42334 0.0
C1137 C 0.84366 0.36611 0.42367 0.0
C1138 C 0.91648 0.39461 0.42359 0.0
C1139 C 0.92229 0.43376 0.42436 0.0
C1140 C 0.88845 0.43881 0.42462 0.0
C1141 C 0.84955 0.40536 0.42428 0.0
C1142 C 0.96361 0.46948 0.42472 0.0
C1143 C 0.97408 0.50028 0.41643 0.0
C1144 C 0.99297 0.47272 0.43289 0.0
C1145 C 0.98333 0.44256 0.44233 0.0
C1146 C 0.95147 0.43304 0.45019 0.0
C1147 C 0.94237 0.40438 0.45901 0.0
C1148 C 0.9651 0.38526 0.46012 0.0
C1149 C 0.99705 0.39482 0.45242 0.0
C1150 C 0.00626 0.42343 0.44357 0.0
C1151 C 0.12992 0.64443 0.42534 0.0
C1152 C 0.16333 0.6388 0.42417 0.0
C1153 C 0.09075 0.61136 0.42538 0.0
C1154 C 0.08416 0.57203 0.4242 0.0
C1155 C 0.11745 0.56631 0.4232 0.0
C1156 C 0.15661 0.59932 0.42315 0.0
C1157 C 0.04262 0.53679 0.42403 0.0
C1158 C 0.03214 0.5061 0.43235 0.0
C1159 C 0.0132 0.53372 0.41593 0.0
C1160 C 0.02279 0.56417 0.40658 0.0
C1161 C 0.0543 0.57363 0.39859 0.0
C1162 C 0.06336 0.60259 0.38987 0.0
C1163 C 0.04092 0.62209 0.38899 0.0
C1164 C 0.00929 0.61258 0.39681 0.0
C1165 C 1.00014 0.58367 0.40556 0.0
H1166 H 0.04798 0.6445 0.38223 0.0
H1167 H 0.958 0.36308 0.46696 0.0
H1168 H 0.46171 0.13096 0.75546 0.0
H1169 H 0.45177 0.06281 0.75564 0.0
H1170 H 0.58 0.11174 0.75917 0.0
H1171 H 0.59025 0.17994 0.75867 0.0
H1172 H 0.55097 0.05337 0.74357 0.0
H1173 H 0.51346 0.06872 0.78277 0.0
H1174 H 0.47605 0.08356 0.79771 0.0
H1175 H 0.36424 0.98743 0.7844 0.0
H1176 H 0.40097 0.97235 0.76927 0.0
H1177 H 0.54674 0.8727 0.76004 0.0
H1178 H 0.55581 0.94053 0.7602 0.0
H1179 H 0.42818 0.89075 0.75488 0.0
H1180 H 0.41874 0.82281 0.75487 0.0
H1181 H 0.4564 0.94911 0.77134 0.0
H1182 H 0.49408 0.93304 0.73239 0.0
H1183 H 0.5315 0.91757 0.71765 0.0
H1184 H 0.64318 0.01522 0.73048 0.0
H1185 H 0.60646 0.03072 0.7455 0.0
C1186 C 0.48779 0.12722 0.75632 0.0
C1187 C 0.52677 0.16092 0.75709 0.0
C1188 C 0.48205 0.0882 0.75646 0.0
C1189 C 0.51509 0.08205 0.75758 0.0
C1190 C 0.55403 0.11567 0.75831 0.0
C1191 C 0.55982 0.15468 0.75805 0.0
C1192 C 0.50924 0.04066 0.75782 0.0
C1193 C 0.53071 0.03077 0.74976 0.0
C1194 C 0.48206 0.01077 0.76569 0.0
C1195 C 0.45995 0.01966 0.77482 0.0
C1196 C 0.48088 0.05093 0.78298 0.0
C1197 C 0.4598 0.05935 0.79149 0.0
C1198 C 0.41779 0.03652 0.79199 0.0
C1199 C 0.39678 0.00513 0.784 0.0
C1200 C 0.41771 0.99661 0.77546 0.0
C1201 C 0.52057 0.87614 0.75892 0.0
C1202 C 0.48202 0.84228 0.7574 0.0
C1203 C 0.52583 0.91496 0.75897 0.0
C1204 C 0.49272 0.92075 0.75742 0.0
C1205 C 0.45415 0.88701 0.75608 0.0
C1206 C 0.44885 0.84818 0.75604 0.0
C1207 C 0.49828 0.96198 0.75714 0.0
C1208 C 0.4767 0.97178 0.76517 0.0
C1209 C 0.52539 0.99179 0.74926 0.0
C1210 C 0.54752 0.98279 0.74015 0.0
C1211 C 0.52664 0.95102 0.73214 0.0
C1212 C 0.54772 0.94228 0.72372 0.0
C1213 C 0.58969 0.96538 0.72313 0.0
C1214 C 0.61067 0.99732 0.73095 0.0
C1215 C 0.58973 0.00609 0.73943 0.0
H1216 H 0.60596 0.95856 0.71659 0.0
H1217 H 0.40152 0.04309 0.79858 0.0
H1218 H 0.42098 0.5966 0.58247 0.0
H1219 H 0.43061 0.53827 0.58257 0.0
H1220 H 0.55947 0.61724 0.58333 0.0
H1221 H 0.55011 0.67581 0.58293 0.0
H1222 H 0.54064 0.55786 0.56838 0.0
H1223 H 0.50476 0.56692 0.60824 0.0
H1224 H 0.46296 0.57111 0.62405 0.0
H1225 H 0.36354 0.45681 0.61356 0.0
H1226 H 0.40457 0.4522 0.59758 0.0
H1227 H 0.59375 0.41226 0.58513 0.0
H1228 H 0.58332 0.47012 0.58498 0.0
H1229 H 0.45505 0.39029 0.58202 0.0
H1230 H 0.46515 0.33211 0.58227 0.0
H1231 H 0.47321 0.44962 0.5981 0.0
H1232 H 0.5096 0.44096 0.55825 0.0
H1233 H 0.55185 0.43688 0.54256 0.0
H1234 H 0.65109 0.55092 0.55332 0.0
H1235 H 0.60958 0.5554 0.56919 0.0
C1236 C 0.4514 0.60161 0.58265 0.0
C1237 C 0.48478 0.64092 0.58274 0.0
C1238 C 0.45685 0.56818 0.58277 0.0
C1239 C 0.49576 0.5733 0.58315 0.0
C1240 C 0.52916 0.61251 0.58307 0.0
C1241 C 0.52374 0.64598 0.58286 0.0
C1242 C 0.50168 0.53781 0.58352 0.0
C1243 C 0.52633 0.5345 0.57499 0.0
C1244 C 0.48229 0.50678 0.59198 0.0
C1245 C 0.45764 0.5094 0.60164 0.0
C1246 C 0.47389 0.54282 0.60925 0.0
C1247 C 0.45035 0.54525 0.61825 0.0
C1248 C 0.41059 0.51429 0.61979 0.0
C1249 C 0.39433 0.48079 0.61235 0.0
C1250 C 0.41772 0.47823 0.60332 0.0
C1251 C 0.56328 0.40693 0.58444 0.0
C1252 C 0.53029 0.3675 0.58366 0.0
C1253 C 0.5574 0.44009 0.58432 0.0
C1254 C 0.51843 0.43456 0.58336 0.0
C1255 C 0.48538 0.39526 0.58275 0.0
C1256 C 0.49124 0.36204 0.58285 0.0
C1257 C 0.51222 0.46982 0.58298 0.0
C1258 C 0.48751 0.47305 0.59151 0.0
C1259 C 0.53164 0.50084 0.57455 0.0
C1260 C 0.55659 0.49833 0.56497 0.0
C1261 C 0.54052 0.46502 0.55733 0.0
C1262 C 0.56432 0.46266 0.54839 0.0
C1263 C 0.60416 0.49357 0.54697 0.0
C1264 C 0.62024 0.52697 0.55445 0.0
C1265 C 0.59659 0.52945 0.5634 0.0
H1266 H 0.62254 0.49169 0.54005 0.0
H1267 H 0.3924 0.51619 0.62676 0.0
H1268 H 0.18332 0.5923 0.91646 0.0
H1269 H 0.11541 0.58279 0.91614 0.0
H1270 H 0.06523 0.45389 0.91563 0.0
H1271 H 0.13316 0.46315 0.91571 0.0
H1272 H 0.02639 0.47537 0.90052 0.0
H1273 H 0.0663 0.5038 0.9409 0.0
H1274 H 0.11036 0.54225 0.95745 0.0
H1275 H 0.09819 0.64431 0.94833 0.0
H1276 H 0.05448 0.60664 0.93161 0.0
H1277 H 0.8262 0.42034 0.91667 0.0
H1278 H 0.89442 0.43059 0.91631 0.0
H1279 H 0.94334 0.55922 0.91508 0.0
H1280 H 0.87511 0.54928 0.91551 0.0
H1281 H 0.98277 0.53824 0.93097 0.0
H1282 H 0.94171 0.50847 0.89063 0.0
H1283 H 0.89703 0.46896 0.8743 0.0
H1284 H 0.91062 0.36795 0.88371 0.0
H1285 H 0.95495 0.40669 0.9002 0.0
C1286 C 0.15788 0.56189 0.91627 0.0
C1287 C 0.16373 0.52847 0.91616 0.0
C1288 C 0.11902 0.55651 0.91614 0.0
C1289 C 0.08514 0.51761 0.91603 0.0
C1290 C 0.09088 0.48419 0.91574 0.0
C1291 C 0.12977 0.48955 0.91582 0.0
C1292 C 0.04375 0.51179 0.91619 0.0
C1293 C 0.0167 0.48868 0.90727 0.0
C1294 C 0.0313 0.52984 0.92486 0.0
C1295 C 0.05744 0.55252 0.93493 0.0
C1296 C 0.07327 0.53455 0.94237 0.0
C1297 C 0.09814 0.55618 0.95179 0.0
C1298 C 0.10716 0.59573 0.95392 0.0
C1299 C 0.09123 0.61369 0.94666 0.0
C1300 C 0.06638 0.5922 0.93721 0.0
C1301 C 0.85142 0.45085 0.9163 0.0
C1302 C 0.84514 0.484 0.91609 0.0
C1303 C 0.89044 0.45664 0.91605 0.0
C1304 C 0.924 0.49566 0.91555 0.0
C1305 C 0.91788 0.52884 0.91544 0.0
C1306 C 0.87884 0.52308 0.91565 0.0
C1307 C 0.96548 0.50183 0.9153 0.0
C1308 C 0.99252 0.52499 0.92422 0.0
C1309 C 0.97785 0.48366 0.90666 0.0
C1310 C 0.95135 0.46036 0.89672 0.0
C1311 C 0.93492 0.47773 0.88927 0.0
C1312 C 0.9097 0.45549 0.87998 0.0
C1313 C 0.90091 0.41593 0.87799 0.0
C1314 C 0.91742 0.39857 0.88527 0.0
C1315 C 0.94262 0.42067 0.89458 0.0
H1316 H 0.88138 0.39877 0.87079 0.0
H1317 H 0.12642 0.61243 0.96122 0.0
H1318 H 0.33545 0.87436 0.24984 0.0
H1319 H 0.39447 0.94195 0.24939 0.0
H1320 H 0.4722 0.89072 0.24794 0.0
H1321 H 0.41338 0.82304 0.24869 0.0
H1322 H 0.50107 0.95087 0.263 0.0
H1323 H 0.45269 0.93201 0.22332 0.0
H1324 H 0.40246 0.91595 0.20765 0.0
H1325 H 0.38631 0.01401 0.21879 0.0
H1326 H 0.43607 0.03033 0.23463 0.0
H1327 H 0.67927 0.13244 0.24731 0.0
H1328 H 0.6213 0.06401 0.24695 0.0
H1329 H 0.54098 0.11176 0.25022 0.0
H1330 H 0.59859 0.18016 0.25046 0.0
H1331 H 0.51439 0.05305 0.23387 0.0
H1332 H 0.56202 0.07085 0.27377 0.0
H1333 H 0.61248 0.08686 0.28936 0.0
H1334 H 0.63042 0.99051 0.27758 0.0
H1335 H 0.58043 0.97427 0.26181 0.0
C1336 C 0.36509 0.87744 0.24939 0.0
C1337 C 0.36967 0.84326 0.24927 0.0
C1338 C 0.39884 0.91614 0.24908 0.0
C1339 C 0.43783 0.92148 0.24846 0.0
C1340 C 0.44245 0.88739 0.2484 0.0
C1341 C 0.40875 0.8487 0.2488 0.0
C1342 C 0.47381 0.96257 0.24809 0.0
C1343 C 0.50423 0.97299 0.25651 0.0
C1344 C 0.47765 0.9918 0.23979 0.0
C1345 C 0.44784 0.98215 0.23023 0.0
C1346 C 0.43822 0.94997 0.22248 0.0
C1347 C 0.40987 0.94085 0.21356 0.0
C1348 C 0.39114 0.96388 0.21224 0.0
C1349 C 0.40081 0.99616 0.21983 0.0
C1350 C 0.42911 0.00539 0.22877 0.0
C1351 C 0.64928 0.1284 0.24794 0.0
C1352 C 0.64361 0.16182 0.24895 0.0
C1353 C 0.61617 0.08925 0.24777 0.0
C1354 C 0.5768 0.08275 0.24868 0.0
C1355 C 0.57107 0.11605 0.24952 0.0
C1356 C 0.6041 0.15516 0.24968 0.0
C1357 C 0.5415 0.04127 0.24879 0.0
C1358 C 0.51123 0.03082 0.24032 0.0
C1359 C 0.53785 0.01199 0.25703 0.0
C1360 C 0.56779 0.02162 0.26653 0.0
C1361 C 0.57696 0.05328 0.27444 0.0
C1362 C 0.60543 0.06236 0.28333 0.0
C1363 C 0.62473 0.03979 0.28444 0.0
C1364 C 0.61549 0.00801 0.2767 0.0
C1365 C 0.58707 0.99883 0.26779 0.0
H1366 H 0.64676 0.04686 0.29133 0.0
H1367 H 0.3692 0.95677 0.20533 0.0
loop_
_geom_bond_atom_site_label_1
_geom_bond_atom_site_label_2
_geom_bond_distance
_geom_bond_site_symmetry_2
_ccdc_geom_bond_type
C0 O2 1.247 . S
C0 O4 1.258 . S
C1 O8 1.247 . S
C1 O9 1.258 . S
O2 C0 1.247 . S
O2 Zn3 2.028 . S
Zn3 O2 2.028 . S
Zn3 O7 2.035 . S
Zn3 O9 2.035 . S
Zn3 O10 2.028 . S
O4 C0 1.258 . S
O4 Zn5 2.035 . S
Zn5 O4 2.035 . S
Zn5 O6 2.028 . S
Zn5 O8 2.028 . S
Zn5 O11 2.035 . S
O6 Zn5 2.028 . S
O6 C12 1.247 . S
O7 Zn3 2.035 . S
O7 C12 1.258 . S
O8 C1 1.247 . S
O8 Zn5 2.028 . S
O9 C1 1.258 . S
O9 Zn3 2.035 . S
O10 Zn3 2.028 . S
O10 C13 1.247 . S
O11 Zn5 2.035 . S
O11 C13 1.258 . S
C12 O6 1.247 . S
C12 O7 1.258 . S
C13 O10 1.247 . S
C13 O11 1.258 . S
C14 O16 1.247 . S
C14 O18 1.258 . S
C15 O22 1.247 . S
C15 O23 1.258 . S
O16 C14 1.247 . S
O16 Zn17 2.028 . S
Zn17 O16 2.028 . S
Zn17 O21 2.035 . S
Zn17 O23 2.035 . S
Zn17 O24 2.028 . S
O18 C14 1.258 . S
O18 Zn19 2.035 . S
Zn19 O18 2.035 . S
Zn19 O20 2.028 . S
Zn19 O22 2.028 . S
Zn19 O25 2.035 . S
O20 Zn19 2.028 . S
O20 C26 1.247 . S
O21 Zn17 2.035 . S
O21 C26 1.258 . S
O22 C15 1.247 . S
O22 Zn19 2.028 . S
O23 C15 1.258 . S
O23 Zn17 2.035 . S
O24 Zn17 2.028 . S
O24 C27 1.247 . S
O25 Zn19 2.035 . S
O25 C27 1.258 . S
C26 O20 1.247 . S
C26 O21 1.258 . S
C27 O24 1.247 . S
C27 O25 1.258 . S
C28 O30 1.247 . S
C28 O32 1.258 . S
C29 O36 1.247 . S
C29 O37 1.258 . S
O30 C28 1.247 . S
O30 Zn31 2.028 . S
Zn31 O30 2.028 . S
Zn31 O35 2.035 . S
Zn31 O37 2.035 . S
Zn31 O38 2.028 . S
O32 C28 1.258 . S
O32 Zn33 2.035 . S
Zn33 O32 2.035 . S
Zn33 O34 2.028 . S
Zn33 O36 2.028 . S
Zn33 O39 2.035 . S
O34 Zn33 2.028 . S
O34 C40 1.247 . S
O35 Zn31 2.035 . S
O35 C40 1.258 . S
O36 C29 1.247 . S
O36 Zn33 2.028 . S
O37 C29 1.258 . S
O37 Zn31 2.035 . S
O38 Zn31 2.028 . S
O38 C41 1.247 . S
O39 Zn33 2.035 . S
O39 C41 1.258 . S
C40 O34 1.247 . S
C40 O35 1.258 . S
C41 O38 1.247 . S
C41 O39 1.258 . S
C42 O44 1.247 . S
C42 O46 1.258 . S
C43 O50 1.247 . S
C43 O51 1.258 . S
O44 C42 1.247 . S
O44 Zn45 2.028 . S
Zn45 O44 2.028 . S
Zn45 O49 2.035 . S
Zn45 O51 2.035 . S
Zn45 O52 2.028 . S
O46 C42 1.258 . S
O46 Zn47 2.035 . S
Zn47 O46 2.035 . S
Zn47 O48 2.028 . S
Zn47 O50 2.028 . S
Zn47 O53 2.035 . S
O48 Zn47 2.028 . S
O48 C54 1.247 . S
O49 Zn45 2.035 . S
O49 C54 1.258 . S
O50 C43 1.247 . S
O50 Zn47 2.028 . S
O51 C43 1.258 . S
O51 Zn45 2.035 . S
O52 Zn45 2.028 . S
O52 C55 1.247 . S
O53 Zn47 2.035 . S
O53 C55 1.258 . S
C54 O48 1.247 . S
C54 O49 1.258 . S
C55 O52 1.247 . S
C55 O53 1.258 . S
C56 O58 1.247 . S
C56 O60 1.258 . S
C57 O64 1.247 . S
C57 O65 1.258 . S
O58 C56 1.247 . S
O58 Zn59 2.028 . S
Zn59 O58 2.028 . S
Zn59 O63 2.035 . S
Zn59 O65 2.035 . S
Zn59 O66 2.028 . S
O60 C56 1.258 . S
O60 Zn61 2.035 . S
Zn61 O60 2.035 . S
Zn61 O62 2.028 . S
Zn61 O64 2.028 . S
Zn61 O67 2.035 . S
O62 Zn61 2.028 . S
O62 C68 1.247 . S
O63 Zn59 2.035 . S
O63 C68 1.258 . S
O64 C57 1.247 . S
O64 Zn61 2.028 . S
O65 C57 1.258 . S
O65 Zn59 2.035 . S
O66 Zn59 2.028 . S
O66 C69 1.247 . S
O67 Zn61 2.035 . S
O67 C69 1.258 . S
C68 O62 1.247 . S
C68 O63 1.258 . S
C69 O66 1.247 . S
C69 O67 1.258 . S
C70 O72 1.247 . S
C70 O74 1.258 . S
C71 O78 1.247 . S
C71 O79 1.258 . S
O72 C70 1.247 . S
O72 Zn73 2.028 . S
Zn73 O72 2.028 . S
Zn73 O77 2.035 . S
Zn73 O79 2.035 . S
Zn73 O80 2.028 . S
O74 C70 1.258 . S
O74 Zn75 2.035 . S
Zn75 O74 2.035 . S
Zn75 O76 2.028 . S
Zn75 O78 2.028 . S
Zn75 O81 2.035 . S
O76 Zn75 2.028 . S
O76 C82 1.247 . S
O77 Zn73 2.035 . S
O77 C82 1.258 . S
O78 C71 1.247 . S
O78 Zn75 2.028 . S
O79 C71 1.258 . S
O79 Zn73 2.035 . S
O80 Zn73 2.028 . S
O80 C83 1.247 . S
O81 Zn75 2.035 . S
O81 C83 1.258 . S
C82 O76 1.247 . S
C82 O77 1.258 . S
C83 O80 1.247 . S
C83 O81 1.258 . S
C84 O86 1.247 . S
C84 O88 1.258 . S
C85 O92 1.247 . S
C85 O93 1.258 . S
O86 C84 1.247 . S
O86 Zn87 2.028 . S
Zn87 O86 2.028 . S
Zn87 O91 2.035 . S
Zn87 O93 2.035 . S
Zn87 O94 2.028 . S
O88 C84 1.258 . S
O88 Zn89 2.035 . S
Zn89 O88 2.035 . S
Zn89 O90 2.028 . S
Zn89 O92 2.028 . S
Zn89 O95 2.035 . S
O90 Zn89 2.028 . S
O90 C96 1.247 . S
O91 Zn87 2.035 . S
O91 C96 1.258 . S
O92 C85 1.247 . S
O92 Zn89 2.028 . S
O93 C85 1.258 . S
O93 Zn87 2.035 . S
O94 Zn87 2.028 . S
O94 C97 1.247 . S
O95 Zn89 2.035 . S
O95 C97 1.258 . S
C96 O90 1.247 . S
C96 O91 1.258 . S
C97 O94 1.247 . S
C97 O95 1.258 . S
C98 O100 1.247 . S
C98 O102 1.258 . S
C99 O106 1.247 . S
C99 O107 1.258 . S
O100 C98 1.247 . S
O100 Zn101 2.028 . S
Zn101 O100 2.028 . S
Zn101 O105 2.035 . S
Zn101 O107 2.035 . S
Zn101 O108 2.028 . S
O102 C98 1.258 . S
O102 Zn103 2.035 . S
Zn103 O102 2.035 . S
Zn103 O104 2.028 . S
Zn103 O106 2.028 . S
Zn103 O109 2.035 . S
O104 Zn103 2.028 . S
O104 C110 1.247 . S
O105 Zn101 2.035 . S
O105 C110 1.258 . S
O106 C99 1.247 . S
O106 Zn103 2.028 . S
O107 C99 1.258 . S
O107 Zn101 2.035 . S
O108 Zn101 2.028 . S
O108 C111 1.247 . S
O109 Zn103 2.035 . S
O109 C111 1.258 . S
C110 O104 1.247 . S
C110 O105 1.258 . S
C111 O108 1.247 . S
C111 O109 1.258 . S
C112 O114 1.247 . S
C112 O116 1.258 . S
C113 O120 1.247 . S
C113 O121 1.258 . S
O114 C112 1.247 . S
O114 Zn115 2.028 . S
Zn115 O114 2.028 . S
Zn115 O119 2.035 . S
Zn115 O121 2.035 . S
Zn115 O122 2.028 . S
O116 C112 1.258 . S
O116 Zn117 2.035 . S
Zn117 O116 2.035 . S
Zn117 O118 2.028 . S
Zn117 O120 2.028 . S
Zn117 O123 2.035 . S
O118 Zn117 2.028 . S
O118 C124 1.247 . S
O119 Zn115 2.035 . S
O119 C124 1.258 . S
O120 C113 1.247 . S
O120 Zn117 2.028 . S
O121 C113 1.258 . S
O121 Zn115 2.035 . S
O122 Zn115 2.028 . S
O122 C125 1.247 . S
O123 Zn117 2.035 . S
O123 C125 1.258 . S
C124 O118 1.247 . S
C124 O119 1.258 . S
C125 O122 1.247 . S
C125 O123 1.258 . S
C126 O128 1.247 . S
C126 O130 1.258 . S
C127 O134 1.247 . S
C127 O135 1.258 . S
O128 C126 1.247 . S
O128 Zn129 2.028 . S
Zn129 O128 2.028 . S
Zn129 O133 2.035 . S
Zn129 O135 2.035 . S
Zn129 O136 2.028 . S
O130 C126 1.258 . S
O130 Zn131 2.035 . S
Zn131 O130 2.035 . S
Zn131 O132 2.028 . S
Zn131 O134 2.028 . S
Zn131 O137 2.035 . S
O132 Zn131 2.028 . S
O132 C138 1.247 . S
O133 Zn129 2.035 . S
O133 C138 1.258 . S
O134 C127 1.247 . S
O134 Zn131 2.028 . S
O135 C127 1.258 . S
O135 Zn129 2.035 . S
O136 Zn129 2.028 . S
O136 C139 1.247 . S
O137 Zn131 2.035 . S
O137 C139 1.258 . S
C138 O132 1.247 . S
C138 O133 1.258 . S
C139 O136 1.247 . S
C139 O137 1.258 . S
C140 O142 1.247 . S
C140 O144 1.258 . S
C141 O148 1.247 . S
C141 O149 1.258 . S
O142 C140 1.247 . S
O142 Zn143 2.028 . S
Zn143 O142 2.028 . S
Zn143 O147 2.035 . S
Zn143 O149 2.035 . S
Zn143 O150 2.028 . S
O144 C140 1.258 . S
O144 Zn145 2.035 . S
Zn145 O144 2.035 . S
Zn145 O146 2.028 . S
Zn145 O148 2.028 . S
Zn145 O151 2.035 . S
O146 Zn145 2.028 . S
O146 C152 1.247 . S
O147 Zn143 2.035 . S
O147 C152 1.258 . S
O148 C141 1.247 . S
O148 Zn145 2.028 . S
O149 C141 1.258 . S
O149 Zn143 2.035 . S
O150 Zn143 2.028 . S
O150 C153 1.247 . S
O151 Zn145 2.035 . S
O151 C153 1.258 . S
C152 O146 1.247 . S
C152 O147 1.258 . S
C153 O150 1.247 . S
C153 O151 1.258 . S
C154 O156 1.247 . S
C154 O158 1.258 . S
C155 O162 1.247 . S
C155 O163 1.258 . S
O156 C154 1.247 . S
O156 Zn157 2.028 . S
Zn157 O156 2.028 . S
Zn157 O161 2.035 . S
Zn157 O163 2.035 . S
Zn157 O164 2.028 . S
O158 C154 1.258 . S
O158 Zn159 2.035 . S
Zn159 O158 2.035 . S
Zn159 O160 2.028 . S
Zn159 O162 2.028 . S
Zn159 O165 2.035 . S
O160 Zn159 2.028 . S
O160 C166 1.247 . S
O161 Zn157 2.035 . S
O161 C166 1.258 . S
O162 C155 1.247 . S
O162 Zn159 2.028 . S
O163 C155 1.258 . S
O163 Zn157 2.035 . S
O164 Zn157 2.028 . S
O164 C167 1.247 . S
O165 Zn159 2.035 . S
O165 C167 1.258 . S
C166 O160 1.247 . S
C166 O161 1.258 . S
C167 O164 1.247 . S
C167 O165 1.258 . S
H168 C186 0.951 . S
H169 C188 0.951 . S
H170 C190 0.950 . S
H171 C191 0.950 . S
H172 C193 0.950 . S
H173 C196 0.950 . S
H174 C197 0.950 . S
H175 C199 0.950 . S
H176 C200 0.950 . S
H177 C201 0.951 . S
H178 C203 0.951 . S
H179 C205 0.950 . S
H180 C206 0.950 . S
H181 C208 0.950 . S
H182 C211 0.950 . S
H183 C212 0.950 . S
H184 C214 0.950 . S
H185 C215 0.950 . S
C186 H168 0.951 . S
C186 C187 1.366 . S
C186 C188 1.388 . S
C187 C186 1.366 . S
C187 C191 1.385 . S
C188 H169 0.951 . S
C188 C186 1.388 . S
C188 C189 1.366 . S
C189 C188 1.366 . S
C189 C190 1.414 . S
C189 C192 1.499 . S
C190 H170 0.950 . S
C190 C189 1.414 . S
C190 C191 1.374 . S
C191 H171 0.950 . S
C191 C187 1.385 . S
C191 C190 1.374 . S
C192 C189 1.499 . S
C192 C193 1.373 . S
C192 C194 1.389 . S
C193 H172 0.950 . S
C193 C192 1.373 . S
C193 C209 1.377 1_556 S
C194 C192 1.389 . S
C194 C195 1.524 . S
C194 C208 1.377 1_556 S
C195 C194 1.524 . S
C195 C196 1.397 . S
C195 C200 1.363 . S
C196 H173 0.950 . S
C196 C195 1.397 . S
C196 C197 1.334 . S
C197 H174 0.950 . S
C197 C196 1.334 . S
C197 C198 1.287 . S
C198 C197 1.287 . S
C198 C199 1.524 . S
C198 H217 0.913 . S
C199 H175 0.950 . S
C199 C198 1.524 . S
C199 C200 1.415 . S
C200 H176 0.950 . S
C200 C195 1.363 . S
C200 C199 1.415 . S
C201 H177 0.951 . S
C201 C202 1.366 . S
C201 C203 1.388 . S
C202 C201 1.366 . S
C202 C206 1.385 . S
C203 H178 0.951 . S
C203 C201 1.388 . S
C203 C204 1.366 . S
C204 C203 1.366 . S
C204 C205 1.414 . S
C204 C207 1.499 . S
C205 H179 0.950 . S
C205 C204 1.414 . S
C205 C206 1.374 . S
C206 H180 0.950 . S
C206 C202 1.385 . S
C206 C205 1.374 . S
C207 C204 1.499 . S
C207 C208 1.373 . S
C207 C209 1.389 . S
C208 H181 0.950 . S
C208 C194 1.377 1_554 S
C208 C207 1.373 . S
C209 C193 1.377 1_554 S
C209 C207 1.389 . S
C209 C210 1.524 . S
C210 C209 1.524 . S
C210 C211 1.397 . S
C210 C215 1.363 . S
C211 H182 0.950 . S
C211 C210 1.397 . S
C211 C212 1.334 . S
C212 H183 0.950 . S
C212 C211 1.334 . S
C212 C213 1.287 . S
C213 C212 1.287 . S
C213 C214 1.524 . S
C213 H216 0.999 . S
C214 H184 0.950 . S
C214 C213 1.524 . S
C214 C215 1.415 . S
C215 H185 0.950 . S
C215 C210 1.363 . S
C215 C214 1.415 . S
H216 C213 0.999 . S
H217 C198 0.913 . S
H218 C236 0.951 . S
H219 C238 0.951 . S
H220 C240 0.950 . S
H221 C241 0.950 . S
H222 C243 0.950 . S
H223 C246 0.950 . S
H224 C247 0.950 . S
H225 C249 0.950 . S
H226 C250 0.950 . S
H227 C251 0.951 . S
H228 C253 0.951 . S
H229 C255 0.950 . S
H230 C256 0.950 . S
H231 C258 0.950 . S
H232 C261 0.950 . S
H233 C262 0.950 . S
H234 C264 0.950 . S
H235 C265 0.950 . S
C236 H218 0.951 . S
C236 C237 1.366 . S
C236 C238 1.388 . S
C237 C236 1.366 . S
C237 C241 1.385 . S
C238 H219 0.951 . S
C238 C236 1.388 . S
C238 C239 1.366 . S
C239 C238 1.366 . S
C239 C240 1.414 . S
C239 C242 1.499 . S
C240 H220 0.950 . S
C240 C239 1.414 . S
C240 C241 1.374 . S
C241 H221 0.950 . S
C241 C237 1.385 . S
C241 C240 1.374 . S
C242 C239 1.499 . S
C242 C243 1.373 . S
C242 C244 1.389 . S
C243 H222 0.950 . S
C243 C242 1.373 . S
C243 C259 1.377 . S
C244 C242 1.389 . S
C244 C245 1.524 . S
C244 C258 1.377 . S
C245 C244 1.524 . S
C245 C246 1.397 . S
C245 C250 1.363 . S
C246 H223 0.950 . S
C246 C245 1.397 . S
C246 C247 1.334 . S
C247 H224 0.950 . S
C247 C246 1.334 . S
C247 C248 1.287 . S
C248 C247 1.287 . S
C248 C249 1.524 . S
C248 H267 0.913 . S
C249 H225 0.950 . S
C249 C248 1.524 . S
C249 C250 1.415 . S
C250 H226 0.950 . S
C250 C245 1.363 . S
C250 C249 1.415 . S
C251 H227 0.951 . S
C251 C252 1.366 . S
C251 C253 1.388 . S
C252 C251 1.366 . S
C252 C256 1.385 . S
C253 H228 0.951 . S
C253 C251 1.388 . S
C253 C254 1.366 . S
C254 C253 1.366 . S
C254 C255 1.414 . S
C254 C257 1.499 . S
C255 H229 0.950 . S
C255 C254 1.414 . S
C255 C256 1.374 . S
C256 H230 0.950 . S
C256 C252 1.385 . S
C256 C255 1.374 . S
C257 C254 1.499 . S
C257 C258 1.373 . S
C257 C259 1.389 . S
C258 H231 0.950 . S
C258 C244 1.377 . S
C258 C257 1.373 . S
C259 C243 1.377 . S
C259 C257 1.389 . S
C259 C260 1.524 . S
C260 C259 1.524 . S
C260 C261 1.397 . S
C260 C265 1.363 . S
C261 H232 0.950 . S
C261 C260 1.397 . S
C261 C262 1.334 . S
C262 H233 0.950 . S
C262 C261 1.334 . S
C262 C263 1.287 . S
C263 C262 1.287 . S
C263 C264 1.524 . S
C263 H266 0.999 . S
C264 H234 0.950 . S
C264 C263 1.524 . S
C264 C265 1.415 . S
C265 H235 0.950 . S
C265 C260 1.363 . S
C265 C264 1.415 . S
H266 C263 0.999 . S
H267 C248 0.913 . S
H268 C286 0.951 . S
H269 C288 0.951 . S
H270 C290 0.950 . S
H271 C291 0.950 . S
H272 C293 0.950 . S
H273 C296 0.950 . S
H274 C297 0.950 . S
H275 C299 0.950 . S
H276 C300 0.950 . S
H277 C301 0.951 . S
H278 C303 0.951 . S
H279 C305 0.950 . S
H280 C306 0.950 . S
H281 C308 0.950 . S
H282 C311 0.950 . S
H283 C312 0.950 . S
H284 C314 0.950 . S
H285 C315 0.950 . S
C286 H268 0.951 . S
C286 C287 1.366 . S
C286 C288 1.388 . S
C287 C286 1.366 . S
C287 C291 1.385 . S
C288 H269 0.951 . S
C288 C286 1.388 . S
C288 C289 1.366 . S
C289 C288 1.366 . S
C289 C290 1.414 . S
C289 C292 1.499 . S
C290 H270 0.950 . S
C290 C289 1.414 . S
C290 C291 1.374 . S
C291 H271 0.950 . S
C291 C287 1.385 . S
C291 C290 1.374 . S
C292 C289 1.499 . S
C292 C293 1.373 . S
C292 C294 1.389 . S
C293 H272 0.950 . S
C293 C292 1.373 . S
C293 C309 1.377 . S
C294 C292 1.389 . S
C294 C295 1.524 . S
C294 C308 1.377 . S
C295 C294 1.524 . S
C295 C296 1.397 . S
C295 C300 1.363 . S
C296 H273 0.950 . S
C296 C295 1.397 . S
C296 C297 1.334 . S
C297 H274 0.950 . S
C297 C296 1.334 . S
C297 C298 1.287 . S
C298 C297 1.287 . S
C298 C299 1.524 . S
C298 H317 0.913 . S
C299 H275 0.950 . S
C299 C298 1.524 . S
C299 C300 1.415 . S
C300 H276 0.950 . S
C300 C295 1.363 . S
C300 C299 1.415 . S
C301 H277 0.951 . S
C301 C302 1.366 . S
C301 C303 1.388 . S
C302 C301 1.366 . S
C302 C306 1.385 . S
C303 H278 0.951 . S
C303 C301 1.388 . S
C303 C304 1.366 . S
C304 C303 1.366 . S
C304 C305 1.414 . S
C304 C307 1.499 . S
C305 H279 0.950 . S
C305 C304 1.414 . S
C305 C306 1.374 . S
C306 H280 0.950 . S
C306 C302 1.385 . S
C306 C305 1.374 . S
C307 C304 1.499 . S
C307 C308 1.373 . S
C307 C309 1.389 . S
C308 H281 0.950 . S
C308 C294 1.377 . S
C308 C307 1.373 . S
C309 C293 1.377 . S
C309 C307 1.389 . S
C309 C310 1.524 . S
C310 C309 1.524 . S
C310 C311 1.397 . S
C310 C315 1.363 . S
C311 H282 0.950 . S
C311 C310 1.397 . S
C311 C312 1.334 . S
C312 H283 0.950 . S
C312 C311 1.334 . S
C312 C313 1.287 . S
C313 C312 1.287 . S
C313 C314 1.524 . S
C313 H316 0.999 . S
C314 H284 0.950 . S
C314 C313 1.524 . S
C314 C315 1.415 . S
C315 H285 0.950 . S
C315 C310 1.363 . S
C315 C314 1.415 . S
H316 C313 0.999 . S
H317 C298 0.913 . S
H318 C336 0.951 . S
H319 C338 0.951 . S
H320 C340 0.950 . S
H321 C341 0.950 . S
H322 C343 0.950 . S
H323 C346 0.950 . S
H324 C347 0.950 . S
H325 C349 0.950 . S
H326 C350 0.950 . S
H327 C351 0.951 . S
H328 C353 0.951 . S
H329 C355 0.950 . S
H330 C356 0.950 . S
H331 C358 0.950 . S
H332 C361 0.950 . S
H333 C362 0.950 . S
H334 C364 0.950 . S
H335 C365 0.950 . S
C336 H318 0.951 . S
C336 C337 1.366 . S
C336 C338 1.388 . S
C337 C336 1.366 . S
C337 C341 1.385 . S
C338 H319 0.951 . S
C338 C336 1.388 . S
C338 C339 1.366 . S
C339 C338 1.366 . S
C339 C340 1.414 . S
C339 C342 1.499 . S
C340 H320 0.950 . S
C340 C339 1.414 . S
C340 C341 1.374 . S
C341 H321 0.950 . S
C341 C337 1.385 . S
C341 C340 1.374 . S
C342 C339 1.499 . S
C342 C343 1.373 . S
C342 C344 1.389 . S
C343 H322 0.950 . S
C343 C342 1.373 . S
C343 C359 1.377 1_554 S
C344 C342 1.389 . S
C344 C345 1.524 . S
C344 C358 1.377 1_554 S
C345 C344 1.524 . S
C345 C346 1.397 . S
C345 C350 1.363 . S
C346 H323 0.950 . S
C346 C345 1.397 . S
C346 C347 1.334 . S
C347 H324 0.950 . S
C347 C346 1.334 . S
C347 C348 1.287 . S
C348 C347 1.287 . S
C348 C349 1.524 . S
C348 H367 0.913 . S
C349 H325 0.950 . S
C349 C348 1.524 . S
C349 C350 1.415 . S
C350 H326 0.950 . S
C350 C345 1.363 . S
C350 C349 1.415 . S
C351 H327 0.951 . S
C351 C352 1.366 . S
C351 C353 1.388 . S
C352 C351 1.366 . S
C352 C356 1.385 . S
C353 H328 0.951 . S
C353 C351 1.388 . S
C353 C354 1.366 . S
C354 C353 1.366 . S
C354 C355 1.414 . S
C354 C357 1.499 . S
C355 H329 0.950 . S
C355 C354 1.414 . S
C355 C356 1.374 . S
C356 H330 0.950 . S
C356 C352 1.385 . S
C356 C355 1.374 . S
C357 C354 1.499 . S
C357 C358 1.373 . S
C357 C359 1.389 . S
C358 H331 0.950 . S
C358 C344 1.377 1_556 S
C358 C357 1.373 . S
C359 C343 1.377 1_556 S
C359 C357 1.389 . S
C359 C360 1.524 . S
C360 C359 1.524 . S
C360 C361 1.397 . S
C360 C365 1.363 . S
C361 H332 0.950 . S
C361 C360 1.397 . S
C361 C362 1.334 . S
C362 H333 0.950 . S
C362 C361 1.334 . S
C362 C363 1.287 . S
C363 C362 1.287 . S
C363 C364 1.524 . S
C363 H366 0.999 . S
C364 H334 0.950 . S
C364 C363 1.524 . S
C364 C365 1.415 . S
C365 H335 0.950 . S
C365 C360 1.363 . S
C365 C364 1.415 . S
H366 C363 0.999 . S
H367 C348 0.913 . S
H368 C386 0.951 . S
H369 C388 0.951 . S
H370 C390 0.950 . S
H371 C391 0.950 . S
H372 C393 0.950 . S
H373 C396 0.950 . S
H374 C397 0.950 . S
H375 C399 0.950 . S
H376 C400 0.950 . S
H377 C401 0.951 . S
H378 C403 0.951 . S
H379 C405 0.950 . S
H380 C406 0.950 . S
H381 C408 0.950 . S
H382 C411 0.950 . S
H383 C412 0.950 . S
H384 C414 0.950 . S
H385 C415 0.950 . S
C386 H368 0.951 . S
C386 C387 1.366 . S
C386 C388 1.388 . S
C387 C386 1.366 . S
C387 C391 1.385 . S
C388 H369 0.951 . S
C388 C386 1.388 . S
C388 C389 1.366 . S
C389 C388 1.366 . S
C389 C390 1.414 . S
C389 C392 1.499 . S
C390 H370 0.950 . S
C390 C389 1.414 . S
C390 C391 1.374 . S
C391 H371 0.950 . S
C391 C387 1.385 . S
C391 C390 1.374 . S
C392 C389 1.499 . S
C392 C393 1.373 . S
C392 C394 1.389 . S
C393 H372 0.950 . S
C393 C392 1.373 . S
C393 C409 1.377 . S
C394 C392 1.389 . S
C394 C395 1.524 . S
C394 C408 1.377 . S
C395 C394 1.524 . S
C395 C396 1.397 . S
C395 C400 1.363 . S
C396 H373 0.950 . S
C396 C395 1.397 . S
C396 C397 1.334 . S
C397 H374 0.950 . S
C397 C396 1.334 . S
C397 C398 1.287 . S
C398 C397 1.287 . S
C398 C399 1.524 . S
C398 H417 0.913 . S
C399 H375 0.950 . S
C399 C398 1.524 . S
C399 C400 1.415 . S
C400 H376 0.950 . S
C400 C395 1.363 . S
C400 C399 1.415 . S
C401 H377 0.951 . S
C401 C402 1.366 . S
C401 C403 1.388 . S
C402 C401 1.366 . S
C402 C406 1.385 . S
C403 H378 0.951 . S
C403 C401 1.388 . S
C403 C404 1.366 . S
C404 C403 1.366 . S
C404 C405 1.414 . S
C404 C407 1.499 . S
C405 H379 0.950 . S
C405 C404 1.414 . S
C405 C406 1.374 . S
C406 H380 0.950 . S
C406 C402 1.385 . S
C406 C405 1.374 . S
C407 C404 1.499 . S
C407 C408 1.373 . S
C407 C409 1.389 . S
C408 H381 0.950 . S
C408 C394 1.377 . S
C408 C407 1.373 . S
C409 C393 1.377 . S
C409 C407 1.389 . S
C409 C410 1.524 . S
C410 C409 1.524 . S
C410 C411 1.397 . S
C410 C415 1.363 . S
C411 H382 0.950 . S
C411 C410 1.397 . S
C411 C412 1.334 . S
C412 H383 0.950 . S
C412 C411 1.334 . S
C412 C413 1.287 . S
C413 C412 1.287 . S
C413 C414 1.524 . S
C413 H416 0.999 . S
C414 H384 0.950 . S
C414 C413 1.524 . S
C414 C415 1.415 . S
C415 H385 0.950 . S
C415 C410 1.363 . S
C415 C414 1.415 . S
H416 C413 0.999 . S
H417 C398 0.913 . S
H418 C436 0.951 . S
H419 C438 0.951 . S
H420 C440 0.950 . S
H421 C441 0.950 . S
H422 C443 0.950 . S
H423 C446 0.950 . S
H424 C447 0.950 . S
H425 C449 0.950 . S
H426 C450 0.950 . S
H427 C451 0.951 . S
H428 C453 0.951 . S
H429 C455 0.950 . S
H430 C456 0.950 . S
H431 C458 0.950 . S
H432 C461 0.950 . S
H433 C462 0.950 . S
H434 C464 0.950 . S
H435 C465 0.950 . S
C436 H418 0.951 . S
C436 C437 1.366 . S
C436 C438 1.388 . S
C437 C436 1.366 . S
C437 C441 1.385 . S
C438 H419 0.951 . S
C438 C436 1.388 . S
C438 C439 1.366 . S
C439 C438 1.366 . S
C439 C440 1.414 . S
C439 C442 1.499 . S
C440 H420 0.950 . S
C440 C439 1.414 . S
C440 C441 1.374 . S
C441 H421 0.950 . S
C441 C437 1.385 . S
C441 C440 1.374 . S
C442 C439 1.499 . S
C442 C443 1.373 . S
C442 C444 1.389 . S
C443 H422 0.950 . S
C443 C442 1.373 . S
C443 C459 1.377 . S
C444 C442 1.389 . S
C444 C445 1.524 . S
C444 C458 1.377 . S
C445 C444 1.524 . S
C445 C446 1.397 . S
C445 C450 1.363 . S
C446 H423 0.950 . S
C446 C445 1.397 . S
C446 C447 1.334 . S
C447 H424 0.950 . S
C447 C446 1.334 . S
C447 C448 1.287 . S
C448 C447 1.287 . S
C448 C449 1.524 . S
C448 H467 0.913 . S
C449 H425 0.950 . S
C449 C448 1.524 . S
C449 C450 1.415 . S
C450 H426 0.950 . S
C450 C445 1.363 . S
C450 C449 1.415 . S
C451 H427 0.951 . S
C451 C452 1.366 . S
C451 C453 1.388 . S
C452 C451 1.366 . S
C452 C456 1.385 . S
C453 H428 0.951 . S
C453 C451 1.388 . S
C453 C454 1.366 . S
C454 C453 1.366 . S
C454 C455 1.414 . S
C454 C457 1.499 . S
C455 H429 0.950 . S
C455 C454 1.414 . S
C455 C456 1.374 . S
C456 H430 0.950 . S
C456 C452 1.385 . S
C456 C455 1.374 . S
C457 C454 1.499 . S
C457 C458 1.373 . S
C457 C459 1.389 . S
C458 H431 0.950 . S
C458 C444 1.377 . S
C458 C457 1.373 . S
C459 C443 1.377 . S
C459 C457 1.389 . S
C459 C460 1.524 . S
C460 C459 1.524 . S
C460 C461 1.397 . S
C460 C465 1.363 . S
C461 H432 0.950 . S
C461 C460 1.397 . S
C461 C462 1.334 . S
C462 H433 0.950 . S
C462 C461 1.334 . S
C462 C463 1.287 . S
C463 C462 1.287 . S
C463 C464 1.524 . S
C463 H466 0.999 . S
C464 H434 0.950 . S
C464 C463 1.524 . S
C464 C465 1.415 . S
C465 H435 0.950 . S
C465 C460 1.363 . S
C465 C464 1.415 . S
H466 C463 0.999 . S
H467 C448 0.913 . S
H468 C486 0.951 . S
H469 C488 0.951 . S
H470 C490 0.950 . S
H471 C491 0.950 . S
H472 C493 0.950 . S
H473 C496 0.950 . S
H474 C497 0.950 . S
H475 C499 0.950 . S
H476 C500 0.950 . S
H477 C501 0.951 . S
H478 C503 0.951 . S
H479 C505 0.950 . S
H480 C506 0.950 . S
H481 C508 0.950 . S
H482 C511 0.950 . S
H483 C512 0.950 . S
H484 C514 0.950 . S
H485 C515 0.950 . S
C486 H468 0.951 . S
C486 C487 1.366 . S
C486 C488 1.388 . S
C487 C486 1.366 . S
C487 C491 1.385 . S
C488 H469 0.951 . S
C488 C486 1.388 . S
C488 C489 1.366 . S
C489 C488 1.366 . S
C489 C490 1.414 . S
C489 C492 1.499 . S
C490 H470 0.950 . S
C490 C489 1.414 . S
C490 C491 1.374 . S
C491 H471 0.950 . S
C491 C487 1.385 . S
C491 C490 1.374 . S
C492 C489 1.499 . S
C492 C493 1.373 . S
C492 C494 1.389 . S
C493 H472 0.950 . S
C493 C492 1.373 . S
C493 C509 1.377 . S
C494 C492 1.389 . S
C494 C495 1.524 . S
C494 C508 1.377 . S
C495 C494 1.524 . S
C495 C496 1.397 . S
C495 C500 1.363 . S
C496 H473 0.950 . S
C496 C495 1.397 . S
C496 C497 1.334 . S
C497 H474 0.950 . S
C497 C496 1.334 . S
C497 C498 1.287 . S
C498 C497 1.287 . S
C498 C499 1.524 . S
C498 H517 0.913 . S
C499 H475 0.950 . S
C499 C498 1.524 . S
C499 C500 1.415 . S
C500 H476 0.950 . S
C500 C495 1.363 . S
C500 C499 1.415 . S
C501 H477 0.951 . S
C501 C502 1.366 . S
C501 C503 1.388 . S
C502 C501 1.366 . S
C502 C506 1.385 . S
C503 H478 0.951 . S
C503 C501 1.388 . S
C503 C504 1.366 . S
C504 C503 1.366 . S
C504 C505 1.414 . S
C504 C507 1.499 . S
C505 H479 0.950 . S
C505 C504 1.414 . S
C505 C506 1.374 . S
C506 H480 0.950 . S
C506 C502 1.385 . S
C506 C505 1.374 . S
C507 C504 1.499 . S
C507 C508 1.373 . S
C507 C509 1.389 . S
C508 H481 0.950 . S
C508 C494 1.377 . S
C508 C507 1.373 . S
C509 C493 1.377 . S
C509 C507 1.389 . S
C509 C510 1.524 . S
C510 C509 1.524 . S
C510 C511 1.397 . S
C510 C515 1.363 . S
C511 H482 0.950 . S
C511 C510 1.397 . S
C511 C512 1.334 . S
C512 H483 0.950 . S
C512 C511 1.334 . S
C512 C513 1.287 . S
C513 C512 1.287 . S
C513 C514 1.524 . S
C513 H516 0.999 . S
C514 H484 0.950 . S
C514 C513 1.524 . S
C514 C515 1.415 . S
C515 H485 0.950 . S
C515 C510 1.363 . S
C515 C514 1.415 . S
H516 C513 0.999 . S
H517 C498 0.913 . S
H518 C536 0.951 . S
H519 C538 0.951 . S
H520 C540 0.950 . S
H521 C541 0.950 . S
H522 C543 0.950 . S
H523 C546 0.950 . S
H524 C547 0.950 . S
H525 C549 0.950 . S
H526 C550 0.950 . S
H527 C551 0.951 . S
H528 C553 0.951 . S
H529 C555 0.950 . S
H530 C556 0.950 . S
H531 C558 0.950 . S
H532 C561 0.950 . S
H533 C562 0.950 . S
H534 C564 0.950 . S
H535 C565 0.950 . S
C536 H518 0.951 . S
C536 C537 1.366 . S
C536 C538 1.388 . S
C537 C536 1.366 . S
C537 C541 1.385 . S
C538 H519 0.951 . S
C538 C536 1.388 . S
C538 C539 1.366 . S
C539 C538 1.366 . S
C539 C540 1.414 . S
C539 C542 1.499 . S
C540 H520 0.950 . S
C540 C539 1.414 . S
C540 C541 1.374 . S
C541 H521 0.950 . S
C541 C537 1.385 . S
C541 C540 1.374 . S
C542 C539 1.499 . S
C542 C543 1.373 . S
C542 C544 1.389 . S
C543 H522 0.950 . S
C543 C542 1.373 . S
C543 C559 1.377 . S
C544 C542 1.389 . S
C544 C545 1.524 . S
C544 C558 1.377 . S
C545 C544 1.524 . S
C545 C546 1.397 . S
C545 C550 1.363 . S
C546 H523 0.950 . S
C546 C545 1.397 . S
C546 C547 1.334 . S
C547 H524 0.950 . S
C547 C546 1.334 . S
C547 C548 1.287 . S
C548 C547 1.287 . S
C548 C549 1.524 . S
C548 H567 0.913 . S
C549 H525 0.950 . S
C549 C548 1.524 . S
C549 C550 1.415 . S
C550 H526 0.950 . S
C550 C545 1.363 . S
C550 C549 1.415 . S
C551 H527 0.951 . S
C551 C552 1.366 . S
C551 C553 1.388 . S
C552 C551 1.366 . S
C552 C556 1.385 . S
C553 H528 0.951 . S
C553 C551 1.388 . S
C553 C554 1.366 . S
C554 C553 1.366 . S
C554 C555 1.414 . S
C554 C557 1.499 . S
C555 H529 0.950 . S
C555 C554 1.414 . S
C555 C556 1.374 . S
C556 H530 0.950 . S
C556 C552 1.385 . S
C556 C555 1.374 . S
C557 C554 1.499 . S
C557 C558 1.373 . S
C557 C559 1.389 . S
C558 H531 0.950 . S
C558 C544 1.377 . S
C558 C557 1.373 . S
C559 C543 1.377 . S
C559 C557 1.389 . S
C559 C560 1.524 . S
C560 C559 1.524 . S
C560 C561 1.397 . S
C560 C565 1.363 . S
C561 H532 0.950 . S
C561 C560 1.397 . S
C561 C562 1.334 . S
C562 H533 0.950 . S
C562 C561 1.334 . S
C562 C563 1.287 . S
C563 C562 1.287 . S
C563 C564 1.524 . S
C563 H566 0.999 . S
C564 H534 0.950 . S
C564 C563 1.524 . S
C564 C565 1.415 . S
C565 H535 0.950 . S
C565 C560 1.363 . S
C565 C564 1.415 . S
H566 C563 0.999 . S
H567 C548 0.913 . S
H568 C586 0.951 . S
H569 C588 0.951 . S
H570 C590 0.950 . S
H571 C591 0.950 . S
H572 C593 0.950 . S
H573 C596 0.950 . S
H574 C597 0.950 . S
H575 C599 0.950 . S
H576 C600 0.950 . S
H577 C601 0.951 . S
H578 C603 0.951 . S
H579 C605 0.950 . S
H580 C606 0.950 . S
H581 C608 0.950 . S
H582 C611 0.950 . S
H583 C612 0.950 . S
H584 C614 0.950 . S
H585 C615 0.950 . S
C586 H568 0.951 . S
C586 C587 1.366 . S
C586 C588 1.388 . S
C587 C586 1.366 . S
C587 C591 1.385 . S
C588 H569 0.951 . S
C588 C586 1.388 . S
C588 C589 1.366 . S
C589 C588 1.366 . S
C589 C590 1.414 . S
C589 C592 1.499 . S
C590 H570 0.950 . S
C590 C589 1.414 . S
C590 C591 1.374 . S
C591 H571 0.950 . S
C591 C587 1.385 . S
C591 C590 1.374 . S
C592 C589 1.499 . S
C592 C593 1.373 . S
C592 C594 1.389 . S
C593 H572 0.950 . S
C593 C592 1.373 . S
C593 C609 1.377 . S
C594 C592 1.389 . S
C594 C595 1.524 . S
C594 C608 1.377 . S
C595 C594 1.524 . S
C595 C596 1.397 . S
C595 C600 1.363 . S
C596 H573 0.950 . S
C596 C595 1.397 . S
C596 C597 1.334 . S
C597 H574 0.950 . S
C597 C596 1.334 . S
C597 C598 1.287 . S
C598 C597 1.287 . S
C598 C599 1.524 . S
C598 H617 0.913 . S
C599 H575 0.950 . S
C599 C598 1.524 . S
C599 C600 1.415 . S
C600 H576 0.950 . S
C600 C595 1.363 . S
C600 C599 1.415 . S
C601 H577 0.951 . S
C601 C602 1.366 . S
C601 C603 1.388 . S
C602 C601 1.366 . S
C602 C606 1.385 . S
C603 H578 0.951 . S
C603 C601 1.388 . S
C603 C604 1.366 . S
C604 C603 1.366 . S
C604 C605 1.414 . S
C604 C607 1.499 . S
C605 H579 0.950 . S
C605 C604 1.414 . S
C605 C606 1.374 . S
C606 H580 0.950 . S
C606 C602 1.385 . S
C606 C605 1.374 . S
C607 C604 1.499 . S
C607 C608 1.373 . S
C607 C609 1.389 . S
C608 H581 0.950 . S
C608 C594 1.377 . S
C608 C607 1.373 . S
C609 C593 1.377 . S
C609 C607 1.389 . S
C609 C610 1.524 . S
C610 C609 1.524 . S
C610 C611 1.397 . S
C610 C615 1.363 . S
C611 H582 0.950 . S
C611 C610 1.397 . S
C611 C612 1.334 . S
C612 H583 0.950 . S
C612 C611 1.334 . S
C612 C613 1.287 . S
C613 C612 1.287 . S
C613 C614 1.524 . S
C613 H616 0.999 . S
C614 H584 0.950 . S
C614 C613 1.524 . S
C614 C615 1.415 . S
C615 H585 0.950 . S
C615 C610 1.363 . S
C615 C614 1.415 . S
H616 C613 0.999 . S
H617 C598 0.913 . S
H618 C636 0.951 . S
H619 C638 0.951 . S
H620 C640 0.950 . S
H621 C641 0.950 . S
H622 C643 0.950 . S
H623 C646 0.950 . S
H624 C647 0.950 . S
H625 C649 0.950 . S
H626 C650 0.950 . S
H627 C651 0.951 . S
H628 C653 0.951 . S
H629 C655 0.950 . S
H630 C656 0.950 . S
H631 C658 0.950 . S
H632 C661 0.950 . S
H633 C662 0.950 . S
H634 C664 0.950 . S
H635 C665 0.950 . S
C636 H618 0.951 . S
C636 C637 1.366 . S
C636 C638 1.388 . S
C637 C636 1.366 . S
C637 C641 1.385 . S
C638 H619 0.951 . S
C638 C636 1.388 . S
C638 C639 1.366 . S
C639 C638 1.366 . S
C639 C640 1.414 . S
C639 C642 1.499 . S
C640 H620 0.950 . S
C640 C639 1.414 . S
C640 C641 1.374 . S
C641 H621 0.950 . S
C641 C637 1.385 . S
C641 C640 1.374 . S
C642 C639 1.499 . S
C642 C643 1.373 . S
C642 C644 1.389 . S
C643 H622 0.950 . S
C643 C642 1.373 . S
C643 C659 1.377 . S
C644 C642 1.389 . S
C644 C645 1.524 . S
C644 C658 1.377 . S
C645 C644 1.524 . S
C645 C646 1.397 . S
C645 C650 1.363 . S
C646 H623 0.950 . S
C646 C645 1.397 . S
C646 C647 1.334 . S
C647 H624 0.950 . S
C647 C646 1.334 . S
C647 C648 1.287 . S
C648 C647 1.287 . S
C648 C649 1.524 . S
C648 H667 0.913 . S
C649 H625 0.950 . S
C649 C648 1.524 . S
C649 C650 1.415 . S
C650 H626 0.950 . S
C650 C645 1.363 . S
C650 C649 1.415 . S
C651 H627 0.951 . S
C651 C652 1.366 . S
C651 C653 1.388 . S
C652 C651 1.366 . S
C652 C656 1.385 . S
C653 H628 0.951 . S
C653 C651 1.388 . S
C653 C654 1.366 . S
C654 C653 1.366 . S
C654 C655 1.414 . S
C654 C657 1.499 . S
C655 H629 0.950 . S
C655 C654 1.414 . S
C655 C656 1.374 . S
C656 H630 0.950 . S
C656 C652 1.385 . S
C656 C655 1.374 . S
C657 C654 1.499 . S
C657 C658 1.373 . S
C657 C659 1.389 . S
C658 H631 0.950 . S
C658 C644 1.377 . S
C658 C657 1.373 . S
C659 C643 1.377 . S
C659 C657 1.389 . S
C659 C660 1.524 . S
C660 C659 1.524 . S
C660 C661 1.397 . S
C660 C665 1.363 . S
C661 H632 0.950 . S
C661 C660 1.397 . S
C661 C662 1.334 . S
C662 H633 0.950 . S
C662 C661 1.334 . S
C662 C663 1.287 . S
C663 C662 1.287 . S
C663 C664 1.524 . S
C663 H666 0.999 . S
C664 H634 0.950 . S
C664 C663 1.524 . S
C664 C665 1.415 . S
C665 H635 0.950 . S
C665 C660 1.363 . S
C665 C664 1.415 . S
H666 C663 0.999 . S
H667 C648 0.913 . S
H668 C686 0.951 . S
H669 C688 0.951 . S
H670 C690 0.950 . S
H671 C691 0.950 . S
H672 C693 0.950 . S
H673 C696 0.950 . S
H674 C697 0.950 . S
H675 C699 0.950 . S
H676 C700 0.950 . S
H677 C701 0.951 . S
H678 C703 0.951 . S
H679 C705 0.950 . S
H680 C706 0.950 . S
H681 C708 0.950 . S
H682 C711 0.950 . S
H683 C712 0.950 . S
H684 C714 0.950 . S
H685 C715 0.950 . S
C686 H668 0.951 . S
C686 C687 1.366 . S
C686 C688 1.388 . S
C687 C686 1.366 . S
C687 C691 1.385 . S
C688 H669 0.951 . S
C688 C686 1.388 . S
C688 C689 1.366 . S
C689 C688 1.366 . S
C689 C690 1.414 . S
C689 C692 1.499 . S
C690 H670 0.950 . S
C690 C689 1.414 . S
C690 C691 1.374 . S
C691 H671 0.950 . S
C691 C687 1.385 . S
C691 C690 1.374 . S
C692 C689 1.499 . S
C692 C693 1.373 . S
C692 C694 1.389 . S
C693 H672 0.950 . S
C693 C692 1.373 . S
C693 C709 1.377 . S
C694 C692 1.389 . S
C694 C695 1.524 . S
C694 C708 1.377 . S
C695 C694 1.524 . S
C695 C696 1.397 . S
C695 C700 1.363 . S
C696 H673 0.950 . S
C696 C695 1.397 . S
C696 C697 1.334 . S
C697 H674 0.950 . S
C697 C696 1.334 . S
C697 C698 1.287 . S
C698 C697 1.287 . S
C698 C699 1.524 . S
C698 H717 0.913 . S
C699 H675 0.950 . S
C699 C698 1.524 . S
C699 C700 1.415 . S
C700 H676 0.950 . S
C700 C695 1.363 . S
C700 C699 1.415 . S
C701 H677 0.951 . S
C701 C702 1.366 . S
C701 C703 1.388 . S
C702 C701 1.366 . S
C702 C706 1.385 . S
C703 H678 0.951 . S
C703 C701 1.388 . S
C703 C704 1.366 . S
C704 C703 1.366 . S
C704 C705 1.414 . S
C704 C707 1.499 . S
C705 H679 0.950 . S
C705 C704 1.414 . S
C705 C706 1.374 . S
C706 H680 0.950 . S
C706 C702 1.385 . S
C706 C705 1.374 . S
C707 C704 1.499 . S
C707 C708 1.373 . S
C707 C709 1.389 . S
C708 H681 0.950 . S
C708 C694 1.377 . S
C708 C707 1.373 . S
C709 C693 1.377 . S
C709 C707 1.389 . S
C709 C710 1.524 . S
C710 C709 1.524 . S
C710 C711 1.397 . S
C710 C715 1.363 . S
C711 H682 0.950 . S
C711 C710 1.397 . S
C711 C712 1.334 . S
C712 H683 0.950 . S
C712 C711 1.334 . S
C712 C713 1.287 . S
C713 C712 1.287 . S
C713 C714 1.524 . S
C713 H716 0.999 . S
C714 H684 0.950 . S
C714 C713 1.524 . S
C714 C715 1.415 . S
C715 H685 0.950 . S
C715 C710 1.363 . S
C715 C714 1.415 . S
H716 C713 0.999 . S
H717 C698 0.913 . S
H718 C736 0.951 . S
H719 C738 0.951 . S
H720 C740 0.950 . S
H721 C741 0.950 . S
H722 C743 0.950 . S
H723 C746 0.950 . S
H724 C747 0.950 . S
H725 C749 0.950 . S
H726 C750 0.950 . S
H727 C751 0.951 . S
H728 C753 0.951 . S
H729 C755 0.950 . S
H730 C756 0.950 . S
H731 C758 0.950 . S
H732 C761 0.950 . S
H733 C762 0.950 . S
H734 C764 0.950 . S
H735 C765 0.950 . S
C736 H718 0.951 . S
C736 C737 1.366 . S
C736 C738 1.388 . S
C737 C736 1.366 . S
C737 C741 1.385 . S
C738 H719 0.951 . S
C738 C736 1.388 . S
C738 C739 1.366 . S
C739 C738 1.366 . S
C739 C740 1.414 . S
C739 C742 1.499 . S
C740 H720 0.950 . S
C740 C739 1.414 . S
C740 C741 1.374 . S
C741 H721 0.950 . S
C741 C737 1.385 . S
C741 C740 1.374 . S
C742 C739 1.499 . S
C742 C743 1.373 . S
C742 C744 1.389 . S
C743 H722 0.950 . S
C743 C742 1.373 . S
C743 C759 1.377 . S
C744 C742 1.389 . S
C744 C745 1.524 . S
C744 C758 1.377 . S
C745 C744 1.524 . S
C745 C746 1.397 . S
C745 C750 1.363 . S
C746 H723 0.950 . S
C746 C745 1.397 . S
C746 C747 1.334 . S
C747 H724 0.950 . S
C747 C746 1.334 . S
C747 C748 1.287 . S
C748 C747 1.287 . S
C748 C749 1.524 . S
C748 H767 0.913 . S
C749 H725 0.950 . S
C749 C748 1.524 . S
C749 C750 1.415 . S
C750 H726 0.950 . S
C750 C745 1.363 . S
C750 C749 1.415 . S
C751 H727 0.951 . S
C751 C752 1.366 . S
C751 C753 1.388 . S
C752 C751 1.366 . S
C752 C756 1.385 . S
C753 H728 0.951 . S
C753 C751 1.388 . S
C753 C754 1.366 . S
C754 C753 1.366 . S
C754 C755 1.414 . S
C754 C757 1.499 . S
C755 H729 0.950 . S
C755 C754 1.414 . S
C755 C756 1.374 . S
C756 H730 0.950 . S
C756 C752 1.385 . S
C756 C755 1.374 . S
C757 C754 1.499 . S
C757 C758 1.373 . S
C757 C759 1.389 . S
C758 H731 0.950 . S
C758 C744 1.377 . S
C758 C757 1.373 . S
C759 C743 1.377 . S
C759 C757 1.389 . S
C759 C760 1.524 . S
C760 C759 1.524 . S
C760 C761 1.397 . S
C760 C765 1.363 . S
C761 H732 0.950 . S
C761 C760 1.397 . S
C761 C762 1.334 . S
C762 H733 0.950 . S
C762 C761 1.334 . S
C762 C763 1.287 . S
C763 C762 1.287 . S
C763 C764 1.524 . S
C763 H766 0.999 . S
C764 H734 0.950 . S
C764 C763 1.524 . S
C764 C765 1.415 . S
C765 H735 0.950 . S
C765 C760 1.363 . S
C765 C764 1.415 . S
H766 C763 0.999 . S
H767 C748 0.913 . S
H768 C786 0.951 . S
H769 C788 0.951 . S
H770 C790 0.950 . S
H771 C791 0.950 . S
H772 C793 0.950 . S
H773 C796 0.950 . S
H774 C797 0.950 . S
H775 C799 0.950 . S
H776 C800 0.950 . S
H777 C801 0.951 . S
H778 C803 0.951 . S
H779 C805 0.950 . S
H780 C806 0.950 . S
H781 C808 0.950 . S
H782 C811 0.950 . S
H783 C812 0.950 . S
H784 C814 0.950 . S
H785 C815 0.950 . S
C786 H768 0.951 . S
C786 C787 1.366 . S
C786 C788 1.388 . S
C787 C786 1.366 . S
C787 C791 1.385 . S
C788 H769 0.951 . S
C788 C786 1.388 . S
C788 C789 1.366 . S
C789 C788 1.366 . S
C789 C790 1.414 . S
C789 C792 1.499 . S
C790 H770 0.950 . S
C790 C789 1.414 . S
C790 C791 1.374 . S
C791 H771 0.950 . S
C791 C787 1.385 . S
C791 C790 1.374 . S
C792 C789 1.499 . S
C792 C793 1.373 . S
C792 C794 1.389 . S
C793 H772 0.950 . S
C793 C792 1.373 . S
C793 C809 1.377 1_655 S
C794 C792 1.389 . S
C794 C795 1.524 . S
C794 C808 1.377 1_655 S
C795 C794 1.524 . S
C795 C796 1.397 . S
C795 C800 1.363 . S
C796 H773 0.950 . S
C796 C795 1.397 . S
C796 C797 1.334 . S
C797 H774 0.950 . S
C797 C796 1.334 . S
C797 C798 1.287 . S
C798 C797 1.287 . S
C798 C799 1.524 . S
C798 H817 0.913 . S
C799 H775 0.950 . S
C799 C798 1.524 . S
C799 C800 1.415 . S
C800 H776 0.950 . S
C800 C795 1.363 . S
C800 C799 1.415 . S
C801 H777 0.951 . S
C801 C802 1.366 . S
C801 C803 1.388 . S
C802 C801 1.366 . S
C802 C806 1.385 . S
C803 H778 0.951 . S
C803 C801 1.388 . S
C803 C804 1.366 . S
C804 C803 1.366 . S
C804 C805 1.414 . S
C804 C807 1.499 . S
C805 H779 0.950 . S
C805 C804 1.414 . S
C805 C806 1.374 . S
C806 H780 0.950 . S
C806 C802 1.385 . S
C806 C805 1.374 . S
C807 C804 1.499 . S
C807 C808 1.373 . S
C807 C809 1.389 . S
C808 H781 0.950 . S
C808 C794 1.377 1_455 S
C808 C807 1.373 . S
C809 C793 1.377 1_455 S
C809 C807 1.389 . S
C809 C810 1.524 . S
C810 C809 1.524 . S
C810 C811 1.397 . S
C810 C815 1.363 . S
C811 H782 0.950 . S
C811 C810 1.397 . S
C811 C812 1.334 . S
C812 H783 0.950 . S
C812 C811 1.334 . S
C812 C813 1.287 . S
C813 C812 1.287 . S
C813 C814 1.524 . S
C813 H816 0.999 . S
C814 H784 0.950 . S
C814 C813 1.524 . S
C814 C815 1.415 . S
C815 H785 0.950 . S
C815 C810 1.363 . S
C815 C814 1.415 . S
H816 C813 0.999 . S
H817 C798 0.913 . S
H818 C836 0.951 . S
H819 C838 0.951 . S
H820 C840 0.950 . S
H821 C841 0.950 . S
H822 C843 0.950 . S
H823 C846 0.950 . S
H824 C847 0.950 . S
H825 C849 0.950 . S
H826 C850 0.950 . S
H827 C851 0.951 . S
H828 C853 0.951 . S
H829 C855 0.950 . S
H830 C856 0.950 . S
H831 C858 0.950 . S
H832 C861 0.950 . S
H833 C862 0.950 . S
H834 C864 0.950 . S
H835 C865 0.950 . S
C836 H818 0.951 . S
C836 C837 1.366 . S
C836 C838 1.388 . S
C837 C836 1.366 . S
C837 C841 1.385 . S
C838 H819 0.951 . S
C838 C836 1.388 . S
C838 C839 1.366 . S
C839 C838 1.366 . S
C839 C840 1.414 . S
C839 C842 1.499 . S
C840 H820 0.950 . S
C840 C839 1.414 . S
C840 C841 1.374 . S
C841 H821 0.950 . S
C841 C837 1.385 . S
C841 C840 1.374 . S
C842 C839 1.499 . S
C842 C843 1.373 . S
C842 C844 1.389 . S
C843 H822 0.950 . S
C843 C842 1.373 . S
C843 C859 1.377 1_545 S
C844 C842 1.389 . S
C844 C845 1.524 . S
C844 C858 1.377 1_545 S
C845 C844 1.524 . S
C845 C846 1.397 . S
C845 C850 1.363 . S
C846 H823 0.950 . S
C846 C845 1.397 . S
C846 C847 1.334 . S
C847 H824 0.950 . S
C847 C846 1.334 . S
C847 C848 1.287 . S
C848 C847 1.287 . S
C848 C849 1.524 . S
C848 H867 0.913 . S
C849 H825 0.950 . S
C849 C848 1.524 . S
C849 C850 1.415 . S
C850 H826 0.950 . S
C850 C845 1.363 . S
C850 C849 1.415 . S
C851 H827 0.951 . S
C851 C852 1.366 . S
C851 C853 1.388 . S
C852 C851 1.366 . S
C852 C856 1.385 . S
C853 H828 0.951 . S
C853 C851 1.388 . S
C853 C854 1.366 . S
C854 C853 1.366 . S
C854 C855 1.414 . S
C854 C857 1.499 . S
C855 H829 0.950 . S
C855 C854 1.414 . S
C855 C856 1.374 . S
C856 H830 0.950 . S
C856 C852 1.385 . S
C856 C855 1.374 . S
C857 C854 1.499 . S
C857 C858 1.373 . S
C857 C859 1.389 . S
C858 H831 0.950 . S
C858 C844 1.377 1_565 S
C858 C857 1.373 . S
C859 C843 1.377 1_565 S
C859 C857 1.389 . S
C859 C860 1.524 . S
C860 C859 1.524 . S
C860 C861 1.397 . S
C860 C865 1.363 . S
C861 H832 0.950 . S
C861 C860 1.397 . S
C861 C862 1.334 . S
C862 H833 0.950 . S
C862 C861 1.334 . S
C862 C863 1.287 . S
C863 C862 1.287 . S
C863 C864 1.524 . S
C863 H866 0.999 . S
C864 H834 0.950 . S
C864 C863 1.524 . S
C864 C865 1.415 . S
C865 H835 0.950 . S
C865 C860 1.363 . S
C865 C864 1.415 . S
H866 C863 0.999 . S
H867 C848 0.913 . S
H868 C886 0.951 . S
H869 C888 0.951 . S
H870 C890 0.950 . S
H871 C891 0.950 . S
H872 C893 0.950 . S
H873 C896 0.950 . S
H874 C897 0.950 . S
H875 C899 0.950 . S
H876 C900 0.950 . S
H877 C901 0.951 . S
H878 C903 0.951 . S
H879 C905 0.950 . S
H880 C906 0.950 . S
H881 C908 0.950 . S
H882 C911 0.950 . S
H883 C912 0.950 . S
H884 C914 0.950 . S
H885 C915 0.950 . S
C886 H868 0.951 . S
C886 C887 1.366 . S
C886 C888 1.388 . S
C887 C886 1.366 . S
C887 C891 1.385 . S
C888 H869 0.951 . S
C888 C886 1.388 . S
C888 C889 1.366 . S
C889 C888 1.366 . S
C889 C890 1.414 . S
C889 C892 1.499 . S
C890 H870 0.950 . S
C890 C889 1.414 . S
C890 C891 1.374 . S
C891 H871 0.950 . S
C891 C887 1.385 . S
C891 C890 1.374 . S
C892 C889 1.499 . S
C892 C893 1.373 . S
C892 C894 1.389 . S
C893 H872 0.950 . S
C893 C892 1.373 . S
C893 C909 1.377 . S
C894 C892 1.389 . S
C894 C895 1.524 . S
C894 C908 1.377 . S
C895 C894 1.524 . S
C895 C896 1.397 . S
C895 C900 1.363 . S
C896 H873 0.950 . S
C896 C895 1.397 . S
C896 C897 1.334 . S
C897 H874 0.950 . S
C897 C896 1.334 . S
C897 C898 1.287 . S
C898 C897 1.287 . S
C898 C899 1.524 . S
C898 H917 0.913 . S
C899 H875 0.950 . S
C899 C898 1.524 . S
C899 C900 1.415 . S
C900 H876 0.950 . S
C900 C895 1.363 . S
C900 C899 1.415 . S
C901 H877 0.951 . S
C901 C902 1.366 . S
C901 C903 1.388 . S
C902 C901 1.366 . S
C902 C906 1.385 . S
C903 H878 0.951 . S
C903 C901 1.388 . S
C903 C904 1.366 . S
C904 C903 1.366 . S
C904 C905 1.414 . S
C904 C907 1.499 . S
C905 H879 0.950 . S
C905 C904 1.414 . S
C905 C906 1.374 . S
C906 H880 0.950 . S
C906 C902 1.385 . S
C906 C905 1.374 . S
C907 C904 1.499 . S
C907 C908 1.373 . S
C907 C909 1.389 . S
C908 H881 0.950 . S
C908 C894 1.377 . S
C908 C907 1.373 . S
C909 C893 1.377 . S
C909 C907 1.389 . S
C909 C910 1.524 . S
C910 C909 1.524 . S
C910 C911 1.397 . S
C910 C915 1.363 . S
C911 H882 0.950 . S
C911 C910 1.397 . S
C911 C912 1.334 . S
C912 H883 0.950 . S
C912 C911 1.334 . S
C912 C913 1.287 . S
C913 C912 1.287 . S
C913 C914 1.524 . S
C913 H916 0.999 . S
C914 H884 0.950 . S
C914 C913 1.524 . S
C914 C915 1.415 . S
C915 H885 0.950 . S
C915 C910 1.363 . S
C915 C914 1.415 . S
H916 C913 0.999 . S
H917 C898 0.913 . S
H918 C936 0.951 . S
H919 C938 0.951 . S
H920 C940 0.950 . S
H921 C941 0.950 . S
H922 C943 0.950 . S
H923 C946 0.950 . S
H924 C947 0.950 . S
H925 C949 0.950 . S
H926 C950 0.950 . S
H927 C951 0.951 . S
H928 C953 0.951 . S
H929 C955 0.950 . S
H930 C956 0.950 . S
H931 C958 0.950 . S
H932 C961 0.950 . S
H933 C962 0.950 . S
H934 C964 0.950 . S
H935 C965 0.950 . S
C936 H918 0.951 . S
C936 C937 1.366 . S
C936 C938 1.388 . S
C937 C936 1.366 . S
C937 C941 1.385 . S
C938 H919 0.951 . S
C938 C936 1.388 . S
C938 C939 1.366 . S
C939 C938 1.366 . S
C939 C940 1.414 . S
C939 C942 1.499 . S
C940 H920 0.950 . S
C940 C939 1.414 . S
C940 C941 1.374 . S
C941 H921 0.950 . S
C941 C937 1.385 . S
C941 C940 1.374 . S
C942 C939 1.499 . S
C942 C943 1.373 . S
C942 C944 1.389 . S
C943 H922 0.950 . S
C943 C942 1.373 . S
C943 C959 1.377 1_545 S
C944 C942 1.389 . S
C944 C945 1.524 . S
C944 C958 1.377 1_545 S
C945 C944 1.524 . S
C945 C946 1.397 . S
C945 C950 1.363 . S
C946 H923 0.950 . S
C946 C945 1.397 . S
C946 C947 1.334 . S
C947 H924 0.950 . S
C947 C946 1.334 . S
C947 C948 1.287 . S
C948 C947 1.287 . S
C948 C949 1.524 . S
C948 H967 0.913 . S
C949 H925 0.950 . S
C949 C948 1.524 . S
C949 C950 1.415 . S
C950 H926 0.950 . S
C950 C945 1.363 . S
C950 C949 1.415 . S
C951 H927 0.951 . S
C951 C952 1.366 . S
C951 C953 1.388 . S
C952 C951 1.366 . S
C952 C956 1.385 . S
C953 H928 0.951 . S
C953 C951 1.388 . S
C953 C954 1.366 . S
C954 C953 1.366 . S
C954 C955 1.414 . S
C954 C957 1.499 . S
C955 H929 0.950 . S
C955 C954 1.414 . S
C955 C956 1.374 . S
C956 H930 0.950 . S
C956 C952 1.385 . S
C956 C955 1.374 . S
C957 C954 1.499 . S
C957 C958 1.373 . S
C957 C959 1.389 . S
C958 H931 0.950 . S
C958 C944 1.377 1_565 S
C958 C957 1.373 . S
C959 C943 1.377 1_565 S
C959 C957 1.389 . S
C959 C960 1.524 . S
C960 C959 1.524 . S
C960 C961 1.397 . S
C960 C965 1.363 . S
C961 H932 0.950 . S
C961 C960 1.397 . S
C961 C962 1.334 . S
C962 H933 0.950 . S
C962 C961 1.334 . S
C962 C963 1.287 . S
C963 C962 1.287 . S
C963 C964 1.524 . S
C963 H966 0.999 . S
C964 H934 0.950 . S
C964 C963 1.524 . S
C964 C965 1.415 . S
C965 H935 0.950 . S
C965 C960 1.363 . S
C965 C964 1.415 . S
H966 C963 0.999 . S
H967 C948 0.913 . S
H968 C986 0.951 . S
H969 C988 0.951 . S
H970 C990 0.950 . S
H971 C991 0.950 . S
H972 C993 0.950 . S
H973 C996 0.950 . S
H974 C997 0.950 . S
H975 C999 0.950 . S
H976 C1000 0.950 . S
H977 C1001 0.951 . S
H978 C1003 0.951 . S
H979 C1005 0.950 . S
H980 C1006 0.950 . S
H981 C1008 0.950 . S
H982 C1011 0.950 . S
H983 C1012 0.950 . S
H984 C1014 0.950 . S
H985 C1015 0.950 . S
C986 H968 0.951 . S
C986 C987 1.366 . S
C986 C988 1.388 . S
C987 C986 1.366 . S
C987 C991 1.385 . S
C988 H969 0.951 . S
C988 C986 1.388 . S
C988 C989 1.366 . S
C989 C988 1.366 . S
C989 C990 1.414 . S
C989 C992 1.499 . S
C990 H970 0.950 . S
C990 C989 1.414 . S
C990 C991 1.374 . S
C991 H971 0.950 . S
C991 C987 1.385 . S
C991 C990 1.374 . S
C992 C989 1.499 . S
C992 C993 1.373 . S
C992 C994 1.389 . S
C993 H972 0.950 . S
C993 C992 1.373 . S
C993 C1009 1.377 . S
C994 C992 1.389 . S
C994 C995 1.524 . S
C994 C1008 1.377 . S
C995 C994 1.524 . S
C995 C996 1.397 . S
C995 C1000 1.363 . S
C996 H973 0.950 . S
C996 C995 1.397 . S
C996 C997 1.334 . S
C997 H974 0.950 . S
C997 C996 1.334 . S
C997 C998 1.287 . S
C998 C997 1.287 . S
C998 C999 1.524 . S
C998 H1017 0.913 . S
C999 H975 0.950 . S
C999 C998 1.524 . S
C999 C1000 1.415 . S
C1000 H976 0.950 . S
C1000 C995 1.363 . S
C1000 C999 1.415 . S
C1001 H977 0.951 . S
C1001 C1002 1.366 . S
C1001 C1003 1.388 . S
C1002 C1001 1.366 . S
C1002 C1006 1.385 . S
C1003 H978 0.951 . S
C1003 C1001 1.388 . S
C1003 C1004 1.366 . S
C1004 C1003 1.366 . S
C1004 C1005 1.414 . S
C1004 C1007 1.499 . S
C1005 H979 0.950 . S
C1005 C1004 1.414 . S
C1005 C1006 1.374 . S
C1006 H980 0.950 . S
C1006 C1002 1.385 . S
C1006 C1005 1.374 . S
C1007 C1004 1.499 . S
C1007 C1008 1.373 . S
C1007 C1009 1.389 . S
C1008 H981 0.950 . S
C1008 C994 1.377 . S
C1008 C1007 1.373 . S
C1009 C993 1.377 . S
C1009 C1007 1.389 . S
C1009 C1010 1.524 . S
C1010 C1009 1.524 . S
C1010 C1011 1.397 . S
C1010 C1015 1.363 . S
C1011 H982 0.950 . S
C1011 C1010 1.397 . S
C1011 C1012 1.334 . S
C1012 H983 0.950 . S
C1012 C1011 1.334 . S
C1012 C1013 1.287 . S
C1013 C1012 1.287 . S
C1013 C1014 1.524 . S
C1013 H1016 0.999 . S
C1014 H984 0.950 . S
C1014 C1013 1.524 . S
C1014 C1015 1.415 . S
C1015 H985 0.950 . S
C1015 C1010 1.363 . S
C1015 C1014 1.415 . S
H1016 C1013 0.999 . S
H1017 C998 0.913 . S
H1018 C1036 0.951 . S
H1019 C1038 0.951 . S
H1020 C1040 0.950 . S
H1021 C1041 0.950 . S
H1022 C1043 0.950 . S
H1023 C1046 0.950 . S
H1024 C1047 0.950 . S
H1025 C1049 0.950 . S
H1026 C1050 0.950 1_655 S
H1027 C1051 0.951 . S
H1028 C1053 0.951 . S
H1029 C1055 0.950 . S
H1030 C1056 0.950 . S
H1031 C1058 0.950 . S
H1032 C1061 0.950 . S
H1033 C1062 0.950 . S
H1034 C1064 0.950 . S
H1035 C1065 0.950 1_455 S
C1036 H1018 0.951 . S
C1036 C1037 1.366 . S
C1036 C1038 1.388 . S
C1037 C1036 1.366 . S
C1037 C1041 1.385 . S
C1038 H1019 0.951 . S
C1038 C1036 1.388 . S
C1038 C1039 1.366 . S
C1039 C1038 1.366 . S
C1039 C1040 1.414 . S
C1039 C1042 1.499 . S
C1040 H1020 0.950 . S
C1040 C1039 1.414 . S
C1040 C1041 1.374 . S
C1041 H1021 0.950 . S
C1041 C1037 1.385 . S
C1041 C1040 1.374 . S
C1042 C1039 1.499 . S
C1042 C1043 1.373 . S
C1042 C1044 1.389 . S
C1043 H1022 0.950 . S
C1043 C1042 1.373 . S
C1043 C1059 1.377 1_455 S
C1044 C1042 1.389 . S
C1044 C1045 1.524 . S
C1044 C1058 1.377 1_455 S
C1045 C1044 1.524 . S
C1045 C1046 1.397 . S
C1045 C1050 1.363 . S
C1046 H1023 0.950 . S
C1046 C1045 1.397 . S
C1046 C1047 1.334 . S
C1047 H1024 0.950 . S
C1047 C1046 1.334 . S
C1047 C1048 1.287 . S
C1048 C1047 1.287 . S
C1048 C1049 1.524 . S
C1048 H1067 0.913 . S
C1049 H1025 0.950 . S
C1049 C1048 1.524 . S
C1049 C1050 1.415 . S
C1050 H1026 0.950 1_455 S
C1050 C1045 1.363 . S
C1050 C1049 1.415 . S
C1051 H1027 0.951 . S
C1051 C1052 1.366 . S
C1051 C1053 1.388 . S
C1052 C1051 1.366 . S
C1052 C1056 1.385 . S
C1053 H1028 0.951 . S
C1053 C1051 1.388 . S
C1053 C1054 1.366 . S
C1054 C1053 1.366 . S
C1054 C1055 1.414 . S
C1054 C1057 1.499 . S
C1055 H1029 0.950 . S
C1055 C1054 1.414 . S
C1055 C1056 1.374 . S
C1056 H1030 0.950 . S
C1056 C1052 1.385 . S
C1056 C1055 1.374 . S
C1057 C1054 1.499 . S
C1057 C1058 1.373 . S
C1057 C1059 1.389 . S
C1058 H1031 0.950 . S
C1058 C1044 1.377 1_655 S
C1058 C1057 1.373 . S
C1059 C1043 1.377 1_655 S
C1059 C1057 1.389 . S
C1059 C1060 1.524 . S
C1060 C1059 1.524 . S
C1060 C1061 1.397 . S
C1060 C1065 1.363 . S
C1061 H1032 0.950 . S
C1061 C1060 1.397 . S
C1061 C1062 1.334 . S
C1062 H1033 0.950 . S
C1062 C1061 1.334 . S
C1062 C1063 1.287 . S
C1063 C1062 1.287 . S
C1063 C1064 1.524 . S
C1063 H1066 0.999 . S
C1064 H1034 0.950 . S
C1064 C1063 1.524 . S
C1064 C1065 1.415 . S
C1065 H1035 0.950 1_655 S
C1065 C1060 1.363 . S
C1065 C1064 1.415 . S
H1066 C1063 0.999 . S
H1067 C1048 0.913 . S
H1068 C1086 0.951 . S
H1069 C1088 0.951 . S
H1070 C1090 0.950 . S
H1071 C1091 0.950 . S
H1072 C1093 0.950 . S
H1073 C1096 0.950 . S
H1074 C1097 0.950 . S
H1075 C1099 0.950 . S
H1076 C1100 0.950 . S
H1077 C1101 0.951 . S
H1078 C1103 0.951 . S
H1079 C1105 0.950 . S
H1080 C1106 0.950 . S
H1081 C1108 0.950 . S
H1082 C1111 0.950 . S
H1083 C1112 0.950 . S
H1084 C1114 0.950 . S
H1085 C1115 0.950 . S
C1086 H1068 0.951 . S
C1086 C1087 1.366 . S
C1086 C1088 1.388 . S
C1087 C1086 1.366 . S
C1087 C1091 1.385 . S
C1088 H1069 0.951 . S
C1088 C1086 1.388 . S
C1088 C1089 1.366 . S
C1089 C1088 1.366 . S
C1089 C1090 1.414 . S
C1089 C1092 1.499 . S
C1090 H1070 0.950 . S
C1090 C1089 1.414 . S
C1090 C1091 1.374 . S
C1091 H1071 0.950 . S
C1091 C1087 1.385 . S
C1091 C1090 1.374 . S
C1092 C1089 1.499 . S
C1092 C1093 1.373 . S
C1092 C1094 1.389 . S
C1093 H1072 0.950 . S
C1093 C1092 1.373 . S
C1093 C1109 1.377 . S
C1094 C1092 1.389 . S
C1094 C1095 1.524 . S
C1094 C1108 1.377 . S
C1095 C1094 1.524 . S
C1095 C1096 1.397 . S
C1095 C1100 1.363 . S
C1096 H1073 0.950 . S
C1096 C1095 1.397 . S
C1096 C1097 1.334 . S
C1097 H1074 0.950 . S
C1097 C1096 1.334 . S
C1097 C1098 1.287 . S
C1098 C1097 1.287 . S
C1098 C1099 1.524 . S
C1098 H1117 0.913 . S
C1099 H1075 0.950 . S
C1099 C1098 1.524 . S
C1099 C1100 1.415 . S
C1100 H1076 0.950 . S
C1100 C1095 1.363 . S
C1100 C1099 1.415 . S
C1101 H1077 0.951 . S
C1101 C1102 1.366 . S
C1101 C1103 1.388 . S
C1102 C1101 1.366 . S
C1102 C1106 1.385 . S
C1103 H1078 0.951 . S
C1103 C1101 1.388 . S
C1103 C1104 1.366 . S
C1104 C1103 1.366 . S
C1104 C1105 1.414 . S
C1104 C1107 1.499 . S
C1105 H1079 0.950 . S
C1105 C1104 1.414 . S
C1105 C1106 1.374 . S
C1106 H1080 0.950 . S
C1106 C1102 1.385 . S
C1106 C1105 1.374 . S
C1107 C1104 1.499 . S
C1107 C1108 1.373 . S
C1107 C1109 1.389 . S
C1108 H1081 0.950 . S
C1108 C1094 1.377 . S
C1108 C1107 1.373 . S
C1109 C1093 1.377 . S
C1109 C1107 1.389 . S
C1109 C1110 1.524 . S
C1110 C1109 1.524 . S
C1110 C1111 1.397 . S
C1110 C1115 1.363 . S
C1111 H1082 0.950 . S
C1111 C1110 1.397 . S
C1111 C1112 1.334 . S
C1112 H1083 0.950 . S
C1112 C1111 1.334 . S
C1112 C1113 1.287 . S
C1113 C1112 1.287 . S
C1113 C1114 1.524 . S
C1113 H1116 0.999 . S
C1114 H1084 0.950 . S
C1114 C1113 1.524 . S
C1114 C1115 1.415 . S
C1115 H1085 0.950 . S
C1115 C1110 1.363 . S
C1115 C1114 1.415 . S
H1116 C1113 0.999 . S
H1117 C1098 0.913 . S
H1118 C1136 0.951 . S
H1119 C1138 0.951 . S
H1120 C1140 0.950 . S
H1121 C1141 0.950 . S
H1122 C1143 0.950 . S
H1123 C1146 0.950 . S
H1124 C1147 0.950 . S
H1125 C1149 0.950 1_455 S
H1126 C1150 0.950 . S
H1127 C1151 0.951 . S
H1128 C1153 0.951 . S
H1129 C1155 0.950 . S
H1130 C1156 0.950 . S
H1131 C1158 0.950 . S
H1132 C1161 0.950 . S
H1133 C1162 0.950 . S
H1134 C1164 0.950 1_655 S
H1135 C1165 0.950 . S
C1136 H1118 0.951 . S
C1136 C1137 1.366 . S
C1136 C1138 1.388 . S
C1137 C1136 1.366 . S
C1137 C1141 1.385 . S
C1138 H1119 0.951 . S
C1138 C1136 1.388 . S
C1138 C1139 1.366 . S
C1139 C1138 1.366 . S
C1139 C1140 1.414 . S
C1139 C1142 1.499 . S
C1140 H1120 0.950 . S
C1140 C1139 1.414 . S
C1140 C1141 1.374 . S
C1141 H1121 0.950 . S
C1141 C1137 1.385 . S
C1141 C1140 1.374 . S
C1142 C1139 1.499 . S
C1142 C1143 1.373 . S
C1142 C1144 1.389 . S
C1143 H1122 0.950 . S
C1143 C1142 1.373 . S
C1143 C1159 1.377 1_655 S
C1144 C1142 1.389 . S
C1144 C1145 1.524 . S
C1144 C1158 1.377 1_655 S
C1145 C1144 1.524 . S
C1145 C1146 1.397 . S
C1145 C1150 1.363 1_655 S
C1146 H1123 0.950 . S
C1146 C1145 1.397 . S
C1146 C1147 1.334 . S
C1147 H1124 0.950 . S
C1147 C1146 1.334 . S
C1147 C1148 1.287 . S
C1148 C1147 1.287 . S
C1148 C1149 1.524 . S
C1148 H1167 0.913 . S
C1149 H1125 0.950 1_655 S
C1149 C1148 1.524 . S
C1149 C1150 1.415 1_655 S
C1150 H1126 0.950 . S
C1150 C1145 1.363 1_455 S
C1150 C1149 1.415 1_455 S
C1151 H1127 0.951 . S
C1151 C1152 1.366 . S
C1151 C1153 1.388 . S
C1152 C1151 1.366 . S
C1152 C1156 1.385 . S
C1153 H1128 0.951 . S
C1153 C1151 1.388 . S
C1153 C1154 1.366 . S
C1154 C1153 1.366 . S
C1154 C1155 1.414 . S
C1154 C1157 1.499 . S
C1155 H1129 0.950 . S
C1155 C1154 1.414 . S
C1155 C1156 1.374 . S
C1156 H1130 0.950 . S
C1156 C1152 1.385 . S
C1156 C1155 1.374 . S
C1157 C1154 1.499 . S
C1157 C1158 1.373 . S
C1157 C1159 1.389 . S
C1158 H1131 0.950 . S
C1158 C1144 1.377 1_455 S
C1158 C1157 1.373 . S
C1159 C1143 1.377 1_455 S
C1159 C1157 1.389 . S
C1159 C1160 1.524 . S
C1160 C1159 1.524 . S
C1160 C1161 1.397 . S
C1160 C1165 1.363 1_455 S
C1161 H1132 0.950 . S
C1161 C1160 1.397 . S
C1161 C1162 1.334 . S
C1162 H1133 0.950 . S
C1162 C1161 1.334 . S
C1162 C1163 1.287 . S
C1163 C1162 1.287 . S
C1163 C1164 1.524 . S
C1163 H1166 0.999 . S
C1164 H1134 0.950 1_455 S
C1164 C1163 1.524 . S
C1164 C1165 1.415 1_455 S
C1165 H1135 0.950 . S
C1165 C1160 1.363 1_655 S
C1165 C1164 1.415 1_655 S
H1166 C1163 0.999 . S
H1167 C1148 0.913 . S
H1168 C1186 0.951 . S
H1169 C1188 0.951 . S
H1170 C1190 0.950 . S
H1171 C1191 0.950 . S
H1172 C1193 0.950 . S
H1173 C1196 0.950 . S
H1174 C1197 0.950 . S
H1175 C1199 0.950 1_565 S
H1176 C1200 0.950 1_565 S
H1177 C1201 0.951 . S
H1178 C1203 0.951 . S
H1179 C1205 0.950 . S
H1180 C1206 0.950 . S
H1181 C1208 0.950 . S
H1182 C1211 0.950 . S
H1183 C1212 0.950 . S
H1184 C1214 0.950 1_545 S
H1185 C1215 0.950 1_545 S
C1186 H1168 0.951 . S
C1186 C1187 1.366 . S
C1186 C1188 1.388 . S
C1187 C1186 1.366 . S
C1187 C1191 1.385 . S
C1188 H1169 0.951 . S
C1188 C1186 1.388 . S
C1188 C1189 1.366 . S
C1189 C1188 1.366 . S
C1189 C1190 1.414 . S
C1189 C1192 1.499 . S
C1190 H1170 0.950 . S
C1190 C1189 1.414 . S
C1190 C1191 1.374 . S
C1191 H1171 0.950 . S
C1191 C1187 1.385 . S
C1191 C1190 1.374 . S
C1192 C1189 1.499 . S
C1192 C1193 1.373 . S
C1192 C1194 1.389 . S
C1193 H1172 0.950 . S
C1193 C1192 1.373 . S
C1193 C1209 1.377 1_545 S
C1194 C1192 1.389 . S
C1194 C1195 1.524 . S
C1194 C1208 1.377 1_545 S
C1195 C1194 1.524 . S
C1195 C1196 1.397 . S
C1195 C1200 1.363 . S
C1196 H1173 0.950 . S
C1196 C1195 1.397 . S
C1196 C1197 1.334 . S
C1197 H1174 0.950 . S
C1197 C1196 1.334 . S
C1197 C1198 1.287 . S
C1198 C1197 1.287 . S
C1198 C1199 1.524 . S
C1198 H1217 0.913 . S
C1199 H1175 0.950 1_545 S
C1199 C1198 1.524 . S
C1199 C1200 1.415 . S
C1200 H1176 0.950 1_545 S
C1200 C1195 1.363 . S
C1200 C1199 1.415 . S
C1201 H1177 0.951 . S
C1201 C1202 1.366 . S
C1201 C1203 1.388 . S
C1202 C1201 1.366 . S
C1202 C1206 1.385 . S
C1203 H1178 0.951 . S
C1203 C1201 1.388 . S
C1203 C1204 1.366 . S
C1204 C1203 1.366 . S
C1204 C1205 1.414 . S
C1204 C1207 1.499 . S
C1205 H1179 0.950 . S
C1205 C1204 1.414 . S
C1205 C1206 1.374 . S
C1206 H1180 0.950 . S
C1206 C1202 1.385 . S
C1206 C1205 1.374 . S
C1207 C1204 1.499 . S
C1207 C1208 1.373 . S
C1207 C1209 1.389 . S
C1208 H1181 0.950 . S
C1208 C1194 1.377 1_565 S
C1208 C1207 1.373 . S
C1209 C1193 1.377 1_565 S
C1209 C1207 1.389 . S
C1209 C1210 1.524 . S
C1210 C1209 1.524 . S
C1210 C1211 1.397 . S
C1210 C1215 1.363 . S
C1211 H1182 0.950 . S
C1211 C1210 1.397 . S
C1211 C1212 1.334 . S
C1212 H1183 0.950 . S
C1212 C1211 1.334 . S
C1212 C1213 1.287 . S
C1213 C1212 1.287 . S
C1213 C1214 1.524 . S
C1213 H1216 0.999 . S
C1214 H1184 0.950 1_565 S
C1214 C1213 1.524 . S
C1214 C1215 1.415 . S
C1215 H1185 0.950 1_565 S
C1215 C1210 1.363 . S
C1215 C1214 1.415 . S
H1216 C1213 0.999 . S
H1217 C1198 0.913 . S
H1218 C1236 0.951 . S
H1219 C1238 0.951 . S
H1220 C1240 0.950 . S
H1221 C1241 0.950 . S
H1222 C1243 0.950 . S
H1223 C1246 0.950 . S
H1224 C1247 0.950 . S
H1225 C1249 0.950 . S
H1226 C1250 0.950 . S
H1227 C1251 0.951 . S
H1228 C1253 0.951 . S
H1229 C1255 0.950 . S
H1230 C1256 0.950 . S
H1231 C1258 0.950 . S
H1232 C1261 0.950 . S
H1233 C1262 0.950 . S
H1234 C1264 0.950 . S
H1235 C1265 0.950 . S
C1236 H1218 0.951 . S
C1236 C1237 1.366 . S
C1236 C1238 1.388 . S
C1237 C1236 1.366 . S
C1237 C1241 1.385 . S
C1238 H1219 0.951 . S
C1238 C1236 1.388 . S
C1238 C1239 1.366 . S
C1239 C1238 1.366 . S
C1239 C1240 1.414 . S
C1239 C1242 1.499 . S
C1240 H1220 0.950 . S
C1240 C1239 1.414 . S
C1240 C1241 1.374 . S
C1241 H1221 0.950 . S
C1241 C1237 1.385 . S
C1241 C1240 1.374 . S
C1242 C1239 1.499 . S
C1242 C1243 1.373 . S
C1242 C1244 1.389 . S
C1243 H1222 0.950 . S
C1243 C1242 1.373 . S
C1243 C1259 1.377 . S
C1244 C1242 1.389 . S
C1244 C1245 1.524 . S
C1244 C1258 1.377 . S
C1245 C1244 1.524 . S
C1245 C1246 1.397 . S
C1245 C1250 1.363 . S
C1246 H1223 0.950 . S
C1246 C1245 1.397 . S
C1246 C1247 1.334 . S
C1247 H1224 0.950 . S
C1247 C1246 1.334 . S
C1247 C1248 1.287 . S
C1248 C1247 1.287 . S
C1248 C1249 1.524 . S
C1248 H1267 0.913 . S
C1249 H1225 0.950 . S
C1249 C1248 1.524 . S
C1249 C1250 1.415 . S
C1250 H1226 0.950 . S
C1250 C1245 1.363 . S
C1250 C1249 1.415 . S
C1251 H1227 0.951 . S
C1251 C1252 1.366 . S
C1251 C1253 1.388 . S
C1252 C1251 1.366 . S
C1252 C1256 1.385 . S
C1253 H1228 0.951 . S
C1253 C1251 1.388 . S
C1253 C1254 1.366 . S
C1254 C1253 1.366 . S
C1254 C1255 1.414 . S
C1254 C1257 1.499 . S
C1255 H1229 0.950 . S
C1255 C1254 1.414 . S
C1255 C1256 1.374 . S
C1256 H1230 0.950 . S
C1256 C1252 1.385 . S
C1256 C1255 1.374 . S
C1257 C1254 1.499 . S
C1257 C1258 1.373 . S
C1257 C1259 1.389 . S
C1258 H1231 0.950 . S
C1258 C1244 1.377 . S
C1258 C1257 1.373 . S
C1259 C1243 1.377 . S
C1259 C1257 1.389 . S
C1259 C1260 1.524 . S
C1260 C1259 1.524 . S
C1260 C1261 1.397 . S
C1260 C1265 1.363 . S
C1261 H1232 0.950 . S
C1261 C1260 1.397 . S
C1261 C1262 1.334 . S
C1262 H1233 0.950 . S
C1262 C1261 1.334 . S
C1262 C1263 1.287 . S
C1263 C1262 1.287 . S
C1263 C1264 1.524 . S
C1263 H1266 0.999 . S
C1264 H1234 0.950 . S
C1264 C1263 1.524 . S
C1264 C1265 1.415 . S
C1265 H1235 0.950 . S
C1265 C1260 1.363 . S
C1265 C1264 1.415 . S
H1266 C1263 0.999 . S
H1267 C1248 0.913 . S
H1268 C1286 0.951 . S
H1269 C1288 0.951 . S
H1270 C1290 0.950 . S
H1271 C1291 0.950 . S
H1272 C1293 0.950 . S
H1273 C1296 0.950 . S
H1274 C1297 0.950 . S
H1275 C1299 0.950 . S
H1276 C1300 0.950 . S
H1277 C1301 0.951 . S
H1278 C1303 0.951 . S
H1279 C1305 0.950 . S
H1280 C1306 0.950 . S
H1281 C1308 0.950 . S
H1282 C1311 0.950 . S
H1283 C1312 0.950 . S
H1284 C1314 0.950 . S
H1285 C1315 0.950 . S
C1286 H1268 0.951 . S
C1286 C1287 1.366 . S
C1286 C1288 1.388 . S
C1287 C1286 1.366 . S
C1287 C1291 1.385 . S
C1288 H1269 0.951 . S
C1288 C1286 1.388 . S
C1288 C1289 1.366 . S
C1289 C1288 1.366 . S
C1289 C1290 1.414 . S
C1289 C1292 1.499 . S
C1290 H1270 0.950 . S
C1290 C1289 1.414 . S
C1290 C1291 1.374 . S
C1291 H1271 0.950 . S
C1291 C1287 1.385 . S
C1291 C1290 1.374 . S
C1292 C1289 1.499 . S
C1292 C1293 1.373 . S
C1292 C1294 1.389 . S
C1293 H1272 0.950 . S
C1293 C1292 1.373 . S
C1293 C1309 1.377 1_455 S
C1294 C1292 1.389 . S
C1294 C1295 1.524 . S
C1294 C1308 1.377 1_455 S
C1295 C1294 1.524 . S
C1295 C1296 1.397 . S
C1295 C1300 1.363 . S
C1296 H1273 0.950 . S
C1296 C1295 1.397 . S
C1296 C1297 1.334 . S
C1297 H1274 0.950 . S
C1297 C1296 1.334 . S
C1297 C1298 1.287 . S
C1298 C1297 1.287 . S
C1298 C1299 1.524 . S
C1298 H1317 0.913 . S
C1299 H1275 0.950 . S
C1299 C1298 1.524 . S
C1299 C1300 1.415 . S
C1300 H1276 0.950 . S
C1300 C1295 1.363 . S
C1300 C1299 1.415 . S
C1301 H1277 0.951 . S
C1301 C1302 1.366 . S
C1301 C1303 1.388 . S
C1302 C1301 1.366 . S
C1302 C1306 1.385 . S
C1303 H1278 0.951 . S
C1303 C1301 1.388 . S
C1303 C1304 1.366 . S
C1304 C1303 1.366 . S
C1304 C1305 1.414 . S
C1304 C1307 1.499 . S
C1305 H1279 0.950 . S
C1305 C1304 1.414 . S
C1305 C1306 1.374 . S
C1306 H1280 0.950 . S
C1306 C1302 1.385 . S
C1306 C1305 1.374 . S
C1307 C1304 1.499 . S
C1307 C1308 1.373 . S
C1307 C1309 1.389 . S
C1308 H1281 0.950 . S
C1308 C1294 1.377 1_655 S
C1308 C1307 1.373 . S
C1309 C1293 1.377 1_655 S
C1309 C1307 1.389 . S
C1309 C1310 1.524 . S
C1310 C1309 1.524 . S
C1310 C1311 1.397 . S
C1310 C1315 1.363 . S
C1311 H1282 0.950 . S
C1311 C1310 1.397 . S
C1311 C1312 1.334 . S
C1312 H1283 0.950 . S
C1312 C1311 1.334 . S
C1312 C1313 1.287 . S
C1313 C1312 1.287 . S
C1313 C1314 1.524 . S
C1313 H1316 0.999 . S
C1314 H1284 0.950 . S
C1314 C1313 1.524 . S
C1314 C1315 1.415 . S
C1315 H1285 0.950 . S
C1315 C1310 1.363 . S
C1315 C1314 1.415 . S
H1316 C1313 0.999 . S
H1317 C1298 0.913 . S
H1318 C1336 0.951 . S
H1319 C1338 0.951 . S
H1320 C1340 0.950 . S
H1321 C1341 0.950 . S
H1322 C1343 0.950 . S
H1323 C1346 0.950 . S
H1324 C1347 0.950 . S
H1325 C1349 0.950 1_545 S
H1326 C1350 0.950 . S
H1327 C1351 0.951 . S
H1328 C1353 0.951 . S
H1329 C1355 0.950 . S
H1330 C1356 0.950 . S
H1331 C1358 0.950 . S
H1332 C1361 0.950 . S
H1333 C1362 0.950 . S
H1334 C1364 0.950 1_565 S
H1335 C1365 0.950 . S
C1336 H1318 0.951 . S
C1336 C1337 1.366 . S
C1336 C1338 1.388 . S
C1337 C1336 1.366 . S
C1337 C1341 1.385 . S
C1338 H1319 0.951 . S
C1338 C1336 1.388 . S
C1338 C1339 1.366 . S
C1339 C1338 1.366 . S
C1339 C1340 1.414 . S
C1339 C1342 1.499 . S
C1340 H1320 0.950 . S
C1340 C1339 1.414 . S
C1340 C1341 1.374 . S
C1341 H1321 0.950 . S
C1341 C1337 1.385 . S
C1341 C1340 1.374 . S
C1342 C1339 1.499 . S
C1342 C1343 1.373 . S
C1342 C1344 1.389 . S
C1343 H1322 0.950 . S
C1343 C1342 1.373 . S
C1343 C1359 1.377 1_565 S
C1344 C1342 1.389 . S
C1344 C1345 1.524 . S
C1344 C1358 1.377 1_565 S
C1345 C1344 1.524 . S
C1345 C1346 1.397 . S
C1345 C1350 1.363 1_565 S
C1346 H1323 0.950 . S
C1346 C1345 1.397 . S
C1346 C1347 1.334 . S
C1347 H1324 0.950 . S
C1347 C1346 1.334 . S
C1347 C1348 1.287 . S
C1348 C1347 1.287 . S
C1348 C1349 1.524 . S
C1348 H1367 0.913 . S
C1349 H1325 0.950 1_565 S
C1349 C1348 1.524 . S
C1349 C1350 1.415 1_565 S
C1350 H1326 0.950 . S
C1350 C1345 1.363 1_545 S
C1350 C1349 1.415 1_545 S
C1351 H1327 0.951 . S
C1351 C1352 1.366 . S
C1351 C1353 1.388 . S
C1352 C1351 1.366 . S
C1352 C1356 1.385 . S
C1353 H1328 0.951 . S
C1353 C1351 1.388 . S
C1353 C1354 1.366 . S
C1354 C1353 1.366 . S
C1354 C1355 1.414 . S
C1354 C1357 1.499 . S
C1355 H1329 0.950 . S
C1355 C1354 1.414 . S
C1355 C1356 1.374 . S
C1356 H1330 0.950 . S
C1356 C1352 1.385 . S
C1356 C1355 1.374 . S
C1357 C1354 1.499 . S
C1357 C1358 1.373 . S
C1357 C1359 1.389 . S
C1358 H1331 0.950 . S
C1358 C1344 1.377 1_545 S
C1358 C1357 1.373 . S
C1359 C1343 1.377 1_545 S
C1359 C1357 1.389 . S
C1359 C1360 1.524 . S
C1360 C1359 1.524 . S
C1360 C1361 1.397 . S
C1360 C1365 1.363 1_545 S
C1361 H1332 0.950 . S
C1361 C1360 1.397 . S
C1361 C1362 1.334 . S
C1362 H1333 0.950 . S
C1362 C1361 1.334 . S
C1362 C1363 1.287 . S
C1363 C1362 1.287 . S
C1363 C1364 1.524 . S
C1363 H1366 0.999 . S
C1364 H1334 0.950 1_545 S
C1364 C1363 1.524 . S
C1364 C1365 1.415 1_545 S
C1365 H1335 0.950 . S
C1365 C1360 1.363 1_565 S
C1365 C1364 1.415 1_565 S
H1366 C1363 0.999 . S
H1367 C1348 0.913 . S
C187 C141 1.622 . S
C202 C12 1.621 . S
C237 C15 1.622 . S
C252 C154 1.622 . S
C287 C29 1.622 . S
C302 C96 1.621 . S
C337 C43 1.623 . S
C352 C99 1.623 . S
C387 C112 1.622 . S
C402 C57 1.623 . S
C437 C83 1.623 . S
C452 C126 1.622 . S
C487 C113 1.646 . S
C502 C13 1.645 . S
C537 C14 1.644 . S
C552 C127 1.645 . S
C587 C28 1.644 . S
C602 C140 1.645 . S
C637 C42 1.644 . S
C652 C155 1.645 . S
C687 C97 1.645 . S
C702 C56 1.644 . S
C737 C98 1.644 . S
C752 C82 1.644 . S
C787 C55 1.339 . S
C802 C0 1.338 . S
C837 C27 1.339 . S
C852 C69 1.339 . S
C887 C71 1.339 . S
C902 C41 1.339 . S
C937 C138 1.338 . S
C952 C84 1.338 . S
C987 C153 1.339 . S
C1002 C111 1.339 . S
C1037 C124 1.338 . S
C1052 C166 1.338 . S
C1087 C54 1.879 . S
C1102 C1 1.881 . S
C1137 C26 1.880 . S
C1152 C68 1.880 . S
C1187 C70 1.880 . S
C1202 C40 1.880 . S
C1237 C85 1.881 . S
C1252 C139 1.881 . S
C1287 C152 1.880 . S
C1302 C110 1.880 . S
C1337 C125 1.881 . S
C1352 C167 1.881 . S
