# Generated by pormake.
# Topology whq, (6)-cn, num edge types: 1
# Building blocks:
#     Node 0, Type 0, BuildingBlock: IZENUY_clean_sbu_0, # of connection points: 6
#     Node 1, Type 0, BuildingBlock: IZENUY_clean_sbu_0, # of connection points: 6
#     Node 2, Type 0, BuildingBlock: IZENUY_clean_sbu_0, # of connection points: 6
#     Node 3, Type 0, BuildingBlock: IZENUY_clean_sbu_0, # of connection points: 6
#     Node 4, Type 0, BuildingBlock: IZENUY_clean_sbu_0, # of connection points: 6
#     Node 5, Type 0, BuildingBlock: IZENUY_clean_sbu_0, # of connection points: 6
#     Node 6, Type 0, BuildingBlock: IZENUY_clean_sbu_0, # of connection points: 6
#     Node 7, Type 0, BuildingBlock: IZENUY_clean_sbu_0, # of connection points: 6
#     Node 8, Type 0, BuildingBlock: IZENUY_clean_sbu_0, # of connection points: 6
#     Node 9, Type 0, BuildingBlock: IZENUY_clean_sbu_0, # of connection points: 6
#     Node 10, Type 0, BuildingBlock: IZENUY_clean_sbu_0, # of connection points: 6
#     Node 11, Type 0, BuildingBlock: IZENUY_clean_sbu_0, # of connection points: 6
#     Node 12, Type 0, BuildingBlock: IZENUY_clean_sbu_0, # of connection points: 6
#     Node 13, Type 0, BuildingBlock: IZENUY_clean_sbu_0, # of connection points: 6
#     Node 14, Type 0, BuildingBlock: IZENUY_clean_sbu_0, # of connection points: 6
#     Node 15, Type 0, BuildingBlock: IZENUY_clean_sbu_0, # of connection points: 6
#     Node 16, Type 0, BuildingBlock: IZENUY_clean_sbu_0, # of connection points: 6
#     Node 17, Type 0, BuildingBlock: IZENUY_clean_sbu_0, # of connection points: 6
#     Node 18, Type 0, BuildingBlock: IZENUY_clean_sbu_0, # of connection points: 6
#     Node 19, Type 0, BuildingBlock: IZENUY_clean_sbu_0, # of connection points: 6
#     Node 20, Type 0, BuildingBlock: IZENUY_clean_sbu_0, # of connection points: 6
#     Node 21, Type 0, BuildingBlock: IZENUY_clean_sbu_0, # of connection points: 6
#     Node 22, Type 0, BuildingBlock: IZENUY_clean_sbu_0, # of connection points: 6
#     Node 23, Type 0, BuildingBlock: IZENUY_clean_sbu_0, # of connection points: 6
#     Node 24, Type 0, BuildingBlock: IZENUY_clean_sbu_0, # of connection points: 6
#     Node 25, Type 0, BuildingBlock: IZENUY_clean_sbu_0, # of connection points: 6
#     Node 26, Type 0, BuildingBlock: IZENUY_clean_sbu_0, # of connection points: 6
#     Node 27, Type 0, BuildingBlock: IZENUY_clean_sbu_0, # of connection points: 6
#     Node 28, Type 0, BuildingBlock: IZENUY_clean_sbu_0, # of connection points: 6
#     Node 29, Type 0, BuildingBlock: IZENUY_clean_sbu_0, # of connection points: 6
#     Node 30, Type 0, BuildingBlock: IZENUY_clean_sbu_0, # of connection points: 6
#     Node 31, Type 0, BuildingBlock: IZENUY_clean_sbu_0, # of connection points: 6
#     Edge 32, Type (0, 0), BuildingBlock: KIFKEQ_clean_linker_1, # of connection points: 2
#     Edge 33, Type (0, 0), BuildingBlock: KIFKEQ_clean_linker_1, # of connection points: 2
#     Edge 34, Type (0, 0), BuildingBlock: KIFKEQ_clean_linker_1, # of connection points: 2
#     Edge 35, Type (0, 0), BuildingBlock: KIFKEQ_clean_linker_1, # of connection points: 2
#     Edge 36, Type (0, 0), BuildingBlock: KIFKEQ_clean_linker_1, # of connection points: 2
#     Edge 37, Type (0, 0), BuildingBlock: KIFKEQ_clean_linker_1, # of connection points: 2
#     Edge 38, Type (0, 0), BuildingBlock: KIFKEQ_clean_linker_1, # of connection points: 2
#     Edge 39, Type (0, 0), BuildingBlock: KIFKEQ_clean_linker_1, # of connection points: 2
#     Edge 40, Type (0, 0), BuildingBlock: KIFKEQ_clean_linker_1, # of connection points: 2
#     Edge 41, Type (0, 0), BuildingBlock: KIFKEQ_clean_linker_1, # of connection points: 2
#     Edge 42, Type (0, 0), BuildingBlock: KIFKEQ_clean_linker_1, # of connection points: 2
#     Edge 43, Type (0, 0), BuildingBlock: KIFKEQ_clean_linker_1, # of connection points: 2
#     Edge 44, Type (0, 0), BuildingBlock: KIFKEQ_clean_linker_1, # of connection points: 2
#     Edge 45, Type (0, 0), BuildingBlock: KIFKEQ_clean_linker_1, # of connection points: 2
#     Edge 46, Type (0, 0), BuildingBlock: KIFKEQ_clean_linker_1, # of connection points: 2
#     Edge 47, Type (0, 0), BuildingBlock: KIFKEQ_clean_linker_1, # of connection points: 2
#     Edge 48, Type (0, 0), BuildingBlock: KIFKEQ_clean_linker_1, # of connection points: 2
#     Edge 49, Type (0, 0), BuildingBlock: KIFKEQ_clean_linker_1, # of connection points: 2
#     Edge 50, Type (0, 0), BuildingBlock: KIFKEQ_clean_linker_1, # of connection points: 2
#     Edge 51, Type (0, 0), BuildingBlock: KIFKEQ_clean_linker_1, # of connection points: 2
#     Edge 52, Type (0, 0), BuildingBlock: KIFKEQ_clean_linker_1, # of connection points: 2
#     Edge 53, Type (0, 0), BuildingBlock: KIFKEQ_clean_linker_1, # of connection points: 2
#     Edge 54, Type (0, 0), BuildingBlock: KIFKEQ_clean_linker_1, # of connection points: 2
#     Edge 55, Type (0, 0), BuildingBlock: KIFKEQ_clean_linker_1, # of connection points: 2
#     Edge 56, Type (0, 0), BuildingBlock: KIFKEQ_clean_linker_1, # of connection points: 2
#     Edge 57, Type (0, 0), BuildingBlock: KIFKEQ_clean_linker_1, # of connection points: 2
#     Edge 58, Type (0, 0), BuildingBlock: KIFKEQ_clean_linker_1, # of connection points: 2
#     Edge 59, Type (0, 0), BuildingBlock: KIFKEQ_clean_linker_1, # of connection points: 2
#     Edge 60, Type (0, 0), BuildingBlock: KIFKEQ_clean_linker_1, # of connection points: 2
#     Edge 61, Type (0, 0), BuildingBlock: KIFKEQ_clean_linker_1, # of connection points: 2
#     Edge 62, Type (0, 0), BuildingBlock: KIFKEQ_clean_linker_1, # of connection points: 2
#     Edge 63, Type (0, 0), BuildingBlock: KIFKEQ_clean_linker_1, # of connection points: 2
#     Edge 64, Type (0, 0), BuildingBlock: KIFKEQ_clean_linker_1, # of connection points: 2
#     Edge 65, Type (0, 0), BuildingBlock: KIFKEQ_clean_linker_1, # of connection points: 2
#     Edge 66, Type (0, 0), BuildingBlock: KIFKEQ_clean_linker_1, # of connection points: 2
#     Edge 67, Type (0, 0), BuildingBlock: KIFKEQ_clean_linker_1, # of connection points: 2
#     Edge 68, Type (0, 0), BuildingBlock: KIFKEQ_clean_linker_1, # of connection points: 2
#     Edge 69, Type (0, 0), BuildingBlock: KIFKEQ_clean_linker_1, # of connection points: 2
#     Edge 70, Type (0, 0), BuildingBlock: KIFKEQ_clean_linker_1, # of connection points: 2
#     Edge 71, Type (0, 0), BuildingBlock: KIFKEQ_clean_linker_1, # of connection points: 2
#     Edge 72, Type (0, 0), BuildingBlock: KIFKEQ_clean_linker_1, # of connection points: 2
#     Edge 73, Type (0, 0), BuildingBlock: KIFKEQ_clean_linker_1, # of connection points: 2
#     Edge 74, Type (0, 0), BuildingBlock: KIFKEQ_clean_linker_1, # of connection points: 2
#     Edge 75, Type (0, 0), BuildingBlock: KIFKEQ_clean_linker_1, # of connection points: 2
#     Edge 76, Type (0, 0), BuildingBlock: KIFKEQ_clean_linker_1, # of connection points: 2
#     Edge 77, Type (0, 0), BuildingBlock: KIFKEQ_clean_linker_1, # of connection points: 2
#     Edge 78, Type (0, 0), BuildingBlock: KIFKEQ_clean_linker_1, # of connection points: 2
#     Edge 79, Type (0, 0), BuildingBlock: KIFKEQ_clean_linker_1, # of connection points: 2
#     Edge 80, Type (0, 0), BuildingBlock: KIFKEQ_clean_linker_1, # of connection points: 2
#     Edge 81, Type (0, 0), BuildingBlock: KIFKEQ_clean_linker_1, # of connection points: 2
#     Edge 82, Type (0, 0), BuildingBlock: KIFKEQ_clean_linker_1, # of connection points: 2
#     Edge 83, Type (0, 0), BuildingBlock: KIFKEQ_clean_linker_1, # of connection points: 2
#     Edge 84, Type (0, 0), BuildingBlock: KIFKEQ_clean_linker_1, # of connection points: 2
#     Edge 85, Type (0, 0), BuildingBlock: KIFKEQ_clean_linker_1, # of connection points: 2
#     Edge 86, Type (0, 0), BuildingBlock: KIFKEQ_clean_linker_1, # of connection points: 2
#     Edge 87, Type (0, 0), BuildingBlock: KIFKEQ_clean_linker_1, # of connection points: 2
#     Edge 88, Type (0, 0), BuildingBlock: KIFKEQ_clean_linker_1, # of connection points: 2
#     Edge 89, Type (0, 0), BuildingBlock: KIFKEQ_clean_linker_1, # of connection points: 2
#     Edge 90, Type (0, 0), BuildingBlock: KIFKEQ_clean_linker_1, # of connection points: 2
#     Edge 91, Type (0, 0), BuildingBlock: KIFKEQ_clean_linker_1, # of connection points: 2
#     Edge 92, Type (0, 0), BuildingBlock: KIFKEQ_clean_linker_1, # of connection points: 2
#     Edge 93, Type (0, 0), BuildingBlock: KIFKEQ_clean_linker_1, # of connection points: 2
#     Edge 94, Type (0, 0), BuildingBlock: KIFKEQ_clean_linker_1, # of connection points: 2
#     Edge 95, Type (0, 0), BuildingBlock: KIFKEQ_clean_linker_1, # of connection points: 2
#     Edge 96, Type (0, 0), BuildingBlock: KIFKEQ_clean_linker_1, # of connection points: 2
#     Edge 97, Type (0, 0), BuildingBlock: KIFKEQ_clean_linker_1, # of connection points: 2
#     Edge 98, Type (0, 0), BuildingBlock: KIFKEQ_clean_linker_1, # of connection points: 2
#     Edge 99, Type (0, 0), BuildingBlock: KIFKEQ_clean_linker_1, # of connection points: 2
#     Edge 100, Type (0, 0), BuildingBlock: KIFKEQ_clean_linker_1, # of connection points: 2
#     Edge 101, Type (0, 0), BuildingBlock: KIFKEQ_clean_linker_1, # of connection points: 2
#     Edge 102, Type (0, 0), BuildingBlock: KIFKEQ_clean_linker_1, # of connection points: 2
#     Edge 103, Type (0, 0), BuildingBlock: KIFKEQ_clean_linker_1, # of connection points: 2
#     Edge 104, Type (0, 0), BuildingBlock: KIFKEQ_clean_linker_1, # of connection points: 2
#     Edge 105, Type (0, 0), BuildingBlock: KIFKEQ_clean_linker_1, # of connection points: 2
#     Edge 106, Type (0, 0), BuildingBlock: KIFKEQ_clean_linker_1, # of connection points: 2
#     Edge 107, Type (0, 0), BuildingBlock: KIFKEQ_clean_linker_1, # of connection points: 2
#     Edge 108, Type (0, 0), BuildingBlock: KIFKEQ_clean_linker_1, # of connection points: 2
#     Edge 109, Type (0, 0), BuildingBlock: KIFKEQ_clean_linker_1, # of connection points: 2
#     Edge 110, Type (0, 0), BuildingBlock: KIFKEQ_clean_linker_1, # of connection points: 2
#     Edge 111, Type (0, 0), BuildingBlock: KIFKEQ_clean_linker_1, # of connection points: 2
#     Edge 112, Type (0, 0), BuildingBlock: KIFKEQ_clean_linker_1, # of connection points: 2
#     Edge 113, Type (0, 0), BuildingBlock: KIFKEQ_clean_linker_1, # of connection points: 2
#     Edge 114, Type (0, 0), BuildingBlock: KIFKEQ_clean_linker_1, # of connection points: 2
#     Edge 115, Type (0, 0), BuildingBlock: KIFKEQ_clean_linker_1, # of connection points: 2
#     Edge 116, Type (0, 0), BuildingBlock: KIFKEQ_clean_linker_1, # of connection points: 2
#     Edge 117, Type (0, 0), BuildingBlock: KIFKEQ_clean_linker_1, # of connection points: 2
#     Edge 118, Type (0, 0), BuildingBlock: KIFKEQ_clean_linker_1, # of connection points: 2
#     Edge 119, Type (0, 0), BuildingBlock: KIFKEQ_clean_linker_1, # of connection points: 2
#     Edge 120, Type (0, 0), BuildingBlock: KIFKEQ_clean_linker_1, # of connection points: 2
#     Edge 121, Type (0, 0), BuildingBlock: KIFKEQ_clean_linker_1, # of connection points: 2
#     Edge 122, Type (0, 0), BuildingBlock: KIFKEQ_clean_linker_1, # of connection points: 2
#     Edge 123, Type (0, 0), BuildingBlock: KIFKEQ_clean_linker_1, # of connection points: 2
#     Edge 124, Type (0, 0), BuildingBlock: KIFKEQ_clean_linker_1, # of connection points: 2
#     Edge 125, Type (0, 0), BuildingBlock: KIFKEQ_clean_linker_1, # of connection points: 2
#     Edge 126, Type (0, 0), BuildingBlock: KIFKEQ_clean_linker_1, # of connection points: 2
#     Edge 127, Type (0, 0), BuildingBlock: KIFKEQ_clean_linker_1, # of connection points: 2
# Relax obj value: 0.294
# Max RMSD: 0.178
# Mean RMSD: 0.178
data_MOF--net-whq--node1-IZENUY_clean_sbu_0--edge1-KIFKEQ_clean_linker_1
_symmetry_space_group_name_H-M    P1
_symmetry_Int_Tables_number       1
_symmetry_cell_setting            triclinic
loop_
_symmetry_equiv_pos_as_xyz
'x, y, z'
_cell_length_a     51.491303
_cell_length_b     51.529831
_cell_length_c     56.895904
_cell_angle_alpha  89.919868
_cell_angle_beta   89.914668
_cell_angle_gamma 89.988645
loop_
_atom_site_label
_atom_site_type_symbol
_atom_site_fract_x
_atom_site_fract_y
_atom_site_fract_z
_atom_type_partial_charge
Fe0 Fe 0.08785 0.18908 0.1618 0.0
Fe1 Fe 0.12885 0.21294 0.12937 0.0
O2 O 0.09682 0.2131 0.14114 0.0
Fe3 Fe 0.07438 0.23741 0.13222 0.0
O4 O 0.05791 0.24 0.16093 0.0
O5 O 0.07954 0.21312 0.18369 0.0
O6 O 0.1199 0.18794 0.1756 0.0
C7 C 0.13815 0.20443 0.17582 0.0
C8 C 0.04242 0.1944 0.13363 0.0
O9 O 0.14299 0.21853 0.15817 0.0
C10 C 0.10024 0.22219 0.09007 0.0
O11 O 0.09559 0.16281 0.14156 0.0
O12 O 0.13389 0.17783 0.13209 0.0
O13 O 0.05067 0.21365 0.12202 0.0
O14 O 0.05421 0.18641 0.15176 0.0
C15 C 0.11899 0.26635 0.13436 0.0
O16 O 0.11624 0.20735 0.10021 0.0
O17 O 0.08684 0.23852 0.10172 0.0
C18 C 0.11796 0.15923 0.13317 0.0
O19 O 0.13053 0.24796 0.12413 0.0
O20 O 0.09617 0.26335 0.14204 0.0
C21 C 0.06411 0.23188 0.1812 0.0
Fe22 Fe 0.83266 0.08231 0.16258 0.0
Fe23 Fe 0.81153 0.12672 0.13258 0.0
O24 O 0.80966 0.094 0.14217 0.0
Fe25 Fe 0.78482 0.07296 0.13181 0.0
O26 O 0.77255 0.06679 0.16146 0.0
O27 O 0.81095 0.05881 0.17649 0.0
O28 O 0.82179 0.10532 0.18431 0.0
C29 C 0.82119 0.12955 0.18134 0.0
C30 C 0.83024 0.04103 0.13302 0.0
O31 O 0.82317 0.13929 0.16094 0.0
C32 C 0.7982 0.09878 0.09129 0.0
O33 O 0.85913 0.10368 0.15304 0.0
O34 O 0.84458 0.12289 0.12137 0.0
O35 O 0.80565 0.04362 0.13251 0.0
O36 O 0.8444 0.05851 0.1418 0.0
C37 C 0.75873 0.12124 0.1382 0.0
O38 O 0.79983 0.11985 0.10268 0.0
O39 O 0.7953 0.07735 0.1017 0.0
C40 C 0.86336 0.11599 0.13418 0.0
O41 O 0.77922 0.13329 0.14328 0.0
O42 O 0.7597 0.09872 0.12917 0.0
C43 C 0.78651 0.05837 0.17801 0.0
Fe44 Fe 0.89338 0.81044 0.13559 0.0
Fe45 Fe 0.94672 0.78294 0.13494 0.0
O46 O 0.92588 0.80781 0.14564 0.0
Fe47 Fe 0.93734 0.83005 0.16684 0.0
O48 O 0.91344 0.81901 0.18783 0.0
O49 O 0.88016 0.82207 0.16389 0.0
O50 O 0.886 0.77819 0.14572 0.0
C51 C 0.89777 0.75765 0.14025 0.0
C52 C 0.9055 0.86173 0.13778 0.0
O53 O 0.92056 0.75841 0.13166 0.0
C54 C 0.9794 0.82776 0.13783 0.0
O55 O 0.9006 0.79906 0.10565 0.0
O56 O 0.94301 0.79407 0.10496 0.0
O57 O 0.9168 0.8572 0.15711 0.0
O58 O 0.8984 0.84324 0.12483 0.0
C59 C 0.96007 0.78303 0.18149 0.0
O60 O 0.97637 0.80329 0.13623 0.0
O61 O 0.96213 0.84186 0.14707 0.0
C62 C 0.92177 0.7973 0.09438 0.0
O63 O 0.9522 0.76982 0.16429 0.0
O64 O 0.95993 0.8075 0.18079 0.0
C65 C 0.8893 0.81907 0.18439 0.0
Fe66 Fe 0.18827 0.93472 0.15893 0.0
Fe67 Fe 0.2107 0.89186 0.12777 0.0
O68 O 0.21161 0.92432 0.13821 0.0
Fe69 Fe 0.23608 0.94613 0.12835 0.0
O70 O 0.24826 0.95139 0.1581 0.0
O71 O 0.20981 0.95737 0.17403 0.0
O72 O 0.19896 0.91061 0.17987 0.0
C73 C 0.19952 0.88661 0.17598 0.0
C74 C 0.1904 0.97766 0.13113 0.0
O75 O 0.19806 0.87787 0.15527 0.0
C76 C 0.22378 0.92136 0.08726 0.0
O77 O 0.16213 0.9139 0.14777 0.0
O78 O 0.17813 0.89556 0.116 0.0
O79 O 0.21495 0.97519 0.12991 0.0
O80 O 0.17649 0.95968 0.13938 0.0
C81 C 0.26298 0.89836 0.13419 0.0
O82 O 0.22324 0.89997 0.09832 0.0
O83 O 0.22559 0.9426 0.09814 0.0
C84 C 0.15892 0.90248 0.12829 0.0
O85 O 0.2428 0.88573 0.13919 0.0
O86 O 0.26153 0.9208 0.125 0.0
C87 C 0.23427 0.95831 0.17523 0.0
Fe88 Fe 0.07139 0.78341 0.37152 0.0
Fe89 Fe 0.08369 0.82967 0.33948 0.0
O90 O 0.09359 0.80721 0.3611 0.0
Fe91 Fe 0.12584 0.8085 0.3719 0.0
O92 O 0.13201 0.77585 0.36187 0.0
O93 O 0.09639 0.75796 0.37599 0.0
O94 O 0.06645 0.77007 0.34221 0.0
C95 C 0.0597 0.7834 0.32466 0.0
C96 C 0.09563 0.7972 0.41247 0.0
O97 O 0.06066 0.80787 0.32516 0.0
C98 C 0.11577 0.86025 0.36912 0.0
O99 O 0.04266 0.80486 0.36894 0.0
O100 O 0.05898 0.84272 0.35866 0.0
O101 O 0.11721 0.79746 0.40169 0.0
O102 O 0.07456 0.79496 0.40139 0.0
C103 C 0.13176 0.81723 0.32325 0.0
O104 O 0.10496 0.85597 0.34953 0.0
O105 O 0.12194 0.84161 0.3824 0.0
C106 C 0.04086 0.82945 0.36753 0.0
O107 O 0.10777 0.81759 0.31912 0.0
O108 O 0.14023 0.81968 0.34401 0.0
C109 C 0.119 0.75602 0.36723 0.0
Fe110 Fe 0.19005 0.07994 0.33811 0.0
Fe111 Fe 0.21245 0.12399 0.36777 0.0
O112 O 0.21377 0.09134 0.35801 0.0
Fe113 Fe 0.23885 0.07009 0.36773 0.0
O114 O 0.25022 0.06426 0.33782 0.0
O115 O 0.21145 0.05672 0.32336 0.0
O116 O 0.20001 0.10329 0.31616 0.0
C117 C 0.20091 0.12749 0.31924 0.0
C118 C 0.19341 0.03833 0.3675 0.0
O119 O 0.20002 0.13701 0.33977 0.0
C120 C 0.22672 0.09555 0.40872 0.0
O121 O 0.16385 0.10112 0.34869 0.0
O122 O 0.17988 0.12032 0.37978 0.0
O123 O 0.218 0.04082 0.36735 0.0
O124 O 0.17903 0.05581 0.35899 0.0
C125 C 0.26496 0.11802 0.36074 0.0
O126 O 0.22482 0.11672 0.39742 0.0
O127 O 0.22939 0.07421 0.39815 0.0
C128 C 0.16056 0.11337 0.36772 0.0
O129 O 0.24449 0.13037 0.35624 0.0
O130 O 0.26408 0.09562 0.36997 0.0
C131 C 0.23587 0.05627 0.32141 0.0
Fe132 Fe 0.94033 0.18752 0.34465 0.0
Fe133 Fe 0.89561 0.21046 0.3734 0.0
O134 O 0.9285 0.21153 0.36402 0.0
Fe135 Fe 0.94959 0.23679 0.37356 0.0
O136 O 0.95545 0.24786 0.34355 0.0
O137 O 0.9635 0.20887 0.32974 0.0
O138 O 0.91723 0.19688 0.3224 0.0
C139 C 0.89299 0.19801 0.32517 0.0
C140 C 0.98196 0.19162 0.37369 0.0
O141 O 0.88303 0.19764 0.34553 0.0
C142 C 0.92368 0.22509 0.41427 0.0
O143 O 0.91922 0.16145 0.35553 0.0
O144 O 0.8988 0.17806 0.38584 0.0
O145 O 0.97918 0.21617 0.37331 0.0
O146 O 0.96432 0.17704 0.36583 0.0
C147 C 0.90149 0.26283 0.36652 0.0
O148 O 0.9026 0.2232 0.40288 0.0
O149 O 0.94523 0.22748 0.40391 0.0
C150 C 0.90628 0.15858 0.37428 0.0
O151 O 0.88947 0.24236 0.36144 0.0
O152 O 0.92387 0.26193 0.37578 0.0
C153 C 0.96364 0.23325 0.32738 0.0
Fe154 Fe 0.78337 0.94754 0.37237 0.0
Fe155 Fe 0.83108 0.93518 0.34165 0.0
O156 O 0.80858 0.926 0.36364 0.0
Fe157 Fe 0.81116 0.89493 0.37674 0.0
O158 O 0.77645 0.89124 0.38208 0.0
O159 O 0.75816 0.92405 0.364 0.0
O160 O 0.77939 0.96248 0.34301 0.0
C161 C 0.78655 0.95514 0.32271 0.0
C162 C 0.80029 0.92441 0.41527 0.0
O163 O 0.80539 0.93973 0.32032 0.0
C164 C 0.86385 0.90986 0.37146 0.0
O165 O 0.8067 0.97256 0.38115 0.0
O166 O 0.83101 0.96958 0.34945 0.0
O167 O 0.8161 0.90921 0.40538 0.0
O168 O 0.78326 0.93652 0.40335 0.0
C169 C 0.82052 0.88279 0.33096 0.0
O170 O 0.85863 0.93104 0.36133 0.0
O171 O 0.84652 0.89271 0.37408 0.0
C172 C 0.82424 0.98162 0.36783 0.0
O173 O 0.83511 0.90247 0.32987 0.0
O174 O 0.8063 0.87869 0.34864 0.0
C175 C 0.75729 0.90088 0.37137 0.0
Fe176 Fe 0.94484 0.78551 0.87447 0.0
Fe177 Fe 0.93305 0.83511 0.84589 0.0
O178 O 0.92313 0.81066 0.8658 0.0
Fe179 Fe 0.89098 0.8114 0.87697 0.0
O180 O 0.88808 0.77643 0.88068 0.0
O181 O 0.92273 0.76017 0.8639 0.0
O182 O 0.96146 0.78355 0.84578 0.0
C183 C 0.95547 0.79226 0.82562 0.0
C184 C 0.9186 0.79988 0.9166 0.0
O185 O 0.94036 0.81137 0.82343 0.0
C186 C 0.90398 0.86482 0.87533 0.0
O187 O 0.96887 0.80856 0.88552 0.0
O188 O 0.96667 0.83595 0.85585 0.0
O189 O 0.903 0.81525 0.90659 0.0
O190 O 0.93195 0.7837 0.90477 0.0
C191 C 0.88204 0.82324 0.83112 0.0
O192 O 0.92632 0.86084 0.86696 0.0
O193 O 0.88741 0.84673 0.87563 0.0
C194 C 0.97773 0.82777 0.87422 0.0
O195 O 0.90112 0.83864 0.83221 0.0
O196 O 0.87723 0.80758 0.84765 0.0
C197 C 0.89922 0.75814 0.86999 0.0
Fe198 Fe 0.18621 0.93803 0.83838 0.0
Fe199 Fe 0.20725 0.89368 0.86856 0.0
O200 O 0.20967 0.92615 0.85838 0.0
Fe201 Fe 0.23542 0.94678 0.86771 0.0
O202 O 0.2467 0.95208 0.83763 0.0
O203 O 0.20803 0.96074 0.82352 0.0
O204 O 0.19578 0.91436 0.81667 0.0
C205 C 0.19628 0.89016 0.81992 0.0
C206 C 0.19058 0.97981 0.86732 0.0
O207 O 0.19481 0.88075 0.84051 0.0
C208 C 0.22265 0.9221 0.90913 0.0
O209 O 0.15948 0.91746 0.84888 0.0
O210 O 0.17476 0.89853 0.88035 0.0
O211 O 0.21515 0.97666 0.86724 0.0
O212 O 0.17577 0.96251 0.85911 0.0
C213 C 0.26009 0.89737 0.86219 0.0
O214 O 0.21955 0.90093 0.89815 0.0
O215 O 0.22622 0.94319 0.8983 0.0
C216 C 0.15572 0.90554 0.86802 0.0
O217 O 0.23912 0.88595 0.85761 0.0
O218 O 0.26005 0.92048 0.87001 0.0
C219 C 0.23242 0.96046 0.82129 0.0
Fe220 Fe 0.07379 0.23965 0.87198 0.0
Fe221 Fe 0.08076 0.19123 0.84161 0.0
O222 O 0.09364 0.21383 0.86175 0.0
Fe223 Fe 0.12626 0.21069 0.87118 0.0
O224 O 0.13427 0.2427 0.86028 0.0
O225 O 0.10064 0.26347 0.87487 0.0
O226 O 0.06878 0.25194 0.84222 0.0
C227 C 0.05905 0.23835 0.82606 0.0
C228 C 0.09868 0.22528 0.91249 0.0
O229 O 0.05796 0.21396 0.8279 0.0
C230 C 0.11345 0.15941 0.86994 0.0
O231 O 0.04335 0.22027 0.8713 0.0
O232 O 0.0567 0.18079 0.86278 0.0
O233 O 0.11976 0.22274 0.9011 0.0
O234 O 0.07744 0.22911 0.90206 0.0
C235 C 0.12841 0.20008 0.82246 0.0
O236 O 0.10105 0.16384 0.85117 0.0
O237 O 0.12108 0.17802 0.88255 0.0
C238 C 0.03981 0.19579 0.87143 0.0
O239 O 0.10416 0.20082 0.81951 0.0
O240 O 0.13816 0.19818 0.84284 0.0
C241 C 0.12318 0.26359 0.86583 0.0
Fe242 Fe 0.78376 0.0747 0.87263 0.0
Fe243 Fe 0.83072 0.08672 0.84116 0.0
O244 O 0.80766 0.09687 0.86228 0.0
Fe245 Fe 0.80844 0.12939 0.87255 0.0
O246 O 0.77583 0.13514 0.86209 0.0
O247 O 0.75792 0.09943 0.87589 0.0
O248 O 0.77131 0.06866 0.8431 0.0
C249 C 0.78513 0.06153 0.82597 0.0
C250 C 0.79636 0.10007 0.91344 0.0
O251 O 0.80955 0.06315 0.82679 0.0
C252 C 0.86046 0.1199 0.87061 0.0
O253 O 0.80566 0.04628 0.87133 0.0
O254 O 0.84359 0.06245 0.86082 0.0
O255 O 0.79715 0.1214 0.90235 0.0
O256 O 0.79422 0.07878 0.90274 0.0
C257 C 0.81808 0.13434 0.82393 0.0
O258 O 0.85665 0.10842 0.85126 0.0
O259 O 0.84151 0.12616 0.8835 0.0
C260 C 0.83027 0.04456 0.87 0.0
O261 O 0.81885 0.11026 0.82029 0.0
O262 O 0.81977 0.14328 0.84459 0.0
C263 C 0.75596 0.12202 0.86713 0.0
Fe264 Fe 0.89797 0.21011 0.63313 0.0
Fe265 Fe 0.95133 0.23732 0.6317 0.0
O266 O 0.93096 0.21184 0.64173 0.0
Fe267 Fe 0.94375 0.18811 0.66091 0.0
O268 O 0.92161 0.19796 0.68391 0.0
O269 O 0.88672 0.19756 0.66157 0.0
O270 O 0.89143 0.24198 0.64483 0.0
C271 C 0.90315 0.2627 0.63993 0.0
C272 C 0.90893 0.15833 0.63307 0.0
O273 O 0.92539 0.26223 0.63033 0.0
C274 C 0.98347 0.19223 0.62979 0.0
O275 O 0.90382 0.22275 0.60333 0.0
O276 O 0.94628 0.22805 0.60149 0.0
O277 O 0.92202 0.16186 0.65157 0.0
O278 O 0.90154 0.17753 0.62102 0.0
C279 C 0.96812 0.23376 0.67689 0.0
O280 O 0.98093 0.21679 0.63087 0.0
O281 O 0.96649 0.17748 0.63867 0.0
C282 C 0.92464 0.22498 0.59155 0.0
O283 O 0.95784 0.24826 0.66165 0.0
O284 O 0.96807 0.20942 0.67432 0.0
C285 C 0.89724 0.19894 0.68167 0.0
Fe286 Fe 0.80856 0.89439 0.63386 0.0
Fe287 Fe 0.78235 0.94844 0.63431 0.0
O288 O 0.80738 0.92703 0.64382 0.0
Fe289 Fe 0.8311 0.93832 0.66373 0.0
O290 O 0.82107 0.91481 0.68545 0.0
O291 O 0.82089 0.88101 0.66185 0.0
O292 O 0.77638 0.888 0.64517 0.0
C293 C 0.756 0.90013 0.63994 0.0
C294 C 0.86048 0.90501 0.63389 0.0
O295 O 0.75712 0.92283 0.63128 0.0
C296 C 0.82772 0.9805 0.63507 0.0
O297 O 0.79636 0.90223 0.6042 0.0
O298 O 0.79223 0.94484 0.60399 0.0
O299 O 0.85732 0.91731 0.65291 0.0
O300 O 0.84117 0.89784 0.62197 0.0
C301 C 0.78521 0.96141 0.68083 0.0
O302 O 0.80312 0.9779 0.63529 0.0
O303 O 0.84212 0.96272 0.64306 0.0
C304 C 0.79484 0.92364 0.59316 0.0
O305 O 0.7708 0.95365 0.66432 0.0
O306 O 0.80963 0.96128 0.67867 0.0
C307 C 0.81986 0.89065 0.68232 0.0
Fe308 Fe 0.12523 0.80952 0.62886 0.0
Fe309 Fe 0.07169 0.78331 0.63252 0.0
O310 O 0.09386 0.80773 0.64169 0.0
Fe311 Fe 0.08513 0.83012 0.66379 0.0
O312 O 0.11769 0.83216 0.67628 0.0
O313 O 0.14097 0.80335 0.65697 0.0
O314 O 0.12764 0.77488 0.62291 0.0
C315 C 0.11769 0.75607 0.63389 0.0
C316 C 0.1122 0.86242 0.63463 0.0
O317 O 0.09445 0.75742 0.64107 0.0
C318 C 0.03872 0.82511 0.637 0.0
O319 O 0.11127 0.81568 0.60027 0.0
O320 O 0.0832 0.78342 0.60172 0.0
O321 O 0.09076 0.85783 0.64456 0.0
O322 O 0.12885 0.84461 0.63223 0.0
C323 C 0.06298 0.78625 0.68198 0.0
O324 O 0.04735 0.80738 0.62369 0.0
O325 O 0.05096 0.83167 0.65533 0.0
C326 C 0.09559 0.80057 0.59012 0.0
O327 O 0.05601 0.77937 0.66154 0.0
O328 O 0.07904 0.8044 0.68472 0.0
C329 C 0.13639 0.8163 0.67531 0.0
Fe330 Fe 0.23747 0.07061 0.62807 0.0
Fe331 Fe 0.19013 0.08253 0.65898 0.0
O332 O 0.21334 0.09264 0.63807 0.0
Fe333 Fe 0.21248 0.125 0.62747 0.0
O334 O 0.24464 0.13098 0.63878 0.0
O335 O 0.26299 0.09572 0.62451 0.0
O336 O 0.24989 0.06521 0.65772 0.0
C337 C 0.23601 0.05831 0.67493 0.0
C338 C 0.22522 0.09554 0.58697 0.0
O339 O 0.21154 0.05953 0.67393 0.0
C340 C 0.1607 0.11466 0.62832 0.0
O341 O 0.21608 0.04182 0.62994 0.0
O342 O 0.17787 0.05787 0.63942 0.0
O343 O 0.22498 0.11687 0.59804 0.0
O344 O 0.22673 0.07425 0.59787 0.0
C345 C 0.20142 0.13054 0.67576 0.0
O346 O 0.16417 0.10371 0.64802 0.0
O347 O 0.17986 0.12112 0.61574 0.0
C348 C 0.19149 0.03981 0.63099 0.0
O349 O 0.20129 0.10653 0.67979 0.0
O350 O 0.19988 0.13909 0.65495 0.0
C351 C 0.26465 0.11807 0.63379 0.0
Fe352 Fe 0.57993 0.68558 0.65977 0.0
Fe353 Fe 0.62566 0.70494 0.63029 0.0
O354 O 0.59292 0.70814 0.63949 0.0
Fe355 Fe 0.57307 0.73384 0.62904 0.0
O356 O 0.56733 0.746 0.65876 0.0
O357 O 0.55643 0.708 0.67294 0.0
O358 O 0.60272 0.69588 0.68188 0.0
C359 C 0.62705 0.69591 0.6793 0.0
C360 C 0.53932 0.68938 0.62979 0.0
O361 O 0.6372 0.6933 0.65908 0.0
C362 C 0.59871 0.7195 0.58869 0.0
O363 O 0.60084 0.65833 0.65098 0.0
O364 O 0.62069 0.67209 0.61936 0.0
O365 O 0.5428 0.71392 0.62918 0.0
O366 O 0.55639 0.67465 0.63853 0.0
C367 C 0.6227 0.75799 0.6352 0.0
O368 O 0.6196 0.71652 0.60018 0.0
O369 O 0.57738 0.72357 0.59894 0.0
C370 C 0.6134 0.65363 0.63234 0.0
O371 O 0.6336 0.73697 0.64055 0.0
O372 O 0.59984 0.75807 0.62675 0.0
C373 C 0.55719 0.73238 0.67473 0.0
Fe374 Fe 0.33211 0.57952 0.65745 0.0
Fe375 Fe 0.30726 0.62559 0.63193 0.0
O376 O 0.30664 0.59244 0.64027 0.0
Fe377 Fe 0.28047 0.57195 0.63195 0.0
O378 O 0.2721 0.56531 0.66262 0.0
O379 O 0.31199 0.55517 0.67245 0.0
O380 O 0.32457 0.60137 0.68128 0.0
C381 C 0.32346 0.62575 0.67945 0.0
C382 C 0.32536 0.53989 0.6269 0.0
O383 O 0.32203 0.63669 0.65951 0.0
C384 C 0.28955 0.59904 0.59119 0.0
O385 O 0.35746 0.60121 0.6461 0.0
O386 O 0.33874 0.62288 0.61761 0.0
O387 O 0.30095 0.54239 0.62972 0.0
O388 O 0.34069 0.55707 0.6344 0.0
C389 C 0.25526 0.61989 0.64168 0.0
O390 O 0.29259 0.61976 0.60293 0.0
O391 O 0.28715 0.57728 0.60118 0.0
C392 C 0.35898 0.61488 0.6277 0.0
O393 O 0.27623 0.63155 0.64576 0.0
O394 O 0.25535 0.59767 0.63216 0.0
C395 C 0.28792 0.55509 0.6768 0.0
Fe396 Fe 0.39096 0.31141 0.62906 0.0
Fe397 Fe 0.44464 0.28458 0.63127 0.0
O398 O 0.42303 0.30964 0.64026 0.0
Fe399 Fe 0.43324 0.333 0.66095 0.0
O400 O 0.40866 0.32253 0.68153 0.0
O401 O 0.37659 0.32441 0.65624 0.0
O402 O 0.38356 0.27959 0.64027 0.0
C403 C 0.3958 0.25895 0.63606 0.0
C404 C 0.40236 0.36282 0.62961 0.0
O405 O 0.41895 0.25954 0.62824 0.0
C406 C 0.47641 0.33017 0.63354 0.0
O407 O 0.39947 0.29873 0.60001 0.0
O408 O 0.44196 0.29396 0.60076 0.0
O409 O 0.41276 0.35933 0.64952 0.0
O410 O 0.39606 0.34367 0.61712 0.0
C411 C 0.45643 0.28718 0.67805 0.0
O412 O 0.47386 0.30558 0.63267 0.0
O413 O 0.45851 0.34433 0.64157 0.0
C414 C 0.42107 0.29673 0.58957 0.0
O415 O 0.44928 0.27302 0.66123 0.0
O416 O 0.45562 0.31157 0.67648 0.0
C417 C 0.38474 0.32253 0.67714 0.0
Fe418 Fe 0.71136 0.38919 0.63033 0.0
Fe419 Fe 0.73709 0.44318 0.63136 0.0
O420 O 0.71256 0.4214 0.6414 0.0
Fe421 Fe 0.68938 0.43129 0.66253 0.0
O422 O 0.68784 0.39966 0.67713 0.0
O423 O 0.71721 0.37543 0.65941 0.0
O424 O 0.74608 0.38672 0.62473 0.0
C425 C 0.76479 0.39765 0.63496 0.0
C426 C 0.65809 0.40138 0.63499 0.0
O427 O 0.76307 0.42117 0.64106 0.0
C428 C 0.69447 0.47576 0.63315 0.0
O429 O 0.7055 0.40123 0.6008 0.0
O430 O 0.73726 0.43 0.60115 0.0
O431 O 0.66223 0.42371 0.64318 0.0
O432 O 0.67632 0.38508 0.63372 0.0
C433 C 0.73316 0.45473 0.68023 0.0
O434 O 0.71326 0.46701 0.62118 0.0
O435 O 0.68713 0.46466 0.65186 0.0
C436 C 0.72042 0.41674 0.59003 0.0
O437 O 0.74067 0.46034 0.65961 0.0
O438 O 0.71438 0.43951 0.68358 0.0
C439 C 0.7038 0.38096 0.67736 0.0
Fe440 Fe 0.57362 0.28414 0.86774 0.0
Fe441 Fe 0.58851 0.32939 0.83516 0.0
O442 O 0.59674 0.30722 0.8577 0.0
Fe443 Fe 0.62827 0.30801 0.87025 0.0
O444 O 0.6295 0.27318 0.87671 0.0
O445 O 0.59486 0.25718 0.8595 0.0
O446 O 0.55736 0.28025 0.83916 0.0
C447 C 0.56455 0.28581 0.81846 0.0
C448 C 0.59852 0.30092 0.90948 0.0
O449 O 0.58112 0.30336 0.81488 0.0
C450 C 0.61703 0.36129 0.86356 0.0
O451 O 0.55081 0.30952 0.87652 0.0
O452 O 0.55445 0.33256 0.84409 0.0
O453 O 0.6148 0.31518 0.89901 0.0
O454 O 0.58552 0.28408 0.89827 0.0
C455 C 0.63946 0.31377 0.82347 0.0
O456 O 0.59547 0.35728 0.85369 0.0
O457 O 0.63305 0.34295 0.86632 0.0
C458 C 0.5426 0.32723 0.86302 0.0
O459 O 0.62098 0.32988 0.82215 0.0
O460 O 0.64362 0.30096 0.84205 0.0
C461 C 0.6176 0.25436 0.86743 0.0
Fe462 Fe 0.68944 0.58241 0.84263 0.0
Fe463 Fe 0.71321 0.62593 0.87197 0.0
O464 O 0.71388 0.59336 0.86195 0.0
Fe465 Fe 0.73904 0.57176 0.87075 0.0
O466 O 0.74942 0.56626 0.84044 0.0
O467 O 0.71005 0.5591 0.82721 0.0
O468 O 0.69913 0.60574 0.82071 0.0
C469 C 0.70038 0.62988 0.82388 0.0
C470 C 0.69324 0.54029 0.87102 0.0
O471 O 0.70001 0.63934 0.84443 0.0
C472 C 0.72829 0.59683 0.91222 0.0
O473 O 0.66388 0.60378 0.85397 0.0
O474 O 0.68101 0.62251 0.8848 0.0
O475 O 0.71785 0.54269 0.87043 0.0
O476 O 0.67877 0.55826 0.86357 0.0
C477 C 0.76542 0.61961 0.86374 0.0
O478 O 0.72642 0.61815 0.90117 0.0
O479 O 0.73049 0.57556 0.90142 0.0
C480 C 0.66129 0.61586 0.87316 0.0
O481 O 0.74491 0.63208 0.85969 0.0
O482 O 0.76459 0.59706 0.87271 0.0
C483 C 0.73437 0.55858 0.8244 0.0
Fe484 Fe 0.44497 0.69074 0.84405 0.0
Fe485 Fe 0.399 0.71379 0.87097 0.0
O486 O 0.43201 0.71524 0.8623 0.0
Fe487 Fe 0.4523 0.74125 0.87134 0.0
O488 O 0.45846 0.75099 0.84094 0.0
O489 O 0.46902 0.71171 0.82966 0.0
O490 O 0.42278 0.69922 0.82073 0.0
C491 C 0.39839 0.69981 0.82287 0.0
C492 C 0.48492 0.69648 0.87452 0.0
O493 O 0.38774 0.70003 0.84299 0.0
C494 C 0.4258 0.73031 0.91198 0.0
O495 O 0.42347 0.66473 0.85453 0.0
O496 O 0.40254 0.68181 0.88422 0.0
O497 O 0.48217 0.72098 0.87258 0.0
O498 O 0.46779 0.68132 0.8666 0.0
C499 C 0.40382 0.76613 0.86295 0.0
O500 O 0.40498 0.72738 0.90035 0.0
O501 O 0.44744 0.73323 0.9019 0.0
C502 C 0.41002 0.6621 0.87301 0.0
O503 O 0.39237 0.74524 0.85823 0.0
O504 O 0.42617 0.76601 0.87228 0.0
C505 C 0.46864 0.73591 0.8261 0.0
Fe506 Fe 0.28593 0.45018 0.87446 0.0
Fe507 Fe 0.33548 0.44471 0.84526 0.0
O508 O 0.31248 0.43105 0.86471 0.0
Fe509 Fe 0.31607 0.39836 0.87383 0.0
O510 O 0.2847 0.38981 0.8623 0.0
O511 O 0.26237 0.42278 0.87609 0.0
O512 O 0.27469 0.45566 0.84441 0.0
C513 C 0.28865 0.46614 0.82885 0.0
C514 C 0.29936 0.42461 0.91503 0.0
O515 O 0.31293 0.46765 0.83145 0.0
C516 C 0.36701 0.41207 0.87378 0.0
O517 O 0.30504 0.48097 0.87486 0.0
O518 O 0.345 0.46826 0.86705 0.0
O519 O 0.30294 0.4039 0.90346 0.0
O520 O 0.29535 0.446 0.90484 0.0
C521 C 0.32713 0.39747 0.82536 0.0
O522 O 0.36288 0.42453 0.85497 0.0
O523 O 0.34821 0.40402 0.88596 0.0
C524 C 0.32954 0.48479 0.87556 0.0
O525 O 0.32658 0.42176 0.82268 0.0
O526 O 0.32948 0.38734 0.84556 0.0
C527 C 0.26326 0.40002 0.86747 0.0
Fe528 Fe 0.43215 0.33307 0.34321 0.0
Fe529 Fe 0.39055 0.30721 0.37347 0.0
O530 O 0.4228 0.30771 0.3624 0.0
Fe531 Fe 0.44521 0.28288 0.37043 0.0
O532 O 0.46187 0.28228 0.34179 0.0
O533 O 0.44025 0.31032 0.32006 0.0
O534 O 0.40019 0.33624 0.3296 0.0
C535 C 0.38124 0.32071 0.32822 0.0
C536 C 0.47699 0.32596 0.37136 0.0
O537 O 0.37697 0.30415 0.34409 0.0
C538 C 0.41838 0.29506 0.41268 0.0
O539 O 0.42464 0.35787 0.365 0.0
O540 O 0.38607 0.34247 0.37321 0.0
O541 O 0.46861 0.30618 0.38211 0.0
O542 O 0.46571 0.3345 0.35324 0.0
C543 C 0.40025 0.2545 0.36502 0.0
O544 O 0.4022 0.31016 0.40317 0.0
O545 O 0.43248 0.27984 0.40059 0.0
C546 C 0.40216 0.36098 0.3734 0.0
O547 O 0.38853 0.27211 0.3761 0.0
O548 O 0.42378 0.25728 0.35919 0.0
C549 C 0.4559 0.29157 0.32186 0.0
Fe550 Fe 0.68668 0.43651 0.33977 0.0
Fe551 Fe 0.70619 0.39191 0.37046 0.0
O552 O 0.70922 0.42442 0.36047 0.0
Fe553 Fe 0.73468 0.44478 0.37071 0.0
O554 O 0.74721 0.45017 0.34103 0.0
O555 O 0.7092 0.45916 0.32567 0.0
O556 O 0.69708 0.41283 0.31836 0.0
C557 C 0.69701 0.38864 0.3216 0.0
C558 C 0.69017 0.47822 0.3689 0.0
O559 O 0.6943 0.37917 0.34206 0.0
C560 C 0.72035 0.41996 0.41164 0.0
O561 O 0.65943 0.41605 0.34947 0.0
O562 O 0.67348 0.39717 0.38147 0.0
O563 O 0.7147 0.47483 0.36968 0.0
O564 O 0.67556 0.46104 0.36018 0.0
C565 C 0.75917 0.39526 0.36545 0.0
O566 O 0.71781 0.39886 0.40041 0.0
O567 O 0.72415 0.44112 0.40097 0.0
C568 C 0.65492 0.40427 0.36859 0.0
O569 O 0.73829 0.38401 0.3602 0.0
O570 O 0.75899 0.41822 0.37364 0.0
C571 C 0.73365 0.45876 0.32428 0.0
Fe572 Fe 0.62554 0.7099 0.36962 0.0
Fe573 Fe 0.57239 0.73787 0.37078 0.0
O574 O 0.59275 0.71241 0.36043 0.0
Fe575 Fe 0.58026 0.68945 0.34035 0.0
O576 O 0.60319 0.69955 0.31815 0.0
O577 O 0.63747 0.69805 0.34113 0.0
O578 O 0.63274 0.74204 0.35885 0.0
C579 C 0.62114 0.76281 0.36386 0.0
C580 C 0.61379 0.65831 0.36842 0.0
O581 O 0.59861 0.76241 0.37293 0.0
C582 C 0.53964 0.6931 0.37071 0.0
O583 O 0.61919 0.72157 0.39958 0.0
O584 O 0.57686 0.7279 0.40097 0.0
O585 O 0.6012 0.66252 0.34973 0.0
O586 O 0.62123 0.67707 0.38093 0.0
C587 C 0.55736 0.73599 0.3248 0.0
O588 O 0.54256 0.71765 0.37067 0.0
O589 O 0.55661 0.67851 0.36165 0.0
C590 C 0.59829 0.72421 0.41114 0.0
O591 O 0.56635 0.74985 0.3411 0.0
O592 O 0.55694 0.71159 0.32663 0.0
C593 C 0.62749 0.69995 0.32085 0.0
Fe594 Fe 0.33152 0.58235 0.34277 0.0
Fe595 Fe 0.31057 0.62657 0.37293 0.0
O596 O 0.30842 0.59403 0.36312 0.0
Fe597 Fe 0.28325 0.57328 0.37313 0.0
O598 O 0.27147 0.56755 0.34331 0.0
O599 O 0.3099 0.55881 0.32874 0.0
O600 O 0.32088 0.6057 0.3211 0.0
C601 C 0.32107 0.62985 0.32446 0.0
C602 C 0.32863 0.54109 0.37225 0.0
O603 O 0.3234 0.63913 0.34495 0.0
C604 C 0.29567 0.59877 0.41386 0.0
O605 O 0.35803 0.60346 0.35276 0.0
O606 O 0.34301 0.62174 0.38474 0.0
O607 O 0.304 0.54375 0.37279 0.0
O608 O 0.34289 0.55847 0.36344 0.0
C609 C 0.25799 0.62211 0.36666 0.0
O610 O 0.29782 0.6198 0.40248 0.0
O611 O 0.29309 0.57738 0.40341 0.0
C612 C 0.36196 0.61483 0.37215 0.0
O613 O 0.27875 0.63379 0.36168 0.0
O614 O 0.25842 0.59937 0.37539 0.0
C615 C 0.28549 0.55852 0.32709 0.0
Fe616 Fe 0.44912 0.73689 0.13075 0.0
Fe617 Fe 0.44138 0.68702 0.15925 0.0
O618 O 0.42911 0.71049 0.13956 0.0
Fe619 Fe 0.39682 0.70749 0.12913 0.0
O620 O 0.38818 0.73874 0.14097 0.0
O621 O 0.42211 0.76069 0.12846 0.0
O622 O 0.45361 0.74779 0.16101 0.0
C623 C 0.46203 0.73339 0.17726 0.0
C624 C 0.42512 0.7246 0.08921 0.0
O625 O 0.4633 0.70913 0.17456 0.0
C626 C 0.41015 0.65642 0.12875 0.0
O627 O 0.47956 0.71757 0.13127 0.0
O628 O 0.46631 0.67769 0.13851 0.0
O629 O 0.4039 0.72128 0.10008 0.0
O630 O 0.44617 0.72788 0.10012 0.0
C631 C 0.39306 0.69513 0.17717 0.0
O632 O 0.42169 0.66005 0.14808 0.0
O633 O 0.4028 0.67555 0.1166 0.0
C634 C 0.4832 0.69313 0.1305 0.0
O635 O 0.41716 0.69555 0.1809 0.0
O636 O 0.38409 0.69345 0.15653 0.0
C637 C 0.39907 0.76005 0.13651 0.0
Fe638 Fe 0.28373 0.44832 0.13299 0.0
Fe639 Fe 0.3329 0.43898 0.16174 0.0
O640 O 0.30873 0.4271 0.14257 0.0
Fe641 Fe 0.30947 0.39411 0.13364 0.0
O642 O 0.27732 0.38824 0.14537 0.0
O643 O 0.25823 0.42308 0.13136 0.0
O644 O 0.27311 0.45464 0.16313 0.0
C645 C 0.28796 0.46421 0.17845 0.0
C646 C 0.29497 0.42186 0.09241 0.0
O647 O 0.31228 0.46355 0.17571 0.0
C648 C 0.36149 0.40413 0.13293 0.0
O649 O 0.30503 0.47743 0.13241 0.0
O650 O 0.34403 0.46194 0.13984 0.0
O651 O 0.29707 0.40085 0.10393 0.0
O652 O 0.29252 0.44345 0.10261 0.0
C653 C 0.32071 0.39247 0.18204 0.0
O654 O 0.35857 0.41685 0.15175 0.0
O655 O 0.34199 0.3969 0.12131 0.0
C656 C 0.32968 0.47953 0.13143 0.0
O657 O 0.32248 0.41674 0.18446 0.0
O658 O 0.32191 0.382 0.16192 0.0
C659 C 0.25699 0.40057 0.14033 0.0
Fe660 Fe 0.57436 0.28428 0.12965 0.0
Fe661 Fe 0.58658 0.3316 0.1607 0.0
O662 O 0.59601 0.30919 0.1388 0.0
Fe663 Fe 0.62744 0.31166 0.12632 0.0
O664 O 0.63118 0.27703 0.12102 0.0
O665 O 0.59758 0.25873 0.13798 0.0
O666 O 0.55914 0.28014 0.15886 0.0
C667 C 0.56613 0.28726 0.17926 0.0
C668 C 0.59839 0.30154 0.08726 0.0
O669 O 0.58182 0.30581 0.18188 0.0
C670 C 0.61214 0.36421 0.13094 0.0
O671 O 0.54941 0.30781 0.12086 0.0
O672 O 0.55226 0.33157 0.15278 0.0
O673 O 0.61395 0.31673 0.09742 0.0
O674 O 0.58567 0.28461 0.0988 0.0
C675 C 0.63862 0.32093 0.17231 0.0
O676 O 0.59086 0.35905 0.14096 0.0
O677 O 0.62955 0.34701 0.12897 0.0
C678 C 0.54019 0.325 0.1344 0.0
O679 O 0.61911 0.33575 0.17282 0.0
O680 O 0.64302 0.30664 0.15477 0.0
C681 C 0.62097 0.25776 0.13113 0.0
Fe682 Fe 0.71406 0.62555 0.13066 0.0
Fe683 Fe 0.73775 0.57048 0.13139 0.0
O684 O 0.71388 0.59304 0.14097 0.0
Fe685 Fe 0.68988 0.58318 0.16127 0.0
O686 O 0.70124 0.60644 0.18256 0.0
O687 O 0.70196 0.63959 0.15828 0.0
O688 O 0.7463 0.63059 0.14216 0.0
C689 C 0.76607 0.61724 0.1374 0.0
C690 C 0.66183 0.61686 0.13096 0.0
O691 O 0.76404 0.59484 0.12837 0.0
C692 C 0.69092 0.54099 0.13271 0.0
O693 O 0.72644 0.61726 0.10126 0.0
O694 O 0.72794 0.57455 0.10102 0.0
O695 O 0.66475 0.60529 0.1504 0.0
O696 O 0.68134 0.623 0.11869 0.0
C697 C 0.73462 0.55773 0.17809 0.0
O698 O 0.71558 0.5423 0.13259 0.0
O699 O 0.67746 0.55925 0.14103 0.0
C700 C 0.72679 0.59591 0.09019 0.0
O701 O 0.74922 0.56462 0.16135 0.0
O702 O 0.71023 0.5593 0.17627 0.0
C703 C 0.7028 0.63051 0.17896 0.0
H704 H 0.19146 0.17988 0.31806 0.0
H705 H 0.20794 0.11414 0.27335 0.0
H706 H 0.18412 0.20674 0.28323 0.0
H707 H 0.20051 0.1408 0.23883 0.0
H708 H 0.12424 0.21612 0.21989 0.0
H709 H 0.14709 0.20375 0.25557 0.0
H710 H 0.21262 0.1786 0.21386 0.0
H711 H 0.18934 0.1912 0.17796 0.0
C712 C 0.19396 0.17127 0.30085 0.0
C713 C 0.19976 0.14474 0.29847 0.0
C714 C 0.18982 0.18667 0.28093 0.0
C715 C 0.19166 0.17587 0.25831 0.0
C716 C 0.19925 0.14982 0.25598 0.0
C717 C 0.20318 0.13442 0.27582 0.0
C718 C 0.14394 0.20896 0.2185 0.0
C719 C 0.15514 0.20458 0.19641 0.0
C720 C 0.15711 0.20194 0.2389 0.0
C721 C 0.18157 0.18996 0.23751 0.0
C722 C 0.19371 0.18765 0.2154 0.0
C723 C 0.18056 0.19502 0.19493 0.0
H724 H 0.90718 0.20541 0.27966 0.0
H725 H 0.84088 0.1872 0.32332 0.0
H726 H 0.88193 0.19636 0.24481 0.0
H727 H 0.81529 0.17824 0.28808 0.0
H728 H 0.81053 0.1162 0.22655 0.0
H729 H 0.82087 0.14064 0.26165 0.0
H730 H 0.84482 0.20569 0.21879 0.0
H731 H 0.83473 0.18091 0.18337 0.0
C732 C 0.88703 0.19999 0.2818 0.0
C733 C 0.87622 0.19643 0.30424 0.0
C734 C 0.87241 0.19513 0.26177 0.0
C735 C 0.84666 0.18645 0.26373 0.0
C736 C 0.83519 0.18472 0.28611 0.0
C737 C 0.84984 0.1898 0.30624 0.0
C738 C 0.8175 0.13589 0.22457 0.0
C739 C 0.82255 0.14636 0.20223 0.0
C740 C 0.8231 0.15006 0.24473 0.0
C741 C 0.83395 0.17496 0.24293 0.0
C742 C 0.83676 0.18638 0.22062 0.0
C743 C 0.83101 0.17219 0.20038 0.0
H744 H 0.89525 0.79145 0.22443 0.0
H745 H 0.8449 0.84728 0.19102 0.0
H746 H 0.87228 0.7975 0.26149 0.0
H747 H 0.82254 0.85438 0.22838 0.0
H748 H 0.78575 0.86545 0.29841 0.0
H749 H 0.79675 0.84161 0.26233 0.0
H750 H 0.87581 0.8337 0.28696 0.0
H751 H 0.86458 0.85691 0.32256 0.0
C752 C 0.879 0.80479 0.22502 0.0
C753 C 0.87213 0.81931 0.20511 0.0
C754 C 0.86585 0.80829 0.24622 0.0
C755 C 0.84595 0.82687 0.24808 0.0
C756 C 0.83767 0.83981 0.22759 0.0
C757 C 0.85056 0.83591 0.2062 0.0
C758 C 0.80512 0.85756 0.29633 0.0
C759 C 0.82435 0.8627 0.31311 0.0
C760 C 0.81152 0.84423 0.27564 0.0
C761 C 0.8372 0.83585 0.27163 0.0
C762 C 0.85576 0.83941 0.28947 0.0
C763 C 0.84941 0.85279 0.30991 0.0
H764 H 0.16943 0.85323 0.31782 0.0
H765 H 0.13292 0.78825 0.28357 0.0
H766 H 0.19133 0.86464 0.28153 0.0
H767 H 0.15666 0.79791 0.2475 0.0
H768 H 0.16324 0.84923 0.18164 0.0
H769 H 0.1524 0.82684 0.21786 0.0
H770 H 0.21969 0.8611 0.25139 0.0
H771 H 0.22875 0.88532 0.21546 0.0
C772 C 0.16702 0.84077 0.30265 0.0
C773 C 0.14943 0.82009 0.30323 0.0
C774 C 0.17971 0.84715 0.28175 0.0
C775 C 0.17556 0.8325 0.26116 0.0
C776 C 0.15971 0.81025 0.26261 0.0
C777 C 0.14634 0.80445 0.28332 0.0
C778 C 0.17589 0.85149 0.19671 0.0
C779 C 0.19658 0.86907 0.19605 0.0
C780 C 0.16986 0.8385 0.21754 0.0
C781 C 0.1849 0.84233 0.23796 0.0
C782 C 0.20707 0.85827 0.23642 0.0
C783 C 0.21251 0.87195 0.2158 0.0
H784 H 0.85916 0.86834 0.82047 0.0
H785 H 0.86408 0.78838 0.79869 0.0
H786 H 0.83684 0.87939 0.78437 0.0
H787 H 0.8412 0.79931 0.76201 0.0
H788 H 0.8474 0.84586 0.68926 0.0
H789 H 0.85477 0.82417 0.72699 0.0
H790 H 0.79939 0.87569 0.75994 0.0
H791 H 0.79304 0.89789 0.72255 0.0
C792 C 0.85461 0.85297 0.80815 0.0
C793 C 0.86318 0.82757 0.81222 0.0
C794 C 0.84169 0.85922 0.78746 0.0
C795 C 0.83723 0.84023 0.7702 0.0
C796 C 0.84449 0.81438 0.77491 0.0
C797 C 0.8573 0.80805 0.79592 0.0
C798 C 0.8364 0.85204 0.70451 0.0
C799 C 0.82015 0.87386 0.70327 0.0
C800 C 0.84047 0.83955 0.72609 0.0
C801 C 0.82804 0.84855 0.74659 0.0
C802 C 0.80977 0.86871 0.74463 0.0
C803 C 0.80611 0.88142 0.72325 0.0
H804 H 0.18769 0.82935 0.67798 0.0
H805 H 0.12265 0.80199 0.71877 0.0
H806 H 0.21066 0.84054 0.71437 0.0
H807 H 0.14505 0.81316 0.7549 0.0
H808 H 0.18654 0.83773 0.81845 0.0
H809 H 0.18049 0.81101 0.78338 0.0
H810 H 0.19868 0.87714 0.73959 0.0
H811 H 0.205 0.90349 0.77429 0.0
C812 C 0.17887 0.82469 0.69477 0.0
C813 C 0.1535 0.81494 0.69581 0.0
C814 C 0.19183 0.83128 0.71555 0.0
C815 C 0.17951 0.8281 0.73752 0.0
C816 C 0.15523 0.81571 0.73838 0.0
C817 C 0.1423 0.80938 0.7177 0.0
C818 C 0.1897 0.84639 0.80133 0.0
C819 C 0.19567 0.8729 0.79915 0.0
C820 C 0.18629 0.83108 0.78126 0.0
C821 C 0.189 0.84196 0.75869 0.0
C822 C 0.19677 0.86799 0.75665 0.0
C823 C 0.20002 0.88326 0.77662 0.0
H824 H 0.16288 0.1657 0.68019 0.0
H825 H 0.22922 0.13363 0.71606 0.0
H826 H 0.14938 0.18738 0.71597 0.0
H827 H 0.21741 0.15729 0.75159 0.0
H828 H 0.16641 0.16435 0.81718 0.0
H829 H 0.1885 0.15261 0.78111 0.0
H830 H 0.1509 0.21673 0.74535 0.0
H831 H 0.12703 0.22665 0.78127 0.0
C832 C 0.17512 0.16423 0.69562 0.0
C833 C 0.1969 0.14799 0.69562 0.0
C834 C 0.16752 0.1768 0.71622 0.0
C835 C 0.18202 0.17392 0.73708 0.0
C836 C 0.20517 0.15933 0.73625 0.0
C837 C 0.21221 0.14603 0.71586 0.0
C838 C 0.16324 0.17608 0.80162 0.0
C839 C 0.14494 0.19616 0.80177 0.0
C840 C 0.17608 0.16955 0.78086 0.0
C841 C 0.17144 0.18349 0.75993 0.0
C842 C 0.15445 0.20493 0.76076 0.0
C843 C 0.14094 0.21086 0.78136 0.0
H844 H 0.80544 0.12397 0.77864 0.0
H845 H 0.8368 0.18399 0.82335 0.0
H846 H 0.81909 0.14811 0.74413 0.0
H847 H 0.85029 0.20843 0.78859 0.0
H848 H 0.91274 0.20263 0.72737 0.0
H849 H 0.88649 0.19526 0.76223 0.0
H850 H 0.81807 0.18722 0.71898 0.0
H851 H 0.84441 0.19424 0.68389 0.0
C852 C 0.81464 0.14268 0.78105 0.0
C853 C 0.82069 0.1518 0.80361 0.0
C854 C 0.82222 0.15667 0.76127 0.0
C855 C 0.83607 0.17997 0.76372 0.0
C856 C 0.8399 0.19033 0.78628 0.0
C857 C 0.83213 0.17638 0.80613 0.0
C858 C 0.89204 0.19967 0.72528 0.0
C859 C 0.88077 0.19825 0.70286 0.0
C860 C 0.87692 0.19582 0.7453 0.0
C861 C 0.85027 0.19048 0.74326 0.0
C862 C 0.83863 0.19104 0.72097 0.0
C863 C 0.85375 0.19496 0.70092 0.0
H864 H 0.67938 0.68668 0.68201 0.0
H865 H 0.61193 0.70403 0.72457 0.0
H866 H 0.70462 0.67893 0.71763 0.0
H867 H 0.63685 0.6957 0.75987 0.0
H868 H 0.71229 0.61779 0.77882 0.0
H869 H 0.7007 0.64184 0.74378 0.0
H870 H 0.67249 0.70496 0.7868 0.0
H871 H 0.68369 0.68038 0.82218 0.0
C872 C 0.67006 0.68922 0.69893 0.0
C873 C 0.64349 0.69519 0.70049 0.0
C874 C 0.68451 0.68482 0.7193 0.0
C875 C 0.67263 0.68636 0.74153 0.0
C876 C 0.64666 0.69452 0.74306 0.0
C877 C 0.63225 0.69892 0.72276 0.0
C878 C 0.70402 0.63698 0.78083 0.0
C879 C 0.69819 0.64691 0.80318 0.0
C880 C 0.69771 0.65097 0.76071 0.0
C881 C 0.68538 0.67519 0.76253 0.0
C882 C 0.68165 0.68616 0.78491 0.0
C883 C 0.6881 0.67214 0.80513 0.0
H884 H 0.34737 0.68536 0.82082 0.0
H885 H 0.41311 0.70593 0.77723 0.0
H886 H 0.32307 0.67287 0.78579 0.0
H887 H 0.3889 0.69329 0.7424 0.0
H888 H 0.31885 0.61036 0.72502 0.0
H889 H 0.33163 0.63443 0.75987 0.0
H890 H 0.34997 0.70107 0.71678 0.0
H891 H 0.33731 0.6769 0.68172 0.0
C892 C 0.35645 0.68768 0.80376 0.0
C893 C 0.38232 0.69611 0.80176 0.0
C894 C 0.34255 0.68051 0.78376 0.0
C895 C 0.35421 0.68194 0.76148 0.0
C896 C 0.37937 0.69218 0.75936 0.0
C897 C 0.39333 0.69914 0.77933 0.0
C898 C 0.32524 0.63027 0.723 0.0
C899 C 0.32757 0.64159 0.70063 0.0
C900 C 0.33227 0.64415 0.74298 0.0
C901 C 0.34191 0.66954 0.74095 0.0
C902 C 0.34277 0.68143 0.71874 0.0
C903 C 0.33551 0.6676 0.69873 0.0
H904 H 0.3793 0.29311 0.71622 0.0
H905 H 0.35169 0.36268 0.68235 0.0
H906 H 0.35724 0.30559 0.75244 0.0
H907 H 0.33169 0.37665 0.7188 0.0
H908 H 0.29823 0.40125 0.78581 0.0
H909 H 0.30358 0.37669 0.74953 0.0
H910 H 0.36693 0.33404 0.78153 0.0
H911 H 0.35972 0.35705 0.8181 0.0
C912 C 0.36807 0.3109 0.71657 0.0
C913 C 0.36707 0.32704 0.69679 0.0
C914 C 0.35573 0.31829 0.73734 0.0
C915 C 0.34322 0.34254 0.73895 0.0
C916 C 0.3408 0.35774 0.71843 0.0
C917 C 0.35237 0.34986 0.69746 0.0
C918 C 0.31291 0.3862 0.785 0.0
C919 C 0.32879 0.38108 0.80444 0.0
C920 C 0.31614 0.37222 0.76423 0.0
C921 C 0.33601 0.35356 0.76224 0.0
C922 C 0.3511 0.34781 0.78226 0.0
C923 C 0.34723 0.36119 0.80325 0.0
H924 H 0.70033 0.32792 0.68123 0.0
H925 H 0.70829 0.39816 0.72167 0.0
H926 H 0.69221 0.30342 0.7177 0.0
H927 H 0.70092 0.37397 0.75781 0.0
H928 H 0.6905 0.32786 0.8217 0.0
H929 H 0.71497 0.33805 0.78576 0.0
H930 H 0.65181 0.30824 0.74388 0.0
H931 H 0.6275 0.29851 0.77965 0.0
C932 C 0.70128 0.33788 0.69796 0.0
C933 C 0.70482 0.36487 0.69877 0.0
C934 C 0.69658 0.32395 0.71877 0.0
C935 C 0.69598 0.33677 0.74063 0.0
C936 C 0.70162 0.36342 0.74137 0.0
C937 C 0.70569 0.37733 0.72066 0.0
C938 C 0.68246 0.32251 0.80481 0.0
C939 C 0.65726 0.31235 0.80329 0.0
C940 C 0.69633 0.32845 0.78426 0.0
C941 C 0.68525 0.32404 0.76199 0.0
C942 C 0.66103 0.31158 0.76071 0.0
C943 C 0.64706 0.30608 0.78117 0.0
H944 H 0.29562 0.40279 0.22274 0.0
H945 H 0.3441 0.34556 0.18894 0.0
H946 H 0.2996 0.37959 0.25991 0.0
H947 H 0.34946 0.32306 0.2264 0.0
H948 H 0.35952 0.28705 0.2966 0.0
H949 H 0.33529 0.29961 0.26111 0.0
H950 H 0.33655 0.37959 0.28423 0.0
H951 H 0.35993 0.36691 0.31919 0.0
C952 C 0.30696 0.38507 0.2233 0.0
C953 C 0.3201 0.37623 0.20326 0.0
C954 C 0.30922 0.37177 0.24453 0.0
C955 C 0.32536 0.34982 0.24628 0.0
C956 C 0.33677 0.3398 0.2257 0.0
C957 C 0.33395 0.35281 0.20428 0.0
C958 C 0.35367 0.30709 0.29427 0.0
C959 C 0.36164 0.32614 0.31027 0.0
C960 C 0.34006 0.31433 0.27396 0.0
C961 C 0.33415 0.34064 0.2697 0.0
C962 C 0.34036 0.35913 0.28694 0.0
C963 C 0.35399 0.35195 0.30694 0.0
H964 H 0.65336 0.28616 0.20595 0.0
H965 H 0.66539 0.36431 0.18121 0.0
H966 H 0.67525 0.29706 0.24301 0.0
H967 H 0.68662 0.37549 0.21781 0.0
H968 H 0.72608 0.39427 0.28237 0.0
H969 H 0.72096 0.37171 0.24507 0.0
H970 H 0.66158 0.32321 0.27615 0.0
H971 H 0.66773 0.3452 0.31381 0.0
C972 C 0.66165 0.30532 0.20814 0.0
C973 C 0.65807 0.32439 0.19083 0.0
C974 C 0.67383 0.3117 0.2294 0.0
C975 C 0.68256 0.33721 0.23353 0.0
C976 C 0.68059 0.35556 0.21527 0.0
C977 C 0.66839 0.34923 0.19423 0.0
C978 C 0.71232 0.37842 0.28128 0.0
C979 C 0.69691 0.37176 0.30072 0.0
C980 C 0.70935 0.3655 0.25993 0.0
C981 C 0.69044 0.34602 0.2574 0.0
C982 C 0.67643 0.338 0.27745 0.0
C983 C 0.6798 0.35068 0.299 0.0
H984 H 0.71395 0.61919 0.22443 0.0
H985 H 0.68726 0.68131 0.17942 0.0
H986 H 0.70206 0.64429 0.25881 0.0
H987 H 0.67564 0.70678 0.21408 0.0
H988 H 0.61298 0.70609 0.27516 0.0
H989 H 0.63877 0.69708 0.24043 0.0
H990 H 0.70596 0.68285 0.28402 0.0
H991 H 0.67995 0.69153 0.31904 0.0
C992 C 0.7061 0.63849 0.22192 0.0
C993 C 0.70084 0.64801 0.1993 0.0
C994 C 0.69959 0.65304 0.24164 0.0
C995 C 0.68762 0.67737 0.2391 0.0
C996 C 0.68456 0.68792 0.21648 0.0
C997 C 0.69124 0.67337 0.19668 0.0
C998 C 0.63336 0.70149 0.27737 0.0
C999 C 0.64425 0.69879 0.29986 0.0
C1000 C 0.64825 0.69667 0.25741 0.0
C1001 C 0.67432 0.68903 0.25955 0.0
C1002 C 0.6858 0.68842 0.28193 0.0
C1003 C 0.67089 0.69333 0.30194 0.0
H1004 H 0.29308 0.62994 0.2842 0.0
H1005 H 0.35755 0.66695 0.31891 0.0
H1006 H 0.30349 0.65301 0.24793 0.0
H1007 H 0.3697 0.68813 0.2825 0.0
H1008 H 0.39127 0.72467 0.21636 0.0
H1009 H 0.36636 0.71613 0.25201 0.0
H1010 H 0.33336 0.64789 0.21903 0.0
H1011 H 0.3564 0.65821 0.18301 0.0
C1012 C 0.30937 0.64326 0.28397 0.0
C1013 C 0.32467 0.6467 0.30404 0.0
C1014 C 0.31557 0.65627 0.2632 0.0
C1015 C 0.33786 0.67206 0.26191 0.0
C1016 C 0.35218 0.67654 0.28262 0.0
C1017 C 0.3454 0.66424 0.30356 0.0
C1018 C 0.37809 0.70828 0.21678 0.0
C1019 C 0.37572 0.69192 0.19729 0.0
C1020 C 0.36399 0.70317 0.23721 0.0
C1021 C 0.34816 0.68094 0.2388 0.0
C1022 C 0.34492 0.66541 0.21862 0.0
C1023 C 0.35832 0.6711 0.19795 0.0
H1024 H 0.24355 0.36333 0.17207 0.0
H1025 H 0.21386 0.40584 0.11246 0.0
H1026 H 0.20499 0.33568 0.17182 0.0
H1027 H 0.17542 0.37768 0.11191 0.0
H1028 H 0.14507 0.29052 0.09932 0.0
H1029 H 0.17397 0.32793 0.10245 0.0
H1030 H 0.15391 0.33576 0.17577 0.0
H1031 H 0.12422 0.2985 0.1724 0.0
C1032 C 0.22855 0.36704 0.15916 0.0
C1033 C 0.23179 0.3867 0.14222 0.0
C1034 C 0.20639 0.3513 0.15911 0.0
C1035 C 0.18719 0.35449 0.14183 0.0
C1036 C 0.18992 0.3748 0.12544 0.0
C1037 C 0.21186 0.39096 0.12581 0.0
C1038 C 0.14627 0.3007 0.11594 0.0
C1039 C 0.13235 0.29173 0.1356 0.0
C1040 C 0.16276 0.32215 0.11771 0.0
C1041 C 0.16624 0.33476 0.13935 0.0
C1042 C 0.15157 0.32641 0.15887 0.0
C1043 C 0.13449 0.30525 0.15692 0.0
H1044 H 0.60698 0.20569 0.1361 0.0
H1045 H 0.67314 0.25718 0.13372 0.0
H1046 H 0.63686 0.1683 0.14005 0.0
H1047 H 0.70221 0.22065 0.13769 0.0
H1048 H 0.74811 0.15879 0.16993 0.0
H1049 H 0.71126 0.18824 0.1707 0.0
H1050 H 0.67585 0.14638 0.11349 0.0
H1051 H 0.71308 0.1163 0.11283 0.0
C1052 C 0.62773 0.20905 0.13656 0.0
C1053 C 0.63763 0.23444 0.13451 0.0
C1054 C 0.64479 0.18771 0.13867 0.0
C1055 C 0.67188 0.19158 0.13933 0.0
C1056 C 0.68149 0.21697 0.13751 0.0
C1057 C 0.66471 0.23797 0.13508 0.0
C1058 C 0.73229 0.15547 0.15775 0.0
C1059 C 0.73378 0.13546 0.14103 0.0
C1060 C 0.71114 0.17236 0.15824 0.0
C1061 C 0.69084 0.16989 0.14193 0.0
C1062 C 0.69119 0.1487 0.12632 0.0
C1063 C 0.71252 0.13154 0.1259 0.0
H1064 H 0.78452 0.63992 0.17656 0.0
H1065 H 0.80414 0.62409 0.10432 0.0
H1066 H 0.82141 0.66928 0.17962 0.0
H1067 H 0.84048 0.65476 0.1068 0.0
H1068 H 0.90916 0.7096 0.12094 0.0
H1069 H 0.88198 0.6704 0.12226 0.0
H1070 H 0.82575 0.71154 0.16463 0.0
H1071 H 0.85277 0.74968 0.16393 0.0
C1072 C 0.79714 0.64241 0.16146 0.0
C1073 C 0.79155 0.62987 0.14022 0.0
C1074 C 0.81813 0.65943 0.16309 0.0
C1075 C 0.83357 0.66501 0.14327 0.0
C1076 C 0.82909 0.65093 0.12243 0.0
C1077 C 0.80829 0.63337 0.12097 0.0
C1078 C 0.89118 0.71 0.13083 0.0
C1079 C 0.88313 0.73286 0.14223 0.0
C1080 C 0.87553 0.68762 0.13146 0.0
C1081 C 0.85168 0.68765 0.14367 0.0
C1082 C 0.84417 0.7104 0.15547 0.0
C1083 C 0.85964 0.73254 0.15484 0.0
H1084 H 0.30328 0.8942 0.10264 0.0
H1085 H 0.27882 0.8714 0.17215 0.0
H1086 H 0.33978 0.86362 0.10496 0.0
H1087 H 0.31571 0.84209 0.17515 0.0
H1088 H 0.35189 0.7646 0.15746 0.0
H1089 H 0.32309 0.80143 0.15818 0.0
H1090 H 0.38044 0.84762 0.12165 0.0
H1091 H 0.40946 0.80977 0.12022 0.0
C1092 C 0.30627 0.8833 0.1187 0.0
C1093 C 0.28816 0.88492 0.13714 0.0
C1094 C 0.32718 0.86578 0.12008 0.0
C1095 C 0.33044 0.84984 0.14004 0.0
C1096 C 0.31344 0.85334 0.15919 0.0
C1097 C 0.2924 0.87034 0.15761 0.0
C1098 C 0.35863 0.78257 0.14967 0.0
C1099 C 0.38308 0.78405 0.13868 0.0
C1100 C 0.34208 0.80396 0.1503 0.0
C1101 C 0.34938 0.82778 0.14017 0.0
C1102 C 0.37408 0.82957 0.12953 0.0
C1103 C 0.3908 0.80794 0.12887 0.0
H1104 H 0.14251 0.73711 0.3286 0.0
H1105 H 0.12549 0.71841 0.40085 0.0
H1106 H 0.17138 0.69981 0.32602 0.0
H1107 H 0.15577 0.68167 0.3989 0.0
H1108 H 0.20954 0.61196 0.38597 0.0
H1109 H 0.17089 0.63992 0.38421 0.0
H1110 H 0.2133 0.69423 0.34074 0.0
H1111 H 0.25083 0.6664 0.34182 0.0
C1112 C 0.14472 0.72467 0.34384 0.0
C1113 C 0.13195 0.73061 0.36493 0.0
C1114 C 0.16146 0.70342 0.34249 0.0
C1115 C 0.16656 0.68805 0.36244 0.0
C1116 C 0.15232 0.69298 0.38316 0.0
C1117 C 0.13501 0.71403 0.38433 0.0
C1118 C 0.2103 0.62966 0.37571 0.0
C1119 C 0.23336 0.63695 0.36415 0.0
C1120 C 0.18825 0.64578 0.37484 0.0
C1121 C 0.1888 0.66937 0.36224 0.0
C1122 C 0.21172 0.67606 0.35022 0.0
C1123 C 0.23351 0.66011 0.35106 0.0
H1124 H 0.41493 0.20267 0.36709 0.0
H1125 H 0.35083 0.25348 0.35069 0.0
H1126 H 0.38589 0.16481 0.36267 0.0
H1127 H 0.32233 0.21654 0.34647 0.0
H1128 H 0.2766 0.15059 0.32506 0.0
H1129 H 0.31375 0.17948 0.32167 0.0
H1130 H 0.34665 0.1463 0.38469 0.0
H1131 H 0.3095 0.11646 0.38758 0.0
C1132 C 0.39487 0.20568 0.36208 0.0
C1133 C 0.3851 0.23097 0.35923 0.0
C1134 C 0.37822 0.18411 0.35976 0.0
C1135 C 0.35178 0.18761 0.3541 0.0
C1136 C 0.34258 0.21295 0.35043 0.0
C1137 C 0.35894 0.23423 0.353 0.0
C1138 C 0.29203 0.14904 0.33792 0.0
C1139 C 0.28997 0.13158 0.3568 0.0
C1140 C 0.31332 0.16565 0.33602 0.0
C1141 C 0.33291 0.16564 0.3532 0.0
C1142 C 0.33191 0.14677 0.37113 0.0
C1143 C 0.31063 0.12975 0.37285 0.0
H1144 H 0.89663 0.3028 0.3982 0.0
H1145 H 0.87347 0.2782 0.32895 0.0
H1146 H 0.86498 0.33841 0.39647 0.0
H1147 H 0.84311 0.31427 0.32652 0.0
H1148 H 0.76499 0.34815 0.34484 0.0
H1149 H 0.80253 0.32039 0.34395 0.0
H1150 H 0.84734 0.37872 0.38033 0.0
H1151 H 0.80868 0.40674 0.38197 0.0
C1152 C 0.88541 0.30559 0.3823 0.0
C1153 C 0.88728 0.28765 0.36379 0.0
C1154 C 0.86726 0.326 0.38127 0.0
C1155 C 0.85092 0.32895 0.36157 0.0
C1156 C 0.85464 0.3122 0.34231 0.0
C1157 C 0.87226 0.29163 0.34356 0.0
C1158 C 0.78278 0.35536 0.35261 0.0
C1159 C 0.78361 0.3798 0.36357 0.0
C1160 C 0.80459 0.33938 0.35185 0.0
C1161 C 0.82828 0.34726 0.36181 0.0
C1162 C 0.82942 0.37192 0.37254 0.0
C1163 C 0.80732 0.38807 0.37335 0.0
H1164 H 0.66099 0.77179 0.33382 0.0
H1165 H 0.61486 0.8095 0.38726 0.0
H1166 H 0.6905 0.80856 0.33313 0.0
H1167 H 0.64496 0.84666 0.38661 0.0
H1168 H 0.70562 0.91437 0.36309 0.0
H1169 H 0.66853 0.88422 0.35884 0.0
H1170 H 0.7205 0.81932 0.36801 0.0
H1171 H 0.75676 0.84863 0.37229 0.0
C1172 C 0.6569 0.78813 0.34521 0.0
C1173 C 0.63583 0.78745 0.36095 0.0
C1174 C 0.67381 0.80925 0.34474 0.0
C1175 C 0.67025 0.83032 0.36003 0.0
C1176 C 0.64811 0.8307 0.37457 0.0
C1177 C 0.63096 0.80941 0.375 0.0
C1178 C 0.70897 0.89365 0.36412 0.0
C1179 C 0.73417 0.88396 0.36812 0.0
C1180 C 0.68779 0.87646 0.36182 0.0
C1181 C 0.69169 0.84942 0.36293 0.0
C1182 C 0.71687 0.83999 0.36679 0.0
C1183 C 0.73769 0.85692 0.3694 0.0
H1184 H 0.8106 0.61674 0.88973 0.0
H1185 H 0.77619 0.65429 0.8295 0.0
H1186 H 0.84726 0.64734 0.88793 0.0
H1187 H 0.81267 0.68418 0.82741 0.0
H1188 H 0.84804 0.75664 0.86129 0.0
H1189 H 0.82009 0.71929 0.85672 0.0
H1190 H 0.88617 0.66827 0.86372 0.0
H1191 H 0.91476 0.70647 0.8683 0.0
C1192 C 0.81129 0.63094 0.87569 0.0
C1193 C 0.79034 0.63345 0.86001 0.0
C1194 C 0.83228 0.64841 0.87462 0.0
C1195 C 0.8326 0.66846 0.85777 0.0
C1196 C 0.81276 0.66927 0.84086 0.0
C1197 C 0.79186 0.65213 0.84205 0.0
C1198 C 0.8568 0.73751 0.86169 0.0
C1199 C 0.88363 0.73453 0.86522 0.0
C1200 C 0.84074 0.71604 0.8589 0.0
C1201 C 0.85089 0.69077 0.8597 0.0
C1202 C 0.87782 0.68754 0.86302 0.0
C1203 C 0.89417 0.70933 0.86548 0.0
H1204 H 0.39971 0.80744 0.89328 0.0
H1205 H 0.37372 0.77937 0.82596 0.0
H1206 H 0.36758 0.84257 0.8914 0.0
H1207 H 0.34284 0.81497 0.82331 0.0
H1208 H 0.26539 0.84952 0.84287 0.0
H1209 H 0.30302 0.82191 0.84166 0.0
H1210 H 0.34889 0.88184 0.87467 0.0
H1211 H 0.31016 0.90971 0.87668 0.0
C1212 C 0.38772 0.80933 0.87774 0.0
C1213 C 0.38898 0.79055 0.85987 0.0
C1214 C 0.3693 0.82947 0.87662 0.0
C1215 C 0.35205 0.83137 0.85745 0.0
C1216 C 0.35508 0.81374 0.83874 0.0
C1217 C 0.37299 0.79343 0.8401 0.0
C1218 C 0.28343 0.85711 0.84981 0.0
C1219 C 0.28454 0.88197 0.85997 0.0
C1220 C 0.30529 0.84121 0.84887 0.0
C1221 C 0.32931 0.84957 0.85781 0.0
C1222 C 0.33072 0.87465 0.86769 0.0
C1223 C 0.30857 0.89071 0.86871 0.0
H1224 H 0.15545 0.27697 0.83029 0.0
H1225 H 0.12566 0.30493 0.89643 0.0
H1226 H 0.18554 0.31323 0.82848 0.0
H1227 H 0.15703 0.34079 0.89545 0.0
H1228 H 0.21237 0.41008 0.88145 0.0
H1229 H 0.17502 0.38044 0.87919 0.0
H1230 H 0.22427 0.32232 0.84737 0.0
H1231 H 0.2605 0.35166 0.84871 0.0
C1232 C 0.15528 0.29105 0.84442 0.0
C1233 C 0.13837 0.28797 0.86358 0.0
C1234 C 0.17274 0.31179 0.84354 0.0
C1235 C 0.1744 0.32973 0.86215 0.0
C1236 C 0.15639 0.32748 0.88076 0.0
C1237 C 0.13841 0.3069 0.88137 0.0
C1238 C 0.21501 0.39108 0.87368 0.0
C1239 C 0.23957 0.38343 0.86524 0.0
C1240 C 0.19364 0.37399 0.87254 0.0
C1241 C 0.19637 0.3489 0.86288 0.0
C1242 C 0.22094 0.34157 0.85436 0.0
C1243 C 0.24201 0.3585 0.85537 0.0
H1244 H 0.62163 0.21941 0.83142 0.0
H1245 H 0.64358 0.23238 0.90359 0.0
H1246 H 0.65087 0.18166 0.82986 0.0
H1247 H 0.67209 0.19454 0.90227 0.0
H1248 H 0.71339 0.11712 0.89587 0.0
H1249 H 0.6741 0.14421 0.89544 0.0
H1250 H 0.70182 0.18302 0.833 0.0
H1251 H 0.74113 0.15653 0.83373 0.0
C1252 C 0.63202 0.21364 0.84713 0.0
C1253 C 0.63044 0.22873 0.86761 0.0
C1254 C 0.64881 0.1922 0.84622 0.0
C1255 C 0.66373 0.18518 0.86596 0.0
C1256 C 0.66066 0.19928 0.88688 0.0
C1257 C 0.64443 0.22099 0.8876 0.0
C1258 C 0.71076 0.13104 0.88179 0.0
C1259 C 0.73036 0.13488 0.86494 0.0
C1260 C 0.68835 0.14656 0.88158 0.0
C1261 C 0.68491 0.16568 0.86416 0.0
C1262 C 0.70378 0.16827 0.84648 0.0
C1263 C 0.72637 0.15324 0.847 0.0
H1264 H 0.76588 0.3463 0.64271 0.0
H1265 H 0.81677 0.41258 0.63663 0.0
H1266 H 0.80292 0.31787 0.64674 0.0
H1267 H 0.8547 0.38345 0.64073 0.0
H1268 H 0.90606 0.30823 0.61433 0.0
H1269 H 0.87553 0.34493 0.61628 0.0
H1270 H 0.83771 0.30929 0.67589 0.0
H1271 H 0.86752 0.27278 0.67365 0.0
C1272 C 0.7851 0.35487 0.64238 0.0
C1273 C 0.78835 0.38173 0.63926 0.0
C1274 C 0.8064 0.33851 0.64487 0.0
C1275 C 0.8318 0.34836 0.64423 0.0
C1276 C 0.83532 0.37532 0.6413 0.0
C1277 C 0.81369 0.39197 0.63911 0.0
C1278 C 0.89161 0.30864 0.62817 0.0
C1279 C 0.88885 0.2874 0.64355 0.0
C1280 C 0.87419 0.32967 0.62933 0.0
C1281 C 0.85392 0.32977 0.64598 0.0
C1282 C 0.85277 0.30956 0.66257 0.0
C1283 C 0.86988 0.28862 0.66128 0.0
H1284 H 0.71648 0.8967 0.60751 0.0
H1285 H 0.73997 0.87019 0.67614 0.0
H1286 H 0.68086 0.86497 0.60756 0.0
H1287 H 0.70395 0.8397 0.67691 0.0
H1288 H 0.66988 0.76278 0.65595 0.0
H1289 H 0.6979 0.80002 0.65803 0.0
H1290 H 0.64016 0.84653 0.62252 0.0
H1291 H 0.61183 0.80817 0.61967 0.0
C1292 C 0.71346 0.88471 0.62292 0.0
C1293 C 0.7311 0.88574 0.64174 0.0
C1294 C 0.69305 0.86649 0.62298 0.0
C1295 C 0.68977 0.84919 0.642 0.0
C1296 C 0.70625 0.85198 0.66159 0.0
C1297 C 0.7268 0.86969 0.66131 0.0
C1298 C 0.66284 0.78086 0.64861 0.0
C1299 C 0.63842 0.78225 0.63757 0.0
C1300 C 0.67898 0.80251 0.65005 0.0
C1301 C 0.67135 0.82662 0.64075 0.0
C1302 C 0.64679 0.82829 0.62984 0.0
C1303 C 0.63045 0.80635 0.62834 0.0
H1304 H 0.16988 0.75571 0.63539 0.0
H1305 H 0.10388 0.70438 0.64163 0.0
H1306 H 0.1991 0.71952 0.64049 0.0
H1307 H 0.13391 0.66732 0.64675 0.0
H1308 H 0.20799 0.61369 0.61947 0.0
H1309 H 0.17099 0.64386 0.62071 0.0
H1310 H 0.21026 0.68895 0.67369 0.0
H1311 H 0.24701 0.65936 0.67229 0.0
C1312 C 0.16153 0.7366 0.63786 0.0
C1313 C 0.13445 0.73299 0.63797 0.0
C1314 C 0.17839 0.71581 0.64099 0.0
C1315 C 0.16887 0.69056 0.64423 0.0
C1316 C 0.14177 0.68662 0.64431 0.0
C1317 C 0.12463 0.70778 0.64149 0.0
C1318 C 0.20837 0.62968 0.63179 0.0
C1319 C 0.23066 0.63442 0.64545 0.0
C1320 C 0.18716 0.64689 0.63254 0.0
C1321 C 0.18791 0.669 0.64703 0.0
C1322 C 0.20928 0.67235 0.66206 0.0
C1323 C 0.23037 0.65537 0.66123 0.0
H1324 H 0.35061 0.25135 0.65948 0.0
H1325 H 0.40779 0.2105 0.61796 0.0
H1326 H 0.32365 0.21316 0.66047 0.0
H1327 H 0.38067 0.17127 0.61958 0.0
H1328 H 0.3032 0.12465 0.60107 0.0
H1329 H 0.33945 0.15542 0.60366 0.0
H1330 H 0.31905 0.17114 0.67599 0.0
H1331 H 0.28227 0.14169 0.67279 0.0
C1332 C 0.35766 0.23401 0.6508 0.0
C1333 C 0.38135 0.23413 0.63848 0.0
C1334 C 0.34223 0.21187 0.6516 0.0
C1335 C 0.34998 0.18891 0.64026 0.0
C1336 C 0.37404 0.18866 0.62841 0.0
C1337 C 0.38966 0.21105 0.62762 0.0
C1338 C 0.30701 0.13425 0.61764 0.0
C1339 C 0.28993 0.13109 0.63668 0.0
C1340 C 0.32777 0.15186 0.61917 0.0
C1341 C 0.33186 0.16627 0.63988 0.0
C1342 C 0.31606 0.16104 0.65954 0.0
C1343 C 0.29512 0.14398 0.65783 0.0
H1344 H 0.21055 0.01939 0.10722 0.0
H1345 H 0.14252 0.99415 0.14539 0.0
H1346 H 0.19171 0.06262 0.1033 0.0
H1347 H 0.12438 0.03741 0.14272 0.0
H1348 H 0.08929 0.11485 0.12639 0.0
H1349 H 0.10551 0.07067 0.12131 0.0
H1350 H 0.18435 0.09917 0.12586 0.0
H1351 H 0.16817 0.14306 0.12957 0.0
C1352 C 0.19157 0.02306 0.11474 0.0
C1353 C 0.17817 1.00332 0.12672 0.0
C1354 C 0.18079 0.04794 0.11268 0.0
C1355 C 0.15654 0.05385 0.12293 0.0
C1356 C 0.14285 0.03375 0.13425 0.0
C1357 C 0.1534 1.00883 0.13594 0.0
C1358 C 0.11008 0.11162 0.12599 0.0
C1359 C 0.12739 0.1325 0.12845 0.0
C1360 C 0.11944 0.08624 0.12325 0.0
C1361 C 0.14636 0.08107 0.12332 0.0
C1362 C 0.16356 0.10217 0.12524 0.0
C1363 C 0.15423 0.12749 0.12757 0.0
H1364 H 0.03011 0.14358 0.1384 0.0
H1365 H 0.99814 0.21673 0.11554 0.0
H1366 H 0.98788 0.12316 0.13392 0.0
H1367 H 0.95515 0.19662 0.11218 0.0
H1368 H 0.88104 0.14897 0.09904 0.0
H1369 H 0.92497 0.16678 0.0945 0.0
H1370 H 0.94967 0.12343 0.15559 0.0
H1371 H 0.90679 0.10516 0.15946 0.0
C1372 C 0.01397 0.15529 0.13231 0.0
C1373 C 0.01739 0.18181 0.12756 0.0
C1374 C 0.98963 0.14363 0.12991 0.0
C1375 C 0.96774 0.15829 0.12326 0.0
C1376 C 0.97146 0.18461 0.11727 0.0
C1377 C 0.99609 0.19621 0.11925 0.0
C1378 C 0.89603 0.14299 0.11123 0.0
C1379 C 0.89025 0.12557 0.12961 0.0
C1380 C 0.92119 0.15337 0.10876 0.0
C1381 C 0.94112 0.14655 0.1246 0.0
C1382 C 0.93523 0.12881 0.14266 0.0
C1383 C 0.91035 0.11842 0.14503 0.0
H1384 H 0.87103 0.87818 0.10397 0.0
H1385 H 0.9204 0.90625 0.15978 0.0
H1386 H 0.85399 0.92208 0.09832 0.0
H1387 H 0.90323 0.94974 0.15434 0.0
H1388 H 0.80586 0.99486 0.1233 0.0
H1389 H 0.82573 0.95196 0.12057 0.0
H1390 H 0.90173 0.9865 0.12759 0.0
H1391 H 0.88196 0.02926 0.13069 0.0
C1392 C 0.87847 0.89372 0.11485 0.0
C1393 C 0.89699 0.88863 0.13244 0.0
C1394 C 0.86858 0.91883 0.1117 0.0
C1395 C 0.87718 0.93943 0.1259 0.0
C1396 C 0.89637 0.93444 0.14288 0.0
C1397 C 0.90611 0.9094 0.14612 0.0
C1398 C 0.82683 0.99337 0.12387 0.0
C1399 C 0.84226 0.01551 0.12758 0.0
C1400 C 0.83824 0.96875 0.12221 0.0
C1401 C 0.86532 0.96574 0.12419 0.0
C1402 C 0.88079 0.98806 0.12649 0.0
C1403 C 0.86942 0.01262 0.12816 0.0
H1404 H 0.11404 0.92988 0.12855 0.0
H1405 H 0.14478 0.85325 0.11656 0.0
H1406 H 0.06998 0.91299 0.12593 0.0
H1407 H 0.10083 0.83563 0.11583 0.0
H1408 H 0.01739 0.80979 0.10796 0.0
H1409 H 0.05997 0.82907 0.10035 0.0
H1410 H 0.04195 0.89079 0.14926 0.0
H1411 H 0.99933 0.87252 0.15545 0.0
C1412 C 0.11123 0.90939 0.12514 0.0
C1413 C 0.13268 0.89287 0.12268 0.0
C1414 C 0.08598 0.89953 0.12398 0.0
C1415 C 0.08152 0.87269 0.12128 0.0
C1416 C 0.10318 0.85639 0.11772 0.0
C1417 C 0.12848 0.86644 0.11817 0.0
C1418 C 0.02256 0.82766 0.1168 0.0
C1419 C 1.00493 0.83964 0.13224 0.0
C1420 C 0.04706 0.83868 0.11259 0.0
C1421 C 0.05472 0.86168 0.12409 0.0
C1422 C 0.03684 0.87357 0.13944 0.0
C1423 C 0.01227 0.8629 0.14322 0.0
H1424 H 0.14184 0.02737 0.3731 0.0
H1425 H 0.21782 0.99191 0.37634 0.0
H1426 H 0.12175 0.98502 0.3784 0.0
H1427 H 0.19761 0.94938 0.38119 0.0
H1428 H 0.15279 0.87617 0.40096 0.0
H1429 H 0.17078 0.91993 0.40535 0.0
H1430 H 0.11754 0.94814 0.35256 0.0
H1431 H 0.09947 0.90492 0.34846 0.0
C1432 C 0.1543 0.01057 0.37514 0.0
C1433 C 0.18147 0.01304 0.37393 0.0
C1434 C 0.14274 0.98625 0.37811 0.0
C1435 C 0.15803 0.96372 0.37987 0.0
C1436 C 0.18524 0.96633 0.38002 0.0
C1437 C 0.19683 0.99073 0.37712 0.0
C1438 C 0.14467 0.89185 0.39062 0.0
C1439 C 0.1248 0.88701 0.37425 0.0
C1440 C 0.1551 0.91686 0.393 0.0
C1441 C 0.14567 0.93757 0.37927 0.0
C1442 C 0.12509 0.9328 0.36365 0.0
C1443 C 0.11483 0.9079 0.36117 0.0
H1444 H 0.9936 0.14022 0.37924 0.0
H1445 H 0.02885 0.2163 0.37994 0.0
H1446 H 0.03634 0.12034 0.38219 0.0
H1447 H 0.07179 0.19628 0.38249 0.0
H1448 H 0.14631 0.15144 0.39926 0.0
H1449 H 0.10291 0.16986 0.40518 0.0
H1450 H 0.07176 0.11568 0.35469 0.0
H1451 H 0.11467 0.0972 0.34907 0.0
C1452 C 1.01045 0.15276 0.38026 0.0
C1453 C 1.00772 0.1799 0.37905 0.0
C1454 C 0.03501 0.14132 0.38184 0.0
C1455 C 0.0576 0.15666 0.3822 0.0
C1456 C 0.05484 0.18385 0.38236 0.0
C1457 C 0.03018 0.19534 0.38082 0.0
C1458 C 0.1301 0.14322 0.38972 0.0
C1459 C 0.13405 0.12288 0.37361 0.0
C1460 C 0.10526 0.15391 0.39297 0.0
C1461 C 0.08378 0.14431 0.38039 0.0
C1462 C 0.0877 0.12339 0.36494 0.0
C1463 C 0.11243 0.11287 0.36158 0.0
H1464 H 0.85701 1.00787 0.33891 0.0
H1465 H 0.81858 0.01443 0.40623 0.0
H1466 H 0.87717 0.04955 0.34463 0.0
H1467 H 0.8397 0.05672 0.41228 0.0
H1468 H 0.86041 0.14519 0.39606 0.0
H1469 H 0.84075 0.10189 0.39768 0.0
H1470 H 0.91037 0.06936 0.36715 0.0
H1471 H 0.92938 0.11247 0.36473 0.0
C1472 C 0.85297 0.0181 0.35513 0.0
C1473 C 0.83616 1.00754 0.37217 0.0
C1474 C 0.86483 0.04209 0.3585 0.0
C1475 C 0.86055 0.05644 0.37913 0.0
C1476 C 0.84347 0.0462 0.39618 0.0
C1477 C 0.83141 0.02195 0.39275 0.0
C1478 C 0.87166 0.12866 0.39016 0.0
C1479 C 0.89631 0.13227 0.37995 0.0
C1480 C 0.86039 0.10382 0.39109 0.0
C1481 C 0.87369 0.08213 0.38203 0.0
C1482 C 0.89918 0.08566 0.37362 0.0
C1483 C 0.91021 0.11038 0.37238 0.0
H1484 H 0.88104 0.87256 0.40147 0.0
H1485 H 0.90823 0.92972 0.35161 0.0
H1486 H 0.92472 0.85484 0.40449 0.0
H1487 H 0.95186 0.91146 0.35399 0.0
H1488 H 0.03182 0.88157 0.37125 0.0
H1489 H 0.99027 0.90347 0.37632 0.0
H1490 H 0.95175 0.82906 0.38001 0.0
H1491 H 0.99336 0.80721 0.37567 0.0
C1492 C 0.89645 0.88153 0.39133 0.0
C1493 C 0.89114 0.90241 0.37615 0.0
C1494 C 0.92147 0.87122 0.39291 0.0
C1495 C 0.9418 0.88136 0.37918 0.0
C1496 C 0.93677 0.90322 0.36497 0.0
C1497 C 0.91172 0.91372 0.36357 0.0
C1498 C 0.0145 0.86987 0.3734 0.0
C1499 C 0.01592 0.8426 0.3729 0.0
C1500 C 0.99064 0.88246 0.37618 0.0
C1501 C 0.96755 0.86811 0.37842 0.0
C1502 C 0.96911 0.84081 0.37868 0.0
C1503 C 0.99301 0.82822 0.37606 0.0
H1504 H 0.87745 0.02749 0.85455 0.0
H1505 H 0.81256 1.00545 0.89841 0.0
H1506 H 0.89665 0.98495 0.86 0.0
H1507 H 0.8325 0.96316 0.90508 0.0
H1508 H 0.85425 0.88112 0.88183 0.0
H1509 H 0.83833 0.92507 0.88429 0.0
H1510 H 0.91726 0.95379 0.88315 0.0
H1511 H 0.93323 0.90933 0.87936 0.0
C1512 C 0.86754 0.01371 0.86582 0.0
C1513 C 0.84328 0.01973 0.8758 0.0
C1514 C 0.8787 0.98927 0.86913 0.0
C1515 C 0.86611 0.97032 0.88284 0.0
C1516 C 0.8425 0.97693 0.8939 0.0
C1517 C 0.83109 1.00125 0.89022 0.0
C1518 C 0.86833 0.89672 0.88237 0.0
C1519 C 0.89506 0.89165 0.88015 0.0
C1520 C 0.85914 0.9221 0.884 0.0
C1521 C 0.8764 0.94323 0.88384 0.0
C1522 C 0.90329 0.9381 0.88283 0.0
C1523 C 0.91251 0.91259 0.88084 0.0
H1524 H 0.02265 0.80463 0.89002 0.0
H1525 H 0.98907 0.87881 0.87239 0.0
H1526 H 0.0657 0.82489 0.89239 0.0
H1527 H 0.03146 0.89925 0.87571 0.0
H1528 H 0.11094 0.91704 0.84486 0.0
H1529 H 0.06812 0.89895 0.85088 0.0
H1530 H 0.0964 0.85494 0.91027 0.0
H1531 H 0.13997 0.87271 0.90374 0.0
C1532 C 0.02438 0.82538 0.88739 0.0
C1533 C 1.00264 0.84011 0.88074 0.0
C1534 C 0.04902 0.83704 0.88874 0.0
C1535 C 0.05223 0.86367 0.88372 0.0
C1536 C 0.02996 0.87859 0.87897 0.0
C1537 C 1.00559 0.86693 0.87726 0.0
C1538 C 0.10813 0.90371 0.85938 0.0
C1539 C 0.12905 0.89632 0.87375 0.0
C1540 C 0.08337 0.89341 0.86297 0.0
C1541 C 0.0786 0.87551 0.88118 0.0
C1542 C 0.09937 0.8685 0.89596 0.0
C1543 C 0.12432 0.87885 0.89233 0.0
H1544 H 0.09636 0.11478 0.84956 0.0
H1545 H 0.15207 0.143 0.90012 0.0
H1546 H 0.1147 0.07153 0.85265 0.0
H1547 H 0.17033 0.09923 0.90352 0.0
H1548 H 0.13925 0.99181 0.87306 0.0
H1549 H 0.11975 0.03446 0.8779 0.0
H1550 H 0.19606 0.06918 0.87931 0.0
H1551 H 0.2157 0.02626 0.8749 0.0
C1552 C 0.1123 0.11169 0.86165 0.0
C1553 C 0.12275 0.13249 0.87452 0.0
C1554 C 0.12277 0.08675 0.86353 0.0
C1555 C 0.14408 0.08177 0.87832 0.0
C1556 C 0.1541 0.10239 0.89177 0.0
C1557 C 0.14348 0.12745 0.88998 0.0
C1558 C 0.15196 1.00846 0.87466 0.0
C1559 C 0.17909 1.00553 0.87329 0.0
C1560 C 0.14073 0.033 0.87733 0.0
C1561 C 0.15626 0.05541 0.87864 0.0
C1562 C 0.18346 0.05239 0.87849 0.0
C1563 C 0.19474 0.02774 0.87587 0.0
H1564 H 0.9057 0.10309 0.8513 0.0
H1565 H 0.87556 0.15835 0.90142 0.0
H1566 H 0.94885 0.12124 0.85581 0.0
H1567 H 0.91928 0.17651 0.9062 0.0
H1568 H 0.9935 0.22148 0.87804 0.0
H1569 H 0.95031 0.20221 0.88209 0.0
H1570 H 0.98466 0.12575 0.88295 0.0
H1571 H 0.02758 0.14486 0.87851 0.0
C1572 C 0.90834 0.11893 0.86356 0.0
C1573 C 0.88709 0.12932 0.87591 0.0
C1574 C 0.93321 0.12926 0.86628 0.0
C1575 C 0.93762 0.15037 0.88139 0.0
C1576 C 0.91652 0.16039 0.89428 0.0
C1577 C 0.89152 0.14985 0.89168 0.0
C1578 C 0.99186 0.20058 0.8795 0.0
C1579 C 0.01401 0.18472 0.87757 0.0
C1580 C 0.96708 0.18953 0.8819 0.0
C1581 C 0.96395 0.16239 0.8825 0.0
C1582 C 0.98628 0.14669 0.88204 0.0
C1583 C 0.01094 0.15768 0.87957 0.0
H1584 H 0.80357 0.02762 0.62836 0.0
H1585 H 0.87922 0.99139 0.62868 0.0
H1586 H 0.82406 0.07013 0.62398 0.0
H1587 H 0.89958 0.03364 0.62375 0.0
H1588 H 0.86889 0.14353 0.60368 0.0
H1589 H 0.84961 0.10022 0.60002 0.0
H1590 H 0.90637 0.07012 0.64879 0.0
H1591 H 0.92574 0.11283 0.65204 0.0
C1592 C 0.82453 0.02863 0.62706 0.0
C1593 C 0.83971 1.00604 0.62921 0.0
C1594 C 0.83631 0.05305 0.62444 0.0
C1595 C 0.86355 0.05547 0.62382 0.0
C1596 C 0.8786 0.03268 0.62469 0.0
C1597 C 0.86687 1.00836 0.62741 0.0
C1598 C 0.87749 0.12754 0.61328 0.0
C1599 C 0.89885 0.13176 0.62821 0.0
C1600 C 0.86629 0.10275 0.61135 0.0
C1601 C 0.87633 0.08157 0.62415 0.0
C1602 C 0.89825 0.08575 0.63839 0.0
C1603 C 0.9093 0.1104 0.64038 0.0
H1604 H 0.87442 0.85978 0.61157 0.0
H1605 H 0.90631 0.92867 0.64343 0.0
H1606 H 0.91807 0.84102 0.60904 0.0
H1607 H 0.9498 0.91068 0.63995 0.0
H1608 H 0.01335 0.85834 0.66602 0.0
H1609 H 0.97139 0.87814 0.66123 0.0
H1610 H 0.96252 0.84044 0.59393 0.0
H1611 H 1.00509 0.81955 0.59914 0.0
C1612 C 0.89084 0.8712 0.61742 0.0
C1613 C 0.88692 0.89555 0.62803 0.0
C1614 C 0.91588 0.86047 0.61593 0.0
C1615 C 0.93751 0.87403 0.62479 0.0
C1616 C 0.9336 0.89925 0.63364 0.0
C1617 C 0.90866 0.90971 0.63549 0.0
C1618 C 1.00272 0.85421 0.65005 0.0
C1619 C 0.01285 0.83731 0.63292 0.0
C1620 C 0.97853 0.86587 0.6472 0.0
C1621 C 0.96356 0.86137 0.62699 0.0
C1622 C 0.97349 0.84436 0.60976 0.0
C1623 C 0.99791 0.83245 0.61269 0.0
H1624 H 0.09228 0.9078 0.65232 0.0
H1625 H 0.15045 0.87789 0.60478 0.0
H1626 H 0.11038 0.95129 0.64782 0.0
H1627 H 0.168 0.92136 0.59962 0.0
H1628 H 0.21446 0.99232 0.62516 0.0
H1629 H 0.19314 0.9503 0.62271 0.0
H1630 H 0.11819 0.98808 0.62321 0.0
H1631 H 0.13955 0.03011 0.62639 0.0
C1632 C 0.10854 0.91062 0.64048 0.0
C1633 C 0.12013 0.88937 0.62915 0.0
C1634 C 0.11891 0.93558 0.63782 0.0
C1635 C 0.14092 0.93984 0.62358 0.0
C1636 C 0.15147 0.91874 0.61118 0.0
C1637 C 0.14129 0.89383 0.61402 0.0
C1638 C 0.19345 0.99171 0.6244 0.0
C1639 C 0.17874 0.01458 0.62618 0.0
C1640 C 0.18117 0.96757 0.6229 0.0
C1641 C 0.15387 0.96571 0.62292 0.0
C1642 C 0.1392 0.98871 0.62362 0.0
C1643 C 0.15148 0.01283 0.62528 0.0
H1644 H 0.11525 0.09697 0.64644 0.0
H1645 H 0.14607 0.15296 0.59719 0.0
H1646 H 0.07216 0.11518 0.64158 0.0
H1647 H 0.10245 0.17113 0.592 0.0
H1648 H 0.03002 0.21689 0.62229 0.0
H1649 H 0.07248 0.1967 0.61676 0.0
H1650 H 0.03617 0.12117 0.61491 0.0
H1651 H 0.99388 0.14123 0.62092 0.0
C1652 C 0.11274 0.11294 0.63425 0.0
C1653 C 0.13416 0.12363 0.62236 0.0
C1654 C 0.08793 0.12328 0.63131 0.0
C1655 C 0.0838 0.14468 0.61642 0.0
C1656 C 0.10503 0.15479 0.60376 0.0
C1657 C 0.12997 0.14426 0.60659 0.0
C1658 C 0.03104 0.19602 0.62027 0.0
C1659 C 1.00859 0.18065 0.62247 0.0
C1660 C 0.0554 0.18444 0.61698 0.0
C1661 C 0.05778 0.15727 0.61573 0.0
C1662 C 0.03509 0.1421 0.61631 0.0
C1663 C 0.01082 0.15363 0.61969 0.0
H1664 H 0.64363 0.4874 0.63841 0.0
H1665 H 0.71594 0.5201 0.61408 0.0
H1666 H 0.62256 0.52932 0.63405 0.0
H1667 H 0.69513 0.56279 0.6107 0.0
H1668 H 0.6457 0.63564 0.597 0.0
H1669 H 0.6642 0.59205 0.59297 0.0
H1670 H 0.62286 0.5679 0.65543 0.0
H1671 H 0.60392 0.61062 0.65891 0.0
C1672 C 0.65499 0.50363 0.63197 0.0
C1673 C 0.68149 0.50051 0.62679 0.0
C1674 C 0.64297 0.52779 0.62965 0.0
C1675 C 0.6572 0.54979 0.62258 0.0
C1676 C 0.68346 0.54637 0.61614 0.0
C1677 C 0.69545 0.52191 0.61809 0.0
C1678 C 0.6403 0.62086 0.60964 0.0
C1679 C 0.62322 0.62676 0.62826 0.0
C1680 C 0.65109 0.59589 0.60745 0.0
C1681 C 0.64505 0.57621 0.6238 0.0
C1682 C 0.62765 0.58217 0.64214 0.0
C1683 C 0.61685 0.60692 0.64425 0.0
H1684 H 0.40385 0.58798 0.62233 0.0
H1685 H 0.37215 0.66527 0.61896 0.0
H1686 H 0.44748 0.60537 0.61755 0.0
H1687 H 0.41591 0.68322 0.61615 0.0
H1688 H 0.49873 0.71042 0.60437 0.0
H1689 H 0.45544 0.6919 0.59851 0.0
H1690 H 0.47772 0.6251 0.64 0.0
H1691 H 0.52073 0.64266 0.64437 0.0
C1692 C 0.40632 0.60876 0.62038 0.0
C1693 C 0.38471 0.62527 0.62095 0.0
C1694 C 0.4314 0.61888 0.61799 0.0
C1695 C 0.43566 0.64592 0.61709 0.0
C1696 C 0.41373 0.66234 0.61658 0.0
C1697 C 0.38853 0.65209 0.61824 0.0
C1698 C 0.49435 0.69159 0.61189 0.0
C1699 C 0.51332 0.67803 0.62473 0.0
C1700 C 0.46942 0.681 0.60871 0.0
C1701 C 0.46271 0.65677 0.61866 0.0
C1702 C 0.48194 0.64333 0.63136 0.0
C1703 C 0.50682 0.65361 0.6341 0.0
H1704 H 0.30029 0.49326 0.62116 0.0
H1705 H 0.37603 0.5291 0.61676 0.0
H1706 H 0.32037 0.45058 0.61669 0.0
H1707 H 0.39592 0.48657 0.61212 0.0
H1708 H 0.41937 0.40861 0.64753 0.0
H1709 H 0.40117 0.45161 0.64139 0.0
H1710 H 0.34652 0.42013 0.59148 0.0
H1711 H 0.36479 0.37676 0.59771 0.0
C1712 C 0.32112 0.49212 0.61868 0.0
C1713 C 0.33658 0.51458 0.61974 0.0
C1714 C 0.33262 0.46765 0.61605 0.0
C1715 C 0.35978 0.4652 0.61441 0.0
C1716 C 0.375 0.4878 0.61379 0.0
C1717 C 0.36355 0.51219 0.61639 0.0
C1718 C 0.40372 0.41086 0.63499 0.0
C1719 C 0.39344 0.38923 0.62323 0.0
C1720 C 0.39338 0.43557 0.63134 0.0
C1721 C 0.37236 0.43928 0.61597 0.0
C1722 C 0.3626 0.41782 0.60356 0.0
C1723 C 0.37318 0.39304 0.60702 0.0
H1724 H 0.64144 0.35149 0.63141 0.0
H1725 H 0.61392 0.43063 0.62854 0.0
H1726 H 0.59749 0.33576 0.62761 0.0
H1727 H 0.56956 0.41481 0.62334 0.0
H1728 H 0.49309 0.37777 0.64787 0.0
H1729 H 0.53631 0.39587 0.64487 0.0
H1730 H 0.56102 0.32892 0.60486 0.0
H1731 H 0.51781 0.31006 0.60916 0.0
C1732 C 0.62599 0.36561 0.62948 0.0
C1733 C 0.63121 0.39237 0.63047 0.0
C1734 C 0.60064 0.35651 0.62706 0.0
C1735 C 0.5797 0.3739 0.62515 0.0
C1736 C 0.58505 0.40076 0.62523 0.0
C1737 C 0.6105 0.40989 0.62807 0.0
C1738 C 0.50765 0.36696 0.63823 0.0
C1739 C 0.50204 0.34228 0.62898 0.0
C1740 C 0.53253 0.37751 0.63633 0.0
C1741 C 0.55246 0.36389 0.62477 0.0
C1742 C 0.54644 0.33976 0.61443 0.0
C1743 C 0.5216 0.32896 0.61672 0.0
H1744 H 0.6571 0.37592 0.89179 0.0
H1745 H 0.59634 0.40727 0.84785 0.0
H1746 H 0.67419 0.41938 0.89798 0.0
H1747 H 0.61395 0.45077 0.85339 0.0
H1748 H 0.6418 0.52892 0.87743 0.0
H1749 H 0.62173 0.48616 0.87945 0.0
H1750 H 0.69764 0.45056 0.87581 0.0
H1751 H 0.71769 0.49326 0.87452 0.0
C1752 C 0.64732 0.39213 0.88349 0.0
C1753 C 0.62549 0.38809 0.86913 0.0
C1754 C 0.65723 0.41707 0.88694 0.0
C1755 C 0.64571 0.43864 0.87597 0.0
C1756 C 0.62322 0.4347 0.86234 0.0
C1757 C 0.61315 0.40972 0.85905 0.0
C1758 C 0.65424 0.51196 0.87743 0.0
C1759 C 0.68138 0.51454 0.87566 0.0
C1760 C 0.64269 0.48741 0.8784 0.0
C1761 C 0.65798 0.46481 0.87751 0.0
C1762 C 0.6852 0.46746 0.8768 0.0
C1763 C 0.69675 0.49202 0.87599 0.0
H1764 H 0.49535 0.64607 0.88573 0.0
H1765 H 0.53212 0.72104 0.87867 0.0
H1766 H 0.53767 0.62582 0.89074 0.0
H1767 H 0.57466 0.70059 0.8833 0.0
H1768 H 0.64861 0.65638 0.90261 0.0
H1769 H 0.60561 0.67591 0.9082 0.0
H1770 H 0.57224 0.6177 0.86279 0.0
H1771 H 0.61474 0.59821 0.85747 0.0
C1772 C 0.51245 0.65831 0.88552 0.0
C1773 C 0.51033 0.68516 0.88146 0.0
C1774 C 0.53676 0.64665 0.88831 0.0
C1775 C 0.55962 0.66149 0.88703 0.0
C1776 C 0.55745 0.68859 0.88449 0.0
C1777 C 0.53305 0.70031 0.88177 0.0
C1778 C 0.63198 0.6475 0.89422 0.0
C1779 C 0.63514 0.62579 0.8795 0.0
C1780 C 0.60739 0.65882 0.89726 0.0
C1781 C 0.58545 0.64843 0.88591 0.0
C1782 C 0.58858 0.62607 0.87206 0.0
C1783 C 0.61305 0.61495 0.86887 0.0
H1784 H 0.36846 0.64948 0.90146 0.0
H1785 H 0.42742 0.61543 0.8571 0.0
H1786 H 0.34856 0.60661 0.90667 0.0
H1787 H 0.40756 0.57305 0.86206 0.0
H1788 H 0.37969 0.49629 0.88644 0.0
H1789 H 0.39945 0.53891 0.89038 0.0
H1790 H 0.32422 0.57481 0.88221 0.0
H1791 H 0.30424 0.53186 0.87862 0.0
C1792 C 0.37741 0.63284 0.89312 0.0
C1793 C 0.39956 0.63594 0.87883 0.0
C1794 C 0.36586 0.60832 0.89593 0.0
C1795 C 0.37641 0.58632 0.88478 0.0
C1796 C 0.39905 0.58941 0.87119 0.0
C1797 C 0.41041 0.61382 0.86823 0.0
C1798 C 0.36723 0.51322 0.88583 0.0
C1799 C 0.34039 0.51061 0.88191 0.0
C1800 C 0.37862 0.53771 0.88798 0.0
C1801 C 0.36354 0.56037 0.88619 0.0
C1802 C 0.33643 0.55779 0.88376 0.0
C1803 C 0.32496 0.53315 0.88166 0.0
H1804 H 0.41253 0.43468 0.86083 0.0
H1805 H 0.3818 0.36736 0.89648 0.0
H1806 H 0.45582 0.41581 0.86194 0.0
H1807 H 0.42506 0.3478 0.89672 0.0
H1808 H 0.51116 0.32416 0.90244 0.0
H1809 H 0.46984 0.34666 0.90925 0.0
H1810 H 0.47599 0.38236 0.8407 0.0
H1811 H 0.51703 0.36087 0.83431 0.0
C1812 C 0.4151 0.41592 0.86913 0.0
C1813 C 0.39369 0.40244 0.87837 0.0
C1814 C 0.43991 0.40494 0.86959 0.0
C1815 C 0.44396 0.37992 0.87888 0.0
C1816 C 0.42279 0.36709 0.88946 0.0
C1817 C 0.39793 0.37831 0.88931 0.0
C1818 C 0.50368 0.33696 0.88893 0.0
C1819 C 0.51756 0.3407 0.86786 0.0
C1820 C 0.47995 0.34979 0.89279 0.0
C1821 C 0.46957 0.36663 0.87565 0.0
C1822 C 0.48353 0.37018 0.85462 0.0
C1823 C 0.50713 0.35757 0.85085 0.0
H1824 H 0.37725 0.52468 0.36049 0.0
H1825 H 0.30757 0.49993 0.39647 0.0
H1826 H 0.39562 0.48184 0.36494 0.0
H1827 H 0.32667 0.45702 0.40225 0.0
H1828 H 0.35183 0.37662 0.37649 0.0
H1829 H 0.33526 0.42026 0.38032 0.0
H1830 H 0.41371 0.44919 0.38752 0.0
H1831 H 0.43041 0.4052 0.38225 0.0
C1832 C 0.36602 0.51021 0.36986 0.0
C1833 C 0.34074 0.5157 0.37787 0.0
C1834 C 0.37673 0.48553 0.37262 0.0
C1835 C 0.36269 0.46565 0.38385 0.0
C1836 C 0.3379 0.47157 0.393 0.0
C1837 C 0.32696 0.49624 0.38985 0.0
C1838 C 0.36562 0.39221 0.37917 0.0
C1839 C 0.39251 0.38741 0.37885 0.0
C1840 C 0.35603 0.41739 0.38157 0.0
C1841 C 0.37303 0.43854 0.38414 0.0
C1842 C 0.39997 0.43355 0.38504 0.0
C1843 C 0.4096 0.4083 0.38219 0.0
H1844 H 0.63793 0.37225 0.40437 0.0
H1845 H 0.61103 0.41506 0.34375 0.0
H1846 H 0.59424 0.35444 0.40986 0.0
H1847 H 0.56804 0.39691 0.3488 0.0
H1848 H 0.48827 0.37703 0.36887 0.0
H1849 H 0.53049 0.39766 0.37275 0.0
H1850 H 0.56449 0.32378 0.39143 0.0
H1851 H 0.52161 0.3033 0.3884 0.0
C1852 C 0.62271 0.37805 0.39234 0.0
C1853 C 0.62807 0.39511 0.37359 0.0
C1854 C 0.5977 0.36767 0.3954 0.0
C1855 C 0.5775 0.37423 0.37984 0.0
C1856 C 0.58286 0.39173 0.36145 0.0
C1857 C 0.6077 0.40206 0.35843 0.0
C1858 C 0.50469 0.36528 0.37426 0.0
C1859 C 0.50173 0.33852 0.3781 0.0
C1860 C 0.52896 0.37706 0.37631 0.0
C1861 C 0.55112 0.36232 0.38183 0.0
C1862 C 0.54788 0.33577 0.38718 0.0
C1863 C 0.52334 0.32399 0.38545 0.0
H1864 H 0.59725 0.61354 0.34793 0.0
H1865 H 0.65193 0.64213 0.39924 0.0
H1866 H 0.61537 0.57029 0.35171 0.0
H1867 H 0.66994 0.59832 0.40335 0.0
H1868 H 0.6388 0.49067 0.3733 0.0
H1869 H 0.61951 0.53353 0.37729 0.0
H1870 H 0.69602 0.56767 0.38022 0.0
H1871 H 0.71543 0.52454 0.3767 0.0
C1872 C 0.61294 0.61054 0.36031 0.0
C1873 C 0.62315 0.63145 0.3732 0.0
C1874 C 0.62327 0.58559 0.36259 0.0
C1875 C 0.64419 0.58067 0.37785 0.0
C1876 C 0.65402 0.60142 0.39126 0.0
C1877 C 0.64354 0.6265 0.38905 0.0
C1878 C 0.65158 0.50724 0.37507 0.0
C1879 C 0.67872 0.50408 0.3744 0.0
C1880 C 0.64048 0.53191 0.37724 0.0
C1881 C 0.65615 0.55421 0.37871 0.0
C1882 C 0.68331 0.55097 0.37926 0.0
C1883 C 0.69446 0.5262 0.37715 0.0
H1884 H 0.40716 0.59807 0.35267 0.0
H1885 H 0.37707 0.65283 0.4033 0.0
H1886 H 0.45021 0.61655 0.35696 0.0
H1887 H 0.42064 0.67125 0.40787 0.0
H1888 H 0.49302 0.71772 0.37842 0.0
H1889 H 0.45044 0.69749 0.38335 0.0
H1890 H 0.48651 0.62181 0.38343 0.0
H1891 H 0.52886 0.6419 0.37807 0.0
C1892 C 0.40981 0.61382 0.36502 0.0
C1893 C 0.3886 0.62405 0.37752 0.0
C1894 C 0.43461 0.62434 0.36761 0.0
C1895 C 0.43894 0.64544 0.38275 0.0
C1896 C 0.41791 0.65516 0.39591 0.0
C1897 C 0.393 0.64447 0.39342 0.0
C1898 C 0.49191 0.69679 0.3799 0.0
C1899 C 0.51433 0.68143 0.37745 0.0
C1900 C 0.46748 0.68519 0.38282 0.0
C1901 C 0.46501 0.65799 0.38344 0.0
C1902 C 0.48765 0.64277 0.38251 0.0
C1903 C 0.51197 0.65433 0.37951 0.0
H1904 H 0.30592 0.52659 0.12389 0.0
H1905 H 0.38117 0.48949 0.12389 0.0
H1906 H 0.3268 0.56873 0.11862 0.0
H1907 H 0.40194 0.53145 0.11813 0.0
H1908 H 0.42767 0.61099 0.14727 0.0
H1909 H 0.40877 0.56809 0.14344 0.0
H1910 H 0.35267 0.59804 0.09397 0.0
H1911 H 0.37147 0.64146 0.09815 0.0
C1912 C 0.32687 0.52733 0.12228 0.0
C1913 C 0.34185 0.50464 0.12466 0.0
C1914 C 0.33886 0.55152 0.11915 0.0
C1915 C 0.36611 0.55359 0.11825 0.0
C1916 C 0.38095 0.53069 0.11925 0.0
C1917 C 0.369 0.50657 0.12245 0.0
C1918 C 0.41154 0.60844 0.13529 0.0
C1919 C 0.40102 0.62977 0.12314 0.0
C1920 C 0.40076 0.58371 0.13297 0.0
C1921 C 0.37908 0.57952 0.11845 0.0
C1922 C 0.36917 0.60063 0.10551 0.0
C1923 C 0.3801 0.62547 0.10774 0.0
H1924 H 0.37509 0.35906 0.10998 0.0
H1925 H 0.40751 0.42719 0.14276 0.0
H1926 H 0.41869 0.34012 0.107 0.0
H1927 H 0.45085 0.40896 0.13897 0.0
H1928 H 0.51362 0.35579 0.16464 0.0
H1929 H 0.47142 0.37514 0.16022 0.0
H1930 H 0.46383 0.34054 0.09146 0.0
H1931 H 0.5068 0.32017 0.09618 0.0
C1932 C 0.39158 0.37027 0.11598 0.0
C1933 C 0.38784 0.39444 0.12697 0.0
C1934 C 0.41659 0.35944 0.11423 0.0
C1935 C 0.43829 0.37272 0.12324 0.0
C1936 C 0.43456 0.39778 0.1325 0.0
C1937 C 0.4097 0.40835 0.13456 0.0
C1938 C 0.50324 0.35223 0.14842 0.0
C1939 C 0.51391 0.33645 0.13068 0.0
C1940 C 0.47891 0.36361 0.14581 0.0
C1941 C 0.46428 0.35993 0.12528 0.0
C1942 C 0.4746 0.34385 0.10751 0.0
C1943 C 0.49923 0.33223 0.11018 0.0
H1944 H 0.63879 0.53213 0.12785 0.0
H1945 H 0.71332 0.49368 0.12474 0.0
H1946 H 0.61701 0.49052 0.12272 0.0
H1947 H 0.69162 0.45212 0.12036 0.0
H1948 H 0.64913 0.3809 0.1004 0.0
H1949 H 0.66616 0.42471 0.09608 0.0
H1950 H 0.60918 0.45255 0.14592 0.0
H1951 H 0.59159 0.40878 0.14956 0.0
C1952 C 0.65054 0.51482 0.12592 0.0
C1953 C 0.67782 0.51621 0.1269 0.0
C1954 C 0.63804 0.49095 0.12311 0.0
C1955 C 0.65249 0.46789 0.1213 0.0
C1956 C 0.6798 0.46947 0.12136 0.0
C1957 C 0.6923 0.49334 0.12401 0.0
C1958 C 0.63995 0.39649 0.11011 0.0
C1959 C 0.61921 0.39137 0.12551 0.0
C1960 C 0.64983 0.42158 0.10776 0.0
C1961 C 0.6394 0.44213 0.12097 0.0
C1962 C 0.61762 0.43726 0.13533 0.0
C1963 C 0.60753 0.41214 0.13748 0.0
H1964 H 0.52971 0.71897 0.12596 0.0
H1965 H 0.49518 0.64284 0.12033 0.0
H1966 H 0.57284 0.69977 0.12121 0.0
H1967 H 0.53803 0.62383 0.11507 0.0
H1968 H 0.61592 0.5983 0.14714 0.0
H1969 H 0.57299 0.6168 0.14234 0.0
H1970 H 0.60449 0.6759 0.09653 0.0
H1971 H 0.64804 0.65736 0.10169 0.0
C1972 C 0.53125 0.69824 0.1232 0.0
C1973 C 0.50901 0.68241 0.12395 0.0
C1974 C 0.55599 0.68723 0.12037 0.0
C1975 C 0.55897 0.66018 0.11811 0.0
C1976 C 0.53653 0.64465 0.1173 0.0
C1977 C 0.51192 0.65559 0.12025 0.0
C1978 C 0.61374 0.61506 0.13578 0.0
C1979 C 0.63547 0.62642 0.12491 0.0
C1980 C 0.589 0.6256 0.13288 0.0
C1981 C 0.58519 0.64789 0.11904 0.0
C1982 C 0.60678 0.65884 0.10747 0.0
C1983 C 0.63168 0.6481 0.11025 0.0
H1984 H 0.07992 0.22849 0.22682 0.0
H1985 H 0.01727 0.25717 0.18359 0.0
H1986 H 0.05471 0.23783 0.26201 0.0
H1987 H 0.99184 0.26635 0.21903 0.0
H1988 H 1.00693 0.26377 0.32362 0.0
H1989 H 0.032 0.27176 0.28746 0.0
H1990 H 0.97255 0.23312 0.24707 0.0
H1991 H 0.94817 0.22484 0.28303 0.0
C1992 C 0.06098 0.23732 0.22483 0.0
C1993 C 0.05052 0.24182 0.20237 0.0
C1994 C 0.0466 0.24287 0.24505 0.0
C1995 C 0.02125 0.25274 0.2433 0.0
C1996 C 0.01131 0.25865 0.2209 0.0
C1997 C 0.0259 0.25346 0.20062 0.0
C1998 C 0.99894 0.25786 0.30686 0.0
C1999 C 0.97558 0.2439 0.30593 0.0
C2000 C 0.0133 0.26224 0.28624 0.0
C2001 C 1.00422 0.25307 0.26442 0.0
C2002 C 0.97992 0.24075 0.26349 0.0
C2003 C 0.96594 0.23596 0.28406 0.0
H2004 H 0.79097 0.93953 0.27698 0.0
H2005 H 0.75988 1.00114 0.32007 0.0
H2006 H 0.78224 0.9651 0.24179 0.0
H2007 H 0.75111 0.02673 0.28474 0.0
H2008 H 0.79172 0.07352 0.22288 0.0
H2009 H 0.78343 0.04783 0.25807 0.0
H2010 H 0.74988 0.98732 0.21532 0.0
H2011 H 0.75803 0.0136 0.17993 0.0
C2012 C 0.78172 0.95829 0.27892 0.0
C2013 C 0.77645 0.96841 0.30139 0.0
C2014 C 0.77653 0.97289 0.2587 0.0
C2015 C 0.76616 0.99805 0.26046 0.0
C2016 C 0.75931 1.00749 0.28283 0.0
C2017 C 0.76424 0.99276 0.30307 0.0
C2018 C 0.78165 0.05519 0.22114 0.0
C2019 C 0.77517 0.04566 0.19884 0.0
C2020 C 0.77688 0.04042 0.24129 0.0
C2021 C 0.76603 0.01547 0.23953 0.0
C2022 C 0.7583 1.00646 0.21723 0.0
C2023 C 0.7627 0.02154 0.19703 0.0
H2024 H 0.94435 0.78744 0.22638 0.0
H2025 H 1.00356 0.75277 0.18298 0.0
H2026 H 0.96936 0.77705 0.26154 0.0
H2027 H 0.02922 0.74286 0.2183 0.0
H2028 H 0.07509 0.78888 0.27972 0.0
H2029 H 0.05025 0.77826 0.24452 0.0
H2030 H 0.99141 0.74201 0.2876 0.0
H2031 H 0.01684 0.75222 0.32296 0.0
C2032 C 0.96232 0.77671 0.22452 0.0
C2033 C 0.97199 0.77065 0.20213 0.0
C2034 C 0.97664 0.77071 0.24462 0.0
C2035 C 1.00126 0.75915 0.24267 0.0
C2036 C 1.01025 0.75169 0.22029 0.0
C2037 C 0.99557 0.7572 0.20014 0.0
C2038 C 0.05733 0.77776 0.28154 0.0
C2039 C 0.04784 0.77123 0.3039 0.0
C2040 C 0.04316 0.77159 0.26141 0.0
C2041 C 0.01888 0.75932 0.26331 0.0
C2042 C 1.01011 0.7514 0.28566 0.0
C2043 C 0.02465 0.7571 0.30583 0.0
H2044 H 0.23194 0.07298 0.27669 0.0
H2045 H 0.26279 0.01072 0.31887 0.0
H2046 H 0.24076 0.04819 0.24099 0.0
H2047 H 0.27125 0.98541 0.28305 0.0
H2048 H 0.22683 0.94236 0.21979 0.0
H2049 H 0.2364 0.96638 0.2557 0.0
H2050 H 0.27483 0.02561 0.21469 0.0
H2051 H 0.26562 1.00102 0.17861 0.0
C2052 C 0.24141 0.05429 0.27818 0.0
C2053 C 0.24694 0.04381 0.30038 0.0
C2054 C 0.24653 0.0401 0.25777 0.0
C2055 C 0.2567 0.01484 0.2592 0.0
C2056 C 0.26346 1.00486 0.28143 0.0
C2057 C 0.25879 0.01934 0.30188 0.0
C2058 C 0.23815 0.96005 0.21858 0.0
C2059 C 0.24566 0.96982 0.19656 0.0
C2060 C 0.2437 0.97377 0.23912 0.0
C2061 C 0.25634 0.99791 0.23803 0.0
C2062 C 0.26508 1.00704 0.21604 0.0
C2063 C 0.26 0.99295 0.19545 0.0
H2064 H 0.94225 0.80011 0.77972 0.0
H2065 H 1.00007 0.76319 0.82341 0.0
H2066 H 0.96827 0.79083 0.745 0.0
H2067 H 0.02609 0.7537 0.78848 0.0
H2068 H 0.07803 0.78895 0.72783 0.0
H2069 H 0.05099 0.78311 0.76248 0.0
H2070 H 0.98754 0.7578 0.71857 0.0
H2071 H 0.01471 0.76382 0.68368 0.0
C2072 C 0.96029 0.78956 0.78188 0.0
C2073 C 0.96923 0.7827 0.8044 0.0
C2074 C 0.97512 0.78404 0.76192 0.0
C2075 C 0.99935 0.77166 0.76397 0.0
C2076 C 1.00762 0.76348 0.78635 0.0
C2077 C 0.99265 0.76882 0.80635 0.0
C2078 C 0.05853 0.78153 0.72556 0.0
C2079 C 0.04847 0.77712 0.70295 0.0
C2080 C 0.04304 0.77804 0.74548 0.0
C2081 C 0.01701 0.77023 0.74328 0.0
C2082 C 1.00744 0.76412 0.7208 0.0
C2083 C 0.02307 0.76738 0.70083 0.0
H2084 H 0.26079 0.01167 0.67728 0.0
H2085 H 0.23484 0.07607 0.71948 0.0
H2086 H 0.26861 0.98622 0.71314 0.0
H2087 H 0.24315 0.05104 0.75527 0.0
H2088 H 0.267 1.00074 0.81726 0.0
H2089 H 0.27689 0.02523 0.7811 0.0
H2090 H 0.23152 0.97063 0.74093 0.0
H2091 H 0.22109 0.94702 0.77688 0.0
C2092 C 0.25787 0.02071 0.69426 0.0
C2093 C 0.24749 0.04583 0.69576 0.0
C2094 C 0.26216 1.00615 0.71474 0.0
C2095 C 0.25651 0.01666 0.737 0.0
C2096 C 0.24804 0.04254 0.73842 0.0
C2097 C 0.24325 0.05685 0.71798 0.0
C2098 C 0.25989 0.99364 0.80055 0.0
C2099 C 0.24347 0.97191 0.79971 0.0
C2100 C 0.26541 1.00767 0.77993 0.0
C2101 C 0.25509 0.99975 0.75817 0.0
C2102 C 0.2401 0.977 0.75731 0.0
C2103 C 0.23408 0.96348 0.77789 0.0
H2104 H 0.01714 0.221 0.68873 0.0
H2105 H 0.95309 0.26984 0.70947 0.0
H2106 H 0.04001 0.23181 0.72487 0.0
H2107 H 0.97588 0.28042 0.74625 0.0
H2108 H 1.0074 0.24159 0.81847 0.0
H2109 H 0.98614 0.24953 0.78072 0.0
H2110 H 0.06055 0.26737 0.74953 0.0
H2111 H 0.08169 0.25964 0.78754 0.0
C2112 C 1.00828 0.23461 0.70085 0.0
C2113 C 0.98344 0.24465 0.69639 0.0
C2114 C 0.02142 0.24092 0.72149 0.0
C2115 C 1.00977 0.257 0.73841 0.0
C2116 C 0.98533 0.26802 0.73348 0.0
C2117 C 0.97237 0.26211 0.71246 0.0
C2118 C 0.01897 0.24834 0.80375 0.0
C2119 C 0.04604 0.25039 0.80583 0.0
C2120 C 1.00685 0.25289 0.78215 0.0
C2121 C 0.02169 0.25899 0.76213 0.0
C2122 C 0.04864 0.26269 0.76466 0.0
C2123 C 0.06071 0.25848 0.78639 0.0
H2124 H 0.75234 1.00302 0.6846 0.0
H2125 H 0.79539 0.94714 0.72538 0.0
H2126 H 0.74354 0.02806 0.72057 0.0
H2127 H 0.78605 0.97145 0.76119 0.0
H2128 H 0.75886 0.01554 0.82448 0.0
H2129 H 0.75026 0.98954 0.78911 0.0
H2130 H 0.77844 0.05232 0.74573 0.0
H2131 H 0.78758 0.07779 0.78098 0.0
C2132 C 0.75899 0.9956 0.70137 0.0
C2133 C 0.77434 0.9731 0.70235 0.0
C2134 C 0.75412 1.00995 0.72188 0.0
C2135 C 0.76405 1.00166 0.74371 0.0
C2136 C 0.77782 0.97815 0.74475 0.0
C2137 C 0.7832 0.96424 0.72426 0.0
C2138 C 0.76229 0.02402 0.80731 0.0
C2139 C 0.77363 0.04869 0.80532 0.0
C2140 C 0.75754 1.00914 0.78712 0.0
C2141 C 0.76363 0.01893 0.76465 0.0
C2142 C 0.7732 0.04438 0.76273 0.0
C2143 C 0.77847 0.05896 0.78288 0.0
H2144 H 0.45046 0.76646 0.79049 0.0
H2145 H 0.51879 0.72658 0.81523 0.0
H2146 H 0.472 0.77438 0.75251 0.0
H2147 H 0.54049 0.73492 0.77778 0.0
H2148 H 0.57816 0.76006 0.71071 0.0
H2149 H 0.55716 0.76953 0.74857 0.0
H2150 H 0.4848 0.73937 0.72184 0.0
H2151 H 0.50594 0.72951 0.6844 0.0
C2152 C 0.4704 0.76028 0.78807 0.0
C2153 C 0.48309 0.74605 0.80568 0.0
C2154 C 0.48265 0.76464 0.76636 0.0
C2155 C 0.50796 0.75531 0.7622 0.0
C2156 C 0.52116 0.74266 0.78053 0.0
C2157 C 0.50874 0.73781 0.80193 0.0
C2158 C 0.55756 0.75641 0.71275 0.0
C2159 C 0.54352 0.74435 0.6947 0.0
C2160 C 0.54559 0.76163 0.7344 0.0
C2161 C 0.51933 0.7552 0.73815 0.0
C2162 C 0.50492 0.74488 0.7194 0.0
C2163 C 0.517 0.7392 0.69799 0.0
H2164 H 0.30295 0.50687 0.68947 0.0
H2165 H 0.25334 0.57006 0.71082 0.0
H2166 H 0.29435 0.48458 0.72653 0.0
H2167 H 0.24516 0.54793 0.74851 0.0
H2168 H 0.28729 0.51766 0.81999 0.0
H2169 H 0.27886 0.53844 0.78204 0.0
H2170 H 0.25846 0.46404 0.75258 0.0
H2171 H 0.2664 0.4434 0.79086 0.0
C2172 C 0.28973 0.51569 0.70196 0.0
C2173 C 0.27874 0.54011 0.69734 0.0
C2174 C 0.2847 0.50288 0.72313 0.0
C2175 C 0.26905 0.51448 0.74041 0.0
C2176 C 0.25723 0.53853 0.73545 0.0
C2177 C 0.26179 0.5511 0.71391 0.0
C2178 C 0.27995 0.506 0.80562 0.0
C2179 C 0.27711 0.47907 0.80829 0.0
C2180 C 0.27513 0.51785 0.78392 0.0
C2181 C 0.26803 0.50286 0.76434 0.0
C2182 C 0.26385 0.47606 0.7674 0.0
C2183 C 0.2682 0.46428 0.78927 0.0
H2184 H 0.57859 0.28694 0.77211 0.0
H2185 H 0.51707 0.26193 0.81866 0.0
H2186 H 0.55097 0.27804 0.73829 0.0
H2187 H 0.48943 0.25318 0.78473 0.0
H2188 H 0.49758 0.25373 0.67985 0.0
H2189 H 0.52448 0.24467 0.7146 0.0
H2190 H 0.47056 0.28782 0.75769 0.0
H2191 H 0.44425 0.29717 0.72309 0.0
C2192 C 0.5594 0.27897 0.77512 0.0
C2193 C 0.5499 0.27552 0.7981 0.0
C2194 C 0.54365 0.27367 0.75571 0.0
C2195 C 0.51799 0.26508 0.75889 0.0
C2196 C 0.5091 0.25992 0.78179 0.0
C2197 C 0.52497 0.2649 0.80121 0.0
C2198 C 0.49115 0.26043 0.69693 0.0
C2199 C 0.46892 0.27604 0.69897 0.0
C2200 C 0.50657 0.25545 0.71673 0.0
C2201 C 0.49961 0.26557 0.73883 0.0
C2202 C 0.47627 0.27949 0.74099 0.0
C2203 C 0.46124 0.28491 0.72121 0.0
H2204 H 0.73385 0.43921 0.72606 0.0
H2205 H 0.75498 0.50319 0.68085 0.0
H2206 H 0.74278 0.46584 0.76055 0.0
H2207 H 0.76367 0.52997 0.71548 0.0
H2208 H 0.7689 0.51833 0.81986 0.0
H2209 H 0.77676 0.4928 0.78398 0.0
H2210 H 0.72895 0.54615 0.74456 0.0
H2211 H 0.72063 0.57087 0.78025 0.0
C2212 C 0.74095 0.45878 0.7235 0.0
C2213 C 0.74344 0.46918 0.70073 0.0
C2214 C 0.74627 0.47397 0.74326 0.0
C2215 C 0.75381 0.50002 0.74071 0.0
C2216 C 0.75782 0.50996 0.71795 0.0
C2217 C 0.75292 0.4946 0.69814 0.0
C2218 C 0.76083 0.52493 0.80333 0.0
C2219 C 0.74433 0.54661 0.80267 0.0
C2220 C 0.76515 0.51029 0.78288 0.0
C2221 C 0.75351 0.51753 0.76146 0.0
C2222 C 0.73849 0.54026 0.76067 0.0
C2223 C 0.73369 0.55442 0.7811 0.0
H2224 H 0.5008 0.26309 0.31978 0.0
H2225 H 0.44392 0.30117 0.27586 0.0
H2226 H 0.52769 0.2547 0.28519 0.0
H2227 H 0.47082 0.29281 0.24142 0.0
H2228 H 0.51806 0.26458 0.18067 0.0
H2229 H 0.49039 0.25897 0.21525 0.0
H2230 H 0.55302 0.28511 0.25969 0.0
H2231 H 0.58066 0.29067 0.22525 0.0
C2232 C 0.49378 0.26924 0.30272 0.0
C2233 C 0.47032 0.28305 0.30063 0.0
C2234 C 0.50926 0.26452 0.28294 0.0
C2235 C 0.50145 0.2732 0.2606 0.0
C2236 C 0.47729 0.28566 0.25834 0.0
C2237 C 0.46195 0.29062 0.27812 0.0
C2238 C 0.52617 0.26842 0.19787 0.0
C2239 C 0.55149 0.2783 0.2002 0.0
C2240 C 0.51023 0.26541 0.21765 0.0
C2241 C 0.51943 0.27187 0.24016 0.0
C2242 C 0.54539 0.27983 0.24262 0.0
C2243 C 0.5612 0.28312 0.22286 0.0
H2244 H 0.76752 0.51602 0.1823 0.0
H2245 H 0.72369 0.57176 0.22252 0.0
H2246 H 0.7761 0.49118 0.2185 0.0
H2247 H 0.73275 0.54767 0.25849 0.0
H2248 H 0.75912 0.50509 0.32237 0.0
H2249 H 0.76793 0.53061 0.28672 0.0
H2250 H 0.74207 0.46646 0.24403 0.0
H2251 H 0.73278 0.44143 0.27959 0.0
C2252 C 0.76058 0.52343 0.19898 0.0
C2253 C 0.74509 0.54584 0.19973 0.0
C2254 C 0.76534 0.50919 0.21963 0.0
C2255 C 0.75517 0.51752 0.24136 0.0
C2256 C 0.74118 0.54091 0.24215 0.0
C2257 C 0.73593 0.5547 0.22155 0.0
C2258 C 0.75632 0.49619 0.30532 0.0
C2259 C 0.74567 0.47121 0.30361 0.0
C2260 C 0.76117 0.51081 0.28494 0.0
C2261 C 0.75573 0.50052 0.26255 0.0
C2262 C 0.74684 0.4748 0.26095 0.0
C2263 C 0.74153 0.46044 0.28129 0.0
H2264 H 0.44764 0.72 0.221 0.0
H2265 H 0.50054 0.76961 0.18306 0.0
H2266 H 0.47009 0.72968 0.25761 0.0
H2267 H 0.52359 0.77917 0.21993 0.0
H2268 H 0.57627 0.74074 0.28072 0.0
H2269 H 0.55113 0.74883 0.245 0.0
H2270 H 0.48289 0.76324 0.28724 0.0
H2271 H 0.50829 0.75515 0.32297 0.0
C2272 C 0.46369 0.73361 0.22069 0.0
C2273 C 0.47233 0.74418 0.19933 0.0
C2274 C 0.47652 0.73924 0.24166 0.0
C2275 C 0.49866 0.75519 0.24171 0.0
C2276 C 0.50659 0.76681 0.22043 0.0
C2277 C 0.49334 0.76153 0.1994 0.0
C2278 C 0.55615 0.74666 0.28231 0.0
C2279 C 0.54421 0.74769 0.30445 0.0
C2280 C 0.54174 0.75132 0.26189 0.0
C2281 C 0.51498 0.75659 0.26327 0.0
C2282 C 0.50345 0.75916 0.28561 0.0
C2283 C 0.51797 0.75476 0.30604 0.0
H2284 H 0.2996 0.51389 0.18867 0.0
H2285 H 0.25442 0.44877 0.2131 0.0
H2286 H 0.2901 0.53728 0.22491 0.0
H2287 H 0.24514 0.47208 0.24992 0.0
H2288 H 0.28449 0.50669 0.32012 0.0
H2289 H 0.27664 0.48436 0.28288 0.0
H2290 H 0.25553 0.55733 0.25076 0.0
H2291 H 0.26323 0.57954 0.28826 0.0
C2292 C 0.28703 0.50491 0.20163 0.0
C2293 C 0.27758 0.47967 0.19813 0.0
C2294 C 0.28149 0.51832 0.22235 0.0
C2295 C 0.26684 0.50656 0.2403 0.0
C2296 C 0.25645 0.48164 0.23638 0.0
C2297 C 0.26158 0.46839 0.21532 0.0
C2298 C 0.27713 0.5177 0.30531 0.0
C2299 C 0.27405 0.54468 0.30702 0.0
C2300 C 0.27263 0.50495 0.284 0.0
C2301 C 0.26553 0.51909 0.26385 0.0
C2302 C 0.26102 0.54594 0.26598 0.0
C2303 C 0.26518 0.55863 0.28743 0.0
H2304 H 0.0574 0.23081 0.94235 0.0
H2305 H 0.14059 0.21929 0.94169 0.0
H2306 H 0.0576 0.22993 0.98509 0.0
H2307 H 0.14077 0.2189 0.98456 0.0
H2308 H 0.12664 0.1906 0.05973 0.0
H2309 H 0.12619 0.19155 0.01698 0.0
H2310 H 0.07204 0.25558 0.01854 0.0
H2311 H 0.07208 0.25438 0.06139 0.0
C2312 C 0.07578 0.22824 0.9513 0.0
C2313 C 0.09901 0.22514 0.93854 0.0
C2314 C 0.07588 0.22788 0.97583 0.0
C2315 C 0.09919 0.22438 0.98824 0.0
C2316 C 0.12243 0.22133 0.97552 0.0
C2317 C 0.12235 0.2217 0.95094 0.0
C2318 C 0.11459 0.20489 0.051 0.0
C2319 C 0.09943 0.22247 0.06404 0.0
C2320 C 0.11448 0.20552 0.02647 0.0
C2321 C 0.09919 0.22371 0.01435 0.0
C2322 C 0.08385 0.24115 0.02735 0.0
C2323 C 0.08395 0.24053 0.05192 0.0
H2324 H 0.78905 0.14029 0.06237 0.0
H2325 H 0.80746 0.05852 0.06136 0.0
H2326 H 0.78803 0.14077 0.01956 0.0
H2327 H 0.80767 0.05917 0.01864 0.0
H2328 H 0.78053 0.06145 0.94314 0.0
H2329 H 0.78048 0.06164 0.98586 0.0
H2330 H 0.81364 0.13875 0.98542 0.0
H2331 H 0.8125 0.13894 0.94262 0.0
C2332 C 0.79312 0.12246 0.05298 0.0
C2333 C 0.79818 0.09933 0.06526 0.0
C2334 C 0.7927 0.12275 0.0284 0.0
C2335 C 0.79771 0.09999 0.01548 0.0
C2336 C 0.80315 0.07696 0.02787 0.0
C2337 C 0.80319 0.0766 0.05243 0.0
C2338 C 0.78777 0.07847 0.95217 0.0
C2339 C 0.79647 0.1002 0.93947 0.0
C2340 C 0.78792 0.07853 0.97673 0.0
C2341 C 0.79717 0.10017 0.98926 0.0
C2342 C 0.80596 0.12189 0.97648 0.0
C2343 C 0.80545 0.12197 0.9519 0.0
H2344 H 0.89198 0.83093 0.94723 0.0
H2345 H 0.94742 0.76795 0.9451 0.0
H2346 H 0.89311 0.83022 0.98994 0.0
H2347 H 0.94817 0.767 0.98799 0.0
H2348 H 0.9631 0.79231 0.06432 0.0
H2349 H 0.9626 0.79291 0.02149 0.0
H2350 H 0.87931 0.80285 0.02248 0.0
H2351 H 0.87978 0.80271 0.06529 0.0
C2352 C 0.90435 0.81684 0.95584 0.0
C2353 C 0.91954 0.79942 0.94267 0.0
C2354 C 0.90487 0.81635 0.98038 0.0
C2355 C 0.92062 0.79847 0.99241 0.0
C2356 C 0.936 0.78118 0.97927 0.0
C2357 C 0.93546 0.78164 0.95467 0.0
C2358 C 0.94465 0.79461 0.05543 0.0
C2359 C 0.92147 0.79746 0.0683 0.0
C2360 C 0.94437 0.7948 0.03085 0.0
C2361 C 0.92093 0.79792 0.01855 0.0
C2362 C 0.89775 0.80073 0.03141 0.0
C2363 C 0.89801 0.80051 0.05598 0.0
H2364 H 0.24037 0.96012 0.93862 0.0
H2365 H 0.206 0.88365 0.93872 0.0
H2366 H 0.24139 0.95967 0.98138 0.0
H2367 H 0.206 0.88359 0.98151 0.0
H2368 H 0.23229 0.88034 0.05768 0.0
H2369 H 0.2328 0.88053 0.01488 0.0
H2370 H 0.21492 0.96252 0.01501 0.0
H2371 H 0.21549 0.96247 0.05777 0.0
C2372 C 0.23285 0.94327 0.94778 0.0
C2373 C 0.22318 0.92189 0.93521 0.0
C2374 C 0.23328 0.94306 0.97236 0.0
C2375 C 0.22374 0.92161 0.98506 0.0
C2376 C 0.21396 0.90027 0.97243 0.0
C2377 C 0.21382 0.90035 0.94784 0.0
C2378 C 0.22852 0.89842 0.04856 0.0
C2379 C 0.22394 0.9214 0.06118 0.0
C2380 C 0.22864 0.89851 0.02396 0.0
C2381 C 0.22387 0.92154 0.01133 0.0
C2382 C 0.21916 0.94449 0.02403 0.0
C2383 C 0.21933 0.94445 0.04861 0.0
H2384 H 0.06649 0.76935 0.56134 0.0
H2385 H 0.12177 0.83249 0.55983 0.0
H2386 H 0.06621 0.76863 0.51844 0.0
H2387 H 0.12117 0.83192 0.51708 0.0
H2388 H 0.1368 0.80258 0.44246 0.0
H2389 H 0.13599 0.80358 0.48527 0.0
H2390 H 0.05259 0.79474 0.48439 0.0
H2391 H 0.05335 0.79337 0.44157 0.0
C2392 C 0.07845 0.78317 0.5519 0.0
C2393 C 0.09427 0.80086 0.56408 0.0
C2394 C 0.0782 0.78283 0.52731 0.0
C2395 C 0.09379 0.80011 0.51435 0.0
C2396 C 0.10926 0.81806 0.52653 0.0
C2397 C 0.10947 0.81847 0.55107 0.0
C2398 C 0.11828 0.8008 0.45136 0.0
C2399 C 0.09516 0.79784 0.43853 0.0
C2400 C 0.11781 0.80154 0.47591 0.0
C2401 C 0.09422 0.79928 0.48824 0.0
C2402 C 0.0711 0.79625 0.47543 0.0
C2403 C 0.07155 0.7956 0.45087 0.0
H2404 H 0.24279 0.05708 0.43854 0.0
H2405 H 0.21115 0.13471 0.43803 0.0
H2406 H 0.24304 0.05739 0.48127 0.0
H2407 H 0.21031 0.13467 0.48085 0.0
H2408 H 0.21612 0.05488 0.55723 0.0
H2409 H 0.21609 0.05517 0.51445 0.0
H2410 H 0.23609 0.13666 0.51483 0.0
H2411 H 0.235 0.13653 0.5576 0.0
C2412 C 0.23571 0.07418 0.44756 0.0
C2413 C 0.22701 0.0959 0.43482 0.0
C2414 C 0.23567 0.0743 0.47214 0.0
C2415 C 0.22659 0.09602 0.48471 0.0
C2416 C 0.21786 0.11774 0.4719 0.0
C2417 C 0.21821 0.11774 0.44729 0.0
C2418 C 0.22053 0.07285 0.54817 0.0
C2419 C 0.22558 0.09567 0.56087 0.0
C2420 C 0.22067 0.07302 0.52357 0.0
C2421 C 0.22618 0.09593 0.51099 0.0
C2422 C 0.23133 0.11873 0.52378 0.0
C2423 C 0.23087 0.11863 0.54838 0.0
H2424 H 0.8825 0.23353 0.56319 0.0
H2425 H 0.96464 0.2165 0.56131 0.0
H2426 H 0.88163 0.23461 0.52031 0.0
H2427 H 0.96362 0.21644 0.51867 0.0
H2428 H 0.96086 0.24382 0.44377 0.0
H2429 H 0.96011 0.24475 0.48645 0.0
H2430 H 0.88449 0.20824 0.48619 0.0
H2431 H 0.88482 0.2084 0.44333 0.0
C2432 C 0.90031 0.22982 0.55361 0.0
C2433 C 0.92368 0.22515 0.56561 0.0
C2434 C 0.8998 0.2303 0.52904 0.0
C2435 C 0.92259 0.22577 0.51597 0.0
C2436 C 0.94582 0.22065 0.52809 0.0
C2437 C 0.94639 0.22053 0.55258 0.0
C2438 C 0.94404 0.23605 0.45282 0.0
C2439 C 0.92292 0.22598 0.4402 0.0
C2440 C 0.94366 0.23643 0.47733 0.0
C2441 C 0.92233 0.22636 0.48984 0.0
C2442 C 0.90109 0.21648 0.47717 0.0
C2443 C 0.90132 0.21644 0.4526 0.0
H2444 H 0.83213 0.89887 0.44602 0.0
H2445 H 0.76729 0.95212 0.44374 0.0
H2446 H 0.83036 0.89891 0.48874 0.0
H2447 H 0.76536 0.95184 0.48663 0.0
H2448 H 0.78874 0.96539 0.56385 0.0
H2449 H 0.79009 0.96607 0.52107 0.0
H2450 H 0.80228 0.88315 0.52036 0.0
H2451 H 0.80131 0.88244 0.56322 0.0
C2452 C 0.81746 0.91061 0.4546 0.0
C2453 C 0.79977 0.92544 0.44136 0.0
C2454 C 0.81636 0.91046 0.47914 0.0
C2455 C 0.7976 0.9252 0.49112 0.0
C2456 C 0.78017 0.94039 0.47794 0.0
C2457 C 0.78122 0.94049 0.45334 0.0
C2458 C 0.79164 0.94725 0.55461 0.0
C2459 C 0.79492 0.92384 0.56705 0.0
C2460 C 0.79227 0.94765 0.53005 0.0
C2461 C 0.79632 0.92469 0.51727 0.0
C2462 C 0.79945 0.90125 0.52967 0.0
C2463 C 0.79873 0.90082 0.55426 0.0
H2464 H 0.63658 0.70498 0.4395 0.0
H2465 H 0.56184 0.743 0.44154 0.0
H2466 H 0.63708 0.70319 0.48231 0.0
H2467 H 0.56278 0.7423 0.48423 0.0
H2468 H 0.558 0.71302 0.55878 0.0
H2469 H 0.55853 0.7137 0.5161 0.0
H2470 H 0.64127 0.72809 0.517 0.0
H2471 H 0.64084 0.72624 0.55984 0.0
C2472 C 0.6204 0.71323 0.44911 0.0
C2473 C 0.59913 0.72404 0.43713 0.0
C2474 C 0.62073 0.71233 0.47368 0.0
C2475 C 0.59992 0.7225 0.48683 0.0
C2476 C 0.57889 0.73374 0.47476 0.0
C2477 C 0.57841 0.73431 0.45023 0.0
C2478 C 0.57632 0.71631 0.54987 0.0
C2479 C 0.59937 0.71968 0.5627 0.0
C2480 C 0.57662 0.71688 0.52535 0.0
C2481 C 0.59991 0.7212 0.513 0.0
C2482 C 0.62302 0.72439 0.52586 0.0
C2483 C 0.62277 0.72347 0.55044 0.0
H2484 H 0.3018 0.5583 0.44429 0.0
H2485 H 0.28663 0.64073 0.44211 0.0
H2486 H 0.29974 0.5592 0.48698 0.0
H2487 H 0.28347 0.6415 0.48483 0.0
H2488 H 0.30687 0.63798 0.56251 0.0
H2489 H 0.30827 0.63828 0.5197 0.0
H2490 H 0.2704 0.56339 0.51851 0.0
H2491 H 0.27005 0.56267 0.56122 0.0
C2492 C 0.29778 0.57658 0.45294 0.0
C2493 C 0.29435 0.59943 0.43982 0.0
C2494 C 0.29642 0.57709 0.47744 0.0
C2495 C 0.29126 0.6004 0.48944 0.0
C2496 C 0.28783 0.62327 0.47626 0.0
C2497 C 0.28951 0.62281 0.45174 0.0
C2498 C 0.29868 0.62168 0.55307 0.0
C2499 C 0.28845 0.60026 0.56525 0.0
C2500 C 0.2994 0.62188 0.5285 0.0
C2501 C 0.28961 0.60077 0.51556 0.0
C2502 C 0.27868 0.57971 0.52783 0.0
C2503 C 0.27828 0.57938 0.55236 0.0
H2504 H 0.38994 0.3237 0.56006 0.0
H2505 H 0.45329 0.26888 0.56109 0.0
H2506 H 0.39032 0.3234 0.51737 0.0
H2507 H 0.45259 0.26691 0.51828 0.0
H2508 H 0.46059 0.28703 0.44053 0.0
H2509 H 0.46213 0.28792 0.48339 0.0
H2510 H 0.3788 0.29915 0.48537 0.0
H2511 H 0.37787 0.30014 0.44273 0.0
C2512 C 0.40372 0.31129 0.55104 0.0
C2513 C 0.42151 0.29626 0.56375 0.0
C2514 C 0.40384 0.3109 0.52655 0.0
C2515 C 0.42128 0.29486 0.51418 0.0
C2516 C 0.43914 0.27982 0.52706 0.0
C2517 C 0.43946 0.28077 0.5516 0.0
C2518 C 0.44269 0.28964 0.45028 0.0
C2519 C 0.41916 0.29371 0.43847 0.0
C2520 C 0.44348 0.29002 0.47484 0.0
C2521 C 0.42061 0.29383 0.48803 0.0
C2522 C 0.39696 0.29698 0.47597 0.0
C2523 C 0.39632 0.29731 0.45149 0.0
H2524 H 0.68842 0.38996 0.56009 0.0
H2525 H 0.75128 0.44552 0.56057 0.0
H2526 H 0.68801 0.39106 0.51726 0.0
H2527 H 0.75117 0.44621 0.51775 0.0
H2528 H 0.72619 0.46106 0.44177 0.0
H2529 H 0.72557 0.46055 0.48459 0.0
H2530 H 0.71375 0.37757 0.48378 0.0
H2531 H 0.71386 0.37811 0.44095 0.0
C2532 C 0.70222 0.40236 0.5511 0.0
C2533 C 0.71993 0.4176 0.56388 0.0
C2534 C 0.70208 0.40287 0.52649 0.0
C2535 C 0.7196 0.41867 0.51397 0.0
C2536 C 0.73718 0.43404 0.52676 0.0
C2537 C 0.73734 0.43353 0.55137 0.0
C2538 C 0.72346 0.44268 0.45068 0.0
C2539 C 0.72013 0.41962 0.43781 0.0
C2540 C 0.72324 0.44237 0.47529 0.0
C2541 C 0.71965 0.41901 0.48772 0.0
C2542 C 0.71624 0.39597 0.47484 0.0
C2543 C 0.71648 0.39626 0.45023 0.0
H2544 H 0.56121 0.28026 0.0587 0.0
H2545 H 0.63279 0.32391 0.05692 0.0
H2546 H 0.55945 0.28133 0.01584 0.0
H2547 H 0.63178 0.32396 0.01432 0.0
H2548 H 0.61343 0.34028 0.93859 0.0
H2549 H 0.61143 0.34142 0.98133 0.0
H2550 H 0.57875 0.26411 0.98184 0.0
H2551 H 0.57961 0.26359 0.93908 0.0
C2552 C 0.57665 0.28991 0.04915 0.0
C2553 C 0.5971 0.302 0.06124 0.0
C2554 C 0.57575 0.29043 0.02455 0.0
C2555 C 0.59547 0.30276 0.01145 0.0
C2556 C 0.61592 0.31476 0.02367 0.0
C2557 C 0.61662 0.31456 0.04819 0.0
C2558 C 0.60573 0.32358 0.94786 0.0
C2559 C 0.59678 0.30182 0.93545 0.0
C2560 C 0.60471 0.32414 0.97241 0.0
C2561 C 0.59511 0.30276 0.98521 0.0
C2562 C 0.5859 0.28111 0.97269 0.0
C2563 C 0.58655 0.28073 0.94812 0.0
H2564 H 0.74439 0.55798 0.94164 0.0
H2565 H 0.71334 0.63586 0.94178 0.0
H2566 H 0.74492 0.55801 0.98441 0.0
H2567 H 0.71279 0.63554 0.98456 0.0
H2568 H 0.73764 0.63681 0.06107 0.0
H2569 H 0.73904 0.63705 0.01831 0.0
H2570 H 0.7177 0.5559 0.01757 0.0
H2571 H 0.7174 0.55546 0.06035 0.0
C2572 C 0.73753 0.57507 0.95081 0.0
C2573 C 0.7289 0.59695 0.93827 0.0
C2574 C 0.73765 0.57503 0.97539 0.0
C2575 C 0.72882 0.59675 0.98809 0.0
C2576 C 0.72018 0.61863 0.97548 0.0
C2577 C 0.72036 0.61878 0.95089 0.0
C2578 C 0.73329 0.619 0.05177 0.0
C2579 C 0.72748 0.59609 0.06414 0.0
C2580 C 0.73393 0.61917 0.02719 0.0
C2581 C 0.72846 0.59651 0.01433 0.0
C2582 C 0.72252 0.57363 0.02678 0.0
C2583 C 0.72218 0.57339 0.05136 0.0
H2584 H 0.3875 0.71173 0.94068 0.0
H2585 H 0.46196 0.75032 0.94187 0.0
H2586 H 0.38723 0.71045 0.98349 0.0
H2587 H 0.46124 0.75012 0.98459 0.0
H2588 H 0.46632 0.71975 0.05931 0.0
H2589 H 0.46589 0.72146 0.01658 0.0
H2590 H 0.38314 0.73579 0.01784 0.0
H2591 H 0.38346 0.73293 0.06054 0.0
C2592 C 0.40362 0.72029 0.95011 0.0
C2593 C 0.42477 0.73105 0.93792 0.0
C2594 C 0.40344 0.71967 0.97466 0.0
C2595 C 0.42427 0.73009 0.98756 0.0
C2596 C 0.44513 0.74139 0.97528 0.0
C2597 C 0.44546 0.74169 0.95076 0.0
C2598 C 0.44806 0.7233 0.05044 0.0
C2599 C 0.42493 0.7262 0.06329 0.0
C2600 C 0.44781 0.72444 0.02592 0.0
C2601 C 0.42448 0.72886 0.01369 0.0
C2602 C 0.40138 0.73193 0.02661 0.0
C2603 C 0.40159 0.73045 0.05112 0.0
H2604 H 0.31335 0.38377 0.0634 0.0
H2605 H 0.27534 0.4585 0.06278 0.0
H2606 H 0.31462 0.38403 0.02055 0.0
H2607 H 0.27547 0.4583 0.0201 0.0
H2608 H 0.30501 0.4648 0.94563 0.0
H2609 H 0.30397 0.46335 0.98831 0.0
H2610 H 0.28971 0.38068 0.98584 0.0
H2611 H 0.29196 0.38204 0.94306 0.0
C2612 C 0.30494 0.40007 0.05409 0.0
C2613 C 0.29438 0.42116 0.06645 0.0
C2614 C 0.30555 0.40019 0.02951 0.0
C2615 C 0.2953 0.42127 0.01677 0.0
C2616 C 0.28413 0.44202 0.02925 0.0
C2617 C 0.28388 0.44207 0.05376 0.0
C2618 C 0.30163 0.44632 0.95421 0.0
C2619 C 0.29849 0.42356 0.94098 0.0
C2620 C 0.30087 0.44548 0.97871 0.0
C2621 C 0.29655 0.42192 0.99062 0.0
C2622 C 0.29343 0.39912 0.97733 0.0
C2623 C 0.29457 0.39991 0.95279 0.0
loop_
_geom_bond_atom_site_label_1
_geom_bond_atom_site_label_2
_geom_bond_distance
_geom_bond_site_symmetry_2
_ccdc_geom_bond_type
Fe0 O2 1.918 . S
Fe0 O5 1.997 . S
Fe0 O6 2.002 . S
Fe0 O11 1.976 . S
Fe0 O14 1.996 . S
Fe1 O2 1.918 . S
Fe1 O9 1.997 . S
Fe1 O12 1.996 . S
Fe1 O16 1.976 . S
Fe1 O19 2.002 . S
O2 Fe0 1.918 . S
O2 Fe1 1.918 . S
O2 Fe3 1.918 . S
Fe3 O2 1.918 . S
Fe3 O4 2.002 . S
Fe3 O13 1.976 . S
Fe3 O17 1.996 . S
Fe3 O20 1.997 . S
O4 Fe3 2.002 . S
O4 C21 1.295 . S
O5 Fe0 1.997 . S
O5 C21 1.235 . S
O6 Fe0 2.002 . S
O6 C7 1.295 . S
C7 O6 1.295 . S
C7 O9 1.235 . S
C8 O13 1.287 . S
C8 O14 1.255 . S
O9 Fe1 1.997 . S
O9 C7 1.235 . S
C10 O16 1.287 . S
C10 O17 1.255 . S
O11 Fe0 1.976 . S
O11 C18 1.287 . S
O12 Fe1 1.996 . S
O12 C18 1.255 . S
O13 Fe3 1.976 . S
O13 C8 1.287 . S
O14 Fe0 1.996 . S
O14 C8 1.255 . S
C15 O19 1.295 . S
C15 O20 1.235 . S
O16 Fe1 1.976 . S
O16 C10 1.287 . S
O17 Fe3 1.996 . S
O17 C10 1.255 . S
C18 O11 1.287 . S
C18 O12 1.255 . S
O19 Fe1 2.002 . S
O19 C15 1.295 . S
O20 Fe3 1.997 . S
O20 C15 1.235 . S
C21 O4 1.295 . S
C21 O5 1.235 . S
Fe22 O24 1.918 . S
Fe22 O27 1.997 . S
Fe22 O28 2.002 . S
Fe22 O33 1.976 . S
Fe22 O36 1.996 . S
Fe23 O24 1.918 . S
Fe23 O31 1.997 . S
Fe23 O34 1.996 . S
Fe23 O38 1.976 . S
Fe23 O41 2.002 . S
O24 Fe22 1.918 . S
O24 Fe23 1.918 . S
O24 Fe25 1.918 . S
Fe25 O24 1.918 . S
Fe25 O26 2.002 . S
Fe25 O35 1.976 . S
Fe25 O39 1.996 . S
Fe25 O42 1.997 . S
O26 Fe25 2.002 . S
O26 C43 1.295 . S
O27 Fe22 1.997 . S
O27 C43 1.235 . S
O28 Fe22 2.002 . S
O28 C29 1.295 . S
C29 O28 1.295 . S
C29 O31 1.235 . S
C30 O35 1.287 . S
C30 O36 1.255 . S
O31 Fe23 1.997 . S
O31 C29 1.235 . S
C32 O38 1.287 . S
C32 O39 1.255 . S
O33 Fe22 1.976 . S
O33 C40 1.287 . S
O34 Fe23 1.996 . S
O34 C40 1.255 . S
O35 Fe25 1.976 . S
O35 C30 1.287 . S
O36 Fe22 1.996 . S
O36 C30 1.255 . S
C37 O41 1.295 . S
C37 O42 1.235 . S
O38 Fe23 1.976 . S
O38 C32 1.287 . S
O39 Fe25 1.996 . S
O39 C32 1.255 . S
C40 O33 1.287 . S
C40 O34 1.255 . S
O41 Fe23 2.002 . S
O41 C37 1.295 . S
O42 Fe25 1.997 . S
O42 C37 1.235 . S
C43 O26 1.295 . S
C43 O27 1.235 . S
Fe44 O46 1.918 . S
Fe44 O49 1.997 . S
Fe44 O50 2.002 . S
Fe44 O55 1.976 . S
Fe44 O58 1.996 . S
Fe45 O46 1.918 . S
Fe45 O53 1.997 . S
Fe45 O56 1.996 . S
Fe45 O60 1.976 . S
Fe45 O63 2.002 . S
O46 Fe44 1.918 . S
O46 Fe45 1.918 . S
O46 Fe47 1.918 . S
Fe47 O46 1.918 . S
Fe47 O48 2.002 . S
Fe47 O57 1.976 . S
Fe47 O61 1.996 . S
Fe47 O64 1.997 . S
O48 Fe47 2.002 . S
O48 C65 1.295 . S
O49 Fe44 1.997 . S
O49 C65 1.235 . S
O50 Fe44 2.002 . S
O50 C51 1.295 . S
C51 O50 1.295 . S
C51 O53 1.235 . S
C52 O57 1.287 . S
C52 O58 1.255 . S
O53 Fe45 1.997 . S
O53 C51 1.235 . S
C54 O60 1.287 . S
C54 O61 1.255 . S
O55 Fe44 1.976 . S
O55 C62 1.287 . S
O56 Fe45 1.996 . S
O56 C62 1.255 . S
O57 Fe47 1.976 . S
O57 C52 1.287 . S
O58 Fe44 1.996 . S
O58 C52 1.255 . S
C59 O63 1.295 . S
C59 O64 1.235 . S
O60 Fe45 1.976 . S
O60 C54 1.287 . S
O61 Fe47 1.996 . S
O61 C54 1.255 . S
C62 O55 1.287 . S
C62 O56 1.255 . S
O63 Fe45 2.002 . S
O63 C59 1.295 . S
O64 Fe47 1.997 . S
O64 C59 1.235 . S
C65 O48 1.295 . S
C65 O49 1.235 . S
Fe66 O68 1.918 . S
Fe66 O71 1.997 . S
Fe66 O72 2.002 . S
Fe66 O77 1.976 . S
Fe66 O80 1.996 . S
Fe67 O68 1.918 . S
Fe67 O75 1.997 . S
Fe67 O78 1.996 . S
Fe67 O82 1.976 . S
Fe67 O85 2.002 . S
O68 Fe66 1.918 . S
O68 Fe67 1.918 . S
O68 Fe69 1.918 . S
Fe69 O68 1.918 . S
Fe69 O70 2.002 . S
Fe69 O79 1.976 . S
Fe69 O83 1.996 . S
Fe69 O86 1.997 . S
O70 Fe69 2.002 . S
O70 C87 1.295 . S
O71 Fe66 1.997 . S
O71 C87 1.235 . S
O72 Fe66 2.002 . S
O72 C73 1.295 . S
C73 O72 1.295 . S
C73 O75 1.235 . S
C74 O79 1.287 . S
C74 O80 1.255 . S
O75 Fe67 1.997 . S
O75 C73 1.235 . S
C76 O82 1.287 . S
C76 O83 1.255 . S
O77 Fe66 1.976 . S
O77 C84 1.287 . S
O78 Fe67 1.996 . S
O78 C84 1.255 . S
O79 Fe69 1.976 . S
O79 C74 1.287 . S
O80 Fe66 1.996 . S
O80 C74 1.255 . S
C81 O85 1.295 . S
C81 O86 1.235 . S
O82 Fe67 1.976 . S
O82 C76 1.287 . S
O83 Fe69 1.996 . S
O83 C76 1.255 . S
C84 O77 1.287 . S
C84 O78 1.255 . S
O85 Fe67 2.002 . S
O85 C81 1.295 . S
O86 Fe69 1.997 . S
O86 C81 1.235 . S
C87 O70 1.295 . S
C87 O71 1.235 . S
Fe88 O90 1.918 . S
Fe88 O93 1.997 . S
Fe88 O94 2.002 . S
Fe88 O99 1.976 . S
Fe88 O102 1.996 . S
Fe89 O90 1.918 . S
Fe89 O97 1.997 . S
Fe89 O100 1.996 . S
Fe89 O104 1.976 . S
Fe89 O107 2.002 . S
O90 Fe88 1.918 . S
O90 Fe89 1.918 . S
O90 Fe91 1.918 . S
Fe91 O90 1.918 . S
Fe91 O92 2.002 . S
Fe91 O101 1.976 . S
Fe91 O105 1.996 . S
Fe91 O108 1.997 . S
O92 Fe91 2.002 . S
O92 C109 1.295 . S
O93 Fe88 1.997 . S
O93 C109 1.235 . S
O94 Fe88 2.002 . S
O94 C95 1.295 . S
C95 O94 1.295 . S
C95 O97 1.235 . S
C96 O101 1.287 . S
C96 O102 1.255 . S
O97 Fe89 1.997 . S
O97 C95 1.235 . S
C98 O104 1.287 . S
C98 O105 1.255 . S
O99 Fe88 1.976 . S
O99 C106 1.287 . S
O100 Fe89 1.996 . S
O100 C106 1.255 . S
O101 Fe91 1.976 . S
O101 C96 1.287 . S
O102 Fe88 1.996 . S
O102 C96 1.255 . S
C103 O107 1.295 . S
C103 O108 1.235 . S
O104 Fe89 1.976 . S
O104 C98 1.287 . S
O105 Fe91 1.996 . S
O105 C98 1.255 . S
C106 O99 1.287 . S
C106 O100 1.255 . S
O107 Fe89 2.002 . S
O107 C103 1.295 . S
O108 Fe91 1.997 . S
O108 C103 1.235 . S
C109 O92 1.295 . S
C109 O93 1.235 . S
Fe110 O112 1.918 . S
Fe110 O115 1.997 . S
Fe110 O116 2.002 . S
Fe110 O121 1.976 . S
Fe110 O124 1.996 . S
Fe111 O112 1.918 . S
Fe111 O119 1.997 . S
Fe111 O122 1.996 . S
Fe111 O126 1.976 . S
Fe111 O129 2.002 . S
O112 Fe110 1.918 . S
O112 Fe111 1.918 . S
O112 Fe113 1.918 . S
Fe113 O112 1.918 . S
Fe113 O114 2.002 . S
Fe113 O123 1.976 . S
Fe113 O127 1.996 . S
Fe113 O130 1.997 . S
O114 Fe113 2.002 . S
O114 C131 1.295 . S
O115 Fe110 1.997 . S
O115 C131 1.235 . S
O116 Fe110 2.002 . S
O116 C117 1.295 . S
C117 O116 1.295 . S
C117 O119 1.235 . S
C118 O123 1.287 . S
C118 O124 1.255 . S
O119 Fe111 1.997 . S
O119 C117 1.235 . S
C120 O126 1.287 . S
C120 O127 1.255 . S
O121 Fe110 1.976 . S
O121 C128 1.287 . S
O122 Fe111 1.996 . S
O122 C128 1.255 . S
O123 Fe113 1.976 . S
O123 C118 1.287 . S
O124 Fe110 1.996 . S
O124 C118 1.255 . S
C125 O129 1.295 . S
C125 O130 1.235 . S
O126 Fe111 1.976 . S
O126 C120 1.287 . S
O127 Fe113 1.996 . S
O127 C120 1.255 . S
C128 O121 1.287 . S
C128 O122 1.255 . S
O129 Fe111 2.002 . S
O129 C125 1.295 . S
O130 Fe113 1.997 . S
O130 C125 1.235 . S
C131 O114 1.295 . S
C131 O115 1.235 . S
Fe132 O134 1.918 . S
Fe132 O137 1.997 . S
Fe132 O138 2.002 . S
Fe132 O143 1.976 . S
Fe132 O146 1.996 . S
Fe133 O134 1.918 . S
Fe133 O141 1.997 . S
Fe133 O144 1.996 . S
Fe133 O148 1.976 . S
Fe133 O151 2.002 . S
O134 Fe132 1.918 . S
O134 Fe133 1.918 . S
O134 Fe135 1.918 . S
Fe135 O134 1.918 . S
Fe135 O136 2.002 . S
Fe135 O145 1.976 . S
Fe135 O149 1.996 . S
Fe135 O152 1.997 . S
O136 Fe135 2.002 . S
O136 C153 1.295 . S
O137 Fe132 1.997 . S
O137 C153 1.235 . S
O138 Fe132 2.002 . S
O138 C139 1.295 . S
C139 O138 1.295 . S
C139 O141 1.235 . S
C140 O145 1.287 . S
C140 O146 1.255 . S
O141 Fe133 1.997 . S
O141 C139 1.235 . S
C142 O148 1.287 . S
C142 O149 1.255 . S
O143 Fe132 1.976 . S
O143 C150 1.287 . S
O144 Fe133 1.996 . S
O144 C150 1.255 . S
O145 Fe135 1.976 . S
O145 C140 1.287 . S
O146 Fe132 1.996 . S
O146 C140 1.255 . S
C147 O151 1.295 . S
C147 O152 1.235 . S
O148 Fe133 1.976 . S
O148 C142 1.287 . S
O149 Fe135 1.996 . S
O149 C142 1.255 . S
C150 O143 1.287 . S
C150 O144 1.255 . S
O151 Fe133 2.002 . S
O151 C147 1.295 . S
O152 Fe135 1.997 . S
O152 C147 1.235 . S
C153 O136 1.295 . S
C153 O137 1.235 . S
Fe154 O156 1.918 . S
Fe154 O159 1.997 . S
Fe154 O160 2.002 . S
Fe154 O165 1.976 . S
Fe154 O168 1.996 . S
Fe155 O156 1.918 . S
Fe155 O163 1.997 . S
Fe155 O166 1.996 . S
Fe155 O170 1.976 . S
Fe155 O173 2.002 . S
O156 Fe154 1.918 . S
O156 Fe155 1.918 . S
O156 Fe157 1.918 . S
Fe157 O156 1.918 . S
Fe157 O158 2.002 . S
Fe157 O167 1.976 . S
Fe157 O171 1.996 . S
Fe157 O174 1.997 . S
O158 Fe157 2.002 . S
O158 C175 1.295 . S
O159 Fe154 1.997 . S
O159 C175 1.235 . S
O160 Fe154 2.002 . S
O160 C161 1.295 . S
C161 O160 1.295 . S
C161 O163 1.235 . S
C162 O167 1.287 . S
C162 O168 1.255 . S
O163 Fe155 1.997 . S
O163 C161 1.235 . S
C164 O170 1.287 . S
C164 O171 1.255 . S
O165 Fe154 1.976 . S
O165 C172 1.287 . S
O166 Fe155 1.996 . S
O166 C172 1.255 . S
O167 Fe157 1.976 . S
O167 C162 1.287 . S
O168 Fe154 1.996 . S
O168 C162 1.255 . S
C169 O173 1.295 . S
C169 O174 1.235 . S
O170 Fe155 1.976 . S
O170 C164 1.287 . S
O171 Fe157 1.996 . S
O171 C164 1.255 . S
C172 O165 1.287 . S
C172 O166 1.255 . S
O173 Fe155 2.002 . S
O173 C169 1.295 . S
O174 Fe157 1.997 . S
O174 C169 1.235 . S
C175 O158 1.295 . S
C175 O159 1.235 . S
Fe176 O178 1.918 . S
Fe176 O181 1.997 . S
Fe176 O182 2.002 . S
Fe176 O187 1.976 . S
Fe176 O190 1.996 . S
Fe177 O178 1.918 . S
Fe177 O185 1.997 . S
Fe177 O188 1.996 . S
Fe177 O192 1.976 . S
Fe177 O195 2.002 . S
O178 Fe176 1.918 . S
O178 Fe177 1.918 . S
O178 Fe179 1.918 . S
Fe179 O178 1.918 . S
Fe179 O180 2.002 . S
Fe179 O189 1.976 . S
Fe179 O193 1.996 . S
Fe179 O196 1.997 . S
O180 Fe179 2.002 . S
O180 C197 1.295 . S
O181 Fe176 1.997 . S
O181 C197 1.235 . S
O182 Fe176 2.002 . S
O182 C183 1.295 . S
C183 O182 1.295 . S
C183 O185 1.235 . S
C184 O189 1.287 . S
C184 O190 1.255 . S
O185 Fe177 1.997 . S
O185 C183 1.235 . S
C186 O192 1.287 . S
C186 O193 1.255 . S
O187 Fe176 1.976 . S
O187 C194 1.287 . S
O188 Fe177 1.996 . S
O188 C194 1.255 . S
O189 Fe179 1.976 . S
O189 C184 1.287 . S
O190 Fe176 1.996 . S
O190 C184 1.255 . S
C191 O195 1.295 . S
C191 O196 1.235 . S
O192 Fe177 1.976 . S
O192 C186 1.287 . S
O193 Fe179 1.996 . S
O193 C186 1.255 . S
C194 O187 1.287 . S
C194 O188 1.255 . S
O195 Fe177 2.002 . S
O195 C191 1.295 . S
O196 Fe179 1.997 . S
O196 C191 1.235 . S
C197 O180 1.295 . S
C197 O181 1.235 . S
Fe198 O200 1.918 . S
Fe198 O203 1.997 . S
Fe198 O204 2.002 . S
Fe198 O209 1.976 . S
Fe198 O212 1.996 . S
Fe199 O200 1.918 . S
Fe199 O207 1.997 . S
Fe199 O210 1.996 . S
Fe199 O214 1.976 . S
Fe199 O217 2.002 . S
O200 Fe198 1.918 . S
O200 Fe199 1.918 . S
O200 Fe201 1.918 . S
Fe201 O200 1.918 . S
Fe201 O202 2.002 . S
Fe201 O211 1.976 . S
Fe201 O215 1.996 . S
Fe201 O218 1.997 . S
O202 Fe201 2.002 . S
O202 C219 1.295 . S
O203 Fe198 1.997 . S
O203 C219 1.235 . S
O204 Fe198 2.002 . S
O204 C205 1.295 . S
C205 O204 1.295 . S
C205 O207 1.235 . S
C206 O211 1.287 . S
C206 O212 1.255 . S
O207 Fe199 1.997 . S
O207 C205 1.235 . S
C208 O214 1.287 . S
C208 O215 1.255 . S
O209 Fe198 1.976 . S
O209 C216 1.287 . S
O210 Fe199 1.996 . S
O210 C216 1.255 . S
O211 Fe201 1.976 . S
O211 C206 1.287 . S
O212 Fe198 1.996 . S
O212 C206 1.255 . S
C213 O217 1.295 . S
C213 O218 1.235 . S
O214 Fe199 1.976 . S
O214 C208 1.287 . S
O215 Fe201 1.996 . S
O215 C208 1.255 . S
C216 O209 1.287 . S
C216 O210 1.255 . S
O217 Fe199 2.002 . S
O217 C213 1.295 . S
O218 Fe201 1.997 . S
O218 C213 1.235 . S
C219 O202 1.295 . S
C219 O203 1.235 . S
Fe220 O222 1.918 . S
Fe220 O225 1.997 . S
Fe220 O226 2.002 . S
Fe220 O231 1.976 . S
Fe220 O234 1.996 . S
Fe221 O222 1.918 . S
Fe221 O229 1.997 . S
Fe221 O232 1.996 . S
Fe221 O236 1.976 . S
Fe221 O239 2.002 . S
O222 Fe220 1.918 . S
O222 Fe221 1.918 . S
O222 Fe223 1.918 . S
Fe223 O222 1.918 . S
Fe223 O224 2.002 . S
Fe223 O233 1.976 . S
Fe223 O237 1.996 . S
Fe223 O240 1.997 . S
O224 Fe223 2.002 . S
O224 C241 1.295 . S
O225 Fe220 1.997 . S
O225 C241 1.235 . S
O226 Fe220 2.002 . S
O226 C227 1.295 . S
C227 O226 1.295 . S
C227 O229 1.235 . S
C228 O233 1.287 . S
C228 O234 1.255 . S
O229 Fe221 1.997 . S
O229 C227 1.235 . S
C230 O236 1.287 . S
C230 O237 1.255 . S
O231 Fe220 1.976 . S
O231 C238 1.287 . S
O232 Fe221 1.996 . S
O232 C238 1.255 . S
O233 Fe223 1.976 . S
O233 C228 1.287 . S
O234 Fe220 1.996 . S
O234 C228 1.255 . S
C235 O239 1.295 . S
C235 O240 1.235 . S
O236 Fe221 1.976 . S
O236 C230 1.287 . S
O237 Fe223 1.996 . S
O237 C230 1.255 . S
C238 O231 1.287 . S
C238 O232 1.255 . S
O239 Fe221 2.002 . S
O239 C235 1.295 . S
O240 Fe223 1.997 . S
O240 C235 1.235 . S
C241 O224 1.295 . S
C241 O225 1.235 . S
Fe242 O244 1.918 . S
Fe242 O247 1.997 . S
Fe242 O248 2.002 . S
Fe242 O253 1.976 . S
Fe242 O256 1.996 . S
Fe243 O244 1.918 . S
Fe243 O251 1.997 . S
Fe243 O254 1.996 . S
Fe243 O258 1.976 . S
Fe243 O261 2.002 . S
O244 Fe242 1.918 . S
O244 Fe243 1.918 . S
O244 Fe245 1.918 . S
Fe245 O244 1.918 . S
Fe245 O246 2.002 . S
Fe245 O255 1.976 . S
Fe245 O259 1.996 . S
Fe245 O262 1.997 . S
O246 Fe245 2.002 . S
O246 C263 1.295 . S
O247 Fe242 1.997 . S
O247 C263 1.235 . S
O248 Fe242 2.002 . S
O248 C249 1.295 . S
C249 O248 1.295 . S
C249 O251 1.235 . S
C250 O255 1.287 . S
C250 O256 1.255 . S
O251 Fe243 1.997 . S
O251 C249 1.235 . S
C252 O258 1.287 . S
C252 O259 1.255 . S
O253 Fe242 1.976 . S
O253 C260 1.287 . S
O254 Fe243 1.996 . S
O254 C260 1.255 . S
O255 Fe245 1.976 . S
O255 C250 1.287 . S
O256 Fe242 1.996 . S
O256 C250 1.255 . S
C257 O261 1.295 . S
C257 O262 1.235 . S
O258 Fe243 1.976 . S
O258 C252 1.287 . S
O259 Fe245 1.996 . S
O259 C252 1.255 . S
C260 O253 1.287 . S
C260 O254 1.255 . S
O261 Fe243 2.002 . S
O261 C257 1.295 . S
O262 Fe245 1.997 . S
O262 C257 1.235 . S
C263 O246 1.295 . S
C263 O247 1.235 . S
Fe264 O266 1.918 . S
Fe264 O269 1.997 . S
Fe264 O270 2.002 . S
Fe264 O275 1.976 . S
Fe264 O278 1.996 . S
Fe265 O266 1.918 . S
Fe265 O273 1.997 . S
Fe265 O276 1.996 . S
Fe265 O280 1.976 . S
Fe265 O283 2.002 . S
O266 Fe264 1.918 . S
O266 Fe265 1.918 . S
O266 Fe267 1.918 . S
Fe267 O266 1.918 . S
Fe267 O268 2.002 . S
Fe267 O277 1.976 . S
Fe267 O281 1.996 . S
Fe267 O284 1.997 . S
O268 Fe267 2.002 . S
O268 C285 1.295 . S
O269 Fe264 1.997 . S
O269 C285 1.235 . S
O270 Fe264 2.002 . S
O270 C271 1.295 . S
C271 O270 1.295 . S
C271 O273 1.235 . S
C272 O277 1.287 . S
C272 O278 1.255 . S
O273 Fe265 1.997 . S
O273 C271 1.235 . S
C274 O280 1.287 . S
C274 O281 1.255 . S
O275 Fe264 1.976 . S
O275 C282 1.287 . S
O276 Fe265 1.996 . S
O276 C282 1.255 . S
O277 Fe267 1.976 . S
O277 C272 1.287 . S
O278 Fe264 1.996 . S
O278 C272 1.255 . S
C279 O283 1.295 . S
C279 O284 1.235 . S
O280 Fe265 1.976 . S
O280 C274 1.287 . S
O281 Fe267 1.996 . S
O281 C274 1.255 . S
C282 O275 1.287 . S
C282 O276 1.255 . S
O283 Fe265 2.002 . S
O283 C279 1.295 . S
O284 Fe267 1.997 . S
O284 C279 1.235 . S
C285 O268 1.295 . S
C285 O269 1.235 . S
Fe286 O288 1.918 . S
Fe286 O291 1.997 . S
Fe286 O292 2.002 . S
Fe286 O297 1.976 . S
Fe286 O300 1.996 . S
Fe287 O288 1.918 . S
Fe287 O295 1.997 . S
Fe287 O298 1.996 . S
Fe287 O302 1.976 . S
Fe287 O305 2.002 . S
O288 Fe286 1.918 . S
O288 Fe287 1.918 . S
O288 Fe289 1.918 . S
Fe289 O288 1.918 . S
Fe289 O290 2.002 . S
Fe289 O299 1.976 . S
Fe289 O303 1.996 . S
Fe289 O306 1.997 . S
O290 Fe289 2.002 . S
O290 C307 1.295 . S
O291 Fe286 1.997 . S
O291 C307 1.235 . S
O292 Fe286 2.002 . S
O292 C293 1.295 . S
C293 O292 1.295 . S
C293 O295 1.235 . S
C294 O299 1.287 . S
C294 O300 1.255 . S
O295 Fe287 1.997 . S
O295 C293 1.235 . S
C296 O302 1.287 . S
C296 O303 1.255 . S
O297 Fe286 1.976 . S
O297 C304 1.287 . S
O298 Fe287 1.996 . S
O298 C304 1.255 . S
O299 Fe289 1.976 . S
O299 C294 1.287 . S
O300 Fe286 1.996 . S
O300 C294 1.255 . S
C301 O305 1.295 . S
C301 O306 1.235 . S
O302 Fe287 1.976 . S
O302 C296 1.287 . S
O303 Fe289 1.996 . S
O303 C296 1.255 . S
C304 O297 1.287 . S
C304 O298 1.255 . S
O305 Fe287 2.002 . S
O305 C301 1.295 . S
O306 Fe289 1.997 . S
O306 C301 1.235 . S
C307 O290 1.295 . S
C307 O291 1.235 . S
Fe308 O310 1.918 . S
Fe308 O313 1.997 . S
Fe308 O314 2.002 . S
Fe308 O319 1.976 . S
Fe308 O322 1.996 . S
Fe309 O310 1.918 . S
Fe309 O317 1.997 . S
Fe309 O320 1.996 . S
Fe309 O324 1.976 . S
Fe309 O327 2.002 . S
O310 Fe308 1.918 . S
O310 Fe309 1.918 . S
O310 Fe311 1.918 . S
Fe311 O310 1.918 . S
Fe311 O312 2.002 . S
Fe311 O321 1.976 . S
Fe311 O325 1.996 . S
Fe311 O328 1.997 . S
O312 Fe311 2.002 . S
O312 C329 1.295 . S
O313 Fe308 1.997 . S
O313 C329 1.235 . S
O314 Fe308 2.002 . S
O314 C315 1.295 . S
C315 O314 1.295 . S
C315 O317 1.235 . S
C316 O321 1.287 . S
C316 O322 1.255 . S
O317 Fe309 1.997 . S
O317 C315 1.235 . S
C318 O324 1.287 . S
C318 O325 1.255 . S
O319 Fe308 1.976 . S
O319 C326 1.287 . S
O320 Fe309 1.996 . S
O320 C326 1.255 . S
O321 Fe311 1.976 . S
O321 C316 1.287 . S
O322 Fe308 1.996 . S
O322 C316 1.255 . S
C323 O327 1.295 . S
C323 O328 1.235 . S
O324 Fe309 1.976 . S
O324 C318 1.287 . S
O325 Fe311 1.996 . S
O325 C318 1.255 . S
C326 O319 1.287 . S
C326 O320 1.255 . S
O327 Fe309 2.002 . S
O327 C323 1.295 . S
O328 Fe311 1.997 . S
O328 C323 1.235 . S
C329 O312 1.295 . S
C329 O313 1.235 . S
Fe330 O332 1.918 . S
Fe330 O335 1.997 . S
Fe330 O336 2.002 . S
Fe330 O341 1.976 . S
Fe330 O344 1.996 . S
Fe331 O332 1.918 . S
Fe331 O339 1.997 . S
Fe331 O342 1.996 . S
Fe331 O346 1.976 . S
Fe331 O349 2.002 . S
O332 Fe330 1.918 . S
O332 Fe331 1.918 . S
O332 Fe333 1.918 . S
Fe333 O332 1.918 . S
Fe333 O334 2.002 . S
Fe333 O343 1.976 . S
Fe333 O347 1.996 . S
Fe333 O350 1.997 . S
O334 Fe333 2.002 . S
O334 C351 1.295 . S
O335 Fe330 1.997 . S
O335 C351 1.235 . S
O336 Fe330 2.002 . S
O336 C337 1.295 . S
C337 O336 1.295 . S
C337 O339 1.235 . S
C338 O343 1.287 . S
C338 O344 1.255 . S
O339 Fe331 1.997 . S
O339 C337 1.235 . S
C340 O346 1.287 . S
C340 O347 1.255 . S
O341 Fe330 1.976 . S
O341 C348 1.287 . S
O342 Fe331 1.996 . S
O342 C348 1.255 . S
O343 Fe333 1.976 . S
O343 C338 1.287 . S
O344 Fe330 1.996 . S
O344 C338 1.255 . S
C345 O349 1.295 . S
C345 O350 1.235 . S
O346 Fe331 1.976 . S
O346 C340 1.287 . S
O347 Fe333 1.996 . S
O347 C340 1.255 . S
C348 O341 1.287 . S
C348 O342 1.255 . S
O349 Fe331 2.002 . S
O349 C345 1.295 . S
O350 Fe333 1.997 . S
O350 C345 1.235 . S
C351 O334 1.295 . S
C351 O335 1.235 . S
Fe352 O354 1.918 . S
Fe352 O357 1.997 . S
Fe352 O358 2.002 . S
Fe352 O363 1.976 . S
Fe352 O366 1.996 . S
Fe353 O354 1.918 . S
Fe353 O361 1.997 . S
Fe353 O364 1.996 . S
Fe353 O368 1.976 . S
Fe353 O371 2.002 . S
O354 Fe352 1.918 . S
O354 Fe353 1.918 . S
O354 Fe355 1.918 . S
Fe355 O354 1.918 . S
Fe355 O356 2.002 . S
Fe355 O365 1.976 . S
Fe355 O369 1.996 . S
Fe355 O372 1.997 . S
O356 Fe355 2.002 . S
O356 C373 1.295 . S
O357 Fe352 1.997 . S
O357 C373 1.235 . S
O358 Fe352 2.002 . S
O358 C359 1.295 . S
C359 O358 1.295 . S
C359 O361 1.235 . S
C360 O365 1.287 . S
C360 O366 1.255 . S
O361 Fe353 1.997 . S
O361 C359 1.235 . S
C362 O368 1.287 . S
C362 O369 1.255 . S
O363 Fe352 1.976 . S
O363 C370 1.287 . S
O364 Fe353 1.996 . S
O364 C370 1.255 . S
O365 Fe355 1.976 . S
O365 C360 1.287 . S
O366 Fe352 1.996 . S
O366 C360 1.255 . S
C367 O371 1.295 . S
C367 O372 1.235 . S
O368 Fe353 1.976 . S
O368 C362 1.287 . S
O369 Fe355 1.996 . S
O369 C362 1.255 . S
C370 O363 1.287 . S
C370 O364 1.255 . S
O371 Fe353 2.002 . S
O371 C367 1.295 . S
O372 Fe355 1.997 . S
O372 C367 1.235 . S
C373 O356 1.295 . S
C373 O357 1.235 . S
Fe374 O376 1.918 . S
Fe374 O379 1.997 . S
Fe374 O380 2.002 . S
Fe374 O385 1.976 . S
Fe374 O388 1.996 . S
Fe375 O376 1.918 . S
Fe375 O383 1.997 . S
Fe375 O386 1.996 . S
Fe375 O390 1.976 . S
Fe375 O393 2.002 . S
O376 Fe374 1.918 . S
O376 Fe375 1.918 . S
O376 Fe377 1.918 . S
Fe377 O376 1.918 . S
Fe377 O378 2.002 . S
Fe377 O387 1.976 . S
Fe377 O391 1.996 . S
Fe377 O394 1.997 . S
O378 Fe377 2.002 . S
O378 C395 1.295 . S
O379 Fe374 1.997 . S
O379 C395 1.235 . S
O380 Fe374 2.002 . S
O380 C381 1.295 . S
C381 O380 1.295 . S
C381 O383 1.235 . S
C382 O387 1.287 . S
C382 O388 1.255 . S
O383 Fe375 1.997 . S
O383 C381 1.235 . S
C384 O390 1.287 . S
C384 O391 1.255 . S
O385 Fe374 1.976 . S
O385 C392 1.287 . S
O386 Fe375 1.996 . S
O386 C392 1.255 . S
O387 Fe377 1.976 . S
O387 C382 1.287 . S
O388 Fe374 1.996 . S
O388 C382 1.255 . S
C389 O393 1.295 . S
C389 O394 1.235 . S
O390 Fe375 1.976 . S
O390 C384 1.287 . S
O391 Fe377 1.996 . S
O391 C384 1.255 . S
C392 O385 1.287 . S
C392 O386 1.255 . S
O393 Fe375 2.002 . S
O393 C389 1.295 . S
O394 Fe377 1.997 . S
O394 C389 1.235 . S
C395 O378 1.295 . S
C395 O379 1.235 . S
Fe396 O398 1.918 . S
Fe396 O401 1.997 . S
Fe396 O402 2.002 . S
Fe396 O407 1.976 . S
Fe396 O410 1.996 . S
Fe397 O398 1.918 . S
Fe397 O405 1.997 . S
Fe397 O408 1.996 . S
Fe397 O412 1.976 . S
Fe397 O415 2.002 . S
O398 Fe396 1.918 . S
O398 Fe397 1.918 . S
O398 Fe399 1.918 . S
Fe399 O398 1.918 . S
Fe399 O400 2.002 . S
Fe399 O409 1.976 . S
Fe399 O413 1.996 . S
Fe399 O416 1.997 . S
O400 Fe399 2.002 . S
O400 C417 1.295 . S
O401 Fe396 1.997 . S
O401 C417 1.235 . S
O402 Fe396 2.002 . S
O402 C403 1.295 . S
C403 O402 1.295 . S
C403 O405 1.235 . S
C404 O409 1.287 . S
C404 O410 1.255 . S
O405 Fe397 1.997 . S
O405 C403 1.235 . S
C406 O412 1.287 . S
C406 O413 1.255 . S
O407 Fe396 1.976 . S
O407 C414 1.287 . S
O408 Fe397 1.996 . S
O408 C414 1.255 . S
O409 Fe399 1.976 . S
O409 C404 1.287 . S
O410 Fe396 1.996 . S
O410 C404 1.255 . S
C411 O415 1.295 . S
C411 O416 1.235 . S
O412 Fe397 1.976 . S
O412 C406 1.287 . S
O413 Fe399 1.996 . S
O413 C406 1.255 . S
C414 O407 1.287 . S
C414 O408 1.255 . S
O415 Fe397 2.002 . S
O415 C411 1.295 . S
O416 Fe399 1.997 . S
O416 C411 1.235 . S
C417 O400 1.295 . S
C417 O401 1.235 . S
Fe418 O420 1.918 . S
Fe418 O423 1.997 . S
Fe418 O424 2.002 . S
Fe418 O429 1.976 . S
Fe418 O432 1.996 . S
Fe419 O420 1.918 . S
Fe419 O427 1.997 . S
Fe419 O430 1.996 . S
Fe419 O434 1.976 . S
Fe419 O437 2.002 . S
O420 Fe418 1.918 . S
O420 Fe419 1.918 . S
O420 Fe421 1.918 . S
Fe421 O420 1.918 . S
Fe421 O422 2.002 . S
Fe421 O431 1.976 . S
Fe421 O435 1.996 . S
Fe421 O438 1.997 . S
O422 Fe421 2.002 . S
O422 C439 1.295 . S
O423 Fe418 1.997 . S
O423 C439 1.235 . S
O424 Fe418 2.002 . S
O424 C425 1.295 . S
C425 O424 1.295 . S
C425 O427 1.235 . S
C426 O431 1.287 . S
C426 O432 1.255 . S
O427 Fe419 1.997 . S
O427 C425 1.235 . S
C428 O434 1.287 . S
C428 O435 1.255 . S
O429 Fe418 1.976 . S
O429 C436 1.287 . S
O430 Fe419 1.996 . S
O430 C436 1.255 . S
O431 Fe421 1.976 . S
O431 C426 1.287 . S
O432 Fe418 1.996 . S
O432 C426 1.255 . S
C433 O437 1.295 . S
C433 O438 1.235 . S
O434 Fe419 1.976 . S
O434 C428 1.287 . S
O435 Fe421 1.996 . S
O435 C428 1.255 . S
C436 O429 1.287 . S
C436 O430 1.255 . S
O437 Fe419 2.002 . S
O437 C433 1.295 . S
O438 Fe421 1.997 . S
O438 C433 1.235 . S
C439 O422 1.295 . S
C439 O423 1.235 . S
Fe440 O442 1.918 . S
Fe440 O445 1.997 . S
Fe440 O446 2.002 . S
Fe440 O451 1.976 . S
Fe440 O454 1.996 . S
Fe441 O442 1.918 . S
Fe441 O449 1.997 . S
Fe441 O452 1.996 . S
Fe441 O456 1.976 . S
Fe441 O459 2.002 . S
O442 Fe440 1.918 . S
O442 Fe441 1.918 . S
O442 Fe443 1.918 . S
Fe443 O442 1.918 . S
Fe443 O444 2.002 . S
Fe443 O453 1.976 . S
Fe443 O457 1.996 . S
Fe443 O460 1.997 . S
O444 Fe443 2.002 . S
O444 C461 1.295 . S
O445 Fe440 1.997 . S
O445 C461 1.235 . S
O446 Fe440 2.002 . S
O446 C447 1.295 . S
C447 O446 1.295 . S
C447 O449 1.235 . S
C448 O453 1.287 . S
C448 O454 1.255 . S
O449 Fe441 1.997 . S
O449 C447 1.235 . S
C450 O456 1.287 . S
C450 O457 1.255 . S
O451 Fe440 1.976 . S
O451 C458 1.287 . S
O452 Fe441 1.996 . S
O452 C458 1.255 . S
O453 Fe443 1.976 . S
O453 C448 1.287 . S
O454 Fe440 1.996 . S
O454 C448 1.255 . S
C455 O459 1.295 . S
C455 O460 1.235 . S
O456 Fe441 1.976 . S
O456 C450 1.287 . S
O457 Fe443 1.996 . S
O457 C450 1.255 . S
C458 O451 1.287 . S
C458 O452 1.255 . S
O459 Fe441 2.002 . S
O459 C455 1.295 . S
O460 Fe443 1.997 . S
O460 C455 1.235 . S
C461 O444 1.295 . S
C461 O445 1.235 . S
Fe462 O464 1.918 . S
Fe462 O467 1.997 . S
Fe462 O468 2.002 . S
Fe462 O473 1.976 . S
Fe462 O476 1.996 . S
Fe463 O464 1.918 . S
Fe463 O471 1.997 . S
Fe463 O474 1.996 . S
Fe463 O478 1.976 . S
Fe463 O481 2.002 . S
O464 Fe462 1.918 . S
O464 Fe463 1.918 . S
O464 Fe465 1.918 . S
Fe465 O464 1.918 . S
Fe465 O466 2.002 . S
Fe465 O475 1.976 . S
Fe465 O479 1.996 . S
Fe465 O482 1.997 . S
O466 Fe465 2.002 . S
O466 C483 1.295 . S
O467 Fe462 1.997 . S
O467 C483 1.235 . S
O468 Fe462 2.002 . S
O468 C469 1.295 . S
C469 O468 1.295 . S
C469 O471 1.235 . S
C470 O475 1.287 . S
C470 O476 1.255 . S
O471 Fe463 1.997 . S
O471 C469 1.235 . S
C472 O478 1.287 . S
C472 O479 1.255 . S
O473 Fe462 1.976 . S
O473 C480 1.287 . S
O474 Fe463 1.996 . S
O474 C480 1.255 . S
O475 Fe465 1.976 . S
O475 C470 1.287 . S
O476 Fe462 1.996 . S
O476 C470 1.255 . S
C477 O481 1.295 . S
C477 O482 1.235 . S
O478 Fe463 1.976 . S
O478 C472 1.287 . S
O479 Fe465 1.996 . S
O479 C472 1.255 . S
C480 O473 1.287 . S
C480 O474 1.255 . S
O481 Fe463 2.002 . S
O481 C477 1.295 . S
O482 Fe465 1.997 . S
O482 C477 1.235 . S
C483 O466 1.295 . S
C483 O467 1.235 . S
Fe484 O486 1.918 . S
Fe484 O489 1.997 . S
Fe484 O490 2.002 . S
Fe484 O495 1.976 . S
Fe484 O498 1.996 . S
Fe485 O486 1.918 . S
Fe485 O493 1.997 . S
Fe485 O496 1.996 . S
Fe485 O500 1.976 . S
Fe485 O503 2.002 . S
O486 Fe484 1.918 . S
O486 Fe485 1.918 . S
O486 Fe487 1.918 . S
Fe487 O486 1.918 . S
Fe487 O488 2.002 . S
Fe487 O497 1.976 . S
Fe487 O501 1.996 . S
Fe487 O504 1.997 . S
O488 Fe487 2.002 . S
O488 C505 1.295 . S
O489 Fe484 1.997 . S
O489 C505 1.235 . S
O490 Fe484 2.002 . S
O490 C491 1.295 . S
C491 O490 1.295 . S
C491 O493 1.235 . S
C492 O497 1.287 . S
C492 O498 1.255 . S
O493 Fe485 1.997 . S
O493 C491 1.235 . S
C494 O500 1.287 . S
C494 O501 1.255 . S
O495 Fe484 1.976 . S
O495 C502 1.287 . S
O496 Fe485 1.996 . S
O496 C502 1.255 . S
O497 Fe487 1.976 . S
O497 C492 1.287 . S
O498 Fe484 1.996 . S
O498 C492 1.255 . S
C499 O503 1.295 . S
C499 O504 1.235 . S
O500 Fe485 1.976 . S
O500 C494 1.287 . S
O501 Fe487 1.996 . S
O501 C494 1.255 . S
C502 O495 1.287 . S
C502 O496 1.255 . S
O503 Fe485 2.002 . S
O503 C499 1.295 . S
O504 Fe487 1.997 . S
O504 C499 1.235 . S
C505 O488 1.295 . S
C505 O489 1.235 . S
Fe506 O508 1.918 . S
Fe506 O511 1.997 . S
Fe506 O512 2.002 . S
Fe506 O517 1.976 . S
Fe506 O520 1.996 . S
Fe507 O508 1.918 . S
Fe507 O515 1.997 . S
Fe507 O518 1.996 . S
Fe507 O522 1.976 . S
Fe507 O525 2.002 . S
O508 Fe506 1.918 . S
O508 Fe507 1.918 . S
O508 Fe509 1.918 . S
Fe509 O508 1.918 . S
Fe509 O510 2.002 . S
Fe509 O519 1.976 . S
Fe509 O523 1.996 . S
Fe509 O526 1.997 . S
O510 Fe509 2.002 . S
O510 C527 1.295 . S
O511 Fe506 1.997 . S
O511 C527 1.235 . S
O512 Fe506 2.002 . S
O512 C513 1.295 . S
C513 O512 1.295 . S
C513 O515 1.235 . S
C514 O519 1.287 . S
C514 O520 1.255 . S
O515 Fe507 1.997 . S
O515 C513 1.235 . S
C516 O522 1.287 . S
C516 O523 1.255 . S
O517 Fe506 1.976 . S
O517 C524 1.287 . S
O518 Fe507 1.996 . S
O518 C524 1.255 . S
O519 Fe509 1.976 . S
O519 C514 1.287 . S
O520 Fe506 1.996 . S
O520 C514 1.255 . S
C521 O525 1.295 . S
C521 O526 1.235 . S
O522 Fe507 1.976 . S
O522 C516 1.287 . S
O523 Fe509 1.996 . S
O523 C516 1.255 . S
C524 O517 1.287 . S
C524 O518 1.255 . S
O525 Fe507 2.002 . S
O525 C521 1.295 . S
O526 Fe509 1.997 . S
O526 C521 1.235 . S
C527 O510 1.295 . S
C527 O511 1.235 . S
Fe528 O530 1.918 . S
Fe528 O533 1.997 . S
Fe528 O534 2.002 . S
Fe528 O539 1.976 . S
Fe528 O542 1.996 . S
Fe529 O530 1.918 . S
Fe529 O537 1.997 . S
Fe529 O540 1.996 . S
Fe529 O544 1.976 . S
Fe529 O547 2.002 . S
O530 Fe528 1.918 . S
O530 Fe529 1.918 . S
O530 Fe531 1.918 . S
Fe531 O530 1.918 . S
Fe531 O532 2.002 . S
Fe531 O541 1.976 . S
Fe531 O545 1.996 . S
Fe531 O548 1.997 . S
O532 Fe531 2.002 . S
O532 C549 1.295 . S
O533 Fe528 1.997 . S
O533 C549 1.235 . S
O534 Fe528 2.002 . S
O534 C535 1.295 . S
C535 O534 1.295 . S
C535 O537 1.235 . S
C536 O541 1.287 . S
C536 O542 1.255 . S
O537 Fe529 1.997 . S
O537 C535 1.235 . S
C538 O544 1.287 . S
C538 O545 1.255 . S
O539 Fe528 1.976 . S
O539 C546 1.287 . S
O540 Fe529 1.996 . S
O540 C546 1.255 . S
O541 Fe531 1.976 . S
O541 C536 1.287 . S
O542 Fe528 1.996 . S
O542 C536 1.255 . S
C543 O547 1.295 . S
C543 O548 1.235 . S
O544 Fe529 1.976 . S
O544 C538 1.287 . S
O545 Fe531 1.996 . S
O545 C538 1.255 . S
C546 O539 1.287 . S
C546 O540 1.255 . S
O547 Fe529 2.002 . S
O547 C543 1.295 . S
O548 Fe531 1.997 . S
O548 C543 1.235 . S
C549 O532 1.295 . S
C549 O533 1.235 . S
Fe550 O552 1.918 . S
Fe550 O555 1.997 . S
Fe550 O556 2.002 . S
Fe550 O561 1.976 . S
Fe550 O564 1.996 . S
Fe551 O552 1.918 . S
Fe551 O559 1.997 . S
Fe551 O562 1.996 . S
Fe551 O566 1.976 . S
Fe551 O569 2.002 . S
O552 Fe550 1.918 . S
O552 Fe551 1.918 . S
O552 Fe553 1.918 . S
Fe553 O552 1.918 . S
Fe553 O554 2.002 . S
Fe553 O563 1.976 . S
Fe553 O567 1.996 . S
Fe553 O570 1.997 . S
O554 Fe553 2.002 . S
O554 C571 1.295 . S
O555 Fe550 1.997 . S
O555 C571 1.235 . S
O556 Fe550 2.002 . S
O556 C557 1.295 . S
C557 O556 1.295 . S
C557 O559 1.235 . S
C558 O563 1.287 . S
C558 O564 1.255 . S
O559 Fe551 1.997 . S
O559 C557 1.235 . S
C560 O566 1.287 . S
C560 O567 1.255 . S
O561 Fe550 1.976 . S
O561 C568 1.287 . S
O562 Fe551 1.996 . S
O562 C568 1.255 . S
O563 Fe553 1.976 . S
O563 C558 1.287 . S
O564 Fe550 1.996 . S
O564 C558 1.255 . S
C565 O569 1.295 . S
C565 O570 1.235 . S
O566 Fe551 1.976 . S
O566 C560 1.287 . S
O567 Fe553 1.996 . S
O567 C560 1.255 . S
C568 O561 1.287 . S
C568 O562 1.255 . S
O569 Fe551 2.002 . S
O569 C565 1.295 . S
O570 Fe553 1.997 . S
O570 C565 1.235 . S
C571 O554 1.295 . S
C571 O555 1.235 . S
Fe572 O574 1.918 . S
Fe572 O577 1.997 . S
Fe572 O578 2.002 . S
Fe572 O583 1.976 . S
Fe572 O586 1.996 . S
Fe573 O574 1.918 . S
Fe573 O581 1.997 . S
Fe573 O584 1.996 . S
Fe573 O588 1.976 . S
Fe573 O591 2.002 . S
O574 Fe572 1.918 . S
O574 Fe573 1.918 . S
O574 Fe575 1.918 . S
Fe575 O574 1.918 . S
Fe575 O576 2.002 . S
Fe575 O585 1.976 . S
Fe575 O589 1.996 . S
Fe575 O592 1.997 . S
O576 Fe575 2.002 . S
O576 C593 1.295 . S
O577 Fe572 1.997 . S
O577 C593 1.235 . S
O578 Fe572 2.002 . S
O578 C579 1.295 . S
C579 O578 1.295 . S
C579 O581 1.235 . S
C580 O585 1.287 . S
C580 O586 1.255 . S
O581 Fe573 1.997 . S
O581 C579 1.235 . S
C582 O588 1.287 . S
C582 O589 1.255 . S
O583 Fe572 1.976 . S
O583 C590 1.287 . S
O584 Fe573 1.996 . S
O584 C590 1.255 . S
O585 Fe575 1.976 . S
O585 C580 1.287 . S
O586 Fe572 1.996 . S
O586 C580 1.255 . S
C587 O591 1.295 . S
C587 O592 1.235 . S
O588 Fe573 1.976 . S
O588 C582 1.287 . S
O589 Fe575 1.996 . S
O589 C582 1.255 . S
C590 O583 1.287 . S
C590 O584 1.255 . S
O591 Fe573 2.002 . S
O591 C587 1.295 . S
O592 Fe575 1.997 . S
O592 C587 1.235 . S
C593 O576 1.295 . S
C593 O577 1.235 . S
Fe594 O596 1.918 . S
Fe594 O599 1.997 . S
Fe594 O600 2.002 . S
Fe594 O605 1.976 . S
Fe594 O608 1.996 . S
Fe595 O596 1.918 . S
Fe595 O603 1.997 . S
Fe595 O606 1.996 . S
Fe595 O610 1.976 . S
Fe595 O613 2.002 . S
O596 Fe594 1.918 . S
O596 Fe595 1.918 . S
O596 Fe597 1.918 . S
Fe597 O596 1.918 . S
Fe597 O598 2.002 . S
Fe597 O607 1.976 . S
Fe597 O611 1.996 . S
Fe597 O614 1.997 . S
O598 Fe597 2.002 . S
O598 C615 1.295 . S
O599 Fe594 1.997 . S
O599 C615 1.235 . S
O600 Fe594 2.002 . S
O600 C601 1.295 . S
C601 O600 1.295 . S
C601 O603 1.235 . S
C602 O607 1.287 . S
C602 O608 1.255 . S
O603 Fe595 1.997 . S
O603 C601 1.235 . S
C604 O610 1.287 . S
C604 O611 1.255 . S
O605 Fe594 1.976 . S
O605 C612 1.287 . S
O606 Fe595 1.996 . S
O606 C612 1.255 . S
O607 Fe597 1.976 . S
O607 C602 1.287 . S
O608 Fe594 1.996 . S
O608 C602 1.255 . S
C609 O613 1.295 . S
C609 O614 1.235 . S
O610 Fe595 1.976 . S
O610 C604 1.287 . S
O611 Fe597 1.996 . S
O611 C604 1.255 . S
C612 O605 1.287 . S
C612 O606 1.255 . S
O613 Fe595 2.002 . S
O613 C609 1.295 . S
O614 Fe597 1.997 . S
O614 C609 1.235 . S
C615 O598 1.295 . S
C615 O599 1.235 . S
Fe616 O618 1.918 . S
Fe616 O621 1.997 . S
Fe616 O622 2.002 . S
Fe616 O627 1.976 . S
Fe616 O630 1.996 . S
Fe617 O618 1.918 . S
Fe617 O625 1.997 . S
Fe617 O628 1.996 . S
Fe617 O632 1.976 . S
Fe617 O635 2.002 . S
O618 Fe616 1.918 . S
O618 Fe617 1.918 . S
O618 Fe619 1.918 . S
Fe619 O618 1.918 . S
Fe619 O620 2.002 . S
Fe619 O629 1.976 . S
Fe619 O633 1.996 . S
Fe619 O636 1.997 . S
O620 Fe619 2.002 . S
O620 C637 1.295 . S
O621 Fe616 1.997 . S
O621 C637 1.235 . S
O622 Fe616 2.002 . S
O622 C623 1.295 . S
C623 O622 1.295 . S
C623 O625 1.235 . S
C624 O629 1.287 . S
C624 O630 1.255 . S
O625 Fe617 1.997 . S
O625 C623 1.235 . S
C626 O632 1.287 . S
C626 O633 1.255 . S
O627 Fe616 1.976 . S
O627 C634 1.287 . S
O628 Fe617 1.996 . S
O628 C634 1.255 . S
O629 Fe619 1.976 . S
O629 C624 1.287 . S
O630 Fe616 1.996 . S
O630 C624 1.255 . S
C631 O635 1.295 . S
C631 O636 1.235 . S
O632 Fe617 1.976 . S
O632 C626 1.287 . S
O633 Fe619 1.996 . S
O633 C626 1.255 . S
C634 O627 1.287 . S
C634 O628 1.255 . S
O635 Fe617 2.002 . S
O635 C631 1.295 . S
O636 Fe619 1.997 . S
O636 C631 1.235 . S
C637 O620 1.295 . S
C637 O621 1.235 . S
Fe638 O640 1.918 . S
Fe638 O643 1.997 . S
Fe638 O644 2.002 . S
Fe638 O649 1.976 . S
Fe638 O652 1.996 . S
Fe639 O640 1.918 . S
Fe639 O647 1.997 . S
Fe639 O650 1.996 . S
Fe639 O654 1.976 . S
Fe639 O657 2.002 . S
O640 Fe638 1.918 . S
O640 Fe639 1.918 . S
O640 Fe641 1.918 . S
Fe641 O640 1.918 . S
Fe641 O642 2.002 . S
Fe641 O651 1.976 . S
Fe641 O655 1.996 . S
Fe641 O658 1.997 . S
O642 Fe641 2.002 . S
O642 C659 1.295 . S
O643 Fe638 1.997 . S
O643 C659 1.235 . S
O644 Fe638 2.002 . S
O644 C645 1.295 . S
C645 O644 1.295 . S
C645 O647 1.235 . S
C646 O651 1.287 . S
C646 O652 1.255 . S
O647 Fe639 1.997 . S
O647 C645 1.235 . S
C648 O654 1.287 . S
C648 O655 1.255 . S
O649 Fe638 1.976 . S
O649 C656 1.287 . S
O650 Fe639 1.996 . S
O650 C656 1.255 . S
O651 Fe641 1.976 . S
O651 C646 1.287 . S
O652 Fe638 1.996 . S
O652 C646 1.255 . S
C653 O657 1.295 . S
C653 O658 1.235 . S
O654 Fe639 1.976 . S
O654 C648 1.287 . S
O655 Fe641 1.996 . S
O655 C648 1.255 . S
C656 O649 1.287 . S
C656 O650 1.255 . S
O657 Fe639 2.002 . S
O657 C653 1.295 . S
O658 Fe641 1.997 . S
O658 C653 1.235 . S
C659 O642 1.295 . S
C659 O643 1.235 . S
Fe660 O662 1.918 . S
Fe660 O665 1.997 . S
Fe660 O666 2.002 . S
Fe660 O671 1.976 . S
Fe660 O674 1.996 . S
Fe661 O662 1.918 . S
Fe661 O669 1.997 . S
Fe661 O672 1.996 . S
Fe661 O676 1.976 . S
Fe661 O679 2.002 . S
O662 Fe660 1.918 . S
O662 Fe661 1.918 . S
O662 Fe663 1.918 . S
Fe663 O662 1.918 . S
Fe663 O664 2.002 . S
Fe663 O673 1.976 . S
Fe663 O677 1.996 . S
Fe663 O680 1.997 . S
O664 Fe663 2.002 . S
O664 C681 1.295 . S
O665 Fe660 1.997 . S
O665 C681 1.235 . S
O666 Fe660 2.002 . S
O666 C667 1.295 . S
C667 O666 1.295 . S
C667 O669 1.235 . S
C668 O673 1.287 . S
C668 O674 1.255 . S
O669 Fe661 1.997 . S
O669 C667 1.235 . S
C670 O676 1.287 . S
C670 O677 1.255 . S
O671 Fe660 1.976 . S
O671 C678 1.287 . S
O672 Fe661 1.996 . S
O672 C678 1.255 . S
O673 Fe663 1.976 . S
O673 C668 1.287 . S
O674 Fe660 1.996 . S
O674 C668 1.255 . S
C675 O679 1.295 . S
C675 O680 1.235 . S
O676 Fe661 1.976 . S
O676 C670 1.287 . S
O677 Fe663 1.996 . S
O677 C670 1.255 . S
C678 O671 1.287 . S
C678 O672 1.255 . S
O679 Fe661 2.002 . S
O679 C675 1.295 . S
O680 Fe663 1.997 . S
O680 C675 1.235 . S
C681 O664 1.295 . S
C681 O665 1.235 . S
Fe682 O684 1.918 . S
Fe682 O687 1.997 . S
Fe682 O688 2.002 . S
Fe682 O693 1.976 . S
Fe682 O696 1.996 . S
Fe683 O684 1.918 . S
Fe683 O691 1.997 . S
Fe683 O694 1.996 . S
Fe683 O698 1.976 . S
Fe683 O701 2.002 . S
O684 Fe682 1.918 . S
O684 Fe683 1.918 . S
O684 Fe685 1.918 . S
Fe685 O684 1.918 . S
Fe685 O686 2.002 . S
Fe685 O695 1.976 . S
Fe685 O699 1.996 . S
Fe685 O702 1.997 . S
O686 Fe685 2.002 . S
O686 C703 1.295 . S
O687 Fe682 1.997 . S
O687 C703 1.235 . S
O688 Fe682 2.002 . S
O688 C689 1.295 . S
C689 O688 1.295 . S
C689 O691 1.235 . S
C690 O695 1.287 . S
C690 O696 1.255 . S
O691 Fe683 1.997 . S
O691 C689 1.235 . S
C692 O698 1.287 . S
C692 O699 1.255 . S
O693 Fe682 1.976 . S
O693 C700 1.287 . S
O694 Fe683 1.996 . S
O694 C700 1.255 . S
O695 Fe685 1.976 . S
O695 C690 1.287 . S
O696 Fe682 1.996 . S
O696 C690 1.255 . S
C697 O701 1.295 . S
C697 O702 1.235 . S
O698 Fe683 1.976 . S
O698 C692 1.287 . S
O699 Fe685 1.996 . S
O699 C692 1.255 . S
C700 O693 1.287 . S
C700 O694 1.255 . S
O701 Fe683 2.002 . S
O701 C697 1.295 . S
O702 Fe685 1.997 . S
O702 C697 1.235 . S
C703 O686 1.295 . S
C703 O687 1.235 . S
H704 C712 0.950 . S
H705 C717 0.950 . S
H706 C714 0.950 . S
H707 C716 0.950 . S
H708 C718 0.950 . S
H709 C720 0.950 . S
H710 C722 0.950 . S
H711 C723 0.950 . S
C712 H704 0.950 . S
C712 C713 1.386 . S
C712 C714 1.391 . S
C713 C712 1.386 . S
C713 C717 1.393 . S
C714 H706 0.950 . S
C714 C712 1.391 . S
C714 C715 1.400 . S
C715 C714 1.400 . S
C715 C716 1.398 . S
C715 C721 1.491 . S
C716 H707 0.950 . S
C716 C715 1.398 . S
C716 C717 1.391 . S
C717 H705 0.950 . S
C717 C713 1.393 . S
C717 C716 1.391 . S
C718 H708 0.950 . S
C718 C719 1.386 . S
C718 C720 1.391 . S
C719 C718 1.386 . S
C719 C723 1.393 . S
C720 H709 0.950 . S
C720 C718 1.391 . S
C720 C721 1.400 . S
C721 C715 1.491 . S
C721 C720 1.400 . S
C721 C722 1.398 . S
C722 H710 0.950 . S
C722 C721 1.398 . S
C722 C723 1.391 . S
C723 H711 0.950 . S
C723 C719 1.393 . S
C723 C722 1.391 . S
H724 C732 0.950 . S
H725 C737 0.950 . S
H726 C734 0.950 . S
H727 C736 0.950 . S
H728 C738 0.950 . S
H729 C740 0.950 . S
H730 C742 0.950 . S
H731 C743 0.950 . S
C732 H724 0.950 . S
C732 C733 1.386 . S
C732 C734 1.391 . S
C733 C732 1.386 . S
C733 C737 1.393 . S
C734 H726 0.950 . S
C734 C732 1.391 . S
C734 C735 1.400 . S
C735 C734 1.400 . S
C735 C736 1.398 . S
C735 C741 1.491 . S
C736 H727 0.950 . S
C736 C735 1.398 . S
C736 C737 1.391 . S
C737 H725 0.950 . S
C737 C733 1.393 . S
C737 C736 1.391 . S
C738 H728 0.950 . S
C738 C739 1.386 . S
C738 C740 1.391 . S
C739 C738 1.386 . S
C739 C743 1.393 . S
C740 H729 0.950 . S
C740 C738 1.391 . S
C740 C741 1.400 . S
C741 C735 1.491 . S
C741 C740 1.400 . S
C741 C742 1.398 . S
C742 H730 0.950 . S
C742 C741 1.398 . S
C742 C743 1.391 . S
C743 H731 0.950 . S
C743 C739 1.393 . S
C743 C742 1.391 . S
H744 C752 0.950 . S
H745 C757 0.950 . S
H746 C754 0.950 . S
H747 C756 0.950 . S
H748 C758 0.950 . S
H749 C760 0.950 . S
H750 C762 0.950 . S
H751 C763 0.950 . S
C752 H744 0.950 . S
C752 C753 1.386 . S
C752 C754 1.391 . S
C753 C752 1.386 . S
C753 C757 1.393 . S
C754 H746 0.950 . S
C754 C752 1.391 . S
C754 C755 1.400 . S
C755 C754 1.400 . S
C755 C756 1.398 . S
C755 C761 1.491 . S
C756 H747 0.950 . S
C756 C755 1.398 . S
C756 C757 1.391 . S
C757 H745 0.950 . S
C757 C753 1.393 . S
C757 C756 1.391 . S
C758 H748 0.950 . S
C758 C759 1.386 . S
C758 C760 1.391 . S
C759 C758 1.386 . S
C759 C763 1.393 . S
C760 H749 0.950 . S
C760 C758 1.391 . S
C760 C761 1.400 . S
C761 C755 1.491 . S
C761 C760 1.400 . S
C761 C762 1.398 . S
C762 H750 0.950 . S
C762 C761 1.398 . S
C762 C763 1.391 . S
C763 H751 0.950 . S
C763 C759 1.393 . S
C763 C762 1.391 . S
H764 C772 0.950 . S
H765 C777 0.950 . S
H766 C774 0.950 . S
H767 C776 0.950 . S
H768 C778 0.950 . S
H769 C780 0.950 . S
H770 C782 0.950 . S
H771 C783 0.950 . S
C772 H764 0.950 . S
C772 C773 1.386 . S
C772 C774 1.391 . S
C773 C772 1.386 . S
C773 C777 1.393 . S
C774 H766 0.950 . S
C774 C772 1.391 . S
C774 C775 1.400 . S
C775 C774 1.400 . S
C775 C776 1.398 . S
C775 C781 1.491 . S
C776 H767 0.950 . S
C776 C775 1.398 . S
C776 C777 1.391 . S
C777 H765 0.950 . S
C777 C773 1.393 . S
C777 C776 1.391 . S
C778 H768 0.950 . S
C778 C779 1.386 . S
C778 C780 1.391 . S
C779 C778 1.386 . S
C779 C783 1.393 . S
C780 H769 0.950 . S
C780 C778 1.391 . S
C780 C781 1.400 . S
C781 C775 1.491 . S
C781 C780 1.400 . S
C781 C782 1.398 . S
C782 H770 0.950 . S
C782 C781 1.398 . S
C782 C783 1.391 . S
C783 H771 0.950 . S
C783 C779 1.393 . S
C783 C782 1.391 . S
H784 C792 0.950 . S
H785 C797 0.950 . S
H786 C794 0.950 . S
H787 C796 0.950 . S
H788 C798 0.950 . S
H789 C800 0.950 . S
H790 C802 0.950 . S
H791 C803 0.950 . S
C792 H784 0.950 . S
C792 C793 1.386 . S
C792 C794 1.391 . S
C793 C792 1.386 . S
C793 C797 1.393 . S
C794 H786 0.950 . S
C794 C792 1.391 . S
C794 C795 1.400 . S
C795 C794 1.400 . S
C795 C796 1.398 . S
C795 C801 1.491 . S
C796 H787 0.950 . S
C796 C795 1.398 . S
C796 C797 1.391 . S
C797 H785 0.950 . S
C797 C793 1.393 . S
C797 C796 1.391 . S
C798 H788 0.950 . S
C798 C799 1.386 . S
C798 C800 1.391 . S
C799 C798 1.386 . S
C799 C803 1.393 . S
C800 H789 0.950 . S
C800 C798 1.391 . S
C800 C801 1.400 . S
C801 C795 1.491 . S
C801 C800 1.400 . S
C801 C802 1.398 . S
C802 H790 0.950 . S
C802 C801 1.398 . S
C802 C803 1.391 . S
C803 H791 0.950 . S
C803 C799 1.393 . S
C803 C802 1.391 . S
H804 C812 0.950 . S
H805 C817 0.950 . S
H806 C814 0.950 . S
H807 C816 0.950 . S
H808 C818 0.950 . S
H809 C820 0.950 . S
H810 C822 0.950 . S
H811 C823 0.950 . S
C812 H804 0.950 . S
C812 C813 1.386 . S
C812 C814 1.391 . S
C813 C812 1.386 . S
C813 C817 1.393 . S
C814 H806 0.950 . S
C814 C812 1.391 . S
C814 C815 1.400 . S
C815 C814 1.400 . S
C815 C816 1.398 . S
C815 C821 1.491 . S
C816 H807 0.950 . S
C816 C815 1.398 . S
C816 C817 1.391 . S
C817 H805 0.950 . S
C817 C813 1.393 . S
C817 C816 1.391 . S
C818 H808 0.950 . S
C818 C819 1.386 . S
C818 C820 1.391 . S
C819 C818 1.386 . S
C819 C823 1.393 . S
C820 H809 0.950 . S
C820 C818 1.391 . S
C820 C821 1.400 . S
C821 C815 1.491 . S
C821 C820 1.400 . S
C821 C822 1.398 . S
C822 H810 0.950 . S
C822 C821 1.398 . S
C822 C823 1.391 . S
C823 H811 0.950 . S
C823 C819 1.393 . S
C823 C822 1.391 . S
H824 C832 0.950 . S
H825 C837 0.950 . S
H826 C834 0.950 . S
H827 C836 0.950 . S
H828 C838 0.950 . S
H829 C840 0.950 . S
H830 C842 0.950 . S
H831 C843 0.950 . S
C832 H824 0.950 . S
C832 C833 1.386 . S
C832 C834 1.391 . S
C833 C832 1.386 . S
C833 C837 1.393 . S
C834 H826 0.950 . S
C834 C832 1.391 . S
C834 C835 1.400 . S
C835 C834 1.400 . S
C835 C836 1.398 . S
C835 C841 1.491 . S
C836 H827 0.950 . S
C836 C835 1.398 . S
C836 C837 1.391 . S
C837 H825 0.950 . S
C837 C833 1.393 . S
C837 C836 1.391 . S
C838 H828 0.950 . S
C838 C839 1.386 . S
C838 C840 1.391 . S
C839 C838 1.386 . S
C839 C843 1.393 . S
C840 H829 0.950 . S
C840 C838 1.391 . S
C840 C841 1.400 . S
C841 C835 1.491 . S
C841 C840 1.400 . S
C841 C842 1.398 . S
C842 H830 0.950 . S
C842 C841 1.398 . S
C842 C843 1.391 . S
C843 H831 0.950 . S
C843 C839 1.393 . S
C843 C842 1.391 . S
H844 C852 0.950 . S
H845 C857 0.950 . S
H846 C854 0.950 . S
H847 C856 0.950 . S
H848 C858 0.950 . S
H849 C860 0.950 . S
H850 C862 0.950 . S
H851 C863 0.950 . S
C852 H844 0.950 . S
C852 C853 1.386 . S
C852 C854 1.391 . S
C853 C852 1.386 . S
C853 C857 1.393 . S
C854 H846 0.950 . S
C854 C852 1.391 . S
C854 C855 1.400 . S
C855 C854 1.400 . S
C855 C856 1.398 . S
C855 C861 1.491 . S
C856 H847 0.950 . S
C856 C855 1.398 . S
C856 C857 1.391 . S
C857 H845 0.950 . S
C857 C853 1.393 . S
C857 C856 1.391 . S
C858 H848 0.950 . S
C858 C859 1.386 . S
C858 C860 1.391 . S
C859 C858 1.386 . S
C859 C863 1.393 . S
C860 H849 0.950 . S
C860 C858 1.391 . S
C860 C861 1.400 . S
C861 C855 1.491 . S
C861 C860 1.400 . S
C861 C862 1.398 . S
C862 H850 0.950 . S
C862 C861 1.398 . S
C862 C863 1.391 . S
C863 H851 0.950 . S
C863 C859 1.393 . S
C863 C862 1.391 . S
H864 C872 0.950 . S
H865 C877 0.950 . S
H866 C874 0.950 . S
H867 C876 0.950 . S
H868 C878 0.950 . S
H869 C880 0.950 . S
H870 C882 0.950 . S
H871 C883 0.950 . S
C872 H864 0.950 . S
C872 C873 1.386 . S
C872 C874 1.391 . S
C873 C872 1.386 . S
C873 C877 1.393 . S
C874 H866 0.950 . S
C874 C872 1.391 . S
C874 C875 1.400 . S
C875 C874 1.400 . S
C875 C876 1.398 . S
C875 C881 1.491 . S
C876 H867 0.950 . S
C876 C875 1.398 . S
C876 C877 1.391 . S
C877 H865 0.950 . S
C877 C873 1.393 . S
C877 C876 1.391 . S
C878 H868 0.950 . S
C878 C879 1.386 . S
C878 C880 1.391 . S
C879 C878 1.386 . S
C879 C883 1.393 . S
C880 H869 0.950 . S
C880 C878 1.391 . S
C880 C881 1.400 . S
C881 C875 1.491 . S
C881 C880 1.400 . S
C881 C882 1.398 . S
C882 H870 0.950 . S
C882 C881 1.398 . S
C882 C883 1.391 . S
C883 H871 0.950 . S
C883 C879 1.393 . S
C883 C882 1.391 . S
H884 C892 0.950 . S
H885 C897 0.950 . S
H886 C894 0.950 . S
H887 C896 0.950 . S
H888 C898 0.950 . S
H889 C900 0.950 . S
H890 C902 0.950 . S
H891 C903 0.950 . S
C892 H884 0.950 . S
C892 C893 1.386 . S
C892 C894 1.391 . S
C893 C892 1.386 . S
C893 C897 1.393 . S
C894 H886 0.950 . S
C894 C892 1.391 . S
C894 C895 1.400 . S
C895 C894 1.400 . S
C895 C896 1.398 . S
C895 C901 1.491 . S
C896 H887 0.950 . S
C896 C895 1.398 . S
C896 C897 1.391 . S
C897 H885 0.950 . S
C897 C893 1.393 . S
C897 C896 1.391 . S
C898 H888 0.950 . S
C898 C899 1.386 . S
C898 C900 1.391 . S
C899 C898 1.386 . S
C899 C903 1.393 . S
C900 H889 0.950 . S
C900 C898 1.391 . S
C900 C901 1.400 . S
C901 C895 1.491 . S
C901 C900 1.400 . S
C901 C902 1.398 . S
C902 H890 0.950 . S
C902 C901 1.398 . S
C902 C903 1.391 . S
C903 H891 0.950 . S
C903 C899 1.393 . S
C903 C902 1.391 . S
H904 C912 0.950 . S
H905 C917 0.950 . S
H906 C914 0.950 . S
H907 C916 0.950 . S
H908 C918 0.950 . S
H909 C920 0.950 . S
H910 C922 0.950 . S
H911 C923 0.950 . S
C912 H904 0.950 . S
C912 C913 1.386 . S
C912 C914 1.391 . S
C913 C912 1.386 . S
C913 C917 1.393 . S
C914 H906 0.950 . S
C914 C912 1.391 . S
C914 C915 1.400 . S
C915 C914 1.400 . S
C915 C916 1.398 . S
C915 C921 1.491 . S
C916 H907 0.950 . S
C916 C915 1.398 . S
C916 C917 1.391 . S
C917 H905 0.950 . S
C917 C913 1.393 . S
C917 C916 1.391 . S
C918 H908 0.950 . S
C918 C919 1.386 . S
C918 C920 1.391 . S
C919 C918 1.386 . S
C919 C923 1.393 . S
C920 H909 0.950 . S
C920 C918 1.391 . S
C920 C921 1.400 . S
C921 C915 1.491 . S
C921 C920 1.400 . S
C921 C922 1.398 . S
C922 H910 0.950 . S
C922 C921 1.398 . S
C922 C923 1.391 . S
C923 H911 0.950 . S
C923 C919 1.393 . S
C923 C922 1.391 . S
H924 C932 0.950 . S
H925 C937 0.950 . S
H926 C934 0.950 . S
H927 C936 0.950 . S
H928 C938 0.950 . S
H929 C940 0.950 . S
H930 C942 0.950 . S
H931 C943 0.950 . S
C932 H924 0.950 . S
C932 C933 1.386 . S
C932 C934 1.391 . S
C933 C932 1.386 . S
C933 C937 1.393 . S
C934 H926 0.950 . S
C934 C932 1.391 . S
C934 C935 1.400 . S
C935 C934 1.400 . S
C935 C936 1.398 . S
C935 C941 1.491 . S
C936 H927 0.950 . S
C936 C935 1.398 . S
C936 C937 1.391 . S
C937 H925 0.950 . S
C937 C933 1.393 . S
C937 C936 1.391 . S
C938 H928 0.950 . S
C938 C939 1.386 . S
C938 C940 1.391 . S
C939 C938 1.386 . S
C939 C943 1.393 . S
C940 H929 0.950 . S
C940 C938 1.391 . S
C940 C941 1.400 . S
C941 C935 1.491 . S
C941 C940 1.400 . S
C941 C942 1.398 . S
C942 H930 0.950 . S
C942 C941 1.398 . S
C942 C943 1.391 . S
C943 H931 0.950 . S
C943 C939 1.393 . S
C943 C942 1.391 . S
H944 C952 0.950 . S
H945 C957 0.950 . S
H946 C954 0.950 . S
H947 C956 0.950 . S
H948 C958 0.950 . S
H949 C960 0.950 . S
H950 C962 0.950 . S
H951 C963 0.950 . S
C952 H944 0.950 . S
C952 C953 1.386 . S
C952 C954 1.391 . S
C953 C952 1.386 . S
C953 C957 1.393 . S
C954 H946 0.950 . S
C954 C952 1.391 . S
C954 C955 1.400 . S
C955 C954 1.400 . S
C955 C956 1.398 . S
C955 C961 1.491 . S
C956 H947 0.950 . S
C956 C955 1.398 . S
C956 C957 1.391 . S
C957 H945 0.950 . S
C957 C953 1.393 . S
C957 C956 1.391 . S
C958 H948 0.950 . S
C958 C959 1.386 . S
C958 C960 1.391 . S
C959 C958 1.386 . S
C959 C963 1.393 . S
C960 H949 0.950 . S
C960 C958 1.391 . S
C960 C961 1.400 . S
C961 C955 1.491 . S
C961 C960 1.400 . S
C961 C962 1.398 . S
C962 H950 0.950 . S
C962 C961 1.398 . S
C962 C963 1.391 . S
C963 H951 0.950 . S
C963 C959 1.393 . S
C963 C962 1.391 . S
H964 C972 0.950 . S
H965 C977 0.950 . S
H966 C974 0.950 . S
H967 C976 0.950 . S
H968 C978 0.950 . S
H969 C980 0.950 . S
H970 C982 0.950 . S
H971 C983 0.950 . S
C972 H964 0.950 . S
C972 C973 1.386 . S
C972 C974 1.391 . S
C973 C972 1.386 . S
C973 C977 1.393 . S
C974 H966 0.950 . S
C974 C972 1.391 . S
C974 C975 1.400 . S
C975 C974 1.400 . S
C975 C976 1.398 . S
C975 C981 1.491 . S
C976 H967 0.950 . S
C976 C975 1.398 . S
C976 C977 1.391 . S
C977 H965 0.950 . S
C977 C973 1.393 . S
C977 C976 1.391 . S
C978 H968 0.950 . S
C978 C979 1.386 . S
C978 C980 1.391 . S
C979 C978 1.386 . S
C979 C983 1.393 . S
C980 H969 0.950 . S
C980 C978 1.391 . S
C980 C981 1.400 . S
C981 C975 1.491 . S
C981 C980 1.400 . S
C981 C982 1.398 . S
C982 H970 0.950 . S
C982 C981 1.398 . S
C982 C983 1.391 . S
C983 H971 0.950 . S
C983 C979 1.393 . S
C983 C982 1.391 . S
H984 C992 0.950 . S
H985 C997 0.950 . S
H986 C994 0.950 . S
H987 C996 0.950 . S
H988 C998 0.950 . S
H989 C1000 0.950 . S
H990 C1002 0.950 . S
H991 C1003 0.950 . S
C992 H984 0.950 . S
C992 C993 1.386 . S
C992 C994 1.391 . S
C993 C992 1.386 . S
C993 C997 1.393 . S
C994 H986 0.950 . S
C994 C992 1.391 . S
C994 C995 1.400 . S
C995 C994 1.400 . S
C995 C996 1.398 . S
C995 C1001 1.491 . S
C996 H987 0.950 . S
C996 C995 1.398 . S
C996 C997 1.391 . S
C997 H985 0.950 . S
C997 C993 1.393 . S
C997 C996 1.391 . S
C998 H988 0.950 . S
C998 C999 1.386 . S
C998 C1000 1.391 . S
C999 C998 1.386 . S
C999 C1003 1.393 . S
C1000 H989 0.950 . S
C1000 C998 1.391 . S
C1000 C1001 1.400 . S
C1001 C995 1.491 . S
C1001 C1000 1.400 . S
C1001 C1002 1.398 . S
C1002 H990 0.950 . S
C1002 C1001 1.398 . S
C1002 C1003 1.391 . S
C1003 H991 0.950 . S
C1003 C999 1.393 . S
C1003 C1002 1.391 . S
H1004 C1012 0.950 . S
H1005 C1017 0.950 . S
H1006 C1014 0.950 . S
H1007 C1016 0.950 . S
H1008 C1018 0.950 . S
H1009 C1020 0.950 . S
H1010 C1022 0.950 . S
H1011 C1023 0.950 . S
C1012 H1004 0.950 . S
C1012 C1013 1.386 . S
C1012 C1014 1.391 . S
C1013 C1012 1.386 . S
C1013 C1017 1.393 . S
C1014 H1006 0.950 . S
C1014 C1012 1.391 . S
C1014 C1015 1.400 . S
C1015 C1014 1.400 . S
C1015 C1016 1.398 . S
C1015 C1021 1.491 . S
C1016 H1007 0.950 . S
C1016 C1015 1.398 . S
C1016 C1017 1.391 . S
C1017 H1005 0.950 . S
C1017 C1013 1.393 . S
C1017 C1016 1.391 . S
C1018 H1008 0.950 . S
C1018 C1019 1.386 . S
C1018 C1020 1.391 . S
C1019 C1018 1.386 . S
C1019 C1023 1.393 . S
C1020 H1009 0.950 . S
C1020 C1018 1.391 . S
C1020 C1021 1.400 . S
C1021 C1015 1.491 . S
C1021 C1020 1.400 . S
C1021 C1022 1.398 . S
C1022 H1010 0.950 . S
C1022 C1021 1.398 . S
C1022 C1023 1.391 . S
C1023 H1011 0.950 . S
C1023 C1019 1.393 . S
C1023 C1022 1.391 . S
H1024 C1032 0.950 . S
H1025 C1037 0.950 . S
H1026 C1034 0.950 . S
H1027 C1036 0.950 . S
H1028 C1038 0.950 . S
H1029 C1040 0.950 . S
H1030 C1042 0.950 . S
H1031 C1043 0.950 . S
C1032 H1024 0.950 . S
C1032 C1033 1.386 . S
C1032 C1034 1.391 . S
C1033 C1032 1.386 . S
C1033 C1037 1.393 . S
C1034 H1026 0.950 . S
C1034 C1032 1.391 . S
C1034 C1035 1.400 . S
C1035 C1034 1.400 . S
C1035 C1036 1.398 . S
C1035 C1041 1.491 . S
C1036 H1027 0.950 . S
C1036 C1035 1.398 . S
C1036 C1037 1.391 . S
C1037 H1025 0.950 . S
C1037 C1033 1.393 . S
C1037 C1036 1.391 . S
C1038 H1028 0.950 . S
C1038 C1039 1.386 . S
C1038 C1040 1.391 . S
C1039 C1038 1.386 . S
C1039 C1043 1.393 . S
C1040 H1029 0.950 . S
C1040 C1038 1.391 . S
C1040 C1041 1.400 . S
C1041 C1035 1.491 . S
C1041 C1040 1.400 . S
C1041 C1042 1.398 . S
C1042 H1030 0.950 . S
C1042 C1041 1.398 . S
C1042 C1043 1.391 . S
C1043 H1031 0.950 . S
C1043 C1039 1.393 . S
C1043 C1042 1.391 . S
H1044 C1052 0.950 . S
H1045 C1057 0.950 . S
H1046 C1054 0.950 . S
H1047 C1056 0.950 . S
H1048 C1058 0.950 . S
H1049 C1060 0.950 . S
H1050 C1062 0.950 . S
H1051 C1063 0.950 . S
C1052 H1044 0.950 . S
C1052 C1053 1.386 . S
C1052 C1054 1.391 . S
C1053 C1052 1.386 . S
C1053 C1057 1.393 . S
C1054 H1046 0.950 . S
C1054 C1052 1.391 . S
C1054 C1055 1.400 . S
C1055 C1054 1.400 . S
C1055 C1056 1.398 . S
C1055 C1061 1.491 . S
C1056 H1047 0.950 . S
C1056 C1055 1.398 . S
C1056 C1057 1.391 . S
C1057 H1045 0.950 . S
C1057 C1053 1.393 . S
C1057 C1056 1.391 . S
C1058 H1048 0.950 . S
C1058 C1059 1.386 . S
C1058 C1060 1.391 . S
C1059 C1058 1.386 . S
C1059 C1063 1.393 . S
C1060 H1049 0.950 . S
C1060 C1058 1.391 . S
C1060 C1061 1.400 . S
C1061 C1055 1.491 . S
C1061 C1060 1.400 . S
C1061 C1062 1.398 . S
C1062 H1050 0.950 . S
C1062 C1061 1.398 . S
C1062 C1063 1.391 . S
C1063 H1051 0.950 . S
C1063 C1059 1.393 . S
C1063 C1062 1.391 . S
H1064 C1072 0.950 . S
H1065 C1077 0.950 . S
H1066 C1074 0.950 . S
H1067 C1076 0.950 . S
H1068 C1078 0.950 . S
H1069 C1080 0.950 . S
H1070 C1082 0.950 . S
H1071 C1083 0.950 . S
C1072 H1064 0.950 . S
C1072 C1073 1.386 . S
C1072 C1074 1.391 . S
C1073 C1072 1.386 . S
C1073 C1077 1.393 . S
C1074 H1066 0.950 . S
C1074 C1072 1.391 . S
C1074 C1075 1.400 . S
C1075 C1074 1.400 . S
C1075 C1076 1.398 . S
C1075 C1081 1.491 . S
C1076 H1067 0.950 . S
C1076 C1075 1.398 . S
C1076 C1077 1.391 . S
C1077 H1065 0.950 . S
C1077 C1073 1.393 . S
C1077 C1076 1.391 . S
C1078 H1068 0.950 . S
C1078 C1079 1.386 . S
C1078 C1080 1.391 . S
C1079 C1078 1.386 . S
C1079 C1083 1.393 . S
C1080 H1069 0.950 . S
C1080 C1078 1.391 . S
C1080 C1081 1.400 . S
C1081 C1075 1.491 . S
C1081 C1080 1.400 . S
C1081 C1082 1.398 . S
C1082 H1070 0.950 . S
C1082 C1081 1.398 . S
C1082 C1083 1.391 . S
C1083 H1071 0.950 . S
C1083 C1079 1.393 . S
C1083 C1082 1.391 . S
H1084 C1092 0.950 . S
H1085 C1097 0.950 . S
H1086 C1094 0.950 . S
H1087 C1096 0.950 . S
H1088 C1098 0.950 . S
H1089 C1100 0.950 . S
H1090 C1102 0.950 . S
H1091 C1103 0.950 . S
C1092 H1084 0.950 . S
C1092 C1093 1.386 . S
C1092 C1094 1.391 . S
C1093 C1092 1.386 . S
C1093 C1097 1.393 . S
C1094 H1086 0.950 . S
C1094 C1092 1.391 . S
C1094 C1095 1.400 . S
C1095 C1094 1.400 . S
C1095 C1096 1.398 . S
C1095 C1101 1.491 . S
C1096 H1087 0.950 . S
C1096 C1095 1.398 . S
C1096 C1097 1.391 . S
C1097 H1085 0.950 . S
C1097 C1093 1.393 . S
C1097 C1096 1.391 . S
C1098 H1088 0.950 . S
C1098 C1099 1.386 . S
C1098 C1100 1.391 . S
C1099 C1098 1.386 . S
C1099 C1103 1.393 . S
C1100 H1089 0.950 . S
C1100 C1098 1.391 . S
C1100 C1101 1.400 . S
C1101 C1095 1.491 . S
C1101 C1100 1.400 . S
C1101 C1102 1.398 . S
C1102 H1090 0.950 . S
C1102 C1101 1.398 . S
C1102 C1103 1.391 . S
C1103 H1091 0.950 . S
C1103 C1099 1.393 . S
C1103 C1102 1.391 . S
H1104 C1112 0.950 . S
H1105 C1117 0.950 . S
H1106 C1114 0.950 . S
H1107 C1116 0.950 . S
H1108 C1118 0.950 . S
H1109 C1120 0.950 . S
H1110 C1122 0.950 . S
H1111 C1123 0.950 . S
C1112 H1104 0.950 . S
C1112 C1113 1.386 . S
C1112 C1114 1.391 . S
C1113 C1112 1.386 . S
C1113 C1117 1.393 . S
C1114 H1106 0.950 . S
C1114 C1112 1.391 . S
C1114 C1115 1.400 . S
C1115 C1114 1.400 . S
C1115 C1116 1.398 . S
C1115 C1121 1.491 . S
C1116 H1107 0.950 . S
C1116 C1115 1.398 . S
C1116 C1117 1.391 . S
C1117 H1105 0.950 . S
C1117 C1113 1.393 . S
C1117 C1116 1.391 . S
C1118 H1108 0.950 . S
C1118 C1119 1.386 . S
C1118 C1120 1.391 . S
C1119 C1118 1.386 . S
C1119 C1123 1.393 . S
C1120 H1109 0.950 . S
C1120 C1118 1.391 . S
C1120 C1121 1.400 . S
C1121 C1115 1.491 . S
C1121 C1120 1.400 . S
C1121 C1122 1.398 . S
C1122 H1110 0.950 . S
C1122 C1121 1.398 . S
C1122 C1123 1.391 . S
C1123 H1111 0.950 . S
C1123 C1119 1.393 . S
C1123 C1122 1.391 . S
H1124 C1132 0.950 . S
H1125 C1137 0.950 . S
H1126 C1134 0.950 . S
H1127 C1136 0.950 . S
H1128 C1138 0.950 . S
H1129 C1140 0.950 . S
H1130 C1142 0.950 . S
H1131 C1143 0.950 . S
C1132 H1124 0.950 . S
C1132 C1133 1.386 . S
C1132 C1134 1.391 . S
C1133 C1132 1.386 . S
C1133 C1137 1.393 . S
C1134 H1126 0.950 . S
C1134 C1132 1.391 . S
C1134 C1135 1.400 . S
C1135 C1134 1.400 . S
C1135 C1136 1.398 . S
C1135 C1141 1.491 . S
C1136 H1127 0.950 . S
C1136 C1135 1.398 . S
C1136 C1137 1.391 . S
C1137 H1125 0.950 . S
C1137 C1133 1.393 . S
C1137 C1136 1.391 . S
C1138 H1128 0.950 . S
C1138 C1139 1.386 . S
C1138 C1140 1.391 . S
C1139 C1138 1.386 . S
C1139 C1143 1.393 . S
C1140 H1129 0.950 . S
C1140 C1138 1.391 . S
C1140 C1141 1.400 . S
C1141 C1135 1.491 . S
C1141 C1140 1.400 . S
C1141 C1142 1.398 . S
C1142 H1130 0.950 . S
C1142 C1141 1.398 . S
C1142 C1143 1.391 . S
C1143 H1131 0.950 . S
C1143 C1139 1.393 . S
C1143 C1142 1.391 . S
H1144 C1152 0.950 . S
H1145 C1157 0.950 . S
H1146 C1154 0.950 . S
H1147 C1156 0.950 . S
H1148 C1158 0.950 . S
H1149 C1160 0.950 . S
H1150 C1162 0.950 . S
H1151 C1163 0.950 . S
C1152 H1144 0.950 . S
C1152 C1153 1.386 . S
C1152 C1154 1.391 . S
C1153 C1152 1.386 . S
C1153 C1157 1.393 . S
C1154 H1146 0.950 . S
C1154 C1152 1.391 . S
C1154 C1155 1.400 . S
C1155 C1154 1.400 . S
C1155 C1156 1.398 . S
C1155 C1161 1.491 . S
C1156 H1147 0.950 . S
C1156 C1155 1.398 . S
C1156 C1157 1.391 . S
C1157 H1145 0.950 . S
C1157 C1153 1.393 . S
C1157 C1156 1.391 . S
C1158 H1148 0.950 . S
C1158 C1159 1.386 . S
C1158 C1160 1.391 . S
C1159 C1158 1.386 . S
C1159 C1163 1.393 . S
C1160 H1149 0.950 . S
C1160 C1158 1.391 . S
C1160 C1161 1.400 . S
C1161 C1155 1.491 . S
C1161 C1160 1.400 . S
C1161 C1162 1.398 . S
C1162 H1150 0.950 . S
C1162 C1161 1.398 . S
C1162 C1163 1.391 . S
C1163 H1151 0.950 . S
C1163 C1159 1.393 . S
C1163 C1162 1.391 . S
H1164 C1172 0.950 . S
H1165 C1177 0.950 . S
H1166 C1174 0.950 . S
H1167 C1176 0.950 . S
H1168 C1178 0.950 . S
H1169 C1180 0.950 . S
H1170 C1182 0.950 . S
H1171 C1183 0.950 . S
C1172 H1164 0.950 . S
C1172 C1173 1.386 . S
C1172 C1174 1.391 . S
C1173 C1172 1.386 . S
C1173 C1177 1.393 . S
C1174 H1166 0.950 . S
C1174 C1172 1.391 . S
C1174 C1175 1.400 . S
C1175 C1174 1.400 . S
C1175 C1176 1.398 . S
C1175 C1181 1.491 . S
C1176 H1167 0.950 . S
C1176 C1175 1.398 . S
C1176 C1177 1.391 . S
C1177 H1165 0.950 . S
C1177 C1173 1.393 . S
C1177 C1176 1.391 . S
C1178 H1168 0.950 . S
C1178 C1179 1.386 . S
C1178 C1180 1.391 . S
C1179 C1178 1.386 . S
C1179 C1183 1.393 . S
C1180 H1169 0.950 . S
C1180 C1178 1.391 . S
C1180 C1181 1.400 . S
C1181 C1175 1.491 . S
C1181 C1180 1.400 . S
C1181 C1182 1.398 . S
C1182 H1170 0.950 . S
C1182 C1181 1.398 . S
C1182 C1183 1.391 . S
C1183 H1171 0.950 . S
C1183 C1179 1.393 . S
C1183 C1182 1.391 . S
H1184 C1192 0.950 . S
H1185 C1197 0.950 . S
H1186 C1194 0.950 . S
H1187 C1196 0.950 . S
H1188 C1198 0.950 . S
H1189 C1200 0.950 . S
H1190 C1202 0.950 . S
H1191 C1203 0.950 . S
C1192 H1184 0.950 . S
C1192 C1193 1.386 . S
C1192 C1194 1.391 . S
C1193 C1192 1.386 . S
C1193 C1197 1.393 . S
C1194 H1186 0.950 . S
C1194 C1192 1.391 . S
C1194 C1195 1.400 . S
C1195 C1194 1.400 . S
C1195 C1196 1.398 . S
C1195 C1201 1.491 . S
C1196 H1187 0.950 . S
C1196 C1195 1.398 . S
C1196 C1197 1.391 . S
C1197 H1185 0.950 . S
C1197 C1193 1.393 . S
C1197 C1196 1.391 . S
C1198 H1188 0.950 . S
C1198 C1199 1.386 . S
C1198 C1200 1.391 . S
C1199 C1198 1.386 . S
C1199 C1203 1.393 . S
C1200 H1189 0.950 . S
C1200 C1198 1.391 . S
C1200 C1201 1.400 . S
C1201 C1195 1.491 . S
C1201 C1200 1.400 . S
C1201 C1202 1.398 . S
C1202 H1190 0.950 . S
C1202 C1201 1.398 . S
C1202 C1203 1.391 . S
C1203 H1191 0.950 . S
C1203 C1199 1.393 . S
C1203 C1202 1.391 . S
H1204 C1212 0.950 . S
H1205 C1217 0.950 . S
H1206 C1214 0.950 . S
H1207 C1216 0.950 . S
H1208 C1218 0.950 . S
H1209 C1220 0.950 . S
H1210 C1222 0.950 . S
H1211 C1223 0.950 . S
C1212 H1204 0.950 . S
C1212 C1213 1.386 . S
C1212 C1214 1.391 . S
C1213 C1212 1.386 . S
C1213 C1217 1.393 . S
C1214 H1206 0.950 . S
C1214 C1212 1.391 . S
C1214 C1215 1.400 . S
C1215 C1214 1.400 . S
C1215 C1216 1.398 . S
C1215 C1221 1.491 . S
C1216 H1207 0.950 . S
C1216 C1215 1.398 . S
C1216 C1217 1.391 . S
C1217 H1205 0.950 . S
C1217 C1213 1.393 . S
C1217 C1216 1.391 . S
C1218 H1208 0.950 . S
C1218 C1219 1.386 . S
C1218 C1220 1.391 . S
C1219 C1218 1.386 . S
C1219 C1223 1.393 . S
C1220 H1209 0.950 . S
C1220 C1218 1.391 . S
C1220 C1221 1.400 . S
C1221 C1215 1.491 . S
C1221 C1220 1.400 . S
C1221 C1222 1.398 . S
C1222 H1210 0.950 . S
C1222 C1221 1.398 . S
C1222 C1223 1.391 . S
C1223 H1211 0.950 . S
C1223 C1219 1.393 . S
C1223 C1222 1.391 . S
H1224 C1232 0.950 . S
H1225 C1237 0.950 . S
H1226 C1234 0.950 . S
H1227 C1236 0.950 . S
H1228 C1238 0.950 . S
H1229 C1240 0.950 . S
H1230 C1242 0.950 . S
H1231 C1243 0.950 . S
C1232 H1224 0.950 . S
C1232 C1233 1.386 . S
C1232 C1234 1.391 . S
C1233 C1232 1.386 . S
C1233 C1237 1.393 . S
C1234 H1226 0.950 . S
C1234 C1232 1.391 . S
C1234 C1235 1.400 . S
C1235 C1234 1.400 . S
C1235 C1236 1.398 . S
C1235 C1241 1.491 . S
C1236 H1227 0.950 . S
C1236 C1235 1.398 . S
C1236 C1237 1.391 . S
C1237 H1225 0.950 . S
C1237 C1233 1.393 . S
C1237 C1236 1.391 . S
C1238 H1228 0.950 . S
C1238 C1239 1.386 . S
C1238 C1240 1.391 . S
C1239 C1238 1.386 . S
C1239 C1243 1.393 . S
C1240 H1229 0.950 . S
C1240 C1238 1.391 . S
C1240 C1241 1.400 . S
C1241 C1235 1.491 . S
C1241 C1240 1.400 . S
C1241 C1242 1.398 . S
C1242 H1230 0.950 . S
C1242 C1241 1.398 . S
C1242 C1243 1.391 . S
C1243 H1231 0.950 . S
C1243 C1239 1.393 . S
C1243 C1242 1.391 . S
H1244 C1252 0.950 . S
H1245 C1257 0.950 . S
H1246 C1254 0.950 . S
H1247 C1256 0.950 . S
H1248 C1258 0.950 . S
H1249 C1260 0.950 . S
H1250 C1262 0.950 . S
H1251 C1263 0.950 . S
C1252 H1244 0.950 . S
C1252 C1253 1.386 . S
C1252 C1254 1.391 . S
C1253 C1252 1.386 . S
C1253 C1257 1.393 . S
C1254 H1246 0.950 . S
C1254 C1252 1.391 . S
C1254 C1255 1.400 . S
C1255 C1254 1.400 . S
C1255 C1256 1.398 . S
C1255 C1261 1.491 . S
C1256 H1247 0.950 . S
C1256 C1255 1.398 . S
C1256 C1257 1.391 . S
C1257 H1245 0.950 . S
C1257 C1253 1.393 . S
C1257 C1256 1.391 . S
C1258 H1248 0.950 . S
C1258 C1259 1.386 . S
C1258 C1260 1.391 . S
C1259 C1258 1.386 . S
C1259 C1263 1.393 . S
C1260 H1249 0.950 . S
C1260 C1258 1.391 . S
C1260 C1261 1.400 . S
C1261 C1255 1.491 . S
C1261 C1260 1.400 . S
C1261 C1262 1.398 . S
C1262 H1250 0.950 . S
C1262 C1261 1.398 . S
C1262 C1263 1.391 . S
C1263 H1251 0.950 . S
C1263 C1259 1.393 . S
C1263 C1262 1.391 . S
H1264 C1272 0.950 . S
H1265 C1277 0.950 . S
H1266 C1274 0.950 . S
H1267 C1276 0.950 . S
H1268 C1278 0.950 . S
H1269 C1280 0.950 . S
H1270 C1282 0.950 . S
H1271 C1283 0.950 . S
C1272 H1264 0.950 . S
C1272 C1273 1.386 . S
C1272 C1274 1.391 . S
C1273 C1272 1.386 . S
C1273 C1277 1.393 . S
C1274 H1266 0.950 . S
C1274 C1272 1.391 . S
C1274 C1275 1.400 . S
C1275 C1274 1.400 . S
C1275 C1276 1.398 . S
C1275 C1281 1.491 . S
C1276 H1267 0.950 . S
C1276 C1275 1.398 . S
C1276 C1277 1.391 . S
C1277 H1265 0.950 . S
C1277 C1273 1.393 . S
C1277 C1276 1.391 . S
C1278 H1268 0.950 . S
C1278 C1279 1.386 . S
C1278 C1280 1.391 . S
C1279 C1278 1.386 . S
C1279 C1283 1.393 . S
C1280 H1269 0.950 . S
C1280 C1278 1.391 . S
C1280 C1281 1.400 . S
C1281 C1275 1.491 . S
C1281 C1280 1.400 . S
C1281 C1282 1.398 . S
C1282 H1270 0.950 . S
C1282 C1281 1.398 . S
C1282 C1283 1.391 . S
C1283 H1271 0.950 . S
C1283 C1279 1.393 . S
C1283 C1282 1.391 . S
H1284 C1292 0.950 . S
H1285 C1297 0.950 . S
H1286 C1294 0.950 . S
H1287 C1296 0.950 . S
H1288 C1298 0.950 . S
H1289 C1300 0.950 . S
H1290 C1302 0.950 . S
H1291 C1303 0.950 . S
C1292 H1284 0.950 . S
C1292 C1293 1.386 . S
C1292 C1294 1.391 . S
C1293 C1292 1.386 . S
C1293 C1297 1.393 . S
C1294 H1286 0.950 . S
C1294 C1292 1.391 . S
C1294 C1295 1.400 . S
C1295 C1294 1.400 . S
C1295 C1296 1.398 . S
C1295 C1301 1.491 . S
C1296 H1287 0.950 . S
C1296 C1295 1.398 . S
C1296 C1297 1.391 . S
C1297 H1285 0.950 . S
C1297 C1293 1.393 . S
C1297 C1296 1.391 . S
C1298 H1288 0.950 . S
C1298 C1299 1.386 . S
C1298 C1300 1.391 . S
C1299 C1298 1.386 . S
C1299 C1303 1.393 . S
C1300 H1289 0.950 . S
C1300 C1298 1.391 . S
C1300 C1301 1.400 . S
C1301 C1295 1.491 . S
C1301 C1300 1.400 . S
C1301 C1302 1.398 . S
C1302 H1290 0.950 . S
C1302 C1301 1.398 . S
C1302 C1303 1.391 . S
C1303 H1291 0.950 . S
C1303 C1299 1.393 . S
C1303 C1302 1.391 . S
H1304 C1312 0.950 . S
H1305 C1317 0.950 . S
H1306 C1314 0.950 . S
H1307 C1316 0.950 . S
H1308 C1318 0.950 . S
H1309 C1320 0.950 . S
H1310 C1322 0.950 . S
H1311 C1323 0.950 . S
C1312 H1304 0.950 . S
C1312 C1313 1.386 . S
C1312 C1314 1.391 . S
C1313 C1312 1.386 . S
C1313 C1317 1.393 . S
C1314 H1306 0.950 . S
C1314 C1312 1.391 . S
C1314 C1315 1.400 . S
C1315 C1314 1.400 . S
C1315 C1316 1.398 . S
C1315 C1321 1.491 . S
C1316 H1307 0.950 . S
C1316 C1315 1.398 . S
C1316 C1317 1.391 . S
C1317 H1305 0.950 . S
C1317 C1313 1.393 . S
C1317 C1316 1.391 . S
C1318 H1308 0.950 . S
C1318 C1319 1.386 . S
C1318 C1320 1.391 . S
C1319 C1318 1.386 . S
C1319 C1323 1.393 . S
C1320 H1309 0.950 . S
C1320 C1318 1.391 . S
C1320 C1321 1.400 . S
C1321 C1315 1.491 . S
C1321 C1320 1.400 . S
C1321 C1322 1.398 . S
C1322 H1310 0.950 . S
C1322 C1321 1.398 . S
C1322 C1323 1.391 . S
C1323 H1311 0.950 . S
C1323 C1319 1.393 . S
C1323 C1322 1.391 . S
H1324 C1332 0.950 . S
H1325 C1337 0.950 . S
H1326 C1334 0.950 . S
H1327 C1336 0.950 . S
H1328 C1338 0.950 . S
H1329 C1340 0.950 . S
H1330 C1342 0.950 . S
H1331 C1343 0.950 . S
C1332 H1324 0.950 . S
C1332 C1333 1.386 . S
C1332 C1334 1.391 . S
C1333 C1332 1.386 . S
C1333 C1337 1.393 . S
C1334 H1326 0.950 . S
C1334 C1332 1.391 . S
C1334 C1335 1.400 . S
C1335 C1334 1.400 . S
C1335 C1336 1.398 . S
C1335 C1341 1.491 . S
C1336 H1327 0.950 . S
C1336 C1335 1.398 . S
C1336 C1337 1.391 . S
C1337 H1325 0.950 . S
C1337 C1333 1.393 . S
C1337 C1336 1.391 . S
C1338 H1328 0.950 . S
C1338 C1339 1.386 . S
C1338 C1340 1.391 . S
C1339 C1338 1.386 . S
C1339 C1343 1.393 . S
C1340 H1329 0.950 . S
C1340 C1338 1.391 . S
C1340 C1341 1.400 . S
C1341 C1335 1.491 . S
C1341 C1340 1.400 . S
C1341 C1342 1.398 . S
C1342 H1330 0.950 . S
C1342 C1341 1.398 . S
C1342 C1343 1.391 . S
C1343 H1331 0.950 . S
C1343 C1339 1.393 . S
C1343 C1342 1.391 . S
H1344 C1352 0.950 . S
H1345 C1357 0.950 1_565 S
H1346 C1354 0.950 . S
H1347 C1356 0.950 . S
H1348 C1358 0.950 . S
H1349 C1360 0.950 . S
H1350 C1362 0.950 . S
H1351 C1363 0.950 . S
C1352 H1344 0.950 . S
C1352 C1353 1.385 . S
C1352 C1354 1.391 . S
C1353 C1352 1.385 . S
C1353 C1357 1.392 . S
C1354 H1346 0.950 . S
C1354 C1352 1.391 . S
C1354 C1355 1.400 . S
C1355 C1354 1.400 . S
C1355 C1356 1.398 . S
C1355 C1361 1.491 . S
C1356 H1347 0.950 . S
C1356 C1355 1.398 . S
C1356 C1357 1.391 . S
C1357 H1345 0.950 1_545 S
C1357 C1353 1.392 . S
C1357 C1356 1.391 . S
C1358 H1348 0.950 . S
C1358 C1359 1.386 . S
C1358 C1360 1.391 . S
C1359 C1358 1.386 . S
C1359 C1363 1.393 . S
C1360 H1349 0.950 . S
C1360 C1358 1.391 . S
C1360 C1361 1.400 . S
C1361 C1355 1.491 . S
C1361 C1360 1.400 . S
C1361 C1362 1.398 . S
C1362 H1350 0.950 . S
C1362 C1361 1.398 . S
C1362 C1363 1.391 . S
C1363 H1351 0.950 . S
C1363 C1359 1.393 . S
C1363 C1362 1.391 . S
H1364 C1372 0.950 1_455 S
H1365 C1377 0.950 . S
H1366 C1374 0.950 . S
H1367 C1376 0.950 . S
H1368 C1378 0.950 . S
H1369 C1380 0.950 . S
H1370 C1382 0.950 . S
H1371 C1383 0.950 . S
C1372 H1364 0.950 1_655 S
C1372 C1373 1.391 . S
C1372 C1374 1.391 . S
C1373 C1372 1.391 . S
C1373 C1377 1.419 . S
C1374 H1366 0.950 . S
C1374 C1372 1.391 . S
C1374 C1375 1.400 . S
C1375 C1374 1.400 . S
C1375 C1376 1.398 . S
C1375 C1381 1.491 . S
C1376 H1367 0.950 . S
C1376 C1375 1.398 . S
C1376 C1377 1.391 . S
C1377 H1365 0.950 . S
C1377 C1373 1.419 . S
C1377 C1376 1.391 . S
C1378 H1368 0.950 . S
C1378 C1379 1.386 . S
C1378 C1380 1.391 . S
C1379 C1378 1.386 . S
C1379 C1383 1.393 . S
C1380 H1369 0.950 . S
C1380 C1378 1.391 . S
C1380 C1381 1.400 . S
C1381 C1375 1.491 . S
C1381 C1380 1.400 . S
C1381 C1382 1.398 . S
C1382 H1370 0.950 . S
C1382 C1381 1.398 . S
C1382 C1383 1.391 . S
C1383 H1371 0.950 . S
C1383 C1379 1.393 . S
C1383 C1382 1.391 . S
H1384 C1392 0.950 . S
H1385 C1397 0.950 . S
H1386 C1394 0.950 . S
H1387 C1396 0.950 . S
H1388 C1398 0.950 . S
H1389 C1400 0.950 . S
H1390 C1402 0.950 . S
H1391 C1403 0.950 1_545 S
C1392 H1384 0.950 . S
C1392 C1393 1.386 . S
C1392 C1394 1.391 . S
C1393 C1392 1.386 . S
C1393 C1397 1.393 . S
C1394 H1386 0.950 . S
C1394 C1392 1.391 . S
C1394 C1395 1.400 . S
C1395 C1394 1.400 . S
C1395 C1396 1.398 . S
C1395 C1401 1.491 . S
C1396 H1387 0.950 . S
C1396 C1395 1.398 . S
C1396 C1397 1.391 . S
C1397 H1385 0.950 . S
C1397 C1393 1.393 . S
C1397 C1396 1.391 . S
C1398 H1388 0.950 . S
C1398 C1399 1.384 . S
C1398 C1400 1.391 . S
C1399 C1398 1.384 . S
C1399 C1403 1.392 . S
C1400 H1389 0.950 . S
C1400 C1398 1.391 . S
C1400 C1401 1.400 . S
C1401 C1395 1.491 . S
C1401 C1400 1.400 . S
C1401 C1402 1.398 . S
C1402 H1390 0.950 . S
C1402 C1401 1.398 . S
C1402 C1403 1.391 . S
C1403 H1391 0.950 1_565 S
C1403 C1399 1.392 . S
C1403 C1402 1.391 . S
H1404 C1412 0.950 . S
H1405 C1417 0.950 . S
H1406 C1414 0.950 . S
H1407 C1416 0.950 . S
H1408 C1418 0.950 . S
H1409 C1420 0.950 . S
H1410 C1422 0.950 . S
H1411 C1423 0.950 1_655 S
C1412 H1404 0.950 . S
C1412 C1413 1.386 . S
C1412 C1414 1.391 . S
C1413 C1412 1.386 . S
C1413 C1417 1.393 . S
C1414 H1406 0.950 . S
C1414 C1412 1.391 . S
C1414 C1415 1.400 . S
C1415 C1414 1.400 . S
C1415 C1416 1.398 . S
C1415 C1421 1.491 . S
C1416 H1407 0.950 . S
C1416 C1415 1.398 . S
C1416 C1417 1.391 . S
C1417 H1405 0.950 . S
C1417 C1413 1.393 . S
C1417 C1416 1.391 . S
C1418 H1408 0.950 . S
C1418 C1419 1.390 . S
C1418 C1420 1.391 . S
C1419 C1418 1.390 . S
C1419 C1423 1.393 . S
C1420 H1409 0.950 . S
C1420 C1418 1.391 . S
C1420 C1421 1.400 . S
C1421 C1415 1.491 . S
C1421 C1420 1.400 . S
C1421 C1422 1.398 . S
C1422 H1410 0.950 . S
C1422 C1421 1.398 . S
C1422 C1423 1.391 . S
C1423 H1411 0.950 1_455 S
C1423 C1419 1.393 . S
C1423 C1422 1.391 . S
H1424 C1432 0.950 1_545 S
H1425 C1437 0.950 . S
H1426 C1434 0.950 . S
H1427 C1436 0.950 . S
H1428 C1438 0.950 . S
H1429 C1440 0.950 . S
H1430 C1442 0.950 . S
H1431 C1443 0.950 . S
C1432 H1424 0.950 1_565 S
C1432 C1433 1.387 . S
C1432 C1434 1.391 . S
C1433 C1432 1.387 . S
C1433 C1437 1.411 . S
C1434 H1426 0.950 . S
C1434 C1432 1.391 . S
C1434 C1435 1.400 . S
C1435 C1434 1.400 . S
C1435 C1436 1.398 . S
C1435 C1441 1.491 . S
C1436 H1427 0.950 . S
C1436 C1435 1.398 . S
C1436 C1437 1.391 . S
C1437 H1425 0.950 . S
C1437 C1433 1.411 . S
C1437 C1436 1.391 . S
C1438 H1428 0.950 . S
C1438 C1439 1.386 . S
C1438 C1440 1.391 . S
C1439 C1438 1.386 . S
C1439 C1443 1.393 . S
C1440 H1429 0.950 . S
C1440 C1438 1.391 . S
C1440 C1441 1.400 . S
C1441 C1435 1.491 . S
C1441 C1440 1.400 . S
C1441 C1442 1.398 . S
C1442 H1430 0.950 . S
C1442 C1441 1.398 . S
C1442 C1443 1.391 . S
C1443 H1431 0.950 . S
C1443 C1439 1.393 . S
C1443 C1442 1.391 . S
H1444 C1452 0.950 1_655 S
H1445 C1457 0.950 . S
H1446 C1454 0.950 . S
H1447 C1456 0.950 . S
H1448 C1458 0.950 . S
H1449 C1460 0.950 . S
H1450 C1462 0.950 . S
H1451 C1463 0.950 . S
C1452 H1444 0.950 1_455 S
C1452 C1453 1.389 . S
C1452 C1454 1.391 . S
C1453 C1452 1.389 . S
C1453 C1457 1.418 . S
C1454 H1446 0.950 . S
C1454 C1452 1.391 . S
C1454 C1455 1.400 . S
C1455 C1454 1.400 . S
C1455 C1456 1.398 . S
C1455 C1461 1.491 . S
C1456 H1447 0.950 . S
C1456 C1455 1.398 . S
C1456 C1457 1.391 . S
C1457 H1445 0.950 . S
C1457 C1453 1.418 . S
C1457 C1456 1.391 . S
C1458 H1448 0.950 . S
C1458 C1459 1.386 . S
C1458 C1460 1.391 . S
C1459 C1458 1.386 . S
C1459 C1463 1.393 . S
C1460 H1449 0.950 . S
C1460 C1458 1.391 . S
C1460 C1461 1.400 . S
C1461 C1455 1.491 . S
C1461 C1460 1.400 . S
C1461 C1462 1.398 . S
C1462 H1450 0.950 . S
C1462 C1461 1.398 . S
C1462 C1463 1.391 . S
C1463 H1451 0.950 . S
C1463 C1459 1.393 . S
C1463 C1462 1.391 . S
H1464 C1472 0.950 1_565 S
H1465 C1477 0.950 . S
H1466 C1474 0.950 . S
H1467 C1476 0.950 . S
H1468 C1478 0.950 . S
H1469 C1480 0.950 . S
H1470 C1482 0.950 . S
H1471 C1483 0.950 . S
C1472 H1464 0.950 1_545 S
C1472 C1473 1.395 . S
C1472 C1474 1.391 . S
C1473 C1472 1.395 . S
C1473 C1477 1.419 . S
C1474 H1466 0.950 . S
C1474 C1472 1.391 . S
C1474 C1475 1.400 . S
C1475 C1474 1.400 . S
C1475 C1476 1.398 . S
C1475 C1481 1.491 . S
C1476 H1467 0.950 . S
C1476 C1475 1.398 . S
C1476 C1477 1.391 . S
C1477 H1465 0.950 . S
C1477 C1473 1.419 . S
C1477 C1476 1.391 . S
C1478 H1468 0.950 . S
C1478 C1479 1.386 . S
C1478 C1480 1.391 . S
C1479 C1478 1.386 . S
C1479 C1483 1.393 . S
C1480 H1469 0.950 . S
C1480 C1478 1.391 . S
C1480 C1481 1.400 . S
C1481 C1475 1.491 . S
C1481 C1480 1.400 . S
C1481 C1482 1.398 . S
C1482 H1470 0.950 . S
C1482 C1481 1.398 . S
C1482 C1483 1.391 . S
C1483 H1471 0.950 . S
C1483 C1479 1.393 . S
C1483 C1482 1.391 . S
H1484 C1492 0.950 . S
H1485 C1497 0.950 . S
H1486 C1494 0.950 . S
H1487 C1496 0.950 . S
H1488 C1498 0.950 1_455 S
H1489 C1500 0.950 . S
H1490 C1502 0.950 . S
H1491 C1503 0.950 . S
C1492 H1484 0.950 . S
C1492 C1493 1.386 . S
C1492 C1494 1.391 . S
C1493 C1492 1.386 . S
C1493 C1497 1.393 . S
C1494 H1486 0.950 . S
C1494 C1492 1.391 . S
C1494 C1495 1.400 . S
C1495 C1494 1.400 . S
C1495 C1496 1.398 . S
C1495 C1501 1.491 . S
C1496 H1487 0.950 . S
C1496 C1495 1.398 . S
C1496 C1497 1.391 . S
C1497 H1485 0.950 . S
C1497 C1493 1.393 . S
C1497 C1496 1.391 . S
C1498 H1488 0.950 1_655 S
C1498 C1499 1.389 . S
C1498 C1500 1.391 . S
C1499 C1498 1.389 . S
C1499 C1503 1.417 . S
C1500 H1489 0.950 . S
C1500 C1498 1.391 . S
C1500 C1501 1.400 . S
C1501 C1495 1.491 . S
C1501 C1500 1.400 . S
C1501 C1502 1.398 . S
C1502 H1490 0.950 . S
C1502 C1501 1.398 . S
C1502 C1503 1.391 . S
C1503 H1491 0.950 . S
C1503 C1499 1.417 . S
C1503 C1502 1.391 . S
H1504 C1512 0.950 1_545 S
H1505 C1517 0.950 . S
H1506 C1514 0.950 . S
H1507 C1516 0.950 . S
H1508 C1518 0.950 . S
H1509 C1520 0.950 . S
H1510 C1522 0.950 . S
H1511 C1523 0.950 . S
C1512 H1504 0.950 1_565 S
C1512 C1513 1.397 . S
C1512 C1514 1.391 . S
C1513 C1512 1.397 . S
C1513 C1517 1.418 . S
C1514 H1506 0.950 . S
C1514 C1512 1.391 . S
C1514 C1515 1.400 . S
C1515 C1514 1.400 . S
C1515 C1516 1.398 . S
C1515 C1521 1.491 . S
C1516 H1507 0.950 . S
C1516 C1515 1.398 . S
C1516 C1517 1.391 . S
C1517 H1505 0.950 . S
C1517 C1513 1.418 . S
C1517 C1516 1.391 . S
C1518 H1508 0.950 . S
C1518 C1519 1.386 . S
C1518 C1520 1.391 . S
C1519 C1518 1.386 . S
C1519 C1523 1.393 . S
C1520 H1509 0.950 . S
C1520 C1518 1.391 . S
C1520 C1521 1.400 . S
C1521 C1515 1.491 . S
C1521 C1520 1.400 . S
C1521 C1522 1.398 . S
C1522 H1510 0.950 . S
C1522 C1521 1.398 . S
C1522 C1523 1.391 . S
C1523 H1511 0.950 . S
C1523 C1519 1.393 . S
C1523 C1522 1.391 . S
H1524 C1532 0.950 . S
H1525 C1537 0.950 1_655 S
H1526 C1534 0.950 . S
H1527 C1536 0.950 . S
H1528 C1538 0.950 . S
H1529 C1540 0.950 . S
H1530 C1542 0.950 . S
H1531 C1543 0.950 . S
C1532 H1524 0.950 . S
C1532 C1533 1.391 . S
C1532 C1534 1.391 . S
C1533 C1532 1.391 . S
C1533 C1537 1.393 . S
C1534 H1526 0.950 . S
C1534 C1532 1.391 . S
C1534 C1535 1.400 . S
C1535 C1534 1.400 . S
C1535 C1536 1.398 . S
C1535 C1541 1.491 . S
C1536 H1527 0.950 . S
C1536 C1535 1.398 . S
C1536 C1537 1.391 . S
C1537 H1525 0.950 1_455 S
C1537 C1533 1.393 . S
C1537 C1536 1.391 . S
C1538 H1528 0.950 . S
C1538 C1539 1.386 . S
C1538 C1540 1.391 . S
C1539 C1538 1.386 . S
C1539 C1543 1.393 . S
C1540 H1529 0.950 . S
C1540 C1538 1.391 . S
C1540 C1541 1.400 . S
C1541 C1535 1.491 . S
C1541 C1540 1.400 . S
C1541 C1542 1.398 . S
C1542 H1530 0.950 . S
C1542 C1541 1.398 . S
C1542 C1543 1.391 . S
C1543 H1531 0.950 . S
C1543 C1539 1.393 . S
C1543 C1542 1.391 . S
H1544 C1552 0.950 . S
H1545 C1557 0.950 . S
H1546 C1554 0.950 . S
H1547 C1556 0.950 . S
H1548 C1558 0.950 . S
H1549 C1560 0.950 . S
H1550 C1562 0.950 . S
H1551 C1563 0.950 . S
C1552 H1544 0.950 . S
C1552 C1553 1.386 . S
C1552 C1554 1.391 . S
C1553 C1552 1.386 . S
C1553 C1557 1.393 . S
C1554 H1546 0.950 . S
C1554 C1552 1.391 . S
C1554 C1555 1.400 . S
C1555 C1554 1.400 . S
C1555 C1556 1.398 . S
C1555 C1561 1.491 . S
C1556 H1547 0.950 . S
C1556 C1555 1.398 . S
C1556 C1557 1.391 . S
C1557 H1545 0.950 . S
C1557 C1553 1.393 . S
C1557 C1556 1.391 . S
C1558 H1548 0.950 . S
C1558 C1559 1.384 . S
C1558 C1560 1.391 . S
C1559 C1558 1.384 . S
C1559 C1563 1.391 . S
C1560 H1549 0.950 . S
C1560 C1558 1.391 . S
C1560 C1561 1.400 . S
C1561 C1555 1.491 . S
C1561 C1560 1.400 . S
C1561 C1562 1.398 . S
C1562 H1550 0.950 . S
C1562 C1561 1.398 . S
C1562 C1563 1.391 . S
C1563 H1551 0.950 . S
C1563 C1559 1.391 . S
C1563 C1562 1.391 . S
H1564 C1572 0.950 . S
H1565 C1577 0.950 . S
H1566 C1574 0.950 . S
H1567 C1576 0.950 . S
H1568 C1578 0.950 . S
H1569 C1580 0.950 . S
H1570 C1582 0.950 . S
H1571 C1583 0.950 1_455 S
C1572 H1564 0.950 . S
C1572 C1573 1.386 . S
C1572 C1574 1.391 . S
C1573 C1572 1.386 . S
C1573 C1577 1.393 . S
C1574 H1566 0.950 . S
C1574 C1572 1.391 . S
C1574 C1575 1.400 . S
C1575 C1574 1.400 . S
C1575 C1576 1.398 . S
C1575 C1581 1.491 . S
C1576 H1567 0.950 . S
C1576 C1575 1.398 . S
C1576 C1577 1.391 . S
C1577 H1565 0.950 . S
C1577 C1573 1.393 . S
C1577 C1576 1.391 . S
C1578 H1568 0.950 . S
C1578 C1579 1.385 . S
C1578 C1580 1.391 . S
C1579 C1578 1.385 . S
C1579 C1583 1.393 . S
C1580 H1569 0.950 . S
C1580 C1578 1.391 . S
C1580 C1581 1.400 . S
C1581 C1575 1.491 . S
C1581 C1580 1.400 . S
C1581 C1582 1.398 . S
C1582 H1570 0.950 . S
C1582 C1581 1.398 . S
C1582 C1583 1.391 . S
C1583 H1571 0.950 1_655 S
C1583 C1579 1.393 . S
C1583 C1582 1.391 . S
H1584 C1592 0.950 . S
H1585 C1597 0.950 . S
H1586 C1594 0.950 . S
H1587 C1596 0.950 . S
H1588 C1598 0.950 . S
H1589 C1600 0.950 . S
H1590 C1602 0.950 . S
H1591 C1603 0.950 . S
C1592 H1584 0.950 . S
C1592 C1593 1.384 . S
C1592 C1594 1.391 . S
C1593 C1592 1.384 . S
C1593 C1597 1.391 . S
C1594 H1586 0.950 . S
C1594 C1592 1.391 . S
C1594 C1595 1.400 . S
C1595 C1594 1.400 . S
C1595 C1596 1.398 . S
C1595 C1601 1.491 . S
C1596 H1587 0.950 . S
C1596 C1595 1.398 . S
C1596 C1597 1.391 . S
C1597 H1585 0.950 . S
C1597 C1593 1.391 . S
C1597 C1596 1.391 . S
C1598 H1588 0.950 . S
C1598 C1599 1.386 . S
C1598 C1600 1.391 . S
C1599 C1598 1.386 . S
C1599 C1603 1.393 . S
C1600 H1589 0.950 . S
C1600 C1598 1.391 . S
C1600 C1601 1.400 . S
C1601 C1595 1.491 . S
C1601 C1600 1.400 . S
C1601 C1602 1.398 . S
C1602 H1590 0.950 . S
C1602 C1601 1.398 . S
C1602 C1603 1.391 . S
C1603 H1591 0.950 . S
C1603 C1599 1.393 . S
C1603 C1602 1.391 . S
H1604 C1612 0.950 . S
H1605 C1617 0.950 . S
H1606 C1614 0.950 . S
H1607 C1616 0.950 . S
H1608 C1618 0.950 1_455 S
H1609 C1620 0.950 . S
H1610 C1622 0.950 . S
H1611 C1623 0.950 . S
C1612 H1604 0.950 . S
C1612 C1613 1.386 . S
C1612 C1614 1.391 . S
C1613 C1612 1.386 . S
C1613 C1617 1.393 . S
C1614 H1606 0.950 . S
C1614 C1612 1.391 . S
C1614 C1615 1.400 . S
C1615 C1614 1.400 . S
C1615 C1616 1.398 . S
C1615 C1621 1.491 . S
C1616 H1607 0.950 . S
C1616 C1615 1.398 . S
C1616 C1617 1.391 . S
C1617 H1605 0.950 . S
C1617 C1613 1.393 . S
C1617 C1616 1.391 . S
C1618 H1608 0.950 1_655 S
C1618 C1619 1.397 . S
C1618 C1620 1.391 . S
C1619 C1618 1.397 . S
C1619 C1623 1.418 . S
C1620 H1609 0.950 . S
C1620 C1618 1.391 . S
C1620 C1621 1.400 . S
C1621 C1615 1.491 . S
C1621 C1620 1.400 . S
C1621 C1622 1.398 . S
C1622 H1610 0.950 . S
C1622 C1621 1.398 . S
C1622 C1623 1.391 . S
C1623 H1611 0.950 . S
C1623 C1619 1.418 . S
C1623 C1622 1.391 . S
H1624 C1632 0.950 . S
H1625 C1637 0.950 . S
H1626 C1634 0.950 . S
H1627 C1636 0.950 . S
H1628 C1638 0.950 . S
H1629 C1640 0.950 . S
H1630 C1642 0.950 . S
H1631 C1643 0.950 1_545 S
C1632 H1624 0.950 . S
C1632 C1633 1.386 . S
C1632 C1634 1.391 . S
C1633 C1632 1.386 . S
C1633 C1637 1.393 . S
C1634 H1626 0.950 . S
C1634 C1632 1.391 . S
C1634 C1635 1.400 . S
C1635 C1634 1.400 . S
C1635 C1636 1.398 . S
C1635 C1641 1.491 . S
C1636 H1627 0.950 . S
C1636 C1635 1.398 . S
C1636 C1637 1.391 . S
C1637 H1625 0.950 . S
C1637 C1633 1.393 . S
C1637 C1636 1.391 . S
C1638 H1628 0.950 . S
C1638 C1639 1.406 . S
C1638 C1640 1.391 . S
C1639 C1638 1.406 . S
C1639 C1643 1.396 . S
C1640 H1629 0.950 . S
C1640 C1638 1.391 . S
C1640 C1641 1.400 . S
C1641 C1635 1.491 . S
C1641 C1640 1.400 . S
C1641 C1642 1.398 . S
C1642 H1630 0.950 . S
C1642 C1641 1.398 . S
C1642 C1643 1.391 . S
C1643 H1631 0.950 1_565 S
C1643 C1639 1.396 . S
C1643 C1642 1.391 . S
H1644 C1652 0.950 . S
H1645 C1657 0.950 . S
H1646 C1654 0.950 . S
H1647 C1656 0.950 . S
H1648 C1658 0.950 . S
H1649 C1660 0.950 . S
H1650 C1662 0.950 . S
H1651 C1663 0.950 1_655 S
C1652 H1644 0.950 . S
C1652 C1653 1.386 . S
C1652 C1654 1.391 . S
C1653 C1652 1.386 . S
C1653 C1657 1.393 . S
C1654 H1646 0.950 . S
C1654 C1652 1.391 . S
C1654 C1655 1.400 . S
C1655 C1654 1.400 . S
C1655 C1656 1.398 . S
C1655 C1661 1.491 . S
C1656 H1647 0.950 . S
C1656 C1655 1.398 . S
C1656 C1657 1.391 . S
C1657 H1645 0.950 . S
C1657 C1653 1.393 . S
C1657 C1656 1.391 . S
C1658 H1648 0.950 . S
C1658 C1659 1.401 . S
C1658 C1660 1.391 . S
C1659 C1658 1.401 . S
C1659 C1663 1.394 . S
C1660 H1649 0.950 . S
C1660 C1658 1.391 . S
C1660 C1661 1.400 . S
C1661 C1655 1.491 . S
C1661 C1660 1.400 . S
C1661 C1662 1.398 . S
C1662 H1650 0.950 . S
C1662 C1661 1.398 . S
C1662 C1663 1.391 . S
C1663 H1651 0.950 1_455 S
C1663 C1659 1.394 . S
C1663 C1662 1.391 . S
H1664 C1672 0.950 . S
H1665 C1677 0.950 . S
H1666 C1674 0.950 . S
H1667 C1676 0.950 . S
H1668 C1678 0.950 . S
H1669 C1680 0.950 . S
H1670 C1682 0.950 . S
H1671 C1683 0.950 . S
C1672 H1664 0.950 . S
C1672 C1673 1.386 . S
C1672 C1674 1.391 . S
C1673 C1672 1.386 . S
C1673 C1677 1.393 . S
C1674 H1666 0.950 . S
C1674 C1672 1.391 . S
C1674 C1675 1.400 . S
C1675 C1674 1.400 . S
C1675 C1676 1.398 . S
C1675 C1681 1.491 . S
C1676 H1667 0.950 . S
C1676 C1675 1.398 . S
C1676 C1677 1.391 . S
C1677 H1665 0.950 . S
C1677 C1673 1.393 . S
C1677 C1676 1.391 . S
C1678 H1668 0.950 . S
C1678 C1679 1.386 . S
C1678 C1680 1.391 . S
C1679 C1678 1.386 . S
C1679 C1683 1.393 . S
C1680 H1669 0.950 . S
C1680 C1678 1.391 . S
C1680 C1681 1.400 . S
C1681 C1675 1.491 . S
C1681 C1680 1.400 . S
C1681 C1682 1.398 . S
C1682 H1670 0.950 . S
C1682 C1681 1.398 . S
C1682 C1683 1.391 . S
C1683 H1671 0.950 . S
C1683 C1679 1.393 . S
C1683 C1682 1.391 . S
H1684 C1692 0.950 . S
H1685 C1697 0.950 . S
H1686 C1694 0.950 . S
H1687 C1696 0.950 . S
H1688 C1698 0.950 . S
H1689 C1700 0.950 . S
H1690 C1702 0.950 . S
H1691 C1703 0.950 . S
C1692 H1684 0.950 . S
C1692 C1693 1.386 . S
C1692 C1694 1.391 . S
C1693 C1692 1.386 . S
C1693 C1697 1.393 . S
C1694 H1686 0.950 . S
C1694 C1692 1.391 . S
C1694 C1695 1.400 . S
C1695 C1694 1.400 . S
C1695 C1696 1.398 . S
C1695 C1701 1.491 . S
C1696 H1687 0.950 . S
C1696 C1695 1.398 . S
C1696 C1697 1.391 . S
C1697 H1685 0.950 . S
C1697 C1693 1.393 . S
C1697 C1696 1.391 . S
C1698 H1688 0.950 . S
C1698 C1699 1.386 . S
C1698 C1700 1.391 . S
C1699 C1698 1.386 . S
C1699 C1703 1.393 . S
C1700 H1689 0.950 . S
C1700 C1698 1.391 . S
C1700 C1701 1.400 . S
C1701 C1695 1.491 . S
C1701 C1700 1.400 . S
C1701 C1702 1.398 . S
C1702 H1690 0.950 . S
C1702 C1701 1.398 . S
C1702 C1703 1.391 . S
C1703 H1691 0.950 . S
C1703 C1699 1.393 . S
C1703 C1702 1.391 . S
H1704 C1712 0.950 . S
H1705 C1717 0.950 . S
H1706 C1714 0.950 . S
H1707 C1716 0.950 . S
H1708 C1718 0.950 . S
H1709 C1720 0.950 . S
H1710 C1722 0.950 . S
H1711 C1723 0.950 . S
C1712 H1704 0.950 . S
C1712 C1713 1.386 . S
C1712 C1714 1.391 . S
C1713 C1712 1.386 . S
C1713 C1717 1.393 . S
C1714 H1706 0.950 . S
C1714 C1712 1.391 . S
C1714 C1715 1.400 . S
C1715 C1714 1.400 . S
C1715 C1716 1.398 . S
C1715 C1721 1.491 . S
C1716 H1707 0.950 . S
C1716 C1715 1.398 . S
C1716 C1717 1.391 . S
C1717 H1705 0.950 . S
C1717 C1713 1.393 . S
C1717 C1716 1.391 . S
C1718 H1708 0.950 . S
C1718 C1719 1.386 . S
C1718 C1720 1.391 . S
C1719 C1718 1.386 . S
C1719 C1723 1.393 . S
C1720 H1709 0.950 . S
C1720 C1718 1.391 . S
C1720 C1721 1.400 . S
C1721 C1715 1.491 . S
C1721 C1720 1.400 . S
C1721 C1722 1.398 . S
C1722 H1710 0.950 . S
C1722 C1721 1.398 . S
C1722 C1723 1.391 . S
C1723 H1711 0.950 . S
C1723 C1719 1.393 . S
C1723 C1722 1.391 . S
H1724 C1732 0.950 . S
H1725 C1737 0.950 . S
H1726 C1734 0.950 . S
H1727 C1736 0.950 . S
H1728 C1738 0.950 . S
H1729 C1740 0.950 . S
H1730 C1742 0.950 . S
H1731 C1743 0.950 . S
C1732 H1724 0.950 . S
C1732 C1733 1.386 . S
C1732 C1734 1.391 . S
C1733 C1732 1.386 . S
C1733 C1737 1.393 . S
C1734 H1726 0.950 . S
C1734 C1732 1.391 . S
C1734 C1735 1.400 . S
C1735 C1734 1.400 . S
C1735 C1736 1.398 . S
C1735 C1741 1.491 . S
C1736 H1727 0.950 . S
C1736 C1735 1.398 . S
C1736 C1737 1.391 . S
C1737 H1725 0.950 . S
C1737 C1733 1.393 . S
C1737 C1736 1.391 . S
C1738 H1728 0.950 . S
C1738 C1739 1.386 . S
C1738 C1740 1.391 . S
C1739 C1738 1.386 . S
C1739 C1743 1.393 . S
C1740 H1729 0.950 . S
C1740 C1738 1.391 . S
C1740 C1741 1.400 . S
C1741 C1735 1.491 . S
C1741 C1740 1.400 . S
C1741 C1742 1.398 . S
C1742 H1730 0.950 . S
C1742 C1741 1.398 . S
C1742 C1743 1.391 . S
C1743 H1731 0.950 . S
C1743 C1739 1.393 . S
C1743 C1742 1.391 . S
H1744 C1752 0.950 . S
H1745 C1757 0.950 . S
H1746 C1754 0.950 . S
H1747 C1756 0.950 . S
H1748 C1758 0.950 . S
H1749 C1760 0.950 . S
H1750 C1762 0.950 . S
H1751 C1763 0.950 . S
C1752 H1744 0.950 . S
C1752 C1753 1.386 . S
C1752 C1754 1.391 . S
C1753 C1752 1.386 . S
C1753 C1757 1.393 . S
C1754 H1746 0.950 . S
C1754 C1752 1.391 . S
C1754 C1755 1.400 . S
C1755 C1754 1.400 . S
C1755 C1756 1.398 . S
C1755 C1761 1.491 . S
C1756 H1747 0.950 . S
C1756 C1755 1.398 . S
C1756 C1757 1.391 . S
C1757 H1745 0.950 . S
C1757 C1753 1.393 . S
C1757 C1756 1.391 . S
C1758 H1748 0.950 . S
C1758 C1759 1.386 . S
C1758 C1760 1.391 . S
C1759 C1758 1.386 . S
C1759 C1763 1.393 . S
C1760 H1749 0.950 . S
C1760 C1758 1.391 . S
C1760 C1761 1.400 . S
C1761 C1755 1.491 . S
C1761 C1760 1.400 . S
C1761 C1762 1.398 . S
C1762 H1750 0.950 . S
C1762 C1761 1.398 . S
C1762 C1763 1.391 . S
C1763 H1751 0.950 . S
C1763 C1759 1.393 . S
C1763 C1762 1.391 . S
H1764 C1772 0.950 . S
H1765 C1777 0.950 . S
H1766 C1774 0.950 . S
H1767 C1776 0.950 . S
H1768 C1778 0.950 . S
H1769 C1780 0.950 . S
H1770 C1782 0.950 . S
H1771 C1783 0.950 . S
C1772 H1764 0.950 . S
C1772 C1773 1.386 . S
C1772 C1774 1.391 . S
C1773 C1772 1.386 . S
C1773 C1777 1.393 . S
C1774 H1766 0.950 . S
C1774 C1772 1.391 . S
C1774 C1775 1.400 . S
C1775 C1774 1.400 . S
C1775 C1776 1.398 . S
C1775 C1781 1.491 . S
C1776 H1767 0.950 . S
C1776 C1775 1.398 . S
C1776 C1777 1.391 . S
C1777 H1765 0.950 . S
C1777 C1773 1.393 . S
C1777 C1776 1.391 . S
C1778 H1768 0.950 . S
C1778 C1779 1.386 . S
C1778 C1780 1.391 . S
C1779 C1778 1.386 . S
C1779 C1783 1.393 . S
C1780 H1769 0.950 . S
C1780 C1778 1.391 . S
C1780 C1781 1.400 . S
C1781 C1775 1.491 . S
C1781 C1780 1.400 . S
C1781 C1782 1.398 . S
C1782 H1770 0.950 . S
C1782 C1781 1.398 . S
C1782 C1783 1.391 . S
C1783 H1771 0.950 . S
C1783 C1779 1.393 . S
C1783 C1782 1.391 . S
H1784 C1792 0.950 . S
H1785 C1797 0.950 . S
H1786 C1794 0.950 . S
H1787 C1796 0.950 . S
H1788 C1798 0.950 . S
H1789 C1800 0.950 . S
H1790 C1802 0.950 . S
H1791 C1803 0.950 . S
C1792 H1784 0.950 . S
C1792 C1793 1.386 . S
C1792 C1794 1.391 . S
C1793 C1792 1.386 . S
C1793 C1797 1.393 . S
C1794 H1786 0.950 . S
C1794 C1792 1.391 . S
C1794 C1795 1.400 . S
C1795 C1794 1.400 . S
C1795 C1796 1.398 . S
C1795 C1801 1.491 . S
C1796 H1787 0.950 . S
C1796 C1795 1.398 . S
C1796 C1797 1.391 . S
C1797 H1785 0.950 . S
C1797 C1793 1.393 . S
C1797 C1796 1.391 . S
C1798 H1788 0.950 . S
C1798 C1799 1.386 . S
C1798 C1800 1.391 . S
C1799 C1798 1.386 . S
C1799 C1803 1.393 . S
C1800 H1789 0.950 . S
C1800 C1798 1.391 . S
C1800 C1801 1.400 . S
C1801 C1795 1.491 . S
C1801 C1800 1.400 . S
C1801 C1802 1.398 . S
C1802 H1790 0.950 . S
C1802 C1801 1.398 . S
C1802 C1803 1.391 . S
C1803 H1791 0.950 . S
C1803 C1799 1.393 . S
C1803 C1802 1.391 . S
H1804 C1812 0.950 . S
H1805 C1817 0.950 . S
H1806 C1814 0.950 . S
H1807 C1816 0.950 . S
H1808 C1818 0.950 . S
H1809 C1820 0.950 . S
H1810 C1822 0.950 . S
H1811 C1823 0.950 . S
C1812 H1804 0.950 . S
C1812 C1813 1.386 . S
C1812 C1814 1.391 . S
C1813 C1812 1.386 . S
C1813 C1817 1.393 . S
C1814 H1806 0.950 . S
C1814 C1812 1.391 . S
C1814 C1815 1.400 . S
C1815 C1814 1.400 . S
C1815 C1816 1.398 . S
C1815 C1821 1.491 . S
C1816 H1807 0.950 . S
C1816 C1815 1.398 . S
C1816 C1817 1.391 . S
C1817 H1805 0.950 . S
C1817 C1813 1.393 . S
C1817 C1816 1.391 . S
C1818 H1808 0.950 . S
C1818 C1819 1.386 . S
C1818 C1820 1.391 . S
C1819 C1818 1.386 . S
C1819 C1823 1.393 . S
C1820 H1809 0.950 . S
C1820 C1818 1.391 . S
C1820 C1821 1.400 . S
C1821 C1815 1.491 . S
C1821 C1820 1.400 . S
C1821 C1822 1.398 . S
C1822 H1810 0.950 . S
C1822 C1821 1.398 . S
C1822 C1823 1.391 . S
C1823 H1811 0.950 . S
C1823 C1819 1.393 . S
C1823 C1822 1.391 . S
H1824 C1832 0.950 . S
H1825 C1837 0.950 . S
H1826 C1834 0.950 . S
H1827 C1836 0.950 . S
H1828 C1838 0.950 . S
H1829 C1840 0.950 . S
H1830 C1842 0.950 . S
H1831 C1843 0.950 . S
C1832 H1824 0.950 . S
C1832 C1833 1.386 . S
C1832 C1834 1.391 . S
C1833 C1832 1.386 . S
C1833 C1837 1.393 . S
C1834 H1826 0.950 . S
C1834 C1832 1.391 . S
C1834 C1835 1.400 . S
C1835 C1834 1.400 . S
C1835 C1836 1.398 . S
C1835 C1841 1.491 . S
C1836 H1827 0.950 . S
C1836 C1835 1.398 . S
C1836 C1837 1.391 . S
C1837 H1825 0.950 . S
C1837 C1833 1.393 . S
C1837 C1836 1.391 . S
C1838 H1828 0.950 . S
C1838 C1839 1.386 . S
C1838 C1840 1.391 . S
C1839 C1838 1.386 . S
C1839 C1843 1.393 . S
C1840 H1829 0.950 . S
C1840 C1838 1.391 . S
C1840 C1841 1.400 . S
C1841 C1835 1.491 . S
C1841 C1840 1.400 . S
C1841 C1842 1.398 . S
C1842 H1830 0.950 . S
C1842 C1841 1.398 . S
C1842 C1843 1.391 . S
C1843 H1831 0.950 . S
C1843 C1839 1.393 . S
C1843 C1842 1.391 . S
H1844 C1852 0.950 . S
H1845 C1857 0.950 . S
H1846 C1854 0.950 . S
H1847 C1856 0.950 . S
H1848 C1858 0.950 . S
H1849 C1860 0.950 . S
H1850 C1862 0.950 . S
H1851 C1863 0.950 . S
C1852 H1844 0.950 . S
C1852 C1853 1.386 . S
C1852 C1854 1.391 . S
C1853 C1852 1.386 . S
C1853 C1857 1.393 . S
C1854 H1846 0.950 . S
C1854 C1852 1.391 . S
C1854 C1855 1.400 . S
C1855 C1854 1.400 . S
C1855 C1856 1.398 . S
C1855 C1861 1.491 . S
C1856 H1847 0.950 . S
C1856 C1855 1.398 . S
C1856 C1857 1.391 . S
C1857 H1845 0.950 . S
C1857 C1853 1.393 . S
C1857 C1856 1.391 . S
C1858 H1848 0.950 . S
C1858 C1859 1.386 . S
C1858 C1860 1.391 . S
C1859 C1858 1.386 . S
C1859 C1863 1.393 . S
C1860 H1849 0.950 . S
C1860 C1858 1.391 . S
C1860 C1861 1.400 . S
C1861 C1855 1.491 . S
C1861 C1860 1.400 . S
C1861 C1862 1.398 . S
C1862 H1850 0.950 . S
C1862 C1861 1.398 . S
C1862 C1863 1.391 . S
C1863 H1851 0.950 . S
C1863 C1859 1.393 . S
C1863 C1862 1.391 . S
H1864 C1872 0.950 . S
H1865 C1877 0.950 . S
H1866 C1874 0.950 . S
H1867 C1876 0.950 . S
H1868 C1878 0.950 . S
H1869 C1880 0.950 . S
H1870 C1882 0.950 . S
H1871 C1883 0.950 . S
C1872 H1864 0.950 . S
C1872 C1873 1.386 . S
C1872 C1874 1.391 . S
C1873 C1872 1.386 . S
C1873 C1877 1.393 . S
C1874 H1866 0.950 . S
C1874 C1872 1.391 . S
C1874 C1875 1.400 . S
C1875 C1874 1.400 . S
C1875 C1876 1.398 . S
C1875 C1881 1.491 . S
C1876 H1867 0.950 . S
C1876 C1875 1.398 . S
C1876 C1877 1.391 . S
C1877 H1865 0.950 . S
C1877 C1873 1.393 . S
C1877 C1876 1.391 . S
C1878 H1868 0.950 . S
C1878 C1879 1.386 . S
C1878 C1880 1.391 . S
C1879 C1878 1.386 . S
C1879 C1883 1.393 . S
C1880 H1869 0.950 . S
C1880 C1878 1.391 . S
C1880 C1881 1.400 . S
C1881 C1875 1.491 . S
C1881 C1880 1.400 . S
C1881 C1882 1.398 . S
C1882 H1870 0.950 . S
C1882 C1881 1.398 . S
C1882 C1883 1.391 . S
C1883 H1871 0.950 . S
C1883 C1879 1.393 . S
C1883 C1882 1.391 . S
H1884 C1892 0.950 . S
H1885 C1897 0.950 . S
H1886 C1894 0.950 . S
H1887 C1896 0.950 . S
H1888 C1898 0.950 . S
H1889 C1900 0.950 . S
H1890 C1902 0.950 . S
H1891 C1903 0.950 . S
C1892 H1884 0.950 . S
C1892 C1893 1.386 . S
C1892 C1894 1.391 . S
C1893 C1892 1.386 . S
C1893 C1897 1.393 . S
C1894 H1886 0.950 . S
C1894 C1892 1.391 . S
C1894 C1895 1.400 . S
C1895 C1894 1.400 . S
C1895 C1896 1.398 . S
C1895 C1901 1.491 . S
C1896 H1887 0.950 . S
C1896 C1895 1.398 . S
C1896 C1897 1.391 . S
C1897 H1885 0.950 . S
C1897 C1893 1.393 . S
C1897 C1896 1.391 . S
C1898 H1888 0.950 . S
C1898 C1899 1.386 . S
C1898 C1900 1.391 . S
C1899 C1898 1.386 . S
C1899 C1903 1.393 . S
C1900 H1889 0.950 . S
C1900 C1898 1.391 . S
C1900 C1901 1.400 . S
C1901 C1895 1.491 . S
C1901 C1900 1.400 . S
C1901 C1902 1.398 . S
C1902 H1890 0.950 . S
C1902 C1901 1.398 . S
C1902 C1903 1.391 . S
C1903 H1891 0.950 . S
C1903 C1899 1.393 . S
C1903 C1902 1.391 . S
H1904 C1912 0.950 . S
H1905 C1917 0.950 . S
H1906 C1914 0.950 . S
H1907 C1916 0.950 . S
H1908 C1918 0.950 . S
H1909 C1920 0.950 . S
H1910 C1922 0.950 . S
H1911 C1923 0.950 . S
C1912 H1904 0.950 . S
C1912 C1913 1.386 . S
C1912 C1914 1.391 . S
C1913 C1912 1.386 . S
C1913 C1917 1.393 . S
C1914 H1906 0.950 . S
C1914 C1912 1.391 . S
C1914 C1915 1.400 . S
C1915 C1914 1.400 . S
C1915 C1916 1.398 . S
C1915 C1921 1.491 . S
C1916 H1907 0.950 . S
C1916 C1915 1.398 . S
C1916 C1917 1.391 . S
C1917 H1905 0.950 . S
C1917 C1913 1.393 . S
C1917 C1916 1.391 . S
C1918 H1908 0.950 . S
C1918 C1919 1.386 . S
C1918 C1920 1.391 . S
C1919 C1918 1.386 . S
C1919 C1923 1.393 . S
C1920 H1909 0.950 . S
C1920 C1918 1.391 . S
C1920 C1921 1.400 . S
C1921 C1915 1.491 . S
C1921 C1920 1.400 . S
C1921 C1922 1.398 . S
C1922 H1910 0.950 . S
C1922 C1921 1.398 . S
C1922 C1923 1.391 . S
C1923 H1911 0.950 . S
C1923 C1919 1.393 . S
C1923 C1922 1.391 . S
H1924 C1932 0.950 . S
H1925 C1937 0.950 . S
H1926 C1934 0.950 . S
H1927 C1936 0.950 . S
H1928 C1938 0.950 . S
H1929 C1940 0.950 . S
H1930 C1942 0.950 . S
H1931 C1943 0.950 . S
C1932 H1924 0.950 . S
C1932 C1933 1.386 . S
C1932 C1934 1.391 . S
C1933 C1932 1.386 . S
C1933 C1937 1.393 . S
C1934 H1926 0.950 . S
C1934 C1932 1.391 . S
C1934 C1935 1.400 . S
C1935 C1934 1.400 . S
C1935 C1936 1.398 . S
C1935 C1941 1.491 . S
C1936 H1927 0.950 . S
C1936 C1935 1.398 . S
C1936 C1937 1.391 . S
C1937 H1925 0.950 . S
C1937 C1933 1.393 . S
C1937 C1936 1.391 . S
C1938 H1928 0.950 . S
C1938 C1939 1.386 . S
C1938 C1940 1.391 . S
C1939 C1938 1.386 . S
C1939 C1943 1.393 . S
C1940 H1929 0.950 . S
C1940 C1938 1.391 . S
C1940 C1941 1.400 . S
C1941 C1935 1.491 . S
C1941 C1940 1.400 . S
C1941 C1942 1.398 . S
C1942 H1930 0.950 . S
C1942 C1941 1.398 . S
C1942 C1943 1.391 . S
C1943 H1931 0.950 . S
C1943 C1939 1.393 . S
C1943 C1942 1.391 . S
H1944 C1952 0.950 . S
H1945 C1957 0.950 . S
H1946 C1954 0.950 . S
H1947 C1956 0.950 . S
H1948 C1958 0.950 . S
H1949 C1960 0.950 . S
H1950 C1962 0.950 . S
H1951 C1963 0.950 . S
C1952 H1944 0.950 . S
C1952 C1953 1.386 . S
C1952 C1954 1.391 . S
C1953 C1952 1.386 . S
C1953 C1957 1.393 . S
C1954 H1946 0.950 . S
C1954 C1952 1.391 . S
C1954 C1955 1.400 . S
C1955 C1954 1.400 . S
C1955 C1956 1.398 . S
C1955 C1961 1.491 . S
C1956 H1947 0.950 . S
C1956 C1955 1.398 . S
C1956 C1957 1.391 . S
C1957 H1945 0.950 . S
C1957 C1953 1.393 . S
C1957 C1956 1.391 . S
C1958 H1948 0.950 . S
C1958 C1959 1.386 . S
C1958 C1960 1.391 . S
C1959 C1958 1.386 . S
C1959 C1963 1.393 . S
C1960 H1949 0.950 . S
C1960 C1958 1.391 . S
C1960 C1961 1.400 . S
C1961 C1955 1.491 . S
C1961 C1960 1.400 . S
C1961 C1962 1.398 . S
C1962 H1950 0.950 . S
C1962 C1961 1.398 . S
C1962 C1963 1.391 . S
C1963 H1951 0.950 . S
C1963 C1959 1.393 . S
C1963 C1962 1.391 . S
H1964 C1972 0.950 . S
H1965 C1977 0.950 . S
H1966 C1974 0.950 . S
H1967 C1976 0.950 . S
H1968 C1978 0.950 . S
H1969 C1980 0.950 . S
H1970 C1982 0.950 . S
H1971 C1983 0.950 . S
C1972 H1964 0.950 . S
C1972 C1973 1.386 . S
C1972 C1974 1.391 . S
C1973 C1972 1.386 . S
C1973 C1977 1.393 . S
C1974 H1966 0.950 . S
C1974 C1972 1.391 . S
C1974 C1975 1.400 . S
C1975 C1974 1.400 . S
C1975 C1976 1.398 . S
C1975 C1981 1.491 . S
C1976 H1967 0.950 . S
C1976 C1975 1.398 . S
C1976 C1977 1.391 . S
C1977 H1965 0.950 . S
C1977 C1973 1.393 . S
C1977 C1976 1.391 . S
C1978 H1968 0.950 . S
C1978 C1979 1.386 . S
C1978 C1980 1.391 . S
C1979 C1978 1.386 . S
C1979 C1983 1.393 . S
C1980 H1969 0.950 . S
C1980 C1978 1.391 . S
C1980 C1981 1.400 . S
C1981 C1975 1.491 . S
C1981 C1980 1.400 . S
C1981 C1982 1.398 . S
C1982 H1970 0.950 . S
C1982 C1981 1.398 . S
C1982 C1983 1.391 . S
C1983 H1971 0.950 . S
C1983 C1979 1.393 . S
C1983 C1982 1.391 . S
H1984 C1992 0.950 . S
H1985 C1997 0.950 . S
H1986 C1994 0.950 . S
H1987 C1996 0.950 . S
H1988 C1998 0.950 . S
H1989 C2000 0.950 . S
H1990 C2002 0.950 . S
H1991 C2003 0.950 . S
C1992 H1984 0.950 . S
C1992 C1993 1.386 . S
C1992 C1994 1.391 . S
C1993 C1992 1.386 . S
C1993 C1997 1.393 . S
C1994 H1986 0.950 . S
C1994 C1992 1.391 . S
C1994 C1995 1.400 . S
C1995 C1994 1.400 . S
C1995 C1996 1.398 . S
C1995 C2001 1.491 1_455 S
C1996 H1987 0.950 . S
C1996 C1995 1.398 . S
C1996 C1997 1.391 . S
C1997 H1985 0.950 . S
C1997 C1993 1.393 . S
C1997 C1996 1.391 . S
C1998 H1988 0.950 . S
C1998 C1999 1.386 . S
C1998 C2000 1.391 . S
C1999 C1998 1.386 . S
C1999 C2003 1.393 . S
C2000 H1989 0.950 . S
C2000 C1998 1.391 . S
C2000 C2001 1.400 . S
C2001 C1995 1.491 1_655 S
C2001 C2000 1.400 . S
C2001 C2002 1.398 . S
C2002 H1990 0.950 . S
C2002 C2001 1.398 . S
C2002 C2003 1.391 . S
C2003 H1991 0.950 . S
C2003 C1999 1.393 . S
C2003 C2002 1.391 . S
H2004 C2012 0.950 . S
H2005 C2017 0.950 . S
H2006 C2014 0.950 . S
H2007 C2016 0.950 . S
H2008 C2018 0.950 . S
H2009 C2020 0.950 . S
H2010 C2022 0.950 . S
H2011 C2023 0.950 . S
C2012 H2004 0.950 . S
C2012 C2013 1.386 . S
C2012 C2014 1.391 . S
C2013 C2012 1.386 . S
C2013 C2017 1.393 . S
C2014 H2006 0.950 . S
C2014 C2012 1.391 . S
C2014 C2015 1.400 . S
C2015 C2014 1.400 . S
C2015 C2016 1.398 1_565 S
C2015 C2021 1.491 1_565 S
C2016 H2007 0.950 . S
C2016 C2015 1.398 1_545 S
C2016 C2017 1.391 1_545 S
C2017 H2005 0.950 . S
C2017 C2013 1.393 . S
C2017 C2016 1.391 1_565 S
C2018 H2008 0.950 . S
C2018 C2019 1.386 . S
C2018 C2020 1.391 . S
C2019 C2018 1.386 . S
C2019 C2023 1.393 . S
C2020 H2009 0.950 . S
C2020 C2018 1.391 . S
C2020 C2021 1.400 . S
C2021 C2015 1.491 1_545 S
C2021 C2020 1.400 . S
C2021 C2022 1.398 1_545 S
C2022 H2010 0.950 . S
C2022 C2021 1.398 1_565 S
C2022 C2023 1.391 1_565 S
C2023 H2011 0.950 . S
C2023 C2019 1.393 . S
C2023 C2022 1.391 1_545 S
H2024 C2032 0.950 . S
H2025 C2037 0.950 . S
H2026 C2034 0.950 . S
H2027 C2036 0.950 1_455 S
H2028 C2038 0.950 . S
H2029 C2040 0.950 . S
H2030 C2042 0.950 1_655 S
H2031 C2043 0.950 . S
C2032 H2024 0.950 . S
C2032 C2033 1.386 . S
C2032 C2034 1.391 . S
C2033 C2032 1.386 . S
C2033 C2037 1.393 . S
C2034 H2026 0.950 . S
C2034 C2032 1.391 . S
C2034 C2035 1.400 . S
C2035 C2034 1.400 . S
C2035 C2036 1.398 . S
C2035 C2041 1.491 1_655 S
C2036 H2027 0.950 1_655 S
C2036 C2035 1.398 . S
C2036 C2037 1.391 . S
C2037 H2025 0.950 . S
C2037 C2033 1.393 . S
C2037 C2036 1.391 . S
C2038 H2028 0.950 . S
C2038 C2039 1.386 . S
C2038 C2040 1.391 . S
C2039 C2038 1.386 . S
C2039 C2043 1.393 . S
C2040 H2029 0.950 . S
C2040 C2038 1.391 . S
C2040 C2041 1.400 . S
C2041 C2035 1.491 1_455 S
C2041 C2040 1.400 . S
C2041 C2042 1.398 . S
C2042 H2030 0.950 1_455 S
C2042 C2041 1.398 . S
C2042 C2043 1.391 . S
C2043 H2031 0.950 . S
C2043 C2039 1.393 . S
C2043 C2042 1.391 . S
H2044 C2052 0.950 . S
H2045 C2057 0.950 . S
H2046 C2054 0.950 . S
H2047 C2056 0.950 . S
H2048 C2058 0.950 . S
H2049 C2060 0.950 . S
H2050 C2062 0.950 . S
H2051 C2063 0.950 . S
C2052 H2044 0.950 . S
C2052 C2053 1.386 . S
C2052 C2054 1.391 . S
C2053 C2052 1.386 . S
C2053 C2057 1.393 . S
C2054 H2046 0.950 . S
C2054 C2052 1.391 . S
C2054 C2055 1.400 . S
C2055 C2054 1.400 . S
C2055 C2056 1.398 1_545 S
C2055 C2061 1.491 1_545 S
C2056 H2047 0.950 . S
C2056 C2055 1.398 1_565 S
C2056 C2057 1.391 1_565 S
C2057 H2045 0.950 . S
C2057 C2053 1.393 . S
C2057 C2056 1.391 1_545 S
C2058 H2048 0.950 . S
C2058 C2059 1.386 . S
C2058 C2060 1.391 . S
C2059 C2058 1.386 . S
C2059 C2063 1.393 . S
C2060 H2049 0.950 . S
C2060 C2058 1.391 . S
C2060 C2061 1.400 . S
C2061 C2055 1.491 1_565 S
C2061 C2060 1.400 . S
C2061 C2062 1.398 1_565 S
C2062 H2050 0.950 . S
C2062 C2061 1.398 1_545 S
C2062 C2063 1.391 1_545 S
C2063 H2051 0.950 . S
C2063 C2059 1.393 . S
C2063 C2062 1.391 1_565 S
H2064 C2072 0.950 . S
H2065 C2077 0.950 . S
H2066 C2074 0.950 . S
H2067 C2076 0.950 . S
H2068 C2078 0.950 . S
H2069 C2080 0.950 . S
H2070 C2082 0.950 . S
H2071 C2083 0.950 . S
C2072 H2064 0.950 . S
C2072 C2073 1.386 . S
C2072 C2074 1.391 . S
C2073 C2072 1.386 . S
C2073 C2077 1.393 . S
C2074 H2066 0.950 . S
C2074 C2072 1.391 . S
C2074 C2075 1.400 . S
C2075 C2074 1.400 . S
C2075 C2076 1.398 . S
C2075 C2081 1.491 1_655 S
C2076 H2067 0.950 . S
C2076 C2075 1.398 . S
C2076 C2077 1.391 . S
C2077 H2065 0.950 . S
C2077 C2073 1.393 . S
C2077 C2076 1.391 . S
C2078 H2068 0.950 . S
C2078 C2079 1.386 . S
C2078 C2080 1.391 . S
C2079 C2078 1.386 . S
C2079 C2083 1.393 . S
C2080 H2069 0.950 . S
C2080 C2078 1.391 . S
C2080 C2081 1.400 . S
C2081 C2075 1.491 1_455 S
C2081 C2080 1.400 . S
C2081 C2082 1.398 . S
C2082 H2070 0.950 . S
C2082 C2081 1.398 . S
C2082 C2083 1.391 . S
C2083 H2071 0.950 . S
C2083 C2079 1.393 . S
C2083 C2082 1.391 . S
H2084 C2092 0.950 . S
H2085 C2097 0.950 . S
H2086 C2094 0.927 1_565 S
H2087 C2096 0.950 . S
H2088 C2098 0.950 . S
H2089 C2100 0.927 1_545 S
H2090 C2102 0.950 . S
H2091 C2103 0.950 . S
C2092 H2084 0.950 . S
C2092 C2093 1.386 . S
C2092 C2094 1.406 . S
C2093 C2092 1.386 . S
C2093 C2097 1.393 . S
C2094 H2086 0.927 1_545 S
C2094 C2092 1.406 . S
C2094 C2095 1.408 . S
C2095 C2094 1.408 . S
C2095 C2096 1.398 . S
C2095 C2101 1.491 1_545 S
C2096 H2087 0.950 . S
C2096 C2095 1.398 . S
C2096 C2097 1.391 . S
C2097 H2085 0.950 . S
C2097 C2093 1.393 . S
C2097 C2096 1.391 . S
C2098 H2088 0.950 . S
C2098 C2099 1.386 . S
C2098 C2100 1.406 . S
C2099 C2098 1.386 . S
C2099 C2103 1.393 . S
C2100 H2089 0.927 1_565 S
C2100 C2098 1.406 . S
C2100 C2101 1.408 . S
C2101 C2095 1.491 1_565 S
C2101 C2100 1.408 . S
C2101 C2102 1.398 . S
C2102 H2090 0.950 . S
C2102 C2101 1.398 . S
C2102 C2103 1.391 . S
C2103 H2091 0.950 . S
C2103 C2099 1.393 . S
C2103 C2102 1.391 . S
H2104 C2112 0.950 . S
H2105 C2117 0.950 . S
H2106 C2114 0.950 1_455 S
H2107 C2116 0.950 . S
H2108 C2118 0.950 . S
H2109 C2120 0.950 1_655 S
H2110 C2122 0.950 . S
H2111 C2123 0.950 . S
C2112 H2104 0.950 . S
C2112 C2113 1.386 . S
C2112 C2114 1.391 . S
C2113 C2112 1.386 . S
C2113 C2117 1.393 . S
C2114 H2106 0.950 1_655 S
C2114 C2112 1.391 . S
C2114 C2115 1.400 . S
C2115 C2114 1.400 . S
C2115 C2116 1.398 . S
C2115 C2121 1.491 1_655 S
C2116 H2107 0.950 . S
C2116 C2115 1.398 . S
C2116 C2117 1.391 . S
C2117 H2105 0.950 . S
C2117 C2113 1.393 . S
C2117 C2116 1.391 . S
C2118 H2108 0.950 . S
C2118 C2119 1.386 . S
C2118 C2120 1.391 . S
C2119 C2118 1.386 . S
C2119 C2123 1.393 . S
C2120 H2109 0.950 1_455 S
C2120 C2118 1.391 . S
C2120 C2121 1.400 . S
C2121 C2115 1.491 1_455 S
C2121 C2120 1.400 . S
C2121 C2122 1.398 . S
C2122 H2110 0.950 . S
C2122 C2121 1.398 . S
C2122 C2123 1.391 . S
C2123 H2111 0.950 . S
C2123 C2119 1.393 . S
C2123 C2122 1.391 . S
H2124 C2132 0.950 . S
H2125 C2137 0.950 . S
H2126 C2134 0.917 1_545 S
H2127 C2136 0.950 . S
H2128 C2138 0.950 . S
H2129 C2140 0.917 1_565 S
H2130 C2142 0.950 . S
H2131 C2143 0.950 . S
C2132 H2124 0.950 . S
C2132 C2133 1.386 . S
C2132 C2134 1.413 . S
C2133 C2132 1.386 . S
C2133 C2137 1.393 . S
C2134 H2126 0.917 1_565 S
C2134 C2132 1.413 . S
C2134 C2135 1.411 . S
C2135 C2134 1.411 . S
C2135 C2136 1.398 . S
C2135 C2141 1.491 1_565 S
C2136 H2127 0.950 . S
C2136 C2135 1.398 . S
C2136 C2137 1.391 . S
C2137 H2125 0.950 . S
C2137 C2133 1.393 . S
C2137 C2136 1.391 . S
C2138 H2128 0.950 . S
C2138 C2139 1.386 . S
C2138 C2140 1.413 . S
C2139 C2138 1.386 . S
C2139 C2143 1.393 . S
C2140 H2129 0.917 1_545 S
C2140 C2138 1.413 . S
C2140 C2141 1.411 . S
C2141 C2135 1.491 1_545 S
C2141 C2140 1.411 . S
C2141 C2142 1.398 . S
C2142 H2130 0.950 . S
C2142 C2141 1.398 . S
C2142 C2143 1.391 . S
C2143 H2131 0.950 . S
C2143 C2139 1.393 . S
C2143 C2142 1.391 . S
H2144 C2152 0.950 . S
H2145 C2157 0.950 . S
H2146 C2154 0.950 . S
H2147 C2156 0.950 . S
H2148 C2158 0.950 . S
H2149 C2160 0.950 . S
H2150 C2162 0.950 . S
H2151 C2163 0.950 . S
C2152 H2144 0.950 . S
C2152 C2153 1.386 . S
C2152 C2154 1.391 . S
C2153 C2152 1.386 . S
C2153 C2157 1.393 . S
C2154 H2146 0.950 . S
C2154 C2152 1.391 . S
C2154 C2155 1.400 . S
C2155 C2154 1.400 . S
C2155 C2156 1.398 . S
C2155 C2161 1.491 . S
C2156 H2147 0.950 . S
C2156 C2155 1.398 . S
C2156 C2157 1.391 . S
C2157 H2145 0.950 . S
C2157 C2153 1.393 . S
C2157 C2156 1.391 . S
C2158 H2148 0.950 . S
C2158 C2159 1.386 . S
C2158 C2160 1.391 . S
C2159 C2158 1.386 . S
C2159 C2163 1.393 . S
C2160 H2149 0.950 . S
C2160 C2158 1.391 . S
C2160 C2161 1.400 . S
C2161 C2155 1.491 . S
C2161 C2160 1.400 . S
C2161 C2162 1.398 . S
C2162 H2150 0.950 . S
C2162 C2161 1.398 . S
C2162 C2163 1.391 . S
C2163 H2151 0.950 . S
C2163 C2159 1.393 . S
C2163 C2162 1.391 . S
H2164 C2172 0.950 . S
H2165 C2177 0.950 . S
H2166 C2174 0.950 . S
H2167 C2176 0.950 . S
H2168 C2178 0.950 . S
H2169 C2180 0.950 . S
H2170 C2182 0.950 . S
H2171 C2183 0.950 . S
C2172 H2164 0.950 . S
C2172 C2173 1.386 . S
C2172 C2174 1.391 . S
C2173 C2172 1.386 . S
C2173 C2177 1.393 . S
C2174 H2166 0.950 . S
C2174 C2172 1.391 . S
C2174 C2175 1.400 . S
C2175 C2174 1.400 . S
C2175 C2176 1.398 . S
C2175 C2181 1.491 . S
C2176 H2167 0.950 . S
C2176 C2175 1.398 . S
C2176 C2177 1.391 . S
C2177 H2165 0.950 . S
C2177 C2173 1.393 . S
C2177 C2176 1.391 . S
C2178 H2168 0.950 . S
C2178 C2179 1.386 . S
C2178 C2180 1.391 . S
C2179 C2178 1.386 . S
C2179 C2183 1.393 . S
C2180 H2169 0.950 . S
C2180 C2178 1.391 . S
C2180 C2181 1.400 . S
C2181 C2175 1.491 . S
C2181 C2180 1.400 . S
C2181 C2182 1.398 . S
C2182 H2170 0.950 . S
C2182 C2181 1.398 . S
C2182 C2183 1.391 . S
C2183 H2171 0.950 . S
C2183 C2179 1.393 . S
C2183 C2182 1.391 . S
H2184 C2192 0.950 . S
H2185 C2197 0.950 . S
H2186 C2194 0.950 . S
H2187 C2196 0.950 . S
H2188 C2198 0.950 . S
H2189 C2200 0.950 . S
H2190 C2202 0.950 . S
H2191 C2203 0.950 . S
C2192 H2184 0.950 . S
C2192 C2193 1.386 . S
C2192 C2194 1.391 . S
C2193 C2192 1.386 . S
C2193 C2197 1.393 . S
C2194 H2186 0.950 . S
C2194 C2192 1.391 . S
C2194 C2195 1.400 . S
C2195 C2194 1.400 . S
C2195 C2196 1.398 . S
C2195 C2201 1.491 . S
C2196 H2187 0.950 . S
C2196 C2195 1.398 . S
C2196 C2197 1.391 . S
C2197 H2185 0.950 . S
C2197 C2193 1.393 . S
C2197 C2196 1.391 . S
C2198 H2188 0.950 . S
C2198 C2199 1.386 . S
C2198 C2200 1.391 . S
C2199 C2198 1.386 . S
C2199 C2203 1.393 . S
C2200 H2189 0.950 . S
C2200 C2198 1.391 . S
C2200 C2201 1.400 . S
C2201 C2195 1.491 . S
C2201 C2200 1.400 . S
C2201 C2202 1.398 . S
C2202 H2190 0.950 . S
C2202 C2201 1.398 . S
C2202 C2203 1.391 . S
C2203 H2191 0.950 . S
C2203 C2199 1.393 . S
C2203 C2202 1.391 . S
H2204 C2212 0.950 . S
H2205 C2217 0.950 . S
H2206 C2214 0.950 . S
H2207 C2216 0.950 . S
H2208 C2218 0.950 . S
H2209 C2220 0.950 . S
H2210 C2222 0.950 . S
H2211 C2223 0.950 . S
C2212 H2204 0.950 . S
C2212 C2213 1.386 . S
C2212 C2214 1.391 . S
C2213 C2212 1.386 . S
C2213 C2217 1.393 . S
C2214 H2206 0.950 . S
C2214 C2212 1.391 . S
C2214 C2215 1.400 . S
C2215 C2214 1.400 . S
C2215 C2216 1.398 . S
C2215 C2221 1.491 . S
C2216 H2207 0.950 . S
C2216 C2215 1.398 . S
C2216 C2217 1.391 . S
C2217 H2205 0.950 . S
C2217 C2213 1.393 . S
C2217 C2216 1.391 . S
C2218 H2208 0.950 . S
C2218 C2219 1.386 . S
C2218 C2220 1.391 . S
C2219 C2218 1.386 . S
C2219 C2223 1.393 . S
C2220 H2209 0.950 . S
C2220 C2218 1.391 . S
C2220 C2221 1.400 . S
C2221 C2215 1.491 . S
C2221 C2220 1.400 . S
C2221 C2222 1.398 . S
C2222 H2210 0.950 . S
C2222 C2221 1.398 . S
C2222 C2223 1.391 . S
C2223 H2211 0.950 . S
C2223 C2219 1.393 . S
C2223 C2222 1.391 . S
H2224 C2232 0.950 . S
H2225 C2237 0.950 . S
H2226 C2234 0.950 . S
H2227 C2236 0.950 . S
H2228 C2238 0.950 . S
H2229 C2240 0.950 . S
H2230 C2242 0.950 . S
H2231 C2243 0.950 . S
C2232 H2224 0.950 . S
C2232 C2233 1.386 . S
C2232 C2234 1.391 . S
C2233 C2232 1.386 . S
C2233 C2237 1.393 . S
C2234 H2226 0.950 . S
C2234 C2232 1.391 . S
C2234 C2235 1.400 . S
C2235 C2234 1.400 . S
C2235 C2236 1.398 . S
C2235 C2241 1.491 . S
C2236 H2227 0.950 . S
C2236 C2235 1.398 . S
C2236 C2237 1.391 . S
C2237 H2225 0.950 . S
C2237 C2233 1.393 . S
C2237 C2236 1.391 . S
C2238 H2228 0.950 . S
C2238 C2239 1.386 . S
C2238 C2240 1.391 . S
C2239 C2238 1.386 . S
C2239 C2243 1.393 . S
C2240 H2229 0.950 . S
C2240 C2238 1.391 . S
C2240 C2241 1.400 . S
C2241 C2235 1.491 . S
C2241 C2240 1.400 . S
C2241 C2242 1.398 . S
C2242 H2230 0.950 . S
C2242 C2241 1.398 . S
C2242 C2243 1.391 . S
C2243 H2231 0.950 . S
C2243 C2239 1.393 . S
C2243 C2242 1.391 . S
H2244 C2252 0.950 . S
H2245 C2257 0.950 . S
H2246 C2254 0.950 . S
H2247 C2256 0.950 . S
H2248 C2258 0.950 . S
H2249 C2260 0.950 . S
H2250 C2262 0.950 . S
H2251 C2263 0.950 . S
C2252 H2244 0.950 . S
C2252 C2253 1.386 . S
C2252 C2254 1.391 . S
C2253 C2252 1.386 . S
C2253 C2257 1.393 . S
C2254 H2246 0.950 . S
C2254 C2252 1.391 . S
C2254 C2255 1.400 . S
C2255 C2254 1.400 . S
C2255 C2256 1.398 . S
C2255 C2261 1.491 . S
C2256 H2247 0.950 . S
C2256 C2255 1.398 . S
C2256 C2257 1.391 . S
C2257 H2245 0.950 . S
C2257 C2253 1.393 . S
C2257 C2256 1.391 . S
C2258 H2248 0.950 . S
C2258 C2259 1.386 . S
C2258 C2260 1.391 . S
C2259 C2258 1.386 . S
C2259 C2263 1.393 . S
C2260 H2249 0.950 . S
C2260 C2258 1.391 . S
C2260 C2261 1.400 . S
C2261 C2255 1.491 . S
C2261 C2260 1.400 . S
C2261 C2262 1.398 . S
C2262 H2250 0.950 . S
C2262 C2261 1.398 . S
C2262 C2263 1.391 . S
C2263 H2251 0.950 . S
C2263 C2259 1.393 . S
C2263 C2262 1.391 . S
H2264 C2272 0.950 . S
H2265 C2277 0.950 . S
H2266 C2274 0.950 . S
H2267 C2276 0.950 . S
H2268 C2278 0.950 . S
H2269 C2280 0.950 . S
H2270 C2282 0.950 . S
H2271 C2283 0.950 . S
C2272 H2264 0.950 . S
C2272 C2273 1.386 . S
C2272 C2274 1.391 . S
C2273 C2272 1.386 . S
C2273 C2277 1.393 . S
C2274 H2266 0.950 . S
C2274 C2272 1.391 . S
C2274 C2275 1.400 . S
C2275 C2274 1.400 . S
C2275 C2276 1.398 . S
C2275 C2281 1.491 . S
C2276 H2267 0.950 . S
C2276 C2275 1.398 . S
C2276 C2277 1.391 . S
C2277 H2265 0.950 . S
C2277 C2273 1.393 . S
C2277 C2276 1.391 . S
C2278 H2268 0.950 . S
C2278 C2279 1.386 . S
C2278 C2280 1.391 . S
C2279 C2278 1.386 . S
C2279 C2283 1.393 . S
C2280 H2269 0.950 . S
C2280 C2278 1.391 . S
C2280 C2281 1.400 . S
C2281 C2275 1.491 . S
C2281 C2280 1.400 . S
C2281 C2282 1.398 . S
C2282 H2270 0.950 . S
C2282 C2281 1.398 . S
C2282 C2283 1.391 . S
C2283 H2271 0.950 . S
C2283 C2279 1.393 . S
C2283 C2282 1.391 . S
H2284 C2292 0.950 . S
H2285 C2297 0.950 . S
H2286 C2294 0.950 . S
H2287 C2296 0.950 . S
H2288 C2298 0.950 . S
H2289 C2300 0.950 . S
H2290 C2302 0.950 . S
H2291 C2303 0.950 . S
C2292 H2284 0.950 . S
C2292 C2293 1.386 . S
C2292 C2294 1.391 . S
C2293 C2292 1.386 . S
C2293 C2297 1.393 . S
C2294 H2286 0.950 . S
C2294 C2292 1.391 . S
C2294 C2295 1.400 . S
C2295 C2294 1.400 . S
C2295 C2296 1.398 . S
C2295 C2301 1.491 . S
C2296 H2287 0.950 . S
C2296 C2295 1.398 . S
C2296 C2297 1.391 . S
C2297 H2285 0.950 . S
C2297 C2293 1.393 . S
C2297 C2296 1.391 . S
C2298 H2288 0.950 . S
C2298 C2299 1.386 . S
C2298 C2300 1.391 . S
C2299 C2298 1.386 . S
C2299 C2303 1.393 . S
C2300 H2289 0.950 . S
C2300 C2298 1.391 . S
C2300 C2301 1.400 . S
C2301 C2295 1.491 . S
C2301 C2300 1.400 . S
C2301 C2302 1.398 . S
C2302 H2290 0.950 . S
C2302 C2301 1.398 . S
C2302 C2303 1.391 . S
C2303 H2291 0.950 . S
C2303 C2299 1.393 . S
C2303 C2302 1.391 . S
H2304 C2312 0.950 . S
H2305 C2317 0.950 . S
H2306 C2314 0.950 . S
H2307 C2316 0.950 . S
H2308 C2318 0.950 . S
H2309 C2320 0.950 . S
H2310 C2322 0.950 . S
H2311 C2323 0.950 . S
C2312 H2304 0.950 . S
C2312 C2313 1.386 . S
C2312 C2314 1.391 . S
C2313 C2312 1.386 . S
C2313 C2317 1.393 . S
C2314 H2306 0.950 . S
C2314 C2312 1.391 . S
C2314 C2315 1.400 . S
C2315 C2314 1.400 . S
C2315 C2316 1.398 . S
C2315 C2321 1.491 1_556 S
C2316 H2307 0.950 . S
C2316 C2315 1.398 . S
C2316 C2317 1.391 . S
C2317 H2305 0.950 . S
C2317 C2313 1.393 . S
C2317 C2316 1.391 . S
C2318 H2308 0.950 . S
C2318 C2319 1.386 . S
C2318 C2320 1.391 . S
C2319 C2318 1.386 . S
C2319 C2323 1.393 . S
C2320 H2309 0.950 . S
C2320 C2318 1.391 . S
C2320 C2321 1.400 . S
C2321 C2315 1.491 1_554 S
C2321 C2320 1.400 . S
C2321 C2322 1.398 . S
C2322 H2310 0.950 . S
C2322 C2321 1.398 . S
C2322 C2323 1.391 . S
C2323 H2311 0.950 . S
C2323 C2319 1.393 . S
C2323 C2322 1.391 . S
H2324 C2332 0.950 . S
H2325 C2337 0.950 . S
H2326 C2334 0.950 . S
H2327 C2336 0.950 . S
H2328 C2338 0.950 . S
H2329 C2340 0.950 . S
H2330 C2342 0.950 . S
H2331 C2343 0.950 . S
C2332 H2324 0.950 . S
C2332 C2333 1.386 . S
C2332 C2334 1.391 . S
C2333 C2332 1.386 . S
C2333 C2337 1.393 . S
C2334 H2326 0.950 . S
C2334 C2332 1.391 . S
C2334 C2335 1.400 . S
C2335 C2334 1.400 . S
C2335 C2336 1.398 . S
C2335 C2341 1.491 1_554 S
C2336 H2327 0.950 . S
C2336 C2335 1.398 . S
C2336 C2337 1.391 . S
C2337 H2325 0.950 . S
C2337 C2333 1.393 . S
C2337 C2336 1.391 . S
C2338 H2328 0.950 . S
C2338 C2339 1.386 . S
C2338 C2340 1.391 . S
C2339 C2338 1.386 . S
C2339 C2343 1.393 . S
C2340 H2329 0.950 . S
C2340 C2338 1.391 . S
C2340 C2341 1.400 . S
C2341 C2335 1.491 1_556 S
C2341 C2340 1.400 . S
C2341 C2342 1.398 . S
C2342 H2330 0.950 . S
C2342 C2341 1.398 . S
C2342 C2343 1.391 . S
C2343 H2331 0.950 . S
C2343 C2339 1.393 . S
C2343 C2342 1.391 . S
H2344 C2352 0.950 . S
H2345 C2357 0.950 . S
H2346 C2354 0.950 . S
H2347 C2356 0.950 . S
H2348 C2358 0.950 . S
H2349 C2360 0.950 . S
H2350 C2362 0.950 . S
H2351 C2363 0.950 . S
C2352 H2344 0.950 . S
C2352 C2353 1.386 . S
C2352 C2354 1.391 . S
C2353 C2352 1.386 . S
C2353 C2357 1.393 . S
C2354 H2346 0.950 . S
C2354 C2352 1.391 . S
C2354 C2355 1.400 . S
C2355 C2354 1.400 . S
C2355 C2356 1.398 . S
C2355 C2361 1.491 1_556 S
C2356 H2347 0.950 . S
C2356 C2355 1.398 . S
C2356 C2357 1.391 . S
C2357 H2345 0.950 . S
C2357 C2353 1.393 . S
C2357 C2356 1.391 . S
C2358 H2348 0.950 . S
C2358 C2359 1.386 . S
C2358 C2360 1.391 . S
C2359 C2358 1.386 . S
C2359 C2363 1.393 . S
C2360 H2349 0.950 . S
C2360 C2358 1.391 . S
C2360 C2361 1.400 . S
C2361 C2355 1.491 1_554 S
C2361 C2360 1.400 . S
C2361 C2362 1.398 . S
C2362 H2350 0.950 . S
C2362 C2361 1.398 . S
C2362 C2363 1.391 . S
C2363 H2351 0.950 . S
C2363 C2359 1.393 . S
C2363 C2362 1.391 . S
H2364 C2372 0.950 . S
H2365 C2377 0.950 . S
H2366 C2374 0.950 . S
H2367 C2376 0.950 . S
H2368 C2378 0.950 . S
H2369 C2380 0.950 . S
H2370 C2382 0.950 . S
H2371 C2383 0.950 . S
C2372 H2364 0.950 . S
C2372 C2373 1.386 . S
C2372 C2374 1.391 . S
C2373 C2372 1.386 . S
C2373 C2377 1.393 . S
C2374 H2366 0.950 . S
C2374 C2372 1.391 . S
C2374 C2375 1.400 . S
C2375 C2374 1.400 . S
C2375 C2376 1.398 . S
C2375 C2381 1.491 1_556 S
C2376 H2367 0.950 . S
C2376 C2375 1.398 . S
C2376 C2377 1.391 . S
C2377 H2365 0.950 . S
C2377 C2373 1.393 . S
C2377 C2376 1.391 . S
C2378 H2368 0.950 . S
C2378 C2379 1.386 . S
C2378 C2380 1.391 . S
C2379 C2378 1.386 . S
C2379 C2383 1.393 . S
C2380 H2369 0.950 . S
C2380 C2378 1.391 . S
C2380 C2381 1.400 . S
C2381 C2375 1.491 1_554 S
C2381 C2380 1.400 . S
C2381 C2382 1.398 . S
C2382 H2370 0.950 . S
C2382 C2381 1.398 . S
C2382 C2383 1.391 . S
C2383 H2371 0.950 . S
C2383 C2379 1.393 . S
C2383 C2382 1.391 . S
H2384 C2392 0.950 . S
H2385 C2397 0.950 . S
H2386 C2394 0.950 . S
H2387 C2396 0.950 . S
H2388 C2398 0.950 . S
H2389 C2400 0.950 . S
H2390 C2402 0.950 . S
H2391 C2403 0.950 . S
C2392 H2384 0.950 . S
C2392 C2393 1.386 . S
C2392 C2394 1.391 . S
C2393 C2392 1.386 . S
C2393 C2397 1.393 . S
C2394 H2386 0.950 . S
C2394 C2392 1.391 . S
C2394 C2395 1.400 . S
C2395 C2394 1.400 . S
C2395 C2396 1.398 . S
C2395 C2401 1.491 . S
C2396 H2387 0.950 . S
C2396 C2395 1.398 . S
C2396 C2397 1.391 . S
C2397 H2385 0.950 . S
C2397 C2393 1.393 . S
C2397 C2396 1.391 . S
C2398 H2388 0.950 . S
C2398 C2399 1.386 . S
C2398 C2400 1.391 . S
C2399 C2398 1.386 . S
C2399 C2403 1.393 . S
C2400 H2389 0.950 . S
C2400 C2398 1.391 . S
C2400 C2401 1.400 . S
C2401 C2395 1.491 . S
C2401 C2400 1.400 . S
C2401 C2402 1.398 . S
C2402 H2390 0.950 . S
C2402 C2401 1.398 . S
C2402 C2403 1.391 . S
C2403 H2391 0.950 . S
C2403 C2399 1.393 . S
C2403 C2402 1.391 . S
H2404 C2412 0.950 . S
H2405 C2417 0.950 . S
H2406 C2414 0.950 . S
H2407 C2416 0.950 . S
H2408 C2418 0.950 . S
H2409 C2420 0.950 . S
H2410 C2422 0.950 . S
H2411 C2423 0.950 . S
C2412 H2404 0.950 . S
C2412 C2413 1.386 . S
C2412 C2414 1.391 . S
C2413 C2412 1.386 . S
C2413 C2417 1.393 . S
C2414 H2406 0.950 . S
C2414 C2412 1.391 . S
C2414 C2415 1.400 . S
C2415 C2414 1.400 . S
C2415 C2416 1.398 . S
C2415 C2421 1.491 . S
C2416 H2407 0.950 . S
C2416 C2415 1.398 . S
C2416 C2417 1.391 . S
C2417 H2405 0.950 . S
C2417 C2413 1.393 . S
C2417 C2416 1.391 . S
C2418 H2408 0.950 . S
C2418 C2419 1.386 . S
C2418 C2420 1.391 . S
C2419 C2418 1.386 . S
C2419 C2423 1.393 . S
C2420 H2409 0.950 . S
C2420 C2418 1.391 . S
C2420 C2421 1.400 . S
C2421 C2415 1.491 . S
C2421 C2420 1.400 . S
C2421 C2422 1.398 . S
C2422 H2410 0.950 . S
C2422 C2421 1.398 . S
C2422 C2423 1.391 . S
C2423 H2411 0.950 . S
C2423 C2419 1.393 . S
C2423 C2422 1.391 . S
H2424 C2432 0.950 . S
H2425 C2437 0.950 . S
H2426 C2434 0.950 . S
H2427 C2436 0.950 . S
H2428 C2438 0.950 . S
H2429 C2440 0.950 . S
H2430 C2442 0.950 . S
H2431 C2443 0.950 . S
C2432 H2424 0.950 . S
C2432 C2433 1.386 . S
C2432 C2434 1.391 . S
C2433 C2432 1.386 . S
C2433 C2437 1.393 . S
C2434 H2426 0.950 . S
C2434 C2432 1.391 . S
C2434 C2435 1.400 . S
C2435 C2434 1.400 . S
C2435 C2436 1.398 . S
C2435 C2441 1.491 . S
C2436 H2427 0.950 . S
C2436 C2435 1.398 . S
C2436 C2437 1.391 . S
C2437 H2425 0.950 . S
C2437 C2433 1.393 . S
C2437 C2436 1.391 . S
C2438 H2428 0.950 . S
C2438 C2439 1.386 . S
C2438 C2440 1.391 . S
C2439 C2438 1.386 . S
C2439 C2443 1.393 . S
C2440 H2429 0.950 . S
C2440 C2438 1.391 . S
C2440 C2441 1.400 . S
C2441 C2435 1.491 . S
C2441 C2440 1.400 . S
C2441 C2442 1.398 . S
C2442 H2430 0.950 . S
C2442 C2441 1.398 . S
C2442 C2443 1.391 . S
C2443 H2431 0.950 . S
C2443 C2439 1.393 . S
C2443 C2442 1.391 . S
H2444 C2452 0.950 . S
H2445 C2457 0.950 . S
H2446 C2454 0.950 . S
H2447 C2456 0.950 . S
H2448 C2458 0.950 . S
H2449 C2460 0.950 . S
H2450 C2462 0.950 . S
H2451 C2463 0.950 . S
C2452 H2444 0.950 . S
C2452 C2453 1.386 . S
C2452 C2454 1.391 . S
C2453 C2452 1.386 . S
C2453 C2457 1.393 . S
C2454 H2446 0.950 . S
C2454 C2452 1.391 . S
C2454 C2455 1.400 . S
C2455 C2454 1.400 . S
C2455 C2456 1.398 . S
C2455 C2461 1.491 . S
C2456 H2447 0.950 . S
C2456 C2455 1.398 . S
C2456 C2457 1.391 . S
C2457 H2445 0.950 . S
C2457 C2453 1.393 . S
C2457 C2456 1.391 . S
C2458 H2448 0.950 . S
C2458 C2459 1.386 . S
C2458 C2460 1.391 . S
C2459 C2458 1.386 . S
C2459 C2463 1.393 . S
C2460 H2449 0.950 . S
C2460 C2458 1.391 . S
C2460 C2461 1.400 . S
C2461 C2455 1.491 . S
C2461 C2460 1.400 . S
C2461 C2462 1.398 . S
C2462 H2450 0.950 . S
C2462 C2461 1.398 . S
C2462 C2463 1.391 . S
C2463 H2451 0.950 . S
C2463 C2459 1.393 . S
C2463 C2462 1.391 . S
H2464 C2472 0.950 . S
H2465 C2477 0.950 . S
H2466 C2474 0.950 . S
H2467 C2476 0.950 . S
H2468 C2478 0.950 . S
H2469 C2480 0.950 . S
H2470 C2482 0.950 . S
H2471 C2483 0.950 . S
C2472 H2464 0.950 . S
C2472 C2473 1.386 . S
C2472 C2474 1.391 . S
C2473 C2472 1.386 . S
C2473 C2477 1.393 . S
C2474 H2466 0.950 . S
C2474 C2472 1.391 . S
C2474 C2475 1.400 . S
C2475 C2474 1.400 . S
C2475 C2476 1.398 . S
C2475 C2481 1.491 . S
C2476 H2467 0.950 . S
C2476 C2475 1.398 . S
C2476 C2477 1.391 . S
C2477 H2465 0.950 . S
C2477 C2473 1.393 . S
C2477 C2476 1.391 . S
C2478 H2468 0.950 . S
C2478 C2479 1.386 . S
C2478 C2480 1.391 . S
C2479 C2478 1.386 . S
C2479 C2483 1.393 . S
C2480 H2469 0.950 . S
C2480 C2478 1.391 . S
C2480 C2481 1.400 . S
C2481 C2475 1.491 . S
C2481 C2480 1.400 . S
C2481 C2482 1.398 . S
C2482 H2470 0.950 . S
C2482 C2481 1.398 . S
C2482 C2483 1.391 . S
C2483 H2471 0.950 . S
C2483 C2479 1.393 . S
C2483 C2482 1.391 . S
H2484 C2492 0.950 . S
H2485 C2497 0.950 . S
H2486 C2494 0.950 . S
H2487 C2496 0.950 . S
H2488 C2498 0.950 . S
H2489 C2500 0.950 . S
H2490 C2502 0.950 . S
H2491 C2503 0.950 . S
C2492 H2484 0.950 . S
C2492 C2493 1.386 . S
C2492 C2494 1.391 . S
C2493 C2492 1.386 . S
C2493 C2497 1.393 . S
C2494 H2486 0.950 . S
C2494 C2492 1.391 . S
C2494 C2495 1.400 . S
C2495 C2494 1.400 . S
C2495 C2496 1.398 . S
C2495 C2501 1.491 . S
C2496 H2487 0.950 . S
C2496 C2495 1.398 . S
C2496 C2497 1.391 . S
C2497 H2485 0.950 . S
C2497 C2493 1.393 . S
C2497 C2496 1.391 . S
C2498 H2488 0.950 . S
C2498 C2499 1.386 . S
C2498 C2500 1.391 . S
C2499 C2498 1.386 . S
C2499 C2503 1.393 . S
C2500 H2489 0.950 . S
C2500 C2498 1.391 . S
C2500 C2501 1.400 . S
C2501 C2495 1.491 . S
C2501 C2500 1.400 . S
C2501 C2502 1.398 . S
C2502 H2490 0.950 . S
C2502 C2501 1.398 . S
C2502 C2503 1.391 . S
C2503 H2491 0.950 . S
C2503 C2499 1.393 . S
C2503 C2502 1.391 . S
H2504 C2512 0.950 . S
H2505 C2517 0.950 . S
H2506 C2514 0.950 . S
H2507 C2516 0.950 . S
H2508 C2518 0.950 . S
H2509 C2520 0.950 . S
H2510 C2522 0.950 . S
H2511 C2523 0.950 . S
C2512 H2504 0.950 . S
C2512 C2513 1.386 . S
C2512 C2514 1.391 . S
C2513 C2512 1.386 . S
C2513 C2517 1.393 . S
C2514 H2506 0.950 . S
C2514 C2512 1.391 . S
C2514 C2515 1.400 . S
C2515 C2514 1.400 . S
C2515 C2516 1.398 . S
C2515 C2521 1.491 . S
C2516 H2507 0.950 . S
C2516 C2515 1.398 . S
C2516 C2517 1.391 . S
C2517 H2505 0.950 . S
C2517 C2513 1.393 . S
C2517 C2516 1.391 . S
C2518 H2508 0.950 . S
C2518 C2519 1.386 . S
C2518 C2520 1.391 . S
C2519 C2518 1.386 . S
C2519 C2523 1.393 . S
C2520 H2509 0.950 . S
C2520 C2518 1.391 . S
C2520 C2521 1.400 . S
C2521 C2515 1.491 . S
C2521 C2520 1.400 . S
C2521 C2522 1.398 . S
C2522 H2510 0.950 . S
C2522 C2521 1.398 . S
C2522 C2523 1.391 . S
C2523 H2511 0.950 . S
C2523 C2519 1.393 . S
C2523 C2522 1.391 . S
H2524 C2532 0.950 . S
H2525 C2537 0.950 . S
H2526 C2534 0.950 . S
H2527 C2536 0.950 . S
H2528 C2538 0.950 . S
H2529 C2540 0.950 . S
H2530 C2542 0.950 . S
H2531 C2543 0.950 . S
C2532 H2524 0.950 . S
C2532 C2533 1.386 . S
C2532 C2534 1.391 . S
C2533 C2532 1.386 . S
C2533 C2537 1.393 . S
C2534 H2526 0.950 . S
C2534 C2532 1.391 . S
C2534 C2535 1.400 . S
C2535 C2534 1.400 . S
C2535 C2536 1.398 . S
C2535 C2541 1.491 . S
C2536 H2527 0.950 . S
C2536 C2535 1.398 . S
C2536 C2537 1.391 . S
C2537 H2525 0.950 . S
C2537 C2533 1.393 . S
C2537 C2536 1.391 . S
C2538 H2528 0.950 . S
C2538 C2539 1.386 . S
C2538 C2540 1.391 . S
C2539 C2538 1.386 . S
C2539 C2543 1.393 . S
C2540 H2529 0.950 . S
C2540 C2538 1.391 . S
C2540 C2541 1.400 . S
C2541 C2535 1.491 . S
C2541 C2540 1.400 . S
C2541 C2542 1.398 . S
C2542 H2530 0.950 . S
C2542 C2541 1.398 . S
C2542 C2543 1.391 . S
C2543 H2531 0.950 . S
C2543 C2539 1.393 . S
C2543 C2542 1.391 . S
H2544 C2552 0.950 . S
H2545 C2557 0.950 . S
H2546 C2554 0.950 . S
H2547 C2556 0.950 . S
H2548 C2558 0.950 . S
H2549 C2560 0.950 . S
H2550 C2562 0.950 . S
H2551 C2563 0.950 . S
C2552 H2544 0.950 . S
C2552 C2553 1.386 . S
C2552 C2554 1.391 . S
C2553 C2552 1.386 . S
C2553 C2557 1.393 . S
C2554 H2546 0.950 . S
C2554 C2552 1.391 . S
C2554 C2555 1.400 . S
C2555 C2554 1.400 . S
C2555 C2556 1.398 . S
C2555 C2561 1.491 1_554 S
C2556 H2547 0.950 . S
C2556 C2555 1.398 . S
C2556 C2557 1.391 . S
C2557 H2545 0.950 . S
C2557 C2553 1.393 . S
C2557 C2556 1.391 . S
C2558 H2548 0.950 . S
C2558 C2559 1.386 . S
C2558 C2560 1.391 . S
C2559 C2558 1.386 . S
C2559 C2563 1.393 . S
C2560 H2549 0.950 . S
C2560 C2558 1.391 . S
C2560 C2561 1.400 . S
C2561 C2555 1.491 1_556 S
C2561 C2560 1.400 . S
C2561 C2562 1.398 . S
C2562 H2550 0.950 . S
C2562 C2561 1.398 . S
C2562 C2563 1.391 . S
C2563 H2551 0.950 . S
C2563 C2559 1.393 . S
C2563 C2562 1.391 . S
H2564 C2572 0.950 . S
H2565 C2577 0.950 . S
H2566 C2574 0.950 . S
H2567 C2576 0.950 . S
H2568 C2578 0.950 . S
H2569 C2580 0.950 . S
H2570 C2582 0.950 . S
H2571 C2583 0.950 . S
C2572 H2564 0.950 . S
C2572 C2573 1.386 . S
C2572 C2574 1.391 . S
C2573 C2572 1.386 . S
C2573 C2577 1.393 . S
C2574 H2566 0.950 . S
C2574 C2572 1.391 . S
C2574 C2575 1.400 . S
C2575 C2574 1.400 . S
C2575 C2576 1.398 . S
C2575 C2581 1.491 1_556 S
C2576 H2567 0.950 . S
C2576 C2575 1.398 . S
C2576 C2577 1.391 . S
C2577 H2565 0.950 . S
C2577 C2573 1.393 . S
C2577 C2576 1.391 . S
C2578 H2568 0.950 . S
C2578 C2579 1.386 . S
C2578 C2580 1.391 . S
C2579 C2578 1.386 . S
C2579 C2583 1.393 . S
C2580 H2569 0.950 . S
C2580 C2578 1.391 . S
C2580 C2581 1.400 . S
C2581 C2575 1.491 1_554 S
C2581 C2580 1.400 . S
C2581 C2582 1.398 . S
C2582 H2570 0.950 . S
C2582 C2581 1.398 . S
C2582 C2583 1.391 . S
C2583 H2571 0.950 . S
C2583 C2579 1.393 . S
C2583 C2582 1.391 . S
H2584 C2592 0.950 . S
H2585 C2597 0.950 . S
H2586 C2594 0.950 . S
H2587 C2596 0.950 . S
H2588 C2598 0.950 . S
H2589 C2600 0.950 . S
H2590 C2602 0.950 . S
H2591 C2603 0.950 . S
C2592 H2584 0.950 . S
C2592 C2593 1.386 . S
C2592 C2594 1.391 . S
C2593 C2592 1.386 . S
C2593 C2597 1.393 . S
C2594 H2586 0.950 . S
C2594 C2592 1.391 . S
C2594 C2595 1.400 . S
C2595 C2594 1.400 . S
C2595 C2596 1.398 . S
C2595 C2601 1.491 1_556 S
C2596 H2587 0.950 . S
C2596 C2595 1.398 . S
C2596 C2597 1.391 . S
C2597 H2585 0.950 . S
C2597 C2593 1.393 . S
C2597 C2596 1.391 . S
C2598 H2588 0.950 . S
C2598 C2599 1.386 . S
C2598 C2600 1.391 . S
C2599 C2598 1.386 . S
C2599 C2603 1.393 . S
C2600 H2589 0.950 . S
C2600 C2598 1.391 . S
C2600 C2601 1.400 . S
C2601 C2595 1.491 1_554 S
C2601 C2600 1.400 . S
C2601 C2602 1.398 . S
C2602 H2590 0.950 . S
C2602 C2601 1.398 . S
C2602 C2603 1.391 . S
C2603 H2591 0.950 . S
C2603 C2599 1.393 . S
C2603 C2602 1.391 . S
H2604 C2612 0.950 . S
H2605 C2617 0.950 . S
H2606 C2614 0.950 . S
H2607 C2616 0.950 . S
H2608 C2618 0.950 . S
H2609 C2620 0.950 . S
H2610 C2622 0.950 . S
H2611 C2623 0.950 . S
C2612 H2604 0.950 . S
C2612 C2613 1.386 . S
C2612 C2614 1.391 . S
C2613 C2612 1.386 . S
C2613 C2617 1.393 . S
C2614 H2606 0.950 . S
C2614 C2612 1.391 . S
C2614 C2615 1.400 . S
C2615 C2614 1.400 . S
C2615 C2616 1.398 . S
C2615 C2621 1.491 1_554 S
C2616 H2607 0.950 . S
C2616 C2615 1.398 . S
C2616 C2617 1.391 . S
C2617 H2605 0.950 . S
C2617 C2613 1.393 . S
C2617 C2616 1.391 . S
C2618 H2608 0.950 . S
C2618 C2619 1.386 . S
C2618 C2620 1.391 . S
C2619 C2618 1.386 . S
C2619 C2623 1.393 . S
C2620 H2609 0.950 . S
C2620 C2618 1.391 . S
C2620 C2621 1.400 . S
C2621 C2615 1.491 1_556 S
C2621 C2620 1.400 . S
C2621 C2622 1.398 . S
C2622 H2610 0.950 . S
C2622 C2621 1.398 . S
C2622 C2623 1.391 . S
C2623 H2611 0.950 . S
C2623 C2619 1.393 . S
C2623 C2622 1.391 . S
C713 C117 1.001 . S
C719 C7 1.022 . S
C733 C139 0.993 . S
C739 C29 1.025 . S
C753 C65 0.999 . S
C759 C169 1.024 . S
C773 C103 1.020 . S
C779 C73 1.003 . S
C793 C191 0.996 . S
C799 C307 1.018 . S
C813 C329 0.994 . S
C819 C205 1.025 . S
C833 C345 0.998 . S
C839 C235 1.024 . S
C853 C257 1.022 . S
C859 C285 0.993 . S
C873 C359 1.005 . S
C879 C469 1.019 . S
C893 C491 1.018 . S
C899 C381 1.006 . S
C913 C417 0.995 . S
C919 C521 1.025 . S
C933 C439 1.025 . S
C939 C455 0.993 . S
C953 C653 1.012 . S
C959 C535 1.000 . S
C973 C675 1.024 . S
C979 C557 0.998 . S
C993 C703 1.009 . S
C999 C593 1.003 . S
C1013 C601 1.015 . S
C1019 C631 0.998 . S
C1033 C659 1.190 . S
C1039 C15 1.166 . S
C1053 C681 1.166 . S
C1059 C37 1.190 . S
C1073 C689 1.183 . S
C1079 C51 1.173 . S
C1093 C81 1.172 . S
C1099 C637 1.184 . S
C1113 C109 1.166 . S
C1119 C609 1.190 . S
C1133 C543 1.169 . S
C1139 C125 1.187 . S
C1153 C147 1.180 . S
C1159 C565 1.176 . S
C1173 C579 1.189 . S
C1179 C175 1.168 . S
C1193 C477 1.182 . S
C1199 C197 1.175 . S
C1213 C499 1.186 . S
C1219 C213 1.170 . S
C1233 C241 1.190 . S
C1239 C527 1.166 . S
C1253 C461 1.172 . S
C1259 C263 1.185 . S
C1273 C425 1.168 . S
C1279 C271 1.188 . S
C1293 C293 1.167 . S
C1299 C367 1.190 . S
C1313 C315 1.189 . S
C1319 C389 1.167 . S
C1333 C403 1.178 . S
C1339 C351 1.179 . S
C1353 C74 1.573 1_545 S
C1359 C18 1.561 . S
C1373 C8 1.537 1_655 S
C1379 C40 1.577 . S
C1393 C52 1.565 . S
C1399 C30 1.569 1_565 S
C1413 C84 1.570 . S
C1419 C54 1.559 1_455 S
C1433 C118 1.545 1_565 S
C1439 C98 1.576 . S
C1453 C140 1.539 1_455 S
C1459 C128 1.577 . S
C1473 C172 1.536 1_545 S
C1479 C150 1.577 . S
C1493 C164 1.567 . S
C1499 C106 1.552 1_655 S
C1513 C260 1.541 1_565 S
C1519 C186 1.572 . S
C1533 C194 1.557 1_455 S
C1539 C216 1.571 . S
C1553 C230 1.563 . S
C1559 C206 1.571 1_545 S
C1573 C252 1.561 . S
C1579 C238 1.573 1_655 S
C1593 C296 1.573 1_545 S
C1599 C272 1.562 . S
C1613 C294 1.576 . S
C1619 C318 1.535 1_655 S
C1633 C316 1.565 . S
C1639 C348 1.556 1_565 S
C1653 C340 1.563 . S
C1659 C274 1.562 1_455 S
C1673 C428 1.563 . S
C1679 C370 1.573 . S
C1693 C392 1.575 . S
C1699 C360 1.574 . S
C1713 C382 1.577 . S
C1719 C404 1.561 . S
C1733 C426 1.569 . S
C1739 C406 1.578 . S
C1753 C450 1.563 . S
C1759 C470 1.579 . S
C1773 C492 1.570 . S
C1779 C480 1.577 . S
C1793 C502 1.564 . S
C1799 C524 1.579 . S
C1813 C516 1.576 . S
C1819 C458 1.572 . S
C1833 C602 1.579 . S
C1839 C546 1.569 . S
C1853 C568 1.577 . S
C1859 C536 1.567 . S
C1873 C580 1.568 . S
C1879 C558 1.565 . S
C1893 C612 1.561 . S
C1899 C582 1.576 . S
C1913 C656 1.563 . S
C1919 C626 1.574 . S
C1933 C648 1.577 . S
C1939 C678 1.569 . S
C1953 C692 1.579 . S
C1959 C670 1.566 . S
C1973 C634 1.565 . S
C1979 C690 1.576 . S
C1993 C21 1.131 . S
C1999 C153 1.131 . S
C2013 C161 1.137 . S
C2019 C43 1.109 . S
C2033 C59 1.130 . S
C2039 C95 1.112 . S
C2053 C131 1.136 . S
C2059 C87 1.109 . S
C2073 C183 1.122 . S
C2079 C323 1.118 . S
C2093 C337 1.136 . S
C2099 C219 1.109 . S
C2113 C279 1.140 . S
C2119 C227 1.118 . S
C2133 C301 1.141 . S
C2139 C249 1.118 . S
C2153 C505 1.141 . S
C2159 C373 1.117 . S
C2173 C395 1.120 . S
C2179 C513 1.140 . S
C2193 C447 1.125 . S
C2199 C411 1.137 . S
C2213 C433 1.131 . S
C2219 C483 1.132 . S
C2233 C549 1.139 . S
C2239 C667 1.109 . S
C2253 C697 1.141 . S
C2259 C571 1.118 . S
C2273 C623 1.113 . S
C2279 C587 1.127 . S
C2293 C645 1.141 . S
C2299 C615 1.118 . S
C2313 C228 1.469 . S
C2319 C10 1.476 . S
C2333 C32 1.473 . S
C2339 C250 1.472 . S
C2353 C184 1.475 . S
C2359 C62 1.470 . S
C2373 C208 1.470 . S
C2379 C76 1.476 . S
C2393 C326 1.470 . S
C2399 C96 1.475 . S
C2413 C120 1.474 . S
C2419 C338 1.471 . S
C2433 C282 1.476 . S
C2439 C142 1.470 . S
C2453 C162 1.470 . S
C2459 C304 1.476 . S
C2473 C590 1.475 . S
C2479 C362 1.470 . S
C2493 C604 1.474 . S
C2499 C384 1.471 . S
C2513 C414 1.470 . S
C2519 C538 1.475 . S
C2533 C436 1.471 . S
C2539 C560 1.475 . S
C2553 C668 1.470 . S
C2559 C448 1.475 . S
C2573 C472 1.476 . S
C2579 C700 1.470 . S
C2593 C494 1.471 . S
C2599 C624 1.474 . S
C2613 C646 1.473 . S
C2619 C514 1.473 . S
