# Generated by pormake.
# Topology umr, (4)-cn, num edge types: 1
# Building blocks:
#     Node 0, Type 0, BuildingBlock: AZAVOO_clean_sbu_0, # of connection points: 4
#     Node 1, Type 0, BuildingBlock: AZAVOO_clean_sbu_0, # of connection points: 4
#     Node 2, Type 0, BuildingBlock: AZAVOO_clean_sbu_0, # of connection points: 4
#     Node 3, Type 0, BuildingBlock: AZAVOO_clean_sbu_0, # of connection points: 4
#     Node 4, Type 0, BuildingBlock: AZAVOO_clean_sbu_0, # of connection points: 4
#     Node 5, Type 0, BuildingBlock: AZAVOO_clean_sbu_0, # of connection points: 4
#     Node 6, Type 0, BuildingBlock: AZAVOO_clean_sbu_0, # of connection points: 4
#     Node 7, Type 0, BuildingBlock: AZAVOO_clean_sbu_0, # of connection points: 4
#     Node 8, Type 0, BuildingBlock: AZAVOO_clean_sbu_0, # of connection points: 4
#     Node 9, Type 0, BuildingBlock: AZAVOO_clean_sbu_0, # of connection points: 4
#     Node 10, Type 0, BuildingBlock: AZAVOO_clean_sbu_0, # of connection points: 4
#     Node 11, Type 0, BuildingBlock: AZAVOO_clean_sbu_0, # of connection points: 4
#     Node 12, Type 0, BuildingBlock: AZAVOO_clean_sbu_0, # of connection points: 4
#     Node 13, Type 0, BuildingBlock: AZAVOO_clean_sbu_0, # of connection points: 4
#     Node 14, Type 0, BuildingBlock: AZAVOO_clean_sbu_0, # of connection points: 4
#     Node 15, Type 0, BuildingBlock: AZAVOO_clean_sbu_0, # of connection points: 4
#     Node 16, Type 0, BuildingBlock: AZAVOO_clean_sbu_0, # of connection points: 4
#     Node 17, Type 0, BuildingBlock: AZAVOO_clean_sbu_0, # of connection points: 4
#     Node 18, Type 0, BuildingBlock: AZAVOO_clean_sbu_0, # of connection points: 4
#     Node 19, Type 0, BuildingBlock: AZAVOO_clean_sbu_0, # of connection points: 4
#     Node 20, Type 0, BuildingBlock: AZAVOO_clean_sbu_0, # of connection points: 4
#     Node 21, Type 0, BuildingBlock: AZAVOO_clean_sbu_0, # of connection points: 4
#     Node 22, Type 0, BuildingBlock: AZAVOO_clean_sbu_0, # of connection points: 4
#     Node 23, Type 0, BuildingBlock: AZAVOO_clean_sbu_0, # of connection points: 4
#     Node 24, Type 0, BuildingBlock: AZAVOO_clean_sbu_0, # of connection points: 4
#     Node 25, Type 0, BuildingBlock: AZAVOO_clean_sbu_0, # of connection points: 4
#     Node 26, Type 0, BuildingBlock: AZAVOO_clean_sbu_0, # of connection points: 4
#     Node 27, Type 0, BuildingBlock: AZAVOO_clean_sbu_0, # of connection points: 4
#     Node 28, Type 0, BuildingBlock: AZAVOO_clean_sbu_0, # of connection points: 4
#     Node 29, Type 0, BuildingBlock: AZAVOO_clean_sbu_0, # of connection points: 4
#     Node 30, Type 0, BuildingBlock: AZAVOO_clean_sbu_0, # of connection points: 4
#     Node 31, Type 0, BuildingBlock: AZAVOO_clean_sbu_0, # of connection points: 4
#     Edge 32, Type (0, 0), BuildingBlock: ZUJKAS_clean_linker_0, # of connection points: 2
#     Edge 33, Type (0, 0), BuildingBlock: ZUJKAS_clean_linker_0, # of connection points: 2
#     Edge 34, Type (0, 0), BuildingBlock: ZUJKAS_clean_linker_0, # of connection points: 2
#     Edge 35, Type (0, 0), BuildingBlock: ZUJKAS_clean_linker_0, # of connection points: 2
#     Edge 36, Type (0, 0), BuildingBlock: ZUJKAS_clean_linker_0, # of connection points: 2
#     Edge 37, Type (0, 0), BuildingBlock: ZUJKAS_clean_linker_0, # of connection points: 2
#     Edge 38, Type (0, 0), BuildingBlock: ZUJKAS_clean_linker_0, # of connection points: 2
#     Edge 39, Type (0, 0), BuildingBlock: ZUJKAS_clean_linker_0, # of connection points: 2
#     Edge 40, Type (0, 0), BuildingBlock: ZUJKAS_clean_linker_0, # of connection points: 2
#     Edge 41, Type (0, 0), BuildingBlock: ZUJKAS_clean_linker_0, # of connection points: 2
#     Edge 42, Type (0, 0), BuildingBlock: ZUJKAS_clean_linker_0, # of connection points: 2
#     Edge 43, Type (0, 0), BuildingBlock: ZUJKAS_clean_linker_0, # of connection points: 2
#     Edge 44, Type (0, 0), BuildingBlock: ZUJKAS_clean_linker_0, # of connection points: 2
#     Edge 45, Type (0, 0), BuildingBlock: ZUJKAS_clean_linker_0, # of connection points: 2
#     Edge 46, Type (0, 0), BuildingBlock: ZUJKAS_clean_linker_0, # of connection points: 2
#     Edge 47, Type (0, 0), BuildingBlock: ZUJKAS_clean_linker_0, # of connection points: 2
#     Edge 48, Type (0, 0), BuildingBlock: ZUJKAS_clean_linker_0, # of connection points: 2
#     Edge 49, Type (0, 0), BuildingBlock: ZUJKAS_clean_linker_0, # of connection points: 2
#     Edge 50, Type (0, 0), BuildingBlock: ZUJKAS_clean_linker_0, # of connection points: 2
#     Edge 51, Type (0, 0), BuildingBlock: ZUJKAS_clean_linker_0, # of connection points: 2
#     Edge 52, Type (0, 0), BuildingBlock: ZUJKAS_clean_linker_0, # of connection points: 2
#     Edge 53, Type (0, 0), BuildingBlock: ZUJKAS_clean_linker_0, # of connection points: 2
#     Edge 54, Type (0, 0), BuildingBlock: ZUJKAS_clean_linker_0, # of connection points: 2
#     Edge 55, Type (0, 0), BuildingBlock: ZUJKAS_clean_linker_0, # of connection points: 2
#     Edge 56, Type (0, 0), BuildingBlock: ZUJKAS_clean_linker_0, # of connection points: 2
#     Edge 57, Type (0, 0), BuildingBlock: ZUJKAS_clean_linker_0, # of connection points: 2
#     Edge 58, Type (0, 0), BuildingBlock: ZUJKAS_clean_linker_0, # of connection points: 2
#     Edge 59, Type (0, 0), BuildingBlock: ZUJKAS_clean_linker_0, # of connection points: 2
#     Edge 60, Type (0, 0), BuildingBlock: ZUJKAS_clean_linker_0, # of connection points: 2
#     Edge 61, Type (0, 0), BuildingBlock: ZUJKAS_clean_linker_0, # of connection points: 2
#     Edge 62, Type (0, 0), BuildingBlock: ZUJKAS_clean_linker_0, # of connection points: 2
#     Edge 63, Type (0, 0), BuildingBlock: ZUJKAS_clean_linker_0, # of connection points: 2
#     Edge 64, Type (0, 0), BuildingBlock: ZUJKAS_clean_linker_0, # of connection points: 2
#     Edge 65, Type (0, 0), BuildingBlock: ZUJKAS_clean_linker_0, # of connection points: 2
#     Edge 66, Type (0, 0), BuildingBlock: ZUJKAS_clean_linker_0, # of connection points: 2
#     Edge 67, Type (0, 0), BuildingBlock: ZUJKAS_clean_linker_0, # of connection points: 2
#     Edge 68, Type (0, 0), BuildingBlock: ZUJKAS_clean_linker_0, # of connection points: 2
#     Edge 69, Type (0, 0), BuildingBlock: ZUJKAS_clean_linker_0, # of connection points: 2
#     Edge 70, Type (0, 0), BuildingBlock: ZUJKAS_clean_linker_0, # of connection points: 2
#     Edge 71, Type (0, 0), BuildingBlock: ZUJKAS_clean_linker_0, # of connection points: 2
#     Edge 72, Type (0, 0), BuildingBlock: ZUJKAS_clean_linker_0, # of connection points: 2
#     Edge 73, Type (0, 0), BuildingBlock: ZUJKAS_clean_linker_0, # of connection points: 2
#     Edge 74, Type (0, 0), BuildingBlock: ZUJKAS_clean_linker_0, # of connection points: 2
#     Edge 75, Type (0, 0), BuildingBlock: ZUJKAS_clean_linker_0, # of connection points: 2
#     Edge 76, Type (0, 0), BuildingBlock: ZUJKAS_clean_linker_0, # of connection points: 2
#     Edge 77, Type (0, 0), BuildingBlock: ZUJKAS_clean_linker_0, # of connection points: 2
#     Edge 78, Type (0, 0), BuildingBlock: ZUJKAS_clean_linker_0, # of connection points: 2
#     Edge 79, Type (0, 0), BuildingBlock: ZUJKAS_clean_linker_0, # of connection points: 2
#     Edge 80, Type (0, 0), BuildingBlock: ZUJKAS_clean_linker_0, # of connection points: 2
#     Edge 81, Type (0, 0), BuildingBlock: ZUJKAS_clean_linker_0, # of connection points: 2
#     Edge 82, Type (0, 0), BuildingBlock: ZUJKAS_clean_linker_0, # of connection points: 2
#     Edge 83, Type (0, 0), BuildingBlock: ZUJKAS_clean_linker_0, # of connection points: 2
#     Edge 84, Type (0, 0), BuildingBlock: ZUJKAS_clean_linker_0, # of connection points: 2
#     Edge 85, Type (0, 0), BuildingBlock: ZUJKAS_clean_linker_0, # of connection points: 2
#     Edge 86, Type (0, 0), BuildingBlock: ZUJKAS_clean_linker_0, # of connection points: 2
#     Edge 87, Type (0, 0), BuildingBlock: ZUJKAS_clean_linker_0, # of connection points: 2
#     Edge 88, Type (0, 0), BuildingBlock: ZUJKAS_clean_linker_0, # of connection points: 2
#     Edge 89, Type (0, 0), BuildingBlock: ZUJKAS_clean_linker_0, # of connection points: 2
#     Edge 90, Type (0, 0), BuildingBlock: ZUJKAS_clean_linker_0, # of connection points: 2
#     Edge 91, Type (0, 0), BuildingBlock: ZUJKAS_clean_linker_0, # of connection points: 2
#     Edge 92, Type (0, 0), BuildingBlock: ZUJKAS_clean_linker_0, # of connection points: 2
#     Edge 93, Type (0, 0), BuildingBlock: ZUJKAS_clean_linker_0, # of connection points: 2
#     Edge 94, Type (0, 0), BuildingBlock: ZUJKAS_clean_linker_0, # of connection points: 2
#     Edge 95, Type (0, 0), BuildingBlock: ZUJKAS_clean_linker_0, # of connection points: 2
# Relax obj value: 0.172
# Max RMSD: 0.152
# Mean RMSD: 0.152
data_MOF--net-umr--node1-AZAVOO_clean_sbu_0--edge1-ZUJKAS_clean_linker_0
_symmetry_space_group_name_H-M    P1
_symmetry_Int_Tables_number       1
_symmetry_cell_setting            triclinic
loop_
_symmetry_equiv_pos_as_xyz
'x, y, z'
_cell_length_a     108.78328
_cell_length_b     108.87193
_cell_length_c     32.422156
_cell_angle_alpha  90.048151
_cell_angle_beta   90.021595
_cell_angle_gamma 89.978422
loop_
_atom_site_label
_atom_site_type_symbol
_atom_site_fract_x
_atom_site_fract_y
_atom_site_fract_z
_atom_type_partial_charge
Mg0 Mg 0.17196 0.29004 0.12493 0.0
O1 O 0.19192 0.29349 0.10798 0.0
O2 O 0.20165 0.30299 0.15942 0.0
Mg3 Mg 0.18735 0.30565 0.21063 0.0
C4 C 0.20156 0.29828 0.12336 0.0
C5 C 0.16388 0.27557 0.04567 0.0
O6 O 0.16061 0.26757 0.07394 0.0
O7 O 0.16748 0.31018 0.11555 0.0
O8 O 0.17642 0.31922 0.16982 0.0
O9 O 0.17693 0.27221 0.15442 0.0
O10 O 0.17636 0.2899 0.18771 0.0
C11 C 0.1699 0.31971 0.13702 0.0
C12 C 0.17852 0.27827 0.18841 0.0
O13 O 0.16845 0.28577 0.05696 0.0
Mg14 Mg 0.95756 0.91797 0.36244 0.0
O15 O 0.95422 0.93792 0.34509 0.0
O16 O 0.94412 0.94758 0.39532 0.0
Mg17 Mg 0.94128 0.93338 0.44663 0.0
C18 C 0.9492 0.94753 0.35982 0.0
C19 C 0.97041 0.92074 0.27757 0.0
O20 O 0.97612 0.92914 0.29949 0.0
O21 O 0.9375 0.91356 0.35129 0.0
O22 O 0.92799 0.92241 0.40478 0.0
O23 O 0.9752 0.92294 0.39305 0.0
O24 O 0.95729 0.9225 0.4251 0.0
C25 C 0.92778 0.91594 0.37184 0.0
C26 C 0.96893 0.92466 0.42652 0.0
O27 O 0.96227 0.91415 0.29492 0.0
Mg28 Mg 0.33502 0.70285 0.58639 0.0
O29 O 0.31416 0.70221 0.58275 0.0
O30 O 0.3067 0.69674 0.64424 0.0
Mg31 Mg 0.32307 0.696 0.68898 0.0
C32 C 0.3052 0.69952 0.60633 0.0
C33 C 0.34443 0.70856 0.49988 0.0
O34 O 0.35294 0.7134 0.52366 0.0
O35 O 0.33579 0.68204 0.59069 0.0
O36 O 0.33018 0.67862 0.65608 0.0
O37 O 0.33436 0.7227 0.60152 0.0
O38 O 0.33416 0.70788 0.64813 0.0
C39 C 0.33406 0.67479 0.62111 0.0
C40 C 0.33364 0.71945 0.63985 0.0
O41 O 0.33571 0.70263 0.51657 0.0
Mg42 Mg 0.54437 0.08453 0.83791 0.0
O43 O 0.54574 0.06373 0.83309 0.0
O44 O 0.55206 0.05625 0.89363 0.0
Mg45 Mg 0.55263 0.07246 0.93911 0.0
C46 C 0.54898 0.05478 0.85595 0.0
C47 C 0.53752 0.09437 0.75319 0.0
O48 O 0.53307 0.1027 0.77844 0.0
O49 O 0.56521 0.08614 0.84007 0.0
O50 O 0.56939 0.08045 0.90486 0.0
O51 O 0.52471 0.08314 0.85507 0.0
O52 O 0.53996 0.08331 0.90019 0.0
C53 C 0.57277 0.08464 0.86981 0.0
C54 C 0.52833 0.08249 0.89307 0.0
O55 O 0.54374 0.08556 0.76814 0.0
Mg56 Mg 0.15726 0.70183 0.41973 0.0
O57 O 0.17798 0.70009 0.42752 0.0
O58 O 0.1865 0.69435 0.36789 0.0
Mg59 Mg 0.17087 0.6937 0.32048 0.0
C60 C 0.18733 0.69714 0.40602 0.0
C61 C 0.14804 0.70928 0.50575 0.0
O62 O 0.14055 0.71548 0.4817 0.0
O63 O 0.15514 0.68114 0.41588 0.0
O64 O 0.16273 0.67675 0.3534 0.0
O65 O 0.15944 0.72144 0.40413 0.0
O66 O 0.15948 0.70646 0.3579 0.0
C67 C 0.15759 0.6735 0.38714 0.0
C68 C 0.16061 0.71801 0.36608 0.0
O69 O 0.15569 0.70194 0.4894 0.0
Mg70 Mg 0.55186 0.90765 0.66166 0.0
O71 O 0.55319 0.92833 0.67055 0.0
O72 O 0.55976 0.93719 0.61256 0.0
Mg73 Mg 0.56155 0.92168 0.56491 0.0
C74 C 0.55631 0.93782 0.65011 0.0
C75 C 0.54211 0.89904 0.7453 0.0
O76 O 0.53578 0.89222 0.71946 0.0
O77 O 0.57261 0.90567 0.66194 0.0
O78 O 0.57802 0.91354 0.60084 0.0
O79 O 0.53253 0.90977 0.64246 0.0
O80 O 0.54823 0.90999 0.59896 0.0
C81 C 0.58073 0.90827 0.6349 0.0
C82 C 0.53655 0.91107 0.60513 0.0
O83 O 0.55049 0.90597 0.73114 0.0
Mg84 Mg 0.34311 0.29293 0.89326 0.0
O85 O 0.32258 0.29483 0.90416 0.0
O86 O 0.31275 0.29918 0.84563 0.0
Mg87 Mg 0.3278 0.30052 0.79634 0.0
C88 C 0.31272 0.29707 0.88434 0.0
C89 C 0.35195 0.28518 0.98019 0.0
O90 O 0.35847 0.27767 0.95722 0.0
O91 O 0.34477 0.31354 0.88876 0.0
O92 O 0.33563 0.31784 0.82865 0.0
O93 O 0.34063 0.27323 0.87857 0.0
O94 O 0.33999 0.2881 0.83201 0.0
C95 C 0.34135 0.32119 0.86125 0.0
C96 C 0.33881 0.27659 0.84075 0.0
O97 O 0.34534 0.29325 0.9627 0.0
Mg98 Mg 0.95427 0.09125 0.15305 0.0
O99 O 0.95346 0.07048 0.15838 0.0
O100 O 0.94933 0.06203 0.0973 0.0
Mg101 Mg 0.94796 0.07806 0.05157 0.0
C102 C 0.95152 0.06109 0.13584 0.0
C103 C 0.96106 0.09943 0.24085 0.0
O104 O 0.96728 0.10733 0.21844 0.0
O105 O 0.93347 0.09207 0.14771 0.0
O106 O 0.93035 0.08495 0.08384 0.0
O107 O 0.97419 0.09016 0.13874 0.0
O108 O 0.95951 0.08984 0.09151 0.0
C109 C 0.92633 0.08948 0.11766 0.0
C110 C 0.97104 0.08911 0.10039 0.0
O111 O 0.95385 0.092 0.22285 0.0
Mg112 Mg 0.8235 0.71346 0.86398 0.0
O113 O 0.80369 0.70828 0.87602 0.0
O114 O 0.7959 0.69802 0.82247 0.0
Mg115 Mg 0.81105 0.69791 0.773 0.0
C116 C 0.7949 0.70256 0.85862 0.0
C117 C 0.8327 0.71251 0.95808 0.0
O118 O 0.84044 0.70414 0.94475 0.0
O119 O 0.82935 0.69349 0.87169 0.0
O120 O 0.82261 0.68485 0.81332 0.0
O121 O 0.81739 0.73116 0.83661 0.0
O122 O 0.82021 0.71414 0.80055 0.0
C123 C 0.82837 0.68423 0.84765 0.0
C124 C 0.81689 0.7255 0.80148 0.0
O125 O 0.82533 0.71757 0.93282 0.0
Mg126 Mg 0.0475 0.07928 0.65133 0.0
O127 O 0.04964 0.05844 0.65295 0.0
O128 O 0.05461 0.05169 0.59013 0.0
Mg129 Mg 0.05577 0.06862 0.54834 0.0
C130 C 0.05221 0.04973 0.62809 0.0
C131 C 0.04254 0.08901 0.73788 0.0
O132 O 0.03906 0.09816 0.71415 0.0
O133 O 0.06808 0.08174 0.64862 0.0
O134 O 0.07271 0.07601 0.5842 0.0
O135 O 0.02788 0.07737 0.63493 0.0
O136 O 0.04289 0.0787 0.58904 0.0
C137 C 0.07583 0.08026 0.61951 0.0
C138 C 0.03132 0.07732 0.59669 0.0
O139 O 0.04729 0.07959 0.7212 0.0
Mg140 Mg 0.66226 0.29447 0.41252 0.0
O141 O 0.68303 0.29556 0.42051 0.0
O142 O 0.69191 0.29959 0.36006 0.0
Mg143 Mg 0.67631 0.301 0.31272 0.0
C144 C 0.69258 0.29753 0.39874 0.0
C145 C 0.65203 0.28893 0.49906 0.0
O146 O 0.64399 0.28327 0.47551 0.0
O147 O 0.66124 0.31512 0.40691 0.0
O148 O 0.66922 0.31871 0.34447 0.0
O149 O 0.6635 0.2746 0.39841 0.0
O150 O 0.66426 0.28924 0.35116 0.0
C151 C 0.6642 0.32245 0.37788 0.0
C152 C 0.66477 0.27771 0.36009 0.0
O153 O 0.66052 0.29512 0.48212 0.0
Mg154 Mg 0.45526 0.9159 0.16037 0.0
O155 O 0.45346 0.93662 0.16748 0.0
O156 O 0.44708 0.94461 0.10777 0.0
Mg157 Mg 0.44669 0.92886 0.06065 0.0
C158 C 0.4501 0.94575 0.14561 0.0
C159 C 0.46298 0.90579 0.24365 0.0
O160 O 0.4677 0.8979 0.21733 0.0
O161 O 0.43445 0.9138 0.15822 0.0
O162 O 0.43012 0.92038 0.09451 0.0
O163 O 0.47485 0.91785 0.14302 0.0
O164 O 0.45953 0.91776 0.09814 0.0
C165 C 0.42683 0.91565 0.12886 0.0
C166 C 0.47117 0.9187 0.10515 0.0
O167 O 0.45614 0.91432 0.22997 0.0
Mg168 Mg 0.84001 0.29637 0.59006 0.0
O169 O 0.8193 0.29814 0.58219 0.0
O170 O 0.81053 0.30255 0.64254 0.0
Mg171 Mg 0.82622 0.30371 0.68968 0.0
C172 C 0.8098 0.30039 0.60393 0.0
C173 C 0.84945 0.28948 0.50393 0.0
O174 O 0.85705 0.28338 0.52787 0.0
O175 O 0.84195 0.317 0.59514 0.0
O176 O 0.83407 0.32099 0.6575 0.0
O177 O 0.83795 0.27663 0.60475 0.0
O178 O 0.83787 0.29143 0.65161 0.0
C179 C 0.83929 0.32448 0.62415 0.0
C180 C 0.83682 0.27991 0.64297 0.0
O181 O 0.84162 0.2966 0.52043 0.0
Mg182 Mg 0.44843 0.09268 0.33709 0.0
O183 O 0.44751 0.07191 0.33036 0.0
O184 O 0.44183 0.0635 0.39016 0.0
Mg185 Mg 0.44063 0.07931 0.43695 0.0
C186 C 0.44479 0.06258 0.3522 0.0
C187 C 0.45669 0.10132 0.25199 0.0
O188 O 0.46268 0.10874 0.27687 0.0
O189 O 0.42754 0.09394 0.33977 0.0
O190 O 0.4236 0.08699 0.40328 0.0
O191 O 0.46812 0.09128 0.35372 0.0
O192 O 0.45298 0.09093 0.39925 0.0
C193 C 0.42004 0.09166 0.36911 0.0
C194 C 0.46459 0.09013 0.39165 0.0
O195 O 0.44893 0.09391 0.26733 0.0
Mg196 Mg 0.65743 0.70204 0.11147 0.0
O197 O 0.67767 0.69971 0.09647 0.0
O198 O 0.68797 0.69279 0.15121 0.0
Mg199 Mg 0.67375 0.69156 0.20327 0.0
C200 C 0.68759 0.69618 0.11358 0.0
C201 C 0.6484 0.71279 0.02941 0.0
O202 O 0.64295 0.72008 0.0561 0.0
O203 O 0.65484 0.68147 0.11122 0.0
O204 O 0.66436 0.67544 0.16898 0.0
O205 O 0.66095 0.72117 0.12998 0.0
O206 O 0.66166 0.7054 0.17315 0.0
C207 C 0.65809 0.6731 0.13653 0.0
C208 C 0.66315 0.71701 0.16667 0.0
O209 O 0.65424 0.70352 0.04273 0.0
Mg210 Mg 0.04183 0.90325 0.83889 0.0
O211 O 0.04206 0.92302 0.81407 0.0
O212 O 0.04582 0.93477 0.86941 0.0
Mg213 Mg 0.04619 0.92327 0.92852 0.0
C214 C 0.04402 0.93351 0.83063 0.0
C215 C 0.04462 0.89679 0.73784 0.0
O216 O 0.05006 0.88942 0.7114 0.0
O217 O 0.06235 0.90448 0.84944 0.0
O218 O 0.0647 0.9147 0.90871 0.0
O219 O 0.02128 0.90348 0.8501 0.0
O220 O 0.03526 0.90964 0.89464 0.0
C221 C 0.0691 0.90864 0.87837 0.0
C222 C 0.02385 0.90821 0.88573 0.0
O223 O 0.04618 0.89477 0.77608 0.0
Mg224 Mg 0.6776 0.79563 0.61404 0.0
O225 O 0.69844 0.797 0.61001 0.0
O226 O 0.70592 0.80398 0.66964 0.0
Mg227 Mg 0.6894 0.80574 0.71351 0.0
C228 C 0.70744 0.8003 0.63261 0.0
C229 C 0.66754 0.78865 0.52928 0.0
O230 O 0.65859 0.78532 0.55405 0.0
O231 O 0.67542 0.81631 0.6126 0.0
O232 O 0.68138 0.82195 0.67587 0.0
O233 O 0.67911 0.77639 0.63449 0.0
O234 O 0.67851 0.79228 0.67712 0.0
C235 C 0.67691 0.82449 0.64038 0.0
C236 C 0.67939 0.78056 0.67191 0.0
O237 O 0.67685 0.79403 0.54448 0.0
Mg238 Mg 0.45377 0.40962 0.82985 0.0
O239 O 0.45277 0.4304 0.82265 0.0
O240 O 0.44756 0.4389 0.88275 0.0
Mg241 Mg 0.44577 0.42314 0.92922 0.0
C242 C 0.45031 0.43979 0.84461 0.0
C243 C 0.46074 0.39948 0.7453 0.0
O244 O 0.46582 0.39152 0.77054 0.0
O245 O 0.43306 0.40849 0.83217 0.0
O246 O 0.42856 0.41597 0.89464 0.0
O247 O 0.47339 0.41093 0.84638 0.0
O248 O 0.45823 0.41144 0.89196 0.0
C249 C 0.42531 0.41116 0.86031 0.0
C250 C 0.46986 0.41212 0.88432 0.0
O251 O 0.45417 0.40801 0.7603 0.0
Mg252 Mg 0.83588 0.20301 0.09061 0.0
O253 O 0.81512 0.20265 0.084 0.0
O254 O 0.80658 0.19793 0.14444 0.0
Mg255 Mg 0.82241 0.19655 0.19129 0.0
C256 C 0.8057 0.20047 0.10612 0.0
C257 C 0.84566 0.20917 0.00484 0.0
O258 O 0.8537 0.21455 0.02915 0.0
O259 O 0.83624 0.18226 0.09525 0.0
O260 O 0.82968 0.17894 0.15969 0.0
O261 O 0.83533 0.22287 0.10528 0.0
O262 O 0.83435 0.20817 0.15221 0.0
C263 C 0.834 0.17505 0.12537 0.0
C264 C 0.8341 0.21973 0.14356 0.0
O265 O 0.83725 0.20269 0.02096 0.0
Mg266 Mg 0.04306 0.57992 0.33404 0.0
O267 O 0.04542 0.55926 0.32823 0.0
O268 O 0.05076 0.55119 0.38875 0.0
Mg269 Mg 0.05167 0.56736 0.43418 0.0
C270 C 0.04826 0.55005 0.35048 0.0
C271 C 0.04435 0.59024 0.24259 0.0
O272 O 0.04787 0.60046 0.26058 0.0
O273 O 0.06367 0.58256 0.33659 0.0
O274 O 0.06837 0.57558 0.3996 0.0
O275 O 0.02353 0.57758 0.35117 0.0
O276 O 0.03875 0.5784 0.3964 0.0
C277 C 0.07144 0.58054 0.36534 0.0
C278 C 0.02716 0.57713 0.38919 0.0
O279 O 0.04244 0.58075 0.26438 0.0
Mg280 Mg 0.6586 0.2032 0.9118 0.0
O281 O 0.67934 0.20257 0.92013 0.0
O282 O 0.68843 0.19886 0.85981 0.0
Mg283 Mg 0.673 0.19796 0.81153 0.0
C284 C 0.68897 0.20079 0.8986 0.0
C285 C 0.64912 0.20906 0.99874 0.0
O286 O 0.64155 0.21544 0.97556 0.0
O287 O 0.65798 0.18246 0.90385 0.0
O288 O 0.66556 0.18006 0.84026 0.0
O289 O 0.65949 0.22326 0.89967 0.0
O290 O 0.66066 0.20904 0.85107 0.0
C291 C 0.66071 0.17568 0.87302 0.0
C292 C 0.66098 0.22049 0.86114 0.0
O293 O 0.65692 0.20208 0.98136 0.0
Mg294 Mg 0.04527 0.40213 0.16372 0.0
O295 O 0.04702 0.42283 0.17086 0.0
O296 O 0.05117 0.43153 0.11028 0.0
Mg297 Mg 0.05201 0.41572 0.06343 0.0
C298 C 0.0492 0.4323 0.14899 0.0
C299 C 0.03767 0.3942 0.25029 0.0
O300 O 0.03089 0.38706 0.22678 0.0
O301 O 0.0659 0.40034 0.15768 0.0
O302 O 0.06951 0.40796 0.09476 0.0
O303 O 0.02545 0.40401 0.15027 0.0
O304 O 0.03993 0.40408 0.1023 0.0
C305 C 0.07322 0.40289 0.12812 0.0
C306 C 0.02845 0.40506 0.1118 0.0
O307 O 0.04572 0.40097 0.23341 0.0
Mg308 Mg 0.84961 0.78981 0.38747 0.0
O309 O 0.8308 0.79208 0.41869 0.0
O310 O 0.81797 0.79847 0.36902 0.0
Mg311 Mg 0.82766 0.79767 0.30641 0.0
C312 C 0.82027 0.79584 0.40663 0.0
C313 C 0.85714 0.791 0.48575 0.0
O314 O 0.86525 0.79409 0.51389 0.0
O315 O 0.85098 0.81033 0.37857 0.0
O316 O 0.83885 0.81484 0.32512 0.0
O317 O 0.84644 0.76978 0.37578 0.0
O318 O 0.84109 0.78469 0.33332 0.0
C319 C 0.84664 0.81799 0.35267 0.0
C320 C 0.84141 0.77311 0.34128 0.0
O321 O 0.86004 0.79202 0.44798 0.0
Mg322 Mg 0.44974 0.58781 0.66146 0.0
O323 O 0.44961 0.56702 0.66782 0.0
O324 O 0.44606 0.55838 0.60662 0.0
Mg325 Mg 0.44467 0.57415 0.55993 0.0
C326 C 0.44806 0.55755 0.64531 0.0
C327 C 0.45558 0.59702 0.74814 0.0
O328 O 0.46149 0.60487 0.72464 0.0
O329 O 0.42898 0.58799 0.65409 0.0
O330 O 0.42665 0.58084 0.58989 0.0
O331 O 0.4698 0.58745 0.64892 0.0
O332 O 0.4555 0.58637 0.60053 0.0
C333 C 0.4222 0.58531 0.6232 0.0
C334 C 0.46698 0.5862 0.61034 0.0
O335 O 0.44877 0.58902 0.73111 0.0
Mg336 Mg 0.32367 0.20293 0.39128 0.0
O337 O 0.30274 0.20218 0.39022 0.0
O338 O 0.29646 0.19767 0.32648 0.0
Mg339 Mg 0.31376 0.19647 0.28595 0.0
C340 C 0.29418 0.20005 0.36429 0.0
C341 C 0.333 0.2062 0.47922 0.0
O342 O 0.34266 0.20895 0.4567 0.0
O343 O 0.32486 0.18218 0.38624 0.0
O344 O 0.32057 0.17902 0.31961 0.0
O345 O 0.32333 0.22285 0.37686 0.0
O346 O 0.32403 0.2082 0.32965 0.0
C347 C 0.32394 0.17508 0.35502 0.0
C348 C 0.32346 0.21975 0.3383 0.0
O349 O 0.32331 0.20251 0.4612 0.0
Mg350 Mg 0.54232 0.58455 0.16205 0.0
O351 O 0.54387 0.56382 0.16919 0.0
O352 O 0.54846 0.55533 0.10853 0.0
Mg353 Mg 0.54973 0.57113 0.062 0.0
C354 C 0.54619 0.55444 0.14703 0.0
C355 C 0.53655 0.59483 0.24795 0.0
O356 O 0.53121 0.60294 0.22385 0.0
O357 O 0.56293 0.58612 0.1576 0.0
O358 O 0.56712 0.5786 0.09491 0.0
O359 O 0.52256 0.58286 0.14699 0.0
O360 O 0.53745 0.58267 0.10042 0.0
C361 C 0.57052 0.58355 0.12886 0.0
C362 C 0.52588 0.58183 0.10877 0.0
O363 O 0.54264 0.58616 0.23162 0.0
Mg364 Mg 0.16085 0.79531 0.92024 0.0
O365 O 0.18161 0.79651 0.9271 0.0
O366 O 0.19013 0.80087 0.86635 0.0
Mg367 Mg 0.17429 0.80205 0.81968 0.0
C368 C 0.19102 0.79868 0.9049 0.0
C369 C 0.15105 0.78916 0.00629 0.0
O370 O 0.14289 0.78384 0.9823 0.0
O371 O 0.15964 0.81603 0.91543 0.0
O372 O 0.16673 0.81947 0.85176 0.0
O373 O 0.16214 0.77546 0.90555 0.0
O374 O 0.16258 0.79018 0.85862 0.0
C375 C 0.16202 0.82329 0.88558 0.0
C376 C 0.16321 0.77864 0.86725 0.0
O377 O 0.15947 0.79557 0.98987 0.0
Mg378 Mg 0.95404 0.41898 0.6663 0.0
O379 O 0.95184 0.43969 0.67148 0.0
O380 O 0.94471 0.44724 0.61215 0.0
Mg381 Mg 0.94388 0.43098 0.56706 0.0
C382 C 0.94816 0.44865 0.64946 0.0
C383 C 0.95271 0.40916 0.75825 0.0
O384 O 0.94808 0.39926 0.74101 0.0
O385 O 0.93338 0.41619 0.66685 0.0
O386 O 0.92779 0.42259 0.604 0.0
O387 O 0.97329 0.42132 0.64648 0.0
O388 O 0.95755 0.4203 0.60333 0.0
C389 C 0.92524 0.41786 0.63906 0.0
C390 C 0.96922 0.42164 0.60896 0.0
O391 O 0.95543 0.41832 0.73588 0.0
Mg392 Mg 0.33957 0.79651 0.08658 0.0
O393 O 0.31881 0.79758 0.0801 0.0
O394 O 0.31031 0.80158 0.14121 0.0
Mg395 Mg 0.32621 0.80268 0.1878 0.0
C396 C 0.3094 0.79955 0.10254 0.0
C397 C 0.34892 0.79023 0.00035 0.0
O398 O 0.35675 0.78444 0.0243 0.0
O399 O 0.34057 0.81723 0.09268 0.0
O400 O 0.33368 0.82029 0.15689 0.0
O401 O 0.33835 0.77657 0.10019 0.0
O402 O 0.33792 0.79111 0.14785 0.0
C403 C 0.33826 0.82431 0.12316 0.0
C404 C 0.33724 0.77961 0.13862 0.0
O405 O 0.34086 0.79708 0.01689 0.0
Mg406 Mg 0.95163 0.59632 0.83497 0.0
O407 O 0.94987 0.5756 0.82914 0.0
O408 O 0.94414 0.56759 0.88947 0.0
Mg409 Mg 0.94411 0.58358 0.93586 0.0
C410 C 0.94686 0.56645 0.85137 0.0
C411 C 0.95939 0.60382 0.74789 0.0
O412 O 0.96633 0.61093 0.77096 0.0
O413 O 0.93093 0.59849 0.83997 0.0
O414 O 0.92715 0.59223 0.90437 0.0
O415 O 0.97139 0.59433 0.84931 0.0
O416 O 0.95673 0.59455 0.89663 0.0
C417 C 0.92359 0.59691 0.87023 0.0
C418 C 0.96824 0.5934 0.88768 0.0
O419 O 0.95132 0.59719 0.76522 0.0
Mg420 Mg 0.1504 0.20574 0.59566 0.0
O421 O 0.16945 0.20561 0.565 0.0
O422 O 0.18291 0.20063 0.61448 0.0
Mg423 Mg 0.17281 0.1977 0.67545 0.0
C424 C 0.18042 0.20348 0.57718 0.0
C425 C 0.14242 0.20659 0.49608 0.0
O426 O 0.13413 0.20318 0.46889 0.0
O427 O 0.15059 0.18505 0.59835 0.0
O428 O 0.16352 0.18018 0.64932 0.0
O429 O 0.15205 0.22559 0.6144 0.0
O430 O 0.1582 0.20994 0.65215 0.0
C431 C 0.15585 0.17712 0.62124 0.0
C432 C 0.15709 0.22163 0.64809 0.0
O433 O 0.14035 0.20438 0.53393 0.0
Mg434 Mg 0.54857 0.40611 0.32867 0.0
O435 O 0.5491 0.42692 0.32246 0.0
O436 O 0.5534 0.43552 0.3832 0.0
Mg437 Mg 0.55582 0.41963 0.42881 0.0
C438 C 0.55096 0.43638 0.34481 0.0
C439 C 0.54135 0.39705 0.24259 0.0
O440 O 0.53573 0.38909 0.2665 0.0
O441 O 0.56931 0.4055 0.33168 0.0
O442 O 0.57332 0.41324 0.39422 0.0
O443 O 0.52886 0.40693 0.34491 0.0
O444 O 0.54395 0.40758 0.39073 0.0
C445 C 0.57686 0.40851 0.36008 0.0
C446 C 0.53232 0.40805 0.38294 0.0
O447 O 0.54834 0.40501 0.259 0.0
H448 H 0.28921 0.29799 0.85348 0.0
H449 H 0.26995 0.29858 0.89284 0.0
H450 H 0.29045 0.29761 0.00656 0.0
H451 H 0.30968 0.29693 0.96791 0.0
H452 H 0.26334 0.2796 0.96239 0.0
H453 H 0.26574 0.32879 0.009 0.0
H454 H 0.27322 0.32302 0.96312 0.0
H455 H 0.27957 0.31976 0.01296 0.0
C456 C 0.28963 0.29792 0.88685 0.0
C457 C 0.30099 0.29742 0.90751 0.0
C458 C 0.27863 0.29825 0.90922 0.0
C459 C 0.27886 0.29823 0.95245 0.0
C460 C 0.29014 0.29772 0.97316 0.0
H461 H 0.22504 0.30378 0.14819 0.0
H462 H 0.24374 0.3035 0.10617 0.0
C463 C 0.30111 0.29729 0.95094 0.0
C464 C 0.26732 0.2985 0.97629 0.0
H465 H 0.24987 0.31685 0.03829 0.0
C466 C 0.26031 0.28774 0.9788 0.0
C467 C 0.26357 0.30911 0.99791 0.0
C468 C 0.27084 0.32089 0.99564 0.0
C469 C 0.24966 0.28725 0.00315 0.0
C470 C 0.2458 0.29792 0.02458 0.0
C471 C 0.25284 0.30869 0.02184 0.0
C472 C 0.23447 0.2981 0.04991 0.0
C473 C 0.24287 0.2752 0.00665 0.0
C474 C 0.22306 0.29535 0.03205 0.0
C475 C 0.21241 0.29539 0.05599 0.0
C476 C 0.21292 0.29838 0.0982 0.0
C477 C 0.22433 0.30142 0.11582 0.0
C478 C 0.23502 0.30127 0.09186 0.0
H479 H 0.24887 0.26729 0.9987 0.0
H480 H 0.23923 0.27383 0.0383 0.0
H481 H 0.23501 0.2752 0.98482 0.0
H482 H 0.22238 0.29322 -0.0005 0.0
H483 H 0.20375 0.29316 0.04125 0.0
H484 H 0.93851 0.96975 0.3777 0.0
H485 H 0.93878 0.98839 0.33552 0.0
H486 H 0.96018 0.96965 0.24292 0.0
H487 H 0.96005 0.95103 0.2847 0.0
H488 H 0.96943 0.99296 0.26592 0.0
H489 H 0.91975 0.9946 0.22674 0.0
H490 H 0.92304 0.99312 0.28084 0.0
H491 H 0.92715 0.98092 0.24614 0.0
C492 C 0.94325 0.96957 0.3483 0.0
C493 C 0.94924 0.95887 0.33461 0.0
C494 C 0.94332 0.98021 0.32417 0.0
C495 C 0.94936 0.98032 0.28593 0.0
C496 C 0.95541 0.96971 0.27228 0.0
H497 H 0.94524 0.03884 0.10175 0.0
H498 H 0.94511 0.01874 0.13584 0.0
C499 C 0.95532 0.95907 0.29625 0.0
C500 C 0.94974 0.99163 0.26075 0.0
H501 H 0.93164 0.01223 0.20969 0.0
C502 C 0.96119 0.99714 0.25341 0.0
C503 C 0.93898 0.99694 0.24403 0.0
C504 C 0.92653 0.99106 0.24944 0.0
C505 C 0.96212 0.00807 0.23077 0.0
C506 C 0.9513 0.01365 0.21548 0.0
C507 C 0.93989 0.00794 0.22172 0.0
C508 C 0.95161 0.02568 0.19446 0.0
C509 C 0.97465 0.01358 0.22341 0.0
C510 C 0.9552 0.03619 0.21633 0.0
C511 C 0.95526 0.04764 0.19711 0.0
C512 C 0.95169 0.04882 0.15556 0.0
C513 C 0.94809 0.03825 0.13368 0.0
C514 C 0.94799 0.02677 0.15309 0.0
H515 H 0.98209 0.00671 0.2278 0.0
H516 H 0.97534 0.01741 0.19176 0.0
H517 H 0.97617 0.02118 0.24566 0.0
H518 H 0.95784 0.03554 0.24848 0.0
H519 H 0.95806 0.05557 0.21499 0.0
H520 H 0.2067 0.68194 0.38969 0.0
H521 H 0.22643 0.68108 0.42601 0.0
H522 H 0.21526 0.71165 0.50223 0.0
H523 H 0.19529 0.71198 0.46788 0.0
H524 H 0.24441 0.69578 0.43215 0.0
H525 H 0.22663 0.68948 0.59005 0.0
H526 H 0.21679 0.68857 0.54543 0.0
H527 H 0.22049 0.70326 0.56807 0.0
C528 C 0.20847 0.68841 0.41439 0.0
C529 C 0.19946 0.69694 0.42632 0.0
C530 C 0.21973 0.68792 0.43515 0.0
C531 C 0.22225 0.69609 0.4677 0.0
C532 C 0.21339 0.70491 0.47847 0.0
H533 H 0.29607 0.71436 0.54638 0.0
H534 H 0.27585 0.71331 0.51382 0.0
C535 C 0.20202 0.70518 0.45852 0.0
C536 C 0.2343 0.6957 0.48931 0.0
H537 H 0.24758 0.69631 0.58472 0.0
C538 C 0.24508 0.69574 0.46553 0.0
C539 C 0.23525 0.69536 0.53289 0.0
C540 C 0.22416 0.69402 0.56049 0.0
C541 C 0.25675 0.6958 0.484 0.0
C542 C 0.25768 0.69646 0.52754 0.0
C543 C 0.2469 0.69605 0.55135 0.0
C544 C 0.2697 0.69755 0.54901 0.0
C545 C 0.2679 0.69487 0.45645 0.0
C546 C 0.27272 0.68958 0.58156 0.0
C547 C 0.28412 0.69048 0.60132 0.0
C548 C 0.29275 0.69925 0.58837 0.0
C549 C 0.28963 0.7074 0.55653 0.0
C550 C 0.27813 0.70672 0.53759 0.0
H551 H 0.26567 0.6901 0.42707 0.0
H552 H 0.27112 0.70424 0.44851 0.0
H553 H 0.27552 0.68984 0.47175 0.0
H554 H 0.26636 0.68249 0.59122 0.0
H555 H 0.28633 0.68406 0.62574 0.0
H556 H 0.53416 0.04566 0.79582 0.0
H557 H 0.5352 0.02545 0.76319 0.0
H558 H 0.56642 0.01618 0.83935 0.0
H559 H 0.56487 0.03612 0.87387 0.0
H560 H 0.55159 0.01581 0.71764 0.0
H561 H 0.54712 0.98591 0.8546 0.0
H562 H 0.5446 0.00225 0.85716 0.0
H563 H 0.55997 0.99609 0.8594 0.0
C564 C 0.54113 0.03922 0.80597 0.0
C565 C 0.54937 0.04239 0.83758 0.0
C566 C 0.54175 0.02769 0.78724 0.0
C567 C 0.55077 0.01916 0.79917 0.0
C568 C 0.55911 0.02239 0.83049 0.0
H569 H 0.57065 0.95803 0.63642 0.0
H570 H 0.5698 0.97776 0.67263 0.0
C571 C 0.55828 0.03383 0.85003 0.0
C572 C 0.55172 0.00716 0.77742 0.0
H573 H 0.55379 0.97621 0.79256 0.0
C574 C 0.55197 0.00714 0.73408 0.0
C575 C 0.55205 0.99581 0.7987 0.0
C576 C 0.55078 0.99499 0.84499 0.0
C577 C 0.55252 0.99616 0.71147 0.0
C578 C 0.55346 0.98485 0.73278 0.0
C579 C 0.55322 0.98487 0.77613 0.0
C580 C 0.55424 0.97285 0.71095 0.0
C581 C 0.55165 0.99685 0.66505 0.0
C582 C 0.54615 0.96331 0.72154 0.0
C583 C 0.5469 0.95193 0.70189 0.0
C584 C 0.55563 0.9499 0.67069 0.0
C585 C 0.56372 0.95942 0.65995 0.0
C586 C 0.56317 0.97073 0.68042 0.0
H587 H 0.547 0.00542 0.65489 0.0
H588 H 0.56105 0.99688 0.65177 0.0
H589 H 0.54653 0.9889 0.6522 0.0
H590 H 0.53918 0.96468 0.74498 0.0
H591 H 0.54053 0.94476 0.71073 0.0
H592 H 0.69276 0.71 0.046 0.0
H593 H 0.71098 0.70907 0.00243 0.0
H594 H 0.72587 0.68022 0.07884 0.0
H595 H 0.70784 0.68156 0.12393 0.0
H596 H 0.74308 0.69555 0.06076 0.0
H597 H 0.71896 0.68474 0.91555 0.0
H598 H 0.71311 0.69873 0.93699 0.0
H599 H 0.71125 0.6845 0.96478 0.0
C600 C 0.69991 0.70345 0.05353 0.0
C601 C 0.69886 0.69581 0.08825 0.0
C602 C 0.71027 0.70283 0.02831 0.0
C603 C 0.71964 0.6943 0.03652 0.0
C604 C 0.7187 0.68679 0.07162 0.0
H605 H 0.77791 0.68408 0.85177 0.0
H606 H 0.75986 0.68073 0.89573 0.0
C607 C 0.70843 0.68758 0.09743 0.0
C608 C 0.73062 0.69366 0.00944 0.0
H609 H 0.73949 0.6929 0.90848 0.0
C610 C 0.74229 0.69479 0.0275 0.0
C611 C 0.72967 0.69235 0.96607 0.0
C612 C 0.71757 0.68987 0.94483 0.0
C613 C 0.75296 0.69524 0.00333 0.0
C614 C 0.7519 0.69506 0.95979 0.0
C615 C 0.7403 0.69331 0.9418 0.0
C616 C 0.76264 0.69712 0.93248 0.0
C617 C 0.76525 0.69584 0.02489 0.0
C618 C 0.76996 0.70762 0.93768 0.0
C619 C 0.78032 0.70943 0.91318 0.0
C620 C 0.78339 0.70096 0.88212 0.0
C621 C 0.77574 0.69075 0.87548 0.0
C622 C 0.76547 0.68882 0.90063 0.0
H623 H 0.76482 0.69148 0.05583 0.0
H624 H 0.77256 0.69122 0.00666 0.0
H625 H 0.76787 0.7056 0.02944 0.0
H626 H 0.76771 0.7144 0.96091 0.0
H627 H 0.78595 0.71748 0.91858 0.0
H628 H 0.0476 0.95718 0.85552 0.0
H629 H 0.04923 0.97547 0.81292 0.0
H630 H 0.04347 0.95365 0.70355 0.0
H631 H 0.04164 0.93514 0.74616 0.0
H632 H 0.06656 0.97973 0.75086 0.0
H633 H 0.01863 0.98209 0.69114 0.0
H634 H 0.02285 0.97262 0.73463 0.0
H635 H 0.02667 0.96786 0.68323 0.0
C636 C 0.04659 0.9562 0.82244 0.0
C637 C 0.04451 0.94464 0.80432 0.0
C638 C 0.04755 0.9667 0.79812 0.0
C639 C 0.04642 0.96593 0.75516 0.0
C640 C 0.04422 0.95446 0.73675 0.0
H641 H 0.05256 0.02826 0.58359 0.0
H642 H 0.05187 0.00722 0.61047 0.0
C643 C 0.04323 0.94389 0.76115 0.0
C644 C 0.04791 0.97721 0.73016 0.0
H645 H 0.03229 0.99763 0.66974 0.0
C646 C 0.05911 0.98358 0.73281 0.0
C647 C 0.03816 0.98222 0.70667 0.0
C648 C 0.02584 0.97593 0.70385 0.0
C649 C 0.06071 0.99498 0.71344 0.0
C650 C 0.05085 0.00013 0.69103 0.0
C651 C 0.03982 0.99358 0.68697 0.0
C652 C 0.05151 0.01275 0.67451 0.0
C653 C 0.07284 0.00156 0.71768 0.0
C654 C 0.05147 0.02276 0.70173 0.0
C655 C 0.05178 0.03475 0.6866 0.0
C656 C 0.05219 0.03696 0.64388 0.0
C657 C 0.05231 0.02688 0.61665 0.0
C658 C 0.05188 0.01486 0.63188 0.0
H659 H 0.08028 0.99529 0.72806 0.0
H660 H 0.07557 0.0058 0.68792 0.0
H661 H 0.0719 0.00903 0.74081 0.0
H662 H 0.05107 0.02128 0.73475 0.0
H663 H 0.05168 0.04227 0.70847 0.0
H664 H 0.69728 0.29627 0.48147 0.0
H665 H 0.71719 0.29712 0.51595 0.0
H666 H 0.73534 0.29971 0.39803 0.0
H667 H 0.71541 0.29914 0.36312 0.0
H668 H 0.73686 0.2817 0.51028 0.0
H669 H 0.74998 0.3286 0.45998 0.0
H670 H 0.73458 0.3227 0.45426 0.0
H671 H 0.74638 0.31842 0.41812 0.0
C672 C 0.70549 0.29704 0.46275 0.0
C673 C 0.70472 0.29771 0.41946 0.0
C674 C 0.71687 0.29753 0.48257 0.0
C675 C 0.72772 0.29869 0.45962 0.0
C676 C 0.72704 0.29912 0.4164 0.0
H677 H 0.80496 0.2988 0.52135 0.0
H678 H 0.78492 0.29838 0.48749 0.0
C679 C 0.71565 0.29871 0.39648 0.0
C680 C 0.73975 0.29922 0.48105 0.0
H681 H 0.7654 0.31689 0.49394 0.0
C682 C 0.74307 0.28942 0.50689 0.0
C683 C 0.74782 0.30933 0.47666 0.0
C684 C 0.74448 0.32042 0.45108 0.0
C685 C 0.75435 0.28935 0.52789 0.0
C686 C 0.76245 0.2994 0.52313 0.0
C687 C 0.75914 0.3092 0.4974 0.0
C688 C 0.77451 0.29978 0.54408 0.0
C689 C 0.75766 0.27845 0.55437 0.0
C690 C 0.77526 0.30087 0.58713 0.0
C691 C 0.78672 0.30117 0.6067 0.0
C692 C 0.79761 0.30036 0.58348 0.0
C693 C 0.79678 0.29939 0.54026 0.0
C694 C 0.78533 0.29916 0.52078 0.0
H695 H 0.7515 0.27049 0.54862 0.0
H696 H 0.7673 0.27558 0.54866 0.0
H697 H 0.75686 0.28105 0.58736 0.0
H698 H 0.76698 0.30151 0.60555 0.0
H699 H 0.78702 0.30194 0.63999 0.0
H700 H 0.46459 0.95463 0.20712 0.0
H701 H 0.46302 0.9745 0.24176 0.0
H702 H 0.4319 0.98387 0.16532 0.0
H703 H 0.43397 0.96429 0.12881 0.0
H704 H 0.44537 0.0028 0.1727 0.0
H705 H 0.43982 0.9839 0.32949 0.0
H706 H 0.45404 0.97885 0.30751 0.0
H707 H 0.43968 0.97426 0.28431 0.0
C708 C 0.45744 0.96096 0.19769 0.0
C709 C 0.44936 0.95792 0.16545 0.0
C710 C 0.45645 0.97226 0.21782 0.0
C711 C 0.44709 0.98056 0.20715 0.0
C712 C 0.43914 0.9776 0.1744 0.0
H713 H 0.43018 0.04277 0.36875 0.0
H714 H 0.42989 0.02303 0.33238 0.0
C715 C 0.44034 0.96643 0.15349 0.0
C716 C 0.4458 0.99245 0.22933 0.0
H717 H 0.44502 0.00529 0.32541 0.0
C718 C 0.44515 0.00331 0.20611 0.0
C719 C 0.44521 0.99318 0.27294 0.0
C720 C 0.44458 0.9819 0.29991 0.0
C721 C 0.44426 0.01486 0.22516 0.0
C722 C 0.44465 0.01563 0.26878 0.0
C723 C 0.44495 0.00476 0.29201 0.0
C724 C 0.44482 0.0276 0.29092 0.0
C725 C 0.44265 0.02603 0.19812 0.0
C726 C 0.45346 0.03666 0.28041 0.0
C727 C 0.45342 0.04801 0.3004 0.0
C728 C 0.44504 0.05039 0.33238 0.0
C729 C 0.43675 0.04116 0.34422 0.0
C730 C 0.43657 0.02989 0.32342 0.0
H731 H 0.43814 0.0236 0.16846 0.0
H732 H 0.43705 0.03321 0.21358 0.0
H733 H 0.45181 0.02992 0.1907 0.0
H734 H 0.46026 0.03497 0.2567 0.0
H735 H 0.46004 0.05491 0.29111 0.0
H736 H 0.72792 0.8132 0.65647 0.0
H737 H 0.74822 0.81309 0.62344 0.0
H738 H 0.73566 0.78551 0.53764 0.0
H739 H 0.71532 0.78595 0.56922 0.0
H740 H 0.76577 0.79596 0.61014 0.0
H741 H 0.74728 0.81167 0.46025 0.0
H742 H 0.73813 0.81159 0.50658 0.0
H743 H 0.74008 0.79773 0.47685 0.0
C744 C 0.72952 0.80712 0.63058 0.0
C745 C 0.71997 0.79975 0.61497 0.0
C746 C 0.74111 0.80704 0.6118 0.0
C747 C 0.74337 0.79951 0.5774 0.0
C748 C 0.73402 0.79168 0.56326 0.0
H749 H 0.81373 0.77997 0.4677 0.0
H750 H 0.79569 0.78143 0.51284 0.0
C751 C 0.72241 0.79191 0.58146 0.0
C752 C 0.75532 0.80003 0.55538 0.0
H753 H 0.76768 0.80373 0.45962 0.0
C754 C 0.76624 0.79778 0.5773 0.0
C755 C 0.75595 0.80265 0.51269 0.0
C756 C 0.74474 0.80618 0.48784 0.0
C757 C 0.77774 0.79777 0.55741 0.0
C758 C 0.77827 0.7997 0.51422 0.0
C759 C 0.76734 0.80217 0.49265 0.0
C760 C 0.78992 0.79923 0.49021 0.0
C761 C 0.78916 0.79589 0.58312 0.0
C762 C 0.79261 0.80862 0.46188 0.0
C763 C 0.80261 0.80757 0.4352 0.0
C764 C 0.81031 0.79726 0.43697 0.0
C765 C 0.80798 0.78808 0.4663 0.0
C766 C 0.79775 0.78897 0.49229 0.0
H767 H 0.78766 0.79882 0.61556 0.0
H768 H 0.79153 0.78597 0.58357 0.0
H769 H 0.7971 0.80106 0.57048 0.0
H770 H 0.78676 0.81665 0.45963 0.0
H771 H 0.80429 0.81479 0.41292 0.0
H772 H 0.4586 0.4456 0.76744 0.0
H773 H 0.45853 0.46571 0.73411 0.0
H774 H 0.44239 0.48184 0.84281 0.0
H775 H 0.44241 0.46174 0.8767 0.0
H776 H 0.43059 0.4875 0.76236 0.0
H777 H 0.48105 0.49578 0.76594 0.0
H778 H 0.47617 0.48102 0.7471 0.0
H779 H 0.47355 0.48503 0.80007 0.0
C780 C 0.45506 0.45341 0.78443 0.0
C781 C 0.45052 0.45205 0.82484 0.0
C782 C 0.45508 0.4649 0.76534 0.0
C783 C 0.45055 0.47522 0.78618 0.0
C784 C 0.44597 0.47394 0.82637 0.0
H785 H 0.45517 0.55213 0.72405 0.0
H786 H 0.45562 0.53203 0.75735 0.0
C787 C 0.44602 0.46246 0.84567 0.0
C788 C 0.45035 0.48732 0.76558 0.0
H789 H 0.46895 0.50998 0.7284 0.0
C790 C 0.43895 0.49244 0.75494 0.0
C791 C 0.4613 0.49371 0.75624 0.0
C792 C 0.47374 0.48869 0.76812 0.0
C793 C 0.43823 0.5038 0.73463 0.0
C794 C 0.44919 0.51009 0.72469 0.0
C795 C 0.46058 0.50504 0.7358 0.0
C796 C 0.449 0.52216 0.70391 0.0
C797 C 0.42578 0.50908 0.7244 0.0
C798 C 0.44525 0.52319 0.66266 0.0
C799 C 0.44504 0.53467 0.64334 0.0
C800 C 0.44852 0.5453 0.66509 0.0
C801 C 0.45237 0.54416 0.70638 0.0
C802 C 0.45266 0.53269 0.72551 0.0
H803 H 0.41823 0.50412 0.74037 0.0
H804 H 0.42536 0.51895 0.73305 0.0
H805 H 0.42421 0.50841 0.69066 0.0
H806 H 0.44252 0.51511 0.64543 0.0
H807 H 0.44204 0.53522 0.61153 0.0
H808 H 0.69383 0.20757 0.97812 0.0
H809 H 0.71367 0.2077 0.0133 0.0
H810 H 0.73134 0.19451 0.90283 0.0
H811 H 0.71149 0.19435 0.86702 0.0
H812 H 0.73707 0.18155 0.98187 0.0
H813 H 0.74274 0.23231 0.98821 0.0
H814 H 0.72809 0.22637 0.00456 0.0
H815 H 0.73267 0.22484 0.95164 0.0
C816 C 0.70192 0.20471 0.96113 0.0
C817 C 0.70106 0.20097 0.91964 0.0
C818 C 0.71325 0.20484 0.98132 0.0
C819 C 0.72393 0.20121 0.96051 0.0
C820 C 0.72316 0.19738 0.91928 0.0
H821 H 0.80011 0.20872 0.02884 0.0
H822 H 0.78011 0.20871 0.99473 0.0
C823 C 0.71182 0.19733 0.89889 0.0
C824 C 0.73589 0.20128 0.98212 0.0
H825 H 0.75731 0.22037 0.02466 0.0
C826 C 0.74152 0.19001 0.99123 0.0
C827 C 0.74164 0.21237 0.99404 0.0
C828 C 0.73606 0.22469 0.98395 0.0
C829 C 0.75277 0.18955 0.01244 0.0
C830 C 0.75842 0.20063 0.02488 0.0
C831 C 0.75285 0.2119 0.01536 0.0
C832 C 0.77041 0.20074 0.04634 0.0
C833 C 0.75863 0.17725 0.0209 0.0
C834 C 0.7715 0.19639 0.0869 0.0
C835 C 0.78293 0.19643 0.10671 0.0
C836 C 0.79345 0.20077 0.08613 0.0
C837 C 0.79223 0.20524 0.04559 0.0
C838 C 0.78081 0.20527 0.026 0.0
H839 H 0.75413 0.16972 0.00336 0.0
H840 H 0.76855 0.17745 0.01286 0.0
H841 H 0.75787 0.17514 0.0543 0.0
H842 H 0.76351 0.19297 0.10318 0.0
H843 H 0.78354 0.19293 0.13791 0.0
H844 H 0.05056 0.4551 0.11313 0.0
H845 H 0.0508 0.47506 0.14787 0.0
H846 H 0.04898 0.45697 0.26601 0.0
H847 H 0.04844 0.43704 0.23172 0.0
H848 H 0.03291 0.47589 0.26088 0.0
H849 H 0.07905 0.49105 0.20888 0.0
H850 H 0.06893 0.48706 0.16725 0.0
H851 H 0.07378 0.47542 0.20311 0.0
C852 C 0.05027 0.45536 0.1465 0.0
C853 C 0.04952 0.44445 0.16959 0.0
C854 C 0.05048 0.46678 0.16633 0.0
C855 C 0.05012 0.46749 0.20957 0.0
C856 C 0.04932 0.45663 0.23263 0.0
H857 H 0.05117 0.5276 0.38789 0.0
H858 H 0.05167 0.50738 0.35463 0.0
C859 C 0.04902 0.44524 0.2129 0.0
C860 C 0.0502 0.47954 0.23092 0.0
H861 H 0.06666 0.50603 0.24262 0.0
C862 C 0.04033 0.48245 0.2571 0.0
C863 C 0.05991 0.48806 0.22604 0.0
C864 C 0.07108 0.48522 0.20012 0.0
C865 C 0.03979 0.49374 0.27789 0.0
C866 C 0.04941 0.5023 0.27254 0.0
C867 C 0.0593 0.49941 0.24655 0.0
C868 C 0.04921 0.51446 0.29286 0.0
C869 C 0.02882 0.49658 0.30471 0.0
C870 C 0.04783 0.52509 0.269 0.0
C871 C 0.04751 0.53662 0.2878 0.0
C872 C 0.04868 0.53775 0.33089 0.0
C873 C 0.05022 0.52706 0.35469 0.0
C874 C 0.05046 0.5155 0.33579 0.0
H875 H 0.0212 0.48995 0.29984 0.0
H876 H 0.0316 0.49617 0.33761 0.0
H877 H 0.02537 0.506 0.29846 0.0
H878 H 0.04689 0.52444 0.23579 0.0
H879 H 0.04637 0.54464 0.26843 0.0
H880 H 0.28595 0.20505 0.44208 0.0
H881 H 0.26476 0.20637 0.46597 0.0
H882 H 0.25176 0.19794 0.34355 0.0
H883 H 0.27304 0.19648 0.31913 0.0
H884 H 0.24595 0.22239 0.43558 0.0
H885 H 0.23377 0.1729 0.41891 0.0
H886 H 0.24952 0.17813 0.41935 0.0
H887 H 0.24012 0.18056 0.37462 0.0
C888 C 0.27863 0.20342 0.42012 0.0
C889 C 0.28124 0.20062 0.37865 0.0
C890 C 0.26651 0.20421 0.43385 0.0
C891 C 0.25671 0.20217 0.4066 0.0
C892 C 0.25921 0.19939 0.36518 0.0
H893 H 0.17964 0.20031 0.4933 0.0
H894 H 0.19705 0.20074 0.44506 0.0
C895 C 0.27138 0.1986 0.3513 0.0
C896 C 0.24395 0.20312 0.42215 0.0
H897 H 0.21907 0.18583 0.4495 0.0
C898 C 0.23999 0.21444 0.43808 0.0
C899 C 0.23616 0.19275 0.42503 0.0
C900 C 0.24006 0.18035 0.40883 0.0
C901 C 0.22869 0.21555 0.45851 0.0
C902 C 0.22125 0.20502 0.46363 0.0
C903 C 0.22484 0.19386 0.44555 0.0
C904 C 0.21056 0.20507 0.49185 0.0
C905 C 0.225 0.2279 0.47562 0.0
C906 C 0.21246 0.20713 0.53407 0.0
C907 C 0.20263 0.20669 0.56159 0.0
C908 C 0.19066 0.20429 0.5474 0.0
C909 C 0.18874 0.20232 0.505 0.0
C910 C 0.19866 0.20252 0.47749 0.0
H911 H 0.22933 0.23551 0.45805 0.0
H912 H 0.21487 0.22912 0.47504 0.0
H913 H 0.22813 0.22858 0.50812 0.0
H914 H 0.22162 0.20887 0.54586 0.0
H915 H 0.20441 0.20824 0.59406 0.0
H916 H 0.54894 0.44158 0.26265 0.0
H917 H 0.54826 0.46173 0.22994 0.0
H918 H 0.55062 0.47913 0.34923 0.0
H919 H 0.55159 0.45897 0.38235 0.0
H920 H 0.53157 0.48019 0.23871 0.0
H921 H 0.57791 0.49617 0.28625 0.0
H922 H 0.57312 0.48037 0.29115 0.0
H923 H 0.56832 0.4916 0.32857 0.0
C924 C 0.54936 0.44967 0.28204 0.0
C925 C 0.55039 0.44865 0.32518 0.0
C926 C 0.54896 0.46119 0.26323 0.0
C927 C 0.54959 0.47192 0.28708 0.0
C928 C 0.55042 0.47096 0.33017 0.0
H929 H 0.54461 0.54931 0.22938 0.0
H930 H 0.54518 0.52919 0.26258 0.0
C931 C 0.5509 0.45943 0.34906 0.0
C932 C 0.54911 0.48408 0.26669 0.0
H933 H 0.56495 0.5109 0.25414 0.0
C934 C 0.53889 0.48688 0.24193 0.0
C935 C 0.5587 0.49278 0.27088 0.0
C936 C 0.57019 0.49007 0.29532 0.0
C937 C 0.53792 0.49823 0.2217 0.0
C938 C 0.54745 0.50693 0.22617 0.0
C939 C 0.55765 0.50417 0.25093 0.0
C940 C 0.54696 0.51902 0.20561 0.0
C941 C 0.52663 0.50093 0.19624 0.0
C942 C 0.54787 0.51992 0.16256 0.0
C943 C 0.5476 0.53142 0.14337 0.0
C944 C 0.54639 0.5422 0.16699 0.0
C945 C 0.54549 0.54121 0.21018 0.0
C946 C 0.54584 0.52973 0.22928 0.0
H947 H 0.51912 0.49425 0.20222 0.0
H948 H 0.52318 0.51034 0.20273 0.0
H949 H 0.52904 0.50045 0.16302 0.0
H950 H 0.54889 0.51173 0.14386 0.0
H951 H 0.54833 0.53184 0.11009 0.0
H952 H 0.28675 0.80069 0.13976 0.0
H953 H 0.26657 0.80021 0.10621 0.0
H954 H 0.28412 0.7981 0.98716 0.0
H955 H 0.30423 0.79832 0.02019 0.0
H956 H 0.25655 0.81616 0.04976 0.0
H957 H 0.2603 0.76954 0.98192 0.0
H958 H 0.27075 0.77507 0.02097 0.0
H959 H 0.27279 0.77944 0.9679 0.0
C960 C 0.28631 0.80008 0.10645 0.0
C961 C 0.29712 0.79945 0.08273 0.0
C962 C 0.27478 0.7998 0.08734 0.0
C963 C 0.27385 0.79888 0.04426 0.0
C964 C 0.28461 0.79848 0.0205 0.0
H965 H 0.21368 0.80055 0.86814 0.0
H966 H 0.23381 0.80085 0.90213 0.0
C967 C 0.29612 0.79869 0.0395 0.0
C968 C 0.26165 0.79866 0.02395 0.0
H969 H 0.24363 0.7819 0.95847 0.0
C970 C 0.25368 0.80864 0.03003 0.0
C971 C 0.25795 0.78882 0.99817 0.0
C972 C 0.26584 0.77756 0.99212 0.0
C973 C 0.2422 0.80916 0.0104 0.0
C974 C 0.23858 0.79939 0.98434 0.0
C975 C 0.24651 0.7894 0.97829 0.0
C976 C 0.22644 0.79925 0.96384 0.0
C977 C 0.23409 0.82022 0.01709 0.0
C978 C 0.21571 0.79811 0.98736 0.0
C979 C 0.20423 0.79788 0.96815 0.0
C980 C 0.20326 0.7988 0.92494 0.0
C981 C 0.21408 0.79987 0.90144 0.0
C982 C 0.22558 0.80003 0.92075 0.0
H983 H 0.23923 0.82804 0.03079 0.0
H984 H 0.22991 0.82326 0.98755 0.0
H985 H 0.22652 0.81774 0.03845 0.0
H986 H 0.21622 0.79732 0.02063 0.0
H987 H 0.19611 0.79702 0.98727 0.0
H988 H 0.93198 0.4673 0.63408 0.0
H989 H 0.93093 0.48727 0.66876 0.0
H990 H 0.963 0.47788 0.74062 0.0
H991 H 0.96358 0.45768 0.70793 0.0
H992 H 0.94727 0.48786 0.78821 0.0
H993 H 0.95047 0.51721 0.64933 0.0
H994 H 0.93743 0.50718 0.64716 0.0
H995 H 0.95274 0.50083 0.64718 0.0
C996 C 0.93884 0.46957 0.65707 0.0
C997 C 0.94789 0.46099 0.66825 0.0
C998 C 0.93829 0.48101 0.6767 0.0
C999 C 0.94704 0.48423 0.70678 0.0
C1000 C 0.95615 0.47566 0.71755 0.0
H1001 H 0.96137 0.55834 0.78895 0.0
H1002 H 0.96124 0.53818 0.75607 0.0
C1003 C 0.9565 0.46413 0.69878 0.0
C1004 C 0.94656 0.49631 0.72816 0.0
H1005 H 0.94525 0.52726 0.71204 0.0
C1006 C 0.94691 0.49648 0.7715 0.0
C1007 C 0.94623 0.50759 0.70647 0.0
C1008 C 0.94683 0.50822 0.66 0.0
C1009 C 0.94707 0.50756 0.7937 0.0
C1010 C 0.94624 0.51882 0.77207 0.0
C1011 C 0.94577 0.51864 0.72874 0.0
C1012 C 0.9464 0.53093 0.79337 0.0
C1013 C 0.9486 0.507 0.83995 0.0
C1014 C 0.93812 0.53364 0.82542 0.0
C1015 C 0.93843 0.54509 0.8451 0.0
C1016 C 0.94673 0.55416 0.83208 0.0
C1017 C 0.95484 0.55153 0.79954 0.0
C1018 C 0.95475 0.54001 0.78067 0.0
H1019 H 0.95297 0.49826 0.84977 0.0
H1020 H 0.95428 0.51474 0.85151 0.0
H1021 H 0.93942 0.50748 0.85477 0.0
H1022 H 0.93131 0.52697 0.83494 0.0
H1023 H 0.93196 0.54695 0.86973 0.0
H1024 H 0.15404 0.25486 0.01127 0.0
H1025 H 0.15378 0.24904 0.93846 0.0
H1026 H 0.17144 0.28318 0.90656 0.0
H1027 H 0.17183 0.28908 0.97948 0.0
H1028 H 0.14329 0.2615 0.86911 0.0
H1029 H 0.19407 0.25628 0.85666 0.0
H1030 H 0.18627 0.257 0.90574 0.0
H1031 H 0.18849 0.27073 0.87604 0.0
C1032 C 0.15783 0.26117 0.98883 0.0
C1033 C 0.16302 0.2724 0.00127 0.0
C1034 C 0.15765 0.25783 0.9472 0.0
C1035 C 0.16273 0.26561 0.91722 0.0
C1036 C 0.16764 0.27697 0.92931 0.0
H1037 H 0.15243 0.24633 0.65478 0.0
H1038 H 0.1547 0.2591 0.71674 0.0
C1039 C 0.1678 0.28034 0.97098 0.0
C1040 C 0.16302 0.26162 0.87351 0.0
H1041 H 0.18239 0.25169 0.79756 0.0
C1042 C 0.15183 0.2595 0.85319 0.0
C1043 C 0.17419 0.25896 0.85304 0.0
C1044 C 0.18646 0.26076 0.87391 0.0
C1045 C 0.15149 0.25447 0.81331 0.0
C1046 C 0.16266 0.2516 0.79312 0.0
C1047 C 0.17386 0.25403 0.813 0.0
C1048 C 0.16283 0.24469 0.7537 0.0
C1049 C 0.13919 0.25169 0.79392 0.0
C1050 C 0.16715 0.23256 0.75345 0.0
C1051 C 0.1659 0.22529 0.71826 0.0
C1052 C 0.16036 0.23001 0.68243 0.0
C1053 C 0.15672 0.24241 0.68189 0.0
C1054 C 0.15794 0.2497 0.71732 0.0
H1055 H 0.13149 0.25269 0.81621 0.0
H1056 H 0.13755 0.25811 0.76795 0.0
H1057 H 0.13906 0.24219 0.78136 0.0
H1058 H 0.17099 0.22853 0.78117 0.0
H1059 H 0.16882 0.2158 0.71987 0.0
H1060 H 0.00149 0.89721 0.89607 0.0
H1061 H 0.98756 0.89967 0.95521 0.0
H1062 H 0.01095 0.9282 0.00377 0.0
H1063 H 0.02471 0.92587 0.94507 0.0
H1064 H 0.99579 0.8956 0.03643 0.0
H1065 H 0.97651 0.94238 0.02141 0.0
H1066 H 0.9831 0.93414 0.97832 0.0
H1067 H 0.99287 0.94211 0.01431 0.0
C1068 C 0.00344 0.90424 0.91881 0.0
C1069 C 0.01425 0.91126 0.91626 0.0
C1070 C 0.99551 0.9056 0.9526 0.0
C1071 C 0.99818 0.91418 0.98373 0.0
C1072 C 0.0086 0.92166 0.97984 0.0
H1073 H 0.98757 0.93313 0.2326 0.0
H1074 H 0.99234 0.93081 0.15948 0.0
C1075 C 0.01655 0.92022 0.94646 0.0
C1076 C 0.99111 0.91438 0.02281 0.0
H1077 H 0.97717 0.93398 0.09036 0.0
C1078 C 0.99144 0.90389 0.04795 0.0
C1079 C 0.9855 0.92521 0.03771 0.0
C1080 C 0.98435 0.93656 0.01134 0.0
C1081 C 0.98707 0.90421 0.0887 0.0
C1082 C 0.98204 0.91526 0.10435 0.0
C1083 C 0.9811 0.92554 0.0784 0.0
C1084 C 0.97874 0.91668 0.14847 0.0
C1085 C 0.98857 0.89296 0.11542 0.0
C1086 C 0.96943 0.90956 0.16655 0.0
C1087 C 0.96673 0.91081 0.20857 0.0
C1088 C 0.97323 0.91926 0.23314 0.0
C1089 C 0.98242 0.92649 0.21469 0.0
C1090 C 0.98512 0.92522 0.17282 0.0
H1091 H 0.99474 0.88603 0.1011 0.0
H1092 H 0.99235 0.89549 0.1461 0.0
H1093 H 0.97946 0.88863 0.12026 0.0
H1094 H 0.96425 0.90307 0.14816 0.0
H1095 H 0.95953 0.90518 0.22175 0.0
H1096 H 0.36024 0.72317 0.45693 0.0
H1097 H 0.35735 0.73142 0.38771 0.0
H1098 H 0.32458 0.70956 0.37301 0.0
H1099 H 0.32725 0.70141 0.44282 0.0
H1100 H 0.35492 0.7215 0.30887 0.0
H1101 H 0.31202 0.7448 0.3606 0.0
H1102 H 0.32255 0.73769 0.39631 0.0
H1103 H 0.31234 0.72838 0.36593 0.0
C1104 C 0.35251 0.71996 0.43883 0.0
C1105 C 0.34386 0.7118 0.45565 0.0
C1106 C 0.35089 0.72467 0.39921 0.0
C1107 C 0.34061 0.72129 0.37564 0.0
C1108 C 0.33243 0.71247 0.39111 0.0
H1109 H 0.33456 0.75479 0.12858 0.0
H1110 H 0.33388 0.73913 0.18277 0.0
C1111 C 0.33401 0.70778 0.4309 0.0
C1112 C 0.33809 0.72782 0.33654 0.0
H1113 H 0.31888 0.74907 0.29364 0.0
C1114 C 0.34696 0.72739 0.30515 0.0
C1115 C 0.32773 0.73558 0.33214 0.0
C1116 C 0.31814 0.73677 0.36557 0.0
C1117 C 0.34598 0.73489 0.27009 0.0
C1118 C 0.33576 0.74284 0.26616 0.0
C1119 C 0.32666 0.7429 0.29676 0.0
C1120 C 0.33505 0.75215 0.23305 0.0
C1121 C 0.35624 0.73474 0.23874 0.0
C1122 C 0.33546 0.76465 0.24349 0.0
C1123 C 0.33575 0.7736 0.21275 0.0
C1124 C 0.33562 0.7702 0.17095 0.0
C1125 C 0.33474 0.75768 0.16054 0.0
C1126 C 0.33442 0.74872 0.1914 0.0
H1127 H 0.36447 0.72973 0.25013 0.0
H1128 H 0.35299 0.73011 0.21024 0.0
H1129 H 0.359 0.74424 0.2305 0.0
H1130 H 0.33593 0.76748 0.27551 0.0
H1131 H 0.33645 0.78314 0.22184 0.0
H1132 H 0.52282 0.11088 0.71358 0.0
H1133 H 0.51342 0.10864 0.64569 0.0
H1134 H 0.53369 0.07511 0.62586 0.0
H1135 H 0.54303 0.07714 0.69427 0.0
H1136 H 0.52245 0.10622 0.56531 0.0
H1137 H 0.49761 0.0643 0.61727 0.0
H1138 H 0.50554 0.07433 0.6527 0.0
H1139 H 0.51408 0.06378 0.62116 0.0
C1140 C 0.52543 0.1031 0.69463 0.0
C1141 C 0.53353 0.09408 0.70959 0.0
C1142 C 0.52006 0.10186 0.65578 0.0
C1143 C 0.52267 0.09158 0.63119 0.0
C1144 C 0.53137 0.08297 0.6448 0.0
H1145 H 0.4894 0.08683 0.38438 0.0
H1146 H 0.50456 0.08587 0.44009 0.0
C1147 C 0.53674 0.08419 0.68378 0.0
C1148 C 0.51561 0.08959 0.59276 0.0
H1149 H 0.49343 0.07135 0.55027 0.0
C1150 C 0.51621 0.09852 0.56169 0.0
C1151 C 0.50738 0.0796 0.58854 0.0
C1152 C 0.50599 0.06999 0.62174 0.0
C1153 C 0.50856 0.09792 0.52689 0.0
C1154 C 0.50025 0.08799 0.52288 0.0
C1155 C 0.49988 0.07889 0.55342 0.0
C1156 C 0.49114 0.08745 0.48903 0.0
C1157 C 0.50903 0.1082 0.49572 0.0
C1158 C 0.47856 0.08815 0.49821 0.0
C1159 C 0.46987 0.08859 0.46654 0.0
C1160 C 0.47363 0.08833 0.4251 0.0
C1161 C 0.48622 0.08714 0.41601 0.0
C1162 C 0.4949 0.08666 0.44775 0.0
H1163 H 0.5141 0.11632 0.50762 0.0
H1164 H 0.51379 0.10493 0.46752 0.0
H1165 H 0.49961 0.11112 0.48686 0.0
H1166 H 0.47547 0.08873 0.52993 0.0
H1167 H 0.46025 0.08952 0.47457 0.0
H1168 H 0.16366 0.75367 0.87587 0.0
H1169 H 0.16314 0.73826 0.82086 0.0
H1170 H 0.16455 0.76705 0.72969 0.0
H1171 H 0.16512 0.78247 0.78426 0.0
H1172 H 0.14461 0.73671 0.76174 0.0
H1173 H 0.19008 0.7424 0.68758 0.0
H1174 H 0.18678 0.74807 0.73879 0.0
H1175 H 0.18214 0.75672 0.69416 0.0
C1176 C 0.1641 0.75671 0.84411 0.0
C1177 C 0.16445 0.7693 0.83441 0.0
C1178 C 0.16378 0.7479 0.81277 0.0
C1179 C 0.16394 0.75152 0.77128 0.0
C1180 C 0.16467 0.76405 0.76154 0.0
H1181 H 0.13368 0.72514 0.54973 0.0
H1182 H 0.1375 0.73296 0.61907 0.0
C1183 C 0.16495 0.77287 0.7928 0.0
C1184 C 0.16223 0.74237 0.73801 0.0
H1185 H 0.17433 0.73283 0.64645 0.0
C1186 C 0.1512 0.73568 0.73686 0.0
C1187 C 0.17091 0.74091 0.70596 0.0
C1188 C 0.1832 0.74731 0.70682 0.0
C1189 C 0.1483 0.72812 0.70317 0.0
C1190 C 0.15658 0.7274 0.66967 0.0
C1191 C 0.16793 0.73349 0.67202 0.0
C1192 C 0.15327 0.7213 0.63041 0.0
C1193 C 0.1363 0.72119 0.70337 0.0
C1194 C 0.16082 0.71208 0.61387 0.0
C1195 C 0.15868 0.70761 0.57408 0.0
C1196 C 0.14904 0.71241 0.55001 0.0
C1197 C 0.14117 0.72124 0.56743 0.0
C1198 C 0.1433 0.72567 0.60721 0.0
H1199 H 0.13306 0.71948 0.73535 0.0
H1200 H 0.12919 0.72674 0.6874 0.0
H1201 H 0.13717 0.71225 0.6871 0.0
H1202 H 0.1686 0.70864 0.63124 0.0
H1203 H 0.16492 0.70081 0.56157 0.0
H1204 H 0.46637 0.91916 0.02243 0.0
H1205 H 0.48125 0.91734 0.9663 0.0
H1206 H 0.511 0.91826 0.05413 0.0
H1207 H 0.49619 0.92001 0.11062 0.0
H1208 H 0.50204 0.93195 0.94212 0.0
H1209 H 0.51483 0.88484 0.9934 0.0
H1210 H 0.50128 0.89263 0.01207 0.0
H1211 H 0.51617 0.89684 0.03127 0.0
C1212 C 0.47608 0.91919 0.02982 0.0
C1213 C 0.4801 0.91961 0.07099 0.0
C1214 C 0.48456 0.91814 0.99771 0.0
C1215 C 0.49718 0.91745 0.00624 0.0
C1216 C 0.50128 0.91857 0.04707 0.0
H1217 H 0.55068 0.91513 0.80364 0.0
H1218 H 0.54144 0.91964 0.87078 0.0
C1219 C 0.4928 0.91964 0.07923 0.0
C1220 C 0.50592 0.91482 0.97247 0.0
H1221 H 0.52444 0.8923 0.93347 0.0
C1222 C 0.50706 0.92336 0.94037 0.0
C1223 C 0.51233 0.90352 0.97028 0.0
C1224 C 0.51107 0.89386 0.00336 0.0
C1225 C 0.51429 0.9208 0.90557 0.0
C1226 C 0.52061 0.90946 0.90321 0.0
C1227 C 0.51966 0.90102 0.93569 0.0
C1228 C 0.52731 0.90575 0.86553 0.0
C1229 C 0.51467 0.93001 0.87081 0.0
C1230 C 0.52277 0.89607 0.84142 0.0
C1231 C 0.52804 0.89342 0.8032 0.0
C1232 C 0.53797 0.90041 0.7885 0.0
C1233 C 0.54299 0.90961 0.81396 0.0
C1234 C 0.53769 0.91226 0.85221 0.0
H1235 H 0.50758 0.93727 0.87436 0.0
H1236 H 0.52383 0.9345 0.87026 0.0
H1237 H 0.51329 0.92537 0.84065 0.0
H1238 H 0.51479 0.89089 0.85137 0.0
H1239 H 0.524 0.88623 0.78448 0.0
H1240 H 0.33618 0.29652 0.03383 0.0
H1241 H 0.33083 0.28979 0.10345 0.0
H1242 H 0.35834 0.26134 0.09641 0.0
H1243 H 0.36382 0.26803 0.02699 0.0
H1244 H 0.32164 0.2665 0.11724 0.0
H1245 H 0.36286 0.27452 0.21361 0.0
H1246 H 0.36044 0.28221 0.16489 0.0
H1247 H 0.36643 0.2668 0.16617 0.0
C1248 C 0.34132 0.28903 0.04748 0.0
C1249 C 0.35037 0.28273 0.02473 0.0
C1250 C 0.33824 0.28521 0.08726 0.0
C1251 C 0.34424 0.27513 0.10514 0.0
C1252 C 0.35375 0.26928 0.08346 0.0
H1253 H 0.32314 0.21607 0.25496 0.0
H1254 H 0.32645 0.23136 0.20116 0.0
C1255 C 0.35682 0.27307 0.04365 0.0
C1256 C 0.33954 0.26966 0.14378 0.0
H1257 H 0.34869 0.25905 0.23785 0.0
C1258 C 0.32747 0.26508 0.14397 0.0
C1259 C 0.3471 0.26794 0.17874 0.0
C1260 C 0.35989 0.27324 0.1811 0.0
C1261 C 0.32304 0.25815 0.17719 0.0
C1262 C 0.33092 0.25566 0.21077 0.0
C1263 C 0.34271 0.26089 0.2118 0.0
C1264 C 0.32755 0.24676 0.24324 0.0
C1265 C 0.31006 0.25328 0.17563 0.0
C1266 C 0.32702 0.25038 0.2847 0.0
C1267 C 0.32507 0.24165 0.3156 0.0
C1268 C 0.32379 0.22915 0.30548 0.0
C1269 C 0.324 0.22562 0.26379 0.0
C1270 C 0.32586 0.23436 0.23296 0.0
H1271 H 0.3042 0.25884 0.15467 0.0
H1272 H 0.31021 0.24372 0.1638 0.0
H1273 H 0.30584 0.25321 0.2068 0.0
H1274 H 0.32838 0.25991 0.29317 0.0
H1275 H 0.32502 0.24465 0.34746 0.0
H1276 H 0.00639 0.07544 0.60392 0.0
H1277 H 0.99113 0.07698 0.54876 0.0
H1278 H 0.0202 0.07946 0.45878 0.0
H1279 H 0.03552 0.07788 0.51359 0.0
H1280 H 0.98911 0.09723 0.49642 0.0
H1281 H 0.99651 0.05444 0.40729 0.0
H1282 H 0.00192 0.05636 0.45959 0.0
H1283 H 0.0105 0.06268 0.4172 0.0
C1284 C 0.00955 0.07607 0.57231 0.0
C1285 C 0.02218 0.07654 0.5631 0.0
C1286 C 0.00081 0.07697 0.54089 0.0
C1287 C 0.00454 0.07823 0.49974 0.0
C1288 C 0.01713 0.07827 0.4903 0.0
H1289 H 0.97648 0.11329 0.28828 0.0
H1290 H 0.98469 0.10805 0.35607 0.0
C1291 C 0.02588 0.07741 0.52169 0.0
C1292 C 0.99539 0.08062 0.46698 0.0
H1293 H 0.98608 0.07083 0.37209 0.0
C1294 C 0.98828 0.09136 0.46951 0.0
C1295 C 0.9942 0.07286 0.43226 0.0
C1296 C 0.0011 0.06087 0.42901 0.0
C1297 C 0.98053 0.09491 0.43705 0.0
C1298 C 0.98001 0.08759 0.4011 0.0
C1299 C 0.98658 0.07649 0.39959 0.0
C1300 C 0.97359 0.0917 0.36333 0.0
C1301 C 0.97314 0.10657 0.44122 0.0
C1302 C 0.96452 0.08432 0.34515 0.0
C1303 C 0.95982 0.08728 0.30629 0.0
C1304 C 0.96424 0.09759 0.28476 0.0
C1305 C 0.97288 0.10529 0.30402 0.0
C1306 C 0.97753 0.10235 0.3429 0.0
H1307 H 0.97152 0.10893 0.47412 0.0
H1308 H 0.97831 0.11426 0.427 0.0
H1309 H 0.96413 0.10577 0.42532 0.0
H1310 H 0.9614 0.07603 0.36039 0.0
H1311 H 0.95318 0.08114 0.29231 0.0
H1312 H 0.84672 0.70337 0.02142 0.0
H1313 H 0.84658 0.70987 0.0938 0.0
H1314 H 0.81843 0.73655 0.06631 0.0
H1315 H 0.81832 0.72999 0.99446 0.0
H1316 H 0.85214 0.73226 0.12404 0.0
H1317 H 0.8045 0.72075 0.16857 0.0
H1318 H 0.81155 0.71486 0.12216 0.0
H1319 H 0.80487 0.73001 0.12289 0.0
C1320 C 0.84041 0.71054 0.03089 0.0
C1321 C 0.83252 0.71615 0.00213 0.0
C1322 C 0.84033 0.71422 0.07227 0.0
C1323 C 0.83232 0.72352 0.08567 0.0
C1324 C 0.82444 0.72911 0.05701 0.0
H1325 H 0.82816 0.77725 0.27106 0.0
H1326 H 0.82518 0.76311 0.21346 0.0
C1327 C 0.82448 0.72542 0.01576 0.0
C1328 C 0.83283 0.72814 0.12872 0.0
H1329 H 0.81476 0.73595 0.21091 0.0
C1330 C 0.84403 0.73282 0.1434 0.0
C1331 C 0.82224 0.72883 0.15405 0.0
C1332 C 0.81015 0.72322 0.14127 0.0
C1333 C 0.84476 0.7388 0.18165 0.0
C1334 C 0.83403 0.74009 0.20584 0.0
C1335 C 0.82295 0.73496 0.1921 0.0
C1336 C 0.83405 0.74776 0.24345 0.0
C1337 C 0.85685 0.74428 0.19518 0.0
C1338 C 0.83962 0.74362 0.27989 0.0
C1339 C 0.84126 0.75167 0.31312 0.0
C1340 C 0.83746 0.764 0.3101 0.0
C1341 C 0.83123 0.76785 0.27438 0.0
C1342 C 0.8295 0.75978 0.24141 0.0
H1343 H 0.86415 0.74318 0.17149 0.0
H1344 H 0.85569 0.75421 0.20193 0.0
H1345 H 0.85996 0.73974 0.22401 0.0
H1346 H 0.84316 0.73434 0.28193 0.0
H1347 H 0.84611 0.74843 0.34018 0.0
H1348 H 0.99572 0.08509 0.10991 0.0
H1349 H 0.0112 0.08319 0.05538 0.0
H1350 H 0.98286 0.08712 0.96324 0.0
H1351 H 0.96737 0.08882 0.01726 0.0
H1352 H -0.0005 0.06862 0.94531 0.0
H1353 H 0.02331 0.11221 0.98625 0.0
H1354 H 0.02209 0.101 0.02668 0.0
H1355 H 0.00845 0.1082 0.00692 0.0
C1356 C 0.99279 0.08547 0.07801 0.0
C1357 C 0.98033 0.08715 0.06786 0.0
C1358 C 0.00165 0.08445 0.04695 0.0
C1359 C 0.99819 0.08521 0.00534 0.0
C1360 C 0.98572 0.08654 0.9952 0.0
H1361 H 0.02975 0.10646 0.78031 0.0
H1362 H 0.02118 0.10473 0.84953 0.0
C1363 C 0.97687 0.0875 0.02613 0.0
C1364 C 0.00745 0.08489 0.97194 0.0
H1365 H 0.0306 0.10154 0.92816 0.0
C1366 C 0.00642 0.07572 0.94175 0.0
C1367 C 0.01639 0.09422 0.96744 0.0
C1368 C 0.01763 0.10454 0.9983 0.0
C1369 C 0.01376 0.07588 0.90622 0.0
C1370 C 0.02256 0.08535 0.90129 0.0
C1371 C 0.02391 0.09425 0.93228 0.0
C1372 C 0.02932 0.08697 0.86208 0.0
C1373 C 0.01152 0.06634 0.87322 0.0
C1374 C 0.03714 0.07778 0.84683 0.0
C1375 C 0.04198 0.07869 0.807 0.0
C1376 C 0.03915 0.08888 0.78203 0.0
C1377 C 0.03203 0.09845 0.79859 0.0
C1378 C 0.02714 0.0975 0.83823 0.0
H1379 H 0.00283 0.06121 0.87838 0.0
H1380 H 0.01112 0.07067 0.84225 0.0
H1381 H 0.01919 0.05963 0.87327 0.0
H1382 H 0.03914 0.06971 0.86515 0.0
H1383 H 0.04755 0.07122 0.79529 0.0
H1384 H 0.63649 0.27449 0.54385 0.0
H1385 H 0.63926 0.26756 0.61469 0.0
H1386 H 0.67128 0.29064 0.62675 0.0
H1387 H 0.66871 0.29749 0.55545 0.0
H1388 H 0.67611 0.26708 0.64634 0.0
H1389 H 0.63419 0.28186 0.72852 0.0
H1390 H 0.63042 0.27408 0.68141 0.0
H1391 H 0.63874 0.28838 0.67963 0.0
C1392 C 0.64396 0.27832 0.5618 0.0
C1393 C 0.65243 0.28646 0.54388 0.0
C1394 C 0.64548 0.27442 0.60248 0.0
C1395 C 0.6554 0.27868 0.62616 0.0
C1396 C 0.66352 0.28729 0.60905 0.0
H1397 H 0.66131 0.2454 0.87256 0.0
H1398 H 0.66187 0.26131 0.81917 0.0
C1399 C 0.66203 0.29119 0.5683 0.0
C1400 C 0.65813 0.2729 0.66645 0.0
H1401 H 0.64466 0.26399 0.75655 0.0
C1402 C 0.66934 0.26663 0.67085 0.0
C1403 C 0.6494 0.27246 0.69869 0.0
C1404 C 0.63757 0.27968 0.69702 0.0
C1405 C 0.67167 0.25923 0.70532 0.0
C1406 C 0.66247 0.25791 0.73574 0.0
C1407 C 0.65164 0.26488 0.73286 0.0
C1408 C 0.66335 0.24848 0.76842 0.0
C1409 C 0.68383 0.25261 0.70827 0.0
C1410 C 0.66403 0.23603 0.7575 0.0
C1411 C 0.66369 0.22695 0.78778 0.0
C1412 C 0.66261 0.23014 0.82961 0.0
C1413 C 0.6622 0.24264 0.84059 0.0
C1414 C 0.66251 0.25174 0.81019 0.0
H1415 H 0.69112 0.25755 0.69101 0.0
H1416 H 0.68678 0.25155 0.74086 0.0
H1417 H 0.68288 0.24332 0.69449 0.0
H1418 H 0.6644 0.23331 0.72538 0.0
H1419 H 0.66389 0.21742 0.7782 0.0
H1420 H 0.45783 0.92286 0.30341 0.0
H1421 H 0.46792 0.92502 0.37055 0.0
H1422 H 0.48848 0.89183 0.34796 0.0
H1423 H 0.47837 0.88948 0.28123 0.0
H1424 H 0.4799 0.89414 0.4296 0.0
H1425 H 0.50416 0.93613 0.37535 0.0
H1426 H 0.48766 0.93651 0.37236 0.0
H1427 H 0.49613 0.92596 0.34062 0.0
C1428 C 0.46434 0.9159 0.31303 0.0
C1429 C 0.46742 0.90608 0.28676 0.0
C1430 C 0.47015 0.91721 0.35126 0.0
C1431 C 0.47912 0.90873 0.3637 0.0
C1432 C 0.48164 0.89852 0.33872 0.0
H1433 H 0.54166 0.91161 0.52256 0.0
H1434 H 0.52687 0.91217 0.46572 0.0
C1435 C 0.47585 0.8972 0.30057 0.0
C1436 C 0.48648 0.91077 0.40146 0.0
H1437 H 0.50861 0.92936 0.44263 0.0
C1438 C 0.48609 0.9019 0.43274 0.0
C1439 C 0.49466 0.92083 0.40501 0.0
C1440 C 0.49581 0.93037 0.37149 0.0
C1441 C 0.49381 0.9027 0.46731 0.0
C1442 C 0.50199 0.91275 0.47084 0.0
C1443 C 0.50225 0.92173 0.43987 0.0
C1444 C 0.51089 0.91366 0.50519 0.0
C1445 C 0.49349 0.89253 0.49892 0.0
C1446 C 0.50682 0.91473 0.54604 0.0
C1447 C 0.51524 0.91438 0.57854 0.0
C1448 C 0.52788 0.91305 0.57068 0.0
C1449 C 0.53199 0.91263 0.52961 0.0
C1450 C 0.52355 0.91294 0.49713 0.0
H1451 H 0.48863 0.88426 0.48724 0.0
H1452 H 0.50295 0.88984 0.50815 0.0
H1453 H 0.4886 0.89581 0.52685 0.0
H1454 H 0.4971 0.91554 0.55281 0.0
H1455 H 0.51179 0.91483 0.60984 0.0
H1456 H 0.83226 0.21602 0.22665 0.0
H1457 H 0.83299 0.23153 0.28096 0.0
H1458 H 0.83461 0.26016 0.18927 0.0
H1459 H 0.83395 0.24467 0.13455 0.0
H1460 H 0.85304 0.26181 0.24827 0.0
H1461 H 0.80757 0.25632 0.3225 0.0
H1462 H 0.8155 0.24197 0.31643 0.0
H1463 H 0.81087 0.2505 0.27149 0.0
C1464 C 0.83252 0.22562 0.21795 0.0
C1465 C 0.83303 0.22911 0.17629 0.0
C1466 C 0.83289 0.23448 0.24906 0.0
C1467 C 0.83371 0.24699 0.23909 0.0
C1468 C 0.8339 0.25054 0.19754 0.0
H1469 H 0.83255 0.29789 0.44808 0.0
H1470 H 0.82895 0.29006 0.37838 0.0
C1471 C 0.83351 0.24168 0.16637 0.0
C1472 C 0.83543 0.25619 0.27216 0.0
H1473 H 0.82332 0.26595 0.36343 0.0
C1474 C 0.84645 0.2629 0.27312 0.0
C1475 C 0.82675 0.25774 0.30415 0.0
C1476 C 0.81445 0.25134 0.30345 0.0
C1477 C 0.84934 0.27055 0.30658 0.0
C1478 C 0.84107 0.27135 0.34006 0.0
C1479 C 0.82972 0.26524 0.33788 0.0
C1480 C 0.84438 0.27752 0.37918 0.0
C1481 C 0.86133 0.2775 0.30613 0.0
C1482 C 0.85439 0.27324 0.40235 0.0
C1483 C 0.85648 0.27768 0.44213 0.0
C1484 C 0.84852 0.28642 0.4596 0.0
C1485 C 0.83885 0.29115 0.43553 0.0
C1486 C 0.83676 0.28669 0.39573 0.0
H1487 H 0.86452 0.27919 0.27408 0.0
H1488 H 0.86048 0.28645 0.32234 0.0
H1489 H 0.86848 0.27197 0.322 0.0
H1490 H 0.86024 0.26599 0.39051 0.0
H1491 H 0.864 0.27384 0.45983 0.0
H1492 H 0.44885 0.08436 0.19523 0.0
H1493 H 0.4581 0.07998 0.12797 0.0
H1494 H 0.48295 0.11046 0.14393 0.0
H1495 H 0.47371 0.11501 0.21082 0.0
H1496 H 0.47355 0.10795 0.06271 0.0
H1497 H 0.49269 0.06424 0.12449 0.0
H1498 H 0.4763 0.06608 0.12818 0.0
H1499 H 0.48625 0.07595 0.15744 0.0
C1500 C 0.45613 0.09028 0.1841 0.0
C1501 C 0.46066 0.09995 0.20861 0.0
C1502 C 0.46144 0.08771 0.14579 0.0
C1503 C 0.47136 0.09474 0.13149 0.0
C1504 C 0.47535 0.10488 0.15462 0.0
H1505 H 0.53296 0.08274 0.9759 0.0
H1506 H 0.51794 0.08448 0.03164 0.0
C1507 C 0.47006 0.10746 0.19286 0.0
C1508 C 0.4782 0.09116 0.09395 0.0
H1509 H 0.49787 0.06942 0.05632 0.0
C1510 C 0.47876 0.09947 0.06098 0.0
C1511 C 0.48509 0.08014 0.09223 0.0
C1512 C 0.48518 0.0711 0.12752 0.0
C1513 C 0.48623 0.09717 0.02658 0.0
C1514 C 0.49319 0.08619 0.02502 0.0
C1515 C 0.49244 0.07777 0.05758 0.0
C1516 C 0.50207 0.08381 0.99142 0.0
C1517 C 0.48705 0.10675 0.99305 0.0
C1518 C 0.49809 0.08244 0.95055 0.0
C1519 C 0.50665 0.08144 0.91861 0.0
C1520 C 0.51933 0.08175 0.9271 0.0
C1521 C 0.52326 0.08248 0.96832 0.0
C1522 C 0.5147 0.08348 0.00021 0.0
H1523 H 0.48296 0.11565 0.00271 0.0
H1524 H 0.49677 0.10833 0.98406 0.0
H1525 H 0.48202 0.10346 0.9654 0.0
H1526 H 0.48837 0.08245 0.94328 0.0
H1527 H 0.50333 0.08082 0.88718 0.0
H1528 H 0.66302 0.70235 0.97031 0.0
H1529 H 0.66899 0.71143 0.90432 0.0
H1530 H 0.64403 0.74156 0.92532 0.0
H1531 H 0.63796 0.73257 0.9913 0.0
H1532 H 0.645 0.73192 0.8408 0.0
H1533 H 0.69073 0.74329 0.90813 0.0
H1534 H 0.68589 0.72752 0.91125 0.0
H1535 H 0.67771 0.73909 0.93961 0.0
C1536 C 0.6586 0.71078 0.96054 0.0
C1537 C 0.65013 0.71684 0.98631 0.0
C1538 C 0.66208 0.71597 0.92294 0.0
C1539 C 0.65711 0.72725 0.91052 0.0
C1540 C 0.64801 0.73287 0.93465 0.0
H1541 H 0.67849 0.78631 0.75399 0.0
H1542 H 0.6743 0.77223 0.81105 0.0
C1543 C 0.64456 0.72772 0.97231 0.0
C1544 C 0.66201 0.73373 0.87408 0.0
H1545 H 0.68703 0.74968 0.8399 0.0
C1546 C 0.65422 0.7357 0.84029 0.0
C1547 C 0.67401 0.73874 0.874 0.0
C1548 C 0.68259 0.73716 0.91022 0.0
C1549 C 0.65809 0.7427 0.80641 0.0
C1550 C 0.67007 0.74776 0.80644 0.0
C1551 C 0.6779 0.74568 0.84002 0.0
C1552 C 0.67426 0.75591 0.77294 0.0
C1553 C 0.64923 0.74499 0.77144 0.0
C1554 C 0.67612 0.75128 0.73311 0.0
C1555 C 0.67857 0.75928 0.7005 0.0
C1556 C 0.67917 0.77203 0.7073 0.0
C1557 C 0.67806 0.77655 0.74774 0.0
C1558 C 0.67565 0.76853 0.78035 0.0
H1559 H 0.63971 0.7421 0.77924 0.0
H1560 H 0.64912 0.75488 0.7631 0.0
H1561 H 0.65224 0.73974 0.74389 0.0
H1562 H 0.67524 0.74154 0.72702 0.0
H1563 H 0.67944 0.75551 0.66972 0.0
H1564 H 0.99349 0.92772 0.44031 0.0
H1565 H 0.00383 0.92946 0.50692 0.0
H1566 H 0.9687 0.93097 0.56832 0.0
H1567 H 0.95826 0.9289 0.50182 0.0
H1568 H 0.00349 0.94583 0.57442 0.0
H1569 H 0.98432 0.89997 0.61571 0.0
H1570 H 0.98332 0.90606 0.56414 0.0
H1571 H 0.97338 0.91182 0.60394 0.0
C1572 C 0.98794 0.92863 0.46787 0.0
C1573 C 0.97505 0.92798 0.46578 0.0
C1574 C 0.99387 0.92966 0.50596 0.0
C1575 C 0.98704 0.9301 0.54264 0.0
C1576 C 0.97415 0.93039 0.54045 0.0
H1577 H 0.02279 0.90524 0.76906 0.0
H1578 H 0.00749 0.91747 0.73133 0.0
C1579 C 0.96821 0.92927 0.50235 0.0
C1580 C 0.99349 0.92893 0.58277 0.0
H1581 H 0.99913 0.90824 0.65947 0.0
C1582 C 0.00238 0.93772 0.59351 0.0
C1583 C 0.99197 0.9184 0.60788 0.0
C1584 C 0.98281 0.90846 0.59739 0.0
C1585 C 0.01024 0.93592 0.62736 0.0
C1586 C 0.0093 0.92498 0.65063 0.0
C1587 C -0.00018 0.91666 0.64174 0.0
C1588 C 0.01925 0.92079 0.67865 0.0
C1589 C 0.01976 0.94556 0.63704 0.0
C1590 C 0.03107 0.91901 0.66235 0.0
C1591 C 0.03972 0.91205 0.68374 0.0
C1592 C 0.03676 0.90674 0.72189 0.0
C1593 C 0.02534 0.90938 0.73999 0.0
C1594 C 0.01659 0.91631 0.71834 0.0
H1595 H 0.01636 0.95485 0.62868 0.0
H1596 H 0.02229 0.94548 0.67022 0.0
H1597 H 0.02815 0.94376 0.61852 0.0
H1598 H 0.03329 0.9221 0.6315 0.0
H1599 H 0.04847 0.91014 0.66911 0.0
H1600 H 0.68578 0.79172 0.47201 0.0
H1601 H 0.68693 0.78247 0.40331 0.0
H1602 H 0.65091 0.76672 0.42027 0.0
H1603 H 0.64959 0.77603 0.48854 0.0
H1604 H 0.68641 0.75763 0.38896 0.0
H1605 H 0.64869 0.78043 0.30392 0.0
H1606 H 0.65488 0.78651 0.35142 0.0
H1607 H 0.64365 0.77438 0.3525 0.0
C1608 C 0.67799 0.7865 0.46077 0.0
C1609 C 0.6676 0.78457 0.48579 0.0
C1610 C 0.67868 0.78121 0.42155 0.0
C1611 C 0.66896 0.77401 0.40659 0.0
C1612 C 0.65841 0.77244 0.43088 0.0
H1613 H 0.66567 0.71183 0.24872 0.0
H1614 H 0.66903 0.72647 0.30477 0.0
C1615 C 0.65771 0.77772 0.47004 0.0
C1616 C 0.67025 0.76713 0.36746 0.0
H1617 H 0.65553 0.76097 0.27696 0.0
C1618 C 0.67978 0.75849 0.36412 0.0
C1619 C 0.6617 0.76839 0.3349 0.0
C1620 C 0.65173 0.77802 0.33562 0.0
C1621 C 0.68061 0.75062 0.32998 0.0
C1622 C 0.67154 0.75128 0.29884 0.0
C1623 C 0.6624 0.76037 0.30114 0.0
C1624 C 0.67092 0.74227 0.26473 0.0
C1625 C 0.69111 0.74158 0.32781 0.0
C1626 C 0.67084 0.7463 0.22367 0.0
C1627 C 0.66881 0.73797 0.19163 0.0
C1628 C 0.66679 0.72547 0.20013 0.0
C1629 C 0.66729 0.72138 0.24118 0.0
C1630 C 0.66927 0.72973 0.27323 0.0
H1631 H 0.69913 0.74479 0.3461 0.0
H1632 H 0.68808 0.73266 0.34084 0.0
H1633 H 0.69409 0.74004 0.29546 0.0
H1634 H 0.67204 0.75594 0.2165 0.0
H1635 H 0.6685 0.7414 0.1603 0.0
H1636 H 0.47635 0.38388 0.70533 0.0
H1637 H 0.48528 0.38662 0.63693 0.0
H1638 H 0.46253 0.41853 0.61738 0.0
H1639 H 0.45365 0.41601 0.6862 0.0
H1640 H 0.47577 0.3884 0.55641 0.0
H1641 H 0.49784 0.43185 0.60865 0.0
H1642 H 0.49075 0.42124 0.64409 0.0
H1643 H 0.48138 0.4312 0.61305 0.0
C1644 C 0.47309 0.39138 0.68631 0.0
C1645 C 0.46444 0.39984 0.70146 0.0
C1646 C 0.4782 0.39292 0.64719 0.0
C1647 C 0.47474 0.40292 0.62256 0.0
C1648 C 0.46548 0.4109 0.63634 0.0
H1649 H 0.50738 0.41017 0.37561 0.0
H1650 H 0.49219 0.41021 0.4313 0.0
C1651 C 0.46038 0.40939 0.67557 0.0
C1652 C 0.48155 0.40541 0.58403 0.0
H1653 H 0.50241 0.42512 0.54158 0.0
C1654 C 0.48148 0.39649 0.55281 0.0
C1655 C 0.48909 0.41593 0.57987 0.0
C1656 C 0.4899 0.42558 0.61324 0.0
C1657 C 0.489 0.39765 0.5179 0.0
C1658 C 0.49664 0.4081 0.51399 0.0
C1659 C 0.49646 0.41718 0.54466 0.0
C1660 C 0.50569 0.40922 0.48021 0.0
C1661 C 0.48916 0.3874 0.48649 0.0
C1662 C 0.51829 0.40916 0.48944 0.0
C1663 C 0.52698 0.40923 0.4578 0.0
C1664 C 0.52321 0.40939 0.41637 0.0
C1665 C 0.51057 0.40997 0.40725 0.0
C1666 C 0.50188 0.40993 0.43897 0.0
H1667 H 0.48454 0.37898 0.49809 0.0
H1668 H 0.48427 0.39045 0.45825 0.0
H1669 H 0.49874 0.38504 0.47777 0.0
H1670 H 0.5214 0.40866 0.52115 0.0
H1671 H 0.53663 0.40876 0.46586 0.0
H1672 H 0.83584 0.28385 0.72602 0.0
H1673 H 0.83552 0.26839 0.78046 0.0
H1674 H 0.83347 0.23966 0.68907 0.0
H1675 H 0.83394 0.25509 0.63417 0.0
H1676 H 0.81885 0.24957 0.80023 0.0
H1677 H 0.86473 0.23131 0.75496 0.0
H1678 H 0.85881 0.24565 0.73536 0.0
H1679 H 0.8531 0.23134 0.71555 0.0
C1680 C 0.83515 0.27426 0.71742 0.0
C1681 C 0.83502 0.27069 0.67578 0.0
C1682 C 0.83498 0.26544 0.74859 0.0
C1683 C 0.83468 0.2529 0.73871 0.0
C1684 C 0.83393 0.2493 0.69725 0.0
H1685 H 0.82878 0.2016 0.94741 0.0
H1686 H 0.82581 0.20994 0.87803 0.0
C1687 C 0.83413 0.25813 0.66598 0.0
C1688 C 0.83576 0.24371 0.77207 0.0
H1689 H 0.85558 0.22284 0.81404 0.0
C1690 C 0.82678 0.24358 0.80305 0.0
C1691 C 0.84619 0.23601 0.77563 0.0
C1692 C 0.85633 0.23609 0.74385 0.0
C1693 C 0.82814 0.23627 0.83836 0.0
C1694 C 0.83869 0.22875 0.84231 0.0
C1695 C 0.84746 0.22855 0.81064 0.0
C1696 C 0.84144 0.22219 0.88115 0.0
C1697 C 0.81863 0.23719 0.87213 0.0
C1698 C 0.8516 0.22582 0.90482 0.0
C1699 C 0.85339 0.22102 0.94424 0.0
C1700 C 0.84503 0.2125 0.96069 0.0
C1701 C 0.83533 0.20824 0.93577 0.0
C1702 C 0.83357 0.21304 0.89622 0.0
H1703 H 0.81228 0.24506 0.86741 0.0
H1704 H 0.81307 0.22865 0.87269 0.0
H1705 H 0.82312 0.23822 0.90271 0.0
H1706 H 0.85783 0.23283 0.89358 0.0
H1707 H 0.86101 0.22443 0.96248 0.0
H1708 H 0.04531 0.60915 0.18667 0.0
H1709 H 0.03555 0.60974 0.11855 0.0
H1710 H 0.02441 0.57196 0.1326 0.0
H1711 H 0.03445 0.57113 0.19956 0.0
H1712 H 0.03059 0.57692 0.05375 0.0
H1713 H 0.99851 0.61241 0.11431 0.0
H1714 H 0.01442 0.61676 0.11485 0.0
H1715 H 0.00921 0.60436 0.14703 0.0
C1716 C 0.04099 0.60091 0.17486 0.0
C1717 C 0.04045 0.59017 0.19888 0.0
C1718 C 0.03535 0.60128 0.13608 0.0
C1719 C 0.02896 0.591 0.1211 0.0
C1720 C 0.0292 0.58003 0.14371 0.0
H1721 H 0.96454 0.58889 0.96973 0.0
H1722 H 0.98009 0.58771 0.02389 0.0
C1723 C 0.03492 0.5796 0.18213 0.0
C1724 C 0.02109 0.59179 0.0839 0.0
H1725 H 0.99535 0.60576 0.04628 0.0
C1726 C 0.02293 0.58328 0.05188 0.0
C1727 C 0.01098 0.59995 0.08199 0.0
C1728 C 0.00805 0.60882 0.11648 0.0
C1729 C 0.01479 0.58257 0.01834 0.0
C1730 C 0.00473 0.59079 0.01637 0.0
C1731 C 0.00307 0.59947 0.04791 0.0
C1732 C 0.99553 0.59038 0.98273 0.0
C1733 C 0.01676 0.5727 0.98631 0.0
C1734 C 0.99905 0.59212 0.94154 0.0
C1735 C 0.99018 0.59261 0.91042 0.0
C1736 C 0.97761 0.59159 0.92006 0.0
C1737 C 0.97413 0.58967 0.96124 0.0
C1738 C 0.98301 0.58903 0.99225 0.0
H1739 H 0.0227 0.56518 0.9981 0.0
H1740 H 0.00788 0.56869 0.97611 0.0
H1741 H 0.02137 0.57676 0.95902 0.0
H1742 H 0.00862 0.59347 0.93357 0.0
H1743 H 0.99316 0.59421 0.87901 0.0
H1744 H 0.66518 0.25276 0.36934 0.0
H1745 H 0.66468 0.23723 0.31471 0.0
H1746 H 0.66623 0.26581 0.22286 0.0
H1747 H 0.66682 0.28135 0.27705 0.0
H1748 H 0.64631 0.2354 0.25604 0.0
H1749 H 0.69157 0.24115 0.1808 0.0
H1750 H 0.68833 0.24701 0.23178 0.0
H1751 H 0.68362 0.25548 0.18679 0.0
C1752 C 0.66566 0.25573 0.33751 0.0
C1753 C 0.66606 0.26829 0.32751 0.0
C1754 C 0.66535 0.24684 0.30638 0.0
C1755 C 0.66556 0.25037 0.2648 0.0
C1756 C 0.66633 0.26288 0.25477 0.0
H1757 H 0.63461 0.22425 0.04471 0.0
H1758 H 0.6386 0.23167 0.11439 0.0
C1759 C 0.66662 0.27176 0.28582 0.0
C1760 C 0.66382 0.24115 0.23172 0.0
H1761 H 0.67569 0.23167 0.13976 0.0
C1762 C 0.65283 0.2344 0.23096 0.0
C1763 C 0.67242 0.23971 0.19943 0.0
C1764 C 0.68471 0.24613 0.19989 0.0
C1765 C 0.64987 0.22683 0.19737 0.0
C1766 C 0.65803 0.22616 0.16354 0.0
C1767 C 0.66937 0.23229 0.16556 0.0
C1768 C 0.65458 0.22017 0.12421 0.0
C1769 C 0.63791 0.21982 0.19804 0.0
C1770 C 0.66217 0.21115 0.10666 0.0
C1771 C 0.65995 0.20693 0.06663 0.0
C1772 C 0.65016 0.21176 0.04332 0.0
C1773 C 0.64222 0.22033 0.0618 0.0
C1774 C 0.64444 0.22453 0.1018 0.0
H1775 H 0.63489 0.21795 0.23016 0.0
H1776 H 0.63067 0.22542 0.18293 0.0
H1777 H 0.63871 0.21096 0.18125 0.0
H1778 H 0.67008 0.20772 0.1234 0.0
H1779 H 0.66625 0.20032 0.0533 0.0
H1780 H 0.96376 0.42023 0.52677 0.0
H1781 H 0.97827 0.41727 0.47002 0.0
H1782 H 0.00863 0.42091 0.55468 0.0
H1783 H 0.99421 0.42379 0.61173 0.0
H1784 H 0.99876 0.43134 0.43965 0.0
H1785 H 0.0124 0.38599 0.5044 0.0
H1786 H 0.9989 0.39415 0.52162 0.0
H1787 H 0.01387 0.39897 0.53834 0.0
C1788 C 0.97352 0.42064 0.53324 0.0
C1789 C 0.97784 0.42211 0.5738 0.0
C1790 C 0.98179 0.41893 0.50079 0.0
C1791 C 0.99449 0.41864 0.50842 0.0
C1792 C 0.99885 0.42089 0.54839 0.0
H1793 H 0.04672 0.41156 0.30348 0.0
H1794 H 0.03797 0.41759 0.37002 0.0
C1795 C 0.99059 0.4226 0.58086 0.0
C1796 C 0.00303 0.41517 0.47494 0.0
H1797 H 0.02166 0.3919 0.44195 0.0
C1798 C 0.00389 0.4228 0.44025 0.0
C1799 C 0.00958 0.40394 0.47585 0.0
C1800 C 0.00862 0.39521 0.51184 0.0
C1801 C 0.01098 0.41938 0.40597 0.0
C1802 C 0.01746 0.40811 0.40676 0.0
C1803 C 0.01678 0.40059 0.44176 0.0
C1804 C 0.024 0.40346 0.36997 0.0
C1805 C 0.01106 0.4276 0.36849 0.0
C1806 C 0.01944 0.39313 0.34917 0.0
C1807 C 0.02443 0.38962 0.31131 0.0
C1808 C 0.0341 0.39637 0.29369 0.0
C1809 C 0.03923 0.4062 0.31609 0.0
C1810 C 0.0342 0.40972 0.35397 0.0
H1811 H 0.00389 0.43484 0.3702 0.0
H1812 H 0.02015 0.43216 0.36599 0.0
H1813 H 0.00959 0.42213 0.33997 0.0
H1814 H 0.01161 0.38814 0.36125 0.0
H1815 H 0.02033 0.38196 0.295 0.0
H1816 H 0.82119 0.7182 0.72234 0.0
H1817 H 0.82031 0.73097 0.66056 0.0
H1818 H 0.80438 0.76048 0.73151 0.0
H1819 H 0.80573 0.74791 0.79396 0.0
H1820 H 0.80375 0.74449 0.61451 0.0
H1821 H 0.83688 0.77493 0.69632 0.0
H1822 H 0.83232 0.76025 0.71668 0.0
H1823 H 0.82223 0.77328 0.721 0.0
C1824 C 0.81727 0.72732 0.72469 0.0
C1825 C 0.81379 0.73216 0.76315 0.0
C1826 C 0.81673 0.7346 0.68927 0.0
C1827 C 0.81258 0.74679 0.69163 0.0
C1828 C 0.80792 0.75121 0.72922 0.0
H1829 H 0.83945 0.80304 0.52808 0.0
H1830 H 0.82369 0.79341 0.57105 0.0
C1831 C 0.80866 0.74401 0.76484 0.0
C1832 C 0.81477 0.75521 0.65641 0.0
H1833 H 0.83255 0.77952 0.62801 0.0
C1834 C 0.80989 0.75229 0.61747 0.0
C1835 C 0.82284 0.76534 0.66026 0.0
C1836 C 0.82897 0.76862 0.70066 0.0
C1837 C 0.81317 0.759 0.58207 0.0
C1838 C 0.8216 0.76884 0.58578 0.0
C1839 C 0.82597 0.77209 0.62507 0.0
C1840 C 0.82747 0.77493 0.54977 0.0
C1841 C 0.80777 0.75524 0.54115 0.0
C1842 C 0.8342 0.76788 0.52121 0.0
C1843 C 0.84296 0.77347 0.49578 0.0
C1844 C 0.84525 0.78609 0.49927 0.0
C1845 C 0.83774 0.79329 0.5248 0.0
C1846 C 0.82879 0.78777 0.54944 0.0
H1847 H 0.7981 0.75216 0.54499 0.0
H1848 H 0.80801 0.7628 0.51829 0.0
H1849 H 0.81309 0.74736 0.52873 0.0
H1850 H 0.83357 0.75796 0.52131 0.0
H1851 H 0.8488 0.76774 0.47671 0.0
H1852 H 0.52989 0.58133 0.02569 0.0
H1853 H 0.51446 0.58215 0.97108 0.0
H1854 H 0.48557 0.58031 0.0619 0.0
H1855 H 0.50096 0.57964 0.11697 0.0
H1856 H 0.49492 0.56658 0.94891 0.0
H1857 H 0.47863 0.61261 0.00022 0.0
H1858 H 0.49269 0.60585 0.01908 0.0
H1859 H 0.47812 0.60057 0.03811 0.0
C1860 C 0.52026 0.58092 0.0341 0.0
C1861 C 0.51664 0.58054 0.07567 0.0
C1862 C 0.51146 0.58139 0.00284 0.0
C1863 C 0.49889 0.58151 0.01257 0.0
C1864 C 0.49523 0.58046 0.05387 0.0
H1865 H 0.44724 0.57998 0.80371 0.0
H1866 H 0.45549 0.57598 0.87267 0.0
C1867 C 0.50404 0.58002 0.08523 0.0
C1868 C 0.48977 0.58337 0.97934 0.0
H1869 H 0.46968 0.60447 0.94019 0.0
C1870 C 0.48926 0.57477 0.94718 0.0
C1871 C 0.4825 0.59414 0.9772 0.0
C1872 C 0.48302 0.60389 0.01026 0.0
C1873 C 0.48197 0.57683 0.91216 0.0
C1874 C 0.47486 0.58769 0.90969 0.0
C1875 C 0.47506 0.5961 0.94247 0.0
C1876 C 0.46835 0.59113 0.87134 0.0
C1877 C 0.48248 0.56768 0.87715 0.0
C1878 C 0.47237 0.60138 0.8489 0.0
C1879 C 0.46762 0.60376 0.80974 0.0
C1880 C 0.45877 0.5959 0.79231 0.0
C1881 C 0.45413 0.58614 0.81611 0.0
C1882 C 0.45888 0.58379 0.8554 0.0
H1883 H 0.49011 0.56099 0.88092 0.0
H1884 H 0.47372 0.56248 0.876 0.0
H1885 H 0.48365 0.57246 0.84717 0.0
H1886 H 0.47963 0.6072 0.86083 0.0
H1887 H 0.47133 0.6114 0.79238 0.0
H1888 H 0.35145 0.21634 0.52484 0.0
H1889 H 0.35012 0.22439 0.59474 0.0
H1890 H 0.31289 0.21109 0.6046 0.0
H1891 H 0.31404 0.20321 0.53397 0.0
H1892 H 0.31432 0.23481 0.62409 0.0
H1893 H 0.35066 0.2101 0.70884 0.0
H1894 H 0.35669 0.21653 0.66218 0.0
H1895 H 0.34496 0.20486 0.65955 0.0
C1896 C 0.34305 0.21488 0.54209 0.0
C1897 C 0.33282 0.2092 0.52372 0.0
C1898 C 0.34234 0.21941 0.58228 0.0
C1899 C 0.33146 0.21821 0.60515 0.0
C1900 C 0.3214 0.21205 0.58757 0.0
H1901 H 0.33389 0.25216 0.85095 0.0
H1902 H 0.32994 0.2369 0.79704 0.0
C1903 C 0.32208 0.20755 0.54723 0.0
C1904 C 0.33019 0.22471 0.64509 0.0
H1905 H 0.34525 0.23028 0.73547 0.0
C1906 C 0.32093 0.23364 0.64884 0.0
C1907 C 0.33866 0.22306 0.67773 0.0
C1908 C 0.34821 0.21301 0.67705 0.0
C1909 C 0.32044 0.2415 0.68306 0.0
C1910 C 0.32961 0.2406 0.71381 0.0
C1911 C 0.33834 0.23112 0.7115 0.0
C1912 C 0.33091 0.24993 0.74679 0.0
C1913 C 0.31023 0.25086 0.68549 0.0
C1914 C 0.33276 0.2623 0.7364 0.0
C1915 C 0.33496 0.27103 0.76705 0.0
C1916 C 0.3355 0.26753 0.8087 0.0
C1917 C 0.33351 0.25515 0.81913 0.0
C1918 C 0.33125 0.24642 0.7884 0.0
H1919 H 0.30193 0.24767 0.66861 0.0
H1920 H 0.30764 0.25283 0.71797 0.0
H1921 H 0.31333 0.25954 0.67091 0.0
H1922 H 0.33287 0.26517 0.70442 0.0
H1923 H 0.3366 0.28046 0.75795 0.0
H1924 H 0.4919 0.58487 0.62142 0.0
H1925 H 0.50778 0.58474 0.56776 0.0
H1926 H 0.47964 0.58493 0.47402 0.0
H1927 H 0.46379 0.58493 0.52709 0.0
H1928 H 0.49902 0.56855 0.45812 0.0
H1929 H 0.51572 0.61543 0.49825 0.0
H1930 H 0.51571 0.6042 0.53889 0.0
H1931 H 0.50139 0.6094 0.51763 0.0
C1932 C 0.48911 0.58476 0.58935 0.0
C1933 C 0.47659 0.58496 0.57847 0.0
C1934 C 0.49819 0.58475 0.55881 0.0
C1935 C 0.49486 0.585 0.51703 0.0
C1936 C 0.48238 0.58475 0.50615 0.0
H1937 H 0.52122 0.61007 0.29063 0.0
H1938 H 0.5137 0.6073 0.36085 0.0
C1939 C 0.47333 0.58474 0.53655 0.0
C1940 C 0.50421 0.58597 0.48413 0.0
H1941 H 0.52421 0.60612 0.43949 0.0
C1942 C 0.5047 0.57666 0.4543 0.0
C1943 C 0.51151 0.59662 0.47933 0.0
C1944 C 0.51106 0.60705 0.50998 0.0
C1945 C 0.51188 0.57794 0.41866 0.0
C1946 C 0.51892 0.58875 0.41325 0.0
C1947 C 0.51886 0.59782 0.444 0.0
C1948 C 0.52508 0.59144 0.37363 0.0
C1949 C 0.51124 0.56807 0.38598 0.0
C1950 C 0.53436 0.58376 0.35823 0.0
C1951 C 0.53863 0.58526 0.31789 0.0
C1952 C 0.53373 0.59454 0.29252 0.0
C1953 C 0.52512 0.60278 0.30921 0.0
C1954 C 0.52082 0.60123 0.3494 0.0
H1955 H 0.50367 0.56144 0.39179 0.0
H1956 H 0.50987 0.57219 0.35499 0.0
H1957 H 0.52002 0.56288 0.38556 0.0
H1958 H 0.53795 0.57631 0.37681 0.0
H1959 H 0.54538 0.57885 0.30608 0.0
H1960 H 0.16211 0.71388 0.28308 0.0
H1961 H 0.16273 0.72925 0.22834 0.0
H1962 H 0.16388 0.75815 0.31931 0.0
H1963 H 0.16317 0.74283 0.37439 0.0
H1964 H 0.14556 0.76134 0.2612 0.0
H1965 H 0.19005 0.75153 0.18511 0.0
H1966 H 0.18082 0.73801 0.19157 0.0
H1967 H 0.1864 0.74608 0.23628 0.0
C1968 C 0.16275 0.72348 0.2915 0.0
C1969 C 0.16258 0.72713 0.33306 0.0
C1970 C 0.16315 0.73226 0.26015 0.0
C1971 C 0.16348 0.74482 0.26982 0.0
C1972 C 0.16369 0.74849 0.31127 0.0
H1973 H 0.16879 0.79575 0.06198 0.0
H1974 H 0.17182 0.78736 0.13119 0.0
C1975 C 0.1633 0.73972 0.34266 0.0
C1976 C 0.16248 0.75408 0.23661 0.0
H1977 H 0.17516 0.76268 0.14497 0.0
C1978 C 0.15214 0.76179 0.2361 0.0
C1979 C 0.17116 0.75478 0.20429 0.0
C1980 C 0.1828 0.74725 0.20447 0.0
C1981 C 0.14988 0.76971 0.20284 0.0
C1982 C 0.1581 0.76975 0.1691 0.0
C1983 C 0.16881 0.76256 0.17075 0.0
C1984 C 0.1553 0.77631 0.13029 0.0
C1985 C 0.13862 0.77779 0.20381 0.0
C1986 C 0.14487 0.77307 0.10726 0.0
C1987 C 0.1431 0.77783 0.06776 0.0
C1988 C 0.15179 0.78586 0.05045 0.0
C1989 C 0.16192 0.78958 0.07441 0.0
C1990 C 0.16369 0.78479 0.11393 0.0
H1991 H 0.13565 0.77969 0.23598 0.0
H1992 H 0.1403 0.78665 0.18789 0.0
H1993 H 0.13095 0.77302 0.18788 0.0
H1994 H 0.13841 0.76636 0.11897 0.0
H1995 H 0.13522 0.77478 0.05012 0.0
H1996 H 0.95053 0.3905 0.81464 0.0
H1997 H 0.95958 0.38972 0.88379 0.0
H1998 H 0.9729 0.42678 0.86895 0.0
H1999 H 0.96365 0.42776 0.80084 0.0
H2000 H 0.98347 0.391 0.89785 0.0
H2001 H 0.96118 0.42823 0.98573 0.0
H2002 H 0.95491 0.42245 0.93793 0.0
H2003 H 0.96685 0.43392 0.93754 0.0
C2004 C 0.95512 0.39858 0.82657 0.0
C2005 C 0.95644 0.40915 0.80212 0.0
C2006 C 0.96028 0.39812 0.86607 0.0
C2007 C 0.9668 0.40824 0.88176 0.0
C2008 C 0.96766 0.41897 0.85804 0.0
H2009 H 0.03177 0.40816 0.02884 0.0
H2010 H 0.01591 0.40884 0.97554 0.0
C2011 C 0.96245 0.41946 0.8188 0.0
C2012 C 0.9741 0.40714 0.92017 0.0
H2013 H 0.98166 0.42241 0.00861 0.0
C2014 C 0.98291 0.39774 0.92244 0.0
C2015 C 0.97329 0.41583 0.95253 0.0
C2016 C 0.96344 0.42558 0.95351 0.0
C2017 C 0.99135 0.39718 0.95502 0.0
C2018 C 0.99119 0.40647 0.98554 0.0
C2019 C 0.98195 0.41546 0.98463 0.0
C2020 C 0.00069 0.40708 0.01814 0.0
C2021 C 0.00041 0.38669 0.95621 0.0
C2022 C 0.99735 0.40652 0.05985 0.0
C2023 C 0.00639 0.40633 0.09045 0.0
C2024 C 0.01893 0.40671 0.0798 0.0
C2025 C 0.02221 0.40779 0.03807 0.0
C2026 C 0.01316 0.40807 0.00754 0.0
H2027 H 0.99696 0.3786 0.9388 0.0
H2028 H 0.00916 0.38964 0.94168 0.0
H2029 H 0.00239 0.38382 0.9884 0.0
H2030 H 0.98777 0.40587 0.06866 0.0
H2031 H 0.00356 0.40552 0.12235 0.0
H2032 H 0.33202 0.79839 0.94391 0.0
H2033 H 0.32827 0.79 0.87497 0.0
H2034 H 0.35952 0.76596 0.88864 0.0
H2035 H 0.36347 0.7744 0.9571 0.0
H2036 H 0.35699 0.77576 0.8088 0.0
H2037 H 0.31341 0.75534 0.8671 0.0
H2038 H 0.31482 0.77173 0.87175 0.0
H2039 H 0.32479 0.76189 0.90108 0.0
C2040 C 0.33824 0.79149 0.93192 0.0
C2041 C 0.34794 0.78692 0.95624 0.0
C2042 C 0.33604 0.78667 0.89263 0.0
C2043 C 0.34346 0.77718 0.87721 0.0
C2044 C 0.35364 0.77323 0.90017 0.0
H2045 H 0.33373 0.71551 0.72298 0.0
H2046 H 0.33486 0.73093 0.77753 0.0
C2047 C 0.35588 0.77806 0.93934 0.0
C2048 C 0.34015 0.77059 0.83888 0.0
H2049 H 0.31916 0.75046 0.79931 0.0
C2050 C 0.34865 0.77036 0.80635 0.0
C2051 C 0.3293 0.76346 0.83619 0.0
C2052 C 0.32007 0.76299 0.87092 0.0
C2053 C 0.34677 0.76288 0.77165 0.0
C2054 C 0.33602 0.7556 0.7693 0.0
C2055 C 0.32734 0.75613 0.80121 0.0
C2056 C 0.33421 0.74648 0.73604 0.0
C2057 C 0.35658 0.76236 0.7388 0.0
C2058 C 0.33311 0.75014 0.69475 0.0
C2059 C 0.33246 0.74133 0.66343 0.0
C2060 C 0.33285 0.72873 0.673 0.0
C2061 C 0.3334 0.72513 0.71456 0.0
C2062 C 0.33406 0.73393 0.74578 0.0
H2063 H 0.36527 0.76679 0.74899 0.0
H2064 H 0.35859 0.75269 0.73013 0.0
H2065 H 0.35329 0.76721 0.71083 0.0
H2066 H 0.33299 0.75979 0.68671 0.0
H2067 H 0.33198 0.7444 0.6317 0.0
H2068 H 0.94943 0.58698 0.69467 0.0
H2069 H 0.95749 0.58096 0.62713 0.0
H2070 H 0.98494 0.60942 0.63533 0.0
H2071 H 0.97691 0.61559 0.70252 0.0
H2072 H 0.97435 0.60645 0.55541 0.0
H2073 H 0.99077 0.56242 0.62333 0.0
H2074 H 0.97465 0.56572 0.6284 0.0
H2075 H 0.98569 0.57514 0.65475 0.0
C2076 C 0.95703 0.59212 0.68175 0.0
C2077 C 0.96265 0.60166 0.70421 0.0
C2078 C 0.96166 0.58861 0.64329 0.0
C2079 C 0.97195 0.59459 0.62678 0.0
C2080 C 0.97703 0.60465 0.64777 0.0
H2081 H 0.03184 0.57758 0.47194 0.0
H2082 H 0.0169 0.58022 0.52745 0.0
C2083 C 0.97243 0.60816 0.68618 0.0
C2084 C 0.9781 0.5899 0.58929 0.0
H2085 H 0.99606 0.56635 0.55437 0.0
C2086 C 0.97895 0.59761 0.55482 0.0
C2087 C 0.98419 0.5784 0.58905 0.0
C2088 C 0.9839 0.56994 0.62588 0.0
C2089 C 0.98603 0.5943 0.52042 0.0
C2090 C 0.99228 0.5829 0.52046 0.0
C2091 C 0.99115 0.57503 0.55444 0.0
C2092 C 0.00101 0.57959 0.48734 0.0
C2093 C 0.98727 0.60328 0.48521 0.0
C2094 C 0.99697 0.57786 0.44669 0.0
C2095 C 0.00549 0.57634 0.41485 0.0
C2096 C 0.01818 0.5765 0.42327 0.0
C2097 C 0.02214 0.57745 0.4644 0.0
C2098 C 0.01362 0.57896 0.49617 0.0
H2099 H 0.98359 0.6125 0.49321 0.0
H2100 H 0.99705 0.60426 0.47602 0.0
H2101 H 0.98209 0.59978 0.45816 0.0
H2102 H 0.98725 0.57811 0.43943 0.0
H2103 H 0.00214 0.57556 0.38349 0.0
H2104 H 0.18035 0.25357 0.20189 0.0
H2105 H 0.18121 0.24315 0.26854 0.0
H2106 H 0.1845 0.2781 0.33023 0.0
H2107 H 0.18329 0.28863 0.2638 0.0
H2108 H 0.19701 0.24253 0.33848 0.0
H2109 H 0.15193 0.2646 0.37332 0.0
H2110 H 0.15866 0.26506 0.32258 0.0
H2111 H 0.16454 0.27476 0.36287 0.0
C2112 C 0.1815 0.25905 0.22953 0.0
C2113 C 0.18155 0.27194 0.22754 0.0
C2114 C 0.18203 0.25307 0.26764 0.0
C2115 C 0.18267 0.25987 0.30438 0.0
C2116 C 0.18376 0.27269 0.30228 0.0
H2117 H 0.15344 0.22691 0.52931 0.0
H2118 H 0.16762 0.24074 0.49291 0.0
C2119 C 0.18312 0.27869 0.26421 0.0
C2120 C 0.18066 0.25357 0.34439 0.0
H2121 H 0.15883 0.24956 0.41869 0.0
C2122 C 0.18877 0.2442 0.35649 0.0
C2123 C 0.16996 0.25584 0.36812 0.0
C2124 C 0.1607 0.26554 0.3561 0.0
C2125 C 0.18612 0.23663 0.39044 0.0
C2126 C 0.17501 0.23835 0.4123 0.0
C2127 C 0.16738 0.24828 0.40202 0.0
C2128 C 0.16985 0.22881 0.43998 0.0
C2129 C 0.19504 0.22663 0.40207 0.0
C2130 C 0.16678 0.21736 0.42306 0.0
C2131 C 0.15862 0.20959 0.44349 0.0
C2132 C 0.15348 0.21306 0.48146 0.0
C2133 C 0.15742 0.22398 0.50034 0.0
C2134 C 0.16549 0.23187 0.47953 0.0
H2135 H 0.20455 0.2289 0.39211 0.0
H2136 H 0.195 0.22513 0.43591 0.0
H2137 H 0.19232 0.21794 0.3867 0.0
H2138 H 0.16978 0.21488 0.3923 0.0
H2139 H 0.15569 0.20123 0.42826 0.0
H2140 H 0.52591 0.3822 0.19879 0.0
H2141 H 0.51722 0.38617 0.13073 0.0
H2142 H 0.53972 0.4186 0.11928 0.0
H2143 H 0.54841 0.41478 0.18766 0.0
H2144 H 0.51498 0.42307 0.10734 0.0
H2145 H 0.53002 0.38348 0.01278 0.0
H2146 H 0.5234 0.37885 0.06101 0.0
H2147 H 0.53742 0.38761 0.06072 0.0
C2148 C 0.52923 0.39003 0.18147 0.0
C2149 C 0.53779 0.39821 0.19876 0.0
C2150 C 0.5243 0.39225 0.14244 0.0
C2151 C 0.5279 0.40263 0.11988 0.0
C2152 C 0.53687 0.41051 0.13619 0.0
H2153 H 0.49478 0.41379 0.87694 0.0
H2154 H 0.51 0.41342 0.93244 0.0
C2155 C 0.54183 0.40828 0.17522 0.0
C2156 C 0.52128 0.40593 0.08161 0.0
H2157 H 0.51218 0.39444 0.98864 0.0
C2158 C 0.51453 0.41692 0.08105 0.0
C2159 C 0.52082 0.39796 0.04724 0.0
C2160 C 0.52841 0.38637 0.0452 0.0
C2161 C 0.5068 0.41984 0.04786 0.0
C2162 C 0.50569 0.41146 0.01477 0.0
C2163 C 0.51295 0.40079 0.01431 0.0
C2164 C 0.49654 0.41316 0.98153 0.0
C2165 C 0.49975 0.43177 0.04878 0.0
C2166 C 0.48395 0.41329 0.99085 0.0
C2167 C 0.47522 0.41351 0.95925 0.0
C2168 C 0.47897 0.41352 0.91778 0.0
C2169 C 0.4916 0.4138 0.90859 0.0
C2170 C 0.50031 0.41357 0.94021 0.0
H2171 H 0.5043 0.43865 0.06898 0.0
H2172 H 0.49879 0.4357 0.01735 0.0
H2173 H 0.49041 0.43007 0.06125 0.0
H2174 H 0.48085 0.41274 0.02254 0.0
H2175 H 0.46557 0.41321 0.96733 0.0
H2176 H 0.177 0.34314 0.15699 0.0
H2177 H 0.16487 0.36196 0.14904 0.0
H2178 H 0.13623 0.34118 0.08883 0.0
H2179 H 0.14857 0.32262 0.09438 0.0
H2180 H 0.13754 0.3628 0.05579 0.0
H2181 H 0.13747 0.36865 0.22628 0.0
H2182 H 0.15233 0.36974 0.20262 0.0
H2183 H 0.14411 0.35538 0.20173 0.0
C2184 C 0.16821 0.34267 0.14136 0.0
C2185 C 0.16367 0.33138 0.12675 0.0
C2186 C 0.16124 0.3534 0.13717 0.0
C2187 C 0.14944 0.35293 0.1196 0.0
C2188 C 0.14526 0.3418 0.10275 0.0
H2189 H 0.0823 0.38498 0.17801 0.0
H2190 H 0.10247 0.37543 0.17484 0.0
C2191 C 0.15234 0.33116 0.10596 0.0
C2192 C 0.14094 0.36362 0.12111 0.0
H2193 H 0.12508 0.38193 0.18812 0.0
C2194 C 0.13489 0.36709 0.08466 0.0
C2195 C 0.13747 0.3692 0.15889 0.0
C2196 C 0.14309 0.36551 0.19966 0.0
C2197 C 0.12491 0.37528 0.08523 0.0
C2198 C 0.12125 0.38061 0.12318 0.0
C2199 C 0.1279 0.37783 0.15911 0.0
C2200 C 0.10956 0.38756 0.12752 0.0
C2201 C 0.11789 0.37738 0.04567 0.0
C2202 C 0.10689 0.39785 0.10299 0.0
C2203 C 0.09518 0.40319 0.10409 0.0
C2204 C 0.08608 0.39853 0.13063 0.0
C2205 C 0.08908 0.3888 0.15723 0.0
C2206 C 0.10065 0.38333 0.15545 0.0
H2207 H 0.12028 0.37051 0.0216 0.0
H2208 H 0.10782 0.37694 0.05111 0.0
H2209 H 0.12015 0.38661 0.03337 0.0
H2210 H 0.11373 0.40155 0.0822 0.0
H2211 H 0.09318 0.41078 0.0836 0.0
H2212 H 0.83761 0.83834 0.31237 0.0
H2213 H 0.84652 0.85904 0.31137 0.0
H2214 H 0.87561 0.84683 0.39205 0.0
H2215 H 0.8666 0.82646 0.3945 0.0
H2216 H 0.86739 0.86882 0.41457 0.0
H2217 H 0.87638 0.86856 0.24552 0.0
H2218 H 0.86061 0.86696 0.26093 0.0
H2219 H 0.87144 0.85501 0.27279 0.0
C2220 C 0.84586 0.84012 0.33008 0.0
C2221 C 0.85143 0.83072 0.35331 0.0
C2222 C 0.85098 0.85193 0.32926 0.0
C2223 C 0.86186 0.85444 0.35105 0.0
C2224 C 0.86721 0.84513 0.37499 0.0
H2225 H 0.92512 0.89549 0.3243 0.0
H2226 H 0.90669 0.88311 0.31578 0.0
C2227 C 0.86204 0.83345 0.37629 0.0
C2228 C 0.86808 0.86654 0.34873 0.0
H2229 H 0.88451 0.8849 0.28365 0.0
C2230 C 0.871 0.87247 0.3859 0.0
C2231 C 0.87274 0.87127 0.3112 0.0
C2232 C 0.87024 0.86511 0.27031 0.0
C2233 C 0.87924 0.88236 0.38711 0.0
C2234 C 0.8843 0.88681 0.34972 0.0
C2235 C 0.88062 0.88148 0.31221 0.0
C2236 C 0.89479 0.89554 0.34939 0.0
C2237 C 0.88316 0.88724 0.42872 0.0
C2238 C 0.89416 0.90695 0.36954 0.0
C2239 C 0.90481 0.91395 0.37535 0.0
C2240 C 0.91617 0.9098 0.36001 0.0
C2241 C 0.91653 0.89894 0.33664 0.0
C2242 C 0.90596 0.89184 0.33166 0.0
H2243 H 0.88031 0.88109 0.45433 0.0
H2244 H 0.8933 0.88836 0.43017 0.0
H2245 H 0.87885 0.89633 0.43401 0.0
H2246 H 0.88555 0.9102 0.38227 0.0
H2247 H 0.90422 0.92239 0.39292 0.0
H2248 H 0.3387 0.66186 0.55028 0.0
H2249 H 0.34843 0.64169 0.54482 0.0
H2250 H 0.34859 0.63861 0.6775 0.0
H2251 H 0.33845 0.65844 0.68311 0.0
H2252 H 0.37052 0.63808 0.57131 0.0
H2253 H 0.34122 0.6039 0.64901 0.0
H2254 H 0.3355 0.61883 0.63411 0.0
H2255 H 0.34364 0.61685 0.68213 0.0
C2256 C 0.34049 0.65672 0.57823 0.0
C2257 C 0.3379 0.66181 0.61714 0.0
C2258 C 0.34602 0.64517 0.57506 0.0
C2259 C 0.34916 0.63854 0.61072 0.0
C2260 C 0.34597 0.64333 0.64947 0.0
H2261 H 0.40949 0.59643 0.68597 0.0
H2262 H 0.38965 0.60683 0.6805 0.0
C2263 C 0.34027 0.65478 0.65264 0.0
C2264 C 0.35756 0.62783 0.60796 0.0
H2265 H 0.36325 0.59936 0.64809 0.0
C2266 C 0.36876 0.62949 0.58718 0.0
C2267 C 0.35534 0.61663 0.62886 0.0
C2268 C 0.3432 0.61391 0.64938 0.0
C2269 C 0.37804 0.6206 0.58867 0.0
C2270 C 0.37606 0.60972 0.61143 0.0
C2271 C 0.36472 0.60776 0.63083 0.0
C2272 C 0.3862 0.60093 0.61789 0.0
C2273 C 0.39016 0.62316 0.56765 0.0
C2274 C 0.39048 0.59373 0.58508 0.0
C2275 C 0.40183 0.58779 0.58799 0.0
C2276 C 0.4091 0.58905 0.62372 0.0
C2277 C 0.40421 0.59537 0.65786 0.0
C2278 C 0.39284 0.60128 0.6549 0.0
H2279 H 0.39064 0.63262 0.55493 0.0
H2280 H 0.39787 0.62188 0.58966 0.0
H2281 H 0.39147 0.61657 0.5419 0.0
H2282 H 0.38543 0.59336 0.55631 0.0
H2283 H 0.40524 0.5829 0.56123 0.0
H2284 H 0.66267 0.15894 0.81021 0.0
H2285 H 0.65208 0.13922 0.80486 0.0
H2286 H 0.63887 0.14319 0.92941 0.0
H2287 H 0.64937 0.16296 0.93528 0.0
H2288 H 0.6473 0.11663 0.89317 0.0
H2289 H 0.61211 0.14409 0.80833 0.0
H2290 H 0.6281 0.14584 0.79509 0.0
H2291 H 0.62266 0.15121 0.84407 0.0
C2292 C 0.65779 0.15551 0.83692 0.0
C2293 C 0.65669 0.16267 0.87296 0.0
C2294 C 0.65178 0.14421 0.83377 0.0
C2295 C 0.64467 0.13985 0.86664 0.0
C2296 C 0.64437 0.14644 0.90379 0.0
H2297 H 0.58957 0.08886 0.93076 0.0
H2298 H 0.60882 0.10005 0.92497 0.0
C2299 C 0.65033 0.15776 0.90697 0.0
C2300 C 0.63603 0.12959 0.8603 0.0
H2301 H 0.60734 0.12368 0.8232 0.0
C2302 C 0.63861 0.11806 0.87745 0.0
C2303 C 0.6248 0.13152 0.83944 0.0
C2304 C 0.62163 0.14382 0.82069 0.0
C2305 C 0.63003 0.10842 0.87506 0.0
C2306 C 0.61849 0.11056 0.85609 0.0
C2307 C 0.61618 0.12199 0.83761 0.0
C2308 C 0.60815 0.1017 0.85843 0.0
C2309 C 0.63342 0.09611 0.89301 0.0
C2310 C 0.6013 0.09881 0.82297 0.0
C2311 C 0.59008 0.09264 0.82629 0.0
C2312 C 0.58553 0.08918 0.86516 0.0
C2313 C 0.59281 0.09135 0.9003 0.0
C2314 C 0.60393 0.09766 0.89701 0.0
H2315 H 0.6435 0.09453 0.89122 0.0
H2316 H 0.6308 0.0959 0.92608 0.0
H2317 H 0.62865 0.08848 0.87685 0.0
H2318 H 0.60435 0.10187 0.79287 0.0
H2319 H 0.58474 0.09104 0.79859 0.0
H2320 H 0.09267 0.57291 0.40319 0.0
H2321 H 0.11235 0.58386 0.40509 0.0
H2322 H 0.09751 0.61147 0.32352 0.0
H2323 H 0.0783 0.60017 0.31926 0.0
H2324 H 0.12031 0.60865 0.30707 0.0
H2325 H 0.11618 0.61268 0.47756 0.0
H2326 H 0.11792 0.59728 0.45888 0.0
H2327 H 0.10428 0.6059 0.44648 0.0
C2328 C 0.09375 0.58118 0.385 0.0
C2329 C 0.08391 0.58576 0.36143 0.0
C2330 C 0.10495 0.5875 0.38646 0.0
C2331 C 0.1063 0.59874 0.36566 0.0
C2332 C 0.09672 0.60287 0.3401 0.0
H2333 H 0.13749 0.66582 0.42937 0.0
H2334 H 0.1276 0.64582 0.42538 0.0
C2335 C 0.0857 0.59639 0.33767 0.0
C2336 C 0.11716 0.60682 0.37227 0.0
H2337 H 0.13203 0.62359 0.44605 0.0
C2338 C 0.12296 0.61185 0.33749 0.0
C2339 C 0.12062 0.61099 0.41206 0.0
C2340 C 0.11438 0.60653 0.45087 0.0
C2341 C 0.13134 0.62159 0.341 0.0
C2342 C 0.13457 0.62598 0.38075 0.0
C2343 C 0.12953 0.62025 0.41565 0.0
C2344 C 0.14163 0.63754 0.3868 0.0
C2345 C 0.13585 0.62765 0.30192 0.0
C2346 C 0.15307 0.63951 0.36777 0.0
C2347 C 0.15857 0.65112 0.36902 0.0
C2348 C 0.15296 0.6608 0.39069 0.0
C2349 C 0.14206 0.65853 0.41251 0.0
C2350 C 0.13639 0.64707 0.41024 0.0
H2351 H 0.13025 0.62498 0.27467 0.0
H2352 H 0.1356 0.63781 0.30473 0.0
H2353 H 0.14546 0.62478 0.29589 0.0
H2354 H 0.15754 0.6322 0.35083 0.0
H2355 H 0.16707 0.6526 0.35237 0.0
H2356 H 0.68279 0.84627 0.67844 0.0
H2357 H 0.67096 0.86543 0.67609 0.0
H2358 H 0.64611 0.84904 0.58804 0.0
H2359 H 0.65829 0.83035 0.58812 0.0
H2360 H 0.64814 0.87185 0.57128 0.0
H2361 H 0.64033 0.86815 0.74033 0.0
H2362 H 0.65605 0.87053 0.72589 0.0
H2363 H 0.64837 0.85648 0.71173 0.0
C2364 C 0.67496 0.8469 0.6579 0.0
C2365 C 0.67139 0.83676 0.63382 0.0
C2366 C 0.66812 0.8578 0.65694 0.0
C2367 C 0.65735 0.85856 0.63307 0.0
C2368 C 0.65431 0.84871 0.60698 0.0
H2369 H 0.58786 0.88829 0.67888 0.0
H2370 H 0.60803 0.87863 0.67953 0.0
C2371 C 0.66131 0.83798 0.60704 0.0
C2372 C 0.64863 0.86904 0.63695 0.0
H2373 H 0.62965 0.88353 0.70539 0.0
C2374 C 0.64415 0.87449 0.60065 0.0
C2375 C 0.6434 0.87247 0.67533 0.0
C2376 C 0.64719 0.86655 0.7155 0.0
C2377 C 0.63405 0.88252 0.60122 0.0
C2378 C 0.62868 0.88577 0.63955 0.0
C2379 C 0.63376 0.88104 0.67606 0.0
C2380 C 0.61685 0.89261 0.64231 0.0
C2381 C 0.62874 0.88666 0.56048 0.0
C2382 C 0.6151 0.90394 0.62238 0.0
C2383 C 0.60341 0.90932 0.62099 0.0
C2384 C 0.5934 0.9037 0.64085 0.0
C2385 C 0.59539 0.89287 0.66339 0.0
C2386 C 0.60695 0.88733 0.66376 0.0
H2387 H 0.63211 0.88097 0.53434 0.0
H2388 H 0.61854 0.8862 0.56083 0.0
H2389 H 0.63152 0.89629 0.55451 0.0
H2390 H 0.62266 0.90845 0.60692 0.0
H2391 H 0.60215 0.91776 0.60381 0.0
H2392 H 0.4167 0.39367 0.80798 0.0
H2393 H 0.39643 0.38453 0.80726 0.0
H2394 H 0.38411 0.4107 0.89849 0.0
H2395 H 0.40483 0.41948 0.90116 0.0
H2396 H 0.37768 0.39008 0.92276 0.0
H2397 H 0.36391 0.39042 0.76087 0.0
H2398 H 0.37902 0.38397 0.76168 0.0
H2399 H 0.37665 0.39961 0.77878 0.0
C2400 C 0.40962 0.39771 0.8272 0.0
C2401 C 0.4124 0.40726 0.8548 0.0
C2402 C 0.39792 0.39254 0.8264 0.0
C2403 C 0.38856 0.39705 0.85215 0.0
C2404 C 0.39112 0.40707 0.87815 0.0
H2405 H 0.33118 0.34146 0.8243 0.0
H2406 H 0.33876 0.36265 0.8273 0.0
C2407 C 0.40297 0.41209 0.87967 0.0
C2408 C 0.37691 0.39 0.85617 0.0
H2409 H 0.35835 0.37128 0.79949 0.0
C2410 C 0.37319 0.38628 0.89574 0.0
C2411 C 0.37055 0.38535 0.82139 0.0
C2412 C 0.37269 0.39022 0.77843 0.0
C2413 C 0.36442 0.37699 0.90106 0.0
C2414 C 0.35972 0.37084 0.86594 0.0
C2415 C 0.36226 0.37562 0.82661 0.0
C2416 C 0.3538 0.35857 0.86891 0.0
C2417 C 0.36066 0.3736 0.94436 0.0
C2418 C 0.35961 0.34922 0.89155 0.0
C2419 C 0.35516 0.33723 0.89056 0.0
C2420 C 0.34502 0.33419 0.86581 0.0
C2421 C 0.33904 0.34354 0.84357 0.0
C2422 C 0.34336 0.35564 0.84531 0.0
H2423 H 0.36011 0.38194 0.96405 0.0
H2424 H 0.35163 0.36885 0.94508 0.0
H2425 H 0.36775 0.36751 0.95811 0.0
H2426 H 0.36797 0.35104 0.90861 0.0
H2427 H 0.36008 0.33023 0.90761 0.0
H2428 H 0.83813 0.16173 0.05521 0.0
H2429 H 0.84879 0.14203 0.05014 0.0
H2430 H 0.85041 0.13991 0.18294 0.0
H2431 H 0.83932 0.15927 0.18818 0.0
H2432 H 0.87131 0.14029 0.07445 0.0
H2433 H 0.84536 0.10455 0.15766 0.0
H2434 H 0.83844 0.11894 0.14258 0.0
H2435 H 0.84727 0.11786 0.18952 0.0
C2436 C 0.84041 0.15686 0.08331 0.0
C2437 C 0.838 0.16211 0.12209 0.0
C2438 C 0.84648 0.14559 0.08039 0.0
C2439 C 0.85038 0.13942 0.11614 0.0
C2440 C 0.84725 0.14428 0.15489 0.0
H2441 H 0.91439 0.10059 0.18219 0.0
H2442 H 0.89413 0.11029 0.1804 0.0
C2443 C 0.84099 0.15544 0.15784 0.0
C2444 C 0.8595 0.12933 0.11308 0.0
H2445 H 0.86754 0.10139 0.15297 0.0
C2446 C 0.87032 0.13166 0.09079 0.0
C2447 C 0.85829 0.11808 0.13467 0.0
C2448 C 0.84664 0.11467 0.15707 0.0
C2449 C 0.88016 0.12338 0.09109 0.0
C2450 C 0.87916 0.11244 0.1142 0.0
C2451 C 0.86824 0.10983 0.13542 0.0
C2452 C 0.88984 0.10419 0.11858 0.0
C2453 C 0.8918 0.12664 0.0682 0.0
C2454 C 0.89386 0.09717 0.08497 0.0
C2455 C 0.90544 0.09164 0.08574 0.0
C2456 C 0.91322 0.09312 0.12014 0.0
C2457 C 0.9087 0.09935 0.15506 0.0
C2458 C 0.8971 0.10485 0.15423 0.0
H2459 H 0.89155 0.13612 0.05554 0.0
H2460 H 0.89988 0.1258 0.08894 0.0
H2461 H 0.89312 0.12014 0.0422 0.0
H2462 H 0.88833 0.09658 0.05722 0.0
H2463 H 0.90855 0.08682 0.05846 0.0
H2464 H 0.82946 0.66304 0.80229 0.0
H2465 H 0.84298 0.64551 0.81334 0.0
H2466 H 0.85595 0.66167 0.92675 0.0
H2467 H 0.84257 0.6794 0.91573 0.0
H2468 H 0.87442 0.65628 0.87325 0.0
H2469 H 0.84392 0.61585 0.88958 0.0
H2470 H 0.84038 0.62499 0.84509 0.0
H2471 H 0.83848 0.63142 0.89582 0.0
C2472 C 0.83498 0.66279 0.83008 0.0
C2473 C 0.83502 0.67273 0.85789 0.0
C2474 C 0.84264 0.65267 0.83651 0.0
C2475 C 0.85039 0.65222 0.87104 0.0
C2476 C 0.84999 0.66182 0.89997 0.0
H2477 H 0.90577 0.59715 0.9301 0.0
H2478 H 0.88693 0.60942 0.93046 0.0
C2479 C 0.84234 0.67196 0.89356 0.0
C2480 C 0.86005 0.64267 0.87388 0.0
H2481 H 0.86505 0.61167 0.87263 0.0
C2482 C 0.87235 0.64653 0.87363 0.0
C2483 C 0.85734 0.62995 0.87445 0.0
C2484 C 0.84431 0.62529 0.87667 0.0
C2485 C 0.88202 0.63805 0.87267 0.0
C2486 C 0.87931 0.62536 0.87132 0.0
C2487 C 0.86705 0.62143 0.87299 0.0
C2488 C 0.88928 0.61618 0.86831 0.0
C2489 C 0.89508 0.64272 0.87289 0.0
C2490 C 0.89649 0.61554 0.83255 0.0
C2491 C 0.90727 0.60857 0.83217 0.0
C2492 C 0.91102 0.60213 0.86764 0.0
C2493 C 0.90323 0.60206 0.90234 0.0
C2494 C 0.89244 0.60904 0.90264 0.0
H2495 H 0.89562 0.6525 0.88261 0.0
H2496 H 0.9009 0.63714 0.89387 0.0
H2497 H 0.89896 0.64197 0.84133 0.0
H2498 H 0.8941 0.62092 0.80563 0.0
H2499 H 0.91296 0.60876 0.80478 0.0
H2500 H 0.13501 0.16854 0.58537 0.0
H2501 H 0.12724 0.14768 0.58496 0.0
H2502 H 0.1602 0.13512 0.64599 0.0
H2503 H 0.16781 0.15634 0.64855 0.0
H2504 H 0.13431 0.1271 0.55244 0.0
H2505 H 0.13519 0.12184 0.72324 0.0
H2506 H 0.13839 0.1363 0.69857 0.0
H2507 H 0.14978 0.12432 0.69887 0.0
C2508 C 0.14069 0.16137 0.59854 0.0
C2509 C 0.15198 0.16414 0.61739 0.0
C2510 C 0.13623 0.14939 0.59821 0.0
C2511 C 0.14301 0.13981 0.61609 0.0
C2512 C 0.15462 0.1424 0.63307 0.0
H2513 H 0.09696 0.07402 0.57794 0.0
H2514 H 0.1166 0.08506 0.57946 0.0
C2515 C 0.159 0.15451 0.63422 0.0
C2516 C 0.1374 0.12737 0.61795 0.0
H2517 H 0.12516 0.10664 0.68538 0.0
C2518 C 0.13243 0.12251 0.58144 0.0
C2519 C 0.13505 0.12134 0.65582 0.0
C2520 C 0.13979 0.12622 0.69643 0.0
C2521 C 0.12416 0.11262 0.58209 0.0
C2522 C 0.12132 0.10695 0.62027 0.0
C2523 C 0.12729 0.11103 0.65622 0.0
C2524 C 0.11069 0.09845 0.62479 0.0
C2525 C 0.11778 0.10916 0.54235 0.0
C2526 C 0.10123 0.1016 0.65231 0.0
C2527 C 0.09023 0.09504 0.65263 0.0
C2528 C 0.08834 0.08532 0.62482 0.0
C2529 C 0.0981 0.08161 0.59924 0.0
C2530 C 0.10928 0.08799 0.59981 0.0
H2531 H 0.11925 0.1161 0.51772 0.0
H2532 H 0.12149 0.10028 0.53103 0.0
H2533 H 0.10773 0.10814 0.54718 0.0
H2534 H 0.10206 0.10958 0.67209 0.0
H2535 H 0.08292 0.09815 0.67278 0.0
H2536 H 0.59693 0.41848 0.39889 0.0
H2537 H 0.61803 0.4106 0.39794 0.0
H2538 H 0.60687 0.38217 0.31283 0.0
H2539 H 0.58621 0.39046 0.31162 0.0
H2540 H 0.62556 0.39099 0.42658 0.0
H2541 H 0.63898 0.38845 0.26467 0.0
H2542 H 0.62582 0.39737 0.2806 0.0
H2543 H 0.62423 0.3813 0.2674 0.0
C2544 C 0.59913 0.41078 0.37904 0.0
C2545 C 0.58993 0.40509 0.35529 0.0
C2546 C 0.61118 0.40627 0.37852 0.0
C2547 C 0.61419 0.39588 0.35477 0.0
C2548 C 0.60503 0.39048 0.33014 0.0
H2549 H 0.64597 0.33189 0.42547 0.0
H2550 H 0.63737 0.35239 0.42272 0.0
C2551 C 0.59311 0.39515 0.32983 0.0
C2552 C 0.62617 0.38947 0.36015 0.0
H2553 H 0.64552 0.37049 0.30764 0.0
C2554 C 0.63017 0.38683 0.40041 0.0
C2555 C 0.63269 0.38439 0.32641 0.0
C2556 C 0.63025 0.3882 0.28244 0.0
C2557 C 0.63944 0.37814 0.40773 0.0
C2558 C 0.64436 0.37147 0.37409 0.0
C2559 C 0.64147 0.37522 0.33376 0.0
C2560 C 0.65089 0.35958 0.37987 0.0
C2561 C 0.6435 0.37598 0.45161 0.0
C2562 C 0.66125 0.35653 0.35602 0.0
C2563 C 0.66595 0.34456 0.35644 0.0
C2564 C 0.66047 0.33547 0.38118 0.0
C2565 C 0.65051 0.3387 0.4065 0.0
C2566 C 0.64566 0.35054 0.40531 0.0
H2567 H 0.64377 0.38479 0.4689 0.0
H2568 H 0.63673 0.36997 0.46736 0.0
H2569 H 0.65273 0.37164 0.45317 0.0
H2570 H 0.66543 0.36329 0.33595 0.0
H2571 H 0.67365 0.34233 0.33665 0.0
H2572 H 0.34104 0.84046 0.18711 0.0
H2573 H 0.35198 0.85996 0.18582 0.0
H2574 H 0.35587 0.85709 0.05376 0.0
H2575 H 0.34524 0.83734 0.05489 0.0
H2576 H 0.37741 0.85932 0.09046 0.0
H2577 H 0.34661 0.89515 0.15338 0.0
H2578 H 0.34744 0.882 0.18656 0.0
H2579 H 0.34097 0.88045 0.13567 0.0
C2580 C 0.34391 0.84412 0.15759 0.0
C2581 C 0.34241 0.83725 0.12115 0.0
C2582 C 0.35009 0.85536 0.15689 0.0
C2583 C 0.35468 0.86005 0.11967 0.0
C2584 C 0.35239 0.85365 0.08284 0.0
H2585 H 0.40801 0.91778 0.07319 0.0
H2586 H 0.38886 0.90607 0.07235 0.0
C2587 C 0.34633 0.84234 0.08356 0.0
C2588 C 0.36355 0.87039 0.12007 0.0
H2589 H 0.36842 0.89954 0.15602 0.0
C2590 C 0.37534 0.86818 0.10414 0.0
C2591 C 0.3609 0.88194 0.13821 0.0
C2592 C 0.34825 0.88507 0.15404 0.0
C2593 C 0.38464 0.87701 0.10696 0.0
C2594 C 0.38212 0.88834 0.12636 0.0
C2595 C 0.37029 0.89076 0.14146 0.0
C2596 C 0.39196 0.89751 0.13154 0.0
C2597 C 0.39724 0.8741 0.09005 0.0
C2598 C 0.39976 0.89685 0.16587 0.0
C2599 C 0.41077 0.90348 0.16646 0.0
C2600 C 0.41414 0.91079 0.13253 0.0
C2601 C 0.40577 0.91215 0.09968 0.0
C2602 C 0.39478 0.90553 0.09917 0.0
H2603 H 0.39768 0.86485 0.07564 0.0
H2604 H 0.39985 0.88105 0.06659 0.0
H2605 H 0.40415 0.87455 0.11524 0.0
H2606 H 0.39772 0.89062 0.19099 0.0
H2607 H 0.41694 0.90226 0.19235 0.0
H2608 H 0.91934 0.39794 0.6852 0.0
H2609 H 0.90015 0.38648 0.68379 0.0
H2610 H 0.88376 0.41444 0.60703 0.0
H2611 H 0.90337 0.42553 0.6059 0.0
H2612 H 0.8776 0.38888 0.70438 0.0
H2613 H 0.8791 0.38611 0.53313 0.0
H2614 H 0.8914 0.3928 0.56263 0.0
H2615 H 0.87751 0.40137 0.55318 0.0
C2616 C 0.9116 0.40176 0.6685 0.0
C2617 C 0.9129 0.41252 0.64511 0.0
C2618 C 0.9006 0.39519 0.6677 0.0
C2619 C 0.89058 0.39937 0.64422 0.0
C2620 C 0.8915 0.41075 0.62399 0.0
H2621 H 0.83025 0.34504 0.66267 0.0
H2622 H 0.83976 0.36545 0.66493 0.0
C2623 C 0.90265 0.41715 0.62374 0.0
C2624 C 0.87971 0.39124 0.63888 0.0
H2625 H 0.86375 0.37497 0.56641 0.0
C2626 C 0.87449 0.38589 0.6742 0.0
C2627 C 0.87563 0.38735 0.59941 0.0
C2628 C 0.88125 0.39211 0.55993 0.0
C2629 C 0.86608 0.37615 0.67131 0.0
C2630 C 0.86224 0.37207 0.63183 0.0
C2631 C 0.86671 0.37809 0.59661 0.0
C2632 C 0.85517 0.3605 0.62597 0.0
C2633 C 0.8622 0.36978 0.71057 0.0
C2634 C 0.86011 0.35121 0.60085 0.0
C2635 C 0.85446 0.33976 0.59827 0.0
C2636 C 0.84385 0.33723 0.62142 0.0
C2637 C 0.83852 0.3467 0.64493 0.0
C2638 C 0.84402 0.35832 0.64658 0.0
H2639 H 0.86817 0.37229 0.73708 0.0
H2640 H 0.85266 0.37253 0.71839 0.0
H2641 H 0.86246 0.35964 0.70685 0.0
H2642 H 0.86868 0.35264 0.58448 0.0
H2643 H 0.85882 0.33266 0.57997 0.0
H2644 H 0.33008 0.15942 0.29241 0.0
H2645 H 0.34251 0.14092 0.29774 0.0
H2646 H 0.34122 0.14332 0.43049 0.0
H2647 H 0.32911 0.16215 0.42542 0.0
H2648 H 0.36394 0.14297 0.40442 0.0
H2649 H 0.33947 0.10533 0.32506 0.0
H2650 H 0.34041 0.11866 0.29284 0.0
H2651 H 0.33183 0.11935 0.34034 0.0
C2652 C 0.3321 0.15583 0.32282 0.0
C2653 C 0.32872 0.16237 0.3585 0.0
C2654 C 0.33916 0.14515 0.3258 0.0
C2655 C 0.34276 0.14064 0.36452 0.0
C2656 C 0.33856 0.14662 0.40026 0.0
H2657 H 0.40167 0.08943 0.42634 0.0
H2658 H 0.38157 0.09945 0.42531 0.0
C2659 C 0.33163 0.15739 0.39731 0.0
C2660 C 0.3525 0.13112 0.36747 0.0
H2661 H 0.36166 0.10319 0.33009 0.0
C2662 C 0.3633 0.13417 0.38888 0.0
C2663 C 0.35174 0.11965 0.34692 0.0
C2664 C 0.34018 0.11551 0.32537 0.0
C2665 C 0.3735 0.12633 0.38898 0.0
C2666 C 0.37291 0.11513 0.36713 0.0
C2667 C 0.36205 0.11185 0.3466 0.0
C2668 C 0.38381 0.1071 0.36432 0.0
C2669 C 0.38505 0.13025 0.41127 0.0
C2670 C 0.3915 0.10779 0.32971 0.0
C2671 C 0.40304 0.10214 0.33018 0.0
C2672 C 0.40707 0.09572 0.36536 0.0
C2673 C 0.39893 0.09436 0.39883 0.0
C2674 C 0.38741 0.10004 0.39832 0.0
H2675 H 0.38435 0.13973 0.4238 0.0
H2676 H 0.38685 0.12387 0.43725 0.0
H2677 H 0.39305 0.12979 0.39009 0.0
H2678 H 0.38885 0.11326 0.30327 0.0
H2679 H 0.40903 0.10333 0.30379 0.0
H2680 H 0.63746 0.66639 0.09528 0.0
H2681 H 0.62814 0.64613 0.0922 0.0
H2682 H 0.65912 0.63085 0.15775 0.0
H2683 H 0.66817 0.65142 0.16326 0.0
H2684 H 0.63348 0.62489 0.06132 0.0
H2685 H 0.63248 0.62009 0.23231 0.0
H2686 H 0.63722 0.63411 0.20765 0.0
H2687 H 0.64746 0.62114 0.20952 0.0
C2688 C 0.64236 0.65871 0.10878 0.0
C2689 C 0.65346 0.66051 0.13004 0.0
C2690 C 0.63703 0.6471 0.10691 0.0
C2691 C 0.64277 0.63696 0.12556 0.0
C2692 C 0.6543 0.63857 0.14436 0.0
H2693 H 0.59107 0.57533 0.08791 0.0
H2694 H 0.6116 0.58465 0.08892 0.0
C2695 C 0.65951 0.6503 0.14721 0.0
C2696 C 0.63608 0.62508 0.12709 0.0
H2697 H 0.62157 0.60571 0.19394 0.0
C2698 C 0.63098 0.62057 0.09027 0.0
C2699 C 0.63294 0.61937 0.16491 0.0
C2700 C 0.63772 0.62394 0.2059 0.0
C2701 C 0.62187 0.61146 0.09047 0.0
C2702 C 0.61823 0.60622 0.12856 0.0
C2703 C 0.62431 0.6098 0.16486 0.0
C2704 C 0.60676 0.59892 0.13262 0.0
C2705 C 0.61552 0.6084 0.05032 0.0
C2706 C 0.5975 0.60323 0.15911 0.0
C2707 C 0.58597 0.59769 0.15964 0.0
C2708 C 0.58334 0.58784 0.13309 0.0
C2709 C 0.5928 0.58304 0.10824 0.0
C2710 C 0.60449 0.58842 0.10853 0.0
H2711 H 0.6179 0.61498 0.0254 0.0
H2712 H 0.61837 0.5991 0.04004 0.0
H2713 H 0.60538 0.60845 0.05421 0.0
H2714 H 0.59899 0.61129 0.1781 0.0
H2715 H 0.57892 0.60162 0.17919 0.0
H2716 H 0.0841 0.90507 0.94479 0.0
H2717 H 0.10428 0.89521 0.94454 0.0
H2718 H 0.10402 0.89491 0.81142 0.0
H2719 H 0.0836 0.90424 0.81162 0.0
H2720 H 0.10693 0.8729 0.83984 0.0
H2721 H 0.13961 0.90278 0.92334 0.0
H2722 H 0.126 0.90008 0.95314 0.0
H2723 H 0.12493 0.9083 0.90504 0.0
C2724 C 0.08851 0.90322 0.91549 0.0
C2725 C 0.08224 0.90528 0.87823 0.0
C2726 C 0.10011 0.89767 0.91536 0.0
C2727 C 0.10574 0.89439 0.87794 0.0
C2728 C 0.09987 0.89735 0.84067 0.0
H2729 H 0.16341 0.84109 0.82603 0.0
H2730 H 0.152 0.86042 0.82435 0.0
C2731 C 0.08819 0.90265 0.8408 0.0
C2732 C 0.11655 0.88606 0.87764 0.0
H2733 H 0.14502 0.88118 0.91931 0.0
C2734 C 0.11536 0.87486 0.8565 0.0
C2735 C 0.12751 0.88854 0.89972 0.0
C2736 C 0.12964 0.90064 0.92122 0.0
C2737 C 0.12458 0.86592 0.85797 0.0
C2738 C 0.13534 0.86823 0.88108 0.0
C2739 C 0.13673 0.87949 0.90159 0.0
C2740 C 0.14471 0.85854 0.88601 0.0
C2741 C 0.12255 0.85384 0.83604 0.0
C2742 C 0.14481 0.85144 0.92203 0.0
C2743 C 0.15126 0.84034 0.92311 0.0
C2744 C 0.15768 0.83619 0.88807 0.0
C2745 C 0.15846 0.84393 0.85341 0.0
C2746 C 0.15199 0.85501 0.85239 0.0
H2747 H 0.11305 0.85294 0.82382 0.0
H2748 H 0.12905 0.85309 0.80978 0.0
H2749 H 0.12438 0.84604 0.85724 0.0
H2750 H 0.1392 0.85403 0.94822 0.0
H2751 H 0.15056 0.83469 0.95047 0.0
loop_
_geom_bond_atom_site_label_1
_geom_bond_atom_site_label_2
_geom_bond_distance
_geom_bond_site_symmetry_2
_ccdc_geom_bond_type
Mg0 O1 2.028 . S
Mg0 O7 1.986 . S
Mg0 O9 2.114 . S
Mg0 O10 2.251 . S
Mg0 O13 2.010 1_554 S
O1 Mg0 2.028 . S
O1 C4 1.250 . S
O2 Mg3 2.028 . S
O2 C4 1.248 . S
Mg3 O2 2.028 . S
Mg3 O8 2.032 . S
Mg3 O10 2.079 . S
C4 O1 1.250 . S
C4 O2 1.248 . S
C5 O6 1.264 . S
C5 O13 1.249 . S
O6 C5 1.264 . S
O7 Mg0 1.986 . S
O7 C11 1.246 . S
O8 Mg3 2.032 . S
O8 C11 1.259 . S
O9 Mg0 2.114 . S
O9 C12 1.252 . S
O10 Mg0 2.251 . S
O10 Mg3 2.079 . S
O10 C12 1.273 . S
C11 O7 1.246 . S
C11 O8 1.259 . S
C12 O9 1.252 . S
C12 O10 1.273 . S
O13 Mg0 2.010 1_556 S
O13 C5 1.249 . S
Mg14 O15 2.028 . S
Mg14 O21 1.986 . S
Mg14 O23 2.114 . S
Mg14 O24 2.251 . S
Mg14 O27 2.010 . S
O15 Mg14 2.028 . S
O15 C18 1.250 . S
O16 Mg17 2.028 . S
O16 C18 1.248 . S
Mg17 O16 2.028 . S
Mg17 O22 2.032 . S
Mg17 O24 2.079 . S
C18 O15 1.250 . S
C18 O16 1.248 . S
C19 O20 1.264 . S
C19 O27 1.249 . S
O20 C19 1.264 . S
O21 Mg14 1.986 . S
O21 C25 1.246 . S
O22 Mg17 2.032 . S
O22 C25 1.259 . S
O23 Mg14 2.114 . S
O23 C26 1.252 . S
O24 Mg14 2.251 . S
O24 Mg17 2.079 . S
O24 C26 1.273 . S
C25 O21 1.246 . S
C25 O22 1.259 . S
C26 O23 1.252 . S
C26 O24 1.273 . S
O27 Mg14 2.010 . S
O27 C19 1.249 . S
Mg28 O29 2.028 . S
Mg28 O35 1.986 . S
Mg28 O37 2.114 . S
Mg28 O38 2.251 . S
Mg28 O41 2.010 . S
O29 Mg28 2.028 . S
O29 C32 1.250 . S
O30 Mg31 2.028 . S
O30 C32 1.248 . S
Mg31 O30 2.028 . S
Mg31 O36 2.032 . S
Mg31 O38 2.079 . S
C32 O29 1.250 . S
C32 O30 1.248 . S
C33 O34 1.264 . S
C33 O41 1.249 . S
O34 C33 1.264 . S
O35 Mg28 1.986 . S
O35 C39 1.246 . S
O36 Mg31 2.032 . S
O36 C39 1.259 . S
O37 Mg28 2.114 . S
O37 C40 1.252 . S
O38 Mg28 2.251 . S
O38 Mg31 2.079 . S
O38 C40 1.273 . S
C39 O35 1.246 . S
C39 O36 1.259 . S
C40 O37 1.252 . S
C40 O38 1.273 . S
O41 Mg28 2.010 . S
O41 C33 1.249 . S
Mg42 O43 2.028 . S
Mg42 O49 1.986 . S
Mg42 O51 2.114 . S
Mg42 O52 2.251 . S
Mg42 O55 2.010 . S
O43 Mg42 2.028 . S
O43 C46 1.250 . S
O44 Mg45 2.028 . S
O44 C46 1.248 . S
Mg45 O44 2.028 . S
Mg45 O50 2.032 . S
Mg45 O52 2.079 . S
C46 O43 1.250 . S
C46 O44 1.248 . S
C47 O48 1.264 . S
C47 O55 1.249 . S
O48 C47 1.264 . S
O49 Mg42 1.986 . S
O49 C53 1.246 . S
O50 Mg45 2.032 . S
O50 C53 1.259 . S
O51 Mg42 2.114 . S
O51 C54 1.252 . S
O52 Mg42 2.251 . S
O52 Mg45 2.079 . S
O52 C54 1.273 . S
C53 O49 1.246 . S
C53 O50 1.259 . S
C54 O51 1.252 . S
C54 O52 1.273 . S
O55 Mg42 2.010 . S
O55 C47 1.249 . S
Mg56 O57 2.028 . S
Mg56 O63 1.986 . S
Mg56 O65 2.114 . S
Mg56 O66 2.251 . S
Mg56 O69 2.010 . S
O57 Mg56 2.028 . S
O57 C60 1.250 . S
O58 Mg59 2.028 . S
O58 C60 1.248 . S
Mg59 O58 2.028 . S
Mg59 O64 2.032 . S
Mg59 O66 2.079 . S
C60 O57 1.250 . S
C60 O58 1.248 . S
C61 O62 1.264 . S
C61 O69 1.249 . S
O62 C61 1.264 . S
O63 Mg56 1.986 . S
O63 C67 1.246 . S
O64 Mg59 2.032 . S
O64 C67 1.259 . S
O65 Mg56 2.114 . S
O65 C68 1.252 . S
O66 Mg56 2.251 . S
O66 Mg59 2.079 . S
O66 C68 1.273 . S
C67 O63 1.246 . S
C67 O64 1.259 . S
C68 O65 1.252 . S
C68 O66 1.273 . S
O69 Mg56 2.010 . S
O69 C61 1.249 . S
Mg70 O71 2.028 . S
Mg70 O77 1.986 . S
Mg70 O79 2.114 . S
Mg70 O80 2.251 . S
Mg70 O83 2.010 . S
O71 Mg70 2.028 . S
O71 C74 1.250 . S
O72 Mg73 2.028 . S
O72 C74 1.248 . S
Mg73 O72 2.028 . S
Mg73 O78 2.032 . S
Mg73 O80 2.079 . S
C74 O71 1.250 . S
C74 O72 1.248 . S
C75 O76 1.264 . S
C75 O83 1.249 . S
O76 C75 1.264 . S
O77 Mg70 1.986 . S
O77 C81 1.246 . S
O78 Mg73 2.032 . S
O78 C81 1.259 . S
O79 Mg70 2.114 . S
O79 C82 1.252 . S
O80 Mg70 2.251 . S
O80 Mg73 2.079 . S
O80 C82 1.273 . S
C81 O77 1.246 . S
C81 O78 1.259 . S
C82 O79 1.252 . S
C82 O80 1.273 . S
O83 Mg70 2.010 . S
O83 C75 1.249 . S
Mg84 O85 2.028 . S
Mg84 O91 1.986 . S
Mg84 O93 2.114 . S
Mg84 O94 2.251 . S
Mg84 O97 2.010 1_556 S
O85 Mg84 2.028 . S
O85 C88 1.250 . S
O86 Mg87 2.028 . S
O86 C88 1.248 . S
Mg87 O86 2.028 . S
Mg87 O92 2.032 . S
Mg87 O94 2.079 . S
C88 O85 1.250 . S
C88 O86 1.248 . S
C89 O90 1.264 . S
C89 O97 1.249 . S
O90 C89 1.264 . S
O91 Mg84 1.986 . S
O91 C95 1.246 . S
O92 Mg87 2.032 . S
O92 C95 1.259 . S
O93 Mg84 2.114 . S
O93 C96 1.252 . S
O94 Mg84 2.251 . S
O94 Mg87 2.079 . S
O94 C96 1.273 . S
C95 O91 1.246 . S
C95 O92 1.259 . S
C96 O93 1.252 . S
C96 O94 1.273 . S
O97 Mg84 2.010 1_554 S
O97 C89 1.249 . S
Mg98 O99 2.028 . S
Mg98 O105 1.986 . S
Mg98 O107 2.114 . S
Mg98 O108 2.251 . S
Mg98 O111 2.010 . S
O99 Mg98 2.028 . S
O99 C102 1.250 . S
O100 Mg101 2.028 . S
O100 C102 1.248 . S
Mg101 O100 2.028 . S
Mg101 O106 2.032 . S
Mg101 O108 2.079 . S
C102 O99 1.250 . S
C102 O100 1.248 . S
C103 O104 1.264 . S
C103 O111 1.249 . S
O104 C103 1.264 . S
O105 Mg98 1.986 . S
O105 C109 1.246 . S
O106 Mg101 2.032 . S
O106 C109 1.259 . S
O107 Mg98 2.114 . S
O107 C110 1.252 . S
O108 Mg98 2.251 . S
O108 Mg101 2.079 . S
O108 C110 1.273 . S
C109 O105 1.246 . S
C109 O106 1.259 . S
C110 O107 1.252 . S
C110 O108 1.273 . S
O111 Mg98 2.010 . S
O111 C103 1.249 . S
Mg112 O113 2.028 . S
Mg112 O119 1.986 . S
Mg112 O121 2.114 . S
Mg112 O122 2.251 . S
Mg112 O125 2.010 1_556 S
O113 Mg112 2.028 . S
O113 C116 1.250 . S
O114 Mg115 2.028 . S
O114 C116 1.248 . S
Mg115 O114 2.028 . S
Mg115 O120 2.032 . S
Mg115 O122 2.079 . S
C116 O113 1.250 . S
C116 O114 1.248 . S
C117 O118 1.264 . S
C117 O125 1.249 . S
O118 C117 1.264 . S
O119 Mg112 1.986 . S
O119 C123 1.246 . S
O120 Mg115 2.032 . S
O120 C123 1.259 . S
O121 Mg112 2.114 . S
O121 C124 1.252 . S
O122 Mg112 2.251 . S
O122 Mg115 2.079 . S
O122 C124 1.273 . S
C123 O119 1.246 . S
C123 O120 1.259 . S
C124 O121 1.252 . S
C124 O122 1.273 . S
O125 Mg112 2.010 1_554 S
O125 C117 1.249 . S
Mg126 O127 2.028 . S
Mg126 O133 1.986 . S
Mg126 O135 2.114 . S
Mg126 O136 2.251 . S
Mg126 O139 2.010 . S
O127 Mg126 2.028 . S
O127 C130 1.250 . S
O128 Mg129 2.028 . S
O128 C130 1.248 . S
Mg129 O128 2.028 . S
Mg129 O134 2.032 . S
Mg129 O136 2.079 . S
C130 O127 1.250 . S
C130 O128 1.248 . S
C131 O132 1.264 . S
C131 O139 1.249 . S
O132 C131 1.264 . S
O133 Mg126 1.986 . S
O133 C137 1.246 . S
O134 Mg129 2.032 . S
O134 C137 1.259 . S
O135 Mg126 2.114 . S
O135 C138 1.252 . S
O136 Mg126 2.251 . S
O136 Mg129 2.079 . S
O136 C138 1.273 . S
C137 O133 1.246 . S
C137 O134 1.259 . S
C138 O135 1.252 . S
C138 O136 1.273 . S
O139 Mg126 2.010 . S
O139 C131 1.249 . S
Mg140 O141 2.028 . S
Mg140 O147 1.986 . S
Mg140 O149 2.114 . S
Mg140 O150 2.251 . S
Mg140 O153 2.010 . S
O141 Mg140 2.028 . S
O141 C144 1.250 . S
O142 Mg143 2.028 . S
O142 C144 1.248 . S
Mg143 O142 2.028 . S
Mg143 O148 2.032 . S
Mg143 O150 2.079 . S
C144 O141 1.250 . S
C144 O142 1.248 . S
C145 O146 1.264 . S
C145 O153 1.249 . S
O146 C145 1.264 . S
O147 Mg140 1.986 . S
O147 C151 1.246 . S
O148 Mg143 2.032 . S
O148 C151 1.259 . S
O149 Mg140 2.114 . S
O149 C152 1.252 . S
O150 Mg140 2.251 . S
O150 Mg143 2.079 . S
O150 C152 1.273 . S
C151 O147 1.246 . S
C151 O148 1.259 . S
C152 O149 1.252 . S
C152 O150 1.273 . S
O153 Mg140 2.010 . S
O153 C145 1.249 . S
Mg154 O155 2.028 . S
Mg154 O161 1.986 . S
Mg154 O163 2.114 . S
Mg154 O164 2.251 . S
Mg154 O167 2.010 . S
O155 Mg154 2.028 . S
O155 C158 1.250 . S
O156 Mg157 2.028 . S
O156 C158 1.248 . S
Mg157 O156 2.028 . S
Mg157 O162 2.032 . S
Mg157 O164 2.079 . S
C158 O155 1.250 . S
C158 O156 1.248 . S
C159 O160 1.264 . S
C159 O167 1.249 . S
O160 C159 1.264 . S
O161 Mg154 1.986 . S
O161 C165 1.246 . S
O162 Mg157 2.032 . S
O162 C165 1.259 . S
O163 Mg154 2.114 . S
O163 C166 1.252 . S
O164 Mg154 2.251 . S
O164 Mg157 2.079 . S
O164 C166 1.273 . S
C165 O161 1.246 . S
C165 O162 1.259 . S
C166 O163 1.252 . S
C166 O164 1.273 . S
O167 Mg154 2.010 . S
O167 C159 1.249 . S
Mg168 O169 2.028 . S
Mg168 O175 1.986 . S
Mg168 O177 2.114 . S
Mg168 O178 2.251 . S
Mg168 O181 2.010 . S
O169 Mg168 2.028 . S
O169 C172 1.250 . S
O170 Mg171 2.028 . S
O170 C172 1.248 . S
Mg171 O170 2.028 . S
Mg171 O176 2.032 . S
Mg171 O178 2.079 . S
C172 O169 1.250 . S
C172 O170 1.248 . S
C173 O174 1.264 . S
C173 O181 1.249 . S
O174 C173 1.264 . S
O175 Mg168 1.986 . S
O175 C179 1.246 . S
O176 Mg171 2.032 . S
O176 C179 1.259 . S
O177 Mg168 2.114 . S
O177 C180 1.252 . S
O178 Mg168 2.251 . S
O178 Mg171 2.079 . S
O178 C180 1.273 . S
C179 O175 1.246 . S
C179 O176 1.259 . S
C180 O177 1.252 . S
C180 O178 1.273 . S
O181 Mg168 2.010 . S
O181 C173 1.249 . S
Mg182 O183 2.028 . S
Mg182 O189 1.986 . S
Mg182 O191 2.114 . S
Mg182 O192 2.251 . S
Mg182 O195 2.010 . S
O183 Mg182 2.028 . S
O183 C186 1.250 . S
O184 Mg185 2.028 . S
O184 C186 1.248 . S
Mg185 O184 2.028 . S
Mg185 O190 2.032 . S
Mg185 O192 2.079 . S
C186 O183 1.250 . S
C186 O184 1.248 . S
C187 O188 1.264 . S
C187 O195 1.249 . S
O188 C187 1.264 . S
O189 Mg182 1.986 . S
O189 C193 1.246 . S
O190 Mg185 2.032 . S
O190 C193 1.259 . S
O191 Mg182 2.114 . S
O191 C194 1.252 . S
O192 Mg182 2.251 . S
O192 Mg185 2.079 . S
O192 C194 1.273 . S
C193 O189 1.246 . S
C193 O190 1.259 . S
C194 O191 1.252 . S
C194 O192 1.273 . S
O195 Mg182 2.010 . S
O195 C187 1.249 . S
Mg196 O197 2.028 . S
Mg196 O203 1.986 . S
Mg196 O205 2.114 . S
Mg196 O206 2.251 . S
Mg196 O209 2.010 1_554 S
O197 Mg196 2.028 . S
O197 C200 1.250 . S
O198 Mg199 2.028 . S
O198 C200 1.248 . S
Mg199 O198 2.028 . S
Mg199 O204 2.032 . S
Mg199 O206 2.079 . S
C200 O197 1.250 . S
C200 O198 1.248 . S
C201 O202 1.264 . S
C201 O209 1.249 . S
O202 C201 1.264 . S
O203 Mg196 1.986 . S
O203 C207 1.246 . S
O204 Mg199 2.032 . S
O204 C207 1.259 . S
O205 Mg196 2.114 . S
O205 C208 1.252 . S
O206 Mg196 2.251 . S
O206 Mg199 2.079 . S
O206 C208 1.273 . S
C207 O203 1.246 . S
C207 O204 1.259 . S
C208 O205 1.252 . S
C208 O206 1.273 . S
O209 Mg196 2.010 1_556 S
O209 C201 1.249 . S
Mg210 O211 2.028 . S
Mg210 O217 1.986 . S
Mg210 O219 2.114 . S
Mg210 O220 2.251 . S
Mg210 O223 2.010 . S
O211 Mg210 2.028 . S
O211 C214 1.250 . S
O212 Mg213 2.028 . S
O212 C214 1.248 . S
Mg213 O212 2.028 . S
Mg213 O218 2.032 . S
Mg213 O220 2.079 . S
C214 O211 1.250 . S
C214 O212 1.248 . S
C215 O216 1.264 . S
C215 O223 1.249 . S
O216 C215 1.264 . S
O217 Mg210 1.986 . S
O217 C221 1.246 . S
O218 Mg213 2.032 . S
O218 C221 1.259 . S
O219 Mg210 2.114 . S
O219 C222 1.252 . S
O220 Mg210 2.251 . S
O220 Mg213 2.079 . S
O220 C222 1.273 . S
C221 O217 1.246 . S
C221 O218 1.259 . S
C222 O219 1.252 . S
C222 O220 1.273 . S
O223 Mg210 2.010 . S
O223 C215 1.249 . S
Mg224 O225 2.028 . S
Mg224 O231 1.986 . S
Mg224 O233 2.114 . S
Mg224 O234 2.251 . S
Mg224 O237 2.010 . S
O225 Mg224 2.028 . S
O225 C228 1.250 . S
O226 Mg227 2.028 . S
O226 C228 1.248 . S
Mg227 O226 2.028 . S
Mg227 O232 2.032 . S
Mg227 O234 2.079 . S
C228 O225 1.250 . S
C228 O226 1.248 . S
C229 O230 1.264 . S
C229 O237 1.249 . S
O230 C229 1.264 . S
O231 Mg224 1.986 . S
O231 C235 1.246 . S
O232 Mg227 2.032 . S
O232 C235 1.259 . S
O233 Mg224 2.114 . S
O233 C236 1.252 . S
O234 Mg224 2.251 . S
O234 Mg227 2.079 . S
O234 C236 1.273 . S
C235 O231 1.246 . S
C235 O232 1.259 . S
C236 O233 1.252 . S
C236 O234 1.273 . S
O237 Mg224 2.010 . S
O237 C229 1.249 . S
Mg238 O239 2.028 . S
Mg238 O245 1.986 . S
Mg238 O247 2.114 . S
Mg238 O248 2.251 . S
Mg238 O251 2.010 . S
O239 Mg238 2.028 . S
O239 C242 1.250 . S
O240 Mg241 2.028 . S
O240 C242 1.248 . S
Mg241 O240 2.028 . S
Mg241 O246 2.032 . S
Mg241 O248 2.079 . S
C242 O239 1.250 . S
C242 O240 1.248 . S
C243 O244 1.264 . S
C243 O251 1.249 . S
O244 C243 1.264 . S
O245 Mg238 1.986 . S
O245 C249 1.246 . S
O246 Mg241 2.032 . S
O246 C249 1.259 . S
O247 Mg238 2.114 . S
O247 C250 1.252 . S
O248 Mg238 2.251 . S
O248 Mg241 2.079 . S
O248 C250 1.273 . S
C249 O245 1.246 . S
C249 O246 1.259 . S
C250 O247 1.252 . S
C250 O248 1.273 . S
O251 Mg238 2.010 . S
O251 C243 1.249 . S
Mg252 O253 2.028 . S
Mg252 O259 1.986 . S
Mg252 O261 2.114 . S
Mg252 O262 2.251 . S
Mg252 O265 2.010 1_554 S
O253 Mg252 2.028 . S
O253 C256 1.250 . S
O254 Mg255 2.028 . S
O254 C256 1.248 . S
Mg255 O254 2.028 . S
Mg255 O260 2.032 . S
Mg255 O262 2.079 . S
C256 O253 1.250 . S
C256 O254 1.248 . S
C257 O258 1.264 . S
C257 O265 1.249 . S
O258 C257 1.264 . S
O259 Mg252 1.986 . S
O259 C263 1.246 . S
O260 Mg255 2.032 . S
O260 C263 1.259 . S
O261 Mg252 2.114 . S
O261 C264 1.252 . S
O262 Mg252 2.251 . S
O262 Mg255 2.079 . S
O262 C264 1.273 . S
C263 O259 1.246 . S
C263 O260 1.259 . S
C264 O261 1.252 . S
C264 O262 1.273 . S
O265 Mg252 2.010 1_556 S
O265 C257 1.249 . S
Mg266 O267 2.028 . S
Mg266 O273 1.986 . S
Mg266 O275 2.114 . S
Mg266 O276 2.251 . S
Mg266 O279 2.010 . S
O267 Mg266 2.028 . S
O267 C270 1.250 . S
O268 Mg269 2.028 . S
O268 C270 1.248 . S
Mg269 O268 2.028 . S
Mg269 O274 2.032 . S
Mg269 O276 2.079 . S
C270 O267 1.250 . S
C270 O268 1.248 . S
C271 O272 1.264 . S
C271 O279 1.249 . S
O272 C271 1.264 . S
O273 Mg266 1.986 . S
O273 C277 1.246 . S
O274 Mg269 2.032 . S
O274 C277 1.259 . S
O275 Mg266 2.114 . S
O275 C278 1.252 . S
O276 Mg266 2.251 . S
O276 Mg269 2.079 . S
O276 C278 1.273 . S
C277 O273 1.246 . S
C277 O274 1.259 . S
C278 O275 1.252 . S
C278 O276 1.273 . S
O279 Mg266 2.010 . S
O279 C271 1.249 . S
Mg280 O281 2.028 . S
Mg280 O287 1.986 . S
Mg280 O289 2.114 . S
Mg280 O290 2.251 . S
Mg280 O293 2.010 1_556 S
O281 Mg280 2.028 . S
O281 C284 1.250 . S
O282 Mg283 2.028 . S
O282 C284 1.248 . S
Mg283 O282 2.028 . S
Mg283 O288 2.032 . S
Mg283 O290 2.079 . S
C284 O281 1.250 . S
C284 O282 1.248 . S
C285 O286 1.264 . S
C285 O293 1.249 . S
O286 C285 1.264 . S
O287 Mg280 1.986 . S
O287 C291 1.246 . S
O288 Mg283 2.032 . S
O288 C291 1.259 . S
O289 Mg280 2.114 . S
O289 C292 1.252 . S
O290 Mg280 2.251 . S
O290 Mg283 2.079 . S
O290 C292 1.273 . S
C291 O287 1.246 . S
C291 O288 1.259 . S
C292 O289 1.252 . S
C292 O290 1.273 . S
O293 Mg280 2.010 1_554 S
O293 C285 1.249 . S
Mg294 O295 2.028 . S
Mg294 O301 1.986 . S
Mg294 O303 2.114 . S
Mg294 O304 2.251 . S
Mg294 O307 2.010 . S
O295 Mg294 2.028 . S
O295 C298 1.250 . S
O296 Mg297 2.028 . S
O296 C298 1.248 . S
Mg297 O296 2.028 . S
Mg297 O302 2.032 . S
Mg297 O304 2.079 . S
C298 O295 1.250 . S
C298 O296 1.248 . S
C299 O300 1.264 . S
C299 O307 1.249 . S
O300 C299 1.264 . S
O301 Mg294 1.986 . S
O301 C305 1.246 . S
O302 Mg297 2.032 . S
O302 C305 1.259 . S
O303 Mg294 2.114 . S
O303 C306 1.252 . S
O304 Mg294 2.251 . S
O304 Mg297 2.079 . S
O304 C306 1.273 . S
C305 O301 1.246 . S
C305 O302 1.259 . S
C306 O303 1.252 . S
C306 O304 1.273 . S
O307 Mg294 2.010 . S
O307 C299 1.249 . S
Mg308 O309 2.028 . S
Mg308 O315 1.986 . S
Mg308 O317 2.114 . S
Mg308 O318 2.251 . S
Mg308 O321 2.010 . S
O309 Mg308 2.028 . S
O309 C312 1.250 . S
O310 Mg311 2.028 . S
O310 C312 1.248 . S
Mg311 O310 2.028 . S
Mg311 O316 2.032 . S
Mg311 O318 2.079 . S
C312 O309 1.250 . S
C312 O310 1.248 . S
C313 O314 1.264 . S
C313 O321 1.249 . S
O314 C313 1.264 . S
O315 Mg308 1.986 . S
O315 C319 1.246 . S
O316 Mg311 2.032 . S
O316 C319 1.259 . S
O317 Mg308 2.114 . S
O317 C320 1.252 . S
O318 Mg308 2.251 . S
O318 Mg311 2.079 . S
O318 C320 1.273 . S
C319 O315 1.246 . S
C319 O316 1.259 . S
C320 O317 1.252 . S
C320 O318 1.273 . S
O321 Mg308 2.010 . S
O321 C313 1.249 . S
Mg322 O323 2.028 . S
Mg322 O329 1.986 . S
Mg322 O331 2.114 . S
Mg322 O332 2.251 . S
Mg322 O335 2.010 . S
O323 Mg322 2.028 . S
O323 C326 1.250 . S
O324 Mg325 2.028 . S
O324 C326 1.248 . S
Mg325 O324 2.028 . S
Mg325 O330 2.032 . S
Mg325 O332 2.079 . S
C326 O323 1.250 . S
C326 O324 1.248 . S
C327 O328 1.264 . S
C327 O335 1.249 . S
O328 C327 1.264 . S
O329 Mg322 1.986 . S
O329 C333 1.246 . S
O330 Mg325 2.032 . S
O330 C333 1.259 . S
O331 Mg322 2.114 . S
O331 C334 1.252 . S
O332 Mg322 2.251 . S
O332 Mg325 2.079 . S
O332 C334 1.273 . S
C333 O329 1.246 . S
C333 O330 1.259 . S
C334 O331 1.252 . S
C334 O332 1.273 . S
O335 Mg322 2.010 . S
O335 C327 1.249 . S
Mg336 O337 2.028 . S
Mg336 O343 1.986 . S
Mg336 O345 2.114 . S
Mg336 O346 2.251 . S
Mg336 O349 2.010 . S
O337 Mg336 2.028 . S
O337 C340 1.250 . S
O338 Mg339 2.028 . S
O338 C340 1.248 . S
Mg339 O338 2.028 . S
Mg339 O344 2.032 . S
Mg339 O346 2.079 . S
C340 O337 1.250 . S
C340 O338 1.248 . S
C341 O342 1.264 . S
C341 O349 1.249 . S
O342 C341 1.264 . S
O343 Mg336 1.986 . S
O343 C347 1.246 . S
O344 Mg339 2.032 . S
O344 C347 1.259 . S
O345 Mg336 2.114 . S
O345 C348 1.252 . S
O346 Mg336 2.251 . S
O346 Mg339 2.079 . S
O346 C348 1.273 . S
C347 O343 1.246 . S
C347 O344 1.259 . S
C348 O345 1.252 . S
C348 O346 1.273 . S
O349 Mg336 2.010 . S
O349 C341 1.249 . S
Mg350 O351 2.028 . S
Mg350 O357 1.986 . S
Mg350 O359 2.114 . S
Mg350 O360 2.251 . S
Mg350 O363 2.010 . S
O351 Mg350 2.028 . S
O351 C354 1.250 . S
O352 Mg353 2.028 . S
O352 C354 1.248 . S
Mg353 O352 2.028 . S
Mg353 O358 2.032 . S
Mg353 O360 2.079 . S
C354 O351 1.250 . S
C354 O352 1.248 . S
C355 O356 1.264 . S
C355 O363 1.249 . S
O356 C355 1.264 . S
O357 Mg350 1.986 . S
O357 C361 1.246 . S
O358 Mg353 2.032 . S
O358 C361 1.259 . S
O359 Mg350 2.114 . S
O359 C362 1.252 . S
O360 Mg350 2.251 . S
O360 Mg353 2.079 . S
O360 C362 1.273 . S
C361 O357 1.246 . S
C361 O358 1.259 . S
C362 O359 1.252 . S
C362 O360 1.273 . S
O363 Mg350 2.010 . S
O363 C355 1.249 . S
Mg364 O365 2.028 . S
Mg364 O371 1.986 . S
Mg364 O373 2.114 . S
Mg364 O374 2.251 . S
Mg364 O377 2.010 1_556 S
O365 Mg364 2.028 . S
O365 C368 1.250 . S
O366 Mg367 2.028 . S
O366 C368 1.248 . S
Mg367 O366 2.028 . S
Mg367 O372 2.032 . S
Mg367 O374 2.079 . S
C368 O365 1.250 . S
C368 O366 1.248 . S
C369 O370 1.264 . S
C369 O377 1.249 . S
O370 C369 1.264 . S
O371 Mg364 1.986 . S
O371 C375 1.246 . S
O372 Mg367 2.032 . S
O372 C375 1.259 . S
O373 Mg364 2.114 . S
O373 C376 1.252 . S
O374 Mg364 2.251 . S
O374 Mg367 2.079 . S
O374 C376 1.273 . S
C375 O371 1.246 . S
C375 O372 1.259 . S
C376 O373 1.252 . S
C376 O374 1.273 . S
O377 Mg364 2.010 1_554 S
O377 C369 1.249 . S
Mg378 O379 2.028 . S
Mg378 O385 1.986 . S
Mg378 O387 2.114 . S
Mg378 O388 2.251 . S
Mg378 O391 2.010 . S
O379 Mg378 2.028 . S
O379 C382 1.250 . S
O380 Mg381 2.028 . S
O380 C382 1.248 . S
Mg381 O380 2.028 . S
Mg381 O386 2.032 . S
Mg381 O388 2.079 . S
C382 O379 1.250 . S
C382 O380 1.248 . S
C383 O384 1.264 . S
C383 O391 1.249 . S
O384 C383 1.264 . S
O385 Mg378 1.986 . S
O385 C389 1.246 . S
O386 Mg381 2.032 . S
O386 C389 1.259 . S
O387 Mg378 2.114 . S
O387 C390 1.252 . S
O388 Mg378 2.251 . S
O388 Mg381 2.079 . S
O388 C390 1.273 . S
C389 O385 1.246 . S
C389 O386 1.259 . S
C390 O387 1.252 . S
C390 O388 1.273 . S
O391 Mg378 2.010 . S
O391 C383 1.249 . S
Mg392 O393 2.028 . S
Mg392 O399 1.986 . S
Mg392 O401 2.114 . S
Mg392 O402 2.251 . S
Mg392 O405 2.010 1_554 S
O393 Mg392 2.028 . S
O393 C396 1.250 . S
O394 Mg395 2.028 . S
O394 C396 1.248 . S
Mg395 O394 2.028 . S
Mg395 O400 2.032 . S
Mg395 O402 2.079 . S
C396 O393 1.250 . S
C396 O394 1.248 . S
C397 O398 1.264 . S
C397 O405 1.249 . S
O398 C397 1.264 . S
O399 Mg392 1.986 . S
O399 C403 1.246 . S
O400 Mg395 2.032 . S
O400 C403 1.259 . S
O401 Mg392 2.114 . S
O401 C404 1.252 . S
O402 Mg392 2.251 . S
O402 Mg395 2.079 . S
O402 C404 1.273 . S
C403 O399 1.246 . S
C403 O400 1.259 . S
C404 O401 1.252 . S
C404 O402 1.273 . S
O405 Mg392 2.010 1_556 S
O405 C397 1.249 . S
Mg406 O407 2.028 . S
Mg406 O413 1.986 . S
Mg406 O415 2.114 . S
Mg406 O416 2.251 . S
Mg406 O419 2.010 . S
O407 Mg406 2.028 . S
O407 C410 1.250 . S
O408 Mg409 2.028 . S
O408 C410 1.248 . S
Mg409 O408 2.028 . S
Mg409 O414 2.032 . S
Mg409 O416 2.079 . S
C410 O407 1.250 . S
C410 O408 1.248 . S
C411 O412 1.264 . S
C411 O419 1.249 . S
O412 C411 1.264 . S
O413 Mg406 1.986 . S
O413 C417 1.246 . S
O414 Mg409 2.032 . S
O414 C417 1.259 . S
O415 Mg406 2.114 . S
O415 C418 1.252 . S
O416 Mg406 2.251 . S
O416 Mg409 2.079 . S
O416 C418 1.273 . S
C417 O413 1.246 . S
C417 O414 1.259 . S
C418 O415 1.252 . S
C418 O416 1.273 . S
O419 Mg406 2.010 . S
O419 C411 1.249 . S
Mg420 O421 2.028 . S
Mg420 O427 1.986 . S
Mg420 O429 2.114 . S
Mg420 O430 2.251 . S
Mg420 O433 2.010 . S
O421 Mg420 2.028 . S
O421 C424 1.250 . S
O422 Mg423 2.028 . S
O422 C424 1.248 . S
Mg423 O422 2.028 . S
Mg423 O428 2.032 . S
Mg423 O430 2.079 . S
C424 O421 1.250 . S
C424 O422 1.248 . S
C425 O426 1.264 . S
C425 O433 1.249 . S
O426 C425 1.264 . S
O427 Mg420 1.986 . S
O427 C431 1.246 . S
O428 Mg423 2.032 . S
O428 C431 1.259 . S
O429 Mg420 2.114 . S
O429 C432 1.252 . S
O430 Mg420 2.251 . S
O430 Mg423 2.079 . S
O430 C432 1.273 . S
C431 O427 1.246 . S
C431 O428 1.259 . S
C432 O429 1.252 . S
C432 O430 1.273 . S
O433 Mg420 2.010 . S
O433 C425 1.249 . S
Mg434 O435 2.028 . S
Mg434 O441 1.986 . S
Mg434 O443 2.114 . S
Mg434 O444 2.251 . S
Mg434 O447 2.010 . S
O435 Mg434 2.028 . S
O435 C438 1.250 . S
O436 Mg437 2.028 . S
O436 C438 1.248 . S
Mg437 O436 2.028 . S
Mg437 O442 2.032 . S
Mg437 O444 2.079 . S
C438 O435 1.250 . S
C438 O436 1.248 . S
C439 O440 1.264 . S
C439 O447 1.249 . S
O440 C439 1.264 . S
O441 Mg434 1.986 . S
O441 C445 1.246 . S
O442 Mg437 2.032 . S
O442 C445 1.259 . S
O443 Mg434 2.114 . S
O443 C446 1.252 . S
O444 Mg434 2.251 . S
O444 Mg437 2.079 . S
O444 C446 1.273 . S
C445 O441 1.246 . S
C445 O442 1.259 . S
C446 O443 1.252 . S
C446 O444 1.273 . S
O447 Mg434 2.010 . S
O447 C439 1.249 . S
H448 C456 0.929 . S
H449 C458 0.930 . S
H450 C460 0.930 . S
H451 C463 0.929 . S
H452 C466 0.930 . S
H453 C468 0.960 . S
H454 C468 0.960 1_556 S
H455 C468 0.960 . S
C456 H448 0.929 . S
C456 C457 1.377 . S
C456 C458 1.384 . S
C457 C456 1.377 . S
C457 C463 1.390 1_556 S
C458 H449 0.930 . S
C458 C456 1.384 . S
C458 C459 1.372 . S
C459 C458 1.372 . S
C459 C460 1.400 1_556 S
C459 C464 1.490 . S
C460 H450 0.930 . S
C460 C459 1.400 1_554 S
C460 C463 1.386 . S
H461 C477 0.930 . S
H462 C478 0.931 . S
C463 H451 0.929 . S
C463 C457 1.390 1_554 S
C463 C460 1.386 . S
C464 C459 1.490 . S
C464 C466 1.395 . S
C464 C467 1.403 1_556 S
H465 C471 0.930 . S
C466 H452 0.930 . S
C466 C464 1.395 . S
C466 C469 1.403 . S
C467 C464 1.403 1_554 S
C467 C468 1.524 . S
C467 C471 1.400 . S
C468 H453 0.960 . S
C468 H454 0.960 1_554 S
C468 H455 0.960 . S
C468 C467 1.524 . S
C469 C466 1.403 . S
C469 C470 1.392 1_556 S
C469 C473 1.495 . S
C470 C469 1.392 1_554 S
C470 C471 1.385 . S
C470 C472 1.478 . S
C471 H465 0.930 . S
C471 C467 1.400 . S
C471 C470 1.385 . S
C472 C470 1.478 . S
C472 C474 1.381 1_554 S
C472 C478 1.383 . S
C473 C469 1.495 . S
C473 H479 0.959 . S
C473 H480 0.952 1_556 S
C473 H481 0.960 . S
C474 C472 1.381 1_556 S
C474 C475 1.394 . S
C474 H482 0.930 . S
C475 C474 1.394 . S
C475 C476 1.383 1_556 S
C475 H483 0.929 . S
C476 C475 1.383 1_554 S
C476 C477 1.377 . S
C477 H461 0.930 . S
C477 C476 1.377 . S
C477 C478 1.379 . S
C478 H462 0.931 . S
C478 C472 1.383 . S
C478 C477 1.379 . S
H479 C473 0.959 . S
H480 C473 0.952 1_554 S
H481 C473 0.960 . S
H482 C474 0.930 . S
H483 C475 0.929 . S
H484 C492 0.929 . S
H485 C494 0.930 . S
H486 C496 0.930 . S
H487 C499 0.929 . S
H488 C502 0.930 . S
H489 C504 0.960 . S
H490 C504 0.960 . S
H491 C504 0.960 . S
C492 H484 0.929 . S
C492 C493 1.377 . S
C492 C494 1.384 . S
C493 C492 1.377 . S
C493 C499 1.390 . S
C494 H485 0.930 . S
C494 C492 1.384 . S
C494 C495 1.372 . S
C495 C494 1.372 . S
C495 C496 1.400 . S
C495 C500 1.490 . S
C496 H486 0.930 . S
C496 C495 1.400 . S
C496 C499 1.386 . S
H497 C513 0.930 . S
H498 C514 0.931 . S
C499 H487 0.929 . S
C499 C493 1.390 . S
C499 C496 1.386 . S
C500 C495 1.490 . S
C500 C502 1.395 . S
C500 C503 1.403 . S
H501 C507 0.930 . S
C502 H488 0.930 . S
C502 C500 1.395 . S
C502 C505 1.403 1_565 S
C503 C500 1.403 . S
C503 C504 1.524 . S
C503 C507 1.400 1_565 S
C504 H489 0.960 . S
C504 H490 0.960 . S
C504 H491 0.960 . S
C504 C503 1.524 . S
C505 C502 1.403 1_545 S
C505 C506 1.392 . S
C505 C509 1.495 . S
C506 C505 1.392 . S
C506 C507 1.385 . S
C506 C508 1.478 . S
C507 H501 0.930 . S
C507 C503 1.400 1_545 S
C507 C506 1.385 . S
C508 C506 1.478 . S
C508 C510 1.381 . S
C508 C514 1.383 . S
C509 C505 1.495 . S
C509 H515 0.959 . S
C509 H516 0.961 . S
C509 H517 0.960 . S
C510 C508 1.381 . S
C510 C511 1.394 . S
C510 H518 0.930 . S
C511 C510 1.394 . S
C511 C512 1.383 . S
C511 H519 0.929 . S
C512 C511 1.383 . S
C512 C513 1.377 . S
C513 H497 0.930 . S
C513 C512 1.377 . S
C513 C514 1.379 . S
C514 H498 0.931 . S
C514 C508 1.383 . S
C514 C513 1.379 . S
H515 C509 0.959 . S
H516 C509 0.961 . S
H517 C509 0.960 . S
H518 C510 0.930 . S
H519 C511 0.929 . S
H520 C528 0.929 . S
H521 C530 0.930 . S
H522 C532 0.930 . S
H523 C535 0.929 . S
H524 C538 0.930 . S
H525 C540 0.960 . S
H526 C540 0.960 . S
H527 C540 0.960 . S
C528 H520 0.929 . S
C528 C529 1.377 . S
C528 C530 1.384 . S
C529 C528 1.377 . S
C529 C535 1.390 . S
C530 H521 0.930 . S
C530 C528 1.384 . S
C530 C531 1.372 . S
C531 C530 1.372 . S
C531 C532 1.400 . S
C531 C536 1.490 . S
C532 H522 0.930 . S
C532 C531 1.400 . S
C532 C535 1.386 . S
H533 C549 0.930 . S
H534 C550 0.931 . S
C535 H523 0.929 . S
C535 C529 1.390 . S
C535 C532 1.386 . S
C536 C531 1.490 . S
C536 C538 1.395 . S
C536 C539 1.403 . S
H537 C543 0.930 . S
C538 H524 0.930 . S
C538 C536 1.395 . S
C538 C541 1.403 . S
C539 C536 1.403 . S
C539 C540 1.524 . S
C539 C543 1.400 . S
C540 H525 0.960 . S
C540 H526 0.960 . S
C540 H527 0.960 . S
C540 C539 1.524 . S
C541 C538 1.403 . S
C541 C542 1.392 . S
C541 C545 1.495 . S
C542 C541 1.392 . S
C542 C543 1.385 . S
C542 C544 1.478 . S
C543 H537 0.930 . S
C543 C539 1.400 . S
C543 C542 1.385 . S
C544 C542 1.478 . S
C544 C546 1.381 . S
C544 C550 1.383 . S
C545 C541 1.495 . S
C545 H551 0.959 . S
C545 H552 0.961 . S
C545 H553 0.960 . S
C546 C544 1.381 . S
C546 C547 1.394 . S
C546 H554 0.930 . S
C547 C546 1.394 . S
C547 C548 1.383 . S
C547 H555 0.929 . S
C548 C547 1.383 . S
C548 C549 1.377 . S
C549 H533 0.930 . S
C549 C548 1.377 . S
C549 C550 1.379 . S
C550 H534 0.931 . S
C550 C544 1.383 . S
C550 C549 1.379 . S
H551 C545 0.959 . S
H552 C545 0.961 . S
H553 C545 0.960 . S
H554 C546 0.930 . S
H555 C547 0.929 . S
H556 C564 0.929 . S
H557 C566 0.930 . S
H558 C568 0.930 . S
H559 C571 0.929 . S
H560 C574 0.930 . S
H561 C576 0.907 1_565 S
H562 C576 0.960 . S
H563 C576 0.960 . S
C564 H556 0.929 . S
C564 C565 1.377 . S
C564 C566 1.384 . S
C565 C564 1.377 . S
C565 C571 1.390 . S
C566 H557 0.930 . S
C566 C564 1.384 . S
C566 C567 1.372 . S
C567 C566 1.372 . S
C567 C568 1.400 . S
C567 C572 1.490 . S
C568 H558 0.930 . S
C568 C567 1.400 . S
C568 C571 1.386 . S
H569 C585 0.930 . S
H570 C586 0.931 . S
C571 H559 0.929 . S
C571 C565 1.390 . S
C571 C568 1.386 . S
C572 C567 1.490 . S
C572 C574 1.395 . S
C572 C575 1.403 . S
H573 C579 0.930 . S
C574 H560 0.930 . S
C574 C572 1.395 . S
C574 C577 1.403 1_545 S
C575 C572 1.403 . S
C575 C576 1.524 . S
C575 C579 1.400 1_545 S
C576 H561 0.907 1_545 S
C576 H562 0.960 . S
C576 H563 0.960 . S
C576 C575 1.524 . S
C577 C574 1.403 1_565 S
C577 C578 1.392 . S
C577 C581 1.495 . S
C578 C577 1.392 . S
C578 C579 1.385 . S
C578 C580 1.478 . S
C579 H573 0.930 . S
C579 C575 1.400 1_565 S
C579 C578 1.385 . S
C580 C578 1.478 . S
C580 C582 1.381 . S
C580 C586 1.383 . S
C581 C577 1.495 . S
C581 H587 0.924 1_565 S
C581 H588 0.961 . S
C581 H589 0.960 . S
C582 C580 1.381 . S
C582 C583 1.394 . S
C582 H590 0.930 . S
C583 C582 1.394 . S
C583 C584 1.383 . S
C583 H591 0.929 . S
C584 C583 1.383 . S
C584 C585 1.377 . S
C585 H569 0.930 . S
C585 C584 1.377 . S
C585 C586 1.379 . S
C586 H570 0.931 . S
C586 C580 1.383 . S
C586 C585 1.379 . S
H587 C581 0.924 1_545 S
H588 C581 0.961 . S
H589 C581 0.960 . S
H590 C582 0.930 . S
H591 C583 0.929 . S
H592 C600 0.929 . S
H593 C602 0.930 . S
H594 C604 0.925 1_556 S
H595 C607 0.929 . S
H596 C610 0.930 . S
H597 C612 0.960 . S
H598 C612 0.960 . S
H599 C612 0.960 . S
C600 H592 0.929 . S
C600 C601 1.377 . S
C600 C602 1.384 . S
C601 C600 1.377 . S
C601 C607 1.390 . S
C602 H593 0.930 . S
C602 C600 1.384 . S
C602 C603 1.372 . S
C603 C602 1.372 . S
C603 C604 1.400 . S
C603 C608 1.490 . S
C604 H594 0.925 1_554 S
C604 C603 1.400 . S
C604 C607 1.386 . S
H605 C621 0.930 . S
H606 C622 0.931 . S
C607 H595 0.929 . S
C607 C601 1.390 . S
C607 C604 1.386 . S
C608 C603 1.490 . S
C608 C610 1.395 . S
C608 C611 1.403 1_554 S
H609 C615 0.930 . S
C610 H596 0.930 . S
C610 C608 1.395 . S
C610 C613 1.403 . S
C611 C608 1.403 1_556 S
C611 C612 1.524 . S
C611 C615 1.400 . S
C612 H597 0.960 . S
C612 H598 0.960 . S
C612 H599 0.960 . S
C612 C611 1.524 . S
C613 C610 1.403 . S
C613 C614 1.392 1_554 S
C613 C617 1.495 . S
C614 C613 1.392 1_556 S
C614 C615 1.385 . S
C614 C616 1.478 . S
C615 H609 0.930 . S
C615 C611 1.400 . S
C615 C614 1.385 . S
C616 C614 1.478 . S
C616 C618 1.381 . S
C616 C622 1.383 . S
C617 C613 1.495 . S
C617 H623 0.959 . S
C617 H624 0.961 . S
C617 H625 0.960 . S
C618 C616 1.381 . S
C618 C619 1.394 . S
C618 H626 0.925 1_556 S
C619 C618 1.394 . S
C619 C620 1.383 . S
C619 H627 0.929 . S
C620 C619 1.383 . S
C620 C621 1.377 . S
C621 H605 0.930 . S
C621 C620 1.377 . S
C621 C622 1.379 . S
C622 H606 0.931 . S
C622 C616 1.383 . S
C622 C621 1.379 . S
H623 C617 0.959 . S
H624 C617 0.961 . S
H625 C617 0.960 . S
H626 C618 0.925 1_554 S
H627 C619 0.929 . S
H628 C636 0.929 . S
H629 C638 0.930 . S
H630 C640 0.930 . S
H631 C643 0.929 . S
H632 C646 0.930 . S
H633 C648 0.960 . S
H634 C648 0.960 . S
H635 C648 0.960 . S
C636 H628 0.929 . S
C636 C637 1.377 . S
C636 C638 1.384 . S
C637 C636 1.377 . S
C637 C643 1.390 . S
C638 H629 0.930 . S
C638 C636 1.384 . S
C638 C639 1.372 . S
C639 C638 1.372 . S
C639 C640 1.400 . S
C639 C644 1.490 . S
C640 H630 0.930 . S
C640 C639 1.400 . S
C640 C643 1.386 . S
H641 C657 0.930 . S
H642 C658 0.931 . S
C643 H631 0.929 . S
C643 C637 1.390 . S
C643 C640 1.386 . S
C644 C639 1.490 . S
C644 C646 1.395 . S
C644 C647 1.403 . S
H645 C651 0.930 . S
C646 H632 0.930 . S
C646 C644 1.395 . S
C646 C649 1.403 1_565 S
C647 C644 1.403 . S
C647 C648 1.524 . S
C647 C651 1.400 1_565 S
C648 H633 0.960 . S
C648 H634 0.960 . S
C648 H635 0.960 . S
C648 C647 1.524 . S
C649 C646 1.403 1_545 S
C649 C650 1.392 . S
C649 C653 1.495 . S
C650 C649 1.392 . S
C650 C651 1.385 . S
C650 C652 1.478 . S
C651 H645 0.930 . S
C651 C647 1.400 1_545 S
C651 C650 1.385 . S
C652 C650 1.478 . S
C652 C654 1.381 . S
C652 C658 1.383 . S
C653 C649 1.495 . S
C653 H659 0.959 . S
C653 H660 0.961 . S
C653 H661 0.960 . S
C654 C652 1.381 . S
C654 C655 1.394 . S
C654 H662 0.930 . S
C655 C654 1.394 . S
C655 C656 1.383 . S
C655 H663 0.929 . S
C656 C655 1.383 . S
C656 C657 1.377 . S
C657 H641 0.930 . S
C657 C656 1.377 . S
C657 C658 1.379 . S
C658 H642 0.931 . S
C658 C652 1.383 . S
C658 C657 1.379 . S
H659 C653 0.959 . S
H660 C653 0.961 . S
H661 C653 0.960 . S
H662 C654 0.930 . S
H663 C655 0.929 . S
H664 C672 0.929 . S
H665 C674 0.930 . S
H666 C676 0.930 . S
H667 C679 0.929 . S
H668 C682 0.930 . S
H669 C684 0.960 . S
H670 C684 0.960 . S
H671 C684 0.960 . S
C672 H664 0.929 . S
C672 C673 1.377 . S
C672 C674 1.384 . S
C673 C672 1.377 . S
C673 C679 1.390 . S
C674 H665 0.930 . S
C674 C672 1.384 . S
C674 C675 1.372 . S
C675 C674 1.372 . S
C675 C676 1.400 . S
C675 C680 1.490 . S
C676 H666 0.930 . S
C676 C675 1.400 . S
C676 C679 1.386 . S
H677 C693 0.930 . S
H678 C694 0.931 . S
C679 H667 0.929 . S
C679 C673 1.390 . S
C679 C676 1.386 . S
C680 C675 1.490 . S
C680 C682 1.395 . S
C680 C683 1.403 . S
H681 C687 0.930 . S
C682 H668 0.930 . S
C682 C680 1.395 . S
C682 C685 1.403 . S
C683 C680 1.403 . S
C683 C684 1.524 . S
C683 C687 1.400 . S
C684 H669 0.960 . S
C684 H670 0.960 . S
C684 H671 0.960 . S
C684 C683 1.524 . S
C685 C682 1.403 . S
C685 C686 1.392 . S
C685 C689 1.495 . S
C686 C685 1.392 . S
C686 C687 1.385 . S
C686 C688 1.478 . S
C687 H681 0.930 . S
C687 C683 1.400 . S
C687 C686 1.385 . S
C688 C686 1.478 . S
C688 C690 1.381 . S
C688 C694 1.383 . S
C689 C685 1.495 . S
C689 H695 0.959 . S
C689 H696 0.961 . S
C689 H697 0.960 . S
C690 C688 1.381 . S
C690 C691 1.394 . S
C690 H698 0.930 . S
C691 C690 1.394 . S
C691 C692 1.383 . S
C691 H699 0.929 . S
C692 C691 1.383 . S
C692 C693 1.377 . S
C693 H677 0.930 . S
C693 C692 1.377 . S
C693 C694 1.379 . S
C694 H678 0.931 . S
C694 C688 1.383 . S
C694 C693 1.379 . S
H695 C689 0.959 . S
H696 C689 0.961 . S
H697 C689 0.960 . S
H698 C690 0.930 . S
H699 C691 0.929 . S
H700 C708 0.929 . S
H701 C710 0.930 . S
H702 C712 0.930 . S
H703 C715 0.929 . S
H704 C718 0.930 . S
H705 C720 0.960 . S
H706 C720 0.960 . S
H707 C720 0.960 . S
C708 H700 0.929 . S
C708 C709 1.377 . S
C708 C710 1.384 . S
C709 C708 1.377 . S
C709 C715 1.390 . S
C710 H701 0.930 . S
C710 C708 1.384 . S
C710 C711 1.372 . S
C711 C710 1.372 . S
C711 C712 1.400 . S
C711 C716 1.490 . S
C712 H702 0.930 . S
C712 C711 1.400 . S
C712 C715 1.386 . S
H713 C729 0.930 . S
H714 C730 0.931 . S
C715 H703 0.929 . S
C715 C709 1.390 . S
C715 C712 1.386 . S
C716 C711 1.490 . S
C716 C718 1.395 . S
C716 C719 1.403 . S
H717 C723 0.930 . S
C718 H704 0.930 . S
C718 C716 1.395 . S
C718 C721 1.403 1_565 S
C719 C716 1.403 . S
C719 C720 1.524 . S
C719 C723 1.400 1_565 S
C720 H705 0.960 . S
C720 H706 0.960 . S
C720 H707 0.960 . S
C720 C719 1.524 . S
C721 C718 1.403 1_545 S
C721 C722 1.392 . S
C721 C725 1.495 . S
C722 C721 1.392 . S
C722 C723 1.385 . S
C722 C724 1.478 . S
C723 H717 0.930 . S
C723 C719 1.400 1_545 S
C723 C722 1.385 . S
C724 C722 1.478 . S
C724 C726 1.381 . S
C724 C730 1.383 . S
C725 C721 1.495 . S
C725 H731 0.959 . S
C725 H732 0.961 . S
C725 H733 0.960 . S
C726 C724 1.381 . S
C726 C727 1.394 . S
C726 H734 0.930 . S
C727 C726 1.394 . S
C727 C728 1.383 . S
C727 H735 0.929 . S
C728 C727 1.383 . S
C728 C729 1.377 . S
C729 H713 0.930 . S
C729 C728 1.377 . S
C729 C730 1.379 . S
C730 H714 0.931 . S
C730 C724 1.383 . S
C730 C729 1.379 . S
H731 C725 0.959 . S
H732 C725 0.961 . S
H733 C725 0.960 . S
H734 C726 0.930 . S
H735 C727 0.929 . S
H736 C744 0.929 . S
H737 C746 0.930 . S
H738 C748 0.930 . S
H739 C751 0.929 . S
H740 C754 0.930 . S
H741 C756 0.960 . S
H742 C756 0.960 . S
H743 C756 0.960 . S
C744 H736 0.929 . S
C744 C745 1.377 . S
C744 C746 1.384 . S
C745 C744 1.377 . S
C745 C751 1.390 . S
C746 H737 0.930 . S
C746 C744 1.384 . S
C746 C747 1.372 . S
C747 C746 1.372 . S
C747 C748 1.400 . S
C747 C752 1.490 . S
C748 H738 0.930 . S
C748 C747 1.400 . S
C748 C751 1.386 . S
H749 C765 0.930 . S
H750 C766 0.931 . S
C751 H739 0.929 . S
C751 C745 1.390 . S
C751 C748 1.386 . S
C752 C747 1.490 . S
C752 C754 1.395 . S
C752 C755 1.403 . S
H753 C759 0.930 . S
C754 H740 0.930 . S
C754 C752 1.395 . S
C754 C757 1.403 . S
C755 C752 1.403 . S
C755 C756 1.524 . S
C755 C759 1.400 . S
C756 H741 0.960 . S
C756 H742 0.960 . S
C756 H743 0.960 . S
C756 C755 1.524 . S
C757 C754 1.403 . S
C757 C758 1.392 . S
C757 C761 1.495 . S
C758 C757 1.392 . S
C758 C759 1.385 . S
C758 C760 1.478 . S
C759 H753 0.930 . S
C759 C755 1.400 . S
C759 C758 1.385 . S
C760 C758 1.478 . S
C760 C762 1.381 . S
C760 C766 1.383 . S
C761 C757 1.495 . S
C761 H767 0.959 . S
C761 H768 0.961 . S
C761 H769 0.960 . S
C762 C760 1.381 . S
C762 C763 1.394 . S
C762 H770 0.930 . S
C763 C762 1.394 . S
C763 C764 1.383 . S
C763 H771 0.929 . S
C764 C763 1.383 . S
C764 C765 1.377 . S
C765 H749 0.930 . S
C765 C764 1.377 . S
C765 C766 1.379 . S
C766 H750 0.931 . S
C766 C760 1.383 . S
C766 C765 1.379 . S
H767 C761 0.959 . S
H768 C761 0.961 . S
H769 C761 0.960 . S
H770 C762 0.930 . S
H771 C763 0.929 . S
H772 C780 0.929 . S
H773 C782 0.930 . S
H774 C784 0.930 . S
H775 C787 0.929 . S
H776 C790 0.930 . S
H777 C792 0.960 . S
H778 C792 0.960 . S
H779 C792 0.960 . S
C780 H772 0.929 . S
C780 C781 1.377 . S
C780 C782 1.384 . S
C781 C780 1.377 . S
C781 C787 1.390 . S
C782 H773 0.930 . S
C782 C780 1.384 . S
C782 C783 1.372 . S
C783 C782 1.372 . S
C783 C784 1.400 . S
C783 C788 1.490 . S
C784 H774 0.930 . S
C784 C783 1.400 . S
C784 C787 1.386 . S
H785 C801 0.930 . S
H786 C802 0.931 . S
C787 H775 0.929 . S
C787 C781 1.390 . S
C787 C784 1.386 . S
C788 C783 1.490 . S
C788 C790 1.395 . S
C788 C791 1.403 . S
H789 C795 0.930 . S
C790 H776 0.930 . S
C790 C788 1.395 . S
C790 C793 1.403 . S
C791 C788 1.403 . S
C791 C792 1.524 . S
C791 C795 1.400 . S
C792 H777 0.960 . S
C792 H778 0.960 . S
C792 H779 0.960 . S
C792 C791 1.524 . S
C793 C790 1.403 . S
C793 C794 1.392 . S
C793 C797 1.495 . S
C794 C793 1.392 . S
C794 C795 1.385 . S
C794 C796 1.478 . S
C795 H789 0.930 . S
C795 C791 1.400 . S
C795 C794 1.385 . S
C796 C794 1.478 . S
C796 C798 1.381 . S
C796 C802 1.383 . S
C797 C793 1.495 . S
C797 H803 0.959 . S
C797 H804 0.961 . S
C797 H805 0.960 . S
C798 C796 1.381 . S
C798 C799 1.394 . S
C798 H806 0.930 . S
C799 C798 1.394 . S
C799 C800 1.383 . S
C799 H807 0.929 . S
C800 C799 1.383 . S
C800 C801 1.377 . S
C801 H785 0.930 . S
C801 C800 1.377 . S
C801 C802 1.379 . S
C802 H786 0.931 . S
C802 C796 1.383 . S
C802 C801 1.379 . S
H803 C797 0.959 . S
H804 C797 0.961 . S
H805 C797 0.960 . S
H806 C798 0.930 . S
H807 C799 0.929 . S
H808 C816 0.943 . S
H809 C818 0.930 . S
H810 C820 0.930 . S
H811 C823 0.929 . S
H812 C826 0.930 . S
H813 C828 0.958 1_554 S
H814 C828 0.960 1_554 S
H815 C828 0.960 . S
C816 H808 0.943 . S
C816 C817 1.360 1_554 S
C816 C818 1.389 . S
C817 C816 1.360 1_556 S
C817 C823 1.390 . S
C818 H809 0.930 . S
C818 C816 1.389 . S
C818 C819 1.372 1_554 S
C819 C818 1.372 1_556 S
C819 C820 1.400 . S
C819 C824 1.490 . S
C820 H810 0.930 . S
C820 C819 1.400 . S
C820 C823 1.386 . S
H821 C837 0.930 . S
H822 C838 0.931 . S
C823 H811 0.929 . S
C823 C817 1.390 . S
C823 C820 1.386 . S
C824 C819 1.490 . S
C824 C826 1.395 . S
C824 C827 1.403 . S
H825 C831 0.930 . S
C826 H812 0.930 . S
C826 C824 1.395 . S
C826 C829 1.403 1_556 S
C827 C824 1.403 . S
C827 C828 1.524 . S
C827 C831 1.400 1_556 S
C828 H813 0.958 1_556 S
C828 H814 0.960 1_556 S
C828 H815 0.960 . S
C828 C827 1.524 . S
C829 C826 1.403 1_554 S
C829 C830 1.392 . S
C829 C833 1.495 . S
C830 C829 1.392 . S
C830 C831 1.385 . S
C830 C832 1.478 . S
C831 H825 0.930 . S
C831 C827 1.400 1_554 S
C831 C830 1.385 . S
C832 C830 1.478 . S
C832 C834 1.381 . S
C832 C838 1.383 1_554 S
C833 C829 1.495 . S
C833 H839 0.959 . S
C833 H840 0.961 1_554 S
C833 H841 0.960 . S
C834 C832 1.381 . S
C834 C835 1.394 . S
C834 H842 0.930 . S
C835 C834 1.394 . S
C835 C836 1.383 . S
C835 H843 0.929 . S
C836 C835 1.383 . S
C836 C837 1.377 1_554 S
C837 H821 0.930 . S
C837 C836 1.377 1_556 S
C837 C838 1.379 . S
C838 H822 0.931 . S
C838 C832 1.383 1_556 S
C838 C837 1.379 . S
H839 C833 0.959 . S
H840 C833 0.961 1_556 S
H841 C833 0.960 . S
H842 C834 0.930 . S
H843 C835 0.929 . S
H844 C852 0.929 . S
H845 C854 0.930 . S
H846 C856 0.930 . S
H847 C859 0.929 . S
H848 C862 0.930 . S
H849 C864 0.960 . S
H850 C864 0.960 . S
H851 C864 0.960 . S
C852 H844 0.929 . S
C852 C853 1.377 . S
C852 C854 1.384 . S
C853 C852 1.377 . S
C853 C859 1.390 . S
C854 H845 0.930 . S
C854 C852 1.384 . S
C854 C855 1.372 . S
C855 C854 1.372 . S
C855 C856 1.400 . S
C855 C860 1.490 . S
C856 H846 0.930 . S
C856 C855 1.400 . S
C856 C859 1.386 . S
H857 C873 0.930 . S
H858 C874 0.931 . S
C859 H847 0.929 . S
C859 C853 1.390 . S
C859 C856 1.386 . S
C860 C855 1.490 . S
C860 C862 1.395 . S
C860 C863 1.403 . S
H861 C867 0.930 . S
C862 H848 0.930 . S
C862 C860 1.395 . S
C862 C865 1.403 . S
C863 C860 1.403 . S
C863 C864 1.524 . S
C863 C867 1.400 . S
C864 H849 0.960 . S
C864 H850 0.960 . S
C864 H851 0.960 . S
C864 C863 1.524 . S
C865 C862 1.403 . S
C865 C866 1.392 . S
C865 C869 1.495 . S
C866 C865 1.392 . S
C866 C867 1.385 . S
C866 C868 1.478 . S
C867 H861 0.930 . S
C867 C863 1.400 . S
C867 C866 1.385 . S
C868 C866 1.478 . S
C868 C870 1.381 . S
C868 C874 1.383 . S
C869 C865 1.495 . S
C869 H875 0.959 . S
C869 H876 0.961 . S
C869 H877 0.960 . S
C870 C868 1.381 . S
C870 C871 1.394 . S
C870 H878 0.930 . S
C871 C870 1.394 . S
C871 C872 1.383 . S
C871 H879 0.929 . S
C872 C871 1.383 . S
C872 C873 1.377 . S
C873 H857 0.930 . S
C873 C872 1.377 . S
C873 C874 1.379 . S
C874 H858 0.931 . S
C874 C868 1.383 . S
C874 C873 1.379 . S
H875 C869 0.959 . S
H876 C869 0.961 . S
H877 C869 0.960 . S
H878 C870 0.930 . S
H879 C871 0.929 . S
H880 C888 0.929 . S
H881 C890 0.930 . S
H882 C892 0.930 . S
H883 C895 0.929 . S
H884 C898 0.930 . S
H885 C900 0.960 . S
H886 C900 0.960 . S
H887 C900 0.960 . S
C888 H880 0.929 . S
C888 C889 1.377 . S
C888 C890 1.384 . S
C889 C888 1.377 . S
C889 C895 1.390 . S
C890 H881 0.930 . S
C890 C888 1.384 . S
C890 C891 1.372 . S
C891 C890 1.372 . S
C891 C892 1.400 . S
C891 C896 1.490 . S
C892 H882 0.930 . S
C892 C891 1.400 . S
C892 C895 1.386 . S
H893 C909 0.930 . S
H894 C910 0.931 . S
C895 H883 0.929 . S
C895 C889 1.390 . S
C895 C892 1.386 . S
C896 C891 1.490 . S
C896 C898 1.395 . S
C896 C899 1.403 . S
H897 C903 0.930 . S
C898 H884 0.930 . S
C898 C896 1.395 . S
C898 C901 1.403 . S
C899 C896 1.403 . S
C899 C900 1.524 . S
C899 C903 1.400 . S
C900 H885 0.960 . S
C900 H886 0.960 . S
C900 H887 0.960 . S
C900 C899 1.524 . S
C901 C898 1.403 . S
C901 C902 1.392 . S
C901 C905 1.495 . S
C902 C901 1.392 . S
C902 C903 1.385 . S
C902 C904 1.478 . S
C903 H897 0.930 . S
C903 C899 1.400 . S
C903 C902 1.385 . S
C904 C902 1.478 . S
C904 C906 1.381 . S
C904 C910 1.383 . S
C905 C901 1.495 . S
C905 H911 0.959 . S
C905 H912 0.961 . S
C905 H913 0.960 . S
C906 C904 1.381 . S
C906 C907 1.394 . S
C906 H914 0.930 . S
C907 C906 1.394 . S
C907 C908 1.383 . S
C907 H915 0.929 . S
C908 C907 1.383 . S
C908 C909 1.377 . S
C909 H893 0.930 . S
C909 C908 1.377 . S
C909 C910 1.379 . S
C910 H894 0.931 . S
C910 C904 1.383 . S
C910 C909 1.379 . S
H911 C905 0.959 . S
H912 C905 0.961 . S
H913 C905 0.960 . S
H914 C906 0.930 . S
H915 C907 0.929 . S
H916 C924 0.929 . S
H917 C926 0.930 . S
H918 C928 0.930 . S
H919 C931 0.929 . S
H920 C934 0.930 . S
H921 C936 0.960 . S
H922 C936 0.960 . S
H923 C936 0.960 . S
C924 H916 0.929 . S
C924 C925 1.377 . S
C924 C926 1.384 . S
C925 C924 1.377 . S
C925 C931 1.390 . S
C926 H917 0.930 . S
C926 C924 1.384 . S
C926 C927 1.372 . S
C927 C926 1.372 . S
C927 C928 1.400 . S
C927 C932 1.490 . S
C928 H918 0.930 . S
C928 C927 1.400 . S
C928 C931 1.386 . S
H929 C945 0.930 . S
H930 C946 0.931 . S
C931 H919 0.929 . S
C931 C925 1.390 . S
C931 C928 1.386 . S
C932 C927 1.490 . S
C932 C934 1.395 . S
C932 C935 1.403 . S
H933 C939 0.930 . S
C934 H920 0.930 . S
C934 C932 1.395 . S
C934 C937 1.403 . S
C935 C932 1.403 . S
C935 C936 1.524 . S
C935 C939 1.400 . S
C936 H921 0.960 . S
C936 H922 0.960 . S
C936 H923 0.960 . S
C936 C935 1.524 . S
C937 C934 1.403 . S
C937 C938 1.392 . S
C937 C941 1.495 . S
C938 C937 1.392 . S
C938 C939 1.385 . S
C938 C940 1.478 . S
C939 H933 0.930 . S
C939 C935 1.400 . S
C939 C938 1.385 . S
C940 C938 1.478 . S
C940 C942 1.381 . S
C940 C946 1.383 . S
C941 C937 1.495 . S
C941 H947 0.959 . S
C941 H948 0.961 . S
C941 H949 0.960 . S
C942 C940 1.381 . S
C942 C943 1.394 . S
C942 H950 0.930 . S
C943 C942 1.394 . S
C943 C944 1.383 . S
C943 H951 0.929 . S
C944 C943 1.383 . S
C944 C945 1.377 . S
C945 H929 0.930 . S
C945 C944 1.377 . S
C945 C946 1.379 . S
C946 H930 0.931 . S
C946 C940 1.383 . S
C946 C945 1.379 . S
H947 C941 0.959 . S
H948 C941 0.961 . S
H949 C941 0.960 . S
H950 C942 0.930 . S
H951 C943 0.929 . S
H952 C960 0.929 . S
H953 C962 0.930 . S
H954 C964 0.930 . S
H955 C967 0.929 1_556 S
H956 C970 0.930 . S
H957 C972 0.960 . S
H958 C972 0.960 . S
H959 C972 0.960 . S
C960 H952 0.929 . S
C960 C961 1.377 . S
C960 C962 1.384 . S
C961 C960 1.377 . S
C961 C967 1.390 . S
C962 H953 0.930 . S
C962 C960 1.384 . S
C962 C963 1.372 . S
C963 C962 1.372 . S
C963 C964 1.400 1_554 S
C963 C968 1.490 . S
C964 H954 0.930 . S
C964 C963 1.400 1_556 S
C964 C967 1.386 1_556 S
H965 C981 0.930 . S
H966 C982 0.931 . S
C967 H955 0.929 1_554 S
C967 C961 1.390 . S
C967 C964 1.386 1_554 S
C968 C963 1.490 . S
C968 C970 1.395 . S
C968 C971 1.403 1_554 S
H969 C975 0.930 . S
C970 H956 0.930 . S
C970 C968 1.395 . S
C970 C973 1.403 . S
C971 C968 1.403 1_556 S
C971 C972 1.524 . S
C971 C975 1.400 . S
C972 H957 0.960 . S
C972 H958 0.960 . S
C972 H959 0.960 . S
C972 C971 1.524 . S
C973 C970 1.403 . S
C973 C974 1.374 1_554 S
C973 C977 1.495 . S
C974 C973 1.374 1_556 S
C974 C975 1.400 . S
C974 C976 1.482 . S
C975 H969 0.930 . S
C975 C971 1.400 . S
C975 C974 1.400 . S
C976 C974 1.482 . S
C976 C978 1.381 1_556 S
C976 C982 1.383 . S
C977 C973 1.495 . S
C977 H983 0.959 . S
C977 H984 0.961 . S
C977 H985 0.960 . S
C978 C976 1.381 1_554 S
C978 C979 1.394 1_554 S
C978 H986 0.930 . S
C979 C978 1.394 1_556 S
C979 C980 1.383 . S
C979 H987 0.929 1_556 S
C980 C979 1.383 . S
C980 C981 1.377 . S
C981 H965 0.930 . S
C981 C980 1.377 . S
C981 C982 1.379 . S
C982 H966 0.931 . S
C982 C976 1.383 . S
C982 C981 1.379 . S
H983 C977 0.959 . S
H984 C977 0.961 . S
H985 C977 0.960 . S
H986 C978 0.930 . S
H987 C979 0.929 1_554 S
H988 C996 0.929 . S
H989 C998 0.930 . S
H990 C1000 0.930 . S
H991 C1003 0.929 . S
H992 C1006 0.930 . S
H993 C1008 0.960 . S
H994 C1008 0.960 . S
H995 C1008 0.960 . S
C996 H988 0.929 . S
C996 C997 1.377 . S
C996 C998 1.384 . S
C997 C996 1.377 . S
C997 C1003 1.390 . S
C998 H989 0.930 . S
C998 C996 1.384 . S
C998 C999 1.372 . S
C999 C998 1.372 . S
C999 C1000 1.400 . S
C999 C1004 1.490 . S
C1000 H990 0.930 . S
C1000 C999 1.400 . S
C1000 C1003 1.386 . S
H1001 C1017 0.930 . S
H1002 C1018 0.931 . S
C1003 H991 0.929 . S
C1003 C997 1.390 . S
C1003 C1000 1.386 . S
C1004 C999 1.490 . S
C1004 C1006 1.395 . S
C1004 C1007 1.403 . S
H1005 C1011 0.930 . S
C1006 H992 0.930 . S
C1006 C1004 1.395 . S
C1006 C1009 1.403 . S
C1007 C1004 1.403 . S
C1007 C1008 1.524 . S
C1007 C1011 1.400 . S
C1008 H993 0.960 . S
C1008 H994 0.960 . S
C1008 H995 0.960 . S
C1008 C1007 1.524 . S
C1009 C1006 1.403 . S
C1009 C1010 1.392 . S
C1009 C1013 1.495 . S
C1010 C1009 1.392 . S
C1010 C1011 1.385 . S
C1010 C1012 1.478 . S
C1011 H1005 0.930 . S
C1011 C1007 1.400 . S
C1011 C1010 1.385 . S
C1012 C1010 1.478 . S
C1012 C1014 1.381 . S
C1012 C1018 1.383 . S
C1013 C1009 1.495 . S
C1013 H1019 0.959 . S
C1013 H1020 0.961 . S
C1013 H1021 0.960 . S
C1014 C1012 1.381 . S
C1014 C1015 1.394 . S
C1014 H1022 0.930 . S
C1015 C1014 1.394 . S
C1015 C1016 1.383 . S
C1015 H1023 0.929 . S
C1016 C1015 1.383 . S
C1016 C1017 1.377 . S
C1017 H1001 0.930 . S
C1017 C1016 1.377 . S
C1017 C1018 1.379 . S
C1018 H1002 0.931 . S
C1018 C1012 1.383 . S
C1018 C1017 1.379 . S
H1019 C1013 0.959 . S
H1020 C1013 0.961 . S
H1021 C1013 0.960 . S
H1022 C1014 0.930 . S
H1023 C1015 0.929 . S
H1024 C1032 0.929 . S
H1025 C1034 0.930 . S
H1026 C1036 0.930 . S
H1027 C1039 0.929 . S
H1028 C1042 0.930 . S
H1029 C1044 0.960 . S
H1030 C1044 0.960 . S
H1031 C1044 0.960 . S
C1032 H1024 0.929 . S
C1032 C1033 1.377 . S
C1032 C1034 1.384 . S
C1033 C1032 1.377 . S
C1033 C1039 1.390 . S
C1034 H1025 0.930 . S
C1034 C1032 1.384 . S
C1034 C1035 1.372 . S
C1035 C1034 1.372 . S
C1035 C1036 1.400 . S
C1035 C1040 1.490 . S
C1036 H1026 0.930 . S
C1036 C1035 1.400 . S
C1036 C1039 1.386 . S
H1037 C1053 0.930 . S
H1038 C1054 0.931 . S
C1039 H1027 0.929 . S
C1039 C1033 1.390 . S
C1039 C1036 1.386 . S
C1040 C1035 1.490 . S
C1040 C1042 1.395 . S
C1040 C1043 1.403 . S
H1041 C1047 0.930 . S
C1042 H1028 0.930 . S
C1042 C1040 1.395 . S
C1042 C1045 1.403 . S
C1043 C1040 1.403 . S
C1043 C1044 1.524 . S
C1043 C1047 1.400 . S
C1044 H1029 0.960 . S
C1044 H1030 0.960 . S
C1044 H1031 0.960 . S
C1044 C1043 1.524 . S
C1045 C1042 1.403 . S
C1045 C1046 1.392 . S
C1045 C1049 1.495 . S
C1046 C1045 1.392 . S
C1046 C1047 1.385 . S
C1046 C1048 1.478 . S
C1047 H1041 0.930 . S
C1047 C1043 1.400 . S
C1047 C1046 1.385 . S
C1048 C1046 1.478 . S
C1048 C1050 1.381 . S
C1048 C1054 1.383 . S
C1049 C1045 1.495 . S
C1049 H1055 0.959 . S
C1049 H1056 0.961 . S
C1049 H1057 0.960 . S
C1050 C1048 1.381 . S
C1050 C1051 1.394 . S
C1050 H1058 0.930 . S
C1051 C1050 1.394 . S
C1051 C1052 1.383 . S
C1051 H1059 0.929 . S
C1052 C1051 1.383 . S
C1052 C1053 1.377 . S
C1053 H1037 0.930 . S
C1053 C1052 1.377 . S
C1053 C1054 1.379 . S
C1054 H1038 0.931 . S
C1054 C1048 1.383 . S
C1054 C1053 1.379 . S
H1055 C1049 0.959 . S
H1056 C1049 0.961 . S
H1057 C1049 0.960 . S
H1058 C1050 0.930 . S
H1059 C1051 0.929 . S
H1060 C1068 0.929 . S
H1061 C1070 0.930 . S
H1062 C1072 0.930 . S
H1063 C1075 0.929 . S
H1064 C1078 0.930 1_556 S
H1065 C1080 0.960 . S
H1066 C1080 0.960 . S
H1067 C1080 0.960 . S
C1068 H1060 0.929 . S
C1068 C1069 1.377 . S
C1068 C1070 1.384 . S
C1069 C1068 1.377 . S
C1069 C1075 1.390 . S
C1070 H1061 0.930 . S
C1070 C1068 1.384 . S
C1070 C1071 1.372 . S
C1071 C1070 1.372 . S
C1071 C1072 1.400 . S
C1071 C1076 1.490 1_556 S
C1072 H1062 0.930 . S
C1072 C1071 1.400 . S
C1072 C1075 1.386 . S
H1073 C1089 0.930 . S
H1074 C1090 0.931 . S
C1075 H1063 0.929 . S
C1075 C1069 1.390 . S
C1075 C1072 1.386 . S
C1076 C1071 1.490 1_554 S
C1076 C1078 1.395 1_455 S
C1076 C1079 1.403 . S
H1077 C1083 0.941 . S
C1078 H1064 0.930 1_554 S
C1078 C1076 1.395 1_655 S
C1078 C1081 1.403 . S
C1079 C1076 1.403 . S
C1079 C1080 1.524 . S
C1079 C1083 1.437 . S
C1080 H1065 0.960 . S
C1080 H1066 0.960 . S
C1080 H1067 0.960 . S
C1080 C1079 1.524 . S
C1081 C1078 1.403 . S
C1081 C1082 1.392 . S
C1081 C1085 1.495 . S
C1082 C1081 1.392 . S
C1082 C1083 1.341 1_655 S
C1082 C1084 1.478 . S
C1083 H1077 0.941 . S
C1083 C1079 1.437 . S
C1083 C1082 1.341 1_455 S
C1084 C1082 1.478 . S
C1084 C1086 1.381 . S
C1084 C1090 1.383 . S
C1085 C1081 1.495 . S
C1085 H1091 0.959 . S
C1085 H1092 0.961 . S
C1085 H1093 0.960 . S
C1086 C1084 1.381 . S
C1086 C1087 1.394 . S
C1086 H1094 0.930 . S
C1087 C1086 1.394 . S
C1087 C1088 1.383 . S
C1087 H1095 0.929 . S
C1088 C1087 1.383 . S
C1088 C1089 1.377 . S
C1089 H1073 0.930 . S
C1089 C1088 1.377 . S
C1089 C1090 1.379 . S
C1090 H1074 0.931 . S
C1090 C1084 1.383 . S
C1090 C1089 1.379 . S
H1091 C1085 0.959 . S
H1092 C1085 0.961 . S
H1093 C1085 0.960 . S
H1094 C1086 0.930 . S
H1095 C1087 0.929 . S
H1096 C1104 0.929 . S
H1097 C1106 0.930 . S
H1098 C1108 0.930 . S
H1099 C1111 0.929 . S
H1100 C1114 0.930 . S
H1101 C1116 0.960 . S
H1102 C1116 0.960 . S
H1103 C1116 0.960 . S
C1104 H1096 0.929 . S
C1104 C1105 1.377 . S
C1104 C1106 1.384 . S
C1105 C1104 1.377 . S
C1105 C1111 1.390 . S
C1106 H1097 0.930 . S
C1106 C1104 1.384 . S
C1106 C1107 1.372 . S
C1107 C1106 1.372 . S
C1107 C1108 1.400 . S
C1107 C1112 1.490 . S
C1108 H1098 0.930 . S
C1108 C1107 1.400 . S
C1108 C1111 1.386 . S
H1109 C1125 0.930 . S
H1110 C1126 0.931 . S
C1111 H1099 0.929 . S
C1111 C1105 1.390 . S
C1111 C1108 1.386 . S
C1112 C1107 1.490 . S
C1112 C1114 1.395 . S
C1112 C1115 1.403 . S
H1113 C1119 0.930 . S
C1114 H1100 0.930 . S
C1114 C1112 1.395 . S
C1114 C1117 1.403 . S
C1115 C1112 1.403 . S
C1115 C1116 1.524 . S
C1115 C1119 1.400 . S
C1116 H1101 0.960 . S
C1116 H1102 0.960 . S
C1116 H1103 0.960 . S
C1116 C1115 1.524 . S
C1117 C1114 1.403 . S
C1117 C1118 1.392 . S
C1117 C1121 1.495 . S
C1118 C1117 1.392 . S
C1118 C1119 1.385 . S
C1118 C1120 1.478 . S
C1119 H1113 0.930 . S
C1119 C1115 1.400 . S
C1119 C1118 1.385 . S
C1120 C1118 1.478 . S
C1120 C1122 1.381 . S
C1120 C1126 1.383 . S
C1121 C1117 1.495 . S
C1121 H1127 0.959 . S
C1121 H1128 0.961 . S
C1121 H1129 0.960 . S
C1122 C1120 1.381 . S
C1122 C1123 1.394 . S
C1122 H1130 0.930 . S
C1123 C1122 1.394 . S
C1123 C1124 1.383 . S
C1123 H1131 0.929 . S
C1124 C1123 1.383 . S
C1124 C1125 1.377 . S
C1125 H1109 0.930 . S
C1125 C1124 1.377 . S
C1125 C1126 1.379 . S
C1126 H1110 0.931 . S
C1126 C1120 1.383 . S
C1126 C1125 1.379 . S
H1127 C1121 0.959 . S
H1128 C1121 0.961 . S
H1129 C1121 0.960 . S
H1130 C1122 0.930 . S
H1131 C1123 0.929 . S
H1132 C1140 0.929 . S
H1133 C1142 0.930 . S
H1134 C1144 0.930 . S
H1135 C1147 0.929 . S
H1136 C1150 0.930 . S
H1137 C1152 0.960 . S
H1138 C1152 0.960 . S
H1139 C1152 0.960 . S
C1140 H1132 0.929 . S
C1140 C1141 1.377 . S
C1140 C1142 1.384 . S
C1141 C1140 1.377 . S
C1141 C1147 1.390 . S
C1142 H1133 0.930 . S
C1142 C1140 1.384 . S
C1142 C1143 1.372 . S
C1143 C1142 1.372 . S
C1143 C1144 1.400 . S
C1143 C1148 1.490 . S
C1144 H1134 0.930 . S
C1144 C1143 1.400 . S
C1144 C1147 1.386 . S
H1145 C1161 0.930 . S
H1146 C1162 0.931 . S
C1147 H1135 0.929 . S
C1147 C1141 1.390 . S
C1147 C1144 1.386 . S
C1148 C1143 1.490 . S
C1148 C1150 1.395 . S
C1148 C1151 1.403 . S
H1149 C1155 0.930 . S
C1150 H1136 0.930 . S
C1150 C1148 1.395 . S
C1150 C1153 1.403 . S
C1151 C1148 1.403 . S
C1151 C1152 1.524 . S
C1151 C1155 1.400 . S
C1152 H1137 0.960 . S
C1152 H1138 0.960 . S
C1152 H1139 0.960 . S
C1152 C1151 1.524 . S
C1153 C1150 1.403 . S
C1153 C1154 1.392 . S
C1153 C1157 1.495 . S
C1154 C1153 1.392 . S
C1154 C1155 1.385 . S
C1154 C1156 1.478 . S
C1155 H1149 0.930 . S
C1155 C1151 1.400 . S
C1155 C1154 1.385 . S
C1156 C1154 1.478 . S
C1156 C1158 1.381 . S
C1156 C1162 1.383 . S
C1157 C1153 1.495 . S
C1157 H1163 0.959 . S
C1157 H1164 0.961 . S
C1157 H1165 0.960 . S
C1158 C1156 1.381 . S
C1158 C1159 1.394 . S
C1158 H1166 0.930 . S
C1159 C1158 1.394 . S
C1159 C1160 1.383 . S
C1159 H1167 0.929 . S
C1160 C1159 1.383 . S
C1160 C1161 1.377 . S
C1161 H1145 0.930 . S
C1161 C1160 1.377 . S
C1161 C1162 1.379 . S
C1162 H1146 0.931 . S
C1162 C1156 1.383 . S
C1162 C1161 1.379 . S
H1163 C1157 0.959 . S
H1164 C1157 0.961 . S
H1165 C1157 0.960 . S
H1166 C1158 0.930 . S
H1167 C1159 0.929 . S
H1168 C1176 0.929 . S
H1169 C1178 0.930 . S
H1170 C1180 0.930 . S
H1171 C1183 0.929 . S
H1172 C1186 0.930 . S
H1173 C1188 0.960 . S
H1174 C1188 0.960 . S
H1175 C1188 0.960 . S
C1176 H1168 0.929 . S
C1176 C1177 1.377 . S
C1176 C1178 1.384 . S
C1177 C1176 1.377 . S
C1177 C1183 1.390 . S
C1178 H1169 0.930 . S
C1178 C1176 1.384 . S
C1178 C1179 1.372 . S
C1179 C1178 1.372 . S
C1179 C1180 1.400 . S
C1179 C1184 1.490 . S
C1180 H1170 0.930 . S
C1180 C1179 1.400 . S
C1180 C1183 1.386 . S
H1181 C1197 0.930 . S
H1182 C1198 0.931 . S
C1183 H1171 0.929 . S
C1183 C1177 1.390 . S
C1183 C1180 1.386 . S
C1184 C1179 1.490 . S
C1184 C1186 1.395 . S
C1184 C1187 1.403 . S
H1185 C1191 0.930 . S
C1186 H1172 0.930 . S
C1186 C1184 1.395 . S
C1186 C1189 1.403 . S
C1187 C1184 1.403 . S
C1187 C1188 1.524 . S
C1187 C1191 1.400 . S
C1188 H1173 0.960 . S
C1188 H1174 0.960 . S
C1188 H1175 0.960 . S
C1188 C1187 1.524 . S
C1189 C1186 1.403 . S
C1189 C1190 1.392 . S
C1189 C1193 1.495 . S
C1190 C1189 1.392 . S
C1190 C1191 1.385 . S
C1190 C1192 1.478 . S
C1191 H1185 0.930 . S
C1191 C1187 1.400 . S
C1191 C1190 1.385 . S
C1192 C1190 1.478 . S
C1192 C1194 1.381 . S
C1192 C1198 1.383 . S
C1193 C1189 1.495 . S
C1193 H1199 0.959 . S
C1193 H1200 0.961 . S
C1193 H1201 0.960 . S
C1194 C1192 1.381 . S
C1194 C1195 1.394 . S
C1194 H1202 0.930 . S
C1195 C1194 1.394 . S
C1195 C1196 1.383 . S
C1195 H1203 0.929 . S
C1196 C1195 1.383 . S
C1196 C1197 1.377 . S
C1197 H1181 0.930 . S
C1197 C1196 1.377 . S
C1197 C1198 1.379 . S
C1198 H1182 0.931 . S
C1198 C1192 1.383 . S
C1198 C1197 1.379 . S
H1199 C1193 0.959 . S
H1200 C1193 0.961 . S
H1201 C1193 0.960 . S
H1202 C1194 0.930 . S
H1203 C1195 0.929 . S
H1204 C1212 0.929 . S
H1205 C1214 0.930 . S
H1206 C1216 0.930 . S
H1207 C1219 0.929 . S
H1208 C1222 0.930 . S
H1209 C1224 0.960 . S
H1210 C1224 0.960 . S
H1211 C1224 0.960 . S
C1212 H1204 0.929 . S
C1212 C1213 1.377 . S
C1212 C1214 1.384 . S
C1213 C1212 1.377 . S
C1213 C1219 1.390 . S
C1214 H1205 0.930 . S
C1214 C1212 1.384 . S
C1214 C1215 1.372 . S
C1215 C1214 1.372 . S
C1215 C1216 1.400 . S
C1215 C1220 1.490 1_554 S
C1216 H1206 0.930 . S
C1216 C1215 1.400 . S
C1216 C1219 1.386 . S
H1217 C1233 0.930 . S
H1218 C1234 0.931 . S
C1219 H1207 0.929 . S
C1219 C1213 1.390 . S
C1219 C1216 1.386 . S
C1220 C1215 1.490 1_556 S
C1220 C1222 1.395 . S
C1220 C1223 1.403 . S
H1221 C1227 0.930 . S
C1222 H1208 0.930 . S
C1222 C1220 1.395 . S
C1222 C1225 1.403 . S
C1223 C1220 1.403 . S
C1223 C1224 1.524 1_556 S
C1223 C1227 1.400 . S
C1224 H1209 0.960 . S
C1224 H1210 0.960 . S
C1224 H1211 0.960 . S
C1224 C1223 1.524 1_554 S
C1225 C1222 1.403 . S
C1225 C1226 1.392 . S
C1225 C1229 1.495 . S
C1226 C1225 1.392 . S
C1226 C1227 1.385 . S
C1226 C1228 1.478 . S
C1227 H1221 0.930 . S
C1227 C1223 1.400 . S
C1227 C1226 1.385 . S
C1228 C1226 1.478 . S
C1228 C1230 1.381 . S
C1228 C1234 1.383 . S
C1229 C1225 1.495 . S
C1229 H1235 0.959 . S
C1229 H1236 0.961 . S
C1229 H1237 0.960 . S
C1230 C1228 1.381 . S
C1230 C1231 1.394 . S
C1230 H1238 0.930 . S
C1231 C1230 1.394 . S
C1231 C1232 1.383 . S
C1231 H1239 0.929 . S
C1232 C1231 1.383 . S
C1232 C1233 1.377 . S
C1233 H1217 0.930 . S
C1233 C1232 1.377 . S
C1233 C1234 1.379 . S
C1234 H1218 0.931 . S
C1234 C1228 1.383 . S
C1234 C1233 1.379 . S
H1235 C1229 0.959 . S
H1236 C1229 0.961 . S
H1237 C1229 0.960 . S
H1238 C1230 0.930 . S
H1239 C1231 0.929 . S
H1240 C1248 0.929 . S
H1241 C1250 0.930 . S
H1242 C1252 0.930 . S
H1243 C1255 0.929 . S
H1244 C1258 0.930 . S
H1245 C1260 0.960 . S
H1246 C1260 0.960 . S
H1247 C1260 0.960 . S
C1248 H1240 0.929 . S
C1248 C1249 1.377 . S
C1248 C1250 1.384 . S
C1249 C1248 1.377 . S
C1249 C1255 1.390 . S
C1250 H1241 0.930 . S
C1250 C1248 1.384 . S
C1250 C1251 1.372 . S
C1251 C1250 1.372 . S
C1251 C1252 1.400 . S
C1251 C1256 1.490 . S
C1252 H1242 0.930 . S
C1252 C1251 1.400 . S
C1252 C1255 1.386 . S
H1253 C1269 0.930 . S
H1254 C1270 0.931 . S
C1255 H1243 0.929 . S
C1255 C1249 1.390 . S
C1255 C1252 1.386 . S
C1256 C1251 1.490 . S
C1256 C1258 1.395 . S
C1256 C1259 1.403 . S
H1257 C1263 0.930 . S
C1258 H1244 0.930 . S
C1258 C1256 1.395 . S
C1258 C1261 1.403 . S
C1259 C1256 1.403 . S
C1259 C1260 1.524 . S
C1259 C1263 1.400 . S
C1260 H1245 0.960 . S
C1260 H1246 0.960 . S
C1260 H1247 0.960 . S
C1260 C1259 1.524 . S
C1261 C1258 1.403 . S
C1261 C1262 1.392 . S
C1261 C1265 1.495 . S
C1262 C1261 1.392 . S
C1262 C1263 1.385 . S
C1262 C1264 1.478 . S
C1263 H1257 0.930 . S
C1263 C1259 1.400 . S
C1263 C1262 1.385 . S
C1264 C1262 1.478 . S
C1264 C1266 1.381 . S
C1264 C1270 1.383 . S
C1265 C1261 1.495 . S
C1265 H1271 0.959 . S
C1265 H1272 0.961 . S
C1265 H1273 0.960 . S
C1266 C1264 1.381 . S
C1266 C1267 1.394 . S
C1266 H1274 0.930 . S
C1267 C1266 1.394 . S
C1267 C1268 1.383 . S
C1267 H1275 0.929 . S
C1268 C1267 1.383 . S
C1268 C1269 1.377 . S
C1269 H1253 0.930 . S
C1269 C1268 1.377 . S
C1269 C1270 1.379 . S
C1270 H1254 0.931 . S
C1270 C1264 1.383 . S
C1270 C1269 1.379 . S
H1271 C1265 0.959 . S
H1272 C1265 0.961 . S
H1273 C1265 0.960 . S
H1274 C1266 0.930 . S
H1275 C1267 0.929 . S
H1276 C1284 0.929 . S
H1277 C1286 0.930 . S
H1278 C1288 0.930 . S
H1279 C1291 0.929 . S
H1280 C1294 0.930 . S
H1281 C1296 0.960 . S
H1282 C1296 0.960 . S
H1283 C1296 0.960 . S
C1284 H1276 0.929 . S
C1284 C1285 1.377 . S
C1284 C1286 1.384 . S
C1285 C1284 1.377 . S
C1285 C1291 1.390 . S
C1286 H1277 0.930 . S
C1286 C1284 1.384 . S
C1286 C1287 1.372 . S
C1287 C1286 1.372 . S
C1287 C1288 1.400 . S
C1287 C1292 1.490 . S
C1288 H1278 0.930 . S
C1288 C1287 1.400 . S
C1288 C1291 1.386 . S
H1289 C1305 0.930 . S
H1290 C1306 0.931 . S
C1291 H1279 0.929 . S
C1291 C1285 1.390 . S
C1291 C1288 1.386 . S
C1292 C1287 1.490 . S
C1292 C1294 1.395 1_455 S
C1292 C1295 1.403 . S
H1293 C1299 0.930 . S
C1294 H1280 0.930 . S
C1294 C1292 1.395 1_655 S
C1294 C1297 1.403 . S
C1295 C1292 1.403 . S
C1295 C1296 1.524 . S
C1295 C1299 1.400 . S
C1296 H1281 0.960 . S
C1296 H1282 0.960 . S
C1296 H1283 0.960 . S
C1296 C1295 1.524 . S
C1297 C1294 1.403 . S
C1297 C1298 1.392 . S
C1297 C1301 1.495 . S
C1298 C1297 1.392 . S
C1298 C1299 1.385 1_655 S
C1298 C1300 1.478 . S
C1299 H1293 0.930 . S
C1299 C1295 1.400 . S
C1299 C1298 1.385 1_455 S
C1300 C1298 1.478 . S
C1300 C1302 1.381 . S
C1300 C1306 1.383 . S
C1301 C1297 1.495 . S
C1301 H1307 0.959 . S
C1301 H1308 0.961 . S
C1301 H1309 0.960 . S
C1302 C1300 1.381 . S
C1302 C1303 1.394 . S
C1302 H1310 0.930 . S
C1303 C1302 1.394 . S
C1303 C1304 1.383 . S
C1303 H1311 0.929 . S
C1304 C1303 1.383 . S
C1304 C1305 1.377 . S
C1305 H1289 0.930 . S
C1305 C1304 1.377 . S
C1305 C1306 1.379 . S
C1306 H1290 0.931 . S
C1306 C1300 1.383 . S
C1306 C1305 1.379 . S
H1307 C1301 0.959 . S
H1308 C1301 0.961 . S
H1309 C1301 0.960 . S
H1310 C1302 0.930 . S
H1311 C1303 0.929 . S
H1312 C1320 0.929 . S
H1313 C1322 0.930 . S
H1314 C1324 0.930 . S
H1315 C1327 0.929 . S
H1316 C1330 0.930 . S
H1317 C1332 0.960 . S
H1318 C1332 0.960 . S
H1319 C1332 0.960 . S
C1320 H1312 0.929 . S
C1320 C1321 1.377 . S
C1320 C1322 1.384 . S
C1321 C1320 1.377 . S
C1321 C1327 1.390 . S
C1322 H1313 0.930 . S
C1322 C1320 1.384 . S
C1322 C1323 1.372 . S
C1323 C1322 1.372 . S
C1323 C1324 1.400 . S
C1323 C1328 1.490 . S
C1324 H1314 0.930 . S
C1324 C1323 1.400 . S
C1324 C1327 1.386 . S
H1325 C1341 0.930 . S
H1326 C1342 0.931 . S
C1327 H1315 0.929 . S
C1327 C1321 1.390 . S
C1327 C1324 1.386 . S
C1328 C1323 1.490 . S
C1328 C1330 1.395 . S
C1328 C1331 1.403 . S
H1329 C1335 0.930 . S
C1330 H1316 0.930 . S
C1330 C1328 1.395 . S
C1330 C1333 1.403 . S
C1331 C1328 1.403 . S
C1331 C1332 1.524 . S
C1331 C1335 1.400 . S
C1332 H1317 0.960 . S
C1332 H1318 0.960 . S
C1332 H1319 0.960 . S
C1332 C1331 1.524 . S
C1333 C1330 1.403 . S
C1333 C1334 1.392 . S
C1333 C1337 1.495 . S
C1334 C1333 1.392 . S
C1334 C1335 1.385 . S
C1334 C1336 1.478 . S
C1335 H1329 0.930 . S
C1335 C1331 1.400 . S
C1335 C1334 1.385 . S
C1336 C1334 1.478 . S
C1336 C1338 1.381 . S
C1336 C1342 1.383 . S
C1337 C1333 1.495 . S
C1337 H1343 0.959 . S
C1337 H1344 0.961 . S
C1337 H1345 0.960 . S
C1338 C1336 1.381 . S
C1338 C1339 1.394 . S
C1338 H1346 0.930 . S
C1339 C1338 1.394 . S
C1339 C1340 1.383 . S
C1339 H1347 0.929 . S
C1340 C1339 1.383 . S
C1340 C1341 1.377 . S
C1341 H1325 0.930 . S
C1341 C1340 1.377 . S
C1341 C1342 1.379 . S
C1342 H1326 0.931 . S
C1342 C1336 1.383 . S
C1342 C1341 1.379 . S
H1343 C1337 0.959 . S
H1344 C1337 0.961 . S
H1345 C1337 0.960 . S
H1346 C1338 0.930 . S
H1347 C1339 0.929 . S
H1348 C1356 0.929 . S
H1349 C1358 0.930 . S
H1350 C1360 0.930 . S
H1351 C1363 0.929 . S
H1352 C1366 0.930 . S
H1353 C1368 0.960 . S
H1354 C1368 0.960 . S
H1355 C1368 0.960 . S
C1356 H1348 0.929 . S
C1356 C1357 1.377 . S
C1356 C1358 1.384 . S
C1357 C1356 1.377 . S
C1357 C1363 1.390 . S
C1358 H1349 0.930 . S
C1358 C1356 1.384 . S
C1358 C1359 1.372 . S
C1359 C1358 1.372 . S
C1359 C1360 1.400 . S
C1359 C1364 1.490 1_554 S
C1360 H1350 0.930 . S
C1360 C1359 1.400 . S
C1360 C1363 1.386 . S
H1361 C1377 0.930 . S
H1362 C1378 0.931 . S
C1363 H1351 0.929 . S
C1363 C1357 1.390 . S
C1363 C1360 1.386 . S
C1364 C1359 1.490 1_556 S
C1364 C1366 1.395 . S
C1364 C1367 1.403 1_655 S
H1365 C1371 0.930 . S
C1366 H1352 0.930 . S
C1366 C1364 1.395 . S
C1366 C1369 1.403 . S
C1367 C1364 1.403 1_455 S
C1367 C1368 1.524 1_556 S
C1367 C1371 1.400 . S
C1368 H1353 0.960 . S
C1368 H1354 0.960 . S
C1368 H1355 0.960 . S
C1368 C1367 1.524 1_554 S
C1369 C1366 1.403 . S
C1369 C1370 1.392 1_655 S
C1369 C1373 1.495 . S
C1370 C1369 1.392 1_455 S
C1370 C1371 1.385 . S
C1370 C1372 1.478 . S
C1371 H1365 0.930 . S
C1371 C1367 1.400 . S
C1371 C1370 1.385 . S
C1372 C1370 1.478 . S
C1372 C1374 1.381 . S
C1372 C1378 1.383 . S
C1373 C1369 1.495 . S
C1373 H1379 0.959 . S
C1373 H1380 0.961 . S
C1373 H1381 0.960 . S
C1374 C1372 1.381 . S
C1374 C1375 1.394 . S
C1374 H1382 0.930 . S
C1375 C1374 1.394 . S
C1375 C1376 1.383 . S
C1375 H1383 0.929 . S
C1376 C1375 1.383 . S
C1376 C1377 1.377 . S
C1377 H1361 0.930 . S
C1377 C1376 1.377 . S
C1377 C1378 1.379 . S
C1378 H1362 0.931 . S
C1378 C1372 1.383 . S
C1378 C1377 1.379 . S
H1379 C1373 0.959 . S
H1380 C1373 0.961 . S
H1381 C1373 0.960 . S
H1382 C1374 0.930 . S
H1383 C1375 0.929 . S
H1384 C1392 0.929 . S
H1385 C1394 0.930 . S
H1386 C1396 0.930 . S
H1387 C1399 0.929 . S
H1388 C1402 0.930 . S
H1389 C1404 0.960 . S
H1390 C1404 0.960 . S
H1391 C1404 0.960 . S
C1392 H1384 0.929 . S
C1392 C1393 1.377 . S
C1392 C1394 1.384 . S
C1393 C1392 1.377 . S
C1393 C1399 1.390 . S
C1394 H1385 0.930 . S
C1394 C1392 1.384 . S
C1394 C1395 1.372 . S
C1395 C1394 1.372 . S
C1395 C1396 1.400 . S
C1395 C1400 1.490 . S
C1396 H1386 0.930 . S
C1396 C1395 1.400 . S
C1396 C1399 1.386 . S
H1397 C1413 0.930 . S
H1398 C1414 0.931 . S
C1399 H1387 0.929 . S
C1399 C1393 1.390 . S
C1399 C1396 1.386 . S
C1400 C1395 1.490 . S
C1400 C1402 1.395 . S
C1400 C1403 1.403 . S
H1401 C1407 0.930 . S
C1402 H1388 0.930 . S
C1402 C1400 1.395 . S
C1402 C1405 1.403 . S
C1403 C1400 1.403 . S
C1403 C1404 1.524 . S
C1403 C1407 1.400 . S
C1404 H1389 0.960 . S
C1404 H1390 0.960 . S
C1404 H1391 0.960 . S
C1404 C1403 1.524 . S
C1405 C1402 1.403 . S
C1405 C1406 1.392 . S
C1405 C1409 1.495 . S
C1406 C1405 1.392 . S
C1406 C1407 1.385 . S
C1406 C1408 1.478 . S
C1407 H1401 0.930 . S
C1407 C1403 1.400 . S
C1407 C1406 1.385 . S
C1408 C1406 1.478 . S
C1408 C1410 1.381 . S
C1408 C1414 1.383 . S
C1409 C1405 1.495 . S
C1409 H1415 0.959 . S
C1409 H1416 0.961 . S
C1409 H1417 0.960 . S
C1410 C1408 1.381 . S
C1410 C1411 1.394 . S
C1410 H1418 0.930 . S
C1411 C1410 1.394 . S
C1411 C1412 1.383 . S
C1411 H1419 0.929 . S
C1412 C1411 1.383 . S
C1412 C1413 1.377 . S
C1413 H1397 0.930 . S
C1413 C1412 1.377 . S
C1413 C1414 1.379 . S
C1414 H1398 0.931 . S
C1414 C1408 1.383 . S
C1414 C1413 1.379 . S
H1415 C1409 0.959 . S
H1416 C1409 0.961 . S
H1417 C1409 0.960 . S
H1418 C1410 0.930 . S
H1419 C1411 0.929 . S
H1420 C1428 0.929 . S
H1421 C1430 0.930 . S
H1422 C1432 0.930 . S
H1423 C1435 0.929 . S
H1424 C1438 0.930 . S
H1425 C1440 0.960 . S
H1426 C1440 0.960 . S
H1427 C1440 0.960 . S
C1428 H1420 0.929 . S
C1428 C1429 1.377 . S
C1428 C1430 1.384 . S
C1429 C1428 1.377 . S
C1429 C1435 1.390 . S
C1430 H1421 0.930 . S
C1430 C1428 1.384 . S
C1430 C1431 1.372 . S
C1431 C1430 1.372 . S
C1431 C1432 1.400 . S
C1431 C1436 1.490 . S
C1432 H1422 0.930 . S
C1432 C1431 1.400 . S
C1432 C1435 1.386 . S
H1433 C1449 0.930 . S
H1434 C1450 0.931 . S
C1435 H1423 0.929 . S
C1435 C1429 1.390 . S
C1435 C1432 1.386 . S
C1436 C1431 1.490 . S
C1436 C1438 1.395 . S
C1436 C1439 1.403 . S
H1437 C1443 0.930 . S
C1438 H1424 0.930 . S
C1438 C1436 1.395 . S
C1438 C1441 1.403 . S
C1439 C1436 1.403 . S
C1439 C1440 1.524 . S
C1439 C1443 1.400 . S
C1440 H1425 0.960 . S
C1440 H1426 0.960 . S
C1440 H1427 0.960 . S
C1440 C1439 1.524 . S
C1441 C1438 1.403 . S
C1441 C1442 1.392 . S
C1441 C1445 1.495 . S
C1442 C1441 1.392 . S
C1442 C1443 1.385 . S
C1442 C1444 1.478 . S
C1443 H1437 0.930 . S
C1443 C1439 1.400 . S
C1443 C1442 1.385 . S
C1444 C1442 1.478 . S
C1444 C1446 1.381 . S
C1444 C1450 1.383 . S
C1445 C1441 1.495 . S
C1445 H1451 0.959 . S
C1445 H1452 0.961 . S
C1445 H1453 0.960 . S
C1446 C1444 1.381 . S
C1446 C1447 1.394 . S
C1446 H1454 0.930 . S
C1447 C1446 1.394 . S
C1447 C1448 1.383 . S
C1447 H1455 0.929 . S
C1448 C1447 1.383 . S
C1448 C1449 1.377 . S
C1449 H1433 0.930 . S
C1449 C1448 1.377 . S
C1449 C1450 1.379 . S
C1450 H1434 0.931 . S
C1450 C1444 1.383 . S
C1450 C1449 1.379 . S
H1451 C1445 0.959 . S
H1452 C1445 0.961 . S
H1453 C1445 0.960 . S
H1454 C1446 0.930 . S
H1455 C1447 0.929 . S
H1456 C1464 0.929 . S
H1457 C1466 0.930 . S
H1458 C1468 0.930 . S
H1459 C1471 0.929 . S
H1460 C1474 0.930 . S
H1461 C1476 0.960 . S
H1462 C1476 0.960 . S
H1463 C1476 0.960 . S
C1464 H1456 0.929 . S
C1464 C1465 1.377 . S
C1464 C1466 1.384 . S
C1465 C1464 1.377 . S
C1465 C1471 1.390 . S
C1466 H1457 0.930 . S
C1466 C1464 1.384 . S
C1466 C1467 1.372 . S
C1467 C1466 1.372 . S
C1467 C1468 1.400 . S
C1467 C1472 1.490 . S
C1468 H1458 0.930 . S
C1468 C1467 1.400 . S
C1468 C1471 1.386 . S
H1469 C1485 0.930 . S
H1470 C1486 0.931 . S
C1471 H1459 0.929 . S
C1471 C1465 1.390 . S
C1471 C1468 1.386 . S
C1472 C1467 1.490 . S
C1472 C1474 1.395 . S
C1472 C1475 1.403 . S
H1473 C1479 0.930 . S
C1474 H1460 0.930 . S
C1474 C1472 1.395 . S
C1474 C1477 1.403 . S
C1475 C1472 1.403 . S
C1475 C1476 1.524 . S
C1475 C1479 1.400 . S
C1476 H1461 0.960 . S
C1476 H1462 0.960 . S
C1476 H1463 0.960 . S
C1476 C1475 1.524 . S
C1477 C1474 1.403 . S
C1477 C1478 1.392 . S
C1477 C1481 1.495 . S
C1478 C1477 1.392 . S
C1478 C1479 1.385 . S
C1478 C1480 1.478 . S
C1479 H1473 0.930 . S
C1479 C1475 1.400 . S
C1479 C1478 1.385 . S
C1480 C1478 1.478 . S
C1480 C1482 1.381 . S
C1480 C1486 1.383 . S
C1481 C1477 1.495 . S
C1481 H1487 0.959 . S
C1481 H1488 0.961 . S
C1481 H1489 0.960 . S
C1482 C1480 1.381 . S
C1482 C1483 1.394 . S
C1482 H1490 0.930 . S
C1483 C1482 1.394 . S
C1483 C1484 1.383 . S
C1483 H1491 0.929 . S
C1484 C1483 1.383 . S
C1484 C1485 1.377 . S
C1485 H1469 0.930 . S
C1485 C1484 1.377 . S
C1485 C1486 1.379 . S
C1486 H1470 0.931 . S
C1486 C1480 1.383 . S
C1486 C1485 1.379 . S
H1487 C1481 0.959 . S
H1488 C1481 0.961 . S
H1489 C1481 0.960 . S
H1490 C1482 0.930 . S
H1491 C1483 0.929 . S
H1492 C1500 0.929 . S
H1493 C1502 0.930 . S
H1494 C1504 0.930 . S
H1495 C1507 0.929 . S
H1496 C1510 0.930 . S
H1497 C1512 0.960 . S
H1498 C1512 0.960 . S
H1499 C1512 0.960 . S
C1500 H1492 0.929 . S
C1500 C1501 1.377 . S
C1500 C1502 1.384 . S
C1501 C1500 1.377 . S
C1501 C1507 1.390 . S
C1502 H1493 0.930 . S
C1502 C1500 1.384 . S
C1502 C1503 1.372 . S
C1503 C1502 1.372 . S
C1503 C1504 1.400 . S
C1503 C1508 1.490 . S
C1504 H1494 0.930 . S
C1504 C1503 1.400 . S
C1504 C1507 1.386 . S
H1505 C1521 0.930 . S
H1506 C1522 0.931 . S
C1507 H1495 0.929 . S
C1507 C1501 1.390 . S
C1507 C1504 1.386 . S
C1508 C1503 1.490 . S
C1508 C1510 1.395 . S
C1508 C1511 1.403 . S
H1509 C1515 0.930 . S
C1510 H1496 0.930 . S
C1510 C1508 1.395 . S
C1510 C1513 1.403 1_554 S
C1511 C1508 1.403 . S
C1511 C1512 1.524 . S
C1511 C1515 1.400 . S
C1512 H1497 0.960 . S
C1512 H1498 0.960 . S
C1512 H1499 0.960 . S
C1512 C1511 1.524 . S
C1513 C1510 1.403 1_556 S
C1513 C1514 1.392 . S
C1513 C1517 1.495 . S
C1514 C1513 1.392 . S
C1514 C1515 1.382 1_556 S
C1514 C1516 1.481 . S
C1515 H1509 0.930 . S
C1515 C1511 1.400 . S
C1515 C1514 1.382 1_554 S
C1516 C1514 1.481 . S
C1516 C1518 1.381 . S
C1516 C1522 1.383 . S
C1517 C1513 1.495 . S
C1517 H1523 0.959 . S
C1517 H1524 0.961 . S
C1517 H1525 0.960 . S
C1518 C1516 1.381 . S
C1518 C1519 1.394 . S
C1518 H1526 0.930 . S
C1519 C1518 1.394 . S
C1519 C1520 1.383 . S
C1519 H1527 0.929 . S
C1520 C1519 1.383 . S
C1520 C1521 1.377 . S
C1521 H1505 0.930 . S
C1521 C1520 1.377 . S
C1521 C1522 1.379 . S
C1522 H1506 0.931 . S
C1522 C1516 1.383 . S
C1522 C1521 1.379 . S
H1523 C1517 0.959 . S
H1524 C1517 0.961 . S
H1525 C1517 0.960 . S
H1526 C1518 0.930 . S
H1527 C1519 0.929 . S
H1528 C1536 0.929 . S
H1529 C1538 0.930 . S
H1530 C1540 0.930 . S
H1531 C1543 0.929 . S
H1532 C1546 0.930 . S
H1533 C1548 0.960 . S
H1534 C1548 0.960 . S
H1535 C1548 0.960 . S
C1536 H1528 0.929 . S
C1536 C1537 1.377 . S
C1536 C1538 1.384 . S
C1537 C1536 1.377 . S
C1537 C1543 1.390 . S
C1538 H1529 0.930 . S
C1538 C1536 1.384 . S
C1538 C1539 1.372 . S
C1539 C1538 1.372 . S
C1539 C1540 1.400 . S
C1539 C1544 1.490 . S
C1540 H1530 0.930 . S
C1540 C1539 1.400 . S
C1540 C1543 1.386 . S
H1541 C1557 0.930 . S
H1542 C1558 0.931 . S
C1543 H1531 0.929 . S
C1543 C1537 1.390 . S
C1543 C1540 1.386 . S
C1544 C1539 1.490 . S
C1544 C1546 1.395 . S
C1544 C1547 1.403 . S
H1545 C1551 0.930 . S
C1546 H1532 0.930 . S
C1546 C1544 1.395 . S
C1546 C1549 1.403 . S
C1547 C1544 1.403 . S
C1547 C1548 1.524 . S
C1547 C1551 1.400 . S
C1548 H1533 0.960 . S
C1548 H1534 0.960 . S
C1548 H1535 0.960 . S
C1548 C1547 1.524 . S
C1549 C1546 1.403 . S
C1549 C1550 1.392 . S
C1549 C1553 1.495 . S
C1550 C1549 1.392 . S
C1550 C1551 1.385 . S
C1550 C1552 1.478 . S
C1551 H1545 0.930 . S
C1551 C1547 1.400 . S
C1551 C1550 1.385 . S
C1552 C1550 1.478 . S
C1552 C1554 1.381 . S
C1552 C1558 1.383 . S
C1553 C1549 1.495 . S
C1553 H1559 0.959 . S
C1553 H1560 0.961 . S
C1553 H1561 0.960 . S
C1554 C1552 1.381 . S
C1554 C1555 1.394 . S
C1554 H1562 0.930 . S
C1555 C1554 1.394 . S
C1555 C1556 1.383 . S
C1555 H1563 0.929 . S
C1556 C1555 1.383 . S
C1556 C1557 1.377 . S
C1557 H1541 0.930 . S
C1557 C1556 1.377 . S
C1557 C1558 1.379 . S
C1558 H1542 0.931 . S
C1558 C1552 1.383 . S
C1558 C1557 1.379 . S
H1559 C1553 0.959 . S
H1560 C1553 0.961 . S
H1561 C1553 0.960 . S
H1562 C1554 0.930 . S
H1563 C1555 0.929 . S
H1564 C1572 0.929 . S
H1565 C1574 0.930 . S
H1566 C1576 0.930 . S
H1567 C1579 0.929 . S
H1568 C1582 0.930 . S
H1569 C1584 0.960 . S
H1570 C1584 0.960 . S
H1571 C1584 0.960 . S
C1572 H1564 0.929 . S
C1572 C1573 1.377 . S
C1572 C1574 1.384 . S
C1573 C1572 1.377 . S
C1573 C1579 1.390 . S
C1574 H1565 0.930 . S
C1574 C1572 1.384 . S
C1574 C1575 1.372 . S
C1575 C1574 1.372 . S
C1575 C1576 1.400 . S
C1575 C1580 1.490 . S
C1576 H1566 0.930 . S
C1576 C1575 1.400 . S
C1576 C1579 1.386 . S
H1577 C1593 0.930 . S
H1578 C1594 0.931 . S
C1579 H1567 0.929 . S
C1579 C1573 1.390 . S
C1579 C1576 1.386 . S
C1580 C1575 1.490 . S
C1580 C1582 1.395 . S
C1580 C1583 1.403 . S
H1581 C1587 0.930 . S
C1582 H1568 0.930 . S
C1582 C1580 1.395 . S
C1582 C1585 1.403 1_655 S
C1583 C1580 1.403 . S
C1583 C1584 1.524 . S
C1583 C1587 1.400 1_655 S
C1584 H1569 0.960 . S
C1584 H1570 0.960 . S
C1584 H1571 0.960 . S
C1584 C1583 1.524 . S
C1585 C1582 1.403 1_455 S
C1585 C1586 1.392 . S
C1585 C1589 1.495 . S
C1586 C1585 1.392 . S
C1586 C1587 1.385 . S
C1586 C1588 1.478 . S
C1587 H1581 0.930 . S
C1587 C1583 1.400 1_455 S
C1587 C1586 1.385 . S
C1588 C1586 1.478 . S
C1588 C1590 1.381 . S
C1588 C1594 1.383 . S
C1589 C1585 1.495 . S
C1589 H1595 0.959 . S
C1589 H1596 0.961 . S
C1589 H1597 0.960 . S
C1590 C1588 1.381 . S
C1590 C1591 1.394 . S
C1590 H1598 0.930 . S
C1591 C1590 1.394 . S
C1591 C1592 1.383 . S
C1591 H1599 0.929 . S
C1592 C1591 1.383 . S
C1592 C1593 1.377 . S
C1593 H1577 0.930 . S
C1593 C1592 1.377 . S
C1593 C1594 1.379 . S
C1594 H1578 0.931 . S
C1594 C1588 1.383 . S
C1594 C1593 1.379 . S
H1595 C1589 0.959 . S
H1596 C1589 0.961 . S
H1597 C1589 0.960 . S
H1598 C1590 0.930 . S
H1599 C1591 0.929 . S
H1600 C1608 0.929 . S
H1601 C1610 0.930 . S
H1602 C1612 0.930 . S
H1603 C1615 0.929 . S
H1604 C1618 0.930 . S
H1605 C1620 0.960 . S
H1606 C1620 0.960 . S
H1607 C1620 0.960 . S
C1608 H1600 0.929 . S
C1608 C1609 1.377 . S
C1608 C1610 1.384 . S
C1609 C1608 1.377 . S
C1609 C1615 1.390 . S
C1610 H1601 0.930 . S
C1610 C1608 1.384 . S
C1610 C1611 1.372 . S
C1611 C1610 1.372 . S
C1611 C1612 1.400 . S
C1611 C1616 1.490 . S
C1612 H1602 0.930 . S
C1612 C1611 1.400 . S
C1612 C1615 1.386 . S
H1613 C1629 0.930 . S
H1614 C1630 0.931 . S
C1615 H1603 0.929 . S
C1615 C1609 1.390 . S
C1615 C1612 1.386 . S
C1616 C1611 1.490 . S
C1616 C1618 1.395 . S
C1616 C1619 1.403 . S
H1617 C1623 0.930 . S
C1618 H1604 0.930 . S
C1618 C1616 1.395 . S
C1618 C1621 1.403 . S
C1619 C1616 1.403 . S
C1619 C1620 1.524 . S
C1619 C1623 1.400 . S
C1620 H1605 0.960 . S
C1620 H1606 0.960 . S
C1620 H1607 0.960 . S
C1620 C1619 1.524 . S
C1621 C1618 1.403 . S
C1621 C1622 1.392 . S
C1621 C1625 1.495 . S
C1622 C1621 1.392 . S
C1622 C1623 1.385 . S
C1622 C1624 1.478 . S
C1623 H1617 0.930 . S
C1623 C1619 1.400 . S
C1623 C1622 1.385 . S
C1624 C1622 1.478 . S
C1624 C1626 1.381 . S
C1624 C1630 1.383 . S
C1625 C1621 1.495 . S
C1625 H1631 0.959 . S
C1625 H1632 0.961 . S
C1625 H1633 0.960 . S
C1626 C1624 1.381 . S
C1626 C1627 1.394 . S
C1626 H1634 0.930 . S
C1627 C1626 1.394 . S
C1627 C1628 1.383 . S
C1627 H1635 0.929 . S
C1628 C1627 1.383 . S
C1628 C1629 1.377 . S
C1629 H1613 0.930 . S
C1629 C1628 1.377 . S
C1629 C1630 1.379 . S
C1630 H1614 0.931 . S
C1630 C1624 1.383 . S
C1630 C1629 1.379 . S
H1631 C1625 0.959 . S
H1632 C1625 0.961 . S
H1633 C1625 0.960 . S
H1634 C1626 0.930 . S
H1635 C1627 0.929 . S
H1636 C1644 0.929 . S
H1637 C1646 0.930 . S
H1638 C1648 0.930 . S
H1639 C1651 0.929 . S
H1640 C1654 0.930 . S
H1641 C1656 0.960 . S
H1642 C1656 0.960 . S
H1643 C1656 0.960 . S
C1644 H1636 0.929 . S
C1644 C1645 1.377 . S
C1644 C1646 1.384 . S
C1645 C1644 1.377 . S
C1645 C1651 1.390 . S
C1646 H1637 0.930 . S
C1646 C1644 1.384 . S
C1646 C1647 1.372 . S
C1647 C1646 1.372 . S
C1647 C1648 1.400 . S
C1647 C1652 1.490 . S
C1648 H1638 0.930 . S
C1648 C1647 1.400 . S
C1648 C1651 1.386 . S
H1649 C1665 0.930 . S
H1650 C1666 0.931 . S
C1651 H1639 0.929 . S
C1651 C1645 1.390 . S
C1651 C1648 1.386 . S
C1652 C1647 1.490 . S
C1652 C1654 1.395 . S
C1652 C1655 1.403 . S
H1653 C1659 0.930 . S
C1654 H1640 0.930 . S
C1654 C1652 1.395 . S
C1654 C1657 1.403 . S
C1655 C1652 1.403 . S
C1655 C1656 1.524 . S
C1655 C1659 1.400 . S
C1656 H1641 0.960 . S
C1656 H1642 0.960 . S
C1656 H1643 0.960 . S
C1656 C1655 1.524 . S
C1657 C1654 1.403 . S
C1657 C1658 1.392 . S
C1657 C1661 1.495 . S
C1658 C1657 1.392 . S
C1658 C1659 1.385 . S
C1658 C1660 1.478 . S
C1659 H1653 0.930 . S
C1659 C1655 1.400 . S
C1659 C1658 1.385 . S
C1660 C1658 1.478 . S
C1660 C1662 1.381 . S
C1660 C1666 1.383 . S
C1661 C1657 1.495 . S
C1661 H1667 0.959 . S
C1661 H1668 0.961 . S
C1661 H1669 0.960 . S
C1662 C1660 1.381 . S
C1662 C1663 1.394 . S
C1662 H1670 0.930 . S
C1663 C1662 1.394 . S
C1663 C1664 1.383 . S
C1663 H1671 0.929 . S
C1664 C1663 1.383 . S
C1664 C1665 1.377 . S
C1665 H1649 0.930 . S
C1665 C1664 1.377 . S
C1665 C1666 1.379 . S
C1666 H1650 0.931 . S
C1666 C1660 1.383 . S
C1666 C1665 1.379 . S
H1667 C1661 0.959 . S
H1668 C1661 0.961 . S
H1669 C1661 0.960 . S
H1670 C1662 0.930 . S
H1671 C1663 0.929 . S
H1672 C1680 0.929 . S
H1673 C1682 0.930 . S
H1674 C1684 0.930 . S
H1675 C1687 0.929 . S
H1676 C1690 0.930 . S
H1677 C1692 0.960 . S
H1678 C1692 0.960 . S
H1679 C1692 0.960 . S
C1680 H1672 0.929 . S
C1680 C1681 1.377 . S
C1680 C1682 1.384 . S
C1681 C1680 1.377 . S
C1681 C1687 1.390 . S
C1682 H1673 0.930 . S
C1682 C1680 1.384 . S
C1682 C1683 1.372 . S
C1683 C1682 1.372 . S
C1683 C1684 1.400 . S
C1683 C1688 1.490 . S
C1684 H1674 0.930 . S
C1684 C1683 1.400 . S
C1684 C1687 1.386 . S
H1685 C1701 0.930 . S
H1686 C1702 0.931 . S
C1687 H1675 0.929 . S
C1687 C1681 1.390 . S
C1687 C1684 1.386 . S
C1688 C1683 1.490 . S
C1688 C1690 1.395 . S
C1688 C1691 1.403 . S
H1689 C1695 0.930 . S
C1690 H1676 0.930 . S
C1690 C1688 1.395 . S
C1690 C1693 1.403 . S
C1691 C1688 1.403 . S
C1691 C1692 1.524 . S
C1691 C1695 1.400 . S
C1692 H1677 0.960 . S
C1692 H1678 0.960 . S
C1692 H1679 0.960 . S
C1692 C1691 1.524 . S
C1693 C1690 1.403 . S
C1693 C1694 1.392 . S
C1693 C1697 1.495 . S
C1694 C1693 1.392 . S
C1694 C1695 1.385 . S
C1694 C1696 1.478 . S
C1695 H1689 0.930 . S
C1695 C1691 1.400 . S
C1695 C1694 1.385 . S
C1696 C1694 1.478 . S
C1696 C1698 1.381 . S
C1696 C1702 1.383 . S
C1697 C1693 1.495 . S
C1697 H1703 0.959 . S
C1697 H1704 0.961 . S
C1697 H1705 0.960 . S
C1698 C1696 1.381 . S
C1698 C1699 1.394 . S
C1698 H1706 0.930 . S
C1699 C1698 1.394 . S
C1699 C1700 1.383 . S
C1699 H1707 0.929 . S
C1700 C1699 1.383 . S
C1700 C1701 1.377 . S
C1701 H1685 0.930 . S
C1701 C1700 1.377 . S
C1701 C1702 1.379 . S
C1702 H1686 0.931 . S
C1702 C1696 1.383 . S
C1702 C1701 1.379 . S
H1703 C1697 0.959 . S
H1704 C1697 0.961 . S
H1705 C1697 0.960 . S
H1706 C1698 0.930 . S
H1707 C1699 0.929 . S
H1708 C1716 0.929 . S
H1709 C1718 0.930 . S
H1710 C1720 0.930 . S
H1711 C1723 0.929 . S
H1712 C1726 0.930 . S
H1713 C1728 0.960 . S
H1714 C1728 0.960 . S
H1715 C1728 0.960 . S
C1716 H1708 0.929 . S
C1716 C1717 1.377 . S
C1716 C1718 1.384 . S
C1717 C1716 1.377 . S
C1717 C1723 1.390 . S
C1718 H1709 0.930 . S
C1718 C1716 1.384 . S
C1718 C1719 1.372 . S
C1719 C1718 1.372 . S
C1719 C1720 1.400 . S
C1719 C1724 1.490 . S
C1720 H1710 0.930 . S
C1720 C1719 1.400 . S
C1720 C1723 1.386 . S
H1721 C1737 0.930 . S
H1722 C1738 0.931 . S
C1723 H1711 0.929 . S
C1723 C1717 1.390 . S
C1723 C1720 1.386 . S
C1724 C1719 1.490 . S
C1724 C1726 1.395 . S
C1724 C1727 1.403 1_455 S
H1725 C1731 0.930 . S
C1726 H1712 0.930 . S
C1726 C1724 1.395 . S
C1726 C1729 1.382 1_554 S
C1727 C1724 1.403 1_655 S
C1727 C1728 1.524 . S
C1727 C1731 1.400 . S
C1728 H1713 0.960 . S
C1728 H1714 0.960 . S
C1728 H1715 0.960 . S
C1728 C1727 1.524 . S
C1729 C1726 1.382 1_556 S
C1729 C1730 1.392 1_455 S
C1729 C1733 1.516 . S
C1730 C1729 1.392 1_655 S
C1730 C1731 1.377 1_556 S
C1730 C1732 1.485 . S
C1731 H1725 0.930 . S
C1731 C1727 1.400 . S
C1731 C1730 1.377 1_554 S
C1732 C1730 1.485 . S
C1732 C1734 1.381 . S
C1732 C1738 1.383 . S
C1733 C1729 1.516 . S
C1733 H1739 0.959 . S
C1733 H1740 0.961 . S
C1733 H1741 0.960 . S
C1734 C1732 1.381 . S
C1734 C1735 1.394 . S
C1734 H1742 0.930 . S
C1735 C1734 1.394 . S
C1735 C1736 1.383 . S
C1735 H1743 0.929 . S
C1736 C1735 1.383 . S
C1736 C1737 1.377 . S
C1737 H1721 0.930 . S
C1737 C1736 1.377 . S
C1737 C1738 1.379 . S
C1738 H1722 0.931 . S
C1738 C1732 1.383 . S
C1738 C1737 1.379 . S
H1739 C1733 0.959 . S
H1740 C1733 0.961 . S
H1741 C1733 0.960 . S
H1742 C1734 0.930 . S
H1743 C1735 0.929 . S
H1744 C1752 0.929 . S
H1745 C1754 0.930 . S
H1746 C1756 0.930 . S
H1747 C1759 0.929 . S
H1748 C1762 0.930 . S
H1749 C1764 0.960 . S
H1750 C1764 0.960 . S
H1751 C1764 0.960 . S
C1752 H1744 0.929 . S
C1752 C1753 1.377 . S
C1752 C1754 1.384 . S
C1753 C1752 1.377 . S
C1753 C1759 1.390 . S
C1754 H1745 0.930 . S
C1754 C1752 1.384 . S
C1754 C1755 1.372 . S
C1755 C1754 1.372 . S
C1755 C1756 1.400 . S
C1755 C1760 1.490 . S
C1756 H1746 0.930 . S
C1756 C1755 1.400 . S
C1756 C1759 1.386 . S
H1757 C1773 0.930 . S
H1758 C1774 0.931 . S
C1759 H1747 0.929 . S
C1759 C1753 1.390 . S
C1759 C1756 1.386 . S
C1760 C1755 1.490 . S
C1760 C1762 1.395 . S
C1760 C1763 1.403 . S
H1761 C1767 0.930 . S
C1762 H1748 0.930 . S
C1762 C1760 1.395 . S
C1762 C1765 1.403 . S
C1763 C1760 1.403 . S
C1763 C1764 1.524 . S
C1763 C1767 1.400 . S
C1764 H1749 0.960 . S
C1764 H1750 0.960 . S
C1764 H1751 0.960 . S
C1764 C1763 1.524 . S
C1765 C1762 1.403 . S
C1765 C1766 1.392 . S
C1765 C1769 1.495 . S
C1766 C1765 1.392 . S
C1766 C1767 1.385 . S
C1766 C1768 1.478 . S
C1767 H1761 0.930 . S
C1767 C1763 1.400 . S
C1767 C1766 1.385 . S
C1768 C1766 1.478 . S
C1768 C1770 1.381 . S
C1768 C1774 1.383 . S
C1769 C1765 1.495 . S
C1769 H1775 0.959 . S
C1769 H1776 0.961 . S
C1769 H1777 0.960 . S
C1770 C1768 1.381 . S
C1770 C1771 1.394 . S
C1770 H1778 0.930 . S
C1771 C1770 1.394 . S
C1771 C1772 1.383 . S
C1771 H1779 0.929 . S
C1772 C1771 1.383 . S
C1772 C1773 1.377 . S
C1773 H1757 0.930 . S
C1773 C1772 1.377 . S
C1773 C1774 1.379 . S
C1774 H1758 0.931 . S
C1774 C1768 1.383 . S
C1774 C1773 1.379 . S
H1775 C1769 0.959 . S
H1776 C1769 0.961 . S
H1777 C1769 0.960 . S
H1778 C1770 0.930 . S
H1779 C1771 0.929 . S
H1780 C1788 0.929 . S
H1781 C1790 0.930 . S
H1782 C1792 0.930 . S
H1783 C1795 0.929 . S
H1784 C1798 0.930 . S
H1785 C1800 0.960 . S
H1786 C1800 0.960 . S
H1787 C1800 0.960 . S
C1788 H1780 0.929 . S
C1788 C1789 1.377 . S
C1788 C1790 1.384 . S
C1789 C1788 1.377 . S
C1789 C1795 1.390 . S
C1790 H1781 0.930 . S
C1790 C1788 1.384 . S
C1790 C1791 1.372 . S
C1791 C1790 1.372 . S
C1791 C1792 1.400 . S
C1791 C1796 1.490 . S
C1792 H1782 0.930 . S
C1792 C1791 1.400 . S
C1792 C1795 1.386 . S
H1793 C1809 0.930 . S
H1794 C1810 0.931 . S
C1795 H1783 0.929 . S
C1795 C1789 1.390 . S
C1795 C1792 1.386 . S
C1796 C1791 1.490 . S
C1796 C1798 1.395 . S
C1796 C1799 1.403 1_655 S
H1797 C1803 0.930 . S
C1798 H1784 0.930 . S
C1798 C1796 1.395 . S
C1798 C1801 1.403 . S
C1799 C1796 1.403 1_455 S
C1799 C1800 1.524 . S
C1799 C1803 1.400 . S
C1800 H1785 0.960 . S
C1800 H1786 0.960 . S
C1800 H1787 0.960 . S
C1800 C1799 1.524 . S
C1801 C1798 1.403 . S
C1801 C1802 1.392 1_655 S
C1801 C1805 1.495 . S
C1802 C1801 1.392 1_455 S
C1802 C1803 1.385 . S
C1802 C1804 1.478 . S
C1803 H1797 0.930 . S
C1803 C1799 1.400 . S
C1803 C1802 1.385 . S
C1804 C1802 1.478 . S
C1804 C1806 1.381 . S
C1804 C1810 1.383 . S
C1805 C1801 1.495 . S
C1805 H1811 0.959 . S
C1805 H1812 0.961 . S
C1805 H1813 0.960 . S
C1806 C1804 1.381 . S
C1806 C1807 1.394 . S
C1806 H1814 0.930 . S
C1807 C1806 1.394 . S
C1807 C1808 1.383 . S
C1807 H1815 0.929 . S
C1808 C1807 1.383 . S
C1808 C1809 1.377 . S
C1809 H1793 0.930 . S
C1809 C1808 1.377 . S
C1809 C1810 1.379 . S
C1810 H1794 0.931 . S
C1810 C1804 1.383 . S
C1810 C1809 1.379 . S
H1811 C1805 0.959 . S
H1812 C1805 0.961 . S
H1813 C1805 0.960 . S
H1814 C1806 0.930 . S
H1815 C1807 0.929 . S
H1816 C1824 0.929 . S
H1817 C1826 0.930 . S
H1818 C1828 0.930 . S
H1819 C1831 0.929 . S
H1820 C1834 0.930 . S
H1821 C1836 0.960 . S
H1822 C1836 0.960 . S
H1823 C1836 0.960 . S
C1824 H1816 0.929 . S
C1824 C1825 1.377 . S
C1824 C1826 1.384 . S
C1825 C1824 1.377 . S
C1825 C1831 1.390 . S
C1826 H1817 0.930 . S
C1826 C1824 1.384 . S
C1826 C1827 1.372 . S
C1827 C1826 1.372 . S
C1827 C1828 1.400 . S
C1827 C1832 1.490 . S
C1828 H1818 0.930 . S
C1828 C1827 1.400 . S
C1828 C1831 1.386 . S
H1829 C1845 0.930 . S
H1830 C1846 0.931 . S
C1831 H1819 0.929 . S
C1831 C1825 1.390 . S
C1831 C1828 1.386 . S
C1832 C1827 1.490 . S
C1832 C1834 1.395 . S
C1832 C1835 1.403 . S
H1833 C1839 0.930 . S
C1834 H1820 0.930 . S
C1834 C1832 1.395 . S
C1834 C1837 1.403 . S
C1835 C1832 1.403 . S
C1835 C1836 1.524 . S
C1835 C1839 1.400 . S
C1836 H1821 0.960 . S
C1836 H1822 0.960 . S
C1836 H1823 0.960 . S
C1836 C1835 1.524 . S
C1837 C1834 1.403 . S
C1837 C1838 1.392 . S
C1837 C1841 1.495 . S
C1838 C1837 1.392 . S
C1838 C1839 1.385 . S
C1838 C1840 1.478 . S
C1839 H1833 0.930 . S
C1839 C1835 1.400 . S
C1839 C1838 1.385 . S
C1840 C1838 1.478 . S
C1840 C1842 1.381 . S
C1840 C1846 1.383 . S
C1841 C1837 1.495 . S
C1841 H1847 0.959 . S
C1841 H1848 0.961 . S
C1841 H1849 0.960 . S
C1842 C1840 1.381 . S
C1842 C1843 1.394 . S
C1842 H1850 0.930 . S
C1843 C1842 1.394 . S
C1843 C1844 1.383 . S
C1843 H1851 0.929 . S
C1844 C1843 1.383 . S
C1844 C1845 1.377 . S
C1845 H1829 0.930 . S
C1845 C1844 1.377 . S
C1845 C1846 1.379 . S
C1846 H1830 0.931 . S
C1846 C1840 1.383 . S
C1846 C1845 1.379 . S
H1847 C1841 0.959 . S
H1848 C1841 0.961 . S
H1849 C1841 0.960 . S
H1850 C1842 0.930 . S
H1851 C1843 0.929 . S
H1852 C1860 0.929 . S
H1853 C1862 0.930 . S
H1854 C1864 0.930 . S
H1855 C1867 0.929 . S
H1856 C1870 0.930 . S
H1857 C1872 0.960 . S
H1858 C1872 0.960 . S
H1859 C1872 0.960 . S
C1860 H1852 0.929 . S
C1860 C1861 1.377 . S
C1860 C1862 1.384 . S
C1861 C1860 1.377 . S
C1861 C1867 1.390 . S
C1862 H1853 0.930 . S
C1862 C1860 1.384 . S
C1862 C1863 1.372 . S
C1863 C1862 1.372 . S
C1863 C1864 1.400 . S
C1863 C1868 1.490 1_554 S
C1864 H1854 0.930 . S
C1864 C1863 1.400 . S
C1864 C1867 1.386 . S
H1865 C1881 0.930 . S
H1866 C1882 0.931 . S
C1867 H1855 0.929 . S
C1867 C1861 1.390 . S
C1867 C1864 1.386 . S
C1868 C1863 1.490 1_556 S
C1868 C1870 1.395 . S
C1868 C1871 1.403 . S
H1869 C1875 0.930 . S
C1870 H1856 0.930 . S
C1870 C1868 1.395 . S
C1870 C1873 1.403 . S
C1871 C1868 1.403 . S
C1871 C1872 1.524 1_556 S
C1871 C1875 1.400 . S
C1872 H1857 0.960 . S
C1872 H1858 0.960 . S
C1872 H1859 0.960 . S
C1872 C1871 1.524 1_554 S
C1873 C1870 1.403 . S
C1873 C1874 1.392 . S
C1873 C1877 1.495 . S
C1874 C1873 1.392 . S
C1874 C1875 1.385 . S
C1874 C1876 1.478 . S
C1875 H1869 0.930 . S
C1875 C1871 1.400 . S
C1875 C1874 1.385 . S
C1876 C1874 1.478 . S
C1876 C1878 1.381 . S
C1876 C1882 1.383 . S
C1877 C1873 1.495 . S
C1877 H1883 0.959 . S
C1877 H1884 0.961 . S
C1877 H1885 0.960 . S
C1878 C1876 1.381 . S
C1878 C1879 1.394 . S
C1878 H1886 0.930 . S
C1879 C1878 1.394 . S
C1879 C1880 1.383 . S
C1879 H1887 0.929 . S
C1880 C1879 1.383 . S
C1880 C1881 1.377 . S
C1881 H1865 0.930 . S
C1881 C1880 1.377 . S
C1881 C1882 1.379 . S
C1882 H1866 0.931 . S
C1882 C1876 1.383 . S
C1882 C1881 1.379 . S
H1883 C1877 0.959 . S
H1884 C1877 0.961 . S
H1885 C1877 0.960 . S
H1886 C1878 0.930 . S
H1887 C1879 0.929 . S
H1888 C1896 0.929 . S
H1889 C1898 0.930 . S
H1890 C1900 0.930 . S
H1891 C1903 0.929 . S
H1892 C1906 0.930 . S
H1893 C1908 0.960 . S
H1894 C1908 0.960 . S
H1895 C1908 0.960 . S
C1896 H1888 0.929 . S
C1896 C1897 1.377 . S
C1896 C1898 1.384 . S
C1897 C1896 1.377 . S
C1897 C1903 1.390 . S
C1898 H1889 0.930 . S
C1898 C1896 1.384 . S
C1898 C1899 1.372 . S
C1899 C1898 1.372 . S
C1899 C1900 1.400 . S
C1899 C1904 1.490 . S
C1900 H1890 0.930 . S
C1900 C1899 1.400 . S
C1900 C1903 1.386 . S
H1901 C1917 0.930 . S
H1902 C1918 0.931 . S
C1903 H1891 0.929 . S
C1903 C1897 1.390 . S
C1903 C1900 1.386 . S
C1904 C1899 1.490 . S
C1904 C1906 1.395 . S
C1904 C1907 1.403 . S
H1905 C1911 0.930 . S
C1906 H1892 0.930 . S
C1906 C1904 1.395 . S
C1906 C1909 1.403 . S
C1907 C1904 1.403 . S
C1907 C1908 1.524 . S
C1907 C1911 1.400 . S
C1908 H1893 0.960 . S
C1908 H1894 0.960 . S
C1908 H1895 0.960 . S
C1908 C1907 1.524 . S
C1909 C1906 1.403 . S
C1909 C1910 1.392 . S
C1909 C1913 1.495 . S
C1910 C1909 1.392 . S
C1910 C1911 1.385 . S
C1910 C1912 1.478 . S
C1911 H1905 0.930 . S
C1911 C1907 1.400 . S
C1911 C1910 1.385 . S
C1912 C1910 1.478 . S
C1912 C1914 1.381 . S
C1912 C1918 1.383 . S
C1913 C1909 1.495 . S
C1913 H1919 0.959 . S
C1913 H1920 0.961 . S
C1913 H1921 0.960 . S
C1914 C1912 1.381 . S
C1914 C1915 1.394 . S
C1914 H1922 0.930 . S
C1915 C1914 1.394 . S
C1915 C1916 1.383 . S
C1915 H1923 0.929 . S
C1916 C1915 1.383 . S
C1916 C1917 1.377 . S
C1917 H1901 0.930 . S
C1917 C1916 1.377 . S
C1917 C1918 1.379 . S
C1918 H1902 0.931 . S
C1918 C1912 1.383 . S
C1918 C1917 1.379 . S
H1919 C1913 0.959 . S
H1920 C1913 0.961 . S
H1921 C1913 0.960 . S
H1922 C1914 0.930 . S
H1923 C1915 0.929 . S
H1924 C1932 0.929 . S
H1925 C1934 0.930 . S
H1926 C1936 0.930 . S
H1927 C1939 0.929 . S
H1928 C1942 0.930 . S
H1929 C1944 0.960 . S
H1930 C1944 0.960 . S
H1931 C1944 0.960 . S
C1932 H1924 0.929 . S
C1932 C1933 1.377 . S
C1932 C1934 1.384 . S
C1933 C1932 1.377 . S
C1933 C1939 1.390 . S
C1934 H1925 0.930 . S
C1934 C1932 1.384 . S
C1934 C1935 1.372 . S
C1935 C1934 1.372 . S
C1935 C1936 1.400 . S
C1935 C1940 1.490 . S
C1936 H1926 0.930 . S
C1936 C1935 1.400 . S
C1936 C1939 1.386 . S
H1937 C1953 0.930 . S
H1938 C1954 0.931 . S
C1939 H1927 0.929 . S
C1939 C1933 1.390 . S
C1939 C1936 1.386 . S
C1940 C1935 1.490 . S
C1940 C1942 1.395 . S
C1940 C1943 1.403 . S
H1941 C1947 0.930 . S
C1942 H1928 0.930 . S
C1942 C1940 1.395 . S
C1942 C1945 1.403 . S
C1943 C1940 1.403 . S
C1943 C1944 1.524 . S
C1943 C1947 1.400 . S
C1944 H1929 0.960 . S
C1944 H1930 0.960 . S
C1944 H1931 0.960 . S
C1944 C1943 1.524 . S
C1945 C1942 1.403 . S
C1945 C1946 1.392 . S
C1945 C1949 1.495 . S
C1946 C1945 1.392 . S
C1946 C1947 1.385 . S
C1946 C1948 1.478 . S
C1947 H1941 0.930 . S
C1947 C1943 1.400 . S
C1947 C1946 1.385 . S
C1948 C1946 1.478 . S
C1948 C1950 1.381 . S
C1948 C1954 1.383 . S
C1949 C1945 1.495 . S
C1949 H1955 0.959 . S
C1949 H1956 0.961 . S
C1949 H1957 0.960 . S
C1950 C1948 1.381 . S
C1950 C1951 1.394 . S
C1950 H1958 0.930 . S
C1951 C1950 1.394 . S
C1951 C1952 1.383 . S
C1951 H1959 0.929 . S
C1952 C1951 1.383 . S
C1952 C1953 1.377 . S
C1953 H1937 0.930 . S
C1953 C1952 1.377 . S
C1953 C1954 1.379 . S
C1954 H1938 0.931 . S
C1954 C1948 1.383 . S
C1954 C1953 1.379 . S
H1955 C1949 0.959 . S
H1956 C1949 0.961 . S
H1957 C1949 0.960 . S
H1958 C1950 0.930 . S
H1959 C1951 0.929 . S
H1960 C1968 0.929 . S
H1961 C1970 0.930 . S
H1962 C1972 0.930 . S
H1963 C1975 0.929 . S
H1964 C1978 0.930 . S
H1965 C1980 0.960 . S
H1966 C1980 0.960 . S
H1967 C1980 0.960 . S
C1968 H1960 0.929 . S
C1968 C1969 1.377 . S
C1968 C1970 1.384 . S
C1969 C1968 1.377 . S
C1969 C1975 1.390 . S
C1970 H1961 0.930 . S
C1970 C1968 1.384 . S
C1970 C1971 1.372 . S
C1971 C1970 1.372 . S
C1971 C1972 1.400 . S
C1971 C1976 1.490 . S
C1972 H1962 0.930 . S
C1972 C1971 1.400 . S
C1972 C1975 1.386 . S
H1973 C1989 0.930 . S
H1974 C1990 0.931 . S
C1975 H1963 0.929 . S
C1975 C1969 1.390 . S
C1975 C1972 1.386 . S
C1976 C1971 1.490 . S
C1976 C1978 1.395 . S
C1976 C1979 1.403 . S
H1977 C1983 0.930 . S
C1978 H1964 0.930 . S
C1978 C1976 1.395 . S
C1978 C1981 1.403 . S
C1979 C1976 1.403 . S
C1979 C1980 1.524 . S
C1979 C1983 1.400 . S
C1980 H1965 0.960 . S
C1980 H1966 0.960 . S
C1980 H1967 0.960 . S
C1980 C1979 1.524 . S
C1981 C1978 1.403 . S
C1981 C1982 1.392 . S
C1981 C1985 1.495 . S
C1982 C1981 1.392 . S
C1982 C1983 1.385 . S
C1982 C1984 1.478 . S
C1983 H1977 0.930 . S
C1983 C1979 1.400 . S
C1983 C1982 1.385 . S
C1984 C1982 1.478 . S
C1984 C1986 1.381 . S
C1984 C1990 1.383 . S
C1985 C1981 1.495 . S
C1985 H1991 0.959 . S
C1985 H1992 0.961 . S
C1985 H1993 0.960 . S
C1986 C1984 1.381 . S
C1986 C1987 1.394 . S
C1986 H1994 0.930 . S
C1987 C1986 1.394 . S
C1987 C1988 1.383 . S
C1987 H1995 0.929 . S
C1988 C1987 1.383 . S
C1988 C1989 1.377 . S
C1989 H1973 0.930 . S
C1989 C1988 1.377 . S
C1989 C1990 1.379 . S
C1990 H1974 0.931 . S
C1990 C1984 1.383 . S
C1990 C1989 1.379 . S
H1991 C1985 0.959 . S
H1992 C1985 0.961 . S
H1993 C1985 0.960 . S
H1994 C1986 0.930 . S
H1995 C1987 0.929 . S
H1996 C2004 0.929 . S
H1997 C2006 0.930 . S
H1998 C2008 0.930 . S
H1999 C2011 0.929 . S
H2000 C2014 0.930 . S
H2001 C2016 0.960 . S
H2002 C2016 0.960 . S
H2003 C2016 0.960 . S
C2004 H1996 0.929 . S
C2004 C2005 1.377 . S
C2004 C2006 1.384 . S
C2005 C2004 1.377 . S
C2005 C2011 1.390 . S
C2006 H1997 0.930 . S
C2006 C2004 1.384 . S
C2006 C2007 1.372 . S
C2007 C2006 1.372 . S
C2007 C2008 1.400 . S
C2007 C2012 1.490 . S
C2008 H1998 0.930 . S
C2008 C2007 1.400 . S
C2008 C2011 1.386 . S
H2009 C2025 0.930 . S
H2010 C2026 0.931 . S
C2011 H1999 0.929 . S
C2011 C2005 1.390 . S
C2011 C2008 1.386 . S
C2012 C2007 1.490 . S
C2012 C2014 1.395 1_655 S
C2012 C2015 1.403 . S
H2013 C2019 0.934 1_554 S
C2014 H2000 0.930 . S
C2014 C2012 1.395 1_455 S
C2014 C2017 1.403 . S
C2015 C2012 1.403 . S
C2015 C2016 1.524 . S
C2015 C2019 1.430 . S
C2016 H2001 0.960 . S
C2016 H2002 0.960 . S
C2016 H2003 0.960 . S
C2016 C2015 1.524 . S
C2017 C2014 1.403 . S
C2017 C2018 1.392 . S
C2017 C2021 1.495 . S
C2018 C2017 1.392 . S
C2018 C2019 1.353 1_455 S
C2018 C2020 1.478 1_556 S
C2019 H2013 0.934 1_556 S
C2019 C2015 1.430 . S
C2019 C2018 1.353 1_655 S
C2020 C2018 1.478 1_554 S
C2020 C2022 1.381 . S
C2020 C2026 1.383 . S
C2021 C2017 1.495 . S
C2021 H2027 0.959 . S
C2021 H2028 0.961 . S
C2021 H2029 0.960 . S
C2022 C2020 1.381 . S
C2022 C2023 1.394 . S
C2022 H2030 0.930 . S
C2023 C2022 1.394 . S
C2023 C2024 1.383 . S
C2023 H2031 0.929 . S
C2024 C2023 1.383 . S
C2024 C2025 1.377 . S
C2025 H2009 0.930 . S
C2025 C2024 1.377 . S
C2025 C2026 1.379 . S
C2026 H2010 0.931 . S
C2026 C2020 1.383 . S
C2026 C2025 1.379 . S
H2027 C2021 0.959 . S
H2028 C2021 0.961 . S
H2029 C2021 0.960 . S
H2030 C2022 0.930 . S
H2031 C2023 0.929 . S
H2032 C2040 0.929 . S
H2033 C2042 0.930 . S
H2034 C2044 0.930 . S
H2035 C2047 0.929 . S
H2036 C2050 0.930 . S
H2037 C2052 0.960 . S
H2038 C2052 0.960 . S
H2039 C2052 0.960 . S
C2040 H2032 0.929 . S
C2040 C2041 1.377 . S
C2040 C2042 1.384 . S
C2041 C2040 1.377 . S
C2041 C2047 1.390 . S
C2042 H2033 0.930 . S
C2042 C2040 1.384 . S
C2042 C2043 1.372 . S
C2043 C2042 1.372 . S
C2043 C2044 1.400 . S
C2043 C2048 1.490 . S
C2044 H2034 0.930 . S
C2044 C2043 1.400 . S
C2044 C2047 1.386 . S
H2045 C2061 0.930 . S
H2046 C2062 0.931 . S
C2047 H2035 0.929 . S
C2047 C2041 1.390 . S
C2047 C2044 1.386 . S
C2048 C2043 1.490 . S
C2048 C2050 1.395 . S
C2048 C2051 1.403 . S
H2049 C2055 0.930 . S
C2050 H2036 0.930 . S
C2050 C2048 1.395 . S
C2050 C2053 1.403 . S
C2051 C2048 1.403 . S
C2051 C2052 1.524 . S
C2051 C2055 1.400 . S
C2052 H2037 0.960 . S
C2052 H2038 0.960 . S
C2052 H2039 0.960 . S
C2052 C2051 1.524 . S
C2053 C2050 1.403 . S
C2053 C2054 1.392 . S
C2053 C2057 1.495 . S
C2054 C2053 1.392 . S
C2054 C2055 1.385 . S
C2054 C2056 1.478 . S
C2055 H2049 0.930 . S
C2055 C2051 1.400 . S
C2055 C2054 1.385 . S
C2056 C2054 1.478 . S
C2056 C2058 1.381 . S
C2056 C2062 1.383 . S
C2057 C2053 1.495 . S
C2057 H2063 0.959 . S
C2057 H2064 0.961 . S
C2057 H2065 0.960 . S
C2058 C2056 1.381 . S
C2058 C2059 1.394 . S
C2058 H2066 0.930 . S
C2059 C2058 1.394 . S
C2059 C2060 1.383 . S
C2059 H2067 0.929 . S
C2060 C2059 1.383 . S
C2060 C2061 1.377 . S
C2061 H2045 0.930 . S
C2061 C2060 1.377 . S
C2061 C2062 1.379 . S
C2062 H2046 0.931 . S
C2062 C2056 1.383 . S
C2062 C2061 1.379 . S
H2063 C2057 0.959 . S
H2064 C2057 0.961 . S
H2065 C2057 0.960 . S
H2066 C2058 0.930 . S
H2067 C2059 0.929 . S
H2068 C2076 0.929 . S
H2069 C2078 0.930 . S
H2070 C2080 0.930 . S
H2071 C2083 0.929 . S
H2072 C2086 0.930 . S
H2073 C2088 0.960 . S
H2074 C2088 0.960 . S
H2075 C2088 0.960 . S
C2076 H2068 0.929 . S
C2076 C2077 1.377 . S
C2076 C2078 1.384 . S
C2077 C2076 1.377 . S
C2077 C2083 1.390 . S
C2078 H2069 0.930 . S
C2078 C2076 1.384 . S
C2078 C2079 1.372 . S
C2079 C2078 1.372 . S
C2079 C2080 1.400 . S
C2079 C2084 1.490 . S
C2080 H2070 0.930 . S
C2080 C2079 1.400 . S
C2080 C2083 1.386 . S
H2081 C2097 0.930 . S
H2082 C2098 0.931 . S
C2083 H2071 0.929 . S
C2083 C2077 1.390 . S
C2083 C2080 1.386 . S
C2084 C2079 1.490 . S
C2084 C2086 1.395 . S
C2084 C2087 1.403 1_655 S
H2085 C2091 0.930 . S
C2086 H2072 0.930 . S
C2086 C2084 1.395 . S
C2086 C2089 1.403 . S
C2087 C2084 1.403 1_455 S
C2087 C2088 1.524 . S
C2087 C2091 1.400 . S
C2088 H2073 0.960 . S
C2088 H2074 0.960 . S
C2088 H2075 0.960 . S
C2088 C2087 1.524 . S
C2089 C2086 1.403 . S
C2089 C2090 1.392 1_655 S
C2089 C2093 1.495 . S
C2090 C2089 1.392 1_455 S
C2090 C2091 1.385 . S
C2090 C2092 1.478 . S
C2091 H2085 0.930 . S
C2091 C2087 1.400 . S
C2091 C2090 1.385 . S
C2092 C2090 1.478 . S
C2092 C2094 1.381 . S
C2092 C2098 1.383 . S
C2093 C2089 1.495 . S
C2093 H2099 0.959 . S
C2093 H2100 0.961 . S
C2093 H2101 0.960 . S
C2094 C2092 1.381 . S
C2094 C2095 1.394 . S
C2094 H2102 0.930 . S
C2095 C2094 1.394 . S
C2095 C2096 1.383 . S
C2095 H2103 0.929 . S
C2096 C2095 1.383 . S
C2096 C2097 1.377 . S
C2097 H2081 0.930 . S
C2097 C2096 1.377 . S
C2097 C2098 1.379 . S
C2098 H2082 0.931 . S
C2098 C2092 1.383 . S
C2098 C2097 1.379 . S
H2099 C2093 0.959 . S
H2100 C2093 0.961 . S
H2101 C2093 0.960 . S
H2102 C2094 0.930 . S
H2103 C2095 0.929 . S
H2104 C2112 0.929 . S
H2105 C2114 0.930 . S
H2106 C2116 0.930 . S
H2107 C2119 0.929 . S
H2108 C2122 0.930 . S
H2109 C2124 0.960 . S
H2110 C2124 0.960 . S
H2111 C2124 0.960 . S
C2112 H2104 0.929 . S
C2112 C2113 1.377 . S
C2112 C2114 1.384 . S
C2113 C2112 1.377 . S
C2113 C2119 1.390 . S
C2114 H2105 0.930 . S
C2114 C2112 1.384 . S
C2114 C2115 1.372 . S
C2115 C2114 1.372 . S
C2115 C2116 1.400 . S
C2115 C2120 1.490 . S
C2116 H2106 0.930 . S
C2116 C2115 1.400 . S
C2116 C2119 1.386 . S
H2117 C2133 0.930 . S
H2118 C2134 0.931 . S
C2119 H2107 0.929 . S
C2119 C2113 1.390 . S
C2119 C2116 1.386 . S
C2120 C2115 1.490 . S
C2120 C2122 1.395 . S
C2120 C2123 1.403 . S
H2121 C2127 0.930 . S
C2122 H2108 0.930 . S
C2122 C2120 1.395 . S
C2122 C2125 1.403 . S
C2123 C2120 1.403 . S
C2123 C2124 1.524 . S
C2123 C2127 1.400 . S
C2124 H2109 0.960 . S
C2124 H2110 0.960 . S
C2124 H2111 0.960 . S
C2124 C2123 1.524 . S
C2125 C2122 1.403 . S
C2125 C2126 1.392 . S
C2125 C2129 1.495 . S
C2126 C2125 1.392 . S
C2126 C2127 1.385 . S
C2126 C2128 1.478 . S
C2127 H2121 0.930 . S
C2127 C2123 1.400 . S
C2127 C2126 1.385 . S
C2128 C2126 1.478 . S
C2128 C2130 1.381 . S
C2128 C2134 1.383 . S
C2129 C2125 1.495 . S
C2129 H2135 0.959 . S
C2129 H2136 0.961 . S
C2129 H2137 0.960 . S
C2130 C2128 1.381 . S
C2130 C2131 1.394 . S
C2130 H2138 0.930 . S
C2131 C2130 1.394 . S
C2131 C2132 1.383 . S
C2131 H2139 0.929 . S
C2132 C2131 1.383 . S
C2132 C2133 1.377 . S
C2133 H2117 0.930 . S
C2133 C2132 1.377 . S
C2133 C2134 1.379 . S
C2134 H2118 0.931 . S
C2134 C2128 1.383 . S
C2134 C2133 1.379 . S
H2135 C2129 0.959 . S
H2136 C2129 0.961 . S
H2137 C2129 0.960 . S
H2138 C2130 0.930 . S
H2139 C2131 0.929 . S
H2140 C2148 0.929 . S
H2141 C2150 0.930 . S
H2142 C2152 0.930 . S
H2143 C2155 0.929 . S
H2144 C2158 0.930 . S
H2145 C2160 0.960 1_556 S
H2146 C2160 0.960 . S
H2147 C2160 0.960 . S
C2148 H2140 0.929 . S
C2148 C2149 1.377 . S
C2148 C2150 1.384 . S
C2149 C2148 1.377 . S
C2149 C2155 1.390 . S
C2150 H2141 0.930 . S
C2150 C2148 1.384 . S
C2150 C2151 1.372 . S
C2151 C2150 1.372 . S
C2151 C2152 1.400 . S
C2151 C2156 1.490 . S
C2152 H2142 0.930 . S
C2152 C2151 1.400 . S
C2152 C2155 1.386 . S
H2153 C2169 0.930 . S
H2154 C2170 0.931 . S
C2155 H2143 0.929 . S
C2155 C2149 1.390 . S
C2155 C2152 1.386 . S
C2156 C2151 1.490 . S
C2156 C2158 1.395 . S
C2156 C2159 1.403 . S
H2157 C2163 0.930 1_556 S
C2158 H2144 0.930 . S
C2158 C2156 1.395 . S
C2158 C2161 1.403 . S
C2159 C2156 1.403 . S
C2159 C2160 1.524 . S
C2159 C2163 1.400 . S
C2160 H2145 0.960 1_554 S
C2160 H2146 0.960 . S
C2160 H2147 0.960 . S
C2160 C2159 1.524 . S
C2161 C2158 1.403 . S
C2161 C2162 1.392 . S
C2161 C2165 1.495 . S
C2162 C2161 1.392 . S
C2162 C2163 1.385 . S
C2162 C2164 1.478 1_554 S
C2163 H2157 0.930 1_554 S
C2163 C2159 1.400 . S
C2163 C2162 1.385 . S
C2164 C2162 1.478 1_556 S
C2164 C2166 1.381 . S
C2164 C2170 1.383 . S
C2165 C2161 1.495 . S
C2165 H2171 0.959 . S
C2165 H2172 0.961 . S
C2165 H2173 0.960 . S
C2166 C2164 1.381 . S
C2166 C2167 1.394 . S
C2166 H2174 0.930 . S
C2167 C2166 1.394 . S
C2167 C2168 1.383 . S
C2167 H2175 0.929 . S
C2168 C2167 1.383 . S
C2168 C2169 1.377 . S
C2169 H2153 0.930 . S
C2169 C2168 1.377 . S
C2169 C2170 1.379 . S
C2170 H2154 0.931 . S
C2170 C2164 1.383 . S
C2170 C2169 1.379 . S
H2171 C2165 0.959 . S
H2172 C2165 0.961 . S
H2173 C2165 0.960 . S
H2174 C2166 0.930 . S
H2175 C2167 0.929 . S
H2176 C2184 0.929 . S
H2177 C2186 0.930 . S
H2178 C2188 0.930 . S
H2179 C2191 0.929 . S
H2180 C2194 0.930 . S
H2181 C2196 0.960 . S
H2182 C2196 0.960 . S
H2183 C2196 0.960 . S
C2184 H2176 0.929 . S
C2184 C2185 1.377 . S
C2184 C2186 1.384 . S
C2185 C2184 1.377 . S
C2185 C2191 1.390 . S
C2186 H2177 0.930 . S
C2186 C2184 1.384 . S
C2186 C2187 1.372 . S
C2187 C2186 1.372 . S
C2187 C2188 1.400 . S
C2187 C2192 1.490 . S
C2188 H2178 0.930 . S
C2188 C2187 1.400 . S
C2188 C2191 1.386 . S
H2189 C2205 0.930 . S
H2190 C2206 0.931 . S
C2191 H2179 0.929 . S
C2191 C2185 1.390 . S
C2191 C2188 1.386 . S
C2192 C2187 1.490 . S
C2192 C2194 1.395 . S
C2192 C2195 1.403 . S
H2193 C2199 0.930 . S
C2194 H2180 0.930 . S
C2194 C2192 1.395 . S
C2194 C2197 1.403 . S
C2195 C2192 1.403 . S
C2195 C2196 1.524 . S
C2195 C2199 1.400 . S
C2196 H2181 0.960 . S
C2196 H2182 0.960 . S
C2196 H2183 0.960 . S
C2196 C2195 1.524 . S
C2197 C2194 1.403 . S
C2197 C2198 1.392 . S
C2197 C2201 1.495 . S
C2198 C2197 1.392 . S
C2198 C2199 1.385 . S
C2198 C2200 1.478 . S
C2199 H2193 0.930 . S
C2199 C2195 1.400 . S
C2199 C2198 1.385 . S
C2200 C2198 1.478 . S
C2200 C2202 1.381 . S
C2200 C2206 1.383 . S
C2201 C2197 1.495 . S
C2201 H2207 0.959 . S
C2201 H2208 0.961 . S
C2201 H2209 0.960 . S
C2202 C2200 1.381 . S
C2202 C2203 1.394 . S
C2202 H2210 0.930 . S
C2203 C2202 1.394 . S
C2203 C2204 1.383 . S
C2203 H2211 0.929 . S
C2204 C2203 1.383 . S
C2204 C2205 1.377 . S
C2205 H2189 0.930 . S
C2205 C2204 1.377 . S
C2205 C2206 1.379 . S
C2206 H2190 0.931 . S
C2206 C2200 1.383 . S
C2206 C2205 1.379 . S
H2207 C2201 0.959 . S
H2208 C2201 0.961 . S
H2209 C2201 0.960 . S
H2210 C2202 0.930 . S
H2211 C2203 0.929 . S
H2212 C2220 0.929 . S
H2213 C2222 0.930 . S
H2214 C2224 0.930 . S
H2215 C2227 0.929 . S
H2216 C2230 0.930 . S
H2217 C2232 0.960 . S
H2218 C2232 0.960 . S
H2219 C2232 0.960 . S
C2220 H2212 0.929 . S
C2220 C2221 1.377 . S
C2220 C2222 1.384 . S
C2221 C2220 1.377 . S
C2221 C2227 1.390 . S
C2222 H2213 0.930 . S
C2222 C2220 1.384 . S
C2222 C2223 1.372 . S
C2223 C2222 1.372 . S
C2223 C2224 1.400 . S
C2223 C2228 1.490 . S
C2224 H2214 0.930 . S
C2224 C2223 1.400 . S
C2224 C2227 1.386 . S
H2225 C2241 0.930 . S
H2226 C2242 0.931 . S
C2227 H2215 0.929 . S
C2227 C2221 1.390 . S
C2227 C2224 1.386 . S
C2228 C2223 1.490 . S
C2228 C2230 1.395 . S
C2228 C2231 1.403 . S
H2229 C2235 0.930 . S
C2230 H2216 0.930 . S
C2230 C2228 1.395 . S
C2230 C2233 1.403 . S
C2231 C2228 1.403 . S
C2231 C2232 1.524 . S
C2231 C2235 1.400 . S
C2232 H2217 0.960 . S
C2232 H2218 0.960 . S
C2232 H2219 0.960 . S
C2232 C2231 1.524 . S
C2233 C2230 1.403 . S
C2233 C2234 1.392 . S
C2233 C2237 1.495 . S
C2234 C2233 1.392 . S
C2234 C2235 1.385 . S
C2234 C2236 1.478 . S
C2235 H2229 0.930 . S
C2235 C2231 1.400 . S
C2235 C2234 1.385 . S
C2236 C2234 1.478 . S
C2236 C2238 1.381 . S
C2236 C2242 1.383 . S
C2237 C2233 1.495 . S
C2237 H2243 0.959 . S
C2237 H2244 0.961 . S
C2237 H2245 0.960 . S
C2238 C2236 1.381 . S
C2238 C2239 1.394 . S
C2238 H2246 0.930 . S
C2239 C2238 1.394 . S
C2239 C2240 1.383 . S
C2239 H2247 0.929 . S
C2240 C2239 1.383 . S
C2240 C2241 1.377 . S
C2241 H2225 0.930 . S
C2241 C2240 1.377 . S
C2241 C2242 1.379 . S
C2242 H2226 0.931 . S
C2242 C2236 1.383 . S
C2242 C2241 1.379 . S
H2243 C2237 0.959 . S
H2244 C2237 0.961 . S
H2245 C2237 0.960 . S
H2246 C2238 0.930 . S
H2247 C2239 0.929 . S
H2248 C2256 0.929 . S
H2249 C2258 0.930 . S
H2250 C2260 0.930 . S
H2251 C2263 0.929 . S
H2252 C2266 0.930 . S
H2253 C2268 0.960 . S
H2254 C2268 0.960 . S
H2255 C2268 0.960 . S
C2256 H2248 0.929 . S
C2256 C2257 1.377 . S
C2256 C2258 1.384 . S
C2257 C2256 1.377 . S
C2257 C2263 1.390 . S
C2258 H2249 0.930 . S
C2258 C2256 1.384 . S
C2258 C2259 1.372 . S
C2259 C2258 1.372 . S
C2259 C2260 1.400 . S
C2259 C2264 1.490 . S
C2260 H2250 0.930 . S
C2260 C2259 1.400 . S
C2260 C2263 1.386 . S
H2261 C2277 0.930 . S
H2262 C2278 0.931 . S
C2263 H2251 0.929 . S
C2263 C2257 1.390 . S
C2263 C2260 1.386 . S
C2264 C2259 1.490 . S
C2264 C2266 1.395 . S
C2264 C2267 1.403 . S
H2265 C2271 0.930 . S
C2266 H2252 0.930 . S
C2266 C2264 1.395 . S
C2266 C2269 1.403 . S
C2267 C2264 1.403 . S
C2267 C2268 1.524 . S
C2267 C2271 1.400 . S
C2268 H2253 0.960 . S
C2268 H2254 0.960 . S
C2268 H2255 0.960 . S
C2268 C2267 1.524 . S
C2269 C2266 1.403 . S
C2269 C2270 1.392 . S
C2269 C2273 1.495 . S
C2270 C2269 1.392 . S
C2270 C2271 1.385 . S
C2270 C2272 1.478 . S
C2271 H2265 0.930 . S
C2271 C2267 1.400 . S
C2271 C2270 1.385 . S
C2272 C2270 1.478 . S
C2272 C2274 1.381 . S
C2272 C2278 1.383 . S
C2273 C2269 1.495 . S
C2273 H2279 0.959 . S
C2273 H2280 0.961 . S
C2273 H2281 0.960 . S
C2274 C2272 1.381 . S
C2274 C2275 1.394 . S
C2274 H2282 0.930 . S
C2275 C2274 1.394 . S
C2275 C2276 1.383 . S
C2275 H2283 0.929 . S
C2276 C2275 1.383 . S
C2276 C2277 1.377 . S
C2277 H2261 0.930 . S
C2277 C2276 1.377 . S
C2277 C2278 1.379 . S
C2278 H2262 0.931 . S
C2278 C2272 1.383 . S
C2278 C2277 1.379 . S
H2279 C2273 0.959 . S
H2280 C2273 0.961 . S
H2281 C2273 0.960 . S
H2282 C2274 0.930 . S
H2283 C2275 0.929 . S
H2284 C2292 0.929 . S
H2285 C2294 0.930 . S
H2286 C2296 0.930 . S
H2287 C2299 0.929 . S
H2288 C2302 0.930 . S
H2289 C2304 0.960 . S
H2290 C2304 0.960 . S
H2291 C2304 0.960 . S
C2292 H2284 0.929 . S
C2292 C2293 1.377 . S
C2292 C2294 1.384 . S
C2293 C2292 1.377 . S
C2293 C2299 1.390 . S
C2294 H2285 0.930 . S
C2294 C2292 1.384 . S
C2294 C2295 1.372 . S
C2295 C2294 1.372 . S
C2295 C2296 1.400 . S
C2295 C2300 1.490 . S
C2296 H2286 0.930 . S
C2296 C2295 1.400 . S
C2296 C2299 1.386 . S
H2297 C2313 0.930 . S
H2298 C2314 0.931 . S
C2299 H2287 0.929 . S
C2299 C2293 1.390 . S
C2299 C2296 1.386 . S
C2300 C2295 1.490 . S
C2300 C2302 1.395 . S
C2300 C2303 1.403 . S
H2301 C2307 0.930 . S
C2302 H2288 0.930 . S
C2302 C2300 1.395 . S
C2302 C2305 1.403 . S
C2303 C2300 1.403 . S
C2303 C2304 1.524 . S
C2303 C2307 1.400 . S
C2304 H2289 0.960 . S
C2304 H2290 0.960 . S
C2304 H2291 0.960 . S
C2304 C2303 1.524 . S
C2305 C2302 1.403 . S
C2305 C2306 1.392 . S
C2305 C2309 1.495 . S
C2306 C2305 1.392 . S
C2306 C2307 1.385 . S
C2306 C2308 1.478 . S
C2307 H2301 0.930 . S
C2307 C2303 1.400 . S
C2307 C2306 1.385 . S
C2308 C2306 1.478 . S
C2308 C2310 1.381 . S
C2308 C2314 1.383 . S
C2309 C2305 1.495 . S
C2309 H2315 0.959 . S
C2309 H2316 0.961 . S
C2309 H2317 0.960 . S
C2310 C2308 1.381 . S
C2310 C2311 1.394 . S
C2310 H2318 0.930 . S
C2311 C2310 1.394 . S
C2311 C2312 1.383 . S
C2311 H2319 0.929 . S
C2312 C2311 1.383 . S
C2312 C2313 1.377 . S
C2313 H2297 0.930 . S
C2313 C2312 1.377 . S
C2313 C2314 1.379 . S
C2314 H2298 0.931 . S
C2314 C2308 1.383 . S
C2314 C2313 1.379 . S
H2315 C2309 0.959 . S
H2316 C2309 0.961 . S
H2317 C2309 0.960 . S
H2318 C2310 0.930 . S
H2319 C2311 0.929 . S
H2320 C2328 0.929 . S
H2321 C2330 0.930 . S
H2322 C2332 0.930 . S
H2323 C2335 0.929 . S
H2324 C2338 0.930 . S
H2325 C2340 0.960 . S
H2326 C2340 0.960 . S
H2327 C2340 0.960 . S
C2328 H2320 0.929 . S
C2328 C2329 1.377 . S
C2328 C2330 1.384 . S
C2329 C2328 1.377 . S
C2329 C2335 1.390 . S
C2330 H2321 0.930 . S
C2330 C2328 1.384 . S
C2330 C2331 1.372 . S
C2331 C2330 1.372 . S
C2331 C2332 1.400 . S
C2331 C2336 1.490 . S
C2332 H2322 0.930 . S
C2332 C2331 1.400 . S
C2332 C2335 1.386 . S
H2333 C2349 0.930 . S
H2334 C2350 0.931 . S
C2335 H2323 0.929 . S
C2335 C2329 1.390 . S
C2335 C2332 1.386 . S
C2336 C2331 1.490 . S
C2336 C2338 1.395 . S
C2336 C2339 1.403 . S
H2337 C2343 0.930 . S
C2338 H2324 0.930 . S
C2338 C2336 1.395 . S
C2338 C2341 1.403 . S
C2339 C2336 1.403 . S
C2339 C2340 1.524 . S
C2339 C2343 1.400 . S
C2340 H2325 0.960 . S
C2340 H2326 0.960 . S
C2340 H2327 0.960 . S
C2340 C2339 1.524 . S
C2341 C2338 1.403 . S
C2341 C2342 1.392 . S
C2341 C2345 1.495 . S
C2342 C2341 1.392 . S
C2342 C2343 1.385 . S
C2342 C2344 1.478 . S
C2343 H2337 0.930 . S
C2343 C2339 1.400 . S
C2343 C2342 1.385 . S
C2344 C2342 1.478 . S
C2344 C2346 1.381 . S
C2344 C2350 1.383 . S
C2345 C2341 1.495 . S
C2345 H2351 0.959 . S
C2345 H2352 0.961 . S
C2345 H2353 0.960 . S
C2346 C2344 1.381 . S
C2346 C2347 1.394 . S
C2346 H2354 0.930 . S
C2347 C2346 1.394 . S
C2347 C2348 1.383 . S
C2347 H2355 0.929 . S
C2348 C2347 1.383 . S
C2348 C2349 1.377 . S
C2349 H2333 0.930 . S
C2349 C2348 1.377 . S
C2349 C2350 1.379 . S
C2350 H2334 0.931 . S
C2350 C2344 1.383 . S
C2350 C2349 1.379 . S
H2351 C2345 0.959 . S
H2352 C2345 0.961 . S
H2353 C2345 0.960 . S
H2354 C2346 0.930 . S
H2355 C2347 0.929 . S
H2356 C2364 0.929 . S
H2357 C2366 0.930 . S
H2358 C2368 0.930 . S
H2359 C2371 0.929 . S
H2360 C2374 0.930 . S
H2361 C2376 0.960 . S
H2362 C2376 0.960 . S
H2363 C2376 0.960 . S
C2364 H2356 0.929 . S
C2364 C2365 1.377 . S
C2364 C2366 1.384 . S
C2365 C2364 1.377 . S
C2365 C2371 1.390 . S
C2366 H2357 0.930 . S
C2366 C2364 1.384 . S
C2366 C2367 1.372 . S
C2367 C2366 1.372 . S
C2367 C2368 1.400 . S
C2367 C2372 1.490 . S
C2368 H2358 0.930 . S
C2368 C2367 1.400 . S
C2368 C2371 1.386 . S
H2369 C2385 0.930 . S
H2370 C2386 0.931 . S
C2371 H2359 0.929 . S
C2371 C2365 1.390 . S
C2371 C2368 1.386 . S
C2372 C2367 1.490 . S
C2372 C2374 1.395 . S
C2372 C2375 1.403 . S
H2373 C2379 0.930 . S
C2374 H2360 0.930 . S
C2374 C2372 1.395 . S
C2374 C2377 1.403 . S
C2375 C2372 1.403 . S
C2375 C2376 1.524 . S
C2375 C2379 1.400 . S
C2376 H2361 0.960 . S
C2376 H2362 0.960 . S
C2376 H2363 0.960 . S
C2376 C2375 1.524 . S
C2377 C2374 1.403 . S
C2377 C2378 1.392 . S
C2377 C2381 1.495 . S
C2378 C2377 1.392 . S
C2378 C2379 1.385 . S
C2378 C2380 1.478 . S
C2379 H2373 0.930 . S
C2379 C2375 1.400 . S
C2379 C2378 1.385 . S
C2380 C2378 1.478 . S
C2380 C2382 1.381 . S
C2380 C2386 1.383 . S
C2381 C2377 1.495 . S
C2381 H2387 0.959 . S
C2381 H2388 0.961 . S
C2381 H2389 0.960 . S
C2382 C2380 1.381 . S
C2382 C2383 1.394 . S
C2382 H2390 0.930 . S
C2383 C2382 1.394 . S
C2383 C2384 1.383 . S
C2383 H2391 0.929 . S
C2384 C2383 1.383 . S
C2384 C2385 1.377 . S
C2385 H2369 0.930 . S
C2385 C2384 1.377 . S
C2385 C2386 1.379 . S
C2386 H2370 0.931 . S
C2386 C2380 1.383 . S
C2386 C2385 1.379 . S
H2387 C2381 0.959 . S
H2388 C2381 0.961 . S
H2389 C2381 0.960 . S
H2390 C2382 0.930 . S
H2391 C2383 0.929 . S
H2392 C2400 0.929 . S
H2393 C2402 0.930 . S
H2394 C2404 0.930 . S
H2395 C2407 0.929 . S
H2396 C2410 0.930 . S
H2397 C2412 0.960 . S
H2398 C2412 0.960 . S
H2399 C2412 0.960 . S
C2400 H2392 0.929 . S
C2400 C2401 1.377 . S
C2400 C2402 1.384 . S
C2401 C2400 1.377 . S
C2401 C2407 1.390 . S
C2402 H2393 0.930 . S
C2402 C2400 1.384 . S
C2402 C2403 1.372 . S
C2403 C2402 1.372 . S
C2403 C2404 1.400 . S
C2403 C2408 1.490 . S
C2404 H2394 0.930 . S
C2404 C2403 1.400 . S
C2404 C2407 1.386 . S
H2405 C2421 0.930 . S
H2406 C2422 0.931 . S
C2407 H2395 0.929 . S
C2407 C2401 1.390 . S
C2407 C2404 1.386 . S
C2408 C2403 1.490 . S
C2408 C2410 1.395 . S
C2408 C2411 1.403 . S
H2409 C2415 0.930 . S
C2410 H2396 0.930 . S
C2410 C2408 1.395 . S
C2410 C2413 1.403 . S
C2411 C2408 1.403 . S
C2411 C2412 1.524 . S
C2411 C2415 1.400 . S
C2412 H2397 0.960 . S
C2412 H2398 0.960 . S
C2412 H2399 0.960 . S
C2412 C2411 1.524 . S
C2413 C2410 1.403 . S
C2413 C2414 1.392 . S
C2413 C2417 1.495 . S
C2414 C2413 1.392 . S
C2414 C2415 1.385 . S
C2414 C2416 1.478 . S
C2415 H2409 0.930 . S
C2415 C2411 1.400 . S
C2415 C2414 1.385 . S
C2416 C2414 1.478 . S
C2416 C2418 1.381 . S
C2416 C2422 1.383 . S
C2417 C2413 1.495 . S
C2417 H2423 0.959 . S
C2417 H2424 0.961 . S
C2417 H2425 0.960 . S
C2418 C2416 1.381 . S
C2418 C2419 1.394 . S
C2418 H2426 0.930 . S
C2419 C2418 1.394 . S
C2419 C2420 1.383 . S
C2419 H2427 0.929 . S
C2420 C2419 1.383 . S
C2420 C2421 1.377 . S
C2421 H2405 0.930 . S
C2421 C2420 1.377 . S
C2421 C2422 1.379 . S
C2422 H2406 0.931 . S
C2422 C2416 1.383 . S
C2422 C2421 1.379 . S
H2423 C2417 0.959 . S
H2424 C2417 0.961 . S
H2425 C2417 0.960 . S
H2426 C2418 0.930 . S
H2427 C2419 0.929 . S
H2428 C2436 0.929 . S
H2429 C2438 0.930 . S
H2430 C2440 0.930 . S
H2431 C2443 0.929 . S
H2432 C2446 0.930 . S
H2433 C2448 0.960 . S
H2434 C2448 0.960 . S
H2435 C2448 0.960 . S
C2436 H2428 0.929 . S
C2436 C2437 1.377 . S
C2436 C2438 1.384 . S
C2437 C2436 1.377 . S
C2437 C2443 1.390 . S
C2438 H2429 0.930 . S
C2438 C2436 1.384 . S
C2438 C2439 1.372 . S
C2439 C2438 1.372 . S
C2439 C2440 1.400 . S
C2439 C2444 1.490 . S
C2440 H2430 0.930 . S
C2440 C2439 1.400 . S
C2440 C2443 1.386 . S
H2441 C2457 0.930 . S
H2442 C2458 0.931 . S
C2443 H2431 0.929 . S
C2443 C2437 1.390 . S
C2443 C2440 1.386 . S
C2444 C2439 1.490 . S
C2444 C2446 1.395 . S
C2444 C2447 1.403 . S
H2445 C2451 0.930 . S
C2446 H2432 0.930 . S
C2446 C2444 1.395 . S
C2446 C2449 1.403 . S
C2447 C2444 1.403 . S
C2447 C2448 1.524 . S
C2447 C2451 1.400 . S
C2448 H2433 0.960 . S
C2448 H2434 0.960 . S
C2448 H2435 0.960 . S
C2448 C2447 1.524 . S
C2449 C2446 1.403 . S
C2449 C2450 1.392 . S
C2449 C2453 1.495 . S
C2450 C2449 1.392 . S
C2450 C2451 1.385 . S
C2450 C2452 1.478 . S
C2451 H2445 0.930 . S
C2451 C2447 1.400 . S
C2451 C2450 1.385 . S
C2452 C2450 1.478 . S
C2452 C2454 1.381 . S
C2452 C2458 1.383 . S
C2453 C2449 1.495 . S
C2453 H2459 0.959 . S
C2453 H2460 0.961 . S
C2453 H2461 0.960 . S
C2454 C2452 1.381 . S
C2454 C2455 1.394 . S
C2454 H2462 0.930 . S
C2455 C2454 1.394 . S
C2455 C2456 1.383 . S
C2455 H2463 0.929 . S
C2456 C2455 1.383 . S
C2456 C2457 1.377 . S
C2457 H2441 0.930 . S
C2457 C2456 1.377 . S
C2457 C2458 1.379 . S
C2458 H2442 0.931 . S
C2458 C2452 1.383 . S
C2458 C2457 1.379 . S
H2459 C2453 0.959 . S
H2460 C2453 0.961 . S
H2461 C2453 0.960 . S
H2462 C2454 0.930 . S
H2463 C2455 0.929 . S
H2464 C2472 0.929 . S
H2465 C2474 0.930 . S
H2466 C2476 0.930 . S
H2467 C2479 0.929 . S
H2468 C2482 0.930 . S
H2469 C2484 0.960 . S
H2470 C2484 0.960 . S
H2471 C2484 0.960 . S
C2472 H2464 0.929 . S
C2472 C2473 1.377 . S
C2472 C2474 1.384 . S
C2473 C2472 1.377 . S
C2473 C2479 1.390 . S
C2474 H2465 0.930 . S
C2474 C2472 1.384 . S
C2474 C2475 1.372 . S
C2475 C2474 1.372 . S
C2475 C2476 1.400 . S
C2475 C2480 1.490 . S
C2476 H2466 0.930 . S
C2476 C2475 1.400 . S
C2476 C2479 1.386 . S
H2477 C2493 0.930 . S
H2478 C2494 0.931 . S
C2479 H2467 0.929 . S
C2479 C2473 1.390 . S
C2479 C2476 1.386 . S
C2480 C2475 1.490 . S
C2480 C2482 1.395 . S
C2480 C2483 1.403 . S
H2481 C2487 0.930 . S
C2482 H2468 0.930 . S
C2482 C2480 1.395 . S
C2482 C2485 1.403 . S
C2483 C2480 1.403 . S
C2483 C2484 1.524 . S
C2483 C2487 1.400 . S
C2484 H2469 0.960 . S
C2484 H2470 0.960 . S
C2484 H2471 0.960 . S
C2484 C2483 1.524 . S
C2485 C2482 1.403 . S
C2485 C2486 1.392 . S
C2485 C2489 1.495 . S
C2486 C2485 1.392 . S
C2486 C2487 1.385 . S
C2486 C2488 1.478 . S
C2487 H2481 0.930 . S
C2487 C2483 1.400 . S
C2487 C2486 1.385 . S
C2488 C2486 1.478 . S
C2488 C2490 1.381 . S
C2488 C2494 1.383 . S
C2489 C2485 1.495 . S
C2489 H2495 0.959 . S
C2489 H2496 0.961 . S
C2489 H2497 0.960 . S
C2490 C2488 1.381 . S
C2490 C2491 1.394 . S
C2490 H2498 0.930 . S
C2491 C2490 1.394 . S
C2491 C2492 1.383 . S
C2491 H2499 0.929 . S
C2492 C2491 1.383 . S
C2492 C2493 1.377 . S
C2493 H2477 0.930 . S
C2493 C2492 1.377 . S
C2493 C2494 1.379 . S
C2494 H2478 0.931 . S
C2494 C2488 1.383 . S
C2494 C2493 1.379 . S
H2495 C2489 0.959 . S
H2496 C2489 0.961 . S
H2497 C2489 0.960 . S
H2498 C2490 0.930 . S
H2499 C2491 0.929 . S
H2500 C2508 0.929 . S
H2501 C2510 0.930 . S
H2502 C2512 0.930 . S
H2503 C2515 0.929 . S
H2504 C2518 0.930 . S
H2505 C2520 0.960 . S
H2506 C2520 0.960 . S
H2507 C2520 0.960 . S
C2508 H2500 0.929 . S
C2508 C2509 1.377 . S
C2508 C2510 1.384 . S
C2509 C2508 1.377 . S
C2509 C2515 1.390 . S
C2510 H2501 0.930 . S
C2510 C2508 1.384 . S
C2510 C2511 1.372 . S
C2511 C2510 1.372 . S
C2511 C2512 1.400 . S
C2511 C2516 1.490 . S
C2512 H2502 0.930 . S
C2512 C2511 1.400 . S
C2512 C2515 1.386 . S
H2513 C2529 0.930 . S
H2514 C2530 0.931 . S
C2515 H2503 0.929 . S
C2515 C2509 1.390 . S
C2515 C2512 1.386 . S
C2516 C2511 1.490 . S
C2516 C2518 1.395 . S
C2516 C2519 1.403 . S
H2517 C2523 0.930 . S
C2518 H2504 0.930 . S
C2518 C2516 1.395 . S
C2518 C2521 1.403 . S
C2519 C2516 1.403 . S
C2519 C2520 1.524 . S
C2519 C2523 1.400 . S
C2520 H2505 0.960 . S
C2520 H2506 0.960 . S
C2520 H2507 0.960 . S
C2520 C2519 1.524 . S
C2521 C2518 1.403 . S
C2521 C2522 1.392 . S
C2521 C2525 1.495 . S
C2522 C2521 1.392 . S
C2522 C2523 1.385 . S
C2522 C2524 1.478 . S
C2523 H2517 0.930 . S
C2523 C2519 1.400 . S
C2523 C2522 1.385 . S
C2524 C2522 1.478 . S
C2524 C2526 1.381 . S
C2524 C2530 1.383 . S
C2525 C2521 1.495 . S
C2525 H2531 0.959 . S
C2525 H2532 0.961 . S
C2525 H2533 0.960 . S
C2526 C2524 1.381 . S
C2526 C2527 1.394 . S
C2526 H2534 0.930 . S
C2527 C2526 1.394 . S
C2527 C2528 1.383 . S
C2527 H2535 0.929 . S
C2528 C2527 1.383 . S
C2528 C2529 1.377 . S
C2529 H2513 0.930 . S
C2529 C2528 1.377 . S
C2529 C2530 1.379 . S
C2530 H2514 0.931 . S
C2530 C2524 1.383 . S
C2530 C2529 1.379 . S
H2531 C2525 0.959 . S
H2532 C2525 0.961 . S
H2533 C2525 0.960 . S
H2534 C2526 0.930 . S
H2535 C2527 0.929 . S
H2536 C2544 0.929 . S
H2537 C2546 0.930 . S
H2538 C2548 0.930 . S
H2539 C2551 0.929 . S
H2540 C2554 0.930 . S
H2541 C2556 0.960 . S
H2542 C2556 0.960 . S
H2543 C2556 0.960 . S
C2544 H2536 0.929 . S
C2544 C2545 1.377 . S
C2544 C2546 1.384 . S
C2545 C2544 1.377 . S
C2545 C2551 1.390 . S
C2546 H2537 0.930 . S
C2546 C2544 1.384 . S
C2546 C2547 1.372 . S
C2547 C2546 1.372 . S
C2547 C2548 1.400 . S
C2547 C2552 1.490 . S
C2548 H2538 0.930 . S
C2548 C2547 1.400 . S
C2548 C2551 1.386 . S
H2549 C2565 0.930 . S
H2550 C2566 0.931 . S
C2551 H2539 0.929 . S
C2551 C2545 1.390 . S
C2551 C2548 1.386 . S
C2552 C2547 1.490 . S
C2552 C2554 1.395 . S
C2552 C2555 1.403 . S
H2553 C2559 0.930 . S
C2554 H2540 0.930 . S
C2554 C2552 1.395 . S
C2554 C2557 1.403 . S
C2555 C2552 1.403 . S
C2555 C2556 1.524 . S
C2555 C2559 1.400 . S
C2556 H2541 0.960 . S
C2556 H2542 0.960 . S
C2556 H2543 0.960 . S
C2556 C2555 1.524 . S
C2557 C2554 1.403 . S
C2557 C2558 1.392 . S
C2557 C2561 1.495 . S
C2558 C2557 1.392 . S
C2558 C2559 1.385 . S
C2558 C2560 1.478 . S
C2559 H2553 0.930 . S
C2559 C2555 1.400 . S
C2559 C2558 1.385 . S
C2560 C2558 1.478 . S
C2560 C2562 1.381 . S
C2560 C2566 1.383 . S
C2561 C2557 1.495 . S
C2561 H2567 0.959 . S
C2561 H2568 0.961 . S
C2561 H2569 0.960 . S
C2562 C2560 1.381 . S
C2562 C2563 1.394 . S
C2562 H2570 0.930 . S
C2563 C2562 1.394 . S
C2563 C2564 1.383 . S
C2563 H2571 0.929 . S
C2564 C2563 1.383 . S
C2564 C2565 1.377 . S
C2565 H2549 0.930 . S
C2565 C2564 1.377 . S
C2565 C2566 1.379 . S
C2566 H2550 0.931 . S
C2566 C2560 1.383 . S
C2566 C2565 1.379 . S
H2567 C2561 0.959 . S
H2568 C2561 0.961 . S
H2569 C2561 0.960 . S
H2570 C2562 0.930 . S
H2571 C2563 0.929 . S
H2572 C2580 0.929 . S
H2573 C2582 0.930 . S
H2574 C2584 0.930 . S
H2575 C2587 0.929 . S
H2576 C2590 0.930 . S
H2577 C2592 0.960 . S
H2578 C2592 0.960 . S
H2579 C2592 0.960 . S
C2580 H2572 0.929 . S
C2580 C2581 1.377 . S
C2580 C2582 1.384 . S
C2581 C2580 1.377 . S
C2581 C2587 1.390 . S
C2582 H2573 0.930 . S
C2582 C2580 1.384 . S
C2582 C2583 1.372 . S
C2583 C2582 1.372 . S
C2583 C2584 1.400 . S
C2583 C2588 1.490 . S
C2584 H2574 0.930 . S
C2584 C2583 1.400 . S
C2584 C2587 1.386 . S
H2585 C2601 0.930 . S
H2586 C2602 0.931 . S
C2587 H2575 0.929 . S
C2587 C2581 1.390 . S
C2587 C2584 1.386 . S
C2588 C2583 1.490 . S
C2588 C2590 1.395 . S
C2588 C2591 1.403 . S
H2589 C2595 0.930 . S
C2590 H2576 0.930 . S
C2590 C2588 1.395 . S
C2590 C2593 1.403 . S
C2591 C2588 1.403 . S
C2591 C2592 1.524 . S
C2591 C2595 1.400 . S
C2592 H2577 0.960 . S
C2592 H2578 0.960 . S
C2592 H2579 0.960 . S
C2592 C2591 1.524 . S
C2593 C2590 1.403 . S
C2593 C2594 1.392 . S
C2593 C2597 1.495 . S
C2594 C2593 1.392 . S
C2594 C2595 1.385 . S
C2594 C2596 1.478 . S
C2595 H2589 0.930 . S
C2595 C2591 1.400 . S
C2595 C2594 1.385 . S
C2596 C2594 1.478 . S
C2596 C2598 1.381 . S
C2596 C2602 1.383 . S
C2597 C2593 1.495 . S
C2597 H2603 0.959 . S
C2597 H2604 0.961 . S
C2597 H2605 0.960 . S
C2598 C2596 1.381 . S
C2598 C2599 1.394 . S
C2598 H2606 0.930 . S
C2599 C2598 1.394 . S
C2599 C2600 1.383 . S
C2599 H2607 0.929 . S
C2600 C2599 1.383 . S
C2600 C2601 1.377 . S
C2601 H2585 0.930 . S
C2601 C2600 1.377 . S
C2601 C2602 1.379 . S
C2602 H2586 0.931 . S
C2602 C2596 1.383 . S
C2602 C2601 1.379 . S
H2603 C2597 0.959 . S
H2604 C2597 0.961 . S
H2605 C2597 0.960 . S
H2606 C2598 0.930 . S
H2607 C2599 0.929 . S
H2608 C2616 0.929 . S
H2609 C2618 0.930 . S
H2610 C2620 0.930 . S
H2611 C2623 0.929 . S
H2612 C2626 0.930 . S
H2613 C2628 0.960 . S
H2614 C2628 0.960 . S
H2615 C2628 0.960 . S
C2616 H2608 0.929 . S
C2616 C2617 1.377 . S
C2616 C2618 1.384 . S
C2617 C2616 1.377 . S
C2617 C2623 1.390 . S
C2618 H2609 0.930 . S
C2618 C2616 1.384 . S
C2618 C2619 1.372 . S
C2619 C2618 1.372 . S
C2619 C2620 1.400 . S
C2619 C2624 1.490 . S
C2620 H2610 0.930 . S
C2620 C2619 1.400 . S
C2620 C2623 1.386 . S
H2621 C2637 0.930 . S
H2622 C2638 0.931 . S
C2623 H2611 0.929 . S
C2623 C2617 1.390 . S
C2623 C2620 1.386 . S
C2624 C2619 1.490 . S
C2624 C2626 1.395 . S
C2624 C2627 1.403 . S
H2625 C2631 0.930 . S
C2626 H2612 0.930 . S
C2626 C2624 1.395 . S
C2626 C2629 1.403 . S
C2627 C2624 1.403 . S
C2627 C2628 1.524 . S
C2627 C2631 1.400 . S
C2628 H2613 0.960 . S
C2628 H2614 0.960 . S
C2628 H2615 0.960 . S
C2628 C2627 1.524 . S
C2629 C2626 1.403 . S
C2629 C2630 1.392 . S
C2629 C2633 1.495 . S
C2630 C2629 1.392 . S
C2630 C2631 1.385 . S
C2630 C2632 1.478 . S
C2631 H2625 0.930 . S
C2631 C2627 1.400 . S
C2631 C2630 1.385 . S
C2632 C2630 1.478 . S
C2632 C2634 1.381 . S
C2632 C2638 1.383 . S
C2633 C2629 1.495 . S
C2633 H2639 0.959 . S
C2633 H2640 0.961 . S
C2633 H2641 0.960 . S
C2634 C2632 1.381 . S
C2634 C2635 1.394 . S
C2634 H2642 0.930 . S
C2635 C2634 1.394 . S
C2635 C2636 1.383 . S
C2635 H2643 0.929 . S
C2636 C2635 1.383 . S
C2636 C2637 1.377 . S
C2637 H2621 0.930 . S
C2637 C2636 1.377 . S
C2637 C2638 1.379 . S
C2638 H2622 0.931 . S
C2638 C2632 1.383 . S
C2638 C2637 1.379 . S
H2639 C2633 0.959 . S
H2640 C2633 0.961 . S
H2641 C2633 0.960 . S
H2642 C2634 0.930 . S
H2643 C2635 0.929 . S
H2644 C2652 0.929 . S
H2645 C2654 0.930 . S
H2646 C2656 0.930 . S
H2647 C2659 0.929 . S
H2648 C2662 0.930 . S
H2649 C2664 0.960 . S
H2650 C2664 0.960 . S
H2651 C2664 0.960 . S
C2652 H2644 0.929 . S
C2652 C2653 1.377 . S
C2652 C2654 1.384 . S
C2653 C2652 1.377 . S
C2653 C2659 1.390 . S
C2654 H2645 0.930 . S
C2654 C2652 1.384 . S
C2654 C2655 1.372 . S
C2655 C2654 1.372 . S
C2655 C2656 1.400 . S
C2655 C2660 1.490 . S
C2656 H2646 0.930 . S
C2656 C2655 1.400 . S
C2656 C2659 1.386 . S
H2657 C2673 0.930 . S
H2658 C2674 0.931 . S
C2659 H2647 0.929 . S
C2659 C2653 1.390 . S
C2659 C2656 1.386 . S
C2660 C2655 1.490 . S
C2660 C2662 1.395 . S
C2660 C2663 1.403 . S
H2661 C2667 0.930 . S
C2662 H2648 0.930 . S
C2662 C2660 1.395 . S
C2662 C2665 1.403 . S
C2663 C2660 1.403 . S
C2663 C2664 1.524 . S
C2663 C2667 1.400 . S
C2664 H2649 0.960 . S
C2664 H2650 0.960 . S
C2664 H2651 0.960 . S
C2664 C2663 1.524 . S
C2665 C2662 1.403 . S
C2665 C2666 1.392 . S
C2665 C2669 1.495 . S
C2666 C2665 1.392 . S
C2666 C2667 1.385 . S
C2666 C2668 1.478 . S
C2667 H2661 0.930 . S
C2667 C2663 1.400 . S
C2667 C2666 1.385 . S
C2668 C2666 1.478 . S
C2668 C2670 1.381 . S
C2668 C2674 1.383 . S
C2669 C2665 1.495 . S
C2669 H2675 0.959 . S
C2669 H2676 0.961 . S
C2669 H2677 0.960 . S
C2670 C2668 1.381 . S
C2670 C2671 1.394 . S
C2670 H2678 0.930 . S
C2671 C2670 1.394 . S
C2671 C2672 1.383 . S
C2671 H2679 0.929 . S
C2672 C2671 1.383 . S
C2672 C2673 1.377 . S
C2673 H2657 0.930 . S
C2673 C2672 1.377 . S
C2673 C2674 1.379 . S
C2674 H2658 0.931 . S
C2674 C2668 1.383 . S
C2674 C2673 1.379 . S
H2675 C2669 0.959 . S
H2676 C2669 0.961 . S
H2677 C2669 0.960 . S
H2678 C2670 0.930 . S
H2679 C2671 0.929 . S
H2680 C2688 0.929 . S
H2681 C2690 0.930 . S
H2682 C2692 0.930 . S
H2683 C2695 0.929 . S
H2684 C2698 0.930 . S
H2685 C2700 0.960 . S
H2686 C2700 0.960 . S
H2687 C2700 0.960 . S
C2688 H2680 0.929 . S
C2688 C2689 1.377 . S
C2688 C2690 1.384 . S
C2689 C2688 1.377 . S
C2689 C2695 1.390 . S
C2690 H2681 0.930 . S
C2690 C2688 1.384 . S
C2690 C2691 1.372 . S
C2691 C2690 1.372 . S
C2691 C2692 1.400 . S
C2691 C2696 1.490 . S
C2692 H2682 0.930 . S
C2692 C2691 1.400 . S
C2692 C2695 1.386 . S
H2693 C2709 0.930 . S
H2694 C2710 0.931 . S
C2695 H2683 0.929 . S
C2695 C2689 1.390 . S
C2695 C2692 1.386 . S
C2696 C2691 1.490 . S
C2696 C2698 1.395 . S
C2696 C2699 1.403 . S
H2697 C2703 0.930 . S
C2698 H2684 0.930 . S
C2698 C2696 1.395 . S
C2698 C2701 1.403 . S
C2699 C2696 1.403 . S
C2699 C2700 1.524 . S
C2699 C2703 1.400 . S
C2700 H2685 0.960 . S
C2700 H2686 0.960 . S
C2700 H2687 0.960 . S
C2700 C2699 1.524 . S
C2701 C2698 1.403 . S
C2701 C2702 1.392 . S
C2701 C2705 1.495 . S
C2702 C2701 1.392 . S
C2702 C2703 1.385 . S
C2702 C2704 1.478 . S
C2703 H2697 0.930 . S
C2703 C2699 1.400 . S
C2703 C2702 1.385 . S
C2704 C2702 1.478 . S
C2704 C2706 1.381 . S
C2704 C2710 1.383 . S
C2705 C2701 1.495 . S
C2705 H2711 0.959 . S
C2705 H2712 0.961 . S
C2705 H2713 0.960 . S
C2706 C2704 1.381 . S
C2706 C2707 1.394 . S
C2706 H2714 0.930 . S
C2707 C2706 1.394 . S
C2707 C2708 1.383 . S
C2707 H2715 0.929 . S
C2708 C2707 1.383 . S
C2708 C2709 1.377 . S
C2709 H2693 0.930 . S
C2709 C2708 1.377 . S
C2709 C2710 1.379 . S
C2710 H2694 0.931 . S
C2710 C2704 1.383 . S
C2710 C2709 1.379 . S
H2711 C2705 0.959 . S
H2712 C2705 0.961 . S
H2713 C2705 0.960 . S
H2714 C2706 0.930 . S
H2715 C2707 0.929 . S
H2716 C2724 0.929 . S
H2717 C2726 0.930 . S
H2718 C2728 0.930 . S
H2719 C2731 0.929 . S
H2720 C2734 0.930 . S
H2721 C2736 0.960 . S
H2722 C2736 0.960 . S
H2723 C2736 0.960 . S
C2724 H2716 0.929 . S
C2724 C2725 1.377 . S
C2724 C2726 1.384 . S
C2725 C2724 1.377 . S
C2725 C2731 1.390 . S
C2726 H2717 0.930 . S
C2726 C2724 1.384 . S
C2726 C2727 1.372 . S
C2727 C2726 1.372 . S
C2727 C2728 1.400 . S
C2727 C2732 1.490 . S
C2728 H2718 0.930 . S
C2728 C2727 1.400 . S
C2728 C2731 1.386 . S
H2729 C2745 0.930 . S
H2730 C2746 0.931 . S
C2731 H2719 0.929 . S
C2731 C2725 1.390 . S
C2731 C2728 1.386 . S
C2732 C2727 1.490 . S
C2732 C2734 1.395 . S
C2732 C2735 1.403 . S
H2733 C2739 0.930 . S
C2734 H2720 0.930 . S
C2734 C2732 1.395 . S
C2734 C2737 1.403 . S
C2735 C2732 1.403 . S
C2735 C2736 1.524 . S
C2735 C2739 1.400 . S
C2736 H2721 0.960 . S
C2736 H2722 0.960 . S
C2736 H2723 0.960 . S
C2736 C2735 1.524 . S
C2737 C2734 1.403 . S
C2737 C2738 1.392 . S
C2737 C2741 1.495 . S
C2738 C2737 1.392 . S
C2738 C2739 1.385 . S
C2738 C2740 1.478 . S
C2739 H2733 0.930 . S
C2739 C2735 1.400 . S
C2739 C2738 1.385 . S
C2740 C2738 1.478 . S
C2740 C2742 1.381 . S
C2740 C2746 1.383 . S
C2741 C2737 1.495 . S
C2741 H2747 0.959 . S
C2741 H2748 0.961 . S
C2741 H2749 0.960 . S
C2742 C2740 1.381 . S
C2742 C2743 1.394 . S
C2742 H2750 0.930 . S
C2743 C2742 1.394 . S
C2743 C2744 1.383 . S
C2743 H2751 0.929 . S
C2744 C2743 1.383 . S
C2744 C2745 1.377 . S
C2745 H2729 0.930 . S
C2745 C2744 1.377 . S
C2745 C2746 1.379 . S
C2746 H2730 0.931 . S
C2746 C2740 1.383 . S
C2746 C2745 1.379 . S
H2747 C2741 0.959 . S
H2748 C2741 0.961 . S
H2749 C2741 0.960 . S
H2750 C2742 0.930 . S
H2751 C2743 0.929 . S
C457 C88 1.004 . S
C476 C4 1.004 . S
C493 C18 1.001 . S
C512 C102 0.994 . S
C529 C60 1.009 . S
C548 C32 1.026 . S
C565 C46 1.000 . S
C584 C74 0.980 . S
C601 C200 1.007 . S
C620 C116 1.025 . S
C637 C214 1.000 . S
C656 C130 1.019 . S
C673 C144 1.007 . S
C692 C172 0.981 . S
C709 C158 1.008 . S
C728 C186 1.017 . S
C745 C228 1.009 . S
C764 C312 1.023 . S
C781 C242 1.008 . S
C800 C326 1.014 . S
C817 C284 1.009 . S
C836 C256 1.013 . S
C853 C298 1.000 . S
C872 C270 0.987 . S
C889 C340 1.003 . S
C908 C424 0.982 . S
C925 C438 1.007 . S
C944 C354 0.983 . S
C961 C396 1.005 . S
C980 C368 1.027 . S
C997 C382 1.002 . S
C1016 C410 0.984 . S
C1033 C5 1.212 . S
C1052 C432 1.364 . S
C1069 C222 1.372 . S
C1088 C19 1.201 . S
C1105 C33 1.208 . S
C1124 C404 1.365 . S
C1141 C47 1.210 . S
C1160 C194 1.364 . S
C1177 C376 1.371 . S
C1196 C61 1.171 . S
C1213 C166 1.372 . S
C1232 C75 1.206 . S
C1249 C89 1.211 . S
C1268 C348 1.368 . S
C1285 C138 1.371 . S
C1304 C103 1.231 . S
C1321 C117 1.214 . S
C1340 C320 1.371 . S
C1357 C110 1.372 . S
C1376 C131 1.208 . S
C1393 C145 1.209 . S
C1412 C292 1.372 . S
C1429 C159 1.223 . S
C1448 C82 1.366 . S
C1465 C264 1.372 . S
C1484 C173 1.175 . S
C1501 C187 1.224 . S
C1520 C54 1.366 . S
C1537 C201 1.224 . S
C1556 C236 1.368 . S
C1573 C26 1.370 . S
C1592 C215 1.258 . S
C1609 C229 1.229 . S
C1628 C208 1.372 . S
C1645 C243 1.208 . S
C1664 C446 1.364 . S
C1681 C180 1.372 . S
C1700 C257 1.260 . S
C1717 C271 1.210 . S
C1736 C418 1.368 . S
C1753 C152 1.372 . S
C1772 C285 1.181 . S
C1789 C390 1.371 . S
C1808 C299 1.211 . S
C1825 C124 1.370 . S
C1844 C313 1.231 . S
C1861 C362 1.371 . S
C1880 C327 1.179 . S
C1897 C341 1.218 . S
C1916 C96 1.370 . S
C1933 C334 1.371 . S
C1952 C355 1.207 . S
C1969 C68 1.372 . S
C1988 C369 1.165 . S
C2005 C383 1.222 . S
C2024 C306 1.369 . S
C2041 C397 1.229 . S
C2060 C40 1.365 . S
C2077 C411 1.221 . S
C2096 C278 1.366 . S
C2113 C12 1.370 . S
C2132 C425 1.253 . S
C2149 C439 1.210 . S
C2168 C250 1.373 . S
C2185 C11 1.066 . S
C2204 C305 1.034 . S
C2221 C319 1.064 . S
C2240 C25 1.031 . S
C2257 C39 1.072 . S
C2276 C333 1.062 . S
C2293 C291 1.059 . S
C2312 C53 1.054 . S
C2329 C277 1.060 . S
C2348 C67 1.031 . S
C2365 C235 1.063 . S
C2384 C81 1.029 . S
C2401 C249 1.071 . S
C2420 C95 1.099 . S
C2437 C263 1.072 . S
C2456 C109 1.060 . S
C2473 C123 1.059 . S
C2492 C417 1.064 . S
C2509 C431 1.061 . S
C2528 C137 1.043 . S
C2545 C445 1.074 . S
C2564 C151 1.082 . S
C2581 C403 1.060 . S
C2600 C165 1.074 . S
C2617 C389 1.065 . S
C2636 C179 1.030 . S
C2653 C347 1.060 . S
C2672 C193 1.073 . S
C2689 C207 1.062 . S
C2708 C361 1.029 . S
C2725 C221 1.059 . S
C2744 C375 1.064 . S
