# Generated by pormake.
# Topology sra, (4)-cn, num edge types: 1
# Building blocks:
#     Node 0, Type 0, BuildingBlock: AZAVOO_clean_sbu_0, # of connection points: 4
#     Node 1, Type 0, BuildingBlock: AZAVOO_clean_sbu_0, # of connection points: 4
#     Node 2, Type 0, BuildingBlock: AZAVOO_clean_sbu_0, # of connection points: 4
#     Node 3, Type 0, BuildingBlock: AZAVOO_clean_sbu_0, # of connection points: 4
#     Node 4, Type 0, BuildingBlock: AZAVOO_clean_sbu_0, # of connection points: 4
#     Node 5, Type 0, BuildingBlock: AZAVOO_clean_sbu_0, # of connection points: 4
#     Node 6, Type 0, BuildingBlock: AZAVOO_clean_sbu_0, # of connection points: 4
#     Node 7, Type 0, BuildingBlock: AZAVOO_clean_sbu_0, # of connection points: 4
#     Edge 8, Type (0, 0), BuildingBlock: CIFDUS_clean_linker_0, # of connection points: 2
#     Edge 9, Type (0, 0), BuildingBlock: CIFDUS_clean_linker_0, # of connection points: 2
#     Edge 10, Type (0, 0), BuildingBlock: CIFDUS_clean_linker_0, # of connection points: 2
#     Edge 11, Type (0, 0), BuildingBlock: CIFDUS_clean_linker_0, # of connection points: 2
#     Edge 12, Type (0, 0), BuildingBlock: CIFDUS_clean_linker_0, # of connection points: 2
#     Edge 13, Type (0, 0), BuildingBlock: CIFDUS_clean_linker_0, # of connection points: 2
#     Edge 14, Type (0, 0), BuildingBlock: CIFDUS_clean_linker_0, # of connection points: 2
#     Edge 15, Type (0, 0), BuildingBlock: CIFDUS_clean_linker_0, # of connection points: 2
#     Edge 16, Type (0, 0), BuildingBlock: CIFDUS_clean_linker_0, # of connection points: 2
#     Edge 17, Type (0, 0), BuildingBlock: CIFDUS_clean_linker_0, # of connection points: 2
#     Edge 18, Type (0, 0), BuildingBlock: CIFDUS_clean_linker_0, # of connection points: 2
#     Edge 19, Type (0, 0), BuildingBlock: CIFDUS_clean_linker_0, # of connection points: 2
#     Edge 20, Type (0, 0), BuildingBlock: CIFDUS_clean_linker_0, # of connection points: 2
#     Edge 21, Type (0, 0), BuildingBlock: CIFDUS_clean_linker_0, # of connection points: 2
#     Edge 22, Type (0, 0), BuildingBlock: CIFDUS_clean_linker_0, # of connection points: 2
#     Edge 23, Type (0, 0), BuildingBlock: CIFDUS_clean_linker_0, # of connection points: 2
# Relax obj value: 0.076
# Max RMSD: 0.075
# Mean RMSD: 0.075
data_MOF--net-sra--node1-AZAVOO_clean_sbu_0--edge1-CIFDUS_clean_linker_0
_symmetry_space_group_name_H-M    P1
_symmetry_Int_Tables_number       1
_symmetry_cell_setting            triclinic
loop_
_symmetry_equiv_pos_as_xyz
'x, y, z'
_cell_length_a     23.875289
_cell_length_b     34.067579
_cell_length_c     39.335526
_cell_angle_alpha  90.222178
_cell_angle_beta   90.541953
_cell_angle_gamma 89.805039
loop_
_atom_site_label
_atom_site_type_symbol
_atom_site_fract_x
_atom_site_fract_y
_atom_site_fract_z
_atom_type_partial_charge
Mg0 Mg 0.01427 0.03623 0.16154 0.0
O1 O 0.01023 0.10121 0.147 0.0
O2 O 0.091 0.11765 0.12264 0.0
Mg3 Mg 0.14436 0.06205 0.11866 0.0
C4 C 0.04235 0.1265 0.13349 0.0
C5 C 0.91027 0.02196 0.20272 0.0
O6 O 0.9499 0.00332 0.2196 0.0
O7 O -0.00316 0.01802 0.10683 0.0
O8 O 0.07935 0.03261 0.08338 0.0
O9 O 0.05561 0.05199 0.21035 0.0
O10 O 0.10158 0.03823 0.16324 0.0
C11 C 0.0296 0.01904 0.08145 0.0
C12 C 0.10277 0.04945 0.19454 0.0
O13 O 0.9224 0.03837 0.17482 0.0
Mg14 Mg 0.01716 0.44815 0.16779 0.0
O15 O 0.02029 0.38265 0.15451 0.0
O16 O 0.9432 0.36716 0.12475 0.0
Mg17 Mg 0.89106 0.423 0.1179 0.0
C18 C -0.01026 0.35771 0.13875 0.0
C19 C 0.11988 0.46159 0.21468 0.0
O20 O 0.07986 0.48063 0.23054 0.0
O21 O 0.04174 0.46373 0.11309 0.0
O22 O 0.96027 0.45105 0.08651 0.0
O23 O 0.96654 0.43619 0.21452 0.0
O24 O 0.9293 0.4478 0.16412 0.0
C25 C 0.01069 0.46337 0.08645 0.0
C26 C 0.92215 0.43915 0.19555 0.0
O27 O 0.10842 0.445 0.18643 0.0
Mg28 Mg 0.02852 0.96238 0.80859 0.0
O29 O 0.02219 0.89521 0.81192 0.0
O30 O 0.09749 0.87198 0.83943 0.0
Mg31 Mg 0.14972 0.92457 0.8564 0.0
C32 C 0.05117 0.86667 0.82368 0.0
C33 C 0.92807 0.98301 0.76139 0.0
O34 O 0.96899 0.00141 0.74613 0.0
O35 O 0.0012 0.9683 0.8637 0.0
O36 O 0.07763 0.94519 0.89046 0.0
O37 O 0.08091 0.95784 0.76209 0.0
O38 O 0.11545 0.9597 0.81431 0.0
C39 C 0.02815 0.95966 0.89086 0.0
C40 C 0.12414 0.9567 0.7822 0.0
O41 O 0.93864 0.96448 0.78872 0.0
Mg42 Mg 0.00116 0.5418 0.82537 0.0
O43 O 0.00836 0.60907 0.82398 0.0
O44 O 0.92723 0.63528 0.84079 0.0
Mg45 Mg 0.87016 0.58493 0.85617 0.0
C46 C 0.97717 0.63879 0.82996 0.0
C47 C 0.1118 0.55026 0.78719 0.0
O48 O 0.07568 0.56774 0.76685 0.0
O49 O 0.01403 0.54286 0.88296 0.0
O50 O 0.93228 0.56882 0.89916 0.0
O51 O 0.96291 0.54126 0.77355 0.0
O52 O 0.91391 0.54576 0.8207 0.0
C53 C 0.98075 0.5547 0.9061 0.0
C54 C 0.91485 0.54578 0.78797 0.0
O55 O 0.0947 0.53656 0.81526 0.0
Mg56 Mg 0.52484 0.5509 0.66568 0.0
O57 O 0.52177 0.61812 0.66268 0.0
O58 O 0.60476 0.64068 0.64599 0.0
Mg59 Mg 0.65952 0.58712 0.63498 0.0
C60 C 0.55442 0.64642 0.65547 0.0
C61 C 0.41393 0.53706 0.7025 0.0
O62 O 0.45085 0.52152 0.72349 0.0
O63 O 0.51479 0.54691 0.60789 0.0
O64 O 0.59849 0.56951 0.59198 0.0
O65 O 0.5614 0.5541 0.71806 0.0
O66 O 0.61192 0.55195 0.67139 0.0
C67 C 0.54978 0.5561 0.58489 0.0
C68 C 0.61015 0.55475 0.704 0.0
O69 O 0.43071 0.55094 0.67443 0.0
Mg70 Mg 0.50755 0.97165 0.65487 0.0
O71 O 0.51376 0.90435 0.65403 0.0
O72 O 0.43687 0.87959 0.62948 0.0
Mg73 Mg 0.38361 0.93116 0.61119 0.0
C74 C 0.48415 0.87518 0.64437 0.0
C75 C 0.60977 0.95592 0.701 0.0
O76 O 0.56979 0.93638 0.71612 0.0
O77 O 0.53241 0.97409 0.59875 0.0
O78 O 0.45373 0.94988 0.57566 0.0
O79 O 0.45625 0.96975 0.70242 0.0
O80 O 0.42046 0.96888 0.65057 0.0
C81 C 0.503 0.96397 0.57285 0.0
C82 C 0.41261 0.96728 0.68277 0.0
O83 O 0.59821 0.9743 0.67372 0.0
Mg84 Mg 0.53841 0.44612 0.32391 0.0
O85 O 0.54009 0.37958 0.33398 0.0
O86 O 0.61842 0.36617 0.36345 0.0
Mg87 Mg 0.66515 0.42331 0.37404 0.0
C88 C 0.57327 0.35529 0.3486 0.0
C89 C 0.43527 0.42333 0.27813 0.0
O90 O 0.47513 0.40347 0.26289 0.0
O91 O 0.5116 0.45834 0.37877 0.0
O92 O 0.59281 0.44713 0.40613 0.0
O93 O 0.59062 0.43785 0.27724 0.0
O94 O 0.62599 0.44832 0.32838 0.0
C95 C 0.54143 0.45762 0.40588 0.0
C96 C 0.63436 0.441 0.29675 0.0
O97 O 0.44737 0.44287 0.30484 0.0
Mg98 Mg 0.49834 0.04845 0.30492 0.0
O99 O 0.4939 0.11363 0.32001 0.0
O100 O 0.40965 0.12376 0.34302 0.0
Mg101 Mg 0.36109 0.06597 0.34288 0.0
C102 C 0.45746 0.13618 0.33363 0.0
C103 C 0.62372 0.02428 0.30477 0.0
O104 O 0.60336 0.99546 0.32293 0.0
O105 O 0.51171 0.03116 0.36036 0.0
O106 O 0.42401 0.03691 0.37944 0.0
O107 O 0.46081 0.0613 0.254 0.0
O108 O 0.41167 0.04708 0.29959 0.0
C109 C 0.4753 0.02714 0.38356 0.0
C110 C 0.41245 0.05717 0.26809 0.0
O111 O 0.59149 0.05197 0.29531 0.0
H112 H 0.92521 0.29275 0.13126 0.0
H113 H 0.09695 0.33013 0.14233 0.0
H114 H 0.12855 0.26189 0.13962 0.0
H115 H 0.10723 0.19156 0.13547 0.0
H116 H 0.93515 0.15389 0.12866 0.0
H117 H 0.90376 0.22231 0.12818 0.0
C118 C 0.96957 0.28594 0.13288 0.0
C119 C 0.0087 0.31642 0.13685 0.0
C120 C 0.98733 0.24663 0.13208 0.0
C121 C 0.06599 0.30716 0.13939 0.0
C122 C 0.0841 0.26818 0.13776 0.0
C123 C 0.06289 0.19837 0.13356 0.0
C124 C 0.02355 0.1678 0.13185 0.0
C125 C 0.04513 0.23768 0.13426 0.0
C126 C 0.96619 0.17698 0.13001 0.0
C127 C 0.94825 0.21605 0.12973 0.0
H128 H 0.11017 0.79834 0.82625 0.0
H129 H 0.94251 0.8443 0.81404 0.0
H130 H 0.90496 0.7777 0.81379 0.0
H131 H 0.91926 0.70665 0.82016 0.0
H132 H 0.08716 0.66047 0.83013 0.0
H133 H 0.12509 0.72693 0.82791 0.0
C134 C 0.06543 0.79376 0.82337 0.0
C135 C 0.02916 0.82625 0.82052 0.0
C136 C 0.04415 0.75538 0.82295 0.0
C137 C 0.97137 0.81982 0.81628 0.0
C138 C 0.94982 0.78174 0.81627 0.0
C139 C 0.96418 0.71113 0.8217 0.0
C140 C 0.00027 0.67871 0.8257 0.0
C141 C 0.98574 0.74936 0.82009 0.0
C142 C 0.05843 0.68492 0.8271 0.0
C143 C 0.08016 0.72292 0.82595 0.0
H144 H 0.61391 0.71437 0.65926 0.0
H145 H 0.44502 0.66976 0.65354 0.0
H146 H 0.40838 0.73662 0.65036 0.0
H147 H 0.42443 0.80756 0.64654 0.0
H148 H 0.59287 0.85251 0.65446 0.0
H149 H 0.62947 0.7857 0.6596 0.0
C150 C 0.56907 0.71928 0.65746 0.0
C151 C 0.53233 0.68708 0.65633 0.0
C152 C 0.54819 0.75784 0.65592 0.0
C153 C 0.47428 0.69399 0.65447 0.0
C154 C 0.45326 0.73222 0.65252 0.0
C155 C 0.46915 0.80274 0.64946 0.0
C156 C 0.5059 0.83493 0.64972 0.0
C157 C 0.48986 0.76432 0.65277 0.0
C158 C 0.56366 0.82824 0.65411 0.0
C159 C 0.58465 0.79004 0.65696 0.0
H160 H 0.47083 0.32105 0.34253 0.0
H161 H 0.64709 0.29434 0.35182 0.0
H162 H 0.62707 0.22425 0.34778 0.0
H163 H 0.55961 0.17043 0.34069 0.0
H164 H 0.38292 0.19684 0.33493 0.0
H165 H 0.40292 0.267 0.33862 0.0
C166 C 0.50479 0.29985 0.34367 0.0
C167 C 0.56033 0.31288 0.34729 0.0
C168 C 0.49292 0.25951 0.34199 0.0
C169 C 0.60391 0.28507 0.34916 0.0
C170 C 0.59255 0.24497 0.34675 0.0
C171 C 0.52554 0.19157 0.34028 0.0
C172 C 0.46994 0.17848 0.33736 0.0
C173 C 0.53725 0.23185 0.34302 0.0
C174 C 0.42612 0.20617 0.33729 0.0
C175 C 0.4375 0.24631 0.33927 0.0
H176 H 0.30874 0.07276 0.29252 0.0
H177 H 0.39851 0.05275 0.1994 0.0
H178 H 0.31002 0.05141 0.16762 0.0
H179 H 0.20733 0.04923 0.16757 0.0
H180 H 0.11813 0.06974 0.261 0.0
H181 H 0.20674 0.07744 0.29159 0.0
C182 C 0.30914 0.06832 0.26532 0.0
C183 C 0.36 0.06215 0.24847 0.0
C184 C 0.25829 0.06737 0.24735 0.0
C185 C 0.35978 0.05743 0.21298 0.0
C186 C 0.30922 0.05645 0.19483 0.0
C187 C 0.20712 0.05601 0.19448 0.0
C188 C 0.15616 0.05856 0.212 0.0
C189 C 0.25819 0.06038 0.21193 0.0
C190 C 0.15678 0.06739 0.24693 0.0
C191 C 0.20741 0.07175 0.26447 0.0
H192 H 0.66524 0.43085 0.23093 0.0
H193 H 0.73329 0.44194 0.33253 0.0
H194 H 0.82798 0.43827 0.31049 0.0
H195 H 0.89204 0.43644 0.262 0.0
H196 H 0.82344 0.431 0.16022 0.0
H197 H 0.7292 0.42767 0.18261 0.0
C198 C 0.70075 0.43208 0.2483 0.0
C199 C 0.69185 0.43631 0.2834 0.0
C200 C 0.75539 0.43112 0.23536 0.0
C201 C 0.73851 0.43821 0.30546 0.0
C202 C 0.79294 0.43633 0.29285 0.0
C203 C 0.85653 0.43402 0.24472 0.0
C204 C 0.86519 0.43371 0.20942 0.0
C205 C 0.80192 0.43335 0.25779 0.0
C206 C 0.81851 0.43105 0.18745 0.0
C207 C 0.76427 0.42931 0.20026 0.0
H208 H 0.15574 0.95571 0.71619 0.0
H209 H 0.22214 0.95136 0.81854 0.0
H210 H 0.31733 0.95177 0.79683 0.0
H211 H 0.38204 0.95749 0.74881 0.0
H212 H 0.31459 0.96588 0.64685 0.0
H213 H 0.22004 0.95964 0.66836 0.0
C214 C 0.191 0.95439 0.73375 0.0
C215 C 0.18166 0.9533 0.76891 0.0
C216 C 0.24572 0.9556 0.72115 0.0
C217 C 0.22792 0.95189 0.79131 0.0
C218 C 0.28253 0.95236 0.77893 0.0
C219 C 0.34666 0.95768 0.73131 0.0
C220 C 0.35561 0.96179 0.69626 0.0
C221 C 0.29196 0.95485 0.74391 0.0
C222 C 0.30923 0.96217 0.67392 0.0
C223 C 0.25491 0.95882 0.68619 0.0
H224 H 0.71718 0.55503 0.68126 0.0
H225 H 0.61989 0.56103 0.77308 0.0
H226 H 0.70589 0.56051 0.80725 0.0
H227 H 0.80824 0.5544 0.81097 0.0
H228 H 0.90514 0.54894 0.71894 0.0
H229 H 0.81946 0.55339 0.68488 0.0
C230 C 0.71465 0.55681 0.70871 0.0
C231 C 0.66212 0.55804 0.72455 0.0
C232 C 0.76416 0.55634 0.72816 0.0
C233 C 0.65978 0.56002 0.76021 0.0
C234 C 0.70894 0.55964 0.77978 0.0
C235 C 0.81077 0.5547 0.78349 0.0
C236 C 0.8631 0.55128 0.76757 0.0
C237 C 0.76132 0.55723 0.76402 0.0
C238 C 0.86544 0.55144 0.73188 0.0
C239 C 0.81645 0.55396 0.71236 0.0
H240 H 0.7009 0.99592 0.67833 0.0
H241 H 0.6468 0.91819 0.75792 0.0
H242 H 0.73988 0.92016 0.78378 0.0
H243 H 0.83668 0.94377 0.78398 0.0
H244 H 0.89138 0.02132 0.70445 0.0
H245 H 0.79808 0.01965 0.67857 0.0
C246 C 0.70948 0.97937 0.7013 0.0
C247 C 0.66682 0.95696 0.71611 0.0
C248 C 0.76322 0.98065 0.71617 0.0
C249 C 0.67873 0.93572 0.74593 0.0
C250 C 0.73201 0.93683 0.7608 0.0
C251 C 0.82822 0.96041 0.76104 0.0
C252 C 0.87103 0.98266 0.74624 0.0
C253 C 0.77454 0.95922 0.74618 0.0
C254 C 0.85926 0.00394 0.71643 0.0
C255 C 0.80589 0.00299 0.70156 0.0
H256 H 0.36775 0.51482 0.76222 0.0
H257 H 0.32691 0.56839 0.66576 0.0
H258 H 0.2301 0.5775 0.68375 0.0
H259 H 0.15755 0.57104 0.72701 0.0
H260 H 0.19832 0.51756 0.8235 0.0
H261 H 0.29496 0.50785 0.80532 0.0
C262 C 0.33768 0.52834 0.74502 0.0
C263 C 0.35462 0.54087 0.71267 0.0
C264 C 0.2822 0.53372 0.7556 0.0
C265 C 0.31504 0.55841 0.69078 0.0
C266 C 0.25968 0.56373 0.70108 0.0
C267 C 0.18754 0.55733 0.74414 0.0
C268 C 0.1707 0.54513 0.77662 0.0
C269 C 0.24291 0.55168 0.73348 0.0
C270 C 0.21014 0.52728 0.7984 0.0
C271 C 0.2654 0.52166 0.788 0.0
H272 H 0.66533 0.06223 0.25022 0.0
H273 H 0.71031 0.97963 0.32887 0.0
H274 H 0.80318 0.97154 0.30405 0.0
H275 H 0.87043 0.98679 0.25929 0.0
H276 H 0.8238 0.06748 0.1794 0.0
H277 H 0.73225 0.07712 0.20531 0.0
C278 C 0.69565 0.04277 0.26216 0.0
C279 C 0.68117 0.02171 0.29144 0.0
C280 C 0.74831 0.03758 0.24732 0.0
C281 C 0.72057 0.99619 0.30633 0.0
C282 C 0.77356 0.99147 0.29211 0.0
C283 C 0.84023 0.00643 0.24748 0.0
C284 C 0.85391 0.02635 0.21745 0.0
C285 C 0.78765 0.01174 0.26243 0.0
C286 C 0.81424 0.05164 0.20244 0.0
C287 C 0.76197 0.05731 0.21732 0.0
H288 H 0.2088 0.41743 0.19328 0.0
H289 H 0.15832 0.4988 0.27172 0.0
H290 H 0.25035 0.49341 0.29868 0.0
H291 H 0.34558 0.46605 0.30001 0.0
H292 H 0.39638 0.38453 0.22179 0.0
H293 H 0.304 0.38938 0.19503 0.0
C294 C 0.21798 0.43408 0.21621 0.0
C295 C 0.17659 0.45858 0.23032 0.0
C296 C 0.2711 0.43071 0.2318 0.0
C297 C 0.18924 0.47973 0.2602 0.0
C298 C 0.24194 0.47666 0.27572 0.0
C299 C 0.33644 0.44919 0.2772 0.0
C300 C 0.37807 0.42499 0.26299 0.0
C301 C 0.28321 0.45224 0.26178 0.0
C302 C 0.3653 0.40342 0.23335 0.0
C303 C 0.31241 0.40622 0.21794 0.0
H304 H 0.97899 0.04977 0.02552 0.0
H305 H 0.04838 0.94331 0.06724 0.0
H306 H 0.04539 0.91218 0.01116 0.0
H307 H 0.0382 0.91955 0.94941 0.0
H308 H 0.9692 0.02576 0.90681 0.0
H309 H 0.95531 0.05252 0.96401 0.0
C310 C -0.00838 0.01938 0.02228 0.0
C311 C 0.01384 0.99861 0.05004 0.0
C312 C -0.00964 0.00189 0.98985 0.0
C313 C 0.03084 0.95948 0.04597 0.0
C314 C 0.02947 0.94184 0.01396 0.0
C315 C 0.01869 0.94811 0.95276 0.0
C316 C 0.00546 0.97094 0.92418 0.0
C317 C 0.01155 0.96334 0.98555 0.0
C318 C 0.97966 0.0077 0.92859 0.0
C319 C 0.97224 0.02314 0.96126 0.0
H320 H 0.05185 0.50018 0.9338 0.0
H321 H 0.94244 0.59664 0.95985 0.0
H322 H 0.95158 0.58055 0.01991 0.0
H323 H 0.97761 0.53299 0.06364 0.0
H324 H 0.08129 0.43374 0.0384 0.0
H325 H 0.0886 0.45717 0.97957 0.0
C326 C 0.0312 0.51822 0.95273 0.0
C327 C -0.00416 0.54921 0.94235 0.0
C328 C 0.03538 0.50808 0.98734 0.0
C329 C 0.9692 0.57228 0.96714 0.0
C330 C 0.97438 0.56311 0.00151 0.0
C331 C 0.00339 0.51734 0.04544 0.0
C332 C 0.02938 0.4821 0.05504 0.0
C333 C 0.00547 0.53021 0.01171 0.0
C334 C 0.06179 0.46136 0.03144 0.0
C335 C 0.06533 0.47454 -0.0022 0.0
H336 H 0.56206 0.52984 0.4281 0.0
H337 H 0.47711 0.42319 0.45444 0.0
H338 H 0.46345 0.44776 0.51266 0.0
H339 H 0.48966 0.49542 0.55783 0.0
H340 H 0.58191 0.5993 0.53101 0.0
H341 H 0.57795 0.5806 0.47114 0.0
C342 C 0.53899 0.51264 0.44641 0.0
C343 C 0.52004 0.47514 0.43731 0.0
C344 C 0.53334 0.52636 0.47981 0.0
C345 C 0.4912 0.45246 0.46106 0.0
C346 C 0.48395 0.46637 0.49432 0.0
C347 C 0.50747 0.51439 0.5387 0.0
C348 C 0.53645 0.5485 0.54874 0.0
C349 C 0.50679 0.50268 0.50432 0.0
C350 C 0.55987 0.57272 0.52384 0.0
C351 C 0.55773 0.56202 0.48964 0.0
H352 H 0.47136 0.92737 0.51532 0.0
H353 H 0.5753 0.02179 0.5524 0.0
H354 H 0.5834 0.04736 0.49445 0.0
H355 H 0.54629 0.04902 0.43503 0.0
H356 H 0.43529 0.9571 0.40101 0.0
H357 H 0.44445 0.92429 0.45579 0.0
C358 C 0.4968 0.9531 0.51064 0.0
C359 C 0.5218 0.97309 0.53809 0.0
C360 C 0.49913 0.96841 0.47778 0.0
C361 C 0.55549 0.00594 0.53165 0.0
C362 C 0.55957 0.02081 0.49857 0.0
C363 C 0.52536 0.02136 0.43961 0.0
C364 C 0.48992 0.00538 0.41447 0.0
C365 C 0.52936 0.00331 0.4717 0.0
C366 C 0.46248 0.96978 0.42033 0.0
C367 C 0.46767 0.9511 0.45156 0.0
loop_
_geom_bond_atom_site_label_1
_geom_bond_atom_site_label_2
_geom_bond_distance
_geom_bond_site_symmetry_2
_ccdc_geom_bond_type
Mg0 O1 2.028 . S
Mg0 O7 1.986 . S
Mg0 O9 2.114 . S
Mg0 O10 2.251 . S
Mg0 O13 2.010 1_455 S
O1 Mg0 2.028 . S
O1 C4 1.250 . S
O2 Mg3 2.028 . S
O2 C4 1.248 . S
Mg3 O2 2.028 . S
Mg3 O8 2.032 . S
Mg3 O10 2.079 . S
C4 O1 1.250 . S
C4 O2 1.248 . S
C5 O6 1.264 1_545 S
C5 O13 1.249 . S
O6 C5 1.264 1_565 S
O7 Mg0 1.986 . S
O7 C11 1.246 . S
O8 Mg3 2.032 . S
O8 C11 1.259 . S
O9 Mg0 2.114 . S
O9 C12 1.252 . S
O10 Mg0 2.251 . S
O10 Mg3 2.079 . S
O10 C12 1.273 . S
C11 O7 1.246 . S
C11 O8 1.259 . S
C12 O9 1.252 . S
C12 O10 1.273 . S
O13 Mg0 2.010 1_655 S
O13 C5 1.249 . S
Mg14 O15 2.028 . S
Mg14 O21 1.986 . S
Mg14 O23 2.114 1_455 S
Mg14 O24 2.251 1_455 S
Mg14 O27 2.010 . S
O15 Mg14 2.028 . S
O15 C18 1.250 . S
O16 Mg17 2.028 . S
O16 C18 1.248 1_655 S
Mg17 O16 2.028 . S
Mg17 O22 2.032 . S
Mg17 O24 2.079 . S
C18 O15 1.250 . S
C18 O16 1.248 1_455 S
C19 O20 1.264 . S
C19 O27 1.249 . S
O20 C19 1.264 . S
O21 Mg14 1.986 . S
O21 C25 1.246 . S
O22 Mg17 2.032 . S
O22 C25 1.259 1_655 S
O23 Mg14 2.114 1_655 S
O23 C26 1.252 . S
O24 Mg14 2.251 1_655 S
O24 Mg17 2.079 . S
O24 C26 1.273 . S
C25 O21 1.246 . S
C25 O22 1.259 1_455 S
C26 O23 1.252 . S
C26 O24 1.273 . S
O27 Mg14 2.010 . S
O27 C19 1.249 . S
Mg28 O29 2.028 . S
Mg28 O35 1.986 . S
Mg28 O37 2.114 . S
Mg28 O38 2.251 . S
Mg28 O41 2.010 1_455 S
O29 Mg28 2.028 . S
O29 C32 1.250 . S
O30 Mg31 2.028 . S
O30 C32 1.248 . S
Mg31 O30 2.028 . S
Mg31 O36 2.032 . S
Mg31 O38 2.079 . S
C32 O29 1.250 . S
C32 O30 1.248 . S
C33 O34 1.264 1_565 S
C33 O41 1.249 . S
O34 C33 1.264 1_545 S
O35 Mg28 1.986 . S
O35 C39 1.246 . S
O36 Mg31 2.032 . S
O36 C39 1.259 . S
O37 Mg28 2.114 . S
O37 C40 1.252 . S
O38 Mg28 2.251 . S
O38 Mg31 2.079 . S
O38 C40 1.273 . S
C39 O35 1.246 . S
C39 O36 1.259 . S
C40 O37 1.252 . S
C40 O38 1.273 . S
O41 Mg28 2.010 1_655 S
O41 C33 1.249 . S
Mg42 O43 2.028 . S
Mg42 O49 1.986 . S
Mg42 O51 2.114 1_455 S
Mg42 O52 2.251 1_455 S
Mg42 O55 2.010 . S
O43 Mg42 2.028 . S
O43 C46 1.250 . S
O44 Mg45 2.028 . S
O44 C46 1.248 1_655 S
Mg45 O44 2.028 . S
Mg45 O50 2.032 . S
Mg45 O52 2.079 . S
C46 O43 1.250 . S
C46 O44 1.248 1_455 S
C47 O48 1.264 . S
C47 O55 1.249 . S
O48 C47 1.264 . S
O49 Mg42 1.986 . S
O49 C53 1.246 . S
O50 Mg45 2.032 . S
O50 C53 1.259 1_655 S
O51 Mg42 2.114 1_655 S
O51 C54 1.252 . S
O52 Mg42 2.251 1_655 S
O52 Mg45 2.079 . S
O52 C54 1.273 . S
C53 O49 1.246 . S
C53 O50 1.259 1_455 S
C54 O51 1.252 . S
C54 O52 1.273 . S
O55 Mg42 2.010 . S
O55 C47 1.249 . S
Mg56 O57 2.028 . S
Mg56 O63 1.986 . S
Mg56 O65 2.114 . S
Mg56 O66 2.251 . S
Mg56 O69 2.010 . S
O57 Mg56 2.028 . S
O57 C60 1.250 . S
O58 Mg59 2.028 . S
O58 C60 1.248 . S
Mg59 O58 2.028 . S
Mg59 O64 2.032 . S
Mg59 O66 2.079 . S
C60 O57 1.250 . S
C60 O58 1.248 . S
C61 O62 1.264 . S
C61 O69 1.249 . S
O62 C61 1.264 . S
O63 Mg56 1.986 . S
O63 C67 1.246 . S
O64 Mg59 2.032 . S
O64 C67 1.259 . S
O65 Mg56 2.114 . S
O65 C68 1.252 . S
O66 Mg56 2.251 . S
O66 Mg59 2.079 . S
O66 C68 1.273 . S
C67 O63 1.246 . S
C67 O64 1.259 . S
C68 O65 1.252 . S
C68 O66 1.273 . S
O69 Mg56 2.010 . S
O69 C61 1.249 . S
Mg70 O71 2.028 . S
Mg70 O77 1.986 . S
Mg70 O79 2.114 . S
Mg70 O80 2.251 . S
Mg70 O83 2.010 . S
O71 Mg70 2.028 . S
O71 C74 1.250 . S
O72 Mg73 2.028 . S
O72 C74 1.248 . S
Mg73 O72 2.028 . S
Mg73 O78 2.032 . S
Mg73 O80 2.079 . S
C74 O71 1.250 . S
C74 O72 1.248 . S
C75 O76 1.264 1_565 S
C75 O83 1.249 . S
O76 C75 1.264 1_545 S
O77 Mg70 1.986 . S
O77 C81 1.246 . S
O78 Mg73 2.032 . S
O78 C81 1.259 . S
O79 Mg70 2.114 . S
O79 C82 1.252 . S
O80 Mg70 2.251 . S
O80 Mg73 2.079 . S
O80 C82 1.273 . S
C81 O77 1.246 . S
C81 O78 1.259 . S
C82 O79 1.252 . S
C82 O80 1.273 . S
O83 Mg70 2.010 . S
O83 C75 1.249 . S
Mg84 O85 2.028 . S
Mg84 O91 1.986 . S
Mg84 O93 2.114 . S
Mg84 O94 2.251 . S
Mg84 O97 2.010 . S
O85 Mg84 2.028 . S
O85 C88 1.250 . S
O86 Mg87 2.028 . S
O86 C88 1.248 . S
Mg87 O86 2.028 . S
Mg87 O92 2.032 . S
Mg87 O94 2.079 . S
C88 O85 1.250 . S
C88 O86 1.248 . S
C89 O90 1.264 . S
C89 O97 1.249 . S
O90 C89 1.264 . S
O91 Mg84 1.986 . S
O91 C95 1.246 . S
O92 Mg87 2.032 . S
O92 C95 1.259 . S
O93 Mg84 2.114 . S
O93 C96 1.252 . S
O94 Mg84 2.251 . S
O94 Mg87 2.079 . S
O94 C96 1.273 . S
C95 O91 1.246 . S
C95 O92 1.259 . S
C96 O93 1.252 . S
C96 O94 1.273 . S
O97 Mg84 2.010 . S
O97 C89 1.249 . S
Mg98 O99 2.028 . S
Mg98 O105 1.986 . S
Mg98 O107 2.114 . S
Mg98 O108 2.251 . S
Mg98 O111 2.010 . S
O99 Mg98 2.028 . S
O99 C102 1.250 . S
O100 Mg101 2.028 . S
O100 C102 1.248 . S
Mg101 O100 2.028 . S
Mg101 O106 2.032 . S
Mg101 O108 2.079 . S
C102 O99 1.250 . S
C102 O100 1.248 . S
C103 O104 1.264 1_545 S
C103 O111 1.249 . S
O104 C103 1.264 1_565 S
O105 Mg98 1.986 . S
O105 C109 1.246 . S
O106 Mg101 2.032 . S
O106 C109 1.259 . S
O107 Mg98 2.114 . S
O107 C110 1.252 . S
O108 Mg98 2.251 . S
O108 Mg101 2.079 . S
O108 C110 1.273 . S
C109 O105 1.246 . S
C109 O106 1.259 . S
C110 O107 1.252 . S
C110 O108 1.273 . S
O111 Mg98 2.010 . S
O111 C103 1.249 . S
H112 C118 0.930 . S
H113 C121 0.930 . S
H114 C122 0.930 . S
H115 C123 0.930 . S
H116 C126 0.930 . S
H117 C127 0.930 . S
C118 H112 0.930 . S
C118 C119 1.355 1_655 S
C118 C120 1.415 1_655 S
C119 C118 1.355 1_455 S
C119 C121 1.419 . S
C120 C118 1.415 1_455 S
C120 C125 1.425 . S
C120 C127 1.409 1_455 S
C121 H113 0.930 . S
C121 C119 1.419 . S
C121 C122 1.362 . S
C122 H114 0.930 . S
C122 C121 1.362 . S
C122 C125 1.409 . S
C123 H115 0.930 . S
C123 C124 1.355 . S
C123 C125 1.415 . S
C124 C123 1.355 . S
C124 C126 1.419 1_455 S
C125 C120 1.425 . S
C125 C122 1.409 . S
C125 C123 1.415 . S
C126 H116 0.930 . S
C126 C124 1.419 1_655 S
C126 C127 1.362 . S
C127 H117 0.930 . S
C127 C120 1.409 1_655 S
C127 C126 1.362 . S
H128 C134 0.930 . S
H129 C137 0.930 1_655 S
H130 C138 0.930 . S
H131 C139 0.930 1_655 S
H132 C142 0.930 . S
H133 C143 0.930 . S
C134 H128 0.930 . S
C134 C135 1.355 . S
C134 C136 1.415 . S
C135 C134 1.355 . S
C135 C137 1.419 . S
C136 C134 1.415 . S
C136 C141 1.425 . S
C136 C143 1.409 . S
C137 H129 0.930 1_455 S
C137 C135 1.419 . S
C137 C138 1.362 1_455 S
C138 H130 0.930 . S
C138 C137 1.362 1_655 S
C138 C141 1.409 1_655 S
C139 H131 0.930 1_455 S
C139 C140 1.355 . S
C139 C141 1.415 . S
C140 C139 1.355 . S
C140 C142 1.419 . S
C141 C136 1.425 . S
C141 C138 1.409 1_455 S
C141 C139 1.415 . S
C142 H132 0.930 . S
C142 C140 1.419 . S
C142 C143 1.362 . S
C143 H133 0.930 . S
C143 C136 1.409 . S
C143 C142 1.362 . S
H144 C150 0.930 . S
H145 C153 0.930 . S
H146 C154 0.930 . S
H147 C155 0.930 . S
H148 C158 0.930 . S
H149 C159 0.930 . S
C150 H144 0.930 . S
C150 C151 1.355 . S
C150 C152 1.415 . S
C151 C150 1.355 . S
C151 C153 1.419 . S
C152 C150 1.415 . S
C152 C157 1.425 . S
C152 C159 1.409 . S
C153 H145 0.930 . S
C153 C151 1.419 . S
C153 C154 1.362 . S
C154 H146 0.930 . S
C154 C153 1.362 . S
C154 C157 1.409 . S
C155 H147 0.930 . S
C155 C156 1.355 . S
C155 C157 1.415 . S
C156 C155 1.355 . S
C156 C158 1.419 . S
C157 C152 1.425 . S
C157 C154 1.409 . S
C157 C155 1.415 . S
C158 H148 0.930 . S
C158 C156 1.419 . S
C158 C159 1.362 . S
C159 H149 0.930 . S
C159 C152 1.409 . S
C159 C158 1.362 . S
H160 C166 0.930 . S
H161 C169 0.930 . S
H162 C170 0.930 . S
H163 C171 0.930 . S
H164 C174 0.930 . S
H165 C175 0.930 . S
C166 H160 0.930 . S
C166 C167 1.355 . S
C166 C168 1.415 . S
C167 C166 1.355 . S
C167 C169 1.419 . S
C168 C166 1.415 . S
C168 C173 1.425 . S
C168 C175 1.409 . S
C169 H161 0.930 . S
C169 C167 1.419 . S
C169 C170 1.362 . S
C170 H162 0.930 . S
C170 C169 1.362 . S
C170 C173 1.409 . S
C171 H163 0.930 . S
C171 C172 1.355 . S
C171 C173 1.415 . S
C172 C171 1.355 . S
C172 C174 1.419 . S
C173 C168 1.425 . S
C173 C170 1.409 . S
C173 C171 1.415 . S
C174 H164 0.930 . S
C174 C172 1.419 . S
C174 C175 1.362 . S
C175 H165 0.930 . S
C175 C168 1.409 . S
C175 C174 1.362 . S
H176 C182 0.930 . S
H177 C185 0.930 . S
H178 C186 0.930 . S
H179 C187 0.930 . S
H180 C190 0.930 . S
H181 C191 0.930 . S
C182 H176 0.930 . S
C182 C183 1.355 . S
C182 C184 1.415 . S
C183 C182 1.355 . S
C183 C185 1.419 . S
C184 C182 1.415 . S
C184 C189 1.425 . S
C184 C191 1.409 . S
C185 H177 0.930 . S
C185 C183 1.419 . S
C185 C186 1.362 . S
C186 H178 0.930 . S
C186 C185 1.362 . S
C186 C189 1.409 . S
C187 H179 0.930 . S
C187 C188 1.355 . S
C187 C189 1.415 . S
C188 C187 1.355 . S
C188 C190 1.419 . S
C189 C184 1.425 . S
C189 C186 1.409 . S
C189 C187 1.415 . S
C190 H180 0.930 . S
C190 C188 1.419 . S
C190 C191 1.362 . S
C191 H181 0.930 . S
C191 C184 1.409 . S
C191 C190 1.362 . S
H192 C198 0.930 . S
H193 C201 0.930 . S
H194 C202 0.930 . S
H195 C203 0.930 . S
H196 C206 0.930 . S
H197 C207 0.930 . S
C198 H192 0.930 . S
C198 C199 1.355 . S
C198 C200 1.415 . S
C199 C198 1.355 . S
C199 C201 1.419 . S
C200 C198 1.415 . S
C200 C205 1.425 . S
C200 C207 1.409 . S
C201 H193 0.930 . S
C201 C199 1.419 . S
C201 C202 1.362 . S
C202 H194 0.930 . S
C202 C201 1.362 . S
C202 C205 1.409 . S
C203 H195 0.930 . S
C203 C204 1.355 . S
C203 C205 1.415 . S
C204 C203 1.355 . S
C204 C206 1.419 . S
C205 C200 1.425 . S
C205 C202 1.409 . S
C205 C203 1.415 . S
C206 H196 0.930 . S
C206 C204 1.419 . S
C206 C207 1.362 . S
C207 H197 0.930 . S
C207 C200 1.409 . S
C207 C206 1.362 . S
H208 C214 0.930 . S
H209 C217 0.930 . S
H210 C218 0.930 . S
H211 C219 0.930 . S
H212 C222 0.930 . S
H213 C223 0.930 . S
C214 H208 0.930 . S
C214 C215 1.355 . S
C214 C216 1.415 . S
C215 C214 1.355 . S
C215 C217 1.419 . S
C216 C214 1.415 . S
C216 C221 1.425 . S
C216 C223 1.409 . S
C217 H209 0.930 . S
C217 C215 1.419 . S
C217 C218 1.362 . S
C218 H210 0.930 . S
C218 C217 1.362 . S
C218 C221 1.409 . S
C219 H211 0.930 . S
C219 C220 1.355 . S
C219 C221 1.415 . S
C220 C219 1.355 . S
C220 C222 1.419 . S
C221 C216 1.425 . S
C221 C218 1.409 . S
C221 C219 1.415 . S
C222 H212 0.930 . S
C222 C220 1.419 . S
C222 C223 1.362 . S
C223 H213 0.930 . S
C223 C216 1.409 . S
C223 C222 1.362 . S
H224 C230 0.930 . S
H225 C233 0.930 . S
H226 C234 0.930 . S
H227 C235 0.930 . S
H228 C238 0.930 . S
H229 C239 0.930 . S
C230 H224 0.930 . S
C230 C231 1.355 . S
C230 C232 1.415 . S
C231 C230 1.355 . S
C231 C233 1.419 . S
C232 C230 1.415 . S
C232 C237 1.425 . S
C232 C239 1.409 . S
C233 H225 0.930 . S
C233 C231 1.419 . S
C233 C234 1.362 . S
C234 H226 0.930 . S
C234 C233 1.362 . S
C234 C237 1.409 . S
C235 H227 0.930 . S
C235 C236 1.355 . S
C235 C237 1.415 . S
C236 C235 1.355 . S
C236 C238 1.419 . S
C237 C232 1.425 . S
C237 C234 1.409 . S
C237 C235 1.415 . S
C238 H228 0.930 . S
C238 C236 1.419 . S
C238 C239 1.362 . S
C239 H229 0.930 . S
C239 C232 1.409 . S
C239 C238 1.362 . S
H240 C246 0.930 . S
H241 C249 0.930 . S
H242 C250 0.930 . S
H243 C251 0.930 . S
H244 C254 0.930 1_545 S
H245 C255 0.930 1_545 S
C246 H240 0.930 . S
C246 C247 1.355 . S
C246 C248 1.415 . S
C247 C246 1.355 . S
C247 C249 1.419 . S
C248 C246 1.415 . S
C248 C253 1.425 . S
C248 C255 1.409 . S
C249 H241 0.930 . S
C249 C247 1.419 . S
C249 C250 1.362 . S
C250 H242 0.930 . S
C250 C249 1.362 . S
C250 C253 1.409 . S
C251 H243 0.930 . S
C251 C252 1.355 . S
C251 C253 1.415 . S
C252 C251 1.355 . S
C252 C254 1.419 . S
C253 C248 1.425 . S
C253 C250 1.409 . S
C253 C251 1.415 . S
C254 H244 0.930 1_565 S
C254 C252 1.419 . S
C254 C255 1.362 . S
C255 H245 0.930 1_565 S
C255 C248 1.409 . S
C255 C254 1.362 . S
H256 C262 0.930 . S
H257 C265 0.930 . S
H258 C266 0.930 . S
H259 C267 0.930 . S
H260 C270 0.930 . S
H261 C271 0.930 . S
C262 H256 0.930 . S
C262 C263 1.355 . S
C262 C264 1.415 . S
C263 C262 1.355 . S
C263 C265 1.419 . S
C264 C262 1.415 . S
C264 C269 1.425 . S
C264 C271 1.409 . S
C265 H257 0.930 . S
C265 C263 1.419 . S
C265 C266 1.362 . S
C266 H258 0.930 . S
C266 C265 1.362 . S
C266 C269 1.409 . S
C267 H259 0.930 . S
C267 C268 1.355 . S
C267 C269 1.415 . S
C268 C267 1.355 . S
C268 C270 1.419 . S
C269 C264 1.425 . S
C269 C266 1.409 . S
C269 C267 1.415 . S
C270 H260 0.930 . S
C270 C268 1.419 . S
C270 C271 1.362 . S
C271 H261 0.930 . S
C271 C264 1.409 . S
C271 C270 1.362 . S
H272 C278 0.930 . S
H273 C281 0.930 1_565 S
H274 C282 0.933 1_565 S
H275 C283 0.930 1_565 S
H276 C286 0.930 . S
H277 C287 0.930 . S
C278 H272 0.930 . S
C278 C279 1.355 . S
C278 C280 1.415 . S
C279 C278 1.355 . S
C279 C281 1.419 . S
C280 C278 1.415 . S
C280 C285 1.425 . S
C280 C287 1.409 . S
C281 H273 0.930 1_545 S
C281 C279 1.419 . S
C281 C282 1.362 . S
C282 H274 0.933 1_545 S
C282 C281 1.362 . S
C282 C285 1.407 . S
C283 H275 0.930 1_545 S
C283 C284 1.355 . S
C283 C285 1.415 . S
C284 C283 1.355 . S
C284 C286 1.419 . S
C285 C280 1.425 . S
C285 C282 1.407 . S
C285 C283 1.415 . S
C286 H276 0.930 . S
C286 C284 1.419 . S
C286 C287 1.362 . S
C287 H277 0.930 . S
C287 C280 1.409 . S
C287 C286 1.362 . S
H288 C294 0.930 . S
H289 C297 0.930 . S
H290 C298 0.930 . S
H291 C299 0.930 . S
H292 C302 0.930 . S
H293 C303 0.930 . S
C294 H288 0.930 . S
C294 C295 1.355 . S
C294 C296 1.415 . S
C295 C294 1.355 . S
C295 C297 1.419 . S
C296 C294 1.415 . S
C296 C301 1.425 . S
C296 C303 1.409 . S
C297 H289 0.930 . S
C297 C295 1.419 . S
C297 C298 1.362 . S
C298 H290 0.930 . S
C298 C297 1.362 . S
C298 C301 1.409 . S
C299 H291 0.930 . S
C299 C300 1.355 . S
C299 C301 1.415 . S
C300 C299 1.355 . S
C300 C302 1.419 . S
C301 C296 1.425 . S
C301 C298 1.409 . S
C301 C299 1.415 . S
C302 H292 0.930 . S
C302 C300 1.419 . S
C302 C303 1.362 . S
C303 H293 0.930 . S
C303 C296 1.409 . S
C303 C302 1.362 . S
H304 C310 0.930 . S
H305 C313 0.927 1_565 S
H306 C314 0.930 . S
H307 C315 0.930 1_655 S
H308 C318 0.927 1_545 S
H309 C319 0.930 . S
C310 H304 0.930 . S
C310 C311 1.355 . S
C310 C312 1.415 . S
C311 C310 1.355 . S
C311 C313 1.431 1_455 S
C312 C310 1.415 . S
C312 C317 1.425 1_544 S
C312 C319 1.409 1_554 S
C313 H305 0.927 1_545 S
C313 C311 1.431 1_655 S
C313 C314 1.354 1_545 S
C314 H306 0.930 . S
C314 C313 1.354 1_565 S
C314 C317 1.409 1_654 S
C315 H307 0.930 1_455 S
C315 C316 1.355 . S
C315 C317 1.415 . S
C316 C315 1.355 . S
C316 C318 1.431 . S
C317 C312 1.425 1_566 S
C317 C314 1.409 1_456 S
C317 C315 1.415 . S
C318 H308 0.927 1_565 S
C318 C316 1.431 . S
C318 C319 1.354 1_565 S
C319 H309 0.930 . S
C319 C312 1.409 1_556 S
C319 C318 1.354 1_545 S
H320 C326 0.930 . S
H321 C329 0.930 . S
H322 C330 0.930 1_554 S
H323 C331 0.930 . S
H324 C334 0.930 . S
H325 C335 0.930 1_556 S
C326 H320 0.930 . S
C326 C327 1.355 . S
C326 C328 1.415 . S
C327 C326 1.355 . S
C327 C329 1.419 1_455 S
C328 C326 1.415 . S
C328 C333 1.419 1_456 S
C328 C335 1.409 1_556 S
C329 H321 0.930 . S
C329 C327 1.419 1_655 S
C329 C330 1.362 . S
C330 H322 0.930 1_556 S
C330 C329 1.362 . S
C330 C333 1.415 1_556 S
C331 H323 0.930 . S
C331 C332 1.355 1_655 S
C331 C333 1.416 . S
C332 C331 1.355 1_455 S
C332 C334 1.419 . S
C333 C328 1.419 1_654 S
C333 C330 1.415 1_554 S
C333 C331 1.416 . S
C334 H324 0.930 . S
C334 C332 1.419 . S
C334 C335 1.362 . S
C335 H325 0.930 1_554 S
C335 C328 1.409 1_554 S
C335 C334 1.362 . S
H336 C342 0.930 . S
H337 C345 0.930 . S
H338 C346 0.930 . S
H339 C347 0.930 . S
H340 C350 0.930 . S
H341 C351 0.930 . S
C342 H336 0.930 . S
C342 C343 1.355 . S
C342 C344 1.415 . S
C343 C342 1.355 . S
C343 C345 1.419 . S
C344 C342 1.415 . S
C344 C349 1.425 . S
C344 C351 1.409 . S
C345 H337 0.930 . S
C345 C343 1.419 . S
C345 C346 1.362 . S
C346 H338 0.930 . S
C346 C345 1.362 . S
C346 C349 1.409 . S
C347 H339 0.930 . S
C347 C348 1.355 . S
C347 C349 1.415 . S
C348 C347 1.355 . S
C348 C350 1.419 . S
C349 C344 1.425 . S
C349 C346 1.409 . S
C349 C347 1.415 . S
C350 H340 0.930 . S
C350 C348 1.419 . S
C350 C351 1.362 . S
C351 H341 0.930 . S
C351 C344 1.409 . S
C351 C350 1.362 . S
H352 C358 0.930 . S
H353 C361 0.930 . S
H354 C362 0.930 . S
H355 C363 0.930 . S
H356 C366 0.930 . S
H357 C367 0.930 . S
C358 H352 0.930 . S
C358 C359 1.355 . S
C358 C360 1.415 . S
C359 C358 1.355 . S
C359 C361 1.419 1_565 S
C360 C358 1.415 . S
C360 C365 1.425 1_565 S
C360 C367 1.409 . S
C361 H353 0.930 . S
C361 C359 1.419 1_545 S
C361 C362 1.362 . S
C362 H354 0.930 . S
C362 C361 1.362 . S
C362 C365 1.409 . S
C363 H355 0.930 . S
C363 C364 1.355 . S
C363 C365 1.415 . S
C364 C363 1.355 . S
C364 C366 1.419 1_545 S
C365 C360 1.425 1_545 S
C365 C362 1.409 . S
C365 C363 1.415 . S
C366 H356 0.930 . S
C366 C364 1.419 1_565 S
C366 C367 1.362 . S
C367 H357 0.930 . S
C367 C360 1.409 . S
C367 C366 1.362 . S
C119 C18 1.492 . S
C124 C4 1.495 . S
C135 C32 1.482 . S
C140 C46 1.492 . S
C151 C60 1.478 . S
C156 C74 1.489 . S
C167 C88 1.450 . S
C172 C102 1.446 . S
C183 C110 1.498 . S
C188 C12 1.487 . S
C199 C96 1.504 . S
C204 C26 1.486 . S
C215 C40 1.491 . S
C220 C82 1.500 . S
C231 C68 1.499 . S
C236 C54 1.486 . S
C247 C75 1.310 . S
C252 C33 1.186 . S
C263 C61 1.268 . S
C268 C47 1.251 . S
C279 C103 1.197 . S
C284 C5 1.295 . S
C295 C19 1.261 . S
C300 C89 1.228 . S
C311 C11 1.371 . S
C316 C39 1.331 . S
C327 C53 1.318 . S
C332 C25 1.350 . S
C343 C95 1.355 . S
C348 C67 1.319 . S
C359 C81 1.380 . S
C364 C109 1.363 . S
