# Generated by pormake.
# Topology wio, (6)-cn, num edge types: 1
# Building blocks:
#     Node 0, Type 0, BuildingBlock: KUMBUR_clean_sbu_1, # of connection points: 6
#     Node 1, Type 0, BuildingBlock: KUMBUR_clean_sbu_1, # of connection points: 6
#     Node 2, Type 0, BuildingBlock: KUMBUR_clean_sbu_1, # of connection points: 6
#     Node 3, Type 0, BuildingBlock: KUMBUR_clean_sbu_1, # of connection points: 6
#     Node 4, Type 0, BuildingBlock: KUMBUR_clean_sbu_1, # of connection points: 6
#     Node 5, Type 0, BuildingBlock: KUMBUR_clean_sbu_1, # of connection points: 6
#     Node 6, Type 0, BuildingBlock: KUMBUR_clean_sbu_1, # of connection points: 6
#     Node 7, Type 0, BuildingBlock: KUMBUR_clean_sbu_1, # of connection points: 6
#     Node 8, Type 0, BuildingBlock: KUMBUR_clean_sbu_1, # of connection points: 6
#     Node 9, Type 0, BuildingBlock: KUMBUR_clean_sbu_1, # of connection points: 6
#     Node 10, Type 0, BuildingBlock: KUMBUR_clean_sbu_1, # of connection points: 6
#     Node 11, Type 0, BuildingBlock: KUMBUR_clean_sbu_1, # of connection points: 6
#     Node 12, Type 0, BuildingBlock: KUMBUR_clean_sbu_1, # of connection points: 6
#     Node 13, Type 0, BuildingBlock: KUMBUR_clean_sbu_1, # of connection points: 6
#     Node 14, Type 0, BuildingBlock: KUMBUR_clean_sbu_1, # of connection points: 6
#     Node 15, Type 0, BuildingBlock: KUMBUR_clean_sbu_1, # of connection points: 6
#     Node 16, Type 0, BuildingBlock: KUMBUR_clean_sbu_1, # of connection points: 6
#     Node 17, Type 0, BuildingBlock: KUMBUR_clean_sbu_1, # of connection points: 6
#     Node 18, Type 0, BuildingBlock: KUMBUR_clean_sbu_1, # of connection points: 6
#     Node 19, Type 0, BuildingBlock: KUMBUR_clean_sbu_1, # of connection points: 6
#     Node 20, Type 0, BuildingBlock: KUMBUR_clean_sbu_1, # of connection points: 6
#     Node 21, Type 0, BuildingBlock: KUMBUR_clean_sbu_1, # of connection points: 6
#     Node 22, Type 0, BuildingBlock: KUMBUR_clean_sbu_1, # of connection points: 6
#     Node 23, Type 0, BuildingBlock: KUMBUR_clean_sbu_1, # of connection points: 6
#     Node 24, Type 0, BuildingBlock: KUMBUR_clean_sbu_1, # of connection points: 6
#     Node 25, Type 0, BuildingBlock: KUMBUR_clean_sbu_1, # of connection points: 6
#     Node 26, Type 0, BuildingBlock: KUMBUR_clean_sbu_1, # of connection points: 6
#     Node 27, Type 0, BuildingBlock: KUMBUR_clean_sbu_1, # of connection points: 6
#     Node 28, Type 0, BuildingBlock: KUMBUR_clean_sbu_1, # of connection points: 6
#     Node 29, Type 0, BuildingBlock: KUMBUR_clean_sbu_1, # of connection points: 6
#     Node 30, Type 0, BuildingBlock: KUMBUR_clean_sbu_1, # of connection points: 6
#     Node 31, Type 0, BuildingBlock: KUMBUR_clean_sbu_1, # of connection points: 6
#     Edge 32, Type (0, 0), BuildingBlock: AJUNOK_clean_linker_0, # of connection points: 2
#     Edge 33, Type (0, 0), BuildingBlock: AJUNOK_clean_linker_0, # of connection points: 2
#     Edge 34, Type (0, 0), BuildingBlock: AJUNOK_clean_linker_0, # of connection points: 2
#     Edge 35, Type (0, 0), BuildingBlock: AJUNOK_clean_linker_0, # of connection points: 2
#     Edge 36, Type (0, 0), BuildingBlock: AJUNOK_clean_linker_0, # of connection points: 2
#     Edge 37, Type (0, 0), BuildingBlock: AJUNOK_clean_linker_0, # of connection points: 2
#     Edge 38, Type (0, 0), BuildingBlock: AJUNOK_clean_linker_0, # of connection points: 2
#     Edge 39, Type (0, 0), BuildingBlock: AJUNOK_clean_linker_0, # of connection points: 2
#     Edge 40, Type (0, 0), BuildingBlock: AJUNOK_clean_linker_0, # of connection points: 2
#     Edge 41, Type (0, 0), BuildingBlock: AJUNOK_clean_linker_0, # of connection points: 2
#     Edge 42, Type (0, 0), BuildingBlock: AJUNOK_clean_linker_0, # of connection points: 2
#     Edge 43, Type (0, 0), BuildingBlock: AJUNOK_clean_linker_0, # of connection points: 2
#     Edge 44, Type (0, 0), BuildingBlock: AJUNOK_clean_linker_0, # of connection points: 2
#     Edge 45, Type (0, 0), BuildingBlock: AJUNOK_clean_linker_0, # of connection points: 2
#     Edge 46, Type (0, 0), BuildingBlock: AJUNOK_clean_linker_0, # of connection points: 2
#     Edge 47, Type (0, 0), BuildingBlock: AJUNOK_clean_linker_0, # of connection points: 2
#     Edge 48, Type (0, 0), BuildingBlock: AJUNOK_clean_linker_0, # of connection points: 2
#     Edge 49, Type (0, 0), BuildingBlock: AJUNOK_clean_linker_0, # of connection points: 2
#     Edge 50, Type (0, 0), BuildingBlock: AJUNOK_clean_linker_0, # of connection points: 2
#     Edge 51, Type (0, 0), BuildingBlock: AJUNOK_clean_linker_0, # of connection points: 2
#     Edge 52, Type (0, 0), BuildingBlock: AJUNOK_clean_linker_0, # of connection points: 2
#     Edge 53, Type (0, 0), BuildingBlock: AJUNOK_clean_linker_0, # of connection points: 2
#     Edge 54, Type (0, 0), BuildingBlock: AJUNOK_clean_linker_0, # of connection points: 2
#     Edge 55, Type (0, 0), BuildingBlock: AJUNOK_clean_linker_0, # of connection points: 2
#     Edge 56, Type (0, 0), BuildingBlock: AJUNOK_clean_linker_0, # of connection points: 2
#     Edge 57, Type (0, 0), BuildingBlock: AJUNOK_clean_linker_0, # of connection points: 2
#     Edge 58, Type (0, 0), BuildingBlock: AJUNOK_clean_linker_0, # of connection points: 2
#     Edge 59, Type (0, 0), BuildingBlock: AJUNOK_clean_linker_0, # of connection points: 2
#     Edge 60, Type (0, 0), BuildingBlock: AJUNOK_clean_linker_0, # of connection points: 2
#     Edge 61, Type (0, 0), BuildingBlock: AJUNOK_clean_linker_0, # of connection points: 2
#     Edge 62, Type (0, 0), BuildingBlock: AJUNOK_clean_linker_0, # of connection points: 2
#     Edge 63, Type (0, 0), BuildingBlock: AJUNOK_clean_linker_0, # of connection points: 2
#     Edge 64, Type (0, 0), BuildingBlock: AJUNOK_clean_linker_0, # of connection points: 2
#     Edge 65, Type (0, 0), BuildingBlock: AJUNOK_clean_linker_0, # of connection points: 2
#     Edge 66, Type (0, 0), BuildingBlock: AJUNOK_clean_linker_0, # of connection points: 2
#     Edge 67, Type (0, 0), BuildingBlock: AJUNOK_clean_linker_0, # of connection points: 2
#     Edge 68, Type (0, 0), BuildingBlock: AJUNOK_clean_linker_0, # of connection points: 2
#     Edge 69, Type (0, 0), BuildingBlock: AJUNOK_clean_linker_0, # of connection points: 2
#     Edge 70, Type (0, 0), BuildingBlock: AJUNOK_clean_linker_0, # of connection points: 2
#     Edge 71, Type (0, 0), BuildingBlock: AJUNOK_clean_linker_0, # of connection points: 2
#     Edge 72, Type (0, 0), BuildingBlock: AJUNOK_clean_linker_0, # of connection points: 2
#     Edge 73, Type (0, 0), BuildingBlock: AJUNOK_clean_linker_0, # of connection points: 2
#     Edge 74, Type (0, 0), BuildingBlock: AJUNOK_clean_linker_0, # of connection points: 2
#     Edge 75, Type (0, 0), BuildingBlock: AJUNOK_clean_linker_0, # of connection points: 2
#     Edge 76, Type (0, 0), BuildingBlock: AJUNOK_clean_linker_0, # of connection points: 2
#     Edge 77, Type (0, 0), BuildingBlock: AJUNOK_clean_linker_0, # of connection points: 2
#     Edge 78, Type (0, 0), BuildingBlock: AJUNOK_clean_linker_0, # of connection points: 2
#     Edge 79, Type (0, 0), BuildingBlock: AJUNOK_clean_linker_0, # of connection points: 2
#     Edge 80, Type (0, 0), BuildingBlock: AJUNOK_clean_linker_0, # of connection points: 2
#     Edge 81, Type (0, 0), BuildingBlock: AJUNOK_clean_linker_0, # of connection points: 2
#     Edge 82, Type (0, 0), BuildingBlock: AJUNOK_clean_linker_0, # of connection points: 2
#     Edge 83, Type (0, 0), BuildingBlock: AJUNOK_clean_linker_0, # of connection points: 2
#     Edge 84, Type (0, 0), BuildingBlock: AJUNOK_clean_linker_0, # of connection points: 2
#     Edge 85, Type (0, 0), BuildingBlock: AJUNOK_clean_linker_0, # of connection points: 2
#     Edge 86, Type (0, 0), BuildingBlock: AJUNOK_clean_linker_0, # of connection points: 2
#     Edge 87, Type (0, 0), BuildingBlock: AJUNOK_clean_linker_0, # of connection points: 2
#     Edge 88, Type (0, 0), BuildingBlock: AJUNOK_clean_linker_0, # of connection points: 2
#     Edge 89, Type (0, 0), BuildingBlock: AJUNOK_clean_linker_0, # of connection points: 2
#     Edge 90, Type (0, 0), BuildingBlock: AJUNOK_clean_linker_0, # of connection points: 2
#     Edge 91, Type (0, 0), BuildingBlock: AJUNOK_clean_linker_0, # of connection points: 2
#     Edge 92, Type (0, 0), BuildingBlock: AJUNOK_clean_linker_0, # of connection points: 2
#     Edge 93, Type (0, 0), BuildingBlock: AJUNOK_clean_linker_0, # of connection points: 2
#     Edge 94, Type (0, 0), BuildingBlock: AJUNOK_clean_linker_0, # of connection points: 2
#     Edge 95, Type (0, 0), BuildingBlock: AJUNOK_clean_linker_0, # of connection points: 2
#     Edge 96, Type (0, 0), BuildingBlock: AJUNOK_clean_linker_0, # of connection points: 2
#     Edge 97, Type (0, 0), BuildingBlock: AJUNOK_clean_linker_0, # of connection points: 2
#     Edge 98, Type (0, 0), BuildingBlock: AJUNOK_clean_linker_0, # of connection points: 2
#     Edge 99, Type (0, 0), BuildingBlock: AJUNOK_clean_linker_0, # of connection points: 2
#     Edge 100, Type (0, 0), BuildingBlock: AJUNOK_clean_linker_0, # of connection points: 2
#     Edge 101, Type (0, 0), BuildingBlock: AJUNOK_clean_linker_0, # of connection points: 2
#     Edge 102, Type (0, 0), BuildingBlock: AJUNOK_clean_linker_0, # of connection points: 2
#     Edge 103, Type (0, 0), BuildingBlock: AJUNOK_clean_linker_0, # of connection points: 2
#     Edge 104, Type (0, 0), BuildingBlock: AJUNOK_clean_linker_0, # of connection points: 2
#     Edge 105, Type (0, 0), BuildingBlock: AJUNOK_clean_linker_0, # of connection points: 2
#     Edge 106, Type (0, 0), BuildingBlock: AJUNOK_clean_linker_0, # of connection points: 2
#     Edge 107, Type (0, 0), BuildingBlock: AJUNOK_clean_linker_0, # of connection points: 2
#     Edge 108, Type (0, 0), BuildingBlock: AJUNOK_clean_linker_0, # of connection points: 2
#     Edge 109, Type (0, 0), BuildingBlock: AJUNOK_clean_linker_0, # of connection points: 2
#     Edge 110, Type (0, 0), BuildingBlock: AJUNOK_clean_linker_0, # of connection points: 2
#     Edge 111, Type (0, 0), BuildingBlock: AJUNOK_clean_linker_0, # of connection points: 2
#     Edge 112, Type (0, 0), BuildingBlock: AJUNOK_clean_linker_0, # of connection points: 2
#     Edge 113, Type (0, 0), BuildingBlock: AJUNOK_clean_linker_0, # of connection points: 2
#     Edge 114, Type (0, 0), BuildingBlock: AJUNOK_clean_linker_0, # of connection points: 2
#     Edge 115, Type (0, 0), BuildingBlock: AJUNOK_clean_linker_0, # of connection points: 2
#     Edge 116, Type (0, 0), BuildingBlock: AJUNOK_clean_linker_0, # of connection points: 2
#     Edge 117, Type (0, 0), BuildingBlock: AJUNOK_clean_linker_0, # of connection points: 2
#     Edge 118, Type (0, 0), BuildingBlock: AJUNOK_clean_linker_0, # of connection points: 2
#     Edge 119, Type (0, 0), BuildingBlock: AJUNOK_clean_linker_0, # of connection points: 2
#     Edge 120, Type (0, 0), BuildingBlock: AJUNOK_clean_linker_0, # of connection points: 2
#     Edge 121, Type (0, 0), BuildingBlock: AJUNOK_clean_linker_0, # of connection points: 2
#     Edge 122, Type (0, 0), BuildingBlock: AJUNOK_clean_linker_0, # of connection points: 2
#     Edge 123, Type (0, 0), BuildingBlock: AJUNOK_clean_linker_0, # of connection points: 2
#     Edge 124, Type (0, 0), BuildingBlock: AJUNOK_clean_linker_0, # of connection points: 2
#     Edge 125, Type (0, 0), BuildingBlock: AJUNOK_clean_linker_0, # of connection points: 2
#     Edge 126, Type (0, 0), BuildingBlock: AJUNOK_clean_linker_0, # of connection points: 2
#     Edge 127, Type (0, 0), BuildingBlock: AJUNOK_clean_linker_0, # of connection points: 2
# Relax obj value: 0.182
# Max RMSD: 0.243
# Mean RMSD: 0.243
data_MOF--net-wio--node1-KUMBUR_clean_sbu_1--edge1-AJUNOK_clean_linker_0
_symmetry_space_group_name_H-M    P1
_symmetry_Int_Tables_number       1
_symmetry_cell_setting            triclinic
loop_
_symmetry_equiv_pos_as_xyz
'x, y, z'
_cell_length_a     47.803506
_cell_length_b     47.778692
_cell_length_c     41.992824
_cell_angle_alpha  89.894037
_cell_angle_beta   90.106872
_cell_angle_gamma 90.013528
loop_
_atom_site_label
_atom_site_type_symbol
_atom_site_fract_x
_atom_site_fract_y
_atom_site_fract_z
_atom_type_partial_charge
Tb0 Tb 0.07715 0.11785 0.28275 0.0
C1 C 0.21062 0.10928 0.31803 0.0
N2 N 0.19247 0.12852 0.30632 0.0
C3 C 0.21295 0.16367 0.33985 0.0
C4 C 0.23 0.11617 0.34213 0.0
C5 C 0.19458 0.15581 0.3155 0.0
C6 C 0.23046 0.14364 0.35363 0.0
C7 C 0.23038 0.06286 0.3143 0.0
C8 C 0.21086 0.08318 0.30424 0.0
C9 C 0.24876 0.06899 0.33949 0.0
C10 C 0.24863 0.09566 0.35333 0.0
Tb11 Tb 0.16248 0.11391 0.26724 0.0
N12 N 0.19323 0.07843 0.27949 0.0
C13 C 0.23156 0.03744 0.29794 0.0
C14 C 0.1955 0.05421 0.26228 0.0
C15 C 0.21436 0.0333 0.2715 0.0
H16 H 0.1832 0.17181 0.30298 0.0
H17 H 0.21569 0.01403 0.25818 0.0
H18 H 0.05659 0.06303 0.2387 0.0
H19 H 0.05625 0.22867 0.27368 0.0
H20 H 0.1827 0.05083 0.24138 0.0
H21 H 0.24625 0.02127 0.3049 0.0
H22 H 0.07829 0.18674 0.29653 0.0
H23 H 0.2141 0.1853 0.34737 0.0
H24 H 0.26372 0.05356 0.34777 0.0
H25 H 0.26344 0.10041 0.37212 0.0
H26 H 0.02745 0.05532 0.19135 0.0
H27 H 0.24496 0.1498 0.3722 0.0
H28 H 0.02426 0.22442 0.22759 0.0
N29 N 0.05169 0.10722 0.23839 0.0
C30 C 0.03817 0.12941 0.22496 0.0
C31 C 0.03051 0.07631 0.20038 0.0
C32 C 0.02047 0.12583 0.19837 0.0
C33 C 0.04757 0.08082 0.22697 0.0
C34 C 0.01696 0.09891 0.18595 0.0
N35 N 0.06074 0.15888 0.26234 0.0
C36 C 0.06532 0.18451 0.27571 0.0
C37 C 0.02893 0.17944 0.22423 0.0
C38 C 0.04246 0.15598 0.23764 0.0
C39 C 0.03422 0.20587 0.23724 0.0
C40 C 0.05243 0.20838 0.26313 0.0
H41 H 0.0036 0.09529 0.1655 0.0
H42 H 0.99309 0.14677 0.16473 0.0
H43 H 1.00035 0.19362 0.18747 0.0
O44 O 0.05334 0.1342 0.32112 0.0
O45 O 0.09621 0.13684 0.23834 0.0
O46 O 0.13022 0.10507 0.23218 0.0
O47 O 0.03836 0.09937 0.29464 0.0
O48 O 0.10302 0.14376 0.31311 0.0
O49 O 0.13947 0.1533 0.27933 0.0
O50 O 0.18893 0.10516 0.22848 0.0
O51 O 0.15044 0.10628 0.31692 0.0
O52 O 0.10298 0.09311 0.31637 0.0
O53 O 0.18148 0.14749 0.24221 0.0
O54 O 0.141 0.07288 0.26353 0.0
O55 O 0.09256 0.07447 0.2751 0.0
C56 C 0.115 0.12485 0.2197 0.0
C57 C 0.02627 0.10048 0.34973 0.0
C58 C 0.99846 0.09606 0.39953 0.0
C59 C 0.01184 0.07025 0.4051 0.0
C60 C 0.03929 0.07496 0.35698 0.0
C61 C 0.03213 0.06005 0.3843 0.0
C62 C 0.00567 0.11105 0.37119 0.0
C63 C 0.12568 0.15785 0.30629 0.0
C64 C 0.03401 0.11515 0.31938 0.0
C65 C 0.00682 0.14915 0.1851 0.0
C66 C 0.01092 0.17584 0.1981 0.0
C67 C 0.12855 0.093 0.32894 0.0
C68 C 0.22662 0.13596 0.22091 0.0
C69 C 0.26987 0.13411 0.18932 0.0
C70 C 0.28525 0.14041 0.2169 0.0
C71 C 0.24268 0.14279 0.24779 0.0
C72 C 0.24038 0.13188 0.19144 0.0
C73 C 0.27171 0.14489 0.24581 0.0
C74 C 0.11618 0.06094 0.26815 0.0
C75 C 0.19602 0.13098 0.22388 0.0
H76 H 0.00625 0.05743 0.4254 0.0
H77 H 0.05472 0.06624 0.34104 0.0
H78 H 0.04215 0.04018 0.3892 0.0
H79 H 0.99545 0.13076 0.36592 0.0
H80 H 0.30781 0.14244 0.21592 0.0
H81 H 0.23297 0.14634 0.27048 0.0
H82 H 0.22829 0.12659 0.17044 0.0
H83 H 0.28379 0.15003 0.26683 0.0
Tb84 Tb 0.13705 0.82879 0.53381 0.0
C85 C 0.09891 0.95373 0.57247 0.0
N86 N 0.09215 0.93662 0.54797 0.0
C87 C 0.04357 0.94808 0.55488 0.0
C88 C 0.07824 0.96796 0.59003 0.0
C89 C 0.06493 0.93458 0.53808 0.0
C90 C 0.05019 0.96427 0.5815 0.0
C91 C 0.13505 0.98015 0.59922 0.0
C92 C 0.12673 0.95943 0.57734 0.0
C93 C 0.1148 0.993 0.6185 0.0
C94 C 0.08638 0.98677 0.61403 0.0
Tb95 Tb 0.1286 0.91491 0.5223 0.0
N96 N 0.1454 0.94711 0.55761 0.0
C97 C 0.16324 0.98812 0.59998 0.0
C98 C 0.17234 0.95656 0.55628 0.0
C99 C 0.18189 0.97659 0.57801 0.0
H100 H 0.05969 0.92219 0.51737 0.0
H101 H 0.20344 0.9835 0.57738 0.0
H102 H 0.1863 0.79801 0.49254 0.0
H103 H 0.02332 0.82375 0.52533 0.0
H104 H 0.18623 0.94879 0.53811 0.0
H105 H 0.17054 0.00394 0.61647 0.0
H106 H 0.06757 0.83095 0.55312 0.0
H107 H 0.02204 0.94599 0.54726 0.0
H108 H 0.12078 0.00857 0.63596 0.0
H109 H 0.07084 0.99766 0.6281 0.0
H110 H 0.18976 0.77075 0.44252 0.0
H111 H 0.03364 0.97485 0.59433 0.0
H112 H 0.02292 0.80349 0.47122 0.0
N113 N 0.14217 0.8023 0.48952 0.0
C114 C 0.1184 0.79648 0.47309 0.0
C115 C 0.16958 0.77786 0.45087 0.0
C116 C 0.11938 0.78149 0.44426 0.0
C117 C 0.16758 0.79313 0.47918 0.0
C118 C 0.14539 0.77214 0.43324 0.0
N119 N 0.09316 0.82031 0.51324 0.0
C120 C 0.06832 0.8247 0.5286 0.0
C121 C 0.06802 0.80012 0.4688 0.0
C122 C 0.09316 0.8062 0.48503 0.0
C123 C 0.0427 0.80781 0.48287 0.0
C124 C 0.04285 0.81947 0.51328 0.0
H125 H 0.14704 0.76053 0.41118 0.0
H126 H 0.09478 0.76515 0.40506 0.0
H127 H 0.04975 0.781 0.42688 0.0
O128 O 0.12226 0.79442 0.56161 0.0
O129 O 0.14107 0.84767 0.48459 0.0
O130 O 0.11039 0.88304 0.49095 0.0
O131 O 0.16593 0.79915 0.55149 0.0
O132 O 0.11193 0.85144 0.56851 0.0
O133 O 0.09535 0.88604 0.53691 0.0
O134 O 0.15106 0.93463 0.48469 0.0
O135 O 0.15116 0.90402 0.56652 0.0
O136 O 0.1566 0.85501 0.57096 0.0
O137 O 0.10846 0.94473 0.49357 0.0
O138 O 0.17196 0.89777 0.51637 0.0
O139 O 0.17717 0.84863 0.52352 0.0
C140 C 0.1255 0.86768 0.47166 0.0
C141 C 0.15246 0.75532 0.57572 0.0
C142 C 0.15178 0.71639 0.61482 0.0
C143 C 0.1669 0.70017 0.59282 0.0
C144 C 0.16706 0.73817 0.55443 0.0
C145 C 0.17428 0.71089 0.56302 0.0
C146 C 0.14488 0.74433 0.60614 0.0
C147 C 0.09625 0.87357 0.56483 0.0
C148 C 0.1473 0.78527 0.56757 0.0
C149 C 0.09449 0.77645 0.4274 0.0
C150 C 0.06887 0.78568 0.43969 0.0
C151 C 0.16041 0.88109 0.58098 0.0
C152 C 0.13603 0.98181 0.47511 0.0
C153 C 0.14031 0.02496 0.44365 0.0
C154 C 0.14044 0.04048 0.47206 0.0
C155 C 0.13572 0.9982 0.5028 0.0
C156 C 0.13812 0.9954 0.4453 0.0
C157 C 0.13836 0.02713 0.50136 0.0
C158 C 0.18701 0.87415 0.51798 0.0
C159 C 0.13047 0.95127 0.47735 0.0
H160 H 0.1729 0.67889 0.59866 0.0
H161 H 0.17328 0.74603 0.53129 0.0
H162 H 0.18578 0.69793 0.54647 0.0
H163 H 0.13356 0.75737 0.62281 0.0
H164 H 0.14101 0.06314 0.47166 0.0
H165 H 0.13211 0.98898 0.52561 0.0
H166 H 0.13732 0.98318 0.4236 0.0
H167 H 0.13779 0.03935 0.52303 0.0
Tb168 Tb 0.42937 0.88869 0.77894 0.0
C169 C 0.30681 0.84936 0.82129 0.0
N170 N 0.3228 0.84361 0.79557 0.0
C171 C 0.31274 0.7946 0.80176 0.0
C172 C 0.29393 0.82795 0.83914 0.0
C173 C 0.32488 0.81671 0.78472 0.0
C174 C 0.29778 0.80019 0.82957 0.0
C175 C 0.28104 0.88427 0.85059 0.0
C176 C 0.30077 0.8769 0.82719 0.0
C177 C 0.26969 0.86331 0.8702 0.0
C178 C 0.27625 0.83511 0.86457 0.0
Tb179 Tb 0.34301 0.88104 0.76995 0.0
N180 N 0.31166 0.89622 0.80713 0.0
C181 C 0.27238 0.91223 0.85237 0.0
C182 C 0.30137 0.92287 0.8068 0.0
C183 C 0.2822 0.93152 0.82995 0.0
H184 H 0.33648 0.81227 0.76321 0.0
H185 H 0.27462 0.95285 0.83007 0.0
H186 H 0.45828 0.93549 0.73207 0.0
H187 H 0.43754 0.77489 0.77971 0.0
H188 H 0.30771 0.93715 0.78826 0.0
H189 H 0.25723 0.91882 0.86999 0.0
H190 H 0.43154 0.82083 0.80425 0.0
H191 H 0.31509 0.77328 0.79352 0.0
H192 H 0.25492 0.86854 0.8888 0.0
H193 H 0.26644 0.81901 0.87891 0.0
H194 H 0.48274 0.93626 0.6801 0.0
H195 H 0.28826 0.78309 0.84262 0.0
H196 H 0.45301 0.77132 0.72372 0.0
N197 N 0.45326 0.89129 0.73226 0.0
C198 C 0.45815 0.86674 0.71708 0.0
C199 C 0.47592 0.91657 0.69024 0.0
C200 C 0.47146 0.86618 0.68719 0.0
C201 C 0.46225 0.91608 0.71968 0.0
C202 C 0.48035 0.89154 0.67379 0.0
N203 N 0.43763 0.8438 0.76109 0.0
C204 C 0.43556 0.81998 0.77909 0.0
C205 C 0.45495 0.81622 0.71706 0.0
C206 C 0.44952 0.84222 0.73168 0.0
C207 C 0.44909 0.79173 0.73402 0.0
C208 C 0.44015 0.79365 0.76553 0.0
H209 H 0.49069 0.89201 0.65086 0.0
H210 H 0.48538 0.83956 0.6486 0.0
H211 H 0.47119 0.79573 0.67492 0.0
O212 O 0.465 0.87589 0.80648 0.0
O213 O 0.409 0.89247 0.73029 0.0
O214 O 0.3737 0.86201 0.73796 0.0
O215 O 0.45975 0.91882 0.79154 0.0
O216 O 0.40735 0.86351 0.8148 0.0
O217 O 0.37327 0.84828 0.78216 0.0
O218 O 0.32208 0.90405 0.73347 0.0
O219 O 0.35498 0.9039 0.81369 0.0
O220 O 0.40418 0.90806 0.81703 0.0
O221 O 0.3128 0.86117 0.74167 0.0
O222 O 0.3604 0.92433 0.76315 0.0
O223 O 0.40964 0.92904 0.76914 0.0
C224 C 0.38878 0.87677 0.71806 0.0
C225 C 0.50129 0.9096 0.82422 0.0
C226 C 0.53648 0.90643 0.86753 0.0
C227 C 0.54964 0.93026 0.85489 0.0
C228 C 0.51536 0.93331 0.81259 0.0
C229 C 0.53923 0.94346 0.82775 0.0
C230 C 0.512 0.89603 0.85205 0.0
C231 C 0.3852 0.84793 0.81037 0.0
C232 C 0.47456 0.90127 0.80803 0.0
C233 C 0.47548 0.84044 0.67177 0.0
C234 C 0.46724 0.8155 0.68668 0.0
C235 C 0.3784 0.9126 0.82759 0.0
C236 C 0.275 0.88821 0.72444 0.0
C237 C 0.23109 0.89093 0.69403 0.0
C238 C 0.21621 0.89041 0.72289 0.0
C239 C 0.25923 0.88748 0.75259 0.0
C240 C 0.26072 0.88971 0.69494 0.0
C241 C 0.23021 0.88893 0.75185 0.0
C242 C 0.38419 0.93921 0.76415 0.0
C243 C 0.30567 0.88332 0.72598 0.0
H244 H 0.56824 0.93872 0.86613 0.0
H245 H 0.50777 0.94425 0.79166 0.0
H246 H 0.54972 0.96179 0.81842 0.0
H247 H 0.50143 0.87781 0.86158 0.0
H248 H 0.19355 0.89021 0.72311 0.0
H249 H 0.26909 0.8844 0.77524 0.0
H250 H 0.2725 0.88931 0.67291 0.0
H251 H 0.21846 0.88798 0.77385 0.0
Tb252 Tb 0.37047 0.17853 0.02714 0.0
C253 C 0.40648 0.05827 0.06476 0.0
N254 N 0.40842 0.07245 0.03681 0.0
C255 C 0.45693 0.05994 0.03275 0.0
C256 C 0.43021 0.0459 0.07891 0.0
C257 C 0.43278 0.07194 1.0197 0.0
C258 C 0.45581 0.04751 0.06287 0.0
C259 C 0.37689 0.03736 0.10517 0.0
C260 C 0.38015 0.05385 0.07759 0.0
C261 C 0.40071 0.02691 0.12082 0.0
C262 C 0.42734 0.03114 0.10768 0.0
Tb263 Tb 0.36761 0.09245 1.01947 0.0
N264 N 0.3576 0.06372 0.06143 0.0
C265 C 0.34976 0.03089 0.11538 0.0
C266 C 0.33111 0.0558 0.06991 0.0
C267 C 0.32679 0.03973 0.09733 0.0
H268 H 0.43379 0.08184 0.99654 0.0
H269 H 0.30578 0.03423 0.10458 0.0
H270 H 0.31786 0.21054 0.99129 0.0
H271 H 0.48261 0.18789 1.01239 0.0
H272 H 0.31336 0.06292 0.05613 0.0
H273 H 0.34637 0.0183 0.13651 0.0
H274 H 0.43959 0.17321 0.03949 0.0
H275 H 0.47641 0.06047 1.01968 0.0
H276 H 0.39869 0.01455 0.14235 0.0
H277 H 0.44541 0.02194 0.11926 0.0
H278 H 0.3104 0.23953 0.9432 0.0
H279 H 0.47455 0.03827 0.07294 0.0
H280 H 0.47991 0.21648 0.96329 0.0
N281 N 0.36134 0.2065 0.98436 0.0
C282 C 0.38411 0.21587 0.96819 0.0
C283 C 0.33123 0.2326 0.94959 0.0
C284 C 0.38121 0.23319 0.94118 0.0
C285 C 0.33526 0.21547 0.97625 0.0
C286 C 0.35429 0.2412 0.93169 0.0
N287 N 0.41233 0.19115 1.00495 0.0
C288 C 0.43787 0.1846 1.01753 0.0
C289 C 0.43463 0.21757 0.96298 0.0
C290 C 0.41049 0.20827 0.97903 0.0
C291 C 0.46083 0.20971 0.97489 0.0
C292 C 0.46244 0.19343 1.00248 0.0
H293 H 0.35115 0.25456 0.91112 0.0
H294 H 0.40339 0.25541 0.90391 0.0
H295 H 0.45016 0.24166 0.92294 0.0
O296 O 0.38918 0.20503 0.06151 0.0
O297 O 0.38704 0.15753 0.98266 0.0
O298 O 0.35762 0.12075 0.98024 0.0
O299 O 0.34873 0.21457 0.04217 0.0
O300 O 0.39467 0.15445 0.06158 0.0
O301 O 0.40442 0.1191 0.02805 0.0
O302 O 0.3457 0.05724 1.00265 0.0
O303 O 0.35033 0.10762 0.06517 0.0
O304 O 0.34525 0.15653 0.06303 0.0
O305 O 0.38181 0.07216 0.97775 0.0
O306 O 0.32579 0.11199 1.01678 0.0
O307 O 0.32786 0.16177 1.01522 0.0
C308 C 0.3751 0.13742 0.96581 0.0
C309 C 0.37289 0.25214 0.0678 0.0
C310 C 0.37493 0.29225 0.10457 0.0
C311 C 0.37765 0.31009 0.07811 0.0
C312 C 0.37596 0.27047 0.04197 0.0
C313 C 0.37839 0.29926 0.04718 0.0
C314 C 0.37274 0.2631 0.09918 0.0
C315 C 0.40794 0.13122 0.05592 0.0
C316 C 0.36784 0.22187 0.06261 0.0
C317 C 0.40521 0.24221 0.92482 0.0
C318 C 0.43184 0.23442 0.93569 0.0
C319 C 0.34102 0.13178 0.07641 0.0
C320 C 0.37243 0.02336 0.97525 0.0
C321 C 0.37763 0.98143 0.94217 0.0
C322 C 0.38747 0.96678 0.96895 0.0
C323 C 0.38234 0.00814 1.00156 0.0
C324 C 0.37037 0.00996 0.94533 0.0
C325 C 0.38994 0.98011 0.99835 0.0
C326 C 0.31406 0.13727 1.01451 0.0
C327 C 0.36289 0.05262 0.9793 0.0
H328 H 0.37946 0.3325 0.08142 0.0
H329 H 0.37607 0.26259 1.0178 0.0
H330 H 0.38061 0.31331 0.0271 0.0
H331 H 0.37017 0.24906 0.11927 0.0
H332 H 0.39328 0.94492 0.96705 0.0
H333 H 0.38382 0.01775 0.02473 0.0
H334 H 0.36254 0.02141 0.92487 0.0
H335 H 0.3975 0.96857 1.01883 0.0
Tb336 Tb 0.07125 0.88444 0.26652 0.0
C337 C 0.19597 0.86998 0.22077 0.0
N338 N 0.18288 0.85832 0.24611 0.0
C339 C 0.20039 0.81309 0.23106 0.0
C340 C 0.21085 0.85357 0.19869 0.0
C341 C 0.1861 0.8304 0.25244 0.0
C342 C 0.21231 0.82464 0.20368 0.0
C343 C 0.21163 0.9122 0.19443 0.0
C344 C 0.19633 0.89869 0.21859 0.0
C345 C 0.22511 0.89604 0.17112 0.0
C346 C 0.22467 0.86672 0.17322 0.0
Tb347 Tb 0.15754 0.88814 0.27777 0.0
N348 N 0.18323 0.91341 0.24176 0.0
C349 C 0.21373 0.94142 0.19522 0.0
C350 C 0.18719 0.94171 0.24423 0.0
C351 C 0.20186 0.95618 0.22053 0.0
H352 H 0.17687 0.82129 0.27356 0.0
H353 H 0.20383 0.97869 0.22161 0.0
H354 H 0.03796 0.92672 0.3155 0.0
H355 H 0.07182 0.77055 0.2609 0.0
H356 H 0.17783 0.95312 0.26367 0.0
H357 H 0.2252 0.95266 0.17701 0.0
H358 H 0.07395 0.81776 0.23839 0.0
H359 H 0.20207 0.79086 0.23565 0.0
H360 H 0.23668 0.90599 0.15204 0.0
H361 H 0.23592 0.85449 0.15572 0.0
H362 H 0.01377 0.92329 0.36745 0.0
H363 H 0.22341 0.81123 0.18721 0.0
H364 H 0.05824 0.76367 0.31715 0.0
N365 N 0.04799 0.88337 0.31389 0.0
C366 C 0.04579 0.85802 0.32828 0.0
C367 C 0.02273 0.90479 0.35671 0.0
C368 C 0.03299 0.85523 0.35832 0.0
C369 C 0.0362 0.90662 0.32721 0.0
C370 C 0.02153 0.87907 0.37259 0.0
N371 N 0.06703 0.83848 0.28277 0.0
C372 C 0.07039 0.8156 0.26359 0.0
C373 C 0.05314 0.80799 0.326 0.0
C374 C 0.05618 0.83488 0.31247 0.0
C375 C 0.06034 0.78469 0.30771 0.0
C376 C 0.06816 0.7885 0.27602 0.0
H377 H 0.01144 0.8778 0.39562 0.0
H378 H 0.02216 0.82616 0.39604 0.0
H379 H 0.03945 0.78468 0.36747 0.0
O380 O 0.03853 0.86972 0.23632 0.0
O381 O 0.09086 0.89081 0.3152 0.0
O382 O 0.13007 0.86464 0.31009 0.0
O383 O 0.03585 0.90968 0.25774 0.0
O384 O 0.09727 0.86098 0.23269 0.0
O385 O 0.13302 0.85071 0.26603 0.0
O386 O 0.17842 0.91152 0.31368 0.0
O387 O 0.14159 0.91146 0.23554 0.0
O388 O 0.09373 0.9033 0.22621 0.0
O389 O 0.19019 0.86954 0.30388 0.0
O390 O 0.13316 0.92519 0.29374 0.0
O391 O 0.08789 0.92697 0.27126 0.0
C392 C 0.11204 0.87721 0.32873 0.0
C393 C 0.01874 0.90656 0.2046 0.0
C394 C 0.99222 0.91008 0.15374 0.0
C395 C 0.00753 0.93442 0.14655 0.0
C396 C 0.03379 0.93059 0.19564 0.0
C397 C 0.02798 0.94446 0.16725 0.0
C398 C 0.99767 0.89634 0.1834 0.0
C399 C 0.121 0.84809 0.23803 0.0
C400 C 0.02514 0.89332 0.23633 0.0
C401 C 0.0316 0.82874 0.37277 0.0
C402 C 0.04162 0.80515 0.35661 0.0
C403 C 0.11843 0.91373 0.2183 0.0
C404 C 0.22635 0.89883 0.32141 0.0
C405 C 0.27096 0.90035 0.35082 0.0
C406 C 0.28479 0.90538 0.32177 0.0
C407 C 0.24089 0.90457 0.29319 0.0
C408 C 0.24149 0.89688 0.35032 0.0
C409 C 0.26981 0.90789 0.29342 0.0
C410 C 0.11084 0.93894 0.28282 0.0
C411 C 0.19617 0.8917 0.32013 0.0
H412 H 0.00341 0.94607 0.12488 0.0
H413 H 0.04999 0.93909 0.21087 0.0
H414 H 0.03938 0.96331 0.16143 0.0
H415 H 0.98582 0.87784 0.1898 0.0
H416 H 0.30737 0.90667 0.32067 0.0
H417 H 0.23011 0.90552 0.27072 0.0
H418 H 0.2304 0.89222 0.37218 0.0
H419 H 0.2808 0.9117 0.2713 0.0
Tb420 Tb 0.36371 0.83073 0.51162 0.0
C421 C 0.37649 0.96205 0.47713 0.0
N422 N 0.39081 0.94277 0.49445 0.0
C423 C 0.43422 0.96125 0.47474 0.0
C424 C 0.39049 0.981 0.45685 0.0
C425 C 0.41937 0.94323 0.49482 0.0
C426 C 0.4197 0.97996 0.4553 0.0
C427 C 0.33214 0.98358 0.4635 0.0
C428 C 0.34774 0.9635 0.48066 0.0
C429 C 0.34591 1.00211 0.44279 0.0
C430 C 0.37503 1.00082 0.43948 0.0
Tb431 Tb 0.36439 0.91448 0.52652 0.0
N432 N 0.33516 0.94551 0.50129 0.0
C433 C 0.30318 0.98462 0.46785 0.0
C434 C 0.30699 0.9472 0.50635 0.0
C435 C 0.29059 0.96643 0.48952 0.0
H436 H 0.43097 0.93002 0.51095 0.0
H437 H 0.26825 0.96742 0.49357 0.0
H438 H 0.30236 0.80862 0.54185 0.0
H439 H 0.47089 0.81124 0.5452 0.0
H440 H 0.29691 0.93428 0.52365 0.0
H441 H 0.29043 0.99964 0.45502 0.0
H442 H 0.43307 0.8314 0.51214 0.0
H443 H 0.45686 0.96097 0.47469 0.0
H444 H 0.33426 0.01762 0.42938 0.0
H445 H 0.38542 0.01546 0.4237 0.0
H446 H 0.28716 0.77971 0.587 0.0
H447 H 0.43124 0.99411 0.43999 0.0
H448 H 0.45923 0.78201 0.59206 0.0
N449 N 0.34584 0.80537 0.55304 0.0
C450 C 0.36542 0.79302 0.57204 0.0
C451 C 0.30922 0.78351 0.58321 0.0
C452 C 0.35754 0.77592 0.59792 0.0
C453 C 0.318 0.80039 0.55788 0.0
C454 C 0.32904 0.77132 0.60339 0.0
N455 N 0.40049 0.81476 0.5409 0.0
C456 C 0.4278 0.81905 0.5328 0.0
C457 C 0.41447 0.78554 0.585 0.0
C458 C 0.39361 0.79752 0.56557 0.0
C459 C 0.44256 0.79084 0.5777 0.0
C460 C 0.44924 0.80746 0.55133 0.0
H461 H 0.32212 0.75829 0.623 0.0
H462 H 0.37258 0.75094 0.63755 0.0
H463 H 0.42237 0.75948 0.62634 0.0
O464 O 0.38406 0.80662 0.47622 0.0
O465 O 0.38262 0.85102 0.55566 0.0
O466 O 0.35279 0.88661 0.56571 0.0
O467 O 0.34621 0.79212 0.49692 0.0
O468 O 0.39081 0.85418 0.47999 0.0
O469 O 0.40205 0.88925 0.51426 0.0
O470 O 0.35565 0.95037 0.55409 0.0
O471 O 0.35426 0.90292 0.47721 0.0
O472 O 0.33865 0.85644 0.47801 0.0
O473 O 0.39315 0.92599 0.5619 0.0
O474 O 0.32321 0.8946 0.53707 0.0
O475 O 0.32149 0.84873 0.51657 0.0
C476 C 0.36989 0.86752 0.57651 0.0
C477 C 0.35367 0.78059 0.44237 0.0
C478 C 0.35225 0.75154 0.39345 0.0
C479 C 0.33215 0.77003 0.38092 0.0
C480 C 0.33349 0.7982 0.42874 0.0
C481 C 0.32288 0.79301 0.39839 0.0
C482 C 0.36297 0.75692 0.42461 0.0
C483 C 0.40573 0.87623 0.48679 0.0
C484 C 0.3647 0.78754 0.47485 0.0
C485 C 0.37827 0.76398 0.61744 0.0
C486 C 0.40665 0.76881 0.61104 0.0
C487 C 0.33985 0.88185 0.46512 0.0
C488 C 0.39482 0.97424 0.57665 0.0
C489 C 0.39861 0.01826 0.60662 0.0
C490 C 0.42634 0.02095 0.59571 0.0
C491 C 0.42284 0.97715 0.56726 0.0
C492 C 0.38266 0.9952 0.59575 0.0
C493 C 0.43819 1.00069 0.57608 0.0
C494 C 0.30945 0.87155 0.52834 0.0
C495 C 0.37895 0.94821 0.57007 0.0
H496 H 0.32326 0.76651 0.35751 0.0
H497 H 0.32579 0.81603 0.44173 0.0
H498 H 0.30729 0.8069 0.38835 0.0
H499 H 0.37862 0.74312 0.43473 0.0
H500 H 0.43944 0.03817 0.60324 0.0
H501 H 0.43327 0.961 0.55389 0.0
H502 H 0.36099 0.99298 0.60277 0.0
H503 H 0.45976 0.00273 0.56863 0.0
Tb504 Tb 0.42462 0.11876 0.76242 0.0
C505 C 0.29986 0.14222 0.72096 0.0
N506 N 0.31517 0.15038 0.74657 0.0
C507 C 0.2992 0.19765 0.73939 0.0
C508 C 0.28507 0.1618 0.70225 0.0
C509 C 0.31326 0.17733 0.75735 0.0
C510 C 0.28573 0.19 0.71118 0.0
C511 C 0.27851 0.10418 0.69151 0.0
C512 C 0.2963 0.11387 0.71587 0.0
C513 C 0.26546 0.1236 0.67118 0.0
C514 C 0.26871 0.15239 0.67657 0.0
Tb515 Tb 0.33849 0.1152 0.77274 0.0
N516 N 0.3087 0.09581 0.73649 0.0
C517 C 0.27352 0.07536 0.68918 0.0
C518 C 0.3026 0.06788 0.73561 0.0
C519 C 0.28526 0.05719 0.71166 0.0
H520 H 0.32334 0.18338 0.77936 0.0
H521 H 0.28101 0.03497 0.71052 0.0
H522 H 0.4392 0.06182 0.80731 0.0
H523 H 0.44506 0.22879 0.77879 0.0
H524 H 0.31179 0.0538 0.75289 0.0
H525 H 0.25996 0.06705 0.67078 0.0
H526 H 0.42532 0.18765 0.75134 0.0
H527 H 0.29874 0.21918 0.74733 0.0
H528 H 0.25194 0.1166 0.65205 0.0
H529 H 0.25752 0.16713 0.66162 0.0
H530 H 0.46353 0.05247 0.85763 0.0
H531 H 0.27469 0.20573 0.69744 0.0
H532 H 0.47209 0.22264 0.82864 0.0
N533 N 0.44587 0.106 0.80897 0.0
C534 C 0.45845 0.12755 0.82479 0.0
C535 C 0.46207 0.0737 0.84873 0.0
C536 C 0.47286 0.12293 0.85363 0.0
C537 C 0.44791 0.07922 0.82023 0.0
C538 C 0.47452 0.09561 0.86555 0.0
N539 N 0.44012 0.15863 0.78593 0.0
C540 C 0.43659 0.18474 0.77335 0.0
C541 C 0.46745 0.17754 0.82913 0.0
C542 C 0.45581 0.15464 0.81269 0.0
C543 C 0.46344 0.20448 0.81673 0.0
C544 C 0.44804 0.20806 0.78868 0.0
H545 H 0.4854 0.0912 0.88766 0.0
H546 H 0.49598 0.14252 0.89206 0.0
H547 H 0.49125 0.19024 0.87064 0.0
O548 O 0.45257 0.13621 0.72854 0.0
O549 O 0.40325 0.13765 0.80537 0.0
O550 O 0.36905 0.10597 0.80984 0.0
O551 O 0.46289 0.09844 0.75284 0.0
O552 O 0.40066 0.14499 0.72998 0.0
O553 O 0.36404 0.15322 0.76313 0.0
O554 O 0.30697 0.09385 0.79786 0.0
O555 O 0.35178 0.09735 0.72693 0.0
O556 O 0.40099 0.09873 0.72375 0.0
O557 O 0.31764 0.13569 0.81074 0.0
O558 O 0.35921 0.07401 0.77765 0.0
O559 O 0.40789 0.07556 0.76698 0.0
C560 C 0.38448 0.125 0.82339 0.0
C561 C 0.4771 0.10169 0.69858 0.0
C562 C 0.50414 0.09911 0.64823 0.0
C563 C 0.49 0.07404 0.64114 0.0
C564 C 0.46313 0.07701 0.68983 0.0
C565 C 0.46974 0.06326 0.66163 0.0
C566 C 0.4978 0.11274 0.67759 0.0
C567 C 0.37709 0.1578 0.73581 0.0
C568 C 0.4698 0.11521 0.72968 0.0
C569 C 0.48483 0.1457 0.86985 0.0
C570 C 0.48216 0.1729 0.85763 0.0
C571 C 0.37586 0.09263 0.71243 0.0
C572 C 0.27041 0.12099 0.81918 0.0
C573 C 0.2275 0.12232 0.8514 0.0
C574 C 0.21209 0.12796 0.82361 0.0
C575 C 0.25433 0.12666 0.79196 0.0
C576 C 0.2569 0.11913 0.84909 0.0
C577 C 0.22544 0.13022 0.79421 0.0
C578 C 0.38411 0.06205 0.77334 0.0
C579 C 0.30071 0.11484 0.816 0.0
H580 H 0.49488 0.06239 0.61975 0.0
H581 H 0.44722 0.06802 0.70507 0.0
H582 H 0.45917 0.04391 0.65577 0.0
H583 H 0.50865 0.13185 0.68389 0.0
H584 H 0.18965 0.131 0.82472 0.0
H585 H 0.26397 0.12791 0.76885 0.0
H586 H 0.26906 0.11462 0.8703 0.0
H587 H 0.21331 0.13458 0.77299 0.0
Tb588 Tb 0.1362 0.17949 1.01545 0.0
C589 C 0.12421 0.04971 0.97844 0.0
N590 N 0.11009 0.06786 0.99736 0.0
C591 C 0.06647 0.05051 0.97684 0.0
C592 C 0.11001 0.03232 0.95662 0.0
C593 C 0.08153 0.06715 0.99822 0.0
C594 C 0.08079 0.03342 0.95548 0.0
C595 C 0.16831 0.02835 0.96362 0.0
C596 C 0.15292 0.0475 0.98214 0.0
C597 C 0.15443 0.01187 0.94087 0.0
C598 C 0.12533 0.01382 0.93742 0.0
Tb599 Tb 0.13738 0.09518 0.02974 0.0
N600 N 0.16561 0.06357 1.00459 0.0
C601 C 0.19711 0.02597 0.96895 0.0
C602 C 0.19341 0.06021 1.011 0.0
C603 C 0.20963 0.04172 0.99303 0.0
H604 H 0.07008 0.07955 1.01522 0.0
H605 H 0.23174 0.03941 0.99802 0.0
H606 H 0.19329 0.19623 0.05911 0.0
H607 H 0.02644 0.20203 0.02999 0.0
H608 H 0.2031 0.0712 0.03036 0.0
H609 H 0.20969 0.01153 0.95519 0.0
H610 H 0.06704 0.17902 1.00535 0.0
H611 H 0.04383 0.05075 0.97703 0.0
H612 H 0.16592 0.99718 0.92626 0.0
H613 H 0.11481 1.00051 0.9203 0.0
H614 H 0.20303 0.22486 0.10616 0.0
H615 H 0.06909 0.02043 0.93905 0.0
H616 H 0.03321 0.23395 0.07568 0.0
N617 N 0.14922 0.20369 0.05986 0.0
C618 C 0.12787 0.21775 0.07417 0.0
C619 C 0.18179 0.22291 0.09747 0.0
C620 C 0.13279 0.23498 0.10082 0.0
C621 C 0.17603 0.2063 0.07087 0.0
C622 C 0.16012 0.23733 0.11249 0.0
N623 N 0.09644 0.19614 0.03805 0.0
C624 C 0.07026 0.19202 0.02594 0.0
C625 C 0.07814 0.22827 0.07701 0.0
C626 C 0.10075 0.21427 0.06256 0.0
C627 C 0.05113 0.22361 0.0652 0.0
C628 C 0.0472 0.20544 0.03955 0.0
H629 H 0.16474 0.25029 0.13299 0.0
H630 H 0.11375 0.26259 0.13547 0.0
H631 H 0.06602 0.2569 0.11449 0.0
O632 O 0.11886 0.20524 0.97934 0.0
O633 O 0.1181 0.15991 0.06008 0.0
O634 O 0.14949 0.12526 0.06613 0.0
O635 O 0.15591 0.21772 1.00383 0.0
O636 O 0.11025 0.1555 0.98317 0.0
O637 O 0.09939 0.11993 1.01705 0.0
O638 O 0.14615 0.05879 0.05719 0.0
O639 O 0.14854 0.10699 0.9806 0.0
O640 O 0.16094 0.15456 0.98105 0.0
O641 O 0.11118 0.08529 0.0682 0.0
O642 O 0.17951 0.11485 0.03668 0.0
O643 O 0.17855 0.16253 1.02193 0.0
C644 C 0.13124 0.14202 0.07908 0.0
C645 C 0.15241 0.23065 0.94917 0.0
C646 C 0.15496 0.25861 0.89954 0.0
C647 C 0.1791 0.24347 0.89115 0.0
C648 C 0.17642 0.21612 0.93961 0.0
C649 C 0.18959 0.22244 0.91092 0.0
C650 C 0.14156 0.25191 0.92889 0.0
C651 C 0.0958 0.13305 0.98953 0.0
C652 C 0.13908 0.22339 0.98027 0.0
C653 C 0.11033 0.24918 0.11505 0.0
C654 C 0.08313 0.24598 0.10307 0.0
C655 C 0.16144 0.12905 0.96845 0.0
C656 C 0.10727 0.03749 0.08418 0.0
C657 C 0.10014 0.99403 0.11524 0.0
C658 C 0.07212 0.99387 0.10472 0.0
C659 C 0.0792 0.0362 0.07442 0.0
C660 C 0.11769 0.01628 0.10483 0.0
C661 C 0.06194 0.01451 0.08439 0.0
C662 C 0.19198 0.13935 0.03041 0.0
C663 C 0.12458 0.06236 0.07563 0.0
H664 H 0.19025 0.24817 0.86935 0.0
H665 H 0.18513 0.19995 0.95458 0.0
H666 H 0.20821 0.21107 0.90405 0.0
H667 H 0.12273 0.26289 0.93584 0.0
H668 H 0.05751 0.97817 0.11284 0.0
H669 H 0.07012 0.05249 0.05995 0.0
H670 H 0.13915 0.01735 0.11309 0.0
H671 H 0.04024 0.01407 0.07696 0.0
Tb672 Tb 0.84101 0.89021 0.7792 0.0
C673 C 0.96438 0.86642 0.82065 0.0
N674 N 0.95749 0.88999 0.80446 0.0
C675 C 0.9918 0.91623 0.83327 0.0
C676 C 0.98577 0.86679 0.8438 0.0
C677 C 0.97023 0.91486 0.81079 0.0
C678 C 0.99981 0.89201 0.84964 0.0
C679 C 0.95368 0.81831 0.83414 0.0
C680 C 0.94848 0.8425 0.81565 0.0
C681 C 0.97579 0.81815 0.85624 0.0
C682 C 0.99181 0.84233 0.86104 0.0
Tb683 Tb 0.92409 0.88554 0.76679 0.0
N684 N 0.92658 0.84377 0.79478 0.0
C685 C 0.93568 0.79544 0.83109 0.0
C686 C 0.90801 0.82192 0.79347 0.0
C687 C 0.91252 0.79746 0.81107 0.0
H688 H 0.96386 0.93358 0.79822 0.0
H689 H 0.89778 0.78031 0.80955 0.0
H690 H 0.84714 0.82721 0.81398 0.0
H691 H 0.77376 0.92795 0.68482 0.0
H692 H 0.88913 0.82295 0.77978 0.0
H693 H 0.93883 0.77659 0.84503 0.0
H694 H 0.80983 0.93218 0.7264 0.0
H695 H 0.00216 0.93593 0.83802 0.0
H696 H 0.98011 0.7997 0.87047 0.0
H697 H 0.00829 0.84212 0.87879 0.0
H698 H 0.82568 0.78089 0.80855 0.0
H699 H 0.01637 0.89316 0.86724 0.0
H700 H 0.75011 0.8826 0.67574 0.0
N701 N 0.82377 0.84555 0.77593 0.0
C702 C 0.80265 0.84175 0.75454 0.0
C703 C 0.81919 0.79778 0.793 0.0
C704 C 0.7896 0.81551 0.75087 0.0
C705 C 0.83159 0.82419 0.79572 0.0
C706 C 0.79821 0.79336 0.77039 0.0
N707 N 0.8081 0.88911 0.73966 0.0
C708 C 0.80047 0.91198 0.72205 0.0
C709 C 0.77367 0.861 0.71238 0.0
C710 C 0.79483 0.86419 0.73552 0.0
C711 C 0.76629 0.88418 0.69376 0.0
C712 C 0.77967 0.90979 0.69873 0.0
H713 H 0.78868 0.77286 0.76836 0.0
H714 H 0.75821 0.79219 0.72469 0.0
H715 H 0.74426 0.83203 0.691 0.0
O716 O 0.80729 0.91666 0.79057 0.0
O717 O 0.85654 0.92042 0.7435 0.0
O718 O 0.8968 0.89825 0.7268 0.0
O719 O 0.81964 0.88439 0.82293 0.0
O720 O 0.86417 0.92945 0.79027 0.0
O721 O 0.91202 0.92861 0.77751 0.0
O722 O 0.96092 0.86889 0.74479 0.0
O723 O 0.9106 0.89464 0.81688 0.0
O724 O 0.86997 0.87083 0.81347 0.0
O725 O 0.94848 0.91139 0.73739 0.0
O726 O 0.90151 0.85341 0.73881 0.0
O727 O 0.85338 0.86238 0.73944 0.0
C728 C 0.87785 0.91809 0.72364 0.0
C729 C 0.77111 0.89605 0.82154 0.0
C730 C 0.73085 0.888 0.8568 0.0
C731 C 0.71388 0.88434 0.82976 0.0
C732 C 0.75319 0.89304 0.79518 0.0
C733 C 0.72499 0.88682 0.79929 0.0
C734 C 0.75976 0.89345 0.85256 0.0
C735 C 0.88914 0.94158 0.78712 0.0
C736 C 0.80105 0.9035 0.8167 0.0
C737 C 0.7685 0.81221 0.72786 0.0
C738 C 0.76056 0.8349 0.70865 0.0
C739 C 0.88822 0.88429 0.83108 0.0
C740 C 0.99484 0.9005 0.72031 0.0
C741 C 0.0331 0.90281 0.68058 0.0
C742 C 0.04629 0.92296 0.69989 0.0
C743 C 0.0089 0.92063 0.73855 0.0
C744 C 0.0071 0.89157 0.69112 0.0
C745 C 0.03442 0.93157 0.72852 0.0
C746 C 0.87556 0.84873 0.72875 0.0
C747 C 0.96584 0.89185 0.72907 0.0
H748 H 0.69178 0.87976 0.83223 0.0
H749 H 0.76068 0.89605 0.77127 0.0
H750 H 0.71155 0.88439 0.7787 0.0
H751 H 0.77309 0.89653 0.87315 0.0
H752 H 0.06584 0.93249 0.69263 0.0
H753 H 0.99985 0.9287 0.76011 0.0
H754 H 0.99633 0.87617 0.67672 0.0
H755 H 0.04485 0.94728 0.7428 0.0
Tb756 Tb 0.86165 0.09232 0.53 0.0
C757 C 0.88319 0.21099 0.57467 0.0
N758 N 0.86029 0.20051 0.55941 0.0
C759 C 0.83028 0.22197 0.59799 0.0
C760 C 0.88042 0.22694 0.60269 0.0
C761 C 0.83404 0.20619 0.57032 0.0
C762 C 0.85355 0.2323 0.61433 0.0
C763 C 0.93381 0.21442 0.57852 0.0
C764 C 0.90963 0.20469 0.56279 0.0
C765 C 0.93109 0.23051 0.60632 0.0
C766 C 0.9045 0.23671 0.61838 0.0
Tb767 Tb 0.86971 0.17556 0.5144 0.0
N768 N 0.91154 0.18793 0.53663 0.0
C769 C 0.96 0.20748 0.566 0.0
C770 C 0.93702 0.18206 0.52362 0.0
C771 C 0.96159 0.19143 0.5383 0.0
H772 H 0.81592 0.19914 0.55753 0.0
H773 H 0.98174 0.18649 0.52804 0.0
H774 H 0.91705 0.06709 0.4919 0.0
H775 H 0.76096 0.04364 0.5503 0.0
H776 H 0.93871 0.17079 0.50157 0.0
H777 H 0.97909 0.21461 0.57734 0.0
H778 H 0.80022 0.07558 0.56251 0.0
H779 H 0.8094 0.22632 0.6066 0.0
H780 H 0.94945 0.23809 0.61879 0.0
H781 H 0.90277 0.24896 0.63998 0.0
H782 H 0.92604 0.03438 0.44786 0.0
H783 H 0.85053 0.24446 0.63581 0.0
H784 H 0.76371 0.01187 0.50403 0.0
N785 N 0.87319 0.05998 0.49234 0.0
C786 C 0.85217 0.04305 0.48234 0.0
C787 C 0.90502 0.03694 0.45694 0.0
C788 C 0.85641 0.02318 0.45808 0.0
C789 C 0.89975 0.05604 0.48142 0.0
C790 C 0.88312 0.0208 0.44475 0.0
N791 N 0.82456 0.06267 0.52269 0.0
C792 C 0.8015 0.06202 0.54196 0.0
C793 C 0.8051 0.02579 0.49037 0.0
C794 C 0.82691 0.04444 0.49812 0.0
C795 C 0.78092 0.02593 0.5091 0.0
C796 C 0.7793 0.04384 0.5353 0.0
H797 H 0.88728 0.00581 0.42602 0.0
H798 H 0.83692 0.99051 0.42996 0.0
H799 H 0.79194 0.99271 0.4584 0.0
O800 O 0.85771 0.05813 0.56159 0.0
O801 O 0.85551 0.10366 0.47954 0.0
O802 O 0.84443 0.15145 0.47976 0.0
O803 O 0.89395 0.08478 0.56329 0.0
O804 O 0.82152 0.11563 0.53336 0.0
O805 O 0.82511 0.16337 0.51919 0.0
O806 O 0.88809 0.19973 0.47746 0.0
O807 O 0.88442 0.15446 0.56002 0.0
O808 O 0.84977 0.12337 0.56518 0.0
O809 O 0.85328 0.21545 0.5033 0.0
O810 O 0.89468 0.14919 0.48318 0.0
O811 O 0.90251 0.11123 0.5156 0.0
C812 C 0.84308 0.12598 0.46723 0.0
C813 C 0.89842 0.03844 0.58537 0.0
C814 C 0.90457 0.99752 0.6208 0.0
C815 C 0.9323 0.99533 0.60962 0.0
C816 C 0.92592 0.03515 0.5745 0.0
C817 C 0.94265 0.01368 0.58654 0.0
C818 C 0.88767 0.01928 0.60811 0.0
C819 C 0.81049 0.14056 0.52664 0.0
C820 C 0.88142 0.06298 0.57556 0.0
C821 C 0.8342 0.0057 0.44883 0.0
C822 C 0.80859 0.00696 0.46502 0.0
C823 C 0.86879 0.13869 0.57892 0.0
C824 C 0.85494 0.22685 0.44808 0.0
C825 C 0.85117 0.25336 0.39725 0.0
C826 C 0.82543 0.23988 0.39171 0.0
C827 C 0.82942 0.21378 0.44094 0.0
C828 C 0.86583 0.24686 0.42605 0.0
C829 C 0.81488 0.22023 0.41312 0.0
C830 C 0.90797 0.12585 0.48946 0.0
C831 C 0.86936 0.21941 0.47872 0.0
H832 H 0.94635 0.97958 0.61904 0.0
H833 H 0.93468 0.04946 0.55713 0.0
H834 H 0.96399 0.01153 0.57833 0.0
H835 H 0.86619 0.02153 0.61576 0.0
H836 H 0.81293 0.24496 0.37096 0.0
H837 H 0.8204 0.1988 0.4573 0.0
H838 H 0.8855 0.25715 0.43121 0.0
H839 H 0.79504 0.21014 0.40829 0.0
Tb840 Tb 0.66164 0.12012 0.28032 0.0
C841 C 0.53641 0.13038 0.32089 0.0
N842 N 0.54911 0.10783 0.30738 0.0
C843 C 0.52509 0.07709 0.3433 0.0
C844 C 0.51769 0.12706 0.34652 0.0
C845 C 0.54328 0.08137 0.31771 0.0
C846 C 0.5123 0.10002 0.35784 0.0
C847 C 0.52985 0.18081 0.32284 0.0
C848 C 0.54255 0.15703 0.30928 0.0
C849 C 0.51084 0.17748 0.34804 0.0
C850 C 0.50491 0.15072 0.35995 0.0
Tb851 Tb 0.57646 0.11819 0.26468 0.0
N852 N 0.56182 0.15963 0.28556 0.0
C853 C 0.53701 0.20726 0.31104 0.0
C854 C 0.56821 0.18534 0.27333 0.0
C855 C 0.55621 0.20951 0.28615 0.0
H856 H 0.55183 0.06343 0.30571 0.0
H857 H 0.5615 0.22986 0.27651 0.0
H858 H 0.64797 0.16607 0.33769 0.0
H859 H 0.72473 0.12694 0.17352 0.0
H860 H 0.58189 0.18746 0.25321 0.0
H861 H 0.52777 0.22605 0.32089 0.0
H862 H 0.69769 0.10234 0.21474 0.0
H863 H 0.52059 0.05607 0.35148 0.0
H864 H 0.50092 0.19552 0.35879 0.0
H865 H 0.49041 0.14855 0.37961 0.0
H866 H 0.6576 0.21588 0.34827 0.0
H867 H 0.49808 0.09659 0.37752 0.0
H868 H 0.73334 0.17781 0.17809 0.0
N869 N 0.66801 0.1661 0.29259 0.0
C870 C 0.68427 0.18068 0.27175 0.0
C871 C 0.66495 0.20631 0.32649 0.0
C872 C 0.69048 0.20915 0.27692 0.0
C873 C 0.65919 0.17814 0.32027 0.0
C874 C 0.68043 0.22196 0.30459 0.0
N875 N 0.6882 0.13943 0.24079 0.0
C876 C 0.69996 0.12479 0.21628 0.0
C877 C 0.71041 0.18177 0.22226 0.0
C878 C 0.69413 0.16708 0.24474 0.0
C879 C 0.72083 0.16725 0.19593 0.0
C880 C 0.71589 0.13856 0.19318 0.0
H881 H 0.68477 0.2438 0.30944 0.0
H882 H 0.71107 0.24589 0.25769 0.0
H883 H 0.72844 0.22195 0.20985 0.0
O884 O 0.70081 0.10007 0.28051 0.0
O885 O 0.6514 0.09815 0.23568 0.0
O886 O 0.60232 0.09513 0.22984 0.0
O887 O 0.68585 0.12032 0.32268 0.0
O888 O 0.64302 0.07782 0.2824 0.0
O889 O 0.59362 0.07654 0.27759 0.0
O890 O 0.54888 0.13615 0.23069 0.0
O891 O 0.59537 0.13604 0.31013 0.0
O892 O 0.63417 0.10942 0.31987 0.0
O893 O 0.54042 0.09586 0.24992 0.0
O894 O 0.60072 0.14195 0.23024 0.0
O895 O 0.63386 0.15467 0.26531 0.0
C896 C 0.62839 0.09006 0.22051 0.0
C897 C 0.73541 0.11855 0.31563 0.0
C898 C 0.77663 0.12329 0.35041 0.0
C899 C 0.79114 0.13587 0.32515 0.0
C900 C 0.75054 0.13143 0.29095 0.0
C901 C 0.77811 0.14005 0.29576 0.0
C902 C 0.74855 0.11483 0.34565 0.0
C903 C 0.61852 0.06457 0.28219 0.0
C904 C 0.70681 0.10738 0.30959 0.0
C905 C 0.70629 0.22393 0.25428 0.0
C906 C 0.71614 0.2103 0.22699 0.0
C907 C 0.61298 0.12391 0.33056 0.0
C908 C 0.52667 0.10367 0.19577 0.0
C909 C 0.49874 0.10201 0.14574 0.0
C910 C 0.51759 0.08184 0.13416 0.0
C911 C 0.54495 0.08403 0.18253 0.0
C912 C 0.50334 0.11281 0.17711 0.0
C913 C 0.54041 0.07311 0.15226 0.0
C914 C 0.62345 0.15598 0.23629 0.0
C915 C 0.53277 0.11432 0.22873 0.0
H916 H 0.81256 0.14278 0.32831 0.0
H917 H 0.74129 0.13449 0.26771 0.0
H918 H 0.78953 0.14987 0.27651 0.0
H919 H 0.7372 0.10498 0.36498 0.0
H920 H 0.51464 0.07258 0.11086 0.0
H921 H 0.56283 0.07703 0.19582 0.0
H922 H 0.48929 0.12844 0.18668 0.0
H923 H 0.55476 0.05773 0.14273 0.0
Tb924 Tb 0.63079 0.90956 0.02879 0.0
C925 C 0.61071 0.79141 0.07447 0.0
N926 N 0.63578 0.79565 0.06013 0.0
C927 C 0.65814 0.76505 0.09764 0.0
C928 C 0.60852 0.77425 0.1017 0.0
C929 C 0.65944 0.78298 0.07132 0.0
C930 C 0.63256 0.76069 0.11295 0.0
C931 C 0.56084 0.80012 0.07595 0.0
C932 C 0.58724 0.80433 0.06165 0.0
C933 C 0.55875 0.78417 0.10399 0.0
C934 C 0.5825 0.77112 0.11673 0.0
Tb935 Tb 0.63549 0.82366 1.01632 0.0
N936 N 0.58998 0.81936 0.03414 0.0
C937 C 0.53712 0.81089 0.06082 0.0
C938 C 0.56638 0.82622 1.01735 0.0
C939 C 0.53985 0.82327 0.03093 0.0
H940 H 0.67933 0.78667 0.05991 0.0
H941 H 0.52141 0.82961 1.01776 0.0
H942 H 0.56246 0.92247 0.03117 0.0
H943 H 0.7112 0.97166 0.97299 0.0
H944 H 0.5672 0.83246 0.99285 0.0
H945 H 0.51649 0.80812 0.07099 0.0
H946 H 0.69051 0.94176 1.01522 0.0
H947 H 0.6769 0.75493 0.10639 0.0
H948 H 0.53868 0.78103 0.11543 0.0
H949 H 0.58046 0.75835 0.13794 0.0
H950 H 0.52732 0.94723 0.99812 0.0
H951 H 0.63169 0.74713 0.13363 0.0
H952 H 0.68116 0.98954 0.9293 0.0
N953 N 0.59663 0.93335 1.00119 0.0
C954 C 0.60512 0.94829 0.97554 0.0
C955 C 0.54916 0.94757 0.99137 0.0
C956 C 0.58593 0.96245 0.95578 0.0
C957 C 0.5691 0.93366 1.01007 0.0
C958 C 0.55751 0.96143 0.96363 0.0
N959 N 0.65052 0.94027 0.99344 0.0
C960 C 0.6778 0.94864 0.99549 0.0
C961 C 0.64367 0.96973 0.94748 0.0
C962 C 0.63335 0.95184 0.97141 0.0
C963 C 0.67232 0.97589 0.94729 0.0
C964 C 0.68934 0.96586 0.97192 0.0
H965 H 0.54204 0.97209 0.94914 0.0
H966 H 0.58153 0.98905 0.91415 0.0
H967 H 0.63232 0.99549 0.90691 0.0
O968 O 0.65349 0.92999 0.06558 0.0
O969 O 0.6555 0.8976 0.98681 0.0
O970 O 0.66026 0.84856 0.98162 0.0
O971 O 0.61038 0.93861 0.0583 0.0
O972 O 0.67233 0.88986 0.03906 0.0
O973 O 0.67636 0.84111 0.02883 0.0
O974 O 0.6198 0.79207 0.98539 0.0
O975 O 0.63868 0.84107 0.0663 0.0
O976 O 0.61047 0.87836 0.05918 0.0
O977 O 0.66098 0.7893 1.00394 0.0
O978 O 0.61421 0.84809 0.97944 0.0
O979 O 0.59693 0.88369 1.00901 0.0
C980 C 0.66544 0.87486 0.97284 0.0
C981 C 0.63751 0.97643 0.07595 0.0
C982 C 0.63999 0.01967 0.10751 0.0
C983 C 0.64165 0.03507 0.07897 0.0
C984 C 0.63862 0.99264 0.0481 0.0
C985 C 0.6411 0.02161 0.04961 0.0
C986 C 0.63837 0.99006 0.10577 0.0
C987 C 0.6867 0.86587 0.03718 0.0
C988 C 0.63262 0.94582 0.07376 0.0
C989 C 0.59593 0.9784 0.93002 0.0
C990 C 0.62484 0.98205 0.92587 0.0
C991 C 0.62451 0.86225 0.07883 0.0
C992 C 0.65461 0.77274 0.95094 0.0
C993 C 0.65582 0.74588 0.90039 0.0
C994 C 0.67879 0.76229 0.89086 0.0
C995 C 0.67695 0.78897 0.9396 0.0
C996 C 0.64398 0.75095 0.93107 0.0
C997 C 0.68897 0.78371 0.91007 0.0
C998 C 0.59962 0.87122 0.98122 0.0
C999 C 0.6434 0.77875 0.98363 0.0
H1000 H 0.64247 0.05772 0.07924 0.0
H1001 H 0.63672 0.98311 0.02507 0.0
H1002 H 0.64182 0.03379 0.02786 0.0
H1003 H 0.63734 0.97767 0.12736 0.0
H1004 H 0.68918 0.75844 0.86839 0.0
H1005 H 0.68552 0.80558 0.95394 0.0
H1006 H 0.6266 0.73831 0.93924 0.0
H1007 H 0.70648 0.79625 0.90208 0.0
Tb1008 Tb 0.8378 0.11484 0.77125 0.0
C1009 C 0.95867 0.1292 0.72219 0.0
N1010 N 0.94841 0.10784 0.74026 0.0
C1011 C 0.97122 0.07449 0.70647 0.0
C1012 C 0.97489 0.1239 0.69486 0.0
C1013 C 0.95531 0.08079 0.73345 0.0
C1014 C 0.98081 0.0961 0.6869 0.0
C1015 C 0.96266 0.17926 0.71279 0.0
C1016 C 0.95273 0.15659 0.73106 0.0
C1017 C 0.97869 0.17404 0.68544 0.0
C1018 C 0.98475 0.14644 0.67648 0.0
Tb1019 Tb 0.92286 0.12136 0.78349 0.0
N1020 N 0.9359 0.16085 0.75676 0.0
C1021 C 0.95587 0.20647 0.72239 0.0
C1022 C 0.93009 0.18733 0.76692 0.0
C1023 C 0.93972 0.21051 0.74971 0.0
H1024 H 0.94953 0.06409 0.7493 0.0
H1025 H 0.9348 0.23148 0.75762 0.0
H1026 H 0.81715 0.16695 0.81693 0.0
H1027 H 0.78736 0.01533 0.74861 0.0
H1028 H 0.91835 0.19077 0.78842 0.0
H1029 H 0.96314 0.22447 0.70902 0.0
H1030 H 0.81862 0.05518 0.73681 0.0
H1031 H 0.97642 0.05297 0.70106 0.0
H1032 H 0.9864 0.19118 0.67098 0.0
H1033 H 0.99716 0.14276 0.65533 0.0
H1034 H 0.78817 0.17361 0.86487 0.0
H1035 H 0.9932 0.09113 0.66608 0.0
H1036 H 0.75841 0.01565 0.79742 0.0
N1037 N 0.8088 0.12353 0.81337 0.0
C1038 C 0.79213 0.10228 0.82315 0.0
C1039 C 0.78947 0.15323 0.85375 0.0
C1040 C 0.77427 0.10517 0.84958 0.0
C1041 C 0.80653 0.14928 0.8271 0.0
C1042 C 0.77363 0.13089 0.86545 0.0
N1043 N 0.80839 0.07738 0.77911 0.0
C1044 C 0.80637 0.05536 0.75841 0.0
C1045 C 0.77354 0.05615 0.81289 0.0
C1046 C 0.79187 0.07826 0.80525 0.0
C1047 C 0.77224 0.03308 0.79245 0.0
C1048 C 0.78853 0.03284 0.76488 0.0
H1049 H 0.76018 0.13404 0.88587 0.0
H1050 H 0.74325 0.08436 0.87888 0.0
H1051 H 0.74256 0.04132 0.8466 0.0
O1052 O 0.8101 0.10894 0.73286 0.0
O1053 O 0.85169 0.10845 0.82079 0.0
O1054 O 0.89902 0.09574 0.81814 0.0
O1055 O 0.81817 0.15009 0.74999 0.0
O1056 O 0.86032 0.07454 0.76584 0.0
O1057 O 0.90859 0.07727 0.77802 0.0
O1058 O 0.94634 0.14184 0.81955 0.0
O1059 O 0.90122 0.13821 0.73918 0.0
O1060 O 0.86838 0.10512 0.73468 0.0
O1061 O 0.96273 0.10585 0.79674 0.0
O1062 O 0.89733 0.14714 0.81446 0.0
O1063 O 0.85981 0.15512 0.78168 0.0
C1064 C 0.87396 0.09506 0.83176 0.0
C1065 C 0.77262 0.14029 0.72831 0.0
C1066 C 0.7287 0.13851 0.69751 0.0
C1067 C 0.71415 0.14669 0.72503 0.0
C1068 C 0.75735 0.14827 0.75529 0.0
C1069 C 0.72838 0.1515 0.75358 0.0
C1070 C 0.75816 0.13559 0.6993 0.0
C1071 C 0.88531 0.06312 0.77096 0.0
C1072 C 0.80318 0.13496 0.73056 0.0
C1073 C 0.75697 0.0827 0.85846 0.0
C1074 C 0.75657 0.05821 0.84008 0.0
C1075 C 0.88345 0.12429 0.72093 0.0
C1076 C 0.97403 0.11128 0.8517 0.0
C1077 C 0.00276 0.1084 0.90104 0.0
C1078 C 0.98589 0.08587 0.91094 0.0
C1079 C 0.95809 0.08884 0.86299 0.0
C1080 C 0.99663 0.12118 0.87094 0.0
C1081 C 0.96382 0.07636 0.89224 0.0
C1082 C 0.87437 0.16083 0.80781 0.0
C1083 C 0.96646 0.12355 0.81986 0.0
H1084 H 0.69172 0.14981 0.72436 0.0
H1085 H 0.76774 0.15188 0.77777 0.0
H1086 H 0.71685 0.15779 0.77454 0.0
H1087 H 0.76974 0.12921 0.67836 0.0
H1088 H 0.99002 0.07512 0.9332 0.0
H1089 H 0.94123 0.08079 0.84879 0.0
H1090 H 0.00902 0.13871 0.8627 0.0
H1091 H 0.95118 0.059 0.90041 0.0
Tb1092 Tb 0.63731 0.09551 0.52351 0.0
C1093 C 0.62111 0.21906 0.47444 0.0
N1094 N 0.64319 0.20552 0.4881 0.0
C1095 C 0.67419 0.22587 0.44953 0.0
C1096 C 0.62484 0.23656 0.44769 0.0
C1097 C 0.66963 0.20908 0.47634 0.0
C1098 C 0.65174 0.23965 0.43513 0.0
C1099 C 0.57114 0.2286 0.47343 0.0
C1100 C 0.59446 0.21499 0.487 0.0
C1101 C 0.57494 0.24656 0.44729 0.0
C1102 C 0.60167 0.25039 0.43434 0.0
Tb1103 Tb 0.63206 0.18069 0.53288 0.0
N1104 N 0.59134 0.19685 0.51178 0.0
C1105 C 0.54464 0.22347 0.48632 0.0
C1106 C 0.56568 0.19236 0.52501 0.0
C1107 C 0.54192 0.2053 0.51223 0.0
H1108 H 0.68755 0.19972 0.48767 0.0
H1109 H 0.52157 0.20155 0.52266 0.0
H1110 H 0.57091 0.07385 0.52348 0.0
H1111 H 0.72758 0.0594 0.58954 0.0
H1112 H 0.56338 0.17942 0.54586 0.0
H1113 H 0.52618 0.23349 0.47653 0.0
H1114 H 0.70341 0.08433 0.54606 0.0
H1115 H 0.69514 0.2285 0.44025 0.0
H1116 H 0.55727 0.25723 0.43656 0.0
H1117 H 0.60419 0.264 0.41387 0.0
H1118 H 0.54056 0.04534 0.55822 0.0
H1119 H 0.65544 0.25278 0.4145 0.0
H1120 H 0.70052 0.03108 0.62798 0.0
N1121 N 0.60709 0.06864 0.55256 0.0
C1122 C 0.61875 0.05442 0.57729 0.0
C1123 C 0.56247 0.04794 0.56405 0.0
C1124 C 0.60235 0.03741 0.59738 0.0
C1125 C 0.57969 0.06432 0.54461 0.0
C1126 C 0.57373 0.03484 0.59091 0.0
N1127 N 0.66273 0.07134 0.56057 0.0
C1128 C 0.69125 0.07224 0.56275 0.0
C1129 C 0.6606 0.04045 0.60597 0.0
C1130 C 0.64754 0.05551 0.58121 0.0
C1131 C 0.68971 0.04211 0.60904 0.0
C1132 C 0.70508 0.05801 0.58729 0.0
H1133 H 0.56037 0.02204 0.60583 0.0
H1134 H 0.60287 0.00983 0.63843 0.0
H1135 H 0.65384 0.01278 0.64619 0.0
O1136 O 0.65865 0.06309 0.50014 0.0
O1137 O 0.64743 0.11222 0.5715 0.0
O1138 O 0.66094 0.15897 0.56546 0.0
O1139 O 0.61595 0.07195 0.4882 0.0
O1140 O 0.67712 0.11684 0.51273 0.0
O1141 O 0.67511 0.16515 0.52422 0.0
O1142 O 0.61571 0.20391 0.57155 0.0
O1143 O 0.61253 0.16044 0.48944 0.0
O1144 O 0.64336 0.12517 0.48459 0.0
O1145 O 0.64875 0.22058 0.54329 0.0
O1146 O 0.60668 0.15465 0.56437 0.0
O1147 O 0.59753 0.11838 0.53066 0.0
C1148 C 0.66105 0.13486 0.581 0.0
C1149 C 0.63212 0.02495 0.48071 0.0
C1150 C 0.62799 0.98201 0.44835 0.0
C1151 C 0.62796 0.96635 0.47682 0.0
C1152 C 0.63197 0.00848 0.50834 0.0
C1153 C 0.62969 0.97948 0.50638 0.0
C1154 C 0.6298 0.01164 0.45066 0.0
C1155 C 0.68872 0.142 0.5157 0.0
C1156 C 0.63724 0.05556 0.48301 0.0
C1157 C 0.61517 0.0228 0.62254 0.0
C1158 C 0.64422 0.02436 0.62686 0.0
C1159 C 0.62361 0.14034 0.47183 0.0
C1160 C 0.6492 0.23219 0.5984 0.0
C1161 C 0.65367 0.25933 0.64829 0.0
C1162 C 0.67923 0.24568 0.65416 0.0
C1163 C 0.67488 0.21927 0.60525 0.0
C1164 C 0.6387 0.25258 0.61998 0.0
C1165 C 0.68965 0.2259 0.63287 0.0
C1166 C 0.59225 0.13225 0.55719 0.0
C1167 C 0.63377 0.22411 0.56881 0.0
H1168 H 0.62719 0.9437 0.47633 0.0
H1169 H 0.63432 0.01792 0.53148 0.0
H1170 H 0.62987 0.96702 0.52794 0.0
H1171 H 0.62956 0.02441 0.42934 0.0
H1172 H 0.69148 0.25068 0.67512 0.0
H1173 H 0.6837 0.20416 0.589 0.0
H1174 H 0.61899 0.26287 0.61495 0.0
H1175 H 0.70946 0.21576 0.63772 0.0
Tb1176 Tb 0.66074 0.88813 0.27091 0.0
C1177 C 0.54359 0.8798 0.21929 0.0
N1178 N 0.55475 0.9012 0.23662 0.0
C1179 C 0.53797 0.93434 0.19807 0.0
C1180 C 0.52979 0.8849 0.19017 0.0
C1181 C 0.5516 0.92831 0.22678 0.0
C1182 C 0.52717 0.91257 0.1796 0.0
C1183 C 0.5364 0.82972 0.21259 0.0
C1184 C 0.54679 0.85245 0.23035 0.0
C1185 C 0.52257 0.83479 0.1836 0.0
C1186 C 0.5193 0.86228 0.17243 0.0
Tb1187 Tb 0.5761 0.88758 0.28284 0.0
N1188 N 0.56164 0.84813 0.25765 0.0
C1189 C 0.54057 0.80258 0.22434 0.0
C1190 C 0.56497 0.82188 0.26981 0.0
C1191 C 0.55472 0.79867 0.25319 0.0
H1192 H 0.55902 0.94552 0.24104 0.0
H1193 H 0.55765 0.7778 0.26269 0.0
H1194 H 0.67336 0.81975 0.28325 0.0
H1195 H 0.72411 0.97717 0.30296 0.0
H1196 H 0.57519 0.81883 0.29244 0.0
H1197 H 0.53285 0.78454 0.21143 0.0
H1198 H 0.68913 0.95126 0.27128 0.0
H1199 H 0.53568 0.95582 0.19026 0.0
H1200 H 0.51451 0.81759 0.16952 0.0
H1201 H 0.50872 0.86581 0.14993 0.0
H1202 H 0.69946 0.79111 0.32195 0.0
H1203 H 0.51673 0.91737 0.15733 0.0
H1204 H 0.74898 0.95337 0.34711 0.0
N1205 N 0.68531 0.85865 0.30396 0.0
C1206 C 0.70355 0.87139 0.32409 0.0
C1207 C 0.70047 0.81372 0.32322 0.0
C1208 C 0.71956 0.85585 0.34615 0.0
C1209 C 0.68536 0.8301 0.30156 0.0
C1210 C 0.71709 0.82667 0.34621 0.0
N1211 N 0.69381 0.91354 0.29731 0.0
C1212 C 0.6997 0.94084 0.29052 0.0
C1213 C 0.72819 0.91367 0.33935 0.0
C1214 C 0.70808 0.89981 0.32052 0.0
C1215 C 0.7336 0.94197 0.33327 0.0
C1216 C 0.71966 0.95546 0.30834 0.0
H1217 H 0.72899 0.81395 0.36277 0.0
H1218 H 0.75079 0.85822 0.38356 0.0
H1219 H 0.75821 0.90896 0.37774 0.0
O1220 O 0.69725 0.8974 0.24411 0.0
O1221 O 0.64913 0.90853 0.31617 0.0
O1222 O 0.59998 0.90913 0.32051 0.0
O1223 O 0.67189 0.86147 0.23368 0.0
O1224 O 0.64131 0.92962 0.26213 0.0
O1225 O 0.59364 0.92988 0.2773 0.0
O1226 O 0.5477 0.86968 0.31586 0.0
O1227 O 0.59897 0.86838 0.24101 0.0
O1228 O 0.63344 0.89933 0.23072 0.0
O1229 O 0.53802 0.90821 0.29277 0.0
O1230 O 0.59859 0.86232 0.31757 0.0
O1231 O 0.63456 0.85172 0.28487 0.0
C1232 C 0.62551 0.91511 0.33089 0.0
C1233 C 0.71982 0.85859 0.21893 0.0
C1234 C 0.76356 0.85302 0.18876 0.0
C1235 C 0.7648 0.825 0.19917 0.0
C1236 C 0.72184 0.83052 0.22863 0.0
C1237 C 0.7443 0.81403 0.21912 0.0
C1238 C 0.74084 0.86977 0.19898 0.0
C1239 C 0.61719 0.9425 0.26852 0.0
C1240 C 0.69449 0.8753 0.22636 0.0
C1241 C 0.73856 0.86976 0.36619 0.0
C1242 C 0.74285 0.89864 0.36281 0.0
C1243 C 0.61421 0.88231 0.21992 0.0
C1244 C 0.52368 0.90373 0.34689 0.0
C1245 C 0.49601 0.90579 0.39684 0.0
C1246 C 0.51216 0.92903 0.4061 0.0
C1247 C 0.53908 0.92698 0.3574 0.0
C1248 C 0.50198 0.89311 0.36682 0.0
C1249 C 0.53339 0.9394 0.38666 0.0
C1250 C 0.62195 0.84894 0.31267 0.0
C1251 C 0.53078 0.89095 0.31533 0.0
H1252 H 0.78106 0.81102 0.19106 0.0
H1253 H 0.70561 0.82084 0.2426 0.0
H1254 H 0.74537 0.79232 0.22646 0.0
H1255 H 0.73912 0.89123 0.19083 0.0
H1256 H 0.5081 0.93962 0.42841 0.0
H1257 H 0.55562 0.93573 0.34287 0.0
H1258 H 0.49014 0.875 0.35916 0.0
H1259 H 0.54547 0.95736 0.39428 0.0
Tb1260 Tb 0.85937 0.91753 0.02543 0.0
C1261 C 0.87734 0.80015 0.96926 0.0
N1262 N 0.85541 0.8108 0.98609 0.0
C1263 C 0.8234 0.79415 0.94633 0.0
C1264 C 0.87307 0.78664 0.93983 0.0
C1265 C 0.8286 0.80751 0.97536 0.0
C1266 C 0.84569 0.7838 0.92842 0.0
C1267 C 0.92765 0.79419 0.96357 0.0
C1268 C 0.90442 0.80386 0.98096 0.0
C1269 C 0.92338 0.78046 0.9344 0.0
C1270 C 0.89619 0.77675 0.92255 0.0
Tb1271 Tb 0.86778 0.8316 0.03296 0.0
N1272 N 0.90797 0.81877 1.0083 0.0
C1273 C 0.95451 0.79925 0.97566 0.0
C1274 C 0.93401 0.82334 1.02054 0.0
C1275 C 0.95767 0.81378 1.00432 0.0
H1276 H 0.81097 0.81464 0.98907 0.0
H1277 H 0.97835 0.81759 1.01394 0.0
H1278 H 0.92654 0.9367 1.01919 0.0
H1279 H 0.77584 0.96486 0.09286 0.0
H1280 H 0.93661 0.83409 0.04292 0.0
H1281 H 0.97291 0.79212 0.96302 0.0
H1282 H 0.79613 0.93732 0.04872 0.0
H1283 H 0.80215 0.79172 0.93784 0.0
H1284 H 0.94098 0.77299 0.9206 0.0
H1285 H 0.89329 0.76641 0.89984 0.0
H1286 H 0.96082 0.9627 0.05179 0.0
H1287 H 0.84153 0.77358 0.90589 0.0
H1288 H 0.80699 0.98791 0.13201 0.0
N1289 N 0.8931 0.94237 0.05204 0.0
C1290 C 0.8841 0.95647 0.07813 0.0
C1291 C 0.93936 0.96086 0.05968 0.0
C1292 C 0.90279 0.97198 0.09718 0.0
C1293 C 0.9199 0.94601 0.04138 0.0
C1294 C 0.93093 0.9733 0.08815 0.0
N1295 N 0.83819 0.94426 0.06337 0.0
C1296 C 0.80982 0.94744 0.06566 0.0
C1297 C 0.84503 0.97367 0.10925 0.0
C1298 C 0.85562 0.95764 0.08388 0.0
C1299 C 0.81597 0.97582 0.11278 0.0
C1300 C 0.79831 0.96292 0.09065 0.0
H1301 H 0.94601 0.98493 0.10218 0.0
H1302 H 0.90664 0.99859 0.13873 0.0
H1303 H 0.85603 0.99988 0.14945 0.0
O1304 O 0.83639 0.9494 1.00287 0.0
O1305 O 0.84328 0.90179 0.07108 0.0
O1306 O 0.8462 0.85267 0.07224 0.0
O1307 O 0.87829 0.94063 0.98808 0.0
O1308 O 0.81939 0.89502 1.0197 0.0
O1309 O 0.82394 0.84639 0.02925 0.0
O1310 O 0.88686 0.80427 0.06651 0.0
O1311 O 0.88529 0.85557 0.99074 0.0
O1312 O 0.85199 0.88852 0.98608 0.0
O1313 O 0.84995 0.79189 0.04192 0.0
O1314 O 0.89294 0.85597 0.06593 0.0
O1315 O 0.89873 0.89403 0.03413 0.0
C1316 C 0.83935 0.87714 0.08459 0.0
C1317 C 0.8619 0.98749 0.9821 0.0
C1318 C 0.86485 0.03036 0.94991 0.0
C1319 C 0.86795 0.04592 0.97805 0.0
C1320 C 0.86515 0.00363 1.00972 0.0
C1321 C 0.86819 0.03261 1.00767 0.0
C1322 C 0.86178 1.00096 0.95215 0.0
C1323 C 0.80894 0.86946 1.02399 0.0
C1324 C 0.85675 0.95701 0.9844 0.0
C1325 C 0.89255 0.98684 0.12356 0.0
C1326 C 0.86372 0.98765 0.1296 0.0
C1327 C 0.87181 0.87396 0.9727 0.0
C1328 C 0.85333 0.77823 0.09649 0.0
C1329 C 0.8504 0.7512 0.14701 0.0
C1330 C 0.82527 0.76528 0.15378 0.0
C1331 C 0.82867 0.79217 0.10515 0.0
C1332 C 0.86425 0.7575 0.11768 0.0
C1333 C 0.81467 0.78552 0.13315 0.0
C1334 C 0.90402 0.88057 0.06105 0.0
C1335 C 0.86684 0.7859 0.06536 0.0
H1336 H 0.87062 0.06843 0.97711 0.0
H1337 H 0.86489 0.99394 0.03292 0.0
H1338 H 0.87065 0.04484 0.02916 0.0
H1339 H 0.85883 0.98866 0.93074 0.0
H1340 H 0.81345 0.7604 0.17507 0.0
H1341 H 0.81997 0.80822 0.09002 0.0
H1342 H 0.88338 0.74663 0.11159 0.0
H1343 H 0.79534 0.79616 0.1388 0.0
Tb1344 Tb 0.57966 0.61539 0.78253 0.0
C1345 C 0.70723 0.64469 0.82165 0.0
N1346 N 0.69069 0.65278 0.79709 0.0
C1347 C 0.70521 0.70046 0.80456 0.0
C1348 C 0.72269 0.66426 0.83953 0.0
C1349 C 0.6905 0.68011 0.78738 0.0
C1350 C 0.72097 0.69257 0.83115 0.0
C1351 C 0.72833 0.60665 0.85123 0.0
C1352 C 0.71002 0.61647 0.82739 0.0
C1353 C 0.74293 0.62601 0.87016 0.0
C1354 C 0.74007 0.6548 0.86436 0.0
Tb1355 Tb 0.66572 0.61823 0.77203 0.0
N1356 N 0.69555 0.59858 0.80855 0.0
C1357 C 0.73169 0.57771 0.85491 0.0
C1358 C 0.69996 0.57035 0.81082 0.0
C1359 C 0.71769 0.55949 0.83433 0.0
H1360 H 0.6787 0.68623 0.7665 0.0
H1361 H 0.72074 0.53711 0.83636 0.0
H1362 H 0.54811 0.56491 0.74366 0.0
H1363 H 0.57402 0.72861 0.7696 0.0
H1364 H 0.68997 0.55633 0.79425 0.0
H1365 H 0.74551 0.56928 0.87302 0.0
H1366 H 0.58215 0.68499 0.79868 0.0
H1367 H 0.7044 0.72218 0.79725 0.0
H1368 H 0.75687 0.61893 0.88888 0.0
H1369 H 0.75194 0.66951 0.87861 0.0
H1370 H 0.52112 0.55966 0.6936 0.0
H1371 H 0.73243 0.70833 0.84433 0.0
H1372 H 0.55331 0.72743 0.71566 0.0
N1373 N 0.55336 0.60873 0.73816 0.0
C1374 C 0.54746 0.63193 0.72071 0.0
C1375 C 0.52849 0.58009 0.7009 0.0
C1376 C 0.53216 0.63003 0.6921 0.0
C1377 C 0.54383 0.58305 0.72909 0.0
C1378 C 0.52277 0.60366 0.6822 0.0
N1379 N 0.57145 0.65844 0.75972 0.0
C1380 C 0.57568 0.68368 0.77424 0.0
C1381 C 0.55057 0.68222 0.71466 0.0
C1382 C 0.55714 0.65756 0.73162 0.0
C1383 C 0.55804 0.70799 0.72787 0.0
C1384 C 0.56996 0.70872 0.75818 0.0
H1385 H 0.51094 0.6013 0.66034 0.0
H1386 H 0.51503 0.65343 0.65233 0.0
H1387 H 0.53044 0.6992 0.6726 0.0
O1388 O 0.54742 0.63296 0.81082 0.0
O1389 O 0.59873 0.6102 0.73356 0.0
O1390 O 0.63573 0.63889 0.74007 0.0
O1391 O 0.54723 0.58935 0.79975 0.0
O1392 O 0.60385 0.64173 0.81538 0.0
O1393 O 0.63851 0.65401 0.78176 0.0
O1394 O 0.6811 0.59503 0.73267 0.0
O1395 O 0.65265 0.60003 0.81822 0.0
O1396 O 0.60366 0.59467 0.82067 0.0
O1397 O 0.69923 0.63431 0.74553 0.0
O1398 O 0.6467 0.5758 0.76749 0.0
O1399 O 0.59752 0.57379 0.77523 0.0
C1400 C 0.61944 0.62479 0.72066 0.0
C1401 C 0.50413 0.60862 0.81924 0.0
C1402 C 0.46226 0.61224 0.85358 0.0
C1403 C 0.44592 0.60388 0.82731 0.0
C1404 C 0.487 0.60113 0.79356 0.0
C1405 C 0.45813 0.59866 0.79768 0.0
C1406 C 0.49166 0.61417 0.84932 0.0
C1407 C 0.6264 0.65638 0.80966 0.0
C1408 C 0.53507 0.60916 0.8157 0.0
C1409 C 0.52668 0.65441 0.67446 0.0
C1410 C 0.53571 0.68046 0.68583 0.0
C1411 C 0.62932 0.59115 0.832 0.0
C1412 C 0.72955 0.60297 0.72052 0.0
C1413 C 0.77251 0.60511 0.68879 0.0
C1414 C 0.78638 0.58956 0.7124 0.0
C1415 C 0.74389 0.58719 0.74349 0.0
C1416 C 0.74397 0.61178 0.69299 0.0
C1417 C 0.77207 0.58053 0.73945 0.0
C1418 C 0.62235 0.56229 0.76995 0.0
C1419 C 0.7008 0.61313 0.72649 0.0
H1420 H 0.42353 0.60115 0.82967 0.0
H1421 H 0.49596 0.59675 0.77044 0.0
H1422 H 0.44511 0.59244 0.7778 0.0
H1423 H 0.5048 0.62008 0.86926 0.0
H1424 H 0.80821 0.58396 0.70961 0.0
H1425 H 0.73357 0.5804 0.7648 0.0
H1426 H 0.7332 0.62427 0.67521 0.0
H1427 H 0.78291 0.56843 0.75746 0.0
Tb1428 Tb 0.63587 0.32503 0.02894 0.0
C1429 C 0.61838 0.4508 0.07786 0.0
N1430 N 0.60791 0.43691 0.05227 0.0
C1431 C 0.56301 0.45808 0.06069 0.0
C1432 C 0.60105 0.46764 0.09703 0.0
C1433 C 0.58101 0.44152 0.04246 0.0
C1434 C 0.57288 0.47064 0.08853 0.0
C1435 C 0.65893 0.46536 0.10854 0.0
C1436 C 0.64705 0.45018 0.08316 0.0
C1437 C 0.64149 0.48081 0.12886 0.0
C1438 C 0.61263 0.48202 0.12306 0.0
Tb1439 Tb 0.63975 0.41113 0.02453 0.0
N1440 N 0.66337 0.43528 0.06284 0.0
C1441 C 0.68799 0.46465 0.11263 0.0
C1442 C 0.69186 0.43542 0.06591 0.0
C1443 C 0.70451 0.44969 0.09118 0.0
H1444 H 0.57322 0.43193 1.02088 0.0
H1445 H 0.72695 0.44904 0.09423 0.0
H1446 H 0.69275 0.30158 0.99018 0.0
H1447 H 0.52537 0.31279 1.00699 0.0
H1448 H 0.70478 0.42392 0.04944 0.0
H1449 H 0.69789 0.47577 0.13209 0.0
H1450 H 0.56701 0.32833 0.03714 0.0
H1451 H 0.5415 0.46105 0.05331 0.0
H1452 H 0.65019 0.49239 0.1487 0.0
H1453 H 0.59957 0.49477 0.13831 0.0
H1454 H 0.70229 0.27647 0.94039 0.0
H1455 H 0.55889 0.48346 0.10257 0.0
H1456 H 0.53111 0.28733 0.95613 0.0
N1457 N 0.64844 0.30165 0.98374 0.0
C1458 C 0.62664 0.29209 0.96586 0.0
C1459 C 0.68092 0.28098 0.94714 0.0
C1460 C 0.63123 0.27717 0.93741 0.0
C1461 C 0.67537 0.29569 0.9752 0.0
C1462 C 0.65879 0.27185 0.92805 0.0
N1463 N 0.59587 0.31264 1.00309 0.0
C1464 C 0.56972 0.31751 1.01483 0.0
C1465 C 0.57639 0.28821 0.95805 0.0
C1466 C 0.59951 0.29741 0.97604 0.0
C1467 C 0.54945 0.29408 0.96926 0.0
C1468 C 0.54611 0.30856 0.99791 0.0
H1469 H 0.6632 0.26047 0.90633 0.0
H1470 H 0.61137 0.25677 0.8972 0.0
H1471 H 0.5634 0.26645 0.91526 0.0
O1472 O 0.61776 0.30068 0.06581 0.0
O1473 O 0.61466 0.34966 0.99014 0.0
O1474 O 0.6447 0.38564 0.98153 0.0
O1475 O 0.65142 0.2844 0.03848 0.0
O1476 O 0.61196 0.34814 0.06374 0.0
O1477 O 0.60061 0.38805 0.03653 0.0
O1478 O 0.6608 0.4458 1.00497 0.0
O1479 O 0.65323 0.39256 0.07035 0.0
O1480 O 0.66509 0.34542 0.06226 0.0
O1481 O 0.61967 0.43493 0.98857 0.0
O1482 O 0.67978 0.39078 1.01319 0.0
O1483 O 0.67823 0.34164 1.01904 0.0
C1484 C 0.62671 0.36756 0.97043 0.0
C1485 C 0.65026 0.27161 0.09346 0.0
C1486 C 0.6536 0.24361 0.1432 0.0
C1487 C 0.67861 0.25775 0.15041 0.0
C1488 C 0.67559 0.28462 0.10159 0.0
C1489 C 0.68947 0.27789 0.12979 0.0
C1490 C 0.63934 0.25074 0.11438 0.0
C1491 C 0.5981 0.37168 0.06197 0.0
C1492 C 0.63571 0.28037 0.06335 0.0
C1493 C 0.60823 0.2681 0.91923 0.0
C1494 C 0.5809 0.27361 0.92952 0.0
C1495 C 0.6661 0.36911 0.0786 0.0
C1496 C 0.63396 0.4827 0.98258 0.0
C1497 C 0.63175 0.52547 0.94983 0.0
C1498 C 0.62563 0.54084 0.97746 0.0
C1499 C 0.62818 0.49881 1.00964 0.0
C1500 C 0.63546 0.49614 0.9525 0.0
C1501 C 0.62381 0.52758 1.00703 0.0
C1502 C 0.69147 0.36559 1.01283 0.0
C1503 C 0.64046 0.45243 0.98572 0.0
H1504 H 0.69019 0.2528 0.1719 0.0
H1505 H 0.68484 0.29995 0.08589 0.0
H1506 H 0.70896 0.28823 0.13563 0.0
H1507 H 0.61986 0.24039 0.10845 0.0
H1508 H 0.62213 0.56321 0.97616 0.0
H1509 H 0.62747 0.48932 0.0329 0.0
H1510 H 0.64026 0.48398 0.93144 0.0
H1511 H 0.61927 0.53974 0.02812 0.0
Tb1512 Tb 0.9266 0.38571 0.28383 0.0
C1513 C 0.79478 0.39516 0.31996 0.0
N1514 N 0.81247 0.37519 0.3092 0.0
C1515 C 0.79423 0.34277 0.34765 0.0
C1516 C 0.77695 0.39023 0.34607 0.0
C1517 C 0.81118 0.34874 0.32137 0.0
C1518 C 0.77742 0.36381 0.3605 0.0
C1519 C 0.77401 0.44068 0.31199 0.0
C1520 C 0.79348 0.41989 0.30335 0.0
C1521 C 0.75715 0.43666 0.33901 0.0
C1522 C 0.75866 0.41145 0.35609 0.0
Tb1523 Tb 0.84144 0.38717 0.26804 0.0
N1524 N 0.80995 0.42267 0.2773 0.0
C1525 C 0.77131 0.46428 0.29252 0.0
C1526 C 0.80647 0.44517 0.25742 0.0
C1527 C 0.78726 0.46626 0.26481 0.0
H1528 H 0.82231 0.332 0.31005 0.0
H1529 H 0.78473 0.484 0.24913 0.0
H1530 H 0.95219 0.44513 0.25293 0.0
H1531 H 0.94834 0.27699 0.25992 0.0
H1532 H 0.81863 0.44697 0.23581 0.0
H1533 H 0.75648 0.48067 0.29817 0.0
H1534 H 0.92516 0.31615 0.28729 0.0
H1535 H 0.79373 0.32183 0.35752 0.0
H1536 H 0.7423 0.45253 0.34629 0.0
H1537 H 0.74499 0.40824 0.37632 0.0
H1538 H 0.9831 0.45841 0.20869 0.0
H1539 H 0.76405 0.35911 0.38062 0.0
H1540 H 0.98204 0.28641 0.21656 0.0
N1541 N 0.95464 0.40144 0.24367 0.0
C1542 C 0.96814 0.38097 0.22723 0.0
C1543 C 0.97873 0.43655 0.21333 0.0
C1544 C 0.98713 0.38759 0.20268 0.0
C1545 C 0.96049 0.42896 0.23788 0.0
C1546 C 0.99193 0.41579 0.19547 0.0
N1547 N 0.94398 0.34749 0.25834 0.0
C1548 C 0.93905 0.32058 0.26777 0.0
C1549 C 0.97736 0.33142 0.21946 0.0
C1550 C 0.96324 0.35317 0.23537 0.0
C1551 C 0.97168 0.30373 0.22827 0.0
C1552 C 0.95251 0.29831 0.25259 0.0
H1553 H 0.00632 0.42175 0.17673 0.0
H1554 H 0.01568 0.37067 0.1676 0.0
H1555 H 0.00725 0.32155 0.18239 0.0
O1556 O 0.94859 0.36588 0.32153 0.0
O1557 O 0.90846 0.3671 0.23864 0.0
O1558 O 0.87307 0.39751 0.23297 0.0
O1559 O 0.96465 0.40303 0.30057 0.0
O1560 O 0.90122 0.35856 0.31349 0.0
O1561 O 0.86534 0.34806 0.27922 0.0
O1562 O 0.81427 0.39256 0.22904 0.0
O1563 O 0.85447 0.39344 0.31758 0.0
O1564 O 0.90014 0.41084 0.31591 0.0
O1565 O 0.82411 0.35146 0.24558 0.0
O1566 O 0.86149 0.42892 0.26269 0.0
O1567 O 0.90974 0.42878 0.27557 0.0
C1568 C 0.88912 0.37865 0.22021 0.0
C1569 C 0.9739 0.3964 0.35585 0.0
C1570 C 1.00089 0.39849 0.40629 0.0
C1571 C 0.98343 0.42054 0.41613 0.0
C1572 C 0.9567 0.41774 0.36737 0.0
C1573 C 0.96146 0.42982 0.39702 0.0
C1574 C 0.99624 0.38668 0.37551 0.0
C1575 C 0.87966 0.34315 0.30579 0.0
C1576 C 0.96798 0.38486 0.32338 0.0
C1577 C 1.00103 0.36596 0.18653 0.0
C1578 C 0.99631 0.33798 0.19503 0.0
C1579 C 0.87463 0.40981 0.32827 0.0
C1580 C 0.77833 0.35954 0.22404 0.0
C1581 C 0.73438 0.36094 0.1937 0.0
C1582 C 0.72016 0.35107 0.22072 0.0
C1583 C 0.76353 0.34959 0.25058 0.0
C1584 C 0.76363 0.36493 0.19544 0.0
C1585 C 0.73468 0.34537 0.24887 0.0
C1586 C 0.88588 0.44168 0.2676 0.0
C1587 C 0.80855 0.36624 0.22637 0.0
H1588 H 0.98689 0.43093 0.4387 0.0
H1589 H 0.93965 0.42522 0.35306 0.0
H1590 H 0.94808 0.44659 0.40522 0.0
H1591 H 0.00961 0.36996 0.36712 0.0
H1592 H 0.69781 0.34737 0.21992 0.0
H1593 H 0.77414 0.34521 0.27272 0.0
H1594 H 0.77482 0.37271 0.1748 0.0
H1595 H 0.7235 0.33768 0.2695 0.0
Tb1596 Tb 0.86908 0.67438 0.52978 0.0
C1597 C 0.89051 0.55085 0.5718 0.0
N1598 N 0.90071 0.56498 0.54636 0.0
C1599 C 0.94714 0.54935 0.5595 0.0
C1600 C 0.90827 0.53645 0.59306 0.0
C1601 C 0.92852 0.56305 0.53893 0.0
C1602 C 0.93706 0.53664 0.58718 0.0
C1603 C 0.85005 0.53042 0.59718 0.0
C1604 C 0.86203 0.54811 0.57409 0.0
C1605 C 0.86737 0.5178 0.62016 0.0
C1606 C 0.89652 0.52093 0.61818 0.0
Tb1607 Tb 0.86865 0.58943 0.51615 0.0
N1608 N 0.84629 0.56022 0.55103 0.0
C1609 C 0.82143 0.52449 0.59504 0.0
C1610 C 0.81892 0.55262 0.54713 0.0
C1611 C 0.80601 0.5349 0.56929 0.0
H1612 H 0.93649 0.5729 0.51757 0.0
H1613 H 0.7842 0.52934 0.56653 0.0
H1614 H 0.81919 0.70799 0.49185 0.0
H1615 H 0.98189 0.67149 0.51283 0.0
H1616 H 0.80699 0.56084 0.5273 0.0
H1617 H 0.8114 0.51077 0.61212 0.0
H1618 H 0.93876 0.66627 0.54347 0.0
H1619 H 0.96925 0.54874 0.55406 0.0
H1620 H 0.85859 0.5045 0.63852 0.0
H1621 H 0.90978 0.51004 0.63509 0.0
H1622 H 0.81469 0.73663 0.44284 0.0
H1623 H 0.95148 0.52592 0.60296 0.0
H1624 H 0.9806 0.69355 0.45953 0.0
N1625 N 0.86287 0.70164 0.48611 0.0
C1626 C 0.88605 0.70666 0.46837 0.0
C1627 C 0.83487 0.72833 0.44979 0.0
C1628 C 0.88438 0.72229 0.43995 0.0
C1629 C 0.83746 0.71225 0.47751 0.0
C1630 C 0.85839 0.73326 0.43083 0.0
N1631 N 0.91199 0.68033 0.50611 0.0
C1632 C 0.93721 0.67354 0.51937 0.0
C1633 C 0.9358 0.70006 0.46051 0.0
C1634 C 0.91131 0.69526 0.47839 0.0
C1635 C 0.96129 0.69026 0.47249 0.0
C1636 C 0.96206 0.67756 0.50242 0.0
H1637 H 0.85624 0.74541 0.40916 0.0
H1638 H 0.9077 0.73799 0.39947 0.0
H1639 H 0.95277 0.71878 0.4176 0.0
O1640 O 0.88835 0.70643 0.5568 0.0
O1641 O 0.86274 0.65612 0.48039 0.0
O1642 O 0.89074 0.61818 0.48409 0.0
O1643 O 0.84417 0.70721 0.5482 0.0
O1644 O 0.89357 0.64936 0.56346 0.0
O1645 O 0.90527 0.6145 0.53009 0.0
O1646 O 0.84623 0.57122 0.47762 0.0
O1647 O 0.84413 0.60244 0.55787 0.0
O1648 O 0.8501 0.65026 0.56931 0.0
O1649 O 0.88683 0.55664 0.49039 0.0
O1650 O 0.82776 0.61119 0.50632 0.0
O1651 O 0.82688 0.65854 0.52283 0.0
C1652 C 0.87738 0.63615 0.46606 0.0
C1653 C 0.86471 0.74937 0.56902 0.0
C1654 C 0.86527 0.789 0.60672 0.0
C1655 C 0.86203 0.80724 0.58063 0.0
C1656 C 0.86171 0.76818 0.54366 0.0
C1657 C 0.86043 0.79693 0.5495 0.0
C1658 C 0.86673 0.75988 0.60057 0.0
C1659 C 0.907 0.62603 0.55845 0.0
C1660 C 0.86486 0.71874 0.56343 0.0
C1661 C 0.90856 0.72623 0.42154 0.0
C1662 C 0.93421 0.71516 0.43179 0.0
C1663 C 0.84043 0.62485 0.57577 0.0
C1664 C 0.85635 0.52258 0.47072 0.0
C1665 C 0.85229 0.47966 0.4392 0.0
C1666 C 0.84812 0.46441 0.4675 0.0
C1667 C 0.85329 0.5065 0.49851 0.0
C1668 C 0.85519 0.50909 0.44101 0.0
C1669 C 0.84835 0.47784 0.49686 0.0
C1670 C 0.81455 0.63514 0.51342 0.0
C1671 C 0.86518 0.55222 0.47266 0.0
H1672 H 0.861 0.82966 0.58431 0.0
H1673 H 0.86018 0.76062 0.51941 0.0
H1674 H 0.85805 0.81135 0.52977 0.0
H1675 H 0.86881 0.74537 0.62031 0.0
H1676 H 0.84609 0.44184 0.46717 0.0
H1677 H 0.85598 0.51563 0.52162 0.0
H1678 H 0.85779 0.52141 0.41954 0.0
H1679 H 0.8461 0.46577 0.51854 0.0
Tb1680 Tb 0.57599 0.38656 0.76531 0.0
C1681 C 0.70105 0.37047 0.72598 0.0
N1682 N 0.68688 0.35797 0.75002 0.0
C1683 C 0.70424 0.31318 0.73313 0.0
C1684 C 0.71634 0.3548 0.70357 0.0
C1685 C 0.68986 0.32984 0.75509 0.0
C1686 C 0.7169 0.32565 0.70672 0.0
C1687 C 0.72109 0.41326 0.70548 0.0
C1688 C 0.70319 0.3991 0.72664 0.0
C1689 C 0.73457 0.39813 0.68128 0.0
C1690 C 0.73209 0.36887 0.68024 0.0
Tb1691 Tb 0.66154 0.38685 0.78298 0.0
N1692 N 0.69034 0.41264 0.75087 0.0
C1693 C 0.72643 0.44169 0.71079 0.0
C1694 C 0.69718 0.43975 0.75773 0.0
C1695 C 0.71517 0.45472 0.73766 0.0
H1696 H 0.68057 0.32014 0.77581 0.0
H1697 H 0.72015 0.47635 0.7428 0.0
H1698 H 0.54133 0.43075 0.81028 0.0
H1699 H 0.5723 0.27267 0.76184 0.0
H1700 H 0.68827 0.44987 0.77835 0.0
H1701 H 0.7403 0.45334 0.69528 0.0
H1702 H 0.57749 0.31945 0.73866 0.0
H1703 H 0.70562 0.29078 0.73667 0.0
H1704 H 0.74807 0.40864 0.66436 0.0
H1705 H 0.74369 0.35725 0.6625 0.0
H1706 H 0.51393 0.42928 0.8603 0.0
H1707 H 0.72832 0.31278 0.68998 0.0
H1708 H 0.55543 0.26725 0.81714 0.0
N1709 N 0.54988 0.3871 0.81064 0.0
C1710 C 0.54583 0.36214 0.82536 0.0
C1711 C 0.52285 0.41026 0.85075 0.0
C1712 C 0.53115 0.36039 0.85435 0.0
C1713 C 0.53817 0.41102 0.82239 0.0
C1714 C 0.51971 0.38492 0.86708 0.0
N1715 N 0.56891 0.34108 0.78203 0.0
C1716 C 0.57247 0.31778 0.76357 0.0
C1717 C 0.55147 0.31187 0.82473 0.0
C1718 C 0.55625 0.33837 0.8109 0.0
C1719 C 0.55882 0.28801 0.80746 0.0
C1720 C 0.56851 0.29099 0.77633 0.0
H1721 H 0.50818 0.38446 0.88927 0.0
H1722 H 0.51713 0.33247 0.89181 0.0
H1723 H 0.53469 0.28987 0.86569 0.0
O1724 O 0.54287 0.37236 0.73547 0.0
O1725 O 0.59311 0.39228 0.81503 0.0
O1726 O 0.63069 0.36404 0.8112 0.0
O1727 O 0.54395 0.41441 0.75137 0.0
O1728 O 0.60281 0.36227 0.73354 0.0
O1729 O 0.63687 0.34982 0.76865 0.0
O1730 O 0.67972 0.40693 0.82324 0.0
O1731 O 0.64858 0.41265 0.74207 0.0
O1732 O 0.60276 0.40149 0.72575 0.0
O1733 O 0.69349 0.36673 0.80873 0.0
O1734 O 0.63872 0.4265 0.79525 0.0
O1735 O 0.59324 0.42826 0.77288 0.0
C1736 C 0.61291 0.3774 0.82926 0.0
C1737 C 0.5277 0.40736 0.69838 0.0
C1738 C 0.50115 0.40993 0.64748 0.0
C1739 C 0.51989 0.43088 0.63734 0.0
C1740 C 0.5466 0.42708 0.68604 0.0
C1741 C 0.54253 0.4389 0.65611 0.0
C1742 C 0.50492 0.39857 0.67875 0.0
C1743 C 0.62519 0.34761 0.7403 0.0
C1744 C 0.53202 0.39703 0.73186 0.0
C1745 C 0.528 0.33425 0.86928 0.0
C1746 C 0.53815 0.31002 0.85449 0.0
C1747 C 0.62741 0.41384 0.72183 0.0
C1748 C 0.72828 0.3959 0.82987 0.0
C1749 C 0.77166 0.40232 0.86063 0.0
C1750 C 0.78607 0.40705 0.83195 0.0
C1751 C 0.7437 0.40008 0.80186 0.0
C1752 C 0.74249 0.39681 0.85944 0.0
C1753 C 0.77214 0.40608 0.80291 0.0
C1754 C 0.61596 0.4402 0.7849 0.0
C1755 C 0.69836 0.38748 0.82763 0.0
H1756 H 0.51701 0.44146 0.61477 0.0
H1757 H 0.56442 0.43388 0.69983 0.0
H1758 H 0.55695 0.45466 0.6475 0.0
H1759 H 0.49045 0.38298 0.68765 0.0
H1760 H 0.8085 0.41028 0.83177 0.0
H1761 H 0.73418 0.39753 0.77894 0.0
H1762 H 0.73113 0.39257 0.88123 0.0
H1763 H 0.78365 0.40901 0.78097 0.0
Tb1764 Tb 0.87101 0.33134 1.01293 0.0
C1765 C 0.85626 0.46775 0.99334 0.0
N1766 N 0.87679 0.44912 1.0003 0.0
C1767 C 0.90877 0.47463 0.96722 0.0
C1768 C 0.86085 0.49004 0.97195 0.0
C1769 C 0.90321 0.45313 0.98896 0.0
C1770 C 0.88736 0.49292 0.95824 0.0
C1771 C 0.80987 0.48537 1.00458 0.0
C1772 C 0.83121 0.46545 1.00939 0.0
C1773 C 0.81366 0.50675 0.98196 0.0
C1774 C 0.83914 0.5091 0.96568 0.0
Tb1775 Tb 0.86525 0.41408 0.03483 0.0
N1776 N 0.82865 0.44489 0.03149 0.0
C1777 C 0.78587 0.48385 1.02353 0.0
C1778 C 0.80588 0.44419 0.05121 0.0
C1779 C 0.78408 0.46343 0.04727 0.0
H1780 H 0.92024 0.44032 0.99714 0.0
H1781 H 0.76597 0.46257 0.06259 0.0
H1782 H 0.8191 0.31341 0.06276 0.0
H1783 H 0.98249 0.31254 1.01623 0.0
H1784 H 0.80454 0.42877 0.07004 0.0
H1785 H 0.769 0.49879 1.02064 0.0
H1786 H 0.93946 0.33411 0.99579 0.0
H1787 H 0.92967 0.47736 0.95783 0.0
H1788 H 0.79738 0.52207 0.97764 0.0
H1789 H 0.84211 0.52616 0.94899 0.0
H1790 H 0.81372 0.28282 0.10941 0.0
H1791 H 0.89177 0.50973 0.94164 0.0
H1792 H 0.98044 0.27962 0.06168 0.0
N1793 N 0.86269 0.30575 0.05777 0.0
C1794 C 0.88546 0.29183 0.06924 0.0
C1795 C 0.83401 0.28517 0.09831 0.0
C1796 C 0.88324 0.27387 0.09578 0.0
C1797 C 0.83716 0.30267 0.07182 0.0
C1798 C 0.85709 0.2706 0.11026 0.0
N1799 N 0.91314 0.31559 0.03091 0.0
C1800 C 0.93817 0.32086 1.01648 0.0
C1801 C 0.93558 0.28345 0.06726 0.0
C1802 C 0.91144 0.2968 0.05529 0.0
C1803 C 0.9614 0.28944 0.05316 0.0
C1804 C 0.96267 0.30817 0.02764 0.0
H1805 H 0.85454 0.25708 0.13079 0.0
H1806 H 0.90585 0.24617 0.12763 0.0
H1807 H 0.95157 0.25436 0.10254 0.0
O1808 O 0.88686 0.30728 0.97447 0.0
O1809 O 0.88745 0.34943 0.05923 0.0
O1810 O 0.85345 0.38087 0.06727 0.0
O1811 O 0.85211 0.29271 1.00138 0.0
O1812 O 0.89596 0.35873 0.98302 0.0
O1813 O 0.90527 0.39514 1.01731 0.0
O1814 O 0.86246 0.44552 0.06991 0.0
O1815 O 0.85831 0.40626 0.98397 0.0
O1816 O 0.84689 0.35857 0.98003 0.0
O1817 O 0.89879 0.41922 0.06709 0.0
O1818 O 0.82453 0.39137 0.03623 0.0
O1819 O 0.827 0.34437 1.01891 0.0
C1820 C 0.87281 0.36493 0.07936 0.0
C1821 C 0.85245 0.28065 0.94634 0.0
C1822 C 0.84697 0.25277 0.89676 0.0
C1823 C 0.82116 0.2663 0.89172 0.0
C1824 C 0.8269 0.29382 0.93965 0.0
C1825 C 0.81147 0.28671 0.91269 0.0
C1826 C 0.8625 0.25995 0.92471 0.0
C1827 C 0.9098 0.38153 0.99024 0.0
C1828 C 0.86758 0.28818 0.97645 0.0
C1829 C 0.90719 0.26015 0.10735 0.0
C1830 C 0.93325 0.26485 0.09307 0.0
C1831 C 0.8454 0.385 0.97009 0.0
C1832 C 0.90473 0.4652 0.0896 0.0
C1833 C 0.91168 0.50877 0.12036 0.0
C1834 C 0.93972 0.509 0.11006 0.0
C1835 C 0.93249 0.46693 0.07897 0.0
C1836 C 0.89436 0.48634 0.1102 0.0
C1837 C 0.94979 0.4886 0.08926 0.0
C1838 C 0.81295 0.36708 0.02778 0.0
C1839 C 0.88713 0.4405 0.08142 0.0
H1840 H 0.80793 0.26071 0.87177 0.0
H1841 H 0.81853 0.30929 0.95579 0.0
H1842 H 0.79157 0.29682 0.90825 0.0
H1843 H 0.88219 0.24959 0.9296 0.0
H1844 H 0.95425 0.52471 0.1185 0.0
H1845 H 0.94108 0.4512 0.06323 0.0
H1846 H 0.87291 0.48519 0.11838 0.0
H1847 H 0.97136 0.48935 0.08149 0.0
Tb1848 Tb 0.92832 0.61811 0.25949 0.0
C1849 C 0.80522 0.63255 0.21455 0.0
N1850 N 0.81772 0.64503 0.23976 0.0
C1851 C 0.79928 0.68948 0.22278 0.0
C1852 C 0.79055 0.64815 0.1914 0.0
C1853 C 0.81319 0.6729 0.24531 0.0
C1854 C 0.78853 0.67715 0.19524 0.0
C1855 C 0.78956 0.58947 0.19029 0.0
C1856 C 0.80457 0.60384 0.21405 0.0
C1857 C 0.7766 0.60474 0.16572 0.0
C1858 C 0.7771 0.6341 0.16628 0.0
Tb1859 Tb 0.84275 0.61637 0.27362 0.0
N1860 N 0.81689 0.59008 0.23856 0.0
C1861 C 0.7871 0.56036 0.19273 0.0
C1862 C 0.81246 0.56196 0.2426 0.0
C1863 C 0.79823 0.54662 0.21929 0.0
H1864 H 0.82087 0.68257 0.26689 0.0
H1865 H 0.79595 0.52425 0.22169 0.0
H1866 H 0.95807 0.56543 0.29636 0.0
H1867 H 0.93944 0.73076 0.27391 0.0
H1868 H 0.82114 0.55133 0.26304 0.0
H1869 H 0.77587 0.54846 0.17488 0.0
H1870 H 0.92812 0.68817 0.24443 0.0
H1871 H 0.79676 0.71171 0.22677 0.0
H1872 H 0.76524 0.59411 0.14695 0.0
H1873 H 0.76603 0.64569 0.14798 0.0
H1874 H 0.98642 0.55805 0.34514 0.0
H1875 H 0.77753 0.68996 0.17797 0.0
H1876 H 0.96249 0.72767 0.32657 0.0
N1877 N 0.95582 0.60948 0.30242 0.0
C1878 C 0.9638 0.63208 0.31972 0.0
C1879 C 0.9801 0.57897 0.3383 0.0
C1880 C 0.97962 0.62893 0.34781 0.0
C1881 C 0.9641 0.58316 0.31076 0.0
C1882 C 0.9877 0.60192 0.35707 0.0
N1883 N 0.94061 0.66033 0.28173 0.0
C1884 C 0.93627 0.68604 0.26819 0.0
C1885 C 0.96354 0.68238 0.32652 0.0
C1886 C 0.95552 0.65834 0.30932 0.0
C1887 C 0.9567 0.70868 0.31412 0.0
C1888 C 0.94354 0.7105 0.2845 0.0
H1889 H 0.9999 0.59859 0.37851 0.0
H1890 H 0.99872 0.65078 0.38748 0.0
H1891 H 0.98483 0.69762 0.36872 0.0
O1892 O 0.96422 0.63261 0.2345 0.0
O1893 O 0.911 0.61335 0.30955 0.0
O1894 O 0.87222 0.6397 0.30362 0.0
O1895 O 0.95239 0.58934 0.23316 0.0
O1896 O 0.90229 0.64724 0.23152 0.0
O1897 O 0.86531 0.65643 0.26454 0.0
O1898 O 0.82461 0.59481 0.31289 0.0
O1899 O 0.8591 0.59005 0.23439 0.0
O1900 O 0.89799 0.61442 0.22035 0.0
O1901 O 0.80868 0.63405 0.29768 0.0
O1902 O 0.86669 0.57827 0.28899 0.0
O1903 O 0.91174 0.57591 0.2661 0.0
C1904 C 0.88994 0.6272 0.32281 0.0
C1905 C 0.99802 0.60026 0.21275 0.0
C1906 C 0.0363 0.59937 0.17311 0.0
C1907 C 0.05117 0.58146 0.19376 0.0
C1908 C 0.01369 0.58266 0.23262 0.0
C1909 C 0.04003 0.57332 0.22311 0.0
C1910 C 0.0094 0.6086 0.18287 0.0
C1911 C 0.88016 0.66229 0.23888 0.0
C1912 C 0.96907 0.60837 0.2217 0.0
C1913 C 0.98676 0.65273 0.36565 0.0
C1914 C 0.97875 0.6794 0.35502 0.0
C1915 C 0.88067 0.59362 0.21546 0.0
C1916 C 0.77594 0.60413 0.32088 0.0
C1917 C 0.73293 0.60365 0.35309 0.0
C1918 C 0.71793 0.59602 0.32547 0.0
C1919 C 0.76028 0.59639 0.29407 0.0
C1920 C 0.76234 0.607 0.35052 0.0
C1921 C 0.73156 0.59202 0.29649 0.0
C1922 C 0.88933 0.56426 0.27911 0.0
C1923 C 0.80526 0.61345 0.31717 0.0
H1924 H 0.07164 0.57365 0.18719 0.0
H1925 H 0.00539 0.57584 0.25533 0.0
H1926 H 0.05189 0.55957 0.23855 0.0
H1927 H 0.99744 0.6224 0.16753 0.0
H1928 H 0.6954 0.59382 0.32587 0.0
H1929 H 0.76997 0.59476 0.27098 0.0
H1930 H 0.77478 0.61233 0.37118 0.0
H1931 H 0.71962 0.58644 0.27552 0.0
Tb1932 Tb 0.63961 0.67529 0.51456 0.0
C1933 C 0.6107 0.5496 0.47429 0.0
N1934 N 0.60176 0.56548 0.49896 0.0
C1935 C 0.55439 0.55131 0.48852 0.0
C1936 C 0.59178 0.53479 0.45484 0.0
C1937 C 0.57408 0.56555 0.50717 0.0
C1938 C 0.56321 0.53634 0.46182 0.0
C1939 C 0.64973 0.52893 0.44627 0.0
C1940 C 0.63907 0.54667 0.47008 0.0
C1941 C 0.63107 0.51521 0.42564 0.0
C1942 C 0.6021 0.51815 0.42991 0.0
Tb1943 Tb 0.63553 0.58967 0.52646 0.0
N1944 N 0.65627 0.56025 0.49056 0.0
C1945 C 0.67872 0.525 0.44455 0.0
C1946 C 0.68439 0.55489 0.49051 0.0
C1947 C 0.69609 0.53769 0.46713 0.0
H1948 H 0.56714 0.57706 0.52786 0.0
H1949 H 0.71842 0.53399 0.46676 0.0
H1950 H 0.68772 0.70755 0.55689 0.0
H1951 H 0.52593 0.6765 0.52355 0.0
H1952 H 0.69759 0.56372 0.50876 0.0
H1953 H 0.68779 0.51155 0.42657 0.0
H1954 H 0.57041 0.67241 0.49541 0.0
H1955 H 0.53242 0.55203 0.49466 0.0
H1956 H 0.63879 0.50171 0.40692 0.0
H1957 H 0.58791 0.50683 0.41445 0.0
H1958 H 0.69033 0.73368 0.60768 0.0
H1959 H 0.54793 0.52534 0.44743 0.0
H1960 H 0.52507 0.69393 0.57893 0.0
N1961 N 0.64402 0.70016 0.56045 0.0
C1962 C 0.6202 0.70437 0.57732 0.0
C1963 C 0.67049 0.72551 0.59943 0.0
C1964 C 0.62075 0.71865 0.60665 0.0
C1965 C 0.66897 0.71076 0.57073 0.0
C1966 C 0.64632 0.72924 0.61763 0.0
N1967 N 0.59568 0.68094 0.53624 0.0
C1968 C 0.57095 0.67698 0.52043 0.0
C1969 C 0.57005 0.69858 0.58162 0.0
C1970 C 0.59532 0.69393 0.56514 0.0
C1971 C 0.54494 0.69069 0.56711 0.0
C1972 C 0.54536 0.6806 0.53599 0.0
H1973 H 0.64761 0.74039 0.64003 0.0
H1974 H 0.59579 0.73281 0.64653 0.0
H1975 H 0.55131 0.71586 0.62418 0.0
O1976 O 0.62199 0.70736 0.48556 0.0
O1977 O 0.64572 0.65575 0.56341 0.0
O1978 O 0.61571 0.61949 0.55899 0.0
O1979 O 0.66376 0.71068 0.50191 0.0
O1980 O 0.61449 0.65121 0.48054 0.0
O1981 O 0.60044 0.61708 0.51412 0.0
O1982 O 0.65778 0.57151 0.56513 0.0
O1983 O 0.65534 0.60245 0.48142 0.0
O1984 O 0.66162 0.65132 0.47698 0.0
O1985 O 0.61705 0.55699 0.55242 0.0
O1986 O 0.67808 0.60858 0.53304 0.0
O1987 O 0.68135 0.65725 0.5214 0.0
C1988 C 0.63059 0.6359 0.57738 0.0
C1989 C 0.6545 0.72902 0.44996 0.0
C1990 C 0.65247 0.75727 0.40021 0.0
C1991 C 0.67515 0.74157 0.3886 0.0
C1992 C 0.67657 0.71375 0.43662 0.0
C1993 C 0.68683 0.71998 0.40647 0.0
C1994 C 0.64238 0.75113 0.43152 0.0
C1995 C 0.59941 0.62883 0.48582 0.0
C1996 C 0.64506 0.72146 0.48305 0.0
C1997 C 0.59582 0.72205 0.62384 0.0
C1998 C 0.57052 0.71214 0.61128 0.0
C1999 C 0.66502 0.62511 0.467 0.0
C2000 C 0.64658 0.52333 0.57509 0.0
C2001 C 0.64527 0.48015 0.60678 0.0
C2002 C 0.65751 0.46571 0.58126 0.0
C2003 C 0.65839 0.50817 0.54993 0.0
C2004 C 0.63983 0.50912 0.6035 0.0
C2005 C 0.664 0.47967 0.55307 0.0
C2006 C 0.69227 0.63247 0.52887 0.0
C2007 C 0.63837 0.55302 0.57086 0.0
H2008 H 0.68414 0.74615 0.36551 0.0
H2009 H 0.68619 0.69708 0.44992 0.0
H2010 H 0.70413 0.70807 0.3969 0.0
H2011 H 0.62521 0.76316 0.44124 0.0
H2012 H 0.66225 0.4436 0.58318 0.0
H2013 H 0.66271 0.51799 0.52755 0.0
H2014 H 0.62973 0.52044 0.62264 0.0
H2015 H 0.67319 0.4683 0.53343 0.0
Tb2016 Tb 0.34281 0.38575 0.28144 0.0
C2017 C 0.46747 0.36775 0.32001 0.0
N2018 N 0.4606 0.39152 0.30416 0.0
C2019 C 0.49542 0.41726 0.33277 0.0
C2020 C 0.48898 0.36782 0.34303 0.0
C2021 C 0.4738 0.41617 0.31034 0.0
C2022 C 0.50318 0.39292 0.34905 0.0
C2023 C 0.45726 0.31925 0.33227 0.0
C2024 C 0.45168 0.3438 0.31454 0.0
C2025 C 0.4793 0.31894 0.35446 0.0
C2026 C 0.49511 0.34315 0.35982 0.0
Tb2027 Tb 0.42664 0.38761 0.26709 0.0
N2028 N 0.42987 0.34513 0.29352 0.0
C2029 C 0.43993 0.29601 0.32808 0.0
C2030 C 0.41229 0.3226 0.29053 0.0
C2031 C 0.41722 0.29783 0.30738 0.0
H2032 H 0.46787 0.43488 0.29754 0.0
H2033 H 0.4032 0.28019 0.30466 0.0
H2034 H 0.35564 0.3274 0.3255 0.0
H2035 H 0.27066 0.40445 0.18492 0.0
H2036 H 0.39388 0.32324 0.27594 0.0
H2037 H 0.44344 0.27686 0.34136 0.0
H2038 H 0.30483 0.41767 0.22632 0.0
H2039 H 0.50608 0.43681 0.33745 0.0
H2040 H 0.48385 0.30023 0.36816 0.0
H2041 H 0.51164 0.34274 0.37751 0.0
H2042 H 0.34355 0.27788 0.32313 0.0
H2043 H 0.51984 0.39383 0.36656 0.0
H2044 H 0.25652 0.35494 0.17869 0.0
N2045 N 0.33334 0.33848 0.28298 0.0
C2046 C 0.31436 0.32937 0.26103 0.0
C2047 C 0.33551 0.29207 0.3052 0.0
C2048 C 0.3063 0.30101 0.25942 0.0
C2049 C 0.34278 0.32042 0.30598 0.0
C2050 C 0.31751 0.28223 0.28157 0.0
N2051 N 0.31087 0.37587 0.24262 0.0
C2052 C 0.29927 0.3959 0.22346 0.0
C2053 C 0.28308 0.34026 0.21707 0.0
C2054 C 0.30268 0.3487 0.24024 0.0
C2055 C 0.27168 0.36057 0.19679 0.0
C2056 C 0.27966 0.38853 0.20017 0.0
H2057 H 0.31184 0.26027 0.28116 0.0
H2058 H 0.28066 0.27065 0.23448 0.0
H2059 H 0.26044 0.30503 0.1973 0.0
O2060 O 0.30674 0.40964 0.29123 0.0
O2061 O 0.35367 0.41672 0.2448 0.0
O2062 O 0.40026 0.40745 0.23008 0.0
O2063 O 0.32096 0.37941 0.32486 0.0
O2064 O 0.36272 0.42711 0.29152 0.0
O2065 O 0.41112 0.42912 0.28016 0.0
O2066 O 0.46112 0.37046 0.24105 0.0
O2067 O 0.41442 0.39547 0.31769 0.0
O2068 O 0.37583 0.36958 0.31238 0.0
O2069 O 0.45305 0.41441 0.24093 0.0
O2070 O 0.40445 0.35653 0.23803 0.0
O2071 O 0.35623 0.36481 0.23709 0.0
C2072 C 0.37551 0.41936 0.22565 0.0
C2073 C 0.27159 0.38688 0.32198 0.0
C2074 C 0.22993 0.37917 0.35538 0.0
C2075 C 0.21543 0.36981 0.3283 0.0
C2076 C 0.25585 0.37833 0.29543 0.0
C2077 C 0.22828 0.36948 0.29865 0.0
C2078 C 0.25842 0.38715 0.35227 0.0
C2079 C 0.38713 0.4406 0.28908 0.0
C2080 C 0.301 0.39676 0.31768 0.0
C2081 C 0.28699 0.29238 0.23614 0.0
C2082 C 0.27543 0.31196 0.215 0.0
C2083 C 0.39184 0.38472 0.33084 0.0
C2084 C 0.49739 0.40086 0.21889 0.0
C2085 C 0.53494 0.40067 0.17821 0.0
C2086 C 0.55082 0.41808 0.19821 0.0
C2087 C 0.5141 0.4183 0.23787 0.0
C2088 C 0.50794 0.39214 0.18869 0.0
C2089 C 0.54052 0.42673 0.22763 0.0
C2090 C 0.37911 0.35265 0.2262 0.0
C2091 C 0.46798 0.39446 0.22873 0.0
H2092 H 0.19388 0.36294 0.33006 0.0
H2093 H 0.26448 0.3789 0.2719 0.0
H2094 H 0.21665 0.36272 0.27789 0.0
H2095 H 0.26993 0.39424 0.37299 0.0
H2096 H 0.57149 0.42496 0.19102 0.0
H2097 H 0.50659 0.426 0.26039 0.0
H2098 H 0.49527 0.37886 0.17354 0.0
H2099 H 0.55309 0.44025 0.24258 0.0
Tb2100 Tb 0.37234 0.59501 0.02628 0.0
C2101 C 0.3984 0.70425 0.07711 0.0
N2102 N 0.37321 0.70477 0.0622 0.0
C2103 C 0.35433 0.73351 0.10367 0.0
C2104 C 0.40229 0.7176 0.1067 0.0
C2105 C 0.35127 0.71934 0.07474 0.0
C2106 C 0.37985 0.73236 0.11992 0.0
C2107 C 0.44683 0.68964 0.07712 0.0
C2108 C 0.42016 0.69004 0.06261 0.0
C2109 C 0.45062 0.70199 0.10715 0.0
C2110 C 0.42839 0.71591 0.12195 0.0
Tb2111 Tb 0.36961 0.67968 1.01635 0.0
N2112 N 0.41567 0.67837 0.03342 0.0
C2113 C 0.46919 0.67806 0.06033 0.0
C2114 C 0.43838 0.6711 1.01541 0.0
C2115 C 0.4651 0.66959 0.02894 0.0
H2116 H 0.33118 0.71936 0.06288 0.0
H2117 H 0.48272 0.66284 1.01473 0.0
H2118 H 0.43443 0.597 0.0611 0.0
H2119 H 0.3322 0.52743 0.93319 0.0
H2120 H 0.43685 0.66794 0.99021 0.0
H2121 H 0.49 0.67734 0.07058 0.0
H2122 H 0.32861 0.56012 0.97831 0.0
H2123 H 0.33684 0.74481 0.11375 0.0
H2124 H 0.47093 0.70171 0.11861 0.0
H2125 H 0.43177 0.72577 0.14486 0.0
H2126 H 0.48164 0.57783 0.05184 0.0
H2127 H 0.38201 0.74297 0.14258 0.0
H2128 H 0.37856 0.5106 0.91552 0.0
N2129 N 0.4168 0.57825 1.01971 0.0
C2130 C 0.42099 0.56059 0.99489 0.0
C2131 C 0.46479 0.57295 0.03552 0.0
C2132 C 0.44753 0.54897 0.9888 0.0
C2133 C 0.43801 0.58383 0.04066 0.0
C2134 C 0.46966 0.55566 1.0093 0.0
N2135 N 0.37273 0.56343 0.985 0.0
C2136 C 0.34907 0.55351 0.97041 0.0
C2137 C 0.40116 0.53408 0.95134 0.0
C2138 C 0.39817 0.55329 0.97654 0.0
C2139 C 0.37717 0.52531 0.93505 0.0
C2140 C 0.35097 0.53472 0.945 0.0
H2141 H 0.4904 0.54719 1.00544 0.0
H2142 H 0.47124 0.52193 0.95746 0.0
H2143 H 0.43058 0.50886 0.92459 0.0
O2144 O 0.35299 0.55676 0.03787 0.0
O2145 O 0.3446 0.60824 0.98676 0.0
O2146 O 0.34658 0.65702 0.97861 0.0
O2147 O 0.37506 0.57935 0.07355 0.0
O2148 O 0.33058 0.61487 0.03355 0.0
O2149 O 0.32765 0.66403 0.02769 0.0
O2150 O 0.38655 0.71337 0.9894 0.0
O2151 O 0.36185 0.66154 0.06514 0.0
O2152 O 0.39072 0.62456 0.06039 0.0
O2153 O 0.34445 0.71465 1.00499 0.0
O2154 O 0.38899 0.65616 0.97728 0.0
O2155 O 0.40601 0.61598 0.99961 0.0
C2156 C 0.33847 0.63138 0.97069 0.0
C2157 C 0.37593 0.52958 0.07694 0.0
C2158 C 0.38198 0.49107 0.11498 0.0
C2159 C 0.39995 0.47777 0.09343 0.0
C2160 C 0.39363 0.51541 0.05574 0.0
C2161 C 0.40576 0.48993 0.06404 0.0
C2162 C 0.37014 0.51726 0.10687 0.0
C2163 C 0.31645 0.63901 0.03316 0.0
C2164 C 0.36229 0.55611 0.06685 0.0
C2165 C 0.45095 0.53082 0.96282 0.0
C2166 C 0.4278 0.52344 0.94406 0.0
C2167 C 0.37589 0.6409 0.07885 0.0
C2168 C 0.3532 0.73237 0.95284 0.0
C2169 C 0.35539 0.75902 0.90201 0.0
C2170 C 0.33365 0.742 0.8903 0.0
C2171 C 0.33162 0.71606 0.93968 0.0
C2172 C 0.36516 0.75402 0.93373 0.0
C2173 C 0.32207 0.72079 0.90884 0.0
C2174 C 0.40232 0.63217 0.97462 0.0
C2175 C 0.36275 0.7261 0.98625 0.0
H2176 H 0.40926 0.45772 0.09926 0.0
H2177 H 0.39762 0.52362 0.03238 0.0
H2178 H 0.41936 0.47932 0.04738 0.0
H2179 H 0.3561 0.52756 0.12334 0.0
H2180 H 0.32516 0.7453 0.86666 0.0
H2181 H 0.32179 0.6996 0.95337 0.0
H2182 H 0.38205 0.76654 0.94335 0.0
H2183 H 0.30535 0.708 0.89927 0.0
Tb2184 Tb 0.16019 0.61769 0.77533 0.0
C2185 C 0.0372 0.63479 0.82474 0.0
N2186 N 0.05054 0.61183 0.81303 0.0
C2187 C 0.03098 0.58354 0.85463 0.0
C2188 C 0.01995 0.63286 0.85184 0.0
C2189 C 0.04769 0.58638 0.82751 0.0
C2190 C 0.01693 0.60682 0.86675 0.0
C2191 C 0.02892 0.68498 0.82229 0.0
C2192 C 0.04178 0.66067 0.81023 0.0
C2193 C 0.01096 0.6829 0.84863 0.0
C2194 C 0.00657 0.65695 0.86343 0.0
Tb2195 Tb 0.07426 0.61978 0.76694 0.0
N2196 N 0.05995 0.66213 0.78532 0.0
C2197 C 0.03485 0.71071 0.80784 0.0
C2198 C 0.06542 0.68709 0.77076 0.0
C2199 C 0.05319 0.71176 0.782 0.0
H2200 H 0.05783 0.56805 0.81824 0.0
H2201 H 0.05764 0.73154 0.77047 0.0
H2202 H 0.17475 0.68518 0.78664 0.0
H2203 H 0.21481 0.53992 0.70599 0.0
H2204 H 0.07862 0.68819 0.75006 0.0
H2205 H 0.02542 0.72988 0.81644 0.0
H2206 H 0.18401 0.55654 0.74935 0.0
H2207 H 0.02875 0.56333 0.86602 0.0
H2208 H 1.00081 0.70134 0.85815 0.0
H2209 H 0.99311 0.65581 0.88412 0.0
H2210 H 0.20231 0.72186 0.7593 0.0
H2211 H 0.00395 0.60448 0.88772 0.0
H2212 H 0.2381 0.57415 0.67056 0.0
N2213 N 0.18355 0.65398 0.75193 0.0
C2214 C 0.19932 0.64687 0.72628 0.0
C2215 C 0.20133 0.70094 0.74952 0.0
C2216 C 0.21521 0.66712 0.70986 0.0
C2217 C 0.18569 0.68017 0.76486 0.0
C2218 C 0.21545 0.69461 0.72134 0.0
N2219 N 0.18931 0.59955 0.73776 0.0
C2220 C 0.19416 0.57153 0.73395 0.0
C2221 C 0.22046 0.6102 0.69442 0.0
C2222 C 0.20244 0.61869 0.7191 0.0
C2223 C 0.22452 0.58151 0.6894 0.0
C2224 C 0.21149 0.56211 0.70942 0.0
H2225 H 0.22755 0.71074 0.70953 0.0
H2226 H 0.24382 0.67428 0.67069 0.0
H2227 H 0.24803 0.62444 0.65682 0.0
O2228 O 0.19508 0.59816 0.79642 0.0
O2229 O 0.14549 0.59994 0.73002 0.0
O2230 O 0.09662 0.59356 0.73164 0.0
O2231 O 0.17921 0.63654 0.81559 0.0
O2232 O 0.14067 0.57599 0.78153 0.0
O2233 O 0.09129 0.57785 0.77787 0.0
O2234 O 0.04632 0.6357 0.73208 0.0
O2235 O 0.0954 0.63973 0.80966 0.0
O2236 O 0.13141 0.60972 0.81467 0.0
O2237 O 0.03626 0.59852 0.75764 0.0
O2238 O 0.09743 0.64252 0.73123 0.0
O2239 O 0.13575 0.65504 0.76003 0.0
C2240 C 0.12172 0.58981 0.71874 0.0
C2241 C 0.22803 0.62729 0.82237 0.0
C2242 C 0.26997 0.63197 0.85596 0.0
C2243 C 0.28452 0.64268 0.82958 0.0
C2244 C 0.24347 0.63747 0.79646 0.0
C2245 C 0.27133 0.64542 0.80013 0.0
C2246 C 0.2414 0.62473 0.85238 0.0
C2247 C 0.11536 0.56419 0.78176 0.0
C2248 C 0.19877 0.61758 0.81768 0.0
C2249 C 0.23186 0.65894 0.68397 0.0
C2250 C 0.2344 0.63053 0.67618 0.0
C2251 C 0.11525 0.62847 0.82766 0.0
C2252 C 0.0217 0.60071 0.70304 0.0
C2253 C 0.99489 0.59773 0.6524 0.0
C2254 C 0.01081 0.57407 0.6443 0.0
C2255 C 0.03657 0.57673 0.69392 0.0
C2256 C 1.00049 0.61111 0.68215 0.0
C2257 C 0.03128 0.56369 0.66486 0.0
C2258 C 0.12116 0.6559 0.73313 0.0
C2259 C 0.02913 0.6147 0.73394 0.0
H2260 H 0.30625 0.64886 0.83176 0.0
H2261 H 0.23426 0.63887 0.77319 0.0
H2262 H 0.28289 0.65337 0.7799 0.0
H2263 H 0.22993 0.6164 0.87253 0.0
H2264 H 0.00704 0.56317 0.62209 0.0
H2265 H 0.05235 0.56795 0.70943 0.0
H2266 H 0.98873 0.62956 0.68879 0.0
H2267 H 0.04308 0.54525 0.65828 0.0
Tb2268 Tb 0.13616 0.40763 0.52874 0.0
C2269 C 0.12293 0.28331 0.57442 0.0
N2270 N 0.14491 0.2973 0.56124 0.0
C2271 C 0.17583 0.2775 0.60032 0.0
C2272 C 0.12667 0.26584 0.6012 0.0
C2273 C 0.17121 0.29443 0.57363 0.0
C2274 C 0.15351 0.26313 0.61415 0.0
C2275 C 0.07305 0.2733 0.57484 0.0
C2276 C 0.09633 0.28713 0.56154 0.0
C2277 C 0.07686 0.25542 0.60108 0.0
C2278 C 0.10355 0.2518 0.6143 0.0
Tb2279 Tb 0.13392 0.32242 0.51663 0.0
N2280 N 0.0932 0.30524 0.53671 0.0
C2281 C 0.04659 0.27807 0.56157 0.0
C2282 C 0.0676 0.30919 0.52297 0.0
C2283 C 0.04389 0.29602 0.53546 0.0
H2284 H 0.18892 0.30466 0.563 0.0
H2285 H 0.0236 0.2994 0.52464 0.0
H2286 H 0.06825 0.42406 0.53304 0.0
H2287 H 0.2201 0.45494 0.4616 0.0
H2288 H 0.06531 0.32178 0.50186 0.0
H2289 H 0.02818 0.26786 0.57114 0.0
H2290 H 0.1998 0.4262 0.50467 0.0
H2291 H 0.19671 0.27535 0.61006 0.0
H2292 H 0.05922 0.2446 0.61162 0.0
H2293 H 0.10607 0.23823 0.63481 0.0
H2294 H 0.03411 0.45024 0.50044 0.0
H2295 H 0.15724 0.24997 0.63477 0.0
H2296 H 0.18914 0.48088 0.42471 0.0
N2297 N 0.1024 0.43206 0.50177 0.0
C2298 C 0.11171 0.44746 0.47669 0.0
C2299 C 0.05583 0.44939 0.49328 0.0
C2300 C 0.09309 0.46333 0.45787 0.0
C2301 C 0.07521 0.43436 0.51152 0.0
C2302 C 0.06469 0.46343 0.46591 0.0
N2303 N 0.15769 0.43501 0.49156 0.0
C2304 C 0.18607 0.4373 0.48864 0.0
C2305 C 0.15104 0.46651 0.44727 0.0
C2306 C 0.14033 0.44948 0.47181 0.0
C2307 C 0.18008 0.46822 0.44348 0.0
C2308 C 0.19765 0.45363 0.46432 0.0
H2309 H 0.04967 0.47527 0.45199 0.0
H2310 H 0.08954 0.49175 0.41776 0.0
H2311 H 0.14028 0.49424 0.40823 0.0
O2312 O 0.15584 0.44157 0.55155 0.0
O2313 O 0.14721 0.39295 0.48049 0.0
O2314 O 0.16104 0.34596 0.48356 0.0
O2315 O 0.11514 0.4282 0.56642 0.0
O2316 O 0.17772 0.38806 0.53592 0.0
O2317 O 0.17617 0.33942 0.52596 0.0
O2318 O 0.11777 0.29816 0.47862 0.0
O2319 O 0.11521 0.34135 0.5613 0.0
O2320 O 0.14507 0.37753 0.56646 0.0
O2321 O 0.15328 0.28403 0.50488 0.0
O2322 O 0.10802 0.34807 0.48558 0.0
O2323 O 0.09787 0.38246 0.52111 0.0
C2324 C 0.16106 0.37094 0.46981 0.0
C2325 C 0.12653 0.47647 0.57351 0.0
C2326 C 0.12208 0.51934 0.60538 0.0
C2327 C 0.11349 0.53377 0.57789 0.0
C2328 C 0.11844 0.49176 0.5465 0.0
C2329 C 0.11166 0.52004 0.54873 0.0
C2330 C 0.12816 0.49039 0.60321 0.0
C2331 C 0.18972 0.36301 0.53296 0.0
C2332 C 0.13492 0.44665 0.57043 0.0
C2333 C 0.10356 0.47965 0.4327 0.0
C2334 C 0.13247 0.48123 0.42741 0.0
C2335 C 0.12639 0.36118 0.57934 0.0
C2336 C 0.15199 0.27269 0.44951 0.0
C2337 C 0.15587 0.246 0.39901 0.0
C2338 C 0.18033 0.26124 0.39211 0.0
C2339 C 0.17655 0.28712 0.44148 0.0
C2340 C 0.14162 0.25206 0.42805 0.0
C2341 C 0.19045 0.28153 0.41305 0.0
C2342 C 0.09306 0.36973 0.49374 0.0
C2343 C 0.13747 0.27947 0.48012 0.0
H2344 H 0.1083 0.55583 0.57897 0.0
H2345 H 0.11775 0.48209 0.52349 0.0
H2346 H 0.10533 0.53148 0.52764 0.0
H2347 H 0.13488 0.47903 0.62423 0.0
H2348 H 0.1921 0.25711 0.37061 0.0
H2349 H 0.18517 0.3027 0.45735 0.0
H2350 H 0.1225 0.24103 0.43386 0.0
H2351 H 0.2094 0.29287 0.40731 0.0
Tb2352 Tb 0.34239 0.61462 0.27332 0.0
C2353 C 0.4613 0.62696 0.2179 0.0
N2354 N 0.44964 0.60567 0.23503 0.0
C2355 C 0.46723 0.57229 0.19743 0.0
C2356 C 0.47594 0.62164 0.18944 0.0
C2357 C 0.45285 0.57852 0.22552 0.0
C2358 C 0.47873 0.59392 0.17925 0.0
C2359 C 0.46913 0.67694 0.21109 0.0
C2360 C 0.45805 0.65437 0.22861 0.0
C2361 C 0.48394 0.67163 0.1829 0.0
C2362 C 0.48725 0.6441 0.17204 0.0
Tb2363 Tb 0.42859 0.61956 0.28113 0.0
N2364 N 0.44277 0.6589 0.25547 0.0
C2365 C 0.46478 0.70417 0.22233 0.0
C2366 C 0.43902 0.68529 0.26701 0.0
C2367 C 0.44975 0.70834 0.25046 0.0
H2368 H 0.44501 0.56138 0.23963 0.0
H2369 H 0.44658 0.7293 0.2595 0.0
H2370 H 0.32692 0.68264 0.26474 0.0
H2371 H 0.29119 0.53582 0.3449 0.0
H2372 H 0.42807 0.68862 0.2891 0.0
H2373 H 0.47298 0.72209 0.20953 0.0
H2374 H 0.31877 0.55327 0.2991 0.0
H2375 H 0.46962 0.55077 0.18992 0.0
H2376 H 0.49286 0.6887 0.16927 0.0
H2377 H 0.49857 0.64041 0.15011 0.0
H2378 H 0.30366 0.71923 0.29667 0.0
H2379 H 0.48982 0.58897 0.15749 0.0
H2380 H 0.27147 0.56932 0.38377 0.0
N2381 N 0.31999 0.65044 0.29904 0.0
C2382 C 0.30607 0.64297 0.3259 0.0
C2383 C 0.30443 0.6979 0.30534 0.0
C2384 C 0.29223 0.66306 0.34469 0.0
C2385 C 0.31765 0.67712 0.28738 0.0
C2386 C 0.2923 0.69098 0.33455 0.0
N2387 N 0.31501 0.59602 0.31251 0.0
C2388 C 0.30996 0.56796 0.31585 0.0
C2389 C 0.28745 0.60582 0.35911 0.0
C2390 C 0.30336 0.61476 0.3328 0.0
C2391 C 0.28353 0.57705 0.36377 0.0
C2392 C 0.29453 0.55806 0.3418 0.0
H2393 H 0.28201 0.70709 0.34836 0.0
H2394 H 0.26729 0.66961 0.38708 0.0
H2395 H 0.26327 0.61945 0.39985 0.0
O2396 O 0.30822 0.59347 0.25258 0.0
O2397 O 0.35807 0.59652 0.3185 0.0
O2398 O 0.40717 0.59871 0.32062 0.0
O2399 O 0.32045 0.63375 0.23545 0.0
O2400 O 0.36286 0.57379 0.26719 0.0
O2401 O 0.41153 0.5766 0.27696 0.0
O2402 O 0.45672 0.63785 0.31427 0.0
O2403 O 0.40547 0.63828 0.23923 0.0
O2404 O 0.36992 0.60732 0.23232 0.0
O2405 O 0.46751 0.60021 0.29021 0.0
O2406 O 0.40531 0.64599 0.31397 0.0
O2407 O 0.3679 0.65256 0.28165 0.0
C2408 C 0.38249 0.59209 0.33252 0.0
C2409 C 0.27252 0.62177 0.23044 0.0
C2410 C 0.22994 0.62784 0.19847 0.0
C2411 C 0.2154 0.63516 0.22629 0.0
C2412 C 0.25736 0.62886 0.25782 0.0
C2413 C 0.22906 0.6357 0.25568 0.0
C2414 C 0.25877 0.62155 0.20063 0.0
C2415 C 0.38796 0.56244 0.2716 0.0
C2416 C 0.3023 0.61363 0.23292 0.0
C2417 C 0.27766 0.65444 0.37203 0.0
C2418 C 0.27531 0.62586 0.37926 0.0
C2419 C 0.38686 0.6261 0.22038 0.0
C2420 C 0.48218 0.60385 0.34424 0.0
C2421 C 0.51054 0.60085 0.39365 0.0
C2422 C 0.49513 0.57694 0.40231 0.0
C2423 C 0.46742 0.58 0.35421 0.0
C2424 C 0.504 0.61427 0.36415 0.0
C2425 C 0.47396 0.56664 0.38274 0.0
C2426 C 0.38095 0.65749 0.30881 0.0
C2427 C 0.47438 0.6172 0.31312 0.0
H2428 H 0.19339 0.64052 0.22526 0.0
H2429 H 0.26726 0.62884 0.2809 0.0
H2430 H 0.21758 0.64122 0.27696 0.0
H2431 H 0.27025 0.61586 0.17936 0.0
H2432 H 0.49971 0.56588 0.42426 0.0
H2433 H 0.45074 0.57149 0.3398 0.0
H2434 H 0.5155 0.63276 0.35696 0.0
H2435 H 0.46248 0.5481 0.38971 0.0
Tb2436 Tb 0.13933 0.59509 1.02172 0.0
C2437 C 0.13243 0.71869 0.97171 0.0
N2438 N 0.15335 0.70459 0.98692 0.0
C2439 C 0.18689 0.72357 0.95031 0.0
C2440 C 0.13804 0.73572 0.94502 0.0
C2441 C 0.18044 0.7072 0.97695 0.0
C2442 C 0.16564 0.73786 0.93426 0.0
C2443 C 0.08294 0.73002 0.96754 0.0
C2444 C 0.10509 0.71576 0.98268 0.0
C2445 C 0.0886 0.74741 0.94132 0.0
C2446 C 0.11603 0.7501 0.92998 0.0
Tb2447 Tb 0.13916 0.68083 0.03124 0.0
N2448 N 0.10013 0.6979 1.00733 0.0
C2449 C 0.05568 0.72587 0.97877 0.0
C2450 C 0.0737 0.69419 1.01883 0.0
C2451 C 0.05107 0.70788 1.00451 0.0
H2452 H 0.19742 0.69743 0.98965 0.0
H2453 H 0.0301 0.70479 1.01355 0.0
H2454 H 0.07171 0.57969 1.0127 0.0
H2455 H 0.21942 0.54423 0.09189 0.0
H2456 H 0.07001 0.68113 0.03935 0.0
H2457 H 0.03808 0.73639 0.96772 0.0
H2458 H 0.20146 0.57441 0.0487 0.0
H2459 H 0.20836 0.72549 0.94244 0.0
H2460 H 0.07184 0.7585 0.92933 0.0
H2461 H 0.11999 0.76334 0.9095 0.0
H2462 H 0.03611 0.55201 0.04142 0.0
H2463 H 0.1708 0.75067 0.91378 0.0
H2464 H 0.18637 0.5191 0.12709 0.0
N2465 N 0.10402 0.57116 0.04634 0.0
C2466 C 0.11191 0.5555 0.07188 0.0
C2467 C 0.05725 0.5532 0.05055 0.0
C2468 C 0.09226 0.53943 0.08901 0.0
C2469 C 0.07747 0.56894 0.03443 0.0
C2470 C 0.06447 0.53909 0.07852 0.0
N2471 N 0.1587 0.56697 0.05979 0.0
C2472 C 0.18688 0.56356 0.06388 0.0
C2473 C 0.14955 0.53521 0.10318 0.0
C2474 C 0.14023 0.55294 0.0785 0.0
C2475 C 0.17838 0.53238 0.10822 0.0
C2476 C 0.19711 0.5465 0.08837 0.0
H2477 H 0.04876 0.5269 0.09091 0.0
H2478 H 0.08643 0.51065 0.12841 0.0
H2479 H 0.1366 0.50726 0.14111 0.0
O2480 O 0.15908 0.56059 1.00029 0.0
O2481 O 0.15223 0.6097 0.0694 0.0
O2482 O 0.16421 0.6574 0.0667 0.0
O2483 O 0.11946 0.57494 0.98282 0.0
O2484 O 0.18142 0.61355 1.01583 0.0
O2485 O 0.18128 0.66247 0.02414 0.0
O2486 O 0.12123 0.70671 0.06665 0.0
O2487 O 0.11913 0.66072 0.98804 0.0
O2488 O 0.14853 0.62419 0.98273 0.0
O2489 O 0.15872 0.71913 0.04325 0.0
O2490 O 0.11286 0.65719 0.06347 0.0
O2491 O 0.1015 0.62062 0.03129 0.0
C2492 C 0.16458 0.63243 0.08065 0.0
C2493 C 0.12997 0.52631 0.97667 0.0
C2494 C 0.12493 0.4838 0.94428 0.0
C2495 C 0.11636 0.46918 0.9716 0.0
C2496 C 0.1219 0.51081 1.00351 0.0
C2497 C 0.11481 0.48263 1.00093 0.0
C2498 C 0.13128 0.51267 0.94679 0.0
C2499 C 0.19415 0.63824 1.01836 0.0
C2500 C 0.13891 0.55595 0.98016 0.0
C2501 C 0.10128 0.52281 0.11467 0.0
C2502 C 0.12987 0.52072 0.12176 0.0
C2503 C 0.13015 0.641 0.96981 0.0
C2504 C 0.15387 0.7324 0.09781 0.0
C2505 C 0.15462 0.75993 0.14779 0.0
C2506 C 0.17746 0.74373 0.15808 0.0
C2507 C 0.17695 0.71715 0.10903 0.0
C2508 C 0.14282 0.75415 0.11729 0.0
C2509 C 0.18852 0.7227 0.13886 0.0
C2510 C 0.09792 0.63481 0.05806 0.0
C2511 C 0.14139 0.72494 0.0662 0.0
H2512 H 0.11101 0.44716 0.97025 0.0
H2513 H 0.12158 0.52021 0.02667 0.0
H2514 H 0.10853 0.47103 1.0219 0.0
H2515 H 0.13803 0.52416 0.92589 0.0
H2516 H 0.18711 0.74765 0.18102 0.0
H2517 H 0.18614 0.7009 0.09459 0.0
H2518 H 0.12502 0.76616 0.109 0.0
H2519 H 0.20628 0.71062 0.14712 0.0
Tb2520 Tb 0.16051 0.3884 0.77048 0.0
C2521 C 0.03779 0.36897 0.72508 0.0
N2522 N 0.05216 0.39187 0.73541 0.0
C2523 C 0.0357 0.41825 0.69051 0.0
C2524 C 0.02152 0.37003 0.69707 0.0
C2525 C 0.05153 0.41627 0.71847 0.0
C2526 C 0.02047 0.39513 0.67989 0.0
C2527 C 0.02725 0.31943 0.7308 0.0
C2528 C 0.04086 0.34381 0.74162 0.0
C2529 C 0.01019 0.32072 0.70356 0.0
C2530 C 0.00741 0.34591 0.6867 0.0
Tb2531 Tb 0.07465 0.38565 0.7828 0.0
N2532 N 0.05825 0.34303 0.76736 0.0
C2533 C 0.03151 0.29437 0.74741 0.0
C2534 C 0.06197 0.31877 0.78407 0.0
C2535 C 0.04892 0.29406 0.77415 0.0
H2536 H 0.06314 0.43429 0.7261 0.0
H2537 H 0.05199 0.27486 0.78742 0.0
H2538 H 0.16714 0.3251 0.73826 0.0
H2539 H 0.22632 0.43917 0.85806 0.0
H2540 H 0.07424 0.31832 0.80558 0.0
H2541 H 0.02143 0.27518 0.73984 0.0
H2542 H 0.1935 0.43759 0.81243 0.0
H2543 H 0.03524 0.43765 0.67717 0.0
H2544 H 0.9995 0.3022 0.69496 0.0
H2545 H 0.99468 0.34639 0.66533 0.0
H2546 H 0.18958 0.2801 0.75276 0.0
H2547 H 0.0083 0.39676 0.65817 0.0
H2548 H 0.2429 0.39511 0.88273 0.0
N2549 N 0.17956 0.34551 0.78104 0.0
C2550 C 0.19536 0.3441 0.80792 0.0
C2551 C 0.19114 0.29786 0.76862 0.0
C2552 C 0.20836 0.31887 0.81719 0.0
C2553 C 0.17854 0.32332 0.76046 0.0
C2554 C 0.20554 0.29543 0.79748 0.0
N2555 N 0.19085 0.39309 0.81224 0.0
C2556 C 0.20071 0.41827 0.82313 0.0
C2557 C 0.21981 0.36862 0.85015 0.0
C2558 C 0.20099 0.3687 0.82425 0.0
C2559 C 0.2284 0.3943 0.86289 0.0
C2560 C 0.21922 0.41923 0.84892 0.0
H2561 H 0.21527 0.27568 0.80373 0.0
H2562 H 0.23472 0.29894 0.85262 0.0
H2563 H 0.24483 0.34257 0.88146 0.0
O2564 O 0.19458 0.41275 0.75496 0.0
O2565 O 0.1473 0.4064 0.81644 0.0
O2566 O 0.0981 0.40945 0.81917 0.0
O2567 O 0.1812 0.37761 0.72754 0.0
O2568 O 0.1406 0.42999 0.76887 0.0
O2569 O 0.09118 0.42798 0.77246 0.0
O2570 O 0.04657 0.37168 0.81851 0.0
O2571 O 0.09454 0.36581 0.73939 0.0
O2572 O 0.13018 0.39612 0.73262 0.0
O2573 O 0.03716 0.40793 0.79086 0.0
O2574 O 0.09965 0.36169 0.81622 0.0
O2575 O 0.13447 0.35135 0.78172 0.0
C2576 C 0.12368 0.41418 0.83032 0.0
C2577 C 0.22989 0.38862 0.72673 0.0
C2578 C 0.27254 0.38524 0.69436 0.0
C2579 C 0.28727 0.37629 0.72148 0.0
C2580 C 0.24537 0.37967 0.7533 0.0
C2581 C 0.27373 0.37342 0.75064 0.0
C2582 C 0.24358 0.39108 0.69697 0.0
C2583 C 0.11531 0.4417 0.7692 0.0
C2584 C 0.20013 0.39698 0.73062 0.0
C2585 C 0.22504 0.31826 0.84475 0.0
C2586 C 0.23077 0.34311 0.8612 0.0
C2587 C 0.11385 0.37696 0.72063 0.0
C2588 C 0.02247 0.40837 0.84535 0.0
C2589 C 0.99654 0.41297 0.89636 0.0
C2590 C 0.0096 0.43909 0.90077 0.0
C2591 C 0.03518 0.43431 0.85135 0.0
C2592 C 0.00297 0.39771 0.86806 0.0
C2593 C 0.02878 0.44944 0.87871 0.0
C2594 C 0.12256 0.34805 0.80982 0.0
C2595 C 0.02983 0.39291 0.81542 0.0
H2596 H 0.30936 0.37136 0.72001 0.0
H2597 H 0.23574 0.37796 0.77633 0.0
H2598 H 0.28534 0.36657 0.77139 0.0
H2599 H 0.23201 0.3981 0.67623 0.0
H2600 H 0.00458 0.45198 0.92115 0.0
H2601 H 0.04993 0.44312 0.83459 0.0
H2602 H 0.99304 0.37768 0.86381 0.0
H2603 H 0.03859 0.46957 0.8827 0.0
Tb2604 Tb 0.36142 0.41607 0.51959 0.0
C2605 C 0.39147 0.30003 0.47459 0.0
N2606 N 0.36725 0.31077 0.48648 0.0
C2607 C 0.34212 0.29405 0.44084 0.0
C2608 C 0.39186 0.28589 0.44515 0.0
C2609 C 0.34279 0.30814 0.47 0.0
C2610 C 0.36672 0.28276 0.42842 0.0
C2611 C 0.44197 0.29557 0.47854 0.0
C2612 C 0.41631 0.30521 0.49089 0.0
C2613 C 0.44234 0.28089 0.44959 0.0
C2614 C 0.41738 0.27614 0.4329 0.0
Tb2615 Tb 0.37145 0.33273 0.53452 0.0
N2616 N 0.41537 0.32059 0.51817 0.0
C2617 C 0.46653 0.30116 0.49556 0.0
C2618 C 0.43916 0.32499 0.53553 0.0
C2619 C 0.46507 0.31573 0.52429 0.0
H2620 H 0.32389 0.31729 0.47881 0.0
H2621 H 0.48388 0.31955 0.53801 0.0
H2622 H 0.41567 0.44178 0.55952 0.0
H2623 H 0.25887 0.46083 0.49998 0.0
H2624 H 0.43839 0.33484 0.55854 0.0
H2625 H 0.48666 0.29405 0.48692 0.0
H2626 H 0.29983 0.43157 0.48654 0.0
H2627 H 0.32265 0.29213 0.42783 0.0
H2628 H 0.46188 0.2734 0.4397 0.0
H2629 H 0.41809 0.26524 0.4103 0.0
H2630 H 0.42326 0.47415 0.60433 0.0
H2631 H 0.36616 0.27214 0.40564 0.0
H2632 H 0.26 0.49115 0.54767 0.0
N2633 N 0.37163 0.44783 0.55835 0.0
C2634 C 0.34998 0.46383 0.56849 0.0
C2635 C 0.40242 0.47113 0.59481 0.0
C2636 C 0.35337 0.48329 0.59336 0.0
C2637 C 0.39796 0.4523 0.56983 0.0
C2638 C 0.37992 0.48634 0.60705 0.0
N2639 N 0.3233 0.44417 0.52723 0.0
C2640 C 0.30038 0.44449 0.50766 0.0
C2641 C 0.30216 0.47912 0.56079 0.0
C2642 C 0.32482 0.46177 0.55246 0.0
C2643 C 0.27791 0.47817 0.54208 0.0
C2644 C 0.27722 0.46114 0.51508 0.0
H2645 H 0.38345 0.50106 0.62624 0.0
H2646 H 0.33249 0.51441 0.62234 0.0
H2647 H 0.28757 0.51077 0.59376 0.0
O2648 O 0.35705 0.45085 0.48889 0.0
O2649 O 0.35547 0.40399 0.56958 0.0
O2650 O 0.34509 0.35611 0.56878 0.0
O2651 O 0.3941 0.42534 0.48768 0.0
O2652 O 0.32218 0.39137 0.51468 0.0
O2653 O 0.32682 0.34352 0.52807 0.0
O2654 O 0.38789 0.30642 0.57074 0.0
O2655 O 0.38659 0.35506 0.4899 0.0
O2656 O 0.35129 0.38545 0.48344 0.0
O2657 O 0.35327 0.29298 0.54281 0.0
O2658 O 0.3947 0.35974 0.56681 0.0
O2659 O 0.4024 0.39741 0.53395 0.0
C2660 C 0.3427 0.38161 0.58103 0.0
C2661 C 0.39826 0.47272 0.46946 0.0
C2662 C 0.40541 0.51576 0.43798 0.0
C2663 C 0.4325 0.51767 0.45119 0.0
C2664 C 0.42487 0.47605 0.48303 0.0
C2665 C 0.44183 0.49835 0.47383 0.0
C2666 C 0.38848 0.4928 0.44725 0.0
C2667 C 0.31172 0.36601 0.52066 0.0
C2668 C 0.38143 0.44731 0.476 0.0
C2669 C 0.33043 0.49957 0.60299 0.0
C2670 C 0.30485 0.49749 0.58672 0.0
C2671 C 0.37139 0.37103 0.47061 0.0
C2672 C 0.35396 0.27843 0.59738 0.0
C2673 C 0.34969 0.24955 0.64645 0.0
C2674 C 0.32505 0.26427 0.65374 0.0
C2675 C 0.32935 0.29247 0.60599 0.0
C2676 C 0.36406 0.25662 0.61772 0.0
C2677 C 0.31509 0.28544 0.6338 0.0
C2678 C 0.40787 0.38307 0.56027 0.0
C2679 C 0.36881 0.28728 0.56752 0.0
H2680 H 0.44699 0.53372 0.44365 0.0
H2681 H 0.43288 0.46104 0.50013 0.0
H2682 H 0.46264 0.50036 0.4838 0.0
H2683 H 0.36783 0.49028 0.43698 0.0
H2684 H 0.31316 0.25915 0.67491 0.0
H2685 H 0.321 0.30892 0.59102 0.0
H2686 H 0.38305 0.24557 0.61151 0.0
H2687 H 0.29607 0.29647 0.63993 0.0
C2688 C 0.3076 0.11202 0.15594 0.0
C2689 C 0.28521 0.13111 0.1586 0.0
C2690 C 0.32507 0.11171 0.12896 0.0
C2691 C 0.3214 0.1311 0.10403 0.0
H2692 H 0.31196 0.09754 0.1752 0.0
H2693 H 0.34216 0.09686 0.12817 0.0
S2694 S 0.26484 0.18442 0.09869 0.0
N2695 N 0.25937 0.1687 0.13318 0.0
N2696 N 0.29261 0.16908 0.08324 0.0
C2697 C 0.29865 0.14988 0.10616 0.0
C2698 C 0.28046 0.14963 0.13319 0.0
C2699 C 0.11546 0.05207 0.36335 0.0
C2700 C 0.1328 0.0755 0.35792 0.0
C2701 C 0.11897 0.03486 0.39018 0.0
C2702 C 0.13993 0.04041 0.4128 0.0
H2703 H 0.09924 0.04664 0.34646 0.0
H2704 H 0.10457 0.01762 0.39372 0.0
S2705 S 0.19132 0.09859 0.40976 0.0
N2706 N 0.17185 0.10307 0.37765 0.0
N2707 N 0.1791 0.07024 0.42738 0.0
C2708 C 0.15793 0.06325 0.40725 0.0
C2709 C 0.15422 0.08089 0.38005 0.0
C2710 C 0.21995 0.87027 0.64035 0.0
C2711 C 0.21491 0.89084 0.66357 0.0
C2712 C 0.20201 0.8671 0.61398 0.0
C2713 C 0.17858 0.88465 0.60952 0.0
H2714 H 0.23728 0.85586 0.64314 0.0
H2715 H 0.20668 0.85089 0.59678 0.0
S2716 S 0.15596 0.94136 0.66383 0.0
N2717 N 0.18493 0.9292 0.68014 0.0
N2718 N 0.15112 0.9228 0.63117 0.0
C2719 C 0.17361 0.90552 0.63232 0.0
C2720 C 0.19179 0.90873 0.65912 0.0
C2721 C 0.39445 0.95409 0.85939 0.0
C2722 C 0.37608 0.93112 0.85603 0.0
C2723 C 0.39374 0.97144 0.88644 0.0
C2724 C 0.37494 0.96621 0.91143 0.0
H2725 H 0.40965 0.95864 0.84098 0.0
H2726 H 0.40872 0.98837 0.88838 0.0
S2727 S 0.32225 0.90941 0.91457 0.0
N2728 N 0.33801 0.90491 0.87997 0.0
N2729 N 0.33721 0.93699 0.931 0.0
C2730 C 0.35612 0.94379 0.90815 0.0
C2731 C 0.3565 0.92643 0.8804 0.0
C2732 C 0.29913 0.87036 0.4291 0.0
C2733 C 0.32262 0.88722 0.4359 0.0
C2734 C 0.28214 0.87517 0.40226 0.0
C2735 C 0.28778 0.89717 0.38087 0.0
H2736 H 0.29368 0.85319 0.44461 0.0
H2737 H 0.26484 0.86105 0.39787 0.0
S2738 S 0.34664 0.9477 0.38746 0.0
N2739 N 0.35077 0.92666 0.41831 0.0
N2740 N 0.31819 0.9367 0.36906 0.0
C2741 C 0.31092 0.91455 0.38765 0.0
C2742 C 0.32842 0.90939 0.41478 0.0
C2743 C 0.39624 0.06666 0.63067 0.0
C2744 C 0.38777 0.03832 0.63121 0.0
C2745 C 0.39082 0.0847 0.6563 0.0
C2746 C 0.3758 0.07554 0.68305 0.0
H2747 H 0.40819 0.0748 0.61083 0.0
H2748 H 0.3993 0.10573 0.65567 0.0
S2749 S 0.34723 0.00432 0.6962 0.0
N2750 N 0.36284 0.00246 0.66128 0.0
N2751 N 0.35136 0.03693 0.70812 0.0
C2752 C 0.36564 0.04796 0.68318 0.0
C2753 C 0.37182 0.02926 0.65756 0.0
C2754 C 0.20263 0.14217 0.93431 0.0
C2755 C 0.17892 0.12515 0.93921 0.0
C2756 C 0.21914 0.14011 0.90676 0.0
C2757 C 0.21246 0.12104 0.88253 0.0
H2758 H 0.20852 0.15741 0.95185 0.0
H2759 H 0.23664 0.15431 0.90389 0.0
S2760 S 0.15376 0.07017 0.88381 0.0
N2761 N 0.1507 0.08727 0.91777 0.0
N2762 N 0.1813 0.08368 0.86571 0.0
C2763 C 0.18933 0.10322 0.88735 0.0
C2764 C 0.17274 0.1051 0.91571 0.0
C2765 C 0.12973 0.95948 0.19082 0.0
C2766 C 0.11847 0.93222 0.18956 0.0
C2767 C 0.12524 0.97897 0.16595 0.0
C2768 C 0.10961 0.97186 0.13855 0.0
H2769 H 0.14044 0.96648 0.21208 0.0
H2770 H 0.13271 1.00018 0.1691 0.0
S2771 S 0.07889 0.90182 0.12189 0.0
N2772 N 0.09231 0.89878 0.15795 0.0
N2773 N 0.08619 0.93401 0.11026 0.0
C2774 C 0.10011 0.94392 0.13616 0.0
C2775 C 0.10385 0.92454 0.16186 0.0
C2776 C 0.69285 0.90279 0.89415 0.0
C2777 C 0.71725 0.88692 0.88877 0.0
C2778 C 0.67686 0.89936 0.92186 0.0
C2779 C 0.68421 0.87948 0.94511 0.0
H2780 H 0.68562 0.91754 0.87632 0.0
H2781 H 0.6579 0.91153 0.9244 0.0
S2782 S 0.74847 0.83586 0.94516 0.0
N2783 N 0.74963 0.8528 0.91083 0.0
N2784 N 0.71956 0.8464 0.963 0.0
C2785 C 0.7094 0.86463 0.94101 0.0
C2786 C 0.72594 0.86837 0.91287 0.0
C2787 C 0.90364 0.94906 0.6452 0.0
C2788 C 0.89426 0.97709 0.64574 0.0
C2789 C 0.89741 0.93011 0.66982 0.0
C2790 C 0.88084 0.93785 0.69606 0.0
H2791 H 0.91643 0.94161 0.62572 0.0
H2792 H 0.90607 0.9092 0.66838 0.0
S2793 S 0.84853 0.00762 0.70821 0.0
N2794 N 0.86632 0.01111 0.67481 0.0
N2795 N 0.85322 0.97496 0.71989 0.0
C2796 C 0.86982 0.96521 0.69616 0.0
C2797 C 0.87679 0.98487 0.67137 0.0
C2798 C 0.7852 0.13939 0.40628 0.0
C2799 C 0.79116 0.12045 0.38171 0.0
C2800 C 0.80195 0.14065 0.43379 0.0
C2801 C 0.82526 0.12286 0.43814 0.0
H2802 H 0.76808 0.15408 0.40369 0.0
H2803 H 0.79646 0.15576 0.45189 0.0
S2804 S 0.84884 0.06852 0.38127 0.0
N2805 N 0.82142 0.0829 0.36367 0.0
N2806 N 0.85252 0.08484 0.41567 0.0
C2807 C 0.83076 0.10307 0.41421 0.0
C2808 C 0.81389 0.10204 0.38593 0.0
C2809 C 0.65569 0.05906 0.14313 0.0
C2810 C 0.63859 0.03532 0.13834 0.0
C2811 C 0.6524 0.07648 0.16975 0.0
C2812 C 0.63193 0.07095 0.19285 0.0
H2813 H 0.67149 0.06458 0.12577 0.0
H2814 H 0.66543 0.0949 0.17166 0.0
S2815 S 0.58354 0.01003 0.19365 0.0
N2816 N 0.60124 0.00656 0.16018 0.0
N2817 N 0.59591 0.03856 0.21072 0.0
C2818 C 0.61543 0.04669 0.18913 0.0
C2819 C 0.61865 0.02901 0.16191 0.0
C2820 C 0.72072 0.1492 0.63945 0.0
C2821 C 0.71287 0.13442 0.66699 0.0
C2822 C 0.70405 0.14875 0.6118 0.0
C2823 C 0.67896 0.13327 0.6102 0.0
H2824 H 0.73933 0.16215 0.63964 0.0
H2825 H 0.71079 0.16099 0.59161 0.0
S2826 S 0.64993 0.08932 0.67508 0.0
N2827 N 0.67896 0.10248 0.69035 0.0
N2828 N 0.64775 0.10183 0.63847 0.0
C2829 C 0.67142 0.1175 0.63715 0.0
C2830 C 0.68828 0.11809 0.66546 0.0
C2831 C 0.60966 0.94253 0.41406 0.0
C2832 C 0.62668 0.9666 0.41702 0.0
C2833 C 0.60978 0.92595 0.38642 0.0
C2834 C 0.62691 0.93254 0.3603 0.0
H2835 H 0.59599 0.93631 0.43336 0.0
H2836 H 0.59641 0.90765 0.38558 0.0
S2837 S 0.67255 0.99505 0.35336 0.0
N2838 N 0.65985 0.99699 0.38983 0.0
N2839 N 0.65892 0.96649 0.3376 0.0
C2840 C 0.64313 0.95707 0.36219 0.0
C2841 C 0.6432 0.97396 0.39047 0.0
C2842 C 0.79433 0.88526 0.11324 0.0
C2843 C 0.82218 0.87581 0.11379 0.0
C2844 C 0.77584 0.87909 0.13832 0.0
C2845 C 0.78461 0.8635 0.16511 0.0
H2846 H 0.78624 0.89592 0.09239 0.0
H2847 H 0.75415 0.88526 0.13578 0.0
S2848 S 0.85677 0.83718 0.17944 0.0
N2849 N 0.85821 0.85172 0.14379 0.0
N2850 N 0.82436 0.84178 0.19194 0.0
C2851 C 0.81306 0.85564 0.16671 0.0
C2852 C 0.83158 0.86131 0.1408 0.0
C2853 C 0.85162 0.08498 0.88492 0.0
C2854 C 0.87094 0.07758 0.86112 0.0
C2855 C 0.84929 0.06928 0.91321 0.0
C2856 C 0.86569 0.04516 0.91855 0.0
H2857 H 0.83869 0.10344 0.88206 0.0
H2858 H 0.83464 0.0762 0.93121 0.0
S2859 S 0.91735 0.01499 0.86256 0.0
N2860 N 0.90549 0.04318 0.84425 0.0
N2861 N 0.90074 0.01383 0.89694 0.0
C2862 C 0.88424 0.03691 0.89448 0.0
C2863 C 0.88701 0.05311 0.86598 0.0
C2864 C 0.81337 0.62782 0.66111 0.0
C2865 C 0.78791 0.613 0.65936 0.0
C2866 C 0.82966 0.63271 0.63375 0.0
C2867 C 0.8218 0.62175 0.60398 0.0
H2868 H 0.82083 0.63548 0.68385 0.0
H2869 H 0.84891 0.64444 0.63614 0.0
S2870 S 0.75515 0.58473 0.58629 0.0
N2871 N 0.75417 0.59015 0.62504 0.0
N2872 N 0.78513 0.59814 0.57412 0.0
C2873 C 0.79581 0.6079 0.60188 0.0
C2874 C 0.77883 0.60378 0.62944 0.0
C2875 C 0.61486 0.54983 0.86529 0.0
C2876 C 0.63181 0.5738 0.86144 0.0
C2877 C 0.61601 0.5334 0.89317 0.0
C2878 C 0.63376 0.54058 0.91863 0.0
H2879 H 0.60046 0.54375 0.84659 0.0
H2880 H 0.60215 0.51555 0.89527 0.0
S2881 S 0.68261 0.60101 0.92053 0.0
N2882 N 0.66723 0.60345 0.88539 0.0
N2883 N 0.66927 0.57292 0.93775 0.0
C2884 C 0.65118 0.56419 0.91483 0.0
C2885 C 0.65027 0.58066 0.88628 0.0
C2886 C 0.70869 0.35285 0.10845 0.0
C2887 C 0.6843 0.36941 0.10749 0.0
C2888 C 0.72554 0.35129 0.13585 0.0
C2889 C 0.71847 0.36596 0.16365 0.0
H2890 H 0.71474 0.34066 0.08796 0.0
H2891 H 0.74364 0.33765 0.13565 0.0
S2892 S 0.65789 0.41373 0.17338 0.0
N2893 N 0.65493 0.40206 0.13653 0.0
N2894 N 0.68627 0.39881 0.18815 0.0
C2895 C 0.69466 0.3833 0.16281 0.0
C2896 C 0.67772 0.38519 0.13472 0.0
C2897 C 0.84006 0.44021 0.40207 0.0
C2898 C 0.8564 0.46407 0.4088 0.0
C2899 C 0.84605 0.42283 0.37608 0.0
C2900 C 0.8684 0.42875 0.35543 0.0
H2901 H 0.82278 0.43452 0.41742 0.0
H2902 H 0.83341 0.40429 0.37265 0.0
S2903 S 0.91552 0.49066 0.36001 0.0
N2904 N 0.8952 0.49337 0.39153 0.0
N2905 N 0.90498 0.46213 0.3415 0.0
C2906 C 0.88404 0.45333 0.36095 0.0
C2907 C 0.8783 0.47072 0.38775 0.0
C2908 C 0.78545 0.37697 0.91069 0.0
C2909 C 0.7882 0.40048 0.8908 0.0
C2910 C 0.80406 0.37229 0.93606 0.0
C2911 C 0.82634 0.39082 0.94266 0.0
H2912 H 0.76941 0.36149 0.90599 0.0
H2913 H 0.8007 0.35404 0.9508 0.0
S2914 S 0.84123 0.45682 0.89918 0.0
N2915 N 0.81351 0.4438 0.88099 0.0
N2916 N 0.84908 0.43439 0.92778 0.0
C2917 C 0.82869 0.41495 0.92363 0.0
C2918 C 0.80953 0.41989 0.89798 0.0
C2919 C 0.87653 0.54526 0.19143 0.0
C2920 C 0.88636 0.57306 0.18935 0.0
C2921 C 0.88408 0.52483 0.16877 0.0
C2922 C 0.90138 0.53137 0.14258 0.0
H2923 H 0.86379 0.53886 0.21145 0.0
H2924 H 0.87705 0.50353 0.17249 0.0
S2925 S 0.92892 0.60231 0.12338 0.0
N2926 N 0.9123 0.60655 0.15744 0.0
N2927 N 0.92511 0.56897 0.11411 0.0
C2928 C 0.90989 0.55959 0.13928 0.0
C2929 C 0.90273 0.58016 0.16274 0.0
C2930 C 0.69314 0.59276 0.39073 0.0
C2931 C 0.71716 0.60885 0.38359 0.0
C2932 C 0.67633 0.59849 0.41729 0.0
C2933 C 0.68291 0.62022 0.4385 0.0
H2934 H 0.68704 0.57547 0.3756 0.0
H2935 H 0.65781 0.58589 0.42105 0.0
S2936 S 0.74539 0.66625 0.43411 0.0
N2937 N 0.74719 0.64696 0.40163 0.0
N2938 N 0.71704 0.65565 0.45297 0.0
C2939 C 0.70754 0.63559 0.43282 0.0
C2940 C 0.72435 0.63031 0.40521 0.0
C2941 C 0.62117 0.42234 0.66327 0.0
C2942 C 0.631 0.43158 0.69301 0.0
C2943 C 0.62524 0.43844 0.6356 0.0
C2944 C 0.63883 0.46464 0.63672 0.0
H2945 H 0.6108 0.40226 0.66124 0.0
H2946 H 0.61784 0.43023 0.61308 0.0
S2947 S 0.66553 0.49982 0.70919 0.0
N2948 N 0.65288 0.46972 0.72211 0.0
N2949 N 0.66054 0.49974 0.67034 0.0
C2950 C 0.64769 0.47459 0.66647 0.0
C2951 C 0.64384 0.4581 0.69452 0.0
C2952 C 0.20539 0.36125 0.43935 0.0
C2953 C 0.17919 0.37476 0.44126 0.0
C2954 C 0.2227 0.36413 0.41239 0.0
C2955 C 0.21434 0.38046 0.38616 0.0
H2956 H 0.21252 0.34813 0.45873 0.0
H2957 H 0.24218 0.35259 0.41155 0.0
S2958 S 0.14796 0.42037 0.37916 0.0
N2959 N 0.14604 0.40525 0.41447 0.0
N2960 N 0.17846 0.41098 0.36421 0.0
C2961 C 0.18853 0.39463 0.38815 0.0
C2962 C 0.17101 0.39173 0.41554 0.0
C2963 C 0.39103 0.46346 0.19891 0.0
C2964 C 0.37364 0.43965 0.19906 0.0
C2965 C 0.3919 0.4816 0.1725 0.0
C2966 C 0.37562 0.47635 0.14524 0.0
H2967 H 0.40467 0.46762 0.21899 0.0
H2968 H 0.40648 0.49896 0.17272 0.0
S2969 S 0.32732 0.41656 0.13342 0.0
N2970 N 0.33998 0.41188 0.16967 0.0
N2971 N 0.34176 0.44569 0.11997 0.0
C2972 C 0.35775 0.45298 0.14542 0.0
C2973 C 0.35671 0.43468 0.17237 0.0
C2974 C 0.27743 0.64361 0.91387 0.0
C2975 C 0.28539 0.62845 0.88664 0.0
C2976 C 0.29446 0.64405 0.94129 0.0
C2977 C 0.31972 0.6289 0.94267 0.0
H2978 H 0.25859 0.6562 0.91344 0.0
H2979 H 0.28804 0.65669 0.96138 0.0
S2980 S 0.3496 0.58538 0.8783 0.0
N2981 N 0.32003 0.59749 0.8632 0.0
N2982 N 0.35156 0.59807 0.91478 0.0
C2983 C 0.32739 0.61295 0.91611 0.0
C2984 C 0.31035 0.6128 0.88809 0.0
C2985 C 0.10724 0.54644 0.68897 0.0
C2986 C 0.12353 0.57101 0.69056 0.0
C2987 C 0.10794 0.52884 0.6621 0.0
C2988 C 0.12483 0.5353 0.63571 0.0
H2989 H 0.09379 0.54073 0.70864 0.0
H2990 H 0.09443 0.51064 0.66151 0.0
S2991 S 0.17265 0.59617 0.6285 0.0
N2992 N 0.15818 0.59989 0.66391 0.0
N2993 N 0.15922 0.56721 0.61345 0.0
C2994 C 0.1419 0.55927 0.63746 0.0
C2995 C 0.14141 0.57695 0.66489 0.0
C2996 C 0.20657 0.6452 0.11384 0.0
C2997 C 0.1817 0.62959 0.11028 0.0
C2998 C 0.22277 0.6437 0.14182 0.0
C2999 C 0.21454 0.62678 0.16757 0.0
H3000 H 0.21362 0.65877 0.09486 0.0
H3001 H 0.24138 0.65654 0.14369 0.0
S3002 S 0.15204 0.58082 0.17033 0.0
N3003 N 0.15055 0.59564 0.13483 0.0
N3004 N 0.18057 0.59327 0.18739 0.0
C3005 C 0.19016 0.61056 0.16411 0.0
C3006 C 0.17391 0.61178 0.13548 0.0
C3007 C 0.10924 0.45703 0.86072 0.0
C3008 C 0.12588 0.43271 0.85867 0.0
C3009 C 0.11009 0.47447 0.88772 0.0
C3010 C 0.12747 0.46808 0.91378 0.0
H3011 H 0.09542 0.46266 0.8413 0.0
H3012 H 0.09634 0.49247 0.88868 0.0
S3013 S 0.17611 0.40782 0.9198 0.0
N3014 N 0.16117 0.40408 0.88456 0.0
N3015 N 0.16254 0.43649 0.9353 0.0
C3016 C 0.14479 0.44434 0.9116 0.0
C3017 C 0.14413 0.42681 0.88403 0.0
C3018 C 0.29999 0.36762 0.61194 0.0
C3019 C 0.32393 0.38475 0.6091 0.0
C3020 C 0.28233 0.36914 0.63864 0.0
C3021 C 0.28806 0.38768 0.66374 0.0
H3022 H 0.29488 0.35271 0.59345 0.0
H3023 H 0.26476 0.35489 0.64027 0.0
S3024 S 0.34712 0.43798 0.66762 0.0
N3025 N 0.35155 0.42172 0.63333 0.0
N3026 N 0.31863 0.42435 0.68359 0.0
C3027 C 0.31138 0.40552 0.66081 0.0
C3028 C 0.32919 0.40417 0.63348 0.0
C3029 C 0.38015 0.52822 0.38652 0.0
C3030 C 0.39581 0.53678 0.4134 0.0
C3031 C 0.37389 0.54689 0.36144 0.0
C3032 C 0.3835 0.57472 0.36185 0.0
H3033 H 0.37377 0.50659 0.38399 0.0
H3034 H 0.36295 0.53897 0.34073 0.0
S3035 S 0.42237 0.60898 0.42746 0.0
N3036 N 0.4174 0.57663 0.44013 0.0
N3037 N 0.40812 0.6104 0.39167 0.0
C3038 C 0.39824 0.58386 0.3888 0.0
C3039 C 0.40372 0.56528 0.41485 0.0
C3040 C 0.14782 0.22852 0.34238 0.0
C3041 C 0.14642 0.22373 0.3757 0.0
C3042 C 0.14157 0.20735 0.31993 0.0
C3043 C 0.13359 0.18033 0.32969 0.0
H3044 H 0.15386 0.24892 0.33347 0.0
H3045 H 0.14283 0.21223 0.29478 0.0
S3046 S 0.12721 0.15614 0.41357 0.0
N3047 N 0.13694 0.18918 0.41676 0.0
N3048 N 0.12461 0.14997 0.37502 0.0
C3049 C 0.13176 0.17533 0.3628 0.0
C3050 C 0.13829 0.19677 0.38561 0.0
C3051 C 0.09188 0.8837 0.6228 0.0
C3052 C 0.07884 0.8821 0.59282 0.0
C3053 C 0.0768 0.8897 0.65061 0.0
C3054 C 0.04759 0.89402 0.65021 0.0
H3055 H 0.11412 0.88 0.62493 0.0
H3056 H 0.08829 0.89077 0.67284 0.0
S3057 S 0.00247 0.88801 0.5784 0.0
N3058 N 0.03435 0.88206 0.56482 0.0
N3059 N 0.00588 0.89424 0.61692 0.0
C3060 C 0.03396 0.89137 0.62048 0.0
C3061 C 0.04954 0.88522 0.59192 0.0
C3062 C 0.37669 0.79721 0.82515 0.0
C3063 C 0.37925 0.82535 0.83444 0.0
C3064 C 0.37055 0.77594 0.8474 0.0
C3065 C 0.36667 0.78163 0.88018 0.0
H3066 H 0.37918 0.79157 0.80035 0.0
H3067 H 0.36826 0.75476 0.8386 0.0
S3068 S 0.37478 0.85156 0.91743 0.0
N3069 N 0.38055 0.85736 0.8792 0.0
N3070 N 0.3681 0.81776 0.92077 0.0
C3071 C 0.37072 0.80953 0.88999 0.0
C3072 C 0.37726 0.83119 0.86727 0.0
C3073 C 0.4587 0.12144 0.06915 0.0
C3074 C 0.43063 0.12297 0.07885 0.0
C3075 C 0.48037 0.11577 0.09112 0.0
C3076 C 0.47512 0.11112 0.12393 0.0
H3077 H 0.46404 0.12501 0.04442 0.0
H3078 H 0.50159 0.11492 0.08217 0.0
S3079 S 0.40476 0.11193 0.16118 0.0
N3080 N 0.3986 0.1194 0.12339 0.0
N3081 N 0.43898 0.10783 0.16435 0.0
C3082 C 0.44702 0.11268 0.13384 0.0
C3083 C 0.42497 0.11879 0.11145 0.0
C3084 C 0.13109 0.79752 0.22397 0.0
C3085 C 0.12971 0.82586 0.21486 0.0
C3086 C 0.13804 0.77639 0.20188 0.0
C3087 C 0.14398 0.78256 0.16964 0.0
H3088 H 0.12679 0.79163 0.24838 0.0
H3089 H 0.13907 0.75495 0.21023 0.0
S3090 S 0.14667 0.85385 0.13474 0.0
N3091 N 0.13702 0.85909 0.17201 0.0
N3092 N 0.14999 0.81962 0.13068 0.0
C3093 C 0.14306 0.81087 0.16042 0.0
C3094 C 0.13597 0.83238 0.18294 0.0
C3095 C 0.47788 0.89469 0.45236 0.0
C3096 C 0.4731 0.89594 0.41906 0.0
C3097 C 0.45627 0.88859 0.47423 0.0
C3098 C 0.42873 0.88356 0.4639 0.0
H3099 H 0.49863 0.89861 0.46174 0.0
H3100 H 0.46119 0.88772 0.4994 0.0
S3101 S 0.40451 0.88395 0.37978 0.0
N3102 N 0.43817 0.89145 0.37731 0.0
N3103 N 0.39797 0.87951 0.41805 0.0
C3104 C 0.42372 0.88407 0.43076 0.0
C3105 C 0.44568 0.89039 0.4085 0.0
C3106 C 0.36343 0.19914 0.65879 0.0
C3107 C 0.35914 0.22683 0.66924 0.0
C3108 C 0.36873 0.17708 0.68056 0.0
C3109 C 0.36975 0.18157 0.71381 0.0
H3110 H 0.36193 0.19432 0.63365 0.0
H3111 H 0.37175 0.15616 0.67128 0.0
S3112 S 0.36335 0.25049 0.75347 0.0
N3113 N 0.35851 0.25759 0.71533 0.0
N3114 N 0.3687 0.21639 0.75567 0.0
C3115 C 0.36653 0.20923 0.72447 0.0
C3116 C 0.36111 0.23168 0.70241 0.0
C3117 C 0.04473 0.12243 0.97782 0.0
C3118 C 0.07221 0.12664 0.967 0.0
C3119 C 0.02245 0.11788 0.9563 0.0
C3120 C 0.02647 0.11721 0.92284 0.0
H3121 H 0.04035 0.1229 1.00311 0.0
H3122 H 1.00176 0.11465 0.9661 0.0
S3123 S 0.09461 0.12785 0.88234 0.0
N3124 N 0.10211 0.13096 0.92057 0.0
N3125 N 0.06067 0.12154 0.88043 0.0
C3126 C 0.05386 0.12198 0.91181 0.0
C3127 C 0.0765 0.12688 0.93374 0.0
C3128 C 0.84894 0.83486 0.67915 0.0
C3129 C 0.87177 0.83038 0.6999 0.0
C3130 C 0.84657 0.82068 0.64986 0.0
C3131 C 0.8667 0.80101 0.63987 0.0
H3132 H 0.83327 0.85042 0.68478 0.0
H3133 H 0.82902 0.82567 0.63451 0.0
S3134 S 0.92964 0.77996 0.68591 0.0
N3135 N 0.91433 0.80354 0.70871 0.0
N3136 N 0.90971 0.77692 0.65392 0.0
C3137 C 0.88903 0.7954 0.66088 0.0
C3138 C 0.89163 0.81008 0.69067 0.0
C3139 C 0.95034 0.11609 0.41253 0.0
C3140 C 0.97645 0.10586 0.42305 0.0
C3141 C 0.92854 0.12232 0.43416 0.0
C3142 C 0.93158 0.11835 0.46737 0.0
H3143 H 0.94638 0.11858 0.38729 0.0
H3144 H 0.90884 0.12986 0.42468 0.0
S3145 S 0.99646 0.09534 0.50806 0.0
N3146 N 0.00462 0.09476 0.46986 0.0
N3147 N 0.9635 0.10553 0.50979 0.0
C3148 C 0.95768 0.10888 0.47834 0.0
C3149 C 0.98004 0.10292 0.45645 0.0
C3150 C 0.64288 0.227 0.19934 0.0
C3151 C 0.64364 0.22143 0.16624 0.0
C3152 C 0.63672 0.20594 0.22195 0.0
C3153 C 0.63151 0.17816 0.21262 0.0
H3154 H 0.64718 0.24794 0.20791 0.0
H3155 H 0.63564 0.21158 0.24687 0.0
S3156 S 0.63149 0.15194 0.12943 0.0
N3157 N 0.63882 0.18559 0.12572 0.0
N3158 N 0.62739 0.14624 0.16795 0.0
C3159 C 0.63194 0.17232 0.1797 0.0
C3160 C 0.63801 0.19378 0.15666 0.0
C3161 C 0.53857 0.89523 0.92692 0.0
C3162 C 0.55007 0.89297 0.89608 0.0
C3163 C 0.55424 0.88788 0.95447 0.0
C3164 C 0.58226 0.87871 0.95238 0.0
H3165 H 0.51768 0.90359 0.92985 0.0
H3166 H 0.54431 0.88938 0.97753 0.0
S3167 S 0.62094 0.86629 0.87699 0.0
N3168 N 0.59039 0.87869 0.86522 0.0
N3169 N 0.61949 0.86513 0.91624 0.0
C3170 C 0.59328 0.87507 0.92152 0.0
C3171 C 0.57741 0.88231 0.8937 0.0
C3172 C 0.86658 0.20451 0.88398 0.0
C3173 C 0.85615 0.23047 0.87328 0.0
C3174 C 0.87229 0.18241 0.8626 0.0
C3175 C 0.86757 0.18496 0.82947 0.0
H3176 H 0.86964 0.20088 0.90921 0.0
H3177 H 0.87998 0.16282 0.87227 0.0
S3178 S 0.84364 0.24927 0.78826 0.0
N3179 N 0.84399 0.258 0.8263 0.0
N3180 N 0.85372 0.21624 0.78684 0.0
C3181 C 0.85784 0.2109 0.81827 0.0
C3182 C 0.85243 0.2336 0.83992 0.0
C3183 C 0.55289 0.11719 0.63498 0.0
C3184 C 0.52576 0.10976 0.62486 0.0
C3185 C 0.57411 0.12421 0.61292 0.0
C3186 C 0.56934 0.12385 0.5797 0.0
H3187 H 0.55801 0.11688 0.66011 0.0
H3188 H 0.59466 0.12957 0.62197 0.0
S3189 S 0.50133 0.10933 0.54064 0.0
N3190 N 0.49491 0.10499 0.57897 0.0
N3191 N 0.53472 0.11791 0.53807 0.0
C3192 C 0.54217 0.11741 0.56929 0.0
C3193 C 0.52051 0.11041 0.59166 0.0
C3194 C 0.63202 0.82992 0.36779 0.0
C3195 C 0.62822 0.82507 0.33488 0.0
C3196 C 0.63837 0.80789 0.38927 0.0
C3197 C 0.64073 0.77995 0.37883 0.0
H3198 H 0.63087 0.8511 0.37687 0.0
H3199 H 0.64248 0.81294 0.41397 0.0
S3200 S 0.62865 0.7556 0.29579 0.0
N3201 N 0.62484 0.78988 0.29357 0.0
N3202 N 0.63578 0.74865 0.33349 0.0
C3203 C 0.63538 0.77479 0.34619 0.0
C3204 C 0.62935 0.7972 0.3244 0.0
C3205 C 0.92119 0.89017 0.11678 0.0
C3206 C 0.92674 0.88912 0.08378 0.0
C3207 C 0.94244 0.89583 0.13939 0.0
C3208 C 0.97035 0.90051 0.13004 0.0
H3209 H 0.90007 0.88688 0.12521 0.0
H3210 H 0.93681 0.89723 0.1643 0.0
S3211 S 0.99654 0.8972 0.04672 0.0
N3212 N 0.96264 0.89129 0.04322 0.0
N3213 N 0.00246 0.90185 0.08512 0.0
C3214 C 0.97623 0.89877 0.09705 0.0
C3215 C 0.95456 0.89308 0.07414 0.0
C3216 C 0.63542 0.67419 0.86543 0.0
C3217 C 0.63347 0.67955 0.83241 0.0
C3218 C 0.6415 0.6957 0.88756 0.0
C3219 C 0.64543 0.72364 0.87766 0.0
H3220 H 0.63273 0.65303 0.8742 0.0
H3221 H 0.64393 0.69023 0.91245 0.0
S3222 S 0.63838 0.74945 0.79435 0.0
N3223 N 0.63353 0.71535 0.79143 0.0
N3224 N 0.64393 0.75565 0.83251 0.0
C3225 C 0.64212 0.72937 0.84479 0.0
C3226 C 0.63639 0.70745 0.82236 0.0
C3227 C 0.55517 0.39355 0.08951 0.0
C3228 C 0.58086 0.37896 0.09103 0.0
C3229 C 0.53943 0.39958 0.11741 0.0
C3230 C 0.54842 0.39067 0.14787 0.0
H3231 H 0.54697 0.40005 0.06666 0.0
H3232 H 0.52045 0.41179 0.11518 0.0
S3233 S 0.61199 0.34877 0.16501 0.0
N3234 N 0.61294 0.35389 0.12618 0.0
N3235 N 0.58344 0.36475 0.17738 0.0
C3236 C 0.57325 0.37503 0.14944 0.0
C3237 C 0.58929 0.36917 0.12145 0.0
C3238 C 0.8765 0.32301 0.36128 0.0
C3239 C 0.87307 0.31934 0.32808 0.0
C3240 C 0.87056 0.30144 0.38333 0.0
C3241 C 0.86112 0.27494 0.3733 0.0
H3242 H 0.88324 0.34309 0.37046 0.0
H3243 H 0.87251 0.3059 0.40851 0.0
S3244 S 0.85217 0.25323 0.28872 0.0
N3245 N 0.86166 0.2864 0.28626 0.0
N3246 N 0.85128 0.24569 0.32711 0.0
C3247 C 0.85877 0.27067 0.33997 0.0
C3248 C 0.86452 0.29279 0.31759 0.0
C3249 C 0.95763 0.61583 0.57357 0.0
C3250 C 0.92931 0.61834 0.5823 0.0
C3251 C 0.97867 0.61025 0.59647 0.0
C3252 C 0.9725 0.6072 0.62927 0.0
H3253 H 0.96361 0.61821 0.54885 0.0
H3254 H 1.00005 0.60809 0.58835 0.0
S3255 S 0.90141 0.61034 0.66424 0.0
N3256 N 0.89625 0.61642 0.62594 0.0
N3257 N 0.93549 0.60612 0.66867 0.0
C3258 C 0.94427 0.60975 0.6382 0.0
C3259 C 0.92287 0.61529 0.61487 0.0
C3260 C 0.63249 0.32986 0.68448 0.0
C3261 C 0.63233 0.32451 0.71756 0.0
C3262 C 0.63821 0.30858 0.6621 0.0
C3263 C 0.64385 0.28093 0.67182 0.0
H3264 H 0.62858 0.35087 0.67581 0.0
H3265 H 0.63903 0.31402 0.63707 0.0
S3266 S 0.6426 0.25504 0.75532 0.0
N3267 N 0.63584 0.2888 0.75855 0.0
N3268 N 0.6468 0.24904 0.71689 0.0
C3269 C 0.64275 0.27512 0.70479 0.0
C3270 C 0.63689 0.29676 0.7275 0.0
C3271 C 0.92832 0.38607 0.93423 0.0
C3272 C 0.93251 0.38984 0.9673 0.0
C3273 C 0.94923 0.3926 0.91165 0.0
C3274 C 0.97555 0.40305 0.92097 0.0
H3275 H 0.9084 0.37835 0.92559 0.0
H3276 H 0.94441 0.39012 0.8866 0.0
S3277 S 0.9985 0.41364 1.00493 0.0
N3278 N 0.96581 0.40285 1.00823 0.0
N3279 N 0.00522 0.41457 0.96637 0.0
C3280 C 0.98032 0.40602 0.95415 0.0
C3281 C 0.95887 0.39959 0.97708 0.0
C3282 C 0.86759 0.70225 0.1608 0.0
C3283 C 0.86063 0.72953 0.17066 0.0
C3284 C 0.8736 0.68084 0.18308 0.0
C3285 C 0.87269 0.68556 0.2163 0.0
H3286 H 0.86758 0.69714 0.13568 0.0
H3287 H 0.87855 0.66017 0.17418 0.0
S3288 S 0.85889 0.75382 0.25483 0.0
N3289 N 0.85564 0.76044 0.21637 0.0
N3290 N 0.86658 0.72021 0.25772 0.0
C3291 C 0.8667 0.71286 0.2265 0.0
C3292 C 0.86076 0.73474 0.20388 0.0
C3293 C 0.54894 0.61832 0.47153 0.0
C3294 C 0.5769 0.62209 0.46205 0.0
C3295 C 0.52763 0.61264 0.44915 0.0
C3296 C 0.53315 0.61071 0.41613 0.0
H3297 H 0.54345 0.61974 0.49648 0.0
H3298 H 0.50656 0.60941 0.45787 0.0
S3299 S 0.60295 0.61946 0.3789 0.0
N3300 N 0.60886 0.62422 0.41728 0.0
N3301 N 0.56907 0.61329 0.37542 0.0
C3302 C 0.56095 0.61512 0.40632 0.0
C3303 C 0.58266 0.6209 0.42916 0.0
C3304 C 0.35423 0.32501 0.14534 0.0
C3305 C 0.37438 0.30466 0.13738 0.0
C3306 C 0.3551 0.33935 0.17466 0.0
C3307 C 0.37665 0.33461 0.19702 0.0
H3308 H 0.33787 0.33025 0.12847 0.0
H3309 H 0.3393 0.35504 0.17922 0.0
S3310 S 0.4336 0.28217 0.18849 0.0
N3311 N 0.41555 0.27935 0.15506 0.0
N3312 N 0.41776 0.3066 0.2096 0.0
C3313 C 0.39646 0.31366 0.18968 0.0
C3314 C 0.39518 0.29865 0.16009 0.0
C3315 C 0.45781 0.60753 0.91401 0.0
C3316 C 0.44808 0.61875 0.88487 0.0
C3317 C 0.44324 0.6119 0.94294 0.0
C3318 C 0.41819 0.6275 0.94407 0.0
H3319 H 0.47659 0.59487 0.91441 0.0
H3320 H 0.45197 0.6034 0.96464 0.0
S3321 S 0.3851 0.66369 0.87511 0.0
N3322 N 0.4128 0.64814 0.85981 0.0
N3323 N 0.38541 0.65564 0.91331 0.0
C3324 C 0.4088 0.63953 0.91524 0.0
C3325 C 0.42362 0.63526 0.88597 0.0
C3326 C 0.14957 0.71328 0.6759 0.0
C3327 C 0.14244 0.70271 0.64551 0.0
C3328 C 0.14298 0.69838 0.70432 0.0
C3329 C 0.12954 0.67205 0.70355 0.0
H3330 H 0.1606 0.73301 0.67774 0.0
H3331 H 0.14774 0.70795 0.72697 0.0
S3332 S 0.10273 0.63734 0.63011 0.0
N3333 N 0.11844 0.66579 0.6169 0.0
N3334 N 0.10663 0.63798 0.66912 0.0
C3335 C 0.12129 0.66211 0.67319 0.0
C3336 C 0.12772 0.67724 0.64462 0.0
C3337 C 0.05163 0.38597 0.41776 0.0
C3338 C 0.02391 0.38905 0.42854 0.0
C3339 C 0.07378 0.38009 0.4391 0.0
C3340 C 0.06931 0.37748 0.4722 0.0
H3341 H 0.0564 0.38875 0.39276 0.0
H3342 H 0.09471 0.37787 0.42963 0.0
S3343 S 1.00055 0.38022 0.5125 0.0
N3344 N 0.99317 0.38629 0.47467 0.0
N3345 N 0.03481 0.37607 0.51431 0.0
C3346 C 0.04173 0.37971 0.48321 0.0
C3347 C 0.01912 0.3853 0.46156 0.0
C3348 C 0.36845 0.73154 0.3407 0.0
C3349 C 0.36126 0.72715 0.37303 0.0
C3350 C 0.37415 0.70908 0.31985 0.0
C3351 C 0.37282 0.68113 0.33029 0.0
H3352 H 0.36956 0.75264 0.33133 0.0
H3353 H 0.37979 0.71365 0.29542 0.0
S3354 S 0.35288 0.65765 0.41138 0.0
N3355 N 0.35183 0.69217 0.4136 0.0
N3356 N 0.36265 0.65024 0.37464 0.0
C3357 C 0.36556 0.67636 0.36234 0.0
C3358 C 0.35975 0.69921 0.3836 0.0
C3359 C 0.09307 0.62561 0.11632 0.0
C3360 C 0.08097 0.62434 0.08577 0.0
C3361 C 0.07842 0.61772 0.14385 0.0
C3362 C 0.05029 0.60894 0.1427 0.0
H3363 H 0.1142 0.63326 0.11915 0.0
H3364 H 0.08925 0.61897 0.16649 0.0
S3365 S 0.00671 0.60673 0.06937 0.0
N3366 N 0.03772 0.61708 0.05649 0.0
N3367 N 0.00998 0.60186 0.10819 0.0
C3368 C 0.03724 0.60891 0.11245 0.0
C3369 C 0.0525 0.61675 0.08411 0.0
C3370 C 0.13793 0.29846 0.8222 0.0
C3371 C 0.13087 0.32543 0.83272 0.0
C3372 C 0.14492 0.27697 0.8439 0.0
C3373 C 0.14479 0.2813 0.87725 0.0
H3374 H 0.13753 0.29372 0.79702 0.0
H3375 H 0.1504 0.25666 0.83436 0.0
S3376 S 0.1253 0.34772 0.91716 0.0
N3377 N 0.12215 0.35476 0.87881 0.0
N3378 N 0.13573 0.31484 0.91939 0.0
C3379 C 0.13678 0.308 0.88804 0.0
C3380 C 0.12965 0.32983 0.8659 0.0
C3381 C 0.45018 0.39726 0.63625 0.0
C3382 C 0.47772 0.40128 0.62513 0.0
C3383 C 0.42778 0.39173 0.6151 0.0
C3384 C 0.43171 0.39065 0.5818 0.0
H3385 H 0.44572 0.39891 0.66145 0.0
H3386 H 0.40704 0.38865 0.62487 0.0
S3387 S 0.49965 0.39605 0.54016 0.0
N3388 N 0.50766 0.40036 0.57811 0.0
N3389 N 0.46538 0.39202 0.53891 0.0
C3390 C 0.45899 0.39414 0.57033 0.0
C3391 C 0.48195 0.39888 0.59179 0.0
C3392 C 0.09555 0.01371 0.2554 0.0
C3393 C 0.11577 0.02984 0.27127 0.0
C3394 C 0.09377 0.98461 0.26 0.0
C3395 C 0.11207 0.97022 0.28084 0.0
H3396 H 0.08129 0.02343 0.23878 0.0
H3397 H 0.07819 0.97328 0.24643 0.0
S3398 S 0.16779 0.00315 0.32977 0.0
N3399 N 0.15397 0.0294 0.30955 0.0
N3400 N 0.15047 0.97497 0.31849 0.0
C3401 C 0.13225 0.98621 0.29713 0.0
C3402 C 0.13417 0.01585 0.29222 0.0
C3403 C 0.23427 0.85634 0.50211 0.0
C3404 C 0.21821 0.87611 0.51879 0.0
C3405 C 0.26343 0.85455 0.50618 0.0
C3406 C 0.27806 0.87237 0.52724 0.0
H3407 H 0.22412 0.84181 0.48602 0.0
H3408 H 0.27454 0.8389 0.49257 0.0
S3409 S 0.24514 0.92404 0.58135 0.0
N3410 N 0.21889 0.9117 0.55999 0.0
N3411 N 0.2733 0.90768 0.56842 0.0
C3412 C 0.26206 0.89129 0.54527 0.0
C3413 C 0.23235 0.89341 0.54074 0.0
C3414 C 0.40288 0.98694 0.74936 0.0
C3415 C 0.38253 0.97055 0.76499 0.0
C3416 C 0.40384 0.01632 0.75286 0.0
C3417 C 0.38459 0.03067 0.77237 0.0
H3418 H 0.41823 0.97694 0.73422 0.0
H3419 H 0.41941 0.02791 0.73955 0.0
S3420 S 0.33044 0.99728 0.82299 0.0
N3421 N 0.3451 0.97095 0.80391 0.0
N3422 N 0.34636 0.02571 0.80995 0.0
C3423 C 0.36478 0.01445 0.78893 0.0
C3424 C 0.36388 0.9846 0.7854 0.0
C3425 C 0.23987 0.1185 0.04088 0.0
C3426 C 0.22334 0.1404 0.02862 0.0
C3427 C 0.26887 0.11729 0.03529 0.0
C3428 C 0.28283 0.13796 1.01722 0.0
H3429 H 0.23049 0.10229 0.05532 0.0
H3430 H 0.28052 0.10029 0.04598 0.0
S3431 S 0.24996 0.20089 0.98144 0.0
N3432 N 0.22416 0.18499 1.00015 0.0
N3433 N 0.27758 0.18085 0.9871 0.0
C3434 C 0.26668 0.16015 1.00534 0.0
C3435 C 0.23736 0.16196 1.01187 0.0
C3436 C 0.90763 0.01598 0.76171 0.0
C3437 C 0.88607 0.03212 0.77502 0.0
C3438 C 0.90935 0.98697 0.76718 0.0
C3439 C 0.88961 0.97282 0.78635 0.0
H3440 H 0.92284 0.02557 0.74616 0.0
H3441 H 0.92573 0.97545 0.75517 0.0
S3442 S 0.83149 0.00612 0.83065 0.0
N3443 N 0.84603 0.03209 0.81068 0.0
N3444 N 0.84934 0.97785 0.82099 0.0
C3445 C 0.86848 0.98889 0.80063 0.0
C3446 C 0.86659 0.01836 0.79483 0.0
C3447 C 0.73442 0.16473 0.53081 0.0
C3448 C 0.7199 0.14336 0.51453 0.0
C3449 C 0.76364 0.16384 0.53477 0.0
C3450 C 0.77958 0.14168 0.52241 0.0
H3451 H 0.72308 0.18184 0.54167 0.0
H3452 H 0.77356 0.18026 0.54834 0.0
S3453 S 0.75279 0.08462 0.4707 0.0
N3454 N 0.72451 0.10203 0.48131 0.0
N3455 N 0.77919 0.10056 0.48842 0.0
C3456 C 0.76559 0.12134 0.50408 0.0
C3457 C 0.73589 0.1222 0.5001 0.0
C3458 C 0.59841 0.01689 0.29407 0.0
C3459 C 0.61961 0.03337 0.28044 0.0
C3460 C 0.5975 0.98775 0.28949 0.0
C3461 C 0.6174 0.97379 0.2704 0.0
H3462 H 0.58254 0.02648 0.30873 0.0
H3463 H 0.58117 0.97608 0.30145 0.0
S3464 S 0.67568 0.00777 0.22664 0.0
N3465 N 0.66091 0.03351 0.24663 0.0
N3466 N 0.65745 0.97948 0.23547 0.0
C3467 C 0.63828 0.99017 0.25595 0.0
C3468 C 0.63991 0.01967 0.26172 0.0
C3469 C 0.73154 0.8897 1.02158 0.0
C3470 C 0.71794 0.86758 0.03742 0.0
C3471 C 0.76064 0.8898 1.01674 0.0
C3472 C 0.77769 0.86751 0.02714 0.0
H3473 H 0.71954 0.90647 1.01125 0.0
H3474 H 0.76973 0.90743 1.00424 0.0
S3475 S 0.75246 0.80433 0.0704 0.0
N3476 N 0.72388 0.82288 0.06401 0.0
N3477 N 0.77828 0.8225 0.05446 0.0
C3478 C 0.7643 0.84509 0.04298 0.0
C3479 C 0.73463 0.84525 0.0482 0.0
C3480 C 0.63937 0.51682 0.79414 0.0
C3481 C 0.62268 0.53112 0.77163 0.0
C3482 C 0.63692 0.48762 0.79892 0.0
C3483 C 0.61709 0.4716 0.78199 0.0
H3484 H 0.65371 0.52835 0.80909 0.0
H3485 H 0.65043 0.47764 0.81627 0.0
S3486 S 0.56932 0.49931 0.71898 0.0
N3487 N 0.58685 0.52699 0.73126 0.0
N3488 N 0.58098 0.473 0.74073 0.0
C3489 C 0.60015 0.48599 0.75951 0.0
C3490 C 0.60325 0.51543 0.75424 0.0
C3491 C 0.76621 0.34292 0.03138 0.0
C3492 C 0.78208 0.36658 1.023 0.0
C3493 C 0.73715 0.34203 0.02621 0.0
C3494 C 0.7227 0.36475 1.01232 0.0
H3495 H 0.77611 0.32509 0.04255 0.0
H3496 H 0.72586 0.32371 0.03431 0.0
S3497 S 0.75576 0.42843 0.97837 0.0
N3498 N 0.78192 0.41107 0.99483 0.0
N3499 N 0.72752 0.40953 0.9853 0.0
C3500 C 0.73871 0.38763 1.00164 0.0
C3501 C 0.76826 0.38855 1.00701 0.0
C3502 C 0.90774 0.51815 0.25882 0.0
C3503 C 0.88841 0.53283 0.27808 0.0
C3504 C 0.90629 0.48898 0.2547 0.0
C3505 C 0.88548 0.47293 0.26957 0.0
H3506 H 0.92396 0.52928 0.24603 0.0
H3507 H 0.92134 0.47908 0.23922 0.0
S3508 S 0.83095 0.50015 0.32441 0.0
N3509 N 0.84859 0.52829 0.31359 0.0
N3510 N 0.84559 0.47374 0.30539 0.0
C3511 C 0.86598 0.48717 0.28889 0.0
C3512 C 0.86762 0.51691 0.2934 0.0
C3513 C 0.73733 0.61316 0.50603 0.0
C3514 C 0.7235 0.63125 0.52741 0.0
C3515 C 0.76654 0.61468 0.501 0.0
C3516 C 0.78315 0.63485 0.51659 0.0
H3517 H 0.72543 0.59859 0.49186 0.0
H3518 H 0.77608 0.6002 0.48446 0.0
S3519 S 0.757 0.68612 0.57653 0.0
N3520 N 0.72876 0.66897 0.56521 0.0
N3521 N 0.78297 0.67263 0.55579 0.0
C3522 C 0.76933 0.65307 0.53812 0.0
C3523 C 0.7398 0.65109 0.54347 0.0
C3524 C 0.36488 0.51491 0.26826 0.0
C3525 C 0.38864 0.53119 0.27586 0.0
C3526 C 0.36383 0.48599 0.27462 0.0
C3527 C 0.38653 0.47184 0.28876 0.0
H3528 H 0.34683 0.5245 0.25708 0.0
H3529 H 0.34545 0.47446 0.26715 0.0
S3530 S 0.4528 0.5044 0.316 0.0
N3531 N 0.43498 0.53055 0.30018 0.0
N3532 N 0.43274 0.47652 0.31202 0.0
C3533 C 0.4101 0.4878 0.2972 0.0
C3534 C 0.41126 0.51726 0.29073 0.0
C3535 C 0.26884 0.66106 0.0388 0.0
C3536 C 0.28519 0.63745 0.03137 0.0
C3537 C 0.23976 0.66143 0.03353 0.0
C3538 C 0.22552 0.63826 1.02032 0.0
H3539 H 0.27862 0.67956 0.04871 0.0
H3540 H 0.22835 0.68003 0.04042 0.0
S3541 S 0.25899 0.57232 0.99313 0.0
N3542 N 0.28499 0.59079 1.00816 0.0
N3543 N 0.23079 0.59181 0.99751 0.0
C3544 C 0.24175 0.61478 1.01194 0.0
C3545 C 0.27134 0.61425 1.01774 0.0
C3546 C 0.13921 0.48801 0.7781 0.0
C3547 C 0.11444 0.47298 0.77163 0.0
C3548 C 0.13906 0.51709 0.78277 0.0
C3549 C 0.11419 0.53283 0.78084 0.0
H3550 H 0.15908 0.47725 0.78005 0.0
H3551 H 0.15884 0.52728 0.78761 0.0
S3552 S 0.04319 0.50375 0.76516 0.0
N3553 N 0.06398 0.47624 0.76479 0.0
N3554 N 0.06377 0.53074 0.77215 0.0
C3555 C 0.08913 0.51805 0.77471 0.0
C3556 C 0.08925 0.4883 0.7704 0.0
C3557 C 0.23667 0.38585 0.54087 0.0
C3558 C 0.22102 0.36197 0.5326 0.0
C3559 C 0.26579 0.38671 0.5369 0.0
C3560 C 0.28073 0.36397 0.5241 0.0
H3561 H 0.22641 0.40423 0.55036 0.0
H3562 H 0.27676 0.40522 0.54477 0.0
S3563 S 0.25055 0.29511 0.50195 0.0
N3564 N 0.2234 0.3139 0.5132 0.0
N3565 N 0.27795 0.31573 0.50635 0.0
C3566 C 0.26567 0.3394 0.51741 0.0
C3567 C 0.23593 0.3384 0.52139 0.0
C3568 C 0.14173 0.11975 0.13292 0.0
C3569 C 0.12579 0.13914 0.11496 0.0
C3570 C 0.13794 0.11573 0.16603 0.0
C3571 C 0.1181 0.13098 0.18398 0.0
H3572 H 0.15752 0.10716 0.12129 0.0
H3573 H 0.15093 0.10018 0.17762 0.0
S3574 S 0.07064 0.18476 0.14945 0.0
N3575 N 0.08863 0.1736 0.11842 0.0
N3576 N 0.08248 0.16706 0.1805 0.0
C3577 C 0.1021 0.15073 0.16656 0.0
C3578 C 0.10569 0.15454 0.13239 0.0
C3579 C 0.13579 0.85235 0.41356 0.0
C3580 C 0.12192 0.87038 0.43518 0.0
C3581 C 0.13253 0.85466 0.3798 0.0
C3582 C 0.11528 0.87525 0.36524 0.0
H3583 H 0.14942 0.83616 0.42275 0.0
H3584 H 0.14369 0.83994 0.36493 0.0
S3585 S 0.07584 0.92941 0.41011 0.0
N3586 N 0.09052 0.9103 0.43832 0.0
N3587 N 0.08576 0.91535 0.37608 0.0
C3588 C 0.1018 0.89375 0.38651 0.0
C3589 C 0.10477 0.89117 0.42085 0.0
C3590 C 0.40227 0.88674 0.65914 0.0
C3591 C 0.38487 0.87313 0.68172 0.0
C3592 C 0.39843 0.88376 0.62551 0.0
C3593 C 0.37662 0.86736 0.61224 0.0
H3594 H 0.41891 0.9002 0.66746 0.0
H3595 H 0.41237 0.89502 0.60977 0.0
S3596 S 0.32448 0.82766 0.65964 0.0
N3597 N 0.345 0.84177 0.68688 0.0
N3598 N 0.33689 0.83812 0.62494 0.0
C3599 C 0.35903 0.85386 0.63437 0.0
C3600 C 0.36335 0.85622 0.66849 0.0
C3601 C 0.39862 0.14868 0.87703 0.0
C3602 C 0.38256 0.12885 0.85968 0.0
C3603 C 0.39637 0.15166 0.9109 0.0
C3604 C 0.37785 0.13504 0.92939 0.0
H3605 H 0.41306 0.16212 0.86439 0.0
H3606 H 0.40935 0.16709 0.92263 0.0
S3607 S 0.33063 0.08012 0.89605 0.0
N3608 N 0.34748 0.09224 0.86477 0.0
N3609 N 0.3427 0.09824 0.92644 0.0
C3610 C 0.36161 0.11538 0.9121 0.0
C3611 C 0.36408 0.11221 0.87804 0.0
C3612 C 0.90171 0.86433 0.88636 0.0
C3613 C 0.88581 0.88306 0.86739 0.0
C3614 C 0.89757 0.86162 0.91997 0.0
C3615 C 0.87706 0.87727 0.93662 0.0
H3616 H 0.91725 0.85124 0.87512 0.0
H3617 H 0.91053 0.84696 0.93291 0.0
S3618 S 0.83078 0.93054 0.89823 0.0
N3619 N 0.84984 0.9186 0.8685 0.0
N3620 N 0.84119 0.91311 0.93009 0.0
C3621 C 0.86136 0.89636 0.91766 0.0
C3622 C 0.86588 0.89928 0.88371 0.0
C3623 C 0.89583 0.14859 0.66685 0.0
C3624 C 0.88059 0.12839 0.68462 0.0
C3625 C 0.89251 0.15183 0.63306 0.0
C3626 C 0.87345 0.13537 0.61509 0.0
H3627 H 0.91045 0.16211 0.67907 0.0
H3628 H 0.90493 0.16753 0.62105 0.0
S3629 S 0.82869 0.07889 0.64938 0.0
N3630 N 0.84632 0.09091 0.68018 0.0
N3631 N 0.83919 0.09783 0.61887 0.0
C3632 C 0.85816 0.11521 0.63275 0.0
C3633 C 0.86192 0.11154 0.66665 0.0
C3634 C 0.63164 0.1148 0.41958 0.0
C3635 C 0.61794 0.13666 0.43604 0.0
C3636 C 0.62889 0.11077 0.38638 0.0
C3637 C 0.61237 0.12836 0.36676 0.0
H3638 H 0.64517 0.1005 0.43239 0.0
H3639 H 0.64042 0.09357 0.37594 0.0
S3640 S 0.57094 0.18846 0.39698 0.0
N3641 N 0.58571 0.17554 0.42943 0.0
N3642 N 0.58171 0.1688 0.36712 0.0
C3643 C 0.59805 0.1501 0.38275 0.0
C3644 C 0.60056 0.15402 0.41705 0.0
C3645 C 0.60675 0.88942 0.12795 0.0
C3646 C 0.6214 0.86614 0.1152 0.0
C3647 C 0.60394 0.89406 0.16136 0.0
C3648 C 0.61448 0.87512 0.18436 0.0
H3649 H 0.5977 0.90472 0.11194 0.0
H3650 H 0.59349 0.9129 0.16927 0.0
S3651 S 0.65485 0.811 0.16521 0.0
N3652 N 0.64792 0.8247 0.12991 0.0
N3653 N 0.63983 0.8317 0.1915 0.0
C3654 C 0.62844 0.85142 0.17214 0.0
C3655 C 0.63253 0.84736 0.13815 0.0
C3656 C 0.6042 0.61448 0.66243 0.0
C3657 C 0.62263 0.62784 0.68411 0.0
C3658 C 0.60691 0.61719 0.62863 0.0
C3659 C 0.6283 0.63338 0.61402 0.0
H3660 H 0.58738 0.60165 0.67159 0.0
H3661 H 0.59186 0.6064 0.61377 0.0
S3662 S 0.6835 0.67141 0.65909 0.0
N3663 N 0.66381 0.65762 0.6873 0.0
N3664 N 0.66927 0.66171 0.625 0.0
C3665 C 0.64712 0.64646 0.63537 0.0
C3666 C 0.64423 0.64394 0.66977 0.0
C3667 C 0.63165 0.35349 0.87978 0.0
C3668 C 0.61476 0.3745 0.86556 0.0
C3669 C 0.63448 0.35062 0.91338 0.0
C3670 C 0.62023 0.36822 0.9349 0.0
H3671 H 0.64329 0.33924 0.86478 0.0
H3672 H 0.64874 0.33498 0.92252 0.0
S3673 S 0.57455 0.4276 0.91118 0.0
N3674 N 0.58475 0.41425 0.87685 0.0
N3675 N 0.589 0.40797 0.93912 0.0
C3676 C 0.60324 0.3892 0.92115 0.0
C3677 C 0.60068 0.39246 0.88694 0.0
C3678 C 0.86191 0.38522 0.13379 0.0
C3679 C 0.87856 0.36708 0.11517 0.0
C3680 C 0.8657 0.38836 0.16697 0.0
C3681 C 0.88625 0.37341 0.18434 0.0
H3682 H 0.84554 0.39749 0.12265 0.0
H3683 H 0.8521 0.40298 0.17908 0.0
S3684 S 0.93561 0.32262 0.14789 0.0
N3685 N 0.91706 0.33401 0.11728 0.0
N3686 N 0.92324 0.33888 0.17957 0.0
C3687 C 0.90296 0.35487 0.16623 0.0
C3688 C 0.89937 0.35199 0.13196 0.0
C3689 C 0.90485 0.61626 0.38106 0.0
C3690 C 0.88664 0.62994 0.35936 0.0
C3691 C 0.90172 0.61841 0.41485 0.0
C3692 C 0.88031 0.63455 0.42944 0.0
H3693 H 0.92173 0.60352 0.3719 0.0
H3694 H 0.91649 0.60724 0.42976 0.0
S3695 S 0.82617 0.67409 0.38429 0.0
N3696 N 0.84577 0.66018 0.35612 0.0
N3697 N 0.84005 0.66386 0.41841 0.0
C3698 C 0.86196 0.64828 0.40807 0.0
C3699 C 0.86505 0.64607 0.37367 0.0
C3700 C 0.40421 0.36389 0.38574 0.0
C3701 C 0.38852 0.38279 0.3668 0.0
C3702 C 0.39911 0.36035 0.41901 0.0
C3703 C 0.37779 0.37528 0.4351 0.0
H3704 H 0.4203 0.35133 0.3747 0.0
H3705 H 0.41185 0.34555 0.43209 0.0
S3706 S 0.3316 0.42849 0.39647 0.0
N3707 N 0.3518 0.41755 0.36721 0.0
N3708 N 0.34141 0.41061 0.42824 0.0
C3709 C 0.36228 0.39451 0.41616 0.0
C3710 C 0.36778 0.39827 0.3826 0.0
C3711 C 0.40206 0.61723 0.16277 0.0
C3712 C 0.38555 0.63231 0.18468 0.0
C3713 C 0.39911 0.62052 0.12921 0.0
C3714 C 0.379 0.63867 0.11526 0.0
H3715 H 0.41707 0.60218 0.1716 0.0
H3716 H 0.41263 0.60823 0.11404 0.0
S3717 S 0.3295 0.68241 0.16196 0.0
N3718 N 0.34832 0.66645 0.18956 0.0
N3719 N 0.34158 0.67132 0.12738 0.0
C3720 C 0.36221 0.65375 0.13705 0.0
C3721 C 0.36569 0.65082 0.17126 0.0
C3722 C 0.13771 0.6175 0.88163 0.0
C3723 C 0.11785 0.63317 0.8639 0.0
C3724 C 0.14116 0.62033 0.91506 0.0
C3725 C 0.12501 0.63904 0.9336 0.0
H3726 H 0.15101 0.60255 0.8696 0.0
H3727 H 0.15693 0.60748 0.92645 0.0
S3728 S 0.06963 0.68522 0.90003 0.0
N3729 N 0.0819 0.66878 0.86844 0.0
N3730 N 0.08747 0.67315 0.93085 0.0
C3731 C 0.10488 0.65479 0.91639 0.0
C3732 C 0.10156 0.65212 0.88198 0.0
C3733 C 0.13366 0.38805 0.66585 0.0
C3734 C 0.11552 0.37149 0.68467 0.0
C3735 C 0.13652 0.38438 0.63261 0.0
C3736 C 0.12145 0.36388 0.61535 0.0
H3737 H 0.14608 0.40435 0.67686 0.0
H3738 H 0.15104 0.39805 0.62035 0.0
S3739 S 0.07072 0.31456 0.65229 0.0
N3740 N 0.08224 0.33311 0.68279 0.0
N3741 N 0.08689 0.32688 0.62047 0.0
C3742 C 0.10296 0.34718 0.63364 0.0
C3743 C 0.10019 0.35079 0.66795 0.0
loop_
_geom_bond_atom_site_label_1
_geom_bond_atom_site_label_2
_geom_bond_distance
_geom_bond_site_symmetry_2
_ccdc_geom_bond_type
Tb0 N29 2.617 . S
Tb0 N35 2.572 . S
Tb0 O44 2.465 . S
Tb0 O45 2.387 . S
Tb0 O47 2.428 . S
Tb0 O48 2.308 . S
Tb0 O52 2.349 . S
Tb0 O55 2.393 . S
Tb0 C64 2.802 . S
C1 N2 1.379 . S
C1 C4 1.416 . S
C1 C8 1.424 . S
N2 C1 1.379 . S
N2 C5 1.334 . S
N2 Tb11 2.617 . S
C3 C5 1.390 . S
C3 C6 1.339 . S
C3 H23 0.930 . S
C4 C1 1.416 . S
C4 C6 1.416 . S
C4 C10 1.448 . S
C5 N2 1.334 . S
C5 C3 1.390 . S
C5 H16 0.930 . S
C6 C3 1.339 . S
C6 C4 1.416 . S
C6 H27 0.930 . S
C7 C8 1.413 . S
C7 C9 1.427 . S
C7 C13 1.416 . S
C8 C1 1.424 . S
C8 C7 1.413 . S
C8 N12 1.361 . S
C9 C7 1.427 . S
C9 C10 1.328 . S
C9 H24 0.929 . S
C10 C4 1.448 . S
C10 C9 1.328 . S
C10 H25 0.930 . S
Tb11 N2 2.617 . S
Tb11 N12 2.572 . S
Tb11 O46 2.349 . S
Tb11 O49 2.393 . S
Tb11 O50 2.465 . S
Tb11 O51 2.387 . S
Tb11 O53 2.428 . S
Tb11 O54 2.308 . S
Tb11 C75 2.802 . S
N12 C8 1.361 . S
N12 Tb11 2.572 . S
N12 C14 1.340 . S
C13 C7 1.416 . S
C13 C15 1.332 . S
C13 H21 0.931 . S
C14 N12 1.340 . S
C14 C15 1.407 . S
C14 H20 0.930 . S
C15 C13 1.332 . S
C15 C14 1.407 . S
C15 H17 0.929 . S
H16 C5 0.930 . S
H17 C15 0.929 . S
H18 C33 0.930 . S
H19 C40 0.929 . S
H20 C14 0.930 . S
H21 C13 0.931 . S
H22 C36 0.930 . S
H23 C3 0.930 . S
H24 C9 0.929 . S
H25 C10 0.930 . S
H26 C31 0.930 . S
H27 C6 0.930 . S
H28 C39 0.931 . S
N29 Tb0 2.617 . S
N29 C30 1.379 . S
N29 C33 1.334 . S
C30 N29 1.379 . S
C30 C32 1.416 . S
C30 C38 1.424 . S
C31 H26 0.930 . S
C31 C33 1.390 . S
C31 C34 1.339 . S
C32 C30 1.416 . S
C32 C34 1.416 . S
C32 C65 1.448 . S
C33 H18 0.930 . S
C33 N29 1.334 . S
C33 C31 1.390 . S
C34 C31 1.339 . S
C34 C32 1.416 . S
C34 H41 0.930 . S
N35 Tb0 2.572 . S
N35 C36 1.340 . S
N35 C38 1.361 . S
C36 H22 0.930 . S
C36 N35 1.340 . S
C36 C40 1.407 . S
C37 C38 1.413 . S
C37 C39 1.416 . S
C37 C66 1.427 . S
C38 C30 1.424 . S
C38 N35 1.361 . S
C38 C37 1.413 . S
C39 H28 0.931 . S
C39 C37 1.416 . S
C39 C40 1.332 . S
C40 H19 0.929 . S
C40 C36 1.407 . S
C40 C39 1.332 . S
H41 C34 0.930 . S
H42 C65 0.930 1_655 S
H43 C66 0.929 1_655 S
O44 Tb0 2.465 . S
O44 C64 1.264 . S
O45 Tb0 2.387 . S
O45 C56 1.264 . S
O46 Tb11 2.349 . S
O46 C56 1.243 . S
O47 Tb0 2.428 . S
O47 C64 1.256 . S
O48 Tb0 2.308 . S
O48 C63 1.266 . S
O49 Tb11 2.393 . S
O49 C63 1.248 . S
O50 Tb11 2.465 . S
O50 C75 1.264 . S
O51 Tb11 2.387 . S
O51 C67 1.264 . S
O52 Tb0 2.349 . S
O52 C67 1.243 . S
O53 Tb11 2.428 . S
O53 C75 1.256 . S
O54 Tb11 2.308 . S
O54 C74 1.266 . S
O55 Tb0 2.393 . S
O55 C74 1.248 . S
C56 O45 1.264 . S
C56 O46 1.243 . S
C57 C60 1.399 . S
C57 C62 1.383 . S
C57 C64 1.496 . S
C58 C59 1.399 . S
C58 C62 1.389 1_655 S
C59 C58 1.399 . S
C59 C61 1.380 . S
C59 H76 0.929 . S
C60 C57 1.399 . S
C60 C61 1.392 1_455 S
C60 H77 0.929 . S
C61 C59 1.380 . S
C61 C60 1.392 1_655 S
C61 H78 0.929 . S
C62 C57 1.383 . S
C62 C58 1.389 1_455 S
C62 H79 0.931 . S
C63 O48 1.266 . S
C63 O49 1.248 . S
C64 Tb0 2.802 . S
C64 O44 1.264 . S
C64 O47 1.256 . S
C64 C57 1.496 . S
C65 C32 1.448 . S
C65 H42 0.930 1_455 S
C65 C66 1.328 . S
C66 C37 1.427 . S
C66 H43 0.929 1_455 S
C66 C65 1.328 . S
C67 O51 1.264 . S
C67 O52 1.243 . S
C68 C71 1.399 . S
C68 C72 1.383 . S
C68 C75 1.496 . S
C69 C70 1.399 . S
C69 C72 1.389 . S
C70 C69 1.399 . S
C70 C73 1.380 . S
C70 H80 0.929 . S
C71 C68 1.399 . S
C71 C73 1.392 . S
C71 H81 0.929 . S
C72 C68 1.383 . S
C72 C69 1.389 . S
C72 H82 0.931 . S
C73 C70 1.380 . S
C73 C71 1.392 . S
C73 H83 0.929 . S
C74 O54 1.266 . S
C74 O55 1.248 . S
C75 Tb11 2.802 . S
C75 O50 1.264 . S
C75 O53 1.256 . S
C75 C68 1.496 . S
H76 C59 0.929 . S
H77 C60 0.929 . S
H78 C61 0.929 . S
H79 C62 0.931 . S
H80 C70 0.929 . S
H81 C71 0.929 . S
H82 C72 0.931 . S
H83 C73 0.929 . S
Tb84 N113 2.617 . S
Tb84 N119 2.572 . S
Tb84 O128 2.465 . S
Tb84 O129 2.387 . S
Tb84 O131 2.428 . S
Tb84 O132 2.308 . S
Tb84 O136 2.349 . S
Tb84 O139 2.393 . S
Tb84 C148 2.802 . S
C85 N86 1.379 . S
C85 C88 1.416 . S
C85 C92 1.424 . S
N86 C85 1.379 . S
N86 C89 1.334 . S
N86 Tb95 2.617 . S
C87 C89 1.390 . S
C87 C90 1.339 . S
C87 H107 0.930 . S
C88 C85 1.416 . S
C88 C90 1.416 . S
C88 C94 1.448 1_565 S
C89 N86 1.334 . S
C89 C87 1.390 . S
C89 H100 0.930 . S
C90 C87 1.339 . S
C90 C88 1.416 . S
C90 H111 0.930 1_565 S
C91 C92 1.413 . S
C91 C93 1.427 1_565 S
C91 C97 1.416 . S
C92 C85 1.424 . S
C92 C91 1.413 . S
C92 N96 1.361 . S
C93 C91 1.427 1_545 S
C93 C94 1.328 . S
C93 H108 0.929 . S
C94 C88 1.448 1_545 S
C94 C93 1.328 . S
C94 H109 0.930 . S
Tb95 N86 2.617 . S
Tb95 N96 2.572 . S
Tb95 O130 2.349 . S
Tb95 O133 2.393 . S
Tb95 O134 2.465 . S
Tb95 O135 2.387 . S
Tb95 O137 2.428 . S
Tb95 O138 2.308 . S
Tb95 C159 2.802 . S
N96 C92 1.361 . S
N96 Tb95 2.572 . S
N96 C98 1.340 . S
C97 C91 1.416 . S
C97 C99 1.332 . S
C97 H105 0.931 1_565 S
C98 N96 1.340 . S
C98 C99 1.407 . S
C98 H104 0.930 . S
C99 C97 1.332 . S
C99 C98 1.407 . S
C99 H101 0.929 . S
H100 C89 0.930 . S
H101 C99 0.929 . S
H102 C117 0.930 . S
H103 C124 0.929 . S
H104 C98 0.930 . S
H105 C97 0.931 1_545 S
H106 C120 0.930 . S
H107 C87 0.930 . S
H108 C93 0.929 . S
H109 C94 0.930 . S
H110 C115 0.930 . S
H111 C90 0.930 1_545 S
H112 C123 0.931 . S
N113 Tb84 2.617 . S
N113 C114 1.379 . S
N113 C117 1.334 . S
C114 N113 1.379 . S
C114 C116 1.416 . S
C114 C122 1.424 . S
C115 H110 0.930 . S
C115 C117 1.390 . S
C115 C118 1.339 . S
C116 C114 1.416 . S
C116 C118 1.416 . S
C116 C149 1.448 . S
C117 H102 0.930 . S
C117 N113 1.334 . S
C117 C115 1.390 . S
C118 C115 1.339 . S
C118 C116 1.416 . S
C118 H125 0.930 . S
N119 Tb84 2.572 . S
N119 C120 1.340 . S
N119 C122 1.361 . S
C120 H106 0.930 . S
C120 N119 1.340 . S
C120 C124 1.407 . S
C121 C122 1.413 . S
C121 C123 1.416 . S
C121 C150 1.427 . S
C122 C114 1.424 . S
C122 N119 1.361 . S
C122 C121 1.413 . S
C123 H112 0.931 . S
C123 C121 1.416 . S
C123 C124 1.332 . S
C124 H103 0.929 . S
C124 C120 1.407 . S
C124 C123 1.332 . S
H125 C118 0.930 . S
H126 C149 0.930 . S
H127 C150 0.929 . S
O128 Tb84 2.465 . S
O128 C148 1.264 . S
O129 Tb84 2.387 . S
O129 C140 1.264 . S
O130 Tb95 2.349 . S
O130 C140 1.243 . S
O131 Tb84 2.428 . S
O131 C148 1.256 . S
O132 Tb84 2.308 . S
O132 C147 1.266 . S
O133 Tb95 2.393 . S
O133 C147 1.248 . S
O134 Tb95 2.465 . S
O134 C159 1.264 . S
O135 Tb95 2.387 . S
O135 C151 1.264 . S
O136 Tb84 2.349 . S
O136 C151 1.243 . S
O137 Tb95 2.428 . S
O137 C159 1.256 . S
O138 Tb95 2.308 . S
O138 C158 1.266 . S
O139 Tb84 2.393 . S
O139 C158 1.248 . S
C140 O129 1.264 . S
C140 O130 1.243 . S
C141 C144 1.399 . S
C141 C146 1.383 . S
C141 C148 1.496 . S
C142 C143 1.399 . S
C142 C146 1.389 . S
C143 C142 1.399 . S
C143 C145 1.380 . S
C143 H160 0.929 . S
C144 C141 1.399 . S
C144 C145 1.392 . S
C144 H161 0.929 . S
C145 C143 1.380 . S
C145 C144 1.392 . S
C145 H162 0.929 . S
C146 C141 1.383 . S
C146 C142 1.389 . S
C146 H163 0.931 . S
C147 O132 1.266 . S
C147 O133 1.248 . S
C148 Tb84 2.802 . S
C148 O128 1.264 . S
C148 O131 1.256 . S
C148 C141 1.496 . S
C149 C116 1.448 . S
C149 H126 0.930 . S
C149 C150 1.328 . S
C150 C121 1.427 . S
C150 H127 0.929 . S
C150 C149 1.328 . S
C151 O135 1.264 . S
C151 O136 1.243 . S
C152 C155 1.399 1_565 S
C152 C156 1.382 1_565 S
C152 C159 1.496 . S
C153 C154 1.399 . S
C153 C156 1.393 . S
C154 C153 1.399 . S
C154 C157 1.380 . S
C154 H164 0.929 . S
C155 C152 1.399 1_545 S
C155 C157 1.392 . S
C155 H165 0.929 . S
C156 C152 1.382 1_545 S
C156 C153 1.393 . S
C156 H166 0.928 1_545 S
C157 C154 1.380 . S
C157 C155 1.392 . S
C157 H167 0.929 . S
C158 O138 1.266 . S
C158 O139 1.248 . S
C159 Tb95 2.802 . S
C159 O134 1.264 . S
C159 O137 1.256 . S
C159 C152 1.496 . S
H160 C143 0.929 . S
H161 C144 0.929 . S
H162 C145 0.929 . S
H163 C146 0.931 . S
H164 C154 0.929 . S
H165 C155 0.929 . S
H166 C156 0.928 1_565 S
H167 C157 0.929 . S
Tb168 N197 2.617 . S
Tb168 N203 2.572 . S
Tb168 O212 2.465 . S
Tb168 O213 2.387 . S
Tb168 O215 2.428 . S
Tb168 O216 2.308 . S
Tb168 O220 2.349 . S
Tb168 O223 2.393 . S
Tb168 C232 2.802 . S
C169 N170 1.379 . S
C169 C172 1.416 . S
C169 C176 1.424 . S
N170 C169 1.379 . S
N170 C173 1.334 . S
N170 Tb179 2.617 . S
C171 C173 1.390 . S
C171 C174 1.339 . S
C171 H191 0.930 . S
C172 C169 1.416 . S
C172 C174 1.416 . S
C172 C178 1.448 . S
C173 N170 1.334 . S
C173 C171 1.390 . S
C173 H184 0.930 . S
C174 C171 1.339 . S
C174 C172 1.416 . S
C174 H195 0.930 . S
C175 C176 1.413 . S
C175 C177 1.427 . S
C175 C181 1.416 . S
C176 C169 1.424 . S
C176 C175 1.413 . S
C176 N180 1.361 . S
C177 C175 1.427 . S
C177 C178 1.328 . S
C177 H192 0.929 . S
C178 C172 1.448 . S
C178 C177 1.328 . S
C178 H193 0.930 . S
Tb179 N170 2.617 . S
Tb179 N180 2.572 . S
Tb179 O214 2.349 . S
Tb179 O217 2.393 . S
Tb179 O218 2.465 . S
Tb179 O219 2.387 . S
Tb179 O221 2.428 . S
Tb179 O222 2.308 . S
Tb179 C243 2.802 . S
N180 C176 1.361 . S
N180 Tb179 2.572 . S
N180 C182 1.340 . S
C181 C175 1.416 . S
C181 C183 1.332 . S
C181 H189 0.931 . S
C182 N180 1.340 . S
C182 C183 1.407 . S
C182 H188 0.930 . S
C183 C181 1.332 . S
C183 C182 1.407 . S
C183 H185 0.929 . S
H184 C173 0.930 . S
H185 C183 0.929 . S
H186 C201 0.930 . S
H187 C208 0.929 . S
H188 C182 0.930 . S
H189 C181 0.931 . S
H190 C204 0.930 . S
H191 C171 0.930 . S
H192 C177 0.929 . S
H193 C178 0.930 . S
H194 C199 0.930 . S
H195 C174 0.930 . S
H196 C207 0.931 . S
N197 Tb168 2.617 . S
N197 C198 1.379 . S
N197 C201 1.334 . S
C198 N197 1.379 . S
C198 C200 1.416 . S
C198 C206 1.424 . S
C199 H194 0.930 . S
C199 C201 1.390 . S
C199 C202 1.339 . S
C200 C198 1.416 . S
C200 C202 1.416 . S
C200 C233 1.448 . S
C201 H186 0.930 . S
C201 N197 1.334 . S
C201 C199 1.390 . S
C202 C199 1.339 . S
C202 C200 1.416 . S
C202 H209 0.930 . S
N203 Tb168 2.572 . S
N203 C204 1.340 . S
N203 C206 1.361 . S
C204 H190 0.930 . S
C204 N203 1.340 . S
C204 C208 1.407 . S
C205 C206 1.413 . S
C205 C207 1.416 . S
C205 C234 1.427 . S
C206 C198 1.424 . S
C206 N203 1.361 . S
C206 C205 1.413 . S
C207 H196 0.931 . S
C207 C205 1.416 . S
C207 C208 1.332 . S
C208 H187 0.929 . S
C208 C204 1.407 . S
C208 C207 1.332 . S
H209 C202 0.930 . S
H210 C233 0.930 . S
H211 C234 0.929 . S
O212 Tb168 2.465 . S
O212 C232 1.264 . S
O213 Tb168 2.387 . S
O213 C224 1.264 . S
O214 Tb179 2.349 . S
O214 C224 1.243 . S
O215 Tb168 2.428 . S
O215 C232 1.256 . S
O216 Tb168 2.308 . S
O216 C231 1.266 . S
O217 Tb179 2.393 . S
O217 C231 1.248 . S
O218 Tb179 2.465 . S
O218 C243 1.264 . S
O219 Tb179 2.387 . S
O219 C235 1.264 . S
O220 Tb168 2.349 . S
O220 C235 1.243 . S
O221 Tb179 2.428 . S
O221 C243 1.256 . S
O222 Tb179 2.308 . S
O222 C242 1.266 . S
O223 Tb168 2.393 . S
O223 C242 1.248 . S
C224 O213 1.264 . S
C224 O214 1.243 . S
C225 C228 1.399 . S
C225 C230 1.383 . S
C225 C232 1.496 . S
C226 C227 1.399 . S
C226 C230 1.389 . S
C227 C226 1.399 . S
C227 C229 1.380 . S
C227 H244 0.929 . S
C228 C225 1.399 . S
C228 C229 1.392 . S
C228 H245 0.929 . S
C229 C227 1.380 . S
C229 C228 1.392 . S
C229 H246 0.929 . S
C230 C225 1.383 . S
C230 C226 1.389 . S
C230 H247 0.931 . S
C231 O216 1.266 . S
C231 O217 1.248 . S
C232 Tb168 2.802 . S
C232 O212 1.264 . S
C232 O215 1.256 . S
C232 C225 1.496 . S
C233 C200 1.448 . S
C233 H210 0.930 . S
C233 C234 1.328 . S
C234 C205 1.427 . S
C234 H211 0.929 . S
C234 C233 1.328 . S
C235 O219 1.264 . S
C235 O220 1.243 . S
C236 C239 1.399 . S
C236 C240 1.383 . S
C236 C243 1.496 . S
C237 C238 1.399 . S
C237 C240 1.389 . S
C238 C237 1.399 . S
C238 C241 1.380 . S
C238 H248 0.929 . S
C239 C236 1.399 . S
C239 C241 1.392 . S
C239 H249 0.929 . S
C240 C236 1.383 . S
C240 C237 1.389 . S
C240 H250 0.931 . S
C241 C238 1.380 . S
C241 C239 1.392 . S
C241 H251 0.929 . S
C242 O222 1.266 . S
C242 O223 1.248 . S
C243 Tb179 2.802 . S
C243 O218 1.264 . S
C243 O221 1.256 . S
C243 C236 1.496 . S
H244 C227 0.929 . S
H245 C228 0.929 . S
H246 C229 0.929 . S
H247 C230 0.931 . S
H248 C238 0.929 . S
H249 C239 0.929 . S
H250 C240 0.931 . S
H251 C241 0.929 . S
Tb252 N281 2.617 1_554 S
Tb252 N287 2.572 1_554 S
Tb252 O296 2.465 . S
Tb252 O297 2.387 1_554 S
Tb252 O299 2.428 . S
Tb252 O300 2.308 . S
Tb252 O304 2.349 . S
Tb252 O307 2.393 . S
Tb252 C316 2.802 . S
C253 N254 1.379 . S
C253 C256 1.416 . S
C253 C260 1.424 . S
N254 C253 1.379 . S
N254 C257 1.334 . S
N254 Tb263 2.617 . S
C255 C257 1.390 . S
C255 C258 1.339 . S
C255 H275 0.930 . S
C256 C253 1.416 . S
C256 C258 1.416 . S
C256 C262 1.448 1_545 S
C257 N254 1.334 . S
C257 C255 1.390 . S
C257 H268 0.930 . S
C258 C255 1.339 . S
C258 C256 1.416 . S
C258 H279 0.930 1_545 S
C259 C260 1.413 . S
C259 C261 1.427 1_545 S
C259 C265 1.416 . S
C260 C253 1.424 . S
C260 C259 1.413 . S
C260 N264 1.361 . S
C261 C259 1.427 1_565 S
C261 C262 1.328 . S
C261 H276 0.929 . S
C262 C256 1.448 1_565 S
C262 C261 1.328 . S
C262 H277 0.930 . S
Tb263 N254 2.617 . S
Tb263 N264 2.572 . S
Tb263 O298 2.349 1_554 S
Tb263 O301 2.393 . S
Tb263 O302 2.465 1_554 S
Tb263 O303 2.387 . S
Tb263 O305 2.428 1_554 S
Tb263 O306 2.308 . S
Tb263 C327 2.802 1_554 S
N264 C260 1.361 . S
N264 Tb263 2.572 . S
N264 C266 1.340 . S
C265 C259 1.416 . S
C265 C267 1.332 . S
C265 H273 0.931 1_545 S
C266 N264 1.340 . S
C266 C267 1.407 . S
C266 H272 0.930 . S
C267 C265 1.332 . S
C267 C266 1.407 . S
C267 H269 0.929 . S
H268 C257 0.930 . S
H269 C267 0.929 . S
H270 C285 0.930 . S
H271 C292 0.929 . S
H272 C266 0.930 . S
H273 C265 0.931 1_565 S
H274 C288 0.930 . S
H275 C255 0.930 . S
H276 C261 0.929 . S
H277 C262 0.930 . S
H278 C283 0.930 . S
H279 C258 0.930 1_565 S
H280 C291 0.931 . S
N281 Tb252 2.617 1_556 S
N281 C282 1.379 . S
N281 C285 1.334 . S
C282 N281 1.379 . S
C282 C284 1.416 . S
C282 C290 1.424 . S
C283 H278 0.930 . S
C283 C285 1.390 . S
C283 C286 1.339 . S
C284 C282 1.416 . S
C284 C286 1.416 . S
C284 C317 1.448 . S
C285 H270 0.930 . S
C285 N281 1.334 . S
C285 C283 1.390 . S
C286 C283 1.339 . S
C286 C284 1.416 . S
C286 H293 0.930 . S
N287 Tb252 2.572 1_556 S
N287 C288 1.340 1_556 S
N287 C290 1.361 . S
C288 H274 0.930 . S
C288 N287 1.340 1_554 S
C288 C292 1.407 1_554 S
C289 C290 1.413 . S
C289 C291 1.416 . S
C289 C318 1.427 . S
C290 C282 1.424 . S
C290 N287 1.361 . S
C290 C289 1.413 . S
C291 H280 0.931 . S
C291 C289 1.416 . S
C291 C292 1.332 . S
C292 H271 0.929 . S
C292 C288 1.407 1_556 S
C292 C291 1.332 . S
H293 C286 0.930 . S
H294 C317 0.930 . S
H295 C318 0.929 . S
O296 Tb252 2.465 . S
O296 C316 1.264 . S
O297 Tb252 2.387 1_556 S
O297 C308 1.264 . S
O298 Tb263 2.349 1_556 S
O298 C308 1.243 . S
O299 Tb252 2.428 . S
O299 C316 1.256 . S
O300 Tb252 2.308 . S
O300 C315 1.266 . S
O301 Tb263 2.393 . S
O301 C315 1.248 . S
O302 Tb263 2.465 1_556 S
O302 C327 1.264 . S
O303 Tb263 2.387 . S
O303 C319 1.264 . S
O304 Tb252 2.349 . S
O304 C319 1.243 . S
O305 Tb263 2.428 1_556 S
O305 C327 1.256 . S
O306 Tb263 2.308 . S
O306 C326 1.266 1_554 S
O307 Tb252 2.393 . S
O307 C326 1.248 1_554 S
C308 O297 1.264 . S
C308 O298 1.243 . S
C309 C312 1.399 . S
C309 C314 1.383 . S
C309 C316 1.496 . S
C310 C311 1.399 . S
C310 C314 1.389 . S
C311 C310 1.399 . S
C311 C313 1.380 . S
C311 H328 0.929 . S
C312 C309 1.399 . S
C312 C313 1.392 . S
C312 H329 0.929 . S
C313 C311 1.380 . S
C313 C312 1.392 . S
C313 H330 0.929 . S
C314 C309 1.383 . S
C314 C310 1.389 . S
C314 H331 0.931 . S
C315 O300 1.266 . S
C315 O301 1.248 . S
C316 Tb252 2.802 . S
C316 O296 1.264 . S
C316 O299 1.256 . S
C316 C309 1.496 . S
C317 C284 1.448 . S
C317 H294 0.930 . S
C317 C318 1.328 . S
C318 C289 1.427 . S
C318 H295 0.929 . S
C318 C317 1.328 . S
C319 O303 1.264 . S
C319 O304 1.243 . S
C320 C323 1.399 1_545 S
C320 C324 1.382 1_545 S
C320 C327 1.496 . S
C321 C322 1.399 . S
C321 C324 1.393 . S
C322 C321 1.399 . S
C322 C325 1.380 . S
C322 H332 0.929 . S
C323 C320 1.399 1_565 S
C323 C325 1.392 . S
C323 H333 0.929 . S
C324 C320 1.382 1_565 S
C324 C321 1.393 . S
C324 H334 0.928 1_565 S
C325 C322 1.380 . S
C325 C323 1.392 . S
C325 H335 0.929 . S
C326 O306 1.266 1_556 S
C326 O307 1.248 1_556 S
C327 Tb263 2.802 1_556 S
C327 O302 1.264 . S
C327 O305 1.256 . S
C327 C320 1.496 . S
H328 C311 0.929 . S
H329 C312 0.929 . S
H330 C313 0.929 . S
H331 C314 0.931 . S
H332 C322 0.929 . S
H333 C323 0.929 . S
H334 C324 0.928 1_545 S
H335 C325 0.929 . S
Tb336 N365 2.617 . S
Tb336 N371 2.572 . S
Tb336 O380 2.465 . S
Tb336 O381 2.387 . S
Tb336 O383 2.428 . S
Tb336 O384 2.308 . S
Tb336 O388 2.349 . S
Tb336 O391 2.393 . S
Tb336 C400 2.802 . S
C337 N338 1.379 . S
C337 C340 1.416 . S
C337 C344 1.424 . S
N338 C337 1.379 . S
N338 C341 1.334 . S
N338 Tb347 2.617 . S
C339 C341 1.390 . S
C339 C342 1.339 . S
C339 H359 0.930 . S
C340 C337 1.416 . S
C340 C342 1.416 . S
C340 C346 1.448 . S
C341 N338 1.334 . S
C341 C339 1.390 . S
C341 H352 0.930 . S
C342 C339 1.339 . S
C342 C340 1.416 . S
C342 H363 0.930 . S
C343 C344 1.413 . S
C343 C345 1.427 . S
C343 C349 1.416 . S
C344 C337 1.424 . S
C344 C343 1.413 . S
C344 N348 1.361 . S
C345 C343 1.427 . S
C345 C346 1.328 . S
C345 H360 0.929 . S
C346 C340 1.448 . S
C346 C345 1.328 . S
C346 H361 0.930 . S
Tb347 N338 2.617 . S
Tb347 N348 2.572 . S
Tb347 O382 2.349 . S
Tb347 O385 2.393 . S
Tb347 O386 2.465 . S
Tb347 O387 2.387 . S
Tb347 O389 2.428 . S
Tb347 O390 2.308 . S
Tb347 C411 2.802 . S
N348 C344 1.361 . S
N348 Tb347 2.572 . S
N348 C350 1.340 . S
C349 C343 1.416 . S
C349 C351 1.332 . S
C349 H357 0.931 . S
C350 N348 1.340 . S
C350 C351 1.407 . S
C350 H356 0.930 . S
C351 C349 1.332 . S
C351 C350 1.407 . S
C351 H353 0.929 . S
H352 C341 0.930 . S
H353 C351 0.929 . S
H354 C369 0.930 . S
H355 C376 0.929 . S
H356 C350 0.930 . S
H357 C349 0.931 . S
H358 C372 0.930 . S
H359 C339 0.930 . S
H360 C345 0.929 . S
H361 C346 0.930 . S
H362 C367 0.930 . S
H363 C342 0.930 . S
H364 C375 0.931 . S
N365 Tb336 2.617 . S
N365 C366 1.379 . S
N365 C369 1.334 . S
C366 N365 1.379 . S
C366 C368 1.416 . S
C366 C374 1.424 . S
C367 H362 0.930 . S
C367 C369 1.390 . S
C367 C370 1.339 . S
C368 C366 1.416 . S
C368 C370 1.416 . S
C368 C401 1.448 . S
C369 H354 0.930 . S
C369 N365 1.334 . S
C369 C367 1.390 . S
C370 C367 1.339 . S
C370 C368 1.416 . S
C370 H377 0.930 . S
N371 Tb336 2.572 . S
N371 C372 1.340 . S
N371 C374 1.361 . S
C372 H358 0.930 . S
C372 N371 1.340 . S
C372 C376 1.407 . S
C373 C374 1.413 . S
C373 C375 1.416 . S
C373 C402 1.427 . S
C374 C366 1.424 . S
C374 N371 1.361 . S
C374 C373 1.413 . S
C375 H364 0.931 . S
C375 C373 1.416 . S
C375 C376 1.332 . S
C376 H355 0.929 . S
C376 C372 1.407 . S
C376 C375 1.332 . S
H377 C370 0.930 . S
H378 C401 0.930 1_655 S
H379 C402 0.929 1_655 S
O380 Tb336 2.465 . S
O380 C400 1.264 . S
O381 Tb336 2.387 . S
O381 C392 1.264 . S
O382 Tb347 2.349 . S
O382 C392 1.243 . S
O383 Tb336 2.428 . S
O383 C400 1.256 . S
O384 Tb336 2.308 . S
O384 C399 1.266 . S
O385 Tb347 2.393 . S
O385 C399 1.248 . S
O386 Tb347 2.465 . S
O386 C411 1.264 . S
O387 Tb347 2.387 . S
O387 C403 1.264 . S
O388 Tb336 2.349 . S
O388 C403 1.243 . S
O389 Tb347 2.428 . S
O389 C411 1.256 . S
O390 Tb347 2.308 . S
O390 C410 1.266 . S
O391 Tb336 2.393 . S
O391 C410 1.248 . S
C392 O381 1.264 . S
C392 O382 1.243 . S
C393 C396 1.399 . S
C393 C398 1.383 . S
C393 C400 1.496 . S
C394 C395 1.399 . S
C394 C398 1.389 1_655 S
C395 C394 1.399 . S
C395 C397 1.380 . S
C395 H412 0.929 . S
C396 C393 1.399 . S
C396 C397 1.392 1_455 S
C396 H413 0.929 . S
C397 C395 1.380 . S
C397 C396 1.392 1_655 S
C397 H414 0.929 . S
C398 C393 1.383 . S
C398 C394 1.389 1_455 S
C398 H415 0.931 . S
C399 O384 1.266 . S
C399 O385 1.248 . S
C400 Tb336 2.802 . S
C400 O380 1.264 . S
C400 O383 1.256 . S
C400 C393 1.496 . S
C401 C368 1.448 . S
C401 H378 0.930 1_455 S
C401 C402 1.328 . S
C402 C373 1.427 . S
C402 H379 0.929 1_455 S
C402 C401 1.328 . S
C403 O387 1.264 . S
C403 O388 1.243 . S
C404 C407 1.399 . S
C404 C408 1.383 . S
C404 C411 1.496 . S
C405 C406 1.399 . S
C405 C408 1.389 . S
C406 C405 1.399 . S
C406 C409 1.380 . S
C406 H416 0.929 . S
C407 C404 1.399 . S
C407 C409 1.392 . S
C407 H417 0.929 . S
C408 C404 1.383 . S
C408 C405 1.389 . S
C408 H418 0.931 . S
C409 C406 1.380 . S
C409 C407 1.392 . S
C409 H419 0.929 . S
C410 O390 1.266 . S
C410 O391 1.248 . S
C411 Tb347 2.802 . S
C411 O386 1.264 . S
C411 O389 1.256 . S
C411 C404 1.496 . S
H412 C395 0.929 . S
H413 C396 0.929 . S
H414 C397 0.929 . S
H415 C398 0.931 . S
H416 C406 0.929 . S
H417 C407 0.929 . S
H418 C408 0.931 . S
H419 C409 0.929 . S
Tb420 N449 2.617 . S
Tb420 N455 2.572 . S
Tb420 O464 2.465 . S
Tb420 O465 2.387 . S
Tb420 O467 2.428 . S
Tb420 O468 2.308 . S
Tb420 O472 2.349 . S
Tb420 O475 2.393 . S
Tb420 C484 2.802 . S
C421 N422 1.379 . S
C421 C424 1.416 . S
C421 C428 1.424 . S
N422 C421 1.379 . S
N422 C425 1.334 . S
N422 Tb431 2.617 . S
C423 C425 1.390 . S
C423 C426 1.339 . S
C423 H443 0.930 . S
C424 C421 1.416 . S
C424 C426 1.416 . S
C424 C430 1.448 1_565 S
C425 N422 1.334 . S
C425 C423 1.390 . S
C425 H436 0.930 . S
C426 C423 1.339 . S
C426 C424 1.416 . S
C426 H447 0.930 1_565 S
C427 C428 1.413 . S
C427 C429 1.427 1_565 S
C427 C433 1.416 . S
C428 C421 1.424 . S
C428 C427 1.413 . S
C428 N432 1.361 . S
C429 C427 1.427 1_545 S
C429 C430 1.328 . S
C429 H444 0.929 . S
C430 C424 1.448 1_545 S
C430 C429 1.328 . S
C430 H445 0.930 . S
Tb431 N422 2.617 . S
Tb431 N432 2.572 . S
Tb431 O466 2.349 . S
Tb431 O469 2.393 . S
Tb431 O470 2.465 . S
Tb431 O471 2.387 . S
Tb431 O473 2.428 . S
Tb431 O474 2.308 . S
Tb431 C495 2.802 . S
N432 C428 1.361 . S
N432 Tb431 2.572 . S
N432 C434 1.340 . S
C433 C427 1.416 . S
C433 C435 1.332 . S
C433 H441 0.931 1_565 S
C434 N432 1.340 . S
C434 C435 1.407 . S
C434 H440 0.930 . S
C435 C433 1.332 . S
C435 C434 1.407 . S
C435 H437 0.929 . S
H436 C425 0.930 . S
H437 C435 0.929 . S
H438 C453 0.930 . S
H439 C460 0.929 . S
H440 C434 0.930 . S
H441 C433 0.931 1_545 S
H442 C456 0.930 . S
H443 C423 0.930 . S
H444 C429 0.929 . S
H445 C430 0.930 . S
H446 C451 0.930 . S
H447 C426 0.930 1_545 S
H448 C459 0.931 . S
N449 Tb420 2.617 . S
N449 C450 1.379 . S
N449 C453 1.334 . S
C450 N449 1.379 . S
C450 C452 1.416 . S
C450 C458 1.424 . S
C451 H446 0.930 . S
C451 C453 1.390 . S
C451 C454 1.339 . S
C452 C450 1.416 . S
C452 C454 1.416 . S
C452 C485 1.448 . S
C453 H438 0.930 . S
C453 N449 1.334 . S
C453 C451 1.390 . S
C454 C451 1.339 . S
C454 C452 1.416 . S
C454 H461 0.930 . S
N455 Tb420 2.572 . S
N455 C456 1.340 . S
N455 C458 1.361 . S
C456 H442 0.930 . S
C456 N455 1.340 . S
C456 C460 1.407 . S
C457 C458 1.413 . S
C457 C459 1.416 . S
C457 C486 1.427 . S
C458 C450 1.424 . S
C458 N455 1.361 . S
C458 C457 1.413 . S
C459 H448 0.931 . S
C459 C457 1.416 . S
C459 C460 1.332 . S
C460 H439 0.929 . S
C460 C456 1.407 . S
C460 C459 1.332 . S
H461 C454 0.930 . S
H462 C485 0.930 . S
H463 C486 0.929 . S
O464 Tb420 2.465 . S
O464 C484 1.264 . S
O465 Tb420 2.387 . S
O465 C476 1.264 . S
O466 Tb431 2.349 . S
O466 C476 1.243 . S
O467 Tb420 2.428 . S
O467 C484 1.256 . S
O468 Tb420 2.308 . S
O468 C483 1.266 . S
O469 Tb431 2.393 . S
O469 C483 1.248 . S
O470 Tb431 2.465 . S
O470 C495 1.264 . S
O471 Tb431 2.387 . S
O471 C487 1.264 . S
O472 Tb420 2.349 . S
O472 C487 1.243 . S
O473 Tb431 2.428 . S
O473 C495 1.256 . S
O474 Tb431 2.308 . S
O474 C494 1.266 . S
O475 Tb420 2.393 . S
O475 C494 1.248 . S
C476 O465 1.264 . S
C476 O466 1.243 . S
C477 C480 1.399 . S
C477 C482 1.383 . S
C477 C484 1.496 . S
C478 C479 1.399 . S
C478 C482 1.389 . S
C479 C478 1.399 . S
C479 C481 1.380 . S
C479 H496 0.929 . S
C480 C477 1.399 . S
C480 C481 1.392 . S
C480 H497 0.929 . S
C481 C479 1.380 . S
C481 C480 1.392 . S
C481 H498 0.929 . S
C482 C477 1.383 . S
C482 C478 1.389 . S
C482 H499 0.931 . S
C483 O468 1.266 . S
C483 O469 1.248 . S
C484 Tb420 2.802 . S
C484 O464 1.264 . S
C484 O467 1.256 . S
C484 C477 1.496 . S
C485 C452 1.448 . S
C485 H462 0.930 . S
C485 C486 1.328 . S
C486 C457 1.427 . S
C486 H463 0.929 . S
C486 C485 1.328 . S
C487 O471 1.264 . S
C487 O472 1.243 . S
C488 C491 1.399 1_565 S
C488 C492 1.382 1_565 S
C488 C495 1.496 . S
C489 C490 1.399 . S
C489 C492 1.393 . S
C490 C489 1.399 . S
C490 C493 1.380 . S
C490 H500 0.929 . S
C491 C488 1.399 1_545 S
C491 C493 1.392 . S
C491 H501 0.929 . S
C492 C488 1.382 1_545 S
C492 C489 1.393 . S
C492 H502 0.928 1_545 S
C493 C490 1.380 . S
C493 C491 1.392 . S
C493 H503 0.929 . S
C494 O474 1.266 . S
C494 O475 1.248 . S
C495 Tb431 2.802 . S
C495 O470 1.264 . S
C495 O473 1.256 . S
C495 C488 1.496 . S
H496 C479 0.929 . S
H497 C480 0.929 . S
H498 C481 0.929 . S
H499 C482 0.931 . S
H500 C490 0.929 . S
H501 C491 0.929 . S
H502 C492 0.928 1_565 S
H503 C493 0.929 . S
Tb504 N533 2.617 . S
Tb504 N539 2.572 . S
Tb504 O548 2.465 . S
Tb504 O549 2.387 . S
Tb504 O551 2.428 . S
Tb504 O552 2.308 . S
Tb504 O556 2.349 . S
Tb504 O559 2.393 . S
Tb504 C568 2.802 . S
C505 N506 1.379 . S
C505 C508 1.416 . S
C505 C512 1.424 . S
N506 C505 1.379 . S
N506 C509 1.334 . S
N506 Tb515 2.617 . S
C507 C509 1.390 . S
C507 C510 1.339 . S
C507 H527 0.930 . S
C508 C505 1.416 . S
C508 C510 1.416 . S
C508 C514 1.448 . S
C509 N506 1.334 . S
C509 C507 1.390 . S
C509 H520 0.930 . S
C510 C507 1.339 . S
C510 C508 1.416 . S
C510 H531 0.930 . S
C511 C512 1.413 . S
C511 C513 1.427 . S
C511 C517 1.416 . S
C512 C505 1.424 . S
C512 C511 1.413 . S
C512 N516 1.361 . S
C513 C511 1.427 . S
C513 C514 1.328 . S
C513 H528 0.929 . S
C514 C508 1.448 . S
C514 C513 1.328 . S
C514 H529 0.930 . S
Tb515 N506 2.617 . S
Tb515 N516 2.572 . S
Tb515 O550 2.349 . S
Tb515 O553 2.393 . S
Tb515 O554 2.465 . S
Tb515 O555 2.387 . S
Tb515 O557 2.428 . S
Tb515 O558 2.308 . S
Tb515 C579 2.802 . S
N516 C512 1.361 . S
N516 Tb515 2.572 . S
N516 C518 1.340 . S
C517 C511 1.416 . S
C517 C519 1.332 . S
C517 H525 0.931 . S
C518 N516 1.340 . S
C518 C519 1.407 . S
C518 H524 0.930 . S
C519 C517 1.332 . S
C519 C518 1.407 . S
C519 H521 0.929 . S
H520 C509 0.930 . S
H521 C519 0.929 . S
H522 C537 0.930 . S
H523 C544 0.929 . S
H524 C518 0.930 . S
H525 C517 0.931 . S
H526 C540 0.930 . S
H527 C507 0.930 . S
H528 C513 0.929 . S
H529 C514 0.930 . S
H530 C535 0.930 . S
H531 C510 0.930 . S
H532 C543 0.931 . S
N533 Tb504 2.617 . S
N533 C534 1.379 . S
N533 C537 1.334 . S
C534 N533 1.379 . S
C534 C536 1.416 . S
C534 C542 1.424 . S
C535 H530 0.930 . S
C535 C537 1.390 . S
C535 C538 1.339 . S
C536 C534 1.416 . S
C536 C538 1.416 . S
C536 C569 1.448 . S
C537 H522 0.930 . S
C537 N533 1.334 . S
C537 C535 1.390 . S
C538 C535 1.339 . S
C538 C536 1.416 . S
C538 H545 0.930 . S
N539 Tb504 2.572 . S
N539 C540 1.340 . S
N539 C542 1.361 . S
C540 H526 0.930 . S
C540 N539 1.340 . S
C540 C544 1.407 . S
C541 C542 1.413 . S
C541 C543 1.416 . S
C541 C570 1.427 . S
C542 C534 1.424 . S
C542 N539 1.361 . S
C542 C541 1.413 . S
C543 H532 0.931 . S
C543 C541 1.416 . S
C543 C544 1.332 . S
C544 H523 0.929 . S
C544 C540 1.407 . S
C544 C543 1.332 . S
H545 C538 0.930 . S
H546 C569 0.930 . S
H547 C570 0.929 . S
O548 Tb504 2.465 . S
O548 C568 1.264 . S
O549 Tb504 2.387 . S
O549 C560 1.264 . S
O550 Tb515 2.349 . S
O550 C560 1.243 . S
O551 Tb504 2.428 . S
O551 C568 1.256 . S
O552 Tb504 2.308 . S
O552 C567 1.266 . S
O553 Tb515 2.393 . S
O553 C567 1.248 . S
O554 Tb515 2.465 . S
O554 C579 1.264 . S
O555 Tb515 2.387 . S
O555 C571 1.264 . S
O556 Tb504 2.349 . S
O556 C571 1.243 . S
O557 Tb515 2.428 . S
O557 C579 1.256 . S
O558 Tb515 2.308 . S
O558 C578 1.266 . S
O559 Tb504 2.393 . S
O559 C578 1.248 . S
C560 O549 1.264 . S
C560 O550 1.243 . S
C561 C564 1.399 . S
C561 C566 1.383 . S
C561 C568 1.496 . S
C562 C563 1.399 . S
C562 C566 1.389 . S
C563 C562 1.399 . S
C563 C565 1.380 . S
C563 H580 0.929 . S
C564 C561 1.399 . S
C564 C565 1.392 . S
C564 H581 0.929 . S
C565 C563 1.380 . S
C565 C564 1.392 . S
C565 H582 0.929 . S
C566 C561 1.383 . S
C566 C562 1.389 . S
C566 H583 0.931 . S
C567 O552 1.266 . S
C567 O553 1.248 . S
C568 Tb504 2.802 . S
C568 O548 1.264 . S
C568 O551 1.256 . S
C568 C561 1.496 . S
C569 C536 1.448 . S
C569 H546 0.930 . S
C569 C570 1.328 . S
C570 C541 1.427 . S
C570 H547 0.929 . S
C570 C569 1.328 . S
C571 O555 1.264 . S
C571 O556 1.243 . S
C572 C575 1.399 . S
C572 C576 1.383 . S
C572 C579 1.496 . S
C573 C574 1.399 . S
C573 C576 1.389 . S
C574 C573 1.399 . S
C574 C577 1.380 . S
C574 H584 0.929 . S
C575 C572 1.399 . S
C575 C577 1.392 . S
C575 H585 0.929 . S
C576 C572 1.383 . S
C576 C573 1.389 . S
C576 H586 0.931 . S
C577 C574 1.380 . S
C577 C575 1.392 . S
C577 H587 0.929 . S
C578 O558 1.266 . S
C578 O559 1.248 . S
C579 Tb515 2.802 . S
C579 O554 1.264 . S
C579 O557 1.256 . S
C579 C572 1.496 . S
H580 C563 0.929 . S
H581 C564 0.929 . S
H582 C565 0.929 . S
H583 C566 0.931 . S
H584 C574 0.929 . S
H585 C575 0.929 . S
H586 C576 0.931 . S
H587 C577 0.929 . S
Tb588 N617 2.617 1_556 S
Tb588 N623 2.572 1_556 S
Tb588 O632 2.465 . S
Tb588 O633 2.387 1_556 S
Tb588 O635 2.428 . S
Tb588 O636 2.308 . S
Tb588 O640 2.349 . S
Tb588 O643 2.393 . S
Tb588 C652 2.802 . S
C589 N590 1.379 . S
C589 C592 1.416 . S
C589 C596 1.424 . S
N590 C589 1.379 . S
N590 C593 1.334 . S
N590 Tb599 2.617 . S
C591 C593 1.390 . S
C591 C594 1.339 . S
C591 H611 0.930 . S
C592 C589 1.416 . S
C592 C594 1.416 . S
C592 C598 1.448 1_545 S
C593 N590 1.334 . S
C593 C591 1.390 . S
C593 H604 0.930 . S
C594 C591 1.339 . S
C594 C592 1.416 . S
C594 H615 0.930 1_545 S
C595 C596 1.413 . S
C595 C597 1.427 1_545 S
C595 C601 1.416 . S
C596 C589 1.424 . S
C596 C595 1.413 . S
C596 N600 1.361 . S
C597 C595 1.427 1_565 S
C597 C598 1.328 . S
C597 H612 0.929 . S
C598 C592 1.448 1_565 S
C598 C597 1.328 . S
C598 H613 0.930 . S
Tb599 N590 2.617 . S
Tb599 N600 2.572 . S
Tb599 O634 2.349 1_556 S
Tb599 O637 2.393 . S
Tb599 O638 2.465 1_556 S
Tb599 O639 2.387 . S
Tb599 O641 2.428 1_556 S
Tb599 O642 2.308 . S
Tb599 C663 2.802 1_556 S
N600 C596 1.361 . S
N600 Tb599 2.572 . S
N600 C602 1.340 . S
C601 C595 1.416 . S
C601 C603 1.332 . S
C601 H609 0.931 1_545 S
C602 N600 1.340 . S
C602 C603 1.407 . S
C602 H608 0.930 . S
C603 C601 1.332 . S
C603 C602 1.407 . S
C603 H605 0.929 . S
H604 C593 0.930 . S
H605 C603 0.929 . S
H606 C621 0.930 . S
H607 C628 0.929 . S
H608 C602 0.930 . S
H609 C601 0.931 1_565 S
H610 C624 0.930 . S
H611 C591 0.930 . S
H612 C597 0.929 . S
H613 C598 0.930 . S
H614 C619 0.930 . S
H615 C594 0.930 1_565 S
H616 C627 0.931 . S
N617 Tb588 2.617 1_554 S
N617 C618 1.379 . S
N617 C621 1.334 . S
C618 N617 1.379 . S
C618 C620 1.416 . S
C618 C626 1.424 . S
C619 H614 0.930 . S
C619 C621 1.390 . S
C619 C622 1.339 . S
C620 C618 1.416 . S
C620 C622 1.416 . S
C620 C653 1.448 . S
C621 H606 0.930 . S
C621 N617 1.334 . S
C621 C619 1.390 . S
C622 C619 1.339 . S
C622 C620 1.416 . S
C622 H629 0.930 . S
N623 Tb588 2.572 1_554 S
N623 C624 1.340 1_554 S
N623 C626 1.361 . S
C624 H610 0.930 . S
C624 N623 1.340 1_556 S
C624 C628 1.407 1_556 S
C625 C626 1.413 . S
C625 C627 1.416 . S
C625 C654 1.427 . S
C626 C618 1.424 . S
C626 N623 1.361 . S
C626 C625 1.413 . S
C627 H616 0.931 . S
C627 C625 1.416 . S
C627 C628 1.332 . S
C628 H607 0.929 . S
C628 C624 1.407 1_554 S
C628 C627 1.332 . S
H629 C622 0.930 . S
H630 C653 0.930 . S
H631 C654 0.929 . S
O632 Tb588 2.465 . S
O632 C652 1.264 . S
O633 Tb588 2.387 1_554 S
O633 C644 1.264 . S
O634 Tb599 2.349 1_554 S
O634 C644 1.243 . S
O635 Tb588 2.428 . S
O635 C652 1.256 . S
O636 Tb588 2.308 . S
O636 C651 1.266 . S
O637 Tb599 2.393 . S
O637 C651 1.248 . S
O638 Tb599 2.465 1_554 S
O638 C663 1.264 . S
O639 Tb599 2.387 . S
O639 C655 1.264 . S
O640 Tb588 2.349 . S
O640 C655 1.243 . S
O641 Tb599 2.428 1_554 S
O641 C663 1.256 . S
O642 Tb599 2.308 . S
O642 C662 1.266 1_556 S
O643 Tb588 2.393 . S
O643 C662 1.248 1_556 S
C644 O633 1.264 . S
C644 O634 1.243 . S
C645 C648 1.399 . S
C645 C650 1.383 . S
C645 C652 1.496 . S
C646 C647 1.399 . S
C646 C650 1.389 . S
C647 C646 1.399 . S
C647 C649 1.380 . S
C647 H664 0.929 . S
C648 C645 1.399 . S
C648 C649 1.392 . S
C648 H665 0.929 . S
C649 C647 1.380 . S
C649 C648 1.392 . S
C649 H666 0.929 . S
C650 C645 1.383 . S
C650 C646 1.389 . S
C650 H667 0.931 . S
C651 O636 1.266 . S
C651 O637 1.248 . S
C652 Tb588 2.802 . S
C652 O632 1.264 . S
C652 O635 1.256 . S
C652 C645 1.496 . S
C653 C620 1.448 . S
C653 H630 0.930 . S
C653 C654 1.328 . S
C654 C625 1.427 . S
C654 H631 0.929 . S
C654 C653 1.328 . S
C655 O639 1.264 . S
C655 O640 1.243 . S
C656 C659 1.399 1_545 S
C656 C660 1.382 1_545 S
C656 C663 1.496 . S
C657 C658 1.399 . S
C657 C660 1.393 . S
C658 C657 1.399 . S
C658 C661 1.380 . S
C658 H668 0.929 . S
C659 C656 1.399 1_565 S
C659 C661 1.392 . S
C659 H669 0.929 . S
C660 C656 1.382 1_565 S
C660 C657 1.393 . S
C660 H670 0.928 1_565 S
C661 C658 1.380 . S
C661 C659 1.392 . S
C661 H671 0.929 . S
C662 O642 1.266 1_554 S
C662 O643 1.248 1_554 S
C663 Tb599 2.802 1_554 S
C663 O638 1.264 . S
C663 O641 1.256 . S
C663 C656 1.496 . S
H664 C647 0.929 . S
H665 C648 0.929 . S
H666 C649 0.929 . S
H667 C650 0.931 . S
H668 C658 0.929 . S
H669 C659 0.929 . S
H670 C660 0.928 1_545 S
H671 C661 0.929 . S
Tb672 N701 2.617 . S
Tb672 N707 2.572 . S
Tb672 O716 2.465 . S
Tb672 O717 2.387 . S
Tb672 O719 2.428 . S
Tb672 O720 2.308 . S
Tb672 O724 2.349 . S
Tb672 O727 2.393 . S
Tb672 C736 2.802 . S
C673 N674 1.379 . S
C673 C676 1.416 . S
C673 C680 1.424 . S
N674 C673 1.379 . S
N674 C677 1.334 . S
N674 Tb683 2.617 . S
C675 C677 1.390 . S
C675 C678 1.339 . S
C675 H695 0.930 . S
C676 C673 1.416 . S
C676 C678 1.416 . S
C676 C682 1.448 . S
C677 N674 1.334 . S
C677 C675 1.390 . S
C677 H688 0.930 . S
C678 C675 1.339 . S
C678 C676 1.416 . S
C678 H699 0.930 . S
C679 C680 1.413 . S
C679 C681 1.427 . S
C679 C685 1.416 . S
C680 C673 1.424 . S
C680 C679 1.413 . S
C680 N684 1.361 . S
C681 C679 1.427 . S
C681 C682 1.328 . S
C681 H696 0.929 1_655 S
C682 C676 1.448 . S
C682 C681 1.328 . S
C682 H697 0.930 1_655 S
Tb683 N674 2.617 . S
Tb683 N684 2.572 . S
Tb683 O718 2.349 . S
Tb683 O721 2.393 . S
Tb683 O722 2.465 . S
Tb683 O723 2.387 . S
Tb683 O725 2.428 . S
Tb683 O726 2.308 . S
Tb683 C747 2.802 . S
N684 C680 1.361 . S
N684 Tb683 2.572 . S
N684 C686 1.340 . S
C685 C679 1.416 . S
C685 C687 1.332 . S
C685 H693 0.931 . S
C686 N684 1.340 . S
C686 C687 1.407 . S
C686 H692 0.930 . S
C687 C685 1.332 . S
C687 C686 1.407 . S
C687 H689 0.929 . S
H688 C677 0.930 . S
H689 C687 0.929 . S
H690 C705 0.930 . S
H691 C712 0.929 . S
H692 C686 0.930 . S
H693 C685 0.931 . S
H694 C708 0.930 . S
H695 C675 0.930 . S
H696 C681 0.929 1_455 S
H697 C682 0.930 1_455 S
H698 C703 0.930 . S
H699 C678 0.930 . S
H700 C711 0.931 . S
N701 Tb672 2.617 . S
N701 C702 1.379 . S
N701 C705 1.334 . S
C702 N701 1.379 . S
C702 C704 1.416 . S
C702 C710 1.424 . S
C703 H698 0.930 . S
C703 C705 1.390 . S
C703 C706 1.339 . S
C704 C702 1.416 . S
C704 C706 1.416 . S
C704 C737 1.448 . S
C705 H690 0.930 . S
C705 N701 1.334 . S
C705 C703 1.390 . S
C706 C703 1.339 . S
C706 C704 1.416 . S
C706 H713 0.930 . S
N707 Tb672 2.572 . S
N707 C708 1.340 . S
N707 C710 1.361 . S
C708 H694 0.930 . S
C708 N707 1.340 . S
C708 C712 1.407 . S
C709 C710 1.413 . S
C709 C711 1.416 . S
C709 C738 1.427 . S
C710 C702 1.424 . S
C710 N707 1.361 . S
C710 C709 1.413 . S
C711 H700 0.931 . S
C711 C709 1.416 . S
C711 C712 1.332 . S
C712 H691 0.929 . S
C712 C708 1.407 . S
C712 C711 1.332 . S
H713 C706 0.930 . S
H714 C737 0.930 . S
H715 C738 0.929 . S
O716 Tb672 2.465 . S
O716 C736 1.264 . S
O717 Tb672 2.387 . S
O717 C728 1.264 . S
O718 Tb683 2.349 . S
O718 C728 1.243 . S
O719 Tb672 2.428 . S
O719 C736 1.256 . S
O720 Tb672 2.308 . S
O720 C735 1.266 . S
O721 Tb683 2.393 . S
O721 C735 1.248 . S
O722 Tb683 2.465 . S
O722 C747 1.264 . S
O723 Tb683 2.387 . S
O723 C739 1.264 . S
O724 Tb672 2.349 . S
O724 C739 1.243 . S
O725 Tb683 2.428 . S
O725 C747 1.256 . S
O726 Tb683 2.308 . S
O726 C746 1.266 . S
O727 Tb672 2.393 . S
O727 C746 1.248 . S
C728 O717 1.264 . S
C728 O718 1.243 . S
C729 C732 1.399 . S
C729 C734 1.383 . S
C729 C736 1.496 . S
C730 C731 1.399 . S
C730 C734 1.389 . S
C731 C730 1.399 . S
C731 C733 1.380 . S
C731 H748 0.929 . S
C732 C729 1.399 . S
C732 C733 1.392 . S
C732 H749 0.929 . S
C733 C731 1.380 . S
C733 C732 1.392 . S
C733 H750 0.929 . S
C734 C729 1.383 . S
C734 C730 1.389 . S
C734 H751 0.931 . S
C735 O720 1.266 . S
C735 O721 1.248 . S
C736 Tb672 2.802 . S
C736 O716 1.264 . S
C736 O719 1.256 . S
C736 C729 1.496 . S
C737 C704 1.448 . S
C737 H714 0.930 . S
C737 C738 1.328 . S
C738 C709 1.427 . S
C738 H715 0.929 . S
C738 C737 1.328 . S
C739 O723 1.264 . S
C739 O724 1.243 . S
C740 C743 1.399 . S
C740 C744 1.383 . S
C740 C747 1.496 . S
C741 C742 1.399 . S
C741 C744 1.389 1_455 S
C742 C741 1.399 . S
C742 C745 1.380 . S
C742 H752 0.929 . S
C743 C740 1.399 . S
C743 C745 1.392 1_655 S
C743 H753 0.929 . S
C744 C740 1.383 . S
C744 C741 1.389 1_655 S
C744 H754 0.931 . S
C745 C742 1.380 . S
C745 C743 1.392 1_455 S
C745 H755 0.929 . S
C746 O726 1.266 . S
C746 O727 1.248 . S
C747 Tb683 2.802 . S
C747 O722 1.264 . S
C747 O725 1.256 . S
C747 C740 1.496 . S
H748 C731 0.929 . S
H749 C732 0.929 . S
H750 C733 0.929 . S
H751 C734 0.931 . S
H752 C742 0.929 . S
H753 C743 0.929 . S
H754 C744 0.931 . S
H755 C745 0.929 . S
Tb756 N785 2.617 . S
Tb756 N791 2.572 . S
Tb756 O800 2.465 . S
Tb756 O801 2.387 . S
Tb756 O803 2.428 . S
Tb756 O804 2.308 . S
Tb756 O808 2.349 . S
Tb756 O811 2.393 . S
Tb756 C820 2.802 . S
C757 N758 1.379 . S
C757 C760 1.416 . S
C757 C764 1.424 . S
N758 C757 1.379 . S
N758 C761 1.334 . S
N758 Tb767 2.617 . S
C759 C761 1.390 . S
C759 C762 1.339 . S
C759 H779 0.930 . S
C760 C757 1.416 . S
C760 C762 1.416 . S
C760 C766 1.448 . S
C761 N758 1.334 . S
C761 C759 1.390 . S
C761 H772 0.930 . S
C762 C759 1.339 . S
C762 C760 1.416 . S
C762 H783 0.930 . S
C763 C764 1.413 . S
C763 C765 1.427 . S
C763 C769 1.416 . S
C764 C757 1.424 . S
C764 C763 1.413 . S
C764 N768 1.361 . S
C765 C763 1.427 . S
C765 C766 1.328 . S
C765 H780 0.929 . S
C766 C760 1.448 . S
C766 C765 1.328 . S
C766 H781 0.930 . S
Tb767 N758 2.617 . S
Tb767 N768 2.572 . S
Tb767 O802 2.349 . S
Tb767 O805 2.393 . S
Tb767 O806 2.465 . S
Tb767 O807 2.387 . S
Tb767 O809 2.428 . S
Tb767 O810 2.308 . S
Tb767 C831 2.802 . S
N768 C764 1.361 . S
N768 Tb767 2.572 . S
N768 C770 1.340 . S
C769 C763 1.416 . S
C769 C771 1.332 . S
C769 H777 0.931 . S
C770 N768 1.340 . S
C770 C771 1.407 . S
C770 H776 0.930 . S
C771 C769 1.332 . S
C771 C770 1.407 . S
C771 H773 0.929 . S
H772 C761 0.930 . S
H773 C771 0.929 . S
H774 C789 0.930 . S
H775 C796 0.929 . S
H776 C770 0.930 . S
H777 C769 0.931 . S
H778 C792 0.930 . S
H779 C759 0.930 . S
H780 C765 0.929 . S
H781 C766 0.930 . S
H782 C787 0.930 . S
H783 C762 0.930 . S
H784 C795 0.931 1_565 S
N785 Tb756 2.617 . S
N785 C786 1.379 . S
N785 C789 1.334 . S
C786 N785 1.379 . S
C786 C788 1.416 . S
C786 C794 1.424 . S
C787 H782 0.930 . S
C787 C789 1.390 . S
C787 C790 1.339 . S
C788 C786 1.416 . S
C788 C790 1.416 . S
C788 C821 1.448 1_545 S
C789 H774 0.930 . S
C789 N785 1.334 . S
C789 C787 1.390 . S
C790 C787 1.339 . S
C790 C788 1.416 . S
C790 H797 0.930 1_545 S
N791 Tb756 2.572 . S
N791 C792 1.340 . S
N791 C794 1.361 . S
C792 H778 0.930 . S
C792 N791 1.340 . S
C792 C796 1.407 . S
C793 C794 1.413 . S
C793 C795 1.416 . S
C793 C822 1.427 1_545 S
C794 C786 1.424 . S
C794 N791 1.361 . S
C794 C793 1.413 . S
C795 H784 0.931 1_545 S
C795 C793 1.416 . S
C795 C796 1.332 . S
C796 H775 0.929 . S
C796 C792 1.407 . S
C796 C795 1.332 . S
H797 C790 0.930 1_565 S
H798 C821 0.930 . S
H799 C822 0.929 . S
O800 Tb756 2.465 . S
O800 C820 1.264 . S
O801 Tb756 2.387 . S
O801 C812 1.264 . S
O802 Tb767 2.349 . S
O802 C812 1.243 . S
O803 Tb756 2.428 . S
O803 C820 1.256 . S
O804 Tb756 2.308 . S
O804 C819 1.266 . S
O805 Tb767 2.393 . S
O805 C819 1.248 . S
O806 Tb767 2.465 . S
O806 C831 1.264 . S
O807 Tb767 2.387 . S
O807 C823 1.264 . S
O808 Tb756 2.349 . S
O808 C823 1.243 . S
O809 Tb767 2.428 . S
O809 C831 1.256 . S
O810 Tb767 2.308 . S
O810 C830 1.266 . S
O811 Tb756 2.393 . S
O811 C830 1.248 . S
C812 O801 1.264 . S
C812 O802 1.243 . S
C813 C816 1.399 1_545 S
C813 C818 1.382 1_545 S
C813 C820 1.496 . S
C814 C815 1.399 . S
C814 C818 1.393 . S
C815 C814 1.399 . S
C815 C817 1.380 . S
C815 H832 0.929 . S
C816 C813 1.399 1_565 S
C816 C817 1.392 . S
C816 H833 0.929 . S
C817 C815 1.380 . S
C817 C816 1.392 . S
C817 H834 0.929 . S
C818 C813 1.382 1_565 S
C818 C814 1.393 . S
C818 H835 0.928 1_565 S
C819 O804 1.266 . S
C819 O805 1.248 . S
C820 Tb756 2.802 . S
C820 O800 1.264 . S
C820 O803 1.256 . S
C820 C813 1.496 . S
C821 C788 1.448 1_565 S
C821 H798 0.930 . S
C821 C822 1.328 . S
C822 C793 1.427 1_565 S
C822 H799 0.929 . S
C822 C821 1.328 . S
C823 O807 1.264 . S
C823 O808 1.243 . S
C824 C827 1.399 . S
C824 C828 1.383 . S
C824 C831 1.496 . S
C825 C826 1.399 . S
C825 C828 1.389 . S
C826 C825 1.399 . S
C826 C829 1.380 . S
C826 H836 0.929 . S
C827 C824 1.399 . S
C827 C829 1.392 . S
C827 H837 0.929 . S
C828 C824 1.383 . S
C828 C825 1.389 . S
C828 H838 0.931 . S
C829 C826 1.380 . S
C829 C827 1.392 . S
C829 H839 0.929 . S
C830 O810 1.266 . S
C830 O811 1.248 . S
C831 Tb767 2.802 . S
C831 O806 1.264 . S
C831 O809 1.256 . S
C831 C824 1.496 . S
H832 C815 0.929 . S
H833 C816 0.929 . S
H834 C817 0.929 . S
H835 C818 0.928 1_545 S
H836 C826 0.929 . S
H837 C827 0.929 . S
H838 C828 0.931 . S
H839 C829 0.929 . S
Tb840 N869 2.617 . S
Tb840 N875 2.572 . S
Tb840 O884 2.465 . S
Tb840 O885 2.387 . S
Tb840 O887 2.428 . S
Tb840 O888 2.308 . S
Tb840 O892 2.349 . S
Tb840 O895 2.393 . S
Tb840 C904 2.802 . S
C841 N842 1.379 . S
C841 C844 1.416 . S
C841 C848 1.424 . S
N842 C841 1.379 . S
N842 C845 1.334 . S
N842 Tb851 2.617 . S
C843 C845 1.390 . S
C843 C846 1.339 . S
C843 H863 0.930 . S
C844 C841 1.416 . S
C844 C846 1.416 . S
C844 C850 1.448 . S
C845 N842 1.334 . S
C845 C843 1.390 . S
C845 H856 0.930 . S
C846 C843 1.339 . S
C846 C844 1.416 . S
C846 H867 0.930 . S
C847 C848 1.413 . S
C847 C849 1.427 . S
C847 C853 1.416 . S
C848 C841 1.424 . S
C848 C847 1.413 . S
C848 N852 1.361 . S
C849 C847 1.427 . S
C849 C850 1.328 . S
C849 H864 0.929 . S
C850 C844 1.448 . S
C850 C849 1.328 . S
C850 H865 0.930 . S
Tb851 N842 2.617 . S
Tb851 N852 2.572 . S
Tb851 O886 2.349 . S
Tb851 O889 2.393 . S
Tb851 O890 2.465 . S
Tb851 O891 2.387 . S
Tb851 O893 2.428 . S
Tb851 O894 2.308 . S
Tb851 C915 2.802 . S
N852 C848 1.361 . S
N852 Tb851 2.572 . S
N852 C854 1.340 . S
C853 C847 1.416 . S
C853 C855 1.332 . S
C853 H861 0.931 . S
C854 N852 1.340 . S
C854 C855 1.407 . S
C854 H860 0.930 . S
C855 C853 1.332 . S
C855 C854 1.407 . S
C855 H857 0.929 . S
H856 C845 0.930 . S
H857 C855 0.929 . S
H858 C873 0.930 . S
H859 C880 0.929 . S
H860 C854 0.930 . S
H861 C853 0.931 . S
H862 C876 0.930 . S
H863 C843 0.930 . S
H864 C849 0.929 . S
H865 C850 0.930 . S
H866 C871 0.930 . S
H867 C846 0.930 . S
H868 C879 0.931 . S
N869 Tb840 2.617 . S
N869 C870 1.379 . S
N869 C873 1.334 . S
C870 N869 1.379 . S
C870 C872 1.416 . S
C870 C878 1.424 . S
C871 H866 0.930 . S
C871 C873 1.390 . S
C871 C874 1.339 . S
C872 C870 1.416 . S
C872 C874 1.416 . S
C872 C905 1.448 . S
C873 H858 0.930 . S
C873 N869 1.334 . S
C873 C871 1.390 . S
C874 C871 1.339 . S
C874 C872 1.416 . S
C874 H881 0.930 . S
N875 Tb840 2.572 . S
N875 C876 1.340 . S
N875 C878 1.361 . S
C876 H862 0.930 . S
C876 N875 1.340 . S
C876 C880 1.407 . S
C877 C878 1.413 . S
C877 C879 1.416 . S
C877 C906 1.427 . S
C878 C870 1.424 . S
C878 N875 1.361 . S
C878 C877 1.413 . S
C879 H868 0.931 . S
C879 C877 1.416 . S
C879 C880 1.332 . S
C880 H859 0.929 . S
C880 C876 1.407 . S
C880 C879 1.332 . S
H881 C874 0.930 . S
H882 C905 0.930 . S
H883 C906 0.929 . S
O884 Tb840 2.465 . S
O884 C904 1.264 . S
O885 Tb840 2.387 . S
O885 C896 1.264 . S
O886 Tb851 2.349 . S
O886 C896 1.243 . S
O887 Tb840 2.428 . S
O887 C904 1.256 . S
O888 Tb840 2.308 . S
O888 C903 1.266 . S
O889 Tb851 2.393 . S
O889 C903 1.248 . S
O890 Tb851 2.465 . S
O890 C915 1.264 . S
O891 Tb851 2.387 . S
O891 C907 1.264 . S
O892 Tb840 2.349 . S
O892 C907 1.243 . S
O893 Tb851 2.428 . S
O893 C915 1.256 . S
O894 Tb851 2.308 . S
O894 C914 1.266 . S
O895 Tb840 2.393 . S
O895 C914 1.248 . S
C896 O885 1.264 . S
C896 O886 1.243 . S
C897 C900 1.399 . S
C897 C902 1.383 . S
C897 C904 1.496 . S
C898 C899 1.399 . S
C898 C902 1.389 . S
C899 C898 1.399 . S
C899 C901 1.380 . S
C899 H916 0.929 . S
C900 C897 1.399 . S
C900 C901 1.392 . S
C900 H917 0.929 . S
C901 C899 1.380 . S
C901 C900 1.392 . S
C901 H918 0.929 . S
C902 C897 1.383 . S
C902 C898 1.389 . S
C902 H919 0.931 . S
C903 O888 1.266 . S
C903 O889 1.248 . S
C904 Tb840 2.802 . S
C904 O884 1.264 . S
C904 O887 1.256 . S
C904 C897 1.496 . S
C905 C872 1.448 . S
C905 H882 0.930 . S
C905 C906 1.328 . S
C906 C877 1.427 . S
C906 H883 0.929 . S
C906 C905 1.328 . S
C907 O891 1.264 . S
C907 O892 1.243 . S
C908 C911 1.399 . S
C908 C912 1.383 . S
C908 C915 1.496 . S
C909 C910 1.399 . S
C909 C912 1.389 . S
C910 C909 1.399 . S
C910 C913 1.380 . S
C910 H920 0.929 . S
C911 C908 1.399 . S
C911 C913 1.392 . S
C911 H921 0.929 . S
C912 C908 1.383 . S
C912 C909 1.389 . S
C912 H922 0.931 . S
C913 C910 1.380 . S
C913 C911 1.392 . S
C913 H923 0.929 . S
C914 O894 1.266 . S
C914 O895 1.248 . S
C915 Tb851 2.802 . S
C915 O890 1.264 . S
C915 O893 1.256 . S
C915 C908 1.496 . S
H916 C899 0.929 . S
H917 C900 0.929 . S
H918 C901 0.929 . S
H919 C902 0.931 . S
H920 C910 0.929 . S
H921 C911 0.929 . S
H922 C912 0.931 . S
H923 C913 0.929 . S
Tb924 N953 2.617 . S
Tb924 N959 2.572 . S
Tb924 O968 2.465 1_556 S
Tb924 O969 2.387 . S
Tb924 O971 2.428 1_556 S
Tb924 O972 2.308 . S
Tb924 O976 2.349 1_556 S
Tb924 O979 2.393 . S
Tb924 C988 2.802 1_556 S
C925 N926 1.379 . S
C925 C928 1.416 . S
C925 C932 1.424 . S
N926 C925 1.379 . S
N926 C929 1.334 . S
N926 Tb935 2.617 1_554 S
C927 C929 1.390 . S
C927 C930 1.339 . S
C927 H947 0.930 . S
C928 C925 1.416 . S
C928 C930 1.416 . S
C928 C934 1.448 . S
C929 N926 1.334 . S
C929 C927 1.390 . S
C929 H940 0.930 . S
C930 C927 1.339 . S
C930 C928 1.416 . S
C930 H951 0.930 . S
C931 C932 1.413 . S
C931 C933 1.427 . S
C931 C937 1.416 . S
C932 C925 1.424 . S
C932 C931 1.413 . S
C932 N936 1.361 . S
C933 C931 1.427 . S
C933 C934 1.328 . S
C933 H948 0.929 . S
C934 C928 1.448 . S
C934 C933 1.328 . S
C934 H949 0.930 . S
Tb935 N926 2.617 1_556 S
Tb935 N936 2.572 1_556 S
Tb935 O970 2.349 . S
Tb935 O973 2.393 . S
Tb935 O974 2.465 . S
Tb935 O975 2.387 1_556 S
Tb935 O977 2.428 . S
Tb935 O978 2.308 . S
Tb935 C999 2.802 . S
N936 C932 1.361 . S
N936 Tb935 2.572 1_554 S
N936 C938 1.340 1_554 S
C937 C931 1.416 . S
C937 C939 1.332 . S
C937 H945 0.931 . S
C938 N936 1.340 1_556 S
C938 C939 1.407 1_556 S
C938 H944 0.930 . S
C939 C937 1.332 . S
C939 C938 1.407 1_554 S
C939 H941 0.929 . S
H940 C929 0.930 . S
H941 C939 0.929 . S
H942 C957 0.930 . S
H943 C964 0.929 . S
H944 C938 0.930 . S
H945 C937 0.931 . S
H946 C960 0.930 . S
H947 C927 0.930 . S
H948 C933 0.929 . S
H949 C934 0.930 . S
H950 C955 0.930 . S
H951 C930 0.930 . S
H952 C963 0.931 1_545 S
N953 Tb924 2.617 . S
N953 C954 1.379 . S
N953 C957 1.334 . S
C954 N953 1.379 . S
C954 C956 1.416 . S
C954 C962 1.424 . S
C955 H950 0.930 . S
C955 C957 1.390 . S
C955 C958 1.339 . S
C956 C954 1.416 . S
C956 C958 1.416 . S
C956 C989 1.448 1_565 S
C957 H942 0.930 . S
C957 N953 1.334 . S
C957 C955 1.390 . S
C958 C955 1.339 . S
C958 C956 1.416 . S
C958 H965 0.930 1_565 S
N959 Tb924 2.572 . S
N959 C960 1.340 . S
N959 C962 1.361 . S
C960 H946 0.930 . S
C960 N959 1.340 . S
C960 C964 1.407 . S
C961 C962 1.413 . S
C961 C963 1.416 . S
C961 C990 1.427 1_565 S
C962 C954 1.424 . S
C962 N959 1.361 . S
C962 C961 1.413 . S
C963 H952 0.931 1_565 S
C963 C961 1.416 . S
C963 C964 1.332 . S
C964 H943 0.929 . S
C964 C960 1.407 . S
C964 C963 1.332 . S
H965 C958 0.930 1_545 S
H966 C989 0.930 . S
H967 C990 0.929 . S
O968 Tb924 2.465 1_554 S
O968 C988 1.264 . S
O969 Tb924 2.387 . S
O969 C980 1.264 . S
O970 Tb935 2.349 . S
O970 C980 1.243 . S
O971 Tb924 2.428 1_554 S
O971 C988 1.256 . S
O972 Tb924 2.308 . S
O972 C987 1.266 1_556 S
O973 Tb935 2.393 . S
O973 C987 1.248 1_556 S
O974 Tb935 2.465 . S
O974 C999 1.264 . S
O975 Tb935 2.387 1_554 S
O975 C991 1.264 . S
O976 Tb924 2.349 1_554 S
O976 C991 1.243 . S
O977 Tb935 2.428 . S
O977 C999 1.256 . S
O978 Tb935 2.308 . S
O978 C998 1.266 . S
O979 Tb924 2.393 . S
O979 C998 1.248 . S
C980 O969 1.264 . S
C980 O970 1.243 . S
C981 C984 1.399 1_565 S
C981 C986 1.382 1_565 S
C981 C988 1.496 . S
C982 C983 1.399 . S
C982 C986 1.393 . S
C983 C982 1.399 . S
C983 C985 1.380 . S
C983 H1000 0.929 . S
C984 C981 1.399 1_545 S
C984 C985 1.392 . S
C984 H1001 0.929 . S
C985 C983 1.380 . S
C985 C984 1.392 . S
C985 H1002 0.929 . S
C986 C981 1.382 1_545 S
C986 C982 1.393 . S
C986 H1003 0.928 1_545 S
C987 O972 1.266 1_554 S
C987 O973 1.248 1_554 S
C988 Tb924 2.802 1_554 S
C988 O968 1.264 . S
C988 O971 1.256 . S
C988 C981 1.496 . S
C989 C956 1.448 1_545 S
C989 H966 0.930 . S
C989 C990 1.328 . S
C990 C961 1.427 1_545 S
C990 H967 0.929 . S
C990 C989 1.328 . S
C991 O975 1.264 . S
C991 O976 1.243 . S
C992 C995 1.399 . S
C992 C996 1.383 . S
C992 C999 1.496 . S
C993 C994 1.399 . S
C993 C996 1.389 . S
C994 C993 1.399 . S
C994 C997 1.380 . S
C994 H1004 0.929 . S
C995 C992 1.399 . S
C995 C997 1.392 . S
C995 H1005 0.929 . S
C996 C992 1.383 . S
C996 C993 1.389 . S
C996 H1006 0.931 . S
C997 C994 1.380 . S
C997 C995 1.392 . S
C997 H1007 0.929 . S
C998 O978 1.266 . S
C998 O979 1.248 . S
C999 Tb935 2.802 . S
C999 O974 1.264 . S
C999 O977 1.256 . S
C999 C992 1.496 . S
H1000 C983 0.929 . S
H1001 C984 0.929 . S
H1002 C985 0.929 . S
H1003 C986 0.928 1_565 S
H1004 C994 0.929 . S
H1005 C995 0.929 . S
H1006 C996 0.931 . S
H1007 C997 0.929 . S
Tb1008 N1037 2.617 . S
Tb1008 N1043 2.572 . S
Tb1008 O1052 2.465 . S
Tb1008 O1053 2.387 . S
Tb1008 O1055 2.428 . S
Tb1008 O1056 2.308 . S
Tb1008 O1060 2.349 . S
Tb1008 O1063 2.393 . S
Tb1008 C1072 2.802 . S
C1009 N1010 1.379 . S
C1009 C1012 1.416 . S
C1009 C1016 1.424 . S
N1010 C1009 1.379 . S
N1010 C1013 1.334 . S
N1010 Tb1019 2.617 . S
C1011 C1013 1.390 . S
C1011 C1014 1.339 . S
C1011 H1031 0.930 . S
C1012 C1009 1.416 . S
C1012 C1014 1.416 . S
C1012 C1018 1.448 . S
C1013 N1010 1.334 . S
C1013 C1011 1.390 . S
C1013 H1024 0.930 . S
C1014 C1011 1.339 . S
C1014 C1012 1.416 . S
C1014 H1035 0.930 . S
C1015 C1016 1.413 . S
C1015 C1017 1.427 . S
C1015 C1021 1.416 . S
C1016 C1009 1.424 . S
C1016 C1015 1.413 . S
C1016 N1020 1.361 . S
C1017 C1015 1.427 . S
C1017 C1018 1.328 . S
C1017 H1032 0.929 1_655 S
C1018 C1012 1.448 . S
C1018 C1017 1.328 . S
C1018 H1033 0.930 1_655 S
Tb1019 N1010 2.617 . S
Tb1019 N1020 2.572 . S
Tb1019 O1054 2.349 . S
Tb1019 O1057 2.393 . S
Tb1019 O1058 2.465 . S
Tb1019 O1059 2.387 . S
Tb1019 O1061 2.428 . S
Tb1019 O1062 2.308 . S
Tb1019 C1083 2.802 . S
N1020 C1016 1.361 . S
N1020 Tb1019 2.572 . S
N1020 C1022 1.340 . S
C1021 C1015 1.416 . S
C1021 C1023 1.332 . S
C1021 H1029 0.931 . S
C1022 N1020 1.340 . S
C1022 C1023 1.407 . S
C1022 H1028 0.930 . S
C1023 C1021 1.332 . S
C1023 C1022 1.407 . S
C1023 H1025 0.929 . S
H1024 C1013 0.930 . S
H1025 C1023 0.929 . S
H1026 C1041 0.930 . S
H1027 C1048 0.929 . S
H1028 C1022 0.930 . S
H1029 C1021 0.931 . S
H1030 C1044 0.930 . S
H1031 C1011 0.930 . S
H1032 C1017 0.929 1_455 S
H1033 C1018 0.930 1_455 S
H1034 C1039 0.930 . S
H1035 C1014 0.930 . S
H1036 C1047 0.931 . S
N1037 Tb1008 2.617 . S
N1037 C1038 1.379 . S
N1037 C1041 1.334 . S
C1038 N1037 1.379 . S
C1038 C1040 1.416 . S
C1038 C1046 1.424 . S
C1039 H1034 0.930 . S
C1039 C1041 1.390 . S
C1039 C1042 1.339 . S
C1040 C1038 1.416 . S
C1040 C1042 1.416 . S
C1040 C1073 1.448 . S
C1041 H1026 0.930 . S
C1041 N1037 1.334 . S
C1041 C1039 1.390 . S
C1042 C1039 1.339 . S
C1042 C1040 1.416 . S
C1042 H1049 0.930 . S
N1043 Tb1008 2.572 . S
N1043 C1044 1.340 . S
N1043 C1046 1.361 . S
C1044 H1030 0.930 . S
C1044 N1043 1.340 . S
C1044 C1048 1.407 . S
C1045 C1046 1.413 . S
C1045 C1047 1.416 . S
C1045 C1074 1.427 . S
C1046 C1038 1.424 . S
C1046 N1043 1.361 . S
C1046 C1045 1.413 . S
C1047 H1036 0.931 . S
C1047 C1045 1.416 . S
C1047 C1048 1.332 . S
C1048 H1027 0.929 . S
C1048 C1044 1.407 . S
C1048 C1047 1.332 . S
H1049 C1042 0.930 . S
H1050 C1073 0.930 . S
H1051 C1074 0.929 . S
O1052 Tb1008 2.465 . S
O1052 C1072 1.264 . S
O1053 Tb1008 2.387 . S
O1053 C1064 1.264 . S
O1054 Tb1019 2.349 . S
O1054 C1064 1.243 . S
O1055 Tb1008 2.428 . S
O1055 C1072 1.256 . S
O1056 Tb1008 2.308 . S
O1056 C1071 1.266 . S
O1057 Tb1019 2.393 . S
O1057 C1071 1.248 . S
O1058 Tb1019 2.465 . S
O1058 C1083 1.264 . S
O1059 Tb1019 2.387 . S
O1059 C1075 1.264 . S
O1060 Tb1008 2.349 . S
O1060 C1075 1.243 . S
O1061 Tb1019 2.428 . S
O1061 C1083 1.256 . S
O1062 Tb1019 2.308 . S
O1062 C1082 1.266 . S
O1063 Tb1008 2.393 . S
O1063 C1082 1.248 . S
C1064 O1053 1.264 . S
C1064 O1054 1.243 . S
C1065 C1068 1.399 . S
C1065 C1070 1.383 . S
C1065 C1072 1.496 . S
C1066 C1067 1.399 . S
C1066 C1070 1.389 . S
C1067 C1066 1.399 . S
C1067 C1069 1.380 . S
C1067 H1084 0.929 . S
C1068 C1065 1.399 . S
C1068 C1069 1.392 . S
C1068 H1085 0.929 . S
C1069 C1067 1.380 . S
C1069 C1068 1.392 . S
C1069 H1086 0.929 . S
C1070 C1065 1.383 . S
C1070 C1066 1.389 . S
C1070 H1087 0.931 . S
C1071 O1056 1.266 . S
C1071 O1057 1.248 . S
C1072 Tb1008 2.802 . S
C1072 O1052 1.264 . S
C1072 O1055 1.256 . S
C1072 C1065 1.496 . S
C1073 C1040 1.448 . S
C1073 H1050 0.930 . S
C1073 C1074 1.328 . S
C1074 C1045 1.427 . S
C1074 H1051 0.929 . S
C1074 C1073 1.328 . S
C1075 O1059 1.264 . S
C1075 O1060 1.243 . S
C1076 C1079 1.399 . S
C1076 C1080 1.383 . S
C1076 C1083 1.496 . S
C1077 C1078 1.399 . S
C1077 C1080 1.389 1_455 S
C1078 C1077 1.399 . S
C1078 C1081 1.380 . S
C1078 H1088 0.929 . S
C1079 C1076 1.399 . S
C1079 C1081 1.392 1_655 S
C1079 H1089 0.929 . S
C1080 C1076 1.383 . S
C1080 C1077 1.389 1_655 S
C1080 H1090 0.931 . S
C1081 C1078 1.380 . S
C1081 C1079 1.392 1_455 S
C1081 H1091 0.929 . S
C1082 O1062 1.266 . S
C1082 O1063 1.248 . S
C1083 Tb1019 2.802 . S
C1083 O1058 1.264 . S
C1083 O1061 1.256 . S
C1083 C1076 1.496 . S
H1084 C1067 0.929 . S
H1085 C1068 0.929 . S
H1086 C1069 0.929 . S
H1087 C1070 0.931 . S
H1088 C1078 0.929 . S
H1089 C1079 0.929 . S
H1090 C1080 0.931 . S
H1091 C1081 0.929 . S
Tb1092 N1121 2.617 . S
Tb1092 N1127 2.572 . S
Tb1092 O1136 2.465 . S
Tb1092 O1137 2.387 . S
Tb1092 O1139 2.428 . S
Tb1092 O1140 2.308 . S
Tb1092 O1144 2.349 . S
Tb1092 O1147 2.393 . S
Tb1092 C1156 2.802 . S
C1093 N1094 1.379 . S
C1093 C1096 1.416 . S
C1093 C1100 1.424 . S
N1094 C1093 1.379 . S
N1094 C1097 1.334 . S
N1094 Tb1103 2.617 . S
C1095 C1097 1.390 . S
C1095 C1098 1.339 . S
C1095 H1115 0.930 . S
C1096 C1093 1.416 . S
C1096 C1098 1.416 . S
C1096 C1102 1.448 . S
C1097 N1094 1.334 . S
C1097 C1095 1.390 . S
C1097 H1108 0.930 . S
C1098 C1095 1.339 . S
C1098 C1096 1.416 . S
C1098 H1119 0.930 . S
C1099 C1100 1.413 . S
C1099 C1101 1.427 . S
C1099 C1105 1.416 . S
C1100 C1093 1.424 . S
C1100 C1099 1.413 . S
C1100 N1104 1.361 . S
C1101 C1099 1.427 . S
C1101 C1102 1.328 . S
C1101 H1116 0.929 . S
C1102 C1096 1.448 . S
C1102 C1101 1.328 . S
C1102 H1117 0.930 . S
Tb1103 N1094 2.617 . S
Tb1103 N1104 2.572 . S
Tb1103 O1138 2.349 . S
Tb1103 O1141 2.393 . S
Tb1103 O1142 2.465 . S
Tb1103 O1143 2.387 . S
Tb1103 O1145 2.428 . S
Tb1103 O1146 2.308 . S
Tb1103 C1167 2.802 . S
N1104 C1100 1.361 . S
N1104 Tb1103 2.572 . S
N1104 C1106 1.340 . S
C1105 C1099 1.416 . S
C1105 C1107 1.332 . S
C1105 H1113 0.931 . S
C1106 N1104 1.340 . S
C1106 C1107 1.407 . S
C1106 H1112 0.930 . S
C1107 C1105 1.332 . S
C1107 C1106 1.407 . S
C1107 H1109 0.929 . S
H1108 C1097 0.930 . S
H1109 C1107 0.929 . S
H1110 C1125 0.930 . S
H1111 C1132 0.929 . S
H1112 C1106 0.930 . S
H1113 C1105 0.931 . S
H1114 C1128 0.930 . S
H1115 C1095 0.930 . S
H1116 C1101 0.929 . S
H1117 C1102 0.930 . S
H1118 C1123 0.930 . S
H1119 C1098 0.930 . S
H1120 C1131 0.931 1_565 S
N1121 Tb1092 2.617 . S
N1121 C1122 1.379 . S
N1121 C1125 1.334 . S
C1122 N1121 1.379 . S
C1122 C1124 1.416 . S
C1122 C1130 1.424 . S
C1123 H1118 0.930 . S
C1123 C1125 1.390 . S
C1123 C1126 1.339 . S
C1124 C1122 1.416 . S
C1124 C1126 1.416 . S
C1124 C1157 1.448 1_545 S
C1125 H1110 0.930 . S
C1125 N1121 1.334 . S
C1125 C1123 1.390 . S
C1126 C1123 1.339 . S
C1126 C1124 1.416 . S
C1126 H1133 0.930 1_545 S
N1127 Tb1092 2.572 . S
N1127 C1128 1.340 . S
N1127 C1130 1.361 . S
C1128 H1114 0.930 . S
C1128 N1127 1.340 . S
C1128 C1132 1.407 . S
C1129 C1130 1.413 . S
C1129 C1131 1.416 . S
C1129 C1158 1.427 1_545 S
C1130 C1122 1.424 . S
C1130 N1127 1.361 . S
C1130 C1129 1.413 . S
C1131 H1120 0.931 1_545 S
C1131 C1129 1.416 . S
C1131 C1132 1.332 . S
C1132 H1111 0.929 . S
C1132 C1128 1.407 . S
C1132 C1131 1.332 . S
H1133 C1126 0.930 1_565 S
H1134 C1157 0.930 . S
H1135 C1158 0.929 . S
O1136 Tb1092 2.465 . S
O1136 C1156 1.264 . S
O1137 Tb1092 2.387 . S
O1137 C1148 1.264 . S
O1138 Tb1103 2.349 . S
O1138 C1148 1.243 . S
O1139 Tb1092 2.428 . S
O1139 C1156 1.256 . S
O1140 Tb1092 2.308 . S
O1140 C1155 1.266 . S
O1141 Tb1103 2.393 . S
O1141 C1155 1.248 . S
O1142 Tb1103 2.465 . S
O1142 C1167 1.264 . S
O1143 Tb1103 2.387 . S
O1143 C1159 1.264 . S
O1144 Tb1092 2.349 . S
O1144 C1159 1.243 . S
O1145 Tb1103 2.428 . S
O1145 C1167 1.256 . S
O1146 Tb1103 2.308 . S
O1146 C1166 1.266 . S
O1147 Tb1092 2.393 . S
O1147 C1166 1.248 . S
C1148 O1137 1.264 . S
C1148 O1138 1.243 . S
C1149 C1152 1.399 1_545 S
C1149 C1154 1.382 1_545 S
C1149 C1156 1.496 . S
C1150 C1151 1.399 . S
C1150 C1154 1.393 . S
C1151 C1150 1.399 . S
C1151 C1153 1.380 . S
C1151 H1168 0.929 . S
C1152 C1149 1.399 1_565 S
C1152 C1153 1.392 . S
C1152 H1169 0.929 . S
C1153 C1151 1.380 . S
C1153 C1152 1.392 . S
C1153 H1170 0.929 . S
C1154 C1149 1.382 1_565 S
C1154 C1150 1.393 . S
C1154 H1171 0.928 1_565 S
C1155 O1140 1.266 . S
C1155 O1141 1.248 . S
C1156 Tb1092 2.802 . S
C1156 O1136 1.264 . S
C1156 O1139 1.256 . S
C1156 C1149 1.496 . S
C1157 C1124 1.448 1_565 S
C1157 H1134 0.930 . S
C1157 C1158 1.328 . S
C1158 C1129 1.427 1_565 S
C1158 H1135 0.929 . S
C1158 C1157 1.328 . S
C1159 O1143 1.264 . S
C1159 O1144 1.243 . S
C1160 C1163 1.399 . S
C1160 C1164 1.383 . S
C1160 C1167 1.496 . S
C1161 C1162 1.399 . S
C1161 C1164 1.389 . S
C1162 C1161 1.399 . S
C1162 C1165 1.380 . S
C1162 H1172 0.929 . S
C1163 C1160 1.399 . S
C1163 C1165 1.392 . S
C1163 H1173 0.929 . S
C1164 C1160 1.383 . S
C1164 C1161 1.389 . S
C1164 H1174 0.931 . S
C1165 C1162 1.380 . S
C1165 C1163 1.392 . S
C1165 H1175 0.929 . S
C1166 O1146 1.266 . S
C1166 O1147 1.248 . S
C1167 Tb1103 2.802 . S
C1167 O1142 1.264 . S
C1167 O1145 1.256 . S
C1167 C1160 1.496 . S
H1168 C1151 0.929 . S
H1169 C1152 0.929 . S
H1170 C1153 0.929 . S
H1171 C1154 0.928 1_545 S
H1172 C1162 0.929 . S
H1173 C1163 0.929 . S
H1174 C1164 0.931 . S
H1175 C1165 0.929 . S
Tb1176 N1205 2.617 . S
Tb1176 N1211 2.572 . S
Tb1176 O1220 2.465 . S
Tb1176 O1221 2.387 . S
Tb1176 O1223 2.428 . S
Tb1176 O1224 2.308 . S
Tb1176 O1228 2.349 . S
Tb1176 O1231 2.393 . S
Tb1176 C1240 2.802 . S
C1177 N1178 1.379 . S
C1177 C1180 1.416 . S
C1177 C1184 1.424 . S
N1178 C1177 1.379 . S
N1178 C1181 1.334 . S
N1178 Tb1187 2.617 . S
C1179 C1181 1.390 . S
C1179 C1182 1.339 . S
C1179 H1199 0.930 . S
C1180 C1177 1.416 . S
C1180 C1182 1.416 . S
C1180 C1186 1.448 . S
C1181 N1178 1.334 . S
C1181 C1179 1.390 . S
C1181 H1192 0.930 . S
C1182 C1179 1.339 . S
C1182 C1180 1.416 . S
C1182 H1203 0.930 . S
C1183 C1184 1.413 . S
C1183 C1185 1.427 . S
C1183 C1189 1.416 . S
C1184 C1177 1.424 . S
C1184 C1183 1.413 . S
C1184 N1188 1.361 . S
C1185 C1183 1.427 . S
C1185 C1186 1.328 . S
C1185 H1200 0.929 . S
C1186 C1180 1.448 . S
C1186 C1185 1.328 . S
C1186 H1201 0.930 . S
Tb1187 N1178 2.617 . S
Tb1187 N1188 2.572 . S
Tb1187 O1222 2.349 . S
Tb1187 O1225 2.393 . S
Tb1187 O1226 2.465 . S
Tb1187 O1227 2.387 . S
Tb1187 O1229 2.428 . S
Tb1187 O1230 2.308 . S
Tb1187 C1251 2.802 . S
N1188 C1184 1.361 . S
N1188 Tb1187 2.572 . S
N1188 C1190 1.340 . S
C1189 C1183 1.416 . S
C1189 C1191 1.332 . S
C1189 H1197 0.931 . S
C1190 N1188 1.340 . S
C1190 C1191 1.407 . S
C1190 H1196 0.930 . S
C1191 C1189 1.332 . S
C1191 C1190 1.407 . S
C1191 H1193 0.929 . S
H1192 C1181 0.930 . S
H1193 C1191 0.929 . S
H1194 C1209 0.930 . S
H1195 C1216 0.929 . S
H1196 C1190 0.930 . S
H1197 C1189 0.931 . S
H1198 C1212 0.930 . S
H1199 C1179 0.930 . S
H1200 C1185 0.929 . S
H1201 C1186 0.930 . S
H1202 C1207 0.930 . S
H1203 C1182 0.930 . S
H1204 C1215 0.931 . S
N1205 Tb1176 2.617 . S
N1205 C1206 1.379 . S
N1205 C1209 1.334 . S
C1206 N1205 1.379 . S
C1206 C1208 1.416 . S
C1206 C1214 1.424 . S
C1207 H1202 0.930 . S
C1207 C1209 1.390 . S
C1207 C1210 1.339 . S
C1208 C1206 1.416 . S
C1208 C1210 1.416 . S
C1208 C1241 1.448 . S
C1209 H1194 0.930 . S
C1209 N1205 1.334 . S
C1209 C1207 1.390 . S
C1210 C1207 1.339 . S
C1210 C1208 1.416 . S
C1210 H1217 0.930 . S
N1211 Tb1176 2.572 . S
N1211 C1212 1.340 . S
N1211 C1214 1.361 . S
C1212 H1198 0.930 . S
C1212 N1211 1.340 . S
C1212 C1216 1.407 . S
C1213 C1214 1.413 . S
C1213 C1215 1.416 . S
C1213 C1242 1.427 . S
C1214 C1206 1.424 . S
C1214 N1211 1.361 . S
C1214 C1213 1.413 . S
C1215 H1204 0.931 . S
C1215 C1213 1.416 . S
C1215 C1216 1.332 . S
C1216 H1195 0.929 . S
C1216 C1212 1.407 . S
C1216 C1215 1.332 . S
H1217 C1210 0.930 . S
H1218 C1241 0.930 . S
H1219 C1242 0.929 . S
O1220 Tb1176 2.465 . S
O1220 C1240 1.264 . S
O1221 Tb1176 2.387 . S
O1221 C1232 1.264 . S
O1222 Tb1187 2.349 . S
O1222 C1232 1.243 . S
O1223 Tb1176 2.428 . S
O1223 C1240 1.256 . S
O1224 Tb1176 2.308 . S
O1224 C1239 1.266 . S
O1225 Tb1187 2.393 . S
O1225 C1239 1.248 . S
O1226 Tb1187 2.465 . S
O1226 C1251 1.264 . S
O1227 Tb1187 2.387 . S
O1227 C1243 1.264 . S
O1228 Tb1176 2.349 . S
O1228 C1243 1.243 . S
O1229 Tb1187 2.428 . S
O1229 C1251 1.256 . S
O1230 Tb1187 2.308 . S
O1230 C1250 1.266 . S
O1231 Tb1176 2.393 . S
O1231 C1250 1.248 . S
C1232 O1221 1.264 . S
C1232 O1222 1.243 . S
C1233 C1236 1.399 . S
C1233 C1238 1.383 . S
C1233 C1240 1.496 . S
C1234 C1235 1.399 . S
C1234 C1238 1.389 . S
C1235 C1234 1.399 . S
C1235 C1237 1.380 . S
C1235 H1252 0.929 . S
C1236 C1233 1.399 . S
C1236 C1237 1.392 . S
C1236 H1253 0.929 . S
C1237 C1235 1.380 . S
C1237 C1236 1.392 . S
C1237 H1254 0.929 . S
C1238 C1233 1.383 . S
C1238 C1234 1.389 . S
C1238 H1255 0.931 . S
C1239 O1224 1.266 . S
C1239 O1225 1.248 . S
C1240 Tb1176 2.802 . S
C1240 O1220 1.264 . S
C1240 O1223 1.256 . S
C1240 C1233 1.496 . S
C1241 C1208 1.448 . S
C1241 H1218 0.930 . S
C1241 C1242 1.328 . S
C1242 C1213 1.427 . S
C1242 H1219 0.929 . S
C1242 C1241 1.328 . S
C1243 O1227 1.264 . S
C1243 O1228 1.243 . S
C1244 C1247 1.399 . S
C1244 C1248 1.383 . S
C1244 C1251 1.496 . S
C1245 C1246 1.399 . S
C1245 C1248 1.389 . S
C1246 C1245 1.399 . S
C1246 C1249 1.380 . S
C1246 H1256 0.929 . S
C1247 C1244 1.399 . S
C1247 C1249 1.392 . S
C1247 H1257 0.929 . S
C1248 C1244 1.383 . S
C1248 C1245 1.389 . S
C1248 H1258 0.931 . S
C1249 C1246 1.380 . S
C1249 C1247 1.392 . S
C1249 H1259 0.929 . S
C1250 O1230 1.266 . S
C1250 O1231 1.248 . S
C1251 Tb1187 2.802 . S
C1251 O1226 1.264 . S
C1251 O1229 1.256 . S
C1251 C1244 1.496 . S
H1252 C1235 0.929 . S
H1253 C1236 0.929 . S
H1254 C1237 0.929 . S
H1255 C1238 0.931 . S
H1256 C1246 0.929 . S
H1257 C1247 0.929 . S
H1258 C1248 0.931 . S
H1259 C1249 0.929 . S
Tb1260 N1289 2.617 . S
Tb1260 N1295 2.572 . S
Tb1260 O1304 2.465 1_554 S
Tb1260 O1305 2.387 . S
Tb1260 O1307 2.428 1_554 S
Tb1260 O1308 2.308 . S
Tb1260 O1312 2.349 1_554 S
Tb1260 O1315 2.393 . S
Tb1260 C1324 2.802 1_554 S
C1261 N1262 1.379 . S
C1261 C1264 1.416 . S
C1261 C1268 1.424 . S
N1262 C1261 1.379 . S
N1262 C1265 1.334 . S
N1262 Tb1271 2.617 1_556 S
C1263 C1265 1.390 . S
C1263 C1266 1.339 . S
C1263 H1283 0.930 . S
C1264 C1261 1.416 . S
C1264 C1266 1.416 . S
C1264 C1270 1.448 . S
C1265 N1262 1.334 . S
C1265 C1263 1.390 . S
C1265 H1276 0.930 . S
C1266 C1263 1.339 . S
C1266 C1264 1.416 . S
C1266 H1287 0.930 . S
C1267 C1268 1.413 . S
C1267 C1269 1.427 . S
C1267 C1273 1.416 . S
C1268 C1261 1.424 . S
C1268 C1267 1.413 . S
C1268 N1272 1.361 . S
C1269 C1267 1.427 . S
C1269 C1270 1.328 . S
C1269 H1284 0.929 . S
C1270 C1264 1.448 . S
C1270 C1269 1.328 . S
C1270 H1285 0.930 . S
Tb1271 N1262 2.617 1_554 S
Tb1271 N1272 2.572 1_554 S
Tb1271 O1306 2.349 . S
Tb1271 O1309 2.393 . S
Tb1271 O1310 2.465 . S
Tb1271 O1311 2.387 1_554 S
Tb1271 O1313 2.428 . S
Tb1271 O1314 2.308 . S
Tb1271 C1335 2.802 . S
N1272 C1268 1.361 . S
N1272 Tb1271 2.572 1_556 S
N1272 C1274 1.340 1_556 S
C1273 C1267 1.416 . S
C1273 C1275 1.332 . S
C1273 H1281 0.931 . S
C1274 N1272 1.340 1_554 S
C1274 C1275 1.407 1_554 S
C1274 H1280 0.930 . S
C1275 C1273 1.332 . S
C1275 C1274 1.407 1_556 S
C1275 H1277 0.929 . S
H1276 C1265 0.930 . S
H1277 C1275 0.929 . S
H1278 C1293 0.930 . S
H1279 C1300 0.929 . S
H1280 C1274 0.930 . S
H1281 C1273 0.931 . S
H1282 C1296 0.930 . S
H1283 C1263 0.930 . S
H1284 C1269 0.929 . S
H1285 C1270 0.930 . S
H1286 C1291 0.930 . S
H1287 C1266 0.930 . S
H1288 C1299 0.931 1_545 S
N1289 Tb1260 2.617 . S
N1289 C1290 1.379 . S
N1289 C1293 1.334 . S
C1290 N1289 1.379 . S
C1290 C1292 1.416 . S
C1290 C1298 1.424 . S
C1291 H1286 0.930 . S
C1291 C1293 1.390 . S
C1291 C1294 1.339 . S
C1292 C1290 1.416 . S
C1292 C1294 1.416 . S
C1292 C1325 1.448 1_565 S
C1293 H1278 0.930 . S
C1293 N1289 1.334 . S
C1293 C1291 1.390 . S
C1294 C1291 1.339 . S
C1294 C1292 1.416 . S
C1294 H1301 0.930 1_565 S
N1295 Tb1260 2.572 . S
N1295 C1296 1.340 . S
N1295 C1298 1.361 . S
C1296 H1282 0.930 . S
C1296 N1295 1.340 . S
C1296 C1300 1.407 . S
C1297 C1298 1.413 . S
C1297 C1299 1.416 . S
C1297 C1326 1.427 1_565 S
C1298 C1290 1.424 . S
C1298 N1295 1.361 . S
C1298 C1297 1.413 . S
C1299 H1288 0.931 1_565 S
C1299 C1297 1.416 . S
C1299 C1300 1.332 . S
C1300 H1279 0.929 . S
C1300 C1296 1.407 . S
C1300 C1299 1.332 . S
H1301 C1294 0.930 1_545 S
H1302 C1325 0.930 . S
H1303 C1326 0.929 . S
O1304 Tb1260 2.465 1_556 S
O1304 C1324 1.264 . S
O1305 Tb1260 2.387 . S
O1305 C1316 1.264 . S
O1306 Tb1271 2.349 . S
O1306 C1316 1.243 . S
O1307 Tb1260 2.428 1_556 S
O1307 C1324 1.256 . S
O1308 Tb1260 2.308 . S
O1308 C1323 1.266 1_554 S
O1309 Tb1271 2.393 . S
O1309 C1323 1.248 1_554 S
O1310 Tb1271 2.465 . S
O1310 C1335 1.264 . S
O1311 Tb1271 2.387 1_556 S
O1311 C1327 1.264 . S
O1312 Tb1260 2.349 1_556 S
O1312 C1327 1.243 . S
O1313 Tb1271 2.428 . S
O1313 C1335 1.256 . S
O1314 Tb1271 2.308 . S
O1314 C1334 1.266 . S
O1315 Tb1260 2.393 . S
O1315 C1334 1.248 . S
C1316 O1305 1.264 . S
C1316 O1306 1.243 . S
C1317 C1320 1.399 1_565 S
C1317 C1322 1.382 1_565 S
C1317 C1324 1.496 . S
C1318 C1319 1.399 . S
C1318 C1322 1.393 . S
C1319 C1318 1.399 . S
C1319 C1321 1.380 . S
C1319 H1336 0.929 . S
C1320 C1317 1.399 1_545 S
C1320 C1321 1.392 . S
C1320 H1337 0.929 . S
C1321 C1319 1.380 . S
C1321 C1320 1.392 . S
C1321 H1338 0.929 . S
C1322 C1317 1.382 1_545 S
C1322 C1318 1.393 . S
C1322 H1339 0.928 1_545 S
C1323 O1308 1.266 1_556 S
C1323 O1309 1.248 1_556 S
C1324 Tb1260 2.802 1_556 S
C1324 O1304 1.264 . S
C1324 O1307 1.256 . S
C1324 C1317 1.496 . S
C1325 C1292 1.448 1_545 S
C1325 H1302 0.930 . S
C1325 C1326 1.328 . S
C1326 C1297 1.427 1_545 S
C1326 H1303 0.929 . S
C1326 C1325 1.328 . S
C1327 O1311 1.264 . S
C1327 O1312 1.243 . S
C1328 C1331 1.399 . S
C1328 C1332 1.383 . S
C1328 C1335 1.496 . S
C1329 C1330 1.399 . S
C1329 C1332 1.389 . S
C1330 C1329 1.399 . S
C1330 C1333 1.380 . S
C1330 H1340 0.929 . S
C1331 C1328 1.399 . S
C1331 C1333 1.392 . S
C1331 H1341 0.929 . S
C1332 C1328 1.383 . S
C1332 C1329 1.389 . S
C1332 H1342 0.931 . S
C1333 C1330 1.380 . S
C1333 C1331 1.392 . S
C1333 H1343 0.929 . S
C1334 O1314 1.266 . S
C1334 O1315 1.248 . S
C1335 Tb1271 2.802 . S
C1335 O1310 1.264 . S
C1335 O1313 1.256 . S
C1335 C1328 1.496 . S
H1336 C1319 0.929 . S
H1337 C1320 0.929 . S
H1338 C1321 0.929 . S
H1339 C1322 0.928 1_565 S
H1340 C1330 0.929 . S
H1341 C1331 0.929 . S
H1342 C1332 0.931 . S
H1343 C1333 0.929 . S
Tb1344 N1373 2.617 . S
Tb1344 N1379 2.572 . S
Tb1344 O1388 2.465 . S
Tb1344 O1389 2.387 . S
Tb1344 O1391 2.428 . S
Tb1344 O1392 2.308 . S
Tb1344 O1396 2.349 . S
Tb1344 O1399 2.393 . S
Tb1344 C1408 2.802 . S
C1345 N1346 1.379 . S
C1345 C1348 1.416 . S
C1345 C1352 1.424 . S
N1346 C1345 1.379 . S
N1346 C1349 1.334 . S
N1346 Tb1355 2.617 . S
C1347 C1349 1.390 . S
C1347 C1350 1.339 . S
C1347 H1367 0.930 . S
C1348 C1345 1.416 . S
C1348 C1350 1.416 . S
C1348 C1354 1.448 . S
C1349 N1346 1.334 . S
C1349 C1347 1.390 . S
C1349 H1360 0.930 . S
C1350 C1347 1.339 . S
C1350 C1348 1.416 . S
C1350 H1371 0.930 . S
C1351 C1352 1.413 . S
C1351 C1353 1.427 . S
C1351 C1357 1.416 . S
C1352 C1345 1.424 . S
C1352 C1351 1.413 . S
C1352 N1356 1.361 . S
C1353 C1351 1.427 . S
C1353 C1354 1.328 . S
C1353 H1368 0.929 . S
C1354 C1348 1.448 . S
C1354 C1353 1.328 . S
C1354 H1369 0.930 . S
Tb1355 N1346 2.617 . S
Tb1355 N1356 2.572 . S
Tb1355 O1390 2.349 . S
Tb1355 O1393 2.393 . S
Tb1355 O1394 2.465 . S
Tb1355 O1395 2.387 . S
Tb1355 O1397 2.428 . S
Tb1355 O1398 2.308 . S
Tb1355 C1419 2.802 . S
N1356 C1352 1.361 . S
N1356 Tb1355 2.572 . S
N1356 C1358 1.340 . S
C1357 C1351 1.416 . S
C1357 C1359 1.332 . S
C1357 H1365 0.931 . S
C1358 N1356 1.340 . S
C1358 C1359 1.407 . S
C1358 H1364 0.930 . S
C1359 C1357 1.332 . S
C1359 C1358 1.407 . S
C1359 H1361 0.929 . S
H1360 C1349 0.930 . S
H1361 C1359 0.929 . S
H1362 C1377 0.930 . S
H1363 C1384 0.929 . S
H1364 C1358 0.930 . S
H1365 C1357 0.931 . S
H1366 C1380 0.930 . S
H1367 C1347 0.930 . S
H1368 C1353 0.929 . S
H1369 C1354 0.930 . S
H1370 C1375 0.930 . S
H1371 C1350 0.930 . S
H1372 C1383 0.931 . S
N1373 Tb1344 2.617 . S
N1373 C1374 1.379 . S
N1373 C1377 1.334 . S
C1374 N1373 1.379 . S
C1374 C1376 1.416 . S
C1374 C1382 1.424 . S
C1375 H1370 0.930 . S
C1375 C1377 1.390 . S
C1375 C1378 1.339 . S
C1376 C1374 1.416 . S
C1376 C1378 1.416 . S
C1376 C1409 1.448 . S
C1377 H1362 0.930 . S
C1377 N1373 1.334 . S
C1377 C1375 1.390 . S
C1378 C1375 1.339 . S
C1378 C1376 1.416 . S
C1378 H1385 0.930 . S
N1379 Tb1344 2.572 . S
N1379 C1380 1.340 . S
N1379 C1382 1.361 . S
C1380 H1366 0.930 . S
C1380 N1379 1.340 . S
C1380 C1384 1.407 . S
C1381 C1382 1.413 . S
C1381 C1383 1.416 . S
C1381 C1410 1.427 . S
C1382 C1374 1.424 . S
C1382 N1379 1.361 . S
C1382 C1381 1.413 . S
C1383 H1372 0.931 . S
C1383 C1381 1.416 . S
C1383 C1384 1.332 . S
C1384 H1363 0.929 . S
C1384 C1380 1.407 . S
C1384 C1383 1.332 . S
H1385 C1378 0.930 . S
H1386 C1409 0.930 . S
H1387 C1410 0.929 . S
O1388 Tb1344 2.465 . S
O1388 C1408 1.264 . S
O1389 Tb1344 2.387 . S
O1389 C1400 1.264 . S
O1390 Tb1355 2.349 . S
O1390 C1400 1.243 . S
O1391 Tb1344 2.428 . S
O1391 C1408 1.256 . S
O1392 Tb1344 2.308 . S
O1392 C1407 1.266 . S
O1393 Tb1355 2.393 . S
O1393 C1407 1.248 . S
O1394 Tb1355 2.465 . S
O1394 C1419 1.264 . S
O1395 Tb1355 2.387 . S
O1395 C1411 1.264 . S
O1396 Tb1344 2.349 . S
O1396 C1411 1.243 . S
O1397 Tb1355 2.428 . S
O1397 C1419 1.256 . S
O1398 Tb1355 2.308 . S
O1398 C1418 1.266 . S
O1399 Tb1344 2.393 . S
O1399 C1418 1.248 . S
C1400 O1389 1.264 . S
C1400 O1390 1.243 . S
C1401 C1404 1.399 . S
C1401 C1406 1.383 . S
C1401 C1408 1.496 . S
C1402 C1403 1.399 . S
C1402 C1406 1.389 . S
C1403 C1402 1.399 . S
C1403 C1405 1.380 . S
C1403 H1420 0.929 . S
C1404 C1401 1.399 . S
C1404 C1405 1.392 . S
C1404 H1421 0.929 . S
C1405 C1403 1.380 . S
C1405 C1404 1.392 . S
C1405 H1422 0.929 . S
C1406 C1401 1.383 . S
C1406 C1402 1.389 . S
C1406 H1423 0.931 . S
C1407 O1392 1.266 . S
C1407 O1393 1.248 . S
C1408 Tb1344 2.802 . S
C1408 O1388 1.264 . S
C1408 O1391 1.256 . S
C1408 C1401 1.496 . S
C1409 C1376 1.448 . S
C1409 H1386 0.930 . S
C1409 C1410 1.328 . S
C1410 C1381 1.427 . S
C1410 H1387 0.929 . S
C1410 C1409 1.328 . S
C1411 O1395 1.264 . S
C1411 O1396 1.243 . S
C1412 C1415 1.399 . S
C1412 C1416 1.383 . S
C1412 C1419 1.496 . S
C1413 C1414 1.399 . S
C1413 C1416 1.389 . S
C1414 C1413 1.399 . S
C1414 C1417 1.380 . S
C1414 H1424 0.929 . S
C1415 C1412 1.399 . S
C1415 C1417 1.392 . S
C1415 H1425 0.929 . S
C1416 C1412 1.383 . S
C1416 C1413 1.389 . S
C1416 H1426 0.931 . S
C1417 C1414 1.380 . S
C1417 C1415 1.392 . S
C1417 H1427 0.929 . S
C1418 O1398 1.266 . S
C1418 O1399 1.248 . S
C1419 Tb1355 2.802 . S
C1419 O1394 1.264 . S
C1419 O1397 1.256 . S
C1419 C1412 1.496 . S
H1420 C1403 0.929 . S
H1421 C1404 0.929 . S
H1422 C1405 0.929 . S
H1423 C1406 0.931 . S
H1424 C1414 0.929 . S
H1425 C1415 0.929 . S
H1426 C1416 0.931 . S
H1427 C1417 0.929 . S
Tb1428 N1457 2.617 1_554 S
Tb1428 N1463 2.572 1_554 S
Tb1428 O1472 2.465 . S
Tb1428 O1473 2.387 1_554 S
Tb1428 O1475 2.428 . S
Tb1428 O1476 2.308 . S
Tb1428 O1480 2.349 . S
Tb1428 O1483 2.393 . S
Tb1428 C1492 2.802 . S
C1429 N1430 1.379 . S
C1429 C1432 1.416 . S
C1429 C1436 1.424 . S
N1430 C1429 1.379 . S
N1430 C1433 1.334 . S
N1430 Tb1439 2.617 . S
C1431 C1433 1.390 . S
C1431 C1434 1.339 . S
C1431 H1451 0.930 . S
C1432 C1429 1.416 . S
C1432 C1434 1.416 . S
C1432 C1438 1.448 . S
C1433 N1430 1.334 . S
C1433 C1431 1.390 . S
C1433 H1444 0.930 . S
C1434 C1431 1.339 . S
C1434 C1432 1.416 . S
C1434 H1455 0.930 . S
C1435 C1436 1.413 . S
C1435 C1437 1.427 . S
C1435 C1441 1.416 . S
C1436 C1429 1.424 . S
C1436 C1435 1.413 . S
C1436 N1440 1.361 . S
C1437 C1435 1.427 . S
C1437 C1438 1.328 . S
C1437 H1452 0.929 . S
C1438 C1432 1.448 . S
C1438 C1437 1.328 . S
C1438 H1453 0.930 . S
Tb1439 N1430 2.617 . S
Tb1439 N1440 2.572 . S
Tb1439 O1474 2.349 1_554 S
Tb1439 O1477 2.393 . S
Tb1439 O1478 2.465 1_554 S
Tb1439 O1479 2.387 . S
Tb1439 O1481 2.428 1_554 S
Tb1439 O1482 2.308 . S
Tb1439 C1503 2.802 1_554 S
N1440 C1436 1.361 . S
N1440 Tb1439 2.572 . S
N1440 C1442 1.340 . S
C1441 C1435 1.416 . S
C1441 C1443 1.332 . S
C1441 H1449 0.931 . S
C1442 N1440 1.340 . S
C1442 C1443 1.407 . S
C1442 H1448 0.930 . S
C1443 C1441 1.332 . S
C1443 C1442 1.407 . S
C1443 H1445 0.929 . S
H1444 C1433 0.930 . S
H1445 C1443 0.929 . S
H1446 C1461 0.930 . S
H1447 C1468 0.929 . S
H1448 C1442 0.930 . S
H1449 C1441 0.931 . S
H1450 C1464 0.930 . S
H1451 C1431 0.930 . S
H1452 C1437 0.929 . S
H1453 C1438 0.930 . S
H1454 C1459 0.930 . S
H1455 C1434 0.930 . S
H1456 C1467 0.931 . S
N1457 Tb1428 2.617 1_556 S
N1457 C1458 1.379 . S
N1457 C1461 1.334 . S
C1458 N1457 1.379 . S
C1458 C1460 1.416 . S
C1458 C1466 1.424 . S
C1459 H1454 0.930 . S
C1459 C1461 1.390 . S
C1459 C1462 1.339 . S
C1460 C1458 1.416 . S
C1460 C1462 1.416 . S
C1460 C1493 1.448 . S
C1461 H1446 0.930 . S
C1461 N1457 1.334 . S
C1461 C1459 1.390 . S
C1462 C1459 1.339 . S
C1462 C1460 1.416 . S
C1462 H1469 0.930 . S
N1463 Tb1428 2.572 1_556 S
N1463 C1464 1.340 1_556 S
N1463 C1466 1.361 . S
C1464 H1450 0.930 . S
C1464 N1463 1.340 1_554 S
C1464 C1468 1.407 1_554 S
C1465 C1466 1.413 . S
C1465 C1467 1.416 . S
C1465 C1494 1.427 . S
C1466 C1458 1.424 . S
C1466 N1463 1.361 . S
C1466 C1465 1.413 . S
C1467 H1456 0.931 . S
C1467 C1465 1.416 . S
C1467 C1468 1.332 . S
C1468 H1447 0.929 . S
C1468 C1464 1.407 1_556 S
C1468 C1467 1.332 . S
H1469 C1462 0.930 . S
H1470 C1493 0.930 . S
H1471 C1494 0.929 . S
O1472 Tb1428 2.465 . S
O1472 C1492 1.264 . S
O1473 Tb1428 2.387 1_556 S
O1473 C1484 1.264 . S
O1474 Tb1439 2.349 1_556 S
O1474 C1484 1.243 . S
O1475 Tb1428 2.428 . S
O1475 C1492 1.256 . S
O1476 Tb1428 2.308 . S
O1476 C1491 1.266 . S
O1477 Tb1439 2.393 . S
O1477 C1491 1.248 . S
O1478 Tb1439 2.465 1_556 S
O1478 C1503 1.264 . S
O1479 Tb1439 2.387 . S
O1479 C1495 1.264 . S
O1480 Tb1428 2.349 . S
O1480 C1495 1.243 . S
O1481 Tb1439 2.428 1_556 S
O1481 C1503 1.256 . S
O1482 Tb1439 2.308 . S
O1482 C1502 1.266 1_554 S
O1483 Tb1428 2.393 . S
O1483 C1502 1.248 1_554 S
C1484 O1473 1.264 . S
C1484 O1474 1.243 . S
C1485 C1488 1.399 . S
C1485 C1490 1.383 . S
C1485 C1492 1.496 . S
C1486 C1487 1.399 . S
C1486 C1490 1.389 . S
C1487 C1486 1.399 . S
C1487 C1489 1.380 . S
C1487 H1504 0.929 . S
C1488 C1485 1.399 . S
C1488 C1489 1.392 . S
C1488 H1505 0.929 . S
C1489 C1487 1.380 . S
C1489 C1488 1.392 . S
C1489 H1506 0.929 . S
C1490 C1485 1.383 . S
C1490 C1486 1.389 . S
C1490 H1507 0.931 . S
C1491 O1476 1.266 . S
C1491 O1477 1.248 . S
C1492 Tb1428 2.802 . S
C1492 O1472 1.264 . S
C1492 O1475 1.256 . S
C1492 C1485 1.496 . S
C1493 C1460 1.448 . S
C1493 H1470 0.930 . S
C1493 C1494 1.328 . S
C1494 C1465 1.427 . S
C1494 H1471 0.929 . S
C1494 C1493 1.328 . S
C1495 O1479 1.264 . S
C1495 O1480 1.243 . S
C1496 C1499 1.399 . S
C1496 C1500 1.383 . S
C1496 C1503 1.496 . S
C1497 C1498 1.399 . S
C1497 C1500 1.389 . S
C1498 C1497 1.399 . S
C1498 C1501 1.380 . S
C1498 H1508 0.929 . S
C1499 C1496 1.399 . S
C1499 C1501 1.392 . S
C1499 H1509 0.929 . S
C1500 C1496 1.383 . S
C1500 C1497 1.389 . S
C1500 H1510 0.931 . S
C1501 C1498 1.380 . S
C1501 C1499 1.392 . S
C1501 H1511 0.929 . S
C1502 O1482 1.266 1_556 S
C1502 O1483 1.248 1_556 S
C1503 Tb1439 2.802 1_556 S
C1503 O1478 1.264 . S
C1503 O1481 1.256 . S
C1503 C1496 1.496 . S
H1504 C1487 0.929 . S
H1505 C1488 0.929 . S
H1506 C1489 0.929 . S
H1507 C1490 0.931 . S
H1508 C1498 0.929 . S
H1509 C1499 0.929 . S
H1510 C1500 0.931 . S
H1511 C1501 0.929 . S
Tb1512 N1541 2.617 . S
Tb1512 N1547 2.572 . S
Tb1512 O1556 2.465 . S
Tb1512 O1557 2.387 . S
Tb1512 O1559 2.428 . S
Tb1512 O1560 2.308 . S
Tb1512 O1564 2.349 . S
Tb1512 O1567 2.393 . S
Tb1512 C1576 2.802 . S
C1513 N1514 1.379 . S
C1513 C1516 1.416 . S
C1513 C1520 1.424 . S
N1514 C1513 1.379 . S
N1514 C1517 1.334 . S
N1514 Tb1523 2.617 . S
C1515 C1517 1.390 . S
C1515 C1518 1.339 . S
C1515 H1535 0.930 . S
C1516 C1513 1.416 . S
C1516 C1518 1.416 . S
C1516 C1522 1.448 . S
C1517 N1514 1.334 . S
C1517 C1515 1.390 . S
C1517 H1528 0.930 . S
C1518 C1515 1.339 . S
C1518 C1516 1.416 . S
C1518 H1539 0.930 . S
C1519 C1520 1.413 . S
C1519 C1521 1.427 . S
C1519 C1525 1.416 . S
C1520 C1513 1.424 . S
C1520 C1519 1.413 . S
C1520 N1524 1.361 . S
C1521 C1519 1.427 . S
C1521 C1522 1.328 . S
C1521 H1536 0.929 . S
C1522 C1516 1.448 . S
C1522 C1521 1.328 . S
C1522 H1537 0.930 . S
Tb1523 N1514 2.617 . S
Tb1523 N1524 2.572 . S
Tb1523 O1558 2.349 . S
Tb1523 O1561 2.393 . S
Tb1523 O1562 2.465 . S
Tb1523 O1563 2.387 . S
Tb1523 O1565 2.428 . S
Tb1523 O1566 2.308 . S
Tb1523 C1587 2.802 . S
N1524 C1520 1.361 . S
N1524 Tb1523 2.572 . S
N1524 C1526 1.340 . S
C1525 C1519 1.416 . S
C1525 C1527 1.332 . S
C1525 H1533 0.931 . S
C1526 N1524 1.340 . S
C1526 C1527 1.407 . S
C1526 H1532 0.930 . S
C1527 C1525 1.332 . S
C1527 C1526 1.407 . S
C1527 H1529 0.929 . S
H1528 C1517 0.930 . S
H1529 C1527 0.929 . S
H1530 C1545 0.930 . S
H1531 C1552 0.929 . S
H1532 C1526 0.930 . S
H1533 C1525 0.931 . S
H1534 C1548 0.930 . S
H1535 C1515 0.930 . S
H1536 C1521 0.929 . S
H1537 C1522 0.930 . S
H1538 C1543 0.930 . S
H1539 C1518 0.930 . S
H1540 C1551 0.931 . S
N1541 Tb1512 2.617 . S
N1541 C1542 1.379 . S
N1541 C1545 1.334 . S
C1542 N1541 1.379 . S
C1542 C1544 1.416 . S
C1542 C1550 1.424 . S
C1543 H1538 0.930 . S
C1543 C1545 1.390 . S
C1543 C1546 1.339 . S
C1544 C1542 1.416 . S
C1544 C1546 1.416 . S
C1544 C1577 1.448 . S
C1545 H1530 0.930 . S
C1545 N1541 1.334 . S
C1545 C1543 1.390 . S
C1546 C1543 1.339 . S
C1546 C1544 1.416 . S
C1546 H1553 0.930 . S
N1547 Tb1512 2.572 . S
N1547 C1548 1.340 . S
N1547 C1550 1.361 . S
C1548 H1534 0.930 . S
C1548 N1547 1.340 . S
C1548 C1552 1.407 . S
C1549 C1550 1.413 . S
C1549 C1551 1.416 . S
C1549 C1578 1.427 . S
C1550 C1542 1.424 . S
C1550 N1547 1.361 . S
C1550 C1549 1.413 . S
C1551 H1540 0.931 . S
C1551 C1549 1.416 . S
C1551 C1552 1.332 . S
C1552 H1531 0.929 . S
C1552 C1548 1.407 . S
C1552 C1551 1.332 . S
H1553 C1546 0.930 . S
H1554 C1577 0.930 1_455 S
H1555 C1578 0.929 1_455 S
O1556 Tb1512 2.465 . S
O1556 C1576 1.264 . S
O1557 Tb1512 2.387 . S
O1557 C1568 1.264 . S
O1558 Tb1523 2.349 . S
O1558 C1568 1.243 . S
O1559 Tb1512 2.428 . S
O1559 C1576 1.256 . S
O1560 Tb1512 2.308 . S
O1560 C1575 1.266 . S
O1561 Tb1523 2.393 . S
O1561 C1575 1.248 . S
O1562 Tb1523 2.465 . S
O1562 C1587 1.264 . S
O1563 Tb1523 2.387 . S
O1563 C1579 1.264 . S
O1564 Tb1512 2.349 . S
O1564 C1579 1.243 . S
O1565 Tb1523 2.428 . S
O1565 C1587 1.256 . S
O1566 Tb1523 2.308 . S
O1566 C1586 1.266 . S
O1567 Tb1512 2.393 . S
O1567 C1586 1.248 . S
C1568 O1557 1.264 . S
C1568 O1558 1.243 . S
C1569 C1572 1.399 . S
C1569 C1574 1.383 . S
C1569 C1576 1.496 . S
C1570 C1571 1.399 . S
C1570 C1574 1.389 1_455 S
C1571 C1570 1.399 . S
C1571 C1573 1.380 . S
C1571 H1588 0.929 . S
C1572 C1569 1.399 . S
C1572 C1573 1.392 1_655 S
C1572 H1589 0.929 . S
C1573 C1571 1.380 . S
C1573 C1572 1.392 1_455 S
C1573 H1590 0.929 . S
C1574 C1569 1.383 . S
C1574 C1570 1.389 1_655 S
C1574 H1591 0.931 . S
C1575 O1560 1.266 . S
C1575 O1561 1.248 . S
C1576 Tb1512 2.802 . S
C1576 O1556 1.264 . S
C1576 O1559 1.256 . S
C1576 C1569 1.496 . S
C1577 C1544 1.448 . S
C1577 H1554 0.930 1_655 S
C1577 C1578 1.328 . S
C1578 C1549 1.427 . S
C1578 H1555 0.929 1_655 S
C1578 C1577 1.328 . S
C1579 O1563 1.264 . S
C1579 O1564 1.243 . S
C1580 C1583 1.399 . S
C1580 C1584 1.383 . S
C1580 C1587 1.496 . S
C1581 C1582 1.399 . S
C1581 C1584 1.389 . S
C1582 C1581 1.399 . S
C1582 C1585 1.380 . S
C1582 H1592 0.929 . S
C1583 C1580 1.399 . S
C1583 C1585 1.392 . S
C1583 H1593 0.929 . S
C1584 C1580 1.383 . S
C1584 C1581 1.389 . S
C1584 H1594 0.931 . S
C1585 C1582 1.380 . S
C1585 C1583 1.392 . S
C1585 H1595 0.929 . S
C1586 O1566 1.266 . S
C1586 O1567 1.248 . S
C1587 Tb1523 2.802 . S
C1587 O1562 1.264 . S
C1587 O1565 1.256 . S
C1587 C1580 1.496 . S
H1588 C1571 0.929 . S
H1589 C1572 0.929 . S
H1590 C1573 0.929 . S
H1591 C1574 0.931 . S
H1592 C1582 0.929 . S
H1593 C1583 0.929 . S
H1594 C1584 0.931 . S
H1595 C1585 0.929 . S
Tb1596 N1625 2.617 . S
Tb1596 N1631 2.572 . S
Tb1596 O1640 2.465 . S
Tb1596 O1641 2.387 . S
Tb1596 O1643 2.428 . S
Tb1596 O1644 2.308 . S
Tb1596 O1648 2.349 . S
Tb1596 O1651 2.393 . S
Tb1596 C1660 2.802 . S
C1597 N1598 1.379 . S
C1597 C1600 1.416 . S
C1597 C1604 1.424 . S
N1598 C1597 1.379 . S
N1598 C1601 1.334 . S
N1598 Tb1607 2.617 . S
C1599 C1601 1.390 . S
C1599 C1602 1.339 . S
C1599 H1619 0.930 . S
C1600 C1597 1.416 . S
C1600 C1602 1.416 . S
C1600 C1606 1.448 . S
C1601 N1598 1.334 . S
C1601 C1599 1.390 . S
C1601 H1612 0.930 . S
C1602 C1599 1.339 . S
C1602 C1600 1.416 . S
C1602 H1623 0.930 . S
C1603 C1604 1.413 . S
C1603 C1605 1.427 . S
C1603 C1609 1.416 . S
C1604 C1597 1.424 . S
C1604 C1603 1.413 . S
C1604 N1608 1.361 . S
C1605 C1603 1.427 . S
C1605 C1606 1.328 . S
C1605 H1620 0.929 . S
C1606 C1600 1.448 . S
C1606 C1605 1.328 . S
C1606 H1621 0.930 . S
Tb1607 N1598 2.617 . S
Tb1607 N1608 2.572 . S
Tb1607 O1642 2.349 . S
Tb1607 O1645 2.393 . S
Tb1607 O1646 2.465 . S
Tb1607 O1647 2.387 . S
Tb1607 O1649 2.428 . S
Tb1607 O1650 2.308 . S
Tb1607 C1671 2.802 . S
N1608 C1604 1.361 . S
N1608 Tb1607 2.572 . S
N1608 C1610 1.340 . S
C1609 C1603 1.416 . S
C1609 C1611 1.332 . S
C1609 H1617 0.931 . S
C1610 N1608 1.340 . S
C1610 C1611 1.407 . S
C1610 H1616 0.930 . S
C1611 C1609 1.332 . S
C1611 C1610 1.407 . S
C1611 H1613 0.929 . S
H1612 C1601 0.930 . S
H1613 C1611 0.929 . S
H1614 C1629 0.930 . S
H1615 C1636 0.929 . S
H1616 C1610 0.930 . S
H1617 C1609 0.931 . S
H1618 C1632 0.930 . S
H1619 C1599 0.930 . S
H1620 C1605 0.929 . S
H1621 C1606 0.930 . S
H1622 C1627 0.930 . S
H1623 C1602 0.930 . S
H1624 C1635 0.931 . S
N1625 Tb1596 2.617 . S
N1625 C1626 1.379 . S
N1625 C1629 1.334 . S
C1626 N1625 1.379 . S
C1626 C1628 1.416 . S
C1626 C1634 1.424 . S
C1627 H1622 0.930 . S
C1627 C1629 1.390 . S
C1627 C1630 1.339 . S
C1628 C1626 1.416 . S
C1628 C1630 1.416 . S
C1628 C1661 1.448 . S
C1629 H1614 0.930 . S
C1629 N1625 1.334 . S
C1629 C1627 1.390 . S
C1630 C1627 1.339 . S
C1630 C1628 1.416 . S
C1630 H1637 0.930 . S
N1631 Tb1596 2.572 . S
N1631 C1632 1.340 . S
N1631 C1634 1.361 . S
C1632 H1618 0.930 . S
C1632 N1631 1.340 . S
C1632 C1636 1.407 . S
C1633 C1634 1.413 . S
C1633 C1635 1.416 . S
C1633 C1662 1.427 . S
C1634 C1626 1.424 . S
C1634 N1631 1.361 . S
C1634 C1633 1.413 . S
C1635 H1624 0.931 . S
C1635 C1633 1.416 . S
C1635 C1636 1.332 . S
C1636 H1615 0.929 . S
C1636 C1632 1.407 . S
C1636 C1635 1.332 . S
H1637 C1630 0.930 . S
H1638 C1661 0.930 . S
H1639 C1662 0.929 . S
O1640 Tb1596 2.465 . S
O1640 C1660 1.264 . S
O1641 Tb1596 2.387 . S
O1641 C1652 1.264 . S
O1642 Tb1607 2.349 . S
O1642 C1652 1.243 . S
O1643 Tb1596 2.428 . S
O1643 C1660 1.256 . S
O1644 Tb1596 2.308 . S
O1644 C1659 1.266 . S
O1645 Tb1607 2.393 . S
O1645 C1659 1.248 . S
O1646 Tb1607 2.465 . S
O1646 C1671 1.264 . S
O1647 Tb1607 2.387 . S
O1647 C1663 1.264 . S
O1648 Tb1596 2.349 . S
O1648 C1663 1.243 . S
O1649 Tb1607 2.428 . S
O1649 C1671 1.256 . S
O1650 Tb1607 2.308 . S
O1650 C1670 1.266 . S
O1651 Tb1596 2.393 . S
O1651 C1670 1.248 . S
C1652 O1641 1.264 . S
C1652 O1642 1.243 . S
C1653 C1656 1.399 . S
C1653 C1658 1.383 . S
C1653 C1660 1.496 . S
C1654 C1655 1.399 . S
C1654 C1658 1.389 . S
C1655 C1654 1.399 . S
C1655 C1657 1.380 . S
C1655 H1672 0.929 . S
C1656 C1653 1.399 . S
C1656 C1657 1.392 . S
C1656 H1673 0.929 . S
C1657 C1655 1.380 . S
C1657 C1656 1.392 . S
C1657 H1674 0.929 . S
C1658 C1653 1.383 . S
C1658 C1654 1.389 . S
C1658 H1675 0.931 . S
C1659 O1644 1.266 . S
C1659 O1645 1.248 . S
C1660 Tb1596 2.802 . S
C1660 O1640 1.264 . S
C1660 O1643 1.256 . S
C1660 C1653 1.496 . S
C1661 C1628 1.448 . S
C1661 H1638 0.930 . S
C1661 C1662 1.328 . S
C1662 C1633 1.427 . S
C1662 H1639 0.929 . S
C1662 C1661 1.328 . S
C1663 O1647 1.264 . S
C1663 O1648 1.243 . S
C1664 C1667 1.399 . S
C1664 C1668 1.383 . S
C1664 C1671 1.496 . S
C1665 C1666 1.399 . S
C1665 C1668 1.389 . S
C1666 C1665 1.399 . S
C1666 C1669 1.380 . S
C1666 H1676 0.929 . S
C1667 C1664 1.399 . S
C1667 C1669 1.392 . S
C1667 H1677 0.929 . S
C1668 C1664 1.383 . S
C1668 C1665 1.389 . S
C1668 H1678 0.931 . S
C1669 C1666 1.380 . S
C1669 C1667 1.392 . S
C1669 H1679 0.929 . S
C1670 O1650 1.266 . S
C1670 O1651 1.248 . S
C1671 Tb1607 2.802 . S
C1671 O1646 1.264 . S
C1671 O1649 1.256 . S
C1671 C1664 1.496 . S
H1672 C1655 0.929 . S
H1673 C1656 0.929 . S
H1674 C1657 0.929 . S
H1675 C1658 0.931 . S
H1676 C1666 0.929 . S
H1677 C1667 0.929 . S
H1678 C1668 0.931 . S
H1679 C1669 0.929 . S
Tb1680 N1709 2.617 . S
Tb1680 N1715 2.572 . S
Tb1680 O1724 2.465 . S
Tb1680 O1725 2.387 . S
Tb1680 O1727 2.428 . S
Tb1680 O1728 2.308 . S
Tb1680 O1732 2.349 . S
Tb1680 O1735 2.393 . S
Tb1680 C1744 2.802 . S
C1681 N1682 1.379 . S
C1681 C1684 1.416 . S
C1681 C1688 1.424 . S
N1682 C1681 1.379 . S
N1682 C1685 1.334 . S
N1682 Tb1691 2.617 . S
C1683 C1685 1.390 . S
C1683 C1686 1.339 . S
C1683 H1703 0.930 . S
C1684 C1681 1.416 . S
C1684 C1686 1.416 . S
C1684 C1690 1.448 . S
C1685 N1682 1.334 . S
C1685 C1683 1.390 . S
C1685 H1696 0.930 . S
C1686 C1683 1.339 . S
C1686 C1684 1.416 . S
C1686 H1707 0.930 . S
C1687 C1688 1.413 . S
C1687 C1689 1.427 . S
C1687 C1693 1.416 . S
C1688 C1681 1.424 . S
C1688 C1687 1.413 . S
C1688 N1692 1.361 . S
C1689 C1687 1.427 . S
C1689 C1690 1.328 . S
C1689 H1704 0.929 . S
C1690 C1684 1.448 . S
C1690 C1689 1.328 . S
C1690 H1705 0.930 . S
Tb1691 N1682 2.617 . S
Tb1691 N1692 2.572 . S
Tb1691 O1726 2.349 . S
Tb1691 O1729 2.393 . S
Tb1691 O1730 2.465 . S
Tb1691 O1731 2.387 . S
Tb1691 O1733 2.428 . S
Tb1691 O1734 2.308 . S
Tb1691 C1755 2.802 . S
N1692 C1688 1.361 . S
N1692 Tb1691 2.572 . S
N1692 C1694 1.340 . S
C1693 C1687 1.416 . S
C1693 C1695 1.332 . S
C1693 H1701 0.931 . S
C1694 N1692 1.340 . S
C1694 C1695 1.407 . S
C1694 H1700 0.930 . S
C1695 C1693 1.332 . S
C1695 C1694 1.407 . S
C1695 H1697 0.929 . S
H1696 C1685 0.930 . S
H1697 C1695 0.929 . S
H1698 C1713 0.930 . S
H1699 C1720 0.929 . S
H1700 C1694 0.930 . S
H1701 C1693 0.931 . S
H1702 C1716 0.930 . S
H1703 C1683 0.930 . S
H1704 C1689 0.929 . S
H1705 C1690 0.930 . S
H1706 C1711 0.930 . S
H1707 C1686 0.930 . S
H1708 C1719 0.931 . S
N1709 Tb1680 2.617 . S
N1709 C1710 1.379 . S
N1709 C1713 1.334 . S
C1710 N1709 1.379 . S
C1710 C1712 1.416 . S
C1710 C1718 1.424 . S
C1711 H1706 0.930 . S
C1711 C1713 1.390 . S
C1711 C1714 1.339 . S
C1712 C1710 1.416 . S
C1712 C1714 1.416 . S
C1712 C1745 1.448 . S
C1713 H1698 0.930 . S
C1713 N1709 1.334 . S
C1713 C1711 1.390 . S
C1714 C1711 1.339 . S
C1714 C1712 1.416 . S
C1714 H1721 0.930 . S
N1715 Tb1680 2.572 . S
N1715 C1716 1.340 . S
N1715 C1718 1.361 . S
C1716 H1702 0.930 . S
C1716 N1715 1.340 . S
C1716 C1720 1.407 . S
C1717 C1718 1.413 . S
C1717 C1719 1.416 . S
C1717 C1746 1.427 . S
C1718 C1710 1.424 . S
C1718 N1715 1.361 . S
C1718 C1717 1.413 . S
C1719 H1708 0.931 . S
C1719 C1717 1.416 . S
C1719 C1720 1.332 . S
C1720 H1699 0.929 . S
C1720 C1716 1.407 . S
C1720 C1719 1.332 . S
H1721 C1714 0.930 . S
H1722 C1745 0.930 . S
H1723 C1746 0.929 . S
O1724 Tb1680 2.465 . S
O1724 C1744 1.264 . S
O1725 Tb1680 2.387 . S
O1725 C1736 1.264 . S
O1726 Tb1691 2.349 . S
O1726 C1736 1.243 . S
O1727 Tb1680 2.428 . S
O1727 C1744 1.256 . S
O1728 Tb1680 2.308 . S
O1728 C1743 1.266 . S
O1729 Tb1691 2.393 . S
O1729 C1743 1.248 . S
O1730 Tb1691 2.465 . S
O1730 C1755 1.264 . S
O1731 Tb1691 2.387 . S
O1731 C1747 1.264 . S
O1732 Tb1680 2.349 . S
O1732 C1747 1.243 . S
O1733 Tb1691 2.428 . S
O1733 C1755 1.256 . S
O1734 Tb1691 2.308 . S
O1734 C1754 1.266 . S
O1735 Tb1680 2.393 . S
O1735 C1754 1.248 . S
C1736 O1725 1.264 . S
C1736 O1726 1.243 . S
C1737 C1740 1.399 . S
C1737 C1742 1.383 . S
C1737 C1744 1.496 . S
C1738 C1739 1.399 . S
C1738 C1742 1.389 . S
C1739 C1738 1.399 . S
C1739 C1741 1.380 . S
C1739 H1756 0.929 . S
C1740 C1737 1.399 . S
C1740 C1741 1.392 . S
C1740 H1757 0.929 . S
C1741 C1739 1.380 . S
C1741 C1740 1.392 . S
C1741 H1758 0.929 . S
C1742 C1737 1.383 . S
C1742 C1738 1.389 . S
C1742 H1759 0.931 . S
C1743 O1728 1.266 . S
C1743 O1729 1.248 . S
C1744 Tb1680 2.802 . S
C1744 O1724 1.264 . S
C1744 O1727 1.256 . S
C1744 C1737 1.496 . S
C1745 C1712 1.448 . S
C1745 H1722 0.930 . S
C1745 C1746 1.328 . S
C1746 C1717 1.427 . S
C1746 H1723 0.929 . S
C1746 C1745 1.328 . S
C1747 O1731 1.264 . S
C1747 O1732 1.243 . S
C1748 C1751 1.399 . S
C1748 C1752 1.383 . S
C1748 C1755 1.496 . S
C1749 C1750 1.399 . S
C1749 C1752 1.389 . S
C1750 C1749 1.399 . S
C1750 C1753 1.380 . S
C1750 H1760 0.929 . S
C1751 C1748 1.399 . S
C1751 C1753 1.392 . S
C1751 H1761 0.929 . S
C1752 C1748 1.383 . S
C1752 C1749 1.389 . S
C1752 H1762 0.931 . S
C1753 C1750 1.380 . S
C1753 C1751 1.392 . S
C1753 H1763 0.929 . S
C1754 O1734 1.266 . S
C1754 O1735 1.248 . S
C1755 Tb1691 2.802 . S
C1755 O1730 1.264 . S
C1755 O1733 1.256 . S
C1755 C1748 1.496 . S
H1756 C1739 0.929 . S
H1757 C1740 0.929 . S
H1758 C1741 0.929 . S
H1759 C1742 0.931 . S
H1760 C1750 0.929 . S
H1761 C1751 0.929 . S
H1762 C1752 0.931 . S
H1763 C1753 0.929 . S
Tb1764 N1793 2.617 1_556 S
Tb1764 N1799 2.572 1_556 S
Tb1764 O1808 2.465 . S
Tb1764 O1809 2.387 1_556 S
Tb1764 O1811 2.428 . S
Tb1764 O1812 2.308 . S
Tb1764 O1816 2.349 . S
Tb1764 O1819 2.393 . S
Tb1764 C1828 2.802 . S
C1765 N1766 1.379 . S
C1765 C1768 1.416 . S
C1765 C1772 1.424 . S
N1766 C1765 1.379 . S
N1766 C1769 1.334 . S
N1766 Tb1775 2.617 . S
C1767 C1769 1.390 . S
C1767 C1770 1.339 . S
C1767 H1787 0.930 . S
C1768 C1765 1.416 . S
C1768 C1770 1.416 . S
C1768 C1774 1.448 . S
C1769 N1766 1.334 . S
C1769 C1767 1.390 . S
C1769 H1780 0.930 . S
C1770 C1767 1.339 . S
C1770 C1768 1.416 . S
C1770 H1791 0.930 . S
C1771 C1772 1.413 . S
C1771 C1773 1.427 . S
C1771 C1777 1.416 . S
C1772 C1765 1.424 . S
C1772 C1771 1.413 . S
C1772 N1776 1.361 . S
C1773 C1771 1.427 . S
C1773 C1774 1.328 . S
C1773 H1788 0.929 . S
C1774 C1768 1.448 . S
C1774 C1773 1.328 . S
C1774 H1789 0.930 . S
Tb1775 N1766 2.617 . S
Tb1775 N1776 2.572 . S
Tb1775 O1810 2.349 1_556 S
Tb1775 O1813 2.393 . S
Tb1775 O1814 2.465 1_556 S
Tb1775 O1815 2.387 . S
Tb1775 O1817 2.428 1_556 S
Tb1775 O1818 2.308 . S
Tb1775 C1839 2.802 1_556 S
N1776 C1772 1.361 . S
N1776 Tb1775 2.572 . S
N1776 C1778 1.340 . S
C1777 C1771 1.416 . S
C1777 C1779 1.332 . S
C1777 H1785 0.931 . S
C1778 N1776 1.340 . S
C1778 C1779 1.407 . S
C1778 H1784 0.930 . S
C1779 C1777 1.332 . S
C1779 C1778 1.407 . S
C1779 H1781 0.929 . S
H1780 C1769 0.930 . S
H1781 C1779 0.929 . S
H1782 C1797 0.930 . S
H1783 C1804 0.929 . S
H1784 C1778 0.930 . S
H1785 C1777 0.931 . S
H1786 C1800 0.930 . S
H1787 C1767 0.930 . S
H1788 C1773 0.929 . S
H1789 C1774 0.930 . S
H1790 C1795 0.930 . S
H1791 C1770 0.930 . S
H1792 C1803 0.931 . S
N1793 Tb1764 2.617 1_554 S
N1793 C1794 1.379 . S
N1793 C1797 1.334 . S
C1794 N1793 1.379 . S
C1794 C1796 1.416 . S
C1794 C1802 1.424 . S
C1795 H1790 0.930 . S
C1795 C1797 1.390 . S
C1795 C1798 1.339 . S
C1796 C1794 1.416 . S
C1796 C1798 1.416 . S
C1796 C1829 1.448 . S
C1797 H1782 0.930 . S
C1797 N1793 1.334 . S
C1797 C1795 1.390 . S
C1798 C1795 1.339 . S
C1798 C1796 1.416 . S
C1798 H1805 0.930 . S
N1799 Tb1764 2.572 1_554 S
N1799 C1800 1.340 1_554 S
N1799 C1802 1.361 . S
C1800 H1786 0.930 . S
C1800 N1799 1.340 1_556 S
C1800 C1804 1.407 1_556 S
C1801 C1802 1.413 . S
C1801 C1803 1.416 . S
C1801 C1830 1.427 . S
C1802 C1794 1.424 . S
C1802 N1799 1.361 . S
C1802 C1801 1.413 . S
C1803 H1792 0.931 . S
C1803 C1801 1.416 . S
C1803 C1804 1.332 . S
C1804 H1783 0.929 . S
C1804 C1800 1.407 1_554 S
C1804 C1803 1.332 . S
H1805 C1798 0.930 . S
H1806 C1829 0.930 . S
H1807 C1830 0.929 . S
O1808 Tb1764 2.465 . S
O1808 C1828 1.264 . S
O1809 Tb1764 2.387 1_554 S
O1809 C1820 1.264 . S
O1810 Tb1775 2.349 1_554 S
O1810 C1820 1.243 . S
O1811 Tb1764 2.428 . S
O1811 C1828 1.256 . S
O1812 Tb1764 2.308 . S
O1812 C1827 1.266 . S
O1813 Tb1775 2.393 . S
O1813 C1827 1.248 . S
O1814 Tb1775 2.465 1_554 S
O1814 C1839 1.264 . S
O1815 Tb1775 2.387 . S
O1815 C1831 1.264 . S
O1816 Tb1764 2.349 . S
O1816 C1831 1.243 . S
O1817 Tb1775 2.428 1_554 S
O1817 C1839 1.256 . S
O1818 Tb1775 2.308 . S
O1818 C1838 1.266 1_556 S
O1819 Tb1764 2.393 . S
O1819 C1838 1.248 1_556 S
C1820 O1809 1.264 . S
C1820 O1810 1.243 . S
C1821 C1824 1.399 . S
C1821 C1826 1.383 . S
C1821 C1828 1.496 . S
C1822 C1823 1.399 . S
C1822 C1826 1.389 . S
C1823 C1822 1.399 . S
C1823 C1825 1.380 . S
C1823 H1840 0.929 . S
C1824 C1821 1.399 . S
C1824 C1825 1.392 . S
C1824 H1841 0.929 . S
C1825 C1823 1.380 . S
C1825 C1824 1.392 . S
C1825 H1842 0.929 . S
C1826 C1821 1.383 . S
C1826 C1822 1.389 . S
C1826 H1843 0.931 . S
C1827 O1812 1.266 . S
C1827 O1813 1.248 . S
C1828 Tb1764 2.802 . S
C1828 O1808 1.264 . S
C1828 O1811 1.256 . S
C1828 C1821 1.496 . S
C1829 C1796 1.448 . S
C1829 H1806 0.930 . S
C1829 C1830 1.328 . S
C1830 C1801 1.427 . S
C1830 H1807 0.929 . S
C1830 C1829 1.328 . S
C1831 O1815 1.264 . S
C1831 O1816 1.243 . S
C1832 C1835 1.399 . S
C1832 C1836 1.383 . S
C1832 C1839 1.496 . S
C1833 C1834 1.399 . S
C1833 C1836 1.389 . S
C1834 C1833 1.399 . S
C1834 C1837 1.380 . S
C1834 H1844 0.929 . S
C1835 C1832 1.399 . S
C1835 C1837 1.392 . S
C1835 H1845 0.929 . S
C1836 C1832 1.383 . S
C1836 C1833 1.389 . S
C1836 H1846 0.931 . S
C1837 C1834 1.380 . S
C1837 C1835 1.392 . S
C1837 H1847 0.929 . S
C1838 O1818 1.266 1_554 S
C1838 O1819 1.248 1_554 S
C1839 Tb1775 2.802 1_554 S
C1839 O1814 1.264 . S
C1839 O1817 1.256 . S
C1839 C1832 1.496 . S
H1840 C1823 0.929 . S
H1841 C1824 0.929 . S
H1842 C1825 0.929 . S
H1843 C1826 0.931 . S
H1844 C1834 0.929 . S
H1845 C1835 0.929 . S
H1846 C1836 0.931 . S
H1847 C1837 0.929 . S
Tb1848 N1877 2.617 . S
Tb1848 N1883 2.572 . S
Tb1848 O1892 2.465 . S
Tb1848 O1893 2.387 . S
Tb1848 O1895 2.428 . S
Tb1848 O1896 2.308 . S
Tb1848 O1900 2.349 . S
Tb1848 O1903 2.393 . S
Tb1848 C1912 2.802 . S
C1849 N1850 1.379 . S
C1849 C1852 1.416 . S
C1849 C1856 1.424 . S
N1850 C1849 1.379 . S
N1850 C1853 1.334 . S
N1850 Tb1859 2.617 . S
C1851 C1853 1.390 . S
C1851 C1854 1.339 . S
C1851 H1871 0.930 . S
C1852 C1849 1.416 . S
C1852 C1854 1.416 . S
C1852 C1858 1.448 . S
C1853 N1850 1.334 . S
C1853 C1851 1.390 . S
C1853 H1864 0.930 . S
C1854 C1851 1.339 . S
C1854 C1852 1.416 . S
C1854 H1875 0.930 . S
C1855 C1856 1.413 . S
C1855 C1857 1.427 . S
C1855 C1861 1.416 . S
C1856 C1849 1.424 . S
C1856 C1855 1.413 . S
C1856 N1860 1.361 . S
C1857 C1855 1.427 . S
C1857 C1858 1.328 . S
C1857 H1872 0.929 . S
C1858 C1852 1.448 . S
C1858 C1857 1.328 . S
C1858 H1873 0.930 . S
Tb1859 N1850 2.617 . S
Tb1859 N1860 2.572 . S
Tb1859 O1894 2.349 . S
Tb1859 O1897 2.393 . S
Tb1859 O1898 2.465 . S
Tb1859 O1899 2.387 . S
Tb1859 O1901 2.428 . S
Tb1859 O1902 2.308 . S
Tb1859 C1923 2.802 . S
N1860 C1856 1.361 . S
N1860 Tb1859 2.572 . S
N1860 C1862 1.340 . S
C1861 C1855 1.416 . S
C1861 C1863 1.332 . S
C1861 H1869 0.931 . S
C1862 N1860 1.340 . S
C1862 C1863 1.407 . S
C1862 H1868 0.930 . S
C1863 C1861 1.332 . S
C1863 C1862 1.407 . S
C1863 H1865 0.929 . S
H1864 C1853 0.930 . S
H1865 C1863 0.929 . S
H1866 C1881 0.930 . S
H1867 C1888 0.929 . S
H1868 C1862 0.930 . S
H1869 C1861 0.931 . S
H1870 C1884 0.930 . S
H1871 C1851 0.930 . S
H1872 C1857 0.929 . S
H1873 C1858 0.930 . S
H1874 C1879 0.930 . S
H1875 C1854 0.930 . S
H1876 C1887 0.931 . S
N1877 Tb1848 2.617 . S
N1877 C1878 1.379 . S
N1877 C1881 1.334 . S
C1878 N1877 1.379 . S
C1878 C1880 1.416 . S
C1878 C1886 1.424 . S
C1879 H1874 0.930 . S
C1879 C1881 1.390 . S
C1879 C1882 1.339 . S
C1880 C1878 1.416 . S
C1880 C1882 1.416 . S
C1880 C1913 1.448 . S
C1881 H1866 0.930 . S
C1881 N1877 1.334 . S
C1881 C1879 1.390 . S
C1882 C1879 1.339 . S
C1882 C1880 1.416 . S
C1882 H1889 0.930 . S
N1883 Tb1848 2.572 . S
N1883 C1884 1.340 . S
N1883 C1886 1.361 . S
C1884 H1870 0.930 . S
C1884 N1883 1.340 . S
C1884 C1888 1.407 . S
C1885 C1886 1.413 . S
C1885 C1887 1.416 . S
C1885 C1914 1.427 . S
C1886 C1878 1.424 . S
C1886 N1883 1.361 . S
C1886 C1885 1.413 . S
C1887 H1876 0.931 . S
C1887 C1885 1.416 . S
C1887 C1888 1.332 . S
C1888 H1867 0.929 . S
C1888 C1884 1.407 . S
C1888 C1887 1.332 . S
H1889 C1882 0.930 . S
H1890 C1913 0.930 1_455 S
H1891 C1914 0.929 1_455 S
O1892 Tb1848 2.465 . S
O1892 C1912 1.264 . S
O1893 Tb1848 2.387 . S
O1893 C1904 1.264 . S
O1894 Tb1859 2.349 . S
O1894 C1904 1.243 . S
O1895 Tb1848 2.428 . S
O1895 C1912 1.256 . S
O1896 Tb1848 2.308 . S
O1896 C1911 1.266 . S
O1897 Tb1859 2.393 . S
O1897 C1911 1.248 . S
O1898 Tb1859 2.465 . S
O1898 C1923 1.264 . S
O1899 Tb1859 2.387 . S
O1899 C1915 1.264 . S
O1900 Tb1848 2.349 . S
O1900 C1915 1.243 . S
O1901 Tb1859 2.428 . S
O1901 C1923 1.256 . S
O1902 Tb1859 2.308 . S
O1902 C1922 1.266 . S
O1903 Tb1848 2.393 . S
O1903 C1922 1.248 . S
C1904 O1893 1.264 . S
C1904 O1894 1.243 . S
C1905 C1908 1.399 . S
C1905 C1910 1.383 . S
C1905 C1912 1.496 . S
C1906 C1907 1.399 . S
C1906 C1910 1.389 1_455 S
C1907 C1906 1.399 . S
C1907 C1909 1.380 . S
C1907 H1924 0.929 . S
C1908 C1905 1.399 . S
C1908 C1909 1.392 1_655 S
C1908 H1925 0.929 . S
C1909 C1907 1.380 . S
C1909 C1908 1.392 1_455 S
C1909 H1926 0.929 . S
C1910 C1905 1.383 . S
C1910 C1906 1.389 1_655 S
C1910 H1927 0.931 . S
C1911 O1896 1.266 . S
C1911 O1897 1.248 . S
C1912 Tb1848 2.802 . S
C1912 O1892 1.264 . S
C1912 O1895 1.256 . S
C1912 C1905 1.496 . S
C1913 C1880 1.448 . S
C1913 H1890 0.930 1_655 S
C1913 C1914 1.328 . S
C1914 C1885 1.427 . S
C1914 H1891 0.929 1_655 S
C1914 C1913 1.328 . S
C1915 O1899 1.264 . S
C1915 O1900 1.243 . S
C1916 C1919 1.399 . S
C1916 C1920 1.383 . S
C1916 C1923 1.496 . S
C1917 C1918 1.399 . S
C1917 C1920 1.389 . S
C1918 C1917 1.399 . S
C1918 C1921 1.380 . S
C1918 H1928 0.929 . S
C1919 C1916 1.399 . S
C1919 C1921 1.392 . S
C1919 H1929 0.929 . S
C1920 C1916 1.383 . S
C1920 C1917 1.389 . S
C1920 H1930 0.931 . S
C1921 C1918 1.380 . S
C1921 C1919 1.392 . S
C1921 H1931 0.929 . S
C1922 O1902 1.266 . S
C1922 O1903 1.248 . S
C1923 Tb1859 2.802 . S
C1923 O1898 1.264 . S
C1923 O1901 1.256 . S
C1923 C1916 1.496 . S
H1924 C1907 0.929 . S
H1925 C1908 0.929 . S
H1926 C1909 0.929 . S
H1927 C1910 0.931 . S
H1928 C1918 0.929 . S
H1929 C1919 0.929 . S
H1930 C1920 0.931 . S
H1931 C1921 0.929 . S
Tb1932 N1961 2.617 . S
Tb1932 N1967 2.572 . S
Tb1932 O1976 2.465 . S
Tb1932 O1977 2.387 . S
Tb1932 O1979 2.428 . S
Tb1932 O1980 2.308 . S
Tb1932 O1984 2.349 . S
Tb1932 O1987 2.393 . S
Tb1932 C1996 2.802 . S
C1933 N1934 1.379 . S
C1933 C1936 1.416 . S
C1933 C1940 1.424 . S
N1934 C1933 1.379 . S
N1934 C1937 1.334 . S
N1934 Tb1943 2.617 . S
C1935 C1937 1.390 . S
C1935 C1938 1.339 . S
C1935 H1955 0.930 . S
C1936 C1933 1.416 . S
C1936 C1938 1.416 . S
C1936 C1942 1.448 . S
C1937 N1934 1.334 . S
C1937 C1935 1.390 . S
C1937 H1948 0.930 . S
C1938 C1935 1.339 . S
C1938 C1936 1.416 . S
C1938 H1959 0.930 . S
C1939 C1940 1.413 . S
C1939 C1941 1.427 . S
C1939 C1945 1.416 . S
C1940 C1933 1.424 . S
C1940 C1939 1.413 . S
C1940 N1944 1.361 . S
C1941 C1939 1.427 . S
C1941 C1942 1.328 . S
C1941 H1956 0.929 . S
C1942 C1936 1.448 . S
C1942 C1941 1.328 . S
C1942 H1957 0.930 . S
Tb1943 N1934 2.617 . S
Tb1943 N1944 2.572 . S
Tb1943 O1978 2.349 . S
Tb1943 O1981 2.393 . S
Tb1943 O1982 2.465 . S
Tb1943 O1983 2.387 . S
Tb1943 O1985 2.428 . S
Tb1943 O1986 2.308 . S
Tb1943 C2007 2.802 . S
N1944 C1940 1.361 . S
N1944 Tb1943 2.572 . S
N1944 C1946 1.340 . S
C1945 C1939 1.416 . S
C1945 C1947 1.332 . S
C1945 H1953 0.931 . S
C1946 N1944 1.340 . S
C1946 C1947 1.407 . S
C1946 H1952 0.930 . S
C1947 C1945 1.332 . S
C1947 C1946 1.407 . S
C1947 H1949 0.929 . S
H1948 C1937 0.930 . S
H1949 C1947 0.929 . S
H1950 C1965 0.930 . S
H1951 C1972 0.929 . S
H1952 C1946 0.930 . S
H1953 C1945 0.931 . S
H1954 C1968 0.930 . S
H1955 C1935 0.930 . S
H1956 C1941 0.929 . S
H1957 C1942 0.930 . S
H1958 C1963 0.930 . S
H1959 C1938 0.930 . S
H1960 C1971 0.931 . S
N1961 Tb1932 2.617 . S
N1961 C1962 1.379 . S
N1961 C1965 1.334 . S
C1962 N1961 1.379 . S
C1962 C1964 1.416 . S
C1962 C1970 1.424 . S
C1963 H1958 0.930 . S
C1963 C1965 1.390 . S
C1963 C1966 1.339 . S
C1964 C1962 1.416 . S
C1964 C1966 1.416 . S
C1964 C1997 1.448 . S
C1965 H1950 0.930 . S
C1965 N1961 1.334 . S
C1965 C1963 1.390 . S
C1966 C1963 1.339 . S
C1966 C1964 1.416 . S
C1966 H1973 0.930 . S
N1967 Tb1932 2.572 . S
N1967 C1968 1.340 . S
N1967 C1970 1.361 . S
C1968 H1954 0.930 . S
C1968 N1967 1.340 . S
C1968 C1972 1.407 . S
C1969 C1970 1.413 . S
C1969 C1971 1.416 . S
C1969 C1998 1.427 . S
C1970 C1962 1.424 . S
C1970 N1967 1.361 . S
C1970 C1969 1.413 . S
C1971 H1960 0.931 . S
C1971 C1969 1.416 . S
C1971 C1972 1.332 . S
C1972 H1951 0.929 . S
C1972 C1968 1.407 . S
C1972 C1971 1.332 . S
H1973 C1966 0.930 . S
H1974 C1997 0.930 . S
H1975 C1998 0.929 . S
O1976 Tb1932 2.465 . S
O1976 C1996 1.264 . S
O1977 Tb1932 2.387 . S
O1977 C1988 1.264 . S
O1978 Tb1943 2.349 . S
O1978 C1988 1.243 . S
O1979 Tb1932 2.428 . S
O1979 C1996 1.256 . S
O1980 Tb1932 2.308 . S
O1980 C1995 1.266 . S
O1981 Tb1943 2.393 . S
O1981 C1995 1.248 . S
O1982 Tb1943 2.465 . S
O1982 C2007 1.264 . S
O1983 Tb1943 2.387 . S
O1983 C1999 1.264 . S
O1984 Tb1932 2.349 . S
O1984 C1999 1.243 . S
O1985 Tb1943 2.428 . S
O1985 C2007 1.256 . S
O1986 Tb1943 2.308 . S
O1986 C2006 1.266 . S
O1987 Tb1932 2.393 . S
O1987 C2006 1.248 . S
C1988 O1977 1.264 . S
C1988 O1978 1.243 . S
C1989 C1992 1.399 . S
C1989 C1994 1.383 . S
C1989 C1996 1.496 . S
C1990 C1991 1.399 . S
C1990 C1994 1.389 . S
C1991 C1990 1.399 . S
C1991 C1993 1.380 . S
C1991 H2008 0.929 . S
C1992 C1989 1.399 . S
C1992 C1993 1.392 . S
C1992 H2009 0.929 . S
C1993 C1991 1.380 . S
C1993 C1992 1.392 . S
C1993 H2010 0.929 . S
C1994 C1989 1.383 . S
C1994 C1990 1.389 . S
C1994 H2011 0.931 . S
C1995 O1980 1.266 . S
C1995 O1981 1.248 . S
C1996 Tb1932 2.802 . S
C1996 O1976 1.264 . S
C1996 O1979 1.256 . S
C1996 C1989 1.496 . S
C1997 C1964 1.448 . S
C1997 H1974 0.930 . S
C1997 C1998 1.328 . S
C1998 C1969 1.427 . S
C1998 H1975 0.929 . S
C1998 C1997 1.328 . S
C1999 O1983 1.264 . S
C1999 O1984 1.243 . S
C2000 C2003 1.399 . S
C2000 C2004 1.383 . S
C2000 C2007 1.496 . S
C2001 C2002 1.399 . S
C2001 C2004 1.389 . S
C2002 C2001 1.399 . S
C2002 C2005 1.380 . S
C2002 H2012 0.929 . S
C2003 C2000 1.399 . S
C2003 C2005 1.392 . S
C2003 H2013 0.929 . S
C2004 C2000 1.383 . S
C2004 C2001 1.389 . S
C2004 H2014 0.931 . S
C2005 C2002 1.380 . S
C2005 C2003 1.392 . S
C2005 H2015 0.929 . S
C2006 O1986 1.266 . S
C2006 O1987 1.248 . S
C2007 Tb1943 2.802 . S
C2007 O1982 1.264 . S
C2007 O1985 1.256 . S
C2007 C2000 1.496 . S
H2008 C1991 0.929 . S
H2009 C1992 0.929 . S
H2010 C1993 0.929 . S
H2011 C1994 0.931 . S
H2012 C2002 0.929 . S
H2013 C2003 0.929 . S
H2014 C2004 0.931 . S
H2015 C2005 0.929 . S
Tb2016 N2045 2.617 . S
Tb2016 N2051 2.572 . S
Tb2016 O2060 2.465 . S
Tb2016 O2061 2.387 . S
Tb2016 O2063 2.428 . S
Tb2016 O2064 2.308 . S
Tb2016 O2068 2.349 . S
Tb2016 O2071 2.393 . S
Tb2016 C2080 2.802 . S
C2017 N2018 1.379 . S
C2017 C2020 1.416 . S
C2017 C2024 1.424 . S
N2018 C2017 1.379 . S
N2018 C2021 1.334 . S
N2018 Tb2027 2.617 . S
C2019 C2021 1.390 . S
C2019 C2022 1.339 . S
C2019 H2039 0.930 . S
C2020 C2017 1.416 . S
C2020 C2022 1.416 . S
C2020 C2026 1.448 . S
C2021 N2018 1.334 . S
C2021 C2019 1.390 . S
C2021 H2032 0.930 . S
C2022 C2019 1.339 . S
C2022 C2020 1.416 . S
C2022 H2043 0.930 . S
C2023 C2024 1.413 . S
C2023 C2025 1.427 . S
C2023 C2029 1.416 . S
C2024 C2017 1.424 . S
C2024 C2023 1.413 . S
C2024 N2028 1.361 . S
C2025 C2023 1.427 . S
C2025 C2026 1.328 . S
C2025 H2040 0.929 . S
C2026 C2020 1.448 . S
C2026 C2025 1.328 . S
C2026 H2041 0.930 . S
Tb2027 N2018 2.617 . S
Tb2027 N2028 2.572 . S
Tb2027 O2062 2.349 . S
Tb2027 O2065 2.393 . S
Tb2027 O2066 2.465 . S
Tb2027 O2067 2.387 . S
Tb2027 O2069 2.428 . S
Tb2027 O2070 2.308 . S
Tb2027 C2091 2.802 . S
N2028 C2024 1.361 . S
N2028 Tb2027 2.572 . S
N2028 C2030 1.340 . S
C2029 C2023 1.416 . S
C2029 C2031 1.332 . S
C2029 H2037 0.931 . S
C2030 N2028 1.340 . S
C2030 C2031 1.407 . S
C2030 H2036 0.930 . S
C2031 C2029 1.332 . S
C2031 C2030 1.407 . S
C2031 H2033 0.929 . S
H2032 C2021 0.930 . S
H2033 C2031 0.929 . S
H2034 C2049 0.930 . S
H2035 C2056 0.929 . S
H2036 C2030 0.930 . S
H2037 C2029 0.931 . S
H2038 C2052 0.930 . S
H2039 C2019 0.930 . S
H2040 C2025 0.929 . S
H2041 C2026 0.930 . S
H2042 C2047 0.930 . S
H2043 C2022 0.930 . S
H2044 C2055 0.931 . S
N2045 Tb2016 2.617 . S
N2045 C2046 1.379 . S
N2045 C2049 1.334 . S
C2046 N2045 1.379 . S
C2046 C2048 1.416 . S
C2046 C2054 1.424 . S
C2047 H2042 0.930 . S
C2047 C2049 1.390 . S
C2047 C2050 1.339 . S
C2048 C2046 1.416 . S
C2048 C2050 1.416 . S
C2048 C2081 1.448 . S
C2049 H2034 0.930 . S
C2049 N2045 1.334 . S
C2049 C2047 1.390 . S
C2050 C2047 1.339 . S
C2050 C2048 1.416 . S
C2050 H2057 0.930 . S
N2051 Tb2016 2.572 . S
N2051 C2052 1.340 . S
N2051 C2054 1.361 . S
C2052 H2038 0.930 . S
C2052 N2051 1.340 . S
C2052 C2056 1.407 . S
C2053 C2054 1.413 . S
C2053 C2055 1.416 . S
C2053 C2082 1.427 . S
C2054 C2046 1.424 . S
C2054 N2051 1.361 . S
C2054 C2053 1.413 . S
C2055 H2044 0.931 . S
C2055 C2053 1.416 . S
C2055 C2056 1.332 . S
C2056 H2035 0.929 . S
C2056 C2052 1.407 . S
C2056 C2055 1.332 . S
H2057 C2050 0.930 . S
H2058 C2081 0.930 . S
H2059 C2082 0.929 . S
O2060 Tb2016 2.465 . S
O2060 C2080 1.264 . S
O2061 Tb2016 2.387 . S
O2061 C2072 1.264 . S
O2062 Tb2027 2.349 . S
O2062 C2072 1.243 . S
O2063 Tb2016 2.428 . S
O2063 C2080 1.256 . S
O2064 Tb2016 2.308 . S
O2064 C2079 1.266 . S
O2065 Tb2027 2.393 . S
O2065 C2079 1.248 . S
O2066 Tb2027 2.465 . S
O2066 C2091 1.264 . S
O2067 Tb2027 2.387 . S
O2067 C2083 1.264 . S
O2068 Tb2016 2.349 . S
O2068 C2083 1.243 . S
O2069 Tb2027 2.428 . S
O2069 C2091 1.256 . S
O2070 Tb2027 2.308 . S
O2070 C2090 1.266 . S
O2071 Tb2016 2.393 . S
O2071 C2090 1.248 . S
C2072 O2061 1.264 . S
C2072 O2062 1.243 . S
C2073 C2076 1.399 . S
C2073 C2078 1.383 . S
C2073 C2080 1.496 . S
C2074 C2075 1.399 . S
C2074 C2078 1.389 . S
C2075 C2074 1.399 . S
C2075 C2077 1.380 . S
C2075 H2092 0.929 . S
C2076 C2073 1.399 . S
C2076 C2077 1.392 . S
C2076 H2093 0.929 . S
C2077 C2075 1.380 . S
C2077 C2076 1.392 . S
C2077 H2094 0.929 . S
C2078 C2073 1.383 . S
C2078 C2074 1.389 . S
C2078 H2095 0.931 . S
C2079 O2064 1.266 . S
C2079 O2065 1.248 . S
C2080 Tb2016 2.802 . S
C2080 O2060 1.264 . S
C2080 O2063 1.256 . S
C2080 C2073 1.496 . S
C2081 C2048 1.448 . S
C2081 H2058 0.930 . S
C2081 C2082 1.328 . S
C2082 C2053 1.427 . S
C2082 H2059 0.929 . S
C2082 C2081 1.328 . S
C2083 O2067 1.264 . S
C2083 O2068 1.243 . S
C2084 C2087 1.399 . S
C2084 C2088 1.383 . S
C2084 C2091 1.496 . S
C2085 C2086 1.399 . S
C2085 C2088 1.389 . S
C2086 C2085 1.399 . S
C2086 C2089 1.380 . S
C2086 H2096 0.929 . S
C2087 C2084 1.399 . S
C2087 C2089 1.392 . S
C2087 H2097 0.929 . S
C2088 C2084 1.383 . S
C2088 C2085 1.389 . S
C2088 H2098 0.931 . S
C2089 C2086 1.380 . S
C2089 C2087 1.392 . S
C2089 H2099 0.929 . S
C2090 O2070 1.266 . S
C2090 O2071 1.248 . S
C2091 Tb2027 2.802 . S
C2091 O2066 1.264 . S
C2091 O2069 1.256 . S
C2091 C2084 1.496 . S
H2092 C2075 0.929 . S
H2093 C2076 0.929 . S
H2094 C2077 0.929 . S
H2095 C2078 0.931 . S
H2096 C2086 0.929 . S
H2097 C2087 0.929 . S
H2098 C2088 0.931 . S
H2099 C2089 0.929 . S
Tb2100 N2129 2.617 . S
Tb2100 N2135 2.572 . S
Tb2100 O2144 2.465 1_556 S
Tb2100 O2145 2.387 . S
Tb2100 O2147 2.428 1_556 S
Tb2100 O2148 2.308 . S
Tb2100 O2152 2.349 1_556 S
Tb2100 O2155 2.393 . S
Tb2100 C2164 2.802 1_556 S
C2101 N2102 1.379 . S
C2101 C2104 1.416 . S
C2101 C2108 1.424 . S
N2102 C2101 1.379 . S
N2102 C2105 1.334 . S
N2102 Tb2111 2.617 1_554 S
C2103 C2105 1.390 . S
C2103 C2106 1.339 . S
C2103 H2123 0.930 . S
C2104 C2101 1.416 . S
C2104 C2106 1.416 . S
C2104 C2110 1.448 . S
C2105 N2102 1.334 . S
C2105 C2103 1.390 . S
C2105 H2116 0.930 . S
C2106 C2103 1.339 . S
C2106 C2104 1.416 . S
C2106 H2127 0.930 . S
C2107 C2108 1.413 . S
C2107 C2109 1.427 . S
C2107 C2113 1.416 . S
C2108 C2101 1.424 . S
C2108 C2107 1.413 . S
C2108 N2112 1.361 . S
C2109 C2107 1.427 . S
C2109 C2110 1.328 . S
C2109 H2124 0.929 . S
C2110 C2104 1.448 . S
C2110 C2109 1.328 . S
C2110 H2125 0.930 . S
Tb2111 N2102 2.617 1_556 S
Tb2111 N2112 2.572 1_556 S
Tb2111 O2146 2.349 . S
Tb2111 O2149 2.393 . S
Tb2111 O2150 2.465 . S
Tb2111 O2151 2.387 1_556 S
Tb2111 O2153 2.428 . S
Tb2111 O2154 2.308 . S
Tb2111 C2175 2.802 . S
N2112 C2108 1.361 . S
N2112 Tb2111 2.572 1_554 S
N2112 C2114 1.340 1_554 S
C2113 C2107 1.416 . S
C2113 C2115 1.332 . S
C2113 H2121 0.931 . S
C2114 N2112 1.340 1_556 S
C2114 C2115 1.407 1_556 S
C2114 H2120 0.930 . S
C2115 C2113 1.332 . S
C2115 C2114 1.407 1_554 S
C2115 H2117 0.929 . S
H2116 C2105 0.930 . S
H2117 C2115 0.929 . S
H2118 C2133 0.930 . S
H2119 C2140 0.929 . S
H2120 C2114 0.930 . S
H2121 C2113 0.931 . S
H2122 C2136 0.930 . S
H2123 C2103 0.930 . S
H2124 C2109 0.929 . S
H2125 C2110 0.930 . S
H2126 C2131 0.930 . S
H2127 C2106 0.930 . S
H2128 C2139 0.931 . S
N2129 Tb2100 2.617 . S
N2129 C2130 1.379 . S
N2129 C2133 1.334 . S
C2130 N2129 1.379 . S
C2130 C2132 1.416 . S
C2130 C2138 1.424 . S
C2131 H2126 0.930 . S
C2131 C2133 1.390 . S
C2131 C2134 1.339 . S
C2132 C2130 1.416 . S
C2132 C2134 1.416 . S
C2132 C2165 1.448 . S
C2133 H2118 0.930 . S
C2133 N2129 1.334 . S
C2133 C2131 1.390 . S
C2134 C2131 1.339 . S
C2134 C2132 1.416 . S
C2134 H2141 0.930 . S
N2135 Tb2100 2.572 . S
N2135 C2136 1.340 . S
N2135 C2138 1.361 . S
C2136 H2122 0.930 . S
C2136 N2135 1.340 . S
C2136 C2140 1.407 . S
C2137 C2138 1.413 . S
C2137 C2139 1.416 . S
C2137 C2166 1.427 . S
C2138 C2130 1.424 . S
C2138 N2135 1.361 . S
C2138 C2137 1.413 . S
C2139 H2128 0.931 . S
C2139 C2137 1.416 . S
C2139 C2140 1.332 . S
C2140 H2119 0.929 . S
C2140 C2136 1.407 . S
C2140 C2139 1.332 . S
H2141 C2134 0.930 . S
H2142 C2165 0.930 . S
H2143 C2166 0.929 . S
O2144 Tb2100 2.465 1_554 S
O2144 C2164 1.264 . S
O2145 Tb2100 2.387 . S
O2145 C2156 1.264 . S
O2146 Tb2111 2.349 . S
O2146 C2156 1.243 . S
O2147 Tb2100 2.428 1_554 S
O2147 C2164 1.256 . S
O2148 Tb2100 2.308 . S
O2148 C2163 1.266 1_556 S
O2149 Tb2111 2.393 . S
O2149 C2163 1.248 1_556 S
O2150 Tb2111 2.465 . S
O2150 C2175 1.264 . S
O2151 Tb2111 2.387 1_554 S
O2151 C2167 1.264 . S
O2152 Tb2100 2.349 1_554 S
O2152 C2167 1.243 . S
O2153 Tb2111 2.428 . S
O2153 C2175 1.256 . S
O2154 Tb2111 2.308 . S
O2154 C2174 1.266 . S
O2155 Tb2100 2.393 . S
O2155 C2174 1.248 . S
C2156 O2145 1.264 . S
C2156 O2146 1.243 . S
C2157 C2160 1.399 . S
C2157 C2162 1.383 . S
C2157 C2164 1.496 . S
C2158 C2159 1.399 . S
C2158 C2162 1.389 . S
C2159 C2158 1.399 . S
C2159 C2161 1.380 . S
C2159 H2176 0.929 . S
C2160 C2157 1.399 . S
C2160 C2161 1.392 . S
C2160 H2177 0.929 . S
C2161 C2159 1.380 . S
C2161 C2160 1.392 . S
C2161 H2178 0.929 . S
C2162 C2157 1.383 . S
C2162 C2158 1.389 . S
C2162 H2179 0.931 . S
C2163 O2148 1.266 1_554 S
C2163 O2149 1.248 1_554 S
C2164 Tb2100 2.802 1_554 S
C2164 O2144 1.264 . S
C2164 O2147 1.256 . S
C2164 C2157 1.496 . S
C2165 C2132 1.448 . S
C2165 H2142 0.930 . S
C2165 C2166 1.328 . S
C2166 C2137 1.427 . S
C2166 H2143 0.929 . S
C2166 C2165 1.328 . S
C2167 O2151 1.264 . S
C2167 O2152 1.243 . S
C2168 C2171 1.399 . S
C2168 C2172 1.383 . S
C2168 C2175 1.496 . S
C2169 C2170 1.399 . S
C2169 C2172 1.389 . S
C2170 C2169 1.399 . S
C2170 C2173 1.380 . S
C2170 H2180 0.929 . S
C2171 C2168 1.399 . S
C2171 C2173 1.392 . S
C2171 H2181 0.929 . S
C2172 C2168 1.383 . S
C2172 C2169 1.389 . S
C2172 H2182 0.931 . S
C2173 C2170 1.380 . S
C2173 C2171 1.392 . S
C2173 H2183 0.929 . S
C2174 O2154 1.266 . S
C2174 O2155 1.248 . S
C2175 Tb2111 2.802 . S
C2175 O2150 1.264 . S
C2175 O2153 1.256 . S
C2175 C2168 1.496 . S
H2176 C2159 0.929 . S
H2177 C2160 0.929 . S
H2178 C2161 0.929 . S
H2179 C2162 0.931 . S
H2180 C2170 0.929 . S
H2181 C2171 0.929 . S
H2182 C2172 0.931 . S
H2183 C2173 0.929 . S
Tb2184 N2213 2.617 . S
Tb2184 N2219 2.572 . S
Tb2184 O2228 2.465 . S
Tb2184 O2229 2.387 . S
Tb2184 O2231 2.428 . S
Tb2184 O2232 2.308 . S
Tb2184 O2236 2.349 . S
Tb2184 O2239 2.393 . S
Tb2184 C2248 2.802 . S
C2185 N2186 1.379 . S
C2185 C2188 1.416 . S
C2185 C2192 1.424 . S
N2186 C2185 1.379 . S
N2186 C2189 1.334 . S
N2186 Tb2195 2.617 . S
C2187 C2189 1.390 . S
C2187 C2190 1.339 . S
C2187 H2207 0.930 . S
C2188 C2185 1.416 . S
C2188 C2190 1.416 . S
C2188 C2194 1.448 . S
C2189 N2186 1.334 . S
C2189 C2187 1.390 . S
C2189 H2200 0.930 . S
C2190 C2187 1.339 . S
C2190 C2188 1.416 . S
C2190 H2211 0.930 . S
C2191 C2192 1.413 . S
C2191 C2193 1.427 . S
C2191 C2197 1.416 . S
C2192 C2185 1.424 . S
C2192 C2191 1.413 . S
C2192 N2196 1.361 . S
C2193 C2191 1.427 . S
C2193 C2194 1.328 . S
C2193 H2208 0.929 1_455 S
C2194 C2188 1.448 . S
C2194 C2193 1.328 . S
C2194 H2209 0.930 1_455 S
Tb2195 N2186 2.617 . S
Tb2195 N2196 2.572 . S
Tb2195 O2230 2.349 . S
Tb2195 O2233 2.393 . S
Tb2195 O2234 2.465 . S
Tb2195 O2235 2.387 . S
Tb2195 O2237 2.428 . S
Tb2195 O2238 2.308 . S
Tb2195 C2259 2.802 . S
N2196 C2192 1.361 . S
N2196 Tb2195 2.572 . S
N2196 C2198 1.340 . S
C2197 C2191 1.416 . S
C2197 C2199 1.332 . S
C2197 H2205 0.931 . S
C2198 N2196 1.340 . S
C2198 C2199 1.407 . S
C2198 H2204 0.930 . S
C2199 C2197 1.332 . S
C2199 C2198 1.407 . S
C2199 H2201 0.929 . S
H2200 C2189 0.930 . S
H2201 C2199 0.929 . S
H2202 C2217 0.930 . S
H2203 C2224 0.929 . S
H2204 C2198 0.930 . S
H2205 C2197 0.931 . S
H2206 C2220 0.930 . S
H2207 C2187 0.930 . S
H2208 C2193 0.929 1_655 S
H2209 C2194 0.930 1_655 S
H2210 C2215 0.930 . S
H2211 C2190 0.930 . S
H2212 C2223 0.931 . S
N2213 Tb2184 2.617 . S
N2213 C2214 1.379 . S
N2213 C2217 1.334 . S
C2214 N2213 1.379 . S
C2214 C2216 1.416 . S
C2214 C2222 1.424 . S
C2215 H2210 0.930 . S
C2215 C2217 1.390 . S
C2215 C2218 1.339 . S
C2216 C2214 1.416 . S
C2216 C2218 1.416 . S
C2216 C2249 1.448 . S
C2217 H2202 0.930 . S
C2217 N2213 1.334 . S
C2217 C2215 1.390 . S
C2218 C2215 1.339 . S
C2218 C2216 1.416 . S
C2218 H2225 0.930 . S
N2219 Tb2184 2.572 . S
N2219 C2220 1.340 . S
N2219 C2222 1.361 . S
C2220 H2206 0.930 . S
C2220 N2219 1.340 . S
C2220 C2224 1.407 . S
C2221 C2222 1.413 . S
C2221 C2223 1.416 . S
C2221 C2250 1.427 . S
C2222 C2214 1.424 . S
C2222 N2219 1.361 . S
C2222 C2221 1.413 . S
C2223 H2212 0.931 . S
C2223 C2221 1.416 . S
C2223 C2224 1.332 . S
C2224 H2203 0.929 . S
C2224 C2220 1.407 . S
C2224 C2223 1.332 . S
H2225 C2218 0.930 . S
H2226 C2249 0.930 . S
H2227 C2250 0.929 . S
O2228 Tb2184 2.465 . S
O2228 C2248 1.264 . S
O2229 Tb2184 2.387 . S
O2229 C2240 1.264 . S
O2230 Tb2195 2.349 . S
O2230 C2240 1.243 . S
O2231 Tb2184 2.428 . S
O2231 C2248 1.256 . S
O2232 Tb2184 2.308 . S
O2232 C2247 1.266 . S
O2233 Tb2195 2.393 . S
O2233 C2247 1.248 . S
O2234 Tb2195 2.465 . S
O2234 C2259 1.264 . S
O2235 Tb2195 2.387 . S
O2235 C2251 1.264 . S
O2236 Tb2184 2.349 . S
O2236 C2251 1.243 . S
O2237 Tb2195 2.428 . S
O2237 C2259 1.256 . S
O2238 Tb2195 2.308 . S
O2238 C2258 1.266 . S
O2239 Tb2184 2.393 . S
O2239 C2258 1.248 . S
C2240 O2229 1.264 . S
C2240 O2230 1.243 . S
C2241 C2244 1.399 . S
C2241 C2246 1.383 . S
C2241 C2248 1.496 . S
C2242 C2243 1.399 . S
C2242 C2246 1.389 . S
C2243 C2242 1.399 . S
C2243 C2245 1.380 . S
C2243 H2260 0.929 . S
C2244 C2241 1.399 . S
C2244 C2245 1.392 . S
C2244 H2261 0.929 . S
C2245 C2243 1.380 . S
C2245 C2244 1.392 . S
C2245 H2262 0.929 . S
C2246 C2241 1.383 . S
C2246 C2242 1.389 . S
C2246 H2263 0.931 . S
C2247 O2232 1.266 . S
C2247 O2233 1.248 . S
C2248 Tb2184 2.802 . S
C2248 O2228 1.264 . S
C2248 O2231 1.256 . S
C2248 C2241 1.496 . S
C2249 C2216 1.448 . S
C2249 H2226 0.930 . S
C2249 C2250 1.328 . S
C2250 C2221 1.427 . S
C2250 H2227 0.929 . S
C2250 C2249 1.328 . S
C2251 O2235 1.264 . S
C2251 O2236 1.243 . S
C2252 C2255 1.399 . S
C2252 C2256 1.383 . S
C2252 C2259 1.496 . S
C2253 C2254 1.399 . S
C2253 C2256 1.389 1_655 S
C2254 C2253 1.399 . S
C2254 C2257 1.380 . S
C2254 H2264 0.929 . S
C2255 C2252 1.399 . S
C2255 C2257 1.392 1_455 S
C2255 H2265 0.929 . S
C2256 C2252 1.383 . S
C2256 C2253 1.389 1_455 S
C2256 H2266 0.931 . S
C2257 C2254 1.380 . S
C2257 C2255 1.392 1_655 S
C2257 H2267 0.929 . S
C2258 O2238 1.266 . S
C2258 O2239 1.248 . S
C2259 Tb2195 2.802 . S
C2259 O2234 1.264 . S
C2259 O2237 1.256 . S
C2259 C2252 1.496 . S
H2260 C2243 0.929 . S
H2261 C2244 0.929 . S
H2262 C2245 0.929 . S
H2263 C2246 0.931 . S
H2264 C2254 0.929 . S
H2265 C2255 0.929 . S
H2266 C2256 0.931 . S
H2267 C2257 0.929 . S
Tb2268 N2297 2.617 . S
Tb2268 N2303 2.572 . S
Tb2268 O2312 2.465 . S
Tb2268 O2313 2.387 . S
Tb2268 O2315 2.428 . S
Tb2268 O2316 2.308 . S
Tb2268 O2320 2.349 . S
Tb2268 O2323 2.393 . S
Tb2268 C2332 2.802 . S
C2269 N2270 1.379 . S
C2269 C2272 1.416 . S
C2269 C2276 1.424 . S
N2270 C2269 1.379 . S
N2270 C2273 1.334 . S
N2270 Tb2279 2.617 . S
C2271 C2273 1.390 . S
C2271 C2274 1.339 . S
C2271 H2291 0.930 . S
C2272 C2269 1.416 . S
C2272 C2274 1.416 . S
C2272 C2278 1.448 . S
C2273 N2270 1.334 . S
C2273 C2271 1.390 . S
C2273 H2284 0.930 . S
C2274 C2271 1.339 . S
C2274 C2272 1.416 . S
C2274 H2295 0.930 . S
C2275 C2276 1.413 . S
C2275 C2277 1.427 . S
C2275 C2281 1.416 . S
C2276 C2269 1.424 . S
C2276 C2275 1.413 . S
C2276 N2280 1.361 . S
C2277 C2275 1.427 . S
C2277 C2278 1.328 . S
C2277 H2292 0.929 . S
C2278 C2272 1.448 . S
C2278 C2277 1.328 . S
C2278 H2293 0.930 . S
Tb2279 N2270 2.617 . S
Tb2279 N2280 2.572 . S
Tb2279 O2314 2.349 . S
Tb2279 O2317 2.393 . S
Tb2279 O2318 2.465 . S
Tb2279 O2319 2.387 . S
Tb2279 O2321 2.428 . S
Tb2279 O2322 2.308 . S
Tb2279 C2343 2.802 . S
N2280 C2276 1.361 . S
N2280 Tb2279 2.572 . S
N2280 C2282 1.340 . S
C2281 C2275 1.416 . S
C2281 C2283 1.332 . S
C2281 H2289 0.931 . S
C2282 N2280 1.340 . S
C2282 C2283 1.407 . S
C2282 H2288 0.930 . S
C2283 C2281 1.332 . S
C2283 C2282 1.407 . S
C2283 H2285 0.929 . S
H2284 C2273 0.930 . S
H2285 C2283 0.929 . S
H2286 C2301 0.930 . S
H2287 C2308 0.929 . S
H2288 C2282 0.930 . S
H2289 C2281 0.931 . S
H2290 C2304 0.930 . S
H2291 C2271 0.930 . S
H2292 C2277 0.929 . S
H2293 C2278 0.930 . S
H2294 C2299 0.930 . S
H2295 C2274 0.930 . S
H2296 C2307 0.931 . S
N2297 Tb2268 2.617 . S
N2297 C2298 1.379 . S
N2297 C2301 1.334 . S
C2298 N2297 1.379 . S
C2298 C2300 1.416 . S
C2298 C2306 1.424 . S
C2299 H2294 0.930 . S
C2299 C2301 1.390 . S
C2299 C2302 1.339 . S
C2300 C2298 1.416 . S
C2300 C2302 1.416 . S
C2300 C2333 1.448 . S
C2301 H2286 0.930 . S
C2301 N2297 1.334 . S
C2301 C2299 1.390 . S
C2302 C2299 1.339 . S
C2302 C2300 1.416 . S
C2302 H2309 0.930 . S
N2303 Tb2268 2.572 . S
N2303 C2304 1.340 . S
N2303 C2306 1.361 . S
C2304 H2290 0.930 . S
C2304 N2303 1.340 . S
C2304 C2308 1.407 . S
C2305 C2306 1.413 . S
C2305 C2307 1.416 . S
C2305 C2334 1.427 . S
C2306 C2298 1.424 . S
C2306 N2303 1.361 . S
C2306 C2305 1.413 . S
C2307 H2296 0.931 . S
C2307 C2305 1.416 . S
C2307 C2308 1.332 . S
C2308 H2287 0.929 . S
C2308 C2304 1.407 . S
C2308 C2307 1.332 . S
H2309 C2302 0.930 . S
H2310 C2333 0.930 . S
H2311 C2334 0.929 . S
O2312 Tb2268 2.465 . S
O2312 C2332 1.264 . S
O2313 Tb2268 2.387 . S
O2313 C2324 1.264 . S
O2314 Tb2279 2.349 . S
O2314 C2324 1.243 . S
O2315 Tb2268 2.428 . S
O2315 C2332 1.256 . S
O2316 Tb2268 2.308 . S
O2316 C2331 1.266 . S
O2317 Tb2279 2.393 . S
O2317 C2331 1.248 . S
O2318 Tb2279 2.465 . S
O2318 C2343 1.264 . S
O2319 Tb2279 2.387 . S
O2319 C2335 1.264 . S
O2320 Tb2268 2.349 . S
O2320 C2335 1.243 . S
O2321 Tb2279 2.428 . S
O2321 C2343 1.256 . S
O2322 Tb2279 2.308 . S
O2322 C2342 1.266 . S
O2323 Tb2268 2.393 . S
O2323 C2342 1.248 . S
C2324 O2313 1.264 . S
C2324 O2314 1.243 . S
C2325 C2328 1.399 . S
C2325 C2330 1.383 . S
C2325 C2332 1.496 . S
C2326 C2327 1.399 . S
C2326 C2330 1.389 . S
C2327 C2326 1.399 . S
C2327 C2329 1.380 . S
C2327 H2344 0.929 . S
C2328 C2325 1.399 . S
C2328 C2329 1.392 . S
C2328 H2345 0.929 . S
C2329 C2327 1.380 . S
C2329 C2328 1.392 . S
C2329 H2346 0.929 . S
C2330 C2325 1.383 . S
C2330 C2326 1.389 . S
C2330 H2347 0.931 . S
C2331 O2316 1.266 . S
C2331 O2317 1.248 . S
C2332 Tb2268 2.802 . S
C2332 O2312 1.264 . S
C2332 O2315 1.256 . S
C2332 C2325 1.496 . S
C2333 C2300 1.448 . S
C2333 H2310 0.930 . S
C2333 C2334 1.328 . S
C2334 C2305 1.427 . S
C2334 H2311 0.929 . S
C2334 C2333 1.328 . S
C2335 O2319 1.264 . S
C2335 O2320 1.243 . S
C2336 C2339 1.399 . S
C2336 C2340 1.383 . S
C2336 C2343 1.496 . S
C2337 C2338 1.399 . S
C2337 C2340 1.389 . S
C2338 C2337 1.399 . S
C2338 C2341 1.380 . S
C2338 H2348 0.929 . S
C2339 C2336 1.399 . S
C2339 C2341 1.392 . S
C2339 H2349 0.929 . S
C2340 C2336 1.383 . S
C2340 C2337 1.389 . S
C2340 H2350 0.931 . S
C2341 C2338 1.380 . S
C2341 C2339 1.392 . S
C2341 H2351 0.929 . S
C2342 O2322 1.266 . S
C2342 O2323 1.248 . S
C2343 Tb2279 2.802 . S
C2343 O2318 1.264 . S
C2343 O2321 1.256 . S
C2343 C2336 1.496 . S
H2344 C2327 0.929 . S
H2345 C2328 0.929 . S
H2346 C2329 0.929 . S
H2347 C2330 0.931 . S
H2348 C2338 0.929 . S
H2349 C2339 0.929 . S
H2350 C2340 0.931 . S
H2351 C2341 0.929 . S
Tb2352 N2381 2.617 . S
Tb2352 N2387 2.572 . S
Tb2352 O2396 2.465 . S
Tb2352 O2397 2.387 . S
Tb2352 O2399 2.428 . S
Tb2352 O2400 2.308 . S
Tb2352 O2404 2.349 . S
Tb2352 O2407 2.393 . S
Tb2352 C2416 2.802 . S
C2353 N2354 1.379 . S
C2353 C2356 1.416 . S
C2353 C2360 1.424 . S
N2354 C2353 1.379 . S
N2354 C2357 1.334 . S
N2354 Tb2363 2.617 . S
C2355 C2357 1.390 . S
C2355 C2358 1.339 . S
C2355 H2375 0.930 . S
C2356 C2353 1.416 . S
C2356 C2358 1.416 . S
C2356 C2362 1.448 . S
C2357 N2354 1.334 . S
C2357 C2355 1.390 . S
C2357 H2368 0.930 . S
C2358 C2355 1.339 . S
C2358 C2356 1.416 . S
C2358 H2379 0.930 . S
C2359 C2360 1.413 . S
C2359 C2361 1.427 . S
C2359 C2365 1.416 . S
C2360 C2353 1.424 . S
C2360 C2359 1.413 . S
C2360 N2364 1.361 . S
C2361 C2359 1.427 . S
C2361 C2362 1.328 . S
C2361 H2376 0.929 . S
C2362 C2356 1.448 . S
C2362 C2361 1.328 . S
C2362 H2377 0.930 . S
Tb2363 N2354 2.617 . S
Tb2363 N2364 2.572 . S
Tb2363 O2398 2.349 . S
Tb2363 O2401 2.393 . S
Tb2363 O2402 2.465 . S
Tb2363 O2403 2.387 . S
Tb2363 O2405 2.428 . S
Tb2363 O2406 2.308 . S
Tb2363 C2427 2.802 . S
N2364 C2360 1.361 . S
N2364 Tb2363 2.572 . S
N2364 C2366 1.340 . S
C2365 C2359 1.416 . S
C2365 C2367 1.332 . S
C2365 H2373 0.931 . S
C2366 N2364 1.340 . S
C2366 C2367 1.407 . S
C2366 H2372 0.930 . S
C2367 C2365 1.332 . S
C2367 C2366 1.407 . S
C2367 H2369 0.929 . S
H2368 C2357 0.930 . S
H2369 C2367 0.929 . S
H2370 C2385 0.930 . S
H2371 C2392 0.929 . S
H2372 C2366 0.930 . S
H2373 C2365 0.931 . S
H2374 C2388 0.930 . S
H2375 C2355 0.930 . S
H2376 C2361 0.929 . S
H2377 C2362 0.930 . S
H2378 C2383 0.930 . S
H2379 C2358 0.930 . S
H2380 C2391 0.931 . S
N2381 Tb2352 2.617 . S
N2381 C2382 1.379 . S
N2381 C2385 1.334 . S
C2382 N2381 1.379 . S
C2382 C2384 1.416 . S
C2382 C2390 1.424 . S
C2383 H2378 0.930 . S
C2383 C2385 1.390 . S
C2383 C2386 1.339 . S
C2384 C2382 1.416 . S
C2384 C2386 1.416 . S
C2384 C2417 1.448 . S
C2385 H2370 0.930 . S
C2385 N2381 1.334 . S
C2385 C2383 1.390 . S
C2386 C2383 1.339 . S
C2386 C2384 1.416 . S
C2386 H2393 0.930 . S
N2387 Tb2352 2.572 . S
N2387 C2388 1.340 . S
N2387 C2390 1.361 . S
C2388 H2374 0.930 . S
C2388 N2387 1.340 . S
C2388 C2392 1.407 . S
C2389 C2390 1.413 . S
C2389 C2391 1.416 . S
C2389 C2418 1.427 . S
C2390 C2382 1.424 . S
C2390 N2387 1.361 . S
C2390 C2389 1.413 . S
C2391 H2380 0.931 . S
C2391 C2389 1.416 . S
C2391 C2392 1.332 . S
C2392 H2371 0.929 . S
C2392 C2388 1.407 . S
C2392 C2391 1.332 . S
H2393 C2386 0.930 . S
H2394 C2417 0.930 . S
H2395 C2418 0.929 . S
O2396 Tb2352 2.465 . S
O2396 C2416 1.264 . S
O2397 Tb2352 2.387 . S
O2397 C2408 1.264 . S
O2398 Tb2363 2.349 . S
O2398 C2408 1.243 . S
O2399 Tb2352 2.428 . S
O2399 C2416 1.256 . S
O2400 Tb2352 2.308 . S
O2400 C2415 1.266 . S
O2401 Tb2363 2.393 . S
O2401 C2415 1.248 . S
O2402 Tb2363 2.465 . S
O2402 C2427 1.264 . S
O2403 Tb2363 2.387 . S
O2403 C2419 1.264 . S
O2404 Tb2352 2.349 . S
O2404 C2419 1.243 . S
O2405 Tb2363 2.428 . S
O2405 C2427 1.256 . S
O2406 Tb2363 2.308 . S
O2406 C2426 1.266 . S
O2407 Tb2352 2.393 . S
O2407 C2426 1.248 . S
C2408 O2397 1.264 . S
C2408 O2398 1.243 . S
C2409 C2412 1.399 . S
C2409 C2414 1.383 . S
C2409 C2416 1.496 . S
C2410 C2411 1.399 . S
C2410 C2414 1.389 . S
C2411 C2410 1.399 . S
C2411 C2413 1.380 . S
C2411 H2428 0.929 . S
C2412 C2409 1.399 . S
C2412 C2413 1.392 . S
C2412 H2429 0.929 . S
C2413 C2411 1.380 . S
C2413 C2412 1.392 . S
C2413 H2430 0.929 . S
C2414 C2409 1.383 . S
C2414 C2410 1.389 . S
C2414 H2431 0.931 . S
C2415 O2400 1.266 . S
C2415 O2401 1.248 . S
C2416 Tb2352 2.802 . S
C2416 O2396 1.264 . S
C2416 O2399 1.256 . S
C2416 C2409 1.496 . S
C2417 C2384 1.448 . S
C2417 H2394 0.930 . S
C2417 C2418 1.328 . S
C2418 C2389 1.427 . S
C2418 H2395 0.929 . S
C2418 C2417 1.328 . S
C2419 O2403 1.264 . S
C2419 O2404 1.243 . S
C2420 C2423 1.399 . S
C2420 C2424 1.383 . S
C2420 C2427 1.496 . S
C2421 C2422 1.399 . S
C2421 C2424 1.389 . S
C2422 C2421 1.399 . S
C2422 C2425 1.380 . S
C2422 H2432 0.929 . S
C2423 C2420 1.399 . S
C2423 C2425 1.392 . S
C2423 H2433 0.929 . S
C2424 C2420 1.383 . S
C2424 C2421 1.389 . S
C2424 H2434 0.931 . S
C2425 C2422 1.380 . S
C2425 C2423 1.392 . S
C2425 H2435 0.929 . S
C2426 O2406 1.266 . S
C2426 O2407 1.248 . S
C2427 Tb2363 2.802 . S
C2427 O2402 1.264 . S
C2427 O2405 1.256 . S
C2427 C2420 1.496 . S
H2428 C2411 0.929 . S
H2429 C2412 0.929 . S
H2430 C2413 0.929 . S
H2431 C2414 0.931 . S
H2432 C2422 0.929 . S
H2433 C2423 0.929 . S
H2434 C2424 0.931 . S
H2435 C2425 0.929 . S
Tb2436 N2465 2.617 . S
Tb2436 N2471 2.572 . S
Tb2436 O2480 2.465 1_554 S
Tb2436 O2481 2.387 . S
Tb2436 O2483 2.428 1_554 S
Tb2436 O2484 2.308 . S
Tb2436 O2488 2.349 1_554 S
Tb2436 O2491 2.393 . S
Tb2436 C2500 2.802 1_554 S
C2437 N2438 1.379 . S
C2437 C2440 1.416 . S
C2437 C2444 1.424 . S
N2438 C2437 1.379 . S
N2438 C2441 1.334 . S
N2438 Tb2447 2.617 1_556 S
C2439 C2441 1.390 . S
C2439 C2442 1.339 . S
C2439 H2459 0.930 . S
C2440 C2437 1.416 . S
C2440 C2442 1.416 . S
C2440 C2446 1.448 . S
C2441 N2438 1.334 . S
C2441 C2439 1.390 . S
C2441 H2452 0.930 . S
C2442 C2439 1.339 . S
C2442 C2440 1.416 . S
C2442 H2463 0.930 . S
C2443 C2444 1.413 . S
C2443 C2445 1.427 . S
C2443 C2449 1.416 . S
C2444 C2437 1.424 . S
C2444 C2443 1.413 . S
C2444 N2448 1.361 . S
C2445 C2443 1.427 . S
C2445 C2446 1.328 . S
C2445 H2460 0.929 . S
C2446 C2440 1.448 . S
C2446 C2445 1.328 . S
C2446 H2461 0.930 . S
Tb2447 N2438 2.617 1_554 S
Tb2447 N2448 2.572 1_554 S
Tb2447 O2482 2.349 . S
Tb2447 O2485 2.393 . S
Tb2447 O2486 2.465 . S
Tb2447 O2487 2.387 1_554 S
Tb2447 O2489 2.428 . S
Tb2447 O2490 2.308 . S
Tb2447 C2511 2.802 . S
N2448 C2444 1.361 . S
N2448 Tb2447 2.572 1_556 S
N2448 C2450 1.340 1_556 S
C2449 C2443 1.416 . S
C2449 C2451 1.332 . S
C2449 H2457 0.931 . S
C2450 N2448 1.340 1_554 S
C2450 C2451 1.407 1_554 S
C2450 H2456 0.930 . S
C2451 C2449 1.332 . S
C2451 C2450 1.407 1_556 S
C2451 H2453 0.929 . S
H2452 C2441 0.930 . S
H2453 C2451 0.929 . S
H2454 C2469 0.930 . S
H2455 C2476 0.929 . S
H2456 C2450 0.930 . S
H2457 C2449 0.931 . S
H2458 C2472 0.930 . S
H2459 C2439 0.930 . S
H2460 C2445 0.929 . S
H2461 C2446 0.930 . S
H2462 C2467 0.930 . S
H2463 C2442 0.930 . S
H2464 C2475 0.931 . S
N2465 Tb2436 2.617 . S
N2465 C2466 1.379 . S
N2465 C2469 1.334 . S
C2466 N2465 1.379 . S
C2466 C2468 1.416 . S
C2466 C2474 1.424 . S
C2467 H2462 0.930 . S
C2467 C2469 1.390 . S
C2467 C2470 1.339 . S
C2468 C2466 1.416 . S
C2468 C2470 1.416 . S
C2468 C2501 1.448 . S
C2469 H2454 0.930 . S
C2469 N2465 1.334 . S
C2469 C2467 1.390 . S
C2470 C2467 1.339 . S
C2470 C2468 1.416 . S
C2470 H2477 0.930 . S
N2471 Tb2436 2.572 . S
N2471 C2472 1.340 . S
N2471 C2474 1.361 . S
C2472 H2458 0.930 . S
C2472 N2471 1.340 . S
C2472 C2476 1.407 . S
C2473 C2474 1.413 . S
C2473 C2475 1.416 . S
C2473 C2502 1.427 . S
C2474 C2466 1.424 . S
C2474 N2471 1.361 . S
C2474 C2473 1.413 . S
C2475 H2464 0.931 . S
C2475 C2473 1.416 . S
C2475 C2476 1.332 . S
C2476 H2455 0.929 . S
C2476 C2472 1.407 . S
C2476 C2475 1.332 . S
H2477 C2470 0.930 . S
H2478 C2501 0.930 . S
H2479 C2502 0.929 . S
O2480 Tb2436 2.465 1_556 S
O2480 C2500 1.264 . S
O2481 Tb2436 2.387 . S
O2481 C2492 1.264 . S
O2482 Tb2447 2.349 . S
O2482 C2492 1.243 . S
O2483 Tb2436 2.428 1_556 S
O2483 C2500 1.256 . S
O2484 Tb2436 2.308 . S
O2484 C2499 1.266 1_554 S
O2485 Tb2447 2.393 . S
O2485 C2499 1.248 1_554 S
O2486 Tb2447 2.465 . S
O2486 C2511 1.264 . S
O2487 Tb2447 2.387 1_556 S
O2487 C2503 1.264 . S
O2488 Tb2436 2.349 1_556 S
O2488 C2503 1.243 . S
O2489 Tb2447 2.428 . S
O2489 C2511 1.256 . S
O2490 Tb2447 2.308 . S
O2490 C2510 1.266 . S
O2491 Tb2436 2.393 . S
O2491 C2510 1.248 . S
C2492 O2481 1.264 . S
C2492 O2482 1.243 . S
C2493 C2496 1.399 . S
C2493 C2498 1.383 . S
C2493 C2500 1.496 . S
C2494 C2495 1.399 . S
C2494 C2498 1.389 . S
C2495 C2494 1.399 . S
C2495 C2497 1.380 . S
C2495 H2512 0.929 . S
C2496 C2493 1.399 . S
C2496 C2497 1.392 . S
C2496 H2513 0.929 . S
C2497 C2495 1.380 . S
C2497 C2496 1.392 . S
C2497 H2514 0.929 . S
C2498 C2493 1.383 . S
C2498 C2494 1.389 . S
C2498 H2515 0.931 . S
C2499 O2484 1.266 1_556 S
C2499 O2485 1.248 1_556 S
C2500 Tb2436 2.802 1_556 S
C2500 O2480 1.264 . S
C2500 O2483 1.256 . S
C2500 C2493 1.496 . S
C2501 C2468 1.448 . S
C2501 H2478 0.930 . S
C2501 C2502 1.328 . S
C2502 C2473 1.427 . S
C2502 H2479 0.929 . S
C2502 C2501 1.328 . S
C2503 O2487 1.264 . S
C2503 O2488 1.243 . S
C2504 C2507 1.399 . S
C2504 C2508 1.383 . S
C2504 C2511 1.496 . S
C2505 C2506 1.399 . S
C2505 C2508 1.389 . S
C2506 C2505 1.399 . S
C2506 C2509 1.380 . S
C2506 H2516 0.929 . S
C2507 C2504 1.399 . S
C2507 C2509 1.392 . S
C2507 H2517 0.929 . S
C2508 C2504 1.383 . S
C2508 C2505 1.389 . S
C2508 H2518 0.931 . S
C2509 C2506 1.380 . S
C2509 C2507 1.392 . S
C2509 H2519 0.929 . S
C2510 O2490 1.266 . S
C2510 O2491 1.248 . S
C2511 Tb2447 2.802 . S
C2511 O2486 1.264 . S
C2511 O2489 1.256 . S
C2511 C2504 1.496 . S
H2512 C2495 0.929 . S
H2513 C2496 0.929 . S
H2514 C2497 0.929 . S
H2515 C2498 0.931 . S
H2516 C2506 0.929 . S
H2517 C2507 0.929 . S
H2518 C2508 0.931 . S
H2519 C2509 0.929 . S
Tb2520 N2549 2.617 . S
Tb2520 N2555 2.572 . S
Tb2520 O2564 2.465 . S
Tb2520 O2565 2.387 . S
Tb2520 O2567 2.428 . S
Tb2520 O2568 2.308 . S
Tb2520 O2572 2.349 . S
Tb2520 O2575 2.393 . S
Tb2520 C2584 2.802 . S
C2521 N2522 1.379 . S
C2521 C2524 1.416 . S
C2521 C2528 1.424 . S
N2522 C2521 1.379 . S
N2522 C2525 1.334 . S
N2522 Tb2531 2.617 . S
C2523 C2525 1.390 . S
C2523 C2526 1.339 . S
C2523 H2543 0.930 . S
C2524 C2521 1.416 . S
C2524 C2526 1.416 . S
C2524 C2530 1.448 . S
C2525 N2522 1.334 . S
C2525 C2523 1.390 . S
C2525 H2536 0.930 . S
C2526 C2523 1.339 . S
C2526 C2524 1.416 . S
C2526 H2547 0.930 . S
C2527 C2528 1.413 . S
C2527 C2529 1.427 . S
C2527 C2533 1.416 . S
C2528 C2521 1.424 . S
C2528 C2527 1.413 . S
C2528 N2532 1.361 . S
C2529 C2527 1.427 . S
C2529 C2530 1.328 . S
C2529 H2544 0.929 1_455 S
C2530 C2524 1.448 . S
C2530 C2529 1.328 . S
C2530 H2545 0.930 1_455 S
Tb2531 N2522 2.617 . S
Tb2531 N2532 2.572 . S
Tb2531 O2566 2.349 . S
Tb2531 O2569 2.393 . S
Tb2531 O2570 2.465 . S
Tb2531 O2571 2.387 . S
Tb2531 O2573 2.428 . S
Tb2531 O2574 2.308 . S
Tb2531 C2595 2.802 . S
N2532 C2528 1.361 . S
N2532 Tb2531 2.572 . S
N2532 C2534 1.340 . S
C2533 C2527 1.416 . S
C2533 C2535 1.332 . S
C2533 H2541 0.931 . S
C2534 N2532 1.340 . S
C2534 C2535 1.407 . S
C2534 H2540 0.930 . S
C2535 C2533 1.332 . S
C2535 C2534 1.407 . S
C2535 H2537 0.929 . S
H2536 C2525 0.930 . S
H2537 C2535 0.929 . S
H2538 C2553 0.930 . S
H2539 C2560 0.929 . S
H2540 C2534 0.930 . S
H2541 C2533 0.931 . S
H2542 C2556 0.930 . S
H2543 C2523 0.930 . S
H2544 C2529 0.929 1_655 S
H2545 C2530 0.930 1_655 S
H2546 C2551 0.930 . S
H2547 C2526 0.930 . S
H2548 C2559 0.931 . S
N2549 Tb2520 2.617 . S
N2549 C2550 1.379 . S
N2549 C2553 1.334 . S
C2550 N2549 1.379 . S
C2550 C2552 1.416 . S
C2550 C2558 1.424 . S
C2551 H2546 0.930 . S
C2551 C2553 1.390 . S
C2551 C2554 1.339 . S
C2552 C2550 1.416 . S
C2552 C2554 1.416 . S
C2552 C2585 1.448 . S
C2553 H2538 0.930 . S
C2553 N2549 1.334 . S
C2553 C2551 1.390 . S
C2554 C2551 1.339 . S
C2554 C2552 1.416 . S
C2554 H2561 0.930 . S
N2555 Tb2520 2.572 . S
N2555 C2556 1.340 . S
N2555 C2558 1.361 . S
C2556 H2542 0.930 . S
C2556 N2555 1.340 . S
C2556 C2560 1.407 . S
C2557 C2558 1.413 . S
C2557 C2559 1.416 . S
C2557 C2586 1.427 . S
C2558 C2550 1.424 . S
C2558 N2555 1.361 . S
C2558 C2557 1.413 . S
C2559 H2548 0.931 . S
C2559 C2557 1.416 . S
C2559 C2560 1.332 . S
C2560 H2539 0.929 . S
C2560 C2556 1.407 . S
C2560 C2559 1.332 . S
H2561 C2554 0.930 . S
H2562 C2585 0.930 . S
H2563 C2586 0.929 . S
O2564 Tb2520 2.465 . S
O2564 C2584 1.264 . S
O2565 Tb2520 2.387 . S
O2565 C2576 1.264 . S
O2566 Tb2531 2.349 . S
O2566 C2576 1.243 . S
O2567 Tb2520 2.428 . S
O2567 C2584 1.256 . S
O2568 Tb2520 2.308 . S
O2568 C2583 1.266 . S
O2569 Tb2531 2.393 . S
O2569 C2583 1.248 . S
O2570 Tb2531 2.465 . S
O2570 C2595 1.264 . S
O2571 Tb2531 2.387 . S
O2571 C2587 1.264 . S
O2572 Tb2520 2.349 . S
O2572 C2587 1.243 . S
O2573 Tb2531 2.428 . S
O2573 C2595 1.256 . S
O2574 Tb2531 2.308 . S
O2574 C2594 1.266 . S
O2575 Tb2520 2.393 . S
O2575 C2594 1.248 . S
C2576 O2565 1.264 . S
C2576 O2566 1.243 . S
C2577 C2580 1.399 . S
C2577 C2582 1.383 . S
C2577 C2584 1.496 . S
C2578 C2579 1.399 . S
C2578 C2582 1.389 . S
C2579 C2578 1.399 . S
C2579 C2581 1.380 . S
C2579 H2596 0.929 . S
C2580 C2577 1.399 . S
C2580 C2581 1.392 . S
C2580 H2597 0.929 . S
C2581 C2579 1.380 . S
C2581 C2580 1.392 . S
C2581 H2598 0.929 . S
C2582 C2577 1.383 . S
C2582 C2578 1.389 . S
C2582 H2599 0.931 . S
C2583 O2568 1.266 . S
C2583 O2569 1.248 . S
C2584 Tb2520 2.802 . S
C2584 O2564 1.264 . S
C2584 O2567 1.256 . S
C2584 C2577 1.496 . S
C2585 C2552 1.448 . S
C2585 H2562 0.930 . S
C2585 C2586 1.328 . S
C2586 C2557 1.427 . S
C2586 H2563 0.929 . S
C2586 C2585 1.328 . S
C2587 O2571 1.264 . S
C2587 O2572 1.243 . S
C2588 C2591 1.399 . S
C2588 C2592 1.383 . S
C2588 C2595 1.496 . S
C2589 C2590 1.399 . S
C2589 C2592 1.389 1_655 S
C2590 C2589 1.399 . S
C2590 C2593 1.380 . S
C2590 H2600 0.929 . S
C2591 C2588 1.399 . S
C2591 C2593 1.392 1_455 S
C2591 H2601 0.929 . S
C2592 C2588 1.383 . S
C2592 C2589 1.389 1_455 S
C2592 H2602 0.931 . S
C2593 C2590 1.380 . S
C2593 C2591 1.392 1_655 S
C2593 H2603 0.929 . S
C2594 O2574 1.266 . S
C2594 O2575 1.248 . S
C2595 Tb2531 2.802 . S
C2595 O2570 1.264 . S
C2595 O2573 1.256 . S
C2595 C2588 1.496 . S
H2596 C2579 0.929 . S
H2597 C2580 0.929 . S
H2598 C2581 0.929 . S
H2599 C2582 0.931 . S
H2600 C2590 0.929 . S
H2601 C2591 0.929 . S
H2602 C2592 0.931 . S
H2603 C2593 0.929 . S
Tb2604 N2633 2.617 . S
Tb2604 N2639 2.572 . S
Tb2604 O2648 2.465 . S
Tb2604 O2649 2.387 . S
Tb2604 O2651 2.428 . S
Tb2604 O2652 2.308 . S
Tb2604 O2656 2.349 . S
Tb2604 O2659 2.393 . S
Tb2604 C2668 2.802 . S
C2605 N2606 1.379 . S
C2605 C2608 1.416 . S
C2605 C2612 1.424 . S
N2606 C2605 1.379 . S
N2606 C2609 1.334 . S
N2606 Tb2615 2.617 . S
C2607 C2609 1.390 . S
C2607 C2610 1.339 . S
C2607 H2627 0.930 . S
C2608 C2605 1.416 . S
C2608 C2610 1.416 . S
C2608 C2614 1.448 . S
C2609 N2606 1.334 . S
C2609 C2607 1.390 . S
C2609 H2620 0.930 . S
C2610 C2607 1.339 . S
C2610 C2608 1.416 . S
C2610 H2631 0.930 . S
C2611 C2612 1.413 . S
C2611 C2613 1.427 . S
C2611 C2617 1.416 . S
C2612 C2605 1.424 . S
C2612 C2611 1.413 . S
C2612 N2616 1.361 . S
C2613 C2611 1.427 . S
C2613 C2614 1.328 . S
C2613 H2628 0.929 . S
C2614 C2608 1.448 . S
C2614 C2613 1.328 . S
C2614 H2629 0.930 . S
Tb2615 N2606 2.617 . S
Tb2615 N2616 2.572 . S
Tb2615 O2650 2.349 . S
Tb2615 O2653 2.393 . S
Tb2615 O2654 2.465 . S
Tb2615 O2655 2.387 . S
Tb2615 O2657 2.428 . S
Tb2615 O2658 2.308 . S
Tb2615 C2679 2.802 . S
N2616 C2612 1.361 . S
N2616 Tb2615 2.572 . S
N2616 C2618 1.340 . S
C2617 C2611 1.416 . S
C2617 C2619 1.332 . S
C2617 H2625 0.931 . S
C2618 N2616 1.340 . S
C2618 C2619 1.407 . S
C2618 H2624 0.930 . S
C2619 C2617 1.332 . S
C2619 C2618 1.407 . S
C2619 H2621 0.929 . S
H2620 C2609 0.930 . S
H2621 C2619 0.929 . S
H2622 C2637 0.930 . S
H2623 C2644 0.929 . S
H2624 C2618 0.930 . S
H2625 C2617 0.931 . S
H2626 C2640 0.930 . S
H2627 C2607 0.930 . S
H2628 C2613 0.929 . S
H2629 C2614 0.930 . S
H2630 C2635 0.930 . S
H2631 C2610 0.930 . S
H2632 C2643 0.931 . S
N2633 Tb2604 2.617 . S
N2633 C2634 1.379 . S
N2633 C2637 1.334 . S
C2634 N2633 1.379 . S
C2634 C2636 1.416 . S
C2634 C2642 1.424 . S
C2635 H2630 0.930 . S
C2635 C2637 1.390 . S
C2635 C2638 1.339 . S
C2636 C2634 1.416 . S
C2636 C2638 1.416 . S
C2636 C2669 1.448 . S
C2637 H2622 0.930 . S
C2637 N2633 1.334 . S
C2637 C2635 1.390 . S
C2638 C2635 1.339 . S
C2638 C2636 1.416 . S
C2638 H2645 0.930 . S
N2639 Tb2604 2.572 . S
N2639 C2640 1.340 . S
N2639 C2642 1.361 . S
C2640 H2626 0.930 . S
C2640 N2639 1.340 . S
C2640 C2644 1.407 . S
C2641 C2642 1.413 . S
C2641 C2643 1.416 . S
C2641 C2670 1.427 . S
C2642 C2634 1.424 . S
C2642 N2639 1.361 . S
C2642 C2641 1.413 . S
C2643 H2632 0.931 . S
C2643 C2641 1.416 . S
C2643 C2644 1.332 . S
C2644 H2623 0.929 . S
C2644 C2640 1.407 . S
C2644 C2643 1.332 . S
H2645 C2638 0.930 . S
H2646 C2669 0.930 . S
H2647 C2670 0.929 . S
O2648 Tb2604 2.465 . S
O2648 C2668 1.264 . S
O2649 Tb2604 2.387 . S
O2649 C2660 1.264 . S
O2650 Tb2615 2.349 . S
O2650 C2660 1.243 . S
O2651 Tb2604 2.428 . S
O2651 C2668 1.256 . S
O2652 Tb2604 2.308 . S
O2652 C2667 1.266 . S
O2653 Tb2615 2.393 . S
O2653 C2667 1.248 . S
O2654 Tb2615 2.465 . S
O2654 C2679 1.264 . S
O2655 Tb2615 2.387 . S
O2655 C2671 1.264 . S
O2656 Tb2604 2.349 . S
O2656 C2671 1.243 . S
O2657 Tb2615 2.428 . S
O2657 C2679 1.256 . S
O2658 Tb2615 2.308 . S
O2658 C2678 1.266 . S
O2659 Tb2604 2.393 . S
O2659 C2678 1.248 . S
C2660 O2649 1.264 . S
C2660 O2650 1.243 . S
C2661 C2664 1.399 . S
C2661 C2666 1.383 . S
C2661 C2668 1.496 . S
C2662 C2663 1.399 . S
C2662 C2666 1.389 . S
C2663 C2662 1.399 . S
C2663 C2665 1.380 . S
C2663 H2680 0.929 . S
C2664 C2661 1.399 . S
C2664 C2665 1.392 . S
C2664 H2681 0.929 . S
C2665 C2663 1.380 . S
C2665 C2664 1.392 . S
C2665 H2682 0.929 . S
C2666 C2661 1.383 . S
C2666 C2662 1.389 . S
C2666 H2683 0.931 . S
C2667 O2652 1.266 . S
C2667 O2653 1.248 . S
C2668 Tb2604 2.802 . S
C2668 O2648 1.264 . S
C2668 O2651 1.256 . S
C2668 C2661 1.496 . S
C2669 C2636 1.448 . S
C2669 H2646 0.930 . S
C2669 C2670 1.328 . S
C2670 C2641 1.427 . S
C2670 H2647 0.929 . S
C2670 C2669 1.328 . S
C2671 O2655 1.264 . S
C2671 O2656 1.243 . S
C2672 C2675 1.399 . S
C2672 C2676 1.383 . S
C2672 C2679 1.496 . S
C2673 C2674 1.399 . S
C2673 C2676 1.389 . S
C2674 C2673 1.399 . S
C2674 C2677 1.380 . S
C2674 H2684 0.929 . S
C2675 C2672 1.399 . S
C2675 C2677 1.392 . S
C2675 H2685 0.929 . S
C2676 C2672 1.383 . S
C2676 C2673 1.389 . S
C2676 H2686 0.931 . S
C2677 C2674 1.380 . S
C2677 C2675 1.392 . S
C2677 H2687 0.929 . S
C2678 O2658 1.266 . S
C2678 O2659 1.248 . S
C2679 Tb2615 2.802 . S
C2679 O2654 1.264 . S
C2679 O2657 1.256 . S
C2679 C2672 1.496 . S
H2680 C2663 0.929 . S
H2681 C2664 0.929 . S
H2682 C2665 0.929 . S
H2683 C2666 0.931 . S
H2684 C2674 0.929 . S
H2685 C2675 0.929 . S
H2686 C2676 0.931 . S
H2687 C2677 0.929 . S
C2688 C2689 1.369 . S
C2688 C2690 1.419 . S
C2688 H2692 0.930 . S
C2689 C2688 1.369 . S
C2689 C2698 1.429 . S
C2690 C2688 1.419 . S
C2690 C2691 1.363 . S
C2690 H2693 0.929 . S
C2691 C2690 1.363 . S
C2691 C2697 1.428 . S
H2692 C2688 0.930 . S
H2693 C2690 0.929 . S
S2694 N2695 1.613 . S
S2694 N2696 1.610 . S
N2695 S2694 1.613 . S
N2695 C2698 1.350 . S
N2696 S2694 1.610 . S
N2696 C2697 1.351 . S
C2697 C2691 1.428 . S
C2697 N2696 1.351 . S
C2697 C2698 1.434 . S
C2698 C2689 1.429 . S
C2698 N2695 1.350 . S
C2698 C2697 1.434 . S
C2699 C2700 1.369 . S
C2699 C2701 1.419 . S
C2699 H2703 0.930 . S
C2700 C2699 1.369 . S
C2700 C2709 1.429 . S
C2701 C2699 1.419 . S
C2701 C2702 1.363 . S
C2701 H2704 0.929 . S
C2702 C2701 1.363 . S
C2702 C2708 1.428 . S
H2703 C2699 0.930 . S
H2704 C2701 0.929 . S
S2705 N2706 1.613 . S
S2705 N2707 1.610 . S
N2706 S2705 1.613 . S
N2706 C2709 1.350 . S
N2707 S2705 1.610 . S
N2707 C2708 1.351 . S
C2708 C2702 1.428 . S
C2708 N2707 1.351 . S
C2708 C2709 1.434 . S
C2709 C2700 1.429 . S
C2709 N2706 1.350 . S
C2709 C2708 1.434 . S
C2710 C2711 1.369 . S
C2710 C2712 1.419 . S
C2710 H2714 0.930 . S
C2711 C2710 1.369 . S
C2711 C2720 1.429 . S
C2712 C2710 1.419 . S
C2712 C2713 1.363 . S
C2712 H2715 0.929 . S
C2713 C2712 1.363 . S
C2713 C2719 1.428 . S
H2714 C2710 0.930 . S
H2715 C2712 0.929 . S
S2716 N2717 1.613 . S
S2716 N2718 1.610 . S
N2717 S2716 1.613 . S
N2717 C2720 1.350 . S
N2718 S2716 1.610 . S
N2718 C2719 1.351 . S
C2719 C2713 1.428 . S
C2719 N2718 1.351 . S
C2719 C2720 1.434 . S
C2720 C2711 1.429 . S
C2720 N2717 1.350 . S
C2720 C2719 1.434 . S
C2721 C2722 1.369 . S
C2721 C2723 1.419 . S
C2721 H2725 0.930 . S
C2722 C2721 1.369 . S
C2722 C2731 1.429 . S
C2723 C2721 1.419 . S
C2723 C2724 1.363 . S
C2723 H2726 0.929 . S
C2724 C2723 1.363 . S
C2724 C2730 1.428 . S
H2725 C2721 0.930 . S
H2726 C2723 0.929 . S
S2727 N2728 1.613 . S
S2727 N2729 1.610 . S
N2728 S2727 1.613 . S
N2728 C2731 1.350 . S
N2729 S2727 1.610 . S
N2729 C2730 1.351 . S
C2730 C2724 1.428 . S
C2730 N2729 1.351 . S
C2730 C2731 1.434 . S
C2731 C2722 1.429 . S
C2731 N2728 1.350 . S
C2731 C2730 1.434 . S
C2732 C2733 1.369 . S
C2732 C2734 1.419 . S
C2732 H2736 0.930 . S
C2733 C2732 1.369 . S
C2733 C2742 1.429 . S
C2734 C2732 1.419 . S
C2734 C2735 1.363 . S
C2734 H2737 0.929 . S
C2735 C2734 1.363 . S
C2735 C2741 1.428 . S
H2736 C2732 0.930 . S
H2737 C2734 0.929 . S
S2738 N2739 1.613 . S
S2738 N2740 1.610 . S
N2739 S2738 1.613 . S
N2739 C2742 1.350 . S
N2740 S2738 1.610 . S
N2740 C2741 1.351 . S
C2741 C2735 1.428 . S
C2741 N2740 1.351 . S
C2741 C2742 1.434 . S
C2742 C2733 1.429 . S
C2742 N2739 1.350 . S
C2742 C2741 1.434 . S
C2743 C2744 1.369 . S
C2743 C2745 1.419 . S
C2743 H2747 0.930 . S
C2744 C2743 1.369 . S
C2744 C2753 1.429 . S
C2745 C2743 1.419 . S
C2745 C2746 1.363 . S
C2745 H2748 0.929 . S
C2746 C2745 1.363 . S
C2746 C2752 1.428 . S
H2747 C2743 0.930 . S
H2748 C2745 0.929 . S
S2749 N2750 1.613 . S
S2749 N2751 1.610 . S
N2750 S2749 1.613 . S
N2750 C2753 1.350 . S
N2751 S2749 1.610 . S
N2751 C2752 1.351 . S
C2752 C2746 1.428 . S
C2752 N2751 1.351 . S
C2752 C2753 1.434 . S
C2753 C2744 1.429 . S
C2753 N2750 1.350 . S
C2753 C2752 1.434 . S
C2754 C2755 1.369 . S
C2754 C2756 1.419 . S
C2754 H2758 0.930 . S
C2755 C2754 1.369 . S
C2755 C2764 1.429 . S
C2756 C2754 1.419 . S
C2756 C2757 1.363 . S
C2756 H2759 0.929 . S
C2757 C2756 1.363 . S
C2757 C2763 1.428 . S
H2758 C2754 0.930 . S
H2759 C2756 0.929 . S
S2760 N2761 1.613 . S
S2760 N2762 1.610 . S
N2761 S2760 1.613 . S
N2761 C2764 1.350 . S
N2762 S2760 1.610 . S
N2762 C2763 1.351 . S
C2763 C2757 1.428 . S
C2763 N2762 1.351 . S
C2763 C2764 1.434 . S
C2764 C2755 1.429 . S
C2764 N2761 1.350 . S
C2764 C2763 1.434 . S
C2765 C2766 1.369 . S
C2765 C2767 1.419 . S
C2765 H2769 0.930 . S
C2766 C2765 1.369 . S
C2766 C2775 1.429 . S
C2767 C2765 1.419 . S
C2767 C2768 1.363 . S
C2767 H2770 0.929 . S
C2768 C2767 1.363 . S
C2768 C2774 1.428 . S
H2769 C2765 0.930 . S
H2770 C2767 0.929 . S
S2771 N2772 1.613 . S
S2771 N2773 1.610 . S
N2772 S2771 1.613 . S
N2772 C2775 1.350 . S
N2773 S2771 1.610 . S
N2773 C2774 1.351 . S
C2774 C2768 1.428 . S
C2774 N2773 1.351 . S
C2774 C2775 1.434 . S
C2775 C2766 1.429 . S
C2775 N2772 1.350 . S
C2775 C2774 1.434 . S
C2776 C2777 1.369 . S
C2776 C2778 1.419 . S
C2776 H2780 0.930 . S
C2777 C2776 1.369 . S
C2777 C2786 1.429 . S
C2778 C2776 1.419 . S
C2778 C2779 1.363 . S
C2778 H2781 0.929 . S
C2779 C2778 1.363 . S
C2779 C2785 1.428 . S
H2780 C2776 0.930 . S
H2781 C2778 0.929 . S
S2782 N2783 1.613 . S
S2782 N2784 1.610 . S
N2783 S2782 1.613 . S
N2783 C2786 1.350 . S
N2784 S2782 1.610 . S
N2784 C2785 1.351 . S
C2785 C2779 1.428 . S
C2785 N2784 1.351 . S
C2785 C2786 1.434 . S
C2786 C2777 1.429 . S
C2786 N2783 1.350 . S
C2786 C2785 1.434 . S
C2787 C2788 1.369 . S
C2787 C2789 1.419 . S
C2787 H2791 0.930 . S
C2788 C2787 1.369 . S
C2788 C2797 1.429 . S
C2789 C2787 1.419 . S
C2789 C2790 1.363 . S
C2789 H2792 0.929 . S
C2790 C2789 1.363 . S
C2790 C2796 1.428 . S
H2791 C2787 0.930 . S
H2792 C2789 0.929 . S
S2793 N2794 1.613 . S
S2793 N2795 1.610 . S
N2794 S2793 1.613 . S
N2794 C2797 1.350 . S
N2795 S2793 1.610 . S
N2795 C2796 1.351 . S
C2796 C2790 1.428 . S
C2796 N2795 1.351 . S
C2796 C2797 1.434 . S
C2797 C2788 1.429 . S
C2797 N2794 1.350 . S
C2797 C2796 1.434 . S
C2798 C2799 1.369 . S
C2798 C2800 1.419 . S
C2798 H2802 0.930 . S
C2799 C2798 1.369 . S
C2799 C2808 1.429 . S
C2800 C2798 1.419 . S
C2800 C2801 1.363 . S
C2800 H2803 0.929 . S
C2801 C2800 1.363 . S
C2801 C2807 1.428 . S
H2802 C2798 0.930 . S
H2803 C2800 0.929 . S
S2804 N2805 1.613 . S
S2804 N2806 1.610 . S
N2805 S2804 1.613 . S
N2805 C2808 1.350 . S
N2806 S2804 1.610 . S
N2806 C2807 1.351 . S
C2807 C2801 1.428 . S
C2807 N2806 1.351 . S
C2807 C2808 1.434 . S
C2808 C2799 1.429 . S
C2808 N2805 1.350 . S
C2808 C2807 1.434 . S
C2809 C2810 1.369 . S
C2809 C2811 1.419 . S
C2809 H2813 0.930 . S
C2810 C2809 1.369 . S
C2810 C2819 1.429 . S
C2811 C2809 1.419 . S
C2811 C2812 1.363 . S
C2811 H2814 0.929 . S
C2812 C2811 1.363 . S
C2812 C2818 1.428 . S
H2813 C2809 0.930 . S
H2814 C2811 0.929 . S
S2815 N2816 1.613 . S
S2815 N2817 1.610 . S
N2816 S2815 1.613 . S
N2816 C2819 1.350 . S
N2817 S2815 1.610 . S
N2817 C2818 1.351 . S
C2818 C2812 1.428 . S
C2818 N2817 1.351 . S
C2818 C2819 1.434 . S
C2819 C2810 1.429 . S
C2819 N2816 1.350 . S
C2819 C2818 1.434 . S
C2820 C2821 1.369 . S
C2820 C2822 1.419 . S
C2820 H2824 0.930 . S
C2821 C2820 1.369 . S
C2821 C2830 1.429 . S
C2822 C2820 1.419 . S
C2822 C2823 1.363 . S
C2822 H2825 0.929 . S
C2823 C2822 1.363 . S
C2823 C2829 1.428 . S
H2824 C2820 0.930 . S
H2825 C2822 0.929 . S
S2826 N2827 1.613 . S
S2826 N2828 1.610 . S
N2827 S2826 1.613 . S
N2827 C2830 1.350 . S
N2828 S2826 1.610 . S
N2828 C2829 1.351 . S
C2829 C2823 1.428 . S
C2829 N2828 1.351 . S
C2829 C2830 1.434 . S
C2830 C2821 1.429 . S
C2830 N2827 1.350 . S
C2830 C2829 1.434 . S
C2831 C2832 1.369 . S
C2831 C2833 1.419 . S
C2831 H2835 0.930 . S
C2832 C2831 1.369 . S
C2832 C2841 1.429 . S
C2833 C2831 1.419 . S
C2833 C2834 1.363 . S
C2833 H2836 0.929 . S
C2834 C2833 1.363 . S
C2834 C2840 1.428 . S
H2835 C2831 0.930 . S
H2836 C2833 0.929 . S
S2837 N2838 1.613 . S
S2837 N2839 1.610 . S
N2838 S2837 1.613 . S
N2838 C2841 1.350 . S
N2839 S2837 1.610 . S
N2839 C2840 1.351 . S
C2840 C2834 1.428 . S
C2840 N2839 1.351 . S
C2840 C2841 1.434 . S
C2841 C2832 1.429 . S
C2841 N2838 1.350 . S
C2841 C2840 1.434 . S
C2842 C2843 1.369 . S
C2842 C2844 1.419 . S
C2842 H2846 0.930 . S
C2843 C2842 1.369 . S
C2843 C2852 1.429 . S
C2844 C2842 1.419 . S
C2844 C2845 1.363 . S
C2844 H2847 0.929 . S
C2845 C2844 1.363 . S
C2845 C2851 1.428 . S
H2846 C2842 0.930 . S
H2847 C2844 0.929 . S
S2848 N2849 1.613 . S
S2848 N2850 1.610 . S
N2849 S2848 1.613 . S
N2849 C2852 1.350 . S
N2850 S2848 1.610 . S
N2850 C2851 1.351 . S
C2851 C2845 1.428 . S
C2851 N2850 1.351 . S
C2851 C2852 1.434 . S
C2852 C2843 1.429 . S
C2852 N2849 1.350 . S
C2852 C2851 1.434 . S
C2853 C2854 1.369 . S
C2853 C2855 1.419 . S
C2853 H2857 0.930 . S
C2854 C2853 1.369 . S
C2854 C2863 1.429 . S
C2855 C2853 1.419 . S
C2855 C2856 1.363 . S
C2855 H2858 0.929 . S
C2856 C2855 1.363 . S
C2856 C2862 1.428 . S
H2857 C2853 0.930 . S
H2858 C2855 0.929 . S
S2859 N2860 1.613 1_565 S
S2859 N2861 1.610 . S
N2860 S2859 1.613 1_545 S
N2860 C2863 1.350 . S
N2861 S2859 1.610 . S
N2861 C2862 1.351 1_565 S
C2862 C2856 1.428 . S
C2862 N2861 1.351 1_545 S
C2862 C2863 1.434 . S
C2863 C2854 1.429 . S
C2863 N2860 1.350 . S
C2863 C2862 1.434 . S
C2864 C2865 1.369 . S
C2864 C2866 1.419 . S
C2864 H2868 0.930 . S
C2865 C2864 1.369 . S
C2865 C2874 1.429 . S
C2866 C2864 1.419 . S
C2866 C2867 1.363 . S
C2866 H2869 0.929 . S
C2867 C2866 1.363 . S
C2867 C2873 1.428 . S
H2868 C2864 0.930 . S
H2869 C2866 0.929 . S
S2870 N2871 1.613 . S
S2870 N2872 1.610 . S
N2871 S2870 1.613 . S
N2871 C2874 1.350 . S
N2872 S2870 1.610 . S
N2872 C2873 1.351 . S
C2873 C2867 1.428 . S
C2873 N2872 1.351 . S
C2873 C2874 1.434 . S
C2874 C2865 1.429 . S
C2874 N2871 1.350 . S
C2874 C2873 1.434 . S
C2875 C2876 1.369 . S
C2875 C2877 1.419 . S
C2875 H2879 0.930 . S
C2876 C2875 1.369 . S
C2876 C2885 1.429 . S
C2877 C2875 1.419 . S
C2877 C2878 1.363 . S
C2877 H2880 0.929 . S
C2878 C2877 1.363 . S
C2878 C2884 1.428 . S
H2879 C2875 0.930 . S
H2880 C2877 0.929 . S
S2881 N2882 1.613 . S
S2881 N2883 1.610 . S
N2882 S2881 1.613 . S
N2882 C2885 1.350 . S
N2883 S2881 1.610 . S
N2883 C2884 1.351 . S
C2884 C2878 1.428 . S
C2884 N2883 1.351 . S
C2884 C2885 1.434 . S
C2885 C2876 1.429 . S
C2885 N2882 1.350 . S
C2885 C2884 1.434 . S
C2886 C2887 1.369 . S
C2886 C2888 1.419 . S
C2886 H2890 0.930 . S
C2887 C2886 1.369 . S
C2887 C2896 1.429 . S
C2888 C2886 1.419 . S
C2888 C2889 1.363 . S
C2888 H2891 0.929 . S
C2889 C2888 1.363 . S
C2889 C2895 1.428 . S
H2890 C2886 0.930 . S
H2891 C2888 0.929 . S
S2892 N2893 1.613 . S
S2892 N2894 1.610 . S
N2893 S2892 1.613 . S
N2893 C2896 1.350 . S
N2894 S2892 1.610 . S
N2894 C2895 1.351 . S
C2895 C2889 1.428 . S
C2895 N2894 1.351 . S
C2895 C2896 1.434 . S
C2896 C2887 1.429 . S
C2896 N2893 1.350 . S
C2896 C2895 1.434 . S
C2897 C2898 1.369 . S
C2897 C2899 1.419 . S
C2897 H2901 0.930 . S
C2898 C2897 1.369 . S
C2898 C2907 1.429 . S
C2899 C2897 1.419 . S
C2899 C2900 1.363 . S
C2899 H2902 0.929 . S
C2900 C2899 1.363 . S
C2900 C2906 1.428 . S
H2901 C2897 0.930 . S
H2902 C2899 0.929 . S
S2903 N2904 1.613 . S
S2903 N2905 1.610 . S
N2904 S2903 1.613 . S
N2904 C2907 1.350 . S
N2905 S2903 1.610 . S
N2905 C2906 1.351 . S
C2906 C2900 1.428 . S
C2906 N2905 1.351 . S
C2906 C2907 1.434 . S
C2907 C2898 1.429 . S
C2907 N2904 1.350 . S
C2907 C2906 1.434 . S
C2908 C2909 1.369 . S
C2908 C2910 1.419 . S
C2908 H2912 0.930 . S
C2909 C2908 1.369 . S
C2909 C2918 1.429 . S
C2910 C2908 1.419 . S
C2910 C2911 1.363 . S
C2910 H2913 0.929 . S
C2911 C2910 1.363 . S
C2911 C2917 1.428 . S
H2912 C2908 0.930 . S
H2913 C2910 0.929 . S
S2914 N2915 1.613 . S
S2914 N2916 1.610 . S
N2915 S2914 1.613 . S
N2915 C2918 1.350 . S
N2916 S2914 1.610 . S
N2916 C2917 1.351 . S
C2917 C2911 1.428 . S
C2917 N2916 1.351 . S
C2917 C2918 1.434 . S
C2918 C2909 1.429 . S
C2918 N2915 1.350 . S
C2918 C2917 1.434 . S
C2919 C2920 1.369 . S
C2919 C2921 1.419 . S
C2919 H2923 0.930 . S
C2920 C2919 1.369 . S
C2920 C2929 1.429 . S
C2921 C2919 1.419 . S
C2921 C2922 1.363 . S
C2921 H2924 0.929 . S
C2922 C2921 1.363 . S
C2922 C2928 1.428 . S
H2923 C2919 0.930 . S
H2924 C2921 0.929 . S
S2925 N2926 1.613 . S
S2925 N2927 1.610 . S
N2926 S2925 1.613 . S
N2926 C2929 1.350 . S
N2927 S2925 1.610 . S
N2927 C2928 1.351 . S
C2928 C2922 1.428 . S
C2928 N2927 1.351 . S
C2928 C2929 1.434 . S
C2929 C2920 1.429 . S
C2929 N2926 1.350 . S
C2929 C2928 1.434 . S
C2930 C2931 1.369 . S
C2930 C2932 1.419 . S
C2930 H2934 0.930 . S
C2931 C2930 1.369 . S
C2931 C2940 1.429 . S
C2932 C2930 1.419 . S
C2932 C2933 1.363 . S
C2932 H2935 0.929 . S
C2933 C2932 1.363 . S
C2933 C2939 1.428 . S
H2934 C2930 0.930 . S
H2935 C2932 0.929 . S
S2936 N2937 1.613 . S
S2936 N2938 1.610 . S
N2937 S2936 1.613 . S
N2937 C2940 1.350 . S
N2938 S2936 1.610 . S
N2938 C2939 1.351 . S
C2939 C2933 1.428 . S
C2939 N2938 1.351 . S
C2939 C2940 1.434 . S
C2940 C2931 1.429 . S
C2940 N2937 1.350 . S
C2940 C2939 1.434 . S
C2941 C2942 1.369 . S
C2941 C2943 1.419 . S
C2941 H2945 0.930 . S
C2942 C2941 1.369 . S
C2942 C2951 1.429 . S
C2943 C2941 1.419 . S
C2943 C2944 1.363 . S
C2943 H2946 0.929 . S
C2944 C2943 1.363 . S
C2944 C2950 1.428 . S
H2945 C2941 0.930 . S
H2946 C2943 0.929 . S
S2947 N2948 1.613 . S
S2947 N2949 1.610 . S
N2948 S2947 1.613 . S
N2948 C2951 1.350 . S
N2949 S2947 1.610 . S
N2949 C2950 1.351 . S
C2950 C2944 1.428 . S
C2950 N2949 1.351 . S
C2950 C2951 1.434 . S
C2951 C2942 1.429 . S
C2951 N2948 1.350 . S
C2951 C2950 1.434 . S
C2952 C2953 1.369 . S
C2952 C2954 1.419 . S
C2952 H2956 0.930 . S
C2953 C2952 1.369 . S
C2953 C2962 1.429 . S
C2954 C2952 1.419 . S
C2954 C2955 1.363 . S
C2954 H2957 0.929 . S
C2955 C2954 1.363 . S
C2955 C2961 1.428 . S
H2956 C2952 0.930 . S
H2957 C2954 0.929 . S
S2958 N2959 1.613 . S
S2958 N2960 1.610 . S
N2959 S2958 1.613 . S
N2959 C2962 1.350 . S
N2960 S2958 1.610 . S
N2960 C2961 1.351 . S
C2961 C2955 1.428 . S
C2961 N2960 1.351 . S
C2961 C2962 1.434 . S
C2962 C2953 1.429 . S
C2962 N2959 1.350 . S
C2962 C2961 1.434 . S
C2963 C2964 1.369 . S
C2963 C2965 1.419 . S
C2963 H2967 0.930 . S
C2964 C2963 1.369 . S
C2964 C2973 1.429 . S
C2965 C2963 1.419 . S
C2965 C2966 1.363 . S
C2965 H2968 0.929 . S
C2966 C2965 1.363 . S
C2966 C2972 1.428 . S
H2967 C2963 0.930 . S
H2968 C2965 0.929 . S
S2969 N2970 1.613 . S
S2969 N2971 1.610 . S
N2970 S2969 1.613 . S
N2970 C2973 1.350 . S
N2971 S2969 1.610 . S
N2971 C2972 1.351 . S
C2972 C2966 1.428 . S
C2972 N2971 1.351 . S
C2972 C2973 1.434 . S
C2973 C2964 1.429 . S
C2973 N2970 1.350 . S
C2973 C2972 1.434 . S
C2974 C2975 1.369 . S
C2974 C2976 1.419 . S
C2974 H2978 0.930 . S
C2975 C2974 1.369 . S
C2975 C2984 1.429 . S
C2976 C2974 1.419 . S
C2976 C2977 1.363 . S
C2976 H2979 0.929 . S
C2977 C2976 1.363 . S
C2977 C2983 1.428 . S
H2978 C2974 0.930 . S
H2979 C2976 0.929 . S
S2980 N2981 1.613 . S
S2980 N2982 1.610 . S
N2981 S2980 1.613 . S
N2981 C2984 1.350 . S
N2982 S2980 1.610 . S
N2982 C2983 1.351 . S
C2983 C2977 1.428 . S
C2983 N2982 1.351 . S
C2983 C2984 1.434 . S
C2984 C2975 1.429 . S
C2984 N2981 1.350 . S
C2984 C2983 1.434 . S
C2985 C2986 1.369 . S
C2985 C2987 1.419 . S
C2985 H2989 0.930 . S
C2986 C2985 1.369 . S
C2986 C2995 1.429 . S
C2987 C2985 1.419 . S
C2987 C2988 1.363 . S
C2987 H2990 0.929 . S
C2988 C2987 1.363 . S
C2988 C2994 1.428 . S
H2989 C2985 0.930 . S
H2990 C2987 0.929 . S
S2991 N2992 1.613 . S
S2991 N2993 1.610 . S
N2992 S2991 1.613 . S
N2992 C2995 1.350 . S
N2993 S2991 1.610 . S
N2993 C2994 1.351 . S
C2994 C2988 1.428 . S
C2994 N2993 1.351 . S
C2994 C2995 1.434 . S
C2995 C2986 1.429 . S
C2995 N2992 1.350 . S
C2995 C2994 1.434 . S
C2996 C2997 1.369 . S
C2996 C2998 1.419 . S
C2996 H3000 0.930 . S
C2997 C2996 1.369 . S
C2997 C3006 1.429 . S
C2998 C2996 1.419 . S
C2998 C2999 1.363 . S
C2998 H3001 0.929 . S
C2999 C2998 1.363 . S
C2999 C3005 1.428 . S
H3000 C2996 0.930 . S
H3001 C2998 0.929 . S
S3002 N3003 1.613 . S
S3002 N3004 1.610 . S
N3003 S3002 1.613 . S
N3003 C3006 1.350 . S
N3004 S3002 1.610 . S
N3004 C3005 1.351 . S
C3005 C2999 1.428 . S
C3005 N3004 1.351 . S
C3005 C3006 1.434 . S
C3006 C2997 1.429 . S
C3006 N3003 1.350 . S
C3006 C3005 1.434 . S
C3007 C3008 1.369 . S
C3007 C3009 1.419 . S
C3007 H3011 0.930 . S
C3008 C3007 1.369 . S
C3008 C3017 1.429 . S
C3009 C3007 1.419 . S
C3009 C3010 1.363 . S
C3009 H3012 0.929 . S
C3010 C3009 1.363 . S
C3010 C3016 1.428 . S
H3011 C3007 0.930 . S
H3012 C3009 0.929 . S
S3013 N3014 1.613 . S
S3013 N3015 1.610 . S
N3014 S3013 1.613 . S
N3014 C3017 1.350 . S
N3015 S3013 1.610 . S
N3015 C3016 1.351 . S
C3016 C3010 1.428 . S
C3016 N3015 1.351 . S
C3016 C3017 1.434 . S
C3017 C3008 1.429 . S
C3017 N3014 1.350 . S
C3017 C3016 1.434 . S
C3018 C3019 1.369 . S
C3018 C3020 1.419 . S
C3018 H3022 0.930 . S
C3019 C3018 1.369 . S
C3019 C3028 1.429 . S
C3020 C3018 1.419 . S
C3020 C3021 1.363 . S
C3020 H3023 0.929 . S
C3021 C3020 1.363 . S
C3021 C3027 1.428 . S
H3022 C3018 0.930 . S
H3023 C3020 0.929 . S
S3024 N3025 1.613 . S
S3024 N3026 1.610 . S
N3025 S3024 1.613 . S
N3025 C3028 1.350 . S
N3026 S3024 1.610 . S
N3026 C3027 1.351 . S
C3027 C3021 1.428 . S
C3027 N3026 1.351 . S
C3027 C3028 1.434 . S
C3028 C3019 1.429 . S
C3028 N3025 1.350 . S
C3028 C3027 1.434 . S
C3029 C3030 1.369 . S
C3029 C3031 1.419 . S
C3029 H3033 0.930 . S
C3030 C3029 1.369 . S
C3030 C3039 1.429 . S
C3031 C3029 1.419 . S
C3031 C3032 1.363 . S
C3031 H3034 0.929 . S
C3032 C3031 1.363 . S
C3032 C3038 1.428 . S
H3033 C3029 0.930 . S
H3034 C3031 0.929 . S
S3035 N3036 1.613 . S
S3035 N3037 1.610 . S
N3036 S3035 1.613 . S
N3036 C3039 1.350 . S
N3037 S3035 1.610 . S
N3037 C3038 1.351 . S
C3038 C3032 1.428 . S
C3038 N3037 1.351 . S
C3038 C3039 1.434 . S
C3039 C3030 1.429 . S
C3039 N3036 1.350 . S
C3039 C3038 1.434 . S
C3040 C3041 1.369 . S
C3040 C3042 1.419 . S
C3040 H3044 0.930 . S
C3041 C3040 1.369 . S
C3041 C3050 1.429 . S
C3042 C3040 1.419 . S
C3042 C3043 1.363 . S
C3042 H3045 0.929 . S
C3043 C3042 1.363 . S
C3043 C3049 1.428 . S
H3044 C3040 0.930 . S
H3045 C3042 0.929 . S
S3046 N3047 1.613 . S
S3046 N3048 1.610 . S
N3047 S3046 1.613 . S
N3047 C3050 1.350 . S
N3048 S3046 1.610 . S
N3048 C3049 1.351 . S
C3049 C3043 1.428 . S
C3049 N3048 1.351 . S
C3049 C3050 1.434 . S
C3050 C3041 1.429 . S
C3050 N3047 1.350 . S
C3050 C3049 1.434 . S
C3051 C3052 1.369 . S
C3051 C3053 1.419 . S
C3051 H3055 0.930 . S
C3052 C3051 1.369 . S
C3052 C3061 1.429 . S
C3053 C3051 1.419 . S
C3053 C3054 1.363 . S
C3053 H3056 0.929 . S
C3054 C3053 1.363 . S
C3054 C3060 1.428 . S
H3055 C3051 0.930 . S
H3056 C3053 0.929 . S
S3057 N3058 1.613 . S
S3057 N3059 1.610 . S
N3058 S3057 1.613 . S
N3058 C3061 1.350 . S
N3059 S3057 1.610 . S
N3059 C3060 1.351 . S
C3060 C3054 1.428 . S
C3060 N3059 1.351 . S
C3060 C3061 1.434 . S
C3061 C3052 1.429 . S
C3061 N3058 1.350 . S
C3061 C3060 1.434 . S
C3062 C3063 1.369 . S
C3062 C3064 1.419 . S
C3062 H3066 0.930 . S
C3063 C3062 1.369 . S
C3063 C3072 1.429 . S
C3064 C3062 1.419 . S
C3064 C3065 1.363 . S
C3064 H3067 0.929 . S
C3065 C3064 1.363 . S
C3065 C3071 1.428 . S
H3066 C3062 0.930 . S
H3067 C3064 0.929 . S
S3068 N3069 1.613 . S
S3068 N3070 1.610 . S
N3069 S3068 1.613 . S
N3069 C3072 1.350 . S
N3070 S3068 1.610 . S
N3070 C3071 1.351 . S
C3071 C3065 1.428 . S
C3071 N3070 1.351 . S
C3071 C3072 1.434 . S
C3072 C3063 1.429 . S
C3072 N3069 1.350 . S
C3072 C3071 1.434 . S
C3073 C3074 1.369 . S
C3073 C3075 1.419 . S
C3073 H3077 0.930 . S
C3074 C3073 1.369 . S
C3074 C3083 1.429 . S
C3075 C3073 1.419 . S
C3075 C3076 1.363 . S
C3075 H3078 0.929 . S
C3076 C3075 1.363 . S
C3076 C3082 1.428 . S
H3077 C3073 0.930 . S
H3078 C3075 0.929 . S
S3079 N3080 1.613 . S
S3079 N3081 1.610 . S
N3080 S3079 1.613 . S
N3080 C3083 1.350 . S
N3081 S3079 1.610 . S
N3081 C3082 1.351 . S
C3082 C3076 1.428 . S
C3082 N3081 1.351 . S
C3082 C3083 1.434 . S
C3083 C3074 1.429 . S
C3083 N3080 1.350 . S
C3083 C3082 1.434 . S
C3084 C3085 1.369 . S
C3084 C3086 1.419 . S
C3084 H3088 0.930 . S
C3085 C3084 1.369 . S
C3085 C3094 1.429 . S
C3086 C3084 1.419 . S
C3086 C3087 1.363 . S
C3086 H3089 0.929 . S
C3087 C3086 1.363 . S
C3087 C3093 1.428 . S
H3088 C3084 0.930 . S
H3089 C3086 0.929 . S
S3090 N3091 1.613 . S
S3090 N3092 1.610 . S
N3091 S3090 1.613 . S
N3091 C3094 1.350 . S
N3092 S3090 1.610 . S
N3092 C3093 1.351 . S
C3093 C3087 1.428 . S
C3093 N3092 1.351 . S
C3093 C3094 1.434 . S
C3094 C3085 1.429 . S
C3094 N3091 1.350 . S
C3094 C3093 1.434 . S
C3095 C3096 1.369 . S
C3095 C3097 1.419 . S
C3095 H3099 0.930 . S
C3096 C3095 1.369 . S
C3096 C3105 1.429 . S
C3097 C3095 1.419 . S
C3097 C3098 1.363 . S
C3097 H3100 0.929 . S
C3098 C3097 1.363 . S
C3098 C3104 1.428 . S
H3099 C3095 0.930 . S
H3100 C3097 0.929 . S
S3101 N3102 1.613 . S
S3101 N3103 1.610 . S
N3102 S3101 1.613 . S
N3102 C3105 1.350 . S
N3103 S3101 1.610 . S
N3103 C3104 1.351 . S
C3104 C3098 1.428 . S
C3104 N3103 1.351 . S
C3104 C3105 1.434 . S
C3105 C3096 1.429 . S
C3105 N3102 1.350 . S
C3105 C3104 1.434 . S
C3106 C3107 1.369 . S
C3106 C3108 1.419 . S
C3106 H3110 0.930 . S
C3107 C3106 1.369 . S
C3107 C3116 1.429 . S
C3108 C3106 1.419 . S
C3108 C3109 1.363 . S
C3108 H3111 0.929 . S
C3109 C3108 1.363 . S
C3109 C3115 1.428 . S
H3110 C3106 0.930 . S
H3111 C3108 0.929 . S
S3112 N3113 1.613 . S
S3112 N3114 1.610 . S
N3113 S3112 1.613 . S
N3113 C3116 1.350 . S
N3114 S3112 1.610 . S
N3114 C3115 1.351 . S
C3115 C3109 1.428 . S
C3115 N3114 1.351 . S
C3115 C3116 1.434 . S
C3116 C3107 1.429 . S
C3116 N3113 1.350 . S
C3116 C3115 1.434 . S
C3117 C3118 1.369 . S
C3117 C3119 1.419 . S
C3117 H3121 0.930 . S
C3118 C3117 1.369 . S
C3118 C3127 1.429 . S
C3119 C3117 1.419 . S
C3119 C3120 1.363 . S
C3119 H3122 0.929 . S
C3120 C3119 1.363 . S
C3120 C3126 1.428 . S
H3121 C3117 0.930 . S
H3122 C3119 0.929 . S
S3123 N3124 1.613 . S
S3123 N3125 1.610 . S
N3124 S3123 1.613 . S
N3124 C3127 1.350 . S
N3125 S3123 1.610 . S
N3125 C3126 1.351 . S
C3126 C3120 1.428 . S
C3126 N3125 1.351 . S
C3126 C3127 1.434 . S
C3127 C3118 1.429 . S
C3127 N3124 1.350 . S
C3127 C3126 1.434 . S
C3128 C3129 1.369 . S
C3128 C3130 1.419 . S
C3128 H3132 0.930 . S
C3129 C3128 1.369 . S
C3129 C3138 1.429 . S
C3130 C3128 1.419 . S
C3130 C3131 1.363 . S
C3130 H3133 0.929 . S
C3131 C3130 1.363 . S
C3131 C3137 1.428 . S
H3132 C3128 0.930 . S
H3133 C3130 0.929 . S
S3134 N3135 1.613 . S
S3134 N3136 1.610 . S
N3135 S3134 1.613 . S
N3135 C3138 1.350 . S
N3136 S3134 1.610 . S
N3136 C3137 1.351 . S
C3137 C3131 1.428 . S
C3137 N3136 1.351 . S
C3137 C3138 1.434 . S
C3138 C3129 1.429 . S
C3138 N3135 1.350 . S
C3138 C3137 1.434 . S
C3139 C3140 1.369 . S
C3139 C3141 1.419 . S
C3139 H3143 0.930 . S
C3140 C3139 1.369 . S
C3140 C3149 1.429 . S
C3141 C3139 1.419 . S
C3141 C3142 1.363 . S
C3141 H3144 0.929 . S
C3142 C3141 1.363 . S
C3142 C3148 1.428 . S
H3143 C3139 0.930 . S
H3144 C3141 0.929 . S
S3145 N3146 1.613 . S
S3145 N3147 1.610 . S
N3146 S3145 1.613 . S
N3146 C3149 1.350 . S
N3147 S3145 1.610 . S
N3147 C3148 1.351 . S
C3148 C3142 1.428 . S
C3148 N3147 1.351 . S
C3148 C3149 1.434 . S
C3149 C3140 1.429 . S
C3149 N3146 1.350 . S
C3149 C3148 1.434 . S
C3150 C3151 1.369 . S
C3150 C3152 1.419 . S
C3150 H3154 0.930 . S
C3151 C3150 1.369 . S
C3151 C3160 1.429 . S
C3152 C3150 1.419 . S
C3152 C3153 1.363 . S
C3152 H3155 0.929 . S
C3153 C3152 1.363 . S
C3153 C3159 1.428 . S
H3154 C3150 0.930 . S
H3155 C3152 0.929 . S
S3156 N3157 1.613 . S
S3156 N3158 1.610 . S
N3157 S3156 1.613 . S
N3157 C3160 1.350 . S
N3158 S3156 1.610 . S
N3158 C3159 1.351 . S
C3159 C3153 1.428 . S
C3159 N3158 1.351 . S
C3159 C3160 1.434 . S
C3160 C3151 1.429 . S
C3160 N3157 1.350 . S
C3160 C3159 1.434 . S
C3161 C3162 1.369 . S
C3161 C3163 1.419 . S
C3161 H3165 0.930 . S
C3162 C3161 1.369 . S
C3162 C3171 1.429 . S
C3163 C3161 1.419 . S
C3163 C3164 1.363 . S
C3163 H3166 0.929 . S
C3164 C3163 1.363 . S
C3164 C3170 1.428 . S
H3165 C3161 0.930 . S
H3166 C3163 0.929 . S
S3167 N3168 1.613 . S
S3167 N3169 1.610 . S
N3168 S3167 1.613 . S
N3168 C3171 1.350 . S
N3169 S3167 1.610 . S
N3169 C3170 1.351 . S
C3170 C3164 1.428 . S
C3170 N3169 1.351 . S
C3170 C3171 1.434 . S
C3171 C3162 1.429 . S
C3171 N3168 1.350 . S
C3171 C3170 1.434 . S
C3172 C3173 1.369 . S
C3172 C3174 1.419 . S
C3172 H3176 0.930 . S
C3173 C3172 1.369 . S
C3173 C3182 1.429 . S
C3174 C3172 1.419 . S
C3174 C3175 1.363 . S
C3174 H3177 0.929 . S
C3175 C3174 1.363 . S
C3175 C3181 1.428 . S
H3176 C3172 0.930 . S
H3177 C3174 0.929 . S
S3178 N3179 1.613 . S
S3178 N3180 1.610 . S
N3179 S3178 1.613 . S
N3179 C3182 1.350 . S
N3180 S3178 1.610 . S
N3180 C3181 1.351 . S
C3181 C3175 1.428 . S
C3181 N3180 1.351 . S
C3181 C3182 1.434 . S
C3182 C3173 1.429 . S
C3182 N3179 1.350 . S
C3182 C3181 1.434 . S
C3183 C3184 1.369 . S
C3183 C3185 1.419 . S
C3183 H3187 0.930 . S
C3184 C3183 1.369 . S
C3184 C3193 1.429 . S
C3185 C3183 1.419 . S
C3185 C3186 1.363 . S
C3185 H3188 0.929 . S
C3186 C3185 1.363 . S
C3186 C3192 1.428 . S
H3187 C3183 0.930 . S
H3188 C3185 0.929 . S
S3189 N3190 1.613 . S
S3189 N3191 1.610 . S
N3190 S3189 1.613 . S
N3190 C3193 1.350 . S
N3191 S3189 1.610 . S
N3191 C3192 1.351 . S
C3192 C3186 1.428 . S
C3192 N3191 1.351 . S
C3192 C3193 1.434 . S
C3193 C3184 1.429 . S
C3193 N3190 1.350 . S
C3193 C3192 1.434 . S
C3194 C3195 1.369 . S
C3194 C3196 1.419 . S
C3194 H3198 0.930 . S
C3195 C3194 1.369 . S
C3195 C3204 1.429 . S
C3196 C3194 1.419 . S
C3196 C3197 1.363 . S
C3196 H3199 0.929 . S
C3197 C3196 1.363 . S
C3197 C3203 1.428 . S
H3198 C3194 0.930 . S
H3199 C3196 0.929 . S
S3200 N3201 1.613 . S
S3200 N3202 1.610 . S
N3201 S3200 1.613 . S
N3201 C3204 1.350 . S
N3202 S3200 1.610 . S
N3202 C3203 1.351 . S
C3203 C3197 1.428 . S
C3203 N3202 1.351 . S
C3203 C3204 1.434 . S
C3204 C3195 1.429 . S
C3204 N3201 1.350 . S
C3204 C3203 1.434 . S
C3205 C3206 1.369 . S
C3205 C3207 1.419 . S
C3205 H3209 0.930 . S
C3206 C3205 1.369 . S
C3206 C3215 1.429 . S
C3207 C3205 1.419 . S
C3207 C3208 1.363 . S
C3207 H3210 0.929 . S
C3208 C3207 1.363 . S
C3208 C3214 1.428 . S
H3209 C3205 0.930 . S
H3210 C3207 0.929 . S
S3211 N3212 1.613 . S
S3211 N3213 1.610 1_655 S
N3212 S3211 1.613 . S
N3212 C3215 1.350 . S
N3213 S3211 1.610 1_455 S
N3213 C3214 1.351 1_455 S
C3214 C3208 1.428 . S
C3214 N3213 1.351 1_655 S
C3214 C3215 1.434 . S
C3215 C3206 1.429 . S
C3215 N3212 1.350 . S
C3215 C3214 1.434 . S
C3216 C3217 1.369 . S
C3216 C3218 1.419 . S
C3216 H3220 0.930 . S
C3217 C3216 1.369 . S
C3217 C3226 1.429 . S
C3218 C3216 1.419 . S
C3218 C3219 1.363 . S
C3218 H3221 0.929 . S
C3219 C3218 1.363 . S
C3219 C3225 1.428 . S
H3220 C3216 0.930 . S
H3221 C3218 0.929 . S
S3222 N3223 1.613 . S
S3222 N3224 1.610 . S
N3223 S3222 1.613 . S
N3223 C3226 1.350 . S
N3224 S3222 1.610 . S
N3224 C3225 1.351 . S
C3225 C3219 1.428 . S
C3225 N3224 1.351 . S
C3225 C3226 1.434 . S
C3226 C3217 1.429 . S
C3226 N3223 1.350 . S
C3226 C3225 1.434 . S
C3227 C3228 1.369 . S
C3227 C3229 1.419 . S
C3227 H3231 0.930 . S
C3228 C3227 1.369 . S
C3228 C3237 1.429 . S
C3229 C3227 1.419 . S
C3229 C3230 1.363 . S
C3229 H3232 0.929 . S
C3230 C3229 1.363 . S
C3230 C3236 1.428 . S
H3231 C3227 0.930 . S
H3232 C3229 0.929 . S
S3233 N3234 1.613 . S
S3233 N3235 1.610 . S
N3234 S3233 1.613 . S
N3234 C3237 1.350 . S
N3235 S3233 1.610 . S
N3235 C3236 1.351 . S
C3236 C3230 1.428 . S
C3236 N3235 1.351 . S
C3236 C3237 1.434 . S
C3237 C3228 1.429 . S
C3237 N3234 1.350 . S
C3237 C3236 1.434 . S
C3238 C3239 1.369 . S
C3238 C3240 1.419 . S
C3238 H3242 0.930 . S
C3239 C3238 1.369 . S
C3239 C3248 1.429 . S
C3240 C3238 1.419 . S
C3240 C3241 1.363 . S
C3240 H3243 0.929 . S
C3241 C3240 1.363 . S
C3241 C3247 1.428 . S
H3242 C3238 0.930 . S
H3243 C3240 0.929 . S
S3244 N3245 1.613 . S
S3244 N3246 1.610 . S
N3245 S3244 1.613 . S
N3245 C3248 1.350 . S
N3246 S3244 1.610 . S
N3246 C3247 1.351 . S
C3247 C3241 1.428 . S
C3247 N3246 1.351 . S
C3247 C3248 1.434 . S
C3248 C3239 1.429 . S
C3248 N3245 1.350 . S
C3248 C3247 1.434 . S
C3249 C3250 1.369 . S
C3249 C3251 1.419 . S
C3249 H3253 0.930 . S
C3250 C3249 1.369 . S
C3250 C3259 1.429 . S
C3251 C3249 1.419 . S
C3251 C3252 1.363 . S
C3251 H3254 0.945 . S
C3252 C3251 1.363 . S
C3252 C3258 1.428 . S
H3253 C3249 0.930 . S
H3254 C3251 0.945 . S
S3255 N3256 1.613 . S
S3255 N3257 1.610 . S
N3256 S3255 1.613 . S
N3256 C3259 1.350 . S
N3257 S3255 1.610 . S
N3257 C3258 1.351 . S
C3258 C3252 1.428 . S
C3258 N3257 1.351 . S
C3258 C3259 1.434 . S
C3259 C3250 1.429 . S
C3259 N3256 1.350 . S
C3259 C3258 1.434 . S
C3260 C3261 1.369 . S
C3260 C3262 1.419 . S
C3260 H3264 0.930 . S
C3261 C3260 1.369 . S
C3261 C3270 1.429 . S
C3262 C3260 1.419 . S
C3262 C3263 1.363 . S
C3262 H3265 0.929 . S
C3263 C3262 1.363 . S
C3263 C3269 1.428 . S
H3264 C3260 0.930 . S
H3265 C3262 0.929 . S
S3266 N3267 1.613 . S
S3266 N3268 1.610 . S
N3267 S3266 1.613 . S
N3267 C3270 1.350 . S
N3268 S3266 1.610 . S
N3268 C3269 1.351 . S
C3269 C3263 1.428 . S
C3269 N3268 1.351 . S
C3269 C3270 1.434 . S
C3270 C3261 1.429 . S
C3270 N3267 1.350 . S
C3270 C3269 1.434 . S
C3271 C3272 1.369 . S
C3271 C3273 1.419 . S
C3271 H3275 0.930 . S
C3272 C3271 1.369 . S
C3272 C3281 1.429 . S
C3273 C3271 1.419 . S
C3273 C3274 1.363 . S
C3273 H3276 0.929 . S
C3274 C3273 1.363 . S
C3274 C3280 1.428 . S
H3275 C3271 0.930 . S
H3276 C3273 0.929 . S
S3277 N3278 1.613 . S
S3277 N3279 1.610 1_655 S
N3278 S3277 1.613 . S
N3278 C3281 1.350 . S
N3279 S3277 1.610 1_455 S
N3279 C3280 1.351 1_455 S
C3280 C3274 1.428 . S
C3280 N3279 1.351 1_655 S
C3280 C3281 1.434 . S
C3281 C3272 1.429 . S
C3281 N3278 1.350 . S
C3281 C3280 1.434 . S
C3282 C3283 1.369 . S
C3282 C3284 1.419 . S
C3282 H3286 0.930 . S
C3283 C3282 1.369 . S
C3283 C3292 1.429 . S
C3284 C3282 1.419 . S
C3284 C3285 1.363 . S
C3284 H3287 0.929 . S
C3285 C3284 1.363 . S
C3285 C3291 1.428 . S
H3286 C3282 0.930 . S
H3287 C3284 0.929 . S
S3288 N3289 1.613 . S
S3288 N3290 1.610 . S
N3289 S3288 1.613 . S
N3289 C3292 1.350 . S
N3290 S3288 1.610 . S
N3290 C3291 1.351 . S
C3291 C3285 1.428 . S
C3291 N3290 1.351 . S
C3291 C3292 1.434 . S
C3292 C3283 1.429 . S
C3292 N3289 1.350 . S
C3292 C3291 1.434 . S
C3293 C3294 1.369 . S
C3293 C3295 1.419 . S
C3293 H3297 0.930 . S
C3294 C3293 1.369 . S
C3294 C3303 1.429 . S
C3295 C3293 1.419 . S
C3295 C3296 1.363 . S
C3295 H3298 0.929 . S
C3296 C3295 1.363 . S
C3296 C3302 1.428 . S
H3297 C3293 0.930 . S
H3298 C3295 0.929 . S
S3299 N3300 1.613 . S
S3299 N3301 1.610 . S
N3300 S3299 1.613 . S
N3300 C3303 1.350 . S
N3301 S3299 1.610 . S
N3301 C3302 1.351 . S
C3302 C3296 1.428 . S
C3302 N3301 1.351 . S
C3302 C3303 1.434 . S
C3303 C3294 1.429 . S
C3303 N3300 1.350 . S
C3303 C3302 1.434 . S
C3304 C3305 1.369 . S
C3304 C3306 1.419 . S
C3304 H3308 0.930 . S
C3305 C3304 1.369 . S
C3305 C3314 1.429 . S
C3306 C3304 1.419 . S
C3306 C3307 1.363 . S
C3306 H3309 0.929 . S
C3307 C3306 1.363 . S
C3307 C3313 1.428 . S
H3308 C3304 0.930 . S
H3309 C3306 0.929 . S
S3310 N3311 1.613 . S
S3310 N3312 1.610 . S
N3311 S3310 1.613 . S
N3311 C3314 1.350 . S
N3312 S3310 1.610 . S
N3312 C3313 1.351 . S
C3313 C3307 1.428 . S
C3313 N3312 1.351 . S
C3313 C3314 1.434 . S
C3314 C3305 1.429 . S
C3314 N3311 1.350 . S
C3314 C3313 1.434 . S
C3315 C3316 1.369 . S
C3315 C3317 1.419 . S
C3315 H3319 0.930 . S
C3316 C3315 1.369 . S
C3316 C3325 1.429 . S
C3317 C3315 1.419 . S
C3317 C3318 1.363 . S
C3317 H3320 0.929 . S
C3318 C3317 1.363 . S
C3318 C3324 1.428 . S
H3319 C3315 0.930 . S
H3320 C3317 0.929 . S
S3321 N3322 1.613 . S
S3321 N3323 1.610 . S
N3322 S3321 1.613 . S
N3322 C3325 1.350 . S
N3323 S3321 1.610 . S
N3323 C3324 1.351 . S
C3324 C3318 1.428 . S
C3324 N3323 1.351 . S
C3324 C3325 1.434 . S
C3325 C3316 1.429 . S
C3325 N3322 1.350 . S
C3325 C3324 1.434 . S
C3326 C3327 1.369 . S
C3326 C3328 1.419 . S
C3326 H3330 0.930 . S
C3327 C3326 1.369 . S
C3327 C3336 1.429 . S
C3328 C3326 1.419 . S
C3328 C3329 1.363 . S
C3328 H3331 0.929 . S
C3329 C3328 1.363 . S
C3329 C3335 1.428 . S
H3330 C3326 0.930 . S
H3331 C3328 0.929 . S
S3332 N3333 1.613 . S
S3332 N3334 1.610 . S
N3333 S3332 1.613 . S
N3333 C3336 1.350 . S
N3334 S3332 1.610 . S
N3334 C3335 1.351 . S
C3335 C3329 1.428 . S
C3335 N3334 1.351 . S
C3335 C3336 1.434 . S
C3336 C3327 1.429 . S
C3336 N3333 1.350 . S
C3336 C3335 1.434 . S
C3337 C3338 1.369 . S
C3337 C3339 1.419 . S
C3337 H3341 0.930 . S
C3338 C3337 1.369 . S
C3338 C3347 1.429 . S
C3339 C3337 1.419 . S
C3339 C3340 1.363 . S
C3339 H3342 0.929 . S
C3340 C3339 1.363 . S
C3340 C3346 1.428 . S
H3341 C3337 0.930 . S
H3342 C3339 0.929 . S
S3343 N3344 1.613 . S
S3343 N3345 1.610 . S
N3344 S3343 1.613 . S
N3344 C3347 1.350 . S
N3345 S3343 1.610 . S
N3345 C3346 1.351 . S
C3346 C3340 1.428 . S
C3346 N3345 1.351 . S
C3346 C3347 1.434 . S
C3347 C3338 1.429 . S
C3347 N3344 1.350 . S
C3347 C3346 1.434 . S
C3348 C3349 1.369 . S
C3348 C3350 1.419 . S
C3348 H3352 0.930 . S
C3349 C3348 1.369 . S
C3349 C3358 1.429 . S
C3350 C3348 1.419 . S
C3350 C3351 1.363 . S
C3350 H3353 0.929 . S
C3351 C3350 1.363 . S
C3351 C3357 1.428 . S
H3352 C3348 0.930 . S
H3353 C3350 0.929 . S
S3354 N3355 1.613 . S
S3354 N3356 1.610 . S
N3355 S3354 1.613 . S
N3355 C3358 1.350 . S
N3356 S3354 1.610 . S
N3356 C3357 1.351 . S
C3357 C3351 1.428 . S
C3357 N3356 1.351 . S
C3357 C3358 1.434 . S
C3358 C3349 1.429 . S
C3358 N3355 1.350 . S
C3358 C3357 1.434 . S
C3359 C3360 1.369 . S
C3359 C3361 1.419 . S
C3359 H3363 0.930 . S
C3360 C3359 1.369 . S
C3360 C3369 1.429 . S
C3361 C3359 1.419 . S
C3361 C3362 1.363 . S
C3361 H3364 0.929 . S
C3362 C3361 1.363 . S
C3362 C3368 1.428 . S
H3363 C3359 0.930 . S
H3364 C3361 0.929 . S
S3365 N3366 1.613 . S
S3365 N3367 1.610 . S
N3366 S3365 1.613 . S
N3366 C3369 1.350 . S
N3367 S3365 1.610 . S
N3367 C3368 1.351 . S
C3368 C3362 1.428 . S
C3368 N3367 1.351 . S
C3368 C3369 1.434 . S
C3369 C3360 1.429 . S
C3369 N3366 1.350 . S
C3369 C3368 1.434 . S
C3370 C3371 1.369 . S
C3370 C3372 1.419 . S
C3370 H3374 0.930 . S
C3371 C3370 1.369 . S
C3371 C3380 1.429 . S
C3372 C3370 1.419 . S
C3372 C3373 1.363 . S
C3372 H3375 0.929 . S
C3373 C3372 1.363 . S
C3373 C3379 1.428 . S
H3374 C3370 0.930 . S
H3375 C3372 0.929 . S
S3376 N3377 1.613 . S
S3376 N3378 1.610 . S
N3377 S3376 1.613 . S
N3377 C3380 1.350 . S
N3378 S3376 1.610 . S
N3378 C3379 1.351 . S
C3379 C3373 1.428 . S
C3379 N3378 1.351 . S
C3379 C3380 1.434 . S
C3380 C3371 1.429 . S
C3380 N3377 1.350 . S
C3380 C3379 1.434 . S
C3381 C3382 1.369 . S
C3381 C3383 1.419 . S
C3381 H3385 0.930 . S
C3382 C3381 1.369 . S
C3382 C3391 1.429 . S
C3383 C3381 1.419 . S
C3383 C3384 1.363 . S
C3383 H3386 0.929 . S
C3384 C3383 1.363 . S
C3384 C3390 1.428 . S
H3385 C3381 0.930 . S
H3386 C3383 0.929 . S
S3387 N3388 1.613 . S
S3387 N3389 1.610 . S
N3388 S3387 1.613 . S
N3388 C3391 1.350 . S
N3389 S3387 1.610 . S
N3389 C3390 1.351 . S
C3390 C3384 1.428 . S
C3390 N3389 1.351 . S
C3390 C3391 1.434 . S
C3391 C3382 1.429 . S
C3391 N3388 1.350 . S
C3391 C3390 1.434 . S
C3392 C3393 1.369 . S
C3392 C3394 1.419 1_545 S
C3392 H3396 0.930 . S
C3393 C3392 1.369 . S
C3393 C3402 1.429 . S
C3394 C3392 1.419 1_565 S
C3394 C3395 1.363 . S
C3394 H3397 0.929 . S
C3395 C3394 1.363 . S
C3395 C3401 1.428 . S
H3396 C3392 0.930 . S
H3397 C3394 0.929 . S
S3398 N3399 1.613 . S
S3398 N3400 1.610 1_545 S
N3399 S3398 1.613 . S
N3399 C3402 1.350 . S
N3400 S3398 1.610 1_565 S
N3400 C3401 1.351 . S
C3401 C3395 1.428 . S
C3401 N3400 1.351 . S
C3401 C3402 1.434 1_565 S
C3402 C3393 1.429 . S
C3402 N3399 1.350 . S
C3402 C3401 1.434 1_545 S
C3403 C3404 1.369 . S
C3403 C3405 1.419 . S
C3403 H3407 0.930 . S
C3404 C3403 1.369 . S
C3404 C3413 1.429 . S
C3405 C3403 1.419 . S
C3405 C3406 1.363 . S
C3405 H3408 0.929 . S
C3406 C3405 1.363 . S
C3406 C3412 1.428 . S
H3407 C3403 0.930 . S
H3408 C3405 0.929 . S
S3409 N3410 1.613 . S
S3409 N3411 1.610 . S
N3410 S3409 1.613 . S
N3410 C3413 1.350 . S
N3411 S3409 1.610 . S
N3411 C3412 1.351 . S
C3412 C3406 1.428 . S
C3412 N3411 1.351 . S
C3412 C3413 1.434 . S
C3413 C3404 1.429 . S
C3413 N3410 1.350 . S
C3413 C3412 1.434 . S
C3414 C3415 1.369 . S
C3414 C3416 1.419 1_565 S
C3414 H3418 0.930 . S
C3415 C3414 1.369 . S
C3415 C3424 1.429 . S
C3416 C3414 1.419 1_545 S
C3416 C3417 1.363 . S
C3416 H3419 0.929 . S
C3417 C3416 1.363 . S
C3417 C3423 1.428 . S
H3418 C3414 0.930 . S
H3419 C3416 0.929 . S
S3420 N3421 1.613 . S
S3420 N3422 1.610 1_565 S
N3421 S3420 1.613 . S
N3421 C3424 1.350 . S
N3422 S3420 1.610 1_545 S
N3422 C3423 1.351 . S
C3423 C3417 1.428 . S
C3423 N3422 1.351 . S
C3423 C3424 1.434 1_545 S
C3424 C3415 1.429 . S
C3424 N3421 1.350 . S
C3424 C3423 1.434 1_565 S
C3425 C3426 1.369 . S
C3425 C3427 1.419 . S
C3425 H3429 0.930 . S
C3426 C3425 1.369 . S
C3426 C3435 1.429 1_554 S
C3427 C3425 1.419 . S
C3427 C3428 1.363 1_554 S
C3427 H3430 0.929 . S
C3428 C3427 1.363 1_556 S
C3428 C3434 1.428 . S
H3429 C3425 0.930 . S
H3430 C3427 0.929 . S
S3431 N3432 1.613 . S
S3431 N3433 1.610 . S
N3432 S3431 1.613 . S
N3432 C3435 1.350 . S
N3433 S3431 1.610 . S
N3433 C3434 1.351 . S
C3434 C3428 1.428 . S
C3434 N3433 1.351 . S
C3434 C3435 1.434 . S
C3435 C3426 1.429 1_556 S
C3435 N3432 1.350 . S
C3435 C3434 1.434 . S
C3436 C3437 1.369 . S
C3436 C3438 1.419 1_545 S
C3436 H3440 0.930 . S
C3437 C3436 1.369 . S
C3437 C3446 1.429 . S
C3438 C3436 1.419 1_565 S
C3438 C3439 1.363 . S
C3438 H3441 0.929 . S
C3439 C3438 1.363 . S
C3439 C3445 1.428 . S
H3440 C3436 0.930 . S
H3441 C3438 0.929 . S
S3442 N3443 1.613 . S
S3442 N3444 1.610 1_545 S
N3443 S3442 1.613 . S
N3443 C3446 1.350 . S
N3444 S3442 1.610 1_565 S
N3444 C3445 1.351 . S
C3445 C3439 1.428 . S
C3445 N3444 1.351 . S
C3445 C3446 1.434 1_565 S
C3446 C3437 1.429 . S
C3446 N3443 1.350 . S
C3446 C3445 1.434 1_545 S
C3447 C3448 1.369 . S
C3447 C3449 1.419 . S
C3447 H3451 0.930 . S
C3448 C3447 1.369 . S
C3448 C3457 1.429 . S
C3449 C3447 1.419 . S
C3449 C3450 1.363 . S
C3449 H3452 0.929 . S
C3450 C3449 1.363 . S
C3450 C3456 1.428 . S
H3451 C3447 0.930 . S
H3452 C3449 0.929 . S
S3453 N3454 1.613 . S
S3453 N3455 1.610 . S
N3454 S3453 1.613 . S
N3454 C3457 1.350 . S
N3455 S3453 1.610 . S
N3455 C3456 1.351 . S
C3456 C3450 1.428 . S
C3456 N3455 1.351 . S
C3456 C3457 1.434 . S
C3457 C3448 1.429 . S
C3457 N3454 1.350 . S
C3457 C3456 1.434 . S
C3458 C3459 1.369 . S
C3458 C3460 1.419 1_545 S
C3458 H3462 0.930 . S
C3459 C3458 1.369 . S
C3459 C3468 1.429 . S
C3460 C3458 1.419 1_565 S
C3460 C3461 1.363 . S
C3460 H3463 0.929 . S
C3461 C3460 1.363 . S
C3461 C3467 1.428 . S
H3462 C3458 0.930 . S
H3463 C3460 0.929 . S
S3464 N3465 1.613 . S
S3464 N3466 1.610 1_545 S
N3465 S3464 1.613 . S
N3465 C3468 1.350 . S
N3466 S3464 1.610 1_565 S
N3466 C3467 1.351 . S
C3467 C3461 1.428 . S
C3467 N3466 1.351 . S
C3467 C3468 1.434 1_565 S
C3468 C3459 1.429 . S
C3468 N3465 1.350 . S
C3468 C3467 1.434 1_545 S
C3469 C3470 1.369 . S
C3469 C3471 1.419 1_554 S
C3469 H3473 0.930 . S
C3470 C3469 1.369 . S
C3470 C3479 1.429 . S
C3471 C3469 1.419 1_556 S
C3471 C3472 1.363 . S
C3471 H3474 0.929 . S
C3472 C3471 1.363 . S
C3472 C3478 1.428 . S
H3473 C3469 0.930 . S
H3474 C3471 0.929 . S
S3475 N3476 1.613 . S
S3475 N3477 1.610 1_554 S
N3476 S3475 1.613 . S
N3476 C3479 1.350 . S
N3477 S3475 1.610 1_556 S
N3477 C3478 1.351 . S
C3478 C3472 1.428 . S
C3478 N3477 1.351 . S
C3478 C3479 1.434 1_556 S
C3479 C3470 1.429 . S
C3479 N3476 1.350 . S
C3479 C3478 1.434 1_554 S
C3480 C3481 1.369 . S
C3480 C3482 1.419 . S
C3480 H3484 0.930 . S
C3481 C3480 1.369 . S
C3481 C3490 1.429 . S
C3482 C3480 1.419 . S
C3482 C3483 1.363 . S
C3482 H3485 0.929 . S
C3483 C3482 1.363 . S
C3483 C3489 1.428 . S
H3484 C3480 0.930 . S
H3485 C3482 0.929 . S
S3486 N3487 1.613 . S
S3486 N3488 1.610 . S
N3487 S3486 1.613 . S
N3487 C3490 1.350 . S
N3488 S3486 1.610 . S
N3488 C3489 1.351 . S
C3489 C3483 1.428 . S
C3489 N3488 1.351 . S
C3489 C3490 1.434 . S
C3490 C3481 1.429 . S
C3490 N3487 1.350 . S
C3490 C3489 1.434 . S
C3491 C3492 1.369 . S
C3491 C3493 1.419 . S
C3491 H3495 0.930 . S
C3492 C3491 1.369 . S
C3492 C3501 1.429 1_554 S
C3493 C3491 1.419 . S
C3493 C3494 1.363 1_554 S
C3493 H3496 0.929 . S
C3494 C3493 1.363 1_556 S
C3494 C3500 1.428 . S
H3495 C3491 0.930 . S
H3496 C3493 0.929 . S
S3497 N3498 1.613 . S
S3497 N3499 1.610 . S
N3498 S3497 1.613 . S
N3498 C3501 1.350 . S
N3499 S3497 1.610 . S
N3499 C3500 1.351 . S
C3500 C3494 1.428 . S
C3500 N3499 1.351 . S
C3500 C3501 1.434 . S
C3501 C3492 1.429 1_556 S
C3501 N3498 1.350 . S
C3501 C3500 1.434 . S
C3502 C3503 1.369 . S
C3502 C3504 1.419 . S
C3502 H3506 0.930 . S
C3503 C3502 1.369 . S
C3503 C3512 1.429 . S
C3504 C3502 1.419 . S
C3504 C3505 1.363 . S
C3504 H3507 0.929 . S
C3505 C3504 1.363 . S
C3505 C3511 1.428 . S
H3506 C3502 0.930 . S
H3507 C3504 0.929 . S
S3508 N3509 1.613 . S
S3508 N3510 1.610 . S
N3509 S3508 1.613 . S
N3509 C3512 1.350 . S
N3510 S3508 1.610 . S
N3510 C3511 1.351 . S
C3511 C3505 1.428 . S
C3511 N3510 1.351 . S
C3511 C3512 1.434 . S
C3512 C3503 1.429 . S
C3512 N3509 1.350 . S
C3512 C3511 1.434 . S
C3513 C3514 1.369 . S
C3513 C3515 1.419 . S
C3513 H3517 0.930 . S
C3514 C3513 1.369 . S
C3514 C3523 1.429 . S
C3515 C3513 1.419 . S
C3515 C3516 1.363 . S
C3515 H3518 0.929 . S
C3516 C3515 1.363 . S
C3516 C3522 1.428 . S
H3517 C3513 0.930 . S
H3518 C3515 0.929 . S
S3519 N3520 1.613 . S
S3519 N3521 1.610 . S
N3520 S3519 1.613 . S
N3520 C3523 1.350 . S
N3521 S3519 1.610 . S
N3521 C3522 1.351 . S
C3522 C3516 1.428 . S
C3522 N3521 1.351 . S
C3522 C3523 1.434 . S
C3523 C3514 1.429 . S
C3523 N3520 1.350 . S
C3523 C3522 1.434 . S
C3524 C3525 1.369 . S
C3524 C3526 1.419 . S
C3524 H3528 0.930 . S
C3525 C3524 1.369 . S
C3525 C3534 1.429 . S
C3526 C3524 1.419 . S
C3526 C3527 1.363 . S
C3526 H3529 0.929 . S
C3527 C3526 1.363 . S
C3527 C3533 1.428 . S
H3528 C3524 0.930 . S
H3529 C3526 0.929 . S
S3530 N3531 1.613 . S
S3530 N3532 1.610 . S
N3531 S3530 1.613 . S
N3531 C3534 1.350 . S
N3532 S3530 1.610 . S
N3532 C3533 1.351 . S
C3533 C3527 1.428 . S
C3533 N3532 1.351 . S
C3533 C3534 1.434 . S
C3534 C3525 1.429 . S
C3534 N3531 1.350 . S
C3534 C3533 1.434 . S
C3535 C3536 1.369 . S
C3535 C3537 1.419 . S
C3535 H3539 0.930 . S
C3536 C3535 1.369 . S
C3536 C3545 1.429 1_554 S
C3537 C3535 1.419 . S
C3537 C3538 1.363 1_554 S
C3537 H3540 0.929 . S
C3538 C3537 1.363 1_556 S
C3538 C3544 1.428 . S
H3539 C3535 0.930 . S
H3540 C3537 0.929 . S
S3541 N3542 1.613 . S
S3541 N3543 1.610 . S
N3542 S3541 1.613 . S
N3542 C3545 1.350 . S
N3543 S3541 1.610 . S
N3543 C3544 1.351 . S
C3544 C3538 1.428 . S
C3544 N3543 1.351 . S
C3544 C3545 1.434 . S
C3545 C3536 1.429 1_556 S
C3545 N3542 1.350 . S
C3545 C3544 1.434 . S
C3546 C3547 1.369 . S
C3546 C3548 1.419 . S
C3546 H3550 0.930 . S
C3547 C3546 1.369 . S
C3547 C3556 1.429 . S
C3548 C3546 1.419 . S
C3548 C3549 1.363 . S
C3548 H3551 0.929 . S
C3549 C3548 1.363 . S
C3549 C3555 1.428 . S
H3550 C3546 0.930 . S
H3551 C3548 0.929 . S
S3552 N3553 1.613 . S
S3552 N3554 1.610 . S
N3553 S3552 1.613 . S
N3553 C3556 1.350 . S
N3554 S3552 1.610 . S
N3554 C3555 1.351 . S
C3555 C3549 1.428 . S
C3555 N3554 1.351 . S
C3555 C3556 1.434 . S
C3556 C3547 1.429 . S
C3556 N3553 1.350 . S
C3556 C3555 1.434 . S
C3557 C3558 1.369 . S
C3557 C3559 1.419 . S
C3557 H3561 0.930 . S
C3558 C3557 1.369 . S
C3558 C3567 1.429 . S
C3559 C3557 1.419 . S
C3559 C3560 1.363 . S
C3559 H3562 0.929 . S
C3560 C3559 1.363 . S
C3560 C3566 1.428 . S
H3561 C3557 0.930 . S
H3562 C3559 0.929 . S
S3563 N3564 1.613 . S
S3563 N3565 1.610 . S
N3564 S3563 1.613 . S
N3564 C3567 1.350 . S
N3565 S3563 1.610 . S
N3565 C3566 1.351 . S
C3566 C3560 1.428 . S
C3566 N3565 1.351 . S
C3566 C3567 1.434 . S
C3567 C3558 1.429 . S
C3567 N3564 1.350 . S
C3567 C3566 1.434 . S
C3568 C3569 1.369 . S
C3568 C3570 1.419 . S
C3568 H3572 0.930 . S
C3569 C3568 1.369 . S
C3569 C3578 1.429 . S
C3570 C3568 1.419 . S
C3570 C3571 1.363 . S
C3570 H3573 0.929 . S
C3571 C3570 1.363 . S
C3571 C3577 1.428 . S
H3572 C3568 0.930 . S
H3573 C3570 0.929 . S
S3574 N3575 1.613 . S
S3574 N3576 1.610 . S
N3575 S3574 1.613 . S
N3575 C3578 1.350 . S
N3576 S3574 1.610 . S
N3576 C3577 1.351 . S
C3577 C3571 1.428 . S
C3577 N3576 1.351 . S
C3577 C3578 1.434 . S
C3578 C3569 1.429 . S
C3578 N3575 1.350 . S
C3578 C3577 1.434 . S
C3579 C3580 1.369 . S
C3579 C3581 1.419 . S
C3579 H3583 0.930 . S
C3580 C3579 1.369 . S
C3580 C3589 1.429 . S
C3581 C3579 1.419 . S
C3581 C3582 1.363 . S
C3581 H3584 0.929 . S
C3582 C3581 1.363 . S
C3582 C3588 1.428 . S
H3583 C3579 0.930 . S
H3584 C3581 0.929 . S
S3585 N3586 1.613 . S
S3585 N3587 1.610 . S
N3586 S3585 1.613 . S
N3586 C3589 1.350 . S
N3587 S3585 1.610 . S
N3587 C3588 1.351 . S
C3588 C3582 1.428 . S
C3588 N3587 1.351 . S
C3588 C3589 1.434 . S
C3589 C3580 1.429 . S
C3589 N3586 1.350 . S
C3589 C3588 1.434 . S
C3590 C3591 1.369 . S
C3590 C3592 1.419 . S
C3590 H3594 0.930 . S
C3591 C3590 1.369 . S
C3591 C3600 1.429 . S
C3592 C3590 1.419 . S
C3592 C3593 1.363 . S
C3592 H3595 0.929 . S
C3593 C3592 1.363 . S
C3593 C3599 1.428 . S
H3594 C3590 0.930 . S
H3595 C3592 0.929 . S
S3596 N3597 1.613 . S
S3596 N3598 1.610 . S
N3597 S3596 1.613 . S
N3597 C3600 1.350 . S
N3598 S3596 1.610 . S
N3598 C3599 1.351 . S
C3599 C3593 1.428 . S
C3599 N3598 1.351 . S
C3599 C3600 1.434 . S
C3600 C3591 1.429 . S
C3600 N3597 1.350 . S
C3600 C3599 1.434 . S
C3601 C3602 1.369 . S
C3601 C3603 1.419 . S
C3601 H3605 0.930 . S
C3602 C3601 1.369 . S
C3602 C3611 1.429 . S
C3603 C3601 1.419 . S
C3603 C3604 1.363 . S
C3603 H3606 0.929 . S
C3604 C3603 1.363 . S
C3604 C3610 1.428 . S
H3605 C3601 0.930 . S
H3606 C3603 0.929 . S
S3607 N3608 1.613 . S
S3607 N3609 1.610 . S
N3608 S3607 1.613 . S
N3608 C3611 1.350 . S
N3609 S3607 1.610 . S
N3609 C3610 1.351 . S
C3610 C3604 1.428 . S
C3610 N3609 1.351 . S
C3610 C3611 1.434 . S
C3611 C3602 1.429 . S
C3611 N3608 1.350 . S
C3611 C3610 1.434 . S
C3612 C3613 1.369 . S
C3612 C3614 1.419 . S
C3612 H3616 0.930 . S
C3613 C3612 1.369 . S
C3613 C3622 1.429 . S
C3614 C3612 1.419 . S
C3614 C3615 1.363 . S
C3614 H3617 0.929 . S
C3615 C3614 1.363 . S
C3615 C3621 1.428 . S
H3616 C3612 0.930 . S
H3617 C3614 0.929 . S
S3618 N3619 1.613 . S
S3618 N3620 1.610 . S
N3619 S3618 1.613 . S
N3619 C3622 1.350 . S
N3620 S3618 1.610 . S
N3620 C3621 1.351 . S
C3621 C3615 1.428 . S
C3621 N3620 1.351 . S
C3621 C3622 1.434 . S
C3622 C3613 1.429 . S
C3622 N3619 1.350 . S
C3622 C3621 1.434 . S
C3623 C3624 1.369 . S
C3623 C3625 1.419 . S
C3623 H3627 0.930 . S
C3624 C3623 1.369 . S
C3624 C3633 1.429 . S
C3625 C3623 1.419 . S
C3625 C3626 1.363 . S
C3625 H3628 0.929 . S
C3626 C3625 1.363 . S
C3626 C3632 1.428 . S
H3627 C3623 0.930 . S
H3628 C3625 0.929 . S
S3629 N3630 1.613 . S
S3629 N3631 1.610 . S
N3630 S3629 1.613 . S
N3630 C3633 1.350 . S
N3631 S3629 1.610 . S
N3631 C3632 1.351 . S
C3632 C3626 1.428 . S
C3632 N3631 1.351 . S
C3632 C3633 1.434 . S
C3633 C3624 1.429 . S
C3633 N3630 1.350 . S
C3633 C3632 1.434 . S
C3634 C3635 1.369 . S
C3634 C3636 1.419 . S
C3634 H3638 0.930 . S
C3635 C3634 1.369 . S
C3635 C3644 1.429 . S
C3636 C3634 1.419 . S
C3636 C3637 1.363 . S
C3636 H3639 0.929 . S
C3637 C3636 1.363 . S
C3637 C3643 1.428 . S
H3638 C3634 0.930 . S
H3639 C3636 0.929 . S
S3640 N3641 1.613 . S
S3640 N3642 1.610 . S
N3641 S3640 1.613 . S
N3641 C3644 1.350 . S
N3642 S3640 1.610 . S
N3642 C3643 1.351 . S
C3643 C3637 1.428 . S
C3643 N3642 1.351 . S
C3643 C3644 1.434 . S
C3644 C3635 1.429 . S
C3644 N3641 1.350 . S
C3644 C3643 1.434 . S
C3645 C3646 1.369 . S
C3645 C3647 1.419 . S
C3645 H3649 0.930 . S
C3646 C3645 1.369 . S
C3646 C3655 1.429 . S
C3647 C3645 1.419 . S
C3647 C3648 1.363 . S
C3647 H3650 0.929 . S
C3648 C3647 1.363 . S
C3648 C3654 1.428 . S
H3649 C3645 0.930 . S
H3650 C3647 0.929 . S
S3651 N3652 1.613 . S
S3651 N3653 1.610 . S
N3652 S3651 1.613 . S
N3652 C3655 1.350 . S
N3653 S3651 1.610 . S
N3653 C3654 1.351 . S
C3654 C3648 1.428 . S
C3654 N3653 1.351 . S
C3654 C3655 1.434 . S
C3655 C3646 1.429 . S
C3655 N3652 1.350 . S
C3655 C3654 1.434 . S
C3656 C3657 1.369 . S
C3656 C3658 1.419 . S
C3656 H3660 0.930 . S
C3657 C3656 1.369 . S
C3657 C3666 1.429 . S
C3658 C3656 1.419 . S
C3658 C3659 1.363 . S
C3658 H3661 0.929 . S
C3659 C3658 1.363 . S
C3659 C3665 1.428 . S
H3660 C3656 0.930 . S
H3661 C3658 0.929 . S
S3662 N3663 1.613 . S
S3662 N3664 1.610 . S
N3663 S3662 1.613 . S
N3663 C3666 1.350 . S
N3664 S3662 1.610 . S
N3664 C3665 1.351 . S
C3665 C3659 1.428 . S
C3665 N3664 1.351 . S
C3665 C3666 1.434 . S
C3666 C3657 1.429 . S
C3666 N3663 1.350 . S
C3666 C3665 1.434 . S
C3667 C3668 1.369 . S
C3667 C3669 1.419 . S
C3667 H3671 0.930 . S
C3668 C3667 1.369 . S
C3668 C3677 1.429 . S
C3669 C3667 1.419 . S
C3669 C3670 1.363 . S
C3669 H3672 0.929 . S
C3670 C3669 1.363 . S
C3670 C3676 1.428 . S
H3671 C3667 0.930 . S
H3672 C3669 0.929 . S
S3673 N3674 1.613 . S
S3673 N3675 1.610 . S
N3674 S3673 1.613 . S
N3674 C3677 1.350 . S
N3675 S3673 1.610 . S
N3675 C3676 1.351 . S
C3676 C3670 1.428 . S
C3676 N3675 1.351 . S
C3676 C3677 1.434 . S
C3677 C3668 1.429 . S
C3677 N3674 1.350 . S
C3677 C3676 1.434 . S
C3678 C3679 1.369 . S
C3678 C3680 1.419 . S
C3678 H3682 0.930 . S
C3679 C3678 1.369 . S
C3679 C3688 1.429 . S
C3680 C3678 1.419 . S
C3680 C3681 1.363 . S
C3680 H3683 0.929 . S
C3681 C3680 1.363 . S
C3681 C3687 1.428 . S
H3682 C3678 0.930 . S
H3683 C3680 0.929 . S
S3684 N3685 1.613 . S
S3684 N3686 1.610 . S
N3685 S3684 1.613 . S
N3685 C3688 1.350 . S
N3686 S3684 1.610 . S
N3686 C3687 1.351 . S
C3687 C3681 1.428 . S
C3687 N3686 1.351 . S
C3687 C3688 1.434 . S
C3688 C3679 1.429 . S
C3688 N3685 1.350 . S
C3688 C3687 1.434 . S
C3689 C3690 1.369 . S
C3689 C3691 1.419 . S
C3689 H3693 0.930 . S
C3690 C3689 1.369 . S
C3690 C3699 1.429 . S
C3691 C3689 1.419 . S
C3691 C3692 1.363 . S
C3691 H3694 0.929 . S
C3692 C3691 1.363 . S
C3692 C3698 1.428 . S
H3693 C3689 0.930 . S
H3694 C3691 0.929 . S
S3695 N3696 1.613 . S
S3695 N3697 1.610 . S
N3696 S3695 1.613 . S
N3696 C3699 1.350 . S
N3697 S3695 1.610 . S
N3697 C3698 1.351 . S
C3698 C3692 1.428 . S
C3698 N3697 1.351 . S
C3698 C3699 1.434 . S
C3699 C3690 1.429 . S
C3699 N3696 1.350 . S
C3699 C3698 1.434 . S
C3700 C3701 1.369 . S
C3700 C3702 1.419 . S
C3700 H3704 0.930 . S
C3701 C3700 1.369 . S
C3701 C3710 1.429 . S
C3702 C3700 1.419 . S
C3702 C3703 1.363 . S
C3702 H3705 0.929 . S
C3703 C3702 1.363 . S
C3703 C3709 1.428 . S
H3704 C3700 0.930 . S
H3705 C3702 0.929 . S
S3706 N3707 1.613 . S
S3706 N3708 1.610 . S
N3707 S3706 1.613 . S
N3707 C3710 1.350 . S
N3708 S3706 1.610 . S
N3708 C3709 1.351 . S
C3709 C3703 1.428 . S
C3709 N3708 1.351 . S
C3709 C3710 1.434 . S
C3710 C3701 1.429 . S
C3710 N3707 1.350 . S
C3710 C3709 1.434 . S
C3711 C3712 1.369 . S
C3711 C3713 1.419 . S
C3711 H3715 0.930 . S
C3712 C3711 1.369 . S
C3712 C3721 1.429 . S
C3713 C3711 1.419 . S
C3713 C3714 1.363 . S
C3713 H3716 0.929 . S
C3714 C3713 1.363 . S
C3714 C3720 1.428 . S
H3715 C3711 0.930 . S
H3716 C3713 0.929 . S
S3717 N3718 1.613 . S
S3717 N3719 1.610 . S
N3718 S3717 1.613 . S
N3718 C3721 1.350 . S
N3719 S3717 1.610 . S
N3719 C3720 1.351 . S
C3720 C3714 1.428 . S
C3720 N3719 1.351 . S
C3720 C3721 1.434 . S
C3721 C3712 1.429 . S
C3721 N3718 1.350 . S
C3721 C3720 1.434 . S
C3722 C3723 1.369 . S
C3722 C3724 1.419 . S
C3722 H3726 0.930 . S
C3723 C3722 1.369 . S
C3723 C3732 1.429 . S
C3724 C3722 1.419 . S
C3724 C3725 1.363 . S
C3724 H3727 0.929 . S
C3725 C3724 1.363 . S
C3725 C3731 1.428 . S
H3726 C3722 0.930 . S
H3727 C3724 0.929 . S
S3728 N3729 1.613 . S
S3728 N3730 1.610 . S
N3729 S3728 1.613 . S
N3729 C3732 1.350 . S
N3730 S3728 1.610 . S
N3730 C3731 1.351 . S
C3731 C3725 1.428 . S
C3731 N3730 1.351 . S
C3731 C3732 1.434 . S
C3732 C3723 1.429 . S
C3732 N3729 1.350 . S
C3732 C3731 1.434 . S
C3733 C3734 1.369 . S
C3733 C3735 1.419 . S
C3733 H3737 0.930 . S
C3734 C3733 1.369 . S
C3734 C3743 1.429 . S
C3735 C3733 1.419 . S
C3735 C3736 1.363 . S
C3735 H3738 0.929 . S
C3736 C3735 1.363 . S
C3736 C3742 1.428 . S
H3737 C3733 0.930 . S
H3738 C3735 0.929 . S
S3739 N3740 1.613 . S
S3739 N3741 1.610 . S
N3740 S3739 1.613 . S
N3740 C3743 1.350 . S
N3741 S3739 1.610 . S
N3741 C3742 1.351 . S
C3742 C3736 1.428 . S
C3742 N3741 1.351 . S
C3742 C3743 1.434 . S
C3743 C3734 1.429 . S
C3743 N3740 1.350 . S
C3743 C3742 1.434 . S
C2689 C69 0.989 . S
C2691 C319 1.174 . S
C2700 C67 1.173 . S
C2702 C153 0.997 . S
C2711 C237 0.987 . S
C2713 C151 1.175 . S
C2722 C235 1.171 . S
C2724 C321 1.001 . S
C2733 C487 1.171 . S
C2735 C405 1.002 . S
C2744 C489 1.004 . S
C2746 C571 1.172 . S
C2755 C655 1.172 . S
C2757 C573 1.001 . S
C2766 C403 1.176 . S
C2768 C657 0.986 . S
C2777 C730 0.981 . S
C2779 C980 1.176 . S
C2788 C814 0.998 . S
C2790 C728 1.172 . S
C2799 C898 1.004 . S
C2801 C812 1.172 . S
C2810 C982 0.982 . S
C2812 C896 1.176 . S
C2821 C1066 1.005 . S
C2823 C1148 1.172 . S
C2832 C1150 1.004 . S
C2834 C1232 1.172 . S
C2843 C1316 1.177 . S
C2845 C1234 0.983 . S
C2854 C1064 1.172 . S
C2856 C1318 0.996 . S
C2865 C1413 1.004 . S
C2867 C1663 1.172 . S
C2876 C1411 1.176 . S
C2878 C1497 0.986 . S
C2887 C1495 1.172 . S
C2889 C1581 1.001 . S
C2898 C1665 0.997 . S
C2900 C1579 1.173 . S
C2909 C1749 0.990 . S
C2911 C1831 1.175 . S
C2920 C1915 1.176 . S
C2922 C1833 0.985 . S
C2931 C1917 0.984 . S
C2933 C1999 1.175 . S
C2942 C1747 1.175 . S
C2944 C2001 0.989 . S
C2953 C2324 1.175 . S
C2955 C2074 0.992 . S
C2964 C2072 1.172 . S
C2966 C2158 1.001 . S
C2975 C2242 1.002 . S
C2977 C2156 1.173 . S
C2986 C2240 1.175 . S
C2988 C2326 0.991 . S
C2997 C2492 1.177 . S
C2999 C2410 0.983 . S
C3008 C2576 1.176 . S
C3010 C2494 0.987 . S
C3019 C2660 1.176 . S
C3021 C2578 0.987 . S
C3030 C2662 0.992 . S
C3032 C2408 1.175 . S
C3041 C2337 1.356 . S
C3043 C63 1.574 . S
C3052 C147 1.572 . S
C3054 C741 1.354 . S
C3063 C231 1.575 . S
C3065 C2169 1.362 . S
C3074 C315 1.575 . S
C3076 C909 1.366 . S
C3085 C399 1.573 . S
C3087 C2505 1.353 . S
C3096 C1245 1.353 . S
C3098 C483 1.574 . S
C3107 C2673 1.362 . S
C3109 C567 1.572 . S
C3118 C651 1.574 . S
C3120 C1077 1.354 . S
C3129 C746 1.574 . S
C3131 C1654 1.359 . S
C3140 C58 1.352 . S
C3142 C830 1.573 . S
C3151 C1486 1.353 . S
C3153 C914 1.573 . S
C3162 C226 1.368 . S
C3164 C998 1.575 . S
C3173 C1822 1.364 . S
C3175 C1082 1.573 . S
C3184 C562 1.368 . S
C3186 C1166 1.574 . S
C3195 C1250 1.574 . S
C3197 C1990 1.366 . S
C3206 C1334 1.573 . S
C3208 C394 1.363 . S
C3217 C1407 1.572 . S
C3219 C993 1.359 . S
C3228 C1491 1.575 . S
C3230 C2085 1.362 . S
C3239 C1575 1.572 . S
C3241 C825 1.362 . S
C3250 C1659 1.575 . S
C3252 C2253 1.359 . S
C3261 C1743 1.572 . S
C3263 C1161 1.359 . S
C3272 C1827 1.572 . S
C3274 C2589 1.362 . S
C3283 C1329 1.359 . S
C3285 C1911 1.572 . S
C3294 C1995 1.575 . S
C3296 C2421 1.364 . S
C3305 C310 1.368 . S
C3307 C2090 1.574 . S
C3316 C1402 1.368 . S
C3318 C2174 1.575 . S
C3327 C142 1.368 . S
C3329 C2258 1.574 . S
C3338 C1570 1.367 . S
C3340 C2342 1.574 . S
C3349 C478 1.352 . S
C3351 C2426 1.573 . S
C3360 C2510 1.572 . S
C3362 C1906 1.356 . S
C3371 C2594 1.573 . S
C3373 C646 1.354 . S
C3382 C1738 1.357 . S
C3384 C2678 1.572 . S
C3393 C74 1.307 . S
C3395 C410 1.319 . S
C3404 C158 1.309 . S
C3406 C494 1.318 . S
C3415 C242 1.305 . S
C3417 C578 1.319 . S
C3426 C662 1.304 . S
C3428 C326 1.317 . S
C3437 C1071 1.307 . S
C3439 C735 1.318 . S
C3448 C1155 1.316 . S
C3450 C819 1.313 . S
C3459 C903 1.303 . S
C3461 C1239 1.318 . S
C3470 C987 1.313 . S
C3472 C1323 1.309 . S
C3481 C1418 1.307 . S
C3483 C1754 1.312 . S
C3492 C1838 1.311 . S
C3494 C1502 1.318 . S
C3503 C1922 1.320 . S
C3505 C1586 1.306 . S
C3514 C2006 1.314 . S
C3516 C1670 1.307 . S
C3525 C2415 1.311 . S
C3527 C2079 1.310 . S
C3536 C2163 1.304 . S
C3538 C2499 1.318 . S
C3547 C2583 1.319 . S
C3549 C2247 1.306 . S
C3558 C2331 1.305 . S
C3560 C2667 1.315 . S
C3569 C644 2.445 . S
C3571 C56 2.446 . S
C3580 C140 2.445 . S
C3582 C392 2.441 . S
C3591 C224 2.447 . S
C3593 C476 2.443 . S
C3602 C560 2.443 . S
C3604 C308 2.441 . S
C3613 C739 2.440 . S
C3615 C1327 2.443 . S
C3624 C1075 2.441 . S
C3626 C823 2.445 . S
C3635 C1159 2.446 . S
C3637 C907 2.446 . S
C3646 C991 2.444 . S
C3648 C1243 2.447 . S
C3657 C1400 2.447 . S
C3659 C1988 2.443 . S
C3668 C1736 2.440 . S
C3670 C1484 2.444 . S
C3679 C1820 2.447 . S
C3681 C1568 2.445 . S
C3690 C1904 2.447 . S
C3692 C1652 2.444 . S
C3701 C2083 2.441 . S
C3703 C2671 2.443 . S
C3712 C2419 2.447 . S
C3714 C2167 2.442 . S
C3723 C2251 2.447 . S
C3725 C2503 2.446 . S
C3734 C2587 2.447 . S
C3736 C2335 2.443 . S
