# Generated by pormake.
# Topology ums, (4)-cn, num edge types: 1
# Building blocks:
#     Node 0, Type 0, BuildingBlock: CEKHIL_clean_sbu_0, # of connection points: 4
#     Node 1, Type 0, BuildingBlock: CEKHIL_clean_sbu_0, # of connection points: 4
#     Node 2, Type 0, BuildingBlock: CEKHIL_clean_sbu_0, # of connection points: 4
#     Node 3, Type 0, BuildingBlock: CEKHIL_clean_sbu_0, # of connection points: 4
#     Node 4, Type 0, BuildingBlock: CEKHIL_clean_sbu_0, # of connection points: 4
#     Node 5, Type 0, BuildingBlock: CEKHIL_clean_sbu_0, # of connection points: 4
#     Node 6, Type 0, BuildingBlock: CEKHIL_clean_sbu_0, # of connection points: 4
#     Node 7, Type 0, BuildingBlock: CEKHIL_clean_sbu_0, # of connection points: 4
#     Node 8, Type 0, BuildingBlock: CEKHIL_clean_sbu_0, # of connection points: 4
#     Node 9, Type 0, BuildingBlock: CEKHIL_clean_sbu_0, # of connection points: 4
#     Node 10, Type 0, BuildingBlock: CEKHIL_clean_sbu_0, # of connection points: 4
#     Node 11, Type 0, BuildingBlock: CEKHIL_clean_sbu_0, # of connection points: 4
#     Node 12, Type 0, BuildingBlock: CEKHIL_clean_sbu_0, # of connection points: 4
#     Node 13, Type 0, BuildingBlock: CEKHIL_clean_sbu_0, # of connection points: 4
#     Node 14, Type 0, BuildingBlock: CEKHIL_clean_sbu_0, # of connection points: 4
#     Node 15, Type 0, BuildingBlock: CEKHIL_clean_sbu_0, # of connection points: 4
#     Node 16, Type 0, BuildingBlock: CEKHIL_clean_sbu_0, # of connection points: 4
#     Node 17, Type 0, BuildingBlock: CEKHIL_clean_sbu_0, # of connection points: 4
#     Node 18, Type 0, BuildingBlock: CEKHIL_clean_sbu_0, # of connection points: 4
#     Node 19, Type 0, BuildingBlock: CEKHIL_clean_sbu_0, # of connection points: 4
#     Node 20, Type 0, BuildingBlock: CEKHIL_clean_sbu_0, # of connection points: 4
#     Node 21, Type 0, BuildingBlock: CEKHIL_clean_sbu_0, # of connection points: 4
#     Node 22, Type 0, BuildingBlock: CEKHIL_clean_sbu_0, # of connection points: 4
#     Node 23, Type 0, BuildingBlock: CEKHIL_clean_sbu_0, # of connection points: 4
#     Node 24, Type 0, BuildingBlock: CEKHIL_clean_sbu_0, # of connection points: 4
#     Node 25, Type 0, BuildingBlock: CEKHIL_clean_sbu_0, # of connection points: 4
#     Node 26, Type 0, BuildingBlock: CEKHIL_clean_sbu_0, # of connection points: 4
#     Node 27, Type 0, BuildingBlock: CEKHIL_clean_sbu_0, # of connection points: 4
#     Node 28, Type 0, BuildingBlock: CEKHIL_clean_sbu_0, # of connection points: 4
#     Node 29, Type 0, BuildingBlock: CEKHIL_clean_sbu_0, # of connection points: 4
#     Node 30, Type 0, BuildingBlock: CEKHIL_clean_sbu_0, # of connection points: 4
#     Node 31, Type 0, BuildingBlock: CEKHIL_clean_sbu_0, # of connection points: 4
#     Node 32, Type 0, BuildingBlock: CEKHIL_clean_sbu_0, # of connection points: 4
#     Node 33, Type 0, BuildingBlock: CEKHIL_clean_sbu_0, # of connection points: 4
#     Node 34, Type 0, BuildingBlock: CEKHIL_clean_sbu_0, # of connection points: 4
#     Node 35, Type 0, BuildingBlock: CEKHIL_clean_sbu_0, # of connection points: 4
#     Edge 36, Type (0, 0), BuildingBlock: EZIPEK_clean_linker_0, # of connection points: 2
#     Edge 37, Type (0, 0), BuildingBlock: EZIPEK_clean_linker_0, # of connection points: 2
#     Edge 38, Type (0, 0), BuildingBlock: EZIPEK_clean_linker_0, # of connection points: 2
#     Edge 39, Type (0, 0), BuildingBlock: EZIPEK_clean_linker_0, # of connection points: 2
#     Edge 40, Type (0, 0), BuildingBlock: EZIPEK_clean_linker_0, # of connection points: 2
#     Edge 41, Type (0, 0), BuildingBlock: EZIPEK_clean_linker_0, # of connection points: 2
#     Edge 42, Type (0, 0), BuildingBlock: EZIPEK_clean_linker_0, # of connection points: 2
#     Edge 43, Type (0, 0), BuildingBlock: EZIPEK_clean_linker_0, # of connection points: 2
#     Edge 44, Type (0, 0), BuildingBlock: EZIPEK_clean_linker_0, # of connection points: 2
#     Edge 45, Type (0, 0), BuildingBlock: EZIPEK_clean_linker_0, # of connection points: 2
#     Edge 46, Type (0, 0), BuildingBlock: EZIPEK_clean_linker_0, # of connection points: 2
#     Edge 47, Type (0, 0), BuildingBlock: EZIPEK_clean_linker_0, # of connection points: 2
#     Edge 48, Type (0, 0), BuildingBlock: EZIPEK_clean_linker_0, # of connection points: 2
#     Edge 49, Type (0, 0), BuildingBlock: EZIPEK_clean_linker_0, # of connection points: 2
#     Edge 50, Type (0, 0), BuildingBlock: EZIPEK_clean_linker_0, # of connection points: 2
#     Edge 51, Type (0, 0), BuildingBlock: EZIPEK_clean_linker_0, # of connection points: 2
#     Edge 52, Type (0, 0), BuildingBlock: EZIPEK_clean_linker_0, # of connection points: 2
#     Edge 53, Type (0, 0), BuildingBlock: EZIPEK_clean_linker_0, # of connection points: 2
#     Edge 54, Type (0, 0), BuildingBlock: EZIPEK_clean_linker_0, # of connection points: 2
#     Edge 55, Type (0, 0), BuildingBlock: EZIPEK_clean_linker_0, # of connection points: 2
#     Edge 56, Type (0, 0), BuildingBlock: EZIPEK_clean_linker_0, # of connection points: 2
#     Edge 57, Type (0, 0), BuildingBlock: EZIPEK_clean_linker_0, # of connection points: 2
#     Edge 58, Type (0, 0), BuildingBlock: EZIPEK_clean_linker_0, # of connection points: 2
#     Edge 59, Type (0, 0), BuildingBlock: EZIPEK_clean_linker_0, # of connection points: 2
#     Edge 60, Type (0, 0), BuildingBlock: EZIPEK_clean_linker_0, # of connection points: 2
#     Edge 61, Type (0, 0), BuildingBlock: EZIPEK_clean_linker_0, # of connection points: 2
#     Edge 62, Type (0, 0), BuildingBlock: EZIPEK_clean_linker_0, # of connection points: 2
#     Edge 63, Type (0, 0), BuildingBlock: EZIPEK_clean_linker_0, # of connection points: 2
#     Edge 64, Type (0, 0), BuildingBlock: EZIPEK_clean_linker_0, # of connection points: 2
#     Edge 65, Type (0, 0), BuildingBlock: EZIPEK_clean_linker_0, # of connection points: 2
#     Edge 66, Type (0, 0), BuildingBlock: EZIPEK_clean_linker_0, # of connection points: 2
#     Edge 67, Type (0, 0), BuildingBlock: EZIPEK_clean_linker_0, # of connection points: 2
#     Edge 68, Type (0, 0), BuildingBlock: EZIPEK_clean_linker_0, # of connection points: 2
#     Edge 69, Type (0, 0), BuildingBlock: EZIPEK_clean_linker_0, # of connection points: 2
#     Edge 70, Type (0, 0), BuildingBlock: EZIPEK_clean_linker_0, # of connection points: 2
#     Edge 71, Type (0, 0), BuildingBlock: EZIPEK_clean_linker_0, # of connection points: 2
#     Edge 72, Type (0, 0), BuildingBlock: EZIPEK_clean_linker_0, # of connection points: 2
#     Edge 73, Type (0, 0), BuildingBlock: EZIPEK_clean_linker_0, # of connection points: 2
#     Edge 74, Type (0, 0), BuildingBlock: EZIPEK_clean_linker_0, # of connection points: 2
#     Edge 75, Type (0, 0), BuildingBlock: EZIPEK_clean_linker_0, # of connection points: 2
#     Edge 76, Type (0, 0), BuildingBlock: EZIPEK_clean_linker_0, # of connection points: 2
#     Edge 77, Type (0, 0), BuildingBlock: EZIPEK_clean_linker_0, # of connection points: 2
#     Edge 78, Type (0, 0), BuildingBlock: EZIPEK_clean_linker_0, # of connection points: 2
#     Edge 79, Type (0, 0), BuildingBlock: EZIPEK_clean_linker_0, # of connection points: 2
#     Edge 80, Type (0, 0), BuildingBlock: EZIPEK_clean_linker_0, # of connection points: 2
#     Edge 81, Type (0, 0), BuildingBlock: EZIPEK_clean_linker_0, # of connection points: 2
#     Edge 82, Type (0, 0), BuildingBlock: EZIPEK_clean_linker_0, # of connection points: 2
#     Edge 83, Type (0, 0), BuildingBlock: EZIPEK_clean_linker_0, # of connection points: 2
#     Edge 84, Type (0, 0), BuildingBlock: EZIPEK_clean_linker_0, # of connection points: 2
#     Edge 85, Type (0, 0), BuildingBlock: EZIPEK_clean_linker_0, # of connection points: 2
#     Edge 86, Type (0, 0), BuildingBlock: EZIPEK_clean_linker_0, # of connection points: 2
#     Edge 87, Type (0, 0), BuildingBlock: EZIPEK_clean_linker_0, # of connection points: 2
#     Edge 88, Type (0, 0), BuildingBlock: EZIPEK_clean_linker_0, # of connection points: 2
#     Edge 89, Type (0, 0), BuildingBlock: EZIPEK_clean_linker_0, # of connection points: 2
#     Edge 90, Type (0, 0), BuildingBlock: EZIPEK_clean_linker_0, # of connection points: 2
#     Edge 91, Type (0, 0), BuildingBlock: EZIPEK_clean_linker_0, # of connection points: 2
#     Edge 92, Type (0, 0), BuildingBlock: EZIPEK_clean_linker_0, # of connection points: 2
#     Edge 93, Type (0, 0), BuildingBlock: EZIPEK_clean_linker_0, # of connection points: 2
#     Edge 94, Type (0, 0), BuildingBlock: EZIPEK_clean_linker_0, # of connection points: 2
#     Edge 95, Type (0, 0), BuildingBlock: EZIPEK_clean_linker_0, # of connection points: 2
#     Edge 96, Type (0, 0), BuildingBlock: EZIPEK_clean_linker_0, # of connection points: 2
#     Edge 97, Type (0, 0), BuildingBlock: EZIPEK_clean_linker_0, # of connection points: 2
#     Edge 98, Type (0, 0), BuildingBlock: EZIPEK_clean_linker_0, # of connection points: 2
#     Edge 99, Type (0, 0), BuildingBlock: EZIPEK_clean_linker_0, # of connection points: 2
#     Edge 100, Type (0, 0), BuildingBlock: EZIPEK_clean_linker_0, # of connection points: 2
#     Edge 101, Type (0, 0), BuildingBlock: EZIPEK_clean_linker_0, # of connection points: 2
#     Edge 102, Type (0, 0), BuildingBlock: EZIPEK_clean_linker_0, # of connection points: 2
#     Edge 103, Type (0, 0), BuildingBlock: EZIPEK_clean_linker_0, # of connection points: 2
#     Edge 104, Type (0, 0), BuildingBlock: EZIPEK_clean_linker_0, # of connection points: 2
#     Edge 105, Type (0, 0), BuildingBlock: EZIPEK_clean_linker_0, # of connection points: 2
#     Edge 106, Type (0, 0), BuildingBlock: EZIPEK_clean_linker_0, # of connection points: 2
#     Edge 107, Type (0, 0), BuildingBlock: EZIPEK_clean_linker_0, # of connection points: 2
# Relax obj value: 0.196
# Max RMSD: 0.151
# Mean RMSD: 0.149
data_MOF--net-ums--node1-CEKHIL_clean_sbu_0--edge1-EZIPEK_clean_linker_0
_symmetry_space_group_name_H-M    P1
_symmetry_Int_Tables_number       1
_symmetry_cell_setting            triclinic
loop_
_symmetry_equiv_pos_as_xyz
'x, y, z'
_cell_length_a     73.194603
_cell_length_b     73.259014
_cell_length_c     17.380138
_cell_angle_alpha  90.045075
_cell_angle_beta   90.009318
_cell_angle_gamma 119.91581
loop_
_atom_site_label
_atom_site_type_symbol
_atom_site_fract_x
_atom_site_fract_y
_atom_site_fract_z
_atom_type_partial_charge
Co0 Co 0.18615 0.26612 0.18691 0.0
O1 O 0.20878 0.26608 0.24485 0.0
O2 O 0.18657 0.24033 0.16842 0.0
C3 C 0.20625 0.29982 0.14161 0.0
O4 O 0.16182 0.25965 0.11401 0.0
Co5 Co 0.16864 0.29571 0.21599 0.0
O6 O 0.15027 0.28261 0.12532 0.0
C7 C 0.1585 0.26135 0.32353 0.0
C8 C 0.20279 0.24779 0.21381 0.0
C9 C 0.15 0.26703 0.09223 0.0
O10 O 0.1662 0.25313 0.27736 0.0
O11 O 0.15984 0.27918 0.31253 0.0
O12 O 0.20627 0.28398 0.10784 0.0
O13 O 0.19467 0.29499 0.20272 0.0
Co14 Co 0.73942 0.92447 0.19542 0.0
O15 O 0.74397 0.94843 0.25609 0.0
O16 O 0.76691 0.94837 0.17297 0.0
C17 C 0.70649 0.91466 0.15396 0.0
O18 O 0.73962 0.90325 0.11922 0.0
Co19 Co 0.70368 0.87935 0.24153 0.0
O20 O 0.71452 0.87058 0.15318 0.0
C21 C 0.7423 0.90037 0.3329 0.0
C22 C 0.76199 0.95881 0.22125 0.0
C23 C 0.72923 0.88315 0.10842 0.0
O24 O 0.75149 0.91472 0.28111 0.0
O25 O 0.72275 0.88655 0.33162 0.0
O26 O 0.72275 0.93023 0.12126 0.0
O27 O 0.71059 0.90769 0.21588 0.0
Co28 Co 0.0826 0.82419 0.18698 0.0
O29 O 0.06061 0.80398 0.25294 0.0
O30 O 0.05753 0.82644 0.17654 0.0
C31 C 0.09167 0.80112 0.13843 0.0
O32 O 0.10074 0.84681 0.10876 0.0
Co33 Co 0.12974 0.83559 0.19888 0.0
O34 O 0.13295 0.85024 0.10004 0.0
C35 C 0.11123 0.85205 0.31276 0.0
C36 C 0.04867 0.81073 0.22417 0.0
C37 C 0.11895 0.85443 0.07679 0.0
O38 O 0.09405 0.84536 0.27383 0.0
O39 O 0.12605 0.84835 0.29513 0.0
O40 O 0.07567 0.80198 0.11033 0.0
O41 O 0.10078 0.81322 0.19646 0.0
Co42 Co 0.26781 0.18854 0.30916 0.0
O43 O 0.26728 0.21016 0.24678 0.0
O44 O 0.2404 0.18625 0.31494 0.0
C45 C 0.29923 0.21026 0.36619 0.0
O46 O 0.26195 0.16462 0.38332 0.0
Co47 Co 0.3033 0.17664 0.29931 0.0
O48 O 0.29071 0.16129 0.39613 0.0
C49 C 0.26982 0.16182 0.18019 0.0
C50 C 0.24808 0.20279 0.27117 0.0
C51 C 0.27223 0.15682 0.41655 0.0
O52 O 0.25927 0.1687 0.21791 0.0
O53 O 0.28789 0.16478 0.2006 0.0
O54 O 0.28209 0.20938 0.39136 0.0
O55 O 0.29695 0.19917 0.30572 0.0
Co56 Co 0.81961 0.08278 0.3127 0.0
O57 O 0.79752 0.05919 0.25713 0.0
O58 O 0.82327 0.05853 0.32183 0.0
C59 C 0.79803 0.09249 0.37146 0.0
O60 O 0.84463 0.10268 0.37996 0.0
Co61 Co 0.83002 0.12907 0.29127 0.0
O62 O 0.84817 0.13489 0.38317 0.0
C63 C 0.84364 0.10895 0.17447 0.0
C64 C 0.80624 0.0485 0.28087 0.0
C65 C 0.85309 0.12148 0.40727 0.0
O66 O 0.83778 0.09256 0.21703 0.0
O67 O 0.84053 0.12418 0.19146 0.0
O68 O 0.8003 0.07731 0.39961 0.0
O69 O 0.8077 0.10036 0.30755 0.0
Co70 Co 0.9245 0.74657 0.32052 0.0
O71 O 0.94607 0.7475 0.25412 0.0
O72 O 0.94965 0.77387 0.32696 0.0
C73 C 0.91588 0.71502 0.37328 0.0
O74 O 0.90684 0.75193 0.3984 0.0
Co75 Co 0.87735 0.7108 0.31385 0.0
O76 O 0.87469 0.72336 0.4109 0.0
C77 C 0.89511 0.74435 0.19488 0.0
C78 C 0.95823 0.7664 0.28049 0.0
C79 C 0.88881 0.74171 0.43176 0.0
O80 O 0.91247 0.75529 0.23241 0.0
O81 O 0.88046 0.72606 0.21517 0.0
O82 O 0.93195 0.73216 0.39916 0.0
O83 O 0.90635 0.71741 0.31523 0.0
Co84 Co 0.82098 0.74426 0.81915 0.0
O85 O 0.80079 0.7471 0.75573 0.0
O86 O 0.82339 0.77138 0.83617 0.0
C87 C 0.79798 0.71124 0.86112 0.0
O88 O 0.84342 0.74786 0.89674 0.0
Co89 Co 0.83324 0.70927 0.80074 0.0
O90 O 0.84737 0.71941 0.90144 0.0
C91 C 0.85007 0.74577 0.69369 0.0
C92 C 0.80785 0.7654 0.78826 0.0
C93 C 0.8512 0.73725 0.92718 0.0
O94 O 0.84258 0.75539 0.73364 0.0
O95 O 0.84672 0.72724 0.70839 0.0
O96 O 0.79841 0.72752 0.89301 0.0
O97 O 0.81046 0.71537 0.8035 0.0
Co98 Co 0.26574 0.08462 0.80731 0.0
O99 O 0.26264 0.06146 0.74448 0.0
O100 O 0.23777 0.06079 0.81926 0.0
C101 C 0.29762 0.09251 0.85618 0.0
O102 O 0.26249 0.10406 0.88336 0.0
Co103 Co 0.30276 0.1309 0.79196 0.0
O104 O 0.29223 0.13541 0.89094 0.0
C105 C 0.26744 0.11329 0.67957 0.0
C106 C 0.24382 0.05081 0.77354 0.0
C107 C 0.27382 0.12223 0.91468 0.0
O108 O 0.25672 0.0963 0.719 0.0
O109 O 0.28616 0.12775 0.69651 0.0
O110 O 0.28038 0.07721 0.88504 0.0
O111 O 0.29506 0.10161 0.79713 0.0
Co112 Co 0.92362 0.18237 0.81514 0.0
O113 O 0.9474 0.20446 0.76088 0.0
O114 O 0.94711 0.17732 0.81857 0.0
C115 C 0.91576 0.20411 0.88217 0.0
O116 O 0.90317 0.15708 0.87969 0.0
Co117 Co 0.87809 0.17491 0.79923 0.0
O118 O 0.87196 0.15579 0.88813 0.0
C119 C 0.896 0.16073 0.67604 0.0
C120 C 0.95753 0.19484 0.78067 0.0
C121 C 0.88462 0.1495 0.9086 0.0
O122 O 0.91252 0.16544 0.7167 0.0
O123 O 0.88153 0.16465 0.69658 0.0
O124 O 0.93055 0.20063 0.90615 0.0
O125 O 0.90731 0.19567 0.81707 0.0
Co126 Co 0.7441 0.8253 0.69356 0.0
O127 O 0.74467 0.80354 0.75474 0.0
O128 O 0.77241 0.82983 0.698 0.0
C129 C 0.71506 0.80206 0.62745 0.0
O130 O 0.75062 0.84994 0.6215 0.0
Co131 Co 0.70661 0.83383 0.68205 0.0
O132 O 0.72123 0.85081 0.59121 0.0
C133 C 0.73475 0.84758 0.82009 0.0
C134 C 0.76451 0.81238 0.73669 0.0
C135 C 0.74066 0.857 0.58157 0.0
O136 O 0.74791 0.84278 0.78939 0.0
O137 O 0.71776 0.84438 0.78708 0.0
O138 O 0.73356 0.80549 0.60662 0.0
O139 O 0.71471 0.81249 0.68644 0.0
Co140 Co 0.18504 0.92691 0.68596 0.0
O141 O 0.20548 0.94964 0.7493 0.0
O142 O 0.18154 0.95119 0.67568 0.0
C143 C 0.20848 0.91848 0.63585 0.0
O144 O 0.16213 0.90817 0.60973 0.0
Co145 Co 0.17474 0.88022 0.69783 0.0
O146 O 0.15968 0.87647 0.59936 0.0
C147 C 0.1577 0.89799 0.81245 0.0
C148 C 0.19769 0.96075 0.72115 0.0
C149 C 0.15489 0.89011 0.57717 0.0
O150 O 0.16439 0.91529 0.77446 0.0
O151 O 0.1615 0.8833 0.79389 0.0
O152 O 0.20689 0.93405 0.60753 0.0
O153 O 0.19677 0.90935 0.69468 0.0
Co154 Co 0.08112 0.25745 0.68323 0.0
O155 O 0.05827 0.25651 0.74211 0.0
O156 O 0.05656 0.22971 0.67657 0.0
C157 C 0.09039 0.28847 0.62391 0.0
O158 O 0.1003 0.25202 0.61336 0.0
Co159 Co 0.1279 0.29394 0.69723 0.0
O160 O 0.13193 0.28133 0.60255 0.0
C161 C 0.10895 0.26075 0.81718 0.0
C162 C 0.04709 0.23717 0.71845 0.0
C163 C 0.11858 0.26261 0.58213 0.0
O164 O 0.09207 0.24963 0.77732 0.0
O165 O 0.12378 0.279 0.79737 0.0
O166 O 0.0747 0.27103 0.59796 0.0
O167 O 0.09887 0.28668 0.68621 0.0
Co168 Co 0.85617 0.59697 0.53147 0.0
O169 O 0.87604 0.59218 0.58855 0.0
O170 O 0.85286 0.56977 0.50489 0.0
C171 C 0.87917 0.63017 0.49325 0.0
O172 O 0.83436 0.59701 0.45759 0.0
Co173 Co 0.8465 0.63229 0.58143 0.0
O174 O 0.82612 0.62138 0.49539 0.0
C175 C 0.83001 0.59363 0.67189 0.0
C176 C 0.86858 0.57455 0.55115 0.0
C177 C 0.82414 0.60701 0.44908 0.0
O178 O 0.83473 0.58444 0.6184 0.0
O179 O 0.8358 0.6132 0.67159 0.0
O180 O 0.87829 0.61419 0.45731 0.0
O181 O 0.86809 0.6256 0.5552 0.0
Co182 Co 0.41468 0.25737 0.54768 0.0
O183 O 0.42101 0.2824 0.60502 0.0
O184 O 0.44311 0.27958 0.52538 0.0
C185 C 0.38261 0.25008 0.50396 0.0
O186 O 0.41326 0.23475 0.47458 0.0
Co187 Co 0.37657 0.21389 0.5946 0.0
O188 O 0.38705 0.20303 0.51155 0.0
C189 C 0.41456 0.23313 0.68947 0.0
C190 C 0.43921 0.29132 0.57088 0.0
C191 C 0.4021 0.21461 0.4662 0.0
O192 O 0.42491 0.24673 0.6365 0.0
O193 O 0.39469 0.22055 0.68731 0.0
O194 O 0.39965 0.2644 0.47059 0.0
O195 O 0.38562 0.24269 0.56701 0.0
Co196 Co 0.75178 0.16168 0.5634 0.0
O197 O 0.7287 0.13676 0.60993 0.0
O198 O 0.72585 0.16237 0.55404 0.0
C199 C 0.76493 0.14338 0.49905 0.0
O200 O 0.76999 0.18893 0.5036 0.0
Co201 Co 0.7985 0.17763 0.58686 0.0
O202 O 0.80386 0.19768 0.50238 0.0
C203 C 0.77396 0.18136 0.71283 0.0
C204 C 0.71672 0.14426 0.58848 0.0
C205 C 0.78888 0.20014 0.47819 0.0
O206 O 0.75837 0.17668 0.66695 0.0
O207 O 0.79045 0.1808 0.69292 0.0
O208 O 0.74965 0.14548 0.47056 0.0
O209 O 0.77172 0.15223 0.56539 0.0
Co210 Co 0.93196 0.51166 0.60996 0.0
O211 O 0.93235 0.53527 0.5573 0.0
O212 O 0.90537 0.51079 0.62309 0.0
C213 C 0.96466 0.53204 0.66324 0.0
O214 O 0.92422 0.48588 0.67762 0.0
Co215 Co 0.96282 0.49543 0.592 0.0
O216 O 0.94913 0.47677 0.68054 0.0
C217 C 0.93283 0.48892 0.46753 0.0
C218 C 0.91334 0.52808 0.58367 0.0
C219 C 0.93193 0.47484 0.70493 0.0
O220 O 0.92214 0.49435 0.51155 0.0
O221 O 0.95006 0.48992 0.488 0.0
O222 O 0.94791 0.53048 0.69566 0.0
O223 O 0.96117 0.52108 0.60119 0.0
Co224 Co 0.4959 0.41597 0.63145 0.0
O225 O 0.47615 0.39079 0.57712 0.0
O226 O 0.50108 0.39313 0.65565 0.0
C227 C 0.47243 0.42514 0.67513 0.0
O228 O 0.51808 0.43872 0.70148 0.0
Co229 Co 0.50309 0.45976 0.5792 0.0
O230 O 0.52501 0.47061 0.66028 0.0
C231 C 0.51893 0.43773 0.48494 0.0
C232 C 0.48508 0.38153 0.61138 0.0
C233 C 0.52795 0.45897 0.70725 0.0
O234 O 0.51608 0.42496 0.54067 0.0
O235 O 0.51227 0.45085 0.48575 0.0
O236 O 0.47455 0.41059 0.70987 0.0
O237 O 0.48258 0.4316 0.61115 0.0
Co238 Co 0.59105 0.07363 0.64566 0.0
O239 O 0.61588 0.07794 0.59111 0.0
O240 O 0.61485 0.10093 0.6713 0.0
C241 C 0.58037 0.04056 0.68767 0.0
O242 O 0.56885 0.07412 0.71617 0.0
Co243 Co 0.54646 0.03868 0.59264 0.0
O244 O 0.53649 0.05055 0.67392 0.0
C245 C 0.56986 0.07653 0.49976 0.0
C246 C 0.62589 0.09591 0.6265 0.0
C247 C 0.54857 0.06467 0.72154 0.0
O248 O 0.58288 0.08587 0.55557 0.0
O249 O 0.55608 0.05697 0.49997 0.0
O250 O 0.59538 0.05671 0.72307 0.0
O251 O 0.57428 0.04488 0.62404 0.0
Co252 Co 0.49268 0.07566 0.1471 0.0
O253 O 0.46899 0.07521 0.09515 0.0
O254 O 0.49508 0.1031 0.15207 0.0
C255 C 0.47242 0.04522 0.21183 0.0
O256 O 0.51901 0.08326 0.21143 0.0
Co257 Co 0.50512 0.0409 0.13877 0.0
O258 O 0.52524 0.05633 0.22203 0.0
C259 C 0.51372 0.07002 0.00705 0.0
C260 C 0.47711 0.09475 0.11653 0.0
C261 C 0.52908 0.07469 0.24067 0.0
O262 O 0.50886 0.08206 0.04602 0.0
O263 O 0.51181 0.05283 0.03313 0.0
O264 O 0.4747 0.06284 0.23817 0.0
O265 O 0.48194 0.0464 0.14828 0.0
Co266 Co 0.93113 0.41386 0.11425 0.0
O267 O 0.92632 0.38842 0.06314 0.0
O268 O 0.90383 0.39063 0.14267 0.0
C269 C 0.96485 0.42445 0.15363 0.0
O270 O 0.93084 0.43658 0.18185 0.0
Co271 Co 0.96489 0.45759 0.05854 0.0
O272 O 0.95248 0.46858 0.13353 0.0
C273 C 0.92784 0.43346 0.96514 0.0
C274 C 0.9084 0.37902 0.09918 0.0
C275 C 0.93909 0.45676 0.18336 0.0
O276 O 0.91849 0.42123 0.02283 0.0
O277 O 0.94747 0.44689 0.96442 0.0
O278 O 0.94869 0.41053 0.19245 0.0
O279 O 0.95986 0.43008 0.09035 0.0
Co280 Co 0.59473 0.51532 0.1329 0.0
O281 O 0.61806 0.53908 0.08215 0.0
O282 O 0.6196 0.51258 0.13691 0.0
C283 C 0.58462 0.5354 0.19961 0.0
O284 O 0.57587 0.48881 0.19556 0.0
Co285 Co 0.54762 0.50338 0.12548 0.0
O286 O 0.54309 0.48346 0.20923 0.0
C287 C 0.56796 0.4948 0.99259 0.0
C288 C 0.62932 0.53066 0.10241 0.0
C289 C 0.55742 0.47914 0.22612 0.0
O290 O 0.58492 0.49961 0.03096 0.0
O291 O 0.55267 0.49662 0.01957 0.0
O292 O 0.59988 0.53286 0.22535 0.0
O293 O 0.57635 0.52625 0.13547 0.0
Co294 Co 0.412 0.15505 0.04717 0.0
O295 O 0.41199 0.13216 0.10328 0.0
O296 O 0.43969 0.15795 0.04462 0.0
C297 C 0.38164 0.13366 0.98348 0.0
O298 O 0.41913 0.18053 0.97892 0.0
Co299 Co 0.37633 0.16649 0.04674 0.0
O300 O 0.39046 0.18327 0.95477 0.0
C301 C 0.40565 0.17754 0.18074 0.0
C302 C 0.43155 0.1403 0.08196 0.0
C303 C 0.40954 0.18847 0.94181 0.0
O304 O 0.41785 0.17215 0.1457 0.0
O305 O 0.38866 0.17544 0.15142 0.0
O306 O 0.39943 0.13594 0.95883 0.0
O307 O 0.38274 0.14393 0.04492 0.0
Co308 Co 0.84802 0.25305 0.05874 0.0
O309 O 0.87017 0.27853 0.1044 0.0
O310 O 0.84467 0.2768 0.03052 0.0
C311 C 0.86911 0.24082 0.01365 0.0
O312 O 0.82343 0.23029 0.99699 0.0
Co313 Co 0.83673 0.20991 0.11987 0.0
O314 O 0.81129 0.199 0.05338 0.0
C315 C 0.8268 0.23612 0.21323 0.0
C316 C 0.86166 0.28825 0.07048 0.0
C317 C 0.81022 0.2104 0.00059 0.0
O318 O 0.82981 0.24784 0.15397 0.0
O319 O 0.83167 0.22169 0.21471 0.0
O320 O 0.86669 0.25472 0.97558 0.0
O321 O 0.86022 0.23606 0.08079 0.0
Co322 Co 0.75437 0.59536 0.02973 0.0
O323 O 0.7316 0.59494 0.08832 0.0
O324 O 0.72981 0.56756 0.0272 0.0
C325 C 0.7623 0.62582 0.96904 0.0
O326 O 0.77259 0.58859 0.95871 0.0
Co327 Co 0.80111 0.63116 0.02659 0.0
O328 O 0.80408 0.61704 0.93513 0.0
C329 C 0.78382 0.60195 0.16098 0.0
C330 C 0.72028 0.57547 0.06612 0.0
C331 C 0.79016 0.59804 0.92188 0.0
O332 O 0.76625 0.58949 0.1265 0.0
O333 O 0.79834 0.61907 0.13138 0.0
O334 O 0.74708 0.60796 0.94368 0.0
O335 O 0.77209 0.62471 0.02866 0.0
Co336 Co 0.51586 0.92275 0.8572 0.0
O337 O 0.53628 0.91783 0.90916 0.0
O338 O 0.51149 0.8952 0.83021 0.0
C339 C 0.53833 0.95572 0.81467 0.0
O340 O 0.49298 0.92274 0.78995 0.0
Co341 Co 0.50723 0.95817 0.91321 0.0
O342 O 0.48401 0.94572 0.83702 0.0
C343 C 0.49272 0.92015 0.00501 0.0
C344 C 0.52766 0.89981 0.87379 0.0
C345 C 0.48174 0.93179 0.78813 0.0
O346 O 0.49592 0.91073 0.94832 0.0
O347 O 0.49888 0.9398 0.00564 0.0
O348 O 0.53673 0.93945 0.7785 0.0
O349 O 0.52837 0.95153 0.87923 0.0
Co350 Co 0.08024 0.59372 0.82732 0.0
O351 O 0.07916 0.61551 0.88743 0.0
O352 O 0.10763 0.61865 0.83012 0.0
C353 C 0.05012 0.58498 0.76146 0.0
O354 O 0.08908 0.577 0.75679 0.0
Co355 Co 0.04641 0.54677 0.8149 0.0
O356 O 0.06334 0.544 0.73344 0.0
C357 C 0.0771 0.5622 0.94574 0.0
C358 C 0.09896 0.62731 0.86962 0.0
C359 C 0.08184 0.5592 0.72209 0.0
O360 O 0.08588 0.58159 0.92375 0.0
O361 O 0.06302 0.54705 0.90579 0.0
O362 O 0.06794 0.60085 0.73914 0.0
O363 O 0.05095 0.57506 0.82107 0.0
Co364 Co 0.41591 0.48632 0.8489 0.0
O365 O 0.39058 0.46564 0.90004 0.0
O366 O 0.39261 0.49049 0.82177 0.0
C367 C 0.42696 0.46429 0.80553 0.0
O368 O 0.43868 0.50945 0.78255 0.0
Co369 Co 0.46006 0.49535 0.90534 0.0
O370 O 0.47065 0.51881 0.83036 0.0
C371 C 0.436 0.5092 0.9976 0.0
C372 C 0.38111 0.47425 0.86487 0.0
C373 C 0.45893 0.52095 0.78136 0.0
O374 O 0.42345 0.50603 0.9407 0.0
O375 O 0.44965 0.5032 0.99811 0.0
O376 O 0.41216 0.46571 0.7695 0.0
O377 O 0.43248 0.47406 0.87054 0.0
Co378 Co 0.59354 0.84172 0.95565 0.0
O379 O 0.59094 0.86235 0.89444 0.0
O380 O 0.56497 0.83649 0.95994 0.0
C381 C 0.62379 0.86548 0.01498 0.0
O382 O 0.58963 0.81822 0.02859 0.0
Co383 Co 0.63205 0.83447 0.94738 0.0
O384 O 0.62013 0.81822 0.04319 0.0
C385 C 0.59917 0.8174 0.82585 0.0
C386 C 0.57151 0.85328 0.91802 0.0
C387 C 0.6011 0.8119 0.06239 0.0
O388 O 0.58722 0.82262 0.86319 0.0
O389 O 0.61769 0.82198 0.84739 0.0
O390 O 0.6057 0.86243 0.03941 0.0
O391 O 0.62303 0.85508 0.9541 0.0
Co392 Co 0.15832 0.75092 0.96864 0.0
O393 O 0.1374 0.7286 0.9052 0.0
O394 O 0.16106 0.7261 0.97716 0.0
C395 C 0.1354 0.75973 0.02067 0.0
O396 O 0.18163 0.76938 0.04465 0.0
Co397 Co 0.16924 0.79782 0.95756 0.0
O398 O 0.18453 0.8013 0.0552 0.0
C399 C 0.18531 0.77967 0.84084 0.0
C400 C 0.14477 0.71701 0.93202 0.0
C401 C 0.18918 0.78753 0.07709 0.0
O402 O 0.17871 0.7624 0.87908 0.0
O403 O 0.18175 0.79447 0.86007 0.0
O404 O 0.1368 0.74398 0.04821 0.0
O405 O 0.14698 0.76883 0.96154 0.0
Co406 Co 0.2573 0.41162 0.95005 0.0
O407 O 0.28032 0.41197 0.894 0.0
O408 O 0.28062 0.44009 0.94253 0.0
C409 C 0.25163 0.3839 0.0246 0.0
O410 O 0.23826 0.4185 0.01606 0.0
Co411 Co 0.21172 0.37365 0.95877 0.0
O412 O 0.2072 0.38956 0.04067 0.0
C413 C 0.22629 0.4006 0.8186 0.0
C414 C 0.29075 0.43206 0.90817 0.0
C415 C 0.22045 0.40893 0.05146 0.0
O416 O 0.24402 0.41397 0.8501 0.0
O417 O 0.2125 0.38372 0.85185 0.0
O418 O 0.26628 0.4028 0.043 0.0
O419 O 0.24135 0.38227 0.96251 0.0
Co420 Co 0.1531 0.40506 0.4458 0.0
O421 O 0.13319 0.4094 0.38722 0.0
O422 O 0.15589 0.43213 0.47102 0.0
C423 C 0.1304 0.37184 0.48573 0.0
O424 O 0.175 0.40545 0.52055 0.0
Co425 Co 0.16351 0.37032 0.39605 0.0
O426 O 0.18302 0.38075 0.48472 0.0
C427 C 0.17962 0.40894 0.30551 0.0
C428 C 0.14035 0.42717 0.42358 0.0
C429 C 0.18497 0.39524 0.53039 0.0
O430 O 0.17453 0.41779 0.35908 0.0
O431 O 0.17441 0.38952 0.30588 0.0
O432 O 0.13106 0.38792 0.52004 0.0
O433 O 0.14144 0.37628 0.42355 0.0
Co434 Co 0.59934 0.74173 0.4531 0.0
O435 O 0.59742 0.71875 0.39179 0.0
O436 O 0.57211 0.71694 0.46695 0.0
C437 C 0.63181 0.75182 0.50136 0.0
O438 O 0.59495 0.76069 0.52815 0.0
Co439 Co 0.63447 0.78883 0.435 0.0
O440 O 0.62377 0.79278 0.5346 0.0
C441 C 0.59896 0.76898 0.32374 0.0
C442 C 0.57879 0.70741 0.42176 0.0
C443 C 0.60566 0.77902 0.55905 0.0
O444 O 0.58905 0.75202 0.36411 0.0
O445 O 0.61736 0.78421 0.33982 0.0
O446 O 0.61518 0.73596 0.53112 0.0
O447 O 0.62838 0.76005 0.44162 0.0
Co448 Co 0.26136 0.85399 0.4688 0.0
O449 O 0.28424 0.87479 0.40668 0.0
O450 O 0.28602 0.85107 0.48037 0.0
C451 C 0.25226 0.87696 0.51861 0.0
O452 O 0.24244 0.83081 0.54422 0.0
Co453 Co 0.21448 0.84313 0.45409 0.0
O454 O 0.21059 0.82816 0.55274 0.0
C455 C 0.23303 0.82662 0.34055 0.0
C456 C 0.29555 0.86729 0.43537 0.0
C457 C 0.22422 0.82344 0.57587 0.0
O458 O 0.25026 0.83346 0.37946 0.0
O459 O 0.21812 0.83017 0.35833 0.0
O460 O 0.2679 0.87561 0.5477 0.0
O461 O 0.2435 0.86534 0.45918 0.0
Co462 Co 0.08088 0.49301 0.34036 0.0
O463 O 0.08093 0.47205 0.40823 0.0
O464 O 0.10593 0.49101 0.32404 0.0
C465 C 0.04687 0.4731 0.29869 0.0
O466 O 0.08666 0.51486 0.25662 0.0
Co467 Co 0.05293 0.5127 0.36491 0.0
O468 O 0.06822 0.53131 0.27714 0.0
C469 C 0.08817 0.52401 0.46836 0.0
C470 C 0.0986 0.47625 0.37565 0.0
C471 C 0.08158 0.52879 0.23881 0.0
O472 O 0.09562 0.5155 0.42249 0.0
O473 O 0.07014 0.52243 0.45974 0.0
O474 O 0.06196 0.47089 0.26928 0.0
O475 O 0.05223 0.48584 0.35668 0.0
Co476 Co 0.51297 0.58184 0.35484 0.0
O477 O 0.53732 0.60427 0.40658 0.0
O478 O 0.51337 0.6082 0.34233 0.0
C479 C 0.53206 0.56839 0.29979 0.0
O480 O 0.48667 0.56451 0.28868 0.0
Co481 Co 0.49526 0.53457 0.37368 0.0
O482 O 0.47693 0.53037 0.2847 0.0
C483 C 0.49043 0.55909 0.49841 0.0
C484 C 0.53086 0.61675 0.38098 0.0
C485 C 0.47539 0.5459 0.2608 0.0
O486 O 0.4962 0.57517 0.45411 0.0
O487 O 0.49063 0.54245 0.47797 0.0
O488 O 0.53096 0.58387 0.26782 0.0
O489 O 0.52139 0.56128 0.36258 0.0
Co490 Co 0.421 0.92622 0.36166 0.0
O491 O 0.39899 0.92871 0.41467 0.0
O492 O 0.39429 0.90067 0.34971 0.0
C493 C 0.43518 0.9588 0.30683 0.0
O494 O 0.43767 0.91666 0.29443 0.0
Co495 Co 0.46866 0.95483 0.3793 0.0
O496 O 0.47228 0.93946 0.29311 0.0
C497 C 0.44383 0.92593 0.50444 0.0
C498 C 0.38614 0.90983 0.38931 0.0
C499 C 0.45628 0.92296 0.26811 0.0
O500 O 0.42764 0.91581 0.46031 0.0
O501 O 0.4606 0.94258 0.4838 0.0
O502 O 0.41921 0.94256 0.27528 0.0
O503 O 0.44219 0.95489 0.36916 0.0
C504 C 0.22908 0.22128 0.31868 0.0
C505 C 0.23616 0.21396 0.25593 0.0
C506 C 0.22311 0.23063 0.16573 0.0
C507 C 0.21417 0.23604 0.2282 0.0
N508 N 0.20485 0.23251 0.36254 0.0
N509 N 0.23666 0.20843 0.1194 0.0
C510 C 0.2161 0.23025 0.30429 0.0
C511 C 0.23228 0.21775 0.17925 0.0
N512 N 0.23552 0.22058 0.39194 0.0
N513 N 0.22363 0.23851 0.09397 0.0
H514 H 0.24306 0.19864 0.12723 0.0
H515 H 0.23214 0.20878 0.06285 0.0
H516 H 0.21747 0.24832 0.08186 0.0
H517 H 0.2319 0.23695 0.04807 0.0
H518 H 0.23269 0.22777 0.43857 0.0
H519 H 0.2455 0.2147 0.40524 0.0
H520 H 0.20392 0.22655 0.41769 0.0
H521 H 0.19466 0.2384 0.35373 0.0
C522 C 0.79088 0.01106 0.32639 0.0
C523 C 0.79663 0.02561 0.26463 0.0
C524 C 0.78031 0.99626 0.17284 0.0
C525 C 0.7757 0.9818 0.23424 0.0
N526 N 0.78126 0.97566 0.366 0.0
N527 N 0.8012 0.03228 0.12818 0.0
C528 C 0.78244 0.9893 0.31001 0.0
C529 C 0.79266 0.01827 0.18749 0.0
N530 N 0.79234 0.01779 0.40073 0.0
N531 N 0.772 0.9891 0.10136 0.0
H532 H 0.81063 0.04847 0.13677 0.0
H533 H 0.80067 0.02772 0.07107 0.0
H534 H 0.76275 0.97317 0.08799 0.0
H535 H 0.77281 0.999 0.0569 0.0
H536 H 0.78621 0.00754 0.44729 0.0
H537 H 0.79785 0.03346 0.4156 0.0
H538 H 0.78778 0.98051 0.42062 0.0
H539 H 0.77575 0.95975 0.35513 0.0
C540 C 0.99275 0.76694 0.26593 0.0
C541 C 0.98134 0.77796 0.26503 0.0
C542 C 0.01478 0.8111 0.24983 0.0
C543 C 0.02554 0.79963 0.23896 0.0
N544 N 0.02247 0.76568 0.21301 0.0
N545 N 0.98149 0.81042 0.23839 0.0
C546 C 0.0139 0.77727 0.24008 0.0
C547 C 0.99234 0.80005 0.25191 0.0
N548 N 0.98397 0.74701 0.2951 0.0
N549 N 0.02584 0.83237 0.26137 0.0
H550 H 0.9651 0.80277 0.23516 0.0
H551 H 0.98885 0.82618 0.22174 0.0
H552 H 0.04224 0.84092 0.26463 0.0
H553 H 0.01865 0.84107 0.27639 0.0
H554 H 0.99256 0.73927 0.3024 0.0
H555 H 0.96921 0.73929 0.32121 0.0
H556 H 0.01373 0.74935 0.20714 0.0
H557 H 0.03727 0.77235 0.18721 0.0
C558 C 0.78788 0.78266 0.83824 0.0
C559 C 0.79765 0.77831 0.77564 0.0
C560 C 0.78505 0.79568 0.68725 0.0
C561 C 0.77677 0.80154 0.75069 0.0
N562 N 0.77362 0.80396 0.88776 0.0
N563 N 0.80931 0.78437 0.64381 0.0
C564 C 0.77915 0.796 0.82661 0.0
C565 C 0.79734 0.78591 0.70105 0.0
N566 N 0.78604 0.77326 0.90797 0.0
N567 N 0.78027 0.79836 0.61356 0.0
H568 H 0.81872 0.77755 0.65218 0.0
H569 H 0.81152 0.79164 0.59044 0.0
H570 H 0.77096 0.80499 0.60017 0.0
H571 H 0.78387 0.79218 0.56568 0.0
H572 H 0.77705 0.77396 0.9531 0.0
H573 H 0.79193 0.76316 0.91886 0.0
H574 H 0.77703 0.80233 0.94464 0.0
H575 H 0.76734 0.81391 0.88129 0.0
C576 C 0.22525 0.01994 0.68431 0.0
C577 C 0.23058 0.0278 0.76037 0.0
C578 C 0.21105 0.9917 0.81066 0.0
C579 C 0.20806 0.9838 0.73451 0.0
N580 N 0.21556 0.99047 0.59861 0.0
N581 N 0.23164 0.02102 0.89603 0.0
C582 C 0.21592 0.99792 0.67109 0.0
C583 C 0.22422 0.01367 0.82376 0.0
N584 N 0.22859 0.03345 0.62483 0.0
N585 N 0.20086 0.97829 0.87035 0.0
H586 H 0.24174 0.03689 0.90837 0.0
H587 H 0.22939 0.01118 0.94262 0.0
H588 H 0.19084 0.96216 0.86262 0.0
H589 H 0.2007 0.98341 0.92614 0.0
H590 H 0.22302 0.02841 0.56924 0.0
H591 H 0.23509 0.04964 0.63263 0.0
H592 H 0.22317 1.00024 0.5519 0.0
H593 H 0.20942 0.97455 0.58612 0.0
C594 C 0.01682 0.21921 0.81037 0.0
C595 C 0.02412 0.22476 0.73379 0.0
C596 C 0.98756 0.20751 0.68729 0.0
C597 C 0.98037 0.20418 0.7645 0.0
N598 N 0.98817 0.2095 0.90044 0.0
N599 N 0.01673 0.22669 0.59954 0.0
C600 C 0.99499 0.21062 0.82642 0.0
C601 C 0.00957 0.21947 0.67211 0.0
N602 N 0.03069 0.2216 0.86746 0.0
N603 N 0.97335 0.19873 0.6285 0.0
H604 H 0.03269 0.23547 0.58573 0.0
H605 H 0.00688 0.22546 0.55415 0.0
H606 H 0.95712 0.18977 0.63758 0.0
H607 H 0.97768 0.19867 0.57149 0.0
H608 H 0.02607 0.21589 0.9231 0.0
H609 H 0.04671 0.22753 0.85724 0.0
H610 H 0.99833 0.21617 0.94703 0.0
H611 H 0.97237 0.20349 0.9149 0.0
C612 C 0.88769 0.55724 0.49205 0.0
C613 C 0.87869 0.5613 0.55781 0.0
C614 C 0.89429 0.54553 0.64037 0.0
C615 C 0.90161 0.5397 0.57415 0.0
N616 N 0.90182 0.53651 0.43611 0.0
N617 N 0.86968 0.55536 0.69228 0.0
C618 C 0.89733 0.54456 0.49966 0.0
C619 C 0.8809 0.55427 0.63134 0.0
N620 N 0.88803 0.56632 0.423 0.0
N621 N 0.90095 0.5437 0.71198 0.0
H622 H 0.85929 0.56115 0.68723 0.0
H623 H 0.86899 0.54855 0.74558 0.0
H624 H 0.91136 0.53809 0.72129 0.0
H625 H 0.8979 0.54976 0.76148 0.0
H626 H 0.89645 0.56585 0.37549 0.0
H627 H 0.8815 0.57598 0.41481 0.0
H628 H 0.89697 0.5376 0.38081 0.0
H629 H 0.90872 0.52704 0.43931 0.0
C630 C 0.45997 0.32276 0.65564 0.0
C631 C 0.4541 0.31427 0.58044 0.0
C632 C 0.47387 0.34997 0.52691 0.0
C633 C 0.47658 0.3585 0.60204 0.0
N634 N 0.46991 0.35281 0.73865 0.0
N635 N 0.45323 0.32013 0.44382 0.0
C636 C 0.46925 0.34487 0.66685 0.0
C637 C 0.46065 0.32792 0.51565 0.0
N638 N 0.457 0.30968 0.71623 0.0
N639 N 0.48424 0.36293 0.46638 0.0
H640 H 0.44313 0.3042 0.43257 0.0
H641 H 0.45559 0.32969 0.39624 0.0
H642 H 0.49444 0.37908 0.4731 0.0
H643 H 0.48451 0.3574 0.41138 0.0
H644 H 0.46278 0.31512 0.77132 0.0
H645 H 0.4507 0.29348 0.70955 0.0
H646 H 0.46257 0.34336 0.78633 0.0
H647 H 0.47617 0.36882 0.74975 0.0
C648 C 0.68474 0.12675 0.67413 0.0
C649 C 0.69347 0.13229 0.59915 0.0
C650 C 0.65786 0.11705 0.54447 0.0
C651 C 0.64911 0.10951 0.61828 0.0
N652 N 0.65418 0.10431 0.75207 0.0
N653 N 0.68834 0.12946 0.46146 0.0
C654 C 0.66253 0.11365 0.68295 0.0
C655 C 0.68003 0.12662 0.53384 0.0
N656 N 0.69758 0.13457 0.73707 0.0
N657 N 0.64503 0.11567 0.48492 0.0
H658 H 0.70443 0.13594 0.45097 0.0
H659 H 0.67915 0.12355 0.41209 0.0
H660 H 0.62878 0.10918 0.49114 0.0
H661 H 0.65066 0.1228 0.43169 0.0
H662 H 0.69193 0.133 0.79307 0.0
H663 H 0.71388 0.14427 0.73297 0.0
H664 H 0.66334 0.10478 0.79875 0.0
H665 H 0.63806 0.09453 0.76108 0.0
C666 C 0.45804 0.1121 0.17386 0.0
C667 C 0.46551 0.10645 0.10749 0.0
C668 C 0.44919 0.12149 0.02482 0.0
C669 C 0.44331 0.12874 0.09124 0.0
N670 N 0.44466 0.13367 0.22851 0.0
N671 N 0.47103 0.1084 0.97051 0.0
C672 C 0.4484 0.12476 0.16571 0.0
C673 C 0.46184 0.11185 0.03311 0.0
N674 N 0.4594 0.10466 0.2445 0.0
N675 N 0.44193 0.12298 0.95393 0.0
H676 H 0.48026 0.10123 0.97435 0.0
H677 H 0.47101 0.11416 0.9158 0.0
H678 H 0.43257 0.12981 0.94503 0.0
H679 H 0.44363 0.11584 0.90473 0.0
H680 H 0.45215 0.10619 0.29367 0.0
H681 H 0.4663 0.09534 0.2531 0.0
H682 H 0.45014 0.13337 0.28351 0.0
H683 H 0.43755 0.14293 0.22466 0.0
C684 C 0.87801 0.32438 0.01048 0.0
C685 C 0.87126 0.31147 0.07717 0.0
C686 C 0.88852 0.34292 0.15906 0.0
C687 C 0.89423 0.35587 0.09252 0.0
N688 N 0.88976 0.35901 0.95674 0.0
N689 N 0.8653 0.30858 0.21409 0.0
C690 C 0.88754 0.34661 0.01871 0.0
C691 C 0.87505 0.3208 0.15127 0.0
N692 N 0.87639 0.31561 0.93958 0.0
N693 N 0.89684 0.3515 0.22921 0.0
H694 H 0.85479 0.29244 0.20999 0.0
H695 H 0.86585 0.31475 0.26861 0.0
H696 H 0.90714 0.36754 0.23762 0.0
H697 H 0.89505 0.34247 0.27788 0.0
H698 H 0.88322 0.32449 0.89025 0.0
H699 H 0.86985 0.29946 0.93083 0.0
H700 H 0.88338 0.353 0.90281 0.0
H701 H 0.89603 0.37525 0.96139 0.0
C702 C 0.66579 0.5492 0.15908 0.0
C703 C 0.65258 0.54198 0.09293 0.0
C704 C 0.68376 0.55798 0.00964 0.0
C705 C 0.69699 0.56367 0.07578 0.0
N706 N 0.70075 0.56209 0.21283 0.0
N707 N 0.64873 0.53652 0.95594 0.0
C708 C 0.68804 0.55859 0.1504 0.0
C709 C 0.6615 0.54556 0.01836 0.0
N710 N 0.65713 0.54784 0.23003 0.0
N711 N 0.6924 0.56522 0.93866 0.0
H712 H 0.63235 0.52748 0.96009 0.0
H713 H 0.6544 0.53647 0.90104 0.0
H714 H 0.70856 0.57442 0.92933 0.0
H715 H 0.6835 0.56369 0.8898 0.0
H716 H 0.66601 0.55493 0.27918 0.0
H717 H 0.64095 0.54111 0.23899 0.0
H718 H 0.69505 0.55662 0.26785 0.0
H719 H 0.71709 0.56898 0.20854 0.0
C720 C 0.54553 0.88087 0.81859 0.0
C721 C 0.53636 0.88545 0.88244 0.0
C722 C 0.55009 0.86883 0.96938 0.0
C723 C 0.55826 0.86313 0.90521 0.0
N724 N 0.55993 0.85978 0.76782 0.0
N725 N 0.52517 0.87906 0.01468 0.0
C726 C 0.55481 0.86795 0.82942 0.0
C727 C 0.53716 0.87792 0.95662 0.0
N728 N 0.54634 0.88967 0.74846 0.0
N729 N 0.55571 0.86687 0.04264 0.0
H730 H 0.51509 0.88512 0.00651 0.0
H731 H 0.5235 0.87198 0.06815 0.0
H732 H 0.56577 0.86105 0.05533 0.0
H733 H 0.55208 0.87297 0.09066 0.0
H734 H 0.55496 0.8889 0.70215 0.0
H735 H 0.53974 0.89917 0.738 0.0
H736 H 0.55589 0.86098 0.71135 0.0
H737 H 0.56647 0.85005 0.7738 0.0
C738 C 0.11839 0.66482 0.82451 0.0
C739 C 0.11075 0.65023 0.8865 0.0
C740 C 0.12464 0.67951 0.97858 0.0
C741 C 0.13388 0.69401 0.91679 0.0
N742 N 0.14282 0.7004 0.78238 0.0
N743 N 0.10952 0.64338 0.02249 0.0
C744 C 0.13167 0.68664 0.8401 0.0
C745 C 0.11468 0.65748 0.96361 0.0
N746 N 0.11222 0.65796 0.75079 0.0
N747 N 0.12448 0.6867 0.05107 0.0
H748 H 0.10216 0.62715 0.01367 0.0
H749 H 0.11412 0.64783 0.07931 0.0
H750 H 0.13137 0.70264 0.06468 0.0
H751 H 0.11594 0.67685 0.09646 0.0
H752 H 0.11539 0.66807 0.70435 0.0
H753 H 0.10223 0.64218 0.73675 0.0
H754 H 0.14364 0.69566 0.7266 0.0
H755 H 0.15291 0.71644 0.7919 0.0
C756 C 0.32216 0.44637 0.81998 0.0
C757 C 0.31387 0.44463 0.89508 0.0
C758 C 0.34976 0.46611 0.94608 0.0
C759 C 0.35805 0.46552 0.87315 0.0
N760 N 0.35241 0.4534 0.74157 0.0
N761 N 0.31991 0.45002 0.03225 0.0
C762 C 0.34434 0.45534 0.81003 0.0
C763 C 0.32768 0.45389 0.95887 0.0
N764 N 0.30888 0.43993 0.75802 0.0
N765 N 0.36298 0.47877 0.00275 0.0
H766 H 0.30393 0.44082 0.04507 0.0
H767 H 0.32946 0.45432 0.08097 0.0
H768 H 0.37921 0.48816 0.99481 0.0
H769 H 0.35768 0.48157 0.05463 0.0
H770 H 0.31409 0.44272 0.70123 0.0
H771 H 0.29261 0.43344 0.76338 0.0
H772 H 0.34313 0.44406 0.6963 0.0
H773 H 0.36853 0.45989 0.73177 0.0
C774 C 0.09753 0.44155 0.39433 0.0
C775 C 0.10932 0.4639 0.39256 0.0
C776 C 0.14198 0.46233 0.40524 0.0
C777 C 0.12995 0.44016 0.41556 0.0
N778 N 0.09584 0.40994 0.44328 0.0
N779 N 0.14257 0.49561 0.41526 0.0
C780 C 0.10759 0.43013 0.41712 0.0
C781 C 0.13152 0.47434 0.40361 0.0
N782 N 0.07704 0.431 0.37014 0.0
N783 N 0.16323 0.4719 0.39334 0.0
H784 H 0.13538 0.50482 0.41787 0.0
H785 H 0.15844 0.50369 0.43074 0.0
H786 H 0.17141 0.46366 0.39093 0.0
H787 H 0.17234 0.4877 0.37795 0.0
H788 H 0.06852 0.41468 0.36372 0.0
H789 H 0.06933 0.43852 0.34767 0.0
H790 H 0.07961 0.40271 0.4519 0.0
H791 H 0.10249 0.40133 0.46523 0.0
C792 C 0.55065 0.65332 0.32617 0.0
C793 C 0.54337 0.63993 0.39165 0.0
C794 C 0.5612 0.67074 0.47614 0.0
C795 C 0.56653 0.68421 0.41102 0.0
N796 N 0.56343 0.68842 0.27497 0.0
N797 N 0.53867 0.63594 0.52912 0.0
C798 C 0.56048 0.67553 0.33619 0.0
C799 C 0.54782 0.64865 0.46675 0.0
N800 N 0.54898 0.64489 0.25455 0.0
N801 N 0.5697 0.67893 0.54656 0.0
H802 H 0.52869 0.6197 0.52466 0.0
H803 H 0.53943 0.64171 0.58452 0.0
H804 H 0.57995 0.69493 0.55596 0.0
H805 H 0.56822 0.66965 0.59414 0.0
H806 H 0.556 0.65395 0.20577 0.0
H807 H 0.54231 0.62876 0.24478 0.0
H808 H 0.5573 0.68284 0.2204 0.0
H809 H 0.57038 0.70473 0.28021 0.0
C810 C 0.34927 0.89327 0.33691 0.0
C811 C 0.36299 0.8994 0.40154 0.0
C812 C 0.33252 0.88624 0.48793 0.0
C813 C 0.31874 0.87808 0.42351 0.0
N814 N 0.31394 0.87085 0.28747 0.0
N815 N 0.36765 0.89868 0.53862 0.0
C816 C 0.3271 0.8808 0.34812 0.0
C817 C 0.35462 0.89508 0.47714 0.0
N818 N 0.35736 0.90008 0.26495 0.0
N819 N 0.32463 0.88644 0.55904 0.0
H820 H 0.38391 0.90507 0.53318 0.0
H821 H 0.36216 0.89362 0.59422 0.0
H822 H 0.30864 0.88055 0.56955 0.0
H823 H 0.33412 0.89426 0.60622 0.0
H824 H 0.34804 0.898 0.21681 0.0
H825 H 0.37345 0.90962 0.2544 0.0
H826 H 0.31929 0.87038 0.23239 0.0
H827 H 0.29766 0.86139 0.29364 0.0
C828 C 0.13061 0.24932 0.88708 0.0
C829 C 0.113 0.25229 0.88812 0.0
C830 C 0.1151 0.25457 0.02828 0.0
C831 C 0.13589 0.25772 0.02447 0.0
N832 N 0.16403 0.25899 0.94593 0.0
N833 N 0.08741 0.25679 0.95954 0.0
C834 C 0.14367 0.25472 0.95317 0.0
C835 C 0.10457 0.25411 0.95894 0.0
N836 N 0.1353 0.24234 0.82125 0.0
N837 N 0.10558 0.25213 0.09805 0.0
H838 H 0.07928 0.25612 0.9094 0.0
H839 H 0.08199 0.26067 0.00886 0.0
H840 H 0.11277 0.25176 0.14946 0.0
H841 H 0.08989 0.24828 0.10409 0.0
H842 H 0.14707 0.2383 0.81812 0.0
H843 H 0.12574 0.23847 0.77243 0.0
H844 H 0.17085 0.25926 0.89305 0.0
H845 H 0.17487 0.26415 0.99074 0.0
C846 C 0.75289 0.88115 0.0037 0.0
C847 C 0.73256 0.87384 0.03686 0.0
C848 C 0.71805 0.84476 0.94548 0.0
C849 C 0.73678 0.85461 0.90153 0.0
N850 N 0.77218 0.88375 0.88654 0.0
N851 N 0.69471 0.8523 0.01725 0.0
C852 C 0.75441 0.87322 0.93009 0.0
C853 C 0.71479 0.85654 0.00203 0.0
N854 N 0.77065 0.89495 0.0428 0.0
N855 N 0.70297 0.8244 0.93096 0.0
H856 H 0.69136 0.86227 0.04955 0.0
H857 H 0.68161 0.84056 0.98833 0.0
H858 H 0.7052 0.81511 0.8906 0.0
H859 H 0.68952 0.81633 0.965 0.0
H860 H 0.78577 0.89938 0.02336 0.0
H861 H 0.77028 0.90011 0.09838 0.0
H862 H 0.78458 0.89858 0.90144 0.0
H863 H 0.77387 0.87827 0.83318 0.0
C864 C 0.14403 0.88954 0.02129 0.0
C865 C 0.12495 0.87006 0.01369 0.0
C866 C 0.12339 0.87769 0.87751 0.0
C867 C 0.14467 0.89388 0.88193 0.0
N868 N 0.17504 0.91706 0.9572 0.0
N869 N 0.09492 0.84641 0.93608 0.0
C870 C 0.15475 0.90077 0.95402 0.0
C871 C 0.11382 0.86463 0.94269 0.0
N872 N 0.1518 0.89712 0.09296 0.0
N873 N 0.11273 0.87465 0.8099 0.0
H874 H 0.08693 0.83689 0.9828 0.0
H875 H 0.08743 0.84026 0.88378 0.0
H876 H 0.11978 0.88433 0.76224 0.0
H877 H 0.09669 0.86412 0.80322 0.0
H878 H 0.16477 0.91196 0.10294 0.0
H879 H 0.14392 0.88925 0.14299 0.0
H880 H 0.18429 0.92127 0.00666 0.0
H881 H 0.18287 0.92591 0.90874 0.0
C882 C 0.25298 0.13329 0.61471 0.0
C883 C 0.25835 0.11727 0.61029 0.0
C884 C 0.26198 0.12155 0.4709 0.0
C885 C 0.26209 0.1409 0.47844 0.0
N886 N 0.25469 0.16401 0.55506 0.0
N887 N 0.26551 0.09404 0.5352 0.0
C888 C 0.25607 0.14614 0.54917 0.0
C889 C 0.26151 0.11035 0.53822 0.0
N890 N 0.24551 0.13636 0.68262 0.0
N891 N 0.26251 0.11417 0.39922 0.0
H892 H 0.26449 0.08521 0.58377 0.0
H893 H 0.27047 0.08972 0.48578 0.0
H894 H 0.26254 0.1221 0.34928 0.0
H895 H 0.26094 0.09945 0.389 0.0
H896 H 0.23987 0.14679 0.68959 0.0
H897 H 0.24324 0.12688 0.7306 0.0
H898 H 0.25309 0.17014 0.607 0.0
H899 H 0.2557 0.17319 0.50787 0.0
C900 C 0.8648 0.11674 0.54044 0.0
C901 C 0.86909 0.12827 0.47025 0.0
C902 C 0.89787 0.15942 0.53275 0.0
C903 C 0.89198 0.14867 0.60381 0.0
N904 N 0.8757 0.11594 0.67225 0.0
N905 N 0.8946 0.1571 0.39355 0.0
C906 C 0.87749 0.12682 0.60617 0.0
C907 C 0.88737 0.14851 0.46451 0.0
N908 N 0.84787 0.09685 0.54649 0.0
N909 N 0.9127 0.18032 0.53143 0.0
H910 H 0.88747 0.149 0.34287 0.0
H911 H 0.90868 0.1711 0.38478 0.0
H912 H 0.92122 0.18829 0.5804 0.0
H913 H 0.916 0.18982 0.48302 0.0
H914 H 0.84227 0.08907 0.59866 0.0
H915 H 0.83863 0.08818 0.50025 0.0
H916 H 0.86683 0.09962 0.67669 0.0
H917 H 0.88485 0.12325 0.72083 0.0
C918 C 0.88463 0.76085 0.63036 0.0
C919 C 0.86335 0.75582 0.62573 0.0
C920 C 0.86421 0.75254 0.48627 0.0
C921 C 0.88317 0.75187 0.49404 0.0
N922 N 0.91313 0.758 0.5715 0.0
N923 N 0.83321 0.74925 0.55019 0.0
C924 C 0.89427 0.75746 0.56505 0.0
C925 C 0.85345 0.75305 0.55349 0.0
N926 N 0.8951 0.76808 0.69849 0.0
N927 N 0.85651 0.75239 0.41454 0.0
H928 H 0.82533 0.75013 0.59883 0.0
H929 H 0.82405 0.74454 0.50048 0.0
H930 H 0.86437 0.75223 0.36468 0.0
H931 H 0.8436 0.75441 0.40436 0.0
H932 H 0.91111 0.77342 0.70563 0.0
H933 H 0.88789 0.77045 0.74634 0.0
H934 H 0.92067 0.75935 0.6237 0.0
H935 H 0.92107 0.7564 0.52461 0.0
C936 C 0.88626 0.74738 0.98494 0.0
C937 C 0.86653 0.7466 0.99146 0.0
C938 C 0.87437 0.75727 0.12648 0.0
C939 C 0.89086 0.75258 0.12388 0.0
N940 N 0.91431 0.74518 0.05122 0.0
N941 N 0.84229 0.75253 0.06791 0.0
C942 C 0.89772 0.74877 0.05279 0.0
C943 C 0.86096 0.75264 0.06153 0.0
N944 N 0.89398 0.7469 0.91383 0.0
N945 N 0.87139 0.76564 0.1923 0.0
H946 H 0.83222 0.74984 0.02177 0.0
H947 H 0.83623 0.75413 0.12002 0.0
H948 H 0.88136 0.76913 0.23974 0.0
H949 H 0.86066 0.77099 0.19718 0.0
H950 H 0.90899 0.74906 0.90475 0.0
H951 H 0.88608 0.74643 0.86319 0.0
H952 H 0.91851 0.73968 0.00293 0.0
H953 H 0.92344 0.74705 0.09988 0.0
C954 C 0.25823 0.11782 0.04826 0.0
C955 C 0.26489 0.12913 0.97776 0.0
C956 C 0.26553 0.15973 0.03781 0.0
C957 C 0.26116 0.14928 0.10943 0.0
N958 N 0.24627 0.11691 0.1797 0.0
N959 N 0.26687 0.15709 0.89892 0.0
C960 C 0.25489 0.12767 0.1131 0.0
C961 C 0.26579 0.14887 0.97043 0.0
N962 N 0.25649 0.09844 0.05498 0.0
N963 N 0.27077 0.18041 0.03526 0.0
H964 H 0.26659 0.14912 0.84872 0.0
H965 H 0.26594 0.17062 0.88911 0.0
H966 H 0.26992 0.18838 0.0837 0.0
H967 H 0.27666 0.18979 0.98643 0.0
H968 H 0.25443 0.09073 0.10725 0.0
H969 H 0.25793 0.09025 0.00869 0.0
H970 H 0.23983 0.1007 0.18546 0.0
H971 H 0.24378 0.12414 0.2272 0.0
C972 C 0.87781 0.12462 0.10607 0.0
C973 C 0.85568 0.11157 0.10325 0.0
C974 C 0.85637 0.11581 0.96377 0.0
C975 C 0.87724 0.13304 0.96973 0.0
N976 N 0.90935 0.15191 0.04477 0.0
N977 N 0.82378 0.09226 0.03035 0.0
C978 C 0.88868 0.13649 0.03977 0.0
C979 C 0.84499 0.10599 0.03193 0.0
N980 N 0.88817 0.1259 0.17305 0.0
N981 N 0.8476 0.10909 0.89267 0.0
H982 H 0.81541 0.08428 0.07947 0.0
H983 H 0.81446 0.08932 0.98157 0.0
H984 H 0.85602 0.11588 0.84223 0.0
H985 H 0.83298 0.09572 0.8835 0.0
H986 H 0.9045 0.13375 0.17844 0.0
H987 H 0.88024 0.11733 0.22194 0.0
H988 H 0.91752 0.15715 0.09644 0.0
H989 H 0.91845 0.16013 0.99763 0.0
C990 C 0.75975 0.88208 0.38764 0.0
C991 C 0.75438 0.89802 0.39615 0.0
C992 C 0.75247 0.89323 0.53546 0.0
C993 C 0.75201 0.87387 0.52416 0.0
N994 N 0.75871 0.85114 0.44341 0.0
N995 N 0.74896 0.92145 0.47668 0.0
C996 C 0.75742 0.869 0.45172 0.0
C997 C 0.75249 0.90489 0.47016 0.0
N998 N 0.76595 0.87898 0.3171 0.0
N999 N 0.75219 0.89988 0.60864 0.0
H1000 H 0.74932 0.93023 0.42885 0.0
H1001 H 0.74518 0.92609 0.52805 0.0
H1002 H 0.75225 0.89135 0.65668 0.0
H1003 H 0.75369 0.91443 0.62181 0.0
H1004 H 0.77117 0.86835 0.30651 0.0
H1005 H 0.76741 0.88852 0.27017 0.0
H1006 H 0.76027 0.84532 0.39069 0.0
H1007 H 0.7578 0.8418 0.49012 0.0
C1008 C 0.13105 0.88613 0.37911 0.0
C1009 C 0.11498 0.86483 0.38264 0.0
C1010 C 0.11976 0.8648 0.52161 0.0
C1011 C 0.13915 0.88399 0.51436 0.0
N1012 N 0.16243 0.91444 0.43796 0.0
N1013 N 0.09189 0.83421 0.45641 0.0
C1014 C 0.14429 0.89546 0.44416 0.0
C1015 C 0.10828 0.85444 0.45418 0.0
N1016 N 0.13384 0.89702 0.31232 0.0
N1017 N 0.11249 0.85661 0.59303 0.0
H1018 H 0.08277 0.82676 0.40791 0.0
H1019 H 0.08776 0.82468 0.50504 0.0
H1020 H 0.12054 0.86419 0.64324 0.0
H1021 H 0.09773 0.84351 0.60297 0.0
H1022 H 0.14427 0.91309 0.30633 0.0
H1023 H 0.12405 0.89009 0.26472 0.0
H1024 H 0.16835 0.92221 0.38599 0.0
H1025 H 0.17216 0.92224 0.48453 0.0
C1026 C 0.11402 0.24497 0.45233 0.0
C1027 C 0.12537 0.25271 0.52243 0.0
C1028 C 0.1568 0.25496 0.46366 0.0
C1029 C 0.14635 0.24999 0.39199 0.0
N1030 N 0.11395 0.23275 0.32184 0.0
N1031 N 0.15394 0.25649 0.60231 0.0
C1032 C 0.12439 0.24202 0.38836 0.0
C1033 C 0.14555 0.25461 0.53061 0.0
N1034 N 0.09418 0.24212 0.44464 0.0
N1035 N 0.17787 0.26174 0.46628 0.0
H1036 H 0.14571 0.25601 0.65203 0.0
H1037 H 0.16793 0.25644 0.61268 0.0
H1038 H 0.1862 0.26182 0.41747 0.0
H1039 H 0.18711 0.26804 0.5153 0.0
H1040 H 0.08633 0.23915 0.39221 0.0
H1041 H 0.08572 0.24351 0.49006 0.0
H1042 H 0.09763 0.22523 0.31596 0.0
H1043 H 0.12178 0.23099 0.27463 0.0
C1044 C 0.81027 0.62101 0.34622 0.0
C1045 C 0.81099 0.60355 0.37863 0.0
C1046 C 0.78935 0.58184 0.26997 0.0
C1047 C 0.78747 0.59911 0.24319 0.0
N1048 N 0.78891 0.63177 0.27565 0.0
N1049 N 0.79568 0.5656 0.38078 0.0
C1050 C 0.79512 0.61733 0.28944 0.0
C1051 C 0.79882 0.58333 0.34356 0.0
N1052 N 0.82527 0.64128 0.36303 0.0
N1053 N 0.78294 0.5645 0.22467 0.0
H1054 H 0.8011 0.56588 0.43646 0.0
H1055 H 0.78566 0.55049 0.3598 0.0
H1056 H 0.77557 0.56283 0.17171 0.0
H1057 H 0.78606 0.55245 0.238 0.0
H1058 H 0.82577 0.65422 0.33594 0.0
H1059 H 0.8389 0.64517 0.39422 0.0
H1060 H 0.79336 0.64484 0.31106 0.0
H1061 H 0.77761 0.62931 0.234 0.0
C1062 C 0.39046 0.17427 0.30901 0.0
C1063 C 0.40876 0.18409 0.26295 0.0
C1064 C 0.42532 0.21122 0.36286 0.0
C1065 C 0.40513 0.20417 0.39701 0.0
N1066 N 0.36721 0.18211 0.37975 0.0
N1067 N 0.44402 0.21312 0.24478 0.0
C1068 C 0.38729 0.18637 0.36458 0.0
C1069 C 0.4265 0.20286 0.28969 0.0
N1070 N 0.37543 0.15382 0.29578 0.0
N1071 N 0.44328 0.2252 0.40054 0.0
H1072 H 0.44547 0.20714 0.19213 0.0
H1073 H 0.45646 0.22806 0.25812 0.0
H1074 H 0.44319 0.23049 0.45616 0.0
H1075 H 0.4583 0.22956 0.38011 0.0
H1076 H 0.36222 0.14577 0.33099 0.0
H1077 H 0.37751 0.14456 0.25486 0.0
H1078 H 0.35406 0.1699 0.35268 0.0
H1079 H 0.36382 0.19249 0.40909 0.0
C1080 C 0.79251 0.22199 0.27769 0.0
C1081 C 0.81437 0.23638 0.2796 0.0
C1082 C 0.81361 0.23487 0.41985 0.0
C1083 C 0.79387 0.21599 0.41589 0.0
N1084 N 0.76258 0.19325 0.34104 0.0
N1085 N 0.84555 0.25911 0.3513 0.0
C1086 C 0.78235 0.21041 0.34534 0.0
C1087 C 0.82472 0.2441 0.35069 0.0
N1088 N 0.78184 0.21886 0.21006 0.0
N1089 N 0.82178 0.24343 0.49002 0.0
H1090 H 0.85365 0.26626 0.30071 0.0
H1091 H 0.85482 0.26384 0.40078 0.0
H1092 H 0.8135 0.23683 0.5409 0.0
H1093 H 0.83552 0.25787 0.49714 0.0
H1094 H 0.76552 0.20978 0.20514 0.0
H1095 H 0.78936 0.22718 0.16025 0.0
H1096 H 0.75498 0.18662 0.28931 0.0
H1097 H 0.75362 0.18529 0.38879 0.0
C1098 C 0.91866 0.43894 0.75995 0.0
C1099 C 0.92082 0.45923 0.7674 0.0
C1100 C 0.91163 0.45195 0.90391 0.0
C1101 C 0.91595 0.43523 0.89978 0.0
N1102 N 0.92094 0.41071 0.82437 0.0
N1103 N 0.91788 0.48476 0.8477 0.0
C1104 C 0.91798 0.42767 0.82743 0.0
C1105 C 0.91614 0.46541 0.83914 0.0
N1106 N 0.91771 0.43082 0.68838 0.0
N1107 N 0.90455 0.45558 0.97164 0.0
H1108 H 0.92112 0.49526 0.80262 0.0
H1109 H 0.91723 0.49098 0.90083 0.0
H1110 H 0.90172 0.44591 0.01951 0.0
H1111 H 0.89961 0.46659 0.97784 0.0
H1112 H 0.91476 0.41555 0.67885 0.0
H1113 H 0.91784 0.43881 0.63846 0.0
H1114 H 0.925 0.40571 0.77441 0.0
H1115 H 0.92005 0.40218 0.87367 0.0
C1116 C 0.55841 0.49961 0.86242 0.0
C1117 C 0.56563 0.4889 0.90988 0.0
C1118 C 0.5541 0.46151 0.81062 0.0
C1119 C 0.54191 0.46952 0.77523 0.0
N1120 N 0.52832 0.4937 0.78895 0.0
N1121 N 0.56987 0.45869 0.92993 0.0
C1122 C 0.54312 0.48812 0.80602 0.0
C1123 C 0.56361 0.46963 0.88394 0.0
N1124 N 0.56485 0.52031 0.87582 0.0
N1125 N 0.55716 0.44676 0.774 0.0
H1126 H 0.57737 0.46454 0.98258 0.0
H1127 H 0.56658 0.44343 0.91729 0.0
H1128 H 0.55183 0.44162 0.71823 0.0
H1129 H 0.56711 0.44161 0.79543 0.0
H1130 H 0.56071 0.52906 0.83979 0.0
H1131 H 0.57603 0.52897 0.91804 0.0
H1132 H 0.52826 0.50654 0.81471 0.0
H1133 H 0.51439 0.48392 0.75951 0.0
C1134 C 0.51926 0.05176 0.81949 0.0
C1135 C 0.53842 0.0686 0.7897 0.0
C1136 C 0.53932 0.0904 0.89938 0.0
C1137 C 0.51958 0.07376 0.92439 0.0
N1138 N 0.48731 0.04269 0.889 0.0
N1139 N 0.56276 0.10625 0.79055 0.0
C1140 C 0.50823 0.05616 0.87607 0.0
C1141 C 0.5473 0.08874 0.82612 0.0
N1142 N 0.51267 0.03122 0.8014 0.0
N1143 N 0.55077 0.10727 0.94624 0.0
H1144 H 0.56789 0.10594 0.73487 0.0
H1145 H 0.56861 0.12138 0.81273 0.0
H1146 H 0.54497 0.10911 -0.00125 0.0
H1147 H 0.56629 0.11872 0.93442 0.0
H1148 H 0.4994 0.01866 0.82638 0.0
H1149 H 0.52199 0.02647 0.77192 0.0
H1150 H 0.4781 0.0301 0.85238 0.0
H1151 H 0.47902 0.04563 0.93156 0.0
C1152 C 0.56478 0.08625 0.29415 0.0
C1153 C 0.54523 0.08575 0.30158 0.0
C1154 C 0.55262 0.09417 0.43862 0.0
C1155 C 0.56837 0.08848 0.43408 0.0
N1156 N 0.59198 0.08209 0.35857 0.0
N1157 N 0.52126 0.09143 0.38084 0.0
C1158 C 0.57567 0.08609 0.36166 0.0
C1159 C 0.53968 0.09111 0.37325 0.0
N1160 N 0.57244 0.08632 0.22248 0.0
N1161 N 0.54948 0.1014 0.50691 0.0
H1162 H 0.5115 0.08985 0.33482 0.0
H1163 H 0.51511 0.09242 0.43366 0.0
H1164 H 0.55879 0.10328 0.5551 0.0
H1165 H 0.53928 0.10734 0.51364 0.0
H1166 H 0.58722 0.08798 0.21251 0.0
H1167 H 0.56461 0.08666 0.17271 0.0
H1168 H 0.59672 0.0778 0.30856 0.0
H1169 H 0.60033 0.08249 0.40789 0.0
C1170 C 0.91426 0.4564 0.28708 0.0
C1171 C 0.93419 0.46694 0.24893 0.0
C1172 C 0.94416 0.49693 0.33456 0.0
C1173 C 0.92771 0.48406 0.38512 0.0
N1174 N 0.89619 0.45118 0.40944 0.0
N1175 N 0.97042 0.49625 0.25468 0.0
C1176 C 0.91222 0.46373 0.36094 0.0
C1177 C 0.94974 0.48723 0.27617 0.0
N1178 N 0.89728 0.43992 0.25265 0.0
N1179 N 0.95584 0.51805 0.34814 0.0
H1180 H 0.97663 0.48835 0.22422 0.0
H1181 H 0.98213 0.51043 0.27785 0.0
H1182 H 0.95214 0.52515 0.39299 0.0
H1183 H 0.96751 0.52837 0.31038 0.0
H1184 H 0.88222 0.43269 0.27656 0.0
H1185 H 0.89771 0.43527 0.19626 0.0
H1186 H 0.88573 0.43532 0.39819 0.0
H1187 H 0.89413 0.45663 0.46242 0.0
C1188 C 0.52224 0.43247 0.34602 0.0
C1189 C 0.53217 0.43953 0.4182 0.0
C1190 C 0.56352 0.46794 0.357 0.0
C1191 C 0.5523 0.46277 0.28597 0.0
N1192 N 0.52516 0.43614 0.20685 0.0
N1193 N 0.56419 0.45792 0.4902 0.0
C1194 C 0.53308 0.44347 0.27852 0.0
C1195 C 0.55368 0.45504 0.42237 0.0
N1196 N 0.50192 0.41624 0.34333 0.0
N1197 N 0.58258 0.48596 0.36397 0.0
H1198 H 0.55684 0.44861 0.53836 0.0
H1199 H 0.58035 0.46792 0.49662 0.0
H1200 H 0.59078 0.49554 0.31769 0.0
H1201 H 0.59006 0.49194 0.41643 0.0
H1202 H 0.49271 0.41165 0.29376 0.0
H1203 H 0.49416 0.40775 0.39258 0.0
H1204 H 0.51187 0.42155 0.19664 0.0
H1205 H 0.5332 0.44405 0.15706 0.0
C1206 C 0.43028 0.21359 0.74797 0.0
C1207 C 0.42548 0.22996 0.75492 0.0
C1208 C 0.42189 0.22477 0.89403 0.0
C1209 C 0.42101 0.20516 0.88366 0.0
N1210 N 0.42749 0.18196 0.80425 0.0
N1211 N 0.42028 0.25386 0.83337 0.0
C1212 C 0.42684 0.20018 0.81211 0.0
C1213 C 0.42305 0.2368 0.82823 0.0
N1214 N 0.43713 0.21049 0.67875 0.0
N1215 N 0.42113 0.23144 0.96677 0.0
H1216 H 0.42176 0.26306 0.78532 0.0
H1217 H 0.41611 0.25858 0.88371 0.0
H1218 H 0.4205 0.22275 0.01533 0.0
H1219 H 0.4229 0.24612 0.97936 0.0
H1220 H 0.44215 0.19964 0.6697 0.0
H1221 H 0.43943 0.22026 0.63169 0.0
H1222 H 0.42917 0.17612 0.75176 0.0
H1223 H 0.4258 0.17226 0.85067 0.0
C1224 C 0.77429 0.17134 0.84631 0.0
C1225 C 0.77287 0.18551 0.79547 0.0
C1226 C 0.7868 0.21214 0.89699 0.0
C1227 C 0.79444 0.20024 0.93682 0.0
N1228 N 0.79715 0.1682 0.93713 0.0
N1229 N 0.77672 0.21956 0.77271 0.0
C1230 C 0.78821 0.17945 0.90981 0.0
C1231 C 0.77845 0.2059 0.82135 0.0
N1232 N 0.76373 0.15035 0.82964 0.0
N1233 N 0.78721 0.22908 0.93154 0.0
H1234 H 0.76994 0.21494 0.7182 0.0
H1235 H 0.78282 0.23546 0.78543 0.0
H1236 H 0.79177 0.2331 0.98879 0.0
H1237 H 0.78065 0.23742 0.90658 0.0
H1238 H 0.76302 0.13898 0.86755 0.0
H1239 H 0.7539 0.14444 0.78153 0.0
H1240 H 0.79403 0.15388 0.91325 0.0
H1241 H 0.80965 0.17391 0.97553 0.0
C1242 C 0.81383 0.58515 0.87469 0.0
C1243 C 0.79534 0.58649 0.86368 0.0
C1244 C 0.79465 0.57704 0.72821 0.0
C1245 C 0.81575 0.58166 0.7356 0.0
N1246 N 0.84454 0.58649 0.81491 0.0
N1247 N 0.76623 0.58094 0.78273 0.0
C1248 C 0.82478 0.58387 0.80922 0.0
C1249 C 0.78474 0.58089 0.79173 0.0
N1250 N 0.821 0.58566 0.94765 0.0
N1251 N 0.78481 0.57021 0.65884 0.0
H1252 H 0.75838 0.58322 0.82846 0.0
H1253 H 0.75894 0.57937 0.72981 0.0
H1254 H 0.79236 0.56777 0.61224 0.0
H1255 H 0.76899 0.56534 0.64943 0.0
H1256 H 0.83371 0.58354 0.96055 0.0
H1257 H 0.81293 0.58643 0.99597 0.0
H1258 H 0.85329 0.59051 0.86556 0.0
H1259 H 0.85234 0.58509 0.76692 0.0
C1260 C 0.44734 0.93783 0.63658 0.0
C1261 C 0.4431 0.92097 0.58708 0.0
C1262 C 0.45645 0.90701 0.68633 0.0
C1263 C 0.46662 0.92715 0.72307 0.0
N1264 N 0.47498 0.96383 0.71475 0.0
N1265 N 0.44291 0.88853 0.56509 0.0
C1266 C 0.46262 0.94312 0.69471 0.0
C1267 C 0.44712 0.905 0.61248 0.0
N1268 N 0.43862 0.95014 0.6219 0.0
N1269 N 0.45525 0.88986 0.72204 0.0
H1270 H 0.43541 0.88652 0.51212 0.0
H1271 H 0.44769 0.8776 0.57722 0.0
H1272 H 0.46031 0.89037 0.7785 0.0
H1273 H 0.44689 0.87472 0.69912 0.0
H1274 H 0.4405 0.9622 0.65881 0.0
H1275 H 0.42786 0.94664 0.57702 0.0
H1276 H 0.47301 0.97578 0.69076 0.0
H1277 H 0.48912 0.96969 0.7447 0.0
C1278 C 0.10137 0.56745 0.5958 0.0
C1279 C 0.09497 0.55573 0.6654 0.0
C1280 C 0.09803 0.52713 0.60549 0.0
C1281 C 0.10052 0.53713 0.53389 0.0
N1282 N 0.11345 0.56924 0.46385 0.0
N1283 N 0.09544 0.52909 0.74452 0.0
C1284 C 0.10573 0.55842 0.53092 0.0
C1285 C 0.09639 0.53719 0.67298 0.0
N1286 N 0.10141 0.58605 0.58953 0.0
N1287 N 0.09544 0.50736 0.60731 0.0
H1288 H 0.0944 0.53657 0.79415 0.0
H1289 H 0.09745 0.51622 0.75506 0.0
H1290 H 0.09725 0.50029 0.55789 0.0
H1291 H 0.09123 0.49798 0.65634 0.0
H1292 H 0.10339 0.59392 0.53768 0.0
H1293 H 0.09885 0.59346 0.63596 0.0
H1294 H 0.11887 0.58528 0.45786 0.0
H1295 H 0.11606 0.56218 0.41604 0.0
C1296 C 0.45888 0.54605 0.68019 0.0
C1297 C 0.46928 0.53629 0.71693 0.0
C1298 C 0.49911 0.55614 0.63067 0.0
C1299 C 0.48615 0.55986 0.581 0.0
N1300 N 0.45346 0.55919 0.55889 0.0
N1301 N 0.4984 0.52901 0.70925 0.0
C1302 C 0.46602 0.5554 0.60634 0.0
C1303 C 0.48947 0.54085 0.68888 0.0
N1304 N 0.44269 0.54686 0.71589 0.0
N1305 N 0.52017 0.56535 0.61607 0.0
H1306 H 0.4905 0.51487 0.73921 0.0
H1307 H 0.51251 0.53139 0.68554 0.0
H1308 H 0.52717 0.5761 0.57111 0.0
H1309 H 0.53059 0.56387 0.65311 0.0
H1310 H 0.43557 0.55491 0.69292 0.0
H1311 H 0.43825 0.54181 0.77239 0.0
H1312 H 0.43768 0.55408 0.57101 0.0
H1313 H 0.45882 0.5667 0.50591 0.0
C1314 C 0.59355 0.77721 0.11538 0.0
C1315 C 0.59185 0.79559 0.12348 0.0
C1316 C 0.58228 0.78689 0.25898 0.0
C1317 C 0.58923 0.77206 0.25437 0.0
N1318 N 0.59896 0.75078 0.17917 0.0
N1319 N 0.58163 0.81658 0.20021 0.0
C1320 C 0.59352 0.76608 0.18231 0.0
C1321 C 0.5847 0.79971 0.19396 0.0
N1322 N 0.59532 0.77066 0.04356 0.0
N1323 N 0.574 0.78895 0.32669 0.0
H1324 H 0.58217 0.82566 0.15335 0.0
H1325 H 0.57908 0.82202 0.25214 0.0
H1326 H 0.57229 0.77954 0.37435 0.0
H1327 H 0.56724 0.79841 0.3338 0.0
H1328 H 0.59512 0.75659 0.03275 0.0
H1329 H 0.59504 0.77851 0.99386 0.0
H1330 H 0.60478 0.74727 0.13009 0.0
H1331 H 0.5982 0.74194 0.22743 0.0
C1332 C 0.2358 0.82363 0.19897 0.0
C1333 C 0.22915 0.81357 0.2711 0.0
C1334 C 0.19992 0.78256 0.21056 0.0
C1335 C 0.20507 0.79368 0.13961 0.0
N1336 N 0.23172 0.82075 0.06006 0.0
N1337 N 0.21028 0.78165 0.3431 0.0
C1338 C 0.22442 0.81288 0.13181 0.0
C1339 C 0.2131 0.79224 0.27554 0.0
N1340 N 0.25202 0.84395 0.19575 0.0
N1341 N 0.1818 0.76359 0.21739 0.0
H1342 H 0.21999 0.7888 0.3907 0.0
H1343 H 0.19988 0.7656 0.34983 0.0
H1344 H 0.17215 0.75558 0.17087 0.0
H1345 H 0.17583 0.75606 0.26971 0.0
H1346 H 0.25609 0.85321 0.1464 0.0
H1347 H 0.26097 0.85176 0.24412 0.0
H1348 H 0.24646 0.83383 0.04977 0.0
H1349 H 0.22373 0.81287 0.01015 0.0
C1350 C 0.22569 0.42685 0.18015 0.0
C1351 C 0.21466 0.4202 0.10908 0.0
C1352 C 0.18351 0.41863 0.16773 0.0
C1353 C 0.19311 0.42127 0.24048 0.0
N1354 N 0.22461 0.43514 0.3156 0.0
N1355 N 0.18687 0.41769 0.02859 0.0
C1356 C 0.21486 0.42822 0.24609 0.0
C1357 C 0.19484 0.41903 0.10071 0.0
N1358 N 0.24579 0.43031 0.18567 0.0
N1359 N 0.16307 0.41423 0.16416 0.0
H1360 H 0.19531 0.4182 0.9794 0.0
H1361 H 0.17296 0.41778 0.01715 0.0
H1362 H 0.15504 0.41465 0.2132 0.0
H1363 H 0.15409 0.40995 0.11406 0.0
H1364 H 0.25391 0.43285 0.23723 0.0
H1365 H 0.25442 0.43036 0.138 0.0
H1366 H 0.24072 0.4415 0.32445 0.0
H1367 H 0.2165 0.43596 0.36372 0.0
C1368 C 0.21242 0.38394 0.6928 0.0
C1369 C 0.22129 0.40263 0.737 0.0
C1370 C 0.21066 0.41876 0.6353 0.0
C1371 C 0.19771 0.39849 0.60179 0.0
N1372 N 0.18169 0.36067 0.62013 0.0
N1373 N 0.22732 0.43797 0.7526 0.0
C1374 C 0.19739 0.38072 0.63606 0.0
C1375 C 0.22019 0.42025 0.70877 0.0
N1376 N 0.21773 0.36885 0.70714 0.0
N1377 N 0.21447 0.43653 0.59666 0.0
H1378 H 0.23453 0.43968 0.80588 0.0
H1379 H 0.22477 0.45032 0.73804 0.0
H1380 H 0.20883 0.43618 0.5413 0.0
H1381 H 0.22513 0.45163 0.61621 0.0
H1382 H 0.21243 0.35544 0.67284 0.0
H1383 H 0.22919 0.37103 0.74762 0.0
H1384 H 0.18039 0.34755 0.64863 0.0
H1385 H 0.1684 0.35732 0.58764 0.0
C1386 C 0.59548 0.81519 0.68305 0.0
C1387 C 0.5916 0.80478 0.75467 0.0
C1388 C 0.59021 0.77403 0.69321 0.0
C1389 C 0.59633 0.78535 0.6226 0.0
N1390 N 0.59687 0.81269 0.54408 0.0
N1391 N 0.5783 0.77255 0.82508 0.0
C1392 C 0.59628 0.80464 0.61553 0.0
C1393 C 0.58644 0.78347 0.75836 0.0
N1394 N 0.5996 0.83553 0.68055 0.0
N1395 N 0.58933 0.75503 0.69965 0.0
H1396 H 0.57541 0.77941 0.87281 0.0
H1397 H 0.5726 0.75646 0.83086 0.0
H1398 H 0.5909 0.747 0.65307 0.0
H1399 H 0.58782 0.74746 0.75187 0.0
H1400 H 0.60512 0.84499 0.63177 0.0
H1401 H 0.59819 0.84318 0.72895 0.0
H1402 H 0.59526 0.82584 0.53442 0.0
H1403 H 0.59687 0.80489 0.49378 0.0
C1404 C 0.21951 0.79953 0.77449 0.0
C1405 C 0.19808 0.78369 0.77056 0.0
C1406 C 0.19844 0.78848 0.63139 0.0
C1407 C 0.21784 0.80767 0.63883 0.0
N1408 N 0.2482 0.8307 0.71633 0.0
N1409 N 0.16728 0.76129 0.69594 0.0
C1410 C 0.22912 0.81271 0.70955 0.0
C1411 C 0.18774 0.77724 0.69872 0.0
N1412 N 0.23031 0.80213 0.84146 0.0
N1413 N 0.19036 0.78118 0.55981 0.0
H1414 H 0.15948 0.75239 0.74435 0.0
H1415 H 0.15789 0.75743 0.64691 0.0
H1416 H 0.19821 0.78901 0.5097 0.0
H1417 H 0.17712 0.76652 0.54985 0.0
H1418 H 0.24644 0.81232 0.84758 0.0
H1419 H 0.22324 0.79241 0.889 0.0
H1420 H 0.25583 0.83659 0.76863 0.0
H1421 H 0.25621 0.84037 0.66996 0.0
C1422 C 0.09999 0.56637 0.06666 0.0
C1423 C 0.08077 0.55584 0.02377 0.0
C1424 C 0.069 0.52556 0.10751 0.0
C1425 C 0.0854 0.53712 0.15949 0.0
N1426 N 0.11618 0.56993 0.19274 0.0
N1427 N 0.04359 0.52961 0.03567 0.0
C1428 C 0.10089 0.55809 0.14063 0.0
C1429 C 0.06421 0.5366 0.05349 0.0
N1430 N 0.11732 0.5835 0.03724 0.0
N1431 N 0.0574 0.50418 0.11106 0.0
H1432 H 0.03874 0.53887 0.00617 0.0
H1433 H 0.03135 0.51606 0.06039 0.0
H1434 H 0.0609 0.49545 0.14954 0.0
H1435 H 0.04608 0.49546 0.06947 0.0
H1436 H 0.13195 0.59051 0.06454 0.0
H1437 H 0.11767 0.58949 0.98269 0.0
H1438 H 0.12671 0.58595 0.18504 0.0
H1439 H 0.11743 0.56375 0.24532 0.0
C1440 C 0.42921 0.51307 0.13454 0.0
C1441 C 0.43747 0.52271 0.06292 0.0
C1442 C 0.46678 0.55285 0.12626 0.0
C1443 C 0.46009 0.54185 0.19754 0.0
N1444 N 0.43116 0.51638 0.27381 0.0
N1445 N 0.45818 0.55445 0.99195 0.0
C1446 C 0.43982 0.52365 0.20303 0.0
C1447 C 0.45404 0.54377 0.05988 0.0
N1448 N 0.41222 0.49319 0.13616 0.0
N1449 N 0.48597 0.57074 0.11989 0.0
H1450 H 0.44902 0.54754 0.94295 0.0
H1451 H 0.46907 0.57042 0.98631 0.0
H1452 H 0.4958 0.57835 0.16637 0.0
H1453 H 0.4927 0.57767 0.0674 0.0
H1454 H 0.40672 0.48413 0.18589 0.0
H1455 H 0.40411 0.4856 0.08602 0.0
H1456 H 0.41589 0.50394 0.28195 0.0
H1457 H 0.43874 0.52425 0.32433 0.0
C1458 C 0.4885 0.90909 0.14161 0.0
C1459 C 0.47904 0.90817 0.0699 0.0
C1460 C 0.44891 0.90745 0.13323 0.0
C1461 C 0.4598 0.91135 0.20473 0.0
N1462 N 0.48474 0.90683 0.28065 0.0
N1463 N 0.44748 0.89784 0.99823 0.0
C1464 C 0.47777 0.90883 0.21002 0.0
C1465 C 0.45804 0.90397 0.06657 0.0
N1466 N 0.50837 0.91187 0.14358 0.0
N1467 N 0.43108 0.90891 0.127 0.0
H1468 H 0.45442 0.89571 0.94907 0.0
H1469 H 0.43153 0.89298 0.99227 0.0
H1470 H 0.4232 0.91063 0.17368 0.0
H1471 H 0.42435 0.90914 0.0745 0.0
H1472 H 0.51726 0.91509 0.19369 0.0
H1473 H 0.51615 0.9117 0.09348 0.0
H1474 H 0.49697 0.90364 0.28849 0.0
H1475 H 0.47674 0.90635 0.33109 0.0
C1476 C 0.22786 0.35894 0.12165 0.0
C1477 C 0.24528 0.36513 0.07322 0.0
C1478 C 0.24059 0.32966 0.08539 0.0
C1479 C 0.22008 0.32234 0.11691 0.0
N1480 N 0.19265 0.33093 0.13963 0.0
N1481 N 0.26844 0.35621 0.00565 0.0
C1482 C 0.21338 0.33729 0.12984 0.0
C1483 C 0.2518 0.35044 0.05417 0.0
N1484 N 0.22461 0.37369 0.15678 0.0
N1485 N 0.24986 0.31748 0.08821 0.0
H1486 H 0.27752 0.37162 0.98549 0.0
H1487 H 0.27244 0.34549 0.98296 0.0
H1488 H 0.24316 0.30303 0.11638 0.0
H1489 H 0.26536 0.32291 0.07088 0.0
H1490 H 0.2124 0.36977 0.19589 0.0
H1491 H 0.23569 0.38969 0.15289 0.0
H1492 H 0.187 0.3414 0.14594 0.0
H1493 H 0.1813 0.31578 0.12481 0.0
C1494 C 0.66691 0.89551 0.16554 0.0
C1495 C 0.68515 0.90375 0.11818 0.0
C1496 C 0.66226 0.89185 0.00496 0.0
C1497 C 0.64437 0.87999 0.05237 0.0
N1498 N 0.63084 0.86774 0.18061 0.0
N1499 N 0.69936 0.90448 0.99119 0.0
C1500 C 0.64692 0.8811 0.13362 0.0
C1501 C 0.68268 0.90059 0.0373 0.0
N1502 N 0.66846 0.90184 0.24038 0.0
N1503 N 0.65989 0.89532 0.92934 0.0
H1504 H 0.71435 0.90903 0.01199 0.0
H1505 H 0.69756 0.90048 0.93297 0.0
H1506 H 0.64521 0.89052 0.90446 0.0
H1507 H 0.67259 0.90528 0.8945 0.0
H1508 H 0.6553 0.89757 0.275 0.0
H1509 H 0.68256 0.9133 0.26488 0.0
H1510 H 0.6328 0.86666 0.23953 0.0
H1511 H 0.61627 0.85619 0.16016 0.0
C1512 C 0.11999 0.76983 0.13269 0.0
C1513 C 0.1213 0.76705 0.05247 0.0
C1514 C 0.10218 0.78595 0.02674 0.0
C1515 C 0.09967 0.78752 0.10702 0.0
N1516 N 0.09994 0.77425 0.23408 0.0
N1517 N 0.10696 0.76595 0.92613 0.0
C1518 C 0.10658 0.7773 0.1593 0.0
C1519 C 0.11024 0.77302 0.00042 0.0
N1520 N 0.13235 0.76664 0.1835 0.0
N1521 N 0.09822 0.79766 0.97545 0.0
H1522 H 0.11154 0.75543 0.90575 0.0
H1523 H 0.09746 0.76848 0.88792 0.0
H1524 H 0.09329 0.80816 0.99167 0.0
H1525 H 0.102 0.79855 0.91722 0.0
H1526 H 0.13342 0.77065 0.24156 0.0
H1527 H 0.14311 0.76206 0.16686 0.0
H1528 H 0.10317 0.76533 0.27263 0.0
H1529 H 0.08912 0.77839 0.25476 0.0
C1530 C 0.32288 0.22356 0.48481 0.0
C1531 C 0.32031 0.22258 0.40352 0.0
C1532 C 0.35844 0.23796 0.38834 0.0
C1533 C 0.36129 0.24134 0.46894 0.0
N1534 N 0.34597 0.24262 0.59081 0.0
N1535 N 0.33694 0.2359 0.28002 0.0
C1536 C 0.34344 0.23577 0.51637 0.0
C1537 C 0.33849 0.23202 0.35592 0.0
N1538 N 0.30614 0.21207 0.53226 0.0
N1539 N 0.37415 0.23905 0.3427 0.0
H1540 H 0.32287 0.23328 0.25503 0.0
H1541 H 0.35012 0.2442 0.24494 0.0
H1542 H 0.38847 0.24144 0.36405 0.0
H1543 H 0.37184 0.23484 0.28469 0.0
H1544 H 0.30784 0.21078 0.59125 0.0
H1545 H 0.29097 0.20204 0.51233 0.0
H1546 H 0.33337 0.2404 0.62527 0.0
H1547 H 0.36068 0.25263 0.61504 0.0
C1548 C 0.75871 0.11051 0.42333 0.0
C1549 C 0.77244 0.1294 0.46436 0.0
C1550 C 0.79884 0.11818 0.467 0.0
C1551 C 0.78727 0.1022 0.41299 0.0
N1552 N 0.75645 0.08414 0.33284 0.0
N1553 N 0.80871 0.15367 0.49826 0.0
C1554 C 0.7673 0.09873 0.38854 0.0
C1555 C 0.79337 0.13387 0.47943 0.0
N1556 N 0.73747 0.1029 0.42126 0.0
N1557 N 0.81518 0.11861 0.50595 0.0
H1558 H 0.80631 0.16634 0.4909 0.0
H1559 H 0.82443 0.15776 0.50609 0.0
H1560 H 0.81847 0.10637 0.50135 0.0
H1561 H 0.82344 0.12959 0.54911 0.0
H1562 H 0.72692 0.08836 0.39714 0.0
H1563 H 0.73002 0.10958 0.45162 0.0
H1564 H 0.74287 0.08257 0.30707 0.0
H1565 H 0.76179 0.07451 0.30948 0.0
C1566 C 0.90184 0.67646 0.35381 0.0
C1567 C 0.90881 0.69371 0.40537 0.0
C1568 C 0.90099 0.66935 0.51292 0.0
C1569 C 0.89029 0.65196 0.46202 0.0
N1570 N 0.87624 0.63993 0.33384 0.0
N1571 N 0.91108 0.70564 0.53684 0.0
C1572 C 0.88955 0.6557 0.38225 0.0
C1573 C 0.90743 0.68999 0.48589 0.0
N1574 N 0.9074 0.67974 0.2779 0.0
N1575 N 0.90561 0.66635 0.58636 0.0
H1576 H 0.91477 0.72072 0.51996 0.0
H1577 H 0.90817 0.70296 0.59564 0.0
H1578 H 0.90228 0.65167 0.60723 0.0
H1579 H 0.91496 0.67879 0.62325 0.0
H1580 H 0.90396 0.66743 0.2398 0.0
H1581 H 0.91766 0.69462 0.25549 0.0
H1582 H 0.87399 0.64269 0.2767 0.0
H1583 H 0.86553 0.62477 0.35229 0.0
C1584 C 0.7831 0.68432 0.96938 0.0
C1585 C 0.78518 0.68917 0.88963 0.0
C1586 C 0.77025 0.65158 0.85925 0.0
C1587 C 0.76726 0.64678 0.93878 0.0
N1588 N 0.76342 0.65796 0.06561 0.0
N1589 N 0.7736 0.67628 0.7604 0.0
C1590 C 0.77125 0.66296 0.99253 0.0
C1591 C 0.77646 0.67242 0.83504 0.0
N1592 N 0.79348 0.69963 0.02337 0.0
N1593 N 0.76833 0.6368 0.80699 0.0
H1594 H 0.7767 0.69107 0.74149 0.0
H1595 H 0.76576 0.66433 0.71999 0.0
H1596 H 0.76429 0.62149 0.82213 0.0
H1597 H 0.7726 0.64035 0.7494 0.0
H1598 H 0.79403 0.69625 0.08131 0.0
H1599 H 0.80336 0.71539 0.01008 0.0
H1600 H 0.76447 0.66921 0.10491 0.0
H1601 H 0.75367 0.64246 0.08355 0.0
C1602 C 0.34327 0.10805 0.99688 0.0
C1603 C 0.36074 0.11974 0.94747 0.0
C1604 C 0.33656 0.10717 0.83787 0.0
C1605 C 0.31905 0.09993 0.88875 0.0
N1606 N 0.30689 0.09728 0.02035 0.0
N1607 N 0.37342 0.13247 0.81898 0.0
C1608 C 0.32261 0.10117 0.9694 0.0
C1609 C 0.35733 0.11975 0.86716 0.0
N1610 N 0.34634 0.10326 0.06997 0.0
N1611 N 0.33348 0.10154 0.76199 0.0
H1612 H 0.38877 0.14237 0.8377 0.0
H1613 H 0.37102 0.13456 0.76128 0.0
H1614 H 0.31867 0.09112 0.73929 0.0
H1615 H 0.34587 0.10508 0.72421 0.0
H1616 H 0.33393 0.09333 0.10595 0.0
H1617 H 0.36119 0.10704 0.09084 0.0
H1618 H 0.30957 0.10007 0.07925 0.0
H1619 H 0.29183 0.09371 0.00384 0.0
C1620 C 0.91265 0.23627 0.90773 0.0
C1621 C 0.90757 0.21554 0.92806 0.0
C1622 C 0.87698 0.21107 -0.00124 0.0
C1623 C 0.88272 0.23237 0.98478 0.0
N1624 N 0.91038 0.26693 0.94481 0.0
N1625 N 0.89001 0.18698 0.01753 0.0
C1626 C 0.90186 0.24556 0.94462 0.0
C1627 C 0.89151 0.20425 0.98222 0.0
N1628 N 0.92767 0.24705 0.85329 0.0
N1629 N 0.85702 0.19674 0.02048 0.0
H1630 H 0.90147 0.18269 0.00977 0.0
H1631 H 0.87909 0.17884 0.06093 0.0
H1632 H 0.84501 0.20034 0.01901 0.0
H1633 H 0.85186 0.18073 0.02665 0.0
H1634 H 0.93035 0.26129 0.83012 0.0
H1635 H 0.93661 0.24109 0.82844 0.0
H1636 H 0.92511 0.27719 0.92138 0.0
H1637 H 0.90406 0.27457 0.97639 0.0
C1638 C 0.69137 0.7843 0.51223 0.0
C1639 C 0.69489 0.78583 0.59272 0.0
C1640 C 0.657 0.76362 0.61531 0.0
C1641 C 0.65342 0.76121 0.53463 0.0
N1642 N 0.66845 0.76316 0.40883 0.0
N1643 N 0.68192 0.77005 0.71727 0.0
C1644 C 0.67102 0.76961 0.4838 0.0
C1645 C 0.67797 0.77318 0.64302 0.0
N1646 N 0.70689 0.79747 0.46293 0.0
N1647 N 0.64085 0.75833 0.66587 0.0
H1648 H 0.69717 0.77592 0.73852 0.0
H1649 H 0.67015 0.75956 0.75428 0.0
H1650 H 0.6253 0.75247 0.64925 0.0
H1651 H 0.64332 0.76198 0.72431 0.0
H1652 H 0.70421 0.7984 0.40452 0.0
H1653 H 0.7219 0.80873 0.4811 0.0
H1654 H 0.68107 0.76758 0.37127 0.0
H1655 H 0.65406 0.75141 0.38707 0.0
C1656 C 0.23332 0.90477 0.6568 0.0
C1657 C 0.22262 0.9111 0.60444 0.0
C1658 C 0.23777 0.90115 0.49807 0.0
C1659 C 0.24427 0.89056 0.55026 0.0
N1660 N 0.24486 0.87973 0.6815 0.0
N1661 N 0.21218 0.91198 0.4728 0.0
C1662 C 0.24134 0.89179 0.63043 0.0
C1663 C 0.22428 0.9086 0.52422 0.0
N1664 N 0.23633 0.91154 0.73143 0.0
N1665 N 0.24484 0.90458 0.42382 0.0
H1666 H 0.20131 0.91645 0.48892 0.0
H1667 H 0.2114 0.90818 0.41461 0.0
H1668 H 0.25574 0.9005 0.40359 0.0
H1669 H 0.24189 0.91375 0.38551 0.0
H1670 H 0.24556 0.90872 0.76997 0.0
H1671 H 0.23184 0.92211 0.75193 0.0
H1672 H 0.24077 0.87861 0.73948 0.0
H1673 H 0.24973 0.86918 0.66518 0.0
C1674 C 0.11938 0.34765 0.60075 0.0
C1675 C 0.11942 0.35029 0.51979 0.0
C1676 C 0.10133 0.31183 0.50474 0.0
C1677 C 0.09876 0.30937 0.58584 0.0
N1678 N 0.0997 0.32582 0.70777 0.0
N1679 N 0.10512 0.3341 0.39631 0.0
C1680 C 0.10601 0.32755 0.63285 0.0
C1681 C 0.10882 0.33216 0.47205 0.0
N1682 N 0.13289 0.36384 0.64727 0.0
N1683 N 0.09776 0.29525 0.45884 0.0
H1684 H 0.1091 0.34849 0.37088 0.0
H1685 H 0.09585 0.32115 0.36132 0.0
H1686 H 0.09336 0.28035 0.48012 0.0
H1687 H 0.10146 0.29694 0.4004 0.0
H1688 H 0.13443 0.36182 0.70586 0.0
H1689 H 0.14448 0.37837 0.62642 0.0
H1690 H 0.10343 0.33892 0.74205 0.0
H1691 H 0.08863 0.31156 0.73235 0.0
C1692 C 0.02419 0.55796 0.67481 0.0
C1693 C 0.03008 0.57627 0.71792 0.0
C1694 C 0.99315 0.56804 0.71519 0.0
C1695 C 0.98688 0.54733 0.68785 0.0
N1696 N 0.99785 0.52156 0.66803 0.0
N1697 N 0.01991 0.59862 0.78435 0.0
C1698 C 1.00282 0.54204 0.67393 0.0
C1699 C 0.01447 0.58134 0.73962 0.0
N1700 N 0.03907 0.55551 0.63667 0.0
N1701 N 0.97941 0.57553 0.71462 0.0
H1702 H 0.03554 0.60912 0.79941 0.0
H1703 H 0.00883 0.6018 0.80917 0.0
H1704 H 0.96419 0.56711 0.69253 0.0
H1705 H 0.98395 0.59108 0.72821 0.0
H1706 H 0.03525 0.54262 0.60105 0.0
H1707 H 0.05474 0.56764 0.63434 0.0
H1708 H 0.00918 0.51701 0.66147 0.0
H1709 H 0.98306 0.50952 0.68426 0.0
C1710 C 0.44178 0.45443 0.69118 0.0
C1711 C 0.43816 0.45384 0.77174 0.0
C1712 C 0.4601 0.43758 0.78955 0.0
C1713 C 0.46043 0.43475 0.70875 0.0
N1714 N 0.44581 0.43568 0.58457 0.0
N1715 N 0.43944 0.43901 0.89493 0.0
C1716 C 0.44954 0.44172 0.65995 0.0
C1717 C 0.44597 0.44366 0.8203 0.0
N1718 N 0.43908 0.46789 0.64448 0.0
N1719 N 0.47394 0.43571 0.83706 0.0
H1720 H 0.42781 0.44154 0.91855 0.0
H1721 H 0.44367 0.43017 0.93003 0.0
H1722 H 0.48601 0.43336 0.81699 0.0
H1723 H 0.47515 0.43935 0.89554 0.0
H1724 H 0.44323 0.46981 0.58641 0.0
H1725 H 0.43554 0.47912 0.66511 0.0
H1726 H 0.43651 0.43923 0.54913 0.0
H1727 H 0.44961 0.42498 0.56034 0.0
C1728 C 0.54907 0.98068 0.70131 0.0
C1729 C 0.54938 0.9774 0.78179 0.0
C1730 C 0.56679 0.01557 0.80096 0.0
C1731 C 0.56986 0.01886 0.72032 0.0
N1732 N 0.56845 0.00338 0.59554 0.0
N1733 N 0.56425 0.9929 0.90577 0.0
C1734 C 0.56237 1.00109 0.67084 0.0
C1735 C 0.55994 0.99518 0.83107 0.0
N1736 N 0.53536 0.96485 0.654 0.0
N1737 N 0.56921 0.03141 0.8489 0.0
H1738 H 0.56113 0.97852 0.92902 0.0
H1739 H 0.57335 0.00575 0.94141 0.0
H1740 H 0.5722 0.04607 0.82921 0.0
H1741 H 0.56541 0.02897 0.90723 0.0
H1742 H 0.53364 0.9673 0.59598 0.0
H1743 H 0.52383 0.9502 0.67411 0.0
H1744 H 0.56452 0.99053 0.55961 0.0
H1745 H 0.57951 0.01776 0.5718 0.0
C1746 C 0.47268 0.0174 0.29043 0.0
C1747 C 0.46075 0.02476 0.25206 0.0
C1748 C 0.43012 0.98901 0.25757 0.0
C1749 C 0.44358 0.98112 0.28096 0.0
N1750 N 0.47957 0.98875 0.29343 0.0
N1751 N 0.42801 0.01734 0.19305 0.0
C1752 C 0.46541 0.99561 0.29082 0.0
C1753 C 0.43937 0.01049 0.23376 0.0
N1754 N 0.49103 0.03121 0.32598 0.0
N1755 N 0.40871 0.97666 0.26155 0.0
H1756 H 0.43408 0.03316 0.17853 0.0
H1757 H 0.4131 0.00717 0.17061 0.0
H1758 H 0.40114 0.96135 0.28278 0.0
H1759 H 0.39849 0.98244 0.2514 0.0
H1760 H 0.49983 0.02634 0.3584 0.0
H1761 H 0.49572 0.04716 0.33046 0.0
H1762 H 0.49581 0.99894 0.29665 0.0
H1763 H 0.47513 0.97337 0.27852 0.0
C1764 C 0.01341 0.43806 0.28026 0.0
C1765 C 0.0247 0.4603 0.27033 0.0
C1766 C 1.00064 0.4568 0.16757 0.0
C1767 C 0.98695 0.43535 0.18549 0.0
N1768 N 0.98149 0.40464 0.2562 0.0
N1769 N 0.02357 0.49063 0.22308 0.0
C1770 C 0.9936 0.42568 0.24173 0.0
C1771 C 0.01648 0.46961 0.2204 0.0
N1772 N 0.02172 0.42884 0.32588 0.0
N1773 N 1.00005 0.46472 0.09736 0.0
H1774 H 0.0342 0.50014 0.26463 0.0
H1775 H 0.01686 0.49772 0.19045 0.0
H1776 H 0.993 0.45498 0.05 0.0
H1777 H 0.00973 0.48047 0.08291 0.0
H1778 H 0.01572 0.41265 0.32904 0.0
H1779 H 0.03523 0.4376 0.35903 0.0
H1780 H 0.98381 0.39721 0.30316 0.0
H1781 H 0.96907 0.3945 0.22061 0.0
C1782 C 0.58076 0.56719 0.22171 0.0
C1783 C 0.5754 0.54638 0.24207 0.0
C1784 C 0.54135 0.53977 0.28728 0.0
C1785 C 0.547 0.56112 0.27457 0.0
N1786 N 0.57564 0.59666 0.25016 0.0
N1787 N 0.55434 0.51639 0.32163 0.0
C1788 C 0.56777 0.5754 0.24754 0.0
C1789 C 0.55702 0.53395 0.28475 0.0
N1790 N 0.5981 0.57902 0.1773 0.0
N1791 N 0.52078 0.52459 0.29433 0.0
H1792 H 0.56634 0.51265 0.32337 0.0
H1793 H 0.54144 0.50732 0.35715 0.0
H1794 H 0.50879 0.52767 0.28059 0.0
H1795 H 0.51595 0.50863 0.2998 0.0
H1796 H 0.60145 0.59342 0.15349 0.0
H1797 H 0.60848 0.5738 0.16131 0.0
H1798 H 0.59126 0.6075 0.23681 0.0
H1799 H 0.56755 0.60361 0.27402 0.0
loop_
_geom_bond_atom_site_label_1
_geom_bond_atom_site_label_2
_geom_bond_distance
_geom_bond_site_symmetry_2
_ccdc_geom_bond_type
Co0 O1 2.216 . S
Co0 O2 2.091 . S
Co0 O4 2.004 . S
Co0 O10 2.021 . S
Co0 O12 2.137 . S
Co0 O13 2.244 . S
O1 Co0 2.216 . S
O1 C8 1.247 . S
O2 Co0 2.091 . S
O2 C8 1.261 . S
C3 O12 1.247 . S
C3 O13 1.272 . S
O4 Co0 2.004 . S
O4 C9 1.259 . S
Co5 O6 2.061 . S
Co5 O11 2.052 . S
Co5 O13 2.135 . S
O6 Co5 2.061 . S
O6 C9 1.235 . S
C7 O10 1.238 . S
C7 O11 1.241 . S
C8 O1 1.247 . S
C8 O2 1.261 . S
C9 O4 1.259 . S
C9 O6 1.235 . S
O10 Co0 2.021 . S
O10 C7 1.238 . S
O11 Co5 2.052 . S
O11 C7 1.241 . S
O12 Co0 2.137 . S
O12 C3 1.247 . S
O13 Co0 2.244 . S
O13 C3 1.272 . S
O13 Co5 2.135 . S
Co14 O15 2.216 . S
Co14 O16 2.091 . S
Co14 O18 2.004 . S
Co14 O24 2.021 . S
Co14 O26 2.137 . S
Co14 O27 2.244 . S
O15 Co14 2.216 . S
O15 C22 1.247 . S
O16 Co14 2.091 . S
O16 C22 1.261 . S
C17 O26 1.247 . S
C17 O27 1.272 . S
O18 Co14 2.004 . S
O18 C23 1.259 . S
Co19 O20 2.061 . S
Co19 O25 2.052 . S
Co19 O27 2.135 . S
O20 Co19 2.061 . S
O20 C23 1.235 . S
C21 O24 1.238 . S
C21 O25 1.241 . S
C22 O15 1.247 . S
C22 O16 1.261 . S
C23 O18 1.259 . S
C23 O20 1.235 . S
O24 Co14 2.021 . S
O24 C21 1.238 . S
O25 Co19 2.052 . S
O25 C21 1.241 . S
O26 Co14 2.137 . S
O26 C17 1.247 . S
O27 Co14 2.244 . S
O27 C17 1.272 . S
O27 Co19 2.135 . S
Co28 O29 2.216 . S
Co28 O30 2.091 . S
Co28 O32 2.004 . S
Co28 O38 2.021 . S
Co28 O40 2.137 . S
Co28 O41 2.244 . S
O29 Co28 2.216 . S
O29 C36 1.247 . S
O30 Co28 2.091 . S
O30 C36 1.261 . S
C31 O40 1.247 . S
C31 O41 1.272 . S
O32 Co28 2.004 . S
O32 C37 1.259 . S
Co33 O34 2.061 . S
Co33 O39 2.052 . S
Co33 O41 2.135 . S
O34 Co33 2.061 . S
O34 C37 1.235 . S
C35 O38 1.238 . S
C35 O39 1.241 . S
C36 O29 1.247 . S
C36 O30 1.261 . S
C37 O32 1.259 . S
C37 O34 1.235 . S
O38 Co28 2.021 . S
O38 C35 1.238 . S
O39 Co33 2.052 . S
O39 C35 1.241 . S
O40 Co28 2.137 . S
O40 C31 1.247 . S
O41 Co28 2.244 . S
O41 C31 1.272 . S
O41 Co33 2.135 . S
Co42 O43 2.216 . S
Co42 O44 2.091 . S
Co42 O46 2.004 . S
Co42 O52 2.021 . S
Co42 O54 2.137 . S
Co42 O55 2.244 . S
O43 Co42 2.216 . S
O43 C50 1.247 . S
O44 Co42 2.091 . S
O44 C50 1.261 . S
C45 O54 1.247 . S
C45 O55 1.272 . S
O46 Co42 2.004 . S
O46 C51 1.259 . S
Co47 O48 2.061 . S
Co47 O53 2.052 . S
Co47 O55 2.135 . S
O48 Co47 2.061 . S
O48 C51 1.235 . S
C49 O52 1.238 . S
C49 O53 1.241 . S
C50 O43 1.247 . S
C50 O44 1.261 . S
C51 O46 1.259 . S
C51 O48 1.235 . S
O52 Co42 2.021 . S
O52 C49 1.238 . S
O53 Co47 2.052 . S
O53 C49 1.241 . S
O54 Co42 2.137 . S
O54 C45 1.247 . S
O55 Co42 2.244 . S
O55 C45 1.272 . S
O55 Co47 2.135 . S
Co56 O57 2.216 . S
Co56 O58 2.091 . S
Co56 O60 2.004 . S
Co56 O66 2.021 . S
Co56 O68 2.137 . S
Co56 O69 2.244 . S
O57 Co56 2.216 . S
O57 C64 1.247 . S
O58 Co56 2.091 . S
O58 C64 1.261 . S
C59 O68 1.247 . S
C59 O69 1.272 . S
O60 Co56 2.004 . S
O60 C65 1.259 . S
Co61 O62 2.061 . S
Co61 O67 2.052 . S
Co61 O69 2.135 . S
O62 Co61 2.061 . S
O62 C65 1.235 . S
C63 O66 1.238 . S
C63 O67 1.241 . S
C64 O57 1.247 . S
C64 O58 1.261 . S
C65 O60 1.259 . S
C65 O62 1.235 . S
O66 Co56 2.021 . S
O66 C63 1.238 . S
O67 Co61 2.052 . S
O67 C63 1.241 . S
O68 Co56 2.137 . S
O68 C59 1.247 . S
O69 Co56 2.244 . S
O69 C59 1.272 . S
O69 Co61 2.135 . S
Co70 O71 2.216 . S
Co70 O72 2.091 . S
Co70 O74 2.004 . S
Co70 O80 2.021 . S
Co70 O82 2.137 . S
Co70 O83 2.244 . S
O71 Co70 2.216 . S
O71 C78 1.247 . S
O72 Co70 2.091 . S
O72 C78 1.261 . S
C73 O82 1.247 . S
C73 O83 1.272 . S
O74 Co70 2.004 . S
O74 C79 1.259 . S
Co75 O76 2.061 . S
Co75 O81 2.052 . S
Co75 O83 2.135 . S
O76 Co75 2.061 . S
O76 C79 1.235 . S
C77 O80 1.238 . S
C77 O81 1.241 . S
C78 O71 1.247 . S
C78 O72 1.261 . S
C79 O74 1.259 . S
C79 O76 1.235 . S
O80 Co70 2.021 . S
O80 C77 1.238 . S
O81 Co75 2.052 . S
O81 C77 1.241 . S
O82 Co70 2.137 . S
O82 C73 1.247 . S
O83 Co70 2.244 . S
O83 C73 1.272 . S
O83 Co75 2.135 . S
Co84 O85 2.216 . S
Co84 O86 2.091 . S
Co84 O88 2.004 . S
Co84 O94 2.021 . S
Co84 O96 2.137 . S
Co84 O97 2.244 . S
O85 Co84 2.216 . S
O85 C92 1.247 . S
O86 Co84 2.091 . S
O86 C92 1.261 . S
C87 O96 1.247 . S
C87 O97 1.272 . S
O88 Co84 2.004 . S
O88 C93 1.259 . S
Co89 O90 2.061 . S
Co89 O95 2.052 . S
Co89 O97 2.135 . S
O90 Co89 2.061 . S
O90 C93 1.235 . S
C91 O94 1.238 . S
C91 O95 1.241 . S
C92 O85 1.247 . S
C92 O86 1.261 . S
C93 O88 1.259 . S
C93 O90 1.235 . S
O94 Co84 2.021 . S
O94 C91 1.238 . S
O95 Co89 2.052 . S
O95 C91 1.241 . S
O96 Co84 2.137 . S
O96 C87 1.247 . S
O97 Co84 2.244 . S
O97 C87 1.272 . S
O97 Co89 2.135 . S
Co98 O99 2.216 . S
Co98 O100 2.091 . S
Co98 O102 2.004 . S
Co98 O108 2.021 . S
Co98 O110 2.137 . S
Co98 O111 2.244 . S
O99 Co98 2.216 . S
O99 C106 1.247 . S
O100 Co98 2.091 . S
O100 C106 1.261 . S
C101 O110 1.247 . S
C101 O111 1.272 . S
O102 Co98 2.004 . S
O102 C107 1.259 . S
Co103 O104 2.061 . S
Co103 O109 2.052 . S
Co103 O111 2.135 . S
O104 Co103 2.061 . S
O104 C107 1.235 . S
C105 O108 1.238 . S
C105 O109 1.241 . S
C106 O99 1.247 . S
C106 O100 1.261 . S
C107 O102 1.259 . S
C107 O104 1.235 . S
O108 Co98 2.021 . S
O108 C105 1.238 . S
O109 Co103 2.052 . S
O109 C105 1.241 . S
O110 Co98 2.137 . S
O110 C101 1.247 . S
O111 Co98 2.244 . S
O111 C101 1.272 . S
O111 Co103 2.135 . S
Co112 O113 2.216 . S
Co112 O114 2.091 . S
Co112 O116 2.004 . S
Co112 O122 2.021 . S
Co112 O124 2.137 . S
Co112 O125 2.244 . S
O113 Co112 2.216 . S
O113 C120 1.247 . S
O114 Co112 2.091 . S
O114 C120 1.261 . S
C115 O124 1.247 . S
C115 O125 1.272 . S
O116 Co112 2.004 . S
O116 C121 1.259 . S
Co117 O118 2.061 . S
Co117 O123 2.052 . S
Co117 O125 2.135 . S
O118 Co117 2.061 . S
O118 C121 1.235 . S
C119 O122 1.238 . S
C119 O123 1.241 . S
C120 O113 1.247 . S
C120 O114 1.261 . S
C121 O116 1.259 . S
C121 O118 1.235 . S
O122 Co112 2.021 . S
O122 C119 1.238 . S
O123 Co117 2.052 . S
O123 C119 1.241 . S
O124 Co112 2.137 . S
O124 C115 1.247 . S
O125 Co112 2.244 . S
O125 C115 1.272 . S
O125 Co117 2.135 . S
Co126 O127 2.216 . S
Co126 O128 2.091 . S
Co126 O130 2.004 . S
Co126 O136 2.021 . S
Co126 O138 2.137 . S
Co126 O139 2.244 . S
O127 Co126 2.216 . S
O127 C134 1.247 . S
O128 Co126 2.091 . S
O128 C134 1.261 . S
C129 O138 1.247 . S
C129 O139 1.272 . S
O130 Co126 2.004 . S
O130 C135 1.259 . S
Co131 O132 2.061 . S
Co131 O137 2.052 . S
Co131 O139 2.135 . S
O132 Co131 2.061 . S
O132 C135 1.235 . S
C133 O136 1.238 . S
C133 O137 1.241 . S
C134 O127 1.247 . S
C134 O128 1.261 . S
C135 O130 1.259 . S
C135 O132 1.235 . S
O136 Co126 2.021 . S
O136 C133 1.238 . S
O137 Co131 2.052 . S
O137 C133 1.241 . S
O138 Co126 2.137 . S
O138 C129 1.247 . S
O139 Co126 2.244 . S
O139 C129 1.272 . S
O139 Co131 2.135 . S
Co140 O141 2.216 . S
Co140 O142 2.091 . S
Co140 O144 2.004 . S
Co140 O150 2.021 . S
Co140 O152 2.137 . S
Co140 O153 2.244 . S
O141 Co140 2.216 . S
O141 C148 1.247 . S
O142 Co140 2.091 . S
O142 C148 1.261 . S
C143 O152 1.247 . S
C143 O153 1.272 . S
O144 Co140 2.004 . S
O144 C149 1.259 . S
Co145 O146 2.061 . S
Co145 O151 2.052 . S
Co145 O153 2.135 . S
O146 Co145 2.061 . S
O146 C149 1.235 . S
C147 O150 1.238 . S
C147 O151 1.241 . S
C148 O141 1.247 . S
C148 O142 1.261 . S
C149 O144 1.259 . S
C149 O146 1.235 . S
O150 Co140 2.021 . S
O150 C147 1.238 . S
O151 Co145 2.052 . S
O151 C147 1.241 . S
O152 Co140 2.137 . S
O152 C143 1.247 . S
O153 Co140 2.244 . S
O153 C143 1.272 . S
O153 Co145 2.135 . S
Co154 O155 2.216 . S
Co154 O156 2.091 . S
Co154 O158 2.004 . S
Co154 O164 2.021 . S
Co154 O166 2.137 . S
Co154 O167 2.244 . S
O155 Co154 2.216 . S
O155 C162 1.247 . S
O156 Co154 2.091 . S
O156 C162 1.261 . S
C157 O166 1.247 . S
C157 O167 1.272 . S
O158 Co154 2.004 . S
O158 C163 1.259 . S
Co159 O160 2.061 . S
Co159 O165 2.052 . S
Co159 O167 2.135 . S
O160 Co159 2.061 . S
O160 C163 1.235 . S
C161 O164 1.238 . S
C161 O165 1.241 . S
C162 O155 1.247 . S
C162 O156 1.261 . S
C163 O158 1.259 . S
C163 O160 1.235 . S
O164 Co154 2.021 . S
O164 C161 1.238 . S
O165 Co159 2.052 . S
O165 C161 1.241 . S
O166 Co154 2.137 . S
O166 C157 1.247 . S
O167 Co154 2.244 . S
O167 C157 1.272 . S
O167 Co159 2.135 . S
Co168 O169 2.216 . S
Co168 O170 2.091 . S
Co168 O172 2.004 . S
Co168 O178 2.021 . S
Co168 O180 2.137 . S
Co168 O181 2.244 . S
O169 Co168 2.216 . S
O169 C176 1.247 . S
O170 Co168 2.091 . S
O170 C176 1.261 . S
C171 O180 1.247 . S
C171 O181 1.272 . S
O172 Co168 2.004 . S
O172 C177 1.259 . S
Co173 O174 2.061 . S
Co173 O179 2.052 . S
Co173 O181 2.135 . S
O174 Co173 2.061 . S
O174 C177 1.235 . S
C175 O178 1.238 . S
C175 O179 1.241 . S
C176 O169 1.247 . S
C176 O170 1.261 . S
C177 O172 1.259 . S
C177 O174 1.235 . S
O178 Co168 2.021 . S
O178 C175 1.238 . S
O179 Co173 2.052 . S
O179 C175 1.241 . S
O180 Co168 2.137 . S
O180 C171 1.247 . S
O181 Co168 2.244 . S
O181 C171 1.272 . S
O181 Co173 2.135 . S
Co182 O183 2.216 . S
Co182 O184 2.091 . S
Co182 O186 2.004 . S
Co182 O192 2.021 . S
Co182 O194 2.137 . S
Co182 O195 2.244 . S
O183 Co182 2.216 . S
O183 C190 1.247 . S
O184 Co182 2.091 . S
O184 C190 1.261 . S
C185 O194 1.247 . S
C185 O195 1.272 . S
O186 Co182 2.004 . S
O186 C191 1.259 . S
Co187 O188 2.061 . S
Co187 O193 2.052 . S
Co187 O195 2.135 . S
O188 Co187 2.061 . S
O188 C191 1.235 . S
C189 O192 1.238 . S
C189 O193 1.241 . S
C190 O183 1.247 . S
C190 O184 1.261 . S
C191 O186 1.259 . S
C191 O188 1.235 . S
O192 Co182 2.021 . S
O192 C189 1.238 . S
O193 Co187 2.052 . S
O193 C189 1.241 . S
O194 Co182 2.137 . S
O194 C185 1.247 . S
O195 Co182 2.244 . S
O195 C185 1.272 . S
O195 Co187 2.135 . S
Co196 O197 2.216 . S
Co196 O198 2.091 . S
Co196 O200 2.004 . S
Co196 O206 2.021 . S
Co196 O208 2.137 . S
Co196 O209 2.244 . S
O197 Co196 2.216 . S
O197 C204 1.247 . S
O198 Co196 2.091 . S
O198 C204 1.261 . S
C199 O208 1.247 . S
C199 O209 1.272 . S
O200 Co196 2.004 . S
O200 C205 1.259 . S
Co201 O202 2.061 . S
Co201 O207 2.052 . S
Co201 O209 2.135 . S
O202 Co201 2.061 . S
O202 C205 1.235 . S
C203 O206 1.238 . S
C203 O207 1.241 . S
C204 O197 1.247 . S
C204 O198 1.261 . S
C205 O200 1.259 . S
C205 O202 1.235 . S
O206 Co196 2.021 . S
O206 C203 1.238 . S
O207 Co201 2.052 . S
O207 C203 1.241 . S
O208 Co196 2.137 . S
O208 C199 1.247 . S
O209 Co196 2.244 . S
O209 C199 1.272 . S
O209 Co201 2.135 . S
Co210 O211 2.216 . S
Co210 O212 2.091 . S
Co210 O214 2.004 . S
Co210 O220 2.021 . S
Co210 O222 2.137 . S
Co210 O223 2.244 . S
O211 Co210 2.216 . S
O211 C218 1.247 . S
O212 Co210 2.091 . S
O212 C218 1.261 . S
C213 O222 1.247 . S
C213 O223 1.272 . S
O214 Co210 2.004 . S
O214 C219 1.259 . S
Co215 O216 2.061 . S
Co215 O221 2.052 . S
Co215 O223 2.135 . S
O216 Co215 2.061 . S
O216 C219 1.235 . S
C217 O220 1.238 . S
C217 O221 1.241 . S
C218 O211 1.247 . S
C218 O212 1.261 . S
C219 O214 1.259 . S
C219 O216 1.235 . S
O220 Co210 2.021 . S
O220 C217 1.238 . S
O221 Co215 2.052 . S
O221 C217 1.241 . S
O222 Co210 2.137 . S
O222 C213 1.247 . S
O223 Co210 2.244 . S
O223 C213 1.272 . S
O223 Co215 2.135 . S
Co224 O225 2.216 . S
Co224 O226 2.091 . S
Co224 O228 2.004 . S
Co224 O234 2.021 . S
Co224 O236 2.137 . S
Co224 O237 2.244 . S
O225 Co224 2.216 . S
O225 C232 1.247 . S
O226 Co224 2.091 . S
O226 C232 1.261 . S
C227 O236 1.247 . S
C227 O237 1.272 . S
O228 Co224 2.004 . S
O228 C233 1.259 . S
Co229 O230 2.061 . S
Co229 O235 2.052 . S
Co229 O237 2.135 . S
O230 Co229 2.061 . S
O230 C233 1.235 . S
C231 O234 1.238 . S
C231 O235 1.241 . S
C232 O225 1.247 . S
C232 O226 1.261 . S
C233 O228 1.259 . S
C233 O230 1.235 . S
O234 Co224 2.021 . S
O234 C231 1.238 . S
O235 Co229 2.052 . S
O235 C231 1.241 . S
O236 Co224 2.137 . S
O236 C227 1.247 . S
O237 Co224 2.244 . S
O237 C227 1.272 . S
O237 Co229 2.135 . S
Co238 O239 2.216 . S
Co238 O240 2.091 . S
Co238 O242 2.004 . S
Co238 O248 2.021 . S
Co238 O250 2.137 . S
Co238 O251 2.244 . S
O239 Co238 2.216 . S
O239 C246 1.247 . S
O240 Co238 2.091 . S
O240 C246 1.261 . S
C241 O250 1.247 . S
C241 O251 1.272 . S
O242 Co238 2.004 . S
O242 C247 1.259 . S
Co243 O244 2.061 . S
Co243 O249 2.052 . S
Co243 O251 2.135 . S
O244 Co243 2.061 . S
O244 C247 1.235 . S
C245 O248 1.238 . S
C245 O249 1.241 . S
C246 O239 1.247 . S
C246 O240 1.261 . S
C247 O242 1.259 . S
C247 O244 1.235 . S
O248 Co238 2.021 . S
O248 C245 1.238 . S
O249 Co243 2.052 . S
O249 C245 1.241 . S
O250 Co238 2.137 . S
O250 C241 1.247 . S
O251 Co238 2.244 . S
O251 C241 1.272 . S
O251 Co243 2.135 . S
Co252 O253 2.216 . S
Co252 O254 2.091 . S
Co252 O256 2.004 . S
Co252 O262 2.021 . S
Co252 O264 2.137 . S
Co252 O265 2.244 . S
O253 Co252 2.216 . S
O253 C260 1.247 . S
O254 Co252 2.091 . S
O254 C260 1.261 . S
C255 O264 1.247 . S
C255 O265 1.272 . S
O256 Co252 2.004 . S
O256 C261 1.259 . S
Co257 O258 2.061 . S
Co257 O263 2.052 . S
Co257 O265 2.135 . S
O258 Co257 2.061 . S
O258 C261 1.235 . S
C259 O262 1.238 . S
C259 O263 1.241 . S
C260 O253 1.247 . S
C260 O254 1.261 . S
C261 O256 1.259 . S
C261 O258 1.235 . S
O262 Co252 2.021 . S
O262 C259 1.238 . S
O263 Co257 2.052 . S
O263 C259 1.241 . S
O264 Co252 2.137 . S
O264 C255 1.247 . S
O265 Co252 2.244 . S
O265 C255 1.272 . S
O265 Co257 2.135 . S
Co266 O267 2.216 . S
Co266 O268 2.091 . S
Co266 O270 2.004 . S
Co266 O276 2.021 . S
Co266 O278 2.137 . S
Co266 O279 2.244 . S
O267 Co266 2.216 . S
O267 C274 1.247 . S
O268 Co266 2.091 . S
O268 C274 1.261 . S
C269 O278 1.247 . S
C269 O279 1.272 . S
O270 Co266 2.004 . S
O270 C275 1.259 . S
Co271 O272 2.061 . S
Co271 O277 2.052 . S
Co271 O279 2.135 . S
O272 Co271 2.061 . S
O272 C275 1.235 . S
C273 O276 1.238 . S
C273 O277 1.241 . S
C274 O267 1.247 . S
C274 O268 1.261 . S
C275 O270 1.259 . S
C275 O272 1.235 . S
O276 Co266 2.021 . S
O276 C273 1.238 . S
O277 Co271 2.052 . S
O277 C273 1.241 . S
O278 Co266 2.137 . S
O278 C269 1.247 . S
O279 Co266 2.244 . S
O279 C269 1.272 . S
O279 Co271 2.135 . S
Co280 O281 2.216 . S
Co280 O282 2.091 . S
Co280 O284 2.004 . S
Co280 O290 2.021 . S
Co280 O292 2.137 . S
Co280 O293 2.244 . S
O281 Co280 2.216 . S
O281 C288 1.247 . S
O282 Co280 2.091 . S
O282 C288 1.261 . S
C283 O292 1.247 . S
C283 O293 1.272 . S
O284 Co280 2.004 . S
O284 C289 1.259 . S
Co285 O286 2.061 . S
Co285 O291 2.052 . S
Co285 O293 2.135 . S
O286 Co285 2.061 . S
O286 C289 1.235 . S
C287 O290 1.238 . S
C287 O291 1.241 . S
C288 O281 1.247 . S
C288 O282 1.261 . S
C289 O284 1.259 . S
C289 O286 1.235 . S
O290 Co280 2.021 . S
O290 C287 1.238 . S
O291 Co285 2.052 . S
O291 C287 1.241 . S
O292 Co280 2.137 . S
O292 C283 1.247 . S
O293 Co280 2.244 . S
O293 C283 1.272 . S
O293 Co285 2.135 . S
Co294 O295 2.216 1_556 S
Co294 O296 2.091 . S
Co294 O298 2.004 . S
Co294 O304 2.021 1_556 S
Co294 O306 2.137 . S
Co294 O307 2.244 . S
O295 Co294 2.216 1_554 S
O295 C302 1.247 . S
O296 Co294 2.091 . S
O296 C302 1.261 1_556 S
C297 O306 1.247 . S
C297 O307 1.272 . S
O298 Co294 2.004 . S
O298 C303 1.259 . S
Co299 O300 2.061 1_554 S
Co299 O305 2.052 . S
Co299 O307 2.135 1_554 S
O300 Co299 2.061 1_556 S
O300 C303 1.235 . S
C301 O304 1.238 . S
C301 O305 1.241 . S
C302 O295 1.247 . S
C302 O296 1.261 1_554 S
C303 O298 1.259 . S
C303 O300 1.235 . S
O304 Co294 2.021 1_554 S
O304 C301 1.238 . S
O305 Co299 2.052 . S
O305 C301 1.241 . S
O306 Co294 2.137 . S
O306 C297 1.247 . S
O307 Co294 2.244 . S
O307 C297 1.272 . S
O307 Co299 2.135 1_556 S
Co308 O309 2.216 1_556 S
Co308 O310 2.091 . S
Co308 O312 2.004 . S
Co308 O318 2.021 1_556 S
Co308 O320 2.137 . S
Co308 O321 2.244 . S
O309 Co308 2.216 1_554 S
O309 C316 1.247 . S
O310 Co308 2.091 . S
O310 C316 1.261 1_556 S
C311 O320 1.247 . S
C311 O321 1.272 . S
O312 Co308 2.004 . S
O312 C317 1.259 . S
Co313 O314 2.061 1_554 S
Co313 O319 2.052 . S
Co313 O321 2.135 1_554 S
O314 Co313 2.061 1_556 S
O314 C317 1.235 . S
C315 O318 1.238 . S
C315 O319 1.241 . S
C316 O309 1.247 . S
C316 O310 1.261 1_554 S
C317 O312 1.259 . S
C317 O314 1.235 . S
O318 Co308 2.021 1_554 S
O318 C315 1.238 . S
O319 Co313 2.052 . S
O319 C315 1.241 . S
O320 Co308 2.137 . S
O320 C311 1.247 . S
O321 Co308 2.244 . S
O321 C311 1.272 . S
O321 Co313 2.135 1_556 S
Co322 O323 2.216 1_556 S
Co322 O324 2.091 . S
Co322 O326 2.004 . S
Co322 O332 2.021 1_556 S
Co322 O334 2.137 . S
Co322 O335 2.244 . S
O323 Co322 2.216 1_554 S
O323 C330 1.247 . S
O324 Co322 2.091 . S
O324 C330 1.261 1_556 S
C325 O334 1.247 . S
C325 O335 1.272 . S
O326 Co322 2.004 . S
O326 C331 1.259 . S
Co327 O328 2.061 1_554 S
Co327 O333 2.052 . S
Co327 O335 2.135 1_554 S
O328 Co327 2.061 1_556 S
O328 C331 1.235 . S
C329 O332 1.238 . S
C329 O333 1.241 . S
C330 O323 1.247 . S
C330 O324 1.261 1_554 S
C331 O326 1.259 . S
C331 O328 1.235 . S
O332 Co322 2.021 1_554 S
O332 C329 1.238 . S
O333 Co327 2.052 . S
O333 C329 1.241 . S
O334 Co322 2.137 . S
O334 C325 1.247 . S
O335 Co322 2.244 . S
O335 C325 1.272 . S
O335 Co327 2.135 1_556 S
Co336 O337 2.216 . S
Co336 O338 2.091 . S
Co336 O340 2.004 . S
Co336 O346 2.021 . S
Co336 O348 2.137 . S
Co336 O349 2.244 . S
O337 Co336 2.216 . S
O337 C344 1.247 . S
O338 Co336 2.091 . S
O338 C344 1.261 . S
C339 O348 1.247 . S
C339 O349 1.272 . S
O340 Co336 2.004 . S
O340 C345 1.259 . S
Co341 O342 2.061 . S
Co341 O347 2.052 . S
Co341 O349 2.135 . S
O342 Co341 2.061 . S
O342 C345 1.235 . S
C343 O346 1.238 . S
C343 O347 1.241 . S
C344 O337 1.247 . S
C344 O338 1.261 . S
C345 O340 1.259 . S
C345 O342 1.235 . S
O346 Co336 2.021 . S
O346 C343 1.238 . S
O347 Co341 2.052 . S
O347 C343 1.241 . S
O348 Co336 2.137 . S
O348 C339 1.247 . S
O349 Co336 2.244 . S
O349 C339 1.272 . S
O349 Co341 2.135 . S
Co350 O351 2.216 . S
Co350 O352 2.091 . S
Co350 O354 2.004 . S
Co350 O360 2.021 . S
Co350 O362 2.137 . S
Co350 O363 2.244 . S
O351 Co350 2.216 . S
O351 C358 1.247 . S
O352 Co350 2.091 . S
O352 C358 1.261 . S
C353 O362 1.247 . S
C353 O363 1.272 . S
O354 Co350 2.004 . S
O354 C359 1.259 . S
Co355 O356 2.061 . S
Co355 O361 2.052 . S
Co355 O363 2.135 . S
O356 Co355 2.061 . S
O356 C359 1.235 . S
C357 O360 1.238 . S
C357 O361 1.241 . S
C358 O351 1.247 . S
C358 O352 1.261 . S
C359 O354 1.259 . S
C359 O356 1.235 . S
O360 Co350 2.021 . S
O360 C357 1.238 . S
O361 Co355 2.052 . S
O361 C357 1.241 . S
O362 Co350 2.137 . S
O362 C353 1.247 . S
O363 Co350 2.244 . S
O363 C353 1.272 . S
O363 Co355 2.135 . S
Co364 O365 2.216 . S
Co364 O366 2.091 . S
Co364 O368 2.004 . S
Co364 O374 2.021 . S
Co364 O376 2.137 . S
Co364 O377 2.244 . S
O365 Co364 2.216 . S
O365 C372 1.247 . S
O366 Co364 2.091 . S
O366 C372 1.261 . S
C367 O376 1.247 . S
C367 O377 1.272 . S
O368 Co364 2.004 . S
O368 C373 1.259 . S
Co369 O370 2.061 . S
Co369 O375 2.052 . S
Co369 O377 2.135 . S
O370 Co369 2.061 . S
O370 C373 1.235 . S
C371 O374 1.238 . S
C371 O375 1.241 . S
C372 O365 1.247 . S
C372 O366 1.261 . S
C373 O368 1.259 . S
C373 O370 1.235 . S
O374 Co364 2.021 . S
O374 C371 1.238 . S
O375 Co369 2.052 . S
O375 C371 1.241 . S
O376 Co364 2.137 . S
O376 C367 1.247 . S
O377 Co364 2.244 . S
O377 C367 1.272 . S
O377 Co369 2.135 . S
Co378 O379 2.216 1_554 S
Co378 O380 2.091 . S
Co378 O382 2.004 . S
Co378 O388 2.021 1_554 S
Co378 O390 2.137 . S
Co378 O391 2.244 . S
O379 Co378 2.216 1_556 S
O379 C386 1.247 . S
O380 Co378 2.091 . S
O380 C386 1.261 1_554 S
C381 O390 1.247 . S
C381 O391 1.272 . S
O382 Co378 2.004 . S
O382 C387 1.259 . S
Co383 O384 2.061 1_556 S
Co383 O389 2.052 . S
Co383 O391 2.135 1_556 S
O384 Co383 2.061 1_554 S
O384 C387 1.235 . S
C385 O388 1.238 . S
C385 O389 1.241 . S
C386 O379 1.247 . S
C386 O380 1.261 1_556 S
C387 O382 1.259 . S
C387 O384 1.235 . S
O388 Co378 2.021 1_556 S
O388 C385 1.238 . S
O389 Co383 2.052 . S
O389 C385 1.241 . S
O390 Co378 2.137 . S
O390 C381 1.247 . S
O391 Co378 2.244 . S
O391 C381 1.272 . S
O391 Co383 2.135 1_554 S
Co392 O393 2.216 1_554 S
Co392 O394 2.091 . S
Co392 O396 2.004 . S
Co392 O402 2.021 1_554 S
Co392 O404 2.137 . S
Co392 O405 2.244 . S
O393 Co392 2.216 1_556 S
O393 C400 1.247 . S
O394 Co392 2.091 . S
O394 C400 1.261 1_554 S
C395 O404 1.247 . S
C395 O405 1.272 . S
O396 Co392 2.004 . S
O396 C401 1.259 . S
Co397 O398 2.061 1_556 S
Co397 O403 2.052 . S
Co397 O405 2.135 1_556 S
O398 Co397 2.061 1_554 S
O398 C401 1.235 . S
C399 O402 1.238 . S
C399 O403 1.241 . S
C400 O393 1.247 . S
C400 O394 1.261 1_556 S
C401 O396 1.259 . S
C401 O398 1.235 . S
O402 Co392 2.021 1_556 S
O402 C399 1.238 . S
O403 Co397 2.052 . S
O403 C399 1.241 . S
O404 Co392 2.137 . S
O404 C395 1.247 . S
O405 Co392 2.244 . S
O405 C395 1.272 . S
O405 Co397 2.135 1_554 S
Co406 O407 2.216 1_554 S
Co406 O408 2.091 . S
Co406 O410 2.004 . S
Co406 O416 2.021 1_554 S
Co406 O418 2.137 . S
Co406 O419 2.244 . S
O407 Co406 2.216 1_556 S
O407 C414 1.247 . S
O408 Co406 2.091 . S
O408 C414 1.261 1_554 S
C409 O418 1.247 . S
C409 O419 1.272 . S
O410 Co406 2.004 . S
O410 C415 1.259 . S
Co411 O412 2.061 1_556 S
Co411 O417 2.052 . S
Co411 O419 2.135 1_556 S
O412 Co411 2.061 1_554 S
O412 C415 1.235 . S
C413 O416 1.238 . S
C413 O417 1.241 . S
C414 O407 1.247 . S
C414 O408 1.261 1_556 S
C415 O410 1.259 . S
C415 O412 1.235 . S
O416 Co406 2.021 1_556 S
O416 C413 1.238 . S
O417 Co411 2.052 . S
O417 C413 1.241 . S
O418 Co406 2.137 . S
O418 C409 1.247 . S
O419 Co406 2.244 . S
O419 C409 1.272 . S
O419 Co411 2.135 1_554 S
Co420 O421 2.216 . S
Co420 O422 2.091 . S
Co420 O424 2.004 . S
Co420 O430 2.021 . S
Co420 O432 2.137 . S
Co420 O433 2.244 . S
O421 Co420 2.216 . S
O421 C428 1.247 . S
O422 Co420 2.091 . S
O422 C428 1.261 . S
C423 O432 1.247 . S
C423 O433 1.272 . S
O424 Co420 2.004 . S
O424 C429 1.259 . S
Co425 O426 2.061 . S
Co425 O431 2.052 . S
Co425 O433 2.135 . S
O426 Co425 2.061 . S
O426 C429 1.235 . S
C427 O430 1.238 . S
C427 O431 1.241 . S
C428 O421 1.247 . S
C428 O422 1.261 . S
C429 O424 1.259 . S
C429 O426 1.235 . S
O430 Co420 2.021 . S
O430 C427 1.238 . S
O431 Co425 2.052 . S
O431 C427 1.241 . S
O432 Co420 2.137 . S
O432 C423 1.247 . S
O433 Co420 2.244 . S
O433 C423 1.272 . S
O433 Co425 2.135 . S
Co434 O435 2.216 . S
Co434 O436 2.091 . S
Co434 O438 2.004 . S
Co434 O444 2.021 . S
Co434 O446 2.137 . S
Co434 O447 2.244 . S
O435 Co434 2.216 . S
O435 C442 1.247 . S
O436 Co434 2.091 . S
O436 C442 1.261 . S
C437 O446 1.247 . S
C437 O447 1.272 . S
O438 Co434 2.004 . S
O438 C443 1.259 . S
Co439 O440 2.061 . S
Co439 O445 2.052 . S
Co439 O447 2.135 . S
O440 Co439 2.061 . S
O440 C443 1.235 . S
C441 O444 1.238 . S
C441 O445 1.241 . S
C442 O435 1.247 . S
C442 O436 1.261 . S
C443 O438 1.259 . S
C443 O440 1.235 . S
O444 Co434 2.021 . S
O444 C441 1.238 . S
O445 Co439 2.052 . S
O445 C441 1.241 . S
O446 Co434 2.137 . S
O446 C437 1.247 . S
O447 Co434 2.244 . S
O447 C437 1.272 . S
O447 Co439 2.135 . S
Co448 O449 2.216 . S
Co448 O450 2.091 . S
Co448 O452 2.004 . S
Co448 O458 2.021 . S
Co448 O460 2.137 . S
Co448 O461 2.244 . S
O449 Co448 2.216 . S
O449 C456 1.247 . S
O450 Co448 2.091 . S
O450 C456 1.261 . S
C451 O460 1.247 . S
C451 O461 1.272 . S
O452 Co448 2.004 . S
O452 C457 1.259 . S
Co453 O454 2.061 . S
Co453 O459 2.052 . S
Co453 O461 2.135 . S
O454 Co453 2.061 . S
O454 C457 1.235 . S
C455 O458 1.238 . S
C455 O459 1.241 . S
C456 O449 1.247 . S
C456 O450 1.261 . S
C457 O452 1.259 . S
C457 O454 1.235 . S
O458 Co448 2.021 . S
O458 C455 1.238 . S
O459 Co453 2.052 . S
O459 C455 1.241 . S
O460 Co448 2.137 . S
O460 C451 1.247 . S
O461 Co448 2.244 . S
O461 C451 1.272 . S
O461 Co453 2.135 . S
Co462 O463 2.216 . S
Co462 O464 2.091 . S
Co462 O466 2.004 . S
Co462 O472 2.021 . S
Co462 O474 2.137 . S
Co462 O475 2.244 . S
O463 Co462 2.216 . S
O463 C470 1.247 . S
O464 Co462 2.091 . S
O464 C470 1.261 . S
C465 O474 1.247 . S
C465 O475 1.272 . S
O466 Co462 2.004 . S
O466 C471 1.259 . S
Co467 O468 2.061 . S
Co467 O473 2.052 . S
Co467 O475 2.135 . S
O468 Co467 2.061 . S
O468 C471 1.235 . S
C469 O472 1.238 . S
C469 O473 1.241 . S
C470 O463 1.247 . S
C470 O464 1.261 . S
C471 O466 1.259 . S
C471 O468 1.235 . S
O472 Co462 2.021 . S
O472 C469 1.238 . S
O473 Co467 2.052 . S
O473 C469 1.241 . S
O474 Co462 2.137 . S
O474 C465 1.247 . S
O475 Co462 2.244 . S
O475 C465 1.272 . S
O475 Co467 2.135 . S
Co476 O477 2.216 . S
Co476 O478 2.091 . S
Co476 O480 2.004 . S
Co476 O486 2.021 . S
Co476 O488 2.137 . S
Co476 O489 2.244 . S
O477 Co476 2.216 . S
O477 C484 1.247 . S
O478 Co476 2.091 . S
O478 C484 1.261 . S
C479 O488 1.247 . S
C479 O489 1.272 . S
O480 Co476 2.004 . S
O480 C485 1.259 . S
Co481 O482 2.061 . S
Co481 O487 2.052 . S
Co481 O489 2.135 . S
O482 Co481 2.061 . S
O482 C485 1.235 . S
C483 O486 1.238 . S
C483 O487 1.241 . S
C484 O477 1.247 . S
C484 O478 1.261 . S
C485 O480 1.259 . S
C485 O482 1.235 . S
O486 Co476 2.021 . S
O486 C483 1.238 . S
O487 Co481 2.052 . S
O487 C483 1.241 . S
O488 Co476 2.137 . S
O488 C479 1.247 . S
O489 Co476 2.244 . S
O489 C479 1.272 . S
O489 Co481 2.135 . S
Co490 O491 2.216 . S
Co490 O492 2.091 . S
Co490 O494 2.004 . S
Co490 O500 2.021 . S
Co490 O502 2.137 . S
Co490 O503 2.244 . S
O491 Co490 2.216 . S
O491 C498 1.247 . S
O492 Co490 2.091 . S
O492 C498 1.261 . S
C493 O502 1.247 . S
C493 O503 1.272 . S
O494 Co490 2.004 . S
O494 C499 1.259 . S
Co495 O496 2.061 . S
Co495 O501 2.052 . S
Co495 O503 2.135 . S
O496 Co495 2.061 . S
O496 C499 1.235 . S
C497 O500 1.238 . S
C497 O501 1.241 . S
C498 O491 1.247 . S
C498 O492 1.261 . S
C499 O494 1.259 . S
C499 O496 1.235 . S
O500 Co490 2.021 . S
O500 C497 1.238 . S
O501 Co495 2.052 . S
O501 C497 1.241 . S
O502 Co490 2.137 . S
O502 C493 1.247 . S
O503 Co490 2.244 . S
O503 C493 1.272 . S
O503 Co495 2.135 . S
C504 C505 1.363 . S
C504 C510 1.379 . S
C504 N512 1.356 . S
C505 C504 1.363 . S
C505 C511 1.363 . S
C506 C507 1.363 . S
C506 C511 1.379 . S
C506 N513 1.356 . S
C507 C506 1.363 . S
C507 C510 1.363 . S
N508 C510 1.356 . S
N508 H520 0.984 . S
N508 H521 0.985 . S
N509 C511 1.356 . S
N509 H514 0.984 . S
N509 H515 0.985 . S
C510 C504 1.379 . S
C510 C507 1.363 . S
C510 N508 1.356 . S
C511 C505 1.363 . S
C511 C506 1.379 . S
C511 N509 1.356 . S
N512 C504 1.356 . S
N512 H518 0.984 . S
N512 H519 0.984 . S
N513 C506 1.356 . S
N513 H516 0.984 . S
N513 H517 0.985 . S
H514 N509 0.984 . S
H515 N509 0.985 . S
H516 N513 0.984 . S
H517 N513 0.985 . S
H518 N512 0.984 . S
H519 N512 0.984 . S
H520 N508 0.984 . S
H521 N508 0.985 . S
C522 C523 1.363 . S
C522 C528 1.379 1_545 S
C522 N530 1.356 . S
C523 C522 1.363 . S
C523 C529 1.363 . S
C524 C525 1.363 . S
C524 C529 1.379 1_565 S
C524 N531 1.356 . S
C525 C524 1.363 . S
C525 C528 1.363 . S
N526 C528 1.356 . S
N526 H538 0.984 . S
N526 H539 0.985 . S
N527 C529 1.356 . S
N527 H532 0.984 . S
N527 H533 0.985 . S
C528 C522 1.379 1_565 S
C528 C525 1.363 . S
C528 N526 1.356 . S
C529 C523 1.363 . S
C529 C524 1.379 1_545 S
C529 N527 1.356 . S
N530 C522 1.356 . S
N530 H536 0.984 . S
N530 H537 0.984 . S
N531 C524 1.356 . S
N531 H534 0.984 . S
N531 H535 0.985 . S
H532 N527 0.984 . S
H533 N527 0.985 . S
H534 N531 0.984 . S
H535 N531 0.985 . S
H536 N530 0.984 . S
H537 N530 0.984 . S
H538 N526 0.984 . S
H539 N526 0.985 . S
C540 C541 1.363 . S
C540 C546 1.379 1_655 S
C540 N548 1.356 . S
C541 C540 1.363 . S
C541 C547 1.363 . S
C542 C543 1.363 . S
C542 C547 1.379 1_455 S
C542 N549 1.356 . S
C543 C542 1.363 . S
C543 C546 1.363 . S
N544 C546 1.356 . S
N544 H556 0.984 . S
N544 H557 0.985 . S
N545 C547 1.356 . S
N545 H550 0.984 . S
N545 H551 0.985 . S
C546 C540 1.379 1_455 S
C546 C543 1.363 . S
C546 N544 1.356 . S
C547 C541 1.363 . S
C547 C542 1.379 1_655 S
C547 N545 1.356 . S
N548 C540 1.356 . S
N548 H554 0.984 . S
N548 H555 0.984 . S
N549 C542 1.356 . S
N549 H552 0.984 . S
N549 H553 0.985 . S
H550 N545 0.984 . S
H551 N545 0.985 . S
H552 N549 0.984 . S
H553 N549 0.985 . S
H554 N548 0.984 . S
H555 N548 0.984 . S
H556 N544 0.984 . S
H557 N544 0.985 . S
C558 C559 1.363 . S
C558 C564 1.379 . S
C558 N566 1.356 . S
C559 C558 1.363 . S
C559 C565 1.363 . S
C560 C561 1.363 . S
C560 C565 1.379 . S
C560 N567 1.356 . S
C561 C560 1.363 . S
C561 C564 1.363 . S
N562 C564 1.356 . S
N562 H574 0.984 . S
N562 H575 0.985 . S
N563 C565 1.356 . S
N563 H568 0.984 . S
N563 H569 0.985 . S
C564 C558 1.379 . S
C564 C561 1.363 . S
C564 N562 1.356 . S
C565 C559 1.363 . S
C565 C560 1.379 . S
C565 N563 1.356 . S
N566 C558 1.356 . S
N566 H572 0.984 . S
N566 H573 0.984 . S
N567 C560 1.356 . S
N567 H570 0.984 . S
N567 H571 0.985 . S
H568 N563 0.984 . S
H569 N563 0.985 . S
H570 N567 0.984 . S
H571 N567 0.985 . S
H572 N566 0.984 . S
H573 N566 0.984 . S
H574 N562 0.984 . S
H575 N562 0.985 . S
C576 C577 1.363 . S
C576 C582 1.379 1_545 S
C576 N584 1.356 . S
C577 C576 1.363 . S
C577 C583 1.363 . S
C578 C579 1.363 . S
C578 C583 1.379 1_565 S
C578 N585 1.356 . S
C579 C578 1.363 . S
C579 C582 1.363 . S
N580 C582 1.356 . S
N580 H592 0.984 . S
N580 H593 0.985 . S
N581 C583 1.356 . S
N581 H586 0.984 . S
N581 H587 0.985 . S
C582 C576 1.379 1_565 S
C582 C579 1.363 . S
C582 N580 1.356 . S
C583 C577 1.363 . S
C583 C578 1.379 1_545 S
C583 N581 1.356 . S
N584 C576 1.356 . S
N584 H590 0.984 . S
N584 H591 0.984 . S
N585 C578 1.356 . S
N585 H588 0.984 . S
N585 H589 0.985 . S
H586 N581 0.984 . S
H587 N581 0.985 . S
H588 N585 0.984 . S
H589 N585 0.985 . S
H590 N584 0.984 . S
H591 N584 0.984 . S
H592 N580 0.984 . S
H593 N580 0.985 . S
C594 C595 1.363 . S
C594 C600 1.379 1_455 S
C594 N602 1.356 . S
C595 C594 1.363 . S
C595 C601 1.363 . S
C596 C597 1.363 . S
C596 C601 1.379 1_655 S
C596 N603 1.356 . S
C597 C596 1.363 . S
C597 C600 1.363 . S
N598 C600 1.356 . S
N598 H610 0.984 . S
N598 H611 0.985 . S
N599 C601 1.356 . S
N599 H604 0.984 . S
N599 H605 0.985 . S
C600 C594 1.379 1_655 S
C600 C597 1.363 . S
C600 N598 1.356 . S
C601 C595 1.363 . S
C601 C596 1.379 1_455 S
C601 N599 1.356 . S
N602 C594 1.356 . S
N602 H608 0.984 . S
N602 H609 0.984 . S
N603 C596 1.356 . S
N603 H606 0.984 . S
N603 H607 0.985 . S
H604 N599 0.984 . S
H605 N599 0.985 . S
H606 N603 0.984 . S
H607 N603 0.985 . S
H608 N602 0.984 . S
H609 N602 0.984 . S
H610 N598 0.984 . S
H611 N598 0.985 . S
C612 C613 1.363 . S
C612 C618 1.379 . S
C612 N620 1.356 . S
C613 C612 1.363 . S
C613 C619 1.363 . S
C614 C615 1.363 . S
C614 C619 1.379 . S
C614 N621 1.356 . S
C615 C614 1.363 . S
C615 C618 1.363 . S
N616 C618 1.356 . S
N616 H628 0.984 . S
N616 H629 0.985 . S
N617 C619 1.356 . S
N617 H622 0.984 . S
N617 H623 0.985 . S
C618 C612 1.379 . S
C618 C615 1.363 . S
C618 N616 1.356 . S
C619 C613 1.363 . S
C619 C614 1.379 . S
C619 N617 1.356 . S
N620 C612 1.356 . S
N620 H626 0.984 . S
N620 H627 0.984 . S
N621 C614 1.356 . S
N621 H624 0.984 . S
N621 H625 0.985 . S
H622 N617 0.984 . S
H623 N617 0.985 . S
H624 N621 0.984 . S
H625 N621 0.985 . S
H626 N620 0.984 . S
H627 N620 0.984 . S
H628 N616 0.984 . S
H629 N616 0.985 . S
C630 C631 1.363 . S
C630 C636 1.379 . S
C630 N638 1.356 . S
C631 C630 1.363 . S
C631 C637 1.363 . S
C632 C633 1.363 . S
C632 C637 1.379 . S
C632 N639 1.356 . S
C633 C632 1.363 . S
C633 C636 1.363 . S
N634 C636 1.356 . S
N634 H646 0.984 . S
N634 H647 0.985 . S
N635 C637 1.356 . S
N635 H640 0.984 . S
N635 H641 0.985 . S
C636 C630 1.379 . S
C636 C633 1.363 . S
C636 N634 1.356 . S
C637 C631 1.363 . S
C637 C632 1.379 . S
C637 N635 1.356 . S
N638 C630 1.356 . S
N638 H644 0.984 . S
N638 H645 0.984 . S
N639 C632 1.356 . S
N639 H642 0.984 . S
N639 H643 0.985 . S
H640 N635 0.984 . S
H641 N635 0.985 . S
H642 N639 0.984 . S
H643 N639 0.985 . S
H644 N638 0.984 . S
H645 N638 0.984 . S
H646 N634 0.984 . S
H647 N634 0.985 . S
C648 C649 1.363 . S
C648 C654 1.379 . S
C648 N656 1.356 . S
C649 C648 1.363 . S
C649 C655 1.363 . S
C650 C651 1.363 . S
C650 C655 1.379 . S
C650 N657 1.356 . S
C651 C650 1.363 . S
C651 C654 1.363 . S
N652 C654 1.356 . S
N652 H664 0.984 . S
N652 H665 0.985 . S
N653 C655 1.356 . S
N653 H658 0.984 . S
N653 H659 0.985 . S
C654 C648 1.379 . S
C654 C651 1.363 . S
C654 N652 1.356 . S
C655 C649 1.363 . S
C655 C650 1.379 . S
C655 N653 1.356 . S
N656 C648 1.356 . S
N656 H662 0.984 . S
N656 H663 0.984 . S
N657 C650 1.356 . S
N657 H660 0.984 . S
N657 H661 0.985 . S
H658 N653 0.984 . S
H659 N653 0.985 . S
H660 N657 0.984 . S
H661 N657 0.985 . S
H662 N656 0.984 . S
H663 N656 0.984 . S
H664 N652 0.984 . S
H665 N652 0.985 . S
C666 C667 1.363 . S
C666 C672 1.379 . S
C666 N674 1.356 . S
C667 C666 1.363 . S
C667 C673 1.363 . S
C668 C669 1.363 . S
C668 C673 1.379 . S
C668 N675 1.356 1_554 S
C669 C668 1.363 . S
C669 C672 1.363 . S
N670 C672 1.356 . S
N670 H682 0.984 . S
N670 H683 0.985 . S
N671 C673 1.356 . S
N671 H676 0.984 . S
N671 H677 0.985 1_554 S
C672 C666 1.379 . S
C672 C669 1.363 . S
C672 N670 1.356 . S
C673 C667 1.363 . S
C673 C668 1.379 . S
C673 N671 1.356 . S
N674 C666 1.356 . S
N674 H680 0.984 . S
N674 H681 0.984 . S
N675 C668 1.356 1_556 S
N675 H678 0.984 . S
N675 H679 0.985 . S
H676 N671 0.984 . S
H677 N671 0.985 1_556 S
H678 N675 0.984 . S
H679 N675 0.985 . S
H680 N674 0.984 . S
H681 N674 0.984 . S
H682 N670 0.984 . S
H683 N670 0.985 . S
C684 C685 1.363 . S
C684 C690 1.379 . S
C684 N692 1.356 1_554 S
C685 C684 1.363 . S
C685 C691 1.363 . S
C686 C687 1.363 . S
C686 C691 1.379 . S
C686 N693 1.356 . S
C687 C686 1.363 . S
C687 C690 1.363 . S
N688 C690 1.356 . S
N688 H700 0.984 1_554 S
N688 H701 0.985 . S
N689 C691 1.356 . S
N689 H694 0.984 . S
N689 H695 0.985 . S
C690 C684 1.379 . S
C690 C687 1.363 . S
C690 N688 1.356 . S
C691 C685 1.363 . S
C691 C686 1.379 . S
C691 N689 1.356 . S
N692 C684 1.356 1_556 S
N692 H698 0.984 . S
N692 H699 0.984 . S
N693 C686 1.356 . S
N693 H696 0.984 . S
N693 H697 0.985 . S
H694 N689 0.984 . S
H695 N689 0.985 . S
H696 N693 0.984 . S
H697 N693 0.985 . S
H698 N692 0.984 . S
H699 N692 0.984 . S
H700 N688 0.984 1_556 S
H701 N688 0.985 . S
C702 C703 1.363 . S
C702 C708 1.379 . S
C702 N710 1.356 . S
C703 C702 1.363 . S
C703 C709 1.363 . S
C704 C705 1.363 . S
C704 C709 1.379 . S
C704 N711 1.356 1_554 S
C705 C704 1.363 . S
C705 C708 1.363 . S
N706 C708 1.356 . S
N706 H718 0.984 . S
N706 H719 0.985 . S
N707 C709 1.356 . S
N707 H712 0.984 . S
N707 H713 0.985 1_554 S
C708 C702 1.379 . S
C708 C705 1.363 . S
C708 N706 1.356 . S
C709 C703 1.363 . S
C709 C704 1.379 . S
C709 N707 1.356 . S
N710 C702 1.356 . S
N710 H716 0.984 . S
N710 H717 0.984 . S
N711 C704 1.356 1_556 S
N711 H714 0.984 . S
N711 H715 0.985 . S
H712 N707 0.984 . S
H713 N707 0.985 1_556 S
H714 N711 0.984 . S
H715 N711 0.985 . S
H716 N710 0.984 . S
H717 N710 0.984 . S
H718 N706 0.984 . S
H719 N706 0.985 . S
C720 C721 1.363 . S
C720 C726 1.379 . S
C720 N728 1.356 . S
C721 C720 1.363 . S
C721 C727 1.363 . S
C722 C723 1.363 . S
C722 C727 1.379 . S
C722 N729 1.356 1_556 S
C723 C722 1.363 . S
C723 C726 1.363 . S
N724 C726 1.356 . S
N724 H736 0.984 . S
N724 H737 0.985 . S
N725 C727 1.356 . S
N725 H730 0.984 . S
N725 H731 0.985 1_556 S
C726 C720 1.379 . S
C726 C723 1.363 . S
C726 N724 1.356 . S
C727 C721 1.363 . S
C727 C722 1.379 . S
C727 N725 1.356 . S
N728 C720 1.356 . S
N728 H734 0.984 . S
N728 H735 0.984 . S
N729 C722 1.356 1_554 S
N729 H732 0.984 . S
N729 H733 0.985 . S
H730 N725 0.984 . S
H731 N725 0.985 1_554 S
H732 N729 0.984 . S
H733 N729 0.985 . S
H734 N728 0.984 . S
H735 N728 0.984 . S
H736 N724 0.984 . S
H737 N724 0.985 . S
C738 C739 1.363 . S
C738 C744 1.379 . S
C738 N746 1.356 . S
C739 C738 1.363 . S
C739 C745 1.363 . S
C740 C741 1.363 . S
C740 C745 1.379 . S
C740 N747 1.356 1_556 S
C741 C740 1.363 . S
C741 C744 1.363 . S
N742 C744 1.356 . S
N742 H754 0.984 . S
N742 H755 0.985 . S
N743 C745 1.356 . S
N743 H748 0.984 . S
N743 H749 0.985 1_556 S
C744 C738 1.379 . S
C744 C741 1.363 . S
C744 N742 1.356 . S
C745 C739 1.363 . S
C745 C740 1.379 . S
C745 N743 1.356 . S
N746 C738 1.356 . S
N746 H752 0.984 . S
N746 H753 0.984 . S
N747 C740 1.356 1_554 S
N747 H750 0.984 . S
N747 H751 0.985 . S
H748 N743 0.984 . S
H749 N743 0.985 1_554 S
H750 N747 0.984 . S
H751 N747 0.985 . S
H752 N746 0.984 . S
H753 N746 0.984 . S
H754 N742 0.984 . S
H755 N742 0.985 . S
C756 C757 1.363 . S
C756 C762 1.379 . S
C756 N764 1.356 . S
C757 C756 1.363 . S
C757 C763 1.363 . S
C758 C759 1.363 . S
C758 C763 1.379 . S
C758 N765 1.356 . S
C759 C758 1.363 . S
C759 C762 1.363 . S
N760 C762 1.356 . S
N760 H772 0.984 . S
N760 H773 0.985 . S
N761 C763 1.356 1_554 S
N761 H766 0.984 . S
N761 H767 0.985 . S
C762 C756 1.379 . S
C762 C759 1.363 . S
C762 N760 1.356 . S
C763 C757 1.363 . S
C763 C758 1.379 . S
C763 N761 1.356 1_556 S
N764 C756 1.356 . S
N764 H770 0.984 . S
N764 H771 0.984 . S
N765 C758 1.356 . S
N765 H768 0.984 . S
N765 H769 0.985 1_556 S
H766 N761 0.984 . S
H767 N761 0.985 . S
H768 N765 0.984 . S
H769 N765 0.985 1_554 S
H770 N764 0.984 . S
H771 N764 0.984 . S
H772 N760 0.984 . S
H773 N760 0.985 . S
C774 C775 1.363 . S
C774 C780 1.379 . S
C774 N782 1.356 . S
C775 C774 1.363 . S
C775 C781 1.363 . S
C776 C777 1.363 . S
C776 C781 1.379 . S
C776 N783 1.356 . S
C777 C776 1.363 . S
C777 C780 1.363 . S
N778 C780 1.356 . S
N778 H790 0.984 . S
N778 H791 0.985 . S
N779 C781 1.356 . S
N779 H784 0.984 . S
N779 H785 0.985 . S
C780 C774 1.379 . S
C780 C777 1.363 . S
C780 N778 1.356 . S
C781 C775 1.363 . S
C781 C776 1.379 . S
C781 N779 1.356 . S
N782 C774 1.356 . S
N782 H788 0.984 . S
N782 H789 0.984 . S
N783 C776 1.356 . S
N783 H786 0.984 . S
N783 H787 0.985 . S
H784 N779 0.984 . S
H785 N779 0.985 . S
H786 N783 0.984 . S
H787 N783 0.985 . S
H788 N782 0.984 . S
H789 N782 0.984 . S
H790 N778 0.984 . S
H791 N778 0.985 . S
C792 C793 1.363 . S
C792 C798 1.379 . S
C792 N800 1.356 . S
C793 C792 1.363 . S
C793 C799 1.363 . S
C794 C795 1.363 . S
C794 C799 1.379 . S
C794 N801 1.356 . S
C795 C794 1.363 . S
C795 C798 1.363 . S
N796 C798 1.356 . S
N796 H808 0.984 . S
N796 H809 0.985 . S
N797 C799 1.356 . S
N797 H802 0.984 . S
N797 H803 0.985 . S
C798 C792 1.379 . S
C798 C795 1.363 . S
C798 N796 1.356 . S
C799 C793 1.363 . S
C799 C794 1.379 . S
C799 N797 1.356 . S
N800 C792 1.356 . S
N800 H806 0.984 . S
N800 H807 0.984 . S
N801 C794 1.356 . S
N801 H804 0.984 . S
N801 H805 0.985 . S
H802 N797 0.984 . S
H803 N797 0.985 . S
H804 N801 0.984 . S
H805 N801 0.985 . S
H806 N800 0.984 . S
H807 N800 0.984 . S
H808 N796 0.984 . S
H809 N796 0.985 . S
C810 C811 1.363 . S
C810 C816 1.379 . S
C810 N818 1.356 . S
C811 C810 1.363 . S
C811 C817 1.363 . S
C812 C813 1.363 . S
C812 C817 1.379 . S
C812 N819 1.356 . S
C813 C812 1.363 . S
C813 C816 1.363 . S
N814 C816 1.356 . S
N814 H826 0.984 . S
N814 H827 0.985 . S
N815 C817 1.356 . S
N815 H820 0.984 . S
N815 H821 0.985 . S
C816 C810 1.379 . S
C816 C813 1.363 . S
C816 N814 1.356 . S
C817 C811 1.363 . S
C817 C812 1.379 . S
C817 N815 1.356 . S
N818 C810 1.356 . S
N818 H824 0.984 . S
N818 H825 0.984 . S
N819 C812 1.356 . S
N819 H822 0.984 . S
N819 H823 0.985 . S
H820 N815 0.984 . S
H821 N815 0.985 . S
H822 N819 0.984 . S
H823 N819 0.985 . S
H824 N818 0.984 . S
H825 N818 0.984 . S
H826 N814 0.984 . S
H827 N814 0.985 . S
C828 C829 1.363 . S
C828 C834 1.379 . S
C828 N836 1.356 . S
C829 C828 1.363 . S
C829 C835 1.363 . S
C830 C831 1.363 . S
C830 C835 1.379 . S
C830 N837 1.356 1_556 S
C831 C830 1.363 . S
C831 C834 1.363 . S
N832 C834 1.356 . S
N832 H844 0.984 . S
N832 H845 0.985 . S
N833 C835 1.356 . S
N833 H838 0.984 . S
N833 H839 0.985 . S
C834 C828 1.379 . S
C834 C831 1.363 . S
C834 N832 1.356 . S
C835 C829 1.363 . S
C835 C830 1.379 . S
C835 N833 1.356 . S
N836 C828 1.356 . S
N836 H842 0.984 . S
N836 H843 0.984 . S
N837 C830 1.356 1_554 S
N837 H840 0.984 . S
N837 H841 0.985 . S
H838 N833 0.984 . S
H839 N833 0.985 . S
H840 N837 0.984 . S
H841 N837 0.985 . S
H842 N836 0.984 . S
H843 N836 0.984 . S
H844 N832 0.984 . S
H845 N832 0.985 . S
C846 C847 1.363 . S
C846 C852 1.379 . S
C846 N854 1.356 . S
C847 C846 1.363 . S
C847 C853 1.363 . S
C848 C849 1.363 . S
C848 C853 1.379 . S
C848 N855 1.356 . S
C849 C848 1.363 . S
C849 C852 1.363 . S
N850 C852 1.356 . S
N850 H862 0.984 . S
N850 H863 0.985 . S
N851 C853 1.356 . S
N851 H856 0.984 . S
N851 H857 0.985 . S
C852 C846 1.379 . S
C852 C849 1.363 . S
C852 N850 1.356 . S
C853 C847 1.363 . S
C853 C848 1.379 . S
C853 N851 1.356 . S
N854 C846 1.356 . S
N854 H860 0.984 . S
N854 H861 0.984 1_556 S
N855 C848 1.356 . S
N855 H858 0.984 . S
N855 H859 0.985 . S
H856 N851 0.984 . S
H857 N851 0.985 . S
H858 N855 0.984 . S
H859 N855 0.985 . S
H860 N854 0.984 . S
H861 N854 0.984 1_554 S
H862 N850 0.984 . S
H863 N850 0.985 . S
C864 C865 1.363 . S
C864 C870 1.379 . S
C864 N872 1.356 1_556 S
C865 C864 1.363 . S
C865 C871 1.363 . S
C866 C867 1.363 . S
C866 C871 1.379 . S
C866 N873 1.356 . S
C867 C866 1.363 . S
C867 C870 1.363 . S
N868 C870 1.356 . S
N868 H880 0.984 . S
N868 H881 0.985 . S
N869 C871 1.356 . S
N869 H874 0.984 . S
N869 H875 0.985 . S
C870 C864 1.379 . S
C870 C867 1.363 . S
C870 N868 1.356 . S
C871 C865 1.363 . S
C871 C866 1.379 . S
C871 N869 1.356 . S
N872 C864 1.356 1_554 S
N872 H878 0.984 . S
N872 H879 0.984 . S
N873 C866 1.356 . S
N873 H876 0.984 . S
N873 H877 0.985 . S
H874 N869 0.984 . S
H875 N869 0.985 . S
H876 N873 0.984 . S
H877 N873 0.985 . S
H878 N872 0.984 . S
H879 N872 0.984 . S
H880 N868 0.984 . S
H881 N868 0.985 . S
C882 C883 1.363 . S
C882 C888 1.379 . S
C882 N890 1.356 . S
C883 C882 1.363 . S
C883 C889 1.363 . S
C884 C885 1.363 . S
C884 C889 1.379 . S
C884 N891 1.356 . S
C885 C884 1.363 . S
C885 C888 1.363 . S
N886 C888 1.356 . S
N886 H898 0.984 . S
N886 H899 0.985 . S
N887 C889 1.356 . S
N887 H892 0.984 . S
N887 H893 0.985 . S
C888 C882 1.379 . S
C888 C885 1.363 . S
C888 N886 1.356 . S
C889 C883 1.363 . S
C889 C884 1.379 . S
C889 N887 1.356 . S
N890 C882 1.356 . S
N890 H896 0.984 . S
N890 H897 0.984 . S
N891 C884 1.356 . S
N891 H894 0.984 . S
N891 H895 0.985 . S
H892 N887 0.984 . S
H893 N887 0.985 . S
H894 N891 0.984 . S
H895 N891 0.985 . S
H896 N890 0.984 . S
H897 N890 0.984 . S
H898 N886 0.984 . S
H899 N886 0.985 . S
C900 C901 1.363 . S
C900 C906 1.379 . S
C900 N908 1.356 . S
C901 C900 1.363 . S
C901 C907 1.363 . S
C902 C903 1.363 . S
C902 C907 1.379 . S
C902 N909 1.356 . S
C903 C902 1.363 . S
C903 C906 1.363 . S
N904 C906 1.356 . S
N904 H916 0.984 . S
N904 H917 0.985 . S
N905 C907 1.356 . S
N905 H910 0.984 . S
N905 H911 0.985 . S
C906 C900 1.379 . S
C906 C903 1.363 . S
C906 N904 1.356 . S
C907 C901 1.363 . S
C907 C902 1.379 . S
C907 N905 1.356 . S
N908 C900 1.356 . S
N908 H914 0.984 . S
N908 H915 0.984 . S
N909 C902 1.356 . S
N909 H912 0.984 . S
N909 H913 0.985 . S
H910 N905 0.984 . S
H911 N905 0.985 . S
H912 N909 0.984 . S
H913 N909 0.985 . S
H914 N908 0.984 . S
H915 N908 0.984 . S
H916 N904 0.984 . S
H917 N904 0.985 . S
C918 C919 1.363 . S
C918 C924 1.379 . S
C918 N926 1.356 . S
C919 C918 1.363 . S
C919 C925 1.363 . S
C920 C921 1.363 . S
C920 C925 1.379 . S
C920 N927 1.356 . S
C921 C920 1.363 . S
C921 C924 1.363 . S
N922 C924 1.356 . S
N922 H934 0.984 . S
N922 H935 0.985 . S
N923 C925 1.356 . S
N923 H928 0.984 . S
N923 H929 0.985 . S
C924 C918 1.379 . S
C924 C921 1.363 . S
C924 N922 1.356 . S
C925 C919 1.363 . S
C925 C920 1.379 . S
C925 N923 1.356 . S
N926 C918 1.356 . S
N926 H932 0.984 . S
N926 H933 0.984 . S
N927 C920 1.356 . S
N927 H930 0.984 . S
N927 H931 0.985 . S
H928 N923 0.984 . S
H929 N923 0.985 . S
H930 N927 0.984 . S
H931 N927 0.985 . S
H932 N926 0.984 . S
H933 N926 0.984 . S
H934 N922 0.984 . S
H935 N922 0.985 . S
C936 C937 1.363 . S
C936 C942 1.379 . S
C936 N944 1.356 1_554 S
C937 C936 1.363 . S
C937 C943 1.363 . S
C938 C939 1.363 . S
C938 C943 1.379 . S
C938 N945 1.356 . S
C939 C938 1.363 . S
C939 C942 1.363 . S
N940 C942 1.356 . S
N940 H952 0.984 . S
N940 H953 0.985 . S
N941 C943 1.356 . S
N941 H946 0.984 . S
N941 H947 0.985 . S
C942 C936 1.379 . S
C942 C939 1.363 . S
C942 N940 1.356 . S
C943 C937 1.363 . S
C943 C938 1.379 . S
C943 N941 1.356 . S
N944 C936 1.356 1_556 S
N944 H950 0.984 . S
N944 H951 0.984 . S
N945 C938 1.356 . S
N945 H948 0.984 . S
N945 H949 0.985 . S
H946 N941 0.984 . S
H947 N941 0.985 . S
H948 N945 0.984 . S
H949 N945 0.985 . S
H950 N944 0.984 . S
H951 N944 0.984 . S
H952 N940 0.984 . S
H953 N940 0.985 . S
C954 C955 1.363 . S
C954 C960 1.379 . S
C954 N962 1.356 . S
C955 C954 1.363 . S
C955 C961 1.363 . S
C956 C957 1.363 . S
C956 C961 1.379 . S
C956 N963 1.356 . S
C957 C956 1.363 . S
C957 C960 1.363 . S
N958 C960 1.356 . S
N958 H970 0.984 . S
N958 H971 0.985 . S
N959 C961 1.356 1_556 S
N959 H964 0.984 . S
N959 H965 0.985 . S
C960 C954 1.379 . S
C960 C957 1.363 . S
C960 N958 1.356 . S
C961 C955 1.363 . S
C961 C956 1.379 . S
C961 N959 1.356 1_554 S
N962 C954 1.356 . S
N962 H968 0.984 . S
N962 H969 0.984 . S
N963 C956 1.356 . S
N963 H966 0.984 . S
N963 H967 0.985 . S
H964 N959 0.984 . S
H965 N959 0.985 . S
H966 N963 0.984 . S
H967 N963 0.985 . S
H968 N962 0.984 . S
H969 N962 0.984 . S
H970 N958 0.984 . S
H971 N958 0.985 . S
C972 C973 1.363 . S
C972 C978 1.379 . S
C972 N980 1.356 . S
C973 C972 1.363 . S
C973 C979 1.363 . S
C974 C975 1.363 . S
C974 C979 1.379 . S
C974 N981 1.356 1_554 S
C975 C974 1.363 . S
C975 C978 1.363 . S
N976 C978 1.356 . S
N976 H988 0.984 . S
N976 H989 0.985 . S
N977 C979 1.356 . S
N977 H982 0.984 . S
N977 H983 0.985 . S
C978 C972 1.379 . S
C978 C975 1.363 . S
C978 N976 1.356 . S
C979 C973 1.363 . S
C979 C974 1.379 . S
C979 N977 1.356 . S
N980 C972 1.356 . S
N980 H986 0.984 . S
N980 H987 0.984 . S
N981 C974 1.356 1_556 S
N981 H984 0.984 . S
N981 H985 0.985 . S
H982 N977 0.984 . S
H983 N977 0.985 . S
H984 N981 0.984 . S
H985 N981 0.985 . S
H986 N980 0.984 . S
H987 N980 0.984 . S
H988 N976 0.984 . S
H989 N976 0.985 . S
C990 C991 1.363 . S
C990 C996 1.379 . S
C990 N998 1.356 . S
C991 C990 1.363 . S
C991 C997 1.363 . S
C992 C993 1.363 . S
C992 C997 1.379 . S
C992 N999 1.356 . S
C993 C992 1.363 . S
C993 C996 1.363 . S
N994 C996 1.356 . S
N994 H1006 0.984 . S
N994 H1007 0.985 . S
N995 C997 1.356 . S
N995 H1000 0.984 . S
N995 H1001 0.985 . S
C996 C990 1.379 . S
C996 C993 1.363 . S
C996 N994 1.356 . S
C997 C991 1.363 . S
C997 C992 1.379 . S
C997 N995 1.356 . S
N998 C990 1.356 . S
N998 H1004 0.984 . S
N998 H1005 0.984 . S
N999 C992 1.356 . S
N999 H1002 0.984 . S
N999 H1003 0.985 . S
H1000 N995 0.984 . S
H1001 N995 0.985 . S
H1002 N999 0.984 . S
H1003 N999 0.985 . S
H1004 N998 0.984 . S
H1005 N998 0.984 . S
H1006 N994 0.984 . S
H1007 N994 0.985 . S
C1008 C1009 1.363 . S
C1008 C1014 1.379 . S
C1008 N1016 1.356 . S
C1009 C1008 1.363 . S
C1009 C1015 1.363 . S
C1010 C1011 1.363 . S
C1010 C1015 1.379 . S
C1010 N1017 1.356 . S
C1011 C1010 1.363 . S
C1011 C1014 1.363 . S
N1012 C1014 1.356 . S
N1012 H1024 0.984 . S
N1012 H1025 0.985 . S
N1013 C1015 1.356 . S
N1013 H1018 0.984 . S
N1013 H1019 0.985 . S
C1014 C1008 1.379 . S
C1014 C1011 1.363 . S
C1014 N1012 1.356 . S
C1015 C1009 1.363 . S
C1015 C1010 1.379 . S
C1015 N1013 1.356 . S
N1016 C1008 1.356 . S
N1016 H1022 0.984 . S
N1016 H1023 0.984 . S
N1017 C1010 1.356 . S
N1017 H1020 0.984 . S
N1017 H1021 0.985 . S
H1018 N1013 0.984 . S
H1019 N1013 0.985 . S
H1020 N1017 0.984 . S
H1021 N1017 0.985 . S
H1022 N1016 0.984 . S
H1023 N1016 0.984 . S
H1024 N1012 0.984 . S
H1025 N1012 0.985 . S
C1026 C1027 1.363 . S
C1026 C1032 1.379 . S
C1026 N1034 1.356 . S
C1027 C1026 1.363 . S
C1027 C1033 1.363 . S
C1028 C1029 1.363 . S
C1028 C1033 1.379 . S
C1028 N1035 1.356 . S
C1029 C1028 1.363 . S
C1029 C1032 1.363 . S
N1030 C1032 1.356 . S
N1030 H1042 0.984 . S
N1030 H1043 0.985 . S
N1031 C1033 1.356 . S
N1031 H1036 0.984 . S
N1031 H1037 0.985 . S
C1032 C1026 1.379 . S
C1032 C1029 1.363 . S
C1032 N1030 1.356 . S
C1033 C1027 1.363 . S
C1033 C1028 1.379 . S
C1033 N1031 1.356 . S
N1034 C1026 1.356 . S
N1034 H1040 0.984 . S
N1034 H1041 0.984 . S
N1035 C1028 1.356 . S
N1035 H1038 0.984 . S
N1035 H1039 0.985 . S
H1036 N1031 0.984 . S
H1037 N1031 0.985 . S
H1038 N1035 0.984 . S
H1039 N1035 0.985 . S
H1040 N1034 0.984 . S
H1041 N1034 0.984 . S
H1042 N1030 0.984 . S
H1043 N1030 0.985 . S
C1044 C1045 1.363 . S
C1044 C1050 1.379 . S
C1044 N1052 1.356 . S
C1045 C1044 1.363 . S
C1045 C1051 1.363 . S
C1046 C1047 1.363 . S
C1046 C1051 1.379 . S
C1046 N1053 1.356 . S
C1047 C1046 1.363 . S
C1047 C1050 1.363 . S
N1048 C1050 1.356 . S
N1048 H1060 0.984 . S
N1048 H1061 0.985 . S
N1049 C1051 1.356 . S
N1049 H1054 0.984 . S
N1049 H1055 0.985 . S
C1050 C1044 1.379 . S
C1050 C1047 1.363 . S
C1050 N1048 1.356 . S
C1051 C1045 1.363 . S
C1051 C1046 1.379 . S
C1051 N1049 1.356 . S
N1052 C1044 1.356 . S
N1052 H1058 0.984 . S
N1052 H1059 0.984 . S
N1053 C1046 1.356 . S
N1053 H1056 0.984 . S
N1053 H1057 0.985 . S
H1054 N1049 0.984 . S
H1055 N1049 0.985 . S
H1056 N1053 0.984 . S
H1057 N1053 0.985 . S
H1058 N1052 0.984 . S
H1059 N1052 0.984 . S
H1060 N1048 0.984 . S
H1061 N1048 0.985 . S
C1062 C1063 1.363 . S
C1062 C1068 1.379 . S
C1062 N1070 1.356 . S
C1063 C1062 1.363 . S
C1063 C1069 1.363 . S
C1064 C1065 1.363 . S
C1064 C1069 1.379 . S
C1064 N1071 1.356 . S
C1065 C1064 1.363 . S
C1065 C1068 1.363 . S
N1066 C1068 1.356 . S
N1066 H1078 0.984 . S
N1066 H1079 0.985 . S
N1067 C1069 1.356 . S
N1067 H1072 0.984 . S
N1067 H1073 0.985 . S
C1068 C1062 1.379 . S
C1068 C1065 1.363 . S
C1068 N1066 1.356 . S
C1069 C1063 1.363 . S
C1069 C1064 1.379 . S
C1069 N1067 1.356 . S
N1070 C1062 1.356 . S
N1070 H1076 0.984 . S
N1070 H1077 0.984 . S
N1071 C1064 1.356 . S
N1071 H1074 0.984 . S
N1071 H1075 0.985 . S
H1072 N1067 0.984 . S
H1073 N1067 0.985 . S
H1074 N1071 0.984 . S
H1075 N1071 0.985 . S
H1076 N1070 0.984 . S
H1077 N1070 0.984 . S
H1078 N1066 0.984 . S
H1079 N1066 0.985 . S
C1080 C1081 1.363 . S
C1080 C1086 1.379 . S
C1080 N1088 1.356 . S
C1081 C1080 1.363 . S
C1081 C1087 1.363 . S
C1082 C1083 1.363 . S
C1082 C1087 1.379 . S
C1082 N1089 1.356 . S
C1083 C1082 1.363 . S
C1083 C1086 1.363 . S
N1084 C1086 1.356 . S
N1084 H1096 0.984 . S
N1084 H1097 0.985 . S
N1085 C1087 1.356 . S
N1085 H1090 0.984 . S
N1085 H1091 0.985 . S
C1086 C1080 1.379 . S
C1086 C1083 1.363 . S
C1086 N1084 1.356 . S
C1087 C1081 1.363 . S
C1087 C1082 1.379 . S
C1087 N1085 1.356 . S
N1088 C1080 1.356 . S
N1088 H1094 0.984 . S
N1088 H1095 0.984 . S
N1089 C1082 1.356 . S
N1089 H1092 0.984 . S
N1089 H1093 0.985 . S
H1090 N1085 0.984 . S
H1091 N1085 0.985 . S
H1092 N1089 0.984 . S
H1093 N1089 0.985 . S
H1094 N1088 0.984 . S
H1095 N1088 0.984 . S
H1096 N1084 0.984 . S
H1097 N1084 0.985 . S
C1098 C1099 1.363 . S
C1098 C1104 1.379 . S
C1098 N1106 1.356 . S
C1099 C1098 1.363 . S
C1099 C1105 1.363 . S
C1100 C1101 1.363 1_556 S
C1100 C1105 1.378 . S
C1100 N1107 1.357 1_556 S
C1101 C1100 1.363 1_554 S
C1101 C1104 1.351 1_554 S
N1102 C1104 1.356 . S
N1102 H1114 0.984 . S
N1102 H1115 0.985 1_556 S
N1103 C1105 1.356 . S
N1103 H1108 0.984 . S
N1103 H1109 0.985 . S
C1104 C1098 1.379 . S
C1104 C1101 1.351 1_556 S
C1104 N1102 1.356 . S
C1105 C1099 1.363 . S
C1105 C1100 1.378 . S
C1105 N1103 1.356 . S
N1106 C1098 1.356 . S
N1106 H1112 0.984 . S
N1106 H1113 0.984 . S
N1107 C1100 1.357 1_554 S
N1107 H1110 0.984 . S
N1107 H1111 0.985 . S
H1108 N1103 0.984 . S
H1109 N1103 0.985 . S
H1110 N1107 0.984 . S
H1111 N1107 0.985 . S
H1112 N1106 0.984 . S
H1113 N1106 0.984 . S
H1114 N1102 0.984 . S
H1115 N1102 0.985 1_554 S
C1116 C1117 1.355 1_556 S
C1116 C1122 1.379 . S
C1116 N1124 1.356 . S
C1117 C1116 1.355 1_554 S
C1117 C1123 1.359 1_554 S
C1118 C1119 1.363 . S
C1118 C1123 1.379 . S
C1118 N1125 1.356 . S
C1119 C1118 1.363 . S
C1119 C1122 1.363 . S
N1120 C1122 1.356 . S
N1120 H1132 0.984 . S
N1120 H1133 0.985 . S
N1121 C1123 1.356 1_554 S
N1121 H1126 0.984 . S
N1121 H1127 0.985 . S
C1122 C1116 1.379 . S
C1122 C1119 1.363 . S
C1122 N1120 1.356 . S
C1123 C1117 1.359 1_556 S
C1123 C1118 1.379 . S
C1123 N1121 1.356 1_556 S
N1124 C1116 1.356 . S
N1124 H1130 0.984 . S
N1124 H1131 0.984 1_556 S
N1125 C1118 1.356 . S
N1125 H1128 0.984 . S
N1125 H1129 0.985 . S
H1126 N1121 0.984 . S
H1127 N1121 0.985 . S
H1128 N1125 0.984 . S
H1129 N1125 0.985 . S
H1130 N1124 0.984 . S
H1131 N1124 0.984 1_554 S
H1132 N1120 0.984 . S
H1133 N1120 0.985 . S
C1134 C1135 1.363 . S
C1134 C1140 1.379 . S
C1134 N1142 1.356 . S
C1135 C1134 1.363 . S
C1135 C1141 1.363 . S
C1136 C1137 1.360 1_556 S
C1136 C1141 1.379 . S
C1136 N1143 1.356 1_556 S
C1137 C1136 1.360 1_554 S
C1137 C1140 1.353 1_554 S
N1138 C1140 1.356 . S
N1138 H1150 0.984 . S
N1138 H1151 0.985 1_556 S
N1139 C1141 1.356 . S
N1139 H1144 0.984 . S
N1139 H1145 0.985 . S
C1140 C1134 1.379 . S
C1140 C1137 1.353 1_556 S
C1140 N1138 1.356 . S
C1141 C1135 1.363 . S
C1141 C1136 1.379 . S
C1141 N1139 1.356 . S
N1142 C1134 1.356 . S
N1142 H1148 0.984 . S
N1142 H1149 0.984 . S
N1143 C1136 1.356 1_554 S
N1143 H1146 0.984 . S
N1143 H1147 0.985 . S
H1144 N1139 0.984 . S
H1145 N1139 0.985 . S
H1146 N1143 0.984 . S
H1147 N1143 0.985 . S
H1148 N1142 0.984 . S
H1149 N1142 0.984 . S
H1150 N1138 0.984 . S
H1151 N1138 0.985 1_554 S
C1152 C1153 1.363 . S
C1152 C1158 1.379 . S
C1152 N1160 1.356 . S
C1153 C1152 1.363 . S
C1153 C1159 1.363 . S
C1154 C1155 1.363 . S
C1154 C1159 1.379 . S
C1154 N1161 1.356 . S
C1155 C1154 1.363 . S
C1155 C1158 1.363 . S
N1156 C1158 1.356 . S
N1156 H1168 0.984 . S
N1156 H1169 0.985 . S
N1157 C1159 1.356 . S
N1157 H1162 0.984 . S
N1157 H1163 0.985 . S
C1158 C1152 1.379 . S
C1158 C1155 1.363 . S
C1158 N1156 1.356 . S
C1159 C1153 1.363 . S
C1159 C1154 1.379 . S
C1159 N1157 1.356 . S
N1160 C1152 1.356 . S
N1160 H1166 0.984 . S
N1160 H1167 0.984 . S
N1161 C1154 1.356 . S
N1161 H1164 0.984 . S
N1161 H1165 0.985 . S
H1162 N1157 0.984 . S
H1163 N1157 0.985 . S
H1164 N1161 0.984 . S
H1165 N1161 0.985 . S
H1166 N1160 0.984 . S
H1167 N1160 0.984 . S
H1168 N1156 0.984 . S
H1169 N1156 0.985 . S
C1170 C1171 1.363 . S
C1170 C1176 1.379 . S
C1170 N1178 1.356 . S
C1171 C1170 1.363 . S
C1171 C1177 1.363 . S
C1172 C1173 1.363 . S
C1172 C1177 1.379 . S
C1172 N1179 1.356 . S
C1173 C1172 1.363 . S
C1173 C1176 1.363 . S
N1174 C1176 1.356 . S
N1174 H1186 0.984 . S
N1174 H1187 0.985 . S
N1175 C1177 1.356 . S
N1175 H1180 0.984 . S
N1175 H1181 0.985 . S
C1176 C1170 1.379 . S
C1176 C1173 1.363 . S
C1176 N1174 1.356 . S
C1177 C1171 1.363 . S
C1177 C1172 1.379 . S
C1177 N1175 1.356 . S
N1178 C1170 1.356 . S
N1178 H1184 0.984 . S
N1178 H1185 0.984 . S
N1179 C1172 1.356 . S
N1179 H1182 0.984 . S
N1179 H1183 0.985 . S
H1180 N1175 0.984 . S
H1181 N1175 0.985 . S
H1182 N1179 0.984 . S
H1183 N1179 0.985 . S
H1184 N1178 0.984 . S
H1185 N1178 0.984 . S
H1186 N1174 0.984 . S
H1187 N1174 0.985 . S
C1188 C1189 1.363 . S
C1188 C1194 1.379 . S
C1188 N1196 1.356 . S
C1189 C1188 1.363 . S
C1189 C1195 1.363 . S
C1190 C1191 1.363 . S
C1190 C1195 1.379 . S
C1190 N1197 1.356 . S
C1191 C1190 1.363 . S
C1191 C1194 1.363 . S
N1192 C1194 1.356 . S
N1192 H1204 0.984 . S
N1192 H1205 0.985 . S
N1193 C1195 1.356 . S
N1193 H1198 0.984 . S
N1193 H1199 0.985 . S
C1194 C1188 1.379 . S
C1194 C1191 1.363 . S
C1194 N1192 1.356 . S
C1195 C1189 1.363 . S
C1195 C1190 1.379 . S
C1195 N1193 1.356 . S
N1196 C1188 1.356 . S
N1196 H1202 0.984 . S
N1196 H1203 0.984 . S
N1197 C1190 1.356 . S
N1197 H1200 0.984 . S
N1197 H1201 0.985 . S
H1198 N1193 0.984 . S
H1199 N1193 0.985 . S
H1200 N1197 0.984 . S
H1201 N1197 0.985 . S
H1202 N1196 0.984 . S
H1203 N1196 0.984 . S
H1204 N1192 0.984 . S
H1205 N1192 0.985 . S
C1206 C1207 1.363 . S
C1206 C1212 1.379 . S
C1206 N1214 1.356 . S
C1207 C1206 1.363 . S
C1207 C1213 1.363 . S
C1208 C1209 1.363 . S
C1208 C1213 1.379 . S
C1208 N1215 1.356 . S
C1209 C1208 1.363 . S
C1209 C1212 1.363 . S
N1210 C1212 1.356 . S
N1210 H1222 0.984 . S
N1210 H1223 0.985 . S
N1211 C1213 1.356 . S
N1211 H1216 0.984 . S
N1211 H1217 0.985 . S
C1212 C1206 1.379 . S
C1212 C1209 1.363 . S
C1212 N1210 1.356 . S
C1213 C1207 1.363 . S
C1213 C1208 1.379 . S
C1213 N1211 1.356 . S
N1214 C1206 1.356 . S
N1214 H1220 0.984 . S
N1214 H1221 0.984 . S
N1215 C1208 1.356 . S
N1215 H1218 0.984 . S
N1215 H1219 0.985 . S
H1216 N1211 0.984 . S
H1217 N1211 0.985 . S
H1218 N1215 0.984 . S
H1219 N1215 0.985 . S
H1220 N1214 0.984 . S
H1221 N1214 0.984 . S
H1222 N1210 0.984 . S
H1223 N1210 0.985 . S
C1224 C1225 1.363 . S
C1224 C1230 1.379 . S
C1224 N1232 1.356 . S
C1225 C1224 1.363 . S
C1225 C1231 1.363 . S
C1226 C1227 1.363 . S
C1226 C1231 1.379 . S
C1226 N1233 1.356 . S
C1227 C1226 1.363 . S
C1227 C1230 1.363 . S
N1228 C1230 1.356 . S
N1228 H1240 0.984 . S
N1228 H1241 0.985 . S
N1229 C1231 1.356 . S
N1229 H1234 0.984 . S
N1229 H1235 0.985 . S
C1230 C1224 1.379 . S
C1230 C1227 1.363 . S
C1230 N1228 1.356 . S
C1231 C1225 1.363 . S
C1231 C1226 1.379 . S
C1231 N1229 1.356 . S
N1232 C1224 1.356 . S
N1232 H1238 0.984 . S
N1232 H1239 0.984 . S
N1233 C1226 1.356 . S
N1233 H1236 0.984 . S
N1233 H1237 0.985 . S
H1234 N1229 0.984 . S
H1235 N1229 0.985 . S
H1236 N1233 0.984 . S
H1237 N1233 0.985 . S
H1238 N1232 0.984 . S
H1239 N1232 0.984 . S
H1240 N1228 0.984 . S
H1241 N1228 0.985 . S
C1242 C1243 1.363 . S
C1242 C1248 1.379 . S
C1242 N1250 1.356 . S
C1243 C1242 1.363 . S
C1243 C1249 1.363 . S
C1244 C1245 1.363 . S
C1244 C1249 1.379 . S
C1244 N1251 1.356 . S
C1245 C1244 1.363 . S
C1245 C1248 1.363 . S
N1246 C1248 1.356 . S
N1246 H1258 0.984 . S
N1246 H1259 0.985 . S
N1247 C1249 1.356 . S
N1247 H1252 0.984 . S
N1247 H1253 0.985 . S
C1248 C1242 1.379 . S
C1248 C1245 1.363 . S
C1248 N1246 1.356 . S
C1249 C1243 1.363 . S
C1249 C1244 1.379 . S
C1249 N1247 1.356 . S
N1250 C1242 1.356 . S
N1250 H1256 0.984 . S
N1250 H1257 0.984 . S
N1251 C1244 1.356 . S
N1251 H1254 0.984 . S
N1251 H1255 0.985 . S
H1252 N1247 0.984 . S
H1253 N1247 0.985 . S
H1254 N1251 0.984 . S
H1255 N1251 0.985 . S
H1256 N1250 0.984 . S
H1257 N1250 0.984 . S
H1258 N1246 0.984 . S
H1259 N1246 0.985 . S
C1260 C1261 1.363 . S
C1260 C1266 1.379 . S
C1260 N1268 1.356 . S
C1261 C1260 1.363 . S
C1261 C1267 1.363 . S
C1262 C1263 1.363 . S
C1262 C1267 1.379 . S
C1262 N1269 1.356 . S
C1263 C1262 1.363 . S
C1263 C1266 1.363 . S
N1264 C1266 1.356 . S
N1264 H1276 0.984 . S
N1264 H1277 0.985 . S
N1265 C1267 1.356 . S
N1265 H1270 0.984 . S
N1265 H1271 0.985 . S
C1266 C1260 1.379 . S
C1266 C1263 1.363 . S
C1266 N1264 1.356 . S
C1267 C1261 1.363 . S
C1267 C1262 1.379 . S
C1267 N1265 1.356 . S
N1268 C1260 1.356 . S
N1268 H1274 0.984 . S
N1268 H1275 0.984 . S
N1269 C1262 1.356 . S
N1269 H1272 0.984 . S
N1269 H1273 0.985 . S
H1270 N1265 0.984 . S
H1271 N1265 0.985 . S
H1272 N1269 0.984 . S
H1273 N1269 0.985 . S
H1274 N1268 0.984 . S
H1275 N1268 0.984 . S
H1276 N1264 0.984 . S
H1277 N1264 0.985 . S
C1278 C1279 1.363 . S
C1278 C1284 1.379 . S
C1278 N1286 1.356 . S
C1279 C1278 1.363 . S
C1279 C1285 1.363 . S
C1280 C1281 1.363 . S
C1280 C1285 1.379 . S
C1280 N1287 1.356 . S
C1281 C1280 1.363 . S
C1281 C1284 1.363 . S
N1282 C1284 1.356 . S
N1282 H1294 0.984 . S
N1282 H1295 0.985 . S
N1283 C1285 1.356 . S
N1283 H1288 0.984 . S
N1283 H1289 0.985 . S
C1284 C1278 1.379 . S
C1284 C1281 1.363 . S
C1284 N1282 1.356 . S
C1285 C1279 1.363 . S
C1285 C1280 1.379 . S
C1285 N1283 1.356 . S
N1286 C1278 1.356 . S
N1286 H1292 0.984 . S
N1286 H1293 0.984 . S
N1287 C1280 1.356 . S
N1287 H1290 0.984 . S
N1287 H1291 0.985 . S
H1288 N1283 0.984 . S
H1289 N1283 0.985 . S
H1290 N1287 0.984 . S
H1291 N1287 0.985 . S
H1292 N1286 0.984 . S
H1293 N1286 0.984 . S
H1294 N1282 0.984 . S
H1295 N1282 0.985 . S
C1296 C1297 1.363 . S
C1296 C1302 1.379 . S
C1296 N1304 1.356 . S
C1297 C1296 1.363 . S
C1297 C1303 1.363 . S
C1298 C1299 1.363 . S
C1298 C1303 1.379 . S
C1298 N1305 1.356 . S
C1299 C1298 1.363 . S
C1299 C1302 1.363 . S
N1300 C1302 1.356 . S
N1300 H1312 0.984 . S
N1300 H1313 0.985 . S
N1301 C1303 1.356 . S
N1301 H1306 0.984 . S
N1301 H1307 0.985 . S
C1302 C1296 1.379 . S
C1302 C1299 1.363 . S
C1302 N1300 1.356 . S
C1303 C1297 1.363 . S
C1303 C1298 1.379 . S
C1303 N1301 1.356 . S
N1304 C1296 1.356 . S
N1304 H1310 0.984 . S
N1304 H1311 0.984 . S
N1305 C1298 1.356 . S
N1305 H1308 0.984 . S
N1305 H1309 0.985 . S
H1306 N1301 0.984 . S
H1307 N1301 0.985 . S
H1308 N1305 0.984 . S
H1309 N1305 0.985 . S
H1310 N1304 0.984 . S
H1311 N1304 0.984 . S
H1312 N1300 0.984 . S
H1313 N1300 0.985 . S
C1314 C1315 1.363 . S
C1314 C1320 1.379 . S
C1314 N1322 1.356 . S
C1315 C1314 1.363 . S
C1315 C1321 1.363 . S
C1316 C1317 1.363 . S
C1316 C1321 1.379 . S
C1316 N1323 1.356 . S
C1317 C1316 1.363 . S
C1317 C1320 1.363 . S
N1318 C1320 1.356 . S
N1318 H1330 0.984 . S
N1318 H1331 0.985 . S
N1319 C1321 1.356 . S
N1319 H1324 0.984 . S
N1319 H1325 0.985 . S
C1320 C1314 1.379 . S
C1320 C1317 1.363 . S
C1320 N1318 1.356 . S
C1321 C1315 1.363 . S
C1321 C1316 1.379 . S
C1321 N1319 1.356 . S
N1322 C1314 1.356 . S
N1322 H1328 0.984 . S
N1322 H1329 0.984 . S
N1323 C1316 1.356 . S
N1323 H1326 0.984 . S
N1323 H1327 0.985 . S
H1324 N1319 0.984 . S
H1325 N1319 0.985 . S
H1326 N1323 0.984 . S
H1327 N1323 0.985 . S
H1328 N1322 0.984 . S
H1329 N1322 0.984 . S
H1330 N1318 0.984 . S
H1331 N1318 0.985 . S
C1332 C1333 1.363 . S
C1332 C1338 1.379 . S
C1332 N1340 1.356 . S
C1333 C1332 1.363 . S
C1333 C1339 1.363 . S
C1334 C1335 1.363 . S
C1334 C1339 1.379 . S
C1334 N1341 1.356 . S
C1335 C1334 1.363 . S
C1335 C1338 1.363 . S
N1336 C1338 1.356 . S
N1336 H1348 0.984 . S
N1336 H1349 0.985 . S
N1337 C1339 1.356 . S
N1337 H1342 0.984 . S
N1337 H1343 0.985 . S
C1338 C1332 1.379 . S
C1338 C1335 1.363 . S
C1338 N1336 1.356 . S
C1339 C1333 1.363 . S
C1339 C1334 1.379 . S
C1339 N1337 1.356 . S
N1340 C1332 1.356 . S
N1340 H1346 0.984 . S
N1340 H1347 0.984 . S
N1341 C1334 1.356 . S
N1341 H1344 0.984 . S
N1341 H1345 0.985 . S
H1342 N1337 0.984 . S
H1343 N1337 0.985 . S
H1344 N1341 0.984 . S
H1345 N1341 0.985 . S
H1346 N1340 0.984 . S
H1347 N1340 0.984 . S
H1348 N1336 0.984 . S
H1349 N1336 0.985 . S
C1350 C1351 1.363 . S
C1350 C1356 1.379 . S
C1350 N1358 1.356 . S
C1351 C1350 1.363 . S
C1351 C1357 1.363 . S
C1352 C1353 1.363 . S
C1352 C1357 1.379 . S
C1352 N1359 1.356 . S
C1353 C1352 1.363 . S
C1353 C1356 1.363 . S
N1354 C1356 1.356 . S
N1354 H1366 0.984 . S
N1354 H1367 0.985 . S
N1355 C1357 1.356 . S
N1355 H1360 0.984 . S
N1355 H1361 0.985 . S
C1356 C1350 1.379 . S
C1356 C1353 1.363 . S
C1356 N1354 1.356 . S
C1357 C1351 1.363 . S
C1357 C1352 1.379 . S
C1357 N1355 1.356 . S
N1358 C1350 1.356 . S
N1358 H1364 0.984 . S
N1358 H1365 0.984 . S
N1359 C1352 1.356 . S
N1359 H1362 0.984 . S
N1359 H1363 0.985 . S
H1360 N1355 0.984 . S
H1361 N1355 0.985 . S
H1362 N1359 0.984 . S
H1363 N1359 0.985 . S
H1364 N1358 0.984 . S
H1365 N1358 0.984 . S
H1366 N1354 0.984 . S
H1367 N1354 0.985 . S
C1368 C1369 1.363 . S
C1368 C1374 1.379 . S
C1368 N1376 1.356 . S
C1369 C1368 1.363 . S
C1369 C1375 1.363 . S
C1370 C1371 1.363 . S
C1370 C1375 1.379 . S
C1370 N1377 1.356 . S
C1371 C1370 1.363 . S
C1371 C1374 1.363 . S
N1372 C1374 1.356 . S
N1372 H1384 0.984 . S
N1372 H1385 0.985 . S
N1373 C1375 1.356 . S
N1373 H1378 0.984 . S
N1373 H1379 0.985 . S
C1374 C1368 1.379 . S
C1374 C1371 1.363 . S
C1374 N1372 1.356 . S
C1375 C1369 1.363 . S
C1375 C1370 1.379 . S
C1375 N1373 1.356 . S
N1376 C1368 1.356 . S
N1376 H1382 0.984 . S
N1376 H1383 0.984 . S
N1377 C1370 1.356 . S
N1377 H1380 0.984 . S
N1377 H1381 0.985 . S
H1378 N1373 0.984 . S
H1379 N1373 0.985 . S
H1380 N1377 0.984 . S
H1381 N1377 0.985 . S
H1382 N1376 0.984 . S
H1383 N1376 0.984 . S
H1384 N1372 0.984 . S
H1385 N1372 0.985 . S
C1386 C1387 1.363 . S
C1386 C1392 1.379 . S
C1386 N1394 1.356 . S
C1387 C1386 1.363 . S
C1387 C1393 1.363 . S
C1388 C1389 1.363 . S
C1388 C1393 1.379 . S
C1388 N1395 1.356 . S
C1389 C1388 1.363 . S
C1389 C1392 1.363 . S
N1390 C1392 1.356 . S
N1390 H1402 0.984 . S
N1390 H1403 0.985 . S
N1391 C1393 1.356 . S
N1391 H1396 0.984 . S
N1391 H1397 0.985 . S
C1392 C1386 1.379 . S
C1392 C1389 1.363 . S
C1392 N1390 1.356 . S
C1393 C1387 1.363 . S
C1393 C1388 1.379 . S
C1393 N1391 1.356 . S
N1394 C1386 1.356 . S
N1394 H1400 0.984 . S
N1394 H1401 0.984 . S
N1395 C1388 1.356 . S
N1395 H1398 0.984 . S
N1395 H1399 0.985 . S
H1396 N1391 0.984 . S
H1397 N1391 0.985 . S
H1398 N1395 0.984 . S
H1399 N1395 0.985 . S
H1400 N1394 0.984 . S
H1401 N1394 0.984 . S
H1402 N1390 0.984 . S
H1403 N1390 0.985 . S
C1404 C1405 1.363 . S
C1404 C1410 1.379 . S
C1404 N1412 1.356 . S
C1405 C1404 1.363 . S
C1405 C1411 1.363 . S
C1406 C1407 1.363 . S
C1406 C1411 1.379 . S
C1406 N1413 1.356 . S
C1407 C1406 1.363 . S
C1407 C1410 1.363 . S
N1408 C1410 1.356 . S
N1408 H1420 0.984 . S
N1408 H1421 0.985 . S
N1409 C1411 1.356 . S
N1409 H1414 0.984 . S
N1409 H1415 0.985 . S
C1410 C1404 1.379 . S
C1410 C1407 1.363 . S
C1410 N1408 1.356 . S
C1411 C1405 1.363 . S
C1411 C1406 1.379 . S
C1411 N1409 1.356 . S
N1412 C1404 1.356 . S
N1412 H1418 0.984 . S
N1412 H1419 0.984 . S
N1413 C1406 1.356 . S
N1413 H1416 0.984 . S
N1413 H1417 0.985 . S
H1414 N1409 0.984 . S
H1415 N1409 0.985 . S
H1416 N1413 0.984 . S
H1417 N1413 0.985 . S
H1418 N1412 0.984 . S
H1419 N1412 0.984 . S
H1420 N1408 0.984 . S
H1421 N1408 0.985 . S
C1422 C1423 1.354 1_554 S
C1422 C1428 1.379 . S
C1422 N1430 1.356 . S
C1423 C1422 1.354 1_556 S
C1423 C1429 1.360 1_556 S
C1424 C1425 1.363 . S
C1424 C1429 1.379 . S
C1424 N1431 1.356 . S
C1425 C1424 1.363 . S
C1425 C1428 1.363 . S
N1426 C1428 1.356 . S
N1426 H1438 0.984 . S
N1426 H1439 0.985 . S
N1427 C1429 1.356 1_556 S
N1427 H1432 0.984 . S
N1427 H1433 0.985 . S
C1428 C1422 1.379 . S
C1428 C1425 1.363 . S
C1428 N1426 1.356 . S
C1429 C1423 1.360 1_554 S
C1429 C1424 1.379 . S
C1429 N1427 1.356 1_554 S
N1430 C1422 1.356 . S
N1430 H1436 0.984 . S
N1430 H1437 0.984 1_554 S
N1431 C1424 1.356 . S
N1431 H1434 0.984 . S
N1431 H1435 0.985 . S
H1432 N1427 0.984 . S
H1433 N1427 0.985 . S
H1434 N1431 0.984 . S
H1435 N1431 0.985 . S
H1436 N1430 0.984 . S
H1437 N1430 0.984 1_556 S
H1438 N1426 0.984 . S
H1439 N1426 0.985 . S
C1440 C1441 1.350 1_554 S
C1440 C1446 1.379 . S
C1440 N1448 1.356 . S
C1441 C1440 1.350 1_556 S
C1441 C1447 1.364 . S
C1442 C1443 1.363 . S
C1442 C1447 1.379 1_554 S
C1442 N1449 1.356 . S
C1443 C1442 1.363 . S
C1443 C1446 1.363 . S
N1444 C1446 1.356 . S
N1444 H1456 0.984 . S
N1444 H1457 0.985 . S
N1445 C1447 1.356 . S
N1445 H1450 0.984 . S
N1445 H1451 0.985 . S
C1446 C1440 1.379 . S
C1446 C1443 1.363 . S
C1446 N1444 1.356 . S
C1447 C1441 1.364 . S
C1447 C1442 1.379 1_556 S
C1447 N1445 1.356 . S
N1448 C1440 1.356 . S
N1448 H1454 0.984 . S
N1448 H1455 0.984 . S
N1449 C1442 1.356 . S
N1449 H1452 0.984 . S
N1449 H1453 0.985 . S
H1450 N1445 0.984 . S
H1451 N1445 0.985 . S
H1452 N1449 0.984 . S
H1453 N1449 0.985 . S
H1454 N1448 0.984 . S
H1455 N1448 0.984 . S
H1456 N1444 0.984 . S
H1457 N1444 0.985 . S
C1458 C1459 1.349 1_554 S
C1458 C1464 1.379 . S
C1458 N1466 1.356 . S
C1459 C1458 1.349 1_556 S
C1459 C1465 1.364 . S
C1460 C1461 1.363 . S
C1460 C1465 1.379 1_554 S
C1460 N1467 1.356 . S
C1461 C1460 1.363 . S
C1461 C1464 1.363 . S
N1462 C1464 1.356 . S
N1462 H1474 0.984 . S
N1462 H1475 0.985 . S
N1463 C1465 1.356 . S
N1463 H1468 0.984 . S
N1463 H1469 0.985 . S
C1464 C1458 1.379 . S
C1464 C1461 1.363 . S
C1464 N1462 1.356 . S
C1465 C1459 1.364 . S
C1465 C1460 1.379 1_556 S
C1465 N1463 1.356 . S
N1466 C1458 1.356 . S
N1466 H1472 0.984 . S
N1466 H1473 0.984 . S
N1467 C1460 1.356 . S
N1467 H1470 0.984 . S
N1467 H1471 0.985 . S
H1468 N1463 0.984 . S
H1469 N1463 0.985 . S
H1470 N1467 0.984 . S
H1471 N1467 0.985 . S
H1472 N1466 0.984 . S
H1473 N1466 0.984 . S
H1474 N1462 0.984 . S
H1475 N1462 0.985 . S
C1476 C1477 1.363 . S
C1476 C1482 1.379 . S
C1476 N1484 1.356 . S
C1477 C1476 1.363 . S
C1477 C1483 1.363 . S
C1478 C1479 1.363 . S
C1478 C1483 1.379 . S
C1478 N1485 1.356 . S
C1479 C1478 1.363 . S
C1479 C1482 1.363 . S
N1480 C1482 1.356 . S
N1480 H1492 0.984 . S
N1480 H1493 0.985 . S
N1481 C1483 1.356 . S
N1481 H1486 0.984 . S
N1481 H1487 0.985 . S
C1482 C1476 1.379 . S
C1482 C1479 1.363 . S
C1482 N1480 1.356 . S
C1483 C1477 1.363 . S
C1483 C1478 1.379 . S
C1483 N1481 1.356 . S
N1484 C1476 1.356 . S
N1484 H1490 0.984 . S
N1484 H1491 0.984 . S
N1485 C1478 1.356 . S
N1485 H1488 0.984 . S
N1485 H1489 0.985 . S
H1486 N1481 0.984 . S
H1487 N1481 0.985 . S
H1488 N1485 0.984 . S
H1489 N1485 0.985 . S
H1490 N1484 0.984 . S
H1491 N1484 0.984 . S
H1492 N1480 0.984 . S
H1493 N1480 0.985 . S
C1494 C1495 1.363 . S
C1494 C1500 1.379 . S
C1494 N1502 1.356 . S
C1495 C1494 1.363 . S
C1495 C1501 1.363 . S
C1496 C1497 1.363 . S
C1496 C1501 1.379 . S
C1496 N1503 1.356 1_554 S
C1497 C1496 1.363 . S
C1497 C1500 1.363 . S
N1498 C1500 1.356 . S
N1498 H1510 0.984 . S
N1498 H1511 0.985 . S
N1499 C1501 1.356 . S
N1499 H1504 0.984 . S
N1499 H1505 0.985 1_554 S
C1500 C1494 1.379 . S
C1500 C1497 1.363 . S
C1500 N1498 1.356 . S
C1501 C1495 1.363 . S
C1501 C1496 1.379 . S
C1501 N1499 1.356 . S
N1502 C1494 1.356 . S
N1502 H1508 0.984 . S
N1502 H1509 0.984 . S
N1503 C1496 1.356 1_556 S
N1503 H1506 0.984 . S
N1503 H1507 0.985 . S
H1504 N1499 0.984 . S
H1505 N1499 0.985 1_556 S
H1506 N1503 0.984 . S
H1507 N1503 0.985 . S
H1508 N1502 0.984 . S
H1509 N1502 0.984 . S
H1510 N1498 0.984 . S
H1511 N1498 0.985 . S
C1512 C1513 1.363 . S
C1512 C1518 1.379 . S
C1512 N1520 1.356 . S
C1513 C1512 1.363 . S
C1513 C1519 1.363 . S
C1514 C1515 1.363 . S
C1514 C1519 1.379 . S
C1514 N1521 1.356 1_554 S
C1515 C1514 1.363 . S
C1515 C1518 1.363 . S
N1516 C1518 1.356 . S
N1516 H1528 0.984 . S
N1516 H1529 0.985 . S
N1517 C1519 1.356 1_556 S
N1517 H1522 0.984 . S
N1517 H1523 0.985 . S
C1518 C1512 1.379 . S
C1518 C1515 1.363 . S
C1518 N1516 1.356 . S
C1519 C1513 1.363 . S
C1519 C1514 1.379 . S
C1519 N1517 1.356 1_554 S
N1520 C1512 1.356 . S
N1520 H1526 0.984 . S
N1520 H1527 0.984 . S
N1521 C1514 1.356 1_556 S
N1521 H1524 0.978 1_556 S
N1521 H1525 0.985 . S
H1522 N1517 0.984 . S
H1523 N1517 0.985 . S
H1524 N1521 0.978 1_554 S
H1525 N1521 0.985 . S
H1526 N1520 0.984 . S
H1527 N1520 0.984 . S
H1528 N1516 0.984 . S
H1529 N1516 0.985 . S
C1530 C1531 1.363 . S
C1530 C1536 1.379 . S
C1530 N1538 1.356 . S
C1531 C1530 1.363 . S
C1531 C1537 1.363 . S
C1532 C1533 1.363 . S
C1532 C1537 1.379 . S
C1532 N1539 1.356 . S
C1533 C1532 1.363 . S
C1533 C1536 1.363 . S
N1534 C1536 1.356 . S
N1534 H1546 0.984 . S
N1534 H1547 0.985 . S
N1535 C1537 1.356 . S
N1535 H1540 0.984 . S
N1535 H1541 0.985 . S
C1536 C1530 1.379 . S
C1536 C1533 1.363 . S
C1536 N1534 1.356 . S
C1537 C1531 1.363 . S
C1537 C1532 1.379 . S
C1537 N1535 1.356 . S
N1538 C1530 1.356 . S
N1538 H1544 0.984 . S
N1538 H1545 0.984 . S
N1539 C1532 1.356 . S
N1539 H1542 0.984 . S
N1539 H1543 0.985 . S
H1540 N1535 0.984 . S
H1541 N1535 0.985 . S
H1542 N1539 0.984 . S
H1543 N1539 0.985 . S
H1544 N1538 0.984 . S
H1545 N1538 0.984 . S
H1546 N1534 0.984 . S
H1547 N1534 0.985 . S
C1548 C1549 1.363 . S
C1548 C1554 1.379 . S
C1548 N1556 1.356 . S
C1549 C1548 1.363 . S
C1549 C1555 1.363 . S
C1550 C1551 1.363 . S
C1550 C1555 1.379 . S
C1550 N1557 1.356 . S
C1551 C1550 1.363 . S
C1551 C1554 1.363 . S
N1552 C1554 1.356 . S
N1552 H1564 0.984 . S
N1552 H1565 0.985 . S
N1553 C1555 1.356 . S
N1553 H1558 0.984 . S
N1553 H1559 0.985 . S
C1554 C1548 1.379 . S
C1554 C1551 1.363 . S
C1554 N1552 1.356 . S
C1555 C1549 1.363 . S
C1555 C1550 1.379 . S
C1555 N1553 1.356 . S
N1556 C1548 1.356 . S
N1556 H1562 0.984 . S
N1556 H1563 0.984 . S
N1557 C1550 1.356 . S
N1557 H1560 0.984 . S
N1557 H1561 0.985 . S
H1558 N1553 0.984 . S
H1559 N1553 0.985 . S
H1560 N1557 0.984 . S
H1561 N1557 0.985 . S
H1562 N1556 0.984 . S
H1563 N1556 0.984 . S
H1564 N1552 0.984 . S
H1565 N1552 0.985 . S
C1566 C1567 1.363 . S
C1566 C1572 1.379 . S
C1566 N1574 1.356 . S
C1567 C1566 1.363 . S
C1567 C1573 1.363 . S
C1568 C1569 1.363 . S
C1568 C1573 1.379 . S
C1568 N1575 1.356 . S
C1569 C1568 1.363 . S
C1569 C1572 1.363 . S
N1570 C1572 1.356 . S
N1570 H1582 0.984 . S
N1570 H1583 0.985 . S
N1571 C1573 1.356 . S
N1571 H1576 0.984 . S
N1571 H1577 0.985 . S
C1572 C1566 1.379 . S
C1572 C1569 1.363 . S
C1572 N1570 1.356 . S
C1573 C1567 1.363 . S
C1573 C1568 1.379 . S
C1573 N1571 1.356 . S
N1574 C1566 1.356 . S
N1574 H1580 0.984 . S
N1574 H1581 0.984 . S
N1575 C1568 1.356 . S
N1575 H1578 0.984 . S
N1575 H1579 0.985 . S
H1576 N1571 0.984 . S
H1577 N1571 0.985 . S
H1578 N1575 0.984 . S
H1579 N1575 0.985 . S
H1580 N1574 0.984 . S
H1581 N1574 0.984 . S
H1582 N1570 0.984 . S
H1583 N1570 0.985 . S
C1584 C1585 1.363 . S
C1584 C1590 1.379 . S
C1584 N1592 1.356 1_556 S
C1585 C1584 1.363 . S
C1585 C1591 1.363 . S
C1586 C1587 1.363 . S
C1586 C1591 1.379 . S
C1586 N1593 1.356 . S
C1587 C1586 1.363 . S
C1587 C1590 1.363 . S
N1588 C1590 1.356 1_554 S
N1588 H1600 0.984 . S
N1588 H1601 0.985 . S
N1589 C1591 1.356 . S
N1589 H1594 0.984 . S
N1589 H1595 0.985 . S
C1590 C1584 1.379 . S
C1590 C1587 1.363 . S
C1590 N1588 1.356 1_556 S
C1591 C1585 1.363 . S
C1591 C1586 1.379 . S
C1591 N1589 1.356 . S
N1592 C1584 1.356 1_554 S
N1592 H1598 0.984 . S
N1592 H1599 0.984 1_554 S
N1593 C1586 1.356 . S
N1593 H1596 0.984 . S
N1593 H1597 0.985 . S
H1594 N1589 0.984 . S
H1595 N1589 0.985 . S
H1596 N1593 0.984 . S
H1597 N1593 0.985 . S
H1598 N1592 0.984 . S
H1599 N1592 0.984 1_556 S
H1600 N1588 0.984 . S
H1601 N1588 0.985 . S
C1602 C1603 1.363 . S
C1602 C1608 1.379 . S
C1602 N1610 1.356 1_556 S
C1603 C1602 1.363 . S
C1603 C1609 1.363 . S
C1604 C1605 1.363 . S
C1604 C1609 1.379 . S
C1604 N1611 1.356 . S
C1605 C1604 1.363 . S
C1605 C1608 1.363 . S
N1606 C1608 1.356 1_554 S
N1606 H1618 0.984 . S
N1606 H1619 0.985 1_554 S
N1607 C1609 1.356 . S
N1607 H1612 0.984 . S
N1607 H1613 0.985 . S
C1608 C1602 1.379 . S
C1608 C1605 1.363 . S
C1608 N1606 1.356 1_556 S
C1609 C1603 1.363 . S
C1609 C1604 1.379 . S
C1609 N1607 1.356 . S
N1610 C1602 1.356 1_554 S
N1610 H1616 0.984 . S
N1610 H1617 0.984 . S
N1611 C1604 1.356 . S
N1611 H1614 0.984 . S
N1611 H1615 0.985 . S
H1612 N1607 0.984 . S
H1613 N1607 0.985 . S
H1614 N1611 0.984 . S
H1615 N1611 0.985 . S
H1616 N1610 0.984 . S
H1617 N1610 0.984 . S
H1618 N1606 0.984 . S
H1619 N1606 0.985 1_556 S
C1620 C1621 1.363 . S
C1620 C1626 1.379 . S
C1620 N1628 1.356 . S
C1621 C1620 1.363 . S
C1621 C1627 1.363 . S
C1622 C1623 1.363 . S
C1622 C1627 1.379 . S
C1622 N1629 1.356 . S
C1623 C1622 1.363 . S
C1623 C1626 1.363 . S
N1624 C1626 1.356 . S
N1624 H1636 0.984 . S
N1624 H1637 0.985 . S
N1625 C1627 1.356 . S
N1625 H1630 0.984 . S
N1625 H1631 0.985 . S
C1626 C1620 1.379 . S
C1626 C1623 1.363 . S
C1626 N1624 1.356 . S
C1627 C1621 1.363 . S
C1627 C1622 1.379 . S
C1627 N1625 1.356 . S
N1628 C1620 1.356 . S
N1628 H1634 0.984 . S
N1628 H1635 0.984 . S
N1629 C1622 1.356 . S
N1629 H1632 0.984 . S
N1629 H1633 0.985 . S
H1630 N1625 0.984 . S
H1631 N1625 0.985 . S
H1632 N1629 0.984 . S
H1633 N1629 0.985 . S
H1634 N1628 0.984 . S
H1635 N1628 0.984 . S
H1636 N1624 0.984 . S
H1637 N1624 0.985 . S
C1638 C1639 1.363 . S
C1638 C1644 1.379 . S
C1638 N1646 1.356 . S
C1639 C1638 1.363 . S
C1639 C1645 1.363 . S
C1640 C1641 1.363 . S
C1640 C1645 1.379 . S
C1640 N1647 1.356 . S
C1641 C1640 1.363 . S
C1641 C1644 1.363 . S
N1642 C1644 1.356 . S
N1642 H1654 0.984 . S
N1642 H1655 0.985 . S
N1643 C1645 1.356 . S
N1643 H1648 0.984 . S
N1643 H1649 0.985 . S
C1644 C1638 1.379 . S
C1644 C1641 1.363 . S
C1644 N1642 1.356 . S
C1645 C1639 1.363 . S
C1645 C1640 1.379 . S
C1645 N1643 1.356 . S
N1646 C1638 1.356 . S
N1646 H1652 0.984 . S
N1646 H1653 0.984 . S
N1647 C1640 1.356 . S
N1647 H1650 0.984 . S
N1647 H1651 0.985 . S
H1648 N1643 0.984 . S
H1649 N1643 0.985 . S
H1650 N1647 0.984 . S
H1651 N1647 0.985 . S
H1652 N1646 0.984 . S
H1653 N1646 0.984 . S
H1654 N1642 0.984 . S
H1655 N1642 0.985 . S
C1656 C1657 1.363 . S
C1656 C1662 1.379 . S
C1656 N1664 1.356 . S
C1657 C1656 1.363 . S
C1657 C1663 1.363 . S
C1658 C1659 1.363 . S
C1658 C1663 1.379 . S
C1658 N1665 1.356 . S
C1659 C1658 1.363 . S
C1659 C1662 1.363 . S
N1660 C1662 1.356 . S
N1660 H1672 0.984 . S
N1660 H1673 0.985 . S
N1661 C1663 1.356 . S
N1661 H1666 0.984 . S
N1661 H1667 0.985 . S
C1662 C1656 1.379 . S
C1662 C1659 1.363 . S
C1662 N1660 1.356 . S
C1663 C1657 1.363 . S
C1663 C1658 1.379 . S
C1663 N1661 1.356 . S
N1664 C1656 1.356 . S
N1664 H1670 0.984 . S
N1664 H1671 0.984 . S
N1665 C1658 1.356 . S
N1665 H1668 0.984 . S
N1665 H1669 0.985 . S
H1666 N1661 0.984 . S
H1667 N1661 0.985 . S
H1668 N1665 0.984 . S
H1669 N1665 0.985 . S
H1670 N1664 0.984 . S
H1671 N1664 0.984 . S
H1672 N1660 0.984 . S
H1673 N1660 0.985 . S
C1674 C1675 1.363 . S
C1674 C1680 1.379 . S
C1674 N1682 1.356 . S
C1675 C1674 1.363 . S
C1675 C1681 1.363 . S
C1676 C1677 1.363 . S
C1676 C1681 1.379 . S
C1676 N1683 1.356 . S
C1677 C1676 1.363 . S
C1677 C1680 1.363 . S
N1678 C1680 1.356 . S
N1678 H1690 0.984 . S
N1678 H1691 0.985 . S
N1679 C1681 1.356 . S
N1679 H1684 0.984 . S
N1679 H1685 0.985 . S
C1680 C1674 1.379 . S
C1680 C1677 1.363 . S
C1680 N1678 1.356 . S
C1681 C1675 1.363 . S
C1681 C1676 1.379 . S
C1681 N1679 1.356 . S
N1682 C1674 1.356 . S
N1682 H1688 0.984 . S
N1682 H1689 0.984 . S
N1683 C1676 1.356 . S
N1683 H1686 0.984 . S
N1683 H1687 0.985 . S
H1684 N1679 0.984 . S
H1685 N1679 0.985 . S
H1686 N1683 0.984 . S
H1687 N1683 0.985 . S
H1688 N1682 0.984 . S
H1689 N1682 0.984 . S
H1690 N1678 0.984 . S
H1691 N1678 0.985 . S
C1692 C1693 1.363 . S
C1692 C1698 1.379 1_455 S
C1692 N1700 1.356 . S
C1693 C1692 1.363 . S
C1693 C1699 1.363 . S
C1694 C1695 1.363 . S
C1694 C1699 1.379 1_655 S
C1694 N1701 1.356 . S
C1695 C1694 1.363 . S
C1695 C1698 1.363 . S
N1696 C1698 1.356 . S
N1696 H1708 0.984 . S
N1696 H1709 0.985 . S
N1697 C1699 1.356 . S
N1697 H1702 0.984 . S
N1697 H1703 0.985 . S
C1698 C1692 1.379 1_655 S
C1698 C1695 1.363 . S
C1698 N1696 1.356 . S
C1699 C1693 1.363 . S
C1699 C1694 1.379 1_455 S
C1699 N1697 1.356 . S
N1700 C1692 1.356 . S
N1700 H1706 0.984 . S
N1700 H1707 0.984 . S
N1701 C1694 1.356 . S
N1701 H1704 0.984 . S
N1701 H1705 0.985 . S
H1702 N1697 0.984 . S
H1703 N1697 0.985 . S
H1704 N1701 0.984 . S
H1705 N1701 0.985 . S
H1706 N1700 0.984 . S
H1707 N1700 0.984 . S
H1708 N1696 0.984 . S
H1709 N1696 0.985 . S
C1710 C1711 1.363 . S
C1710 C1716 1.379 . S
C1710 N1718 1.356 . S
C1711 C1710 1.363 . S
C1711 C1717 1.363 . S
C1712 C1713 1.363 . S
C1712 C1717 1.379 . S
C1712 N1719 1.356 . S
C1713 C1712 1.363 . S
C1713 C1716 1.363 . S
N1714 C1716 1.356 . S
N1714 H1726 0.984 . S
N1714 H1727 0.985 . S
N1715 C1717 1.356 . S
N1715 H1720 0.984 . S
N1715 H1721 0.985 . S
C1716 C1710 1.379 . S
C1716 C1713 1.363 . S
C1716 N1714 1.356 . S
C1717 C1711 1.363 . S
C1717 C1712 1.379 . S
C1717 N1715 1.356 . S
N1718 C1710 1.356 . S
N1718 H1724 0.984 . S
N1718 H1725 0.984 . S
N1719 C1712 1.356 . S
N1719 H1722 0.984 . S
N1719 H1723 0.985 . S
H1720 N1715 0.984 . S
H1721 N1715 0.985 . S
H1722 N1719 0.984 . S
H1723 N1719 0.985 . S
H1724 N1718 0.984 . S
H1725 N1718 0.984 . S
H1726 N1714 0.984 . S
H1727 N1714 0.985 . S
C1728 C1729 1.363 . S
C1728 C1734 1.379 1_565 S
C1728 N1736 1.356 . S
C1729 C1728 1.363 . S
C1729 C1735 1.363 . S
C1730 C1731 1.363 . S
C1730 C1735 1.379 1_545 S
C1730 N1737 1.356 . S
C1731 C1730 1.363 . S
C1731 C1734 1.363 . S
N1732 C1734 1.356 . S
N1732 H1744 0.984 . S
N1732 H1745 0.985 . S
N1733 C1735 1.356 . S
N1733 H1738 0.984 . S
N1733 H1739 0.985 . S
C1734 C1728 1.379 1_545 S
C1734 C1731 1.363 . S
C1734 N1732 1.356 . S
C1735 C1729 1.363 . S
C1735 C1730 1.379 1_565 S
C1735 N1733 1.356 . S
N1736 C1728 1.356 . S
N1736 H1742 0.984 . S
N1736 H1743 0.984 . S
N1737 C1730 1.356 . S
N1737 H1740 0.984 . S
N1737 H1741 0.985 . S
H1738 N1733 0.984 . S
H1739 N1733 0.985 . S
H1740 N1737 0.984 . S
H1741 N1737 0.985 . S
H1742 N1736 0.984 . S
H1743 N1736 0.984 . S
H1744 N1732 0.984 . S
H1745 N1732 0.985 . S
C1746 C1747 1.363 . S
C1746 C1752 1.379 1_545 S
C1746 N1754 1.356 . S
C1747 C1746 1.363 . S
C1747 C1753 1.363 . S
C1748 C1749 1.363 . S
C1748 C1753 1.379 1_565 S
C1748 N1755 1.356 . S
C1749 C1748 1.363 . S
C1749 C1752 1.363 . S
N1750 C1752 1.356 . S
N1750 H1762 0.984 . S
N1750 H1763 0.985 . S
N1751 C1753 1.356 . S
N1751 H1756 0.984 . S
N1751 H1757 0.985 . S
C1752 C1746 1.379 1_565 S
C1752 C1749 1.363 . S
C1752 N1750 1.356 . S
C1753 C1747 1.363 . S
C1753 C1748 1.379 1_545 S
C1753 N1751 1.356 . S
N1754 C1746 1.356 . S
N1754 H1760 0.984 . S
N1754 H1761 0.984 . S
N1755 C1748 1.356 . S
N1755 H1758 0.984 . S
N1755 H1759 0.985 . S
H1756 N1751 0.984 . S
H1757 N1751 0.985 . S
H1758 N1755 0.984 . S
H1759 N1755 0.985 . S
H1760 N1754 0.984 . S
H1761 N1754 0.984 . S
H1762 N1750 0.984 . S
H1763 N1750 0.985 . S
C1764 C1765 1.363 . S
C1764 C1770 1.379 1_455 S
C1764 N1772 1.356 . S
C1765 C1764 1.363 . S
C1765 C1771 1.363 . S
C1766 C1767 1.363 . S
C1766 C1771 1.379 1_655 S
C1766 N1773 1.356 . S
C1767 C1766 1.363 . S
C1767 C1770 1.363 . S
N1768 C1770 1.356 . S
N1768 H1780 0.984 . S
N1768 H1781 0.985 . S
N1769 C1771 1.356 . S
N1769 H1774 0.984 . S
N1769 H1775 0.985 . S
C1770 C1764 1.379 1_655 S
C1770 C1767 1.363 . S
C1770 N1768 1.356 . S
C1771 C1765 1.363 . S
C1771 C1766 1.379 1_455 S
C1771 N1769 1.356 . S
N1772 C1764 1.356 . S
N1772 H1778 0.984 . S
N1772 H1779 0.984 . S
N1773 C1766 1.356 . S
N1773 H1776 0.984 . S
N1773 H1777 0.985 . S
H1774 N1769 0.984 . S
H1775 N1769 0.985 . S
H1776 N1773 0.984 . S
H1777 N1773 0.985 . S
H1778 N1772 0.984 . S
H1779 N1772 0.984 . S
H1780 N1768 0.984 . S
H1781 N1768 0.985 . S
C1782 C1783 1.363 . S
C1782 C1788 1.379 . S
C1782 N1790 1.356 . S
C1783 C1782 1.363 . S
C1783 C1789 1.363 . S
C1784 C1785 1.363 . S
C1784 C1789 1.379 . S
C1784 N1791 1.356 . S
C1785 C1784 1.363 . S
C1785 C1788 1.363 . S
N1786 C1788 1.356 . S
N1786 H1798 0.984 . S
N1786 H1799 0.985 . S
N1787 C1789 1.356 . S
N1787 H1792 0.984 . S
N1787 H1793 0.985 . S
C1788 C1782 1.379 . S
C1788 C1785 1.363 . S
C1788 N1786 1.356 . S
C1789 C1783 1.363 . S
C1789 C1784 1.379 . S
C1789 N1787 1.356 . S
N1790 C1782 1.356 . S
N1790 H1796 0.984 . S
N1790 H1797 0.984 . S
N1791 C1784 1.356 . S
N1791 H1794 0.984 . S
N1791 H1795 0.985 . S
H1792 N1787 0.984 . S
H1793 N1787 0.985 . S
H1794 N1791 0.984 . S
H1795 N1791 0.985 . S
H1796 N1790 0.984 . S
H1797 N1790 0.984 . S
H1798 N1786 0.984 . S
H1799 N1786 0.985 . S
C505 C50 1.234 . S
C507 C8 1.234 . S
C523 C64 1.234 . S
C525 C22 1.235 . S
C541 C78 1.235 . S
C543 C36 1.235 . S
C559 C92 1.234 . S
C561 C134 1.234 . S
C577 C106 1.235 . S
C579 C148 1.235 . S
C595 C162 1.235 . S
C597 C120 1.235 . S
C613 C176 1.225 . S
C615 C218 1.225 . S
C631 C190 1.225 . S
C633 C232 1.225 . S
C649 C204 1.225 . S
C651 C246 1.225 . S
C667 C260 1.223 . S
C669 C302 1.222 . S
C685 C316 1.223 . S
C687 C274 1.223 . S
C703 C288 1.223 . S
C705 C330 1.222 . S
C721 C344 1.223 . S
C723 C386 1.222 . S
C739 C358 1.223 . S
C741 C400 1.223 . S
C757 C414 1.223 . S
C759 C372 1.223 . S
C775 C470 1.225 . S
C777 C428 1.225 . S
C793 C484 1.225 . S
C795 C442 1.225 . S
C811 C498 1.225 . S
C813 C456 1.225 . S
C829 C161 1.489 . S
C831 C9 1.532 1_556 S
C847 C23 1.531 1_556 S
C849 C133 1.489 . S
C865 C37 1.532 1_556 S
C867 C147 1.489 . S
C883 C105 1.496 . S
C885 C51 1.540 . S
C901 C65 1.540 . S
C903 C119 1.496 . S
C919 C91 1.496 . S
C921 C79 1.540 . S
C937 C93 1.532 1_554 S
C939 C77 1.489 . S
C955 C107 1.531 1_554 S
C957 C49 1.489 . S
C973 C63 1.489 . S
C975 C121 1.532 1_554 S
C991 C21 1.497 . S
C993 C135 1.540 . S
C1009 C35 1.496 . S
C1011 C149 1.540 . S
C1027 C163 1.540 . S
C1029 C7 1.496 . S
C1045 C177 1.511 . S
C1047 C329 1.463 . S
C1063 C301 1.465 . S
C1065 C191 1.509 . S
C1081 C315 1.465 . S
C1083 C205 1.510 . S
C1099 C219 1.539 . S
C1101 C273 1.498 . S
C1117 C287 1.498 . S
C1119 C233 1.539 . S
C1135 C247 1.538 . S
C1137 C259 1.498 . S
C1153 C261 1.535 . S
C1155 C245 1.482 . S
C1171 C275 1.535 . S
C1173 C217 1.482 . S
C1189 C231 1.482 . S
C1191 C289 1.535 . S
C1207 C189 1.507 . S
C1209 C303 1.557 . S
C1225 C203 1.507 . S
C1227 C317 1.557 . S
C1243 C331 1.555 . S
C1245 C175 1.508 . S
C1261 C497 1.482 . S
C1263 C345 1.535 . S
C1279 C359 1.535 . S
C1281 C469 1.482 . S
C1297 C373 1.535 . S
C1299 C483 1.482 . S
C1315 C387 1.555 . S
C1317 C441 1.508 . S
C1333 C455 1.507 . S
C1335 C401 1.557 . S
C1351 C415 1.555 . S
C1353 C427 1.508 . S
C1369 C413 1.465 . S
C1371 C429 1.510 . S
C1387 C385 1.465 . S
C1389 C443 1.509 . S
C1405 C399 1.465 . S
C1407 C457 1.510 . S
C1423 C357 1.498 . S
C1425 C471 1.539 . S
C1441 C371 1.498 . S
C1443 C485 1.539 . S
C1459 C343 1.498 . S
C1461 C499 1.539 . S
C1477 C409 1.449 . S
C1479 C3 1.449 . S
C1495 C17 1.449 . S
C1497 C381 1.449 . S
C1513 C395 1.449 . S
C1515 C31 1.449 . S
C1531 C45 1.451 . S
C1533 C185 1.451 . S
C1549 C199 1.451 . S
C1551 C59 1.451 . S
C1567 C73 1.451 . S
C1569 C171 1.451 . S
C1585 C87 1.449 . S
C1587 C325 1.449 . S
C1603 C297 1.449 . S
C1605 C101 1.449 . S
C1621 C115 1.449 . S
C1623 C311 1.449 . S
C1639 C129 1.451 . S
C1641 C437 1.451 . S
C1657 C143 1.451 . S
C1659 C451 1.451 . S
C1675 C423 1.451 . S
C1677 C157 1.451 . S
C1693 C353 1.453 . S
C1695 C213 1.453 . S
C1711 C367 1.453 . S
C1713 C227 1.453 . S
C1729 C339 1.453 . S
C1731 C241 1.453 . S
C1747 C255 1.453 . S
C1749 C493 1.453 . S
C1765 C465 1.453 . S
C1767 C269 1.453 . S
C1783 C283 1.453 . S
C1785 C479 1.453 . S
