# Generated by pormake.
# Topology uns, (4)-cn, num edge types: 1
# Building blocks:
#     Node 0, Type 0, BuildingBlock: KOZSID_clean_sbu_0, # of connection points: 4
#     Node 1, Type 0, BuildingBlock: KOZSID_clean_sbu_0, # of connection points: 4
#     Node 2, Type 0, BuildingBlock: KOZSID_clean_sbu_0, # of connection points: 4
#     Node 3, Type 0, BuildingBlock: KOZSID_clean_sbu_0, # of connection points: 4
#     Node 4, Type 0, BuildingBlock: KOZSID_clean_sbu_0, # of connection points: 4
#     Node 5, Type 0, BuildingBlock: KOZSID_clean_sbu_0, # of connection points: 4
#     Node 6, Type 0, BuildingBlock: KOZSID_clean_sbu_0, # of connection points: 4
#     Node 7, Type 0, BuildingBlock: KOZSID_clean_sbu_0, # of connection points: 4
#     Node 8, Type 0, BuildingBlock: KOZSID_clean_sbu_0, # of connection points: 4
#     Node 9, Type 0, BuildingBlock: KOZSID_clean_sbu_0, # of connection points: 4
#     Node 10, Type 0, BuildingBlock: KOZSID_clean_sbu_0, # of connection points: 4
#     Node 11, Type 0, BuildingBlock: KOZSID_clean_sbu_0, # of connection points: 4
#     Node 12, Type 0, BuildingBlock: KOZSID_clean_sbu_0, # of connection points: 4
#     Node 13, Type 0, BuildingBlock: KOZSID_clean_sbu_0, # of connection points: 4
#     Node 14, Type 0, BuildingBlock: KOZSID_clean_sbu_0, # of connection points: 4
#     Node 15, Type 0, BuildingBlock: KOZSID_clean_sbu_0, # of connection points: 4
#     Node 16, Type 0, BuildingBlock: KOZSID_clean_sbu_0, # of connection points: 4
#     Node 17, Type 0, BuildingBlock: KOZSID_clean_sbu_0, # of connection points: 4
#     Node 18, Type 0, BuildingBlock: KOZSID_clean_sbu_0, # of connection points: 4
#     Node 19, Type 0, BuildingBlock: KOZSID_clean_sbu_0, # of connection points: 4
#     Node 20, Type 0, BuildingBlock: KOZSID_clean_sbu_0, # of connection points: 4
#     Node 21, Type 0, BuildingBlock: KOZSID_clean_sbu_0, # of connection points: 4
#     Node 22, Type 0, BuildingBlock: KOZSID_clean_sbu_0, # of connection points: 4
#     Node 23, Type 0, BuildingBlock: KOZSID_clean_sbu_0, # of connection points: 4
#     Node 24, Type 0, BuildingBlock: KOZSID_clean_sbu_0, # of connection points: 4
#     Node 25, Type 0, BuildingBlock: KOZSID_clean_sbu_0, # of connection points: 4
#     Node 26, Type 0, BuildingBlock: KOZSID_clean_sbu_0, # of connection points: 4
#     Node 27, Type 0, BuildingBlock: KOZSID_clean_sbu_0, # of connection points: 4
#     Node 28, Type 0, BuildingBlock: KOZSID_clean_sbu_0, # of connection points: 4
#     Node 29, Type 0, BuildingBlock: KOZSID_clean_sbu_0, # of connection points: 4
#     Node 30, Type 0, BuildingBlock: KOZSID_clean_sbu_0, # of connection points: 4
#     Node 31, Type 0, BuildingBlock: KOZSID_clean_sbu_0, # of connection points: 4
#     Node 32, Type 0, BuildingBlock: KOZSID_clean_sbu_0, # of connection points: 4
#     Node 33, Type 0, BuildingBlock: KOZSID_clean_sbu_0, # of connection points: 4
#     Node 34, Type 0, BuildingBlock: KOZSID_clean_sbu_0, # of connection points: 4
#     Node 35, Type 0, BuildingBlock: KOZSID_clean_sbu_0, # of connection points: 4
#     Edge 36, Type (0, 0), BuildingBlock: UVAHIK_clean_linker_0, # of connection points: 2
#     Edge 37, Type (0, 0), BuildingBlock: UVAHIK_clean_linker_0, # of connection points: 2
#     Edge 38, Type (0, 0), BuildingBlock: UVAHIK_clean_linker_0, # of connection points: 2
#     Edge 39, Type (0, 0), BuildingBlock: UVAHIK_clean_linker_0, # of connection points: 2
#     Edge 40, Type (0, 0), BuildingBlock: UVAHIK_clean_linker_0, # of connection points: 2
#     Edge 41, Type (0, 0), BuildingBlock: UVAHIK_clean_linker_0, # of connection points: 2
#     Edge 42, Type (0, 0), BuildingBlock: UVAHIK_clean_linker_0, # of connection points: 2
#     Edge 43, Type (0, 0), BuildingBlock: UVAHIK_clean_linker_0, # of connection points: 2
#     Edge 44, Type (0, 0), BuildingBlock: UVAHIK_clean_linker_0, # of connection points: 2
#     Edge 45, Type (0, 0), BuildingBlock: UVAHIK_clean_linker_0, # of connection points: 2
#     Edge 46, Type (0, 0), BuildingBlock: UVAHIK_clean_linker_0, # of connection points: 2
#     Edge 47, Type (0, 0), BuildingBlock: UVAHIK_clean_linker_0, # of connection points: 2
#     Edge 48, Type (0, 0), BuildingBlock: UVAHIK_clean_linker_0, # of connection points: 2
#     Edge 49, Type (0, 0), BuildingBlock: UVAHIK_clean_linker_0, # of connection points: 2
#     Edge 50, Type (0, 0), BuildingBlock: UVAHIK_clean_linker_0, # of connection points: 2
#     Edge 51, Type (0, 0), BuildingBlock: UVAHIK_clean_linker_0, # of connection points: 2
#     Edge 52, Type (0, 0), BuildingBlock: UVAHIK_clean_linker_0, # of connection points: 2
#     Edge 53, Type (0, 0), BuildingBlock: UVAHIK_clean_linker_0, # of connection points: 2
#     Edge 54, Type (0, 0), BuildingBlock: UVAHIK_clean_linker_0, # of connection points: 2
#     Edge 55, Type (0, 0), BuildingBlock: UVAHIK_clean_linker_0, # of connection points: 2
#     Edge 56, Type (0, 0), BuildingBlock: UVAHIK_clean_linker_0, # of connection points: 2
#     Edge 57, Type (0, 0), BuildingBlock: UVAHIK_clean_linker_0, # of connection points: 2
#     Edge 58, Type (0, 0), BuildingBlock: UVAHIK_clean_linker_0, # of connection points: 2
#     Edge 59, Type (0, 0), BuildingBlock: UVAHIK_clean_linker_0, # of connection points: 2
#     Edge 60, Type (0, 0), BuildingBlock: UVAHIK_clean_linker_0, # of connection points: 2
#     Edge 61, Type (0, 0), BuildingBlock: UVAHIK_clean_linker_0, # of connection points: 2
#     Edge 62, Type (0, 0), BuildingBlock: UVAHIK_clean_linker_0, # of connection points: 2
#     Edge 63, Type (0, 0), BuildingBlock: UVAHIK_clean_linker_0, # of connection points: 2
#     Edge 64, Type (0, 0), BuildingBlock: UVAHIK_clean_linker_0, # of connection points: 2
#     Edge 65, Type (0, 0), BuildingBlock: UVAHIK_clean_linker_0, # of connection points: 2
#     Edge 66, Type (0, 0), BuildingBlock: UVAHIK_clean_linker_0, # of connection points: 2
#     Edge 67, Type (0, 0), BuildingBlock: UVAHIK_clean_linker_0, # of connection points: 2
#     Edge 68, Type (0, 0), BuildingBlock: UVAHIK_clean_linker_0, # of connection points: 2
#     Edge 69, Type (0, 0), BuildingBlock: UVAHIK_clean_linker_0, # of connection points: 2
#     Edge 70, Type (0, 0), BuildingBlock: UVAHIK_clean_linker_0, # of connection points: 2
#     Edge 71, Type (0, 0), BuildingBlock: UVAHIK_clean_linker_0, # of connection points: 2
#     Edge 72, Type (0, 0), BuildingBlock: UVAHIK_clean_linker_0, # of connection points: 2
#     Edge 73, Type (0, 0), BuildingBlock: UVAHIK_clean_linker_0, # of connection points: 2
#     Edge 74, Type (0, 0), BuildingBlock: UVAHIK_clean_linker_0, # of connection points: 2
#     Edge 75, Type (0, 0), BuildingBlock: UVAHIK_clean_linker_0, # of connection points: 2
#     Edge 76, Type (0, 0), BuildingBlock: UVAHIK_clean_linker_0, # of connection points: 2
#     Edge 77, Type (0, 0), BuildingBlock: UVAHIK_clean_linker_0, # of connection points: 2
#     Edge 78, Type (0, 0), BuildingBlock: UVAHIK_clean_linker_0, # of connection points: 2
#     Edge 79, Type (0, 0), BuildingBlock: UVAHIK_clean_linker_0, # of connection points: 2
#     Edge 80, Type (0, 0), BuildingBlock: UVAHIK_clean_linker_0, # of connection points: 2
#     Edge 81, Type (0, 0), BuildingBlock: UVAHIK_clean_linker_0, # of connection points: 2
#     Edge 82, Type (0, 0), BuildingBlock: UVAHIK_clean_linker_0, # of connection points: 2
#     Edge 83, Type (0, 0), BuildingBlock: UVAHIK_clean_linker_0, # of connection points: 2
#     Edge 84, Type (0, 0), BuildingBlock: UVAHIK_clean_linker_0, # of connection points: 2
#     Edge 85, Type (0, 0), BuildingBlock: UVAHIK_clean_linker_0, # of connection points: 2
#     Edge 86, Type (0, 0), BuildingBlock: UVAHIK_clean_linker_0, # of connection points: 2
#     Edge 87, Type (0, 0), BuildingBlock: UVAHIK_clean_linker_0, # of connection points: 2
#     Edge 88, Type (0, 0), BuildingBlock: UVAHIK_clean_linker_0, # of connection points: 2
#     Edge 89, Type (0, 0), BuildingBlock: UVAHIK_clean_linker_0, # of connection points: 2
#     Edge 90, Type (0, 0), BuildingBlock: UVAHIK_clean_linker_0, # of connection points: 2
#     Edge 91, Type (0, 0), BuildingBlock: UVAHIK_clean_linker_0, # of connection points: 2
#     Edge 92, Type (0, 0), BuildingBlock: UVAHIK_clean_linker_0, # of connection points: 2
#     Edge 93, Type (0, 0), BuildingBlock: UVAHIK_clean_linker_0, # of connection points: 2
#     Edge 94, Type (0, 0), BuildingBlock: UVAHIK_clean_linker_0, # of connection points: 2
#     Edge 95, Type (0, 0), BuildingBlock: UVAHIK_clean_linker_0, # of connection points: 2
#     Edge 96, Type (0, 0), BuildingBlock: UVAHIK_clean_linker_0, # of connection points: 2
#     Edge 97, Type (0, 0), BuildingBlock: UVAHIK_clean_linker_0, # of connection points: 2
#     Edge 98, Type (0, 0), BuildingBlock: UVAHIK_clean_linker_0, # of connection points: 2
#     Edge 99, Type (0, 0), BuildingBlock: UVAHIK_clean_linker_0, # of connection points: 2
#     Edge 100, Type (0, 0), BuildingBlock: UVAHIK_clean_linker_0, # of connection points: 2
#     Edge 101, Type (0, 0), BuildingBlock: UVAHIK_clean_linker_0, # of connection points: 2
#     Edge 102, Type (0, 0), BuildingBlock: UVAHIK_clean_linker_0, # of connection points: 2
#     Edge 103, Type (0, 0), BuildingBlock: UVAHIK_clean_linker_0, # of connection points: 2
#     Edge 104, Type (0, 0), BuildingBlock: UVAHIK_clean_linker_0, # of connection points: 2
#     Edge 105, Type (0, 0), BuildingBlock: UVAHIK_clean_linker_0, # of connection points: 2
#     Edge 106, Type (0, 0), BuildingBlock: UVAHIK_clean_linker_0, # of connection points: 2
#     Edge 107, Type (0, 0), BuildingBlock: UVAHIK_clean_linker_0, # of connection points: 2
# Relax obj value: 0.012
# Max RMSD: 0.145
# Mean RMSD: 0.125
data_MOF--net-uns--node1-KOZSID_clean_sbu_0--edge1-UVAHIK_clean_linker_0
_symmetry_space_group_name_H-M    P1
_symmetry_Int_Tables_number       1
_symmetry_cell_setting            triclinic
loop_
_symmetry_equiv_pos_as_xyz
'x, y, z'
_cell_length_a     95.284306
_cell_length_b     97.01735
_cell_length_c     46.376558
_cell_angle_alpha  85.846335
_cell_angle_beta   89.994444
_cell_angle_gamma 119.50401
loop_
_atom_site_label
_atom_site_type_symbol
_atom_site_fract_x
_atom_site_fract_y
_atom_site_fract_z
_atom_type_partial_charge
C0 C 0.23943 0.20264 0.01429 0.0
C1 C 0.23934 0.20394 0.9843 0.0
C2 C 0.25149 0.20157 0.97442 0.0
C3 C 0.25834 0.19903 0.99882 0.0
N4 N 0.25132 0.19973 0.02343 0.0
Co5 Co 0.25762 0.19701 0.06346 0.0
N6 N 0.27901 0.20063 0.04952 0.0
C7 C 0.28322 0.20023 0.02197 0.0
C8 C 0.29868 0.20287 0.0187 0.0
C9 C 0.30451 0.20479 0.04596 0.0
C10 C 0.2922 0.2031 0.06445 0.0
N11 N 0.26373 0.19415 0.10359 0.0
C12 C 0.27823 0.19733 0.114 0.0
C13 C 0.27685 0.19305 0.14358 0.0
C14 C 0.26094 0.18671 0.15176 0.0
C15 C 0.25348 0.18747 0.12691 0.0
N16 N 0.23624 0.19337 0.07727 0.0
C17 C 0.22888 0.18645 0.10322 0.0
C18 C 0.21407 0.18539 0.10654 0.0
C19 C 0.21194 0.19204 0.08102 0.0
C20 C 0.22566 0.19681 0.06356 0.0
N21 N 0.24843 0.17412 0.05972 0.0
C22 C 0.23726 0.14217 0.04977 0.0
C23 C 0.25142 0.15082 0.06454 0.0
C24 C 0.25676 0.16665 0.06921 0.0
C25 C 0.22843 0.14972 0.04116 0.0
C26 C 0.23418 0.16566 0.04641 0.0
N27 N 0.26699 0.2199 0.06696 0.0
C28 C 0.2721 0.24176 0.09509 0.0
C29 C 0.28154 0.25272 0.07217 0.0
C30 C 0.28339 0.24691 0.04653 0.0
C31 C 0.27619 0.23053 0.04448 0.0
C32 C 0.26476 0.22542 0.09191 0.0
H33 H 0.27823 0.2265 0.02472 0.0
H34 H 0.25738 0.21726 0.10974 0.0
H35 H 0.26787 0.17288 0.08006 0.0
H36 H 0.22729 0.17123 0.03907 0.0
C37 C 0.27295 0.19893 -0.00052 0.0
C38 C 0.22769 0.20348 0.0335 0.0
C39 C 0.29284 0.20186 0.09615 0.0
C40 C 0.23734 0.18364 0.12528 0.0
H41 H 0.23141 0.20642 0.97094 0.0
H42 H 0.25533 0.20235 0.95211 0.0
H43 H 0.30502 0.2035 0.99885 0.0
H44 H 0.31631 0.20671 0.05173 0.0
H45 H 0.28624 0.19386 0.15765 0.0
H46 H 0.25549 0.18221 0.1733 0.0
H47 H 0.20604 0.1809 0.12559 0.0
H48 H 0.20145 0.19316 0.0758 0.0
H49 H 0.25848 0.14545 0.07236 0.0
H50 H 0.2174 0.14357 0.02966 0.0
H51 H 0.27028 0.24579 0.11521 0.0
H52 H 0.29069 0.25498 0.02839 0.0
C53 C 0.84998 0.07993 0.07733 0.0
C54 C 0.85922 0.07866 0.09939 0.0
C55 C 0.84869 0.06789 0.12034 0.0
C56 C 0.83366 0.06323 0.11003 0.0
N57 N 0.83394 0.07022 0.08353 0.0
Co58 Co 0.81475 0.06758 0.06131 0.0
N59 N 0.79926 0.05331 0.09374 0.0
C60 C 0.80307 0.0488 0.11952 0.0
C61 C 0.78991 0.03893 0.13739 0.0
C62 C 0.77688 0.03692 0.12211 0.0
C63 C 0.78286 0.04567 0.09562 0.0
N64 N 0.79562 0.06492 0.03901 0.0
C65 C 0.77958 0.05616 0.04598 0.0
C66 C 0.77039 0.05725 0.0236 0.0
C67 C 0.78094 0.06703 0.0018 0.0
C68 C 0.79592 0.0713 0.01194 0.0
N69 N 0.83022 0.08198 0.02906 0.0
C70 C 0.82644 0.08622 0.00305 0.0
C71 C 0.83958 0.0965 0.98553 0.0
C72 C 0.85259 0.09924 0.00147 0.0
C73 C 0.84658 0.09049 0.02797 0.0
N74 N 0.8134 0.04864 0.04436 0.0
C75 C 0.81131 0.02143 0.02147 0.0
C76 C 0.81085 0.03341 0.00346 0.0
C77 C 0.8119 0.0468 0.01526 0.0
C78 C 0.8127 0.02333 0.05108 0.0
C79 C 0.81379 0.03685 0.06186 0.0
N80 N 0.81624 0.08646 0.07835 0.0
C81 C 0.81797 0.11231 0.07317 0.0
C82 C 0.82194 0.11463 0.10212 0.0
C83 C 0.82227 0.10236 0.11916 0.0
C84 C 0.81926 0.08848 0.10707 0.0
C85 C 0.81525 0.09822 0.06174 0.0
H86 H 0.81974 0.07968 0.12134 0.0
H87 H 0.81268 0.0972 0.03932 0.0
H88 H 0.81146 0.05547 0.0004 0.0
H89 H 0.81484 0.03736 0.08454 0.0
C90 C 0.81911 0.05359 0.12587 0.0
C91 C 0.85691 0.09113 0.05168 0.0
C92 C 0.77245 0.04624 0.07296 0.0
C93 C 0.81043 0.08102 0.99632 0.0
H94 H 0.87222 0.0852 0.10066 0.0
H95 H 0.85163 0.06438 0.14114 0.0
H96 H 0.78979 0.03367 0.15885 0.0
H97 H 0.76438 0.02974 0.12954 0.0
H98 H 0.75737 0.05139 0.02287 0.0
H99 H 0.77805 0.07045 0.98087 0.0
H100 H 0.83969 0.10169 0.96401 0.0
H101 H 0.8651 0.10704 0.99457 0.0
H102 H 0.80987 0.03259 0.98031 0.0
H103 H 0.81272 0.01429 0.06621 0.0
H104 H 0.81748 0.1215 0.05922 0.0
H105 H 0.82493 0.10349 0.14187 0.0
C106 C 0.97369 0.76382 0.01227 0.0
C107 C 0.97676 0.76409 0.98292 0.0
C108 C 0.96418 0.75072 0.97344 0.0
C109 C 0.95421 0.74303 0.99745 0.0
N110 N 0.95961 0.75074 0.0217 0.0
Co111 Co 0.94919 0.7433 0.06162 0.0
N112 N 0.93001 0.72434 0.04725 0.0
C113 C 0.92747 0.72038 0.0196 0.0
C114 C 0.91266 0.70746 0.01595 0.0
C115 C 0.90513 0.7031 0.04276 0.0
C116 C 0.91585 0.71364 0.06127 0.0
N117 N 0.93914 0.73555 0.10169 0.0
C118 C 0.92447 0.72328 0.11081 0.0
C119 C 0.92219 0.72222 0.14065 0.0
C120 C 0.93582 0.73432 0.15066 0.0
C121 C 0.9456 0.74207 0.12652 0.0
N122 N 0.9679 0.76268 0.07584 0.0
C123 C 0.97013 0.76685 0.10336 0.0
C124 C 0.98375 0.78107 0.10653 0.0
C125 C 0.99067 0.78637 0.07937 0.0
C126 C 0.98087 0.77494 0.06116 0.0
N127 N 0.93734 0.75526 0.0553 0.0
C128 C 0.91571 0.76711 0.04799 0.0
C129 C 0.92304 0.7677 0.07439 0.0
C130 C 0.93383 0.76181 0.07752 0.0
C131 C 0.92036 0.76159 0.02487 0.0
C132 C 0.93111 0.75584 0.02891 0.0
N133 N 0.96088 0.73102 0.06789 0.0
C134 C 0.97914 0.72475 0.09492 0.0
C135 C 0.97712 0.71327 0.07623 0.0
C136 C 0.96694 0.71096 0.05325 0.0
C137 C 0.95908 0.71985 0.04951 0.0
C138 C 0.97093 0.73337 0.09047 0.0
H139 H 0.95165 0.71742 0.03142 0.0
H140 H 0.9729 0.74183 0.10564 0.0
H141 H 0.93883 0.76222 0.0983 0.0
H142 H 0.9338 0.75147 0.0105 0.0
C143 C 0.93916 0.72924 0.99752 0.0
C144 C 0.98459 0.77619 0.03025 0.0
C145 C 0.91195 0.71316 0.09188 0.0
C146 C 0.9597 0.75672 0.12598 0.0
H147 H 0.98701 0.77305 0.96973 0.0
H148 H 0.96239 0.74715 0.95156 0.0
H149 H 0.9078 0.70205 0.99606 0.0
H150 H 0.89305 0.69339 0.04808 0.0
H151 H 0.91154 0.71397 0.15379 0.0
H152 H 0.93797 0.73759 0.17272 0.0
H153 H 0.98822 0.78681 0.12629 0.0
H154 H 1.00177 0.79733 0.07366 0.0
H155 H 0.91998 0.77206 0.09287 0.0
H156 H 0.91547 0.7614 0.00372 0.0
H157 H 0.98683 0.72694 0.1132 0.0
H158 H 0.96517 0.70245 0.03779 0.0
C159 C 0.2118 0.24303 0.4808 0.0
C160 C 0.21624 0.24309 0.50933 0.0
C161 C 0.22231 0.25834 0.5169 0.0
C162 C 0.22122 0.26673 0.49271 0.0
N163 N 0.21464 0.25766 0.4705 0.0
Co164 Co 0.21166 0.26538 0.43137 0.0
N165 N 0.21421 0.28529 0.44546 0.0
C166 C 0.22083 0.29143 0.47029 0.0
C167 C 0.22053 0.30515 0.47449 0.0
C168 C 0.21331 0.30781 0.45074 0.0
C169 C 0.20968 0.29555 0.43327 0.0
N170 N 0.20889 0.27319 0.39228 0.0
C171 C 0.20495 0.28451 0.3845 0.0
C172 C 0.20441 0.28644 0.35463 0.0
C173 C 0.2081 0.27584 0.34347 0.0
C174 C 0.21072 0.26812 0.36704 0.0
N175 N 0.20905 0.24549 0.41702 0.0
C176 C 0.21038 0.24308 0.38913 0.0
C177 C 0.20823 0.22826 0.38559 0.0
C178 C 0.20562 0.22094 0.41298 0.0
C179 C 0.20638 0.23179 0.43182 0.0
N180 N 0.18837 0.25515 0.43964 0.0
C181 C 0.1552 0.24296 0.45059 0.0
C182 C 0.16101 0.24109 0.42419 0.0
C183 C 0.17761 0.24716 0.41924 0.0
C184 C 0.16637 0.25077 0.47153 0.0
C185 C 0.18281 0.25678 0.46563 0.0
N186 N 0.23506 0.27581 0.42337 0.0
C187 C 0.26028 0.27594 0.4287 0.0
C188 C 0.26893 0.29191 0.41774 0.0
C189 C 0.26015 0.29942 0.40854 0.0
C190 C 0.24328 0.29118 0.41145 0.0
C191 C 0.24344 0.26814 0.43128 0.0
H192 H 0.23693 0.29742 0.40478 0.0
H193 H 0.23725 0.25598 0.44033 0.0
H194 H 0.18178 0.24563 0.39873 0.0
H195 H 0.19105 0.26309 0.48195 0.0
C196 C 0.2243 0.28247 0.49115 0.0
C197 C 0.20665 0.22936 0.46343 0.0
C198 C 0.20269 0.29427 0.40468 0.0
C199 C 0.21173 0.25424 0.36681 0.0
H200 H 0.2155 0.23321 0.52303 0.0
H201 H 0.22669 0.26269 0.53773 0.0
H202 H 0.22436 0.312 0.4932 0.0
H203 H 0.21093 0.31758 0.44689 0.0
H204 H 0.20165 0.29463 0.34223 0.0
H205 H 0.20812 0.27356 0.32097 0.0
H206 H 0.2083 0.22327 0.3655 0.0
H207 H 0.20381 0.20913 0.41851 0.0
H208 H 0.1528 0.23498 0.40749 0.0
H209 H 0.1625 0.25269 0.49209 0.0
H210 H 0.26646 0.26949 0.43549 0.0
H211 H 0.26625 0.31176 0.40004 0.0
C212 C 0.77684 0.93186 0.41606 0.0
C213 C 0.78666 0.93299 0.39287 0.0
C214 C 0.78632 0.94362 0.37236 0.0
C215 C 0.77627 0.9483 0.38403 0.0
N216 N 0.77039 0.94152 0.41102 0.0
Co217 Co 0.75405 0.94375 0.43468 0.0
N218 N 0.75245 0.95836 0.40348 0.0
C219 C 0.76097 0.96372 0.37788 0.0
C220 C 0.75762 0.9739 0.36118 0.0
C221 C 0.74643 0.9753 0.37714 0.0
C222 C 0.74359 0.96586 0.40283 0.0
N223 N 0.73732 0.94549 0.458 0.0
C224 C 0.72954 0.95384 0.45191 0.0
C225 C 0.71891 0.95179 0.47446 0.0
C226 C 0.71994 0.94177 0.49541 0.0
C227 C 0.73113 0.93831 0.48464 0.0
N228 N 0.75599 0.92956 0.46622 0.0
C229 C 0.74859 0.92534 0.49281 0.0
C230 C 0.75231 0.91556 0.5099 0.0
C231 C 0.76254 0.91318 0.49308 0.0
C232 C 0.76435 0.92159 0.46651 0.0
N233 N 0.77155 0.96273 0.45173 0.0
C234 C 0.79528 0.99089 0.47414 0.0
C235 C 0.78276 0.97898 0.49204 0.0
C236 C 0.77104 0.96513 0.48043 0.0
C237 C 0.79603 0.98825 0.44517 0.0
C238 C 0.78428 0.97418 0.43462 0.0
N239 N 0.73668 0.92485 0.41748 0.0
C240 C 0.71462 0.89767 0.42244 0.0
C241 C 0.71409 0.89712 0.39238 0.0
C242 C 0.72472 0.91081 0.3752 0.0
C243 C 0.73582 0.92436 0.38804 0.0
C244 C 0.7258 0.91164 0.43446 0.0
H245 H 0.7438 0.93419 0.37357 0.0
H246 H 0.72558 0.91142 0.45751 0.0
H247 H 0.76158 0.95667 0.49501 0.0
H248 H 0.78572 0.97298 0.41241 0.0
C249 C 0.77163 0.95853 0.36979 0.0
C250 C 0.77339 0.9209 0.44181 0.0
C251 C 0.7323 0.96437 0.42579 0.0
C252 C 0.73693 0.92937 0.49991 0.0
H253 H 0.79312 0.92653 0.39069 0.0
H254 H 0.79231 0.94719 0.35112 0.0
H255 H 0.76267 0.97958 0.33987 0.0
H256 H 0.74094 0.98243 0.37059 0.0
H257 H 0.71141 0.95723 0.47596 0.0
H258 H 0.71362 0.93782 0.51636 0.0
H259 H 0.74766 0.9103 0.53159 0.0
H260 H 0.7677 0.90572 0.49937 0.0
H261 H 0.78172 0.98052 0.51469 0.0
H262 H 0.8057 0.99703 0.43061 0.0
H263 H 0.70644 0.8874 0.43663 0.0
H264 H 0.72486 0.91094 0.35182 0.0
C265 C 0.04218 0.80929 0.48455 0.0
C266 C 0.03829 0.80307 0.51319 0.0
C267 C 0.048 0.79668 0.52015 0.0
C268 C 0.05727 0.79935 0.49553 0.0
N269 N 0.05417 0.80725 0.47361 0.0
Co270 Co 0.0644 0.81277 0.43403 0.0
N271 N 0.08236 0.80936 0.44714 0.0
C272 C 0.08237 0.80108 0.47168 0.0
C273 C 0.0966 0.80088 0.4749 0.0
C274 C 0.10609 0.80955 0.45082 0.0
C275 C 0.09706 0.81456 0.43425 0.0
N276 N 0.07459 0.81817 0.39452 0.0
C277 C 0.08995 0.82267 0.38612 0.0
C278 C 0.09215 0.82552 0.35623 0.0
C279 C 0.07758 0.82262 0.3457 0.0
C280 C 0.06735 0.81819 0.36963 0.0
N281 N 0.04647 0.81616 0.42064 0.0
C282 C 0.04235 0.81672 0.39295 0.0
C283 C 0.02925 0.81893 0.39011 0.0
C284 C 0.02468 0.81958 0.41773 0.0
C285 C 0.03527 0.81767 0.43602 0.0
N286 N 0.07706 0.83511 0.44205 0.0
C287 C 0.09844 0.86698 0.45136 0.0
C288 C 0.08973 0.86297 0.426 0.0
C289 C 0.07908 0.84699 0.42181 0.0
C290 C 0.09558 0.85468 0.47244 0.0
C291 C 0.08491 0.83892 0.46739 0.0
N292 N 0.0519 0.7903 0.4262 0.0
C293 C 0.02749 0.76495 0.43293 0.0
C294 C 0.03497 0.7574 0.42017 0.0
C295 C 0.051 0.76692 0.40952 0.0
C296 C 0.05922 0.78324 0.41285 0.0
C297 C 0.03607 0.78133 0.43547 0.0
H298 H 0.07165 0.79008 0.4051 0.0
H299 H 0.02995 0.78663 0.44569 0.0
H300 H 0.07287 0.84422 0.40182 0.0
H301 H 0.08338 0.82977 0.48374 0.0
C302 C 0.07017 0.79635 0.49317 0.0
C303 C 0.03296 0.81531 0.46769 0.0
C304 C 0.10233 0.82341 0.40572 0.0
C305 C 0.05216 0.81708 0.37015 0.0
H306 H 0.02913 0.80284 0.52733 0.0
H307 H 0.0484 0.79098 0.54084 0.0
H308 H 0.09998 0.79568 0.49314 0.0
H309 H 0.11823 0.81192 0.44601 0.0
H310 H 0.10313 0.82933 0.34341 0.0
H311 H 0.075 0.82429 0.3234 0.0
H312 H 0.02383 0.8202 0.3703 0.0
H313 H 0.01445 0.82088 0.42377 0.0
H314 H 0.09153 0.87203 0.40904 0.0
H315 H 0.10168 0.85716 0.49269 0.0
H316 H 0.01522 0.75824 0.4418 0.0
H317 H 0.05727 0.76184 0.39882 0.0
C318 C 0.79458 0.81366 0.94227 0.0
C319 C 0.80775 0.81738 0.92409 0.0
C320 C 0.80417 0.82099 0.89711 0.0
C321 C 0.78912 0.81936 0.90036 0.0
N322 N 0.78291 0.81509 0.92785 0.0
Co323 Co 0.76136 0.8114 0.94211 0.0
N324 N 0.75547 0.81518 0.90188 0.0
C325 C 0.76443 0.81836 0.87712 0.0
C326 C 0.75724 0.82035 0.85282 0.0
C327 C 0.74288 0.81851 0.86261 0.0
C328 C 0.7422 0.81559 0.89249 0.0
N329 N 0.73989 0.80797 0.95642 0.0
C330 C 0.72825 0.80943 0.94191 0.0
C331 C 0.71553 0.80675 0.96037 0.0
C332 C 0.71929 0.80356 0.98752 0.0
C333 C 0.73405 0.80454 0.98416 0.0
N334 N 0.76718 0.80732 0.9823 0.0
C335 C 0.75804 0.8037 0.00698 0.0
C336 C 0.76485 0.8008 0.03102 0.0
C337 C 0.77913 0.80246 0.02111 0.0
C338 C 0.78023 0.80635 0.99149 0.0
N339 N 0.77097 0.83449 0.94752 0.0
C340 C 0.78196 0.86691 0.95414 0.0
C341 C 0.77448 0.8554 0.97724 0.0
C342 C 0.76904 0.83943 0.97346 0.0
C343 C 0.78427 0.86201 0.92783 0.0
C344 C 0.77894 0.8459 0.92514 0.0
N345 N 0.75163 0.78835 0.93672 0.0
C346 C 0.73478 0.76083 0.95481 0.0
C347 C 0.73772 0.75563 0.92944 0.0
C348 C 0.74774 0.76703 0.90771 0.0
C349 C 0.7547 0.78321 0.91192 0.0
C350 C 0.74164 0.77708 0.95784 0.0
H351 H 0.76255 0.79134 0.89487 0.0
H352 H 0.73863 0.78022 0.97747 0.0
H353 H 0.76305 0.83131 0.99177 0.0
H354 H 0.78125 0.84296 0.90464 0.0
C355 C 0.78001 0.82047 0.87769 0.0
C356 C 0.79355 0.80835 0.97283 0.0
C357 C 0.72902 0.81397 0.911 0.0
C358 C 0.74288 0.80267 0.00666 0.0
H359 H 0.81869 0.8172 0.92967 0.0
H360 H 0.81147 0.824 0.87733 0.0
H361 H 0.76205 0.8232 0.83071 0.0
H362 H 0.73405 0.81954 0.84933 0.0
H363 H 0.70477 0.80729 0.95486 0.0
H364 H 0.71224 0.80111 0.00743 0.0
H365 H 0.75987 0.79755 0.05302 0.0
H366 H 0.78761 0.8007 0.03416 0.0
H367 H 0.77237 0.85864 0.99803 0.0
H368 H 0.79023 0.87059 0.90944 0.0
H369 H 0.72695 0.75237 0.9721 0.0
H370 H 0.75041 0.76347 0.88774 0.0
C371 C 0.19289 0.98223 0.94625 0.0
C372 C 0.18999 0.99246 0.92797 0.0
C373 C 0.18789 0.98693 0.90123 0.0
C374 C 0.18966 0.97373 0.90466 0.0
N375 N 0.19253 0.97031 0.93206 0.0
Co376 Co 0.1967 0.95265 0.94613 0.0
N377 N 0.19473 0.94521 0.90624 0.0
C378 C 0.19161 0.9516 0.88186 0.0
C379 C 0.18997 0.94346 0.85805 0.0
C380 C 0.19193 0.93096 0.86778 0.0
C381 C 0.19482 0.93227 0.89712 0.0
N382 N 0.201 0.93507 0.96017 0.0
C383 C 0.20065 0.92316 0.94591 0.0
C384 C 0.2041 0.91325 0.96394 0.0
C385 C 0.20638 0.91888 0.99066 0.0
C386 C 0.20429 0.93191 0.98746 0.0
N387 N 0.19849 0.96002 0.98609 0.0
C388 C 0.20119 0.95342 0.01069 0.0
C389 C 0.20231 0.96138 0.03459 0.0
C390 C 0.20043 0.97394 0.02466 0.0
C391 C 0.19831 0.97293 0.99514 0.0
N392 N 0.17314 0.9379 0.95368 0.0
C393 C 0.14066 0.91331 0.96119 0.0
C394 C 0.1517 0.9158 0.98276 0.0
C395 C 0.16765 0.92804 0.97865 0.0
C396 C 0.14592 0.92408 0.93654 0.0
C397 C 0.16208 0.93626 0.93333 0.0
N398 N 0.22032 0.96719 0.93861 0.0
C399 C 0.24758 0.97913 0.95546 0.0
C400 C 0.25388 0.98745 0.9286 0.0
C401 C 0.24313 0.98553 0.90672 0.0
C402 C 0.22648 0.97557 0.91227 0.0
C403 C 0.23099 0.96905 0.95986 0.0
H404 H 0.21884 0.97485 0.89496 0.0
H405 H 0.22714 0.96286 0.98067 0.0
H406 H 0.17539 0.92896 0.99575 0.0
H407 H 0.16545 0.94393 0.91389 0.0
C408 C 0.18941 0.96476 0.88234 0.0
C409 C 0.19676 0.98484 0.9765 0.0
C410 C 0.1967 0.9205 0.91565 0.0
C411 C 0.20403 0.94059 0.01007 0.0
H412 H 0.18979 1.00304 0.93324 0.0
H413 H 0.18575 0.99214 0.88147 0.0
H414 H 0.18716 0.94603 0.83639 0.0
H415 H 0.19089 0.92172 0.85476 0.0
H416 H 0.2046 0.90284 0.95843 0.0
H417 H 0.2088 0.91381 0.01029 0.0
H418 H 0.20476 0.95868 0.05644 0.0
H419 H 0.20094 0.98304 0.03752 0.0
H420 H 0.14813 0.90817 0.00272 0.0
H421 H 0.1378 0.92279 0.9193 0.0
H422 H 0.25549 0.98012 0.97294 0.0
H423 H 0.24752 0.99185 0.88556 0.0
C424 C 0.02524 0.21444 0.94845 0.0
C425 C 0.01584 0.20263 0.93057 0.0
C426 C 0.02326 0.20742 0.90373 0.0
C427 C 0.03667 0.22183 0.90664 0.0
N428 N 0.03839 0.22653 0.93379 0.0
Co429 Co 0.05595 0.247 0.9471 0.0
N430 N 0.06599 0.25455 0.90695 0.0
C431 C 0.0604 0.24701 0.88261 0.0
C432 C 0.06987 0.25503 0.85826 0.0
C433 C 0.08244 0.2684 0.86764 0.0
C434 C 0.07991 0.26769 0.89734 0.0
N435 N 0.07374 0.26735 0.96048 0.0
C436 C 0.08722 0.27905 0.94591 0.0
C437 C 0.09706 0.29059 0.96383 0.0
C438 C 0.08966 0.28595 0.99074 0.0
C439 C 0.07579 0.27187 0.9878 0.0
N440 N 0.04565 0.23954 0.98719 0.0
C441 C 0.05087 0.24739 0.01134 0.0
C442 C 0.04103 0.23961 0.03544 0.0
C443 C 0.02864 0.22607 0.02609 0.0
C444 C 0.03163 0.22639 0.99669 0.0
N445 N 0.06974 0.2371 0.95486 0.0
C446 C 0.09417 0.22888 0.9631 0.0
C447 C 0.08892 0.23436 0.98544 0.0
C448 C 0.07681 0.23827 0.98097 0.0
C449 C 0.08604 0.22635 0.93719 0.0
C450 C 0.07385 0.23041 0.93363 0.0
N451 N 0.04242 0.25719 0.93937 0.0
C452 C 0.0318 0.27369 0.95476 0.0
C453 C 0.02374 0.27235 0.92904 0.0
C454 C 0.02502 0.26297 0.9087 0.0
C455 C 0.03424 0.25547 0.91436 0.0
C456 C 0.04107 0.26629 0.95925 0.0
H457 H 0.03461 0.24838 0.89816 0.0
H458 H 0.047 0.26812 0.97912 0.0
H459 H 0.07377 0.24271 0.99879 0.0
H460 H 0.06825 0.22852 0.91323 0.0
C461 C 0.04701 0.23181 0.88379 0.0
C462 C 0.02068 0.21402 0.97873 0.0
C463 C 0.09156 0.27928 0.91561 0.0
C464 C 0.06492 0.26224 0.01048 0.0
H465 H 1.00454 0.19185 0.93605 0.0
H466 H 0.01906 0.20137 0.88419 0.0
H467 H 0.06815 0.25133 0.83647 0.0
H468 H 0.09256 0.27744 0.85428 0.0
H469 H 0.10859 0.30108 0.95819 0.0
H470 H 0.0941 0.2919 0.01032 0.0
H471 H 0.04257 0.24344 0.05713 0.0
H472 H 0.01845 0.21705 0.03934 0.0
H473 H 0.09438 0.23594 0.00632 0.0
H474 H 0.08947 0.22188 0.91934 0.0
H475 H 0.03093 0.28035 0.97176 0.0
H476 H 0.01914 0.26154 0.88828 0.0
C477 C 0.81756 0.79903 0.54877 0.0
C478 C 0.81994 0.81134 0.56529 0.0
C479 C 0.82259 0.80731 0.59268 0.0
C480 C 0.82165 0.79282 0.59143 0.0
N481 N 0.81863 0.78735 0.56484 0.0
Co482 Co 0.81617 0.76668 0.5537 0.0
N483 N 0.81895 0.76035 0.59453 0.0
C484 C 0.8205 0.76836 0.61806 0.0
C485 C 0.8223 0.76115 0.64319 0.0
C486 C 0.82206 0.74778 0.63521 0.0
C487 C 0.82017 0.74767 0.60553 0.0
N488 N 0.81435 0.74627 0.54239 0.0
C489 C 0.81666 0.73525 0.55815 0.0
C490 C 0.81538 0.72339 0.54151 0.0
C491 C 0.81239 0.72715 0.51412 0.0
C492 C 0.81206 0.74105 0.51558 0.0
N493 N 0.81281 0.77278 0.51302 0.0
C494 C 0.80991 0.76411 0.48993 0.0
C495 C 0.80741 0.77102 0.46509 0.0
C496 C 0.80856 0.78484 0.47281 0.0
C497 C 0.81169 0.78556 0.50205 0.0
N498 N 0.8399 0.77712 0.54574 0.0
C499 C 0.873 0.78708 0.53731 0.0
C500 C 0.86215 0.78025 0.51555 0.0
C501 C 0.84588 0.77555 0.52006 0.0
C502 C 0.8672 0.78986 0.56269 0.0
C503 C 0.8507 0.78484 0.56643 0.0
N504 N 0.79237 0.75599 0.56165 0.0
C505 C 0.76527 0.73701 0.54913 0.0
C506 C 0.75853 0.74065 0.57207 0.0
C507 C 0.76905 0.75223 0.58969 0.0
C508 C 0.7858 0.75963 0.58423 0.0
C509 C 0.78198 0.74474 0.54433 0.0
H510 H 0.79317 0.76823 0.59859 0.0
H511 H 0.78615 0.74141 0.5263 0.0
H512 H 0.8383 0.77025 0.50267 0.0
H513 H 0.84685 0.78689 0.58651 0.0
C514 C 0.82205 0.78345 0.61532 0.0
C515 C 0.81344 0.7986 0.51838 0.0
C516 C 0.82056 0.73579 0.58859 0.0
C517 C 0.80989 0.74964 0.49217 0.0
H518 H 0.81939 0.82197 0.55851 0.0
H519 H 0.82443 0.8139 0.6115 0.0
H520 H 0.82422 0.76543 0.66455 0.0
H521 H 0.8236 0.73932 0.64947 0.0
H522 H 0.81673 0.71322 0.54842 0.0
H523 H 0.81094 0.72068 0.49526 0.0
H524 H 0.80499 0.76652 0.44391 0.0
H525 H 0.80719 0.7934 0.45856 0.0
H526 H 0.86615 0.7783 0.49515 0.0
H527 H 0.8752 0.7953 0.58005 0.0
H528 H 0.75766 0.72834 0.53452 0.0
H529 H 0.76442 0.75541 0.60788 0.0
C530 C 0.21615 0.02724 0.54901 0.0
C531 C 0.20312 0.01685 0.5674 0.0
C532 C 0.20656 0.02239 0.59414 0.0
C533 C 0.2214 0.03582 0.59056 0.0
N534 N 0.22758 0.03935 0.56305 0.0
Co535 Co 0.24902 0.05756 0.54849 0.0
N536 N 0.25461 0.06495 0.58832 0.0
C537 C 0.24561 0.058 0.61312 0.0
C538 C 0.25256 0.06577 0.63711 0.0
C539 C 0.26673 0.07865 0.62701 0.0
C540 C 0.26751 0.07805 0.59724 0.0
N541 N 0.2705 0.07583 0.53396 0.0
C542 C 0.28169 0.08819 0.54791 0.0
C543 C 0.29442 0.0989 0.52926 0.0
C544 C 0.29115 0.09316 0.50263 0.0
C545 C 0.27663 0.07938 0.50639 0.0
N546 N 0.24337 0.05011 0.50859 0.0
C547 C 0.25248 0.05689 0.48384 0.0
C548 C 0.24573 0.04875 0.46006 0.0
C549 C 0.23154 0.03588 0.47025 0.0
C550 C 0.23045 0.03692 0.49976 0.0
N551 N 0.23927 0.07152 0.54171 0.0
C552 C 0.22995 0.09503 0.53453 0.0
C553 C 0.23836 0.09273 0.51248 0.0
C554 C 0.24274 0.08099 0.51639 0.0
C555 C 0.22534 0.08465 0.55964 0.0
C556 C 0.23008 0.07302 0.56275 0.0
N557 N 0.25902 0.0438 0.55525 0.0
C558 C 0.27589 0.03365 0.53804 0.0
C559 C 0.27386 0.02476 0.56438 0.0
C560 C 0.26396 0.02542 0.58597 0.0
C561 C 0.25662 0.0348 0.5809 0.0
C562 C 0.26862 0.04306 0.53412 0.0
H563 H 0.24908 0.03463 0.59809 0.0
H564 H 0.27097 0.04961 0.51367 0.0
H565 H 0.24933 0.08015 0.49882 0.0
H566 H 0.22658 0.06568 0.58264 0.0
C567 C 0.23028 0.0447 0.6129 0.0
C568 C 0.21736 0.02469 0.51873 0.0
C569 C 0.2803 0.09066 0.57828 0.0
C570 C 0.26781 0.07033 0.48404 0.0
H571 H 0.1924 0.00617 0.56212 0.0
H572 H 0.19933 0.01703 0.614 0.0
H573 H 0.2477 0.06268 0.6592 0.0
H574 H 0.27532 0.0877 0.63999 0.0
H575 H 0.30479 0.10997 0.53412 0.0
H576 H 0.29822 0.09871 0.48265 0.0
H577 H 0.25075 0.05159 0.4381 0.0
H578 H 0.22312 0.02656 0.45752 0.0
H579 H 0.24179 0.10015 0.49227 0.0
H580 H 0.21865 0.08586 0.57723 0.0
H581 H 0.28298 0.03332 0.52013 0.0
H582 H 0.26199 0.01892 0.60692 0.0
C583 C 0.9875 0.19795 0.55817 0.0
C584 C 0.99664 0.19372 0.57618 0.0
C585 C 0.98909 0.18954 0.60291 0.0
C586 C 0.97579 0.19137 0.5997 0.0
N587 N 0.97427 0.19631 0.57246 0.0
Co588 Co 0.9567 0.20045 0.55832 0.0
N589 N 0.94676 0.19623 0.59843 0.0
C590 C 0.9523 0.19264 0.62308 0.0
C591 C 0.94309 0.19057 0.64738 0.0
C592 C 0.93081 0.19284 0.6377 0.0
C593 C 0.93321 0.19605 0.60787 0.0
N594 N 0.93888 0.20423 0.54409 0.0
C595 C 0.92575 0.20275 0.55856 0.0
C596 C 0.91583 0.20561 0.54012 0.0
C597 C 0.92287 0.20892 0.51301 0.0
C598 C 0.9366 0.20784 0.51639 0.0
N599 N 0.967 0.20515 0.51831 0.0
C600 C 0.96176 0.20922 0.49375 0.0
C601 C 0.97176 0.21259 0.46992 0.0
C602 C 0.9843 0.2108 0.47988 0.0
C603 C 0.98115 0.20636 0.50931 0.0
N604 N 0.943 0.17751 0.55172 0.0
C605 C 0.92005 0.14553 0.54377 0.0
C606 C 0.92545 0.15734 0.52081 0.0
C607 C 0.93671 0.17304 0.52523 0.0
C608 C 0.92714 0.1499 0.57044 0.0
C609 C 0.93862 0.16577 0.57381 0.0
N610 N 0.97017 0.22333 0.56486 0.0
C611 C 0.98093 0.25103 0.54817 0.0
C612 C 0.98926 0.25586 0.5735 0.0
C613 C 0.98789 0.24417 0.59455 0.0
C614 C 0.97852 0.22807 0.58966 0.0
C615 C 0.9714 0.23487 0.54447 0.0
H616 H 0.97822 0.21967 0.60616 0.0
H617 H 0.96512 0.23203 0.52492 0.0
H618 H 0.93984 0.18134 0.50687 0.0
H619 H 0.94349 0.16829 0.5947 0.0
C620 C 0.96551 0.19014 0.62236 0.0
C621 C 0.99225 0.20403 0.52801 0.0
C622 C 0.92186 0.19807 0.58942 0.0
C623 C 0.94753 0.21008 0.494 0.0
H624 H 0.00781 0.19398 0.57068 0.0
H625 H 0.99312 0.18611 0.62258 0.0
H626 H 0.94485 0.18739 0.6694 0.0
H627 H 0.92098 0.19188 0.65101 0.0
H628 H 0.90455 0.20513 0.54562 0.0
H629 H 0.91841 0.21159 0.49314 0.0
H630 H 0.97027 0.21621 0.44802 0.0
H631 H 0.99471 0.2128 0.46702 0.0
H632 H 0.92089 0.1546 0.49937 0.0
H633 H 0.92353 0.14127 0.589 0.0
H634 H 0.98153 0.25972 0.53142 0.0
H635 H 0.99425 0.24743 0.61446 0.0
C636 C 0.90506 0.53286 0.35733 0.0
C637 C 0.90688 0.53861 0.32846 0.0
C638 C 0.92292 0.54518 0.32072 0.0
C639 C 0.93 0.54302 0.34511 0.0
N640 N 0.91936 0.53529 0.36761 0.0
Co641 Co 0.92472 0.53014 0.40687 0.0
N642 N 0.94598 0.53365 0.39272 0.0
C643 C 0.95385 0.54172 0.36773 0.0
C644 C 0.96822 0.5419 0.36363 0.0
C645 C 0.96945 0.53345 0.38761 0.0
C646 C 0.95573 0.52863 0.40509 0.0
N647 N 0.93015 0.52509 0.44606 0.0
C648 C 0.94119 0.52076 0.45392 0.0
C649 C 0.94113 0.51832 0.4838 0.0
C650 C 0.92959 0.52123 0.49489 0.0
C651 C 0.9233 0.5253 0.47126 0.0
N652 N 0.90351 0.52666 0.4213 0.0
C653 C 0.89931 0.52641 0.44916 0.0
C654 C 0.88404 0.52423 0.45277 0.0
C655 C 0.87834 0.52325 0.42546 0.0
C656 C 0.89051 0.5249 0.40659 0.0
N657 N 0.91494 0.50773 0.39931 0.0
C658 C 0.90324 0.47575 0.38947 0.0
C659 C 0.89948 0.47992 0.41556 0.0
C660 C 0.90535 0.49595 0.41996 0.0
C661 C 0.91269 0.48796 0.36826 0.0
C662 C 0.91842 0.50379 0.3736 0.0
N663 N 0.93472 0.55267 0.4142 0.0
C664 C 0.93525 0.5778 0.40763 0.0
C665 C 0.95046 0.58561 0.41978 0.0
C666 C 0.95731 0.57634 0.42993 0.0
C667 C 0.94932 0.55999 0.42684 0.0
C668 C 0.92758 0.56141 0.40531 0.0
H669 H 0.95513 0.55332 0.43424 0.0
H670 H 0.91601 0.55592 0.39559 0.0
H671 H 0.90236 0.49884 0.44026 0.0
H672 H 0.92599 0.51286 0.35709 0.0
C673 C 0.94599 0.54617 0.34664 0.0
C674 C 0.89002 0.5268 0.37493 0.0
C675 C 0.9526 0.51998 0.4338 0.0
C676 C 0.90919 0.52636 0.47145 0.0
H677 H 0.89764 0.53838 0.31461 0.0
H678 H 0.92865 0.55057 0.29965 0.0
H679 H 0.97644 0.54688 0.34485 0.0
H680 H 0.97926 0.53105 0.39164 0.0
H681 H 0.94865 0.51483 0.49625 0.0
H682 H 0.92576 0.51985 0.5174 0.0
H683 H 0.8777 0.52322 0.47287 0.0
H684 H 0.86671 0.5219 0.42003 0.0
H685 H 0.89207 0.47086 0.43245 0.0
H686 H 0.91608 0.48536 0.34791 0.0
H687 H 0.92943 0.58431 0.39912 0.0
H688 H 0.96883 0.58164 0.44011 0.0
C689 C 0.52082 0.41618 0.41022 0.0
C690 C 0.5303 0.41491 0.43181 0.0
C691 C 0.51997 0.40412 0.45297 0.0
C692 C 0.50482 0.39946 0.44322 0.0
N693 N 0.50485 0.40645 0.41687 0.0
Co694 Co 0.48547 0.40386 0.39539 0.0
N695 N 0.4703 0.38981 0.42836 0.0
C696 C 0.47435 0.38538 0.45396 0.0
C697 C 0.46134 0.37552 0.47216 0.0
C698 C 0.44817 0.37345 0.45729 0.0
C699 C 0.45393 0.38222 0.43077 0.0
N700 N 0.46616 0.40118 0.37375 0.0
C701 C 0.45019 0.39243 0.38122 0.0
C702 C 0.44076 0.3938 0.3596 0.0
C703 C 0.4511 0.40354 0.33748 0.0
C704 C 0.46617 0.40759 0.34684 0.0
N705 N 0.50061 0.41808 0.36266 0.0
C706 C 0.4966 0.42229 0.33685 0.0
C707 C 0.5096 0.43253 0.31899 0.0
C708 C 0.52276 0.4353 0.33452 0.0
C709 C 0.51696 0.42661 0.36113 0.0
N710 N 0.48376 0.38478 0.37839 0.0
C711 C 0.48105 0.35734 0.35536 0.0
C712 C 0.48069 0.36941 0.33745 0.0
C713 C 0.48204 0.3829 0.34932 0.0
C714 C 0.48267 0.35928 0.38494 0.0
C715 C 0.48407 0.37291 0.39579 0.0
N716 N 0.48727 0.42286 0.41247 0.0
C717 C 0.48841 0.44845 0.40769 0.0
C718 C 0.4927 0.45089 0.43647 0.0
C719 C 0.49364 0.43887 0.4532 0.0
C720 C 0.49076 0.42505 0.441 0.0
C721 C 0.48586 0.43445 0.39612 0.0
H722 H 0.49168 0.41642 0.45506 0.0
H723 H 0.48303 0.43335 0.37383 0.0
H724 H 0.48163 0.39162 0.33455 0.0
H725 H 0.48526 0.37344 0.41845 0.0
C726 C 0.49044 0.39 0.45962 0.0
C727 C 0.52745 0.42745 0.38463 0.0
C728 C 0.44334 0.38242 0.40817 0.0
C729 C 0.48054 0.4172 0.33071 0.0
H730 H 0.54331 0.42147 0.43267 0.0
H731 H 0.52312 0.40064 0.4736 0.0
H732 H 0.46141 0.3702 0.49346 0.0
H733 H 0.43572 0.36609 0.46491 0.0
H734 H 0.42774 0.38823 0.35969 0.0
H735 H 0.44798 0.40712 0.31692 0.0
H736 H 0.50953 0.43772 0.29757 0.0
H737 H 0.53521 0.44314 0.32735 0.0
H738 H 0.47955 0.36858 0.31433 0.0
H739 H 0.48261 0.35018 0.4 0.0
H740 H 0.48749 0.45746 0.39397 0.0
H741 H 0.49659 0.44011 0.47578 0.0
C742 C 0.64009 0.10081 0.35177 0.0
C743 C 0.64411 0.10189 0.32261 0.0
C744 C 0.632 0.08882 0.31143 0.0
C745 C 0.62137 0.08045 0.33433 0.0
N746 N 0.62587 0.08746 0.35945 0.0
Co747 Co 0.61441 0.07869 0.39836 0.0
N748 N 0.59613 0.05993 0.38162 0.0
C749 C 0.59439 0.05694 0.35344 0.0
C750 C 0.57988 0.04407 0.34801 0.0
C751 C 0.57166 0.03874 0.37419 0.0
C752 C 0.58174 0.04866 0.39416 0.0
N753 N 0.60346 0.06953 0.43745 0.0
C754 C 0.5888 0.0568 0.44489 0.0
C755 C 0.5858 0.05448 0.47463 0.0
C756 C 0.59887 0.06645 0.48634 0.0
C757 C 0.6091 0.07527 0.46319 0.0
N758 N 0.63212 0.09788 0.41495 0.0
C759 C 0.63321 0.10133 0.44288 0.0
C760 C 0.64628 0.11567 0.44775 0.0
C761 C 0.65403 0.12177 0.42134 0.0
C762 C 0.64528 0.11067 0.40184 0.0
N763 N 0.60196 0.09008 0.3922 0.0
C764 C 0.57993 0.10145 0.38363 0.0
C765 C 0.58515 0.09988 0.41131 0.0
C766 C 0.59629 0.09446 0.41502 0.0
C767 C 0.5869 0.0983 0.36026 0.0
C768 C 0.59764 0.09258 0.36497 0.0
N769 N 0.62676 0.0671 0.40434 0.0
C770 C 0.64568 0.06174 0.4311 0.0
C771 C 0.64537 0.05168 0.41065 0.0
C772 C 0.6353 0.04922 0.38743 0.0
C773 C 0.62617 0.05689 0.3848 0.0
C774 C 0.6364 0.0693 0.42752 0.0
H775 H 0.61879 0.05437 0.3666 0.0
H776 H 0.63736 0.07698 0.44364 0.0
H777 H 0.59979 0.09347 0.43664 0.0
H778 H 0.60192 0.08988 0.34617 0.0
C779 C 0.60652 0.06663 0.33259 0.0
C780 C 0.65022 0.11267 0.37131 0.0
C781 C 0.57687 0.04743 0.4245 0.0
C782 C 0.62256 0.09029 0.46436 0.0
H783 H 0.6547 0.11118 0.31062 0.0
H784 H 0.63099 0.08585 0.28919 0.0
H785 H 0.57561 0.03937 0.32735 0.0
H786 H 0.55951 0.02891 0.37805 0.0
H787 H 0.57498 0.04548 0.48649 0.0
H788 H 0.60032 0.06895 0.50886 0.0
H789 H 0.64993 0.12091 0.46816 0.0
H790 H 0.66502 0.13303 0.41703 0.0
H791 H 0.58032 0.10227 0.43023 0.0
H792 H 0.58392 0.09996 0.33823 0.0
H793 H 0.65332 0.06405 0.44948 0.0
H794 H 0.63434 0.04128 0.37133 0.0
C795 C 0.87894 0.57987 0.81435 0.0
C796 C 0.88111 0.57862 0.84382 0.0
C797 C 0.88239 0.59192 0.85449 0.0
C798 C 0.88097 0.60053 0.83104 0.0
N799 N 0.87875 0.59349 0.80601 0.0
Co800 Co 0.87669 0.60219 0.76656 0.0
N801 N 0.87759 0.62131 0.78251 0.0
C802 C 0.87896 0.62465 0.81054 0.0
C803 C 0.87815 0.63805 0.81513 0.0
C804 C 0.87582 0.64344 0.78854 0.0
C805 C 0.87539 0.633 0.7692 0.0
N806 N 0.87517 0.61111 0.72702 0.0
C807 C 0.87395 0.62416 0.71884 0.0
C808 C 0.87309 0.62605 0.68904 0.0
C809 C 0.87358 0.61363 0.67802 0.0
C810 C 0.87473 0.60493 0.7016 0.0
N811 N 0.87509 0.58278 0.75071 0.0
C812 C 0.87336 0.57932 0.72276 0.0
C813 C 0.87223 0.565 0.7184 0.0
C814 C 0.87325 0.55888 0.7452 0.0
C815 C 0.87496 0.56989 0.76443 0.0
N816 N 0.85279 0.59105 0.77219 0.0
C817 C 0.81909 0.57809 0.77994 0.0
C818 C 0.82602 0.57853 0.75303 0.0
C819 C 0.84278 0.58487 0.74971 0.0
C820 C 0.82931 0.58385 0.80294 0.0
C821 C 0.84589 0.59019 0.79866 0.0
N822 N 0.90071 0.61353 0.7611 0.0
C823 C 0.92514 0.61971 0.7338 0.0
C824 C 0.93481 0.62922 0.75497 0.0
C825 C 0.92709 0.63091 0.77892 0.0
C826 C 0.91028 0.62312 0.78146 0.0
C827 C 0.90825 0.61197 0.73733 0.0
H828 H 0.90538 0.62509 0.80022 0.0
H829 H 0.90157 0.60474 0.72064 0.0
H830 H 0.84744 0.58487 0.72874 0.0
H831 H 0.8529 0.59463 0.81705 0.0
C832 C 0.88068 0.61478 0.83208 0.0
C833 C 0.87691 0.56772 0.79533 0.0
C834 C 0.87253 0.63449 0.73854 0.0
C835 C 0.87354 0.59006 0.70091 0.0
H836 H 0.88158 0.569 0.85633 0.0
H837 H 0.88396 0.59487 0.87677 0.0
H838 H 0.87886 0.64312 0.83548 0.0
H839 H 0.87439 0.65377 0.7839 0.0
H840 H 0.87175 0.63517 0.6766 0.0
H841 H 0.87255 0.61091 0.65563 0.0
H842 H 0.87101 0.55974 0.6981 0.0
H843 H 0.87295 0.54765 0.74998 0.0
H844 H 0.81857 0.57399 0.73462 0.0
H845 H 0.82461 0.58397 0.82414 0.0
H846 H 0.93055 0.61798 0.71485 0.0
H847 H 0.934 0.63839 0.79565 0.0
C848 C 0.44231 0.26253 0.75461 0.0
C849 C 0.45454 0.26582 0.73441 0.0
C850 C 0.45764 0.27958 0.71844 0.0
C851 C 0.44712 0.28386 0.7296 0.0
N852 N 0.43757 0.27362 0.75149 0.0
Co853 Co 0.42029 0.27495 0.77303 0.0
N854 N 0.4194 0.28979 0.74214 0.0
C855 C 0.43087 0.29825 0.72116 0.0
C856 C 0.42739 0.30805 0.70347 0.0
C857 C 0.41295 0.3058 0.71424 0.0
C858 C 0.40841 0.29472 0.73802 0.0
N859 N 0.403 0.27616 0.7948 0.0
C860 C 0.39319 0.28195 0.78603 0.0
C861 C 0.38295 0.28064 0.8087 0.0
C862 C 0.38677 0.27418 0.83255 0.0
C863 C 0.39902 0.27182 0.82318 0.0
N864 N 0.42133 0.26028 0.80393 0.0
C865 C 0.4158 0.25807 0.83152 0.0
C866 C 0.41835 0.24723 0.848 0.0
C867 C 0.42595 0.24232 0.82959 0.0
C868 C 0.42756 0.25045 0.8028 0.0
N869 N 0.43676 0.29323 0.79182 0.0
C870 C 0.46215 0.3212 0.81106 0.0
C871 C 0.4473 0.32012 0.80441 0.0
C872 C 0.43489 0.30616 0.79471 0.0
C873 C 0.46361 0.30755 0.80953 0.0
C874 C 0.45075 0.29368 0.80017 0.0
N875 N 0.40404 0.2568 0.75388 0.0
C876 C 0.38036 0.23085 0.75595 0.0
C877 C 0.38259 0.22987 0.72644 0.0
C878 C 0.39545 0.24283 0.71085 0.0
C879 C 0.40589 0.25619 0.72485 0.0
C880 C 0.3913 0.24438 0.76931 0.0
H881 H 0.4157 0.2659 0.7122 0.0
H882 H 0.38964 0.24468 0.79221 0.0
H883 H 0.42395 0.30608 0.78871 0.0
H884 H 0.45236 0.28351 0.79867 0.0
C885 C 0.44372 0.29536 0.71685 0.0
C886 C 0.43594 0.24931 0.77733 0.0
C887 C 0.39467 0.29068 0.75792 0.0
C888 C 0.40577 0.264 0.83946 0.0
H889 H 0.46052 0.259 0.73135 0.0
H890 H 0.46601 0.2853 0.69999 0.0
H891 H 0.43439 0.31574 0.68475 0.0
H892 H 0.40668 0.31191 0.70598 0.0
H893 H 0.37398 0.28442 0.80826 0.0
H894 H 0.38114 0.27135 0.85403 0.0
H895 H 0.4145 0.24286 0.87035 0.0
H896 H 0.42986 0.23375 0.83524 0.0
H897 H 0.44529 0.33009 0.80613 0.0
H898 H 0.47478 0.30769 0.8144 0.0
H899 H 0.37055 0.22105 0.76876 0.0
H900 H 0.39744 0.24265 0.68791 0.0
C901 C 0.71308 0.14505 0.81991 0.0
C902 C 0.70919 0.139 0.84863 0.0
C903 C 0.71857 0.13226 0.85565 0.0
C904 C 0.72768 0.1346 0.83098 0.0
N905 N 0.7248 0.1426 0.80896 0.0
Co906 Co 0.73498 0.14785 0.76935 0.0
N907 N 0.75255 0.14377 0.78244 0.0
C908 C 0.75239 0.13555 0.80719 0.0
C909 C 0.76643 0.135 0.81059 0.0
C910 C 0.77595 0.14333 0.78639 0.0
C911 C 0.76712 0.14844 0.76945 0.0
N912 N 0.7451 0.153 0.7298 0.0
C913 C 0.76027 0.15686 0.72124 0.0
C914 C 0.76234 0.15941 0.69131 0.0
C915 C 0.74793 0.15707 0.68091 0.0
C916 C 0.7379 0.1532 0.70496 0.0
N917 N 0.71744 0.15191 0.756 0.0
C918 C 0.71336 0.15261 0.72832 0.0
C919 C 0.70054 0.15525 0.72548 0.0
C920 C 0.69609 0.15603 0.7531 0.0
C921 C 0.70648 0.15377 0.77138 0.0
N922 N 0.7482 0.17016 0.77737 0.0
C923 C 0.76975 0.20195 0.78723 0.0
C924 C 0.76122 0.19809 0.76165 0.0
C925 C 0.75049 0.18216 0.7572 0.0
C926 C 0.76674 0.18951 0.80811 0.0
C927 C 0.75601 0.17381 0.80278 0.0
N928 N 0.7219 0.12543 0.76152 0.0
C929 C 0.69701 0.10049 0.76803 0.0
C930 C 0.70407 0.0926 0.75512 0.0
C931 C 0.72015 0.10174 0.74458 0.0
C932 C 0.72883 0.11803 0.7481 0.0
C933 C 0.70604 0.11684 0.77076 0.0
H934 H 0.74127 0.12456 0.74039 0.0
H935 H 0.70023 0.12241 0.78106 0.0
H936 H 0.74435 0.17953 0.73712 0.0
H937 H 0.75431 0.16457 0.81907 0.0
C938 C 0.74031 0.13121 0.82869 0.0
C939 C 0.70409 0.15133 0.80304 0.0
C940 C 0.77247 0.15701 0.74064 0.0
C941 C 0.72295 0.15259 0.70551 0.0
H942 H 0.70023 0.13911 0.86281 0.0
H943 H 0.7189 0.12658 0.87642 0.0
H944 H 0.76967 0.12982 0.82905 0.0
H945 H 0.78802 0.14544 0.78187 0.0
H946 H 0.7731 0.16255 0.67835 0.0
H947 H 0.74532 0.15866 0.65859 0.0
H948 H 0.69519 0.15666 0.70568 0.0
H949 H 0.68603 0.15761 0.75914 0.0
H950 H 0.76314 0.20724 0.74478 0.0
H951 H 0.77269 0.19185 0.82851 0.0
H952 H 0.68471 0.09408 0.77681 0.0
H953 H 0.72612 0.09639 0.73377 0.0
C954 C 0.45779 0.14668 0.27629 0.0
C955 C 0.47021 0.14874 0.25762 0.0
C956 C 0.46664 0.15222 0.23057 0.0
C957 C 0.45225 0.15194 0.23409 0.0
N958 N 0.44639 0.14859 0.26181 0.0
Co959 Co 0.42528 0.14605 0.27604 0.0
N960 N 0.41966 0.15022 0.23578 0.0
C961 C 0.42849 0.15298 0.21103 0.0
C962 C 0.42191 0.15605 0.18685 0.0
C963 C 0.40814 0.15544 0.19672 0.0
C964 C 0.40709 0.15196 0.22651 0.0
N965 N 0.40424 0.14367 0.29029 0.0
C966 C 0.39324 0.14627 0.27589 0.0
C967 C 0.38058 0.14388 0.29416 0.0
C968 C 0.38381 0.13991 0.32119 0.0
C969 C 0.39819 0.14006 0.31789 0.0
N970 N 0.43086 0.14178 0.3163 0.0
C971 C 0.42185 0.13872 0.34098 0.0
C972 C 0.42876 0.13628 0.3653 0.0
C973 C 0.44295 0.13767 0.3556 0.0
C974 C 0.44383 0.14077 0.32575 0.0
N975 N 0.43588 0.16921 0.28118 0.0
C976 C 0.44819 0.20188 0.28721 0.0
C977 C 0.43981 0.19053 0.31012 0.0
C978 C 0.43372 0.17443 0.30662 0.0
C979 C 0.45073 0.19669 0.26141 0.0
C980 C 0.44474 0.18042 0.25903 0.0
N981 N 0.41454 0.12283 0.27093 0.0
C982 C 0.39767 0.09548 0.29014 0.0
C983 C 0.39993 0.08989 0.26465 0.0
C984 C 0.40949 0.10103 0.2422 0.0
C985 C 0.41676 0.11731 0.24588 0.0
C986 C 0.40485 0.11182 0.29266 0.0
H987 H 0.4242 0.12516 0.22821 0.0
H988 H 0.40238 0.1152 0.31248 0.0
H989 H 0.42702 0.16644 0.32468 0.0
H990 H 0.44724 0.17718 0.23898 0.0
C991 C 0.4435 0.15379 0.21152 0.0
C992 C 0.45706 0.14229 0.30735 0.0
C993 C 0.39447 0.15139 0.24519 0.0
C994 C 0.40683 0.13798 0.34052 0.0
H995 H 0.48064 0.14752 0.26271 0.0
H996 H 0.4735 0.15424 0.21058 0.0
H997 H 0.42684 0.15894 0.16482 0.0
H998 H 0.40005 0.15777 0.18353 0.0
H999 H 0.37023 0.14518 0.28857 0.0
H1000 H 0.37676 0.13763 0.34104 0.0
H1001 H 0.42398 0.13366 0.38741 0.0
H1002 H 0.4516 0.13638 0.369 0.0
H1003 H 0.43751 0.19402 0.33049 0.0
H1004 H 0.45736 0.20514 0.2432 0.0
H1005 H 0.39018 0.08725 0.30798 0.0
H1006 H 0.41162 0.09721 0.22208 0.0
C1007 C 0.86071 0.31706 0.28674 0.0
C1008 C 0.85756 0.32757 0.26985 0.0
C1009 C 0.85484 0.3224 0.24277 0.0
C1010 C 0.85636 0.30904 0.2447 0.0
N1011 N 0.85976 0.30527 0.27143 0.0
Co1012 Co 0.86256 0.28656 0.28381 0.0
N1013 N 0.86052 0.28014 0.24324 0.0
C1014 C 0.85937 0.2882 0.21918 0.0
C1015 C 0.85874 0.28123 0.19419 0.0
C1016 C 0.85935 0.26781 0.20283 0.0
C1017 C 0.86013 0.26728 0.23278 0.0
N1018 N 0.86442 0.26729 0.29641 0.0
C1019 C 0.86247 0.25503 0.28127 0.0
C1020 C 0.86307 0.2432 0.29907 0.0
C1021 C 0.86546 0.24814 0.32635 0.0
C1022 C 0.86602 0.26256 0.32378 0.0
N1023 N 0.86555 0.29358 0.32414 0.0
C1024 C 0.86849 0.28651 0.34774 0.0
C1025 C 0.87117 0.29462 0.37199 0.0
C1026 C 0.87017 0.30784 0.36326 0.0
C1027 C 0.86683 0.30697 0.33412 0.0
N1028 N 0.83879 0.2733 0.29109 0.0
C1029 C 0.80565 0.25082 0.29996 0.0
C1030 C 0.81622 0.25441 0.32264 0.0
C1031 C 0.83254 0.26559 0.31782 0.0
C1032 C 0.81183 0.25929 0.27302 0.0
C1033 C 0.82829 0.27053 0.26916 0.0
N1034 N 0.88635 0.29965 0.27662 0.0
C1035 C 0.91336 0.30589 0.28934 0.0
C1036 C 0.92016 0.31828 0.2675 0.0
C1037 C 0.90974 0.32125 0.2503 0.0
C1038 C 0.89299 0.31178 0.25504 0.0
C1039 C 0.89663 0.29688 0.29358 0.0
H1040 H 0.88566 0.3145 0.24097 0.0
H1041 H 0.89235 0.28779 0.31088 0.0
H1042 H 0.83989 0.2674 0.33597 0.0
H1043 H 0.83229 0.27658 0.2481 0.0
C1044 C 0.85687 0.30111 0.22117 0.0
C1045 C 0.86546 0.31934 0.31665 0.0
C1046 C 0.85947 0.25386 0.25037 0.0
C1047 C 0.86821 0.27203 0.34653 0.0
H1048 H 0.85772 0.33815 0.27625 0.0
H1049 H 0.85271 0.3281 0.22365 0.0
H1050 H 0.85735 0.28511 0.17243 0.0
H1051 H 0.8588 0.25914 0.18876 0.0
H1052 H 0.86166 0.23202 0.29313 0.0
H1053 H 0.86643 0.24185 0.34581 0.0
H1054 H 0.87366 0.29136 0.39341 0.0
H1055 H 0.87186 0.31716 0.37673 0.0
H1056 H 0.8121 0.24818 0.34392 0.0
H1057 H 0.80405 0.2572 0.2549 0.0
H1058 H 0.92094 0.30327 0.3035 0.0
H1059 H 0.91446 0.33067 0.23295 0.0
C1060 C 0.69487 0.54834 0.27596 0.0
C1061 C 0.68558 0.53603 0.25893 0.0
C1062 C 0.69422 0.53918 0.23338 0.0
C1063 C 0.7082 0.55321 0.23614 0.0
N1064 N 0.7089 0.55911 0.2618 0.0
Co1065 Co 0.72667 0.57931 0.27441 0.0
N1066 N 0.73533 0.5873 0.2339 0.0
C1067 C 0.73148 0.57844 0.21106 0.0
C1068 C 0.73947 0.58697 0.18578 0.0
C1069 C 0.7492 0.60213 0.19316 0.0
C1070 C 0.74663 0.602 0.22273 0.0
N1071 N 0.74451 0.59945 0.28724 0.0
C1072 C 0.75523 0.61304 0.27162 0.0
C1073 C 0.766 0.62403 0.28952 0.0
C1074 C 0.76218 0.6169 0.31713 0.0
C1075 C 0.74928 0.60205 0.31464 0.0
N1076 N 0.71791 0.5712 0.31474 0.0
C1077 C 0.72581 0.5766 0.33904 0.0
C1078 C 0.71655 0.56868 0.36376 0.0
C1079 C 0.7019 0.5576 0.35437 0.0
C1080 C 0.70308 0.55944 0.32437 0.0
N1081 N 0.74057 0.56964 0.27886 0.0
C1082 C 0.7621 0.5582 0.29105 0.0
C1083 C 0.74578 0.54924 0.30029 0.0
C1084 C 0.7352 0.55513 0.29384 0.0
C1085 C 0.76707 0.57252 0.27417 0.0
C1086 C 0.75623 0.578 0.26848 0.0
N1087 N 0.71295 0.58911 0.27029 0.0
C1088 C 0.70218 0.60448 0.28994 0.0
C1089 C 0.69387 0.6039 0.26464 0.0
C1090 C 0.69524 0.59548 0.24237 0.0
C1091 C 0.70468 0.58809 0.24572 0.0
C1092 C 0.71171 0.59721 0.29217 0.0
H1093 H 0.70538 0.58166 0.2283 0.0
H1094 H 0.71808 0.59818 0.31175 0.0
H1095 H 0.7228 0.54816 0.30174 0.0
H1096 H 0.76078 0.58928 0.25629 0.0
C1097 C 0.71922 0.56257 0.21356 0.0
C1098 C 0.69035 0.54921 0.30571 0.0
C1099 C 0.75714 0.61521 0.23987 0.0
C1100 C 0.74051 0.59082 0.33768 0.0
H1101 H 0.67374 0.52593 0.26422 0.0
H1102 H 0.69038 0.53247 0.21451 0.0
H1103 H 0.7383 0.58272 0.16449 0.0
H1104 H 0.75771 0.61198 0.1786 0.0
H1105 H 0.77595 0.63577 0.28311 0.0
H1106 H 0.76807 0.62198 0.33667 0.0
H1107 H 0.71978 0.57113 0.38593 0.0
H1108 H 0.69156 0.54915 0.36798 0.0
H1109 H 0.7413 0.53805 0.31327 0.0
H1110 H 0.77939 0.57967 0.26567 0.0
H1111 H 0.70131 0.61041 0.30817 0.0
H1112 H 0.6893 0.59476 0.2222 0.0
C1113 C 0.48544 0.13025 0.88146 0.0
C1114 C 0.48656 0.14162 0.89931 0.0
C1115 C 0.48924 0.13716 0.92636 0.0
C1116 C 0.48954 0.12335 0.9236 0.0
N1117 N 0.48738 0.11876 0.89635 0.0
Co1118 Co 0.48606 0.09888 0.88329 0.0
N1119 N 0.489 0.09187 0.92358 0.0
C1120 C 0.49065 0.09948 0.94773 0.0
C1121 C 0.49327 0.09228 0.972 0.0
C1122 C 0.49359 0.07942 0.96278 0.0
C1123 C 0.49108 0.07949 0.93328 0.0
N1124 N 0.48476 0.079 0.87024 0.0
C1125 C 0.48741 0.06792 0.88495 0.0
C1126 C 0.48601 0.05634 0.86745 0.0
C1127 C 0.48267 0.06039 0.84055 0.0
C1128 C 0.48218 0.07414 0.84315 0.0
N1129 N 0.48316 0.10592 0.84294 0.0
C1130 C 0.48141 0.09825 0.8188 0.0
C1131 C 0.47925 0.10574 0.79441 0.0
C1132 C 0.47941 0.11888 0.80351 0.0
C1133 C 0.4816 0.11861 0.83309 0.0
N1134 N 0.50988 0.11005 0.87601 0.0
C1135 C 0.54324 0.12096 0.86917 0.0
C1136 C 0.53268 0.11321 0.84756 0.0
C1137 C 0.51628 0.10804 0.85127 0.0
C1138 C 0.53701 0.12422 0.89343 0.0
C1139 C 0.52036 0.11871 0.89639 0.0
N1140 N 0.46217 0.08748 0.89055 0.0
C1141 C 0.4353 0.07106 0.87371 0.0
C1142 C 0.42815 0.07164 0.89958 0.0
C1143 C 0.43846 0.08038 0.92092 0.0
C1144 C 0.45526 0.0882 0.91594 0.0
C1145 C 0.45206 0.07881 0.86984 0.0
H1146 H 0.4624 0.09477 0.93293 0.0
H1147 H 0.4565 0.07765 0.84971 0.0
H1148 H 0.50896 0.102 0.83412 0.0
H1149 H 0.51617 0.12116 0.91566 0.0
C1150 C 0.49091 0.114 0.94647 0.0
C1151 C 0.4817 0.13047 0.85093 0.0
C1152 C 0.4918 0.06816 0.91513 0.0
C1153 C 0.48088 0.08353 0.8201 0.0
H1154 H 0.48517 0.15188 0.89363 0.0
H1155 H 0.49038 0.14305 0.94589 0.0
H1156 H 0.49531 0.09625 0.9936 0.0
H1157 H 0.49592 0.07121 0.97615 0.0
H1158 H 0.48763 0.04623 0.87339 0.0
H1159 H 0.48135 0.05436 0.82115 0.0
H1160 H 0.47738 0.10189 0.77272 0.0
H1161 H 0.47781 0.12754 0.79002 0.0
H1162 H 0.53703 0.11085 0.82795 0.0
H1163 H 0.54479 0.1304 0.91059 0.0
H1164 H 0.42805 0.06483 0.85607 0.0
H1165 H 0.43366 0.08112 0.94155 0.0
C1166 C 0.88262 0.3636 0.88666 0.0
C1167 C 0.86848 0.35423 0.90323 0.0
C1168 C 0.8701 0.36155 0.92822 0.0
C1169 C 0.88507 0.37492 0.92544 0.0
N1170 N 0.89292 0.37647 0.90028 0.0
Co1171 Co 0.91485 0.39374 0.88754 0.0
N1172 N 0.92037 0.39969 0.92785 0.0
C1173 C 0.90966 0.39536 0.95034 0.0
C1174 C 0.91671 0.4016 0.97546 0.0
C1175 C 0.93283 0.41068 0.96831 0.0
C1176 C 0.93477 0.40949 0.93902 0.0
N1177 N 0.9368 0.41102 0.87454 0.0
C1178 C 0.94985 0.41984 0.8901 0.0
C1179 C 0.96279 0.43075 0.87199 0.0
C1180 C 0.95746 0.42906 0.84436 0.0
C1181 C 0.94167 0.41716 0.847 0.0
N1182 N 0.90909 0.38768 0.84742 0.0
C1183 C 0.91662 0.39667 0.82291 0.0
C1184 C 0.91008 0.38902 0.79848 0.0
C1185 C 0.89768 0.37431 0.80831 0.0
C1186 C 0.89735 0.37385 0.83827 0.0
N1187 N 0.90681 0.40889 0.88224 0.0
C1188 C 0.89786 0.43222 0.86979 0.0
C1189 C 0.88843 0.41679 0.8611 0.0
C1190 C 0.8931 0.40529 0.86762 0.0
C1191 C 0.91133 0.43537 0.88606 0.0
C1192 C 0.91559 0.42367 0.8919 0.0
N1193 N 0.92308 0.37881 0.89258 0.0
C1194 C 0.93854 0.36766 0.87381 0.0
C1195 C 0.93564 0.35809 0.89959 0.0
C1196 C 0.9262 0.35897 0.92176 0.0
C1197 C 0.91986 0.36926 0.91768 0.0
C1198 C 0.93232 0.37803 0.87087 0.0
H1199 H 0.91243 0.36955 0.9349 0.0
H1200 H 0.93513 0.3855 0.85101 0.0
H1201 H 0.88585 0.39361 0.86017 0.0
H1202 H 0.92629 0.42685 0.90371 0.0
C1203 C 0.89335 0.38428 0.94776 0.0
C1204 C 0.88561 0.36041 0.8576 0.0
C1205 C 0.94983 0.41991 0.92186 0.0
C1206 C 0.93161 0.41044 0.82403 0.0
H1207 H 0.85815 0.34324 0.89788 0.0
H1208 H 0.86172 0.35719 0.94678 0.0
H1209 H 0.91085 0.39975 0.99649 0.0
H1210 H 0.94196 0.41786 0.98286 0.0
H1211 H 0.97468 0.43942 0.87824 0.0
H1212 H 0.96433 0.43564 0.8247 0.0
H1213 H 0.9144 0.39324 0.77626 0.0
H1214 H 0.88995 0.36495 0.795 0.0
H1215 H 0.87785 0.41376 0.84857 0.0
H1216 H 0.91875 0.44692 0.89405 0.0
H1217 H 0.94591 0.36743 0.85627 0.0
H1218 H 0.92363 0.35167 0.94198 0.0
C1219 C 0.6529 0.53177 0.89018 0.0
C1220 C 0.66252 0.5273 0.90623 0.0
C1221 C 0.65423 0.52004 0.93201 0.0
C1222 C 0.64006 0.52045 0.93021 0.0
N1223 N 0.63892 0.52752 0.90496 0.0
Co1224 Co 0.62052 0.53053 0.89329 0.0
N1225 N 0.61223 0.52699 0.93404 0.0
C1226 C 0.61648 0.52035 0.95643 0.0
C1227 C 0.60878 0.51933 0.98213 0.0
C1228 C 0.59884 0.52546 0.97547 0.0
C1229 C 0.60097 0.5298 0.94589 0.0
N1230 N 0.6021 0.53361 0.8815 0.0
C1231 C 0.59154 0.53567 0.89774 0.0
C1232 C 0.58013 0.53679 0.88058 0.0
C1233 C 0.58353 0.53508 0.8528 0.0
C1234 C 0.59678 0.53304 0.85446 0.0
N1235 N 0.62882 0.53385 0.8526 0.0
C1236 C 0.62046 0.53294 0.82875 0.0
C1237 C 0.62952 0.53612 0.8036 0.0
C1238 C 0.64448 0.53916 0.81219 0.0
C1239 C 0.64367 0.53756 0.84222 0.0
N1240 N 0.60727 0.50769 0.88906 0.0
C1241 C 0.58716 0.47592 0.87799 0.0
C1242 C 0.60361 0.48373 0.86987 0.0
C1243 C 0.61345 0.49966 0.87544 0.0
C1244 C 0.58116 0.48409 0.89283 0.0
C1245 C 0.5914 0.49983 0.8984 0.0
N1246 N 0.63363 0.55335 0.8973 0.0
C1247 C 0.64352 0.58035 0.87775 0.0
C1248 C 0.65192 0.58621 0.90289 0.0
C1249 C 0.65104 0.5751 0.92504 0.0
C1250 C 0.642 0.5588 0.92171 0.0
C1251 C 0.63437 0.564 0.87555 0.0
H1252 H 0.64168 0.5506 0.93901 0.0
H1253 H 0.62788 0.56 0.85614 0.0
H1254 H 0.62594 0.50559 0.86806 0.0
H1255 H 0.58629 0.50573 0.90966 0.0
C1256 C 0.62908 0.51703 0.95321 0.0
C1257 C 0.65688 0.53898 0.86032 0.0
C1258 C 0.59049 0.53438 0.92953 0.0
C1259 C 0.60546 0.5322 0.83095 0.0
H1260 H 0.67426 0.52904 0.89994 0.0
H1261 H 0.65835 0.51561 0.95028 0.0
H1262 H 0.61037 0.5149 0.00326 0.0
H1263 H 0.59061 0.5262 0.99052 0.0
H1264 H 0.5701 0.53819 0.88757 0.0
H1265 H 0.57718 0.53543 0.83365 0.0
H1266 H 0.62594 0.53695 0.78167 0.0
H1267 H 0.65479 0.54232 0.79795 0.0
H1268 H 0.60869 0.47778 0.85834 0.0
H1269 H 0.56855 0.47838 0.89983 0.0
H1270 H 0.64404 0.58828 0.85961 0.0
H1271 H 0.65707 0.57887 0.9451 0.0
C1272 C 0.57182 0.86777 0.68876 0.0
C1273 C 0.57363 0.8734 0.65983 0.0
C1274 C 0.58971 0.88017 0.65223 0.0
C1275 C 0.59681 0.87822 0.67676 0.0
N1276 N 0.58616 0.87045 0.69922 0.0
Co1277 Co 0.59152 0.86548 0.73863 0.0
N1278 N 0.61296 0.86931 0.72474 0.0
C1279 C 0.6208 0.87735 0.6997 0.0
C1280 C 0.63529 0.87776 0.69577 0.0
C1281 C 0.63665 0.86952 0.71992 0.0
C1282 C 0.6229 0.86461 0.73736 0.0
N1283 N 0.59691 0.86058 0.77796 0.0
C1284 C 0.60818 0.85661 0.78611 0.0
C1285 C 0.60807 0.85429 0.81603 0.0
C1286 C 0.59626 0.8569 0.82685 0.0
C1287 C 0.58989 0.86069 0.80304 0.0
N1288 N 0.57015 0.8617 0.75277 0.0
C1289 C 0.56582 0.86144 0.78056 0.0
C1290 C 0.55047 0.85906 0.78396 0.0
C1291 C 0.54484 0.85796 0.75659 0.0
C1292 C 0.55714 0.85975 0.73789 0.0
N1293 N 0.5821 0.84307 0.73116 0.0
C1294 C 0.57169 0.81118 0.72214 0.0
C1295 C 0.5672 0.81524 0.74766 0.0
C1296 C 0.5725 0.83123 0.75171 0.0
C1297 C 0.58095 0.82345 0.70084 0.0
C1298 C 0.58599 0.83921 0.70575 0.0
N1299 N 0.60122 0.888 0.74587 0.0
C1300 C 0.62363 0.91175 0.76176 0.0
C1301 C 0.6168 0.92096 0.75117 0.0
C1302 C 0.60165 0.91307 0.73884 0.0
C1303 C 0.59404 0.89666 0.73665 0.0
C1304 C 0.61573 0.89541 0.75878 0.0
H1305 H 0.58252 0.89109 0.72675 0.0
H1306 H 0.62158 0.88882 0.76645 0.0
H1307 H 0.56919 0.83404 0.7718 0.0
H1308 H 0.59341 0.84831 0.68915 0.0
C1309 C 0.61285 0.88158 0.67846 0.0
C1310 C 0.55671 0.86154 0.70622 0.0
C1311 C 0.61992 0.85619 0.76627 0.0
C1312 C 0.57567 0.86154 0.803 0.0
H1313 H 0.56435 0.87296 0.64583 0.0
H1314 H 0.59545 0.88553 0.63115 0.0
H1315 H 0.64351 0.88276 0.67699 0.0
H1316 H 0.64658 0.86733 0.72406 0.0
H1317 H 0.61576 0.85114 0.82871 0.0
H1318 H 0.59237 0.85556 0.84931 0.0
H1319 H 0.54403 0.858 0.80397 0.0
H1320 H 0.53316 0.85645 0.75102 0.0
H1321 H 0.56008 0.8062 0.76478 0.0
H1322 H 0.58441 0.82094 0.68048 0.0
H1323 H 0.63508 0.91709 0.77215 0.0
H1324 H 0.59583 0.91954 0.73007 0.0
C1325 C 0.18554 0.75015 0.73903 0.0
C1326 C 0.19513 0.7474 0.75847 0.0
C1327 C 0.18506 0.73359 0.77495 0.0
C1328 C 0.16994 0.72869 0.76465 0.0
N1329 N 0.16988 0.73857 0.74282 0.0
Co1330 Co 0.1507 0.73598 0.72173 0.0
N1331 N 0.13558 0.72072 0.75296 0.0
C1332 C 0.13932 0.71282 0.77387 0.0
C1333 C 0.12644 0.70286 0.79229 0.0
C1334 C 0.11373 0.70439 0.78209 0.0
C1335 C 0.11957 0.71516 0.75777 0.0
N1336 N 0.13157 0.73359 0.70058 0.0
C1337 C 0.11593 0.7271 0.70984 0.0
C1338 C 0.10645 0.72746 0.68732 0.0
C1339 C 0.11648 0.73421 0.66318 0.0
C1340 C 0.13146 0.73759 0.67218 0.0
N1341 N 0.1658 0.75099 0.69032 0.0
C1342 C 0.16199 0.75292 0.66294 0.0
C1343 C 0.1749 0.76441 0.64619 0.0
C1344 C 0.18764 0.77 0.66411 0.0
C1345 C 0.18178 0.76149 0.69086 0.0
N1346 N 0.14983 0.71811 0.70294 0.0
C1347 C 0.14882 0.69129 0.68182 0.0
C1348 C 0.13458 0.69122 0.68952 0.0
C1349 C 0.13535 0.70467 0.70018 0.0
C1350 C 0.16355 0.70525 0.6839 0.0
C1351 C 0.16378 0.71858 0.69412 0.0
N1352 N 0.1517 0.75377 0.74085 0.0
C1353 C 0.15413 0.77976 0.73843 0.0
C1354 C 0.15615 0.78036 0.76835 0.0
C1355 C 0.15545 0.7672 0.78425 0.0
C1356 C 0.15333 0.75413 0.77012 0.0
C1357 C 0.15173 0.76628 0.72516 0.0
H1358 H 0.15345 0.74448 0.7829 0.0
H1359 H 0.15024 0.76612 0.70212 0.0
H1360 H 0.12419 0.70397 0.70693 0.0
H1361 H 0.17531 0.72914 0.69555 0.0
C1362 C 0.15539 0.71665 0.77777 0.0
C1363 C 0.19181 0.76306 0.7158 0.0
C1364 C 0.10926 0.71862 0.73839 0.0
C1365 C 0.14586 0.74609 0.65554 0.0
H1366 H 0.20804 0.75456 0.7604 0.0
H1367 H 0.1883 0.72813 0.79298 0.0
H1368 H 0.12635 0.69563 0.81127 0.0
H1369 H 0.10151 0.69809 0.79124 0.0
H1370 H 0.09354 0.72288 0.68797 0.0
H1371 H 0.11325 0.73654 0.64173 0.0
H1372 H 0.17489 0.76877 0.62404 0.0
H1373 H 0.1998 0.77935 0.65812 0.0
H1374 H 0.12294 0.68063 0.68836 0.0
H1375 H 0.17482 0.70584 0.67781 0.0
H1376 H 0.15444 0.78964 0.7254 0.0
H1377 H 0.1571 0.76722 0.80736 0.0
C1378 C 0.30511 0.43151 0.68623 0.0
C1379 C 0.30942 0.43096 0.65791 0.0
C1380 C 0.30008 0.41556 0.65114 0.0
C1381 C 0.2906 0.40757 0.67557 0.0
N1382 N 0.29323 0.41704 0.69716 0.0
Co1383 Co 0.28261 0.40998 0.73644 0.0
N1384 N 0.26503 0.38986 0.72331 0.0
C1385 C 0.26537 0.38327 0.69897 0.0
C1386 C 0.25122 0.36951 0.69537 0.0
C1387 C 0.24142 0.36732 0.71899 0.0
C1388 C 0.25022 0.37988 0.7358 0.0
N1389 N 0.27212 0.40285 0.77569 0.0
C1390 C 0.25679 0.39173 0.78383 0.0
C1391 C 0.2544 0.3903 0.81368 0.0
C1392 C 0.2688 0.401 0.82445 0.0
C1393 C 0.27913 0.40828 0.80068 0.0
N1394 N 0.30012 0.43006 0.74987 0.0
C1395 C 0.30397 0.43288 0.7776 0.0
C1396 C 0.31679 0.44773 0.78047 0.0
C1397 C 0.32147 0.45463 0.7528 0.0
C1398 C 0.31123 0.44352 0.73449 0.0
N1399 N 0.26962 0.42019 0.72724 0.0
C1400 C 0.24738 0.4308 0.71604 0.0
C1401 C 0.25571 0.43381 0.74188 0.0
C1402 C 0.26681 0.42844 0.74702 0.0
C1403 C 0.25113 0.4231 0.69545 0.0
C1404 C 0.26219 0.41792 0.70143 0.0
N1405 N 0.29539 0.39944 0.7453 0.0
C1406 C 0.32005 0.39853 0.73926 0.0
C1407 C 0.31247 0.38268 0.751 0.0
C1408 C 0.29634 0.37568 0.76108 0.0
C1409 C 0.28807 0.38424 0.75809 0.0
C1410 C 0.31136 0.40669 0.73676 0.0
H1411 H 0.27554 0.37832 0.76526 0.0
H1412 H 0.3175 0.41874 0.72712 0.0
H1413 H 0.27271 0.43049 0.76737 0.0
H1414 H 0.26432 0.4116 0.68541 0.0
C1415 C 0.2778 0.39186 0.67786 0.0
C1416 C 0.31374 0.44548 0.70286 0.0
C1417 C 0.24463 0.38172 0.76405 0.0
C1418 C 0.29414 0.42211 0.80035 0.0
H1419 H 0.3186 0.4406 0.64384 0.0
H1420 H 0.30002 0.41084 0.63067 0.0
H1421 H 0.24808 0.36234 0.67711 0.0
H1422 H 0.22921 0.35766 0.72322 0.0
H1423 H 0.24343 0.38237 0.82633 0.0
H1424 H 0.27119 0.40364 0.84678 0.0
H1425 H 0.32196 0.45303 0.8003 0.0
H1426 H 0.33154 0.46635 0.74677 0.0
H1427 H 0.25327 0.43974 0.75845 0.0
H1428 H 0.24537 0.42087 0.67485 0.0
H1429 H 0.33259 0.40458 0.73176 0.0
H1430 H 0.28993 0.36346 0.77024 0.0
C1431 C 0.54337 0.91038 0.1445 0.0
C1432 C 0.54276 0.9085 0.1745 0.0
C1433 C 0.53944 0.91968 0.18406 0.0
C1434 C 0.53829 0.92778 0.15946 0.0
N1435 N 0.54073 0.92245 0.13501 0.0
Co1436 Co 0.54039 0.93098 0.09478 0.0
N1437 N 0.5425 0.95095 0.10817 0.0
C1438 C 0.54019 0.95329 0.13567 0.0
C1439 C 0.54199 0.96804 0.13859 0.0
C1440 C 0.54532 0.97537 0.11114 0.0
C1441 C 0.54528 0.96461 0.09291 0.0
N1442 N 0.54006 0.93938 0.0544 0.0
C1443 C 0.54335 0.95411 0.04365 0.0
C1444 C 0.54118 0.95452 0.014 0.0
C1445 C 0.53604 0.93952 0.00611 0.0
C1446 C 0.53537 0.93079 0.03117 0.0
N1447 N 0.53811 0.91096 0.08154 0.0
C1448 C 0.53307 0.90533 0.05563 0.0
C1449 C 0.53254 0.89111 0.05269 0.0
C1450 C 0.53755 0.88753 0.0784 0.0
C1451 C 0.5409 0.89986 0.09558 0.0
N1452 N 0.51677 0.92121 0.09872 0.0
C1453 C 0.48394 0.9099 0.11197 0.0
C1454 C 0.49324 0.9243 0.09532 0.0
C1455 C 0.5095 0.92968 0.08894 0.0
C1456 C 0.49118 0.90073 0.12022 0.0
C1457 C 0.50759 0.90657 0.11329 0.0
N1458 N 0.56398 0.9409 0.09128 0.0
C1459 C 0.58837 0.94701 0.06456 0.0
C1460 C 0.59785 0.95562 0.08694 0.0
C1461 C 0.58992 0.95662 0.11148 0.0
C1462 C 0.5731 0.94924 0.11319 0.0
C1463 C 0.57149 0.93971 0.06721 0.0
H1464 H 0.56751 0.95038 0.13234 0.0
H1465 H 0.56452 0.93311 0.04976 0.0
H1466 H 0.51624 0.94101 0.07692 0.0
H1467 H 0.51297 0.8995 0.12066 0.0
C1468 C 0.53778 0.94196 0.15841 0.0
C1469 C 0.54568 0.90008 0.12565 0.0
C1470 C 0.54569 0.96706 0.06118 0.0
C1471 C 0.53171 0.91493 0.03323 0.0
H1472 H 0.54455 0.89999 0.18806 0.0
H1473 H 0.53867 0.92206 0.20628 0.0
H1474 H 0.54107 0.97292 0.1583 0.0
H1475 H 0.54704 0.9871 0.10507 0.0
H1476 H 0.5425 0.96444 -0.0003 0.0
H1477 H 0.53314 0.93547 0.98464 0.0
H1478 H 0.52952 0.88446 0.03373 0.0
H1479 H 0.53859 0.87704 0.08389 0.0
H1480 H 0.4881 0.9316 0.08768 0.0
H1481 H 0.48444 0.88945 0.13296 0.0
H1482 H 0.59392 0.94577 0.04528 0.0
H1483 H 0.59667 0.96331 0.12915 0.0
C1484 C 0.10925 0.59537 0.08841 0.0
C1485 C 0.12087 0.59821 0.06724 0.0
C1486 C 0.12356 0.61166 0.05064 0.0
C1487 C 0.11339 0.61621 0.06241 0.0
N1488 N 0.10449 0.60645 0.08532 0.0
Co1489 Co 0.08773 0.6081 0.10788 0.0
N1490 N 0.08593 0.62224 0.07665 0.0
C1491 C 0.09683 0.63031 0.05463 0.0
C1492 C 0.09273 0.63954 0.03672 0.0
C1493 C 0.0785 0.63735 0.04842 0.0
C1494 C 0.07473 0.62692 0.07303 0.0
N1495 N 0.07087 0.60953 0.1306 0.0
C1496 C 0.06075 0.61504 0.12231 0.0
C1497 C 0.05121 0.6143 0.1457 0.0
C1498 C 0.05574 0.60842 0.16942 0.0
C1499 C 0.06772 0.60586 0.15931 0.0
N1500 N 0.08978 0.59425 0.13919 0.0
C1501 C 0.0851 0.59271 0.16715 0.0
C1502 C 0.08818 0.58228 0.18379 0.0
C1503 C 0.09523 0.57694 0.16507 0.0
C1504 C 0.09599 0.58441 0.13796 0.0
N1505 N 0.1046 0.62692 0.12482 0.0
C1506 C 0.12999 0.65513 0.14338 0.0
C1507 C 0.11505 0.65389 0.13689 0.0
C1508 C 0.10263 0.63981 0.12754 0.0
C1509 C 0.13162 0.6416 0.1416 0.0
C1510 C 0.11878 0.62763 0.13253 0.0
N1511 N 0.07108 0.58934 0.09066 0.0
C1512 C 0.0489 0.56245 0.09576 0.0
C1513 C 0.04962 0.56134 0.06587 0.0
C1514 C 0.061 0.5747 0.04864 0.0
C1515 C 0.07162 0.58849 0.06141 0.0
C1516 C 0.0596 0.57662 0.10767 0.0
H1517 H 0.08059 0.59831 0.04761 0.0
H1518 H 0.05886 0.57715 0.13073 0.0
H1519 H 0.09156 0.63956 0.12193 0.0
H1520 H 0.12051 0.61752 0.13099 0.0
C1521 C 0.1096 0.62739 0.04952 0.0
C1522 C 0.10342 0.58258 0.1119 0.0
C1523 C 0.06144 0.62314 0.09386 0.0
C1524 C 0.07512 0.59864 0.17544 0.0
H1525 H 0.1267 0.59127 0.06392 0.0
H1526 H 0.13136 0.61696 0.03138 0.0
H1527 H 0.09913 0.64676 0.01717 0.0
H1528 H 0.07184 0.64305 0.04013 0.0
H1529 H 0.0423 0.61813 0.14583 0.0
H1530 H 0.0508 0.60618 0.19137 0.0
H1531 H 0.08498 0.57841 0.20648 0.0
H1532 H 0.0993 0.56849 0.17069 0.0
H1533 H 0.11293 0.66379 0.13868 0.0
H1534 H 0.14289 0.64189 0.14625 0.0
H1535 H 0.04015 0.55244 0.10982 0.0
H1536 H 0.06208 0.57434 0.02549 0.0
C1537 C 0.37702 0.47606 0.14725 0.0
C1538 C 0.3722 0.47002 0.1758 0.0
C1539 C 0.38149 0.46345 0.18475 0.0
C1540 C 0.39144 0.46582 0.1613 0.0
N1541 N 0.38915 0.47369 0.13826 0.0
Co1542 Co 0.40048 0.47872 0.09977 0.0
N1543 N 0.41781 0.47508 0.11575 0.0
C1544 C 0.41705 0.46705 0.14111 0.0
C1545 C 0.43114 0.46688 0.14655 0.0
C1546 C 0.44135 0.47531 0.12308 0.0
C1547 C 0.43284 0.4801 0.10455 0.0
N1548 N 0.41167 0.4835 0.06133 0.0
C1549 C 0.42715 0.48768 0.05468 0.0
C1550 C 0.43014 0.48997 0.02493 0.0
C1551 C 0.41597 0.48716 0.01266 0.0
C1552 C 0.40517 0.48329 0.03552 0.0
N1553 N 0.38327 0.4825 0.08354 0.0
C1554 C 0.38002 0.48297 0.05532 0.0
C1555 C 0.36736 0.48568 0.05042 0.0
C1556 C 0.36213 0.48673 0.07724 0.0
C1557 C 0.37188 0.48449 0.09715 0.0
N1558 N 0.41322 0.50117 0.10728 0.0
C1559 C 0.43464 0.53311 0.1164 0.0
C1560 C 0.4268 0.52894 0.0902 0.0
C1561 C 0.41612 0.51295 0.08612 0.0
C1562 C 0.43092 0.52093 0.13829 0.0
C1563 C 0.42025 0.50514 0.13332 0.0
N1564 N 0.38786 0.45615 0.09245 0.0
C1565 C 0.36258 0.43149 0.09518 0.0
C1566 C 0.37032 0.42336 0.08623 0.0
C1567 C 0.38696 0.43206 0.0797 0.0
C1568 C 0.39544 0.44844 0.08256 0.0
C1569 C 0.37155 0.4478 0.09839 0.0
H1570 H 0.40822 0.4548 0.07723 0.0
H1571 H 0.36528 0.45355 0.10623 0.0
H1572 H 0.41058 0.51007 0.06553 0.0
H1573 H 0.41804 0.49609 0.15039 0.0
C1574 C 0.40426 0.46261 0.16117 0.0
C1575 C 0.36854 0.48223 0.1286 0.0
C1576 C 0.43893 0.4887 0.07594 0.0
C1577 C 0.39023 0.48268 0.03396 0.0
H1578 H 0.36271 0.47003 0.1886 0.0
H1579 H 0.38118 0.45784 0.20597 0.0
H1580 H 0.43396 0.46191 0.16587 0.0
H1581 H 0.45363 0.4777 0.12007 0.0
H1582 H 0.44138 0.49336 0.01333 0.0
H1583 H 0.41404 0.48857 0.98989 0.0
H1584 H 0.36263 0.48699 0.0298 0.0
H1585 H 0.35199 0.48848 0.08171 0.0
H1586 H 0.42928 0.53789 0.07257 0.0
H1587 H 0.43633 0.52352 0.15915 0.0
H1588 H 0.34974 0.4252 0.10055 0.0
H1589 H 0.39337 0.42625 0.07239 0.0
C1590 C 0.12851 0.48031 0.60611 0.0
C1591 C 0.14207 0.48455 0.58859 0.0
C1592 C 0.14018 0.49138 0.56304 0.0
C1593 C 0.12564 0.49094 0.56641 0.0
N1594 N 0.11828 0.48427 0.59246 0.0
Co1595 Co 0.09717 0.48124 0.60635 0.0
N1596 N 0.09102 0.48402 0.56627 0.0
C1597 C 0.1012 0.49038 0.54281 0.0
C1598 C 0.09366 0.49101 0.51797 0.0
C1599 C 0.0778 0.48491 0.52633 0.0
C1600 C 0.07654 0.48097 0.556 0.0
N1601 N 0.076 0.47815 0.62041 0.0
C1602 C 0.0628 0.47574 0.60559 0.0
C1603 C 0.0508 0.47476 0.62405 0.0
C1604 C 0.05683 0.47692 0.65118 0.0
C1605 C 0.07211 0.47908 0.64786 0.0
N1606 N 0.10356 0.47869 0.64633 0.0
C1607 C 0.09689 0.47994 0.67088 0.0
C1608 C 0.1037 0.47732 0.69528 0.0
C1609 C 0.1154 0.47428 0.68543 0.0
C1610 C 0.1151 0.47528 0.65546 0.0
N1611 N 0.10685 0.5042 0.60942 0.0
C1612 C 0.11947 0.53671 0.6165 0.0
C1613 C 0.12809 0.52888 0.62492 0.0
C1614 C 0.12156 0.51266 0.62126 0.0
C1615 C 0.10453 0.52786 0.60406 0.0
C1616 C 0.09857 0.51181 0.60051 0.0
N1617 N 0.0874 0.45832 0.60345 0.0
C1618 C 0.07101 0.43151 0.62466 0.0
C1619 C 0.07286 0.42533 0.59936 0.0
C1620 C 0.08235 0.4362 0.57625 0.0
C1621 C 0.08961 0.45256 0.57883 0.0
C1622 C 0.07819 0.44792 0.62612 0.0
H1623 H 0.09692 0.46056 0.56079 0.0
H1624 H 0.07628 0.45218 0.64572 0.0
H1625 H 0.12836 0.50692 0.6283 0.0
H1626 H 0.08704 0.50553 0.59097 0.0
C1627 C 0.11727 0.49389 0.54431 0.0
C1628 C 0.12624 0.47355 0.63616 0.0
C1629 C 0.06199 0.47658 0.57391 0.0
C1630 C 0.08247 0.48044 0.67024 0.0
H1631 H 0.15226 0.48291 0.59377 0.0
H1632 H 0.14811 0.49551 0.54388 0.0
H1633 H 0.09901 0.49518 0.49629 0.0
H1634 H 0.06831 0.48395 0.51234 0.0
H1635 H 0.03911 0.47315 0.61832 0.0
H1636 H 0.05074 0.47682 0.67097 0.0
H1637 H 0.10006 0.47687 0.71759 0.0
H1638 H 0.12315 0.47153 0.69879 0.0
H1639 H 0.13979 0.53518 0.63426 0.0
H1640 H 0.09718 0.53314 0.59766 0.0
H1641 H 0.06417 0.42378 0.64345 0.0
H1642 H 0.08404 0.43218 0.55603 0.0
C1643 C 0.52399 0.65027 0.62339 0.0
C1644 C 0.52075 0.66072 0.60653 0.0
C1645 C 0.5181 0.65557 0.57942 0.0
C1646 C 0.5198 0.6423 0.58132 0.0
N1647 N 0.52316 0.63852 0.60809 0.0
Co1648 Co 0.52663 0.6202 0.62034 0.0
N1649 N 0.52492 0.61396 0.57967 0.0
C1650 C 0.52322 0.62173 0.5557 0.0
C1651 C 0.52283 0.61489 0.53067 0.0
C1652 C 0.52415 0.60184 0.53917 0.0
C1653 C 0.52509 0.60139 0.56908 0.0
N1654 N 0.52948 0.60149 0.63273 0.0
C1655 C 0.52828 0.58956 0.61739 0.0
C1656 C 0.5296 0.57808 0.63499 0.0
C1657 C 0.53168 0.58288 0.66235 0.0
C1658 C 0.53137 0.59689 0.66004 0.0
N1659 N 0.52898 0.62692 0.66087 0.0
C1660 C 0.53181 0.61983 0.6846 0.0
C1661 C 0.53402 0.62776 0.70897 0.0
C1662 C 0.53287 0.6409 0.70018 0.0
C1663 C 0.52994 0.64016 0.67088 0.0
N1664 N 0.50287 0.60614 0.62721 0.0
C1665 C 0.4701 0.58227 0.63442 0.0
C1666 C 0.48066 0.58526 0.65698 0.0
C1667 C 0.49676 0.59721 0.65306 0.0
C1668 C 0.47597 0.59217 0.60876 0.0
C1669 C 0.49228 0.60397 0.60565 0.0
N1670 N 0.55038 0.63406 0.61353 0.0
C1671 C 0.57758 0.64221 0.62815 0.0
C1672 C 0.58417 0.65408 0.60532 0.0
C1673 C 0.57347 0.65563 0.58643 0.0
C1674 C 0.55677 0.64558 0.59088 0.0
C1675 C 0.56088 0.63249 0.63184 0.0
H1676 H 0.54925 0.64742 0.57585 0.0
H1677 H 0.55679 0.62378 0.64976 0.0
H1678 H 0.5041 0.59868 0.6711 0.0
H1679 H 0.49615 0.61089 0.58533 0.0
C1680 C 0.52042 0.63445 0.55775 0.0
C1681 C 0.52882 0.65263 0.65325 0.0
C1682 C 0.52521 0.5883 0.58652 0.0
C1683 C 0.53259 0.60588 0.68312 0.0
H1684 H 0.52084 0.67126 0.61295 0.0
H1685 H 0.51595 0.66125 0.56031 0.0
H1686 H 0.52122 0.61864 0.50895 0.0
H1687 H 0.52399 0.59338 0.52501 0.0
H1688 H 0.52882 0.56718 0.62888 0.0
H1689 H 0.53292 0.57672 0.68174 0.0
H1690 H 0.53652 0.62456 0.73043 0.0
H1691 H 0.5343 0.65013 0.71366 0.0
H1692 H 0.47657 0.57824 0.6776 0.0
H1693 H 0.46819 0.59042 0.59073 0.0
H1694 H 0.58527 0.64024 0.6431 0.0
H1695 H 0.57791 0.6647 0.5685 0.0
C1696 C 0.35975 0.88051 0.61343 0.0
C1697 C 0.35026 0.86702 0.59917 0.0
C1698 C 0.35829 0.86885 0.57341 0.0
C1699 C 0.3722 0.88326 0.57348 0.0
N1700 N 0.37343 0.89056 0.59768 0.0
Co1701 Co 0.39153 0.91139 0.60688 0.0
N1702 N 0.39906 0.91746 0.56552 0.0
C1703 C 0.39452 0.9075 0.54427 0.0
C1704 C 0.40154 0.91498 0.51774 0.0
C1705 C 0.41137 0.93057 0.52263 0.0
C1706 C 0.40993 0.93171 0.55207 0.0
N1707 N 0.40974 0.93224 0.61626 0.0
C1708 C 0.42014 0.94511 0.59859 0.0
C1709 C 0.43162 0.95683 0.61449 0.0
C1710 C 0.42848 0.95098 0.64292 0.0
C1711 C 0.41531 0.93607 0.64289 0.0
N1712 N 0.38381 0.90512 0.64811 0.0
C1713 C 0.39233 0.91177 0.67123 0.0
C1714 C 0.38349 0.90538 0.69687 0.0
C1715 C 0.3685 0.89399 0.68939 0.0
C1716 C 0.36908 0.89398 0.65949 0.0
N1717 N 0.40553 0.90192 0.61247 0.0
C1718 C 0.42722 0.89076 0.62518 0.0
C1719 C 0.41114 0.88221 0.63594 0.0
C1720 C 0.40047 0.88796 0.62924 0.0
C1721 C 0.43185 0.90451 0.60674 0.0
C1722 C 0.42094 0.90986 0.60081 0.0
N1723 N 0.37768 0.92099 0.60158 0.0
C1724 C 0.36717 0.93701 0.6192 0.0
C1725 C 0.35812 0.935 0.59456 0.0
C1726 C 0.35901 0.9258 0.57347 0.0
C1727 C 0.3687 0.91873 0.57756 0.0
C1728 C 0.37698 0.93008 0.62213 0.0
H1729 H 0.36893 0.91146 0.56128 0.0
H1730 H 0.38403 0.93215 0.64109 0.0
H1731 H 0.38828 0.88135 0.63829 0.0
H1732 H 0.42523 0.92071 0.58732 0.0
C1733 C 0.3825 0.8916 0.54943 0.0
C1734 C 0.35578 0.88306 0.64238 0.0
C1735 C 0.42109 0.94575 0.56682 0.0
C1736 C 0.40707 0.92593 0.66748 0.0
H1737 H 0.33873 0.85697 0.60653 0.0
H1738 H 0.35409 0.861 0.55613 0.0
H1739 H 0.39966 0.90976 0.49726 0.0
H1740 H 0.41926 0.93991 0.50659 0.0
H1741 H 0.44158 0.96821 0.6063 0.0
H1742 H 0.43502 0.95692 0.66139 0.0
H1743 H 0.38718 0.90917 0.7183 0.0
H1744 H 0.35832 0.88674 0.70426 0.0
H1745 H 0.40695 0.87147 0.65019 0.0
H1746 H 0.44396 0.9113 0.59714 0.0
H1747 H 0.36692 0.94417 0.63587 0.0
H1748 H 0.35211 0.92392 0.55415 0.0
C1749 C 0.15207 0.46341 0.21619 0.0
C1750 C 0.15455 0.47578 0.23262 0.0
C1751 C 0.15798 0.47214 0.25969 0.0
C1752 C 0.15739 0.45781 0.25833 0.0
N1753 N 0.15388 0.45209 0.23199 0.0
Co1754 Co 0.15173 0.43154 0.22086 0.0
N1755 N 0.15498 0.42544 0.26153 0.0
C1756 C 0.15646 0.43346 0.28502 0.0
C1757 C 0.15816 0.42623 0.31023 0.0
C1758 C 0.15786 0.41282 0.30237 0.0
C1759 C 0.15613 0.41273 0.27264 0.0
N1760 N 0.15042 0.41135 0.20946 0.0
C1761 C 0.15281 0.40036 0.22518 0.0
C1762 C 0.15207 0.38882 0.20822 0.0
C1763 C 0.14918 0.39267 0.18082 0.0
C1764 C 0.14844 0.40634 0.18252 0.0
N1765 N 0.14761 0.43728 0.18048 0.0
C1766 C 0.14465 0.42855 0.15747 0.0
C1767 C 0.14135 0.43503 0.13295 0.0
C1768 C 0.14195 0.44858 0.14085 0.0
C1769 C 0.1456 0.44959 0.16986 0.0
N1770 N 0.17542 0.44247 0.21207 0.0
C1771 C 0.20857 0.45317 0.2018 0.0
C1772 C 0.19757 0.44703 0.17999 0.0
C1773 C 0.18127 0.4419 0.18546 0.0
C1774 C 0.20287 0.45494 0.2283 0.0
C1775 C 0.18635 0.44961 0.23291 0.0
N1776 N 0.12802 0.42042 0.22956 0.0
C1777 C 0.10105 0.40059 0.21833 0.0
C1778 C 0.09426 0.40486 0.24023 0.0
C1779 C 0.10467 0.41709 0.2568 0.0
C1780 C 0.12141 0.42457 0.25132 0.0
C1781 C 0.11773 0.40847 0.21333 0.0
H1782 H 0.12876 0.43368 0.2649 0.0
H1783 H 0.12197 0.40472 0.19598 0.0
H1784 H 0.17361 0.43713 0.16793 0.0
H1785 H 0.18264 0.45097 0.25374 0.0
C1786 C 0.15799 0.44853 0.28218 0.0
C1787 C 0.14697 0.46245 0.18634 0.0
C1788 C 0.15635 0.40068 0.25585 0.0
C1789 C 0.14552 0.41455 0.15944 0.0
H1790 H 0.15344 0.48613 0.22611 0.0
H1791 H 0.15995 0.47879 0.27846 0.0
H1792 H 0.15995 0.43048 0.3316 0.0
H1793 H 0.15915 0.40427 0.31678 0.0
H1794 H 0.15364 0.37876 0.21488 0.0
H1795 H 0.14791 0.38632 0.16186 0.0
H1796 H 0.13878 0.43042 0.11186 0.0
H1797 H 0.13988 0.45678 0.12689 0.0
H1798 H 0.20147 0.44592 0.15875 0.0
H1799 H 0.21096 0.45983 0.24579 0.0
H1800 H 0.09347 0.39134 0.20463 0.0
H1801 H 0.09995 0.42073 0.27416 0.0
C1802 C 0.5505 0.69488 0.21186 0.0
C1803 C 0.53689 0.68488 0.22934 0.0
C1804 C 0.53967 0.6907 0.2559 0.0
C1805 C 0.55472 0.70388 0.25309 0.0
N1806 N 0.56164 0.70703 0.22622 0.0
Co1807 Co 0.58367 0.7247 0.21301 0.0
N1808 N 0.58855 0.73204 0.25305 0.0
C1809 C 0.57869 0.72558 0.27704 0.0
C1810 C 0.58498 0.73349 0.30117 0.0
C1811 C 0.59969 0.74588 0.29208 0.0
C1812 C 0.60158 0.74477 0.26277 0.0
N1813 N 0.60569 0.74241 0.19975 0.0
C1814 C 0.61704 0.75427 0.21442 0.0
C1815 C 0.63051 0.76444 0.19678 0.0
C1816 C 0.62746 0.75899 0.16989 0.0
C1817 C 0.61238 0.74583 0.17262 0.0
N1818 N 0.57873 0.71722 0.17298 0.0
C1819 C 0.58842 0.72379 0.1488 0.0
C1820 C 0.58214 0.71557 0.12492 0.0
C1821 C 0.56769 0.70282 0.13446 0.0
C1822 C 0.56598 0.70403 0.16373 0.0
N1823 N 0.57491 0.73945 0.20444 0.0
C1824 C 0.56757 0.76436 0.19528 0.0
C1825 C 0.57554 0.76108 0.17383 0.0
C1826 C 0.57898 0.74871 0.17875 0.0
C1827 C 0.5623 0.75417 0.2207 0.0
C1828 C 0.56598 0.74182 0.22472 0.0
N1829 N 0.59269 0.71023 0.22153 0.0
C1830 C 0.60883 0.69884 0.20639 0.0
C1831 C 0.6057 0.68986 0.23284 0.0
C1832 C 0.59595 0.69122 0.25369 0.0
C1833 C 0.58943 0.70126 0.24748 0.0
C1834 C 0.60244 0.70897 0.20137 0.0
H1835 H 0.58176 0.70155 0.26391 0.0
H1836 H 0.60561 0.71568 0.18096 0.0
H1837 H 0.58535 0.74721 0.16162 0.0
H1838 H 0.56185 0.73463 0.2447 0.0
C1839 C 0.56317 0.71269 0.27579 0.0
C1840 C 0.55251 0.6919 0.18219 0.0
C1841 C 0.6155 0.75661 0.24479 0.0
C1842 C 0.60389 0.73694 0.14985 0.0
H1843 H 0.52624 0.67425 0.22366 0.0
H1844 H 0.53189 0.6856 0.27522 0.0
H1845 H 0.57932 0.73085 0.32261 0.0
H1846 H 0.60785 0.75495 0.30546 0.0
H1847 H 0.64131 0.77486 0.20268 0.0
H1848 H 0.63516 0.76421 0.1505 0.0
H1849 H 0.58768 0.71819 0.10338 0.0
H1850 H 0.55956 0.69345 0.12155 0.0
H1851 H 0.57936 0.76819 0.15329 0.0
H1852 H 0.55588 0.75604 0.23789 0.0
H1853 H 0.61647 0.69828 0.18973 0.0
H1854 H 0.59317 0.68439 0.27448 0.0
C1855 C 0.31806 0.86468 0.23556 0.0
C1856 C 0.32699 0.86037 0.25398 0.0
C1857 C 0.3178 0.85359 0.27909 0.0
C1858 C 0.30384 0.85415 0.27461 0.0
N1859 N 0.30369 0.8609 0.24832 0.0
Co1860 Co 0.28593 0.86407 0.23298 0.0
N1861 N 0.27615 0.86105 0.27244 0.0
C1862 C 0.2794 0.85447 0.29628 0.0
C1863 C 0.27063 0.85357 0.32047 0.0
C1864 C 0.26107 0.85974 0.31128 0.0
C1865 C 0.26453 0.86406 0.28181 0.0
N1866 N 0.26819 0.86729 0.21751 0.0
C1867 C 0.25718 0.86972 0.23146 0.0
C1868 C 0.24667 0.87101 0.21214 0.0
C1869 C 0.25103 0.86894 0.18534 0.0
C1870 C 0.26396 0.86658 0.1897 0.0
N1871 N 0.29569 0.86689 0.19361 0.0
C1872 C 0.28827 0.86576 0.1685 0.0
C1873 C 0.29807 0.86821 0.14473 0.0
C1874 C 0.31253 0.87097 0.15561 0.0
C1875 C 0.31071 0.87005 0.18549 0.0
N1876 N 0.27271 0.84117 0.22916 0.0
C1877 C 0.25274 0.80943 0.21766 0.0
C1878 C 0.26942 0.81696 0.21172 0.0
C1879 C 0.27919 0.83287 0.2175 0.0
C1880 C 0.24641 0.81785 0.23073 0.0
C1881 C 0.25657 0.83357 0.23655 0.0
N1882 N 0.29901 0.88697 0.23652 0.0
C1883 C 0.30953 0.91385 0.21568 0.0
C1884 C 0.31682 0.91993 0.24157 0.0
C1885 C 0.31516 0.90898 0.26474 0.0
C1886 C 0.30637 0.89262 0.26168 0.0
C1887 C 0.3006 0.89745 0.21373 0.0
H1888 H 0.30538 0.88455 0.27982 0.0
H1889 H 0.29494 0.89329 0.19369 0.0
H1890 H 0.2919 0.83858 0.21175 0.0
H1891 H 0.2512 0.83967 0.24629 0.0
C1892 C 0.29203 0.85103 0.29584 0.0
C1893 C 0.32309 0.87132 0.20557 0.0
C1894 C 0.25494 0.8688 0.26305 0.0
C1895 C 0.27337 0.8653 0.168 0.0
H1896 H 0.33887 0.86192 0.24968 0.0
H1897 H 0.32117 0.84934 0.29865 0.0
H1898 H 0.27127 0.84917 0.34228 0.0
H1899 H 0.2522 0.86052 0.32462 0.0
H1900 H 0.2366 0.8728 0.21705 0.0
H1901 H 0.24553 0.86929 0.16508 0.0
H1902 H 0.29528 0.86861 0.12217 0.0
H1903 H 0.32318 0.87338 0.14303 0.0
H1904 H 0.27478 0.81083 0.20163 0.0
H1905 H 0.23362 0.81236 0.23612 0.0
H1906 H 0.3107 0.92164 0.19681 0.0
H1907 H 0.32034 0.91293 0.28535 0.0
C1908 C 0.31671 0.209 0.12734 0.0
C1909 C 0.30521 0.19851 0.10924 0.0
C1910 C 0.32715 0.20483 0.14193 0.0
C1911 C 0.34298 0.17655 0.14214 0.0
H1912 H 0.35089 0.18513 0.22266 0.0
C1913 C 0.37096 0.14674 0.21509 0.0
C1914 C 0.38323 0.15652 0.23282 0.0
C1915 C 0.36155 0.15228 0.20079 0.0
C1916 C 0.34892 0.18278 0.20012 0.0
H1917 H 0.29544 0.17553 0.09211 0.0
H1918 H 0.31351 0.16818 0.11745 0.0
H1919 H 0.33505 0.19466 0.1951 0.0
H1920 H 0.39509 0.17941 0.2505 0.0
H1921 H 0.37855 0.18916 0.22561 0.0
H1922 H 0.35666 0.16452 0.1472 0.0
C1923 C 0.3148 0.17975 0.12011 0.0
C1924 C 0.33989 0.18829 0.18427 0.0
C1925 C 0.30442 0.18391 0.10561 0.0
C1926 C 0.3856 0.17169 0.23696 0.0
C1927 C 0.37614 0.17722 0.22275 0.0
C1928 C 0.35193 0.171 0.15798 0.0
C1929 C 0.32621 0.19007 0.13868 0.0
C1930 C 0.33667 0.18511 0.15514 0.0
C1931 C 0.3642 0.16769 0.20405 0.0
C1932 C 0.35489 0.17391 0.18724 0.0
H1933 H 0.31738 0.22024 0.13062 0.0
H1934 H 0.33589 0.21312 0.15584 0.0
H1935 H 0.34103 0.17415 0.11962 0.0
H1936 H 0.36897 0.13499 0.2117 0.0
H1937 H 0.35228 0.14453 0.18695 0.0
C1938 C 0.84011 0.1372 0.13074 0.0
C1939 C 0.82615 0.12975 0.11476 0.0
C1940 C 0.84367 0.15078 0.14464 0.0
C1941 C 0.83304 0.18285 0.14846 0.0
H1942 H 0.85245 0.18696 0.22314 0.0
C1943 C 0.8399 0.23032 0.22495 0.0
C1944 C 0.85513 0.23891 0.23669 0.0
C1945 C 0.83613 0.21693 0.21014 0.0
C1946 C 0.84713 0.18603 0.20223 0.0
H1947 H 0.8051 0.13083 0.1003 0.0
H1948 H 0.81103 0.15439 0.12524 0.0
H1949 H 0.84622 0.16394 0.19676 0.0
H1950 H 0.87835 0.24039 0.24231 0.0
H1951 H 0.87165 0.21669 0.21701 0.0
H1952 H 0.83366 0.20486 0.1545 0.0
C1953 C 0.81944 0.14993 0.12662 0.0
C1954 C 0.84362 0.17287 0.18696 0.0
C1955 C 0.81599 0.13641 0.11235 0.0
C1956 C 0.86646 0.23379 0.23376 0.0
C1957 C 0.86262 0.22027 0.21928 0.0
C1958 C 0.83639 0.19594 0.16393 0.0
C1959 C 0.83324 0.15718 0.14329 0.0
C1960 C 0.83665 0.17114 0.15972 0.0
C1961 C 0.84746 0.21179 0.20706 0.0
C1962 C 0.84357 0.19772 0.19089 0.0
H1963 H 0.84829 0.13246 0.13258 0.0
H1964 H 0.85464 0.15624 0.1565 0.0
H1965 H 0.82789 0.1821 0.12743 0.0
H1966 H 0.83102 0.23412 0.2269 0.0
H1967 H 0.82431 0.21055 0.2012 0.0
C1968 C 0.77497 0.6399 0.20742 0.0
C1969 C 0.77319 0.6272 0.22651 0.0
C1970 C 0.78985 0.65011 0.19283 0.0
C1971 C 0.83357 0.66225 0.19409 0.0
H1972 H 0.83412 0.6753 0.11287 0.0
C1973 C 0.89155 0.68894 0.12197 0.0
C1974 C 0.89523 0.70263 0.10396 0.0
C1975 C 0.87636 0.68003 0.13605 0.0
C1976 C 0.83416 0.67187 0.1356 0.0
H1977 H 0.78537 0.61514 0.24548 0.0
H1978 H 0.81118 0.63271 0.22007 0.0
H1979 H 0.80835 0.6599 0.14016 0.0
H1980 H 0.88597 0.71751 0.08544 0.0
H1981 H 0.85921 0.70181 0.10986 0.0
H1982 H 0.85933 0.67396 0.18944 0.0
C1983 C 0.80133 0.63512 0.2166 0.0
C1984 C 0.8194 0.66309 0.1513 0.0
C1985 C 0.78652 0.62499 0.23113 0.0
C1986 C 0.8833 0.70693 0.09922 0.0
C1987 C 0.86804 0.69795 0.11317 0.0
C1988 C 0.84828 0.67091 0.17838 0.0
C1989 C 0.80319 0.64775 0.19706 0.0
C1990 C 0.8189 0.65802 0.1807 0.0
C1991 C 0.8645 0.68458 0.13223 0.0
C1992 C 0.84877 0.67569 0.14888 0.0
H1993 H 0.76477 0.64172 0.20341 0.0
H1994 H 0.79088 0.65981 0.17818 0.0
H1995 H 0.83371 0.65887 0.21681 0.0
H1996 H 0.90061 0.68543 0.12578 0.0
H1997 H 0.87394 0.66964 0.15018 0.0
C1998 C 0.18102 0.29959 0.38605 0.0
C1999 C 0.19715 0.30544 0.39334 0.0
C2000 C 0.1761 0.30973 0.37224 0.0
C2001 C 0.18839 0.35239 0.35612 0.0
H2002 H 0.15939 0.33696 0.2929 0.0
C2003 C 0.17678 0.3946 0.27832 0.0
C2004 C 0.16088 0.38924 0.27 0.0
C2005 C 0.18093 0.3842 0.29341 0.0
C2006 C 0.16735 0.34141 0.31071 0.0
H2007 H 0.22089 0.32624 0.39142 0.0
H2008 H 0.21238 0.34405 0.36746 0.0
H2009 H 0.16687 0.31924 0.3201 0.0
H2010 H 0.13684 0.36897 0.27066 0.0
H2011 H 0.14401 0.35065 0.29715 0.0
H2012 H 0.18892 0.37457 0.34666 0.0
C2013 C 0.20339 0.33174 0.37294 0.0
C2014 C 0.17163 0.33124 0.32636 0.0
C2015 C 0.20829 0.32159 0.3867 0.0
C2016 C 0.14921 0.37327 0.27667 0.0
C2017 C 0.15335 0.36283 0.29176 0.0
C2018 C 0.18411 0.36256 0.34048 0.0
C2019 C 0.18726 0.32592 0.36525 0.0
C2020 C 0.18226 0.33661 0.34921 0.0
C2021 C 0.16924 0.36819 0.30056 0.0
C2022 C 0.1736 0.35724 0.31745 0.0
H2023 H 0.1723 0.2871 0.3906 0.0
H2024 H 0.16356 0.30487 0.36691 0.0
H2025 H 0.1964 0.35687 0.37385 0.0
H2026 H 0.18594 0.40691 0.27339 0.0
H2027 H 0.19332 0.38869 0.29942 0.0
C2028 C 0.62758 0.78584 0.24922 0.0
C2029 C 0.62743 0.77154 0.25714 0.0
C2030 C 0.63751 0.79952 0.26312 0.0
C2031 C 0.65733 0.81179 0.33199 0.0
H2032 H 0.68136 0.85339 0.29042 0.0
C2033 C 0.70159 0.86768 0.38872 0.0
C2034 C 0.70299 0.88234 0.37871 0.0
C2035 C 0.69232 0.85407 0.37412 0.0
C2036 C 0.67454 0.84191 0.30248 0.0
H2037 H 0.63781 0.76029 0.28479 0.0
H2038 H 0.65519 0.78421 0.30929 0.0
H2039 H 0.66589 0.8301 0.26369 0.0
H2040 H 0.69516 0.89407 0.34634 0.0
H2041 H 0.67866 0.87033 0.32136 0.0
H2042 H 0.66566 0.82355 0.37081 0.0
C2043 C 0.64756 0.78485 0.29256 0.0
C2044 C 0.66573 0.82854 0.28708 0.0
C2045 C 0.63774 0.77122 0.27845 0.0
C2046 C 0.6945 0.88298 0.35435 0.0
C2047 C 0.68511 0.86937 0.33992 0.0
C2048 C 0.66603 0.82517 0.34743 0.0
C2049 C 0.64738 0.79911 0.28536 0.0
C2050 C 0.65702 0.81332 0.30164 0.0
C2051 C 0.68409 0.85476 0.34929 0.0
C2052 C 0.67475 0.84044 0.3329 0.0
H2053 H 0.61964 0.78628 0.2329 0.0
H2054 H 0.63702 0.81028 0.25719 0.0
H2055 H 0.65055 0.80025 0.3439 0.0
H2056 H 0.70816 0.86685 0.40723 0.0
H2057 H 0.69202 0.84312 0.38184 0.0
C2058 C 0.12185 0.81818 0.37935 0.0
C2059 C 0.11878 0.82874 0.39362 0.0
C2060 C 0.13683 0.82349 0.36533 0.0
C2061 C 0.17947 0.85508 0.36128 0.0
H2062 H 0.17899 0.84167 0.28435 0.0
C2063 C 0.23831 0.87741 0.29091 0.0
C2064 C 0.23924 0.86602 0.27529 0.0
C2065 C 0.22367 0.87397 0.30456 0.0
C2066 C 0.17939 0.84541 0.30592 0.0
H2067 H 0.12877 0.8529 0.40512 0.0
H2068 H 0.15523 0.86227 0.38081 0.0
H2069 H 0.15362 0.83322 0.31082 0.0
H2070 H 0.22594 0.84218 0.26176 0.0
H2071 H 0.20051 0.83602 0.28569 0.0
H2072 H 0.20527 0.86699 0.35664 0.0
C2073 C 0.14609 0.8499 0.3805 0.0
C2074 C 0.16482 0.84056 0.32109 0.0
C2075 C 0.13101 0.84458 0.39437 0.0
C2076 C 0.22538 0.85122 0.27332 0.0
C2077 C 0.21082 0.84775 0.28697 0.0
C2078 C 0.19409 0.85984 0.34617 0.0
C2079 C 0.14907 0.83946 0.3654 0.0
C2080 C 0.16467 0.84518 0.34907 0.0
C2081 C 0.20975 0.85903 0.30294 0.0
C2082 C 0.19425 0.85491 0.3184 0.0
H2083 H 0.1125 0.80592 0.37851 0.0
H2084 H 0.13882 0.81511 0.35425 0.0
H2085 H 0.17975 0.85876 0.38286 0.0
H2086 H 0.24895 0.88884 0.29289 0.0
H2087 H 0.22328 0.88299 0.31641 0.0
C2088 C 0.64706 0.8628 0.78462 0.0
C2089 C 0.63139 0.85129 0.77828 0.0
C2090 C 0.65741 0.8583 0.79834 0.0
C2091 C 0.65718 0.8257 0.84518 0.0
H2092 H 0.70269 0.84715 0.82255 0.0
C2093 C 0.70145 0.80587 0.89275 0.0
C2094 C 0.71699 0.81793 0.8983 0.0
C2095 C 0.69066 0.80961 0.87844 0.0
C2096 C 0.69004 0.84116 0.82939 0.0
H2097 H 0.61404 0.82618 0.78163 0.0
H2098 H 0.63221 0.81816 0.80539 0.0
H2099 H 0.68466 0.85408 0.79603 0.0
H2100 H 0.73353 0.84324 0.89386 0.0
H2101 H 0.71467 0.8499 0.86925 0.0
H2102 H 0.6626 0.81281 0.87863 0.0
C2103 C 0.63653 0.83067 0.79979 0.0
C2104 C 0.6797 0.84512 0.81412 0.0
C2105 C 0.62619 0.8352 0.78598 0.0
C2106 C 0.72155 0.83379 0.88981 0.0
C2107 C 0.7108 0.83754 0.87551 0.0
C2108 C 0.66754 0.82173 0.86047 0.0
C2109 C 0.65226 0.84218 0.80629 0.0
C2110 C 0.66314 0.83751 0.82191 0.0
C2111 C 0.69528 0.82549 0.86932 0.0
C2112 C 0.68413 0.82949 0.85288 0.0
H2113 H 0.65114 0.87531 0.77952 0.0
H2114 H 0.66931 0.8675 0.80348 0.0
H2115 H 0.64454 0.81975 0.85203 0.0
H2116 H 0.69781 0.79354 0.8989 0.0
H2117 H 0.67888 0.80002 0.87378 0.0
C2118 C 0.20406 0.9056 0.88225 0.0
C2119 C 0.19369 0.90543 0.9039 0.0
C2120 C 0.20019 0.89179 0.86874 0.0
C2121 C 0.16495 0.85237 0.85631 0.0
H2122 H 0.19804 0.84439 0.82632 0.0
C2123 C 0.15133 0.7934 0.80913 0.0
C2124 C 0.15957 0.79476 0.783 0.0
C2125 C 0.15527 0.80683 0.82395 0.0
C2126 C 0.18868 0.84653 0.8344 0.0
H2127 H 0.1717 0.89069 0.92973 0.0
H2128 H 0.1652 0.86632 0.90718 0.0
H2129 H 0.20574 0.8674 0.85381 0.0
H2130 H 0.17837 0.81125 0.75189 0.0
H2131 H 0.1854 0.83474 0.77798 0.0
H2132 H 0.14791 0.83121 0.83737 0.0
C2133 C 0.17603 0.87719 0.89971 0.0
C2134 C 0.19308 0.85976 0.85012 0.0
C2135 C 0.17982 0.89107 0.91293 0.0
C2136 C 0.17173 0.80987 0.77184 0.0
C2137 C 0.17585 0.82327 0.7869 0.0
C2138 C 0.16056 0.83903 0.84093 0.0
C2139 C 0.18598 0.87742 0.87696 0.0
C2140 C 0.18129 0.86294 0.86118 0.0
C2141 C 0.16772 0.82188 0.8132 0.0
C2142 C 0.17238 0.83602 0.82964 0.0
H2143 H 0.21485 0.91658 0.87502 0.0
H2144 H 0.20809 0.89258 0.85117 0.0
H2145 H 0.15552 0.85453 0.86387 0.0
H2146 H 0.14187 0.78191 0.81818 0.0
H2147 H 0.14885 0.80537 0.84421 0.0
C2148 C 0.11265 0.30657 0.89563 0.0
C2149 C 0.10806 0.29062 0.90327 0.0
C2150 C 0.12743 0.31669 0.88072 0.0
C2151 C 0.15793 0.31537 0.83318 0.0
H2152 H 0.1847 0.35933 0.84952 0.0
C2153 C 0.22272 0.3548 0.7836 0.0
C2154 C 0.22789 0.37088 0.77575 0.0
C2155 C 0.20775 0.34507 0.79809 0.0
C2156 C 0.17726 0.34714 0.84439 0.0
H2157 H 0.11517 0.27267 0.902 0.0
H2158 H 0.14112 0.29033 0.87638 0.0
H2159 H 0.15968 0.34245 0.87804 0.0
H2160 H 0.22174 0.38951 0.77697 0.0
H2161 H 0.19538 0.37247 0.80186 0.0
H2162 H 0.17547 0.32003 0.79957 0.0
C2163 C 0.13332 0.29506 0.8815 0.0
C2164 C 0.16292 0.33745 0.86081 0.0
C2165 C 0.11857 0.28499 0.89641 0.0
C2166 C 0.21784 0.37706 0.78245 0.0
C2167 C 0.20286 0.36734 0.79697 0.0
C2168 C 0.17225 0.32506 0.81676 0.0
C2169 C 0.13784 0.31099 0.87303 0.0
C2170 C 0.1531 0.32141 0.85553 0.0
C2171 C 0.19769 0.35125 0.80529 0.0
C2172 C 0.18215 0.34106 0.8222 0.0
H2173 H 0.10458 0.31106 0.9004 0.0
H2174 H 0.13043 0.32882 0.87432 0.0
H2175 H 0.15052 0.30317 0.82809 0.0
H2176 H 0.2305 0.34991 0.77935 0.0
H2177 H 0.20432 0.33283 0.80456 0.0
C2178 C 0.84217 0.72941 0.60261 0.0
C2179 C 0.82573 0.7248 0.60228 0.0
C2180 C 0.84726 0.71972 0.61759 0.0
C2181 C 0.83426 0.68772 0.67687 0.0
H2182 H 0.86888 0.68246 0.64545 0.0
C2183 C 0.85117 0.64166 0.72733 0.0
C2184 C 0.86755 0.64605 0.72712 0.0
C2185 C 0.84618 0.6517 0.71333 0.0
C2186 C 0.85935 0.68397 0.65474 0.0
H2187 H 0.80167 0.70662 0.61681 0.0
H2188 H 0.81046 0.68944 0.64279 0.0
H2189 H 0.85978 0.69866 0.61762 0.0
H2190 H 0.89167 0.66428 0.71292 0.0
H2191 H 0.88308 0.68205 0.68873 0.0
H2192 H 0.83381 0.67298 0.71397 0.0
C2193 C 0.81948 0.70059 0.63179 0.0
C2194 C 0.8541 0.69325 0.63873 0.0
C2195 C 0.8144 0.71029 0.61675 0.0
C2196 C 0.87897 0.66077 0.71342 0.0
C2197 C 0.87401 0.67081 0.69937 0.0
C2198 C 0.83951 0.67844 0.69289 0.0
C2199 C 0.83599 0.70525 0.63263 0.0
C2200 C 0.84148 0.69524 0.64957 0.0
C2201 C 0.85752 0.66629 0.69874 0.0
C2202 C 0.85213 0.67644 0.68204 0.0
H2203 H 0.85107 0.74068 0.59176 0.0
H2204 H 0.86007 0.72378 0.61804 0.0
H2205 H 0.82471 0.68921 0.68612 0.0
H2206 H 0.84219 0.63024 0.73754 0.0
H2207 H 0.8334 0.64775 0.71303 0.0
C2208 C 0.35504 0.20848 0.71424 0.0
C2209 C 0.37189 0.21535 0.71186 0.0
C2210 C 0.3451 0.19526 0.69916 0.0
C2211 C 0.34648 0.17276 0.63794 0.0
H2212 H 0.30451 0.14069 0.67056 0.0
C2213 C 0.30773 0.11103 0.59331 0.0
C2214 C 0.29132 0.10612 0.5901 0.0
C2215 C 0.31766 0.12484 0.60691 0.0
C2216 C 0.31616 0.14962 0.66109 0.0
H2217 H 0.39156 0.21344 0.69285 0.0
H2218 H 0.37434 0.1901 0.66755 0.0
H2219 H 0.32157 0.16337 0.69765 0.0
H2220 H 0.27237 0.11165 0.59837 0.0
H2221 H 0.28965 0.13567 0.62268 0.0
H2222 H 0.34116 0.15859 0.60179 0.0
C2223 C 0.36869 0.19518 0.68005 0.0
C2224 C 0.32594 0.1627 0.67656 0.0
C2225 C 0.3786 0.20851 0.69473 0.0
C2226 C 0.28502 0.11529 0.6005 0.0
C2227 C 0.29487 0.12893 0.61451 0.0
C2228 C 0.3368 0.15956 0.62271 0.0
C2229 C 0.35179 0.18845 0.68172 0.0
C2230 C 0.34126 0.17448 0.66521 0.0
C2231 C 0.31126 0.13378 0.61806 0.0
C2232 C 0.32152 0.14787 0.63409 0.0
H2233 H 0.34957 0.2136 0.72713 0.0
H2234 H 0.33219 0.19063 0.70074 0.0
H2235 H 0.35801 0.1817 0.62808 0.0
H2236 H 0.31276 0.10398 0.58587 0.0
H2237 H 0.33021 0.12823 0.60956 0.0
C2238 C 0.90273 0.2064 0.60835 0.0
C2239 C 0.9059 0.19424 0.60213 0.0
C2240 C 0.88835 0.20276 0.62318 0.0
C2241 C 0.85647 0.17123 0.67276 0.0
H2242 H 0.83265 0.1932 0.65289 0.0
C2243 C 0.79258 0.15017 0.7211 0.0
C2244 C 0.78874 0.16177 0.72812 0.0
C2245 C 0.80723 0.15455 0.70664 0.0
C2246 C 0.83927 0.1871 0.65898 0.0
H2247 H 0.8967 0.16887 0.60575 0.0
H2248 H 0.87143 0.16239 0.63124 0.0
H2249 H 0.8572 0.19995 0.62484 0.0
H2250 H 0.79685 0.18694 0.72528 0.0
H2251 H 0.82269 0.19475 0.70026 0.0
H2252 H 0.83857 0.15835 0.70682 0.0
C2253 C 0.88005 0.17474 0.62512 0.0
C2254 C 0.85334 0.19095 0.64285 0.0
C2255 C 0.8944 0.1784 0.61031 0.0
C2256 C 0.79974 0.17784 0.72042 0.0
C2257 C 0.81441 0.18225 0.70588 0.0
C2258 C 0.84243 0.16738 0.68887 0.0
C2259 C 0.87694 0.18689 0.63214 0.0
C2260 C 0.86206 0.18299 0.64942 0.0
C2261 C 0.8183 0.17065 0.69862 0.0
C2262 C 0.83359 0.17519 0.6821 0.0
H2263 H 0.91158 0.21871 0.60245 0.0
H2264 H 0.88642 0.21241 0.62844 0.0
H2265 H 0.86306 0.16508 0.67883 0.0
H2266 H 0.78405 0.13767 0.72619 0.0
H2267 H 0.80967 0.14528 0.70095 0.0
C2268 C 0.95848 0.4983 0.45083 0.0
C2269 C 0.96378 0.51456 0.44532 0.0
C2270 C 0.96866 0.49322 0.46364 0.0
C2271 C 0.01181 0.5074 0.47912 0.0
H2272 H 0.99425 0.47195 0.53795 0.0
C2273 C 0.05272 0.49544 0.55555 0.0
C2274 C 0.0495 0.4797 0.56066 0.0
C2275 C 0.04177 0.49882 0.54116 0.0
C2276 C 0.9993 0.48176 0.52134 0.0
H2277 H 0.98348 0.5383 0.44945 0.0
H2278 H 1.00127 0.52957 0.47198 0.0
H2279 H 0.97619 0.4795 0.51278 0.0
H2280 H 0.03229 0.45511 0.55553 0.0
H2281 H 0.01284 0.46097 0.53036 0.0
H2282 H 0.03493 0.50984 0.48801 0.0
C2283 C 0.98948 0.52065 0.46579 0.0
C2284 C 0.98895 0.48608 0.50684 0.0
C2285 C 0.97932 0.52569 0.45295 0.0
C2286 C 0.03494 0.46732 0.55183 0.0
C2287 C 0.02386 0.47069 0.53752 0.0
C2288 C 0.02213 0.50314 0.49368 0.0
C2289 C 0.98429 0.50434 0.47139 0.0
C2290 C 0.9951 0.49909 0.48576 0.0
C2291 C 0.02728 0.48653 0.53163 0.0
C2292 C 0.01605 0.4904 0.51522 0.0
H2293 H 0.94643 0.48955 0.4454 0.0
H2294 H 0.96429 0.48059 0.46739 0.0
H2295 H 0.01696 0.51724 0.46258 0.0
H2296 H 0.0639 0.50516 0.56228 0.0
H2297 H 0.04466 0.51111 0.53745 0.0
C2298 C 0.48583 0.47197 0.44735 0.0
C2299 C 0.49647 0.46587 0.44931 0.0
C2300 C 0.48886 0.48532 0.4618 0.0
C2301 C 0.51288 0.50873 0.52185 0.0
H2302 H 0.50098 0.5395 0.49043 0.0
C2303 C 0.53336 0.56914 0.5694 0.0
C2304 C 0.52149 0.57353 0.57274 0.0
C2305 C 0.53007 0.5558 0.55476 0.0
C2306 C 0.50426 0.53092 0.49957 0.0
H2307 H 0.51902 0.46938 0.46654 0.0
H2308 H 0.52463 0.49288 0.49077 0.0
H2309 H 0.49606 0.51709 0.46302 0.0
H2310 H 0.49698 0.56762 0.56355 0.0
H2311 H 0.49125 0.54439 0.53756 0.0
H2312 H 0.52141 0.52283 0.55809 0.0
C2313 C 0.51362 0.48712 0.47911 0.0
C2314 C 0.50139 0.51803 0.4839 0.0
C2315 C 0.51048 0.4737 0.46504 0.0
C2316 C 0.50628 0.56438 0.56127 0.0
C2317 C 0.50306 0.55119 0.5463 0.0
C2318 C 0.51592 0.52171 0.53732 0.0
C2319 C 0.50271 0.49297 0.4782 0.0
C2320 C 0.50569 0.50675 0.4948 0.0
C2321 C 0.51494 0.54678 0.54278 0.0
C2322 C 0.51163 0.53295 0.52637 0.0
H2323 H 0.47488 0.46609 0.43553 0.0
H2324 H 0.48008 0.48934 0.46077 0.0
H2325 H 0.51603 0.50014 0.53137 0.0
H2326 H 0.54523 0.57617 0.57773 0.0
H2327 H 0.53951 0.55279 0.55216 0.0
C2328 C 0.55043 0.04414 0.44166 0.0
C2329 C 0.55977 0.0372 0.43481 0.0
C2330 C 0.53482 0.03476 0.45398 0.0
C2331 C 0.50163 0.99282 0.46663 0.0
H2332 H 0.48826 0.00898 0.52893 0.0
C2333 C 0.44756 0.95193 0.54415 0.0
C2334 C 0.43676 0.95717 0.55144 0.0
C2335 C 0.46207 0.96221 0.52888 0.0
C2336 C 0.49173 1.00437 0.51133 0.0
H2337 H 0.5604 0.01523 0.43539 0.0
H2338 H 0.53317 0.99874 0.45718 0.0
H2339 H 0.51441 0.0258 0.50364 0.0
H2340 H 0.43274 0.97728 0.54928 0.0
H2341 H 0.45838 0.99551 0.52253 0.0
H2342 H 0.4791 0.97129 0.47474 0.0
C2343 C 0.53766 0.01135 0.45255 0.0
C2344 C 0.50672 0.01402 0.49676 0.0
C2345 C 0.55326 0.02074 0.44014 0.0
C2346 C 0.44089 0.97301 0.54377 0.0
C2347 C 0.45554 0.98339 0.52858 0.0
C2348 C 0.48671 0.98317 0.48127 0.0
C2349 C 0.52827 0.01825 0.45989 0.0
C2350 C 0.51195 0.00831 0.47441 0.0
C2351 C 0.46621 0.97803 0.52069 0.0
C2352 C 0.48165 0.98875 0.50402 0.0
H2353 H 0.55534 0.05687 0.43785 0.0
H2354 H 0.5279 0.04047 0.45895 0.0
H2355 H 0.50507 0.98812 0.44916 0.0
H2356 H 0.44468 0.9398 0.55008 0.0
H2357 H 0.47012 0.95777 0.52367 0.0
C2358 C 0.48727 0.04406 0.94652 0.0
C2359 C 0.49742 0.05721 0.92747 0.0
C2360 C 0.49307 0.0347 0.96048 0.0
C2361 C 0.52589 0.02459 0.9582 0.0
H2362 H 0.51367 0.0116 0.03952 0.0
C2363 C 0.55266 0.99185 0.02893 0.0
C2364 C 0.5417 0.97915 0.04803 0.0
C2365 C 0.54809 1.00218 0.01456 0.0
C2366 C 0.5171 0.01498 0.01676 0.0
H2367 H 0.52134 0.07075 0.90725 0.0
H2368 H 0.53159 0.05437 0.93157 0.0
H2369 H 0.50374 0.02739 0.01286 0.0
H2370 H 0.51747 0.96721 0.06722 0.0
H2371 H 0.50944 0.98507 0.04231 0.0
H2372 H 0.53915 0.01204 0.96211 0.0
C2373 C 0.51913 0.05119 0.9357 0.0
C2374 C 0.51137 0.02404 0.00143 0.0
C2375 C 0.51331 0.06058 0.9218 0.0
C2376 C 0.52621 0.97706 0.05288 0.0
C2377 C 0.52164 0.98734 0.03862 0.0
C2378 C 0.5316 0.01548 0.97355 0.0
C2379 C 0.50915 0.03828 0.95561 0.0
C2380 C 0.51556 0.02885 0.97189 0.0
C2381 C 0.53245 0.99997 0.01906 0.0
C2382 C 0.52716 0.01043 0.00299 0.0
H2383 H 0.47496 0.04128 0.95112 0.0
H2384 H 0.48497 0.0247 0.97525 0.0
H2385 H 0.52926 0.02798 0.93543 0.0
H2386 H 0.56463 0.99359 0.02473 0.0
H2387 H 0.55678 0.01186 -0.00011 0.0
C2388 C 0.97211 0.43338 0.95651 0.0
C2389 C 0.96224 0.43439 0.93495 0.0
C2390 C 0.98246 0.44682 0.97076 0.0
C2391 C 1.00314 0.49063 0.96378 0.0
H2392 H 1.00165 0.48718 0.04766 0.0
C2393 C 0.03131 0.5465 0.02685 0.0
C2394 C 0.03902 0.54629 0.05256 0.0
C2395 C 0.02225 0.53257 0.01311 0.0
C2396 C 1.00244 0.48835 0.02424 0.0
H2397 H 0.95544 0.45011 0.91121 0.0
H2398 H 0.9738 0.47363 0.93537 0.0
H2399 H 0.98624 0.46342 0.02188 0.0
H2400 H 0.04319 0.53126 0.08414 0.0
H2401 H 0.02764 0.50694 0.05989 0.0
H2402 H 0.01942 0.51544 0.96586 0.0
C2403 C 0.97363 0.46254 0.94129 0.0
C2404 C 0.99358 0.47471 0.00948 0.0
C2405 C 0.96314 0.4491 0.92742 0.0
C2406 C 0.03722 0.53175 0.06452 0.0
C2407 C 0.02829 0.51781 0.05058 0.0
C2408 C 0.01212 0.50423 0.97848 0.0
C2409 C 0.98326 0.46153 0.96337 0.0
C2410 C 0.99366 0.47574 0.97909 0.0
C2411 C 0.02081 0.51805 0.02449 0.0
C2412 C 0.01172 0.50335 0.00894 0.0
H2413 H 0.97148 0.42211 0.96281 0.0
H2414 H 0.98981 0.44571 0.9876 0.0
H2415 H 1.00362 0.49177 0.94034 0.0
H2416 H 0.03231 0.5575 0.01732 0.0
H2417 H 0.01635 0.53321 0.99351 0.0
C2418 C 0.56296 0.51528 0.95055 0.0
C2419 C 0.57513 0.53109 0.94418 0.0
C2420 C 0.54891 0.51179 0.96613 0.0
C2421 C 0.52318 0.52813 0.98706 0.0
H2422 H 0.5076 0.49387 0.04811 0.0
C2423 C 0.46637 0.51083 0.05951 0.0
C2424 C 0.45583 0.49451 0.06571 0.0
C2425 C 0.4817 0.51626 0.04669 0.0
C2426 C 0.51167 0.50337 0.03098 0.0
H2427 H 0.58216 0.5557 0.94812 0.0
H2428 H 0.55732 0.54964 0.97535 0.0
H2429 H 0.53263 0.50159 0.02101 0.0
H2430 H 0.45267 0.47101 0.06298 0.0
H2431 H 0.47935 0.48035 0.04048 0.0
H2432 H 0.50202 0.52967 0.99658 0.0
C2433 C 0.55869 0.53994 0.96835 0.0
C2434 C 0.52605 0.50781 0.01546 0.0
C2435 C 0.57287 0.54343 0.95287 0.0
C2436 C 0.46081 0.48368 0.05903 0.0
C2437 C 0.47609 0.48907 0.04615 0.0
C2438 C 0.50871 0.52362 0.0025 0.0
C2439 C 0.54666 0.52406 0.97553 0.0
C2440 C 0.53187 0.5201 0.99306 0.0
C2441 C 0.48671 0.50543 0.03956 0.0
C2442 C 0.50266 0.51102 0.02442 0.0
H2443 H 0.56447 0.5056 0.94388 0.0
H2444 H 0.53977 0.49946 0.97082 0.0
H2445 H 0.52729 0.53757 0.9698 0.0
H2446 H 0.46261 0.51935 0.06415 0.0
H2447 H 0.48959 0.52893 0.04221 0.0
C2448 C 0.18758 1.00292 0.995 0.0
C2449 C 0.20021 1.00017 0.9876 0.0
C2450 C 0.19091 0.01777 0.00349 0.0
C2451 C 0.22381 0.05519 0.02951 0.0
H2452 H 0.19763 0.0732 0.00054 0.0
C2453 C 0.24381 0.12146 0.03499 0.0
C2454 C 0.23217 0.12557 0.04289 0.0
C2455 C 0.2393 0.10589 0.02932 0.0
C2456 C 0.20494 0.06827 0.00911 0.0
H2457 H 0.2261 0.01044 0.98343 0.0
H2458 H 0.23204 0.03646 0.99799 0.0
H2459 H 0.19096 0.04651 0.9893 0.0
H2460 H 0.20652 0.11637 0.05063 0.0
H2461 H 0.19862 0.08915 0.04045 0.0
H2462 H 0.23792 0.07703 0.04896 0.0
C2463 C 0.21955 0.02718 0.99772 0.0
C2464 C 0.2011 0.05293 0.0027 0.0
C2465 C 0.2162 0.01233 0.98928 0.0
C2466 C 0.21581 0.11369 0.04438 0.0
C2467 C 0.21128 0.09807 0.03859 0.0
C2468 C 0.22767 0.07052 0.03583 0.0
C2469 C 0.20695 0.03016 0.00473 0.0
C2470 C 0.21058 0.04623 0.01261 0.0
C2471 C 0.223 0.09395 0.03122 0.0
C2472 C 0.21838 0.07733 0.02549 0.0
H2473 H 0.17515 0.99364 0.9938 0.0
H2474 H 0.1809 0.01952 0.00911 0.0
H2475 H 0.2312 0.05033 0.03802 0.0
H2476 H 0.25649 0.13033 0.03288 0.0
H2477 H 0.24862 0.10325 0.02308 0.0
C2478 C 1.00122 0.18553 0.99551 0.0
C2479 C 1.00457 0.20133 0.99082 0.0
C2480 C 0.98574 0.17345 0.0049 0.0
C2481 C 0.94715 0.16597 0.03939 0.0
H2482 H 0.9289 0.1269 0.0011 0.0
C2483 C 0.87898 0.11956 0.04928 0.0
C2484 C 0.87436 0.10341 0.04946 0.0
C2485 C 0.89519 0.13128 0.04451 0.0
C2486 C 0.93385 0.1376 0.01241 0.0
H2487 H 0.99467 0.21706 0.99296 0.0
H2488 H 0.96756 0.196 0.00949 0.0
H2489 H 0.95652 0.1477 0.98878 0.0
H2490 H 0.8829 0.08672 0.04505 0.0
H2491 H 0.91135 0.10711 0.03746 0.0
H2492 H 0.92447 0.1559 0.06298 0.0
C2493 C 0.97686 0.19288 0.00604 0.0
C2494 C 0.94974 0.14957 0.00528 0.0
C2495 C 0.99233 0.20494 0.99651 0.0
C2496 C 0.88624 0.09912 0.04525 0.0
C2497 C 0.90248 0.11083 0.04059 0.0
C2498 C 0.93128 0.15397 0.04662 0.0
C2499 C 0.9733 0.17694 0.01 0.0
C2500 C 0.95657 0.16396 0.01852 0.0
C2501 C 0.90717 0.12709 0.0398 0.0
C2502 C 0.92435 0.13964 0.03309 0.0
H2503 H 0.01054 0.18251 0.99139 0.0
H2504 H 0.98351 0.16135 0.00811 0.0
H2505 H 0.95209 0.1768 0.05032 0.0
H2506 H 0.86996 0.12312 0.05218 0.0
H2507 H 0.89824 0.14363 0.04363 0.0
C2508 C 0.90404 0.78503 0.05607 0.0
C2509 C 0.90281 0.77149 0.04449 0.0
C2510 C 0.892 0.78922 0.05161 0.0
C2511 C 0.84931 0.77265 0.03077 0.0
H2512 H 0.86173 0.81652 0.00793 0.0
C2513 C 0.8053 0.79026 0.97677 0.0
C2514 C 0.80564 0.80413 0.9844 0.0
C2515 C 0.8169 0.78642 0.98675 0.0
C2516 C 0.85803 0.80425 0.01468 0.0
H2517 H 0.88762 0.75141 0.02015 0.0
H2518 H 0.86692 0.75878 0.01204 0.0
H2519 H 0.88241 0.80957 0.02122 0.0
H2520 H 0.81823 0.82496 0.00818 0.0
H2521 H 0.83857 0.81825 0.02598 0.0
H2522 H 0.82499 0.76726 0.02386 0.0
C2523 C 0.8771 0.76619 0.02464 0.0
C2524 C 0.8699 0.80026 0.02233 0.0
C2525 C 0.8891 0.76206 0.02898 0.0
C2526 C 0.81775 0.81415 0.00218 0.0
C2527 C 0.82941 0.81035 0.01215 0.0
C2528 C 0.83747 0.77662 0.02312 0.0
C2529 C 0.87839 0.77985 0.03574 0.0
C2530 C 0.86571 0.78437 0.03002 0.0
C2531 C 0.82914 0.79643 0.00453 0.0
C2532 C 0.84169 0.79243 0.01454 0.0
H2533 H 0.91446 0.79256 0.06806 0.0
H2534 H 0.89331 0.79975 0.06066 0.0
H2535 H 0.84561 0.76033 0.03715 0.0
H2536 H 0.7961 0.78245 0.96287 0.0
H2537 H 0.81646 0.77576 0.98005 0.0
C2538 C 0.01092 0.19833 0.4994 0.0
C2539 C 0.00866 0.20834 0.51688 0.0
C2540 C 0.02651 0.20192 0.49063 0.0
C2541 C 0.06908 0.22509 0.51128 0.0
H2542 H 0.07872 0.21702 0.43515 0.0
C2543 C 0.13033 0.22997 0.48351 0.0
C2544 C 0.13773 0.2373 0.45626 0.0
C2545 C 0.11431 0.22581 0.48979 0.0
C2546 C 0.07627 0.21944 0.45644 0.0
H2547 H 0.02061 0.22994 0.53869 0.0
H2548 H 0.04787 0.23647 0.52305 0.0
H2549 H 0.05152 0.21176 0.44761 0.0
H2550 H 0.13395 0.24574 0.41402 0.0
H2551 H 0.10598 0.23859 0.42501 0.0
H2552 H 0.09383 0.23312 0.51997 0.0
C2553 C 0.03772 0.22572 0.51637 0.0
C2554 C 0.06061 0.21626 0.4637 0.0
C2555 C 0.02214 0.22209 0.52515 0.0
C2556 C 0.12855 0.23996 0.43513 0.0
C2557 C 0.11251 0.23586 0.44145 0.0
C2558 C 0.08469 0.22828 0.50403 0.0
C2559 C 0.04014 0.21559 0.49926 0.0
C2560 C 0.05681 0.21905 0.49123 0.0
C2561 C 0.10525 0.22895 0.46904 0.0
C2562 C 0.08852 0.22547 0.47655 0.0
H2563 H 1.00063 0.18758 0.49303 0.0
H2564 H 0.0279 0.19375 0.47778 0.0
H2565 H 0.06659 0.2272 0.53282 0.0
H2566 H 0.13698 0.2275 0.50012 0.0
H2567 H 0.10904 0.22018 0.51103 0.0
C2568 C 0.82288 0.82669 0.49849 0.0
C2569 C 0.81022 0.81108 0.50467 0.0
C2570 C 0.81967 0.83872 0.48804 0.0
C2571 C 0.78842 0.84604 0.45382 0.0
H2572 H 0.81041 0.8859 0.48949 0.0
C2573 C 0.76695 0.8925 0.44419 0.0
C2574 C 0.77858 0.90868 0.44308 0.0
C2575 C 0.77149 0.88084 0.4486 0.0
C2576 C 0.80434 0.87497 0.47888 0.0
H2577 H 0.78441 0.79558 0.50413 0.0
H2578 H 0.7787 0.81656 0.48576 0.0
H2579 H 0.81709 0.86512 0.50252 0.0
H2580 H 0.80401 0.92546 0.44527 0.0
H2581 H 0.81211 0.90511 0.45224 0.0
H2582 H 0.77559 0.85586 0.43031 0.0
C2583 C 0.79112 0.81956 0.48879 0.0
C2584 C 0.80817 0.86302 0.48642 0.0
C2585 C 0.79435 0.80755 0.49937 0.0
C2586 C 0.79487 0.91303 0.44581 0.0
C2587 C 0.79944 0.90137 0.45012 0.0
C2588 C 0.78464 0.85803 0.44618 0.0
C2589 C 0.80372 0.83535 0.48341 0.0
C2590 C 0.80017 0.84834 0.47418 0.0
C2591 C 0.78778 0.88509 0.45202 0.0
C2592 C 0.79244 0.87262 0.45881 0.0
H2593 H 0.83522 0.82962 0.50238 0.0
H2594 H 0.82967 0.85069 0.48376 0.0
H2595 H 0.78218 0.83497 0.44367 0.0
H2596 H 0.75428 0.88891 0.44244 0.0
H2597 H 0.76213 0.86848 0.45035 0.0
C2598 C 0.20743 0.99577 0.51511 0.0
C2599 C 0.20577 0.00916 0.50792 0.0
C2600 C 0.19607 0.9809 0.50652 0.0
C2601 C 0.15379 0.95817 0.48518 0.0
H2602 H 0.16738 0.92937 0.45887 0.0
C2603 C 0.10825 0.8965 0.4468 0.0
C2604 C 0.1108 0.88374 0.45561 0.0
C2605 C 0.11989 0.91216 0.45121 0.0
C2606 C 0.16334 0.93719 0.46645 0.0
H2607 H 0.19114 0.01776 0.48629 0.0
H2608 H 0.17118 0.99172 0.47098 0.0
H2609 H 0.1876 0.95597 0.47003 0.0
H2610 H 0.1279 0.87764 0.47529 0.0
H2611 H 0.14787 0.90473 0.48363 0.0
H2612 H 0.12952 0.9393 0.48204 0.0
C2613 C 0.18121 0.99264 0.48336 0.0
C2614 C 0.17496 0.95247 0.47281 0.0
C2615 C 0.19264 0.00754 0.49188 0.0
C2616 C 0.12536 0.8871 0.46864 0.0
C2617 C 0.13696 0.90271 0.47305 0.0
C2618 C 0.14215 0.94285 0.4789 0.0
C2619 C 0.18274 0.97911 0.49069 0.0
C2620 C 0.17035 0.96312 0.48252 0.0
C2621 C 0.1344 0.91547 0.46446 0.0
C2622 C 0.14677 0.93209 0.46972 0.0
H2623 H 0.21742 0.9968 0.52773 0.0
H2624 H 0.19752 0.97073 0.5129 0.0
H2625 H 0.1498 0.96598 0.49294 0.0
H2626 H 0.09715 0.89437 0.43685 0.0
H2627 H 0.11756 0.92169 0.44404 0.0
C2628 C 0.78225 0.89233 0.93788 0.0
C2629 C 0.78692 0.88379 0.95759 0.0
C2630 C 0.78569 0.90777 0.94265 0.0
C2631 C 0.79666 0.93486 0.00203 0.0
H2632 H 0.80513 0.96697 0.93924 0.0
C2633 C 0.81885 0.99993 0.02264 0.0
C2634 C 0.81014 0.0069 0.01006 0.0
C2635 C 0.81665 0.98548 0.01424 0.0
C2636 C 0.80269 0.95807 0.95695 0.0
H2637 H 0.79955 0.88496 0.99692 0.0
H2638 H 0.80617 0.91203 0.00471 0.0
H2639 H 0.80058 0.9408 0.92841 0.0
H2640 H 0.79276 1.0043 0.97764 0.0
H2641 H 0.78924 0.97917 0.96245 0.0
H2642 H 0.79914 0.95226 0.03052 0.0
C2643 C 0.79929 0.90669 0.98611 0.0
C2644 C 0.80002 0.94304 0.95079 0.0
C2645 C 0.79562 0.8912 0.98157 0.0
C2646 C 0.79976 0.99938 0.98771 0.0
C2647 C 0.79769 0.98495 0.97905 0.0
C2648 C 0.79955 0.94991 0.00814 0.0
C2649 C 0.79409 0.91511 0.96707 0.0
C2650 C 0.79701 0.93122 0.97328 0.0
C2651 C 0.80584 0.97769 0.99272 0.0
C2652 C 0.80264 0.9617 0.98572 0.0
H2653 H 0.77539 0.88683 0.91933 0.0
H2654 H 0.78131 0.91372 0.92765 0.0
H2655 H 0.79394 0.92603 0.01996 0.0
H2656 H 0.8273 1.00556 0.03932 0.0
H2657 H 0.82334 0.98033 0.02477 0.0
C2658 C 0.12178 0.88448 0.97617 0.0
C2659 C 0.12408 0.89924 0.96425 0.0
C2660 C 0.10633 0.87124 0.97982 0.0
C2661 C 0.06319 0.85969 0.98666 0.0
H2662 H 0.05684 0.81787 0.97473 0.0
C2663 C 1.00032 0.80286 0.00242 0.0
C2664 C 1.00004 0.7897 0.01766 0.0
C2665 C 0.01504 0.81616 0.99282 0.0
C2666 C 0.05841 0.82944 0.97835 0.0
H2667 H 0.11179 0.91151 0.94648 0.0
H2668 H 0.08472 0.88826 0.9525 0.0
H2669 H 0.08317 0.84125 0.96341 0.0
H2670 H 0.01462 0.77984 0.03468 0.0
H2671 H 0.04039 0.80301 0.018 0.0
H2672 H 0.03844 0.84781 0.0019 0.0
C2673 C 0.09495 0.88703 0.95934 0.0
C2674 C 0.07353 0.84287 0.97187 0.0
C2675 C 0.11047 0.90032 0.95563 0.0
C2676 C 0.01462 0.78985 0.02271 0.0
C2677 C 0.02932 0.8031 0.01306 0.0
C2678 C 0.04803 0.84624 0.9931 0.0
C2679 C 0.09268 0.87232 0.97157 0.0
C2680 C 0.07621 0.85816 0.97636 0.0
C2681 C 0.02975 0.8165 0.99825 0.0
C2682 C 0.04552 0.83092 0.98943 0.0
H2683 H 0.13197 0.8831 0.98263 0.0
H2684 H 0.10508 0.8602 0.98962 0.0
H2685 H 0.06483 0.87124 0.9907 0.0
H2686 H 0.98916 0.80296 0.99846 0.0
H2687 H 0.01491 0.8262 0.98124 0.0
C2688 C 0.10871 0.2133 0.95698 0.0
C2689 C 0.10842 0.22653 0.96688 0.0
C2690 C 0.12194 0.21095 0.9621 0.0
C2691 C 0.15599 0.22246 0.0112 0.0
H2692 H 0.17334 0.20696 0.95411 0.0
C2693 C 0.21495 0.22071 0.02922 0.0
C2694 C 0.21529 0.20715 0.02163 0.0
C2695 C 0.20232 0.22336 0.02076 0.0
C2696 C 0.16855 0.21117 0.97039 0.0
H2697 H 0.12226 0.24812 0.9884 0.0
H2698 H 0.14516 0.24408 0.9972 0.0
H2699 H 0.15035 0.21075 0.94263 0.0
H2700 H 0.20275 0.1856 -0.00026 0.0
H2701 H 0.18062 0.19018 0.98483 0.0
H2702 H 0.17404 0.22283 0.03903 0.0
C2703 C 0.13503 0.23525 0.98621 0.0
C2704 C 0.15535 0.21332 0.96381 0.0
C2705 C 0.12187 0.23758 0.98115 0.0
C2706 C 0.20288 0.19633 0.00526 0.0
C2707 C 0.19024 0.19897 0.99676 0.0
C2708 C 0.16914 0.22032 0.01776 0.0
C2709 C 0.13517 0.2218 0.97716 0.0
C2710 C 0.14896 0.21909 0.98409 0.0
C2711 C 0.18967 0.21242 0.00474 0.0
C2712 C 0.17567 0.21473 0.99742 0.0
H2713 H 0.09853 0.20454 0.946 0.0
H2714 H 0.1216 0.20041 0.95495 0.0
H2715 H 0.15119 0.2266 0.0276 0.0
H2716 H 0.22433 0.2291 0.04214 0.0
H2717 H 0.2024 0.23395 0.02699 0.0
C2718 C 0.89314 0.77919 0.52248 0.0
C2719 C 0.88998 0.79052 0.53362 0.0
C2720 C 0.90896 0.7824 0.5176 0.0
C2721 C 0.9518 0.80944 0.53447 0.0
H2722 H 0.95999 0.79317 0.46627 0.0
C2723 C 0.01602 0.82559 0.48933 0.0
C2724 C 0.01745 0.81283 0.48029 0.0
C2725 C 1.00087 0.82336 0.49798 0.0
C2726 C 0.95789 0.79769 0.48554 0.0
H2727 H 0.90102 0.81402 0.54901 0.0
H2728 H 0.92883 0.81985 0.5399 0.0
H2729 H 0.93302 0.78869 0.47682 0.0
H2730 H 1.00453 0.78782 0.47346 0.0
H2731 H 0.9781 0.78386 0.48846 0.0
H2732 H 0.97695 0.8187 0.54264 0.0
C2733 C 0.91901 0.80835 0.5353 0.0
C2734 C 0.94238 0.79508 0.49169 0.0
C2735 C 0.90308 0.80505 0.54046 0.0
C2736 C 1.00366 0.79778 0.48056 0.0
C2737 C 0.98856 0.79558 0.48891 0.0
C2738 C 0.96742 0.81219 0.52812 0.0
C2739 C 0.92216 0.79712 0.52341 0.0
C2740 C 0.93901 0.80069 0.51646 0.0
C2741 C 0.98692 0.80838 0.49726 0.0
C2742 C 0.97058 0.80614 0.50379 0.0
H2743 H 0.88331 0.76774 0.5176 0.0
H2744 H 0.91083 0.77326 0.50927 0.0
H2745 H 0.94968 0.81385 0.55384 0.0
H2746 H 0.02652 0.83733 0.48895 0.0
H2747 H 0.99997 0.83347 0.50414 0.0
C2748 C 0.22336 0.21651 0.47471 0.0
C2749 C 0.20818 0.21553 0.47543 0.0
C2750 C 0.22489 0.20322 0.48317 0.0
C2751 C 0.2053 0.16392 0.52443 0.0
H2752 H 0.23211 0.15582 0.47321 0.0
C2753 C 0.2115 0.10673 0.53818 0.0
C2754 C 0.22676 0.10862 0.53129 0.0
C2755 C 0.2085 0.11947 0.53288 0.0
C2756 C 0.22475 0.15798 0.48803 0.0
H2757 H 0.18275 0.20018 0.48598 0.0
H2758 H 0.18539 0.17675 0.50125 0.0
H2759 H 0.22832 0.17857 0.46172 0.0
H2760 H 0.25107 0.1256 0.51524 0.0
H2761 H 0.24599 0.14772 0.50658 0.0
H2762 H 0.20193 0.14336 0.55096 0.0
C2763 C 0.19611 0.18783 0.49422 0.0
C2764 C 0.22255 0.17104 0.48136 0.0
C2765 C 0.19457 0.20117 0.48549 0.0
C2766 C 0.23908 0.12364 0.52015 0.0
C2767 C 0.23613 0.13633 0.51507 0.0
C2768 C 0.20761 0.15085 0.53125 0.0
C2769 C 0.21127 0.18864 0.49263 0.0
C2770 C 0.21296 0.1743 0.4996 0.0
C2771 C 0.22072 0.13438 0.52077 0.0
C2772 C 0.21754 0.14782 0.51329 0.0
H2773 H 0.23399 0.22751 0.46691 0.0
H2774 H 0.23676 0.20432 0.48207 0.0
H2775 H 0.19788 0.16614 0.53896 0.0
H2776 H 0.20177 0.09529 0.54675 0.0
H2777 H 0.19647 0.11749 0.53745 0.0
C2778 C 0.81083 0.02064 0.46967 0.0
C2779 C 0.8073 0.00621 0.48509 0.0
C2780 C 0.8224 0.03513 0.47923 0.0
C2781 C 0.85901 0.05359 0.51988 0.0
H2782 H 0.84956 0.08804 0.5227 0.0
C2783 C 0.90646 0.11563 0.5546 0.0
C2784 C 0.90681 0.12902 0.53987 0.0
C2785 C 0.89396 0.10024 0.55065 0.0
C2786 C 0.85253 0.07865 0.52168 0.0
H2787 H 0.81313 0.99564 0.5226 0.0
H2788 H 0.83372 0.02111 0.53909 0.0
H2789 H 0.8285 0.06204 0.51054 0.0
H2790 H 0.89383 0.13648 0.50992 0.0
H2791 H 0.87277 0.10993 0.50197 0.0
H2792 H 0.88321 0.0703 0.52983 0.0
C2793 C 0.82739 0.02113 0.5197 0.0
C2794 C 0.84039 0.0637 0.51488 0.0
C2795 C 0.81557 0.00659 0.51039 0.0
C2796 C 0.89426 0.12654 0.52125 0.0
C2797 C 0.88191 0.11122 0.51708 0.0
C2798 C 0.87126 0.06864 0.52629 0.0
C2799 C 0.8309 0.03555 0.50421 0.0
C2800 C 0.84353 0.05106 0.51357 0.0
C2801 C 0.88151 0.09781 0.53176 0.0
C2802 C 0.86826 0.08146 0.52689 0.0
H2803 H 0.80457 0.02071 0.45021 0.0
H2804 H 0.82492 0.04604 0.46673 0.0
H2805 H 0.86181 0.04408 0.51881 0.0
H2806 H 0.91594 0.11699 0.56894 0.0
H2807 H 0.89403 0.09027 0.56261 0.0
C2808 C 0.89225 0.45322 0.35731 0.0
C2809 C 0.89779 0.45888 0.38442 0.0
C2810 C 0.88827 0.43776 0.35172 0.0
C2811 C 0.8788 0.39826 0.38689 0.0
H2812 H 0.8917 0.39276 0.31122 0.0
C2813 C 0.85872 0.33622 0.34595 0.0
C2814 C 0.86981 0.33474 0.32842 0.0
C2815 C 0.86228 0.35112 0.35454 0.0
C2816 C 0.88815 0.39406 0.33258 0.0
H2817 H 0.90326 0.4526 0.42709 0.0
H2818 H 0.89644 0.42564 0.4173 0.0
H2819 H 0.89738 0.41898 0.32286 0.0
H2820 H 0.89332 0.34729 0.3065 0.0
H2821 H 0.89979 0.3733 0.32193 0.0
H2822 H 0.86988 0.37333 0.39675 0.0
C2823 C 0.89494 0.43309 0.40044 0.0
C2824 C 0.8912 0.40911 0.33913 0.0
C2825 C 0.89886 0.44855 0.40608 0.0
C2826 C 0.88464 0.34823 0.32011 0.0
C2827 C 0.88824 0.3631 0.32874 0.0
C2828 C 0.87576 0.38317 0.38034 0.0
C2829 C 0.88981 0.42756 0.37304 0.0
C2830 C 0.88652 0.41143 0.36632 0.0
C2831 C 0.877 0.36481 0.34569 0.0
C2832 C 0.88039 0.38087 0.35307 0.0
H2833 H 0.89102 0.46077 0.3403 0.0
H2834 H 0.88401 0.43383 0.33059 0.0
H2835 H 0.87491 0.39955 0.40797 0.0
H2836 H 0.84714 0.32593 0.3523 0.0
H2837 H 0.85326 0.35198 0.36729 0.0
C2838 C 0.5487 0.45614 0.38259 0.0
C2839 C 0.54471 0.44016 0.38242 0.0
C2840 C 0.56469 0.46829 0.3775 0.0
C2841 C 0.60714 0.47682 0.37623 0.0
H2842 H 0.61441 0.51247 0.32255 0.0
C2843 C 0.67019 0.52136 0.32431 0.0
C2844 C 0.67417 0.53729 0.31847 0.0
C2845 C 0.65465 0.50994 0.33465 0.0
C2846 C 0.61264 0.50277 0.33797 0.0
H2847 H 0.55411 0.42423 0.37702 0.0
H2848 H 0.58219 0.44547 0.36835 0.0
H2849 H 0.58693 0.49178 0.33624 0.0
H2850 H 0.66552 0.55405 0.32002 0.0
H2851 H 0.63835 0.53418 0.33873 0.0
H2852 H 0.63285 0.48779 0.37794 0.0
C2853 C 0.57302 0.44864 0.37272 0.0
C2854 C 0.59685 0.49086 0.34579 0.0
C2855 C 0.55699 0.43649 0.37766 0.0
C2856 C 0.66259 0.54177 0.32415 0.0
C2857 C 0.64704 0.53036 0.33463 0.0
C2858 C 0.62295 0.48878 0.36853 0.0
C2859 C 0.57703 0.46471 0.37215 0.0
C2860 C 0.59389 0.47767 0.36485 0.0
C2861 C 0.64278 0.51424 0.33965 0.0
C2862 C 0.62594 0.50187 0.34909 0.0
H2863 H 0.53936 0.4592 0.38608 0.0
H2864 H 0.56737 0.48051 0.37755 0.0
H2865 H 0.60529 0.46694 0.39126 0.0
H2866 H 0.67903 0.51771 0.32023 0.0
H2867 H 0.65183 0.49766 0.33792 0.0
C2868 C 0.56511 0.11602 0.39652 0.0
C2869 C 0.56695 0.10573 0.37895 0.0
C2870 C 0.55282 0.11982 0.39184 0.0
C2871 C 0.51429 0.10657 0.35289 0.0
H2872 H 0.52177 0.14866 0.36541 0.0
C2873 C 0.4645 0.12293 0.33155 0.0
C2874 C 0.46924 0.13841 0.31993 0.0
C2875 C 0.47596 0.11901 0.34209 0.0
C2876 C 0.51949 0.13689 0.36145 0.0
H2877 H 0.55677 0.09107 0.34301 0.0
H2878 H 0.53632 0.09844 0.33376 0.0
H2879 H 0.54268 0.14185 0.37616 0.0
H2880 H 0.4895 0.1621 0.311 0.0
H2881 H 0.5097 0.1552 0.32777 0.0
H2882 H 0.49162 0.10188 0.3364 0.0
C2883 C 0.54404 0.10332 0.35171 0.0
C2884 C 0.53145 0.13287 0.36813 0.0
C2885 C 0.5561 0.09933 0.35667 0.0
C2886 C 0.4856 0.15003 0.31968 0.0
C2887 C 0.49713 0.14607 0.32963 0.0
C2888 C 0.5025 0.11066 0.34573 0.0
C2889 C 0.54211 0.11355 0.36927 0.0
C2890 C 0.52909 0.11768 0.36368 0.0
C2891 C 0.49252 0.13044 0.34074 0.0
C2892 C 0.50492 0.12592 0.34971 0.0
H2893 H 0.57325 0.12131 0.41375 0.0
H2894 H 0.55166 0.12759 0.40611 0.0
H2895 H 0.51177 0.09462 0.34974 0.0
H2896 H 0.45191 0.1138 0.33218 0.0
H2897 H 0.47178 0.10697 0.35116 0.0
C2898 C 0.67539 0.53438 0.82889 0.0
C2899 C 0.67314 0.54401 0.84741 0.0
C2900 C 0.69093 0.53832 0.81912 0.0
C2901 C 0.73328 0.5604 0.83976 0.0
H2902 H 0.743 0.55486 0.76163 0.0
C2903 C 0.7932 0.56321 0.80997 0.0
C2904 C 0.80148 0.57225 0.78429 0.0
C2905 C 0.77723 0.55932 0.8159 0.0
C2906 C 0.7405 0.55655 0.78348 0.0
H2907 H 0.68516 0.56514 0.87052 0.0
H2908 H 0.71238 0.5722 0.85333 0.0
H2909 H 0.71593 0.54986 0.77486 0.0
H2910 H 0.79919 0.58377 0.74415 0.0
H2911 H 0.77119 0.57688 0.75445 0.0
H2912 H 0.75779 0.56718 0.84841 0.0
C2913 C 0.70219 0.56161 0.84628 0.0
C2914 C 0.72495 0.55356 0.79113 0.0
C2915 C 0.68664 0.55767 0.85595 0.0
C2916 C 0.79313 0.57668 0.76403 0.0
C2917 C 0.77709 0.57276 0.76997 0.0
C2918 C 0.74875 0.56329 0.83217 0.0
C2919 C 0.70455 0.55188 0.828 0.0
C2920 C 0.72115 0.55544 0.8194 0.0
C2921 C 0.76908 0.56435 0.79629 0.0
C2922 C 0.75255 0.56134 0.80399 0.0
H2923 H 0.66515 0.52356 0.82263 0.0
H2924 H 0.6923 0.53044 0.80546 0.0
H2925 H 0.73075 0.56179 0.8618 0.0
H2926 H 0.79915 0.55932 0.82578 0.0
H2927 H 0.77131 0.5525 0.83606 0.0
C2928 C 0.42935 0.22092 0.77777 0.0
C2929 C 0.44099 0.237 0.77848 0.0
C2930 C 0.43366 0.20908 0.78235 0.0
C2931 C 0.46874 0.20215 0.78378 0.0
H2932 H 0.44047 0.16512 0.83495 0.0
C2933 C 0.48876 0.15845 0.83421 0.0
C2934 C 0.47717 0.14228 0.83848 0.0
C2935 C 0.48426 0.16967 0.82443 0.0
C2936 C 0.44841 0.17523 0.82024 0.0
H2937 H 0.46613 0.25338 0.78509 0.0
H2938 H 0.47378 0.23277 0.79274 0.0
H2939 H 0.43277 0.18518 0.82197 0.0
H2940 H 0.452 0.12498 0.83507 0.0
H2941 H 0.44408 0.14447 0.81736 0.0
H2942 H 0.48443 0.19224 0.78216 0.0
C2943 C 0.46138 0.22925 0.78807 0.0
C2944 C 0.44398 0.18678 0.8128 0.0
C2945 C 0.45704 0.24107 0.78363 0.0
C2946 C 0.4611 0.13742 0.83201 0.0
C2947 C 0.45659 0.14862 0.82213 0.0
C2948 C 0.47315 0.19057 0.79114 0.0
C2949 C 0.44971 0.21308 0.78787 0.0
C2950 C 0.45414 0.20045 0.79464 0.0
C2951 C 0.46806 0.16493 0.81855 0.0
C2952 C 0.4631 0.17699 0.80965 0.0
H2953 H 0.41685 0.21752 0.77427 0.0
H2954 H 0.42438 0.19677 0.78179 0.0
H2955 H 0.47676 0.21242 0.76944 0.0
H2956 H 0.50123 0.16243 0.83909 0.0
H2957 H 0.49341 0.1821 0.82229 0.0
C2958 C 0.86169 0.3427 0.8296 0.0
C2959 C 0.87464 0.34475 0.84662 0.0
C2960 C 0.85065 0.32765 0.82119 0.0
C2961 C 0.84528 0.2876 0.81291 0.0
H2962 H 0.79963 0.27404 0.81861 0.0
C2963 C 0.79633 0.22207 0.80588 0.0
C2964 C 0.78198 0.21871 0.79201 0.0
C2965 C 0.80772 0.23766 0.81093 0.0
C2966 C 0.81233 0.27768 0.81644 0.0
H2967 H 0.88625 0.33289 0.86857 0.0
H2968 H 0.86703 0.3065 0.85382 0.0
H2969 H 0.81938 0.30078 0.83002 0.0
H2970 H 0.76853 0.22936 0.77241 0.0
H2971 H 0.78859 0.25662 0.78058 0.0
H2972 H 0.83828 0.26455 0.7993 0.0
C2973 C 0.86547 0.31651 0.84654 0.0
C2974 C 0.82368 0.29305 0.82304 0.0
C2975 C 0.87645 0.33156 0.85506 0.0
C2976 C 0.77946 0.23146 0.78297 0.0
C2977 C 0.79091 0.24711 0.78798 0.0
C2978 C 0.83395 0.27227 0.80618 0.0
C2979 C 0.85235 0.31433 0.82967 0.0
C2980 C 0.8403 0.29817 0.82159 0.0
C2981 C 0.80518 0.25042 0.80213 0.0
C2982 C 0.8173 0.26703 0.8081 0.0
H2983 H 0.85998 0.35273 0.82322 0.0
H2984 H 0.84077 0.32643 0.80803 0.0
H2985 H 0.85799 0.29123 0.8111 0.0
H2986 H 0.79885 0.21263 0.81275 0.0
H2987 H 0.81844 0.23967 0.82219 0.0
C2988 C 0.46249 0.22614 0.31449 0.0
C2989 C 0.4538 0.21892 0.29037 0.0
C2990 C 0.46656 0.24174 0.31903 0.0
C2991 C 0.46828 0.27861 0.28385 0.0
H2992 H 0.46734 0.28764 0.36369 0.0
C2993 C 0.46905 0.33534 0.32149 0.0
C2994 C 0.47953 0.34268 0.34384 0.0
C2995 C 0.46669 0.32084 0.31266 0.0
C2996 C 0.46776 0.28534 0.34128 0.0
H2997 H 0.44276 0.22241 0.25181 0.0
H2998 H 0.44935 0.2495 0.26013 0.0
H2999 H 0.46165 0.2613 0.35286 0.0
H3000 H 0.49655 0.34092 0.37292 0.0
H3001 H 0.49205 0.31555 0.35812 0.0
H3002 H 0.47387 0.30272 0.27255 0.0
C3003 C 0.45343 0.24332 0.27524 0.0
C3004 C 0.4646 0.27023 0.33501 0.0
C3005 C 0.44959 0.22776 0.27046 0.0
C3006 C 0.48803 0.33544 0.35626 0.0
C3007 C 0.48553 0.32092 0.3477 0.0
C3008 C 0.47121 0.29371 0.29016 0.0
C3009 C 0.46176 0.25046 0.29986 0.0
C3010 C 0.46497 0.26665 0.30622 0.0
C3011 C 0.47465 0.31332 0.32616 0.0
C3012 C 0.47114 0.29726 0.31898 0.0
H3013 H 0.46603 0.21964 0.33001 0.0
H3014 H 0.47339 0.2469 0.33776 0.0
H3015 H 0.46886 0.27643 0.26143 0.0
H3016 H 0.46221 0.34047 0.31154 0.0
H3017 H 0.45819 0.31521 0.29605 0.0
C3018 C 0.66639 0.13907 0.34276 0.0
C3019 C 0.66592 0.12653 0.36059 0.0
C3020 C 0.68118 0.15258 0.33435 0.0
C3021 C 0.72325 0.17478 0.35719 0.0
H3022 H 0.73188 0.19626 0.28008 0.0
C3023 C 0.77984 0.23574 0.33035 0.0
C3024 C 0.78855 0.23784 0.30439 0.0
C3025 C 0.76442 0.22262 0.33588 0.0
C3026 C 0.72968 0.19036 0.30167 0.0
H3027 H 0.68031 0.11792 0.38315 0.0
H3028 H 0.70621 0.14142 0.36837 0.0
H3029 H 0.70615 0.17197 0.29177 0.0
H3030 H 0.78761 0.22793 0.26352 0.0
H3031 H 0.76066 0.20504 0.27315 0.0
H3032 H 0.74681 0.19293 0.36704 0.0
C3033 C 0.69521 0.141 0.36112 0.0
C3034 C 0.71488 0.17652 0.30845 0.0
C3035 C 0.68044 0.12751 0.36943 0.0
C3036 C 0.78118 0.22679 0.28361 0.0
C3037 C 0.76573 0.21363 0.28916 0.0
C3038 C 0.73799 0.18861 0.35046 0.0
C3039 C 0.69578 0.1538 0.34375 0.0
C3040 C 0.7115 0.16853 0.33629 0.0
C3041 C 0.75729 0.21122 0.31561 0.0
C3042 C 0.74142 0.1966 0.32263 0.0
H3043 H 0.65528 0.13854 0.33586 0.0
H3044 H 0.68115 0.16225 0.3212 0.0
H3045 H 0.721 0.16907 0.37894 0.0
H3046 H 0.78502 0.24417 0.3466 0.0
H3047 H 0.75813 0.22133 0.35621 0.0
C3048 C 0.87828 0.54372 0.35715 0.0
C3049 C 0.87647 0.52852 0.36264 0.0
C3050 C 0.86536 0.54558 0.34761 0.0
C3051 C 0.82072 0.52447 0.3459 0.0
H3052 H 0.82906 0.56005 0.29111 0.0
C3053 C 0.77043 0.53722 0.30068 0.0
C3054 C 0.77418 0.55322 0.29954 0.0
C3055 C 0.78223 0.53295 0.30748 0.0
C3056 C 0.82652 0.5501 0.30655 0.0
H3057 H 0.85982 0.50331 0.36301 0.0
H3058 H 0.8371 0.50648 0.34578 0.0
H3059 H 0.85091 0.55483 0.30353 0.0
H3060 H 0.79312 0.57711 0.30641 0.0
H3061 H 0.81354 0.56973 0.31769 0.0
H3062 H 0.79625 0.51984 0.34882 0.0
C3063 C 0.8485 0.51699 0.34893 0.0
C3064 C 0.83908 0.54711 0.31373 0.0
C3065 C 0.86149 0.51515 0.35853 0.0
C3066 C 0.78987 0.56473 0.30617 0.0
C3067 C 0.80161 0.56051 0.31273 0.0
C3068 C 0.80809 0.52743 0.33856 0.0
C3069 C 0.85026 0.53226 0.34341 0.0
C3070 C 0.83645 0.53446 0.33395 0.0
C3071 C 0.79804 0.54461 0.31313 0.0
C3072 C 0.81094 0.54048 0.31924 0.0
H3073 H 0.88966 0.55418 0.36078 0.0
H3074 H 0.86712 0.5575 0.34424 0.0
H3075 H 0.81825 0.5147 0.36172 0.0
H3076 H 0.75851 0.52804 0.29562 0.0
H3077 H 0.7791 0.5206 0.30759 0.0
C3078 C 0.57317 0.13985 0.87171 0.0
C3079 C 0.56037 0.12479 0.86652 0.0
C3080 C 0.58924 0.1435 0.86701 0.0
C3081 C 0.61316 0.12973 0.82663 0.0
H3082 H 0.64789 0.15586 0.87528 0.0
C3083 C 0.67499 0.13368 0.81726 0.0
C3084 C 0.68858 0.14892 0.81549 0.0
C3085 C 0.65984 0.13141 0.8254 0.0
C3086 C 0.63832 0.14864 0.86141 0.0
H3087 H 0.55438 0.10144 0.85422 0.0
H3088 H 0.58215 0.10759 0.84669 0.0
H3089 H 0.62043 0.15061 0.88612 0.0
H3090 H 0.69724 0.17371 0.82119 0.0
H3091 H 0.67059 0.16974 0.83596 0.0
H3092 H 0.6309 0.12754 0.8022 0.0
C3093 C 0.57993 0.11685 0.85332 0.0
C3094 C 0.62259 0.14566 0.86755 0.0
C3095 C 0.56397 0.11328 0.85775 0.0
C3096 C 0.6869 0.16183 0.82278 0.0
C3097 C 0.67169 0.15954 0.83119 0.0
C3098 C 0.62877 0.13259 0.82069 0.0
C3099 C 0.59281 0.13209 0.85726 0.0
C3100 C 0.60976 0.13598 0.85042 0.0
C3101 C 0.65794 0.14434 0.83198 0.0
C3102 C 0.64151 0.14192 0.83815 0.0
H3103 H 0.57074 0.14896 0.87847 0.0
H3104 H 0.59883 0.15538 0.87019 0.0
H3105 H 0.60374 0.12261 0.81242 0.0
H3106 H 0.67605 0.12359 0.81147 0.0
H3107 H 0.64954 0.11953 0.82614 0.0
C3108 C 0.90696 0.46075 0.8539 0.0
C3109 C 0.89423 0.44527 0.86154 0.0
C3110 C 0.90398 0.47337 0.84803 0.0
C3111 C 0.87297 0.48375 0.82657 0.0
H3112 H 0.90152 0.52318 0.85998 0.0
C3113 C 0.86394 0.53877 0.81221 0.0
C3114 C 0.87796 0.55356 0.80684 0.0
C3115 C 0.86503 0.52519 0.82074 0.0
C3116 C 0.89353 0.51233 0.85022 0.0
H3117 H 0.86825 0.4309 0.86791 0.0
H3118 H 0.86301 0.45305 0.8572 0.0
H3119 H 0.90489 0.50005 0.8704 0.0
H3120 H 0.90402 0.56599 0.80606 0.0
H3121 H 0.90607 0.54234 0.82065 0.0
H3122 H 0.86181 0.49614 0.80588 0.0
C3123 C 0.87533 0.45534 0.85595 0.0
C3124 C 0.89545 0.49904 0.85625 0.0
C3125 C 0.87833 0.44265 0.86202 0.0
C3126 C 0.89307 0.55468 0.81045 0.0
C3127 C 0.89419 0.54113 0.81889 0.0
C3128 C 0.8711 0.4971 0.82038 0.0
C3129 C 0.88818 0.47089 0.84938 0.0
C3130 C 0.88534 0.48465 0.84421 0.0
C3131 C 0.88019 0.52616 0.82396 0.0
C3132 C 0.88149 0.51164 0.83185 0.0
H3133 H 0.91933 0.46317 0.85247 0.0
H3134 H 0.91412 0.48511 0.84231 0.0
H3135 H 0.86506 0.47287 0.81679 0.0
H3136 H 0.85217 0.5377 0.80936 0.0
H3137 H 0.854 0.51393 0.82479 0.0
C3138 C 0.56198 0.45662 0.85529 0.0
C3139 C 0.576 0.45964 0.86991 0.0
C3140 C 0.5511 0.4413 0.84812 0.0
C3141 C 0.53545 0.3996 0.87048 0.0
H3142 H 0.51992 0.39285 0.79267 0.0
C3143 C 0.48765 0.33725 0.8378 0.0
C3144 C 0.47615 0.33666 0.81812 0.0
C3145 C 0.5009 0.35184 0.84369 0.0
C3146 C 0.52392 0.39451 0.81463 0.0
H3147 H 0.58967 0.44905 0.88852 0.0
H3148 H 0.57029 0.42196 0.87657 0.0
H3149 H 0.54103 0.41907 0.8037 0.0
H3150 H 0.46993 0.35119 0.7889 0.0
H3151 H 0.49225 0.37636 0.8003 0.0
H3152 H 0.51788 0.37527 0.88188 0.0
C3153 C 0.56788 0.43156 0.87048 0.0
C3154 C 0.53613 0.40954 0.82084 0.0
C3155 C 0.57897 0.44702 0.87716 0.0
C3156 C 0.47827 0.35106 0.80461 0.0
C3157 C 0.49135 0.36559 0.81075 0.0
C3158 C 0.52303 0.38458 0.8644 0.0
C3159 C 0.55386 0.42858 0.85583 0.0
C3160 C 0.54188 0.41229 0.84888 0.0
C3161 C 0.50294 0.36623 0.83021 0.0
C3162 C 0.51692 0.38188 0.83646 0.0
H3163 H 0.55946 0.46617 0.84933 0.0
H3164 H 0.54035 0.43932 0.83702 0.0
H3165 H 0.5396 0.40145 0.89235 0.0
H3166 H 0.4864 0.32647 0.84886 0.0
H3167 H 0.50961 0.35178 0.8586 0.0
C3168 C 0.52266 0.67047 0.68089 0.0
C3169 C 0.53368 0.66823 0.66464 0.0
C3170 C 0.52679 0.68561 0.68904 0.0
C3171 C 0.555 0.72825 0.66772 0.0
H3172 H 0.54148 0.7349 0.74185 0.0
C3173 C 0.57834 0.79111 0.70431 0.0
C3174 C 0.56722 0.79442 0.71778 0.0
C3175 C 0.57416 0.77556 0.69916 0.0
C3176 C 0.54521 0.73323 0.72094 0.0
H3177 H 0.55763 0.6797 0.64449 0.0
H3178 H 0.5651 0.7061 0.65916 0.0
H3179 H 0.53459 0.70806 0.73089 0.0
H3180 H 0.54298 0.78375 0.73685 0.0
H3181 H 0.53566 0.75652 0.72792 0.0
H3182 H 0.56561 0.75334 0.65772 0.0
C3183 C 0.55316 0.69632 0.66532 0.0
C3184 C 0.54126 0.71783 0.71464 0.0
C3185 C 0.54899 0.68122 0.65714 0.0
C3186 C 0.55189 0.78165 0.72661 0.0
C3187 C 0.5477 0.76603 0.72149 0.0
C3188 C 0.55896 0.7436 0.67403 0.0
C3189 C 0.54204 0.6988 0.68099 0.0
C3190 C 0.54617 0.71514 0.68797 0.0
C3191 C 0.55873 0.76281 0.7074 0.0
C3192 C 0.55419 0.74632 0.70076 0.0
H3193 H 0.51071 0.66058 0.68659 0.0
H3194 H 0.51786 0.68706 0.70081 0.0
H3195 H 0.55867 0.72665 0.64669 0.0
H3196 H 0.5904 0.80057 0.69785 0.0
H3197 H 0.58309 0.77351 0.68886 0.0
C3198 C 0.2156 0.78861 0.72852 0.0
C3199 C 0.20932 0.77494 0.71333 0.0
C3200 C 0.23177 0.80053 0.72379 0.0
C3201 C 0.26391 0.81711 0.6672 0.0
H3202 H 0.29304 0.83783 0.72807 0.0
C3203 C 0.32607 0.87305 0.64263 0.0
C3204 C 0.3392 0.87248 0.65519 0.0
C3205 C 0.31023 0.8618 0.65177 0.0
C3206 C 0.28502 0.83215 0.71087 0.0
H3207 H 0.21495 0.76248 0.68254 0.0
H3208 H 0.24313 0.78335 0.6739 0.0
H3209 H 0.26542 0.81637 0.74069 0.0
H3210 H 0.34612 0.8596 0.68675 0.0
H3211 H 0.3184 0.84021 0.70348 0.0
H3212 H 0.28337 0.83283 0.63737 0.0
C3213 C 0.23561 0.78498 0.68926 0.0
C3214 C 0.26921 0.81994 0.71809 0.0
C3215 C 0.21956 0.77302 0.69427 0.0
C3216 C 0.33621 0.8606 0.67739 0.0
C3217 C 0.32036 0.84947 0.68682 0.0
C3218 C 0.27958 0.82944 0.66001 0.0
C3219 C 0.24184 0.799 0.70357 0.0
C3220 C 0.25854 0.81219 0.6963 0.0
C3221 C 0.30719 0.84977 0.67375 0.0
C3222 C 0.29036 0.83705 0.68173 0.0
H3223 H 0.20787 0.79026 0.74337 0.0
H3224 H 0.23623 0.81121 0.73509 0.0
H3225 H 0.25592 0.81148 0.64992 0.0
H3226 H 0.3281 0.88195 0.62517 0.0
H3227 H 0.30034 0.86239 0.64137 0.0
C3228 C 0.2204 0.42469 0.69702 0.0
C3229 C 0.23451 0.4351 0.71063 0.0
C3230 C 0.20853 0.4288 0.69061 0.0
C3231 C 0.19296 0.45551 0.70869 0.0
H3232 H 0.17388 0.44595 0.63379 0.0
C3233 C 0.15078 0.47872 0.66386 0.0
C3234 C 0.13773 0.46855 0.64784 0.0
C3235 C 0.16232 0.47453 0.67282 0.0
C3236 C 0.17888 0.44852 0.65497 0.0
H3237 H 0.24693 0.45792 0.72877 0.0
H3238 H 0.22612 0.46511 0.71763 0.0
H3239 H 0.19448 0.43905 0.64711 0.0
H3240 H 0.12644 0.44618 0.62837 0.0
H3241 H 0.14637 0.43861 0.64442 0.0
H3242 H 0.1773 0.46497 0.71652 0.0
C3243 C 0.22426 0.4537 0.71202 0.0
C3244 C 0.19075 0.44458 0.66261 0.0
C3245 C 0.2362 0.44958 0.71842 0.0
C3246 C 0.13635 0.45412 0.64096 0.0
C3247 C 0.14785 0.44989 0.64994 0.0
C3248 C 0.18103 0.45943 0.70107 0.0
C3249 C 0.21036 0.44343 0.69769 0.0
C3250 C 0.19791 0.44795 0.6896 0.0
C3251 C 0.16109 0.46011 0.66577 0.0
C3252 C 0.17378 0.45593 0.67412 0.0
H3253 H 0.21845 0.41326 0.69137 0.0
H3254 H 0.19783 0.42043 0.6802 0.0
H3255 H 0.19808 0.45814 0.72977 0.0
H3256 H 0.15222 0.49007 0.66888 0.0
H3257 H 0.17244 0.48281 0.68455 0.0
C3258 C 0.35237 0.89046 0.19425 0.0
C3259 C 0.33925 0.87503 0.19422 0.0
C3260 C 0.36773 0.89382 0.18449 0.0
C3261 C 0.39233 0.87465 0.1723 0.0
H3262 H 0.41985 0.91393 0.12576 0.0
C3263 C 0.45454 0.88926 0.12155 0.0
C3264 C 0.46709 0.90508 0.12159 0.0
C3265 C 0.43869 0.88509 0.12989 0.0
C3266 C 0.4124 0.90297 0.13901 0.0
H3267 H 0.33158 0.85098 0.18417 0.0
H3268 H 0.35841 0.85679 0.16686 0.0
H3269 H 0.39279 0.90778 0.14108 0.0
H3270 H 0.47289 0.92874 0.13178 0.0
H3271 H 0.44548 0.92151 0.14637 0.0
H3272 H 0.41203 0.86991 0.17041 0.0
C3273 C 0.35696 0.86631 0.17459 0.0
C3274 C 0.39686 0.89945 0.14779 0.0
C3275 C 0.34161 0.86298 0.18426 0.0
C3276 C 0.46347 0.91652 0.13078 0.0
C3277 C 0.44771 0.91237 0.13914 0.0
C3278 C 0.40791 0.87819 0.16356 0.0
C3279 C 0.37024 0.88177 0.17465 0.0
C3280 C 0.38666 0.8853 0.16471 0.0
C3281 C 0.43506 0.89665 0.13857 0.0
C3282 C 0.41821 0.89247 0.14699 0.0
H3283 H 0.35075 0.89986 0.20207 0.0
H3284 H 0.3777 0.9058 0.18518 0.0
H3285 H 0.38487 0.86372 0.1856 0.0
H3286 H 0.4569 0.88017 0.11446 0.0
H3287 H 0.42924 0.87289 0.12898 0.0
C3288 C 0.15421 0.49006 0.16655 0.0
C3289 C 0.14242 0.47413 0.17334 0.0
C3290 C 0.14978 0.50127 0.15647 0.0
C3291 C 0.11461 0.50797 0.15595 0.0
H3292 H 0.14163 0.54331 0.10046 0.0
C3293 C 0.09591 0.55392 0.11372 0.0
C3294 C 0.10798 0.56993 0.11274 0.0
C3295 C 0.09986 0.54182 0.11815 0.0
C3296 C 0.13399 0.53356 0.1161 0.0
H3297 H 0.1169 0.45721 0.174 0.0
H3298 H 0.10906 0.47667 0.1557 0.0
H3299 H 0.1489 0.52285 0.11326 0.0
H3300 H 0.13353 0.58595 0.11619 0.0
H3301 H 0.14055 0.56487 0.12352 0.0
H3302 H 0.09975 0.51871 0.15887 0.0
C3303 C 0.12172 0.48066 0.15876 0.0
C3304 C 0.13818 0.52182 0.1235 0.0
C3305 C 0.12617 0.46947 0.16898 0.0
C3306 C 0.12409 0.57368 0.11601 0.0
C3307 C 0.12807 0.5616 0.12029 0.0
C3308 C 0.11039 0.51965 0.14845 0.0
C3309 C 0.13344 0.49677 0.15277 0.0
C3310 C 0.12861 0.50892 0.14373 0.0
C3311 C 0.11598 0.54551 0.12182 0.0
C3312 C 0.12009 0.53267 0.1286 0.0
H3313 H 0.16683 0.49388 0.16977 0.0
H3314 H 0.15914 0.51356 0.15244 0.0
H3315 H 0.10708 0.49841 0.17199 0.0
H3316 H 0.08338 0.55079 0.11167 0.0
H3317 H 0.09027 0.52957 0.11898 0.0
C3318 C 0.54246 0.66277 0.18103 0.0
C3319 C 0.54123 0.67618 0.17158 0.0
C3320 C 0.53127 0.64774 0.17278 0.0
C3321 C 0.48973 0.62496 0.14746 0.0
H3322 H 0.50351 0.59506 0.1285 0.0
C3323 C 0.44498 0.56274 0.1099 0.0
C3324 C 0.44697 0.54991 0.12076 0.0
C3325 C 0.45658 0.57843 0.11434 0.0
C3326 C 0.4994 0.60318 0.13403 0.0
H3327 H 0.5275 0.6846 0.14628 0.0
H3328 H 0.50788 0.65829 0.13154 0.0
H3329 H 0.52356 0.6218 0.13925 0.0
H3330 H 0.46306 0.54371 0.14424 0.0
H3331 H 0.48292 0.57085 0.15259 0.0
H3332 H 0.46555 0.60626 0.14265 0.0
C3333 C 0.51743 0.65933 0.14542 0.0
C3334 C 0.51093 0.61856 0.14016 0.0
C3335 C 0.52869 0.67438 0.15361 0.0
C3336 C 0.46094 0.55322 0.13593 0.0
C3337 C 0.4725 0.56886 0.14037 0.0
C3338 C 0.47818 0.60955 0.14141 0.0
C3339 C 0.51852 0.64578 0.15503 0.0
C3340 C 0.50626 0.62962 0.1472 0.0
C3341 C 0.4705 0.58171 0.12968 0.0
C3342 C 0.48284 0.59838 0.13486 0.0
H3343 H 0.55196 0.66391 0.19517 0.0
H3344 H 0.53236 0.63758 0.18093 0.0
H3345 H 0.48566 0.63308 0.15314 0.0
H3346 H 0.43435 0.56067 0.09828 0.0
H3347 H 0.45468 0.588 0.10551 0.0
C3348 C 0.15776 0.67089 0.68649 0.0
C3349 C 0.14825 0.67664 0.6729 0.0
C3350 C 0.15642 0.65649 0.67958 0.0
C3351 C 0.14458 0.6288 0.62321 0.0
H3352 H 0.13518 0.59642 0.68589 0.0
C3353 C 0.12221 0.56349 0.6018 0.0
C3354 C 0.12561 0.5538 0.62127 0.0
C3355 C 0.1266 0.57903 0.60745 0.0
C3356 C 0.13814 0.60537 0.66808 0.0
H3357 H 0.13024 0.6721 0.64091 0.0
H3358 H 0.12821 0.6471 0.62826 0.0
H3359 H 0.1401 0.62261 0.69667 0.0
H3360 H 0.13696 0.55334 0.66163 0.0
H3361 H 0.1454 0.58067 0.67065 0.0
H3362 H 0.14303 0.61186 0.59456 0.0
C3363 C 0.13658 0.65368 0.64443 0.0
C3364 C 0.14086 0.62038 0.67432 0.0
C3365 C 0.13768 0.66792 0.65174 0.0
C3366 C 0.13419 0.56039 0.64597 0.0
C3367 C 0.13881 0.57606 0.65142 0.0
C3368 C 0.14215 0.61389 0.61696 0.0
C3369 C 0.14578 0.64772 0.65854 0.0
C3370 C 0.14388 0.63216 0.65193 0.0
C3371 C 0.13482 0.58553 0.6325 0.0
C3372 C 0.13863 0.60185 0.63927 0.0
H3373 H 0.1659 0.67732 0.70305 0.0
H3374 H 0.16369 0.65219 0.6907 0.0
H3375 H 0.14707 0.63774 0.60555 0.0
H3376 H 0.11595 0.55904 0.5822 0.0
H3377 H 0.1231 0.58576 0.59243 0.0
C3378 C 0.32912 0.47326 0.67869 0.0
C3379 C 0.32889 0.45937 0.69012 0.0
C3380 C 0.34376 0.48669 0.66897 0.0
C3381 C 0.3868 0.49956 0.64888 0.0
H3382 H 0.39445 0.54114 0.66637 0.0
C3383 C 0.4507 0.55366 0.64991 0.0
C3384 C 0.45337 0.56847 0.63753 0.0
C3385 C 0.43511 0.54062 0.65332 0.0
C3386 C 0.39243 0.52964 0.66099 0.0
H3387 H 0.34345 0.44841 0.70052 0.0
H3388 H 0.36899 0.47178 0.68417 0.0
H3389 H 0.36794 0.51783 0.67761 0.0
H3390 H 0.44166 0.58113 0.61892 0.0
H3391 H 0.41425 0.55826 0.62516 0.0
H3392 H 0.41144 0.51133 0.63312 0.0
C3393 C 0.35799 0.47238 0.6819 0.0
C3394 C 0.3772 0.51625 0.66737 0.0
C3395 C 0.34339 0.45899 0.69142 0.0
C3396 C 0.44001 0.56987 0.62845 0.0
C3397 C 0.42432 0.55682 0.63221 0.0
C3398 C 0.40202 0.51291 0.64275 0.0
C3399 C 0.35844 0.48649 0.67069 0.0
C3400 C 0.37424 0.50097 0.66181 0.0
C3401 C 0.4217 0.54202 0.64465 0.0
C3402 C 0.40511 0.52808 0.64911 0.0
H3403 H 0.31804 0.47378 0.67767 0.0
H3404 H 0.34356 0.49724 0.66018 0.0
H3405 H 0.38492 0.4881 0.6436 0.0
H3406 H 0.46074 0.55212 0.65683 0.0
H3407 H 0.43352 0.52946 0.66324 0.0
C3408 C 0.54465 0.87801 0.68744 0.0
C3409 C 0.54302 0.86292 0.69373 0.0
C3410 C 0.53154 0.87958 0.67807 0.0
C3411 C 0.48692 0.85822 0.67905 0.0
H3412 H 0.49405 0.89259 0.6222 0.0
C3413 C 0.43561 0.86992 0.63598 0.0
C3414 C 0.43942 0.88595 0.6336 0.0
C3415 C 0.44755 0.8658 0.64243 0.0
C3416 C 0.49186 0.88298 0.63822 0.0
H3417 H 0.52649 0.83763 0.69567 0.0
H3418 H 0.50342 0.84028 0.67879 0.0
H3419 H 0.5162 0.8877 0.63386 0.0
H3420 H 0.4586 0.91008 0.63792 0.0
H3421 H 0.47924 0.90294 0.64872 0.0
H3422 H 0.46251 0.85362 0.6834 0.0
C3423 C 0.51484 0.85093 0.68114 0.0
C3424 C 0.50458 0.88018 0.64495 0.0
C3425 C 0.52803 0.84937 0.69052 0.0
C3426 C 0.45529 0.89766 0.63871 0.0
C3427 C 0.46716 0.89357 0.64495 0.0
C3428 C 0.47413 0.86099 0.6722 0.0
C3429 C 0.51642 0.86607 0.6749 0.0
C3430 C 0.50239 0.86798 0.66589 0.0
C3431 C 0.46353 0.87763 0.64651 0.0
C3432 C 0.47656 0.87363 0.65214 0.0
H3433 H 0.55603 0.88861 0.69041 0.0
H3434 H 0.53316 0.89142 0.6741 0.0
H3435 H 0.48481 0.84879 0.69545 0.0
H3436 H 0.42354 0.86061 0.6321 0.0
H3437 H 0.44437 0.85341 0.64346 0.0
C3438 C 0.22891 0.4466 0.18241 0.0
C3439 C 0.22561 0.45698 0.19692 0.0
C3440 C 0.24477 0.45018 0.17658 0.0
C3441 C 0.28717 0.47505 0.1969 0.0
H3442 H 0.2962 0.4647 0.12239 0.0
C3443 C 0.35178 0.49188 0.15313 0.0
C3444 C 0.35278 0.47998 0.13934 0.0
C3445 C 0.33667 0.48983 0.16155 0.0
C3446 C 0.29387 0.46755 0.14338 0.0
H3447 H 0.2365 0.47914 0.21736 0.0
H3448 H 0.26438 0.48553 0.2069 0.0
H3449 H 0.26926 0.45998 0.13432 0.0
H3450 H 0.33915 0.45652 0.12426 0.0
H3451 H 0.31282 0.45288 0.13887 0.0
H3452 H 0.31197 0.48271 0.2057 0.0
C3453 C 0.2546 0.47452 0.20022 0.0
C3454 C 0.27839 0.46482 0.15028 0.0
C3455 C 0.23864 0.47088 0.20618 0.0
C3456 C 0.33858 0.46588 0.13471 0.0
C3457 C 0.32355 0.46387 0.14292 0.0
C3458 C 0.30275 0.47786 0.1899 0.0
C3459 C 0.25786 0.4643 0.18497 0.0
C3460 C 0.27473 0.46825 0.1773 0.0
C3461 C 0.32237 0.47589 0.15609 0.0
C3462 C 0.30619 0.47389 0.16323 0.0
H3463 H 0.21917 0.43559 0.17562 0.0
H3464 H 0.24676 0.44179 0.16553 0.0
H3465 H 0.28477 0.47776 0.21796 0.0
H3466 H 0.36263 0.50282 0.1569 0.0
H3467 H 0.33616 0.49932 0.17158 0.0
C3468 C 0.53676 0.87387 0.15411 0.0
C3469 C 0.54884 0.88728 0.13782 0.0
C3470 C 0.539 0.86093 0.16245 0.0
C3471 C 0.56282 0.84217 0.14128 0.0
H3472 H 0.54694 0.8176 0.21537 0.0
C3473 C 0.57772 0.79292 0.17745 0.0
C3474 C 0.56535 0.77859 0.19112 0.0
C3475 C 0.57567 0.80619 0.17239 0.0
C3476 C 0.5513 0.82423 0.19447 0.0
H3477 H 0.57267 0.8978 0.11743 0.0
H3478 H 0.57683 0.87539 0.13243 0.0
H3479 H 0.5438 0.84094 0.20443 0.0
H3480 H 0.54119 0.76723 0.21077 0.0
H3481 H 0.5376 0.79047 0.20194 0.0
H3482 H 0.57028 0.82551 0.13123 0.0
C3483 C 0.56554 0.87473 0.13864 0.0
C3484 C 0.54951 0.83765 0.18818 0.0
C3485 C 0.56328 0.88764 0.1303 0.0
C3486 C 0.551 0.77806 0.20031 0.0
C3487 C 0.54895 0.79141 0.19525 0.0
C3488 C 0.56462 0.82881 0.14757 0.0
C3489 C 0.55334 0.86107 0.15447 0.0
C3490 C 0.55531 0.84684 0.16152 0.0
C3491 C 0.56121 0.80559 0.1809 0.0
C3492 C 0.55895 0.81968 0.17428 0.0
H3493 H 0.52538 0.87321 0.15958 0.0
H3494 H 0.52924 0.85058 0.17423 0.0
H3495 H 0.56711 0.84869 0.12027 0.0
H3496 H 0.5891 0.79394 0.17074 0.0
H3497 H 0.58553 0.81699 0.16193 0.0
C3498 C 0.24451 0.78049 0.21683 0.0
C3499 C 0.24175 0.7932 0.20904 0.0
C3500 C 0.23363 0.76512 0.20941 0.0
C3501 C 0.20297 0.74362 0.15735 0.0
H3502 H 0.18414 0.70864 0.217 0.0
C3503 C 0.14588 0.68503 0.13775 0.0
C3504 C 0.14383 0.67058 0.1509 0.0
C3505 C 0.15874 0.69955 0.14459 0.0
C3506 C 0.18946 0.71817 0.19991 0.0
H3507 H 0.22579 0.79994 0.18671 0.0
H3508 H 0.20703 0.77325 0.17327 0.0
H3509 H 0.20539 0.73474 0.22895 0.0
H3510 H 0.15395 0.66029 0.18169 0.0
H3511 H 0.17676 0.68559 0.19269 0.0
H3512 H 0.18736 0.72723 0.12814 0.0
C3513 C 0.21747 0.77509 0.18533 0.0
C3514 C 0.20162 0.73314 0.20683 0.0
C3515 C 0.22814 0.79033 0.19317 0.0
C3516 C 0.15517 0.67112 0.17088 0.0
C3517 C 0.16818 0.68569 0.17751 0.0
C3518 C 0.19102 0.72865 0.15032 0.0
C3519 C 0.22002 0.7623 0.19352 0.0
C3520 C 0.20827 0.74608 0.18573 0.0
C3521 C 0.17014 0.70013 0.16446 0.0
C3522 C 0.18382 0.71577 0.17161 0.0
H3523 H 0.25488 0.78238 0.22914 0.0
H3524 H 0.23589 0.75546 0.2159 0.0
H3525 H 0.20805 0.75334 0.14056 0.0
H3526 H 0.13764 0.68519 0.12185 0.0
H3527 H 0.15959 0.71035 0.13441 0.0
C3528 C 0.29987 0.27675 0.09802 0.0
C3529 C 0.28974 0.27013 0.07497 0.0
C3530 C 0.30839 0.29325 0.09962 0.0
C3531 C 0.30815 0.33005 0.07832 0.0
H3532 H 0.35463 0.35092 0.08377 0.0
C3533 C 0.34687 0.39875 0.06934 0.0
C3534 C 0.36117 0.40585 0.0845 0.0
C3535 C 0.33817 0.38223 0.06805 0.0
C3536 C 0.34164 0.34536 0.08283 0.0
H3537 H 0.28025 0.27553 0.03599 0.0
H3538 H 0.29474 0.30437 0.03933 0.0
H3539 H 0.33916 0.32212 0.0832 0.0
H3540 H 0.3774 0.40121 0.11073 0.0
H3541 H 0.36195 0.37244 0.10978 0.0
H3542 H 0.31035 0.35303 0.07908 0.0
C3543 C 0.29624 0.29679 0.05591 0.0
C3544 C 0.33279 0.3288 0.08231 0.0
C3545 C 0.288 0.28032 0.05395 0.0
C3546 C 0.36652 0.39607 0.09855 0.0
C3547 C 0.35765 0.37953 0.09781 0.0
C3548 C 0.31694 0.34658 0.07947 0.0
C3549 C 0.30667 0.30345 0.07857 0.0
C3550 C 0.31598 0.32099 0.07988 0.0
C3551 C 0.34334 0.3723 0.08246 0.0
C3552 C 0.33387 0.35456 0.08156 0.0
H3553 H 0.30151 0.26917 0.11439 0.0
H3554 H 0.31631 0.29807 0.11737 0.0
H3555 H 0.29517 0.32431 0.07668 0.0
H3556 H 0.34253 0.40602 0.05811 0.0
H3557 H 0.32747 0.37732 0.05542 0.0
C3558 C 0.62444 0.97196 0.05882 0.0
C3559 C 0.61586 0.96371 0.08483 0.0
C3560 C 0.64137 0.98031 0.05744 0.0
C3561 C 0.67733 0.98399 0.09542 0.0
H3562 H 0.69919 0.02568 0.05357 0.0
C3563 C 0.74693 0.01984 0.07513 0.0
C3564 C 0.75455 0.03634 0.07677 0.0
C3565 C 0.73005 0.01067 0.07662 0.0
C3566 C 0.6933 0.01411 0.06555 0.0
H3567 H 0.61849 0.95736 0.12952 0.0
H3568 H 0.64788 0.97204 0.12723 0.0
H3569 H 0.66982 0.01018 0.05478 0.0
H3570 H 0.75072 0.05623 0.08184 0.0
H3571 H 0.72121 0.04027 0.08477 0.0
H3572 H 0.70081 0.98806 0.10664 0.0
C3573 C 0.64156 0.97203 0.10782 0.0
C3574 C 0.67643 1.00511 0.06591 0.0
C3575 C 0.62467 0.96373 0.10922 0.0
C3576 C 0.74506 0.0435 0.08049 0.0
C3577 C 0.72819 0.03437 0.08191 0.0
C3578 C 0.69421 0.99297 0.09498 0.0
C3579 C 0.65016 0.98056 0.082 0.0
C3580 C 0.66819 0.98995 0.08094 0.0
C3581 C 0.72044 0.01784 0.07971 0.0
C3582 C 0.70243 0.00819 0.08013 0.0
H3583 H 0.61808 0.9723 0.03966 0.0
H3584 H 0.64757 0.98658 0.03709 0.0
H3585 H 0.67144 0.97231 0.10699 0.0
H3586 H 0.75406 0.0141 0.07208 0.0
H3587 H 0.72454 0.99802 0.07457 0.0
C3588 C 0.97747 0.68751 0.07547 0.0
C3589 C 0.98553 0.70376 0.08023 0.0
C3590 C 0.98551 0.67871 0.07756 0.0
C3591 C 0.02194 0.67881 0.10669 0.0
H3592 H 0.01325 0.64821 0.0503 0.0
C3593 C 0.06071 0.64853 0.09546 0.0
C3594 C 0.05268 0.63232 0.09078 0.0
C3595 C 0.05245 0.65713 0.0942 0.0
C3596 C 0.01569 0.65657 0.06643 0.0
H3597 H 0.00842 0.72339 0.09129 0.0
H3598 H 0.02249 0.70806 0.09484 0.0
H3599 H 0.9991 0.66341 0.04856 0.0
H3600 H 0.0298 0.61226 0.08152 0.0
H3601 H 0.0152 0.62725 0.07929 0.0
H3602 H 0.0386 0.67201 0.12444 0.0
C3603 C 0.00985 0.70206 0.0898 0.0
C3604 C 1.00756 0.6653 0.06546 0.0
C3605 C 1.00178 0.71088 0.08778 0.0
C3606 C 0.03624 0.62481 0.08483 0.0
C3607 C 0.02795 0.63342 0.0835 0.0
C3608 C 0.0301 0.67009 0.10762 0.0
C3609 C 1.00187 0.68588 0.08444 0.0
C3610 C 0.01055 0.67655 0.08558 0.0
C3611 C 0.03593 0.64969 0.08833 0.0
C3612 C 0.0271 0.65886 0.08748 0.0
H3613 H 0.96487 0.68155 0.07018 0.0
H3614 H 0.97883 0.66621 0.07392 0.0
H3615 H 0.02439 0.68716 0.12283 0.0
H3616 H 0.07337 0.65451 0.10035 0.0
H3617 H 0.05905 0.66964 0.09767 0.0
C3618 C 0.29546 0.29832 0.43959 0.0
C3619 C 0.28695 0.30077 0.41683 0.0
C3620 C 0.31233 0.30681 0.43916 0.0
C3621 C 0.34842 0.33025 0.38986 0.0
H3622 H 0.3701 0.34545 0.46102 0.0
C3623 C 0.41761 0.35858 0.3962 0.0
C3624 C 0.42553 0.37204 0.41184 0.0
C3625 C 0.40076 0.34951 0.39762 0.0
C3626 C 0.36425 0.34139 0.44091 0.0
H3627 H 0.28971 0.31404 0.37554 0.0
H3628 H 0.31912 0.32906 0.37503 0.0
H3629 H 0.34069 0.33082 0.4614 0.0
H3630 H 0.42231 0.38662 0.4413 0.0
H3631 H 0.39278 0.37084 0.44383 0.0
H3632 H 0.37195 0.34113 0.36923 0.0
C3633 C 0.31271 0.32042 0.39312 0.0
C3634 C 0.34737 0.33282 0.44119 0.0
C3635 C 0.29582 0.31193 0.39356 0.0
C3636 C 0.4164 0.37617 0.42931 0.0
C3637 C 0.39952 0.3671 0.43075 0.0
C3638 C 0.3653 0.3388 0.38959 0.0
C3639 C 0.3212 0.31801 0.41596 0.0
C3640 C 0.33921 0.32714 0.41566 0.0
C3641 C 0.39146 0.35375 0.41466 0.0
C3642 C 0.37345 0.34449 0.4151 0.0
H3643 H 0.28906 0.28999 0.45807 0.0
H3644 H 0.31843 0.30449 0.45696 0.0
H3645 H 0.34259 0.32593 0.36985 0.0
H3646 H 0.42449 0.35525 0.38254 0.0
H3647 H 0.39501 0.33918 0.38531 0.0
C3648 C 0.65678 0.0368 0.43991 0.0
C3649 C 0.65542 0.04379 0.41318 0.0
C3650 C 0.66563 0.02876 0.44179 0.0
C3651 C 0.69739 0.02466 0.40347 0.0
H3652 H 0.67897 0.98388 0.44837 0.0
C3653 C 0.73254 0.99041 0.42482 0.0
C3654 C 0.7239 0.9739 0.42307 0.0
C3655 C 0.72455 0.99927 0.4236 0.0
C3656 C 0.68425 0.99521 0.43561 0.0
H3657 H 0.66279 0.04826 0.36767 0.0
H3658 H 0.67811 0.03421 0.37092 0.0
H3659 H 0.66457 0.99889 0.44669 0.0
H3660 H 0.7003 0.95369 0.41824 0.0
H3661 H 0.68623 0.96912 0.4161 0.0
H3662 H 0.71697 0.02088 0.39208 0.0
C3663 C 0.67236 0.03493 0.39046 0.0
C3664 C 0.67608 1.00391 0.43493 0.0
C3665 C 0.66343 0.04285 0.38854 0.0
C3666 C 0.70717 0.96641 0.41973 0.0
C3667 C 0.69914 0.97524 0.4187 0.0
C3668 C 0.70562 0.01601 0.40432 0.0
C3669 C 0.67347 0.02766 0.41704 0.0
C3670 C 0.68249 0.0187 0.4187 0.0
C3671 C 0.70771 0.99178 0.42079 0.0
C3672 C 0.6991 1.00113 0.42025 0.0
H3673 H 0.6507 0.03723 0.45927 0.0
H3674 H 0.66637 0.02342 0.46266 0.0
H3675 H 0.70275 0.03607 0.39096 0.0
H3676 H 0.74546 0.99639 0.42753 0.0
H3677 H 0.7315 0.01195 0.42552 0.0
C3678 C 0.00949 0.73117 0.41563 0.0
C3679 C 0.02631 0.73973 0.41883 0.0
C3680 C 1.00132 0.71458 0.41572 0.0
C3681 C 1.00681 0.6807 0.40214 0.0
H3682 H 0.96841 0.65595 0.45193 0.0
C3683 C 0.97618 0.61215 0.41751 0.0
C3684 C 0.95924 0.60328 0.42102 0.0
C3685 C 0.98436 0.62872 0.41771 0.0
C3686 C 0.97895 0.66262 0.43751 0.0
H3687 H 0.04758 0.73719 0.42467 0.0
H3688 H 0.03338 0.7084 0.42373 0.0
H3689 H 0.9824 0.68488 0.45022 0.0
H3690 H 0.93777 0.60522 0.42815 0.0
H3691 H 0.95188 0.63399 0.427 0.0
H3692 H 1.00321 0.65862 0.38869 0.0
C3693 C 0.02657 0.71461 0.4212 0.0
C3694 C 0.98701 0.67924 0.43665 0.0
C3695 C 0.03471 0.73117 0.42156 0.0
C3696 C 0.95077 0.61154 0.42491 0.0
C3697 C 0.95894 0.62813 0.42472 0.0
C3698 C 0.99862 0.6641 0.40264 0.0
C3699 C 0.00976 0.70611 0.41854 0.0
C3700 C 1.00106 0.68846 0.41905 0.0
C3701 C 0.97587 0.637 0.42104 0.0
C3702 C 0.98459 0.65478 0.42043 0.0
H3703 H 1.00257 0.73725 0.41287 0.0
H3704 H 0.98839 0.70836 0.41325 0.0
H3705 H 0.01751 0.68751 0.38812 0.0
H3706 H 0.98319 0.60635 0.41404 0.0
H3707 H 0.9974 0.63501 0.41532 0.0
C3708 C 0.67542 0.61034 0.92203 0.0
C3709 C 0.66138 0.60374 0.90587 0.0
C3710 C 0.68421 0.62674 0.92468 0.0
C3711 C 0.69419 0.66497 0.88824 0.0
H3712 H 0.70204 0.68106 0.96409 0.0
C3713 C 0.72084 0.73199 0.90179 0.0
C3714 C 0.73019 0.7384 0.92574 0.0
C3715 C 0.71297 0.7156 0.89918 0.0
C3716 C 0.7003 0.67686 0.94268 0.0
H3717 H 0.64555 0.60957 0.88041 0.0
H3718 H 0.66136 0.63811 0.88392 0.0
H3719 H 0.68779 0.65247 0.95996 0.0
H3720 H 0.73915 0.73286 0.96521 0.0
H3721 H 0.72621 0.70441 0.96006 0.0
H3722 H 0.70712 0.68916 0.87071 0.0
C3723 C 0.66546 0.63049 0.89455 0.0
C3724 C 0.69201 0.66044 0.9404 0.0
C3725 C 0.65647 0.61409 0.8924 0.0
C3726 C 0.73187 0.72817 0.94667 0.0
C3727 C 0.72431 0.71182 0.94377 0.0
C3728 C 0.70279 0.6814 0.89046 0.0
C3729 C 0.67937 0.63696 0.91076 0.0
C3730 C 0.68874 0.65435 0.91318 0.0
C3731 C 0.71454 0.70522 0.92017 0.0
C3732 C 0.70585 0.68763 0.91774 0.0
H3733 H 0.67984 0.60293 0.93232 0.0
H3734 H 0.69498 0.63148 0.93718 0.0
H3735 H 0.69193 0.66055 0.86697 0.0
H3736 H 0.71923 0.73963 0.88551 0.0
H3737 H 0.70535 0.71108 0.88099 0.0
C3738 C 0.27977 0.99563 0.90081 0.0
C3739 C 0.27159 0.99777 0.92369 0.0
C3740 C 0.29665 1.00433 0.89793 0.0
C3741 C 0.33298 0.02868 0.94037 0.0
H3742 H 0.3551 0.03889 0.86519 0.0
C3743 C 0.40248 0.06959 0.92012 0.0
C3744 C 0.41015 0.06328 0.90383 0.0
C3745 C 0.3856 0.06201 0.92297 0.0
C3746 C 0.34906 0.03608 0.88634 0.0
H3747 H 0.27451 0.01115 0.96075 0.0
H3748 H 0.30381 0.0269 0.95503 0.0
H3749 H 0.32572 0.02568 0.86842 0.0
H3750 H 0.40572 0.04351 0.87882 0.0
H3751 H 0.37644 0.03081 0.88286 0.0
H3752 H 0.35652 0.03959 0.95801 0.0
C3753 C 0.29739 0.01809 0.93988 0.0
C3754 C 0.33218 0.02839 0.88827 0.0
C3755 C 0.28055 0.00917 0.94305 0.0
C3756 C 0.40039 0.04906 0.89085 0.0
C3757 C 0.38356 0.04168 0.89327 0.0
C3758 C 0.34987 0.03664 0.93836 0.0
C3759 C 0.30575 0.01561 0.91759 0.0
C3760 C 0.32384 0.02442 0.91535 0.0
C3761 C 0.37598 0.0481 0.90923 0.0
C3762 C 0.35808 0.04026 0.91135 0.0
H3763 H 0.27314 0.98679 0.88578 0.0
H3764 H 0.30253 1.00181 0.88076 0.0
H3765 H 0.32713 0.02559 0.9617 0.0
H3766 H 0.40947 0.0806 0.93014 0.0
H3767 H 0.38005 0.06725 0.93533 0.0
C3768 C 0.01884 0.29525 0.93569 0.0
C3769 C 0.01413 0.28066 0.92391 0.0
C3770 C 0.00942 0.30261 0.93272 0.0
C3771 C 0.98127 0.30785 0.88781 0.0
H3772 H 0.96675 0.31748 0.95781 0.0
C3773 C 0.94082 0.33695 0.88276 0.0
C3774 C 0.94289 0.34763 0.90338 0.0
C3775 C 0.94839 0.32771 0.88549 0.0
C3776 C 0.97089 0.31516 0.93795 0.0
H3777 H 0.9958 0.26275 0.89886 0.0
H3778 H 0.97979 0.27613 0.89256 0.0
H3779 H 0.98257 0.30396 0.96118 0.0
H3780 H 0.95453 0.35716 0.94289 0.0
H3781 H 0.96835 0.34168 0.94711 0.0
H3782 H 0.97044 0.31972 0.86437 0.0
C3783 C 0.99072 0.2816 0.90454 0.0
C3784 C 0.97985 0.30727 0.93997 0.0
C3785 C 0.99998 0.27402 0.90802 0.0
C3786 C 0.95258 0.34885 0.92689 0.0
C3787 C 0.96044 0.33987 0.92932 0.0
C3788 C 0.9726 0.31606 0.88572 0.0
C3789 C 0.99524 0.29582 0.91729 0.0
C3790 C 0.98517 0.30359 0.91494 0.0
C3791 C 0.95852 0.32918 0.9086 0.0
C3792 C 0.96732 0.31992 0.91078 0.0
H3793 H 0.02987 0.30109 0.94727 0.0
H3794 H 0.0133 0.31371 0.94235 0.0
H3795 H 0.98537 0.30526 0.86819 0.0
H3796 H 0.9333 0.33572 0.86452 0.0
H3797 H 0.94624 0.3194 0.86942 0.0
C3798 C 0.73277 0.74085 0.58386 0.0
C3799 C 0.74066 0.7324 0.57719 0.0
C3800 C 0.71588 0.73314 0.58689 0.0
C3801 C 0.67913 0.69665 0.56738 0.0
H3802 H 0.65775 0.70758 0.62524 0.0
C3803 C 0.60965 0.66913 0.57363 0.0
C3804 C 0.60204 0.66458 0.60138 0.0
C3805 C 0.62649 0.67829 0.57019 0.0
C3806 C 0.6635 0.7043 0.60906 0.0
H3807 H 0.73699 0.70905 0.56977 0.0
H3808 H 0.7077 0.69562 0.57542 0.0
H3809 H 0.68714 0.72132 0.62124 0.0
H3810 H 0.6063 0.66672 0.64723 0.0
H3811 H 0.63553 0.68223 0.6413 0.0
H3812 H 0.65555 0.67928 0.5558 0.0
C3813 C 0.71446 0.70829 0.57751 0.0
C3814 C 0.6804 0.71233 0.60653 0.0
C3815 C 0.73129 0.71599 0.57436 0.0
C3816 C 0.61171 0.66975 0.62553 0.0
C3817 C 0.62852 0.67887 0.6221 0.0
C3818 C 0.66226 0.6886 0.56995 0.0
C3819 C 0.70648 0.71677 0.58346 0.0
C3820 C 0.68846 0.70854 0.58579 0.0
C3821 C 0.63618 0.68315 0.59441 0.0
C3822 C 0.65419 0.69223 0.59094 0.0
H3823 H 0.73961 0.75352 0.5859 0.0
H3824 H 0.71019 0.74011 0.59119 0.0
H3825 H 0.68486 0.69356 0.55082 0.0
H3826 H 0.60264 0.6653 0.55453 0.0
H3827 H 0.63191 0.68154 0.5485 0.0
C3828 C 0.27486 1.00063 0.58683 0.0
C3829 C 0.28203 0.01497 0.56894 0.0
C3830 C 0.28241 0.99136 0.59026 0.0
C3831 C 0.3095 0.98149 0.55334 0.0
H3832 H 0.31949 0.96992 0.62915 0.0
C3833 C 0.35028 0.95299 0.56618 0.0
C3834 C 0.34808 0.94277 0.59086 0.0
C3835 C 0.34158 0.96116 0.5636 0.0
C3836 C 0.31653 0.9727 0.60778 0.0
H3837 H 0.30329 0.03094 0.5416 0.0
H3838 H 0.31588 0.01438 0.54653 0.0
H3839 H 0.30517 0.98495 0.62488 0.0
H3840 H 0.33471 0.9326 0.63172 0.0
H3841 H 0.31887 0.94609 0.62669 0.0
H3842 H 0.32023 0.96889 0.53602 0.0
C3843 C 0.30439 0.01037 0.55782 0.0
C3844 C 0.30839 0.98143 0.60542 0.0
C3845 C 0.29705 0.01979 0.55487 0.0
C3846 C 0.33672 0.94053 0.61257 0.0
C3847 C 0.32775 0.94842 0.60973 0.0
C3848 C 0.31731 0.97247 0.55568 0.0
C3849 C 0.29714 0.99605 0.57546 0.0
C3850 C 0.30498 0.98608 0.57816 0.0
C3851 C 0.33019 0.95904 0.58537 0.0
C3852 C 0.32115 0.96809 0.58293 0.0
H3853 H 0.26324 0.99632 0.59776 0.0
H3854 H 0.27655 0.98032 0.60393 0.0
H3855 H 0.30685 0.98479 0.53205 0.0
H3856 H 0.35912 0.95505 0.54929 0.0
H3857 H 0.34415 0.96943 0.54478 0.0
C3858 C 0.07195 0.40112 0.58023 0.0
C3859 C 0.06485 0.40775 0.59714 0.0
C3860 C 0.06433 0.38469 0.578 0.0
C3861 C 0.03662 0.34642 0.6157 0.0
H3862 H 0.02765 0.33028 0.53991 0.0
C3863 C 0.99635 0.27925 0.60208 0.0
C3864 C 0.99915 0.27301 0.57775 0.0
C3865 C 1.00489 0.29563 0.60493 0.0
C3866 C 0.03032 0.33449 0.56129 0.0
H3867 H 0.04383 0.4019 0.62461 0.0
H3868 H 0.03108 0.3733 0.62172 0.0
H3869 H 0.04189 0.35885 0.54396 0.0
H3870 H 0.01342 0.27881 0.5379 0.0
H3871 H 0.02894 0.30721 0.54344 0.0
H3872 H 0.02563 0.32224 0.63322 0.0
C3873 C 0.04254 0.38094 0.61017 0.0
C3874 C 0.0384 0.35092 0.56354 0.0
C3875 C 0.04996 0.39737 0.61194 0.0
C3876 C 0.01095 0.28337 0.55675 0.0
C3877 C 0.01973 0.29969 0.55986 0.0
C3878 C 0.02883 0.32999 0.61349 0.0
C3879 C 0.04961 0.37445 0.59308 0.0
C3880 C 0.04151 0.35704 0.59075 0.0
C3881 C 0.01666 0.30615 0.58376 0.0
C3882 C 0.02544 0.32374 0.58623 0.0
H3883 H 0.08352 0.40855 0.56895 0.0
H3884 H 0.07009 0.37995 0.56484 0.0
H3885 H 0.03901 0.35086 0.63695 0.0
H3886 H 0.98718 0.27151 0.61844 0.0
H3887 H 1.00189 0.30004 0.6234 0.0
C3888 C 0.96171 0.63783 0.7769 0.0
C3889 C 0.95279 0.63741 0.75248 0.0
C3890 C 0.97858 0.64621 0.77526 0.0
C3891 C 0.01325 0.67904 0.73302 0.0
H3892 H 0.03761 0.6617 0.77292 0.0
C3893 C 0.08225 0.71661 0.74738 0.0
C3894 C 0.09137 0.70913 0.74281 0.0
C3895 C 0.06534 0.7078 0.74892 0.0
C3896 C 0.03101 0.6667 0.76154 0.0
H3897 H 0.9547 0.64535 0.70704 0.0
H3898 H 0.98425 0.65995 0.70409 0.0
H3899 H 0.00823 0.64608 0.77361 0.0
H3900 H 0.09013 0.68678 0.7357 0.0
H3901 H 0.06065 0.67131 0.73873 0.0
H3902 H 0.03607 0.69961 0.72074 0.0
C3903 C 0.97813 0.65386 0.72461 0.0
C3904 C 0.01414 0.65779 0.76214 0.0
C3905 C 0.9612 0.64536 0.7262 0.0
C3906 C 0.08333 0.69272 0.73989 0.0
C3907 C 0.06647 0.6839 0.74159 0.0
C3908 C 0.03013 0.688 0.73257 0.0
C3909 C 0.98703 0.65447 0.74918 0.0
C3910 C 1.00503 0.66383 0.7479 0.0
C3911 C 0.05723 0.69133 0.74592 0.0
C3912 C 0.03924 0.68194 0.74681 0.0
H3913 H 0.95563 0.63169 0.79741 0.0
H3914 H 0.98501 0.64651 0.79467 0.0
H3915 H 1.00662 0.68413 0.72207 0.0
H3916 H 0.08823 0.7293 0.74931 0.0
H3917 H 0.05862 0.71388 0.7525 0.0
C3918 C 0.33118 0.37479 0.72812 0.0
C3919 C 0.32112 0.37334 0.75172 0.0
C3920 C 0.33894 0.36572 0.72831 0.0
C3921 C 0.35233 0.34308 0.77754 0.0
H3922 H 0.3549 0.32449 0.70782 0.0
C3923 C 0.372 0.29499 0.74043 0.0
C3924 C 0.38644 0.30034 0.75498 0.0
C3925 C 0.36395 0.30384 0.73928 0.0
C3926 C 0.3542 0.32951 0.72753 0.0
H3927 H 0.31156 0.36128 0.79423 0.0
H3928 H 0.325 0.34539 0.79448 0.0
H3929 H 0.34081 0.3398 0.70766 0.0
H3930 H 0.40402 0.31905 0.77929 0.0
H3931 H 0.39011 0.33458 0.77723 0.0
H3932 H 0.36557 0.33268 0.79751 0.0
C3933 C 0.32695 0.35362 0.77584 0.0
C3934 C 0.34627 0.33844 0.72735 0.0
C3935 C 0.31911 0.36263 0.77559 0.0
C3936 C 0.39285 0.31473 0.768 0.0
C3937 C 0.38482 0.32352 0.76698 0.0
C3938 C 0.36033 0.33423 0.77766 0.0
C3939 C 0.33693 0.355 0.75216 0.0
C3940 C 0.34525 0.34536 0.75236 0.0
C3941 C 0.37018 0.31815 0.75283 0.0
C3942 C 0.36142 0.32737 0.75265 0.0
H3943 H 0.33286 0.38276 0.70921 0.0
H3944 H 0.34666 0.36723 0.70983 0.0
H3945 H 0.35191 0.34833 0.79711 0.0
H3946 H 0.36685 0.28388 0.73036 0.0
H3947 H 0.35266 0.29929 0.72838 0.0
C3948 C 0.64256 0.94742 0.74895 0.0
C3949 C 0.62561 0.93865 0.75217 0.0
C3950 C 0.65084 0.96399 0.74924 0.0
C3951 C 0.64574 0.99801 0.76916 0.0
H3952 H 0.68483 0.02272 0.72099 0.0
C3953 C 0.6781 0.06687 0.75 0.0
C3954 C 0.69491 0.07496 0.75344 0.0
C3955 C 0.6695 0.0503 0.74953 0.0
C3956 C 0.67397 0.01597 0.73467 0.0
H3957 H 0.60419 0.94075 0.75865 0.0
H3958 H 0.61849 0.96955 0.75771 0.0
H3959 H 0.67004 0.99389 0.72061 0.0
H3960 H 0.71568 0.07158 0.75929 0.0
H3961 H 0.70075 0.04286 0.75742 0.0
H3962 H 0.64958 0.02029 0.78255 0.0
C3963 C 0.62548 0.9636 0.75561 0.0
C3964 C 0.66551 0.9994 0.73462 0.0
C3965 C 0.61721 0.94701 0.7557 0.0
C3966 C 0.70285 0.06595 0.75597 0.0
C3967 C 0.69427 0.04942 0.75507 0.0
C3968 C 0.6541 0.01462 0.76887 0.0
C3969 C 0.64243 0.97237 0.75234 0.0
C3970 C 0.65131 0.99013 0.75203 0.0
C3971 C 0.67749 0.04139 0.75205 0.0
C3972 C 0.66837 0.02378 0.75178 0.0
H3973 H 0.64953 0.94156 0.74571 0.0
H3974 H 0.66388 0.97018 0.74716 0.0
H3975 H 0.63506 0.99137 0.78326 0.0
H3976 H 0.67153 0.07332 0.74742 0.0
H3977 H 0.65659 0.04446 0.74682 0.0
C3978 C 0.33924 0.94437 0.26208 0.0
C3979 C 0.32589 0.9375 0.24428 0.0
C3980 C 0.34765 0.96081 0.26447 0.0
C3981 C 0.3577 0.99881 0.22581 0.0
H3982 H 0.36427 0.01529 0.30125 0.0
C3983 C 0.3831 0.06587 0.23769 0.0
C3984 C 0.39231 0.07255 0.26166 0.0
C3985 C 0.37539 0.04943 0.23551 0.0
C3986 C 0.36287 0.01099 0.27997 0.0
H3987 H 0.31086 0.9429 0.21561 0.0
H3988 H 0.326 0.9715 0.21885 0.0
H3989 H 0.35057 0.98667 0.29766 0.0
H3990 H 0.40111 0.06738 0.3017 0.0
H3991 H 0.38837 0.03887 0.2974 0.0
H3992 H 0.37039 0.02295 0.20794 0.0
C3993 C 0.32988 0.96407 0.23091 0.0
C3994 C 0.35491 0.99453 0.27799 0.0
C3995 C 0.32127 0.94763 0.22895 0.0
C3996 C 0.39393 0.06251 0.28313 0.0
C3997 C 0.38649 0.04612 0.28071 0.0
C3998 C 0.36594 0.01527 0.22777 0.0
C3999 C 0.34313 0.97082 0.24872 0.0
C4000 C 0.35211 0.98828 0.25089 0.0
C4001 C 0.37695 0.03927 0.257 0.0
C4002 C 0.36855 0.02165 0.25489 0.0
H4003 H 0.3434 0.93712 0.27388 0.0
H4004 H 0.3579 0.96574 0.27822 0.0
H4005 H 0.35584 0.99429 0.20464 0.0
H4006 H 0.38153 0.07333 0.22096 0.0
H4007 H 0.36794 0.04472 0.2172 0.0
C4008 C 0.94741 0.3204 0.26322 0.0
C4009 C 0.93799 0.3279 0.2629 0.0
C4010 C 0.96422 0.32934 0.26005 0.0
C4011 C 0.99865 0.36872 0.27 0.0
H4012 H 0.02169 0.35537 0.22036 0.0
C4013 C 0.06828 0.40515 0.24848 0.0
C4014 C 0.07644 0.39657 0.24526 0.0
C4015 C 0.05137 0.3973 0.25075 0.0
C4016 C 0.0155 0.35917 0.23466 0.0
H4017 H 0.93886 0.35071 0.25896 0.0
H4018 H 0.96836 0.36641 0.2535 0.0
H4019 H 0.99232 0.34083 0.22333 0.0
H4020 H 0.07332 0.37297 0.24339 0.0
H4021 H 0.044 0.35927 0.24806 0.0
H4022 H 0.02184 0.38688 0.28181 0.0
C4023 C 0.96267 0.35357 0.25624 0.0
C4024 C 0.99863 0.35085 0.23624 0.0
C4025 C 0.94579 0.34459 0.25909 0.0
C4026 C 0.06737 0.37994 0.24536 0.0
C4027 C 0.05053 0.3721 0.24787 0.0
C4028 C 0.01557 0.377 0.26861 0.0
C4029 C 0.97207 0.34603 0.25672 0.0
C4030 C 0.99 0.35543 0.25408 0.0
C4031 C 0.04226 0.38067 0.25008 0.0
C4032 C 0.02423 0.37224 0.25111 0.0
H4033 H 0.94175 0.30756 0.26589 0.0
H4034 H 0.9711 0.32318 0.26076 0.0
H4035 H 0.99235 0.37246 0.28417 0.0
H4036 H 0.07495 0.41799 0.24824 0.0
H4037 H 0.04546 0.40433 0.25217 0.0
C4038 C 0.67009 0.60605 0.24515 0.0
C4039 C 0.68402 0.6121 0.26163 0.0
C4040 C 0.66095 0.61379 0.24245 0.0
C4041 C 0.65046 0.63991 0.27861 0.0
H4042 H 0.64086 0.65142 0.20241 0.0
C4043 C 0.62246 0.68104 0.26217 0.0
C4044 C 0.61282 0.67936 0.23835 0.0
C4045 C 0.63043 0.67217 0.26568 0.0
C4046 C 0.64308 0.64805 0.22395 0.0
H4047 H 0.69925 0.63145 0.28766 0.0
H4048 H 0.6829 0.64436 0.28394 0.0
H4049 H 0.6557 0.63696 0.20715 0.0
H4050 H 0.60336 0.66664 0.20024 0.0
H4051 H 0.61645 0.65056 0.20704 0.0
H4052 H 0.63748 0.65047 0.29567 0.0
C4053 C 0.67912 0.63362 0.27315 0.0
C4054 C 0.65171 0.63982 0.22658 0.0
C4055 C 0.68844 0.62609 0.27539 0.0
C4056 C 0.61084 0.66825 0.21868 0.0
C4057 C 0.61852 0.65916 0.22248 0.0
C4058 C 0.64154 0.64786 0.27605 0.0
C4059 C 0.66531 0.62758 0.2566 0.0
C4060 C 0.65562 0.63579 0.25391 0.0
C4061 C 0.62872 0.66118 0.24573 0.0
C4062 C 0.6378 0.65218 0.24865 0.0
H4063 H 0.66604 0.5952 0.23462 0.0
H4064 H 0.65029 0.60881 0.2297 0.0
H4065 H 0.65318 0.63681 0.29998 0.0
H4066 H 0.62432 0.68965 0.27748 0.0
H4067 H 0.63833 0.67435 0.28362 0.0
loop_
_geom_bond_atom_site_label_1
_geom_bond_atom_site_label_2
_geom_bond_distance
_geom_bond_site_symmetry_2
_ccdc_geom_bond_type
C0 C1 1.443 . S
C0 N4 1.376 . S
C0 C38 1.389 . S
C1 C0 1.443 . S
C1 C2 1.340 . S
C1 H41 0.951 . S
C2 C1 1.340 . S
C2 C3 1.439 . S
C2 H42 0.950 . S
C3 C2 1.439 . S
C3 N4 1.374 . S
C3 C37 1.395 . S
N4 C0 1.376 . S
N4 C3 1.374 . S
N4 Co5 2.008 . S
Co5 N4 2.008 . S
Co5 N6 1.995 . S
Co5 N11 2.008 . S
Co5 N16 1.995 . S
Co5 N21 2.282 . S
Co5 N27 2.282 . S
N6 Co5 1.995 . S
N6 C7 1.376 . S
N6 C10 1.383 . S
C7 N6 1.376 . S
C7 C8 1.446 . S
C7 C37 1.391 . S
C8 C7 1.446 . S
C8 C9 1.339 . S
C8 H43 0.949 . S
C9 C8 1.339 . S
C9 C10 1.439 . S
C9 H44 0.950 . S
C10 N6 1.383 . S
C10 C9 1.439 . S
C10 C39 1.392 . S
N11 Co5 2.008 . S
N11 C12 1.376 . S
N11 C15 1.374 . S
C12 N11 1.376 . S
C12 C13 1.443 . S
C12 C39 1.389 . S
C13 C12 1.443 . S
C13 C14 1.340 . S
C13 H45 0.951 . S
C14 C13 1.340 . S
C14 C15 1.439 . S
C14 H46 0.950 . S
C15 N11 1.374 . S
C15 C14 1.439 . S
C15 C40 1.395 . S
N16 Co5 1.995 . S
N16 C17 1.376 . S
N16 C20 1.383 . S
C17 N16 1.376 . S
C17 C18 1.446 . S
C17 C40 1.391 . S
C18 C17 1.446 . S
C18 C19 1.339 . S
C18 H47 0.949 . S
C19 C18 1.339 . S
C19 C20 1.439 . S
C19 H48 0.950 . S
C20 N16 1.383 . S
C20 C19 1.439 . S
C20 C38 1.392 . S
N21 Co5 2.282 . S
N21 C24 1.332 . S
N21 C26 1.332 . S
C22 C23 1.386 . S
C22 C25 1.388 . S
C23 C22 1.386 . S
C23 C24 1.382 . S
C23 H49 0.950 . S
C24 N21 1.332 . S
C24 C23 1.382 . S
C24 H35 0.952 . S
C25 C22 1.388 . S
C25 C26 1.382 . S
C25 H50 0.950 . S
C26 N21 1.332 . S
C26 C25 1.382 . S
C26 H36 0.948 . S
N27 Co5 2.282 . S
N27 C31 1.332 . S
N27 C32 1.332 . S
C28 C29 1.388 . S
C28 C32 1.382 . S
C28 H51 0.950 . S
C29 C28 1.388 . S
C29 C30 1.386 . S
C30 C29 1.386 . S
C30 C31 1.382 . S
C30 H52 0.950 . S
C31 N27 1.332 . S
C31 C30 1.382 . S
C31 H33 0.952 . S
C32 N27 1.332 . S
C32 C28 1.382 . S
C32 H34 0.948 . S
H33 C31 0.952 . S
H34 C32 0.948 . S
H35 C24 0.952 . S
H36 C26 0.948 . S
C37 C3 1.395 . S
C37 C7 1.391 . S
C38 C0 1.389 . S
C38 C20 1.392 . S
C39 C10 1.392 . S
C39 C12 1.389 . S
C40 C15 1.395 . S
C40 C17 1.391 . S
H41 C1 0.951 . S
H42 C2 0.950 . S
H43 C8 0.949 . S
H44 C9 0.950 . S
H45 C13 0.951 . S
H46 C14 0.950 . S
H47 C18 0.949 . S
H48 C19 0.950 . S
H49 C23 0.950 . S
H50 C25 0.950 . S
H51 C28 0.950 . S
H52 C30 0.950 . S
C53 C54 1.443 . S
C53 N57 1.376 . S
C53 C91 1.389 . S
C54 C53 1.443 . S
C54 C55 1.340 . S
C54 H94 0.951 . S
C55 C54 1.340 . S
C55 C56 1.439 . S
C55 H95 0.950 . S
C56 C55 1.439 . S
C56 N57 1.374 . S
C56 C90 1.395 . S
N57 C53 1.376 . S
N57 C56 1.374 . S
N57 Co58 2.008 . S
Co58 N57 2.008 . S
Co58 N59 1.995 . S
Co58 N64 2.008 . S
Co58 N69 1.995 . S
Co58 N74 2.282 . S
Co58 N80 2.282 . S
N59 Co58 1.995 . S
N59 C60 1.376 . S
N59 C63 1.383 . S
C60 N59 1.376 . S
C60 C61 1.446 . S
C60 C90 1.391 . S
C61 C60 1.446 . S
C61 C62 1.339 . S
C61 H96 0.949 . S
C62 C61 1.339 . S
C62 C63 1.439 . S
C62 H97 0.950 . S
C63 N59 1.383 . S
C63 C62 1.439 . S
C63 C92 1.392 . S
N64 Co58 2.008 . S
N64 C65 1.376 . S
N64 C68 1.374 . S
C65 N64 1.376 . S
C65 C66 1.443 . S
C65 C92 1.389 . S
C66 C65 1.443 . S
C66 C67 1.340 . S
C66 H98 0.951 . S
C67 C66 1.340 . S
C67 C68 1.439 . S
C67 H99 0.950 1_554 S
C68 N64 1.374 . S
C68 C67 1.439 . S
C68 C93 1.395 . S
N69 Co58 1.995 . S
N69 C70 1.376 . S
N69 C73 1.383 . S
C70 N69 1.376 . S
C70 C71 1.446 1_554 S
C70 C93 1.391 . S
C71 C70 1.446 1_556 S
C71 C72 1.339 1_556 S
C71 H100 0.949 . S
C72 C71 1.339 1_554 S
C72 C73 1.439 . S
C72 H101 0.950 . S
C73 N69 1.383 . S
C73 C72 1.439 . S
C73 C91 1.392 . S
N74 Co58 2.282 . S
N74 C77 1.332 . S
N74 C79 1.332 . S
C75 C76 1.386 . S
C75 C78 1.388 . S
C76 C75 1.386 . S
C76 C77 1.382 . S
C76 H102 0.950 1_554 S
C77 N74 1.332 . S
C77 C76 1.382 . S
C77 H88 0.952 . S
C78 C75 1.388 . S
C78 C79 1.382 . S
C78 H103 0.950 . S
C79 N74 1.332 . S
C79 C78 1.382 . S
C79 H89 0.948 . S
N80 Co58 2.282 . S
N80 C84 1.332 . S
N80 C85 1.332 . S
C81 C82 1.388 . S
C81 C85 1.382 . S
C81 H104 0.950 . S
C82 C81 1.388 . S
C82 C83 1.386 . S
C83 C82 1.386 . S
C83 C84 1.382 . S
C83 H105 0.950 . S
C84 N80 1.332 . S
C84 C83 1.382 . S
C84 H86 0.952 . S
C85 N80 1.332 . S
C85 C81 1.382 . S
C85 H87 0.948 . S
H86 C84 0.952 . S
H87 C85 0.948 . S
H88 C77 0.952 . S
H89 C79 0.948 . S
C90 C56 1.395 . S
C90 C60 1.391 . S
C91 C53 1.389 . S
C91 C73 1.392 . S
C92 C63 1.392 . S
C92 C65 1.389 . S
C93 C68 1.395 . S
C93 C70 1.391 . S
H94 C54 0.951 . S
H95 C55 0.950 . S
H96 C61 0.949 . S
H97 C62 0.950 . S
H98 C66 0.951 . S
H99 C67 0.950 1_556 S
H100 C71 0.949 . S
H101 C72 0.950 . S
H102 C76 0.950 1_556 S
H103 C78 0.950 . S
H104 C81 0.950 . S
H105 C83 0.950 . S
C106 C107 1.443 . S
C106 N110 1.376 . S
C106 C144 1.389 . S
C107 C106 1.443 . S
C107 C108 1.340 . S
C107 H147 0.951 . S
C108 C107 1.340 . S
C108 C109 1.439 . S
C108 H148 0.950 . S
C109 C108 1.439 . S
C109 N110 1.374 . S
C109 C143 1.395 . S
N110 C106 1.376 . S
N110 C109 1.374 . S
N110 Co111 2.008 . S
Co111 N110 2.008 . S
Co111 N112 1.995 . S
Co111 N117 2.008 . S
Co111 N122 1.995 . S
Co111 N127 2.282 . S
Co111 N133 2.282 . S
N112 Co111 1.995 . S
N112 C113 1.376 . S
N112 C116 1.383 . S
C113 N112 1.376 . S
C113 C114 1.446 . S
C113 C143 1.391 . S
C114 C113 1.446 . S
C114 C115 1.339 . S
C114 H149 0.949 . S
C115 C114 1.339 . S
C115 C116 1.439 . S
C115 H150 0.950 . S
C116 N112 1.383 . S
C116 C115 1.439 . S
C116 C145 1.392 . S
N117 Co111 2.008 . S
N117 C118 1.376 . S
N117 C121 1.374 . S
C118 N117 1.376 . S
C118 C119 1.443 . S
C118 C145 1.389 . S
C119 C118 1.443 . S
C119 C120 1.340 . S
C119 H151 0.951 . S
C120 C119 1.340 . S
C120 C121 1.439 . S
C120 H152 0.950 . S
C121 N117 1.374 . S
C121 C120 1.439 . S
C121 C146 1.395 . S
N122 Co111 1.995 . S
N122 C123 1.376 . S
N122 C126 1.383 . S
C123 N122 1.376 . S
C123 C124 1.446 . S
C123 C146 1.391 . S
C124 C123 1.446 . S
C124 C125 1.339 . S
C124 H153 0.949 . S
C125 C124 1.339 . S
C125 C126 1.439 . S
C125 H154 0.950 . S
C126 N122 1.383 . S
C126 C125 1.439 . S
C126 C144 1.392 . S
N127 Co111 2.282 . S
N127 C130 1.332 . S
N127 C132 1.332 . S
C128 C129 1.386 . S
C128 C131 1.388 . S
C129 C128 1.386 . S
C129 C130 1.382 . S
C129 H155 0.950 . S
C130 N127 1.332 . S
C130 C129 1.382 . S
C130 H141 0.952 . S
C131 C128 1.388 . S
C131 C132 1.382 . S
C131 H156 0.950 . S
C132 N127 1.332 . S
C132 C131 1.382 . S
C132 H142 0.948 . S
N133 Co111 2.282 . S
N133 C137 1.332 . S
N133 C138 1.332 . S
C134 C135 1.388 . S
C134 C138 1.382 . S
C134 H157 0.950 . S
C135 C134 1.388 . S
C135 C136 1.386 . S
C136 C135 1.386 . S
C136 C137 1.382 . S
C136 H158 0.950 . S
C137 N133 1.332 . S
C137 C136 1.382 . S
C137 H139 0.952 . S
C138 N133 1.332 . S
C138 C134 1.382 . S
C138 H140 0.948 . S
H139 C137 0.952 . S
H140 C138 0.948 . S
H141 C130 0.952 . S
H142 C132 0.948 . S
C143 C109 1.395 . S
C143 C113 1.391 . S
C144 C106 1.389 . S
C144 C126 1.392 . S
C145 C116 1.392 . S
C145 C118 1.389 . S
C146 C121 1.395 . S
C146 C123 1.391 . S
H147 C107 0.951 . S
H148 C108 0.950 . S
H149 C114 0.949 . S
H150 C115 0.950 . S
H151 C119 0.951 . S
H152 C120 0.950 . S
H153 C124 0.949 . S
H154 C125 0.950 . S
H155 C129 0.950 . S
H156 C131 0.950 . S
H157 C134 0.950 . S
H158 C136 0.950 . S
C159 C160 1.443 . S
C159 N163 1.376 . S
C159 C197 1.389 . S
C160 C159 1.443 . S
C160 C161 1.340 . S
C160 H200 0.951 . S
C161 C160 1.340 . S
C161 C162 1.439 . S
C161 H201 0.950 . S
C162 C161 1.439 . S
C162 N163 1.374 . S
C162 C196 1.395 . S
N163 C159 1.376 . S
N163 C162 1.374 . S
N163 Co164 2.008 . S
Co164 N163 2.008 . S
Co164 N165 1.995 . S
Co164 N170 2.008 . S
Co164 N175 1.995 . S
Co164 N180 2.282 . S
Co164 N186 2.282 . S
N165 Co164 1.995 . S
N165 C166 1.376 . S
N165 C169 1.383 . S
C166 N165 1.376 . S
C166 C167 1.446 . S
C166 C196 1.391 . S
C167 C166 1.446 . S
C167 C168 1.339 . S
C167 H202 0.949 . S
C168 C167 1.339 . S
C168 C169 1.439 . S
C168 H203 0.950 . S
C169 N165 1.383 . S
C169 C168 1.439 . S
C169 C198 1.392 . S
N170 Co164 2.008 . S
N170 C171 1.376 . S
N170 C174 1.374 . S
C171 N170 1.376 . S
C171 C172 1.443 . S
C171 C198 1.389 . S
C172 C171 1.443 . S
C172 C173 1.340 . S
C172 H204 0.951 . S
C173 C172 1.340 . S
C173 C174 1.439 . S
C173 H205 0.950 . S
C174 N170 1.374 . S
C174 C173 1.439 . S
C174 C199 1.395 . S
N175 Co164 1.995 . S
N175 C176 1.376 . S
N175 C179 1.383 . S
C176 N175 1.376 . S
C176 C177 1.446 . S
C176 C199 1.391 . S
C177 C176 1.446 . S
C177 C178 1.339 . S
C177 H206 0.949 . S
C178 C177 1.339 . S
C178 C179 1.439 . S
C178 H207 0.950 . S
C179 N175 1.383 . S
C179 C178 1.439 . S
C179 C197 1.392 . S
N180 Co164 2.282 . S
N180 C183 1.332 . S
N180 C185 1.332 . S
C181 C182 1.386 . S
C181 C184 1.388 . S
C182 C181 1.386 . S
C182 C183 1.382 . S
C182 H208 0.950 . S
C183 N180 1.332 . S
C183 C182 1.382 . S
C183 H194 0.952 . S
C184 C181 1.388 . S
C184 C185 1.382 . S
C184 H209 0.950 . S
C185 N180 1.332 . S
C185 C184 1.382 . S
C185 H195 0.948 . S
N186 Co164 2.282 . S
N186 C190 1.332 . S
N186 C191 1.332 . S
C187 C188 1.388 . S
C187 C191 1.382 . S
C187 H210 0.950 . S
C188 C187 1.388 . S
C188 C189 1.386 . S
C189 C188 1.386 . S
C189 C190 1.382 . S
C189 H211 0.950 . S
C190 N186 1.332 . S
C190 C189 1.382 . S
C190 H192 0.952 . S
C191 N186 1.332 . S
C191 C187 1.382 . S
C191 H193 0.948 . S
H192 C190 0.952 . S
H193 C191 0.948 . S
H194 C183 0.952 . S
H195 C185 0.948 . S
C196 C162 1.395 . S
C196 C166 1.391 . S
C197 C159 1.389 . S
C197 C179 1.392 . S
C198 C169 1.392 . S
C198 C171 1.389 . S
C199 C174 1.395 . S
C199 C176 1.391 . S
H200 C160 0.951 . S
H201 C161 0.950 . S
H202 C167 0.949 . S
H203 C168 0.950 . S
H204 C172 0.951 . S
H205 C173 0.950 . S
H206 C177 0.949 . S
H207 C178 0.950 . S
H208 C182 0.950 . S
H209 C184 0.950 . S
H210 C187 0.950 . S
H211 C189 0.950 . S
C212 C213 1.443 . S
C212 N216 1.376 . S
C212 C250 1.389 . S
C213 C212 1.443 . S
C213 C214 1.340 . S
C213 H253 0.951 . S
C214 C213 1.340 . S
C214 C215 1.439 . S
C214 H254 0.950 . S
C215 C214 1.439 . S
C215 N216 1.374 . S
C215 C249 1.395 . S
N216 C212 1.376 . S
N216 C215 1.374 . S
N216 Co217 2.008 . S
Co217 N216 2.008 . S
Co217 N218 1.995 . S
Co217 N223 2.008 . S
Co217 N228 1.995 . S
Co217 N233 2.282 . S
Co217 N239 2.282 . S
N218 Co217 1.995 . S
N218 C219 1.376 . S
N218 C222 1.383 . S
C219 N218 1.376 . S
C219 C220 1.446 . S
C219 C249 1.391 . S
C220 C219 1.446 . S
C220 C221 1.339 . S
C220 H255 0.949 . S
C221 C220 1.339 . S
C221 C222 1.439 . S
C221 H256 0.950 . S
C222 N218 1.383 . S
C222 C221 1.439 . S
C222 C251 1.392 . S
N223 Co217 2.008 . S
N223 C224 1.376 . S
N223 C227 1.374 . S
C224 N223 1.376 . S
C224 C225 1.443 . S
C224 C251 1.389 . S
C225 C224 1.443 . S
C225 C226 1.340 . S
C225 H257 0.951 . S
C226 C225 1.340 . S
C226 C227 1.439 . S
C226 H258 0.950 . S
C227 N223 1.374 . S
C227 C226 1.439 . S
C227 C252 1.395 . S
N228 Co217 1.995 . S
N228 C229 1.376 . S
N228 C232 1.383 . S
C229 N228 1.376 . S
C229 C230 1.446 . S
C229 C252 1.391 . S
C230 C229 1.446 . S
C230 C231 1.339 . S
C230 H259 0.949 . S
C231 C230 1.339 . S
C231 C232 1.439 . S
C231 H260 0.950 . S
C232 N228 1.383 . S
C232 C231 1.439 . S
C232 C250 1.392 . S
N233 Co217 2.282 . S
N233 C236 1.332 . S
N233 C238 1.332 . S
C234 C235 1.386 . S
C234 C237 1.388 . S
C235 C234 1.386 . S
C235 C236 1.382 . S
C235 H261 0.950 . S
C236 N233 1.332 . S
C236 C235 1.382 . S
C236 H247 0.952 . S
C237 C234 1.388 . S
C237 C238 1.382 . S
C237 H262 0.950 . S
C238 N233 1.332 . S
C238 C237 1.382 . S
C238 H248 0.948 . S
N239 Co217 2.282 . S
N239 C243 1.332 . S
N239 C244 1.332 . S
C240 C241 1.388 . S
C240 C244 1.382 . S
C240 H263 0.950 . S
C241 C240 1.388 . S
C241 C242 1.386 . S
C242 C241 1.386 . S
C242 C243 1.382 . S
C242 H264 0.950 . S
C243 N239 1.332 . S
C243 C242 1.382 . S
C243 H245 0.952 . S
C244 N239 1.332 . S
C244 C240 1.382 . S
C244 H246 0.948 . S
H245 C243 0.952 . S
H246 C244 0.948 . S
H247 C236 0.952 . S
H248 C238 0.948 . S
C249 C215 1.395 . S
C249 C219 1.391 . S
C250 C212 1.389 . S
C250 C232 1.392 . S
C251 C222 1.392 . S
C251 C224 1.389 . S
C252 C227 1.395 . S
C252 C229 1.391 . S
H253 C213 0.951 . S
H254 C214 0.950 . S
H255 C220 0.949 . S
H256 C221 0.950 . S
H257 C225 0.951 . S
H258 C226 0.950 . S
H259 C230 0.949 . S
H260 C231 0.950 . S
H261 C235 0.950 . S
H262 C237 0.950 . S
H263 C240 0.950 . S
H264 C242 0.950 . S
C265 C266 1.443 . S
C265 N269 1.376 . S
C265 C303 1.389 . S
C266 C265 1.443 . S
C266 C267 1.340 . S
C266 H306 0.951 . S
C267 C266 1.340 . S
C267 C268 1.439 . S
C267 H307 0.950 . S
C268 C267 1.439 . S
C268 N269 1.374 . S
C268 C302 1.395 . S
N269 C265 1.376 . S
N269 C268 1.374 . S
N269 Co270 2.008 . S
Co270 N269 2.008 . S
Co270 N271 1.995 . S
Co270 N276 2.008 . S
Co270 N281 1.995 . S
Co270 N286 2.282 . S
Co270 N292 2.282 . S
N271 Co270 1.995 . S
N271 C272 1.376 . S
N271 C275 1.383 . S
C272 N271 1.376 . S
C272 C273 1.446 . S
C272 C302 1.391 . S
C273 C272 1.446 . S
C273 C274 1.339 . S
C273 H308 0.949 . S
C274 C273 1.339 . S
C274 C275 1.439 . S
C274 H309 0.950 . S
C275 N271 1.383 . S
C275 C274 1.439 . S
C275 C304 1.392 . S
N276 Co270 2.008 . S
N276 C277 1.376 . S
N276 C280 1.374 . S
C277 N276 1.376 . S
C277 C278 1.443 . S
C277 C304 1.389 . S
C278 C277 1.443 . S
C278 C279 1.340 . S
C278 H310 0.951 . S
C279 C278 1.340 . S
C279 C280 1.439 . S
C279 H311 0.950 . S
C280 N276 1.374 . S
C280 C279 1.439 . S
C280 C305 1.395 . S
N281 Co270 1.995 . S
N281 C282 1.376 . S
N281 C285 1.383 . S
C282 N281 1.376 . S
C282 C283 1.446 . S
C282 C305 1.391 . S
C283 C282 1.446 . S
C283 C284 1.339 . S
C283 H312 0.949 . S
C284 C283 1.339 . S
C284 C285 1.439 . S
C284 H313 0.950 . S
C285 N281 1.383 . S
C285 C284 1.439 . S
C285 C303 1.392 . S
N286 Co270 2.282 . S
N286 C289 1.332 . S
N286 C291 1.332 . S
C287 C288 1.386 . S
C287 C290 1.388 . S
C288 C287 1.386 . S
C288 C289 1.382 . S
C288 H314 0.950 . S
C289 N286 1.332 . S
C289 C288 1.382 . S
C289 H300 0.952 . S
C290 C287 1.388 . S
C290 C291 1.382 . S
C290 H315 0.950 . S
C291 N286 1.332 . S
C291 C290 1.382 . S
C291 H301 0.948 . S
N292 Co270 2.282 . S
N292 C296 1.332 . S
N292 C297 1.332 . S
C293 C294 1.388 . S
C293 C297 1.382 . S
C293 H316 0.950 . S
C294 C293 1.388 . S
C294 C295 1.386 . S
C295 C294 1.386 . S
C295 C296 1.382 . S
C295 H317 0.950 . S
C296 N292 1.332 . S
C296 C295 1.382 . S
C296 H298 0.952 . S
C297 N292 1.332 . S
C297 C293 1.382 . S
C297 H299 0.948 . S
H298 C296 0.952 . S
H299 C297 0.948 . S
H300 C289 0.952 . S
H301 C291 0.948 . S
C302 C268 1.395 . S
C302 C272 1.391 . S
C303 C265 1.389 . S
C303 C285 1.392 . S
C304 C275 1.392 . S
C304 C277 1.389 . S
C305 C280 1.395 . S
C305 C282 1.391 . S
H306 C266 0.951 . S
H307 C267 0.950 . S
H308 C273 0.949 . S
H309 C274 0.950 . S
H310 C278 0.951 . S
H311 C279 0.950 . S
H312 C283 0.949 . S
H313 C284 0.950 . S
H314 C288 0.950 . S
H315 C290 0.950 . S
H316 C293 0.950 . S
H317 C295 0.950 . S
C318 C319 1.443 . S
C318 N322 1.376 . S
C318 C356 1.389 . S
C319 C318 1.443 . S
C319 C320 1.340 . S
C319 H359 0.951 . S
C320 C319 1.340 . S
C320 C321 1.439 . S
C320 H360 0.950 . S
C321 C320 1.439 . S
C321 N322 1.374 . S
C321 C355 1.395 . S
N322 C318 1.376 . S
N322 C321 1.374 . S
N322 Co323 2.008 . S
Co323 N322 2.008 . S
Co323 N324 1.995 . S
Co323 N329 2.008 . S
Co323 N334 1.995 . S
Co323 N339 2.282 . S
Co323 N345 2.282 . S
N324 Co323 1.995 . S
N324 C325 1.376 . S
N324 C328 1.383 . S
C325 N324 1.376 . S
C325 C326 1.446 . S
C325 C355 1.391 . S
C326 C325 1.446 . S
C326 C327 1.339 . S
C326 H361 0.949 . S
C327 C326 1.339 . S
C327 C328 1.439 . S
C327 H362 0.950 . S
C328 N324 1.383 . S
C328 C327 1.439 . S
C328 C357 1.392 . S
N329 Co323 2.008 . S
N329 C330 1.376 . S
N329 C333 1.374 . S
C330 N329 1.376 . S
C330 C331 1.443 . S
C330 C357 1.389 . S
C331 C330 1.443 . S
C331 C332 1.340 . S
C331 H363 0.951 . S
C332 C331 1.340 . S
C332 C333 1.439 . S
C332 H364 0.950 . S
C333 N329 1.374 . S
C333 C332 1.439 . S
C333 C358 1.395 . S
N334 Co323 1.995 . S
N334 C335 1.376 . S
N334 C338 1.383 . S
C335 N334 1.376 . S
C335 C336 1.446 . S
C335 C358 1.391 . S
C336 C335 1.446 . S
C336 C337 1.339 . S
C336 H365 0.949 1_556 S
C337 C336 1.339 . S
C337 C338 1.439 . S
C337 H366 0.950 . S
C338 N334 1.383 . S
C338 C337 1.439 . S
C338 C356 1.392 . S
N339 Co323 2.282 . S
N339 C342 1.332 . S
N339 C344 1.332 . S
C340 C341 1.386 . S
C340 C343 1.388 . S
C341 C340 1.386 . S
C341 C342 1.382 . S
C341 H367 0.950 . S
C342 N339 1.332 . S
C342 C341 1.382 . S
C342 H353 0.952 . S
C343 C340 1.388 . S
C343 C344 1.382 . S
C343 H368 0.950 . S
C344 N339 1.332 . S
C344 C343 1.382 . S
C344 H354 0.948 . S
N345 Co323 2.282 . S
N345 C349 1.332 . S
N345 C350 1.332 . S
C346 C347 1.388 . S
C346 C350 1.382 . S
C346 H369 0.950 . S
C347 C346 1.388 . S
C347 C348 1.386 . S
C348 C347 1.386 . S
C348 C349 1.382 . S
C348 H370 0.950 . S
C349 N345 1.332 . S
C349 C348 1.382 . S
C349 H351 0.952 . S
C350 N345 1.332 . S
C350 C346 1.382 . S
C350 H352 0.948 . S
H351 C349 0.952 . S
H352 C350 0.948 . S
H353 C342 0.952 . S
H354 C344 0.948 . S
C355 C321 1.395 . S
C355 C325 1.391 . S
C356 C318 1.389 . S
C356 C338 1.392 . S
C357 C328 1.392 . S
C357 C330 1.389 . S
C358 C333 1.395 . S
C358 C335 1.391 . S
H359 C319 0.951 . S
H360 C320 0.950 . S
H361 C326 0.949 . S
H362 C327 0.950 . S
H363 C331 0.951 . S
H364 C332 0.950 . S
H365 C336 0.949 1_554 S
H366 C337 0.950 . S
H367 C341 0.950 . S
H368 C343 0.950 . S
H369 C346 0.950 . S
H370 C348 0.950 . S
C371 C372 1.443 . S
C371 N375 1.376 . S
C371 C409 1.389 . S
C372 C371 1.443 . S
C372 C373 1.340 . S
C372 H412 0.951 1_565 S
C373 C372 1.340 . S
C373 C374 1.439 . S
C373 H413 0.950 . S
C374 C373 1.439 . S
C374 N375 1.374 . S
C374 C408 1.395 . S
N375 C371 1.376 . S
N375 C374 1.374 . S
N375 Co376 2.008 . S
Co376 N375 2.008 . S
Co376 N377 1.995 . S
Co376 N382 2.008 . S
Co376 N387 1.995 . S
Co376 N392 2.282 . S
Co376 N398 2.282 . S
N377 Co376 1.995 . S
N377 C378 1.376 . S
N377 C381 1.383 . S
C378 N377 1.376 . S
C378 C379 1.446 . S
C378 C408 1.391 . S
C379 C378 1.446 . S
C379 C380 1.339 . S
C379 H414 0.949 . S
C380 C379 1.339 . S
C380 C381 1.439 . S
C380 H415 0.950 . S
C381 N377 1.383 . S
C381 C380 1.439 . S
C381 C410 1.392 . S
N382 Co376 2.008 . S
N382 C383 1.376 . S
N382 C386 1.374 . S
C383 N382 1.376 . S
C383 C384 1.443 . S
C383 C410 1.389 . S
C384 C383 1.443 . S
C384 C385 1.340 . S
C384 H416 0.951 . S
C385 C384 1.340 . S
C385 C386 1.439 . S
C385 H417 0.950 1_556 S
C386 N382 1.374 . S
C386 C385 1.439 . S
C386 C411 1.395 1_556 S
N387 Co376 1.995 . S
N387 C388 1.376 1_556 S
N387 C391 1.383 . S
C388 N387 1.376 1_554 S
C388 C389 1.446 . S
C388 C411 1.391 . S
C389 C388 1.446 . S
C389 C390 1.339 . S
C389 H418 0.949 . S
C390 C389 1.339 . S
C390 C391 1.439 1_554 S
C390 H419 0.950 . S
C391 N387 1.383 . S
C391 C390 1.439 1_556 S
C391 C409 1.392 . S
N392 Co376 2.282 . S
N392 C395 1.332 . S
N392 C397 1.332 . S
C393 C394 1.386 . S
C393 C396 1.388 . S
C394 C393 1.386 . S
C394 C395 1.382 . S
C394 H420 0.950 1_556 S
C395 N392 1.332 . S
C395 C394 1.382 . S
C395 H406 0.952 . S
C396 C393 1.388 . S
C396 C397 1.382 . S
C396 H421 0.950 . S
C397 N392 1.332 . S
C397 C396 1.382 . S
C397 H407 0.948 . S
N398 Co376 2.282 . S
N398 C402 1.332 . S
N398 C403 1.332 . S
C399 C400 1.388 . S
C399 C403 1.382 . S
C399 H422 0.950 . S
C400 C399 1.388 . S
C400 C401 1.386 . S
C401 C400 1.386 . S
C401 C402 1.382 . S
C401 H423 0.950 . S
C402 N398 1.332 . S
C402 C401 1.382 . S
C402 H404 0.952 . S
C403 N398 1.332 . S
C403 C399 1.382 . S
C403 H405 0.948 . S
H404 C402 0.952 . S
H405 C403 0.948 . S
H406 C395 0.952 . S
H407 C397 0.948 . S
C408 C374 1.395 . S
C408 C378 1.391 . S
C409 C371 1.389 . S
C409 C391 1.392 . S
C410 C381 1.392 . S
C410 C383 1.389 . S
C411 C386 1.395 1_554 S
C411 C388 1.391 . S
H412 C372 0.951 1_545 S
H413 C373 0.950 . S
H414 C379 0.949 . S
H415 C380 0.950 . S
H416 C384 0.951 . S
H417 C385 0.950 1_554 S
H418 C389 0.949 . S
H419 C390 0.950 . S
H420 C394 0.950 1_554 S
H421 C396 0.950 . S
H422 C399 0.950 . S
H423 C401 0.950 . S
C424 C425 1.443 . S
C424 N428 1.376 . S
C424 C462 1.389 . S
C425 C424 1.443 . S
C425 C426 1.340 . S
C425 H465 0.951 1_455 S
C426 C425 1.340 . S
C426 C427 1.439 . S
C426 H466 0.950 . S
C427 C426 1.439 . S
C427 N428 1.374 . S
C427 C461 1.395 . S
N428 C424 1.376 . S
N428 C427 1.374 . S
N428 Co429 2.008 . S
Co429 N428 2.008 . S
Co429 N430 1.995 . S
Co429 N435 2.008 . S
Co429 N440 1.995 . S
Co429 N445 2.282 . S
Co429 N451 2.282 . S
N430 Co429 1.995 . S
N430 C431 1.376 . S
N430 C434 1.383 . S
C431 N430 1.376 . S
C431 C432 1.446 . S
C431 C461 1.391 . S
C432 C431 1.446 . S
C432 C433 1.339 . S
C432 H467 0.949 . S
C433 C432 1.339 . S
C433 C434 1.439 . S
C433 H468 0.950 . S
C434 N430 1.383 . S
C434 C433 1.439 . S
C434 C463 1.392 . S
N435 Co429 2.008 . S
N435 C436 1.376 . S
N435 C439 1.374 . S
C436 N435 1.376 . S
C436 C437 1.443 . S
C436 C463 1.389 . S
C437 C436 1.443 . S
C437 C438 1.340 . S
C437 H469 0.951 . S
C438 C437 1.340 . S
C438 C439 1.439 . S
C438 H470 0.950 . S
C439 N435 1.374 . S
C439 C438 1.439 . S
C439 C464 1.395 . S
N440 Co429 1.995 . S
N440 C441 1.376 . S
N440 C444 1.383 . S
C441 N440 1.376 . S
C441 C442 1.446 1_556 S
C441 C464 1.391 . S
C442 C441 1.446 1_554 S
C442 C443 1.339 1_554 S
C442 H471 0.949 . S
C443 C442 1.339 1_556 S
C443 C444 1.439 . S
C443 H472 0.950 1_556 S
C444 N440 1.383 . S
C444 C443 1.439 . S
C444 C462 1.392 . S
N445 Co429 2.282 . S
N445 C448 1.332 . S
N445 C450 1.332 . S
C446 C447 1.386 . S
C446 C449 1.388 . S
C447 C446 1.386 . S
C447 C448 1.382 . S
C447 H473 0.950 . S
C448 N445 1.332 . S
C448 C447 1.382 . S
C448 H459 0.952 . S
C449 C446 1.388 . S
C449 C450 1.382 . S
C449 H474 0.950 . S
C450 N445 1.332 . S
C450 C449 1.382 . S
C450 H460 0.948 . S
N451 Co429 2.282 . S
N451 C455 1.332 . S
N451 C456 1.332 . S
C452 C453 1.388 . S
C452 C456 1.382 . S
C452 H475 0.950 . S
C453 C452 1.388 . S
C453 C454 1.386 . S
C454 C453 1.386 . S
C454 C455 1.382 . S
C454 H476 0.950 . S
C455 N451 1.332 . S
C455 C454 1.382 . S
C455 H457 0.952 . S
C456 N451 1.332 . S
C456 C452 1.382 . S
C456 H458 0.948 . S
H457 C455 0.952 . S
H458 C456 0.948 . S
H459 C448 0.952 . S
H460 C450 0.948 . S
C461 C427 1.395 . S
C461 C431 1.391 . S
C462 C424 1.389 . S
C462 C444 1.392 . S
C463 C434 1.392 . S
C463 C436 1.389 . S
C464 C439 1.395 . S
C464 C441 1.391 . S
H465 C425 0.951 1_655 S
H466 C426 0.950 . S
H467 C432 0.949 . S
H468 C433 0.950 . S
H469 C437 0.951 . S
H470 C438 0.950 . S
H471 C442 0.949 . S
H472 C443 0.950 1_554 S
H473 C447 0.950 . S
H474 C449 0.950 . S
H475 C452 0.950 . S
H476 C454 0.950 . S
C477 C478 1.443 . S
C477 N481 1.376 . S
C477 C515 1.389 . S
C478 C477 1.443 . S
C478 C479 1.340 . S
C478 H518 0.951 . S
C479 C478 1.340 . S
C479 C480 1.439 . S
C479 H519 0.950 . S
C480 C479 1.439 . S
C480 N481 1.374 . S
C480 C514 1.395 . S
N481 C477 1.376 . S
N481 C480 1.374 . S
N481 Co482 2.008 . S
Co482 N481 2.008 . S
Co482 N483 1.995 . S
Co482 N488 2.008 . S
Co482 N493 1.995 . S
Co482 N498 2.282 . S
Co482 N504 2.282 . S
N483 Co482 1.995 . S
N483 C484 1.376 . S
N483 C487 1.383 . S
C484 N483 1.376 . S
C484 C485 1.446 . S
C484 C514 1.391 . S
C485 C484 1.446 . S
C485 C486 1.339 . S
C485 H520 0.949 . S
C486 C485 1.339 . S
C486 C487 1.439 . S
C486 H521 0.950 . S
C487 N483 1.383 . S
C487 C486 1.439 . S
C487 C516 1.392 . S
N488 Co482 2.008 . S
N488 C489 1.376 . S
N488 C492 1.374 . S
C489 N488 1.376 . S
C489 C490 1.443 . S
C489 C516 1.389 . S
C490 C489 1.443 . S
C490 C491 1.340 . S
C490 H522 0.951 . S
C491 C490 1.340 . S
C491 C492 1.439 . S
C491 H523 0.950 . S
C492 N488 1.374 . S
C492 C491 1.439 . S
C492 C517 1.395 . S
N493 Co482 1.995 . S
N493 C494 1.376 . S
N493 C497 1.383 . S
C494 N493 1.376 . S
C494 C495 1.446 . S
C494 C517 1.391 . S
C495 C494 1.446 . S
C495 C496 1.339 . S
C495 H524 0.949 . S
C496 C495 1.339 . S
C496 C497 1.439 . S
C496 H525 0.950 . S
C497 N493 1.383 . S
C497 C496 1.439 . S
C497 C515 1.392 . S
N498 Co482 2.282 . S
N498 C501 1.332 . S
N498 C503 1.332 . S
C499 C500 1.386 . S
C499 C502 1.388 . S
C500 C499 1.386 . S
C500 C501 1.382 . S
C500 H526 0.950 . S
C501 N498 1.332 . S
C501 C500 1.382 . S
C501 H512 0.952 . S
C502 C499 1.388 . S
C502 C503 1.382 . S
C502 H527 0.950 . S
C503 N498 1.332 . S
C503 C502 1.382 . S
C503 H513 0.948 . S
N504 Co482 2.282 . S
N504 C508 1.332 . S
N504 C509 1.332 . S
C505 C506 1.388 . S
C505 C509 1.382 . S
C505 H528 0.950 . S
C506 C505 1.388 . S
C506 C507 1.386 . S
C507 C506 1.386 . S
C507 C508 1.382 . S
C507 H529 0.950 . S
C508 N504 1.332 . S
C508 C507 1.382 . S
C508 H510 0.952 . S
C509 N504 1.332 . S
C509 C505 1.382 . S
C509 H511 0.948 . S
H510 C508 0.952 . S
H511 C509 0.948 . S
H512 C501 0.952 . S
H513 C503 0.948 . S
C514 C480 1.395 . S
C514 C484 1.391 . S
C515 C477 1.389 . S
C515 C497 1.392 . S
C516 C487 1.392 . S
C516 C489 1.389 . S
C517 C492 1.395 . S
C517 C494 1.391 . S
H518 C478 0.951 . S
H519 C479 0.950 . S
H520 C485 0.949 . S
H521 C486 0.950 . S
H522 C490 0.951 . S
H523 C491 0.950 . S
H524 C495 0.949 . S
H525 C496 0.950 . S
H526 C500 0.950 . S
H527 C502 0.950 . S
H528 C505 0.950 . S
H529 C507 0.950 . S
C530 C531 1.443 . S
C530 N534 1.376 . S
C530 C568 1.389 . S
C531 C530 1.443 . S
C531 C532 1.340 . S
C531 H571 0.951 1_545 S
C532 C531 1.340 . S
C532 C533 1.439 . S
C532 H572 0.950 . S
C533 C532 1.439 . S
C533 N534 1.374 . S
C533 C567 1.395 . S
N534 C530 1.376 . S
N534 C533 1.374 . S
N534 Co535 2.008 . S
Co535 N534 2.008 . S
Co535 N536 1.995 . S
Co535 N541 2.008 . S
Co535 N546 1.995 . S
Co535 N551 2.282 . S
Co535 N557 2.282 . S
N536 Co535 1.995 . S
N536 C537 1.376 . S
N536 C540 1.383 . S
C537 N536 1.376 . S
C537 C538 1.446 . S
C537 C567 1.391 . S
C538 C537 1.446 . S
C538 C539 1.339 . S
C538 H573 0.949 . S
C539 C538 1.339 . S
C539 C540 1.439 . S
C539 H574 0.950 . S
C540 N536 1.383 . S
C540 C539 1.439 . S
C540 C569 1.392 . S
N541 Co535 2.008 . S
N541 C542 1.376 . S
N541 C545 1.374 . S
C542 N541 1.376 . S
C542 C543 1.443 . S
C542 C569 1.389 . S
C543 C542 1.443 . S
C543 C544 1.340 . S
C543 H575 0.951 . S
C544 C543 1.340 . S
C544 C545 1.439 . S
C544 H576 0.950 . S
C545 N541 1.374 . S
C545 C544 1.439 . S
C545 C570 1.395 . S
N546 Co535 1.995 . S
N546 C547 1.376 . S
N546 C550 1.383 . S
C547 N546 1.376 . S
C547 C548 1.446 . S
C547 C570 1.391 . S
C548 C547 1.446 . S
C548 C549 1.339 . S
C548 H577 0.949 . S
C549 C548 1.339 . S
C549 C550 1.439 . S
C549 H578 0.950 . S
C550 N546 1.383 . S
C550 C549 1.439 . S
C550 C568 1.392 . S
N551 Co535 2.282 . S
N551 C554 1.332 . S
N551 C556 1.332 . S
C552 C553 1.386 . S
C552 C555 1.388 . S
C553 C552 1.386 . S
C553 C554 1.382 . S
C553 H579 0.950 . S
C554 N551 1.332 . S
C554 C553 1.382 . S
C554 H565 0.952 . S
C555 C552 1.388 . S
C555 C556 1.382 . S
C555 H580 0.950 . S
C556 N551 1.332 . S
C556 C555 1.382 . S
C556 H566 0.948 . S
N557 Co535 2.282 . S
N557 C561 1.332 . S
N557 C562 1.332 . S
C558 C559 1.388 . S
C558 C562 1.382 . S
C558 H581 0.950 . S
C559 C558 1.388 . S
C559 C560 1.386 . S
C560 C559 1.386 . S
C560 C561 1.382 . S
C560 H582 0.950 . S
C561 N557 1.332 . S
C561 C560 1.382 . S
C561 H563 0.952 . S
C562 N557 1.332 . S
C562 C558 1.382 . S
C562 H564 0.948 . S
H563 C561 0.952 . S
H564 C562 0.948 . S
H565 C554 0.952 . S
H566 C556 0.948 . S
C567 C533 1.395 . S
C567 C537 1.391 . S
C568 C530 1.389 . S
C568 C550 1.392 . S
C569 C540 1.392 . S
C569 C542 1.389 . S
C570 C545 1.395 . S
C570 C547 1.391 . S
H571 C531 0.951 1_565 S
H572 C532 0.950 . S
H573 C538 0.949 . S
H574 C539 0.950 . S
H575 C543 0.951 . S
H576 C544 0.950 . S
H577 C548 0.949 . S
H578 C549 0.950 . S
H579 C553 0.950 . S
H580 C555 0.950 . S
H581 C558 0.950 . S
H582 C560 0.950 . S
C583 C584 1.443 . S
C583 N587 1.376 . S
C583 C621 1.389 . S
C584 C583 1.443 . S
C584 C585 1.340 . S
C584 H624 0.951 1_655 S
C585 C584 1.340 . S
C585 C586 1.439 . S
C585 H625 0.950 . S
C586 C585 1.439 . S
C586 N587 1.374 . S
C586 C620 1.395 . S
N587 C583 1.376 . S
N587 C586 1.374 . S
N587 Co588 2.008 . S
Co588 N587 2.008 . S
Co588 N589 1.995 . S
Co588 N594 2.008 . S
Co588 N599 1.995 . S
Co588 N604 2.282 . S
Co588 N610 2.282 . S
N589 Co588 1.995 . S
N589 C590 1.376 . S
N589 C593 1.383 . S
C590 N589 1.376 . S
C590 C591 1.446 . S
C590 C620 1.391 . S
C591 C590 1.446 . S
C591 C592 1.339 . S
C591 H626 0.949 . S
C592 C591 1.339 . S
C592 C593 1.439 . S
C592 H627 0.950 . S
C593 N589 1.383 . S
C593 C592 1.439 . S
C593 C622 1.392 . S
N594 Co588 2.008 . S
N594 C595 1.376 . S
N594 C598 1.374 . S
C595 N594 1.376 . S
C595 C596 1.443 . S
C595 C622 1.389 . S
C596 C595 1.443 . S
C596 C597 1.340 . S
C596 H628 0.951 . S
C597 C596 1.340 . S
C597 C598 1.439 . S
C597 H629 0.950 . S
C598 N594 1.374 . S
C598 C597 1.439 . S
C598 C623 1.395 . S
N599 Co588 1.995 . S
N599 C600 1.376 . S
N599 C603 1.383 . S
C600 N599 1.376 . S
C600 C601 1.446 . S
C600 C623 1.391 . S
C601 C600 1.446 . S
C601 C602 1.339 . S
C601 H630 0.949 . S
C602 C601 1.339 . S
C602 C603 1.439 . S
C602 H631 0.950 . S
C603 N599 1.383 . S
C603 C602 1.439 . S
C603 C621 1.392 . S
N604 Co588 2.282 . S
N604 C607 1.332 . S
N604 C609 1.332 . S
C605 C606 1.386 . S
C605 C608 1.388 . S
C606 C605 1.386 . S
C606 C607 1.382 . S
C606 H632 0.950 . S
C607 N604 1.332 . S
C607 C606 1.382 . S
C607 H618 0.952 . S
C608 C605 1.388 . S
C608 C609 1.382 . S
C608 H633 0.950 . S
C609 N604 1.332 . S
C609 C608 1.382 . S
C609 H619 0.948 . S
N610 Co588 2.282 . S
N610 C614 1.332 . S
N610 C615 1.332 . S
C611 C612 1.388 . S
C611 C615 1.382 . S
C611 H634 0.950 . S
C612 C611 1.388 . S
C612 C613 1.386 . S
C613 C612 1.386 . S
C613 C614 1.382 . S
C613 H635 0.950 . S
C614 N610 1.332 . S
C614 C613 1.382 . S
C614 H616 0.952 . S
C615 N610 1.332 . S
C615 C611 1.382 . S
C615 H617 0.948 . S
H616 C614 0.952 . S
H617 C615 0.948 . S
H618 C607 0.952 . S
H619 C609 0.948 . S
C620 C586 1.395 . S
C620 C590 1.391 . S
C621 C583 1.389 . S
C621 C603 1.392 . S
C622 C593 1.392 . S
C622 C595 1.389 . S
C623 C598 1.395 . S
C623 C600 1.391 . S
H624 C584 0.951 1_455 S
H625 C585 0.950 . S
H626 C591 0.949 . S
H627 C592 0.950 . S
H628 C596 0.951 . S
H629 C597 0.950 . S
H630 C601 0.949 . S
H631 C602 0.950 . S
H632 C606 0.950 . S
H633 C608 0.950 . S
H634 C611 0.950 . S
H635 C613 0.950 . S
C636 C637 1.443 . S
C636 N640 1.376 . S
C636 C674 1.389 . S
C637 C636 1.443 . S
C637 C638 1.340 . S
C637 H677 0.951 . S
C638 C637 1.340 . S
C638 C639 1.439 . S
C638 H678 0.950 . S
C639 C638 1.439 . S
C639 N640 1.374 . S
C639 C673 1.395 . S
N640 C636 1.376 . S
N640 C639 1.374 . S
N640 Co641 2.008 . S
Co641 N640 2.008 . S
Co641 N642 1.995 . S
Co641 N647 2.008 . S
Co641 N652 1.995 . S
Co641 N657 2.282 . S
Co641 N663 2.282 . S
N642 Co641 1.995 . S
N642 C643 1.376 . S
N642 C646 1.383 . S
C643 N642 1.376 . S
C643 C644 1.446 . S
C643 C673 1.391 . S
C644 C643 1.446 . S
C644 C645 1.339 . S
C644 H679 0.949 . S
C645 C644 1.339 . S
C645 C646 1.439 . S
C645 H680 0.950 . S
C646 N642 1.383 . S
C646 C645 1.439 . S
C646 C675 1.392 . S
N647 Co641 2.008 . S
N647 C648 1.376 . S
N647 C651 1.374 . S
C648 N647 1.376 . S
C648 C649 1.443 . S
C648 C675 1.389 . S
C649 C648 1.443 . S
C649 C650 1.340 . S
C649 H681 0.951 . S
C650 C649 1.340 . S
C650 C651 1.439 . S
C650 H682 0.950 . S
C651 N647 1.374 . S
C651 C650 1.439 . S
C651 C676 1.395 . S
N652 Co641 1.995 . S
N652 C653 1.376 . S
N652 C656 1.383 . S
C653 N652 1.376 . S
C653 C654 1.446 . S
C653 C676 1.391 . S
C654 C653 1.446 . S
C654 C655 1.339 . S
C654 H683 0.949 . S
C655 C654 1.339 . S
C655 C656 1.439 . S
C655 H684 0.950 . S
C656 N652 1.383 . S
C656 C655 1.439 . S
C656 C674 1.392 . S
N657 Co641 2.282 . S
N657 C660 1.332 . S
N657 C662 1.332 . S
C658 C659 1.386 . S
C658 C661 1.388 . S
C659 C658 1.386 . S
C659 C660 1.382 . S
C659 H685 0.950 . S
C660 N657 1.332 . S
C660 C659 1.382 . S
C660 H671 0.952 . S
C661 C658 1.388 . S
C661 C662 1.382 . S
C661 H686 0.950 . S
C662 N657 1.332 . S
C662 C661 1.382 . S
C662 H672 0.948 . S
N663 Co641 2.282 . S
N663 C667 1.332 . S
N663 C668 1.332 . S
C664 C665 1.388 . S
C664 C668 1.382 . S
C664 H687 0.950 . S
C665 C664 1.388 . S
C665 C666 1.386 . S
C666 C665 1.386 . S
C666 C667 1.382 . S
C666 H688 0.950 . S
C667 N663 1.332 . S
C667 C666 1.382 . S
C667 H669 0.952 . S
C668 N663 1.332 . S
C668 C664 1.382 . S
C668 H670 0.948 . S
H669 C667 0.952 . S
H670 C668 0.948 . S
H671 C660 0.952 . S
H672 C662 0.948 . S
C673 C639 1.395 . S
C673 C643 1.391 . S
C674 C636 1.389 . S
C674 C656 1.392 . S
C675 C646 1.392 . S
C675 C648 1.389 . S
C676 C651 1.395 . S
C676 C653 1.391 . S
H677 C637 0.951 . S
H678 C638 0.950 . S
H679 C644 0.949 . S
H680 C645 0.950 . S
H681 C649 0.951 . S
H682 C650 0.950 . S
H683 C654 0.949 . S
H684 C655 0.950 . S
H685 C659 0.950 . S
H686 C661 0.950 . S
H687 C664 0.950 . S
H688 C666 0.950 . S
C689 C690 1.443 . S
C689 N693 1.376 . S
C689 C727 1.389 . S
C690 C689 1.443 . S
C690 C691 1.340 . S
C690 H730 0.951 . S
C691 C690 1.340 . S
C691 C692 1.439 . S
C691 H731 0.950 . S
C692 C691 1.439 . S
C692 N693 1.374 . S
C692 C726 1.395 . S
N693 C689 1.376 . S
N693 C692 1.374 . S
N693 Co694 2.008 . S
Co694 N693 2.008 . S
Co694 N695 1.995 . S
Co694 N700 2.008 . S
Co694 N705 1.995 . S
Co694 N710 2.282 . S
Co694 N716 2.282 . S
N695 Co694 1.995 . S
N695 C696 1.376 . S
N695 C699 1.383 . S
C696 N695 1.376 . S
C696 C697 1.446 . S
C696 C726 1.391 . S
C697 C696 1.446 . S
C697 C698 1.339 . S
C697 H732 0.949 . S
C698 C697 1.339 . S
C698 C699 1.439 . S
C698 H733 0.950 . S
C699 N695 1.383 . S
C699 C698 1.439 . S
C699 C728 1.392 . S
N700 Co694 2.008 . S
N700 C701 1.376 . S
N700 C704 1.374 . S
C701 N700 1.376 . S
C701 C702 1.443 . S
C701 C728 1.389 . S
C702 C701 1.443 . S
C702 C703 1.340 . S
C702 H734 0.951 . S
C703 C702 1.340 . S
C703 C704 1.439 . S
C703 H735 0.950 . S
C704 N700 1.374 . S
C704 C703 1.439 . S
C704 C729 1.395 . S
N705 Co694 1.995 . S
N705 C706 1.376 . S
N705 C709 1.383 . S
C706 N705 1.376 . S
C706 C707 1.446 . S
C706 C729 1.391 . S
C707 C706 1.446 . S
C707 C708 1.339 . S
C707 H736 0.949 . S
C708 C707 1.339 . S
C708 C709 1.439 . S
C708 H737 0.950 . S
C709 N705 1.383 . S
C709 C708 1.439 . S
C709 C727 1.392 . S
N710 Co694 2.282 . S
N710 C713 1.332 . S
N710 C715 1.332 . S
C711 C712 1.386 . S
C711 C714 1.388 . S
C712 C711 1.386 . S
C712 C713 1.382 . S
C712 H738 0.950 . S
C713 N710 1.332 . S
C713 C712 1.382 . S
C713 H724 0.952 . S
C714 C711 1.388 . S
C714 C715 1.382 . S
C714 H739 0.950 . S
C715 N710 1.332 . S
C715 C714 1.382 . S
C715 H725 0.948 . S
N716 Co694 2.282 . S
N716 C720 1.332 . S
N716 C721 1.332 . S
C717 C718 1.388 . S
C717 C721 1.382 . S
C717 H740 0.950 . S
C718 C717 1.388 . S
C718 C719 1.386 . S
C719 C718 1.386 . S
C719 C720 1.382 . S
C719 H741 0.950 . S
C720 N716 1.332 . S
C720 C719 1.382 . S
C720 H722 0.952 . S
C721 N716 1.332 . S
C721 C717 1.382 . S
C721 H723 0.948 . S
H722 C720 0.952 . S
H723 C721 0.948 . S
H724 C713 0.952 . S
H725 C715 0.948 . S
C726 C692 1.395 . S
C726 C696 1.391 . S
C727 C689 1.389 . S
C727 C709 1.392 . S
C728 C699 1.392 . S
C728 C701 1.389 . S
C729 C704 1.395 . S
C729 C706 1.391 . S
H730 C690 0.951 . S
H731 C691 0.950 . S
H732 C697 0.949 . S
H733 C698 0.950 . S
H734 C702 0.951 . S
H735 C703 0.950 . S
H736 C707 0.949 . S
H737 C708 0.950 . S
H738 C712 0.950 . S
H739 C714 0.950 . S
H740 C717 0.950 . S
H741 C719 0.950 . S
C742 C743 1.443 . S
C742 N746 1.376 . S
C742 C780 1.389 . S
C743 C742 1.443 . S
C743 C744 1.340 . S
C743 H783 0.951 . S
C744 C743 1.340 . S
C744 C745 1.439 . S
C744 H784 0.950 . S
C745 C744 1.439 . S
C745 N746 1.374 . S
C745 C779 1.395 . S
N746 C742 1.376 . S
N746 C745 1.374 . S
N746 Co747 2.008 . S
Co747 N746 2.008 . S
Co747 N748 1.995 . S
Co747 N753 2.008 . S
Co747 N758 1.995 . S
Co747 N763 2.282 . S
Co747 N769 2.282 . S
N748 Co747 1.995 . S
N748 C749 1.376 . S
N748 C752 1.383 . S
C749 N748 1.376 . S
C749 C750 1.446 . S
C749 C779 1.391 . S
C750 C749 1.446 . S
C750 C751 1.339 . S
C750 H785 0.949 . S
C751 C750 1.339 . S
C751 C752 1.439 . S
C751 H786 0.950 . S
C752 N748 1.383 . S
C752 C751 1.439 . S
C752 C781 1.392 . S
N753 Co747 2.008 . S
N753 C754 1.376 . S
N753 C757 1.374 . S
C754 N753 1.376 . S
C754 C755 1.443 . S
C754 C781 1.389 . S
C755 C754 1.443 . S
C755 C756 1.340 . S
C755 H787 0.951 . S
C756 C755 1.340 . S
C756 C757 1.439 . S
C756 H788 0.950 . S
C757 N753 1.374 . S
C757 C756 1.439 . S
C757 C782 1.395 . S
N758 Co747 1.995 . S
N758 C759 1.376 . S
N758 C762 1.383 . S
C759 N758 1.376 . S
C759 C760 1.446 . S
C759 C782 1.391 . S
C760 C759 1.446 . S
C760 C761 1.339 . S
C760 H789 0.949 . S
C761 C760 1.339 . S
C761 C762 1.439 . S
C761 H790 0.950 . S
C762 N758 1.383 . S
C762 C761 1.439 . S
C762 C780 1.392 . S
N763 Co747 2.282 . S
N763 C766 1.332 . S
N763 C768 1.332 . S
C764 C765 1.386 . S
C764 C767 1.388 . S
C765 C764 1.386 . S
C765 C766 1.382 . S
C765 H791 0.950 . S
C766 N763 1.332 . S
C766 C765 1.382 . S
C766 H777 0.952 . S
C767 C764 1.388 . S
C767 C768 1.382 . S
C767 H792 0.950 . S
C768 N763 1.332 . S
C768 C767 1.382 . S
C768 H778 0.948 . S
N769 Co747 2.282 . S
N769 C773 1.332 . S
N769 C774 1.332 . S
C770 C771 1.388 . S
C770 C774 1.382 . S
C770 H793 0.950 . S
C771 C770 1.388 . S
C771 C772 1.386 . S
C772 C771 1.386 . S
C772 C773 1.382 . S
C772 H794 0.950 . S
C773 N769 1.332 . S
C773 C772 1.382 . S
C773 H775 0.952 . S
C774 N769 1.332 . S
C774 C770 1.382 . S
C774 H776 0.948 . S
H775 C773 0.952 . S
H776 C774 0.948 . S
H777 C766 0.952 . S
H778 C768 0.948 . S
C779 C745 1.395 . S
C779 C749 1.391 . S
C780 C742 1.389 . S
C780 C762 1.392 . S
C781 C752 1.392 . S
C781 C754 1.389 . S
C782 C757 1.395 . S
C782 C759 1.391 . S
H783 C743 0.951 . S
H784 C744 0.950 . S
H785 C750 0.949 . S
H786 C751 0.950 . S
H787 C755 0.951 . S
H788 C756 0.950 . S
H789 C760 0.949 . S
H790 C761 0.950 . S
H791 C765 0.950 . S
H792 C767 0.950 . S
H793 C770 0.950 . S
H794 C772 0.950 . S
C795 C796 1.443 . S
C795 N799 1.376 . S
C795 C833 1.389 . S
C796 C795 1.443 . S
C796 C797 1.340 . S
C796 H836 0.951 . S
C797 C796 1.340 . S
C797 C798 1.439 . S
C797 H837 0.950 . S
C798 C797 1.439 . S
C798 N799 1.374 . S
C798 C832 1.395 . S
N799 C795 1.376 . S
N799 C798 1.374 . S
N799 Co800 2.008 . S
Co800 N799 2.008 . S
Co800 N801 1.995 . S
Co800 N806 2.008 . S
Co800 N811 1.995 . S
Co800 N816 2.282 . S
Co800 N822 2.282 . S
N801 Co800 1.995 . S
N801 C802 1.376 . S
N801 C805 1.383 . S
C802 N801 1.376 . S
C802 C803 1.446 . S
C802 C832 1.391 . S
C803 C802 1.446 . S
C803 C804 1.339 . S
C803 H838 0.949 . S
C804 C803 1.339 . S
C804 C805 1.439 . S
C804 H839 0.950 . S
C805 N801 1.383 . S
C805 C804 1.439 . S
C805 C834 1.392 . S
N806 Co800 2.008 . S
N806 C807 1.376 . S
N806 C810 1.374 . S
C807 N806 1.376 . S
C807 C808 1.443 . S
C807 C834 1.389 . S
C808 C807 1.443 . S
C808 C809 1.340 . S
C808 H840 0.951 . S
C809 C808 1.340 . S
C809 C810 1.439 . S
C809 H841 0.950 . S
C810 N806 1.374 . S
C810 C809 1.439 . S
C810 C835 1.395 . S
N811 Co800 1.995 . S
N811 C812 1.376 . S
N811 C815 1.383 . S
C812 N811 1.376 . S
C812 C813 1.446 . S
C812 C835 1.391 . S
C813 C812 1.446 . S
C813 C814 1.339 . S
C813 H842 0.949 . S
C814 C813 1.339 . S
C814 C815 1.439 . S
C814 H843 0.950 . S
C815 N811 1.383 . S
C815 C814 1.439 . S
C815 C833 1.392 . S
N816 Co800 2.282 . S
N816 C819 1.332 . S
N816 C821 1.332 . S
C817 C818 1.386 . S
C817 C820 1.388 . S
C818 C817 1.386 . S
C818 C819 1.382 . S
C818 H844 0.950 . S
C819 N816 1.332 . S
C819 C818 1.382 . S
C819 H830 0.952 . S
C820 C817 1.388 . S
C820 C821 1.382 . S
C820 H845 0.950 . S
C821 N816 1.332 . S
C821 C820 1.382 . S
C821 H831 0.948 . S
N822 Co800 2.282 . S
N822 C826 1.332 . S
N822 C827 1.332 . S
C823 C824 1.388 . S
C823 C827 1.382 . S
C823 H846 0.950 . S
C824 C823 1.388 . S
C824 C825 1.386 . S
C825 C824 1.386 . S
C825 C826 1.382 . S
C825 H847 0.950 . S
C826 N822 1.332 . S
C826 C825 1.382 . S
C826 H828 0.952 . S
C827 N822 1.332 . S
C827 C823 1.382 . S
C827 H829 0.948 . S
H828 C826 0.952 . S
H829 C827 0.948 . S
H830 C819 0.952 . S
H831 C821 0.948 . S
C832 C798 1.395 . S
C832 C802 1.391 . S
C833 C795 1.389 . S
C833 C815 1.392 . S
C834 C805 1.392 . S
C834 C807 1.389 . S
C835 C810 1.395 . S
C835 C812 1.391 . S
H836 C796 0.951 . S
H837 C797 0.950 . S
H838 C803 0.949 . S
H839 C804 0.950 . S
H840 C808 0.951 . S
H841 C809 0.950 . S
H842 C813 0.949 . S
H843 C814 0.950 . S
H844 C818 0.950 . S
H845 C820 0.950 . S
H846 C823 0.950 . S
H847 C825 0.950 . S
C848 C849 1.443 . S
C848 N852 1.376 . S
C848 C886 1.389 . S
C849 C848 1.443 . S
C849 C850 1.340 . S
C849 H889 0.951 . S
C850 C849 1.340 . S
C850 C851 1.439 . S
C850 H890 0.950 . S
C851 C850 1.439 . S
C851 N852 1.374 . S
C851 C885 1.395 . S
N852 C848 1.376 . S
N852 C851 1.374 . S
N852 Co853 2.008 . S
Co853 N852 2.008 . S
Co853 N854 1.995 . S
Co853 N859 2.008 . S
Co853 N864 1.995 . S
Co853 N869 2.282 . S
Co853 N875 2.282 . S
N854 Co853 1.995 . S
N854 C855 1.376 . S
N854 C858 1.383 . S
C855 N854 1.376 . S
C855 C856 1.446 . S
C855 C885 1.391 . S
C856 C855 1.446 . S
C856 C857 1.339 . S
C856 H891 0.949 . S
C857 C856 1.339 . S
C857 C858 1.439 . S
C857 H892 0.950 . S
C858 N854 1.383 . S
C858 C857 1.439 . S
C858 C887 1.392 . S
N859 Co853 2.008 . S
N859 C860 1.376 . S
N859 C863 1.374 . S
C860 N859 1.376 . S
C860 C861 1.443 . S
C860 C887 1.389 . S
C861 C860 1.443 . S
C861 C862 1.340 . S
C861 H893 0.951 . S
C862 C861 1.340 . S
C862 C863 1.439 . S
C862 H894 0.950 . S
C863 N859 1.374 . S
C863 C862 1.439 . S
C863 C888 1.395 . S
N864 Co853 1.995 . S
N864 C865 1.376 . S
N864 C868 1.383 . S
C865 N864 1.376 . S
C865 C866 1.446 . S
C865 C888 1.391 . S
C866 C865 1.446 . S
C866 C867 1.339 . S
C866 H895 0.949 . S
C867 C866 1.339 . S
C867 C868 1.439 . S
C867 H896 0.950 . S
C868 N864 1.383 . S
C868 C867 1.439 . S
C868 C886 1.392 . S
N869 Co853 2.282 . S
N869 C872 1.332 . S
N869 C874 1.332 . S
C870 C871 1.386 . S
C870 C873 1.388 . S
C871 C870 1.386 . S
C871 C872 1.382 . S
C871 H897 0.950 . S
C872 N869 1.332 . S
C872 C871 1.382 . S
C872 H883 0.952 . S
C873 C870 1.388 . S
C873 C874 1.382 . S
C873 H898 0.950 . S
C874 N869 1.332 . S
C874 C873 1.382 . S
C874 H884 0.948 . S
N875 Co853 2.282 . S
N875 C879 1.332 . S
N875 C880 1.332 . S
C876 C877 1.388 . S
C876 C880 1.382 . S
C876 H899 0.950 . S
C877 C876 1.388 . S
C877 C878 1.386 . S
C878 C877 1.386 . S
C878 C879 1.382 . S
C878 H900 0.950 . S
C879 N875 1.332 . S
C879 C878 1.382 . S
C879 H881 0.952 . S
C880 N875 1.332 . S
C880 C876 1.382 . S
C880 H882 0.948 . S
H881 C879 0.952 . S
H882 C880 0.948 . S
H883 C872 0.952 . S
H884 C874 0.948 . S
C885 C851 1.395 . S
C885 C855 1.391 . S
C886 C848 1.389 . S
C886 C868 1.392 . S
C887 C858 1.392 . S
C887 C860 1.389 . S
C888 C863 1.395 . S
C888 C865 1.391 . S
H889 C849 0.951 . S
H890 C850 0.950 . S
H891 C856 0.949 . S
H892 C857 0.950 . S
H893 C861 0.951 . S
H894 C862 0.950 . S
H895 C866 0.949 . S
H896 C867 0.950 . S
H897 C871 0.950 . S
H898 C873 0.950 . S
H899 C876 0.950 . S
H900 C878 0.950 . S
C901 C902 1.443 . S
C901 N905 1.376 . S
C901 C939 1.389 . S
C902 C901 1.443 . S
C902 C903 1.340 . S
C902 H942 0.951 . S
C903 C902 1.340 . S
C903 C904 1.439 . S
C903 H943 0.950 . S
C904 C903 1.439 . S
C904 N905 1.374 . S
C904 C938 1.395 . S
N905 C901 1.376 . S
N905 C904 1.374 . S
N905 Co906 2.008 . S
Co906 N905 2.008 . S
Co906 N907 1.995 . S
Co906 N912 2.008 . S
Co906 N917 1.995 . S
Co906 N922 2.282 . S
Co906 N928 2.282 . S
N907 Co906 1.995 . S
N907 C908 1.376 . S
N907 C911 1.383 . S
C908 N907 1.376 . S
C908 C909 1.446 . S
C908 C938 1.391 . S
C909 C908 1.446 . S
C909 C910 1.339 . S
C909 H944 0.949 . S
C910 C909 1.339 . S
C910 C911 1.439 . S
C910 H945 0.950 . S
C911 N907 1.383 . S
C911 C910 1.439 . S
C911 C940 1.392 . S
N912 Co906 2.008 . S
N912 C913 1.376 . S
N912 C916 1.374 . S
C913 N912 1.376 . S
C913 C914 1.443 . S
C913 C940 1.389 . S
C914 C913 1.443 . S
C914 C915 1.340 . S
C914 H946 0.951 . S
C915 C914 1.340 . S
C915 C916 1.439 . S
C915 H947 0.950 . S
C916 N912 1.374 . S
C916 C915 1.439 . S
C916 C941 1.395 . S
N917 Co906 1.995 . S
N917 C918 1.376 . S
N917 C921 1.383 . S
C918 N917 1.376 . S
C918 C919 1.446 . S
C918 C941 1.391 . S
C919 C918 1.446 . S
C919 C920 1.339 . S
C919 H948 0.949 . S
C920 C919 1.339 . S
C920 C921 1.439 . S
C920 H949 0.950 . S
C921 N917 1.383 . S
C921 C920 1.439 . S
C921 C939 1.392 . S
N922 Co906 2.282 . S
N922 C925 1.332 . S
N922 C927 1.332 . S
C923 C924 1.386 . S
C923 C926 1.388 . S
C924 C923 1.386 . S
C924 C925 1.382 . S
C924 H950 0.950 . S
C925 N922 1.332 . S
C925 C924 1.382 . S
C925 H936 0.952 . S
C926 C923 1.388 . S
C926 C927 1.382 . S
C926 H951 0.950 . S
C927 N922 1.332 . S
C927 C926 1.382 . S
C927 H937 0.948 . S
N928 Co906 2.282 . S
N928 C932 1.332 . S
N928 C933 1.332 . S
C929 C930 1.388 . S
C929 C933 1.382 . S
C929 H952 0.950 . S
C930 C929 1.388 . S
C930 C931 1.386 . S
C931 C930 1.386 . S
C931 C932 1.382 . S
C931 H953 0.950 . S
C932 N928 1.332 . S
C932 C931 1.382 . S
C932 H934 0.952 . S
C933 N928 1.332 . S
C933 C929 1.382 . S
C933 H935 0.948 . S
H934 C932 0.952 . S
H935 C933 0.948 . S
H936 C925 0.952 . S
H937 C927 0.948 . S
C938 C904 1.395 . S
C938 C908 1.391 . S
C939 C901 1.389 . S
C939 C921 1.392 . S
C940 C911 1.392 . S
C940 C913 1.389 . S
C941 C916 1.395 . S
C941 C918 1.391 . S
H942 C902 0.951 . S
H943 C903 0.950 . S
H944 C909 0.949 . S
H945 C910 0.950 . S
H946 C914 0.951 . S
H947 C915 0.950 . S
H948 C919 0.949 . S
H949 C920 0.950 . S
H950 C924 0.950 . S
H951 C926 0.950 . S
H952 C929 0.950 . S
H953 C931 0.950 . S
C954 C955 1.443 . S
C954 N958 1.376 . S
C954 C992 1.389 . S
C955 C954 1.443 . S
C955 C956 1.340 . S
C955 H995 0.951 . S
C956 C955 1.340 . S
C956 C957 1.439 . S
C956 H996 0.950 . S
C957 C956 1.439 . S
C957 N958 1.374 . S
C957 C991 1.395 . S
N958 C954 1.376 . S
N958 C957 1.374 . S
N958 Co959 2.008 . S
Co959 N958 2.008 . S
Co959 N960 1.995 . S
Co959 N965 2.008 . S
Co959 N970 1.995 . S
Co959 N975 2.282 . S
Co959 N981 2.282 . S
N960 Co959 1.995 . S
N960 C961 1.376 . S
N960 C964 1.383 . S
C961 N960 1.376 . S
C961 C962 1.446 . S
C961 C991 1.391 . S
C962 C961 1.446 . S
C962 C963 1.339 . S
C962 H997 0.949 . S
C963 C962 1.339 . S
C963 C964 1.439 . S
C963 H998 0.950 . S
C964 N960 1.383 . S
C964 C963 1.439 . S
C964 C993 1.392 . S
N965 Co959 2.008 . S
N965 C966 1.376 . S
N965 C969 1.374 . S
C966 N965 1.376 . S
C966 C967 1.443 . S
C966 C993 1.389 . S
C967 C966 1.443 . S
C967 C968 1.340 . S
C967 H999 0.951 . S
C968 C967 1.340 . S
C968 C969 1.439 . S
C968 H1000 0.950 . S
C969 N965 1.374 . S
C969 C968 1.439 . S
C969 C994 1.395 . S
N970 Co959 1.995 . S
N970 C971 1.376 . S
N970 C974 1.383 . S
C971 N970 1.376 . S
C971 C972 1.446 . S
C971 C994 1.391 . S
C972 C971 1.446 . S
C972 C973 1.339 . S
C972 H1001 0.949 . S
C973 C972 1.339 . S
C973 C974 1.439 . S
C973 H1002 0.950 . S
C974 N970 1.383 . S
C974 C973 1.439 . S
C974 C992 1.392 . S
N975 Co959 2.282 . S
N975 C978 1.332 . S
N975 C980 1.332 . S
C976 C977 1.386 . S
C976 C979 1.388 . S
C977 C976 1.386 . S
C977 C978 1.382 . S
C977 H1003 0.950 . S
C978 N975 1.332 . S
C978 C977 1.382 . S
C978 H989 0.952 . S
C979 C976 1.388 . S
C979 C980 1.382 . S
C979 H1004 0.950 . S
C980 N975 1.332 . S
C980 C979 1.382 . S
C980 H990 0.948 . S
N981 Co959 2.282 . S
N981 C985 1.332 . S
N981 C986 1.332 . S
C982 C983 1.388 . S
C982 C986 1.382 . S
C982 H1005 0.950 . S
C983 C982 1.388 . S
C983 C984 1.386 . S
C984 C983 1.386 . S
C984 C985 1.382 . S
C984 H1006 0.950 . S
C985 N981 1.332 . S
C985 C984 1.382 . S
C985 H987 0.952 . S
C986 N981 1.332 . S
C986 C982 1.382 . S
C986 H988 0.948 . S
H987 C985 0.952 . S
H988 C986 0.948 . S
H989 C978 0.952 . S
H990 C980 0.948 . S
C991 C957 1.395 . S
C991 C961 1.391 . S
C992 C954 1.389 . S
C992 C974 1.392 . S
C993 C964 1.392 . S
C993 C966 1.389 . S
C994 C969 1.395 . S
C994 C971 1.391 . S
H995 C955 0.951 . S
H996 C956 0.950 . S
H997 C962 0.949 . S
H998 C963 0.950 . S
H999 C967 0.951 . S
H1000 C968 0.950 . S
H1001 C972 0.949 . S
H1002 C973 0.950 . S
H1003 C977 0.950 . S
H1004 C979 0.950 . S
H1005 C982 0.950 . S
H1006 C984 0.950 . S
C1007 C1008 1.443 . S
C1007 N1011 1.376 . S
C1007 C1045 1.389 . S
C1008 C1007 1.443 . S
C1008 C1009 1.340 . S
C1008 H1048 0.951 . S
C1009 C1008 1.340 . S
C1009 C1010 1.439 . S
C1009 H1049 0.950 . S
C1010 C1009 1.439 . S
C1010 N1011 1.374 . S
C1010 C1044 1.395 . S
N1011 C1007 1.376 . S
N1011 C1010 1.374 . S
N1011 Co1012 2.008 . S
Co1012 N1011 2.008 . S
Co1012 N1013 1.995 . S
Co1012 N1018 2.008 . S
Co1012 N1023 1.995 . S
Co1012 N1028 2.282 . S
Co1012 N1034 2.282 . S
N1013 Co1012 1.995 . S
N1013 C1014 1.376 . S
N1013 C1017 1.383 . S
C1014 N1013 1.376 . S
C1014 C1015 1.446 . S
C1014 C1044 1.391 . S
C1015 C1014 1.446 . S
C1015 C1016 1.339 . S
C1015 H1050 0.949 . S
C1016 C1015 1.339 . S
C1016 C1017 1.439 . S
C1016 H1051 0.950 . S
C1017 N1013 1.383 . S
C1017 C1016 1.439 . S
C1017 C1046 1.392 . S
N1018 Co1012 2.008 . S
N1018 C1019 1.376 . S
N1018 C1022 1.374 . S
C1019 N1018 1.376 . S
C1019 C1020 1.443 . S
C1019 C1046 1.389 . S
C1020 C1019 1.443 . S
C1020 C1021 1.340 . S
C1020 H1052 0.951 . S
C1021 C1020 1.340 . S
C1021 C1022 1.439 . S
C1021 H1053 0.950 . S
C1022 N1018 1.374 . S
C1022 C1021 1.439 . S
C1022 C1047 1.395 . S
N1023 Co1012 1.995 . S
N1023 C1024 1.376 . S
N1023 C1027 1.383 . S
C1024 N1023 1.376 . S
C1024 C1025 1.446 . S
C1024 C1047 1.391 . S
C1025 C1024 1.446 . S
C1025 C1026 1.339 . S
C1025 H1054 0.949 . S
C1026 C1025 1.339 . S
C1026 C1027 1.439 . S
C1026 H1055 0.950 . S
C1027 N1023 1.383 . S
C1027 C1026 1.439 . S
C1027 C1045 1.392 . S
N1028 Co1012 2.282 . S
N1028 C1031 1.332 . S
N1028 C1033 1.332 . S
C1029 C1030 1.386 . S
C1029 C1032 1.388 . S
C1030 C1029 1.386 . S
C1030 C1031 1.382 . S
C1030 H1056 0.950 . S
C1031 N1028 1.332 . S
C1031 C1030 1.382 . S
C1031 H1042 0.952 . S
C1032 C1029 1.388 . S
C1032 C1033 1.382 . S
C1032 H1057 0.950 . S
C1033 N1028 1.332 . S
C1033 C1032 1.382 . S
C1033 H1043 0.948 . S
N1034 Co1012 2.282 . S
N1034 C1038 1.332 . S
N1034 C1039 1.332 . S
C1035 C1036 1.388 . S
C1035 C1039 1.382 . S
C1035 H1058 0.950 . S
C1036 C1035 1.388 . S
C1036 C1037 1.386 . S
C1037 C1036 1.386 . S
C1037 C1038 1.382 . S
C1037 H1059 0.950 . S
C1038 N1034 1.332 . S
C1038 C1037 1.382 . S
C1038 H1040 0.952 . S
C1039 N1034 1.332 . S
C1039 C1035 1.382 . S
C1039 H1041 0.948 . S
H1040 C1038 0.952 . S
H1041 C1039 0.948 . S
H1042 C1031 0.952 . S
H1043 C1033 0.948 . S
C1044 C1010 1.395 . S
C1044 C1014 1.391 . S
C1045 C1007 1.389 . S
C1045 C1027 1.392 . S
C1046 C1017 1.392 . S
C1046 C1019 1.389 . S
C1047 C1022 1.395 . S
C1047 C1024 1.391 . S
H1048 C1008 0.951 . S
H1049 C1009 0.950 . S
H1050 C1015 0.949 . S
H1051 C1016 0.950 . S
H1052 C1020 0.951 . S
H1053 C1021 0.950 . S
H1054 C1025 0.949 . S
H1055 C1026 0.950 . S
H1056 C1030 0.950 . S
H1057 C1032 0.950 . S
H1058 C1035 0.950 . S
H1059 C1037 0.950 . S
C1060 C1061 1.443 . S
C1060 N1064 1.376 . S
C1060 C1098 1.389 . S
C1061 C1060 1.443 . S
C1061 C1062 1.340 . S
C1061 H1101 0.951 . S
C1062 C1061 1.340 . S
C1062 C1063 1.439 . S
C1062 H1102 0.950 . S
C1063 C1062 1.439 . S
C1063 N1064 1.374 . S
C1063 C1097 1.395 . S
N1064 C1060 1.376 . S
N1064 C1063 1.374 . S
N1064 Co1065 2.008 . S
Co1065 N1064 2.008 . S
Co1065 N1066 1.995 . S
Co1065 N1071 2.008 . S
Co1065 N1076 1.995 . S
Co1065 N1081 2.282 . S
Co1065 N1087 2.282 . S
N1066 Co1065 1.995 . S
N1066 C1067 1.376 . S
N1066 C1070 1.383 . S
C1067 N1066 1.376 . S
C1067 C1068 1.446 . S
C1067 C1097 1.391 . S
C1068 C1067 1.446 . S
C1068 C1069 1.339 . S
C1068 H1103 0.949 . S
C1069 C1068 1.339 . S
C1069 C1070 1.439 . S
C1069 H1104 0.950 . S
C1070 N1066 1.383 . S
C1070 C1069 1.439 . S
C1070 C1099 1.392 . S
N1071 Co1065 2.008 . S
N1071 C1072 1.376 . S
N1071 C1075 1.374 . S
C1072 N1071 1.376 . S
C1072 C1073 1.443 . S
C1072 C1099 1.389 . S
C1073 C1072 1.443 . S
C1073 C1074 1.340 . S
C1073 H1105 0.951 . S
C1074 C1073 1.340 . S
C1074 C1075 1.439 . S
C1074 H1106 0.950 . S
C1075 N1071 1.374 . S
C1075 C1074 1.439 . S
C1075 C1100 1.395 . S
N1076 Co1065 1.995 . S
N1076 C1077 1.376 . S
N1076 C1080 1.383 . S
C1077 N1076 1.376 . S
C1077 C1078 1.446 . S
C1077 C1100 1.391 . S
C1078 C1077 1.446 . S
C1078 C1079 1.339 . S
C1078 H1107 0.949 . S
C1079 C1078 1.339 . S
C1079 C1080 1.439 . S
C1079 H1108 0.950 . S
C1080 N1076 1.383 . S
C1080 C1079 1.439 . S
C1080 C1098 1.392 . S
N1081 Co1065 2.282 . S
N1081 C1084 1.332 . S
N1081 C1086 1.332 . S
C1082 C1083 1.386 . S
C1082 C1085 1.388 . S
C1083 C1082 1.386 . S
C1083 C1084 1.382 . S
C1083 H1109 0.950 . S
C1084 N1081 1.332 . S
C1084 C1083 1.382 . S
C1084 H1095 0.952 . S
C1085 C1082 1.388 . S
C1085 C1086 1.382 . S
C1085 H1110 0.950 . S
C1086 N1081 1.332 . S
C1086 C1085 1.382 . S
C1086 H1096 0.948 . S
N1087 Co1065 2.282 . S
N1087 C1091 1.332 . S
N1087 C1092 1.332 . S
C1088 C1089 1.388 . S
C1088 C1092 1.382 . S
C1088 H1111 0.950 . S
C1089 C1088 1.388 . S
C1089 C1090 1.386 . S
C1090 C1089 1.386 . S
C1090 C1091 1.382 . S
C1090 H1112 0.950 . S
C1091 N1087 1.332 . S
C1091 C1090 1.382 . S
C1091 H1093 0.952 . S
C1092 N1087 1.332 . S
C1092 C1088 1.382 . S
C1092 H1094 0.948 . S
H1093 C1091 0.952 . S
H1094 C1092 0.948 . S
H1095 C1084 0.952 . S
H1096 C1086 0.948 . S
C1097 C1063 1.395 . S
C1097 C1067 1.391 . S
C1098 C1060 1.389 . S
C1098 C1080 1.392 . S
C1099 C1070 1.392 . S
C1099 C1072 1.389 . S
C1100 C1075 1.395 . S
C1100 C1077 1.391 . S
H1101 C1061 0.951 . S
H1102 C1062 0.950 . S
H1103 C1068 0.949 . S
H1104 C1069 0.950 . S
H1105 C1073 0.951 . S
H1106 C1074 0.950 . S
H1107 C1078 0.949 . S
H1108 C1079 0.950 . S
H1109 C1083 0.950 . S
H1110 C1085 0.950 . S
H1111 C1088 0.950 . S
H1112 C1090 0.950 . S
C1113 C1114 1.443 . S
C1113 N1117 1.376 . S
C1113 C1151 1.389 . S
C1114 C1113 1.443 . S
C1114 C1115 1.340 . S
C1114 H1154 0.951 . S
C1115 C1114 1.340 . S
C1115 C1116 1.439 . S
C1115 H1155 0.950 . S
C1116 C1115 1.439 . S
C1116 N1117 1.374 . S
C1116 C1150 1.395 . S
N1117 C1113 1.376 . S
N1117 C1116 1.374 . S
N1117 Co1118 2.008 . S
Co1118 N1117 2.008 . S
Co1118 N1119 1.995 . S
Co1118 N1124 2.008 . S
Co1118 N1129 1.995 . S
Co1118 N1134 2.282 . S
Co1118 N1140 2.282 . S
N1119 Co1118 1.995 . S
N1119 C1120 1.376 . S
N1119 C1123 1.383 . S
C1120 N1119 1.376 . S
C1120 C1121 1.446 . S
C1120 C1150 1.391 . S
C1121 C1120 1.446 . S
C1121 C1122 1.339 . S
C1121 H1156 0.949 1_556 S
C1122 C1121 1.339 . S
C1122 C1123 1.439 . S
C1122 H1157 0.950 . S
C1123 N1119 1.383 . S
C1123 C1122 1.439 . S
C1123 C1152 1.392 . S
N1124 Co1118 2.008 . S
N1124 C1125 1.376 . S
N1124 C1128 1.374 . S
C1125 N1124 1.376 . S
C1125 C1126 1.443 . S
C1125 C1152 1.389 . S
C1126 C1125 1.443 . S
C1126 C1127 1.340 . S
C1126 H1158 0.951 . S
C1127 C1126 1.340 . S
C1127 C1128 1.439 . S
C1127 H1159 0.950 . S
C1128 N1124 1.374 . S
C1128 C1127 1.439 . S
C1128 C1153 1.395 . S
N1129 Co1118 1.995 . S
N1129 C1130 1.376 . S
N1129 C1133 1.383 . S
C1130 N1129 1.376 . S
C1130 C1131 1.446 . S
C1130 C1153 1.391 . S
C1131 C1130 1.446 . S
C1131 C1132 1.339 . S
C1131 H1160 0.949 . S
C1132 C1131 1.339 . S
C1132 C1133 1.439 . S
C1132 H1161 0.950 . S
C1133 N1129 1.383 . S
C1133 C1132 1.439 . S
C1133 C1151 1.392 . S
N1134 Co1118 2.282 . S
N1134 C1137 1.332 . S
N1134 C1139 1.332 . S
C1135 C1136 1.386 . S
C1135 C1138 1.388 . S
C1136 C1135 1.386 . S
C1136 C1137 1.382 . S
C1136 H1162 0.950 . S
C1137 N1134 1.332 . S
C1137 C1136 1.382 . S
C1137 H1148 0.952 . S
C1138 C1135 1.388 . S
C1138 C1139 1.382 . S
C1138 H1163 0.950 . S
C1139 N1134 1.332 . S
C1139 C1138 1.382 . S
C1139 H1149 0.948 . S
N1140 Co1118 2.282 . S
N1140 C1144 1.332 . S
N1140 C1145 1.332 . S
C1141 C1142 1.388 . S
C1141 C1145 1.382 . S
C1141 H1164 0.950 . S
C1142 C1141 1.388 . S
C1142 C1143 1.386 . S
C1143 C1142 1.386 . S
C1143 C1144 1.382 . S
C1143 H1165 0.950 . S
C1144 N1140 1.332 . S
C1144 C1143 1.382 . S
C1144 H1146 0.952 . S
C1145 N1140 1.332 . S
C1145 C1141 1.382 . S
C1145 H1147 0.948 . S
H1146 C1144 0.952 . S
H1147 C1145 0.948 . S
H1148 C1137 0.952 . S
H1149 C1139 0.948 . S
C1150 C1116 1.395 . S
C1150 C1120 1.391 . S
C1151 C1113 1.389 . S
C1151 C1133 1.392 . S
C1152 C1123 1.392 . S
C1152 C1125 1.389 . S
C1153 C1128 1.395 . S
C1153 C1130 1.391 . S
H1154 C1114 0.951 . S
H1155 C1115 0.950 . S
H1156 C1121 0.949 1_554 S
H1157 C1122 0.950 . S
H1158 C1126 0.951 . S
H1159 C1127 0.950 . S
H1160 C1131 0.949 . S
H1161 C1132 0.950 . S
H1162 C1136 0.950 . S
H1163 C1138 0.950 . S
H1164 C1141 0.950 . S
H1165 C1143 0.950 . S
C1166 C1167 1.443 . S
C1166 N1170 1.376 . S
C1166 C1204 1.389 . S
C1167 C1166 1.443 . S
C1167 C1168 1.340 . S
C1167 H1207 0.951 . S
C1168 C1167 1.340 . S
C1168 C1169 1.439 . S
C1168 H1208 0.950 . S
C1169 C1168 1.439 . S
C1169 N1170 1.374 . S
C1169 C1203 1.395 . S
N1170 C1166 1.376 . S
N1170 C1169 1.374 . S
N1170 Co1171 2.008 . S
Co1171 N1170 2.008 . S
Co1171 N1172 1.995 . S
Co1171 N1177 2.008 . S
Co1171 N1182 1.995 . S
Co1171 N1187 2.282 . S
Co1171 N1193 2.282 . S
N1172 Co1171 1.995 . S
N1172 C1173 1.376 . S
N1172 C1176 1.383 . S
C1173 N1172 1.376 . S
C1173 C1174 1.446 . S
C1173 C1203 1.391 . S
C1174 C1173 1.446 . S
C1174 C1175 1.339 . S
C1174 H1209 0.949 . S
C1175 C1174 1.339 . S
C1175 C1176 1.439 . S
C1175 H1210 0.950 . S
C1176 N1172 1.383 . S
C1176 C1175 1.439 . S
C1176 C1205 1.392 . S
N1177 Co1171 2.008 . S
N1177 C1178 1.376 . S
N1177 C1181 1.374 . S
C1178 N1177 1.376 . S
C1178 C1179 1.443 . S
C1178 C1205 1.389 . S
C1179 C1178 1.443 . S
C1179 C1180 1.340 . S
C1179 H1211 0.951 . S
C1180 C1179 1.340 . S
C1180 C1181 1.439 . S
C1180 H1212 0.950 . S
C1181 N1177 1.374 . S
C1181 C1180 1.439 . S
C1181 C1206 1.395 . S
N1182 Co1171 1.995 . S
N1182 C1183 1.376 . S
N1182 C1186 1.383 . S
C1183 N1182 1.376 . S
C1183 C1184 1.446 . S
C1183 C1206 1.391 . S
C1184 C1183 1.446 . S
C1184 C1185 1.339 . S
C1184 H1213 0.949 . S
C1185 C1184 1.339 . S
C1185 C1186 1.439 . S
C1185 H1214 0.950 . S
C1186 N1182 1.383 . S
C1186 C1185 1.439 . S
C1186 C1204 1.392 . S
N1187 Co1171 2.282 . S
N1187 C1190 1.332 . S
N1187 C1192 1.332 . S
C1188 C1189 1.386 . S
C1188 C1191 1.388 . S
C1189 C1188 1.386 . S
C1189 C1190 1.382 . S
C1189 H1215 0.950 . S
C1190 N1187 1.332 . S
C1190 C1189 1.382 . S
C1190 H1201 0.952 . S
C1191 C1188 1.388 . S
C1191 C1192 1.382 . S
C1191 H1216 0.950 . S
C1192 N1187 1.332 . S
C1192 C1191 1.382 . S
C1192 H1202 0.948 . S
N1193 Co1171 2.282 . S
N1193 C1197 1.332 . S
N1193 C1198 1.332 . S
C1194 C1195 1.388 . S
C1194 C1198 1.382 . S
C1194 H1217 0.950 . S
C1195 C1194 1.388 . S
C1195 C1196 1.386 . S
C1196 C1195 1.386 . S
C1196 C1197 1.382 . S
C1196 H1218 0.950 . S
C1197 N1193 1.332 . S
C1197 C1196 1.382 . S
C1197 H1199 0.952 . S
C1198 N1193 1.332 . S
C1198 C1194 1.382 . S
C1198 H1200 0.948 . S
H1199 C1197 0.952 . S
H1200 C1198 0.948 . S
H1201 C1190 0.952 . S
H1202 C1192 0.948 . S
C1203 C1169 1.395 . S
C1203 C1173 1.391 . S
C1204 C1166 1.389 . S
C1204 C1186 1.392 . S
C1205 C1176 1.392 . S
C1205 C1178 1.389 . S
C1206 C1181 1.395 . S
C1206 C1183 1.391 . S
H1207 C1167 0.951 . S
H1208 C1168 0.950 . S
H1209 C1174 0.949 . S
H1210 C1175 0.950 . S
H1211 C1179 0.951 . S
H1212 C1180 0.950 . S
H1213 C1184 0.949 . S
H1214 C1185 0.950 . S
H1215 C1189 0.950 . S
H1216 C1191 0.950 . S
H1217 C1194 0.950 . S
H1218 C1196 0.950 . S
C1219 C1220 1.443 . S
C1219 N1223 1.376 . S
C1219 C1257 1.389 . S
C1220 C1219 1.443 . S
C1220 C1221 1.340 . S
C1220 H1260 0.951 . S
C1221 C1220 1.340 . S
C1221 C1222 1.439 . S
C1221 H1261 0.950 . S
C1222 C1221 1.439 . S
C1222 N1223 1.374 . S
C1222 C1256 1.395 . S
N1223 C1219 1.376 . S
N1223 C1222 1.374 . S
N1223 Co1224 2.008 . S
Co1224 N1223 2.008 . S
Co1224 N1225 1.995 . S
Co1224 N1230 2.008 . S
Co1224 N1235 1.995 . S
Co1224 N1240 2.282 . S
Co1224 N1246 2.282 . S
N1225 Co1224 1.995 . S
N1225 C1226 1.376 . S
N1225 C1229 1.383 . S
C1226 N1225 1.376 . S
C1226 C1227 1.446 1_556 S
C1226 C1256 1.391 . S
C1227 C1226 1.446 1_554 S
C1227 C1228 1.333 1_554 S
C1227 H1262 0.949 . S
C1228 C1227 1.333 1_556 S
C1228 C1229 1.452 . S
C1228 H1263 0.944 1_556 S
C1229 N1225 1.383 . S
C1229 C1228 1.452 . S
C1229 C1258 1.392 . S
N1230 Co1224 2.008 . S
N1230 C1231 1.376 . S
N1230 C1234 1.374 . S
C1231 N1230 1.376 . S
C1231 C1232 1.443 . S
C1231 C1258 1.389 . S
C1232 C1231 1.443 . S
C1232 C1233 1.340 . S
C1232 H1264 0.951 . S
C1233 C1232 1.340 . S
C1233 C1234 1.439 . S
C1233 H1265 0.950 . S
C1234 N1230 1.374 . S
C1234 C1233 1.439 . S
C1234 C1259 1.395 . S
N1235 Co1224 1.995 . S
N1235 C1236 1.376 . S
N1235 C1239 1.383 . S
C1236 N1235 1.376 . S
C1236 C1237 1.446 . S
C1236 C1259 1.391 . S
C1237 C1236 1.446 . S
C1237 C1238 1.339 . S
C1237 H1266 0.949 . S
C1238 C1237 1.339 . S
C1238 C1239 1.439 . S
C1238 H1267 0.950 . S
C1239 N1235 1.383 . S
C1239 C1238 1.439 . S
C1239 C1257 1.392 . S
N1240 Co1224 2.282 . S
N1240 C1243 1.332 . S
N1240 C1245 1.332 . S
C1241 C1242 1.386 . S
C1241 C1244 1.388 . S
C1242 C1241 1.386 . S
C1242 C1243 1.382 . S
C1242 H1268 0.950 . S
C1243 N1240 1.332 . S
C1243 C1242 1.382 . S
C1243 H1254 0.952 . S
C1244 C1241 1.388 . S
C1244 C1245 1.382 . S
C1244 H1269 0.950 . S
C1245 N1240 1.332 . S
C1245 C1244 1.382 . S
C1245 H1255 0.948 . S
N1246 Co1224 2.282 . S
N1246 C1250 1.332 . S
N1246 C1251 1.332 . S
C1247 C1248 1.388 . S
C1247 C1251 1.382 . S
C1247 H1270 0.950 . S
C1248 C1247 1.388 . S
C1248 C1249 1.386 . S
C1249 C1248 1.386 . S
C1249 C1250 1.382 . S
C1249 H1271 0.950 . S
C1250 N1246 1.332 . S
C1250 C1249 1.382 . S
C1250 H1252 0.952 . S
C1251 N1246 1.332 . S
C1251 C1247 1.382 . S
C1251 H1253 0.948 . S
H1252 C1250 0.952 . S
H1253 C1251 0.948 . S
H1254 C1243 0.952 . S
H1255 C1245 0.948 . S
C1256 C1222 1.395 . S
C1256 C1226 1.391 . S
C1257 C1219 1.389 . S
C1257 C1239 1.392 . S
C1258 C1229 1.392 . S
C1258 C1231 1.389 . S
C1259 C1234 1.395 . S
C1259 C1236 1.391 . S
H1260 C1220 0.951 . S
H1261 C1221 0.950 . S
H1262 C1227 0.949 . S
H1263 C1228 0.944 1_554 S
H1264 C1232 0.951 . S
H1265 C1233 0.950 . S
H1266 C1237 0.949 . S
H1267 C1238 0.950 . S
H1268 C1242 0.950 . S
H1269 C1244 0.950 . S
H1270 C1247 0.950 . S
H1271 C1249 0.950 . S
C1272 C1273 1.443 . S
C1272 N1276 1.376 . S
C1272 C1310 1.389 . S
C1273 C1272 1.443 . S
C1273 C1274 1.340 . S
C1273 H1313 0.951 . S
C1274 C1273 1.340 . S
C1274 C1275 1.439 . S
C1274 H1314 0.950 . S
C1275 C1274 1.439 . S
C1275 N1276 1.374 . S
C1275 C1309 1.395 . S
N1276 C1272 1.376 . S
N1276 C1275 1.374 . S
N1276 Co1277 2.008 . S
Co1277 N1276 2.008 . S
Co1277 N1278 1.995 . S
Co1277 N1283 2.008 . S
Co1277 N1288 1.995 . S
Co1277 N1293 2.282 . S
Co1277 N1299 2.282 . S
N1278 Co1277 1.995 . S
N1278 C1279 1.376 . S
N1278 C1282 1.383 . S
C1279 N1278 1.376 . S
C1279 C1280 1.446 . S
C1279 C1309 1.391 . S
C1280 C1279 1.446 . S
C1280 C1281 1.339 . S
C1280 H1315 0.949 . S
C1281 C1280 1.339 . S
C1281 C1282 1.439 . S
C1281 H1316 0.950 . S
C1282 N1278 1.383 . S
C1282 C1281 1.439 . S
C1282 C1311 1.392 . S
N1283 Co1277 2.008 . S
N1283 C1284 1.376 . S
N1283 C1287 1.374 . S
C1284 N1283 1.376 . S
C1284 C1285 1.443 . S
C1284 C1311 1.389 . S
C1285 C1284 1.443 . S
C1285 C1286 1.340 . S
C1285 H1317 0.951 . S
C1286 C1285 1.340 . S
C1286 C1287 1.439 . S
C1286 H1318 0.950 . S
C1287 N1283 1.374 . S
C1287 C1286 1.439 . S
C1287 C1312 1.395 . S
N1288 Co1277 1.995 . S
N1288 C1289 1.376 . S
N1288 C1292 1.383 . S
C1289 N1288 1.376 . S
C1289 C1290 1.446 . S
C1289 C1312 1.391 . S
C1290 C1289 1.446 . S
C1290 C1291 1.339 . S
C1290 H1319 0.949 . S
C1291 C1290 1.339 . S
C1291 C1292 1.439 . S
C1291 H1320 0.950 . S
C1292 N1288 1.383 . S
C1292 C1291 1.439 . S
C1292 C1310 1.392 . S
N1293 Co1277 2.282 . S
N1293 C1296 1.332 . S
N1293 C1298 1.332 . S
C1294 C1295 1.386 . S
C1294 C1297 1.388 . S
C1295 C1294 1.386 . S
C1295 C1296 1.382 . S
C1295 H1321 0.950 . S
C1296 N1293 1.332 . S
C1296 C1295 1.382 . S
C1296 H1307 0.952 . S
C1297 C1294 1.388 . S
C1297 C1298 1.382 . S
C1297 H1322 0.950 . S
C1298 N1293 1.332 . S
C1298 C1297 1.382 . S
C1298 H1308 0.948 . S
N1299 Co1277 2.282 . S
N1299 C1303 1.332 . S
N1299 C1304 1.332 . S
C1300 C1301 1.388 . S
C1300 C1304 1.382 . S
C1300 H1323 0.950 . S
C1301 C1300 1.388 . S
C1301 C1302 1.386 . S
C1302 C1301 1.386 . S
C1302 C1303 1.382 . S
C1302 H1324 0.950 . S
C1303 N1299 1.332 . S
C1303 C1302 1.382 . S
C1303 H1305 0.952 . S
C1304 N1299 1.332 . S
C1304 C1300 1.382 . S
C1304 H1306 0.948 . S
H1305 C1303 0.952 . S
H1306 C1304 0.948 . S
H1307 C1296 0.952 . S
H1308 C1298 0.948 . S
C1309 C1275 1.395 . S
C1309 C1279 1.391 . S
C1310 C1272 1.389 . S
C1310 C1292 1.392 . S
C1311 C1282 1.392 . S
C1311 C1284 1.389 . S
C1312 C1287 1.395 . S
C1312 C1289 1.391 . S
H1313 C1273 0.951 . S
H1314 C1274 0.950 . S
H1315 C1280 0.949 . S
H1316 C1281 0.950 . S
H1317 C1285 0.951 . S
H1318 C1286 0.950 . S
H1319 C1290 0.949 . S
H1320 C1291 0.950 . S
H1321 C1295 0.950 . S
H1322 C1297 0.950 . S
H1323 C1300 0.950 . S
H1324 C1302 0.950 . S
C1325 C1326 1.443 . S
C1325 N1329 1.376 . S
C1325 C1363 1.389 . S
C1326 C1325 1.443 . S
C1326 C1327 1.340 . S
C1326 H1366 0.951 . S
C1327 C1326 1.340 . S
C1327 C1328 1.439 . S
C1327 H1367 0.950 . S
C1328 C1327 1.439 . S
C1328 N1329 1.374 . S
C1328 C1362 1.395 . S
N1329 C1325 1.376 . S
N1329 C1328 1.374 . S
N1329 Co1330 2.008 . S
Co1330 N1329 2.008 . S
Co1330 N1331 1.995 . S
Co1330 N1336 2.008 . S
Co1330 N1341 1.995 . S
Co1330 N1346 2.282 . S
Co1330 N1352 2.282 . S
N1331 Co1330 1.995 . S
N1331 C1332 1.376 . S
N1331 C1335 1.383 . S
C1332 N1331 1.376 . S
C1332 C1333 1.446 . S
C1332 C1362 1.391 . S
C1333 C1332 1.446 . S
C1333 C1334 1.339 . S
C1333 H1368 0.949 . S
C1334 C1333 1.339 . S
C1334 C1335 1.439 . S
C1334 H1369 0.950 . S
C1335 N1331 1.383 . S
C1335 C1334 1.439 . S
C1335 C1364 1.392 . S
N1336 Co1330 2.008 . S
N1336 C1337 1.376 . S
N1336 C1340 1.374 . S
C1337 N1336 1.376 . S
C1337 C1338 1.443 . S
C1337 C1364 1.389 . S
C1338 C1337 1.443 . S
C1338 C1339 1.340 . S
C1338 H1370 0.951 . S
C1339 C1338 1.340 . S
C1339 C1340 1.439 . S
C1339 H1371 0.950 . S
C1340 N1336 1.374 . S
C1340 C1339 1.439 . S
C1340 C1365 1.395 . S
N1341 Co1330 1.995 . S
N1341 C1342 1.376 . S
N1341 C1345 1.383 . S
C1342 N1341 1.376 . S
C1342 C1343 1.446 . S
C1342 C1365 1.391 . S
C1343 C1342 1.446 . S
C1343 C1344 1.339 . S
C1343 H1372 0.949 . S
C1344 C1343 1.339 . S
C1344 C1345 1.439 . S
C1344 H1373 0.950 . S
C1345 N1341 1.383 . S
C1345 C1344 1.439 . S
C1345 C1363 1.392 . S
N1346 Co1330 2.282 . S
N1346 C1349 1.332 . S
N1346 C1351 1.332 . S
C1347 C1348 1.386 . S
C1347 C1350 1.388 . S
C1348 C1347 1.386 . S
C1348 C1349 1.382 . S
C1348 H1374 0.950 . S
C1349 N1346 1.332 . S
C1349 C1348 1.382 . S
C1349 H1360 0.952 . S
C1350 C1347 1.388 . S
C1350 C1351 1.382 . S
C1350 H1375 0.950 . S
C1351 N1346 1.332 . S
C1351 C1350 1.382 . S
C1351 H1361 0.948 . S
N1352 Co1330 2.282 . S
N1352 C1356 1.332 . S
N1352 C1357 1.332 . S
C1353 C1354 1.388 . S
C1353 C1357 1.382 . S
C1353 H1376 0.950 . S
C1354 C1353 1.388 . S
C1354 C1355 1.386 . S
C1355 C1354 1.386 . S
C1355 C1356 1.382 . S
C1355 H1377 0.950 . S
C1356 N1352 1.332 . S
C1356 C1355 1.382 . S
C1356 H1358 0.952 . S
C1357 N1352 1.332 . S
C1357 C1353 1.382 . S
C1357 H1359 0.948 . S
H1358 C1356 0.952 . S
H1359 C1357 0.948 . S
H1360 C1349 0.952 . S
H1361 C1351 0.948 . S
C1362 C1328 1.395 . S
C1362 C1332 1.391 . S
C1363 C1325 1.389 . S
C1363 C1345 1.392 . S
C1364 C1335 1.392 . S
C1364 C1337 1.389 . S
C1365 C1340 1.395 . S
C1365 C1342 1.391 . S
H1366 C1326 0.951 . S
H1367 C1327 0.950 . S
H1368 C1333 0.949 . S
H1369 C1334 0.950 . S
H1370 C1338 0.951 . S
H1371 C1339 0.950 . S
H1372 C1343 0.949 . S
H1373 C1344 0.950 . S
H1374 C1348 0.950 . S
H1375 C1350 0.950 . S
H1376 C1353 0.950 . S
H1377 C1355 0.950 . S
C1378 C1379 1.443 . S
C1378 N1382 1.376 . S
C1378 C1416 1.389 . S
C1379 C1378 1.443 . S
C1379 C1380 1.340 . S
C1379 H1419 0.951 . S
C1380 C1379 1.340 . S
C1380 C1381 1.439 . S
C1380 H1420 0.950 . S
C1381 C1380 1.439 . S
C1381 N1382 1.374 . S
C1381 C1415 1.395 . S
N1382 C1378 1.376 . S
N1382 C1381 1.374 . S
N1382 Co1383 2.008 . S
Co1383 N1382 2.008 . S
Co1383 N1384 1.995 . S
Co1383 N1389 2.008 . S
Co1383 N1394 1.995 . S
Co1383 N1399 2.282 . S
Co1383 N1405 2.282 . S
N1384 Co1383 1.995 . S
N1384 C1385 1.376 . S
N1384 C1388 1.383 . S
C1385 N1384 1.376 . S
C1385 C1386 1.446 . S
C1385 C1415 1.391 . S
C1386 C1385 1.446 . S
C1386 C1387 1.339 . S
C1386 H1421 0.949 . S
C1387 C1386 1.339 . S
C1387 C1388 1.439 . S
C1387 H1422 0.950 . S
C1388 N1384 1.383 . S
C1388 C1387 1.439 . S
C1388 C1417 1.392 . S
N1389 Co1383 2.008 . S
N1389 C1390 1.376 . S
N1389 C1393 1.374 . S
C1390 N1389 1.376 . S
C1390 C1391 1.443 . S
C1390 C1417 1.389 . S
C1391 C1390 1.443 . S
C1391 C1392 1.340 . S
C1391 H1423 0.951 . S
C1392 C1391 1.340 . S
C1392 C1393 1.439 . S
C1392 H1424 0.950 . S
C1393 N1389 1.374 . S
C1393 C1392 1.439 . S
C1393 C1418 1.395 . S
N1394 Co1383 1.995 . S
N1394 C1395 1.376 . S
N1394 C1398 1.383 . S
C1395 N1394 1.376 . S
C1395 C1396 1.446 . S
C1395 C1418 1.391 . S
C1396 C1395 1.446 . S
C1396 C1397 1.339 . S
C1396 H1425 0.949 . S
C1397 C1396 1.339 . S
C1397 C1398 1.439 . S
C1397 H1426 0.950 . S
C1398 N1394 1.383 . S
C1398 C1397 1.439 . S
C1398 C1416 1.392 . S
N1399 Co1383 2.282 . S
N1399 C1402 1.332 . S
N1399 C1404 1.332 . S
C1400 C1401 1.386 . S
C1400 C1403 1.388 . S
C1401 C1400 1.386 . S
C1401 C1402 1.382 . S
C1401 H1427 0.950 . S
C1402 N1399 1.332 . S
C1402 C1401 1.382 . S
C1402 H1413 0.952 . S
C1403 C1400 1.388 . S
C1403 C1404 1.382 . S
C1403 H1428 0.950 . S
C1404 N1399 1.332 . S
C1404 C1403 1.382 . S
C1404 H1414 0.948 . S
N1405 Co1383 2.282 . S
N1405 C1409 1.332 . S
N1405 C1410 1.332 . S
C1406 C1407 1.388 . S
C1406 C1410 1.382 . S
C1406 H1429 0.950 . S
C1407 C1406 1.388 . S
C1407 C1408 1.386 . S
C1408 C1407 1.386 . S
C1408 C1409 1.382 . S
C1408 H1430 0.950 . S
C1409 N1405 1.332 . S
C1409 C1408 1.382 . S
C1409 H1411 0.952 . S
C1410 N1405 1.332 . S
C1410 C1406 1.382 . S
C1410 H1412 0.948 . S
H1411 C1409 0.952 . S
H1412 C1410 0.948 . S
H1413 C1402 0.952 . S
H1414 C1404 0.948 . S
C1415 C1381 1.395 . S
C1415 C1385 1.391 . S
C1416 C1378 1.389 . S
C1416 C1398 1.392 . S
C1417 C1388 1.392 . S
C1417 C1390 1.389 . S
C1418 C1393 1.395 . S
C1418 C1395 1.391 . S
H1419 C1379 0.951 . S
H1420 C1380 0.950 . S
H1421 C1386 0.949 . S
H1422 C1387 0.950 . S
H1423 C1391 0.951 . S
H1424 C1392 0.950 . S
H1425 C1396 0.949 . S
H1426 C1397 0.950 . S
H1427 C1401 0.950 . S
H1428 C1403 0.950 . S
H1429 C1406 0.950 . S
H1430 C1408 0.950 . S
C1431 C1432 1.443 . S
C1431 N1435 1.376 . S
C1431 C1469 1.389 . S
C1432 C1431 1.443 . S
C1432 C1433 1.340 . S
C1432 H1472 0.951 . S
C1433 C1432 1.340 . S
C1433 C1434 1.439 . S
C1433 H1473 0.950 . S
C1434 C1433 1.439 . S
C1434 N1435 1.374 . S
C1434 C1468 1.395 . S
N1435 C1431 1.376 . S
N1435 C1434 1.374 . S
N1435 Co1436 2.008 . S
Co1436 N1435 2.008 . S
Co1436 N1437 1.995 . S
Co1436 N1442 2.008 . S
Co1436 N1447 1.995 . S
Co1436 N1452 2.282 . S
Co1436 N1458 2.282 . S
N1437 Co1436 1.995 . S
N1437 C1438 1.376 . S
N1437 C1441 1.383 . S
C1438 N1437 1.376 . S
C1438 C1439 1.446 . S
C1438 C1468 1.391 . S
C1439 C1438 1.446 . S
C1439 C1440 1.339 . S
C1439 H1474 0.949 . S
C1440 C1439 1.339 . S
C1440 C1441 1.439 . S
C1440 H1475 0.950 . S
C1441 N1437 1.383 . S
C1441 C1440 1.439 . S
C1441 C1470 1.392 . S
N1442 Co1436 2.008 . S
N1442 C1443 1.376 . S
N1442 C1446 1.374 . S
C1443 N1442 1.376 . S
C1443 C1444 1.443 1_554 S
C1443 C1470 1.389 . S
C1444 C1443 1.443 1_556 S
C1444 C1445 1.340 . S
C1444 H1476 0.951 . S
C1445 C1444 1.340 . S
C1445 C1446 1.439 1_556 S
C1445 H1477 0.950 . S
C1446 N1442 1.374 . S
C1446 C1445 1.439 1_554 S
C1446 C1471 1.394 1_554 S
N1447 Co1436 1.995 . S
N1447 C1448 1.376 . S
N1447 C1451 1.383 . S
C1448 N1447 1.376 . S
C1448 C1449 1.446 . S
C1448 C1471 1.385 1_554 S
C1449 C1448 1.446 . S
C1449 C1450 1.339 . S
C1449 H1478 0.949 . S
C1450 C1449 1.339 . S
C1450 C1451 1.439 . S
C1450 H1479 0.950 . S
C1451 N1447 1.383 . S
C1451 C1450 1.439 . S
C1451 C1469 1.392 . S
N1452 Co1436 2.282 . S
N1452 C1455 1.332 . S
N1452 C1457 1.332 . S
C1453 C1454 1.386 . S
C1453 C1456 1.388 . S
C1454 C1453 1.386 . S
C1454 C1455 1.382 . S
C1454 H1480 0.950 . S
C1455 N1452 1.332 . S
C1455 C1454 1.382 . S
C1455 H1466 0.952 . S
C1456 C1453 1.388 . S
C1456 C1457 1.382 . S
C1456 H1481 0.950 . S
C1457 N1452 1.332 . S
C1457 C1456 1.382 . S
C1457 H1467 0.948 . S
N1458 Co1436 2.282 . S
N1458 C1462 1.332 . S
N1458 C1463 1.332 . S
C1459 C1460 1.388 . S
C1459 C1463 1.382 . S
C1459 H1482 0.950 . S
C1460 C1459 1.388 . S
C1460 C1461 1.386 . S
C1461 C1460 1.386 . S
C1461 C1462 1.382 . S
C1461 H1483 0.950 . S
C1462 N1458 1.332 . S
C1462 C1461 1.382 . S
C1462 H1464 0.952 . S
C1463 N1458 1.332 . S
C1463 C1459 1.382 . S
C1463 H1465 0.948 . S
H1464 C1462 0.952 . S
H1465 C1463 0.948 . S
H1466 C1455 0.952 . S
H1467 C1457 0.948 . S
C1468 C1434 1.395 . S
C1468 C1438 1.391 . S
C1469 C1431 1.389 . S
C1469 C1451 1.392 . S
C1470 C1441 1.392 . S
C1470 C1443 1.389 . S
C1471 C1446 1.394 1_556 S
C1471 C1448 1.385 1_556 S
H1472 C1432 0.951 . S
H1473 C1433 0.950 . S
H1474 C1439 0.949 . S
H1475 C1440 0.950 . S
H1476 C1444 0.951 . S
H1477 C1445 0.950 . S
H1478 C1449 0.949 . S
H1479 C1450 0.950 . S
H1480 C1454 0.950 . S
H1481 C1456 0.950 . S
H1482 C1459 0.950 . S
H1483 C1461 0.950 . S
C1484 C1485 1.443 . S
C1484 N1488 1.376 . S
C1484 C1522 1.389 . S
C1485 C1484 1.443 . S
C1485 C1486 1.340 . S
C1485 H1525 0.951 . S
C1486 C1485 1.340 . S
C1486 C1487 1.439 . S
C1486 H1526 0.950 . S
C1487 C1486 1.439 . S
C1487 N1488 1.374 . S
C1487 C1521 1.395 . S
N1488 C1484 1.376 . S
N1488 C1487 1.374 . S
N1488 Co1489 2.008 . S
Co1489 N1488 2.008 . S
Co1489 N1490 1.995 . S
Co1489 N1495 2.008 . S
Co1489 N1500 1.995 . S
Co1489 N1505 2.282 . S
Co1489 N1511 2.282 . S
N1490 Co1489 1.995 . S
N1490 C1491 1.376 . S
N1490 C1494 1.383 . S
C1491 N1490 1.376 . S
C1491 C1492 1.446 . S
C1491 C1521 1.391 . S
C1492 C1491 1.446 . S
C1492 C1493 1.339 . S
C1492 H1527 0.949 1_554 S
C1493 C1492 1.339 . S
C1493 C1494 1.439 . S
C1493 H1528 0.950 . S
C1494 N1490 1.383 . S
C1494 C1493 1.439 . S
C1494 C1523 1.392 . S
N1495 Co1489 2.008 . S
N1495 C1496 1.376 . S
N1495 C1499 1.374 . S
C1496 N1495 1.376 . S
C1496 C1497 1.443 . S
C1496 C1523 1.389 . S
C1497 C1496 1.443 . S
C1497 C1498 1.340 . S
C1497 H1529 0.951 . S
C1498 C1497 1.340 . S
C1498 C1499 1.439 . S
C1498 H1530 0.950 . S
C1499 N1495 1.374 . S
C1499 C1498 1.439 . S
C1499 C1524 1.395 . S
N1500 Co1489 1.995 . S
N1500 C1501 1.376 . S
N1500 C1504 1.383 . S
C1501 N1500 1.376 . S
C1501 C1502 1.446 . S
C1501 C1524 1.391 . S
C1502 C1501 1.446 . S
C1502 C1503 1.339 . S
C1502 H1531 0.949 . S
C1503 C1502 1.339 . S
C1503 C1504 1.439 . S
C1503 H1532 0.950 . S
C1504 N1500 1.383 . S
C1504 C1503 1.439 . S
C1504 C1522 1.392 . S
N1505 Co1489 2.282 . S
N1505 C1508 1.332 . S
N1505 C1510 1.332 . S
C1506 C1507 1.386 . S
C1506 C1509 1.388 . S
C1507 C1506 1.386 . S
C1507 C1508 1.382 . S
C1507 H1533 0.950 . S
C1508 N1505 1.332 . S
C1508 C1507 1.382 . S
C1508 H1519 0.952 . S
C1509 C1506 1.388 . S
C1509 C1510 1.382 . S
C1509 H1534 0.950 . S
C1510 N1505 1.332 . S
C1510 C1509 1.382 . S
C1510 H1520 0.948 . S
N1511 Co1489 2.282 . S
N1511 C1515 1.332 . S
N1511 C1516 1.332 . S
C1512 C1513 1.388 . S
C1512 C1516 1.382 . S
C1512 H1535 0.950 . S
C1513 C1512 1.388 . S
C1513 C1514 1.386 . S
C1514 C1513 1.386 . S
C1514 C1515 1.382 . S
C1514 H1536 0.950 . S
C1515 N1511 1.332 . S
C1515 C1514 1.382 . S
C1515 H1517 0.952 . S
C1516 N1511 1.332 . S
C1516 C1512 1.382 . S
C1516 H1518 0.948 . S
H1517 C1515 0.952 . S
H1518 C1516 0.948 . S
H1519 C1508 0.952 . S
H1520 C1510 0.948 . S
C1521 C1487 1.395 . S
C1521 C1491 1.391 . S
C1522 C1484 1.389 . S
C1522 C1504 1.392 . S
C1523 C1494 1.392 . S
C1523 C1496 1.389 . S
C1524 C1499 1.395 . S
C1524 C1501 1.391 . S
H1525 C1485 0.951 . S
H1526 C1486 0.950 . S
H1527 C1492 0.949 1_556 S
H1528 C1493 0.950 . S
H1529 C1497 0.951 . S
H1530 C1498 0.950 . S
H1531 C1502 0.949 . S
H1532 C1503 0.950 . S
H1533 C1507 0.950 . S
H1534 C1509 0.950 . S
H1535 C1512 0.950 . S
H1536 C1514 0.950 . S
C1537 C1538 1.443 . S
C1537 N1541 1.376 . S
C1537 C1575 1.389 . S
C1538 C1537 1.443 . S
C1538 C1539 1.340 . S
C1538 H1578 0.951 . S
C1539 C1538 1.340 . S
C1539 C1540 1.439 . S
C1539 H1579 0.950 . S
C1540 C1539 1.439 . S
C1540 N1541 1.374 . S
C1540 C1574 1.395 . S
N1541 C1537 1.376 . S
N1541 C1540 1.374 . S
N1541 Co1542 2.008 . S
Co1542 N1541 2.008 . S
Co1542 N1543 1.995 . S
Co1542 N1548 2.008 . S
Co1542 N1553 1.995 . S
Co1542 N1558 2.282 . S
Co1542 N1564 2.282 . S
N1543 Co1542 1.995 . S
N1543 C1544 1.376 . S
N1543 C1547 1.383 . S
C1544 N1543 1.376 . S
C1544 C1545 1.446 . S
C1544 C1574 1.391 . S
C1545 C1544 1.446 . S
C1545 C1546 1.339 . S
C1545 H1580 0.949 . S
C1546 C1545 1.339 . S
C1546 C1547 1.439 . S
C1546 H1581 0.950 . S
C1547 N1543 1.383 . S
C1547 C1546 1.439 . S
C1547 C1576 1.392 . S
N1548 Co1542 2.008 . S
N1548 C1549 1.376 . S
N1548 C1552 1.374 1_554 S
C1549 N1548 1.376 . S
C1549 C1550 1.443 1_554 S
C1549 C1576 1.389 . S
C1550 C1549 1.443 1_556 S
C1550 C1551 1.340 . S
C1550 H1582 0.951 . S
C1551 C1550 1.340 . S
C1551 C1552 1.439 . S
C1551 H1583 0.950 . S
C1552 N1548 1.374 1_556 S
C1552 C1551 1.439 . S
C1552 C1577 1.395 . S
N1553 Co1542 1.995 . S
N1553 C1554 1.376 . S
N1553 C1557 1.383 . S
C1554 N1553 1.376 . S
C1554 C1555 1.446 . S
C1554 C1577 1.391 1_554 S
C1555 C1554 1.446 . S
C1555 C1556 1.339 . S
C1555 H1584 0.949 1_554 S
C1556 C1555 1.339 . S
C1556 C1557 1.439 . S
C1556 H1585 0.950 . S
C1557 N1553 1.383 . S
C1557 C1556 1.439 . S
C1557 C1575 1.392 . S
N1558 Co1542 2.282 . S
N1558 C1561 1.332 . S
N1558 C1563 1.332 . S
C1559 C1560 1.386 . S
C1559 C1562 1.388 . S
C1560 C1559 1.386 . S
C1560 C1561 1.382 . S
C1560 H1586 0.950 . S
C1561 N1558 1.332 . S
C1561 C1560 1.382 . S
C1561 H1572 0.952 . S
C1562 C1559 1.388 . S
C1562 C1563 1.382 . S
C1562 H1587 0.950 . S
C1563 N1558 1.332 . S
C1563 C1562 1.382 . S
C1563 H1573 0.948 . S
N1564 Co1542 2.282 . S
N1564 C1568 1.332 . S
N1564 C1569 1.332 . S
C1565 C1566 1.388 . S
C1565 C1569 1.382 . S
C1565 H1588 0.950 . S
C1566 C1565 1.388 . S
C1566 C1567 1.386 . S
C1567 C1566 1.386 . S
C1567 C1568 1.382 . S
C1567 H1589 0.950 . S
C1568 N1564 1.332 . S
C1568 C1567 1.382 . S
C1568 H1570 0.952 . S
C1569 N1564 1.332 . S
C1569 C1565 1.382 . S
C1569 H1571 0.948 . S
H1570 C1568 0.952 . S
H1571 C1569 0.948 . S
H1572 C1561 0.952 . S
H1573 C1563 0.948 . S
C1574 C1540 1.395 . S
C1574 C1544 1.391 . S
C1575 C1537 1.389 . S
C1575 C1557 1.392 . S
C1576 C1547 1.392 . S
C1576 C1549 1.389 . S
C1577 C1552 1.395 . S
C1577 C1554 1.391 1_556 S
H1578 C1538 0.951 . S
H1579 C1539 0.950 . S
H1580 C1545 0.949 . S
H1581 C1546 0.950 . S
H1582 C1550 0.951 . S
H1583 C1551 0.950 . S
H1584 C1555 0.949 1_556 S
H1585 C1556 0.950 . S
H1586 C1560 0.950 . S
H1587 C1562 0.950 . S
H1588 C1565 0.950 . S
H1589 C1567 0.950 . S
C1590 C1591 1.443 . S
C1590 N1594 1.376 . S
C1590 C1628 1.389 . S
C1591 C1590 1.443 . S
C1591 C1592 1.340 . S
C1591 H1631 0.951 . S
C1592 C1591 1.340 . S
C1592 C1593 1.439 . S
C1592 H1632 0.950 . S
C1593 C1592 1.439 . S
C1593 N1594 1.374 . S
C1593 C1627 1.395 . S
N1594 C1590 1.376 . S
N1594 C1593 1.374 . S
N1594 Co1595 2.008 . S
Co1595 N1594 2.008 . S
Co1595 N1596 1.995 . S
Co1595 N1601 2.008 . S
Co1595 N1606 1.995 . S
Co1595 N1611 2.282 . S
Co1595 N1617 2.282 . S
N1596 Co1595 1.995 . S
N1596 C1597 1.376 . S
N1596 C1600 1.383 . S
C1597 N1596 1.376 . S
C1597 C1598 1.446 . S
C1597 C1627 1.391 . S
C1598 C1597 1.446 . S
C1598 C1599 1.339 . S
C1598 H1633 0.949 . S
C1599 C1598 1.339 . S
C1599 C1600 1.439 . S
C1599 H1634 0.950 . S
C1600 N1596 1.383 . S
C1600 C1599 1.439 . S
C1600 C1629 1.392 . S
N1601 Co1595 2.008 . S
N1601 C1602 1.376 . S
N1601 C1605 1.374 . S
C1602 N1601 1.376 . S
C1602 C1603 1.443 . S
C1602 C1629 1.389 . S
C1603 C1602 1.443 . S
C1603 C1604 1.340 . S
C1603 H1635 0.951 . S
C1604 C1603 1.340 . S
C1604 C1605 1.439 . S
C1604 H1636 0.950 . S
C1605 N1601 1.374 . S
C1605 C1604 1.439 . S
C1605 C1630 1.395 . S
N1606 Co1595 1.995 . S
N1606 C1607 1.376 . S
N1606 C1610 1.383 . S
C1607 N1606 1.376 . S
C1607 C1608 1.446 . S
C1607 C1630 1.391 . S
C1608 C1607 1.446 . S
C1608 C1609 1.339 . S
C1608 H1637 0.949 . S
C1609 C1608 1.339 . S
C1609 C1610 1.439 . S
C1609 H1638 0.950 . S
C1610 N1606 1.383 . S
C1610 C1609 1.439 . S
C1610 C1628 1.392 . S
N1611 Co1595 2.282 . S
N1611 C1614 1.332 . S
N1611 C1616 1.332 . S
C1612 C1613 1.386 . S
C1612 C1615 1.388 . S
C1613 C1612 1.386 . S
C1613 C1614 1.382 . S
C1613 H1639 0.950 . S
C1614 N1611 1.332 . S
C1614 C1613 1.382 . S
C1614 H1625 0.952 . S
C1615 C1612 1.388 . S
C1615 C1616 1.382 . S
C1615 H1640 0.950 . S
C1616 N1611 1.332 . S
C1616 C1615 1.382 . S
C1616 H1626 0.948 . S
N1617 Co1595 2.282 . S
N1617 C1621 1.332 . S
N1617 C1622 1.332 . S
C1618 C1619 1.388 . S
C1618 C1622 1.382 . S
C1618 H1641 0.950 . S
C1619 C1618 1.388 . S
C1619 C1620 1.386 . S
C1620 C1619 1.386 . S
C1620 C1621 1.382 . S
C1620 H1642 0.950 . S
C1621 N1617 1.332 . S
C1621 C1620 1.382 . S
C1621 H1623 0.952 . S
C1622 N1617 1.332 . S
C1622 C1618 1.382 . S
C1622 H1624 0.948 . S
H1623 C1621 0.952 . S
H1624 C1622 0.948 . S
H1625 C1614 0.952 . S
H1626 C1616 0.948 . S
C1627 C1593 1.395 . S
C1627 C1597 1.391 . S
C1628 C1590 1.389 . S
C1628 C1610 1.392 . S
C1629 C1600 1.392 . S
C1629 C1602 1.389 . S
C1630 C1605 1.395 . S
C1630 C1607 1.391 . S
H1631 C1591 0.951 . S
H1632 C1592 0.950 . S
H1633 C1598 0.949 . S
H1634 C1599 0.950 . S
H1635 C1603 0.951 . S
H1636 C1604 0.950 . S
H1637 C1608 0.949 . S
H1638 C1609 0.950 . S
H1639 C1613 0.950 . S
H1640 C1615 0.950 . S
H1641 C1618 0.950 . S
H1642 C1620 0.950 . S
C1643 C1644 1.443 . S
C1643 N1647 1.376 . S
C1643 C1681 1.389 . S
C1644 C1643 1.443 . S
C1644 C1645 1.340 . S
C1644 H1684 0.951 . S
C1645 C1644 1.340 . S
C1645 C1646 1.439 . S
C1645 H1685 0.950 . S
C1646 C1645 1.439 . S
C1646 N1647 1.374 . S
C1646 C1680 1.395 . S
N1647 C1643 1.376 . S
N1647 C1646 1.374 . S
N1647 Co1648 2.008 . S
Co1648 N1647 2.008 . S
Co1648 N1649 1.995 . S
Co1648 N1654 2.008 . S
Co1648 N1659 1.995 . S
Co1648 N1664 2.282 . S
Co1648 N1670 2.282 . S
N1649 Co1648 1.995 . S
N1649 C1650 1.376 . S
N1649 C1653 1.383 . S
C1650 N1649 1.376 . S
C1650 C1651 1.446 . S
C1650 C1680 1.391 . S
C1651 C1650 1.446 . S
C1651 C1652 1.339 . S
C1651 H1686 0.949 . S
C1652 C1651 1.339 . S
C1652 C1653 1.439 . S
C1652 H1687 0.950 . S
C1653 N1649 1.383 . S
C1653 C1652 1.439 . S
C1653 C1682 1.392 . S
N1654 Co1648 2.008 . S
N1654 C1655 1.376 . S
N1654 C1658 1.374 . S
C1655 N1654 1.376 . S
C1655 C1656 1.443 . S
C1655 C1682 1.389 . S
C1656 C1655 1.443 . S
C1656 C1657 1.340 . S
C1656 H1688 0.951 . S
C1657 C1656 1.340 . S
C1657 C1658 1.439 . S
C1657 H1689 0.950 . S
C1658 N1654 1.374 . S
C1658 C1657 1.439 . S
C1658 C1683 1.395 . S
N1659 Co1648 1.995 . S
N1659 C1660 1.376 . S
N1659 C1663 1.383 . S
C1660 N1659 1.376 . S
C1660 C1661 1.446 . S
C1660 C1683 1.391 . S
C1661 C1660 1.446 . S
C1661 C1662 1.339 . S
C1661 H1690 0.949 . S
C1662 C1661 1.339 . S
C1662 C1663 1.439 . S
C1662 H1691 0.950 . S
C1663 N1659 1.383 . S
C1663 C1662 1.439 . S
C1663 C1681 1.392 . S
N1664 Co1648 2.282 . S
N1664 C1667 1.332 . S
N1664 C1669 1.332 . S
C1665 C1666 1.386 . S
C1665 C1668 1.388 . S
C1666 C1665 1.386 . S
C1666 C1667 1.382 . S
C1666 H1692 0.950 . S
C1667 N1664 1.332 . S
C1667 C1666 1.382 . S
C1667 H1678 0.952 . S
C1668 C1665 1.388 . S
C1668 C1669 1.382 . S
C1668 H1693 0.950 . S
C1669 N1664 1.332 . S
C1669 C1668 1.382 . S
C1669 H1679 0.948 . S
N1670 Co1648 2.282 . S
N1670 C1674 1.332 . S
N1670 C1675 1.332 . S
C1671 C1672 1.388 . S
C1671 C1675 1.382 . S
C1671 H1694 0.950 . S
C1672 C1671 1.388 . S
C1672 C1673 1.386 . S
C1673 C1672 1.386 . S
C1673 C1674 1.382 . S
C1673 H1695 0.950 . S
C1674 N1670 1.332 . S
C1674 C1673 1.382 . S
C1674 H1676 0.952 . S
C1675 N1670 1.332 . S
C1675 C1671 1.382 . S
C1675 H1677 0.948 . S
H1676 C1674 0.952 . S
H1677 C1675 0.948 . S
H1678 C1667 0.952 . S
H1679 C1669 0.948 . S
C1680 C1646 1.395 . S
C1680 C1650 1.391 . S
C1681 C1643 1.389 . S
C1681 C1663 1.392 . S
C1682 C1653 1.392 . S
C1682 C1655 1.389 . S
C1683 C1658 1.395 . S
C1683 C1660 1.391 . S
H1684 C1644 0.951 . S
H1685 C1645 0.950 . S
H1686 C1651 0.949 . S
H1687 C1652 0.950 . S
H1688 C1656 0.951 . S
H1689 C1657 0.950 . S
H1690 C1661 0.949 . S
H1691 C1662 0.950 . S
H1692 C1666 0.950 . S
H1693 C1668 0.950 . S
H1694 C1671 0.950 . S
H1695 C1673 0.950 . S
C1696 C1697 1.443 . S
C1696 N1700 1.376 . S
C1696 C1734 1.389 . S
C1697 C1696 1.443 . S
C1697 C1698 1.340 . S
C1697 H1737 0.951 . S
C1698 C1697 1.340 . S
C1698 C1699 1.439 . S
C1698 H1738 0.950 . S
C1699 C1698 1.439 . S
C1699 N1700 1.374 . S
C1699 C1733 1.395 . S
N1700 C1696 1.376 . S
N1700 C1699 1.374 . S
N1700 Co1701 2.008 . S
Co1701 N1700 2.008 . S
Co1701 N1702 1.995 . S
Co1701 N1707 2.008 . S
Co1701 N1712 1.995 . S
Co1701 N1717 2.282 . S
Co1701 N1723 2.282 . S
N1702 Co1701 1.995 . S
N1702 C1703 1.376 . S
N1702 C1706 1.383 . S
C1703 N1702 1.376 . S
C1703 C1704 1.446 . S
C1703 C1733 1.391 . S
C1704 C1703 1.446 . S
C1704 C1705 1.339 . S
C1704 H1739 0.949 . S
C1705 C1704 1.339 . S
C1705 C1706 1.439 . S
C1705 H1740 0.950 . S
C1706 N1702 1.383 . S
C1706 C1705 1.439 . S
C1706 C1735 1.392 . S
N1707 Co1701 2.008 . S
N1707 C1708 1.376 . S
N1707 C1711 1.374 . S
C1708 N1707 1.376 . S
C1708 C1709 1.443 . S
C1708 C1735 1.389 . S
C1709 C1708 1.443 . S
C1709 C1710 1.340 . S
C1709 H1741 0.951 . S
C1710 C1709 1.340 . S
C1710 C1711 1.439 . S
C1710 H1742 0.950 . S
C1711 N1707 1.374 . S
C1711 C1710 1.439 . S
C1711 C1736 1.395 . S
N1712 Co1701 1.995 . S
N1712 C1713 1.376 . S
N1712 C1716 1.383 . S
C1713 N1712 1.376 . S
C1713 C1714 1.446 . S
C1713 C1736 1.391 . S
C1714 C1713 1.446 . S
C1714 C1715 1.339 . S
C1714 H1743 0.949 . S
C1715 C1714 1.339 . S
C1715 C1716 1.439 . S
C1715 H1744 0.950 . S
C1716 N1712 1.383 . S
C1716 C1715 1.439 . S
C1716 C1734 1.392 . S
N1717 Co1701 2.282 . S
N1717 C1720 1.332 . S
N1717 C1722 1.332 . S
C1718 C1719 1.386 . S
C1718 C1721 1.388 . S
C1719 C1718 1.386 . S
C1719 C1720 1.382 . S
C1719 H1745 0.950 . S
C1720 N1717 1.332 . S
C1720 C1719 1.382 . S
C1720 H1731 0.952 . S
C1721 C1718 1.388 . S
C1721 C1722 1.382 . S
C1721 H1746 0.950 . S
C1722 N1717 1.332 . S
C1722 C1721 1.382 . S
C1722 H1732 0.948 . S
N1723 Co1701 2.282 . S
N1723 C1727 1.332 . S
N1723 C1728 1.332 . S
C1724 C1725 1.388 . S
C1724 C1728 1.382 . S
C1724 H1747 0.950 . S
C1725 C1724 1.388 . S
C1725 C1726 1.386 . S
C1726 C1725 1.386 . S
C1726 C1727 1.382 . S
C1726 H1748 0.950 . S
C1727 N1723 1.332 . S
C1727 C1726 1.382 . S
C1727 H1729 0.952 . S
C1728 N1723 1.332 . S
C1728 C1724 1.382 . S
C1728 H1730 0.948 . S
H1729 C1727 0.952 . S
H1730 C1728 0.948 . S
H1731 C1720 0.952 . S
H1732 C1722 0.948 . S
C1733 C1699 1.395 . S
C1733 C1703 1.391 . S
C1734 C1696 1.389 . S
C1734 C1716 1.392 . S
C1735 C1706 1.392 . S
C1735 C1708 1.389 . S
C1736 C1711 1.395 . S
C1736 C1713 1.391 . S
H1737 C1697 0.951 . S
H1738 C1698 0.950 . S
H1739 C1704 0.949 . S
H1740 C1705 0.950 . S
H1741 C1709 0.951 . S
H1742 C1710 0.950 . S
H1743 C1714 0.949 . S
H1744 C1715 0.950 . S
H1745 C1719 0.950 . S
H1746 C1721 0.950 . S
H1747 C1724 0.950 . S
H1748 C1726 0.950 . S
C1749 C1750 1.443 . S
C1749 N1753 1.376 . S
C1749 C1787 1.389 . S
C1750 C1749 1.443 . S
C1750 C1751 1.340 . S
C1750 H1790 0.951 . S
C1751 C1750 1.340 . S
C1751 C1752 1.439 . S
C1751 H1791 0.950 . S
C1752 C1751 1.439 . S
C1752 N1753 1.374 . S
C1752 C1786 1.395 . S
N1753 C1749 1.376 . S
N1753 C1752 1.374 . S
N1753 Co1754 2.008 . S
Co1754 N1753 2.008 . S
Co1754 N1755 1.995 . S
Co1754 N1760 2.008 . S
Co1754 N1765 1.995 . S
Co1754 N1770 2.282 . S
Co1754 N1776 2.282 . S
N1755 Co1754 1.995 . S
N1755 C1756 1.376 . S
N1755 C1759 1.383 . S
C1756 N1755 1.376 . S
C1756 C1757 1.446 . S
C1756 C1786 1.391 . S
C1757 C1756 1.446 . S
C1757 C1758 1.339 . S
C1757 H1792 0.949 . S
C1758 C1757 1.339 . S
C1758 C1759 1.439 . S
C1758 H1793 0.950 . S
C1759 N1755 1.383 . S
C1759 C1758 1.439 . S
C1759 C1788 1.392 . S
N1760 Co1754 2.008 . S
N1760 C1761 1.376 . S
N1760 C1764 1.374 . S
C1761 N1760 1.376 . S
C1761 C1762 1.443 . S
C1761 C1788 1.389 . S
C1762 C1761 1.443 . S
C1762 C1763 1.340 . S
C1762 H1794 0.951 . S
C1763 C1762 1.340 . S
C1763 C1764 1.439 . S
C1763 H1795 0.950 . S
C1764 N1760 1.374 . S
C1764 C1763 1.439 . S
C1764 C1789 1.395 . S
N1765 Co1754 1.995 . S
N1765 C1766 1.376 . S
N1765 C1769 1.383 . S
C1766 N1765 1.376 . S
C1766 C1767 1.446 . S
C1766 C1789 1.391 . S
C1767 C1766 1.446 . S
C1767 C1768 1.339 . S
C1767 H1796 0.949 . S
C1768 C1767 1.339 . S
C1768 C1769 1.439 . S
C1768 H1797 0.950 . S
C1769 N1765 1.383 . S
C1769 C1768 1.439 . S
C1769 C1787 1.392 . S
N1770 Co1754 2.282 . S
N1770 C1773 1.332 . S
N1770 C1775 1.332 . S
C1771 C1772 1.386 . S
C1771 C1774 1.388 . S
C1772 C1771 1.386 . S
C1772 C1773 1.382 . S
C1772 H1798 0.950 . S
C1773 N1770 1.332 . S
C1773 C1772 1.382 . S
C1773 H1784 0.952 . S
C1774 C1771 1.388 . S
C1774 C1775 1.382 . S
C1774 H1799 0.950 . S
C1775 N1770 1.332 . S
C1775 C1774 1.382 . S
C1775 H1785 0.948 . S
N1776 Co1754 2.282 . S
N1776 C1780 1.332 . S
N1776 C1781 1.332 . S
C1777 C1778 1.388 . S
C1777 C1781 1.382 . S
C1777 H1800 0.950 . S
C1778 C1777 1.388 . S
C1778 C1779 1.386 . S
C1779 C1778 1.386 . S
C1779 C1780 1.382 . S
C1779 H1801 0.950 . S
C1780 N1776 1.332 . S
C1780 C1779 1.382 . S
C1780 H1782 0.952 . S
C1781 N1776 1.332 . S
C1781 C1777 1.382 . S
C1781 H1783 0.948 . S
H1782 C1780 0.952 . S
H1783 C1781 0.948 . S
H1784 C1773 0.952 . S
H1785 C1775 0.948 . S
C1786 C1752 1.395 . S
C1786 C1756 1.391 . S
C1787 C1749 1.389 . S
C1787 C1769 1.392 . S
C1788 C1759 1.392 . S
C1788 C1761 1.389 . S
C1789 C1764 1.395 . S
C1789 C1766 1.391 . S
H1790 C1750 0.951 . S
H1791 C1751 0.950 . S
H1792 C1757 0.949 . S
H1793 C1758 0.950 . S
H1794 C1762 0.951 . S
H1795 C1763 0.950 . S
H1796 C1767 0.949 . S
H1797 C1768 0.950 . S
H1798 C1772 0.950 . S
H1799 C1774 0.950 . S
H1800 C1777 0.950 . S
H1801 C1779 0.950 . S
C1802 C1803 1.443 . S
C1802 N1806 1.376 . S
C1802 C1840 1.389 . S
C1803 C1802 1.443 . S
C1803 C1804 1.340 . S
C1803 H1843 0.951 . S
C1804 C1803 1.340 . S
C1804 C1805 1.439 . S
C1804 H1844 0.950 . S
C1805 C1804 1.439 . S
C1805 N1806 1.374 . S
C1805 C1839 1.395 . S
N1806 C1802 1.376 . S
N1806 C1805 1.374 . S
N1806 Co1807 2.008 . S
Co1807 N1806 2.008 . S
Co1807 N1808 1.995 . S
Co1807 N1813 2.008 . S
Co1807 N1818 1.995 . S
Co1807 N1823 2.282 . S
Co1807 N1829 2.282 . S
N1808 Co1807 1.995 . S
N1808 C1809 1.376 . S
N1808 C1812 1.383 . S
C1809 N1808 1.376 . S
C1809 C1810 1.446 . S
C1809 C1839 1.391 . S
C1810 C1809 1.446 . S
C1810 C1811 1.339 . S
C1810 H1845 0.949 . S
C1811 C1810 1.339 . S
C1811 C1812 1.439 . S
C1811 H1846 0.950 . S
C1812 N1808 1.383 . S
C1812 C1811 1.439 . S
C1812 C1841 1.392 . S
N1813 Co1807 2.008 . S
N1813 C1814 1.376 . S
N1813 C1817 1.374 . S
C1814 N1813 1.376 . S
C1814 C1815 1.443 . S
C1814 C1841 1.389 . S
C1815 C1814 1.443 . S
C1815 C1816 1.340 . S
C1815 H1847 0.951 . S
C1816 C1815 1.340 . S
C1816 C1817 1.439 . S
C1816 H1848 0.950 . S
C1817 N1813 1.374 . S
C1817 C1816 1.439 . S
C1817 C1842 1.395 . S
N1818 Co1807 1.995 . S
N1818 C1819 1.376 . S
N1818 C1822 1.383 . S
C1819 N1818 1.376 . S
C1819 C1820 1.446 . S
C1819 C1842 1.391 . S
C1820 C1819 1.446 . S
C1820 C1821 1.339 . S
C1820 H1849 0.949 . S
C1821 C1820 1.339 . S
C1821 C1822 1.439 . S
C1821 H1850 0.950 . S
C1822 N1818 1.383 . S
C1822 C1821 1.439 . S
C1822 C1840 1.392 . S
N1823 Co1807 2.282 . S
N1823 C1826 1.332 . S
N1823 C1828 1.332 . S
C1824 C1825 1.386 . S
C1824 C1827 1.388 . S
C1825 C1824 1.386 . S
C1825 C1826 1.382 . S
C1825 H1851 0.950 . S
C1826 N1823 1.332 . S
C1826 C1825 1.382 . S
C1826 H1837 0.952 . S
C1827 C1824 1.388 . S
C1827 C1828 1.382 . S
C1827 H1852 0.950 . S
C1828 N1823 1.332 . S
C1828 C1827 1.382 . S
C1828 H1838 0.948 . S
N1829 Co1807 2.282 . S
N1829 C1833 1.332 . S
N1829 C1834 1.332 . S
C1830 C1831 1.388 . S
C1830 C1834 1.382 . S
C1830 H1853 0.950 . S
C1831 C1830 1.388 . S
C1831 C1832 1.386 . S
C1832 C1831 1.386 . S
C1832 C1833 1.382 . S
C1832 H1854 0.950 . S
C1833 N1829 1.332 . S
C1833 C1832 1.382 . S
C1833 H1835 0.952 . S
C1834 N1829 1.332 . S
C1834 C1830 1.382 . S
C1834 H1836 0.948 . S
H1835 C1833 0.952 . S
H1836 C1834 0.948 . S
H1837 C1826 0.952 . S
H1838 C1828 0.948 . S
C1839 C1805 1.395 . S
C1839 C1809 1.391 . S
C1840 C1802 1.389 . S
C1840 C1822 1.392 . S
C1841 C1812 1.392 . S
C1841 C1814 1.389 . S
C1842 C1817 1.395 . S
C1842 C1819 1.391 . S
H1843 C1803 0.951 . S
H1844 C1804 0.950 . S
H1845 C1810 0.949 . S
H1846 C1811 0.950 . S
H1847 C1815 0.951 . S
H1848 C1816 0.950 . S
H1849 C1820 0.949 . S
H1850 C1821 0.950 . S
H1851 C1825 0.950 . S
H1852 C1827 0.950 . S
H1853 C1830 0.950 . S
H1854 C1832 0.950 . S
C1855 C1856 1.443 . S
C1855 N1859 1.376 . S
C1855 C1893 1.389 . S
C1856 C1855 1.443 . S
C1856 C1857 1.340 . S
C1856 H1896 0.951 . S
C1857 C1856 1.340 . S
C1857 C1858 1.439 . S
C1857 H1897 0.950 . S
C1858 C1857 1.439 . S
C1858 N1859 1.374 . S
C1858 C1892 1.395 . S
N1859 C1855 1.376 . S
N1859 C1858 1.374 . S
N1859 Co1860 2.008 . S
Co1860 N1859 2.008 . S
Co1860 N1861 1.995 . S
Co1860 N1866 2.008 . S
Co1860 N1871 1.995 . S
Co1860 N1876 2.282 . S
Co1860 N1882 2.282 . S
N1861 Co1860 1.995 . S
N1861 C1862 1.376 . S
N1861 C1865 1.383 . S
C1862 N1861 1.376 . S
C1862 C1863 1.446 . S
C1862 C1892 1.391 . S
C1863 C1862 1.446 . S
C1863 C1864 1.339 . S
C1863 H1898 0.949 . S
C1864 C1863 1.339 . S
C1864 C1865 1.439 . S
C1864 H1899 0.950 . S
C1865 N1861 1.383 . S
C1865 C1864 1.439 . S
C1865 C1894 1.392 . S
N1866 Co1860 2.008 . S
N1866 C1867 1.376 . S
N1866 C1870 1.374 . S
C1867 N1866 1.376 . S
C1867 C1868 1.443 . S
C1867 C1894 1.389 . S
C1868 C1867 1.443 . S
C1868 C1869 1.340 . S
C1868 H1900 0.951 . S
C1869 C1868 1.340 . S
C1869 C1870 1.439 . S
C1869 H1901 0.950 . S
C1870 N1866 1.374 . S
C1870 C1869 1.439 . S
C1870 C1895 1.395 . S
N1871 Co1860 1.995 . S
N1871 C1872 1.376 . S
N1871 C1875 1.383 . S
C1872 N1871 1.376 . S
C1872 C1873 1.446 . S
C1872 C1895 1.391 . S
C1873 C1872 1.446 . S
C1873 C1874 1.339 . S
C1873 H1902 0.949 . S
C1874 C1873 1.339 . S
C1874 C1875 1.439 . S
C1874 H1903 0.950 . S
C1875 N1871 1.383 . S
C1875 C1874 1.439 . S
C1875 C1893 1.392 . S
N1876 Co1860 2.282 . S
N1876 C1879 1.332 . S
N1876 C1881 1.332 . S
C1877 C1878 1.386 . S
C1877 C1880 1.388 . S
C1878 C1877 1.386 . S
C1878 C1879 1.382 . S
C1878 H1904 0.950 . S
C1879 N1876 1.332 . S
C1879 C1878 1.382 . S
C1879 H1890 0.952 . S
C1880 C1877 1.388 . S
C1880 C1881 1.382 . S
C1880 H1905 0.950 . S
C1881 N1876 1.332 . S
C1881 C1880 1.382 . S
C1881 H1891 0.948 . S
N1882 Co1860 2.282 . S
N1882 C1886 1.332 . S
N1882 C1887 1.332 . S
C1883 C1884 1.388 . S
C1883 C1887 1.382 . S
C1883 H1906 0.950 . S
C1884 C1883 1.388 . S
C1884 C1885 1.386 . S
C1885 C1884 1.386 . S
C1885 C1886 1.382 . S
C1885 H1907 0.950 . S
C1886 N1882 1.332 . S
C1886 C1885 1.382 . S
C1886 H1888 0.952 . S
C1887 N1882 1.332 . S
C1887 C1883 1.382 . S
C1887 H1889 0.948 . S
H1888 C1886 0.952 . S
H1889 C1887 0.948 . S
H1890 C1879 0.952 . S
H1891 C1881 0.948 . S
C1892 C1858 1.395 . S
C1892 C1862 1.391 . S
C1893 C1855 1.389 . S
C1893 C1875 1.392 . S
C1894 C1865 1.392 . S
C1894 C1867 1.389 . S
C1895 C1870 1.395 . S
C1895 C1872 1.391 . S
H1896 C1856 0.951 . S
H1897 C1857 0.950 . S
H1898 C1863 0.949 . S
H1899 C1864 0.950 . S
H1900 C1868 0.951 . S
H1901 C1869 0.950 . S
H1902 C1873 0.949 . S
H1903 C1874 0.950 . S
H1904 C1878 0.950 . S
H1905 C1880 0.950 . S
H1906 C1883 0.950 . S
H1907 C1885 0.950 . S
C1908 C1909 1.349 . S
C1908 C1910 1.327 . S
C1908 H1933 0.950 . S
C1909 C1908 1.349 . S
C1909 C1925 1.349 . S
C1910 C1908 1.327 . S
C1910 C1929 1.429 . S
C1910 H1934 0.950 . S
C1911 C1928 1.574 . S
C1911 C1930 1.368 . S
C1911 H1935 0.949 . S
H1912 C1916 0.949 . S
C1913 C1914 1.349 . S
C1913 C1915 1.327 . S
C1913 H1936 0.950 . S
C1914 C1913 1.349 . S
C1914 C1926 1.349 . S
C1915 C1913 1.327 . S
C1915 C1931 1.429 . S
C1915 H1937 0.950 . S
C1916 H1912 0.949 . S
C1916 C1924 1.574 . S
C1916 C1932 1.368 . S
H1917 C1925 0.950 . S
H1918 C1923 0.950 . S
H1919 C1924 0.949 . S
H1920 C1926 0.950 . S
H1921 C1927 0.950 . S
H1922 C1928 0.949 . S
C1923 H1918 0.950 . S
C1923 C1925 1.327 . S
C1923 C1929 1.429 . S
C1924 C1916 1.574 . S
C1924 H1919 0.949 . S
C1924 C1930 1.368 . S
C1925 C1909 1.349 . S
C1925 H1917 0.950 . S
C1925 C1923 1.327 . S
C1926 C1914 1.349 . S
C1926 H1920 0.950 . S
C1926 C1927 1.327 . S
C1927 H1921 0.950 . S
C1927 C1926 1.327 . S
C1927 C1931 1.429 . S
C1928 C1911 1.574 . S
C1928 H1922 0.949 . S
C1928 C1932 1.368 . S
C1929 C1910 1.429 . S
C1929 C1923 1.429 . S
C1929 C1930 1.523 . S
C1930 C1911 1.368 . S
C1930 C1924 1.368 . S
C1930 C1929 1.523 . S
C1931 C1915 1.429 . S
C1931 C1927 1.429 . S
C1931 C1932 1.523 . S
C1932 C1916 1.368 . S
C1932 C1928 1.368 . S
C1932 C1931 1.523 . S
H1933 C1908 0.950 . S
H1934 C1910 0.950 . S
H1935 C1911 0.949 . S
H1936 C1913 0.950 . S
H1937 C1915 0.950 . S
C1938 C1939 1.349 . S
C1938 C1940 1.327 . S
C1938 H1963 0.950 . S
C1939 C1938 1.349 . S
C1939 C1955 1.349 . S
C1940 C1938 1.327 . S
C1940 C1959 1.429 . S
C1940 H1964 0.950 . S
C1941 C1958 1.574 . S
C1941 C1960 1.368 . S
C1941 H1965 0.949 . S
H1942 C1946 0.949 . S
C1943 C1944 1.349 . S
C1943 C1945 1.327 . S
C1943 H1966 0.950 . S
C1944 C1943 1.349 . S
C1944 C1956 1.349 . S
C1945 C1943 1.327 . S
C1945 C1961 1.429 . S
C1945 H1967 0.950 . S
C1946 H1942 0.949 . S
C1946 C1954 1.574 . S
C1946 C1962 1.368 . S
H1947 C1955 0.950 . S
H1948 C1953 0.950 . S
H1949 C1954 0.949 . S
H1950 C1956 0.950 . S
H1951 C1957 0.950 . S
H1952 C1958 0.949 . S
C1953 H1948 0.950 . S
C1953 C1955 1.327 . S
C1953 C1959 1.429 . S
C1954 C1946 1.574 . S
C1954 H1949 0.949 . S
C1954 C1960 1.368 . S
C1955 C1939 1.349 . S
C1955 H1947 0.950 . S
C1955 C1953 1.327 . S
C1956 C1944 1.349 . S
C1956 H1950 0.950 . S
C1956 C1957 1.327 . S
C1957 H1951 0.950 . S
C1957 C1956 1.327 . S
C1957 C1961 1.429 . S
C1958 C1941 1.574 . S
C1958 H1952 0.949 . S
C1958 C1962 1.368 . S
C1959 C1940 1.429 . S
C1959 C1953 1.429 . S
C1959 C1960 1.523 . S
C1960 C1941 1.368 . S
C1960 C1954 1.368 . S
C1960 C1959 1.523 . S
C1961 C1945 1.429 . S
C1961 C1957 1.429 . S
C1961 C1962 1.523 . S
C1962 C1946 1.368 . S
C1962 C1958 1.368 . S
C1962 C1961 1.523 . S
H1963 C1938 0.950 . S
H1964 C1940 0.950 . S
H1965 C1941 0.949 . S
H1966 C1943 0.950 . S
H1967 C1945 0.950 . S
C1968 C1969 1.349 . S
C1968 C1970 1.327 . S
C1968 H1993 0.950 . S
C1969 C1968 1.349 . S
C1969 C1985 1.349 . S
C1970 C1968 1.327 . S
C1970 C1989 1.429 . S
C1970 H1994 0.950 . S
C1971 C1988 1.574 . S
C1971 C1990 1.368 . S
C1971 H1995 0.949 . S
H1972 C1976 0.949 . S
C1973 C1974 1.349 . S
C1973 C1975 1.327 . S
C1973 H1996 0.950 . S
C1974 C1973 1.349 . S
C1974 C1986 1.349 . S
C1975 C1973 1.327 . S
C1975 C1991 1.429 . S
C1975 H1997 0.950 . S
C1976 H1972 0.949 . S
C1976 C1984 1.574 . S
C1976 C1992 1.368 . S
H1977 C1985 0.950 . S
H1978 C1983 0.950 . S
H1979 C1984 0.949 . S
H1980 C1986 0.950 . S
H1981 C1987 0.950 . S
H1982 C1988 0.949 . S
C1983 H1978 0.950 . S
C1983 C1985 1.327 . S
C1983 C1989 1.429 . S
C1984 C1976 1.574 . S
C1984 H1979 0.949 . S
C1984 C1990 1.368 . S
C1985 C1969 1.349 . S
C1985 H1977 0.950 . S
C1985 C1983 1.327 . S
C1986 C1974 1.349 . S
C1986 H1980 0.950 . S
C1986 C1987 1.327 . S
C1987 H1981 0.950 . S
C1987 C1986 1.327 . S
C1987 C1991 1.429 . S
C1988 C1971 1.574 . S
C1988 H1982 0.949 . S
C1988 C1992 1.368 . S
C1989 C1970 1.429 . S
C1989 C1983 1.429 . S
C1989 C1990 1.523 . S
C1990 C1971 1.368 . S
C1990 C1984 1.368 . S
C1990 C1989 1.523 . S
C1991 C1975 1.429 . S
C1991 C1987 1.429 . S
C1991 C1992 1.523 . S
C1992 C1976 1.368 . S
C1992 C1988 1.368 . S
C1992 C1991 1.523 . S
H1993 C1968 0.950 . S
H1994 C1970 0.950 . S
H1995 C1971 0.949 . S
H1996 C1973 0.950 . S
H1997 C1975 0.950 . S
C1998 C1999 1.349 . S
C1998 C2000 1.327 . S
C1998 H2023 0.950 . S
C1999 C1998 1.349 . S
C1999 C2015 1.349 . S
C2000 C1998 1.327 . S
C2000 C2019 1.429 . S
C2000 H2024 0.950 . S
C2001 C2018 1.574 . S
C2001 C2020 1.368 . S
C2001 H2025 0.949 . S
H2002 C2006 0.949 . S
C2003 C2004 1.349 . S
C2003 C2005 1.327 . S
C2003 H2026 0.950 . S
C2004 C2003 1.349 . S
C2004 C2016 1.349 . S
C2005 C2003 1.327 . S
C2005 C2021 1.429 . S
C2005 H2027 0.950 . S
C2006 H2002 0.949 . S
C2006 C2014 1.574 . S
C2006 C2022 1.368 . S
H2007 C2015 0.950 . S
H2008 C2013 0.950 . S
H2009 C2014 0.949 . S
H2010 C2016 0.950 . S
H2011 C2017 0.950 . S
H2012 C2018 0.949 . S
C2013 H2008 0.950 . S
C2013 C2015 1.327 . S
C2013 C2019 1.429 . S
C2014 C2006 1.574 . S
C2014 H2009 0.949 . S
C2014 C2020 1.368 . S
C2015 C1999 1.349 . S
C2015 H2007 0.950 . S
C2015 C2013 1.327 . S
C2016 C2004 1.349 . S
C2016 H2010 0.950 . S
C2016 C2017 1.327 . S
C2017 H2011 0.950 . S
C2017 C2016 1.327 . S
C2017 C2021 1.429 . S
C2018 C2001 1.574 . S
C2018 H2012 0.949 . S
C2018 C2022 1.368 . S
C2019 C2000 1.429 . S
C2019 C2013 1.429 . S
C2019 C2020 1.523 . S
C2020 C2001 1.368 . S
C2020 C2014 1.368 . S
C2020 C2019 1.523 . S
C2021 C2005 1.429 . S
C2021 C2017 1.429 . S
C2021 C2022 1.523 . S
C2022 C2006 1.368 . S
C2022 C2018 1.368 . S
C2022 C2021 1.523 . S
H2023 C1998 0.950 . S
H2024 C2000 0.950 . S
H2025 C2001 0.949 . S
H2026 C2003 0.950 . S
H2027 C2005 0.950 . S
C2028 C2029 1.349 . S
C2028 C2030 1.327 . S
C2028 H2053 0.950 . S
C2029 C2028 1.349 . S
C2029 C2045 1.349 . S
C2030 C2028 1.327 . S
C2030 C2049 1.429 . S
C2030 H2054 0.950 . S
C2031 C2048 1.574 . S
C2031 C2050 1.368 . S
C2031 H2055 0.949 . S
H2032 C2036 0.949 . S
C2033 C2034 1.349 . S
C2033 C2035 1.327 . S
C2033 H2056 0.950 . S
C2034 C2033 1.349 . S
C2034 C2046 1.349 . S
C2035 C2033 1.327 . S
C2035 C2051 1.429 . S
C2035 H2057 0.950 . S
C2036 H2032 0.949 . S
C2036 C2044 1.574 . S
C2036 C2052 1.368 . S
H2037 C2045 0.950 . S
H2038 C2043 0.950 . S
H2039 C2044 0.949 . S
H2040 C2046 0.950 . S
H2041 C2047 0.950 . S
H2042 C2048 0.949 . S
C2043 H2038 0.950 . S
C2043 C2045 1.327 . S
C2043 C2049 1.429 . S
C2044 C2036 1.574 . S
C2044 H2039 0.949 . S
C2044 C2050 1.368 . S
C2045 C2029 1.349 . S
C2045 H2037 0.950 . S
C2045 C2043 1.327 . S
C2046 C2034 1.349 . S
C2046 H2040 0.950 . S
C2046 C2047 1.327 . S
C2047 H2041 0.950 . S
C2047 C2046 1.327 . S
C2047 C2051 1.429 . S
C2048 C2031 1.574 . S
C2048 H2042 0.949 . S
C2048 C2052 1.368 . S
C2049 C2030 1.429 . S
C2049 C2043 1.429 . S
C2049 C2050 1.523 . S
C2050 C2031 1.368 . S
C2050 C2044 1.368 . S
C2050 C2049 1.523 . S
C2051 C2035 1.429 . S
C2051 C2047 1.429 . S
C2051 C2052 1.523 . S
C2052 C2036 1.368 . S
C2052 C2048 1.368 . S
C2052 C2051 1.523 . S
H2053 C2028 0.950 . S
H2054 C2030 0.950 . S
H2055 C2031 0.949 . S
H2056 C2033 0.950 . S
H2057 C2035 0.950 . S
C2058 C2059 1.349 . S
C2058 C2060 1.327 . S
C2058 H2083 0.950 . S
C2059 C2058 1.349 . S
C2059 C2075 1.349 . S
C2060 C2058 1.327 . S
C2060 C2079 1.429 . S
C2060 H2084 0.950 . S
C2061 C2078 1.574 . S
C2061 C2080 1.368 . S
C2061 H2085 0.949 . S
H2062 C2066 0.949 . S
C2063 C2064 1.349 . S
C2063 C2065 1.327 . S
C2063 H2086 0.950 . S
C2064 C2063 1.349 . S
C2064 C2076 1.349 . S
C2065 C2063 1.327 . S
C2065 C2081 1.429 . S
C2065 H2087 0.950 . S
C2066 H2062 0.949 . S
C2066 C2074 1.574 . S
C2066 C2082 1.368 . S
H2067 C2075 0.950 . S
H2068 C2073 0.950 . S
H2069 C2074 0.949 . S
H2070 C2076 0.950 . S
H2071 C2077 0.950 . S
H2072 C2078 0.949 . S
C2073 H2068 0.950 . S
C2073 C2075 1.327 . S
C2073 C2079 1.429 . S
C2074 C2066 1.574 . S
C2074 H2069 0.949 . S
C2074 C2080 1.368 . S
C2075 C2059 1.349 . S
C2075 H2067 0.950 . S
C2075 C2073 1.327 . S
C2076 C2064 1.349 . S
C2076 H2070 0.950 . S
C2076 C2077 1.327 . S
C2077 H2071 0.950 . S
C2077 C2076 1.327 . S
C2077 C2081 1.429 . S
C2078 C2061 1.574 . S
C2078 H2072 0.949 . S
C2078 C2082 1.368 . S
C2079 C2060 1.429 . S
C2079 C2073 1.429 . S
C2079 C2080 1.523 . S
C2080 C2061 1.368 . S
C2080 C2074 1.368 . S
C2080 C2079 1.523 . S
C2081 C2065 1.429 . S
C2081 C2077 1.429 . S
C2081 C2082 1.523 . S
C2082 C2066 1.368 . S
C2082 C2078 1.368 . S
C2082 C2081 1.523 . S
H2083 C2058 0.950 . S
H2084 C2060 0.950 . S
H2085 C2061 0.949 . S
H2086 C2063 0.950 . S
H2087 C2065 0.950 . S
C2088 C2089 1.349 . S
C2088 C2090 1.327 . S
C2088 H2113 0.950 . S
C2089 C2088 1.349 . S
C2089 C2105 1.349 . S
C2090 C2088 1.327 . S
C2090 C2109 1.429 . S
C2090 H2114 0.950 . S
C2091 C2108 1.574 . S
C2091 C2110 1.368 . S
C2091 H2115 0.949 . S
H2092 C2096 0.949 . S
C2093 C2094 1.349 . S
C2093 C2095 1.327 . S
C2093 H2116 0.950 . S
C2094 C2093 1.349 . S
C2094 C2106 1.349 . S
C2095 C2093 1.327 . S
C2095 C2111 1.429 . S
C2095 H2117 0.950 . S
C2096 H2092 0.949 . S
C2096 C2104 1.574 . S
C2096 C2112 1.368 . S
H2097 C2105 0.950 . S
H2098 C2103 0.950 . S
H2099 C2104 0.949 . S
H2100 C2106 0.950 . S
H2101 C2107 0.950 . S
H2102 C2108 0.949 . S
C2103 H2098 0.950 . S
C2103 C2105 1.327 . S
C2103 C2109 1.429 . S
C2104 C2096 1.574 . S
C2104 H2099 0.949 . S
C2104 C2110 1.368 . S
C2105 C2089 1.349 . S
C2105 H2097 0.950 . S
C2105 C2103 1.327 . S
C2106 C2094 1.349 . S
C2106 H2100 0.950 . S
C2106 C2107 1.327 . S
C2107 H2101 0.950 . S
C2107 C2106 1.327 . S
C2107 C2111 1.429 . S
C2108 C2091 1.574 . S
C2108 H2102 0.949 . S
C2108 C2112 1.368 . S
C2109 C2090 1.429 . S
C2109 C2103 1.429 . S
C2109 C2110 1.523 . S
C2110 C2091 1.368 . S
C2110 C2104 1.368 . S
C2110 C2109 1.523 . S
C2111 C2095 1.429 . S
C2111 C2107 1.429 . S
C2111 C2112 1.523 . S
C2112 C2096 1.368 . S
C2112 C2108 1.368 . S
C2112 C2111 1.523 . S
H2113 C2088 0.950 . S
H2114 C2090 0.950 . S
H2115 C2091 0.949 . S
H2116 C2093 0.950 . S
H2117 C2095 0.950 . S
C2118 C2119 1.349 . S
C2118 C2120 1.327 . S
C2118 H2143 0.950 . S
C2119 C2118 1.349 . S
C2119 C2135 1.349 . S
C2120 C2118 1.327 . S
C2120 C2139 1.429 . S
C2120 H2144 0.950 . S
C2121 C2138 1.574 . S
C2121 C2140 1.368 . S
C2121 H2145 0.949 . S
H2122 C2126 0.949 . S
C2123 C2124 1.349 . S
C2123 C2125 1.327 . S
C2123 H2146 0.950 . S
C2124 C2123 1.349 . S
C2124 C2136 1.349 . S
C2125 C2123 1.327 . S
C2125 C2141 1.429 . S
C2125 H2147 0.950 . S
C2126 H2122 0.949 . S
C2126 C2134 1.574 . S
C2126 C2142 1.368 . S
H2127 C2135 0.950 . S
H2128 C2133 0.950 . S
H2129 C2134 0.949 . S
H2130 C2136 0.950 . S
H2131 C2137 0.950 . S
H2132 C2138 0.949 . S
C2133 H2128 0.950 . S
C2133 C2135 1.327 . S
C2133 C2139 1.429 . S
C2134 C2126 1.574 . S
C2134 H2129 0.949 . S
C2134 C2140 1.368 . S
C2135 C2119 1.349 . S
C2135 H2127 0.950 . S
C2135 C2133 1.327 . S
C2136 C2124 1.349 . S
C2136 H2130 0.950 . S
C2136 C2137 1.327 . S
C2137 H2131 0.950 . S
C2137 C2136 1.327 . S
C2137 C2141 1.429 . S
C2138 C2121 1.574 . S
C2138 H2132 0.949 . S
C2138 C2142 1.368 . S
C2139 C2120 1.429 . S
C2139 C2133 1.429 . S
C2139 C2140 1.523 . S
C2140 C2121 1.368 . S
C2140 C2134 1.368 . S
C2140 C2139 1.523 . S
C2141 C2125 1.429 . S
C2141 C2137 1.429 . S
C2141 C2142 1.523 . S
C2142 C2126 1.368 . S
C2142 C2138 1.368 . S
C2142 C2141 1.523 . S
H2143 C2118 0.950 . S
H2144 C2120 0.950 . S
H2145 C2121 0.949 . S
H2146 C2123 0.950 . S
H2147 C2125 0.950 . S
C2148 C2149 1.349 . S
C2148 C2150 1.327 . S
C2148 H2173 0.950 . S
C2149 C2148 1.349 . S
C2149 C2165 1.349 . S
C2150 C2148 1.327 . S
C2150 C2169 1.429 . S
C2150 H2174 0.950 . S
C2151 C2168 1.574 . S
C2151 C2170 1.368 . S
C2151 H2175 0.949 . S
H2152 C2156 0.949 . S
C2153 C2154 1.349 . S
C2153 C2155 1.327 . S
C2153 H2176 0.950 . S
C2154 C2153 1.349 . S
C2154 C2166 1.349 . S
C2155 C2153 1.327 . S
C2155 C2171 1.429 . S
C2155 H2177 0.950 . S
C2156 H2152 0.949 . S
C2156 C2164 1.574 . S
C2156 C2172 1.368 . S
H2157 C2165 0.950 . S
H2158 C2163 0.950 . S
H2159 C2164 0.949 . S
H2160 C2166 0.950 . S
H2161 C2167 0.950 . S
H2162 C2168 0.949 . S
C2163 H2158 0.950 . S
C2163 C2165 1.327 . S
C2163 C2169 1.429 . S
C2164 C2156 1.574 . S
C2164 H2159 0.949 . S
C2164 C2170 1.368 . S
C2165 C2149 1.349 . S
C2165 H2157 0.950 . S
C2165 C2163 1.327 . S
C2166 C2154 1.349 . S
C2166 H2160 0.950 . S
C2166 C2167 1.327 . S
C2167 H2161 0.950 . S
C2167 C2166 1.327 . S
C2167 C2171 1.429 . S
C2168 C2151 1.574 . S
C2168 H2162 0.949 . S
C2168 C2172 1.368 . S
C2169 C2150 1.429 . S
C2169 C2163 1.429 . S
C2169 C2170 1.523 . S
C2170 C2151 1.368 . S
C2170 C2164 1.368 . S
C2170 C2169 1.523 . S
C2171 C2155 1.429 . S
C2171 C2167 1.429 . S
C2171 C2172 1.523 . S
C2172 C2156 1.368 . S
C2172 C2168 1.368 . S
C2172 C2171 1.523 . S
H2173 C2148 0.950 . S
H2174 C2150 0.950 . S
H2175 C2151 0.949 . S
H2176 C2153 0.950 . S
H2177 C2155 0.950 . S
C2178 C2179 1.349 . S
C2178 C2180 1.327 . S
C2178 H2203 0.950 . S
C2179 C2178 1.349 . S
C2179 C2195 1.349 . S
C2180 C2178 1.327 . S
C2180 C2199 1.429 . S
C2180 H2204 0.950 . S
C2181 C2198 1.574 . S
C2181 C2200 1.368 . S
C2181 H2205 0.949 . S
H2182 C2186 0.949 . S
C2183 C2184 1.349 . S
C2183 C2185 1.327 . S
C2183 H2206 0.950 . S
C2184 C2183 1.349 . S
C2184 C2196 1.349 . S
C2185 C2183 1.327 . S
C2185 C2201 1.429 . S
C2185 H2207 0.950 . S
C2186 H2182 0.949 . S
C2186 C2194 1.574 . S
C2186 C2202 1.368 . S
H2187 C2195 0.950 . S
H2188 C2193 0.950 . S
H2189 C2194 0.949 . S
H2190 C2196 0.950 . S
H2191 C2197 0.950 . S
H2192 C2198 0.949 . S
C2193 H2188 0.950 . S
C2193 C2195 1.327 . S
C2193 C2199 1.429 . S
C2194 C2186 1.574 . S
C2194 H2189 0.949 . S
C2194 C2200 1.368 . S
C2195 C2179 1.349 . S
C2195 H2187 0.950 . S
C2195 C2193 1.327 . S
C2196 C2184 1.349 . S
C2196 H2190 0.950 . S
C2196 C2197 1.327 . S
C2197 H2191 0.950 . S
C2197 C2196 1.327 . S
C2197 C2201 1.429 . S
C2198 C2181 1.574 . S
C2198 H2192 0.949 . S
C2198 C2202 1.368 . S
C2199 C2180 1.429 . S
C2199 C2193 1.429 . S
C2199 C2200 1.523 . S
C2200 C2181 1.368 . S
C2200 C2194 1.368 . S
C2200 C2199 1.523 . S
C2201 C2185 1.429 . S
C2201 C2197 1.429 . S
C2201 C2202 1.523 . S
C2202 C2186 1.368 . S
C2202 C2198 1.368 . S
C2202 C2201 1.523 . S
H2203 C2178 0.950 . S
H2204 C2180 0.950 . S
H2205 C2181 0.949 . S
H2206 C2183 0.950 . S
H2207 C2185 0.950 . S
C2208 C2209 1.349 . S
C2208 C2210 1.327 . S
C2208 H2233 0.950 . S
C2209 C2208 1.349 . S
C2209 C2225 1.349 . S
C2210 C2208 1.327 . S
C2210 C2229 1.429 . S
C2210 H2234 0.950 . S
C2211 C2228 1.574 . S
C2211 C2230 1.368 . S
C2211 H2235 0.949 . S
H2212 C2216 0.949 . S
C2213 C2214 1.349 . S
C2213 C2215 1.327 . S
C2213 H2236 0.950 . S
C2214 C2213 1.349 . S
C2214 C2226 1.349 . S
C2215 C2213 1.327 . S
C2215 C2231 1.429 . S
C2215 H2237 0.950 . S
C2216 H2212 0.949 . S
C2216 C2224 1.574 . S
C2216 C2232 1.368 . S
H2217 C2225 0.950 . S
H2218 C2223 0.950 . S
H2219 C2224 0.949 . S
H2220 C2226 0.950 . S
H2221 C2227 0.950 . S
H2222 C2228 0.949 . S
C2223 H2218 0.950 . S
C2223 C2225 1.327 . S
C2223 C2229 1.429 . S
C2224 C2216 1.574 . S
C2224 H2219 0.949 . S
C2224 C2230 1.368 . S
C2225 C2209 1.349 . S
C2225 H2217 0.950 . S
C2225 C2223 1.327 . S
C2226 C2214 1.349 . S
C2226 H2220 0.950 . S
C2226 C2227 1.327 . S
C2227 H2221 0.950 . S
C2227 C2226 1.327 . S
C2227 C2231 1.429 . S
C2228 C2211 1.574 . S
C2228 H2222 0.949 . S
C2228 C2232 1.368 . S
C2229 C2210 1.429 . S
C2229 C2223 1.429 . S
C2229 C2230 1.523 . S
C2230 C2211 1.368 . S
C2230 C2224 1.368 . S
C2230 C2229 1.523 . S
C2231 C2215 1.429 . S
C2231 C2227 1.429 . S
C2231 C2232 1.523 . S
C2232 C2216 1.368 . S
C2232 C2228 1.368 . S
C2232 C2231 1.523 . S
H2233 C2208 0.950 . S
H2234 C2210 0.950 . S
H2235 C2211 0.949 . S
H2236 C2213 0.950 . S
H2237 C2215 0.950 . S
C2238 C2239 1.349 . S
C2238 C2240 1.327 . S
C2238 H2263 0.950 . S
C2239 C2238 1.349 . S
C2239 C2255 1.349 . S
C2240 C2238 1.327 . S
C2240 C2259 1.429 . S
C2240 H2264 0.950 . S
C2241 C2258 1.574 . S
C2241 C2260 1.368 . S
C2241 H2265 0.949 . S
H2242 C2246 0.949 . S
C2243 C2244 1.349 . S
C2243 C2245 1.327 . S
C2243 H2266 0.950 . S
C2244 C2243 1.349 . S
C2244 C2256 1.349 . S
C2245 C2243 1.327 . S
C2245 C2261 1.429 . S
C2245 H2267 0.950 . S
C2246 H2242 0.949 . S
C2246 C2254 1.574 . S
C2246 C2262 1.368 . S
H2247 C2255 0.950 . S
H2248 C2253 0.950 . S
H2249 C2254 0.949 . S
H2250 C2256 0.950 . S
H2251 C2257 0.950 . S
H2252 C2258 0.949 . S
C2253 H2248 0.950 . S
C2253 C2255 1.327 . S
C2253 C2259 1.429 . S
C2254 C2246 1.574 . S
C2254 H2249 0.949 . S
C2254 C2260 1.368 . S
C2255 C2239 1.349 . S
C2255 H2247 0.950 . S
C2255 C2253 1.327 . S
C2256 C2244 1.349 . S
C2256 H2250 0.950 . S
C2256 C2257 1.327 . S
C2257 H2251 0.950 . S
C2257 C2256 1.327 . S
C2257 C2261 1.429 . S
C2258 C2241 1.574 . S
C2258 H2252 0.949 . S
C2258 C2262 1.368 . S
C2259 C2240 1.429 . S
C2259 C2253 1.429 . S
C2259 C2260 1.523 . S
C2260 C2241 1.368 . S
C2260 C2254 1.368 . S
C2260 C2259 1.523 . S
C2261 C2245 1.429 . S
C2261 C2257 1.429 . S
C2261 C2262 1.523 . S
C2262 C2246 1.368 . S
C2262 C2258 1.368 . S
C2262 C2261 1.523 . S
H2263 C2238 0.950 . S
H2264 C2240 0.950 . S
H2265 C2241 0.949 . S
H2266 C2243 0.950 . S
H2267 C2245 0.950 . S
C2268 C2269 1.349 . S
C2268 C2270 1.327 . S
C2268 H2293 0.950 . S
C2269 C2268 1.349 . S
C2269 C2285 1.349 . S
C2270 C2268 1.327 . S
C2270 C2289 1.429 . S
C2270 H2294 0.950 . S
C2271 C2288 1.574 . S
C2271 C2290 1.368 1_455 S
C2271 H2295 0.949 . S
H2272 C2276 0.949 . S
C2273 C2274 1.349 . S
C2273 C2275 1.327 . S
C2273 H2296 0.950 . S
C2274 C2273 1.349 . S
C2274 C2286 1.349 . S
C2275 C2273 1.327 . S
C2275 C2291 1.429 . S
C2275 H2297 0.950 . S
C2276 H2272 0.949 . S
C2276 C2284 1.574 . S
C2276 C2292 1.368 1_655 S
H2277 C2285 0.950 . S
H2278 C2283 0.950 . S
H2279 C2284 0.949 . S
H2280 C2286 0.950 . S
H2281 C2287 0.950 . S
H2282 C2288 0.949 . S
C2283 H2278 0.950 . S
C2283 C2285 1.327 . S
C2283 C2289 1.429 . S
C2284 C2276 1.574 . S
C2284 H2279 0.949 . S
C2284 C2290 1.368 . S
C2285 C2269 1.349 . S
C2285 H2277 0.950 . S
C2285 C2283 1.327 . S
C2286 C2274 1.349 . S
C2286 H2280 0.950 . S
C2286 C2287 1.327 . S
C2287 H2281 0.950 . S
C2287 C2286 1.327 . S
C2287 C2291 1.429 . S
C2288 C2271 1.574 . S
C2288 H2282 0.949 . S
C2288 C2292 1.368 . S
C2289 C2270 1.429 . S
C2289 C2283 1.429 . S
C2289 C2290 1.523 . S
C2290 C2271 1.368 1_655 S
C2290 C2284 1.368 . S
C2290 C2289 1.523 . S
C2291 C2275 1.429 . S
C2291 C2287 1.429 . S
C2291 C2292 1.523 . S
C2292 C2276 1.368 1_455 S
C2292 C2288 1.368 . S
C2292 C2291 1.523 . S
H2293 C2268 0.950 . S
H2294 C2270 0.950 . S
H2295 C2271 0.949 . S
H2296 C2273 0.950 . S
H2297 C2275 0.950 . S
C2298 C2299 1.349 . S
C2298 C2300 1.327 . S
C2298 H2323 0.950 . S
C2299 C2298 1.349 . S
C2299 C2315 1.349 . S
C2300 C2298 1.327 . S
C2300 C2319 1.429 . S
C2300 H2324 0.950 . S
C2301 C2318 1.574 . S
C2301 C2320 1.368 . S
C2301 H2325 0.949 . S
H2302 C2306 0.949 . S
C2303 C2304 1.349 . S
C2303 C2305 1.327 . S
C2303 H2326 0.950 . S
C2304 C2303 1.349 . S
C2304 C2316 1.349 . S
C2305 C2303 1.327 . S
C2305 C2321 1.429 . S
C2305 H2327 0.950 . S
C2306 H2302 0.949 . S
C2306 C2314 1.574 . S
C2306 C2322 1.368 . S
H2307 C2315 0.950 . S
H2308 C2313 0.950 . S
H2309 C2314 0.949 . S
H2310 C2316 0.950 . S
H2311 C2317 0.950 . S
H2312 C2318 0.949 . S
C2313 H2308 0.950 . S
C2313 C2315 1.327 . S
C2313 C2319 1.429 . S
C2314 C2306 1.574 . S
C2314 H2309 0.949 . S
C2314 C2320 1.368 . S
C2315 C2299 1.349 . S
C2315 H2307 0.950 . S
C2315 C2313 1.327 . S
C2316 C2304 1.349 . S
C2316 H2310 0.950 . S
C2316 C2317 1.327 . S
C2317 H2311 0.950 . S
C2317 C2316 1.327 . S
C2317 C2321 1.429 . S
C2318 C2301 1.574 . S
C2318 H2312 0.949 . S
C2318 C2322 1.368 . S
C2319 C2300 1.429 . S
C2319 C2313 1.429 . S
C2319 C2320 1.523 . S
C2320 C2301 1.368 . S
C2320 C2314 1.368 . S
C2320 C2319 1.523 . S
C2321 C2305 1.429 . S
C2321 C2317 1.429 . S
C2321 C2322 1.523 . S
C2322 C2306 1.368 . S
C2322 C2318 1.368 . S
C2322 C2321 1.523 . S
H2323 C2298 0.950 . S
H2324 C2300 0.950 . S
H2325 C2301 0.949 . S
H2326 C2303 0.950 . S
H2327 C2305 0.950 . S
C2328 C2329 1.349 . S
C2328 C2330 1.327 . S
C2328 H2353 0.950 . S
C2329 C2328 1.349 . S
C2329 C2345 1.349 . S
C2330 C2328 1.327 . S
C2330 C2349 1.429 . S
C2330 H2354 0.950 . S
C2331 C2348 1.574 . S
C2331 C2350 1.368 1_565 S
C2331 H2355 0.949 . S
H2332 C2336 0.949 . S
C2333 C2334 1.349 . S
C2333 C2335 1.327 . S
C2333 H2356 0.950 . S
C2334 C2333 1.349 . S
C2334 C2346 1.349 . S
C2335 C2333 1.327 . S
C2335 C2351 1.429 . S
C2335 H2357 0.950 . S
C2336 H2332 0.949 . S
C2336 C2344 1.574 1_565 S
C2336 C2352 1.368 . S
H2337 C2345 0.950 . S
H2338 C2343 0.950 . S
H2339 C2344 0.949 . S
H2340 C2346 0.950 . S
H2341 C2347 0.950 . S
H2342 C2348 0.949 . S
C2343 H2338 0.950 . S
C2343 C2345 1.327 . S
C2343 C2349 1.429 . S
C2344 C2336 1.574 1_545 S
C2344 H2339 0.949 . S
C2344 C2350 1.368 . S
C2345 C2329 1.349 . S
C2345 H2337 0.950 . S
C2345 C2343 1.327 . S
C2346 C2334 1.349 . S
C2346 H2340 0.950 . S
C2346 C2347 1.327 . S
C2347 H2341 0.950 . S
C2347 C2346 1.327 . S
C2347 C2351 1.429 . S
C2348 C2331 1.574 . S
C2348 H2342 0.949 . S
C2348 C2352 1.368 . S
C2349 C2330 1.429 . S
C2349 C2343 1.429 . S
C2349 C2350 1.523 . S
C2350 C2331 1.368 1_545 S
C2350 C2344 1.368 . S
C2350 C2349 1.523 . S
C2351 C2335 1.429 . S
C2351 C2347 1.429 . S
C2351 C2352 1.523 . S
C2352 C2336 1.368 . S
C2352 C2348 1.368 . S
C2352 C2351 1.523 . S
H2353 C2328 0.950 . S
H2354 C2330 0.950 . S
H2355 C2331 0.949 . S
H2356 C2333 0.950 . S
H2357 C2335 0.950 . S
C2358 C2359 1.349 . S
C2358 C2360 1.327 . S
C2358 H2383 0.950 . S
C2359 C2358 1.349 . S
C2359 C2375 1.349 . S
C2360 C2358 1.327 . S
C2360 C2379 1.429 . S
C2360 H2384 0.950 1_556 S
C2361 C2378 1.574 1_545 S
C2361 C2380 1.368 . S
C2361 H2385 0.949 . S
H2362 C2366 0.949 . S
C2363 C2364 1.349 . S
C2363 C2365 1.327 1_554 S
C2363 H2386 0.950 1_554 S
C2364 C2363 1.349 . S
C2364 C2376 1.349 . S
C2365 C2363 1.327 1_556 S
C2365 C2381 1.429 1_556 S
C2365 H2387 0.950 . S
C2366 H2362 0.949 . S
C2366 C2374 1.574 . S
C2366 C2382 1.368 1_544 S
H2367 C2375 0.950 . S
H2368 C2373 0.950 . S
H2369 C2374 0.949 . S
H2370 C2376 0.950 . S
H2371 C2377 0.950 . S
H2372 C2378 0.949 . S
C2373 H2368 0.950 . S
C2373 C2375 1.327 . S
C2373 C2379 1.429 . S
C2374 C2366 1.574 . S
C2374 H2369 0.949 . S
C2374 C2380 1.368 1_554 S
C2375 C2359 1.349 . S
C2375 H2367 0.950 . S
C2375 C2373 1.327 . S
C2376 C2364 1.349 . S
C2376 H2370 0.950 . S
C2376 C2377 1.327 . S
C2377 H2371 0.950 . S
C2377 C2376 1.327 . S
C2377 C2381 1.429 . S
C2378 C2361 1.574 1_565 S
C2378 H2372 0.949 . S
C2378 C2382 1.368 . S
C2379 C2360 1.429 . S
C2379 C2373 1.429 . S
C2379 C2380 1.523 . S
C2380 C2361 1.368 . S
C2380 C2374 1.368 1_556 S
C2380 C2379 1.523 . S
C2381 C2365 1.429 1_554 S
C2381 C2377 1.429 . S
C2381 C2382 1.523 1_554 S
C2382 C2366 1.368 1_566 S
C2382 C2378 1.368 . S
C2382 C2381 1.523 1_556 S
H2383 C2358 0.950 . S
H2384 C2360 0.950 1_554 S
H2385 C2361 0.949 . S
H2386 C2363 0.950 1_556 S
H2387 C2365 0.950 . S
C2388 C2389 1.349 . S
C2388 C2390 1.327 . S
C2388 H2413 0.950 . S
C2389 C2388 1.349 . S
C2389 C2405 1.349 . S
C2390 C2388 1.327 . S
C2390 C2409 1.429 . S
C2390 H2414 0.950 . S
C2391 C2408 1.574 . S
C2391 C2410 1.368 . S
C2391 H2415 0.949 . S
H2392 C2396 0.949 1_455 S
C2393 C2394 1.349 . S
C2393 C2395 1.327 . S
C2393 H2416 0.950 . S
C2394 C2393 1.349 . S
C2394 C2406 1.349 . S
C2395 C2393 1.327 . S
C2395 C2411 1.429 . S
C2395 H2417 0.950 1_554 S
C2396 H2392 0.949 1_655 S
C2396 C2404 1.574 1_554 S
C2396 C2412 1.371 1_654 S
H2397 C2405 0.950 . S
H2398 C2403 0.950 . S
H2399 C2404 0.949 1_554 S
H2400 C2406 0.950 . S
H2401 C2407 0.950 . S
H2402 C2408 0.949 . S
C2403 H2398 0.950 . S
C2403 C2405 1.327 . S
C2403 C2409 1.429 . S
C2404 C2396 1.574 1_556 S
C2404 H2399 0.949 1_556 S
C2404 C2410 1.368 . S
C2405 C2389 1.349 . S
C2405 H2397 0.950 . S
C2405 C2403 1.327 . S
C2406 C2394 1.349 . S
C2406 H2400 0.950 . S
C2406 C2407 1.327 . S
C2407 H2401 0.950 . S
C2407 C2406 1.327 . S
C2407 C2411 1.429 . S
C2408 C2391 1.574 . S
C2408 H2402 0.949 . S
C2408 C2412 1.364 1_655 S
C2409 C2390 1.429 . S
C2409 C2403 1.429 . S
C2409 C2410 1.523 . S
C2410 C2391 1.368 . S
C2410 C2404 1.368 . S
C2410 C2409 1.523 . S
C2411 C2395 1.429 . S
C2411 C2407 1.429 . S
C2411 C2412 1.525 1_554 S
C2412 C2396 1.371 1_456 S
C2412 C2408 1.364 1_455 S
C2412 C2411 1.525 1_556 S
H2413 C2388 0.950 . S
H2414 C2390 0.950 . S
H2415 C2391 0.949 . S
H2416 C2393 0.950 . S
H2417 C2395 0.950 1_556 S
C2418 C2419 1.349 . S
C2418 C2420 1.327 . S
C2418 H2443 0.950 . S
C2419 C2418 1.349 . S
C2419 C2435 1.349 . S
C2420 C2418 1.327 . S
C2420 C2439 1.429 . S
C2420 H2444 0.950 . S
C2421 C2438 1.574 . S
C2421 C2440 1.368 . S
C2421 H2445 0.949 . S
H2422 C2426 0.949 . S
C2423 C2424 1.349 . S
C2423 C2425 1.327 . S
C2423 H2446 0.950 . S
C2424 C2423 1.349 . S
C2424 C2436 1.349 . S
C2425 C2423 1.327 . S
C2425 C2441 1.429 . S
C2425 H2447 0.950 . S
C2426 H2422 0.949 . S
C2426 C2434 1.574 1_554 S
C2426 C2442 1.368 . S
H2427 C2435 0.950 . S
H2428 C2433 0.950 . S
H2429 C2434 0.949 . S
H2430 C2436 0.950 . S
H2431 C2437 0.950 . S
H2432 C2438 0.949 . S
C2433 H2428 0.950 . S
C2433 C2435 1.327 . S
C2433 C2439 1.429 . S
C2434 C2426 1.574 1_556 S
C2434 H2429 0.949 . S
C2434 C2440 1.368 . S
C2435 C2419 1.349 . S
C2435 H2427 0.950 . S
C2435 C2433 1.327 . S
C2436 C2424 1.349 . S
C2436 H2430 0.950 . S
C2436 C2437 1.327 . S
C2437 H2431 0.950 . S
C2437 C2436 1.327 . S
C2437 C2441 1.429 . S
C2438 C2421 1.574 . S
C2438 H2432 0.949 . S
C2438 C2442 1.366 1_556 S
C2439 C2420 1.429 . S
C2439 C2433 1.429 . S
C2439 C2440 1.523 . S
C2440 C2421 1.368 . S
C2440 C2434 1.368 . S
C2440 C2439 1.523 . S
C2441 C2425 1.429 . S
C2441 C2437 1.429 . S
C2441 C2442 1.527 . S
C2442 C2426 1.368 . S
C2442 C2438 1.366 1_554 S
C2442 C2441 1.527 . S
H2443 C2418 0.950 . S
H2444 C2420 0.950 . S
H2445 C2421 0.949 . S
H2446 C2423 0.950 . S
H2447 C2425 0.950 . S
C2448 C2449 1.309 1_545 S
C2448 C2450 1.327 . S
C2448 H2473 0.950 . S
C2449 C2448 1.309 1_565 S
C2449 C2465 1.346 1_566 S
C2450 C2448 1.327 . S
C2450 C2469 1.429 1_556 S
C2450 H2474 0.950 . S
C2451 C2468 1.574 . S
C2451 C2470 1.368 . S
C2451 H2475 0.949 . S
H2452 C2456 0.949 . S
C2453 C2454 1.349 . S
C2453 C2455 1.327 . S
C2453 H2476 0.950 . S
C2454 C2453 1.349 . S
C2454 C2466 1.349 . S
C2455 C2453 1.327 . S
C2455 C2471 1.429 . S
C2455 H2477 0.950 . S
C2456 H2452 0.949 . S
C2456 C2464 1.574 . S
C2456 C2472 1.368 . S
H2457 C2465 0.950 1_565 S
H2458 C2463 0.950 . S
H2459 C2464 0.949 1_556 S
H2460 C2466 0.950 . S
H2461 C2467 0.950 . S
H2462 C2468 0.949 . S
C2463 H2458 0.950 . S
C2463 C2465 1.327 . S
C2463 C2469 1.429 . S
C2464 C2456 1.574 . S
C2464 H2459 0.949 1_554 S
C2464 C2470 1.368 . S
C2465 C2449 1.346 1_544 S
C2465 H2457 0.950 1_545 S
C2465 C2463 1.327 . S
C2466 C2454 1.349 . S
C2466 H2460 0.950 . S
C2466 C2467 1.327 . S
C2467 H2461 0.950 . S
C2467 C2466 1.327 . S
C2467 C2471 1.429 . S
C2468 C2451 1.574 . S
C2468 H2462 0.949 . S
C2468 C2472 1.368 . S
C2469 C2450 1.429 1_554 S
C2469 C2463 1.429 . S
C2469 C2470 1.523 . S
C2470 C2451 1.368 . S
C2470 C2464 1.368 . S
C2470 C2469 1.523 . S
C2471 C2455 1.429 . S
C2471 C2467 1.429 . S
C2471 C2472 1.523 . S
C2472 C2456 1.368 . S
C2472 C2468 1.368 . S
C2472 C2471 1.523 . S
H2473 C2448 0.950 . S
H2474 C2450 0.950 . S
H2475 C2451 0.949 . S
H2476 C2453 0.950 . S
H2477 C2455 0.950 . S
C2478 C2479 1.349 . S
C2478 C2480 1.327 . S
C2478 H2503 0.950 . S
C2479 C2478 1.349 . S
C2479 C2495 1.349 . S
C2480 C2478 1.327 . S
C2480 C2499 1.429 . S
C2480 H2504 0.950 . S
C2481 C2498 1.574 . S
C2481 C2500 1.368 1_554 S
C2481 H2505 0.949 . S
H2482 C2486 0.949 . S
C2483 C2484 1.349 . S
C2483 C2485 1.327 . S
C2483 H2506 0.950 . S
C2484 C2483 1.349 . S
C2484 C2496 1.349 . S
C2485 C2483 1.327 . S
C2485 C2501 1.429 . S
C2485 H2507 0.950 . S
C2486 H2482 0.949 . S
C2486 C2494 1.574 1_554 S
C2486 C2502 1.368 . S
H2487 C2495 0.950 . S
H2488 C2493 0.950 . S
H2489 C2494 0.949 . S
H2490 C2496 0.950 . S
H2491 C2497 0.950 . S
H2492 C2498 0.949 . S
C2493 H2488 0.950 . S
C2493 C2495 1.327 . S
C2493 C2499 1.429 . S
C2494 C2486 1.574 1_556 S
C2494 H2489 0.949 . S
C2494 C2500 1.368 . S
C2495 C2479 1.349 . S
C2495 H2487 0.950 . S
C2495 C2493 1.327 . S
C2496 C2484 1.349 . S
C2496 H2490 0.950 . S
C2496 C2497 1.327 . S
C2497 H2491 0.950 . S
C2497 C2496 1.327 . S
C2497 C2501 1.429 . S
C2498 C2481 1.574 . S
C2498 H2492 0.949 . S
C2498 C2502 1.368 . S
C2499 C2480 1.429 . S
C2499 C2493 1.429 . S
C2499 C2500 1.523 . S
C2500 C2481 1.368 1_556 S
C2500 C2494 1.368 . S
C2500 C2499 1.523 . S
C2501 C2485 1.429 . S
C2501 C2497 1.429 . S
C2501 C2502 1.523 . S
C2502 C2486 1.368 . S
C2502 C2498 1.368 . S
C2502 C2501 1.523 . S
H2503 C2478 0.950 . S
H2504 C2480 0.950 . S
H2505 C2481 0.949 . S
H2506 C2483 0.950 . S
H2507 C2485 0.950 . S
C2508 C2509 1.349 . S
C2508 C2510 1.327 . S
C2508 H2533 0.950 . S
C2509 C2508 1.349 . S
C2509 C2525 1.349 . S
C2510 C2508 1.327 . S
C2510 C2529 1.429 . S
C2510 H2534 0.950 . S
C2511 C2528 1.574 . S
C2511 C2530 1.368 . S
C2511 H2535 0.949 . S
H2512 C2516 0.949 . S
C2513 C2514 1.349 . S
C2513 C2515 1.327 . S
C2513 H2536 0.950 . S
C2514 C2513 1.349 . S
C2514 C2526 1.349 . S
C2515 C2513 1.327 . S
C2515 C2531 1.429 . S
C2515 H2537 0.950 . S
C2516 H2512 0.949 . S
C2516 C2524 1.574 1_556 S
C2516 C2532 1.368 . S
H2517 C2525 0.950 . S
H2518 C2523 0.950 . S
H2519 C2524 0.949 . S
H2520 C2526 0.950 . S
H2521 C2527 0.950 . S
H2522 C2528 0.949 . S
C2523 H2518 0.950 . S
C2523 C2525 1.327 . S
C2523 C2529 1.429 . S
C2524 C2516 1.574 1_554 S
C2524 H2519 0.949 . S
C2524 C2530 1.368 . S
C2525 C2509 1.349 . S
C2525 H2517 0.950 . S
C2525 C2523 1.327 . S
C2526 C2514 1.349 . S
C2526 H2520 0.950 . S
C2526 C2527 1.327 . S
C2527 H2521 0.950 . S
C2527 C2526 1.327 . S
C2527 C2531 1.429 . S
C2528 C2511 1.574 . S
C2528 H2522 0.949 . S
C2528 C2532 1.368 1_554 S
C2529 C2510 1.429 . S
C2529 C2523 1.429 . S
C2529 C2530 1.523 . S
C2530 C2511 1.368 . S
C2530 C2524 1.368 . S
C2530 C2529 1.523 . S
C2531 C2515 1.429 . S
C2531 C2527 1.429 . S
C2531 C2532 1.523 . S
C2532 C2516 1.368 . S
C2532 C2528 1.368 1_556 S
C2532 C2531 1.523 . S
H2533 C2508 0.950 . S
H2534 C2510 0.950 . S
H2535 C2511 0.949 . S
H2536 C2513 0.950 . S
H2537 C2515 0.950 . S
C2538 C2539 1.349 . S
C2538 C2540 1.327 . S
C2538 H2563 0.950 1_455 S
C2539 C2538 1.349 . S
C2539 C2555 1.349 . S
C2540 C2538 1.327 . S
C2540 C2559 1.429 . S
C2540 H2564 0.950 . S
C2541 C2558 1.574 . S
C2541 C2560 1.368 . S
C2541 H2565 0.949 . S
H2542 C2546 0.949 . S
C2543 C2544 1.349 . S
C2543 C2545 1.327 . S
C2543 H2566 0.950 . S
C2544 C2543 1.349 . S
C2544 C2556 1.349 . S
C2545 C2543 1.327 . S
C2545 C2561 1.429 . S
C2545 H2567 0.950 . S
C2546 H2542 0.949 . S
C2546 C2554 1.574 . S
C2546 C2562 1.368 . S
H2547 C2555 0.950 . S
H2548 C2553 0.950 . S
H2549 C2554 0.949 . S
H2550 C2556 0.950 . S
H2551 C2557 0.950 . S
H2552 C2558 0.949 . S
C2553 H2548 0.950 . S
C2553 C2555 1.327 . S
C2553 C2559 1.429 . S
C2554 C2546 1.574 . S
C2554 H2549 0.949 . S
C2554 C2560 1.368 . S
C2555 C2539 1.349 . S
C2555 H2547 0.950 . S
C2555 C2553 1.327 . S
C2556 C2544 1.349 . S
C2556 H2550 0.950 . S
C2556 C2557 1.327 . S
C2557 H2551 0.950 . S
C2557 C2556 1.327 . S
C2557 C2561 1.429 . S
C2558 C2541 1.574 . S
C2558 H2552 0.949 . S
C2558 C2562 1.368 . S
C2559 C2540 1.429 . S
C2559 C2553 1.429 . S
C2559 C2560 1.523 . S
C2560 C2541 1.368 . S
C2560 C2554 1.368 . S
C2560 C2559 1.523 . S
C2561 C2545 1.429 . S
C2561 C2557 1.429 . S
C2561 C2562 1.523 . S
C2562 C2546 1.368 . S
C2562 C2558 1.368 . S
C2562 C2561 1.523 . S
H2563 C2538 0.950 1_655 S
H2564 C2540 0.950 . S
H2565 C2541 0.949 . S
H2566 C2543 0.950 . S
H2567 C2545 0.950 . S
C2568 C2569 1.349 . S
C2568 C2570 1.327 . S
C2568 H2593 0.950 . S
C2569 C2568 1.349 . S
C2569 C2585 1.349 . S
C2570 C2568 1.327 . S
C2570 C2589 1.429 . S
C2570 H2594 0.950 . S
C2571 C2588 1.574 . S
C2571 C2590 1.368 . S
C2571 H2595 0.949 . S
H2572 C2576 0.949 . S
C2573 C2574 1.349 . S
C2573 C2575 1.327 . S
C2573 H2596 0.950 . S
C2574 C2573 1.349 . S
C2574 C2586 1.349 . S
C2575 C2573 1.327 . S
C2575 C2591 1.429 . S
C2575 H2597 0.950 . S
C2576 H2572 0.949 . S
C2576 C2584 1.574 . S
C2576 C2592 1.368 . S
H2577 C2585 0.950 . S
H2578 C2583 0.950 . S
H2579 C2584 0.949 . S
H2580 C2586 0.950 . S
H2581 C2587 0.950 . S
H2582 C2588 0.949 . S
C2583 H2578 0.950 . S
C2583 C2585 1.327 . S
C2583 C2589 1.429 . S
C2584 C2576 1.574 . S
C2584 H2579 0.949 . S
C2584 C2590 1.368 . S
C2585 C2569 1.349 . S
C2585 H2577 0.950 . S
C2585 C2583 1.327 . S
C2586 C2574 1.349 . S
C2586 H2580 0.950 . S
C2586 C2587 1.327 . S
C2587 H2581 0.950 . S
C2587 C2586 1.327 . S
C2587 C2591 1.429 . S
C2588 C2571 1.574 . S
C2588 H2582 0.949 . S
C2588 C2592 1.368 . S
C2589 C2570 1.429 . S
C2589 C2583 1.429 . S
C2589 C2590 1.523 . S
C2590 C2571 1.368 . S
C2590 C2584 1.368 . S
C2590 C2589 1.523 . S
C2591 C2575 1.429 . S
C2591 C2587 1.429 . S
C2591 C2592 1.523 . S
C2592 C2576 1.368 . S
C2592 C2588 1.368 . S
C2592 C2591 1.523 . S
H2593 C2568 0.950 . S
H2594 C2570 0.950 . S
H2595 C2571 0.949 . S
H2596 C2573 0.950 . S
H2597 C2575 0.950 . S
C2598 C2599 1.327 1_565 S
C2598 C2600 1.327 . S
C2598 H2623 0.950 1_565 S
C2599 C2598 1.327 1_545 S
C2599 C2615 1.343 1_545 S
C2600 C2598 1.327 . S
C2600 C2619 1.429 . S
C2600 H2624 0.950 . S
C2601 C2618 1.574 . S
C2601 C2620 1.368 . S
C2601 H2625 0.949 . S
H2602 C2606 0.949 . S
C2603 C2604 1.349 . S
C2603 C2605 1.327 . S
C2603 H2626 0.950 . S
C2604 C2603 1.349 . S
C2604 C2616 1.349 . S
C2605 C2603 1.327 . S
C2605 C2621 1.429 . S
C2605 H2627 0.950 . S
C2606 H2602 0.949 . S
C2606 C2614 1.574 . S
C2606 C2622 1.368 . S
H2607 C2615 0.950 . S
H2608 C2613 0.950 . S
H2609 C2614 0.949 . S
H2610 C2616 0.950 . S
H2611 C2617 0.950 . S
H2612 C2618 0.949 . S
C2613 H2608 0.950 . S
C2613 C2615 1.327 . S
C2613 C2619 1.429 . S
C2614 C2606 1.574 . S
C2614 H2609 0.949 . S
C2614 C2620 1.368 . S
C2615 C2599 1.343 1_565 S
C2615 H2607 0.950 . S
C2615 C2613 1.327 . S
C2616 C2604 1.349 . S
C2616 H2610 0.950 . S
C2616 C2617 1.327 . S
C2617 H2611 0.950 . S
C2617 C2616 1.327 . S
C2617 C2621 1.429 . S
C2618 C2601 1.574 . S
C2618 H2612 0.949 . S
C2618 C2622 1.368 . S
C2619 C2600 1.429 . S
C2619 C2613 1.429 . S
C2619 C2620 1.523 . S
C2620 C2601 1.368 . S
C2620 C2614 1.368 . S
C2620 C2619 1.523 . S
C2621 C2605 1.429 . S
C2621 C2617 1.429 . S
C2621 C2622 1.523 . S
C2622 C2606 1.368 . S
C2622 C2618 1.368 . S
C2622 C2621 1.523 . S
H2623 C2598 0.950 1_545 S
H2624 C2600 0.950 . S
H2625 C2601 0.949 . S
H2626 C2603 0.950 . S
H2627 C2605 0.950 . S
C2628 C2629 1.349 . S
C2628 C2630 1.327 . S
C2628 H2653 0.950 . S
C2629 C2628 1.349 . S
C2629 C2645 1.349 . S
C2630 C2628 1.327 . S
C2630 C2649 1.429 . S
C2630 H2654 0.950 . S
C2631 C2648 1.574 1_556 S
C2631 C2650 1.368 . S
C2631 H2655 0.949 1_556 S
H2632 C2636 0.949 . S
C2633 C2634 1.349 . S
C2633 C2635 1.327 . S
C2633 H2656 0.950 . S
C2634 C2633 1.349 . S
C2634 C2646 1.349 1_554 S
C2635 C2633 1.327 . S
C2635 C2651 1.429 . S
C2635 H2657 0.950 . S
C2636 H2632 0.949 . S
C2636 C2644 1.574 . S
C2636 C2652 1.368 . S
H2637 C2645 0.950 . S
H2638 C2643 0.950 . S
H2639 C2644 0.949 . S
H2640 C2646 0.950 . S
H2641 C2647 0.950 . S
H2642 C2648 0.949 . S
C2643 H2638 0.950 . S
C2643 C2645 1.327 . S
C2643 C2649 1.429 . S
C2644 C2636 1.574 . S
C2644 H2639 0.949 . S
C2644 C2650 1.368 . S
C2645 C2629 1.349 . S
C2645 H2637 0.950 . S
C2645 C2643 1.327 . S
C2646 C2634 1.349 1_556 S
C2646 H2640 0.950 . S
C2646 C2647 1.327 . S
C2647 H2641 0.950 . S
C2647 C2646 1.327 . S
C2647 C2651 1.429 1_556 S
C2648 C2631 1.574 1_554 S
C2648 H2642 0.949 . S
C2648 C2652 1.368 1_554 S
C2649 C2630 1.429 . S
C2649 C2643 1.429 . S
C2649 C2650 1.523 . S
C2650 C2631 1.368 . S
C2650 C2644 1.368 . S
C2650 C2649 1.523 . S
C2651 C2635 1.429 . S
C2651 C2647 1.429 1_554 S
C2651 C2652 1.523 1_554 S
C2652 C2636 1.368 . S
C2652 C2648 1.368 1_556 S
C2652 C2651 1.523 1_556 S
H2653 C2628 0.950 . S
H2654 C2630 0.950 . S
H2655 C2631 0.949 1_554 S
H2656 C2633 0.950 . S
H2657 C2635 0.950 . S
C2658 C2659 1.349 . S
C2658 C2660 1.327 . S
C2658 H2683 0.950 . S
C2659 C2658 1.349 . S
C2659 C2675 1.349 . S
C2660 C2658 1.327 . S
C2660 C2679 1.429 . S
C2660 H2684 0.950 . S
C2661 C2678 1.574 . S
C2661 C2680 1.368 . S
C2661 H2685 0.949 . S
H2662 C2666 0.949 . S
C2663 C2664 1.348 . S
C2663 C2665 1.326 1_655 S
C2663 H2686 0.951 . S
C2664 C2663 1.348 . S
C2664 C2676 1.349 1_655 S
C2665 C2663 1.326 1_455 S
C2665 C2681 1.429 . S
C2665 H2687 0.950 . S
C2666 H2662 0.949 . S
C2666 C2674 1.574 . S
C2666 C2682 1.368 . S
H2667 C2675 0.950 . S
H2668 C2673 0.950 1_554 S
H2669 C2674 0.949 1_556 S
H2670 C2676 0.950 . S
H2671 C2677 0.950 . S
H2672 C2678 0.949 . S
C2673 H2668 0.950 1_556 S
C2673 C2675 1.327 . S
C2673 C2679 1.429 . S
C2674 C2666 1.574 . S
C2674 H2669 0.949 1_554 S
C2674 C2680 1.368 . S
C2675 C2659 1.349 . S
C2675 H2667 0.950 . S
C2675 C2673 1.327 . S
C2676 C2664 1.349 1_455 S
C2676 H2670 0.950 . S
C2676 C2677 1.327 . S
C2677 H2671 0.950 . S
C2677 C2676 1.327 . S
C2677 C2681 1.429 . S
C2678 C2661 1.574 . S
C2678 H2672 0.949 . S
C2678 C2682 1.368 . S
C2679 C2660 1.429 . S
C2679 C2673 1.429 . S
C2679 C2680 1.523 1_556 S
C2680 C2661 1.368 . S
C2680 C2674 1.368 . S
C2680 C2679 1.523 1_554 S
C2681 C2665 1.429 . S
C2681 C2677 1.429 . S
C2681 C2682 1.523 . S
C2682 C2666 1.368 . S
C2682 C2678 1.368 . S
C2682 C2681 1.523 . S
H2683 C2658 0.950 . S
H2684 C2660 0.950 . S
H2685 C2661 0.949 . S
H2686 C2663 0.951 . S
H2687 C2665 0.950 . S
C2688 C2689 1.349 . S
C2688 C2690 1.327 . S
C2688 H2713 0.950 . S
C2689 C2688 1.349 . S
C2689 C2705 1.349 . S
C2690 C2688 1.327 . S
C2690 C2709 1.429 . S
C2690 H2714 0.950 . S
C2691 C2708 1.574 . S
C2691 C2710 1.356 1_554 S
C2691 H2715 0.949 . S
H2692 C2696 0.949 1_556 S
C2693 C2694 1.349 . S
C2693 C2695 1.327 . S
C2693 H2716 0.950 . S
C2694 C2693 1.349 . S
C2694 C2706 1.349 . S
C2695 C2693 1.327 . S
C2695 C2711 1.429 . S
C2695 H2717 0.950 . S
C2696 H2692 0.949 1_554 S
C2696 C2704 1.574 1_554 S
C2696 C2712 1.368 . S
H2697 C2705 0.950 . S
H2698 C2703 0.950 1_554 S
H2699 C2704 0.949 . S
H2700 C2706 0.950 . S
H2701 C2707 0.950 . S
H2702 C2708 0.949 . S
C2703 H2698 0.950 1_556 S
C2703 C2705 1.327 . S
C2703 C2709 1.429 . S
C2704 C2696 1.574 1_556 S
C2704 H2699 0.949 . S
C2704 C2710 1.375 . S
C2705 C2689 1.349 . S
C2705 H2697 0.950 . S
C2705 C2703 1.327 . S
C2706 C2694 1.349 . S
C2706 H2700 0.950 . S
C2706 C2707 1.327 . S
C2707 H2701 0.950 . S
C2707 C2706 1.327 . S
C2707 C2711 1.429 . S
C2708 C2691 1.574 . S
C2708 H2702 0.949 . S
C2708 C2712 1.368 . S
C2709 C2690 1.429 . S
C2709 C2703 1.429 . S
C2709 C2710 1.530 . S
C2710 C2691 1.356 1_556 S
C2710 C2704 1.375 . S
C2710 C2709 1.530 . S
C2711 C2695 1.429 . S
C2711 C2707 1.429 . S
C2711 C2712 1.523 . S
C2712 C2696 1.368 . S
C2712 C2708 1.368 . S
C2712 C2711 1.523 . S
H2713 C2688 0.950 . S
H2714 C2690 0.950 . S
H2715 C2691 0.949 . S
H2716 C2693 0.950 . S
H2717 C2695 0.950 . S
C2718 C2719 1.349 . S
C2718 C2720 1.327 . S
C2718 H2743 0.950 . S
C2719 C2718 1.349 . S
C2719 C2735 1.349 . S
C2720 C2718 1.327 . S
C2720 C2739 1.429 . S
C2720 H2744 0.950 . S
C2721 C2738 1.574 . S
C2721 C2740 1.368 . S
C2721 H2745 0.949 . S
H2722 C2726 0.949 . S
C2723 C2724 1.349 . S
C2723 C2725 1.327 1_455 S
C2723 H2746 0.950 . S
C2724 C2723 1.349 . S
C2724 C2736 1.349 1_455 S
C2725 C2723 1.327 1_655 S
C2725 C2741 1.429 . S
C2725 H2747 0.950 . S
C2726 H2722 0.949 . S
C2726 C2734 1.574 . S
C2726 C2742 1.368 . S
H2727 C2735 0.950 . S
H2728 C2733 0.950 . S
H2729 C2734 0.949 . S
H2730 C2736 0.950 . S
H2731 C2737 0.950 . S
H2732 C2738 0.949 . S
C2733 H2728 0.950 . S
C2733 C2735 1.327 . S
C2733 C2739 1.429 . S
C2734 C2726 1.574 . S
C2734 H2729 0.949 . S
C2734 C2740 1.368 . S
C2735 C2719 1.349 . S
C2735 H2727 0.950 . S
C2735 C2733 1.327 . S
C2736 C2724 1.349 1_655 S
C2736 H2730 0.950 . S
C2736 C2737 1.327 . S
C2737 H2731 0.950 . S
C2737 C2736 1.327 . S
C2737 C2741 1.429 . S
C2738 C2721 1.574 . S
C2738 H2732 0.949 . S
C2738 C2742 1.368 . S
C2739 C2720 1.429 . S
C2739 C2733 1.429 . S
C2739 C2740 1.523 . S
C2740 C2721 1.368 . S
C2740 C2734 1.368 . S
C2740 C2739 1.523 . S
C2741 C2725 1.429 . S
C2741 C2737 1.429 . S
C2741 C2742 1.523 . S
C2742 C2726 1.368 . S
C2742 C2738 1.368 . S
C2742 C2741 1.523 . S
H2743 C2718 0.950 . S
H2744 C2720 0.950 . S
H2745 C2721 0.949 . S
H2746 C2723 0.950 . S
H2747 C2725 0.950 . S
C2748 C2749 1.349 . S
C2748 C2750 1.327 . S
C2748 H2773 0.950 . S
C2749 C2748 1.349 . S
C2749 C2765 1.349 . S
C2750 C2748 1.327 . S
C2750 C2769 1.429 . S
C2750 H2774 0.950 . S
C2751 C2768 1.574 . S
C2751 C2770 1.368 . S
C2751 H2775 0.949 . S
H2752 C2756 0.949 . S
C2753 C2754 1.349 . S
C2753 C2755 1.327 . S
C2753 H2776 0.950 . S
C2754 C2753 1.349 . S
C2754 C2766 1.349 . S
C2755 C2753 1.327 . S
C2755 C2771 1.429 . S
C2755 H2777 0.950 . S
C2756 H2752 0.949 . S
C2756 C2764 1.574 . S
C2756 C2772 1.368 . S
H2757 C2765 0.950 . S
H2758 C2763 0.950 . S
H2759 C2764 0.949 . S
H2760 C2766 0.950 . S
H2761 C2767 0.950 . S
H2762 C2768 0.949 . S
C2763 H2758 0.950 . S
C2763 C2765 1.327 . S
C2763 C2769 1.429 . S
C2764 C2756 1.574 . S
C2764 H2759 0.949 . S
C2764 C2770 1.368 . S
C2765 C2749 1.349 . S
C2765 H2757 0.950 . S
C2765 C2763 1.327 . S
C2766 C2754 1.349 . S
C2766 H2760 0.950 . S
C2766 C2767 1.327 . S
C2767 H2761 0.950 . S
C2767 C2766 1.327 . S
C2767 C2771 1.429 . S
C2768 C2751 1.574 . S
C2768 H2762 0.949 . S
C2768 C2772 1.368 . S
C2769 C2750 1.429 . S
C2769 C2763 1.429 . S
C2769 C2770 1.523 . S
C2770 C2751 1.368 . S
C2770 C2764 1.368 . S
C2770 C2769 1.523 . S
C2771 C2755 1.429 . S
C2771 C2767 1.429 . S
C2771 C2772 1.523 . S
C2772 C2756 1.368 . S
C2772 C2768 1.368 . S
C2772 C2771 1.523 . S
H2773 C2748 0.950 . S
H2774 C2750 0.950 . S
H2775 C2751 0.949 . S
H2776 C2753 0.950 . S
H2777 C2755 0.950 . S
C2778 C2779 1.349 . S
C2778 C2780 1.327 . S
C2778 H2803 0.950 . S
C2779 C2778 1.349 . S
C2779 C2795 1.349 . S
C2780 C2778 1.327 . S
C2780 C2799 1.429 . S
C2780 H2804 0.950 . S
C2781 C2798 1.574 . S
C2781 C2800 1.368 . S
C2781 H2805 0.949 . S
H2782 C2786 0.949 . S
C2783 C2784 1.349 . S
C2783 C2785 1.327 . S
C2783 H2806 0.950 . S
C2784 C2783 1.349 . S
C2784 C2796 1.349 . S
C2785 C2783 1.327 . S
C2785 C2801 1.429 . S
C2785 H2807 0.950 . S
C2786 H2782 0.949 . S
C2786 C2794 1.574 . S
C2786 C2802 1.368 . S
H2787 C2795 0.950 1_565 S
H2788 C2793 0.950 . S
H2789 C2794 0.949 . S
H2790 C2796 0.950 . S
H2791 C2797 0.950 . S
H2792 C2798 0.949 . S
C2793 H2788 0.950 . S
C2793 C2795 1.327 . S
C2793 C2799 1.429 . S
C2794 C2786 1.574 . S
C2794 H2789 0.949 . S
C2794 C2800 1.368 . S
C2795 C2779 1.349 . S
C2795 H2787 0.950 1_545 S
C2795 C2793 1.327 . S
C2796 C2784 1.349 . S
C2796 H2790 0.950 . S
C2796 C2797 1.327 . S
C2797 H2791 0.950 . S
C2797 C2796 1.327 . S
C2797 C2801 1.429 . S
C2798 C2781 1.574 . S
C2798 H2792 0.949 . S
C2798 C2802 1.368 . S
C2799 C2780 1.429 . S
C2799 C2793 1.429 . S
C2799 C2800 1.523 . S
C2800 C2781 1.368 . S
C2800 C2794 1.368 . S
C2800 C2799 1.523 . S
C2801 C2785 1.429 . S
C2801 C2797 1.429 . S
C2801 C2802 1.523 . S
C2802 C2786 1.368 . S
C2802 C2798 1.368 . S
C2802 C2801 1.523 . S
H2803 C2778 0.950 . S
H2804 C2780 0.950 . S
H2805 C2781 0.949 . S
H2806 C2783 0.950 . S
H2807 C2785 0.950 . S
C2808 C2809 1.349 . S
C2808 C2810 1.327 . S
C2808 H2833 0.950 . S
C2809 C2808 1.349 . S
C2809 C2825 1.349 . S
C2810 C2808 1.327 . S
C2810 C2829 1.429 . S
C2810 H2834 0.950 . S
C2811 C2828 1.574 . S
C2811 C2830 1.368 . S
C2811 H2835 0.949 . S
H2812 C2816 0.949 . S
C2813 C2814 1.349 . S
C2813 C2815 1.327 . S
C2813 H2836 0.950 . S
C2814 C2813 1.349 . S
C2814 C2826 1.349 . S
C2815 C2813 1.327 . S
C2815 C2831 1.429 . S
C2815 H2837 0.950 . S
C2816 H2812 0.949 . S
C2816 C2824 1.574 . S
C2816 C2832 1.368 . S
H2817 C2825 0.950 . S
H2818 C2823 0.950 . S
H2819 C2824 0.949 . S
H2820 C2826 0.950 . S
H2821 C2827 0.950 . S
H2822 C2828 0.949 . S
C2823 H2818 0.950 . S
C2823 C2825 1.327 . S
C2823 C2829 1.429 . S
C2824 C2816 1.574 . S
C2824 H2819 0.949 . S
C2824 C2830 1.368 . S
C2825 C2809 1.349 . S
C2825 H2817 0.950 . S
C2825 C2823 1.327 . S
C2826 C2814 1.349 . S
C2826 H2820 0.950 . S
C2826 C2827 1.327 . S
C2827 H2821 0.950 . S
C2827 C2826 1.327 . S
C2827 C2831 1.429 . S
C2828 C2811 1.574 . S
C2828 H2822 0.949 . S
C2828 C2832 1.368 . S
C2829 C2810 1.429 . S
C2829 C2823 1.429 . S
C2829 C2830 1.523 . S
C2830 C2811 1.368 . S
C2830 C2824 1.368 . S
C2830 C2829 1.523 . S
C2831 C2815 1.429 . S
C2831 C2827 1.429 . S
C2831 C2832 1.523 . S
C2832 C2816 1.368 . S
C2832 C2828 1.368 . S
C2832 C2831 1.523 . S
H2833 C2808 0.950 . S
H2834 C2810 0.950 . S
H2835 C2811 0.949 . S
H2836 C2813 0.950 . S
H2837 C2815 0.950 . S
C2838 C2839 1.349 . S
C2838 C2840 1.327 . S
C2838 H2863 0.950 . S
C2839 C2838 1.349 . S
C2839 C2855 1.349 . S
C2840 C2838 1.327 . S
C2840 C2859 1.429 . S
C2840 H2864 0.950 . S
C2841 C2858 1.574 . S
C2841 C2860 1.368 . S
C2841 H2865 0.949 . S
H2842 C2846 0.949 . S
C2843 C2844 1.349 . S
C2843 C2845 1.327 . S
C2843 H2866 0.950 . S
C2844 C2843 1.349 . S
C2844 C2856 1.349 . S
C2845 C2843 1.327 . S
C2845 C2861 1.429 . S
C2845 H2867 0.950 . S
C2846 H2842 0.949 . S
C2846 C2854 1.574 . S
C2846 C2862 1.368 . S
H2847 C2855 0.950 . S
H2848 C2853 0.950 . S
H2849 C2854 0.949 . S
H2850 C2856 0.950 . S
H2851 C2857 0.950 . S
H2852 C2858 0.949 . S
C2853 H2848 0.950 . S
C2853 C2855 1.327 . S
C2853 C2859 1.429 . S
C2854 C2846 1.574 . S
C2854 H2849 0.949 . S
C2854 C2860 1.368 . S
C2855 C2839 1.349 . S
C2855 H2847 0.950 . S
C2855 C2853 1.327 . S
C2856 C2844 1.349 . S
C2856 H2850 0.950 . S
C2856 C2857 1.327 . S
C2857 H2851 0.950 . S
C2857 C2856 1.327 . S
C2857 C2861 1.429 . S
C2858 C2841 1.574 . S
C2858 H2852 0.949 . S
C2858 C2862 1.368 . S
C2859 C2840 1.429 . S
C2859 C2853 1.429 . S
C2859 C2860 1.523 . S
C2860 C2841 1.368 . S
C2860 C2854 1.368 . S
C2860 C2859 1.523 . S
C2861 C2845 1.429 . S
C2861 C2857 1.429 . S
C2861 C2862 1.523 . S
C2862 C2846 1.368 . S
C2862 C2858 1.368 . S
C2862 C2861 1.523 . S
H2863 C2838 0.950 . S
H2864 C2840 0.950 . S
H2865 C2841 0.949 . S
H2866 C2843 0.950 . S
H2867 C2845 0.950 . S
C2868 C2869 1.349 . S
C2868 C2870 1.327 . S
C2868 H2893 0.950 . S
C2869 C2868 1.349 . S
C2869 C2885 1.349 . S
C2870 C2868 1.327 . S
C2870 C2889 1.429 . S
C2870 H2894 0.950 . S
C2871 C2888 1.574 . S
C2871 C2890 1.368 . S
C2871 H2895 0.949 . S
H2872 C2876 0.949 . S
C2873 C2874 1.349 . S
C2873 C2875 1.327 . S
C2873 H2896 0.950 . S
C2874 C2873 1.349 . S
C2874 C2886 1.349 . S
C2875 C2873 1.327 . S
C2875 C2891 1.429 . S
C2875 H2897 0.950 . S
C2876 H2872 0.949 . S
C2876 C2884 1.574 . S
C2876 C2892 1.368 . S
H2877 C2885 0.950 . S
H2878 C2883 0.950 . S
H2879 C2884 0.949 . S
H2880 C2886 0.950 . S
H2881 C2887 0.950 . S
H2882 C2888 0.949 . S
C2883 H2878 0.950 . S
C2883 C2885 1.327 . S
C2883 C2889 1.429 . S
C2884 C2876 1.574 . S
C2884 H2879 0.949 . S
C2884 C2890 1.368 . S
C2885 C2869 1.349 . S
C2885 H2877 0.950 . S
C2885 C2883 1.327 . S
C2886 C2874 1.349 . S
C2886 H2880 0.950 . S
C2886 C2887 1.327 . S
C2887 H2881 0.950 . S
C2887 C2886 1.327 . S
C2887 C2891 1.429 . S
C2888 C2871 1.574 . S
C2888 H2882 0.949 . S
C2888 C2892 1.368 . S
C2889 C2870 1.429 . S
C2889 C2883 1.429 . S
C2889 C2890 1.523 . S
C2890 C2871 1.368 . S
C2890 C2884 1.368 . S
C2890 C2889 1.523 . S
C2891 C2875 1.429 . S
C2891 C2887 1.429 . S
C2891 C2892 1.523 . S
C2892 C2876 1.368 . S
C2892 C2888 1.368 . S
C2892 C2891 1.523 . S
H2893 C2868 0.950 . S
H2894 C2870 0.950 . S
H2895 C2871 0.949 . S
H2896 C2873 0.950 . S
H2897 C2875 0.950 . S
C2898 C2899 1.349 . S
C2898 C2900 1.327 . S
C2898 H2923 0.950 . S
C2899 C2898 1.349 . S
C2899 C2915 1.349 . S
C2900 C2898 1.327 . S
C2900 C2919 1.429 . S
C2900 H2924 0.950 . S
C2901 C2918 1.574 . S
C2901 C2920 1.368 . S
C2901 H2925 0.949 . S
H2902 C2906 0.949 . S
C2903 C2904 1.349 . S
C2903 C2905 1.327 . S
C2903 H2926 0.950 . S
C2904 C2903 1.349 . S
C2904 C2916 1.349 . S
C2905 C2903 1.327 . S
C2905 C2921 1.429 . S
C2905 H2927 0.950 . S
C2906 H2902 0.949 . S
C2906 C2914 1.574 . S
C2906 C2922 1.368 . S
H2907 C2915 0.950 . S
H2908 C2913 0.950 . S
H2909 C2914 0.949 . S
H2910 C2916 0.950 . S
H2911 C2917 0.950 . S
H2912 C2918 0.949 . S
C2913 H2908 0.950 . S
C2913 C2915 1.327 . S
C2913 C2919 1.429 . S
C2914 C2906 1.574 . S
C2914 H2909 0.949 . S
C2914 C2920 1.368 . S
C2915 C2899 1.349 . S
C2915 H2907 0.950 . S
C2915 C2913 1.327 . S
C2916 C2904 1.349 . S
C2916 H2910 0.950 . S
C2916 C2917 1.327 . S
C2917 H2911 0.950 . S
C2917 C2916 1.327 . S
C2917 C2921 1.429 . S
C2918 C2901 1.574 . S
C2918 H2912 0.949 . S
C2918 C2922 1.368 . S
C2919 C2900 1.429 . S
C2919 C2913 1.429 . S
C2919 C2920 1.523 . S
C2920 C2901 1.368 . S
C2920 C2914 1.368 . S
C2920 C2919 1.523 . S
C2921 C2905 1.429 . S
C2921 C2917 1.429 . S
C2921 C2922 1.523 . S
C2922 C2906 1.368 . S
C2922 C2918 1.368 . S
C2922 C2921 1.523 . S
H2923 C2898 0.950 . S
H2924 C2900 0.950 . S
H2925 C2901 0.949 . S
H2926 C2903 0.950 . S
H2927 C2905 0.950 . S
C2928 C2929 1.349 . S
C2928 C2930 1.327 . S
C2928 H2953 0.950 . S
C2929 C2928 1.349 . S
C2929 C2945 1.349 . S
C2930 C2928 1.327 . S
C2930 C2949 1.429 . S
C2930 H2954 0.950 . S
C2931 C2948 1.574 . S
C2931 C2950 1.368 . S
C2931 H2955 0.949 . S
H2932 C2936 0.949 . S
C2933 C2934 1.349 . S
C2933 C2935 1.327 . S
C2933 H2956 0.950 . S
C2934 C2933 1.349 . S
C2934 C2946 1.349 . S
C2935 C2933 1.327 . S
C2935 C2951 1.429 . S
C2935 H2957 0.950 . S
C2936 H2932 0.949 . S
C2936 C2944 1.574 . S
C2936 C2952 1.368 . S
H2937 C2945 0.950 . S
H2938 C2943 0.950 . S
H2939 C2944 0.949 . S
H2940 C2946 0.950 . S
H2941 C2947 0.950 . S
H2942 C2948 0.949 . S
C2943 H2938 0.950 . S
C2943 C2945 1.327 . S
C2943 C2949 1.429 . S
C2944 C2936 1.574 . S
C2944 H2939 0.949 . S
C2944 C2950 1.368 . S
C2945 C2929 1.349 . S
C2945 H2937 0.950 . S
C2945 C2943 1.327 . S
C2946 C2934 1.349 . S
C2946 H2940 0.950 . S
C2946 C2947 1.327 . S
C2947 H2941 0.950 . S
C2947 C2946 1.327 . S
C2947 C2951 1.429 . S
C2948 C2931 1.574 . S
C2948 H2942 0.949 . S
C2948 C2952 1.368 . S
C2949 C2930 1.429 . S
C2949 C2943 1.429 . S
C2949 C2950 1.523 . S
C2950 C2931 1.368 . S
C2950 C2944 1.368 . S
C2950 C2949 1.523 . S
C2951 C2935 1.429 . S
C2951 C2947 1.429 . S
C2951 C2952 1.523 . S
C2952 C2936 1.368 . S
C2952 C2948 1.368 . S
C2952 C2951 1.523 . S
H2953 C2928 0.950 . S
H2954 C2930 0.950 . S
H2955 C2931 0.949 . S
H2956 C2933 0.950 . S
H2957 C2935 0.950 . S
C2958 C2959 1.349 . S
C2958 C2960 1.327 . S
C2958 H2983 0.950 . S
C2959 C2958 1.349 . S
C2959 C2975 1.349 . S
C2960 C2958 1.327 . S
C2960 C2979 1.429 . S
C2960 H2984 0.950 . S
C2961 C2978 1.574 . S
C2961 C2980 1.368 . S
C2961 H2985 0.949 . S
H2962 C2966 0.949 . S
C2963 C2964 1.349 . S
C2963 C2965 1.327 . S
C2963 H2986 0.950 . S
C2964 C2963 1.349 . S
C2964 C2976 1.349 . S
C2965 C2963 1.327 . S
C2965 C2981 1.429 . S
C2965 H2987 0.950 . S
C2966 H2962 0.949 . S
C2966 C2974 1.574 . S
C2966 C2982 1.368 . S
H2967 C2975 0.950 . S
H2968 C2973 0.950 . S
H2969 C2974 0.949 . S
H2970 C2976 0.950 . S
H2971 C2977 0.950 . S
H2972 C2978 0.949 . S
C2973 H2968 0.950 . S
C2973 C2975 1.327 . S
C2973 C2979 1.429 . S
C2974 C2966 1.574 . S
C2974 H2969 0.949 . S
C2974 C2980 1.368 . S
C2975 C2959 1.349 . S
C2975 H2967 0.950 . S
C2975 C2973 1.327 . S
C2976 C2964 1.349 . S
C2976 H2970 0.950 . S
C2976 C2977 1.327 . S
C2977 H2971 0.950 . S
C2977 C2976 1.327 . S
C2977 C2981 1.429 . S
C2978 C2961 1.574 . S
C2978 H2972 0.949 . S
C2978 C2982 1.368 . S
C2979 C2960 1.429 . S
C2979 C2973 1.429 . S
C2979 C2980 1.523 . S
C2980 C2961 1.368 . S
C2980 C2974 1.368 . S
C2980 C2979 1.523 . S
C2981 C2965 1.429 . S
C2981 C2977 1.429 . S
C2981 C2982 1.523 . S
C2982 C2966 1.368 . S
C2982 C2978 1.368 . S
C2982 C2981 1.523 . S
H2983 C2958 0.950 . S
H2984 C2960 0.950 . S
H2985 C2961 0.949 . S
H2986 C2963 0.950 . S
H2987 C2965 0.950 . S
C2988 C2989 1.349 . S
C2988 C2990 1.327 . S
C2988 H3013 0.950 . S
C2989 C2988 1.349 . S
C2989 C3005 1.349 . S
C2990 C2988 1.327 . S
C2990 C3009 1.429 . S
C2990 H3014 0.950 . S
C2991 C3008 1.574 . S
C2991 C3010 1.368 . S
C2991 H3015 0.949 . S
H2992 C2996 0.949 . S
C2993 C2994 1.349 . S
C2993 C2995 1.327 . S
C2993 H3016 0.950 . S
C2994 C2993 1.349 . S
C2994 C3006 1.349 . S
C2995 C2993 1.327 . S
C2995 C3011 1.429 . S
C2995 H3017 0.950 . S
C2996 H2992 0.949 . S
C2996 C3004 1.574 . S
C2996 C3012 1.368 . S
H2997 C3005 0.950 . S
H2998 C3003 0.950 . S
H2999 C3004 0.949 . S
H3000 C3006 0.950 . S
H3001 C3007 0.950 . S
H3002 C3008 0.949 . S
C3003 H2998 0.950 . S
C3003 C3005 1.327 . S
C3003 C3009 1.429 . S
C3004 C2996 1.574 . S
C3004 H2999 0.949 . S
C3004 C3010 1.368 . S
C3005 C2989 1.349 . S
C3005 H2997 0.950 . S
C3005 C3003 1.327 . S
C3006 C2994 1.349 . S
C3006 H3000 0.950 . S
C3006 C3007 1.327 . S
C3007 H3001 0.950 . S
C3007 C3006 1.327 . S
C3007 C3011 1.429 . S
C3008 C2991 1.574 . S
C3008 H3002 0.949 . S
C3008 C3012 1.368 . S
C3009 C2990 1.429 . S
C3009 C3003 1.429 . S
C3009 C3010 1.523 . S
C3010 C2991 1.368 . S
C3010 C3004 1.368 . S
C3010 C3009 1.523 . S
C3011 C2995 1.429 . S
C3011 C3007 1.429 . S
C3011 C3012 1.523 . S
C3012 C2996 1.368 . S
C3012 C3008 1.368 . S
C3012 C3011 1.523 . S
H3013 C2988 0.950 . S
H3014 C2990 0.950 . S
H3015 C2991 0.949 . S
H3016 C2993 0.950 . S
H3017 C2995 0.950 . S
C3018 C3019 1.349 . S
C3018 C3020 1.327 . S
C3018 H3043 0.950 . S
C3019 C3018 1.349 . S
C3019 C3035 1.349 . S
C3020 C3018 1.327 . S
C3020 C3039 1.429 . S
C3020 H3044 0.950 . S
C3021 C3038 1.574 . S
C3021 C3040 1.368 . S
C3021 H3045 0.949 . S
H3022 C3026 0.949 . S
C3023 C3024 1.349 . S
C3023 C3025 1.327 . S
C3023 H3046 0.950 . S
C3024 C3023 1.349 . S
C3024 C3036 1.349 . S
C3025 C3023 1.327 . S
C3025 C3041 1.429 . S
C3025 H3047 0.950 . S
C3026 H3022 0.949 . S
C3026 C3034 1.574 . S
C3026 C3042 1.368 . S
H3027 C3035 0.950 . S
H3028 C3033 0.950 . S
H3029 C3034 0.949 . S
H3030 C3036 0.950 . S
H3031 C3037 0.950 . S
H3032 C3038 0.949 . S
C3033 H3028 0.950 . S
C3033 C3035 1.327 . S
C3033 C3039 1.429 . S
C3034 C3026 1.574 . S
C3034 H3029 0.949 . S
C3034 C3040 1.368 . S
C3035 C3019 1.349 . S
C3035 H3027 0.950 . S
C3035 C3033 1.327 . S
C3036 C3024 1.349 . S
C3036 H3030 0.950 . S
C3036 C3037 1.327 . S
C3037 H3031 0.950 . S
C3037 C3036 1.327 . S
C3037 C3041 1.429 . S
C3038 C3021 1.574 . S
C3038 H3032 0.949 . S
C3038 C3042 1.368 . S
C3039 C3020 1.429 . S
C3039 C3033 1.429 . S
C3039 C3040 1.523 . S
C3040 C3021 1.368 . S
C3040 C3034 1.368 . S
C3040 C3039 1.523 . S
C3041 C3025 1.429 . S
C3041 C3037 1.429 . S
C3041 C3042 1.523 . S
C3042 C3026 1.368 . S
C3042 C3038 1.368 . S
C3042 C3041 1.523 . S
H3043 C3018 0.950 . S
H3044 C3020 0.950 . S
H3045 C3021 0.949 . S
H3046 C3023 0.950 . S
H3047 C3025 0.950 . S
C3048 C3049 1.349 . S
C3048 C3050 1.327 . S
C3048 H3073 0.950 . S
C3049 C3048 1.349 . S
C3049 C3065 1.349 . S
C3050 C3048 1.327 . S
C3050 C3069 1.429 . S
C3050 H3074 0.950 . S
C3051 C3068 1.574 . S
C3051 C3070 1.368 . S
C3051 H3075 0.949 . S
H3052 C3056 0.949 . S
C3053 C3054 1.349 . S
C3053 C3055 1.327 . S
C3053 H3076 0.950 . S
C3054 C3053 1.349 . S
C3054 C3066 1.349 . S
C3055 C3053 1.327 . S
C3055 C3071 1.429 . S
C3055 H3077 0.950 . S
C3056 H3052 0.949 . S
C3056 C3064 1.574 . S
C3056 C3072 1.368 . S
H3057 C3065 0.950 . S
H3058 C3063 0.950 . S
H3059 C3064 0.949 . S
H3060 C3066 0.950 . S
H3061 C3067 0.950 . S
H3062 C3068 0.949 . S
C3063 H3058 0.950 . S
C3063 C3065 1.327 . S
C3063 C3069 1.429 . S
C3064 C3056 1.574 . S
C3064 H3059 0.949 . S
C3064 C3070 1.368 . S
C3065 C3049 1.349 . S
C3065 H3057 0.950 . S
C3065 C3063 1.327 . S
C3066 C3054 1.349 . S
C3066 H3060 0.950 . S
C3066 C3067 1.327 . S
C3067 H3061 0.950 . S
C3067 C3066 1.327 . S
C3067 C3071 1.429 . S
C3068 C3051 1.574 . S
C3068 H3062 0.949 . S
C3068 C3072 1.368 . S
C3069 C3050 1.429 . S
C3069 C3063 1.429 . S
C3069 C3070 1.523 . S
C3070 C3051 1.368 . S
C3070 C3064 1.368 . S
C3070 C3069 1.523 . S
C3071 C3055 1.429 . S
C3071 C3067 1.429 . S
C3071 C3072 1.523 . S
C3072 C3056 1.368 . S
C3072 C3068 1.368 . S
C3072 C3071 1.523 . S
H3073 C3048 0.950 . S
H3074 C3050 0.950 . S
H3075 C3051 0.949 . S
H3076 C3053 0.950 . S
H3077 C3055 0.950 . S
C3078 C3079 1.349 . S
C3078 C3080 1.327 . S
C3078 H3103 0.950 . S
C3079 C3078 1.349 . S
C3079 C3095 1.349 . S
C3080 C3078 1.327 . S
C3080 C3099 1.429 . S
C3080 H3104 0.950 . S
C3081 C3098 1.574 . S
C3081 C3100 1.368 . S
C3081 H3105 0.949 . S
H3082 C3086 0.949 . S
C3083 C3084 1.349 . S
C3083 C3085 1.327 . S
C3083 H3106 0.950 . S
C3084 C3083 1.349 . S
C3084 C3096 1.349 . S
C3085 C3083 1.327 . S
C3085 C3101 1.429 . S
C3085 H3107 0.950 . S
C3086 H3082 0.949 . S
C3086 C3094 1.574 . S
C3086 C3102 1.368 . S
H3087 C3095 0.950 . S
H3088 C3093 0.950 . S
H3089 C3094 0.949 . S
H3090 C3096 0.950 . S
H3091 C3097 0.950 . S
H3092 C3098 0.949 . S
C3093 H3088 0.950 . S
C3093 C3095 1.327 . S
C3093 C3099 1.429 . S
C3094 C3086 1.574 . S
C3094 H3089 0.949 . S
C3094 C3100 1.368 . S
C3095 C3079 1.349 . S
C3095 H3087 0.950 . S
C3095 C3093 1.327 . S
C3096 C3084 1.349 . S
C3096 H3090 0.950 . S
C3096 C3097 1.327 . S
C3097 H3091 0.950 . S
C3097 C3096 1.327 . S
C3097 C3101 1.429 . S
C3098 C3081 1.574 . S
C3098 H3092 0.949 . S
C3098 C3102 1.368 . S
C3099 C3080 1.429 . S
C3099 C3093 1.429 . S
C3099 C3100 1.523 . S
C3100 C3081 1.368 . S
C3100 C3094 1.368 . S
C3100 C3099 1.523 . S
C3101 C3085 1.429 . S
C3101 C3097 1.429 . S
C3101 C3102 1.523 . S
C3102 C3086 1.368 . S
C3102 C3098 1.368 . S
C3102 C3101 1.523 . S
H3103 C3078 0.950 . S
H3104 C3080 0.950 . S
H3105 C3081 0.949 . S
H3106 C3083 0.950 . S
H3107 C3085 0.950 . S
C3108 C3109 1.349 . S
C3108 C3110 1.327 . S
C3108 H3133 0.950 . S
C3109 C3108 1.349 . S
C3109 C3125 1.349 . S
C3110 C3108 1.327 . S
C3110 C3129 1.429 . S
C3110 H3134 0.950 . S
C3111 C3128 1.574 . S
C3111 C3130 1.368 . S
C3111 H3135 0.949 . S
H3112 C3116 0.949 . S
C3113 C3114 1.349 . S
C3113 C3115 1.327 . S
C3113 H3136 0.950 . S
C3114 C3113 1.349 . S
C3114 C3126 1.349 . S
C3115 C3113 1.327 . S
C3115 C3131 1.429 . S
C3115 H3137 0.950 . S
C3116 H3112 0.949 . S
C3116 C3124 1.574 . S
C3116 C3132 1.368 . S
H3117 C3125 0.950 . S
H3118 C3123 0.950 . S
H3119 C3124 0.949 . S
H3120 C3126 0.950 . S
H3121 C3127 0.950 . S
H3122 C3128 0.949 . S
C3123 H3118 0.950 . S
C3123 C3125 1.327 . S
C3123 C3129 1.429 . S
C3124 C3116 1.574 . S
C3124 H3119 0.949 . S
C3124 C3130 1.368 . S
C3125 C3109 1.349 . S
C3125 H3117 0.950 . S
C3125 C3123 1.327 . S
C3126 C3114 1.349 . S
C3126 H3120 0.950 . S
C3126 C3127 1.327 . S
C3127 H3121 0.950 . S
C3127 C3126 1.327 . S
C3127 C3131 1.429 . S
C3128 C3111 1.574 . S
C3128 H3122 0.949 . S
C3128 C3132 1.368 . S
C3129 C3110 1.429 . S
C3129 C3123 1.429 . S
C3129 C3130 1.523 . S
C3130 C3111 1.368 . S
C3130 C3124 1.368 . S
C3130 C3129 1.523 . S
C3131 C3115 1.429 . S
C3131 C3127 1.429 . S
C3131 C3132 1.523 . S
C3132 C3116 1.368 . S
C3132 C3128 1.368 . S
C3132 C3131 1.523 . S
H3133 C3108 0.950 . S
H3134 C3110 0.950 . S
H3135 C3111 0.949 . S
H3136 C3113 0.950 . S
H3137 C3115 0.950 . S
C3138 C3139 1.349 . S
C3138 C3140 1.327 . S
C3138 H3163 0.950 . S
C3139 C3138 1.349 . S
C3139 C3155 1.349 . S
C3140 C3138 1.327 . S
C3140 C3159 1.429 . S
C3140 H3164 0.950 . S
C3141 C3158 1.574 . S
C3141 C3160 1.368 . S
C3141 H3165 0.949 . S
H3142 C3146 0.949 . S
C3143 C3144 1.349 . S
C3143 C3145 1.327 . S
C3143 H3166 0.950 . S
C3144 C3143 1.349 . S
C3144 C3156 1.349 . S
C3145 C3143 1.327 . S
C3145 C3161 1.429 . S
C3145 H3167 0.950 . S
C3146 H3142 0.949 . S
C3146 C3154 1.574 . S
C3146 C3162 1.368 . S
H3147 C3155 0.950 . S
H3148 C3153 0.950 . S
H3149 C3154 0.949 . S
H3150 C3156 0.950 . S
H3151 C3157 0.950 . S
H3152 C3158 0.949 . S
C3153 H3148 0.950 . S
C3153 C3155 1.327 . S
C3153 C3159 1.429 . S
C3154 C3146 1.574 . S
C3154 H3149 0.949 . S
C3154 C3160 1.368 . S
C3155 C3139 1.349 . S
C3155 H3147 0.950 . S
C3155 C3153 1.327 . S
C3156 C3144 1.349 . S
C3156 H3150 0.950 . S
C3156 C3157 1.327 . S
C3157 H3151 0.950 . S
C3157 C3156 1.327 . S
C3157 C3161 1.429 . S
C3158 C3141 1.574 . S
C3158 H3152 0.949 . S
C3158 C3162 1.368 . S
C3159 C3140 1.429 . S
C3159 C3153 1.429 . S
C3159 C3160 1.523 . S
C3160 C3141 1.368 . S
C3160 C3154 1.368 . S
C3160 C3159 1.523 . S
C3161 C3145 1.429 . S
C3161 C3157 1.429 . S
C3161 C3162 1.523 . S
C3162 C3146 1.368 . S
C3162 C3158 1.368 . S
C3162 C3161 1.523 . S
H3163 C3138 0.950 . S
H3164 C3140 0.950 . S
H3165 C3141 0.949 . S
H3166 C3143 0.950 . S
H3167 C3145 0.950 . S
C3168 C3169 1.349 . S
C3168 C3170 1.327 . S
C3168 H3193 0.950 . S
C3169 C3168 1.349 . S
C3169 C3185 1.349 . S
C3170 C3168 1.327 . S
C3170 C3189 1.429 . S
C3170 H3194 0.950 . S
C3171 C3188 1.574 . S
C3171 C3190 1.368 . S
C3171 H3195 0.949 . S
H3172 C3176 0.949 . S
C3173 C3174 1.349 . S
C3173 C3175 1.327 . S
C3173 H3196 0.950 . S
C3174 C3173 1.349 . S
C3174 C3186 1.349 . S
C3175 C3173 1.327 . S
C3175 C3191 1.429 . S
C3175 H3197 0.950 . S
C3176 H3172 0.949 . S
C3176 C3184 1.574 . S
C3176 C3192 1.368 . S
H3177 C3185 0.950 . S
H3178 C3183 0.950 . S
H3179 C3184 0.949 . S
H3180 C3186 0.950 . S
H3181 C3187 0.950 . S
H3182 C3188 0.949 . S
C3183 H3178 0.950 . S
C3183 C3185 1.327 . S
C3183 C3189 1.429 . S
C3184 C3176 1.574 . S
C3184 H3179 0.949 . S
C3184 C3190 1.368 . S
C3185 C3169 1.349 . S
C3185 H3177 0.950 . S
C3185 C3183 1.327 . S
C3186 C3174 1.349 . S
C3186 H3180 0.950 . S
C3186 C3187 1.327 . S
C3187 H3181 0.950 . S
C3187 C3186 1.327 . S
C3187 C3191 1.429 . S
C3188 C3171 1.574 . S
C3188 H3182 0.949 . S
C3188 C3192 1.368 . S
C3189 C3170 1.429 . S
C3189 C3183 1.429 . S
C3189 C3190 1.523 . S
C3190 C3171 1.368 . S
C3190 C3184 1.368 . S
C3190 C3189 1.523 . S
C3191 C3175 1.429 . S
C3191 C3187 1.429 . S
C3191 C3192 1.523 . S
C3192 C3176 1.368 . S
C3192 C3188 1.368 . S
C3192 C3191 1.523 . S
H3193 C3168 0.950 . S
H3194 C3170 0.950 . S
H3195 C3171 0.949 . S
H3196 C3173 0.950 . S
H3197 C3175 0.950 . S
C3198 C3199 1.349 . S
C3198 C3200 1.327 . S
C3198 H3223 0.950 . S
C3199 C3198 1.349 . S
C3199 C3215 1.349 . S
C3200 C3198 1.327 . S
C3200 C3219 1.429 . S
C3200 H3224 0.950 . S
C3201 C3218 1.574 . S
C3201 C3220 1.368 . S
C3201 H3225 0.949 . S
H3202 C3206 0.949 . S
C3203 C3204 1.349 . S
C3203 C3205 1.327 . S
C3203 H3226 0.950 . S
C3204 C3203 1.349 . S
C3204 C3216 1.349 . S
C3205 C3203 1.327 . S
C3205 C3221 1.429 . S
C3205 H3227 0.950 . S
C3206 H3202 0.949 . S
C3206 C3214 1.574 . S
C3206 C3222 1.368 . S
H3207 C3215 0.950 . S
H3208 C3213 0.950 . S
H3209 C3214 0.949 . S
H3210 C3216 0.950 . S
H3211 C3217 0.950 . S
H3212 C3218 0.949 . S
C3213 H3208 0.950 . S
C3213 C3215 1.327 . S
C3213 C3219 1.429 . S
C3214 C3206 1.574 . S
C3214 H3209 0.949 . S
C3214 C3220 1.368 . S
C3215 C3199 1.349 . S
C3215 H3207 0.950 . S
C3215 C3213 1.327 . S
C3216 C3204 1.349 . S
C3216 H3210 0.950 . S
C3216 C3217 1.327 . S
C3217 H3211 0.950 . S
C3217 C3216 1.327 . S
C3217 C3221 1.429 . S
C3218 C3201 1.574 . S
C3218 H3212 0.949 . S
C3218 C3222 1.368 . S
C3219 C3200 1.429 . S
C3219 C3213 1.429 . S
C3219 C3220 1.523 . S
C3220 C3201 1.368 . S
C3220 C3214 1.368 . S
C3220 C3219 1.523 . S
C3221 C3205 1.429 . S
C3221 C3217 1.429 . S
C3221 C3222 1.523 . S
C3222 C3206 1.368 . S
C3222 C3218 1.368 . S
C3222 C3221 1.523 . S
H3223 C3198 0.950 . S
H3224 C3200 0.950 . S
H3225 C3201 0.949 . S
H3226 C3203 0.950 . S
H3227 C3205 0.950 . S
C3228 C3229 1.349 . S
C3228 C3230 1.327 . S
C3228 H3253 0.950 . S
C3229 C3228 1.349 . S
C3229 C3245 1.349 . S
C3230 C3228 1.327 . S
C3230 C3249 1.429 . S
C3230 H3254 0.950 . S
C3231 C3248 1.574 . S
C3231 C3250 1.368 . S
C3231 H3255 0.949 . S
H3232 C3236 0.949 . S
C3233 C3234 1.349 . S
C3233 C3235 1.327 . S
C3233 H3256 0.950 . S
C3234 C3233 1.349 . S
C3234 C3246 1.349 . S
C3235 C3233 1.327 . S
C3235 C3251 1.429 . S
C3235 H3257 0.950 . S
C3236 H3232 0.949 . S
C3236 C3244 1.574 . S
C3236 C3252 1.368 . S
H3237 C3245 0.950 . S
H3238 C3243 0.950 . S
H3239 C3244 0.949 . S
H3240 C3246 0.950 . S
H3241 C3247 0.950 . S
H3242 C3248 0.949 . S
C3243 H3238 0.950 . S
C3243 C3245 1.327 . S
C3243 C3249 1.429 . S
C3244 C3236 1.574 . S
C3244 H3239 0.949 . S
C3244 C3250 1.368 . S
C3245 C3229 1.349 . S
C3245 H3237 0.950 . S
C3245 C3243 1.327 . S
C3246 C3234 1.349 . S
C3246 H3240 0.950 . S
C3246 C3247 1.327 . S
C3247 H3241 0.950 . S
C3247 C3246 1.327 . S
C3247 C3251 1.429 . S
C3248 C3231 1.574 . S
C3248 H3242 0.949 . S
C3248 C3252 1.368 . S
C3249 C3230 1.429 . S
C3249 C3243 1.429 . S
C3249 C3250 1.523 . S
C3250 C3231 1.368 . S
C3250 C3244 1.368 . S
C3250 C3249 1.523 . S
C3251 C3235 1.429 . S
C3251 C3247 1.429 . S
C3251 C3252 1.523 . S
C3252 C3236 1.368 . S
C3252 C3248 1.368 . S
C3252 C3251 1.523 . S
H3253 C3228 0.950 . S
H3254 C3230 0.950 . S
H3255 C3231 0.949 . S
H3256 C3233 0.950 . S
H3257 C3235 0.950 . S
C3258 C3259 1.349 . S
C3258 C3260 1.327 . S
C3258 H3283 0.950 . S
C3259 C3258 1.349 . S
C3259 C3275 1.349 . S
C3260 C3258 1.327 . S
C3260 C3279 1.429 . S
C3260 H3284 0.950 . S
C3261 C3278 1.574 . S
C3261 C3280 1.368 . S
C3261 H3285 0.949 . S
H3262 C3266 0.949 . S
C3263 C3264 1.349 . S
C3263 C3265 1.327 . S
C3263 H3286 0.950 . S
C3264 C3263 1.349 . S
C3264 C3276 1.349 . S
C3265 C3263 1.327 . S
C3265 C3281 1.429 . S
C3265 H3287 0.950 . S
C3266 H3262 0.949 . S
C3266 C3274 1.574 . S
C3266 C3282 1.368 . S
H3267 C3275 0.950 . S
H3268 C3273 0.950 . S
H3269 C3274 0.949 . S
H3270 C3276 0.950 . S
H3271 C3277 0.950 . S
H3272 C3278 0.949 . S
C3273 H3268 0.950 . S
C3273 C3275 1.327 . S
C3273 C3279 1.429 . S
C3274 C3266 1.574 . S
C3274 H3269 0.949 . S
C3274 C3280 1.368 . S
C3275 C3259 1.349 . S
C3275 H3267 0.950 . S
C3275 C3273 1.327 . S
C3276 C3264 1.349 . S
C3276 H3270 0.950 . S
C3276 C3277 1.327 . S
C3277 H3271 0.950 . S
C3277 C3276 1.327 . S
C3277 C3281 1.429 . S
C3278 C3261 1.574 . S
C3278 H3272 0.949 . S
C3278 C3282 1.368 . S
C3279 C3260 1.429 . S
C3279 C3273 1.429 . S
C3279 C3280 1.523 . S
C3280 C3261 1.368 . S
C3280 C3274 1.368 . S
C3280 C3279 1.523 . S
C3281 C3265 1.429 . S
C3281 C3277 1.429 . S
C3281 C3282 1.523 . S
C3282 C3266 1.368 . S
C3282 C3278 1.368 . S
C3282 C3281 1.523 . S
H3283 C3258 0.950 . S
H3284 C3260 0.950 . S
H3285 C3261 0.949 . S
H3286 C3263 0.950 . S
H3287 C3265 0.950 . S
C3288 C3289 1.349 . S
C3288 C3290 1.327 . S
C3288 H3313 0.950 . S
C3289 C3288 1.349 . S
C3289 C3305 1.349 . S
C3290 C3288 1.327 . S
C3290 C3309 1.429 . S
C3290 H3314 0.950 . S
C3291 C3308 1.574 . S
C3291 C3310 1.368 . S
C3291 H3315 0.949 . S
H3292 C3296 0.949 . S
C3293 C3294 1.349 . S
C3293 C3295 1.327 . S
C3293 H3316 0.950 . S
C3294 C3293 1.349 . S
C3294 C3306 1.349 . S
C3295 C3293 1.327 . S
C3295 C3311 1.429 . S
C3295 H3317 0.950 . S
C3296 H3292 0.949 . S
C3296 C3304 1.574 . S
C3296 C3312 1.368 . S
H3297 C3305 0.950 . S
H3298 C3303 0.950 . S
H3299 C3304 0.949 . S
H3300 C3306 0.950 . S
H3301 C3307 0.950 . S
H3302 C3308 0.949 . S
C3303 H3298 0.950 . S
C3303 C3305 1.327 . S
C3303 C3309 1.429 . S
C3304 C3296 1.574 . S
C3304 H3299 0.949 . S
C3304 C3310 1.368 . S
C3305 C3289 1.349 . S
C3305 H3297 0.950 . S
C3305 C3303 1.327 . S
C3306 C3294 1.349 . S
C3306 H3300 0.950 . S
C3306 C3307 1.327 . S
C3307 H3301 0.950 . S
C3307 C3306 1.327 . S
C3307 C3311 1.429 . S
C3308 C3291 1.574 . S
C3308 H3302 0.949 . S
C3308 C3312 1.368 . S
C3309 C3290 1.429 . S
C3309 C3303 1.429 . S
C3309 C3310 1.523 . S
C3310 C3291 1.368 . S
C3310 C3304 1.368 . S
C3310 C3309 1.523 . S
C3311 C3295 1.429 . S
C3311 C3307 1.429 . S
C3311 C3312 1.523 . S
C3312 C3296 1.368 . S
C3312 C3308 1.368 . S
C3312 C3311 1.523 . S
H3313 C3288 0.950 . S
H3314 C3290 0.950 . S
H3315 C3291 0.949 . S
H3316 C3293 0.950 . S
H3317 C3295 0.950 . S
C3318 C3319 1.349 . S
C3318 C3320 1.327 . S
C3318 H3343 0.950 . S
C3319 C3318 1.349 . S
C3319 C3335 1.349 . S
C3320 C3318 1.327 . S
C3320 C3339 1.429 . S
C3320 H3344 0.950 . S
C3321 C3338 1.574 . S
C3321 C3340 1.368 . S
C3321 H3345 0.949 . S
H3322 C3326 0.949 . S
C3323 C3324 1.349 . S
C3323 C3325 1.327 . S
C3323 H3346 0.950 . S
C3324 C3323 1.349 . S
C3324 C3336 1.349 . S
C3325 C3323 1.327 . S
C3325 C3341 1.429 . S
C3325 H3347 0.950 . S
C3326 H3322 0.949 . S
C3326 C3334 1.574 . S
C3326 C3342 1.368 . S
H3327 C3335 0.950 . S
H3328 C3333 0.950 . S
H3329 C3334 0.949 . S
H3330 C3336 0.950 . S
H3331 C3337 0.950 . S
H3332 C3338 0.949 . S
C3333 H3328 0.950 . S
C3333 C3335 1.327 . S
C3333 C3339 1.429 . S
C3334 C3326 1.574 . S
C3334 H3329 0.949 . S
C3334 C3340 1.368 . S
C3335 C3319 1.349 . S
C3335 H3327 0.950 . S
C3335 C3333 1.327 . S
C3336 C3324 1.349 . S
C3336 H3330 0.950 . S
C3336 C3337 1.327 . S
C3337 H3331 0.950 . S
C3337 C3336 1.327 . S
C3337 C3341 1.429 . S
C3338 C3321 1.574 . S
C3338 H3332 0.949 . S
C3338 C3342 1.368 . S
C3339 C3320 1.429 . S
C3339 C3333 1.429 . S
C3339 C3340 1.523 . S
C3340 C3321 1.368 . S
C3340 C3334 1.368 . S
C3340 C3339 1.523 . S
C3341 C3325 1.429 . S
C3341 C3337 1.429 . S
C3341 C3342 1.523 . S
C3342 C3326 1.368 . S
C3342 C3338 1.368 . S
C3342 C3341 1.523 . S
H3343 C3318 0.950 . S
H3344 C3320 0.950 . S
H3345 C3321 0.949 . S
H3346 C3323 0.950 . S
H3347 C3325 0.950 . S
C3348 C3349 1.349 . S
C3348 C3350 1.327 . S
C3348 H3373 0.950 . S
C3349 C3348 1.349 . S
C3349 C3365 1.349 . S
C3350 C3348 1.327 . S
C3350 C3369 1.429 . S
C3350 H3374 0.950 . S
C3351 C3368 1.574 . S
C3351 C3370 1.368 . S
C3351 H3375 0.949 . S
H3352 C3356 0.949 . S
C3353 C3354 1.349 . S
C3353 C3355 1.327 . S
C3353 H3376 0.950 . S
C3354 C3353 1.349 . S
C3354 C3366 1.349 . S
C3355 C3353 1.327 . S
C3355 C3371 1.429 . S
C3355 H3377 0.950 . S
C3356 H3352 0.949 . S
C3356 C3364 1.574 . S
C3356 C3372 1.368 . S
H3357 C3365 0.950 . S
H3358 C3363 0.950 . S
H3359 C3364 0.949 . S
H3360 C3366 0.950 . S
H3361 C3367 0.950 . S
H3362 C3368 0.949 . S
C3363 H3358 0.950 . S
C3363 C3365 1.327 . S
C3363 C3369 1.429 . S
C3364 C3356 1.574 . S
C3364 H3359 0.949 . S
C3364 C3370 1.368 . S
C3365 C3349 1.349 . S
C3365 H3357 0.950 . S
C3365 C3363 1.327 . S
C3366 C3354 1.349 . S
C3366 H3360 0.950 . S
C3366 C3367 1.327 . S
C3367 H3361 0.950 . S
C3367 C3366 1.327 . S
C3367 C3371 1.429 . S
C3368 C3351 1.574 . S
C3368 H3362 0.949 . S
C3368 C3372 1.368 . S
C3369 C3350 1.429 . S
C3369 C3363 1.429 . S
C3369 C3370 1.523 . S
C3370 C3351 1.368 . S
C3370 C3364 1.368 . S
C3370 C3369 1.523 . S
C3371 C3355 1.429 . S
C3371 C3367 1.429 . S
C3371 C3372 1.523 . S
C3372 C3356 1.368 . S
C3372 C3368 1.368 . S
C3372 C3371 1.523 . S
H3373 C3348 0.950 . S
H3374 C3350 0.950 . S
H3375 C3351 0.949 . S
H3376 C3353 0.950 . S
H3377 C3355 0.950 . S
C3378 C3379 1.349 . S
C3378 C3380 1.327 . S
C3378 H3403 0.950 . S
C3379 C3378 1.349 . S
C3379 C3395 1.349 . S
C3380 C3378 1.327 . S
C3380 C3399 1.429 . S
C3380 H3404 0.950 . S
C3381 C3398 1.574 . S
C3381 C3400 1.368 . S
C3381 H3405 0.949 . S
H3382 C3386 0.949 . S
C3383 C3384 1.349 . S
C3383 C3385 1.327 . S
C3383 H3406 0.950 . S
C3384 C3383 1.349 . S
C3384 C3396 1.349 . S
C3385 C3383 1.327 . S
C3385 C3401 1.429 . S
C3385 H3407 0.950 . S
C3386 H3382 0.949 . S
C3386 C3394 1.574 . S
C3386 C3402 1.368 . S
H3387 C3395 0.950 . S
H3388 C3393 0.950 . S
H3389 C3394 0.949 . S
H3390 C3396 0.950 . S
H3391 C3397 0.950 . S
H3392 C3398 0.949 . S
C3393 H3388 0.950 . S
C3393 C3395 1.327 . S
C3393 C3399 1.429 . S
C3394 C3386 1.574 . S
C3394 H3389 0.949 . S
C3394 C3400 1.368 . S
C3395 C3379 1.349 . S
C3395 H3387 0.950 . S
C3395 C3393 1.327 . S
C3396 C3384 1.349 . S
C3396 H3390 0.950 . S
C3396 C3397 1.327 . S
C3397 H3391 0.950 . S
C3397 C3396 1.327 . S
C3397 C3401 1.429 . S
C3398 C3381 1.574 . S
C3398 H3392 0.949 . S
C3398 C3402 1.368 . S
C3399 C3380 1.429 . S
C3399 C3393 1.429 . S
C3399 C3400 1.523 . S
C3400 C3381 1.368 . S
C3400 C3394 1.368 . S
C3400 C3399 1.523 . S
C3401 C3385 1.429 . S
C3401 C3397 1.429 . S
C3401 C3402 1.523 . S
C3402 C3386 1.368 . S
C3402 C3398 1.368 . S
C3402 C3401 1.523 . S
H3403 C3378 0.950 . S
H3404 C3380 0.950 . S
H3405 C3381 0.949 . S
H3406 C3383 0.950 . S
H3407 C3385 0.950 . S
C3408 C3409 1.349 . S
C3408 C3410 1.327 . S
C3408 H3433 0.950 . S
C3409 C3408 1.349 . S
C3409 C3425 1.349 . S
C3410 C3408 1.327 . S
C3410 C3429 1.429 . S
C3410 H3434 0.950 . S
C3411 C3428 1.574 . S
C3411 C3430 1.368 . S
C3411 H3435 0.949 . S
H3412 C3416 0.949 . S
C3413 C3414 1.349 . S
C3413 C3415 1.327 . S
C3413 H3436 0.950 . S
C3414 C3413 1.349 . S
C3414 C3426 1.349 . S
C3415 C3413 1.327 . S
C3415 C3431 1.429 . S
C3415 H3437 0.950 . S
C3416 H3412 0.949 . S
C3416 C3424 1.574 . S
C3416 C3432 1.368 . S
H3417 C3425 0.950 . S
H3418 C3423 0.950 . S
H3419 C3424 0.949 . S
H3420 C3426 0.950 . S
H3421 C3427 0.950 . S
H3422 C3428 0.949 . S
C3423 H3418 0.950 . S
C3423 C3425 1.327 . S
C3423 C3429 1.429 . S
C3424 C3416 1.574 . S
C3424 H3419 0.949 . S
C3424 C3430 1.368 . S
C3425 C3409 1.349 . S
C3425 H3417 0.950 . S
C3425 C3423 1.327 . S
C3426 C3414 1.349 . S
C3426 H3420 0.950 . S
C3426 C3427 1.327 . S
C3427 H3421 0.950 . S
C3427 C3426 1.327 . S
C3427 C3431 1.429 . S
C3428 C3411 1.574 . S
C3428 H3422 0.949 . S
C3428 C3432 1.368 . S
C3429 C3410 1.429 . S
C3429 C3423 1.429 . S
C3429 C3430 1.523 . S
C3430 C3411 1.368 . S
C3430 C3424 1.368 . S
C3430 C3429 1.523 . S
C3431 C3415 1.429 . S
C3431 C3427 1.429 . S
C3431 C3432 1.523 . S
C3432 C3416 1.368 . S
C3432 C3428 1.368 . S
C3432 C3431 1.523 . S
H3433 C3408 0.950 . S
H3434 C3410 0.950 . S
H3435 C3411 0.949 . S
H3436 C3413 0.950 . S
H3437 C3415 0.950 . S
C3438 C3439 1.349 . S
C3438 C3440 1.327 . S
C3438 H3463 0.950 . S
C3439 C3438 1.349 . S
C3439 C3455 1.349 . S
C3440 C3438 1.327 . S
C3440 C3459 1.429 . S
C3440 H3464 0.950 . S
C3441 C3458 1.574 . S
C3441 C3460 1.368 . S
C3441 H3465 0.949 . S
H3442 C3446 0.949 . S
C3443 C3444 1.349 . S
C3443 C3445 1.327 . S
C3443 H3466 0.950 . S
C3444 C3443 1.349 . S
C3444 C3456 1.349 . S
C3445 C3443 1.327 . S
C3445 C3461 1.429 . S
C3445 H3467 0.950 . S
C3446 H3442 0.949 . S
C3446 C3454 1.574 . S
C3446 C3462 1.368 . S
H3447 C3455 0.950 . S
H3448 C3453 0.950 . S
H3449 C3454 0.949 . S
H3450 C3456 0.950 . S
H3451 C3457 0.950 . S
H3452 C3458 0.949 . S
C3453 H3448 0.950 . S
C3453 C3455 1.327 . S
C3453 C3459 1.429 . S
C3454 C3446 1.574 . S
C3454 H3449 0.949 . S
C3454 C3460 1.368 . S
C3455 C3439 1.349 . S
C3455 H3447 0.950 . S
C3455 C3453 1.327 . S
C3456 C3444 1.349 . S
C3456 H3450 0.950 . S
C3456 C3457 1.327 . S
C3457 H3451 0.950 . S
C3457 C3456 1.327 . S
C3457 C3461 1.429 . S
C3458 C3441 1.574 . S
C3458 H3452 0.949 . S
C3458 C3462 1.368 . S
C3459 C3440 1.429 . S
C3459 C3453 1.429 . S
C3459 C3460 1.523 . S
C3460 C3441 1.368 . S
C3460 C3454 1.368 . S
C3460 C3459 1.523 . S
C3461 C3445 1.429 . S
C3461 C3457 1.429 . S
C3461 C3462 1.523 . S
C3462 C3446 1.368 . S
C3462 C3458 1.368 . S
C3462 C3461 1.523 . S
H3463 C3438 0.950 . S
H3464 C3440 0.950 . S
H3465 C3441 0.949 . S
H3466 C3443 0.950 . S
H3467 C3445 0.950 . S
C3468 C3469 1.349 . S
C3468 C3470 1.327 . S
C3468 H3493 0.950 . S
C3469 C3468 1.349 . S
C3469 C3485 1.349 . S
C3470 C3468 1.327 . S
C3470 C3489 1.429 . S
C3470 H3494 0.950 . S
C3471 C3488 1.574 . S
C3471 C3490 1.368 . S
C3471 H3495 0.949 . S
H3472 C3476 0.949 . S
C3473 C3474 1.349 . S
C3473 C3475 1.327 . S
C3473 H3496 0.950 . S
C3474 C3473 1.349 . S
C3474 C3486 1.349 . S
C3475 C3473 1.327 . S
C3475 C3491 1.429 . S
C3475 H3497 0.950 . S
C3476 H3472 0.949 . S
C3476 C3484 1.574 . S
C3476 C3492 1.368 . S
H3477 C3485 0.950 . S
H3478 C3483 0.950 . S
H3479 C3484 0.949 . S
H3480 C3486 0.950 . S
H3481 C3487 0.950 . S
H3482 C3488 0.949 . S
C3483 H3478 0.950 . S
C3483 C3485 1.327 . S
C3483 C3489 1.429 . S
C3484 C3476 1.574 . S
C3484 H3479 0.949 . S
C3484 C3490 1.368 . S
C3485 C3469 1.349 . S
C3485 H3477 0.950 . S
C3485 C3483 1.327 . S
C3486 C3474 1.349 . S
C3486 H3480 0.950 . S
C3486 C3487 1.327 . S
C3487 H3481 0.950 . S
C3487 C3486 1.327 . S
C3487 C3491 1.429 . S
C3488 C3471 1.574 . S
C3488 H3482 0.949 . S
C3488 C3492 1.368 . S
C3489 C3470 1.429 . S
C3489 C3483 1.429 . S
C3489 C3490 1.523 . S
C3490 C3471 1.368 . S
C3490 C3484 1.368 . S
C3490 C3489 1.523 . S
C3491 C3475 1.429 . S
C3491 C3487 1.429 . S
C3491 C3492 1.523 . S
C3492 C3476 1.368 . S
C3492 C3488 1.368 . S
C3492 C3491 1.523 . S
H3493 C3468 0.950 . S
H3494 C3470 0.950 . S
H3495 C3471 0.949 . S
H3496 C3473 0.950 . S
H3497 C3475 0.950 . S
C3498 C3499 1.349 . S
C3498 C3500 1.327 . S
C3498 H3523 0.950 . S
C3499 C3498 1.349 . S
C3499 C3515 1.349 . S
C3500 C3498 1.327 . S
C3500 C3519 1.429 . S
C3500 H3524 0.950 . S
C3501 C3518 1.574 . S
C3501 C3520 1.368 . S
C3501 H3525 0.949 . S
H3502 C3506 0.949 . S
C3503 C3504 1.349 . S
C3503 C3505 1.327 . S
C3503 H3526 0.950 . S
C3504 C3503 1.349 . S
C3504 C3516 1.349 . S
C3505 C3503 1.327 . S
C3505 C3521 1.429 . S
C3505 H3527 0.950 . S
C3506 H3502 0.949 . S
C3506 C3514 1.574 . S
C3506 C3522 1.368 . S
H3507 C3515 0.950 . S
H3508 C3513 0.950 . S
H3509 C3514 0.949 . S
H3510 C3516 0.950 . S
H3511 C3517 0.950 . S
H3512 C3518 0.949 . S
C3513 H3508 0.950 . S
C3513 C3515 1.327 . S
C3513 C3519 1.429 . S
C3514 C3506 1.574 . S
C3514 H3509 0.949 . S
C3514 C3520 1.368 . S
C3515 C3499 1.349 . S
C3515 H3507 0.950 . S
C3515 C3513 1.327 . S
C3516 C3504 1.349 . S
C3516 H3510 0.950 . S
C3516 C3517 1.327 . S
C3517 H3511 0.950 . S
C3517 C3516 1.327 . S
C3517 C3521 1.429 . S
C3518 C3501 1.574 . S
C3518 H3512 0.949 . S
C3518 C3522 1.368 . S
C3519 C3500 1.429 . S
C3519 C3513 1.429 . S
C3519 C3520 1.523 . S
C3520 C3501 1.368 . S
C3520 C3514 1.368 . S
C3520 C3519 1.523 . S
C3521 C3505 1.429 . S
C3521 C3517 1.429 . S
C3521 C3522 1.523 . S
C3522 C3506 1.368 . S
C3522 C3518 1.368 . S
C3522 C3521 1.523 . S
H3523 C3498 0.950 . S
H3524 C3500 0.950 . S
H3525 C3501 0.949 . S
H3526 C3503 0.950 . S
H3527 C3505 0.950 . S
C3528 C3529 1.349 . S
C3528 C3530 1.327 . S
C3528 H3553 0.950 . S
C3529 C3528 1.349 . S
C3529 C3545 1.349 . S
C3530 C3528 1.327 . S
C3530 C3549 1.429 . S
C3530 H3554 0.950 . S
C3531 C3548 1.574 . S
C3531 C3550 1.368 . S
C3531 H3555 0.949 . S
H3532 C3536 0.949 . S
C3533 C3534 1.349 . S
C3533 C3535 1.327 . S
C3533 H3556 0.950 . S
C3534 C3533 1.349 . S
C3534 C3546 1.349 . S
C3535 C3533 1.327 . S
C3535 C3551 1.429 . S
C3535 H3557 0.950 . S
C3536 H3532 0.949 . S
C3536 C3544 1.574 . S
C3536 C3552 1.368 . S
H3537 C3545 0.950 . S
H3538 C3543 0.950 . S
H3539 C3544 0.949 . S
H3540 C3546 0.950 . S
H3541 C3547 0.950 . S
H3542 C3548 0.949 . S
C3543 H3538 0.950 . S
C3543 C3545 1.327 . S
C3543 C3549 1.429 . S
C3544 C3536 1.574 . S
C3544 H3539 0.949 . S
C3544 C3550 1.368 . S
C3545 C3529 1.349 . S
C3545 H3537 0.950 . S
C3545 C3543 1.327 . S
C3546 C3534 1.349 . S
C3546 H3540 0.950 . S
C3546 C3547 1.327 . S
C3547 H3541 0.950 . S
C3547 C3546 1.327 . S
C3547 C3551 1.429 . S
C3548 C3531 1.574 . S
C3548 H3542 0.949 . S
C3548 C3552 1.368 . S
C3549 C3530 1.429 . S
C3549 C3543 1.429 . S
C3549 C3550 1.523 . S
C3550 C3531 1.368 . S
C3550 C3544 1.368 . S
C3550 C3549 1.523 . S
C3551 C3535 1.429 . S
C3551 C3547 1.429 . S
C3551 C3552 1.523 . S
C3552 C3536 1.368 . S
C3552 C3548 1.368 . S
C3552 C3551 1.523 . S
H3553 C3528 0.950 . S
H3554 C3530 0.950 . S
H3555 C3531 0.949 . S
H3556 C3533 0.950 . S
H3557 C3535 0.950 . S
C3558 C3559 1.349 . S
C3558 C3560 1.327 . S
C3558 H3583 0.950 . S
C3559 C3558 1.349 . S
C3559 C3575 1.349 . S
C3560 C3558 1.327 . S
C3560 C3579 1.429 . S
C3560 H3584 0.950 . S
C3561 C3578 1.574 . S
C3561 C3580 1.368 . S
C3561 H3585 0.949 . S
H3562 C3566 0.949 . S
C3563 C3564 1.349 . S
C3563 C3565 1.333 . S
C3563 H3586 0.950 . S
C3564 C3563 1.349 . S
C3564 C3576 1.349 . S
C3565 C3563 1.333 . S
C3565 C3581 1.463 . S
C3565 H3587 0.913 1_545 S
C3566 H3562 0.949 . S
C3566 C3574 1.574 1_545 S
C3566 C3582 1.368 1_545 S
H3567 C3575 0.950 . S
H3568 C3573 0.950 . S
H3569 C3574 0.949 . S
H3570 C3576 0.950 . S
H3571 C3577 0.950 . S
H3572 C3578 0.949 . S
C3573 H3568 0.950 . S
C3573 C3575 1.327 . S
C3573 C3579 1.429 . S
C3574 C3566 1.574 1_565 S
C3574 H3569 0.949 . S
C3574 C3580 1.368 . S
C3575 C3559 1.349 . S
C3575 H3567 0.950 . S
C3575 C3573 1.327 . S
C3576 C3564 1.349 . S
C3576 H3570 0.950 . S
C3576 C3577 1.327 . S
C3577 H3571 0.950 . S
C3577 C3576 1.327 . S
C3577 C3581 1.429 . S
C3578 C3561 1.574 . S
C3578 H3572 0.949 . S
C3578 C3582 1.368 . S
C3579 C3560 1.429 . S
C3579 C3573 1.429 . S
C3579 C3580 1.523 . S
C3580 C3561 1.368 . S
C3580 C3574 1.368 . S
C3580 C3579 1.523 . S
C3581 C3565 1.463 . S
C3581 C3577 1.429 . S
C3581 C3582 1.523 1_545 S
C3582 C3566 1.368 1_565 S
C3582 C3578 1.368 . S
C3582 C3581 1.523 1_565 S
H3583 C3558 0.950 . S
H3584 C3560 0.950 . S
H3585 C3561 0.949 . S
H3586 C3563 0.950 . S
H3587 C3565 0.913 1_565 S
C3588 C3589 1.349 . S
C3588 C3590 1.327 . S
C3588 H3613 0.950 . S
C3589 C3588 1.349 . S
C3589 C3605 1.349 1_655 S
C3590 C3588 1.327 . S
C3590 C3609 1.429 1_655 S
C3590 H3614 0.950 . S
C3591 C3608 1.574 . S
C3591 C3610 1.368 . S
C3591 H3615 0.949 . S
H3592 C3596 0.949 . S
C3593 C3594 1.349 . S
C3593 C3595 1.327 . S
C3593 H3616 0.950 . S
C3594 C3593 1.349 . S
C3594 C3606 1.349 . S
C3595 C3593 1.327 . S
C3595 C3611 1.429 . S
C3595 H3617 0.950 . S
C3596 H3592 0.949 . S
C3596 C3604 1.574 . S
C3596 C3612 1.368 . S
H3597 C3605 0.950 . S
H3598 C3603 0.950 . S
H3599 C3604 0.991 . S
H3600 C3606 0.950 . S
H3601 C3607 0.950 . S
H3602 C3608 0.949 . S
C3603 H3598 0.950 . S
C3603 C3605 1.327 . S
C3603 C3609 1.429 . S
C3604 C3596 1.574 . S
C3604 H3599 0.991 . S
C3604 C3610 1.368 . S
C3605 C3589 1.349 1_455 S
C3605 H3597 0.950 . S
C3605 C3603 1.327 . S
C3606 C3594 1.349 . S
C3606 H3600 0.950 . S
C3606 C3607 1.327 . S
C3607 H3601 0.950 . S
C3607 C3606 1.327 . S
C3607 C3611 1.429 . S
C3608 C3591 1.574 . S
C3608 H3602 0.949 . S
C3608 C3612 1.368 . S
C3609 C3590 1.429 1_455 S
C3609 C3603 1.429 . S
C3609 C3610 1.523 . S
C3610 C3591 1.368 . S
C3610 C3604 1.368 . S
C3610 C3609 1.523 . S
C3611 C3595 1.429 . S
C3611 C3607 1.429 . S
C3611 C3612 1.523 . S
C3612 C3596 1.368 . S
C3612 C3608 1.368 . S
C3612 C3611 1.523 . S
H3613 C3588 0.950 . S
H3614 C3590 0.950 . S
H3615 C3591 0.949 . S
H3616 C3593 0.950 . S
H3617 C3595 0.950 . S
C3618 C3619 1.349 . S
C3618 C3620 1.327 . S
C3618 H3643 0.950 . S
C3619 C3618 1.349 . S
C3619 C3635 1.349 . S
C3620 C3618 1.327 . S
C3620 C3639 1.429 . S
C3620 H3644 0.950 . S
C3621 C3638 1.574 . S
C3621 C3640 1.368 . S
C3621 H3645 0.949 . S
H3622 C3626 0.949 . S
C3623 C3624 1.349 . S
C3623 C3625 1.327 . S
C3623 H3646 0.950 . S
C3624 C3623 1.349 . S
C3624 C3636 1.349 . S
C3625 C3623 1.327 . S
C3625 C3641 1.429 . S
C3625 H3647 0.950 . S
C3626 H3622 0.949 . S
C3626 C3634 1.574 . S
C3626 C3642 1.368 . S
H3627 C3635 0.950 . S
H3628 C3633 0.950 . S
H3629 C3634 0.949 . S
H3630 C3636 0.950 . S
H3631 C3637 0.950 . S
H3632 C3638 0.949 . S
C3633 H3628 0.950 . S
C3633 C3635 1.327 . S
C3633 C3639 1.429 . S
C3634 C3626 1.574 . S
C3634 H3629 0.949 . S
C3634 C3640 1.368 . S
C3635 C3619 1.349 . S
C3635 H3627 0.950 . S
C3635 C3633 1.327 . S
C3636 C3624 1.349 . S
C3636 H3630 0.950 . S
C3636 C3637 1.327 . S
C3637 H3631 0.950 . S
C3637 C3636 1.327 . S
C3637 C3641 1.429 . S
C3638 C3621 1.574 . S
C3638 H3632 0.949 . S
C3638 C3642 1.368 . S
C3639 C3620 1.429 . S
C3639 C3633 1.429 . S
C3639 C3640 1.523 . S
C3640 C3621 1.368 . S
C3640 C3634 1.368 . S
C3640 C3639 1.523 . S
C3641 C3625 1.429 . S
C3641 C3637 1.429 . S
C3641 C3642 1.523 . S
C3642 C3626 1.368 . S
C3642 C3638 1.368 . S
C3642 C3641 1.523 . S
H3643 C3618 0.950 . S
H3644 C3620 0.950 . S
H3645 C3621 0.949 . S
H3646 C3623 0.950 . S
H3647 C3625 0.950 . S
C3648 C3649 1.349 . S
C3648 C3650 1.327 . S
C3648 H3673 0.950 . S
C3649 C3648 1.349 . S
C3649 C3665 1.349 . S
C3650 C3648 1.327 . S
C3650 C3669 1.429 . S
C3650 H3674 0.950 . S
C3651 C3668 1.574 . S
C3651 C3670 1.368 . S
C3651 H3675 0.949 . S
H3652 C3656 0.949 . S
C3653 C3654 1.349 . S
C3653 C3655 1.327 . S
C3653 H3676 0.950 . S
C3654 C3653 1.349 . S
C3654 C3666 1.349 . S
C3655 C3653 1.327 . S
C3655 C3671 1.429 . S
C3655 H3677 0.950 1_565 S
C3656 H3652 0.949 . S
C3656 C3664 1.574 1_565 S
C3656 C3672 1.368 1_565 S
H3657 C3665 0.950 . S
H3658 C3663 0.950 . S
H3659 C3664 0.949 . S
H3660 C3666 0.950 . S
H3661 C3667 0.950 . S
H3662 C3668 0.949 . S
C3663 H3658 0.950 . S
C3663 C3665 1.327 . S
C3663 C3669 1.429 . S
C3664 C3656 1.574 1_545 S
C3664 H3659 0.949 . S
C3664 C3670 1.368 . S
C3665 C3649 1.349 . S
C3665 H3657 0.950 . S
C3665 C3663 1.327 . S
C3666 C3654 1.349 . S
C3666 H3660 0.950 . S
C3666 C3667 1.327 . S
C3667 H3661 0.950 . S
C3667 C3666 1.327 . S
C3667 C3671 1.429 . S
C3668 C3651 1.574 . S
C3668 H3662 0.949 . S
C3668 C3672 1.368 . S
C3669 C3650 1.429 . S
C3669 C3663 1.429 . S
C3669 C3670 1.523 . S
C3670 C3651 1.368 . S
C3670 C3664 1.368 . S
C3670 C3669 1.523 . S
C3671 C3655 1.429 . S
C3671 C3667 1.429 . S
C3671 C3672 1.523 1_565 S
C3672 C3656 1.368 1_545 S
C3672 C3668 1.368 . S
C3672 C3671 1.523 1_545 S
H3673 C3648 0.950 . S
H3674 C3650 0.950 . S
H3675 C3651 0.949 . S
H3676 C3653 0.950 . S
H3677 C3655 0.950 1_545 S
C3678 C3679 1.349 1_655 S
C3678 C3680 1.327 . S
C3678 H3703 0.950 . S
C3679 C3678 1.349 1_455 S
C3679 C3695 1.349 . S
C3680 C3678 1.327 . S
C3680 C3699 1.429 . S
C3680 H3704 0.950 . S
C3681 C3698 1.574 . S
C3681 C3700 1.368 . S
C3681 H3705 1.016 . S
H3682 C3686 0.949 . S
C3683 C3684 1.349 . S
C3683 C3685 1.327 . S
C3683 H3706 0.950 . S
C3684 C3683 1.349 . S
C3684 C3696 1.349 . S
C3685 C3683 1.327 . S
C3685 C3701 1.429 . S
C3685 H3707 0.950 . S
C3686 H3682 0.949 . S
C3686 C3694 1.574 . S
C3686 C3702 1.368 . S
H3687 C3695 0.950 . S
H3688 C3693 0.950 . S
H3689 C3694 0.949 . S
H3690 C3696 0.950 . S
H3691 C3697 0.950 . S
H3692 C3698 0.949 . S
C3693 H3688 0.950 . S
C3693 C3695 1.327 . S
C3693 C3699 1.429 1_455 S
C3694 C3686 1.574 . S
C3694 H3689 0.949 . S
C3694 C3700 1.368 . S
C3695 C3679 1.349 . S
C3695 H3687 0.950 . S
C3695 C3693 1.327 . S
C3696 C3684 1.349 . S
C3696 H3690 0.950 . S
C3696 C3697 1.327 . S
C3697 H3691 0.950 . S
C3697 C3696 1.327 . S
C3697 C3701 1.429 . S
C3698 C3681 1.574 . S
C3698 H3692 0.949 . S
C3698 C3702 1.368 . S
C3699 C3680 1.429 . S
C3699 C3693 1.429 1_655 S
C3699 C3700 1.523 . S
C3700 C3681 1.368 . S
C3700 C3694 1.368 . S
C3700 C3699 1.523 . S
C3701 C3685 1.429 . S
C3701 C3697 1.429 . S
C3701 C3702 1.523 . S
C3702 C3686 1.368 . S
C3702 C3698 1.368 . S
C3702 C3701 1.523 . S
H3703 C3678 0.950 . S
H3704 C3680 0.950 . S
H3705 C3681 1.016 . S
H3706 C3683 0.950 . S
H3707 C3685 0.950 . S
C3708 C3709 1.349 . S
C3708 C3710 1.327 . S
C3708 H3733 0.950 . S
C3709 C3708 1.349 . S
C3709 C3725 1.349 . S
C3710 C3708 1.327 . S
C3710 C3729 1.429 . S
C3710 H3734 0.950 . S
C3711 C3728 1.574 . S
C3711 C3730 1.368 . S
C3711 H3735 0.949 . S
H3712 C3716 0.949 . S
C3713 C3714 1.349 . S
C3713 C3715 1.327 . S
C3713 H3736 0.950 . S
C3714 C3713 1.349 . S
C3714 C3726 1.349 . S
C3715 C3713 1.327 . S
C3715 C3731 1.429 . S
C3715 H3737 0.950 . S
C3716 H3712 0.949 . S
C3716 C3724 1.574 . S
C3716 C3732 1.368 . S
H3717 C3725 0.950 . S
H3718 C3723 0.950 . S
H3719 C3724 0.949 . S
H3720 C3726 0.950 . S
H3721 C3727 0.950 . S
H3722 C3728 0.949 . S
C3723 H3718 0.950 . S
C3723 C3725 1.327 . S
C3723 C3729 1.429 . S
C3724 C3716 1.574 . S
C3724 H3719 0.949 . S
C3724 C3730 1.368 . S
C3725 C3709 1.349 . S
C3725 H3717 0.950 . S
C3725 C3723 1.327 . S
C3726 C3714 1.349 . S
C3726 H3720 0.950 . S
C3726 C3727 1.327 . S
C3727 H3721 0.950 . S
C3727 C3726 1.327 . S
C3727 C3731 1.429 . S
C3728 C3711 1.574 . S
C3728 H3722 0.949 . S
C3728 C3732 1.368 . S
C3729 C3710 1.429 . S
C3729 C3723 1.429 . S
C3729 C3730 1.523 . S
C3730 C3711 1.368 . S
C3730 C3724 1.368 . S
C3730 C3729 1.523 . S
C3731 C3715 1.429 . S
C3731 C3727 1.429 . S
C3731 C3732 1.523 . S
C3732 C3716 1.368 . S
C3732 C3728 1.368 . S
C3732 C3731 1.523 . S
H3733 C3708 0.950 . S
H3734 C3710 0.950 . S
H3735 C3711 0.949 . S
H3736 C3713 0.950 . S
H3737 C3715 0.950 . S
C3738 C3739 1.349 . S
C3738 C3740 1.327 1_565 S
C3738 H3763 0.950 . S
C3739 C3738 1.349 . S
C3739 C3755 1.349 1_565 S
C3740 C3738 1.327 1_545 S
C3740 C3759 1.429 . S
C3740 H3764 0.950 . S
C3741 C3758 1.574 . S
C3741 C3760 1.368 . S
C3741 H3765 0.949 . S
H3742 C3746 0.949 . S
C3743 C3744 1.349 . S
C3743 C3745 1.327 . S
C3743 H3766 0.950 . S
C3744 C3743 1.349 . S
C3744 C3756 1.349 . S
C3745 C3743 1.327 . S
C3745 C3761 1.429 . S
C3745 H3767 0.950 . S
C3746 H3742 0.949 . S
C3746 C3754 1.574 . S
C3746 C3762 1.368 . S
H3747 C3755 0.950 . S
H3748 C3753 0.950 . S
H3749 C3754 0.949 . S
H3750 C3756 0.950 . S
H3751 C3757 0.950 . S
H3752 C3758 0.949 . S
C3753 H3748 0.950 . S
C3753 C3755 1.327 . S
C3753 C3759 1.429 . S
C3754 C3746 1.574 . S
C3754 H3749 0.949 . S
C3754 C3760 1.368 . S
C3755 C3739 1.349 1_545 S
C3755 H3747 0.950 . S
C3755 C3753 1.327 . S
C3756 C3744 1.349 . S
C3756 H3750 0.950 . S
C3756 C3757 1.327 . S
C3757 H3751 0.950 . S
C3757 C3756 1.327 . S
C3757 C3761 1.429 . S
C3758 C3741 1.574 . S
C3758 H3752 0.949 . S
C3758 C3762 1.368 . S
C3759 C3740 1.429 . S
C3759 C3753 1.429 . S
C3759 C3760 1.523 . S
C3760 C3741 1.368 . S
C3760 C3754 1.368 . S
C3760 C3759 1.523 . S
C3761 C3745 1.429 . S
C3761 C3757 1.429 . S
C3761 C3762 1.523 . S
C3762 C3746 1.368 . S
C3762 C3758 1.368 . S
C3762 C3761 1.523 . S
H3763 C3738 0.950 . S
H3764 C3740 0.950 . S
H3765 C3741 0.949 . S
H3766 C3743 0.950 . S
H3767 C3745 0.950 . S
C3768 C3769 1.349 . S
C3768 C3770 1.327 1_455 S
C3768 H3793 0.950 . S
C3769 C3768 1.349 . S
C3769 C3785 1.349 1_455 S
C3770 C3768 1.327 1_655 S
C3770 C3789 1.429 . S
C3770 H3794 0.950 . S
C3771 C3788 1.574 . S
C3771 C3790 1.368 . S
C3771 H3795 0.949 . S
H3772 C3776 0.949 . S
C3773 C3774 1.349 . S
C3773 C3775 1.327 . S
C3773 H3796 0.950 . S
C3774 C3773 1.349 . S
C3774 C3786 1.349 . S
C3775 C3773 1.327 . S
C3775 C3791 1.429 . S
C3775 H3797 0.950 . S
C3776 H3772 0.949 . S
C3776 C3784 1.574 . S
C3776 C3792 1.368 . S
H3777 C3785 0.950 . S
H3778 C3783 0.950 . S
H3779 C3784 0.949 . S
H3780 C3786 0.950 . S
H3781 C3787 0.950 . S
H3782 C3788 0.949 . S
C3783 H3778 0.950 . S
C3783 C3785 1.327 . S
C3783 C3789 1.429 . S
C3784 C3776 1.574 . S
C3784 H3779 0.949 . S
C3784 C3790 1.368 . S
C3785 C3769 1.349 1_655 S
C3785 H3777 0.950 . S
C3785 C3783 1.327 . S
C3786 C3774 1.349 . S
C3786 H3780 0.950 . S
C3786 C3787 1.327 . S
C3787 H3781 0.950 . S
C3787 C3786 1.327 . S
C3787 C3791 1.429 . S
C3788 C3771 1.574 . S
C3788 H3782 0.949 . S
C3788 C3792 1.368 . S
C3789 C3770 1.429 . S
C3789 C3783 1.429 . S
C3789 C3790 1.523 . S
C3790 C3771 1.368 . S
C3790 C3784 1.368 . S
C3790 C3789 1.523 . S
C3791 C3775 1.429 . S
C3791 C3787 1.429 . S
C3791 C3792 1.523 . S
C3792 C3776 1.368 . S
C3792 C3788 1.368 . S
C3792 C3791 1.523 . S
H3793 C3768 0.950 . S
H3794 C3770 0.950 . S
H3795 C3771 0.949 . S
H3796 C3773 0.950 . S
H3797 C3775 0.950 . S
C3798 C3799 1.349 . S
C3798 C3800 1.327 . S
C3798 H3823 0.950 . S
C3799 C3798 1.349 . S
C3799 C3815 1.349 . S
C3800 C3798 1.327 . S
C3800 C3819 1.429 . S
C3800 H3824 0.950 . S
C3801 C3818 1.574 . S
C3801 C3820 1.368 . S
C3801 H3825 0.949 . S
H3802 C3806 0.949 . S
C3803 C3804 1.349 . S
C3803 C3805 1.327 . S
C3803 H3826 0.950 . S
C3804 C3803 1.349 . S
C3804 C3816 1.349 . S
C3805 C3803 1.327 . S
C3805 C3821 1.429 . S
C3805 H3827 0.950 . S
C3806 H3802 0.949 . S
C3806 C3814 1.574 . S
C3806 C3822 1.368 . S
H3807 C3815 0.950 . S
H3808 C3813 0.950 . S
H3809 C3814 0.949 . S
H3810 C3816 0.950 . S
H3811 C3817 0.950 . S
H3812 C3818 0.949 . S
C3813 H3808 0.950 . S
C3813 C3815 1.327 . S
C3813 C3819 1.429 . S
C3814 C3806 1.574 . S
C3814 H3809 0.949 . S
C3814 C3820 1.368 . S
C3815 C3799 1.349 . S
C3815 H3807 0.950 . S
C3815 C3813 1.327 . S
C3816 C3804 1.349 . S
C3816 H3810 0.950 . S
C3816 C3817 1.327 . S
C3817 H3811 0.950 . S
C3817 C3816 1.327 . S
C3817 C3821 1.429 . S
C3818 C3801 1.574 . S
C3818 H3812 0.949 . S
C3818 C3822 1.368 . S
C3819 C3800 1.429 . S
C3819 C3813 1.429 . S
C3819 C3820 1.523 . S
C3820 C3801 1.368 . S
C3820 C3814 1.368 . S
C3820 C3819 1.523 . S
C3821 C3805 1.429 . S
C3821 C3817 1.429 . S
C3821 C3822 1.523 . S
C3822 C3806 1.368 . S
C3822 C3818 1.368 . S
C3822 C3821 1.523 . S
H3823 C3798 0.950 . S
H3824 C3800 0.950 . S
H3825 C3801 0.949 . S
H3826 C3803 0.950 . S
H3827 C3805 0.950 . S
C3828 C3829 1.349 1_565 S
C3828 C3830 1.327 . S
C3828 H3853 0.950 . S
C3829 C3828 1.349 1_545 S
C3829 C3845 1.349 . S
C3830 C3828 1.327 . S
C3830 C3849 1.429 . S
C3830 H3854 0.950 . S
C3831 C3848 1.574 . S
C3831 C3850 1.368 . S
C3831 H3855 0.949 . S
H3832 C3836 0.949 . S
C3833 C3834 1.349 . S
C3833 C3835 1.327 . S
C3833 H3856 0.950 . S
C3834 C3833 1.349 . S
C3834 C3846 1.349 . S
C3835 C3833 1.327 . S
C3835 C3851 1.429 . S
C3835 H3857 0.950 . S
C3836 H3832 0.949 . S
C3836 C3844 1.574 . S
C3836 C3852 1.368 . S
H3837 C3845 0.950 . S
H3838 C3843 0.955 1_545 S
H3839 C3844 0.949 . S
H3840 C3846 0.950 . S
H3841 C3847 0.950 . S
H3842 C3848 0.949 . S
C3843 H3838 0.955 1_565 S
C3843 C3845 1.296 1_565 S
C3843 C3849 1.456 . S
C3844 C3836 1.574 . S
C3844 H3839 0.949 . S
C3844 C3850 1.368 . S
C3845 C3829 1.349 . S
C3845 H3837 0.950 . S
C3845 C3843 1.296 1_545 S
C3846 C3834 1.349 . S
C3846 H3840 0.950 . S
C3846 C3847 1.327 . S
C3847 H3841 0.950 . S
C3847 C3846 1.327 . S
C3847 C3851 1.429 . S
C3848 C3831 1.574 . S
C3848 H3842 0.949 . S
C3848 C3852 1.368 . S
C3849 C3830 1.429 . S
C3849 C3843 1.456 . S
C3849 C3850 1.523 . S
C3850 C3831 1.368 . S
C3850 C3844 1.368 . S
C3850 C3849 1.523 . S
C3851 C3835 1.429 . S
C3851 C3847 1.429 . S
C3851 C3852 1.523 . S
C3852 C3836 1.368 . S
C3852 C3848 1.368 . S
C3852 C3851 1.523 . S
H3853 C3828 0.950 . S
H3854 C3830 0.950 . S
H3855 C3831 0.949 . S
H3856 C3833 0.950 . S
H3857 C3835 0.950 . S
C3858 C3859 1.349 . S
C3858 C3860 1.327 . S
C3858 H3883 0.950 . S
C3859 C3858 1.349 . S
C3859 C3875 1.349 . S
C3860 C3858 1.327 . S
C3860 C3879 1.429 . S
C3860 H3884 0.950 . S
C3861 C3878 1.574 . S
C3861 C3880 1.368 . S
C3861 H3885 0.949 . S
H3862 C3866 0.949 . S
C3863 C3864 1.349 . S
C3863 C3865 1.330 1_655 S
C3863 H3886 0.950 . S
C3864 C3863 1.349 . S
C3864 C3876 1.349 1_655 S
C3865 C3863 1.330 1_455 S
C3865 C3881 1.471 . S
C3865 H3887 0.908 1_455 S
C3866 H3862 0.949 . S
C3866 C3874 1.574 . S
C3866 C3882 1.368 . S
H3867 C3875 0.950 . S
H3868 C3873 0.950 . S
H3869 C3874 0.949 . S
H3870 C3876 0.950 . S
H3871 C3877 0.950 . S
H3872 C3878 0.949 . S
C3873 H3868 0.950 . S
C3873 C3875 1.327 . S
C3873 C3879 1.429 . S
C3874 C3866 1.574 . S
C3874 H3869 0.949 . S
C3874 C3880 1.368 . S
C3875 C3859 1.349 . S
C3875 H3867 0.950 . S
C3875 C3873 1.327 . S
C3876 C3864 1.349 1_455 S
C3876 H3870 0.950 . S
C3876 C3877 1.327 . S
C3877 H3871 0.950 . S
C3877 C3876 1.327 . S
C3877 C3881 1.429 . S
C3878 C3861 1.574 . S
C3878 H3872 0.949 . S
C3878 C3882 1.368 . S
C3879 C3860 1.429 . S
C3879 C3873 1.429 . S
C3879 C3880 1.523 . S
C3880 C3861 1.368 . S
C3880 C3874 1.368 . S
C3880 C3879 1.523 . S
C3881 C3865 1.471 . S
C3881 C3877 1.429 . S
C3881 C3882 1.523 . S
C3882 C3866 1.368 . S
C3882 C3878 1.368 . S
C3882 C3881 1.523 . S
H3883 C3858 0.950 . S
H3884 C3860 0.950 . S
H3885 C3861 0.949 . S
H3886 C3863 0.950 . S
H3887 C3865 0.908 1_655 S
C3888 C3889 1.349 . S
C3888 C3890 1.327 . S
C3888 H3913 0.950 . S
C3889 C3888 1.349 . S
C3889 C3905 1.349 . S
C3890 C3888 1.327 . S
C3890 C3909 1.429 . S
C3890 H3914 0.950 . S
C3891 C3908 1.574 . S
C3891 C3910 1.368 1_455 S
C3891 H3915 0.949 . S
H3892 C3896 0.949 . S
C3893 C3894 1.349 . S
C3893 C3895 1.327 . S
C3893 H3916 0.950 . S
C3894 C3893 1.349 . S
C3894 C3906 1.349 . S
C3895 C3893 1.327 . S
C3895 C3911 1.429 . S
C3895 H3917 0.950 . S
C3896 H3892 0.949 . S
C3896 C3904 1.574 . S
C3896 C3912 1.368 . S
H3897 C3905 0.950 . S
H3898 C3903 0.950 . S
H3899 C3904 0.949 1_655 S
H3900 C3906 0.950 . S
H3901 C3907 0.950 . S
H3902 C3908 0.949 . S
C3903 H3898 0.950 . S
C3903 C3905 1.327 . S
C3903 C3909 1.429 . S
C3904 C3896 1.574 . S
C3904 H3899 0.949 1_455 S
C3904 C3910 1.368 1_455 S
C3905 C3889 1.349 . S
C3905 H3897 0.950 . S
C3905 C3903 1.327 . S
C3906 C3894 1.349 . S
C3906 H3900 0.950 . S
C3906 C3907 1.327 . S
C3907 H3901 0.950 . S
C3907 C3906 1.327 . S
C3907 C3911 1.429 . S
C3908 C3891 1.574 . S
C3908 H3902 0.949 . S
C3908 C3912 1.368 . S
C3909 C3890 1.429 . S
C3909 C3903 1.429 . S
C3909 C3910 1.523 . S
C3910 C3891 1.368 1_655 S
C3910 C3904 1.368 1_655 S
C3910 C3909 1.523 . S
C3911 C3895 1.429 . S
C3911 C3907 1.429 . S
C3911 C3912 1.523 . S
C3912 C3896 1.368 . S
C3912 C3908 1.368 . S
C3912 C3911 1.523 . S
H3913 C3888 0.950 . S
H3914 C3890 0.950 . S
H3915 C3891 0.949 . S
H3916 C3893 0.950 . S
H3917 C3895 0.950 . S
C3918 C3919 1.349 . S
C3918 C3920 1.327 . S
C3918 H3943 0.950 . S
C3919 C3918 1.349 . S
C3919 C3935 1.349 . S
C3920 C3918 1.327 . S
C3920 C3939 1.429 . S
C3920 H3944 0.950 . S
C3921 C3938 1.574 . S
C3921 C3940 1.368 . S
C3921 H3945 0.949 . S
H3922 C3926 0.949 . S
C3923 C3924 1.349 . S
C3923 C3925 1.327 . S
C3923 H3946 0.950 . S
C3924 C3923 1.349 . S
C3924 C3936 1.349 . S
C3925 C3923 1.327 . S
C3925 C3941 1.429 . S
C3925 H3947 0.950 . S
C3926 H3922 0.949 . S
C3926 C3934 1.574 . S
C3926 C3942 1.368 . S
H3927 C3935 0.950 . S
H3928 C3933 0.950 . S
H3929 C3934 0.949 . S
H3930 C3936 0.950 . S
H3931 C3937 0.950 . S
H3932 C3938 0.949 . S
C3933 H3928 0.950 . S
C3933 C3935 1.327 . S
C3933 C3939 1.429 . S
C3934 C3926 1.574 . S
C3934 H3929 0.949 . S
C3934 C3940 1.368 . S
C3935 C3919 1.349 . S
C3935 H3927 0.950 . S
C3935 C3933 1.327 . S
C3936 C3924 1.349 . S
C3936 H3930 0.950 . S
C3936 C3937 1.327 . S
C3937 H3931 0.950 . S
C3937 C3936 1.327 . S
C3937 C3941 1.429 . S
C3938 C3921 1.574 . S
C3938 H3932 0.949 . S
C3938 C3942 1.368 . S
C3939 C3920 1.429 . S
C3939 C3933 1.429 . S
C3939 C3940 1.523 . S
C3940 C3921 1.368 . S
C3940 C3934 1.368 . S
C3940 C3939 1.523 . S
C3941 C3925 1.429 . S
C3941 C3937 1.429 . S
C3941 C3942 1.523 . S
C3942 C3926 1.368 . S
C3942 C3938 1.368 . S
C3942 C3941 1.523 . S
H3943 C3918 0.950 . S
H3944 C3920 0.950 . S
H3945 C3921 0.949 . S
H3946 C3923 0.950 . S
H3947 C3925 0.950 . S
C3948 C3949 1.349 . S
C3948 C3950 1.327 . S
C3948 H3973 0.950 . S
C3949 C3948 1.349 . S
C3949 C3965 1.349 . S
C3950 C3948 1.327 . S
C3950 C3969 1.429 . S
C3950 H3974 0.950 . S
C3951 C3968 1.574 1_565 S
C3951 C3970 1.368 . S
C3951 H3975 0.949 . S
H3952 C3956 0.949 . S
C3953 C3954 1.349 . S
C3953 C3955 1.327 . S
C3953 H3976 0.950 . S
C3954 C3953 1.349 . S
C3954 C3966 1.349 . S
C3955 C3953 1.327 . S
C3955 C3971 1.429 . S
C3955 H3977 0.950 . S
C3956 H3952 0.949 . S
C3956 C3964 1.574 1_545 S
C3956 C3972 1.368 . S
H3957 C3965 0.950 . S
H3958 C3963 0.950 . S
H3959 C3964 0.949 . S
H3960 C3966 0.950 . S
H3961 C3967 0.950 . S
H3962 C3968 0.949 . S
C3963 H3958 0.950 . S
C3963 C3965 1.327 . S
C3963 C3969 1.429 . S
C3964 C3956 1.574 1_565 S
C3964 H3959 0.949 . S
C3964 C3970 1.368 . S
C3965 C3949 1.349 . S
C3965 H3957 0.950 . S
C3965 C3963 1.327 . S
C3966 C3954 1.349 . S
C3966 H3960 0.950 . S
C3966 C3967 1.327 . S
C3967 H3961 0.950 . S
C3967 C3966 1.327 . S
C3967 C3971 1.429 . S
C3968 C3951 1.574 1_545 S
C3968 H3962 0.949 . S
C3968 C3972 1.368 . S
C3969 C3950 1.429 . S
C3969 C3963 1.429 . S
C3969 C3970 1.523 . S
C3970 C3951 1.368 . S
C3970 C3964 1.368 . S
C3970 C3969 1.523 . S
C3971 C3955 1.429 . S
C3971 C3967 1.429 . S
C3971 C3972 1.523 . S
C3972 C3956 1.368 . S
C3972 C3968 1.368 . S
C3972 C3971 1.523 . S
H3973 C3948 0.950 . S
H3974 C3950 0.950 . S
H3975 C3951 0.949 . S
H3976 C3953 0.950 . S
H3977 C3955 0.950 . S
C3978 C3979 1.349 . S
C3978 C3980 1.327 . S
C3978 H4003 0.950 . S
C3979 C3978 1.349 . S
C3979 C3995 1.349 . S
C3980 C3978 1.327 . S
C3980 C3999 1.429 . S
C3980 H4004 0.950 . S
C3981 C3998 1.574 1_565 S
C3981 C4000 1.368 . S
C3981 H4005 0.949 . S
H3982 C3986 0.949 . S
C3983 C3984 1.349 . S
C3983 C3985 1.327 . S
C3983 H4006 0.950 . S
C3984 C3983 1.349 . S
C3984 C3996 1.349 . S
C3985 C3983 1.327 . S
C3985 C4001 1.429 . S
C3985 H4007 0.950 . S
C3986 H3982 0.949 . S
C3986 C3994 1.574 1_545 S
C3986 C4002 1.368 . S
H3987 C3995 0.950 . S
H3988 C3993 0.950 . S
H3989 C3994 0.949 . S
H3990 C3996 0.950 . S
H3991 C3997 0.950 . S
H3992 C3998 0.949 . S
C3993 H3988 0.950 . S
C3993 C3995 1.327 . S
C3993 C3999 1.429 . S
C3994 C3986 1.574 1_565 S
C3994 H3989 0.949 . S
C3994 C4000 1.368 . S
C3995 C3979 1.349 . S
C3995 H3987 0.950 . S
C3995 C3993 1.327 . S
C3996 C3984 1.349 . S
C3996 H3990 0.950 . S
C3996 C3997 1.327 . S
C3997 H3991 0.950 . S
C3997 C3996 1.327 . S
C3997 C4001 1.429 . S
C3998 C3981 1.574 1_545 S
C3998 H3992 0.949 . S
C3998 C4002 1.368 . S
C3999 C3980 1.429 . S
C3999 C3993 1.429 . S
C3999 C4000 1.523 . S
C4000 C3981 1.368 . S
C4000 C3994 1.368 . S
C4000 C3999 1.523 . S
C4001 C3985 1.429 . S
C4001 C3997 1.429 . S
C4001 C4002 1.523 . S
C4002 C3986 1.368 . S
C4002 C3998 1.368 . S
C4002 C4001 1.523 . S
H4003 C3978 0.950 . S
H4004 C3980 0.950 . S
H4005 C3981 0.949 . S
H4006 C3983 0.950 . S
H4007 C3985 0.950 . S
C4008 C4009 1.349 . S
C4008 C4010 1.327 . S
C4008 H4033 0.950 . S
C4009 C4008 1.349 . S
C4009 C4025 1.349 . S
C4010 C4008 1.327 . S
C4010 C4029 1.429 . S
C4010 H4034 0.950 . S
C4011 C4028 1.574 1_655 S
C4011 C4030 1.368 . S
C4011 H4035 0.949 . S
H4012 C4016 0.949 . S
C4013 C4014 1.349 . S
C4013 C4015 1.327 . S
C4013 H4036 0.950 . S
C4014 C4013 1.349 . S
C4014 C4026 1.349 . S
C4015 C4013 1.327 . S
C4015 C4031 1.429 . S
C4015 H4037 0.950 . S
C4016 H4012 0.949 . S
C4016 C4024 1.574 1_455 S
C4016 C4032 1.368 . S
H4017 C4025 0.950 . S
H4018 C4023 0.950 . S
H4019 C4024 0.949 . S
H4020 C4026 0.950 . S
H4021 C4027 0.950 . S
H4022 C4028 0.949 . S
C4023 H4018 0.950 . S
C4023 C4025 1.327 . S
C4023 C4029 1.429 . S
C4024 C4016 1.574 1_655 S
C4024 H4019 0.949 . S
C4024 C4030 1.368 . S
C4025 C4009 1.349 . S
C4025 H4017 0.950 . S
C4025 C4023 1.327 . S
C4026 C4014 1.349 . S
C4026 H4020 0.950 . S
C4026 C4027 1.327 . S
C4027 H4021 0.950 . S
C4027 C4026 1.327 . S
C4027 C4031 1.429 . S
C4028 C4011 1.574 1_455 S
C4028 H4022 0.949 . S
C4028 C4032 1.368 . S
C4029 C4010 1.429 . S
C4029 C4023 1.429 . S
C4029 C4030 1.523 . S
C4030 C4011 1.368 . S
C4030 C4024 1.368 . S
C4030 C4029 1.523 . S
C4031 C4015 1.429 . S
C4031 C4027 1.429 . S
C4031 C4032 1.523 . S
C4032 C4016 1.368 . S
C4032 C4028 1.368 . S
C4032 C4031 1.523 . S
H4033 C4008 0.950 . S
H4034 C4010 0.950 . S
H4035 C4011 0.949 . S
H4036 C4013 0.950 . S
H4037 C4015 0.950 . S
C4038 C4039 1.349 . S
C4038 C4040 1.327 . S
C4038 H4063 0.950 . S
C4039 C4038 1.349 . S
C4039 C4055 1.349 . S
C4040 C4038 1.327 . S
C4040 C4059 1.429 . S
C4040 H4064 0.950 . S
C4041 C4058 1.574 . S
C4041 C4060 1.368 . S
C4041 H4065 0.949 . S
H4042 C4046 0.949 . S
C4043 C4044 1.349 . S
C4043 C4045 1.327 . S
C4043 H4066 0.950 . S
C4044 C4043 1.349 . S
C4044 C4056 1.349 . S
C4045 C4043 1.327 . S
C4045 C4061 1.429 . S
C4045 H4067 0.950 . S
C4046 H4042 0.949 . S
C4046 C4054 1.574 . S
C4046 C4062 1.368 . S
H4047 C4055 0.950 . S
H4048 C4053 0.950 . S
H4049 C4054 0.949 . S
H4050 C4056 0.950 . S
H4051 C4057 0.950 . S
H4052 C4058 0.949 . S
C4053 H4048 0.950 . S
C4053 C4055 1.327 . S
C4053 C4059 1.429 . S
C4054 C4046 1.574 . S
C4054 H4049 0.949 . S
C4054 C4060 1.368 . S
C4055 C4039 1.349 . S
C4055 H4047 0.950 . S
C4055 C4053 1.327 . S
C4056 C4044 1.349 . S
C4056 H4050 0.950 . S
C4056 C4057 1.327 . S
C4057 H4051 0.950 . S
C4057 C4056 1.327 . S
C4057 C4061 1.429 . S
C4058 C4041 1.574 . S
C4058 H4052 0.949 . S
C4058 C4062 1.368 . S
C4059 C4040 1.429 . S
C4059 C4053 1.429 . S
C4059 C4060 1.523 . S
C4060 C4041 1.368 . S
C4060 C4054 1.368 . S
C4060 C4059 1.523 . S
C4061 C4045 1.429 . S
C4061 C4057 1.429 . S
C4061 C4062 1.523 . S
C4062 C4046 1.368 . S
C4062 C4058 1.368 . S
C4062 C4061 1.523 . S
H4063 C4038 0.950 . S
H4064 C4040 0.950 . S
H4065 C4041 0.949 . S
H4066 C4043 0.950 . S
H4067 C4045 0.950 . S
C1909 C39 1.460 . S
C1914 C993 1.457 . S
C1939 C82 1.384 . S
C1944 C1046 1.384 . S
C1969 C1099 1.363 . S
C1974 C145 1.363 . S
C1999 C198 1.363 . S
C2004 C1788 1.363 . S
C2029 C1841 1.384 . S
C2034 C241 1.384 . S
C2059 C304 1.460 . S
C2064 C1894 1.458 . S
C2089 C1311 1.460 . S
C2094 C357 1.458 . S
C2119 C410 1.384 . S
C2124 C1354 1.384 . S
C2149 C463 1.363 . S
C2154 C1417 1.363 . S
C2179 C516 1.362 . S
C2184 C834 1.363 . S
C2209 C877 1.385 . S
C2214 C569 1.385 . S
C2239 C622 1.458 . S
C2244 C940 1.460 . S
C2269 C675 1.460 . S
C2274 C1629 1.457 . S
C2299 C718 1.384 . S
C2304 C1682 1.384 . S
C2329 C781 1.363 . S
C2334 C1735 1.363 . S
C2359 C1152 1.363 . S
C2364 C1470 1.363 . S
C2389 C1205 1.384 . S
C2394 C1513 1.384 . S
C2419 C1258 1.458 . S
C2424 C1576 1.460 . S
C2449 C409 1.974 . S
C2454 C22 1.902 . S
C2479 C462 1.920 1_655 S
C2484 C91 1.905 . S
C2509 C128 1.833 . S
C2514 C356 1.859 . S
C2539 C621 1.861 1_455 S
C2544 C181 1.834 . S
C2569 C515 1.919 . S
C2574 C250 1.905 . S
C2599 C568 1.962 . S
C2604 C287 1.902 . S
C2629 C340 1.646 . S
C2634 C75 1.660 1_565 S
C2659 C393 1.723 . S
C2664 C144 1.731 . S
C2689 C446 1.734 . S
C2694 C38 1.748 . S
C2719 C499 1.735 . S
C2724 C303 1.750 . S
C2749 C197 1.730 . S
C2754 C552 1.722 . S
C2779 C234 1.659 1_545 S
C2784 C605 1.646 . S
C2809 C658 1.902 . S
C2814 C1045 1.930 . S
C2839 C727 1.905 . S
C2844 C1098 1.920 . S
C2869 C764 1.833 . S
C2874 C992 1.860 . S
C2899 C1257 1.861 . S
C2904 C817 1.834 . S
C2929 C886 1.905 . S
C2934 C1151 1.919 . S
C2959 C1204 1.930 . S
C2964 C923 1.902 . S
C2989 C976 1.646 . S
C2994 C711 1.660 . S
C3019 C780 1.731 . S
C3024 C1029 1.723 . S
C3049 C674 1.748 . S
C3054 C1082 1.734 . S
C3079 C1135 1.735 . S
C3084 C939 1.749 . S
C3109 C1188 1.722 . S
C3114 C833 1.730 . S
C3139 C1241 1.646 . S
C3144 C870 1.659 . S
C3169 C1681 1.930 . S
C3174 C1294 1.902 . S
C3199 C1363 1.905 . S
C3204 C1734 1.919 . S
C3229 C1400 1.833 . S
C3234 C1628 1.860 . S
C3259 C1893 1.861 . S
C3264 C1453 1.834 . S
C3289 C1787 1.919 . S
C3294 C1522 1.905 . S
C3319 C1840 1.929 . S
C3324 C1559 1.902 . S
C3349 C1347 1.660 . S
C3354 C1612 1.646 . S
C3379 C1416 1.731 . S
C3384 C1665 1.722 . S
C3409 C1310 1.749 . S
C3414 C1718 1.735 . S
C3439 C1771 1.736 . S
C3444 C1575 1.750 . S
C3469 C1469 1.730 . S
C3474 C1824 1.722 . S
C3499 C1877 1.646 . S
C3504 C1506 1.659 . S
C3529 C29 2.155 . S
C3534 C1566 2.155 . S
C3559 C1460 2.083 . S
C3564 C92 2.089 . S
C3589 C135 2.083 . S
C3594 C1523 2.089 . S
C3619 C188 2.083 . S
C3624 C728 2.089 . S
C3649 C771 2.083 . S
C3654 C251 2.089 . S
C3679 C294 2.155 . S
C3684 C665 2.155 . S
C3709 C1248 1.689 . S
C3714 C347 1.689 . S
C3739 C400 1.660 . S
C3744 C1142 1.653 . S
C3769 C453 1.653 . S
C3774 C1195 1.660 . S
C3799 C506 1.653 . S
C3804 C1672 1.660 . S
C3829 C559 1.660 . S
C3834 C1725 1.653 . S
C3859 C1619 1.689 . S
C3864 C612 1.689 . S
C3889 C824 2.083 . S
C3894 C1364 2.089 . S
C3919 C1407 2.083 . S
C3924 C887 2.089 . S
C3949 C1301 2.155 . S
C3954 C930 2.155 . S
C3979 C1884 1.689 . S
C3984 C983 1.689 . S
C4009 C1036 1.660 . S
C4014 C1778 1.653 . S
C4039 C1089 1.653 . S
C4044 C1831 1.660 . S
