# Generated by pormake.
# Topology hcp, (12)-cn, num edge types: 1
# Building blocks:
#     Node 0, Type 0, BuildingBlock: UKIBUN_clean_sbu_0, # of connection points: 12
#     Node 1, Type 0, BuildingBlock: UKIBUN_clean_sbu_0, # of connection points: 12
#     Edge 2, Type (0, 0), BuildingBlock: FUNLAD_clean_linker_0, # of connection points: 2
#     Edge 3, Type (0, 0), BuildingBlock: FUNLAD_clean_linker_0, # of connection points: 2
#     Edge 4, Type (0, 0), BuildingBlock: FUNLAD_clean_linker_0, # of connection points: 2
#     Edge 5, Type (0, 0), BuildingBlock: FUNLAD_clean_linker_0, # of connection points: 2
#     Edge 6, Type (0, 0), BuildingBlock: FUNLAD_clean_linker_0, # of connection points: 2
#     Edge 7, Type (0, 0), BuildingBlock: FUNLAD_clean_linker_0, # of connection points: 2
#     Edge 8, Type (0, 0), BuildingBlock: FUNLAD_clean_linker_0, # of connection points: 2
#     Edge 9, Type (0, 0), BuildingBlock: FUNLAD_clean_linker_0, # of connection points: 2
#     Edge 10, Type (0, 0), BuildingBlock: FUNLAD_clean_linker_0, # of connection points: 2
#     Edge 11, Type (0, 0), BuildingBlock: FUNLAD_clean_linker_0, # of connection points: 2
#     Edge 12, Type (0, 0), BuildingBlock: FUNLAD_clean_linker_0, # of connection points: 2
#     Edge 13, Type (0, 0), BuildingBlock: FUNLAD_clean_linker_0, # of connection points: 2
# Relax obj value: 0.181
# Max RMSD: 0.266
# Mean RMSD: 0.266
data_MOF--net-hcp--node1-UKIBUN_clean_sbu_0--edge1-FUNLAD_clean_linker_0
_symmetry_space_group_name_H-M    P1
_symmetry_Int_Tables_number       1
_symmetry_cell_setting            triclinic
loop_
_symmetry_equiv_pos_as_xyz
'x, y, z'
_cell_length_a     20.409736
_cell_length_b     20.466611
_cell_length_c     33.641712
_cell_angle_alpha  89.896204
_cell_angle_beta   90.014577
_cell_angle_gamma 119.97182
loop_
_atom_site_label
_atom_site_type_symbol
_atom_site_fract_x
_atom_site_fract_y
_atom_site_fract_z
_atom_type_partial_charge
C0 C 0.8906 0.50169 0.26222 0.0
C1 C 0.83086 0.26211 0.25832 0.0
O2 O 0.72567 0.42271 0.28068 0.0
O3 O 0.64964 0.32177 0.20187 0.0
O4 O 0.62431 0.39379 0.2431 0.0
O5 O 0.75032 0.34806 0.2417 0.0
Hf6 Hf 0.72873 0.4284 0.21958 0.0
O7 O 0.65201 0.32153 0.32053 0.0
Hf8 Hf 0.75843 0.34972 0.30241 0.0
O9 O 0.55012 0.2949 0.28175 0.0
Hf10 Hf 0.62344 0.39982 0.30373 0.0
O11 O 0.67746 0.24784 0.28057 0.0
Hf12 Hf 0.54316 0.29315 0.22079 0.0
Hf13 Hf 0.67803 0.24332 0.21958 0.0
O14 O 0.57685 0.22186 0.24299 0.0
Hf15 Hf 0.57263 0.21506 0.30387 0.0
C16 C 0.54127 0.1776 0.15583 0.0
C17 C 0.75499 0.45724 0.37019 0.0
C18 C 0.4722 0.38321 0.26375 0.0
C19 C 0.7005 0.55668 0.2569 0.0
O20 O 0.73116 0.53675 0.22946 0.0
O21 O 0.79237 0.4166 0.16874 0.0
C22 C 0.79221 0.35809 0.15398 0.0
O23 O 0.56032 0.10347 0.29049 0.0
O24 O 0.43255 0.19116 0.23307 0.0
O25 O 0.55305 0.36938 0.17106 0.0
O26 O 0.5174 0.22942 0.35813 0.0
O27 O 0.74621 0.27815 0.35521 0.0
O28 O 0.86958 0.45105 0.28977 0.0
O29 O 0.78103 0.2352 0.23026 0.0
O30 O 0.60039 0.17794 0.17004 0.0
C31 C 0.51482 0.28764 0.37116 0.0
O32 O 0.52162 0.40983 0.29204 0.0
O33 O 0.69467 0.45584 0.35709 0.0
C34 C 0.58795 0.08199 0.26217 0.0
O35 O 0.6212 0.1857 0.35427 0.0
O36 O 0.67887 0.45945 0.16997 0.0
O37 O 0.84798 0.50325 0.23446 0.0
O38 O 0.45195 0.14341 0.29075 0.0
O39 O 0.63179 0.12421 0.23426 0.0
O40 O 0.54821 0.35342 0.35508 0.0
C41 C 0.41048 0.14256 0.26169 0.0
O42 O 0.66524 0.51757 0.28768 0.0
O43 O 0.78736 0.42377 0.35415 0.0
O44 O 0.75192 0.29018 0.16722 0.0
O45 O 0.47087 0.34046 0.23542 0.0
O46 O 0.51396 0.21809 0.16908 0.0
O47 O 0.83091 0.30259 0.28755 0.0
C48 C 0.68829 0.2178 0.36893 0.0
C49 C 0.61016 0.43055 0.15757 0.0
C50 C 0.46212 0.69326 0.86982 0.0
C51 C 0.2844 0.75235 0.87229 0.0
O52 O 0.42494 0.68791 0.78122 0.0
O53 O 0.25136 0.55721 0.77981 0.0
O54 O 0.35376 0.58932 0.74175 0.0
O55 O 0.32283 0.65713 0.82019 0.0
Hf56 Hf 0.35403 0.58134 0.80252 0.0
O57 O 0.39588 0.76084 0.74364 0.0
Hf58 Hf 0.39992 0.76521 0.80448 0.0
O59 O 0.32515 0.66183 0.70213 0.0
Hf60 Hf 0.43256 0.69277 0.72024 0.0
O61 O 0.29426 0.73058 0.78192 0.0
Hf62 Hf 0.24861 0.55346 0.71871 0.0
Hf63 Hf 0.21547 0.62664 0.80286 0.0
O64 O 0.22361 0.6307 0.74211 0.0
Hf65 Hf 0.29343 0.7371 0.72107 0.0
C66 C 0.08466 0.47871 0.75911 0.0
C67 C 0.56335 0.841 0.76355 0.0
C68 C 0.3687 0.56005 0.65449 0.0
C69 C 0.50386 0.59982 0.75995 0.0
O70 O 0.4547 0.57091 0.78829 0.0
O71 O 0.2866 0.5278 0.85769 0.0
C72 C 0.22332 0.52088 0.8701 0.0
O73 O 0.18975 0.74313 0.73339 0.0
O74 O 0.18609 0.56587 0.66759 0.0
O75 O 0.24034 0.44274 0.73095 0.0
O76 O 0.36893 0.80503 0.6717 0.0
O77 O 0.4082 0.87607 0.79253 0.0
O78 O 0.45668 0.75057 0.85792 0.0
O79 O 0.22765 0.69123 0.85851 0.0
O80 O 0.10499 0.52595 0.78826 0.0
C81 C 0.43049 0.81078 0.65757 0.0
O82 O 0.42405 0.62216 0.66825 0.0
O83 O 0.54262 0.79438 0.73413 0.0
C84 C 0.14227 0.71688 0.76256 0.0
O85 O 0.33843 0.8562 0.73569 0.0
O86 O 0.30404 0.4608 0.78982 0.0
O87 O 0.43128 0.62832 0.85301 0.0
O88 O 0.22046 0.69091 0.66853 0.0
O89 O 0.14367 0.67602 0.79126 0.0
O90 O 0.46148 0.77301 0.67024 0.0
C91 C 0.18378 0.62389 0.65392 0.0
O92 O 0.50545 0.64498 0.73282 0.0
O93 O 0.52072 0.8388 0.7923 0.0
O94 O 0.18663 0.54887 0.85298 0.0
O95 O 0.30054 0.52668 0.66825 0.0
O96 O 0.12798 0.47951 0.7311 0.0
O97 O 0.35022 0.78889 0.85625 0.0
C98 C 0.3808 0.89783 0.7641 0.0
C99 C 0.26456 0.42002 0.76043 0.0
C100 C 0.29871 0.85971 0.91203 0.0
C101 C 0.27788 0.78333 0.9105 0.0
C102 C 0.31959 0.89888 0.94794 0.0
C103 C 0.32012 0.86231 0.98339 0.0
C104 C 0.2942 0.78437 0.98214 0.0
C105 C 0.27299 0.74505 0.94599 0.0
C106 C 0.35567 0.90535 0.02059 0.0
C107 C 0.36768 0.97544 0.02741 0.0
C108 C 0.41186 0.02392 0.06146 0.0
C109 C 0.40132 0.0844 0.07174 0.0
C110 C 0.44395 0.13428 0.10189 0.0
C111 C 0.49922 0.12571 0.12253 0.0
H112 H 0.47882 0.97052 0.07404 0.0
C113 C 0.51066 0.06562 0.11204 0.0
C114 C 0.46741 0.01515 0.08181 0.0
H115 H 0.55254 0.05716 0.12735 0.0
H116 H 0.3045 0.89063 0.88485 0.0
H117 H 0.34062 0.9589 0.94686 0.0
H118 H 0.29429 0.75468 1.00882 0.0
H119 H 0.25913 0.68658 0.94535 0.0
H120 H 0.37388 0.87876 0.04252 0.0
H121 H 0.34332 -0.00089 1.00734 0.0
H122 H 0.35977 0.09326 0.05632 0.0
H123 H 0.43346 0.1799 0.10889 0.0
C124 C 0.33842 0.4452 0.6139 0.0
C125 C 0.38476 0.52312 0.62085 0.0
C126 C 0.35369 0.41005 0.5824 0.0
C127 C 0.41495 0.45236 0.55674 0.0
C128 C 0.46101 0.53009 0.56358 0.0
C129 C 0.4468 0.56493 0.59556 0.0
C130 C 0.4285 0.41889 0.52066 0.0
C131 C 0.4134 0.34683 0.51782 0.0
C132 C 0.42716 0.3179 0.48003 0.0
C133 C 0.46379 0.27506 0.47994 0.0
C134 C 0.48686 0.25793 0.44389 0.0
C135 C 0.4723 0.28255 0.40767 0.0
H136 H 0.37685 0.36739 0.44264 0.0
C137 C 0.42936 0.3189 0.4079 0.0
C138 C 0.40716 0.3365 0.44357 0.0
H139 H 0.41693 0.3379 0.38037 0.0
H140 H 0.29024 0.41119 0.63284 0.0
H141 H 0.3161 0.35037 0.57747 0.0
H142 H 0.50816 0.56414 0.544 0.0
H143 H 0.48354 0.62496 0.59994 0.0
H144 H 0.45443 0.45646 0.49542 0.0
H145 H 0.39489 0.31032 0.54378 0.0
H146 H 0.47894 0.25925 0.50773 0.0
H147 H 0.52073 0.23069 0.44455 0.0
C148 C 0.90528 0.43922 0.11016 0.0
C149 C 0.84328 0.36824 0.11999 0.0
C150 C 0.95528 0.44629 0.07951 0.0
C151 C 0.94408 0.38242 0.05798 0.0
C152 C 0.88154 0.31208 0.06753 0.0
C153 C 0.83221 0.30493 0.09812 0.0
C154 C -0.00757 0.38649 0.02369 0.0
C155 C 0.06402 0.44276 0.01732 0.0
C156 C 0.10807 0.44921 0.98046 0.0
C157 C 0.18671 0.49949 0.97976 0.0
C158 C 0.22759 0.51628 0.94401 0.0
C159 C 0.1903 0.4834 0.90826 0.0
H160 H 0.01193 0.37471 0.94327 0.0
C161 C 0.11303 0.42944 0.90932 0.0
C162 C 0.07231 0.41247 0.94485 0.0
H163 H 0.08272 0.40472 0.88197 0.0
H164 H 0.91575 0.48914 0.12644 0.0
H165 H 0.00161 0.50189 0.07241 0.0
H166 H 0.87073 0.262 0.05126 0.0
H167 H 0.78509 0.24929 0.10455 0.0
H168 H 0.96746 0.33932 1.00324 0.0
H169 H 0.09148 0.48658 0.03957 0.0
H170 H 0.21594 0.52898 1.00654 0.0
H171 H 0.28668 0.55978 0.9438 0.0
C172 C 0.5364 0.87506 0.60777 0.0
C173 C 0.47015 0.86708 0.62538 0.0
C174 C 0.5753 0.93008 0.57862 0.0
C175 C 0.54878 0.9785 0.56623 0.0
C176 C 0.48312 0.97095 0.58408 0.0
C177 C 0.44412 0.91589 0.61309 0.0
C178 C 0.58767 0.03785 0.53518 0.0
C179 C 0.63437 0.03628 0.50726 0.0
C180 C 0.66282 0.09003 0.47318 0.0
C181 C 0.67086 0.06386 0.43596 0.0
C182 C 0.68625 0.10877 0.40203 0.0
C183 C 0.69619 0.18155 0.40489 0.0
H184 H 0.67394 0.18756 0.50479 0.0
C185 C 0.69419 0.21027 0.44242 0.0
C186 C 0.67766 0.16488 0.47638 0.0
H187 H 0.7002 0.26577 0.44512 0.0
H188 H 0.55883 0.83921 0.61671 0.0
H189 H 0.62668 0.93506 0.56649 0.0
H190 H 0.46148 0.00763 0.57539 0.0
H191 H 0.39389 0.91227 0.62614 0.0
H192 H 0.57205 0.08133 0.53335 0.0
H193 H 0.64499 0.98937 0.50644 0.0
H194 H 0.66029 0.00673 0.43267 0.0
H195 H 0.68595 0.08504 0.37321 0.0
C196 C 0.54852 0.44017 0.09489 0.0
C197 C 0.59559 0.47483 0.12775 0.0
C198 C 0.53643 0.48372 0.06678 0.0
C199 C 0.56938 0.56223 0.07179 0.0
C200 C 0.61431 0.59629 0.10533 0.0
C201 C 0.62839 0.55325 0.13268 0.0
C202 C 0.55667 0.60915 0.04253 0.0
C203 C 0.56477 0.60287 1.0033 0.0
C204 C 0.55072 0.64611 0.97216 0.0
C205 C 0.58687 0.65695 0.93528 0.0
C206 C 0.56443 0.68311 0.90261 0.0
C207 C 0.50485 0.69832 0.90598 0.0
H208 H 0.46557 0.65905 1.0043 0.0
C209 C 0.4725 0.69346 0.94348 0.0
C210 C 0.49547 0.66776 0.97647 0.0
H211 H 0.42481 0.7026 0.94648 0.0
H212 H 0.52222 0.37979 0.09064 0.0
H213 H 0.50051 0.45597 0.04142 0.0
H214 H 0.63973 0.65651 0.10998 0.0
H215 H 0.66404 0.58116 0.15812 0.0
H216 H 0.54503 0.65216 0.05358 0.0
H217 H 0.58371 0.56445 0.99337 0.0
H218 H 0.62958 0.64089 0.93111 0.0
H219 H 0.58928 0.68534 0.87384 0.0
C220 C 0.8679 0.5475 0.40778 0.0
C221 C 0.78994 0.4962 0.40756 0.0
C222 C 0.90875 0.5661 0.44322 0.0
C223 C 0.87233 0.53366 0.47949 0.0
C224 C 0.79324 0.48611 0.47946 0.0
C225 C 0.75225 0.46766 0.44378 0.0
C226 C 0.9159 0.54129 0.51656 0.0
C227 C 0.98811 0.59644 0.52212 0.0
C228 C 0.03562 0.60055 0.55667 0.0
C229 C 0.09795 0.6708 0.56633 0.0
C230 C 0.14624 0.67766 0.59738 0.0
C231 C 0.13423 0.61411 0.61944 0.0
H232 H 0.97752 0.48093 0.57102 0.0
C233 C 0.07268 0.54321 0.60937 0.0
C234 C 0.02367 0.53645 0.57833 0.0
H235 H 0.06172 0.49319 0.62581 0.0
H236 H 0.89824 0.56889 0.38004 0.0
H237 H 0.96947 0.60149 0.44125 0.0
H238 H 0.76362 0.45999 0.50681 0.0
H239 H 0.69243 0.42629 0.44418 0.0
H240 H 0.88763 0.49926 0.53967 0.0
H241 H 0.01409 0.64236 0.50084 0.0
H242 H 0.10927 0.72095 0.54985 0.0
H243 H 0.19329 0.73318 0.60402 0.0
C244 C 0.58063 0.9729 0.22667 0.0
C245 C 0.57416 0.0045 0.26246 0.0
C246 C 0.58601 0.90795 0.22707 0.0
C247 C 0.5848 0.87345 0.26329 0.0
C248 C 0.57089 0.90057 0.29873 0.0
C249 C 0.56594 0.9662 0.29839 0.0
C250 C 0.59958 0.81019 0.26463 0.0
C251 C 0.64978 0.80632 0.24013 0.0
C252 C 0.66309 0.74193 0.24136 0.0
C253 C 0.60374 0.66991 0.25106 0.0
C254 C 0.61729 0.61053 0.25537 0.0
C255 C 0.69008 0.62127 0.24951 0.0
H256 H 0.78126 0.80713 0.22455 0.0
C257 C 0.74871 0.69167 0.23694 0.0
C258 C 0.73517 0.75212 0.23297 0.0
H259 H 0.80484 0.70038 0.23152 0.0
H260 H 0.58522 0.00044 0.19842 0.0
H261 H 0.59322 0.88605 0.19913 0.0
H262 H 0.56817 0.87348 0.32687 0.0
H263 H 0.56069 0.98941 0.32635 0.0
H264 H 0.57182 0.76829 0.28789 0.0
H265 H 0.68398 0.85263 0.21999 0.0
H266 H 0.54668 0.65919 0.25562 0.0
H267 H 0.57037 0.55579 0.26349 0.0
C268 C 0.0327 0.71121 0.72727 0.0
C269 C 0.07608 0.72696 0.76196 0.0
C270 C 0.95911 0.69917 0.72935 0.0
C271 C 0.92858 0.70345 0.76614 0.0
C272 C 0.97484 0.7266 0.79991 0.0
C273 C 0.04777 0.73737 0.79797 0.0
C274 C 0.84806 0.68102 0.77075 0.0
C275 C 0.79289 0.62473 0.74959 0.0
C276 C 0.71277 0.60352 0.75422 0.0
C277 C 0.66784 0.58657 0.72013 0.0
C278 C 0.59621 0.57893 0.72257 0.0
C279 C 0.56784 0.58617 0.75933 0.0
H280 H 0.7146 0.61462 0.81847 0.0
C281 C 0.60936 0.59493 0.79406 0.0
C282 C 0.68185 0.6042 0.79151 0.0
H283 H 0.5883 0.60031 0.82268 0.0
H284 H 0.05342 0.70261 0.69922 0.0
H285 H 0.92552 0.68415 0.70247 0.0
H286 H 0.95292 0.7316 0.82838 0.0
H287 H 0.08058 0.74974 0.82507 0.0
H288 H 0.83364 0.70916 0.79363 0.0
H289 H 0.80687 0.59647 0.72661 0.0
H290 H 0.69014 0.58448 0.69123 0.0
H291 H 0.56468 0.57165 0.69541 0.0
C292 C 0.30195 0.03224 0.29382 0.0
C293 C 0.33471 0.07531 0.25937 0.0
C294 C 0.2406 0.95941 0.291 0.0
C295 C 0.21104 0.92826 0.25363 0.0
C296 C 0.23881 0.97374 0.21957 0.0
C297 C 0.30057 0.04685 0.22235 0.0
C298 C 0.15328 0.84793 0.24928 0.0
C299 C 0.15123 0.79387 0.2731 0.0
C300 C 0.09304 0.71357 0.26892 0.0
C301 C 0.06639 0.66789 0.30299 0.0
C302 C 0.00365 0.59527 0.30056 0.0
C303 C 0.96717 0.5678 0.26396 0.0
H304 H 0.08336 0.71511 0.20465 0.0
C305 C -0.00102 0.61067 0.22936 0.0
C306 C 0.06151 0.6828 0.23177 0.0
H307 H 0.97319 0.58994 0.20054 0.0
H308 H 0.32614 0.05341 0.32288 0.0
H309 H 0.21794 0.92694 0.31802 0.0
H310 H 0.21568 0.95117 0.19052 0.0
H311 H 0.32461 0.07879 0.19529 0.0
H312 H 0.11346 0.83305 0.2249 0.0
H313 H 0.1911 0.80891 0.29748 0.0
H314 H 0.09116 0.68998 0.33183 0.0
H315 H 0.98079 0.563 0.32762 0.0
C316 C 0.27417 0.31782 0.72604 0.0
C317 C 0.2534 0.34346 0.75974 0.0
C318 C 0.2852 0.25584 0.72898 0.0
C319 C 0.27494 0.21857 0.76564 0.0
C320 C 0.24716 0.24 0.79818 0.0
C321 C 0.2374 0.30258 0.79543 0.0
C322 C 0.29555 0.15944 0.77149 0.0
C323 C 0.35454 0.16094 0.75277 0.0
C324 C 0.37452 0.10137 0.75851 0.0
C325 C 0.39945 0.07784 0.72562 0.0
C326 C 0.40777 0.01443 0.72843 0.0
C327 C 0.39326 0.97485 0.76448 0.0
H328 H 0.34921 0.0841 0.82167 0.0
C329 C 0.37568 0.00265 0.79843 0.0
C330 C 0.36589 0.06541 0.79545 0.0
H331 H 0.36404 0.97274 0.82645 0.0
H332 H 0.2874 0.34895 0.69835 0.0
H333 H 0.30403 0.23881 0.70294 0.0
H334 H 0.23761 0.21131 0.8265 0.0
H335 H 0.22138 0.32161 0.82181 0.0
H336 H 0.26347 0.11566 0.79328 0.0
H337 H 0.3867 0.20459 0.73093 0.0
H338 H 0.40767 0.10549 0.69707 0.0
H339 H 0.42147 -0.00623 0.70186 0.0
C340 C 0.36702 0.38799 0.22955 0.0
C341 C 0.40735 0.39599 0.26479 0.0
C342 C 0.29502 0.37933 0.23093 0.0
C343 C 0.26181 0.37802 0.26767 0.0
C344 C 0.30543 0.39482 0.30243 0.0
C345 C 0.37801 0.40391 0.30102 0.0
C346 C 0.18097 0.3555 0.27072 0.0
C347 C 0.12831 0.30566 0.24554 0.0
C348 C 0.04724 0.28136 0.24945 0.0
C349 C 0.00297 0.26681 0.21511 0.0
C350 C 0.92899 0.25363 0.21793 0.0
C351 C 0.89851 0.25429 0.25524 0.0
H352 H 0.04559 0.2819 0.31399 0.0
C353 C 0.94041 0.26133 0.28972 0.0
C354 C 0.01407 0.27465 0.28688 0.0
H355 H 0.91765 0.26055 0.31893 0.0
H356 H 0.38942 0.38425 0.20097 0.0
H357 H 0.2646 0.37091 0.20331 0.0
H358 H 0.28161 0.39618 0.33099 0.0
H359 H 0.40864 0.41176 0.32848 0.0
H360 H 0.16409 0.37759 0.29559 0.0
H361 H 0.14478 0.28338 0.22061 0.0
H362 H 0.02712 0.27017 0.18598 0.0
H363 H 0.89796 0.24849 0.19087 0.0
C364 C 0.97582 0.37229 0.79353 0.0
C365 C 0.00757 0.41391 0.75869 0.0
C366 C 0.91285 0.29988 0.79125 0.0
C367 C 0.88063 0.26894 0.7541 0.0
C368 C 0.90778 0.31376 0.71991 0.0
C369 C 0.9714 0.38543 0.72209 0.0
C370 C 0.82167 0.18905 0.74973 0.0
C371 C 0.82234 0.1341 0.77139 0.0
C372 C 0.76392 0.05395 0.76708 0.0
C373 C 0.73984 0.00843 0.80114 0.0
C374 C 0.6775 0.93588 0.79932 0.0
C375 C 0.63952 0.9072 0.76318 0.0
H376 H 0.74905 0.05612 0.70321 0.0
C377 C 0.66802 0.94986 0.72831 0.0
C378 C 0.72976 0.02309 0.73025 0.0
H379 H 0.63933 0.92888 0.70015 0.0
H380 H 0.00281 0.39329 0.82205 0.0
H381 H 0.89117 0.2673 0.81831 0.0
H382 H 0.88289 0.29146 0.69111 0.0
H383 H -0.00518 0.417 0.69486 0.0
H384 H 0.77955 0.17501 0.7266 0.0
H385 H 0.86469 0.14842 0.79443 0.0
H386 H 0.76624 0.03065 0.82967 0.0
H387 H 0.65645 0.90362 0.82657 0.0
loop_
_geom_bond_atom_site_label_1
_geom_bond_atom_site_label_2
_geom_bond_distance
_geom_bond_site_symmetry_2
_ccdc_geom_bond_type
C0 O28 1.281 . S
C0 O37 1.281 . S
C1 O29 1.281 . S
C1 O47 1.281 . S
O2 Hf6 2.202 . S
O2 Hf8 2.202 . S
O2 Hf10 2.202 . S
O3 Hf6 2.202 . S
O3 Hf12 2.202 . S
O3 Hf13 2.202 . S
O4 Hf6 2.072 . S
O4 Hf10 2.072 . S
O4 Hf12 2.072 . S
O5 Hf6 2.072 . S
O5 Hf8 2.072 . S
O5 Hf13 2.072 . S
Hf6 O2 2.202 . S
Hf6 O3 2.202 . S
Hf6 O4 2.072 . S
Hf6 O5 2.072 . S
Hf6 O20 2.209 . S
Hf6 O21 2.209 . S
Hf6 O36 2.209 . S
Hf6 O37 2.209 . S
O7 Hf8 2.072 . S
O7 Hf10 2.072 . S
O7 Hf15 2.072 . S
Hf8 O2 2.202 . S
Hf8 O5 2.072 . S
Hf8 O7 2.072 . S
Hf8 O11 2.202 . S
Hf8 O27 2.209 . S
Hf8 O28 2.209 . S
Hf8 O43 2.209 . S
Hf8 O47 2.209 . S
O9 Hf10 2.202 . S
O9 Hf12 2.202 . S
O9 Hf15 2.202 . S
Hf10 O2 2.202 . S
Hf10 O4 2.072 . S
Hf10 O7 2.072 . S
Hf10 O9 2.202 . S
Hf10 O32 2.209 . S
Hf10 O33 2.209 . S
Hf10 O40 2.209 . S
Hf10 O42 2.209 . S
O11 Hf8 2.202 . S
O11 Hf13 2.202 . S
O11 Hf15 2.202 . S
Hf12 O3 2.202 . S
Hf12 O4 2.072 . S
Hf12 O9 2.202 . S
Hf12 O14 2.072 . S
Hf12 O24 2.209 . S
Hf12 O25 2.209 . S
Hf12 O45 2.209 . S
Hf12 O46 2.209 . S
Hf13 O3 2.202 . S
Hf13 O5 2.072 . S
Hf13 O11 2.202 . S
Hf13 O14 2.072 . S
Hf13 O29 2.209 . S
Hf13 O30 2.209 . S
Hf13 O39 2.209 . S
Hf13 O44 2.209 . S
O14 Hf12 2.072 . S
O14 Hf13 2.072 . S
O14 Hf15 2.072 . S
Hf15 O7 2.072 . S
Hf15 O9 2.202 . S
Hf15 O11 2.202 . S
Hf15 O14 2.072 . S
Hf15 O23 2.209 . S
Hf15 O26 2.209 . S
Hf15 O35 2.209 . S
Hf15 O38 2.209 . S
C16 O30 1.281 . S
C16 O46 1.281 . S
C17 O33 1.281 . S
C17 O43 1.281 . S
C18 O32 1.281 . S
C18 O45 1.281 . S
C19 O20 1.281 . S
C19 O42 1.281 . S
O20 Hf6 2.209 . S
O20 C19 1.281 . S
O21 Hf6 2.209 . S
O21 C22 1.281 . S
C22 O21 1.281 . S
C22 O44 1.281 . S
O23 Hf15 2.209 . S
O23 C34 1.281 . S
O24 Hf12 2.209 . S
O24 C41 1.281 . S
O25 Hf12 2.209 . S
O25 C49 1.281 . S
O26 Hf15 2.209 . S
O26 C31 1.281 . S
O27 Hf8 2.209 . S
O27 C48 1.281 . S
O28 C0 1.281 . S
O28 Hf8 2.209 . S
O29 C1 1.281 . S
O29 Hf13 2.209 . S
O30 Hf13 2.209 . S
O30 C16 1.281 . S
C31 O26 1.281 . S
C31 O40 1.281 . S
O32 Hf10 2.209 . S
O32 C18 1.281 . S
O33 Hf10 2.209 . S
O33 C17 1.281 . S
C34 O23 1.281 . S
C34 O39 1.281 . S
O35 Hf15 2.209 . S
O35 C48 1.281 . S
O36 Hf6 2.209 . S
O36 C49 1.281 . S
O37 C0 1.281 . S
O37 Hf6 2.209 . S
O38 Hf15 2.209 . S
O38 C41 1.281 . S
O39 Hf13 2.209 . S
O39 C34 1.281 . S
O40 Hf10 2.209 . S
O40 C31 1.281 . S
C41 O24 1.281 . S
C41 O38 1.281 . S
O42 Hf10 2.209 . S
O42 C19 1.281 . S
O43 Hf8 2.209 . S
O43 C17 1.281 . S
O44 Hf13 2.209 . S
O44 C22 1.281 . S
O45 Hf12 2.209 . S
O45 C18 1.281 . S
O46 Hf12 2.209 . S
O46 C16 1.281 . S
O47 C1 1.281 . S
O47 Hf8 2.209 . S
C48 O27 1.281 . S
C48 O35 1.281 . S
C49 O25 1.281 . S
C49 O36 1.281 . S
C50 O78 1.281 . S
C50 O87 1.281 . S
C51 O79 1.281 . S
C51 O97 1.281 . S
O52 Hf56 2.202 . S
O52 Hf58 2.202 . S
O52 Hf60 2.202 . S
O53 Hf56 2.202 . S
O53 Hf62 2.202 . S
O53 Hf63 2.202 . S
O54 Hf56 2.072 . S
O54 Hf60 2.072 . S
O54 Hf62 2.072 . S
O55 Hf56 2.072 . S
O55 Hf58 2.072 . S
O55 Hf63 2.072 . S
Hf56 O52 2.202 . S
Hf56 O53 2.202 . S
Hf56 O54 2.072 . S
Hf56 O55 2.072 . S
Hf56 O70 2.209 . S
Hf56 O71 2.209 . S
Hf56 O86 2.209 . S
Hf56 O87 2.209 . S
O57 Hf58 2.072 . S
O57 Hf60 2.072 . S
O57 Hf65 2.072 . S
Hf58 O52 2.202 . S
Hf58 O55 2.072 . S
Hf58 O57 2.072 . S
Hf58 O61 2.202 . S
Hf58 O77 2.209 . S
Hf58 O78 2.209 . S
Hf58 O93 2.209 . S
Hf58 O97 2.209 . S
O59 Hf60 2.202 . S
O59 Hf62 2.202 . S
O59 Hf65 2.202 . S
Hf60 O52 2.202 . S
Hf60 O54 2.072 . S
Hf60 O57 2.072 . S
Hf60 O59 2.202 . S
Hf60 O82 2.209 . S
Hf60 O83 2.209 . S
Hf60 O90 2.209 . S
Hf60 O92 2.209 . S
O61 Hf58 2.202 . S
O61 Hf63 2.202 . S
O61 Hf65 2.202 . S
Hf62 O53 2.202 . S
Hf62 O54 2.072 . S
Hf62 O59 2.202 . S
Hf62 O64 2.072 . S
Hf62 O74 2.209 . S
Hf62 O75 2.209 . S
Hf62 O95 2.209 . S
Hf62 O96 2.209 . S
Hf63 O53 2.202 . S
Hf63 O55 2.072 . S
Hf63 O61 2.202 . S
Hf63 O64 2.072 . S
Hf63 O79 2.209 . S
Hf63 O80 2.209 . S
Hf63 O89 2.209 . S
Hf63 O94 2.209 . S
O64 Hf62 2.072 . S
O64 Hf63 2.072 . S
O64 Hf65 2.072 . S
Hf65 O57 2.072 . S
Hf65 O59 2.202 . S
Hf65 O61 2.202 . S
Hf65 O64 2.072 . S
Hf65 O73 2.209 . S
Hf65 O76 2.209 . S
Hf65 O85 2.209 . S
Hf65 O88 2.209 . S
C66 O80 1.281 . S
C66 O96 1.281 . S
C67 O83 1.281 . S
C67 O93 1.281 . S
C68 O82 1.281 . S
C68 O95 1.281 . S
C69 O70 1.281 . S
C69 O92 1.281 . S
O70 Hf56 2.209 . S
O70 C69 1.281 . S
O71 Hf56 2.209 . S
O71 C72 1.281 . S
C72 O71 1.281 . S
C72 O94 1.281 . S
O73 Hf65 2.209 . S
O73 C84 1.281 . S
O74 Hf62 2.209 . S
O74 C91 1.281 . S
O75 Hf62 2.209 . S
O75 C99 1.281 . S
O76 Hf65 2.209 . S
O76 C81 1.281 . S
O77 Hf58 2.209 . S
O77 C98 1.281 . S
O78 C50 1.281 . S
O78 Hf58 2.209 . S
O79 C51 1.281 . S
O79 Hf63 2.209 . S
O80 Hf63 2.209 . S
O80 C66 1.281 . S
C81 O76 1.281 . S
C81 O90 1.281 . S
O82 Hf60 2.209 . S
O82 C68 1.281 . S
O83 Hf60 2.209 . S
O83 C67 1.281 . S
C84 O73 1.281 . S
C84 O89 1.281 . S
O85 Hf65 2.209 . S
O85 C98 1.281 . S
O86 Hf56 2.209 . S
O86 C99 1.281 . S
O87 C50 1.281 . S
O87 Hf56 2.209 . S
O88 Hf65 2.209 . S
O88 C91 1.281 . S
O89 Hf63 2.209 . S
O89 C84 1.281 . S
O90 Hf60 2.209 . S
O90 C81 1.281 . S
C91 O74 1.281 . S
C91 O88 1.281 . S
O92 Hf60 2.209 . S
O92 C69 1.281 . S
O93 Hf58 2.209 . S
O93 C67 1.281 . S
O94 Hf63 2.209 . S
O94 C72 1.281 . S
O95 Hf62 2.209 . S
O95 C68 1.281 . S
O96 Hf62 2.209 . S
O96 C66 1.281 . S
O97 C51 1.281 . S
O97 Hf58 2.209 . S
C98 O77 1.281 . S
C98 O85 1.281 . S
C99 O75 1.281 . S
C99 O86 1.281 . S
C100 C101 1.386 . S
C100 C102 1.383 . S
C100 H116 0.951 . S
C101 C100 1.386 . S
C101 C105 1.383 . S
C102 C100 1.383 . S
C102 C103 1.402 . S
C102 H117 0.951 . S
C103 C102 1.402 . S
C103 C104 1.375 . S
C103 C106 1.481 . S
C104 C103 1.375 . S
C104 C105 1.367 . S
C104 H118 0.951 . S
C105 C101 1.383 . S
C105 C104 1.367 . S
C105 H119 0.950 . S
C106 C103 1.481 . S
C106 C107 1.297 1_556 S
C106 H120 0.950 . S
C107 C106 1.297 1_554 S
C107 C108 1.479 . S
C107 H121 0.950 . S
C108 C107 1.479 . S
C108 C109 1.375 . S
C108 C114 1.404 1_565 S
C109 C108 1.375 . S
C109 C110 1.369 1_565 S
C109 H122 0.950 . S
C110 C109 1.369 1_545 S
C110 C111 1.392 . S
C110 H123 0.951 . S
C111 C110 1.392 . S
C111 C113 1.384 . S
H112 C114 0.949 . S
C113 C111 1.384 . S
C113 C114 1.385 . S
C113 H115 0.950 . S
C114 C108 1.404 1_545 S
C114 H112 0.949 . S
C114 C113 1.385 . S
H115 C113 0.950 . S
H116 C100 0.951 . S
H117 C102 0.951 . S
H118 C104 0.951 . S
H119 C105 0.950 . S
H120 C106 0.950 . S
H121 C107 0.950 . S
H122 C109 0.950 . S
H123 C110 0.951 . S
C124 C125 1.386 . S
C124 C126 1.383 . S
C124 H140 0.951 . S
C125 C124 1.386 . S
C125 C129 1.383 . S
C126 C124 1.383 . S
C126 C127 1.402 . S
C126 H141 0.951 . S
C127 C126 1.402 . S
C127 C128 1.375 . S
C127 C130 1.481 . S
C128 C127 1.375 . S
C128 C129 1.367 . S
C128 H142 0.951 . S
C129 C125 1.383 . S
C129 C128 1.367 . S
C129 H143 0.950 . S
C130 C127 1.481 . S
C130 C131 1.297 . S
C130 H144 0.950 . S
C131 C130 1.297 . S
C131 C132 1.479 . S
C131 H145 0.950 . S
C132 C131 1.479 . S
C132 C133 1.375 . S
C132 C138 1.404 . S
C133 C132 1.375 . S
C133 C134 1.369 . S
C133 H146 0.950 . S
C134 C133 1.369 . S
C134 C135 1.392 . S
C134 H147 0.951 . S
C135 C134 1.392 . S
C135 C137 1.384 . S
H136 C138 0.949 . S
C137 C135 1.384 . S
C137 C138 1.385 . S
C137 H139 0.950 . S
C138 C132 1.404 . S
C138 H136 0.949 . S
C138 C137 1.385 . S
H139 C137 0.950 . S
H140 C124 0.951 . S
H141 C126 0.951 . S
H142 C128 0.951 . S
H143 C129 0.950 . S
H144 C130 0.950 . S
H145 C131 0.950 . S
H146 C133 0.950 . S
H147 C134 0.951 . S
C148 C149 1.386 . S
C148 C150 1.383 1_655 S
C148 H164 0.951 . S
C149 C148 1.386 . S
C149 C153 1.383 . S
C150 C148 1.383 1_455 S
C150 C151 1.402 1_455 S
C150 H165 0.950 . S
C151 C150 1.402 1_655 S
C151 C152 1.375 . S
C151 C154 1.481 1_655 S
C152 C151 1.375 . S
C152 C153 1.367 . S
C152 H166 0.951 . S
C153 C149 1.383 . S
C153 C152 1.367 . S
C153 H167 0.950 . S
C154 C151 1.481 1_455 S
C154 C155 1.297 . S
C154 H168 0.950 1_454 S
C155 C154 1.297 . S
C155 C156 1.479 1_554 S
C155 H169 0.950 . S
C156 C155 1.479 1_556 S
C156 C157 1.375 . S
C156 C162 1.404 . S
C157 C156 1.375 . S
C157 C158 1.369 . S
C157 H170 0.950 . S
C158 C157 1.369 . S
C158 C159 1.392 . S
C158 H171 0.951 . S
C159 C158 1.392 . S
C159 C161 1.384 . S
H160 C162 0.949 . S
C161 C159 1.384 . S
C161 C162 1.385 . S
C161 H163 0.950 . S
C162 C156 1.404 . S
C162 H160 0.949 . S
C162 C161 1.385 . S
H163 C161 0.950 . S
H164 C148 0.951 . S
H165 C150 0.950 . S
H166 C152 0.951 . S
H167 C153 0.950 . S
H168 C154 0.950 1_656 S
H169 C155 0.950 . S
H170 C157 0.950 . S
H171 C158 0.951 . S
C172 C173 1.386 . S
C172 C174 1.383 . S
C172 H188 0.951 . S
C173 C172 1.386 . S
C173 C177 1.383 . S
C174 C172 1.383 . S
C174 C175 1.402 . S
C174 H189 0.951 . S
C175 C174 1.402 . S
C175 C176 1.375 1_565 S
C175 C178 1.481 1_565 S
C176 C175 1.375 1_545 S
C176 C177 1.367 1_545 S
C176 H190 0.951 . S
C177 C173 1.383 . S
C177 C176 1.367 1_565 S
C177 H191 0.950 . S
C178 C175 1.481 1_545 S
C178 C179 1.297 . S
C178 H192 0.950 . S
C179 C178 1.297 . S
C179 C180 1.479 . S
C179 H193 0.950 1_545 S
C180 C179 1.479 . S
C180 C181 1.375 . S
C180 C186 1.404 . S
C181 C180 1.375 . S
C181 C182 1.369 . S
C181 H194 0.950 . S
C182 C181 1.369 . S
C182 C183 1.392 . S
C182 H195 0.951 . S
C183 C182 1.392 . S
C183 C185 1.384 . S
H184 C186 0.949 . S
C185 C183 1.384 . S
C185 C186 1.385 . S
C185 H187 0.950 . S
C186 C180 1.404 . S
C186 H184 0.949 . S
C186 C185 1.385 . S
H187 C185 0.950 . S
H188 C172 0.951 . S
H189 C174 0.951 . S
H190 C176 0.951 . S
H191 C177 0.950 . S
H192 C178 0.950 . S
H193 C179 0.950 1_565 S
H194 C181 0.950 . S
H195 C182 0.951 . S
C196 C197 1.386 . S
C196 C198 1.383 . S
C196 H212 0.951 . S
C197 C196 1.386 . S
C197 C201 1.383 . S
C198 C196 1.383 . S
C198 C199 1.402 . S
C198 H213 0.951 . S
C199 C198 1.402 . S
C199 C200 1.375 . S
C199 C202 1.481 . S
C200 C199 1.375 . S
C200 C201 1.367 . S
C200 H214 0.951 . S
C201 C197 1.383 . S
C201 C200 1.367 . S
C201 H215 0.950 . S
C202 C199 1.481 . S
C202 C203 1.297 1_554 S
C202 H216 0.950 . S
C203 C202 1.297 1_556 S
C203 C204 1.479 . S
C203 H217 0.950 . S
C204 C203 1.479 . S
C204 C205 1.375 . S
C204 C210 1.404 . S
C205 C204 1.375 . S
C205 C206 1.369 . S
C205 H218 0.950 . S
C206 C205 1.369 . S
C206 C207 1.392 . S
C206 H219 0.951 . S
C207 C206 1.392 . S
C207 C209 1.384 . S
H208 C210 0.949 . S
C209 C207 1.384 . S
C209 C210 1.385 . S
C209 H211 0.950 . S
C210 C204 1.404 . S
C210 H208 0.949 . S
C210 C209 1.385 . S
H211 C209 0.950 . S
H212 C196 0.951 . S
H213 C198 0.951 . S
H214 C200 0.951 . S
H215 C201 0.950 . S
H216 C202 0.950 . S
H217 C203 0.950 . S
H218 C205 0.950 . S
H219 C206 0.951 . S
C220 C221 1.386 . S
C220 C222 1.383 . S
C220 H236 0.951 . S
C221 C220 1.386 . S
C221 C225 1.383 . S
C222 C220 1.383 . S
C222 C223 1.402 . S
C222 H237 0.951 . S
C223 C222 1.402 . S
C223 C224 1.375 . S
C223 C226 1.481 . S
C224 C223 1.375 . S
C224 C225 1.367 . S
C224 H238 0.951 . S
C225 C221 1.383 . S
C225 C224 1.367 . S
C225 H239 0.950 . S
C226 C223 1.481 . S
C226 C227 1.297 . S
C226 H240 0.950 . S
C227 C226 1.297 . S
C227 C228 1.479 . S
C227 H241 0.950 . S
C228 C227 1.479 . S
C228 C229 1.375 1_655 S
C228 C234 1.404 1_655 S
C229 C228 1.375 1_455 S
C229 C230 1.369 . S
C229 H242 0.950 1_455 S
C230 C229 1.369 . S
C230 C231 1.392 . S
C230 H243 0.951 . S
C231 C230 1.392 . S
C231 C233 1.384 . S
H232 C234 0.949 . S
C233 C231 1.384 . S
C233 C234 1.385 . S
C233 H235 0.950 . S
C234 C228 1.404 1_455 S
C234 H232 0.949 . S
C234 C233 1.385 . S
H235 C233 0.950 . S
H236 C220 0.951 . S
H237 C222 0.951 . S
H238 C224 0.951 . S
H239 C225 0.950 . S
H240 C226 0.950 . S
H241 C227 0.950 . S
H242 C229 0.950 1_655 S
H243 C230 0.951 . S
C244 C245 1.386 1_565 S
C244 C246 1.383 . S
C244 H260 0.951 . S
C245 C244 1.386 1_545 S
C245 C249 1.383 . S
C246 C244 1.383 . S
C246 C247 1.402 . S
C246 H261 0.951 . S
C247 C246 1.402 . S
C247 C248 1.372 1_565 S
C247 C250 1.481 . S
C248 C247 1.372 1_545 S
C248 C249 1.372 . S
C248 H262 0.950 . S
C249 C245 1.383 . S
C249 C248 1.372 . S
C249 H263 0.950 . S
C250 C247 1.481 . S
C250 C251 1.297 . S
C250 H264 0.950 . S
C251 C250 1.297 . S
C251 C252 1.479 . S
C251 H265 0.950 . S
C252 C251 1.479 . S
C252 C253 1.375 . S
C252 C258 1.404 . S
C253 C252 1.375 . S
C253 C254 1.369 . S
C253 H266 0.950 . S
C254 C253 1.369 . S
C254 C255 1.392 . S
C254 H267 0.951 . S
C255 C254 1.392 . S
C255 C257 1.384 . S
H256 C258 0.949 . S
C257 C255 1.384 . S
C257 C258 1.385 . S
C257 H259 0.950 . S
C258 C252 1.404 . S
C258 H256 0.949 . S
C258 C257 1.385 . S
H259 C257 0.950 . S
H260 C244 0.951 . S
H261 C246 0.951 . S
H262 C248 0.950 . S
H263 C249 0.950 . S
H264 C250 0.950 . S
H265 C251 0.950 . S
H266 C253 0.950 . S
H267 C254 0.951 . S
C268 C269 1.386 . S
C268 C270 1.383 1_455 S
C268 H284 0.951 . S
C269 C268 1.386 . S
C269 C273 1.383 . S
C270 C268 1.383 1_655 S
C270 C271 1.402 . S
C270 H285 0.951 . S
C271 C270 1.402 . S
C271 C272 1.367 1_655 S
C271 C274 1.481 . S
C272 C271 1.367 1_455 S
C272 C273 1.382 . S
C272 H286 0.944 1_455 S
C273 C269 1.383 . S
C273 C272 1.382 . S
C273 H287 0.950 . S
C274 C271 1.481 . S
C274 C275 1.297 . S
C274 H288 0.950 . S
C275 C274 1.297 . S
C275 C276 1.479 . S
C275 H289 0.950 . S
C276 C275 1.479 . S
C276 C277 1.375 . S
C276 C282 1.404 . S
C277 C276 1.375 . S
C277 C278 1.369 . S
C277 H290 0.950 . S
C278 C277 1.369 . S
C278 C279 1.392 . S
C278 H291 0.951 . S
C279 C278 1.392 . S
C279 C281 1.384 . S
H280 C282 0.949 . S
C281 C279 1.384 . S
C281 C282 1.385 . S
C281 H283 0.950 . S
C282 C276 1.404 . S
C282 H280 0.949 . S
C282 C281 1.385 . S
H283 C281 0.950 . S
H284 C268 0.951 . S
H285 C270 0.951 . S
H286 C272 0.944 1_655 S
H287 C273 0.950 . S
H288 C274 0.950 . S
H289 C275 0.950 . S
H290 C277 0.950 . S
H291 C278 0.951 . S
C292 C293 1.386 . S
C292 C294 1.383 1_545 S
C292 H308 0.951 . S
C293 C292 1.386 . S
C293 C297 1.383 . S
C294 C292 1.383 1_565 S
C294 C295 1.402 . S
C294 H309 0.951 . S
C295 C294 1.402 . S
C295 C296 1.375 . S
C295 C298 1.481 . S
C296 C295 1.375 . S
C296 C297 1.367 1_565 S
C296 H310 0.951 . S
C297 C293 1.383 . S
C297 C296 1.367 1_545 S
C297 H311 0.950 . S
C298 C295 1.481 . S
C298 C299 1.297 . S
C298 H312 0.950 . S
C299 C298 1.297 . S
C299 C300 1.479 . S
C299 H313 0.950 . S
C300 C299 1.479 . S
C300 C301 1.375 . S
C300 C306 1.404 . S
C301 C300 1.375 . S
C301 C302 1.369 1_455 S
C301 H314 0.950 . S
C302 C301 1.369 1_655 S
C302 C303 1.392 . S
C302 H315 0.951 . S
C303 C302 1.392 . S
C303 C305 1.384 . S
H304 C306 0.949 . S
C305 C303 1.384 . S
C305 C306 1.385 1_655 S
C305 H307 0.950 . S
C306 C300 1.404 . S
C306 H304 0.949 . S
C306 C305 1.385 1_455 S
H307 C305 0.950 . S
H308 C292 0.951 . S
H309 C294 0.951 . S
H310 C296 0.951 . S
H311 C297 0.950 . S
H312 C298 0.950 . S
H313 C299 0.950 . S
H314 C301 0.950 . S
H315 C302 0.951 . S
C316 C317 1.386 . S
C316 C318 1.383 . S
C316 H332 0.951 . S
C317 C316 1.386 . S
C317 C321 1.383 . S
C318 C316 1.383 . S
C318 C319 1.402 . S
C318 H333 0.951 . S
C319 C318 1.402 . S
C319 C320 1.375 . S
C319 C322 1.481 . S
C320 C319 1.375 . S
C320 C321 1.367 . S
C320 H334 0.951 . S
C321 C317 1.383 . S
C321 C320 1.367 . S
C321 H335 0.950 . S
C322 C319 1.481 . S
C322 C323 1.297 . S
C322 H336 0.950 . S
C323 C322 1.297 . S
C323 C324 1.479 . S
C323 H337 0.950 . S
C324 C323 1.479 . S
C324 C325 1.375 . S
C324 C330 1.404 . S
C325 C324 1.375 . S
C325 C326 1.369 1_545 S
C325 H338 0.950 . S
C326 C325 1.369 1_565 S
C326 C327 1.392 . S
C326 H339 0.951 . S
C327 C326 1.392 . S
C327 C329 1.384 1_565 S
H328 C330 0.949 . S
C329 C327 1.384 1_545 S
C329 C330 1.385 . S
C329 H331 0.950 . S
C330 C324 1.404 . S
C330 H328 0.949 . S
C330 C329 1.385 . S
H331 C329 0.950 . S
H332 C316 0.951 . S
H333 C318 0.951 . S
H334 C320 0.951 . S
H335 C321 0.950 . S
H336 C322 0.950 . S
H337 C323 0.950 . S
H338 C325 0.950 . S
H339 C326 0.951 . S
C340 C341 1.386 . S
C340 C342 1.383 . S
C340 H356 0.951 . S
C341 C340 1.386 . S
C341 C345 1.383 . S
C342 C340 1.383 . S
C342 C343 1.402 . S
C342 H357 0.951 . S
C343 C342 1.402 . S
C343 C344 1.375 . S
C343 C346 1.481 . S
C344 C343 1.375 . S
C344 C345 1.367 . S
C344 H358 0.951 . S
C345 C341 1.383 . S
C345 C344 1.367 . S
C345 H359 0.950 . S
C346 C343 1.481 . S
C346 C347 1.297 . S
C346 H360 0.950 . S
C347 C346 1.297 . S
C347 C348 1.479 . S
C347 H361 0.950 . S
C348 C347 1.479 . S
C348 C349 1.375 . S
C348 C354 1.404 . S
C349 C348 1.375 . S
C349 C350 1.369 1_455 S
C349 H362 0.950 . S
C350 C349 1.369 1_655 S
C350 C351 1.392 . S
C350 H363 0.951 . S
C351 C350 1.392 . S
C351 C353 1.384 . S
H352 C354 0.949 . S
C353 C351 1.384 . S
C353 C354 1.385 1_655 S
C353 H355 0.950 . S
C354 C348 1.404 . S
C354 H352 0.949 . S
C354 C353 1.385 1_455 S
H355 C353 0.950 . S
H356 C340 0.951 . S
H357 C342 0.951 . S
H358 C344 0.951 . S
H359 C345 0.950 . S
H360 C346 0.950 . S
H361 C347 0.950 . S
H362 C349 0.950 . S
H363 C350 0.951 . S
C364 C365 1.386 . S
C364 C366 1.383 1_455 S
C364 H380 0.951 . S
C365 C364 1.386 . S
C365 C369 1.383 1_455 S
C366 C364 1.383 1_655 S
C366 C367 1.402 . S
C366 H381 0.951 . S
C367 C366 1.402 . S
C367 C368 1.375 . S
C367 C370 1.481 . S
C368 C367 1.375 . S
C368 C369 1.367 . S
C368 H382 0.951 . S
C369 C365 1.383 1_655 S
C369 C368 1.367 . S
C369 H383 0.950 . S
C370 C367 1.481 . S
C370 C371 1.297 . S
C370 H384 0.950 . S
C371 C370 1.297 . S
C371 C372 1.479 . S
C371 H385 0.950 . S
C372 C371 1.479 . S
C372 C373 1.375 . S
C372 C378 1.404 . S
C373 C372 1.375 . S
C373 C374 1.369 1_545 S
C373 H386 0.950 . S
C374 C373 1.369 1_565 S
C374 C375 1.392 . S
C374 H387 0.951 . S
C375 C374 1.392 . S
C375 C377 1.384 . S
H376 C378 0.949 . S
C377 C375 1.384 . S
C377 C378 1.385 1_565 S
C377 H379 0.950 . S
C378 C372 1.404 . S
C378 H376 0.949 . S
C378 C377 1.385 1_545 S
H379 C377 0.950 . S
H380 C364 0.951 . S
H381 C366 0.951 . S
H382 C368 0.951 . S
H383 C369 0.950 . S
H384 C370 0.950 . S
H385 C371 0.950 . S
H386 C373 0.950 . S
H387 C374 0.951 . S
C101 C51 1.654 . S
C111 C16 1.774 . S
C125 C68 1.778 . S
C135 C31 1.680 . S
C149 C22 1.772 . S
C159 C72 1.725 . S
C173 C81 1.782 . S
C183 C48 1.621 . S
C197 C49 1.780 . S
C207 C50 1.635 . S
C221 C17 1.655 . S
C231 C91 1.774 . S
C245 C34 1.074 . S
C255 C19 1.079 . S
C269 C84 1.099 . S
C279 C69 1.055 . S
C293 C41 1.099 . S
C303 C0 1.044 . S
C317 C99 1.076 . S
C327 C98 1.106 . S
C341 C18 1.070 . S
C351 C1 1.102 . S
C365 C66 1.102 . S
C375 C67 1.068 . S
