# Generated by pormake.
# Topology wfx, (7)-cn, num edge types: 1
# Building blocks:
#     Node 0, Type 0, BuildingBlock: NUHQUE_clean_sbu_2, # of connection points: 7
#     Node 1, Type 0, BuildingBlock: NUHQUE_clean_sbu_2, # of connection points: 7
#     Node 2, Type 0, BuildingBlock: NUHQUE_clean_sbu_2, # of connection points: 7
#     Node 3, Type 0, BuildingBlock: NUHQUE_clean_sbu_2, # of connection points: 7
#     Node 4, Type 0, BuildingBlock: NUHQUE_clean_sbu_2, # of connection points: 7
#     Node 5, Type 0, BuildingBlock: NUHQUE_clean_sbu_2, # of connection points: 7
#     Node 6, Type 0, BuildingBlock: NUHQUE_clean_sbu_2, # of connection points: 7
#     Node 7, Type 0, BuildingBlock: NUHQUE_clean_sbu_2, # of connection points: 7
#     Node 8, Type 0, BuildingBlock: NUHQUE_clean_sbu_2, # of connection points: 7
#     Node 9, Type 0, BuildingBlock: NUHQUE_clean_sbu_2, # of connection points: 7
#     Node 10, Type 0, BuildingBlock: NUHQUE_clean_sbu_2, # of connection points: 7
#     Node 11, Type 0, BuildingBlock: NUHQUE_clean_sbu_2, # of connection points: 7
#     Node 12, Type 0, BuildingBlock: NUHQUE_clean_sbu_2, # of connection points: 7
#     Node 13, Type 0, BuildingBlock: NUHQUE_clean_sbu_2, # of connection points: 7
#     Node 14, Type 0, BuildingBlock: NUHQUE_clean_sbu_2, # of connection points: 7
#     Node 15, Type 0, BuildingBlock: NUHQUE_clean_sbu_2, # of connection points: 7
#     Edge 16, Type (0, 0), BuildingBlock: OJICUG_clean_linker_0, # of connection points: 2
#     Edge 17, Type (0, 0), BuildingBlock: OJICUG_clean_linker_0, # of connection points: 2
#     Edge 18, Type (0, 0), BuildingBlock: OJICUG_clean_linker_0, # of connection points: 2
#     Edge 19, Type (0, 0), BuildingBlock: OJICUG_clean_linker_0, # of connection points: 2
#     Edge 20, Type (0, 0), BuildingBlock: OJICUG_clean_linker_0, # of connection points: 2
#     Edge 21, Type (0, 0), BuildingBlock: OJICUG_clean_linker_0, # of connection points: 2
#     Edge 22, Type (0, 0), BuildingBlock: OJICUG_clean_linker_0, # of connection points: 2
#     Edge 23, Type (0, 0), BuildingBlock: OJICUG_clean_linker_0, # of connection points: 2
#     Edge 24, Type (0, 0), BuildingBlock: OJICUG_clean_linker_0, # of connection points: 2
#     Edge 25, Type (0, 0), BuildingBlock: OJICUG_clean_linker_0, # of connection points: 2
#     Edge 26, Type (0, 0), BuildingBlock: OJICUG_clean_linker_0, # of connection points: 2
#     Edge 27, Type (0, 0), BuildingBlock: OJICUG_clean_linker_0, # of connection points: 2
#     Edge 28, Type (0, 0), BuildingBlock: OJICUG_clean_linker_0, # of connection points: 2
#     Edge 29, Type (0, 0), BuildingBlock: OJICUG_clean_linker_0, # of connection points: 2
#     Edge 30, Type (0, 0), BuildingBlock: OJICUG_clean_linker_0, # of connection points: 2
#     Edge 31, Type (0, 0), BuildingBlock: OJICUG_clean_linker_0, # of connection points: 2
#     Edge 32, Type (0, 0), BuildingBlock: OJICUG_clean_linker_0, # of connection points: 2
#     Edge 33, Type (0, 0), BuildingBlock: OJICUG_clean_linker_0, # of connection points: 2
#     Edge 34, Type (0, 0), BuildingBlock: OJICUG_clean_linker_0, # of connection points: 2
#     Edge 35, Type (0, 0), BuildingBlock: OJICUG_clean_linker_0, # of connection points: 2
#     Edge 36, Type (0, 0), BuildingBlock: OJICUG_clean_linker_0, # of connection points: 2
#     Edge 37, Type (0, 0), BuildingBlock: OJICUG_clean_linker_0, # of connection points: 2
#     Edge 38, Type (0, 0), BuildingBlock: OJICUG_clean_linker_0, # of connection points: 2
#     Edge 39, Type (0, 0), BuildingBlock: OJICUG_clean_linker_0, # of connection points: 2
#     Edge 40, Type (0, 0), BuildingBlock: OJICUG_clean_linker_0, # of connection points: 2
#     Edge 41, Type (0, 0), BuildingBlock: OJICUG_clean_linker_0, # of connection points: 2
#     Edge 42, Type (0, 0), BuildingBlock: OJICUG_clean_linker_0, # of connection points: 2
#     Edge 43, Type (0, 0), BuildingBlock: OJICUG_clean_linker_0, # of connection points: 2
#     Edge 44, Type (0, 0), BuildingBlock: OJICUG_clean_linker_0, # of connection points: 2
#     Edge 45, Type (0, 0), BuildingBlock: OJICUG_clean_linker_0, # of connection points: 2
#     Edge 46, Type (0, 0), BuildingBlock: OJICUG_clean_linker_0, # of connection points: 2
#     Edge 47, Type (0, 0), BuildingBlock: OJICUG_clean_linker_0, # of connection points: 2
#     Edge 48, Type (0, 0), BuildingBlock: OJICUG_clean_linker_0, # of connection points: 2
#     Edge 49, Type (0, 0), BuildingBlock: OJICUG_clean_linker_0, # of connection points: 2
#     Edge 50, Type (0, 0), BuildingBlock: OJICUG_clean_linker_0, # of connection points: 2
#     Edge 51, Type (0, 0), BuildingBlock: OJICUG_clean_linker_0, # of connection points: 2
#     Edge 52, Type (0, 0), BuildingBlock: OJICUG_clean_linker_0, # of connection points: 2
#     Edge 53, Type (0, 0), BuildingBlock: OJICUG_clean_linker_0, # of connection points: 2
#     Edge 54, Type (0, 0), BuildingBlock: OJICUG_clean_linker_0, # of connection points: 2
#     Edge 55, Type (0, 0), BuildingBlock: OJICUG_clean_linker_0, # of connection points: 2
#     Edge 56, Type (0, 0), BuildingBlock: OJICUG_clean_linker_0, # of connection points: 2
#     Edge 57, Type (0, 0), BuildingBlock: OJICUG_clean_linker_0, # of connection points: 2
#     Edge 58, Type (0, 0), BuildingBlock: OJICUG_clean_linker_0, # of connection points: 2
#     Edge 59, Type (0, 0), BuildingBlock: OJICUG_clean_linker_0, # of connection points: 2
#     Edge 60, Type (0, 0), BuildingBlock: OJICUG_clean_linker_0, # of connection points: 2
#     Edge 61, Type (0, 0), BuildingBlock: OJICUG_clean_linker_0, # of connection points: 2
#     Edge 62, Type (0, 0), BuildingBlock: OJICUG_clean_linker_0, # of connection points: 2
#     Edge 63, Type (0, 0), BuildingBlock: OJICUG_clean_linker_0, # of connection points: 2
#     Edge 64, Type (0, 0), BuildingBlock: OJICUG_clean_linker_0, # of connection points: 2
#     Edge 65, Type (0, 0), BuildingBlock: OJICUG_clean_linker_0, # of connection points: 2
#     Edge 66, Type (0, 0), BuildingBlock: OJICUG_clean_linker_0, # of connection points: 2
#     Edge 67, Type (0, 0), BuildingBlock: OJICUG_clean_linker_0, # of connection points: 2
#     Edge 68, Type (0, 0), BuildingBlock: OJICUG_clean_linker_0, # of connection points: 2
#     Edge 69, Type (0, 0), BuildingBlock: OJICUG_clean_linker_0, # of connection points: 2
#     Edge 70, Type (0, 0), BuildingBlock: OJICUG_clean_linker_0, # of connection points: 2
#     Edge 71, Type (0, 0), BuildingBlock: OJICUG_clean_linker_0, # of connection points: 2
# Relax obj value: 0.240
# Max RMSD: 0.279
# Mean RMSD: 0.279
data_MOF--net-wfx--node1-NUHQUE_clean_sbu_2--edge1-OJICUG_clean_linker_0
_symmetry_space_group_name_H-M    P1
_symmetry_Int_Tables_number       1
_symmetry_cell_setting            triclinic
loop_
_symmetry_equiv_pos_as_xyz
'x, y, z'
_cell_length_a     34.558152
_cell_length_b     34.588075
_cell_length_c     35.989719
_cell_angle_alpha  89.989225
_cell_angle_beta   90.092433
_cell_angle_gamma 90.194341
loop_
_atom_site_label
_atom_site_type_symbol
_atom_site_fract_x
_atom_site_fract_y
_atom_site_fract_z
_atom_type_partial_charge
O0 O 0.6495 0.17828 0.06416 0.0
Tb1 Tb 0.68662 0.14567 0.10143 0.0
Eu2 Eu 0.72145 0.05346 0.12649 0.0
C3 C 0.64126 0.16779 0.02995 0.0
O4 O 0.65024 0.1329 0.01851 0.0
C5 C 0.75487 0.10568 0.06114 0.0
O6 O 0.77265 1.01715 0.1433 0.0
C7 C 0.67284 1.01113 0.08898 0.0
C8 C 0.80472 0.03381 0.15493 0.0
O9 O 0.80433 0.0711 0.16193 0.0
C10 C 0.66331 0.10383 0.17377 0.0
C11 C 0.63276 0.9955 0.08614 0.0
C12 C 0.60733 1.01095 0.05938 0.0
C13 C 0.5708 0.99411 0.05293 0.0
C14 C 0.55936 0.9623 0.07444 0.0
C15 C 0.58445 0.9457 0.1005 0.0
C16 C 0.62129 0.96216 0.10613 0.0
O17 O 0.71985 0.11969 0.05628 0.0
O18 O 0.76391 0.087 0.09163 0.0
O19 O 0.69074 0.20507 0.1209 0.0
O20 O 0.73877 0.16801 0.12932 0.0
C21 C 0.72567 0.20305 0.13396 0.0
O22 O 0.69527 0.08335 0.17581 0.0
O23 O 0.64993 0.11558 0.14138 0.0
O24 O 0.69538 0.99745 0.11537 0.0
O25 O 0.67863 0.04817 0.08209 0.0
H26 H 0.61678 0.03498 0.04228 0.0
H27 H 0.53115 0.9493 0.06992 0.0
H28 H 0.64103 0.9486 0.12555 0.0
O29 O 0.367 0.69193 0.05979 0.0
Tb30 Tb 0.38645 0.70865 0.115 0.0
Eu31 Eu 0.49591 0.71416 0.11683 0.0
C32 C 0.36227 0.65541 0.05055 0.0
O33 O 0.37515 0.62828 0.07287 0.0
C34 C 0.43694 0.7693 0.0739 0.0
O35 O 0.53295 0.76742 0.12529 0.0
C36 C 0.53592 0.65798 0.08887 0.0
C37 C 0.51804 0.79905 0.13953 0.0
O38 O 0.48223 0.79802 0.15173 0.0
C39 C 0.43904 0.67155 0.17212 0.0
C40 C 0.54861 0.61717 0.0909 0.0
C41 C 0.53334 0.59082 0.06498 0.0
C42 C 0.54839 0.55338 0.06168 0.0
C43 C 0.57835 0.54189 0.08544 0.0
C44 C 0.59429 0.56772 0.11148 0.0
C45 C 0.5794 0.60549 0.114 0.0
O46 O 0.41161 0.76452 0.10066 0.0
O47 O 0.46592 0.74527 0.06961 0.0
O48 O 0.35531 0.74045 0.15809 0.0
O49 O 0.32533 0.69815 0.12673 0.0
C50 C 0.32183 0.72404 0.15263 0.0
O51 O 0.46717 0.69725 0.17111 0.0
O52 O 0.41998 0.66355 0.14154 0.0
O53 O 0.55061 0.68334 0.11232 0.0
O54 O 0.49947 0.66456 0.08021 0.0
H55 H 0.51117 0.60028 0.04569 0.0
H56 H 0.59049 0.51318 0.0825 0.0
H57 H 0.59252 0.62589 0.13311 0.0
O58 O 0.89381 0.36383 0.06595 0.0
Tb59 Tb 0.85688 0.39701 0.10272 0.0
Eu60 Eu 0.82166 0.48791 0.12794 0.0
C61 C 0.90245 0.37409 0.03181 0.0
O62 O 0.89395 0.40902 0.0201 0.0
C63 C 0.78876 0.43648 0.06176 0.0
O64 O 0.7704 0.52322 0.14574 0.0
C65 C 0.86994 0.53133 0.09142 0.0
C66 C 0.73923 0.50586 0.15846 0.0
O67 O 0.74088 0.46869 0.16582 0.0
C68 C 0.88092 0.43881 0.17485 0.0
C69 C 0.91007 0.54688 0.08943 0.0
C70 C 0.93533 0.53242 0.06216 0.0
C71 C 0.97202 0.54908 0.05654 0.0
C72 C 0.98374 0.57993 0.07925 0.0
C73 C 0.95894 0.59537 0.10623 0.0
C74 C 0.92193 0.57895 0.11105 0.0
O75 O 0.82395 0.42283 0.05719 0.0
O76 O 0.77938 0.45482 0.09232 0.0
O77 O 0.85243 0.33775 0.12246 0.0
O78 O 0.8045 0.37501 0.13032 0.0
C79 C 0.81742 0.33993 0.13517 0.0
O80 O 0.84832 0.45816 0.17707 0.0
O81 O 0.89402 0.42696 0.14245 0.0
O82 O 0.84717 0.5444 0.11784 0.0
O83 O 0.86432 0.49442 0.08377 0.0
H84 H 0.92568 0.50921 0.0441 0.0
H85 H 1.01204 0.59286 0.07516 0.0
H86 H 0.90242 0.5915 0.13122 0.0
O87 O 0.17798 0.88969 0.07322 0.0
Tb88 Tb 0.13867 0.85719 0.10897 0.0
Eu89 Eu 0.04588 0.82346 0.13148 0.0
C90 C 0.16809 0.90301 0.04029 0.0
O91 O 0.13175 0.90091 0.02969 0.0
C92 C 0.09782 0.79205 0.06528 0.0
O93 O 1.00848 0.77157 0.145 0.0
C94 C 1.00643 0.87409 0.09398 0.0
C95 C 0.0247 0.73907 0.15581 0.0
O96 O 0.06175 0.7394 0.16412 0.0
C97 C 0.09568 0.88157 0.17939 0.0
C98 C 0.99322 0.9149 0.09181 0.0
C99 C 1.00828 0.93915 0.06386 0.0
C100 C 0.99318 0.97641 0.058 0.0
C101 C 0.96346 0.98964 0.08118 0.0
C102 C 0.94754 0.96584 0.10883 0.0
C103 C 0.9624 0.9284 0.11395 0.0
O104 O 0.11256 0.82701 0.06191 0.0
O105 O 0.07913 0.782 0.09549 0.0
O106 O 0.15205 0.80125 0.13475 0.0
O107 O 0.19239 0.8474 0.13908 0.0
C108 C 0.18574 0.81156 0.14775 0.0
O109 O 0.07571 0.84913 0.18155 0.0
O110 O 0.10691 0.89467 0.1467 0.0
O111 O 0.99124 0.85178 0.11983 0.0
O112 O 0.04321 0.86677 0.08743 0.0
H113 H 0.03055 0.9283 0.04546 0.0
H114 H 0.95159 1.01825 0.07678 0.0
H115 H 0.94938 0.9097 0.13464 0.0
O116 O 0.15519 0.87299 0.43031 0.0
Tb117 Tb 0.18784 0.90276 0.38728 0.0
Eu118 Eu 0.22295 0.99455 0.3605 0.0
C119 C 0.17516 0.84781 0.44991 0.0
O120 O 0.21232 0.84425 0.44301 0.0
C121 C 0.2563 0.94381 0.42653 0.0
O122 O 0.27447 0.03183 0.34542 0.0
C123 C 0.17315 0.03532 0.39775 0.0
C124 C 0.30694 1.01566 0.33449 0.0
O125 O 0.30672 0.97853 0.3267 0.0
C126 C 0.16381 0.94353 0.31445 0.0
C127 C 0.13238 0.04882 0.40054 0.0
C128 C 0.1082 0.03331 0.42836 0.0
C129 C 0.07109 0.04856 0.43477 0.0
C130 C 0.05785 0.07883 0.41226 0.0
C131 C 0.08148 0.09526 0.3848 0.0
C132 C 0.11888 0.08035 0.37918 0.0
O133 O 0.2209 0.93081 0.43156 0.0
O134 O 0.26562 0.9616 0.39564 0.0
O135 O 0.1903 0.84396 0.3656 0.0
O136 O 0.24042 0.87943 0.3616 0.0
C137 C 0.22617 0.84509 0.35491 0.0
O138 O 0.19626 0.96348 0.31171 0.0
O139 O 0.15082 0.93252 0.34729 0.0
O140 O 0.19479 0.04954 0.37091 0.0
O141 O 0.18068 0.9988 0.40534 0.0
H142 H 0.119 1.01053 0.44624 0.0
H143 H 0.02928 0.09069 0.41702 0.0
H144 H 0.13752 0.09378 0.35869 0.0
O145 O 0.68398 0.14414 0.41852 0.0
Tb146 Tb 0.65025 0.18255 0.38335 0.0
Eu147 Eu 0.55604 0.22289 0.36317 0.0
C148 C 0.67324 0.13285 0.45185 0.0
O149 O 0.63757 0.13891 0.46294 0.0
C150 C 0.61216 0.24645 0.42966 0.0
O151 O 0.52039 0.27626 0.35106 0.0
C152 C 0.5134 0.17236 0.39786 0.0
C153 C 0.53725 0.30897 0.34152 0.0
O154 O 0.57461 0.30885 0.33474 0.0
C155 C 0.60428 0.16551 0.31195 0.0
C156 C 0.49841 0.13204 0.39988 0.0
C157 C 0.51288 0.10723 0.4276 0.0
C158 C 0.49639 0.07055 0.43366 0.0
C159 C 0.46576 0.05834 0.41086 0.0
C160 C 0.45038 0.08265 0.38336 0.0
C161 C 0.46658 0.11968 0.37814 0.0
O162 O 0.62256 0.21 0.43043 0.0
O163 O 0.59181 0.26018 0.40179 0.0
O164 O 0.70875 0.189 0.36174 0.0
O165 O 0.67176 0.23784 0.36114 0.0
C166 C 0.70656 0.22548 0.3536 0.0
O167 O 0.58522 0.19852 0.31202 0.0
O168 O 0.61627 0.1499 0.34328 0.0
O169 O 0.50003 0.19533 0.3717 0.0
O170 O 0.55015 0.17847 0.40577 0.0
H171 H 0.53586 0.11728 0.44577 0.0
H172 H 0.45291 0.03008 0.41531 0.0
H173 H 0.45401 0.13887 0.35765 0.0
O174 O 0.39555 0.68442 0.42173 0.0
Tb175 Tb 0.35858 0.65068 0.38488 0.0
Eu176 Eu 0.32597 0.55562 0.35998 0.0
C177 C 0.40445 0.67429 0.4559 0.0
O178 O 0.39674 0.63906 0.46742 0.0
C179 C 0.29386 0.60614 0.42706 0.0
O180 O 0.27421 0.51782 0.34661 0.0
C181 C 0.37741 0.51498 0.39543 0.0
C182 C 0.24132 0.53363 0.33621 0.0
O183 O 0.24097 0.57073 0.32835 0.0
C184 C 0.37986 0.61001 0.3112 0.0
C185 C 0.41802 0.50095 0.39856 0.0
C186 C 0.44223 0.51639 0.42645 0.0
C187 C 0.47893 0.50048 0.4336 0.0
C188 C 0.49181 0.46963 0.41164 0.0
C189 C 0.46811 0.45316 0.38417 0.0
C190 C 0.43105 0.46873 0.37788 0.0
O191 O 0.32823 0.62225 0.43068 0.0
O192 O 0.28427 0.58756 0.39665 0.0
O193 O 0.35303 0.70996 0.36552 0.0
O194 O 0.30454 0.67256 0.36024 0.0
C195 C 0.31727 0.70771 0.35475 0.0
O196 O 0.34881 0.58782 0.31019 0.0
O197 O 0.39422 0.62192 0.34322 0.0
O198 O 0.35549 0.50097 0.36863 0.0
O199 O 0.36991 0.55142 0.40347 0.0
H200 H 0.43166 0.53957 0.44393 0.0
H201 H 0.52012 0.45732 0.41686 0.0
H202 H 0.4123 0.45528 0.35744 0.0
O203 O 0.86496 0.40257 0.41952 0.0
Tb204 Tb 0.89853 0.36415 0.38433 0.0
Eu205 Eu 0.99279 0.32382 0.36375 0.0
C206 C 0.87568 0.41363 0.45295 0.0
O207 O 0.91128 0.40731 0.46421 0.0
C208 C 0.93703 0.30014 0.43039 0.0
O209 O 0.02834 0.27082 0.35082 0.0
C210 C 0.03622 0.37406 0.39797 0.0
C211 C 1.01148 0.23826 0.34093 0.0
O212 O 0.97406 0.23831 0.33437 0.0
C213 C 0.94392 0.38101 0.31286 0.0
C214 C 0.051 0.4144 0.40033 0.0
C215 C 0.03629 0.43879 0.42819 0.0
C216 C 0.05248 0.47547 0.43469 0.0
C217 C 0.08308 0.48819 0.4122 0.0
C218 C 0.09875 0.4643 0.38456 0.0
C219 C 0.08284 0.42719 0.37891 0.0
O220 O 0.92667 0.3366 0.4312 0.0
O221 O 0.95744 0.28645 0.40259 0.0
O222 O 0.83995 0.35777 0.3627 0.0
O223 O 0.87693 0.30894 0.36196 0.0
C224 C 0.84212 0.32133 0.35442 0.0
O225 O 0.96292 0.348 0.31292 0.0
O226 O 0.93233 0.39676 0.3442 0.0
O227 O 0.04893 0.35162 0.37114 0.0
O228 O 0.99975 0.3676 0.40669 0.0
H229 H 1.01336 0.42839 0.44617 0.0
H230 H 0.0957 0.5165 0.41702 0.0
H231 H 0.09562 0.40828 0.35834 0.0
O232 O 0.39839 0.87763 0.93226 0.0
Tb233 Tb 0.35785 0.90372 0.89302 0.0
Eu234 Eu 0.31757 0.99146 0.86422 0.0
C235 C 0.40131 0.88871 0.96719 0.0
O236 O 0.38497 0.92111 0.97773 0.0
C237 C 0.28613 0.94079 0.93143 0.0
O238 O 0.26613 0.02829 0.84889 0.0
C239 C 0.3683 0.03329 0.89953 0.0
C240 C 0.23353 1.01196 0.83818 0.0
O241 O 0.2333 0.97464 0.83135 0.0
C242 C 0.3763 0.94203 0.81721 0.0
C243 C 0.40924 0.04667 0.90069 0.0
C244 C 0.43406 0.03186 0.92825 0.0
C245 C 0.47154 0.04695 0.93313 0.0
C246 C 0.48455 0.07636 0.90944 0.0
C247 C 0.46038 0.09188 0.88191 0.0
C248 C 0.42254 0.07719 0.87783 0.0
O249 O 0.32188 0.92897 0.93668 0.0
O250 O 0.2762 0.95817 0.90049 0.0
O251 O 0.3556 0.84262 0.8784 0.0
O252 O 0.30757 0.87804 0.86479 0.0
C253 C 0.32143 0.84303 0.86341 0.0
O254 O 0.34287 0.96008 0.81536 0.0
O255 O 0.39148 0.93276 0.84973 0.0
O256 O 0.34585 0.04689 0.87303 0.0
O257 O 0.36089 0.99694 0.90808 0.0
H258 H 0.42359 1.00972 0.94709 0.0
H259 H 0.51342 0.08812 0.9132 0.0
H260 H 0.4035 0.08992 0.85729 0.0
O261 O 0.6794 0.39028 0.91937 0.0
Tb262 Tb 0.64615 0.35369 0.88162 0.0
Eu263 Eu 0.55328 0.31612 0.8542 0.0
C264 C 0.66999 0.39722 0.95414 0.0
O265 O 0.6356 0.38718 0.96635 0.0
C266 C 0.60534 0.28488 0.92062 0.0
O267 O 0.51623 0.26442 0.83931 0.0
C268 C 0.511 0.36432 0.89164 0.0
C269 C 0.53211 0.23131 0.82996 0.0
O270 O 0.56952 0.23039 0.82354 0.0
C271 C 0.60427 0.37579 0.80898 0.0
C272 C 0.49722 0.4046 0.89688 0.0
C273 C 0.51223 0.42636 0.92668 0.0
C274 C 0.4968 0.46265 0.93569 0.0
C275 C 0.4669 0.47776 0.91377 0.0
C276 C 0.45085 0.45647 0.88437 0.0
C277 C 0.46585 0.41963 0.87617 0.0
O278 O 0.61875 0.32016 0.92578 0.0
O279 O 0.58798 0.27515 0.88953 0.0
O280 O 0.70517 0.35077 0.86087 0.0
O281 O 0.66913 0.30142 0.85486 0.0
C282 C 0.70376 0.31537 0.84909 0.0
O283 O 0.5846 0.34325 0.80598 0.0
O284 O 0.61444 0.38917 0.84191 0.0
O285 O 0.49799 0.34456 0.86294 0.0
O286 O 0.54717 0.35631 0.90036 0.0
H287 H 0.5347 0.41414 0.9441 0.0
H288 H 0.45499 0.50588 0.92046 0.0
H289 H 0.45269 0.40264 0.85421 0.0
O290 O 0.1509 0.68564 0.92418 0.0
Tb291 Tb 0.18844 0.65068 0.88936 0.0
Eu292 Eu 0.22549 0.55562 0.86929 0.0
C293 C 0.13902 0.67522 0.95739 0.0
O294 O 0.14491 0.63967 0.9689 0.0
C295 C 0.254 0.61208 0.93488 0.0
O296 O 0.27698 0.51819 0.85509 0.0
C297 C 0.17438 0.51365 0.9039 0.0
C298 C 0.31013 0.53377 0.84501 0.0
O299 O 0.31161 0.57124 0.83912 0.0
C300 C 0.16873 0.60479 0.81888 0.0
C301 C 0.13393 0.4988 0.90479 0.0
C302 C 0.10835 0.51354 0.93163 0.0
C303 C 0.07137 0.49733 0.93661 0.0
C304 C 0.05961 0.46675 0.91361 0.0
C305 C 0.08464 0.45108 0.88694 0.0
C306 C 0.12201 0.46697 0.88283 0.0
O307 O 0.21869 0.62605 0.93674 0.0
O308 O 0.26499 0.58969 0.90733 0.0
O309 O 0.19432 0.70797 0.86505 0.0
O310 O 0.24325 0.67108 0.86547 0.0
C311 C 0.2307 0.70542 0.85656 0.0
O312 O 0.20128 0.58503 0.81834 0.0
O313 O 0.15407 0.61666 0.8506 0.0
O314 O 0.19796 0.49985 0.87853 0.0
O315 O 0.18047 0.5505 0.91144 0.0
H316 H 0.11797 0.53651 0.94997 0.0
H317 H 0.03108 0.45417 0.91726 0.0
H318 H 0.14173 0.45419 0.86298 0.0
O319 O 0.86554 0.15098 0.91989 0.0
Tb320 Tb 0.89927 0.188 0.88308 0.0
Eu321 Eu 0.99325 0.2243 0.85939 0.0
C322 C 0.87471 0.14356 0.95464 0.0
O323 O 0.90915 0.1531 0.9672 0.0
C324 C 0.93934 0.25623 0.92379 0.0
O325 O 0.03159 0.27596 0.84709 0.0
C326 C 0.03202 0.17372 0.89767 0.0
C327 C 1.01632 0.30892 0.83625 0.0
O328 O 0.97947 0.30952 0.82721 0.0
C329 C 0.94299 0.16687 0.81122 0.0
C330 C 0.04536 0.13295 0.90032 0.0
C331 C 0.03022 0.10896 0.92845 0.0
C332 C 0.04542 0.07182 0.93479 0.0
C333 C 0.07526 0.0584 0.91186 0.0
C334 C 0.09132 0.08191 0.88408 0.0
C335 C 0.07643 0.11929 0.87852 0.0
O336 O 0.9252 0.22117 0.92839 0.0
O337 O 0.958 0.2657 0.89343 0.0
O338 O 0.84066 0.19095 0.86113 0.0
O339 O 0.87667 0.24047 0.85633 0.0
C340 C 0.84218 0.22649 0.84974 0.0
O341 O 0.96361 0.19891 0.80929 0.0
O342 O 0.93195 0.15305 0.84371 0.0
O343 O 0.04757 0.19582 0.87188 0.0
O344 O 0.99515 0.18114 0.90371 0.0
H345 H 1.00781 0.11996 0.94661 0.0
H346 H 0.08711 0.02982 0.91652 0.0
H347 H 0.08956 0.13778 0.85773 0.0
O348 O 0.88984 0.17183 0.55944 0.0
Tb349 Tb 0.85598 0.14315 0.60224 0.0
Eu350 Eu 0.82263 0.04868 0.62946 0.0
C351 C 0.87045 0.19641 0.53866 0.0
O352 O 0.83302 0.19978 0.54414 0.0
C353 C 0.78994 0.09862 0.56236 0.0
O354 O 0.77057 1.01217 0.64438 0.0
C355 C 0.87324 1.00714 0.59404 0.0
C356 C 0.73842 0.02902 0.65524 0.0
O357 O 0.73938 0.06617 0.66286 0.0
C358 C 0.87904 0.10269 0.6756 0.0
C359 C 0.91417 0.99398 0.59133 0.0
C360 C 0.93816 1.00953 0.56338 0.0
C361 C 0.97537 0.99454 0.55696 0.0
C362 C 0.98895 0.96455 0.5796 0.0
C363 C 0.96557 0.94808 0.60724 0.0
C364 C 0.92799 0.96265 0.61283 0.0
O365 O 0.82487 0.11305 0.55799 0.0
O366 O 0.78042 0.08054 0.59302 0.0
O367 O 0.85378 0.20248 0.62263 0.0
O368 O 0.80275 0.16824 0.62533 0.0
C369 C 0.81745 0.20247 0.63181 0.0
O370 O 0.84748 0.08139 0.67802 0.0
O371 O 0.89238 0.11381 0.64296 0.0
O372 O 0.85188 0.99374 0.62149 0.0
O373 O 0.86515 0.0432 0.58503 0.0
H374 H 0.92717 0.03211 0.54538 0.0
H375 H 1.01763 0.95295 0.57484 0.0
H376 H 0.90951 0.94915 0.63341 0.0
O377 O 0.36493 0.89714 0.56909 0.0
Tb378 Tb 0.39803 0.85981 0.60615 0.0
Eu379 Eu 0.48999 0.8238 0.63206 0.0
C380 C 0.37461 0.90493 0.53452 0.0
O381 O 0.40913 0.89547 0.52241 0.0
C382 C 0.43847 0.792 0.56567 0.0
O383 O 0.52771 0.77258 0.64637 0.0
C384 C 0.53075 0.87379 0.5948 0.0
C385 C 0.51205 0.73945 0.6564 0.0
O386 O 0.47476 0.73836 0.66345 0.0
C387 C 0.43922 0.88112 0.67995 0.0
C388 C 0.54551 0.91412 0.59195 0.0
C389 C 0.53089 0.93841 0.56388 0.0
C390 C 0.5474 0.97499 0.55716 0.0
C391 C 0.57816 0.98757 0.57964 0.0
C392 C 0.59372 0.9637 0.6074 0.0
C393 C 0.57744 0.92686 0.61332 0.0
O394 O 0.42478 0.82716 0.56103 0.0
O395 O 0.45601 0.78228 0.59659 0.0
O396 O 0.33848 0.85457 0.62499 0.0
O397 O 0.37628 0.80712 0.63332 0.0
C398 C 0.34098 0.81961 0.63775 0.0
O399 O 0.45966 0.84908 0.68167 0.0
O400 O 0.42796 0.8952 0.64757 0.0
O401 O 0.54522 0.85147 0.62095 0.0
O402 O 0.49378 0.8672 0.5881 0.0
H403 H 0.50782 0.92801 0.546 0.0
H404 H 0.59104 1.01573 0.5747 0.0
H405 H 0.59013 0.90805 0.63407 0.0
O406 O 0.65896 0.37459 0.55894 0.0
Tb407 Tb 0.69254 0.40316 0.60206 0.0
Eu408 Eu 0.72593 0.4971 0.63021 0.0
C409 C 0.67849 0.35008 0.53827 0.0
O410 O 0.71589 0.34674 0.54404 0.0
C411 C 0.75881 0.44779 0.5629 0.0
O412 O 0.77788 0.53332 0.64603 0.0
C413 C 0.67585 0.53926 0.59464 0.0
C414 C 0.80994 0.5163 0.65695 0.0
O415 O 0.80889 0.47908 0.66426 0.0
C416 C 0.66897 0.44306 0.67533 0.0
C417 C 0.63509 0.55288 0.59183 0.0
C418 C 0.61104 0.53796 0.56355 0.0
C419 C 0.57401 0.5534 0.55707 0.0
C420 C 0.56068 0.58331 0.57993 0.0
C421 C 0.58414 0.59908 0.60797 0.0
C422 C 0.62151 0.58403 0.61363 0.0
O423 O 0.72385 0.4335 0.5582 0.0
O424 O 0.76827 0.4655 0.5938 0.0
O425 O 0.69465 0.3438 0.6224 0.0
O426 O 0.74567 0.37803 0.6255 0.0
C427 C 0.73094 0.34379 0.63182 0.0
O428 O 0.70059 0.46418 0.67834 0.0
O429 O 0.65588 0.43248 0.64241 0.0
O430 O 0.69731 0.55234 0.62221 0.0
O431 O 0.68353 0.50313 0.5856 0.0
H432 H 0.62187 0.51548 0.54539 0.0
H433 H 0.53215 0.59528 0.57514 0.0
H434 H 0.64002 0.59698 0.63456 0.0
O435 O 0.18758 0.64434 0.57281 0.0
Tb436 Tb 0.15215 0.68065 0.60843 0.0
Eu437 Eu 0.05958 0.72138 0.62925 0.0
C438 C 0.17722 0.63339 0.53924 0.0
O439 O 0.14123 0.63806 0.52837 0.0
C440 C 0.11419 0.74504 0.56203 0.0
O441 O 0.02311 0.77384 0.64225 0.0
C442 C 1.01691 0.671 0.59444 0.0
C443 C 0.03927 0.80701 0.65137 0.0
O444 O 0.07679 0.80806 0.65729 0.0
C445 C 0.10756 0.66312 0.67983 0.0
C446 C 1.00224 0.63066 0.59244 0.0
C447 C 1.0169 0.60599 0.56481 0.0
C448 C 1.00064 0.56927 0.55866 0.0
C449 C 0.96997 0.55687 0.58123 0.0
C450 C 0.9544 0.5811 0.60867 0.0
C451 C 0.97048 0.61815 0.61403 0.0
O452 O 0.1248 0.70862 0.56127 0.0
O453 O 0.09463 0.75887 0.59032 0.0
O454 O 0.20955 0.6876 0.63244 0.0
O455 O 0.17202 0.73608 0.63143 0.0
C456 C 0.20652 0.72402 0.64055 0.0
O457 O 0.08919 0.69652 0.67998 0.0
O458 O 0.11871 0.64741 0.6483 0.0
O459 O 1.0036 0.69376 0.62074 0.0
O460 O 0.05358 0.67728 0.58646 0.0
H461 H 0.03983 0.61622 0.54674 0.0
H462 H 0.95719 0.52861 0.57657 0.0
H463 H 0.9578 0.63728 0.63446 0.0
C464 C 0.51727 0.06016 0.98599 0.0
C465 C 0.49669 0.03342 0.96398 0.0
H466 H 0.55629 0.06889 0.03157 0.0
C467 C 0.50061 0.99383 0.97145 0.0
H468 H 0.51441 0.09094 0.98123 0.0
C469 C 0.52481 0.9812 9e-05 0.0
C470 C 0.54533 1.0079 0.02227 0.0
H471 H 0.48552 0.97255 0.9547 0.0
H472 H 0.52784 0.95038 0.00446 0.0
C473 C 0.5413 0.04755 0.01482 0.0
C474 C 0.56203 0.50808 0.00879 0.0
C475 C 0.53509 0.52771 0.03114 0.0
H476 H 0.57117 0.4726 0.96081 0.0
C477 C 0.49554 0.52439 0.02279 0.0
H478 H 0.59278 0.51049 0.01426 0.0
C479 C 0.48321 0.50271 0.99227 0.0
C480 C 0.51016 0.48405 0.96918 0.0
H481 H 0.47411 0.53875 0.0398 0.0
H482 H 0.45246 0.50061 0.98673 0.0
C483 C 0.54969 0.48647 0.97812 0.0
C484 C 0.02532 0.48379 0.98905 0.0
C485 C 0.04576 0.51071 0.96718 0.0
H486 H 0.98649 0.47467 0.03458 0.0
C487 C 0.04178 0.55028 0.97496 0.0
H488 H 0.02828 0.45304 0.98423 0.0
C489 C 1.01782 0.56264 0.00385 0.0
C490 C 0.99743 0.53573 0.02578 0.0
H491 H 0.05676 0.57174 0.95838 0.0
H492 H 1.01487 0.5934 0.00864 0.0
C493 C 1.0014 0.49616 0.01797 0.0
C494 C 0.97992 1.02173 0.00477 0.0
C495 C 1.00666 1.00086 0.02646 0.0
H496 H 0.97102 0.06015 0.95883 0.0
C497 C 0.04616 1.00366 0.01779 0.0
H498 H 0.94917 1.01972 0.01026 0.0
C499 C 0.05864 0.02685 0.98828 0.0
C500 C 0.0319 0.04765 0.96653 0.0
H501 H 0.06753 0.98838 0.03418 0.0
H502 H 0.08939 0.02885 0.98282 0.0
C503 C 0.99239 0.04491 0.97524 0.0
C504 C 0.0262 0.06103 0.48841 0.0
C505 C 0.0467 0.03459 0.46615 0.0
H506 H 0.98786 0.06925 0.5345 0.0
C507 C 0.04339 0.99496 0.47395 0.0
H508 H 0.02862 0.09185 0.4836 0.0
C509 C 1.02004 0.98206 0.50317 0.0
C510 C 0.99957 1.0085 0.52545 0.0
H511 H 0.05836 0.97384 0.45708 0.0
H512 H 1.01765 0.95124 0.50802 0.0
C513 C 1.00283 0.04813 0.51762 0.0
C514 C 0.48248 0.02587 0.48727 0.0
C515 C 0.50955 0.04579 0.46508 0.0
H516 H 0.47305 0.98837 0.53381 0.0
C517 C 0.54909 0.04211 0.4734 0.0
H518 H 0.45174 0.02859 0.48206 0.0
C519 C 0.56126 1.01907 0.50311 0.0
C520 C 0.5342 0.99928 0.52539 0.0
H521 H 0.5707 0.05663 0.45663 0.0
H522 H 0.59202 1.01638 0.50829 0.0
C523 C 0.49466 1.00285 0.517 0.0
C524 C 0.54626 0.50022 0.51739 0.0
C525 C 0.54976 0.5398 0.52538 0.0
H526 H 0.52052 0.4568 0.48299 0.0
C527 C 0.52965 0.56647 0.50298 0.0
H528 H 0.5609 0.47894 0.53438 0.0
C529 C 0.50657 0.55384 0.47336 0.0
C530 C 0.50312 0.51424 0.46533 0.0
H531 H 0.53218 0.59724 0.50801 0.0
H532 H 0.49194 0.57515 0.45638 0.0
C533 C 0.52313 0.4876 0.48785 0.0
C534 C 0.0536 0.54164 0.51898 0.0
C535 C 1.01401 0.54486 0.52718 0.0
H536 H 0.09676 0.51682 0.48388 0.0
C537 C 0.9871 0.52517 0.5046 0.0
H538 H 0.07508 0.55606 0.53605 0.0
C539 C 0.99949 0.50276 0.4746 0.0
C540 C 0.03908 0.4996 0.46636 0.0
H541 H 0.95633 0.5276 0.5097 0.0
H542 H 0.97801 0.48836 0.45751 0.0
C543 C 0.06599 0.51923 0.48899 0.0
C544 C 0.59261 0.87468 0.11172 0.0
C545 C 0.57229 0.90904 0.11857 0.0
H546 H 0.59138 0.81268 0.11294 0.0
C547 C 0.53643 0.90699 0.13678 0.0
H548 H 0.62007 0.87546 0.09726 0.0
C549 C 0.51997 0.87122 0.14577 0.0
C550 C 0.53882 0.83661 0.13636 0.0
H551 H 0.52015 0.9331 0.14224 0.0
H552 H 0.49148 0.87075 0.15825 0.0
C553 C 0.57597 0.83875 0.12043 0.0
C554 C 0.66686 0.50395 0.16016 0.0
C555 C 0.70119 0.52527 0.15529 0.0
H556 H 0.60573 0.5011 0.15054 0.0
C557 C 0.69873 0.56346 0.14203 0.0
H558 H 0.66762 0.47459 0.17058 0.0
C559 C 0.66315 0.57867 0.13066 0.0
C560 C 0.62945 0.55591 0.13225 0.0
H561 H 0.72458 0.58078 0.13817 0.0
H562 H 0.66256 0.60709 0.11802 0.0
C563 C 0.63138 0.51908 0.14863 0.0
C564 C 0.96625 0.70007 0.13645 0.0
C565 C 1.00423 0.70153 0.15066 0.0
H566 H 0.92175 0.66489 0.11171 0.0
C567 C 0.02441 0.66662 0.15543 0.0
H568 H 0.94982 0.72636 0.1325 0.0
C569 C 1.00838 0.63162 0.14343 0.0
C570 C 0.97162 0.63054 0.12673 0.0
H571 H 0.05359 0.66651 0.16647 0.0
H572 H 0.02556 0.60556 0.14548 0.0
C573 C 0.95004 0.66485 0.12471 0.0
C574 C 0.87718 0.03368 0.15527 0.0
C575 C 0.84217 1.01322 0.15151 0.0
H576 H 0.93826 0.03438 0.14511 0.0
C577 C 0.84336 0.97452 0.13946 0.0
H578 H 0.87744 0.06342 0.16469 0.0
C579 C 0.8784 0.95781 0.12846 0.0
C580 C 0.9128 0.97956 0.12912 0.0
H581 H 0.81696 0.95785 0.13642 0.0
H582 H 0.87808 0.92889 0.1169 0.0
C583 C 0.91208 1.01709 0.14404 0.0
C584 C 0.07127 0.20009 0.35654 0.0
C585 C 0.03253 0.20102 0.34436 0.0
H586 H 0.11749 0.16547 0.37842 0.0
C587 C 1.01262 0.16581 0.33979 0.0
H588 H 0.08755 0.22664 0.3602 0.0
C589 C 0.02982 0.13091 0.35019 0.0
C590 C 0.06741 0.13033 0.36515 0.0
H591 H 0.9829 0.16533 0.3302 0.0
H592 H 1.01293 0.10452 0.34845 0.0
C593 C 0.08858 0.16503 0.36676 0.0
C594 C 0.37945 1.01623 0.33489 0.0
C595 C 0.34443 0.03635 0.33921 0.0
H596 H 0.44055 1.01544 0.34511 0.0
C597 C 0.34574 0.07454 0.35276 0.0
H598 H 0.37968 0.9869 0.32437 0.0
C599 C 0.38091 0.09103 0.36436 0.0
C600 C 0.41531 0.06955 0.36285 0.0
H601 H 0.31937 0.09093 0.35636 0.0
H602 H 0.38074 0.11951 0.37689 0.0
C603 C 0.41441 0.03256 0.34675 0.0
C604 C 0.46068 0.38293 0.36747 0.0
C605 C 0.48189 0.41759 0.36511 0.0
H606 H 0.46147 0.32118 0.36178 0.0
C607 C 0.51934 0.41659 0.34999 0.0
H608 H 0.43188 0.3828 0.37933 0.0
C609 C 0.53631 0.38146 0.33996 0.0
C610 C 0.51634 0.34635 0.34508 0.0
H611 H 0.53631 0.44289 0.34775 0.0
H612 H 0.5659 0.38173 0.33009 0.0
C613 C 0.47777 0.34762 0.35764 0.0
C614 C 0.16845 0.45709 0.36598 0.0
C615 C 0.1337 0.47801 0.36432 0.0
H616 H 0.23001 0.45819 0.35824 0.0
C617 C 0.13408 0.51509 0.34837 0.0
H618 H 0.16904 0.42858 0.37842 0.0
C619 C 0.1688 0.53201 0.33672 0.0
C620 C 0.20413 0.51241 0.3411 0.0
H621 H 0.10767 0.5318 0.34665 0.0
H622 H 0.16812 0.56135 0.32625 0.0
C623 C 0.20339 0.47418 0.35459 0.0
C624 C 0.52938 0.15894 0.83198 0.0
C625 C 0.51025 0.1946 0.83508 0.0
H626 H 0.52818 0.09825 0.84386 0.0
C627 C 0.47178 0.19484 0.84795 0.0
H628 H 0.55888 0.15753 0.82195 0.0
C629 C 0.45409 0.16064 0.86035 0.0
C630 C 0.47461 0.12565 0.86024 0.0
H631 H 0.4561 0.22176 0.85056 0.0
H632 H 0.42547 0.16211 0.8725 0.0
C633 C 0.51181 0.12491 0.84453 0.0
C634 C 0.41688 0.5105 0.85182 0.0
C635 C 0.41617 0.47239 0.86535 0.0
H636 H 0.38411 0.55952 0.83415 0.0
C637 C 0.38059 0.45268 0.86688 0.0
H638 H 0.44394 0.52635 0.85038 0.0
C639 C 0.34605 0.47184 0.85797 0.0
C640 C 0.34653 0.51099 0.84717 0.0
H641 H 0.37919 0.42343 0.87757 0.0
H642 H 0.31889 0.4566 0.86155 0.0
C643 C 0.38251 0.52952 0.84266 0.0
C644 C 0.07534 0.34648 0.85679 0.0
C645 C 0.03766 0.34595 0.84178 0.0
H646 H 0.12019 0.38059 0.88237 0.0
C647 C 1.01857 0.38138 0.83644 0.0
H648 H 0.09096 0.31978 0.86122 0.0
C649 C 0.03528 0.41602 0.84862 0.0
C650 C 0.07167 0.41621 0.8661 0.0
H651 H 0.98967 0.38223 0.82478 0.0
H652 H 1.01884 0.44252 0.84613 0.0
C653 C 0.09223 0.38133 0.86873 0.0
C654 C 0.1957 0.07175 0.8542 0.0
C655 C 0.19637 0.03311 0.8419 0.0
H656 H 0.16148 0.11783 0.87675 0.0
C657 C 0.16105 1.01323 0.83786 0.0
H658 H 0.22234 0.08798 0.85749 0.0
C659 C 0.12634 0.03033 0.84894 0.0
C660 C 0.12606 0.06782 0.86398 0.0
H661 H 0.16036 0.98357 0.82825 0.0
H662 H 0.09989 1.01346 0.84762 0.0
C663 C 0.16082 0.08898 0.86504 0.0
C664 C 0.9784 0.84354 0.63561 0.0
C665 C 1.01712 0.84366 0.64793 0.0
H666 H 0.93131 0.87693 0.61356 0.0
C667 C 0.03598 0.87941 0.65267 0.0
H668 H 0.96291 0.81656 0.6318 0.0
C669 C 1.01783 0.91384 0.64231 0.0
C670 C 0.9803 0.91343 0.62718 0.0
H671 H 0.06563 0.88072 0.66239 0.0
H672 H 0.03398 0.94068 0.64415 0.0
C673 C 0.96014 0.87815 0.62539 0.0
C674 C 0.69852 0.97065 0.6378 0.0
C675 C 0.70054 1.00908 0.65059 0.0
H676 H 0.66272 0.92584 0.61455 0.0
C677 C 0.66594 0.03004 0.6543 0.0
H678 H 0.72456 0.95363 0.63469 0.0
C679 C 0.6307 1.01417 0.64262 0.0
C680 C 0.6291 0.97682 0.62736 0.0
H681 H 0.66627 0.0596 0.66421 0.0
H682 H 0.6049 0.03183 0.64385 0.0
C683 C 0.66308 0.95462 0.62642 0.0
C684 C 0.51473 0.66705 0.65562 0.0
C685 C 0.5339 0.70277 0.65184 0.0
H686 H 0.51598 0.60609 0.64512 0.0
C687 C 0.57242 0.70295 0.63909 0.0
H688 H 0.48519 0.66569 0.66553 0.0
C689 C 0.5902 0.66853 0.62767 0.0
C690 C 0.56971 0.63339 0.62858 0.0
H691 H 0.58811 0.72991 0.63596 0.0
H692 H 0.61892 0.66984 0.61569 0.0
C693 C 0.53236 0.63282 0.64396 0.0
C694 C 0.88239 0.51512 0.65609 0.0
C695 C 0.84784 0.53616 0.65241 0.0
H696 H 0.94335 0.51313 0.64546 0.0
C697 C 0.84988 0.57457 0.63956 0.0
H698 H 0.88204 0.48557 0.66607 0.0
C699 C 0.88526 0.59046 0.628 0.0
C700 C 0.91916 0.56814 0.62884 0.0
H701 H 0.82387 0.59165 0.63648 0.0
H702 H 0.8856 0.6192 0.61604 0.0
C703 C 0.91758 0.53086 0.64426 0.0
C704 C 0.62324 0.26538 0.9855 0.0
C705 C 0.61142 0.25496 0.94953 0.0
H706 H 0.64106 0.24609 0.03927 0.0
C707 C 0.60666 0.21548 0.94102 0.0
H708 H 0.62694 0.29549 0.99304 0.0
C709 C 0.61511 0.18703 0.96747 0.0
C710 C 0.62791 0.19747 0.00315 0.0
H711 H 0.59749 0.20644 0.91356 0.0
H712 H 0.61233 0.15688 0.95973 0.0
C713 C 0.6311 0.23698 0.01209 0.0
C714 C 0.3132 0.59849 0.97337 0.0
C715 C 0.28244 0.62311 0.96386 0.0
H716 H 0.36247 0.58919 0.00874 0.0
C717 C 0.27943 0.65908 0.98175 0.0
H718 H 0.3163 0.57066 0.95991 0.0
C719 C 0.30647 0.67015 0.0087 0.0
C720 C 0.33655 0.6451 0.01908 0.0
H721 H 0.25631 0.67886 0.97469 0.0
H722 H 0.30305 0.69789 0.02226 0.0
C723 C 0.33965 0.60912 0.00118 0.0
C724 C 0.91972 0.27612 0.98802 0.0
C725 C 0.93273 0.28627 0.9524 0.0
H726 H 0.90083 0.29583 0.04123 0.0
C727 C 0.93833 0.32565 0.94392 0.0
H728 H 0.91535 0.24608 0.9955 0.0
C729 C 0.92964 0.3543 0.97004 0.0
C730 C 0.91578 0.34415 0.00537 0.0
H731 H 0.94841 0.33449 0.91672 0.0
H732 H 0.93315 0.38439 0.96233 0.0
C733 C 0.91164 0.30471 0.0143 0.0
C734 C 0.26641 0.91809 0.99516 0.0
C735 C 0.25628 0.93376 0.96044 0.0
H736 H 0.24673 0.89666 0.0477 0.0
C737 C 0.21699 0.94145 0.95317 0.0
H738 H 0.29634 0.91191 0.0018 0.0
C739 C 0.18846 0.9325 0.97946 0.0
C740 C 0.19851 0.91596 0.01382 0.0
H741 H 0.20805 0.95359 0.92678 0.0
H742 H 0.15845 0.93796 0.97256 0.0
C743 C 0.2379 0.90947 0.02158 0.0
C744 C 0.15855 0.75978 0.50945 0.0
C745 C 0.12729 0.77099 0.53182 0.0
H746 H 0.19804 0.77544 0.46645 0.0
C747 C 0.1103 0.80744 0.52587 0.0
H748 H 0.17243 0.73202 0.51331 0.0
C749 C 0.12474 0.8323 0.49826 0.0
C750 C 0.15692 0.82137 0.47696 0.0
H751 H 0.08611 0.81681 0.54268 0.0
H752 H 0.11162 0.86042 0.49441 0.0
C753 C 0.17339 0.78478 0.48267 0.0
C754 C 0.72098 0.09654 0.5402 0.0
C755 C 0.76033 0.10403 0.53292 0.0
H756 H 0.66253 0.09964 0.52029 0.0
C757 C 0.77083 0.11815 0.49775 0.0
H758 H 0.71186 0.08557 0.567 0.0
C759 C 0.7426 0.12563 0.47085 0.0
C760 C 0.70311 0.1197 0.47863 0.0
H761 H 0.80085 0.12406 0.49116 0.0
H762 H 0.75173 0.13746 0.4444 0.0
C763 C 0.69266 0.10455 0.51343 0.0
C764 C 0.41234 0.74386 0.47414 0.0
C765 C 0.41716 0.70442 0.48267 0.0
H766 H 0.41481 0.80238 0.49365 0.0
C767 C 0.43096 0.69427 0.51805 0.0
H768 H 0.40154 0.75274 0.4472 0.0
C769 C 0.43889 0.72282 0.54458 0.0
C770 C 0.43263 0.76217 0.53652 0.0
H771 H 0.43499 0.6642 0.52551 0.0
H772 H 0.44892 0.71389 0.57179 0.0
C773 C 0.41971 0.77238 0.50084 0.0
C774 C 0.82786 0.44968 0.54121 0.0
C775 C 0.78849 0.4425 0.53362 0.0
H776 H 0.88637 0.4463 0.52167 0.0
C777 C 0.77803 0.42875 0.49828 0.0
H778 H 0.83695 0.46036 0.56815 0.0
C779 C 0.80631 0.42128 0.47151 0.0
C780 C 0.84581 0.42684 0.4796 0.0
H781 H 0.748 0.4231 0.49144 0.0
H782 H 0.7972 0.40972 0.44492 0.0
C783 C 0.85624 0.44167 0.51457 0.0
C784 C 0.43759 0.82864 0.98515 0.0
C785 C 0.41554 0.86098 0.99551 0.0
H786 H 0.46224 0.77453 0.00202 0.0
C787 C 0.40334 0.86427 0.03264 0.0
H788 H 0.44739 0.82525 0.95677 0.0
C789 C 0.41108 0.83487 0.05827 0.0
C790 C 0.4319 0.80189 0.04759 0.0
H791 H 0.38614 0.88868 0.04156 0.0
H792 H 0.40013 0.83767 0.08632 0.0
C793 C 0.44607 0.79958 0.01106 0.0
C794 C 0.73966 0.4078 0.97126 0.0
C795 C 0.7002 0.41101 0.98045 0.0
H796 H 0.7985 0.4128 0.98972 0.0
C797 C 0.69024 0.42456 0.01595 0.0
H798 H 0.74839 0.39721 0.94423 0.0
C799 C 0.71906 0.43393 0.04189 0.0
C800 C 0.7585 0.42931 0.03317 0.0
H801 H 0.66016 0.42739 0.0239 0.0
H802 H 0.71031 0.44374 0.0692 0.0
C803 C 0.76845 0.41652 -0.00259 0.0
C804 C 0.10795 0.69469 0.01758 0.0
C805 C 0.12451 0.70512 0.98339 0.0
H806 H 0.08608 0.71392 0.06999 0.0
C807 C 0.13003 0.74462 0.97545 0.0
H808 H 0.10325 0.66457 0.02453 0.0
C809 C 0.12072 0.77294 0.00169 0.0
C810 C 0.10515 0.76247 0.03629 0.0
H811 H 0.14287 0.75372 0.94942 0.0
H812 H 0.12632 0.803 0.99507 0.0
C813 C 0.09812 0.72306 0.04363 0.0
C814 C 0.82467 0.10731 0.04186 0.0
C815 C 0.78536 0.11257 0.03283 0.0
H816 H 0.88374 0.11299 0.02436 0.0
C817 C 0.77577 0.1256 -0.00297 0.0
H818 H 0.83313 0.09729 0.06921 0.0
C819 C 0.80483 0.13394 0.97113 0.0
C820 C 0.84418 0.13008 0.98063 0.0
H821 H 0.74582 0.12979 0.98911 0.0
H822 H 0.7964 0.14473 0.94406 0.0
C823 C 0.85375 0.11629 0.01617 0.0
C824 C 0.87323 0.25935 0.50583 0.0
C825 C 0.88972 0.22293 0.51236 0.0
H826 H 0.87563 0.3123 0.47553 0.0
C827 C 0.92326 0.2124 0.4929 0.0
H828 H 0.84754 0.2684 0.52066 0.0
C829 C 0.93915 0.23752 0.46627 0.0
C830 C 0.92227 0.27386 0.45959 0.0
H831 H 0.93645 0.18442 0.49745 0.0
H832 H 0.96446 0.22849 0.45086 0.0
C833 C 0.8895 0.28464 0.48008 0.0
C834 C 0.2764 0.92388 0.49088 0.0
C835 C 0.28651 0.93689 0.4552 0.0
H836 H 0.29617 0.90445 0.54407 0.0
C837 C 0.32598 0.94187 0.44668 0.0
H838 H 0.24633 0.91985 0.49843 0.0
C839 C 0.35467 0.93261 0.47275 0.0
C840 C 0.34455 0.9188 0.50816 0.0
H841 H 0.33484 0.95186 0.41945 0.0
H842 H 0.38478 0.93568 0.46495 0.0
C843 C 0.30505 0.91526 0.51714 0.0
C844 C 0.62576 0.33406 0.49231 0.0
C845 C 0.65936 0.32359 0.51182 0.0
H846 H 0.58456 0.31793 0.45018 0.0
C847 C 0.67598 0.28725 0.50524 0.0
H848 H 0.61248 0.36197 0.4969 0.0
C849 C 0.65976 0.26196 0.47942 0.0
C850 C 0.62692 0.27269 0.4589 0.0
H851 H 0.70172 0.27825 0.5201 0.0
H852 H 0.67371 0.23437 0.47484 0.0
C853 C 0.60992 0.30895 0.46561 0.0
C854 C 0.19728 0.60688 0.47728 0.0
C855 C 0.20745 0.62229 0.51206 0.0
H856 H 0.21653 0.58933 0.42341 0.0
C857 C 0.24669 0.63041 0.51939 0.0
H858 H 0.16736 0.60031 0.47075 0.0
C859 C 0.27488 0.6247 0.49206 0.0
C860 C 0.26457 0.61023 0.45694 0.0
H861 H 0.25555 0.64254 0.54582 0.0
H862 H 0.30466 0.63216 0.4983 0.0
C863 C 0.22554 0.60065 0.45013 0.0
C864 C 0.60338 0.16235 0.24194 0.0
C865 C 0.61543 0.14701 0.27625 0.0
H866 H 0.60861 0.16047 0.1826 0.0
C867 C 0.64066 0.11515 0.2762 0.0
H868 H 0.58391 0.1868 0.24092 0.0
C869 C 0.65495 0.10022 0.24285 0.0
C870 C 0.64415 0.1165 0.20861 0.0
H871 H 0.65054 0.10244 0.30201 0.0
H872 H 0.6753 0.0765 0.24402 0.0
C873 C 0.61746 0.14715 0.20848 0.0
C874 C 0.38184 0.61155 0.24147 0.0
C875 C 0.39759 0.62333 0.27571 0.0
H876 H 0.38249 0.61727 0.18233 0.0
C877 C 0.42868 0.64978 0.2755 0.0
H878 H 0.35792 0.59126 0.24041 0.0
C879 C 0.44289 0.66483 0.24192 0.0
C880 C 0.42629 0.65382 0.20779 0.0
H881 H 0.44151 0.65959 0.30131 0.0
H882 H 0.4663 0.6857 0.24279 0.0
C883 C 0.39596 0.62658 0.20803 0.0
C884 C 0.94378 0.38333 0.24293 0.0
C885 C 0.93186 0.39886 0.27715 0.0
H886 H 0.93746 0.38408 0.18367 0.0
C887 C 0.90581 0.43002 0.27701 0.0
H888 H 0.96391 0.35941 0.24199 0.0
C889 C 0.89051 0.44398 0.24366 0.0
C890 C 0.90112 0.42739 0.20954 0.0
H891 H 0.89602 0.44283 0.30278 0.0
H892 H 0.86951 0.46713 0.24474 0.0
C893 C 0.9287 0.39757 0.20946 0.0
C894 C 0.15479 0.9447 0.245 0.0
C895 C 0.14315 0.93102 0.28009 0.0
H896 H 0.1487 0.94037 0.1859 0.0
C897 C 0.11345 0.90313 0.28172 0.0
H898 H 0.17748 0.96623 0.24262 0.0
C899 C 0.09705 0.88809 0.24909 0.0
C900 C 0.10969 0.90077 0.21398 0.0
H901 H 0.10374 0.89185 0.3082 0.0
H902 H 0.07513 0.86578 0.25143 0.0
C903 C 0.13817 0.9299 0.21239 0.0
C904 C 0.3977 0.92872 0.7144 0.0
C905 C 0.42655 0.90014 0.71498 0.0
H906 H 0.35932 0.96437 0.746 0.0
C907 C 0.44092 0.88782 0.74963 0.0
H908 H 0.38586 0.93889 0.6883 0.0
C909 C 0.42584 0.90266 0.78282 0.0
C910 C 0.39574 0.92993 0.78222 0.0
H911 H 0.4632 0.86593 0.75119 0.0
H912 H 0.43682 0.89164 0.80895 0.0
C913 C 0.38237 0.94329 0.74758 0.0
C914 C 0.60483 0.38393 0.73957 0.0
C915 C 0.61748 0.39612 0.77486 0.0
H916 H 0.61073 0.38941 0.68059 0.0
C917 C 0.64505 0.42604 0.77704 0.0
H918 H 0.58356 0.36104 0.73682 0.0
C919 C 0.66082 0.4422 0.74473 0.0
C920 C 0.64919 0.42905 0.70945 0.0
H921 H 0.65551 0.43615 0.80372 0.0
H922 H 0.68284 0.46438 0.74749 0.0
C923 C 0.62038 0.4003 0.70727 0.0
C924 C 0.16264 0.60149 0.74932 0.0
C925 C 0.15007 0.61666 0.78344 0.0
H926 H 0.15874 0.60376 0.69001 0.0
C927 C 0.12118 0.64526 0.7832 0.0
H928 H 0.18473 0.57938 0.74846 0.0
C929 C 0.10644 0.65952 0.74962 0.0
C930 C 0.11993 0.64523 0.71547 0.0
H931 H 0.11082 0.65768 0.80894 0.0
H932 H 0.0851 0.68236 0.75046 0.0
C933 C 0.1476 0.61545 0.71576 0.0
C934 C 0.94282 0.16044 0.74159 0.0
C935 C 0.92997 0.14744 0.77651 0.0
H936 H 0.93723 0.1563 0.68243 0.0
C937 C 0.90234 0.11751 0.77781 0.0
H938 H 0.96411 0.18338 0.7395 0.0
C939 C 0.88676 0.10211 0.74505 0.0
C940 C 0.89861 0.11604 0.71014 0.0
H941 H 0.89171 0.10678 0.80418 0.0
H942 H 0.86473 0.07988 0.74717 0.0
C943 C 0.92743 0.14483 0.7088 0.0
C944 C 0.81168 0.26903 0.1463 0.0
C945 C 0.79393 0.30555 0.14444 0.0
H946 H 0.80375 0.20749 0.145 0.0
C947 C 0.75346 0.3078 0.14557 0.0
H948 H 0.84291 0.2665 0.14562 0.0
C949 C 0.73111 0.27399 0.14514 0.0
C950 C 0.7489 0.23748 0.14372 0.0
H951 H 0.73907 0.33554 0.14416 0.0
H952 H 0.69991 0.27653 0.14358 0.0
C953 C 0.78932 0.23523 0.14602 0.0
C954 C 0.24972 0.72438 0.1509 0.0
C955 C 0.2845 0.74127 0.16324 0.0
H956 H 0.19007 0.73365 0.13712 0.0
C957 C 0.28375 0.77861 0.17847 0.0
H958 H 0.24952 0.69553 0.13918 0.0
C959 C 0.24993 0.80053 0.17681 0.0
C960 C 0.2163 0.78515 0.16051 0.0
H961 H 0.31009 0.79226 0.18834 0.0
H962 H 0.25096 0.83049 0.18556 0.0
C963 C 0.21569 0.74616 0.14976 0.0
C964 C 0.31148 0.77854 0.34342 0.0
C965 C 0.29357 0.74205 0.34608 0.0
H966 H 0.30403 0.84007 0.34363 0.0
C967 C 0.25305 0.73981 0.34573 0.0
H968 H 0.34274 0.78111 0.34349 0.0
C969 C 0.2309 0.77365 0.34576 0.0
C970 C 0.24895 0.8102 0.34611 0.0
H971 H 0.23852 0.71209 0.34779 0.0
H972 H 0.19972 0.77117 0.34775 0.0
C973 C 0.28937 0.81234 0.34343 0.0
C974 C 0.81112 0.25649 0.34486 0.0
C975 C 0.80791 0.29687 0.34634 0.0
H976 H 0.7812 0.20215 0.34535 0.0
C977 C 0.77087 0.31363 0.34492 0.0
H978 H 0.83925 0.24281 0.34595 0.0
C979 C 0.73759 0.29041 0.34477 0.0
C980 C 0.74079 0.25001 0.34588 0.0
H981 H 0.76751 0.34474 0.34597 0.0
H982 H 0.70946 0.30408 0.34581 0.0
C983 C 0.77784 0.23327 0.34456 0.0
C984 C 0.25985 0.80974 0.84557 0.0
C985 C 0.2996 0.80785 0.8532 0.0
H986 H 0.20675 0.77818 0.83996 0.0
C987 C 0.31749 0.77146 0.85554 0.0
H988 H 0.2454 0.8374 0.8435 0.0
C989 C 0.29545 0.73752 0.85334 0.0
C990 C 0.25517 0.73953 0.84891 0.0
H991 H 0.3482 0.7692 0.86119 0.0
H992 H 0.30956 0.70996 0.85766 0.0
C993 C 0.23779 0.77582 0.84349 0.0
C994 C 0.77114 0.23067 0.8382 0.0
C995 C 0.80742 0.24917 0.84018 0.0
H996 H 0.70943 0.2373 0.83899 0.0
C997 C 0.80909 0.28965 0.83871 0.0
H998 H 0.76903 0.19943 0.83915 0.0
C999 C 0.77493 0.31127 0.83856 0.0
C1000 C 0.73863 0.29275 0.83988 0.0
H1001 H 0.83663 0.30463 0.84017 0.0
H1002 H 0.77703 0.3425 0.8398 0.0
C1003 C 0.73698 0.25229 0.83804 0.0
C1004 C 0.73381 0.27215 0.64069 0.0
C1005 C 0.75307 0.30807 0.63954 0.0
H1006 H 0.73912 0.21032 0.63955 0.0
C1007 C 0.79364 0.30872 0.64088 0.0
H1008 H 0.70251 0.27074 0.63967 0.0
C1009 C 0.81455 0.27408 0.64088 0.0
C1010 C 0.7953 0.23816 0.63951 0.0
H1011 H 0.80925 0.33591 0.63993 0.0
H1012 H 0.84586 0.27549 0.64001 0.0
C1013 C 0.75473 0.23751 0.64067 0.0
C1014 C 0.23671 0.78929 0.64783 0.0
C1015 C 0.24013 0.74894 0.64905 0.0
H1016 H 0.26646 0.8435 0.64383 0.0
C1017 C 0.27711 0.73243 0.65268 0.0
H1018 H 0.20859 0.80275 0.64505 0.0
C1019 C 0.31029 0.75571 0.65185 0.0
C1020 C 0.30692 0.79583 0.64742 0.0
H1021 H 0.28055 0.70133 0.6538 0.0
H1022 H 0.33848 0.74211 0.65229 0.0
C1023 C 0.26987 0.81256 0.64704 0.0
loop_
_geom_bond_atom_site_label_1
_geom_bond_atom_site_label_2
_geom_bond_distance
_geom_bond_site_symmetry_2
_ccdc_geom_bond_type
O0 Tb1 2.292 . S
O0 C3 1.255 . S
Tb1 O0 2.292 . S
Tb1 O17 2.326 . S
Tb1 O19 2.500 . S
Tb1 O20 2.473 . S
Tb1 O23 2.324 . S
Eu2 O6 2.292 . S
Eu2 C7 2.852 . S
Eu2 O18 2.324 . S
Eu2 O22 2.326 . S
Eu2 O24 2.500 1_545 S
Eu2 O25 2.473 . S
C3 O0 1.255 . S
C3 O4 1.247 . S
O4 C3 1.247 . S
C5 O17 1.242 . S
C5 O18 1.258 . S
O6 Eu2 2.292 . S
O6 C8 1.255 . S
C7 Eu2 2.852 . S
C7 C11 1.503 1_545 S
C7 O24 1.273 1_545 S
C7 O25 1.257 . S
C8 O6 1.255 . S
C8 O9 1.247 . S
O9 C8 1.247 . S
C10 O22 1.242 . S
C10 O23 1.258 . S
C11 C7 1.503 1_565 S
C11 C12 1.379 1_565 S
C11 C16 1.392 . S
C12 C11 1.379 1_545 S
C12 C13 1.404 1_545 S
C12 H26 0.929 . S
C13 C12 1.404 1_565 S
C13 C14 1.389 . S
C14 C13 1.389 . S
C14 C15 1.399 . S
C14 H27 0.931 . S
C15 C14 1.399 . S
C15 C16 1.390 . S
C16 C11 1.392 . S
C16 C15 1.390 . S
C16 H28 0.929 . S
O17 Tb1 2.326 . S
O17 C5 1.242 . S
O18 Eu2 2.324 . S
O18 C5 1.258 . S
O19 Tb1 2.500 . S
O19 C21 1.273 . S
O20 Tb1 2.473 . S
O20 C21 1.257 . S
C21 O19 1.273 . S
C21 O20 1.257 . S
O22 Eu2 2.326 . S
O22 C10 1.242 . S
O23 Tb1 2.324 . S
O23 C10 1.258 . S
O24 Eu2 2.500 1_565 S
O24 C7 1.273 1_565 S
O25 Eu2 2.473 . S
O25 C7 1.257 . S
H26 C12 0.929 . S
H27 C14 0.931 . S
H28 C16 0.929 . S
O29 Tb30 2.292 . S
O29 C32 1.255 . S
Tb30 O29 2.292 . S
Tb30 O46 2.326 . S
Tb30 O48 2.500 . S
Tb30 O49 2.473 . S
Tb30 O52 2.324 . S
Eu31 O35 2.292 . S
Eu31 C36 2.852 . S
Eu31 O47 2.324 . S
Eu31 O51 2.326 . S
Eu31 O53 2.500 . S
Eu31 O54 2.473 . S
C32 O29 1.255 . S
C32 O33 1.247 . S
O33 C32 1.247 . S
C34 O46 1.242 . S
C34 O47 1.258 . S
O35 Eu31 2.292 . S
O35 C37 1.255 . S
C36 Eu31 2.852 . S
C36 C40 1.503 . S
C36 O53 1.273 . S
C36 O54 1.257 . S
C37 O35 1.255 . S
C37 O38 1.247 . S
O38 C37 1.247 . S
C39 O51 1.242 . S
C39 O52 1.258 . S
C40 C36 1.503 . S
C40 C41 1.379 . S
C40 C45 1.392 . S
C41 C40 1.379 . S
C41 C42 1.404 . S
C41 H55 0.929 . S
C42 C41 1.404 . S
C42 C43 1.389 . S
C43 C42 1.389 . S
C43 C44 1.399 . S
C43 H56 0.931 . S
C44 C43 1.399 . S
C44 C45 1.390 . S
C45 C40 1.392 . S
C45 C44 1.390 . S
C45 H57 0.929 . S
O46 Tb30 2.326 . S
O46 C34 1.242 . S
O47 Eu31 2.324 . S
O47 C34 1.258 . S
O48 Tb30 2.500 . S
O48 C50 1.273 . S
O49 Tb30 2.473 . S
O49 C50 1.257 . S
C50 O48 1.273 . S
C50 O49 1.257 . S
O51 Eu31 2.326 . S
O51 C39 1.242 . S
O52 Tb30 2.324 . S
O52 C39 1.258 . S
O53 Eu31 2.500 . S
O53 C36 1.273 . S
O54 Eu31 2.473 . S
O54 C36 1.257 . S
H55 C41 0.929 . S
H56 C43 0.931 . S
H57 C45 0.929 . S
O58 Tb59 2.292 . S
O58 C61 1.255 . S
Tb59 O58 2.292 . S
Tb59 O75 2.326 . S
Tb59 O77 2.500 . S
Tb59 O78 2.473 . S
Tb59 O81 2.324 . S
Eu60 O64 2.292 . S
Eu60 C65 2.852 . S
Eu60 O76 2.324 . S
Eu60 O80 2.326 . S
Eu60 O82 2.500 . S
Eu60 O83 2.473 . S
C61 O58 1.255 . S
C61 O62 1.247 . S
O62 C61 1.247 . S
C63 O75 1.242 . S
C63 O76 1.258 . S
O64 Eu60 2.292 . S
O64 C66 1.255 . S
C65 Eu60 2.852 . S
C65 C69 1.503 . S
C65 O82 1.273 . S
C65 O83 1.257 . S
C66 O64 1.255 . S
C66 O67 1.247 . S
O67 C66 1.247 . S
C68 O80 1.242 . S
C68 O81 1.258 . S
C69 C65 1.503 . S
C69 C70 1.379 . S
C69 C74 1.392 . S
C70 C69 1.379 . S
C70 C71 1.404 . S
C70 H84 0.929 . S
C71 C70 1.404 . S
C71 C72 1.389 . S
C72 C71 1.389 . S
C72 C73 1.399 . S
C72 H85 0.931 . S
C73 C72 1.399 . S
C73 C74 1.390 . S
C74 C69 1.392 . S
C74 C73 1.390 . S
C74 H86 0.929 . S
O75 Tb59 2.326 . S
O75 C63 1.242 . S
O76 Eu60 2.324 . S
O76 C63 1.258 . S
O77 Tb59 2.500 . S
O77 C79 1.273 . S
O78 Tb59 2.473 . S
O78 C79 1.257 . S
C79 O77 1.273 . S
C79 O78 1.257 . S
O80 Eu60 2.326 . S
O80 C68 1.242 . S
O81 Tb59 2.324 . S
O81 C68 1.258 . S
O82 Eu60 2.500 . S
O82 C65 1.273 . S
O83 Eu60 2.473 . S
O83 C65 1.257 . S
H84 C70 0.929 . S
H85 C72 0.931 . S
H86 C74 0.929 . S
O87 Tb88 2.292 . S
O87 C90 1.255 . S
Tb88 O87 2.292 . S
Tb88 O104 2.326 . S
Tb88 O106 2.500 . S
Tb88 O107 2.473 . S
Tb88 O110 2.324 . S
Eu89 O93 2.292 . S
Eu89 C94 2.852 . S
Eu89 O105 2.324 . S
Eu89 O109 2.326 . S
Eu89 O111 2.500 1_455 S
Eu89 O112 2.473 . S
C90 O87 1.255 . S
C90 O91 1.247 . S
O91 C90 1.247 . S
C92 O104 1.242 . S
C92 O105 1.258 . S
O93 Eu89 2.292 . S
O93 C95 1.255 . S
C94 Eu89 2.852 . S
C94 C98 1.503 1_455 S
C94 O111 1.273 1_455 S
C94 O112 1.257 . S
C95 O93 1.255 . S
C95 O96 1.247 . S
O96 C95 1.247 . S
C97 O109 1.242 . S
C97 O110 1.258 . S
C98 C94 1.503 1_655 S
C98 C99 1.379 1_655 S
C98 C103 1.392 . S
C99 C98 1.379 1_455 S
C99 C100 1.404 1_455 S
C99 H113 0.929 . S
C100 C99 1.404 1_655 S
C100 C101 1.389 . S
C101 C100 1.389 . S
C101 C102 1.399 . S
C101 H114 0.931 . S
C102 C101 1.399 . S
C102 C103 1.390 . S
C103 C98 1.392 . S
C103 C102 1.390 . S
C103 H115 0.929 . S
O104 Tb88 2.326 . S
O104 C92 1.242 . S
O105 Eu89 2.324 . S
O105 C92 1.258 . S
O106 Tb88 2.500 . S
O106 C108 1.273 . S
O107 Tb88 2.473 . S
O107 C108 1.257 . S
C108 O106 1.273 . S
C108 O107 1.257 . S
O109 Eu89 2.326 . S
O109 C97 1.242 . S
O110 Tb88 2.324 . S
O110 C97 1.258 . S
O111 Eu89 2.500 1_655 S
O111 C94 1.273 1_655 S
O112 Eu89 2.473 . S
O112 C94 1.257 . S
H113 C99 0.929 . S
H114 C101 0.931 . S
H115 C103 0.929 . S
O116 Tb117 2.292 . S
O116 C119 1.255 . S
Tb117 O116 2.292 . S
Tb117 O133 2.326 . S
Tb117 O135 2.500 . S
Tb117 O136 2.473 . S
Tb117 O139 2.324 . S
Eu118 O122 2.292 . S
Eu118 C123 2.852 . S
Eu118 O134 2.324 . S
Eu118 O138 2.326 . S
Eu118 O140 2.500 1_565 S
Eu118 O141 2.473 . S
C119 O116 1.255 . S
C119 O120 1.247 . S
O120 C119 1.247 . S
C121 O133 1.242 . S
C121 O134 1.258 . S
O122 Eu118 2.292 . S
O122 C124 1.255 . S
C123 Eu118 2.852 . S
C123 C127 1.503 1_565 S
C123 O140 1.273 1_565 S
C123 O141 1.257 . S
C124 O122 1.255 . S
C124 O125 1.247 . S
O125 C124 1.247 . S
C126 O138 1.242 . S
C126 O139 1.258 . S
C127 C123 1.503 1_545 S
C127 C128 1.379 1_545 S
C127 C132 1.392 . S
C128 C127 1.379 1_565 S
C128 C129 1.404 1_565 S
C128 H142 0.929 . S
C129 C128 1.404 1_545 S
C129 C130 1.389 . S
C130 C129 1.389 . S
C130 C131 1.399 . S
C130 H143 0.931 . S
C131 C130 1.399 . S
C131 C132 1.390 . S
C132 C127 1.392 . S
C132 C131 1.390 . S
C132 H144 0.929 . S
O133 Tb117 2.326 . S
O133 C121 1.242 . S
O134 Eu118 2.324 . S
O134 C121 1.258 . S
O135 Tb117 2.500 . S
O135 C137 1.273 . S
O136 Tb117 2.473 . S
O136 C137 1.257 . S
C137 O135 1.273 . S
C137 O136 1.257 . S
O138 Eu118 2.326 . S
O138 C126 1.242 . S
O139 Tb117 2.324 . S
O139 C126 1.258 . S
O140 Eu118 2.500 1_545 S
O140 C123 1.273 1_545 S
O141 Eu118 2.473 . S
O141 C123 1.257 . S
H142 C128 0.929 . S
H143 C130 0.931 . S
H144 C132 0.929 . S
O145 Tb146 2.292 . S
O145 C148 1.255 . S
Tb146 O145 2.292 . S
Tb146 O162 2.326 . S
Tb146 O164 2.500 . S
Tb146 O165 2.473 . S
Tb146 O168 2.324 . S
Eu147 O151 2.292 . S
Eu147 C152 2.852 . S
Eu147 O163 2.324 . S
Eu147 O167 2.326 . S
Eu147 O169 2.500 . S
Eu147 O170 2.473 . S
C148 O145 1.255 . S
C148 O149 1.247 . S
O149 C148 1.247 . S
C150 O162 1.242 . S
C150 O163 1.258 . S
O151 Eu147 2.292 . S
O151 C153 1.255 . S
C152 Eu147 2.852 . S
C152 C156 1.503 . S
C152 O169 1.273 . S
C152 O170 1.257 . S
C153 O151 1.255 . S
C153 O154 1.247 . S
O154 C153 1.247 . S
C155 O167 1.242 . S
C155 O168 1.258 . S
C156 C152 1.503 . S
C156 C157 1.379 . S
C156 C161 1.392 . S
C157 C156 1.379 . S
C157 C158 1.404 . S
C157 H171 0.929 . S
C158 C157 1.404 . S
C158 C159 1.389 . S
C159 C158 1.389 . S
C159 C160 1.399 . S
C159 H172 0.931 . S
C160 C159 1.399 . S
C160 C161 1.390 . S
C161 C156 1.392 . S
C161 C160 1.390 . S
C161 H173 0.929 . S
O162 Tb146 2.326 . S
O162 C150 1.242 . S
O163 Eu147 2.324 . S
O163 C150 1.258 . S
O164 Tb146 2.500 . S
O164 C166 1.273 . S
O165 Tb146 2.473 . S
O165 C166 1.257 . S
C166 O164 1.273 . S
C166 O165 1.257 . S
O167 Eu147 2.326 . S
O167 C155 1.242 . S
O168 Tb146 2.324 . S
O168 C155 1.258 . S
O169 Eu147 2.500 . S
O169 C152 1.273 . S
O170 Eu147 2.473 . S
O170 C152 1.257 . S
H171 C157 0.929 . S
H172 C159 0.931 . S
H173 C161 0.929 . S
O174 Tb175 2.292 . S
O174 C177 1.255 . S
Tb175 O174 2.292 . S
Tb175 O191 2.326 . S
Tb175 O193 2.500 . S
Tb175 O194 2.473 . S
Tb175 O197 2.324 . S
Eu176 O180 2.292 . S
Eu176 C181 2.852 . S
Eu176 O192 2.324 . S
Eu176 O196 2.326 . S
Eu176 O198 2.500 . S
Eu176 O199 2.473 . S
C177 O174 1.255 . S
C177 O178 1.247 . S
O178 C177 1.247 . S
C179 O191 1.242 . S
C179 O192 1.258 . S
O180 Eu176 2.292 . S
O180 C182 1.255 . S
C181 Eu176 2.852 . S
C181 C185 1.503 . S
C181 O198 1.273 . S
C181 O199 1.257 . S
C182 O180 1.255 . S
C182 O183 1.247 . S
O183 C182 1.247 . S
C184 O196 1.242 . S
C184 O197 1.258 . S
C185 C181 1.503 . S
C185 C186 1.379 . S
C185 C190 1.392 . S
C186 C185 1.379 . S
C186 C187 1.404 . S
C186 H200 0.929 . S
C187 C186 1.404 . S
C187 C188 1.389 . S
C188 C187 1.389 . S
C188 C189 1.399 . S
C188 H201 0.931 . S
C189 C188 1.399 . S
C189 C190 1.390 . S
C190 C185 1.392 . S
C190 C189 1.390 . S
C190 H202 0.929 . S
O191 Tb175 2.326 . S
O191 C179 1.242 . S
O192 Eu176 2.324 . S
O192 C179 1.258 . S
O193 Tb175 2.500 . S
O193 C195 1.273 . S
O194 Tb175 2.473 . S
O194 C195 1.257 . S
C195 O193 1.273 . S
C195 O194 1.257 . S
O196 Eu176 2.326 . S
O196 C184 1.242 . S
O197 Tb175 2.324 . S
O197 C184 1.258 . S
O198 Eu176 2.500 . S
O198 C181 1.273 . S
O199 Eu176 2.473 . S
O199 C181 1.257 . S
H200 C186 0.929 . S
H201 C188 0.931 . S
H202 C190 0.929 . S
O203 Tb204 2.292 . S
O203 C206 1.255 . S
Tb204 O203 2.292 . S
Tb204 O220 2.326 . S
Tb204 O222 2.500 . S
Tb204 O223 2.473 . S
Tb204 O226 2.324 . S
Eu205 O209 2.292 . S
Eu205 C210 2.852 . S
Eu205 O221 2.324 . S
Eu205 O225 2.326 . S
Eu205 O227 2.500 1_655 S
Eu205 O228 2.473 . S
C206 O203 1.255 . S
C206 O207 1.247 . S
O207 C206 1.247 . S
C208 O220 1.242 . S
C208 O221 1.258 . S
O209 Eu205 2.292 . S
O209 C211 1.255 . S
C210 Eu205 2.852 . S
C210 C214 1.503 1_655 S
C210 O227 1.273 1_655 S
C210 O228 1.257 . S
C211 O209 1.255 . S
C211 O212 1.247 . S
O212 C211 1.247 . S
C213 O225 1.242 . S
C213 O226 1.258 . S
C214 C210 1.503 1_455 S
C214 C215 1.379 1_455 S
C214 C219 1.392 . S
C215 C214 1.379 1_655 S
C215 C216 1.404 1_655 S
C215 H229 0.929 . S
C216 C215 1.404 1_455 S
C216 C217 1.389 . S
C217 C216 1.389 . S
C217 C218 1.399 . S
C217 H230 0.931 . S
C218 C217 1.399 . S
C218 C219 1.390 . S
C219 C214 1.392 . S
C219 C218 1.390 . S
C219 H231 0.929 . S
O220 Tb204 2.326 . S
O220 C208 1.242 . S
O221 Eu205 2.324 . S
O221 C208 1.258 . S
O222 Tb204 2.500 . S
O222 C224 1.273 . S
O223 Tb204 2.473 . S
O223 C224 1.257 . S
C224 O222 1.273 . S
C224 O223 1.257 . S
O225 Eu205 2.326 . S
O225 C213 1.242 . S
O226 Tb204 2.324 . S
O226 C213 1.258 . S
O227 Eu205 2.500 1_455 S
O227 C210 1.273 1_455 S
O228 Eu205 2.473 . S
O228 C210 1.257 . S
H229 C215 0.929 . S
H230 C217 0.931 . S
H231 C219 0.929 . S
O232 Tb233 2.292 . S
O232 C235 1.255 . S
Tb233 O232 2.292 . S
Tb233 O249 2.326 . S
Tb233 O251 2.500 . S
Tb233 O252 2.473 . S
Tb233 O255 2.324 . S
Eu234 O238 2.292 . S
Eu234 C239 2.852 . S
Eu234 O250 2.324 . S
Eu234 O254 2.326 . S
Eu234 O256 2.500 1_565 S
Eu234 O257 2.473 . S
C235 O232 1.255 . S
C235 O236 1.247 . S
O236 C235 1.247 . S
C237 O249 1.242 . S
C237 O250 1.258 . S
O238 Eu234 2.292 . S
O238 C240 1.255 . S
C239 Eu234 2.852 . S
C239 C243 1.503 1_565 S
C239 O256 1.273 1_565 S
C239 O257 1.257 . S
C240 O238 1.255 . S
C240 O241 1.247 . S
O241 C240 1.247 . S
C242 O254 1.242 . S
C242 O255 1.258 . S
C243 C239 1.503 1_545 S
C243 C244 1.379 1_545 S
C243 C248 1.392 . S
C244 C243 1.379 1_565 S
C244 C245 1.404 1_565 S
C244 H258 0.929 . S
C245 C244 1.404 1_545 S
C245 C246 1.389 . S
C246 C245 1.389 . S
C246 C247 1.399 . S
C246 H259 0.931 . S
C247 C246 1.399 . S
C247 C248 1.390 . S
C248 C243 1.392 . S
C248 C247 1.390 . S
C248 H260 0.929 . S
O249 Tb233 2.326 . S
O249 C237 1.242 . S
O250 Eu234 2.324 . S
O250 C237 1.258 . S
O251 Tb233 2.500 . S
O251 C253 1.273 . S
O252 Tb233 2.473 . S
O252 C253 1.257 . S
C253 O251 1.273 . S
C253 O252 1.257 . S
O254 Eu234 2.326 . S
O254 C242 1.242 . S
O255 Tb233 2.324 . S
O255 C242 1.258 . S
O256 Eu234 2.500 1_545 S
O256 C239 1.273 1_545 S
O257 Eu234 2.473 . S
O257 C239 1.257 . S
H258 C244 0.929 . S
H259 C246 0.931 . S
H260 C248 0.929 . S
O261 Tb262 2.292 . S
O261 C264 1.255 . S
Tb262 O261 2.292 . S
Tb262 O278 2.326 . S
Tb262 O280 2.500 . S
Tb262 O281 2.473 . S
Tb262 O284 2.324 . S
Eu263 O267 2.292 . S
Eu263 C268 2.852 . S
Eu263 O279 2.324 . S
Eu263 O283 2.326 . S
Eu263 O285 2.500 . S
Eu263 O286 2.473 . S
C264 O261 1.255 . S
C264 O265 1.247 . S
O265 C264 1.247 . S
C266 O278 1.242 . S
C266 O279 1.258 . S
O267 Eu263 2.292 . S
O267 C269 1.255 . S
C268 Eu263 2.852 . S
C268 C272 1.503 . S
C268 O285 1.273 . S
C268 O286 1.257 . S
C269 O267 1.255 . S
C269 O270 1.247 . S
O270 C269 1.247 . S
C271 O283 1.242 . S
C271 O284 1.258 . S
C272 C268 1.503 . S
C272 C273 1.379 . S
C272 C277 1.392 . S
C273 C272 1.379 . S
C273 C274 1.404 . S
C273 H287 0.929 . S
C274 C273 1.404 . S
C274 C275 1.389 . S
C275 C274 1.389 . S
C275 C276 1.399 . S
C275 H288 0.931 . S
C276 C275 1.399 . S
C276 C277 1.390 . S
C277 C272 1.392 . S
C277 C276 1.390 . S
C277 H289 0.929 . S
O278 Tb262 2.326 . S
O278 C266 1.242 . S
O279 Eu263 2.324 . S
O279 C266 1.258 . S
O280 Tb262 2.500 . S
O280 C282 1.273 . S
O281 Tb262 2.473 . S
O281 C282 1.257 . S
C282 O280 1.273 . S
C282 O281 1.257 . S
O283 Eu263 2.326 . S
O283 C271 1.242 . S
O284 Tb262 2.324 . S
O284 C271 1.258 . S
O285 Eu263 2.500 . S
O285 C268 1.273 . S
O286 Eu263 2.473 . S
O286 C268 1.257 . S
H287 C273 0.929 . S
H288 C275 0.931 . S
H289 C277 0.929 . S
O290 Tb291 2.292 . S
O290 C293 1.255 . S
Tb291 O290 2.292 . S
Tb291 O307 2.326 . S
Tb291 O309 2.500 . S
Tb291 O310 2.473 . S
Tb291 O313 2.324 . S
Eu292 O296 2.292 . S
Eu292 C297 2.852 . S
Eu292 O308 2.324 . S
Eu292 O312 2.326 . S
Eu292 O314 2.500 . S
Eu292 O315 2.473 . S
C293 O290 1.255 . S
C293 O294 1.247 . S
O294 C293 1.247 . S
C295 O307 1.242 . S
C295 O308 1.258 . S
O296 Eu292 2.292 . S
O296 C298 1.255 . S
C297 Eu292 2.852 . S
C297 C301 1.503 . S
C297 O314 1.273 . S
C297 O315 1.257 . S
C298 O296 1.255 . S
C298 O299 1.247 . S
O299 C298 1.247 . S
C300 O312 1.242 . S
C300 O313 1.258 . S
C301 C297 1.503 . S
C301 C302 1.379 . S
C301 C306 1.392 . S
C302 C301 1.379 . S
C302 C303 1.404 . S
C302 H316 0.929 . S
C303 C302 1.404 . S
C303 C304 1.389 . S
C304 C303 1.389 . S
C304 C305 1.399 . S
C304 H317 0.931 . S
C305 C304 1.399 . S
C305 C306 1.390 . S
C306 C301 1.392 . S
C306 C305 1.390 . S
C306 H318 0.929 . S
O307 Tb291 2.326 . S
O307 C295 1.242 . S
O308 Eu292 2.324 . S
O308 C295 1.258 . S
O309 Tb291 2.500 . S
O309 C311 1.273 . S
O310 Tb291 2.473 . S
O310 C311 1.257 . S
C311 O309 1.273 . S
C311 O310 1.257 . S
O312 Eu292 2.326 . S
O312 C300 1.242 . S
O313 Tb291 2.324 . S
O313 C300 1.258 . S
O314 Eu292 2.500 . S
O314 C297 1.273 . S
O315 Eu292 2.473 . S
O315 C297 1.257 . S
H316 C302 0.929 . S
H317 C304 0.931 . S
H318 C306 0.929 . S
O319 Tb320 2.292 . S
O319 C322 1.255 . S
Tb320 O319 2.292 . S
Tb320 O336 2.326 . S
Tb320 O338 2.500 . S
Tb320 O339 2.473 . S
Tb320 O342 2.324 . S
Eu321 O325 2.292 . S
Eu321 C326 2.852 . S
Eu321 O337 2.324 . S
Eu321 O341 2.326 . S
Eu321 O343 2.500 1_655 S
Eu321 O344 2.473 . S
C322 O319 1.255 . S
C322 O323 1.247 . S
O323 C322 1.247 . S
C324 O336 1.242 . S
C324 O337 1.258 . S
O325 Eu321 2.292 . S
O325 C327 1.255 . S
C326 Eu321 2.852 . S
C326 C330 1.503 1_655 S
C326 O343 1.273 1_655 S
C326 O344 1.257 . S
C327 O325 1.255 . S
C327 O328 1.247 . S
O328 C327 1.247 . S
C329 O341 1.242 . S
C329 O342 1.258 . S
C330 C326 1.503 1_455 S
C330 C331 1.379 1_455 S
C330 C335 1.392 . S
C331 C330 1.379 1_655 S
C331 C332 1.404 1_655 S
C331 H345 0.929 . S
C332 C331 1.404 1_455 S
C332 C333 1.389 . S
C333 C332 1.389 . S
C333 C334 1.399 . S
C333 H346 0.931 . S
C334 C333 1.399 . S
C334 C335 1.390 . S
C335 C330 1.392 . S
C335 C334 1.390 . S
C335 H347 0.929 . S
O336 Tb320 2.326 . S
O336 C324 1.242 . S
O337 Eu321 2.324 . S
O337 C324 1.258 . S
O338 Tb320 2.500 . S
O338 C340 1.273 . S
O339 Tb320 2.473 . S
O339 C340 1.257 . S
C340 O338 1.273 . S
C340 O339 1.257 . S
O341 Eu321 2.326 . S
O341 C329 1.242 . S
O342 Tb320 2.324 . S
O342 C329 1.258 . S
O343 Eu321 2.500 1_455 S
O343 C326 1.273 1_455 S
O344 Eu321 2.473 . S
O344 C326 1.257 . S
H345 C331 0.929 . S
H346 C333 0.931 . S
H347 C335 0.929 . S
O348 Tb349 2.292 . S
O348 C351 1.255 . S
Tb349 O348 2.292 . S
Tb349 O365 2.326 . S
Tb349 O367 2.500 . S
Tb349 O368 2.473 . S
Tb349 O371 2.324 . S
Eu350 O354 2.292 . S
Eu350 C355 2.852 . S
Eu350 O366 2.324 . S
Eu350 O370 2.326 . S
Eu350 O372 2.500 1_545 S
Eu350 O373 2.473 . S
C351 O348 1.255 . S
C351 O352 1.247 . S
O352 C351 1.247 . S
C353 O365 1.242 . S
C353 O366 1.258 . S
O354 Eu350 2.292 . S
O354 C356 1.255 . S
C355 Eu350 2.852 . S
C355 C359 1.503 1_545 S
C355 O372 1.273 1_545 S
C355 O373 1.257 . S
C356 O354 1.255 . S
C356 O357 1.247 . S
O357 C356 1.247 . S
C358 O370 1.242 . S
C358 O371 1.258 . S
C359 C355 1.503 1_565 S
C359 C360 1.379 1_565 S
C359 C364 1.392 . S
C360 C359 1.379 1_545 S
C360 C361 1.404 1_545 S
C360 H374 0.929 . S
C361 C360 1.404 1_565 S
C361 C362 1.389 . S
C362 C361 1.389 . S
C362 C363 1.399 . S
C362 H375 0.931 . S
C363 C362 1.399 . S
C363 C364 1.390 . S
C364 C359 1.392 . S
C364 C363 1.390 . S
C364 H376 0.929 . S
O365 Tb349 2.326 . S
O365 C353 1.242 . S
O366 Eu350 2.324 . S
O366 C353 1.258 . S
O367 Tb349 2.500 . S
O367 C369 1.273 . S
O368 Tb349 2.473 . S
O368 C369 1.257 . S
C369 O367 1.273 . S
C369 O368 1.257 . S
O370 Eu350 2.326 . S
O370 C358 1.242 . S
O371 Tb349 2.324 . S
O371 C358 1.258 . S
O372 Eu350 2.500 1_565 S
O372 C355 1.273 1_565 S
O373 Eu350 2.473 . S
O373 C355 1.257 . S
H374 C360 0.929 . S
H375 C362 0.931 . S
H376 C364 0.929 . S
O377 Tb378 2.292 . S
O377 C380 1.255 . S
Tb378 O377 2.292 . S
Tb378 O394 2.326 . S
Tb378 O396 2.500 . S
Tb378 O397 2.473 . S
Tb378 O400 2.324 . S
Eu379 O383 2.292 . S
Eu379 C384 2.852 . S
Eu379 O395 2.324 . S
Eu379 O399 2.326 . S
Eu379 O401 2.500 . S
Eu379 O402 2.473 . S
C380 O377 1.255 . S
C380 O381 1.247 . S
O381 C380 1.247 . S
C382 O394 1.242 . S
C382 O395 1.258 . S
O383 Eu379 2.292 . S
O383 C385 1.255 . S
C384 Eu379 2.852 . S
C384 C388 1.503 . S
C384 O401 1.273 . S
C384 O402 1.257 . S
C385 O383 1.255 . S
C385 O386 1.247 . S
O386 C385 1.247 . S
C387 O399 1.242 . S
C387 O400 1.258 . S
C388 C384 1.503 . S
C388 C389 1.379 . S
C388 C393 1.392 . S
C389 C388 1.379 . S
C389 C390 1.404 . S
C389 H403 0.929 . S
C390 C389 1.404 . S
C390 C391 1.389 . S
C391 C390 1.389 . S
C391 C392 1.399 . S
C391 H404 0.931 . S
C392 C391 1.399 . S
C392 C393 1.390 . S
C393 C388 1.392 . S
C393 C392 1.390 . S
C393 H405 0.929 . S
O394 Tb378 2.326 . S
O394 C382 1.242 . S
O395 Eu379 2.324 . S
O395 C382 1.258 . S
O396 Tb378 2.500 . S
O396 C398 1.273 . S
O397 Tb378 2.473 . S
O397 C398 1.257 . S
C398 O396 1.273 . S
C398 O397 1.257 . S
O399 Eu379 2.326 . S
O399 C387 1.242 . S
O400 Tb378 2.324 . S
O400 C387 1.258 . S
O401 Eu379 2.500 . S
O401 C384 1.273 . S
O402 Eu379 2.473 . S
O402 C384 1.257 . S
H403 C389 0.929 . S
H404 C391 0.931 . S
H405 C393 0.929 . S
O406 Tb407 2.292 . S
O406 C409 1.255 . S
Tb407 O406 2.292 . S
Tb407 O423 2.326 . S
Tb407 O425 2.500 . S
Tb407 O426 2.473 . S
Tb407 O429 2.324 . S
Eu408 O412 2.292 . S
Eu408 C413 2.852 . S
Eu408 O424 2.324 . S
Eu408 O428 2.326 . S
Eu408 O430 2.500 . S
Eu408 O431 2.473 . S
C409 O406 1.255 . S
C409 O410 1.247 . S
O410 C409 1.247 . S
C411 O423 1.242 . S
C411 O424 1.258 . S
O412 Eu408 2.292 . S
O412 C414 1.255 . S
C413 Eu408 2.852 . S
C413 C417 1.503 . S
C413 O430 1.273 . S
C413 O431 1.257 . S
C414 O412 1.255 . S
C414 O415 1.247 . S
O415 C414 1.247 . S
C416 O428 1.242 . S
C416 O429 1.258 . S
C417 C413 1.503 . S
C417 C418 1.379 . S
C417 C422 1.392 . S
C418 C417 1.379 . S
C418 C419 1.404 . S
C418 H432 0.929 . S
C419 C418 1.404 . S
C419 C420 1.389 . S
C420 C419 1.389 . S
C420 C421 1.399 . S
C420 H433 0.931 . S
C421 C420 1.399 . S
C421 C422 1.390 . S
C422 C417 1.392 . S
C422 C421 1.390 . S
C422 H434 0.929 . S
O423 Tb407 2.326 . S
O423 C411 1.242 . S
O424 Eu408 2.324 . S
O424 C411 1.258 . S
O425 Tb407 2.500 . S
O425 C427 1.273 . S
O426 Tb407 2.473 . S
O426 C427 1.257 . S
C427 O425 1.273 . S
C427 O426 1.257 . S
O428 Eu408 2.326 . S
O428 C416 1.242 . S
O429 Tb407 2.324 . S
O429 C416 1.258 . S
O430 Eu408 2.500 . S
O430 C413 1.273 . S
O431 Eu408 2.473 . S
O431 C413 1.257 . S
H432 C418 0.929 . S
H433 C420 0.931 . S
H434 C422 0.929 . S
O435 Tb436 2.292 . S
O435 C438 1.255 . S
Tb436 O435 2.292 . S
Tb436 O452 2.326 . S
Tb436 O454 2.500 . S
Tb436 O455 2.473 . S
Tb436 O458 2.324 . S
Eu437 O441 2.292 . S
Eu437 C442 2.852 . S
Eu437 O453 2.324 . S
Eu437 O457 2.326 . S
Eu437 O459 2.500 1_455 S
Eu437 O460 2.473 . S
C438 O435 1.255 . S
C438 O439 1.247 . S
O439 C438 1.247 . S
C440 O452 1.242 . S
C440 O453 1.258 . S
O441 Eu437 2.292 . S
O441 C443 1.255 . S
C442 Eu437 2.852 . S
C442 C446 1.503 1_455 S
C442 O459 1.273 1_455 S
C442 O460 1.257 . S
C443 O441 1.255 . S
C443 O444 1.247 . S
O444 C443 1.247 . S
C445 O457 1.242 . S
C445 O458 1.258 . S
C446 C442 1.503 1_655 S
C446 C447 1.379 1_655 S
C446 C451 1.392 . S
C447 C446 1.379 1_455 S
C447 C448 1.404 1_455 S
C447 H461 0.929 . S
C448 C447 1.404 1_655 S
C448 C449 1.389 . S
C449 C448 1.389 . S
C449 C450 1.399 . S
C449 H462 0.931 . S
C450 C449 1.399 . S
C450 C451 1.390 . S
C451 C446 1.392 . S
C451 C450 1.390 . S
C451 H463 0.929 . S
O452 Tb436 2.326 . S
O452 C440 1.242 . S
O453 Eu437 2.324 . S
O453 C440 1.258 . S
O454 Tb436 2.500 . S
O454 C456 1.273 . S
O455 Tb436 2.473 . S
O455 C456 1.257 . S
C456 O454 1.273 . S
C456 O455 1.257 . S
O457 Eu437 2.326 . S
O457 C445 1.242 . S
O458 Tb436 2.324 . S
O458 C445 1.258 . S
O459 Eu437 2.500 1_655 S
O459 C442 1.273 1_655 S
O460 Eu437 2.473 . S
O460 C442 1.257 . S
H461 C447 0.929 . S
H462 C449 0.931 . S
H463 C451 0.929 . S
C464 C465 1.364 1_545 S
C464 H468 0.950 . S
C464 C473 1.390 1_556 S
C465 C464 1.364 1_565 S
C465 C467 1.410 . S
H466 C473 0.950 . S
C467 C465 1.410 . S
C467 C469 1.390 1_556 S
C467 H471 0.950 . S
H468 C464 0.950 . S
C469 C467 1.390 1_554 S
C469 C470 1.364 1_565 S
C469 H472 0.950 . S
C470 C469 1.364 1_545 S
C470 C473 1.410 . S
H471 C467 0.950 . S
H472 C469 0.950 . S
C473 C464 1.390 1_554 S
C473 H466 0.950 . S
C473 C470 1.410 . S
C474 C475 1.387 . S
C474 H478 0.950 . S
C474 C483 1.390 1_554 S
C475 C474 1.387 . S
C475 C477 1.387 . S
H476 C483 0.950 . S
C477 C475 1.387 . S
C477 C479 1.390 1_554 S
C477 H481 0.950 . S
H478 C474 0.950 . S
C479 C477 1.390 1_556 S
C479 C480 1.387 . S
C479 H482 0.950 . S
C480 C479 1.387 . S
C480 C483 1.387 . S
H481 C477 0.950 . S
H482 C479 0.950 . S
C483 C474 1.390 1_556 S
C483 H476 0.950 . S
C483 C480 1.387 . S
C484 C485 1.387 . S
C484 H488 0.950 . S
C484 C493 1.390 1_456 S
C485 C484 1.387 . S
C485 C487 1.387 . S
H486 C493 0.950 . S
C487 C485 1.387 . S
C487 C489 1.390 1_456 S
C487 H491 0.950 . S
H488 C484 0.950 . S
C489 C487 1.390 1_654 S
C489 C490 1.387 . S
C489 H492 0.950 . S
C490 C489 1.387 . S
C490 C493 1.387 . S
H491 C487 0.950 . S
H492 C489 0.950 . S
C493 C484 1.390 1_654 S
C493 H486 0.950 . S
C493 C490 1.387 . S
C494 C495 1.364 1_655 S
C494 H498 0.950 . S
C494 C503 1.390 1_564 S
C495 C494 1.364 1_455 S
C495 C497 1.410 . S
H496 C503 0.950 . S
C497 C495 1.410 . S
C497 C499 1.390 1_564 S
C497 H501 0.950 . S
H498 C494 0.950 . S
C499 C497 1.390 1_546 S
C499 C500 1.364 1_455 S
C499 H502 0.950 . S
C500 C499 1.364 1_655 S
C500 C503 1.410 . S
H501 C497 0.950 . S
H502 C499 0.950 . S
C503 C494 1.390 1_546 S
C503 H496 0.950 . S
C503 C500 1.410 . S
C504 C505 1.364 1_545 S
C504 H508 0.950 . S
C504 C513 1.390 1_455 S
C505 C504 1.364 1_565 S
C505 C507 1.410 . S
H506 C513 0.950 . S
C507 C505 1.410 . S
C507 C509 1.390 1_455 S
C507 H511 0.950 . S
H508 C504 0.950 . S
C509 C507 1.390 1_655 S
C509 C510 1.364 1_565 S
C509 H512 0.950 . S
C510 C509 1.364 1_545 S
C510 C513 1.410 . S
H511 C507 0.950 . S
H512 C509 0.950 . S
C513 C504 1.390 1_655 S
C513 H506 0.950 . S
C513 C510 1.410 . S
C514 C515 1.387 . S
C514 H518 0.950 . S
C514 C523 1.390 1_545 S
C515 C514 1.387 . S
C515 C517 1.387 . S
H516 C523 0.950 . S
C517 C515 1.387 . S
C517 C519 1.390 1_545 S
C517 H521 0.950 . S
H518 C514 0.950 . S
C519 C517 1.390 1_565 S
C519 C520 1.387 . S
C519 H522 0.950 . S
C520 C519 1.387 . S
C520 C523 1.387 . S
H521 C517 0.950 . S
H522 C519 0.950 . S
C523 C514 1.390 1_565 S
C523 H516 0.950 . S
C523 C520 1.387 . S
C524 C525 1.387 . S
C524 H528 0.950 . S
C524 C533 1.390 . S
C525 C524 1.387 . S
C525 C527 1.387 . S
H526 C533 0.950 . S
C527 C525 1.387 . S
C527 C529 1.390 . S
C527 H531 0.950 . S
H528 C524 0.950 . S
C529 C527 1.390 . S
C529 C530 1.387 . S
C529 H532 0.950 . S
C530 C529 1.387 . S
C530 C533 1.387 . S
H531 C527 0.950 . S
H532 C529 0.950 . S
C533 C524 1.390 . S
C533 H526 0.950 . S
C533 C530 1.387 . S
C534 C535 1.411 . S
C534 H538 0.950 . S
C534 C543 1.390 . S
C535 C534 1.411 . S
C535 C537 1.364 1_455 S
H536 C543 0.950 . S
C537 C535 1.364 1_655 S
C537 C539 1.390 . S
C537 H541 0.950 . S
H538 C534 0.950 . S
C539 C537 1.390 . S
C539 C540 1.411 . S
C539 H542 0.950 . S
C540 C539 1.411 . S
C540 C543 1.364 1_655 S
H541 C537 0.950 . S
H542 C539 0.950 . S
C543 C534 1.390 . S
C543 H536 0.950 . S
C543 C540 1.364 1_455 S
C544 C545 1.387 . S
C544 H548 0.950 . S
C544 C553 1.390 . S
C545 C544 1.387 . S
C545 C547 1.387 . S
H546 C553 0.950 . S
C547 C545 1.387 . S
C547 C549 1.390 . S
C547 H551 0.950 . S
H548 C544 0.950 . S
C549 C547 1.390 . S
C549 C550 1.387 . S
C549 H552 0.950 . S
C550 C549 1.387 . S
C550 C553 1.387 . S
H551 C547 0.950 . S
H552 C549 0.950 . S
C553 C544 1.390 . S
C553 H546 0.950 . S
C553 C550 1.387 . S
C554 C555 1.387 . S
C554 H558 0.950 . S
C554 C563 1.390 . S
C555 C554 1.387 . S
C555 C557 1.387 . S
H556 C563 0.950 . S
C557 C555 1.387 . S
C557 C559 1.390 . S
C557 H561 0.950 . S
H558 C554 0.950 . S
C559 C557 1.390 . S
C559 C560 1.387 . S
C559 H562 0.950 . S
C560 C559 1.387 . S
C560 C563 1.387 . S
H561 C557 0.950 . S
H562 C559 0.950 . S
C563 C554 1.390 . S
C563 H556 0.950 . S
C563 C560 1.387 . S
C564 C565 1.387 . S
C564 H568 0.950 . S
C564 C573 1.390 . S
C565 C564 1.387 . S
C565 C567 1.387 . S
H566 C573 0.950 . S
C567 C565 1.387 . S
C567 C569 1.390 . S
C567 H571 0.950 1_655 S
H568 C564 0.950 . S
C569 C567 1.390 . S
C569 C570 1.387 . S
C569 H572 0.950 . S
C570 C569 1.387 . S
C570 C573 1.387 . S
H571 C567 0.950 1_455 S
H572 C569 0.950 . S
C573 C564 1.390 . S
C573 H566 0.950 . S
C573 C570 1.387 . S
C574 C575 1.387 . S
C574 H578 0.950 . S
C574 C583 1.390 . S
C575 C574 1.387 . S
C575 C577 1.387 . S
H576 C583 0.950 . S
C577 C575 1.387 . S
C577 C579 1.390 . S
C577 H581 0.950 1_565 S
H578 C574 0.950 . S
C579 C577 1.390 . S
C579 C580 1.387 . S
C579 H582 0.950 . S
C580 C579 1.387 . S
C580 C583 1.387 . S
H581 C577 0.950 1_545 S
H582 C579 0.950 . S
C583 C574 1.390 . S
C583 H576 0.950 . S
C583 C580 1.387 . S
C584 C585 1.387 . S
C584 H588 0.950 . S
C584 C593 1.390 . S
C585 C584 1.387 . S
C585 C587 1.387 . S
H586 C593 0.950 . S
C587 C585 1.387 . S
C587 C589 1.390 . S
C587 H591 0.950 . S
H588 C584 0.950 . S
C589 C587 1.390 . S
C589 C590 1.387 . S
C589 H592 0.950 . S
C590 C589 1.387 . S
C590 C593 1.387 . S
H591 C587 0.950 . S
H592 C589 0.950 . S
C593 C584 1.390 . S
C593 H586 0.950 . S
C593 C590 1.387 . S
C594 C595 1.387 . S
C594 H598 0.950 . S
C594 C603 1.390 . S
C595 C594 1.387 . S
C595 C597 1.387 . S
H596 C603 0.950 . S
C597 C595 1.387 . S
C597 C599 1.390 . S
C597 H601 0.950 1_545 S
H598 C594 0.950 . S
C599 C597 1.390 . S
C599 C600 1.387 . S
C599 H602 0.950 . S
C600 C599 1.387 . S
C600 C603 1.387 . S
H601 C597 0.950 1_565 S
H602 C599 0.950 . S
C603 C594 1.390 . S
C603 H596 0.950 . S
C603 C600 1.387 . S
C604 C605 1.387 . S
C604 H608 0.950 . S
C604 C613 1.390 . S
C605 C604 1.387 . S
C605 C607 1.387 . S
H606 C613 0.950 . S
C607 C605 1.387 . S
C607 C609 1.390 . S
C607 H611 0.950 . S
H608 C604 0.950 . S
C609 C607 1.390 . S
C609 C610 1.387 . S
C609 H612 0.950 . S
C610 C609 1.387 . S
C610 C613 1.387 . S
H611 C607 0.950 . S
H612 C609 0.950 . S
C613 C604 1.390 . S
C613 H606 0.950 . S
C613 C610 1.387 . S
C614 C615 1.387 . S
C614 H618 0.950 . S
C614 C623 1.390 . S
C615 C614 1.387 . S
C615 C617 1.387 . S
H616 C623 0.950 . S
C617 C615 1.387 . S
C617 C619 1.390 . S
C617 H621 0.950 . S
H618 C614 0.950 . S
C619 C617 1.390 . S
C619 C620 1.387 . S
C619 H622 0.950 . S
C620 C619 1.387 . S
C620 C623 1.387 . S
H621 C617 0.950 . S
H622 C619 0.950 . S
C623 C614 1.390 . S
C623 H616 0.950 . S
C623 C620 1.387 . S
C624 C625 1.387 . S
C624 H628 0.950 . S
C624 C633 1.390 . S
C625 C624 1.387 . S
C625 C627 1.387 . S
H626 C633 0.950 . S
C627 C625 1.387 . S
C627 C629 1.390 . S
C627 H631 0.950 . S
H628 C624 0.950 . S
C629 C627 1.390 . S
C629 C630 1.387 . S
C629 H632 0.950 . S
C630 C629 1.387 . S
C630 C633 1.387 . S
H631 C627 0.950 . S
H632 C629 0.950 . S
C633 C624 1.390 . S
C633 H626 0.950 . S
C633 C630 1.387 . S
C634 C635 1.387 . S
C634 H638 0.950 . S
C634 C643 1.390 . S
C635 C634 1.387 . S
C635 C637 1.387 . S
H636 C643 0.950 . S
C637 C635 1.387 . S
C637 C639 1.390 . S
C637 H641 0.950 . S
H638 C634 0.950 . S
C639 C637 1.390 . S
C639 C640 1.387 . S
C639 H642 0.950 . S
C640 C639 1.387 . S
C640 C643 1.387 . S
H641 C637 0.950 . S
H642 C639 0.950 . S
C643 C634 1.390 . S
C643 H636 0.950 . S
C643 C640 1.387 . S
C644 C645 1.387 . S
C644 H648 0.950 . S
C644 C653 1.390 . S
C645 C644 1.387 . S
C645 C647 1.387 1_455 S
H646 C653 0.950 . S
C647 C645 1.387 1_655 S
C647 C649 1.390 1_655 S
C647 H651 0.950 . S
H648 C644 0.950 . S
C649 C647 1.390 1_455 S
C649 C650 1.387 . S
C649 H652 0.950 1_455 S
C650 C649 1.387 . S
C650 C653 1.387 . S
H651 C647 0.950 . S
H652 C649 0.950 1_655 S
C653 C644 1.390 . S
C653 H646 0.950 . S
C653 C650 1.387 . S
C654 C655 1.387 . S
C654 H658 0.950 . S
C654 C663 1.390 . S
C655 C654 1.387 . S
C655 C657 1.387 1_545 S
H656 C663 0.950 . S
C657 C655 1.387 1_565 S
C657 C659 1.390 1_565 S
C657 H661 0.950 . S
H658 C654 0.950 . S
C659 C657 1.390 1_545 S
C659 C660 1.387 . S
C659 H662 0.950 1_545 S
C660 C659 1.387 . S
C660 C663 1.387 . S
H661 C657 0.950 . S
H662 C659 0.950 1_565 S
C663 C654 1.390 . S
C663 H656 0.950 . S
C663 C660 1.387 . S
C664 C665 1.387 . S
C664 H668 0.950 . S
C664 C673 1.390 . S
C665 C664 1.387 . S
C665 C667 1.387 1_655 S
H666 C673 0.950 . S
C667 C665 1.387 1_455 S
C667 C669 1.390 1_455 S
C667 H671 0.950 . S
H668 C664 0.950 . S
C669 C667 1.390 1_655 S
C669 C670 1.387 . S
C669 H672 0.950 1_655 S
C670 C669 1.387 . S
C670 C673 1.387 . S
H671 C667 0.950 . S
H672 C669 0.950 1_455 S
C673 C664 1.390 . S
C673 H666 0.950 . S
C673 C670 1.387 . S
C674 C675 1.387 . S
C674 H678 0.950 . S
C674 C683 1.390 . S
C675 C674 1.387 . S
C675 C677 1.387 . S
H676 C683 0.950 . S
C677 C675 1.387 . S
C677 C679 1.390 . S
C677 H681 0.950 1_565 S
H678 C674 0.950 . S
C679 C677 1.390 . S
C679 C680 1.387 . S
C679 H682 0.950 . S
C680 C679 1.387 . S
C680 C683 1.387 . S
H681 C677 0.950 1_545 S
H682 C679 0.950 . S
C683 C674 1.390 . S
C683 H676 0.950 . S
C683 C680 1.387 . S
C684 C685 1.387 . S
C684 H688 0.950 . S
C684 C693 1.390 . S
C685 C684 1.387 . S
C685 C687 1.387 . S
H686 C693 0.950 . S
C687 C685 1.387 . S
C687 C689 1.390 . S
C687 H691 0.950 . S
H688 C684 0.950 . S
C689 C687 1.390 . S
C689 C690 1.387 . S
C689 H692 0.950 . S
C690 C689 1.387 . S
C690 C693 1.387 . S
H691 C687 0.950 . S
H692 C689 0.950 . S
C693 C684 1.390 . S
C693 H686 0.950 . S
C693 C690 1.387 . S
C694 C695 1.387 . S
C694 H698 0.950 . S
C694 C703 1.390 . S
C695 C694 1.387 . S
C695 C697 1.387 . S
H696 C703 0.950 . S
C697 C695 1.387 . S
C697 C699 1.390 . S
C697 H701 0.950 . S
H698 C694 0.950 . S
C699 C697 1.390 . S
C699 C700 1.387 . S
C699 H702 0.950 . S
C700 C699 1.387 . S
C700 C703 1.387 . S
H701 C697 0.950 . S
H702 C699 0.950 . S
C703 C694 1.390 . S
C703 H696 0.950 . S
C703 C700 1.387 . S
C704 C705 1.387 . S
C704 H708 0.950 . S
C704 C713 1.390 1_556 S
C705 C704 1.387 . S
C705 C707 1.387 . S
H706 C713 0.950 . S
C707 C705 1.387 . S
C707 C709 1.390 1_556 S
C707 H711 0.950 . S
H708 C704 0.950 . S
C709 C707 1.390 1_554 S
C709 C710 1.387 . S
C709 H712 0.950 . S
C710 C709 1.387 . S
C710 C713 1.387 . S
H711 C707 0.950 . S
H712 C709 0.950 . S
C713 C704 1.390 1_554 S
C713 H706 0.950 . S
C713 C710 1.387 . S
C714 C715 1.387 . S
C714 H718 0.950 . S
C714 C723 1.390 1_556 S
C715 C714 1.387 . S
C715 C717 1.387 . S
H716 C723 0.950 . S
C717 C715 1.387 . S
C717 C719 1.390 1_556 S
C717 H721 0.950 . S
H718 C714 0.950 . S
C719 C717 1.390 1_554 S
C719 C720 1.387 . S
C719 H722 0.950 . S
C720 C719 1.387 . S
C720 C723 1.387 . S
H721 C717 0.950 . S
H722 C719 0.950 . S
C723 C714 1.390 1_554 S
C723 H716 0.950 . S
C723 C720 1.387 . S
C724 C725 1.387 . S
C724 H728 0.950 . S
C724 C733 1.390 1_556 S
C725 C724 1.387 . S
C725 C727 1.387 . S
H726 C733 0.950 . S
C727 C725 1.387 . S
C727 C729 1.390 1_556 S
C727 H731 0.950 . S
H728 C724 0.950 . S
C729 C727 1.390 1_554 S
C729 C730 1.387 . S
C729 H732 0.950 . S
C730 C729 1.387 . S
C730 C733 1.387 . S
H731 C727 0.950 . S
H732 C729 0.950 . S
C733 C724 1.390 1_554 S
C733 H726 0.950 . S
C733 C730 1.387 . S
C734 C735 1.387 . S
C734 H738 0.950 . S
C734 C743 1.390 1_556 S
C735 C734 1.387 . S
C735 C737 1.387 . S
H736 C743 0.950 . S
C737 C735 1.387 . S
C737 C739 1.390 1_556 S
C737 H741 0.950 . S
H738 C734 0.950 . S
C739 C737 1.390 1_554 S
C739 C740 1.387 . S
C739 H742 0.950 . S
C740 C739 1.387 . S
C740 C743 1.387 . S
H741 C737 0.950 . S
H742 C739 0.950 . S
C743 C734 1.390 1_554 S
C743 H736 0.950 . S
C743 C740 1.387 . S
C744 C745 1.387 . S
C744 H748 0.950 . S
C744 C753 1.390 . S
C745 C744 1.387 . S
C745 C747 1.387 . S
H746 C753 0.950 . S
C747 C745 1.387 . S
C747 C749 1.390 . S
C747 H751 0.950 . S
H748 C744 0.950 . S
C749 C747 1.390 . S
C749 C750 1.387 . S
C749 H752 0.950 . S
C750 C749 1.387 . S
C750 C753 1.387 . S
H751 C747 0.950 . S
H752 C749 0.950 . S
C753 C744 1.390 . S
C753 H746 0.950 . S
C753 C750 1.387 . S
C754 C755 1.387 . S
C754 H758 0.950 . S
C754 C763 1.390 . S
C755 C754 1.387 . S
C755 C757 1.387 . S
H756 C763 0.950 . S
C757 C755 1.387 . S
C757 C759 1.390 . S
C757 H761 0.950 . S
H758 C754 0.950 . S
C759 C757 1.390 . S
C759 C760 1.387 . S
C759 H762 0.950 . S
C760 C759 1.387 . S
C760 C763 1.387 . S
H761 C757 0.950 . S
H762 C759 0.950 . S
C763 C754 1.390 . S
C763 H756 0.950 . S
C763 C760 1.387 . S
C764 C765 1.387 . S
C764 H768 0.950 . S
C764 C773 1.390 . S
C765 C764 1.387 . S
C765 C767 1.387 . S
H766 C773 0.950 . S
C767 C765 1.387 . S
C767 C769 1.390 . S
C767 H771 0.950 . S
H768 C764 0.950 . S
C769 C767 1.390 . S
C769 C770 1.387 . S
C769 H772 0.950 . S
C770 C769 1.387 . S
C770 C773 1.387 . S
H771 C767 0.950 . S
H772 C769 0.950 . S
C773 C764 1.390 . S
C773 H766 0.950 . S
C773 C770 1.387 . S
C774 C775 1.387 . S
C774 H778 0.950 . S
C774 C783 1.390 . S
C775 C774 1.387 . S
C775 C777 1.387 . S
H776 C783 0.950 . S
C777 C775 1.387 . S
C777 C779 1.390 . S
C777 H781 0.950 . S
H778 C774 0.950 . S
C779 C777 1.390 . S
C779 C780 1.387 . S
C779 H782 0.950 . S
C780 C779 1.387 . S
C780 C783 1.387 . S
H781 C777 0.950 . S
H782 C779 0.950 . S
C783 C774 1.390 . S
C783 H776 0.950 . S
C783 C780 1.387 . S
C784 C785 1.387 . S
C784 H788 0.950 . S
C784 C793 1.390 1_556 S
C785 C784 1.387 . S
C785 C787 1.387 1_556 S
H786 C793 0.950 . S
C787 C785 1.387 1_554 S
C787 C789 1.390 . S
C787 H791 0.950 . S
H788 C784 0.950 . S
C789 C787 1.390 . S
C789 C790 1.387 . S
C789 H792 0.950 . S
C790 C789 1.387 . S
C790 C793 1.387 . S
H791 C787 0.950 . S
H792 C789 0.950 . S
C793 C784 1.390 1_554 S
C793 H786 0.950 . S
C793 C790 1.387 . S
C794 C795 1.387 . S
C794 H798 0.950 . S
C794 C803 1.390 1_556 S
C795 C794 1.387 . S
C795 C797 1.387 . S
H796 C803 0.950 . S
C797 C795 1.387 . S
C797 C799 1.390 1_556 S
C797 H801 0.950 . S
H798 C794 0.950 . S
C799 C797 1.390 1_554 S
C799 C800 1.387 . S
C799 H802 0.950 . S
C800 C799 1.387 . S
C800 C803 1.387 . S
H801 C797 0.950 . S
H802 C799 0.950 . S
C803 C794 1.390 1_554 S
C803 H796 0.950 . S
C803 C800 1.387 . S
C804 C805 1.387 . S
C804 H808 0.950 . S
C804 C813 1.390 1_556 S
C805 C804 1.387 . S
C805 C807 1.387 . S
H806 C813 0.950 . S
C807 C805 1.387 . S
C807 C809 1.390 1_556 S
C807 H811 0.950 . S
H808 C804 0.950 . S
C809 C807 1.390 1_554 S
C809 C810 1.387 . S
C809 H812 0.950 . S
C810 C809 1.387 . S
C810 C813 1.387 . S
H811 C807 0.950 . S
H812 C809 0.950 . S
C813 C804 1.390 1_554 S
C813 H806 0.950 . S
C813 C810 1.387 . S
C814 C815 1.387 . S
C814 H818 0.950 . S
C814 C823 1.390 1_554 S
C815 C814 1.387 . S
C815 C817 1.387 . S
H816 C823 0.950 . S
C817 C815 1.387 . S
C817 C819 1.390 1_554 S
C817 H821 0.950 . S
H818 C814 0.950 . S
C819 C817 1.390 1_556 S
C819 C820 1.387 . S
C819 H822 0.950 . S
C820 C819 1.387 . S
C820 C823 1.387 . S
H821 C817 0.950 . S
H822 C819 0.950 . S
C823 C814 1.390 1_556 S
C823 H816 0.950 . S
C823 C820 1.387 . S
C824 C825 1.387 . S
C824 H828 0.950 . S
C824 C833 1.390 . S
C825 C824 1.387 . S
C825 C827 1.387 . S
H826 C833 0.950 . S
C827 C825 1.387 . S
C827 C829 1.390 . S
C827 H831 0.950 . S
H828 C824 0.950 . S
C829 C827 1.390 . S
C829 C830 1.387 . S
C829 H832 0.950 . S
C830 C829 1.387 . S
C830 C833 1.387 . S
H831 C827 0.950 . S
H832 C829 0.950 . S
C833 C824 1.390 . S
C833 H826 0.950 . S
C833 C830 1.387 . S
C834 C835 1.387 . S
C834 H838 0.950 . S
C834 C843 1.390 . S
C835 C834 1.387 . S
C835 C837 1.387 . S
H836 C843 0.950 . S
C837 C835 1.387 . S
C837 C839 1.390 . S
C837 H841 0.950 . S
H838 C834 0.950 . S
C839 C837 1.390 . S
C839 C840 1.387 . S
C839 H842 0.950 . S
C840 C839 1.387 . S
C840 C843 1.387 . S
H841 C837 0.950 . S
H842 C839 0.950 . S
C843 C834 1.390 . S
C843 H836 0.950 . S
C843 C840 1.387 . S
C844 C845 1.387 . S
C844 H848 0.950 . S
C844 C853 1.390 . S
C845 C844 1.387 . S
C845 C847 1.387 . S
H846 C853 0.950 . S
C847 C845 1.387 . S
C847 C849 1.390 . S
C847 H851 0.950 . S
H848 C844 0.950 . S
C849 C847 1.390 . S
C849 C850 1.387 . S
C849 H852 0.950 . S
C850 C849 1.387 . S
C850 C853 1.387 . S
H851 C847 0.950 . S
H852 C849 0.950 . S
C853 C844 1.390 . S
C853 H846 0.950 . S
C853 C850 1.387 . S
C854 C855 1.387 . S
C854 H858 0.950 . S
C854 C863 1.390 . S
C855 C854 1.387 . S
C855 C857 1.387 . S
H856 C863 0.950 . S
C857 C855 1.387 . S
C857 C859 1.390 . S
C857 H861 0.950 . S
H858 C854 0.950 . S
C859 C857 1.390 . S
C859 C860 1.387 . S
C859 H862 0.950 . S
C860 C859 1.387 . S
C860 C863 1.387 . S
H861 C857 0.950 . S
H862 C859 0.950 . S
C863 C854 1.390 . S
C863 H856 0.950 . S
C863 C860 1.387 . S
C864 C865 1.387 . S
C864 H868 0.950 . S
C864 C873 1.390 . S
C865 C864 1.387 . S
C865 C867 1.387 . S
H866 C873 0.950 . S
C867 C865 1.387 . S
C867 C869 1.390 . S
C867 H871 0.950 . S
H868 C864 0.950 . S
C869 C867 1.390 . S
C869 C870 1.387 . S
C869 H872 0.950 . S
C870 C869 1.387 . S
C870 C873 1.387 . S
H871 C867 0.950 . S
H872 C869 0.950 . S
C873 C864 1.390 . S
C873 H866 0.950 . S
C873 C870 1.387 . S
C874 C875 1.387 . S
C874 H878 0.950 . S
C874 C883 1.390 . S
C875 C874 1.387 . S
C875 C877 1.387 . S
H876 C883 0.950 . S
C877 C875 1.387 . S
C877 C879 1.390 . S
C877 H881 0.950 . S
H878 C874 0.950 . S
C879 C877 1.390 . S
C879 C880 1.387 . S
C879 H882 0.950 . S
C880 C879 1.387 . S
C880 C883 1.387 . S
H881 C877 0.950 . S
H882 C879 0.950 . S
C883 C874 1.390 . S
C883 H876 0.950 . S
C883 C880 1.387 . S
C884 C885 1.387 . S
C884 H888 0.950 . S
C884 C893 1.390 . S
C885 C884 1.387 . S
C885 C887 1.387 . S
H886 C893 0.950 . S
C887 C885 1.387 . S
C887 C889 1.390 . S
C887 H891 0.950 . S
H888 C884 0.950 . S
C889 C887 1.390 . S
C889 C890 1.387 . S
C889 H892 0.950 . S
C890 C889 1.387 . S
C890 C893 1.387 . S
H891 C887 0.950 . S
H892 C889 0.950 . S
C893 C884 1.390 . S
C893 H886 0.950 . S
C893 C890 1.387 . S
C894 C895 1.387 . S
C894 H898 0.950 . S
C894 C903 1.390 . S
C895 C894 1.387 . S
C895 C897 1.387 . S
H896 C903 0.950 . S
C897 C895 1.387 . S
C897 C899 1.390 . S
C897 H901 0.950 . S
H898 C894 0.950 . S
C899 C897 1.390 . S
C899 C900 1.387 . S
C899 H902 0.950 . S
C900 C899 1.387 . S
C900 C903 1.387 . S
H901 C897 0.950 . S
H902 C899 0.950 . S
C903 C894 1.390 . S
C903 H896 0.950 . S
C903 C900 1.387 . S
C904 C905 1.387 . S
C904 H908 0.950 . S
C904 C913 1.390 . S
C905 C904 1.387 . S
C905 C907 1.387 . S
H906 C913 0.950 . S
C907 C905 1.387 . S
C907 C909 1.390 . S
C907 H911 0.950 . S
H908 C904 0.950 . S
C909 C907 1.390 . S
C909 C910 1.387 . S
C909 H912 0.950 . S
C910 C909 1.387 . S
C910 C913 1.387 . S
H911 C907 0.950 . S
H912 C909 0.950 . S
C913 C904 1.390 . S
C913 H906 0.950 . S
C913 C910 1.387 . S
C914 C915 1.387 . S
C914 H918 0.950 . S
C914 C923 1.390 . S
C915 C914 1.387 . S
C915 C917 1.387 . S
H916 C923 0.950 . S
C917 C915 1.387 . S
C917 C919 1.390 . S
C917 H921 0.950 . S
H918 C914 0.950 . S
C919 C917 1.390 . S
C919 C920 1.387 . S
C919 H922 0.950 . S
C920 C919 1.387 . S
C920 C923 1.387 . S
H921 C917 0.950 . S
H922 C919 0.950 . S
C923 C914 1.390 . S
C923 H916 0.950 . S
C923 C920 1.387 . S
C924 C925 1.387 . S
C924 H928 0.950 . S
C924 C933 1.390 . S
C925 C924 1.387 . S
C925 C927 1.387 . S
H926 C933 0.950 . S
C927 C925 1.387 . S
C927 C929 1.390 . S
C927 H931 0.950 . S
H928 C924 0.950 . S
C929 C927 1.390 . S
C929 C930 1.387 . S
C929 H932 0.950 . S
C930 C929 1.387 . S
C930 C933 1.387 . S
H931 C927 0.950 . S
H932 C929 0.950 . S
C933 C924 1.390 . S
C933 H926 0.950 . S
C933 C930 1.387 . S
C934 C935 1.387 . S
C934 H938 0.950 . S
C934 C943 1.390 . S
C935 C934 1.387 . S
C935 C937 1.387 . S
H936 C943 0.950 . S
C937 C935 1.387 . S
C937 C939 1.390 . S
C937 H941 0.950 . S
H938 C934 0.950 . S
C939 C937 1.390 . S
C939 C940 1.387 . S
C939 H942 0.950 . S
C940 C939 1.387 . S
C940 C943 1.387 . S
H941 C937 0.950 . S
H942 C939 0.950 . S
C943 C934 1.390 . S
C943 H936 0.950 . S
C943 C940 1.387 . S
C944 C945 1.387 . S
C944 H948 0.950 . S
C944 C953 1.390 . S
C945 C944 1.387 . S
C945 C947 1.387 . S
H946 C953 0.950 . S
C947 C945 1.387 . S
C947 C949 1.390 . S
C947 H951 0.950 . S
H948 C944 0.950 . S
C949 C947 1.390 . S
C949 C950 1.387 . S
C949 H952 0.950 . S
C950 C949 1.387 . S
C950 C953 1.387 . S
H951 C947 0.950 . S
H952 C949 0.950 . S
C953 C944 1.390 . S
C953 H946 0.950 . S
C953 C950 1.387 . S
C954 C955 1.387 . S
C954 H958 0.950 . S
C954 C963 1.390 . S
C955 C954 1.387 . S
C955 C957 1.387 . S
H956 C963 0.950 . S
C957 C955 1.387 . S
C957 C959 1.390 . S
C957 H961 0.950 . S
H958 C954 0.950 . S
C959 C957 1.390 . S
C959 C960 1.387 . S
C959 H962 0.950 . S
C960 C959 1.387 . S
C960 C963 1.387 . S
H961 C957 0.950 . S
H962 C959 0.950 . S
C963 C954 1.390 . S
C963 H956 0.950 . S
C963 C960 1.387 . S
C964 C965 1.387 . S
C964 H968 0.950 . S
C964 C973 1.390 . S
C965 C964 1.387 . S
C965 C967 1.387 . S
H966 C973 0.950 . S
C967 C965 1.387 . S
C967 C969 1.390 . S
C967 H971 0.950 . S
H968 C964 0.950 . S
C969 C967 1.390 . S
C969 C970 1.387 . S
C969 H972 0.950 . S
C970 C969 1.387 . S
C970 C973 1.387 . S
H971 C967 0.950 . S
H972 C969 0.950 . S
C973 C964 1.390 . S
C973 H966 0.950 . S
C973 C970 1.387 . S
C974 C975 1.387 . S
C974 H978 0.950 . S
C974 C983 1.390 . S
C975 C974 1.387 . S
C975 C977 1.387 . S
H976 C983 0.950 . S
C977 C975 1.387 . S
C977 C979 1.390 . S
C977 H981 0.950 . S
H978 C974 0.950 . S
C979 C977 1.390 . S
C979 C980 1.387 . S
C979 H982 0.950 . S
C980 C979 1.387 . S
C980 C983 1.387 . S
H981 C977 0.950 . S
H982 C979 0.950 . S
C983 C974 1.390 . S
C983 H976 0.950 . S
C983 C980 1.387 . S
C984 C985 1.387 . S
C984 H988 0.950 . S
C984 C993 1.390 . S
C985 C984 1.387 . S
C985 C987 1.387 . S
H986 C993 0.950 . S
C987 C985 1.387 . S
C987 C989 1.390 . S
C987 H991 0.950 . S
H988 C984 0.950 . S
C989 C987 1.390 . S
C989 C990 1.387 . S
C989 H992 0.950 . S
C990 C989 1.387 . S
C990 C993 1.387 . S
H991 C987 0.950 . S
H992 C989 0.950 . S
C993 C984 1.390 . S
C993 H986 0.950 . S
C993 C990 1.387 . S
C994 C995 1.387 . S
C994 H998 0.950 . S
C994 C1003 1.390 . S
C995 C994 1.387 . S
C995 C997 1.387 . S
H996 C1003 0.950 . S
C997 C995 1.387 . S
C997 C999 1.390 . S
C997 H1001 0.950 . S
H998 C994 0.950 . S
C999 C997 1.390 . S
C999 C1000 1.387 . S
C999 H1002 0.950 . S
C1000 C999 1.387 . S
C1000 C1003 1.387 . S
H1001 C997 0.950 . S
H1002 C999 0.950 . S
C1003 C994 1.390 . S
C1003 H996 0.950 . S
C1003 C1000 1.387 . S
C1004 C1005 1.387 . S
C1004 H1008 0.950 . S
C1004 C1013 1.390 . S
C1005 C1004 1.387 . S
C1005 C1007 1.387 . S
H1006 C1013 0.950 . S
C1007 C1005 1.387 . S
C1007 C1009 1.390 . S
C1007 H1011 0.950 . S
H1008 C1004 0.950 . S
C1009 C1007 1.390 . S
C1009 C1010 1.387 . S
C1009 H1012 0.950 . S
C1010 C1009 1.387 . S
C1010 C1013 1.387 . S
H1011 C1007 0.950 . S
H1012 C1009 0.950 . S
C1013 C1004 1.390 . S
C1013 H1006 0.950 . S
C1013 C1010 1.387 . S
C1014 C1015 1.387 . S
C1014 H1018 0.950 . S
C1014 C1023 1.390 . S
C1015 C1014 1.387 . S
C1015 C1017 1.387 . S
H1016 C1023 0.950 . S
C1017 C1015 1.387 . S
C1017 C1019 1.390 . S
C1017 H1021 0.950 . S
H1018 C1014 0.950 . S
C1019 C1017 1.390 . S
C1019 C1020 1.387 . S
C1019 H1022 0.950 . S
C1020 C1019 1.387 . S
C1020 C1023 1.387 . S
H1021 C1017 0.950 . S
H1022 C1019 0.950 . S
C1023 C1014 1.390 . S
C1023 H1016 0.950 . S
C1023 C1020 1.387 . S
C465 C245 1.857 1_565 S
C470 C13 1.857 1_545 S
C475 C42 1.860 . S
C480 C274 1.860 . S
C485 C303 1.862 . S
C490 C71 1.862 . S
C495 C100 1.856 1_455 S
C500 C332 1.856 1_655 S
C505 C129 1.856 1_565 S
C510 C361 1.856 1_545 S
C515 C158 1.861 . S
C520 C390 1.861 . S
C525 C419 1.860 . S
C530 C187 1.860 . S
C535 C448 1.856 1_455 S
C540 C216 1.856 1_655 S
C545 C15 2.918 . S
C550 C37 2.367 . S
C555 C66 2.366 . S
C560 C44 2.918 . S
C565 C95 2.368 1_655 S
C570 C73 2.918 . S
C575 C8 2.366 1_565 S
C580 C102 2.918 . S
C585 C211 2.367 1_455 S
C590 C131 2.918 . S
C595 C124 2.366 1_545 S
C600 C160 2.918 . S
C605 C189 2.918 . S
C610 C153 2.367 . S
C615 C218 2.918 . S
C620 C182 2.367 . S
C625 C269 2.367 . S
C630 C247 2.918 . S
C635 C276 2.918 . S
C640 C298 2.367 . S
C645 C327 2.364 1_455 S
C650 C305 2.918 . S
C655 C240 2.364 1_545 S
C660 C334 2.918 . S
C665 C443 2.364 1_655 S
C670 C363 2.918 . S
C675 C356 2.364 1_565 S
C680 C392 2.918 . S
C685 C385 2.366 . S
C690 C421 2.918 . S
C695 C414 2.367 . S
C700 C450 2.918 . S
C705 C266 1.207 . S
C710 C3 1.288 . S
C715 C295 1.210 . S
C720 C32 1.288 . S
C725 C324 1.207 . S
C730 C61 1.288 . S
C735 C237 1.207 . S
C740 C90 1.288 . S
C745 C440 1.206 . S
C750 C119 1.288 . S
C755 C353 1.210 . S
C760 C148 1.288 . S
C765 C177 1.288 . S
C770 C382 1.207 . S
C775 C411 1.210 . S
C780 C206 1.288 . S
C785 C235 1.288 . S
C790 C34 1.206 . S
C795 C264 1.288 . S
C800 C63 1.210 . S
C805 C293 1.288 . S
C810 C92 1.207 . S
C815 C5 1.207 . S
C820 C322 1.288 . S
C825 C351 1.288 . S
C830 C208 1.211 . S
C835 C121 1.207 . S
C840 C380 1.288 . S
C845 C409 1.288 . S
C850 C150 1.206 . S
C855 C438 1.288 . S
C860 C179 1.207 . S
C865 C155 1.853 . S
C870 C10 1.851 . S
C875 C184 1.852 . S
C880 C39 1.851 . S
C885 C213 1.855 . S
C890 C68 1.854 . S
C895 C126 1.855 . S
C900 C97 1.853 . S
C905 C387 1.854 . S
C910 C242 1.852 . S
C915 C271 1.854 . S
C920 C416 1.855 . S
C925 C300 1.854 . S
C930 C445 1.855 . S
C935 C329 1.852 . S
C940 C358 1.854 . S
C945 C79 0.938 . S
C950 C21 0.938 . S
C955 C50 0.942 . S
C960 C108 0.943 . S
C965 C195 0.938 . S
C970 C137 0.938 . S
C975 C224 0.938 . S
C980 C166 0.938 . S
C985 C253 0.938 . S
C990 C311 0.938 . S
C995 C340 0.947 . S
C1000 C282 0.947 . S
C1005 C427 0.938 . S
C1010 C369 0.938 . S
C1015 C456 0.947 . S
C1020 C398 0.947 . S
