# Generated by pormake.
# Topology uof, (4)-cn, num edge types: 1
# Building blocks:
#     Node 0, Type 0, BuildingBlock: ICAMEG_clean_sbu_1, # of connection points: 4
#     Node 1, Type 0, BuildingBlock: ICAMEG_clean_sbu_1, # of connection points: 4
#     Node 2, Type 0, BuildingBlock: ICAMEG_clean_sbu_1, # of connection points: 4
#     Node 3, Type 0, BuildingBlock: ICAMEG_clean_sbu_1, # of connection points: 4
#     Node 4, Type 0, BuildingBlock: ICAMEG_clean_sbu_1, # of connection points: 4
#     Node 5, Type 0, BuildingBlock: ICAMEG_clean_sbu_1, # of connection points: 4
#     Node 6, Type 0, BuildingBlock: ICAMEG_clean_sbu_1, # of connection points: 4
#     Node 7, Type 0, BuildingBlock: ICAMEG_clean_sbu_1, # of connection points: 4
#     Node 8, Type 0, BuildingBlock: ICAMEG_clean_sbu_1, # of connection points: 4
#     Node 9, Type 0, BuildingBlock: ICAMEG_clean_sbu_1, # of connection points: 4
#     Node 10, Type 0, BuildingBlock: ICAMEG_clean_sbu_1, # of connection points: 4
#     Node 11, Type 0, BuildingBlock: ICAMEG_clean_sbu_1, # of connection points: 4
#     Edge 12, Type (0, 0), BuildingBlock: KIFKEQ_clean_linker_1, # of connection points: 2
#     Edge 13, Type (0, 0), BuildingBlock: KIFKEQ_clean_linker_1, # of connection points: 2
#     Edge 14, Type (0, 0), BuildingBlock: KIFKEQ_clean_linker_1, # of connection points: 2
#     Edge 15, Type (0, 0), BuildingBlock: KIFKEQ_clean_linker_1, # of connection points: 2
#     Edge 16, Type (0, 0), BuildingBlock: KIFKEQ_clean_linker_1, # of connection points: 2
#     Edge 17, Type (0, 0), BuildingBlock: KIFKEQ_clean_linker_1, # of connection points: 2
#     Edge 18, Type (0, 0), BuildingBlock: KIFKEQ_clean_linker_1, # of connection points: 2
#     Edge 19, Type (0, 0), BuildingBlock: KIFKEQ_clean_linker_1, # of connection points: 2
#     Edge 20, Type (0, 0), BuildingBlock: KIFKEQ_clean_linker_1, # of connection points: 2
#     Edge 21, Type (0, 0), BuildingBlock: KIFKEQ_clean_linker_1, # of connection points: 2
#     Edge 22, Type (0, 0), BuildingBlock: KIFKEQ_clean_linker_1, # of connection points: 2
#     Edge 23, Type (0, 0), BuildingBlock: KIFKEQ_clean_linker_1, # of connection points: 2
#     Edge 24, Type (0, 0), BuildingBlock: KIFKEQ_clean_linker_1, # of connection points: 2
#     Edge 25, Type (0, 0), BuildingBlock: KIFKEQ_clean_linker_1, # of connection points: 2
#     Edge 26, Type (0, 0), BuildingBlock: KIFKEQ_clean_linker_1, # of connection points: 2
#     Edge 27, Type (0, 0), BuildingBlock: KIFKEQ_clean_linker_1, # of connection points: 2
#     Edge 28, Type (0, 0), BuildingBlock: KIFKEQ_clean_linker_1, # of connection points: 2
#     Edge 29, Type (0, 0), BuildingBlock: KIFKEQ_clean_linker_1, # of connection points: 2
#     Edge 30, Type (0, 0), BuildingBlock: KIFKEQ_clean_linker_1, # of connection points: 2
#     Edge 31, Type (0, 0), BuildingBlock: KIFKEQ_clean_linker_1, # of connection points: 2
#     Edge 32, Type (0, 0), BuildingBlock: KIFKEQ_clean_linker_1, # of connection points: 2
#     Edge 33, Type (0, 0), BuildingBlock: KIFKEQ_clean_linker_1, # of connection points: 2
#     Edge 34, Type (0, 0), BuildingBlock: KIFKEQ_clean_linker_1, # of connection points: 2
#     Edge 35, Type (0, 0), BuildingBlock: KIFKEQ_clean_linker_1, # of connection points: 2
# Relax obj value: 0.218
# Max RMSD: 0.166
# Mean RMSD: 0.166
data_MOF--net-uof--node1-ICAMEG_clean_sbu_1--edge1-KIFKEQ_clean_linker_1
_symmetry_space_group_name_H-M    P1
_symmetry_Int_Tables_number       1
_symmetry_cell_setting            triclinic
loop_
_symmetry_equiv_pos_as_xyz
'x, y, z'
_cell_length_a     33.505353
_cell_length_b     33.478571
_cell_length_c     72.79217
_cell_angle_alpha  90.02617
_cell_angle_beta   90.007801
_cell_angle_gamma 119.8817
loop_
_atom_site_label
_atom_site_type_symbol
_atom_site_fract_x
_atom_site_fract_y
_atom_site_fract_z
_atom_type_partial_charge
Co0 Co 0.24933 0.33623 0.22089 0.0
Co1 Co 0.19923 0.23086 0.24135 0.0
O2 O 0.23879 0.29815 0.2428 0.0
C3 C 0.34424 0.37342 0.23531 0.0
O4 O 0.33568 0.33079 0.23679 0.0
C5 C 0.1894 0.25824 0.27996 0.0
O6 O 0.20769 0.30158 0.27512 0.0
O7 O 0.14711 0.23895 0.23274 0.0
O8 O 0.18574 0.29228 0.21122 0.0
H9 H 0.08294 0.08324 0.21097 0.0
H10 H 0.2672 0.38226 0.25712 0.0
O11 O 0.31292 0.38149 0.2297 0.0
H12 H 0.14725 0.4059 0.22841 0.0
H13 H 0.30845 0.48522 0.18615 0.0
H14 H 0.23067 0.31596 0.18118 0.0
H15 H 0.17905 0.36348 0.21203 0.0
H16 H 0.29332 0.43725 0.21382 0.0
O17 O 0.18008 0.22726 0.26786 0.0
H18 H 0.13456 0.16714 0.21321 0.0
H19 H 0.17784 0.15167 0.26631 0.0
H20 H 0.24472 0.36258 0.15318 0.0
H21 H 0.23671 0.42535 0.27392 0.0
H22 H 0.28388 0.44787 0.15557 0.0
H23 H 0.17618 0.43728 0.25956 0.0
O24 O 0.27453 0.30116 0.20803 0.0
H25 H 0.33851 0.26605 0.27956 0.0
H26 H 0.238 0.17237 0.22879 0.0
H27 H 0.30398 0.16346 0.23776 0.0
H28 H 0.35469 0.2103 0.2634 0.0
H29 H 0.27285 0.2746 0.26992 0.0
H30 H 0.12635 0.06761 0.26467 0.0
H31 H 0.07852 0.03281 0.23682 0.0
O32 O 0.21749 0.2306 0.21521 0.0
C33 C 0.14816 0.25979 0.21786 0.0
C34 C 0.10361 0.09799 0.22317 0.0
C35 C 0.12791 0.08922 0.25332 0.0
N36 N 0.15923 0.16446 0.23988 0.0
C37 C 0.13298 0.14553 0.22453 0.0
C38 C 0.15687 0.13692 0.2542 0.0
C39 C 0.10113 0.06972 0.23769 0.0
C40 C 0.241 0.38748 0.25077 0.0
N41 N 0.22477 0.37015 0.23368 0.0
C42 C 0.2238 0.41183 0.26035 0.0
C43 C 0.18981 0.41847 0.2523 0.0
C44 C 0.17352 0.40082 0.23483 0.0
C45 C 0.1915 0.37661 0.22566 0.0
C46 C 0.29127 0.44809 0.18494 0.0
C47 C 0.24747 0.35303 0.18234 0.0
C48 C 0.28269 0.42075 0.20055 0.0
N49 N 0.26077 0.37382 0.19913 0.0
C50 C 0.25545 0.37926 0.16643 0.0
C51 C 0.27746 0.42711 0.16778 0.0
C52 C 0.25318 0.25768 0.20601 0.0
C53 C 0.3164 0.2451 0.26849 0.0
C54 C 0.25972 0.19283 0.24001 0.0
C55 C 0.29709 0.18761 0.24502 0.0
C56 C 0.32553 0.21391 0.25939 0.0
N57 N 0.25072 0.2233 0.24907 0.0
C58 C 0.27876 0.24946 0.26307 0.0
Co59 Co 0.92837 0.25254 0.55023 0.0
Co60 Co 0.97162 0.19572 0.57413 0.0
O61 O 0.95049 0.24086 0.5733 0.0
C62 C 0.99166 0.34943 0.56232 0.0
O63 O 0.0258 0.34076 0.56247 0.0
C64 C 0.93701 0.19947 0.61196 0.0
O65 O 0.91633 0.2211 0.6056 0.0
O66 O 0.90956 0.14692 0.56556 0.0
O67 O 0.90387 0.18681 0.54197 0.0
H68 H 0.98854 0.06487 0.54906 0.0
H69 H 0.89933 0.27769 0.58476 0.0
O70 O 0.95113 0.31801 0.55804 0.0
H71 H 0.75521 0.16514 0.55423 0.0
H72 H 0.85545 0.32157 0.51037 0.0
H73 H 0.93203 0.22831 0.51137 0.0
H74 H 0.8303 0.18889 0.53979 0.0
H75 H 0.8814 0.30499 0.53963 0.0
O76 O 0.95386 0.18213 0.60092 0.0
H77 H 0.9649 0.12368 0.54835 0.0
H78 H 0.02067 0.16934 0.60171 0.0
H79 H 0.90628 0.24371 0.4818 0.0
H80 H 0.82493 0.25524 0.5996 0.0
H81 H 0.86765 0.29064 0.48119 0.0
H82 H 0.75217 0.19845 0.58434 0.0
O83 O 0.98933 0.27082 0.539 0.0
H84 H 0.08468 0.33953 0.60808 0.0
H85 H 0.0674 0.22071 0.56372 0.0
H86 H 0.14495 0.28297 0.57187 0.0
H87 H 0.1541 0.34285 0.59433 0.0
H88 H 0.00787 0.27743 0.59923 0.0
H89 H 0.04458 0.1107 0.60301 0.0
H90 H 0.02869 0.05803 0.57654 0.0
O91 O 0.99199 0.20842 0.54793 0.0
C92 C 0.89322 0.14854 0.54983 0.0
C93 C 0.99567 0.08762 0.56069 0.0
C94 C 0.02703 0.11328 0.59098 0.0
N95 N 0.99122 0.14997 0.57498 0.0
C96 C 0.98236 0.12106 0.56037 0.0
C97 C 0.01316 0.14628 0.59019 0.0
C98 C 0.01815 0.08377 0.57611 0.0
C99 C 0.86783 0.25304 0.57801 0.0
N100 N 0.86923 0.2344 0.5615 0.0
C101 C 0.82579 0.24042 0.58649 0.0
C102 C 0.78499 0.20854 0.57793 0.0
C103 C 0.78667 0.18979 0.56105 0.0
C104 C 0.82934 0.20321 0.55298 0.0
C105 C 0.87216 0.301 0.51046 0.0
C106 C 0.91504 0.24856 0.51121 0.0
C107 C 0.88701 0.29158 0.52698 0.0
N108 N 0.90786 0.26538 0.52721 0.0
C109 C 0.90064 0.25726 0.49443 0.0
C110 C 0.879 0.28363 0.49409 0.0
C111 C 1.00741 0.24521 0.53852 0.0
C112 C 0.0812 0.31328 0.59848 0.0
C113 C 0.0709 0.24626 0.57365 0.0
C114 C 0.11502 0.28159 0.57816 0.0
C115 C 0.12012 0.3152 0.59072 0.0
N116 N 0.03276 0.24417 0.58148 0.0
C117 C 0.03761 0.27754 0.59357 0.0
Co118 Co 0.67487 0.90874 0.89004 0.0
Co119 Co 0.7814 0.98074 0.90986 0.0
O120 O 0.71399 0.94294 0.91104 0.0
C121 C 0.63582 0.96751 0.90078 0.0
O122 O 0.67808 1.00246 0.90032 0.0
C123 C 0.76007 0.93477 0.94708 0.0
O124 O 0.71744 0.90614 0.94224 0.0
O125 O 0.78615 0.92888 0.89821 0.0
O126 O 0.72073 0.89049 0.88183 0.0
H127 H 0.93458 0.04708 0.87812 0.0
H128 H 0.63151 0.88935 0.92691 0.0
O129 O 0.62821 0.92684 0.89758 0.0
H130 H 0.61527 0.74201 0.90578 0.0
H131 H 0.52366 0.80416 0.85899 0.0
H132 H 0.69174 0.89823 0.8508 0.0
H133 H 0.65313 0.8112 0.88622 0.0
H134 H 0.57379 0.84701 0.88509 0.0
O135 O 0.78917 0.96118 0.9352 0.0
H136 H 0.85005 1.00091 0.88045 0.0
H137 H 0.8561 0.04085 0.93625 0.0
H138 H 0.64293 0.85562 0.82437 0.0
H139 H 0.59265 0.82081 0.94679 0.0
H140 H 0.55823 0.80817 0.82838 0.0
H141 H 0.58454 0.74651 0.93629 0.0
O142 O 0.70513 0.9641 0.8739 0.0
H143 H 0.72011 0.05406 0.95372 0.0
H144 H 0.82577 0.08127 0.90207 0.0
H145 H 0.82038 0.14632 0.91507 0.0
H146 H 0.76746 0.13304 0.94117 0.0
H147 H 0.72595 0.98999 0.94018 0.0
H148 H 0.9407 0.08698 0.93457 0.0
H149 H 0.98052 0.09046 0.90533 0.0
O150 O 0.77697 1.0036 0.88529 0.0
C151 C 0.76122 0.89896 0.88611 0.0
C152 C 0.91763 0.04584 0.89094 0.0
C153 C 0.92107 0.06815 0.92263 0.0
N154 N 0.84806 0.01802 0.90847 0.0
C155 C 0.86975 0.0198 0.89234 0.0
C156 C 0.87313 0.04173 0.92352 0.0
C157 C 0.94339 0.07014 0.90622 0.0
C158 C 0.6278 0.85707 0.92218 0.0
N159 N 0.64488 0.85439 0.90548 0.0
C160 C 0.60591 0.81841 0.93353 0.0
C161 C 0.60144 0.77675 0.92765 0.0
C162 C 0.61875 0.77423 0.91055 0.0
C163 C 0.64047 0.81361 0.89958 0.0
C164 C 0.56052 0.82465 0.85708 0.0
C165 C 0.65495 0.87743 0.85268 0.0
C166 C 0.58908 0.84906 0.87179 0.0
N167 N 0.63568 0.87482 0.8695 0.0
C168 C 0.62747 0.85348 0.83765 0.0
C169 C 0.57995 0.8269 0.83991 0.0
C170 C 0.7464 0.99735 0.8735 0.0
C171 C 0.74369 0.0604 0.94248 0.0
C172 C 0.80282 0.0751 0.9135 0.0
C173 C 0.79987 0.11215 0.92078 0.0
C174 C 0.77017 0.10467 0.93541 0.0
N175 N 0.7772 0.03178 0.92065 0.0
C176 C 0.74752 0.02418 0.93484 0.0
Co177 Co 0.76525 0.67464 0.22023 0.0
Co178 Co 0.81684 0.77982 0.24079 0.0
O179 O 0.77644 0.71264 0.24222 0.0
C180 C 0.6705 0.63819 0.23478 0.0
O181 O 0.67935 0.68091 0.23631 0.0
C182 C 0.8256 0.7519 0.27942 0.0
O183 O 0.80782 0.70868 0.27444 0.0
O184 O 0.86836 0.77062 0.23225 0.0
O185 O 0.82898 0.71805 0.21055 0.0
H186 H 0.93519 0.9266 0.21058 0.0
H187 H 0.74732 0.62834 0.25638 0.0
O188 O 0.70157 0.62986 0.22908 0.0
H189 H 0.86543 0.60266 0.22716 0.0
H190 H 0.704 0.52584 0.1851 0.0
H191 H 0.78375 0.69525 0.18055 0.0
H192 H 0.83438 0.64606 0.21104 0.0
H193 H 0.71999 0.5736 0.21291 0.0
O194 O 0.83545 0.78308 0.26737 0.0
H195 H 0.88239 0.84292 0.21274 0.0
H196 H 0.83914 0.85939 0.26569 0.0
H197 H 0.76884 0.64883 0.15241 0.0
H198 H 0.77708 0.58429 0.27293 0.0
H199 H 0.72869 0.56347 0.15458 0.0
H200 H 0.83667 0.57132 0.25832 0.0
O201 O 0.74059 0.7105 0.20761 0.0
H202 H 0.67777 0.74685 0.27867 0.0
H203 H 0.77975 0.83971 0.22814 0.0
H204 H 0.71449 0.84995 0.23696 0.0
H205 H 0.66305 0.80353 0.26248 0.0
H206 H 0.74274 0.73698 0.26917 0.0
H207 H 0.89183 0.94324 0.26414 0.0
H208 H 0.94025 0.97743 0.23641 0.0
O209 O 0.79906 0.78038 0.21459 0.0
C210 C 0.86688 0.7499 0.21727 0.0
C211 C 0.91429 0.91212 0.22274 0.0
C212 C 0.89001 0.92144 0.25281 0.0
N213 N 0.85772 0.84609 0.23935 0.0
C214 C 0.88426 0.8647 0.22405 0.0
C215 C 0.8604 0.87386 0.25365 0.0
C216 C 0.91713 0.94061 0.23724 0.0
C217 C 0.77312 0.62268 0.24991 0.0
N218 N 0.78924 0.63996 0.23282 0.0
C219 C 0.7899 0.59779 0.25936 0.0
C220 C 0.82337 0.59056 0.25116 0.0
C221 C 0.83956 0.60819 0.23369 0.0
C222 C 0.822 0.63295 0.22467 0.0
C223 C 0.72161 0.563 0.18398 0.0
C224 C 0.76651 0.65814 0.18162 0.0
C225 C 0.73068 0.59022 0.19967 0.0
N226 N 0.75314 0.63719 0.19836 0.0
C227 C 0.75805 0.63203 0.16563 0.0
C228 C 0.73548 0.58414 0.16686 0.0
C229 C 0.7627 0.75399 0.20559 0.0
C230 C 0.7002 0.76762 0.26765 0.0
C231 C 0.7577 0.81942 0.23931 0.0
C232 C 0.72074 0.8254 0.24423 0.0
C233 C 0.69189 0.79933 0.25853 0.0
N234 N 0.76589 0.78842 0.24838 0.0
C235 C 0.73745 0.76249 0.26231 0.0
Co236 Co 0.10052 0.77006 0.5555 0.0
Co237 Co 0.03383 0.81123 0.57401 0.0
O238 O 0.06647 0.77626 0.57617 0.0
C239 C 0.04137 0.67245 0.56634 0.0
O240 O 1.0062 0.67945 0.56533 0.0
C241 C 0.07128 0.82634 0.61272 0.0
O242 O 0.10152 0.81433 0.60789 0.0
O243 O 0.09179 0.86715 0.56599 0.0
O244 O 0.11978 0.8344 0.54683 0.0
H245 H 0.98852 0.91597 0.54211 0.0
H246 H 0.12003 0.74759 0.59261 0.0
O247 O 0.08205 0.70561 0.5635 0.0
H248 H 0.26788 0.8754 0.57055 0.0
H249 H 0.20309 0.71992 0.52484 0.0
H250 H 0.11022 0.79544 0.51609 0.0
H251 H 0.19846 0.84425 0.55114 0.0
H252 H 0.16132 0.72925 0.55088 0.0
O253 O 0.04597 0.83037 0.60064 0.0
H254 H 0.02824 0.87113 0.5452 0.0
H255 H 0.96992 0.82574 0.59819 0.0
H256 H 0.15178 0.78722 0.48971 0.0
H257 H 0.1888 0.77718 0.61238 0.0
H258 H 0.19862 0.7492 0.494 0.0
H259 H 0.26336 0.8417 0.6014 0.0
O260 O 0.04446 0.74481 0.53984 0.0
H261 H 0.9371 0.66882 0.61168 0.0
H262 H 0.93744 0.76396 0.55994 0.0
H263 H 0.86564 0.69337 0.56811 0.0
H264 H 0.86505 0.64531 0.59421 0.0
H265 H 0.0083 0.73918 0.60286 0.0
H266 H 0.92997 0.87051 0.59572 0.0
H267 H 0.93904 0.91599 0.56751 0.0
O268 O 0.0187 0.79269 0.5478 0.0
C269 C 0.11774 0.86944 0.55263 0.0
C270 C 0.98437 0.89638 0.55449 0.0
C271 C 0.95158 0.87093 0.58458 0.0
N272 N 1.00181 0.84607 0.57191 0.0
C273 C 1.00679 0.87088 0.55632 0.0
C274 C 0.97455 0.84585 0.58594 0.0
C275 C 0.95663 0.89638 0.56874 0.0
C276 C 0.15242 0.77548 0.58769 0.0
N277 N 0.15512 0.79439 0.5708 0.0
C278 C 0.19121 0.79219 0.59897 0.0
C279 C 0.23302 0.82843 0.59282 0.0
C280 C 0.23556 0.84741 0.57552 0.0
C281 C 0.19604 0.82983 0.56464 0.0
C282 C 0.18287 0.73663 0.5228 0.0
C283 C 0.13077 0.77913 0.51809 0.0
C284 C 0.15907 0.74192 0.53749 0.0
N285 N 0.13365 0.76319 0.53503 0.0
C286 C 0.15412 0.77445 0.50309 0.0
C287 C 0.18036 0.75308 0.50551 0.0
C288 C 0.01837 0.76182 0.53751 0.0
C289 C 0.93682 0.68967 0.60037 0.0
C290 C 0.93756 0.74338 0.57136 0.0
C291 C 0.89673 0.70339 0.57591 0.0
C292 C 0.89643 0.67644 0.59055 0.0
N293 N 0.97706 0.75632 0.58111 0.0
C294 C 0.97705 0.72985 0.5954 0.0
Co295 Co 0.3336 0.08693 0.88595 0.0
Co296 Co 0.22947 0.03919 0.90698 0.0
O297 O 0.296 0.062 0.90806 0.0
C298 C 0.36606 0.02316 0.8986 0.0
O299 O 0.32323 0.98933 0.89816 0.0
C300 C 0.26022 0.07441 0.9456 0.0
O301 O 0.30334 0.09798 0.94037 0.0
O302 O 0.24224 0.10141 0.89883 0.0
O303 O 0.29286 0.11129 0.87669 0.0
H304 H 0.08491 0.02044 0.87786 0.0
H305 H 0.38134 0.11285 0.9219 0.0
O306 O 0.37573 0.06411 0.89464 0.0
H307 H 0.41541 0.25957 0.89288 0.0
H308 H 0.48176 0.1658 0.85013 0.0
H309 H 0.31238 0.08702 0.84645 0.0
H310 H 0.36777 0.1858 0.87685 0.0
H311 H 0.43445 0.13635 0.87813 0.0
O312 O 0.22826 0.05447 0.93373 0.0
H313 H 0.16772 0.04649 0.87949 0.0
H314 H 0.14985 0.98532 0.9322 0.0
H315 H 0.35837 0.1163 0.81812 0.0
H316 H 0.42957 0.18591 0.93835 0.0
H317 H 0.44371 0.15604 0.81986 0.0
H318 H 0.44678 0.25996 0.92384 0.0
O319 O 0.29426 0.02698 0.87335 0.0
H320 H 0.25698 0.92659 0.94297 0.0
H321 H 0.16433 0.94356 0.89425 0.0
H322 H 0.15046 0.86624 0.90222 0.0
H323 H 0.1968 0.85727 0.92682 0.0
H324 H 0.27033 1.0033 0.93436 0.0
H325 H 0.06687 0.95896 0.93117 0.0
H326 H 0.03381 0.97635 0.90383 0.0
O327 O 0.22692 0.02128 0.88062 0.0
C328 C 0.26284 0.11983 0.88373 0.0
C329 C 0.0989 0.01267 0.88986 0.0
C330 C 0.08879 0.97825 0.91978 0.0
N331 N 0.16384 0.0177 0.90596 0.0
C332 C 0.14585 0.02735 0.89087 0.0
C333 C 0.13591 0.99352 0.92033 0.0
C334 C 0.07026 0.98796 0.90443 0.0
C335 C 0.38881 0.14495 0.91548 0.0
N336 N 0.37153 0.145 0.89849 0.0
C337 C 0.41607 0.1862 0.92487 0.0
C338 C 0.42568 0.22772 0.91673 0.0
C339 C 0.40804 0.22753 0.89937 0.0
C340 C 0.38088 0.18561 0.8904 0.0
C341 C 0.44461 0.14864 0.8492 0.0
C342 C 0.3495 0.1045 0.84732 0.0
C343 C 0.41764 0.1318 0.865 0.0
N344 N 0.37071 0.11033 0.86393 0.0
C345 C 0.37536 0.1209 0.83123 0.0
C346 C 0.42324 0.14315 0.83222 0.0
C347 C 0.25081 0.00805 0.87163 0.0
C348 C 0.23627 0.93 0.93235 0.0
C349 C 0.18455 0.94008 0.90504 0.0
C350 C 0.17653 0.89612 0.90948 0.0
C351 C 0.20257 0.89113 0.92326 0.0
N352 N 0.21753 0.97813 0.91408 0.0
C353 C 0.24342 0.97345 0.9275 0.0
Co354 Co 0.68096 0.76207 0.46616 0.0
Co355 Co 0.78478 0.81576 0.44475 0.0
O356 O 0.71787 0.77363 0.44384 0.0
C357 C 0.64586 0.66684 0.45206 0.0
O358 O 0.68871 0.67637 0.4503 0.0
C359 C 0.75438 0.82128 0.40615 0.0
O360 O 0.71119 0.80174 0.41131 0.0
O361 O 0.77396 0.86637 0.45316 0.0
O362 O 0.72338 0.82661 0.4754 0.0
H363 H 0.93129 0.93826 0.47376 0.0
H364 H 0.63269 0.74188 0.43038 0.0
O365 O 0.63706 0.69766 0.45771 0.0
H366 H 0.6039 0.8578 0.45985 0.0
H367 H 0.53405 0.69805 0.50263 0.0
H368 H 0.70364 0.78247 0.50562 0.0
H369 H 0.64987 0.8292 0.47562 0.0
H370 H 0.58033 0.71436 0.4744 0.0
O371 O 0.78618 0.833 0.41808 0.0
H372 H 0.84798 0.8836 0.4722 0.0
H373 H 0.86362 0.83933 0.41932 0.0
H374 H 0.6587 0.76729 0.53418 0.0
H375 H 0.5861 0.76921 0.41418 0.0
H376 H 0.57326 0.72479 0.53278 0.0
H377 H 0.57155 0.82769 0.42892 0.0
O378 O 0.71903 0.73943 0.47843 0.0
H379 H 0.75394 0.67577 0.40781 0.0
H380 H 0.84774 0.78214 0.45716 0.0
H381 H 0.85982 0.71779 0.44865 0.0
H382 H 0.81293 0.66414 0.42373 0.0
H383 H 0.74225 0.73986 0.417 0.0
H384 H 0.94709 0.89386 0.42027 0.0
H385 H 0.98152 0.94371 0.44766 0.0
O386 O 0.78726 0.7996 0.471 0.0
C387 C 0.7538 0.86476 0.46831 0.0
C388 C 0.91671 0.91674 0.46174 0.0
C389 C 0.92556 0.89188 0.43171 0.0
N390 N 0.85075 0.85831 0.44566 0.0
C391 C 0.86948 0.88566 0.46077 0.0
C392 C 0.87818 0.86123 0.43122 0.0
C393 C 0.94486 0.9198 0.44709 0.0
C394 C 0.62636 0.76722 0.4369 0.0
N395 N 0.64418 0.78407 0.45387 0.0
C396 C 0.60002 0.78261 0.42765 0.0
C397 C 0.59191 0.81545 0.43592 0.0
C398 C 0.6101 0.83241 0.45327 0.0
C399 C 0.6363 0.81623 0.46209 0.0
C400 C 0.57125 0.71667 0.50341 0.0
C401 C 0.66648 0.76417 0.5049 0.0
C402 C 0.59765 0.72591 0.48748 0.0
N403 N 0.64465 0.74964 0.48836 0.0
C404 C 0.64122 0.75558 0.52111 0.0
C405 C 0.59328 0.73169 0.52033 0.0
C406 C 0.76255 0.76293 0.48009 0.0
C407 C 0.77492 0.69919 0.41856 0.0
C408 C 0.82725 0.75914 0.44624 0.0
C409 C 0.83427 0.72269 0.44149 0.0
C410 C 0.80794 0.6926 0.42753 0.0
N411 N 0.79496 0.76563 0.43732 0.0
C412 C 0.76877 0.73596 0.42372 0.0
Co413 Co 0.91432 0.67375 0.79864 0.0
Co414 Co 0.98266 0.78115 0.77998 0.0
O415 O 0.94835 0.71363 0.77788 0.0
C416 C 0.97169 0.63344 0.78726 0.0
O417 O 1.00734 0.67523 0.78828 0.0
C418 C 0.9441 0.75974 0.74138 0.0
O419 O 0.91466 0.71714 0.74599 0.0
O420 O 0.9261 0.78114 0.78877 0.0
O421 O 0.8967 0.7199 0.80764 0.0
H422 H 0.03361 0.93183 0.81228 0.0
H423 H 0.89301 0.63177 0.76151 0.0
O424 O 0.93131 0.62672 0.79031 0.0
H425 H 0.74732 0.61619 0.78427 0.0
H426 H 0.8098 0.52182 0.82921 0.0
H427 H 0.90603 0.68959 0.83818 0.0
H428 H 0.81725 0.65274 0.80344 0.0
H429 H 0.85186 0.57258 0.80316 0.0
O430 O 0.96921 0.78877 0.75358 0.0
H431 H 0.9916 0.84734 0.80909 0.0
H432 H 0.04658 0.85866 0.75551 0.0
H433 H 0.86422 0.64015 0.86456 0.0
H434 H 0.82369 0.5943 0.74198 0.0
H435 H 0.81569 0.55561 0.86016 0.0
H436 H 0.75021 0.58651 0.75331 0.0
O437 O 0.9707 0.70327 0.81414 0.0
H438 H 0.07399 0.73096 0.74092 0.0
H439 H 0.08003 0.8283 0.79288 0.0
H440 H 0.15028 0.82734 0.78373 0.0
H441 H 0.14766 0.77859 0.7575 0.0
H442 H 1.00443 0.73231 0.7507 0.0
H443 H 0.08871 0.9433 0.75806 0.0
H444 H 0.08252 0.98047 0.78662 0.0
O445 O 0.99923 0.77715 0.80591 0.0
C446 C 0.90004 0.75777 0.80213 0.0
C447 C 0.03654 0.91605 0.79975 0.0
C448 C 0.06739 0.92249 0.76931 0.0
N449 N 0.01632 0.84793 0.7821 0.0
C450 C 0.01283 0.86817 0.79786 0.0
C451 C 0.04319 0.87449 0.76791 0.0
C452 C 0.06396 0.94332 0.78535 0.0
C453 C 0.8611 0.62825 0.76658 0.0
N454 N 0.8593 0.64475 0.78354 0.0
C455 C 0.82199 0.60713 0.75543 0.0
C456 C 0.7808 0.60282 0.76179 0.0
C457 C 0.77917 0.61955 0.77915 0.0
C458 C 0.81898 0.6405 0.7899 0.0
C459 C 0.83077 0.55861 0.83129 0.0
C460 C 0.88475 0.65286 0.83613 0.0
C461 C 0.85474 0.58751 0.8166 0.0
N462 N 0.88108 0.63404 0.81913 0.0
C463 C 0.86127 0.62503 0.85113 0.0
C464 C 0.83408 0.57759 0.84865 0.0
C465 C 0.99827 0.74611 0.81627 0.0
C466 C 0.07568 0.75267 0.75226 0.0
C467 C 0.07852 0.80709 0.7814 0.0
C468 C 0.11848 0.80669 0.77629 0.0
C469 C 0.11698 0.77932 0.76159 0.0
N470 N 0.03813 0.78111 0.77211 0.0
C471 C 0.03638 0.75389 0.75778 0.0
Co472 Co 0.24976 0.91888 0.13154 0.0
Co473 Co 0.19736 0.97281 0.1119 0.0
O474 O 0.23884 0.94731 0.11007 0.0
C475 C 0.34602 0.98081 0.11915 0.0
O476 O 0.33798 0.01535 0.12 0.0
C477 C 0.18966 0.938 0.07302 0.0
O478 O 0.20574 0.91107 0.07801 0.0
O479 O 0.14621 0.91106 0.11949 0.0
O480 O 0.18527 0.8964 0.1409 0.0
H481 H 0.07551 0.99592 0.14228 0.0
H482 H 0.27066 0.89499 0.09495 0.0
O483 O 0.31414 0.94 0.12279 0.0
H484 H 0.1533 0.74754 0.12178 0.0
H485 H 0.31312 0.83084 0.16499 0.0
H486 H 0.22884 0.91596 0.17122 0.0
H487 H 0.18179 0.82006 0.13906 0.0
H488 H 0.29731 0.86474 0.1378 0.0
O489 O 0.1805 0.95989 0.08508 0.0
H490 H 0.12971 0.96664 0.1398 0.0
H491 H 0.175 0.03137 0.0878 0.0
H492 H 0.24354 0.88227 0.19875 0.0
H493 H 0.24354 0.82315 0.07727 0.0
H494 H 0.28597 0.83934 0.19572 0.0
H495 H 0.18431 0.74875 0.09066 0.0
O496 O 0.27229 0.97768 0.14525 0.0
H497 H 0.33785 0.08329 0.07589 0.0
H498 H 0.23242 0.06823 0.12606 0.0
H499 H 0.29775 0.1447 0.11856 0.0
H500 H 0.35095 0.1527 0.09324 0.0
H501 H 0.27264 0.00739 0.08404 0.0
H502 H 0.12098 0.06104 0.0897 0.0
H503 H 0.0708 0.04345 0.11711 0.0
O504 O 0.21343 0.98868 0.13838 0.0
C505 C 0.14743 0.89068 0.13418 0.0
C506 C 0.09717 1.00381 0.13027 0.0
C507 C 0.12264 0.04028 0.10074 0.0
N508 N 0.15548 0.99708 0.11364 0.0
C509 C 0.12799 0.98731 0.12877 0.0
C510 C 0.15302 0.02316 0.09971 0.0
C511 C 0.09453 0.03045 0.11613 0.0
C512 C 0.24504 0.86272 0.1009 0.0
N513 N 0.22767 0.86179 0.11796 0.0
C514 C 0.22974 0.82217 0.09081 0.0
C515 C 0.19647 0.78045 0.09832 0.0
C516 C 0.17901 0.77975 0.11577 0.0
C517 C 0.1951 0.82099 0.12545 0.0
C518 C 0.29449 0.84937 0.16648 0.0
C519 C 0.24705 0.89706 0.16978 0.0
C520 C 0.2855 0.8687 0.15114 0.0
N521 N 0.26176 0.89191 0.15291 0.0
C522 C 0.2554 0.87818 0.18542 0.0
C523 C 0.27924 0.85414 0.18371 0.0
C524 C 0.24936 0.99818 0.14761 0.0
C525 C 0.3147 0.08032 0.08685 0.0
C526 C 0.25524 0.07132 0.11497 0.0
C527 C 0.29224 0.11478 0.1108 0.0
C528 C 0.32208 0.11923 0.09661 0.0
N529 N 0.24801 0.03326 0.10528 0.0
C530 C 0.27739 0.03738 0.09144 0.0
Co531 Co 0.3417 0.2439 0.46381 0.0
Co532 Co 0.23398 0.20566 0.4453 0.0
O533 O 0.30145 0.23767 0.44305 0.0
C534 C 0.3814 0.33993 0.45078 0.0
O535 O 0.33914 0.33268 0.4503 0.0
C536 C 0.25409 0.18573 0.40696 0.0
O537 O 0.29661 0.19828 0.4115 0.0
O538 O 0.23322 0.14924 0.45482 0.0
O539 O 0.29565 0.18074 0.47308 0.0
H540 H 0.08393 0.11056 0.47842 0.0
H541 H 0.38259 0.26297 0.42654 0.0
O542 O 0.38871 0.30737 0.45535 0.0
H543 H 0.3986 0.1334 0.44987 0.0
H544 H 0.49382 0.29077 0.49419 0.0
H545 H 0.32643 0.22118 0.50346 0.0
H546 H 0.36276 0.16782 0.46895 0.0
H547 H 0.44279 0.28163 0.46816 0.0
O548 O 0.22546 0.18257 0.41919 0.0
H549 H 0.16827 0.15156 0.47494 0.0
H550 H 0.15627 0.19157 0.42075 0.0
H551 H 0.37615 0.22925 0.52984 0.0
H552 H 0.41936 0.2301 0.40708 0.0
H553 H 0.4605 0.2643 0.52528 0.0
H554 H 0.42736 0.16468 0.4187 0.0
O555 O 0.31295 0.27183 0.4792 0.0
H556 H 0.28412 0.34383 0.40426 0.0
H557 H 0.18824 0.25812 0.45731 0.0
H558 H 0.18946 0.32877 0.44704 0.0
H559 H 0.23745 0.37208 0.42026 0.0
H560 H 0.28263 0.27364 0.41518 0.0
H561 H 0.07177 0.15048 0.42359 0.0
H562 H 0.03502 0.10972 0.45261 0.0
O563 O 0.23889 0.2284 0.4709 0.0
C564 C 0.25723 0.14657 0.46795 0.0
C565 C 0.09952 0.12813 0.4657 0.0
C566 C 0.0927 0.15046 0.43491 0.0
N567 N 0.16732 0.17375 0.44762 0.0
C568 C 0.14731 0.15146 0.46364 0.0
C569 C 0.14061 0.17344 0.43335 0.0
C570 C 0.0721 0.12765 0.45121 0.0
C571 C 0.38621 0.23469 0.43173 0.0
N572 N 0.37019 0.2171 0.4488 0.0
C573 C 0.40693 0.21613 0.42063 0.0
C574 C 0.41135 0.17939 0.42714 0.0
C575 C 0.39514 0.16177 0.44462 0.0
C576 C 0.37457 0.18119 0.45532 0.0
C577 C 0.45712 0.27538 0.49634 0.0
C578 C 0.36307 0.23619 0.50135 0.0
C579 C 0.42806 0.2702 0.48167 0.0
N580 N 0.38164 0.25058 0.48427 0.0
C581 C 0.39106 0.24079 0.51635 0.0
C582 C 0.43839 0.2605 0.51378 0.0
C583 C 0.27036 0.25798 0.48123 0.0
C584 C 0.26272 0.32503 0.41584 0.0
C585 C 0.20917 0.27661 0.44561 0.0
C586 C 0.2097 0.31665 0.43986 0.0
C587 C 0.23663 0.34093 0.42484 0.0
N588 N 0.23459 0.26096 0.43664 0.0
C589 C 0.26137 0.28487 0.42199 0.0
Co590 Co 0.08167 0.32372 0.79931 0.0
Co591 Co 0.05161 0.23126 0.77169 0.0
O592 O 0.06907 0.2962 0.77485 0.0
C593 C 0.01855 0.35773 0.78652 0.0
O594 O 0.98438 0.31511 0.78556 0.0
C595 C 0.09437 0.27939 0.73612 0.0
O596 O 0.1093 0.32004 0.7436 0.0
O597 O 0.1109 0.2444 0.78349 0.0
O598 O 0.10634 0.28287 0.80787 0.0
H599 H 0.0349 0.0806 0.79276 0.0
H600 H 0.11977 0.38638 0.76734 0.0
O601 O 0.05868 0.36627 0.79128 0.0
H602 H 0.25437 0.41661 0.80497 0.0
H603 H 0.13339 0.45378 0.84473 0.0
H604 H 0.0664 0.28605 0.83708 0.0
H605 H 0.17599 0.3594 0.81488 0.0
H606 H 0.11981 0.41934 0.81379 0.0
O607 O 0.07943 0.24365 0.74622 0.0
H608 H 0.05325 0.16119 0.79622 0.0
H609 H 0.01646 0.16381 0.74054 0.0
H610 H 0.07977 0.31909 0.86828 0.0
H611 H 0.19755 0.44421 0.75698 0.0
H612 H 0.11351 0.40355 0.87225 0.0
H613 H 0.26555 0.45956 0.77584 0.0
O614 O 0.01844 0.27634 0.80689 0.0
H615 H 0.94628 0.26681 0.73415 0.0
H616 H 0.9548 0.15409 0.77505 0.0
H617 H 0.87984 0.13744 0.76261 0.0
H618 H 0.87516 0.19377 0.74183 0.0
H619 H 0.02019 0.28255 0.74717 0.0
H620 H 0.99815 0.08337 0.73647 0.0
H621 H 1.00714 0.0411 0.76272 0.0
O622 O 0.02133 0.21525 0.79633 0.0
C623 C 0.12165 0.25892 0.80005 0.0
C624 C 0.03079 0.09863 0.78123 0.0
C625 C 0.01026 0.10021 0.74963 0.0
N626 N 0.03596 0.16735 0.76862 0.0
C627 C 0.04108 0.14431 0.7831 0.0
C628 C 0.02094 0.14589 0.752 0.0
C629 C 0.01526 0.0765 0.76436 0.0
C630 C 0.14917 0.3929 0.77562 0.0
N631 N 0.14331 0.3693 0.79162 0.0
C632 C 0.19314 0.42567 0.76969 0.0
C633 C 0.23128 0.43425 0.78027 0.0
C634 C 0.22503 0.41013 0.7966 0.0
C635 C 0.18055 0.3776 0.8021 0.0
C636 C 0.11875 0.41694 0.84318 0.0
C637 C 0.08131 0.32285 0.8387 0.0
C638 C 0.11088 0.39723 0.8257 0.0
N639 N 0.09266 0.35076 0.82365 0.0
C640 C 0.0887 0.34135 0.8564 0.0
C641 C 0.1076 0.38874 0.85862 0.0
C642 C 1.00152 0.23293 0.80544 0.0
C643 C 0.94795 0.24157 0.74292 0.0
C644 C 0.95342 0.17862 0.76582 0.0
C645 C 0.91068 0.16905 0.7589 0.0
C646 C 0.90805 0.20068 0.74727 0.0
N647 N 0.99274 0.21834 0.76115 0.0
C648 C 0.99006 0.25003 0.75016 0.0
Co649 Co 0.76472 0.09216 0.13227 0.0
Co650 Co 0.81528 0.0353 0.11352 0.0
O651 O 0.77504 0.06212 0.11117 0.0
C652 C 0.66858 0.03115 0.11967 0.0
O653 O 0.67625 0.99639 0.12069 0.0
C654 C 0.82489 0.06933 0.07446 0.0
O655 O 0.80884 0.09656 0.07903 0.0
O656 O 0.86718 0.0967 0.12099 0.0
O657 O 0.82884 0.11369 0.14191 0.0
H658 H 0.93401 0.00946 0.14516 0.0
H659 H 0.74497 0.11519 0.09531 0.0
O660 O 0.70069 0.0719 0.12328 0.0
H661 H 0.86453 0.26266 0.12141 0.0
H662 H 0.70411 0.1845 0.16428 0.0
H663 H 0.78494 0.09639 0.17208 0.0
H664 H 0.83436 0.19078 0.13924 0.0
H665 H 0.71913 0.14847 0.13759 0.0
O666 O 0.83305 0.0473 0.08678 0.0
H667 H 0.88144 0.04054 0.14195 0.0
H668 H 0.83661 0.97495 0.09004 0.0
H669 H 0.77101 0.1322 0.19912 0.0
H670 H 0.77377 0.18638 0.07708 0.0
H671 H 0.73033 0.17664 0.1953 0.0
H672 H 0.83411 0.26079 0.0901 0.0
O673 O 0.74082 0.03388 0.14643 0.0
H674 H 0.67484 0.92604 0.07715 0.0
H675 H 0.77793 0.93997 0.12811 0.0
H676 H 0.7118 0.86398 0.12061 0.0
H677 H 0.65977 0.85655 0.0949 0.0
H678 H 0.74086 1.00146 0.08529 0.0
H679 H 0.88902 0.94348 0.09266 0.0
H680 H 0.93813 0.96058 0.1204 0.0
O681 O 0.7983 0.02034 0.13999 0.0
C682 C 0.86636 0.11807 0.13543 0.0
C683 C 0.91279 1.00177 0.13301 0.0
C684 C 0.8876 0.9648 0.10353 0.0
N685 N 0.85595 0.00972 0.11581 0.0
C686 C 0.88289 0.01926 0.13111 0.0
C687 C 0.85813 0.98293 0.1021 0.0
C688 C 0.9151 0.97437 0.11911 0.0
C689 C 0.77107 0.14747 0.1011 0.0
N690 N 0.78813 0.14874 0.11826 0.0
C691 C 0.78732 0.18765 0.0907 0.0
C692 C 0.82121 0.22937 0.09801 0.0
C693 C 0.83834 0.23044 0.11556 0.0
C694 C 0.82129 0.18956 0.12555 0.0
C695 C 0.72199 0.16533 0.16611 0.0
C696 C 0.7675 0.11594 0.1703 0.0
C697 C 0.73052 0.14479 0.15106 0.0
N698 N 0.75332 0.12075 0.15326 0.0
C699 C 0.75958 0.13602 0.18566 0.0
C700 C 0.73671 0.16091 0.18351 0.0
C701 C 0.76269 0.01242 0.14912 0.0
C702 C 0.69748 0.92876 0.08828 0.0
C703 C 0.75562 0.93712 0.11685 0.0
C704 C 0.71817 0.89393 0.11268 0.0
C705 C 0.68898 0.8898 0.09827 0.0
N706 N 0.76393 0.97523 0.10694 0.0
C707 C 0.73522 0.97142 0.09288 0.0
H708 H 0.95513 0.13916 0.12712 0.0
H709 H 0.87382 0.15346 0.16999 0.0
H710 H 0.02264 0.17474 0.14728 0.0
H711 H 0.94086 0.18809 0.19002 0.0
H712 H 0.05903 0.19355 0.22643 0.0
H713 H 0.99152 0.16141 0.20624 0.0
H714 H 0.07432 0.25261 0.16276 0.0
H715 H 0.14133 0.28519 0.18279 0.0
C716 C 0.95164 0.1502 0.14072 0.0
C717 C 0.90884 0.14342 0.14682 0.0
C718 C 0.99032 0.17054 0.15229 0.0
C719 C 0.98699 0.18393 0.17031 0.0
C720 C 0.94444 0.17766 0.17632 0.0
C721 C 0.90604 0.15806 0.1647 0.0
C722 C 0.06276 0.20713 0.21265 0.0
C723 C 0.10581 0.24213 0.20635 0.0
C724 C 0.02407 0.18869 0.20107 0.0
C725 C 0.02766 0.20428 0.18285 0.0
C726 C 0.07051 0.23947 0.17663 0.0
C727 C 0.1089 0.25837 0.18824 0.0
H728 H 0.86041 0.14082 0.51482 0.0
H729 H 0.8676 0.05887 0.55921 0.0
H730 H 0.82564 0.07327 0.49511 0.0
H731 H 0.8321 0.99081 0.5393 0.0
H732 H 0.81973 0.95413 0.45981 0.0
H733 H 0.85064 0.02178 0.47987 0.0
H734 H 0.75739 0.93913 0.52288 0.0
H735 H 0.7262 0.87188 0.50298 0.0
C736 C 0.85427 0.10836 0.5205 0.0
C737 C 0.86709 0.1056 0.53872 0.0
C738 C 0.83455 0.0696 0.50907 0.0
C739 C 0.82644 0.0267 0.51553 0.0
C740 C 0.83773 0.02337 0.53391 0.0
C741 C 0.85803 0.06239 0.54534 0.0
C742 C 0.8054 0.95045 0.47345 0.0
C743 C 0.77035 0.90732 0.47966 0.0
C744 C 0.82315 0.98925 0.48497 0.0
C745 C 0.80668 0.9858 0.50305 0.0
C746 C 0.77128 0.9429 0.50915 0.0
C747 C 0.75318 0.90434 0.49761 0.0
H748 H 0.85252 0.92511 0.881 0.0
H749 H 0.71519 0.8199 0.86571 0.0
H750 H 0.88458 0.89126 0.85993 0.0
H751 H 0.74736 0.78566 0.84513 0.0
H752 H 0.83033 0.71302 0.82708 0.0
H753 H 0.79694 0.74599 0.84769 0.0
H754 H 0.88347 0.88011 0.82393 0.0
H755 H 0.91613 0.84702 0.8028 0.0
C756 C 0.82911 0.89444 0.8734 0.0
C757 C 0.78114 0.87529 0.87517 0.0
C758 C 0.84754 0.8753 0.8612 0.0
C759 C 0.81851 0.83594 0.85076 0.0
C760 C 0.77066 0.8159 0.85299 0.0
C761 C 0.75224 0.83556 0.86486 0.0
C762 C 0.84188 0.74943 0.82599 0.0
C763 C 0.87609 0.77723 0.81318 0.0
C764 C 0.82274 0.76833 0.83788 0.0
C765 C 0.83787 0.81574 0.83759 0.0
C766 C 0.8715 0.84354 0.82464 0.0
C767 C 0.88997 0.82444 0.81243 0.0
H768 H 0.95632 0.81596 0.22562 0.0
H769 H 0.87303 0.72396 0.1822 0.0
H770 H 0.02342 0.84773 0.20524 0.0
H771 H 0.93962 0.75617 0.16198 0.0
H772 H 0.05832 0.86886 0.12595 0.0
H773 H 0.99111 0.83343 0.14626 0.0
H774 H 0.07375 0.82116 0.18892 0.0
H775 H 0.14045 0.85563 0.16875 0.0
C776 C 0.95229 0.8022 0.21185 0.0
C777 C 0.90906 0.76724 0.20567 0.0
C778 C 0.99075 0.82045 0.20015 0.0
C779 C 0.98676 0.80467 0.18193 0.0
C780 C 0.94375 0.76947 0.17584 0.0
C781 C 0.90559 0.75079 0.18756 0.0
C782 C 0.06206 0.85806 0.13956 0.0
C783 C 0.10503 0.86518 0.1456 0.0
C784 C 0.02354 0.83782 0.15122 0.0
C785 C 0.02721 0.82482 0.16928 0.0
C786 C 0.0699 0.83132 0.1752 0.0
C787 C 0.10812 0.85084 0.16351 0.0
H788 H 0.16729 0.07605 0.47046 0.0
H789 H 0.30371 0.11997 0.4914 0.0
H790 H 0.13544 0.01126 0.49202 0.0
H791 H 0.27183 0.05413 0.51227 0.0
H792 H 0.18846 0.89373 0.52824 0.0
H793 H 0.22288 0.95995 0.50757 0.0
H794 H 0.13621 0.00861 0.53047 0.0
H795 H 0.10296 0.94345 0.55184 0.0
C796 C 0.19061 0.07168 0.47942 0.0
C797 C 0.23818 0.10355 0.47913 0.0
C798 C 0.17227 0.03468 0.49184 0.0
C799 C 0.20116 0.02793 0.50391 0.0
C800 C 0.24878 0.05856 0.50315 0.0
C801 C 0.26699 0.09619 0.4911 0.0
C802 C 0.17718 0.91886 0.52917 0.0
C803 C 0.14268 0.91292 0.54177 0.0
C804 C 0.19685 0.95672 0.51724 0.0
C805 C 0.18179 0.98905 0.51726 0.0
C806 C 0.14805 0.98384 0.53003 0.0
C807 C 0.1292 0.9466 0.54234 0.0
H808 H 0.29351 0.15748 0.84965 0.0
H809 H 0.19475 0.14095 0.89142 0.0
H810 H 0.26219 0.19275 0.82934 0.0
H811 H 0.16347 0.17648 0.87096 0.0
H812 H 0.14773 0.28117 0.83592 0.0
H813 H 0.18371 0.25067 0.85617 0.0
H814 H 0.19055 0.16941 0.81153 0.0
H815 H 0.15422 0.19999 0.79105 0.0
C816 C 0.26535 0.16165 0.85463 0.0
C817 C 0.24673 0.14614 0.87229 0.0
C818 C 0.24715 0.18163 0.84285 0.0
C819 C 0.21007 0.18721 0.8484 0.0
C820 C 0.19227 0.17303 0.86625 0.0
C821 C 0.21025 0.15264 0.87802 0.0
C822 C 0.15705 0.25701 0.83027 0.0
C823 C 0.1478 0.24307 0.81173 0.0
C824 C 0.17749 0.23926 0.842 0.0
C825 C 0.18976 0.20728 0.83559 0.0
C826 C 0.18181 0.19423 0.81693 0.0
C827 C 0.16095 0.21177 0.80516 0.0
H828 H 0.63858 0.54655 0.22894 0.0
H829 H 0.5954 0.64144 0.24791 0.0
H830 H 0.56002 0.4833 0.23144 0.0
H831 H 0.51667 0.57763 0.25102 0.0
H832 H 0.37585 0.46492 0.22923 0.0
H833 H 0.45443 0.52833 0.23147 0.0
H834 H 0.49832 0.43462 0.25127 0.0
H835 H 0.41959 0.37066 0.24843 0.0
C836 C 0.61244 0.55387 0.23393 0.0
C837 C 0.62332 0.59924 0.23808 0.0
C838 C 0.56727 0.51739 0.2355 0.0
C839 C 0.53174 0.52519 0.24138 0.0
C840 C 0.54295 0.57039 0.24614 0.0
C841 C 0.58817 0.60699 0.24447 0.0
C842 C 0.40212 0.45778 0.23422 0.0
C843 C 0.3914 0.41254 0.2385 0.0
C844 C 0.4473 0.49435 0.23563 0.0
C845 C 0.48299 0.48675 0.24148 0.0
C846 C 0.47192 0.44169 0.2464 0.0
C847 C 0.4267 0.40501 0.24488 0.0
H848 H 0.10346 0.64661 0.57712 0.0
H849 H 0.96183 0.59132 0.56062 0.0
H850 H 0.09193 0.56886 0.57889 0.0
H851 H 0.95079 0.51397 0.56125 0.0
H852 H 0.9302 0.37463 0.57416 0.0
H853 H 0.94238 0.45209 0.57799 0.0
H854 H 0.08411 0.50847 0.56094 0.0
H855 H 0.07229 0.43081 0.55828 0.0
C856 C 0.06983 0.61777 0.57387 0.0
C857 C 0.03356 0.62512 0.56875 0.0
C858 C 0.06325 0.57308 0.57471 0.0
C859 C 0.02045 0.53463 0.57009 0.0
C860 C 0.98402 0.54225 0.56528 0.0
C861 C 0.99038 0.58682 0.56479 0.0
C862 C 0.96409 0.40367 0.57144 0.0
C863 C 1.00026 0.39664 0.56587 0.0
C864 C 0.97106 0.44825 0.57347 0.0
C865 C 0.01415 0.48708 0.56957 0.0
C866 C 0.0506 0.4798 0.56437 0.0
C867 C 0.04383 0.43515 0.56273 0.0
H868 H 0.45278 0.08287 0.91085 0.0
H869 H 0.36542 0.94192 0.89373 0.0
H870 H 0.51713 0.06899 0.91417 0.0
H871 H 0.43025 0.92849 0.89585 0.0
H872 H 0.54745 0.9055 0.91087 0.0
H873 H 0.48209 0.91829 0.91317 0.0
H874 H 0.56998 0.06045 0.89713 0.0
H875 H 0.6354 0.04808 0.89601 0.0
C876 C 0.4474 0.04886 0.90777 0.0
C877 C 0.40406 0.01352 0.902 0.0
C878 C 0.48447 0.04092 0.9095 0.0
C879 C 0.47952 0.99768 0.90507 0.0
C880 C 0.43564 0.96205 0.89969 0.0
C881 C 0.39832 0.96977 0.89836 0.0
C882 C 0.55276 0.93959 0.90806 0.0
C883 C 0.5966 0.97577 0.90327 0.0
C884 C 0.51515 0.94692 0.90921 0.0
C885 C 0.52021 0.99042 0.90523 0.0
C886 C 0.56445 0.02668 0.90069 0.0
C887 C 0.60215 0.01955 0.89991 0.0
H888 H 0.55427 0.63404 0.45809 0.0
H889 H 0.64987 0.59179 0.43916 0.0
H890 H 0.49152 0.55527 0.45558 0.0
H891 H 0.58647 0.51274 0.43604 0.0
H892 H 0.47276 0.37071 0.45694 0.0
H893 H 0.53651 0.44942 0.45508 0.0
H894 H 0.44354 0.4944 0.43546 0.0
H895 H 0.37944 0.41577 0.43794 0.0
C896 C 0.56187 0.60804 0.45312 0.0
C897 C 0.60728 0.6193 0.44894 0.0
C898 C 0.52566 0.56273 0.45155 0.0
C899 C 0.53372 0.52737 0.44562 0.0
C900 C 0.579 0.53888 0.44093 0.0
C901 C 0.61536 0.58429 0.4426 0.0
C902 C 0.46594 0.3973 0.45206 0.0
C903 C 0.42086 0.38695 0.44775 0.0
C904 C 0.50266 0.44253 0.45088 0.0
C905 C 0.49532 0.47856 0.44524 0.0
C906 C 0.45044 0.46779 0.44022 0.0
C907 C 0.41366 0.4226 0.44153 0.0
H908 H 0.90859 0.54634 0.77598 0.0
H909 H 0.05055 0.63007 0.79242 0.0
H910 H 0.9193 0.47974 0.77306 0.0
H911 H 0.06077 0.56336 0.79071 0.0
H912 H 0.08054 0.44514 0.77583 0.0
H913 H 0.06886 0.51102 0.77324 0.0
H914 H 0.92668 0.4251 0.78955 0.0
H915 H 0.93802 0.35876 0.79089 0.0
C916 C 0.9421 0.55046 0.779 0.0
C917 C 0.97873 0.59351 0.78439 0.0
C918 C 0.94822 0.51211 0.7775 0.0
C919 C 0.99092 0.51558 0.78173 0.0
C920 C 0.02762 0.55904 0.78692 0.0
C921 C 0.02172 0.5975 0.78804 0.0
C922 C 0.04665 0.44031 0.77862 0.0
C923 C 0.01022 0.39678 0.78359 0.0
C924 C 0.03996 0.47827 0.77733 0.0
C925 C 0.9969 0.47405 0.78142 0.0
C926 C 0.96019 0.43002 0.786 0.0
C927 C 0.96668 0.39181 0.78688 0.0
H928 H 0.42713 0.0612 0.12387 0.0
H929 H 0.3716 0.91954 0.10721 0.0
H930 H 0.50467 0.07286 0.12202 0.0
H931 H 0.44923 0.93163 0.10423 0.0
H932 H 0.58725 0.95087 0.12402 0.0
H933 H 0.50986 0.93944 0.12191 0.0
H934 H 0.56597 0.08108 0.10464 0.0
H935 H 0.64348 0.09294 0.10787 0.0
C936 C 0.4316 0.03282 0.11939 0.0
C937 C 0.39325 0.9894 0.11581 0.0
C938 C 0.47622 0.03951 0.11821 0.0
C939 C 0.4837 1.00314 0.11307 0.0
C940 C 0.44513 0.96023 0.10869 0.0
C941 C 0.40051 0.95333 0.11023 0.0
C942 C 0.58298 0.97942 0.1196 0.0
C943 C 0.62148 0.02286 0.11622 0.0
C944 C 0.53843 0.97285 0.11827 0.0
C945 C 0.53117 0.00936 0.11318 0.0
C946 C 0.56989 0.05235 0.10904 0.0
C947 C 0.61445 0.05912 0.11072 0.0
H948 H 0.19875 0.00689 0.17417 0.0
H949 H 0.33267 0.07671 0.14862 0.0
H950 H 0.21177 0.07974 0.18689 0.0
H951 H 0.34561 0.15047 0.16123 0.0
H952 H 0.33334 0.25627 0.2074 0.0
H953 H 0.34369 0.19413 0.19447 0.0
H954 H 0.21743 0.14503 0.16384 0.0
H955 H 0.20683 0.20611 0.17698 0.0
C956 C 0.23181 0.03763 0.17199 0.0
C957 C 0.26482 0.03647 0.16057 0.0
C958 C 0.23901 0.07931 0.17901 0.0
C959 C 0.27915 0.12056 0.17456 0.0
C960 C 0.31437 0.11897 0.16473 0.0
C961 C 0.30721 0.07687 0.15775 0.0
C962 C 0.30931 0.23359 0.19713 0.0
C963 C 0.26946 0.23574 0.19301 0.0
C964 C 0.31495 0.1979 0.18993 0.0
C965 C 0.28077 0.1645 0.17856 0.0
C966 C 0.24381 0.17009 0.17284 0.0
C967 C 0.23804 0.20528 0.18011 0.0
H968 H 0.02779 0.18794 0.52019 0.0
H969 H 0.0822 0.3313 0.53401 0.0
H970 H 0.10365 0.20432 0.51025 0.0
H971 H 0.15918 0.34791 0.52396 0.0
H972 H 0.26317 0.3344 0.47881 0.0
H973 H 0.20134 0.34102 0.49381 0.0
H974 H 0.17653 0.22848 0.5298 0.0
H975 H 0.23725 0.22113 0.51439 0.0
C976 C 0.05592 0.22322 0.52068 0.0
C977 C 0.04932 0.25837 0.52785 0.0
C978 C 0.09944 0.23247 0.51529 0.0
C979 C 0.1374 0.27705 0.51702 0.0
C980 C 0.13041 0.31315 0.52281 0.0
C981 C 0.08644 0.3038 0.52826 0.0
C982 C 0.24628 0.31306 0.49068 0.0
C983 C 0.25463 0.27729 0.49556 0.0
C984 C 0.21071 0.3166 0.49914 0.0
C985 C 0.18359 0.28444 0.51257 0.0
C986 C 0.1966 0.25315 0.51922 0.0
C987 C 0.23177 0.24938 0.51066 0.0
H988 H 0.96762 0.14198 0.81201 0.0
H989 H 0.93479 0.25086 0.81821 0.0
H990 H 0.89287 0.08681 0.82389 0.0
H991 H 0.85864 0.19467 0.83011 0.0
H992 H 0.77297 0.08696 0.87753 0.0
H993 H 0.82879 0.14806 0.85789 0.0
H994 H 0.81111 0.04663 0.81708 0.0
H995 H 0.75656 0.98533 0.83732 0.0
C996 C 0.9443 0.15418 0.81587 0.0
C997 C 0.95726 0.2009 0.81425 0.0
C998 C 0.901 0.12228 0.82241 0.0
C999 C 0.86931 0.13611 0.82752 0.0
C1000 C 0.88227 0.18297 0.82613 0.0
C1001 C 0.92594 0.21515 0.81952 0.0
C1002 C 0.77973 0.07808 0.86402 0.0
C1003 C 0.76137 0.03179 0.85893 0.0
C1004 C 0.81158 0.11306 0.85273 0.0
C1005 C 0.82535 0.102 0.83619 0.0
C1006 C 0.80191 0.05598 0.83 0.0
C1007 C 0.77022 0.02093 0.8414 0.0
H1008 H 0.68025 0.93321 0.14891 0.0
H1009 H 0.81026 0.00537 0.17735 0.0
H1010 H 0.66806 0.85981 0.16149 0.0
H1011 H 0.79784 0.93277 0.19012 0.0
H1012 H 0.81015 0.81039 0.17785 0.0
H1013 H 0.79774 0.87126 0.16581 0.0
H1014 H 0.66856 0.81408 0.19488 0.0
H1015 H 0.68079 0.75218 0.20677 0.0
C1016 C 0.70476 0.93359 0.15872 0.0
C1017 C 0.74609 0.97458 0.1623 0.0
C1018 C 0.69804 0.89168 0.16571 0.0
C1019 C 0.73258 0.89093 0.17635 0.0
C1020 C 0.77114 0.93264 0.18167 0.0
C1021 C 0.77797 0.97415 0.17461 0.0
C1022 C 0.77805 0.80952 0.1809 0.0
C1023 C 0.74627 0.77676 0.19307 0.0
C1024 C 0.77123 0.84458 0.17426 0.0
C1025 C 0.73279 0.8477 0.17986 0.0
C1026 C 0.69847 0.81223 0.19047 0.0
C1027 C 0.70519 0.77667 0.19705 0.0
H1028 H 0.75857 0.67969 0.48017 0.0
H1029 H 0.82531 0.81411 0.5055 0.0
H1030 H 0.82071 0.66682 0.49128 0.0
H1031 H 0.88654 0.80128 0.51665 0.0
H1032 H 0.016 0.80601 0.50716 0.0
H1033 H 0.94486 0.79446 0.49317 0.0
H1034 H 0.86735 0.6689 0.52413 0.0
H1035 H 0.93913 0.68011 0.53785 0.0
C1036 C 0.78524 0.70535 0.48889 0.0
C1037 C 0.78739 0.74777 0.49213 0.0
C1038 C 0.82096 0.69828 0.49498 0.0
C1039 C 0.85875 0.73366 0.50429 0.0
C1040 C 0.85818 0.77398 0.50909 0.0
C1041 C 0.82289 0.78105 0.50299 0.0
C1042 C 0.98412 0.7745 0.51005 0.0
C1043 C 0.98275 0.74374 0.52338 0.0
C1044 C 0.94341 0.76821 0.50231 0.0
C1045 C 0.90084 0.7314 0.50798 0.0
C1046 C 0.89986 0.69749 0.51958 0.0
C1047 C 0.94088 0.70363 0.52725 0.0
H1048 H 0.25981 0.93142 0.87009 0.0
H1049 H 0.18121 0.9914 0.84883 0.0
H1050 H 0.19892 0.85476 0.86003 0.0
H1051 H 0.12117 0.91572 0.8388 0.0
H1052 H 0.99847 0.78696 0.84803 0.0
H1053 H 0.06868 0.84792 0.86202 0.0
H1054 H 0.15005 0.80946 0.82828 0.0
H1055 H 0.07934 0.74748 0.8146 0.0
C1056 C 0.23058 0.92845 0.86255 0.0
C1057 C 0.22494 0.96702 0.86017 0.0
C1058 C 0.1956 0.88468 0.85708 0.0
C1059 C 0.15498 0.87953 0.84926 0.0
C1060 C 0.15169 0.91881 0.84531 0.0
C1061 C 0.18629 0.96212 0.85074 0.0
C1062 C 0.03114 0.78957 0.84454 0.0
C1063 C 0.03381 0.76269 0.8304 0.0
C1064 C 0.0713 0.82482 0.85229 0.0
C1065 C 0.11452 0.83385 0.84581 0.0
C1066 C 0.11706 0.80306 0.83345 0.0
C1067 C 0.07666 0.76738 0.82579 0.0
H1068 H 0.31302 0.22987 0.37849 0.0
H1069 H 0.16835 0.14882 0.39157 0.0
H1070 H 0.29349 0.24636 0.34816 0.0
H1071 H 0.14896 0.16499 0.36109 0.0
H1072 H 0.14366 0.17308 0.29607 0.0
H1073 H 0.15765 0.15142 0.3265 0.0
H1074 H 0.25563 0.29388 0.33798 0.0
H1075 H 0.2414 0.31575 0.30771 0.0
C1076 C 0.27705 0.21463 0.37476 0.0
C1077 C 0.24225 0.18796 0.38747 0.0
C1078 C 0.2659 0.22459 0.35746 0.0
C1079 C 0.21971 0.20749 0.35236 0.0
C1080 C 0.18484 0.1787 0.36465 0.0
C1081 C 0.19598 0.16936 0.38208 0.0
C1082 C 0.16751 0.19991 0.30523 0.0
C1083 C 0.19133 0.24619 0.29945 0.0
C1084 C 0.17558 0.18744 0.32262 0.0
C1085 C 0.20823 0.22086 0.33449 0.0
C1086 C 0.23077 0.26729 0.329 0.0
C1087 C 0.22215 0.27987 0.31174 0.0
H1088 H 0.97002 0.2798 0.63049 0.0
H1089 H 0.94849 0.14222 0.63555 0.0
H1090 H 0.01332 0.3018 0.65874 0.0
H1091 H 0.98743 0.16214 0.66521 0.0
H1092 H 0.08899 0.21432 0.71183 0.0
H1093 H 0.0517 0.19542 0.68186 0.0
H1094 H 0.01899 0.30457 0.68871 0.0
H1095 H 0.06065 0.326 0.7173 0.0
C1096 C 0.97304 0.25365 0.63812 0.0
C1097 C 0.95526 0.20909 0.63094 0.0
C1098 C 0.99798 0.2662 0.65454 0.0
C1099 C 1.0044 0.23403 0.66477 0.0
C1100 C 0.98478 0.18868 0.65779 0.0
C1101 C 0.96144 0.17672 0.6409 0.0
C1102 C 0.07502 0.23503 0.7065 0.0
C1103 C 0.07853 0.27214 0.71677 0.0
C1104 C 0.05258 0.22363 0.68942 0.0
C1105 C 0.03128 0.24786 0.6825 0.0
C1106 C 0.03556 0.28541 0.6929 0.0
C1107 C 0.0596 0.29788 0.70953 0.0
H1108 H 0.77484 0.07697 0.04641 0.0
H1109 H 0.86773 0.02622 0.05885 0.0
H1110 H 0.76026 0.04072 0.01615 0.0
H1111 H 0.85348 0.99049 0.02841 0.0
H1112 H 0.84536 0.97983 0.96303 0.0
H1113 H 0.86455 0.01404 0.99376 0.0
H1114 H 0.71996 0.95494 1.00589 0.0
H1115 H 0.70062 0.92023 0.97533 0.0
C1116 C 0.79294 0.05897 0.04256 0.0
C1117 C 0.82253 0.05458 0.05506 0.0
C1118 C 0.78412 0.03772 0.02531 0.0
C1119 C 0.80526 0.01226 0.02004 0.0
C1120 C 0.83664 0.0098 0.03213 0.0
C1121 C 0.84486 0.03038 0.04953 0.0
C1122 C 0.81765 0.97324 0.97241 0.0
C1123 C 0.77145 0.94717 0.96672 0.0
C1124 C 0.82867 0.99296 0.98997 0.0
C1125 C 0.79376 0.98773 1.00209 0.0
C1126 C 0.74758 0.96007 0.99672 0.0
C1127 C 0.73652 0.93968 0.97929 0.0
H1128 H 0.77573 0.69306 0.30724 0.0
H1129 H 0.86674 0.83723 0.29551 0.0
H1130 H 0.75939 0.71336 0.33742 0.0
H1131 H 0.85022 0.85743 0.32571 0.0
H1132 H 0.83916 0.86538 0.3897 0.0
H1133 H 0.85989 0.84947 0.3595 0.0
H1134 H 0.7168 0.75299 0.34847 0.0
H1135 H 0.69597 0.76871 0.37865 0.0
C1136 C 0.79299 0.72902 0.31121 0.0
C1137 C 0.82253 0.76349 0.2989 0.0
C1138 C 0.78311 0.74069 0.32842 0.0
C1139 C 0.80293 0.78706 0.33385 0.0
C1140 C 0.83434 0.82141 0.32194 0.0
C1141 C 0.84383 0.80978 0.30464 0.0
C1142 C 0.812 0.84133 0.38072 0.0
C1143 C 0.76587 0.81829 0.38666 0.0
C1144 C 0.82393 0.83219 0.36341 0.0
C1145 C 0.79009 0.79942 0.3517 0.0
C1146 C 0.74378 0.7778 0.35732 0.0
C1147 C 0.73178 0.78731 0.37453 0.0
H1148 H 0.08516 0.78011 0.64065 0.0
H1149 H 0.02517 0.86545 0.62887 0.0
H1150 H 0.0516 0.76525 0.67143 0.0
H1151 H 0.99245 0.85122 0.65988 0.0
H1152 H 0.98915 0.84548 0.72574 0.0
H1153 H 0.0218 0.86537 0.69475 0.0
H1154 H 0.96431 0.72106 0.68223 0.0
H1155 H 0.93085 0.70097 0.71299 0.0
C1156 C 0.06575 0.79659 0.64476 0.0
C1157 C 0.05797 0.82409 0.63231 0.0
C1158 C 0.04612 0.78763 0.66231 0.0
C1159 C 0.01904 0.80669 0.66795 0.0
C1160 C 0.01314 0.83607 0.65588 0.0
C1161 C 0.03198 0.84427 0.63816 0.0
C1162 C 0.98268 0.81797 0.71624 0.0
C1163 C 0.9572 0.77162 0.72182 0.0
C1164 C 1.00148 0.8294 0.69854 0.0
C1165 C 0.99606 0.79477 0.6862 0.0
C1166 C 0.96944 0.74845 0.69156 0.0
C1167 C 0.94985 0.73697 0.70911 0.0
H1168 H 0.15038 0.98402 0.05692 0.0
H1169 H 0.23828 0.92692 0.0452 0.0
H1170 H 0.16674 0.01957 0.02651 0.0
H1171 H 0.25459 0.96256 0.01483 0.0
H1172 H 0.31886 0.08008 0.97298 0.0
H1173 H 0.29836 0.04471 1.00337 0.0
H1174 H 0.15538 0.99969 0.99272 0.0
H1175 H 0.17575 0.03502 0.96228 0.0
C1176 C 0.17259 0.97841 0.04776 0.0
C1177 C 0.19301 0.95258 0.05354 0.0
C1178 C 0.18199 0.99885 0.03033 0.0
C1179 C 0.21249 0.99445 0.01836 0.0
C1180 C 0.23155 0.96723 0.02387 0.0
C1181 C 0.22171 0.9463 0.04119 0.0
C1182 C 0.28315 0.06345 0.97722 0.0
C1183 C 0.24897 0.06042 0.96515 0.0
C1184 C 0.27134 0.04264 0.99456 0.0
C1185 C 0.22516 0.0188 1.00035 0.0
C1186 C 0.19125 0.01776 0.98866 0.0
C1187 C 0.20297 0.03807 0.97122 0.0
loop_
_geom_bond_atom_site_label_1
_geom_bond_atom_site_label_2
_geom_bond_distance
_geom_bond_site_symmetry_2
_ccdc_geom_bond_type
Co0 O2 2.143 . S
Co0 O8 2.074 . S
Co0 O11 2.093 . S
Co0 O24 2.097 . S
Co0 N41 2.151 . S
Co0 N49 2.214 . S
Co1 O2 2.160 . S
Co1 O7 2.058 . S
Co1 O17 2.057 . S
Co1 O32 2.037 . S
Co1 N36 2.145 . S
Co1 N57 2.257 . S
O2 Co0 2.143 . S
O2 Co1 2.160 . S
C3 O4 1.278 . S
C3 O11 1.224 . S
O4 C3 1.278 . S
C5 O6 1.245 . S
C5 O17 1.232 . S
O6 C5 1.245 . S
O7 Co1 2.058 . S
O7 C33 1.269 . S
O8 Co0 2.074 . S
O8 C33 1.257 . S
H9 C34 0.930 . S
H10 C40 0.930 . S
O11 Co0 2.093 . S
O11 C3 1.224 . S
H12 C44 0.929 . S
H13 C46 0.930 . S
H14 C47 0.930 . S
H15 C45 0.929 . S
H16 C48 0.928 . S
O17 Co1 2.057 . S
O17 C5 1.232 . S
H18 C37 0.929 . S
H19 C38 0.929 . S
H20 C50 0.931 . S
H21 C42 0.929 . S
H22 C51 0.930 . S
H23 C43 0.931 . S
O24 Co0 2.097 . S
O24 C52 1.214 . S
H25 C53 0.929 . S
H26 C54 0.929 . S
H27 C55 0.930 . S
H28 C56 0.929 . S
H29 C58 0.930 . S
H30 C35 0.930 . S
H31 C39 0.930 . S
O32 Co1 2.037 . S
O32 C52 1.234 . S
C33 O7 1.269 . S
C33 O8 1.257 . S
C34 H9 0.930 . S
C34 C37 1.388 . S
C34 C39 1.418 . S
C35 H30 0.930 . S
C35 C38 1.404 . S
C35 C39 1.353 . S
N36 Co1 2.145 . S
N36 C37 1.397 . S
N36 C38 1.334 . S
C37 H18 0.929 . S
C37 C34 1.388 . S
C37 N36 1.397 . S
C38 H19 0.929 . S
C38 C35 1.404 . S
C38 N36 1.334 . S
C39 H31 0.930 . S
C39 C34 1.418 . S
C39 C35 1.353 . S
C40 H10 0.930 . S
C40 N41 1.330 . S
C40 C42 1.446 . S
N41 Co0 2.151 . S
N41 C40 1.330 . S
N41 C45 1.418 . S
C42 H21 0.929 . S
C42 C40 1.446 . S
C42 C43 1.332 . S
C43 H23 0.931 . S
C43 C42 1.332 . S
C43 C44 1.267 . S
C44 H12 0.929 . S
C44 C43 1.267 . S
C44 C45 1.251 . S
C45 H15 0.929 . S
C45 N41 1.418 . S
C45 C44 1.251 . S
C46 H13 0.930 . S
C46 C48 1.406 . S
C46 C51 1.261 . S
C47 H14 0.930 . S
C47 N49 1.325 . S
C47 C50 1.357 . S
C48 H16 0.928 . S
C48 C46 1.406 . S
C48 N49 1.261 . S
N49 Co0 2.214 . S
N49 C47 1.325 . S
N49 C48 1.261 . S
C50 H20 0.931 . S
C50 C47 1.357 . S
C50 C51 1.312 . S
C51 H22 0.930 . S
C51 C46 1.261 . S
C51 C50 1.312 . S
C52 O24 1.214 . S
C52 O32 1.234 . S
C53 H25 0.929 . S
C53 C56 1.391 . S
C53 C58 1.391 . S
C54 H26 0.929 . S
C54 C55 1.390 . S
C54 N57 1.391 . S
C55 H27 0.930 . S
C55 C54 1.390 . S
C55 C56 1.392 . S
C56 H28 0.929 . S
C56 C53 1.391 . S
C56 C55 1.392 . S
N57 Co1 2.257 . S
N57 C54 1.391 . S
N57 C58 1.388 . S
C58 H29 0.930 . S
C58 C53 1.391 . S
C58 N57 1.388 . S
Co59 O61 2.143 . S
Co59 O67 2.074 . S
Co59 O70 2.093 . S
Co59 O83 2.097 1_655 S
Co59 N100 2.151 . S
Co59 N108 2.214 . S
Co60 O61 2.141 1_455 S
Co60 O66 2.047 1_455 S
Co60 O76 2.051 1_455 S
Co60 O91 2.046 . S
Co60 N95 2.164 . S
Co60 N116 2.268 . S
O61 Co59 2.143 . S
O61 Co60 2.141 1_655 S
C62 O63 1.278 1_655 S
C62 O70 1.224 . S
O63 C62 1.278 1_455 S
C64 O65 1.245 . S
C64 O76 1.232 . S
O65 C64 1.245 . S
O66 Co60 2.047 1_655 S
O66 C92 1.269 . S
O67 Co59 2.074 . S
O67 C92 1.257 . S
H68 C93 0.930 . S
H69 C99 0.930 . S
O70 Co59 2.093 . S
O70 C62 1.224 . S
H71 C103 0.929 . S
H72 C105 0.930 . S
H73 C106 0.930 . S
H74 C104 0.929 . S
H75 C107 0.928 . S
O76 Co60 2.051 1_655 S
O76 C64 1.232 . S
H77 C96 0.929 . S
H78 C97 0.929 . S
H79 C109 0.931 . S
H80 C101 0.929 . S
H81 C110 0.930 . S
H82 C102 0.931 . S
O83 Co59 2.097 1_455 S
O83 C111 1.214 . S
H84 C112 0.929 . S
H85 C113 0.929 . S
H86 C114 0.930 . S
H87 C115 0.929 . S
H88 C117 0.930 . S
H89 C94 0.930 . S
H90 C98 0.930 . S
O91 Co60 2.046 . S
O91 C111 1.234 . S
C92 O66 1.269 . S
C92 O67 1.257 . S
C93 H68 0.930 . S
C93 C96 1.388 . S
C93 C98 1.418 . S
C94 H89 0.930 . S
C94 C97 1.404 . S
C94 C98 1.353 . S
N95 Co60 2.164 . S
N95 C96 1.397 . S
N95 C97 1.334 . S
C96 H77 0.929 . S
C96 C93 1.388 . S
C96 N95 1.397 . S
C97 H78 0.929 . S
C97 C94 1.404 . S
C97 N95 1.334 . S
C98 H90 0.930 . S
C98 C93 1.418 . S
C98 C94 1.353 . S
C99 H69 0.930 . S
C99 N100 1.330 . S
C99 C101 1.446 . S
N100 Co59 2.151 . S
N100 C99 1.330 . S
N100 C104 1.418 . S
C101 H80 0.929 . S
C101 C99 1.446 . S
C101 C102 1.332 . S
C102 H82 0.931 . S
C102 C101 1.332 . S
C102 C103 1.267 . S
C103 H71 0.929 . S
C103 C102 1.267 . S
C103 C104 1.251 . S
C104 H74 0.929 . S
C104 N100 1.418 . S
C104 C103 1.251 . S
C105 H72 0.930 . S
C105 C107 1.406 . S
C105 C110 1.261 . S
C106 H73 0.930 . S
C106 N108 1.325 . S
C106 C109 1.357 . S
C107 H75 0.928 . S
C107 C105 1.406 . S
C107 N108 1.261 . S
N108 Co59 2.214 . S
N108 C106 1.325 . S
N108 C107 1.261 . S
C109 H79 0.931 . S
C109 C106 1.357 . S
C109 C110 1.312 . S
C110 H81 0.930 . S
C110 C105 1.261 . S
C110 C109 1.312 . S
C111 O83 1.214 . S
C111 O91 1.234 . S
C112 H84 0.929 . S
C112 C115 1.391 . S
C112 C117 1.391 . S
C113 H85 0.929 . S
C113 C114 1.390 . S
C113 N116 1.391 . S
C114 H86 0.930 . S
C114 C113 1.390 . S
C114 C115 1.392 . S
C115 H87 0.929 . S
C115 C112 1.391 . S
C115 C114 1.392 . S
N116 Co60 2.268 . S
N116 C113 1.391 . S
N116 C117 1.388 . S
C117 H88 0.930 . S
C117 C112 1.391 . S
C117 N116 1.388 . S
Co118 O120 2.143 . S
Co118 O126 2.074 . S
Co118 O129 2.093 . S
Co118 O142 2.097 1_565 S
Co118 N159 2.151 . S
Co118 N167 2.214 . S
Co119 O120 2.161 1_545 S
Co119 O125 2.036 1_545 S
Co119 O135 2.053 1_545 S
Co119 O150 2.046 . S
Co119 N154 2.144 . S
Co119 N175 2.279 . S
O120 Co118 2.143 . S
O120 Co119 2.161 1_565 S
C121 O122 1.278 1_565 S
C121 O129 1.224 . S
O122 C121 1.278 1_545 S
C123 O124 1.245 . S
C123 O135 1.232 . S
O124 C123 1.245 . S
O125 Co119 2.036 1_565 S
O125 C151 1.269 . S
O126 Co118 2.074 . S
O126 C151 1.257 . S
H127 C152 0.930 . S
H128 C158 0.930 . S
O129 Co118 2.093 . S
O129 C121 1.224 . S
H130 C162 0.929 . S
H131 C164 0.930 . S
H132 C165 0.930 . S
H133 C163 0.929 . S
H134 C166 0.928 . S
O135 Co119 2.053 1_565 S
O135 C123 1.232 . S
H136 C155 0.929 . S
H137 C156 0.929 . S
H138 C168 0.931 . S
H139 C160 0.929 . S
H140 C169 0.930 . S
H141 C161 0.931 . S
O142 Co118 2.097 1_545 S
O142 C170 1.214 . S
H143 C171 0.929 . S
H144 C172 0.929 . S
H145 C173 0.930 . S
H146 C174 0.929 . S
H147 C176 0.930 . S
H148 C153 0.930 . S
H149 C157 0.930 . S
O150 Co119 2.046 . S
O150 C170 1.234 . S
C151 O125 1.269 . S
C151 O126 1.257 . S
C152 H127 0.930 . S
C152 C155 1.388 . S
C152 C157 1.418 . S
C153 H148 0.930 . S
C153 C156 1.404 . S
C153 C157 1.353 . S
N154 Co119 2.144 . S
N154 C155 1.397 . S
N154 C156 1.334 . S
C155 H136 0.929 . S
C155 C152 1.388 . S
C155 N154 1.397 . S
C156 H137 0.929 . S
C156 C153 1.404 . S
C156 N154 1.334 . S
C157 H149 0.930 . S
C157 C152 1.418 . S
C157 C153 1.353 . S
C158 H128 0.930 . S
C158 N159 1.330 . S
C158 C160 1.446 . S
N159 Co118 2.151 . S
N159 C158 1.330 . S
N159 C163 1.418 . S
C160 H139 0.929 . S
C160 C158 1.446 . S
C160 C161 1.332 . S
C161 H141 0.931 . S
C161 C160 1.332 . S
C161 C162 1.267 . S
C162 H130 0.929 . S
C162 C161 1.267 . S
C162 C163 1.251 . S
C163 H133 0.929 . S
C163 N159 1.418 . S
C163 C162 1.251 . S
C164 H131 0.930 . S
C164 C166 1.406 . S
C164 C169 1.261 . S
C165 H132 0.930 . S
C165 N167 1.325 . S
C165 C168 1.357 . S
C166 H134 0.928 . S
C166 C164 1.406 . S
C166 N167 1.261 . S
N167 Co118 2.214 . S
N167 C165 1.325 . S
N167 C166 1.261 . S
C168 H138 0.931 . S
C168 C165 1.357 . S
C168 C169 1.312 . S
C169 H140 0.930 . S
C169 C164 1.261 . S
C169 C168 1.312 . S
C170 O142 1.214 . S
C170 O150 1.234 . S
C171 H143 0.929 . S
C171 C174 1.391 . S
C171 C176 1.391 . S
C172 H144 0.929 . S
C172 C173 1.390 . S
C172 N175 1.391 . S
C173 H145 0.930 . S
C173 C172 1.390 . S
C173 C174 1.392 . S
C174 H146 0.929 . S
C174 C171 1.391 . S
C174 C173 1.392 . S
N175 Co119 2.279 . S
N175 C172 1.391 . S
N175 C176 1.388 . S
C176 H147 0.930 . S
C176 C171 1.391 . S
C176 N175 1.388 . S
Co177 O179 2.143 . S
Co177 O185 2.074 . S
Co177 O188 2.093 . S
Co177 O201 2.097 . S
Co177 N218 2.151 . S
Co177 N226 2.214 . S
Co178 O179 2.160 . S
Co178 O184 2.058 . S
Co178 O194 2.057 . S
Co178 O209 2.037 . S
Co178 N213 2.145 . S
Co178 N234 2.257 . S
O179 Co177 2.143 . S
O179 Co178 2.160 . S
C180 O181 1.278 . S
C180 O188 1.224 . S
O181 C180 1.278 . S
C182 O183 1.245 . S
C182 O194 1.232 . S
O183 C182 1.245 . S
O184 Co178 2.058 . S
O184 C210 1.269 . S
O185 Co177 2.074 . S
O185 C210 1.257 . S
H186 C211 0.930 . S
H187 C217 0.930 . S
O188 Co177 2.093 . S
O188 C180 1.224 . S
H189 C221 0.929 . S
H190 C223 0.930 . S
H191 C224 0.930 . S
H192 C222 0.929 . S
H193 C225 0.928 . S
O194 Co178 2.057 . S
O194 C182 1.232 . S
H195 C214 0.929 . S
H196 C215 0.929 . S
H197 C227 0.931 . S
H198 C219 0.929 . S
H199 C228 0.930 . S
H200 C220 0.931 . S
O201 Co177 2.097 . S
O201 C229 1.214 . S
H202 C230 0.929 . S
H203 C231 0.929 . S
H204 C232 0.930 . S
H205 C233 0.929 . S
H206 C235 0.930 . S
H207 C212 0.930 . S
H208 C216 0.930 . S
O209 Co178 2.037 . S
O209 C229 1.234 . S
C210 O184 1.269 . S
C210 O185 1.257 . S
C211 H186 0.930 . S
C211 C214 1.388 . S
C211 C216 1.418 . S
C212 H207 0.930 . S
C212 C215 1.404 . S
C212 C216 1.353 . S
N213 Co178 2.145 . S
N213 C214 1.397 . S
N213 C215 1.334 . S
C214 H195 0.929 . S
C214 C211 1.388 . S
C214 N213 1.397 . S
C215 H196 0.929 . S
C215 C212 1.404 . S
C215 N213 1.334 . S
C216 H208 0.930 . S
C216 C211 1.418 . S
C216 C212 1.353 . S
C217 H187 0.930 . S
C217 N218 1.330 . S
C217 C219 1.446 . S
N218 Co177 2.151 . S
N218 C217 1.330 . S
N218 C222 1.418 . S
C219 H198 0.929 . S
C219 C217 1.446 . S
C219 C220 1.332 . S
C220 H200 0.931 . S
C220 C219 1.332 . S
C220 C221 1.267 . S
C221 H189 0.929 . S
C221 C220 1.267 . S
C221 C222 1.251 . S
C222 H192 0.929 . S
C222 N218 1.418 . S
C222 C221 1.251 . S
C223 H190 0.930 . S
C223 C225 1.406 . S
C223 C228 1.261 . S
C224 H191 0.930 . S
C224 N226 1.325 . S
C224 C227 1.357 . S
C225 H193 0.928 . S
C225 C223 1.406 . S
C225 N226 1.261 . S
N226 Co177 2.214 . S
N226 C224 1.325 . S
N226 C225 1.261 . S
C227 H197 0.931 . S
C227 C224 1.357 . S
C227 C228 1.312 . S
C228 H199 0.930 . S
C228 C223 1.261 . S
C228 C227 1.312 . S
C229 O201 1.214 . S
C229 O209 1.234 . S
C230 H202 0.929 . S
C230 C233 1.391 . S
C230 C235 1.391 . S
C231 H203 0.929 . S
C231 C232 1.390 . S
C231 N234 1.391 . S
C232 H204 0.930 . S
C232 C231 1.390 . S
C232 C233 1.392 . S
C233 H205 0.929 . S
C233 C230 1.391 . S
C233 C232 1.392 . S
N234 Co178 2.257 . S
N234 C231 1.391 . S
N234 C235 1.388 . S
C235 H206 0.930 . S
C235 C230 1.391 . S
C235 N234 1.388 . S
Co236 O238 2.143 . S
Co236 O244 2.074 . S
Co236 O247 2.093 . S
Co236 O260 2.097 1_455 S
Co236 N277 2.151 . S
Co236 N285 2.214 . S
Co237 O238 2.140 1_655 S
Co237 O243 2.046 1_655 S
Co237 O253 2.051 1_655 S
Co237 O268 2.046 . S
Co237 N272 2.165 . S
Co237 N293 2.269 . S
O238 Co236 2.143 . S
O238 Co237 2.140 1_455 S
C239 O240 1.278 1_455 S
C239 O247 1.224 . S
O240 C239 1.278 1_655 S
C241 O242 1.245 . S
C241 O253 1.232 . S
O242 C241 1.245 . S
O243 Co237 2.046 1_455 S
O243 C269 1.269 . S
O244 Co236 2.074 . S
O244 C269 1.257 . S
H245 C270 0.930 . S
H246 C276 0.930 . S
O247 Co236 2.093 . S
O247 C239 1.224 . S
H248 C280 0.929 . S
H249 C282 0.930 . S
H250 C283 0.930 . S
H251 C281 0.929 . S
H252 C284 0.928 . S
O253 Co237 2.051 1_455 S
O253 C241 1.232 . S
H254 C273 0.929 . S
H255 C274 0.929 . S
H256 C286 0.931 . S
H257 C278 0.929 . S
H258 C287 0.930 . S
H259 C279 0.931 . S
O260 Co236 2.097 1_655 S
O260 C288 1.214 . S
H261 C289 0.929 . S
H262 C290 0.929 . S
H263 C291 0.930 . S
H264 C292 0.929 . S
H265 C294 0.930 . S
H266 C271 0.930 . S
H267 C275 0.930 . S
O268 Co237 2.046 . S
O268 C288 1.234 . S
C269 O243 1.269 . S
C269 O244 1.257 . S
C270 H245 0.930 . S
C270 C273 1.388 . S
C270 C275 1.418 . S
C271 H266 0.930 . S
C271 C274 1.404 . S
C271 C275 1.353 . S
N272 Co237 2.165 . S
N272 C273 1.397 . S
N272 C274 1.334 . S
C273 H254 0.929 . S
C273 C270 1.388 . S
C273 N272 1.397 . S
C274 H255 0.929 . S
C274 C271 1.404 . S
C274 N272 1.334 . S
C275 H267 0.930 . S
C275 C270 1.418 . S
C275 C271 1.353 . S
C276 H246 0.930 . S
C276 N277 1.330 . S
C276 C278 1.446 . S
N277 Co236 2.151 . S
N277 C276 1.330 . S
N277 C281 1.418 . S
C278 H257 0.929 . S
C278 C276 1.446 . S
C278 C279 1.332 . S
C279 H259 0.931 . S
C279 C278 1.332 . S
C279 C280 1.267 . S
C280 H248 0.929 . S
C280 C279 1.267 . S
C280 C281 1.251 . S
C281 H251 0.929 . S
C281 N277 1.418 . S
C281 C280 1.251 . S
C282 H249 0.930 . S
C282 C284 1.406 . S
C282 C287 1.261 . S
C283 H250 0.930 . S
C283 N285 1.325 . S
C283 C286 1.357 . S
C284 H252 0.928 . S
C284 C282 1.406 . S
C284 N285 1.261 . S
N285 Co236 2.214 . S
N285 C283 1.325 . S
N285 C284 1.261 . S
C286 H256 0.931 . S
C286 C283 1.357 . S
C286 C287 1.312 . S
C287 H258 0.930 . S
C287 C282 1.261 . S
C287 C286 1.312 . S
C288 O260 1.214 . S
C288 O268 1.234 . S
C289 H261 0.929 . S
C289 C292 1.391 . S
C289 C294 1.391 . S
C290 H262 0.929 . S
C290 C291 1.390 . S
C290 N293 1.391 . S
C291 H263 0.930 . S
C291 C290 1.390 . S
C291 C292 1.392 . S
C292 H264 0.929 . S
C292 C289 1.391 . S
C292 C291 1.392 . S
N293 Co237 2.269 . S
N293 C290 1.391 . S
N293 C294 1.388 . S
C294 H265 0.930 . S
C294 C289 1.391 . S
C294 N293 1.388 . S
Co295 O297 2.143 . S
Co295 O303 2.074 . S
Co295 O306 2.093 . S
Co295 O319 2.097 1_545 S
Co295 N336 2.151 . S
Co295 N344 2.214 . S
Co296 O297 2.161 1_565 S
Co296 O302 2.039 1_565 S
Co296 O312 2.054 1_565 S
Co296 O327 2.045 . S
Co296 N331 2.144 . S
Co296 N352 2.277 . S
O297 Co295 2.143 . S
O297 Co296 2.161 1_545 S
C298 O299 1.278 1_545 S
C298 O306 1.224 . S
O299 C298 1.278 1_565 S
C300 O301 1.245 . S
C300 O312 1.232 . S
O301 C300 1.245 . S
O302 Co296 2.039 1_545 S
O302 C328 1.269 . S
O303 Co295 2.074 . S
O303 C328 1.257 . S
H304 C329 0.930 . S
H305 C335 0.930 . S
O306 Co295 2.093 . S
O306 C298 1.224 . S
H307 C339 0.929 . S
H308 C341 0.930 . S
H309 C342 0.930 . S
H310 C340 0.929 . S
H311 C343 0.928 . S
O312 Co296 2.054 1_545 S
O312 C300 1.232 . S
H313 C332 0.929 . S
H314 C333 0.929 . S
H315 C345 0.931 . S
H316 C337 0.929 . S
H317 C346 0.930 . S
H318 C338 0.931 . S
O319 Co295 2.097 1_565 S
O319 C347 1.214 . S
H320 C348 0.929 . S
H321 C349 0.929 . S
H322 C350 0.930 . S
H323 C351 0.929 . S
H324 C353 0.930 . S
H325 C330 0.930 . S
H326 C334 0.930 . S
O327 Co296 2.045 . S
O327 C347 1.234 . S
C328 O302 1.269 . S
C328 O303 1.257 . S
C329 H304 0.930 . S
C329 C332 1.388 . S
C329 C334 1.418 . S
C330 H325 0.930 . S
C330 C333 1.404 . S
C330 C334 1.353 . S
N331 Co296 2.144 . S
N331 C332 1.397 . S
N331 C333 1.334 . S
C332 H313 0.929 . S
C332 C329 1.388 . S
C332 N331 1.397 . S
C333 H314 0.929 . S
C333 C330 1.404 . S
C333 N331 1.334 . S
C334 H326 0.930 . S
C334 C329 1.418 . S
C334 C330 1.353 . S
C335 H305 0.930 . S
C335 N336 1.330 . S
C335 C337 1.446 . S
N336 Co295 2.151 . S
N336 C335 1.330 . S
N336 C340 1.418 . S
C337 H316 0.929 . S
C337 C335 1.446 . S
C337 C338 1.332 . S
C338 H318 0.931 . S
C338 C337 1.332 . S
C338 C339 1.267 . S
C339 H307 0.929 . S
C339 C338 1.267 . S
C339 C340 1.251 . S
C340 H310 0.929 . S
C340 N336 1.418 . S
C340 C339 1.251 . S
C341 H308 0.930 . S
C341 C343 1.406 . S
C341 C346 1.261 . S
C342 H309 0.930 . S
C342 N344 1.325 . S
C342 C345 1.357 . S
C343 H311 0.928 . S
C343 C341 1.406 . S
C343 N344 1.261 . S
N344 Co295 2.214 . S
N344 C342 1.325 . S
N344 C343 1.261 . S
C345 H315 0.931 . S
C345 C342 1.357 . S
C345 C346 1.312 . S
C346 H317 0.930 . S
C346 C341 1.261 . S
C346 C345 1.312 . S
C347 O319 1.214 . S
C347 O327 1.234 . S
C348 H320 0.929 . S
C348 C351 1.391 . S
C348 C353 1.391 . S
C349 H321 0.929 . S
C349 C350 1.390 . S
C349 N352 1.391 . S
C350 H322 0.930 . S
C350 C349 1.390 . S
C350 C351 1.392 . S
C351 H323 0.929 . S
C351 C348 1.391 . S
C351 C350 1.392 . S
N352 Co296 2.277 . S
N352 C349 1.391 . S
N352 C353 1.388 . S
C353 H324 0.930 . S
C353 C348 1.391 . S
C353 N352 1.388 . S
Co354 O356 2.143 . S
Co354 O362 2.074 . S
Co354 O365 2.093 . S
Co354 O378 2.097 . S
Co354 N395 2.151 . S
Co354 N403 2.214 . S
Co355 O356 2.160 . S
Co355 O361 2.058 . S
Co355 O371 2.057 . S
Co355 O386 2.037 . S
Co355 N390 2.145 . S
Co355 N411 2.257 . S
O356 Co354 2.143 . S
O356 Co355 2.160 . S
C357 O358 1.278 . S
C357 O365 1.224 . S
O358 C357 1.278 . S
C359 O360 1.245 . S
C359 O371 1.232 . S
O360 C359 1.245 . S
O361 Co355 2.058 . S
O361 C387 1.269 . S
O362 Co354 2.074 . S
O362 C387 1.257 . S
H363 C388 0.930 . S
H364 C394 0.930 . S
O365 Co354 2.093 . S
O365 C357 1.224 . S
H366 C398 0.929 . S
H367 C400 0.930 . S
H368 C401 0.930 . S
H369 C399 0.929 . S
H370 C402 0.928 . S
O371 Co355 2.057 . S
O371 C359 1.232 . S
H372 C391 0.929 . S
H373 C392 0.929 . S
H374 C404 0.931 . S
H375 C396 0.929 . S
H376 C405 0.930 . S
H377 C397 0.931 . S
O378 Co354 2.097 . S
O378 C406 1.214 . S
H379 C407 0.929 . S
H380 C408 0.929 . S
H381 C409 0.930 . S
H382 C410 0.929 . S
H383 C412 0.930 . S
H384 C389 0.930 . S
H385 C393 0.930 . S
O386 Co355 2.037 . S
O386 C406 1.234 . S
C387 O361 1.269 . S
C387 O362 1.257 . S
C388 H363 0.930 . S
C388 C391 1.388 . S
C388 C393 1.418 . S
C389 H384 0.930 . S
C389 C392 1.404 . S
C389 C393 1.353 . S
N390 Co355 2.145 . S
N390 C391 1.397 . S
N390 C392 1.334 . S
C391 H372 0.929 . S
C391 C388 1.388 . S
C391 N390 1.397 . S
C392 H373 0.929 . S
C392 C389 1.404 . S
C392 N390 1.334 . S
C393 H385 0.930 . S
C393 C388 1.418 . S
C393 C389 1.353 . S
C394 H364 0.930 . S
C394 N395 1.330 . S
C394 C396 1.446 . S
N395 Co354 2.151 . S
N395 C394 1.330 . S
N395 C399 1.418 . S
C396 H375 0.929 . S
C396 C394 1.446 . S
C396 C397 1.332 . S
C397 H377 0.931 . S
C397 C396 1.332 . S
C397 C398 1.267 . S
C398 H366 0.929 . S
C398 C397 1.267 . S
C398 C399 1.251 . S
C399 H369 0.929 . S
C399 N395 1.418 . S
C399 C398 1.251 . S
C400 H367 0.930 . S
C400 C402 1.406 . S
C400 C405 1.261 . S
C401 H368 0.930 . S
C401 N403 1.325 . S
C401 C404 1.357 . S
C402 H370 0.928 . S
C402 C400 1.406 . S
C402 N403 1.261 . S
N403 Co354 2.214 . S
N403 C401 1.325 . S
N403 C402 1.261 . S
C404 H374 0.931 . S
C404 C401 1.357 . S
C404 C405 1.312 . S
C405 H376 0.930 . S
C405 C400 1.261 . S
C405 C404 1.312 . S
C406 O378 1.214 . S
C406 O386 1.234 . S
C407 H379 0.929 . S
C407 C410 1.391 . S
C407 C412 1.391 . S
C408 H380 0.929 . S
C408 C409 1.390 . S
C408 N411 1.391 . S
C409 H381 0.930 . S
C409 C408 1.390 . S
C409 C410 1.392 . S
C410 H382 0.929 . S
C410 C407 1.391 . S
C410 C409 1.392 . S
N411 Co355 2.257 . S
N411 C408 1.391 . S
N411 C412 1.388 . S
C412 H383 0.930 . S
C412 C407 1.391 . S
C412 N411 1.388 . S
Co413 O415 2.143 . S
Co413 O421 2.074 . S
Co413 O424 2.093 . S
Co413 O437 2.097 1_655 S
Co413 N454 2.151 . S
Co413 N462 2.214 . S
Co414 O415 2.161 1_455 S
Co414 O420 2.039 1_455 S
Co414 O430 2.054 1_455 S
Co414 O445 2.045 . S
Co414 N449 2.144 . S
Co414 N470 2.277 . S
O415 Co413 2.143 . S
O415 Co414 2.161 1_655 S
C416 O417 1.278 1_655 S
C416 O424 1.224 . S
O417 C416 1.278 1_455 S
C418 O419 1.245 . S
C418 O430 1.232 . S
O419 C418 1.245 . S
O420 Co414 2.039 1_655 S
O420 C446 1.269 . S
O421 Co413 2.074 . S
O421 C446 1.257 . S
H422 C447 0.930 . S
H423 C453 0.930 . S
O424 Co413 2.093 . S
O424 C416 1.224 . S
H425 C457 0.929 . S
H426 C459 0.930 . S
H427 C460 0.930 . S
H428 C458 0.929 . S
H429 C461 0.928 . S
O430 Co414 2.054 1_655 S
O430 C418 1.232 . S
H431 C450 0.929 . S
H432 C451 0.929 . S
H433 C463 0.931 . S
H434 C455 0.929 . S
H435 C464 0.930 . S
H436 C456 0.931 . S
O437 Co413 2.097 1_455 S
O437 C465 1.214 . S
H438 C466 0.929 . S
H439 C467 0.929 . S
H440 C468 0.930 . S
H441 C469 0.929 . S
H442 C471 0.930 . S
H443 C448 0.930 . S
H444 C452 0.930 . S
O445 Co414 2.045 . S
O445 C465 1.234 . S
C446 O420 1.269 . S
C446 O421 1.257 . S
C447 H422 0.930 . S
C447 C450 1.388 . S
C447 C452 1.418 . S
C448 H443 0.930 . S
C448 C451 1.404 . S
C448 C452 1.353 . S
N449 Co414 2.144 . S
N449 C450 1.397 . S
N449 C451 1.334 . S
C450 H431 0.929 . S
C450 C447 1.388 . S
C450 N449 1.397 . S
C451 H432 0.929 . S
C451 C448 1.404 . S
C451 N449 1.334 . S
C452 H444 0.930 . S
C452 C447 1.418 . S
C452 C448 1.353 . S
C453 H423 0.930 . S
C453 N454 1.330 . S
C453 C455 1.446 . S
N454 Co413 2.151 . S
N454 C453 1.330 . S
N454 C458 1.418 . S
C455 H434 0.929 . S
C455 C453 1.446 . S
C455 C456 1.332 . S
C456 H436 0.931 . S
C456 C455 1.332 . S
C456 C457 1.267 . S
C457 H425 0.929 . S
C457 C456 1.267 . S
C457 C458 1.251 . S
C458 H428 0.929 . S
C458 N454 1.418 . S
C458 C457 1.251 . S
C459 H426 0.930 . S
C459 C461 1.406 . S
C459 C464 1.261 . S
C460 H427 0.930 . S
C460 N462 1.325 . S
C460 C463 1.357 . S
C461 H429 0.928 . S
C461 C459 1.406 . S
C461 N462 1.261 . S
N462 Co413 2.214 . S
N462 C460 1.325 . S
N462 C461 1.261 . S
C463 H433 0.931 . S
C463 C460 1.357 . S
C463 C464 1.312 . S
C464 H435 0.930 . S
C464 C459 1.261 . S
C464 C463 1.312 . S
C465 O437 1.214 . S
C465 O445 1.234 . S
C466 H438 0.929 . S
C466 C469 1.391 . S
C466 C471 1.391 . S
C467 H439 0.929 . S
C467 C468 1.390 . S
C467 N470 1.391 . S
C468 H440 0.930 . S
C468 C467 1.390 . S
C468 C469 1.392 . S
C469 H441 0.929 . S
C469 C466 1.391 . S
C469 C468 1.392 . S
N470 Co414 2.277 . S
N470 C467 1.391 . S
N470 C471 1.388 . S
C471 H442 0.930 . S
C471 C466 1.391 . S
C471 N470 1.388 . S
Co472 O474 2.143 . S
Co472 O480 2.074 . S
Co472 O483 2.093 . S
Co472 O496 2.097 1_565 S
Co472 N513 2.151 . S
Co472 N521 2.214 . S
Co473 O474 2.140 1_545 S
Co473 O479 2.046 1_545 S
Co473 O489 2.051 1_545 S
Co473 O504 2.046 . S
Co473 N508 2.165 . S
Co473 N529 2.269 . S
O474 Co472 2.143 . S
O474 Co473 2.140 1_565 S
C475 O476 1.278 1_565 S
C475 O483 1.224 . S
O476 C475 1.278 1_545 S
C477 O478 1.245 . S
C477 O489 1.232 . S
O478 C477 1.245 . S
O479 Co473 2.046 1_565 S
O479 C505 1.269 . S
O480 Co472 2.074 . S
O480 C505 1.257 . S
H481 C506 0.930 . S
H482 C512 0.930 . S
O483 Co472 2.093 . S
O483 C475 1.224 . S
H484 C516 0.929 . S
H485 C518 0.930 . S
H486 C519 0.930 . S
H487 C517 0.929 . S
H488 C520 0.928 . S
O489 Co473 2.051 1_565 S
O489 C477 1.232 . S
H490 C509 0.929 . S
H491 C510 0.929 . S
H492 C522 0.931 . S
H493 C514 0.929 . S
H494 C523 0.930 . S
H495 C515 0.931 . S
O496 Co472 2.097 1_545 S
O496 C524 1.214 . S
H497 C525 0.929 . S
H498 C526 0.929 . S
H499 C527 0.930 . S
H500 C528 0.929 . S
H501 C530 0.930 . S
H502 C507 0.930 . S
H503 C511 0.930 . S
O504 Co473 2.046 . S
O504 C524 1.234 . S
C505 O479 1.269 . S
C505 O480 1.257 . S
C506 H481 0.930 . S
C506 C509 1.388 . S
C506 C511 1.418 . S
C507 H502 0.930 . S
C507 C510 1.404 . S
C507 C511 1.353 . S
N508 Co473 2.165 . S
N508 C509 1.397 . S
N508 C510 1.334 . S
C509 H490 0.929 . S
C509 C506 1.388 . S
C509 N508 1.397 . S
C510 H491 0.929 . S
C510 C507 1.404 . S
C510 N508 1.334 . S
C511 H503 0.930 . S
C511 C506 1.418 . S
C511 C507 1.353 . S
C512 H482 0.930 . S
C512 N513 1.330 . S
C512 C514 1.446 . S
N513 Co472 2.151 . S
N513 C512 1.330 . S
N513 C517 1.418 . S
C514 H493 0.929 . S
C514 C512 1.446 . S
C514 C515 1.332 . S
C515 H495 0.931 . S
C515 C514 1.332 . S
C515 C516 1.267 . S
C516 H484 0.929 . S
C516 C515 1.267 . S
C516 C517 1.251 . S
C517 H487 0.929 . S
C517 N513 1.418 . S
C517 C516 1.251 . S
C518 H485 0.930 . S
C518 C520 1.406 . S
C518 C523 1.261 . S
C519 H486 0.930 . S
C519 N521 1.325 . S
C519 C522 1.357 . S
C520 H488 0.928 . S
C520 C518 1.406 . S
C520 N521 1.261 . S
N521 Co472 2.214 . S
N521 C519 1.325 . S
N521 C520 1.261 . S
C522 H492 0.931 . S
C522 C519 1.357 . S
C522 C523 1.312 . S
C523 H494 0.930 . S
C523 C518 1.261 . S
C523 C522 1.312 . S
C524 O496 1.214 . S
C524 O504 1.234 . S
C525 H497 0.929 . S
C525 C528 1.391 . S
C525 C530 1.391 . S
C526 H498 0.929 . S
C526 C527 1.390 . S
C526 N529 1.391 . S
C527 H499 0.930 . S
C527 C526 1.390 . S
C527 C528 1.392 . S
C528 H500 0.929 . S
C528 C525 1.391 . S
C528 C527 1.392 . S
N529 Co473 2.269 . S
N529 C526 1.391 . S
N529 C530 1.388 . S
C530 H501 0.930 . S
C530 C525 1.391 . S
C530 N529 1.388 . S
Co531 O533 2.143 . S
Co531 O539 2.074 . S
Co531 O542 2.093 . S
Co531 O555 2.097 . S
Co531 N572 2.151 . S
Co531 N580 2.214 . S
Co532 O533 2.160 . S
Co532 O538 2.058 . S
Co532 O548 2.057 . S
Co532 O563 2.037 . S
Co532 N567 2.145 . S
Co532 N588 2.257 . S
O533 Co531 2.143 . S
O533 Co532 2.160 . S
C534 O535 1.278 . S
C534 O542 1.224 . S
O535 C534 1.278 . S
C536 O537 1.245 . S
C536 O548 1.232 . S
O537 C536 1.245 . S
O538 Co532 2.058 . S
O538 C564 1.269 . S
O539 Co531 2.074 . S
O539 C564 1.257 . S
H540 C565 0.930 . S
H541 C571 0.930 . S
O542 Co531 2.093 . S
O542 C534 1.224 . S
H543 C575 0.929 . S
H544 C577 0.930 . S
H545 C578 0.930 . S
H546 C576 0.929 . S
H547 C579 0.928 . S
O548 Co532 2.057 . S
O548 C536 1.232 . S
H549 C568 0.929 . S
H550 C569 0.929 . S
H551 C581 0.931 . S
H552 C573 0.929 . S
H553 C582 0.930 . S
H554 C574 0.931 . S
O555 Co531 2.097 . S
O555 C583 1.214 . S
H556 C584 0.929 . S
H557 C585 0.929 . S
H558 C586 0.930 . S
H559 C587 0.929 . S
H560 C589 0.930 . S
H561 C566 0.930 . S
H562 C570 0.930 . S
O563 Co532 2.037 . S
O563 C583 1.234 . S
C564 O538 1.269 . S
C564 O539 1.257 . S
C565 H540 0.930 . S
C565 C568 1.388 . S
C565 C570 1.418 . S
C566 H561 0.930 . S
C566 C569 1.404 . S
C566 C570 1.353 . S
N567 Co532 2.145 . S
N567 C568 1.397 . S
N567 C569 1.334 . S
C568 H549 0.929 . S
C568 C565 1.388 . S
C568 N567 1.397 . S
C569 H550 0.929 . S
C569 C566 1.404 . S
C569 N567 1.334 . S
C570 H562 0.930 . S
C570 C565 1.418 . S
C570 C566 1.353 . S
C571 H541 0.930 . S
C571 N572 1.330 . S
C571 C573 1.446 . S
N572 Co531 2.151 . S
N572 C571 1.330 . S
N572 C576 1.418 . S
C573 H552 0.929 . S
C573 C571 1.446 . S
C573 C574 1.332 . S
C574 H554 0.931 . S
C574 C573 1.332 . S
C574 C575 1.267 . S
C575 H543 0.929 . S
C575 C574 1.267 . S
C575 C576 1.251 . S
C576 H546 0.929 . S
C576 N572 1.418 . S
C576 C575 1.251 . S
C577 H544 0.930 . S
C577 C579 1.406 . S
C577 C582 1.261 . S
C578 H545 0.930 . S
C578 N580 1.325 . S
C578 C581 1.357 . S
C579 H547 0.928 . S
C579 C577 1.406 . S
C579 N580 1.261 . S
N580 Co531 2.214 . S
N580 C578 1.325 . S
N580 C579 1.261 . S
C581 H551 0.931 . S
C581 C578 1.357 . S
C581 C582 1.312 . S
C582 H553 0.930 . S
C582 C577 1.261 . S
C582 C581 1.312 . S
C583 O555 1.214 . S
C583 O563 1.234 . S
C584 H556 0.929 . S
C584 C587 1.391 . S
C584 C589 1.391 . S
C585 H557 0.929 . S
C585 C586 1.390 . S
C585 N588 1.391 . S
C586 H558 0.930 . S
C586 C585 1.390 . S
C586 C587 1.392 . S
C587 H559 0.929 . S
C587 C584 1.391 . S
C587 C586 1.392 . S
N588 Co532 2.257 . S
N588 C585 1.391 . S
N588 C589 1.388 . S
C589 H560 0.930 . S
C589 C584 1.391 . S
C589 N588 1.388 . S
Co590 O592 2.143 . S
Co590 O598 2.074 . S
Co590 O601 2.093 . S
Co590 O614 2.097 1_455 S
Co590 N631 2.151 . S
Co590 N639 2.214 . S
Co591 O592 2.161 1_655 S
Co591 O597 2.036 1_655 S
Co591 O607 2.053 1_655 S
Co591 O622 2.046 . S
Co591 N626 2.144 . S
Co591 N647 2.279 . S
O592 Co590 2.143 . S
O592 Co591 2.161 1_455 S
C593 O594 1.278 1_455 S
C593 O601 1.224 . S
O594 C593 1.278 1_655 S
C595 O596 1.245 . S
C595 O607 1.232 . S
O596 C595 1.245 . S
O597 Co591 2.036 1_455 S
O597 C623 1.269 . S
O598 Co590 2.074 . S
O598 C623 1.257 . S
H599 C624 0.930 . S
H600 C630 0.930 . S
O601 Co590 2.093 . S
O601 C593 1.224 . S
H602 C634 0.929 . S
H603 C636 0.930 . S
H604 C637 0.930 . S
H605 C635 0.929 . S
H606 C638 0.928 . S
O607 Co591 2.053 1_455 S
O607 C595 1.232 . S
H608 C627 0.929 . S
H609 C628 0.929 . S
H610 C640 0.931 . S
H611 C632 0.929 . S
H612 C641 0.930 . S
H613 C633 0.931 . S
O614 Co590 2.097 1_655 S
O614 C642 1.214 . S
H615 C643 0.929 . S
H616 C644 0.929 . S
H617 C645 0.930 . S
H618 C646 0.929 . S
H619 C648 0.930 . S
H620 C625 0.930 . S
H621 C629 0.930 . S
O622 Co591 2.046 . S
O622 C642 1.234 . S
C623 O597 1.269 . S
C623 O598 1.257 . S
C624 H599 0.930 . S
C624 C627 1.388 . S
C624 C629 1.418 . S
C625 H620 0.930 . S
C625 C628 1.404 . S
C625 C629 1.353 . S
N626 Co591 2.144 . S
N626 C627 1.397 . S
N626 C628 1.334 . S
C627 H608 0.929 . S
C627 C624 1.388 . S
C627 N626 1.397 . S
C628 H609 0.929 . S
C628 C625 1.404 . S
C628 N626 1.334 . S
C629 H621 0.930 . S
C629 C624 1.418 . S
C629 C625 1.353 . S
C630 H600 0.930 . S
C630 N631 1.330 . S
C630 C632 1.446 . S
N631 Co590 2.151 . S
N631 C630 1.330 . S
N631 C635 1.418 . S
C632 H611 0.929 . S
C632 C630 1.446 . S
C632 C633 1.332 . S
C633 H613 0.931 . S
C633 C632 1.332 . S
C633 C634 1.267 . S
C634 H602 0.929 . S
C634 C633 1.267 . S
C634 C635 1.251 . S
C635 H605 0.929 . S
C635 N631 1.418 . S
C635 C634 1.251 . S
C636 H603 0.930 . S
C636 C638 1.406 . S
C636 C641 1.261 . S
C637 H604 0.930 . S
C637 N639 1.325 . S
C637 C640 1.357 . S
C638 H606 0.928 . S
C638 C636 1.406 . S
C638 N639 1.261 . S
N639 Co590 2.214 . S
N639 C637 1.325 . S
N639 C638 1.261 . S
C640 H610 0.931 . S
C640 C637 1.357 . S
C640 C641 1.312 . S
C641 H612 0.930 . S
C641 C636 1.261 . S
C641 C640 1.312 . S
C642 O614 1.214 . S
C642 O622 1.234 . S
C643 H615 0.929 . S
C643 C646 1.391 . S
C643 C648 1.391 . S
C644 H616 0.929 . S
C644 C645 1.390 . S
C644 N647 1.391 . S
C645 H617 0.930 . S
C645 C644 1.390 . S
C645 C646 1.392 . S
C646 H618 0.929 . S
C646 C643 1.391 . S
C646 C645 1.392 . S
N647 Co591 2.279 . S
N647 C644 1.391 . S
N647 C648 1.388 . S
C648 H619 0.930 . S
C648 C643 1.391 . S
C648 N647 1.388 . S
Co649 O651 2.143 . S
Co649 O657 2.074 . S
Co649 O660 2.093 . S
Co649 O673 2.097 1_545 S
Co649 N690 2.151 . S
Co649 N698 2.214 . S
Co650 O651 2.141 1_565 S
Co650 O656 2.047 1_565 S
Co650 O666 2.051 1_565 S
Co650 O681 2.046 . S
Co650 N685 2.164 . S
Co650 N706 2.268 . S
O651 Co649 2.143 . S
O651 Co650 2.141 1_545 S
C652 O653 1.278 1_545 S
C652 O660 1.224 . S
O653 C652 1.278 1_565 S
C654 O655 1.245 . S
C654 O666 1.232 . S
O655 C654 1.245 . S
O656 Co650 2.047 1_545 S
O656 C682 1.269 . S
O657 Co649 2.074 . S
O657 C682 1.257 . S
H658 C683 0.930 . S
H659 C689 0.930 . S
O660 Co649 2.093 . S
O660 C652 1.224 . S
H661 C693 0.929 . S
H662 C695 0.930 . S
H663 C696 0.930 . S
H664 C694 0.929 . S
H665 C697 0.928 . S
O666 Co650 2.051 1_545 S
O666 C654 1.232 . S
H667 C686 0.929 . S
H668 C687 0.929 . S
H669 C699 0.931 . S
H670 C691 0.929 . S
H671 C700 0.930 . S
H672 C692 0.931 . S
O673 Co649 2.097 1_565 S
O673 C701 1.214 . S
H674 C702 0.929 . S
H675 C703 0.929 . S
H676 C704 0.930 . S
H677 C705 0.929 . S
H678 C707 0.930 . S
H679 C684 0.930 . S
H680 C688 0.930 . S
O681 Co650 2.046 . S
O681 C701 1.234 . S
C682 O656 1.269 . S
C682 O657 1.257 . S
C683 H658 0.930 . S
C683 C686 1.388 . S
C683 C688 1.418 . S
C684 H679 0.930 . S
C684 C687 1.404 . S
C684 C688 1.353 . S
N685 Co650 2.164 . S
N685 C686 1.397 . S
N685 C687 1.334 . S
C686 H667 0.929 . S
C686 C683 1.388 . S
C686 N685 1.397 . S
C687 H668 0.929 . S
C687 C684 1.404 . S
C687 N685 1.334 . S
C688 H680 0.930 . S
C688 C683 1.418 . S
C688 C684 1.353 . S
C689 H659 0.930 . S
C689 N690 1.330 . S
C689 C691 1.446 . S
N690 Co649 2.151 . S
N690 C689 1.330 . S
N690 C694 1.418 . S
C691 H670 0.929 . S
C691 C689 1.446 . S
C691 C692 1.332 . S
C692 H672 0.931 . S
C692 C691 1.332 . S
C692 C693 1.267 . S
C693 H661 0.929 . S
C693 C692 1.267 . S
C693 C694 1.251 . S
C694 H664 0.929 . S
C694 N690 1.418 . S
C694 C693 1.251 . S
C695 H662 0.930 . S
C695 C697 1.406 . S
C695 C700 1.261 . S
C696 H663 0.930 . S
C696 N698 1.325 . S
C696 C699 1.357 . S
C697 H665 0.928 . S
C697 C695 1.406 . S
C697 N698 1.261 . S
N698 Co649 2.214 . S
N698 C696 1.325 . S
N698 C697 1.261 . S
C699 H669 0.931 . S
C699 C696 1.357 . S
C699 C700 1.312 . S
C700 H671 0.930 . S
C700 C695 1.261 . S
C700 C699 1.312 . S
C701 O673 1.214 . S
C701 O681 1.234 . S
C702 H674 0.929 . S
C702 C705 1.391 . S
C702 C707 1.391 . S
C703 H675 0.929 . S
C703 C704 1.390 . S
C703 N706 1.391 . S
C704 H676 0.930 . S
C704 C703 1.390 . S
C704 C705 1.392 . S
C705 H677 0.929 . S
C705 C702 1.391 . S
C705 C704 1.392 . S
N706 Co650 2.268 . S
N706 C703 1.391 . S
N706 C707 1.388 . S
C707 H678 0.930 . S
C707 C702 1.391 . S
C707 N706 1.388 . S
H708 C716 0.950 . S
H709 C721 0.950 . S
H710 C718 0.950 1_455 S
H711 C720 0.950 . S
H712 C722 0.950 . S
H713 C724 0.950 1_655 S
H714 C726 0.950 . S
H715 C727 0.950 . S
C716 H708 0.950 . S
C716 C717 1.386 . S
C716 C718 1.391 . S
C717 C716 1.386 . S
C717 C721 1.393 . S
C718 H710 0.950 1_655 S
C718 C716 1.391 . S
C718 C719 1.400 . S
C719 C718 1.400 . S
C719 C720 1.398 . S
C719 C725 1.491 1_655 S
C720 H711 0.950 . S
C720 C719 1.398 . S
C720 C721 1.391 . S
C721 H709 0.950 . S
C721 C717 1.393 . S
C721 C720 1.391 . S
C722 H712 0.950 . S
C722 C723 1.386 . S
C722 C724 1.391 . S
C723 C722 1.386 . S
C723 C727 1.393 . S
C724 H713 0.950 1_455 S
C724 C722 1.391 . S
C724 C725 1.400 . S
C725 C719 1.491 1_455 S
C725 C724 1.400 . S
C725 C726 1.398 . S
C726 H714 0.950 . S
C726 C725 1.398 . S
C726 C727 1.391 . S
C727 H715 0.950 . S
C727 C723 1.393 . S
C727 C726 1.391 . S
H728 C736 0.950 . S
H729 C741 0.950 . S
H730 C738 0.950 . S
H731 C740 0.950 . S
H732 C742 0.950 . S
H733 C744 0.950 . S
H734 C746 0.950 . S
H735 C747 0.950 . S
C736 H728 0.950 . S
C736 C737 1.386 . S
C736 C738 1.391 . S
C737 C736 1.386 . S
C737 C741 1.393 . S
C738 H730 0.950 . S
C738 C736 1.391 . S
C738 C739 1.400 . S
C739 C738 1.400 . S
C739 C740 1.398 . S
C739 C745 1.491 1_545 S
C740 H731 0.950 . S
C740 C739 1.398 . S
C740 C741 1.391 . S
C741 H729 0.950 . S
C741 C737 1.393 . S
C741 C740 1.391 . S
C742 H732 0.950 . S
C742 C743 1.386 . S
C742 C744 1.391 . S
C743 C742 1.386 . S
C743 C747 1.393 . S
C744 H733 0.950 . S
C744 C742 1.391 . S
C744 C745 1.400 . S
C745 C739 1.491 1_565 S
C745 C744 1.400 . S
C745 C746 1.398 . S
C746 H734 0.950 . S
C746 C745 1.398 . S
C746 C747 1.391 . S
C747 H735 0.950 . S
C747 C743 1.393 . S
C747 C746 1.391 . S
H748 C756 0.950 . S
H749 C761 0.950 . S
H750 C758 0.950 . S
H751 C760 0.950 . S
H752 C762 0.950 . S
H753 C764 0.950 . S
H754 C766 0.950 . S
H755 C767 0.950 . S
C756 H748 0.950 . S
C756 C757 1.386 . S
C756 C758 1.391 . S
C757 C756 1.386 . S
C757 C761 1.393 . S
C758 H750 0.950 . S
C758 C756 1.391 . S
C758 C759 1.400 . S
C759 C758 1.400 . S
C759 C760 1.398 . S
C759 C765 1.491 . S
C760 H751 0.950 . S
C760 C759 1.398 . S
C760 C761 1.391 . S
C761 H749 0.950 . S
C761 C757 1.393 . S
C761 C760 1.391 . S
C762 H752 0.950 . S
C762 C763 1.386 . S
C762 C764 1.391 . S
C763 C762 1.386 . S
C763 C767 1.393 . S
C764 H753 0.950 . S
C764 C762 1.391 . S
C764 C765 1.400 . S
C765 C759 1.491 . S
C765 C764 1.400 . S
C765 C766 1.398 . S
C766 H754 0.950 . S
C766 C765 1.398 . S
C766 C767 1.391 . S
C767 H755 0.950 . S
C767 C763 1.393 . S
C767 C766 1.391 . S
H768 C776 0.950 . S
H769 C781 0.950 . S
H770 C778 0.950 1_455 S
H771 C780 0.950 . S
H772 C782 0.950 . S
H773 C784 0.950 1_655 S
H774 C786 0.950 . S
H775 C787 0.950 . S
C776 H768 0.950 . S
C776 C777 1.386 . S
C776 C778 1.391 . S
C777 C776 1.386 . S
C777 C781 1.393 . S
C778 H770 0.950 1_655 S
C778 C776 1.391 . S
C778 C779 1.400 . S
C779 C778 1.400 . S
C779 C780 1.398 . S
C779 C785 1.491 1_655 S
C780 H771 0.950 . S
C780 C779 1.398 . S
C780 C781 1.391 . S
C781 H769 0.950 . S
C781 C777 1.393 . S
C781 C780 1.391 . S
C782 H772 0.950 . S
C782 C783 1.386 . S
C782 C784 1.391 . S
C783 C782 1.386 . S
C783 C787 1.393 . S
C784 H773 0.950 1_455 S
C784 C782 1.391 . S
C784 C785 1.400 . S
C785 C779 1.491 1_455 S
C785 C784 1.400 . S
C785 C786 1.398 . S
C786 H774 0.950 . S
C786 C785 1.398 . S
C786 C787 1.391 . S
C787 H775 0.950 . S
C787 C783 1.393 . S
C787 C786 1.391 . S
H788 C796 0.950 . S
H789 C801 0.950 . S
H790 C798 0.950 . S
H791 C800 0.950 . S
H792 C802 0.950 . S
H793 C804 0.950 . S
H794 C806 0.950 . S
H795 C807 0.950 . S
C796 H788 0.950 . S
C796 C797 1.386 . S
C796 C798 1.391 . S
C797 C796 1.386 . S
C797 C801 1.393 . S
C798 H790 0.950 . S
C798 C796 1.391 . S
C798 C799 1.400 . S
C799 C798 1.400 . S
C799 C800 1.398 . S
C799 C805 1.491 1_545 S
C800 H791 0.950 . S
C800 C799 1.398 . S
C800 C801 1.391 . S
C801 H789 0.950 . S
C801 C797 1.393 . S
C801 C800 1.391 . S
C802 H792 0.950 . S
C802 C803 1.386 . S
C802 C804 1.391 . S
C803 C802 1.386 . S
C803 C807 1.393 . S
C804 H793 0.950 . S
C804 C802 1.391 . S
C804 C805 1.400 . S
C805 C799 1.491 1_565 S
C805 C804 1.400 . S
C805 C806 1.398 . S
C806 H794 0.950 . S
C806 C805 1.398 . S
C806 C807 1.391 . S
C807 H795 0.950 . S
C807 C803 1.393 . S
C807 C806 1.391 . S
H808 C816 0.950 . S
H809 C821 0.950 . S
H810 C818 0.950 . S
H811 C820 0.950 . S
H812 C822 0.950 . S
H813 C824 0.950 . S
H814 C826 0.950 . S
H815 C827 0.950 . S
C816 H808 0.950 . S
C816 C817 1.386 . S
C816 C818 1.391 . S
C817 C816 1.386 . S
C817 C821 1.393 . S
C818 H810 0.950 . S
C818 C816 1.391 . S
C818 C819 1.400 . S
C819 C818 1.400 . S
C819 C820 1.398 . S
C819 C825 1.491 . S
C820 H811 0.950 . S
C820 C819 1.398 . S
C820 C821 1.391 . S
C821 H809 0.950 . S
C821 C817 1.393 . S
C821 C820 1.391 . S
C822 H812 0.950 . S
C822 C823 1.386 . S
C822 C824 1.391 . S
C823 C822 1.386 . S
C823 C827 1.393 . S
C824 H813 0.950 . S
C824 C822 1.391 . S
C824 C825 1.400 . S
C825 C819 1.491 . S
C825 C824 1.400 . S
C825 C826 1.398 . S
C826 H814 0.950 . S
C826 C825 1.398 . S
C826 C827 1.391 . S
C827 H815 0.950 . S
C827 C823 1.393 . S
C827 C826 1.391 . S
H828 C836 0.950 . S
H829 C841 0.950 . S
H830 C838 0.950 . S
H831 C840 0.950 . S
H832 C842 0.950 . S
H833 C844 0.950 . S
H834 C846 0.950 . S
H835 C847 0.950 . S
C836 H828 0.950 . S
C836 C837 1.386 . S
C836 C838 1.391 . S
C837 C836 1.386 . S
C837 C841 1.393 . S
C838 H830 0.950 . S
C838 C836 1.391 . S
C838 C839 1.400 . S
C839 C838 1.400 . S
C839 C840 1.398 . S
C839 C845 1.491 . S
C840 H831 0.950 . S
C840 C839 1.398 . S
C840 C841 1.391 . S
C841 H829 0.950 . S
C841 C837 1.393 . S
C841 C840 1.391 . S
C842 H832 0.950 . S
C842 C843 1.386 . S
C842 C844 1.391 . S
C843 C842 1.386 . S
C843 C847 1.393 . S
C844 H833 0.950 . S
C844 C842 1.391 . S
C844 C845 1.400 . S
C845 C839 1.491 . S
C845 C844 1.400 . S
C845 C846 1.398 . S
C846 H834 0.950 . S
C846 C845 1.398 . S
C846 C847 1.391 . S
C847 H835 0.950 . S
C847 C843 1.393 . S
C847 C846 1.391 . S
H848 C856 0.950 . S
H849 C861 0.950 . S
H850 C858 0.950 . S
H851 C860 0.950 . S
H852 C862 0.950 . S
H853 C864 0.950 . S
H854 C866 0.950 . S
H855 C867 0.950 . S
C856 H848 0.950 . S
C856 C857 1.386 . S
C856 C858 1.391 . S
C857 C856 1.386 . S
C857 C861 1.393 1_455 S
C858 H850 0.950 . S
C858 C856 1.391 . S
C858 C859 1.400 . S
C859 C858 1.400 . S
C859 C860 1.398 1_455 S
C859 C865 1.491 1_455 S
C860 H851 0.950 . S
C860 C859 1.398 1_655 S
C860 C861 1.391 . S
C861 H849 0.950 . S
C861 C857 1.393 1_655 S
C861 C860 1.391 . S
C862 H852 0.950 . S
C862 C863 1.386 . S
C862 C864 1.391 . S
C863 C862 1.386 . S
C863 C867 1.393 1_655 S
C864 H853 0.950 . S
C864 C862 1.391 . S
C864 C865 1.400 . S
C865 C859 1.491 1_655 S
C865 C864 1.400 . S
C865 C866 1.398 1_655 S
C866 H854 0.950 . S
C866 C865 1.398 1_455 S
C866 C867 1.391 . S
C867 H855 0.950 . S
C867 C863 1.393 1_455 S
C867 C866 1.391 . S
H868 C876 0.950 . S
H869 C881 0.950 . S
H870 C878 0.950 . S
H871 C880 0.950 . S
H872 C882 0.950 . S
H873 C884 0.950 . S
H874 C886 0.950 . S
H875 C887 0.950 . S
C876 H868 0.950 . S
C876 C877 1.386 . S
C876 C878 1.391 . S
C877 C876 1.386 . S
C877 C881 1.393 1_545 S
C878 H870 0.950 . S
C878 C876 1.391 . S
C878 C879 1.400 . S
C879 C878 1.400 . S
C879 C880 1.398 1_545 S
C879 C885 1.491 1_545 S
C880 H871 0.950 . S
C880 C879 1.398 1_565 S
C880 C881 1.391 . S
C881 H869 0.950 . S
C881 C877 1.393 1_565 S
C881 C880 1.391 . S
C882 H872 0.950 . S
C882 C883 1.386 . S
C882 C884 1.391 . S
C883 C882 1.386 . S
C883 C887 1.393 1_565 S
C884 H873 0.950 . S
C884 C882 1.391 . S
C884 C885 1.400 . S
C885 C879 1.491 1_565 S
C885 C884 1.400 . S
C885 C886 1.398 1_565 S
C886 H874 0.950 . S
C886 C885 1.398 1_545 S
C886 C887 1.391 . S
C887 H875 0.950 . S
C887 C883 1.393 1_545 S
C887 C886 1.391 . S
H888 C896 0.950 . S
H889 C901 0.950 . S
H890 C898 0.950 . S
H891 C900 0.950 . S
H892 C902 0.950 . S
H893 C904 0.950 . S
H894 C906 0.950 . S
H895 C907 0.950 . S
C896 H888 0.950 . S
C896 C897 1.386 . S
C896 C898 1.391 . S
C897 C896 1.386 . S
C897 C901 1.393 . S
C898 H890 0.950 . S
C898 C896 1.391 . S
C898 C899 1.400 . S
C899 C898 1.400 . S
C899 C900 1.398 . S
C899 C905 1.491 . S
C900 H891 0.950 . S
C900 C899 1.398 . S
C900 C901 1.391 . S
C901 H889 0.950 . S
C901 C897 1.393 . S
C901 C900 1.391 . S
C902 H892 0.950 . S
C902 C903 1.386 . S
C902 C904 1.391 . S
C903 C902 1.386 . S
C903 C907 1.393 . S
C904 H893 0.950 . S
C904 C902 1.391 . S
C904 C905 1.400 . S
C905 C899 1.491 . S
C905 C904 1.400 . S
C905 C906 1.398 . S
C906 H894 0.950 . S
C906 C905 1.398 . S
C906 C907 1.391 . S
C907 H895 0.950 . S
C907 C903 1.393 . S
C907 C906 1.391 . S
H908 C916 0.950 . S
H909 C921 0.950 . S
H910 C918 0.950 . S
H911 C920 0.950 . S
H912 C922 0.950 . S
H913 C924 0.950 . S
H914 C926 0.950 . S
H915 C927 0.950 . S
C916 H908 0.950 . S
C916 C917 1.386 . S
C916 C918 1.391 . S
C917 C916 1.386 . S
C917 C921 1.393 1_655 S
C918 H910 0.950 . S
C918 C916 1.391 . S
C918 C919 1.400 . S
C919 C918 1.400 . S
C919 C920 1.398 1_655 S
C919 C925 1.491 1_655 S
C920 H911 0.950 . S
C920 C919 1.398 1_455 S
C920 C921 1.391 . S
C921 H909 0.950 . S
C921 C917 1.393 1_455 S
C921 C920 1.391 . S
C922 H912 0.950 . S
C922 C923 1.386 . S
C922 C924 1.391 . S
C923 C922 1.386 . S
C923 C927 1.393 1_455 S
C924 H913 0.950 . S
C924 C922 1.391 . S
C924 C925 1.400 . S
C925 C919 1.491 1_455 S
C925 C924 1.400 . S
C925 C926 1.398 1_455 S
C926 H914 0.950 . S
C926 C925 1.398 1_655 S
C926 C927 1.391 . S
C927 H915 0.950 . S
C927 C923 1.393 1_655 S
C927 C926 1.391 . S
H928 C936 0.950 . S
H929 C941 0.950 . S
H930 C938 0.950 . S
H931 C940 0.950 . S
H932 C942 0.950 . S
H933 C944 0.950 . S
H934 C946 0.950 . S
H935 C947 0.950 . S
C936 H928 0.950 . S
C936 C937 1.386 1_545 S
C936 C938 1.391 . S
C937 C936 1.386 1_565 S
C937 C941 1.393 . S
C938 H930 0.950 . S
C938 C936 1.391 . S
C938 C939 1.400 1_545 S
C939 C938 1.400 1_565 S
C939 C940 1.398 . S
C939 C945 1.491 1_565 S
C940 H931 0.950 . S
C940 C939 1.398 . S
C940 C941 1.391 . S
C941 H929 0.950 . S
C941 C937 1.393 . S
C941 C940 1.391 . S
C942 H932 0.950 . S
C942 C943 1.386 1_565 S
C942 C944 1.391 . S
C943 C942 1.386 1_545 S
C943 C947 1.393 . S
C944 H933 0.950 . S
C944 C942 1.391 . S
C944 C945 1.400 1_565 S
C945 C939 1.491 1_545 S
C945 C944 1.400 1_545 S
C945 C946 1.398 . S
C946 H934 0.950 . S
C946 C945 1.398 . S
C946 C947 1.391 . S
C947 H935 0.950 . S
C947 C943 1.393 . S
C947 C946 1.391 . S
H948 C956 0.950 . S
H949 C961 0.950 . S
H950 C958 0.950 . S
H951 C960 0.950 . S
H952 C962 0.950 . S
H953 C964 0.950 . S
H954 C966 0.950 . S
H955 C967 0.950 . S
C956 H948 0.950 . S
C956 C957 1.386 . S
C956 C958 1.391 . S
C957 C956 1.386 . S
C957 C961 1.393 . S
C958 H950 0.950 . S
C958 C956 1.391 . S
C958 C959 1.400 . S
C959 C958 1.400 . S
C959 C960 1.398 . S
C959 C965 1.491 . S
C960 H951 0.950 . S
C960 C959 1.398 . S
C960 C961 1.391 . S
C961 H949 0.950 . S
C961 C957 1.393 . S
C961 C960 1.391 . S
C962 H952 0.950 . S
C962 C963 1.386 . S
C962 C964 1.391 . S
C963 C962 1.386 . S
C963 C967 1.393 . S
C964 H953 0.950 . S
C964 C962 1.391 . S
C964 C965 1.400 . S
C965 C959 1.491 . S
C965 C964 1.400 . S
C965 C966 1.398 . S
C966 H954 0.950 . S
C966 C965 1.398 . S
C966 C967 1.391 . S
C967 H955 0.950 . S
C967 C963 1.393 . S
C967 C966 1.391 . S
H968 C976 0.950 . S
H969 C981 0.950 . S
H970 C978 0.950 . S
H971 C980 0.950 . S
H972 C982 0.950 . S
H973 C984 0.950 . S
H974 C986 0.950 . S
H975 C987 0.950 . S
C976 H968 0.950 . S
C976 C977 1.386 . S
C976 C978 1.391 . S
C977 C976 1.386 . S
C977 C981 1.393 . S
C978 H970 0.950 . S
C978 C976 1.391 . S
C978 C979 1.400 . S
C979 C978 1.400 . S
C979 C980 1.398 . S
C979 C985 1.491 . S
C980 H971 0.950 . S
C980 C979 1.398 . S
C980 C981 1.391 . S
C981 H969 0.950 . S
C981 C977 1.393 . S
C981 C980 1.391 . S
C982 H972 0.950 . S
C982 C983 1.386 . S
C982 C984 1.391 . S
C983 C982 1.386 . S
C983 C987 1.393 . S
C984 H973 0.950 . S
C984 C982 1.391 . S
C984 C985 1.400 . S
C985 C979 1.491 . S
C985 C984 1.400 . S
C985 C986 1.398 . S
C986 H974 0.950 . S
C986 C985 1.398 . S
C986 C987 1.391 . S
C987 H975 0.950 . S
C987 C983 1.393 . S
C987 C986 1.391 . S
H988 C996 0.950 . S
H989 C1001 0.950 . S
H990 C998 0.950 . S
H991 C1000 0.950 . S
H992 C1002 0.950 . S
H993 C1004 0.950 . S
H994 C1006 0.950 . S
H995 C1007 0.950 . S
C996 H988 0.950 . S
C996 C997 1.386 . S
C996 C998 1.391 . S
C997 C996 1.386 . S
C997 C1001 1.393 . S
C998 H990 0.950 . S
C998 C996 1.391 . S
C998 C999 1.400 . S
C999 C998 1.400 . S
C999 C1000 1.398 . S
C999 C1005 1.491 . S
C1000 H991 0.950 . S
C1000 C999 1.398 . S
C1000 C1001 1.391 . S
C1001 H989 0.950 . S
C1001 C997 1.393 . S
C1001 C1000 1.391 . S
C1002 H992 0.950 . S
C1002 C1003 1.386 . S
C1002 C1004 1.391 . S
C1003 C1002 1.386 . S
C1003 C1007 1.393 . S
C1004 H993 0.950 . S
C1004 C1002 1.391 . S
C1004 C1005 1.400 . S
C1005 C999 1.491 . S
C1005 C1004 1.400 . S
C1005 C1006 1.398 . S
C1006 H994 0.950 . S
C1006 C1005 1.398 . S
C1006 C1007 1.391 . S
C1007 H995 0.950 . S
C1007 C1003 1.393 . S
C1007 C1006 1.391 . S
H1008 C1016 0.950 . S
H1009 C1021 0.950 1_545 S
H1010 C1018 0.950 . S
H1011 C1020 0.950 . S
H1012 C1022 0.950 . S
H1013 C1024 0.950 . S
H1014 C1026 0.950 . S
H1015 C1027 0.950 . S
C1016 H1008 0.950 . S
C1016 C1017 1.386 . S
C1016 C1018 1.391 . S
C1017 C1016 1.386 . S
C1017 C1021 1.393 . S
C1018 H1010 0.950 . S
C1018 C1016 1.391 . S
C1018 C1019 1.400 . S
C1019 C1018 1.400 . S
C1019 C1020 1.398 . S
C1019 C1025 1.491 . S
C1020 H1011 0.950 . S
C1020 C1019 1.398 . S
C1020 C1021 1.391 . S
C1021 H1009 0.950 1_565 S
C1021 C1017 1.393 . S
C1021 C1020 1.391 . S
C1022 H1012 0.950 . S
C1022 C1023 1.386 . S
C1022 C1024 1.391 . S
C1023 C1022 1.386 . S
C1023 C1027 1.393 . S
C1024 H1013 0.950 . S
C1024 C1022 1.391 . S
C1024 C1025 1.400 . S
C1025 C1019 1.491 . S
C1025 C1024 1.400 . S
C1025 C1026 1.398 . S
C1026 H1014 0.950 . S
C1026 C1025 1.398 . S
C1026 C1027 1.391 . S
C1027 H1015 0.950 . S
C1027 C1023 1.393 . S
C1027 C1026 1.391 . S
H1028 C1036 0.950 . S
H1029 C1041 0.950 . S
H1030 C1038 0.950 . S
H1031 C1040 0.950 . S
H1032 C1042 0.950 1_455 S
H1033 C1044 0.950 . S
H1034 C1046 0.950 . S
H1035 C1047 0.950 . S
C1036 H1028 0.950 . S
C1036 C1037 1.386 . S
C1036 C1038 1.391 . S
C1037 C1036 1.386 . S
C1037 C1041 1.393 . S
C1038 H1030 0.950 . S
C1038 C1036 1.391 . S
C1038 C1039 1.400 . S
C1039 C1038 1.400 . S
C1039 C1040 1.398 . S
C1039 C1045 1.491 . S
C1040 H1031 0.950 . S
C1040 C1039 1.398 . S
C1040 C1041 1.391 . S
C1041 H1029 0.950 . S
C1041 C1037 1.393 . S
C1041 C1040 1.391 . S
C1042 H1032 0.950 1_655 S
C1042 C1043 1.386 . S
C1042 C1044 1.391 . S
C1043 C1042 1.386 . S
C1043 C1047 1.393 . S
C1044 H1033 0.950 . S
C1044 C1042 1.391 . S
C1044 C1045 1.400 . S
C1045 C1039 1.491 . S
C1045 C1044 1.400 . S
C1045 C1046 1.398 . S
C1046 H1034 0.950 . S
C1046 C1045 1.398 . S
C1046 C1047 1.391 . S
C1047 H1035 0.950 . S
C1047 C1043 1.393 . S
C1047 C1046 1.391 . S
H1048 C1056 0.950 . S
H1049 C1061 0.950 . S
H1050 C1058 0.950 . S
H1051 C1060 0.950 . S
H1052 C1062 0.950 1_655 S
H1053 C1064 0.950 . S
H1054 C1066 0.950 . S
H1055 C1067 0.950 . S
C1056 H1048 0.950 . S
C1056 C1057 1.386 . S
C1056 C1058 1.391 . S
C1057 C1056 1.386 . S
C1057 C1061 1.393 . S
C1058 H1050 0.950 . S
C1058 C1056 1.391 . S
C1058 C1059 1.400 . S
C1059 C1058 1.400 . S
C1059 C1060 1.398 . S
C1059 C1065 1.491 . S
C1060 H1051 0.950 . S
C1060 C1059 1.398 . S
C1060 C1061 1.391 . S
C1061 H1049 0.950 . S
C1061 C1057 1.393 . S
C1061 C1060 1.391 . S
C1062 H1052 0.950 1_455 S
C1062 C1063 1.386 . S
C1062 C1064 1.391 . S
C1063 C1062 1.386 . S
C1063 C1067 1.393 . S
C1064 H1053 0.950 . S
C1064 C1062 1.391 . S
C1064 C1065 1.400 . S
C1065 C1059 1.491 . S
C1065 C1064 1.400 . S
C1065 C1066 1.398 . S
C1066 H1054 0.950 . S
C1066 C1065 1.398 . S
C1066 C1067 1.391 . S
C1067 H1055 0.950 . S
C1067 C1063 1.393 . S
C1067 C1066 1.391 . S
H1068 C1076 0.950 . S
H1069 C1081 0.950 . S
H1070 C1078 0.950 . S
H1071 C1080 0.950 . S
H1072 C1082 0.950 . S
H1073 C1084 0.950 . S
H1074 C1086 0.950 . S
H1075 C1087 0.950 . S
C1076 H1068 0.950 . S
C1076 C1077 1.386 . S
C1076 C1078 1.391 . S
C1077 C1076 1.386 . S
C1077 C1081 1.393 . S
C1078 H1070 0.950 . S
C1078 C1076 1.391 . S
C1078 C1079 1.400 . S
C1079 C1078 1.400 . S
C1079 C1080 1.398 . S
C1079 C1085 1.491 . S
C1080 H1071 0.950 . S
C1080 C1079 1.398 . S
C1080 C1081 1.391 . S
C1081 H1069 0.950 . S
C1081 C1077 1.393 . S
C1081 C1080 1.391 . S
C1082 H1072 0.950 . S
C1082 C1083 1.386 . S
C1082 C1084 1.391 . S
C1083 C1082 1.386 . S
C1083 C1087 1.393 . S
C1084 H1073 0.950 . S
C1084 C1082 1.391 . S
C1084 C1085 1.400 . S
C1085 C1079 1.491 . S
C1085 C1084 1.400 . S
C1085 C1086 1.398 . S
C1086 H1074 0.950 . S
C1086 C1085 1.398 . S
C1086 C1087 1.391 . S
C1087 H1075 0.950 . S
C1087 C1083 1.393 . S
C1087 C1086 1.391 . S
H1088 C1096 0.950 . S
H1089 C1101 0.950 . S
H1090 C1098 0.950 . S
H1091 C1100 0.950 . S
H1092 C1102 0.950 . S
H1093 C1104 0.950 . S
H1094 C1106 0.950 . S
H1095 C1107 0.950 . S
C1096 H1088 0.950 . S
C1096 C1097 1.386 . S
C1096 C1098 1.391 1_655 S
C1097 C1096 1.386 . S
C1097 C1101 1.393 . S
C1098 H1090 0.950 . S
C1098 C1096 1.391 1_455 S
C1098 C1099 1.400 1_455 S
C1099 C1098 1.400 1_655 S
C1099 C1100 1.398 . S
C1099 C1105 1.491 1_655 S
C1100 H1091 0.950 . S
C1100 C1099 1.398 . S
C1100 C1101 1.391 . S
C1101 H1089 0.950 . S
C1101 C1097 1.393 . S
C1101 C1100 1.391 . S
C1102 H1092 0.950 . S
C1102 C1103 1.386 . S
C1102 C1104 1.391 1_455 S
C1103 C1102 1.386 . S
C1103 C1107 1.393 . S
C1104 H1093 0.950 . S
C1104 C1102 1.391 1_655 S
C1104 C1105 1.400 1_655 S
C1105 C1099 1.491 1_455 S
C1105 C1104 1.400 1_455 S
C1105 C1106 1.398 . S
C1106 H1094 0.950 . S
C1106 C1105 1.398 . S
C1106 C1107 1.391 . S
C1107 H1095 0.950 . S
C1107 C1103 1.393 . S
C1107 C1106 1.391 . S
H1108 C1116 0.950 . S
H1109 C1121 0.950 . S
H1110 C1118 0.950 . S
H1111 C1120 0.950 . S
H1112 C1122 0.950 . S
H1113 C1124 0.950 . S
H1114 C1126 0.950 . S
H1115 C1127 0.950 . S
C1116 H1108 0.950 . S
C1116 C1117 1.386 1_565 S
C1116 C1118 1.391 . S
C1117 C1116 1.386 1_545 S
C1117 C1121 1.393 . S
C1118 H1110 0.950 . S
C1118 C1116 1.391 . S
C1118 C1119 1.400 1_565 S
C1119 C1118 1.400 1_545 S
C1119 C1120 1.398 . S
C1119 C1125 1.491 1_544 S
C1120 H1111 0.950 . S
C1120 C1119 1.398 . S
C1120 C1121 1.391 . S
C1121 H1109 0.950 . S
C1121 C1117 1.393 . S
C1121 C1120 1.391 . S
C1122 H1112 0.950 . S
C1122 C1123 1.386 1_545 S
C1122 C1124 1.391 . S
C1123 C1122 1.386 1_565 S
C1123 C1127 1.393 . S
C1124 H1113 0.950 . S
C1124 C1122 1.391 . S
C1124 C1125 1.400 1_545 S
C1125 C1119 1.491 1_566 S
C1125 C1124 1.400 1_565 S
C1125 C1126 1.398 . S
C1126 H1114 0.950 . S
C1126 C1125 1.398 . S
C1126 C1127 1.391 . S
C1127 H1115 0.950 . S
C1127 C1123 1.393 . S
C1127 C1126 1.391 . S
H1128 C1136 0.950 . S
H1129 C1141 0.950 . S
H1130 C1138 0.950 . S
H1131 C1140 0.950 . S
H1132 C1142 0.950 . S
H1133 C1144 0.950 . S
H1134 C1146 0.950 . S
H1135 C1147 0.950 . S
C1136 H1128 0.950 . S
C1136 C1137 1.386 . S
C1136 C1138 1.391 . S
C1137 C1136 1.386 . S
C1137 C1141 1.393 . S
C1138 H1130 0.950 . S
C1138 C1136 1.391 . S
C1138 C1139 1.400 . S
C1139 C1138 1.400 . S
C1139 C1140 1.398 . S
C1139 C1145 1.491 . S
C1140 H1131 0.950 . S
C1140 C1139 1.398 . S
C1140 C1141 1.391 . S
C1141 H1129 0.950 . S
C1141 C1137 1.393 . S
C1141 C1140 1.391 . S
C1142 H1132 0.950 . S
C1142 C1143 1.386 . S
C1142 C1144 1.391 . S
C1143 C1142 1.386 . S
C1143 C1147 1.393 . S
C1144 H1133 0.950 . S
C1144 C1142 1.391 . S
C1144 C1145 1.400 . S
C1145 C1139 1.491 . S
C1145 C1144 1.400 . S
C1145 C1146 1.398 . S
C1146 H1134 0.950 . S
C1146 C1145 1.398 . S
C1146 C1147 1.391 . S
C1147 H1135 0.950 . S
C1147 C1143 1.393 . S
C1147 C1146 1.391 . S
H1148 C1156 0.950 . S
H1149 C1161 0.950 . S
H1150 C1158 0.950 . S
H1151 C1160 0.950 . S
H1152 C1162 0.950 . S
H1153 C1164 0.950 . S
H1154 C1166 0.950 . S
H1155 C1167 0.950 . S
C1156 H1148 0.950 . S
C1156 C1157 1.386 1_655 S
C1156 C1158 1.391 . S
C1157 C1156 1.386 1_455 S
C1157 C1161 1.393 . S
C1158 H1150 0.950 . S
C1158 C1156 1.391 . S
C1158 C1159 1.400 1_655 S
C1159 C1158 1.400 1_455 S
C1159 C1160 1.398 . S
C1159 C1165 1.491 1_455 S
C1160 H1151 0.950 . S
C1160 C1159 1.398 . S
C1160 C1161 1.391 . S
C1161 H1149 0.950 . S
C1161 C1157 1.393 . S
C1161 C1160 1.391 . S
C1162 H1152 0.950 . S
C1162 C1163 1.386 1_455 S
C1162 C1164 1.391 . S
C1163 C1162 1.386 1_655 S
C1163 C1167 1.393 . S
C1164 H1153 0.950 . S
C1164 C1162 1.391 . S
C1164 C1165 1.400 1_455 S
C1165 C1159 1.491 1_655 S
C1165 C1164 1.400 1_655 S
C1165 C1166 1.398 . S
C1166 H1154 0.950 . S
C1166 C1165 1.398 . S
C1166 C1167 1.391 . S
C1167 H1155 0.950 . S
C1167 C1163 1.393 . S
C1167 C1166 1.391 . S
H1168 C1176 0.950 . S
H1169 C1181 0.950 . S
H1170 C1178 0.950 . S
H1171 C1180 0.950 . S
H1172 C1182 0.950 . S
H1173 C1184 0.950 . S
H1174 C1186 0.950 . S
H1175 C1187 0.950 . S
C1176 H1168 0.950 . S
C1176 C1177 1.386 . S
C1176 C1178 1.391 1_565 S
C1177 C1176 1.386 . S
C1177 C1181 1.393 . S
C1178 H1170 0.950 . S
C1178 C1176 1.391 1_545 S
C1178 C1179 1.400 1_545 S
C1179 C1178 1.400 1_565 S
C1179 C1180 1.398 . S
C1179 C1185 1.491 1_564 S
C1180 H1171 0.950 . S
C1180 C1179 1.398 . S
C1180 C1181 1.391 . S
C1181 H1169 0.950 . S
C1181 C1177 1.393 . S
C1181 C1180 1.391 . S
C1182 H1172 0.950 . S
C1182 C1183 1.386 . S
C1182 C1184 1.391 1_545 S
C1183 C1182 1.386 . S
C1183 C1187 1.393 . S
C1184 H1173 0.950 . S
C1184 C1182 1.391 1_565 S
C1184 C1185 1.400 1_565 S
C1185 C1179 1.491 1_546 S
C1185 C1184 1.400 1_545 S
C1185 C1186 1.398 . S
C1186 H1174 0.950 . S
C1186 C1185 1.398 . S
C1186 C1187 1.391 . S
C1187 H1175 0.950 . S
C1187 C1183 1.393 . S
C1187 C1186 1.391 . S
C717 C682 1.875 . S
C723 C33 1.870 . S
C737 C92 1.861 . S
C743 C387 1.866 . S
C757 C151 1.876 . S
C763 C446 1.871 . S
C777 C210 1.875 . S
C783 C505 1.870 . S
C797 C564 1.876 . S
C803 C269 1.874 . S
C817 C328 1.862 . S
C823 C623 1.868 . S
C837 C180 1.388 . S
C843 C3 1.384 . S
C857 C239 1.386 . S
C863 C62 1.384 . S
C877 C298 1.394 . S
C883 C121 1.390 . S
C897 C357 1.393 . S
C903 C534 1.388 . S
C917 C416 1.386 . S
C923 C593 1.384 . S
C937 C475 1.384 . S
C943 C652 1.387 . S
C957 C524 0.321 . S
C963 C52 0.323 . S
C977 C111 0.314 . S
C983 C583 0.318 . S
C997 C642 0.290 . S
C1003 C170 0.297 . S
C1017 C701 0.256 . S
C1023 C229 0.262 . S
C1037 C406 0.245 . S
C1043 C288 0.242 . S
C1057 C347 0.249 . S
C1063 C465 0.245 . S
C1077 C536 1.638 . S
C1083 C5 1.640 . S
C1097 C64 1.642 . S
C1103 C595 1.643 . S
C1117 C654 1.638 . S
C1123 C123 1.640 . S
C1137 C182 1.643 . S
C1143 C359 1.642 . S
C1157 C241 1.639 . S
C1163 C418 1.641 . S
C1177 C477 1.627 . S
C1183 C300 1.629 . S
