# Generated by pormake.
# Topology sxb, (6)-cn, num edge types: 1
# Building blocks:
#     Node 0, Type 0, BuildingBlock: NUHQIS_clean_sbu_0, # of connection points: 6
#     Node 1, Type 0, BuildingBlock: NUHQIS_clean_sbu_0, # of connection points: 6
#     Node 2, Type 0, BuildingBlock: NUHQIS_clean_sbu_0, # of connection points: 6
#     Node 3, Type 0, BuildingBlock: NUHQIS_clean_sbu_0, # of connection points: 6
#     Edge 4, Type (0, 0), BuildingBlock: FUNLAD_clean_linker_0, # of connection points: 2
#     Edge 5, Type (0, 0), BuildingBlock: FUNLAD_clean_linker_0, # of connection points: 2
#     Edge 6, Type (0, 0), BuildingBlock: FUNLAD_clean_linker_0, # of connection points: 2
#     Edge 7, Type (0, 0), BuildingBlock: FUNLAD_clean_linker_0, # of connection points: 2
#     Edge 8, Type (0, 0), BuildingBlock: FUNLAD_clean_linker_0, # of connection points: 2
#     Edge 9, Type (0, 0), BuildingBlock: FUNLAD_clean_linker_0, # of connection points: 2
#     Edge 10, Type (0, 0), BuildingBlock: FUNLAD_clean_linker_0, # of connection points: 2
#     Edge 11, Type (0, 0), BuildingBlock: FUNLAD_clean_linker_0, # of connection points: 2
#     Edge 12, Type (0, 0), BuildingBlock: FUNLAD_clean_linker_0, # of connection points: 2
#     Edge 13, Type (0, 0), BuildingBlock: FUNLAD_clean_linker_0, # of connection points: 2
#     Edge 14, Type (0, 0), BuildingBlock: FUNLAD_clean_linker_0, # of connection points: 2
#     Edge 15, Type (0, 0), BuildingBlock: FUNLAD_clean_linker_0, # of connection points: 2
# Relax obj value: 0.052
# Max RMSD: 0.133
# Mean RMSD: 0.133
data_MOF--net-sxb--node1-NUHQIS_clean_sbu_0--edge1-FUNLAD_clean_linker_0
_symmetry_space_group_name_H-M    P1
_symmetry_Int_Tables_number       1
_symmetry_cell_setting            triclinic
loop_
_symmetry_equiv_pos_as_xyz
'x, y, z'
_cell_length_a     27.098959
_cell_length_b     21.870013
_cell_length_c     35.361816
_cell_angle_alpha  89.715639
_cell_angle_beta   96.005491
_cell_angle_gamma 90.017748
loop_
_atom_site_label
_atom_site_type_symbol
_atom_site_fract_x
_atom_site_fract_y
_atom_site_fract_z
_atom_type_partial_charge
Tb0 Tb 0.99309 0.9791 0.97604 0.0
Eu1 Eu 0.08588 0.07959 0.98632 0.0
C2 C 0.04233 0.02915 0.90657 0.0
C3 C 0.10336 0.93274 0.98233 0.0
C4 C 0.86167 0.93165 0.96961 0.0
C5 C 0.77403 0.91199 0.95161 0.0
C6 C 0.82398 0.89648 0.95024 0.0
C7 C 0.84866 0.98285 0.99029 0.0
C8 C 0.79875 -0.00152 -0.00833 0.0
C9 C 0.76066 0.96317 0.97241 0.0
C10 C 0.91429 0.91596 0.96708 0.0
O11 O 0.02543 0.97171 0.03479 0.0
O12 O 0.05644 0.06903 0.04316 0.0
O13 O 1.0151 0.13411 0.97235 0.0
O14 O 0.96473 0.06324 -0.00319 0.0
C15 C 0.04076 0.0175 0.05693 0.0
O16 O 0.14727 0.12082 0.02222 0.0
O17 O 0.13271 0.14926 0.96344 0.0
O18 O 0.08382 0.03855 0.92817 0.0
O19 O 1.00032 0.02409 0.9217 0.0
O20 O 0.05737 0.92308 0.96739 0.0
O21 O 0.11845 0.98586 -0.00345 0.0
C22 C 0.97292 0.11884 0.98517 0.0
O23 O 0.93469 0.94161 0.93934 0.0
O24 O 0.94358 0.91813 -0.00137 0.0
C25 C 0.21667 0.14297 0.98999 0.0
C26 C 0.31923 0.12199 0.98658 0.0
C27 C 0.30282 0.17229 0.00662 0.0
C28 C 0.25205 0.18259 0.00832 0.0
C29 C 0.23271 0.09291 0.96979 0.0
C30 C 0.28343 0.08263 0.96801 0.0
C31 C 0.16355 0.15146 -0.00563 0.0
H32 H 0.7459 0.88428 0.93588 0.0
H33 H 0.83318 0.85717 0.93382 0.0
H34 H 0.8771 0.01073 0.00547 0.0
H35 H 0.79005 0.03776 0.00829 0.0
H36 H 0.32925 0.20298 0.02175 0.0
H37 H 0.24043 0.22098 0.02451 0.0
H38 H 0.20601 0.0613 0.9558 0.0
H39 H 0.29459 0.04377 0.95205 0.0
Tb40 Tb 0.07141 0.92465 0.48607 0.0
Eu41 Eu 0.97772 0.02278 0.47426 0.0
C42 C 1.01904 0.97228 0.55459 0.0
C43 C 0.96269 0.87957 0.4705 0.0
C44 C 0.19853 0.86494 0.48765 0.0
C45 C 0.28656 0.84422 0.50275 0.0
C46 C 0.23694 0.83085 0.50727 0.0
C47 C 0.2103 0.9117 0.46277 0.0
C48 C 0.25983 0.92504 0.45819 0.0
C49 C 0.29866 0.89203 0.47853 0.0
C50 C 0.14692 0.85604 0.49617 0.0
O51 O 0.05377 0.9355 0.42461 0.0
O52 O 1.01418 0.0291 0.42049 0.0
O53 O 0.04619 0.07991 0.4905 0.0
O54 O 0.10413 0.0112 0.47292 0.0
C55 C 0.03706 0.98413 0.40509 0.0
O56 O 0.91456 0.0619 0.4391 0.0
O57 O 0.92717 0.08618 0.4985 0.0
O58 O 0.97821 0.978 0.53163 0.0
O59 O 0.06179 0.96576 0.54081 0.0
O60 O 1.00444 0.87179 0.49244 0.0
O61 O 0.95316 0.93094 0.45217 0.0
C62 C 0.09132 0.06655 0.48232 0.0
O63 O 0.13281 0.89265 0.52182 0.0
O64 O 0.11319 0.85172 0.46719 0.0
C65 C 0.84445 0.06988 0.4725 0.0
C66 C 0.74526 0.03497 0.47952 0.0
C67 C 0.75786 0.09697 0.47511 0.0
C68 C 0.80703 0.11422 0.4716 0.0
C69 C 0.83223 0.00812 0.4772 0.0
C70 C 0.7832 -0.00918 0.48057 0.0
C71 C 0.89601 0.08728 0.46775 0.0
H72 H 0.31548 0.8175 0.51853 0.0
H73 H 0.22862 0.79489 0.52681 0.0
H74 H 0.1812 0.93903 0.44767 0.0
H75 H 0.2677 0.96267 0.43972 0.0
H76 H 0.72982 0.1323 0.47471 0.0
H77 H 0.81578 0.16212 0.46808 0.0
H78 H 0.86061 0.97312 0.47789 0.0
H79 H 0.77496 0.94264 0.48335 0.0
Tb80 Tb 0.46723 0.41517 0.00484 0.0
Eu81 Eu 0.56187 0.51269 0.01144 0.0
C82 C 0.50782 0.47004 0.93282 0.0
C83 C 0.57655 0.36867 0.00432 0.0
C84 C 0.33771 0.35866 -0.00212 0.0
C85 C 0.25355 0.33258 0.97217 0.0
C86 C 0.30477 0.32179 0.9748 0.0
C87 C 0.31871 0.40724 0.0178 0.0
C88 C 0.26765 0.41815 0.01513 0.0
C89 C 0.23433 0.38084 -0.0076 0.0
C90 C 0.39162 0.34657 0.0008 0.0
O91 O 0.50269 0.41403 0.06327 0.0
O92 O 0.52862 0.51331 0.0668 0.0
O93 O 0.49373 0.57091 -0.002 0.0
O94 O 0.43495 0.50332 0.01617 0.0
C95 C 0.51463 0.46338 0.0833 0.0
O96 O 0.62761 0.54871 0.04486 0.0
O97 O 0.60864 0.58077 0.98714 0.0
O98 O 0.55151 0.47542 0.95218 0.0
O99 O 0.46784 0.46178 0.95025 0.0
O100 O 0.53014 0.36116 0.99031 0.0
O101 O 0.59215 0.41837 0.02227 0.0
C102 C 0.44845 0.55839 0.00609 0.0
O103 O 0.41426 0.36214 0.97152 0.0
O104 O 0.41708 0.36239 0.03252 0.0
C105 C 0.69352 0.56592 0.0081 0.0
C106 C 0.79231 0.53566 -0.00336 0.0
C107 C 0.7817 0.58887 0.01665 0.0
C108 C 0.73276 0.60375 0.02236 0.0
C109 C 0.70375 0.51318 0.98787 0.0
C110 C 0.75259 0.49815 0.98216 0.0
C111 C 0.64243 0.57919 0.01633 0.0
H112 H 0.22904 0.30341 0.95406 0.0
H113 H 0.31867 0.28449 0.95886 0.0
H114 H 0.34332 0.43665 0.03566 0.0
H115 H 0.25424 0.45528 0.03144 0.0
H116 H 0.81131 0.61837 0.02868 0.0
H117 H 0.72564 0.6443 0.03841 0.0
H118 H 0.67386 0.48337 0.97681 0.0
H119 H 0.75917 0.45729 0.96624 0.0
Tb120 Tb 0.56528 0.45393 0.51137 0.0
Eu121 Eu 0.47405 0.55532 0.50508 0.0
C122 C 0.51756 0.49257 0.5836 0.0
C123 C 0.45376 0.41028 0.50473 0.0
C124 C 0.69421 0.40732 0.50816 0.0
C125 C 0.78226 0.38371 0.51179 0.0
C126 C 0.73328 0.36547 0.51511 0.0
C127 C 0.70463 0.46755 0.49755 0.0
C128 C 0.75347 0.48584 0.49425 0.0
C129 C 0.79302 0.44425 0.50151 0.0
C130 C 0.64301 0.38963 0.51394 0.0
O131 O 0.56198 0.50069 0.45681 0.0
O132 O 0.47843 0.51217 0.44776 0.0
O133 O 0.54377 0.60867 0.49833 0.0
O134 O 0.59475 0.54065 0.53285 0.0
C135 C 0.52098 0.50517 0.43384 0.0
O136 O 0.41891 0.61117 0.47107 0.0
O137 O 0.42111 0.61126 0.53224 0.0
O138 O 0.50418 0.54468 0.56679 0.0
O139 O 0.53186 0.44585 0.56423 0.0
O140 O 0.49897 0.3985 0.496 0.0
O141 O 0.44034 0.46464 0.5153 0.0
C142 C 0.58673 0.59452 0.51702 0.0
O143 O 0.6262 0.41354 0.5437 0.0
O144 O 0.61041 0.39341 0.48414 0.0
C145 C 0.34238 0.61083 0.49753 0.0
C146 C 0.24148 0.57781 0.49837 0.0
C147 C 0.25763 0.63771 0.50762 0.0
C148 C 0.30766 0.65396 0.50728 0.0
C149 C 0.32633 0.55146 0.4876 0.0
C150 C 0.27648 0.53518 0.4879 0.0
C151 C 0.39569 0.62603 0.5002 0.0
H152 H 0.81169 0.35032 0.51717 0.0
H153 H 0.72599 0.31888 0.52347 0.0
H154 H 0.67499 0.50074 0.49236 0.0
H155 H 0.76031 0.53299 0.48686 0.0
H156 H 0.23194 0.67157 0.51622 0.0
H157 H 0.31942 0.69982 0.51538 0.0
H158 H 0.35253 0.51732 0.48009 0.0
H159 H 0.26545 0.48899 0.48 0.0
C160 C 0.36233 0.5952 0.01261 0.0
C161 C 0.41052 0.60736 0.00315 0.0
C162 C 0.32575 0.64034 0.00861 0.0
C163 C 0.33642 0.69873 -0.00526 0.0
C164 C 0.38477 0.71122 0.98592 0.0
C165 C 0.42143 0.66601 0.98993 0.0
C166 C 0.29891 0.74849 0.99085 0.0
C167 C 0.24948 0.73877 0.98764 0.0
C168 C 0.21257 0.78921 0.9859 0.0
C169 C 0.16378 0.77847 0.96965 0.0
C170 C 0.128 0.82485 0.96831 0.0
C171 C 0.14034 0.88277 0.98352 0.0
H172 H 0.26106 0.8566 0.01574 0.0
C173 C 0.18904 0.8931 0.00021 0.0
C174 C 0.22457 0.84693 0.0016 0.0
H175 H 0.19993 0.93692 0.01256 0.0
H176 H 0.35264 0.55074 0.02321 0.0
H177 H 0.28956 0.62934 0.01707 0.0
H178 H 0.39418 0.75604 0.97562 0.0
H179 H 0.45814 0.677 0.98241 0.0
H180 H 0.31294 0.79487 0.98952 0.0
H181 H 0.23516 0.69246 0.98514 0.0
H182 H 0.15336 0.73416 0.95778 0.0
H183 H 0.09081 0.81528 0.95538 0.0
C184 C 0.64738 0.34743 0.96825 0.0
C185 C 0.61493 0.3268 -0.00607 0.0
C186 C 0.69089 0.31547 0.96386 0.0
C187 C 0.70265 0.26218 0.98529 0.0
C188 C 0.66798 0.23899 0.00871 0.0
C189 C 0.62447 0.27141 0.01327 0.0
C190 C 0.75128 0.23106 0.98529 0.0
C191 C 0.79332 0.25965 0.9775 0.0
C192 C 0.84227 0.22864 0.98216 0.0
C193 C 0.87877 0.24357 0.95812 0.0
C194 C 0.92347 0.21068 0.96034 0.0
C195 C 0.93213 0.163 0.98693 0.0
H196 H 0.82698 0.17382 0.03099 0.0
C197 C 0.8973 0.15189 0.01292 0.0
C198 C 0.853 0.1843 0.01064 0.0
H199 H 0.90352 0.11646 0.03443 0.0
H200 H 0.63988 0.38963 0.95254 0.0
H201 H 0.71545 0.33342 0.94429 0.0
H202 H 0.67579 0.19741 0.02503 0.0
H203 H 0.59979 0.25499 0.03329 0.0
H204 H 0.75298 0.18355 -0.00555 0.0
H205 H 0.79243 0.30683 0.96781 0.0
H206 H 0.87177 0.27875 0.93656 0.0
H207 H 0.94982 0.22027 0.94006 0.0
C208 C 0.17368 0.10236 0.46601 0.0
C209 C 0.1297 0.1145 0.48254 0.0
C210 C 0.21197 0.14497 0.46793 0.0
C211 C 0.20748 0.20071 0.48681 0.0
C212 C 0.16279 0.21405 0.50199 0.0
C213 C 0.12418 0.17125 0.49996 0.0
C214 C 0.24842 0.24597 0.49084 0.0
C215 C 0.29667 0.2307 0.49051 0.0
C216 C 0.33755 0.27597 0.49557 0.0
C217 C 0.38259 0.26375 0.48059 0.0
C218 C 0.42128 0.3065 0.48412 0.0
C219 C 0.41547 0.36202 0.5029 0.0
H220 H 0.29972 0.34048 0.52926 0.0
C221 C 0.37107 0.37295 0.51913 0.0
C222 C 0.33276 0.33043 0.51571 0.0
H223 H 0.36558 0.41472 0.53449 0.0
H224 H 0.17883 0.05963 0.45157 0.0
H225 H 0.24475 0.13393 0.45432 0.0
H226 H 0.15815 0.25713 0.5162 0.0
H227 H 0.09066 0.18203 0.51276 0.0
H228 H 0.23811 0.29319 0.49507 0.0
H229 H 0.30708 0.18356 0.48616 0.0
H230 H 0.38746 0.22159 0.46545 0.0
H231 H 0.4551 0.2967 0.47147 0.0
C232 C 0.91835 0.79483 0.50064 0.0
C233 C 0.92213 0.83462 0.46983 0.0
C234 C 0.87476 0.76143 0.50315 0.0
C235 C 0.83451 0.7673 0.47473 0.0
C236 C 0.83997 0.80345 0.44265 0.0
C237 C 0.88316 0.83716 0.44033 0.0
C238 C 0.7859 0.73793 0.4779 0.0
C239 C 0.76797 0.72812 0.51144 0.0
C240 C 0.71889 0.6999 0.51426 0.0
C241 C 0.71315 0.66104 0.54506 0.0
C242 C 0.6689 0.62931 0.54695 0.0
C243 C 0.62915 0.6368 0.51841 0.0
H244 H 0.68105 0.74161 0.46334 0.0
C245 C 0.63355 0.67897 0.48894 0.0
C246 C 0.67822 0.71021 0.48678 0.0
H247 H 0.60349 0.68551 0.46657 0.0
H248 H 0.9479 0.7919 0.52371 0.0
H249 H 0.87242 0.73205 0.52761 0.0
H250 H 0.80981 0.80793 0.42013 0.0
H251 H 0.88523 0.86709 0.41604 0.0
H252 H 0.76323 0.72695 0.45162 0.0
H253 H 0.79045 0.73883 0.53782 0.0
H254 H 0.74372 0.65311 0.56684 0.0
H255 H 0.66641 0.5973 0.57016 0.0
C256 C 0.39185 0.04962 0.98935 0.0
C257 C 0.37336 0.10969 0.98581 0.0
C258 C 0.44255 0.03772 0.98893 0.0
C259 C 0.47632 0.08569 0.98457 0.0
C260 C 0.45787 0.14582 0.98153 0.0
C261 C 0.40711 0.15772 0.98206 0.0
C262 C 0.53092 0.07528 0.9842 0.0
C263 C 0.55108 0.02068 0.97666 0.0
C264 C 0.60542 0.00858 0.97655 0.0
C265 C 0.62155 0.94747 0.97748 0.0
C266 C 0.67164 0.93294 0.97647 0.0
C267 C 0.70728 0.97918 0.97417 0.0
H268 H 0.63051 0.10282 0.97275 0.0
C269 C 0.69131 0.04054 0.9733 0.0
C270 C 0.64105 0.05515 0.97442 0.0
H271 H 0.71751 0.07739 0.97091 0.0
H272 H 0.3672 0.01164 -0.00673 0.0
H273 H 0.45488 -0.00908 -0.00713 0.0
H274 H 0.4828 0.18386 0.97846 0.0
H275 H 0.39425 0.20454 0.97906 0.0
H276 H 0.55489 0.11455 0.99007 0.0
H277 H 0.52679 0.98185 0.97032 0.0
H278 H 0.59521 0.91049 0.97913 0.0
H279 H 0.68244 0.88525 0.97783 0.0
C280 C 0.386 0.91062 0.5081 0.0
C281 C 0.35146 0.90899 0.47552 0.0
C282 C 0.4351 0.9289 0.50563 0.0
C283 C 0.45111 0.94552 0.47033 0.0
C284 C 0.41651 0.9438 0.43783 0.0
C285 C 0.3674 0.9257 0.44033 0.0
C286 C 0.50267 0.96702 0.46622 0.0
C287 C 0.54198 0.95697 0.4923 0.0
C288 C 0.59355 0.97821 0.48808 0.0
C289 C 0.63328 0.95023 0.5104 0.0
C290 C 0.68223 0.96875 0.50776 0.0
C291 C 0.69287 0.01613 0.48281 0.0
H292 H 0.5747 0.05054 0.44656 0.0
C293 C 0.65308 0.04486 0.46085 0.0
C294 C 0.60404 0.02634 0.4635 0.0
H295 H 0.6598 0.0813 0.44118 0.0
H296 H 0.37475 0.89937 0.5358 0.0
H297 H 0.45974 0.93129 0.53167 0.0
H298 H 0.42749 0.95656 0.41027 0.0
H299 H 0.34195 0.92458 0.4146 0.0
H300 H 0.50843 -0.00996 0.4398 0.0
H301 H 0.53709 0.92962 0.51731 0.0
H302 H 0.62649 0.9136 0.52994 0.0
H303 H 0.71172 0.94625 0.52565 0.0
C304 C 0.86084 0.45805 -0.00586 0.0
C305 C 0.84457 0.5192 -0.00872 0.0
C306 C 0.91025 0.44297 0.99001 0.0
C307 C 0.94475 0.48888 0.98305 0.0
C308 C 0.92808 0.54969 0.97941 0.0
C309 C 0.87881 0.56471 0.98357 0.0
C310 C 0.99816 0.47619 0.97917 0.0
C311 C 1.02223 0.42425 0.99088 0.0
C312 C 0.07653 0.41445 0.98919 0.0
C313 C 0.09521 0.35442 0.99061 0.0
C314 C 0.14617 0.34336 0.99093 0.0
C315 C 0.17985 0.3922 0.99022 0.0
H316 H 0.09807 0.51037 0.98831 0.0
C317 C 0.16118 0.45226 0.98862 0.0
C318 C 0.11029 0.46333 0.98827 0.0
H319 H 0.18598 0.49098 0.98778 0.0
H320 H 0.83557 0.42175 0.00017 0.0
H321 H 0.92077 0.39531 -0.00792 0.0
H322 H 0.95347 0.58606 0.97368 0.0
H323 H 0.86748 0.61211 0.98043 0.0
H324 H 1.01866 0.51255 0.96688 0.0
H325 H 1.00199 0.38714 0.0026 0.0
H326 H 0.0703 0.31583 -0.00825 0.0
H327 H 0.15928 0.29655 -0.0073 0.0
C328 C 0.14923 0.59896 0.48923 0.0
C329 C 0.18882 0.55907 0.50064 0.0
C330 C 0.09993 0.58094 0.49149 0.0
C331 C 0.08896 0.52226 0.50508 0.0
C332 C 0.12863 0.48286 0.51683 0.0
C333 C 0.17776 0.50086 0.51463 0.0
C334 C 0.03729 0.50046 0.5086 0.0
C335 C 0.99579 0.52693 0.49131 0.0
C336 C 0.94437 0.50398 0.49458 0.0
C337 C 0.90568 0.52377 0.46773 0.0
C338 C 0.85684 0.50417 0.46978 0.0
C339 C 0.84524 0.46431 0.49891 0.0
H340 H 0.96066 0.44958 0.54615 0.0
C341 C 0.88381 0.44478 0.52599 0.0
C342 C 0.93267 0.46453 0.52402 0.0
H343 H 0.87609 0.41521 0.54931 0.0
H344 H 0.15625 0.64406 0.4782 0.0
H345 H 0.07092 0.61361 0.48298 0.0
H346 H 0.12165 0.43769 0.52784 0.0
H347 H 0.20715 0.46927 0.52447 0.0
H348 H 0.03389 0.459 0.52507 0.0
H349 H 0.99919 0.5657 0.47252 0.0
H350 H 0.91326 0.5544 0.44486 0.0
H351 H 0.82822 0.51985 0.44825 0.0
C352 C 1.01082 0.02301 0.33957 0.0
C353 C 0.04382 0.9882 0.36429 0.0
C354 C 1.01672 0.02656 0.30087 0.0
C355 C 0.0562 -0.00389 0.28624 0.0
C356 C 0.08988 0.96255 0.31107 0.0
C357 C 0.08336 0.95786 0.3497 0.0
C358 C 0.06337 2e-05 0.24535 0.0
C359 C 0.02489 -0.00145 0.21808 0.0
C360 C 0.0312 0.00212 0.17705 0.0
C361 C 0.99933 0.96836 0.15124 0.0
C362 C 1.00332 0.97226 0.11224 0.0
C363 C 0.03836 0.01145 0.09827 0.0
H364 H 0.09111 0.06838 0.18243 0.0
C365 C 0.06995 0.04585 0.12407 0.0
C366 C 0.06673 0.04082 0.16318 0.0
H367 H 0.0972 0.07652 0.11402 0.0
H368 H 0.98007 0.04698 0.35006 0.0
H369 H 0.99079 0.05389 0.28251 0.0
H370 H 0.12084 0.93918 0.30044 0.0
H371 H 0.10964 0.93125 0.36822 0.0
H372 H 0.10111 0.00069 0.23753 0.0
H373 H 0.9876 -0.0087 0.22594 0.0
H374 H 0.97139 0.93868 0.16129 0.0
H375 H 0.97814 0.94569 0.09298 0.0
C376 C 0.99907 0.01207 0.8411 0.0
C377 C 0.04306 0.02303 0.86488 0.0
C378 C 1.00022 0.00347 0.80198 0.0
C379 C 0.04549 0.00591 0.78574 0.0
C380 C 0.08933 0.01691 0.80959 0.0
C381 C 0.08817 0.02562 0.84862 0.0
C382 C 0.04918 -0.00511 0.74455 0.0
C383 C 1.01113 0.00221 0.71705 0.0
C384 C 1.01472 -0.00774 0.67563 0.0
C385 C 0.97067 -0.00921 0.65082 0.0
C386 C 0.97191 0.98341 0.61165 0.0
C387 C 1.01739 0.97737 0.59624 0.0
H388 H 0.09541 0.98819 0.67753 0.0
C389 C 0.0615 0.9784 0.62095 0.0
C390 C 0.0603 0.98602 0.66009 0.0
H391 H 0.09724 0.97436 0.61002 0.0
H392 H 0.96372 0.00916 0.85274 0.0
H393 H 0.9657 -0.00664 0.78498 0.0
H394 H 0.12478 0.01866 0.79801 0.0
H395 H 0.12282 0.03364 0.86607 0.0
H396 H 0.0853 0.98117 0.73708 0.0
H397 H 0.9753 0.0167 0.7249 0.0
H398 H 0.93499 -0.00433 0.66175 0.0
H399 H 0.93718 0.98293 0.59346 0.0
C400 C 0.47997 0.49596 0.367 0.0
C401 C 0.52328 0.50295 0.39219 0.0
C402 C 0.48267 0.49256 0.32772 0.0
C403 C 0.5288 0.49642 0.31286 0.0
C404 C 0.57186 0.50438 0.33804 0.0
C405 C 0.56925 0.50705 0.37725 0.0
C406 C 0.53333 0.49514 0.27132 0.0
C407 C 0.50132 0.46552 0.24598 0.0
C408 C 0.50639 0.46495 0.20446 0.0
C409 C 0.48731 0.4154 0.1824 0.0
C410 C 0.49067 0.41419 0.14315 0.0
C411 C 0.51255 0.46307 0.12504 0.0
H412 H 0.54201 0.55374 0.20204 0.0
C413 C 0.53126 0.51288 0.1471 0.0
C414 C 0.52823 0.51387 0.18629 0.0
H415 H 0.54804 0.55154 0.13408 0.0
H416 H 0.44398 0.4928 0.37761 0.0
H417 H 0.44853 0.48809 0.30912 0.0
H418 H 0.60781 0.50809 0.32736 0.0
H419 H 0.60333 0.51273 0.39581 0.0
H420 H 0.56578 0.51702 0.26166 0.0
H421 H 0.47164 0.43846 0.256 0.0
H422 H 0.46989 0.37738 0.19559 0.0
H423 H 0.47552 0.37533 0.12698 0.0
C424 C 0.49603 0.53154 0.64646 0.0
C425 C 0.51772 0.48648 0.6253 0.0
C426 C 0.49712 0.52597 0.68597 0.0
C427 C 0.52008 0.47521 0.70509 0.0
C428 C 0.54195 0.4305 0.68394 0.0
C429 C 0.54046 0.43575 0.64448 0.0
C430 C 0.52416 0.46882 0.7471 0.0
C431 C 0.49118 0.49284 0.76883 0.0
C432 C 0.49617 0.48609 0.81086 0.0
C433 C 0.45334 0.4857 0.83001 0.0
C434 C 0.45695 0.47979 0.8696 0.0
C435 C 0.50363 0.47519 0.89088 0.0
H436 H 0.57679 0.48395 0.81855 0.0
C437 C 0.54653 0.47647 0.87174 0.0
C438 C 0.54289 0.4819 0.83219 0.0
H439 H 0.58309 0.47341 0.88729 0.0
H440 H 0.4784 0.57131 0.63256 0.0
H441 H 0.48104 0.5622 0.70144 0.0
H442 H 0.56024 0.39125 0.69799 0.0
H443 H 0.55781 0.40036 0.62911 0.0
H444 H 0.55435 0.44081 0.76032 0.0
H445 H 0.45818 0.51557 0.75545 0.0
H446 H 0.41695 0.48946 0.81426 0.0
H447 H 0.42319 0.47938 0.88351 0.0
loop_
_geom_bond_atom_site_label_1
_geom_bond_atom_site_label_2
_geom_bond_distance
_geom_bond_site_symmetry_2
_ccdc_geom_bond_type
Tb0 C10 2.825 . S
Tb0 O11 2.347 1_556 S
Tb0 O14 2.366 1_565 S
Tb0 O19 2.418 . S
Tb0 O20 2.384 1_655 S
Tb0 O23 2.479 . S
Tb0 O24 2.471 1_556 S
Eu1 O12 2.418 . S
Eu1 O13 2.384 1_455 S
Eu1 O16 2.479 . S
Eu1 O17 2.471 1_554 S
Eu1 O18 2.347 1_554 S
Eu1 O21 2.366 1_545 S
Eu1 C31 2.825 . S
C2 O18 1.259 1_665 S
C2 O19 1.265 . S
C3 O20 1.255 1_554 S
C3 O21 1.265 . S
C4 C6 1.377 1_554 S
C4 C7 1.377 . S
C4 C10 1.506 1_554 S
C5 C6 1.384 . S
C5 C9 1.387 1_556 S
C5 H32 0.930 . S
C6 C4 1.377 1_556 S
C6 C5 1.384 . S
C6 H33 0.931 . S
C7 C4 1.377 . S
C7 C8 1.390 . S
C7 H34 0.930 . S
C8 C7 1.390 . S
C8 C9 1.391 . S
C8 H35 0.930 . S
C9 C5 1.387 1_554 S
C9 C8 1.391 . S
C10 Tb0 2.825 . S
C10 C4 1.506 1_556 S
C10 O23 1.238 . S
C10 O24 1.247 1_556 S
O11 Tb0 2.347 1_554 S
O11 C15 1.259 1_665 S
O12 Eu1 2.418 . S
O12 C15 1.265 . S
O13 Eu1 2.384 1_655 S
O13 C22 1.255 1_554 S
O14 Tb0 2.366 1_545 S
O14 C22 1.265 . S
C15 O11 1.259 1_445 S
C15 O12 1.265 . S
O16 Eu1 2.479 . S
O16 C31 1.238 . S
O17 Eu1 2.471 1_556 S
O17 C31 1.247 1_556 S
O18 Eu1 2.347 1_556 S
O18 C2 1.259 1_445 S
O19 Tb0 2.418 . S
O19 C2 1.265 . S
O20 Tb0 2.384 1_455 S
O20 C3 1.255 1_556 S
O21 Eu1 2.366 1_565 S
O21 C3 1.265 . S
C22 O13 1.255 1_556 S
C22 O14 1.265 . S
O23 Tb0 2.479 . S
O23 C10 1.238 . S
O24 Tb0 2.471 1_554 S
O24 C10 1.247 1_554 S
C25 C28 1.377 . S
C25 C29 1.377 1_554 S
C25 C31 1.506 . S
C26 C27 1.387 1_556 S
C26 C30 1.391 . S
C27 C26 1.387 1_554 S
C27 C28 1.384 . S
C27 H36 0.930 . S
C28 C25 1.377 . S
C28 C27 1.384 . S
C28 H37 0.931 . S
C29 C25 1.377 1_556 S
C29 C30 1.390 . S
C29 H38 0.930 . S
C30 C26 1.391 . S
C30 C29 1.390 . S
C30 H39 0.930 . S
C31 Eu1 2.825 . S
C31 O16 1.238 . S
C31 O17 1.247 1_554 S
C31 C25 1.506 . S
H32 C5 0.930 . S
H33 C6 0.931 . S
H34 C7 0.930 . S
H35 C8 0.930 . S
H36 C27 0.930 . S
H37 C28 0.931 . S
H38 C29 0.930 . S
H39 C30 0.930 . S
Tb40 C50 2.825 . S
Tb40 O51 2.347 . S
Tb40 O54 2.366 1_565 S
Tb40 O59 2.418 . S
Tb40 O60 2.384 1_455 S
Tb40 O63 2.479 . S
Tb40 O64 2.471 . S
Eu41 O52 2.418 . S
Eu41 O53 2.384 1_655 S
Eu41 O56 2.479 . S
Eu41 O57 2.471 . S
Eu41 O58 2.347 . S
Eu41 O61 2.366 1_545 S
Eu41 C71 2.825 . S
C42 O58 1.259 1_465 S
C42 O59 1.265 . S
C43 O60 1.255 . S
C43 O61 1.265 . S
C44 C46 1.380 . S
C44 C47 1.374 . S
C44 C50 1.507 . S
C45 C46 1.384 . S
C45 C49 1.387 . S
C45 H72 0.930 . S
C46 C44 1.380 . S
C46 C45 1.384 . S
C46 H73 0.931 . S
C47 C44 1.374 . S
C47 C48 1.390 . S
C47 H74 0.930 . S
C48 C47 1.390 . S
C48 C49 1.391 . S
C48 H75 0.930 . S
C49 C45 1.387 . S
C49 C48 1.391 . S
C50 Tb40 2.825 . S
C50 C44 1.507 . S
C50 O63 1.238 . S
C50 O64 1.247 . S
O51 Tb40 2.347 . S
O51 C55 1.259 1_465 S
O52 Eu41 2.418 . S
O52 C55 1.265 . S
O53 Eu41 2.384 1_455 S
O53 C62 1.255 . S
O54 Tb40 2.366 1_545 S
O54 C62 1.265 . S
C55 O51 1.259 1_645 S
C55 O52 1.265 . S
O56 Eu41 2.479 . S
O56 C71 1.238 . S
O57 Eu41 2.471 . S
O57 C71 1.247 . S
O58 Eu41 2.347 . S
O58 C42 1.259 1_645 S
O59 Tb40 2.418 . S
O59 C42 1.265 . S
O60 Tb40 2.384 1_655 S
O60 C43 1.255 . S
O61 Eu41 2.366 1_565 S
O61 C43 1.265 . S
C62 O53 1.255 . S
C62 O54 1.265 . S
O63 Tb40 2.479 . S
O63 C50 1.238 . S
O64 Tb40 2.471 . S
O64 C50 1.247 . S
C65 C68 1.380 . S
C65 C69 1.374 . S
C65 C71 1.507 . S
C66 C67 1.387 . S
C66 C70 1.391 . S
C67 C66 1.387 . S
C67 C68 1.384 . S
C67 H76 0.930 . S
C68 C65 1.380 . S
C68 C67 1.384 . S
C68 H77 0.931 . S
C69 C65 1.374 . S
C69 C70 1.390 . S
C69 H78 0.930 . S
C70 C66 1.391 . S
C70 C69 1.390 . S
C70 H79 0.930 . S
C71 Eu41 2.825 . S
C71 O56 1.238 . S
C71 O57 1.247 . S
C71 C65 1.507 . S
H72 C45 0.930 . S
H73 C46 0.931 . S
H74 C47 0.930 . S
H75 C48 0.930 . S
H76 C67 0.930 . S
H77 C68 0.931 . S
H78 C69 0.930 . S
H79 C70 0.930 . S
Tb80 C90 2.825 . S
Tb80 O91 2.347 1_556 S
Tb80 O94 2.366 . S
Tb80 O99 2.418 . S
Tb80 O100 2.384 . S
Tb80 O103 2.479 . S
Tb80 O104 2.471 1_556 S
Eu81 O92 2.418 . S
Eu81 O93 2.384 . S
Eu81 O96 2.479 . S
Eu81 O97 2.471 1_554 S
Eu81 O98 2.347 1_554 S
Eu81 O101 2.366 . S
Eu81 C111 2.825 . S
C82 O98 1.259 . S
C82 O99 1.265 . S
C83 O100 1.255 1_554 S
C83 O101 1.265 . S
C84 C86 1.377 1_554 S
C84 C87 1.377 . S
C84 C90 1.506 1_554 S
C85 C86 1.384 . S
C85 C89 1.387 1_556 S
C85 H112 0.930 . S
C86 C84 1.377 1_556 S
C86 C85 1.384 . S
C86 H113 0.931 . S
C87 C84 1.377 . S
C87 C88 1.390 . S
C87 H114 0.930 . S
C88 C87 1.390 . S
C88 C89 1.391 . S
C88 H115 0.930 . S
C89 C85 1.387 1_554 S
C89 C88 1.391 . S
C90 Tb80 2.825 . S
C90 C84 1.506 1_556 S
C90 O103 1.238 . S
C90 O104 1.247 1_556 S
O91 Tb80 2.347 1_554 S
O91 C95 1.259 . S
O92 Eu81 2.418 . S
O92 C95 1.265 . S
O93 Eu81 2.384 . S
O93 C102 1.255 1_554 S
O94 Tb80 2.366 . S
O94 C102 1.265 . S
C95 O91 1.259 . S
C95 O92 1.265 . S
O96 Eu81 2.479 . S
O96 C111 1.238 . S
O97 Eu81 2.471 1_556 S
O97 C111 1.247 1_556 S
O98 Eu81 2.347 1_556 S
O98 C82 1.259 . S
O99 Tb80 2.418 . S
O99 C82 1.265 . S
O100 Tb80 2.384 . S
O100 C83 1.255 1_556 S
O101 Eu81 2.366 . S
O101 C83 1.265 . S
C102 O93 1.255 1_556 S
C102 O94 1.265 . S
O103 Tb80 2.479 . S
O103 C90 1.238 . S
O104 Tb80 2.471 1_554 S
O104 C90 1.247 1_554 S
C105 C108 1.377 . S
C105 C109 1.377 1_554 S
C105 C111 1.506 . S
C106 C107 1.387 1_556 S
C106 C110 1.391 . S
C107 C106 1.387 1_554 S
C107 C108 1.384 . S
C107 H116 0.930 . S
C108 C105 1.377 . S
C108 C107 1.384 . S
C108 H117 0.931 . S
C109 C105 1.377 1_556 S
C109 C110 1.390 . S
C109 H118 0.930 . S
C110 C106 1.391 . S
C110 C109 1.390 . S
C110 H119 0.930 . S
C111 Eu81 2.825 . S
C111 O96 1.238 . S
C111 O97 1.247 1_554 S
C111 C105 1.506 . S
H112 C85 0.930 . S
H113 C86 0.931 . S
H114 C87 0.930 . S
H115 C88 0.930 . S
H116 C107 0.930 . S
H117 C108 0.931 . S
H118 C109 0.930 . S
H119 C110 0.930 . S
Tb120 C130 2.825 . S
Tb120 O131 2.347 . S
Tb120 O134 2.366 . S
Tb120 O139 2.418 . S
Tb120 O140 2.384 . S
Tb120 O143 2.479 . S
Tb120 O144 2.471 . S
Eu121 O132 2.418 . S
Eu121 O133 2.384 . S
Eu121 O136 2.479 . S
Eu121 O137 2.471 . S
Eu121 O138 2.347 . S
Eu121 O141 2.366 . S
Eu121 C151 2.825 . S
C122 O138 1.259 . S
C122 O139 1.265 . S
C123 O140 1.255 . S
C123 O141 1.265 . S
C124 C126 1.380 . S
C124 C127 1.374 . S
C124 C130 1.507 . S
C125 C126 1.384 . S
C125 C129 1.387 . S
C125 H152 0.930 . S
C126 C124 1.380 . S
C126 C125 1.384 . S
C126 H153 0.931 . S
C127 C124 1.374 . S
C127 C128 1.390 . S
C127 H154 0.930 . S
C128 C127 1.390 . S
C128 C129 1.391 . S
C128 H155 0.930 . S
C129 C125 1.387 . S
C129 C128 1.391 . S
C130 Tb120 2.825 . S
C130 C124 1.507 . S
C130 O143 1.238 . S
C130 O144 1.247 . S
O131 Tb120 2.347 . S
O131 C135 1.259 . S
O132 Eu121 2.418 . S
O132 C135 1.265 . S
O133 Eu121 2.384 . S
O133 C142 1.255 . S
O134 Tb120 2.366 . S
O134 C142 1.265 . S
C135 O131 1.259 . S
C135 O132 1.265 . S
O136 Eu121 2.479 . S
O136 C151 1.238 . S
O137 Eu121 2.471 . S
O137 C151 1.247 . S
O138 Eu121 2.347 . S
O138 C122 1.259 . S
O139 Tb120 2.418 . S
O139 C122 1.265 . S
O140 Tb120 2.384 . S
O140 C123 1.255 . S
O141 Eu121 2.366 . S
O141 C123 1.265 . S
C142 O133 1.255 . S
C142 O134 1.265 . S
O143 Tb120 2.479 . S
O143 C130 1.238 . S
O144 Tb120 2.471 . S
O144 C130 1.247 . S
C145 C148 1.380 . S
C145 C149 1.374 . S
C145 C151 1.507 . S
C146 C147 1.387 . S
C146 C150 1.391 . S
C147 C146 1.387 . S
C147 C148 1.384 . S
C147 H156 0.930 . S
C148 C145 1.380 . S
C148 C147 1.384 . S
C148 H157 0.931 . S
C149 C145 1.374 . S
C149 C150 1.390 . S
C149 H158 0.930 . S
C150 C146 1.391 . S
C150 C149 1.390 . S
C150 H159 0.930 . S
C151 Eu121 2.825 . S
C151 O136 1.238 . S
C151 O137 1.247 . S
C151 C145 1.507 . S
H152 C125 0.930 . S
H153 C126 0.931 . S
H154 C127 0.930 . S
H155 C128 0.930 . S
H156 C147 0.930 . S
H157 C148 0.931 . S
H158 C149 0.930 . S
H159 C150 0.930 . S
C160 C161 1.386 1_554 S
C160 C162 1.383 . S
C160 H176 0.951 . S
C161 C160 1.386 1_556 S
C161 C165 1.383 . S
C162 C160 1.383 . S
C162 C163 1.402 1_554 S
C162 H177 0.951 . S
C163 C162 1.402 1_556 S
C163 C164 1.375 . S
C163 C166 1.481 . S
C164 C163 1.375 . S
C164 C165 1.367 . S
C164 H178 0.951 . S
C165 C161 1.383 . S
C165 C164 1.367 . S
C165 H179 0.950 . S
C166 C163 1.481 . S
C166 C167 1.297 1_556 S
C166 H180 0.950 . S
C167 C166 1.297 1_554 S
C167 C168 1.479 . S
C167 H181 0.950 . S
C168 C167 1.479 . S
C168 C169 1.375 . S
C168 C174 1.404 1_554 S
C169 C168 1.375 . S
C169 C170 1.369 . S
C169 H182 0.950 . S
C170 C169 1.369 . S
C170 C171 1.392 . S
C170 H183 0.951 . S
C171 C170 1.392 . S
C171 C173 1.384 1_554 S
H172 C174 0.949 . S
C173 C171 1.384 1_556 S
C173 C174 1.385 . S
C173 H175 0.950 . S
C174 C168 1.404 1_556 S
C174 H172 0.949 . S
C174 C173 1.385 . S
H175 C173 0.950 . S
H176 C160 0.951 . S
H177 C162 0.951 . S
H178 C164 0.951 . S
H179 C165 0.950 . S
H180 C166 0.950 . S
H181 C167 0.950 . S
H182 C169 0.950 . S
H183 C170 0.951 . S
C184 C185 1.386 1_556 S
C184 C186 1.383 . S
C184 H200 0.951 . S
C185 C184 1.386 1_554 S
C185 C189 1.383 . S
C186 C184 1.383 . S
C186 C187 1.402 1_556 S
C186 H201 0.951 . S
C187 C186 1.402 1_554 S
C187 C188 1.375 . S
C187 C190 1.481 . S
C188 C187 1.375 . S
C188 C189 1.367 . S
C188 H202 0.951 . S
C189 C185 1.383 . S
C189 C188 1.367 . S
C189 H203 0.950 . S
C190 C187 1.481 . S
C190 C191 1.304 . S
C190 H204 0.950 . S
C191 C190 1.304 . S
C191 C192 1.479 . S
C191 H205 0.943 1_554 S
C192 C191 1.479 . S
C192 C193 1.375 1_554 S
C192 C198 1.404 . S
C193 C192 1.375 1_556 S
C193 C194 1.369 . S
C193 H206 0.950 . S
C194 C193 1.369 . S
C194 C195 1.392 . S
C194 H207 0.951 . S
C195 C194 1.392 . S
C195 C197 1.384 1_556 S
H196 C198 0.949 . S
C197 C195 1.384 1_554 S
C197 C198 1.385 . S
C197 H199 0.950 . S
C198 C192 1.404 . S
C198 H196 0.949 . S
C198 C197 1.385 . S
H199 C197 0.950 . S
H200 C184 0.951 . S
H201 C186 0.951 . S
H202 C188 0.951 . S
H203 C189 0.950 . S
H204 C190 0.950 . S
H205 C191 0.943 1_556 S
H206 C193 0.950 . S
H207 C194 0.951 . S
C208 C209 1.386 . S
C208 C210 1.383 . S
C208 H224 0.951 . S
C209 C208 1.386 . S
C209 C213 1.383 . S
C210 C208 1.383 . S
C210 C211 1.402 . S
C210 H225 0.951 . S
C211 C210 1.402 . S
C211 C212 1.375 . S
C211 C214 1.481 . S
C212 C211 1.375 . S
C212 C213 1.367 . S
C212 H226 0.951 . S
C213 C209 1.383 . S
C213 C212 1.367 . S
C213 H227 0.950 . S
C214 C211 1.481 . S
C214 C215 1.297 . S
C214 H228 0.950 . S
C215 C214 1.297 . S
C215 C216 1.479 . S
C215 H229 0.950 . S
C216 C215 1.479 . S
C216 C217 1.375 . S
C216 C222 1.404 . S
C217 C216 1.375 . S
C217 C218 1.369 . S
C217 H230 0.950 . S
C218 C217 1.369 . S
C218 C219 1.392 . S
C218 H231 0.951 . S
C219 C218 1.392 . S
C219 C221 1.384 . S
H220 C222 0.949 . S
C221 C219 1.384 . S
C221 C222 1.385 . S
C221 H223 0.950 . S
C222 C216 1.404 . S
C222 H220 0.949 . S
C222 C221 1.385 . S
H223 C221 0.950 . S
H224 C208 0.951 . S
H225 C210 0.951 . S
H226 C212 0.951 . S
H227 C213 0.950 . S
H228 C214 0.950 . S
H229 C215 0.950 . S
H230 C217 0.950 . S
H231 C218 0.951 . S
C232 C233 1.386 . S
C232 C234 1.383 . S
C232 H248 0.951 . S
C233 C232 1.386 . S
C233 C237 1.383 . S
C234 C232 1.383 . S
C234 C235 1.402 . S
C234 H249 0.951 . S
C235 C234 1.402 . S
C235 C236 1.375 . S
C235 C238 1.481 . S
C236 C235 1.375 . S
C236 C237 1.367 . S
C236 H250 0.951 . S
C237 C233 1.383 . S
C237 C236 1.367 . S
C237 H251 0.950 . S
C238 C235 1.481 . S
C238 C239 1.297 . S
C238 H252 0.950 . S
C239 C238 1.297 . S
C239 C240 1.479 . S
C239 H253 0.950 . S
C240 C239 1.479 . S
C240 C241 1.375 . S
C240 C246 1.404 . S
C241 C240 1.375 . S
C241 C242 1.369 . S
C241 H254 0.950 . S
C242 C241 1.369 . S
C242 C243 1.392 . S
C242 H255 0.951 . S
C243 C242 1.392 . S
C243 C245 1.384 . S
H244 C246 0.949 . S
C245 C243 1.384 . S
C245 C246 1.385 . S
C245 H247 0.950 . S
C246 C240 1.404 . S
C246 H244 0.949 . S
C246 C245 1.385 . S
H247 C245 0.950 . S
H248 C232 0.951 . S
H249 C234 0.951 . S
H250 C236 0.951 . S
H251 C237 0.950 . S
H252 C238 0.950 . S
H253 C239 0.950 . S
H254 C241 0.950 . S
H255 C242 0.951 . S
C256 C257 1.386 . S
C256 C258 1.383 1_545 S
C256 H272 0.951 1_545 S
C257 C256 1.386 . S
C257 C261 1.380 1_556 S
C258 C256 1.383 1_565 S
C258 C259 1.402 1_565 S
C258 H273 0.951 . S
C259 C258 1.402 1_545 S
C259 C260 1.375 1_556 S
C259 C262 1.481 . S
C260 C259 1.375 1_554 S
C260 C261 1.366 . S
C260 H274 0.951 . S
C261 C257 1.380 1_554 S
C261 C260 1.366 . S
C261 H275 0.953 . S
C262 C259 1.481 . S
C262 C263 1.297 1_545 S
C262 H276 0.950 1_556 S
C263 C262 1.297 1_565 S
C263 C264 1.479 . S
C263 H277 0.950 . S
C264 C263 1.479 . S
C264 C265 1.375 . S
C264 C270 1.404 1_565 S
C265 C264 1.375 . S
C265 C266 1.369 . S
C265 H278 0.950 . S
C266 C265 1.369 . S
C266 C267 1.392 1_556 S
C266 H279 0.951 . S
C267 C266 1.392 1_554 S
C267 C269 1.384 1_565 S
H268 C270 0.948 1_554 S
C269 C267 1.384 1_545 S
C269 C270 1.385 1_554 S
C269 H271 0.950 . S
C270 C264 1.404 1_545 S
C270 H268 0.948 1_556 S
C270 C269 1.385 1_556 S
H271 C269 0.950 . S
H272 C256 0.951 1_565 S
H273 C258 0.951 . S
H274 C260 0.951 . S
H275 C261 0.953 . S
H276 C262 0.950 1_554 S
H277 C263 0.950 . S
H278 C265 0.950 . S
H279 C266 0.951 . S
C280 C281 1.386 . S
C280 C282 1.383 . S
C280 H296 0.951 . S
C281 C280 1.386 . S
C281 C285 1.383 . S
C282 C280 1.383 . S
C282 C283 1.402 . S
C282 H297 0.951 . S
C283 C282 1.402 . S
C283 C284 1.375 . S
C283 C286 1.481 . S
C284 C283 1.375 . S
C284 C285 1.367 . S
C284 H298 0.951 . S
C285 C281 1.383 . S
C285 C284 1.367 . S
C285 H299 0.950 . S
C286 C283 1.481 . S
C286 C287 1.297 . S
C286 H300 0.950 . S
C287 C286 1.297 . S
C287 C288 1.482 . S
C287 H301 0.950 . S
C288 C287 1.482 . S
C288 C289 1.372 1_565 S
C288 C294 1.404 1_565 S
C289 C288 1.372 1_545 S
C289 C290 1.369 . S
C289 H302 0.950 . S
C290 C289 1.369 . S
C290 C291 1.392 . S
C290 H303 0.951 . S
C291 C290 1.392 . S
C291 C293 1.384 . S
H292 C294 0.949 1_565 S
C293 C291 1.384 . S
C293 C294 1.385 . S
C293 H295 0.950 . S
C294 C288 1.404 1_545 S
C294 H292 0.949 1_545 S
C294 C293 1.385 . S
H295 C293 0.950 . S
H296 C280 0.951 . S
H297 C282 0.951 . S
H298 C284 0.951 . S
H299 C285 0.950 . S
H300 C286 0.950 . S
H301 C287 0.950 . S
H302 C289 0.950 . S
H303 C290 0.951 . S
C304 C305 1.386 1_554 S
C304 C306 1.383 1_554 S
C304 H320 0.951 . S
C305 C304 1.386 1_556 S
C305 C309 1.383 . S
C306 C304 1.383 1_556 S
C306 C307 1.402 . S
C306 H321 0.951 1_556 S
C307 C306 1.402 . S
C307 C308 1.375 . S
C307 C310 1.481 . S
C308 C307 1.375 . S
C308 C309 1.367 . S
C308 H322 0.951 . S
C309 C305 1.383 . S
C309 C308 1.367 . S
C309 H323 0.950 . S
C310 C307 1.481 . S
C310 C311 1.297 1_655 S
C310 H324 0.950 1_655 S
C311 C310 1.297 1_455 S
C311 C312 1.479 . S
C311 H325 0.950 1_455 S
C312 C311 1.479 . S
C312 C313 1.375 1_556 S
C312 C318 1.404 . S
C313 C312 1.375 1_554 S
C313 C314 1.369 . S
C313 H326 0.950 . S
C314 C313 1.369 . S
C314 C315 1.392 . S
C314 H327 0.951 . S
C315 C314 1.392 . S
C315 C317 1.384 1_554 S
H316 C318 0.949 . S
C317 C315 1.384 1_556 S
C317 C318 1.385 . S
C317 H319 0.950 . S
C318 C312 1.404 . S
C318 H316 0.949 . S
C318 C317 1.385 . S
H319 C317 0.950 . S
H320 C304 0.951 . S
H321 C306 0.951 1_554 S
H322 C308 0.951 . S
H323 C309 0.950 . S
H324 C310 0.950 1_455 S
H325 C311 0.950 1_655 S
H326 C313 0.950 . S
H327 C314 0.951 . S
C328 C329 1.386 . S
C328 C330 1.383 . S
C328 H344 0.951 . S
C329 C328 1.386 . S
C329 C333 1.383 . S
C330 C328 1.383 . S
C330 C331 1.402 . S
C330 H345 0.951 . S
C331 C330 1.402 . S
C331 C332 1.375 . S
C331 C334 1.481 . S
C332 C331 1.375 . S
C332 C333 1.367 . S
C332 H346 0.951 . S
C333 C329 1.383 . S
C333 C332 1.367 . S
C333 H347 0.950 . S
C334 C331 1.481 . S
C334 C335 1.297 1_455 S
C334 H348 0.950 . S
C335 C334 1.297 1_655 S
C335 C336 1.479 . S
C335 H349 0.950 1_655 S
C336 C335 1.479 . S
C336 C337 1.375 . S
C336 C342 1.404 . S
C337 C336 1.375 . S
C337 C338 1.369 . S
C337 H350 0.950 . S
C338 C337 1.369 . S
C338 C339 1.392 . S
C338 H351 0.951 . S
C339 C338 1.392 . S
C339 C341 1.384 . S
H340 C342 0.949 . S
C341 C339 1.384 . S
C341 C342 1.385 . S
C341 H343 0.950 . S
C342 C336 1.404 . S
C342 H340 0.949 . S
C342 C341 1.385 . S
H343 C341 0.950 . S
H344 C328 0.951 . S
H345 C330 0.951 . S
H346 C332 0.951 . S
H347 C333 0.950 . S
H348 C334 0.950 . S
H349 C335 0.950 1_455 S
H350 C337 0.950 . S
H351 C338 0.951 . S
C352 C353 1.386 1_645 S
C352 C354 1.383 . S
C352 H368 0.951 . S
C353 C352 1.386 1_465 S
C353 C357 1.383 . S
C354 C352 1.383 . S
C354 C355 1.397 1_645 S
C354 H369 0.951 . S
C355 C354 1.397 1_465 S
C355 C356 1.380 . S
C355 C358 1.481 . S
C356 C355 1.380 . S
C356 C357 1.367 . S
C356 H370 0.951 . S
C357 C353 1.383 . S
C357 C356 1.367 . S
C357 H371 0.950 . S
C358 C355 1.481 . S
C358 C359 1.290 1_565 S
C358 H372 0.958 . S
C359 C358 1.290 1_545 S
C359 C360 1.480 . S
C359 H373 0.950 1_455 S
C360 C359 1.480 . S
C360 C361 1.375 1_455 S
C360 C366 1.404 1_545 S
C361 C360 1.375 1_655 S
C361 C362 1.369 . S
C361 H374 0.950 . S
C362 C361 1.369 . S
C362 C363 1.392 1_655 S
C362 H375 0.951 . S
C363 C362 1.392 1_455 S
C363 C365 1.384 1_545 S
H364 C366 0.949 . S
C365 C363 1.384 1_565 S
C365 C366 1.385 . S
C365 H367 0.950 . S
C366 C360 1.404 1_565 S
C366 H364 0.949 . S
C366 C365 1.385 . S
H367 C365 0.950 . S
H368 C352 0.951 . S
H369 C354 0.951 . S
H370 C356 0.951 . S
H371 C357 0.950 . S
H372 C358 0.958 . S
H373 C359 0.950 1_655 S
H374 C361 0.950 . S
H375 C362 0.951 . S
C376 C377 1.387 1_665 S
C376 C378 1.383 . S
C376 H392 0.951 . S
C377 C376 1.387 1_445 S
C377 C381 1.381 . S
C378 C376 1.383 . S
C378 C379 1.402 1_665 S
C378 H393 0.951 . S
C379 C378 1.402 1_445 S
C379 C380 1.375 . S
C379 C382 1.481 . S
C380 C379 1.375 . S
C380 C381 1.367 . S
C380 H394 0.951 . S
C381 C377 1.381 . S
C381 C380 1.367 . S
C381 H395 0.950 . S
C382 C379 1.481 . S
C382 C383 1.297 1_455 S
C382 H396 0.950 . S
C383 C382 1.297 1_655 S
C383 C384 1.479 . S
C383 H397 0.950 . S
C384 C383 1.479 . S
C384 C385 1.375 1_545 S
C384 C390 1.404 1_655 S
C385 C384 1.375 1_565 S
C385 C386 1.369 . S
C385 H398 0.950 . S
C386 C385 1.369 . S
C386 C387 1.392 1_565 S
C386 H399 0.951 . S
C387 C386 1.392 1_545 S
C387 C389 1.384 1_655 S
H388 C390 0.949 . S
C389 C387 1.384 1_455 S
C389 C390 1.385 . S
C389 H391 0.950 . S
C390 C384 1.404 1_455 S
C390 H388 0.949 . S
C390 C389 1.385 . S
H391 C389 0.950 . S
H392 C376 0.951 . S
H393 C378 0.951 . S
H394 C380 0.951 . S
H395 C381 0.950 . S
H396 C382 0.950 . S
H397 C383 0.950 . S
H398 C385 0.950 . S
H399 C386 0.951 . S
C400 C401 1.386 . S
C400 C402 1.383 . S
C400 H416 0.951 . S
C401 C400 1.386 . S
C401 C405 1.383 . S
C402 C400 1.383 . S
C402 C403 1.402 . S
C402 H417 0.951 . S
C403 C402 1.402 . S
C403 C404 1.375 . S
C403 C406 1.481 . S
C404 C403 1.375 . S
C404 C405 1.367 . S
C404 H418 0.951 . S
C405 C401 1.383 . S
C405 C404 1.367 . S
C405 H419 0.950 . S
C406 C403 1.481 . S
C406 C407 1.297 . S
C406 H420 0.950 . S
C407 C406 1.297 . S
C407 C408 1.479 . S
C407 H421 0.950 . S
C408 C407 1.479 . S
C408 C409 1.375 . S
C408 C414 1.404 . S
C409 C408 1.375 . S
C409 C410 1.369 . S
C409 H422 0.950 . S
C410 C409 1.369 . S
C410 C411 1.392 . S
C410 H423 0.951 . S
C411 C410 1.392 . S
C411 C413 1.384 . S
H412 C414 0.949 . S
C413 C411 1.384 . S
C413 C414 1.385 . S
C413 H415 0.950 . S
C414 C408 1.404 . S
C414 H412 0.949 . S
C414 C413 1.385 . S
H415 C413 0.950 . S
H416 C400 0.951 . S
H417 C402 0.951 . S
H418 C404 0.951 . S
H419 C405 0.950 . S
H420 C406 0.950 . S
H421 C407 0.950 . S
H422 C409 0.950 . S
H423 C410 0.951 . S
C424 C425 1.386 . S
C424 C426 1.383 . S
C424 H440 0.951 . S
C425 C424 1.386 . S
C425 C429 1.383 . S
C426 C424 1.383 . S
C426 C427 1.402 . S
C426 H441 0.951 . S
C427 C426 1.402 . S
C427 C428 1.375 . S
C427 C430 1.481 . S
C428 C427 1.375 . S
C428 C429 1.367 . S
C428 H442 0.951 . S
C429 C425 1.383 . S
C429 C428 1.367 . S
C429 H443 0.950 . S
C430 C427 1.481 . S
C430 C431 1.297 . S
C430 H444 0.950 . S
C431 C430 1.297 . S
C431 C432 1.479 . S
C431 H445 0.950 . S
C432 C431 1.479 . S
C432 C433 1.375 . S
C432 C438 1.404 . S
C433 C432 1.375 . S
C433 C434 1.369 . S
C433 H446 0.950 . S
C434 C433 1.369 . S
C434 C435 1.392 . S
C434 H447 0.951 . S
C435 C434 1.392 . S
C435 C437 1.384 . S
H436 C438 0.949 . S
C437 C435 1.384 . S
C437 C438 1.385 . S
C437 H439 0.950 . S
C438 C432 1.404 . S
C438 H436 0.949 . S
C438 C437 1.385 . S
H439 C437 0.950 . S
H440 C424 0.951 . S
H441 C426 0.951 . S
H442 C428 0.951 . S
H443 C429 0.950 . S
H444 C430 0.950 . S
H445 C431 0.950 . S
H446 C433 0.950 . S
H447 C434 0.951 . S
C161 C102 1.576 . S
C171 C3 1.548 . S
C185 C83 1.567 . S
C195 C22 1.569 . S
C209 C62 1.575 . S
C219 C123 1.539 . S
C233 C43 1.552 . S
C243 C142 1.567 . S
C257 C26 1.247 . S
C267 C9 1.198 . S
C281 C49 1.247 . S
C291 C66 1.198 . S
C305 C106 1.245 . S
C315 C89 1.221 . S
C329 C146 1.225 . S
C339 C129 1.253 . S
C353 C55 1.479 1_465 S
C363 C15 1.423 . S
C377 C2 1.487 1_445 S
C387 C42 1.498 1_645 S
C401 C135 1.456 . S
C411 C95 1.456 . S
C425 C122 1.450 . S
C435 C82 1.421 . S
