# Generated by pormake.
# Topology vcn, (7)-cn, num edge types: 1
# Building blocks:
#     Node 0, Type 0, BuildingBlock: HICVOG_clean_sbu_0, # of connection points: 7
#     Node 1, Type 0, BuildingBlock: HICVOG_clean_sbu_0, # of connection points: 7
#     Node 2, Type 0, BuildingBlock: HICVOG_clean_sbu_0, # of connection points: 7
#     Node 3, Type 0, BuildingBlock: HICVOG_clean_sbu_0, # of connection points: 7
#     Node 4, Type 0, BuildingBlock: HICVOG_clean_sbu_0, # of connection points: 7
#     Node 5, Type 0, BuildingBlock: HICVOG_clean_sbu_0, # of connection points: 7
#     Node 6, Type 0, BuildingBlock: HICVOG_clean_sbu_0, # of connection points: 7
#     Node 7, Type 0, BuildingBlock: HICVOG_clean_sbu_0, # of connection points: 7
#     Edge 8, Type (0, 0), BuildingBlock: ZUJKAS_clean_linker_0, # of connection points: 2
#     Edge 9, Type (0, 0), BuildingBlock: ZUJKAS_clean_linker_0, # of connection points: 2
#     Edge 10, Type (0, 0), BuildingBlock: ZUJKAS_clean_linker_0, # of connection points: 2
#     Edge 11, Type (0, 0), BuildingBlock: ZUJKAS_clean_linker_0, # of connection points: 2
#     Edge 12, Type (0, 0), BuildingBlock: ZUJKAS_clean_linker_0, # of connection points: 2
#     Edge 13, Type (0, 0), BuildingBlock: ZUJKAS_clean_linker_0, # of connection points: 2
#     Edge 14, Type (0, 0), BuildingBlock: ZUJKAS_clean_linker_0, # of connection points: 2
#     Edge 15, Type (0, 0), BuildingBlock: ZUJKAS_clean_linker_0, # of connection points: 2
#     Edge 16, Type (0, 0), BuildingBlock: ZUJKAS_clean_linker_0, # of connection points: 2
#     Edge 17, Type (0, 0), BuildingBlock: ZUJKAS_clean_linker_0, # of connection points: 2
#     Edge 18, Type (0, 0), BuildingBlock: ZUJKAS_clean_linker_0, # of connection points: 2
#     Edge 19, Type (0, 0), BuildingBlock: ZUJKAS_clean_linker_0, # of connection points: 2
#     Edge 20, Type (0, 0), BuildingBlock: ZUJKAS_clean_linker_0, # of connection points: 2
#     Edge 21, Type (0, 0), BuildingBlock: ZUJKAS_clean_linker_0, # of connection points: 2
#     Edge 22, Type (0, 0), BuildingBlock: ZUJKAS_clean_linker_0, # of connection points: 2
#     Edge 23, Type (0, 0), BuildingBlock: ZUJKAS_clean_linker_0, # of connection points: 2
#     Edge 24, Type (0, 0), BuildingBlock: ZUJKAS_clean_linker_0, # of connection points: 2
#     Edge 25, Type (0, 0), BuildingBlock: ZUJKAS_clean_linker_0, # of connection points: 2
#     Edge 26, Type (0, 0), BuildingBlock: ZUJKAS_clean_linker_0, # of connection points: 2
#     Edge 27, Type (0, 0), BuildingBlock: ZUJKAS_clean_linker_0, # of connection points: 2
#     Edge 28, Type (0, 0), BuildingBlock: ZUJKAS_clean_linker_0, # of connection points: 2
#     Edge 29, Type (0, 0), BuildingBlock: ZUJKAS_clean_linker_0, # of connection points: 2
#     Edge 30, Type (0, 0), BuildingBlock: ZUJKAS_clean_linker_0, # of connection points: 2
#     Edge 31, Type (0, 0), BuildingBlock: ZUJKAS_clean_linker_0, # of connection points: 2
#     Edge 32, Type (0, 0), BuildingBlock: ZUJKAS_clean_linker_0, # of connection points: 2
#     Edge 33, Type (0, 0), BuildingBlock: ZUJKAS_clean_linker_0, # of connection points: 2
#     Edge 34, Type (0, 0), BuildingBlock: ZUJKAS_clean_linker_0, # of connection points: 2
#     Edge 35, Type (0, 0), BuildingBlock: ZUJKAS_clean_linker_0, # of connection points: 2
# Relax obj value: 0.235
# Max RMSD: 0.223
# Mean RMSD: 0.223
data_MOF--net-vcn--node1-HICVOG_clean_sbu_0--edge1-ZUJKAS_clean_linker_0
_symmetry_space_group_name_H-M    P1
_symmetry_Int_Tables_number       1
_symmetry_cell_setting            triclinic
loop_
_symmetry_equiv_pos_as_xyz
'x, y, z'
_cell_length_a     49.364481
_cell_length_b     78.865877
_cell_length_c     18.826994
_cell_angle_alpha  90.025794
_cell_angle_beta   89.908079
_cell_angle_gamma 90.001396
loop_
_atom_site_label
_atom_site_type_symbol
_atom_site_fract_x
_atom_site_fract_y
_atom_site_fract_z
_atom_type_partial_charge
Zn0 Zn 0.10081 0.38091 0.15663 0.0
C1 C 0.05014 0.34675 0.06936 0.0
N2 N 0.05564 0.35523 0.00929 0.0
C3 C 0.06945 0.36881 0.0325 0.0
N4 N 0.07282 0.36858 0.10386 0.0
N5 N 0.05988 0.35489 0.12703 0.0
C6 C 0.06745 0.32345 0.28588 0.0
O7 O 0.08792 0.33409 0.28417 0.0
O8 O 0.10493 0.40452 0.11545 0.0
Zn9 Zn 0.04407 0.35208 0.22097 0.0
N10 N 0.13447 0.36831 0.14423 0.0
C11 C 0.15555 0.34264 0.10725 0.0
C12 C 0.13248 0.35252 0.11558 0.0
C13 C 0.15887 0.37455 0.16603 0.0
N14 N 0.17976 0.34879 0.129 0.0
C15 C 0.18237 0.36448 0.15853 0.0
O16 O 0.06251 0.36579 0.29671 0.0
C17 C 0.08024 0.37688 0.31203 0.0
O18 O 0.09513 0.38352 0.26413 0.0
H19 H 0.11312 0.34752 0.09938 0.0
H20 H 0.15967 0.38694 0.19052 0.0
C21 C 0.98354 0.35305 0.22902 0.0
C22 C 0.95911 0.36241 0.22746 0.0
C23 C 0.98404 0.38724 0.19836 0.0
C24 C 0.00802 0.37805 0.2007 0.0
N25 N 0.00748 0.36124 0.21629 0.0
N26 N 0.96032 0.37927 0.21219 0.0
H27 H 0.9836 0.33968 0.24208 0.0
C28 C 0.08388 0.41351 0.10556 0.0
O29 O 0.06005 0.40703 0.12081 0.0
O30 O 0.04512 0.32788 0.25753 0.0
H31 H 0.02718 0.38429 0.19111 0.0
H32 H 0.15423 0.33009 0.08429 0.0
H33 H 0.98427 0.40065 0.18638 0.0
Zn34 Zn 0.53865 0.62264 0.66307 0.0
C35 C 0.58982 0.65667 0.57644 0.0
N36 N 0.58488 0.64809 0.51631 0.0
C37 C 0.57076 0.63458 0.5391 0.0
N38 N 0.56671 0.63495 0.61028 0.0
N39 N 0.5794 0.64869 0.63361 0.0
C40 C 0.57008 0.68096 0.78685 0.0
O41 O 0.5499 0.6701 0.78552 0.0
O42 O 0.53459 0.59899 0.62211 0.0
Zn43 Zn 0.59447 0.65201 0.72751 0.0
N44 N 0.50503 0.63523 0.65016 0.0
C45 C 0.484 0.66085 0.61275 0.0
C46 C 0.50707 0.651 0.62146 0.0
C47 C 0.48057 0.62896 0.67158 0.0
N48 N 0.45973 0.65468 0.63413 0.0
C49 C 0.45707 0.639 0.66364 0.0
O50 O 0.57584 0.63852 0.80373 0.0
C51 C 0.55842 0.62723 0.81895 0.0
O52 O 0.54409 0.62022 0.77084 0.0
H53 H 0.52647 0.65601 0.60546 0.0
H54 H 0.47972 0.61657 0.69608 0.0
C55 C 0.65512 0.65107 0.73618 0.0
C56 C 0.6795 0.64164 0.73454 0.0
C57 C 0.65431 0.6168 0.70695 0.0
C58 C 0.63042 0.62605 0.70934 0.0
N59 N 0.63111 0.64291 0.72414 0.0
N60 N 0.67811 0.62474 0.71991 0.0
H61 H 0.65515 0.66447 0.74855 0.0
C62 C 0.55559 0.59018 0.60884 0.0
O63 O 0.57958 0.59679 0.62099 0.0
O64 O 0.59279 0.6765 0.76059 0.0
H65 H 0.61121 0.61984 0.70017 0.0
H66 H 0.48536 0.67339 0.58976 0.0
H67 H 0.65398 0.60336 0.69548 0.0
Zn68 Zn 0.04486 0.65204 0.7944 0.0
C69 C 0.06993 0.63489 0.98208 0.0
N70 N 0.05611 0.64849 1.00531 0.0
C71 C 0.05062 0.6569 0.94511 0.0
N72 N 0.06045 0.64875 0.88765 0.0
N73 N 0.0733 0.63506 0.91076 0.0
C74 C 0.08287 0.58954 0.90455 0.0
O75 O 0.05923 0.59611 0.88831 0.0
O76 O 0.0463 0.67655 0.76178 0.0
Zn77 Zn 0.10086 0.62244 0.85795 0.0
N78 N 0.0082 0.64297 0.79909 0.0
C79 C 0.98498 0.617 0.81956 0.0
C80 C 0.00888 0.62623 0.81589 0.0
C81 C 0.98419 0.65105 0.78608 0.0
N82 N 0.96119 0.62486 0.80572 0.0
C83 C 0.9598 0.64163 0.78896 0.0
O84 O 0.09535 0.62044 0.75048 0.0
C85 C 0.08081 0.62732 0.70259 0.0
O86 O 0.06323 0.63853 0.71781 0.0
H87 H 0.02809 0.62009 0.8256 0.0
H88 H 0.98417 0.66435 0.772 0.0
C89 C 0.15933 0.62689 0.85746 0.0
C90 C 0.18343 0.63616 0.86828 0.0
C91 C 0.15725 0.65967 0.90754 0.0
C92 C 0.13357 0.65056 0.8958 0.0
N93 N 0.13498 0.63431 0.87191 0.0
N94 N 0.18147 0.6523 0.89354 0.0
H95 H 0.15978 0.61395 0.8384 0.0
C96 C 0.06893 0.68111 0.73538 0.0
O97 O 0.08916 0.67028 0.73595 0.0
O98 O 0.10401 0.5986 0.8973 0.0
H99 H 0.11423 0.65644 0.90619 0.0
H100 H 0.98532 0.60365 0.83268 0.0
H101 H 0.15642 0.67255 0.9272 0.0
Zn102 Zn 0.59457 0.35187 0.29788 0.0
C103 C 0.56845 0.36904 0.48482 0.0
N104 N 0.58193 0.35545 0.509 0.0
C105 C 0.58758 0.34679 0.44943 0.0
N106 N 0.5782 0.35485 0.39113 0.0
N107 N 0.56543 0.36868 0.41347 0.0
C108 C 0.5554 0.41468 0.4001 0.0
O109 O 0.57838 0.40872 0.37524 0.0
O110 O 0.5933 0.32759 0.2618 0.0
Zn111 Zn 0.53799 0.38128 0.36052 0.0
N112 N 0.63133 0.36075 0.30468 0.0
C113 C 0.65505 0.38626 0.33062 0.0
C114 C 0.63099 0.37722 0.32576 0.0
C115 C 0.65516 0.35275 0.28869 0.0
N116 N 0.67866 0.3785 0.31368 0.0
C117 C 0.67968 0.36198 0.2928 0.0
O118 O 0.544 0.38348 0.25338 0.0
C119 C 0.55913 0.37689 0.2059 0.0
O120 O 0.5768 0.36577 0.22145 0.0
H121 H 0.61194 0.38332 0.33783 0.0
H122 H 0.65495 0.33967 0.27122 0.0
C123 C 0.47952 0.37671 0.35836 0.0
C124 C 0.45539 0.36745 0.36907 0.0
C125 C 0.48145 0.34411 0.41029 0.0
C126 C 0.50516 0.35321 0.39873 0.0
N127 N 0.50382 0.36938 0.37387 0.0
N128 N 0.45728 0.35139 0.39524 0.0
H129 H 0.47912 0.38959 0.33864 0.0
C130 C 0.57121 0.32328 0.23183 0.0
O131 O 0.55104 0.33415 0.23112 0.0
O132 O 0.53473 0.40505 0.40062 0.0
H133 H 0.52446 0.3474 0.41002 0.0
H134 H 0.65497 0.39941 0.34704 0.0
H135 H 0.48223 0.3313 0.43069 0.0
Zn136 Zn 0.60221 0.8806 0.16439 0.0
C137 C 0.55302 0.84562 0.07683 0.0
N138 N 0.56107 0.85288 0.01601 0.0
C139 C 0.57455 0.86667 0.03838 0.0
N140 N 0.57528 0.86772 0.11017 0.0
N141 N 0.56127 0.85452 0.13401 0.0
C142 C 0.56858 0.82202 0.2846 0.0
O143 O 0.5892 0.83255 0.28257 0.0
O144 O 0.60548 0.90438 0.12461 0.0
Zn145 Zn 0.54534 0.85145 0.22717 0.0
N146 N 0.63649 0.86876 0.15205 0.0
C147 C 0.65856 0.8429 0.12251 0.0
C148 C 0.63499 0.85227 0.13126 0.0
C149 C 0.66088 0.87624 0.16545 0.0
N150 N 0.68278 0.85028 0.13603 0.0
C151 C 0.68496 0.86671 0.1577 0.0
O152 O 0.56417 0.86446 0.30441 0.0
C153 C 0.58178 0.87561 0.31994 0.0
O154 O 0.59613 0.88271 0.27205 0.0
H155 H 0.61562 0.84635 0.12186 0.0
H156 H 0.66125 0.88939 0.18157 0.0
C157 C 0.48463 0.8528 0.22315 0.0
C158 C 0.4605 0.86236 0.21585 0.0
C159 C 0.48682 0.88757 0.20827 0.0
C160 C 0.5104 0.87815 0.21523 0.0
N161 N 0.50903 0.86104 0.22228 0.0
N162 N 0.46262 0.8795 0.20857 0.0
H163 H 0.48411 0.83914 0.22787 0.0
C164 C 0.58487 0.91406 0.12552 0.0
O165 O 0.5619 0.90814 0.15065 0.0
O166 O 0.54592 0.8269 0.25957 0.0
H167 H 0.5299 0.88438 0.21454 0.0
H168 H 0.65765 0.82979 0.10573 0.0
H169 H 0.4877 0.9012 0.20235 0.0
Zn170 Zn 0.03847 0.12214 0.66021 0.0
C171 C 0.08426 0.1586 0.57149 0.0
N172 N 0.07584 0.1516 0.51058 0.0
C173 C 0.06345 0.13736 0.53247 0.0
N174 N 0.06382 0.13578 0.60417 0.0
N175 N 0.0773 0.14916 0.6283 0.0
C176 C 0.07299 0.17977 0.7929 0.0
O177 O 0.05448 0.1681 0.8038 0.0
O178 O 0.03532 0.09866 0.61753 0.0
Zn179 Zn 0.09521 0.15177 0.71898 0.0
N180 N 1.00371 0.13372 0.65437 0.0
C181 C 0.98108 0.16 0.63667 0.0
C182 C 1.00485 0.15065 0.64113 0.0
C183 C 0.97948 0.12573 0.66455 0.0
N184 N 0.95702 0.15212 0.64681 0.0
C185 C 0.95522 0.13522 0.66106 0.0
O186 O 0.07943 0.13737 0.79712 0.0
C187 C 0.06231 0.12596 0.81337 0.0
O188 O 0.0468 0.11941 0.76666 0.0
H189 H 0.02409 0.15694 0.6344 0.0
H190 H 0.97931 0.11225 0.67477 0.0
C191 C 0.15586 0.15223 0.71367 0.0
C192 C 0.18057 0.14425 0.69514 0.0
C193 C 0.15604 0.11977 0.65915 0.0
C194 C 0.13186 0.12764 0.67734 0.0
N195 N 0.13206 0.14368 0.70366 0.0
N196 N 0.17965 0.12822 0.66823 0.0
H197 H 0.1555 0.16506 0.73407 0.0
C198 C 0.0546 0.08822 0.62726 0.0
O199 O 0.07594 0.09321 0.66327 0.0
O200 O 0.09349 0.17616 0.75449 0.0
H201 H 0.11283 0.1211 0.66984 0.0
H202 H 0.98172 0.17346 0.62584 0.0
H203 H 0.15609 0.10704 0.6377 0.0
Zn204 Zn 0.54435 0.15124 0.80118 0.0
C205 C 0.5741 0.13579 0.98669 0.0
N206 N 0.56114 0.14969 0.01002 0.0
C207 C 0.55418 0.1575 0.94944 0.0
N208 N 0.56239 0.14875 0.8918 0.0
N209 N 0.57552 0.13517 0.91507 0.0
C210 C 0.58384 0.08937 0.91255 0.0
O211 O 0.5601 0.09605 0.89821 0.0
O212 O 0.54545 0.17571 0.76627 0.0
Zn213 Zn 0.60173 0.12189 0.8609 0.0
N214 N 0.50769 0.14255 0.81553 0.0
C215 C 0.48509 0.11809 0.8596 0.0
C216 C 0.50879 0.1269 0.84539 0.0
C217 C 0.48339 0.14988 0.79874 0.0
N218 N 0.46102 0.1252 0.8426 0.0
C219 C 0.45912 0.14083 0.81229 0.0
O220 O 0.59407 0.11948 0.75481 0.0
C221 C 0.57832 0.12569 0.70794 0.0
O222 O 0.56069 0.13686 0.72355 0.0
H223 H 0.52815 0.12126 0.8576 0.0
H224 H 0.48308 0.16226 0.77399 0.0
C225 C 0.66049 0.12572 0.85715 0.0
C226 C 0.68477 0.13513 0.86231 0.0
C227 C 0.65897 0.1596 0.89234 0.0
C228 C 0.63518 0.15032 0.8862 0.0
N229 N 0.63629 0.13358 0.86927 0.0
N230 N 0.68301 0.15184 0.88017 0.0
H231 H 0.66059 0.11237 0.84412 0.0
C232 C 0.5656 0.17948 0.72695 0.0
O233 O 0.58407 0.16788 0.71429 0.0
O234 O 0.60502 0.09822 0.90218 0.0
H235 H 0.61595 0.15651 0.89473 0.0
H236 H 0.48577 0.10562 0.88345 0.0
H237 H 0.65837 0.17291 0.9061 0.0
Zn238 Zn 0.09526 0.8513 0.2939 0.0
C239 C 0.0695 0.8681 0.48183 0.0
N240 N 0.08337 0.85453 0.50496 0.0
C241 C 0.08925 0.84624 0.44462 0.0
N242 N 0.07959 0.85445 0.3872 0.0
N243 N 0.06645 0.86804 0.41046 0.0
C244 C 0.05406 0.91507 0.38425 0.0
O245 O 0.07437 0.91037 0.34354 0.0
O246 O 0.09382 0.82682 0.26093 0.0
Zn247 Zn 0.03897 0.88066 0.35792 0.0
N248 N 0.13196 0.86031 0.29858 0.0
C249 C 0.15571 0.8861 0.31898 0.0
C250 C 0.13165 0.877 0.31652 0.0
C251 C 0.15577 0.85215 0.28377 0.0
N252 N 0.17929 0.87819 0.30295 0.0
C253 C 0.18025 0.86145 0.28547 0.0
O254 O 0.04474 0.88292 0.25058 0.0
C255 C 0.05936 0.8761 0.20256 0.0
O256 O 0.07693 0.86488 0.21757 0.0
H257 H 0.11261 0.88322 0.3279 0.0
H258 H 0.15556 0.8389 0.26892 0.0
C259 C 0.98045 0.87604 0.35815 0.0
C260 C 0.95649 0.86636 0.36513 0.0
C261 C 0.98323 0.84245 0.39721 0.0
C262 C 0.00668 0.85198 0.3891 0.0
N263 N 1.00494 0.86858 0.37028 0.0
N264 N 0.95889 0.84981 0.3849 0.0
H265 H 0.97993 0.88928 0.34347 0.0
C266 C 0.07119 0.82225 0.23471 0.0
O267 O 0.05095 0.83308 0.23549 0.0
O268 O 0.03577 0.90428 0.39922 0.0
H269 H 0.02615 0.84611 0.39763 0.0
H270 H 0.15566 0.89942 0.33277 0.0
H271 H 0.98431 0.82925 0.4125 0.0
H272 H 0.40777 0.35913 0.43218 0.0
H273 H 0.36208 0.36617 0.39365 0.0
H274 H 0.39463 0.39797 0.22802 0.0
H275 H 0.44071 0.39059 0.26495 0.0
H276 H 0.33247 0.39618 0.37498 0.0
H277 H 0.35055 0.36246 0.1191 0.0
H278 H 0.37377 0.36094 0.19267 0.0
H279 H 0.37285 0.3798 0.13932 0.0
C280 C 0.40533 0.36777 0.38795 0.0
C281 C 0.42804 0.37417 0.35148 0.0
C282 C 0.37912 0.37187 0.36627 0.0
C283 C 0.3749 0.38241 0.30737 0.0
C284 C 0.39743 0.38963 0.2731 0.0
H285 H 0.20355 0.39707 0.17288 0.0
H286 H 0.24995 0.40472 0.20702 0.0
C287 C 0.4238 0.38552 0.29483 0.0
C288 C 0.34698 0.38436 0.2791 0.0
H289 H 0.30626 0.3712 0.14331 0.0
C290 C 0.32675 0.39104 0.3237 0.0
C291 C 0.33956 0.37751 0.21239 0.0
C292 C 0.36019 0.36965 0.16306 0.0
C293 C 0.29921 0.39035 0.30474 0.0
C294 C 0.29179 0.38288 0.23937 0.0
C295 C 0.31209 0.37699 0.19328 0.0
C296 C 0.2632 0.37882 0.22195 0.0
C297 C 0.2781 0.39663 0.35641 0.0
C298 C 0.25529 0.36178 0.21925 0.0
C299 C 0.22895 0.35737 0.20024 0.0
C300 C 0.20971 0.36989 0.18316 0.0
C301 C 0.21756 0.38706 0.18684 0.0
C302 C 0.24414 0.39148 0.20605 0.0
H303 H 0.28709 0.40067 0.40778 0.0
H304 H 0.26726 0.4076 0.33295 0.0
H305 H 0.26291 0.38654 0.3668 0.0
H306 H 0.26965 0.35181 0.23155 0.0
H307 H 0.22373 0.34404 0.19863 0.0
H308 H 0.23079 0.64458 0.93211 0.0
H309 H 0.27662 0.6374 0.89475 0.0
H310 H 0.24468 0.60522 0.72977 0.0
H311 H 0.19847 0.61273 0.7655 0.0
H312 H 0.30628 0.6073 0.87758 0.0
H313 H 0.28912 0.64055 0.62041 0.0
H314 H 0.26566 0.64222 0.69358 0.0
H315 H 0.26674 0.62325 0.64087 0.0
C316 C 0.2334 0.63582 0.88828 0.0
C317 C 0.21083 0.62935 0.85161 0.0
C318 C 0.25968 0.63164 0.86728 0.0
C319 C 0.26411 0.62096 0.80888 0.0
C320 C 0.24171 0.61367 0.77447 0.0
H321 H 0.43598 0.60637 0.6775 0.0
H322 H 0.38949 0.59865 0.71079 0.0
C323 C 0.21526 0.61785 0.79552 0.0
C324 C 0.29212 0.61895 0.78113 0.0
H325 H 0.33335 0.63193 0.64579 0.0
C326 C 0.31218 0.61235 0.82627 0.0
C327 C 0.29979 0.62569 0.71438 0.0
C328 C 0.27933 0.63344 0.66447 0.0
C329 C 0.3398 0.61304 0.80781 0.0
C330 C 0.34745 0.62043 0.74242 0.0
C331 C 0.32733 0.62621 0.69578 0.0
C332 C 0.37608 0.62453 0.72555 0.0
C333 C 0.36072 0.60686 0.86001 0.0
C334 C 0.38392 0.64158 0.72306 0.0
C335 C 0.41031 0.64603 0.70454 0.0
C336 C 0.42966 0.63354 0.68777 0.0
C337 C 0.42188 0.61635 0.69124 0.0
C338 C 0.39525 0.6119 0.70996 0.0
H339 H 0.35153 0.60281 0.91116 0.0
H340 H 0.37179 0.59593 0.83684 0.0
H341 H 0.37575 0.61702 0.87072 0.0
H342 H 0.36947 0.65152 0.73512 0.0
H343 H 0.41548 0.65937 0.70306 0.0
H344 H 0.70032 0.673 0.69563 0.0
H345 H 0.74786 0.68224 0.70542 0.0
H346 H 0.76761 0.63565 0.81328 0.0
H347 H 0.72064 0.62653 0.80456 0.0
H348 H 0.79333 0.66428 0.87216 0.0
H349 H 0.80691 0.66041 0.57869 0.0
H350 H 0.78068 0.67407 0.61234 0.0
H351 H 0.77765 0.65153 0.62257 0.0
C352 C 0.71471 0.66494 0.72286 0.0
C353 C 0.70671 0.64898 0.74904 0.0
C354 C 0.74192 0.67015 0.72779 0.0
C355 C 0.76143 0.65952 0.75925 0.0
C356 C 0.75303 0.64406 0.78866 0.0
H357 H 0.91849 0.62588 0.7221 0.0
H358 H 0.87157 0.63498 0.71196 0.0
C359 C 0.72612 0.63884 0.78337 0.0
C360 C 0.79094 0.66353 0.75817 0.0
H361 H 0.84602 0.6629 0.64783 0.0
C362 C 0.80487 0.66443 0.8231 0.0
C363 C 0.80598 0.66358 0.69407 0.0
C364 C 0.79222 0.66226 0.62277 0.0
C365 C 0.83337 0.66433 0.82586 0.0
C366 C 0.84841 0.66349 0.76185 0.0
C367 C 0.83448 0.66366 0.69681 0.0
C368 C 0.87791 0.6594 0.76156 0.0
C369 C 0.84712 0.66383 0.89735 0.0
C370 C 0.89749 0.67031 0.791 0.0
C371 C 0.92468 0.6651 0.79679 0.0
C372 C 0.93258 0.64886 0.77349 0.0
C373 C 0.91309 0.63841 0.74111 0.0
C374 C 0.8862 0.64362 0.735 0.0
H375 H 0.83242 0.6625 0.94174 0.0
H376 H 0.86166 0.6531 0.89972 0.0
H377 H 0.85869 0.67574 0.90541 0.0
H378 H 0.89163 0.68264 0.81111 0.0
H379 H 0.93912 0.67341 0.82246 0.0
H380 H 0.91903 0.37683 0.30418 0.0
H381 H 0.8721 0.3677 0.31553 0.0
H382 H 0.89002 0.32258 0.1949 0.0
H383 H 0.93756 0.33177 0.18327 0.0
H384 H 0.84539 0.34118 0.1431 0.0
H385 H 0.83417 0.33087 0.43167 0.0
H386 H 0.85051 0.35068 0.41284 0.0
H387 H 0.86682 0.33113 0.38804 0.0
C388 C 0.91318 0.36477 0.2813 0.0
C389 C 0.93207 0.35499 0.24315 0.0
C390 C 0.88632 0.3595 0.28824 0.0
C391 C 0.87751 0.34433 0.25696 0.0
C392 C 0.89643 0.33424 0.22019 0.0
H393 H 0.70112 0.33053 0.32589 0.0
H394 H 0.74861 0.32152 0.31061 0.0
C395 C 0.9236 0.33944 0.21394 0.0
C396 C 0.84802 0.34027 0.25721 0.0
H397 H 0.79324 0.33883 0.36835 0.0
C398 C 0.83404 0.34021 0.1923 0.0
C399 C 0.83309 0.33876 0.32119 0.0
C400 C 0.84697 0.33768 0.39233 0.0
C401 C 0.80554 0.34014 0.19005 0.0
C402 C 0.79061 0.34031 0.25434 0.0
C403 C 0.80459 0.33889 0.31897 0.0
C404 C 0.76113 0.34438 0.25613 0.0
C405 C 0.79168 0.34056 0.11876 0.0
C406 C 0.75233 0.36012 0.23024 0.0
C407 C 0.7255 0.36527 0.23922 0.0
C408 C 0.70663 0.35482 0.27412 0.0
C409 C 0.71507 0.33874 0.29778 0.0
C410 C 0.74221 0.33364 0.28947 0.0
H411 H 0.80443 0.33452 0.07715 0.0
H412 H 0.77177 0.33402 0.12064 0.0
H413 H 0.78828 0.35395 0.10298 0.0
H414 H 0.76654 0.36881 0.20576 0.0
H415 H 0.71968 0.37775 0.22063 0.0
H416 H 0.70012 0.89464 0.24025 0.0
H417 H 0.74604 0.90335 0.27144 0.0
H418 H 0.7784 0.86198 0.14784 0.0
H419 H 0.73311 0.85378 0.11311 0.0
H420 H 0.78162 0.88721 0.34638 0.0
H421 H 0.82887 0.89802 0.08609 0.0
H422 H 0.79264 0.89606 0.09614 0.0
H423 H 0.81357 0.87745 0.08554 0.0
C424 C 0.71691 0.88769 0.21757 0.0
C425 C 0.71257 0.87351 0.17331 0.0
C426 C 0.74329 0.89265 0.2361 0.0
C427 C 0.76587 0.88357 0.21087 0.0
C428 C 0.76154 0.8696 0.16622 0.0
H429 H 0.90848 0.85283 0.40766 0.0
H430 H 0.86308 0.86112 0.37429 0.0
C431 C 0.73538 0.86476 0.14718 0.0
C432 C 0.79379 0.88738 0.23633 0.0
H433 H 0.85954 0.88809 0.17983 0.0
C434 C 0.7986 0.88782 0.30983 0.0
C435 C 0.81609 0.88872 0.18918 0.0
C436 C 0.81243 0.89025 0.10991 0.0
C437 C 0.82507 0.88806 0.33716 0.0
C438 C 0.84738 0.88721 0.28983 0.0
C439 C 0.84256 0.88831 0.21646 0.0
C440 C 0.87535 0.8833 0.31464 0.0
C441 C 0.82873 0.88887 0.41662 0.0
C442 C 0.89781 0.89268 0.29079 0.0
C443 C 0.92425 0.88768 0.30847 0.0
C444 C 0.92877 0.87316 0.35052 0.0
C445 C 0.90608 0.86408 0.37531 0.0
C446 C 0.87985 0.86897 0.35708 0.0
H447 H 0.81221 0.89636 0.4417 0.0
H448 H 0.82771 0.87586 0.43888 0.0
H449 H 0.84846 0.89463 0.43133 0.0
H450 H 0.89493 0.90367 0.25715 0.0
H451 H 0.94094 0.8949 0.28683 0.0
H452 H 0.94055 0.10618 0.73661 0.0
H453 H 0.89464 0.09672 0.76534 0.0
H454 H 0.86183 0.139 0.6485 0.0
H455 H 0.9071 0.14798 0.61648 0.0
H456 H 0.85875 0.1121 0.84288 0.0
H457 H 0.81181 0.10326 0.5814 0.0
H458 H 0.84803 0.10522 0.59161 0.0
H459 H 0.827 0.12386 0.58345 0.0
C460 C 0.92363 0.11315 0.71485 0.0
C461 C 0.92778 0.12784 0.67356 0.0
C462 C 0.89729 0.10778 0.73191 0.0
C463 C 0.8746 0.11692 0.70798 0.0
C464 C 0.87879 0.13134 0.66581 0.0
H465 H 0.73313 0.14764 0.90676 0.0
H466 H 0.77827 0.13873 0.87316 0.0
C467 C 0.9049 0.13662 0.64834 0.0
C468 C 0.8467 0.11279 0.73286 0.0
H469 H 0.78102 0.11277 0.67636 0.0
C470 C 0.84181 0.11181 0.80627 0.0
C471 C 0.82444 0.11185 0.68559 0.0
C472 C 0.8282 0.1109 0.60615 0.0
C473 C 0.81531 0.11153 0.83358 0.0
C474 C 0.79308 0.11286 0.7864 0.0
C475 C 0.79795 0.11219 0.71292 0.0
C476 C 0.76523 0.11701 0.81169 0.0
C477 C 0.81154 0.11023 0.91291 0.0
C478 C 0.74244 0.10808 0.78705 0.0
C479 C 0.71617 0.11343 0.805 0.0
C480 C 0.71219 0.12787 0.84797 0.0
C481 C 0.73517 0.13647 0.87366 0.0
C482 C 0.76123 0.13123 0.85527 0.0
H483 H 0.82781 0.10239 0.93702 0.0
H484 H 0.8129 0.12307 0.93673 0.0
H485 H 0.79162 0.10459 0.92696 0.0
H486 H 0.74495 0.0972 0.75252 0.0
H487 H 0.69919 0.1066 0.78276 0.0
H488 H 0.19891 0.16569 0.80145 0.0
H489 H 0.2461 0.17425 0.82299 0.0
H490 H 0.27078 0.14839 0.63168 0.0
H491 H 0.22412 0.14019 0.60936 0.0
H492 H 0.28669 0.15238 0.84796 0.0
H493 H 0.31564 0.19064 0.61526 0.0
H494 H 0.28067 0.18645 0.63758 0.0
H495 H 0.30007 0.17126 0.58706 0.0
C496 C 0.21428 0.16235 0.76279 0.0
C497 C 0.20769 0.15228 0.70355 0.0
C498 C 0.24129 0.16716 0.77536 0.0
C499 C 0.26209 0.16221 0.72842 0.0
C500 C 0.25521 0.1528 0.66781 0.0
H501 H 0.4154 0.12177 0.77876 0.0
H502 H 0.36868 0.13064 0.76352 0.0
C503 C 0.22843 0.14795 0.65549 0.0
C504 C 0.29126 0.16469 0.74649 0.0
H505 H 0.35246 0.17478 0.67183 0.0
C506 C 0.30095 0.15772 0.81021 0.0
C507 C 0.31008 0.1718 0.6979 0.0
C508 C 0.301 0.18062 0.63102 0.0
C509 C 0.32886 0.15642 0.82383 0.0
C510 C 0.34767 0.16204 0.77212 0.0
C511 C 0.33806 0.17026 0.71107 0.0
C512 C 0.37682 0.15737 0.77677 0.0
C513 C 0.33805 0.14831 0.89222 0.0
C514 C 0.39729 0.16955 0.78662 0.0
C515 C 0.42445 0.16449 0.79556 0.0
C516 C 0.43145 0.14716 0.79433 0.0
C517 C 0.41087 0.1352 0.78118 0.0
C518 C 0.38402 0.14023 0.77246 0.0
H519 H 0.32224 0.14924 0.9341 0.0
H520 H 0.3422 0.13467 0.88263 0.0
H521 H 0.35695 0.15431 0.912 0.0
H522 H 0.39216 0.18288 0.78962 0.0
H523 H 0.43964 0.17406 0.80613 0.0
H524 H 0.41686 0.87418 0.14453 0.0
H525 H 0.36989 0.86532 0.15458 0.0
H526 H 0.39333 0.82471 0.29488 0.0
H527 H 0.44087 0.83387 0.28657 0.0
H528 H 0.34264 0.83582 0.12469 0.0
H529 H 0.33766 0.85042 0.41408 0.0
H530 H 0.36589 0.85694 0.35962 0.0
H531 H 0.36254 0.83517 0.38603 0.0
C532 C 0.41221 0.86327 0.17731 0.0
C533 C 0.43276 0.85485 0.21516 0.0
C534 C 0.38523 0.85817 0.18272 0.0
C535 C 0.37787 0.84452 0.22636 0.0
C536 C 0.39841 0.83548 0.26181 0.0
H537 H 0.20336 0.83156 0.33203 0.0
H538 H 0.25099 0.82277 0.31618 0.0
C539 C 0.42566 0.8406 0.2563 0.0
C540 C 0.3485 0.84067 0.23622 0.0
H541 H 0.29676 0.84462 0.35631 0.0
C542 C 0.33269 0.8374 0.17568 0.0
C543 C 0.33538 0.84268 0.30273 0.0
C544 C 0.35109 0.8466 0.36944 0.0
C545 C 0.30424 0.83705 0.17911 0.0
C546 C 0.29112 0.84015 0.24465 0.0
C547 C 0.30686 0.84222 0.30611 0.0
C548 C 0.2616 0.84394 0.24849 0.0
C549 C 0.28837 0.83404 0.11191 0.0
C550 C 0.25175 0.85862 0.21539 0.0
C551 C 0.22489 0.86368 0.22488 0.0
C552 C 0.20706 0.85411 0.26715 0.0
C553 C 0.21653 0.83901 0.29819 0.0
C554 C 0.24373 0.83406 0.28955 0.0
H555 H 0.30049 0.82689 0.07214 0.0
H556 H 0.2694 0.82694 0.12303 0.0
H557 H 0.28284 0.84644 0.08818 0.0
H558 H 0.26519 0.8666 0.18449 0.0
H559 H 0.21823 0.87542 0.20069 0.0
H560 H 0.12867 0.57126 0.9358 0.0
H561 H 0.13159 0.54111 0.96657 0.0
H562 H 0.04458 0.53712 0.95622 0.0
H563 H 0.04146 0.56709 0.92474 0.0
H564 H 0.1089 0.52298 0.08016 0.0
H565 H 0.06979 0.49935 0.82266 0.0
H566 H 0.08103 0.52093 0.83514 0.0
H567 H 0.04787 0.51454 0.86449 0.0
C568 C 0.11015 0.56397 0.94013 0.0
C569 C 0.08484 0.57156 0.92712 0.0
C570 C 0.11186 0.54674 0.95772 0.0
C571 C 0.08834 0.53678 0.96223 0.0
C572 C 0.06304 0.54445 0.95132 0.0
H573 H 0.04259 0.43513 0.07262 0.0
H574 H 0.04579 0.46481 0.0364 0.0
C575 C 0.0613 0.56164 0.93375 0.0
C576 C 0.09009 0.5184 0.97892 0.0
H577 H 0.07242 0.47921 0.91684 0.0
C578 C 0.1012 0.51338 0.0442 0.0
C579 C 0.08011 0.50589 0.93176 0.0
C580 C 0.06927 0.5104 0.85929 0.0
C581 C 0.10164 0.49624 0.06478 0.0
C582 C 0.09103 0.4838 0.01834 0.0
C583 C 0.08046 0.48878 0.95244 0.0
C584 C 0.08957 0.46561 0.03844 0.0
C585 C 0.11254 0.49165 0.13708 0.0
C586 C 0.11318 0.4561 0.05029 0.0
C587 C 0.11144 0.43907 0.07094 0.0
C588 C 0.08603 0.43126 0.08009 0.0
C589 C 0.06248 0.44075 0.06653 0.0
C590 C 0.06425 0.45773 0.04572 0.0
H591 H 0.11475 0.50295 0.17188 0.0
H592 H 0.09905 0.48236 0.16384 0.0
H593 H 0.13278 0.48571 0.1309 0.0
H594 H 0.13294 0.46185 0.0437 0.0
H595 H 0.12997 0.43209 0.08057 0.0
H596 H 0.596 0.43816 0.40556 0.0
H597 H 0.5928 0.46793 0.44027 0.0
H598 H 0.50742 0.46178 0.4815 0.0
H599 H 0.51049 0.43183 0.44777 0.0
H600 H 0.56141 0.49313 0.37887 0.0
H601 H 0.53422 0.48456 0.66315 0.0
H602 H 0.5473 0.46749 0.60918 0.0
H603 H 0.51245 0.4738 0.60146 0.0
C604 C 0.57655 0.44307 0.42252 0.0
C605 C 0.5535 0.43258 0.42398 0.0
C606 C 0.57475 0.46012 0.44221 0.0
C607 C 0.54994 0.46707 0.46415 0.0
C608 C 0.52688 0.45664 0.46598 0.0
H609 H 0.50972 0.57074 0.59643 0.0
H610 H 0.50665 0.54113 0.55733 0.0
C611 C 0.52866 0.43953 0.44635 0.0
C612 C 0.54826 0.48534 0.48299 0.0
H613 H 0.53456 0.51267 0.61938 0.0
C614 C 0.55552 0.4974 0.43144 0.0
C615 C 0.54044 0.49091 0.55151 0.0
C616 C 0.53337 0.47855 0.60982 0.0
C617 C 0.55528 0.51484 0.44662 0.0
C618 C 0.54795 0.52038 0.51546 0.0
C619 C 0.54014 0.50838 0.5666 0.0
C620 C 0.54954 0.53849 0.53643 0.0
C621 C 0.56278 0.52723 0.38878 0.0
C622 C 0.57467 0.5468 0.53784 0.0
C623 C 0.57652 0.56365 0.56038 0.0
C624 C 0.55325 0.57255 0.58209 0.0
C625 C 0.52802 0.56426 0.5799 0.0
C626 C 0.52622 0.54734 0.55773 0.0
H627 H 0.56093 0.52146 0.33516 0.0
H628 H 0.54978 0.53872 0.39115 0.0
H629 H 0.58413 0.53127 0.39606 0.0
H630 H 0.59297 0.54013 0.52264 0.0
H631 H 0.59626 0.56963 0.56135 0.0
H632 H 0.62968 0.0704 0.93508 0.0
H633 H 0.63226 0.04037 0.96806 0.0
H634 H 0.54508 0.03806 0.97902 0.0
H635 H 0.54229 0.06788 0.94513 0.0
H636 H 0.61363 0.02311 0.08689 0.0
H637 H 0.56284 0.99921 0.84447 0.0
H638 H 0.57525 0.02066 0.85199 0.0
H639 H 0.54325 0.01486 0.89091 0.0
C640 C 0.61106 0.0635 0.94459 0.0
C641 C 0.58576 0.07151 0.93671 0.0
C642 C 0.61257 0.04634 0.96341 0.0
C643 C 0.58885 0.03686 0.97446 0.0
C644 C 0.56364 0.04498 0.96891 0.0
H645 H 0.54354 0.93676 0.10994 0.0
H646 H 0.54642 0.96632 0.0717 0.0
C647 C 0.5621 0.06209 0.94995 0.0
C648 C 0.59031 0.01852 0.9923 0.0
H649 H 0.56806 0.97946 0.9395 0.0
C650 C 0.60393 0.01354 0.05431 0.0
C651 C 0.57774 0.00602 0.94953 0.0
C652 C 0.56418 0.01041 0.88014 0.0
C653 C 0.60442 0.99648 0.07608 0.0
C654 C 0.5912 0.98409 0.0343 0.0
C655 C 0.57808 0.98901 0.97158 0.0
C656 C 0.58983 0.96603 0.05619 0.0
C657 C 0.61829 0.99191 0.14479 0.0
C658 C 0.61326 0.95596 0.05901 0.0
C659 C 0.61169 0.93899 0.0806 0.0
C660 C 0.58664 0.93181 0.09992 0.0
C661 C 0.56318 0.94189 0.09586 0.0
C662 C 0.56476 0.95879 0.07393 0.0
H663 H 0.62315 0.00329 0.17717 0.0
H664 H 0.60537 0.98327 0.1768 0.0
H665 H 0.63751 0.98518 0.13283 0.0
H666 H 0.63276 0.96124 0.04446 0.0
H667 H 0.63013 0.93157 0.08284 0.0
H668 H 0.01592 0.92899 0.47319 0.0
H669 H 0.01284 0.95852 0.51324 0.0
H670 H 0.08521 0.97064 0.39526 0.0
H671 H 0.08833 0.94132 0.35451 0.0
H672 H 0.05009 0.97771 0.59059 0.0
H673 H 0.03138 0.00662 0.32695 0.0
H674 H 0.02795 0.98415 0.34304 0.0
H675 H 0.06089 0.99333 0.3291 0.0
C676 C 0.03113 0.93796 0.45556 0.0
C677 C 0.05227 0.9328 0.41021 0.0
C678 C 0.02934 0.95482 0.47854 0.0
C679 C 0.04851 0.96686 0.45617 0.0
C680 C 0.06984 0.96167 0.41189 0.0
H681 H 0.0922 0.06305 0.64098 0.0
H682 H 0.08906 0.03374 0.59999 0.0
C683 C 0.07169 0.94485 0.38903 0.0
C684 C 0.04674 0.98475 0.48051 0.0
H685 H 0.04326 0.0256 0.42071 0.0
C686 C 0.04838 0.98818 0.55352 0.0
C687 C 0.0441 0.9984 0.43218 0.0
C688 C 0.0407 0.99548 0.35349 0.0
C689 C 0.0484 0.0049 0.57933 0.0
C690 C 0.04716 0.01857 0.53071 0.0
C691 C 0.04454 0.01513 0.45788 0.0
C692 C 0.04911 0.03652 0.55432 0.0
C693 C 0.04963 0.00777 0.65851 0.0
C694 C 0.02809 0.04802 0.54015 0.0
C695 C 0.02989 0.06488 0.56313 0.0
C696 C 0.05286 0.07057 0.6004 0.0
C697 C 0.07412 0.05909 0.613 0.0
C698 C 0.0723 0.04227 0.59001 0.0
H699 H 0.04267 0.99643 0.68844 0.0
H700 H 0.0709 0.01036 0.67409 0.0
H701 H 0.03705 0.0188 0.67446 0.0
H702 H 0.01011 0.04389 0.51209 0.0
H703 H 0.01322 0.07341 0.55218 0.0
H704 H 0.01453 0.33134 0.98116 0.0
H705 H 0.01521 0.30153 0.94662 0.0
H706 H 0.07334 0.29113 0.11195 0.0
H707 H 0.07441 0.32124 0.14172 0.0
H708 H 0.09165 0.27982 0.99433 0.0
H709 H 0.9859 0.25762 0.01148 0.0
H710 H 0.98793 0.27635 0.95801 0.0
H711 H 0.99668 0.27734 0.0509 0.0
C712 C 0.02654 0.32254 0.01208 0.0
C713 C 0.04355 0.32851 0.06633 0.0
C714 C 0.02691 0.30543 0.99237 0.0
C715 C 0.044 0.29388 0.02729 0.0
C716 C 0.05972 0.29969 0.0846 0.0
H717 H 0.04491 0.18689 0.91307 0.0
H718 H 0.0392 0.21423 0.97157 0.0
C719 C 0.05975 0.31686 0.10325 0.0
C720 C 0.0483 0.27653 0.99784 0.0
H721 H 0.01533 0.24167 0.93388 0.0
C722 C 0.07493 0.27139 0.98216 0.0
C723 C 0.02664 0.26539 0.98211 0.0
C724 C 0.99774 0.2694 1.00227 0.0
C725 C 0.08046 0.25565 0.95029 0.0
C726 C 0.05868 0.24495 0.9307 0.0
C727 C 0.03208 0.24993 0.94766 0.0
C728 C 0.06296 0.22829 0.89482 0.0
C729 C 0.10966 0.25058 0.93946 0.0
C730 C 0.07821 0.22695 0.83175 0.0
C731 C 0.08204 0.21115 0.79892 0.0
C732 C 0.07001 0.19652 0.82746 0.0
C733 C 0.05438 0.19795 0.88965 0.0
C734 C 0.05105 0.21361 0.92315 0.0
H735 H 0.12328 0.25734 0.97695 0.0
H736 H 0.11252 0.23673 0.94673 0.0
H737 H 0.11602 0.25401 0.88477 0.0
H738 H 0.08692 0.23812 0.8074 0.0
H739 H 0.09387 0.21045 0.75049 0.0
H740 H 0.56169 0.6822 0.6383 0.0
H741 H 0.5615 0.7118 0.5999 0.0
H742 H 0.62912 0.70169 0.46096 0.0
H743 H 0.62941 0.67202 0.49984 0.0
H744 H 0.59818 0.73961 0.58654 0.0
H745 H 0.56613 0.7135 0.32588 0.0
H746 H 0.56747 0.70079 0.40545 0.0
H747 H 0.59802 0.70553 0.35728 0.0
C748 C 0.57757 0.68653 0.60299 0.0
C749 C 0.59601 0.67493 0.57339 0.0
C750 C 0.57713 0.7034 0.58001 0.0
C751 C 0.59492 0.70884 0.52645 0.0
C752 C 0.61493 0.69766 0.50153 0.0
H753 H 0.61363 0.80949 0.34944 0.0
H754 H 0.61906 0.78233 0.40948 0.0
C755 C 0.61533 0.68079 0.52439 0.0
C756 C 0.59048 0.72543 0.49103 0.0
H757 H 0.57332 0.74312 0.33157 0.0
C758 C 0.59281 0.74041 0.5308 0.0
C759 C 0.58272 0.72641 0.41871 0.0
C760 C 0.57815 0.71072 0.37435 0.0
C761 C 0.58829 0.75637 0.49964 0.0
C762 C 0.58163 0.75736 0.42657 0.0
C763 C 0.57867 0.74236 0.38734 0.0
C764 C 0.57812 0.77383 0.38942 0.0
C765 C 0.59029 0.77201 0.54551 0.0
C766 C 0.55355 0.77787 0.35577 0.0
C767 C 0.55038 0.79343 0.32075 0.0
C768 C 0.57183 0.80515 0.31835 0.0
C769 C 0.5966 0.80083 0.35061 0.0
C770 C 0.5997 0.78535 0.38559 0.0
H771 H 0.58786 0.76892 0.60276 0.0
H772 H 0.61054 0.77786 0.5382 0.0
H773 H 0.5747 0.7815 0.53052 0.0
H774 H 0.53672 0.76906 0.35733 0.0
H775 H 0.53112 0.79631 0.29608 0.0
H776 H 0.02678 0.81061 0.16418 0.0
H777 H 0.02073 0.78326 0.10572 0.0
H778 H 0.10115 0.76835 0.16918 0.0
H779 H 0.10737 0.79576 0.22871 0.0
H780 H 0.05138 0.76869 0.99478 0.0
H781 H 0.05294 0.72918 0.23911 0.0
H782 H 0.0487 0.7519 0.2417 0.0
H783 H 0.08171 0.74288 0.22795 0.0
C784 C 0.04319 0.80151 0.16618 0.0
C785 C 0.06757 0.80537 0.20133 0.0
C786 C 0.0397 0.7859 0.13237 0.0
C787 C 0.06039 0.77373 0.13338 0.0
C788 C 0.08479 0.77749 0.16845 0.0
H789 H 0.0786 0.68249 0.88381 0.0
H790 H 0.07783 0.71216 0.92051 0.0
C791 C 0.08835 0.79317 0.20225 0.0
C792 C 0.05622 0.75715 0.09766 0.0
H793 H 0.05189 0.71465 0.12923 0.0
C794 C 0.05142 0.75685 0.02408 0.0
C795 C 0.05595 0.74177 0.13616 0.0
C796 C 0.05986 0.74136 0.21567 0.0
C797 C 0.04671 0.74153 0.98778 0.0
C798 C 0.04699 0.72611 0.02613 0.0
C799 C 0.05154 0.72647 0.09983 0.0
C800 C 0.04354 0.70931 0.9914 0.0
C801 C 0.04115 0.74205 0.909 0.0
C802 C 0.02404 0.69786 0.01714 0.0
C803 C 0.02437 0.68089 0.99562 0.0
C804 C 0.04404 0.6751 0.9475 0.0
C805 C 0.06235 0.68679 0.91805 0.0
C806 C 0.06212 0.70375 0.9398 0.0
H807 H 0.03355 0.75468 0.89215 0.0
H808 H 0.06025 0.73954 0.87965 0.0
H809 H 0.02612 0.73226 0.89344 0.0
H810 H 0.00959 0.70183 0.05723 0.0
H811 H 0.01051 0.67203 0.02043 0.0
H812 H 0.59182 0.18699 0.60453 0.0
H813 H 0.5979 0.21465 0.54918 0.0
H814 H 0.55301 0.23807 0.71992 0.0
H815 H 0.54568 0.21008 0.77396 0.0
H816 H 0.53873 0.25147 0.59864 0.0
H817 H 0.6506 0.25024 0.60372 0.0
H818 H 0.63737 0.23245 0.55582 0.0
H819 H 0.63036 0.23464 0.6494 0.0
C820 C 0.58326 0.19804 0.63043 0.0
C821 C 0.56843 0.1964 0.69385 0.0
C822 C 0.58697 0.21389 0.59897 0.0
C823 C 0.57666 0.22858 0.63127 0.0
C824 C 0.56139 0.22695 0.69418 0.0
H825 H 0.62306 0.33179 0.53895 0.0
H826 H 0.62174 0.30219 0.57701 0.0
C827 C 0.55717 0.21098 0.72504 0.0
C828 C 0.58127 0.2455 0.59815 0.0
H829 H 0.63041 0.27146 0.53032 0.0
C830 C 0.5588 0.25587 0.58407 0.0
C831 C 0.60751 0.25142 0.57994 0.0
C832 C 0.63282 0.24167 0.59873 0.0
C833 C 0.56174 0.27185 0.55192 0.0
C834 C 0.58785 0.27738 0.53041 0.0
C835 C 0.61035 0.26709 0.54515 0.0
C836 C 0.5924 0.2944 0.49806 0.0
C837 C 0.53688 0.28283 0.54384 0.0
C838 C 0.57771 0.29971 0.43814 0.0
C839 C 0.57817 0.31674 0.41706 0.0
C840 C 0.59419 0.32857 0.45362 0.0
C841 C 0.61092 0.32286 0.50897 0.0
C842 C 0.61003 0.30595 0.53103 0.0
H843 H 0.52039 0.27884 0.58045 0.0
H844 H 0.5416 0.29636 0.55443 0.0
H845 H 0.52911 0.2817 0.48878 0.0
H846 H 0.56448 0.29097 0.41057 0.0
H847 H 0.56402 0.32088 0.37692 0.0
H848 H 0.52527 0.69243 0.85665 0.0
H849 H 0.51892 0.71961 0.91636 0.0
H850 H 0.59973 0.73465 0.85628 0.0
H851 H 0.60629 0.70739 0.79567 0.0
H852 H 0.54945 0.734 0.02918 0.0
H853 H 0.55126 0.77389 0.78597 0.0
H854 H 0.54684 0.75118 0.78285 0.0
H855 H 0.57992 0.76008 0.79649 0.0
C856 C 0.54171 0.70152 0.85567 0.0
C857 C 0.56629 0.69774 0.82107 0.0
C858 C 0.53805 0.71703 0.89019 0.0
C859 C 0.55875 0.72918 0.89043 0.0
C860 C 0.58336 0.72551 0.85603 0.0
H861 H 0.58018 0.81983 0.13802 0.0
H862 H 0.57773 0.79011 0.10256 0.0
C863 C 0.5871 0.70992 0.82157 0.0
C864 C 0.55441 0.7457 0.9266 0.0
H865 H 0.55046 0.78826 0.89628 0.0
C866 C 0.54958 0.74589 1.00021 0.0
C867 C 0.5542 0.76114 0.88852 0.0
C868 C 0.55809 0.76165 0.809 0.0
C869 C 0.54507 0.76117 0.03699 0.0
C870 C 0.54557 0.77665 0.99911 0.0
C871 C 0.54998 0.77639 0.92533 0.0
C872 C 0.54281 0.79342 0.03452 0.0
C873 C 0.53958 0.76059 0.11581 0.0
C874 C 0.52345 0.80511 0.01025 0.0
C875 C 0.52469 0.8221 0.03131 0.0
C876 C 0.54515 0.82764 0.07745 0.0
C877 C 0.56331 0.81572 0.10565 0.0
C878 C 0.56212 0.79873 0.08452 0.0
H879 H 0.53193 0.74796 0.13257 0.0
H880 H 0.55872 0.76306 0.14491 0.0
H881 H 0.52462 0.77041 0.13169 0.0
H882 H 0.50848 0.80133 0.9713 0.0
H883 H 0.51101 0.83117 1.00721 0.0
H884 H 0.02936 0.29837 0.30356 0.0
H885 H 0.03477 0.27148 0.36742 0.0
H886 H 0.11799 0.28409 0.41255 0.0
H887 H 0.1127 0.31096 0.35011 0.0
H888 H 0.06955 0.24532 0.33968 0.0
H889 H 0.08981 0.27107 0.60833 0.0
H890 H 0.07626 0.28387 0.53728 0.0
H891 H 0.11198 0.27946 0.54134 0.0
C892 C 0.04877 0.29543 0.3273 0.0
C893 C 0.07054 0.30686 0.32203 0.0
C894 C 0.05183 0.28009 0.36389 0.0
C895 C 0.07662 0.27594 0.39615 0.0
C896 C 0.09846 0.28721 0.38986 0.0
H897 H 0.12484 0.17348 0.49772 0.0
H898 H 0.12616 0.20344 0.46355 0.0
C899 C 0.09544 0.30252 0.35346 0.0
C900 C 0.08013 0.25948 0.43333 0.0
H901 H 0.0986 0.24154 0.5915 0.0
C902 C 0.0758 0.24451 0.39479 0.0
C903 C 0.08801 0.25843 0.50555 0.0
C904 C 0.09154 0.27406 0.55083 0.0
C905 C 0.07962 0.22853 0.42591 0.0
C906 C 0.08858 0.22747 0.49722 0.0
C907 C 0.0923 0.24241 0.53646 0.0
C908 C 0.0929 0.2108 0.53192 0.0
C909 C 0.07357 0.2129 0.38237 0.0
C910 C 0.07527 0.20535 0.58583 0.0
C911 C 0.07485 0.18829 0.60625 0.0
C912 C 0.09223 0.17655 0.57345 0.0
C913 C 0.11162 0.18237 0.52469 0.0
C914 C 0.11215 0.19942 0.50456 0.0
H915 H 0.06093 0.21587 0.33521 0.0
H916 H 0.09288 0.20731 0.36326 0.0
H917 H 0.0629 0.20321 0.4148 0.0
H918 H 0.06026 0.21393 0.60763 0.0
H919 H 0.05903 0.18401 0.64192 0.0
H920 H 0.52695 0.31145 0.16101 0.0
H921 H 0.52132 0.28415 0.10185 0.0
H922 H 0.60242 0.26994 0.16223 0.0
H923 H 0.60818 0.29727 0.22265 0.0
H924 H 0.55085 0.26946 0.99026 0.0
H925 H 0.55589 0.2306 0.23589 0.0
H926 H 0.55144 0.25331 0.23784 0.0
H927 H 0.58442 0.24437 0.2224 0.0
C928 C 0.54362 0.30252 0.16209 0.0
C929 C 0.568 0.30652 0.197 0.0
C930 C 0.54037 0.28694 0.12786 0.0
C931 C 0.56133 0.27495 0.12805 0.0
C932 C 0.58582 0.27892 0.16228 0.0
H933 H 0.57934 0.1832 0.88053 0.0
H934 H 0.57781 0.21306 0.91488 0.0
C935 C 0.58911 0.29455 0.19664 0.0
C936 C 0.55726 0.25824 0.09319 0.0
H937 H 0.55477 0.21578 0.12681 0.0
C938 C 0.55163 0.2577 0.02002 0.0
C939 C 0.55788 0.24295 0.1323 0.0
C940 C 0.56248 0.24276 0.21156 0.0
C941 C 0.547 0.24222 0.98475 0.0
C942 C 0.5483 0.2269 0.02365 0.0
C943 C 0.55367 0.22752 0.09692 0.0
C944 C 0.54494 0.20995 0.99013 0.0
C945 C 0.54041 0.24246 0.90652 0.0
C946 C 0.52642 0.1983 0.01902 0.0
C947 C 0.52733 0.18122 0.99935 0.0
C948 C 0.54653 0.17553 0.94979 0.0
C949 C 0.5636 0.18738 0.91665 0.0
C950 C 0.56288 0.20447 0.93682 0.0
H951 H 0.53208 0.25493 0.88991 0.0
H952 H 0.55922 0.24018 0.87559 0.0
H953 H 0.52559 0.2324 0.89266 0.0
H954 H 0.51244 0.20221 0.06033 0.0
H955 H 0.51439 0.17224 0.02674 0.0
H956 H 0.11333 0.69271 0.66432 0.0
H957 H 0.11938 0.72 0.60554 0.0
H958 H 0.03899 0.73499 0.66973 0.0
H959 H 0.03277 0.70762 0.72959 0.0
H960 H 0.08876 0.7345 0.49479 0.0
H961 H 0.08722 0.77421 0.73869 0.0
H962 H 0.09143 0.75149 0.7415 0.0
H963 H 0.05844 0.76051 0.72793 0.0
C964 C 0.09692 0.70181 0.66643 0.0
C965 C 0.07255 0.69798 0.70187 0.0
C966 C 0.10041 0.71739 0.63242 0.0
C967 C 0.07974 0.72957 0.63353 0.0
C968 C 0.05535 0.72584 0.66891 0.0
H969 H 0.06156 0.82059 0.38306 0.0
H970 H 0.06241 0.79094 0.41988 0.0
C971 C 0.05179 0.71019 0.70291 0.0
C972 C 0.08391 0.74613 0.59759 0.0
H973 H 0.08826 0.78865 0.62865 0.0
C974 C 0.08872 0.74636 0.52396 0.0
C975 C 0.08419 0.76154 0.63591 0.0
C976 C 0.08028 0.76201 0.71545 0.0
C977 C 0.09345 0.76165 0.48746 0.0
C978 C 0.09317 0.7771 0.52562 0.0
C979 C 0.08861 0.7768 0.59936 0.0
C980 C 0.09662 0.79388 0.49068 0.0
C981 C 0.09902 0.76106 0.40864 0.0
C982 C 0.11607 0.80537 0.51629 0.0
C983 C 0.11568 0.82233 0.49472 0.0
C984 C 0.09602 0.82807 0.44666 0.0
C985 C 0.0778 0.81634 0.41725 0.0
C986 C 0.07808 0.79938 0.43907 0.0
H987 H 0.10666 0.74842 0.39192 0.0
H988 H 0.07991 0.76352 0.37939 0.0
H989 H 0.11403 0.77085 0.39283 0.0
H990 H 0.13049 0.80145 0.55637 0.0
H991 H 0.12946 0.83123 0.51952 0.0
H992 H 0.12155 0.36908 0.98483 0.0
H993 H 0.13473 0.37804 0.86525 0.0
H994 H 0.05641 0.40136 0.83774 0.0
H995 H 0.04374 0.39282 0.95757 0.0
H996 H 0.10921 0.36395 0.75983 0.0
H997 H 0.10048 0.43288 0.71925 0.0
H998 H 0.1031 0.42366 0.8068 0.0
H999 H 0.07074 0.42505 0.76286 0.0
C1000 C 0.10793 0.37713 0.95511 0.0
C1001 C 0.08182 0.38055 0.98099 0.0
C1002 C 0.1153 0.38205 0.88612 0.0
C1003 C 0.09661 0.39041 0.84181 0.0
C1004 C 0.07153 0.3953 0.87069 0.0
H1005 H 0.04982 0.36639 0.42489 0.0
H1006 H 0.05777 0.37128 0.55072 0.0
C1007 C 0.06426 0.39045 0.93962 0.0
C1008 C 0.10071 0.39077 0.76311 0.0
H1009 H 0.091 0.4152 0.61497 0.0
C1010 C 0.1059 0.3753 0.72849 0.0
C1011 C 0.09653 0.4055 0.72138 0.0
C1012 C 0.09269 0.42272 0.75469 0.0
C1013 C 0.1053 0.37394 0.65415 0.0
C1014 C 0.09891 0.38836 0.61277 0.0
C1015 C 0.09549 0.40408 0.64672 0.0
C1016 C 0.0934 0.38679 0.53528 0.0
C1017 C 0.11069 0.3569 0.6205 0.0
C1018 C 0.1103 0.39437 0.48421 0.0
C1019 C 0.1058 0.3916 0.41134 0.0
C1020 C 0.0842 0.38127 0.38842 0.0
C1021 C 0.0668 0.37429 0.44009 0.0
C1022 C 0.07133 0.37704 0.51237 0.0
H1023 H 0.12261 0.34854 0.65624 0.0
H1024 H 0.0911 0.35053 0.60944 0.0
H1025 H 0.1218 0.3583 0.56949 0.0
H1026 H 0.1274 0.40201 0.50074 0.0
H1027 H 0.11958 0.3972 0.37319 0.0
H1028 H 0.51834 0.63325 0.49392 0.0
H1029 H 0.50484 0.62422 0.37469 0.0
H1030 H 0.58433 0.6029 0.34157 0.0
H1031 H 0.59737 0.61153 0.46089 0.0
H1032 H 0.52852 0.63903 0.26794 0.0
H1033 H 0.54149 0.57047 0.2249 0.0
H1034 H 0.53894 0.57949 0.31287 0.0
H1035 H 0.57105 0.57893 0.26706 0.0
C1036 C 0.53224 0.62562 0.46299 0.0
C1037 C 0.55874 0.62281 0.48713 0.0
C1038 C 0.52467 0.62066 0.39422 0.0
C1039 C 0.54351 0.61284 0.34848 0.0
C1040 C 0.5691 0.60853 0.37563 0.0
H1041 H 0.5875 0.63873 0.93227 0.0
H1042 H 0.57967 0.63357 0.05794 0.0
C1043 C 0.57659 0.61345 0.44425 0.0
C1044 C 0.53886 0.61246 0.27001 0.0
H1045 H 0.54962 0.58855 0.12073 0.0
C1046 C 0.53245 0.62783 0.23611 0.0
C1047 C 0.54382 0.59792 0.22764 0.0
C1048 C 0.54891 0.58075 0.26022 0.0
C1049 C 0.53266 0.62932 0.16179 0.0
C1050 C 0.53992 0.61517 0.11969 0.0
C1051 C 0.54448 0.59948 0.15299 0.0
C1052 C 0.54528 0.61703 0.04219 0.0
C1053 C 0.52599 0.64626 0.12893 0.0
C1054 C 0.52903 0.60901 0.99093 0.0
C1055 C 0.53348 0.61194 0.91809 0.0
C1056 C 0.55436 0.62287 0.89538 0.0
C1057 C 0.57108 0.63035 0.94725 0.0
C1058 C 0.56661 0.62745 0.01948 0.0
H1059 H 0.51347 0.65417 0.16518 0.0
H1060 H 0.54508 0.65322 0.11799 0.0
H1061 H 0.51498 0.64465 0.07797 0.0
H1062 H 0.51252 0.60085 1.00728 0.0
H1063 H 0.52024 0.60593 0.87978 0.0
H1064 H 0.04375 0.61142 0.059 0.0
H1065 H 0.05667 0.60333 0.17942 0.0
H1066 H 0.13576 0.62519 0.14656 0.0
H1067 H 0.12245 0.63371 0.02644 0.0
H1068 H 0.09672 0.58749 0.26253 0.0
H1069 H 0.09952 0.65787 0.28583 0.0
H1070 H 0.08785 0.64735 0.20668 0.0
H1071 H 0.1235 0.64871 0.22515 0.0
C1072 C 0.06441 0.61363 0.07608 0.0
C1073 C 0.08215 0.6231 0.03335 0.0
C1074 C 0.07174 0.60911 0.14524 0.0
C1075 C 0.09691 0.61409 0.17285 0.0
C1076 C 0.11603 0.6215 0.12683 0.0
H1077 H 0.12164 0.6083 0.64096 0.0
H1078 H 0.12923 0.60334 0.51349 0.0
C1079 C 0.10859 0.62611 0.05759 0.0
C1080 C 0.10062 0.61454 0.25138 0.0
H1081 H 0.1024 0.64232 0.39073 0.0
C1082 C 0.09848 0.59943 0.29069 0.0
C1083 C 0.10238 0.63019 0.28819 0.0
C1084 C 0.10323 0.64698 0.24963 0.0
C1085 C 0.09728 0.59963 0.36556 0.0
C1086 C 0.09844 0.61532 0.40192 0.0
C1087 C 0.10162 0.63031 0.36271 0.0
C1088 C 0.09337 0.61688 0.47964 0.0
C1089 C 0.09335 0.58319 0.40509 0.0
C1090 C 0.07076 0.6261 0.50303 0.0
C1091 C 0.06647 0.62903 0.57527 0.0
C1092 C 0.08474 0.62284 0.6264 0.0
C1093 C 0.1071 0.6132 0.60314 0.0
C1094 C 0.11143 0.6103 0.5303 0.0
H1095 H 0.08898 0.57244 0.36873 0.0
H1096 H 0.11203 0.58019 0.43528 0.0
H1097 H 0.07647 0.58438 0.44384 0.0
H1098 H 0.05653 0.63129 0.46503 0.0
H1099 H 0.04895 0.63643 0.59085 0.0
H1100 H 0.59408 0.3935 0.55759 0.0
H1101 H 0.58197 0.40156 0.67879 0.0
H1102 H 0.50378 0.37804 0.65276 0.0
H1103 H 0.51629 0.36956 0.53192 0.0
H1104 H 0.54173 0.41659 0.76551 0.0
H1105 H 0.54367 0.34621 0.78869 0.0
H1106 H 0.55389 0.35702 0.70876 0.0
H1107 H 0.51854 0.35469 0.72974 0.0
C1108 C 0.5737 0.39095 0.57628 0.0
C1109 C 0.55607 0.38099 0.53531 0.0
C1110 C 0.56686 0.39543 0.64594 0.0
C1111 C 0.54227 0.38996 0.67569 0.0
C1112 C 0.52308 0.38212 0.63135 0.0
H1113 H 0.51809 0.39548 0.14358 0.0
H1114 H 0.51085 0.40037 0.01608 0.0
C1115 C 0.53004 0.37753 0.56169 0.0
C1116 C 0.53943 0.38946 0.75449 0.0
H1117 H 0.54003 0.36168 0.89384 0.0
C1118 C 0.5409 0.40461 0.79372 0.0
C1119 C 0.5389 0.37379 0.79135 0.0
C1120 C 0.53889 0.35697 0.75278 0.0
C1121 C 0.54245 0.40446 0.86855 0.0
C1122 C 0.54235 0.38877 0.90498 0.0
C1123 C 0.54001 0.3737 0.86583 0.0
C1124 C 0.54732 0.38735 0.98279 0.0
C1125 C 0.54552 0.421 0.90791 0.0
C1126 C 0.57017 0.37844 1.00659 0.0
C1127 C 0.57425 0.37554 0.07892 0.0
C1128 C 0.55554 0.38145 0.12971 0.0
C1129 C 0.53297 0.39081 0.10606 0.0
C1130 C 0.52885 0.39368 0.03316 0.0
H1131 H 0.54963 0.43177 0.87144 0.0
H1132 H 0.52656 0.42375 0.93748 0.0
H1133 H 0.56224 0.42015 0.94714 0.0
H1134 H 0.58471 0.37344 0.96883 0.0
H1135 H 0.59194 0.36837 0.09484 0.0
H1136 H 0.61673 0.85693 0.95821 0.0
H1137 H 0.62571 0.86739 0.83912 0.0
H1138 H 0.57284 0.91001 0.87764 0.0
H1139 H 0.56262 0.89879 0.99597 0.0
H1140 H 0.55551 0.89446 0.77042 0.0
H1141 H 0.66465 0.90037 0.72152 0.0
H1142 H 0.65872 0.88003 0.76058 0.0
H1143 H 0.65114 0.89902 0.8105 0.0
C1144 C 0.60829 0.86907 0.94273 0.0
C1145 C 0.5894 0.87723 0.98686 0.0
C1146 C 0.61343 0.87509 0.87418 0.0
C1147 C 0.60011 0.88961 0.84854 0.0
C1148 C 0.58347 0.89881 0.89575 0.0
H1149 H 0.61187 0.90165 0.37921 0.0
H1150 H 0.61687 0.90844 0.50614 0.0
C1151 C 0.57799 0.89259 0.96415 0.0
C1152 C 0.59917 0.89289 0.77022 0.0
H1153 H 0.6375 0.89074 0.61879 0.0
C1154 C 0.5736 0.89411 0.73771 0.0
C1155 C 0.62256 0.89273 0.72635 0.0
C1156 C 0.65077 0.89316 0.75688 0.0
C1157 C 0.57071 0.89385 0.66352 0.0
C1158 C 0.59389 0.89174 0.62002 0.0
C1159 C 0.61961 0.89191 0.65193 0.0
C1160 C 0.59146 0.88783 0.54269 0.0
C1161 C 0.54262 0.89545 0.63265 0.0
C1162 C 0.57608 0.8738 0.52089 0.0
C1163 C 0.57303 0.87 0.44893 0.0
C1164 C 0.58563 0.87996 0.39636 0.0
C1165 C 0.60173 0.89377 0.41813 0.0
C1166 C 0.60463 0.89765 0.49069 0.0
H1167 H 0.52924 0.90302 0.66804 0.0
H1168 H 0.54304 0.90152 0.57945 0.0
H1169 H 0.53353 0.88264 0.62743 0.0
H1170 H 0.56642 0.86568 0.55978 0.0
H1171 H 0.56084 0.8591 0.43467 0.0
H1172 H 0.02263 0.14647 0.44691 0.0
H1173 H 0.01579 0.1354 0.32799 0.0
H1174 H 0.06817 0.09312 0.3759 0.0
H1175 H 0.07614 0.10491 0.49463 0.0
H1176 H 0.08691 0.1079 0.26777 0.0
H1177 H 0.97851 0.10168 0.21103 0.0
H1178 H 0.98381 0.12226 0.24847 0.0
H1179 H 0.99085 0.10359 0.30087 0.0
C1180 C 0.03143 0.13428 0.43348 0.0
C1181 C 0.04956 0.12642 0.48045 0.0
C1182 C 0.02752 0.12791 0.36497 0.0
C1183 C 0.04133 0.1133 0.34203 0.0
C1184 C 0.05721 0.1044 0.39185 0.0
H1185 H 0.03194 0.10014 0.87348 0.0
H1186 H 0.027 0.09343 1.00042 0.0
C1187 C 0.06139 0.11095 0.46041 0.0
C1188 C 0.0433 0.10954 0.26411 0.0
H1189 H 0.00683 0.11097 0.10973 0.0
C1190 C 0.06924 0.10812 0.23364 0.0
C1191 C 0.02047 0.10947 0.21843 0.0
C1192 C 0.99189 0.10914 0.24675 0.0
C1193 C 0.07305 0.10799 0.15962 0.0
C1194 C 0.05042 0.10993 0.11413 0.0
C1195 C 0.02433 0.10994 0.14422 0.0
C1196 C 0.05369 0.11344 0.03649 0.0
C1197 C 0.10148 0.10606 0.13115 0.0
C1198 C 0.06996 0.12704 0.01413 0.0
C1199 C 0.07303 0.13076 0.94203 0.0
C1200 C 0.05951 0.1212 0.88978 0.0
C1201 C 0.04281 0.10771 0.91206 0.0
C1202 C 0.03993 0.10388 0.9847 0.0
H1203 H 0.11415 0.09839 0.16779 0.0
H1204 H 0.10165 0.09995 0.07802 0.0
H1205 H 0.11101 0.11876 0.12671 0.0
H1206 H 0.08007 0.13502 0.05269 0.0
H1207 H 0.0857 0.14142 0.92747 0.0
H1208 H 0.54919 0.11013 0.05406 0.0
H1209 H 0.55996 0.10168 0.17561 0.0
H1210 H 0.63644 0.12785 0.16059 0.0
H1211 H 0.62523 0.13668 0.03928 0.0
H1212 H 0.6004 0.08751 0.2654 0.0
H1213 H 0.59095 0.15752 0.2943 0.0
H1214 H 0.5831 0.14674 0.21252 0.0
H1215 H 0.61779 0.15041 0.23714 0.0
C1216 C 0.56899 0.1132 0.07524 0.0
C1217 C 0.58645 0.12396 0.0374 0.0
C1218 C 0.57506 0.10849 0.14505 0.0
C1219 C 0.59866 0.11454 0.17796 0.0
C1220 C 0.61789 0.12328 0.13665 0.0
H1221 H 0.62017 0.108 0.64485 0.0
H1222 H 0.6276 0.10347 0.51726 0.0
C1223 C 0.61169 0.1281 0.06688 0.0
C1224 C 0.60015 0.11472 0.25695 0.0
H1225 H 0.5952 0.14172 0.39843 0.0
C1226 C 0.59967 0.09934 0.29468 0.0
C1227 C 0.5986 0.1302 0.2951 0.0
C1228 C 0.5974 0.14717 0.25797 0.0
C1229 C 0.59727 0.09905 0.36935 0.0
C1230 C 0.59546 0.11454 0.40709 0.0
C1231 C 0.59666 0.12986 0.36943 0.0
C1232 C 0.59013 0.1154 0.48486 0.0
C1233 C 0.59545 0.08223 0.40706 0.0
C1234 C 0.56659 0.12353 0.50921 0.0
C1235 C 0.56239 0.12625 0.58168 0.0
C1236 C 0.58167 0.12092 0.63193 0.0
C1237 C 0.60483 0.1122 0.60773 0.0
C1238 C 0.60908 0.10954 0.53477 0.0
H1239 H 0.5923 0.07155 0.36947 0.0
H1240 H 0.61457 0.07992 0.43644 0.0
H1241 H 0.57861 0.08233 0.44625 0.0
H1242 H 0.55167 0.12817 0.47178 0.0
H1243 H 0.54426 0.13293 0.59811 0.0
H1244 H 0.09494 0.89204 0.55776 0.0
H1245 H 0.08197 0.90003 0.67837 0.0
H1246 H 1.00368 0.87695 0.64759 0.0
H1247 H 0.01707 0.86854 0.52712 0.0
H1248 H 0.0417 0.91537 0.7621 0.0
H1249 H 0.04119 0.84499 0.78673 0.0
H1250 H 0.0523 0.85556 0.70706 0.0
H1251 H 0.01675 0.85377 0.72656 0.0
C1252 C 0.0744 0.88955 0.57531 0.0
C1253 C 0.05695 0.87978 0.53309 0.0
C1254 C 0.06705 0.894 0.64461 0.0
C1255 C 0.04214 0.88866 0.67287 0.0
C1256 C 0.02322 0.88093 0.62736 0.0
H1257 H 0.01821 0.89483 0.14134 0.0
H1258 H 0.01038 0.89959 0.01394 0.0
C1259 C 0.03068 0.87638 0.55798 0.0
C1260 C 0.03863 0.88826 0.75151 0.0
H1261 H 0.03807 0.86064 0.89141 0.0
C1262 C 0.0404 0.90344 0.79051 0.0
C1263 C 0.03746 0.87264 0.78866 0.0
C1264 C 0.03703 0.85579 0.75043 0.0
C1265 C 0.04181 0.90335 0.86535 0.0
C1266 C 0.04124 0.8877 0.90203 0.0
C1267 C 0.03842 0.87262 0.86317 0.0
C1268 C 0.04647 0.8863 0.9797 0.0
C1269 C 0.04534 0.91989 0.90445 0.0
C1270 C 0.06931 0.8773 1.00288 0.0
C1271 C 0.07373 0.87448 0.07511 0.0
C1272 C 0.05538 0.88057 0.12643 0.0
C1273 C 0.03282 0.89002 0.10337 0.0
C1274 C 0.02835 0.8928 0.03056 0.0
H1275 H 0.04943 0.93062 0.86778 0.0
H1276 H 0.02659 0.92276 0.93472 0.0
H1277 H 0.06225 0.91894 0.94308 0.0
H1278 H 0.0836 0.87218 0.96474 0.0
H1279 H 0.09141 0.86723 0.09054 0.0
loop_
_geom_bond_atom_site_label_1
_geom_bond_atom_site_label_2
_geom_bond_distance
_geom_bond_site_symmetry_2
_ccdc_geom_bond_type
Zn0 N4 2.020 . S
Zn0 O8 2.019 . S
Zn0 N10 2.119 . S
Zn0 O18 1.975 . S
C1 N2 1.334 1_554 S
C1 N5 1.336 . S
N2 C1 1.334 1_556 S
N2 C3 1.334 1_556 S
C3 N2 1.334 1_554 S
C3 N4 1.336 . S
N4 Zn0 2.020 . S
N4 C3 1.336 . S
N4 N5 1.354 . S
N5 C1 1.336 . S
N5 N4 1.354 . S
N5 Zn9 2.020 . S
C6 O7 1.244 . S
C6 O30 1.257 . S
O7 C6 1.244 . S
O8 Zn0 2.019 . S
O8 C28 1.257 . S
Zn9 N5 2.020 . S
Zn9 O16 1.975 . S
Zn9 N25 2.119 . S
Zn9 O30 2.019 . S
N10 Zn0 2.119 . S
N10 C12 1.334 . S
N10 C13 1.328 . S
C11 C12 1.391 . S
C11 N14 1.329 . S
C11 H32 0.930 . S
C12 N10 1.334 . S
C12 C11 1.391 . S
C12 H19 0.930 . S
C13 N10 1.328 . S
C13 C15 1.392 . S
C13 H20 0.930 . S
N14 C11 1.329 . S
N14 C15 1.331 . S
C15 C13 1.392 . S
C15 N14 1.331 . S
O16 Zn9 1.975 . S
O16 C17 1.252 . S
C17 O16 1.252 . S
C17 O18 1.252 . S
O18 Zn0 1.975 . S
O18 C17 1.252 . S
H19 C12 0.930 . S
H20 C13 0.930 . S
C21 C22 1.392 1_455 S
C21 N25 1.328 . S
C21 H27 0.930 . S
C22 C21 1.392 1_655 S
C22 N26 1.331 . S
C23 C24 1.416 . S
C23 N26 1.307 1_455 S
C23 H33 0.927 1_455 S
C24 C23 1.416 . S
C24 N25 1.334 . S
C24 H31 0.930 . S
N25 Zn9 2.119 . S
N25 C21 1.328 . S
N25 C24 1.334 . S
N26 C22 1.331 . S
N26 C23 1.307 1_655 S
H27 C21 0.930 . S
C28 O8 1.257 . S
C28 O29 1.244 . S
O29 C28 1.244 . S
O30 C6 1.257 . S
O30 Zn9 2.019 . S
H31 C24 0.930 . S
H32 C11 0.930 . S
H33 C23 0.927 1_655 S
Zn34 N38 2.020 . S
Zn34 O42 2.019 . S
Zn34 N44 2.119 . S
Zn34 O52 1.975 . S
C35 N36 1.334 . S
C35 N39 1.336 . S
N36 C35 1.334 . S
N36 C37 1.334 . S
C37 N36 1.334 . S
C37 N38 1.336 . S
N38 Zn34 2.020 . S
N38 C37 1.336 . S
N38 N39 1.354 . S
N39 C35 1.336 . S
N39 N38 1.354 . S
N39 Zn43 2.020 . S
C40 O41 1.244 . S
C40 O64 1.257 . S
O41 C40 1.244 . S
O42 Zn34 2.019 . S
O42 C62 1.257 . S
Zn43 N39 2.020 . S
Zn43 O50 1.975 . S
Zn43 N59 2.119 . S
Zn43 O64 2.019 . S
N44 Zn34 2.119 . S
N44 C46 1.334 . S
N44 C47 1.328 . S
C45 C46 1.391 . S
C45 N48 1.329 . S
C45 H66 0.930 . S
C46 N44 1.334 . S
C46 C45 1.391 . S
C46 H53 0.930 . S
C47 N44 1.328 . S
C47 C49 1.392 . S
C47 H54 0.930 . S
N48 C45 1.329 . S
N48 C49 1.331 . S
C49 C47 1.392 . S
C49 N48 1.331 . S
O50 Zn43 1.975 . S
O50 C51 1.252 . S
C51 O50 1.252 . S
C51 O52 1.252 . S
O52 Zn34 1.975 . S
O52 C51 1.252 . S
H53 C46 0.930 . S
H54 C47 0.930 . S
C55 C56 1.392 . S
C55 N59 1.328 . S
C55 H61 0.930 . S
C56 C55 1.392 . S
C56 N60 1.331 . S
C57 C58 1.391 . S
C57 N60 1.329 . S
C57 H67 0.930 . S
C58 C57 1.391 . S
C58 N59 1.334 . S
C58 H65 0.930 . S
N59 Zn43 2.119 . S
N59 C55 1.328 . S
N59 C58 1.334 . S
N60 C56 1.331 . S
N60 C57 1.329 . S
H61 C55 0.930 . S
C62 O42 1.257 . S
C62 O63 1.244 . S
O63 C62 1.244 . S
O64 C40 1.257 . S
O64 Zn43 2.019 . S
H65 C58 0.930 . S
H66 C45 0.930 . S
H67 C57 0.930 . S
Zn68 N72 2.020 . S
Zn68 O76 2.019 . S
Zn68 N78 2.119 . S
Zn68 O86 1.975 . S
C69 N70 1.334 1_556 S
C69 N73 1.336 . S
N70 C69 1.334 1_554 S
N70 C71 1.334 1_554 S
C71 N70 1.334 1_556 S
C71 N72 1.336 . S
N72 Zn68 2.020 . S
N72 C71 1.336 . S
N72 N73 1.354 . S
N73 C69 1.336 . S
N73 N72 1.354 . S
N73 Zn77 2.020 . S
C74 O75 1.244 . S
C74 O98 1.257 . S
O75 C74 1.244 . S
O76 Zn68 2.019 . S
O76 C96 1.257 . S
Zn77 N73 2.020 . S
Zn77 O84 1.975 . S
Zn77 N93 2.119 . S
Zn77 O98 2.019 . S
N78 Zn68 2.119 . S
N78 C80 1.334 . S
N78 C81 1.328 . S
C79 C80 1.416 . S
C79 N82 1.307 1_455 S
C79 H100 0.927 1_455 S
C80 N78 1.334 . S
C80 C79 1.416 . S
C80 H87 0.930 . S
C81 N78 1.328 . S
C81 C83 1.392 1_455 S
C81 H88 0.930 . S
N82 C79 1.307 1_655 S
N82 C83 1.331 . S
C83 C81 1.392 1_655 S
C83 N82 1.331 . S
O84 Zn77 1.975 . S
O84 C85 1.252 . S
C85 O84 1.252 . S
C85 O86 1.252 . S
O86 Zn68 1.975 . S
O86 C85 1.252 . S
H87 C80 0.930 . S
H88 C81 0.930 . S
C89 C90 1.392 . S
C89 N93 1.328 . S
C89 H95 0.930 . S
C90 C89 1.392 . S
C90 N94 1.331 . S
C91 C92 1.391 . S
C91 N94 1.329 . S
C91 H101 0.930 . S
C92 C91 1.391 . S
C92 N93 1.334 . S
C92 H99 0.930 . S
N93 Zn77 2.119 . S
N93 C89 1.328 . S
N93 C92 1.334 . S
N94 C90 1.331 . S
N94 C91 1.329 . S
H95 C89 0.930 . S
C96 O76 1.257 . S
C96 O97 1.244 . S
O97 C96 1.244 . S
O98 C74 1.257 . S
O98 Zn77 2.019 . S
H99 C92 0.930 . S
H100 C79 0.927 1_655 S
H101 C91 0.930 . S
Zn102 N106 2.020 . S
Zn102 O110 2.019 . S
Zn102 N112 2.119 . S
Zn102 O120 1.975 . S
C103 N104 1.334 . S
C103 N107 1.336 . S
N104 C103 1.334 . S
N104 C105 1.334 . S
C105 N104 1.334 . S
C105 N106 1.336 . S
N106 Zn102 2.020 . S
N106 C105 1.336 . S
N106 N107 1.354 . S
N107 C103 1.336 . S
N107 N106 1.354 . S
N107 Zn111 2.020 . S
C108 O109 1.244 . S
C108 O132 1.257 . S
O109 C108 1.244 . S
O110 Zn102 2.019 . S
O110 C130 1.257 . S
Zn111 N107 2.020 . S
Zn111 O118 1.975 . S
Zn111 N127 2.119 . S
Zn111 O132 2.019 . S
N112 Zn102 2.119 . S
N112 C114 1.334 . S
N112 C115 1.328 . S
C113 C114 1.391 . S
C113 N116 1.329 . S
C113 H134 0.930 . S
C114 N112 1.334 . S
C114 C113 1.391 . S
C114 H121 0.930 . S
C115 N112 1.328 . S
C115 C117 1.392 . S
C115 H122 0.930 . S
N116 C113 1.329 . S
N116 C117 1.331 . S
C117 C115 1.392 . S
C117 N116 1.331 . S
O118 Zn111 1.975 . S
O118 C119 1.252 . S
C119 O118 1.252 . S
C119 O120 1.252 . S
O120 Zn102 1.975 . S
O120 C119 1.252 . S
H121 C114 0.930 . S
H122 C115 0.930 . S
C123 C124 1.392 . S
C123 N127 1.328 . S
C123 H129 0.930 . S
C124 C123 1.392 . S
C124 N128 1.331 . S
C125 C126 1.391 . S
C125 N128 1.329 . S
C125 H135 0.930 . S
C126 C125 1.391 . S
C126 N127 1.334 . S
C126 H133 0.930 . S
N127 Zn111 2.119 . S
N127 C123 1.328 . S
N127 C126 1.334 . S
N128 C124 1.331 . S
N128 C125 1.329 . S
H129 C123 0.930 . S
C130 O110 1.257 . S
C130 O131 1.244 . S
O131 C130 1.244 . S
O132 C108 1.257 . S
O132 Zn111 2.019 . S
H133 C126 0.930 . S
H134 C113 0.930 . S
H135 C125 0.930 . S
Zn136 N140 2.020 . S
Zn136 O144 2.019 . S
Zn136 N146 2.119 . S
Zn136 O154 1.975 . S
C137 N138 1.334 1_554 S
C137 N141 1.336 . S
N138 C137 1.334 1_556 S
N138 C139 1.334 1_556 S
C139 N138 1.334 1_554 S
C139 N140 1.336 . S
N140 Zn136 2.020 . S
N140 C139 1.336 . S
N140 N141 1.354 . S
N141 C137 1.336 . S
N141 N140 1.354 . S
N141 Zn145 2.020 . S
C142 O143 1.244 . S
C142 O166 1.257 . S
O143 C142 1.244 . S
O144 Zn136 2.019 . S
O144 C164 1.257 . S
Zn145 N141 2.020 . S
Zn145 O152 1.975 . S
Zn145 N161 2.119 . S
Zn145 O166 2.019 . S
N146 Zn136 2.119 . S
N146 C148 1.334 . S
N146 C149 1.328 . S
C147 C148 1.391 . S
C147 N150 1.329 . S
C147 H168 0.930 . S
C148 N146 1.334 . S
C148 C147 1.391 . S
C148 H155 0.930 . S
C149 N146 1.328 . S
C149 C151 1.392 . S
C149 H156 0.930 . S
N150 C147 1.329 . S
N150 C151 1.331 . S
C151 C149 1.392 . S
C151 N150 1.331 . S
O152 Zn145 1.975 . S
O152 C153 1.252 . S
C153 O152 1.252 . S
C153 O154 1.252 . S
O154 Zn136 1.975 . S
O154 C153 1.252 . S
H155 C148 0.930 . S
H156 C149 0.930 . S
C157 C158 1.392 . S
C157 N161 1.328 . S
C157 H163 0.930 . S
C158 C157 1.392 . S
C158 N162 1.331 . S
C159 C160 1.391 . S
C159 N162 1.329 . S
C159 H169 0.930 . S
C160 C159 1.391 . S
C160 N161 1.334 . S
C160 H167 0.930 . S
N161 Zn145 2.119 . S
N161 C157 1.328 . S
N161 C160 1.334 . S
N162 C158 1.331 . S
N162 C159 1.329 . S
H163 C157 0.930 . S
C164 O144 1.257 . S
C164 O165 1.244 . S
O165 C164 1.244 . S
O166 C142 1.257 . S
O166 Zn145 2.019 . S
H167 C160 0.930 . S
H168 C147 0.930 . S
H169 C159 0.930 . S
Zn170 N174 2.020 . S
Zn170 O178 2.019 . S
Zn170 N180 2.119 1_455 S
Zn170 O188 1.975 . S
C171 N172 1.334 . S
C171 N175 1.336 . S
N172 C171 1.334 . S
N172 C173 1.334 . S
C173 N172 1.334 . S
C173 N174 1.336 . S
N174 Zn170 2.020 . S
N174 C173 1.336 . S
N174 N175 1.354 . S
N175 C171 1.336 . S
N175 N174 1.354 . S
N175 Zn179 2.020 . S
C176 O177 1.244 . S
C176 O200 1.257 . S
O177 C176 1.244 . S
O178 Zn170 2.019 . S
O178 C198 1.258 . S
Zn179 N175 2.020 . S
Zn179 O186 1.975 . S
Zn179 N195 2.119 . S
Zn179 O200 2.019 . S
N180 Zn170 2.119 1_655 S
N180 C182 1.334 . S
N180 C183 1.328 . S
C181 C182 1.391 . S
C181 N184 1.329 . S
C181 H202 0.930 . S
C182 N180 1.334 . S
C182 C181 1.391 . S
C182 H189 0.930 . S
C183 N180 1.328 . S
C183 C185 1.392 . S
C183 H190 0.930 . S
N184 C181 1.329 . S
N184 C185 1.331 . S
C185 C183 1.392 . S
C185 N184 1.331 . S
O186 Zn179 1.975 . S
O186 C187 1.252 . S
C187 O186 1.252 . S
C187 O188 1.252 . S
O188 Zn170 1.975 . S
O188 C187 1.252 . S
H189 C182 0.930 . S
H190 C183 0.930 . S
C191 C192 1.392 . S
C191 N195 1.328 . S
C191 H197 0.930 . S
C192 C191 1.392 . S
C192 N196 1.331 . S
C193 C194 1.391 . S
C193 N196 1.329 . S
C193 H203 0.930 . S
C194 C193 1.391 . S
C194 N195 1.334 . S
C194 H201 0.930 . S
N195 Zn179 2.119 . S
N195 C191 1.328 . S
N195 C194 1.334 . S
N196 C192 1.331 . S
N196 C193 1.329 . S
H197 C191 0.930 . S
C198 O178 1.258 . S
C198 O199 1.244 . S
O199 C198 1.244 . S
O200 C176 1.257 . S
O200 Zn179 2.019 . S
H201 C194 0.930 . S
H202 C181 0.930 . S
H203 C193 0.930 . S
Zn204 N208 2.020 . S
Zn204 O212 2.019 . S
Zn204 N214 2.119 . S
Zn204 O222 1.975 . S
C205 N206 1.334 1_556 S
C205 N209 1.336 . S
N206 C205 1.334 1_554 S
N206 C207 1.334 1_554 S
C207 N206 1.334 1_556 S
C207 N208 1.336 . S
N208 Zn204 2.020 . S
N208 C207 1.336 . S
N208 N209 1.354 . S
N209 C205 1.336 . S
N209 N208 1.354 . S
N209 Zn213 2.020 . S
C210 O211 1.244 . S
C210 O234 1.257 . S
O211 C210 1.244 . S
O212 Zn204 2.019 . S
O212 C232 1.257 . S
Zn213 N209 2.020 . S
Zn213 O220 1.975 . S
Zn213 N229 2.119 . S
Zn213 O234 2.019 . S
N214 Zn204 2.119 . S
N214 C216 1.334 . S
N214 C217 1.328 . S
C215 C216 1.391 . S
C215 N218 1.329 . S
C215 H236 0.930 . S
C216 N214 1.334 . S
C216 C215 1.391 . S
C216 H223 0.930 . S
C217 N214 1.328 . S
C217 C219 1.392 . S
C217 H224 0.930 . S
N218 C215 1.329 . S
N218 C219 1.331 . S
C219 C217 1.392 . S
C219 N218 1.331 . S
O220 Zn213 1.975 . S
O220 C221 1.252 . S
C221 O220 1.252 . S
C221 O222 1.252 . S
O222 Zn204 1.975 . S
O222 C221 1.252 . S
H223 C216 0.930 . S
H224 C217 0.930 . S
C225 C226 1.392 . S
C225 N229 1.328 . S
C225 H231 0.930 . S
C226 C225 1.392 . S
C226 N230 1.331 . S
C227 C228 1.391 . S
C227 N230 1.329 . S
C227 H237 0.930 . S
C228 C227 1.391 . S
C228 N229 1.334 . S
C228 H235 0.930 . S
N229 Zn213 2.119 . S
N229 C225 1.328 . S
N229 C228 1.334 . S
N230 C226 1.331 . S
N230 C227 1.329 . S
H231 C225 0.930 . S
C232 O212 1.257 . S
C232 O233 1.244 . S
O233 C232 1.244 . S
O234 C210 1.257 . S
O234 Zn213 2.019 . S
H235 C228 0.930 . S
H236 C215 0.930 . S
H237 C227 0.930 . S
Zn238 N242 2.020 . S
Zn238 O246 2.019 . S
Zn238 N248 2.119 . S
Zn238 O256 1.975 . S
C239 N240 1.334 . S
C239 N243 1.336 . S
N240 C239 1.334 . S
N240 C241 1.334 . S
C241 N240 1.334 . S
C241 N242 1.336 . S
N242 Zn238 2.020 . S
N242 C241 1.336 . S
N242 N243 1.354 . S
N243 C239 1.336 . S
N243 N242 1.354 . S
N243 Zn247 2.020 . S
C244 O245 1.244 . S
C244 O268 1.258 . S
O245 C244 1.244 . S
O246 Zn238 2.019 . S
O246 C266 1.257 . S
Zn247 N243 2.020 . S
Zn247 O254 1.975 . S
Zn247 N263 2.119 1_455 S
Zn247 O268 2.019 . S
N248 Zn238 2.119 . S
N248 C250 1.334 . S
N248 C251 1.328 . S
C249 C250 1.391 . S
C249 N252 1.329 . S
C249 H270 0.930 . S
C250 N248 1.334 . S
C250 C249 1.391 . S
C250 H257 0.930 . S
C251 N248 1.328 . S
C251 C253 1.392 . S
C251 H258 0.930 . S
N252 C249 1.329 . S
N252 C253 1.331 . S
C253 C251 1.392 . S
C253 N252 1.331 . S
O254 Zn247 1.975 . S
O254 C255 1.252 . S
C255 O254 1.252 . S
C255 O256 1.252 . S
O256 Zn238 1.975 . S
O256 C255 1.252 . S
H257 C250 0.930 . S
H258 C251 0.930 . S
C259 C260 1.392 . S
C259 N263 1.328 . S
C259 H265 0.930 . S
C260 C259 1.392 . S
C260 N264 1.331 . S
C261 C262 1.391 . S
C261 N264 1.329 . S
C261 H271 0.930 . S
C262 C261 1.391 . S
C262 N263 1.334 . S
C262 H269 0.930 . S
N263 Zn247 2.119 1_655 S
N263 C259 1.328 . S
N263 C262 1.334 . S
N264 C260 1.331 . S
N264 C261 1.329 . S
H265 C259 0.930 . S
C266 O246 1.257 . S
C266 O267 1.244 . S
O267 C266 1.244 . S
O268 C244 1.258 . S
O268 Zn247 2.019 . S
H269 C262 0.930 . S
H270 C249 0.930 . S
H271 C261 0.930 . S
H272 C280 0.929 . S
H273 C282 0.930 . S
H274 C284 0.930 . S
H275 C287 0.929 . S
H276 C290 0.930 . S
H277 C292 0.960 . S
H278 C292 0.960 . S
H279 C292 0.960 . S
C280 H272 0.929 . S
C280 C281 1.377 . S
C280 C282 1.384 . S
C281 C280 1.377 . S
C281 C287 1.390 . S
C282 H273 0.930 . S
C282 C280 1.384 . S
C282 C283 1.372 . S
C283 C282 1.372 . S
C283 C284 1.400 . S
C283 C288 1.490 . S
C284 H274 0.930 . S
C284 C283 1.400 . S
C284 C287 1.386 . S
H285 C301 0.930 . S
H286 C302 0.931 . S
C287 H275 0.929 . S
C287 C281 1.390 . S
C287 C284 1.386 . S
C288 C283 1.490 . S
C288 C290 1.395 . S
C288 C291 1.403 . S
H289 C295 0.930 . S
C290 H276 0.930 . S
C290 C288 1.395 . S
C290 C293 1.403 . S
C291 C288 1.403 . S
C291 C292 1.524 . S
C291 C295 1.400 . S
C292 H277 0.960 . S
C292 H278 0.960 . S
C292 H279 0.960 . S
C292 C291 1.524 . S
C293 C290 1.403 . S
C293 C294 1.392 . S
C293 C297 1.495 . S
C294 C293 1.392 . S
C294 C295 1.385 . S
C294 C296 1.478 . S
C295 H289 0.930 . S
C295 C291 1.400 . S
C295 C294 1.385 . S
C296 C294 1.478 . S
C296 C298 1.381 . S
C296 C302 1.383 . S
C297 C293 1.495 . S
C297 H303 0.959 . S
C297 H304 0.961 . S
C297 H305 0.960 . S
C298 C296 1.381 . S
C298 C299 1.394 . S
C298 H306 0.930 . S
C299 C298 1.394 . S
C299 C300 1.383 . S
C299 H307 0.929 . S
C300 C299 1.383 . S
C300 C301 1.377 . S
C301 H285 0.930 . S
C301 C300 1.377 . S
C301 C302 1.379 . S
C302 H286 0.931 . S
C302 C296 1.383 . S
C302 C301 1.379 . S
H303 C297 0.959 . S
H304 C297 0.961 . S
H305 C297 0.960 . S
H306 C298 0.930 . S
H307 C299 0.929 . S
H308 C316 0.929 . S
H309 C318 0.930 . S
H310 C320 0.930 . S
H311 C323 0.929 . S
H312 C326 0.930 . S
H313 C328 0.960 . S
H314 C328 0.960 . S
H315 C328 0.960 . S
C316 H308 0.929 . S
C316 C317 1.377 . S
C316 C318 1.384 . S
C317 C316 1.377 . S
C317 C323 1.390 . S
C318 H309 0.930 . S
C318 C316 1.384 . S
C318 C319 1.372 . S
C319 C318 1.372 . S
C319 C320 1.400 . S
C319 C324 1.490 . S
C320 H310 0.930 . S
C320 C319 1.400 . S
C320 C323 1.386 . S
H321 C337 0.930 . S
H322 C338 0.931 . S
C323 H311 0.929 . S
C323 C317 1.390 . S
C323 C320 1.386 . S
C324 C319 1.490 . S
C324 C326 1.395 . S
C324 C327 1.403 . S
H325 C331 0.930 . S
C326 H312 0.930 . S
C326 C324 1.395 . S
C326 C329 1.403 . S
C327 C324 1.403 . S
C327 C328 1.524 . S
C327 C331 1.400 . S
C328 H313 0.960 . S
C328 H314 0.960 . S
C328 H315 0.960 . S
C328 C327 1.524 . S
C329 C326 1.403 . S
C329 C330 1.392 . S
C329 C333 1.495 . S
C330 C329 1.392 . S
C330 C331 1.385 . S
C330 C332 1.478 . S
C331 H325 0.930 . S
C331 C327 1.400 . S
C331 C330 1.385 . S
C332 C330 1.478 . S
C332 C334 1.381 . S
C332 C338 1.383 . S
C333 C329 1.495 . S
C333 H339 0.959 . S
C333 H340 0.961 . S
C333 H341 0.960 . S
C334 C332 1.381 . S
C334 C335 1.394 . S
C334 H342 0.930 . S
C335 C334 1.394 . S
C335 C336 1.383 . S
C335 H343 0.929 . S
C336 C335 1.383 . S
C336 C337 1.377 . S
C337 H321 0.930 . S
C337 C336 1.377 . S
C337 C338 1.379 . S
C338 H322 0.931 . S
C338 C332 1.383 . S
C338 C337 1.379 . S
H339 C333 0.959 . S
H340 C333 0.961 . S
H341 C333 0.960 . S
H342 C334 0.930 . S
H343 C335 0.929 . S
H344 C352 0.929 . S
H345 C354 0.930 . S
H346 C356 0.930 . S
H347 C359 0.929 . S
H348 C362 0.930 . S
H349 C364 0.960 . S
H350 C364 0.960 . S
H351 C364 0.960 . S
C352 H344 0.929 . S
C352 C353 1.377 . S
C352 C354 1.384 . S
C353 C352 1.377 . S
C353 C359 1.390 . S
C354 H345 0.930 . S
C354 C352 1.384 . S
C354 C355 1.372 . S
C355 C354 1.372 . S
C355 C356 1.400 . S
C355 C360 1.490 . S
C356 H346 0.930 . S
C356 C355 1.400 . S
C356 C359 1.386 . S
H357 C373 0.930 . S
H358 C374 0.931 . S
C359 H347 0.929 . S
C359 C353 1.390 . S
C359 C356 1.386 . S
C360 C355 1.490 . S
C360 C362 1.395 . S
C360 C363 1.403 . S
H361 C367 0.930 . S
C362 H348 0.930 . S
C362 C360 1.395 . S
C362 C365 1.403 . S
C363 C360 1.403 . S
C363 C364 1.524 . S
C363 C367 1.400 . S
C364 H349 0.960 . S
C364 H350 0.960 . S
C364 H351 0.960 . S
C364 C363 1.524 . S
C365 C362 1.403 . S
C365 C366 1.392 . S
C365 C369 1.495 . S
C366 C365 1.392 . S
C366 C367 1.385 . S
C366 C368 1.478 . S
C367 H361 0.930 . S
C367 C363 1.400 . S
C367 C366 1.385 . S
C368 C366 1.478 . S
C368 C370 1.381 . S
C368 C374 1.383 . S
C369 C365 1.495 . S
C369 H375 0.959 . S
C369 H376 0.961 . S
C369 H377 0.960 . S
C370 C368 1.381 . S
C370 C371 1.394 . S
C370 H378 0.930 . S
C371 C370 1.394 . S
C371 C372 1.383 . S
C371 H379 0.929 . S
C372 C371 1.383 . S
C372 C373 1.377 . S
C373 H357 0.930 . S
C373 C372 1.377 . S
C373 C374 1.379 . S
C374 H358 0.931 . S
C374 C368 1.383 . S
C374 C373 1.379 . S
H375 C369 0.959 . S
H376 C369 0.961 . S
H377 C369 0.960 . S
H378 C370 0.930 . S
H379 C371 0.929 . S
H380 C388 0.929 . S
H381 C390 0.930 . S
H382 C392 0.930 . S
H383 C395 0.929 . S
H384 C398 0.930 . S
H385 C400 0.960 . S
H386 C400 0.960 . S
H387 C400 0.960 . S
C388 H380 0.929 . S
C388 C389 1.377 . S
C388 C390 1.384 . S
C389 C388 1.377 . S
C389 C395 1.390 . S
C390 H381 0.930 . S
C390 C388 1.384 . S
C390 C391 1.372 . S
C391 C390 1.372 . S
C391 C392 1.400 . S
C391 C396 1.490 . S
C392 H382 0.930 . S
C392 C391 1.400 . S
C392 C395 1.386 . S
H393 C409 0.930 . S
H394 C410 0.931 . S
C395 H383 0.929 . S
C395 C389 1.390 . S
C395 C392 1.386 . S
C396 C391 1.490 . S
C396 C398 1.395 . S
C396 C399 1.403 . S
H397 C403 0.930 . S
C398 H384 0.930 . S
C398 C396 1.395 . S
C398 C401 1.403 . S
C399 C396 1.403 . S
C399 C400 1.524 . S
C399 C403 1.400 . S
C400 H385 0.960 . S
C400 H386 0.960 . S
C400 H387 0.960 . S
C400 C399 1.524 . S
C401 C398 1.403 . S
C401 C402 1.392 . S
C401 C405 1.495 . S
C402 C401 1.392 . S
C402 C403 1.385 . S
C402 C404 1.478 . S
C403 H397 0.930 . S
C403 C399 1.400 . S
C403 C402 1.385 . S
C404 C402 1.478 . S
C404 C406 1.381 . S
C404 C410 1.383 . S
C405 C401 1.495 . S
C405 H411 0.959 . S
C405 H412 0.961 . S
C405 H413 0.960 . S
C406 C404 1.381 . S
C406 C407 1.394 . S
C406 H414 0.930 . S
C407 C406 1.394 . S
C407 C408 1.383 . S
C407 H415 0.929 . S
C408 C407 1.383 . S
C408 C409 1.377 . S
C409 H393 0.930 . S
C409 C408 1.377 . S
C409 C410 1.379 . S
C410 H394 0.931 . S
C410 C404 1.383 . S
C410 C409 1.379 . S
H411 C405 0.959 . S
H412 C405 0.961 . S
H413 C405 0.960 . S
H414 C406 0.930 . S
H415 C407 0.929 . S
H416 C424 0.929 . S
H417 C426 0.930 . S
H418 C428 0.930 . S
H419 C431 0.929 . S
H420 C434 0.930 . S
H421 C436 0.960 . S
H422 C436 0.960 . S
H423 C436 0.960 . S
C424 H416 0.929 . S
C424 C425 1.377 . S
C424 C426 1.384 . S
C425 C424 1.377 . S
C425 C431 1.390 . S
C426 H417 0.930 . S
C426 C424 1.384 . S
C426 C427 1.372 . S
C427 C426 1.372 . S
C427 C428 1.400 . S
C427 C432 1.490 . S
C428 H418 0.930 . S
C428 C427 1.400 . S
C428 C431 1.386 . S
H429 C445 0.930 . S
H430 C446 0.931 . S
C431 H419 0.929 . S
C431 C425 1.390 . S
C431 C428 1.386 . S
C432 C427 1.490 . S
C432 C434 1.395 . S
C432 C435 1.403 . S
H433 C439 0.930 . S
C434 H420 0.930 . S
C434 C432 1.395 . S
C434 C437 1.403 . S
C435 C432 1.403 . S
C435 C436 1.524 . S
C435 C439 1.400 . S
C436 H421 0.960 . S
C436 H422 0.960 . S
C436 H423 0.960 . S
C436 C435 1.524 . S
C437 C434 1.403 . S
C437 C438 1.392 . S
C437 C441 1.495 . S
C438 C437 1.392 . S
C438 C439 1.385 . S
C438 C440 1.478 . S
C439 H433 0.930 . S
C439 C435 1.400 . S
C439 C438 1.385 . S
C440 C438 1.478 . S
C440 C442 1.381 . S
C440 C446 1.383 . S
C441 C437 1.495 . S
C441 H447 0.959 . S
C441 H448 0.961 . S
C441 H449 0.960 . S
C442 C440 1.381 . S
C442 C443 1.394 . S
C442 H450 0.930 . S
C443 C442 1.394 . S
C443 C444 1.383 . S
C443 H451 0.929 . S
C444 C443 1.383 . S
C444 C445 1.377 . S
C445 H429 0.930 . S
C445 C444 1.377 . S
C445 C446 1.379 . S
C446 H430 0.931 . S
C446 C440 1.383 . S
C446 C445 1.379 . S
H447 C441 0.959 . S
H448 C441 0.961 . S
H449 C441 0.960 . S
H450 C442 0.930 . S
H451 C443 0.929 . S
H452 C460 0.929 . S
H453 C462 0.930 . S
H454 C464 0.930 . S
H455 C467 0.929 . S
H456 C470 0.930 . S
H457 C472 0.960 . S
H458 C472 0.960 . S
H459 C472 0.960 . S
C460 H452 0.929 . S
C460 C461 1.377 . S
C460 C462 1.384 . S
C461 C460 1.377 . S
C461 C467 1.390 . S
C462 H453 0.930 . S
C462 C460 1.384 . S
C462 C463 1.372 . S
C463 C462 1.372 . S
C463 C464 1.400 . S
C463 C468 1.490 . S
C464 H454 0.930 . S
C464 C463 1.400 . S
C464 C467 1.386 . S
H465 C481 0.930 . S
H466 C482 0.931 . S
C467 H455 0.929 . S
C467 C461 1.390 . S
C467 C464 1.386 . S
C468 C463 1.490 . S
C468 C470 1.395 . S
C468 C471 1.403 . S
H469 C475 0.930 . S
C470 H456 0.930 . S
C470 C468 1.395 . S
C470 C473 1.403 . S
C471 C468 1.403 . S
C471 C472 1.524 . S
C471 C475 1.400 . S
C472 H457 0.960 . S
C472 H458 0.960 . S
C472 H459 0.960 . S
C472 C471 1.524 . S
C473 C470 1.403 . S
C473 C474 1.392 . S
C473 C477 1.495 . S
C474 C473 1.392 . S
C474 C475 1.385 . S
C474 C476 1.478 . S
C475 H469 0.930 . S
C475 C471 1.400 . S
C475 C474 1.385 . S
C476 C474 1.478 . S
C476 C478 1.381 . S
C476 C482 1.383 . S
C477 C473 1.495 . S
C477 H483 0.959 . S
C477 H484 0.961 . S
C477 H485 0.960 . S
C478 C476 1.381 . S
C478 C479 1.394 . S
C478 H486 0.930 . S
C479 C478 1.394 . S
C479 C480 1.383 . S
C479 H487 0.929 . S
C480 C479 1.383 . S
C480 C481 1.377 . S
C481 H465 0.930 . S
C481 C480 1.377 . S
C481 C482 1.379 . S
C482 H466 0.931 . S
C482 C476 1.383 . S
C482 C481 1.379 . S
H483 C477 0.959 . S
H484 C477 0.961 . S
H485 C477 0.960 . S
H486 C478 0.930 . S
H487 C479 0.929 . S
H488 C496 0.929 . S
H489 C498 0.930 . S
H490 C500 0.930 . S
H491 C503 0.929 . S
H492 C506 0.930 . S
H493 C508 0.960 . S
H494 C508 0.960 . S
H495 C508 0.960 . S
C496 H488 0.929 . S
C496 C497 1.377 . S
C496 C498 1.384 . S
C497 C496 1.377 . S
C497 C503 1.390 . S
C498 H489 0.930 . S
C498 C496 1.384 . S
C498 C499 1.372 . S
C499 C498 1.372 . S
C499 C500 1.400 . S
C499 C504 1.490 . S
C500 H490 0.930 . S
C500 C499 1.400 . S
C500 C503 1.386 . S
H501 C517 0.930 . S
H502 C518 0.931 . S
C503 H491 0.929 . S
C503 C497 1.390 . S
C503 C500 1.386 . S
C504 C499 1.490 . S
C504 C506 1.395 . S
C504 C507 1.403 . S
H505 C511 0.930 . S
C506 H492 0.930 . S
C506 C504 1.395 . S
C506 C509 1.403 . S
C507 C504 1.403 . S
C507 C508 1.524 . S
C507 C511 1.400 . S
C508 H493 0.960 . S
C508 H494 0.960 . S
C508 H495 0.960 . S
C508 C507 1.524 . S
C509 C506 1.403 . S
C509 C510 1.392 . S
C509 C513 1.495 . S
C510 C509 1.392 . S
C510 C511 1.385 . S
C510 C512 1.478 . S
C511 H505 0.930 . S
C511 C507 1.400 . S
C511 C510 1.385 . S
C512 C510 1.478 . S
C512 C514 1.381 . S
C512 C518 1.383 . S
C513 C509 1.495 . S
C513 H519 0.959 . S
C513 H520 0.961 . S
C513 H521 0.960 . S
C514 C512 1.381 . S
C514 C515 1.394 . S
C514 H522 0.930 . S
C515 C514 1.394 . S
C515 C516 1.383 . S
C515 H523 0.929 . S
C516 C515 1.383 . S
C516 C517 1.377 . S
C517 H501 0.930 . S
C517 C516 1.377 . S
C517 C518 1.379 . S
C518 H502 0.931 . S
C518 C512 1.383 . S
C518 C517 1.379 . S
H519 C513 0.959 . S
H520 C513 0.961 . S
H521 C513 0.960 . S
H522 C514 0.930 . S
H523 C515 0.929 . S
H524 C532 0.929 . S
H525 C534 0.930 . S
H526 C536 0.930 . S
H527 C539 0.929 . S
H528 C542 0.930 . S
H529 C544 0.960 . S
H530 C544 0.960 . S
H531 C544 0.960 . S
C532 H524 0.929 . S
C532 C533 1.377 . S
C532 C534 1.384 . S
C533 C532 1.377 . S
C533 C539 1.390 . S
C534 H525 0.930 . S
C534 C532 1.384 . S
C534 C535 1.372 . S
C535 C534 1.372 . S
C535 C536 1.400 . S
C535 C540 1.490 . S
C536 H526 0.930 . S
C536 C535 1.400 . S
C536 C539 1.386 . S
H537 C553 0.930 . S
H538 C554 0.931 . S
C539 H527 0.929 . S
C539 C533 1.390 . S
C539 C536 1.386 . S
C540 C535 1.490 . S
C540 C542 1.395 . S
C540 C543 1.403 . S
H541 C547 0.930 . S
C542 H528 0.930 . S
C542 C540 1.395 . S
C542 C545 1.403 . S
C543 C540 1.403 . S
C543 C544 1.524 . S
C543 C547 1.400 . S
C544 H529 0.960 . S
C544 H530 0.960 . S
C544 H531 0.960 . S
C544 C543 1.524 . S
C545 C542 1.403 . S
C545 C546 1.392 . S
C545 C549 1.495 . S
C546 C545 1.392 . S
C546 C547 1.385 . S
C546 C548 1.478 . S
C547 H541 0.930 . S
C547 C543 1.400 . S
C547 C546 1.385 . S
C548 C546 1.478 . S
C548 C550 1.381 . S
C548 C554 1.383 . S
C549 C545 1.495 . S
C549 H555 0.959 . S
C549 H556 0.961 . S
C549 H557 0.960 . S
C550 C548 1.381 . S
C550 C551 1.394 . S
C550 H558 0.930 . S
C551 C550 1.394 . S
C551 C552 1.383 . S
C551 H559 0.929 . S
C552 C551 1.383 . S
C552 C553 1.377 . S
C553 H537 0.930 . S
C553 C552 1.377 . S
C553 C554 1.379 . S
C554 H538 0.931 . S
C554 C548 1.383 . S
C554 C553 1.379 . S
H555 C549 0.959 . S
H556 C549 0.961 . S
H557 C549 0.960 . S
H558 C550 0.930 . S
H559 C551 0.929 . S
H560 C568 0.929 . S
H561 C570 0.930 . S
H562 C572 0.930 . S
H563 C575 0.929 . S
H564 C578 0.930 . S
H565 C580 0.960 . S
H566 C580 0.960 . S
H567 C580 0.960 . S
C568 H560 0.929 . S
C568 C569 1.377 . S
C568 C570 1.384 . S
C569 C568 1.377 . S
C569 C575 1.390 . S
C570 H561 0.930 . S
C570 C568 1.384 . S
C570 C571 1.372 . S
C571 C570 1.372 . S
C571 C572 1.400 . S
C571 C576 1.490 . S
C572 H562 0.930 . S
C572 C571 1.400 . S
C572 C575 1.386 . S
H573 C589 0.930 . S
H574 C590 0.931 . S
C575 H563 0.929 . S
C575 C569 1.390 . S
C575 C572 1.386 . S
C576 C571 1.490 . S
C576 C578 1.395 1_556 S
C576 C579 1.403 . S
H577 C583 0.930 . S
C578 H564 0.930 . S
C578 C576 1.395 1_554 S
C578 C581 1.403 . S
C579 C576 1.403 . S
C579 C580 1.524 . S
C579 C583 1.400 . S
C580 H565 0.960 . S
C580 H566 0.960 . S
C580 H567 0.960 . S
C580 C579 1.524 . S
C581 C578 1.403 . S
C581 C582 1.392 . S
C581 C585 1.495 . S
C582 C581 1.392 . S
C582 C583 1.385 1_554 S
C582 C584 1.478 . S
C583 H577 0.930 . S
C583 C579 1.400 . S
C583 C582 1.385 1_556 S
C584 C582 1.478 . S
C584 C586 1.381 . S
C584 C590 1.383 . S
C585 C581 1.495 . S
C585 H591 0.959 . S
C585 H592 0.961 . S
C585 H593 0.960 . S
C586 C584 1.381 . S
C586 C587 1.394 . S
C586 H594 0.930 . S
C587 C586 1.394 . S
C587 C588 1.383 . S
C587 H595 0.929 . S
C588 C587 1.383 . S
C588 C589 1.377 . S
C589 H573 0.930 . S
C589 C588 1.377 . S
C589 C590 1.379 . S
C590 H574 0.931 . S
C590 C584 1.383 . S
C590 C589 1.379 . S
H591 C585 0.959 . S
H592 C585 0.961 . S
H593 C585 0.960 . S
H594 C586 0.930 . S
H595 C587 0.929 . S
H596 C604 0.929 . S
H597 C606 0.930 . S
H598 C608 0.930 . S
H599 C611 0.929 . S
H600 C614 0.930 . S
H601 C616 0.960 . S
H602 C616 0.960 . S
H603 C616 0.960 . S
C604 H596 0.929 . S
C604 C605 1.377 . S
C604 C606 1.384 . S
C605 C604 1.377 . S
C605 C611 1.390 . S
C606 H597 0.930 . S
C606 C604 1.384 . S
C606 C607 1.372 . S
C607 C606 1.372 . S
C607 C608 1.400 . S
C607 C612 1.490 . S
C608 H598 0.930 . S
C608 C607 1.400 . S
C608 C611 1.386 . S
H609 C625 0.930 . S
H610 C626 0.931 . S
C611 H599 0.929 . S
C611 C605 1.390 . S
C611 C608 1.386 . S
C612 C607 1.490 . S
C612 C614 1.395 . S
C612 C615 1.403 . S
H613 C619 0.930 . S
C614 H600 0.930 . S
C614 C612 1.395 . S
C614 C617 1.403 . S
C615 C612 1.403 . S
C615 C616 1.524 . S
C615 C619 1.400 . S
C616 H601 0.960 . S
C616 H602 0.960 . S
C616 H603 0.960 . S
C616 C615 1.524 . S
C617 C614 1.403 . S
C617 C618 1.392 . S
C617 C621 1.495 . S
C618 C617 1.392 . S
C618 C619 1.385 . S
C618 C620 1.478 . S
C619 H613 0.930 . S
C619 C615 1.400 . S
C619 C618 1.385 . S
C620 C618 1.478 . S
C620 C622 1.381 . S
C620 C626 1.383 . S
C621 C617 1.495 . S
C621 H627 0.959 . S
C621 H628 0.961 . S
C621 H629 0.960 . S
C622 C620 1.381 . S
C622 C623 1.394 . S
C622 H630 0.930 . S
C623 C622 1.394 . S
C623 C624 1.383 . S
C623 H631 0.929 . S
C624 C623 1.383 . S
C624 C625 1.377 . S
C625 H609 0.930 . S
C625 C624 1.377 . S
C625 C626 1.379 . S
C626 H610 0.931 . S
C626 C620 1.383 . S
C626 C625 1.379 . S
H627 C621 0.959 . S
H628 C621 0.961 . S
H629 C621 0.960 . S
H630 C622 0.930 . S
H631 C623 0.929 . S
H632 C640 0.929 . S
H633 C642 0.930 . S
H634 C644 0.930 . S
H635 C647 0.929 . S
H636 C650 0.930 . S
H637 C652 0.960 1_565 S
H638 C652 0.960 . S
H639 C652 0.960 . S
C640 H632 0.929 . S
C640 C641 1.377 . S
C640 C642 1.384 . S
C641 C640 1.377 . S
C641 C647 1.390 . S
C642 H633 0.930 . S
C642 C640 1.384 . S
C642 C643 1.372 . S
C643 C642 1.372 . S
C643 C644 1.400 . S
C643 C648 1.490 . S
C644 H634 0.930 . S
C644 C643 1.400 . S
C644 C647 1.386 . S
H645 C661 0.930 . S
H646 C662 0.931 . S
C647 H635 0.929 . S
C647 C641 1.390 . S
C647 C644 1.386 . S
C648 C643 1.490 . S
C648 C650 1.395 1_556 S
C648 C651 1.403 . S
H649 C655 0.930 . S
C650 H636 0.930 . S
C650 C648 1.395 1_554 S
C650 C653 1.403 1_545 S
C651 C648 1.403 . S
C651 C652 1.524 . S
C651 C655 1.400 1_545 S
C652 H637 0.960 1_545 S
C652 H638 0.960 . S
C652 H639 0.960 . S
C652 C651 1.524 . S
C653 C650 1.403 1_565 S
C653 C654 1.392 . S
C653 C657 1.495 . S
C654 C653 1.392 . S
C654 C655 1.385 1_554 S
C654 C656 1.478 . S
C655 H649 0.930 . S
C655 C651 1.400 1_565 S
C655 C654 1.385 1_556 S
C656 C654 1.478 . S
C656 C658 1.381 . S
C656 C662 1.383 . S
C657 C653 1.495 . S
C657 H663 0.959 1_565 S
C657 H664 0.961 . S
C657 H665 0.960 . S
C658 C656 1.381 . S
C658 C659 1.394 . S
C658 H666 0.930 . S
C659 C658 1.394 . S
C659 C660 1.383 . S
C659 H667 0.929 . S
C660 C659 1.383 . S
C660 C661 1.377 . S
C661 H645 0.930 . S
C661 C660 1.377 . S
C661 C662 1.379 . S
C662 H646 0.931 . S
C662 C656 1.383 . S
C662 C661 1.379 . S
H663 C657 0.959 1_545 S
H664 C657 0.961 . S
H665 C657 0.960 . S
H666 C658 0.930 . S
H667 C659 0.929 . S
H668 C676 0.929 . S
H669 C678 0.930 . S
H670 C680 0.930 . S
H671 C683 0.929 . S
H672 C686 0.930 . S
H673 C688 0.960 1_545 S
H674 C688 0.960 . S
H675 C688 0.960 . S
C676 H668 0.929 . S
C676 C677 1.377 . S
C676 C678 1.384 . S
C677 C676 1.377 . S
C677 C683 1.390 . S
C678 H669 0.930 . S
C678 C676 1.384 . S
C678 C679 1.372 . S
C679 C678 1.372 . S
C679 C680 1.400 . S
C679 C684 1.490 . S
C680 H670 0.930 . S
C680 C679 1.400 . S
C680 C683 1.386 . S
H681 C697 0.930 . S
H682 C698 0.931 . S
C683 H671 0.929 . S
C683 C677 1.390 . S
C683 C680 1.386 . S
C684 C679 1.490 . S
C684 C686 1.395 . S
C684 C687 1.403 . S
H685 C691 0.930 1_655 S
C686 H672 0.930 . S
C686 C684 1.395 . S
C686 C689 1.403 1_565 S
C687 C684 1.403 . S
C687 C688 1.524 1_455 S
C687 C691 1.400 1_565 S
C688 H673 0.960 1_565 S
C688 H674 0.960 . S
C688 H675 0.960 . S
C688 C687 1.524 1_655 S
C689 C686 1.403 1_545 S
C689 C690 1.392 . S
C689 C693 1.495 . S
C690 C689 1.392 . S
C690 C691 1.385 . S
C690 C692 1.478 . S
C691 H685 0.930 1_455 S
C691 C687 1.400 1_545 S
C691 C690 1.385 . S
C692 C690 1.478 . S
C692 C694 1.381 . S
C692 C698 1.383 . S
C693 C689 1.495 . S
C693 H699 0.959 1_545 S
C693 H700 0.961 . S
C693 H701 0.960 . S
C694 C692 1.381 . S
C694 C695 1.394 . S
C694 H702 0.930 . S
C695 C694 1.394 . S
C695 C696 1.383 . S
C695 H703 0.929 . S
C696 C695 1.383 . S
C696 C697 1.377 . S
C697 H681 0.930 . S
C697 C696 1.377 . S
C697 C698 1.379 . S
C698 H682 0.931 . S
C698 C692 1.383 . S
C698 C697 1.379 . S
H699 C693 0.959 1_565 S
H700 C693 0.961 . S
H701 C693 0.960 . S
H702 C694 0.930 . S
H703 C695 0.929 . S
H704 C712 0.929 . S
H705 C714 0.930 . S
H706 C716 0.930 . S
H707 C719 0.929 . S
H708 C722 0.930 . S
H709 C724 0.974 . S
H710 C724 0.960 . S
H711 C724 0.960 . S
C712 H704 0.929 . S
C712 C713 1.377 1_556 S
C712 C714 1.384 . S
C713 C712 1.377 1_554 S
C713 C719 1.390 . S
C714 H705 0.930 . S
C714 C712 1.384 . S
C714 C715 1.372 . S
C715 C714 1.372 . S
C715 C716 1.400 1_556 S
C715 C720 1.490 . S
C716 H706 0.930 . S
C716 C715 1.400 1_554 S
C716 C719 1.386 . S
H717 C733 0.930 . S
H718 C734 0.931 . S
C719 H707 0.929 . S
C719 C713 1.390 . S
C719 C716 1.386 . S
C720 C715 1.490 . S
C720 C722 1.395 . S
C720 C723 1.403 . S
H721 C727 0.930 . S
C722 H708 0.930 . S
C722 C720 1.395 . S
C722 C725 1.403 . S
C723 C720 1.403 . S
C723 C724 1.524 . S
C723 C727 1.400 . S
C724 H709 0.974 . S
C724 H710 0.960 . S
C724 H711 0.960 . S
C724 C723 1.524 . S
C725 C722 1.403 . S
C725 C726 1.392 . S
C725 C729 1.495 . S
C726 C725 1.392 . S
C726 C727 1.385 . S
C726 C728 1.478 . S
C727 H721 0.930 . S
C727 C723 1.400 . S
C727 C726 1.385 . S
C728 C726 1.478 . S
C728 C730 1.381 . S
C728 C734 1.383 . S
C729 C725 1.495 . S
C729 H735 0.959 . S
C729 H736 0.961 . S
C729 H737 0.960 . S
C730 C728 1.381 . S
C730 C731 1.394 . S
C730 H738 0.930 . S
C731 C730 1.394 . S
C731 C732 1.383 . S
C731 H739 0.929 . S
C732 C731 1.383 . S
C732 C733 1.377 . S
C733 H717 0.930 . S
C733 C732 1.377 . S
C733 C734 1.379 . S
C734 H718 0.931 . S
C734 C728 1.383 . S
C734 C733 1.379 . S
H735 C729 0.959 . S
H736 C729 0.961 . S
H737 C729 0.960 . S
H738 C730 0.930 . S
H739 C731 0.929 . S
H740 C748 0.929 . S
H741 C750 0.930 . S
H742 C752 0.930 . S
H743 C755 0.929 . S
H744 C758 0.930 . S
H745 C760 0.960 . S
H746 C760 0.960 . S
H747 C760 0.960 . S
C748 H740 0.929 . S
C748 C749 1.377 . S
C748 C750 1.384 . S
C749 C748 1.377 . S
C749 C755 1.390 . S
C750 H741 0.930 . S
C750 C748 1.384 . S
C750 C751 1.372 . S
C751 C750 1.372 . S
C751 C752 1.400 . S
C751 C756 1.490 . S
C752 H742 0.930 . S
C752 C751 1.400 . S
C752 C755 1.386 . S
H753 C769 0.930 . S
H754 C770 0.931 . S
C755 H743 0.929 . S
C755 C749 1.390 . S
C755 C752 1.386 . S
C756 C751 1.490 . S
C756 C758 1.395 . S
C756 C759 1.403 . S
H757 C763 0.930 . S
C758 H744 0.930 . S
C758 C756 1.395 . S
C758 C761 1.403 . S
C759 C756 1.403 . S
C759 C760 1.524 . S
C759 C763 1.400 . S
C760 H745 0.960 . S
C760 H746 0.960 . S
C760 H747 0.960 . S
C760 C759 1.524 . S
C761 C758 1.403 . S
C761 C762 1.392 . S
C761 C765 1.495 . S
C762 C761 1.392 . S
C762 C763 1.385 . S
C762 C764 1.478 . S
C763 H757 0.930 . S
C763 C759 1.400 . S
C763 C762 1.385 . S
C764 C762 1.478 . S
C764 C766 1.381 . S
C764 C770 1.383 . S
C765 C761 1.495 . S
C765 H771 0.959 . S
C765 H772 0.961 . S
C765 H773 0.960 . S
C766 C764 1.381 . S
C766 C767 1.394 . S
C766 H774 0.930 . S
C767 C766 1.394 . S
C767 C768 1.383 . S
C767 H775 0.929 . S
C768 C767 1.383 . S
C768 C769 1.377 . S
C769 H753 0.930 . S
C769 C768 1.377 . S
C769 C770 1.379 . S
C770 H754 0.931 . S
C770 C764 1.383 . S
C770 C769 1.379 . S
H771 C765 0.959 . S
H772 C765 0.961 . S
H773 C765 0.960 . S
H774 C766 0.930 . S
H775 C767 0.929 . S
H776 C784 0.929 . S
H777 C786 0.930 . S
H778 C788 0.930 . S
H779 C791 0.929 . S
H780 C794 0.930 . S
H781 C796 0.960 . S
H782 C796 0.960 . S
H783 C796 0.960 . S
C784 H776 0.929 . S
C784 C785 1.377 . S
C784 C786 1.384 . S
C785 C784 1.377 . S
C785 C791 1.390 . S
C786 H777 0.930 . S
C786 C784 1.384 . S
C786 C787 1.372 . S
C787 C786 1.372 . S
C787 C788 1.400 . S
C787 C792 1.490 . S
C788 H778 0.930 . S
C788 C787 1.400 . S
C788 C791 1.386 . S
H789 C805 0.930 . S
H790 C806 0.931 . S
C791 H779 0.929 . S
C791 C785 1.390 . S
C791 C788 1.386 . S
C792 C787 1.490 . S
C792 C794 1.395 . S
C792 C795 1.403 . S
H793 C799 0.930 . S
C794 H780 0.930 . S
C794 C792 1.395 . S
C794 C797 1.403 . S
C795 C792 1.403 . S
C795 C796 1.524 . S
C795 C799 1.400 . S
C796 H781 0.960 . S
C796 H782 0.960 . S
C796 H783 0.960 . S
C796 C795 1.524 . S
C797 C794 1.403 . S
C797 C798 1.392 . S
C797 C801 1.495 1_554 S
C798 C797 1.392 . S
C798 C799 1.385 . S
C798 C800 1.478 . S
C799 H793 0.930 . S
C799 C795 1.400 . S
C799 C798 1.385 . S
C800 C798 1.478 . S
C800 C802 1.381 . S
C800 C806 1.383 1_554 S
C801 C797 1.495 1_556 S
C801 H807 0.959 . S
C801 H808 0.961 . S
C801 H809 0.960 1_556 S
C802 C800 1.381 . S
C802 C803 1.394 . S
C802 H810 0.930 . S
C803 C802 1.394 . S
C803 C804 1.383 1_554 S
C803 H811 0.929 . S
C804 C803 1.383 1_556 S
C804 C805 1.377 . S
C805 H789 0.930 . S
C805 C804 1.377 . S
C805 C806 1.379 . S
C806 H790 0.931 . S
C806 C800 1.383 1_556 S
C806 C805 1.379 . S
H807 C801 0.959 . S
H808 C801 0.961 . S
H809 C801 0.960 1_554 S
H810 C802 0.930 . S
H811 C803 0.929 . S
H812 C820 0.929 . S
H813 C822 0.930 . S
H814 C824 0.930 . S
H815 C827 0.929 . S
H816 C830 0.930 . S
H817 C832 0.960 . S
H818 C832 0.960 . S
H819 C832 0.960 . S
C820 H812 0.929 . S
C820 C821 1.377 . S
C820 C822 1.384 . S
C821 C820 1.377 . S
C821 C827 1.390 . S
C822 H813 0.930 . S
C822 C820 1.384 . S
C822 C823 1.372 . S
C823 C822 1.372 . S
C823 C824 1.400 . S
C823 C828 1.490 . S
C824 H814 0.930 . S
C824 C823 1.400 . S
C824 C827 1.386 . S
H825 C841 0.930 . S
H826 C842 0.931 . S
C827 H815 0.929 . S
C827 C821 1.390 . S
C827 C824 1.386 . S
C828 C823 1.490 . S
C828 C830 1.395 . S
C828 C831 1.403 . S
H829 C835 0.930 . S
C830 H816 0.930 . S
C830 C828 1.395 . S
C830 C833 1.403 . S
C831 C828 1.403 . S
C831 C832 1.524 . S
C831 C835 1.400 . S
C832 H817 0.960 . S
C832 H818 0.960 . S
C832 H819 0.960 . S
C832 C831 1.524 . S
C833 C830 1.403 . S
C833 C834 1.392 . S
C833 C837 1.495 . S
C834 C833 1.392 . S
C834 C835 1.385 . S
C834 C836 1.478 . S
C835 H829 0.930 . S
C835 C831 1.400 . S
C835 C834 1.385 . S
C836 C834 1.478 . S
C836 C838 1.381 . S
C836 C842 1.383 . S
C837 C833 1.495 . S
C837 H843 0.959 . S
C837 H844 0.961 . S
C837 H845 0.960 . S
C838 C836 1.381 . S
C838 C839 1.394 . S
C838 H846 0.930 . S
C839 C838 1.394 . S
C839 C840 1.383 . S
C839 H847 0.929 . S
C840 C839 1.383 . S
C840 C841 1.377 . S
C841 H825 0.930 . S
C841 C840 1.377 . S
C841 C842 1.379 . S
C842 H826 0.931 . S
C842 C836 1.383 . S
C842 C841 1.379 . S
H843 C837 0.959 . S
H844 C837 0.961 . S
H845 C837 0.960 . S
H846 C838 0.930 . S
H847 C839 0.929 . S
H848 C856 0.929 . S
H849 C858 0.930 . S
H850 C860 0.930 . S
H851 C863 0.929 . S
H852 C866 0.930 . S
H853 C868 0.960 . S
H854 C868 0.960 . S
H855 C868 0.960 . S
C856 H848 0.929 . S
C856 C857 1.377 . S
C856 C858 1.384 . S
C857 C856 1.377 . S
C857 C863 1.390 . S
C858 H849 0.930 . S
C858 C856 1.384 . S
C858 C859 1.372 . S
C859 C858 1.372 . S
C859 C860 1.400 . S
C859 C864 1.490 . S
C860 H850 0.930 . S
C860 C859 1.400 . S
C860 C863 1.386 . S
H861 C877 0.930 . S
H862 C878 0.931 . S
C863 H851 0.929 . S
C863 C857 1.390 . S
C863 C860 1.386 . S
C864 C859 1.490 . S
C864 C866 1.395 . S
C864 C867 1.403 . S
H865 C871 0.930 . S
C866 H852 0.930 . S
C866 C864 1.395 . S
C866 C869 1.403 . S
C867 C864 1.403 . S
C867 C868 1.524 . S
C867 C871 1.400 . S
C868 H853 0.960 . S
C868 H854 0.960 . S
C868 H855 0.960 . S
C868 C867 1.524 . S
C869 C866 1.403 . S
C869 C870 1.392 . S
C869 C873 1.495 1_556 S
C870 C869 1.392 . S
C870 C871 1.385 . S
C870 C872 1.478 . S
C871 H865 0.930 . S
C871 C867 1.400 . S
C871 C870 1.385 . S
C872 C870 1.478 . S
C872 C874 1.381 1_556 S
C872 C878 1.383 . S
C873 C869 1.495 1_554 S
C873 H879 0.959 . S
C873 H880 0.961 . S
C873 H881 0.960 . S
C874 C872 1.381 1_554 S
C874 C875 1.394 . S
C874 H882 0.930 . S
C875 C874 1.394 . S
C875 C876 1.383 . S
C875 H883 0.929 . S
C876 C875 1.383 . S
C876 C877 1.377 1_554 S
C877 H861 0.930 . S
C877 C876 1.377 1_556 S
C877 C878 1.379 . S
C878 H862 0.931 . S
C878 C872 1.383 . S
C878 C877 1.379 . S
H879 C873 0.959 . S
H880 C873 0.961 . S
H881 C873 0.960 . S
H882 C874 0.930 . S
H883 C875 0.929 . S
H884 C892 0.929 . S
H885 C894 0.930 . S
H886 C896 0.930 . S
H887 C899 0.929 . S
H888 C902 0.930 . S
H889 C904 0.960 . S
H890 C904 0.960 . S
H891 C904 0.960 . S
C892 H884 0.929 . S
C892 C893 1.377 . S
C892 C894 1.384 . S
C893 C892 1.377 . S
C893 C899 1.390 . S
C894 H885 0.930 . S
C894 C892 1.384 . S
C894 C895 1.372 . S
C895 C894 1.372 . S
C895 C896 1.400 . S
C895 C900 1.490 . S
C896 H886 0.930 . S
C896 C895 1.400 . S
C896 C899 1.386 . S
H897 C913 0.930 . S
H898 C914 0.931 . S
C899 H887 0.929 . S
C899 C893 1.390 . S
C899 C896 1.386 . S
C900 C895 1.490 . S
C900 C902 1.395 . S
C900 C903 1.403 . S
H901 C907 0.930 . S
C902 H888 0.930 . S
C902 C900 1.395 . S
C902 C905 1.403 . S
C903 C900 1.403 . S
C903 C904 1.524 . S
C903 C907 1.400 . S
C904 H889 0.960 . S
C904 H890 0.960 . S
C904 H891 0.960 . S
C904 C903 1.524 . S
C905 C902 1.403 . S
C905 C906 1.392 . S
C905 C909 1.495 . S
C906 C905 1.392 . S
C906 C907 1.385 . S
C906 C908 1.478 . S
C907 H901 0.930 . S
C907 C903 1.400 . S
C907 C906 1.385 . S
C908 C906 1.478 . S
C908 C910 1.381 . S
C908 C914 1.383 . S
C909 C905 1.495 . S
C909 H915 0.959 . S
C909 H916 0.961 . S
C909 H917 0.960 . S
C910 C908 1.381 . S
C910 C911 1.394 . S
C910 H918 0.930 . S
C911 C910 1.394 . S
C911 C912 1.383 . S
C911 H919 0.929 . S
C912 C911 1.383 . S
C912 C913 1.377 . S
C913 H897 0.930 . S
C913 C912 1.377 . S
C913 C914 1.379 . S
C914 H898 0.931 . S
C914 C908 1.383 . S
C914 C913 1.379 . S
H915 C909 0.959 . S
H916 C909 0.961 . S
H917 C909 0.960 . S
H918 C910 0.930 . S
H919 C911 0.929 . S
H920 C928 0.929 . S
H921 C930 0.930 . S
H922 C932 0.930 . S
H923 C935 0.929 . S
H924 C938 0.930 . S
H925 C940 0.960 . S
H926 C940 0.960 . S
H927 C940 0.960 . S
C928 H920 0.929 . S
C928 C929 1.377 . S
C928 C930 1.384 . S
C929 C928 1.377 . S
C929 C935 1.390 . S
C930 H921 0.930 . S
C930 C928 1.384 . S
C930 C931 1.372 . S
C931 C930 1.372 . S
C931 C932 1.400 . S
C931 C936 1.490 . S
C932 H922 0.930 . S
C932 C931 1.400 . S
C932 C935 1.386 . S
H933 C949 0.930 . S
H934 C950 0.931 . S
C935 H923 0.929 . S
C935 C929 1.390 . S
C935 C932 1.386 . S
C936 C931 1.490 . S
C936 C938 1.395 . S
C936 C939 1.403 . S
H937 C943 0.930 . S
C938 H924 0.930 . S
C938 C936 1.395 . S
C938 C941 1.403 . S
C939 C936 1.403 . S
C939 C940 1.524 . S
C939 C943 1.400 . S
C940 H925 0.960 . S
C940 H926 0.960 . S
C940 H927 0.960 . S
C940 C939 1.524 . S
C941 C938 1.403 . S
C941 C942 1.392 . S
C941 C945 1.495 1_554 S
C942 C941 1.392 . S
C942 C943 1.385 . S
C942 C944 1.478 . S
C943 H937 0.930 . S
C943 C939 1.400 . S
C943 C942 1.385 . S
C944 C942 1.478 . S
C944 C946 1.381 . S
C944 C950 1.383 1_554 S
C945 C941 1.495 1_556 S
C945 H951 0.959 . S
C945 H952 0.961 . S
C945 H953 0.960 . S
C946 C944 1.381 . S
C946 C947 1.394 1_554 S
C946 H954 0.930 . S
C947 C946 1.394 1_556 S
C947 C948 1.383 . S
C947 H955 0.929 . S
C948 C947 1.383 . S
C948 C949 1.377 . S
C949 H933 0.930 . S
C949 C948 1.377 . S
C949 C950 1.379 . S
C950 H934 0.931 . S
C950 C944 1.383 1_556 S
C950 C949 1.379 . S
H951 C945 0.959 . S
H952 C945 0.961 . S
H953 C945 0.960 . S
H954 C946 0.930 . S
H955 C947 0.929 . S
H956 C964 0.929 . S
H957 C966 0.930 . S
H958 C968 0.930 . S
H959 C971 0.929 . S
H960 C974 0.930 . S
H961 C976 0.960 . S
H962 C976 0.960 . S
H963 C976 0.960 . S
C964 H956 0.929 . S
C964 C965 1.377 . S
C964 C966 1.384 . S
C965 C964 1.377 . S
C965 C971 1.390 . S
C966 H957 0.930 . S
C966 C964 1.384 . S
C966 C967 1.372 . S
C967 C966 1.372 . S
C967 C968 1.400 . S
C967 C972 1.490 . S
C968 H958 0.930 . S
C968 C967 1.400 . S
C968 C971 1.386 . S
H969 C985 0.930 . S
H970 C986 0.931 . S
C971 H959 0.929 . S
C971 C965 1.390 . S
C971 C968 1.386 . S
C972 C967 1.490 . S
C972 C974 1.395 . S
C972 C975 1.403 . S
H973 C979 0.930 . S
C974 H960 0.930 . S
C974 C972 1.395 . S
C974 C977 1.403 . S
C975 C972 1.403 . S
C975 C976 1.524 . S
C975 C979 1.400 . S
C976 H961 0.960 . S
C976 H962 0.960 . S
C976 H963 0.960 . S
C976 C975 1.524 . S
C977 C974 1.403 . S
C977 C978 1.392 . S
C977 C981 1.495 . S
C978 C977 1.392 . S
C978 C979 1.385 . S
C978 C980 1.478 . S
C979 H973 0.930 . S
C979 C975 1.400 . S
C979 C978 1.385 . S
C980 C978 1.478 . S
C980 C982 1.381 . S
C980 C986 1.383 . S
C981 C977 1.495 . S
C981 H987 0.959 . S
C981 H988 0.961 . S
C981 H989 0.960 . S
C982 C980 1.381 . S
C982 C983 1.394 . S
C982 H990 0.930 . S
C983 C982 1.394 . S
C983 C984 1.383 . S
C983 H991 0.929 . S
C984 C983 1.383 . S
C984 C985 1.377 . S
C985 H969 0.930 . S
C985 C984 1.377 . S
C985 C986 1.379 . S
C986 H970 0.931 . S
C986 C980 1.383 . S
C986 C985 1.379 . S
H987 C981 0.959 . S
H988 C981 0.961 . S
H989 C981 0.960 . S
H990 C982 0.930 . S
H991 C983 0.929 . S
H992 C1000 0.929 . S
H993 C1002 0.930 . S
H994 C1004 0.930 . S
H995 C1007 0.929 . S
H996 C1010 0.930 . S
H997 C1012 0.960 . S
H998 C1012 0.960 . S
H999 C1012 0.960 . S
C1000 H992 0.929 . S
C1000 C1001 1.377 . S
C1000 C1002 1.384 . S
C1001 C1000 1.377 . S
C1001 C1007 1.390 . S
C1002 H993 0.930 . S
C1002 C1000 1.384 . S
C1002 C1003 1.372 . S
C1003 C1002 1.372 . S
C1003 C1004 1.400 . S
C1003 C1008 1.490 . S
C1004 H994 0.930 . S
C1004 C1003 1.400 . S
C1004 C1007 1.386 . S
H1005 C1021 0.930 . S
H1006 C1022 0.931 . S
C1007 H995 0.929 . S
C1007 C1001 1.390 . S
C1007 C1004 1.386 . S
C1008 C1003 1.490 . S
C1008 C1010 1.395 . S
C1008 C1011 1.403 . S
H1009 C1015 0.930 . S
C1010 H996 0.930 . S
C1010 C1008 1.395 . S
C1010 C1013 1.403 . S
C1011 C1008 1.403 . S
C1011 C1012 1.524 . S
C1011 C1015 1.400 . S
C1012 H997 0.960 . S
C1012 H998 0.960 . S
C1012 H999 0.960 . S
C1012 C1011 1.524 . S
C1013 C1010 1.403 . S
C1013 C1014 1.392 . S
C1013 C1017 1.495 . S
C1014 C1013 1.392 . S
C1014 C1015 1.385 . S
C1014 C1016 1.478 . S
C1015 H1009 0.930 . S
C1015 C1011 1.400 . S
C1015 C1014 1.385 . S
C1016 C1014 1.478 . S
C1016 C1018 1.381 . S
C1016 C1022 1.383 . S
C1017 C1013 1.495 . S
C1017 H1023 0.959 . S
C1017 H1024 0.961 . S
C1017 H1025 0.960 . S
C1018 C1016 1.381 . S
C1018 C1019 1.394 . S
C1018 H1026 0.930 . S
C1019 C1018 1.394 . S
C1019 C1020 1.383 . S
C1019 H1027 0.929 . S
C1020 C1019 1.383 . S
C1020 C1021 1.377 . S
C1021 H1005 0.930 . S
C1021 C1020 1.377 . S
C1021 C1022 1.379 . S
C1022 H1006 0.931 . S
C1022 C1016 1.383 . S
C1022 C1021 1.379 . S
H1023 C1017 0.959 . S
H1024 C1017 0.961 . S
H1025 C1017 0.960 . S
H1026 C1018 0.930 . S
H1027 C1019 0.929 . S
H1028 C1036 0.929 . S
H1029 C1038 0.930 . S
H1030 C1040 0.930 . S
H1031 C1043 0.929 . S
H1032 C1046 0.930 . S
H1033 C1048 0.960 . S
H1034 C1048 0.960 . S
H1035 C1048 0.960 . S
C1036 H1028 0.929 . S
C1036 C1037 1.377 . S
C1036 C1038 1.384 . S
C1037 C1036 1.377 . S
C1037 C1043 1.390 . S
C1038 H1029 0.930 . S
C1038 C1036 1.384 . S
C1038 C1039 1.372 . S
C1039 C1038 1.372 . S
C1039 C1040 1.400 . S
C1039 C1044 1.490 . S
C1040 H1030 0.930 . S
C1040 C1039 1.400 . S
C1040 C1043 1.386 . S
H1041 C1057 0.930 . S
H1042 C1058 0.921 1_554 S
C1043 H1031 0.929 . S
C1043 C1037 1.390 . S
C1043 C1040 1.386 . S
C1044 C1039 1.490 . S
C1044 C1046 1.395 . S
C1044 C1047 1.403 . S
H1045 C1051 0.930 . S
C1046 H1032 0.930 . S
C1046 C1044 1.395 . S
C1046 C1049 1.403 . S
C1047 C1044 1.403 . S
C1047 C1048 1.524 . S
C1047 C1051 1.400 . S
C1048 H1033 0.960 . S
C1048 H1034 0.960 . S
C1048 H1035 0.960 . S
C1048 C1047 1.524 . S
C1049 C1046 1.403 . S
C1049 C1050 1.392 . S
C1049 C1053 1.495 . S
C1050 C1049 1.392 . S
C1050 C1051 1.385 . S
C1050 C1052 1.478 . S
C1051 H1045 0.930 . S
C1051 C1047 1.400 . S
C1051 C1050 1.385 . S
C1052 C1050 1.478 . S
C1052 C1054 1.381 1_554 S
C1052 C1058 1.383 1_554 S
C1053 C1049 1.495 . S
C1053 H1059 0.959 . S
C1053 H1060 0.961 . S
C1053 H1061 0.960 . S
C1054 C1052 1.381 1_556 S
C1054 C1055 1.394 . S
C1054 H1062 0.930 . S
C1055 C1054 1.394 . S
C1055 C1056 1.383 . S
C1055 H1063 0.929 . S
C1056 C1055 1.383 . S
C1056 C1057 1.377 . S
C1057 H1041 0.930 . S
C1057 C1056 1.377 . S
C1057 C1058 1.379 . S
C1058 H1042 0.921 1_556 S
C1058 C1052 1.383 1_556 S
C1058 C1057 1.379 . S
H1059 C1053 0.959 . S
H1060 C1053 0.961 . S
H1061 C1053 0.960 . S
H1062 C1054 0.930 . S
H1063 C1055 0.929 . S
H1064 C1072 0.929 . S
H1065 C1074 0.930 . S
H1066 C1076 0.930 . S
H1067 C1079 0.929 . S
H1068 C1082 0.930 . S
H1069 C1084 0.960 . S
H1070 C1084 0.960 . S
H1071 C1084 0.960 . S
C1072 H1064 0.929 . S
C1072 C1073 1.377 . S
C1072 C1074 1.384 . S
C1073 C1072 1.377 . S
C1073 C1079 1.390 . S
C1074 H1065 0.930 . S
C1074 C1072 1.384 . S
C1074 C1075 1.372 . S
C1075 C1074 1.372 . S
C1075 C1076 1.400 . S
C1075 C1080 1.490 . S
C1076 H1066 0.930 . S
C1076 C1075 1.400 . S
C1076 C1079 1.386 . S
H1077 C1093 0.930 . S
H1078 C1094 0.931 . S
C1079 H1067 0.929 . S
C1079 C1073 1.390 . S
C1079 C1076 1.386 . S
C1080 C1075 1.490 . S
C1080 C1082 1.395 . S
C1080 C1083 1.403 . S
H1081 C1087 0.930 . S
C1082 H1068 0.930 . S
C1082 C1080 1.395 . S
C1082 C1085 1.403 . S
C1083 C1080 1.403 . S
C1083 C1084 1.524 . S
C1083 C1087 1.400 . S
C1084 H1069 0.960 . S
C1084 H1070 0.960 . S
C1084 H1071 0.960 . S
C1084 C1083 1.524 . S
C1085 C1082 1.403 . S
C1085 C1086 1.392 . S
C1085 C1089 1.495 . S
C1086 C1085 1.392 . S
C1086 C1087 1.385 . S
C1086 C1088 1.478 . S
C1087 H1081 0.930 . S
C1087 C1083 1.400 . S
C1087 C1086 1.385 . S
C1088 C1086 1.478 . S
C1088 C1090 1.381 . S
C1088 C1094 1.383 . S
C1089 C1085 1.495 . S
C1089 H1095 0.959 . S
C1089 H1096 0.961 . S
C1089 H1097 0.960 . S
C1090 C1088 1.381 . S
C1090 C1091 1.394 . S
C1090 H1098 0.930 . S
C1091 C1090 1.394 . S
C1091 C1092 1.383 . S
C1091 H1099 0.929 . S
C1092 C1091 1.383 . S
C1092 C1093 1.377 . S
C1093 H1077 0.930 . S
C1093 C1092 1.377 . S
C1093 C1094 1.379 . S
C1094 H1078 0.931 . S
C1094 C1088 1.383 . S
C1094 C1093 1.379 . S
H1095 C1089 0.959 . S
H1096 C1089 0.961 . S
H1097 C1089 0.960 . S
H1098 C1090 0.930 . S
H1099 C1091 0.929 . S
H1100 C1108 0.929 . S
H1101 C1110 0.930 . S
H1102 C1112 0.930 . S
H1103 C1115 0.929 . S
H1104 C1118 0.930 . S
H1105 C1120 0.960 . S
H1106 C1120 0.960 . S
H1107 C1120 0.960 . S
C1108 H1100 0.929 . S
C1108 C1109 1.377 . S
C1108 C1110 1.384 . S
C1109 C1108 1.377 . S
C1109 C1115 1.390 . S
C1110 H1101 0.930 . S
C1110 C1108 1.384 . S
C1110 C1111 1.372 . S
C1111 C1110 1.372 . S
C1111 C1112 1.400 . S
C1111 C1116 1.490 . S
C1112 H1102 0.930 . S
C1112 C1111 1.400 . S
C1112 C1115 1.386 . S
H1113 C1129 0.930 . S
H1114 C1130 0.931 . S
C1115 H1103 0.929 . S
C1115 C1109 1.390 . S
C1115 C1112 1.386 . S
C1116 C1111 1.490 . S
C1116 C1118 1.395 . S
C1116 C1119 1.403 . S
H1117 C1123 0.930 . S
C1118 H1104 0.930 . S
C1118 C1116 1.395 . S
C1118 C1121 1.403 . S
C1119 C1116 1.403 . S
C1119 C1120 1.524 . S
C1119 C1123 1.400 . S
C1120 H1105 0.960 . S
C1120 H1106 0.960 . S
C1120 H1107 0.960 . S
C1120 C1119 1.524 . S
C1121 C1118 1.403 . S
C1121 C1122 1.392 . S
C1121 C1125 1.495 . S
C1122 C1121 1.392 . S
C1122 C1123 1.385 . S
C1122 C1124 1.478 . S
C1123 H1117 0.930 . S
C1123 C1119 1.400 . S
C1123 C1122 1.385 . S
C1124 C1122 1.478 . S
C1124 C1126 1.381 1_556 S
C1124 C1130 1.383 1_556 S
C1125 C1121 1.495 . S
C1125 H1131 0.959 . S
C1125 H1132 0.961 . S
C1125 H1133 0.960 . S
C1126 C1124 1.381 1_554 S
C1126 C1127 1.394 . S
C1126 H1134 0.930 . S
C1127 C1126 1.394 . S
C1127 C1128 1.383 . S
C1127 H1135 0.929 . S
C1128 C1127 1.383 . S
C1128 C1129 1.377 . S
C1129 H1113 0.930 . S
C1129 C1128 1.377 . S
C1129 C1130 1.379 . S
C1130 H1114 0.931 . S
C1130 C1124 1.383 1_554 S
C1130 C1129 1.379 . S
H1131 C1125 0.959 . S
H1132 C1125 0.961 . S
H1133 C1125 0.960 . S
H1134 C1126 0.930 . S
H1135 C1127 0.929 . S
H1136 C1144 0.929 . S
H1137 C1146 0.930 . S
H1138 C1148 0.930 . S
H1139 C1151 0.929 . S
H1140 C1154 0.930 . S
H1141 C1156 0.960 . S
H1142 C1156 0.960 . S
H1143 C1156 0.960 . S
C1144 H1136 0.929 . S
C1144 C1145 1.377 . S
C1144 C1146 1.384 . S
C1145 C1144 1.377 . S
C1145 C1151 1.390 . S
C1146 H1137 0.930 . S
C1146 C1144 1.384 . S
C1146 C1147 1.372 . S
C1147 C1146 1.372 . S
C1147 C1148 1.400 . S
C1147 C1152 1.490 . S
C1148 H1138 0.930 . S
C1148 C1147 1.400 . S
C1148 C1151 1.386 . S
H1149 C1165 0.930 . S
H1150 C1166 0.931 . S
C1151 H1139 0.929 . S
C1151 C1145 1.390 . S
C1151 C1148 1.386 . S
C1152 C1147 1.490 . S
C1152 C1154 1.395 . S
C1152 C1155 1.403 . S
H1153 C1159 0.930 . S
C1154 H1140 0.930 . S
C1154 C1152 1.395 . S
C1154 C1157 1.403 . S
C1155 C1152 1.403 . S
C1155 C1156 1.524 . S
C1155 C1159 1.400 . S
C1156 H1141 0.960 . S
C1156 H1142 0.960 . S
C1156 H1143 0.960 . S
C1156 C1155 1.524 . S
C1157 C1154 1.403 . S
C1157 C1158 1.392 . S
C1157 C1161 1.495 . S
C1158 C1157 1.392 . S
C1158 C1159 1.385 . S
C1158 C1160 1.478 . S
C1159 H1153 0.930 . S
C1159 C1155 1.400 . S
C1159 C1158 1.385 . S
C1160 C1158 1.478 . S
C1160 C1162 1.381 . S
C1160 C1166 1.383 . S
C1161 C1157 1.495 . S
C1161 H1167 0.959 . S
C1161 H1168 0.961 . S
C1161 H1169 0.960 . S
C1162 C1160 1.381 . S
C1162 C1163 1.394 . S
C1162 H1170 0.930 . S
C1163 C1162 1.394 . S
C1163 C1164 1.383 . S
C1163 H1171 0.929 . S
C1164 C1163 1.383 . S
C1164 C1165 1.377 . S
C1165 H1149 0.930 . S
C1165 C1164 1.377 . S
C1165 C1166 1.379 . S
C1166 H1150 0.931 . S
C1166 C1160 1.383 . S
C1166 C1165 1.379 . S
H1167 C1161 0.959 . S
H1168 C1161 0.961 . S
H1169 C1161 0.960 . S
H1170 C1162 0.930 . S
H1171 C1163 0.929 . S
H1172 C1180 0.929 . S
H1173 C1182 0.930 . S
H1174 C1184 0.930 . S
H1175 C1187 0.929 . S
H1176 C1190 0.930 . S
H1177 C1192 0.960 . S
H1178 C1192 0.960 . S
H1179 C1192 0.960 . S
C1180 H1172 0.929 . S
C1180 C1181 1.377 . S
C1180 C1182 1.384 . S
C1181 C1180 1.377 . S
C1181 C1187 1.390 . S
C1182 H1173 0.930 . S
C1182 C1180 1.384 . S
C1182 C1183 1.372 . S
C1183 C1182 1.372 . S
C1183 C1184 1.400 . S
C1183 C1188 1.490 . S
C1184 H1174 0.930 . S
C1184 C1183 1.400 . S
C1184 C1187 1.386 . S
H1185 C1201 0.930 . S
H1186 C1202 0.925 1_554 S
C1187 H1175 0.929 . S
C1187 C1181 1.390 . S
C1187 C1184 1.386 . S
C1188 C1183 1.490 . S
C1188 C1190 1.395 . S
C1188 C1191 1.403 . S
H1189 C1195 0.930 . S
C1190 H1176 0.930 . S
C1190 C1188 1.395 . S
C1190 C1193 1.403 . S
C1191 C1188 1.403 . S
C1191 C1192 1.524 1_455 S
C1191 C1195 1.400 . S
C1192 H1177 0.960 . S
C1192 H1178 0.960 . S
C1192 H1179 0.960 . S
C1192 C1191 1.524 1_655 S
C1193 C1190 1.403 . S
C1193 C1194 1.392 . S
C1193 C1197 1.495 . S
C1194 C1193 1.392 . S
C1194 C1195 1.385 . S
C1194 C1196 1.478 . S
C1195 H1189 0.930 . S
C1195 C1191 1.400 . S
C1195 C1194 1.385 . S
C1196 C1194 1.478 . S
C1196 C1198 1.381 1_554 S
C1196 C1202 1.383 1_554 S
C1197 C1193 1.495 . S
C1197 H1203 0.959 . S
C1197 H1204 0.961 . S
C1197 H1205 0.960 . S
C1198 C1196 1.381 1_556 S
C1198 C1199 1.394 . S
C1198 H1206 0.930 . S
C1199 C1198 1.394 . S
C1199 C1200 1.383 . S
C1199 H1207 0.929 . S
C1200 C1199 1.383 . S
C1200 C1201 1.377 . S
C1201 H1185 0.930 . S
C1201 C1200 1.377 . S
C1201 C1202 1.379 . S
C1202 H1186 0.925 1_556 S
C1202 C1196 1.383 1_556 S
C1202 C1201 1.379 . S
H1203 C1197 0.959 . S
H1204 C1197 0.961 . S
H1205 C1197 0.960 . S
H1206 C1198 0.930 . S
H1207 C1199 0.929 . S
H1208 C1216 0.929 . S
H1209 C1218 0.930 . S
H1210 C1220 0.930 . S
H1211 C1223 0.929 . S
H1212 C1226 0.930 . S
H1213 C1228 0.960 . S
H1214 C1228 0.960 . S
H1215 C1228 0.960 . S
C1216 H1208 0.929 . S
C1216 C1217 1.377 . S
C1216 C1218 1.384 . S
C1217 C1216 1.377 . S
C1217 C1223 1.390 . S
C1218 H1209 0.930 . S
C1218 C1216 1.384 . S
C1218 C1219 1.372 . S
C1219 C1218 1.372 . S
C1219 C1220 1.400 . S
C1219 C1224 1.490 . S
C1220 H1210 0.930 . S
C1220 C1219 1.400 . S
C1220 C1223 1.386 . S
H1221 C1237 0.930 . S
H1222 C1238 0.931 . S
C1223 H1211 0.929 . S
C1223 C1217 1.390 . S
C1223 C1220 1.386 . S
C1224 C1219 1.490 . S
C1224 C1226 1.395 . S
C1224 C1227 1.403 . S
H1225 C1231 0.930 . S
C1226 H1212 0.930 . S
C1226 C1224 1.395 . S
C1226 C1229 1.403 . S
C1227 C1224 1.403 . S
C1227 C1228 1.524 . S
C1227 C1231 1.400 . S
C1228 H1213 0.960 . S
C1228 H1214 0.960 . S
C1228 H1215 0.960 . S
C1228 C1227 1.524 . S
C1229 C1226 1.403 . S
C1229 C1230 1.392 . S
C1229 C1233 1.495 . S
C1230 C1229 1.392 . S
C1230 C1231 1.385 . S
C1230 C1232 1.478 . S
C1231 H1225 0.930 . S
C1231 C1227 1.400 . S
C1231 C1230 1.385 . S
C1232 C1230 1.478 . S
C1232 C1234 1.381 . S
C1232 C1238 1.383 . S
C1233 C1229 1.495 . S
C1233 H1239 0.959 . S
C1233 H1240 0.961 . S
C1233 H1241 0.960 . S
C1234 C1232 1.381 . S
C1234 C1235 1.394 . S
C1234 H1242 0.930 . S
C1235 C1234 1.394 . S
C1235 C1236 1.383 . S
C1235 H1243 0.929 . S
C1236 C1235 1.383 . S
C1236 C1237 1.377 . S
C1237 H1221 0.930 . S
C1237 C1236 1.377 . S
C1237 C1238 1.379 . S
C1238 H1222 0.931 . S
C1238 C1232 1.383 . S
C1238 C1237 1.379 . S
H1239 C1233 0.959 . S
H1240 C1233 0.961 . S
H1241 C1233 0.960 . S
H1242 C1234 0.930 . S
H1243 C1235 0.929 . S
H1244 C1252 0.929 . S
H1245 C1254 0.930 . S
H1246 C1256 0.930 1_655 S
H1247 C1259 0.929 1_655 S
H1248 C1262 0.930 . S
H1249 C1264 0.960 . S
H1250 C1264 0.960 . S
H1251 C1264 0.960 . S
C1252 H1244 0.929 . S
C1252 C1253 1.377 . S
C1252 C1254 1.384 . S
C1253 C1252 1.377 . S
C1253 C1259 1.390 . S
C1254 H1245 0.930 . S
C1254 C1252 1.384 . S
C1254 C1255 1.372 . S
C1255 C1254 1.372 . S
C1255 C1256 1.400 . S
C1255 C1260 1.490 . S
C1256 H1246 0.930 1_455 S
C1256 C1255 1.400 . S
C1256 C1259 1.386 . S
H1257 C1273 0.930 . S
H1258 C1274 0.918 1_655 S
C1259 H1247 0.929 1_455 S
C1259 C1253 1.390 . S
C1259 C1256 1.386 . S
C1260 C1255 1.490 . S
C1260 C1262 1.395 . S
C1260 C1263 1.403 . S
H1261 C1267 0.930 . S
C1262 H1248 0.930 . S
C1262 C1260 1.395 . S
C1262 C1265 1.403 . S
C1263 C1260 1.403 . S
C1263 C1264 1.524 . S
C1263 C1267 1.400 . S
C1264 H1249 0.960 . S
C1264 H1250 0.960 . S
C1264 H1251 0.960 . S
C1264 C1263 1.524 . S
C1265 C1262 1.403 . S
C1265 C1266 1.392 . S
C1265 C1269 1.495 . S
C1266 C1265 1.392 . S
C1266 C1267 1.385 . S
C1266 C1268 1.478 . S
C1267 H1261 0.930 . S
C1267 C1263 1.400 . S
C1267 C1266 1.385 . S
C1268 C1266 1.478 . S
C1268 C1270 1.381 1_556 S
C1268 C1274 1.383 1_556 S
C1269 C1265 1.495 . S
C1269 H1275 0.959 . S
C1269 H1276 0.961 1_455 S
C1269 H1277 0.960 . S
C1270 C1268 1.381 1_554 S
C1270 C1271 1.394 . S
C1270 H1278 0.930 . S
C1271 C1270 1.394 . S
C1271 C1272 1.383 . S
C1271 H1279 0.929 . S
C1272 C1271 1.383 . S
C1272 C1273 1.377 . S
C1273 H1257 0.930 . S
C1273 C1272 1.377 . S
C1273 C1274 1.379 . S
C1274 H1258 0.918 1_455 S
C1274 C1268 1.383 1_554 S
C1274 C1273 1.379 . S
H1275 C1269 0.959 . S
H1276 C1269 0.961 1_655 S
H1277 C1269 0.960 . S
H1278 C1270 0.930 . S
H1279 C1271 0.929 . S
C281 C124 0.589 . S
C300 C15 0.567 . S
C317 C90 0.592 . S
C336 C49 0.596 . S
C353 C56 2.870 . S
C372 C83 2.864 . S
C389 C22 2.869 . S
C408 C117 2.861 . S
C425 C151 0.626 . S
C444 C260 0.665 . S
C461 C185 0.626 . S
C480 C226 0.683 . S
C497 C192 2.872 . S
C516 C219 2.857 . S
C533 C158 2.867 . S
C552 C253 2.870 . S
C569 C74 1.484 . S
C588 C28 1.483 . S
C605 C108 1.482 . S
C624 C62 1.480 . S
C641 C210 1.484 . S
C660 C164 1.482 . S
C677 C244 1.484 . S
C696 C198 1.478 . S
C713 C1 1.105 . S
C732 C176 1.163 . S
C749 C35 1.098 . S
C768 C142 1.163 . S
C785 C266 1.164 . S
C804 C71 1.146 . S
C821 C232 1.164 . S
C840 C105 1.089 . S
C857 C40 1.164 . S
C876 C137 1.108 . S
C893 C6 1.164 . S
C912 C171 1.084 . S
C929 C130 1.164 . S
C948 C207 1.145 . S
C965 C96 1.164 . S
C984 C241 1.112 . S
C1001 C3 1.435 1_556 S
C1020 C17 1.555 . S
C1037 C37 1.434 . S
C1056 C51 1.556 . S
C1073 C69 1.418 1_554 S
C1092 C85 1.594 . S
C1109 C103 1.417 . S
C1128 C119 1.594 . S
C1145 C139 1.423 1_556 S
C1164 C153 1.577 . S
C1181 C173 1.429 . S
C1200 C187 1.564 . S
C1217 C205 1.418 1_554 S
C1236 C221 1.593 . S
C1253 C239 1.419 . S
C1272 C255 1.591 . S
