# Generated by pormake.
# Topology wko, (6)-cn, num edge types: 1
# Building blocks:
#     Node 0, Type 0, BuildingBlock: IZENUY_clean_sbu_0, # of connection points: 6
#     Node 1, Type 0, BuildingBlock: IZENUY_clean_sbu_0, # of connection points: 6
#     Node 2, Type 0, BuildingBlock: IZENUY_clean_sbu_0, # of connection points: 6
#     Node 3, Type 0, BuildingBlock: IZENUY_clean_sbu_0, # of connection points: 6
#     Node 4, Type 0, BuildingBlock: IZENUY_clean_sbu_0, # of connection points: 6
#     Node 5, Type 0, BuildingBlock: IZENUY_clean_sbu_0, # of connection points: 6
#     Node 6, Type 0, BuildingBlock: IZENUY_clean_sbu_0, # of connection points: 6
#     Node 7, Type 0, BuildingBlock: IZENUY_clean_sbu_0, # of connection points: 6
#     Node 8, Type 0, BuildingBlock: IZENUY_clean_sbu_0, # of connection points: 6
#     Node 9, Type 0, BuildingBlock: IZENUY_clean_sbu_0, # of connection points: 6
#     Node 10, Type 0, BuildingBlock: IZENUY_clean_sbu_0, # of connection points: 6
#     Node 11, Type 0, BuildingBlock: IZENUY_clean_sbu_0, # of connection points: 6
#     Edge 12, Type (0, 0), BuildingBlock: OJICUG_clean_linker_0, # of connection points: 2
#     Edge 13, Type (0, 0), BuildingBlock: OJICUG_clean_linker_0, # of connection points: 2
#     Edge 14, Type (0, 0), BuildingBlock: OJICUG_clean_linker_0, # of connection points: 2
#     Edge 15, Type (0, 0), BuildingBlock: OJICUG_clean_linker_0, # of connection points: 2
#     Edge 16, Type (0, 0), BuildingBlock: OJICUG_clean_linker_0, # of connection points: 2
#     Edge 17, Type (0, 0), BuildingBlock: OJICUG_clean_linker_0, # of connection points: 2
#     Edge 18, Type (0, 0), BuildingBlock: OJICUG_clean_linker_0, # of connection points: 2
#     Edge 19, Type (0, 0), BuildingBlock: OJICUG_clean_linker_0, # of connection points: 2
#     Edge 20, Type (0, 0), BuildingBlock: OJICUG_clean_linker_0, # of connection points: 2
#     Edge 21, Type (0, 0), BuildingBlock: OJICUG_clean_linker_0, # of connection points: 2
#     Edge 22, Type (0, 0), BuildingBlock: OJICUG_clean_linker_0, # of connection points: 2
#     Edge 23, Type (0, 0), BuildingBlock: OJICUG_clean_linker_0, # of connection points: 2
#     Edge 24, Type (0, 0), BuildingBlock: OJICUG_clean_linker_0, # of connection points: 2
#     Edge 25, Type (0, 0), BuildingBlock: OJICUG_clean_linker_0, # of connection points: 2
#     Edge 26, Type (0, 0), BuildingBlock: OJICUG_clean_linker_0, # of connection points: 2
#     Edge 27, Type (0, 0), BuildingBlock: OJICUG_clean_linker_0, # of connection points: 2
#     Edge 28, Type (0, 0), BuildingBlock: OJICUG_clean_linker_0, # of connection points: 2
#     Edge 29, Type (0, 0), BuildingBlock: OJICUG_clean_linker_0, # of connection points: 2
#     Edge 30, Type (0, 0), BuildingBlock: OJICUG_clean_linker_0, # of connection points: 2
#     Edge 31, Type (0, 0), BuildingBlock: OJICUG_clean_linker_0, # of connection points: 2
#     Edge 32, Type (0, 0), BuildingBlock: OJICUG_clean_linker_0, # of connection points: 2
#     Edge 33, Type (0, 0), BuildingBlock: OJICUG_clean_linker_0, # of connection points: 2
#     Edge 34, Type (0, 0), BuildingBlock: OJICUG_clean_linker_0, # of connection points: 2
#     Edge 35, Type (0, 0), BuildingBlock: OJICUG_clean_linker_0, # of connection points: 2
#     Edge 36, Type (0, 0), BuildingBlock: OJICUG_clean_linker_0, # of connection points: 2
#     Edge 37, Type (0, 0), BuildingBlock: OJICUG_clean_linker_0, # of connection points: 2
#     Edge 38, Type (0, 0), BuildingBlock: OJICUG_clean_linker_0, # of connection points: 2
#     Edge 39, Type (0, 0), BuildingBlock: OJICUG_clean_linker_0, # of connection points: 2
#     Edge 40, Type (0, 0), BuildingBlock: OJICUG_clean_linker_0, # of connection points: 2
#     Edge 41, Type (0, 0), BuildingBlock: OJICUG_clean_linker_0, # of connection points: 2
#     Edge 42, Type (0, 0), BuildingBlock: OJICUG_clean_linker_0, # of connection points: 2
#     Edge 43, Type (0, 0), BuildingBlock: OJICUG_clean_linker_0, # of connection points: 2
#     Edge 44, Type (0, 0), BuildingBlock: OJICUG_clean_linker_0, # of connection points: 2
#     Edge 45, Type (0, 0), BuildingBlock: OJICUG_clean_linker_0, # of connection points: 2
#     Edge 46, Type (0, 0), BuildingBlock: OJICUG_clean_linker_0, # of connection points: 2
#     Edge 47, Type (0, 0), BuildingBlock: OJICUG_clean_linker_0, # of connection points: 2
# Relax obj value: 0.319
# Max RMSD: 0.278
# Mean RMSD: 0.278
data_MOF--net-wko--node1-IZENUY_clean_sbu_0--edge1-OJICUG_clean_linker_0
_symmetry_space_group_name_H-M    P1
_symmetry_Int_Tables_number       1
_symmetry_cell_setting            triclinic
loop_
_symmetry_equiv_pos_as_xyz
'x, y, z'
_cell_length_a     33.163521
_cell_length_b     33.319513
_cell_length_c     21.840511
_cell_angle_alpha  89.845448
_cell_angle_beta   90.060269
_cell_angle_gamma 119.98719
loop_
_atom_site_label
_atom_site_type_symbol
_atom_site_fract_x
_atom_site_fract_y
_atom_site_fract_z
_atom_type_partial_charge
Fe0 Fe 0.38658 0.36465 0.42192 0.0
Fe1 Fe 0.34898 0.26236 0.45825 0.0
O2 O 0.38897 0.31278 0.41689 0.0
Fe3 Fe 0.43224 0.31027 0.37204 0.0
O4 O 0.47743 0.37138 0.3791 0.0
O5 O 0.44738 0.39947 0.44304 0.0
O6 O 0.37448 0.35829 0.50526 0.0
C7 C 0.37644 0.33099 0.54463 0.0
C8 C 0.40196 0.35482 0.29501 0.0
O9 O 0.37093 0.29202 0.52958 0.0
C10 C 0.35096 0.2231 0.35061 0.0
O11 O 0.32515 0.33621 0.40207 0.0
O12 O 0.30105 0.27527 0.46047 0.0
O13 O 0.41038 0.32226 0.30373 0.0
O14 O 0.39877 0.37801 0.33926 0.0
C15 C 0.43323 0.26386 0.47338 0.0
O16 O 0.32532 0.22945 0.38772 0.0
O17 O 0.39502 0.24844 0.35339 0.0
C18 C 0.2932 0.30397 0.43263 0.0
O19 O 0.38951 0.24024 0.46746 0.0
O20 O 0.45673 0.29883 0.44007 0.0
C21 C 0.48206 0.40285 0.41515 0.0
Fe22 Fe 0.13677 0.41463 0.54422 0.0
Fe23 Fe 1.0342 0.37099 0.58366 0.0
O24 O 0.08788 0.37109 0.58475 0.0
Fe25 Fe 0.09168 0.32834 0.62905 0.0
O26 O 0.13773 0.3719 0.67492 0.0
O27 O 0.17964 0.42309 0.60393 0.0
O28 O 0.13282 0.46219 0.58015 0.0
C29 C 0.09763 0.46708 0.57675 0.0
C30 C 0.15062 0.33992 0.5265 0.0
O31 O 0.05819 0.43241 0.5674 0.0
C32 C 1.00324 0.27464 0.5889 0.0
O33 O 0.10072 0.41176 0.47828 0.0
O34 O 1.02815 0.35849 0.50241 0.0
O35 O 0.13338 0.3233 0.57852 0.0
O36 O 0.14699 0.37284 0.50386 0.0
C37 C 0.04654 0.36028 0.70502 0.0
O38 O 0.99751 0.30886 0.59827 0.0
O39 O 0.04393 0.28035 0.58795 0.0
C40 C 0.05914 0.38218 0.46288 0.0
O41 O 1.03982 0.38449 0.66582 0.0
O42 O 0.05211 0.32714 0.68784 0.0
C43 C 0.1737 0.40846 0.65865 0.0
Fe44 Fe 0.68613 1.01886 0.74908 0.0
Fe45 Fe 0.78692 0.0759 0.79246 0.0
O46 O 0.7398 0.07206 0.74923 0.0
Fe47 Fe 0.74485 0.12045 0.70828 0.0
O48 O 0.69419 0.11758 0.74601 0.0
O49 O 0.64879 0.04332 0.7335 0.0
O50 O 0.67895 1.02488 0.83128 0.0
C51 C 0.71029 0.03172 0.86997 0.0
C52 C 0.69898 0.04317 0.62812 0.0
O53 O 0.74903 0.03711 0.85228 0.0
C54 C 0.83242 0.13179 0.68742 0.0
O55 O 0.71171 0.9822 0.7634 0.0
O56 O 0.78664 0.02814 0.75143 0.0
O57 O 0.71017 0.08431 0.64359 0.0
O58 O 0.69203 1.01241 0.66773 0.0
C59 C 0.78993 0.15821 0.82123 0.0
O60 O 0.8331 0.11661 0.74043 0.0
O61 O 0.79559 0.12867 0.66625 0.0
C62 C 0.75165 0.98778 0.75294 0.0
O63 O 0.79007 0.12221 0.83805 0.0
O64 O 0.78091 0.16371 0.76646 0.0
C65 C 0.65391 0.08278 0.74326 0.0
Fe66 Fe 0.73378 0.77365 0.95841 0.0
Fe67 Fe 0.64809 0.73168 0.87247 0.0
O68 O 0.6914 0.72685 0.91441 0.0
Fe69 Fe 0.69183 0.67386 0.91418 0.0
O70 O 0.67791 0.66597 0.99611 0.0
O71 O 0.73458 0.73593 0.01861 0.0
O72 O 0.68951 0.77588 0.00301 0.0
C73 C 0.65363 0.77609 0.98518 0.0
C74 C 0.78822 0.73969 0.91955 0.0
O75 O 0.64018 0.76776 0.92996 0.0
C76 C 0.68079 0.68648 0.79301 0.0
O77 O 0.73913 0.81951 0.9061 0.0
O78 O 0.69107 0.78194 0.83071 0.0
O79 O 0.75409 0.69967 0.92924 0.0
O80 O 0.78231 0.77428 0.91843 0.0
C81 C 0.59549 0.64148 0.90905 0.0
O82 O 0.65017 0.69705 0.80819 0.0
O83 O 0.70491 0.68018 0.83293 0.0
C84 C 0.72429 0.81862 0.85234 0.0
O85 O 0.6 0.6813 0.90996 0.0
O86 O 0.63021 0.63687 0.8983 0.0
C87 C 0.70157 0.69682 0.03541 0.0
Fe88 Fe 0.04133 0.67585 0.07217 0.0
Fe89 Fe 0.98386 0.71685 0.12209 0.0
O90 O 0.98788 0.67541 0.07566 0.0
Fe91 Fe 0.93914 0.63313 0.03367 0.0
O92 O 0.94147 0.58463 0.0695 0.0
O93 O 1.01617 0.61445 0.0556 0.0
O94 O 1.03802 0.66187 0.15336 0.0
C95 C 1.03344 0.68612 0.19419 0.0
C96 C 1.01601 0.66547 0.95201 0.0
O97 O 1.02333 0.71698 0.1806 0.0
C98 C 0.929 0.70976 0.01738 0.0
O99 O 0.07814 0.73771 0.08752 0.0
O100 O 1.03127 0.76603 0.08249 0.0
O101 O 0.97485 0.63498 0.96752 0.0
O102 O 0.04624 0.68959 0.99173 0.0
C103 C 0.90133 0.63721 0.1484 0.0
O104 O 0.94253 0.72293 0.07175 0.0
O105 O 0.93234 0.67704 0.99398 0.0
C106 C 0.07197 0.77196 0.08162 0.0
O107 O 0.93807 0.67191 0.16674 0.0
O108 O 0.89567 0.62527 0.09254 0.0
C109 C 0.97686 0.57996 0.06719 0.0
Fe110 Fe 0.32936 0.92379 0.20391 0.0
Fe111 Fe 0.38674 0.02565 0.24328 0.0
O112 O 0.334 0.97205 0.24519 0.0
Fe113 Fe 0.28701 0.96747 0.28966 0.0
O114 O 0.28621 0.92216 0.33504 0.0
O115 O 0.29438 0.88046 0.26307 0.0
O116 O 0.38056 0.92712 0.24051 0.0
C117 C 0.42035 0.96269 0.2396 0.0
C118 C 0.24148 0.91181 0.18493 0.0
O119 O 0.4246 1.00177 0.22904 0.0
C120 C 0.31974 0.05514 0.24844 0.0
O121 O 0.36333 0.95965 0.13798 0.0
O122 O 0.37985 0.03074 0.16231 0.0
O123 O 0.24081 0.92598 0.2385 0.0
O124 O 0.27825 0.91539 0.16303 0.0
C125 C 0.36572 1.01794 0.36465 0.0
O126 O 0.36026 0.06154 0.25632 0.0
O127 O 0.28513 1.01451 0.24901 0.0
C128 C 0.37454 1.00085 0.12267 0.0
O129 O 0.39554 1.02225 0.32521 0.0
O130 O 0.3247 1.00704 0.34916 0.0
C131 C 0.28698 0.8865 0.31831 0.0
Fe132 Fe 0.68825 0.6752 0.41685 0.0
Fe133 Fe 0.78619 0.71655 0.36335 0.0
O134 O 0.74133 0.67467 0.41072 0.0
Fe135 Fe 0.74788 0.63148 0.45009 0.0
O136 O 0.69507 0.58383 0.41621 0.0
O137 O 0.65117 0.61384 0.4346 0.0
O138 O 0.67614 0.6611 0.33561 0.0
C139 C 0.70436 0.68579 0.29408 0.0
C140 C 0.70624 0.66458 0.53582 0.0
O141 O 0.74557 0.71694 0.30694 0.0
C142 C 0.83692 0.70651 0.46351 0.0
O143 O 0.71346 0.73719 0.40123 0.0
O144 O 0.78877 0.76545 0.40437 0.0
O145 O 0.71682 0.63441 0.51868 0.0
O146 O 0.69868 0.68866 0.49741 0.0
C147 C 0.78727 0.63658 0.33289 0.0
O148 O 0.83486 0.72216 0.4112 0.0
O149 O 0.801 0.67381 0.48783 0.0
C150 C 0.75411 0.77155 0.40578 0.0
O151 O 0.78631 0.67228 0.31685 0.0
O152 O 0.78067 0.62284 0.38811 0.0
C153 C 0.65518 0.57913 0.4225 0.0
Fe154 Fe 0.11366 0.78545 0.53298 0.0
Fe155 Fe 0.14915 0.73816 0.62012 0.0
O156 O 0.10298 0.73552 0.5756 0.0
Fe157 Fe 0.04806 0.68399 0.57215 0.0
O158 O 0.04165 0.68892 0.48872 0.0
O159 O 0.10461 0.75456 0.46248 0.0
O160 O 0.17578 0.80642 0.5228 0.0
C161 C 0.19509 0.78226 0.51657 0.0
C162 C 1.0164 0.74518 0.55914 0.0
O163 O 0.18467 0.74837 0.55164 0.0
C164 C 0.07458 0.69576 0.69866 0.0
O165 O 0.12468 0.81972 0.60266 0.0
O166 O 0.17512 0.80039 0.63706 0.0
O167 O 1.01592 0.71339 0.59092 0.0
O168 O 0.0531 0.77341 0.53114 0.0
C169 C 0.10426 0.64474 0.57996 0.0
O170 O 0.11596 0.72756 0.68907 0.0
O171 O 0.04752 0.67211 0.65509 0.0
C172 C 0.15769 0.82679 0.63863 0.0
O173 O 0.13215 0.67676 0.61469 0.0
O174 O 0.07287 0.6481 0.55223 0.0
C175 C 0.07085 0.71535 0.44865 0.0
Fe176 Fe 0.38782 0.03497 0.74318 0.0
Fe177 Fe 0.35064 0.09997 0.70661 0.0
O178 O 0.39073 0.08936 0.74774 0.0
Fe179 Fe 0.43434 0.13495 0.79212 0.0
O180 O 0.47918 0.11837 0.78459 0.0
O181 O 0.44831 0.06005 0.72112 0.0
O182 O 0.37493 0.02871 0.65998 0.0
C183 C 0.37697 0.05781 0.62024 0.0
C184 C 0.40398 0.06053 0.86982 0.0
O185 O 0.37213 0.09175 0.63507 0.0
C186 C 0.35323 0.14099 0.81454 0.0
O187 O 0.32672 1.00327 0.76436 0.0
O188 O 0.30253 0.03956 0.70495 0.0
O189 O 0.41277 0.10156 0.86093 0.0
O190 O 0.40066 0.03408 0.82563 0.0
C191 C 0.43489 0.18194 0.6905 0.0
O192 O 0.32744 0.10939 0.77733 0.0
O193 O 0.39729 0.15987 0.81099 0.0
C194 C 0.29457 1.0036 0.73422 0.0
O195 O 0.39125 0.16231 0.6971 0.0
O196 O 0.45853 0.17043 0.72366 0.0
C197 C 0.48325 0.09107 0.74869 0.0
Fe198 Fe 0.38766 0.37209 0.92189 0.0
Fe199 Fe 0.28831 0.33016 0.87452 0.0
O200 O 0.33481 0.37277 0.91891 0.0
Fe201 Fe 0.32948 0.41629 0.95918 0.0
O202 O 0.38042 0.46391 0.92188 0.0
O203 O 0.42482 0.43368 0.93566 0.0
O204 O 0.39689 0.38395 0.84001 0.0
C205 C 0.36732 0.35834 0.80055 0.0
C206 C 0.3748 0.38547 0.04176 0.0
O207 O 0.32651 0.32787 0.81598 0.0
C208 C 0.24219 0.34041 0.97851 0.0
O209 O 0.36163 0.30986 0.9096 0.0
O210 O 0.2865 0.28197 0.91672 0.0
O211 O 0.3638 0.41548 0.0255 0.0
O212 O 0.38025 0.36054 0.00282 0.0
C213 C 0.28666 0.40974 0.84436 0.0
O214 O 0.24172 0.32584 0.92482 0.0
O215 O 0.27876 0.37361 0.00048 0.0
C216 C 0.32119 0.27598 0.91819 0.0
O217 O 0.28747 0.37409 0.82783 0.0
O218 O 0.29371 0.4232 0.89963 0.0
C219 C 0.42035 0.46818 0.92349 0.0
Fe220 Fe 1.03995 0.37466 0.08659 0.0
Fe221 Fe 0.98464 0.2763 0.03674 0.0
O222 O 0.98691 0.32148 0.08198 0.0
Fe223 Fe 0.93701 0.31482 0.12126 0.0
O224 O 0.93997 0.3657 0.08442 0.0
O225 O 1.01408 0.41046 0.10177 0.0
O226 O 1.03735 0.3851 0.00489 0.0
C227 C 1.03421 0.3565 0.96455 0.0
C228 C 1.01204 0.35888 0.20576 0.0
O229 O 1.02513 0.31596 0.97913 0.0
C230 C 0.92706 0.22814 0.13954 0.0
O231 O 0.07764 0.35015 0.07298 0.0
O232 O 1.03146 0.2752 0.07902 0.0
O233 O 0.97119 0.34822 0.18833 0.0
O234 O 0.04364 0.36592 0.16757 0.0
C235 C 0.90233 0.27289 0.0057 0.0
O236 O 0.94254 0.22868 0.08625 0.0
O237 O 0.9292 0.264 0.16178 0.0
C238 C 0.07194 0.31004 0.08026 0.0
O239 O 0.93954 0.27474 0.98966 0.0
O240 O 0.8952 0.27958 0.06083 0.0
C241 C 0.97523 0.40563 0.08709 0.0
Fe242 Fe 0.69124 0.02618 0.25171 0.0
Fe243 Fe 0.73413 0.97073 0.20068 0.0
O244 O 0.69123 0.97315 0.2465 0.0
Fe245 Fe 0.64771 0.92345 0.28565 0.0
O246 O 0.5997 0.92727 0.24987 0.0
O247 O 0.62952 1.00097 0.26777 0.0
O248 O 0.6778 1.02385 0.1702 0.0
C249 C 0.70301 1.02048 0.1294 0.0
C250 C 0.67932 0.99784 0.37073 0.0
O251 O 0.7345 1.01105 0.14325 0.0
C252 C 0.72436 0.91232 0.30287 0.0
O253 O 0.75349 0.06353 0.23725 0.0
O254 O 0.78252 1.01745 0.2422 0.0
O255 O 0.64909 0.95729 0.3532 0.0
O256 O 0.70398 0.02946 0.33263 0.0
C257 C 0.65454 0.88918 0.16968 0.0
O258 O 0.73995 0.92867 0.25003 0.0
O259 O 0.69053 0.91452 0.32529 0.0
C260 C 0.78816 0.05783 0.24318 0.0
O261 O 0.69041 0.92589 0.1539 0.0
O262 O 0.64042 0.88201 0.22469 0.0
C263 C 0.59505 0.96244 0.25394 0.0
C264 C 0.4558 0.21228 0.52624 0.0
C265 C 0.45404 0.25341 0.52574 0.0
H266 H 0.45475 0.15861 0.58158 0.0
C267 C 0.45847 0.27669 0.58099 0.0
H268 H 0.45159 0.19344 0.48413 0.0
C269 C 0.45806 0.25578 0.63672 0.0
C270 C 0.4552 0.21238 0.63735 0.0
H271 H 0.45666 0.30826 0.58138 0.0
H272 H 0.45549 0.27131 0.679 0.0
C273 C 0.4574 0.19235 0.58191 0.0
C274 C 0.28265 0.43204 0.73739 0.0
C275 C 0.26873 0.42947 0.79884 0.0
H276 H 0.26314 0.42871 0.64313 0.0
C277 C 0.22947 0.43318 0.81246 0.0
H278 H 0.31291 0.42918 0.72599 0.0
C279 C 0.2009 0.43258 0.76496 0.0
C280 C 0.21162 0.42874 0.70368 0.0
H281 H 0.21789 0.43091 0.85936 0.0
H282 H 0.16815 0.43054 0.77631 0.0
C283 C 0.25434 0.43195 0.68994 0.0
C284 C 0.82172 0.21544 0.97401 0.0
C285 C 0.86482 0.25421 0.95984 0.0
H286 H 0.76282 0.15419 0.93896 0.0
C287 C 0.87635 0.26718 0.89809 0.0
H288 H 0.81225 0.20456 0.02114 0.0
C289 C 0.84803 0.23854 0.85111 0.0
C290 C 0.80824 0.19641 0.86559 0.0
H291 H 0.90958 0.29707 0.88621 0.0
H292 H 0.86009 0.24668 0.8042 0.0
C293 C 0.79368 0.18652 0.92701 0.0
C294 C 0.63442 0.86444 0.0617 0.0
C295 C 0.63487 0.85221 0.12339 0.0
H296 H 0.63844 0.84819 0.96777 0.0
C297 C 0.6281 0.80822 0.13732 0.0
H298 H 0.63951 0.89831 0.05 0.0
C299 C 0.62772 0.77973 0.09017 0.0
C300 C 0.63355 0.79477 0.02884 0.0
H301 H 0.62864 0.79815 0.18439 0.0
H302 H 0.62764 0.74809 0.102 0.0
C303 C 0.63348 0.8357 0.01457 0.0
C304 C 0.84328 0.61166 0.30095 0.0
C305 C 0.8051 0.61714 0.28685 0.0
H306 H 0.90432 0.61321 0.26601 0.0
C307 C 0.79234 0.61623 0.2251 0.0
H308 H 0.85402 0.61268 0.34806 0.0
C309 C 0.82077 0.61595 0.17806 0.0
C310 C 0.86258 0.61728 0.19248 0.0
H311 H 0.76292 0.62045 0.21326 0.0
H312 H 0.81293 0.62034 0.13118 0.0
C313 C 0.87209 0.61212 0.25394 0.0
C314 C 0.21574 0.77829 0.40935 0.0
C315 C 0.23037 0.79629 0.46853 0.0
H316 H 0.22295 0.79353 0.31291 0.0
C317 C 0.27152 0.83869 0.47566 0.0
H318 H 0.18364 0.74576 0.40312 0.0
C319 C 0.29399 0.86569 0.42448 0.0
C320 C 0.27536 0.85082 0.36561 0.0
H321 H 0.28294 0.85352 0.52081 0.0
H322 H 0.32285 0.90044 0.43148 0.0
C323 C 0.23812 0.80559 0.35778 0.0
C324 C 0.56839 0.45138 0.39264 0.0
C325 C 0.52771 0.44656 0.42012 0.0
H326 H 0.64097 0.49689 0.37217 0.0
C327 C 0.53036 0.485 0.45022 0.0
H328 H 0.56764 0.42244 0.36914 0.0
C329 C 0.57187 0.52738 0.45122 0.0
C330 C 0.61235 0.53269 0.42283 0.0
H331 H 0.49998 0.48281 0.47198 0.0
H332 H 0.57205 0.55624 0.47422 0.0
C333 C 0.61042 0.49397 0.39437 0.0
C334 C 0.14015 0.55293 0.6015 0.0
C335 C 0.10184 0.5137 0.57592 0.0
H336 H 0.17101 0.62527 0.62338 0.0
C337 C 0.06594 0.51877 0.54939 0.0
H338 H 0.16839 0.5502 0.62216 0.0
C339 C 0.06767 0.56147 0.54924 0.0
C340 C 0.1051 0.60051 0.57636 0.0
H341 H 1.03608 0.48952 0.52856 0.0
H342 H 1.03893 0.56349 0.52891 0.0
C343 C 0.14158 0.59587 0.60217 0.0
C344 C 0.61096 0.12555 0.76941 0.0
C345 C 0.61172 0.08759 0.7427 0.0
H346 H 0.56958 0.15647 0.79275 0.0
C347 C 0.57077 0.05261 0.71532 0.0
H348 H 0.64196 0.15308 0.7907 0.0
C349 C 0.52989 0.0548 0.71561 0.0
C350 C 0.52836 0.09176 0.74406 0.0
H351 H 0.57012 1.0231 0.69357 0.0
H352 H 0.49909 0.02671 0.6947 0.0
C353 C 0.56952 0.12742 0.77054 0.0
C354 C 0.50628 0.51447 0.91608 0.0
C355 C 0.46364 0.51385 0.918 0.0
H356 H 0.57986 0.55405 0.91316 0.0
C357 C 0.46418 0.55642 0.91729 0.0
H358 H 0.50766 0.48266 0.91632 0.0
C359 C 0.50685 0.59861 0.91515 0.0
C360 C 0.54934 0.59859 0.9136 0.0
H361 H 0.43191 0.55712 0.91896 0.0
H362 H 0.50658 0.63097 0.91443 0.0
C363 C 0.54815 0.55587 0.91423 0.0
C364 C 1.01448 0.49044 0.0716 0.0
C365 C 0.97255 0.44847 0.07893 0.0
H366 H 0.04854 0.56346 0.06318 0.0
C367 C 0.93057 0.4494 0.08132 0.0
H368 H 0.04755 0.49132 0.06896 0.0
C369 C 0.93111 0.49197 0.07776 0.0
C370 C 0.9736 0.53391 0.07152 0.0
H371 H 0.89769 0.4176 0.08706 0.0
H372 H 0.89855 0.49206 0.08011 0.0
C373 C 1.01503 0.53223 0.0682 0.0
C374 C 0.46396 0.9178 0.24415 0.0
C375 C 0.46364 0.95997 0.24454 0.0
H376 H 0.50596 0.88498 0.24621 0.0
C377 C 0.50638 1.00159 0.24736 0.0
H378 H 0.4316 0.88511 0.24173 0.0
C379 C 0.54814 1.00152 0.24934 0.0
C380 C 0.54906 0.95981 0.24904 0.0
H381 H 0.50791 0.03484 0.24786 0.0
H382 H 0.57998 0.03474 0.25124 0.0
C383 C 0.50646 0.91773 0.24628 0.0
C384 C 0.3783 0.30898 0.65332 0.0
C385 C 0.38115 0.34214 0.61075 0.0
H386 H 0.37283 0.28908 0.74743 0.0
C387 C 0.38671 0.38432 0.63252 0.0
H388 H 0.37416 0.27612 0.63855 0.0
C389 C 0.38667 0.39186 0.69565 0.0
C390 C 0.3811 0.35734 0.73734 0.0
H391 H 0.38929 0.41064 0.60096 0.0
H392 H 0.38807 0.42327 0.71171 0.0
C393 C 0.37802 0.31643 0.71584 0.0
C394 C 1.02142 0.38675 0.86539 0.0
C395 C 0.04585 0.37019 0.90021 0.0
H396 H 1.00221 0.39679 0.77456 0.0
C397 C 0.07453 0.35678 0.87052 0.0
H398 H 0.99847 0.39656 0.88768 0.0
C399 C 0.07593 0.35607 0.80715 0.0
C400 C 0.04892 0.36904 0.77156 0.0
H401 H 0.09368 0.34392 0.89642 0.0
H402 H 0.09691 0.34332 0.78605 0.0
C403 C 1.02316 0.38642 0.80097 0.0
C404 C 0.66115 1.0088 0.96642 0.0
C405 C 0.70423 0.03441 0.93652 0.0
H406 H 0.6267 0.98451 0.0535 0.0
C407 C 0.74438 0.06164 0.97158 0.0
H408 H 0.62972 0.9877 0.94038 0.0
C409 C 0.74252 0.06059 0.03498 0.0
C410 C 0.70053 0.03203 0.06516 0.0
H411 H 0.77803 0.0825 0.95005 0.0
H412 H 0.77467 0.07984 0.06053 0.0
C413 C 0.65936 1.00739 0.03083 0.0
C414 C 0.67536 0.64349 0.19483 0.0
C415 C 0.68959 0.68356 0.23027 0.0
H416 H 0.66781 0.61587 0.10364 0.0
C417 C 0.70118 0.72542 0.20119 0.0
H418 H 0.66718 0.61103 0.2166 0.0
C419 C 0.70256 0.72838 0.1378 0.0
C420 C 0.69207 0.68948 0.10174 0.0
H421 H 0.7125 0.75677 0.22762 0.0
H422 H 0.71404 0.76196 0.11708 0.0
C423 C 0.67627 0.64636 0.13049 0.0
C424 C 1.02523 0.66173 0.36222 0.0
C425 C 0.06412 0.70275 0.38308 0.0
H426 H 0.98553 0.62344 0.28378 0.0
C427 C 0.09637 0.73358 0.33997 0.0
H428 H 0.99993 0.63722 0.39423 0.0
C429 C 0.08843 0.72529 0.27762 0.0
C430 C 0.04831 0.68595 0.25695 0.0
H431 H 0.12676 0.76552 0.35407 0.0
H432 H 0.11212 0.75122 0.24546 0.0
C433 C 1.0173 0.65348 0.29928 0.0
C434 C 0.38783 1.00668 0.46974 0.0
C435 C 0.37947 0.0336 0.42768 0.0
H436 H 0.3931 0.99276 0.56466 0.0
C437 C 0.37423 0.07035 0.4487 0.0
H438 H 0.39124 0.9777 0.45415 0.0
C439 C 0.3752 0.07895 0.51107 0.0
C440 C 0.38073 0.05049 0.55409 0.0
H441 H 0.36707 0.09105 0.41688 0.0
H442 H 0.36954 0.10684 0.52546 0.0
C443 C 0.38831 1.01497 0.53277 0.0
C444 C 0.29442 0.138 0.33327 0.0
C445 C 0.33195 0.18039 0.31292 0.0
H446 H 0.25997 0.06369 0.32707 0.0
C447 C 0.35689 0.18038 0.26094 0.0
H448 H 0.27466 0.13688 0.37334 0.0
C449 C 0.34819 0.13877 0.23424 0.0
C450 C 0.31433 0.0961 0.2588 0.0
H451 H 0.38565 0.2125 0.24371 0.0
H452 H 0.37097 0.13986 0.19791 0.0
C453 C 0.28571 0.09606 0.3064 0.0
C454 C 0.24238 0.3402 0.42081 0.0
C455 C 0.25055 0.30657 0.44811 0.0
H456 H 0.20437 0.37663 0.42318 0.0
C457 C 0.22134 0.28012 0.49676 0.0
H458 H 0.26398 0.36127 0.38328 0.0
C459 C 0.18728 0.28924 0.52014 0.0
C460 C 0.1811 0.32486 0.49531 0.0
H461 H 0.22644 0.25397 0.51921 0.0
H462 H 0.16714 0.2696 0.55946 0.0
C463 C 0.20808 0.34908 0.4439 0.0
C464 C 0.87731 0.1838 0.59937 0.0
C465 C 0.87685 0.15995 0.65297 0.0
H466 H 0.91838 0.23854 0.53616 0.0
C467 C 0.91978 0.16781 0.67655 0.0
H468 H 0.84513 0.17855 0.57935 0.0
C469 C 0.96201 0.20164 0.65045 0.0
C470 C 0.9621 0.2285 0.60063 0.0
H471 H 0.92088 0.14996 0.71749 0.0
H472 H 0.99438 0.20972 0.6728 0.0
C473 C 0.91936 0.21793 0.574 0.0
C474 C 0.72529 0.90462 0.73786 0.0
C475 C 0.75711 0.94709 0.76458 0.0
H476 H 0.69082 0.83081 0.74351 0.0
C477 C 0.7839 0.94721 0.81457 0.0
H478 H 0.70377 0.9036 0.69984 0.0
C479 C 0.77563 0.9053 0.84101 0.0
C480 C 0.74074 0.86261 0.81746 0.0
H481 H 0.80795 0.97947 0.83687 0.0
H482 H 0.79442 0.90646 0.88217 0.0
C483 C 0.71757 0.86287 0.7635 0.0
C484 C 0.8465 0.71529 0.90246 0.0
C485 C 0.83455 0.74541 0.93138 0.0
H486 H 0.88652 0.68129 0.90596 0.0
C487 C 0.85969 0.76991 0.98341 0.0
H488 H 0.82712 0.69549 0.86285 0.0
C489 C 0.89302 0.76084 0.00952 0.0
C490 C 0.90197 0.72742 0.98361 0.0
H491 H 0.85037 0.79257 0.00734 0.0
H492 H 0.90939 0.7777 0.05212 0.0
C493 C 0.88021 0.70678 0.92782 0.0
C494 C 0.19731 0.86301 0.09472 0.0
C495 C 0.19726 0.88448 0.15017 0.0
H496 H 0.15687 0.81075 0.02858 0.0
C497 C 0.15418 0.8753 0.17465 0.0
H498 H 0.22966 0.86946 0.07395 0.0
C499 C 0.11225 0.84231 0.14732 0.0
C500 C 0.1127 0.81768 0.0954 0.0
H501 H 0.15275 0.89138 0.217 0.0
H502 H 0.07972 0.83299 0.17013 0.0
C503 C 0.15555 0.82969 0.06808 0.0
C504 C 0.92941 0.71002 0.5712 0.0
C505 C 0.97116 0.74222 0.54227 0.0
H506 H 0.85488 0.67409 0.57 0.0
C507 C 0.96823 0.76649 0.49099 0.0
H508 H 0.93004 0.69061 0.6107 0.0
C509 C 0.92486 0.75661 0.46699 0.0
C510 C 0.88307 0.72242 0.49384 0.0
H511 H 0.99947 0.79143 0.46714 0.0
H512 H 0.92415 0.77449 0.42588 0.0
C513 C 0.8861 0.70043 0.54754 0.0
C514 C 0.1866 0.91232 0.65116 0.0
C515 C 0.18409 0.87127 0.67249 0.0
H516 H 0.2233 0.98663 0.65436 0.0
C517 C 0.21284 0.87414 0.72169 0.0
H518 H 0.16503 0.91138 0.6133 0.0
C519 C 0.24602 0.9171 0.7455 0.0
C520 C 0.2517 0.95855 0.72042 0.0
H521 H 0.21144 0.84313 0.73972 0.0
H522 H 0.26921 0.9178 0.78097 0.0
C523 C 0.22016 0.95553 0.67476 0.0
C524 C 0.29584 0.1682 0.83397 0.0
C525 C 0.33407 0.164 0.8532 0.0
H526 H 0.26057 0.20731 0.84143 0.0
C527 C 0.35926 0.1888 0.905 0.0
H528 H 0.2758 0.14951 0.79416 0.0
C529 C 0.35021 0.22126 0.93236 0.0
C530 C 0.31583 0.22972 0.90847 0.0
H531 H 0.38848 0.18576 0.92143 0.0
H532 H 0.3732 0.24305 0.96836 0.0
C533 C 0.2868 0.20099 0.86144 0.0
C534 C 0.19754 0.34491 0.06836 0.0
C535 C 0.19789 0.32335 0.01313 0.0
H536 H 0.1565 0.35658 0.13394 0.0
C537 C 0.15508 0.28918 0.98868 0.0
H538 H 0.22972 0.37101 0.08909 0.0
C539 C 0.11294 0.28004 0.01573 0.0
C540 C 0.11295 0.3052 0.0673 0.0
H541 H 0.15399 0.27163 0.94652 0.0
H542 H 0.08057 0.25664 0.99287 0.0
C543 C 0.15557 0.33628 0.09471 0.0
C544 C 0.84609 0.14105 0.25684 0.0
C545 C 0.83387 0.09868 0.22868 0.0
H546 H 0.88572 0.21487 0.25181 0.0
C547 C 0.85789 0.09891 0.17551 0.0
H548 H 0.82758 0.14189 0.29723 0.0
C549 C 0.89056 0.141 0.14813 0.0
C550 C 0.9 0.18359 0.17372 0.0
H551 H 0.84831 0.06679 0.15196 0.0
H552 H 0.90613 0.14008 0.10497 0.0
C553 C 0.87907 0.18293 0.23013 0.0
C554 C 0.72926 0.83 0.41922 0.0
C555 C 0.75907 0.81721 0.39079 0.0
H556 H 0.69592 0.87062 0.41493 0.0
C557 C 0.78292 0.84102 0.33747 0.0
H558 H 0.70986 0.81172 0.45974 0.0
C559 C 0.77403 0.87422 0.31043 0.0
C560 C 0.74134 0.88443 0.33649 0.0
H561 H 0.80519 0.83105 0.31365 0.0
H562 H 0.79059 0.88969 0.26724 0.0
C563 C 0.72089 0.86347 0.39287 0.0
C564 C 0.40756 0.34386 0.18353 0.0
C565 C 0.39729 0.36598 0.23074 0.0
H566 H 0.40879 0.33277 0.08798 0.0
C567 C 0.38133 0.39664 0.21528 0.0
H568 H 0.42027 0.32024 0.19339 0.0
C569 C 0.37468 0.40395 0.15368 0.0
C570 C 0.38396 0.38071 0.10685 0.0
H571 H 0.37311 0.41417 0.25062 0.0
H572 H 0.3615 0.42702 0.14286 0.0
C573 C 0.40097 0.35108 0.12265 0.0
C574 C 0.0818 0.39502 0.35253 0.0
C575 C 0.04661 0.37715 0.39726 0.0
H576 H 0.09854 0.40312 0.25721 0.0
C577 C 0.99981 0.35387 0.3785 0.0
H578 H 0.11822 0.41288 0.36541 0.0
C579 C 0.9885 0.34862 0.31623 0.0
C580 C 1.02378 0.36602 0.27159 0.0
H581 H 0.9719 0.3397 0.41186 0.0
H582 H 0.95214 0.33024 0.3031 0.0
C583 C 0.07052 0.38929 0.29044 0.0
C584 C 0.71037 0.06639 0.51797 0.0
C585 C 0.69247 0.03107 0.56242 0.0
H586 H 0.72057 0.08366 0.42279 0.0
C587 C 0.66974 0.98462 0.54332 0.0
H588 H 0.72845 0.10255 0.53115 0.0
C589 C 0.6649 0.97378 0.48097 0.0
C590 C 0.68327 1.00919 0.4366 0.0
H591 H 0.65567 0.95664 0.57647 0.0
H592 H 0.6474 0.93768 0.46757 0.0
C593 C 0.70607 0.05558 0.45579 0.0
C594 C 0.67518 0.69193 0.62042 0.0
C595 C 0.69912 0.6692 0.60171 0.0
H596 H 0.65034 0.71476 0.69522 0.0
C597 C 0.7166 0.65154 0.64655 0.0
H598 H 0.66122 0.70589 0.5871 0.0
C599 C 0.71069 0.65698 0.70883 0.0
C600 C 0.68658 0.67959 0.72741 0.0
H601 H 0.73544 0.63408 0.63357 0.0
H602 H 0.7249 0.64339 0.74234 0.0
C603 C 0.66875 0.69681 0.68249 0.0
C604 C 0.0905 0.71031 0.81025 0.0
C605 C 0.05872 0.68586 0.76311 0.0
H606 H 0.10211 0.72304 0.90583 0.0
C607 C 1.01246 0.65347 0.77863 0.0
H608 H 0.12647 0.73551 0.80032 0.0
C609 C 0.99832 0.64624 0.8401 0.0
C610 C 1.03025 0.67126 0.88694 0.0
H611 H 0.98713 0.63416 0.74339 0.0
H612 H 0.96238 0.62146 0.85082 0.0
C613 C 0.07649 0.70313 0.87114 0.0
C614 C 0.40737 0.07618 0.9816 0.0
C615 C 0.39861 0.04441 0.9341 0.0
H616 H 0.40687 0.08753 0.0773 0.0
C617 C 0.38333 0.99793 0.94918 0.0
H618 H 0.41937 0.11235 0.97202 0.0
C619 C 0.37607 0.98352 0.01059 0.0
C620 C 0.38401 1.0154 0.05774 0.0
H621 H 0.37621 0.97262 0.91366 0.0
H622 H 0.36356 0.94739 0.02099 0.0
C623 C 0.40016 0.06191 0.04237 0.0
loop_
_geom_bond_atom_site_label_1
_geom_bond_atom_site_label_2
_geom_bond_distance
_geom_bond_site_symmetry_2
_ccdc_geom_bond_type
Fe0 O2 1.918 . S
Fe0 O5 1.997 . S
Fe0 O6 2.002 . S
Fe0 O11 1.976 . S
Fe0 O14 1.996 . S
Fe1 O2 1.918 . S
Fe1 O9 1.997 . S
Fe1 O12 1.996 . S
Fe1 O16 1.976 . S
Fe1 O19 2.002 . S
O2 Fe0 1.918 . S
O2 Fe1 1.918 . S
O2 Fe3 1.918 . S
Fe3 O2 1.918 . S
Fe3 O4 2.002 . S
Fe3 O13 1.976 . S
Fe3 O17 1.996 . S
Fe3 O20 1.997 . S
O4 Fe3 2.002 . S
O4 C21 1.295 . S
O5 Fe0 1.997 . S
O5 C21 1.235 . S
O6 Fe0 2.002 . S
O6 C7 1.295 . S
C7 O6 1.295 . S
C7 O9 1.235 . S
C8 O13 1.287 . S
C8 O14 1.255 . S
O9 Fe1 1.997 . S
O9 C7 1.235 . S
C10 O16 1.287 . S
C10 O17 1.255 . S
O11 Fe0 1.976 . S
O11 C18 1.287 . S
O12 Fe1 1.996 . S
O12 C18 1.255 . S
O13 Fe3 1.976 . S
O13 C8 1.287 . S
O14 Fe0 1.996 . S
O14 C8 1.255 . S
C15 O19 1.295 . S
C15 O20 1.235 . S
O16 Fe1 1.976 . S
O16 C10 1.287 . S
O17 Fe3 1.996 . S
O17 C10 1.255 . S
C18 O11 1.287 . S
C18 O12 1.255 . S
O19 Fe1 2.002 . S
O19 C15 1.295 . S
O20 Fe3 1.997 . S
O20 C15 1.235 . S
C21 O4 1.295 . S
C21 O5 1.235 . S
Fe22 O24 1.918 . S
Fe22 O27 1.997 . S
Fe22 O28 2.002 . S
Fe22 O33 1.976 . S
Fe22 O36 1.996 . S
Fe23 O24 1.918 . S
Fe23 O31 1.997 . S
Fe23 O34 1.996 . S
Fe23 O38 1.976 1_455 S
Fe23 O41 2.002 1_455 S
O24 Fe22 1.918 . S
O24 Fe23 1.918 . S
O24 Fe25 1.918 . S
Fe25 O24 1.918 . S
Fe25 O26 2.002 . S
Fe25 O35 1.976 . S
Fe25 O39 1.996 . S
Fe25 O42 1.997 . S
O26 Fe25 2.002 . S
O26 C43 1.295 . S
O27 Fe22 1.997 . S
O27 C43 1.235 . S
O28 Fe22 2.002 . S
O28 C29 1.295 . S
C29 O28 1.295 . S
C29 O31 1.235 . S
C30 O35 1.287 . S
C30 O36 1.255 . S
O31 Fe23 1.997 . S
O31 C29 1.235 . S
C32 O38 1.287 . S
C32 O39 1.255 1_655 S
O33 Fe22 1.976 . S
O33 C40 1.287 . S
O34 Fe23 1.996 . S
O34 C40 1.255 . S
O35 Fe25 1.976 . S
O35 C30 1.287 . S
O36 Fe22 1.996 . S
O36 C30 1.255 . S
C37 O41 1.295 1_455 S
C37 O42 1.235 . S
O38 Fe23 1.976 1_655 S
O38 C32 1.287 . S
O39 Fe25 1.996 . S
O39 C32 1.255 1_455 S
C40 O33 1.287 . S
C40 O34 1.255 . S
O41 Fe23 2.002 1_655 S
O41 C37 1.295 1_655 S
O42 Fe25 1.997 . S
O42 C37 1.235 . S
C43 O26 1.295 . S
C43 O27 1.235 . S
Fe44 O46 1.918 . S
Fe44 O49 1.997 . S
Fe44 O50 2.002 1_545 S
Fe44 O55 1.976 1_545 S
Fe44 O58 1.996 . S
Fe45 O46 1.918 . S
Fe45 O53 1.997 . S
Fe45 O56 1.996 . S
Fe45 O60 1.976 . S
Fe45 O63 2.002 . S
O46 Fe44 1.918 . S
O46 Fe45 1.918 . S
O46 Fe47 1.918 . S
Fe47 O46 1.918 . S
Fe47 O48 2.002 . S
Fe47 O57 1.976 . S
Fe47 O61 1.996 . S
Fe47 O64 1.997 . S
O48 Fe47 2.002 . S
O48 C65 1.295 . S
O49 Fe44 1.997 . S
O49 C65 1.235 . S
O50 Fe44 2.002 1_565 S
O50 C51 1.295 1_565 S
C51 O50 1.295 1_545 S
C51 O53 1.235 . S
C52 O57 1.287 . S
C52 O58 1.255 . S
O53 Fe45 1.997 . S
O53 C51 1.235 . S
C54 O60 1.287 . S
C54 O61 1.255 . S
O55 Fe44 1.976 1_565 S
O55 C62 1.287 . S
O56 Fe45 1.996 . S
O56 C62 1.255 1_545 S
O57 Fe47 1.976 . S
O57 C52 1.287 . S
O58 Fe44 1.996 . S
O58 C52 1.255 . S
C59 O63 1.295 . S
C59 O64 1.235 . S
O60 Fe45 1.976 . S
O60 C54 1.287 . S
O61 Fe47 1.996 . S
O61 C54 1.255 . S
C62 O55 1.287 . S
C62 O56 1.255 1_565 S
O63 Fe45 2.002 . S
O63 C59 1.295 . S
O64 Fe47 1.997 . S
O64 C59 1.235 . S
C65 O48 1.295 . S
C65 O49 1.235 . S
Fe66 O68 1.918 . S
Fe66 O71 1.997 1_556 S
Fe66 O72 2.002 1_556 S
Fe66 O77 1.976 . S
Fe66 O80 1.996 . S
Fe67 O68 1.918 . S
Fe67 O75 1.997 . S
Fe67 O78 1.996 . S
Fe67 O82 1.976 . S
Fe67 O85 2.002 . S
O68 Fe66 1.918 . S
O68 Fe67 1.918 . S
O68 Fe69 1.918 . S
Fe69 O68 1.918 . S
Fe69 O70 2.002 1_556 S
Fe69 O79 1.976 . S
Fe69 O83 1.996 . S
Fe69 O86 1.997 . S
O70 Fe69 2.002 1_554 S
O70 C87 1.295 . S
O71 Fe66 1.997 1_554 S
O71 C87 1.235 . S
O72 Fe66 2.002 1_554 S
O72 C73 1.295 1_554 S
C73 O72 1.295 1_556 S
C73 O75 1.235 . S
C74 O79 1.287 . S
C74 O80 1.255 . S
O75 Fe67 1.997 . S
O75 C73 1.235 . S
C76 O82 1.287 . S
C76 O83 1.255 . S
O77 Fe66 1.976 . S
O77 C84 1.287 . S
O78 Fe67 1.996 . S
O78 C84 1.255 . S
O79 Fe69 1.976 . S
O79 C74 1.287 . S
O80 Fe66 1.996 . S
O80 C74 1.255 . S
C81 O85 1.295 . S
C81 O86 1.235 . S
O82 Fe67 1.976 . S
O82 C76 1.287 . S
O83 Fe69 1.996 . S
O83 C76 1.255 . S
C84 O77 1.287 . S
C84 O78 1.255 . S
O85 Fe67 2.002 . S
O85 C81 1.295 . S
O86 Fe69 1.997 . S
O86 C81 1.235 . S
C87 O70 1.295 . S
C87 O71 1.235 . S
Fe88 O90 1.918 . S
Fe88 O93 1.997 . S
Fe88 O94 2.002 1_655 S
Fe88 O99 1.976 1_655 S
Fe88 O102 1.996 1_554 S
Fe89 O90 1.918 . S
Fe89 O97 1.997 . S
Fe89 O100 1.996 . S
Fe89 O104 1.976 . S
Fe89 O107 2.002 . S
O90 Fe88 1.918 . S
O90 Fe89 1.918 . S
O90 Fe91 1.918 . S
Fe91 O90 1.918 . S
Fe91 O92 2.002 . S
Fe91 O101 1.976 1_554 S
Fe91 O105 1.996 . S
Fe91 O108 1.997 . S
O92 Fe91 2.002 . S
O92 C109 1.295 . S
O93 Fe88 1.997 . S
O93 C109 1.235 . S
O94 Fe88 2.002 1_455 S
O94 C95 1.295 1_455 S
C95 O94 1.295 1_655 S
C95 O97 1.235 . S
C96 O101 1.287 . S
C96 O102 1.255 . S
O97 Fe89 1.997 . S
O97 C95 1.235 . S
C98 O104 1.287 . S
C98 O105 1.255 . S
O99 Fe88 1.976 1_455 S
O99 C106 1.287 . S
O100 Fe89 1.996 . S
O100 C106 1.255 1_655 S
O101 Fe91 1.976 1_556 S
O101 C96 1.287 . S
O102 Fe88 1.996 1_556 S
O102 C96 1.255 . S
C103 O107 1.295 . S
C103 O108 1.235 . S
O104 Fe89 1.976 . S
O104 C98 1.287 . S
O105 Fe91 1.996 . S
O105 C98 1.255 . S
C106 O99 1.287 . S
C106 O100 1.255 1_455 S
O107 Fe89 2.002 . S
O107 C103 1.295 . S
O108 Fe91 1.997 . S
O108 C103 1.235 . S
C109 O92 1.295 . S
C109 O93 1.235 . S
Fe110 O112 1.918 . S
Fe110 O115 1.997 . S
Fe110 O116 2.002 . S
Fe110 O121 1.976 . S
Fe110 O124 1.996 . S
Fe111 O112 1.918 . S
Fe111 O119 1.997 . S
Fe111 O122 1.996 . S
Fe111 O126 1.976 1_565 S
Fe111 O129 2.002 1_565 S
O112 Fe110 1.918 . S
O112 Fe111 1.918 . S
O112 Fe113 1.918 . S
Fe113 O112 1.918 . S
Fe113 O114 2.002 . S
Fe113 O123 1.976 . S
Fe113 O127 1.996 . S
Fe113 O130 1.997 . S
O114 Fe113 2.002 . S
O114 C131 1.295 . S
O115 Fe110 1.997 . S
O115 C131 1.235 . S
O116 Fe110 2.002 . S
O116 C117 1.295 . S
C117 O116 1.295 . S
C117 O119 1.235 . S
C118 O123 1.287 . S
C118 O124 1.255 . S
O119 Fe111 1.997 . S
O119 C117 1.235 . S
C120 O126 1.287 . S
C120 O127 1.255 1_545 S
O121 Fe110 1.976 . S
O121 C128 1.287 . S
O122 Fe111 1.996 . S
O122 C128 1.255 . S
O123 Fe113 1.976 . S
O123 C118 1.287 . S
O124 Fe110 1.996 . S
O124 C118 1.255 . S
C125 O129 1.295 1_565 S
C125 O130 1.235 . S
O126 Fe111 1.976 1_545 S
O126 C120 1.287 . S
O127 Fe113 1.996 . S
O127 C120 1.255 1_565 S
C128 O121 1.287 . S
C128 O122 1.255 . S
O129 Fe111 2.002 1_545 S
O129 C125 1.295 1_545 S
O130 Fe113 1.997 . S
O130 C125 1.235 . S
C131 O114 1.295 . S
C131 O115 1.235 . S
Fe132 O134 1.918 . S
Fe132 O137 1.997 . S
Fe132 O138 2.002 . S
Fe132 O143 1.976 . S
Fe132 O146 1.996 . S
Fe133 O134 1.918 . S
Fe133 O141 1.997 . S
Fe133 O144 1.996 . S
Fe133 O148 1.976 . S
Fe133 O151 2.002 . S
O134 Fe132 1.918 . S
O134 Fe133 1.918 . S
O134 Fe135 1.918 . S
Fe135 O134 1.918 . S
Fe135 O136 2.002 . S
Fe135 O145 1.976 . S
Fe135 O149 1.996 . S
Fe135 O152 1.997 . S
O136 Fe135 2.002 . S
O136 C153 1.295 . S
O137 Fe132 1.997 . S
O137 C153 1.235 . S
O138 Fe132 2.002 . S
O138 C139 1.295 . S
C139 O138 1.295 . S
C139 O141 1.235 . S
C140 O145 1.287 . S
C140 O146 1.255 . S
O141 Fe133 1.997 . S
O141 C139 1.235 . S
C142 O148 1.287 . S
C142 O149 1.255 . S
O143 Fe132 1.976 . S
O143 C150 1.287 . S
O144 Fe133 1.996 . S
O144 C150 1.255 . S
O145 Fe135 1.976 . S
O145 C140 1.287 . S
O146 Fe132 1.996 . S
O146 C140 1.255 . S
C147 O151 1.295 . S
C147 O152 1.235 . S
O148 Fe133 1.976 . S
O148 C142 1.287 . S
O149 Fe135 1.996 . S
O149 C142 1.255 . S
C150 O143 1.287 . S
C150 O144 1.255 . S
O151 Fe133 2.002 . S
O151 C147 1.295 . S
O152 Fe135 1.997 . S
O152 C147 1.235 . S
C153 O136 1.295 . S
C153 O137 1.235 . S
Fe154 O156 1.918 . S
Fe154 O159 1.997 . S
Fe154 O160 2.002 . S
Fe154 O165 1.976 . S
Fe154 O168 1.996 . S
Fe155 O156 1.918 . S
Fe155 O163 1.997 . S
Fe155 O166 1.996 . S
Fe155 O170 1.976 . S
Fe155 O173 2.002 . S
O156 Fe154 1.918 . S
O156 Fe155 1.918 . S
O156 Fe157 1.918 . S
Fe157 O156 1.918 . S
Fe157 O158 2.002 1_455 S
Fe157 O167 1.976 1_455 S
Fe157 O171 1.996 . S
Fe157 O174 1.997 . S
O158 Fe157 2.002 1_655 S
O158 C175 1.295 1_655 S
O159 Fe154 1.997 . S
O159 C175 1.235 . S
O160 Fe154 2.002 . S
O160 C161 1.295 . S
C161 O160 1.295 . S
C161 O163 1.235 . S
C162 O167 1.287 . S
C162 O168 1.255 1_655 S
O163 Fe155 1.997 . S
O163 C161 1.235 . S
C164 O170 1.287 . S
C164 O171 1.255 . S
O165 Fe154 1.976 . S
O165 C172 1.287 . S
O166 Fe155 1.996 . S
O166 C172 1.255 . S
O167 Fe157 1.976 1_655 S
O167 C162 1.287 . S
O168 Fe154 1.996 . S
O168 C162 1.255 1_455 S
C169 O173 1.295 . S
C169 O174 1.235 . S
O170 Fe155 1.976 . S
O170 C164 1.287 . S
O171 Fe157 1.996 . S
O171 C164 1.255 . S
C172 O165 1.287 . S
C172 O166 1.255 . S
O173 Fe155 2.002 . S
O173 C169 1.295 . S
O174 Fe157 1.997 . S
O174 C169 1.235 . S
C175 O158 1.295 1_455 S
C175 O159 1.235 . S
Fe176 O178 1.918 . S
Fe176 O181 1.997 . S
Fe176 O182 2.002 1_545 S
Fe176 O187 1.976 1_545 S
Fe176 O190 1.996 . S
Fe177 O178 1.918 . S
Fe177 O185 1.997 . S
Fe177 O188 1.996 . S
Fe177 O192 1.976 . S
Fe177 O195 2.002 . S
O178 Fe176 1.918 . S
O178 Fe177 1.918 . S
O178 Fe179 1.918 . S
Fe179 O178 1.918 . S
Fe179 O180 2.002 . S
Fe179 O189 1.976 . S
Fe179 O193 1.996 . S
Fe179 O196 1.997 . S
O180 Fe179 2.002 . S
O180 C197 1.295 . S
O181 Fe176 1.997 . S
O181 C197 1.235 . S
O182 Fe176 2.002 1_565 S
O182 C183 1.295 1_565 S
C183 O182 1.295 1_545 S
C183 O185 1.235 . S
C184 O189 1.287 . S
C184 O190 1.255 . S
O185 Fe177 1.997 . S
O185 C183 1.235 . S
C186 O192 1.287 . S
C186 O193 1.255 . S
O187 Fe176 1.976 1_565 S
O187 C194 1.287 . S
O188 Fe177 1.996 . S
O188 C194 1.255 1_545 S
O189 Fe179 1.976 . S
O189 C184 1.287 . S
O190 Fe176 1.996 . S
O190 C184 1.255 . S
C191 O195 1.295 . S
C191 O196 1.235 . S
O192 Fe177 1.976 . S
O192 C186 1.287 . S
O193 Fe179 1.996 . S
O193 C186 1.255 . S
C194 O187 1.287 . S
C194 O188 1.255 1_565 S
O195 Fe177 2.002 . S
O195 C191 1.295 . S
O196 Fe179 1.997 . S
O196 C191 1.235 . S
C197 O180 1.295 . S
C197 O181 1.235 . S
Fe198 O200 1.918 . S
Fe198 O203 1.997 . S
Fe198 O204 2.002 . S
Fe198 O209 1.976 . S
Fe198 O212 1.996 1_556 S
Fe199 O200 1.918 . S
Fe199 O207 1.997 . S
Fe199 O210 1.996 . S
Fe199 O214 1.976 . S
Fe199 O217 2.002 . S
O200 Fe198 1.918 . S
O200 Fe199 1.918 . S
O200 Fe201 1.918 . S
Fe201 O200 1.918 . S
Fe201 O202 2.002 . S
Fe201 O211 1.976 1_556 S
Fe201 O215 1.996 . S
Fe201 O218 1.997 . S
O202 Fe201 2.002 . S
O202 C219 1.295 . S
O203 Fe198 1.997 . S
O203 C219 1.235 . S
O204 Fe198 2.002 . S
O204 C205 1.295 . S
C205 O204 1.295 . S
C205 O207 1.235 . S
C206 O211 1.287 . S
C206 O212 1.255 . S
O207 Fe199 1.997 . S
O207 C205 1.235 . S
C208 O214 1.287 . S
C208 O215 1.255 . S
O209 Fe198 1.976 . S
O209 C216 1.287 . S
O210 Fe199 1.996 . S
O210 C216 1.255 . S
O211 Fe201 1.976 1_554 S
O211 C206 1.287 . S
O212 Fe198 1.996 1_554 S
O212 C206 1.255 . S
C213 O217 1.295 . S
C213 O218 1.235 . S
O214 Fe199 1.976 . S
O214 C208 1.287 . S
O215 Fe201 1.996 . S
O215 C208 1.255 . S
C216 O209 1.287 . S
C216 O210 1.255 . S
O217 Fe199 2.002 . S
O217 C213 1.295 . S
O218 Fe201 1.997 . S
O218 C213 1.235 . S
C219 O202 1.295 . S
C219 O203 1.235 . S
Fe220 O222 1.918 . S
Fe220 O225 1.997 . S
Fe220 O226 2.002 1_654 S
Fe220 O231 1.976 1_655 S
Fe220 O234 1.996 . S
Fe221 O222 1.918 . S
Fe221 O229 1.997 1_554 S
Fe221 O232 1.996 . S
Fe221 O236 1.976 . S
Fe221 O239 2.002 1_554 S
O222 Fe220 1.918 . S
O222 Fe221 1.918 . S
O222 Fe223 1.918 . S
Fe223 O222 1.918 . S
Fe223 O224 2.002 . S
Fe223 O233 1.976 . S
Fe223 O237 1.996 . S
Fe223 O240 1.997 . S
O224 Fe223 2.002 . S
O224 C241 1.295 . S
O225 Fe220 1.997 . S
O225 C241 1.235 . S
O226 Fe220 2.002 1_456 S
O226 C227 1.295 1_455 S
C227 O226 1.295 1_655 S
C227 O229 1.235 . S
C228 O233 1.287 . S
C228 O234 1.255 . S
O229 Fe221 1.997 1_556 S
O229 C227 1.235 . S
C230 O236 1.287 . S
C230 O237 1.255 . S
O231 Fe220 1.976 1_455 S
O231 C238 1.287 . S
O232 Fe221 1.996 . S
O232 C238 1.255 1_655 S
O233 Fe223 1.976 . S
O233 C228 1.287 . S
O234 Fe220 1.996 . S
O234 C228 1.255 . S
C235 O239 1.295 1_554 S
C235 O240 1.235 . S
O236 Fe221 1.976 . S
O236 C230 1.287 . S
O237 Fe223 1.996 . S
O237 C230 1.255 . S
C238 O231 1.287 . S
C238 O232 1.255 1_455 S
O239 Fe221 2.002 1_556 S
O239 C235 1.295 1_556 S
O240 Fe223 1.997 . S
O240 C235 1.235 . S
C241 O224 1.295 . S
C241 O225 1.235 . S
Fe242 O244 1.918 . S
Fe242 O247 1.997 . S
Fe242 O248 2.002 1_565 S
Fe242 O253 1.976 1_565 S
Fe242 O256 1.996 . S
Fe243 O244 1.918 . S
Fe243 O251 1.997 . S
Fe243 O254 1.996 . S
Fe243 O258 1.976 . S
Fe243 O261 2.002 . S
O244 Fe242 1.918 . S
O244 Fe243 1.918 . S
O244 Fe245 1.918 . S
Fe245 O244 1.918 . S
Fe245 O246 2.002 . S
Fe245 O255 1.976 . S
Fe245 O259 1.996 . S
Fe245 O262 1.997 . S
O246 Fe245 2.002 . S
O246 C263 1.295 . S
O247 Fe242 1.997 . S
O247 C263 1.235 . S
O248 Fe242 2.002 1_545 S
O248 C249 1.295 1_545 S
C249 O248 1.295 1_565 S
C249 O251 1.235 . S
C250 O255 1.287 . S
C250 O256 1.255 . S
O251 Fe243 1.997 . S
O251 C249 1.235 . S
C252 O258 1.287 . S
C252 O259 1.255 . S
O253 Fe242 1.976 1_545 S
O253 C260 1.287 . S
O254 Fe243 1.996 . S
O254 C260 1.255 1_565 S
O255 Fe245 1.976 . S
O255 C250 1.287 . S
O256 Fe242 1.996 . S
O256 C250 1.255 . S
C257 O261 1.295 . S
C257 O262 1.235 . S
O258 Fe243 1.976 . S
O258 C252 1.287 . S
O259 Fe245 1.996 . S
O259 C252 1.255 . S
C260 O253 1.287 . S
C260 O254 1.255 1_545 S
O261 Fe243 2.002 . S
O261 C257 1.295 . S
O262 Fe245 1.997 . S
O262 C257 1.235 . S
C263 O246 1.295 . S
C263 O247 1.235 . S
C264 C265 1.387 . S
C264 H268 0.950 . S
C264 C273 1.390 . S
C265 C264 1.387 . S
C265 C267 1.387 . S
H266 C273 0.950 . S
C267 C265 1.387 . S
C267 C269 1.390 . S
C267 H271 0.950 . S
H268 C264 0.950 . S
C269 C267 1.390 . S
C269 C270 1.387 . S
C269 H272 0.950 . S
C270 C269 1.387 . S
C270 C273 1.387 . S
H271 C267 0.950 . S
H272 C269 0.950 . S
C273 C264 1.390 . S
C273 H266 0.950 . S
C273 C270 1.387 . S
C274 C275 1.387 . S
C274 H278 0.950 . S
C274 C283 1.390 . S
C275 C274 1.387 . S
C275 C277 1.387 . S
H276 C283 0.950 . S
C277 C275 1.387 . S
C277 C279 1.390 . S
C277 H281 0.950 . S
H278 C274 0.950 . S
C279 C277 1.390 . S
C279 C280 1.387 . S
C279 H282 0.950 . S
C280 C279 1.387 . S
C280 C283 1.387 . S
H281 C277 0.950 . S
H282 C279 0.950 . S
C283 C274 1.390 . S
C283 H276 0.950 . S
C283 C280 1.387 . S
C284 C285 1.387 . S
C284 H288 0.950 . S
C284 C293 1.390 . S
C285 C284 1.387 . S
C285 C287 1.387 . S
H286 C293 0.950 . S
C287 C285 1.387 . S
C287 C289 1.390 . S
C287 H291 0.950 . S
H288 C284 0.950 . S
C289 C287 1.390 . S
C289 C290 1.387 . S
C289 H292 0.950 . S
C290 C289 1.387 . S
C290 C293 1.387 . S
H291 C287 0.950 . S
H292 C289 0.950 . S
C293 C284 1.390 . S
C293 H286 0.950 . S
C293 C290 1.387 . S
C294 C295 1.387 . S
C294 H298 0.950 . S
C294 C303 1.390 . S
C295 C294 1.387 . S
C295 C297 1.387 . S
H296 C303 0.950 1_556 S
C297 C295 1.387 . S
C297 C299 1.390 . S
C297 H301 0.950 . S
H298 C294 0.950 . S
C299 C297 1.390 . S
C299 C300 1.387 . S
C299 H302 0.950 . S
C300 C299 1.387 . S
C300 C303 1.387 . S
H301 C297 0.950 . S
H302 C299 0.950 . S
C303 C294 1.390 . S
C303 H296 0.950 1_554 S
C303 C300 1.387 . S
C304 C305 1.387 . S
C304 H308 0.950 . S
C304 C313 1.390 . S
C305 C304 1.387 . S
C305 C307 1.387 . S
H306 C313 0.950 . S
C307 C305 1.387 . S
C307 C309 1.390 . S
C307 H311 0.950 . S
H308 C304 0.950 . S
C309 C307 1.390 . S
C309 C310 1.387 . S
C309 H312 0.950 . S
C310 C309 1.387 . S
C310 C313 1.387 . S
H311 C307 0.950 . S
H312 C309 0.950 . S
C313 C304 1.390 . S
C313 H306 0.950 . S
C313 C310 1.387 . S
C314 C315 1.387 . S
C314 H318 0.950 . S
C314 C323 1.390 . S
C315 C314 1.387 . S
C315 C317 1.387 . S
H316 C323 0.950 . S
C317 C315 1.387 . S
C317 C319 1.390 . S
C317 H321 0.950 . S
H318 C314 0.950 . S
C319 C317 1.390 . S
C319 C320 1.387 . S
C319 H322 0.950 . S
C320 C319 1.387 . S
C320 C323 1.387 . S
H321 C317 0.950 . S
H322 C319 0.950 . S
C323 C314 1.390 . S
C323 H316 0.950 . S
C323 C320 1.387 . S
C324 C325 1.387 . S
C324 H328 0.950 . S
C324 C333 1.390 . S
C325 C324 1.387 . S
C325 C327 1.387 . S
H326 C333 0.950 . S
C327 C325 1.387 . S
C327 C329 1.390 . S
C327 H331 0.950 . S
H328 C324 0.950 . S
C329 C327 1.390 . S
C329 C330 1.387 . S
C329 H332 0.950 . S
C330 C329 1.387 . S
C330 C333 1.387 . S
H331 C327 0.950 . S
H332 C329 0.950 . S
C333 C324 1.390 . S
C333 H326 0.950 . S
C333 C330 1.387 . S
C334 C335 1.387 . S
C334 H338 0.950 . S
C334 C343 1.390 . S
C335 C334 1.387 . S
C335 C337 1.387 . S
H336 C343 0.950 . S
C337 C335 1.387 . S
C337 C339 1.390 . S
C337 H341 0.950 . S
H338 C334 0.950 . S
C339 C337 1.390 . S
C339 C340 1.387 . S
C339 H342 0.950 . S
C340 C339 1.387 . S
C340 C343 1.387 . S
H341 C337 0.950 . S
H342 C339 0.950 . S
C343 C334 1.390 . S
C343 H336 0.950 . S
C343 C340 1.387 . S
C344 C345 1.387 . S
C344 H348 0.950 . S
C344 C353 1.390 . S
C345 C344 1.387 . S
C345 C347 1.387 . S
H346 C353 0.950 . S
C347 C345 1.387 . S
C347 C349 1.390 . S
C347 H351 0.950 . S
H348 C344 0.950 . S
C349 C347 1.390 . S
C349 C350 1.387 . S
C349 H352 0.950 . S
C350 C349 1.387 . S
C350 C353 1.387 . S
H351 C347 0.950 . S
H352 C349 0.950 . S
C353 C344 1.390 . S
C353 H346 0.950 . S
C353 C350 1.387 . S
C354 C355 1.387 . S
C354 H358 0.950 1_556 S
C354 C363 1.390 . S
C355 C354 1.387 . S
C355 C357 1.387 . S
H356 C363 0.950 1_554 S
C357 C355 1.387 . S
C357 C359 1.390 . S
C357 H361 0.950 . S
H358 C354 0.950 1_554 S
C359 C357 1.390 . S
C359 C360 1.387 . S
C359 H362 0.950 . S
C360 C359 1.387 . S
C360 C363 1.387 . S
H361 C357 0.950 . S
H362 C359 0.950 . S
C363 C354 1.390 . S
C363 H356 0.950 1_556 S
C363 C360 1.387 . S
C364 C365 1.387 . S
C364 H368 0.950 1_554 S
C364 C373 1.390 . S
C365 C364 1.387 . S
C365 C367 1.387 . S
H366 C373 0.950 1_556 S
C367 C365 1.387 . S
C367 C369 1.390 . S
C367 H371 0.950 . S
H368 C364 0.950 1_556 S
C369 C367 1.390 . S
C369 C370 1.387 . S
C369 H372 0.950 . S
C370 C369 1.387 . S
C370 C373 1.387 . S
H371 C367 0.950 . S
H372 C369 0.950 . S
C373 C364 1.390 . S
C373 H366 0.950 1_554 S
C373 C370 1.387 . S
C374 C375 1.387 . S
C374 H378 0.950 . S
C374 C383 1.390 . S
C375 C374 1.387 . S
C375 C377 1.387 . S
H376 C383 0.950 . S
C377 C375 1.387 . S
C377 C379 1.390 . S
C377 H381 0.950 . S
H378 C374 0.950 . S
C379 C377 1.390 . S
C379 C380 1.387 . S
C379 H382 0.950 . S
C380 C379 1.387 . S
C380 C383 1.387 . S
H381 C377 0.950 . S
H382 C379 0.950 . S
C383 C374 1.390 . S
C383 H376 0.950 . S
C383 C380 1.387 . S
C384 C385 1.387 . S
C384 H388 0.950 . S
C384 C393 1.390 . S
C385 C384 1.387 . S
C385 C387 1.387 . S
H386 C393 0.950 . S
C387 C385 1.387 . S
C387 C389 1.390 . S
C387 H391 0.950 . S
H388 C384 0.950 . S
C389 C387 1.390 . S
C389 C390 1.387 . S
C389 H392 0.950 . S
C390 C389 1.387 . S
C390 C393 1.387 . S
H391 C387 0.950 . S
H392 C389 0.950 . S
C393 C384 1.390 . S
C393 H386 0.950 . S
C393 C390 1.387 . S
C394 C395 1.387 . S
C394 H398 0.950 . S
C394 C403 1.390 . S
C395 C394 1.387 . S
C395 C397 1.387 1_655 S
H396 C403 0.950 . S
C397 C395 1.387 1_455 S
C397 C399 1.390 . S
C397 H401 0.950 . S
H398 C394 0.950 . S
C399 C397 1.390 . S
C399 C400 1.387 . S
C399 H402 0.950 . S
C400 C399 1.387 . S
C400 C403 1.387 1_455 S
H401 C397 0.950 . S
H402 C399 0.950 . S
C403 C394 1.390 . S
C403 H396 0.950 . S
C403 C400 1.387 1_655 S
C404 C405 1.387 . S
C404 H408 0.950 . S
C404 C413 1.390 1_546 S
C405 C404 1.387 . S
C405 C407 1.387 . S
H406 C413 0.950 . S
C407 C405 1.387 . S
C407 C409 1.390 1_546 S
C407 H411 0.950 . S
H408 C404 0.950 . S
C409 C407 1.390 1_564 S
C409 C410 1.387 . S
C409 H412 0.950 . S
C410 C409 1.387 . S
C410 C413 1.387 . S
H411 C407 0.950 . S
H412 C409 0.950 . S
C413 C404 1.390 1_564 S
C413 H406 0.950 . S
C413 C410 1.387 . S
C414 C415 1.387 . S
C414 H418 0.950 . S
C414 C423 1.390 . S
C415 C414 1.387 . S
C415 C417 1.387 . S
H416 C423 0.950 . S
C417 C415 1.387 . S
C417 C419 1.390 . S
C417 H421 0.950 . S
H418 C414 0.950 . S
C419 C417 1.390 . S
C419 C420 1.387 . S
C419 H422 0.950 . S
C420 C419 1.387 . S
C420 C423 1.387 . S
H421 C417 0.950 . S
H422 C419 0.950 . S
C423 C414 1.390 . S
C423 H416 0.950 . S
C423 C420 1.387 . S
C424 C425 1.387 1_655 S
C424 H428 0.950 . S
C424 C433 1.390 . S
C425 C424 1.387 1_455 S
C425 C427 1.387 . S
H426 C433 0.950 . S
C427 C425 1.387 . S
C427 C429 1.390 . S
C427 H431 0.950 . S
H428 C424 0.950 . S
C429 C427 1.390 . S
C429 C430 1.387 1_455 S
C429 H432 0.950 . S
C430 C429 1.387 1_655 S
C430 C433 1.387 . S
H431 C427 0.950 . S
H432 C429 0.950 . S
C433 C424 1.390 . S
C433 H426 0.950 . S
C433 C430 1.387 . S
C434 C435 1.387 . S
C434 H438 0.950 . S
C434 C443 1.390 1_565 S
C435 C434 1.387 . S
C435 C437 1.387 . S
H436 C443 0.950 . S
C437 C435 1.387 . S
C437 C439 1.390 1_565 S
C437 H441 0.950 . S
H438 C434 0.950 . S
C439 C437 1.390 1_545 S
C439 C440 1.387 . S
C439 H442 0.950 . S
C440 C439 1.387 . S
C440 C443 1.387 . S
H441 C437 0.950 . S
H442 C439 0.950 . S
C443 C434 1.390 1_545 S
C443 H436 0.950 . S
C443 C440 1.387 . S
C444 C445 1.387 . S
C444 H448 0.950 . S
C444 C453 1.390 . S
C445 C444 1.387 . S
C445 C447 1.387 . S
H446 C453 0.950 . S
C447 C445 1.387 . S
C447 C449 1.390 . S
C447 H451 0.950 . S
H448 C444 0.950 . S
C449 C447 1.390 . S
C449 C450 1.387 . S
C449 H452 0.950 . S
C450 C449 1.387 . S
C450 C453 1.387 . S
H451 C447 0.950 . S
H452 C449 0.950 . S
C453 C444 1.390 . S
C453 H446 0.950 . S
C453 C450 1.387 . S
C454 C455 1.387 . S
C454 H458 0.950 . S
C454 C463 1.390 . S
C455 C454 1.387 . S
C455 C457 1.387 . S
H456 C463 0.950 . S
C457 C455 1.387 . S
C457 C459 1.390 . S
C457 H461 0.950 . S
H458 C454 0.950 . S
C459 C457 1.390 . S
C459 C460 1.387 . S
C459 H462 0.950 . S
C460 C459 1.387 . S
C460 C463 1.387 . S
H461 C457 0.950 . S
H462 C459 0.950 . S
C463 C454 1.390 . S
C463 H456 0.950 . S
C463 C460 1.387 . S
C464 C465 1.387 . S
C464 H468 0.950 . S
C464 C473 1.390 . S
C465 C464 1.387 . S
C465 C467 1.387 . S
H466 C473 0.950 . S
C467 C465 1.387 . S
C467 C469 1.390 . S
C467 H471 0.950 . S
H468 C464 0.950 . S
C469 C467 1.390 . S
C469 C470 1.387 . S
C469 H472 0.950 . S
C470 C469 1.387 . S
C470 C473 1.387 . S
H471 C467 0.950 . S
H472 C469 0.950 . S
C473 C464 1.390 . S
C473 H466 0.950 . S
C473 C470 1.387 . S
C474 C475 1.387 . S
C474 H478 0.950 . S
C474 C483 1.390 . S
C475 C474 1.387 . S
C475 C477 1.387 . S
H476 C483 0.950 . S
C477 C475 1.387 . S
C477 C479 1.390 . S
C477 H481 0.950 . S
H478 C474 0.950 . S
C479 C477 1.390 . S
C479 C480 1.387 . S
C479 H482 0.950 . S
C480 C479 1.387 . S
C480 C483 1.387 . S
H481 C477 0.950 . S
H482 C479 0.950 . S
C483 C474 1.390 . S
C483 H476 0.950 . S
C483 C480 1.387 . S
C484 C485 1.387 . S
C484 H488 0.950 . S
C484 C493 1.390 . S
C485 C484 1.387 . S
C485 C487 1.387 . S
H486 C493 0.950 . S
C487 C485 1.387 . S
C487 C489 1.390 . S
C487 H491 0.950 . S
H488 C484 0.950 . S
C489 C487 1.390 . S
C489 C490 1.387 1_556 S
C489 H492 0.950 1_556 S
C490 C489 1.387 1_554 S
C490 C493 1.387 1_554 S
H491 C487 0.950 . S
H492 C489 0.950 1_554 S
C493 C484 1.390 . S
C493 H486 0.950 . S
C493 C490 1.387 1_556 S
C494 C495 1.387 . S
C494 H498 0.950 . S
C494 C503 1.390 . S
C495 C494 1.387 . S
C495 C497 1.387 . S
H496 C503 0.950 . S
C497 C495 1.387 . S
C497 C499 1.390 . S
C497 H501 0.950 . S
H498 C494 0.950 . S
C499 C497 1.390 . S
C499 C500 1.387 . S
C499 H502 0.950 . S
C500 C499 1.387 . S
C500 C503 1.387 . S
H501 C497 0.950 . S
H502 C499 0.950 . S
C503 C494 1.390 . S
C503 H496 0.950 . S
C503 C500 1.387 . S
C504 C505 1.387 . S
C504 H508 0.950 . S
C504 C513 1.390 . S
C505 C504 1.387 . S
C505 C507 1.387 . S
H506 C513 0.950 . S
C507 C505 1.387 . S
C507 C509 1.390 . S
C507 H511 0.950 . S
H508 C504 0.950 . S
C509 C507 1.390 . S
C509 C510 1.387 . S
C509 H512 0.950 . S
C510 C509 1.387 . S
C510 C513 1.387 . S
H511 C507 0.950 . S
H512 C509 0.950 . S
C513 C504 1.390 . S
C513 H506 0.950 . S
C513 C510 1.387 . S
C514 C515 1.387 . S
C514 H518 0.950 . S
C514 C523 1.390 . S
C515 C514 1.387 . S
C515 C517 1.387 . S
H516 C523 0.950 . S
C517 C515 1.387 . S
C517 C519 1.390 . S
C517 H521 0.950 . S
H518 C514 0.950 . S
C519 C517 1.390 . S
C519 C520 1.387 . S
C519 H522 0.950 . S
C520 C519 1.387 . S
C520 C523 1.387 . S
H521 C517 0.950 . S
H522 C519 0.950 . S
C523 C514 1.390 . S
C523 H516 0.950 . S
C523 C520 1.387 . S
C524 C525 1.387 . S
C524 H528 0.950 . S
C524 C533 1.390 . S
C525 C524 1.387 . S
C525 C527 1.387 . S
H526 C533 0.950 . S
C527 C525 1.387 . S
C527 C529 1.390 . S
C527 H531 0.950 . S
H528 C524 0.950 . S
C529 C527 1.390 . S
C529 C530 1.387 . S
C529 H532 0.950 . S
C530 C529 1.387 . S
C530 C533 1.387 . S
H531 C527 0.950 . S
H532 C529 0.950 . S
C533 C524 1.390 . S
C533 H526 0.950 . S
C533 C530 1.387 . S
C534 C535 1.387 1_554 S
C534 H538 0.950 . S
C534 C543 1.390 . S
C535 C534 1.387 1_556 S
C535 C537 1.387 1_556 S
H536 C543 0.950 . S
C537 C535 1.387 1_554 S
C537 C539 1.390 . S
C537 H541 0.950 1_554 S
H538 C534 0.950 . S
C539 C537 1.390 . S
C539 C540 1.387 . S
C539 H542 0.950 . S
C540 C539 1.387 . S
C540 C543 1.387 . S
H541 C537 0.950 1_556 S
H542 C539 0.950 . S
C543 C534 1.390 . S
C543 H536 0.950 . S
C543 C540 1.387 . S
C544 C545 1.387 . S
C544 H548 0.950 . S
C544 C553 1.390 . S
C545 C544 1.387 . S
C545 C547 1.387 . S
H546 C553 0.950 . S
C547 C545 1.387 . S
C547 C549 1.390 . S
C547 H551 0.950 . S
H548 C544 0.950 . S
C549 C547 1.390 . S
C549 C550 1.387 . S
C549 H552 0.950 . S
C550 C549 1.387 . S
C550 C553 1.387 . S
H551 C547 0.950 . S
H552 C549 0.950 . S
C553 C544 1.390 . S
C553 H546 0.950 . S
C553 C550 1.387 . S
C554 C555 1.387 . S
C554 H558 0.950 . S
C554 C563 1.390 . S
C555 C554 1.387 . S
C555 C557 1.387 . S
H556 C563 0.950 . S
C557 C555 1.387 . S
C557 C559 1.390 . S
C557 H561 0.950 . S
H558 C554 0.950 . S
C559 C557 1.390 . S
C559 C560 1.387 . S
C559 H562 0.950 . S
C560 C559 1.387 . S
C560 C563 1.387 . S
H561 C557 0.950 . S
H562 C559 0.950 . S
C563 C554 1.390 . S
C563 H556 0.950 . S
C563 C560 1.387 . S
C564 C565 1.387 . S
C564 H568 0.950 . S
C564 C573 1.390 . S
C565 C564 1.387 . S
C565 C567 1.387 . S
H566 C573 0.950 . S
C567 C565 1.387 . S
C567 C569 1.390 . S
C567 H571 0.950 . S
H568 C564 0.950 . S
C569 C567 1.390 . S
C569 C570 1.387 . S
C569 H572 0.950 . S
C570 C569 1.387 . S
C570 C573 1.387 . S
H571 C567 0.950 . S
H572 C569 0.950 . S
C573 C564 1.390 . S
C573 H566 0.950 . S
C573 C570 1.387 . S
C574 C575 1.387 . S
C574 H578 0.950 . S
C574 C583 1.390 1_455 S
C575 C574 1.387 . S
C575 C577 1.387 . S
H576 C583 0.950 . S
C577 C575 1.387 . S
C577 C579 1.390 1_455 S
C577 H581 0.950 . S
H578 C574 0.950 . S
C579 C577 1.390 1_655 S
C579 C580 1.387 . S
C579 H582 0.950 . S
C580 C579 1.387 . S
C580 C583 1.387 . S
H581 C577 0.950 . S
H582 C579 0.950 . S
C583 C574 1.390 1_655 S
C583 H576 0.950 . S
C583 C580 1.387 . S
C584 C585 1.387 . S
C584 H588 0.950 . S
C584 C593 1.390 1_545 S
C585 C584 1.387 . S
C585 C587 1.387 . S
H586 C593 0.950 . S
C587 C585 1.387 . S
C587 C589 1.390 1_545 S
C587 H591 0.950 . S
H588 C584 0.950 . S
C589 C587 1.390 1_565 S
C589 C590 1.387 . S
C589 H592 0.950 . S
C590 C589 1.387 . S
C590 C593 1.387 . S
H591 C587 0.950 . S
H592 C589 0.950 . S
C593 C584 1.390 1_565 S
C593 H586 0.950 . S
C593 C590 1.387 . S
C594 C595 1.387 . S
C594 H598 0.950 . S
C594 C603 1.390 . S
C595 C594 1.387 . S
C595 C597 1.387 . S
H596 C603 0.950 . S
C597 C595 1.387 . S
C597 C599 1.390 . S
C597 H601 0.950 . S
H598 C594 0.950 . S
C599 C597 1.390 . S
C599 C600 1.387 . S
C599 H602 0.950 . S
C600 C599 1.387 . S
C600 C603 1.387 . S
H601 C597 0.950 . S
H602 C599 0.950 . S
C603 C594 1.390 . S
C603 H596 0.950 . S
C603 C600 1.387 . S
C604 C605 1.387 . S
C604 H608 0.950 . S
C604 C613 1.390 . S
C605 C604 1.387 . S
C605 C607 1.387 1_455 S
H606 C613 0.950 . S
C607 C605 1.387 1_655 S
C607 C609 1.390 . S
C607 H611 0.950 . S
H608 C604 0.950 . S
C609 C607 1.390 . S
C609 C610 1.387 . S
C609 H612 0.950 . S
C610 C609 1.387 . S
C610 C613 1.387 1_655 S
H611 C607 0.950 . S
H612 C609 0.950 . S
C613 C604 1.390 . S
C613 H606 0.950 . S
C613 C610 1.387 1_455 S
C614 C615 1.387 . S
C614 H618 0.950 . S
C614 C623 1.390 1_546 S
C615 C614 1.387 . S
C615 C617 1.387 . S
H616 C623 0.950 . S
C617 C615 1.387 . S
C617 C619 1.390 1_546 S
C617 H621 0.950 . S
H618 C614 0.950 . S
C619 C617 1.390 1_564 S
C619 C620 1.387 . S
C619 H622 0.950 . S
C620 C619 1.387 . S
C620 C623 1.387 . S
H621 C617 0.950 . S
H622 C619 0.950 . S
C623 C614 1.390 1_564 S
C623 H616 0.950 . S
C623 C620 1.387 . S
C265 C15 1.163 . S
C270 C191 1.165 . S
C275 C213 1.165 . S
C280 C43 1.165 . S
C285 C235 1.164 1_556 S
C290 C59 1.164 . S
C295 C257 1.166 . S
C300 C73 1.162 1_554 S
C305 C147 1.164 . S
C310 C103 1.164 . S
C315 C161 1.166 . S
C320 C131 1.162 . S
C325 C21 1.580 . S
C330 C153 1.579 . S
C335 C29 1.579 . S
C340 C169 1.580 . S
C345 C65 1.580 . S
C350 C197 1.580 . S
C355 C219 1.580 . S
C360 C81 1.579 . S
C365 C241 1.579 . S
C370 C109 1.580 . S
C375 C117 1.580 . S
C380 C263 1.580 . S
C385 C7 1.112 . S
C390 C205 1.113 . S
C395 C227 1.112 . S
C400 C37 1.113 . S
C405 C51 1.112 . S
C410 C249 1.112 . S
C415 C139 1.112 . S
C420 C87 1.113 . S
C425 C175 1.112 . S
C430 C95 1.112 . S
C435 C125 1.112 . S
C440 C183 1.112 . S
C445 C10 1.628 . S
C450 C120 1.611 . S
C455 C18 1.609 . S
C460 C30 1.628 . S
C465 C54 1.626 . S
C470 C32 1.609 . S
C475 C62 1.610 . S
C480 C84 1.628 . S
C485 C74 1.609 . S
C490 C98 1.627 . S
C495 C118 1.626 . S
C500 C106 1.610 . S
C505 C162 1.609 . S
C510 C142 1.627 . S
C515 C172 1.627 . S
C520 C194 1.612 . S
C525 C186 1.628 . S
C530 C216 1.611 . S
C535 C208 1.627 . S
C540 C238 1.609 . S
C545 C260 1.609 . S
C550 C230 1.628 . S
C555 C150 1.611 . S
C560 C252 1.626 . S
C565 C8 1.411 . S
C570 C206 1.411 . S
C575 C40 1.410 . S
C580 C228 1.410 . S
C585 C52 1.411 . S
C590 C250 1.411 . S
C595 C140 1.410 . S
C600 C76 1.410 . S
C605 C164 1.411 . S
C610 C96 1.410 . S
C615 C184 1.411 . S
C620 C128 1.411 . S
