# Generated by pormake.
# Topology wib, (6)-cn, num edge types: 1
# Building blocks:
#     Node 0, Type 0, BuildingBlock: OJICUG_clean_sbu_0, # of connection points: 6
#     Node 1, Type 0, BuildingBlock: OJICUG_clean_sbu_0, # of connection points: 6
#     Node 2, Type 0, BuildingBlock: OJICUG_clean_sbu_0, # of connection points: 6
#     Node 3, Type 0, BuildingBlock: OJICUG_clean_sbu_0, # of connection points: 6
#     Node 4, Type 0, BuildingBlock: OJICUG_clean_sbu_0, # of connection points: 6
#     Node 5, Type 0, BuildingBlock: OJICUG_clean_sbu_0, # of connection points: 6
#     Node 6, Type 0, BuildingBlock: OJICUG_clean_sbu_0, # of connection points: 6
#     Node 7, Type 0, BuildingBlock: OJICUG_clean_sbu_0, # of connection points: 6
#     Node 8, Type 0, BuildingBlock: OJICUG_clean_sbu_0, # of connection points: 6
#     Node 9, Type 0, BuildingBlock: OJICUG_clean_sbu_0, # of connection points: 6
#     Node 10, Type 0, BuildingBlock: OJICUG_clean_sbu_0, # of connection points: 6
#     Node 11, Type 0, BuildingBlock: OJICUG_clean_sbu_0, # of connection points: 6
#     Node 12, Type 0, BuildingBlock: OJICUG_clean_sbu_0, # of connection points: 6
#     Node 13, Type 0, BuildingBlock: OJICUG_clean_sbu_0, # of connection points: 6
#     Node 14, Type 0, BuildingBlock: OJICUG_clean_sbu_0, # of connection points: 6
#     Node 15, Type 0, BuildingBlock: OJICUG_clean_sbu_0, # of connection points: 6
#     Edge 16, Type (0, 0), BuildingBlock: XIVTED_clean_linker_0, # of connection points: 2
#     Edge 17, Type (0, 0), BuildingBlock: XIVTED_clean_linker_0, # of connection points: 2
#     Edge 18, Type (0, 0), BuildingBlock: XIVTED_clean_linker_0, # of connection points: 2
#     Edge 19, Type (0, 0), BuildingBlock: XIVTED_clean_linker_0, # of connection points: 2
#     Edge 20, Type (0, 0), BuildingBlock: XIVTED_clean_linker_0, # of connection points: 2
#     Edge 21, Type (0, 0), BuildingBlock: XIVTED_clean_linker_0, # of connection points: 2
#     Edge 22, Type (0, 0), BuildingBlock: XIVTED_clean_linker_0, # of connection points: 2
#     Edge 23, Type (0, 0), BuildingBlock: XIVTED_clean_linker_0, # of connection points: 2
#     Edge 24, Type (0, 0), BuildingBlock: XIVTED_clean_linker_0, # of connection points: 2
#     Edge 25, Type (0, 0), BuildingBlock: XIVTED_clean_linker_0, # of connection points: 2
#     Edge 26, Type (0, 0), BuildingBlock: XIVTED_clean_linker_0, # of connection points: 2
#     Edge 27, Type (0, 0), BuildingBlock: XIVTED_clean_linker_0, # of connection points: 2
#     Edge 28, Type (0, 0), BuildingBlock: XIVTED_clean_linker_0, # of connection points: 2
#     Edge 29, Type (0, 0), BuildingBlock: XIVTED_clean_linker_0, # of connection points: 2
#     Edge 30, Type (0, 0), BuildingBlock: XIVTED_clean_linker_0, # of connection points: 2
#     Edge 31, Type (0, 0), BuildingBlock: XIVTED_clean_linker_0, # of connection points: 2
#     Edge 32, Type (0, 0), BuildingBlock: XIVTED_clean_linker_0, # of connection points: 2
#     Edge 33, Type (0, 0), BuildingBlock: XIVTED_clean_linker_0, # of connection points: 2
#     Edge 34, Type (0, 0), BuildingBlock: XIVTED_clean_linker_0, # of connection points: 2
#     Edge 35, Type (0, 0), BuildingBlock: XIVTED_clean_linker_0, # of connection points: 2
#     Edge 36, Type (0, 0), BuildingBlock: XIVTED_clean_linker_0, # of connection points: 2
#     Edge 37, Type (0, 0), BuildingBlock: XIVTED_clean_linker_0, # of connection points: 2
#     Edge 38, Type (0, 0), BuildingBlock: XIVTED_clean_linker_0, # of connection points: 2
#     Edge 39, Type (0, 0), BuildingBlock: XIVTED_clean_linker_0, # of connection points: 2
#     Edge 40, Type (0, 0), BuildingBlock: XIVTED_clean_linker_0, # of connection points: 2
#     Edge 41, Type (0, 0), BuildingBlock: XIVTED_clean_linker_0, # of connection points: 2
#     Edge 42, Type (0, 0), BuildingBlock: XIVTED_clean_linker_0, # of connection points: 2
#     Edge 43, Type (0, 0), BuildingBlock: XIVTED_clean_linker_0, # of connection points: 2
#     Edge 44, Type (0, 0), BuildingBlock: XIVTED_clean_linker_0, # of connection points: 2
#     Edge 45, Type (0, 0), BuildingBlock: XIVTED_clean_linker_0, # of connection points: 2
#     Edge 46, Type (0, 0), BuildingBlock: XIVTED_clean_linker_0, # of connection points: 2
#     Edge 47, Type (0, 0), BuildingBlock: XIVTED_clean_linker_0, # of connection points: 2
#     Edge 48, Type (0, 0), BuildingBlock: XIVTED_clean_linker_0, # of connection points: 2
#     Edge 49, Type (0, 0), BuildingBlock: XIVTED_clean_linker_0, # of connection points: 2
#     Edge 50, Type (0, 0), BuildingBlock: XIVTED_clean_linker_0, # of connection points: 2
#     Edge 51, Type (0, 0), BuildingBlock: XIVTED_clean_linker_0, # of connection points: 2
#     Edge 52, Type (0, 0), BuildingBlock: XIVTED_clean_linker_0, # of connection points: 2
#     Edge 53, Type (0, 0), BuildingBlock: XIVTED_clean_linker_0, # of connection points: 2
#     Edge 54, Type (0, 0), BuildingBlock: XIVTED_clean_linker_0, # of connection points: 2
#     Edge 55, Type (0, 0), BuildingBlock: XIVTED_clean_linker_0, # of connection points: 2
#     Edge 56, Type (0, 0), BuildingBlock: XIVTED_clean_linker_0, # of connection points: 2
#     Edge 57, Type (0, 0), BuildingBlock: XIVTED_clean_linker_0, # of connection points: 2
#     Edge 58, Type (0, 0), BuildingBlock: XIVTED_clean_linker_0, # of connection points: 2
#     Edge 59, Type (0, 0), BuildingBlock: XIVTED_clean_linker_0, # of connection points: 2
#     Edge 60, Type (0, 0), BuildingBlock: XIVTED_clean_linker_0, # of connection points: 2
#     Edge 61, Type (0, 0), BuildingBlock: XIVTED_clean_linker_0, # of connection points: 2
#     Edge 62, Type (0, 0), BuildingBlock: XIVTED_clean_linker_0, # of connection points: 2
#     Edge 63, Type (0, 0), BuildingBlock: XIVTED_clean_linker_0, # of connection points: 2
# Relax obj value: 0.382
# Max RMSD: 0.261
# Mean RMSD: 0.261
data_MOF--net-wib--node1-OJICUG_clean_sbu_0--edge1-XIVTED_clean_linker_0
_symmetry_space_group_name_H-M    P1
_symmetry_Int_Tables_number       1
_symmetry_cell_setting            triclinic
loop_
_symmetry_equiv_pos_as_xyz
'x, y, z'
_cell_length_a     31.577801
_cell_length_b     31.649903
_cell_length_c     58.390295
_cell_angle_alpha  90.053114
_cell_angle_beta   90.015807
_cell_angle_gamma 90.029022
loop_
_atom_site_label
_atom_site_type_symbol
_atom_site_fract_x
_atom_site_fract_y
_atom_site_fract_z
_atom_type_partial_charge
Sc0 Sc 0.11667 0.47381 0.28035 0.0
Sc1 Sc 0.1469 0.55046 0.32133 0.0
Sc2 Sc 0.06981 0.57535 0.28013 0.0
O3 O 0.1106 0.53285 0.29414 0.0
C4 C 0.10542 0.53069 0.23505 0.0
C5 C 0.21325 0.49568 0.29152 0.0
C6 C 0.15301 0.62986 0.28871 0.0
C7 C 0.12405 0.45687 0.33521 0.0
C8 C 0.01556 0.49071 0.27832 0.0
C9 C 0.0619 0.60132 0.33277 0.0
O10 O 0.11913 0.49776 0.24521 0.0
O11 O 0.20318 0.52077 0.30766 0.0
O12 O 0.11795 0.6236 0.27851 0.0
O13 O 0.11884 0.44367 0.31459 0.0
O14 O 0.019 0.53059 0.27993 0.0
O15 O 0.09732 0.58563 0.33871 0.0
O16 O 0.04742 0.46561 0.27811 0.0
O17 O 0.13089 0.49526 0.34027 0.0
O18 O 0.04743 0.59807 0.31258 0.0
O19 O 0.18552 0.47668 0.27949 0.0
O20 O 0.08609 0.56 0.24549 0.0
O21 O 0.16689 0.60617 0.30448 0.0
Sc22 Sc 0.26061 0.35954 0.53583 0.0
Sc23 Sc 0.19107 0.39291 0.57829 0.0
Sc24 Sc 0.15663 0.32214 0.53781 0.0
O25 O 0.20297 0.35802 0.55046 0.0
C26 C 0.19617 0.35727 0.49243 0.0
C27 C 0.25002 0.45449 0.54866 0.0
C28 C 0.11021 0.40863 0.55096 0.0
C29 C 0.2795 0.36464 0.59081 0.0
C30 C 0.23849 0.2631 0.53093 0.0
C31 C 0.13331 0.31111 0.58813 0.0
O32 O 0.23409 0.35673 0.50045 0.0
O33 O 0.23345 0.44398 0.56777 0.0
O34 O 0.10889 0.36994 0.54478 0.0
O35 O 0.29241 0.36694 0.56992 0.0
O36 O 0.1993 0.27166 0.52877 0.0
O37 O 0.14408 0.34915 0.59235 0.0
O38 O 0.26603 0.2906 0.53696 0.0
O39 O 0.2405 0.36081 0.5956 0.0
O40 O 0.14596 0.29218 0.57024 0.0
O41 O 0.25764 0.42746 0.53305 0.0
O42 O 0.16413 0.34967 0.50487 0.0
O43 O 0.14182 0.42485 0.56106 0.0
Sc44 Sc 0.43511 0.41847 0.77976 0.0
Sc45 Sc 0.35454 0.44264 0.81895 0.0
Sc46 Sc 0.39489 0.52272 0.78263 0.0
O47 O 0.39527 0.46158 0.79403 0.0
C48 C 0.4944 0.49931 0.78438 0.0
C49 C 0.43469 0.3858 0.83161 0.0
C50 C 0.38151 0.5332 0.83731 0.0
C51 C 0.34854 0.36809 0.78279 0.0
C52 C 0.40717 0.4708 0.73557 0.0
C53 C 0.29614 0.50493 0.789 0.0
O54 O 0.48791 0.4597 0.78402 0.0
O55 O 0.40009 0.4037 0.83712 0.0
O56 O 0.39144 0.54836 0.81768 0.0
O57 O 0.38482 0.37389 0.77392 0.0
O58 O 0.39408 0.50304 0.74664 0.0
O59 O 0.30222 0.47583 0.80361 0.0
O60 O 0.42461 0.4396 0.74534 0.0
O61 O 0.33446 0.38974 0.79939 0.0
O62 O 0.32634 0.52539 0.7798 0.0
O63 O 0.45117 0.38961 0.8119 0.0
O64 O 0.46454 0.52659 0.78333 0.0
O65 O 0.36999 0.49519 0.84039 0.0
Sc66 Sc 0.24448 0.64653 0.03538 0.0
Sc67 Sc 0.31433 0.61473 0.07811 0.0
Sc68 Sc 0.34821 0.68469 0.03722 0.0
O69 O 0.30206 0.64883 0.05009 0.0
C70 C 0.30941 0.64624 0.99245 0.0
C71 C 0.25589 0.55163 0.04884 0.0
C72 C 0.39584 0.59956 0.0514 0.0
C73 C 0.22542 0.64315 0.09027 0.0
C74 C 0.26614 0.74302 0.02938 0.0
C75 C 0.37041 0.69803 0.08748 0.0
O76 O 0.27134 0.64771 1.00018 0.0
O77 O 0.27295 0.56257 0.06778 0.0
O78 O 0.39669 0.63813 0.04506 0.0
O79 O 0.21259 0.6404 0.0694 0.0
O80 O 0.30532 0.73441 0.02728 0.0
O81 O 0.3604 0.65987 0.09195 0.0
O82 O 0.23877 0.71565 0.0358 0.0
O83 O 0.2644 0.64648 0.0952 0.0
O84 O 0.35783 0.71614 0.06934 0.0
O85 O 0.24745 0.57841 0.03325 0.0
O86 O 0.34131 0.65506 1.00479 0.0
O87 O 0.36414 0.58303 0.06122 0.0
Sc88 Sc 0.93667 0.4154 0.7513 0.0
Sc89 Sc 0.85259 0.43346 0.71353 0.0
Sc90 Sc 0.89558 0.51887 0.74497 0.0
O91 O 0.89545 0.45623 0.73626 0.0
C92 C 0.90974 0.47295 0.7936 0.0
C93 C 0.85084 0.36415 0.75257 0.0
C94 C 0.79635 0.49975 0.74175 0.0
C95 C 0.93213 0.37653 0.70062 0.0
C96 C 0.99531 0.49517 0.74297 0.0
C97 C 0.87718 0.522 0.6907 0.0
O98 O 0.92927 0.44189 0.78488 0.0
O99 O 0.8359 0.38228 0.73504 0.0
O100 O 0.82701 0.5232 0.74794 0.0
O101 O 0.94946 0.38179 0.72004 0.0
O102 O 0.96535 0.52235 0.74413 0.0
O103 O 0.86377 0.48415 0.6904 0.0
O104 O 0.98893 0.4556 0.74387 0.0
O105 O 0.89747 0.39426 0.69508 0.0
O106 O 0.89165 0.53967 0.70889 0.0
O107 O 0.88726 0.37203 0.76072 0.0
O108 O 0.89469 0.50301 0.7815 0.0
O109 O 0.80141 0.46678 0.72967 0.0
Sc110 Sc 0.83591 0.6882 0.49869 0.0
Sc111 Sc 0.81062 0.61022 0.45909 0.0
Sc112 Sc 0.73254 0.64577 0.49684 0.0
O113 O 0.79267 0.64864 0.48487 0.0
C114 C 0.7881 0.65484 0.54306 0.0
C115 C 0.88455 0.6 0.49356 0.0
C116 C 0.74679 0.54928 0.4861 0.0
C117 C 0.86935 0.69089 0.44868 0.0
C118 C 0.75221 0.74521 0.49884 0.0
C119 C 0.72337 0.63991 0.44119 0.0
O120 O 0.82022 0.6698 0.53286 0.0
O121 O 0.85759 0.58341 0.4802 0.0
O122 O 0.73364 0.57761 0.49975 0.0
O123 O 0.85685 0.7114 0.46605 0.0
O124 O 0.72594 0.71465 0.49688 0.0
O125 O 0.76297 0.63625 0.43778 0.0
O126 O 0.79209 0.74006 0.49986 0.0
O127 O 0.85771 0.65306 0.44496 0.0
O128 O 0.7069 0.6411 0.46136 0.0
O129 O 0.88383 0.63889 0.49939 0.0
O130 O 0.75351 0.64607 0.53268 0.0
O131 O 0.76959 0.55818 0.46882 0.0
Sc132 Sc 0.61603 0.49374 0.24337 0.0
Sc133 Sc 0.66301 0.56267 0.20378 0.0
Sc134 Sc 0.58678 0.60161 0.24779 0.0
O135 O 0.62176 0.55362 0.23184 0.0
C136 C 0.52065 0.52304 0.24755 0.0
C137 C 0.6217 0.48276 0.18764 0.0
C138 C 0.58982 0.63255 0.1967 0.0
C139 C 0.713 0.49479 0.23265 0.0
C140 C 0.61134 0.54899 0.29095 0.0
C141 C 0.68159 0.60326 0.24091 0.0
O142 O 0.54649 0.49379 0.24175 0.0
O143 O 0.62277 0.52242 0.18457 0.0
O144 O 0.568 0.62084 0.2139 0.0
O145 O 0.68371 0.49063 0.24739 0.0
O146 O 0.60327 0.58429 0.28169 0.0
O147 O 0.70464 0.60193 0.2235 0.0
O148 O 0.61477 0.5143 0.27968 0.0
O149 O 0.7057 0.51047 0.21289 0.0
O150 O 0.64784 0.58104 0.23949 0.0
O151 O 0.62171 0.46679 0.20793 0.0
O152 O 0.53241 0.56109 0.25057 0.0
O153 O 0.6269 0.61826 0.19242 0.0
Sc154 Sc 0.77318 0.36072 0.99554 0.0
Sc155 Sc 0.69389 0.40022 0.95983 0.0
Sc156 Sc 0.66979 0.31894 0.99776 0.0
O157 O 0.71265 0.35926 0.98427 0.0
C158 C 0.7532 0.26149 0.99533 0.0
C159 C 0.78049 0.37366 0.93994 0.0
C160 C 0.6342 0.3204 0.94823 0.0
C161 C 0.75869 0.45795 0.98797 0.0
C162 C 0.71946 0.34861 0.0423 0.0
C163 C 0.62153 0.4076 0.99554 0.0
O164 O 0.7796 0.29194 0.99343 0.0
O165 O 0.74062 0.37632 0.93713 0.0
O166 O 0.64764 0.29841 0.96484 0.0
O167 O 0.77169 0.42806 1.00058 0.0
O168 O 0.68671 0.33486 0.03218 0.0
O169 O 0.6481 0.42524 0.98237 0.0
O170 O 0.7538 0.35742 0.03169 0.0
O171 O 0.73578 0.45139 0.97041 0.0
O172 O 0.62203 0.36817 1.00013 0.0
O173 O 0.7975 0.36953 0.9599 0.0
O174 O 0.71348 0.26689 0.99732 0.0
O175 O 0.64584 0.35851 0.94528 0.0
Sc176 Sc 0.60818 0.99375 0.78496 0.0
Sc177 Sc 0.63829 0.05906 0.82993 0.0
Sc178 Sc 0.57198 0.09763 0.78838 0.0
O179 O 0.60613 0.05008 0.80087 0.0
C180 C 0.61029 0.06112 0.74311 0.0
C181 C 0.7023 0.00288 0.80006 0.0
C182 C 0.65717 0.1423 0.80596 0.0
C183 C 0.60849 0.9703 0.83929 0.0
C184 C 0.51238 0.01725 0.77842 0.0
C185 C 0.55599 0.11674 0.83885 0.0
O186 O 0.60763 0.0228 0.75022 0.0
O187 O 0.69015 0.0174 0.81941 0.0
O188 O 0.61937 0.14414 0.79824 0.0
O189 O 0.61335 0.95921 0.81825 0.0
O190 O 0.52189 0.05627 0.77684 0.0
O191 O 0.59345 0.10504 0.84396 0.0
O192 O 0.53897 0.98913 0.78483 0.0
O193 O 0.60373 0.0087 0.84488 0.0
O194 O 0.53874 0.10591 0.82012 0.0
O195 O 0.67647 0.99665 0.78366 0.0
O196 O 0.60308 0.09245 0.75614 0.0
O197 O 0.67243 0.10953 0.81528 0.0
Sc198 Sc 0.77487 0.8609 0.02926 0.0
Sc199 Sc 0.69885 0.90006 0.06777 0.0
Sc200 Sc 0.67124 0.81928 0.02958 0.0
O201 O 0.7153 0.85954 0.04234 0.0
C202 C 0.71779 0.84894 0.98385 0.0
C203 C 0.76112 0.95868 0.03821 0.0
C204 C 0.62256 0.90752 0.03383 0.0
C205 C 0.78784 0.87007 0.08455 0.0
C206 C 0.75401 0.76144 0.02958 0.0
C207 C 0.64116 0.81976 0.08083 0.0
O208 O 0.75215 0.86012 0.99372 0.0
O209 O 0.73746 0.95213 0.05545 0.0
O210 O 0.62415 0.86893 0.02759 0.0
O211 O 0.80263 0.86536 0.06418 0.0
O212 O 0.71414 0.76676 0.02986 0.0
O213 O 0.65464 0.85706 0.08438 0.0
O214 O 0.78054 0.79197 0.02961 0.0
O215 O 0.74916 0.87789 0.08881 0.0
O216 O 0.64977 0.79944 0.06271 0.0
O217 O 0.7749 0.92881 0.02577 0.0
O218 O 0.68662 0.83354 0.99469 0.0
O219 O 0.64899 0.92421 0.04747 0.0
Sc220 Sc 0.91753 0.88508 0.28974 0.0
Sc221 Sc 0.84765 0.92246 0.32979 0.0
Sc222 Sc 0.88558 0.99057 0.28766 0.0
O223 O 0.88379 0.93304 0.30225 0.0
C224 C 0.9811 0.96364 0.28223 0.0
C225 C 0.92794 0.86281 0.34016 0.0
C226 C 0.88138 0.00951 0.34267 0.0
C227 C 0.82923 0.8417 0.30331 0.0
C228 C 0.88402 0.92594 0.24444 0.0
C229 C 0.78939 0.98486 0.30021 0.0
O230 O 0.97015 0.92507 0.28018 0.0
O231 O 0.88985 0.87411 0.3441 0.0
O232 O 0.8805 0.02257 0.32178 0.0
O233 O 0.86809 0.83898 0.29743 0.0
O234 O 0.88689 0.96371 0.25241 0.0
O235 O 0.79856 0.9668 0.3191 0.0
O236 O 0.88964 0.89351 0.25688 0.0
O237 O 0.81358 0.87458 0.31232 0.0
O238 O 0.81719 0.99169 0.28486 0.0
O239 O 0.94731 0.87437 0.3222 0.0
O240 O 0.9551 0.99239 0.28858 0.0
O241 O 0.88111 0.97045 0.34758 0.0
Sc242 Sc 0.72858 0.14605 0.53171 0.0
Sc243 Sc 0.80336 0.10745 0.5706 0.0
Sc244 Sc 0.83326 0.18362 0.53077 0.0
O245 O 0.78803 0.14633 0.54447 0.0
C246 C 0.78717 0.15088 0.48613 0.0
C247 C 0.74089 0.04879 0.54138 0.0
C248 C 0.88082 0.09595 0.5387 0.0
C249 C 0.71541 0.13827 0.58708 0.0
C250 C 0.75141 0.24362 0.52793 0.0
C251 C 0.86157 0.18884 0.58153 0.0
O252 O 0.75114 0.14676 0.49596 0.0
O253 O 0.76232 0.05588 0.55946 0.0
O254 O 0.8811 0.13479 0.53301 0.0
O255 O 0.70061 0.14065 0.56659 0.0
O256 O 0.79068 0.2357 0.5259 0.0
O257 O 0.84954 0.15106 0.58537 0.0
O258 O 0.72388 0.21525 0.53259 0.0
O259 O 0.75452 0.13343 0.59142 0.0
O260 O 0.85054 0.20884 0.56366 0.0
O261 O 0.72906 0.0783 0.52814 0.0
O262 O 0.8204 0.16189 0.4968 0.0
O263 O 0.85174 0.07946 0.55068 0.0
Sc264 Sc 0.42989 0.90793 0.2531 0.0
Sc265 Sc 0.3593 0.94033 0.21128 0.0
Sc266 Sc 0.38473 0.00873 0.25635 0.0
O267 O 0.39158 0.95257 0.24026 0.0
C268 C 0.38958 0.94246 0.29861 0.0
C269 C 0.34899 0.85537 0.23658 0.0
C270 C 0.29054 0.99008 0.24192 0.0
C271 C 0.44724 0.89159 0.20166 0.0
C272 C 0.48295 0.9929 0.2621 0.0
C273 C 0.38217 0.03313 0.20213 0.0
O274 O 0.40049 0.91182 0.28589 0.0
O275 O 0.33209 0.88558 0.22573 0.0
O276 O 0.31653 0.00104 0.25753 0.0
O277 O 0.46258 0.90023 0.2212 0.0
O278 O 0.45346 0.01892 0.2569 0.0
O279 O 0.38496 0.99514 0.19539 0.0
O280 O 0.47728 0.95317 0.26317 0.0
O281 O 0.40935 0.90131 0.1962 0.0
O282 O 0.37835 0.0432 0.22334 0.0
O283 O 0.38614 0.85729 0.24505 0.0
O284 O 0.38701 0.98041 0.29106 0.0
O285 O 0.30295 0.97433 0.2229 0.0
Sc286 Sc 0.34259 0.18467 1.00303 0.0
Sc287 Sc 0.30628 0.11531 0.9619 0.0
Sc288 Sc 0.239 0.14609 1.0062 0.0
O289 O 0.29567 0.14906 0.99044 0.0
C290 C 0.30546 0.14697 0.04858 0.0
C291 C 0.38956 0.09986 0.98757 0.0
C292 C 0.25041 0.05133 0.99189 0.0
C293 C 0.36217 0.19858 0.95211 0.0
C294 C 0.26087 0.24284 1.01217 0.0
C295 C 0.21618 0.14452 0.95165 0.0
O296 O 0.33687 0.15578 0.03587 0.0
O297 O 0.35767 0.08384 0.97765 0.0
O298 O 0.24242 0.07777 1.00777 0.0
O299 O 0.35192 0.21615 0.97086 0.0
O300 O 0.23307 0.21526 1.00652 0.0
O301 O 0.25463 0.14586 0.9454 0.0
O302 O 0.30024 0.23455 1.01329 0.0
O303 O 0.35078 0.16094 0.94733 0.0
O304 O 0.20516 0.14109 0.97277 0.0
O305 O 0.39043 0.13792 0.99475 0.0
O306 O 0.2673 0.14695 0.04101 0.0
O307 O 0.26625 0.06279 0.97277 0.0
Sc308 Sc 0.10785 0.99104 0.75703 0.0
Sc309 Sc 0.13806 0.0553 0.71144 0.0
Sc310 Sc 0.06847 0.09369 0.75188 0.0
O311 O 0.10454 0.04646 0.74021 0.0
C312 C 0.01093 0.0122 0.7625 0.0
C313 C 0.11008 0.96453 0.70305 0.0
C314 C 0.05406 0.10944 0.70065 0.0
C315 C 0.20257 0.00217 0.74262 0.0
C316 C 0.10647 0.06018 0.7981 0.0
C317 C 0.15271 0.1405 0.7351 0.0
O318 O 0.03869 0.98446 0.75712 0.0
O319 O 0.10771 0.00239 0.69608 0.0
O320 O 0.0366 0.10017 0.71957 0.0
O321 O 0.17615 0.99522 0.75865 0.0
O322 O 0.09788 0.09065 0.78474 0.0
O323 O 0.16915 0.10809 0.72597 0.0
O324 O 0.10627 0.0216 0.79129 0.0
O325 O 0.19107 0.01669 0.72319 0.0
O326 O 0.11468 0.14136 0.74244 0.0
O327 O 0.11378 0.95507 0.72435 0.0
O328 O 0.01902 0.05158 0.76312 0.0
O329 O 0.09187 0.09817 0.69606 0.0
Sc330 Sc 0.26456 0.85964 0.50838 0.0
Sc331 Sc 0.19704 0.8915 0.46443 0.0
Sc332 Sc 0.16189 0.81866 0.50393 0.0
O333 O 0.20816 0.85622 0.49233 0.0
C334 C 0.24472 0.76208 0.51254 0.0
C335 C 0.28741 0.86305 0.45384 0.0
C336 C 0.14262 0.80823 0.45283 0.0
C337 C 0.25257 0.95463 0.49511 0.0
C338 C 0.19729 0.85519 0.55036 0.0
C339 C 0.11377 0.90391 0.49056 0.0
O340 O 0.27192 0.79085 0.50809 0.0
O341 O 0.249 0.86261 0.44745 0.0
O342 O 0.15361 0.78936 0.47105 0.0
O343 O 0.26051 0.92771 0.51068 0.0
O344 O 0.16664 0.8451 0.53739 0.0
O345 O 0.14538 0.92107 0.48094 0.0
O346 O 0.23556 0.8575 0.54303 0.0
O347 O 0.23653 0.94388 0.47592 0.0
O348 O 0.11327 0.86523 0.49668 0.0
O349 O 0.29846 0.86562 0.47501 0.0
O350 O 0.20507 0.76893 0.51319 0.0
O351 O 0.15305 0.84646 0.44902 0.0
H352 H 0.25113 0.45407 0.25485 0.0
H353 H 0.47321 0.56464 0.27865 0.0
H354 H 0.28094 0.52839 0.31476 0.0
H355 H 0.46566 0.45967 0.2316 0.0
H356 H 0.40044 0.55286 0.28961 0.0
H357 H 0.32668 0.45547 0.24414 0.0
C358 C 0.27342 0.4702 0.26591 0.0
C359 C 0.25923 0.49145 0.28571 0.0
C360 C 0.41438 0.53213 0.27692 0.0
C361 C 0.34559 0.49347 0.27335 0.0
C362 C 0.45616 0.53904 0.27045 0.0
C363 C 0.47585 0.5134 0.25392 0.0
C364 C 0.39099 0.49948 0.26673 0.0
C365 C 0.45183 0.48028 0.24436 0.0
C366 C 0.31655 0.47098 0.25974 0.0
C367 C 0.28984 0.51183 0.29927 0.0
N368 N 0.41041 0.4745 0.25072 0.0
N369 N 0.33111 0.5126 0.29274 0.0
H370 H 0.2317 0.72552 0.55348 0.0
H371 H 0.28108 0.49171 0.50931 0.0
H372 H 0.28578 0.70095 0.48711 0.0
H373 H 0.23863 0.52187 0.57768 0.0
H374 H 0.2887 0.56742 0.50146 0.0
H375 H 0.24048 0.65118 0.56343 0.0
C376 C 0.24635 0.70443 0.54118 0.0
C377 C 0.25845 0.71935 0.51956 0.0
C378 C 0.27814 0.55741 0.51824 0.0
C379 C 0.26735 0.63351 0.53049 0.0
C380 C 0.27377 0.5141 0.52278 0.0
C381 C 0.25885 0.50009 0.54419 0.0
C382 C 0.26741 0.58709 0.53519 0.0
C383 C 0.24997 0.53086 0.56088 0.0
C384 C 0.25113 0.66188 0.54679 0.0
C385 C 0.27663 0.6907 0.50408 0.0
N386 N 0.25407 0.57267 0.55597 0.0
N387 N 0.28006 0.64894 0.50974 0.0
H388 H 0.25647 0.5784 0.77438 0.0
H389 H 0.06114 0.45314 0.72391 0.0
H390 H 0.23611 0.44474 0.78384 0.0
H391 H 0.03285 0.56568 0.76275 0.0
H392 H 0.13592 0.46189 0.73306 0.0
H393 H 0.1832 0.58457 0.75948 0.0
C394 C 0.23668 0.55051 0.77335 0.0
C395 C 0.25223 0.51105 0.78056 0.0
C396 C 0.11345 0.4852 0.73915 0.0
C397 C 0.16987 0.51771 0.76297 0.0
C398 C 0.07077 0.48041 0.73388 0.0
C399 C 0.04049 0.50835 0.74289 0.0
C400 C 0.12641 0.51838 0.7534 0.0
C401 C 0.0551 0.54337 0.7555 0.0
C402 C 0.19508 0.5541 0.76492 0.0
C403 C 0.22537 0.47586 0.77879 0.0
N404 N 0.09717 0.54711 0.76073 0.0
N405 N 0.18586 0.47996 0.76996 0.0
H406 H 0.28198 0.28102 0.05176 0.0
H407 H 0.22148 0.51374 1.01038 0.0
H408 H 0.21401 0.30335 0.98898 0.0
H409 H 0.27194 0.48422 0.07719 0.0
H410 H 0.21456 0.43785 1.00257 0.0
H411 H 0.27407 0.35532 0.06189 0.0
C412 C 0.26463 0.3016 0.04028 0.0
C413 C 0.24839 0.28594 0.01958 0.0
C414 C 0.22672 0.44804 0.01901 0.0
C415 C 0.24021 0.37197 0.03075 0.0
C416 C 0.23073 0.49145 0.02352 0.0
C417 C 0.2476 0.50576 0.04448 0.0
C418 C 0.23989 0.41849 0.0355 0.0
C419 C 0.25895 0.47507 0.06076 0.0
C420 C 0.26026 0.34416 0.04602 0.0
C421 C 0.22654 0.31407 1.00523 0.0
N422 N 0.2552 0.43318 0.05585 0.0
N423 N 0.22356 0.35592 1.01094 0.0
H424 H 0.55808 0.46199 0.80767 0.0
H425 H 0.75192 0.57512 0.7449 0.0
H426 H 0.53376 0.56451 0.7609 0.0
H427 H 0.74327 0.44198 0.75967 0.0
H428 H 0.6785 0.58404 0.75916 0.0
H429 H 0.63366 0.46908 0.80032 0.0
C430 C 0.56878 0.48676 0.79624 0.0
C431 C 0.53952 0.51235 0.78466 0.0
C432 C 0.69303 0.55306 0.75934 0.0
C433 C 0.62632 0.52016 0.77587 0.0
C434 C 0.73473 0.54797 0.7513 0.0
C435 C 0.75337 0.50766 0.75093 0.0
C436 C 0.6708 0.51779 0.76769 0.0
C437 C 0.7299 0.47347 0.75938 0.0
C438 C 0.61193 0.49059 0.79195 0.0
C439 C 0.5553 0.54416 0.77017 0.0
N440 N 0.69012 0.47936 0.7675 0.0
N441 N 0.59779 0.54678 0.76586 0.0
H442 H 0.70894 0.30478 0.55317 0.0
H443 H 0.75966 0.48113 0.45805 0.0
H444 H 0.76627 0.28089 0.4875 0.0
H445 H 0.71395 0.51331 0.5255 0.0
H446 H 0.75215 0.40664 0.46738 0.0
H447 H 0.70041 0.37986 0.54231 0.0
C448 C 0.71874 0.31515 0.53631 0.0
C449 C 0.7382 0.28674 0.52114 0.0
C450 C 0.74345 0.42985 0.48017 0.0
C451 C 0.72915 0.37205 0.50873 0.0
C452 C 0.74771 0.47262 0.47481 0.0
C453 C 0.73776 0.50386 0.49103 0.0
C454 C 0.72936 0.41766 0.50203 0.0
C455 C 0.72209 0.49046 0.51242 0.0
C456 C 0.71424 0.35796 0.53018 0.0
C457 C 0.75108 0.30182 0.49967 0.0
N458 N 0.71875 0.44841 0.51738 0.0
N459 N 0.7465 0.34322 0.49418 0.0
H460 H 0.7429 0.48043 0.2759 0.0
H461 H 0.98612 0.44984 0.2403 0.0
H462 H 0.78441 0.48494 0.20551 0.0
H463 H 0.94605 0.50022 0.3053 0.0
H464 H 0.91129 0.44353 0.22874 0.0
H465 H 0.81602 0.46929 0.28793 0.0
C466 C 0.76723 0.47847 0.26287 0.0
C467 C 0.7572 0.48381 0.23957 0.0
C468 C 0.91892 0.45499 0.24573 0.0
C469 C 0.84158 0.47081 0.25346 0.0
C470 C 0.96152 0.45793 0.25246 0.0
C471 C 0.97218 0.47483 0.27395 0.0
C472 C 0.88684 0.46856 0.26073 0.0
C473 C 0.93913 0.48637 0.28875 0.0
C474 C 0.80911 0.47227 0.26983 0.0
C475 C 0.79053 0.4812 0.22364 0.0
N476 N 0.89806 0.48307 0.28187 0.0
N477 N 0.8312 0.47494 0.23086 0.0
H478 H 0.77219 0.48816 0.03123 0.0
H479 H 0.80319 0.72976 0.99524 0.0
H480 H 0.76529 0.52866 0.9608 0.0
H481 H 0.73503 0.69315 0.05597 0.0
H482 H 0.81171 0.65456 0.98529 0.0
H483 H 0.78019 0.56212 0.04306 0.0
C484 C 0.7731 0.51251 0.01821 0.0
C485 C 0.76788 0.50219 0.99497 0.0
C486 C 0.79577 0.6631 1.00105 0.0
C487 C 0.77767 0.58674 1.00845 0.0
C488 C 0.7914 0.70584 1.00688 0.0
C489 C 0.76881 0.71749 0.02658 0.0
C490 C 0.77817 0.63195 1.01529 0.0
C491 C 0.75302 0.68536 0.04076 0.0
C492 C 0.77748 0.55466 0.02501 0.0
C493 C 0.76893 0.5352 0.97889 0.0
N494 N 0.75801 0.64405 0.03486 0.0
N495 N 0.7738 0.576 0.98592 0.0
H496 H 0.76816 0.01907 0.82948 0.0
H497 H 0.95408 0.95773 0.74146 0.0
H498 H 0.74239 0.96968 0.76195 0.0
H499 H 0.96891 0.04 0.79976 0.0
H500 H 0.87861 0.94854 0.75167 0.0
H501 H 0.8438 0.01333 0.82181 0.0
C502 C 0.77827 0.00657 0.8131 0.0
C503 C 0.74849 0.9952 0.7963 0.0
C504 C 0.89865 0.96812 0.76235 0.0
C505 C 0.83586 0.98862 0.78733 0.0
C506 C 0.9417 0.97304 0.75665 0.0
C507 C 0.96768 0.99969 0.76979 0.0
C508 C 0.88192 0.9895 0.7815 0.0
C509 C 0.94994 0.0193 0.78911 0.0
C510 C 0.82165 0.00343 0.80869 0.0
C511 C 0.76401 0.97911 0.7754 0.0
N512 N 0.90839 0.01387 0.79433 0.0
N513 N 0.80655 0.97652 0.77147 0.0
H514 H 0.76709 0.02878 0.06577 0.0
H515 H 0.73562 0.19417 0.96785 0.0
H516 H 0.7745 0.98992 0.99506 0.0
H517 H 0.80123 0.22883 0.02973 0.0
H518 H 0.74594 0.11926 0.97738 0.0
H519 H 0.77522 0.10261 0.05362 0.0
C520 C 0.77082 0.03574 0.04772 0.0
C521 C 0.77016 0.00308 0.03142 0.0
C522 C 0.75898 0.14323 0.9886 0.0
C523 C 0.77857 0.08754 1.0174 0.0
C524 C 0.75334 0.18589 0.98309 0.0
C525 C 0.76841 0.21757 0.9978 0.0
C526 C 0.77833 0.13221 1.00942 0.0
C527 C 0.79001 0.20527 0.01771 0.0
C528 C 0.77564 0.07783 0.04082 0.0
C529 C 0.77512 0.01402 1.00824 0.0
N530 N 0.79362 0.16356 0.02319 0.0
N531 N 0.77836 0.05532 1.00189 0.0
H532 H 0.54481 0.02812 0.23493 0.0
H533 H 0.72231 0.9817 0.33004 0.0
H534 H 0.51892 0.98732 0.30383 0.0
H535 H 0.75282 0.01383 0.26013 0.0
H536 H 0.64773 0.99396 0.32176 0.0
H537 H 0.62052 0.03417 0.24484 0.0
C538 C 0.55491 0.0219 0.25234 0.0
C539 C 0.52563 0.00786 0.26872 0.0
C540 C 0.67066 0.99868 0.30821 0.0
C541 C 0.61198 0.01338 0.28002 0.0
C542 C 0.71348 0.99165 0.31295 0.0
C543 C 0.74422 0.99634 0.29574 0.0
C544 C 0.65796 0.01034 0.28602 0.0
C545 C 0.73041 0.00964 0.27396 0.0
C546 C 0.59813 0.02481 0.25793 0.0
C547 C 0.54046 0.99882 0.29082 0.0
N548 N 0.68835 0.01579 0.26968 0.0
N549 N 0.58245 0.00147 0.29576 0.0
H550 H 0.70475 0.77544 0.53421 0.0
H551 H 0.72814 0.01803 0.49813 0.0
H552 H 0.76833 0.81428 0.47247 0.0
H553 H 0.73572 0.97782 0.5686 0.0
H554 H 0.72223 0.94395 0.48631 0.0
H555 H 0.69487 0.85031 0.54455 0.0
C556 C 0.71525 0.79976 0.52247 0.0
C557 C 0.73679 0.78885 0.5023 0.0
C558 C 0.72466 0.95146 0.50437 0.0
C559 C 0.726 0.87409 0.51405 0.0
C560 C 0.72781 0.99372 0.51117 0.0
C561 C 0.73258 0.00426 0.53443 0.0
C562 C 0.72533 0.91936 0.52092 0.0
C563 C 0.73234 0.9712 0.5505 0.0
C564 C 0.71012 0.84234 0.52851 0.0
C565 C 0.75105 0.8215 0.48801 0.0
N566 N 0.72872 0.93025 0.54346 0.0
N567 N 0.74534 0.86263 0.49412 0.0
H568 H 0.03454 0.02677 0.29893 0.0
H569 H 0.22548 0.95903 0.21568 0.0
H570 H 0.02938 0.92417 0.25035 0.0
H571 H 0.24859 0.02694 0.2786 0.0
H572 H 0.15016 0.95765 0.22468 0.0
H573 H 0.10967 0.03808 0.28852 0.0
C574 C 0.04897 0.00695 0.28598 0.0
C575 C 0.02558 0.97424 0.27565 0.0
C576 C 0.17161 0.97311 0.23649 0.0
C577 C 0.11105 0.98729 0.26349 0.0
C578 C 0.21481 0.97411 0.2313 0.0
C579 C 0.2439 0.99295 0.24641 0.0
C580 C 0.15671 0.99134 0.25692 0.0
C581 C 0.22758 0.01187 0.26644 0.0
C582 C 0.09184 0.01326 0.28013 0.0
C583 C 0.04608 0.94945 0.259 0.0
N584 N 0.18517 0.01051 0.27113 0.0
N585 N 0.08726 0.95654 0.25346 0.0
H586 H 0.26637 0.98544 0.96263 0.0
H587 H 0.21217 0.79916 0.05147 0.0
H588 H 0.21957 0.01126 0.03069 0.0
H589 H 0.29236 0.78616 0.99217 0.0
H590 H 0.20159 0.87448 0.04165 0.0
H591 H 0.26254 0.91009 0.97067 0.0
C592 C 0.25487 0.9754 0.97923 0.0
C593 C 0.24364 0.00517 0.99604 0.0
C594 C 0.22107 0.85487 0.0307 0.0
C595 C 0.2393 0.91796 1.00544 0.0
C596 C 0.2268 0.8119 0.03619 0.0
C597 C 0.25326 0.78644 0.02264 0.0
C598 C 0.24138 0.87204 1.01133 0.0
C599 C 0.27189 0.80467 1.00317 0.0
C600 C 0.25281 0.93215 0.98384 0.0
C601 C 0.2288 0.98967 1.0172 0.0
N602 N 0.26564 0.84609 0.99816 0.0
N603 N 0.22729 0.9472 0.02135 0.0
H604 H 0.4706 0.04535 0.74114 0.0
H605 H 0.24198 0.96997 0.7812 0.0
H606 H 0.45464 0.96396 0.79963 0.0
H607 H 0.26911 0.01987 0.71399 0.0
H608 H 0.31841 0.96627 0.7888 0.0
H609 H 0.39633 0.03524 0.73131 0.0
C610 C 0.45142 0.02486 0.75179 0.0
C611 C 0.46885 0.00545 0.77122 0.0
C612 C 0.30754 0.97755 0.77232 0.0
C613 C 0.3829 0.99435 0.76032 0.0
C614 C 0.26386 0.97975 0.76794 0.0
C615 C 0.24875 0.99554 0.74693 0.0
C616 C 0.33642 0.99166 0.75568 0.0
C617 C 0.27889 0.00764 0.73047 0.0
C618 C 0.40892 0.01908 0.74617 0.0
C619 C 0.4425 0.97923 0.7844 0.0
N620 N 0.32099 0.00583 0.73529 0.0
N621 N 0.4006 0.97492 0.77891 0.0
H622 H 0.21803 0.2232 0.49178 0.0
H623 H 0.28251 0.99303 0.53453 0.0
H624 H 0.28636 0.20434 0.55481 0.0
H625 H 0.23882 0.02146 0.46619 0.0
H626 H 0.28715 0.06914 0.54242 0.0
H627 H 0.22852 0.14911 0.48207 0.0
C628 C 0.23586 0.20339 0.50345 0.0
C629 C 0.25144 0.21991 0.52408 0.0
C630 C 0.27703 0.05862 0.52563 0.0
C631 C 0.26278 0.13419 0.51336 0.0
C632 C 0.27433 0.01512 0.52109 0.0
C633 C 0.2599 0.0005 0.49968 0.0
C634 C 0.26495 0.08779 0.50872 0.0
C635 C 0.24982 0.03087 0.483 0.0
C636 C 0.2418 0.16098 0.49792 0.0
C637 C 0.27418 0.19285 0.53863 0.0
N638 N 0.25219 0.07279 0.48794 0.0
N639 N 0.27867 0.15106 0.53315 0.0
H640 H 0.22897 0.65257 0.30699 0.0
H641 H 0.273 0.83534 0.21713 0.0
H642 H 0.14194 0.68386 0.25237 0.0
H643 H 0.36504 0.79058 0.26626 0.0
H644 H 0.22516 0.77905 0.22878 0.0
H645 H 0.27872 0.7037 0.29207 0.0
C646 C 0.22011 0.6704 0.29191 0.0
C647 C 0.18112 0.66389 0.28089 0.0
C648 C 0.25597 0.78132 0.23684 0.0
C649 C 0.23842 0.72243 0.26362 0.0
C650 C 0.28335 0.81339 0.23021 0.0
C651 C 0.32283 0.81796 0.24101 0.0
C652 C 0.26812 0.7539 0.25446 0.0
C653 C 0.33479 0.78839 0.2576 0.0
C654 C 0.24878 0.69944 0.28331 0.0
C655 C 0.17156 0.68799 0.26144 0.0
N656 N 0.30727 0.7578 0.26401 0.0
N657 N 0.20014 0.71633 0.25338 0.0
H658 H 0.1013 0.49233 0.56143 0.0
H659 H 0.89054 0.51489 0.48799 0.0
H660 H 0.03754 0.38819 0.52803 0.0
H661 H 0.95168 0.62056 0.52144 0.0
H662 H 0.94258 0.46788 0.5044 0.0
H663 H 0.0446 0.53922 0.54924 0.0
C664 C 0.07524 0.47921 0.55167 0.0
C665 C 0.07435 0.43632 0.5455 0.0
C666 C 0.94471 0.50132 0.5082 0.0
C667 C 0.00965 0.48989 0.5315 0.0
C668 C 0.91506 0.52835 0.49873 0.0
C669 C 0.91696 0.5719 0.5032 0.0
C670 C 0.97671 0.51781 0.52219 0.0
C671 C 0.94922 0.58725 0.51745 0.0
C672 C 0.04293 0.50607 0.54472 0.0
C673 C 0.03969 0.42107 0.53302 0.0
N674 N 0.97806 0.56013 0.52642 0.0
N675 N 0.00882 0.44798 0.52628 0.0
H676 H 0.36734 0.30512 0.75201 0.0
H677 H 0.13057 0.21677 0.75359 0.0
H678 H 0.26402 0.36043 0.79024 0.0
H679 H 0.23573 0.14996 0.72296 0.0
H680 H 0.17751 0.276 0.76154 0.0
H681 H 0.3178 0.25328 0.73609 0.0
C682 C 0.33435 0.30636 0.75703 0.0
C683 C 0.31992 0.33656 0.77277 0.0
C684 C 0.19022 0.24844 0.75295 0.0
C685 C 0.26339 0.27813 0.75455 0.0
C686 C 0.16343 0.21464 0.74841 0.0
C687 C 0.17944 0.1781 0.73799 0.0
C688 C 0.23327 0.24551 0.74713 0.0
C689 C 0.22217 0.17732 0.73133 0.0
C690 C 0.30613 0.27694 0.74792 0.0
C691 C 0.27677 0.33717 0.77852 0.0
N692 N 0.24777 0.21043 0.73624 0.0
N693 N 0.2501 0.30826 0.76947 0.0
H694 H 0.55306 0.38447 0.02179 0.0
H695 H 0.47175 0.62239 0.03258 0.0
H696 H 0.61809 0.49334 0.99412 0.0
H697 H 0.4033 0.5149 0.05938 0.0
H698 H 0.52948 0.5755 0.02186 0.0
H699 H 0.5007 0.43192 0.0389 0.0
C700 C 0.55634 0.41823 0.01933 0.0
C701 C 0.5896 0.43491 1.00626 0.0
C702 C 0.50191 0.56221 0.03022 0.0
C703 C 0.5304 0.48906 0.0258 0.0
C704 C 0.46896 0.58899 0.03633 0.0
C705 C 0.43248 0.57246 0.0466 0.0
C706 C 0.49816 0.51863 0.03429 0.0
C707 C 0.43073 0.52897 0.05129 0.0
C708 C 0.52659 0.44526 0.02913 0.0
C709 C 0.59263 0.47892 1.00377 0.0
N710 N 0.46302 0.50344 0.04489 0.0
N711 N 0.5633 0.50441 1.01337 0.0
H712 H 0.76542 0.36566 0.75191 0.0
H713 H 0.74069 0.14882 0.81783 0.0
H714 H 0.8713 0.29895 0.78164 0.0
H715 H 0.6368 0.22005 0.78897 0.0
H716 H 0.78791 0.20787 0.81 0.0
H717 H 0.71725 0.31732 0.77055 0.0
C718 C 0.77855 0.3406 0.76235 0.0
C719 C 0.82241 0.33549 0.76481 0.0
C720 C 0.75469 0.21071 0.80564 0.0
C721 C 0.76726 0.27987 0.78622 0.0
C722 C 0.72768 0.17701 0.81004 0.0
C723 C 0.68489 0.17922 0.80355 0.0
C724 C 0.73875 0.24664 0.79463 0.0
C725 C 0.6697 0.21667 0.79384 0.0
C726 C 0.75096 0.31317 0.77314 0.0
C727 C 0.83764 0.30339 0.77907 0.0
N728 N 0.69678 0.24877 0.78944 0.0
N729 N 0.80996 0.27617 0.78902 0.0
H730 H 0.74321 0.84161 0.29888 0.0
H731 H 0.73714 0.59418 0.27506 0.0
H732 H 0.85166 0.75863 0.30094 0.0
H733 H 0.64664 0.68118 0.24647 0.0
H734 H 0.76732 0.65168 0.29789 0.0
H735 H 0.69764 0.78042 0.29156 0.0
C736 C 0.75734 0.81046 0.29802 0.0
C737 C 0.80131 0.80507 0.30007 0.0
C738 C 0.74015 0.65799 0.2871 0.0
C739 C 0.74947 0.73545 0.29224 0.0
C740 C 0.72284 0.62528 0.27427 0.0
C741 C 0.68981 0.6336 0.25902 0.0
C742 C 0.72454 0.69912 0.28421 0.0
C743 C 0.6722 0.67404 0.25821 0.0
C744 C 0.73133 0.77572 0.29393 0.0
C745 C 0.81802 0.76417 0.29897 0.0
N746 N 0.69036 0.70579 0.27041 0.0
N747 N 0.79204 0.73086 0.29502 0.0
H748 H 0.55299 0.88542 1.00814 0.0
H749 H 0.46625 0.12228 1.0056 0.0
H750 H 0.61729 0.99289 0.03794 0.0
H751 H 0.39729 0.01571 0.978 0.0
H752 H 0.52535 0.07558 1.01406 0.0
H753 H 0.49828 0.93316 0.99364 0.0
C754 C 0.55563 0.91894 1.0116 0.0
C755 C 0.58938 0.93511 0.02452 0.0
C756 C 0.49735 0.06245 1.00605 0.0
C757 C 0.52747 0.9896 1.00797 0.0
C758 C 0.46359 0.08911 1.00123 0.0
C759 C 0.42663 0.07278 0.99134 0.0
C760 C 0.49397 0.01916 1.00104 0.0
C761 C 0.4251 0.02961 0.98581 0.0
C762 C 0.52452 0.94614 1.00331 0.0
C763 C 0.59151 0.97885 0.02836 0.0
N764 N 0.45824 0.00417 0.99091 0.0
N765 N 0.56088 0.0045 0.02019 0.0
H766 H 0.04083 0.88166 0.51283 0.0
H767 H 0.94904 0.11669 0.51191 0.0
H768 H 0.10266 0.98694 0.47953 0.0
H769 H 0.88997 0.01169 0.5469 0.0
H770 H 0.00402 0.06888 0.49812 0.0
H771 H 0.98255 0.92823 0.52327 0.0
C772 C 0.04204 0.91446 0.50759 0.0
C773 C 0.0768 0.93052 0.49548 0.0
C774 C 0.97896 0.05641 0.50882 0.0
C775 C 0.01053 0.98391 0.50747 0.0
C776 C 0.94768 0.08368 0.51675 0.0
C777 C 0.91501 0.06822 0.53067 0.0
C778 C 0.97741 0.01351 0.51488 0.0
C779 C 0.91465 0.02511 0.53629 0.0
C780 C 0.00882 0.94105 0.51359 0.0
C781 C 0.07663 0.97324 0.48904 0.0
N782 N 0.94544 0.99927 0.52839 0.0
N783 N 0.04406 0.99855 0.49524 0.0
H784 H 0.06873 0.44257 0.37003 0.0
H785 H 0.2515 0.36396 0.45514 0.0
H786 H 0.193 0.40941 0.34577 0.0
H787 H 0.11916 0.37285 0.47314 0.0
H788 H 0.23226 0.37951 0.41501 0.0
H789 H 0.08684 0.4138 0.40767 0.0
C790 C 0.09925 0.42758 0.37241 0.0
C791 C 0.12886 0.42709 0.35456 0.0
C792 C 0.20756 0.37774 0.42783 0.0
C793 C 0.15117 0.39644 0.39814 0.0
C794 C 0.21859 0.36912 0.45077 0.0
C795 C 0.1871 0.36702 0.46777 0.0
C796 C 0.16481 0.38469 0.42189 0.0
C797 C 0.14484 0.37389 0.46088 0.0
C798 C 0.10997 0.41174 0.39402 0.0
C799 C 0.16879 0.4091 0.3589 0.0
N800 N 0.13515 0.3825 0.43871 0.0
N801 N 0.17903 0.39503 0.3803 0.0
H802 H 0.33448 0.49487 0.71378 0.0
H803 H 0.36209 0.39657 0.59103 0.0
H804 H 0.45298 0.43085 0.70193 0.0
H805 H 0.26026 0.3597 0.63622 0.0
H806 H 0.39907 0.42796 0.62439 0.0
H807 H 0.30883 0.46866 0.67667 0.0
C808 C 0.35568 0.47666 0.70304 0.0
C809 C 0.39596 0.46511 0.71099 0.0
C810 C 0.36875 0.41259 0.62677 0.0
C811 C 0.36677 0.43515 0.66854 0.0
C812 C 0.34784 0.39428 0.60785 0.0
C813 C 0.3077 0.37551 0.6106 0.0
C814 C 0.34875 0.41308 0.64829 0.0
C815 C 0.29078 0.37407 0.63294 0.0
C816 C 0.34087 0.46137 0.682 0.0
C817 C 0.4217 0.44051 0.69643 0.0
N818 N 0.31087 0.39324 0.65068 0.0
N819 N 0.40666 0.42616 0.67593 0.0
H820 H 0.43058 0.53189 0.87544 0.0
H821 H 0.25677 0.64474 0.95399 0.0
H822 H 0.32138 0.59268 0.84616 0.0
H823 H 0.38435 0.61718 0.97598 0.0
H824 H 0.27696 0.62379 0.9147 0.0
H825 H 0.41282 0.56254 0.9127 0.0
C826 C 0.40366 0.55297 0.87676 0.0
C827 C 0.37818 0.56087 0.85761 0.0
C828 C 0.30043 0.62264 0.92821 0.0
C829 C 0.35596 0.59422 0.90053 0.0
C830 C 0.28882 0.63429 0.95064 0.0
C831 C 0.31881 0.63294 0.96843 0.0
C832 C 0.34208 0.60897 0.92366 0.0
C833 C 0.36002 0.6192 0.96296 0.0
C834 C 0.39311 0.57006 0.89808 0.0
C835 C 0.34254 0.58696 0.86043 0.0
N836 N 0.37022 0.60768 0.94127 0.0
N837 N 0.33212 0.60231 0.88155 0.0
H838 H 0.14585 0.60499 0.09048 0.0
H839 H 0.18013 0.51382 0.21326 0.0
H840 H 0.24163 0.65601 0.13553 0.0
H841 H 0.05693 0.56874 0.20204 0.0
H842 H 0.2034 0.54273 0.17628 0.0
H843 H 0.11103 0.57284 0.1242 0.0
C844 C 0.15901 0.61038 0.10736 0.0
C845 C 0.19704 0.63311 0.11 0.0
C846 C 0.17096 0.54747 0.18175 0.0
C847 C 0.15869 0.59479 0.14813 0.0
C848 C 0.15757 0.53068 0.2027 0.0
C849 C 0.11655 0.53885 0.21073 0.0
C850 C 0.14289 0.57168 0.16848 0.0
C851 C 0.08886 0.56176 0.19645 0.0
C852 C 0.13942 0.59159 0.12649 0.0
C853 C 0.21277 0.63843 0.13242 0.0
N854 N 0.10251 0.57752 0.176 0.0
N855 N 0.19416 0.6187 0.15042 0.0
H856 H 0.75213 0.58848 0.56604 0.0
H857 H 0.88188 0.60897 0.68284 0.0
H858 H 0.83989 0.69165 0.57506 0.0
H859 H 0.85376 0.49059 0.64916 0.0
H860 H 0.85648 0.64643 0.6483 0.0
H861 H 0.77501 0.5596 0.60297 0.0
C862 C 0.77531 0.6057 0.57606 0.0
C863 C 0.7942 0.64243 0.56739 0.0
C864 C 0.85621 0.61223 0.64866 0.0
C865 C 0.82084 0.60935 0.60956 0.0
C866 C 0.87106 0.59084 0.66823 0.0
C867 C 0.86983 0.54643 0.66916 0.0
C868 C 0.83922 0.58899 0.63024 0.0
C869 C 0.85504 0.52476 0.64961 0.0
C870 C 0.78875 0.58895 0.59699 0.0
C871 C 0.82466 0.66308 0.58107 0.0
N872 N 0.83988 0.54614 0.63126 0.0
N873 N 0.83719 0.64622 0.60144 0.0
H874 H 0.55851 0.56132 0.32742 0.0
H875 H 0.74361 0.66393 0.39799 0.0
H876 H 0.68982 0.54697 0.30919 0.0
H877 H 0.64447 0.60236 0.43634 0.0
H878 H 0.7133 0.6363 0.36265 0.0
H879 H 0.58024 0.58619 0.36577 0.0
C880 C 0.59183 0.56192 0.33183 0.0
C881 C 0.62249 0.55092 0.31544 0.0
C882 C 0.69781 0.62931 0.37877 0.0
C883 C 0.64734 0.58183 0.35837 0.0
C884 C 0.71472 0.64552 0.39897 0.0
C885 C 0.69684 0.63518 0.42028 0.0
C886 C 0.6622 0.60299 0.37963 0.0
C887 C 0.6592 0.61132 0.42032 0.0
C888 C 0.60413 0.57654 0.35354 0.0
C889 C 0.66526 0.55395 0.32157 0.0
N890 N 0.6432 0.59566 0.40026 0.0
N891 N 0.67641 0.56981 0.34238 0.0
H892 H 0.67863 0.30444 0.07609 0.0
H893 H 0.62213 0.50867 0.14312 0.0
H894 H 0.74443 0.42144 0.06346 0.0
H895 H 0.6434 0.39733 0.18429 0.0
H896 H 0.65179 0.47223 0.11022 0.0
H897 H 0.65444 0.33255 0.11323 0.0
C898 C 0.68897 0.33558 0.08143 0.0
C899 C 0.71404 0.36049 0.06676 0.0
C900 C 0.6497 0.45567 0.12642 0.0
C901 C 0.68481 0.3933 0.10858 0.0
C902 C 0.63235 0.47625 0.1453 0.0
C903 C 0.63051 0.45639 0.16686 0.0
C904 C 0.66457 0.41426 0.12862 0.0
C905 C 0.64407 0.41403 0.16813 0.0
C906 C 0.67498 0.35156 0.10253 0.0
C907 C 0.7258 0.40089 0.07434 0.0
N908 N 0.66051 0.39427 0.14924 0.0
N909 N 0.7103 0.41637 0.09445 0.0
H910 H 0.83624 0.49819 0.81423 0.0
H911 H 0.86706 0.3909 0.93623 0.0
H912 H 0.95419 0.43472 0.82838 0.0
H913 H 0.75287 0.38034 0.89584 0.0
H914 H 0.90343 0.42043 0.90229 0.0
H915 H 0.80882 0.47328 0.8511 0.0
C916 C 0.85693 0.48031 0.82541 0.0
C917 C 0.8976 0.46859 0.81814 0.0
C918 C 0.87046 0.41128 0.90104 0.0
C919 C 0.86617 0.43955 0.86032 0.0
C920 C 0.8498 0.39401 0.9203 0.0
C921 C 0.80659 0.38314 0.91914 0.0
C922 C 0.84742 0.41869 0.8808 0.0
C923 C 0.78596 0.38847 0.89791 0.0
C924 C 0.84105 0.46558 0.84631 0.0
C925 C 0.92262 0.44448 0.83329 0.0
N926 N 0.80624 0.40638 0.87988 0.0
N927 N 0.90649 0.43057 0.85362 0.0
H928 H 0.58673 0.98016 0.88404 0.0
H929 H 0.68069 0.79856 0.95144 0.0
H930 H 0.65472 0.89541 0.83924 0.0
H931 H 0.73511 0.92223 0.96098 0.0
H932 H 0.65381 0.82101 0.91371 0.0
H933 H 0.61949 0.946 0.91701 0.0
C934 C 0.60769 0.95362 0.88107 0.0
C935 C 0.61817 0.94102 0.85864 0.0
C936 C 0.67259 0.84271 0.92387 0.0
C937 C 0.65561 0.90171 0.89666 0.0
C938 C 0.688 0.83003 0.94531 0.0
C939 C 0.71061 0.85848 0.95926 0.0
C940 C 0.67862 0.8845 0.91672 0.0
C941 C 0.71849 0.89911 0.95066 0.0
C942 C 0.62662 0.9345 0.89995 0.0
C943 C 0.64549 0.90613 0.85613 0.0
N944 N 0.7016 0.91124 0.93022 0.0
N945 N 0.66355 0.88772 0.87496 0.0
H946 H 0.8452 0.93129 0.09552 0.0
H947 H 0.85834 0.85159 0.22555 0.0
H948 H 0.78969 0.81601 0.12053 0.0
H949 H 0.88673 0.98047 0.2068 0.0
H950 H 0.84378 0.83536 0.18581 0.0
H951 H 0.87263 0.94596 0.13426 0.0
C952 C 0.84042 0.90818 0.10895 0.0
C953 C 0.81613 0.87178 0.10471 0.0
C954 C 0.85321 0.86724 0.19024 0.0
C955 C 0.84589 0.88906 0.14915 0.0
C956 C 0.86164 0.8767 0.21309 0.0
C957 C 0.87387 0.91768 0.2198 0.0
C958 C 0.85699 0.89872 0.17351 0.0
C959 C 0.87719 0.94855 0.20256 0.0
C960 C 0.85533 0.91697 0.13113 0.0
C961 C 0.80915 0.84385 0.12293 0.0
N962 N 0.86885 0.93844 0.18019 0.0
N963 N 0.82379 0.85311 0.14427 0.0
H964 H 0.82781 0.19413 0.45203 0.0
H965 H 0.89237 0.99184 0.38791 0.0
H966 H 0.76306 0.07703 0.4658 0.0
H967 H 0.85226 0.09287 0.34321 0.0
H968 H 0.86381 0.03036 0.42048 0.0
H969 H 0.85153 0.1653 0.41491 0.0
C970 C 0.81763 0.1628 0.44694 0.0
C971 C 0.79291 0.13809 0.46186 0.0
C972 C 0.86171 0.04428 0.40357 0.0
C973 C 0.82154 0.10456 0.42012 0.0
C974 C 0.87834 0.02256 0.38487 0.0
C975 C 0.87438 0.03871 0.36249 0.0
C976 C 0.8418 0.08323 0.40026 0.0
C977 C 0.85616 0.07909 0.36004 0.0
C978 C 0.83129 0.14645 0.42585 0.0
C979 C 0.78138 0.0974 0.45467 0.0
N980 N 0.84043 0.10006 0.37874 0.0
N981 N 0.79662 0.08155 0.43458 0.0
H982 H 0.71254 0.18862 0.6247 0.0
H983 H 0.61087 0.00944 0.70425 0.0
H984 H 0.65865 0.07531 0.59612 0.0
H985 H 0.63645 0.13709 0.72644 0.0
H986 H 0.62876 0.03078 0.66472 0.0
H987 H 0.68334 0.16971 0.66208 0.0
C988 C 0.69316 0.16049 0.62616 0.0
C989 C 0.68699 0.13416 0.60715 0.0
C990 C 0.63017 0.05402 0.67832 0.0
C991 C 0.65539 0.11067 0.65036 0.0
C992 C 0.62028 0.04176 0.70092 0.0
C993 C 0.62204 0.07137 0.71888 0.0
C994 C 0.64239 0.09603 0.67372 0.0
C995 C 0.63429 0.11295 0.71335 0.0
C996 C 0.67695 0.14929 0.6476 0.0
C997 C 0.66302 0.09712 0.61022 0.0
N998 N 0.64406 0.12381 0.69148 0.0
N999 N 0.6486 0.08612 0.63147 0.0
H1000 H 0.2506 0.1323 0.08524 0.0
H1001 H 0.43616 0.05339 0.16766 0.0
H1002 H 0.3835 0.13708 0.06798 0.0
H1003 H 0.31104 0.07923 0.1933 0.0
H1004 H 0.41693 0.08651 0.1313 0.0
H1005 H 0.27039 0.1135 0.12484 0.0
C1006 C 0.28378 0.12956 0.08968 0.0
C1007 C 0.31525 0.13621 0.07301 0.0
C1008 C 0.39381 0.08595 0.14499 0.0
C1009 C 0.33812 0.11474 0.11829 0.0
C1010 C 0.40509 0.06753 0.16588 0.0
C1011 C 0.37557 0.06459 0.18371 0.0
C1012 C 0.35215 0.10043 0.14152 0.0
C1013 C 0.33511 0.08198 0.18018 0.0
C1014 C 0.29508 0.11905 0.11233 0.0
C1015 C 0.35782 0.1323 0.07998 0.0
N1016 N 0.32433 0.09854 0.15937 0.0
N1017 N 0.36781 0.12166 0.10185 0.0
H1018 H 0.20064 0.19629 0.91553 0.0
H1019 H 0.11708 0.00809 0.83625 0.0
H1020 H 0.16679 0.07525 0.94367 0.0
H1021 H 0.12006 0.13903 0.8156 0.0
H1022 H 0.13491 0.03038 0.87561 0.0
H1023 H 0.16887 0.17552 0.87903 0.0
C1024 C 0.18502 0.16589 0.91424 0.0
C1025 C 0.18535 0.13794 0.93284 0.0
C1026 C 0.13131 0.05411 0.8624 0.0
C1027 C 0.15102 0.11262 0.89053 0.0
C1028 C 0.12137 0.04137 0.83989 0.0
C1029 C 0.11708 0.07154 0.82236 0.0
C1030 C 0.13743 0.09728 0.86738 0.0
C1031 C 0.12291 0.11433 0.82831 0.0
C1032 C 0.16738 0.1537 0.89327 0.0
C1033 C 0.16608 0.0982 0.92993 0.0
N1034 N 0.13294 0.1257 0.85009 0.0
N1035 N 0.15033 0.08642 0.90908 0.0
H1036 H 0.05808 0.94169 0.66807 0.0
H1037 H 0.25017 0.87286 0.58759 0.0
H1038 H 0.18307 0.92105 0.69524 0.0
H1039 H 0.11833 0.85972 0.56917 0.0
H1040 H 0.22804 0.89021 0.62704 0.0
H1041 H 0.08021 0.90942 0.63194 0.0
C1042 C 0.08975 0.92879 0.66669 0.0
C1043 C 0.11837 0.93294 0.68489 0.0
C1044 C 0.20414 0.88313 0.61431 0.0
C1045 C 0.14508 0.89826 0.64296 0.0
C1046 C 0.21676 0.87343 0.59175 0.0
C1047 C 0.18626 0.86491 0.57478 0.0
C1048 C 0.16072 0.88474 0.61988 0.0
C1049 C 0.14332 0.86605 0.58139 0.0
C1050 C 0.10268 0.91089 0.64593 0.0
C1051 C 0.15967 0.91725 0.68184 0.0
N1052 N 0.13203 0.876 0.60317 0.0
N1053 N 0.17204 0.90126 0.66115 0.0
H1054 H 0.37712 0.99625 0.33589 0.0
H1055 H 0.30637 0.80904 0.41917 0.0
H1056 H 0.37998 0.86414 0.31741 0.0
H1057 H 0.33305 0.93396 0.44454 0.0
H1058 H 0.33641 0.82886 0.38211 0.0
H1059 H 0.3617 0.97553 0.37575 0.0
C1060 C 0.37455 0.96305 0.34012 0.0
C1061 C 0.37983 0.93206 0.32307 0.0
C1062 C 0.33678 0.85179 0.39588 0.0
C1063 C 0.36234 0.90811 0.36865 0.0
C1064 C 0.32021 0.84015 0.41717 0.0
C1065 C 0.31833 0.86947 0.43514 0.0
C1066 C 0.35042 0.89359 0.39218 0.0
C1067 C 0.3351 0.91003 0.43131 0.0
C1068 C 0.36604 0.95121 0.36291 0.0
C1069 C 0.37631 0.88942 0.32975 0.0
N1070 N 0.34979 0.92116 0.41016 0.0
N1071 N 0.36763 0.87889 0.3518 0.0
H1072 H 0.0982 0.65942 0.36131 0.0
H1073 H 0.88678 0.79686 0.3607 0.0
H1074 H 0.97685 0.61491 0.33753 0.0
H1075 H 0.01182 0.8467 0.3483 0.0
H1076 H 0.91845 0.7285 0.37053 0.0
H1077 H 0.06425 0.72463 0.37476 0.0
C1078 C 0.06414 0.66249 0.35983 0.0
C1079 C 0.04034 0.63194 0.34801 0.0
C1080 C 0.93893 0.75485 0.36635 0.0
C1081 C 1.00157 0.70636 0.36322 0.0
C1082 C 0.92096 0.794 0.36093 0.0
C1083 C 0.94671 0.82734 0.35328 0.0
C1084 C 0.98289 0.74929 0.3644 0.0
C1085 C 0.9908 0.82163 0.35377 0.0
C1086 C 0.04491 0.69989 0.36731 0.0
C1087 C 0.99639 0.63787 0.34634 0.0
N1088 N 0.00749 0.78315 0.35887 0.0
N1089 N 0.9785 0.67465 0.35353 0.0
H1090 H 0.06915 0.35195 0.61064 0.0
H1091 H 0.92256 0.14692 0.60596 0.0
H1092 H 0.11368 0.22718 0.59315 0.0
H1093 H 0.88106 0.27248 0.58809 0.0
H1094 H 0.99046 0.17638 0.61864 0.0
H1095 H 0.99969 0.32189 0.61989 0.0
C1096 C 0.06491 0.31804 0.60956 0.0
C1097 C 0.09712 0.29212 0.60069 0.0
C1098 C 0.96596 0.19752 0.61254 0.0
C1099 C 0.01769 0.25778 0.61113 0.0
C1100 C 0.92705 0.18083 0.60546 0.0
C1101 C 0.8963 0.20721 0.59553 0.0
C1102 C 0.97391 0.24089 0.60997 0.0
C1103 C 0.9041 0.25091 0.59527 0.0
C1104 C 0.02511 0.30103 0.61466 0.0
C1105 C 0.08957 0.24841 0.59958 0.0
N1106 N 0.94234 0.26632 0.60205 0.0
N1107 N 0.05045 0.23269 0.60438 0.0
H1108 H 0.392 0.3275 0.85723 0.0
H1109 H 0.59592 0.17935 0.86298 0.0
H1110 H 0.51813 0.36688 0.83873 0.0
H1111 H 0.47171 0.13666 0.84264 0.0
H1112 H 0.5658 0.24852 0.87253 0.0
H1113 H 0.42082 0.25959 0.87032 0.0
C1114 C 0.42595 0.32263 0.85684 0.0
C1115 C 0.45271 0.35265 0.84662 0.0
C1116 C 0.54501 0.22351 0.86665 0.0
C1117 C 0.4856 0.27524 0.86143 0.0
C1118 C 0.56204 0.18388 0.86137 0.0
C1119 C 0.53637 0.15232 0.85161 0.0
C1120 C 0.50197 0.23138 0.86248 0.0
C1121 C 0.49273 0.16025 0.8498 0.0
C1122 C 0.44225 0.28373 0.8641 0.0
C1123 C 0.49639 0.34441 0.84629 0.0
N1124 N 0.47699 0.19919 0.85485 0.0
N1125 N 0.51143 0.30626 0.85327 0.0
H1126 H 0.62566 0.73685 0.09115 0.0
H1127 H 0.38696 0.78252 0.09264 0.0
H1128 H 0.578 0.86263 0.10284 0.0
H1129 H 0.43594 0.65943 0.10991 0.0
H1130 H 0.45549 0.81355 0.10253 0.0
H1131 H 0.55815 0.70796 0.10436 0.0
C1132 C 0.60142 0.75835 0.09719 0.0
C1133 C 0.60727 0.80221 0.0956 0.0
C1134 C 0.45097 0.77989 0.10479 0.0
C1135 C 0.52923 0.76944 0.10985 0.0
C1136 C 0.41175 0.76217 0.09918 0.0
C1137 C 0.40586 0.71824 0.10011 0.0
C1138 C 0.48494 0.75337 0.1107 0.0
C1139 C 0.43908 0.69343 0.1088 0.0
C1140 C 0.56277 0.74186 0.10469 0.0
C1141 C 0.5748 0.82861 0.1037 0.0
N1142 N 0.47756 0.71116 0.11312 0.0
N1143 N 0.53671 0.81188 0.10982 0.0
H1144 H 0.09271 0.1687 0.67366 0.0
H1145 H 0.88829 0.31591 0.6772 0.0
H1146 H 0.96945 0.12791 0.6966 0.0
H1147 H 0.01518 0.35757 0.69248 0.0
H1148 H 0.91674 0.24701 0.66543 0.0
H1149 H 0.06175 0.23612 0.66171 0.0
C1150 C 0.05885 0.17315 0.67537 0.0
C1151 C 0.03376 0.14287 0.6866 0.0
C1152 C 0.93838 0.27181 0.67061 0.0
C1153 C 0.99837 0.21993 0.67295 0.0
C1154 C 0.92227 0.31124 0.67712 0.0
C1155 C 0.94944 0.34225 0.68612 0.0
C1156 C 0.98191 0.26376 0.67283 0.0
C1157 C 0.99316 0.33431 0.68589 0.0
C1158 C 0.04133 0.2118 0.66868 0.0
C1159 C 0.99008 0.15062 0.68838 0.0
N1160 N 0.00801 0.29564 0.67969 0.0
N1161 N 0.97387 0.18866 0.68199 0.0
H1162 H 0.888 0.77408 0.44045 0.0
H1163 H 0.12496 0.72401 0.44704 0.0
H1164 H 0.9343 0.64788 0.42831 0.0
H1165 H 0.08097 0.84813 0.42804 0.0
H1166 H 0.05725 0.69447 0.43449 0.0
H1167 H 0.95755 0.80206 0.43002 0.0
C1168 C 0.91246 0.75234 0.43494 0.0
C1169 C 0.90553 0.70856 0.43563 0.0
C1170 C 0.0628 0.72803 0.43244 0.0
C1171 C 0.98569 0.74022 0.42451 0.0
C1172 C 0.10153 0.74489 0.43959 0.0
C1173 C 0.10843 0.78869 0.43896 0.0
C1174 C 0.03027 0.7553 0.42528 0.0
C1175 C 0.07698 0.81421 0.42902 0.0
C1176 C 0.95224 0.7683 0.42902 0.0
C1177 C 0.9383 0.68185 0.42818 0.0
N1178 N 0.03882 0.79733 0.42321 0.0
N1179 N 0.97734 0.69799 0.42361 0.0
H1180 H 0.63264 0.70216 0.1812 0.0
H1181 H 0.41601 0.83059 0.17292 0.0
H1182 H 0.50808 0.64662 0.18371 0.0
H1183 H 0.53329 0.88164 0.19884 0.0
H1184 H 0.45409 0.76719 0.16049 0.0
H1185 H 0.60039 0.77035 0.17119 0.0
C1186 C 0.59868 0.7039 0.17875 0.0
C1187 C 0.5729 0.66888 0.18359 0.0
C1188 C 0.47169 0.79289 0.16824 0.0
C1189 C 0.53594 0.7466 0.17239 0.0
C1190 C 0.45003 0.82929 0.17518 0.0
C1191 C 0.47137 0.86119 0.18733 0.0
C1192 C 0.51501 0.78862 0.17322 0.0
C1193 C 0.51548 0.85752 0.18986 0.0
C1194 C 0.58029 0.74288 0.17325 0.0
C1195 C 0.52902 0.67302 0.1804 0.0
N1196 N 0.53572 0.8216 0.18323 0.0
N1197 N 0.51188 0.71128 0.17532 0.0
H1198 H 0.42227 0.16011 0.92546 0.0
H1199 H 0.56919 0.36501 0.92875 0.0
H1200 H 0.38122 0.28295 0.94857 0.0
H1201 H 0.61392 0.23774 0.93929 0.0
H1202 H 0.49923 0.33675 0.91884 0.0
H1203 H 0.48982 0.19119 0.91353 0.0
C1204 C 0.42675 0.19388 0.92727 0.0
C1205 C 0.39626 0.21884 0.93845 0.0
C1206 C 0.52477 0.31504 0.92269 0.0
C1207 C 0.47353 0.2544 0.92486 0.0
C1208 C 0.56484 0.33107 0.92816 0.0
C1209 C 0.59731 0.30371 0.93528 0.0
C1210 C 0.51732 0.27139 0.92409 0.0
C1211 C 0.58963 0.26001 0.93427 0.0
C1212 C 0.46549 0.21148 0.92061 0.0
C1213 C 0.40406 0.26241 0.94037 0.0
N1214 N 0.55027 0.24523 0.92916 0.0
N1215 N 0.44215 0.2787 0.93397 0.0
loop_
_geom_bond_atom_site_label_1
_geom_bond_atom_site_label_2
_geom_bond_distance
_geom_bond_site_symmetry_2
_ccdc_geom_bond_type
Sc0 O3 2.025 . S
Sc0 O10 2.105 . S
Sc0 O13 2.105 . S
Sc0 O16 2.105 . S
Sc0 O19 2.105 . S
Sc1 O3 2.025 . S
Sc1 O11 2.105 . S
Sc1 O15 2.105 . S
Sc1 O17 2.105 . S
Sc1 O21 2.105 . S
Sc2 O3 2.025 . S
Sc2 O12 2.105 . S
Sc2 O14 2.105 . S
Sc2 O18 2.105 . S
Sc2 O20 2.105 . S
O3 Sc0 2.025 . S
O3 Sc1 2.025 . S
O3 Sc2 2.025 . S
C4 O10 1.268 . S
C4 O20 1.268 . S
C5 O11 1.268 . S
C5 O19 1.268 . S
C6 O12 1.268 . S
C6 O21 1.268 . S
C7 O13 1.268 . S
C7 O17 1.268 . S
C8 O14 1.268 . S
C8 O16 1.268 . S
C9 O15 1.268 . S
C9 O18 1.268 . S
O10 Sc0 2.105 . S
O10 C4 1.268 . S
O11 Sc1 2.105 . S
O11 C5 1.268 . S
O12 Sc2 2.105 . S
O12 C6 1.268 . S
O13 Sc0 2.105 . S
O13 C7 1.268 . S
O14 Sc2 2.105 . S
O14 C8 1.268 . S
O15 Sc1 2.105 . S
O15 C9 1.268 . S
O16 Sc0 2.105 . S
O16 C8 1.268 . S
O17 Sc1 2.105 . S
O17 C7 1.268 . S
O18 Sc2 2.105 . S
O18 C9 1.268 . S
O19 Sc0 2.105 . S
O19 C5 1.268 . S
O20 Sc2 2.105 . S
O20 C4 1.268 . S
O21 Sc1 2.105 . S
O21 C6 1.268 . S
Sc22 O25 2.025 . S
Sc22 O32 2.105 . S
Sc22 O35 2.105 . S
Sc22 O38 2.105 . S
Sc22 O41 2.105 . S
Sc23 O25 2.025 . S
Sc23 O33 2.105 . S
Sc23 O37 2.105 . S
Sc23 O39 2.105 . S
Sc23 O43 2.105 . S
Sc24 O25 2.025 . S
Sc24 O34 2.105 . S
Sc24 O36 2.105 . S
Sc24 O40 2.105 . S
Sc24 O42 2.105 . S
O25 Sc22 2.025 . S
O25 Sc23 2.025 . S
O25 Sc24 2.025 . S
C26 O32 1.268 . S
C26 O42 1.268 . S
C27 O33 1.268 . S
C27 O41 1.268 . S
C28 O34 1.268 . S
C28 O43 1.268 . S
C29 O35 1.268 . S
C29 O39 1.268 . S
C30 O36 1.268 . S
C30 O38 1.268 . S
C31 O37 1.268 . S
C31 O40 1.268 . S
O32 Sc22 2.105 . S
O32 C26 1.268 . S
O33 Sc23 2.105 . S
O33 C27 1.268 . S
O34 Sc24 2.105 . S
O34 C28 1.268 . S
O35 Sc22 2.105 . S
O35 C29 1.268 . S
O36 Sc24 2.105 . S
O36 C30 1.268 . S
O37 Sc23 2.105 . S
O37 C31 1.268 . S
O38 Sc22 2.105 . S
O38 C30 1.268 . S
O39 Sc23 2.105 . S
O39 C29 1.268 . S
O40 Sc24 2.105 . S
O40 C31 1.268 . S
O41 Sc22 2.105 . S
O41 C27 1.268 . S
O42 Sc24 2.105 . S
O42 C26 1.268 . S
O43 Sc23 2.105 . S
O43 C28 1.268 . S
Sc44 O47 2.025 . S
Sc44 O54 2.105 . S
Sc44 O57 2.105 . S
Sc44 O60 2.105 . S
Sc44 O63 2.105 . S
Sc45 O47 2.025 . S
Sc45 O55 2.105 . S
Sc45 O59 2.105 . S
Sc45 O61 2.105 . S
Sc45 O65 2.105 . S
Sc46 O47 2.025 . S
Sc46 O56 2.105 . S
Sc46 O58 2.105 . S
Sc46 O62 2.105 . S
Sc46 O64 2.105 . S
O47 Sc44 2.025 . S
O47 Sc45 2.025 . S
O47 Sc46 2.025 . S
C48 O54 1.268 . S
C48 O64 1.268 . S
C49 O55 1.268 . S
C49 O63 1.268 . S
C50 O56 1.268 . S
C50 O65 1.268 . S
C51 O57 1.268 . S
C51 O61 1.268 . S
C52 O58 1.268 . S
C52 O60 1.268 . S
C53 O59 1.268 . S
C53 O62 1.268 . S
O54 Sc44 2.105 . S
O54 C48 1.268 . S
O55 Sc45 2.105 . S
O55 C49 1.268 . S
O56 Sc46 2.105 . S
O56 C50 1.268 . S
O57 Sc44 2.105 . S
O57 C51 1.268 . S
O58 Sc46 2.105 . S
O58 C52 1.268 . S
O59 Sc45 2.105 . S
O59 C53 1.268 . S
O60 Sc44 2.105 . S
O60 C52 1.268 . S
O61 Sc45 2.105 . S
O61 C51 1.268 . S
O62 Sc46 2.105 . S
O62 C53 1.268 . S
O63 Sc44 2.105 . S
O63 C49 1.268 . S
O64 Sc46 2.105 . S
O64 C48 1.268 . S
O65 Sc45 2.105 . S
O65 C50 1.268 . S
Sc66 O69 2.025 . S
Sc66 O76 2.105 1_554 S
Sc66 O79 2.105 . S
Sc66 O82 2.105 . S
Sc66 O85 2.105 . S
Sc67 O69 2.025 . S
Sc67 O77 2.105 . S
Sc67 O81 2.105 . S
Sc67 O83 2.105 . S
Sc67 O87 2.105 . S
Sc68 O69 2.025 1_556 S
Sc68 O78 2.105 . S
Sc68 O80 2.105 . S
Sc68 O84 2.105 1_556 S
Sc68 O86 2.105 . S
O69 Sc66 2.025 . S
O69 Sc67 2.025 . S
O69 Sc68 2.025 1_554 S
C70 O76 1.268 . S
C70 O86 1.268 . S
C71 O77 1.268 . S
C71 O85 1.268 . S
C72 O78 1.258 1_554 S
C72 O87 1.285 . S
C73 O79 1.268 . S
C73 O83 1.268 . S
C74 O80 1.268 . S
C74 O82 1.268 1_556 S
C75 O81 1.268 . S
C75 O84 1.268 . S
O76 Sc66 2.105 1_556 S
O76 C70 1.268 . S
O77 Sc67 2.105 . S
O77 C71 1.268 . S
O78 Sc68 2.105 . S
O78 C72 1.258 1_556 S
O79 Sc66 2.105 . S
O79 C73 1.268 . S
O80 Sc68 2.105 . S
O80 C74 1.268 . S
O81 Sc67 2.105 . S
O81 C75 1.268 . S
O82 Sc66 2.105 . S
O82 C74 1.268 1_554 S
O83 Sc67 2.105 . S
O83 C73 1.268 . S
O84 Sc68 2.105 1_554 S
O84 C75 1.268 . S
O85 Sc66 2.105 . S
O85 C71 1.268 . S
O86 Sc68 2.105 . S
O86 C70 1.268 . S
O87 Sc67 2.105 . S
O87 C72 1.285 . S
Sc88 O91 2.025 . S
Sc88 O98 2.105 . S
Sc88 O101 2.105 . S
Sc88 O104 2.105 . S
Sc88 O107 2.105 . S
Sc89 O91 2.025 . S
Sc89 O99 2.105 . S
Sc89 O103 2.105 . S
Sc89 O105 2.105 . S
Sc89 O109 2.105 . S
Sc90 O91 2.025 . S
Sc90 O100 2.105 . S
Sc90 O102 2.105 . S
Sc90 O106 2.105 . S
Sc90 O108 2.105 . S
O91 Sc88 2.025 . S
O91 Sc89 2.025 . S
O91 Sc90 2.025 . S
C92 O98 1.268 . S
C92 O108 1.268 . S
C93 O99 1.268 . S
C93 O107 1.268 . S
C94 O100 1.268 . S
C94 O109 1.268 . S
C95 O101 1.268 . S
C95 O105 1.268 . S
C96 O102 1.268 . S
C96 O104 1.268 . S
C97 O103 1.268 . S
C97 O106 1.268 . S
O98 Sc88 2.105 . S
O98 C92 1.268 . S
O99 Sc89 2.105 . S
O99 C93 1.268 . S
O100 Sc90 2.105 . S
O100 C94 1.268 . S
O101 Sc88 2.105 . S
O101 C95 1.268 . S
O102 Sc90 2.105 . S
O102 C96 1.268 . S
O103 Sc89 2.105 . S
O103 C97 1.268 . S
O104 Sc88 2.105 . S
O104 C96 1.268 . S
O105 Sc89 2.105 . S
O105 C95 1.268 . S
O106 Sc90 2.105 . S
O106 C97 1.268 . S
O107 Sc88 2.105 . S
O107 C93 1.268 . S
O108 Sc90 2.105 . S
O108 C92 1.268 . S
O109 Sc89 2.105 . S
O109 C94 1.268 . S
Sc110 O113 2.025 . S
Sc110 O120 2.105 . S
Sc110 O123 2.105 . S
Sc110 O126 2.105 . S
Sc110 O129 2.105 . S
Sc111 O113 2.025 . S
Sc111 O121 2.105 . S
Sc111 O125 2.105 . S
Sc111 O127 2.105 . S
Sc111 O131 2.105 . S
Sc112 O113 2.025 . S
Sc112 O122 2.105 . S
Sc112 O124 2.105 . S
Sc112 O128 2.105 . S
Sc112 O130 2.105 . S
O113 Sc110 2.025 . S
O113 Sc111 2.025 . S
O113 Sc112 2.025 . S
C114 O120 1.268 . S
C114 O130 1.268 . S
C115 O121 1.268 . S
C115 O129 1.268 . S
C116 O122 1.268 . S
C116 O131 1.268 . S
C117 O123 1.268 . S
C117 O127 1.268 . S
C118 O124 1.268 . S
C118 O126 1.268 . S
C119 O125 1.268 . S
C119 O128 1.268 . S
O120 Sc110 2.105 . S
O120 C114 1.268 . S
O121 Sc111 2.105 . S
O121 C115 1.268 . S
O122 Sc112 2.105 . S
O122 C116 1.268 . S
O123 Sc110 2.105 . S
O123 C117 1.268 . S
O124 Sc112 2.105 . S
O124 C118 1.268 . S
O125 Sc111 2.105 . S
O125 C119 1.268 . S
O126 Sc110 2.105 . S
O126 C118 1.268 . S
O127 Sc111 2.105 . S
O127 C117 1.268 . S
O128 Sc112 2.105 . S
O128 C119 1.268 . S
O129 Sc110 2.105 . S
O129 C115 1.268 . S
O130 Sc112 2.105 . S
O130 C114 1.268 . S
O131 Sc111 2.105 . S
O131 C116 1.268 . S
Sc132 O135 2.025 . S
Sc132 O142 2.105 . S
Sc132 O145 2.105 . S
Sc132 O148 2.105 . S
Sc132 O151 2.105 . S
Sc133 O135 2.025 . S
Sc133 O143 2.105 . S
Sc133 O147 2.105 . S
Sc133 O149 2.105 . S
Sc133 O153 2.105 . S
Sc134 O135 2.025 . S
Sc134 O144 2.105 . S
Sc134 O146 2.105 . S
Sc134 O150 2.105 . S
Sc134 O152 2.105 . S
O135 Sc132 2.025 . S
O135 Sc133 2.025 . S
O135 Sc134 2.025 . S
C136 O142 1.268 . S
C136 O152 1.268 . S
C137 O143 1.268 . S
C137 O151 1.268 . S
C138 O144 1.268 . S
C138 O153 1.268 . S
C139 O145 1.268 . S
C139 O149 1.268 . S
C140 O146 1.268 . S
C140 O148 1.268 . S
C141 O147 1.268 . S
C141 O150 1.268 . S
O142 Sc132 2.105 . S
O142 C136 1.268 . S
O143 Sc133 2.105 . S
O143 C137 1.268 . S
O144 Sc134 2.105 . S
O144 C138 1.268 . S
O145 Sc132 2.105 . S
O145 C139 1.268 . S
O146 Sc134 2.105 . S
O146 C140 1.268 . S
O147 Sc133 2.105 . S
O147 C141 1.268 . S
O148 Sc132 2.105 . S
O148 C140 1.268 . S
O149 Sc133 2.105 . S
O149 C139 1.268 . S
O150 Sc134 2.105 . S
O150 C141 1.268 . S
O151 Sc132 2.105 . S
O151 C137 1.268 . S
O152 Sc134 2.105 . S
O152 C136 1.268 . S
O153 Sc133 2.105 . S
O153 C138 1.268 . S
Sc154 O157 2.025 . S
Sc154 O164 2.105 . S
Sc154 O167 2.105 . S
Sc154 O170 2.105 1_556 S
Sc154 O173 2.105 . S
Sc155 O157 2.025 . S
Sc155 O165 2.105 . S
Sc155 O169 2.105 . S
Sc155 O171 2.105 . S
Sc155 O175 2.105 . S
Sc156 O157 2.025 1_554 S
Sc156 O166 2.105 1_554 S
Sc156 O168 2.105 . S
Sc156 O172 2.105 . S
Sc156 O174 2.105 . S
O157 Sc154 2.025 . S
O157 Sc155 2.025 . S
O157 Sc156 2.025 1_556 S
C158 O164 1.268 1_554 S
C158 O174 1.268 . S
C159 O165 1.268 . S
C159 O173 1.268 . S
C160 O166 1.268 . S
C160 O175 1.268 . S
C161 O167 1.268 . S
C161 O171 1.268 . S
C162 O168 1.268 . S
C162 O170 1.268 . S
C163 O169 1.285 . S
C163 O172 1.258 1_556 S
O164 Sc154 2.105 . S
O164 C158 1.268 1_556 S
O165 Sc155 2.105 . S
O165 C159 1.268 . S
O166 Sc156 2.105 1_556 S
O166 C160 1.268 . S
O167 Sc154 2.105 . S
O167 C161 1.268 . S
O168 Sc156 2.105 . S
O168 C162 1.268 . S
O169 Sc155 2.105 . S
O169 C163 1.285 . S
O170 Sc154 2.105 1_554 S
O170 C162 1.268 . S
O171 Sc155 2.105 . S
O171 C161 1.268 . S
O172 Sc156 2.105 . S
O172 C163 1.258 1_554 S
O173 Sc154 2.105 . S
O173 C159 1.268 . S
O174 Sc156 2.105 . S
O174 C158 1.268 . S
O175 Sc155 2.105 . S
O175 C160 1.268 . S
Sc176 O179 2.025 . S
Sc176 O186 2.105 . S
Sc176 O189 2.105 1_545 S
Sc176 O192 2.105 1_545 S
Sc176 O195 2.105 . S
Sc177 O179 2.025 . S
Sc177 O187 2.105 . S
Sc177 O191 2.105 . S
Sc177 O193 2.105 . S
Sc177 O197 2.105 . S
Sc178 O179 2.025 . S
Sc178 O188 2.105 . S
Sc178 O190 2.105 . S
Sc178 O194 2.105 . S
Sc178 O196 2.105 . S
O179 Sc176 2.025 . S
O179 Sc177 2.025 . S
O179 Sc178 2.025 . S
C180 O186 1.268 . S
C180 O196 1.268 . S
C181 O187 1.268 . S
C181 O195 1.268 . S
C182 O188 1.268 . S
C182 O197 1.268 . S
C183 O189 1.268 1_545 S
C183 O193 1.268 . S
C184 O190 1.268 . S
C184 O192 1.268 1_545 S
C185 O191 1.268 . S
C185 O194 1.268 . S
O186 Sc176 2.105 . S
O186 C180 1.268 . S
O187 Sc177 2.105 . S
O187 C181 1.268 . S
O188 Sc178 2.105 . S
O188 C182 1.268 . S
O189 Sc176 2.105 1_565 S
O189 C183 1.268 1_565 S
O190 Sc178 2.105 . S
O190 C184 1.268 . S
O191 Sc177 2.105 . S
O191 C185 1.268 . S
O192 Sc176 2.105 1_565 S
O192 C184 1.268 1_565 S
O193 Sc177 2.105 . S
O193 C183 1.268 . S
O194 Sc178 2.105 . S
O194 C185 1.268 . S
O195 Sc176 2.105 . S
O195 C181 1.268 . S
O196 Sc178 2.105 . S
O196 C180 1.268 . S
O197 Sc177 2.105 . S
O197 C182 1.268 . S
Sc198 O201 2.025 . S
Sc198 O208 2.105 1_554 S
Sc198 O211 2.105 . S
Sc198 O214 2.105 . S
Sc198 O217 2.105 . S
Sc199 O201 2.025 . S
Sc199 O209 2.105 . S
Sc199 O213 2.105 . S
Sc199 O215 2.105 . S
Sc199 O219 2.105 . S
Sc200 O201 2.025 1_556 S
Sc200 O210 2.105 . S
Sc200 O212 2.105 . S
Sc200 O216 2.105 1_556 S
Sc200 O218 2.105 . S
O201 Sc198 2.025 . S
O201 Sc199 2.025 . S
O201 Sc200 2.025 1_554 S
C202 O208 1.268 . S
C202 O218 1.268 . S
C203 O209 1.268 1_545 S
C203 O217 1.268 1_545 S
C204 O210 1.258 1_554 S
C204 O219 1.285 . S
C205 O211 1.268 . S
C205 O215 1.268 . S
C206 O212 1.268 . S
C206 O214 1.268 1_556 S
C207 O213 1.268 . S
C207 O216 1.268 . S
O208 Sc198 2.105 1_556 S
O208 C202 1.268 . S
O209 Sc199 2.105 . S
O209 C203 1.268 1_565 S
O210 Sc200 2.105 . S
O210 C204 1.258 1_556 S
O211 Sc198 2.105 . S
O211 C205 1.268 . S
O212 Sc200 2.105 . S
O212 C206 1.268 . S
O213 Sc199 2.105 . S
O213 C207 1.268 . S
O214 Sc198 2.105 . S
O214 C206 1.268 1_554 S
O215 Sc199 2.105 . S
O215 C205 1.268 . S
O216 Sc200 2.105 1_554 S
O216 C207 1.268 . S
O217 Sc198 2.105 . S
O217 C203 1.268 1_565 S
O218 Sc200 2.105 . S
O218 C202 1.268 . S
O219 Sc199 2.105 . S
O219 C204 1.285 . S
Sc220 O223 2.025 . S
Sc220 O230 2.105 . S
Sc220 O233 2.105 . S
Sc220 O236 2.105 . S
Sc220 O239 2.105 . S
Sc221 O223 2.025 . S
Sc221 O231 2.105 . S
Sc221 O235 2.105 . S
Sc221 O237 2.105 . S
Sc221 O241 2.105 . S
Sc222 O223 2.025 . S
Sc222 O232 2.105 1_565 S
Sc222 O234 2.105 . S
Sc222 O238 2.105 . S
Sc222 O240 2.105 1_565 S
O223 Sc220 2.025 . S
O223 Sc221 2.025 . S
O223 Sc222 2.025 . S
C224 O230 1.268 . S
C224 O240 1.268 1_565 S
C225 O231 1.268 . S
C225 O239 1.268 . S
C226 O232 1.268 1_565 S
C226 O241 1.268 . S
C227 O233 1.268 . S
C227 O237 1.268 . S
C228 O234 1.268 . S
C228 O236 1.268 . S
C229 O235 1.268 . S
C229 O238 1.268 . S
O230 Sc220 2.105 . S
O230 C224 1.268 . S
O231 Sc221 2.105 . S
O231 C225 1.268 . S
O232 Sc222 2.105 1_545 S
O232 C226 1.268 1_545 S
O233 Sc220 2.105 . S
O233 C227 1.268 . S
O234 Sc222 2.105 . S
O234 C228 1.268 . S
O235 Sc221 2.105 . S
O235 C229 1.268 . S
O236 Sc220 2.105 . S
O236 C228 1.268 . S
O237 Sc221 2.105 . S
O237 C227 1.268 . S
O238 Sc222 2.105 . S
O238 C229 1.268 . S
O239 Sc220 2.105 . S
O239 C225 1.268 . S
O240 Sc222 2.105 1_545 S
O240 C224 1.268 1_545 S
O241 Sc221 2.105 . S
O241 C226 1.268 . S
Sc242 O245 2.025 . S
Sc242 O252 2.105 . S
Sc242 O255 2.105 . S
Sc242 O258 2.105 . S
Sc242 O261 2.105 . S
Sc243 O245 2.025 . S
Sc243 O253 2.105 . S
Sc243 O257 2.105 . S
Sc243 O259 2.105 . S
Sc243 O263 2.105 . S
Sc244 O245 2.025 . S
Sc244 O254 2.105 . S
Sc244 O256 2.105 . S
Sc244 O260 2.105 . S
Sc244 O262 2.105 . S
O245 Sc242 2.025 . S
O245 Sc243 2.025 . S
O245 Sc244 2.025 . S
C246 O252 1.268 . S
C246 O262 1.268 . S
C247 O253 1.268 1_565 S
C247 O261 1.268 1_565 S
C248 O254 1.268 . S
C248 O263 1.268 . S
C249 O255 1.268 . S
C249 O259 1.268 . S
C250 O256 1.268 . S
C250 O258 1.268 . S
C251 O257 1.268 . S
C251 O260 1.268 . S
O252 Sc242 2.105 . S
O252 C246 1.268 . S
O253 Sc243 2.105 . S
O253 C247 1.268 1_545 S
O254 Sc244 2.105 . S
O254 C248 1.268 . S
O255 Sc242 2.105 . S
O255 C249 1.268 . S
O256 Sc244 2.105 . S
O256 C250 1.268 . S
O257 Sc243 2.105 . S
O257 C251 1.268 . S
O258 Sc242 2.105 . S
O258 C250 1.268 . S
O259 Sc243 2.105 . S
O259 C249 1.268 . S
O260 Sc244 2.105 . S
O260 C251 1.268 . S
O261 Sc242 2.105 . S
O261 C247 1.268 1_545 S
O262 Sc244 2.105 . S
O262 C246 1.268 . S
O263 Sc243 2.105 . S
O263 C248 1.268 . S
Sc264 O267 2.025 . S
Sc264 O274 2.105 . S
Sc264 O277 2.105 . S
Sc264 O280 2.105 . S
Sc264 O283 2.105 . S
Sc265 O267 2.025 . S
Sc265 O275 2.105 . S
Sc265 O279 2.105 . S
Sc265 O281 2.105 . S
Sc265 O285 2.105 . S
Sc266 O267 2.025 . S
Sc266 O276 2.105 . S
Sc266 O278 2.105 1_565 S
Sc266 O282 2.105 1_565 S
Sc266 O284 2.105 . S
O267 Sc264 2.025 . S
O267 Sc265 2.025 . S
O267 Sc266 2.025 . S
C268 O274 1.268 . S
C268 O284 1.268 . S
C269 O275 1.268 . S
C269 O283 1.268 . S
C270 O276 1.268 . S
C270 O285 1.268 . S
C271 O277 1.268 . S
C271 O281 1.268 . S
C272 O278 1.268 1_565 S
C272 O280 1.268 . S
C273 O279 1.268 . S
C273 O282 1.268 1_565 S
O274 Sc264 2.105 . S
O274 C268 1.268 . S
O275 Sc265 2.105 . S
O275 C269 1.268 . S
O276 Sc266 2.105 . S
O276 C270 1.268 . S
O277 Sc264 2.105 . S
O277 C271 1.268 . S
O278 Sc266 2.105 1_545 S
O278 C272 1.268 1_545 S
O279 Sc265 2.105 . S
O279 C273 1.268 . S
O280 Sc264 2.105 . S
O280 C272 1.268 . S
O281 Sc265 2.105 . S
O281 C271 1.268 . S
O282 Sc266 2.105 1_545 S
O282 C273 1.268 1_545 S
O283 Sc264 2.105 . S
O283 C269 1.268 . S
O284 Sc266 2.105 . S
O284 C268 1.268 . S
O285 Sc265 2.105 . S
O285 C270 1.268 . S
Sc286 O289 2.025 1_554 S
Sc286 O296 2.105 . S
Sc286 O299 2.105 1_554 S
Sc286 O302 2.105 . S
Sc286 O305 2.105 . S
Sc287 O289 2.025 . S
Sc287 O297 2.105 . S
Sc287 O301 2.105 . S
Sc287 O303 2.105 . S
Sc287 O307 2.105 . S
Sc288 O289 2.025 . S
Sc288 O298 2.105 . S
Sc288 O300 2.105 . S
Sc288 O304 2.105 . S
Sc288 O306 2.105 1_556 S
O289 Sc286 2.025 1_556 S
O289 Sc287 2.025 . S
O289 Sc288 2.025 . S
C290 O296 1.268 . S
C290 O306 1.268 . S
C291 O297 1.285 . S
C291 O305 1.258 1_556 S
C292 O298 1.268 1_565 S
C292 O307 1.268 1_565 S
C293 O299 1.268 . S
C293 O303 1.268 . S
C294 O300 1.268 1_554 S
C294 O302 1.268 . S
C295 O301 1.268 . S
C295 O304 1.268 . S
O296 Sc286 2.105 . S
O296 C290 1.268 . S
O297 Sc287 2.105 . S
O297 C291 1.285 . S
O298 Sc288 2.105 . S
O298 C292 1.268 1_545 S
O299 Sc286 2.105 1_556 S
O299 C293 1.268 . S
O300 Sc288 2.105 . S
O300 C294 1.268 1_556 S
O301 Sc287 2.105 . S
O301 C295 1.268 . S
O302 Sc286 2.105 . S
O302 C294 1.268 . S
O303 Sc287 2.105 . S
O303 C293 1.268 . S
O304 Sc288 2.105 . S
O304 C295 1.268 . S
O305 Sc286 2.105 . S
O305 C291 1.258 1_554 S
O306 Sc288 2.105 1_554 S
O306 C290 1.268 . S
O307 Sc287 2.105 . S
O307 C292 1.268 1_545 S
Sc308 O311 2.025 . S
Sc308 O318 2.105 1_545 S
Sc308 O321 2.105 . S
Sc308 O324 2.105 . S
Sc308 O327 2.105 1_545 S
Sc309 O311 2.025 . S
Sc309 O319 2.105 . S
Sc309 O323 2.105 . S
Sc309 O325 2.105 . S
Sc309 O329 2.105 . S
Sc310 O311 2.025 . S
Sc310 O320 2.105 . S
Sc310 O322 2.105 . S
Sc310 O326 2.105 . S
Sc310 O328 2.105 . S
O311 Sc308 2.025 . S
O311 Sc309 2.025 . S
O311 Sc310 2.025 . S
C312 O318 1.268 1_545 S
C312 O328 1.268 . S
C313 O319 1.268 . S
C313 O327 1.268 1_545 S
C314 O320 1.268 . S
C314 O329 1.268 . S
C315 O321 1.268 . S
C315 O325 1.268 . S
C316 O322 1.268 . S
C316 O324 1.268 . S
C317 O323 1.268 . S
C317 O326 1.268 . S
O318 Sc308 2.105 1_565 S
O318 C312 1.268 1_565 S
O319 Sc309 2.105 . S
O319 C313 1.268 . S
O320 Sc310 2.105 . S
O320 C314 1.268 . S
O321 Sc308 2.105 . S
O321 C315 1.268 . S
O322 Sc310 2.105 . S
O322 C316 1.268 . S
O323 Sc309 2.105 . S
O323 C317 1.268 . S
O324 Sc308 2.105 . S
O324 C316 1.268 . S
O325 Sc309 2.105 . S
O325 C315 1.268 . S
O326 Sc310 2.105 . S
O326 C317 1.268 . S
O327 Sc308 2.105 1_565 S
O327 C313 1.268 1_565 S
O328 Sc310 2.105 . S
O328 C312 1.268 . S
O329 Sc309 2.105 . S
O329 C314 1.268 . S
Sc330 O333 2.025 . S
Sc330 O340 2.105 . S
Sc330 O343 2.105 . S
Sc330 O346 2.105 . S
Sc330 O349 2.105 . S
Sc331 O333 2.025 . S
Sc331 O341 2.105 . S
Sc331 O345 2.105 . S
Sc331 O347 2.105 . S
Sc331 O351 2.105 . S
Sc332 O333 2.025 . S
Sc332 O342 2.105 . S
Sc332 O344 2.105 . S
Sc332 O348 2.105 . S
Sc332 O350 2.105 . S
O333 Sc330 2.025 . S
O333 Sc331 2.025 . S
O333 Sc332 2.025 . S
C334 O340 1.268 . S
C334 O350 1.268 . S
C335 O341 1.268 . S
C335 O349 1.268 . S
C336 O342 1.268 . S
C336 O351 1.268 . S
C337 O343 1.268 1_545 S
C337 O347 1.268 1_545 S
C338 O344 1.268 . S
C338 O346 1.268 . S
C339 O345 1.268 . S
C339 O348 1.268 . S
O340 Sc330 2.105 . S
O340 C334 1.268 . S
O341 Sc331 2.105 . S
O341 C335 1.268 . S
O342 Sc332 2.105 . S
O342 C336 1.268 . S
O343 Sc330 2.105 . S
O343 C337 1.268 1_565 S
O344 Sc332 2.105 . S
O344 C338 1.268 . S
O345 Sc331 2.105 . S
O345 C339 1.268 . S
O346 Sc330 2.105 . S
O346 C338 1.268 . S
O347 Sc331 2.105 . S
O347 C337 1.268 1_565 S
O348 Sc332 2.105 . S
O348 C339 1.268 . S
O349 Sc330 2.105 . S
O349 C335 1.268 . S
O350 Sc332 2.105 . S
O350 C334 1.268 . S
O351 Sc331 2.105 . S
O351 C336 1.268 . S
H352 C358 0.930 . S
H353 C362 0.930 . S
H354 C367 0.929 . S
H355 C365 0.929 . S
H356 C360 0.929 . S
H357 C366 0.929 . S
C358 H352 0.930 . S
C358 C359 1.367 . S
C358 C366 1.378 . S
C359 C358 1.367 . S
C359 C367 1.433 . S
C360 H356 0.929 . S
C360 C362 1.378 . S
C360 C364 1.350 . S
C361 C364 1.463 . S
C361 C366 1.350 . S
C361 N369 1.427 . S
C362 H353 0.930 . S
C362 C360 1.378 . S
C362 C363 1.367 . S
C363 C362 1.367 . S
C363 C365 1.433 . S
C364 C360 1.350 . S
C364 C361 1.463 . S
C364 N368 1.427 . S
C365 H355 0.929 . S
C365 C363 1.433 . S
C365 N368 1.384 . S
C366 H357 0.929 . S
C366 C358 1.378 . S
C366 C361 1.350 . S
C367 H354 0.929 . S
C367 C359 1.433 . S
C367 N369 1.384 . S
N368 C364 1.427 . S
N368 C365 1.384 . S
N369 C361 1.427 . S
N369 C367 1.384 . S
H370 C376 0.930 . S
H371 C380 0.930 . S
H372 C385 0.929 . S
H373 C383 0.929 . S
H374 C378 0.929 . S
H375 C384 0.929 . S
C376 H370 0.930 . S
C376 C377 1.367 . S
C376 C384 1.378 . S
C377 C376 1.367 . S
C377 C385 1.433 . S
C378 H374 0.929 . S
C378 C380 1.378 . S
C378 C382 1.350 . S
C379 C382 1.463 . S
C379 C384 1.350 . S
C379 N387 1.427 . S
C380 H371 0.930 . S
C380 C378 1.378 . S
C380 C381 1.367 . S
C381 C380 1.367 . S
C381 C383 1.433 . S
C382 C378 1.350 . S
C382 C379 1.463 . S
C382 N386 1.427 . S
C383 H373 0.929 . S
C383 C381 1.433 . S
C383 N386 1.384 . S
C384 H375 0.929 . S
C384 C376 1.378 . S
C384 C379 1.350 . S
C385 H372 0.929 . S
C385 C377 1.433 . S
C385 N387 1.384 . S
N386 C382 1.427 . S
N386 C383 1.384 . S
N387 C379 1.427 . S
N387 C385 1.384 . S
H388 C394 0.930 . S
H389 C398 0.930 . S
H390 C403 0.929 . S
H391 C401 0.929 . S
H392 C396 0.929 . S
H393 C402 0.929 . S
C394 H388 0.930 . S
C394 C395 1.367 . S
C394 C402 1.378 . S
C395 C394 1.367 . S
C395 C403 1.433 . S
C396 H392 0.929 . S
C396 C398 1.378 1_455 S
C396 C400 1.350 . S
C397 C400 1.463 . S
C397 C402 1.350 . S
C397 N405 1.427 . S
C398 H389 0.930 . S
C398 C396 1.378 1_655 S
C398 C399 1.367 . S
C399 C398 1.367 . S
C399 C401 1.433 . S
C400 C396 1.350 . S
C400 C397 1.463 . S
C400 N404 1.427 . S
C401 H391 0.929 . S
C401 C399 1.433 . S
C401 N404 1.384 1_655 S
C402 H393 0.929 . S
C402 C394 1.378 . S
C402 C397 1.350 . S
C403 H390 0.929 . S
C403 C395 1.433 . S
C403 N405 1.384 . S
N404 C400 1.427 . S
N404 C401 1.384 1_455 S
N405 C397 1.427 . S
N405 C403 1.384 . S
H406 C412 0.930 . S
H407 C416 0.930 1_556 S
H408 C421 0.929 . S
H409 C419 0.929 . S
H410 C414 0.929 . S
H411 C420 0.929 . S
C412 H406 0.930 . S
C412 C413 1.367 . S
C412 C420 1.378 . S
C413 C412 1.367 . S
C413 C421 1.433 1_554 S
C414 H410 0.929 . S
C414 C416 1.378 1_556 S
C414 C418 1.350 1_556 S
C415 C418 1.463 . S
C415 C420 1.350 . S
C415 N423 1.427 1_554 S
C416 H407 0.930 1_554 S
C416 C414 1.378 1_554 S
C416 C417 1.367 . S
C417 C416 1.367 . S
C417 C419 1.433 . S
C418 C414 1.350 1_554 S
C418 C415 1.463 . S
C418 N422 1.427 . S
C419 H409 0.929 . S
C419 C417 1.433 . S
C419 N422 1.384 . S
C420 H411 0.929 . S
C420 C412 1.378 . S
C420 C415 1.350 . S
C421 H408 0.929 . S
C421 C413 1.433 1_556 S
C421 N423 1.384 . S
N422 C418 1.427 . S
N422 C419 1.384 . S
N423 C415 1.427 1_556 S
N423 C421 1.384 . S
H424 C430 0.930 . S
H425 C434 0.930 . S
H426 C439 0.929 . S
H427 C437 0.929 . S
H428 C432 0.929 . S
H429 C438 0.929 . S
C430 H424 0.930 . S
C430 C431 1.367 . S
C430 C438 1.378 . S
C431 C430 1.367 . S
C431 C439 1.433 . S
C432 H428 0.929 . S
C432 C434 1.378 . S
C432 C436 1.350 . S
C433 C436 1.463 . S
C433 C438 1.350 . S
C433 N441 1.427 . S
C434 H425 0.930 . S
C434 C432 1.378 . S
C434 C435 1.367 . S
C435 C434 1.367 . S
C435 C437 1.433 . S
C436 C432 1.350 . S
C436 C433 1.463 . S
C436 N440 1.427 . S
C437 H427 0.929 . S
C437 C435 1.433 . S
C437 N440 1.384 . S
C438 H429 0.929 . S
C438 C430 1.378 . S
C438 C433 1.350 . S
C439 H426 0.929 . S
C439 C431 1.433 . S
C439 N441 1.384 . S
N440 C436 1.427 . S
N440 C437 1.384 . S
N441 C433 1.427 . S
N441 C439 1.384 . S
H442 C448 0.930 . S
H443 C452 0.930 . S
H444 C457 0.929 . S
H445 C455 0.929 . S
H446 C450 0.929 . S
H447 C456 0.929 . S
C448 H442 0.930 . S
C448 C449 1.367 . S
C448 C456 1.378 . S
C449 C448 1.367 . S
C449 C457 1.433 . S
C450 H446 0.929 . S
C450 C452 1.378 . S
C450 C454 1.350 . S
C451 C454 1.463 . S
C451 C456 1.350 . S
C451 N459 1.427 . S
C452 H443 0.930 . S
C452 C450 1.378 . S
C452 C453 1.367 . S
C453 C452 1.367 . S
C453 C455 1.433 . S
C454 C450 1.350 . S
C454 C451 1.463 . S
C454 N458 1.427 . S
C455 H445 0.929 . S
C455 C453 1.433 . S
C455 N458 1.384 . S
C456 H447 0.929 . S
C456 C448 1.378 . S
C456 C451 1.350 . S
C457 H444 0.929 . S
C457 C449 1.433 . S
C457 N459 1.384 . S
N458 C454 1.427 . S
N458 C455 1.384 . S
N459 C451 1.427 . S
N459 C457 1.384 . S
H460 C466 0.930 . S
H461 C470 0.930 . S
H462 C475 0.929 . S
H463 C473 0.929 . S
H464 C468 0.929 . S
H465 C474 0.929 . S
C466 H460 0.930 . S
C466 C467 1.367 . S
C466 C474 1.378 . S
C467 C466 1.367 . S
C467 C475 1.433 . S
C468 H464 0.929 . S
C468 C470 1.378 1_655 S
C468 C472 1.350 . S
C469 C472 1.463 . S
C469 C474 1.350 . S
C469 N477 1.427 . S
C470 H461 0.930 . S
C470 C468 1.378 1_455 S
C470 C471 1.367 . S
C471 C470 1.367 . S
C471 C473 1.433 . S
C472 C468 1.350 . S
C472 C469 1.463 . S
C472 N476 1.427 . S
C473 H463 0.929 . S
C473 C471 1.433 . S
C473 N476 1.384 1_455 S
C474 H465 0.929 . S
C474 C466 1.378 . S
C474 C469 1.350 . S
C475 H462 0.929 . S
C475 C467 1.433 . S
C475 N477 1.384 . S
N476 C472 1.427 . S
N476 C473 1.384 1_655 S
N477 C469 1.427 . S
N477 C475 1.384 . S
H478 C484 0.930 . S
H479 C488 0.930 . S
H480 C493 0.929 . S
H481 C491 0.929 . S
H482 C486 0.929 . S
H483 C492 0.947 . S
C484 H478 0.930 . S
C484 C485 1.367 . S
C484 C492 1.378 . S
C485 C484 1.367 . S
C485 C493 1.433 . S
C486 H482 0.929 . S
C486 C488 1.378 . S
C486 C490 1.350 . S
C487 C490 1.463 . S
C487 C492 1.350 . S
C487 N495 1.427 . S
C488 H479 0.930 . S
C488 C486 1.378 . S
C488 C489 1.367 . S
C489 C488 1.367 . S
C489 C491 1.433 1_556 S
C490 C486 1.350 . S
C490 C487 1.463 . S
C490 N494 1.426 1_556 S
C491 H481 0.929 . S
C491 C489 1.433 1_554 S
C491 N494 1.384 . S
C492 H483 0.947 . S
C492 C484 1.378 . S
C492 C487 1.350 . S
C493 H480 0.929 . S
C493 C485 1.433 . S
C493 N495 1.384 . S
N494 C490 1.426 1_554 S
N494 C491 1.384 . S
N495 C487 1.427 . S
N495 C493 1.384 . S
H496 C502 0.930 . S
H497 C506 0.930 . S
H498 C511 0.929 . S
H499 C509 0.940 . S
H500 C504 0.929 . S
H501 C510 0.929 . S
C502 H496 0.930 . S
C502 C503 1.367 . S
C502 C510 1.378 . S
C503 C502 1.367 . S
C503 C511 1.433 1_545 S
C504 H500 0.929 . S
C504 C506 1.378 1_655 S
C504 C508 1.350 1_565 S
C505 C508 1.463 . S
C505 C510 1.350 . S
C505 N513 1.427 1_545 S
C506 H497 0.930 . S
C506 C504 1.378 1_455 S
C506 C507 1.367 1_565 S
C507 C506 1.367 1_545 S
C507 C509 1.446 . S
C508 C504 1.350 1_545 S
C508 C505 1.463 . S
C508 N512 1.427 . S
C509 H499 0.940 . S
C509 C507 1.446 . S
C509 N512 1.359 1_455 S
C510 H501 0.929 . S
C510 C502 1.378 . S
C510 C505 1.350 . S
C511 H498 0.929 . S
C511 C503 1.433 1_565 S
C511 N513 1.384 . S
N512 C508 1.427 . S
N512 C509 1.359 1_655 S
N513 C505 1.427 1_565 S
N513 C511 1.384 . S
H514 C520 0.930 . S
H515 C524 0.930 . S
H516 C529 0.940 . S
H517 C527 0.929 . S
H518 C522 0.929 . S
H519 C528 0.929 . S
C520 H514 0.930 . S
C520 C521 1.367 . S
C520 C528 1.378 . S
C521 C520 1.367 . S
C521 C529 1.420 1_554 S
C522 H518 0.929 . S
C522 C524 1.378 . S
C522 C526 1.350 1_556 S
C523 C526 1.463 . S
C523 C528 1.350 . S
C523 N531 1.427 1_554 S
C524 H515 0.930 . S
C524 C522 1.378 . S
C524 C525 1.367 1_556 S
C525 C524 1.367 1_554 S
C525 C527 1.433 . S
C526 C522 1.350 1_554 S
C526 C523 1.463 . S
C526 N530 1.427 . S
C527 H517 0.929 . S
C527 C525 1.433 . S
C527 N530 1.384 . S
C528 H519 0.929 . S
C528 C520 1.378 . S
C528 C523 1.350 . S
C529 H516 0.940 . S
C529 C521 1.420 1_556 S
C529 N531 1.386 . S
N530 C526 1.427 . S
N530 C527 1.384 . S
N531 C523 1.427 1_556 S
N531 C529 1.386 . S
H532 C538 0.930 . S
H533 C542 0.930 . S
H534 C547 0.929 . S
H535 C545 0.929 . S
H536 C540 0.929 1_545 S
H537 C546 0.929 . S
C538 H532 0.930 . S
C538 C539 1.367 . S
C538 C546 1.378 . S
C539 C538 1.367 . S
C539 C547 1.433 1_565 S
C540 H536 0.929 1_565 S
C540 C542 1.378 . S
C540 C544 1.350 . S
C541 C544 1.463 . S
C541 C546 1.350 . S
C541 N549 1.427 . S
C542 H533 0.930 . S
C542 C540 1.378 . S
C542 C543 1.367 . S
C543 C542 1.367 . S
C543 C545 1.433 . S
C544 C540 1.350 . S
C544 C541 1.463 . S
C544 N548 1.427 . S
C545 H535 0.929 . S
C545 C543 1.433 . S
C545 N548 1.384 . S
C546 H537 0.929 . S
C546 C538 1.378 . S
C546 C541 1.350 . S
C547 H534 0.929 . S
C547 C539 1.433 1_545 S
C547 N549 1.384 1_545 S
N548 C544 1.427 . S
N548 C545 1.384 . S
N549 C541 1.427 . S
N549 C547 1.384 1_565 S
H550 C556 0.930 . S
H551 C560 0.930 . S
H552 C565 0.929 . S
H553 C563 0.929 . S
H554 C558 0.929 . S
H555 C564 0.929 . S
C556 H550 0.930 . S
C556 C557 1.367 . S
C556 C564 1.378 . S
C557 C556 1.367 . S
C557 C565 1.433 . S
C558 H554 0.929 . S
C558 C560 1.378 . S
C558 C562 1.350 . S
C559 C562 1.463 . S
C559 C564 1.350 . S
C559 N567 1.427 . S
C560 H551 0.930 . S
C560 C558 1.378 . S
C560 C561 1.367 . S
C561 C560 1.367 . S
C561 C563 1.433 . S
C562 C558 1.350 . S
C562 C559 1.463 . S
C562 N566 1.427 . S
C563 H553 0.929 . S
C563 C561 1.433 . S
C563 N566 1.384 . S
C564 H555 0.929 . S
C564 C556 1.378 . S
C564 C559 1.350 . S
C565 H552 0.929 . S
C565 C557 1.433 . S
C565 N567 1.384 . S
N566 C562 1.427 . S
N566 C563 1.384 . S
N567 C559 1.427 . S
N567 C565 1.384 . S
H568 C574 0.930 1_655 S
H569 C578 0.930 . S
H570 C583 0.929 . S
H571 C581 0.929 . S
H572 C576 0.929 . S
H573 C582 0.929 . S
C574 H568 0.930 1_455 S
C574 C575 1.367 1_455 S
C574 C582 1.378 . S
C575 C574 1.367 1_655 S
C575 C583 1.433 . S
C576 H572 0.929 . S
C576 C578 1.378 . S
C576 C580 1.350 . S
C577 C580 1.463 . S
C577 C582 1.350 . S
C577 N585 1.427 . S
C578 H569 0.930 . S
C578 C576 1.378 . S
C578 C579 1.367 . S
C579 C578 1.367 . S
C579 C581 1.433 . S
C580 C576 1.350 . S
C580 C577 1.463 . S
C580 N584 1.427 . S
C581 H571 0.929 . S
C581 C579 1.433 . S
C581 N584 1.384 . S
C582 H573 0.929 . S
C582 C574 1.378 . S
C582 C577 1.350 . S
C583 H570 0.929 . S
C583 C575 1.433 . S
C583 N585 1.384 1_655 S
N584 C580 1.427 . S
N584 C581 1.384 . S
N585 C577 1.427 . S
N585 C583 1.384 1_455 S
H586 C592 0.930 . S
H587 C596 0.930 1_554 S
H588 C601 0.929 . S
H589 C599 0.929 . S
H590 C594 0.929 . S
H591 C600 0.929 . S
C592 H586 0.930 . S
C592 C593 1.367 . S
C592 C600 1.378 . S
C593 C592 1.367 . S
C593 C601 1.433 . S
C594 H590 0.929 . S
C594 C596 1.378 . S
C594 C598 1.350 . S
C595 C598 1.463 . S
C595 C600 1.350 . S
C595 N603 1.427 . S
C596 H587 0.930 1_556 S
C596 C594 1.378 . S
C596 C597 1.367 . S
C597 C596 1.367 . S
C597 C599 1.433 . S
C598 C594 1.350 . S
C598 C595 1.463 . S
C598 N602 1.427 . S
C599 H589 0.929 . S
C599 C597 1.433 . S
C599 N602 1.384 . S
C600 H591 0.929 . S
C600 C592 1.378 . S
C600 C595 1.350 . S
C601 H588 0.929 . S
C601 C593 1.433 . S
C601 N603 1.384 . S
N602 C598 1.427 . S
N602 C599 1.384 . S
N603 C595 1.427 . S
N603 C601 1.384 . S
H604 C610 0.930 . S
H605 C614 0.930 . S
H606 C619 0.929 . S
H607 C617 0.929 . S
H608 C612 0.929 . S
H609 C618 0.929 . S
C610 H604 0.930 . S
C610 C611 1.367 . S
C610 C618 1.378 . S
C611 C610 1.367 . S
C611 C619 1.433 1_545 S
C612 H608 0.929 . S
C612 C614 1.378 . S
C612 C616 1.350 1_565 S
C613 C616 1.463 . S
C613 C618 1.350 . S
C613 N621 1.427 1_545 S
C614 H605 0.930 . S
C614 C612 1.378 . S
C614 C615 1.367 1_565 S
C615 C614 1.367 1_545 S
C615 C617 1.433 . S
C616 C612 1.350 1_545 S
C616 C613 1.463 . S
C616 N620 1.427 . S
C617 H607 0.929 . S
C617 C615 1.433 . S
C617 N620 1.384 . S
C618 H609 0.929 . S
C618 C610 1.378 . S
C618 C613 1.350 . S
C619 H606 0.929 . S
C619 C611 1.433 1_565 S
C619 N621 1.384 . S
N620 C616 1.427 . S
N620 C617 1.384 . S
N621 C613 1.427 1_565 S
N621 C619 1.384 . S
H622 C628 0.930 . S
H623 C632 0.930 . S
H624 C637 0.929 . S
H625 C635 0.929 . S
H626 C630 0.929 . S
H627 C636 0.929 . S
C628 H622 0.930 . S
C628 C629 1.367 . S
C628 C636 1.378 . S
C629 C628 1.367 . S
C629 C637 1.433 . S
C630 H626 0.929 . S
C630 C632 1.378 . S
C630 C634 1.350 . S
C631 C634 1.463 . S
C631 C636 1.350 . S
C631 N639 1.427 . S
C632 H623 0.930 . S
C632 C630 1.378 . S
C632 C633 1.367 . S
C633 C632 1.367 . S
C633 C635 1.433 . S
C634 C630 1.350 . S
C634 C631 1.463 . S
C634 N638 1.427 . S
C635 H625 0.929 . S
C635 C633 1.433 . S
C635 N638 1.384 . S
C636 H627 0.929 . S
C636 C628 1.378 . S
C636 C631 1.350 . S
C637 H624 0.929 . S
C637 C629 1.433 . S
C637 N639 1.384 . S
N638 C634 1.427 . S
N638 C635 1.384 . S
N639 C631 1.427 . S
N639 C637 1.384 . S
H640 C646 0.930 . S
H641 C650 0.930 . S
H642 C655 0.929 . S
H643 C653 0.929 . S
H644 C648 0.929 . S
H645 C654 0.929 . S
C646 H640 0.930 . S
C646 C647 1.367 . S
C646 C654 1.378 . S
C647 C646 1.367 . S
C647 C655 1.433 . S
C648 H644 0.929 . S
C648 C650 1.378 . S
C648 C652 1.350 . S
C649 C652 1.463 . S
C649 C654 1.350 . S
C649 N657 1.427 . S
C650 H641 0.930 . S
C650 C648 1.378 . S
C650 C651 1.367 . S
C651 C650 1.367 . S
C651 C653 1.433 . S
C652 C648 1.350 . S
C652 C649 1.463 . S
C652 N656 1.427 . S
C653 H643 0.929 . S
C653 C651 1.433 . S
C653 N656 1.384 . S
C654 H645 0.929 . S
C654 C646 1.378 . S
C654 C649 1.350 . S
C655 H642 0.929 . S
C655 C647 1.433 . S
C655 N657 1.384 . S
N656 C652 1.427 . S
N656 C653 1.384 . S
N657 C649 1.427 . S
N657 C655 1.384 . S
H658 C664 0.930 . S
H659 C668 0.930 . S
H660 C673 0.929 . S
H661 C671 0.929 . S
H662 C666 0.929 . S
H663 C672 0.929 . S
C664 H658 0.930 . S
C664 C665 1.367 . S
C664 C672 1.378 . S
C665 C664 1.367 . S
C665 C673 1.433 . S
C666 H662 0.929 . S
C666 C668 1.378 . S
C666 C670 1.350 . S
C667 C670 1.463 1_455 S
C667 C672 1.350 . S
C667 N675 1.427 . S
C668 H659 0.930 . S
C668 C666 1.378 . S
C668 C669 1.367 . S
C669 C668 1.367 . S
C669 C671 1.433 . S
C670 C666 1.350 . S
C670 C667 1.463 1_655 S
C670 N674 1.427 . S
C671 H661 0.929 . S
C671 C669 1.433 . S
C671 N674 1.384 . S
C672 H663 0.929 . S
C672 C664 1.378 . S
C672 C667 1.350 . S
C673 H660 0.929 . S
C673 C665 1.433 . S
C673 N675 1.384 . S
N674 C670 1.427 . S
N674 C671 1.384 . S
N675 C667 1.427 . S
N675 C673 1.384 . S
H676 C682 0.930 . S
H677 C686 0.930 . S
H678 C691 0.929 . S
H679 C689 0.929 . S
H680 C684 0.929 . S
H681 C690 0.929 . S
C682 H676 0.930 . S
C682 C683 1.367 . S
C682 C690 1.378 . S
C683 C682 1.367 . S
C683 C691 1.433 . S
C684 H680 0.929 . S
C684 C686 1.378 . S
C684 C688 1.350 . S
C685 C688 1.463 . S
C685 C690 1.350 . S
C685 N693 1.427 . S
C686 H677 0.930 . S
C686 C684 1.378 . S
C686 C687 1.367 . S
C687 C686 1.367 . S
C687 C689 1.433 . S
C688 C684 1.350 . S
C688 C685 1.463 . S
C688 N692 1.427 . S
C689 H679 0.929 . S
C689 C687 1.433 . S
C689 N692 1.384 . S
C690 H681 0.929 . S
C690 C682 1.378 . S
C690 C685 1.350 . S
C691 H678 0.929 . S
C691 C683 1.433 . S
C691 N693 1.384 . S
N692 C688 1.427 . S
N692 C689 1.384 . S
N693 C685 1.427 . S
N693 C691 1.384 . S
H694 C700 0.930 . S
H695 C704 0.930 . S
H696 C709 0.929 . S
H697 C707 0.929 . S
H698 C702 0.929 . S
H699 C708 0.929 . S
C700 H694 0.930 . S
C700 C701 1.367 1_556 S
C700 C708 1.378 . S
C701 C700 1.367 1_554 S
C701 C709 1.433 . S
C702 H698 0.929 . S
C702 C704 1.378 . S
C702 C706 1.322 1_554 S
C703 C706 1.460 1_554 S
C703 C708 1.322 1_554 S
C703 N711 1.460 . S
C704 H695 0.930 . S
C704 C702 1.378 . S
C704 C705 1.367 1_554 S
C705 C704 1.367 1_556 S
C705 C707 1.433 . S
C706 C702 1.322 1_556 S
C706 C703 1.460 1_556 S
C706 N710 1.460 . S
C707 H697 0.929 . S
C707 C705 1.433 . S
C707 N710 1.384 . S
C708 H699 0.929 . S
C708 C700 1.378 . S
C708 C703 1.322 1_556 S
C709 H696 0.929 . S
C709 C701 1.433 . S
C709 N711 1.384 . S
N710 C706 1.460 . S
N710 C707 1.384 . S
N711 C703 1.460 . S
N711 C709 1.384 . S
H712 C718 0.930 . S
H713 C722 0.930 . S
H714 C727 0.929 . S
H715 C725 0.929 . S
H716 C720 0.929 . S
H717 C726 0.929 . S
C718 H712 0.930 . S
C718 C719 1.367 . S
C718 C726 1.378 . S
C719 C718 1.367 . S
C719 C727 1.433 . S
C720 H716 0.929 . S
C720 C722 1.378 . S
C720 C724 1.350 . S
C721 C724 1.463 . S
C721 C726 1.350 . S
C721 N729 1.427 . S
C722 H713 0.930 . S
C722 C720 1.378 . S
C722 C723 1.367 . S
C723 C722 1.367 . S
C723 C725 1.433 . S
C724 C720 1.350 . S
C724 C721 1.463 . S
C724 N728 1.427 . S
C725 H715 0.929 . S
C725 C723 1.433 . S
C725 N728 1.384 . S
C726 H717 0.929 . S
C726 C718 1.378 . S
C726 C721 1.350 . S
C727 H714 0.929 . S
C727 C719 1.433 . S
C727 N729 1.384 . S
N728 C724 1.427 . S
N728 C725 1.384 . S
N729 C721 1.427 . S
N729 C727 1.384 . S
H730 C736 0.930 . S
H731 C740 0.930 . S
H732 C745 0.929 . S
H733 C743 0.929 . S
H734 C738 0.929 . S
H735 C744 0.929 . S
C736 H730 0.930 . S
C736 C737 1.367 . S
C736 C744 1.378 . S
C737 C736 1.367 . S
C737 C745 1.433 . S
C738 H734 0.929 . S
C738 C740 1.378 . S
C738 C742 1.350 . S
C739 C742 1.463 . S
C739 C744 1.350 . S
C739 N747 1.427 . S
C740 H731 0.930 . S
C740 C738 1.378 . S
C740 C741 1.367 . S
C741 C740 1.367 . S
C741 C743 1.433 . S
C742 C738 1.350 . S
C742 C739 1.463 . S
C742 N746 1.427 . S
C743 H733 0.929 . S
C743 C741 1.433 . S
C743 N746 1.384 . S
C744 H735 0.929 . S
C744 C736 1.378 . S
C744 C739 1.350 . S
C745 H732 0.929 . S
C745 C737 1.433 . S
C745 N747 1.384 . S
N746 C742 1.427 . S
N746 C743 1.384 . S
N747 C739 1.427 . S
N747 C745 1.384 . S
H748 C754 0.930 . S
H749 C758 0.930 . S
H750 C763 0.929 . S
H751 C761 0.929 . S
H752 C756 0.929 . S
H753 C762 0.929 . S
C754 H748 0.930 . S
C754 C755 1.367 . S
C754 C762 1.378 . S
C755 C754 1.367 . S
C755 C763 1.433 1_556 S
C756 H752 0.929 . S
C756 C758 1.378 . S
C756 C760 1.350 . S
C757 C760 1.463 1_566 S
C757 C762 1.350 . S
C757 N765 1.427 1_556 S
C758 H749 0.930 . S
C758 C756 1.378 . S
C758 C759 1.367 . S
C759 C758 1.367 . S
C759 C761 1.433 1_554 S
C760 C756 1.350 . S
C760 C757 1.463 1_544 S
C760 N764 1.427 1_554 S
C761 H751 0.929 . S
C761 C759 1.433 1_556 S
C761 N764 1.384 . S
C762 H753 0.929 . S
C762 C754 1.378 . S
C762 C757 1.350 . S
C763 H750 0.929 . S
C763 C755 1.433 1_554 S
C763 N765 1.384 . S
N764 C760 1.427 1_556 S
N764 C761 1.384 . S
N765 C757 1.427 1_554 S
N765 C763 1.384 . S
H766 C772 0.930 . S
H767 C776 0.930 . S
H768 C781 0.929 . S
H769 C779 0.929 . S
H770 C774 0.929 . S
H771 C780 0.929 . S
C772 H766 0.930 . S
C772 C773 1.367 . S
C772 C780 1.378 . S
C773 C772 1.367 . S
C773 C781 1.433 1_565 S
C774 H770 0.929 . S
C774 C776 1.378 . S
C774 C778 1.350 . S
C775 C778 1.463 1_465 S
C775 C780 1.350 . S
C775 N783 1.427 1_565 S
C776 H767 0.930 . S
C776 C774 1.378 . S
C776 C777 1.367 . S
C777 C776 1.367 . S
C777 C779 1.433 1_545 S
C778 C774 1.350 . S
C778 C775 1.463 1_645 S
C778 N782 1.427 1_545 S
C779 H769 0.929 . S
C779 C777 1.433 1_565 S
C779 N782 1.384 . S
C780 H771 0.929 . S
C780 C772 1.378 . S
C780 C775 1.350 . S
C781 H768 0.929 . S
C781 C773 1.433 1_545 S
C781 N783 1.384 . S
N782 C778 1.427 1_565 S
N782 C779 1.384 . S
N783 C775 1.427 1_545 S
N783 C781 1.384 . S
H784 C790 0.930 . S
H785 C794 0.930 . S
H786 C799 0.929 . S
H787 C797 0.929 . S
H788 C792 0.929 . S
H789 C798 0.929 . S
C790 H784 0.930 . S
C790 C791 1.367 . S
C790 C798 1.378 . S
C791 C790 1.367 . S
C791 C799 1.433 . S
C792 H788 0.929 . S
C792 C794 1.378 . S
C792 C796 1.350 . S
C793 C796 1.463 . S
C793 C798 1.350 . S
C793 N801 1.427 . S
C794 H785 0.930 . S
C794 C792 1.378 . S
C794 C795 1.367 . S
C795 C794 1.367 . S
C795 C797 1.433 . S
C796 C792 1.350 . S
C796 C793 1.463 . S
C796 N800 1.427 . S
C797 H787 0.929 . S
C797 C795 1.433 . S
C797 N800 1.384 . S
C798 H789 0.929 . S
C798 C790 1.378 . S
C798 C793 1.350 . S
C799 H786 0.929 . S
C799 C791 1.433 . S
C799 N801 1.384 . S
N800 C796 1.427 . S
N800 C797 1.384 . S
N801 C793 1.427 . S
N801 C799 1.384 . S
H802 C808 0.930 . S
H803 C812 0.930 . S
H804 C817 0.929 . S
H805 C815 0.929 . S
H806 C810 0.929 . S
H807 C816 0.929 . S
C808 H802 0.930 . S
C808 C809 1.367 . S
C808 C816 1.378 . S
C809 C808 1.367 . S
C809 C817 1.433 . S
C810 H806 0.929 . S
C810 C812 1.378 . S
C810 C814 1.350 . S
C811 C814 1.463 . S
C811 C816 1.350 . S
C811 N819 1.427 . S
C812 H803 0.930 . S
C812 C810 1.378 . S
C812 C813 1.367 . S
C813 C812 1.367 . S
C813 C815 1.433 . S
C814 C810 1.350 . S
C814 C811 1.463 . S
C814 N818 1.427 . S
C815 H805 0.929 . S
C815 C813 1.433 . S
C815 N818 1.384 . S
C816 H807 0.929 . S
C816 C808 1.378 . S
C816 C811 1.350 . S
C817 H804 0.929 . S
C817 C809 1.433 . S
C817 N819 1.384 . S
N818 C814 1.427 . S
N818 C815 1.384 . S
N819 C811 1.427 . S
N819 C817 1.384 . S
H820 C826 0.930 . S
H821 C830 0.930 . S
H822 C835 0.929 . S
H823 C833 0.929 . S
H824 C828 0.929 . S
H825 C834 0.929 . S
C826 H820 0.930 . S
C826 C827 1.367 . S
C826 C834 1.378 . S
C827 C826 1.367 . S
C827 C835 1.433 . S
C828 H824 0.929 . S
C828 C830 1.378 . S
C828 C832 1.350 . S
C829 C832 1.463 . S
C829 C834 1.350 . S
C829 N837 1.427 . S
C830 H821 0.930 . S
C830 C828 1.378 . S
C830 C831 1.367 . S
C831 C830 1.367 . S
C831 C833 1.433 . S
C832 C828 1.350 . S
C832 C829 1.463 . S
C832 N836 1.427 . S
C833 H823 0.929 . S
C833 C831 1.433 . S
C833 N836 1.384 . S
C834 H825 0.929 . S
C834 C826 1.378 . S
C834 C829 1.350 . S
C835 H822 0.929 . S
C835 C827 1.433 . S
C835 N837 1.384 . S
N836 C832 1.427 . S
N836 C833 1.384 . S
N837 C829 1.427 . S
N837 C835 1.384 . S
H838 C844 0.930 . S
H839 C848 0.930 . S
H840 C853 0.929 . S
H841 C851 0.929 . S
H842 C846 0.929 . S
H843 C852 0.929 . S
C844 H838 0.930 . S
C844 C845 1.367 . S
C844 C852 1.378 . S
C845 C844 1.367 . S
C845 C853 1.433 . S
C846 H842 0.929 . S
C846 C848 1.378 . S
C846 C850 1.350 . S
C847 C850 1.463 . S
C847 C852 1.350 . S
C847 N855 1.427 . S
C848 H839 0.930 . S
C848 C846 1.378 . S
C848 C849 1.367 . S
C849 C848 1.367 . S
C849 C851 1.433 . S
C850 C846 1.350 . S
C850 C847 1.463 . S
C850 N854 1.427 . S
C851 H841 0.929 . S
C851 C849 1.433 . S
C851 N854 1.384 . S
C852 H843 0.929 . S
C852 C844 1.378 . S
C852 C847 1.350 . S
C853 H840 0.929 . S
C853 C845 1.433 . S
C853 N855 1.384 . S
N854 C850 1.427 . S
N854 C851 1.384 . S
N855 C847 1.427 . S
N855 C853 1.384 . S
H856 C862 0.930 . S
H857 C866 0.930 . S
H858 C871 0.929 . S
H859 C869 0.929 . S
H860 C864 0.929 . S
H861 C870 0.929 . S
C862 H856 0.930 . S
C862 C863 1.367 . S
C862 C870 1.378 . S
C863 C862 1.367 . S
C863 C871 1.433 . S
C864 H860 0.929 . S
C864 C866 1.378 . S
C864 C868 1.350 . S
C865 C868 1.463 . S
C865 C870 1.350 . S
C865 N873 1.427 . S
C866 H857 0.930 . S
C866 C864 1.378 . S
C866 C867 1.367 . S
C867 C866 1.367 . S
C867 C869 1.433 . S
C868 C864 1.350 . S
C868 C865 1.463 . S
C868 N872 1.427 . S
C869 H859 0.929 . S
C869 C867 1.433 . S
C869 N872 1.384 . S
C870 H861 0.929 . S
C870 C862 1.378 . S
C870 C865 1.350 . S
C871 H858 0.929 . S
C871 C863 1.433 . S
C871 N873 1.384 . S
N872 C868 1.427 . S
N872 C869 1.384 . S
N873 C865 1.427 . S
N873 C871 1.384 . S
H874 C880 0.930 . S
H875 C884 0.930 . S
H876 C889 0.929 . S
H877 C887 0.929 . S
H878 C882 0.929 . S
H879 C888 0.929 . S
C880 H874 0.930 . S
C880 C881 1.367 . S
C880 C888 1.378 . S
C881 C880 1.367 . S
C881 C889 1.433 . S
C882 H878 0.929 . S
C882 C884 1.378 . S
C882 C886 1.350 . S
C883 C886 1.463 . S
C883 C888 1.350 . S
C883 N891 1.427 . S
C884 H875 0.930 . S
C884 C882 1.378 . S
C884 C885 1.367 . S
C885 C884 1.367 . S
C885 C887 1.433 . S
C886 C882 1.350 . S
C886 C883 1.463 . S
C886 N890 1.427 . S
C887 H877 0.929 . S
C887 C885 1.433 . S
C887 N890 1.384 . S
C888 H879 0.929 . S
C888 C880 1.378 . S
C888 C883 1.350 . S
C889 H876 0.929 . S
C889 C881 1.433 . S
C889 N891 1.384 . S
N890 C886 1.427 . S
N890 C887 1.384 . S
N891 C883 1.427 . S
N891 C889 1.384 . S
H892 C898 0.930 . S
H893 C902 0.930 . S
H894 C907 0.929 . S
H895 C905 0.929 . S
H896 C900 0.929 . S
H897 C906 0.929 . S
C898 H892 0.930 . S
C898 C899 1.367 . S
C898 C906 1.378 . S
C899 C898 1.367 . S
C899 C907 1.433 . S
C900 H896 0.929 . S
C900 C902 1.378 . S
C900 C904 1.350 . S
C901 C904 1.463 . S
C901 C906 1.350 . S
C901 N909 1.427 . S
C902 H893 0.930 . S
C902 C900 1.378 . S
C902 C903 1.367 . S
C903 C902 1.367 . S
C903 C905 1.433 . S
C904 C900 1.350 . S
C904 C901 1.463 . S
C904 N908 1.427 . S
C905 H895 0.929 . S
C905 C903 1.433 . S
C905 N908 1.384 . S
C906 H897 0.929 . S
C906 C898 1.378 . S
C906 C901 1.350 . S
C907 H894 0.929 . S
C907 C899 1.433 . S
C907 N909 1.384 . S
N908 C904 1.427 . S
N908 C905 1.384 . S
N909 C901 1.427 . S
N909 C907 1.384 . S
H910 C916 0.930 . S
H911 C920 0.930 . S
H912 C925 0.929 . S
H913 C923 0.929 . S
H914 C918 0.929 . S
H915 C924 0.929 . S
C916 H910 0.930 . S
C916 C917 1.367 . S
C916 C924 1.378 . S
C917 C916 1.367 . S
C917 C925 1.433 . S
C918 H914 0.929 . S
C918 C920 1.378 . S
C918 C922 1.350 . S
C919 C922 1.463 . S
C919 C924 1.350 . S
C919 N927 1.427 . S
C920 H911 0.930 . S
C920 C918 1.378 . S
C920 C921 1.367 . S
C921 C920 1.367 . S
C921 C923 1.433 . S
C922 C918 1.350 . S
C922 C919 1.463 . S
C922 N926 1.427 . S
C923 H913 0.929 . S
C923 C921 1.433 . S
C923 N926 1.384 . S
C924 H915 0.929 . S
C924 C916 1.378 . S
C924 C919 1.350 . S
C925 H912 0.929 . S
C925 C917 1.433 . S
C925 N927 1.384 . S
N926 C922 1.427 . S
N926 C923 1.384 . S
N927 C919 1.427 . S
N927 C925 1.384 . S
H928 C934 0.930 . S
H929 C938 0.930 . S
H930 C943 0.929 . S
H931 C941 0.929 . S
H932 C936 0.929 . S
H933 C942 0.929 . S
C934 H928 0.930 . S
C934 C935 1.361 1_545 S
C934 C942 1.378 . S
C935 C934 1.361 1_565 S
C935 C943 1.443 . S
C936 H932 0.929 . S
C936 C938 1.378 . S
C936 C940 1.350 . S
C937 C940 1.463 . S
C937 C942 1.350 1_565 S
C937 N945 1.427 . S
C938 H929 0.930 . S
C938 C936 1.378 . S
C938 C939 1.367 . S
C939 C938 1.367 . S
C939 C941 1.433 . S
C940 C936 1.350 . S
C940 C937 1.463 . S
C940 N944 1.427 . S
C941 H931 0.929 . S
C941 C939 1.433 . S
C941 N944 1.384 . S
C942 H933 0.929 . S
C942 C934 1.378 . S
C942 C937 1.350 1_545 S
C943 H930 0.929 . S
C943 C935 1.443 . S
C943 N945 1.384 . S
N944 C940 1.427 . S
N944 C941 1.384 . S
N945 C937 1.427 . S
N945 C943 1.384 . S
H946 C952 0.930 . S
H947 C956 0.930 . S
H948 C961 0.929 . S
H949 C959 0.929 1_545 S
H950 C954 0.929 . S
H951 C960 0.929 . S
C952 H946 0.930 . S
C952 C953 1.367 . S
C952 C960 1.378 . S
C953 C952 1.367 . S
C953 C961 1.433 . S
C954 H950 0.929 . S
C954 C956 1.378 . S
C954 C958 1.350 . S
C955 C958 1.463 . S
C955 C960 1.350 . S
C955 N963 1.427 . S
C956 H947 0.930 . S
C956 C954 1.378 . S
C956 C957 1.367 . S
C957 C956 1.367 . S
C957 C959 1.433 . S
C958 C954 1.350 . S
C958 C955 1.463 . S
C958 N962 1.427 . S
C959 H949 0.929 1_565 S
C959 C957 1.433 . S
C959 N962 1.384 . S
C960 H951 0.929 . S
C960 C952 1.378 . S
C960 C955 1.350 . S
C961 H948 0.929 . S
C961 C953 1.433 . S
C961 N963 1.384 . S
N962 C958 1.427 . S
N962 C959 1.384 . S
N963 C955 1.427 . S
N963 C961 1.384 . S
H964 C970 0.930 . S
H965 C974 0.930 . S
H966 C979 0.929 1_565 S
H967 C977 0.929 . S
H968 C972 0.929 . S
H969 C978 0.929 . S
C970 H964 0.930 . S
C970 C971 1.367 . S
C970 C978 1.378 . S
C971 C970 1.367 . S
C971 C979 1.433 . S
C972 H968 0.929 . S
C972 C974 1.378 . S
C972 C976 1.350 1_565 S
C973 C976 1.463 . S
C973 C978 1.350 . S
C973 N981 1.427 . S
C974 H965 0.930 . S
C974 C972 1.378 . S
C974 C975 1.363 1_565 S
C975 C974 1.363 1_545 S
C975 C977 1.438 . S
C976 C972 1.350 1_545 S
C976 C973 1.463 . S
C976 N980 1.427 . S
C977 H967 0.929 . S
C977 C975 1.438 . S
C977 N980 1.384 . S
C978 H969 0.929 . S
C978 C970 1.378 . S
C978 C973 1.350 . S
C979 H966 0.929 1_545 S
C979 C971 1.433 . S
C979 N981 1.384 . S
N980 C976 1.427 . S
N980 C977 1.384 . S
N981 C973 1.427 . S
N981 C979 1.384 . S
H982 C988 0.930 . S
H983 C992 0.930 1_565 S
H984 C997 0.929 . S
H985 C995 0.929 . S
H986 C990 0.929 . S
H987 C996 0.929 . S
C988 H982 0.930 . S
C988 C989 1.367 . S
C988 C996 1.378 . S
C989 C988 1.367 . S
C989 C997 1.433 . S
C990 H986 0.929 . S
C990 C992 1.378 . S
C990 C994 1.350 . S
C991 C994 1.463 . S
C991 C996 1.350 . S
C991 N999 1.427 . S
C992 H983 0.930 1_545 S
C992 C990 1.378 . S
C992 C993 1.367 . S
C993 C992 1.367 . S
C993 C995 1.433 . S
C994 C990 1.350 . S
C994 C991 1.463 . S
C994 N998 1.427 . S
C995 H985 0.929 . S
C995 C993 1.433 . S
C995 N998 1.384 . S
C996 H987 0.929 . S
C996 C988 1.378 . S
C996 C991 1.350 . S
C997 H984 0.929 . S
C997 C989 1.433 . S
C997 N999 1.384 . S
N998 C994 1.427 . S
N998 C995 1.384 . S
N999 C991 1.427 . S
N999 C997 1.384 . S
H1000 C1006 0.930 . S
H1001 C1010 0.930 . S
H1002 C1015 0.929 . S
H1003 C1013 0.929 . S
H1004 C1008 0.929 1_565 S
H1005 C1014 0.929 . S
C1006 H1000 0.930 . S
C1006 C1007 1.367 . S
C1006 C1014 1.378 . S
C1007 C1006 1.367 . S
C1007 C1015 1.433 . S
C1008 H1004 0.929 1_545 S
C1008 C1010 1.378 1_545 S
C1008 C1012 1.350 . S
C1009 C1012 1.463 . S
C1009 C1014 1.350 . S
C1009 N1017 1.427 . S
C1010 H1001 0.930 . S
C1010 C1008 1.378 1_565 S
C1010 C1011 1.362 1_565 S
C1011 C1010 1.362 1_545 S
C1011 C1013 1.443 . S
C1012 C1008 1.350 . S
C1012 C1009 1.463 . S
C1012 N1016 1.427 . S
C1013 H1003 0.929 . S
C1013 C1011 1.443 . S
C1013 N1016 1.384 . S
C1014 H1005 0.929 . S
C1014 C1006 1.378 . S
C1014 C1009 1.350 . S
C1015 H1002 0.929 . S
C1015 C1007 1.433 . S
C1015 N1017 1.384 . S
N1016 C1012 1.427 . S
N1016 C1013 1.384 . S
N1017 C1009 1.427 . S
N1017 C1015 1.384 . S
H1018 C1024 0.930 . S
H1019 C1028 0.930 1_565 S
H1020 C1033 0.929 . S
H1021 C1031 0.929 . S
H1022 C1026 0.929 . S
H1023 C1032 0.929 . S
C1024 H1018 0.930 . S
C1024 C1025 1.367 . S
C1024 C1032 1.378 . S
C1025 C1024 1.367 . S
C1025 C1033 1.433 . S
C1026 H1022 0.929 . S
C1026 C1028 1.378 . S
C1026 C1030 1.350 . S
C1027 C1030 1.463 . S
C1027 C1032 1.350 . S
C1027 N1035 1.427 . S
C1028 H1019 0.930 1_545 S
C1028 C1026 1.378 . S
C1028 C1029 1.367 . S
C1029 C1028 1.367 . S
C1029 C1031 1.433 . S
C1030 C1026 1.350 . S
C1030 C1027 1.463 . S
C1030 N1034 1.427 . S
C1031 H1021 0.929 . S
C1031 C1029 1.433 . S
C1031 N1034 1.384 . S
C1032 H1023 0.929 . S
C1032 C1024 1.378 . S
C1032 C1027 1.350 . S
C1033 H1020 0.929 . S
C1033 C1025 1.433 . S
C1033 N1035 1.384 . S
N1034 C1030 1.427 . S
N1034 C1031 1.384 . S
N1035 C1027 1.427 . S
N1035 C1033 1.384 . S
H1036 C1042 0.930 . S
H1037 C1046 0.944 . S
H1038 C1051 0.929 . S
H1039 C1049 0.929 . S
H1040 C1044 0.929 1_545 S
H1041 C1050 0.929 . S
C1042 H1036 0.930 . S
C1042 C1043 1.367 . S
C1042 C1050 1.378 . S
C1043 C1042 1.367 . S
C1043 C1051 1.433 1_565 S
C1044 H1040 0.929 1_565 S
C1044 C1046 1.378 . S
C1044 C1048 1.350 . S
C1045 C1048 1.463 . S
C1045 C1050 1.350 . S
C1045 N1053 1.427 1_565 S
C1046 H1037 0.944 . S
C1046 C1044 1.378 . S
C1046 C1047 1.367 . S
C1047 C1046 1.367 . S
C1047 C1049 1.433 . S
C1048 C1044 1.350 . S
C1048 C1045 1.463 . S
C1048 N1052 1.427 . S
C1049 H1039 0.929 . S
C1049 C1047 1.433 . S
C1049 N1052 1.384 . S
C1050 H1041 0.929 . S
C1050 C1042 1.378 . S
C1050 C1045 1.350 . S
C1051 H1038 0.929 . S
C1051 C1043 1.433 1_545 S
C1051 N1053 1.384 . S
N1052 C1048 1.427 . S
N1052 C1049 1.384 . S
N1053 C1045 1.427 1_545 S
N1053 C1051 1.384 . S
H1054 C1060 0.930 . S
H1055 C1064 0.930 . S
H1056 C1069 0.929 1_545 S
H1057 C1067 0.929 . S
H1058 C1062 0.929 . S
H1059 C1068 0.929 . S
C1060 H1054 0.930 . S
C1060 C1061 1.367 . S
C1060 C1068 1.378 . S
C1061 C1060 1.367 . S
C1061 C1069 1.433 . S
C1062 H1058 0.929 . S
C1062 C1064 1.378 . S
C1062 C1066 1.350 . S
C1063 C1066 1.463 . S
C1063 C1068 1.350 . S
C1063 N1071 1.427 . S
C1064 H1055 0.930 . S
C1064 C1062 1.378 . S
C1064 C1065 1.367 . S
C1065 C1064 1.367 . S
C1065 C1067 1.433 . S
C1066 C1062 1.350 . S
C1066 C1063 1.463 . S
C1066 N1070 1.427 . S
C1067 H1057 0.929 . S
C1067 C1065 1.433 . S
C1067 N1070 1.384 . S
C1068 H1059 0.929 . S
C1068 C1060 1.378 . S
C1068 C1063 1.350 . S
C1069 H1056 0.929 1_565 S
C1069 C1061 1.433 . S
C1069 N1071 1.384 . S
N1070 C1066 1.427 . S
N1070 C1067 1.384 . S
N1071 C1063 1.427 . S
N1071 C1069 1.384 . S
H1072 C1078 0.930 . S
H1073 C1082 0.930 . S
H1074 C1087 0.929 . S
H1075 C1085 0.929 . S
H1076 C1080 0.929 . S
H1077 C1086 0.929 . S
C1078 H1072 0.930 . S
C1078 C1079 1.367 . S
C1078 C1086 1.378 . S
C1079 C1078 1.367 . S
C1079 C1087 1.433 . S
C1080 H1076 0.929 . S
C1080 C1082 1.378 . S
C1080 C1084 1.350 . S
C1081 C1084 1.463 1_455 S
C1081 C1086 1.350 . S
C1081 N1089 1.427 1_455 S
C1082 H1073 0.930 . S
C1082 C1080 1.378 . S
C1082 C1083 1.367 . S
C1083 C1082 1.367 . S
C1083 C1085 1.433 . S
C1084 C1080 1.350 . S
C1084 C1081 1.463 1_655 S
C1084 N1088 1.427 1_655 S
C1085 H1075 0.929 . S
C1085 C1083 1.433 . S
C1085 N1088 1.384 1_655 S
C1086 H1077 0.929 . S
C1086 C1078 1.378 . S
C1086 C1081 1.350 . S
C1087 H1074 0.929 . S
C1087 C1079 1.433 . S
C1087 N1089 1.384 1_455 S
N1088 C1084 1.427 1_455 S
N1088 C1085 1.384 1_455 S
N1089 C1081 1.427 1_655 S
N1089 C1087 1.384 1_655 S
H1090 C1096 0.930 . S
H1091 C1100 0.930 . S
H1092 C1105 0.929 . S
H1093 C1103 0.929 . S
H1094 C1098 0.929 . S
H1095 C1104 0.929 . S
C1096 H1090 0.930 . S
C1096 C1097 1.367 . S
C1096 C1104 1.378 . S
C1097 C1096 1.367 . S
C1097 C1105 1.433 . S
C1098 H1094 0.929 . S
C1098 C1100 1.378 . S
C1098 C1102 1.350 . S
C1099 C1102 1.463 1_455 S
C1099 C1104 1.350 . S
C1099 N1107 1.427 . S
C1100 H1091 0.930 . S
C1100 C1098 1.378 . S
C1100 C1101 1.367 . S
C1101 C1100 1.367 . S
C1101 C1103 1.433 . S
C1102 C1098 1.350 . S
C1102 C1099 1.463 1_655 S
C1102 N1106 1.427 . S
C1103 H1093 0.929 . S
C1103 C1101 1.433 . S
C1103 N1106 1.384 . S
C1104 H1095 0.929 . S
C1104 C1096 1.378 . S
C1104 C1099 1.350 . S
C1105 H1092 0.929 . S
C1105 C1097 1.433 . S
C1105 N1107 1.384 . S
N1106 C1102 1.427 . S
N1106 C1103 1.384 . S
N1107 C1099 1.427 . S
N1107 C1105 1.384 . S
H1108 C1114 0.930 . S
H1109 C1118 0.930 . S
H1110 C1123 0.929 . S
H1111 C1121 0.929 . S
H1112 C1116 0.929 . S
H1113 C1122 0.929 . S
C1114 H1108 0.930 . S
C1114 C1115 1.367 . S
C1114 C1122 1.378 . S
C1115 C1114 1.367 . S
C1115 C1123 1.433 . S
C1116 H1112 0.929 . S
C1116 C1118 1.378 . S
C1116 C1120 1.350 . S
C1117 C1120 1.463 . S
C1117 C1122 1.350 . S
C1117 N1125 1.427 . S
C1118 H1109 0.930 . S
C1118 C1116 1.378 . S
C1118 C1119 1.367 . S
C1119 C1118 1.367 . S
C1119 C1121 1.433 . S
C1120 C1116 1.350 . S
C1120 C1117 1.463 . S
C1120 N1124 1.427 . S
C1121 H1111 0.929 . S
C1121 C1119 1.433 . S
C1121 N1124 1.384 . S
C1122 H1113 0.929 . S
C1122 C1114 1.378 . S
C1122 C1117 1.350 . S
C1123 H1110 0.929 . S
C1123 C1115 1.433 . S
C1123 N1125 1.384 . S
N1124 C1120 1.427 . S
N1124 C1121 1.384 . S
N1125 C1117 1.427 . S
N1125 C1123 1.384 . S
H1126 C1132 0.930 . S
H1127 C1136 0.930 . S
H1128 C1141 0.929 . S
H1129 C1139 0.929 . S
H1130 C1134 0.929 . S
H1131 C1140 0.929 . S
C1132 H1126 0.930 . S
C1132 C1133 1.367 . S
C1132 C1140 1.378 . S
C1133 C1132 1.367 . S
C1133 C1141 1.433 . S
C1134 H1130 0.929 . S
C1134 C1136 1.378 . S
C1134 C1138 1.350 . S
C1135 C1138 1.463 . S
C1135 C1140 1.350 . S
C1135 N1143 1.427 . S
C1136 H1127 0.930 . S
C1136 C1134 1.378 . S
C1136 C1137 1.367 . S
C1137 C1136 1.367 . S
C1137 C1139 1.433 . S
C1138 C1134 1.350 . S
C1138 C1135 1.463 . S
C1138 N1142 1.427 . S
C1139 H1129 0.929 . S
C1139 C1137 1.433 . S
C1139 N1142 1.384 . S
C1140 H1131 0.929 . S
C1140 C1132 1.378 . S
C1140 C1135 1.350 . S
C1141 H1128 0.929 . S
C1141 C1133 1.433 . S
C1141 N1143 1.384 . S
N1142 C1138 1.427 . S
N1142 C1139 1.384 . S
N1143 C1135 1.427 . S
N1143 C1141 1.384 . S
H1144 C1150 0.930 . S
H1145 C1154 0.930 . S
H1146 C1159 0.929 . S
H1147 C1157 0.929 . S
H1148 C1152 0.929 . S
H1149 C1158 0.929 . S
C1150 H1144 0.930 . S
C1150 C1151 1.367 . S
C1150 C1158 1.378 . S
C1151 C1150 1.367 . S
C1151 C1159 1.433 . S
C1152 H1148 0.929 . S
C1152 C1154 1.378 . S
C1152 C1156 1.350 . S
C1153 C1156 1.463 1_455 S
C1153 C1158 1.350 . S
C1153 N1161 1.427 . S
C1154 H1145 0.930 . S
C1154 C1152 1.378 . S
C1154 C1155 1.367 . S
C1155 C1154 1.367 . S
C1155 C1157 1.433 . S
C1156 C1152 1.350 . S
C1156 C1153 1.463 1_655 S
C1156 N1160 1.427 . S
C1157 H1147 0.929 . S
C1157 C1155 1.433 . S
C1157 N1160 1.384 . S
C1158 H1149 0.929 . S
C1158 C1150 1.378 . S
C1158 C1153 1.350 . S
C1159 H1146 0.929 . S
C1159 C1151 1.433 . S
C1159 N1161 1.384 . S
N1160 C1156 1.427 . S
N1160 C1157 1.384 . S
N1161 C1153 1.427 . S
N1161 C1159 1.384 . S
H1162 C1168 0.930 . S
H1163 C1172 0.930 . S
H1164 C1177 0.929 . S
H1165 C1175 0.929 . S
H1166 C1170 0.929 . S
H1167 C1176 0.929 . S
C1168 H1162 0.930 . S
C1168 C1169 1.367 . S
C1168 C1176 1.378 . S
C1169 C1168 1.367 . S
C1169 C1177 1.433 . S
C1170 H1166 0.929 . S
C1170 C1172 1.378 . S
C1170 C1174 1.350 . S
C1171 C1174 1.463 1_655 S
C1171 C1176 1.350 . S
C1171 N1179 1.427 . S
C1172 H1163 0.930 . S
C1172 C1170 1.378 . S
C1172 C1173 1.367 . S
C1173 C1172 1.367 . S
C1173 C1175 1.433 . S
C1174 C1170 1.350 . S
C1174 C1171 1.463 1_455 S
C1174 N1178 1.427 . S
C1175 H1165 0.929 . S
C1175 C1173 1.433 . S
C1175 N1178 1.384 . S
C1176 H1167 0.929 . S
C1176 C1168 1.378 . S
C1176 C1171 1.350 . S
C1177 H1164 0.929 . S
C1177 C1169 1.433 . S
C1177 N1179 1.384 . S
N1178 C1174 1.427 . S
N1178 C1175 1.384 . S
N1179 C1171 1.427 . S
N1179 C1177 1.384 . S
H1180 C1186 0.930 . S
H1181 C1190 0.930 . S
H1182 C1195 0.929 . S
H1183 C1193 0.929 . S
H1184 C1188 0.929 . S
H1185 C1194 0.929 . S
C1186 H1180 0.930 . S
C1186 C1187 1.367 . S
C1186 C1194 1.378 . S
C1187 C1186 1.367 . S
C1187 C1195 1.433 . S
C1188 H1184 0.929 . S
C1188 C1190 1.378 . S
C1188 C1192 1.350 . S
C1189 C1192 1.463 . S
C1189 C1194 1.350 . S
C1189 N1197 1.427 . S
C1190 H1181 0.930 . S
C1190 C1188 1.378 . S
C1190 C1191 1.367 . S
C1191 C1190 1.367 . S
C1191 C1193 1.433 . S
C1192 C1188 1.350 . S
C1192 C1189 1.463 . S
C1192 N1196 1.427 . S
C1193 H1183 0.929 . S
C1193 C1191 1.433 . S
C1193 N1196 1.384 . S
C1194 H1185 0.929 . S
C1194 C1186 1.378 . S
C1194 C1189 1.350 . S
C1195 H1182 0.929 . S
C1195 C1187 1.433 . S
C1195 N1197 1.384 . S
N1196 C1192 1.427 . S
N1196 C1193 1.384 . S
N1197 C1189 1.427 . S
N1197 C1195 1.384 . S
H1198 C1204 0.930 . S
H1199 C1208 0.930 . S
H1200 C1213 0.929 . S
H1201 C1211 0.929 . S
H1202 C1206 0.929 . S
H1203 C1212 0.929 . S
C1204 H1198 0.930 . S
C1204 C1205 1.367 . S
C1204 C1212 1.378 . S
C1205 C1204 1.367 . S
C1205 C1213 1.433 . S
C1206 H1202 0.929 . S
C1206 C1208 1.378 . S
C1206 C1210 1.350 . S
C1207 C1210 1.463 . S
C1207 C1212 1.350 . S
C1207 N1215 1.427 . S
C1208 H1199 0.930 . S
C1208 C1206 1.378 . S
C1208 C1209 1.367 . S
C1209 C1208 1.367 . S
C1209 C1211 1.433 . S
C1210 C1206 1.350 . S
C1210 C1207 1.463 . S
C1210 N1214 1.427 . S
C1211 H1201 0.929 . S
C1211 C1209 1.433 . S
C1211 N1214 1.384 . S
C1212 H1203 0.929 . S
C1212 C1204 1.378 . S
C1212 C1207 1.350 . S
C1213 H1200 0.929 . S
C1213 C1205 1.433 . S
C1213 N1215 1.384 . S
N1214 C1210 1.427 . S
N1214 C1211 1.384 . S
N1215 C1207 1.427 . S
N1215 C1213 1.384 . S
C359 C5 1.646 . S
C363 C136 1.588 . S
C377 C334 1.586 . S
C381 C27 1.645 . S
C395 C53 1.646 . S
C399 C96 1.590 . S
C413 C294 1.587 . S
C417 C71 1.645 . S
C431 C48 1.592 . S
C435 C94 1.646 . S
C449 C250 1.595 . S
C453 C116 1.645 . S
C467 C139 1.644 . S
C471 C8 1.597 . S
C485 C161 1.645 . S
C489 C206 1.586 . S
C503 C181 1.644 . S
C507 C312 1.594 . S
C521 C203 1.645 . S
C525 C158 1.597 . S
C539 C272 1.594 . S
C543 C229 1.646 . S
C557 C118 1.588 . S
C561 C247 1.645 . S
C575 C224 1.596 . S
C579 C270 1.645 . S
C593 C292 1.644 . S
C597 C74 1.599 . S
C611 C184 1.586 . S
C615 C315 1.646 . S
C629 C30 1.591 . S
C633 C337 1.644 . S
C647 C6 0.575 . S
C651 C269 0.575 . S
C665 C28 0.545 . S
C669 C115 0.545 . S
C683 C51 0.561 . S
C687 C317 0.561 . S
C701 C163 0.512 1_554 S
C705 C72 0.512 1_556 S
C719 C93 0.575 . S
C723 C182 0.575 . S
C737 C227 0.573 . S
C741 C141 0.573 . S
C755 C204 0.552 1_556 S
C759 C291 0.552 1_554 S
C773 C339 0.526 . S
C777 C248 0.526 . S
C791 C7 1.411 . S
C795 C26 1.478 . S
C809 C52 1.479 . S
C813 C29 1.406 . S
C827 C50 1.421 . S
C831 C70 1.484 . S
C845 C73 1.407 . S
C849 C4 1.480 . S
C863 C114 1.489 . S
C867 C97 1.425 . S
C881 C140 1.485 . S
C885 C119 1.423 . S
C899 C162 1.481 . S
C903 C137 1.416 . S
C917 C92 1.489 . S
C921 C159 1.425 . S
C935 C183 1.416 1_565 S
C939 C202 1.484 . S
C953 C205 1.405 . S
C957 C228 1.476 . S
C971 C246 1.477 . S
C975 C226 1.408 1_545 S
C989 C249 1.425 . S
C993 C180 1.488 . S
C1007 C290 1.485 . S
C1011 C273 1.416 1_545 S
C1025 C295 1.424 . S
C1029 C316 1.486 . S
C1043 C313 1.423 1_565 S
C1047 C338 1.489 . S
C1061 C268 1.476 . S
C1065 C335 1.405 . S
C1079 C9 1.378 . S
C1083 C225 1.376 . S
C1097 C31 1.389 . S
C1101 C251 1.373 . S
C1115 C49 1.387 . S
C1119 C185 1.373 . S
C1133 C207 1.389 . S
C1137 C75 1.387 . S
C1151 C314 1.374 . S
C1155 C95 1.390 . S
C1169 C117 1.392 . S
C1173 C336 1.380 . S
C1187 C138 1.375 . S
C1191 C271 1.380 . S
C1205 C293 1.373 . S
C1209 C160 1.388 . S
