# Generated by pormake.
# Topology umo, (4)-cn, num edge types: 1
# Building blocks:
#     Node 0, Type 0, BuildingBlock: CEKHIL_clean_sbu_0, # of connection points: 4
#     Node 1, Type 0, BuildingBlock: CEKHIL_clean_sbu_0, # of connection points: 4
#     Node 2, Type 0, BuildingBlock: CEKHIL_clean_sbu_0, # of connection points: 4
#     Node 3, Type 0, BuildingBlock: CEKHIL_clean_sbu_0, # of connection points: 4
#     Node 4, Type 0, BuildingBlock: CEKHIL_clean_sbu_0, # of connection points: 4
#     Node 5, Type 0, BuildingBlock: CEKHIL_clean_sbu_0, # of connection points: 4
#     Node 6, Type 0, BuildingBlock: CEKHIL_clean_sbu_0, # of connection points: 4
#     Node 7, Type 0, BuildingBlock: CEKHIL_clean_sbu_0, # of connection points: 4
#     Node 8, Type 0, BuildingBlock: CEKHIL_clean_sbu_0, # of connection points: 4
#     Node 9, Type 0, BuildingBlock: CEKHIL_clean_sbu_0, # of connection points: 4
#     Node 10, Type 0, BuildingBlock: CEKHIL_clean_sbu_0, # of connection points: 4
#     Node 11, Type 0, BuildingBlock: CEKHIL_clean_sbu_0, # of connection points: 4
#     Edge 12, Type (0, 0), BuildingBlock: EZIPEK_clean_linker_0, # of connection points: 2
#     Edge 13, Type (0, 0), BuildingBlock: EZIPEK_clean_linker_0, # of connection points: 2
#     Edge 14, Type (0, 0), BuildingBlock: EZIPEK_clean_linker_0, # of connection points: 2
#     Edge 15, Type (0, 0), BuildingBlock: EZIPEK_clean_linker_0, # of connection points: 2
#     Edge 16, Type (0, 0), BuildingBlock: EZIPEK_clean_linker_0, # of connection points: 2
#     Edge 17, Type (0, 0), BuildingBlock: EZIPEK_clean_linker_0, # of connection points: 2
#     Edge 18, Type (0, 0), BuildingBlock: EZIPEK_clean_linker_0, # of connection points: 2
#     Edge 19, Type (0, 0), BuildingBlock: EZIPEK_clean_linker_0, # of connection points: 2
#     Edge 20, Type (0, 0), BuildingBlock: EZIPEK_clean_linker_0, # of connection points: 2
#     Edge 21, Type (0, 0), BuildingBlock: EZIPEK_clean_linker_0, # of connection points: 2
#     Edge 22, Type (0, 0), BuildingBlock: EZIPEK_clean_linker_0, # of connection points: 2
#     Edge 23, Type (0, 0), BuildingBlock: EZIPEK_clean_linker_0, # of connection points: 2
#     Edge 24, Type (0, 0), BuildingBlock: EZIPEK_clean_linker_0, # of connection points: 2
#     Edge 25, Type (0, 0), BuildingBlock: EZIPEK_clean_linker_0, # of connection points: 2
#     Edge 26, Type (0, 0), BuildingBlock: EZIPEK_clean_linker_0, # of connection points: 2
#     Edge 27, Type (0, 0), BuildingBlock: EZIPEK_clean_linker_0, # of connection points: 2
#     Edge 28, Type (0, 0), BuildingBlock: EZIPEK_clean_linker_0, # of connection points: 2
#     Edge 29, Type (0, 0), BuildingBlock: EZIPEK_clean_linker_0, # of connection points: 2
#     Edge 30, Type (0, 0), BuildingBlock: EZIPEK_clean_linker_0, # of connection points: 2
#     Edge 31, Type (0, 0), BuildingBlock: EZIPEK_clean_linker_0, # of connection points: 2
#     Edge 32, Type (0, 0), BuildingBlock: EZIPEK_clean_linker_0, # of connection points: 2
#     Edge 33, Type (0, 0), BuildingBlock: EZIPEK_clean_linker_0, # of connection points: 2
#     Edge 34, Type (0, 0), BuildingBlock: EZIPEK_clean_linker_0, # of connection points: 2
#     Edge 35, Type (0, 0), BuildingBlock: EZIPEK_clean_linker_0, # of connection points: 2
# Relax obj value: 0.181
# Max RMSD: 0.260
# Mean RMSD: 0.260
data_MOF--net-umo--node1-CEKHIL_clean_sbu_0--edge1-EZIPEK_clean_linker_0
_symmetry_space_group_name_H-M    P1
_symmetry_Int_Tables_number       1
_symmetry_cell_setting            triclinic
loop_
_symmetry_equiv_pos_as_xyz
'x, y, z'
_cell_length_a     35.411212
_cell_length_b     35.332697
_cell_length_c     26.056629
_cell_angle_alpha  89.9698
_cell_angle_beta   90.000046
_cell_angle_gamma 119.85458
loop_
_atom_site_label
_atom_site_type_symbol
_atom_site_fract_x
_atom_site_fract_y
_atom_site_fract_z
_atom_type_partial_charge
Co0 Co 0.14371 0.52724 0.38167 0.0
O1 O 0.08484 0.4826 0.36983 0.0
O2 O 0.10864 0.55384 0.36728 0.0
C3 C 0.17833 0.50192 0.32786 0.0
O4 O 0.20176 0.58167 0.39035 0.0
Co5 Co 0.20205 0.50032 0.43975 0.0
O6 O 0.24722 0.56059 0.42388 0.0
C7 C 0.14722 0.52464 0.50097 0.0
C8 C 0.0767 0.51413 0.36202 0.0
C9 C 0.23919 0.5894 0.40621 0.0
O10 O 0.1324 0.52957 0.45794 0.0
O11 O 0.17528 0.51178 0.50236 0.0
O12 O 0.1585 0.52182 0.31143 0.0
O13 O 0.16953 0.49088 0.37608 0.0
Co14 Co 0.60937 0.14343 0.55022 0.0
O15 O 0.5935 0.0842 0.53665 0.0
O16 O 0.54844 0.11086 0.53209 0.0
C17 C 0.67184 0.17666 0.50098 0.0
O18 O 0.61429 0.20199 0.55968 0.0
Co19 Co 0.69122 0.19793 0.61366 0.0
O20 O 0.67553 0.24381 0.60465 0.0
C21 C 0.61048 0.1427 0.67007 0.0
C22 C 0.55477 0.07785 0.52728 0.0
C23 C 0.6415 0.23782 0.58127 0.0
O24 O 0.5919 0.12984 0.62594 0.0
O25 O 0.65134 0.16955 0.67346 0.0
O26 O 0.63348 0.16104 0.48101 0.0
O27 O 0.67129 0.16621 0.5491 0.0
Co28 Co 0.47836 0.63235 0.72373 0.0
O29 O 0.52443 0.61983 0.71172 0.0
O30 O 0.45371 0.57081 0.712 0.0
C31 C 0.5019 0.69108 0.66867 0.0
O32 O 0.42183 0.63186 0.73235 0.0
Co33 Co 0.49561 0.71371 0.77856 0.0
O34 O 0.43433 0.69586 0.76489 0.0
C35 C 0.47177 0.63629 0.84086 0.0
C36 C 0.49369 0.57947 0.70695 0.0
C37 C 0.40902 0.65802 0.7473 0.0
O38 O 0.47813 0.61964 0.80019 0.0
O39 O 0.47818 0.67522 0.84121 0.0
O40 O 0.48037 0.65097 0.65323 0.0
O41 O 0.51393 0.69528 0.71678 0.0
Co42 Co 0.84269 0.46437 0.88306 0.0
O43 O 0.90182 0.50962 0.87511 0.0
O44 O 0.87927 0.43855 0.87503 0.0
C45 C 0.81084 0.48856 0.82468 0.0
O46 O 0.78352 0.40926 0.88953 0.0
Co47 Co 0.78084 0.48972 0.93378 0.0
O48 O 0.73601 0.43139 0.91223 0.0
C49 C 0.82665 0.45728 0.9992 0.0
C50 C 0.91112 0.47857 0.87149 0.0
C51 C 0.74481 0.40198 0.89941 0.0
O52 O 0.85103 0.46307 0.96018 0.0
O53 O 0.79604 0.46661 0.99728 0.0
O54 O 0.83173 0.4689 0.81098 0.0
O55 O 0.81707 0.50048 0.8729 0.0
Co56 Co 0.39025 0.85223 0.04311 0.0
O57 O 0.40841 0.91108 0.02462 0.0
O58 O 0.45292 0.88416 0.03325 0.0
C59 C 0.33299 0.81692 0.98674 0.0
O60 O 0.38085 0.79266 0.0615 0.0
Co61 Co 0.30124 0.80576 0.09764 0.0
O62 O 0.31667 0.75965 0.10389 0.0
C63 C 0.37935 0.85562 0.16139 0.0
C64 C 0.44763 0.91724 0.02276 0.0
C65 C 0.35056 0.76033 0.08632 0.0
O66 O 0.40104 0.86766 0.11913 0.0
O67 O 0.33793 0.8309 0.16116 0.0
O68 O 0.37299 0.83316 0.97202 0.0
O69 O 0.32942 0.83017 0.03226 0.0
Co70 Co 0.51947 0.37188 0.21947 0.0
O71 O 0.48001 0.39071 0.19728 0.0
O72 O 0.55173 0.43332 0.20264 0.0
C73 C 0.49366 0.31011 0.16922 0.0
O74 O 0.56986 0.36418 0.23876 0.0
Co75 Co 0.48422 0.2902 0.28311 0.0
O76 O 0.54549 0.30476 0.28899 0.0
C77 C 0.51048 0.37157 0.33834 0.0
C78 C 0.51402 0.4291 0.19173 0.0
C79 C 0.57584 0.33802 0.26691 0.0
O80 O 0.51708 0.38944 0.2937 0.0
O81 O 0.49607 0.33061 0.34283 0.0
O82 O 0.51975 0.34883 0.15176 0.0
O83 O 0.47801 0.30975 0.2148 0.0
Co84 Co 0.46328 0.83536 0.46155 0.0
O85 O 0.50548 0.89464 0.47623 0.0
O86 O 0.4338 0.86771 0.47645 0.0
C87 C 0.49123 0.80228 0.51288 0.0
O88 O 0.41054 0.77663 0.44872 0.0
Co89 Co 0.49183 0.78326 0.39906 0.0
O90 O 0.4319 0.73468 0.40741 0.0
C91 C 0.46311 0.83536 0.3428 0.0
C92 C 0.47273 0.90118 0.48128 0.0
C93 C 0.40269 0.74073 0.42753 0.0
O94 O 0.46165 0.85064 0.38687 0.0
O95 O 0.47612 0.80773 0.33754 0.0
O96 O 0.46652 0.81666 0.53044 0.0
O97 O 0.50405 0.81378 0.46543 0.0
Co98 Co 0.62625 0.46809 0.63145 0.0
O99 O 0.61476 0.51382 0.64892 0.0
O100 O 0.56648 0.44275 0.65319 0.0
C101 C 0.68989 0.49335 0.67643 0.0
O102 O 0.62697 0.41229 0.61777 0.0
Co103 Co 0.70203 0.48995 0.56124 0.0
O104 O 0.68287 0.42736 0.56482 0.0
C105 C 0.61784 0.46298 0.51331 0.0
C106 C 0.57553 0.48294 0.65903 0.0
C107 C 0.64997 0.40086 0.59091 0.0
O108 O 0.60481 0.4661 0.55833 0.0
O109 O 0.65711 0.47232 0.50484 0.0
O110 O 0.65223 0.47185 0.69824 0.0
O111 O 0.68887 0.50493 0.62895 0.0
Co112 Co 0.15689 0.62068 0.8042 0.0
O113 O 0.10017 0.61001 0.82337 0.0
O114 O 0.1205 0.55972 0.81984 0.0
C115 C 0.19793 0.68105 0.85456 0.0
O116 O 0.21148 0.61905 0.78689 0.0
Co117 Co 0.21604 0.70237 0.74192 0.0
O118 O 0.25723 0.68037 0.74459 0.0
C119 C 0.1579 0.62109 0.68642 0.0
C120 C 0.09031 0.56955 0.82859 0.0
C121 C 0.2472 0.6432 0.76307 0.0
O122 O 0.13853 0.60553 0.72949 0.0
O123 O 0.18951 0.6603 0.68227 0.0
O124 O 0.17892 0.64186 0.87314 0.0
O125 O 0.18596 0.68345 0.80779 0.0
Co126 Co 0.52534 0.15712 0.96979 0.0
O127 O 0.48691 0.09682 0.98629 0.0
O128 O 0.55904 0.12872 0.98282 0.0
C129 C 0.49593 0.18861 0.02199 0.0
O130 O 0.57524 0.21698 0.95439 0.0
Co131 Co 0.49081 0.20526 0.90863 0.0
O132 O 0.54932 0.25656 0.91689 0.0
C133 C 0.52151 0.15562 0.85091 0.0
C134 C 0.52173 0.0934 0.98906 0.0
C135 C 0.58055 0.25228 0.93407 0.0
O136 O 0.52535 0.1415 0.89485 0.0
O137 O 0.50632 0.18154 0.84641 0.0
O138 O 0.52251 0.17624 0.03893 0.0
O139 O 0.48232 0.17565 0.97514 0.0
Co140 Co 0.37012 0.53077 0.14245 0.0
O141 O 0.3863 0.48678 0.14641 0.0
O142 O 0.43113 0.55749 0.15994 0.0
C143 C 0.30655 0.49659 0.1898 0.0
O144 O 0.36346 0.58422 0.14237 0.0
Co145 Co 0.29089 0.50609 0.07604 0.0
O146 O 0.3126 0.56929 0.08238 0.0
C147 C 0.37315 0.54092 0.02266 0.0
C148 C 0.42532 0.51819 0.1564 0.0
C149 C 0.34141 0.59553 0.11366 0.0
O150 O 0.38962 0.54263 0.06724 0.0
O151 O 0.33218 0.5245 0.01627 0.0
O152 O 0.34453 0.51704 0.21138 0.0
O153 O 0.3086 0.49132 0.14054 0.0
Co154 Co 0.8298 0.36876 0.30597 0.0
O155 O 0.88865 0.38133 0.31254 0.0
O156 O 0.8667 0.43031 0.31774 0.0
C157 C 0.79637 0.30945 0.36011 0.0
O158 O 0.77198 0.36669 0.30096 0.0
Co159 Co 0.7672 0.28362 0.24986 0.0
O160 O 0.72364 0.29841 0.27541 0.0
C161 C 0.81925 0.36257 0.18774 0.0
C162 C 0.89829 0.42161 0.31886 0.0
C163 C 0.73318 0.33655 0.29006 0.0
O164 O 0.83784 0.38211 0.22962 0.0
O165 O 0.79129 0.32169 0.18636 0.0
O166 O 0.81806 0.34905 0.377 0.0
O167 O 0.80286 0.3068 0.31126 0.0
C168 C 0.28663 0.65464 0.45669 0.0
C169 C 0.27472 0.63421 0.40812 0.0
C170 C 0.3417 0.69122 0.37059 0.0
C171 C 0.35731 0.7065 0.42097 0.0
N172 N 0.34598 0.70167 0.51282 0.0
N173 N 0.28962 0.63108 0.31858 0.0
C174 C 0.32992 0.68855 0.46436 0.0
C175 C 0.30155 0.65229 0.36469 0.0
N176 N 0.25657 0.64093 0.49537 0.0
N177 N 0.36479 0.71431 0.32854 0.0
H178 H 0.25948 0.60315 0.31277 0.0
H179 H 0.31041 0.6397 0.28708 0.0
H180 H 0.39425 0.74343 0.33117 0.0
H181 H 0.35277 0.70693 0.29122 0.0
H182 H 0.26211 0.65687 0.53051 0.0
H183 H 0.22445 0.61601 0.49025 0.0
H184 H 0.32845 0.6866 0.54591 0.0
H185 H 0.37813 0.72538 0.52031 0.0
C186 C 0.62711 0.28867 0.63011 0.0
C187 C 0.63231 0.2736 0.58192 0.0
C188 C 0.63292 0.33515 0.53975 0.0
C189 C 0.63766 0.35481 0.58861 0.0
N190 N 0.64439 0.35213 0.68085 0.0
N191 N 0.64243 0.28268 0.49017 0.0
C192 C 0.63526 0.33187 0.63418 0.0
C193 C 0.63505 0.29638 0.53624 0.0
N194 N 0.6147 0.2617 0.67188 0.0
N195 N 0.62626 0.35343 0.49697 0.0
H196 H 0.64414 0.25422 0.48603 0.0
H197 H 0.64987 0.30116 0.45669 0.0
H198 H 0.62446 0.38196 0.49822 0.0
H199 H 0.61817 0.33793 0.4614 0.0
H200 H 0.60631 0.2698 0.70683 0.0
H201 H 0.60818 0.22949 0.66973 0.0
H202 H 0.6484 0.33784 0.7138 0.0
H203 H 0.65221 0.38446 0.68603 0.0
C204 C 0.29856 0.63603 0.70536 0.0
C205 C 0.27816 0.62763 0.75406 0.0
C206 C 0.33896 0.62613 0.79425 0.0
C207 C 0.36243 0.6421 0.74767 0.0
N208 N 0.36489 0.65726 0.65715 0.0
N209 N 0.2685 0.59176 0.83567 0.0
C210 C 0.34194 0.64442 0.70215 0.0
C211 C 0.29484 0.61513 0.79579 0.0
N212 N 0.2758 0.63562 0.66283 0.0
N213 N 0.35942 0.62369 0.83751 0.0
H214 H 0.23512 0.58013 0.83575 0.0
H215 H 0.27843 0.57905 0.86544 0.0
H216 H 0.39157 0.63057 0.83748 0.0
H217 H 0.3455 0.61754 0.87395 0.0
H218 H 0.28725 0.63919 0.6254 0.0
H219 H 0.24338 0.62798 0.66516 0.0
H220 H 0.35327 0.6634 0.62338 0.0
H221 H 0.3967 0.66306 0.65377 0.0
C222 C 0.70031 0.33486 0.94949 0.0
C223 C 0.7082 0.3574 0.90216 0.0
C224 C 0.6359 0.30423 0.87273 0.0
C225 C 0.62515 0.28707 0.92325 0.0
N226 N 0.64599 0.28966 0.01208 0.0
N227 N 0.68051 0.36827 0.82227 0.0
C228 C 0.65719 0.30283 0.96231 0.0
C229 C 0.6753 0.34327 0.86452 0.0
N230 N 0.73374 0.3453 0.98283 0.0
N231 N 0.60935 0.28273 0.83222 0.0
H232 H 0.70926 0.39715 0.81456 0.0
H233 H 0.65475 0.3623 0.798 0.0
H234 H 0.58137 0.25235 0.83571 0.0
H235 H 0.61804 0.29278 0.79437 0.0
H236 H 0.73086 0.32747 0.0159 0.0
H237 H 0.76534 0.3695 0.97454 0.0
H238 H 0.66735 0.30356 0.0428 0.0
H239 H 0.6142 0.26788 0.02358 0.0
C240 C 0.38863 0.71957 0.11465 0.0
C241 C 0.35206 0.71987 0.09275 0.0
C242 C 0.30852 0.64219 0.10641 0.0
C243 C 0.34635 0.63965 0.11705 0.0
N244 N 0.42504 0.67806 0.12872 0.0
N245 N 0.28021 0.67855 0.05506 0.0
C246 C 0.38737 0.67889 0.12079 0.0
C247 C 0.31296 0.68025 0.08451 0.0
N248 N 0.42347 0.75738 0.13183 0.0
N249 N 0.26823 0.60835 0.11803 0.0
H250 H 0.28291 0.70562 0.03569 0.0
H251 H 0.25252 0.64918 0.04541 0.0
H252 H 0.26434 0.58101 0.13778 0.0
H253 H 0.23987 0.61017 0.11379 0.0
H254 H 0.44877 0.75801 0.15295 0.0
H255 H 0.42514 0.78763 0.12947 0.0
H256 H 0.45569 0.70572 0.1249 0.0
H257 H 0.42639 0.64992 0.13632 0.0
C258 C 0.67973 0.34062 0.23347 0.0
C259 C 0.69912 0.34807 0.28277 0.0
C260 C 0.64303 0.36146 0.31765 0.0
C261 C 0.61974 0.34527 0.27113 0.0
N262 N 0.61368 0.31721 0.18516 0.0
N263 N 0.70248 0.36938 0.37121 0.0
C264 C 0.63766 0.33482 0.22879 0.0
C265 C 0.68216 0.36038 0.32468 0.0
N266 N 0.70196 0.33967 0.19109 0.0
N267 N 0.62788 0.37821 0.35439 0.0
H268 H 0.73268 0.3717 0.37625 0.0
H269 H 0.6892 0.37363 0.40486 0.0
H270 H 0.59904 0.3791 0.35012 0.0
H271 H 0.64537 0.39435 0.38708 0.0
H272 H 0.69125 0.33875 0.15363 0.0
H273 H 0.7334 0.34461 0.19326 0.0
H274 H 0.62334 0.304 0.15565 0.0
H275 H 0.58249 0.31264 0.17986 0.0
C276 C 0.13145 0.59983 0.59434 0.0
C277 C 0.14627 0.59075 0.64091 0.0
C278 C 0.14491 0.52713 0.59876 0.0
C279 C 0.13635 0.54014 0.5507 0.0
N280 N 0.09676 0.57208 0.51221 0.0
N281 N 0.16838 0.54532 0.68686 0.0
C282 C 0.12263 0.57188 0.55085 0.0
C283 C 0.15248 0.55373 0.6432 0.0
N284 N 0.12585 0.63533 0.59141 0.0
N285 N 0.14221 0.48728 0.6027 0.0
H286 H 0.17301 0.56224 0.72093 0.0
H287 H 0.18001 0.52347 0.68843 0.0
H288 H 0.13232 0.46542 0.57204 0.0
H289 H 0.14377 0.47341 0.63732 0.0
H290 H 0.12094 0.64718 0.55691 0.0
H291 H 0.12858 0.65448 0.62318 0.0
H292 H 0.08354 0.5926 0.51135 0.0
H293 H 0.08188 0.54639 0.48633 0.0
C294 C 0.60505 0.14532 0.76692 0.0
C295 C 0.58344 0.13231 0.71903 0.0
C296 C 0.51724 0.12542 0.76043 0.0
C297 C 0.54174 0.14611 0.80533 0.0
N298 N 0.61218 0.18174 0.84732 0.0
N299 N 0.51318 0.08811 0.68048 0.0
C300 C 0.58633 0.1571 0.80775 0.0
C301 C 0.5377 0.11628 0.71832 0.0
N302 N 0.64229 0.14355 0.77456 0.0
N303 N 0.47452 0.11467 0.75788 0.0
H304 H 0.52614 0.07432 0.65583 0.0
H305 H 0.47941 0.07297 0.67859 0.0
H306 H 0.45785 0.11793 0.789 0.0
H307 H 0.45618 0.10467 0.72431 0.0
H308 H 0.65753 0.14885 0.81016 0.0
H309 H 0.65412 0.13051 0.74716 0.0
H310 H 0.64584 0.19481 0.84764 0.0
H311 H 0.60115 0.19335 0.87699 0.0
C312 C 0.43839 0.60638 0.98085 0.0
C313 C 0.40308 0.5626 0.97753 0.0
C314 C 0.41405 0.56547 0.88392 0.0
C315 C 0.45152 0.6081 0.8878 0.0
N316 N 0.5059 0.66238 0.94326 0.0
N317 N 0.36672 0.49698 0.92707 0.0
C318 C 0.46581 0.62624 0.93739 0.0
C319 C 0.3941 0.54104 0.92944 0.0
N320 N 0.44419 0.63052 0.02405 0.0
N321 N 0.39489 0.5492 0.83748 0.0
H322 H 0.35245 0.478 0.95968 0.0
H323 H 0.36225 0.47889 0.89375 0.0
H324 H 0.40553 0.56621 0.80311 0.0
H325 H 0.36508 0.5205 0.83383 0.0
H326 H 0.46647 0.66383 0.02618 0.0
H327 H 0.42367 0.61875 0.05567 0.0
H328 H 0.51956 0.67477 0.97909 0.0
H329 H 0.52738 0.6768 0.91263 0.0
C330 C 0.81916 0.42597 0.14098 0.0
C331 C 0.8269 0.38999 0.14023 0.0
C332 C 0.83921 0.40005 0.04674 0.0
C333 C 0.8327 0.43709 0.04783 0.0
N334 N 0.83212 0.493 0.10007 0.0
N335 N 0.85612 0.35121 0.09473 0.0
C336 C 0.82748 0.45233 0.09626 0.0
C337 C 0.84062 0.37973 0.09379 0.0
N338 N 0.80168 0.43404 0.18349 0.0
N339 N 0.84159 0.38218 1.00117 0.0
H340 H 0.85781 0.33607 0.12835 0.0
H341 H 0.87142 0.34609 0.06353 0.0
H342 H 0.84029 0.39424 0.9653 0.0
H343 H 0.84054 0.35225 0.99864 0.0
H344 H 0.79057 0.45637 0.18368 0.0
H345 H 0.7942 0.41576 0.21705 0.0
H346 H 0.83284 0.5076 0.13507 0.0
H347 H 0.84068 0.51422 0.06885 0.0
C348 C 0.38056 0.84808 0.25879 0.0
C349 C 0.40379 0.8636 0.21209 0.0
C350 C 0.46888 0.86892 0.2544 0.0
C351 C 0.44348 0.84655 0.29802 0.0
N352 N 0.37307 0.81208 0.34004 0.0
N353 N 0.47532 0.91191 0.17901 0.0
C354 C 0.39894 0.836 0.30006 0.0
C355 C 0.44962 0.88052 0.2134 0.0
N356 N 0.34252 0.84852 0.26534 0.0
N357 N 0.51139 0.87894 0.2518 0.0
H358 H 0.46273 0.92643 0.15482 0.0
H359 H 0.50919 0.92847 0.18039 0.0
H360 H 0.52733 0.87354 0.28214 0.0
H361 H 0.52997 0.89013 0.21845 0.0
H362 H 0.32577 0.84143 0.30006 0.0
H363 H 0.33129 0.8624 0.2383 0.0
H364 H 0.33936 0.79851 0.34014 0.0
H365 H 0.38438 0.80215 0.37114 0.0
C366 C 0.51806 0.38 0.43547 0.0
C367 C 0.5275 0.39988 0.38636 0.0
C368 C 0.58943 0.46578 0.42421 0.0
C369 C 0.58456 0.44294 0.47091 0.0
N370 N 0.54412 0.37614 0.51991 0.0
N371 N 0.5557 0.46953 0.3448 0.0
C372 C 0.5483 0.39979 0.47662 0.0
C373 C 0.55865 0.44516 0.3835 0.0
N374 N 0.47853 0.34362 0.44363 0.0
N375 N 0.62373 0.50713 0.41841 0.0
H376 H 0.52895 0.45696 0.32025 0.0
H377 H 0.57517 0.50328 0.3424 0.0
H378 H 0.64483 0.52449 0.44836 0.0
H379 H 0.63255 0.52331 0.38326 0.0
H380 H 0.46753 0.32959 0.47963 0.0
H381 H 0.45434 0.33123 0.4155 0.0
H382 H 0.52208 0.34287 0.52312 0.0
H383 H 0.56504 0.38839 0.55113 0.0
C384 C 0.97357 0.45941 0.28481 0.0
C385 C 0.94409 0.45603 0.32368 0.0
C386 C 0.00475 0.50958 0.37534 0.0
C387 C 0.03358 0.50409 0.34279 0.0
N388 N 0.04753 0.47862 0.26322 0.0
N389 N 0.93074 0.47789 0.40649 0.0
C390 C 0.01863 0.48091 0.29605 0.0
C391 C 0.95926 0.48188 0.36871 0.0
N392 N 0.95831 0.44252 0.23715 0.0
N393 N 0.02086 0.54109 0.41225 0.0
H394 H 0.89714 0.45788 0.40319 0.0
H395 H 0.94061 0.49216 0.44256 0.0
H396 H 0.05405 0.56324 0.41541 0.0
H397 H 0.00137 0.54865 0.43508 0.0
H398 H 0.97835 0.44695 0.20583 0.0
H399 H 0.92537 0.4276 0.22763 0.0
H400 H 0.0383 0.45764 0.23186 0.0
H401 H 0.08114 0.49713 0.26846 0.0
C402 C 0.50562 0.97646 0.44735 0.0
C403 C 0.48076 0.94612 0.4862 0.0
C404 C 0.4875 0.00583 0.53971 0.0
C405 C 0.52123 0.0354 0.50709 0.0
N406 N 0.55975 0.05096 0.42683 0.0
N407 N 0.44532 0.93083 0.56874 0.0
C408 C 0.52898 0.02139 0.45948 0.0
C409 C 0.46994 0.96033 0.53184 0.0
N410 N 0.50631 0.96213 0.39889 0.0
N411 N 0.47253 0.02137 0.57779 0.0
H412 H 0.43144 0.89724 0.56369 0.0
H413 H 0.44058 0.93977 0.60522 0.0
H414 H 0.48359 0.05463 0.58163 0.0
H415 H 0.44609 0.00149 0.60113 0.0
H416 H 0.52118 0.9828 0.3678 0.0
H417 H 0.48773 0.92941 0.38873 0.0
H418 H 0.57113 0.04224 0.39464 0.0
H419 H 0.57503 0.08454 0.43318 0.0
C420 C 0.49573 0.52339 0.6505 0.0
C421 C 0.50445 0.54475 0.69872 0.0
C422 C 0.54516 0.50915 0.72636 0.0
C423 C 0.54285 0.49429 0.67554 0.0
N424 N 0.51395 0.48263 0.58988 0.0
N425 N 0.53268 0.55517 0.78493 0.0
C426 C 0.51662 0.49913 0.63806 0.0
C427 C 0.52728 0.53627 0.7377 0.0
N428 N 0.46841 0.52722 0.61646 0.0
N429 N 0.56467 0.4972 0.76328 0.0
H430 H 0.51736 0.57267 0.7955 0.0
H431 H 0.55289 0.55452 0.81346 0.0
H432 H 0.5775 0.47686 0.75538 0.0
H433 H 0.56541 0.50437 0.80209 0.0
H434 H 0.45766 0.5096 0.58248 0.0
H435 H 0.45406 0.54627 0.62354 0.0
H436 H 0.49984 0.48914 0.5586 0.0
H437 H 0.52712 0.46283 0.58074 0.0
C438 C 0.01643 0.50911 0.80475 0.0
C439 C 0.04593 0.53615 0.84313 0.0
C440 C 0.98675 0.51355 0.90493 0.0
C441 C 0.95682 0.48965 0.86533 0.0
N442 N 0.94211 0.45503 0.78246 0.0
N443 N 0.06234 0.55589 0.93193 0.0
C444 C 0.97142 0.48386 0.81691 0.0
C445 C 0.03202 0.53553 0.89414 0.0
N446 N 0.03122 0.50972 0.75608 0.0
N447 N 0.97149 0.51619 0.95224 0.0
H448 H 0.09576 0.57188 0.9247 0.0
H449 H 0.05492 0.55428 0.97077 0.0
H450 H 0.93867 0.49771 0.9622 0.0
H451 H 0.99078 0.5371 0.98125 0.0
H452 H 0.01109 0.495 0.72463 0.0
H453 H 0.06418 0.52659 0.74648 0.0
H454 H 0.95078 0.44645 0.74808 0.0
H455 H 0.90883 0.43689 0.79001 0.0
C456 C 0.52573 0.03461 0.03915 0.0
C457 C 0.518 0.04995 0.99234 0.0
C458 C 0.47993 0.97598 0.95786 0.0
C459 C 0.48328 0.96027 1.00652 0.0
N460 N 0.5246 0.97367 0.08383 0.0
N461 N 0.50505 0.03843 0.90151 0.0
C462 C 0.51155 0.98941 0.04405 0.0
C463 C 0.50078 0.02158 0.94965 0.0
N464 N 0.54441 0.0626 0.07936 0.0
N465 N 0.45528 0.94711 0.92047 0.0
H466 H 0.52309 0.07183 0.89467 0.0
H467 H 0.49556 0.01959 0.86827 0.0
H468 H 0.44204 0.91347 0.92488 0.0
H469 H 0.44691 0.95631 0.88625 0.0
H470 H 0.54655 0.05235 0.11619 0.0
H471 H 0.55606 0.09606 0.07614 0.0
H472 H 0.5474 0.9935 0.1111 0.0
H473 H 0.51596 0.94083 0.08565 0.0
C474 C 0.46491 0.48414 0.1171 0.0
C475 C 0.46157 0.50885 0.15793 0.0
C476 C 0.51566 0.49972 0.20605 0.0
C477 C 0.50856 0.46536 0.17252 0.0
N478 N 0.4823 0.42852 0.09186 0.0
N479 N 0.48559 0.54248 0.24122 0.0
C480 C 0.48557 0.45926 0.12615 0.0
C481 C 0.48837 0.51842 0.20194 0.0
N482 N 0.44852 0.48482 0.06988 0.0
N483 N 0.54816 0.51422 0.24154 0.0
H484 H 0.46608 0.55684 0.23966 0.0
H485 H 0.50064 0.54594 0.27662 0.0
H486 H 0.56954 0.50202 0.2434 0.0
H487 H 0.55693 0.5414 0.26465 0.0
H488 H 0.4527 0.47005 0.03749 0.0
H489 H 0.43463 0.50417 0.06202 0.0
H490 H 0.46144 0.4184 0.06036 0.0
H491 H 0.49984 0.41215 0.09619 0.0
C492 C 0.23036 0.4713 0.30673 0.0
C493 C 0.2088 0.49484 0.29208 0.0
C494 C 0.23507 0.49581 0.20356 0.0
C495 C 0.26593 0.48475 0.22117 0.0
N496 N 0.29063 0.45816 0.29139 0.0
N497 N 0.20365 0.54019 0.22424 0.0
C498 C 0.26299 0.4716 0.2735 0.0
C499 C 0.21452 0.50989 0.23971 0.0
N500 N 0.21871 0.4467 0.35043 0.0
N501 N 0.22528 0.49324 0.15271 0.0
H502 H 0.20257 0.56261 0.24912 0.0
H503 H 0.20418 0.54905 0.18609 0.0
H504 H 0.23631 0.47865 0.12663 0.0
H505 H 0.20086 0.49869 0.13853 0.0
H506 H 0.23105 0.42634 0.36012 0.0
H507 H 0.19283 0.44166 0.37367 0.0
H508 H 0.29444 0.45411 0.33031 0.0
H509 H 0.31055 0.45221 0.26713 0.0
C510 C 0.75528 0.28293 0.44521 0.0
C511 C 0.76553 0.27249 0.39578 0.0
C512 C 0.71658 0.19474 0.41849 0.0
C513 C 0.71155 0.20646 0.46934 0.0
N514 N 0.7456 0.2617 0.53401 0.0
N515 N 0.76298 0.21439 0.34327 0.0
C516 C 0.73736 0.25043 0.48374 0.0
C517 C 0.74825 0.22715 0.38447 0.0
N518 N 0.75923 0.32263 0.45545 0.0
N519 N 0.69162 0.15253 0.40275 0.0
H520 H 0.78802 0.236 0.3195 0.0
H521 H 0.75387 0.1819 0.33633 0.0
H522 H 0.67127 0.12753 0.42775 0.0
H523 H 0.68992 0.14298 0.36458 0.0
H524 H 0.74942 0.32941 0.49039 0.0
H525 H 0.76496 0.34578 0.42748 0.0
H526 H 0.76584 0.29385 0.54589 0.0
H527 H 0.73842 0.23821 0.56207 0.0
C528 C 0.51775 0.71941 0.57742 0.0
C529 C 0.51341 0.72771 0.63007 0.0
C530 C 0.51625 0.7958 0.60157 0.0
C531 C 0.5079 0.78071 0.54988 0.0
N532 N 0.50171 0.72651 0.48887 0.0
N533 N 0.51142 0.77796 0.69168 0.0
C534 C 0.50956 0.74238 0.53769 0.0
C535 C 0.51408 0.76739 0.64209 0.0
N536 N 0.53154 0.69064 0.56527 0.0
N537 N 0.52809 0.83822 0.61178 0.0
H538 H 0.51496 0.76175 0.72272 0.0
H539 H 0.50473 0.80256 0.70179 0.0
H540 H 0.53284 0.86055 0.58276 0.0
H541 H 0.53843 0.85249 0.64779 0.0
H542 H 0.53877 0.68583 0.52791 0.0
H543 H 0.54123 0.67604 0.59321 0.0
H544 H 0.4967 0.69567 0.47945 0.0
H545 H 0.49801 0.74316 0.45828 0.0
C546 C 0.76801 0.46737 0.74064 0.0
C547 C 0.78138 0.49388 0.7861 0.0
C548 C 0.73852 0.5271 0.75435 0.0
C549 C 0.7299 0.50376 0.70728 0.0
N550 N 0.75264 0.46594 0.6501 0.0
N551 N 0.78716 0.55823 0.82709 0.0
C552 C 0.75038 0.47898 0.69855 0.0
C553 C 0.76894 0.52654 0.79048 0.0
N554 N 0.76849 0.42896 0.73824 0.0
N555 N 0.71762 0.54989 0.76469 0.0
H556 H 0.81141 0.56124 0.85203 0.0
H557 H 0.78177 0.58463 0.82877 0.0
H558 H 0.69781 0.55351 0.73775 0.0
H559 H 0.71839 0.5632 0.80062 0.0
H560 H 0.75625 0.408 0.70681 0.0
H561 H 0.77377 0.41425 0.76992 0.0
H562 H 0.76933 0.4494 0.64122 0.0
H563 H 0.74366 0.47783 0.61865 0.0
C564 C 0.30143 0.74612 0.93615 0.0
C565 C 0.29658 0.7814 0.9551 0.0
C566 C 0.23036 0.75498 0.9007 0.0
C567 C 0.23381 0.71816 0.88499 0.0
N568 N 0.27006 0.67592 0.89502 0.0
N569 N 0.25436 0.81772 0.95774 0.0
C570 C 0.26861 0.71318 0.90477 0.0
C571 C 0.26028 0.78519 0.93812 0.0
N572 N 0.33793 0.74374 0.94737 0.0
N573 N 0.19842 0.76112 0.8798 0.0
H574 H 0.27638 0.84138 0.98281 0.0
H575 H 0.22659 0.82012 0.95175 0.0
H576 H 0.17524 0.73907 0.8543 0.0
H577 H 0.1962 0.78913 0.88497 0.0
H578 H 0.34725 0.72437 0.92694 0.0
H579 H 0.36027 0.76212 0.97549 0.0
H580 H 0.25017 0.65268 0.86854 0.0
H581 H 0.28935 0.66658 0.91555 0.0
C582 C 0.47199 0.27547 0.08144 0.0
C583 C 0.48001 0.27112 0.13407 0.0
C584 C 0.47714 0.20187 0.11147 0.0
C585 C 0.48073 0.21232 0.05818 0.0
N586 N 0.4781 0.25937 0.99264 0.0
N587 N 0.48984 0.22814 0.19901 0.0
C588 C 0.47648 0.24883 0.04315 0.0
C589 C 0.48176 0.23337 0.14917 0.0
N590 N 0.45859 0.30436 0.06821 0.0
N591 N 0.46773 0.16096 0.1261 0.0
H592 H 0.49102 0.24877 0.22797 0.0
H593 H 0.49756 0.20464 0.21091 0.0
H594 H 0.46124 0.13635 0.09953 0.0
H595 H 0.46099 0.14996 0.16391 0.0
H596 H 0.44832 0.30655 0.03143 0.0
H597 H 0.4529 0.32257 0.09549 0.0
H598 H 0.4824 0.28923 0.97991 0.0
H599 H 0.47598 0.23862 0.96341 0.0
loop_
_geom_bond_atom_site_label_1
_geom_bond_atom_site_label_2
_geom_bond_distance
_geom_bond_site_symmetry_2
_ccdc_geom_bond_type
Co0 O1 2.216 . S
Co0 O2 2.091 . S
Co0 O4 2.004 . S
Co0 O10 2.021 . S
Co0 O12 2.137 . S
Co0 O13 2.244 . S
O1 Co0 2.216 . S
O1 C8 1.247 . S
O2 Co0 2.091 . S
O2 C8 1.261 . S
C3 O12 1.247 . S
C3 O13 1.272 . S
O4 Co0 2.004 . S
O4 C9 1.259 . S
Co5 O6 2.061 . S
Co5 O11 2.052 . S
Co5 O13 2.135 . S
O6 Co5 2.061 . S
O6 C9 1.235 . S
C7 O10 1.238 . S
C7 O11 1.241 . S
C8 O1 1.247 . S
C8 O2 1.261 . S
C9 O4 1.259 . S
C9 O6 1.235 . S
O10 Co0 2.021 . S
O10 C7 1.238 . S
O11 Co5 2.052 . S
O11 C7 1.241 . S
O12 Co0 2.137 . S
O12 C3 1.247 . S
O13 Co0 2.244 . S
O13 C3 1.272 . S
O13 Co5 2.135 . S
Co14 O15 2.216 . S
Co14 O16 2.091 . S
Co14 O18 2.004 . S
Co14 O24 2.021 . S
Co14 O26 2.137 . S
Co14 O27 2.244 . S
O15 Co14 2.216 . S
O15 C22 1.247 . S
O16 Co14 2.091 . S
O16 C22 1.261 . S
C17 O26 1.247 . S
C17 O27 1.272 . S
O18 Co14 2.004 . S
O18 C23 1.259 . S
Co19 O20 2.061 . S
Co19 O25 2.052 . S
Co19 O27 2.135 . S
O20 Co19 2.061 . S
O20 C23 1.235 . S
C21 O24 1.238 . S
C21 O25 1.241 . S
C22 O15 1.247 . S
C22 O16 1.261 . S
C23 O18 1.259 . S
C23 O20 1.235 . S
O24 Co14 2.021 . S
O24 C21 1.238 . S
O25 Co19 2.052 . S
O25 C21 1.241 . S
O26 Co14 2.137 . S
O26 C17 1.247 . S
O27 Co14 2.244 . S
O27 C17 1.272 . S
O27 Co19 2.135 . S
Co28 O29 2.216 . S
Co28 O30 2.091 . S
Co28 O32 2.004 . S
Co28 O38 2.021 . S
Co28 O40 2.137 . S
Co28 O41 2.244 . S
O29 Co28 2.216 . S
O29 C36 1.247 . S
O30 Co28 2.091 . S
O30 C36 1.261 . S
C31 O40 1.247 . S
C31 O41 1.272 . S
O32 Co28 2.004 . S
O32 C37 1.259 . S
Co33 O34 2.061 . S
Co33 O39 2.052 . S
Co33 O41 2.135 . S
O34 Co33 2.061 . S
O34 C37 1.235 . S
C35 O38 1.238 . S
C35 O39 1.241 . S
C36 O29 1.247 . S
C36 O30 1.261 . S
C37 O32 1.259 . S
C37 O34 1.235 . S
O38 Co28 2.021 . S
O38 C35 1.238 . S
O39 Co33 2.052 . S
O39 C35 1.241 . S
O40 Co28 2.137 . S
O40 C31 1.247 . S
O41 Co28 2.244 . S
O41 C31 1.272 . S
O41 Co33 2.135 . S
Co42 O43 2.216 . S
Co42 O44 2.091 . S
Co42 O46 2.004 . S
Co42 O52 2.021 . S
Co42 O54 2.137 . S
Co42 O55 2.244 . S
O43 Co42 2.216 . S
O43 C50 1.247 . S
O44 Co42 2.091 . S
O44 C50 1.261 . S
C45 O54 1.247 . S
C45 O55 1.272 . S
O46 Co42 2.004 . S
O46 C51 1.259 . S
Co47 O48 2.061 . S
Co47 O53 2.052 . S
Co47 O55 2.135 . S
O48 Co47 2.061 . S
O48 C51 1.235 . S
C49 O52 1.238 . S
C49 O53 1.241 . S
C50 O43 1.247 . S
C50 O44 1.261 . S
C51 O46 1.259 . S
C51 O48 1.235 . S
O52 Co42 2.021 . S
O52 C49 1.238 . S
O53 Co47 2.052 . S
O53 C49 1.241 . S
O54 Co42 2.137 . S
O54 C45 1.247 . S
O55 Co42 2.244 . S
O55 C45 1.272 . S
O55 Co47 2.135 . S
Co56 O57 2.216 . S
Co56 O58 2.091 . S
Co56 O60 2.004 . S
Co56 O66 2.021 . S
Co56 O68 2.137 1_554 S
Co56 O69 2.244 . S
O57 Co56 2.216 . S
O57 C64 1.247 . S
O58 Co56 2.091 . S
O58 C64 1.261 . S
C59 O68 1.247 1_554 S
C59 O69 1.272 . S
O60 Co56 2.004 . S
O60 C65 1.259 . S
Co61 O62 2.061 . S
Co61 O67 2.052 . S
Co61 O69 2.135 . S
O62 Co61 2.061 . S
O62 C65 1.235 . S
C63 O66 1.238 . S
C63 O67 1.241 . S
C64 O57 1.247 . S
C64 O58 1.261 . S
C65 O60 1.259 . S
C65 O62 1.235 . S
O66 Co56 2.021 . S
O66 C63 1.238 . S
O67 Co61 2.052 . S
O67 C63 1.241 . S
O68 Co56 2.137 1_556 S
O68 C59 1.247 1_556 S
O69 Co56 2.244 . S
O69 C59 1.272 . S
O69 Co61 2.135 . S
Co70 O71 2.216 . S
Co70 O72 2.091 . S
Co70 O74 2.004 . S
Co70 O80 2.021 . S
Co70 O82 2.137 . S
Co70 O83 2.244 . S
O71 Co70 2.216 . S
O71 C78 1.247 . S
O72 Co70 2.091 . S
O72 C78 1.261 . S
C73 O82 1.247 . S
C73 O83 1.272 . S
O74 Co70 2.004 . S
O74 C79 1.259 . S
Co75 O76 2.061 . S
Co75 O81 2.052 . S
Co75 O83 2.135 . S
O76 Co75 2.061 . S
O76 C79 1.235 . S
C77 O80 1.238 . S
C77 O81 1.241 . S
C78 O71 1.247 . S
C78 O72 1.261 . S
C79 O74 1.259 . S
C79 O76 1.235 . S
O80 Co70 2.021 . S
O80 C77 1.238 . S
O81 Co75 2.052 . S
O81 C77 1.241 . S
O82 Co70 2.137 . S
O82 C73 1.247 . S
O83 Co70 2.244 . S
O83 C73 1.272 . S
O83 Co75 2.135 . S
Co84 O85 2.216 . S
Co84 O86 2.091 . S
Co84 O88 2.004 . S
Co84 O94 2.021 . S
Co84 O96 2.137 . S
Co84 O97 2.244 . S
O85 Co84 2.216 . S
O85 C92 1.247 . S
O86 Co84 2.091 . S
O86 C92 1.261 . S
C87 O96 1.247 . S
C87 O97 1.272 . S
O88 Co84 2.004 . S
O88 C93 1.259 . S
Co89 O90 2.061 . S
Co89 O95 2.052 . S
Co89 O97 2.135 . S
O90 Co89 2.061 . S
O90 C93 1.235 . S
C91 O94 1.238 . S
C91 O95 1.241 . S
C92 O85 1.247 . S
C92 O86 1.261 . S
C93 O88 1.259 . S
C93 O90 1.235 . S
O94 Co84 2.021 . S
O94 C91 1.238 . S
O95 Co89 2.052 . S
O95 C91 1.241 . S
O96 Co84 2.137 . S
O96 C87 1.247 . S
O97 Co84 2.244 . S
O97 C87 1.272 . S
O97 Co89 2.135 . S
Co98 O99 2.216 . S
Co98 O100 2.091 . S
Co98 O102 2.004 . S
Co98 O108 2.021 . S
Co98 O110 2.137 . S
Co98 O111 2.244 . S
O99 Co98 2.216 . S
O99 C106 1.247 . S
O100 Co98 2.091 . S
O100 C106 1.261 . S
C101 O110 1.247 . S
C101 O111 1.272 . S
O102 Co98 2.004 . S
O102 C107 1.259 . S
Co103 O104 2.061 . S
Co103 O109 2.052 . S
Co103 O111 2.135 . S
O104 Co103 2.061 . S
O104 C107 1.235 . S
C105 O108 1.238 . S
C105 O109 1.241 . S
C106 O99 1.247 . S
C106 O100 1.261 . S
C107 O102 1.259 . S
C107 O104 1.235 . S
O108 Co98 2.021 . S
O108 C105 1.238 . S
O109 Co103 2.052 . S
O109 C105 1.241 . S
O110 Co98 2.137 . S
O110 C101 1.247 . S
O111 Co98 2.244 . S
O111 C101 1.272 . S
O111 Co103 2.135 . S
Co112 O113 2.216 . S
Co112 O114 2.091 . S
Co112 O116 2.004 . S
Co112 O122 2.021 . S
Co112 O124 2.137 . S
Co112 O125 2.244 . S
O113 Co112 2.216 . S
O113 C120 1.247 . S
O114 Co112 2.091 . S
O114 C120 1.261 . S
C115 O124 1.247 . S
C115 O125 1.272 . S
O116 Co112 2.004 . S
O116 C121 1.259 . S
Co117 O118 2.061 . S
Co117 O123 2.052 . S
Co117 O125 2.135 . S
O118 Co117 2.061 . S
O118 C121 1.235 . S
C119 O122 1.238 . S
C119 O123 1.241 . S
C120 O113 1.247 . S
C120 O114 1.261 . S
C121 O116 1.259 . S
C121 O118 1.235 . S
O122 Co112 2.021 . S
O122 C119 1.238 . S
O123 Co117 2.052 . S
O123 C119 1.241 . S
O124 Co112 2.137 . S
O124 C115 1.247 . S
O125 Co112 2.244 . S
O125 C115 1.272 . S
O125 Co117 2.135 . S
Co126 O127 2.216 . S
Co126 O128 2.091 . S
Co126 O130 2.004 . S
Co126 O136 2.021 . S
Co126 O138 2.137 1_556 S
Co126 O139 2.244 . S
O127 Co126 2.216 . S
O127 C134 1.247 . S
O128 Co126 2.091 . S
O128 C134 1.261 . S
C129 O138 1.247 1_556 S
C129 O139 1.272 . S
O130 Co126 2.004 . S
O130 C135 1.259 . S
Co131 O132 2.061 . S
Co131 O137 2.052 . S
Co131 O139 2.135 . S
O132 Co131 2.061 . S
O132 C135 1.235 . S
C133 O136 1.238 . S
C133 O137 1.241 . S
C134 O127 1.247 . S
C134 O128 1.261 . S
C135 O130 1.259 . S
C135 O132 1.235 . S
O136 Co126 2.021 . S
O136 C133 1.238 . S
O137 Co131 2.052 . S
O137 C133 1.241 . S
O138 Co126 2.137 1_554 S
O138 C129 1.247 1_554 S
O139 Co126 2.244 . S
O139 C129 1.272 . S
O139 Co131 2.135 . S
Co140 O141 2.216 . S
Co140 O142 2.091 . S
Co140 O144 2.004 . S
Co140 O150 2.021 . S
Co140 O152 2.137 . S
Co140 O153 2.244 . S
O141 Co140 2.216 . S
O141 C148 1.247 . S
O142 Co140 2.091 . S
O142 C148 1.261 . S
C143 O152 1.247 . S
C143 O153 1.272 . S
O144 Co140 2.004 . S
O144 C149 1.259 . S
Co145 O146 2.061 . S
Co145 O151 2.052 . S
Co145 O153 2.135 . S
O146 Co145 2.061 . S
O146 C149 1.235 . S
C147 O150 1.238 . S
C147 O151 1.241 . S
C148 O141 1.247 . S
C148 O142 1.261 . S
C149 O144 1.259 . S
C149 O146 1.235 . S
O150 Co140 2.021 . S
O150 C147 1.238 . S
O151 Co145 2.052 . S
O151 C147 1.241 . S
O152 Co140 2.137 . S
O152 C143 1.247 . S
O153 Co140 2.244 . S
O153 C143 1.272 . S
O153 Co145 2.135 . S
Co154 O155 2.216 . S
Co154 O156 2.091 . S
Co154 O158 2.004 . S
Co154 O164 2.021 . S
Co154 O166 2.137 . S
Co154 O167 2.244 . S
O155 Co154 2.216 . S
O155 C162 1.247 . S
O156 Co154 2.091 . S
O156 C162 1.261 . S
C157 O166 1.247 . S
C157 O167 1.272 . S
O158 Co154 2.004 . S
O158 C163 1.259 . S
Co159 O160 2.061 . S
Co159 O165 2.052 . S
Co159 O167 2.135 . S
O160 Co159 2.061 . S
O160 C163 1.235 . S
C161 O164 1.238 . S
C161 O165 1.241 . S
C162 O155 1.247 . S
C162 O156 1.261 . S
C163 O158 1.259 . S
C163 O160 1.235 . S
O164 Co154 2.021 . S
O164 C161 1.238 . S
O165 Co159 2.052 . S
O165 C161 1.241 . S
O166 Co154 2.137 . S
O166 C157 1.247 . S
O167 Co154 2.244 . S
O167 C157 1.272 . S
O167 Co159 2.135 . S
C168 C169 1.363 . S
C168 C174 1.379 . S
C168 N176 1.356 . S
C169 C168 1.363 . S
C169 C175 1.363 . S
C170 C171 1.363 . S
C170 C175 1.379 . S
C170 N177 1.356 . S
C171 C170 1.363 . S
C171 C174 1.363 . S
N172 C174 1.356 . S
N172 H184 0.984 . S
N172 H185 0.985 . S
N173 C175 1.356 . S
N173 H178 0.984 . S
N173 H179 0.985 . S
C174 C168 1.379 . S
C174 C171 1.363 . S
C174 N172 1.356 . S
C175 C169 1.363 . S
C175 C170 1.379 . S
C175 N173 1.356 . S
N176 C168 1.356 . S
N176 H182 0.984 . S
N176 H183 0.984 . S
N177 C170 1.356 . S
N177 H180 0.984 . S
N177 H181 0.985 . S
H178 N173 0.984 . S
H179 N173 0.985 . S
H180 N177 0.984 . S
H181 N177 0.985 . S
H182 N176 0.984 . S
H183 N176 0.984 . S
H184 N172 0.984 . S
H185 N172 0.985 . S
C186 C187 1.363 . S
C186 C192 1.379 . S
C186 N194 1.356 . S
C187 C186 1.363 . S
C187 C193 1.363 . S
C188 C189 1.363 . S
C188 C193 1.379 . S
C188 N195 1.356 . S
C189 C188 1.363 . S
C189 C192 1.363 . S
N190 C192 1.356 . S
N190 H202 0.984 . S
N190 H203 0.985 . S
N191 C193 1.356 . S
N191 H196 0.984 . S
N191 H197 0.985 . S
C192 C186 1.379 . S
C192 C189 1.363 . S
C192 N190 1.356 . S
C193 C187 1.363 . S
C193 C188 1.379 . S
C193 N191 1.356 . S
N194 C186 1.356 . S
N194 H200 0.984 . S
N194 H201 0.984 . S
N195 C188 1.356 . S
N195 H198 0.984 . S
N195 H199 0.985 . S
H196 N191 0.984 . S
H197 N191 0.985 . S
H198 N195 0.984 . S
H199 N195 0.985 . S
H200 N194 0.984 . S
H201 N194 0.984 . S
H202 N190 0.984 . S
H203 N190 0.985 . S
C204 C205 1.363 . S
C204 C210 1.379 . S
C204 N212 1.356 . S
C205 C204 1.363 . S
C205 C211 1.363 . S
C206 C207 1.363 . S
C206 C211 1.379 . S
C206 N213 1.356 . S
C207 C206 1.363 . S
C207 C210 1.363 . S
N208 C210 1.356 . S
N208 H220 0.984 . S
N208 H221 0.985 . S
N209 C211 1.356 . S
N209 H214 0.984 . S
N209 H215 0.985 . S
C210 C204 1.379 . S
C210 C207 1.363 . S
C210 N208 1.356 . S
C211 C205 1.363 . S
C211 C206 1.379 . S
C211 N209 1.356 . S
N212 C204 1.356 . S
N212 H218 0.984 . S
N212 H219 0.984 . S
N213 C206 1.356 . S
N213 H216 0.984 . S
N213 H217 0.985 . S
H214 N209 0.984 . S
H215 N209 0.985 . S
H216 N213 0.984 . S
H217 N213 0.985 . S
H218 N212 0.984 . S
H219 N212 0.984 . S
H220 N208 0.984 . S
H221 N208 0.985 . S
C222 C223 1.363 . S
C222 C228 1.379 . S
C222 N230 1.356 . S
C223 C222 1.363 . S
C223 C229 1.363 . S
C224 C225 1.363 . S
C224 C229 1.379 . S
C224 N231 1.356 . S
C225 C224 1.363 . S
C225 C228 1.363 . S
N226 C228 1.356 . S
N226 H238 0.984 1_556 S
N226 H239 0.985 . S
N227 C229 1.356 . S
N227 H232 0.984 . S
N227 H233 0.985 . S
C228 C222 1.379 . S
C228 C225 1.363 . S
C228 N226 1.356 . S
C229 C223 1.363 . S
C229 C224 1.379 . S
C229 N227 1.356 . S
N230 C222 1.356 . S
N230 H236 0.984 . S
N230 H237 0.984 . S
N231 C224 1.356 . S
N231 H234 0.984 . S
N231 H235 0.985 . S
H232 N227 0.984 . S
H233 N227 0.985 . S
H234 N231 0.984 . S
H235 N231 0.985 . S
H236 N230 0.984 . S
H237 N230 0.984 . S
H238 N226 0.984 1_554 S
H239 N226 0.985 . S
C240 C241 1.363 . S
C240 C246 1.379 . S
C240 N248 1.356 . S
C241 C240 1.363 . S
C241 C247 1.363 . S
C242 C243 1.363 . S
C242 C247 1.379 . S
C242 N249 1.356 . S
C243 C242 1.363 . S
C243 C246 1.363 . S
N244 C246 1.356 . S
N244 H256 0.984 . S
N244 H257 0.985 . S
N245 C247 1.356 . S
N245 H250 0.984 . S
N245 H251 0.985 . S
C246 C240 1.379 . S
C246 C243 1.363 . S
C246 N244 1.356 . S
C247 C241 1.363 . S
C247 C242 1.379 . S
C247 N245 1.356 . S
N248 C240 1.356 . S
N248 H254 0.984 . S
N248 H255 0.984 . S
N249 C242 1.356 . S
N249 H252 0.984 . S
N249 H253 0.985 . S
H250 N245 0.984 . S
H251 N245 0.985 . S
H252 N249 0.984 . S
H253 N249 0.985 . S
H254 N248 0.984 . S
H255 N248 0.984 . S
H256 N244 0.984 . S
H257 N244 0.985 . S
C258 C259 1.363 . S
C258 C264 1.379 . S
C258 N266 1.356 . S
C259 C258 1.363 . S
C259 C265 1.363 . S
C260 C261 1.363 . S
C260 C265 1.379 . S
C260 N267 1.356 . S
C261 C260 1.363 . S
C261 C264 1.363 . S
N262 C264 1.356 . S
N262 H274 0.984 . S
N262 H275 0.985 . S
N263 C265 1.356 . S
N263 H268 0.984 . S
N263 H269 0.985 . S
C264 C258 1.379 . S
C264 C261 1.363 . S
C264 N262 1.356 . S
C265 C259 1.363 . S
C265 C260 1.379 . S
C265 N263 1.356 . S
N266 C258 1.356 . S
N266 H272 0.984 . S
N266 H273 0.984 . S
N267 C260 1.356 . S
N267 H270 0.984 . S
N267 H271 0.985 . S
H268 N263 0.984 . S
H269 N263 0.985 . S
H270 N267 0.984 . S
H271 N267 0.985 . S
H272 N266 0.984 . S
H273 N266 0.984 . S
H274 N262 0.984 . S
H275 N262 0.985 . S
C276 C277 1.363 . S
C276 C282 1.379 . S
C276 N284 1.356 . S
C277 C276 1.363 . S
C277 C283 1.363 . S
C278 C279 1.363 . S
C278 C283 1.379 . S
C278 N285 1.356 . S
C279 C278 1.363 . S
C279 C282 1.363 . S
N280 C282 1.356 . S
N280 H292 0.984 . S
N280 H293 0.985 . S
N281 C283 1.356 . S
N281 H286 0.984 . S
N281 H287 0.985 . S
C282 C276 1.379 . S
C282 C279 1.363 . S
C282 N280 1.356 . S
C283 C277 1.363 . S
C283 C278 1.379 . S
C283 N281 1.356 . S
N284 C276 1.356 . S
N284 H290 0.984 . S
N284 H291 0.984 . S
N285 C278 1.356 . S
N285 H288 0.984 . S
N285 H289 0.985 . S
H286 N281 0.984 . S
H287 N281 0.985 . S
H288 N285 0.984 . S
H289 N285 0.985 . S
H290 N284 0.984 . S
H291 N284 0.984 . S
H292 N280 0.984 . S
H293 N280 0.985 . S
C294 C295 1.363 . S
C294 C300 1.379 . S
C294 N302 1.356 . S
C295 C294 1.363 . S
C295 C301 1.363 . S
C296 C297 1.363 . S
C296 C301 1.379 . S
C296 N303 1.356 . S
C297 C296 1.363 . S
C297 C300 1.363 . S
N298 C300 1.356 . S
N298 H310 0.984 . S
N298 H311 0.985 . S
N299 C301 1.356 . S
N299 H304 0.984 . S
N299 H305 0.985 . S
C300 C294 1.379 . S
C300 C297 1.363 . S
C300 N298 1.356 . S
C301 C295 1.363 . S
C301 C296 1.379 . S
C301 N299 1.356 . S
N302 C294 1.356 . S
N302 H308 0.984 . S
N302 H309 0.984 . S
N303 C296 1.356 . S
N303 H306 0.984 . S
N303 H307 0.985 . S
H304 N299 0.984 . S
H305 N299 0.985 . S
H306 N303 0.984 . S
H307 N303 0.985 . S
H308 N302 0.984 . S
H309 N302 0.984 . S
H310 N298 0.984 . S
H311 N298 0.985 . S
C312 C313 1.363 . S
C312 C318 1.379 . S
C312 N320 1.356 . S
C313 C312 1.363 . S
C313 C319 1.363 . S
C314 C315 1.363 . S
C314 C319 1.379 . S
C314 N321 1.356 . S
C315 C314 1.363 . S
C315 C318 1.363 . S
N316 C318 1.356 . S
N316 H328 0.984 . S
N316 H329 0.985 . S
N317 C319 1.356 . S
N317 H322 0.984 . S
N317 H323 0.985 . S
C318 C312 1.379 . S
C318 C315 1.363 . S
C318 N316 1.356 . S
C319 C313 1.363 . S
C319 C314 1.379 . S
C319 N317 1.356 . S
N320 C312 1.356 . S
N320 H326 0.984 1_556 S
N320 H327 0.984 1_556 S
N321 C314 1.356 . S
N321 H324 0.984 . S
N321 H325 0.985 . S
H322 N317 0.984 . S
H323 N317 0.985 . S
H324 N321 0.984 . S
H325 N321 0.985 . S
H326 N320 0.984 1_554 S
H327 N320 0.984 1_554 S
H328 N316 0.984 . S
H329 N316 0.985 . S
C330 C331 1.363 . S
C330 C336 1.379 . S
C330 N338 1.356 . S
C331 C330 1.363 . S
C331 C337 1.363 . S
C332 C333 1.363 . S
C332 C337 1.379 . S
C332 N339 1.356 . S
C333 C332 1.363 . S
C333 C336 1.363 . S
N334 C336 1.356 . S
N334 H346 0.984 . S
N334 H347 0.985 . S
N335 C337 1.356 . S
N335 H340 0.984 . S
N335 H341 0.985 . S
C336 C330 1.379 . S
C336 C333 1.363 . S
C336 N334 1.356 . S
C337 C331 1.363 . S
C337 C332 1.379 . S
C337 N335 1.356 . S
N338 C330 1.356 . S
N338 H344 0.984 . S
N338 H345 0.984 . S
N339 C332 1.356 . S
N339 H342 0.984 1_554 S
N339 H343 0.985 . S
H340 N335 0.984 . S
H341 N335 0.985 . S
H342 N339 0.984 1_556 S
H343 N339 0.985 . S
H344 N338 0.984 . S
H345 N338 0.984 . S
H346 N334 0.984 . S
H347 N334 0.985 . S
C348 C349 1.363 . S
C348 C354 1.379 . S
C348 N356 1.356 . S
C349 C348 1.363 . S
C349 C355 1.363 . S
C350 C351 1.363 . S
C350 C355 1.379 . S
C350 N357 1.356 . S
C351 C350 1.363 . S
C351 C354 1.363 . S
N352 C354 1.356 . S
N352 H364 0.984 . S
N352 H365 0.985 . S
N353 C355 1.356 . S
N353 H358 0.984 . S
N353 H359 0.985 . S
C354 C348 1.379 . S
C354 C351 1.363 . S
C354 N352 1.356 . S
C355 C349 1.363 . S
C355 C350 1.379 . S
C355 N353 1.356 . S
N356 C348 1.356 . S
N356 H362 0.984 . S
N356 H363 0.984 . S
N357 C350 1.356 . S
N357 H360 0.984 . S
N357 H361 0.985 . S
H358 N353 0.984 . S
H359 N353 0.985 . S
H360 N357 0.984 . S
H361 N357 0.985 . S
H362 N356 0.984 . S
H363 N356 0.984 . S
H364 N352 0.984 . S
H365 N352 0.985 . S
C366 C367 1.363 . S
C366 C372 1.379 . S
C366 N374 1.356 . S
C367 C366 1.363 . S
C367 C373 1.363 . S
C368 C369 1.363 . S
C368 C373 1.379 . S
C368 N375 1.356 . S
C369 C368 1.363 . S
C369 C372 1.363 . S
N370 C372 1.356 . S
N370 H382 0.984 . S
N370 H383 0.985 . S
N371 C373 1.356 . S
N371 H376 0.984 . S
N371 H377 0.985 . S
C372 C366 1.379 . S
C372 C369 1.363 . S
C372 N370 1.356 . S
C373 C367 1.363 . S
C373 C368 1.379 . S
C373 N371 1.356 . S
N374 C366 1.356 . S
N374 H380 0.984 . S
N374 H381 0.984 . S
N375 C368 1.356 . S
N375 H378 0.984 . S
N375 H379 0.985 . S
H376 N371 0.984 . S
H377 N371 0.985 . S
H378 N375 0.984 . S
H379 N375 0.985 . S
H380 N374 0.984 . S
H381 N374 0.984 . S
H382 N370 0.984 . S
H383 N370 0.985 . S
C384 C385 1.363 . S
C384 C390 1.379 1_655 S
C384 N392 1.356 . S
C385 C384 1.363 . S
C385 C391 1.363 . S
C386 C387 1.363 . S
C386 C391 1.379 1_455 S
C386 N393 1.356 . S
C387 C386 1.363 . S
C387 C390 1.363 . S
N388 C390 1.356 . S
N388 H400 0.984 . S
N388 H401 0.985 . S
N389 C391 1.356 . S
N389 H394 0.984 . S
N389 H395 0.985 . S
C390 C384 1.379 1_455 S
C390 C387 1.363 . S
C390 N388 1.356 . S
C391 C385 1.363 . S
C391 C386 1.379 1_655 S
C391 N389 1.356 . S
N392 C384 1.356 . S
N392 H398 0.984 . S
N392 H399 0.984 . S
N393 C386 1.356 . S
N393 H396 0.984 . S
N393 H397 0.985 . S
H394 N389 0.984 . S
H395 N389 0.985 . S
H396 N393 0.984 . S
H397 N393 0.985 . S
H398 N392 0.984 . S
H399 N392 0.984 . S
H400 N388 0.984 . S
H401 N388 0.985 . S
C402 C403 1.363 . S
C402 C408 1.379 1_565 S
C402 N410 1.356 . S
C403 C402 1.363 . S
C403 C409 1.363 . S
C404 C405 1.363 . S
C404 C409 1.379 1_545 S
C404 N411 1.356 . S
C405 C404 1.363 . S
C405 C408 1.363 . S
N406 C408 1.356 . S
N406 H418 0.984 . S
N406 H419 0.985 . S
N407 C409 1.356 . S
N407 H412 0.984 . S
N407 H413 0.985 . S
C408 C402 1.379 1_545 S
C408 C405 1.363 . S
C408 N406 1.356 . S
C409 C403 1.363 . S
C409 C404 1.379 1_565 S
C409 N407 1.356 . S
N410 C402 1.356 . S
N410 H416 0.984 . S
N410 H417 0.984 . S
N411 C404 1.356 . S
N411 H414 0.984 . S
N411 H415 0.985 . S
H412 N407 0.984 . S
H413 N407 0.985 . S
H414 N411 0.984 . S
H415 N411 0.985 . S
H416 N410 0.984 . S
H417 N410 0.984 . S
H418 N406 0.984 . S
H419 N406 0.985 . S
C420 C421 1.363 . S
C420 C426 1.379 . S
C420 N428 1.356 . S
C421 C420 1.363 . S
C421 C427 1.363 . S
C422 C423 1.363 . S
C422 C427 1.379 . S
C422 N429 1.356 . S
C423 C422 1.363 . S
C423 C426 1.363 . S
N424 C426 1.356 . S
N424 H436 0.984 . S
N424 H437 0.985 . S
N425 C427 1.356 . S
N425 H430 0.984 . S
N425 H431 0.985 . S
C426 C420 1.379 . S
C426 C423 1.363 . S
C426 N424 1.356 . S
C427 C421 1.363 . S
C427 C422 1.379 . S
C427 N425 1.356 . S
N428 C420 1.356 . S
N428 H434 0.984 . S
N428 H435 0.984 . S
N429 C422 1.356 . S
N429 H432 0.984 . S
N429 H433 0.985 . S
H430 N425 0.984 . S
H431 N425 0.985 . S
H432 N429 0.984 . S
H433 N429 0.985 . S
H434 N428 0.984 . S
H435 N428 0.984 . S
H436 N424 0.984 . S
H437 N424 0.985 . S
C438 C439 1.363 . S
C438 C444 1.379 1_455 S
C438 N446 1.356 . S
C439 C438 1.363 . S
C439 C445 1.363 . S
C440 C441 1.363 . S
C440 C445 1.379 1_655 S
C440 N447 1.356 . S
C441 C440 1.363 . S
C441 C444 1.363 . S
N442 C444 1.356 . S
N442 H454 0.984 . S
N442 H455 0.985 . S
N443 C445 1.356 . S
N443 H448 0.984 . S
N443 H449 0.985 . S
C444 C438 1.379 1_655 S
C444 C441 1.363 . S
C444 N442 1.356 . S
C445 C439 1.363 . S
C445 C440 1.379 1_455 S
C445 N443 1.356 . S
N446 C438 1.356 . S
N446 H452 0.984 . S
N446 H453 0.984 . S
N447 C440 1.356 . S
N447 H450 0.984 . S
N447 H451 0.985 . S
H448 N443 0.984 . S
H449 N443 0.985 . S
H450 N447 0.984 . S
H451 N447 0.985 . S
H452 N446 0.984 . S
H453 N446 0.984 . S
H454 N442 0.984 . S
H455 N442 0.985 . S
C456 C457 1.363 1_554 S
C456 C462 1.379 1_545 S
C456 N464 1.356 . S
C457 C456 1.363 1_556 S
C457 C463 1.363 . S
C458 C459 1.363 1_556 S
C458 C463 1.379 1_565 S
C458 N465 1.356 . S
C459 C458 1.363 1_554 S
C459 C462 1.363 . S
N460 C462 1.356 . S
N460 H472 0.984 . S
N460 H473 0.985 . S
N461 C463 1.356 . S
N461 H466 0.984 . S
N461 H467 0.985 . S
C462 C456 1.379 1_565 S
C462 C459 1.363 . S
C462 N460 1.356 . S
C463 C457 1.363 . S
C463 C458 1.379 1_545 S
C463 N461 1.356 . S
N464 C456 1.356 . S
N464 H470 0.984 . S
N464 H471 0.984 . S
N465 C458 1.356 . S
N465 H468 0.984 . S
N465 H469 0.985 . S
H466 N461 0.984 . S
H467 N461 0.985 . S
H468 N465 0.984 . S
H469 N465 0.985 . S
H470 N464 0.984 . S
H471 N464 0.984 . S
H472 N460 0.984 . S
H473 N460 0.985 . S
C474 C475 1.363 . S
C474 C480 1.379 . S
C474 N482 1.356 . S
C475 C474 1.363 . S
C475 C481 1.363 . S
C476 C477 1.363 . S
C476 C481 1.379 . S
C476 N483 1.356 . S
C477 C476 1.363 . S
C477 C480 1.363 . S
N478 C480 1.356 . S
N478 H490 0.984 . S
N478 H491 0.985 . S
N479 C481 1.356 . S
N479 H484 0.984 . S
N479 H485 0.985 . S
C480 C474 1.379 . S
C480 C477 1.363 . S
C480 N478 1.356 . S
C481 C475 1.363 . S
C481 C476 1.379 . S
C481 N479 1.356 . S
N482 C474 1.356 . S
N482 H488 0.984 . S
N482 H489 0.984 . S
N483 C476 1.356 . S
N483 H486 0.984 . S
N483 H487 0.985 . S
H484 N479 0.984 . S
H485 N479 0.985 . S
H486 N483 0.984 . S
H487 N483 0.985 . S
H488 N482 0.984 . S
H489 N482 0.984 . S
H490 N478 0.984 . S
H491 N478 0.985 . S
C492 C493 1.363 . S
C492 C498 1.379 . S
C492 N500 1.356 . S
C493 C492 1.363 . S
C493 C499 1.363 . S
C494 C495 1.363 . S
C494 C499 1.379 . S
C494 N501 1.356 . S
C495 C494 1.363 . S
C495 C498 1.363 . S
N496 C498 1.356 . S
N496 H508 0.984 . S
N496 H509 0.985 . S
N497 C499 1.356 . S
N497 H502 0.984 . S
N497 H503 0.985 . S
C498 C492 1.379 . S
C498 C495 1.363 . S
C498 N496 1.356 . S
C499 C493 1.363 . S
C499 C494 1.379 . S
C499 N497 1.356 . S
N500 C492 1.356 . S
N500 H506 0.984 . S
N500 H507 0.984 . S
N501 C494 1.356 . S
N501 H504 0.984 . S
N501 H505 0.985 . S
H502 N497 0.984 . S
H503 N497 0.985 . S
H504 N501 0.984 . S
H505 N501 0.985 . S
H506 N500 0.984 . S
H507 N500 0.984 . S
H508 N496 0.984 . S
H509 N496 0.985 . S
C510 C511 1.363 . S
C510 C516 1.379 . S
C510 N518 1.356 . S
C511 C510 1.363 . S
C511 C517 1.363 . S
C512 C513 1.363 . S
C512 C517 1.379 . S
C512 N519 1.356 . S
C513 C512 1.363 . S
C513 C516 1.363 . S
N514 C516 1.356 . S
N514 H526 0.984 . S
N514 H527 0.985 . S
N515 C517 1.356 . S
N515 H520 0.984 . S
N515 H521 0.985 . S
C516 C510 1.379 . S
C516 C513 1.363 . S
C516 N514 1.356 . S
C517 C511 1.363 . S
C517 C512 1.379 . S
C517 N515 1.356 . S
N518 C510 1.356 . S
N518 H524 0.984 . S
N518 H525 0.984 . S
N519 C512 1.356 . S
N519 H522 0.984 . S
N519 H523 0.985 . S
H520 N515 0.984 . S
H521 N515 0.985 . S
H522 N519 0.984 . S
H523 N519 0.985 . S
H524 N518 0.984 . S
H525 N518 0.984 . S
H526 N514 0.984 . S
H527 N514 0.985 . S
C528 C529 1.363 . S
C528 C534 1.379 . S
C528 N536 1.356 . S
C529 C528 1.363 . S
C529 C535 1.363 . S
C530 C531 1.363 . S
C530 C535 1.379 . S
C530 N537 1.356 . S
C531 C530 1.363 . S
C531 C534 1.363 . S
N532 C534 1.356 . S
N532 H544 0.984 . S
N532 H545 0.985 . S
N533 C535 1.356 . S
N533 H538 0.984 . S
N533 H539 0.985 . S
C534 C528 1.379 . S
C534 C531 1.363 . S
C534 N532 1.356 . S
C535 C529 1.363 . S
C535 C530 1.379 . S
C535 N533 1.356 . S
N536 C528 1.356 . S
N536 H542 0.984 . S
N536 H543 0.984 . S
N537 C530 1.356 . S
N537 H540 0.984 . S
N537 H541 0.985 . S
H538 N533 0.984 . S
H539 N533 0.985 . S
H540 N537 0.984 . S
H541 N537 0.985 . S
H542 N536 0.984 . S
H543 N536 0.984 . S
H544 N532 0.984 . S
H545 N532 0.985 . S
C546 C547 1.363 . S
C546 C552 1.379 . S
C546 N554 1.356 . S
C547 C546 1.363 . S
C547 C553 1.363 . S
C548 C549 1.363 . S
C548 C553 1.379 . S
C548 N555 1.356 . S
C549 C548 1.363 . S
C549 C552 1.363 . S
N550 C552 1.356 . S
N550 H562 0.984 . S
N550 H563 0.985 . S
N551 C553 1.356 . S
N551 H556 0.984 . S
N551 H557 0.985 . S
C552 C546 1.379 . S
C552 C549 1.363 . S
C552 N550 1.356 . S
C553 C547 1.363 . S
C553 C548 1.379 . S
C553 N551 1.356 . S
N554 C546 1.356 . S
N554 H560 0.984 . S
N554 H561 0.984 . S
N555 C548 1.356 . S
N555 H558 0.984 . S
N555 H559 0.985 . S
H556 N551 0.984 . S
H557 N551 0.985 . S
H558 N555 0.984 . S
H559 N555 0.985 . S
H560 N554 0.984 . S
H561 N554 0.984 . S
H562 N550 0.984 . S
H563 N550 0.985 . S
C564 C565 1.363 . S
C564 C570 1.379 . S
C564 N572 1.356 . S
C565 C564 1.363 . S
C565 C571 1.363 . S
C566 C567 1.363 . S
C566 C571 1.379 . S
C566 N573 1.356 . S
C567 C566 1.363 . S
C567 C570 1.363 . S
N568 C570 1.356 . S
N568 H580 0.984 . S
N568 H581 0.985 . S
N569 C571 1.356 . S
N569 H574 0.984 1_556 S
N569 H575 0.985 . S
C570 C564 1.379 . S
C570 C567 1.363 . S
C570 N568 1.356 . S
C571 C565 1.363 . S
C571 C566 1.379 . S
C571 N569 1.356 . S
N572 C564 1.356 . S
N572 H578 0.984 . S
N572 H579 0.984 . S
N573 C566 1.356 . S
N573 H576 0.984 . S
N573 H577 0.985 . S
H574 N569 0.984 1_554 S
H575 N569 0.985 . S
H576 N573 0.984 . S
H577 N573 0.985 . S
H578 N572 0.984 . S
H579 N572 0.984 . S
H580 N568 0.984 . S
H581 N568 0.985 . S
C582 C583 1.363 . S
C582 C588 1.379 . S
C582 N590 1.356 . S
C583 C582 1.363 . S
C583 C589 1.363 . S
C584 C585 1.363 . S
C584 C589 1.379 . S
C584 N591 1.356 . S
C585 C584 1.363 . S
C585 C588 1.363 . S
N586 C588 1.356 1_556 S
N586 H598 0.984 . S
N586 H599 0.985 . S
N587 C589 1.356 . S
N587 H592 0.984 . S
N587 H593 0.985 . S
C588 C582 1.379 . S
C588 C585 1.363 . S
C588 N586 1.356 1_554 S
C589 C583 1.363 . S
C589 C584 1.379 . S
C589 N587 1.356 . S
N590 C582 1.356 . S
N590 H596 0.984 . S
N590 H597 0.984 . S
N591 C584 1.356 . S
N591 H594 0.984 . S
N591 H595 0.985 . S
H592 N587 0.984 . S
H593 N587 0.985 . S
H594 N591 0.984 . S
H595 N591 0.985 . S
H596 N590 0.984 . S
H597 N590 0.984 . S
H598 N586 0.984 . S
H599 N586 0.985 . S
C169 C9 0.993 . S
C171 C93 0.993 . S
C187 C23 0.993 . S
C189 C107 0.993 . S
C205 C121 0.993 . S
C207 C37 0.993 . S
C223 C51 0.993 . S
C225 C135 0.993 . S
C241 C65 0.993 . S
C243 C149 0.993 . S
C259 C163 0.993 . S
C261 C79 0.993 . S
C277 C119 1.674 . S
C279 C7 1.674 . S
C295 C21 1.674 . S
C297 C133 1.674 . S
C313 C147 1.674 1_556 S
C315 C35 1.674 . S
C331 C161 1.674 . S
C333 C49 1.674 1_554 S
C349 C63 1.674 . S
C351 C91 1.674 . S
C367 C77 1.674 . S
C369 C105 1.674 . S
C385 C162 1.406 . S
C387 C8 1.406 . S
C403 C92 1.406 . S
C405 C22 1.406 . S
C421 C36 1.406 . S
C423 C106 1.406 . S
C439 C120 1.406 . S
C441 C50 1.406 . S
C457 C134 1.406 . S
C459 C64 1.406 . S
C475 C148 1.406 . S
C477 C78 1.406 . S
C493 C3 1.579 . S
C495 C143 1.579 . S
C511 C157 1.579 . S
C513 C17 1.579 . S
C529 C31 1.579 . S
C531 C87 1.579 . S
C547 C45 1.579 . S
C549 C101 1.579 . S
C565 C59 1.579 1_556 S
C567 C115 1.579 . S
C583 C73 1.579 . S
C585 C129 1.579 1_554 S
