# Generated by pormake.
# Topology unh, (4)-cn, num edge types: 1
# Building blocks:
#     Node 0, Type 0, BuildingBlock: KUFVIS_clean_sbu_0, # of connection points: 4
#     Node 1, Type 0, BuildingBlock: KUFVIS_clean_sbu_0, # of connection points: 4
#     Node 2, Type 0, BuildingBlock: KUFVIS_clean_sbu_0, # of connection points: 4
#     Node 3, Type 0, BuildingBlock: KUFVIS_clean_sbu_0, # of connection points: 4
#     Node 4, Type 0, BuildingBlock: KUFVIS_clean_sbu_0, # of connection points: 4
#     Node 5, Type 0, BuildingBlock: KUFVIS_clean_sbu_0, # of connection points: 4
#     Edge 6, Type (0, 0), BuildingBlock: TEMPAE_clean_linker_10, # of connection points: 2
#     Edge 7, Type (0, 0), BuildingBlock: TEMPAE_clean_linker_10, # of connection points: 2
#     Edge 8, Type (0, 0), BuildingBlock: TEMPAE_clean_linker_10, # of connection points: 2
#     Edge 9, Type (0, 0), BuildingBlock: TEMPAE_clean_linker_10, # of connection points: 2
#     Edge 10, Type (0, 0), BuildingBlock: TEMPAE_clean_linker_10, # of connection points: 2
#     Edge 11, Type (0, 0), BuildingBlock: TEMPAE_clean_linker_10, # of connection points: 2
#     Edge 12, Type (0, 0), BuildingBlock: TEMPAE_clean_linker_10, # of connection points: 2
#     Edge 13, Type (0, 0), BuildingBlock: TEMPAE_clean_linker_10, # of connection points: 2
#     Edge 14, Type (0, 0), BuildingBlock: TEMPAE_clean_linker_10, # of connection points: 2
#     Edge 15, Type (0, 0), BuildingBlock: TEMPAE_clean_linker_10, # of connection points: 2
#     Edge 16, Type (0, 0), BuildingBlock: TEMPAE_clean_linker_10, # of connection points: 2
#     Edge 17, Type (0, 0), BuildingBlock: TEMPAE_clean_linker_10, # of connection points: 2
# Relax obj value: 0.110
# Max RMSD: 0.223
# Mean RMSD: 0.223
data_MOF--net-unh--node1-KUFVIS_clean_sbu_0--edge1-TEMPAE_clean_linker_10
_symmetry_space_group_name_H-M    P1
_symmetry_Int_Tables_number       1
_symmetry_cell_setting            triclinic
loop_
_symmetry_equiv_pos_as_xyz
'x, y, z'
_cell_length_a     42.315673
_cell_length_b     42.283832
_cell_length_c     22.44898
_cell_angle_alpha  89.998518
_cell_angle_beta   90.013025
_cell_angle_gamma 119.9812
loop_
_atom_site_label
_atom_site_type_symbol
_atom_site_fract_x
_atom_site_fract_y
_atom_site_fract_z
_atom_type_partial_charge
Mn0 Mn 0.14077 0.57393 0.06157 0.0
Mn1 Mn 0.10526 0.62887 0.04289 0.0
C2 C 0.172 0.6258 0.00541 0.0
C3 C 0.17352 0.55585 0.12155 0.0
C4 C 0.07837 0.55684 0.97792 0.0
O5 O 0.10012 0.55607 0.12202 0.0
O6 O 0.08505 0.6002 0.11757 0.0
C7 C 0.1391 0.67838 0.14565 0.0
N8 N 0.13333 0.6734 0.08586 0.0
C9 C 0.17016 0.73791 0.06761 0.0
C10 C 0.17622 0.74378 0.12906 0.0
C11 C 0.1607 0.71386 0.16822 0.0
C12 C 0.14832 0.70195 0.04775 0.0
H13 H 0.12741 0.65542 0.17583 0.0
C14 C 0.08265 0.57137 0.14071 0.0
O15 O 0.15008 0.53359 0.08291 0.0
O16 O 0.17753 0.58827 0.12538 0.0
N17 N 0.12269 0.65836 0.97266 0.0
C18 C 0.11573 0.64789 0.91449 0.0
C19 C 0.1301 0.67449 0.86949 0.0
C20 C 0.15117 0.71156 0.88474 0.0
C21 C 0.15768 0.72171 0.9449 0.0
C22 C 0.14246 0.69401 0.98782 0.0
H23 H 0.09948 0.61946 0.90243 0.0
O24 O 0.17994 0.59992 0.00177 0.0
O25 O 0.1472 0.62122 0.04415 0.0
O26 O 0.10334 0.55056 0.99545 0.0
O27 O 0.07522 0.5839 0.99569 0.0
C28 C 0.179 0.75818 0.96396 0.0
C29 C 0.1854 0.76627 0.02524 0.0
H30 H 0.19301 0.77109 0.14661 0.0
H31 H 0.16545 0.71814 0.21566 0.0
H32 H 0.12498 0.66643 0.82316 0.0
H33 H 0.16227 0.73197 0.84989 0.0
H34 H 0.19086 0.7802 0.93183 0.0
H35 H 0.20233 0.79436 0.03927 0.0
Mn36 Mn 0.5536 0.1386 0.24102 0.0
Mn37 Mn 0.46365 0.10466 0.21658 0.0
C38 C 0.53471 0.16788 0.17679 0.0
C39 C 0.60594 0.17365 0.29664 0.0
C40 C 0.50727 0.07486 0.15677 0.0
O41 O 0.53045 0.10398 0.30945 0.0
O42 O 0.47082 0.08118 0.28888 0.0
C43 C 0.44876 0.13588 0.32387 0.0
N44 N 0.44804 0.13207 0.26355 0.0
C45 C 0.42167 0.17058 0.25095 0.0
C46 C 0.42187 0.17468 0.31295 0.0
C47 C 0.43556 0.15732 0.34954 0.0
C48 C 0.43511 0.14881 0.22792 0.0
H49 H 0.45939 0.12274 0.3522 0.0
C50 C 0.49683 0.08321 0.32098 0.0
O51 O 0.60249 0.14677 0.26393 0.0
O52 O 0.57889 0.17993 0.29708 0.0
N53 N 0.45211 0.12475 0.14911 0.0
C54 C 0.45546 0.11952 0.09007 0.0
C55 C 0.44369 0.1357 0.04744 0.0
C56 C 0.42832 0.1568 0.06591 0.0
C57 C 0.42494 0.16163 0.12689 0.0
C58 C 0.43693 0.14464 0.16734 0.0
H59 H 0.46752 0.10361 0.07559 0.0
O60 O 0.56759 0.17306 0.1735 0.0
O61 O 0.51384 0.14616 0.21874 0.0
O62 O 0.53729 0.09588 0.18316 0.0
O63 O 0.47795 0.07593 0.16532 0.0
C64 C 0.41064 0.18306 0.14912 0.0
C65 C 0.40912 0.18763 0.21109 0.0
H66 H 0.41183 0.1913 0.33292 0.0
H67 H 0.43599 0.16051 0.39742 0.0
H68 H 0.44657 0.132 0.00045 0.0
H69 H 0.41933 0.16927 0.03289 0.0
H70 H 0.40111 0.19649 0.11894 0.0
H71 H 0.39854 0.20459 0.22761 0.0
Mn72 Mn 0.41847 0.56416 0.39963 0.0
Mn73 Mn 0.36488 0.47323 0.38346 0.0
C74 C 0.36658 0.54206 0.34325 0.0
C75 C 0.43586 0.61572 0.45752 0.0
C76 C 0.43642 0.51861 0.3176 0.0
O77 O 0.43705 0.54273 0.4614 0.0
O78 O 0.39408 0.4831 0.4579 0.0
C79 C 0.31582 0.45792 0.48667 0.0
N80 N 0.32052 0.45651 0.42692 0.0
C81 C 0.25583 0.42727 0.40958 0.0
C82 C 0.25027 0.4281 0.471 0.0
C83 C 0.28041 0.44358 0.50968 0.0
C84 C 0.29174 0.44187 0.38927 0.0
H85 H 0.33894 0.47001 0.51647 0.0
C86 C 0.42251 0.51013 0.48075 0.0
O87 O 0.45823 0.61434 0.41937 0.0
O88 O 0.40371 0.58706 0.46218 0.0
N89 N 0.33493 0.45975 0.31362 0.0
C90 C 0.34509 0.46278 0.25534 0.0
C91 C 0.31822 0.44958 0.21074 0.0
C92 C 0.28121 0.43307 0.2265 0.0
C93 C 0.27139 0.42986 0.28677 0.0
C94 C 0.29935 0.44335 0.32928 0.0
H95 H 0.37347 0.47537 0.2429 0.0
O96 O 0.39201 0.576 0.33882 0.0
O97 O 0.37151 0.52252 0.38298 0.0
O98 O 0.44228 0.54985 0.33449 0.0
O99 O 0.40968 0.48835 0.33584 0.0
C100 C 0.23499 0.41425 0.30631 0.0
C101 C 0.22722 0.41309 0.36764 0.0
H102 H 0.22301 0.41722 0.48889 0.0
H103 H 0.27635 0.44454 0.5571 0.0
H104 H 0.32601 0.45217 0.16432 0.0
H105 H 0.26058 0.42305 0.19196 0.0
H106 H 0.21277 0.40338 0.27452 0.0
H107 H 0.19916 0.40154 0.38203 0.0
Mn108 Mn 0.85238 0.41894 0.56186 0.0
Mn109 Mn 0.88659 0.3629 0.54289 0.0
C110 C 0.82038 0.36714 0.50585 0.0
C111 C 0.82041 0.4378 0.62212 0.0
C112 C 0.9143 0.43499 0.47779 0.0
O113 O 0.89316 0.43631 0.62201 0.0
O114 O 0.90732 0.39153 0.61748 0.0
C115 C 0.85244 0.31366 0.64583 0.0
N116 N 0.85808 0.31852 0.586 0.0
C117 C 0.82036 0.25408 0.56793 0.0
C118 C 0.81441 0.24833 0.62941 0.0
C119 C 0.83045 0.27827 0.6685 0.0
C120 C 0.8426 0.28995 0.54796 0.0
H121 H 0.86453 0.33663 0.67595 0.0
C122 C 0.91027 0.4206 0.64058 0.0
O123 O 0.84392 0.45981 0.58333 0.0
O124 O 0.81589 0.40519 0.62594 0.0
N125 N 0.8686 0.33339 0.47275 0.0
C126 C 0.87555 0.34378 0.41454 0.0
C127 C 0.86071 0.31716 0.36961 0.0
C128 C 0.8392 0.28015 0.38497 0.0
C129 C 0.83271 0.27009 0.44515 0.0
C130 C 0.8484 0.29779 0.488 0.0
H131 H 0.89214 0.37215 0.4024 0.0
O132 O 0.81294 0.39337 0.50234 0.0
O133 O 0.84515 0.37135 0.54442 0.0
O134 O 0.88969 0.44177 0.49548 0.0
O135 O 0.91703 0.40769 0.49554 0.0
C136 C 0.81096 0.23369 0.46431 0.0
C137 C 0.80463 0.22571 0.52563 0.0
H138 H 0.79733 0.2211 0.64705 0.0
H139 H 0.82579 0.27409 0.71597 0.0
H140 H 0.86582 0.32514 0.32325 0.0
H141 H 0.82774 0.25972 0.35016 0.0
H142 H 0.79872 0.21166 0.43224 0.0
H143 H 0.78738 0.19768 0.53974 0.0
Mn144 Mn 0.43685 0.85724 0.74073 0.0
Mn145 Mn 0.52691 0.89221 0.71623 0.0
C146 C 0.45629 0.82842 0.67657 0.0
C147 C 0.38463 0.8216 0.79625 0.0
C148 C 0.48255 0.92098 0.65601 0.0
O149 O 0.45961 0.89189 0.80922 0.0
O150 O 0.51929 0.91589 0.78784 0.0
C151 C 0.54231 0.86217 0.82452 0.0
N152 N 0.54304 0.86558 0.76412 0.0
C153 C 0.57029 0.82777 0.75292 0.0
C154 C 0.57008 0.82409 0.81501 0.0
C155 C 0.55595 0.8413 0.85094 0.0
C156 C 0.5564 0.84897 0.72913 0.0
H157 H 0.53135 0.8752 0.85236 0.0
C158 C 0.49316 0.91337 0.82018 0.0
O159 O 0.38768 0.84835 0.76361 0.0
O160 O 0.412 0.81581 0.79667 0.0
N161 N 0.53896 0.87205 0.64946 0.0
C162 C 0.53558 0.87681 0.59023 0.0
C163 C 0.54787 0.86079 0.5482 0.0
C164 C 0.56376 0.8403 0.56745 0.0
C165 C 0.56708 0.83588 0.62859 0.0
C166 C 0.5546 0.85272 0.66843 0.0
H167 H 0.52308 0.89219 0.57517 0.0
O168 O 0.42328 0.82287 0.67315 0.0
O169 O 0.47699 0.85028 0.71854 0.0
O170 O 0.45273 0.9 0.68295 0.0
O171 O 0.51202 0.92011 0.66411 0.0
C172 C 0.58182 0.81499 0.65158 0.0
C173 C 0.58331 0.81084 0.71369 0.0
H174 H 0.58046 0.80791 0.83555 0.0
H175 H 0.55551 0.83843 0.89888 0.0
H176 H 0.54499 0.86413 0.50108 0.0
H177 H 0.57319 0.82799 0.53489 0.0
H178 H 0.5917 0.80166 0.62189 0.0
H179 H 0.59424 0.79431 0.7308 0.0
Mn180 Mn 0.57749 0.43386 0.89991 0.0
Mn181 Mn 0.63232 0.52464 0.88384 0.0
C182 C 0.6294 0.45519 0.84384 0.0
C183 C 0.55913 0.38208 0.95769 0.0
C184 C 0.56081 0.48019 0.81744 0.0
O185 O 0.55938 0.45581 0.96152 0.0
O186 O 0.60295 0.51522 0.95794 0.0
C187 C 0.68081 0.53911 0.98763 0.0
N188 N 0.67641 0.54067 0.92781 0.0
C189 C 0.74109 0.56901 0.91121 0.0
C190 C 0.74636 0.56803 0.97271 0.0
C191 C 0.71607 0.55292 0.01105 0.0
C192 C 0.70533 0.55494 0.89048 0.0
H193 H 0.65757 0.5273 0.01718 0.0
C194 C 0.57429 0.48846 0.98076 0.0
O195 O 0.5371 0.38397 0.91939 0.0
O196 O 0.59151 0.41039 0.96258 0.0
N197 N 0.6625 0.53773 0.81434 0.0
C198 C 0.65261 0.5349 0.75594 0.0
C199 C 0.67965 0.54776 0.71165 0.0
C200 C 0.71656 0.56375 0.72783 0.0
C201 C 0.72611 0.56677 0.78822 0.0
C202 C 0.69799 0.55363 0.83041 0.0
H203 H 0.62431 0.52272 0.74318 0.0
O204 O 0.60357 0.42142 0.83931 0.0
O205 O 0.62484 0.47501 0.88351 0.0
O206 O 0.55433 0.44879 0.83458 0.0
O207 O 0.58784 0.51024 0.8357 0.0
C208 C 0.76238 0.58186 0.80818 0.0
C209 C 0.76986 0.58285 0.8696 0.0
H210 H 0.7735 0.5785 0.99092 0.0
H211 H 0.71988 0.55184 0.05852 0.0
H212 H 0.67206 0.54532 0.66513 0.0
H213 H 0.73731 0.57351 0.69352 0.0
H214 H 0.78472 0.59247 0.77664 0.0
H215 H 0.79782 0.594 0.88432 0.0
C216 C 0.0648 0.51787 0.88796 0.0
C217 C 0.05268 0.53249 0.93251 0.0
C218 C 0.04158 0.4971 0.84148 0.0
C219 C 0.00519 0.49006 0.8407 0.0
C220 C 0.99235 0.50334 0.88718 0.0
C221 C 0.01649 0.52496 0.93214 0.0
C222 C 0.05652 0.48428 0.79177 0.0
C223 C 0.95344 0.49559 0.88851 0.0
C224 C 0.95677 0.47576 0.69325 0.0
C225 C 0.9354 0.43767 0.69081 0.0
C226 C 0.9803 0.49303 0.74118 0.0
C227 C 0.98154 0.47165 0.78863 0.0
C228 C 0.95995 0.4331 0.78645 0.0
C229 C 0.93747 0.41645 0.73684 0.0
C230 C 0.00371 0.53416 0.74108 0.0
C231 C 0.95995 0.4096 0.83707 0.0
H232 H 0.09293 0.52399 0.88806 0.0
H233 H 0.00708 0.53602 0.96701 0.0
H234 H 0.0389 0.45449 0.78469 0.0
H235 H 0.05656 0.49801 0.74961 0.0
H236 H 0.08478 0.49024 0.80086 0.0
H237 H 0.94675 0.50442 0.93098 0.0
H238 H 0.94889 0.51012 0.8513 0.0
H239 H 0.93423 0.46596 0.88229 0.0
H240 H 0.95534 0.49207 0.65717 0.0
H241 H 0.92067 0.38698 0.73491 0.0
H242 H 0.03281 0.54226 0.74724 0.0
H243 H -0.00407 0.5458 0.7788 0.0
H244 H 0.00102 0.54651 0.69908 0.0
H245 H 0.98797 0.41469 0.84503 0.0
H246 H 0.94172 0.38001 0.82827 0.0
H247 H 0.95088 0.41688 0.87864 0.0
C248 C 0.48303 0.92079 0.9266 0.0
C249 C 0.50176 0.93632 0.87351 0.0
C250 C 0.48708 0.9426 0.97615 0.0
C251 C 0.50945 0.98094 0.9716 0.0
C252 C 0.52952 0.99665 0.91868 0.0
C253 C 0.52581 0.97397 0.87032 0.0
C254 C 0.46607 0.92472 0.03233 0.0
C255 C 0.55301 0.03749 0.91177 0.0
C256 C 0.48041 0.03609 0.06638 0.0
C257 C 0.507 0.0494 0.11129 0.0
C258 C 0.48136 0.01432 0.0202 0.0
C259 C 0.5089 0.00462 0.01991 0.0
C260 C 0.53521 0.01701 0.06601 0.0
C261 C 0.53423 0.03967 0.11081 0.0
C262 C 0.45312 0.00208 0.97127 0.0
C263 C 0.56426 0.00625 0.06805 0.0
H264 H 0.46464 0.89153 0.92893 0.0
H265 H 0.54001 0.98585 0.82892 0.0
H266 H 0.48413 0.93559 0.07187 0.0
H267 H 0.44377 0.93104 0.03809 0.0
H268 H 0.45387 0.89457 0.03127 0.0
H269 H 0.569 0.04515 0.86974 0.0
H270 H 0.53543 0.05007 0.91184 0.0
H271 H 0.57214 0.04927 0.94982 0.0
H272 H 0.45925 0.04339 0.06637 0.0
H273 H 0.5547 0.04961 0.14567 0.0
H274 H 0.43643 0.97186 0.97076 0.0
H275 H 0.46677 0.01075 0.92728 0.0
H276 H 0.43457 0.01339 0.9767 0.0
H277 H 0.55135 0.97605 0.06852 0.0
H278 H 0.58212 0.01742 0.10782 0.0
H279 H 0.58149 0.01617 0.02753 0.0
C280 C 0.47441 0.54334 0.22658 0.0
C281 C 0.46081 0.51731 0.27227 0.0
C282 C 0.4952 0.54083 0.18022 0.0
C283 C 0.50335 0.5122 0.18072 0.0
C284 C 0.49107 0.48682 0.22829 0.0
C285 C 0.46937 0.48933 0.27311 0.0
C286 C 0.5069 0.56773 0.12933 0.0
C287 C 0.50005 0.45649 0.23103 0.0
C288 C 0.5186 0.47756 0.03443 0.0
C289 C 0.55673 0.4956 0.03136 0.0
C290 C 0.50097 0.48338 0.08229 0.0
C291 C 0.52205 0.50695 0.12906 0.0
C292 C 0.56063 0.52511 0.12639 0.0
C293 C 0.5776 0.51967 0.07685 0.0
C294 C 0.45978 0.46437 0.08269 0.0
C295 C 0.58387 0.54964 0.17631 0.0
H296 H 0.46747 0.56479 0.22576 0.0
H297 H 0.45907 0.46941 0.30884 0.0
H298 H 0.53675 0.58076 0.12209 0.0
H299 H 0.49334 0.55311 0.08766 0.0
H300 H 0.49992 0.58946 0.13722 0.0
H301 H 0.49182 0.44155 0.27408 0.0
H302 H 0.48579 0.43671 0.19453 0.0
H303 H 0.52976 0.46764 0.22461 0.0
H304 H 0.50254 0.45923 -0.00122 0.0
H305 H 0.60711 0.5334 0.07447 0.0
H306 H 0.45069 0.48471 0.0877 0.0
H307 H 0.44892 0.44553 0.12127 0.0
H308 H 0.44758 0.44843 0.04134 0.0
H309 H 0.57812 0.57227 0.18294 0.0
H310 H 0.6135 0.56148 0.16757 0.0
H311 H 0.57698 0.53396 0.21857 0.0
C312 C 0.92799 0.47349 0.38727 0.0
C313 C 0.94004 0.45906 0.43224 0.0
C314 C 0.9513 0.49412 0.34082 0.0
C315 C 0.98773 0.50125 0.34051 0.0
C316 C 0.00047 0.4881 0.38735 0.0
C317 C 0.97623 0.46659 0.43226 0.0
C318 C 0.93646 0.50677 0.2907 0.0
C319 C 0.03942 0.49598 0.38921 0.0
C320 C 0.03667 0.51597 0.1935 0.0
C321 C 0.0577 0.55408 0.19105 0.0
C322 C 0.01315 0.49853 0.24135 0.0
C323 C 0.01158 0.51978 0.28873 0.0
C324 C 0.0329 0.55836 0.28661 0.0
C325 C 0.05536 0.57516 0.23706 0.0
C326 C 0.99 0.45738 0.24117 0.0
C327 C 0.03259 0.58173 0.33717 0.0
H328 H 0.89986 0.46735 0.38709 0.0
H329 H 0.98556 0.45565 0.46746 0.0
H330 H 0.95389 0.5366 0.28383 0.0
H331 H 0.93687 0.4932 0.24862 0.0
H332 H 0.90805 0.50052 0.29921 0.0
H333 H 0.04596 0.48714 0.43181 0.0
H334 H 0.0442 0.48154 0.35212 0.0
H335 H 0.05857 0.52562 0.38315 0.0
H336 H 0.03831 0.49978 0.15744 0.0
H337 H 0.0719 0.60466 0.23512 0.0
H338 H 0.96081 0.44907 0.24686 0.0
H339 H -0.00228 0.44585 0.27914 0.0
H340 H 0.99302 0.44512 0.19932 0.0
H341 H 0.00451 0.57663 0.34457 0.0
H342 H 0.05087 0.61134 0.32865 0.0
H343 H 0.04137 0.57433 0.37895 0.0
C344 C 0.50823 0.07554 0.42674 0.0
C345 C 0.48805 0.06043 0.37462 0.0
C346 C 0.50395 0.05361 0.47623 0.0
C347 C 0.47973 0.01552 0.47262 0.0
C348 C 0.45812 0.00035 0.42089 0.0
C349 C 0.46219 0.0232 0.37258 0.0
C350 C 0.52671 0.07099 0.53117 0.0
C351 C 0.43258 0.95975 0.41496 0.0
C352 C 0.50767 0.95815 0.56373 0.0
C353 C 0.48245 0.94628 0.61062 0.0
C354 C 0.50643 0.97997 0.51791 0.0
C355 C 0.48016 0.99134 0.52015 0.0
C356 C 0.45525 0.98036 0.56821 0.0
C357 C 0.45633 0.95747 0.6125 0.0
C358 C 0.53307 0.99057 0.4668 0.0
C359 C 0.42772 0.99303 0.57305 0.0
H360 H 0.528 0.1045 0.42828 0.0
H361 H 0.44679 0.01163 0.33197 0.0
H362 H 0.50959 0.06097 0.57184 0.0
H363 H 0.54815 0.06331 0.53491 0.0
H364 H 0.5402 0.10126 0.52996 0.0
H365 H 0.41535 0.95273 0.37435 0.0
H366 H 0.44874 0.94566 0.41275 0.0
H367 H 0.41455 0.94898 0.45447 0.0
H368 H 0.52798 0.94974 0.56194 0.0
H369 H 0.43697 0.94863 0.64896 0.0
H370 H 0.55116 0.02063 0.4658 0.0
H371 H 0.5181 0.98241 0.42384 0.0
H372 H 0.55036 0.9777 0.47009 0.0
H373 H 0.44199 0.02331 0.57375 0.0
H374 H 0.41066 0.98251 0.61378 0.0
H375 H 0.40955 0.98391 0.53355 0.0
C376 C 0.52849 0.51008 0.77271 0.0
C377 C 0.53674 0.48188 0.7719 0.0
C378 C 0.50685 0.51275 0.72794 0.0
C379 C 0.49433 0.48732 0.68042 0.0
C380 C 0.50227 0.45855 0.67984 0.0
C381 C 0.52299 0.45587 0.72618 0.0
C382 C 0.49808 0.54323 0.73075 0.0
C383 C 0.49034 0.4316 0.62898 0.0
C384 C 0.41964 0.47951 0.57725 0.0
C385 C 0.4403 0.50336 0.53142 0.0
C386 C 0.43683 0.47434 0.62675 0.0
C387 C 0.47542 0.49252 0.62901 0.0
C388 C 0.4963 0.5159 0.58193 0.0
C389 C 0.47844 0.52149 0.53413 0.0
C390 C 0.41381 0.45001 0.67701 0.0
C391 C 0.53748 0.53491 0.58187 0.0
H392 H 0.53892 0.52998 0.80847 0.0
H393 H 0.5297 0.43426 0.72537 0.0
H394 H 0.51218 0.56285 0.69401 0.0
H395 H 0.46835 0.53217 0.72478 0.0
H396 H 0.50662 0.5583 0.77366 0.0
H397 H 0.49744 0.40993 0.63659 0.0
H398 H 0.46045 0.41849 0.62223 0.0
H399 H 0.50361 0.44619 0.58715 0.0
H400 H 0.39011 0.46572 0.57513 0.0
H401 H 0.49434 0.53966 0.49821 0.0
H402 H 0.42106 0.46579 0.71921 0.0
H403 H 0.4194 0.42726 0.68345 0.0
H404 H 0.38415 0.43834 0.66876 0.0
H405 H 0.54853 0.55379 0.62037 0.0
H406 H 0.5495 0.55078 0.54041 0.0
H407 H 0.54657 0.51455 0.58669 0.0
C408 C 0.19148 0.5105 0.15538 0.0
C409 C 0.19604 0.54568 0.15816 0.0
C410 C 0.21485 0.50187 0.18703 0.0
C411 C 0.24335 0.52915 0.22177 0.0
C412 C 0.24721 0.56432 0.22617 0.0
C413 C 0.22342 0.57206 0.19455 0.0
C414 C 0.2095 0.46391 0.18252 0.0
C415 C 0.27746 0.59436 0.26237 0.0
C416 C 0.29983 0.51794 0.34091 0.0
C417 C 0.33259 0.5297 0.31024 0.0
C418 C 0.26881 0.51368 0.31105 0.0
C419 C 0.27134 0.52267 0.24981 0.0
C420 C 0.30389 0.53241 0.21812 0.0
C421 C 0.33429 0.53617 0.249 0.0
C422 C 0.23436 0.50245 0.346 0.0
C423 C 0.30776 0.54219 0.15281 0.0
H424 H 0.17008 0.48991 0.12775 0.0
H425 H 0.227 0.59926 0.19713 0.0
H426 H 0.23489 0.46511 0.16663 0.0
H427 H 0.20342 0.45114 0.22727 0.0
H428 H 0.18684 0.44617 0.15194 0.0
H429 H 0.27583 0.61978 0.26277 0.0
H430 H 0.27641 0.58527 0.30903 0.0
H431 H 0.30433 0.60083 0.24376 0.0
H432 H 0.29901 0.51396 0.38872 0.0
H433 H 0.35998 0.54578 0.22581 0.0
H434 H 0.21022 0.48172 0.32106 0.0
H435 H 0.23084 0.5265 0.35278 0.0
H436 H 0.23503 0.49112 0.39034 0.0
H437 H 0.28375 0.52165 0.1274 0.0
H438 H 0.33278 0.54416 0.13317 0.0
H439 H 0.30914 0.56894 0.14728 0.0
C440 C 0.6423 0.22609 0.36434 0.0
C441 C 0.63955 0.19693 0.33071 0.0
C442 C 0.67462 0.24998 0.39411 0.0
C443 C 0.705 0.24458 0.39021 0.0
C444 C 0.70212 0.21457 0.35772 0.0
C445 C 0.66929 0.19096 0.32843 0.0
C446 C 0.67658 0.28175 0.4282 0.0
C447 C 0.73365 0.20753 0.35357 0.0
C448 C 0.79154 0.33414 0.41306 0.0
C449 C 0.79705 0.33302 0.47418 0.0
C450 C 0.76363 0.30385 0.38369 0.0
C451 C 0.74018 0.27219 0.41688 0.0
C452 C 0.74722 0.27016 0.47801 0.0
C453 C 0.77541 0.30094 0.50625 0.0
C454 C 0.75743 0.30687 0.31822 0.0
C455 C 0.72332 0.2366 0.51453 0.0
H456 H 0.61934 0.23074 0.36656 0.0
H457 H 0.66716 0.1682 0.30294 0.0
H458 H 0.68515 0.28157 0.47485 0.0
H459 H 0.69732 0.30783 0.40767 0.0
H460 H 0.65004 0.28117 0.42884 0.0
H461 H 0.72882 0.18633 0.31988 0.0
H462 H 0.75922 0.23294 0.34216 0.0
H463 H 0.7377 0.19811 0.39749 0.0
H464 H 0.80819 0.35929 0.38874 0.0
H465 H 0.77928 0.3006 0.55395 0.0
H466 H 0.73254 0.30905 0.31247 0.0
H467 H 0.75299 0.28208 0.29408 0.0
H468 H 0.78078 0.33116 0.29744 0.0
H469 H 0.69637 0.23447 0.52161 0.0
H470 H 0.73553 0.23741 0.55873 0.0
H471 H 0.71856 0.21165 0.4906 0.0
C472 C 0.4564 0.79835 0.58227 0.0
C473 C 0.46541 0.80443 0.64268 0.0
C474 C 0.45815 0.77052 0.55137 0.0
C475 C 0.46853 0.7479 0.5822 0.0
C476 C 0.47952 0.75524 0.64257 0.0
C477 C 0.47726 0.78318 0.67244 0.0
C478 C 0.44614 0.76356 0.48706 0.0
C479 C 0.49123 0.73208 0.67667 0.0
C480 C 0.41958 0.64986 0.52974 0.0
C481 C 0.44572 0.64888 0.49272 0.0
C482 C 0.42718 0.6817 0.56038 0.0
C483 C 0.46192 0.71333 0.5542 0.0
C484 C 0.48893 0.71221 0.5186 0.0
C485 C 0.48046 0.67993 0.488 0.0
C486 C 0.39753 0.68179 0.5978 0.0
C487 C 0.52634 0.74529 0.51163 0.0
H488 H 0.4467 0.8146 0.55978 0.0
H489 H 0.48313 0.78728 0.71973 0.0
H490 H 0.46583 0.75973 0.4598 0.0
H491 H 0.41933 0.73806 0.48388 0.0
H492 H 0.44339 0.78625 0.4677 0.0
H493 H 0.50329 0.7442 0.72061 0.0
H494 H 0.4673 0.70455 0.68419 0.0
H495 H 0.51151 0.7285 0.65065 0.0
H496 H 0.39272 0.62592 0.53378 0.0
H497 H 0.50084 0.67923 0.45967 0.0
H498 H 0.39025 0.70164 0.57925 0.0
H499 H 0.4074 0.69053 0.64396 0.0
H500 H 0.37245 0.65452 0.59959 0.0
H501 H 0.52412 0.7672 0.48822 0.0
H502 H 0.54512 0.73918 0.48605 0.0
H503 H 0.53845 0.75603 0.55601 0.0
C504 C 0.66151 0.46044 0.74969 0.0
C505 C 0.66331 0.46703 0.8109 0.0
C506 C 0.6917 0.46365 0.71887 0.0
C507 C 0.72414 0.47297 0.75059 0.0
C508 C 0.72681 0.48206 0.8118 0.0
C509 C 0.696 0.47834 0.8416 0.0
C510 C 0.68764 0.4537 0.65362 0.0
C511 C 0.76116 0.49285 0.84679 0.0
C512 C 0.77085 0.42238 0.69542 0.0
C513 C 0.79835 0.44848 0.65887 0.0
C514 C 0.74743 0.4306 0.7271 0.0
C515 C 0.7518 0.46597 0.72261 0.0
C516 C 0.78045 0.49297 0.68777 0.0
C517 C 0.80343 0.48386 0.65603 0.0
C518 C 0.717 0.40085 0.76341 0.0
C519 C 0.78632 0.53112 0.68313 0.0
H520 H 0.63587 0.45116 0.72647 0.0
H521 H 0.69688 0.4824 0.8894 0.0
H522 H 0.71178 0.47391 0.62812 0.0
H523 H 0.68577 0.42671 0.64829 0.0
H524 H 0.6628 0.45212 0.63393 0.0
H525 H 0.76071 0.50435 0.89107 0.0
H526 H 0.76424 0.46854 0.85371 0.0
H527 H 0.78544 0.5133 0.82181 0.0
H528 H 0.76687 0.39502 0.69805 0.0
H529 H 0.82491 0.50423 0.62826 0.0
H530 H 0.69021 0.3947 0.74481 0.0
H531 H 0.71821 0.41006 0.81003 0.0
H532 H 0.71823 0.37521 0.7639 0.0
H533 H 0.76136 0.53027 0.66579 0.0
H534 H 0.80959 0.54887 0.6536 0.0
H535 H 0.79164 0.54366 0.72802 0.0
C536 C 0.32102 0.80329 0.82807 0.0
C537 C 0.35114 0.79791 0.83027 0.0
C538 C 0.28834 0.77926 0.85735 0.0
C539 C 0.28599 0.74944 0.88972 0.0
C540 C 0.31674 0.74463 0.89352 0.0
C541 C 0.3489 0.76892 0.86378 0.0
C542 C 0.25641 0.78569 0.85333 0.0
C543 C 0.31535 0.71309 0.92748 0.0
C544 C 0.21616 0.69221 0.00585 0.0
C545 C 0.19489 0.66004 0.97375 0.0
C546 C 0.24396 0.72326 0.97759 0.0
C547 C 0.25102 0.72143 0.91641 0.0
C548 C 0.22791 0.68963 0.88321 0.0
C549 C 0.20037 0.65907 0.91259 0.0
C550 C 0.26749 0.75693 0.01413 0.0
C551 C 0.23411 0.68682 0.81768 0.0
H552 H 0.32276 0.82591 0.80268 0.0
H553 H 0.37214 0.76473 0.86595 0.0
H554 H 0.23099 0.76002 0.84229 0.0
H555 H 0.25236 0.79517 0.89719 0.0
H556 H 0.26079 0.80665 0.81944 0.0
H557 H 0.34211 0.71413 0.92802 0.0
H558 H 0.30676 0.71309 0.97417 0.0
H559 H 0.29486 0.68689 0.90693 0.0
H560 H 0.21233 0.69245 0.05357 0.0
H561 H 0.18401 0.63386 0.88825 0.0
H562 H 0.27171 0.78173 0.99032 0.0
H563 H 0.29469 0.75961 0.02099 0.0
H564 H 0.25527 0.75585 0.05843 0.0
H565 H 0.23807 0.71147 0.79366 0.0
H566 H 0.21098 0.66233 0.79692 0.0
H567 H 0.25928 0.68515 0.81176 0.0
C568 C 0.51361 0.31809 0.98785 0.0
C569 C 0.54862 0.34874 0.99278 0.0
C570 C 0.50451 0.28563 0.01837 0.0
C571 C 0.53116 0.28388 0.05406 0.0
C572 C 0.56618 0.3151 0.06042 0.0
C573 C 0.57441 0.34715 0.02988 0.0
C574 C 0.46681 0.25298 0.0112 0.0
C575 C 0.59547 0.31435 0.09793 0.0
C576 C 0.51458 0.21376 0.17242 0.0
C577 C 0.52596 0.19208 0.14276 0.0
C578 C 0.51282 0.24193 0.14243 0.0
C579 C 0.52385 0.24909 0.08207 0.0
C580 C 0.53368 0.22603 0.05133 0.0
C581 C 0.53493 0.19795 0.08233 0.0
C582 C 0.50164 0.26556 0.17642 0.0
C583 C 0.54571 0.23277 0.98703 0.0
H584 H 0.4935 0.31926 0.95945 0.0
H585 H 0.60149 0.37077 0.03406 0.0
H586 H 0.46856 0.23092 0.98743 0.0
H587 H 0.45462 0.24218 0.0555 0.0
H588 H 0.44834 0.25965 0.98587 0.0
H589 H 0.62088 0.34135 0.09975 0.0
H590 H 0.58549 0.30574 0.14407 0.0
H591 H 0.60223 0.2941 0.07944 0.0
H592 H 0.50874 0.2098 0.21972 0.0
H593 H 0.54426 0.18137 0.05992 0.0
H594 H 0.48165 0.26954 0.15031 0.0
H595 H 0.52587 0.29289 0.18397 0.0
H596 H 0.48944 0.25356 0.22035 0.0
H597 H 0.52636 0.2371 0.95972 0.0
H598 H 0.5479 0.20975 0.9677 0.0
H599 H 0.5728 0.25793 0.98386 0.0
loop_
_geom_bond_atom_site_label_1
_geom_bond_atom_site_label_2
_geom_bond_distance
_geom_bond_site_symmetry_2
_ccdc_geom_bond_type
Mn0 O5 2.095 . S
Mn0 O15 2.162 . S
Mn0 O16 2.297 . S
Mn0 O24 2.385 . S
Mn0 O25 2.209 . S
Mn0 O26 2.094 . S
Mn1 O6 2.121 . S
Mn1 N8 2.257 . S
Mn1 N17 2.282 1_554 S
Mn1 O25 2.215 . S
Mn1 O27 2.117 1_554 S
C2 O24 1.234 . S
C2 O25 1.283 . S
C3 O15 1.281 . S
C3 O16 1.236 . S
C4 O26 1.240 1_556 S
C4 O27 1.264 . S
O5 Mn0 2.095 . S
O5 C14 1.250 . S
O6 Mn1 2.121 . S
O6 C14 1.258 . S
C7 N8 1.326 . S
C7 C11 1.460 . S
C7 H13 0.929 . S
N8 Mn1 2.257 . S
N8 C7 1.326 . S
N8 C12 1.362 . S
C9 C10 1.258 . S
C9 C12 1.431 . S
C9 C29 1.449 1_554 S
C10 C9 1.258 . S
C10 C11 1.477 . S
C10 H30 0.931 . S
C11 C7 1.460 . S
C11 C10 1.477 . S
C11 H31 0.930 . S
C12 N8 1.362 . S
C12 C9 1.431 . S
C12 C22 1.476 1_554 S
H13 C7 0.929 . S
C14 O5 1.250 . S
C14 O6 1.258 . S
O15 Mn0 2.162 . S
O15 C3 1.281 . S
O16 Mn0 2.297 . S
O16 C3 1.236 . S
N17 Mn1 2.282 1_556 S
N17 C18 1.328 . S
N17 C22 1.318 . S
C18 N17 1.328 . S
C18 C19 1.457 . S
C18 H23 0.929 . S
C19 C18 1.457 . S
C19 C20 1.291 . S
C19 H32 0.931 . S
C20 C19 1.291 . S
C20 C21 1.373 . S
C20 H33 0.929 . S
C21 C20 1.373 . S
C21 C22 1.396 . S
C21 C28 1.403 . S
C22 C12 1.476 1_556 S
C22 N17 1.318 . S
C22 C21 1.396 . S
H23 C18 0.929 . S
O24 Mn0 2.385 . S
O24 C2 1.234 . S
O25 Mn0 2.209 . S
O25 Mn1 2.215 . S
O25 C2 1.283 . S
O26 Mn0 2.094 . S
O26 C4 1.240 1_554 S
O27 Mn1 2.117 1_556 S
O27 C4 1.264 . S
C28 C21 1.403 . S
C28 C29 1.399 . S
C28 H34 0.929 . S
C29 C9 1.449 1_556 S
C29 C28 1.399 . S
C29 H35 0.930 . S
H30 C10 0.931 . S
H31 C11 0.930 . S
H32 C19 0.931 . S
H33 C20 0.929 . S
H34 C28 0.929 . S
H35 C29 0.930 . S
Mn36 O41 2.095 . S
Mn36 O51 2.162 . S
Mn36 O52 2.297 . S
Mn36 O60 2.385 . S
Mn36 O61 2.209 . S
Mn36 O62 2.094 . S
Mn37 O42 2.121 . S
Mn37 N44 2.257 . S
Mn37 N53 2.282 . S
Mn37 O61 2.215 . S
Mn37 O63 2.117 . S
C38 O60 1.234 . S
C38 O61 1.283 . S
C39 O51 1.281 . S
C39 O52 1.236 . S
C40 O62 1.240 . S
C40 O63 1.264 . S
O41 Mn36 2.095 . S
O41 C50 1.250 . S
O42 Mn37 2.121 . S
O42 C50 1.258 . S
C43 N44 1.326 . S
C43 C47 1.460 . S
C43 H49 0.929 . S
N44 Mn37 2.257 . S
N44 C43 1.326 . S
N44 C48 1.362 . S
C45 C46 1.258 . S
C45 C48 1.431 . S
C45 C65 1.449 . S
C46 C45 1.258 . S
C46 C47 1.477 . S
C46 H66 0.931 . S
C47 C43 1.460 . S
C47 C46 1.477 . S
C47 H67 0.930 . S
C48 N44 1.362 . S
C48 C45 1.431 . S
C48 C58 1.476 . S
H49 C43 0.929 . S
C50 O41 1.250 . S
C50 O42 1.258 . S
O51 Mn36 2.162 . S
O51 C39 1.281 . S
O52 Mn36 2.297 . S
O52 C39 1.236 . S
N53 Mn37 2.282 . S
N53 C54 1.328 . S
N53 C58 1.318 . S
C54 N53 1.328 . S
C54 C55 1.457 . S
C54 H59 0.929 . S
C55 C54 1.457 . S
C55 C56 1.291 . S
C55 H68 0.931 1_554 S
C56 C55 1.291 . S
C56 C57 1.373 . S
C56 H69 0.929 . S
C57 C56 1.373 . S
C57 C58 1.396 . S
C57 C64 1.403 . S
C58 C48 1.476 . S
C58 N53 1.318 . S
C58 C57 1.396 . S
H59 C54 0.929 . S
O60 Mn36 2.385 . S
O60 C38 1.234 . S
O61 Mn36 2.209 . S
O61 Mn37 2.215 . S
O61 C38 1.283 . S
O62 Mn36 2.094 . S
O62 C40 1.240 . S
O63 Mn37 2.117 . S
O63 C40 1.264 . S
C64 C57 1.403 . S
C64 C65 1.399 . S
C64 H70 0.929 . S
C65 C45 1.449 . S
C65 C64 1.399 . S
C65 H71 0.930 . S
H66 C46 0.931 . S
H67 C47 0.930 . S
H68 C55 0.931 1_556 S
H69 C56 0.929 . S
H70 C64 0.929 . S
H71 C65 0.930 . S
Mn72 O77 2.095 . S
Mn72 O87 2.162 . S
Mn72 O88 2.297 . S
Mn72 O96 2.385 . S
Mn72 O97 2.209 . S
Mn72 O98 2.094 . S
Mn73 O78 2.121 . S
Mn73 N80 2.257 . S
Mn73 N89 2.282 . S
Mn73 O97 2.215 . S
Mn73 O99 2.117 . S
C74 O96 1.234 . S
C74 O97 1.283 . S
C75 O87 1.281 . S
C75 O88 1.236 . S
C76 O98 1.240 . S
C76 O99 1.264 . S
O77 Mn72 2.095 . S
O77 C86 1.250 . S
O78 Mn73 2.121 . S
O78 C86 1.258 . S
C79 N80 1.326 . S
C79 C83 1.460 . S
C79 H85 0.929 . S
N80 Mn73 2.257 . S
N80 C79 1.326 . S
N80 C84 1.362 . S
C81 C82 1.258 . S
C81 C84 1.431 . S
C81 C101 1.449 . S
C82 C81 1.258 . S
C82 C83 1.477 . S
C82 H102 0.931 . S
C83 C79 1.460 . S
C83 C82 1.477 . S
C83 H103 0.930 . S
C84 N80 1.362 . S
C84 C81 1.431 . S
C84 C94 1.476 . S
H85 C79 0.929 . S
C86 O77 1.250 . S
C86 O78 1.258 . S
O87 Mn72 2.162 . S
O87 C75 1.281 . S
O88 Mn72 2.297 . S
O88 C75 1.236 . S
N89 Mn73 2.282 . S
N89 C90 1.328 . S
N89 C94 1.318 . S
C90 N89 1.328 . S
C90 C91 1.457 . S
C90 H95 0.929 . S
C91 C90 1.457 . S
C91 C92 1.291 . S
C91 H104 0.931 . S
C92 C91 1.291 . S
C92 C93 1.373 . S
C92 H105 0.929 . S
C93 C92 1.373 . S
C93 C94 1.396 . S
C93 C100 1.403 . S
C94 C84 1.476 . S
C94 N89 1.318 . S
C94 C93 1.396 . S
H95 C90 0.929 . S
O96 Mn72 2.385 . S
O96 C74 1.234 . S
O97 Mn72 2.209 . S
O97 Mn73 2.215 . S
O97 C74 1.283 . S
O98 Mn72 2.094 . S
O98 C76 1.240 . S
O99 Mn73 2.117 . S
O99 C76 1.264 . S
C100 C93 1.403 . S
C100 C101 1.399 . S
C100 H106 0.929 . S
C101 C81 1.449 . S
C101 C100 1.399 . S
C101 H107 0.930 . S
H102 C82 0.931 . S
H103 C83 0.930 . S
H104 C91 0.931 . S
H105 C92 0.929 . S
H106 C100 0.929 . S
H107 C101 0.930 . S
Mn108 O113 2.095 . S
Mn108 O123 2.162 . S
Mn108 O124 2.297 . S
Mn108 O132 2.385 . S
Mn108 O133 2.209 . S
Mn108 O134 2.094 . S
Mn109 O114 2.121 . S
Mn109 N116 2.257 . S
Mn109 N125 2.282 . S
Mn109 O133 2.215 . S
Mn109 O135 2.117 . S
C110 O132 1.234 . S
C110 O133 1.283 . S
C111 O123 1.281 . S
C111 O124 1.236 . S
C112 O134 1.240 . S
C112 O135 1.264 . S
O113 Mn108 2.095 . S
O113 C122 1.250 . S
O114 Mn109 2.121 . S
O114 C122 1.258 . S
C115 N116 1.326 . S
C115 C119 1.460 . S
C115 H121 0.929 . S
N116 Mn109 2.257 . S
N116 C115 1.326 . S
N116 C120 1.362 . S
C117 C118 1.258 . S
C117 C120 1.431 . S
C117 C137 1.449 . S
C118 C117 1.258 . S
C118 C119 1.477 . S
C118 H138 0.931 . S
C119 C115 1.460 . S
C119 C118 1.477 . S
C119 H139 0.930 . S
C120 N116 1.362 . S
C120 C117 1.431 . S
C120 C130 1.476 . S
H121 C115 0.929 . S
C122 O113 1.250 . S
C122 O114 1.258 . S
O123 Mn108 2.162 . S
O123 C111 1.281 . S
O124 Mn108 2.297 . S
O124 C111 1.236 . S
N125 Mn109 2.282 . S
N125 C126 1.328 . S
N125 C130 1.318 . S
C126 N125 1.328 . S
C126 C127 1.457 . S
C126 H131 0.929 . S
C127 C126 1.457 . S
C127 C128 1.291 . S
C127 H140 0.931 . S
C128 C127 1.291 . S
C128 C129 1.373 . S
C128 H141 0.929 . S
C129 C128 1.373 . S
C129 C130 1.396 . S
C129 C136 1.403 . S
C130 C120 1.476 . S
C130 N125 1.318 . S
C130 C129 1.396 . S
H131 C126 0.929 . S
O132 Mn108 2.385 . S
O132 C110 1.234 . S
O133 Mn108 2.209 . S
O133 Mn109 2.215 . S
O133 C110 1.283 . S
O134 Mn108 2.094 . S
O134 C112 1.240 . S
O135 Mn109 2.117 . S
O135 C112 1.264 . S
C136 C129 1.403 . S
C136 C137 1.399 . S
C136 H142 0.929 . S
C137 C117 1.449 . S
C137 C136 1.399 . S
C137 H143 0.930 . S
H138 C118 0.931 . S
H139 C119 0.930 . S
H140 C127 0.931 . S
H141 C128 0.929 . S
H142 C136 0.929 . S
H143 C137 0.930 . S
Mn144 O149 2.095 . S
Mn144 O159 2.162 . S
Mn144 O160 2.297 . S
Mn144 O168 2.385 . S
Mn144 O169 2.209 . S
Mn144 O170 2.094 . S
Mn145 O150 2.121 . S
Mn145 N152 2.257 . S
Mn145 N161 2.282 . S
Mn145 O169 2.215 . S
Mn145 O171 2.117 . S
C146 O168 1.234 . S
C146 O169 1.283 . S
C147 O159 1.281 . S
C147 O160 1.236 . S
C148 O170 1.240 . S
C148 O171 1.264 . S
O149 Mn144 2.095 . S
O149 C158 1.250 . S
O150 Mn145 2.121 . S
O150 C158 1.258 . S
C151 N152 1.326 . S
C151 C155 1.460 . S
C151 H157 0.929 . S
N152 Mn145 2.257 . S
N152 C151 1.326 . S
N152 C156 1.362 . S
C153 C154 1.258 . S
C153 C156 1.431 . S
C153 C173 1.449 . S
C154 C153 1.258 . S
C154 C155 1.477 . S
C154 H174 0.931 . S
C155 C151 1.460 . S
C155 C154 1.477 . S
C155 H175 0.930 . S
C156 N152 1.362 . S
C156 C153 1.431 . S
C156 C166 1.476 . S
H157 C151 0.929 . S
C158 O149 1.250 . S
C158 O150 1.258 . S
O159 Mn144 2.162 . S
O159 C147 1.281 . S
O160 Mn144 2.297 . S
O160 C147 1.236 . S
N161 Mn145 2.282 . S
N161 C162 1.328 . S
N161 C166 1.318 . S
C162 N161 1.328 . S
C162 C163 1.457 . S
C162 H167 0.929 . S
C163 C162 1.457 . S
C163 C164 1.291 . S
C163 H176 0.931 . S
C164 C163 1.291 . S
C164 C165 1.373 . S
C164 H177 0.929 . S
C165 C164 1.373 . S
C165 C166 1.396 . S
C165 C172 1.403 . S
C166 C156 1.476 . S
C166 N161 1.318 . S
C166 C165 1.396 . S
H167 C162 0.929 . S
O168 Mn144 2.385 . S
O168 C146 1.234 . S
O169 Mn144 2.209 . S
O169 Mn145 2.215 . S
O169 C146 1.283 . S
O170 Mn144 2.094 . S
O170 C148 1.240 . S
O171 Mn145 2.117 . S
O171 C148 1.264 . S
C172 C165 1.403 . S
C172 C173 1.399 . S
C172 H178 0.929 . S
C173 C153 1.449 . S
C173 C172 1.399 . S
C173 H179 0.930 . S
H174 C154 0.931 . S
H175 C155 0.930 . S
H176 C163 0.931 . S
H177 C164 0.929 . S
H178 C172 0.929 . S
H179 C173 0.930 . S
Mn180 O185 2.095 . S
Mn180 O195 2.162 . S
Mn180 O196 2.297 . S
Mn180 O204 2.385 . S
Mn180 O205 2.209 . S
Mn180 O206 2.094 . S
Mn181 O186 2.121 . S
Mn181 N188 2.257 . S
Mn181 N197 2.282 . S
Mn181 O205 2.215 . S
Mn181 O207 2.117 . S
C182 O204 1.234 . S
C182 O205 1.283 . S
C183 O195 1.281 . S
C183 O196 1.236 . S
C184 O206 1.240 . S
C184 O207 1.264 . S
O185 Mn180 2.095 . S
O185 C194 1.250 . S
O186 Mn181 2.121 . S
O186 C194 1.258 . S
C187 N188 1.326 . S
C187 C191 1.460 . S
C187 H193 0.929 . S
N188 Mn181 2.257 . S
N188 C187 1.326 . S
N188 C192 1.362 . S
C189 C190 1.258 . S
C189 C192 1.431 . S
C189 C209 1.449 . S
C190 C189 1.258 . S
C190 C191 1.477 . S
C190 H210 0.931 . S
C191 C187 1.460 . S
C191 C190 1.477 . S
C191 H211 0.930 1_556 S
C192 N188 1.362 . S
C192 C189 1.431 . S
C192 C202 1.476 . S
H193 C187 0.929 . S
C194 O185 1.250 . S
C194 O186 1.258 . S
O195 Mn180 2.162 . S
O195 C183 1.281 . S
O196 Mn180 2.297 . S
O196 C183 1.236 . S
N197 Mn181 2.282 . S
N197 C198 1.328 . S
N197 C202 1.318 . S
C198 N197 1.328 . S
C198 C199 1.457 . S
C198 H203 0.929 . S
C199 C198 1.457 . S
C199 C200 1.291 . S
C199 H212 0.931 . S
C200 C199 1.291 . S
C200 C201 1.373 . S
C200 H213 0.929 . S
C201 C200 1.373 . S
C201 C202 1.396 . S
C201 C208 1.403 . S
C202 C192 1.476 . S
C202 N197 1.318 . S
C202 C201 1.396 . S
H203 C198 0.929 . S
O204 Mn180 2.385 . S
O204 C182 1.234 . S
O205 Mn180 2.209 . S
O205 Mn181 2.215 . S
O205 C182 1.283 . S
O206 Mn180 2.094 . S
O206 C184 1.240 . S
O207 Mn181 2.117 . S
O207 C184 1.264 . S
C208 C201 1.403 . S
C208 C209 1.399 . S
C208 H214 0.929 . S
C209 C189 1.449 . S
C209 C208 1.399 . S
C209 H215 0.930 . S
H210 C190 0.931 . S
H211 C191 0.930 1_554 S
H212 C199 0.931 . S
H213 C200 0.929 . S
H214 C208 0.929 . S
H215 C209 0.930 . S
C216 C217 1.391 . S
C216 C218 1.394 . S
C216 H232 0.931 . S
C217 C216 1.391 . S
C217 C221 1.376 . S
C218 C216 1.394 . S
C218 C219 1.369 . S
C218 C222 1.531 . S
C219 C218 1.369 . S
C219 C220 1.410 . S
C219 C227 1.503 1_455 S
C220 C219 1.410 . S
C220 C221 1.392 . S
C220 C223 1.511 1_455 S
C221 C217 1.376 . S
C221 C220 1.392 . S
C221 H233 0.929 . S
C222 C218 1.531 . S
C222 H234 0.960 . S
C222 H235 0.962 . S
C222 H236 0.960 . S
C223 C220 1.511 1_655 S
C223 H237 0.961 . S
C223 H238 0.961 . S
C223 H239 0.961 . S
C224 C225 1.370 . S
C224 C226 1.363 . S
C224 H240 0.931 . S
C225 C224 1.370 . S
C225 C229 1.408 . S
C226 C224 1.363 . S
C226 C227 1.370 . S
C226 C230 1.524 1_655 S
C227 C219 1.503 1_655 S
C227 C226 1.370 . S
C227 C228 1.403 . S
C228 C227 1.403 . S
C228 C229 1.404 . S
C228 C231 1.539 . S
C229 C225 1.408 . S
C229 C228 1.404 . S
C229 H241 0.930 . S
C230 C226 1.524 1_455 S
C230 H242 0.956 . S
C230 H243 0.961 . S
C230 H244 0.961 . S
C231 C228 1.539 . S
C231 H245 0.958 . S
C231 H246 0.961 . S
C231 H247 0.960 . S
H232 C216 0.931 . S
H233 C221 0.929 . S
H234 C222 0.960 . S
H235 C222 0.962 . S
H236 C222 0.960 . S
H237 C223 0.961 . S
H238 C223 0.961 . S
H239 C223 0.961 . S
H240 C224 0.931 . S
H241 C229 0.930 . S
H242 C230 0.956 . S
H243 C230 0.961 . S
H244 C230 0.961 . S
H245 C231 0.958 . S
H246 C231 0.961 . S
H247 C231 0.960 . S
C248 C249 1.391 . S
C248 C250 1.394 . S
C248 H264 0.931 . S
C249 C248 1.391 . S
C249 C253 1.376 . S
C250 C248 1.394 . S
C250 C251 1.369 . S
C250 C254 1.531 1_556 S
C251 C250 1.369 . S
C251 C252 1.410 . S
C251 C259 1.503 1_566 S
C252 C251 1.410 . S
C252 C253 1.392 . S
C252 C255 1.511 1_565 S
C253 C249 1.376 . S
C253 C252 1.392 . S
C253 H265 0.929 . S
C254 C250 1.531 1_554 S
C254 H266 0.960 . S
C254 H267 0.962 . S
C254 H268 0.960 . S
C255 C252 1.511 1_545 S
C255 H269 0.961 . S
C255 H270 0.961 . S
C255 H271 0.961 . S
C256 C257 1.370 . S
C256 C258 1.363 . S
C256 H272 0.931 . S
C257 C256 1.370 . S
C257 C261 1.408 . S
C258 C256 1.363 . S
C258 C259 1.370 . S
C258 C262 1.524 1_554 S
C259 C251 1.503 1_544 S
C259 C258 1.370 . S
C259 C260 1.403 . S
C260 C259 1.403 . S
C260 C261 1.404 . S
C260 C263 1.539 1_545 S
C261 C257 1.408 . S
C261 C260 1.404 . S
C261 H273 0.930 . S
C262 C258 1.524 1_556 S
C262 H274 0.956 . S
C262 H275 0.961 . S
C262 H276 0.961 . S
C263 C260 1.539 1_565 S
C263 H277 0.958 . S
C263 H278 0.961 . S
C263 H279 0.960 . S
H264 C248 0.931 . S
H265 C253 0.929 . S
H266 C254 0.960 . S
H267 C254 0.962 . S
H268 C254 0.960 . S
H269 C255 0.961 . S
H270 C255 0.961 . S
H271 C255 0.961 . S
H272 C256 0.931 . S
H273 C261 0.930 . S
H274 C262 0.956 . S
H275 C262 0.961 . S
H276 C262 0.961 . S
H277 C263 0.958 . S
H278 C263 0.961 . S
H279 C263 0.960 . S
C280 C281 1.391 . S
C280 C282 1.394 . S
C280 H296 0.931 . S
C281 C280 1.391 . S
C281 C285 1.376 . S
C282 C280 1.394 . S
C282 C283 1.369 . S
C282 C286 1.531 . S
C283 C282 1.369 . S
C283 C284 1.410 . S
C283 C291 1.503 . S
C284 C283 1.410 . S
C284 C285 1.392 . S
C284 C287 1.511 . S
C285 C281 1.376 . S
C285 C284 1.392 . S
C285 H297 0.929 . S
C286 C282 1.531 . S
C286 H298 0.960 . S
C286 H299 0.962 . S
C286 H300 0.960 . S
C287 C284 1.511 . S
C287 H301 0.961 . S
C287 H302 0.961 . S
C287 H303 0.961 . S
C288 C289 1.370 . S
C288 C290 1.363 . S
C288 H304 0.931 . S
C289 C288 1.370 . S
C289 C293 1.408 . S
C290 C288 1.363 . S
C290 C291 1.370 . S
C290 C294 1.524 . S
C291 C283 1.503 . S
C291 C290 1.370 . S
C291 C292 1.403 . S
C292 C291 1.403 . S
C292 C293 1.404 . S
C292 C295 1.539 . S
C293 C289 1.408 . S
C293 C292 1.404 . S
C293 H305 0.930 . S
C294 C290 1.524 . S
C294 H306 0.956 . S
C294 H307 0.961 . S
C294 H308 0.961 . S
C295 C292 1.539 . S
C295 H309 0.958 . S
C295 H310 0.961 . S
C295 H311 0.960 . S
H296 C280 0.931 . S
H297 C285 0.929 . S
H298 C286 0.960 . S
H299 C286 0.962 . S
H300 C286 0.960 . S
H301 C287 0.961 . S
H302 C287 0.961 . S
H303 C287 0.961 . S
H304 C288 0.931 . S
H305 C293 0.930 . S
H306 C294 0.956 . S
H307 C294 0.961 . S
H308 C294 0.961 . S
H309 C295 0.958 . S
H310 C295 0.961 . S
H311 C295 0.960 . S
C312 C313 1.391 . S
C312 C314 1.394 . S
C312 H328 0.931 . S
C313 C312 1.391 . S
C313 C317 1.376 . S
C314 C312 1.394 . S
C314 C315 1.369 . S
C314 C318 1.531 . S
C315 C314 1.369 . S
C315 C316 1.410 . S
C315 C323 1.503 1_655 S
C316 C315 1.410 . S
C316 C317 1.392 . S
C316 C319 1.511 1_655 S
C317 C313 1.376 . S
C317 C316 1.392 . S
C317 H329 0.929 . S
C318 C314 1.531 . S
C318 H330 0.960 . S
C318 H331 0.962 . S
C318 H332 0.960 . S
C319 C316 1.511 1_455 S
C319 H333 0.961 . S
C319 H334 0.961 . S
C319 H335 0.961 . S
C320 C321 1.370 . S
C320 C322 1.363 . S
C320 H336 0.931 . S
C321 C320 1.370 . S
C321 C325 1.408 . S
C322 C320 1.363 . S
C322 C323 1.370 . S
C322 C326 1.524 1_455 S
C323 C315 1.503 1_455 S
C323 C322 1.370 . S
C323 C324 1.403 . S
C324 C323 1.403 . S
C324 C325 1.404 . S
C324 C327 1.539 . S
C325 C321 1.408 . S
C325 C324 1.404 . S
C325 H337 0.930 . S
C326 C322 1.524 1_655 S
C326 H338 0.956 . S
C326 H339 0.961 . S
C326 H340 0.961 . S
C327 C324 1.539 . S
C327 H341 0.958 . S
C327 H342 0.961 . S
C327 H343 0.960 . S
H328 C312 0.931 . S
H329 C317 0.929 . S
H330 C318 0.960 . S
H331 C318 0.962 . S
H332 C318 0.960 . S
H333 C319 0.961 . S
H334 C319 0.961 . S
H335 C319 0.961 . S
H336 C320 0.931 . S
H337 C325 0.930 . S
H338 C326 0.956 . S
H339 C326 0.961 . S
H340 C326 0.961 . S
H341 C327 0.958 . S
H342 C327 0.961 . S
H343 C327 0.960 . S
C344 C345 1.391 . S
C344 C346 1.394 . S
C344 H360 0.931 . S
C345 C344 1.391 . S
C345 C349 1.376 . S
C346 C344 1.394 . S
C346 C347 1.369 . S
C346 C350 1.531 . S
C347 C346 1.369 . S
C347 C348 1.410 . S
C347 C355 1.503 1_545 S
C348 C347 1.410 . S
C348 C349 1.392 . S
C348 C351 1.510 1_545 S
C349 C345 1.376 . S
C349 C348 1.392 . S
C349 H361 0.929 . S
C350 C346 1.531 . S
C350 H362 0.960 . S
C350 H363 0.962 . S
C350 H364 0.960 . S
C351 C348 1.510 1_565 S
C351 H365 0.961 . S
C351 H366 0.976 . S
C351 H367 0.948 1_565 S
C352 C353 1.370 . S
C352 C354 1.363 . S
C352 H368 0.931 . S
C353 C352 1.370 . S
C353 C357 1.408 . S
C354 C352 1.363 . S
C354 C355 1.370 . S
C354 C358 1.524 . S
C355 C347 1.503 1_565 S
C355 C354 1.370 . S
C355 C356 1.403 1_565 S
C356 C355 1.403 1_545 S
C356 C357 1.404 1_545 S
C356 C359 1.539 . S
C357 C353 1.408 . S
C357 C356 1.404 1_565 S
C357 H369 0.930 . S
C358 C354 1.524 . S
C358 H370 0.956 . S
C358 H371 0.961 . S
C358 H372 0.961 . S
C359 C356 1.539 . S
C359 H373 0.958 . S
C359 H374 0.961 . S
C359 H375 0.960 . S
H360 C344 0.931 . S
H361 C349 0.929 . S
H362 C350 0.960 . S
H363 C350 0.962 . S
H364 C350 0.960 . S
H365 C351 0.961 . S
H366 C351 0.976 . S
H367 C351 0.948 1_545 S
H368 C352 0.931 . S
H369 C357 0.930 . S
H370 C358 0.956 . S
H371 C358 0.961 . S
H372 C358 0.961 . S
H373 C359 0.958 . S
H374 C359 0.961 . S
H375 C359 0.960 . S
C376 C377 1.391 . S
C376 C378 1.394 . S
C376 H392 0.931 . S
C377 C376 1.391 . S
C377 C381 1.376 . S
C378 C376 1.394 . S
C378 C379 1.369 . S
C378 C382 1.531 . S
C379 C378 1.369 . S
C379 C380 1.410 . S
C379 C387 1.503 . S
C380 C379 1.410 . S
C380 C381 1.392 . S
C380 C383 1.511 . S
C381 C377 1.376 . S
C381 C380 1.392 . S
C381 H393 0.929 . S
C382 C378 1.531 . S
C382 H394 0.960 . S
C382 H395 0.962 . S
C382 H396 0.960 . S
C383 C380 1.511 . S
C383 H397 0.961 . S
C383 H398 0.961 . S
C383 H399 0.961 . S
C384 C385 1.370 . S
C384 C386 1.363 . S
C384 H400 0.931 . S
C385 C384 1.370 . S
C385 C389 1.408 . S
C386 C384 1.363 . S
C386 C387 1.370 . S
C386 C390 1.524 . S
C387 C379 1.503 . S
C387 C386 1.370 . S
C387 C388 1.403 . S
C388 C387 1.403 . S
C388 C389 1.404 . S
C388 C391 1.539 . S
C389 C385 1.408 . S
C389 C388 1.404 . S
C389 H401 0.930 . S
C390 C386 1.524 . S
C390 H402 0.956 . S
C390 H403 0.961 . S
C390 H404 0.961 . S
C391 C388 1.539 . S
C391 H405 0.958 . S
C391 H406 0.961 . S
C391 H407 0.960 . S
H392 C376 0.931 . S
H393 C381 0.929 . S
H394 C382 0.960 . S
H395 C382 0.962 . S
H396 C382 0.960 . S
H397 C383 0.961 . S
H398 C383 0.961 . S
H399 C383 0.961 . S
H400 C384 0.931 . S
H401 C389 0.930 . S
H402 C390 0.956 . S
H403 C390 0.961 . S
H404 C390 0.961 . S
H405 C391 0.958 . S
H406 C391 0.961 . S
H407 C391 0.960 . S
C408 C409 1.391 . S
C408 C410 1.394 . S
C408 H424 0.931 . S
C409 C408 1.391 . S
C409 C413 1.376 . S
C410 C408 1.394 . S
C410 C411 1.369 . S
C410 C414 1.531 . S
C411 C410 1.369 . S
C411 C412 1.410 . S
C411 C419 1.503 . S
C412 C411 1.410 . S
C412 C413 1.392 . S
C412 C415 1.511 . S
C413 C409 1.376 . S
C413 C412 1.392 . S
C413 H425 0.929 . S
C414 C410 1.531 . S
C414 H426 0.960 . S
C414 H427 0.962 . S
C414 H428 0.960 . S
C415 C412 1.511 . S
C415 H429 0.961 . S
C415 H430 0.961 . S
C415 H431 0.961 . S
C416 C417 1.370 . S
C416 C418 1.363 . S
C416 H432 0.931 . S
C417 C416 1.370 . S
C417 C421 1.408 . S
C418 C416 1.363 . S
C418 C419 1.370 . S
C418 C422 1.524 . S
C419 C411 1.503 . S
C419 C418 1.370 . S
C419 C420 1.403 . S
C420 C419 1.403 . S
C420 C421 1.404 . S
C420 C423 1.539 . S
C421 C417 1.408 . S
C421 C420 1.404 . S
C421 H433 0.930 . S
C422 C418 1.524 . S
C422 H434 0.956 . S
C422 H435 0.961 . S
C422 H436 0.961 . S
C423 C420 1.539 . S
C423 H437 0.958 . S
C423 H438 0.961 . S
C423 H439 0.960 . S
H424 C408 0.931 . S
H425 C413 0.929 . S
H426 C414 0.960 . S
H427 C414 0.962 . S
H428 C414 0.960 . S
H429 C415 0.961 . S
H430 C415 0.961 . S
H431 C415 0.961 . S
H432 C416 0.931 . S
H433 C421 0.930 . S
H434 C422 0.956 . S
H435 C422 0.961 . S
H436 C422 0.961 . S
H437 C423 0.958 . S
H438 C423 0.961 . S
H439 C423 0.960 . S
C440 C441 1.391 . S
C440 C442 1.394 . S
C440 H456 0.931 . S
C441 C440 1.391 . S
C441 C445 1.376 . S
C442 C440 1.394 . S
C442 C443 1.369 . S
C442 C446 1.531 . S
C443 C442 1.369 . S
C443 C444 1.410 . S
C443 C451 1.503 . S
C444 C443 1.410 . S
C444 C445 1.392 . S
C444 C447 1.511 . S
C445 C441 1.376 . S
C445 C444 1.392 . S
C445 H457 0.929 . S
C446 C442 1.531 . S
C446 H458 0.960 . S
C446 H459 0.962 . S
C446 H460 0.960 . S
C447 C444 1.511 . S
C447 H461 0.961 . S
C447 H462 0.961 . S
C447 H463 0.961 . S
C448 C449 1.370 . S
C448 C450 1.363 . S
C448 H464 0.931 . S
C449 C448 1.370 . S
C449 C453 1.408 . S
C450 C448 1.363 . S
C450 C451 1.370 . S
C450 C454 1.524 . S
C451 C443 1.503 . S
C451 C450 1.370 . S
C451 C452 1.403 . S
C452 C451 1.403 . S
C452 C453 1.404 . S
C452 C455 1.539 . S
C453 C449 1.408 . S
C453 C452 1.404 . S
C453 H465 0.930 . S
C454 C450 1.524 . S
C454 H466 0.956 . S
C454 H467 0.961 . S
C454 H468 0.961 . S
C455 C452 1.539 . S
C455 H469 0.958 . S
C455 H470 0.961 . S
C455 H471 0.960 . S
H456 C440 0.931 . S
H457 C445 0.929 . S
H458 C446 0.960 . S
H459 C446 0.962 . S
H460 C446 0.960 . S
H461 C447 0.961 . S
H462 C447 0.961 . S
H463 C447 0.961 . S
H464 C448 0.931 . S
H465 C453 0.930 . S
H466 C454 0.956 . S
H467 C454 0.961 . S
H468 C454 0.961 . S
H469 C455 0.958 . S
H470 C455 0.961 . S
H471 C455 0.960 . S
C472 C473 1.391 . S
C472 C474 1.394 . S
C472 H488 0.931 . S
C473 C472 1.391 . S
C473 C477 1.376 . S
C474 C472 1.394 . S
C474 C475 1.369 . S
C474 C478 1.531 . S
C475 C474 1.369 . S
C475 C476 1.410 . S
C475 C483 1.503 . S
C476 C475 1.410 . S
C476 C477 1.392 . S
C476 C479 1.511 . S
C477 C473 1.376 . S
C477 C476 1.392 . S
C477 H489 0.929 . S
C478 C474 1.531 . S
C478 H490 0.960 . S
C478 H491 0.962 . S
C478 H492 0.960 . S
C479 C476 1.511 . S
C479 H493 0.961 . S
C479 H494 0.961 . S
C479 H495 0.961 . S
C480 C481 1.370 . S
C480 C482 1.363 . S
C480 H496 0.931 . S
C481 C480 1.370 . S
C481 C485 1.408 . S
C482 C480 1.363 . S
C482 C483 1.370 . S
C482 C486 1.524 . S
C483 C475 1.503 . S
C483 C482 1.370 . S
C483 C484 1.403 . S
C484 C483 1.403 . S
C484 C485 1.404 . S
C484 C487 1.539 . S
C485 C481 1.408 . S
C485 C484 1.404 . S
C485 H497 0.930 . S
C486 C482 1.524 . S
C486 H498 0.956 . S
C486 H499 0.961 . S
C486 H500 0.961 . S
C487 C484 1.539 . S
C487 H501 0.958 . S
C487 H502 0.961 . S
C487 H503 0.960 . S
H488 C472 0.931 . S
H489 C477 0.929 . S
H490 C478 0.960 . S
H491 C478 0.962 . S
H492 C478 0.960 . S
H493 C479 0.961 . S
H494 C479 0.961 . S
H495 C479 0.961 . S
H496 C480 0.931 . S
H497 C485 0.930 . S
H498 C486 0.956 . S
H499 C486 0.961 . S
H500 C486 0.961 . S
H501 C487 0.958 . S
H502 C487 0.961 . S
H503 C487 0.960 . S
C504 C505 1.391 . S
C504 C506 1.394 . S
C504 H520 0.931 . S
C505 C504 1.391 . S
C505 C509 1.376 . S
C506 C504 1.394 . S
C506 C507 1.369 . S
C506 C510 1.531 . S
C507 C506 1.369 . S
C507 C508 1.410 . S
C507 C515 1.503 . S
C508 C507 1.410 . S
C508 C509 1.392 . S
C508 C511 1.511 . S
C509 C505 1.376 . S
C509 C508 1.392 . S
C509 H521 0.929 . S
C510 C506 1.531 . S
C510 H522 0.960 . S
C510 H523 0.962 . S
C510 H524 0.960 . S
C511 C508 1.511 . S
C511 H525 0.961 . S
C511 H526 0.961 . S
C511 H527 0.961 . S
C512 C513 1.370 . S
C512 C514 1.363 . S
C512 H528 0.931 . S
C513 C512 1.370 . S
C513 C517 1.408 . S
C514 C512 1.363 . S
C514 C515 1.370 . S
C514 C518 1.524 . S
C515 C507 1.503 . S
C515 C514 1.370 . S
C515 C516 1.403 . S
C516 C515 1.403 . S
C516 C517 1.404 . S
C516 C519 1.539 . S
C517 C513 1.408 . S
C517 C516 1.404 . S
C517 H529 0.930 . S
C518 C514 1.524 . S
C518 H530 0.956 . S
C518 H531 0.961 . S
C518 H532 0.961 . S
C519 C516 1.539 . S
C519 H533 0.958 . S
C519 H534 0.961 . S
C519 H535 0.960 . S
H520 C504 0.931 . S
H521 C509 0.929 . S
H522 C510 0.960 . S
H523 C510 0.962 . S
H524 C510 0.960 . S
H525 C511 0.961 . S
H526 C511 0.961 . S
H527 C511 0.961 . S
H528 C512 0.931 . S
H529 C517 0.930 . S
H530 C518 0.956 . S
H531 C518 0.961 . S
H532 C518 0.961 . S
H533 C519 0.958 . S
H534 C519 0.961 . S
H535 C519 0.960 . S
C536 C537 1.391 . S
C536 C538 1.394 . S
C536 H552 0.931 . S
C537 C536 1.391 . S
C537 C541 1.376 . S
C538 C536 1.394 . S
C538 C539 1.369 . S
C538 C542 1.531 . S
C539 C538 1.369 . S
C539 C540 1.410 . S
C539 C547 1.503 . S
C540 C539 1.410 . S
C540 C541 1.392 . S
C540 C543 1.511 . S
C541 C537 1.376 . S
C541 C540 1.392 . S
C541 H553 0.929 . S
C542 C538 1.531 . S
C542 H554 0.960 . S
C542 H555 0.962 . S
C542 H556 0.960 . S
C543 C540 1.511 . S
C543 H557 0.961 . S
C543 H558 0.961 . S
C543 H559 0.961 . S
C544 C545 1.370 . S
C544 C546 1.363 1_554 S
C544 H560 0.931 . S
C545 C544 1.370 . S
C545 C549 1.408 1_554 S
C546 C544 1.363 1_556 S
C546 C547 1.370 . S
C546 C550 1.525 . S
C547 C539 1.503 . S
C547 C546 1.370 . S
C547 C548 1.403 . S
C548 C547 1.403 . S
C548 C549 1.404 . S
C548 C551 1.539 . S
C549 C545 1.408 1_556 S
C549 C548 1.404 . S
C549 H561 0.930 . S
C550 C546 1.525 . S
C550 H562 0.958 . S
C550 H563 0.961 1_556 S
C550 H564 0.958 1_556 S
C551 C548 1.539 . S
C551 H565 0.958 . S
C551 H566 0.961 . S
C551 H567 0.960 . S
H552 C536 0.931 . S
H553 C541 0.929 . S
H554 C542 0.960 . S
H555 C542 0.962 . S
H556 C542 0.960 . S
H557 C543 0.961 . S
H558 C543 0.961 . S
H559 C543 0.961 . S
H560 C544 0.931 . S
H561 C549 0.930 . S
H562 C550 0.958 . S
H563 C550 0.961 1_554 S
H564 C550 0.958 1_554 S
H565 C551 0.958 . S
H566 C551 0.961 . S
H567 C551 0.960 . S
C568 C569 1.391 . S
C568 C570 1.394 1_556 S
C568 H584 0.931 . S
C569 C568 1.391 . S
C569 C573 1.376 1_556 S
C570 C568 1.394 1_554 S
C570 C571 1.369 . S
C570 C574 1.531 . S
C571 C570 1.369 . S
C571 C572 1.410 . S
C571 C579 1.503 . S
C572 C571 1.410 . S
C572 C573 1.392 . S
C572 C575 1.511 . S
C573 C569 1.376 1_554 S
C573 C572 1.392 . S
C573 H585 0.929 . S
C574 C570 1.531 . S
C574 H586 0.960 . S
C574 H587 0.962 . S
C574 H588 0.960 1_554 S
C575 C572 1.511 . S
C575 H589 0.961 . S
C575 H590 0.961 . S
C575 H591 0.961 . S
C576 C577 1.370 . S
C576 C578 1.363 . S
C576 H592 0.931 . S
C577 C576 1.370 . S
C577 C581 1.408 . S
C578 C576 1.363 . S
C578 C579 1.370 . S
C578 C582 1.524 . S
C579 C571 1.503 . S
C579 C578 1.370 . S
C579 C580 1.403 . S
C580 C579 1.403 . S
C580 C581 1.404 . S
C580 C583 1.539 . S
C581 C577 1.408 . S
C581 C580 1.404 . S
C581 H593 0.930 . S
C582 C578 1.524 . S
C582 H594 0.956 . S
C582 H595 0.961 . S
C582 H596 0.961 . S
C583 C580 1.539 . S
C583 H597 0.958 1_554 S
C583 H598 0.961 . S
C583 H599 0.960 . S
H584 C568 0.931 . S
H585 C573 0.929 . S
H586 C574 0.960 . S
H587 C574 0.962 . S
H588 C574 0.960 1_556 S
H589 C575 0.961 . S
H590 C575 0.961 . S
H591 C575 0.961 . S
H592 C576 0.931 . S
H593 C581 0.930 . S
H594 C582 0.956 . S
H595 C582 0.961 . S
H596 C582 0.961 . S
H597 C583 0.958 1_556 S
H598 C583 0.961 . S
H599 C583 0.960 . S
C217 C4 1.243 . S
C225 C122 1.239 . S
C249 C158 1.234 . S
C257 C40 1.241 . S
C281 C76 1.259 . S
C289 C194 1.225 1_554 S
C313 C112 1.250 . S
C321 C14 1.236 . S
C345 C50 1.244 . S
C353 C148 1.238 . S
C377 C184 1.209 . S
C385 C86 1.220 . S
C409 C3 1.225 . S
C417 C74 1.222 . S
C441 C39 1.256 . S
C449 C110 1.238 . S
C473 C146 1.235 . S
C481 C75 1.255 . S
C505 C182 1.213 . S
C513 C111 1.255 . S
C537 C147 1.242 . S
C545 C2 1.214 . S
C569 C183 1.248 . S
C577 C38 1.214 . S
