# Generated by pormake.
# Topology kag, (6)-cn, num edge types: 1
# Building blocks:
#     Node 0, Type 0, BuildingBlock: PAMTUU_clean_sbu_0, # of connection points: 6
#     Node 1, Type 0, BuildingBlock: PAMTUU_clean_sbu_0, # of connection points: 6
#     Node 2, Type 0, BuildingBlock: PAMTUU_clean_sbu_0, # of connection points: 6
#     Edge 3, Type (0, 0), BuildingBlock: ZUJKAS_clean_linker_0, # of connection points: 2
#     Edge 4, Type (0, 0), BuildingBlock: ZUJKAS_clean_linker_0, # of connection points: 2
#     Edge 5, Type (0, 0), BuildingBlock: ZUJKAS_clean_linker_0, # of connection points: 2
#     Edge 6, Type (0, 0), BuildingBlock: ZUJKAS_clean_linker_0, # of connection points: 2
#     Edge 7, Type (0, 0), BuildingBlock: ZUJKAS_clean_linker_0, # of connection points: 2
#     Edge 8, Type (0, 0), BuildingBlock: ZUJKAS_clean_linker_0, # of connection points: 2
#     Edge 9, Type (0, 0), BuildingBlock: ZUJKAS_clean_linker_0, # of connection points: 2
#     Edge 10, Type (0, 0), BuildingBlock: ZUJKAS_clean_linker_0, # of connection points: 2
#     Edge 11, Type (0, 0), BuildingBlock: ZUJKAS_clean_linker_0, # of connection points: 2
# Relax obj value: 0.062
# Max RMSD: 0.134
# Mean RMSD: 0.100
data_MOF--net-kag--node1-PAMTUU_clean_sbu_0--edge1-ZUJKAS_clean_linker_0
_symmetry_space_group_name_H-M    P1
_symmetry_Int_Tables_number       1
_symmetry_cell_setting            triclinic
loop_
_symmetry_equiv_pos_as_xyz
'x, y, z'
_cell_length_a     58.621886
_cell_length_b     39.614959
_cell_length_c     19.66732
_cell_angle_alpha  88.318815
_cell_angle_beta   98.845495
_cell_angle_gamma 121.60605
loop_
_atom_site_label
_atom_site_type_symbol
_atom_site_fract_x
_atom_site_fract_y
_atom_site_fract_z
_atom_type_partial_charge
Tb0 Tb 1.02045 0.57489 0.00581 0.0
Tb1 Tb 0.03636 0.50652 0.0185 0.0
C2 C 0.02616 0.53776 0.87768 0.0
C3 C 0.97908 0.62112 0.97968 0.0
C4 C 0.92838 0.61539 0.95594 0.0
C5 C 0.95258 0.65201 0.95261 0.0
C6 C 0.9777 0.65483 0.96462 0.0
C7 C 0.95502 0.58436 0.981 0.0
C8 C 0.92994 0.58151 0.96959 0.0
C9 C 1.00559 0.62463 -0.00328 0.0
O10 O 0.98312 0.51985 0.01837 0.0
O11 O 0.99237 0.47324 0.98673 0.0
O12 O 1.0224 0.50973 0.11272 0.0
O13 O 0.03758 0.57563 0.1126 0.0
O14 O 0.03748 0.45966 0.97485 0.0
O15 O 0.05367 0.47959 0.082 0.0
O16 O 0.07452 0.56304 0.04521 0.0
O17 O 0.06317 0.60662 -0.00501 0.0
O18 O 1.01012 0.54571 0.90405 0.0
O19 O 0.04293 0.53037 0.91766 0.0
C20 C 0.97518 0.48318 -0.00035 0.0
O21 O 1.00919 0.60928 0.05379 0.0
O22 O 1.01398 0.61531 0.94694 0.0
C23 C 0.0303 0.54323 0.14594 0.0
C24 C 0.07727 0.45944 0.02383 0.0
C25 C 0.12688 0.46521 0.01444 0.0
C26 C 0.11823 0.46167 0.07856 0.0
C27 C 0.09367 0.45859 0.08308 0.0
C28 C 0.08572 0.46269 0.95951 0.0
C29 C 0.11023 0.46546 0.95489 0.0
C30 C 0.05191 0.45778 0.03075 0.0
C31 C 0.0814 0.59802 0.02167 0.0
H32 H 0.95215 0.67857 0.94099 0.0
H33 H 0.99607 0.68343 0.96301 0.0
H34 H 0.95571 0.55801 -0.00766 0.0
H35 H 0.91188 0.55292 0.9735 0.0
H36 H 0.13065 0.46197 0.12565 0.0
H37 H 0.08766 0.45606 0.1333 0.0
H38 H 0.0735 0.46327 0.91274 0.0
H39 H 0.11601 0.46749 0.90452 0.0
Tb40 Tb 0.49318 1.01458 0.97922 0.0
Tb41 Tb 0.561 0.06398 0.01031 0.0
C42 C 0.52794 0.04398 0.85975 0.0
C43 C 0.41595 0.9433 0.96425 0.0
C44 C 0.36303 0.88162 0.98096 0.0
C45 C 0.36945 0.89354 0.91496 0.0
C46 C 0.39556 0.924 0.90679 0.0
C47 C 0.41 0.93049 0.03024 0.0
C48 C 0.38379 0.89981 0.03847 0.0
C49 C 0.44187 0.97923 0.95368 0.0
O50 O 0.50422 0.97061 0.96764 0.0
O51 O 0.54703 1.00253 0.03245 0.0
O52 O 0.54658 0.0615 0.1069 0.0
O53 O 0.50377 1.00562 0.08591 0.0
O54 O 0.59776 0.06939 -0.00247 0.0
O55 O 0.59735 0.11094 0.06511 0.0
O56 O 0.55058 0.10743 0.97419 0.0
O57 O 0.50815 0.07675 0.0049 0.0
O58 O 0.50705 0.04015 0.88373 0.0
O59 O 0.54919 0.04755 0.90046 0.0
C60 C 0.52547 0.97035 0.00044 0.0
O61 O 0.45688 1.0044 0.00629 0.0
O62 O 0.45643 0.97538 0.9143 0.0
C63 C 0.52497 1.03233 0.12867 0.0
C64 C 0.63797 0.13454 0.01801 0.0
C65 C 0.69086 0.19346 -0.00514 0.0
C66 C 0.68001 0.19829 0.05021 0.0
C67 C 0.65397 0.16919 0.06169 0.0
C68 C 0.64839 0.13011 0.96135 0.0
C69 C 0.67452 0.15928 0.94984 0.0
C70 C 0.6124 0.1016 0.03803 0.0
C71 C 0.52978 0.1086 0.98832 0.0
H72 H 0.35412 0.87973 0.86947 0.0
H73 H 0.39959 0.93342 0.85542 0.0
H74 H 0.4253 0.94496 0.07558 0.0
H75 H 0.37952 0.89148 0.09005 0.0
H76 H 0.69206 0.2238 0.08666 0.0
H77 H 0.64675 0.17316 0.10653 0.0
H78 H 0.63673 0.10362 0.927 0.0
H79 H 0.68206 0.15476 0.9062 0.0
Tb80 Tb 0.56286 0.56704 0.00792 0.0
Tb81 Tb 0.49574 0.51416 0.97623 0.0
C82 C 0.5271 0.54227 0.1256 0.0
C83 C 0.63716 0.60632 0.01434 0.0
C84 C 0.68187 0.60527 0.98069 0.0
C85 C 0.68511 0.62938 0.03696 0.0
C86 C 0.66298 0.62991 0.05347 0.0
C87 C 0.63363 0.58216 0.95805 0.0
C88 C 0.65585 0.58168 0.94127 0.0
C89 C 0.61417 0.60618 0.03547 0.0
O90 O 0.55192 0.5078 0.97478 0.0
O91 O 0.5092 0.47279 0.00403 0.0
O92 O 0.50939 0.50999 0.88231 0.0
O93 O 0.55136 0.56742 0.8975 0.0
O94 O 0.45853 0.47132 0.00534 0.0
O95 O 0.45996 0.49797 0.9074 0.0
O96 O 0.50773 0.57574 0.96127 0.0
O97 O 0.55009 0.60795 0.02783 0.0
O98 O 0.54827 0.54537 0.10458 0.0
O99 O 0.50633 0.53798 0.08191 0.0
C100 C 0.53088 0.47435 0.9891 0.0
O101 O 0.60025 0.61596 0.99015 0.0
O102 O 0.59848 0.57551 0.0679 0.0
C103 C 0.53029 0.5386 0.85747 0.0
C104 C 0.42183 0.4796 0.95991 0.0
C105 C 0.37719 0.48628 0.97463 0.0
C106 C 0.37922 0.4739 0.91078 0.0
C107 C 0.40127 0.47048 0.90363 0.0
C108 C 0.42013 0.49254 0.02368 0.0
C109 C 0.3979 0.49566 0.03103 0.0
C110 C 0.44449 0.47485 0.95041 0.0
C111 C 0.52878 0.60789 -0.00518 0.0
H112 H 0.70466 0.64729 0.06934 0.0
H113 H 0.66596 0.64839 0.09756 0.0
H114 H 0.61372 0.56355 0.92754 0.0
H115 H 0.65267 0.56301 0.89732 0.0
H116 H 0.36343 0.46597 0.86662 0.0
H117 H 0.40217 0.46038 0.85404 0.0
H118 H 0.43584 0.50006 0.06785 0.0
H119 H 0.39699 0.50561 0.08069 0.0
H120 H 0.99595 0.55506 0.77876 0.0
H121 H 0.99649 0.55704 0.65453 0.0
H122 H 0.05612 0.52324 0.68089 0.0
H123 H 0.05602 0.52167 0.80517 0.0
H124 H 0.06904 0.58626 0.59688 0.0
H125 H 0.96282 0.46226 0.51484 0.0
H126 H 0.96617 0.50089 0.56886 0.0
H127 H 0.97981 0.47133 0.60301 0.0
C128 C 1.00909 0.54782 0.75817 0.0
C129 C 0.02586 0.53803 0.80204 0.0
C130 C 1.00928 0.54881 0.68703 0.0
C131 C 0.02608 0.53977 0.65827 0.0
C132 C 0.04293 0.53019 0.70193 0.0
H133 H 1.0179 0.48214 0.23095 0.0
H134 H 1.0176 0.48298 0.35488 0.0
C135 C 0.04278 0.52923 0.77302 0.0
C136 C 0.02654 0.54097 0.58287 0.0
H137 H 0.98702 0.49916 0.42633 0.0
C138 C 0.05112 0.56723 0.55954 0.0
C139 C 1.0032 0.51582 0.53428 0.0
C140 C 0.97654 0.4857 0.55632 0.0
C141 C 0.05296 0.56919 0.48895 0.0
C142 C 0.02948 0.54463 0.44028 0.0
C143 C 1.00495 0.51822 0.46365 0.0
C144 C 0.03011 0.54482 0.365 0.0
C145 C 0.08017 0.59682 0.46725 0.0
C146 C 0.03708 0.57929 0.32923 0.0
C147 C 0.03737 0.57897 0.25816 0.0
C148 C 0.03049 0.54408 0.22144 0.0
C149 C 1.02336 0.50958 0.25748 0.0
C150 C 1.02312 0.50995 0.32841 0.0
H151 H 0.09715 0.60606 0.51087 0.0
H152 H 0.0834 0.5826 0.42493 0.0
H153 H 0.08089 0.62395 0.44818 0.0
H154 H 0.04203 0.60634 0.35614 0.0
H155 H 0.04277 0.60599 0.232 0.0
H156 H 0.56776 0.07277 0.23263 0.0
H157 H 0.56695 0.0722 0.35649 0.0
H158 H 0.48062 0.98823 0.31929 0.0
H159 H 0.48114 0.98827 0.19474 0.0
H160 H 0.50492 0.06613 0.4115 0.0
H161 H 0.54943 0.97311 0.48266 0.0
H162 H 0.56504 1.01127 0.42362 0.0
H163 H 0.53132 0.9696 0.39742 0.0
C164 C 0.54857 0.05399 0.2506 0.0
C165 C 0.52449 1.03056 0.20375 0.0
C166 C 0.54821 0.05365 0.32141 0.0
C167 C 0.52377 1.03005 0.3467 0.0
C168 C 0.49968 1.0065 0.30044 0.0
H169 H 0.48386 1.01866 0.75873 0.0
H170 H 0.48235 1.01522 0.6343 0.0
C171 C 0.50004 1.00651 0.22944 0.0
C172 C 0.52344 1.03121 0.42152 0.0
H173 H 0.54313 1.00321 0.57391 0.0
C174 C 0.51307 0.05219 0.44719 0.0
C175 C 0.53443 1.01339 0.4675 0.0
C176 C 0.5456 0.99032 0.44179 0.0
C177 C 0.51389 0.05652 0.51829 0.0
C178 C 0.52466 1.03834 0.56457 0.0
C179 C 0.53488 1.01713 0.5385 0.0
C180 C 0.5256 0.04093 0.64019 0.0
C181 C 0.50402 0.08161 0.54306 0.0
C182 C 0.55029 0.05544 0.6852 0.0
C183 C 0.55115 0.05679 0.75656 0.0
C184 C 0.52733 0.04383 0.78426 0.0
C185 C 0.50265 1.02942 0.73907 0.0
C186 C 0.50176 1.02762 0.6678 0.0
H187 H 0.50439 0.10285 0.50438 0.0
H188 H 0.48272 0.06202 0.55162 0.0
H189 H 0.51654 0.09865 0.5923 0.0
H190 H 0.56893 0.06572 0.66506 0.0
H191 H 0.57049 0.06803 0.78996 0.0
H192 H 0.48643 0.4962 0.75711 0.0
H193 H 0.4852 0.497 0.63257 0.0
H194 H 0.57169 0.58045 0.66228 0.0
H195 H 0.57298 0.58077 0.7873 0.0
H196 H 0.5454 0.60204 0.56372 0.0
H197 H 0.50853 0.44295 0.51531 0.0
H198 H 0.48653 0.45021 0.55866 0.0
H199 H 0.5205 0.46676 0.60094 0.0
C200 C 0.50525 0.5145 0.73726 0.0
C201 C 0.52985 0.53825 0.78212 0.0
C202 C 0.50452 0.51475 0.66597 0.0
C203 C 0.52842 0.53814 0.63809 0.0
C204 C 0.55301 0.562 0.68272 0.0
H205 H 0.56941 0.56304 0.23003 0.0
H206 H 0.56889 0.56312 0.354 0.0
C207 C 0.55372 0.56214 0.75412 0.0
C208 C 0.52763 0.53865 0.56234 0.0
H209 H 0.5085 0.47917 0.41643 0.0
C210 C 0.53744 0.57519 0.53162 0.0
C211 C 0.51727 0.50356 0.52045 0.0
C212 C 0.50786 0.46373 0.55056 0.0
C213 C 0.53691 0.57749 0.46012 0.0
C214 C 0.52624 0.54241 0.4185 0.0
C215 C 0.51638 0.5059 0.44884 0.0
C216 C 0.52639 0.54337 0.34355 0.0
C217 C 0.54771 0.61728 0.4291 0.0
C218 C 0.50258 0.53218 0.29701 0.0
C219 C 0.50278 0.5323 0.22594 0.0
C220 C 0.52676 0.54314 0.20058 0.0
C221 C 0.55056 0.55437 0.24774 0.0
C222 C 0.55037 0.55456 0.31858 0.0
H223 H 0.55261 0.64115 0.4674 0.0
H224 H 0.56643 0.6254 0.40844 0.0
H225 H 0.53264 0.61562 0.38537 0.0
H226 H 0.48388 0.52334 0.31571 0.0
H227 H 0.4841 0.52339 0.19099 0.0
H228 H 0.14948 0.42699 0.08801 0.0
H229 H 0.19329 0.43457 0.0837 0.0
H230 H 0.20715 0.51699 0.92393 0.0
H231 H 0.16401 0.51135 0.93057 0.0
H232 H 0.21089 0.41751 0.97966 0.0
H233 H 0.27739 0.57832 0.05609 0.0
H234 H 0.24193 0.55026 0.06445 0.0
H235 H 0.25198 0.56756 0.9822 0.0
C236 C 0.16201 0.44731 0.05276 0.0
C237 C 0.15323 0.46883 0.01007 0.0
C238 C 0.187 0.45136 0.04999 0.0
C239 C 0.20377 0.47691 0.00442 0.0
C240 C 0.19488 0.49785 0.96073 0.0
H241 H 0.35272 0.5174 0.8875 0.0
H242 H 0.31098 0.51606 0.89615 0.0
C243 C 0.16997 0.49408 0.96384 0.0
C244 C 0.23009 0.48047 0.00129 0.0
H245 H 0.29842 0.54684 0.01584 0.0
C246 C 0.23003 0.44577 0.98798 0.0
C247 C 0.25509 0.51739 0.01217 0.0
C248 C 0.25672 0.55545 0.03019 0.0
C249 C 0.25418 0.44703 0.98445 0.0
C250 C 0.27906 0.4839 -0.00515 0.0
C251 C 0.27923 0.51865 0.00786 0.0
C252 C 0.30508 0.48675 -0.00798 0.0
C253 C 0.25296 0.40901 0.96868 0.0
C254 C 0.31577 0.4714 0.04384 0.0
C255 C 0.33961 0.47219 0.03916 0.0
C256 C 0.35307 0.48819 0.98236 0.0
C257 C 0.34262 0.50445 0.93143 0.0
C258 C 0.3189 0.5039 0.93643 0.0
H259 H 0.23187 0.38421 0.95028 0.0
H260 H 0.26567 0.41332 0.92895 0.0
H261 H 0.26111 0.40036 0.01609 0.0
H262 H 0.30545 0.45829 0.08739 0.0
H263 H 0.34705 0.45921 0.07893 0.0
H264 H 0.72855 0.17912 0.95808 0.0
H265 H 0.77654 0.22711 0.95392 0.0
H266 H 0.7666 0.32235 0.01067 0.0
H267 H 0.71852 0.27476 0.01397 0.0
H268 H 0.80254 0.29641 0.87685 0.0
H269 H 0.82855 0.33322 0.15917 0.0
H270 H 0.79711 0.29001 0.11974 0.0
H271 H 0.80112 0.3382 0.11686 0.0
C272 C 0.7364 0.21033 0.96859 0.0
C273 C 0.71959 0.22294 0.98686 0.0
C274 C 0.76393 0.23771 0.96658 0.0
C275 C 0.77528 0.27822 0.98319 0.0
C276 C 0.75841 0.29112 -0.00088 0.0
H277 H 0.93447 0.4915 0.03164 0.0
H278 H 0.88646 0.44104 0.02392 0.0
C279 C 0.73091 0.26382 0.00103 0.0
C280 C 0.80483 0.30695 0.98509 0.0
H281 H 0.86289 0.37295 0.09261 0.0
C282 C 0.81581 0.31302 0.92403 0.0
C283 C 0.82211 0.3285 0.04676 0.0
C284 C 0.81176 0.32201 0.11456 0.0
C285 C 0.84344 0.34096 0.92258 0.0
C286 C 0.86067 0.36282 0.98418 0.0
C287 C 0.8497 0.35631 0.04536 0.0
C288 C 0.88996 0.39345 0.9863 0.0
C289 C 0.85373 0.3477 0.85469 0.0
C290 C 0.90813 0.38359 0.96813 0.0
C291 C 0.93578 0.41263 0.972 0.0
C292 C 0.94585 0.4521 -0.00541 0.0
C293 C 0.92755 0.46166 0.01323 0.0
C294 C 0.9 0.43272 0.00916 0.0
H295 H 0.83689 0.33627 0.8102 0.0
H296 H 0.86816 0.37977 0.84946 0.0
H297 H 0.86458 0.33184 0.85221 0.0
H298 H 0.90102 0.35332 0.95182 0.0
H299 H 0.94924 0.40407 0.95764 0.0
H300 H 0.56635 0.95832 0.05626 0.0
H301 H 0.56627 0.89658 0.0547 0.0
H302 H 0.48389 0.83462 0.9467 0.0
H303 H 0.48387 0.89633 0.94697 0.0
H304 H 0.53358 0.82494 0.10913 0.0
H305 H 0.52154 0.80454 0.82521 0.0
H306 H 0.53036 0.85061 0.86749 0.0
H307 H 0.49573 0.8096 0.8535 0.0
C308 C 0.54818 0.93162 0.03206 0.0
C309 C 0.52516 0.9325 0.00139 0.0
C310 C 0.54818 0.89628 0.03125 0.0
C311 C 0.52525 0.86103 -0.00045 0.0
C312 C 0.50206 0.86159 0.97004 0.0
H313 H 0.48702 0.61849 0.94127 0.0
H314 H 0.48615 0.67948 0.94444 0.0
C315 C 0.50204 0.89694 0.97066 0.0
C316 C 0.52553 0.82364 -0.0016 0.0
H317 H 0.51835 0.75137 0.89051 0.0
C318 C 0.53036 0.80894 0.06132 0.0
C319 C 0.52128 0.80268 0.93601 0.0
C320 C 0.51718 0.81778 0.86667 0.0
C321 C 0.5306 0.7736 0.06362 0.0
C322 C 0.5264 0.75267 0.00124 0.0
C323 C 0.52153 0.76733 0.93832 0.0
C324 C 0.52705 0.71558 3e-05 0.0
C325 C 0.53476 0.75854 0.13296 0.0
C326 C 0.55045 0.71556 0.02947 0.0
C327 C 0.551 0.68066 0.02797 0.0
C328 C 0.52823 0.64502 -0.00364 0.0
C329 C 0.50493 0.64528 0.96614 0.0
C330 C 0.50439 0.68018 0.96785 0.0
H331 H 0.53015 0.77149 0.17431 0.0
H332 H 0.52181 0.72568 0.13204 0.0
H333 H 0.55629 0.76714 0.14639 0.0
H334 H 0.56842 0.74266 0.05316 0.0
H335 H 0.56937 0.68174 0.05128 0.0
H336 H 0.91772 0.6695 0.00257 0.0
H337 H 0.87383 0.66402 -0.00687 0.0
H338 H 0.8346 0.54945 0.88459 0.0
H339 H 0.87855 0.55509 0.89151 0.0
H340 H 0.83262 0.64543 0.85921 0.0
H341 H 0.79678 0.53678 0.06285 0.0
H342 H 0.83244 0.56971 0.05876 0.0
H343 H 0.8118 0.5283 -0.00293 0.0
C344 C 0.8999 0.64341 0.97552 0.0
C345 C 0.90177 0.61273 0.94782 0.0
C346 C 0.8748 0.64025 0.97065 0.0
C347 C 0.85106 0.60624 0.93864 0.0
C348 C 0.85274 0.57577 0.91006 0.0
H349 H 0.68345 0.54081 0.94035 0.0
H350 H 0.72317 0.53934 0.92061 0.0
C351 C 0.87787 0.579 0.91443 0.0
C352 C 0.82452 0.6026 0.93627 0.0
H353 H 0.76785 0.55822 0.01263 0.0
C354 C 0.81833 0.62621 0.89236 0.0
C355 C 0.80592 0.5772 0.97913 0.0
C356 C 0.81192 0.55156 0.02751 0.0
C357 C 0.79403 0.62545 0.89074 0.0
C358 C 0.77586 0.60125 0.93572 0.0
C359 C 0.78178 0.57681 0.97828 0.0
C360 C 0.7514 0.60247 0.94241 0.0
C361 C 0.78802 0.65038 0.8405 0.0
C362 C 0.75404 0.63841 0.96115 0.0
C363 C 0.73138 0.63943 0.97158 0.0
C364 C 0.70557 0.60439 0.96461 0.0
C365 C 0.70292 0.56843 0.94522 0.0
C366 C 0.72564 0.56748 0.93442 0.0
H367 H 0.79861 0.65596 0.79541 0.0
H368 H 0.7659 0.63593 0.82165 0.0
H369 H 0.79538 0.6796 0.86655 0.0
H370 H 0.77377 0.66565 0.96923 0.0
H371 H 0.73415 0.66771 0.98573 0.0
H372 H 0.12517 0.59488 0.08585 0.0
H373 H 0.17329 0.64344 0.08584 0.0
H374 H 0.15237 0.71718 0.95957 0.0
H375 H 0.10423 0.66931 0.96082 0.0
H376 H 0.2013 0.66844 0.98075 0.0
H377 H 0.20886 0.79766 0.10756 0.0
H378 H 0.17968 0.74804 0.10603 0.0
H379 H 0.1831 0.77757 0.03253 0.0
C380 C 0.13076 0.62162 0.05864 0.0
C381 C 0.11073 0.62826 0.02378 0.0
C382 C 0.15835 0.64937 0.0586 0.0
C383 C 0.1666 0.6844 0.02374 0.0
C384 C 0.14664 0.69098 0.9885 0.0
H385 H 0.3166 0.87648 0.9152 0.0
H386 H 0.26969 0.82771 0.92798 0.0
C387 C 0.11904 0.6634 0.98894 0.0
C388 C 0.19597 0.71319 0.02194 0.0
H389 H 0.24621 0.81109 0.05278 0.0
C390 C 0.21117 0.69954 -0.00283 0.0
C391 C 0.20896 0.75383 0.04352 0.0
C392 C 0.19439 0.77009 0.07456 0.0
C393 C 0.23866 0.72555 0.99151 0.0
C394 C 0.25141 0.76627 0.01162 0.0
C395 C 0.23637 0.77987 0.03716 0.0
C396 C 0.28009 0.79552 0.00436 0.0
C397 C 0.25369 0.70951 0.96217 0.0
C398 C 0.30161 0.79387 0.04356 0.0
C399 C 0.32856 0.82178 0.03632 0.0
C400 C 0.33448 0.85176 0.98948 0.0
C401 C 0.3128 0.8534 0.95081 0.0
C402 C 0.28596 0.8257 0.95839 0.0
H403 H 0.2397 0.67924 0.93701 0.0
H404 H 0.26574 0.72947 0.92392 0.0
H405 H 0.26798 0.70798 0.00439 0.0
H406 H 0.29756 0.77113 0.08004 0.0
H407 H 0.34474 0.81961 0.06677 0.0
H408 H 0.49138 0.3992 0.01505 0.0
H409 H 0.49262 0.33848 0.0136 0.0
H410 H 0.57261 0.40423 0.95787 0.0
H411 H 0.57175 0.46523 0.96003 0.0
H412 H 0.49835 0.30111 0.90559 0.0
H413 H 0.58317 0.3462 0.12316 0.0
H414 H 0.56565 0.37259 0.10625 0.0
H415 H 0.59093 0.38034 0.05583 0.0
C416 C 0.50932 0.40089 0.00274 0.0
C417 C 0.53152 0.43729 0.98799 0.0
C418 C 0.50997 0.36606 0.00187 0.0
C419 C 0.53286 0.36682 0.98666 0.0
C420 C 0.55495 0.40299 0.9712 0.0
H421 H 0.57084 0.18186 0.95846 0.0
H422 H 0.57168 0.2444 0.95526 0.0
C423 C 0.55433 0.43786 0.97206 0.0
C424 C 0.53331 0.32958 0.9855 0.0
H425 H 0.5672 0.28572 0.06028 0.0
C426 C 0.51336 0.29772 0.93954 0.0
C427 C 0.55298 0.32518 0.0296 0.0
C428 C 0.57427 0.35772 0.08197 0.0
C429 C 0.51268 0.26178 0.93601 0.0
C430 C 0.53218 0.25723 0.98055 0.0
C431 C 0.55229 0.28922 0.02607 0.0
C432 C 0.53161 0.21918 0.98195 0.0
C433 C 0.49132 0.22923 0.88375 0.0
C434 C 0.50897 0.18427 -0.00109 0.0
C435 C 0.5084 0.1485 0.00073 0.0
C436 C 0.53056 0.1468 0.98606 0.0
C437 C 0.55337 0.18195 0.96978 0.0
C438 C 0.55391 0.21778 0.96801 0.0
H439 H 0.48313 0.24103 0.84133 0.0
H440 H 0.49959 0.21331 0.86114 0.0
H441 H 0.4742 0.20746 0.9095 0.0
H442 H 0.49177 0.18472 0.01138 0.0
H443 H 0.49055 0.1222 0.01392 0.0
loop_
_geom_bond_atom_site_label_1
_geom_bond_atom_site_label_2
_geom_bond_distance
_geom_bond_site_symmetry_2
_ccdc_geom_bond_type
Tb0 C9 2.764 . S
Tb0 O10 2.325 . S
Tb0 O13 2.286 1_656 S
Tb0 O17 2.322 1_655 S
Tb0 O18 2.349 . S
Tb0 O21 2.415 1_556 S
Tb0 O22 2.399 . S
Tb1 O11 2.322 1_455 S
Tb1 O12 2.349 . S
Tb1 O14 2.415 1_554 S
Tb1 O15 2.399 . S
Tb1 O16 2.325 . S
Tb1 O19 2.303 1_554 S
Tb1 C30 2.764 . S
C2 O18 1.261 . S
C2 O19 1.257 1_655 S
C3 C6 1.358 . S
C3 C7 1.332 1_556 S
C3 C9 1.504 . S
C4 C5 1.373 1_554 S
C4 C8 1.308 . S
C5 C4 1.373 1_556 S
C5 C6 1.429 . S
C5 H32 0.932 . S
C6 C3 1.358 . S
C6 C5 1.429 . S
C6 H33 0.930 . S
C7 C3 1.332 1_554 S
C7 C8 1.394 . S
C7 H34 0.932 . S
C8 C4 1.308 . S
C8 C7 1.394 . S
C8 H35 0.929 . S
C9 Tb0 2.764 . S
C9 C3 1.504 . S
C9 O21 1.239 1_556 S
C9 O22 1.263 . S
O10 Tb0 2.325 . S
O10 C20 1.236 . S
O11 Tb1 2.322 1_655 S
O11 C20 1.257 1_554 S
O12 Tb1 2.349 . S
O12 C23 1.261 . S
O13 Tb0 2.286 1_454 S
O13 C23 1.272 . S
O14 Tb1 2.415 1_556 S
O14 C30 1.239 1_556 S
O15 Tb1 2.399 . S
O15 C30 1.263 . S
O16 Tb1 2.325 . S
O16 C31 1.236 . S
O17 Tb0 2.322 1_455 S
O17 C31 1.257 1_556 S
O18 Tb0 2.349 . S
O18 C2 1.261 . S
O19 Tb1 2.303 1_556 S
O19 C2 1.257 1_455 S
C20 O10 1.236 . S
C20 O11 1.257 1_556 S
O21 Tb0 2.415 1_554 S
O21 C9 1.239 1_554 S
O22 Tb0 2.399 . S
O22 C9 1.263 . S
C23 O12 1.261 . S
C23 O13 1.272 . S
C24 C27 1.358 . S
C24 C28 1.332 1_554 S
C24 C30 1.504 . S
C25 C26 1.373 1_556 S
C25 C29 1.308 . S
C26 C25 1.373 1_554 S
C26 C27 1.429 . S
C26 H36 0.932 . S
C27 C24 1.358 . S
C27 C26 1.429 . S
C27 H37 0.930 . S
C28 C24 1.332 1_556 S
C28 C29 1.394 . S
C28 H38 0.932 . S
C29 C25 1.308 . S
C29 C28 1.394 . S
C29 H39 0.929 . S
C30 Tb1 2.764 . S
C30 O14 1.239 1_554 S
C30 O15 1.263 . S
C30 C24 1.504 . S
C31 O16 1.236 . S
C31 O17 1.257 1_554 S
H32 C5 0.932 . S
H33 C6 0.930 . S
H34 C7 0.932 . S
H35 C8 0.929 . S
H36 C26 0.932 . S
H37 C27 0.930 . S
H38 C28 0.932 . S
H39 C29 0.929 . S
Tb40 C49 2.764 . S
Tb40 O50 2.325 . S
Tb40 O53 2.303 1_556 S
Tb40 O57 2.322 1_565 S
Tb40 O58 2.349 . S
Tb40 O61 2.415 1_556 S
Tb40 O62 2.399 . S
Tb41 O51 2.322 1_545 S
Tb41 O52 2.349 . S
Tb41 O54 2.415 1_554 S
Tb41 O55 2.399 . S
Tb41 O56 2.325 . S
Tb41 O59 2.303 1_554 S
Tb41 C70 2.764 . S
C42 O58 1.261 . S
C42 O59 1.257 1_565 S
C43 C46 1.358 . S
C43 C47 1.332 1_556 S
C43 C49 1.504 . S
C44 C45 1.373 . S
C44 C48 1.308 1_556 S
C45 C44 1.373 . S
C45 C46 1.429 . S
C45 H72 0.932 . S
C46 C43 1.358 . S
C46 C45 1.429 . S
C46 H73 0.930 . S
C47 C43 1.332 1_554 S
C47 C48 1.394 . S
C47 H74 0.932 . S
C48 C44 1.308 1_554 S
C48 C47 1.394 . S
C48 H75 0.929 . S
C49 Tb40 2.764 . S
C49 C43 1.504 . S
C49 O61 1.239 1_556 S
C49 O62 1.263 . S
O50 Tb40 2.325 . S
O50 C60 1.236 1_556 S
O51 Tb41 2.322 1_565 S
O51 C60 1.257 . S
O52 Tb41 2.349 . S
O52 C63 1.261 . S
O53 Tb40 2.303 1_554 S
O53 C63 1.257 1_565 S
O54 Tb41 2.415 1_556 S
O54 C70 1.239 1_556 S
O55 Tb41 2.399 . S
O55 C70 1.263 . S
O56 Tb41 2.325 . S
O56 C71 1.236 1_554 S
O57 Tb40 2.322 1_545 S
O57 C71 1.257 . S
O58 Tb40 2.349 . S
O58 C42 1.261 . S
O59 Tb41 2.303 1_556 S
O59 C42 1.257 1_545 S
C60 O50 1.236 1_554 S
C60 O51 1.257 . S
O61 Tb40 2.415 1_554 S
O61 C49 1.239 1_554 S
O62 Tb40 2.399 . S
O62 C49 1.263 . S
C63 O52 1.261 . S
C63 O53 1.257 1_545 S
C64 C67 1.358 . S
C64 C68 1.332 1_554 S
C64 C70 1.504 . S
C65 C66 1.373 . S
C65 C69 1.308 1_554 S
C66 C65 1.373 . S
C66 C67 1.429 . S
C66 H76 0.932 . S
C67 C64 1.358 . S
C67 C66 1.429 . S
C67 H77 0.930 . S
C68 C64 1.332 1_556 S
C68 C69 1.394 . S
C68 H78 0.932 . S
C69 C65 1.308 1_556 S
C69 C68 1.394 . S
C69 H79 0.929 . S
C70 Tb41 2.764 . S
C70 O54 1.239 1_554 S
C70 O55 1.263 . S
C70 C64 1.504 . S
C71 O56 1.236 1_556 S
C71 O57 1.257 . S
H72 C45 0.932 . S
H73 C46 0.930 . S
H74 C47 0.932 . S
H75 C48 0.929 . S
H76 C66 0.932 . S
H77 C67 0.930 . S
H78 C68 0.932 . S
H79 C69 0.929 . S
Tb80 C89 2.764 . S
Tb80 O90 2.325 . S
Tb80 O93 2.303 1_554 S
Tb80 O97 2.322 . S
Tb80 O98 2.349 . S
Tb80 O101 2.415 1_554 S
Tb80 O102 2.399 . S
Tb81 O91 2.322 . S
Tb81 O92 2.349 . S
Tb81 O94 2.415 1_556 S
Tb81 O95 2.399 . S
Tb81 O96 2.325 . S
Tb81 O99 2.303 1_556 S
Tb81 C110 2.764 . S
C82 O98 1.261 . S
C82 O99 1.257 . S
C83 C86 1.358 . S
C83 C87 1.332 1_554 S
C83 C89 1.504 . S
C84 C85 1.373 . S
C84 C88 1.308 1_554 S
C85 C84 1.373 . S
C85 C86 1.429 . S
C85 H112 0.932 . S
C86 C83 1.358 . S
C86 C85 1.429 . S
C86 H113 0.930 . S
C87 C83 1.332 1_556 S
C87 C88 1.394 . S
C87 H114 0.932 . S
C88 C84 1.308 1_556 S
C88 C87 1.394 . S
C88 H115 0.929 . S
C89 Tb80 2.764 . S
C89 C83 1.504 . S
C89 O101 1.239 1_554 S
C89 O102 1.263 . S
O90 Tb80 2.325 . S
O90 C100 1.236 1_554 S
O91 Tb81 2.322 . S
O91 C100 1.257 . S
O92 Tb81 2.349 . S
O92 C103 1.261 . S
O93 Tb80 2.303 1_556 S
O93 C103 1.257 . S
O94 Tb81 2.415 1_554 S
O94 C110 1.239 1_554 S
O95 Tb81 2.399 . S
O95 C110 1.263 . S
O96 Tb81 2.325 . S
O96 C111 1.236 1_556 S
O97 Tb80 2.322 . S
O97 C111 1.257 . S
O98 Tb80 2.349 . S
O98 C82 1.261 . S
O99 Tb81 2.303 1_554 S
O99 C82 1.257 . S
C100 O90 1.236 1_556 S
C100 O91 1.257 . S
O101 Tb80 2.415 1_556 S
O101 C89 1.239 1_556 S
O102 Tb80 2.399 . S
O102 C89 1.263 . S
C103 O92 1.261 . S
C103 O93 1.257 . S
C104 C107 1.358 . S
C104 C108 1.332 1_556 S
C104 C110 1.504 . S
C105 C106 1.373 . S
C105 C109 1.308 1_556 S
C106 C105 1.373 . S
C106 C107 1.429 . S
C106 H116 0.932 . S
C107 C104 1.358 . S
C107 C106 1.429 . S
C107 H117 0.930 . S
C108 C104 1.332 1_554 S
C108 C109 1.394 . S
C108 H118 0.932 . S
C109 C105 1.308 1_554 S
C109 C108 1.394 . S
C109 H119 0.929 . S
C110 Tb81 2.764 . S
C110 O94 1.239 1_556 S
C110 O95 1.263 . S
C110 C104 1.504 . S
C111 O96 1.236 1_554 S
C111 O97 1.257 . S
H112 C85 0.932 . S
H113 C86 0.930 . S
H114 C87 0.932 . S
H115 C88 0.929 . S
H116 C106 0.932 . S
H117 C107 0.930 . S
H118 C108 0.932 . S
H119 C109 0.929 . S
H120 C128 0.929 . S
H121 C130 0.930 . S
H122 C132 0.930 . S
H123 C135 0.929 . S
H124 C138 0.930 . S
H125 C140 0.960 . S
H126 C140 0.960 . S
H127 C140 0.960 . S
C128 H120 0.929 . S
C128 C129 1.377 1_655 S
C128 C130 1.384 . S
C129 C128 1.377 1_455 S
C129 C135 1.390 . S
C130 H121 0.930 . S
C130 C128 1.384 . S
C130 C131 1.372 1_655 S
C131 C130 1.372 1_455 S
C131 C132 1.400 . S
C131 C136 1.490 . S
C132 H122 0.930 . S
C132 C131 1.400 . S
C132 C135 1.386 . S
H133 C149 0.930 . S
H134 C150 0.931 . S
C135 H123 0.929 . S
C135 C129 1.390 . S
C135 C132 1.386 . S
C136 C131 1.490 . S
C136 C138 1.395 . S
C136 C139 1.403 1_455 S
H137 C143 0.930 . S
C138 H124 0.930 . S
C138 C136 1.395 . S
C138 C141 1.403 . S
C139 C136 1.403 1_655 S
C139 C140 1.524 . S
C139 C143 1.400 . S
C140 H125 0.960 . S
C140 H126 0.960 . S
C140 H127 0.960 . S
C140 C139 1.524 . S
C141 C138 1.403 . S
C141 C142 1.392 . S
C141 C145 1.495 . S
C142 C141 1.392 . S
C142 C143 1.385 1_455 S
C142 C144 1.478 . S
C143 H137 0.930 . S
C143 C139 1.400 . S
C143 C142 1.385 1_655 S
C144 C142 1.478 . S
C144 C146 1.353 1_455 S
C144 C150 1.383 . S
C145 C141 1.495 . S
C145 H151 0.959 . S
C145 H152 0.961 . S
C145 H153 0.960 . S
C146 C144 1.353 1_655 S
C146 C147 1.389 . S
C146 H154 0.967 . S
C147 C146 1.389 . S
C147 C148 1.383 1_655 S
C147 H155 0.929 . S
C148 C147 1.383 1_455 S
C148 C149 1.377 . S
C149 H133 0.930 . S
C149 C148 1.377 . S
C149 C150 1.379 . S
C150 H134 0.931 . S
C150 C144 1.383 . S
C150 C149 1.379 . S
H151 C145 0.959 . S
H152 C145 0.961 . S
H153 C145 0.960 . S
H154 C146 0.967 . S
H155 C147 0.929 . S
H156 C164 0.929 . S
H157 C166 0.930 . S
H158 C168 0.930 . S
H159 C171 0.929 . S
H160 C174 0.923 . S
H161 C176 0.960 . S
H162 C176 0.960 . S
H163 C176 0.960 1_565 S
C164 H156 0.929 . S
C164 C165 1.377 1_545 S
C164 C166 1.384 . S
C165 C164 1.377 1_565 S
C165 C171 1.390 . S
C166 H157 0.930 . S
C166 C164 1.384 . S
C166 C167 1.387 . S
C167 C166 1.387 . S
C167 C168 1.383 1_545 S
C167 C172 1.491 . S
C168 H158 0.930 . S
C168 C167 1.383 1_565 S
C168 C171 1.386 . S
H169 C185 0.930 . S
H170 C186 0.931 . S
C171 H159 0.929 . S
C171 C165 1.390 . S
C171 C168 1.386 . S
C172 C167 1.491 . S
C172 C174 1.395 . S
C172 C175 1.403 . S
H173 C179 0.930 . S
C174 H160 0.923 . S
C174 C172 1.395 . S
C174 C177 1.403 . S
C175 C172 1.403 . S
C175 C176 1.524 . S
C175 C179 1.400 . S
C176 H161 0.960 . S
C176 H162 0.960 . S
C176 H163 0.960 1_545 S
C176 C175 1.524 . S
C177 C174 1.403 . S
C177 C178 1.392 . S
C177 C181 1.495 . S
C178 C177 1.392 . S
C178 C179 1.385 . S
C178 C180 1.478 . S
C179 H173 0.930 . S
C179 C175 1.400 . S
C179 C178 1.385 . S
C180 C178 1.478 . S
C180 C182 1.381 . S
C180 C186 1.383 1_545 S
C181 C177 1.495 . S
C181 H187 0.964 1_545 S
C181 H188 0.960 1_545 S
C181 H189 0.960 . S
C182 C180 1.381 . S
C182 C183 1.394 . S
C182 H190 0.930 . S
C183 C182 1.394 . S
C183 C184 1.383 . S
C183 H191 0.929 . S
C184 C183 1.383 . S
C184 C185 1.377 1_545 S
C185 H169 0.930 . S
C185 C184 1.377 1_565 S
C185 C186 1.379 . S
C186 H170 0.931 . S
C186 C180 1.383 1_565 S
C186 C185 1.379 . S
H187 C181 0.964 1_565 S
H188 C181 0.960 1_565 S
H189 C181 0.960 . S
H190 C182 0.930 . S
H191 C183 0.929 . S
H192 C200 0.929 . S
H193 C202 0.930 . S
H194 C204 0.930 . S
H195 C207 0.929 . S
H196 C210 0.930 . S
H197 C212 0.960 . S
H198 C212 0.960 . S
H199 C212 0.960 . S
C200 H192 0.929 . S
C200 C201 1.377 . S
C200 C202 1.384 . S
C201 C200 1.377 . S
C201 C207 1.390 . S
C202 H193 0.930 . S
C202 C200 1.384 . S
C202 C203 1.372 . S
C203 C202 1.372 . S
C203 C204 1.400 . S
C203 C208 1.490 . S
C204 H194 0.930 . S
C204 C203 1.400 . S
C204 C207 1.386 . S
H205 C221 0.930 . S
H206 C222 0.931 . S
C207 H195 0.929 . S
C207 C201 1.390 . S
C207 C204 1.386 . S
C208 C203 1.490 . S
C208 C210 1.395 . S
C208 C211 1.403 . S
H209 C215 0.930 . S
C210 H196 0.930 . S
C210 C208 1.395 . S
C210 C213 1.403 . S
C211 C208 1.403 . S
C211 C212 1.524 . S
C211 C215 1.400 . S
C212 H197 0.960 . S
C212 H198 0.960 . S
C212 H199 0.960 . S
C212 C211 1.524 . S
C213 C210 1.403 . S
C213 C214 1.392 . S
C213 C217 1.495 . S
C214 C213 1.392 . S
C214 C215 1.385 . S
C214 C216 1.478 . S
C215 H209 0.930 . S
C215 C211 1.400 . S
C215 C214 1.385 . S
C216 C214 1.478 . S
C216 C218 1.381 . S
C216 C222 1.383 . S
C217 C213 1.495 . S
C217 H223 0.959 . S
C217 H224 0.961 . S
C217 H225 0.960 . S
C218 C216 1.381 . S
C218 C219 1.394 . S
C218 H226 0.930 . S
C219 C218 1.394 . S
C219 C220 1.383 . S
C219 H227 0.929 . S
C220 C219 1.383 . S
C220 C221 1.377 . S
C221 H205 0.930 . S
C221 C220 1.377 . S
C221 C222 1.379 . S
C222 H206 0.931 . S
C222 C216 1.383 . S
C222 C221 1.379 . S
H223 C217 0.959 . S
H224 C217 0.961 . S
H225 C217 0.960 . S
H226 C218 0.930 . S
H227 C219 0.929 . S
H228 C236 0.929 . S
H229 C238 0.930 . S
H230 C240 0.930 . S
H231 C243 0.929 . S
H232 C246 0.930 . S
H233 C248 0.960 . S
H234 C248 0.960 . S
H235 C248 0.960 1_556 S
C236 H228 0.929 . S
C236 C237 1.377 1_554 S
C236 C238 1.384 . S
C237 C236 1.377 1_556 S
C237 C243 1.390 . S
C238 H229 0.930 . S
C238 C236 1.384 . S
C238 C239 1.372 1_554 S
C239 C238 1.372 1_556 S
C239 C240 1.400 . S
C239 C244 1.490 . S
C240 H230 0.930 . S
C240 C239 1.400 . S
C240 C243 1.386 . S
H241 C257 0.930 . S
H242 C258 0.931 . S
C243 H231 0.929 . S
C243 C237 1.390 . S
C243 C240 1.386 . S
C244 C239 1.490 . S
C244 C246 1.395 . S
C244 C247 1.404 1_556 S
H245 C251 0.930 . S
C246 H232 0.930 . S
C246 C244 1.395 . S
C246 C249 1.403 . S
C247 C244 1.404 1_554 S
C247 C248 1.525 . S
C247 C251 1.398 1_554 S
C248 H233 0.960 . S
C248 H234 0.960 . S
C248 H235 0.960 1_554 S
C248 C247 1.525 . S
C249 C246 1.403 . S
C249 C250 1.392 . S
C249 C253 1.495 . S
C250 C249 1.392 . S
C250 C251 1.385 . S
C250 C252 1.478 . S
C251 H245 0.930 . S
C251 C247 1.398 1_556 S
C251 C250 1.385 . S
C252 C250 1.478 . S
C252 C254 1.381 1_556 S
C252 C258 1.383 . S
C253 C249 1.495 . S
C253 H259 0.959 . S
C253 H260 0.961 . S
C253 H261 0.960 1_556 S
C254 C252 1.381 1_554 S
C254 C255 1.394 . S
C254 H262 0.930 . S
C255 C254 1.394 . S
C255 C256 1.383 1_554 S
C255 H263 0.929 . S
C256 C255 1.383 1_556 S
C256 C257 1.377 . S
C257 H241 0.930 . S
C257 C256 1.377 . S
C257 C258 1.379 . S
C258 H242 0.931 . S
C258 C252 1.383 . S
C258 C257 1.379 . S
H259 C253 0.959 . S
H260 C253 0.961 . S
H261 C253 0.960 1_554 S
H262 C254 0.930 . S
H263 C255 0.929 . S
H264 C272 0.929 . S
H265 C274 0.930 . S
H266 C276 0.930 . S
H267 C279 0.929 . S
H268 C282 0.930 . S
H269 C284 0.960 . S
H270 C284 0.960 . S
H271 C284 0.960 . S
C272 H264 0.929 . S
C272 C273 1.377 1_556 S
C272 C274 1.384 . S
C273 C272 1.377 1_554 S
C273 C279 1.390 . S
C274 H265 0.930 . S
C274 C272 1.384 . S
C274 C275 1.371 . S
C275 C274 1.371 . S
C275 C276 1.400 1_556 S
C275 C280 1.490 . S
C276 H266 0.930 . S
C276 C275 1.400 1_554 S
C276 C279 1.386 . S
H277 C293 0.930 . S
H278 C294 0.931 . S
C279 H267 0.929 . S
C279 C273 1.390 . S
C279 C276 1.386 . S
C280 C275 1.490 . S
C280 C282 1.395 . S
C280 C283 1.403 1_556 S
H281 C287 0.930 . S
C282 H268 0.930 . S
C282 C280 1.395 . S
C282 C285 1.403 . S
C283 C280 1.403 1_554 S
C283 C284 1.524 . S
C283 C287 1.400 . S
C284 H269 0.960 . S
C284 H270 0.960 . S
C284 H271 0.960 . S
C284 C283 1.524 . S
C285 C282 1.403 . S
C285 C286 1.392 . S
C285 C289 1.495 . S
C286 C285 1.392 . S
C286 C287 1.385 1_556 S
C286 C288 1.478 . S
C287 H281 0.930 . S
C287 C283 1.400 . S
C287 C286 1.385 1_554 S
C288 C286 1.478 . S
C288 C290 1.381 . S
C288 C294 1.383 1_556 S
C289 C285 1.495 . S
C289 H295 0.959 . S
C289 H296 0.961 . S
C289 H297 0.960 . S
C290 C288 1.381 . S
C290 C291 1.394 . S
C290 H298 0.930 . S
C291 C290 1.394 . S
C291 C292 1.383 . S
C291 H299 0.929 . S
C292 C291 1.383 . S
C292 C293 1.377 1_556 S
C293 H277 0.930 . S
C293 C292 1.377 1_554 S
C293 C294 1.379 . S
C294 H278 0.931 . S
C294 C288 1.383 1_554 S
C294 C293 1.379 . S
H295 C289 0.959 . S
H296 C289 0.961 . S
H297 C289 0.960 . S
H298 C290 0.930 . S
H299 C291 0.929 . S
H300 C308 0.929 . S
H301 C310 0.930 . S
H302 C312 0.930 . S
H303 C315 0.929 . S
H304 C318 0.930 . S
H305 C320 0.960 . S
H306 C320 0.960 . S
H307 C320 0.960 . S
C308 H300 0.929 . S
C308 C309 1.377 . S
C308 C310 1.384 . S
C309 C308 1.377 . S
C309 C315 1.390 1_554 S
C310 H301 0.930 . S
C310 C308 1.384 . S
C310 C311 1.372 . S
C311 C310 1.372 . S
C311 C312 1.400 1_554 S
C311 C316 1.490 . S
C312 H302 0.930 . S
C312 C311 1.400 1_556 S
C312 C315 1.386 . S
H313 C329 0.930 . S
H314 C330 0.931 . S
C315 H303 0.929 . S
C315 C309 1.390 1_556 S
C315 C312 1.386 . S
C316 C311 1.490 . S
C316 C318 1.395 . S
C316 C319 1.403 1_554 S
H317 C323 0.930 . S
C318 H304 0.930 . S
C318 C316 1.395 . S
C318 C321 1.403 . S
C319 C316 1.403 1_556 S
C319 C320 1.524 . S
C319 C323 1.400 . S
C320 H305 0.960 . S
C320 H306 0.960 . S
C320 H307 0.960 . S
C320 C319 1.524 . S
C321 C318 1.403 . S
C321 C322 1.392 . S
C321 C325 1.495 . S
C322 C321 1.392 . S
C322 C323 1.385 1_554 S
C322 C324 1.478 . S
C323 H317 0.930 . S
C323 C319 1.400 . S
C323 C322 1.385 1_556 S
C324 C322 1.478 . S
C324 C326 1.381 . S
C324 C330 1.383 1_554 S
C325 C321 1.495 . S
C325 H331 0.959 . S
C325 H332 0.961 . S
C325 H333 0.960 . S
C326 C324 1.381 . S
C326 C327 1.394 . S
C326 H334 0.930 . S
C327 C326 1.394 . S
C327 C328 1.383 . S
C327 H335 0.929 . S
C328 C327 1.383 . S
C328 C329 1.377 1_554 S
C329 H313 0.930 . S
C329 C328 1.377 1_556 S
C329 C330 1.379 . S
C330 H314 0.931 . S
C330 C324 1.383 1_556 S
C330 C329 1.379 . S
H331 C325 0.959 . S
H332 C325 0.961 . S
H333 C325 0.960 . S
H334 C326 0.930 . S
H335 C327 0.929 . S
H336 C344 0.929 . S
H337 C346 0.930 . S
H338 C348 0.930 . S
H339 C351 0.929 . S
H340 C354 0.930 . S
H341 C356 0.960 . S
H342 C356 0.960 . S
H343 C356 0.960 . S
C344 H336 0.929 . S
C344 C345 1.377 . S
C344 C346 1.384 . S
C345 C344 1.377 . S
C345 C351 1.390 1_554 S
C346 H337 0.930 . S
C346 C344 1.384 . S
C346 C347 1.372 . S
C347 C346 1.372 . S
C347 C348 1.400 1_554 S
C347 C352 1.490 . S
C348 H338 0.930 . S
C348 C347 1.400 1_556 S
C348 C351 1.386 . S
H349 C365 0.930 . S
H350 C366 0.931 . S
C351 H339 0.929 . S
C351 C345 1.390 1_556 S
C351 C348 1.386 . S
C352 C347 1.490 . S
C352 C354 1.395 1_554 S
C352 C355 1.403 . S
H353 C359 0.930 . S
C354 H340 0.930 . S
C354 C352 1.395 1_556 S
C354 C357 1.403 . S
C355 C352 1.403 . S
C355 C356 1.524 . S
C355 C359 1.400 . S
C356 H341 0.960 . S
C356 H342 0.960 . S
C356 H343 0.960 . S
C356 C355 1.524 . S
C357 C354 1.403 . S
C357 C358 1.387 1_556 S
C357 C361 1.495 . S
C358 C357 1.387 1_554 S
C358 C359 1.389 . S
C358 C360 1.479 1_554 S
C359 H353 0.930 . S
C359 C355 1.400 . S
C359 C358 1.389 . S
C360 C358 1.479 1_556 S
C360 C362 1.381 1_556 S
C360 C366 1.383 . S
C361 C357 1.495 . S
C361 H367 0.959 . S
C361 H368 0.961 . S
C361 H369 0.960 . S
C362 C360 1.381 1_554 S
C362 C363 1.394 . S
C362 H370 0.930 . S
C363 C362 1.394 . S
C363 C364 1.383 . S
C363 H371 0.929 . S
C364 C363 1.383 . S
C364 C365 1.377 1_554 S
C365 H349 0.930 . S
C365 C364 1.377 1_556 S
C365 C366 1.379 . S
C366 H350 0.931 . S
C366 C360 1.383 . S
C366 C365 1.379 . S
H367 C361 0.959 . S
H368 C361 0.961 . S
H369 C361 0.960 . S
H370 C362 0.930 . S
H371 C363 0.929 . S
H372 C380 0.929 . S
H373 C382 0.930 . S
H374 C384 0.930 . S
H375 C387 0.929 . S
H376 C390 0.930 . S
H377 C392 0.960 . S
H378 C392 0.960 . S
H379 C392 0.960 1_556 S
C380 H372 0.929 . S
C380 C381 1.377 . S
C380 C382 1.384 . S
C381 C380 1.377 . S
C381 C387 1.390 1_554 S
C382 H373 0.930 . S
C382 C380 1.384 . S
C382 C383 1.372 . S
C383 C382 1.372 . S
C383 C384 1.400 1_554 S
C383 C388 1.490 . S
C384 H374 0.930 . S
C384 C383 1.400 1_556 S
C384 C387 1.386 . S
H385 C401 0.930 . S
H386 C402 0.931 . S
C387 H375 0.929 . S
C387 C381 1.390 1_556 S
C387 C384 1.386 . S
C388 C383 1.490 . S
C388 C390 1.395 . S
C388 C391 1.403 . S
H389 C395 0.931 . S
C390 H376 0.930 . S
C390 C388 1.395 . S
C390 C393 1.403 . S
C391 C388 1.403 . S
C391 C392 1.524 . S
C391 C395 1.400 . S
C392 H377 0.960 . S
C392 H378 0.960 . S
C392 H379 0.960 1_554 S
C392 C391 1.524 . S
C393 C390 1.403 . S
C393 C394 1.392 . S
C393 C397 1.495 . S
C394 C393 1.392 . S
C394 C395 1.385 . S
C394 C396 1.478 1_554 S
C395 H389 0.931 . S
C395 C391 1.400 . S
C395 C394 1.385 . S
C396 C394 1.478 1_556 S
C396 C398 1.381 1_556 S
C396 C402 1.383 . S
C397 C393 1.495 . S
C397 H403 0.959 . S
C397 H404 0.961 1_554 S
C397 H405 0.960 . S
C398 C396 1.381 1_554 S
C398 C399 1.394 . S
C398 H406 0.930 . S
C399 C398 1.394 . S
C399 C400 1.383 1_554 S
C399 H407 0.929 . S
C400 C399 1.383 1_556 S
C400 C401 1.377 . S
C401 H385 0.930 . S
C401 C400 1.377 . S
C401 C402 1.379 . S
C402 H386 0.931 . S
C402 C396 1.383 . S
C402 C401 1.379 . S
H403 C397 0.959 . S
H404 C397 0.961 1_556 S
H405 C397 0.960 . S
H406 C398 0.930 . S
H407 C399 0.929 . S
H408 C416 0.929 . S
H409 C418 0.930 . S
H410 C420 0.930 . S
H411 C423 0.929 . S
H412 C426 0.930 . S
H413 C428 0.960 . S
H414 C428 0.960 . S
H415 C428 0.960 . S
C416 H408 0.929 . S
C416 C417 1.377 1_554 S
C416 C418 1.384 . S
C417 C416 1.377 1_556 S
C417 C423 1.390 . S
C418 H409 0.930 . S
C418 C416 1.384 . S
C418 C419 1.372 1_554 S
C419 C418 1.372 1_556 S
C419 C420 1.400 . S
C419 C424 1.490 . S
C420 H410 0.930 . S
C420 C419 1.400 . S
C420 C423 1.386 . S
H421 C437 0.930 . S
H422 C438 0.931 . S
C423 H411 0.929 . S
C423 C417 1.390 . S
C423 C420 1.386 . S
C424 C419 1.490 . S
C424 C426 1.395 . S
C424 C427 1.403 1_556 S
H425 C431 0.930 . S
C426 H412 0.930 . S
C426 C424 1.395 . S
C426 C429 1.403 . S
C427 C424 1.403 1_554 S
C427 C428 1.524 . S
C427 C431 1.400 . S
C428 H413 0.960 . S
C428 H414 0.960 . S
C428 H415 0.960 . S
C428 C427 1.524 . S
C429 C426 1.403 . S
C429 C430 1.392 . S
C429 C433 1.495 . S
C430 C429 1.392 . S
C430 C431 1.385 1_556 S
C430 C432 1.478 . S
C431 H425 0.930 . S
C431 C427 1.400 . S
C431 C430 1.385 1_554 S
C432 C430 1.478 . S
C432 C434 1.381 1_556 S
C432 C438 1.383 . S
C433 C429 1.495 . S
C433 H439 0.959 . S
C433 H440 0.961 . S
C433 H441 0.960 . S
C434 C432 1.381 1_554 S
C434 C435 1.394 . S
C434 H442 0.930 . S
C435 C434 1.394 . S
C435 C436 1.383 1_554 S
C435 H443 0.929 . S
C436 C435 1.383 1_556 S
C436 C437 1.377 . S
C437 H421 0.930 . S
C437 C436 1.377 . S
C437 C438 1.379 . S
C438 H422 0.931 . S
C438 C432 1.383 . S
C438 C437 1.379 . S
H439 C433 0.959 . S
H440 C433 0.961 . S
H441 C433 0.960 . S
H442 C434 0.930 . S
H443 C435 0.929 . S
C129 C2 1.461 1_455 S
C148 C23 1.463 . S
C165 C63 1.470 1_565 S
C184 C42 1.455 1_545 S
C201 C103 1.466 . S
C220 C82 1.458 . S
C237 C25 0.700 . S
C256 C105 0.698 . S
C273 C65 1.692 . S
C292 C20 1.682 . S
C309 C60 2.475 . S
C328 C111 2.491 . S
C345 C4 0.702 . S
C364 C84 0.695 . S
C381 C31 1.693 . S
C400 C44 1.702 . S
C417 C100 2.489 . S
C436 C71 2.468 . S
