# Generated by pormake.
# Topology zni, (4)-cn, num edge types: 1
# Building blocks:
#     Node 0, Type 0, BuildingBlock: ICAMEG_clean_sbu_1, # of connection points: 4
#     Node 1, Type 0, BuildingBlock: ICAMEG_clean_sbu_1, # of connection points: 4
#     Node 2, Type 0, BuildingBlock: ICAMEG_clean_sbu_1, # of connection points: 4
#     Node 3, Type 0, BuildingBlock: ICAMEG_clean_sbu_1, # of connection points: 4
#     Node 4, Type 0, BuildingBlock: ICAMEG_clean_sbu_1, # of connection points: 4
#     Node 5, Type 0, BuildingBlock: ICAMEG_clean_sbu_1, # of connection points: 4
#     Node 6, Type 0, BuildingBlock: ICAMEG_clean_sbu_1, # of connection points: 4
#     Node 7, Type 0, BuildingBlock: ICAMEG_clean_sbu_1, # of connection points: 4
#     Node 8, Type 0, BuildingBlock: ICAMEG_clean_sbu_1, # of connection points: 4
#     Node 9, Type 0, BuildingBlock: ICAMEG_clean_sbu_1, # of connection points: 4
#     Node 10, Type 0, BuildingBlock: ICAMEG_clean_sbu_1, # of connection points: 4
#     Node 11, Type 0, BuildingBlock: ICAMEG_clean_sbu_1, # of connection points: 4
#     Node 12, Type 0, BuildingBlock: ICAMEG_clean_sbu_1, # of connection points: 4
#     Node 13, Type 0, BuildingBlock: ICAMEG_clean_sbu_1, # of connection points: 4
#     Node 14, Type 0, BuildingBlock: ICAMEG_clean_sbu_1, # of connection points: 4
#     Node 15, Type 0, BuildingBlock: ICAMEG_clean_sbu_1, # of connection points: 4
#     Node 16, Type 0, BuildingBlock: ICAMEG_clean_sbu_1, # of connection points: 4
#     Node 17, Type 0, BuildingBlock: ICAMEG_clean_sbu_1, # of connection points: 4
#     Node 18, Type 0, BuildingBlock: ICAMEG_clean_sbu_1, # of connection points: 4
#     Node 19, Type 0, BuildingBlock: ICAMEG_clean_sbu_1, # of connection points: 4
#     Node 20, Type 0, BuildingBlock: ICAMEG_clean_sbu_1, # of connection points: 4
#     Node 21, Type 0, BuildingBlock: ICAMEG_clean_sbu_1, # of connection points: 4
#     Node 22, Type 0, BuildingBlock: ICAMEG_clean_sbu_1, # of connection points: 4
#     Node 23, Type 0, BuildingBlock: ICAMEG_clean_sbu_1, # of connection points: 4
#     Node 24, Type 0, BuildingBlock: ICAMEG_clean_sbu_1, # of connection points: 4
#     Node 25, Type 0, BuildingBlock: ICAMEG_clean_sbu_1, # of connection points: 4
#     Node 26, Type 0, BuildingBlock: ICAMEG_clean_sbu_1, # of connection points: 4
#     Node 27, Type 0, BuildingBlock: ICAMEG_clean_sbu_1, # of connection points: 4
#     Node 28, Type 0, BuildingBlock: ICAMEG_clean_sbu_1, # of connection points: 4
#     Node 29, Type 0, BuildingBlock: ICAMEG_clean_sbu_1, # of connection points: 4
#     Node 30, Type 0, BuildingBlock: ICAMEG_clean_sbu_1, # of connection points: 4
#     Node 31, Type 0, BuildingBlock: ICAMEG_clean_sbu_1, # of connection points: 4
#     Edge 32, Type (0, 0), BuildingBlock: UVAHIK_clean_linker_0, # of connection points: 2
#     Edge 33, Type (0, 0), BuildingBlock: UVAHIK_clean_linker_0, # of connection points: 2
#     Edge 34, Type (0, 0), BuildingBlock: UVAHIK_clean_linker_0, # of connection points: 2
#     Edge 35, Type (0, 0), BuildingBlock: UVAHIK_clean_linker_0, # of connection points: 2
#     Edge 36, Type (0, 0), BuildingBlock: UVAHIK_clean_linker_0, # of connection points: 2
#     Edge 37, Type (0, 0), BuildingBlock: UVAHIK_clean_linker_0, # of connection points: 2
#     Edge 38, Type (0, 0), BuildingBlock: UVAHIK_clean_linker_0, # of connection points: 2
#     Edge 39, Type (0, 0), BuildingBlock: UVAHIK_clean_linker_0, # of connection points: 2
#     Edge 40, Type (0, 0), BuildingBlock: UVAHIK_clean_linker_0, # of connection points: 2
#     Edge 41, Type (0, 0), BuildingBlock: UVAHIK_clean_linker_0, # of connection points: 2
#     Edge 42, Type (0, 0), BuildingBlock: UVAHIK_clean_linker_0, # of connection points: 2
#     Edge 43, Type (0, 0), BuildingBlock: UVAHIK_clean_linker_0, # of connection points: 2
#     Edge 44, Type (0, 0), BuildingBlock: UVAHIK_clean_linker_0, # of connection points: 2
#     Edge 45, Type (0, 0), BuildingBlock: UVAHIK_clean_linker_0, # of connection points: 2
#     Edge 46, Type (0, 0), BuildingBlock: UVAHIK_clean_linker_0, # of connection points: 2
#     Edge 47, Type (0, 0), BuildingBlock: UVAHIK_clean_linker_0, # of connection points: 2
#     Edge 48, Type (0, 0), BuildingBlock: UVAHIK_clean_linker_0, # of connection points: 2
#     Edge 49, Type (0, 0), BuildingBlock: UVAHIK_clean_linker_0, # of connection points: 2
#     Edge 50, Type (0, 0), BuildingBlock: UVAHIK_clean_linker_0, # of connection points: 2
#     Edge 51, Type (0, 0), BuildingBlock: UVAHIK_clean_linker_0, # of connection points: 2
#     Edge 52, Type (0, 0), BuildingBlock: UVAHIK_clean_linker_0, # of connection points: 2
#     Edge 53, Type (0, 0), BuildingBlock: UVAHIK_clean_linker_0, # of connection points: 2
#     Edge 54, Type (0, 0), BuildingBlock: UVAHIK_clean_linker_0, # of connection points: 2
#     Edge 55, Type (0, 0), BuildingBlock: UVAHIK_clean_linker_0, # of connection points: 2
#     Edge 56, Type (0, 0), BuildingBlock: UVAHIK_clean_linker_0, # of connection points: 2
#     Edge 57, Type (0, 0), BuildingBlock: UVAHIK_clean_linker_0, # of connection points: 2
#     Edge 58, Type (0, 0), BuildingBlock: UVAHIK_clean_linker_0, # of connection points: 2
#     Edge 59, Type (0, 0), BuildingBlock: UVAHIK_clean_linker_0, # of connection points: 2
#     Edge 60, Type (0, 0), BuildingBlock: UVAHIK_clean_linker_0, # of connection points: 2
#     Edge 61, Type (0, 0), BuildingBlock: UVAHIK_clean_linker_0, # of connection points: 2
#     Edge 62, Type (0, 0), BuildingBlock: UVAHIK_clean_linker_0, # of connection points: 2
#     Edge 63, Type (0, 0), BuildingBlock: UVAHIK_clean_linker_0, # of connection points: 2
#     Edge 64, Type (0, 0), BuildingBlock: UVAHIK_clean_linker_0, # of connection points: 2
#     Edge 65, Type (0, 0), BuildingBlock: UVAHIK_clean_linker_0, # of connection points: 2
#     Edge 66, Type (0, 0), BuildingBlock: UVAHIK_clean_linker_0, # of connection points: 2
#     Edge 67, Type (0, 0), BuildingBlock: UVAHIK_clean_linker_0, # of connection points: 2
#     Edge 68, Type (0, 0), BuildingBlock: UVAHIK_clean_linker_0, # of connection points: 2
#     Edge 69, Type (0, 0), BuildingBlock: UVAHIK_clean_linker_0, # of connection points: 2
#     Edge 70, Type (0, 0), BuildingBlock: UVAHIK_clean_linker_0, # of connection points: 2
#     Edge 71, Type (0, 0), BuildingBlock: UVAHIK_clean_linker_0, # of connection points: 2
#     Edge 72, Type (0, 0), BuildingBlock: UVAHIK_clean_linker_0, # of connection points: 2
#     Edge 73, Type (0, 0), BuildingBlock: UVAHIK_clean_linker_0, # of connection points: 2
#     Edge 74, Type (0, 0), BuildingBlock: UVAHIK_clean_linker_0, # of connection points: 2
#     Edge 75, Type (0, 0), BuildingBlock: UVAHIK_clean_linker_0, # of connection points: 2
#     Edge 76, Type (0, 0), BuildingBlock: UVAHIK_clean_linker_0, # of connection points: 2
#     Edge 77, Type (0, 0), BuildingBlock: UVAHIK_clean_linker_0, # of connection points: 2
#     Edge 78, Type (0, 0), BuildingBlock: UVAHIK_clean_linker_0, # of connection points: 2
#     Edge 79, Type (0, 0), BuildingBlock: UVAHIK_clean_linker_0, # of connection points: 2
#     Edge 80, Type (0, 0), BuildingBlock: UVAHIK_clean_linker_0, # of connection points: 2
#     Edge 81, Type (0, 0), BuildingBlock: UVAHIK_clean_linker_0, # of connection points: 2
#     Edge 82, Type (0, 0), BuildingBlock: UVAHIK_clean_linker_0, # of connection points: 2
#     Edge 83, Type (0, 0), BuildingBlock: UVAHIK_clean_linker_0, # of connection points: 2
#     Edge 84, Type (0, 0), BuildingBlock: UVAHIK_clean_linker_0, # of connection points: 2
#     Edge 85, Type (0, 0), BuildingBlock: UVAHIK_clean_linker_0, # of connection points: 2
#     Edge 86, Type (0, 0), BuildingBlock: UVAHIK_clean_linker_0, # of connection points: 2
#     Edge 87, Type (0, 0), BuildingBlock: UVAHIK_clean_linker_0, # of connection points: 2
#     Edge 88, Type (0, 0), BuildingBlock: UVAHIK_clean_linker_0, # of connection points: 2
#     Edge 89, Type (0, 0), BuildingBlock: UVAHIK_clean_linker_0, # of connection points: 2
#     Edge 90, Type (0, 0), BuildingBlock: UVAHIK_clean_linker_0, # of connection points: 2
#     Edge 91, Type (0, 0), BuildingBlock: UVAHIK_clean_linker_0, # of connection points: 2
#     Edge 92, Type (0, 0), BuildingBlock: UVAHIK_clean_linker_0, # of connection points: 2
#     Edge 93, Type (0, 0), BuildingBlock: UVAHIK_clean_linker_0, # of connection points: 2
#     Edge 94, Type (0, 0), BuildingBlock: UVAHIK_clean_linker_0, # of connection points: 2
#     Edge 95, Type (0, 0), BuildingBlock: UVAHIK_clean_linker_0, # of connection points: 2
# Relax obj value: 0.259
# Max RMSD: 0.156
# Mean RMSD: 0.156
data_MOF--net-zni--node1-ICAMEG_clean_sbu_1--edge1-UVAHIK_clean_linker_0
_symmetry_space_group_name_H-M    P1
_symmetry_Int_Tables_number       1
_symmetry_cell_setting            triclinic
loop_
_symmetry_equiv_pos_as_xyz
'x, y, z'
_cell_length_a     84.23154
_cell_length_b     84.242641
_cell_length_c     35.469574
_cell_angle_alpha  89.992932
_cell_angle_beta   90.014481
_cell_angle_gamma 90.000374
loop_
_atom_site_label
_atom_site_type_symbol
_atom_site_fract_x
_atom_site_fract_y
_atom_site_fract_z
_atom_type_partial_charge
Co0 Co 0.07686 0.10559 0.43064 0.0
Co1 Co 0.10706 0.10521 0.36487 0.0
O2 O 0.08542 0.10047 0.38116 0.0
C3 C 0.0538 0.12139 0.3796 0.0
O4 O 0.06575 0.12818 0.36216 0.0
C5 C 0.10408 0.07067 0.35419 0.0
O6 O 0.09932 0.06996 0.38939 0.0
O7 O 0.11636 0.0961 0.41193 0.0
O8 O 0.0971 0.09919 0.45536 0.0
H9 H 0.16271 0.12606 0.37815 0.0
H10 H 0.05932 0.08392 0.37968 0.0
O11 O 0.05628 0.11194 0.407 0.0
H12 H 0.06976 0.05272 0.49469 0.0
H13 H 0.03421 0.10727 0.53003 0.0
H14 H 0.08932 0.1219 0.49848 0.0
H15 H 0.07844 0.08062 0.49019 0.0
H16 H 0.0455 0.10054 0.46789 0.0
O17 O 0.108 0.08395 0.33974 0.0
H18 H 0.13542 0.12031 0.3993 0.0
H19 H 0.12468 0.09949 0.29333 0.0
H20 H 0.07856 0.12874 0.5611 0.0
H21 H 0.0503 0.05609 0.38309 0.0
H22 H 0.05081 0.12141 0.57719 0.0
H23 H 0.05557 0.04028 0.44087 0.0
O24 O 0.08459 0.12792 0.42655 0.0
H25 H 0.07111 0.10639 0.25176 0.0
H26 H 0.11192 0.13559 0.32338 0.0
H27 H 0.10026 0.14773 0.26648 0.0
H28 H 0.07972 0.13308 0.23021 0.0
H29 H 0.08298 0.09474 0.309 0.0
H30 H 0.15189 0.1049 0.27107 0.0
H31 H 0.1711 0.11833 0.31357 0.0
O32 O 0.10635 0.12643 0.38978 0.0
C33 C 0.11114 0.09532 0.44565 0.0
C34 C 0.15444 0.12023 0.35933 0.0
C35 C 0.14837 0.10833 0.29926 0.0
N36 N 0.12845 0.10964 0.34756 0.0
C37 C 0.13896 0.11697 0.37115 0.0
C38 C 0.133 0.10526 0.31206 0.0
C39 C 0.15914 0.11588 0.32311 0.0
C40 C 0.06154 0.07715 0.40503 0.0
N41 N 0.06938 0.08388 0.43472 0.0
C42 C 0.05645 0.06138 0.40675 0.0
C43 C 0.05943 0.05251 0.43916 0.0
C44 C 0.0674 0.05948 0.46936 0.0
C45 C 0.07233 0.07527 0.46661 0.0
C46 C 0.04633 0.1105 0.52337 0.0
C47 C 0.07727 0.11859 0.50538 0.0
C48 C 0.05277 0.10676 0.4882 0.0
N49 N 0.06809 0.11073 0.47969 0.0
C50 C 0.07122 0.12253 0.54083 0.0
C51 C 0.05565 0.11843 0.54983 0.0
C52 C 0.09692 0.13401 0.41141 0.0
C53 C 0.08009 0.11286 0.26726 0.0
C54 C 0.10296 0.12916 0.3078 0.0
C55 C 0.09643 0.13608 0.27556 0.0
C56 C 0.08491 0.12785 0.25521 0.0
N57 N 0.09821 0.11443 0.31938 0.0
C58 C 0.0869 0.10631 0.29962 0.0
Co59 Co 0.14188 0.82241 0.68101 0.0
Co60 Co 0.14416 0.85297 0.61613 0.0
O61 O 0.14835 0.83118 0.63247 0.0
C62 C 0.12695 0.79992 0.62701 0.0
O63 O 0.12096 0.81207 0.60868 0.0
C64 C 0.1789 0.84941 0.61045 0.0
O65 O 0.17853 0.84301 0.64418 0.0
O66 O 0.15175 0.86194 0.66503 0.0
O67 O 0.14816 0.84231 0.70726 0.0
H68 H 0.12249 0.90831 0.62836 0.0
H69 H 0.16426 0.80463 0.63229 0.0
O70 O 0.13565 0.80212 0.65591 0.0
H71 H 0.19312 0.81379 0.75129 0.0
H72 H 0.13711 0.77922 0.77854 0.0
H73 H 0.12426 0.83478 0.74705 0.0
H74 H 0.16554 0.82309 0.74365 0.0
H75 H 0.14548 0.79074 0.71778 0.0
O76 O 0.16616 0.85437 0.59515 0.0
H77 H 0.12774 0.88085 0.64907 0.0
H78 H 0.15207 0.8713 0.54672 0.0
H79 H 0.11577 0.82378 0.80829 0.0
H80 H 0.19178 0.79499 0.63883 0.0
H81 H 0.1222 0.79581 0.82435 0.0
H82 H 0.20642 0.79962 0.69862 0.0
O83 O 0.11978 0.83061 0.67444 0.0
H84 H 0.14699 0.8178 0.50188 0.0
H85 H 0.11533 0.85815 0.56886 0.0
H86 H 0.10525 0.84688 0.50934 0.0
H87 H 0.12114 0.82657 0.47539 0.0
H88 H 0.15656 0.82928 0.56167 0.0
H89 H 0.1472 0.89869 0.52499 0.0
H90 H 0.13226 0.91738 0.56589 0.0
O91 O 0.12221 0.85186 0.63654 0.0
C92 C 0.15207 0.85645 0.69853 0.0
C93 C 0.129 0.90027 0.61026 0.0
C94 C 0.14288 0.89487 0.55227 0.0
N95 N 0.14016 0.87448 0.5991 0.0
C96 C 0.13198 0.8847 0.62182 0.0
C97 C 0.14565 0.87939 0.56477 0.0
C98 C 0.13449 0.90536 0.57522 0.0
C99 C 0.17051 0.80656 0.65851 0.0
N100 N 0.16331 0.81441 0.68755 0.0
C101 C 0.1861 0.80113 0.662 0.0
C102 C 0.19432 0.80375 0.69554 0.0
C103 C 0.18687 0.81171 0.72509 0.0
C104 C 0.17127 0.81699 0.72056 0.0
C105 C 0.13426 0.79143 0.77189 0.0
C106 C 0.12718 0.82263 0.75395 0.0
C107 C 0.13894 0.79801 0.7375 0.0
N108 N 0.13545 0.81345 0.72901 0.0
C109 C 0.1223 0.81645 0.78862 0.0
C110 C 0.1259 0.80075 0.79759 0.0
C111 C 0.11401 0.84265 0.65738 0.0
C112 C 0.13998 0.82667 0.51636 0.0
C113 C 0.1223 0.84929 0.55431 0.0
C114 C 0.11654 0.84297 0.52058 0.0
C115 C 0.12546 0.83158 0.50153 0.0
N116 N 0.13657 0.84444 0.56863 0.0
C117 C 0.14537 0.83326 0.55015 0.0
Co118 Co 0.42178 0.89419 0.93761 0.0
Co119 Co 0.39085 0.89474 0.87377 0.0
O120 O 0.41264 0.89954 0.88886 0.0
C121 C 0.44443 0.87887 0.88475 0.0
O122 O 0.43237 0.87201 0.86787 0.0
C123 C 0.39351 0.92936 0.8637 0.0
O124 O 0.39847 0.93004 0.89875 0.0
O125 O 0.38202 0.90357 0.92162 0.0
O126 O 0.40176 0.90026 0.96376 0.0
H127 H 0.33551 0.87345 0.88976 0.0
H128 H 0.43853 0.91635 0.88634 0.0
O129 O 0.44214 0.88818 0.91251 0.0
H130 H 0.42916 0.94671 0.00309 0.0
H131 H 0.46551 0.89225 0.03432 0.0
H132 H 0.41019 0.87735 0.00559 0.0
H133 H 0.42067 0.91876 0.99814 0.0
H134 H 0.45349 0.89928 0.97313 0.0
O135 O 0.38955 0.9161 0.84924 0.0
H136 H 0.36298 0.87928 0.90944 0.0
H137 H 0.37244 0.90071 0.80347 0.0
H138 H 0.4217 0.87021 0.06729 0.0
H139 H 0.44733 0.94423 0.89016 0.0
H140 H 0.44955 0.87767 0.08196 0.0
H141 H 0.4426 0.95962 0.94882 0.0
O142 O 0.41419 0.87182 0.93317 0.0
H143 H 0.42559 0.8943 0.75854 0.0
H144 H 0.38571 0.86453 0.83174 0.0
H145 H 0.39682 0.85273 0.77384 0.0
H146 H 0.41689 0.86767 0.73677 0.0
H147 H 0.41428 0.9056 0.81677 0.0
H148 H 0.34503 0.89522 0.78267 0.0
H149 H 0.32637 0.88144 0.82592 0.0
O150 O 0.39197 0.8734 0.89801 0.0
C151 C 0.3876 0.90414 0.95505 0.0
C152 C 0.34353 0.87943 0.87063 0.0
C153 C 0.34887 0.89167 0.81055 0.0
N154 N 0.36931 0.89026 0.85762 0.0
C155 C 0.35911 0.88274 0.88162 0.0
C156 C 0.36436 0.89479 0.82253 0.0
C157 C 0.33841 0.88393 0.83482 0.0
C158 C 0.43654 0.92294 0.91206 0.0
N159 N 0.42911 0.91594 0.94199 0.0
C160 C 0.44151 0.93873 0.91402 0.0
C161 C 0.43883 0.94737 0.94692 0.0
C162 C 0.43128 0.94013 0.97737 0.0
C163 C 0.42646 0.92432 0.97437 0.0
C164 C 0.45335 0.88896 0.02828 0.0
C165 C 0.42229 0.88072 0.01188 0.0
C166 C 0.44649 0.89287 0.99365 0.0
N167 N 0.43112 0.88882 0.98593 0.0
C168 C 0.42875 0.87661 0.04681 0.0
C169 C 0.44439 0.88078 0.05501 0.0
C170 C 0.40172 0.86574 0.91867 0.0
C171 C 0.41682 0.8877 0.77439 0.0
C172 C 0.39446 0.87109 0.81581 0.0
C173 C 0.40069 0.86436 0.78301 0.0
C174 C 0.41194 0.87275 0.76221 0.0
N175 N 0.39927 0.88578 0.82751 0.0
C176 C 0.41032 0.89407 0.80731 0.0
Co177 Co 0.35497 0.17634 0.17755 0.0
Co178 Co 0.35308 0.14345 0.12015 0.0
O179 O 0.34903 0.16585 0.13075 0.0
C180 C 0.36999 0.19763 0.12092 0.0
O181 O 0.37734 0.18532 0.10637 0.0
C182 C 0.31875 0.14748 0.10886 0.0
O183 O 0.3186 0.15441 0.14199 0.0
O184 O 0.34373 0.13674 0.16925 0.0
O185 O 0.34939 0.15714 0.20762 0.0
H186 H 0.37199 0.08819 0.14888 0.0
H187 H 0.33228 0.19193 0.12555 0.0
O188 O 0.36059 0.19591 0.14872 0.0
H189 H 0.30321 0.18551 0.24524 0.0
H190 H 0.35803 0.22276 0.26666 0.0
H191 H 0.37285 0.16681 0.24593 0.0
H192 H 0.33104 0.17676 0.23969 0.0
H193 H 0.35025 0.20899 0.20814 0.0
O194 O 0.33168 0.14191 0.09571 0.0
H195 H 0.36713 0.11649 0.16237 0.0
H196 H 0.34682 0.1227 0.05377 0.0
H197 H 0.38074 0.18008 0.30501 0.0
H198 H 0.30449 0.20098 0.12995 0.0
H199 H 0.37333 0.20827 0.31566 0.0
H200 H 0.28974 0.19773 0.19009 0.0
O201 O 0.3772 0.16854 0.17262 0.0
H202 H 0.35497 0.17386 0.99831 0.0
H203 H 0.38314 0.13568 0.07979 0.0
H204 H 0.39541 0.14421 0.02002 0.0
H205 H 0.38129 0.16342 0.97878 0.0
H206 H 0.34318 0.16511 0.05848 0.0
H207 H 0.35135 0.09442 0.03918 0.0
H208 H 0.36408 0.07698 0.08689 0.0
O209 O 0.3745 0.14474 0.1444 0.0
C210 C 0.34447 0.14303 0.20189 0.0
C211 C 0.36649 0.09568 0.12781 0.0
C212 C 0.35488 0.09917 0.06626 0.0
N213 N 0.35683 0.12126 0.10877 0.0
C214 C 0.36376 0.11173 0.13525 0.0
C215 C 0.35232 0.11516 0.0747 0.0
C216 C 0.36203 0.08939 0.09304 0.0
C217 C 0.32599 0.19062 0.15193 0.0
N218 N 0.33329 0.18385 0.18235 0.0
C219 C 0.31024 0.19571 0.15421 0.0
C220 C 0.30196 0.19386 0.18794 0.0
C221 C 0.3095 0.18699 0.21888 0.0
C222 C 0.32526 0.18201 0.21554 0.0
C223 C 0.36131 0.21047 0.26238 0.0
C224 C 0.36949 0.17904 0.25046 0.0
C225 C 0.35697 0.20262 0.22927 0.0
N226 N 0.36099 0.18707 0.22377 0.0
C227 C 0.37404 0.18651 0.28392 0.0
C228 C 0.36988 0.20233 0.28987 0.0
C229 C 0.38275 0.15524 0.16147 0.0
C230 C 0.36122 0.16545 0.01599 0.0
C231 C 0.37693 0.14407 0.06205 0.0
C232 C 0.38393 0.14883 0.0282 0.0
C233 C 0.37599 0.1596 0.00506 0.0
N234 N 0.36241 0.14982 0.0725 0.0
C235 C 0.35457 0.16041 0.05002 0.0
Co236 Co 0.07294 0.89101 0.06173 0.0
Co237 Co 0.10332 0.8928 0.12697 0.0
O238 O 0.08179 0.89757 0.11004 0.0
C239 C 0.05005 0.8772 0.1162 0.0
O240 O 0.06206 0.87087 0.13441 0.0
C241 C 0.1015 0.92779 0.13137 0.0
O242 O 0.09649 0.92774 0.09631 0.0
O243 O 0.11267 0.8999 0.07802 0.0
O244 O 0.09316 0.89636 0.03548 0.0
H245 H 0.15809 0.86955 0.11665 0.0
H246 H 0.05617 0.91444 0.10966 0.0
O247 O 0.05243 0.88567 0.087 0.0
H248 H 0.06567 0.94182 0.98887 0.0
H249 H 0.0297 0.88677 0.96417 0.0
H250 H 0.08486 0.87258 0.99644 0.0
H251 H 0.07406 0.91402 0.9978 0.0
H252 H 0.04142 0.89524 0.02466 0.0
O253 O 0.10511 0.91481 0.14765 0.0
H254 H 0.13087 0.87544 0.09515 0.0
H255 H 0.12159 0.90056 0.19658 0.0
H256 H 0.07366 0.86399 0.93548 0.0
H257 H 0.04742 0.94219 0.10188 0.0
H258 H 0.04589 0.87109 0.91903 0.0
H259 H 0.05222 0.95609 0.04117 0.0
O260 O 0.08039 0.86871 0.06926 0.0
H261 H 0.06775 0.89701 0.2403 0.0
H262 H 0.10755 0.86405 0.175 0.0
H263 H 0.09576 0.8545 0.23447 0.0
H264 H 0.07573 0.87105 0.26757 0.0
H265 H 0.07973 0.90604 0.1806 0.0
H266 H 0.14874 0.89504 0.21909 0.0
H267 H 0.16718 0.87938 0.17905 0.0
O268 O 0.10173 0.8708 0.107 0.0
C269 C 0.1074 0.89993 0.04426 0.0
C270 C 0.15016 0.87637 0.13438 0.0
C271 C 0.14492 0.89069 0.19185 0.0
N272 N 0.12464 0.88829 0.14461 0.0
C273 C 0.13473 0.87972 0.12237 0.0
C274 C 0.12957 0.89382 0.1789 0.0
C275 C 0.15526 0.8819 0.16938 0.0
C276 C 0.05821 0.92038 0.08308 0.0
N277 N 0.06568 0.91264 0.05424 0.0
C278 C 0.05327 0.9361 0.07888 0.0
C279 C 0.05598 0.9439 0.04483 0.0
C280 C 0.06354 0.93591 0.01549 0.0
C281 C 0.06834 0.92019 0.02074 0.0
C282 C 0.04183 0.88363 0.97099 0.0
C283 C 0.0728 0.8758 0.98936 0.0
C284 C 0.04851 0.88836 0.00523 0.0
N285 N 0.06385 0.88451 0.01392 0.0
C286 C 0.06651 0.87086 0.95486 0.0
C287 C 0.05092 0.87483 0.94567 0.0
C288 C 0.09229 0.86271 0.08646 0.0
C289 C 0.0765 0.88972 0.2262 0.0
C290 C 0.09881 0.8713 0.18918 0.0
C291 C 0.0922 0.86585 0.22289 0.0
C292 C 0.08097 0.87514 0.24146 0.0
N293 N 0.09439 0.88563 0.17443 0.0
C294 C 0.08337 0.89479 0.19245 0.0
Co295 Co 0.35966 0.82273 0.31995 0.0
Co296 Co 0.35724 0.85326 0.3847 0.0
O297 O 0.35291 0.83156 0.36819 0.0
C298 C 0.37363 0.7998 0.37448 0.0
O299 O 0.38014 0.81171 0.39269 0.0
C300 C 0.32245 0.85007 0.38944 0.0
O301 O 0.32291 0.84382 0.35555 0.0
O302 O 0.34993 0.86229 0.33566 0.0
O303 O 0.35409 0.84283 0.29338 0.0
H304 H 0.37943 0.90841 0.37297 0.0
H305 H 0.33638 0.80566 0.3677 0.0
O306 O 0.36515 0.8023 0.34536 0.0
H307 H 0.3091 0.81465 0.24655 0.0
H308 H 0.3647 0.77945 0.22274 0.0
H309 H 0.37813 0.8348 0.25488 0.0
H310 H 0.33677 0.82342 0.25571 0.0
H311 H 0.3559 0.79112 0.28299 0.0
O312 O 0.33517 0.85483 0.40517 0.0
H313 H 0.37406 0.881 0.35217 0.0
H314 H 0.34917 0.87166 0.45391 0.0
H315 H 0.38705 0.82364 0.19416 0.0
H316 H 0.30876 0.79653 0.35968 0.0
H317 H 0.38034 0.79577 0.17778 0.0
H318 H 0.2949 0.80109 0.29881 0.0
O319 O 0.38185 0.83049 0.32778 0.0
H320 H 0.35364 0.81806 0.49879 0.0
H321 H 0.38589 0.85822 0.43272 0.0
H322 H 0.39561 0.84686 0.49249 0.0
H323 H 0.37942 0.82665 0.52599 0.0
H324 H 0.34443 0.82964 0.43877 0.0
H325 H 0.35417 0.89902 0.47571 0.0
H326 H 0.36945 0.91759 0.43516 0.0
O327 O 0.37927 0.85198 0.36482 0.0
C328 C 0.35012 0.85699 0.30196 0.0
C329 C 0.37278 0.90043 0.39092 0.0
C330 C 0.35858 0.89516 0.44856 0.0
N331 N 0.36136 0.87473 0.40184 0.0
C332 C 0.36973 0.88489 0.37932 0.0
C333 C 0.35575 0.8797 0.43602 0.0
C334 C 0.36716 0.90557 0.4258 0.0
C335 C 0.33047 0.80758 0.34103 0.0
N336 N 0.33815 0.81515 0.31225 0.0
C337 C 0.31481 0.80243 0.3367 0.0
C338 C 0.30704 0.80501 0.30256 0.0
C339 C 0.31499 0.81264 0.27325 0.0
C340 C 0.33062 0.81766 0.27864 0.0
C341 C 0.36767 0.79161 0.22953 0.0
C342 C 0.37508 0.82269 0.24783 0.0
C343 C 0.36276 0.79828 0.26364 0.0
N344 N 0.3664 0.81366 0.2723 0.0
C345 C 0.3802 0.81643 0.21347 0.0
C346 C 0.37644 0.80078 0.20431 0.0
C347 C 0.38758 0.84258 0.34471 0.0
C348 C 0.36078 0.82689 0.48451 0.0
C349 C 0.37879 0.8494 0.44707 0.0
C350 C 0.38435 0.84303 0.48095 0.0
C351 C 0.37526 0.8317 0.49974 0.0
N352 N 0.36456 0.84466 0.43237 0.0
C353 C 0.35559 0.83353 0.45059 0.0
Co354 Co 0.42546 0.10578 0.56108 0.0
Co355 Co 0.39312 0.10415 0.62017 0.0
O356 O 0.41537 0.09992 0.6084 0.0
C357 C 0.44731 0.12088 0.61633 0.0
O358 O 0.43513 0.12828 0.63135 0.0
C359 C 0.39631 0.06966 0.63153 0.0
O360 O 0.40205 0.06897 0.59716 0.0
O361 O 0.38587 0.09472 0.57155 0.0
O362 O 0.40596 0.10023 0.53209 0.0
H363 H 0.33763 0.12317 0.59432 0.0
H364 H 0.44121 0.08302 0.61262 0.0
O365 O 0.44533 0.11136 0.58885 0.0
H366 H 0.43397 0.05396 0.49317 0.0
H367 H 0.4711 0.10859 0.46967 0.0
H368 H 0.41536 0.12356 0.49302 0.0
H369 H 0.42538 0.08183 0.49898 0.0
H370 H 0.45782 0.10091 0.52889 0.0
O371 O 0.3918 0.08289 0.64522 0.0
H372 H 0.36577 0.11815 0.57926 0.0
H373 H 0.37305 0.09822 0.68788 0.0
H374 H 0.42815 0.13135 0.43325 0.0
H375 H 0.45009 0.05519 0.60797 0.0
H376 H 0.45622 0.12386 0.42128 0.0
H377 H 0.44644 0.04045 0.54794 0.0
O378 O 0.41779 0.12806 0.56618 0.0
H379 H 0.42476 0.10633 0.74024 0.0
H380 H 0.38591 0.13439 0.66034 0.0
H381 H 0.39509 0.14684 0.71937 0.0
H382 H 0.41463 0.13277 0.75982 0.0
H383 H 0.41536 0.09438 0.68082 0.0
H384 H 0.34495 0.10292 0.70405 0.0
H385 H 0.32705 0.11553 0.65713 0.0
O386 O 0.39421 0.12544 0.59543 0.0
C387 C 0.39188 0.09539 0.53858 0.0
C388 C 0.34532 0.11772 0.61506 0.0
C389 C 0.34943 0.10633 0.67662 0.0
N390 N 0.37106 0.10803 0.63278 0.0
C391 C 0.36128 0.1149 0.60673 0.0
C392 C 0.36531 0.10367 0.66729 0.0
C393 C 0.33939 0.11341 0.65029 0.0
C394 C 0.4397 0.07672 0.58631 0.0
N395 N 0.43281 0.08405 0.55608 0.0
C396 C 0.4447 0.06095 0.58389 0.0
C397 C 0.44263 0.05268 0.55022 0.0
C398 C 0.43562 0.06025 0.51949 0.0
C399 C 0.43074 0.07602 0.52297 0.0
C400 C 0.45886 0.1119 0.47453 0.0
C401 C 0.42755 0.12017 0.48791 0.0
C402 C 0.45128 0.10762 0.50804 0.0
N403 N 0.43579 0.11169 0.51427 0.0
C404 C 0.43474 0.12465 0.45406 0.0
C405 C 0.4505 0.12046 0.44738 0.0
C406 C 0.40457 0.13363 0.57776 0.0
C407 C 0.41621 0.11256 0.72291 0.0
C408 C 0.39444 0.12821 0.67773 0.0
C409 C 0.39958 0.1353 0.71117 0.0
C410 C 0.41053 0.1274 0.73386 0.0
N411 N 0.40003 0.11363 0.66725 0.0
C412 C 0.4108 0.10582 0.6893 0.0
Co413 Co 0.14047 0.17536 0.80708 0.0
Co414 Co 0.14266 0.14473 0.87169 0.0
O415 O 0.14682 0.16659 0.85575 0.0
C416 C 0.12658 0.19818 0.86187 0.0
O417 O 0.12185 0.18616 0.88261 0.0
C418 C 0.17731 0.14848 0.87967 0.0
O419 O 0.17728 0.15473 0.84577 0.0
O420 O 0.15101 0.13595 0.82342 0.0
O421 O 0.14651 0.15526 0.78099 0.0
H422 H 0.12213 0.08902 0.85753 0.0
H423 H 0.16303 0.19276 0.85597 0.0
O424 O 0.13435 0.1958 0.83161 0.0
H425 H 0.19173 0.18381 0.73671 0.0
H426 H 0.13615 0.21826 0.70868 0.0
H427 H 0.12267 0.16298 0.74132 0.0
H428 H 0.16406 0.17477 0.74424 0.0
H429 H 0.14445 0.20686 0.76962 0.0
O430 O 0.1644 0.14361 0.89433 0.0
H431 H 0.12723 0.11656 0.8373 0.0
H432 H 0.14981 0.1265 0.94171 0.0
H433 H 0.11427 0.17386 0.67988 0.0
H434 H 0.19064 0.20215 0.8496 0.0
H435 H 0.12101 0.2017 0.66325 0.0
H436 H 0.2052 0.19762 0.78968 0.0
O437 O 0.11833 0.16748 0.81401 0.0
H438 H 0.14358 0.17959 0.98664 0.0
H439 H 0.11316 0.13926 0.91635 0.0
H440 H 0.10213 0.15032 0.97516 0.0
H441 H 0.11739 0.17062 0.01076 0.0
H442 H 0.1541 0.16833 0.92753 0.0
H443 H 0.14507 0.09903 0.96299 0.0
H444 H 0.13109 0.0801 0.92081 0.0
O445 O 0.12092 0.14545 0.8494 0.0
C446 C 0.15085 0.14123 0.78972 0.0
C447 C 0.1282 0.09717 0.87621 0.0
C448 C 0.1411 0.10278 0.93537 0.0
N449 N 0.13874 0.12315 0.88835 0.0
C450 C 0.13109 0.11279 0.86493 0.0
C451 C 0.14379 0.11831 0.92312 0.0
C452 C 0.13325 0.09217 0.9117 0.0
C453 C 0.16926 0.19085 0.82972 0.0
N454 N 0.16197 0.18315 0.80055 0.0
C455 C 0.1849 0.19615 0.82632 0.0
C456 C 0.19307 0.19358 0.79271 0.0
C457 C 0.18553 0.18581 0.763 0.0
C458 C 0.16989 0.18064 0.76747 0.0
C459 C 0.13316 0.20611 0.71558 0.0
C460 C 0.12572 0.17507 0.73417 0.0
C461 C 0.13779 0.1996 0.75009 0.0
N462 N 0.13413 0.18424 0.75891 0.0
C463 C 0.1209 0.18118 0.69939 0.0
C464 C 0.12467 0.19681 0.6901 0.0
C465 C 0.11271 0.15501 0.82946 0.0
C466 C 0.13684 0.17072 0.97144 0.0
C467 C 0.11986 0.14812 0.93163 0.0
C468 C 0.11357 0.15431 0.96495 0.0
C469 C 0.12214 0.16569 0.98493 0.0
N470 N 0.1343 0.15309 0.91862 0.0
C471 C 0.14277 0.16424 0.93804 0.0
Co472 Co 0.92647 0.89514 0.56471 0.0
Co473 Co 0.89516 0.89476 0.62728 0.0
O474 O 0.91695 0.89998 0.61333 0.0
C475 C 0.9489 0.8798 0.61788 0.0
O476 O 0.93675 0.8727 0.63382 0.0
C477 C 0.89728 0.92931 0.63961 0.0
O478 O 0.90247 0.93043 0.60481 0.0
O479 O 0.88658 0.90401 0.57963 0.0
O480 O 0.90646 0.90093 0.53795 0.0
H481 H 0.84023 0.87297 0.6075 0.0
H482 H 0.94242 0.91719 0.61762 0.0
O483 O 0.94676 0.88931 0.59042 0.0
H484 H 0.93347 0.94827 0.50172 0.0
H485 H 0.9709 0.89473 0.46975 0.0
H486 H 0.91567 0.87861 0.49553 0.0
H487 H 0.92545 0.92015 0.50513 0.0
H488 H 0.95833 0.90105 0.53074 0.0
O489 O 0.8934 0.91584 0.65308 0.0
H490 H 0.86777 0.87936 0.58941 0.0
H491 H 0.87613 0.89973 0.69709 0.0
H492 H 0.92773 0.87219 0.43401 0.0
H493 H 0.95076 0.94525 0.61537 0.0
H494 H 0.95554 0.88027 0.42082 0.0
H495 H 0.94624 0.961 0.55714 0.0
O496 O 0.91929 0.8726 0.56792 0.0
H497 H 0.92909 0.89349 0.74384 0.0
H498 H 0.89008 0.86405 0.66728 0.0
H499 H 0.90094 0.85176 0.72489 0.0
H500 H 0.92057 0.86653 0.76365 0.0
H501 H 0.91805 0.90528 0.68585 0.0
H502 H 0.84864 0.89368 0.71629 0.0
H503 H 0.8305 0.88015 0.67138 0.0
O504 O 0.89671 0.87368 0.60182 0.0
C505 C 0.89218 0.90459 0.54621 0.0
C506 C 0.84803 0.87884 0.62736 0.0
C507 C 0.85274 0.89048 0.68839 0.0
N508 N 0.87356 0.88984 0.6422 0.0
C509 C 0.86364 0.88245 0.61729 0.0
C510 C 0.86828 0.89392 0.67732 0.0
C511 C 0.84257 0.88288 0.66318 0.0
C512 C 0.94051 0.92394 0.59209 0.0
N513 N 0.93343 0.91705 0.56154 0.0
C514 C 0.94522 0.93984 0.59102 0.0
C515 C 0.94266 0.94867 0.55836 0.0
C516 C 0.93548 0.94154 0.52727 0.0
C517 C 0.9309 0.92563 0.5294 0.0
C518 C 0.95876 0.89117 0.47514 0.0
C519 C 0.92774 0.88225 0.48989 0.0
C520 C 0.95159 0.89468 0.50965 0.0
N521 N 0.93624 0.8903 0.51656 0.0
C522 C 0.93452 0.87854 0.45505 0.0
C523 C 0.95013 0.88306 0.44769 0.0
C524 C 0.90675 0.86628 0.58141 0.0
C525 C 0.92051 0.88696 0.72726 0.0
C526 C 0.89864 0.87054 0.68395 0.0
C527 C 0.90473 0.86353 0.71658 0.0
C528 C 0.91574 0.87182 0.73833 0.0
N529 N 0.90335 0.88541 0.67333 0.0
C530 C 0.91416 0.8936 0.69447 0.0
Co531 Co 0.85996 0.17782 0.3245 0.0
Co532 Co 0.85802 0.14769 0.39058 0.0
O533 O 0.85358 0.16929 0.37334 0.0
C534 C 0.87464 0.20076 0.37781 0.0
O535 O 0.88093 0.18879 0.39622 0.0
C536 C 0.82323 0.1508 0.3954 0.0
O537 O 0.82369 0.15694 0.3614 0.0
O538 O 0.85069 0.13828 0.34195 0.0
O539 O 0.85386 0.15768 0.29894 0.0
H540 H 0.88048 0.09258 0.38079 0.0
H541 H 0.83739 0.19565 0.37264 0.0
O542 O 0.86596 0.19831 0.34898 0.0
H543 H 0.80865 0.18553 0.25391 0.0
H544 H 0.86435 0.22048 0.22559 0.0
H545 H 0.87767 0.16522 0.25884 0.0
H546 H 0.83631 0.17654 0.26188 0.0
H547 H 0.85608 0.20924 0.28673 0.0
O548 O 0.83597 0.14614 0.41126 0.0
H549 H 0.87493 0.11982 0.35896 0.0
H550 H 0.85016 0.12972 0.46055 0.0
H551 H 0.88606 0.17594 0.19724 0.0
H552 H 0.80978 0.20498 0.36576 0.0
H553 H 0.87939 0.20377 0.1803 0.0
H554 H 0.7952 0.19987 0.30611 0.0
O555 O 0.88213 0.16986 0.3313 0.0
H556 H 0.85442 0.18363 0.50335 0.0
H557 H 0.88678 0.14322 0.4385 0.0
H558 H 0.89655 0.15505 0.49771 0.0
H559 H 0.88031 0.17539 0.53059 0.0
H560 H 0.84516 0.17158 0.4439 0.0
H561 H 0.85534 0.10255 0.48338 0.0
H562 H 0.87065 0.08379 0.44344 0.0
O563 O 0.88003 0.14897 0.37043 0.0
C564 C 0.85021 0.14354 0.30825 0.0
C565 C 0.87382 0.10065 0.39849 0.0
C566 C 0.85969 0.10624 0.45604 0.0
N567 N 0.86228 0.12636 0.4085 0.0
C568 C 0.87066 0.1161 0.38629 0.0
C569 C 0.85675 0.1216 0.44292 0.0
C570 C 0.86829 0.09572 0.43362 0.0
C571 C 0.83117 0.19351 0.34647 0.0
N572 N 0.83845 0.18556 0.31769 0.0
C573 C 0.81552 0.19877 0.34279 0.0
C574 C 0.80734 0.19588 0.30934 0.0
C575 C 0.81487 0.18782 0.28005 0.0
C576 C 0.83052 0.18271 0.28476 0.0
C577 C 0.8673 0.20833 0.23262 0.0
C578 C 0.87465 0.17731 0.25155 0.0
C579 C 0.86268 0.20191 0.26723 0.0
N580 N 0.86629 0.18655 0.2762 0.0
C581 C 0.87946 0.18333 0.21669 0.0
C582 C 0.87573 0.19895 0.20722 0.0
C583 C 0.88809 0.15808 0.34903 0.0
C584 C 0.86158 0.17474 0.48934 0.0
C585 C 0.87966 0.15209 0.45259 0.0
C586 C 0.88524 0.15872 0.48615 0.0
C587 C 0.87612 0.17013 0.50459 0.0
N588 N 0.86537 0.15664 0.43786 0.0
C589 C 0.85637 0.16784 0.45575 0.0
Co590 Co 0.56967 0.10702 0.05811 0.0
Co591 Co 0.60198 0.10434 0.11736 0.0
O592 O 0.57958 0.10051 0.10543 0.0
C593 C 0.54759 0.12072 0.11505 0.0
O594 O 0.55979 0.12593 0.13451 0.0
C595 C 0.59781 0.06989 0.12903 0.0
O596 O 0.59073 0.06947 0.09607 0.0
O597 O 0.60906 0.09502 0.06848 0.0
O598 O 0.58921 0.10152 0.02929 0.0
H599 H 0.65764 0.12284 0.09157 0.0
H600 H 0.55333 0.08404 0.10783 0.0
O601 O 0.54968 0.11268 0.0851 0.0
H602 H 0.56076 0.05595 0.98717 0.0
H603 H 0.52478 0.11109 0.96476 0.0
H604 H 0.58032 0.12566 0.99194 0.0
H605 H 0.56969 0.08364 0.99465 0.0
H606 H 0.53759 0.10255 0.02393 0.0
O607 O 0.60326 0.08294 0.14171 0.0
H608 H 0.62941 0.11824 0.07665 0.0
H609 H 0.6221 0.09788 0.18481 0.0
H610 H 0.56804 0.13431 0.93223 0.0
H611 H 0.54406 0.05639 0.10151 0.0
H612 H 0.54006 0.12703 0.91835 0.0
H613 H 0.54782 0.04214 0.04087 0.0
O614 O 0.57748 0.12915 0.06508 0.0
H615 H 0.57062 0.10606 0.23783 0.0
H616 H 0.60958 0.13426 0.15856 0.0
H617 H 0.60063 0.14641 0.21813 0.0
H618 H 0.58104 0.13227 0.25826 0.0
H619 H 0.57978 0.09441 0.17786 0.0
H620 H 0.65029 0.10214 0.20081 0.0
H621 H 0.66825 0.11476 0.15405 0.0
O622 O 0.60113 0.12583 0.0935 0.0
C623 C 0.60312 0.09621 0.03553 0.0
C624 C 0.64992 0.11738 0.11223 0.0
C625 C 0.6458 0.10574 0.17351 0.0
N626 N 0.6241 0.10791 0.12992 0.0
C627 C 0.63392 0.11479 0.10398 0.0
C628 C 0.62986 0.10332 0.16427 0.0
C629 C 0.65587 0.11283 0.14727 0.0
C630 C 0.55488 0.07796 0.08125 0.0
N631 N 0.56206 0.08545 0.05165 0.0
C632 C 0.54966 0.06228 0.07789 0.0
C633 C 0.55179 0.05429 0.04387 0.0
C634 C 0.55907 0.06202 0.01375 0.0
C635 C 0.56417 0.07769 0.01819 0.0
C636 C 0.53698 0.11433 0.97047 0.0
C637 C 0.56817 0.12238 0.986 0.0
C638 C 0.54428 0.10957 0.00398 0.0
N639 N 0.55971 0.11355 0.0113 0.0
C640 C 0.56127 0.12734 0.95219 0.0
C641 C 0.54557 0.12326 0.94443 0.0
C642 C 0.59079 0.13441 0.07686 0.0
C643 C 0.5792 0.11232 0.22064 0.0
C644 C 0.60101 0.12805 0.17579 0.0
C645 C 0.59602 0.13498 0.20954 0.0
C646 C 0.58503 0.12703 0.23206 0.0
N647 N 0.59526 0.1136 0.16482 0.0
C648 C 0.58448 0.10575 0.18673 0.0
Co649 Co 0.63863 0.82491 0.82454 0.0
Co650 Co 0.64007 0.85471 0.89147 0.0
O651 O 0.64485 0.83328 0.87365 0.0
C652 C 0.62426 0.80149 0.87709 0.0
O653 O 0.61764 0.81328 0.8955 0.0
C654 C 0.67489 0.85202 0.89672 0.0
O655 O 0.6746 0.84605 0.86255 0.0
O656 O 0.64736 0.86447 0.84321 0.0
O657 O 0.64437 0.84529 0.79958 0.0
H658 H 0.61689 0.90957 0.88301 0.0
H659 H 0.66148 0.80717 0.87217 0.0
O660 O 0.63298 0.80419 0.84848 0.0
H661 H 0.6901 0.81851 0.75392 0.0
H662 H 0.63502 0.78268 0.72443 0.0
H663 H 0.62073 0.83753 0.75916 0.0
H664 H 0.66228 0.82699 0.76209 0.0
H665 H 0.64305 0.79375 0.78593 0.0
O666 O 0.66205 0.85645 0.91248 0.0
H667 H 0.62285 0.88252 0.86047 0.0
H668 H 0.64755 0.87241 0.96206 0.0
H669 H 0.61257 0.82698 0.69723 0.0
H670 H 0.68924 0.79834 0.86507 0.0
H671 H 0.61972 0.79936 0.67954 0.0
H672 H 0.70376 0.80407 0.80566 0.0
O673 O 0.61632 0.83246 0.83149 0.0
H674 H 0.64394 0.81823 0.00321 0.0
H675 H 0.61116 0.85854 0.93914 0.0
H676 H 0.60144 0.84627 0.99788 0.0
H677 H 0.61789 0.82597 0.03037 0.0
H678 H 0.65315 0.83071 0.94424 0.0
H679 H 0.64197 0.89939 0.98561 0.0
H680 H 0.62648 0.91816 0.94602 0.0
O681 O 0.61814 0.85325 0.871 0.0
C682 C 0.64786 0.85941 0.80934 0.0
C683 C 0.62363 0.90149 0.90055 0.0
C684 C 0.63772 0.89579 0.95811 0.0
N685 N 0.63549 0.87589 0.90996 0.0
C686 C 0.62702 0.88616 0.88795 0.0
C687 C 0.64089 0.88054 0.94458 0.0
C688 C 0.62902 0.90631 0.93589 0.0
C689 C 0.66767 0.80957 0.8461 0.0
N690 N 0.66027 0.81757 0.81757 0.0
C691 C 0.68341 0.8046 0.8423 0.0
C692 C 0.69156 0.80783 0.80898 0.0
C693 C 0.6839 0.81595 0.77995 0.0
C694 C 0.66817 0.82076 0.78478 0.0
C695 C 0.63186 0.79474 0.73179 0.0
C696 C 0.62396 0.82554 0.75155 0.0
C697 C 0.63634 0.80106 0.7666 0.0
N698 N 0.63246 0.81631 0.77598 0.0
C699 C 0.61927 0.81961 0.7165 0.0
C700 C 0.62328 0.80411 0.70661 0.0
C701 C 0.6102 0.8441 0.8494 0.0
C702 C 0.63668 0.82709 0.98938 0.0
C703 C 0.61837 0.8497 0.95306 0.0
C704 C 0.61282 0.84281 0.98635 0.0
C705 C 0.62206 0.83143 0.00457 0.0
N706 N 0.63275 0.84541 0.93839 0.0
C707 C 0.64187 0.83424 0.95606 0.0
Co708 Co 0.9262 0.1051 0.94662 0.0
Co709 Co 0.89536 0.10385 0.88251 0.0
O710 O 0.9171 0.09907 0.89814 0.0
C711 C 0.94876 0.11893 0.89159 0.0
O712 O 0.93655 0.12404 0.87203 0.0
C713 C 0.89762 0.069 0.87426 0.0
O714 O 0.90267 0.06846 0.90926 0.0
O715 O 0.88644 0.09567 0.93092 0.0
O716 O 0.90607 0.09945 0.97298 0.0
H717 H 0.84022 0.12581 0.89713 0.0
H718 H 0.94281 0.08226 0.89694 0.0
O719 O 0.94664 0.11087 0.92154 0.0
H720 H 0.93371 0.05347 0.01605 0.0
H721 H 0.96964 0.10818 0.04392 0.0
H722 H 0.91448 0.1229 0.01307 0.0
H723 H 0.9253 0.08136 0.00911 0.0
H724 H 0.95778 0.10036 0.9831 0.0
O725 O 0.89382 0.08223 0.8594 0.0
H726 H 0.86764 0.11998 0.91715 0.0
H727 H 0.87686 0.09721 0.81261 0.0
H728 H 0.92582 0.13081 0.0744 0.0
H729 H 0.95157 0.05442 0.9027 0.0
H730 H 0.9536 0.12345 0.09013 0.0
H731 H 0.94697 0.03981 0.96256 0.0
O732 O 0.91877 0.12742 0.94033 0.0
H733 H 0.93006 0.10242 0.76728 0.0
H734 H 0.89051 0.13356 0.83825 0.0
H735 H 0.90175 0.14449 0.77953 0.0
H736 H 0.92166 0.12887 0.74359 0.0
H737 H 0.91864 0.09201 0.82631 0.0
H738 H 0.84949 0.10269 0.79153 0.0
H739 H 0.83098 0.11714 0.83388 0.0
O740 O 0.89664 0.12552 0.90504 0.0
C741 C 0.89187 0.09559 0.96453 0.0
C742 C 0.84818 0.11953 0.87838 0.0
C743 C 0.85338 0.10654 0.81914 0.0
N744 N 0.87386 0.10832 0.86604 0.0
C745 C 0.86373 0.11623 0.88955 0.0
C746 C 0.86884 0.10343 0.83128 0.0
C747 C 0.843 0.11465 0.84291 0.0
C748 C 0.94086 0.07601 0.92315 0.0
N749 N 0.9335 0.0834 0.95263 0.0
C750 C 0.94581 0.06023 0.92621 0.0
C751 C 0.94321 0.05204 0.95979 0.0
C752 C 0.93575 0.05969 0.98979 0.0
C753 C 0.93094 0.07546 0.98566 0.0
C754 C 0.95752 0.11144 0.03741 0.0
C755 C 0.92654 0.11957 0.01983 0.0
C756 C 0.95076 0.10709 0.00298 0.0
N757 N 0.93542 0.11109 0.99466 0.0
C758 C 0.93291 0.12412 0.05454 0.0
C759 C 0.94851 0.12 0.06333 0.0
C760 C 0.90643 0.13342 0.92506 0.0
C761 C 0.92136 0.10932 0.78263 0.0
C762 C 0.8992 0.12671 0.82282 0.0
C763 C 0.9055 0.13294 0.78955 0.0
C764 C 0.91666 0.12417 0.76938 0.0
N765 N 0.90385 0.11212 0.83561 0.0
C766 C 0.91479 0.10345 0.81599 0.0
Co767 Co 0.64 0.17911 0.67524 0.0
Co768 Co 0.64338 0.147 0.61555 0.0
O769 O 0.64727 0.16919 0.6287 0.0
C770 C 0.62653 0.2011 0.6178 0.0
O771 O 0.61955 0.18902 0.60128 0.0
C772 C 0.67808 0.15068 0.6106 0.0
O773 O 0.6774 0.1575 0.64383 0.0
O774 O 0.65095 0.13949 0.66579 0.0
O775 O 0.64491 0.1596 0.70473 0.0
H776 H 0.6227 0.09174 0.63621 0.0
H777 H 0.66397 0.19529 0.62766 0.0
O778 O 0.63509 0.19901 0.64696 0.0
H779 H 0.68985 0.18772 0.75108 0.0
H780 H 0.6344 0.22444 0.7668 0.0
H781 H 0.62043 0.16871 0.74016 0.0
H782 H 0.66225 0.17898 0.74087 0.0
H783 H 0.64377 0.21139 0.70867 0.0
O784 O 0.66548 0.1454 0.59521 0.0
H785 H 0.62747 0.11978 0.65272 0.0
H786 H 0.65166 0.127 0.54908 0.0
H787 H 0.61092 0.18125 0.79879 0.0
H788 H 0.69155 0.20435 0.63673 0.0
H789 H 0.61791 0.20932 0.81242 0.0
H790 H 0.7047 0.20052 0.69876 0.0
O791 O 0.61794 0.17131 0.66665 0.0
H792 H 0.6461 0.17917 0.49639 0.0
H793 H 0.61482 0.14012 0.56854 0.0
H794 H 0.6048 0.14966 0.50727 0.0
H795 H 0.6205 0.1693 0.4707 0.0
H796 H 0.65561 0.16942 0.55795 0.0
H797 H 0.64726 0.09899 0.53156 0.0
H798 H 0.63263 0.08118 0.57523 0.0
O799 O 0.62125 0.14833 0.63537 0.0
C800 C 0.64969 0.14547 0.69869 0.0
C801 C 0.62905 0.0994 0.6169 0.0
C802 C 0.64286 0.10346 0.55819 0.0
N803 N 0.63973 0.12503 0.60178 0.0
C804 C 0.63175 0.11529 0.62605 0.0
C805 C 0.64534 0.11929 0.56829 0.0
C806 C 0.63464 0.09348 0.5827 0.0
C807 C 0.66956 0.19372 0.65485 0.0
N808 N 0.66149 0.18662 0.68372 0.0
C809 C 0.6852 0.19882 0.65977 0.0
C810 C 0.69257 0.19664 0.69456 0.0
C811 C 0.68426 0.18945 0.72391 0.0
C812 C 0.66864 0.18447 0.71793 0.0
C813 C 0.6313 0.2122 0.76122 0.0
C814 C 0.6236 0.1809 0.74601 0.0
C815 C 0.63655 0.20475 0.72831 0.0
N816 N 0.63275 0.18926 0.72118 0.0
C817 C 0.61814 0.18795 0.7792 0.0
C818 C 0.62205 0.2037 0.7868 0.0
C819 C 0.61257 0.15844 0.65253 0.0
C820 C 0.63917 0.17058 0.51201 0.0
C821 C 0.6217 0.1487 0.55287 0.0
C822 C 0.61598 0.15403 0.51814 0.0
C823 C 0.6248 0.16505 0.49763 0.0
N824 N 0.63583 0.15415 0.56673 0.0
C825 C 0.64453 0.16497 0.54682 0.0
Co826 Co 0.57342 0.89735 0.44235 0.0
Co827 Co 0.60568 0.89768 0.3824 0.0
O828 O 0.58355 0.9024 0.39453 0.0
C829 C 0.55197 0.88153 0.3876 0.0
O830 O 0.5644 0.87459 0.37253 0.0
C831 C 0.60234 0.93209 0.37037 0.0
O832 O 0.59576 0.93261 0.40388 0.0
O833 O 0.61336 0.90686 0.43095 0.0
O834 O 0.59289 0.90351 0.4708 0.0
H835 H 0.6606 0.87667 0.40654 0.0
H836 H 0.55765 0.91905 0.38835 0.0
O837 O 0.55363 0.89113 0.41505 0.0
H838 H 0.56457 0.95034 0.50468 0.0
H839 H 0.5277 0.89601 0.53374 0.0
H840 H 0.58354 0.88092 0.51226 0.0
H841 H 0.57318 0.92238 0.50194 0.0
H842 H 0.541 0.90262 0.47381 0.0
O843 O 0.60753 0.91896 0.35747 0.0
H844 H 0.63268 0.8825 0.42227 0.0
H845 H 0.62574 0.90337 0.31455 0.0
H846 H 0.57076 0.87421 0.57276 0.0
H847 H 0.54873 0.94694 0.38991 0.0
H848 H 0.54263 0.88176 0.58379 0.0
H849 H 0.55225 0.9628 0.44834 0.0
O850 O 0.58112 0.87499 0.4396 0.0
H851 H 0.57362 0.89645 0.26287 0.0
H852 H 0.61195 0.8673 0.34198 0.0
H853 H 0.60225 0.85515 0.28307 0.0
H854 H 0.58297 0.86976 0.24303 0.0
H855 H 0.58353 0.90811 0.32215 0.0
H856 H 0.65362 0.89789 0.29771 0.0
H857 H 0.67124 0.88439 0.34384 0.0
O858 O 0.60404 0.87642 0.40707 0.0
C859 C 0.60723 0.90736 0.46383 0.0
C860 C 0.65303 0.88253 0.38616 0.0
C861 C 0.64912 0.89446 0.32511 0.0
N862 N 0.62758 0.8932 0.36932 0.0
C863 C 0.6372 0.88583 0.39489 0.0
C864 C 0.63336 0.89757 0.33484 0.0
C865 C 0.659 0.88687 0.351 0.0
C866 C 0.55909 0.92584 0.41398 0.0
N867 N 0.56595 0.91911 0.44502 0.0
C868 C 0.55407 0.94164 0.41466 0.0
C869 C 0.55607 0.95054 0.44743 0.0
C870 C 0.563 0.94356 0.47903 0.0
C871 C 0.56791 0.92775 0.47729 0.0
C872 C 0.53997 0.89268 0.5293 0.0
C873 C 0.57133 0.88434 0.51695 0.0
C874 C 0.54755 0.89636 0.49539 0.0
N875 N 0.56307 0.89227 0.48967 0.0
C876 C 0.56414 0.88046 0.55122 0.0
C877 C 0.54836 0.88469 0.55737 0.0
C878 C 0.59386 0.86883 0.42672 0.0
C879 C 0.58206 0.88998 0.28002 0.0
C880 C 0.60354 0.87373 0.32475 0.0
C881 C 0.59811 0.86679 0.29139 0.0
C882 C 0.5873 0.875 0.26893 0.0
N883 N 0.59839 0.88845 0.33538 0.0
C884 C 0.58776 0.89655 0.31354 0.0
Co885 Co 0.85606 0.82481 0.18479 0.0
Co886 Co 0.85402 0.85522 0.11942 0.0
O887 O 0.84952 0.83357 0.1363 0.0
C888 C 0.87065 0.80219 0.13073 0.0
O889 O 0.8768 0.81431 0.11261 0.0
C890 C 0.81918 0.85227 0.1153 0.0
O891 O 0.81972 0.84589 0.14904 0.0
O892 O 0.84703 0.86448 0.1685 0.0
O893 O 0.85012 0.84485 0.21096 0.0
H894 H 0.87697 0.91011 0.12972 0.0
H895 H 0.83333 0.80717 0.13666 0.0
O896 O 0.86198 0.80442 0.15966 0.0
H897 H 0.80494 0.81696 0.25599 0.0
H898 H 0.86067 0.78168 0.28248 0.0
H899 H 0.87401 0.83706 0.25048 0.0
H900 H 0.83259 0.82594 0.24776 0.0
H901 H 0.85224 0.79323 0.22178 0.0
O902 O 0.83188 0.85701 0.09942 0.0
H903 H 0.87134 0.88282 0.1511 0.0
H904 H 0.84587 0.87353 0.05014 0.0
H905 H 0.88257 0.82603 0.31165 0.0
H906 H 0.80572 0.79786 0.14378 0.0
H907 H 0.87589 0.79814 0.32796 0.0
H908 H 0.79132 0.8028 0.20374 0.0
O909 O 0.87823 0.83275 0.17782 0.0
H910 H 0.84954 0.81977 0.00595 0.0
H911 H 0.88253 0.8597 0.07073 0.0
H912 H 0.89189 0.84805 0.01095 0.0
H913 H 0.87532 0.82795 0.97811 0.0
H914 H 0.8407 0.83162 0.06596 0.0
H915 H 0.85112 0.90076 0.02777 0.0
H916 H 0.86682 0.91924 0.06763 0.0
O917 O 0.87611 0.8537 0.13887 0.0
C918 C 0.84662 0.85907 0.20208 0.0
C919 C 0.87013 0.90217 0.11207 0.0
C920 C 0.8556 0.89692 0.05487 0.0
N921 N 0.85833 0.87659 0.10186 0.0
C922 C 0.86693 0.8867 0.12401 0.0
C923 C 0.85263 0.88154 0.06774 0.0
C924 C 0.86442 0.90728 0.07724 0.0
C925 C 0.82718 0.80923 0.16296 0.0
N926 N 0.83456 0.81708 0.19177 0.0
C927 C 0.81154 0.80399 0.16678 0.0
C928 C 0.80346 0.80678 0.20041 0.0
C929 C 0.81108 0.81474 0.22972 0.0
C930 C 0.82673 0.81984 0.22486 0.0
C931 C 0.86362 0.79385 0.27573 0.0
C932 C 0.87098 0.82495 0.2575 0.0
C933 C 0.85891 0.80045 0.24137 0.0
N934 N 0.86253 0.81584 0.23275 0.0
C935 C 0.8759 0.81875 0.29212 0.0
C936 C 0.87216 0.8031 0.30124 0.0
C937 C 0.88419 0.84451 0.16004 0.0
C938 C 0.85684 0.82855 0.01994 0.0
C939 C 0.87527 0.85093 0.05666 0.0
C940 C 0.88062 0.8444 0.02278 0.0
C941 C 0.87132 0.83313 0.00436 0.0
N942 N 0.86104 0.84641 0.07172 0.0
C943 C 0.85187 0.83535 0.05386 0.0
Co944 Co 0.57708 0.60585 0.93963 0.0
Co945 Co 0.60891 0.60506 0.87863 0.0
O946 O 0.58702 0.59993 0.8921 0.0
C947 C 0.55448 0.61973 0.88446 0.0
O948 O 0.5664 0.62712 0.86828 0.0
C949 C 0.6072 0.57023 0.8697 0.0
O950 O 0.60168 0.56952 0.90428 0.0
O951 O 0.61713 0.59688 0.92782 0.0
O952 O 0.59693 0.6011 0.96787 0.0
H953 H 0.66338 0.62777 0.89929 0.0
H954 H 0.56184 0.58224 0.88944 0.0
O955 O 0.55686 0.61062 0.91254 0.0
H956 H 0.5705 0.55428 0.00985 0.0
H957 H 0.53206 0.60792 0.03287 0.0
H958 H 0.58713 0.6244 0.00653 0.0
H959 H 0.5781 0.58238 0.00273 0.0
H960 H 0.54513 0.60023 0.97339 0.0
O961 O 0.61116 0.58353 0.85548 0.0
H962 H 0.63571 0.62145 0.91638 0.0
H963 H 0.62874 0.5989 0.81057 0.0
H964 H 0.57456 0.63222 0.06653 0.0
H965 H 0.55392 0.55416 0.89538 0.0
H966 H 0.54683 0.62397 0.08 0.0
H967 H 0.5583 0.53997 0.95589 0.0
O968 O 0.58397 0.62838 0.93342 0.0
H969 H 0.57593 0.60338 0.76056 0.0
H970 H 0.61428 0.63475 0.83458 0.0
H971 H 0.60387 0.64557 0.7749 0.0
H972 H 0.58458 0.62982 0.73739 0.0
H973 H 0.58652 0.59307 0.82058 0.0
H974 H 0.65638 0.60486 0.79243 0.0
H975 H 0.67388 0.61945 0.8369 0.0
O976 O 0.60682 0.62668 0.90092 0.0
C977 C 0.61125 0.59717 0.96097 0.0
C978 C 0.65586 0.62144 0.87963 0.0
C979 C 0.65194 0.60856 0.81968 0.0
N980 N 0.6306 0.6099 0.86442 0.0
C981 C 0.64017 0.61786 0.88912 0.0
C982 C 0.63631 0.60518 0.83014 0.0
C983 C 0.66175 0.61676 0.84464 0.0
C984 C 0.56368 0.57618 0.91595 0.0
N985 N 0.57045 0.58394 0.94571 0.0
C986 C 0.55921 0.56026 0.91911 0.0
C987 C 0.56169 0.55231 0.95305 0.0
C988 C 0.56855 0.56032 0.98332 0.0
C989 C 0.57289 0.57622 0.9791 0.0
C990 C 0.54416 0.61156 0.02736 0.0
C991 C 0.57509 0.62068 0.0123 0.0
C992 C 0.55161 0.60727 0.99369 0.0
N993 N 0.56692 0.61176 0.98664 0.0
C994 C 0.56802 0.62518 0.04627 0.0
C995 C 0.55245 0.62056 0.05379 0.0
C996 C 0.59646 0.63458 0.91931 0.0
C997 C 0.58436 0.61033 0.7766 0.0
C998 C 0.60585 0.62785 0.81851 0.0
C999 C 0.60002 0.63402 0.78468 0.0
C1000 C 0.5892 0.62518 0.76364 0.0
N1001 N 0.60107 0.61326 0.831 0.0
C1002 C 0.59044 0.60453 0.81055 0.0
Co1003 Co 0.64208 0.32164 0.18508 0.0
Co1004 Co 0.64529 0.3512 0.11774 0.0
O1005 O 0.64908 0.32961 0.13608 0.0
C1006 C 0.62794 0.29876 0.13105 0.0
O1007 O 0.62376 0.31078 0.1097 0.0
C1008 C 0.6801 0.34708 0.113 0.0
O1009 O 0.6796 0.34095 0.14701 0.0
O1010 O 0.65269 0.36075 0.16619 0.0
O1011 O 0.64853 0.34186 0.20989 0.0
H1012 H 0.62429 0.40695 0.12495 0.0
H1013 H 0.66448 0.30298 0.13842 0.0
O1014 O 0.63553 0.3011 0.16159 0.0
H1015 H 0.69257 0.31269 0.2582 0.0
H1016 H 0.6358 0.2801 0.28613 0.0
H1017 H 0.62422 0.33535 0.24923 0.0
H1018 H 0.66522 0.32238 0.24883 0.0
H1019 H 0.64485 0.29051 0.22478 0.0
O1020 O 0.66743 0.35207 0.09739 0.0
H1021 H 0.62903 0.37972 0.14792 0.0
H1022 H 0.65384 0.36847 0.04718 0.0
H1023 H 0.61508 0.32547 0.31102 0.0
H1024 H 0.69177 0.29291 0.14666 0.0
H1025 H 0.62087 0.29766 0.3298 0.0
H1026 H 0.70602 0.29782 0.20685 0.0
O1027 O 0.62019 0.33006 0.17687 0.0
H1028 H 0.64849 0.3144 0.00649 0.0
H1029 H 0.61686 0.35606 0.06886 0.0
H1030 H 0.60706 0.34404 0.0099 0.0
H1031 H 0.62293 0.32306 0.97828 0.0
H1032 H 0.65779 0.32664 0.06568 0.0
H1033 H 0.64948 0.39561 0.02323 0.0
H1034 H 0.63456 0.41505 0.06218 0.0
O1035 O 0.62313 0.35067 0.13727 0.0
C1036 C 0.65266 0.35584 0.20023 0.0
C1037 C 0.63079 0.39858 0.10769 0.0
C1038 C 0.64494 0.39222 0.05063 0.0
N1039 N 0.64166 0.37251 0.09888 0.0
C1040 C 0.63348 0.38314 0.12052 0.0
C1041 C 0.64742 0.37689 0.06439 0.0
C1042 C 0.63656 0.40312 0.07248 0.0
C1043 C 0.67057 0.30506 0.16478 0.0
N1044 N 0.6633 0.31333 0.19306 0.0
C1045 C 0.68603 0.29937 0.16925 0.0
C1046 C 0.69403 0.30215 0.203 0.0
C1047 C 0.6865 0.31051 0.23181 0.0
C1048 C 0.67105 0.31605 0.22629 0.0
C1049 C 0.63323 0.29225 0.27829 0.0
C1050 C 0.62686 0.32326 0.25732 0.0
C1051 C 0.63828 0.2982 0.24355 0.0
N1052 N 0.63515 0.31355 0.23356 0.0
C1053 C 0.62162 0.31772 0.29228 0.0
C1054 C 0.62486 0.30211 0.30279 0.0
C1055 C 0.61466 0.34186 0.15848 0.0
C1056 C 0.64149 0.32356 0.01995 0.0
C1057 C 0.62382 0.34691 0.05533 0.0
C1058 C 0.61822 0.34018 0.0219 0.0
C1059 C 0.62714 0.32841 0.00416 0.0
N1060 N 0.63792 0.34211 0.07062 0.0
C1061 C 0.64673 0.33058 0.05338 0.0
Co1062 Co 0.92406 0.39589 0.44165 0.0
Co1063 Co 0.89375 0.39658 0.37611 0.0
O1064 O 0.91523 0.40174 0.39281 0.0
C1065 C 0.94725 0.38151 0.38887 0.0
O1066 O 0.93537 0.3747 0.37119 0.0
C1067 C 0.89568 0.43146 0.36838 0.0
O1068 O 0.90054 0.432 0.40354 0.0
O1069 O 0.88426 0.40433 0.42441 0.0
O1070 O 0.90373 0.40128 0.46725 0.0
H1071 H 0.83914 0.37304 0.38769 0.0
H1072 H 0.94063 0.41893 0.39231 0.0
O1073 O 0.94469 0.39051 0.41706 0.0
H1074 H 0.93051 0.44767 0.511 0.0
H1075 H 0.9671 0.39338 0.54002 0.0
H1076 H 0.91221 0.3781 0.50801 0.0
H1077 H 0.92251 0.41966 0.50394 0.0
H1078 H 0.95543 0.40098 0.47883 0.0
O1079 O 0.89192 0.41825 0.35344 0.0
H1080 H 0.86628 0.37942 0.40896 0.0
H1081 H 0.87553 0.40327 0.30579 0.0
H1082 H 0.92336 0.37039 0.56968 0.0
H1083 H 0.94898 0.44689 0.39821 0.0
H1084 H 0.951 0.37804 0.586 0.0
H1085 H 0.94386 0.46147 0.45785 0.0
O1086 O 0.91688 0.37342 0.43552 0.0
H1087 H 0.92953 0.39925 0.26289 0.0
H1088 H 0.8897 0.36714 0.33042 0.0
H1089 H 0.90162 0.35677 0.27191 0.0
H1090 H 0.92167 0.37289 0.23767 0.0
H1091 H 0.91742 0.4091 0.32168 0.0
H1092 H 0.84845 0.39725 0.28348 0.0
H1093 H 0.83007 0.38198 0.32451 0.0
O1094 O 0.89545 0.37488 0.39792 0.0
C1095 C 0.88948 0.4047 0.45821 0.0
C1096 C 0.84705 0.37969 0.36953 0.0
C1097 C 0.85227 0.3933 0.31107 0.0
N1098 N 0.87248 0.39169 0.35865 0.0
C1099 C 0.86243 0.38332 0.38142 0.0
C1100 C 0.86757 0.39672 0.32391 0.0
C1101 C 0.84196 0.38472 0.3341 0.0
C1102 C 0.93845 0.42517 0.41843 0.0
N1103 N 0.93103 0.41769 0.44772 0.0
C1104 C 0.94317 0.44101 0.42157 0.0
C1105 C 0.94028 0.44919 0.45502 0.0
C1106 C 0.93277 0.44146 0.48484 0.0
C1107 C 0.92819 0.42562 0.48064 0.0
C1108 C 0.95503 0.39001 0.53326 0.0
C1109 C 0.92421 0.38156 0.51503 0.0
C1110 C 0.94838 0.39424 0.49862 0.0
N1111 N 0.93311 0.39009 0.49 0.0
C1112 C 0.93048 0.37712 0.54993 0.0
C1113 C 0.94599 0.3814 0.55905 0.0
C1114 C 0.90501 0.36712 0.41883 0.0
C1115 C 0.92078 0.39213 0.27749 0.0
C1116 C 0.89845 0.3742 0.31576 0.0
C1117 C 0.90513 0.36828 0.28259 0.0
C1118 C 0.91638 0.37733 0.26339 0.0
N1119 N 0.9028 0.38875 0.32937 0.0
C1120 C 0.91383 0.39767 0.31073 0.0
Co1121 Co 0.85849 0.68072 0.68974 0.0
Co1122 Co 0.85327 0.64863 0.63091 0.0
O1123 O 0.85083 0.6712 0.643 0.0
C1124 C 0.87258 0.70205 0.63166 0.0
O1125 O 0.87687 0.6896 0.61183 0.0
C1126 C 0.81898 0.6548 0.62171 0.0
O1127 O 0.81939 0.66175 0.65482 0.0
O1128 O 0.84422 0.64207 0.68052 0.0
O1129 O 0.85233 0.66153 0.71908 0.0
H1130 H 0.86901 0.59204 0.65557 0.0
H1131 H 0.83576 0.69829 0.64173 0.0
O1132 O 0.86485 0.70037 0.66223 0.0
H1133 H 0.80895 0.69237 0.76448 0.0
H1134 H 0.86624 0.72532 0.78253 0.0
H1135 H 0.87744 0.66909 0.75447 0.0
H1136 H 0.83601 0.68196 0.75495 0.0
H1137 H 0.85622 0.713 0.7241 0.0
O1138 O 0.83151 0.64857 0.60813 0.0
H1139 H 0.86619 0.62047 0.67068 0.0
H1140 H 0.84479 0.62889 0.5641 0.0
H1141 H 0.88755 0.68088 0.81344 0.0
H1142 H 0.80875 0.70904 0.6501 0.0
H1143 H 0.88196 0.7092 0.82776 0.0
H1144 H 0.79514 0.70605 0.7118 0.0
O1145 O 0.88003 0.67174 0.68107 0.0
H1146 H 0.85515 0.67987 0.51026 0.0
H1147 H 0.88214 0.63934 0.58746 0.0
H1148 H 0.89397 0.6476 0.52698 0.0
H1149 H 0.88043 0.66799 0.48788 0.0
H1150 H 0.84381 0.67137 0.5711 0.0
H1151 H 0.84727 0.60051 0.54794 0.0
H1152 H 0.85951 0.58189 0.5938 0.0
O1153 O 0.87513 0.64829 0.65307 0.0
C1154 C 0.84615 0.64794 0.71334 0.0
C1155 C 0.8637 0.60004 0.6353 0.0
C1156 C 0.85148 0.6048 0.57491 0.0
N1157 N 0.85544 0.62634 0.6182 0.0
C1158 C 0.86211 0.61616 0.64366 0.0
C1159 C 0.85007 0.62084 0.58425 0.0
C1160 C 0.85835 0.59435 0.60065 0.0
C1161 C 0.82997 0.69707 0.66876 0.0
N1162 N 0.83745 0.68949 0.69781 0.0
C1163 C 0.81465 0.70313 0.67329 0.0
C1164 C 0.80701 0.70142 0.70789 0.0
C1165 C 0.81475 0.69373 0.73745 0.0
C1166 C 0.83005 0.6878 0.73185 0.0
C1167 C 0.86873 0.71296 0.77663 0.0
C1168 C 0.8749 0.68139 0.76061 0.0
C1169 C 0.86314 0.70593 0.74353 0.0
N1170 N 0.86618 0.69032 0.73598 0.0
C1171 C 0.88068 0.68802 0.794 0.0
C1172 C 0.87755 0.70391 0.802 0.0
C1173 C 0.88447 0.65821 0.66884 0.0
C1174 C 0.86113 0.67094 0.52699 0.0
C1175 C 0.8762 0.64826 0.57068 0.0
C1176 C 0.88294 0.65286 0.53641 0.0
C1177 C 0.87533 0.66429 0.51448 0.0
N1178 N 0.86225 0.65482 0.58273 0.0
C1179 C 0.85473 0.66604 0.56139 0.0
Co1180 Co 0.57895 0.39655 0.556 0.0
Co1181 Co 0.60857 0.39644 0.6234 0.0
O1182 O 0.58727 0.40184 0.60572 0.0
C1183 C 0.55531 0.38156 0.60658 0.0
O1184 O 0.56707 0.37473 0.62466 0.0
C1185 C 0.60692 0.43126 0.63284 0.0
O1186 O 0.60238 0.43217 0.59749 0.0
O1187 O 0.6186 0.40466 0.57618 0.0
O1188 O 0.5995 0.40232 0.53205 0.0
H1189 H 0.66328 0.37297 0.6137 0.0
H1190 H 0.56155 0.41893 0.60544 0.0
O1191 O 0.55807 0.39081 0.57896 0.0
H1192 H 0.57359 0.44918 0.4899 0.0
H1193 H 0.53701 0.39524 0.45486 0.0
H1194 H 0.59154 0.37955 0.48924 0.0
H1195 H 0.58159 0.42113 0.49573 0.0
H1196 H 0.548 0.40209 0.51725 0.0
O1197 O 0.61026 0.41785 0.6474 0.0
H1198 H 0.6364 0.37967 0.59112 0.0
H1199 H 0.62598 0.40222 0.69528 0.0
H1200 H 0.58107 0.37258 0.42641 0.0
H1201 H 0.5532 0.44693 0.6007 0.0
H1202 H 0.55362 0.38044 0.4089 0.0
H1203 H 0.55926 0.46226 0.54264 0.0
O1204 O 0.5861 0.37402 0.56104 0.0
H1205 H 0.57165 0.39807 0.73467 0.0
H1206 H 0.61195 0.36645 0.66739 0.0
H1207 H 0.59937 0.35551 0.72451 0.0
H1208 H 0.57908 0.37137 0.75862 0.0
H1209 H 0.58443 0.4085 0.67724 0.0
H1210 H 0.65278 0.39587 0.71892 0.0
H1211 H 0.67162 0.38109 0.67805 0.0
O1212 O 0.60706 0.375 0.60019 0.0
C1213 C 0.61363 0.4056 0.54225 0.0
C1214 C 0.65517 0.3794 0.63179 0.0
C1215 C 0.64929 0.39227 0.69083 0.0
N1216 N 0.62963 0.39129 0.64187 0.0
C1217 C 0.63993 0.38321 0.61917 0.0
C1218 C 0.63415 0.39588 0.67725 0.0
C1219 C 0.65985 0.38397 0.66789 0.0
C1220 C 0.56412 0.4255 0.57998 0.0
N1221 N 0.57203 0.4184 0.55088 0.0
C1222 C 0.55941 0.44136 0.5775 0.0
C1223 C 0.56283 0.44996 0.54494 0.0
C1224 C 0.57088 0.44263 0.51534 0.0
C1225 C 0.57542 0.42676 0.51884 0.0
C1226 C 0.549 0.39177 0.46214 0.0
C1227 C 0.57961 0.38309 0.48172 0.0
C1228 C 0.55527 0.39559 0.49745 0.0
N1229 N 0.57044 0.39132 0.50674 0.0
C1230 C 0.57374 0.37907 0.44615 0.0
C1231 C 0.55833 0.38347 0.43636 0.0
C1232 C 0.59777 0.36751 0.57808 0.0
C1233 C 0.58051 0.39106 0.72012 0.0
C1234 C 0.60311 0.37341 0.682 0.0
C1235 C 0.59604 0.36717 0.71438 0.0
C1236 C 0.58467 0.37608 0.73351 0.0
N1237 N 0.599 0.38814 0.66909 0.0
C1238 C 0.58783 0.39693 0.68766 0.0
Co1239 Co 0.86132 0.32199 0.81655 0.0
Co1240 Co 0.85813 0.35137 0.88439 0.0
O1241 O 0.85447 0.32976 0.86587 0.0
C1242 C 0.87578 0.29904 0.87004 0.0
O1243 O 0.87971 0.31098 0.89192 0.0
C1244 C 0.8234 0.34685 0.89015 0.0
O1245 O 0.82378 0.34075 0.85611 0.0
O1246 O 0.85035 0.36095 0.8363 0.0
O1247 O 0.85446 0.34215 0.79229 0.0
H1248 H 0.87843 0.40738 0.87727 0.0
H1249 H 0.83942 0.3027 0.86317 0.0
O1250 O 0.86824 0.30146 0.83946 0.0
H1251 H 0.81048 0.31308 0.74483 0.0
H1252 H 0.86752 0.28084 0.71461 0.0
H1253 H 0.87873 0.33608 0.75217 0.0
H1254 H 0.83774 0.32309 0.75374 0.0
H1255 H 0.85866 0.29096 0.77638 0.0
O1256 O 0.83609 0.35195 0.90543 0.0
H1257 H 0.87382 0.38017 0.85403 0.0
H1258 H 0.84984 0.36833 0.95551 0.0
H1259 H 0.88768 0.32649 0.68998 0.0
H1260 H 0.81222 0.29234 0.85534 0.0
H1261 H 0.88208 0.29868 0.67087 0.0
H1262 H 0.79755 0.29758 0.79588 0.0
O1263 O 0.88315 0.33063 0.82431 0.0
H1264 H 0.85591 0.3143 0.99531 0.0
H1265 H 0.8868 0.35638 0.93238 0.0
H1266 H 0.89706 0.34432 0.99086 0.0
H1267 H 0.88156 0.32314 0.02277 0.0
H1268 H 0.84616 0.32658 0.93658 0.0
H1269 H 0.85406 0.39545 0.97974 0.0
H1270 H 0.86851 0.41517 0.94057 0.0
O1271 O 0.88018 0.35114 0.86416 0.0
C1272 C 0.85014 0.35601 0.80233 0.0
C1273 C 0.87214 0.39889 0.89463 0.0
C1274 C 0.85845 0.3922 0.95213 0.0
N1275 N 0.86163 0.37266 0.90343 0.0
C1276 C 0.86952 0.38346 0.88164 0.0
C1277 C 0.85605 0.37687 0.93821 0.0
C1278 C 0.86656 0.40325 0.93014 0.0
C1279 C 0.83316 0.3049 0.83709 0.0
N1280 N 0.84016 0.31348 0.80894 0.0
C1281 C 0.81774 0.29906 0.83287 0.0
C1282 C 0.80951 0.30202 0.79952 0.0
C1283 C 0.81675 0.31073 0.77088 0.0
C1284 C 0.83217 0.31641 0.77613 0.0
C1285 C 0.87001 0.29299 0.72259 0.0
C1286 C 0.87617 0.32399 0.74394 0.0
C1287 C 0.86506 0.29877 0.75757 0.0
N1288 N 0.86809 0.31413 0.76774 0.0
C1289 C 0.8813 0.31862 0.70874 0.0
C1290 C 0.87817 0.30301 0.69806 0.0
C1291 C 0.88864 0.34245 0.84264 0.0
C1292 C 0.86275 0.32356 0.98173 0.0
C1293 C 0.88001 0.34714 0.94602 0.0
C1294 C 0.88586 0.34038 0.97919 0.0
C1295 C 0.87716 0.3285 0.99709 0.0
N1296 N 0.86586 0.34224 0.93115 0.0
C1297 C 0.85726 0.3306 0.94855 0.0
Co1298 Co 0.92842 0.60958 0.06407 0.0
Co1299 Co 0.89807 0.60671 0.12901 0.0
O1300 O 0.91984 0.60262 0.11245 0.0
C1301 C 0.95157 0.62275 0.11891 0.0
O1302 O 0.93964 0.62762 0.13971 0.0
C1303 C 0.901 0.5718 0.13615 0.0
O1304 O 0.90581 0.57137 0.10095 0.0
O1305 O 0.88911 0.59861 0.08048 0.0
O1306 O 0.90815 0.60419 0.03821 0.0
H1307 H 0.84231 0.6272 0.11623 0.0
H1308 H 0.94582 0.58617 0.11063 0.0
O1309 O 0.94904 0.61512 0.08851 0.0
H1310 H 0.93572 0.55916 0.98966 0.0
H1311 H 0.97084 0.61463 0.96476 0.0
H1312 H 0.91594 0.62847 1.00011 0.0
H1313 H 0.92703 0.58679 0.9996 0.0
H1314 H 0.95963 0.60567 0.02537 0.0
O1315 O 0.89715 0.58494 0.15131 0.0
H1316 H 0.8698 0.62221 0.09543 0.0
H1317 H 0.88007 0.59922 0.19919 0.0
H1318 H 0.92661 0.63755 0.93904 0.0
H1319 H 0.95487 0.55857 0.10184 0.0
H1320 H 0.95426 0.63064 0.92104 0.0
H1321 H 0.94978 0.54486 0.04103 0.0
O1322 O 0.92077 0.6317 0.07279 0.0
H1323 H 0.93357 0.60522 0.2429 0.0
H1324 H 0.89258 0.63581 0.17521 0.0
H1325 H 0.90388 0.64648 0.23411 0.0
H1326 H 0.92451 0.63114 0.26842 0.0
H1327 H 0.92207 0.59506 0.18369 0.0
H1328 H 0.85265 0.60386 0.22101 0.0
H1329 H 0.83358 0.618 0.17945 0.0
O1330 O 0.89874 0.62859 0.10769 0.0
C1331 C 0.89421 0.5995 0.04666 0.0
C1332 C 0.85052 0.62107 0.13464 0.0
C1333 C 0.85632 0.60794 0.19343 0.0
N1334 N 0.87655 0.61052 0.14615 0.0
C1335 C 0.86611 0.61824 0.12305 0.0
C1336 C 0.87181 0.60532 0.18088 0.0
C1337 C 0.84563 0.61588 0.1701 0.0
C1338 C 0.94366 0.58032 0.08401 0.0
N1339 N 0.93588 0.58808 0.05567 0.0
C1340 C 0.94877 0.56467 0.07923 0.0
C1341 C 0.94589 0.55698 0.04512 0.0
C1342 C 0.93799 0.56499 0.01631 0.0
C1343 C 0.93303 0.58062 0.02214 0.0
C1344 C 0.95877 0.61771 0.97226 0.0
C1345 C 0.92795 0.62534 0.99237 0.0
C1346 C 0.95238 0.6127 0.00659 0.0
N1347 N 0.93712 0.61647 0.01616 0.0
C1348 C 0.93394 0.63055 0.9578 0.0
C1349 C 0.94946 0.62668 0.94774 0.0
C1350 C 0.90831 0.63715 0.08865 0.0
C1351 C 0.92456 0.612 0.22826 0.0
C1352 C 0.9016 0.62908 0.18988 0.0
C1353 C 0.90792 0.63517 0.22328 0.0
C1354 C 0.91949 0.62655 0.24253 0.0
N1355 N 0.90662 0.61479 0.17606 0.0
C1356 C 0.91795 0.60627 0.19479 0.0
Co1357 Co 0.63886 0.68197 0.32093 0.0
Co1358 Co 0.64358 0.65008 0.38058 0.0
O1359 O 0.64622 0.6726 0.36813 0.0
C1360 C 0.62494 0.70372 0.37838 0.0
O1361 O 0.62063 0.69144 0.39874 0.0
C1362 C 0.67784 0.65606 0.3909 0.0
O1363 O 0.67768 0.66289 0.35763 0.0
O1364 O 0.65297 0.64334 0.3315 0.0
O1365 O 0.64498 0.66259 0.29223 0.0
H1366 H 0.6278 0.59348 0.35628 0.0
H1367 H 0.66154 0.69957 0.36899 0.0
O1368 O 0.63256 0.70181 0.34774 0.0
H1369 H 0.68879 0.69283 0.24703 0.0
H1370 H 0.63186 0.72621 0.22682 0.0
H1371 H 0.62007 0.6702 0.25606 0.0
H1372 H 0.66161 0.68269 0.25622 0.0
H1373 H 0.64153 0.71407 0.28579 0.0
O1374 O 0.66518 0.65 0.40422 0.0
H1375 H 0.63086 0.62186 0.34077 0.0
H1376 H 0.65147 0.63053 0.44811 0.0
H1377 H 0.6103 0.68181 0.19656 0.0
H1378 H 0.68868 0.71005 0.36095 0.0
H1379 H 0.61618 0.71002 0.18164 0.0
H1380 H 0.70251 0.70664 0.29964 0.0
O1381 O 0.6172 0.67323 0.32933 0.0
H1382 H 0.64104 0.68166 0.50064 0.0
H1383 H 0.61434 0.64109 0.42301 0.0
H1384 H 0.60214 0.64958 0.48289 0.0
H1385 H 0.61553 0.66999 0.5222 0.0
H1386 H 0.65275 0.67294 0.44037 0.0
H1387 H 0.64875 0.60221 0.46468 0.0
H1388 H 0.63678 0.58349 0.41864 0.0
O1389 O 0.62187 0.64977 0.35752 0.0
C1390 C 0.65118 0.64905 0.29849 0.0
C1391 C 0.63298 0.60153 0.37663 0.0
C1392 C 0.64476 0.60643 0.43745 0.0
N1393 N 0.64122 0.62785 0.39362 0.0
C1394 C 0.6347 0.61762 0.36805 0.0
C1395 C 0.6463 0.62244 0.42788 0.0
C1396 C 0.63804 0.59593 0.41161 0.0
C1397 C 0.66743 0.69817 0.34213 0.0
N1398 N 0.66 0.69052 0.31311 0.0
C1399 C 0.68282 0.70408 0.33779 0.0
C1400 C 0.69058 0.70214 0.3034 0.0
C1401 C 0.6829 0.69437 0.27389 0.0
C1402 C 0.66753 0.68859 0.2793 0.0
C1403 C 0.62924 0.7139 0.23297 0.0
C1404 C 0.62275 0.68246 0.24966 0.0
C1405 C 0.63464 0.70698 0.26637 0.0
N1406 N 0.63144 0.69142 0.27426 0.0
C1407 C 0.61716 0.68898 0.21597 0.0
C1408 C 0.62045 0.70481 0.20764 0.0
C1409 C 0.61264 0.65971 0.34145 0.0
C1410 C 0.63512 0.67273 0.48381 0.0
C1411 C 0.62022 0.65002 0.43988 0.0
C1412 C 0.61327 0.65475 0.47381 0.0
C1413 C 0.62079 0.66619 0.49587 0.0
N1414 N 0.63428 0.65647 0.42827 0.0
C1415 C 0.64172 0.6677 0.44973 0.0
Co1416 Co 0.42563 0.39098 0.06109 0.0
Co1417 Co 0.39538 0.39251 0.12679 0.0
O1418 O 0.41707 0.39701 0.11013 0.0
C1419 C 0.44877 0.37626 0.11381 0.0
O1420 O 0.43684 0.36976 0.13199 0.0
C1421 C 0.39886 0.42713 0.13492 0.0
O1422 O 0.40495 0.42718 0.10086 0.0
O1423 O 0.38614 0.40078 0.07883 0.0
O1424 O 0.40539 0.39692 0.03575 0.0
H1425 H 0.33998 0.37102 0.1143 0.0
H1426 H 0.44344 0.41347 0.10948 0.0
O1427 O 0.44624 0.3851 0.08531 0.0
H1428 H 0.43233 0.44279 0.99207 0.0
H1429 H 0.46821 0.38767 0.96177 0.0
H1430 H 0.41319 0.37338 0.99506 0.0
H1431 H 0.42369 0.415 0.99935 0.0
H1432 H 0.45693 0.39548 0.02322 0.0
O1433 O 0.39407 0.41419 0.14958 0.0
H1434 H 0.36729 0.37668 0.09316 0.0
H1435 H 0.37746 0.39926 0.19745 0.0
H1436 H 0.42394 0.36545 0.93316 0.0
H1437 H 0.45243 0.44121 0.10325 0.0
H1438 H 0.45164 0.3726 0.91619 0.0
H1439 H 0.44683 0.45609 0.04427 0.0
O1440 O 0.41793 0.36871 0.06739 0.0
H1441 H 0.4312 0.39375 0.24011 0.0
H1442 H 0.39055 0.36298 0.17176 0.0
H1443 H 0.40221 0.35205 0.23002 0.0
H1444 H 0.42267 0.36749 0.26466 0.0
H1445 H 0.41933 0.40418 0.18155 0.0
H1446 H 0.35021 0.39397 0.21962 0.0
H1447 H 0.33128 0.37969 0.17797 0.0
O1448 O 0.39641 0.37083 0.10454 0.0
C1449 C 0.39138 0.40101 0.04512 0.0
C1450 C 0.34812 0.37722 0.13274 0.0
C1451 C 0.35386 0.39012 0.19184 0.0
N1452 N 0.37398 0.38821 0.14411 0.0
C1453 C 0.36361 0.38043 0.12095 0.0
C1454 C 0.36926 0.39312 0.17909 0.0
C1455 C 0.34325 0.3821 0.16846 0.0
C1456 C 0.44111 0.41981 0.08358 0.0
N1457 N 0.43309 0.41261 0.05478 0.0
C1458 C 0.44617 0.43554 0.08027 0.0
C1459 C 0.443 0.44388 0.04719 0.0
C1460 C 0.43485 0.43644 0.0179 0.0
C1461 C 0.42995 0.42071 0.02223 0.0
C1462 C 0.45611 0.38451 0.96881 0.0
C1463 C 0.42522 0.37662 0.98777 0.0
C1464 C 0.44968 0.38886 0.00359 0.0
N1465 N 0.43438 0.38498 0.01258 0.0
C1466 C 0.43126 0.37206 0.95273 0.0
C1467 C 0.44681 0.37606 0.94324 0.0
C1468 C 0.40579 0.3628 0.08374 0.0
C1469 C 0.42226 0.38693 0.22533 0.0
C1470 C 0.39947 0.36975 0.18661 0.0
C1471 C 0.40601 0.36352 0.21963 0.0
C1472 C 0.41748 0.37219 0.23906 0.0
N1473 N 0.40419 0.38425 0.17337 0.0
C1474 C 0.41545 0.3928 0.19224 0.0
Co1475 Co 0.3623 0.67597 0.81751 0.0
Co1476 Co 0.35702 0.64527 0.87982 0.0
O1477 O 0.35299 0.66705 0.86327 0.0
C1478 C 0.3706 0.7001 0.87492 0.0
O1479 O 0.37549 0.68854 0.89686 0.0
C1480 C 0.32199 0.64824 0.88191 0.0
O1481 O 0.32265 0.65465 0.84821 0.0
O1482 O 0.35048 0.63672 0.82968 0.0
O1483 O 0.36049 0.65522 0.79081 0.0
H1484 H 0.37885 0.58999 0.86797 0.0
H1485 H 0.33503 0.6924 0.85301 0.0
O1486 O 0.36456 0.69702 0.84283 0.0
H1487 H 0.31687 0.67807 0.72529 0.0
H1488 H 0.37006 0.71829 0.71896 0.0
H1489 H 0.38669 0.6653 0.76279 0.0
H1490 H 0.34403 0.67153 0.74613 0.0
H1491 H 0.35815 0.70647 0.77594 0.0
O1492 O 0.33464 0.64361 0.89819 0.0
H1493 H 0.37393 0.61754 0.84757 0.0
H1494 H 0.34792 0.62656 0.94788 0.0
H1495 H 0.39881 0.67659 0.70547 0.0
H1496 H 0.30782 0.69931 0.83319 0.0
H1497 H 0.39049 0.70329 0.6832 0.0
H1498 H 0.29857 0.69209 0.76895 0.0
O1499 O 0.38393 0.67 0.83463 0.0
H1500 H 0.35139 0.67982 0.99451 0.0
H1501 H 0.38471 0.63986 0.93085 0.0
H1502 H 0.39332 0.65088 0.99191 0.0
H1503 H 0.37659 0.67099 0.02421 0.0
H1504 H 0.3433 0.66861 0.93321 0.0
H1505 H 0.35244 0.59906 0.96922 0.0
H1506 H 0.36807 0.58058 0.9292 0.0
O1507 O 0.37963 0.64645 0.86239 0.0
C1508 C 0.35471 0.64149 0.79708 0.0
C1509 C 0.37206 0.59793 0.8857 0.0
C1510 C 0.35722 0.60302 0.9425 0.0
N1511 N 0.36073 0.62367 0.89661 0.0
C1512 C 0.36926 0.61356 0.87434 0.0
C1513 C 0.35466 0.61856 0.93023 0.0
C1514 C 0.36599 0.59266 0.92004 0.0
C1515 C 0.33114 0.68937 0.82487 0.0
N1516 N 0.34112 0.68163 0.80071 0.0
C1517 C 0.3157 0.69325 0.81387 0.0
C1518 C 0.31051 0.68917 0.77784 0.0
C1519 C 0.32077 0.68129 0.75334 0.0
C1520 C 0.33612 0.67758 0.76534 0.0
C1521 C 0.37374 0.70663 0.72829 0.0
C1522 C 0.3829 0.67684 0.75308 0.0
C1523 C 0.36705 0.69988 0.76056 0.0
N1524 N 0.37157 0.68511 0.7724 0.0
C1525 C 0.38985 0.68321 0.72069 0.0
C1526 C 0.3852 0.6982 0.70824 0.0
C1527 C 0.38888 0.65697 0.84865 0.0
C1528 C 0.35876 0.67104 0.98076 0.0
C1529 C 0.37739 0.64866 0.94462 0.0
C1530 C 0.38231 0.65482 0.97926 0.0
C1531 C 0.37291 0.66609 0.99738 0.0
N1532 N 0.36349 0.65356 0.92851 0.0
C1533 C 0.35421 0.6646 0.94612 0.0
Co1534 Co 0.07248 0.60635 0.55802 0.0
Co1535 Co 0.10121 0.60425 0.62754 0.0
O1536 O 0.08019 0.59938 0.60724 0.0
C1537 C 0.04858 0.61903 0.61121 0.0
O1538 O 0.06035 0.62357 0.63293 0.0
C1539 C 0.09984 0.56912 0.63037 0.0
O1540 O 0.09561 0.56919 0.59473 0.0
O1541 O 0.11186 0.59778 0.57959 0.0
O1542 O 0.09332 0.60111 0.53453 0.0
H1543 H 0.15578 0.62836 0.62627 0.0
H1544 H 0.05445 0.58269 0.60258 0.0
O1545 O 0.05137 0.61174 0.58045 0.0
H1546 H 0.06706 0.55601 0.48253 0.0
H1547 H 0.03183 0.61129 0.45455 0.0
H1548 H 0.08605 0.62521 0.49529 0.0
H1549 H 0.07526 0.58373 0.49363 0.0
H1550 H 0.04197 0.60238 0.51628 0.0
O1551 O 0.10284 0.58209 0.64732 0.0
H1552 H 0.12924 0.62233 0.60066 0.0
H1553 H 0.11783 0.59604 0.69918 0.0
H1554 H 0.07644 0.63424 0.43317 0.0
H1555 H 0.04589 0.555 0.5926 0.0
H1556 H 0.04914 0.62728 0.41246 0.0
H1557 H 0.05224 0.54146 0.53226 0.0
O1558 O 0.07971 0.62859 0.56738 0.0
H1559 H 0.063 0.59831 0.73545 0.0
H1560 H 0.10378 0.63255 0.67775 0.0
H1561 H 0.09037 0.64129 0.73594 0.0
H1562 H 0.06983 0.62411 0.76521 0.0
H1563 H 0.07659 0.59009 0.67706 0.0
H1564 H 0.1443 0.60169 0.72576 0.0
H1565 H 0.16347 0.618 0.68927 0.0
O1566 O 0.09982 0.62644 0.60868 0.0
C1567 C 0.10739 0.59776 0.54518 0.0
C1568 C 0.14753 0.62125 0.64246 0.0
C1569 C 0.14109 0.60626 0.69828 0.0
N1570 N 0.12199 0.60887 0.64842 0.0
C1571 C 0.13248 0.61781 0.62813 0.0
C1572 C 0.12614 0.60306 0.68303 0.0
C1573 C 0.15184 0.61543 0.6778 0.0
C1574 C 0.05717 0.57691 0.57617 0.0
N1575 N 0.06538 0.5848 0.54873 0.0
C1576 C 0.05233 0.56122 0.57071 0.0
C1577 C 0.05592 0.55362 0.53687 0.0
C1578 C 0.06424 0.56177 0.50897 0.0
C1579 C 0.06892 0.57744 0.51545 0.0
C1580 C 0.04375 0.61438 0.46324 0.0
C1581 C 0.0742 0.62205 0.48635 0.0
C1582 C 0.04955 0.6094 0.49819 0.0
N1583 N 0.06463 0.61319 0.50924 0.0
C1584 C 0.0688 0.62723 0.45121 0.0
C1585 C 0.05348 0.62334 0.43962 0.0
C1586 C 0.09096 0.63458 0.58685 0.0
C1587 C 0.07196 0.60588 0.72302 0.0
C1588 C 0.09483 0.62503 0.69024 0.0
C1589 C 0.0873 0.63002 0.72325 0.0
C1590 C 0.07578 0.62037 0.73967 0.0
N1591 N 0.09102 0.6108 0.67408 0.0
C1592 C 0.07975 0.60126 0.69004 0.0
Co1593 Co 0.13897 0.32399 0.31933 0.0
Co1594 Co 0.14453 0.35431 0.38249 0.0
O1595 O 0.1484 0.33257 0.36534 0.0
C1596 C 0.13063 0.2995 0.37584 0.0
O1597 O 0.12579 0.31093 0.39824 0.0
C1598 C 0.17953 0.35086 0.38527 0.0
O1599 O 0.17893 0.34463 0.35138 0.0
O1600 O 0.1512 0.36306 0.3326 0.0
O1601 O 0.14077 0.34491 0.29341 0.0
H1602 H 0.12316 0.40982 0.37199 0.0
H1603 H 0.16624 0.30719 0.35388 0.0
O1604 O 0.13668 0.30278 0.34388 0.0
H1605 H 0.18419 0.32234 0.22654 0.0
H1606 H 0.1308 0.28233 0.2194 0.0
H1607 H 0.11461 0.33518 0.26507 0.0
H1608 H 0.15711 0.32887 0.24795 0.0
H1609 H 0.14287 0.29373 0.27668 0.0
O1610 O 0.16688 0.35566 0.40125 0.0
H1611 H 0.12788 0.38232 0.35088 0.0
H1612 H 0.15368 0.3726 0.45117 0.0
H1613 H 0.10233 0.32432 0.20748 0.0
H1614 H 0.19337 0.30028 0.33347 0.0
H1615 H 0.11042 0.2977 0.18428 0.0
H1616 H 0.20252 0.30791 0.26942 0.0
O1617 O 0.1174 0.32993 0.33691 0.0
H1618 H 0.14964 0.31906 0.49617 0.0
H1619 H 0.11685 0.35974 0.4335 0.0
H1620 H 0.10804 0.34849 0.49416 0.0
H1621 H 0.1245 0.32802 0.52595 0.0
H1622 H 0.15792 0.33051 0.43527 0.0
H1623 H 0.14935 0.40003 0.47321 0.0
H1624 H 0.13393 0.41883 0.43357 0.0
O1625 O 0.12193 0.35341 0.36484 0.0
C1626 C 0.14673 0.35853 0.29998 0.0
C1627 C 0.12986 0.40173 0.38956 0.0
C1628 C 0.14458 0.39624 0.44634 0.0
N1629 N 0.14097 0.37585 0.39986 0.0
C1630 C 0.13255 0.38614 0.37779 0.0
C1631 C 0.14703 0.38074 0.43366 0.0
C1632 C 0.13592 0.40678 0.4241 0.0
C1633 C 0.17008 0.3104 0.32582 0.0
N1634 N 0.16009 0.31836 0.30209 0.0
C1635 C 0.18548 0.30652 0.31449 0.0
C1636 C 0.19061 0.31083 0.27857 0.0
C1637 C 0.18034 0.31894 0.25451 0.0
C1638 C 0.16504 0.32265 0.26683 0.0
C1639 C 0.12721 0.29397 0.22915 0.0
C1640 C 0.11829 0.32366 0.25498 0.0
C1641 C 0.13399 0.30047 0.2616 0.0
N1642 N 0.12958 0.31519 0.27397 0.0
C1643 C 0.11125 0.31754 0.22243 0.0
C1644 C 0.11578 0.30259 0.20946 0.0
C1645 C 0.11257 0.34296 0.35111 0.0
C1646 C 0.14238 0.328 0.48263 0.0
C1647 C 0.12404 0.35079 0.44705 0.0
C1648 C 0.11902 0.34449 0.48146 0.0
C1649 C 0.12827 0.33302 0.4993 0.0
N1650 N 0.13791 0.34582 0.43088 0.0
C1651 C 0.14704 0.33457 0.44822 0.0
Co1652 Co 0.42419 0.6052 0.43904 0.0
Co1653 Co 0.39537 0.60355 0.36955 0.0
O1654 O 0.41668 0.59902 0.38901 0.0
C1655 C 0.44806 0.61938 0.38764 0.0
O1656 O 0.43638 0.62393 0.36565 0.0
C1657 C 0.39873 0.5688 0.36293 0.0
O1658 O 0.40446 0.56886 0.39735 0.0
O1659 O 0.38505 0.59569 0.41664 0.0
O1660 O 0.40355 0.59893 0.46179 0.0
H1661 H 0.33997 0.62558 0.37465 0.0
H1662 H 0.44331 0.58303 0.39279 0.0
O1663 O 0.44521 0.61156 0.4176 0.0
H1664 H 0.43012 0.5534 0.50853 0.0
H1665 H 0.46444 0.60895 0.54369 0.0
H1666 H 0.41008 0.62261 0.50339 0.0
H1667 H 0.42128 0.58109 0.50038 0.0
H1668 H 0.45466 0.60104 0.48087 0.0
O1669 O 0.39427 0.58171 0.34757 0.0
H1670 H 0.36678 0.61986 0.39918 0.0
H1671 H 0.37886 0.59643 0.29713 0.0
H1672 H 0.41932 0.63063 0.5666 0.0
H1673 H 0.45251 0.55538 0.39991 0.0
H1674 H 0.44669 0.6238 0.58709 0.0
H1675 H 0.44586 0.54036 0.45806 0.0
O1676 O 0.41641 0.62737 0.43181 0.0
H1677 H 0.43338 0.60098 0.26052 0.0
H1678 H 0.3918 0.63278 0.32276 0.0
H1679 H 0.40476 0.6431 0.26546 0.0
H1680 H 0.4257 0.62715 0.23391 0.0
H1681 H 0.42022 0.59117 0.31809 0.0
H1682 H 0.35214 0.60177 0.2716 0.0
H1683 H 0.33251 0.6165 0.31041 0.0
O1684 O 0.39614 0.6254 0.39089 0.0
C1685 C 0.38968 0.59512 0.45082 0.0
C1686 C 0.34843 0.61918 0.35743 0.0
C1687 C 0.35525 0.6058 0.29961 0.0
N1688 N 0.37439 0.6079 0.34953 0.0
C1689 C 0.36364 0.61594 0.37114 0.0
C1690 C 0.37035 0.60278 0.31425 0.0
C1691 C 0.34425 0.61408 0.3214 0.0
C1692 C 0.44052 0.57661 0.41833 0.0
N1693 N 0.43182 0.58368 0.44617 0.0
C1694 C 0.4457 0.56095 0.42214 0.0
C1695 C 0.44194 0.55252 0.45475 0.0
C1696 C 0.4331 0.55982 0.48307 0.0
C1697 C 0.4281 0.5755 0.47826 0.0
C1698 C 0.45248 0.61198 0.5351 0.0
C1699 C 0.42197 0.61952 0.51221 0.0
C1700 C 0.44689 0.60757 0.49954 0.0
N1701 N 0.43178 0.61128 0.4886 0.0
C1702 C 0.42715 0.62413 0.54798 0.0
C1703 C 0.44251 0.62031 0.55945 0.0
C1704 C 0.40491 0.63338 0.41322 0.0
C1705 C 0.42424 0.60802 0.27395 0.0
C1706 C 0.40093 0.62578 0.30926 0.0
C1707 C 0.40821 0.63168 0.27677 0.0
C1708 C 0.41995 0.62272 0.25907 0.0
N1709 N 0.4052 0.61135 0.32367 0.0
C1710 C 0.4167 0.60249 0.30646 0.0
Co1711 Co 0.14513 0.6763 0.18203 0.0
Co1712 Co 0.14589 0.6442 0.12142 0.0
O1713 O 0.15038 0.66635 0.13408 0.0
C1714 C 0.12904 0.69779 0.12756 0.0
O1715 O 0.12217 0.6854 0.11214 0.0
C1716 C 0.18032 0.6479 0.11018 0.0
O1717 O 0.18066 0.65455 0.14364 0.0
O1718 O 0.15489 0.63642 0.17012 0.0
O1719 O 0.1517 0.6569 0.21018 0.0
H1720 H 0.12505 0.58907 0.14361 0.0
H1721 H 0.16667 0.69249 0.12833 0.0
O1722 O 0.13863 0.69606 0.15502 0.0
H1723 H 0.19784 0.686 0.24503 0.0
H1724 H 0.14285 0.72176 0.27406 0.0
H1725 H 0.12884 0.6657 0.25165 0.0
H1726 H 0.17002 0.67692 0.24191 0.0
H1727 H 0.1498 0.70873 0.21401 0.0
O1728 O 0.16729 0.64258 0.09703 0.0
H1729 H 0.13056 0.61698 0.16007 0.0
H1730 H 0.15214 0.62442 0.05338 0.0
H1731 H 0.12179 0.67822 0.31227 0.0
H1732 H 0.1944 0.70188 0.13029 0.0
H1733 H 0.1288 0.70645 0.32376 0.0
H1734 H 0.2102 0.69858 0.18891 0.0
O1735 O 0.12288 0.66826 0.17902 0.0
H1736 H 0.14495 0.67666 0.00251 0.0
H1737 H 0.11575 0.63783 0.08005 0.0
H1738 H 0.10379 0.64763 0.02101 0.0
H1739 H 0.11843 0.66717 0.98175 0.0
H1740 H 0.15642 0.66664 0.0619 0.0
H1741 H 0.14698 0.59657 0.03581 0.0
H1742 H 0.1333 0.5787 0.08105 0.0
O1743 O 0.12452 0.64559 0.14554 0.0
C1744 C 0.15561 0.6426 0.20292 0.0
C1745 C 0.13101 0.59674 0.12363 0.0
C1746 C 0.14334 0.60094 0.06316 0.0
N1747 N 0.14164 0.62232 0.10774 0.0
C1748 C 0.13414 0.61256 0.1328 0.0
C1749 C 0.14628 0.61669 0.07332 0.0
C1750 C 0.13565 0.59093 0.08854 0.0
C1751 C 0.17343 0.69114 0.15404 0.0
N1752 N 0.16675 0.68413 0.18495 0.0
C1753 C 0.18914 0.69643 0.15494 0.0
C1754 C 0.19801 0.69455 0.18782 0.0
C1755 C 0.19108 0.68748 0.2193 0.0
C1756 C 0.17535 0.6823 0.21734 0.0
C1757 C 0.13975 0.70944 0.26941 0.0
C1758 C 0.13202 0.67796 0.25656 0.0
C1759 C 0.14362 0.70202 0.23543 0.0
N1760 N 0.13983 0.68644 0.22946 0.0
C1761 C 0.12796 0.685 0.29088 0.0
C1762 C 0.13188 0.70084 0.29729 0.0
C1763 C 0.11684 0.65557 0.16552 0.0
C1764 C 0.13847 0.66811 0.01931 0.0
C1765 C 0.12218 0.64635 0.06316 0.0
C1766 C 0.11536 0.65184 0.02972 0.0
C1767 C 0.12359 0.6628 0.0077 0.0
N1768 N 0.13681 0.65158 0.07429 0.0
C1769 C 0.14494 0.66235 0.0529 0.0
Co1770 Co 0.07811 0.39269 0.93332 0.0
Co1771 Co 0.10842 0.39263 0.86794 0.0
O1772 O 0.08683 0.39779 0.88397 0.0
C1773 C 0.05461 0.37789 0.88179 0.0
O1774 O 0.0664 0.37084 0.86429 0.0
C1775 C 0.10585 0.42716 0.85662 0.0
O1776 O 0.10116 0.428 0.89186 0.0
O1777 O 0.11777 0.40175 0.91491 0.0
O1778 O 0.09855 0.39832 0.95827 0.0
H1779 H 0.1637 0.37103 0.88247 0.0
H1780 H 0.06116 0.41516 0.88318 0.0
O1781 O 0.05733 0.38713 0.90948 0.0
H1782 H 0.07296 0.44549 0.99875 0.0
H1783 H 0.03547 0.39194 0.03277 0.0
H1784 H 0.09003 0.37559 0.00062 0.0
H1785 H 0.08069 0.41734 0.99346 0.0
H1786 H 0.04695 0.39859 0.97077 0.0
O1787 O 0.10972 0.41382 0.84244 0.0
H1788 H 0.13647 0.37733 0.90318 0.0
H1789 H 0.12626 0.39776 0.79646 0.0
H1790 H 0.07907 0.36881 0.06309 0.0
H1791 H 0.05309 0.44326 0.88739 0.0
H1792 H 0.05159 0.377 0.07948 0.0
H1793 H 0.05904 0.45863 0.94545 0.0
O1794 O 0.08513 0.37017 0.92845 0.0
H1795 H 0.0726 0.39172 0.75458 0.0
H1796 H 0.11288 0.36208 0.82689 0.0
H1797 H 0.10109 0.34997 0.7701 0.0
H1798 H 0.08082 0.36483 0.73349 0.0
H1799 H 0.08458 0.40332 0.81172 0.0
H1800 H 0.15343 0.3918 0.77465 0.0
H1801 H 0.17233 0.37828 0.81775 0.0
O1802 O 0.10729 0.37144 0.89305 0.0
C1803 C 0.11258 0.40224 0.94866 0.0
C1804 C 0.15556 0.37688 0.86339 0.0
C1805 C 0.1498 0.38856 0.80289 0.0
N1806 N 0.12977 0.38781 0.85099 0.0
C1807 C 0.14012 0.38045 0.87494 0.0
C1808 C 0.13445 0.39194 0.81543 0.0
C1809 C 0.1604 0.38097 0.82709 0.0
C1810 C 0.06365 0.42174 0.90867 0.0
N1811 N 0.07134 0.41461 0.93808 0.0
C1812 C 0.05911 0.43765 0.91084 0.0
C1813 C 0.06247 0.44628 0.9434 0.0
C1814 C 0.07029 0.43892 0.97331 0.0
C1815 C 0.07467 0.42299 0.97012 0.0
C1816 C 0.04746 0.38832 0.02598 0.0
C1817 C 0.0781 0.37927 0.00765 0.0
C1818 C 0.05401 0.39202 0.99089 0.0
N1819 N 0.06918 0.38757 0.98222 0.0
C1820 C 0.07194 0.37536 0.04302 0.0
C1821 C 0.05652 0.37995 0.05218 0.0
C1822 C 0.09746 0.3639 0.91377 0.0
C1823 C 0.08146 0.38515 0.77023 0.0
C1824 C 0.10404 0.36861 0.81115 0.0
C1825 C 0.09743 0.3617 0.77898 0.0
C1826 C 0.08606 0.37005 0.75844 0.0
N1827 N 0.09949 0.38343 0.82249 0.0
C1828 C 0.08833 0.39168 0.80253 0.0
Co1829 Co 0.36345 0.32358 0.67309 0.0
Co1830 Co 0.3579 0.3541 0.61048 0.0
O1831 O 0.35395 0.33235 0.62738 0.0
C1832 C 0.37147 0.2992 0.61609 0.0
O1833 O 0.37641 0.31065 0.59389 0.0
C1834 C 0.32287 0.35084 0.60821 0.0
O1835 O 0.32354 0.34452 0.64201 0.0
O1836 O 0.35143 0.36275 0.66062 0.0
O1837 O 0.36187 0.34443 0.69935 0.0
H1838 H 0.37964 0.40945 0.62145 0.0
H1839 H 0.33597 0.30706 0.63874 0.0
O1840 O 0.36551 0.30242 0.64817 0.0
H1841 H 0.31849 0.32197 0.7666 0.0
H1842 H 0.37163 0.28158 0.77225 0.0
H1843 H 0.38803 0.33446 0.72714 0.0
H1844 H 0.34555 0.32838 0.74484 0.0
H1845 H 0.35948 0.29322 0.71532 0.0
O1846 O 0.3355 0.35563 0.59212 0.0
H1847 H 0.37481 0.38193 0.64222 0.0
H1848 H 0.34864 0.37265 0.54225 0.0
H1849 H 0.40039 0.32335 0.78438 0.0
H1850 H 0.30885 0.30027 0.6595 0.0
H1851 H 0.39219 0.29672 0.8073 0.0
H1852 H 0.29994 0.30779 0.72382 0.0
O1853 O 0.38501 0.32943 0.65526 0.0
H1854 H 0.35224 0.31918 0.49641 0.0
H1855 H 0.38544 0.35953 0.55905 0.0
H1856 H 0.394 0.34839 0.49808 0.0
H1857 H 0.37732 0.32808 0.46629 0.0
H1858 H 0.34421 0.33051 0.55761 0.0
H1859 H 0.35306 0.40011 0.52055 0.0
H1860 H 0.36872 0.4187 0.5602 0.0
O1861 O 0.38055 0.35302 0.62774 0.0
C1862 C 0.35597 0.35811 0.69309 0.0
C1863 C 0.37283 0.40145 0.60388 0.0
C1864 C 0.35789 0.39622 0.54727 0.0
N1865 N 0.36154 0.37567 0.59338 0.0
C1866 C 0.37009 0.38585 0.61545 0.0
C1867 C 0.35539 0.38069 0.55976 0.0
C1868 C 0.36669 0.40664 0.56953 0.0
C1869 C 0.33223 0.31021 0.66691 0.0
N1870 N 0.34234 0.31804 0.69059 0.0
C1871 C 0.31684 0.3064 0.67845 0.0
C1872 C 0.31184 0.31066 0.71451 0.0
C1873 C 0.32224 0.31863 0.73852 0.0
C1874 C 0.33753 0.32226 0.726 0.0
C1875 C 0.37526 0.29322 0.76262 0.0
C1876 C 0.38431 0.32293 0.73711 0.0
C1877 C 0.36844 0.29986 0.73037 0.0
N1878 N 0.37291 0.31459 0.71816 0.0
C1879 C 0.39139 0.31667 0.76946 0.0
C1880 C 0.3868 0.30172 0.78227 0.0
C1881 C 0.38988 0.34248 0.64118 0.0
C1882 C 0.35958 0.32805 0.50994 0.0
C1883 C 0.37816 0.35065 0.54551 0.0
C1884 C 0.38304 0.34442 0.51091 0.0
C1885 C 0.37367 0.33303 0.49308 0.0
N1886 N 0.36432 0.34571 0.56186 0.0
C1887 C 0.35507 0.33456 0.54453 0.0
C1888 C 0.10292 0.04109 0.34733 0.0
C1889 C 0.1044 0.05617 0.33074 0.0
C1890 C 0.10312 0.02742 0.325 0.0
C1891 C 0.09495 0.01311 0.22973 0.0
H1892 H 0.1219 0.97767 0.25744 0.0
C1893 C 0.10108 0.95755 0.13481 0.0
C1894 C 0.10237 0.94279 0.15293 0.0
C1895 C 0.10182 0.97165 0.15564 0.0
C1896 C 0.11413 0.98735 0.24952 0.0
H1897 H 0.10709 0.06874 0.27768 0.0
H1898 H 0.10722 0.04483 0.23875 0.0
H1899 H 0.12193 0.00162 0.29597 0.0
H1900 H 0.10515 0.93121 0.2072 0.0
H1901 H 0.10593 0.95561 0.24345 0.0
H1902 H 0.08677 0.99877 0.18394 0.0
C1903 C 0.10597 0.04363 0.26902 0.0
C1904 C 0.11421 0.00109 0.27157 0.0
C1905 C 0.10599 0.05729 0.29135 0.0
C1906 C 0.10429 0.9424 0.19228 0.0
C1907 C 0.10485 0.95643 0.21309 0.0
C1908 C 0.09471 0.99929 0.20791 0.0
C1909 C 0.10458 0.02857 0.28563 0.0
C1910 C 0.1046 0.01408 0.26195 0.0
C1911 C 0.10368 0.97127 0.19509 0.0
C1912 C 0.10425 0.98619 0.2176 0.0
H1913 H 0.10165 0.03984 0.37757 0.0
H1914 H 0.1019 0.01594 0.33848 0.0
H1915 H 0.08732 0.02292 0.22189 0.0
H1916 H 0.09962 0.95824 0.10451 0.0
H1917 H 0.10109 0.98284 0.14072 0.0
C1918 C 0.20727 0.84143 0.60062 0.0
C1919 C 0.19392 0.85014 0.58898 0.0
C1920 C 0.22117 0.84153 0.57903 0.0
C1921 C 0.25178 0.85033 0.53899 0.0
H1922 H 0.2482 0.85078 0.42998 0.0
C1923 C 0.30636 0.85967 0.44405 0.0
C1924 C 0.30736 0.85075 0.41065 0.0
C1925 C 0.29242 0.85975 0.4653 0.0
C1926 C 0.24944 0.8505 0.46036 0.0
H1927 H 0.18479 0.86609 0.5461 0.0
H1928 H 0.20908 0.8666 0.50913 0.0
H1929 H 0.22429 0.85012 0.46839 0.0
H1930 H 0.2945 0.83498 0.37324 0.0
H1931 H 0.27022 0.83486 0.41075 0.0
H1932 H 0.27692 0.85016 0.53097 0.0
C1933 C 0.20875 0.85936 0.53434 0.0
C1934 C 0.2357 0.85035 0.48244 0.0
C1935 C 0.19484 0.85916 0.55572 0.0
C1936 C 0.29405 0.84207 0.3987 0.0
C1937 C 0.28012 0.84205 0.42017 0.0
C1938 C 0.26551 0.85037 0.51691 0.0
C1939 C 0.22204 0.85043 0.5455 0.0
C1940 C 0.23669 0.85034 0.52204 0.0
C1941 C 0.27917 0.85081 0.45389 0.0
C1942 C 0.26452 0.85054 0.47731 0.0
H1943 H 0.20689 0.83426 0.62596 0.0
H1944 H 0.2311 0.83435 0.58824 0.0
H1945 H 0.25301 0.85048 0.56938 0.0
H1946 H 0.31638 0.86658 0.4539 0.0
H1947 H 0.29203 0.8669 0.49065 0.0
C1948 C 0.39317 0.05639 0.69415 0.0
C1949 C 0.39556 0.05519 0.65505 0.0
C1950 C 0.39279 0.04279 0.71666 0.0
C1951 C 0.40404 7e-05 0.71652 0.0
H1952 H 0.37598 0.99842 0.80315 0.0
C1953 C 0.39181 0.94266 0.80077 0.0
C1954 C 0.39321 0.94385 0.84018 0.0
C1955 C 0.39201 0.95626 0.77829 0.0
C1956 C 0.38394 0.99878 0.77917 0.0
H1957 H 0.39921 0.03879 0.60879 0.0
H1958 H 0.39798 0.01501 0.64778 0.0
H1959 H 0.37614 0.02194 0.76307 0.0
H1960 H 0.39575 0.96026 0.88692 0.0
H1961 H 0.39578 0.9841 0.84749 0.0
H1962 H 0.41147 0.97666 0.7323 0.0
C1963 C 0.39683 0.02646 0.66132 0.0
C1964 C 0.38411 0.01227 0.75625 0.0
C1965 C 0.39742 0.0401 0.63887 0.0
C1966 C 0.39463 0.95896 0.85665 0.0
C1967 C 0.3946 0.97259 0.83415 0.0
C1968 C 0.4037 0.98649 0.73915 0.0
C1969 C 0.39458 0.02763 0.70057 0.0
C1970 C 0.39421 0.01313 0.72468 0.0
C1971 C 0.3934 0.97135 0.79474 0.0
C1972 C 0.3937 0.98575 0.77075 0.0
H1973 H 0.39184 0.06787 0.70755 0.0
H1974 H 0.39135 0.04422 0.7468 0.0
H1975 H 0.4122 0.00038 0.69296 0.0
H1976 H 0.39076 0.93119 0.78719 0.0
H1977 H 0.39095 0.955 0.74799 0.0
C1978 C 0.20577 0.156 0.89039 0.0
C1979 C 0.19217 0.14762 0.90179 0.0
C1980 C 0.21956 0.15569 0.91239 0.0
C1981 C 0.2498 0.14657 0.95387 0.0
H1982 H 0.2454 0.14684 0.06268 0.0
C1983 C 0.30359 0.13779 0.05262 0.0
C1984 C 0.30412 0.14688 0.08582 0.0
C1985 C 0.28994 0.13762 0.03021 0.0
C1986 C 0.24687 0.14691 0.03236 0.0
H1987 H 0.1825 0.13201 0.9447 0.0
H1988 H 0.20659 0.13113 0.98241 0.0
H1989 H 0.2218 0.14749 0.02327 0.0
H1990 H 0.29078 0.16302 0.1214 0.0
H1991 H 0.26711 0.16299 0.08198 0.0
H1992 H 0.2749 0.14655 0.96301 0.0
C1993 C 0.20654 0.13829 0.95705 0.0
C1994 C 0.23331 0.14705 0.0097 0.0
C1995 C 0.19274 0.13871 0.93526 0.0
C1996 C 0.2907 0.15577 0.09618 0.0
C1997 C 0.2771 0.1557 0.07362 0.0
C1998 C 0.26338 0.14653 0.97655 0.0
C1999 C 0.22008 0.1469 0.94613 0.0
C2000 C 0.23458 0.14684 0.97015 0.0
C2001 C 0.27654 0.14664 0.04029 0.0
C2002 C 0.26209 0.14667 0.0161 0.0
H2003 H 0.20567 0.16307 0.86488 0.0
H2004 H 0.22969 0.16263 0.90334 0.0
H2005 H 0.25125 0.14623 0.92354 0.0
H2006 H 0.31371 0.13076 0.04393 0.0
H2007 H 0.28986 0.1303 0.00512 0.0
C2008 C 0.89809 0.95884 0.64841 0.0
C2009 C 0.89658 0.94357 0.66393 0.0
C2010 C 0.89765 0.97226 0.67162 0.0
C2011 C 0.90522 0.98539 0.76817 0.0
H2012 H 0.87836 0.02114 0.74239 0.0
C2013 C 0.8983 0.03933 0.8678 0.0
C2014 C 0.89693 0.05439 0.85115 0.0
C2015 C 0.89776 0.0256 0.84559 0.0
C2016 C 0.88611 0.01138 0.74979 0.0
H2017 H 0.89355 0.93038 0.71604 0.0
H2018 H 0.89302 0.95381 0.7565 0.0
H2019 H 0.87866 0.99777 0.7019 0.0
H2020 H 0.89421 0.06689 0.79803 0.0
H2021 H 0.89381 0.04313 0.75936 0.0
H2022 H 0.91307 0.99907 0.81539 0.0
C2023 C 0.89447 0.95538 0.72638 0.0
C2024 C 0.88622 0.99796 0.72661 0.0
C2025 C 0.89468 0.94199 0.70316 0.0
C2026 C 0.89512 0.05545 0.81184 0.0
C2027 C 0.89479 0.04178 0.78963 0.0
C2028 C 0.90529 0.99889 0.79111 0.0
C2029 C 0.89594 0.97065 0.71085 0.0
C2030 C 0.89577 0.98484 0.73556 0.0
C2031 C 0.89606 0.02665 0.80615 0.0
C2032 C 0.89575 0.01209 0.7822 0.0
H2033 H 0.89959 0.96045 0.61832 0.0
H2034 H 0.89893 0.98389 0.65897 0.0
H2035 H 0.91282 0.97549 0.77551 0.0
H2036 H 0.89965 0.03812 0.89804 0.0
H2037 H 0.89853 0.01418 0.85944 0.0
C2038 C 0.79466 0.15834 0.4037 0.0
C2039 C 0.80809 0.15001 0.41637 0.0
C2040 C 0.7806 0.15816 0.42467 0.0
C2041 C 0.76545 0.14999 0.52103 0.0
H2042 H 0.72462 0.14916 0.47067 0.0
C2043 C 0.69453 0.14059 0.55705 0.0
C2044 C 0.69327 0.14988 0.58981 0.0
C2045 C 0.70862 0.14033 0.53633 0.0
C2046 C 0.73592 0.14923 0.48524 0.0
H2047 H 0.8172 0.13466 0.46049 0.0
H2048 H 0.79262 0.134 0.49642 0.0
H2049 H 0.74885 0.14872 0.43337 0.0
H2050 H 0.7058 0.16618 0.62659 0.0
H2051 H 0.73031 0.16599 0.59002 0.0
H2052 H 0.75253 0.14999 0.57292 0.0
C2053 C 0.79301 0.14101 0.47084 0.0
C2054 C 0.74983 0.14921 0.46379 0.0
C2055 C 0.80709 0.14129 0.45008 0.0
C2056 C 0.70645 0.1588 0.60163 0.0
C2057 C 0.72052 0.15864 0.58071 0.0
C2058 C 0.75154 0.14992 0.54248 0.0
C2059 C 0.77962 0.14956 0.45862 0.0
C2060 C 0.76478 0.14959 0.4814 0.0
C2061 C 0.72175 0.14947 0.54767 0.0
C2062 C 0.73659 0.14953 0.52487 0.0
H2063 H 0.79509 0.16527 0.378 0.0
H2064 H 0.7706 0.16506 0.41464 0.0
H2065 H 0.77674 0.15052 0.53558 0.0
H2066 H 0.68461 0.1335 0.54731 0.0
H2067 H 0.70923 0.13289 0.51149 0.0
C2068 C 0.59419 0.96011 0.35662 0.0
C2069 C 0.60276 0.94646 0.34639 0.0
C2070 C 0.59393 0.97339 0.33298 0.0
C2071 C 0.60199 0.00291 0.288 0.0
H2072 H 0.60038 0.99673 0.17973 0.0
C2073 C 0.60856 0.0553 0.18491 0.0
C2074 C 0.59898 0.0554 0.15246 0.0
C2075 C 0.6093 0.04189 0.20797 0.0
C2076 C 0.60068 0.99869 0.20989 0.0
H2077 H 0.61801 0.93616 0.30361 0.0
H2078 H 0.61789 0.95944 0.2629 0.0
H2079 H 0.60079 0.97376 0.22137 0.0
H2080 H 0.58267 0.04144 0.11872 0.0
H2081 H 0.58371 0.01809 0.1594 0.0
H2082 H 0.60135 0.02782 0.27662 0.0
C2083 C 0.61107 0.95978 0.28876 0.0
C2084 C 0.60114 0.98549 0.2338 0.0
C2085 C 0.61124 0.94647 0.31227 0.0
C2086 C 0.59025 0.04171 0.14339 0.0
C2087 C 0.5909 0.0283 0.16666 0.0
C2088 C 0.60144 0.01609 0.26411 0.0
C2089 C 0.60232 0.97338 0.29866 0.0
C2090 C 0.60183 0.98743 0.27317 0.0
C2091 C 0.60037 0.02826 0.19938 0.0
C2092 C 0.60083 0.01416 0.22474 0.0
H2093 H 0.58741 0.96044 0.38256 0.0
H2094 H 0.58687 0.98354 0.34129 0.0
H2095 H 0.60269 0.00488 0.31812 0.0
H2096 H 0.61553 0.06562 0.19259 0.0
H2097 H 0.61696 0.0422 0.23248 0.0
C2098 C 0.70342 0.84449 0.90576 0.0
C2099 C 0.68995 0.85284 0.91805 0.0
C2100 C 0.71738 0.84464 0.92714 0.0
C2101 C 0.73208 0.8529 0.02393 0.0
H2102 H 0.77313 0.85348 0.97467 0.0
C2103 C 0.80289 0.86226 0.06138 0.0
C2104 C 0.80402 0.85311 0.09441 0.0
C2105 C 0.78886 0.86249 0.04042 0.0
C2106 C 0.76177 0.85349 0.98894 0.0
H2107 H 0.68064 0.8682 0.96188 0.0
H2108 H 0.70505 0.86884 0.99849 0.0
H2109 H 0.74909 0.85391 0.93672 0.0
H2110 H 0.79129 0.83707 0.13145 0.0
H2111 H 0.76689 0.83719 0.09442 0.0
H2112 H 0.74476 0.85303 0.07617 0.0
C2113 C 0.70477 0.86182 0.97292 0.0
C2114 C 0.74796 0.8535 0.96711 0.0
C2115 C 0.69079 0.86155 0.95176 0.0
C2116 C 0.79075 0.84434 0.10628 0.0
C2117 C 0.77674 0.84446 0.08509 0.0
C2118 C 0.74589 0.85301 0.04576 0.0
C2119 C 0.7182 0.85325 0.9611 0.0
C2120 C 0.73293 0.85321 0.98431 0.0
C2121 C 0.77566 0.85346 0.05174 0.0
C2122 C 0.76092 0.85332 0.02856 0.0
H2123 H 0.7031 0.83755 0.88006 0.0
H2124 H 0.72741 0.83772 0.91741 0.0
H2125 H 0.72072 0.85244 0.03818 0.0
H2126 H 0.81288 0.86924 0.05161 0.0
H2127 H 0.78838 0.86982 0.01537 0.0
C2128 C 0.60661 0.46087 0.64071 0.0
C2129 C 0.6075 0.44565 0.65671 0.0
C2130 C 0.60701 0.47438 0.66365 0.0
C2131 C 0.6175 0.48764 0.76092 0.0
H2132 H 0.5918 0.52415 0.73441 0.0
C2133 C 0.60587 0.54064 0.86181 0.0
C2134 C 0.60791 0.5558 0.84601 0.0
C2135 C 0.60618 0.52711 0.8389 0.0
C2136 C 0.5991 0.51406 0.74202 0.0
H2137 H 0.60926 0.43264 0.70938 0.0
H2138 H 0.60944 0.45605 0.74926 0.0
H2139 H 0.59156 0.50078 0.69391 0.0
H2140 H 0.61181 0.56866 0.79374 0.0
H2141 H 0.61214 0.54509 0.75392 0.0
H2142 H 0.62468 0.5009 0.80961 0.0
C2143 C 0.60892 0.45768 0.719 0.0
C2144 C 0.59905 0.50069 0.71872 0.0
C2145 C 0.60872 0.44421 0.69609 0.0
C2146 C 0.61026 0.55715 0.80687 0.0
C2147 C 0.61035 0.54368 0.78398 0.0
C2148 C 0.61738 0.50094 0.78446 0.0
C2149 C 0.60811 0.47296 0.70315 0.0
C2150 C 0.60827 0.48729 0.7278 0.0
C2151 C 0.60829 0.52853 0.79973 0.0
C2152 C 0.60823 0.5143 0.77516 0.0
H2153 H 0.60572 0.46236 0.61045 0.0
H2154 H 0.60662 0.48594 0.65034 0.0
H2155 H 0.62499 0.4777 0.76853 0.0
H2156 H 0.60402 0.53921 0.89184 0.0
H2157 H 0.60447 0.51556 0.85171 0.0
C2158 C 0.80749 0.35591 0.94564 0.0
C2159 C 0.80842 0.34718 0.91193 0.0
C2160 C 0.79363 0.3558 0.96721 0.0
C2161 C 0.76675 0.34643 0.01902 0.0
H2162 H 0.72548 0.34638 0.97075 0.0
C2163 C 0.7084 0.33867 0.10345 0.0
C2164 C 0.69515 0.34746 0.09152 0.0
C2165 C 0.7223 0.33843 0.0818 0.0
C2166 C 0.7369 0.34655 0.98474 0.0
H2167 H 0.79551 0.33149 0.87443 0.0
H2168 H 0.77137 0.33104 0.91249 0.0
H2169 H 0.74935 0.34678 0.9322 0.0
H2170 H 0.68622 0.36323 0.04803 0.0
H2171 H 0.71049 0.36318 0.01099 0.0
H2172 H 0.7543 0.34678 0.07157 0.0
C2173 C 0.78127 0.33822 0.9219 0.0
C2174 C 0.75062 0.34654 0.96257 0.0
C2175 C 0.79512 0.33843 0.90012 0.0
C2176 C 0.69618 0.35624 0.0579 0.0
C2177 C 0.71008 0.3561 0.03647 0.0
C2178 C 0.75303 0.34654 0.04119 0.0
C2179 C 0.78037 0.34685 0.95584 0.0
C2180 C 0.76573 0.34655 0.97941 0.0
C2181 C 0.72327 0.34708 0.04789 0.0
C2182 C 0.73792 0.34667 0.02435 0.0
H2183 H 0.81749 0.36287 0.95543 0.0
H2184 H 0.79329 0.36286 0.99271 0.0
H2185 H 0.77817 0.34619 0.03301 0.0
H2186 H 0.70794 0.33169 0.12908 0.0
H2187 H 0.73214 0.33119 0.09127 0.0
C2188 C 0.89761 0.46105 0.36113 0.0
C2189 C 0.89557 0.44599 0.3449 0.0
C2190 C 0.89796 0.47465 0.33847 0.0
C2191 C 0.88784 0.48906 0.24189 0.0
H2192 H 0.91637 0.52343 0.26819 0.0
C2193 C 0.90157 0.54209 0.14245 0.0
C2194 C 0.90049 0.55716 0.1592 0.0
C2195 C 0.90096 0.52836 0.1647 0.0
C2196 C 0.90829 0.51394 0.26062 0.0
H2197 H 0.89246 0.43336 0.29205 0.0
H2198 H 0.89354 0.45689 0.25266 0.0
H2199 H 0.9152 0.49988 0.30803 0.0
H2200 H 0.89817 0.56967 0.21246 0.0
H2201 H 0.89733 0.54578 0.25106 0.0
H2202 H 0.88125 0.50309 0.19394 0.0
C2203 C 0.89442 0.45835 0.28291 0.0
C2204 C 0.90753 0.50048 0.28356 0.0
C2205 C 0.89389 0.44481 0.30556 0.0
C2206 C 0.89897 0.55824 0.19861 0.0
C2207 C 0.89858 0.54457 0.2208 0.0
C2208 C 0.88876 0.50245 0.2187 0.0
C2209 C 0.89647 0.47347 0.299 0.0
C2210 C 0.89724 0.48787 0.27462 0.0
C2211 C 0.89953 0.5295 0.20411 0.0
C2212 C 0.89893 0.51505 0.22795 0.0
H2213 H 0.89891 0.46235 0.39136 0.0
H2214 H 0.8993 0.48609 0.35198 0.0
H2215 H 0.87956 0.47974 0.23439 0.0
H2216 H 0.90276 0.54088 0.11218 0.0
H2217 H 0.90181 0.51687 0.15116 0.0
C2218 C 0.70588 0.66476 0.40304 0.0
C2219 C 0.69252 0.65588 0.41387 0.0
C2220 C 0.71953 0.66495 0.42557 0.0
C2221 C 0.74983 0.65626 0.46736 0.0
H2222 H 0.74536 0.65621 0.57618 0.0
C2223 C 0.80332 0.64588 0.56561 0.0
C2224 C 0.80421 0.65479 0.59906 0.0
C2225 C 0.78964 0.64623 0.54337 0.0
C2226 C 0.74684 0.65638 0.54586 0.0
H2227 H 0.68309 0.64004 0.45663 0.0
H2228 H 0.70693 0.64008 0.49533 0.0
H2229 H 0.72176 0.6569 0.53659 0.0
H2230 H 0.79142 0.67108 0.63534 0.0
H2231 H 0.7676 0.67189 0.59619 0.0
H2232 H 0.77492 0.65616 0.47663 0.0
C2233 C 0.7068 0.6472 0.4699 0.0
C2234 C 0.73328 0.65656 0.52311 0.0
C2235 C 0.69315 0.64708 0.44752 0.0
C2236 C 0.79106 0.66399 0.60988 0.0
C2237 C 0.77739 0.6644 0.58748 0.0
C2238 C 0.76339 0.65614 0.49011 0.0
C2239 C 0.72014 0.6562 0.45936 0.0
C2240 C 0.7346 0.6564 0.48356 0.0
C2241 C 0.77653 0.65558 0.55384 0.0
C2242 C 0.76207 0.65609 0.52966 0.0
H2243 H 0.70574 0.67177 0.37743 0.0
H2244 H 0.7295 0.67217 0.41681 0.0
H2245 H 0.75131 0.65598 0.43704 0.0
H2246 H 0.8132 0.6386 0.55652 0.0
H2247 H 0.78931 0.63905 0.51806 0.0
C2248 C 0.38939 0.44251 0.19084 0.0
C2249 C 0.39828 0.44191 0.15736 0.0
C2250 C 0.38928 0.45622 0.21296 0.0
C2251 C 0.39827 0.48279 0.26605 0.0
H2252 H 0.39884 0.52436 0.21928 0.0
C2253 C 0.40661 0.54043 0.35257 0.0
C2254 C 0.39812 0.55392 0.34091 0.0
C2255 C 0.40662 0.52667 0.33049 0.0
C2256 C 0.39851 0.51285 0.23286 0.0
H2257 H 0.41409 0.45518 0.12085 0.0
H2258 H 0.41421 0.479 0.15989 0.0
H2259 H 0.39837 0.50076 0.17988 0.0
H2260 H 0.38264 0.56343 0.29753 0.0
H2261 H 0.38228 0.53937 0.25974 0.0
H2262 H 0.39782 0.4949 0.31903 0.0
C2263 C 0.40702 0.46901 0.16868 0.0
C2264 C 0.39848 0.49929 0.21021 0.0
C2265 C 0.407 0.45534 0.14634 0.0
C2266 C 0.38941 0.55327 0.30715 0.0
C2267 C 0.3893 0.53949 0.28531 0.0
C2268 C 0.39817 0.49636 0.28871 0.0
C2269 C 0.3982 0.46961 0.20237 0.0
C2270 C 0.39834 0.48407 0.22649 0.0
C2271 C 0.39803 0.52606 0.29645 0.0
C2272 C 0.39826 0.51157 0.27241 0.0
H2273 H 0.38246 0.43239 0.2 0.0
H2274 H 0.3821 0.45633 0.23827 0.0
H2275 H 0.3984 0.47128 0.27963 0.0
H2276 H 0.41353 0.54061 0.37831 0.0
H2277 H 0.41365 0.51663 0.33973 0.0
C2278 C 0.1951 0.63867 0.05295 0.0
C2279 C 0.19484 0.6474 0.08671 0.0
C2280 C 0.20863 0.63859 0.03014 0.0
C2281 C 0.25183 0.64709 0.03212 0.0
H2282 H 0.24731 0.64719 0.92331 0.0
C2283 C 0.29341 0.6559 0.89089 0.0
C2284 C 0.30676 0.64719 0.90255 0.0
C2285 C 0.27945 0.65572 0.91237 0.0
C2286 C 0.2488 0.6473 0.95363 0.0
H2287 H 0.20853 0.66304 0.12281 0.0
H2288 H 0.23201 0.66314 0.08275 0.0
H2289 H 0.2237 0.64784 0.96301 0.0
H2290 H 0.31574 0.63095 0.94501 0.0
H2291 H 0.29141 0.6303 0.98168 0.0
H2292 H 0.27689 0.64708 0.02288 0.0
C2293 C 0.22189 0.65606 0.07422 0.0
C2294 C 0.23524 0.64746 0.97644 0.0
C2295 C 0.2084 0.65605 0.09717 0.0
C2296 C 0.30572 0.63794 0.93543 0.0
C2297 C 0.29178 0.63765 0.95665 0.0
C2298 C 0.26536 0.64702 0.00936 0.0
C2299 C 0.22219 0.64733 0.04039 0.0
C2300 C 0.23659 0.64731 0.016 0.0
C2301 C 0.27854 0.64673 0.94579 0.0
C2302 C 0.26404 0.64704 0.96982 0.0
H2303 H 0.18486 0.63184 0.04412 0.0
H2304 H 0.20851 0.63152 0.00464 0.0
H2305 H 0.25336 0.64679 0.06243 0.0
H2306 H 0.29387 0.66321 0.86579 0.0
H2307 H 0.26954 0.66297 0.90332 0.0
C2308 C 0.1035 0.45661 0.84861 0.0
C2309 C 0.10579 0.44154 0.83264 0.0
C2310 C 0.10295 0.47013 0.82577 0.0
C2311 C 0.11301 0.48478 0.7296 0.0
H2312 H 0.08392 0.51861 0.75641 0.0
C2313 C 0.09987 0.53929 0.6336 0.0
C2314 C 0.10053 0.55408 0.65189 0.0
C2315 C 0.10044 0.52519 0.65451 0.0
C2316 C 0.09214 0.50928 0.74868 0.0
H2317 H 0.10921 0.42879 0.7801 0.0
H2318 H 0.10781 0.45227 0.74024 0.0
H2319 H 0.08506 0.49475 0.79508 0.0
H2320 H 0.10218 0.56565 0.70648 0.0
H2321 H 0.10299 0.54114 0.74268 0.0
H2322 H 0.11983 0.49935 0.68272 0.0
C2323 C 0.10683 0.45376 0.77047 0.0
C2324 C 0.09288 0.49563 0.77095 0.0
C2325 C 0.10756 0.44026 0.79334 0.0
C2326 C 0.10169 0.55447 0.69144 0.0
C2327 C 0.10206 0.54043 0.71226 0.0
C2328 C 0.11213 0.49838 0.70707 0.0
C2329 C 0.10447 0.46887 0.78635 0.0
C2330 C 0.10344 0.48325 0.76196 0.0
C2331 C 0.10143 0.52565 0.69408 0.0
C2332 C 0.10181 0.51083 0.71663 0.0
H2333 H 0.10216 0.45801 0.8788 0.0
H2334 H 0.10142 0.48158 0.83913 0.0
H2335 H 0.12144 0.47561 0.72204 0.0
H2336 H 0.09896 0.5386 0.60319 0.0
H2337 H 0.09987 0.51393 0.63982 0.0
C2338 C 0.20797 0.34276 0.39462 0.0
C2339 C 0.19465 0.35146 0.4065 0.0
C2340 C 0.22185 0.34258 0.41638 0.0
C2341 C 0.23619 0.35063 0.51376 0.0
H2342 H 0.2776 0.35059 0.46623 0.0
C2343 C 0.30667 0.36039 0.5537 0.0
C2344 C 0.30771 0.3515 0.58715 0.0
C2345 C 0.29278 0.36033 0.53223 0.0
C2346 C 0.26613 0.35075 0.48003 0.0
H2347 H 0.18563 0.3672 0.44994 0.0
H2348 H 0.20984 0.36725 0.48713 0.0
H2349 H 0.25384 0.35104 0.42725 0.0
H2350 H 0.29489 0.33566 0.62448 0.0
H2351 H 0.27067 0.33532 0.58661 0.0
H2352 H 0.24849 0.35089 0.56654 0.0
C2353 C 0.2095 0.36018 0.46164 0.0
C2354 C 0.25248 0.35078 0.4576 0.0
C2355 C 0.19563 0.36026 0.4401 0.0
C2356 C 0.29443 0.34273 0.59898 0.0
C2357 C 0.28053 0.34256 0.57729 0.0
C2358 C 0.24985 0.35069 0.53619 0.0
C2359 C 0.22274 0.3512 0.45036 0.0
C2360 C 0.23732 0.3508 0.47416 0.0
C2361 C 0.27959 0.35126 0.54343 0.0
C2362 C 0.265 0.35084 0.51963 0.0
H2363 H 0.20756 0.33576 0.36901 0.0
H2364 H 0.23175 0.3354 0.40699 0.0
H2365 H 0.22473 0.35038 0.52755 0.0
H2366 H 0.31664 0.36738 0.5439 0.0
H2367 H 0.29239 0.36745 0.50683 0.0
C2368 C 0.08842 0.16225 0.42045 0.0
C2369 C 0.10055 0.15087 0.4184 0.0
C2370 C 0.09217 0.17843 0.42253 0.0
C2371 C 0.10283 0.21238 0.43806 0.0
H2372 H 0.13955 0.22472 0.37911 0.0
C2373 C 0.12288 0.27819 0.42211 0.0
C2374 C 0.12813 0.28265 0.386 0.0
C2375 C 0.12011 0.26217 0.43064 0.0
C2376 C 0.12919 0.22153 0.39551 0.0
H2377 H 0.126 0.14724 0.41992 0.0
H2378 H 0.13255 0.17521 0.42547 0.0
H2379 H 0.1331 0.19692 0.38572 0.0
H2380 H 0.13441 0.27379 0.33048 0.0
H2381 H 0.12925 0.24623 0.3449 0.0
H2382 H 0.09847 0.23723 0.4457 0.0
C2383 C 0.12016 0.17188 0.42368 0.0
C2384 C 0.12562 0.20549 0.39991 0.0
C2385 C 0.11642 0.15581 0.42074 0.0
C2386 C 0.13055 0.2708 0.35872 0.0
C2387 C 0.12767 0.25491 0.3671 0.0
C2388 C 0.10631 0.22851 0.43323 0.0
C2389 C 0.10813 0.18347 0.42332 0.0
C2390 C 0.11231 0.20065 0.42095 0.0
C2391 C 0.12248 0.25034 0.40317 0.0
C2392 C 0.11941 0.23328 0.41136 0.0
H2393 H 0.07608 0.15871 0.41858 0.0
H2394 H 0.08257 0.18696 0.42185 0.0
H2395 H 0.09262 0.20912 0.45491 0.0
H2396 H 0.12092 0.28705 0.44374 0.0
H2397 H 0.11626 0.25906 0.45881 0.0
C2398 C 0.978 0.88497 0.61492 0.0
C2399 C 0.96535 0.87597 0.62936 0.0
C2400 C 0.99366 0.88061 0.62213 0.0
C2401 C 0.01994 0.85671 0.68281 0.0
H2402 H 0.04752 0.85912 0.59544 0.0
C2403 C 0.08628 0.83542 0.67835 0.0
C2404 C 0.09675 0.84595 0.66009 0.0
C2405 C 0.06986 0.83821 0.67791 0.0
C2406 C 0.04 0.85846 0.62017 0.0
H2407 H 0.95922 0.85573 0.66424 0.0
H2408 H 0.98679 0.84798 0.67663 0.0
H2409 H 0.01957 0.86567 0.589 0.0
H2410 H 0.0981 0.8681 0.62874 0.0
H2411 H 0.06977 0.87284 0.62812 0.0
H2412 H 0.04064 0.8495 0.71389 0.0
C2413 C 0.98449 0.85846 0.65981 0.0
C2414 C 0.02399 0.86225 0.61651 0.0
C2415 C 0.96872 0.86288 0.65264 0.0
C2416 C 0.09047 0.85958 0.64268 0.0
C2417 C 0.07417 0.8623 0.64217 0.0
C2418 C 0.03607 0.85286 0.68647 0.0
C2419 C 0.99711 0.86708 0.6438 0.0
C2420 C 0.01384 0.86178 0.6479 0.0
C2421 C 0.06366 0.85151 0.65905 0.0
C2422 C 0.04631 0.85407 0.6553 0.0
H2423 H 0.97584 0.89527 0.59734 0.0
H2424 H 0.00311 0.88773 0.61018 0.0
H2425 H 0.01239 0.85623 0.70749 0.0
H2426 H 0.09072 0.82484 0.69216 0.0
H2427 H 0.062 0.82971 0.69118 0.0
C2428 C 0.38259 0.84354 0.92722 0.0
C2429 C 0.39837 0.84877 0.92499 0.0
C2430 C 0.37913 0.82738 0.92935 0.0
C2431 C 0.37424 0.79392 0.90367 0.0
H2432 H 0.40191 0.76221 0.94788 0.0
C2433 C 0.37041 0.72893 0.85911 0.0
C2434 C 0.37293 0.71689 0.88585 0.0
C2435 C 0.37306 0.74478 0.86827 0.0
C2436 C 0.39392 0.77092 0.93584 0.0
H2437 H 0.42297 0.84132 0.92455 0.0
H2438 H 0.41696 0.81295 0.92646 0.0
H2439 H 0.40728 0.79033 0.95858 0.0
H2440 H 0.38012 0.71209 0.94344 0.0
H2441 H 0.3844 0.74001 0.95986 0.0
H2442 H 0.36065 0.77466 0.88178 0.0
C2443 C 0.40722 0.82132 0.92766 0.0
C2444 C 0.39713 0.78706 0.94153 0.0
C2445 C 0.41069 0.83757 0.92637 0.0
C2446 C 0.37808 0.72111 0.9222 0.0
C2447 C 0.38062 0.73708 0.93152 0.0
C2448 C 0.37095 0.77787 0.8984 0.0
C2449 C 0.39135 0.816 0.9283 0.0
C2450 C 0.38746 0.79879 0.92502 0.0
C2451 C 0.37813 0.74911 0.9046 0.0
C2452 C 0.38092 0.76614 0.91367 0.0
H2453 H 0.37287 0.85195 0.92688 0.0
H2454 H 0.3668 0.82382 0.93103 0.0
H2455 H 0.36662 0.8025 0.88993 0.0
H2456 H 0.36661 0.72614 0.83069 0.0
H2457 H 0.37139 0.75363 0.84648 0.0
C2458 C 0.40494 0.13603 0.17058 0.0
C2459 C 0.39976 0.15181 0.16743 0.0
C2460 C 0.4211 0.13253 0.17283 0.0
C2461 C 0.45448 0.12733 0.14696 0.0
H2462 H 0.48648 0.15526 0.18912 0.0
C2463 C 0.51883 0.12276 0.09984 0.0
C2464 C 0.53112 0.12465 0.12624 0.0
C2465 C 0.50318 0.1261 0.10947 0.0
C2466 C 0.47768 0.14722 0.17765 0.0
H2467 H 0.40737 0.17636 0.16548 0.0
H2468 H 0.43569 0.17025 0.16764 0.0
H2469 H 0.45837 0.16077 0.20029 0.0
H2470 H 0.53663 0.13181 0.18345 0.0
H2471 H 0.50894 0.13735 0.20078 0.0
H2472 H 0.47362 0.11358 0.12506 0.0
C2473 C 0.42728 0.16056 0.16944 0.0
C2474 C 0.46156 0.15049 0.18363 0.0
C2475 C 0.41105 0.16408 0.16796 0.0
C2476 C 0.52739 0.13021 0.16254 0.0
C2477 C 0.51157 0.13344 0.17238 0.0
C2478 C 0.47051 0.12399 0.14138 0.0
C2479 C 0.43253 0.14469 0.17104 0.0
C2480 C 0.44974 0.14071 0.16779 0.0
C2481 C 0.49926 0.13123 0.14598 0.0
C2482 C 0.48232 0.13409 0.1558 0.0
H2483 H 0.3965 0.12634 0.17089 0.0
H2484 H 0.42461 0.12021 0.17521 0.0
H2485 H 0.44584 0.11961 0.13376 0.0
H2486 H 0.52127 0.11879 0.07139 0.0
H2487 H 0.49413 0.12472 0.08803 0.0
C2488 C 0.11164 0.71718 0.09257 0.0
C2489 C 0.1249 0.71411 0.11558 0.0
C2490 C 0.10693 0.73286 0.08523 0.0
C2491 C 0.11 0.77236 0.12834 0.0
H2492 H 0.09804 0.78921 0.03062 0.0
C2493 C 0.1085 0.8388 0.10227 0.0
C2494 C 0.09515 0.84536 0.08422 0.0
C2495 C 0.11085 0.82245 0.10299 0.0
C2496 C 0.10115 0.78458 0.05813 0.0
H2497 H 0.14419 0.72505 0.14681 0.0
H2498 H 0.1361 0.75212 0.13378 0.0
H2499 H 0.10468 0.76092 0.03701 0.0
H2500 H 0.07415 0.83977 0.05132 0.0
H2501 H 0.07837 0.81094 0.05265 0.0
H2502 H 0.10677 0.79585 0.14954 0.0
C2503 C 0.1291 0.74251 0.12216 0.0
C2504 C 0.10495 0.76843 0.06178 0.0
C2505 C 0.13377 0.72696 0.12948 0.0
C2506 C 0.08451 0.83511 0.06563 0.0
C2507 C 0.08693 0.81863 0.06627 0.0
C2508 C 0.10625 0.78837 0.12471 0.0
C2509 C 0.1154 0.74565 0.10084 0.0
C2510 C 0.10982 0.76228 0.0968 0.0
C2511 C 0.09997 0.81216 0.08568 0.0
C2512 C 0.10219 0.79476 0.08945 0.0
H2513 H 0.10459 0.70751 0.08139 0.0
H2514 H 0.09634 0.73495 0.06862 0.0
H2515 H 0.11328 0.76788 0.15591 0.0
H2516 H 0.1171 0.84625 0.11649 0.0
H2517 H 0.1212 0.81783 0.11747 0.0
C2518 C 0.53275 0.86401 0.35257 0.0
C2519 C 0.5357 0.87735 0.37536 0.0
C2520 C 0.51711 0.85922 0.34505 0.0
C2521 C 0.47744 0.86234 0.38737 0.0
H2522 H 0.46115 0.84927 0.28991 0.0
C2523 C 0.41112 0.8594 0.36007 0.0
C2524 C 0.40488 0.84576 0.3426 0.0
C2525 C 0.42741 0.86208 0.36096 0.0
C2526 C 0.46562 0.8527 0.31735 0.0
H2527 H 0.52461 0.89671 0.40602 0.0
H2528 H 0.4976 0.8885 0.39263 0.0
H2529 H 0.48931 0.85636 0.29658 0.0
H2530 H 0.41099 0.82459 0.31088 0.0
H2531 H 0.43972 0.8294 0.31251 0.0
H2532 H 0.45391 0.85895 0.40821 0.0
C2533 C 0.50727 0.88148 0.38133 0.0
C2534 C 0.4817 0.85676 0.32116 0.0
C2535 C 0.52278 0.88623 0.38885 0.0
C2536 C 0.4154 0.83517 0.32473 0.0
C2537 C 0.43182 0.83793 0.32554 0.0
C2538 C 0.46149 0.85833 0.38358 0.0
C2539 C 0.50424 0.8677 0.36025 0.0
C2540 C 0.48765 0.862 0.35607 0.0
C2541 C 0.43797 0.85125 0.3444 0.0
C2542 C 0.45531 0.85384 0.3484 0.0
H2543 H 0.54247 0.85695 0.34171 0.0
H2544 H 0.51512 0.84856 0.32866 0.0
H2545 H 0.48176 0.8659 0.41487 0.0
H2546 H 0.40345 0.86796 0.37373 0.0
H2547 H 0.43177 0.87264 0.37499 0.0
C2548 C 0.38516 0.15556 0.56797 0.0
C2549 C 0.40099 0.15057 0.57149 0.0
C2550 C 0.38147 0.17166 0.56541 0.0
C2551 C 0.37572 0.2052 0.58969 0.0
H2552 H 0.40362 0.23702 0.54678 0.0
C2553 C 0.37083 0.27039 0.63228 0.0
C2554 C 0.37374 0.28235 0.60554 0.0
C2555 C 0.37357 0.25451 0.62362 0.0
C2556 C 0.39556 0.22828 0.55842 0.0
H2557 H 0.42544 0.15846 0.57392 0.0
H2558 H 0.419 0.1867 0.57119 0.0
H2559 H 0.40948 0.20893 0.5374 0.0
H2560 H 0.38164 0.28693 0.54838 0.0
H2561 H 0.38609 0.25897 0.53282 0.0
H2562 H 0.36159 0.22441 0.60988 0.0
C2563 C 0.40941 0.17818 0.56932 0.0
C2564 C 0.39905 0.21216 0.5535 0.0
C2565 C 0.41313 0.16199 0.5711 0.0
C2566 C 0.3793 0.278 0.56963 0.0
C2567 C 0.38194 0.26199 0.5608 0.0
C2568 C 0.37215 0.22125 0.59419 0.0
C2569 C 0.39349 0.18323 0.56723 0.0
C2570 C 0.3893 0.2004 0.56962 0.0
C2571 C 0.37914 0.25006 0.58779 0.0
C2572 C 0.3822 0.23301 0.57938 0.0
H2573 H 0.37557 0.14699 0.56756 0.0
H2574 H 0.36911 0.17501 0.56267 0.0
H2575 H 0.36801 0.1966 0.60305 0.0
H2576 H 0.36668 0.27329 0.66036 0.0
H2577 H 0.37162 0.24573 0.64544 0.0
C2578 C 0.08431 0.16367 0.82498 0.0
C2579 C 0.09565 0.15146 0.82539 0.0
C2580 C 0.06808 0.16005 0.82613 0.0
C2581 C 0.03362 0.14952 0.81757 0.0
H2582 H 0.02316 0.11329 0.88018 0.0
C2583 C 0.9686 0.12847 0.84362 0.0
C2584 C 0.96516 0.12289 0.88006 0.0
C2585 C 0.98429 0.1319 0.83321 0.0
C2586 C 0.02581 0.12353 0.86286 0.0
H2587 H 0.09902 0.12598 0.82431 0.0
H2588 H 0.07089 0.11964 0.82434 0.0
H2589 H 0.05067 0.11966 0.86845 0.0
H2590 H 0.97537 0.11707 0.93451 0.0
H2591 H 0.00238 0.12345 0.91694 0.0
H2592 H 0.00857 0.15382 0.81401 0.0
C2593 C 0.07437 0.13201 0.82494 0.0
C2594 C 0.04167 0.12704 0.85549 0.0
C2595 C 0.09052 0.13563 0.82463 0.0
C2596 C 0.97762 0.12111 0.90601 0.0
C2597 C 0.99318 0.12469 0.89582 0.0
C2598 C 0.01767 0.14609 0.82537 0.0
C2599 C 0.06292 0.14415 0.82703 0.0
C2600 C 0.04585 0.14013 0.83293 0.0
C2601 C 0.99679 0.12994 0.85918 0.0
C2602 C 0.01359 0.13317 0.84855 0.0
H2603 H 0.08799 0.17599 0.82572 0.0
H2604 H 0.05967 0.16973 0.82803 0.0
H2605 H 0.03634 0.15957 0.79969 0.0
H2606 H 0.95922 0.12995 0.823 0.0
H2607 H 0.98664 0.13581 0.80468 0.0
C2608 C 0.88198 0.7218 0.583 0.0
C2609 C 0.87705 0.7183 0.61995 0.0
C2610 C 0.88549 0.7375 0.57259 0.0
C2611 C 0.877 0.77862 0.60333 0.0
H2612 H 0.91297 0.79054 0.54134 0.0
C2613 C 0.91613 0.83823 0.57325 0.0
C2614 C 0.90367 0.8493 0.57431 0.0
C2615 C 0.91284 0.82194 0.57176 0.0
C2616 C 0.9029 0.7874 0.5588 0.0
H2617 H 0.87277 0.72839 0.67537 0.0
H2618 H 0.87911 0.75533 0.65762 0.0
H2619 H 0.90764 0.76243 0.55376 0.0
H2620 H 0.87815 0.8522 0.57131 0.0
H2621 H 0.87242 0.82401 0.56694 0.0
H2622 H 0.87262 0.80331 0.61034 0.0
C2623 C 0.87979 0.74619 0.63622 0.0
C2624 C 0.89976 0.77129 0.56554 0.0
C2625 C 0.8762 0.73067 0.64645 0.0
C2626 C 0.88797 0.8439 0.57127 0.0
C2627 C 0.8847 0.82771 0.56898 0.0
C2628 C 0.88019 0.7946 0.5969 0.0
C2629 C 0.88417 0.7499 0.59905 0.0
C2630 C 0.88693 0.76676 0.58852 0.0
C2631 C 0.89704 0.81647 0.57068 0.0
C2632 C 0.89326 0.79927 0.57487 0.0
H2633 H 0.8828 0.7125 0.56201 0.0
H2634 H 0.88883 0.73999 0.54371 0.0
H2635 H 0.86684 0.77557 0.62057 0.0
H2636 H 0.92835 0.84212 0.57562 0.0
H2637 H 0.92265 0.81366 0.57336 0.0
C2638 C 0.91199 0.14189 0.36524 0.0
C2639 C 0.90539 0.15499 0.34626 0.0
C2640 C 0.92832 0.13933 0.36519 0.0
C2641 C 0.96574 0.14795 0.31673 0.0
H2642 H 0.9837 0.13707 0.41407 0.0
C2643 C 0.03357 0.13817 0.34565 0.0
C2644 C 0.0372 0.12538 0.36968 0.0
C2645 C 0.01773 0.14267 0.33963 0.0
C2646 C 0.97887 0.13997 0.38661 0.0
H2647 H 0.91089 0.17534 0.31104 0.0
H2648 H 0.93965 0.17077 0.31103 0.0
H2649 H 0.95565 0.1435 0.40925 0.0
H2650 H 0.02703 0.10675 0.40441 0.0
H2651 H 0.99967 0.11444 0.39362 0.0
H2652 H 0.98911 0.14416 0.29414 0.0
C2653 C 0.93202 0.16255 0.32595 0.0
C2654 C 0.9628 0.14368 0.38387 0.0
C2655 C 0.91557 0.16517 0.32609 0.0
C2656 C 0.0247 0.1168 0.38618 0.0
C2657 C 0.00898 0.12126 0.38015 0.0
C2658 C 0.98193 0.14419 0.31947 0.0
C2659 C 0.93855 0.14976 0.34616 0.0
C2660 C 0.95597 0.14735 0.34883 0.0
C2661 C 0.00531 0.13446 0.35758 0.0
C2662 C 0.98855 0.1398 0.35436 0.0
H2663 H 0.90459 0.13364 0.38071 0.0
H2664 H 0.93297 0.12918 0.38036 0.0
H2665 H 0.96077 0.15074 0.28935 0.0
H2666 H 0.04294 0.14499 0.33245 0.0
H2667 H 0.01525 0.15289 0.32206 0.0
C2668 C 0.61843 0.27848 0.08403 0.0
C2669 C 0.6237 0.2823 0.12053 0.0
C2670 C 0.61487 0.26271 0.07454 0.0
C2671 C 0.62262 0.22152 0.10705 0.0
H2672 H 0.58674 0.21053 0.04376 0.0
C2673 C 0.58228 0.16289 0.07204 0.0
C2674 C 0.59443 0.15147 0.07251 0.0
C2675 C 0.58599 0.1791 0.07251 0.0
C2676 C 0.59676 0.2134 0.06166 0.0
H2677 H 0.62881 0.27268 0.176 0.0
H2678 H 0.62226 0.24554 0.15989 0.0
H2679 H 0.59265 0.23842 0.05646 0.0
H2680 H 0.61993 0.14801 0.07102 0.0
H2681 H 0.62638 0.17611 0.07022 0.0
H2682 H 0.62634 0.19669 0.11407 0.0
C2683 C 0.62133 0.25451 0.13812 0.0
C2684 C 0.60026 0.2294 0.06855 0.0
C2685 C 0.62501 0.27014 0.14745 0.0
C2686 C 0.6103 0.15654 0.07129 0.0
C2687 C 0.61399 0.17268 0.07108 0.0
C2688 C 0.61905 0.2056 0.1005 0.0
C2689 C 0.61642 0.25052 0.10145 0.0
C2690 C 0.61312 0.23364 0.09178 0.0
C2691 C 0.60192 0.18419 0.07291 0.0
C2692 C 0.60602 0.20128 0.07792 0.0
H2693 H 0.61732 0.2876 0.06266 0.0
H2694 H 0.6112 0.26005 0.04597 0.0
H2695 H 0.6328 0.22431 0.12448 0.0
H2696 H 0.56994 0.15931 0.07309 0.0
H2697 H 0.57636 0.18758 0.07423 0.0
C2698 C 0.58614 0.86004 0.86554 0.0
C2699 C 0.59286 0.84698 0.84668 0.0
C2700 C 0.56979 0.86237 0.86573 0.0
C2701 C 0.53228 0.8532 0.81835 0.0
H2702 H 0.51471 0.86379 0.91623 0.0
C2703 C 0.46452 0.86231 0.84976 0.0
C2704 C 0.46097 0.87509 0.87386 0.0
C2705 C 0.48034 0.85796 0.84304 0.0
C2706 C 0.51943 0.86096 0.88863 0.0
H2707 H 0.58755 0.82648 0.81179 0.0
H2708 H 0.55872 0.83065 0.81219 0.0
H2709 H 0.54279 0.85767 0.91062 0.0
H2710 H 0.47124 0.8939 0.90789 0.0
H2711 H 0.49858 0.88645 0.8959 0.0
H2712 H 0.50876 0.85676 0.79643 0.0
C2713 C 0.56629 0.83902 0.82686 0.0
C2714 C 0.53552 0.85743 0.88543 0.0
C2715 C 0.58277 0.83662 0.82676 0.0
C2716 C 0.47352 0.88384 0.88964 0.0
C2717 C 0.48922 0.87953 0.88292 0.0
C2718 C 0.51607 0.85678 0.82155 0.0
C2719 C 0.55965 0.85175 0.84705 0.0
C2720 C 0.54221 0.85388 0.85018 0.0
C2721 C 0.49283 0.86631 0.86036 0.0
C2722 C 0.50959 0.86108 0.85665 0.0
H2723 H 0.59347 0.86842 0.88081 0.0
H2724 H 0.56504 0.87248 0.88086 0.0
H2725 H 0.53715 0.85049 0.79083 0.0
H2726 H 0.4551 0.85537 0.83711 0.0
H2727 H 0.48278 0.84773 0.82548 0.0
C2728 C 0.87971 0.27071 0.85243 0.0
C2729 C 0.88003 0.28257 0.88024 0.0
C2730 C 0.88301 0.25498 0.86155 0.0
C2731 C 0.90071 0.22872 0.93413 0.0
H2732 H 0.87535 0.19722 0.88201 0.0
C2733 C 0.8878 0.15638 0.92724 0.0
C2734 C 0.90341 0.1506 0.92925 0.0
C2735 C 0.88485 0.17266 0.92715 0.0
C2736 C 0.88241 0.20579 0.8974 0.0
H2737 H 0.8844 0.28727 0.93941 0.0
H2738 H 0.8898 0.25951 0.95571 0.0
H2739 H 0.87032 0.22508 0.87116 0.0
H2740 H 0.92815 0.1573 0.93419 0.0
H2741 H 0.92307 0.18586 0.93252 0.0
H2742 H 0.9125 0.20924 0.96117 0.0
C2743 C 0.88722 0.2625 0.92666 0.0
C2744 C 0.87969 0.22185 0.89062 0.0
C2745 C 0.88407 0.27837 0.91738 0.0
C2746 C 0.91599 0.16145 0.93271 0.0
C2747 C 0.91305 0.17781 0.93192 0.0
C2748 C 0.90335 0.21256 0.94123 0.0
C2749 C 0.8865 0.25058 0.89887 0.0
C2750 C 0.88896 0.23354 0.90836 0.0
C2751 C 0.89745 0.18362 0.92821 0.0
C2752 C 0.8943 0.20088 0.92267 0.0
H2753 H 0.8769 0.27357 0.8234 0.0
H2754 H 0.88279 0.24623 0.83918 0.0
H2755 H 0.90812 0.23741 0.94818 0.0
H2756 H 0.87784 0.1483 0.92518 0.0
H2757 H 0.87265 0.17665 0.92546 0.0
C2758 C 0.58463 0.16606 0.67069 0.0
C2759 C 0.5953 0.15508 0.65476 0.0
C2760 C 0.56825 0.16304 0.67048 0.0
C2761 C 0.53868 0.14021 0.61718 0.0
H2762 H 0.51096 0.14626 0.70331 0.0
C2763 C 0.47621 0.11467 0.61647 0.0
C2764 C 0.46372 0.1245 0.62845 0.0
C2765 C 0.49194 0.11888 0.62338 0.0
C2766 C 0.51854 0.14468 0.67894 0.0
H2767 H 0.59707 0.13202 0.62755 0.0
H2768 H 0.56879 0.12687 0.62731 0.0
H2769 H 0.53922 0.15312 0.70826 0.0
H2770 H 0.45791 0.14606 0.65885 0.0
H2771 H 0.4856 0.15353 0.67068 0.0
H2772 H 0.51825 0.13182 0.58773 0.0
C2773 C 0.573 0.13791 0.63939 0.0
C2774 C 0.53469 0.14861 0.68177 0.0
C2775 C 0.58927 0.14087 0.63968 0.0
C2776 C 0.46729 0.13826 0.64924 0.0
C2777 C 0.48313 0.14252 0.65605 0.0
C2778 C 0.52265 0.13634 0.61434 0.0
C2779 C 0.56228 0.14905 0.65417 0.0
C2780 C 0.54496 0.14611 0.65107 0.0
C2781 C 0.49562 0.13308 0.64223 0.0
C2782 C 0.51244 0.13821 0.64536 0.0
H2783 H 0.58887 0.17709 0.68269 0.0
H2784 H 0.56025 0.17184 0.68204 0.0
H2785 H 0.5462 0.13853 0.59274 0.0
H2786 H 0.47388 0.10386 0.60088 0.0
H2787 H 0.50126 0.11112 0.61325 0.0
C2788 C 0.61645 0.72391 0.42692 0.0
C2789 C 0.62073 0.72009 0.3897 0.0
C2790 C 0.61337 0.73974 0.43699 0.0
C2791 C 0.622 0.7805 0.40375 0.0
H2792 H 0.58744 0.79342 0.46901 0.0
C2793 C 0.58436 0.84088 0.43597 0.0
C2794 C 0.59691 0.8518 0.43341 0.0
C2795 C 0.58746 0.82456 0.43746 0.0
C2796 C 0.59711 0.79 0.45062 0.0
H2797 H 0.62424 0.72969 0.33351 0.0
H2798 H 0.61859 0.75687 0.35069 0.0
H2799 H 0.59206 0.76516 0.45711 0.0
H2800 H 0.62251 0.85436 0.43355 0.0
H2801 H 0.62794 0.8261 0.4378 0.0
H2802 H 0.62666 0.80507 0.39537 0.0
C2803 C 0.61812 0.74789 0.37252 0.0
C2804 C 0.59986 0.7738 0.44417 0.0
C2805 C 0.6213 0.73224 0.36262 0.0
C2806 C 0.61259 0.8462 0.43479 0.0
C2807 C 0.61569 0.82997 0.43703 0.0
C2808 C 0.6192 0.79658 0.40991 0.0
C2809 C 0.61445 0.75193 0.40993 0.0
C2810 C 0.61216 0.76891 0.42003 0.0
C2811 C 0.60319 0.81888 0.437 0.0
C2812 C 0.60663 0.8016 0.4331 0.0
H2813 H 0.61588 0.71478 0.44836 0.0
H2814 H 0.61056 0.74248 0.46607 0.0
H2815 H 0.63178 0.77716 0.38559 0.0
H2816 H 0.57214 0.8449 0.43488 0.0
H2817 H 0.57752 0.81641 0.43713 0.0
C2818 C 0.90815 0.86043 0.1429 0.0
C2819 C 0.90154 0.84742 0.16219 0.0
C2820 C 0.92451 0.86269 0.14194 0.0
C2821 C 0.96234 0.85366 0.18759 0.0
H2822 H 0.97914 0.86291 0.08818 0.0
C2823 C 0.02989 0.86163 0.15333 0.0
C2824 C 0.03351 0.87382 0.12763 0.0
C2825 C 0.01404 0.85762 0.16084 0.0
C2826 C 0.97465 0.86048 0.11621 0.0
H2827 H 0.90705 0.82698 0.19711 0.0
H2828 H 0.93589 0.83107 0.19544 0.0
H2829 H 0.95105 0.85721 0.09562 0.0
H2830 H 0.02336 0.89198 0.09148 0.0
H2831 H 0.99597 0.88519 0.10497 0.0
H2832 H 0.98606 0.85725 0.20814 0.0
C2833 C 0.92823 0.83942 0.181 0.0
C2834 C 0.95855 0.85718 0.12043 0.0
C2835 C 0.91175 0.83707 0.18183 0.0
C2836 C 0.02101 0.88236 0.11097 0.0
C2837 C 0.00529 0.87841 0.11855 0.0
C2838 C 0.97854 0.85706 0.18337 0.0
C2839 C 0.93475 0.85207 0.16031 0.0
C2840 C 0.95215 0.85408 0.15621 0.0
C2841 C 0.00159 0.86575 0.1428 0.0
C2842 C 0.98477 0.86086 0.14768 0.0
H2843 H 0.90073 0.86879 0.12783 0.0
H2844 H 0.92918 0.87273 0.12641 0.0
H2845 H 0.95768 0.85131 0.2155 0.0
H2846 H 0.03927 0.85486 0.16666 0.0
H2847 H 0.01156 0.84781 0.17968 0.0
C2848 C 0.60856 0.78075 0.91208 0.0
C2849 C 0.62116 0.78482 0.88793 0.0
C2850 C 0.60498 0.76477 0.9192 0.0
C2851 C 0.61084 0.72523 0.87619 0.0
H2852 H 0.59907 0.70855 0.97421 0.0
C2853 C 0.61246 0.65894 0.90612 0.0
C2854 C 0.59886 0.65199 0.92215 0.0
C2855 C 0.61424 0.67537 0.90516 0.0
C2856 C 0.60218 0.71312 0.94664 0.0
H2857 H 0.64044 0.77536 0.85414 0.0
H2858 H 0.63447 0.74775 0.86712 0.0
H2859 H 0.6041 0.73709 0.96671 0.0
H2860 H 0.57681 0.65699 0.95155 0.0
H2861 H 0.58007 0.68593 0.95006 0.0
H2862 H 0.6093 0.70136 0.85622 0.0
C2863 C 0.62701 0.75679 0.87967 0.0
C2864 C 0.60504 0.72943 0.94231 0.0
C2865 C 0.63049 0.77265 0.8724 0.0
C2866 C 0.5874 0.66194 0.93881 0.0
C2867 C 0.58926 0.67849 0.93807 0.0
C2868 C 0.60811 0.70903 0.88057 0.0
C2869 C 0.61399 0.75261 0.90239 0.0
C2870 C 0.60973 0.73559 0.90714 0.0
C2871 C 0.60253 0.68532 0.9204 0.0
C2872 C 0.60406 0.70275 0.91592 0.0
H2873 H 0.60116 0.78988 0.9245 0.0
H2874 H 0.59487 0.76194 0.93682 0.0
H2875 H 0.61396 0.72963 0.84846 0.0
H2876 H 0.62167 0.65173 0.89343 0.0
H2877 H 0.62473 0.68032 0.89198 0.0
C2878 C 0.47782 0.38136 0.10781 0.0
C2879 C 0.46539 0.37279 0.12464 0.0
C2880 C 0.49359 0.37747 0.11516 0.0
C2881 C 0.52044 0.35612 0.18001 0.0
H2882 H 0.54813 0.35664 0.09266 0.0
C2883 C 0.58684 0.33532 0.17992 0.0
C2884 C 0.59738 0.34525 0.16007 0.0
C2885 C 0.57043 0.33808 0.17868 0.0
C2886 C 0.54059 0.35654 0.11739 0.0
H2887 H 0.45981 0.35375 0.16361 0.0
H2888 H 0.48756 0.34679 0.1762 0.0
H2889 H 0.52007 0.36246 0.08501 0.0
H2890 H 0.59885 0.36633 0.12483 0.0
H2891 H 0.57049 0.37102 0.12278 0.0
H2892 H 0.5412 0.35012 0.21227 0.0
C2893 C 0.48501 0.3566 0.15743 0.0
C2894 C 0.5245 0.35991 0.11304 0.0
C2895 C 0.46912 0.36056 0.15014 0.0
C2896 C 0.59116 0.35828 0.1401 0.0
C2897 C 0.57485 0.36096 0.13877 0.0
C2898 C 0.53663 0.35267 0.18436 0.0
C2899 C 0.4974 0.36482 0.13937 0.0
C2900 C 0.51428 0.36007 0.14435 0.0
C2901 C 0.56427 0.35075 0.15741 0.0
C2902 C 0.54691 0.35317 0.15315 0.0
H2903 H 0.47539 0.39101 0.08844 0.0
H2904 H 0.50284 0.38431 0.10153 0.0
H2905 H 0.51287 0.35617 0.20469 0.0
H2906 H 0.59122 0.32522 0.19571 0.0
H2907 H 0.56254 0.33002 0.19332 0.0
C2908 C 0.89045 0.22107 0.41401 0.0
C2909 C 0.87813 0.21735 0.38875 0.0
C2910 C 0.89444 0.23695 0.42122 0.0
C2911 C 0.89096 0.27634 0.37654 0.0
H2912 H 0.90027 0.29349 0.47558 0.0
C2913 C 0.88939 0.34275 0.40347 0.0
C2914 C 0.90248 0.34973 0.42173 0.0
C2915 C 0.88754 0.32634 0.40279 0.0
C2916 C 0.89788 0.28878 0.44775 0.0
H2917 H 0.85973 0.22735 0.35305 0.0
H2918 H 0.86647 0.25478 0.366 0.0
H2919 H 0.89483 0.265 0.46838 0.0
H2920 H 0.92348 0.34479 0.45526 0.0
H2921 H 0.92008 0.31586 0.45417 0.0
H2922 H 0.89363 0.30001 0.3559 0.0
C2923 C 0.87338 0.24553 0.37946 0.0
C2924 C 0.89477 0.27251 0.4436 0.0
C2925 C 0.86946 0.22977 0.37218 0.0
C2926 C 0.91331 0.33982 0.44078 0.0
C2927 C 0.91136 0.32328 0.44026 0.0
C2928 C 0.89396 0.29249 0.38069 0.0
C2929 C 0.88615 0.24934 0.40331 0.0
C2930 C 0.8909 0.26621 0.40802 0.0
C2931 C 0.89865 0.31641 0.42046 0.0
C2932 C 0.89709 0.29896 0.41639 0.0
H2933 H 0.89732 0.21174 0.42728 0.0
H2934 H 0.90433 0.23952 0.43977 0.0
H2935 H 0.88847 0.2718 0.34858 0.0
H2936 H 0.88067 0.34993 0.38889 0.0
H2937 H 0.87745 0.32138 0.38793 0.0
C2938 C 0.91327 0.66561 0.67286 0.0
C2939 C 0.90145 0.65386 0.67142 0.0
C2940 C 0.92934 0.66143 0.67128 0.0
C2941 C 0.96322 0.6496 0.68073 0.0
H2942 H 0.97346 0.61431 0.615 0.0
C2943 C 0.02796 0.62766 0.65814 0.0
C2944 C 0.03197 0.6227 0.62153 0.0
C2945 C 0.01214 0.63105 0.66743 0.0
C2946 C 0.97087 0.62429 0.63321 0.0
H2947 H 0.8972 0.62849 0.66957 0.0
H2948 H 0.92509 0.62117 0.66842 0.0
H2949 H 0.94596 0.62131 0.62548 0.0
H2950 H 0.02261 0.61775 0.56576 0.0
H2951 H 0.99533 0.62408 0.58146 0.0
H2952 H 0.98829 0.65307 0.68665 0.0
C2953 C 0.92205 0.63365 0.66926 0.0
C2954 C 0.95501 0.62815 0.63981 0.0
C2955 C 0.90602 0.63784 0.67019 0.0
C2956 C 0.01991 0.62136 0.59437 0.0
C2957 C 0.0042 0.6249 0.60348 0.0
C2958 C 0.97915 0.64584 0.67376 0.0
C2959 C 0.93394 0.64539 0.66878 0.0
C2960 C 0.95093 0.64092 0.66347 0.0
C2961 C 1.00005 0.62968 0.64018 0.0
C2962 C 0.98317 0.63324 0.64955 0.0
H2963 H 0.9101 0.67807 0.67362 0.0
H2964 H 0.9381 0.67083 0.67053 0.0
H2965 H 0.96057 0.65937 0.69953 0.0
H2966 H 0.03699 0.62875 0.67973 0.0
H2967 H 0.00938 0.63452 0.69607 0.0
C2968 C 0.63349 0.22981 0.61839 0.0
C2969 C 0.62371 0.21756 0.60487 0.0
C2970 C 0.62999 0.2456 0.61048 0.0
C2971 C 0.60723 0.27292 0.54999 0.0
H2972 H 0.61131 0.30039 0.63723 0.0
C2973 C 0.5893 0.34033 0.55574 0.0
C2974 C 0.60039 0.35018 0.57404 0.0
C2975 C 0.59133 0.3238 0.55553 0.0
C2976 C 0.6102 0.2929 0.61253 0.0
H2977 H 0.60304 0.21225 0.57067 0.0
H2978 H 0.5968 0.24013 0.55702 0.0
H2979 H 0.61638 0.27215 0.64369 0.0
H2980 H 0.6228 0.35033 0.60452 0.0
H2981 H 0.62624 0.32181 0.60401 0.0
H2982 H 0.60105 0.29397 0.51895 0.0
C2983 C 0.60721 0.23738 0.5737 0.0
C2984 C 0.61313 0.27672 0.6162 0.0
C2985 C 0.61077 0.22144 0.58154 0.0
C2986 C 0.61386 0.34318 0.59061 0.0
C2987 C 0.61584 0.32679 0.59046 0.0
C2988 C 0.60424 0.28924 0.54632 0.0
C2989 C 0.61656 0.24962 0.58904 0.0
C2990 C 0.61207 0.26659 0.58486 0.0
C2991 C 0.60444 0.31688 0.57376 0.0
C2992 C 0.60608 0.29942 0.57744 0.0
H2993 H 0.64371 0.22723 0.63592 0.0
H2994 H 0.63768 0.25474 0.62186 0.0
H2995 H 0.60629 0.26538 0.52537 0.0
H2996 H 0.57882 0.34533 0.54259 0.0
H2997 H 0.58237 0.31641 0.54241 0.0
C2998 C 0.03403 0.36197 0.84681 0.0
C2999 C 0.03793 0.37448 0.87139 0.0
C3000 C 0.0181 0.35805 0.84005 0.0
C3001 C 0.9788 0.36205 0.88495 0.0
H3002 H 0.96177 0.35096 0.78683 0.0
C3003 C 0.912 0.35928 0.85991 0.0
C3004 C 0.90587 0.34606 0.84053 0.0
C3005 C 0.92828 0.3622 0.86072 0.0
C3006 C 0.96642 0.35387 0.81444 0.0
H3007 H 0.02817 0.39321 0.90647 0.0
H3008 H 0.00062 0.38655 0.8943 0.0
H3009 H 0.99009 0.3572 0.79336 0.0
H3010 H 0.91213 0.3259 0.80544 0.0
H3011 H 0.94075 0.33107 0.80697 0.0
H3012 H 0.95528 0.35889 0.9061 0.0
C3013 C 0.00979 0.37948 0.88098 0.0
C3014 C 0.98261 0.35744 0.81819 0.0
C3015 C 0.02561 0.38336 0.8878 0.0
C3016 C 0.91644 0.33615 0.82077 0.0
C3017 C 0.93282 0.33913 0.82152 0.0
C3018 C 0.96271 0.35855 0.8812 0.0
C3019 C 0.00582 0.36657 0.85774 0.0
C3020 C 0.98891 0.36184 0.85343 0.0
C3021 C 0.93891 0.35201 0.84216 0.0
C3022 C 0.95627 0.35469 0.84585 0.0
H3023 H 0.04325 0.35492 0.8337 0.0
H3024 H 0.01542 0.34802 0.82204 0.0
H3025 H 0.98333 0.36496 0.91268 0.0
H3026 H 0.90427 0.36732 0.8751 0.0
H3027 H 0.93257 0.37242 0.87621 0.0
C3028 C 0.86596 0.77306 0.13559 0.0
C3029 C 0.87449 0.78571 0.1196 0.0
C3030 C 0.87031 0.7574 0.12835 0.0
C3031 C 0.89336 0.73115 0.0654 0.0
H3032 H 0.89205 0.70344 0.15269 0.0
C3033 C 0.91532 0.66503 0.06845 0.0
C3034 C 0.90491 0.65441 0.08662 0.0
C3035 C 0.91241 0.68142 0.06929 0.0
C3036 C 0.89241 0.711 0.128 0.0
H3037 H 0.8939 0.79182 0.08215 0.0
H3038 H 0.90167 0.76427 0.06982 0.0
H3039 H 0.88551 0.73136 0.15978 0.0
H3040 H 0.88288 0.65278 0.11837 0.0
H3041 H 0.87799 0.6811 0.11989 0.0
H3042 H 0.90035 0.71053 0.03378 0.0
C3043 C 0.89154 0.76655 0.08781 0.0
C3044 C 0.88861 0.727 0.13201 0.0
C3045 C 0.88711 0.78232 0.09493 0.0
C3046 C 0.8913 0.66053 0.10447 0.0
C3047 C 0.88849 0.67681 0.10548 0.0
C3048 C 0.89726 0.71505 0.06141 0.0
C3049 C 0.88339 0.75394 0.10517 0.0
C3050 C 0.88867 0.73721 0.10066 0.0
C3051 C 0.89913 0.68746 0.08854 0.0
C3052 C 0.89647 0.70477 0.09258 0.0
H3053 H 0.85602 0.77523 0.15427 0.0
H3054 H 0.8635 0.74797 0.14137 0.0
H3055 H 0.89352 0.73872 0.04072 0.0
H3056 H 0.92586 0.66073 0.05428 0.0
H3057 H 0.9208 0.68939 0.05598 0.0
C3058 C 0.59108 0.63937 0.33896 0.0
C3059 C 0.59568 0.65539 0.33809 0.0
C3060 C 0.57505 0.63519 0.33883 0.0
C3061 C 0.54175 0.62961 0.36586 0.0
H3062 H 0.50902 0.65461 0.3171 0.0
C3063 C 0.47643 0.6223 0.40657 0.0
C3064 C 0.46469 0.62355 0.37858 0.0
C3065 C 0.49218 0.6261 0.39866 0.0
C3066 C 0.51801 0.64737 0.33052 0.0
H3067 H 0.58707 0.67961 0.3355 0.0
H3068 H 0.55904 0.67238 0.3368 0.0
H3069 H 0.53688 0.661 0.30629 0.0
H3070 H 0.46029 0.62981 0.32024 0.0
H3071 H 0.48803 0.63604 0.30597 0.0
H3072 H 0.52303 0.61566 0.38908 0.0
C3073 C 0.5678 0.66297 0.33657 0.0
C3074 C 0.53401 0.65118 0.32474 0.0
C3075 C 0.58389 0.66715 0.33602 0.0
C3076 C 0.46907 0.62877 0.34242 0.0
C3077 C 0.48495 0.63241 0.33432 0.0
C3078 C 0.52582 0.62571 0.37125 0.0
C3079 C 0.56316 0.64693 0.33862 0.0
C3080 C 0.5461 0.64245 0.34271 0.0
C3081 C 0.49673 0.63104 0.36235 0.0
C3082 C 0.51371 0.63468 0.35422 0.0
H3083 H 0.59989 0.63001 0.34004 0.0
H3084 H 0.572 0.62271 0.33936 0.0
H3085 H 0.55062 0.62273 0.3807 0.0
H3086 H 0.47344 0.61853 0.43489 0.0
H3087 H 0.50078 0.6253 0.42127 0.0
C3088 C 0.4135 0.33519 0.06298 0.0
C3089 C 0.40255 0.34556 0.08013 0.0
C3090 C 0.41075 0.31877 0.06273 0.0
C3091 C 0.38918 0.28873 0.11731 0.0
H3092 H 0.39442 0.26108 0.03076 0.0
C3093 C 0.36363 0.22646 0.11931 0.0
C3094 C 0.3735 0.21392 0.10784 0.0
C3095 C 0.36777 0.24213 0.11172 0.0
C3096 C 0.39307 0.26866 0.05522 0.0
H3097 H 0.37973 0.34677 0.1086 0.0
H3098 H 0.37501 0.31843 0.1079 0.0
H3099 H 0.4009 0.28944 0.02533 0.0
H3100 H 0.39503 0.20795 0.07746 0.0
H3101 H 0.40237 0.2356 0.06435 0.0
H3102 H 0.38134 0.26822 0.14727 0.0
C3103 C 0.38585 0.3229 0.09535 0.0
C3104 C 0.39678 0.28485 0.05212 0.0
C3105 C 0.38856 0.3392 0.0956 0.0
C3106 C 0.3872 0.21738 0.08671 0.0
C3107 C 0.3914 0.23318 0.07918 0.0
C3108 C 0.38551 0.27268 0.12038 0.0
C3109 C 0.39705 0.31246 0.07971 0.0
C3110 C 0.39452 0.29509 0.08298 0.0
C3111 C 0.38194 0.24571 0.09265 0.0
C3112 C 0.38706 0.26251 0.08921 0.0
H3113 H 0.42437 0.3397 0.05069 0.0
H3114 H 0.41958 0.31098 0.05046 0.0
H3115 H 0.38771 0.29623 0.14187 0.0
H3116 H 0.35286 0.22421 0.13511 0.0
H3117 H 0.36002 0.25151 0.12161 0.0
C3118 C 0.41705 0.66436 0.83263 0.0
C3119 C 0.40617 0.6537 0.84896 0.0
C3120 C 0.43337 0.66117 0.83348 0.0
C3121 C 0.46288 0.63828 0.88715 0.0
H3122 H 0.48995 0.64361 0.7996 0.0
C3123 C 0.52566 0.6132 0.88648 0.0
C3124 C 0.53791 0.623 0.87306 0.0
C3125 C 0.50982 0.61716 0.88022 0.0
C3126 C 0.48256 0.64222 0.82436 0.0
H3127 H 0.40399 0.63113 0.87821 0.0
H3128 H 0.43226 0.62568 0.87965 0.0
H3129 H 0.46174 0.65057 0.7956 0.0
H3130 H 0.54318 0.64424 0.84088 0.0
H3131 H 0.51532 0.65129 0.83023 0.0
H3132 H 0.4835 0.63001 0.91605 0.0
C3133 C 0.42822 0.63659 0.86664 0.0
C3134 C 0.46644 0.64621 0.82209 0.0
C3135 C 0.41197 0.63972 0.86567 0.0
C3136 C 0.53398 0.63646 0.85157 0.0
C3137 C 0.51804 0.64048 0.84544 0.0
C3138 C 0.47891 0.63434 0.88944 0.0
C3139 C 0.43911 0.64732 0.85085 0.0
C3140 C 0.45639 0.64404 0.85334 0.0
C3141 C 0.5058 0.63108 0.86061 0.0
C3142 C 0.4889 0.63602 0.85795 0.0
H3143 H 0.413 0.6752 0.81934 0.0
H3144 H 0.4415 0.66969 0.82122 0.0
H3145 H 0.45553 0.63682 0.91197 0.0
H3146 H 0.52827 0.60261 0.90267 0.0
H3147 H 0.50068 0.60943 0.89141 0.0
C3148 C 0.106 0.65866 0.60724 0.0
C3149 C 0.09376 0.65196 0.58546 0.0
C3150 C 0.10829 0.67502 0.60812 0.0
C3151 C 0.10129 0.7124 0.55842 0.0
H3152 H 0.10844 0.73024 0.6578 0.0
C3153 C 0.11089 0.78011 0.58984 0.0
C3154 C 0.12292 0.78344 0.61621 0.0
C3155 C 0.10627 0.76438 0.58284 0.0
C3156 C 0.10656 0.72544 0.62981 0.0
H3157 H 0.07467 0.65733 0.54632 0.0
H3158 H 0.0788 0.68615 0.54789 0.0
H3159 H 0.10207 0.70223 0.65149 0.0
H3160 H 0.14014 0.77282 0.65419 0.0
H3161 H 0.13224 0.74566 0.64178 0.0
H3162 H 0.1061 0.73575 0.53685 0.0
C3163 C 0.08654 0.67857 0.56432 0.0
C3164 C 0.10289 0.7094 0.62621 0.0
C3165 C 0.08416 0.66209 0.56356 0.0
C3166 C 0.13066 0.77073 0.63413 0.0
C3167 C 0.12608 0.75513 0.62717 0.0
C3168 C 0.10501 0.72856 0.56203 0.0
C3169 C 0.09846 0.68518 0.58719 0.0
C3170 C 0.10061 0.7026 0.59048 0.0
C3171 C 0.1136 0.75177 0.60216 0.0
C3172 C 0.10809 0.73513 0.59776 0.0
H3173 H 0.11379 0.65131 0.62415 0.0
H3174 H 0.11779 0.67974 0.6254 0.0
H3175 H 0.09959 0.70745 0.53053 0.0
H3176 H 0.10473 0.78964 0.5755 0.0
H3177 H 0.09663 0.76212 0.56337 0.0
C3178 C 0.08961 0.36017 0.36929 0.0
C3179 C 0.0953 0.34633 0.35174 0.0
C3180 C 0.07338 0.36334 0.37075 0.0
C3181 C 0.03506 0.35456 0.32618 0.0
H3182 H 0.01825 0.36921 0.42181 0.0
C3183 C 0.96767 0.36482 0.35568 0.0
C3184 C 0.96387 0.37792 0.3785 0.0
C3185 C 0.98356 0.36057 0.34971 0.0
C3186 C 0.02277 0.36532 0.39476 0.0
H3187 H 0.08831 0.32515 0.32105 0.0
H3188 H 0.05983 0.33076 0.32366 0.0
H3189 H 0.04618 0.36229 0.41681 0.0
H3190 H 0.97372 0.39743 0.41094 0.0
H3191 H 0.00123 0.39026 0.39994 0.0
H3192 H 0.01156 0.35779 0.3041 0.0
C3193 C 0.06804 0.33912 0.33628 0.0
C3194 C 0.03877 0.36131 0.39194 0.0
C3195 C 0.08433 0.33587 0.335 0.0
C3196 C 0.97623 0.38712 0.39368 0.0
C3197 C 0.99202 0.38295 0.38756 0.0
C3198 C 0.01898 0.35865 0.32896 0.0
C3199 C 0.0624 0.3528 0.35455 0.0
C3200 C 0.04516 0.35611 0.35754 0.0
C3201 C 0.99589 0.3694 0.36635 0.0
C3202 C 0.01273 0.36431 0.36319 0.0
H3203 H 0.09766 0.3686 0.38216 0.0
H3204 H 0.06941 0.37412 0.38447 0.0
H3205 H 0.03969 0.35064 0.29926 0.0
H3206 H 0.95839 0.35751 0.3436 0.0
H3207 H 0.98615 0.35006 0.33328 0.0
C3208 C 0.38892 0.65737 0.39655 0.0
C3209 C 0.40184 0.65069 0.416 0.0
C3210 C 0.38655 0.67373 0.39625 0.0
C3211 C 0.39576 0.71135 0.44362 0.0
H3212 H 0.38611 0.72884 0.34509 0.0
C3213 C 0.38904 0.77923 0.41086 0.0
C3214 C 0.3767 0.78318 0.38583 0.0
C3215 C 0.39273 0.76328 0.41807 0.0
C3216 C 0.38864 0.72415 0.37289 0.0
H3217 H 0.42204 0.65605 0.45187 0.0
H3218 H 0.41783 0.68484 0.45123 0.0
H3219 H 0.39147 0.70064 0.35143 0.0
H3220 H 0.35791 0.77352 0.35073 0.0
H3221 H 0.36416 0.74597 0.36364 0.0
H3222 H 0.39273 0.73503 0.46497 0.0
C3223 C 0.40958 0.67727 0.43621 0.0
C3224 C 0.39174 0.70799 0.3765 0.0
C3225 C 0.412 0.6608 0.43645 0.0
C3226 C 0.36767 0.77092 0.36965 0.0
C3227 C 0.3713 0.75509 0.37692 0.0
C3228 C 0.39261 0.72763 0.44 0.0
C3229 C 0.39702 0.68389 0.4154 0.0
C3230 C 0.395 0.70133 0.41195 0.0
C3231 C 0.38411 0.75106 0.40039 0.0
C3232 C 0.38868 0.73412 0.40465 0.0
H3233 H 0.3807 0.65001 0.38087 0.0
H3234 H 0.37657 0.67846 0.38061 0.0
H3235 H 0.39825 0.70652 0.4713 0.0
H3236 H 0.39618 0.78843 0.42382 0.0
H3237 H 0.40266 0.76052 0.43632 0.0
C3238 C 0.97212 0.63183 0.16585 0.0
C3239 C 0.96816 0.62639 0.12958 0.0
C3240 C 0.988 0.6349 0.17535 0.0
C3241 C 0.02892 0.62541 0.14341 0.0
H3242 H 0.04121 0.66169 0.2039 0.0
C3243 C 0.0887 0.66474 0.17282 0.0
C3244 C 0.09983 0.65234 0.17185 0.0
C3245 C 0.07242 0.66139 0.17387 0.0
C3246 C 0.03798 0.65155 0.18679 0.0
H3247 H 0.97769 0.62043 0.0745 0.0
H3248 H 0.005 0.62611 0.09057 0.0
H3249 H 0.0131 0.65644 0.19225 0.0
H3250 H 0.10281 0.62682 0.17426 0.0
H3251 H 0.07462 0.62097 0.17795 0.0
H3252 H 0.05358 0.62092 0.1359 0.0
C3253 C 0.99605 0.62755 0.11221 0.0
C3254 C 0.02185 0.64843 0.18052 0.0
C3255 C 0.98031 0.62437 0.10289 0.0
C3256 C 0.09447 0.63661 0.1743 0.0
C3257 C 0.07828 0.63327 0.17616 0.0
C3258 C 0.04496 0.6286 0.14929 0.0
C3259 C 0.00016 0.63265 0.14865 0.0
C3260 C 0.01715 0.63545 0.1582 0.0
C3261 C 0.06699 0.64557 0.17462 0.0
C3262 C 0.04976 0.64179 0.17077 0.0
H3263 H 0.963 0.63349 0.18702 0.0
H3264 H 0.99076 0.63874 0.20373 0.0
H3265 H 0.02577 0.61511 0.12672 0.0
H3266 H 0.09254 0.67699 0.17082 0.0
H3267 H 0.06413 0.67119 0.17232 0.0
C3268 C 0.12401 0.22679 0.84555 0.0
C3269 C 0.12279 0.21471 0.87266 0.0
C3270 C 0.12104 0.24254 0.85512 0.0
C3271 C 0.10252 0.26869 0.92651 0.0
H3272 H 0.12945 0.2999 0.87795 0.0
C3273 C 0.11601 0.341 0.91953 0.0
C3274 C 0.10039 0.34679 0.91946 0.0
C3275 C 0.11895 0.32472 0.92065 0.0
C3276 C 0.12195 0.29142 0.89241 0.0
H3277 H 0.11717 0.20963 0.93106 0.0
H3278 H 0.11233 0.23742 0.9482 0.0
H3279 H 0.13433 0.27199 0.86758 0.0
H3280 H 0.07557 0.34015 0.92196 0.0
H3281 H 0.08063 0.31159 0.92222 0.0
H3282 H 0.09039 0.2883 0.95212 0.0
C3283 C 0.11538 0.2346 0.91932 0.0
C3284 C 0.1246 0.27533 0.88588 0.0
C3285 C 0.11821 0.2187 0.90957 0.0
C3286 C 0.08774 0.33599 0.9221 0.0
C3287 C 0.09067 0.31962 0.92243 0.0
C3288 C 0.09995 0.28488 0.9334 0.0
C3289 C 0.11698 0.24673 0.89224 0.0
C3290 C 0.11474 0.26375 0.90215 0.0
C3291 C 0.10633 0.31377 0.92075 0.0
C3292 C 0.10953 0.29647 0.91603 0.0
H3293 H 0.12723 0.22411 0.81668 0.0
H3294 H 0.12193 0.25146 0.83323 0.0
H3295 H 0.09467 0.26009 0.93944 0.0
H3296 H 0.126 0.34908 0.91815 0.0
H3297 H 0.13116 0.32073 0.92054 0.0
C3298 C 0.4129 0.35956 0.6227 0.0
C3299 C 0.40716 0.34577 0.64041 0.0
C3300 C 0.42914 0.36269 0.62125 0.0
C3301 C 0.46733 0.35405 0.66646 0.0
H3302 H 0.48442 0.36851 0.57094 0.0
C3303 C 0.53478 0.36466 0.63879 0.0
C3304 C 0.53863 0.37775 0.61596 0.0
C3305 C 0.51889 0.36028 0.64415 0.0
C3306 C 0.47982 0.36467 0.59796 0.0
H3307 H 0.4141 0.32463 0.67136 0.0
H3308 H 0.44259 0.33019 0.66882 0.0
H3309 H 0.45648 0.36153 0.57552 0.0
H3310 H 0.52884 0.39704 0.58268 0.0
H3311 H 0.50132 0.38963 0.59263 0.0
H3312 H 0.49074 0.35742 0.68895 0.0
C3313 C 0.43441 0.33853 0.65604 0.0
C3314 C 0.46382 0.36063 0.60053 0.0
C3315 C 0.4181 0.33532 0.65728 0.0
C3316 C 0.5263 0.38675 0.60001 0.0
C3317 C 0.5105 0.38244 0.60552 0.0
C3318 C 0.48341 0.35818 0.66392 0.0
C3319 C 0.44008 0.35217 0.63766 0.0
C3320 C 0.45734 0.35549 0.63489 0.0
C3321 C 0.50659 0.36895 0.62688 0.0
C3322 C 0.48976 0.36378 0.62974 0.0
H3323 H 0.40488 0.36799 0.60972 0.0
H3324 H 0.43314 0.37343 0.60743 0.0
H3325 H 0.46262 0.35019 0.69335 0.0
H3326 H 0.54402 0.35749 0.65146 0.0
H3327 H 0.51627 0.3498 0.66071 0.0
C3328 C 0.13569 0.10042 0.48241 0.0
C3329 C 0.1221 0.09118 0.47633 0.0
C3330 C 0.14363 0.09973 0.517 0.0
C3331 C 0.15968 0.09694 0.59274 0.0
H3332 H 0.12896 0.09516 0.67402 0.0
C3333 C 0.15115 0.11401 0.76108 0.0
C3334 C 0.15461 0.13029 0.75834 0.0
C3335 C 0.15155 0.10437 0.72892 0.0
C3336 C 0.13782 0.09532 0.65189 0.0
H3337 H 0.10708 0.07278 0.49941 0.0
H3338 H 0.12148 0.07075 0.55887 0.0
H3339 H 0.1213 0.0866 0.61156 0.0
H3340 H 0.16269 0.14886 0.72061 0.0
H3341 H 0.16371 0.13206 0.66499 0.0
H3342 H 0.17567 0.10714 0.63316 0.0
C3343 C 0.12565 0.07911 0.53792 0.0
C3344 C 0.13346 0.09034 0.61583 0.0
C3345 C 0.11748 0.08011 0.50373 0.0
C3346 C 0.15983 0.13641 0.72363 0.0
C3347 C 0.16054 0.12674 0.69177 0.0
C3348 C 0.16394 0.1022 0.62878 0.0
C3349 C 0.13826 0.08957 0.54591 0.0
C3350 C 0.14412 0.09163 0.58537 0.0
C3351 C 0.15579 0.1108 0.69375 0.0
C3352 C 0.15286 0.10193 0.65835 0.0
H3353 H 0.13934 0.10918 0.46185 0.0
H3354 H 0.15315 0.1081 0.52188 0.0
H3355 H 0.16837 0.09774 0.57034 0.0
H3356 H 0.14712 0.10892 0.78743 0.0
H3357 H 0.14786 0.09209 0.73117 0.0
C3358 C 0.16662 0.86209 0.75794 0.0
C3359 C 0.15599 0.86711 0.72997 0.0
C3360 C 0.1676 0.87019 0.7922 0.0
C3361 C 0.15115 0.90512 0.84594 0.0
H3362 H 0.15141 0.87471 0.928 0.0
C3363 C 0.11269 0.90884 0.97838 0.0
C3364 C 0.11851 0.90299 0.01282 0.0
C3365 C 0.12219 0.90875 0.9462 0.0
C3366 C 0.15168 0.88347 0.90565 0.0
H3367 H 0.13872 0.88496 0.71457 0.0
H3368 H 0.13976 0.89872 0.77484 0.0
H3369 H 0.15935 0.86631 0.86563 0.0
H3370 H 0.13927 0.89358 0.04118 0.0
H3371 H 0.15583 0.89304 0.98444 0.0
H3372 H 0.1421 0.92188 0.88612 0.0
C3373 C 0.1478 0.88888 0.77032 0.0
C3374 C 0.1563 0.87867 0.86965 0.0
C3375 C 0.14713 0.88098 0.73566 0.0
C3376 C 0.13444 0.89813 0.01504 0.0
C3377 C 0.1439 0.89778 0.98258 0.0
C3378 C 0.14629 0.90985 0.88197 0.0
C3379 C 0.15756 0.88319 0.79967 0.0
C3380 C 0.1556 0.88927 0.83895 0.0
C3381 C 0.13766 0.90259 0.94761 0.0
C3382 C 0.14604 0.89892 0.91189 0.0
H3383 H 0.17368 0.85148 0.75391 0.0
H3384 H 0.17565 0.86574 0.81352 0.0
H3385 H 0.1508 0.91373 0.82331 0.0
H3386 H 0.10052 0.91279 0.97583 0.0
H3387 H 0.117 0.91241 0.91963 0.0
C3388 C 0.3819 0.91893 0.01405 0.0
C3389 C 0.37698 0.90805 0.98655 0.0
C3390 C 0.37416 0.91967 0.04883 0.0
C3391 C 0.36728 0.90786 0.12678 0.0
H3392 H 0.32513 0.89137 0.14634 0.0
C3393 C 0.34106 0.86196 0.23601 0.0
C3394 C 0.34667 0.86797 0.27048 0.0
C3395 C 0.3404 0.87161 0.20411 0.0
C3396 C 0.33686 0.8962 0.14134 0.0
H3397 H 0.35963 0.89009 0.97254 0.0
H3398 H 0.34653 0.89073 0.03353 0.0
H3399 H 0.33183 0.90093 0.08328 0.0
H3400 H 0.35502 0.88912 0.29912 0.0
H3401 H 0.35431 0.90594 0.24278 0.0
H3402 H 0.37239 0.90277 0.18458 0.0
C3403 C 0.35598 0.89915 0.02831 0.0
C3404 C 0.34077 0.90156 0.10516 0.0
C3405 C 0.3635 0.89872 0.99319 0.0
C3406 C 0.35066 0.88414 0.27295 0.0
C3407 C 0.35029 0.89376 0.24075 0.0
C3408 C 0.36328 0.90276 0.16298 0.0
C3409 C 0.36167 0.90913 0.05725 0.0
C3410 C 0.35626 0.90682 0.09698 0.0
C3411 C 0.34557 0.88743 0.2058 0.0
C3412 C 0.34826 0.89628 0.17025 0.0
H3413 H 0.39222 0.92633 0.00933 0.0
H3414 H 0.37857 0.92789 0.06982 0.0
H3415 H 0.37941 0.91154 0.12184 0.0
H3416 H 0.33778 0.84961 0.23324 0.0
H3417 H 0.33685 0.86636 0.17752 0.0
C3418 C 0.36519 0.09079 0.5084 0.0
C3419 C 0.38183 0.09164 0.50545 0.0
C3420 C 0.35576 0.09012 0.47588 0.0
C3421 C 0.35798 0.08632 0.37051 0.0
H3422 H 0.32641 0.11975 0.3722 0.0
C3423 C 0.33922 0.11667 0.23304 0.0
C3424 C 0.34067 0.13328 0.23549 0.0
C3425 C 0.33836 0.10742 0.26582 0.0
C3426 C 0.33509 0.11027 0.37121 0.0
H3427 H 0.40156 0.09113 0.46606 0.0
H3428 H 0.38534 0.09017 0.41016 0.0
H3429 H 0.33701 0.10966 0.43123 0.0
H3430 H 0.34109 0.15321 0.27434 0.0
H3431 H 0.33986 0.13728 0.33073 0.0
H3432 H 0.35724 0.08805 0.31048 0.0
C3433 C 0.37943 0.08987 0.43726 0.0
C3434 C 0.34104 0.10432 0.40517 0.0
C3435 C 0.3888 0.09059 0.46955 0.0
C3436 C 0.34008 0.14046 0.27123 0.0
C3437 C 0.3392 0.13127 0.30379 0.0
C3438 C 0.35218 0.09241 0.33655 0.0
C3439 C 0.36278 0.09018 0.43987 0.0
C3440 C 0.35323 0.09292 0.40515 0.0
C3441 C 0.33886 0.11461 0.30164 0.0
C3442 C 0.34134 0.1051 0.33654 0.0
H3443 H 0.35943 0.09149 0.53564 0.0
H3444 H 0.34296 0.09019 0.4789 0.0
H3445 H 0.36706 0.07722 0.36952 0.0
H3446 H 0.33956 0.11075 0.20595 0.0
H3447 H 0.33793 0.09463 0.26314 0.0
C3448 C 0.8522 0.88378 0.23804 0.0
C3449 C 0.84315 0.86997 0.23337 0.0
C3450 C 0.85184 0.89202 0.27226 0.0
C3451 C 0.84334 0.88318 0.37254 0.0
H3452 H 0.85865 0.92621 0.38575 0.0
C3453 C 0.86514 0.90418 0.51661 0.0
C3454 C 0.88135 0.90806 0.51439 0.0
C3455 C 0.8558 0.90382 0.48397 0.0
C3456 C 0.85414 0.91424 0.38249 0.0
H3457 H 0.82543 0.85478 0.25873 0.0
H3458 H 0.82392 0.86968 0.31751 0.0
H3459 H 0.84972 0.91745 0.32358 0.0
H3460 H 0.89999 0.91624 0.47696 0.0
H3461 H 0.88367 0.91594 0.42047 0.0
H3462 H 0.84805 0.87993 0.43124 0.0
C3463 C 0.83194 0.8738 0.29577 0.0
C3464 C 0.84916 0.90915 0.34683 0.0
C3465 C 0.83265 0.86533 0.26197 0.0
C3466 C 0.88759 0.91307 0.47962 0.0
C3467 C 0.8782 0.91301 0.44722 0.0
C3468 C 0.84803 0.88837 0.40819 0.0
C3469 C 0.84216 0.88677 0.30221 0.0
C3470 C 0.84431 0.89332 0.34103 0.0
C3471 C 0.86242 0.90769 0.44877 0.0
C3472 C 0.85405 0.90374 0.41325 0.0
H3473 H 0.86051 0.88747 0.21645 0.0
H3474 H 0.86002 0.9018 0.27595 0.0
H3475 H 0.83999 0.87084 0.36951 0.0
H3476 H 0.85994 0.90033 0.54297 0.0
H3477 H 0.84363 0.89975 0.48591 0.0
C3478 C 0.88704 0.08699 0.03084 0.0
C3479 C 0.88094 0.0924 0.99628 0.0
C3480 C 0.87776 0.08738 0.06338 0.0
C3481 C 0.8487 0.11329 0.10293 0.0
H3482 H 0.85035 0.08452 0.18816 0.0
C3483 C 0.83547 0.13732 0.2494 0.0
C3484 C 0.84625 0.1326 0.27737 0.0
C3485 C 0.83417 0.12871 0.2159 0.0
C3486 C 0.84979 0.09273 0.16472 0.0
H3487 H 0.85985 0.10117 0.96809 0.0
H3488 H 0.8437 0.10226 0.02539 0.0
H3489 H 0.85832 0.07521 0.12571 0.0
H3490 H 0.86346 0.11484 0.29358 0.0
H3491 H 0.8619 0.10022 0.23451 0.0
H3492 H 0.84159 0.1312 0.14165 0.0
C3493 C 0.85568 0.09765 0.0271 0.0
C3494 C 0.85423 0.08733 0.1289 0.0
C3495 C 0.86492 0.09698 0.99431 0.0
C3496 C 0.85497 0.1186 0.27246 0.0
C3497 C 0.85399 0.11019 0.23852 0.0
C3498 C 0.84452 0.11876 0.1387 0.0
C3499 C 0.86223 0.09341 0.06216 0.0
C3500 C 0.85419 0.09772 0.09791 0.0
C3501 C 0.84402 0.11551 0.20914 0.0
C3502 C 0.84552 0.10872 0.17039 0.0
H3503 H 0.89929 0.08326 0.03324 0.0
H3504 H 0.88318 0.08414 0.08999 0.0
H3505 H 0.84878 0.12165 0.07972 0.0
H3506 H 0.82849 0.14801 0.25287 0.0
H3507 H 0.82597 0.1329 0.1946 0.0
C3508 C 0.65334 0.14238 0.76816 0.0
C3509 C 0.65298 0.13543 0.73214 0.0
C3510 C 0.65421 0.13301 0.80042 0.0
C3511 C 0.64179 0.0939 0.83248 0.0
H3512 H 0.65748 0.11081 0.92708 0.0
C3513 C 0.60594 0.09167 0.96637 0.0
C3514 C 0.61306 0.09253 0.00215 0.0
C3515 C 0.61516 0.09101 0.93387 0.0
C3516 C 0.65332 0.10556 0.90102 0.0
H3517 H 0.65425 0.11309 0.70186 0.0
H3518 H 0.65578 0.09661 0.75861 0.0
H3519 H 0.66762 0.12124 0.86793 0.0
H3520 H 0.63558 0.09218 0.03184 0.0
H3521 H 0.65181 0.09106 0.97463 0.0
H3522 H 0.62721 0.07849 0.8656 0.0
C3523 C 0.65526 0.10939 0.76168 0.0
C3524 C 0.659 0.11171 0.86701 0.0
C3525 C 0.65444 0.11884 0.72917 0.0
C3526 C 0.6297 0.0916 0.00471 0.0
C3527 C 0.639 0.09103 0.97193 0.0
C3528 C 0.63625 0.08762 0.8665 0.0
C3529 C 0.65473 0.11637 0.79773 0.0
C3530 C 0.65254 0.10667 0.83243 0.0
C3531 C 0.63181 0.09124 0.93607 0.0
C3532 C 0.64119 0.0941 0.90115 0.0
H3533 H 0.65227 0.1551 0.77171 0.0
H3534 H 0.65348 0.13886 0.82755 0.0
H3535 H 0.6366 0.08964 0.80646 0.0
H3536 H 0.59318 0.09232 0.96315 0.0
H3537 H 0.60914 0.09145 0.90691 0.0
C3538 C 0.6107 0.91556 0.53099 0.0
C3539 C 0.61754 0.91084 0.49662 0.0
C3540 C 0.61959 0.91537 0.56419 0.0
C3541 C 0.64251 0.91621 0.63119 0.0
H3542 H 0.65698 0.87286 0.64312 0.0
C3543 C 0.6626 0.86638 0.75099 0.0
C3544 C 0.65157 0.8706 0.77881 0.0
C3545 C 0.66374 0.87518 0.71772 0.0
C3546 C 0.65353 0.88518 0.64045 0.0
H3547 H 0.63947 0.90356 0.46965 0.0
H3548 H 0.65489 0.90277 0.52806 0.0
H3549 H 0.64987 0.88247 0.58118 0.0
H3550 H 0.63366 0.88766 0.79498 0.0
H3551 H 0.63491 0.90256 0.73631 0.0
H3552 H 0.64587 0.91885 0.69066 0.0
C3553 C 0.64265 0.9067 0.52909 0.0
C3554 C 0.64939 0.89067 0.60468 0.0
C3555 C 0.63382 0.90718 0.49567 0.0
C3556 C 0.64237 0.8843 0.77399 0.0
C3557 C 0.64317 0.89287 0.74026 0.0
C3558 C 0.64693 0.9108 0.66702 0.0
C3559 C 0.63543 0.91023 0.56383 0.0
C3560 C 0.64327 0.90602 0.5999 0.0
C3561 C 0.65344 0.88805 0.71101 0.0
C3562 C 0.65188 0.89498 0.6724 0.0
H3563 H 0.59823 0.91856 0.53268 0.0
H3564 H 0.61367 0.91804 0.59055 0.0
H3565 H 0.63791 0.92815 0.62818 0.0
H3566 H 0.66994 0.85592 0.75439 0.0
H3567 H 0.67218 0.87139 0.69656 0.0
C3568 C 0.61467 0.59172 0.02959 0.0
C3569 C 0.6216 0.59402 0.99397 0.0
C3570 C 0.62393 0.59167 0.06209 0.0
C3571 C 0.66019 0.61027 0.09602 0.0
H3572 H 0.64501 0.59204 0.1897 0.0
C3573 C 0.65529 0.64635 0.22911 0.0
C3574 C 0.6556 0.63939 0.26512 0.0
C3575 C 0.65737 0.63719 0.19687 0.0
C3576 C 0.6498 0.597 0.16393 0.0
H3577 H 0.64396 0.59679 0.9644 0.0
H3578 H 0.66027 0.59668 0.02156 0.0
H3579 H 0.63721 0.5802 0.13 0.0
H3580 H 0.65923 0.61731 0.29541 0.0
H3581 H 0.66286 0.60116 0.2386 0.0
H3582 H 0.67251 0.62726 0.12992 0.0
C3583 C 0.64756 0.59509 0.0242 0.0
C3584 C 0.64515 0.59032 0.12958 0.0
C3585 C 0.63823 0.59507 0.99142 0.0
C3586 C 0.65888 0.62306 0.2681 0.0
C3587 C 0.66091 0.6138 0.23557 0.0
C3588 C 0.66501 0.61682 0.13035 0.0
C3589 C 0.64043 0.59394 0.06004 0.0
C3590 C 0.64941 0.59753 0.09523 0.0
C3591 C 0.65981 0.62072 0.19951 0.0
C3592 C 0.659 0.61092 0.16462 0.0
H3593 H 0.60193 0.59079 0.03278 0.0
H3594 H 0.6179 0.591 0.089 0.0
H3595 H 0.66382 0.61613 0.07025 0.0
H3596 H 0.65277 0.65886 0.2255 0.0
H3597 H 0.6561 0.64295 0.16975 0.0
C3598 C 0.63813 0.39948 0.50616 0.0
C3599 C 0.62489 0.40926 0.51185 0.0
C3600 C 0.64607 0.39962 0.47153 0.0
C3601 C 0.66213 0.40145 0.39539 0.0
H3602 H 0.63116 0.40318 0.3146 0.0
C3603 C 0.6525 0.38326 0.2278 0.0
C3604 C 0.65643 0.3671 0.23094 0.0
C3605 C 0.653 0.39312 0.25958 0.0
C3606 C 0.6401 0.40303 0.33655 0.0
H3607 H 0.61059 0.42807 0.488 0.0
H3608 H 0.62499 0.42908 0.42844 0.0
H3609 H 0.6239 0.41239 0.3768 0.0
H3610 H 0.66543 0.34902 0.26882 0.0
H3611 H 0.66649 0.36616 0.32379 0.0
H3612 H 0.67783 0.39075 0.3551 0.0
C3613 C 0.62888 0.42075 0.44977 0.0
C3614 C 0.63597 0.40837 0.37246 0.0
C3615 C 0.62072 0.42032 0.48403 0.0
C3616 C 0.66217 0.36136 0.26555 0.0
C3617 C 0.66292 0.37124 0.29704 0.0
C3618 C 0.66619 0.39588 0.35947 0.0
C3619 C 0.64105 0.40975 0.44219 0.0
C3620 C 0.64672 0.40714 0.40277 0.0
C3621 C 0.65774 0.38705 0.29478 0.0
C3622 C 0.65501 0.39613 0.33004 0.0
H3623 H 0.64143 0.39071 0.52707 0.0
H3624 H 0.65528 0.39088 0.46692 0.0
H3625 H 0.67086 0.40065 0.41771 0.0
H3626 H 0.64805 0.38804 0.20149 0.0
H3627 H 0.649 0.4053 0.25704 0.0
C3628 C 0.83479 0.36208 0.74435 0.0
C3629 C 0.84567 0.36698 0.77192 0.0
C3630 C 0.83318 0.37061 0.71081 0.0
C3631 C 0.84779 0.40673 0.65869 0.0
H3632 H 0.84739 0.37749 0.57429 0.0
C3633 C 0.88409 0.41386 0.52378 0.0
C3634 C 0.87833 0.40769 0.48961 0.0
C3635 C 0.87489 0.41319 0.55643 0.0
C3636 C 0.84712 0.38594 0.59732 0.0
H3637 H 0.86273 0.385 0.78742 0.0
H3638 H 0.86056 0.39956 0.72829 0.0
H3639 H 0.8407 0.36795 0.63655 0.0
H3640 H 0.85785 0.39728 0.4621 0.0
H3641 H 0.84181 0.39582 0.51955 0.0
H3642 H 0.85553 0.4244 0.61916 0.0
C3643 C 0.85283 0.38947 0.73266 0.0
C3644 C 0.84324 0.38047 0.63328 0.0
C3645 C 0.85415 0.38111 0.76663 0.0
C3646 C 0.86263 0.40209 0.48803 0.0
C3647 C 0.85348 0.40119 0.52093 0.0
C3648 C 0.85188 0.41216 0.62266 0.0
C3649 C 0.8428 0.38395 0.70363 0.0
C3650 C 0.84402 0.39065 0.66474 0.0
C3651 C 0.85978 0.40616 0.55573 0.0
C3652 C 0.85207 0.40168 0.59183 0.0
H3653 H 0.82802 0.35127 0.74809 0.0
H3654 H 0.82496 0.36626 0.68975 0.0
H3655 H 0.84819 0.41502 0.682 0.0
H3656 H 0.89607 0.4184 0.52583 0.0
H3657 H 0.88014 0.41704 0.58277 0.0
C3658 C 0.8896 0.59422 0.97836 0.0
C3659 C 0.88333 0.59603 0.01482 0.0
C3660 C 0.87968 0.59366 0.94704 0.0
C3661 C 0.84174 0.60994 0.91716 0.0
H3662 H 0.85595 0.59203 0.82229 0.0
C3663 C 0.84237 0.64552 0.78286 0.0
C3664 C 0.84213 0.63834 0.74709 0.0
C3665 C 0.84106 0.63644 0.81548 0.0
C3666 C 0.85142 0.59687 0.84844 0.0
H3667 H 0.86151 0.59753 0.04708 0.0
H3668 H 0.84402 0.59657 0.9919 0.0
H3669 H 0.86561 0.58099 0.88126 0.0
H3670 H 0.83926 0.61596 0.71765 0.0
H3671 H 0.83698 0.59996 0.77508 0.0
H3672 H 0.82781 0.62604 0.88431 0.0
C3673 C 0.85673 0.5957 0.98774 0.0
C3674 C 0.85714 0.59065 0.88236 0.0
C3675 C 0.86674 0.59618 0.01937 0.0
C3676 C 0.83955 0.62187 0.74476 0.0
C3677 C 0.8383 0.6127 0.77766 0.0
C3678 C 0.83585 0.61601 0.88326 0.0
C3679 C 0.86313 0.59493 0.95109 0.0
C3680 C 0.85322 0.59782 0.91697 0.0
C3681 C 0.8395 0.61985 0.81346 0.0
C3682 C 0.84147 0.61027 0.84846 0.0
H3683 H 0.90229 0.59402 0.97362 0.0
H3684 H 0.88515 0.59333 0.91942 0.0
H3685 H 0.83834 0.61572 0.94319 0.0
H3686 H 0.84432 0.65815 0.78596 0.0
H3687 H 0.84234 0.64241 0.84234 0.0
C3688 C 0.36949 0.36941 0.74866 0.0
C3689 C 0.35619 0.36936 0.72488 0.0
C3690 C 0.36983 0.37889 0.78068 0.0
C3691 C 0.34492 0.39536 0.85288 0.0
H3692 H 0.38483 0.41469 0.88202 0.0
C3693 C 0.38449 0.41786 0.99023 0.0
C3694 C 0.38062 0.40522 0.01419 0.0
C3695 C 0.37707 0.41936 0.95518 0.0
C3696 C 0.37338 0.4098 0.87449 0.0
H3697 H 0.33289 0.37942 0.71526 0.0
H3698 H 0.3333 0.39601 0.77272 0.0
H3699 H 0.3806 0.40703 0.81712 0.0
H3700 H 0.36546 0.38478 0.02189 0.0
H3701 H 0.35298 0.38684 0.96014 0.0
H3702 H 0.33788 0.39768 0.91068 0.0
C3703 C 0.34351 0.38872 0.766 0.0
C3704 C 0.37104 0.40526 0.83713 0.0
C3705 C 0.34329 0.37933 0.73322 0.0
C3706 C 0.36844 0.39475 0.00394 0.0
C3707 C 0.36127 0.396 0.96848 0.0
C3708 C 0.34721 0.40002 0.89044 0.0
C3709 C 0.35681 0.38851 0.79006 0.0
C3710 C 0.35716 0.39724 0.82636 0.0
C3711 C 0.36606 0.40788 0.94286 0.0
C3712 C 0.3618 0.4066 0.9021 0.0
H3713 H 0.37965 0.36195 0.74269 0.0
H3714 H 0.38015 0.37826 0.79888 0.0
H3715 H 0.33408 0.38922 0.84532 0.0
H3716 H 0.39388 0.42606 0.99775 0.0
H3717 H 0.38074 0.42894 0.93679 0.0
C3718 C 0.34217 0.61919 0.76001 0.0
C3719 C 0.3544 0.63037 0.76499 0.0
C3720 C 0.34199 0.60942 0.72789 0.0
C3721 C 0.36838 0.59283 0.65608 0.0
H3722 H 0.33485 0.59869 0.58252 0.0
C3723 C 0.36604 0.60129 0.48971 0.0
C3724 C 0.37835 0.59082 0.48049 0.0
C3725 C 0.35851 0.60017 0.52478 0.0
C3726 C 0.34424 0.59677 0.60285 0.0
H3727 H 0.37627 0.63963 0.74144 0.0
H3728 H 0.37613 0.62255 0.68649 0.0
H3729 H 0.33118 0.60824 0.6472 0.0
H3730 H 0.39139 0.56999 0.49808 0.0
H3731 H 0.37767 0.56739 0.55837 0.0
H3732 H 0.38209 0.58274 0.6119 0.0
C3733 C 0.3666 0.62138 0.70686 0.0
C3734 C 0.34205 0.60208 0.63996 0.0
C3735 C 0.36661 0.63127 0.73818 0.0
C3736 C 0.3819 0.57821 0.50482 0.0
C3737 C 0.37414 0.57685 0.53946 0.0
C3738 C 0.3706 0.58759 0.61922 0.0
C3739 C 0.35429 0.61044 0.70119 0.0
C3740 C 0.35443 0.60084 0.66628 0.0
C3741 C 0.36311 0.58844 0.55095 0.0
C3742 C 0.35887 0.59018 0.59158 0.0
H3743 H 0.33261 0.61832 0.78032 0.0
H3744 H 0.33234 0.60109 0.72393 0.0
H3745 H 0.37808 0.59169 0.67598 0.0
H3746 H 0.36329 0.61123 0.47144 0.0
H3747 H 0.35018 0.6094 0.53252 0.0
C3748 C 0.13481 0.60101 0.519 0.0
C3749 C 0.11928 0.59513 0.5152 0.0
C3750 C 0.14482 0.6019 0.48755 0.0
C3751 C 0.15004 0.58981 0.38768 0.0
H3752 H 0.16001 0.63418 0.37152 0.0
C3753 C 0.15198 0.6179 0.24056 0.0
C3754 C 0.15968 0.6325 0.23542 0.0
C3755 C 0.15249 0.61028 0.27557 0.0
C3756 C 0.15785 0.62163 0.37555 0.0
H3757 H 0.10267 0.58407 0.47666 0.0
H3758 H 0.12016 0.58535 0.42218 0.0
H3759 H 0.15145 0.62541 0.43316 0.0
H3760 H 0.17541 0.64968 0.26105 0.0
H3761 H 0.17717 0.63597 0.32136 0.0
H3762 H 0.15612 0.58605 0.32979 0.0
C3763 C 0.12458 0.58942 0.44918 0.0
C3764 C 0.15287 0.61662 0.41113 0.0
C3765 C 0.1145 0.5888 0.48035 0.0
C3766 C 0.16917 0.63855 0.26456 0.0
C3767 C 0.17003 0.63073 0.29923 0.0
C3768 C 0.1553 0.59477 0.35213 0.0
C3769 C 0.13957 0.59661 0.45206 0.0
C3770 C 0.14833 0.6008 0.41719 0.0
C3771 C 0.16099 0.61695 0.30593 0.0
C3772 C 0.15865 0.61089 0.34514 0.0
H3773 H 0.13882 0.60597 0.54549 0.0
H3774 H 0.15636 0.60744 0.49053 0.0
H3775 H 0.14671 0.57751 0.39172 0.0
H3776 H 0.1445 0.61304 0.21861 0.0
H3777 H 0.14525 0.59979 0.27939 0.0
C3778 C 0.13353 0.37005 0.24421 0.0
C3779 C 0.14672 0.36987 0.26835 0.0
C3780 C 0.13338 0.37964 0.21236 0.0
C3781 C 0.15866 0.39617 0.14106 0.0
H3782 H 0.11902 0.4159 0.11137 0.0
C3783 C 0.11969 0.41917 0.00326 0.0
C3784 C 0.12344 0.40646 0.97941 0.0
C3785 C 0.12707 0.42061 0.03837 0.0
C3786 C 0.13041 0.4109 0.11907 0.0
H3787 H 0.17001 0.3798 0.27876 0.0
H3788 H 0.16994 0.39657 0.22159 0.0
H3789 H 0.12295 0.40803 0.17625 0.0
H3790 H 0.13837 0.38584 0.97198 0.0
H3791 H 0.15081 0.38783 0.03376 0.0
H3792 H 0.16592 0.39857 0.08342 0.0
C3793 C 0.15967 0.3893 0.2279 0.0
C3794 C 0.13257 0.40624 0.15642 0.0
C3795 C 0.1597 0.37981 0.26052 0.0
C3796 C 0.13549 0.39588 0.9898 0.0
C3797 C 0.14263 0.39708 0.0253 0.0
C3798 C 0.15655 0.40094 0.10352 0.0
C3799 C 0.14649 0.38923 0.2035 0.0
C3800 C 0.14635 0.39808 0.16735 0.0
C3801 C 0.13793 0.40902 0.05083 0.0
C3802 C 0.14205 0.40766 0.09166 0.0
H3803 H 0.12331 0.36261 0.24978 0.0
H3804 H 0.12315 0.37912 0.19387 0.0
H3805 H 0.16943 0.38992 0.14876 0.0
H3806 H 0.11039 0.42746 0.99564 0.0
H3807 H 0.12346 0.43023 0.05671 0.0
loop_
_geom_bond_atom_site_label_1
_geom_bond_atom_site_label_2
_geom_bond_distance
_geom_bond_site_symmetry_2
_ccdc_geom_bond_type
Co0 O2 2.143 . S
Co0 O8 2.074 . S
Co0 O11 2.093 . S
Co0 O24 2.097 . S
Co0 N41 2.151 . S
Co0 N49 2.214 . S
Co1 O2 2.160 . S
Co1 O7 2.058 . S
Co1 O17 2.057 . S
Co1 O32 2.037 . S
Co1 N36 2.145 . S
Co1 N57 2.257 . S
O2 Co0 2.143 . S
O2 Co1 2.160 . S
C3 O4 1.278 . S
C3 O11 1.224 . S
O4 C3 1.278 . S
C5 O6 1.245 . S
C5 O17 1.232 . S
O6 C5 1.245 . S
O7 Co1 2.058 . S
O7 C33 1.269 . S
O8 Co0 2.074 . S
O8 C33 1.257 . S
H9 C34 0.930 . S
H10 C40 0.930 . S
O11 Co0 2.093 . S
O11 C3 1.224 . S
H12 C44 0.929 . S
H13 C46 0.930 . S
H14 C47 0.930 . S
H15 C45 0.929 . S
H16 C48 0.928 . S
O17 Co1 2.057 . S
O17 C5 1.232 . S
H18 C37 0.929 . S
H19 C38 0.929 . S
H20 C50 0.931 . S
H21 C42 0.929 . S
H22 C51 0.930 . S
H23 C43 0.931 . S
O24 Co0 2.097 . S
O24 C52 1.214 . S
H25 C53 0.929 . S
H26 C54 0.929 . S
H27 C55 0.930 . S
H28 C56 0.929 . S
H29 C58 0.930 . S
H30 C35 0.930 . S
H31 C39 0.930 . S
O32 Co1 2.037 . S
O32 C52 1.234 . S
C33 O7 1.269 . S
C33 O8 1.257 . S
C34 H9 0.930 . S
C34 C37 1.388 . S
C34 C39 1.418 . S
C35 H30 0.930 . S
C35 C38 1.404 . S
C35 C39 1.353 . S
N36 Co1 2.145 . S
N36 C37 1.397 . S
N36 C38 1.334 . S
C37 H18 0.929 . S
C37 C34 1.388 . S
C37 N36 1.397 . S
C38 H19 0.929 . S
C38 C35 1.404 . S
C38 N36 1.334 . S
C39 H31 0.930 . S
C39 C34 1.418 . S
C39 C35 1.353 . S
C40 H10 0.930 . S
C40 N41 1.330 . S
C40 C42 1.446 . S
N41 Co0 2.151 . S
N41 C40 1.330 . S
N41 C45 1.418 . S
C42 H21 0.929 . S
C42 C40 1.446 . S
C42 C43 1.332 . S
C43 H23 0.931 . S
C43 C42 1.332 . S
C43 C44 1.267 . S
C44 H12 0.929 . S
C44 C43 1.267 . S
C44 C45 1.251 . S
C45 H15 0.929 . S
C45 N41 1.418 . S
C45 C44 1.251 . S
C46 H13 0.930 . S
C46 C48 1.406 . S
C46 C51 1.261 . S
C47 H14 0.930 . S
C47 N49 1.325 . S
C47 C50 1.357 . S
C48 H16 0.928 . S
C48 C46 1.406 . S
C48 N49 1.261 . S
N49 Co0 2.214 . S
N49 C47 1.325 . S
N49 C48 1.261 . S
C50 H20 0.931 . S
C50 C47 1.357 . S
C50 C51 1.312 . S
C51 H22 0.930 . S
C51 C46 1.261 . S
C51 C50 1.312 . S
C52 O24 1.214 . S
C52 O32 1.234 . S
C53 H25 0.929 . S
C53 C56 1.391 . S
C53 C58 1.391 . S
C54 H26 0.929 . S
C54 C55 1.390 . S
C54 N57 1.391 . S
C55 H27 0.930 . S
C55 C54 1.390 . S
C55 C56 1.392 . S
C56 H28 0.929 . S
C56 C53 1.391 . S
C56 C55 1.392 . S
N57 Co1 2.257 . S
N57 C54 1.391 . S
N57 C58 1.388 . S
C58 H29 0.930 . S
C58 C53 1.391 . S
C58 N57 1.388 . S
Co59 O61 2.143 . S
Co59 O67 2.074 . S
Co59 O70 2.093 . S
Co59 O83 2.097 . S
Co59 N100 2.151 . S
Co59 N108 2.214 . S
Co60 O61 2.160 . S
Co60 O66 2.058 . S
Co60 O76 2.057 . S
Co60 O91 2.037 . S
Co60 N95 2.145 . S
Co60 N116 2.257 . S
O61 Co59 2.143 . S
O61 Co60 2.160 . S
C62 O63 1.278 . S
C62 O70 1.224 . S
O63 C62 1.278 . S
C64 O65 1.245 . S
C64 O76 1.232 . S
O65 C64 1.245 . S
O66 Co60 2.058 . S
O66 C92 1.269 . S
O67 Co59 2.074 . S
O67 C92 1.257 . S
H68 C93 0.930 . S
H69 C99 0.930 . S
O70 Co59 2.093 . S
O70 C62 1.224 . S
H71 C103 0.929 . S
H72 C105 0.930 . S
H73 C106 0.930 . S
H74 C104 0.929 . S
H75 C107 0.928 . S
O76 Co60 2.057 . S
O76 C64 1.232 . S
H77 C96 0.929 . S
H78 C97 0.929 . S
H79 C109 0.931 . S
H80 C101 0.929 . S
H81 C110 0.930 . S
H82 C102 0.931 . S
O83 Co59 2.097 . S
O83 C111 1.214 . S
H84 C112 0.929 . S
H85 C113 0.929 . S
H86 C114 0.930 . S
H87 C115 0.929 . S
H88 C117 0.930 . S
H89 C94 0.930 . S
H90 C98 0.930 . S
O91 Co60 2.037 . S
O91 C111 1.234 . S
C92 O66 1.269 . S
C92 O67 1.257 . S
C93 H68 0.930 . S
C93 C96 1.388 . S
C93 C98 1.418 . S
C94 H89 0.930 . S
C94 C97 1.404 . S
C94 C98 1.353 . S
N95 Co60 2.145 . S
N95 C96 1.397 . S
N95 C97 1.334 . S
C96 H77 0.929 . S
C96 C93 1.388 . S
C96 N95 1.397 . S
C97 H78 0.929 . S
C97 C94 1.404 . S
C97 N95 1.334 . S
C98 H90 0.930 . S
C98 C93 1.418 . S
C98 C94 1.353 . S
C99 H69 0.930 . S
C99 N100 1.330 . S
C99 C101 1.446 . S
N100 Co59 2.151 . S
N100 C99 1.330 . S
N100 C104 1.418 . S
C101 H80 0.929 . S
C101 C99 1.446 . S
C101 C102 1.332 . S
C102 H82 0.931 . S
C102 C101 1.332 . S
C102 C103 1.267 . S
C103 H71 0.929 . S
C103 C102 1.267 . S
C103 C104 1.251 . S
C104 H74 0.929 . S
C104 N100 1.418 . S
C104 C103 1.251 . S
C105 H72 0.930 . S
C105 C107 1.406 . S
C105 C110 1.261 . S
C106 H73 0.930 . S
C106 N108 1.325 . S
C106 C109 1.357 . S
C107 H75 0.928 . S
C107 C105 1.406 . S
C107 N108 1.261 . S
N108 Co59 2.214 . S
N108 C106 1.325 . S
N108 C107 1.261 . S
C109 H79 0.931 . S
C109 C106 1.357 . S
C109 C110 1.312 . S
C110 H81 0.930 . S
C110 C105 1.261 . S
C110 C109 1.312 . S
C111 O83 1.214 . S
C111 O91 1.234 . S
C112 H84 0.929 . S
C112 C115 1.391 . S
C112 C117 1.391 . S
C113 H85 0.929 . S
C113 C114 1.390 . S
C113 N116 1.391 . S
C114 H86 0.930 . S
C114 C113 1.390 . S
C114 C115 1.392 . S
C115 H87 0.929 . S
C115 C112 1.391 . S
C115 C114 1.392 . S
N116 Co60 2.257 . S
N116 C113 1.391 . S
N116 C117 1.388 . S
C117 H88 0.930 . S
C117 C112 1.391 . S
C117 N116 1.388 . S
Co118 O120 2.143 . S
Co118 O126 2.074 . S
Co118 O129 2.093 . S
Co118 O142 2.097 . S
Co118 N159 2.151 . S
Co118 N167 2.214 . S
Co119 O120 2.160 . S
Co119 O125 2.058 . S
Co119 O135 2.057 . S
Co119 O150 2.037 . S
Co119 N154 2.145 . S
Co119 N175 2.257 . S
O120 Co118 2.143 . S
O120 Co119 2.160 . S
C121 O122 1.278 . S
C121 O129 1.224 . S
O122 C121 1.278 . S
C123 O124 1.245 . S
C123 O135 1.232 . S
O124 C123 1.245 . S
O125 Co119 2.058 . S
O125 C151 1.269 . S
O126 Co118 2.074 . S
O126 C151 1.257 . S
H127 C152 0.930 . S
H128 C158 0.930 . S
O129 Co118 2.093 . S
O129 C121 1.224 . S
H130 C162 0.929 . S
H131 C164 0.930 . S
H132 C165 0.930 . S
H133 C163 0.929 . S
H134 C166 0.928 . S
O135 Co119 2.057 . S
O135 C123 1.232 . S
H136 C155 0.929 . S
H137 C156 0.929 . S
H138 C168 0.931 . S
H139 C160 0.929 . S
H140 C169 0.930 . S
H141 C161 0.931 . S
O142 Co118 2.097 . S
O142 C170 1.214 . S
H143 C171 0.929 . S
H144 C172 0.929 . S
H145 C173 0.930 . S
H146 C174 0.929 . S
H147 C176 0.930 . S
H148 C153 0.930 . S
H149 C157 0.930 . S
O150 Co119 2.037 . S
O150 C170 1.234 . S
C151 O125 1.269 . S
C151 O126 1.257 . S
C152 H127 0.930 . S
C152 C155 1.388 . S
C152 C157 1.418 . S
C153 H148 0.930 . S
C153 C156 1.404 . S
C153 C157 1.353 . S
N154 Co119 2.145 . S
N154 C155 1.397 . S
N154 C156 1.334 . S
C155 H136 0.929 . S
C155 C152 1.388 . S
C155 N154 1.397 . S
C156 H137 0.929 . S
C156 C153 1.404 . S
C156 N154 1.334 . S
C157 H149 0.930 . S
C157 C152 1.418 . S
C157 C153 1.353 . S
C158 H128 0.930 . S
C158 N159 1.330 . S
C158 C160 1.446 . S
N159 Co118 2.151 . S
N159 C158 1.330 . S
N159 C163 1.418 1_556 S
C160 H139 0.929 . S
C160 C158 1.446 . S
C160 C161 1.332 1_556 S
C161 H141 0.931 . S
C161 C160 1.332 1_554 S
C161 C162 1.267 . S
C162 H130 0.929 . S
C162 C161 1.267 . S
C162 C163 1.251 . S
C163 H133 0.929 . S
C163 N159 1.418 1_554 S
C163 C162 1.251 . S
C164 H131 0.930 . S
C164 C166 1.406 1_554 S
C164 C169 1.261 . S
C165 H132 0.930 . S
C165 N167 1.325 . S
C165 C168 1.357 1_556 S
C166 H134 0.928 . S
C166 C164 1.406 1_556 S
C166 N167 1.261 . S
N167 Co118 2.214 . S
N167 C165 1.325 . S
N167 C166 1.261 . S
C168 H138 0.931 . S
C168 C165 1.357 1_554 S
C168 C169 1.312 . S
C169 H140 0.930 . S
C169 C164 1.261 . S
C169 C168 1.312 . S
C170 O142 1.214 . S
C170 O150 1.234 . S
C171 H143 0.929 . S
C171 C174 1.391 . S
C171 C176 1.391 . S
C172 H144 0.929 . S
C172 C173 1.390 . S
C172 N175 1.391 . S
C173 H145 0.930 . S
C173 C172 1.390 . S
C173 C174 1.392 . S
C174 H146 0.929 . S
C174 C171 1.391 . S
C174 C173 1.392 . S
N175 Co119 2.257 . S
N175 C172 1.391 . S
N175 C176 1.388 . S
C176 H147 0.930 . S
C176 C171 1.391 . S
C176 N175 1.388 . S
Co177 O179 2.143 . S
Co177 O185 2.074 . S
Co177 O188 2.093 . S
Co177 O201 2.097 . S
Co177 N218 2.151 . S
Co177 N226 2.214 . S
Co178 O179 2.160 . S
Co178 O184 2.058 . S
Co178 O194 2.057 . S
Co178 O209 2.037 . S
Co178 N213 2.145 . S
Co178 N234 2.257 . S
O179 Co177 2.143 . S
O179 Co178 2.160 . S
C180 O181 1.278 . S
C180 O188 1.224 . S
O181 C180 1.278 . S
C182 O183 1.245 . S
C182 O194 1.232 . S
O183 C182 1.245 . S
O184 Co178 2.058 . S
O184 C210 1.269 . S
O185 Co177 2.074 . S
O185 C210 1.257 . S
H186 C211 0.930 . S
H187 C217 0.930 . S
O188 Co177 2.093 . S
O188 C180 1.224 . S
H189 C221 0.929 . S
H190 C223 0.930 . S
H191 C224 0.930 . S
H192 C222 0.929 . S
H193 C225 0.928 . S
O194 Co178 2.057 . S
O194 C182 1.232 . S
H195 C214 0.929 . S
H196 C215 0.929 . S
H197 C227 0.931 . S
H198 C219 0.929 . S
H199 C228 0.930 . S
H200 C220 0.931 . S
O201 Co177 2.097 . S
O201 C229 1.214 . S
H202 C230 0.929 1_556 S
H203 C231 0.929 . S
H204 C232 0.930 1_556 S
H205 C233 0.929 . S
H206 C235 0.930 . S
H207 C212 0.930 . S
H208 C216 0.930 . S
O209 Co178 2.037 . S
O209 C229 1.234 . S
C210 O184 1.269 . S
C210 O185 1.257 . S
C211 H186 0.930 . S
C211 C214 1.388 . S
C211 C216 1.418 . S
C212 H207 0.930 . S
C212 C215 1.404 . S
C212 C216 1.353 . S
N213 Co178 2.145 . S
N213 C214 1.397 . S
N213 C215 1.334 . S
C214 H195 0.929 . S
C214 C211 1.388 . S
C214 N213 1.397 . S
C215 H196 0.929 . S
C215 C212 1.404 . S
C215 N213 1.334 . S
C216 H208 0.930 . S
C216 C211 1.418 . S
C216 C212 1.353 . S
C217 H187 0.930 . S
C217 N218 1.330 . S
C217 C219 1.446 . S
N218 Co177 2.151 . S
N218 C217 1.330 . S
N218 C222 1.418 . S
C219 H198 0.929 . S
C219 C217 1.446 . S
C219 C220 1.332 . S
C220 H200 0.931 . S
C220 C219 1.332 . S
C220 C221 1.267 . S
C221 H189 0.929 . S
C221 C220 1.267 . S
C221 C222 1.251 . S
C222 H192 0.929 . S
C222 N218 1.418 . S
C222 C221 1.251 . S
C223 H190 0.930 . S
C223 C225 1.406 . S
C223 C228 1.261 . S
C224 H191 0.930 . S
C224 N226 1.325 . S
C224 C227 1.357 . S
C225 H193 0.928 . S
C225 C223 1.406 . S
C225 N226 1.261 . S
N226 Co177 2.214 . S
N226 C224 1.325 . S
N226 C225 1.261 . S
C227 H197 0.931 . S
C227 C224 1.357 . S
C227 C228 1.312 . S
C228 H199 0.930 . S
C228 C223 1.261 . S
C228 C227 1.312 . S
C229 O201 1.214 . S
C229 O209 1.234 . S
C230 H202 0.929 1_554 S
C230 C233 1.391 1_554 S
C230 C235 1.391 . S
C231 H203 0.929 . S
C231 C232 1.390 . S
C231 N234 1.391 . S
C232 H204 0.930 1_554 S
C232 C231 1.390 . S
C232 C233 1.392 1_554 S
C233 H205 0.929 . S
C233 C230 1.391 1_556 S
C233 C232 1.392 1_556 S
N234 Co178 2.257 . S
N234 C231 1.391 . S
N234 C235 1.388 . S
C235 H206 0.930 . S
C235 C230 1.391 . S
C235 N234 1.388 . S
Co236 O238 2.143 . S
Co236 O244 2.074 . S
Co236 O247 2.093 . S
Co236 O260 2.097 . S
Co236 N277 2.151 . S
Co236 N285 2.214 . S
Co237 O238 2.160 . S
Co237 O243 2.058 . S
Co237 O253 2.057 . S
Co237 O268 2.037 . S
Co237 N272 2.145 . S
Co237 N293 2.257 . S
O238 Co236 2.143 . S
O238 Co237 2.160 . S
C239 O240 1.278 . S
C239 O247 1.224 . S
O240 C239 1.278 . S
C241 O242 1.245 . S
C241 O253 1.232 . S
O242 C241 1.245 . S
O243 Co237 2.058 . S
O243 C269 1.269 . S
O244 Co236 2.074 . S
O244 C269 1.257 . S
H245 C270 0.930 . S
H246 C276 0.930 . S
O247 Co236 2.093 . S
O247 C239 1.224 . S
H248 C280 0.929 . S
H249 C282 0.930 . S
H250 C283 0.930 . S
H251 C281 0.929 . S
H252 C284 0.928 . S
O253 Co237 2.057 . S
O253 C241 1.232 . S
H254 C273 0.929 . S
H255 C274 0.929 . S
H256 C286 0.931 . S
H257 C278 0.929 . S
H258 C287 0.930 . S
H259 C279 0.931 . S
O260 Co236 2.097 . S
O260 C288 1.214 . S
H261 C289 0.929 . S
H262 C290 0.929 . S
H263 C291 0.930 . S
H264 C292 0.929 . S
H265 C294 0.930 . S
H266 C271 0.930 . S
H267 C275 0.930 . S
O268 Co237 2.037 . S
O268 C288 1.234 . S
C269 O243 1.269 . S
C269 O244 1.257 . S
C270 H245 0.930 . S
C270 C273 1.388 . S
C270 C275 1.418 . S
C271 H266 0.930 . S
C271 C274 1.404 . S
C271 C275 1.353 . S
N272 Co237 2.145 . S
N272 C273 1.397 . S
N272 C274 1.334 . S
C273 H254 0.929 . S
C273 C270 1.388 . S
C273 N272 1.397 . S
C274 H255 0.929 . S
C274 C271 1.404 . S
C274 N272 1.334 . S
C275 H267 0.930 . S
C275 C270 1.418 . S
C275 C271 1.353 . S
C276 H246 0.930 . S
C276 N277 1.330 . S
C276 C278 1.446 . S
N277 Co236 2.151 . S
N277 C276 1.330 . S
N277 C281 1.418 1_554 S
C278 H257 0.929 . S
C278 C276 1.446 . S
C278 C279 1.332 1_554 S
C279 H259 0.931 . S
C279 C278 1.332 1_556 S
C279 C280 1.267 . S
C280 H248 0.929 . S
C280 C279 1.267 . S
C280 C281 1.251 . S
C281 H251 0.929 . S
C281 N277 1.418 1_556 S
C281 C280 1.251 . S
C282 H249 0.930 . S
C282 C284 1.406 1_556 S
C282 C287 1.261 . S
C283 H250 0.930 . S
C283 N285 1.325 . S
C283 C286 1.357 1_554 S
C284 H252 0.928 . S
C284 C282 1.406 1_554 S
C284 N285 1.261 . S
N285 Co236 2.214 . S
N285 C283 1.325 . S
N285 C284 1.261 . S
C286 H256 0.931 . S
C286 C283 1.357 1_556 S
C286 C287 1.312 . S
C287 H258 0.930 . S
C287 C282 1.261 . S
C287 C286 1.312 . S
C288 O260 1.214 . S
C288 O268 1.234 . S
C289 H261 0.929 . S
C289 C292 1.391 . S
C289 C294 1.391 . S
C290 H262 0.929 . S
C290 C291 1.390 . S
C290 N293 1.391 . S
C291 H263 0.930 . S
C291 C290 1.390 . S
C291 C292 1.392 . S
C292 H264 0.929 . S
C292 C289 1.391 . S
C292 C291 1.392 . S
N293 Co237 2.257 . S
N293 C290 1.391 . S
N293 C294 1.388 . S
C294 H265 0.930 . S
C294 C289 1.391 . S
C294 N293 1.388 . S
Co295 O297 2.143 . S
Co295 O303 2.074 . S
Co295 O306 2.093 . S
Co295 O319 2.097 . S
Co295 N336 2.151 . S
Co295 N344 2.214 . S
Co296 O297 2.160 . S
Co296 O302 2.058 . S
Co296 O312 2.057 . S
Co296 O327 2.037 . S
Co296 N331 2.145 . S
Co296 N352 2.257 . S
O297 Co295 2.143 . S
O297 Co296 2.160 . S
C298 O299 1.278 . S
C298 O306 1.224 . S
O299 C298 1.278 . S
C300 O301 1.245 . S
C300 O312 1.232 . S
O301 C300 1.245 . S
O302 Co296 2.058 . S
O302 C328 1.269 . S
O303 Co295 2.074 . S
O303 C328 1.257 . S
H304 C329 0.930 . S
H305 C335 0.930 . S
O306 Co295 2.093 . S
O306 C298 1.224 . S
H307 C339 0.929 . S
H308 C341 0.930 . S
H309 C342 0.930 . S
H310 C340 0.929 . S
H311 C343 0.928 . S
O312 Co296 2.057 . S
O312 C300 1.232 . S
H313 C332 0.929 . S
H314 C333 0.929 . S
H315 C345 0.931 . S
H316 C337 0.929 . S
H317 C346 0.930 . S
H318 C338 0.931 . S
O319 Co295 2.097 . S
O319 C347 1.214 . S
H320 C348 0.929 . S
H321 C349 0.929 . S
H322 C350 0.930 . S
H323 C351 0.929 . S
H324 C353 0.930 . S
H325 C330 0.930 . S
H326 C334 0.930 . S
O327 Co296 2.037 . S
O327 C347 1.234 . S
C328 O302 1.269 . S
C328 O303 1.257 . S
C329 H304 0.930 . S
C329 C332 1.388 . S
C329 C334 1.418 . S
C330 H325 0.930 . S
C330 C333 1.404 . S
C330 C334 1.353 . S
N331 Co296 2.145 . S
N331 C332 1.397 . S
N331 C333 1.334 . S
C332 H313 0.929 . S
C332 C329 1.388 . S
C332 N331 1.397 . S
C333 H314 0.929 . S
C333 C330 1.404 . S
C333 N331 1.334 . S
C334 H326 0.930 . S
C334 C329 1.418 . S
C334 C330 1.353 . S
C335 H305 0.930 . S
C335 N336 1.330 . S
C335 C337 1.446 . S
N336 Co295 2.151 . S
N336 C335 1.330 . S
N336 C340 1.418 . S
C337 H316 0.929 . S
C337 C335 1.446 . S
C337 C338 1.332 . S
C338 H318 0.931 . S
C338 C337 1.332 . S
C338 C339 1.267 . S
C339 H307 0.929 . S
C339 C338 1.267 . S
C339 C340 1.251 . S
C340 H310 0.929 . S
C340 N336 1.418 . S
C340 C339 1.251 . S
C341 H308 0.930 . S
C341 C343 1.406 . S
C341 C346 1.261 . S
C342 H309 0.930 . S
C342 N344 1.325 . S
C342 C345 1.357 . S
C343 H311 0.928 . S
C343 C341 1.406 . S
C343 N344 1.261 . S
N344 Co295 2.214 . S
N344 C342 1.325 . S
N344 C343 1.261 . S
C345 H315 0.931 . S
C345 C342 1.357 . S
C345 C346 1.312 . S
C346 H317 0.930 . S
C346 C341 1.261 . S
C346 C345 1.312 . S
C347 O319 1.214 . S
C347 O327 1.234 . S
C348 H320 0.929 . S
C348 C351 1.391 . S
C348 C353 1.391 . S
C349 H321 0.929 . S
C349 C350 1.390 . S
C349 N352 1.391 . S
C350 H322 0.930 . S
C350 C349 1.390 . S
C350 C351 1.392 . S
C351 H323 0.929 . S
C351 C348 1.391 . S
C351 C350 1.392 . S
N352 Co296 2.257 . S
N352 C349 1.391 . S
N352 C353 1.388 . S
C353 H324 0.930 . S
C353 C348 1.391 . S
C353 N352 1.388 . S
Co354 O356 2.143 . S
Co354 O362 2.074 . S
Co354 O365 2.093 . S
Co354 O378 2.097 . S
Co354 N395 2.151 . S
Co354 N403 2.214 . S
Co355 O356 2.160 . S
Co355 O361 2.058 . S
Co355 O371 2.057 . S
Co355 O386 2.037 . S
Co355 N390 2.145 . S
Co355 N411 2.257 . S
O356 Co354 2.143 . S
O356 Co355 2.160 . S
C357 O358 1.278 . S
C357 O365 1.224 . S
O358 C357 1.278 . S
C359 O360 1.245 . S
C359 O371 1.232 . S
O360 C359 1.245 . S
O361 Co355 2.058 . S
O361 C387 1.269 . S
O362 Co354 2.074 . S
O362 C387 1.257 . S
H363 C388 0.930 . S
H364 C394 0.930 . S
O365 Co354 2.093 . S
O365 C357 1.224 . S
H366 C398 0.929 . S
H367 C400 0.930 . S
H368 C401 0.930 . S
H369 C399 0.929 . S
H370 C402 0.928 . S
O371 Co355 2.057 . S
O371 C359 1.232 . S
H372 C391 0.929 . S
H373 C392 0.929 . S
H374 C404 0.931 . S
H375 C396 0.929 . S
H376 C405 0.930 . S
H377 C397 0.931 . S
O378 Co354 2.097 . S
O378 C406 1.214 . S
H379 C407 0.929 . S
H380 C408 0.929 . S
H381 C409 0.930 . S
H382 C410 0.929 . S
H383 C412 0.930 . S
H384 C389 0.930 . S
H385 C393 0.930 . S
O386 Co355 2.037 . S
O386 C406 1.234 . S
C387 O361 1.269 . S
C387 O362 1.257 . S
C388 H363 0.930 . S
C388 C391 1.388 . S
C388 C393 1.418 . S
C389 H384 0.930 . S
C389 C392 1.404 . S
C389 C393 1.353 . S
N390 Co355 2.145 . S
N390 C391 1.397 . S
N390 C392 1.334 . S
C391 H372 0.929 . S
C391 C388 1.388 . S
C391 N390 1.397 . S
C392 H373 0.929 . S
C392 C389 1.404 . S
C392 N390 1.334 . S
C393 H385 0.930 . S
C393 C388 1.418 . S
C393 C389 1.353 . S
C394 H364 0.930 . S
C394 N395 1.330 . S
C394 C396 1.446 . S
N395 Co354 2.151 . S
N395 C394 1.330 . S
N395 C399 1.418 . S
C396 H375 0.929 . S
C396 C394 1.446 . S
C396 C397 1.332 . S
C397 H377 0.931 . S
C397 C396 1.332 . S
C397 C398 1.267 . S
C398 H366 0.929 . S
C398 C397 1.267 . S
C398 C399 1.251 . S
C399 H369 0.929 . S
C399 N395 1.418 . S
C399 C398 1.251 . S
C400 H367 0.930 . S
C400 C402 1.406 . S
C400 C405 1.261 . S
C401 H368 0.930 . S
C401 N403 1.325 . S
C401 C404 1.357 . S
C402 H370 0.928 . S
C402 C400 1.406 . S
C402 N403 1.261 . S
N403 Co354 2.214 . S
N403 C401 1.325 . S
N403 C402 1.261 . S
C404 H374 0.931 . S
C404 C401 1.357 . S
C404 C405 1.312 . S
C405 H376 0.930 . S
C405 C400 1.261 . S
C405 C404 1.312 . S
C406 O378 1.214 . S
C406 O386 1.234 . S
C407 H379 0.929 . S
C407 C410 1.391 . S
C407 C412 1.391 . S
C408 H380 0.929 . S
C408 C409 1.390 . S
C408 N411 1.391 . S
C409 H381 0.930 . S
C409 C408 1.390 . S
C409 C410 1.392 . S
C410 H382 0.929 . S
C410 C407 1.391 . S
C410 C409 1.392 . S
N411 Co355 2.257 . S
N411 C408 1.391 . S
N411 C412 1.388 . S
C412 H383 0.930 . S
C412 C407 1.391 . S
C412 N411 1.388 . S
Co413 O415 2.143 . S
Co413 O421 2.074 . S
Co413 O424 2.093 . S
Co413 O437 2.097 . S
Co413 N454 2.151 . S
Co413 N462 2.214 . S
Co414 O415 2.160 . S
Co414 O420 2.058 . S
Co414 O430 2.057 . S
Co414 O445 2.037 . S
Co414 N449 2.145 . S
Co414 N470 2.257 . S
O415 Co413 2.143 . S
O415 Co414 2.160 . S
C416 O417 1.278 . S
C416 O424 1.224 . S
O417 C416 1.278 . S
C418 O419 1.245 . S
C418 O430 1.232 . S
O419 C418 1.245 . S
O420 Co414 2.058 . S
O420 C446 1.269 . S
O421 Co413 2.074 . S
O421 C446 1.257 . S
H422 C447 0.930 . S
H423 C453 0.930 . S
O424 Co413 2.093 . S
O424 C416 1.224 . S
H425 C457 0.929 . S
H426 C459 0.930 . S
H427 C460 0.930 . S
H428 C458 0.929 . S
H429 C461 0.928 . S
O430 Co414 2.057 . S
O430 C418 1.232 . S
H431 C450 0.929 . S
H432 C451 0.929 . S
H433 C463 0.931 . S
H434 C455 0.929 . S
H435 C464 0.930 . S
H436 C456 0.931 . S
O437 Co413 2.097 . S
O437 C465 1.214 . S
H438 C466 0.929 1_554 S
H439 C467 0.929 . S
H440 C468 0.930 1_554 S
H441 C469 0.929 . S
H442 C471 0.930 . S
H443 C448 0.930 . S
H444 C452 0.930 . S
O445 Co414 2.037 . S
O445 C465 1.234 . S
C446 O420 1.269 . S
C446 O421 1.257 . S
C447 H422 0.930 . S
C447 C450 1.388 . S
C447 C452 1.418 . S
C448 H443 0.930 . S
C448 C451 1.404 . S
C448 C452 1.353 . S
N449 Co414 2.145 . S
N449 C450 1.397 . S
N449 C451 1.334 . S
C450 H431 0.929 . S
C450 C447 1.388 . S
C450 N449 1.397 . S
C451 H432 0.929 . S
C451 C448 1.404 . S
C451 N449 1.334 . S
C452 H444 0.930 . S
C452 C447 1.418 . S
C452 C448 1.353 . S
C453 H423 0.930 . S
C453 N454 1.330 . S
C453 C455 1.446 . S
N454 Co413 2.151 . S
N454 C453 1.330 . S
N454 C458 1.418 . S
C455 H434 0.929 . S
C455 C453 1.446 . S
C455 C456 1.332 . S
C456 H436 0.931 . S
C456 C455 1.332 . S
C456 C457 1.267 . S
C457 H425 0.929 . S
C457 C456 1.267 . S
C457 C458 1.251 . S
C458 H428 0.929 . S
C458 N454 1.418 . S
C458 C457 1.251 . S
C459 H426 0.930 . S
C459 C461 1.406 . S
C459 C464 1.261 . S
C460 H427 0.930 . S
C460 N462 1.325 . S
C460 C463 1.357 . S
C461 H429 0.928 . S
C461 C459 1.406 . S
C461 N462 1.261 . S
N462 Co413 2.214 . S
N462 C460 1.325 . S
N462 C461 1.261 . S
C463 H433 0.931 . S
C463 C460 1.357 . S
C463 C464 1.312 . S
C464 H435 0.930 . S
C464 C459 1.261 . S
C464 C463 1.312 . S
C465 O437 1.214 . S
C465 O445 1.234 . S
C466 H438 0.929 1_556 S
C466 C469 1.391 1_556 S
C466 C471 1.391 . S
C467 H439 0.929 . S
C467 C468 1.390 . S
C467 N470 1.391 . S
C468 H440 0.930 1_556 S
C468 C467 1.390 . S
C468 C469 1.392 1_556 S
C469 H441 0.929 . S
C469 C466 1.391 1_554 S
C469 C468 1.392 1_554 S
N470 Co414 2.257 . S
N470 C467 1.391 . S
N470 C471 1.388 . S
C471 H442 0.930 . S
C471 C466 1.391 . S
C471 N470 1.388 . S
Co472 O474 2.143 . S
Co472 O480 2.074 . S
Co472 O483 2.093 . S
Co472 O496 2.097 . S
Co472 N513 2.151 . S
Co472 N521 2.214 . S
Co473 O474 2.160 . S
Co473 O479 2.058 . S
Co473 O489 2.057 . S
Co473 O504 2.037 . S
Co473 N508 2.145 . S
Co473 N529 2.257 . S
O474 Co472 2.143 . S
O474 Co473 2.160 . S
C475 O476 1.278 . S
C475 O483 1.224 . S
O476 C475 1.278 . S
C477 O478 1.245 . S
C477 O489 1.232 . S
O478 C477 1.245 . S
O479 Co473 2.058 . S
O479 C505 1.269 . S
O480 Co472 2.074 . S
O480 C505 1.257 . S
H481 C506 0.930 . S
H482 C512 0.930 . S
O483 Co472 2.093 . S
O483 C475 1.224 . S
H484 C516 0.929 . S
H485 C518 0.930 . S
H486 C519 0.930 . S
H487 C517 0.929 . S
H488 C520 0.928 . S
O489 Co473 2.057 . S
O489 C477 1.232 . S
H490 C509 0.929 . S
H491 C510 0.929 . S
H492 C522 0.931 . S
H493 C514 0.929 . S
H494 C523 0.930 . S
H495 C515 0.931 . S
O496 Co472 2.097 . S
O496 C524 1.214 . S
H497 C525 0.929 . S
H498 C526 0.929 . S
H499 C527 0.930 . S
H500 C528 0.929 . S
H501 C530 0.930 . S
H502 C507 0.930 . S
H503 C511 0.930 . S
O504 Co473 2.037 . S
O504 C524 1.234 . S
C505 O479 1.269 . S
C505 O480 1.257 . S
C506 H481 0.930 . S
C506 C509 1.388 . S
C506 C511 1.418 . S
C507 H502 0.930 . S
C507 C510 1.404 . S
C507 C511 1.353 . S
N508 Co473 2.145 . S
N508 C509 1.397 . S
N508 C510 1.334 . S
C509 H490 0.929 . S
C509 C506 1.388 . S
C509 N508 1.397 . S
C510 H491 0.929 . S
C510 C507 1.404 . S
C510 N508 1.334 . S
C511 H503 0.930 . S
C511 C506 1.418 . S
C511 C507 1.353 . S
C512 H482 0.930 . S
C512 N513 1.330 . S
C512 C514 1.446 . S
N513 Co472 2.151 . S
N513 C512 1.330 . S
N513 C517 1.418 . S
C514 H493 0.929 . S
C514 C512 1.446 . S
C514 C515 1.332 . S
C515 H495 0.931 . S
C515 C514 1.332 . S
C515 C516 1.267 . S
C516 H484 0.929 . S
C516 C515 1.267 . S
C516 C517 1.251 . S
C517 H487 0.929 . S
C517 N513 1.418 . S
C517 C516 1.251 . S
C518 H485 0.930 . S
C518 C520 1.406 . S
C518 C523 1.261 . S
C519 H486 0.930 . S
C519 N521 1.325 . S
C519 C522 1.357 . S
C520 H488 0.928 . S
C520 C518 1.406 . S
C520 N521 1.261 . S
N521 Co472 2.214 . S
N521 C519 1.325 . S
N521 C520 1.261 . S
C522 H492 0.931 . S
C522 C519 1.357 . S
C522 C523 1.312 . S
C523 H494 0.930 . S
C523 C518 1.261 . S
C523 C522 1.312 . S
C524 O496 1.214 . S
C524 O504 1.234 . S
C525 H497 0.929 . S
C525 C528 1.391 . S
C525 C530 1.391 . S
C526 H498 0.929 . S
C526 C527 1.390 . S
C526 N529 1.391 . S
C527 H499 0.930 . S
C527 C526 1.390 . S
C527 C528 1.392 . S
C528 H500 0.929 . S
C528 C525 1.391 . S
C528 C527 1.392 . S
N529 Co473 2.257 . S
N529 C526 1.391 . S
N529 C530 1.388 . S
C530 H501 0.930 . S
C530 C525 1.391 . S
C530 N529 1.388 . S
Co531 O533 2.143 . S
Co531 O539 2.074 . S
Co531 O542 2.093 . S
Co531 O555 2.097 . S
Co531 N572 2.151 . S
Co531 N580 2.214 . S
Co532 O533 2.160 . S
Co532 O538 2.058 . S
Co532 O548 2.057 . S
Co532 O563 2.037 . S
Co532 N567 2.145 . S
Co532 N588 2.257 . S
O533 Co531 2.143 . S
O533 Co532 2.160 . S
C534 O535 1.278 . S
C534 O542 1.224 . S
O535 C534 1.278 . S
C536 O537 1.245 . S
C536 O548 1.232 . S
O537 C536 1.245 . S
O538 Co532 2.058 . S
O538 C564 1.269 . S
O539 Co531 2.074 . S
O539 C564 1.257 . S
H540 C565 0.930 . S
H541 C571 0.930 . S
O542 Co531 2.093 . S
O542 C534 1.224 . S
H543 C575 0.929 . S
H544 C577 0.930 . S
H545 C578 0.930 . S
H546 C576 0.929 . S
H547 C579 0.928 . S
O548 Co532 2.057 . S
O548 C536 1.232 . S
H549 C568 0.929 . S
H550 C569 0.929 . S
H551 C581 0.931 . S
H552 C573 0.929 . S
H553 C582 0.930 . S
H554 C574 0.931 . S
O555 Co531 2.097 . S
O555 C583 1.214 . S
H556 C584 0.929 . S
H557 C585 0.929 . S
H558 C586 0.930 . S
H559 C587 0.929 . S
H560 C589 0.930 . S
H561 C566 0.930 . S
H562 C570 0.930 . S
O563 Co532 2.037 . S
O563 C583 1.234 . S
C564 O538 1.269 . S
C564 O539 1.257 . S
C565 H540 0.930 . S
C565 C568 1.388 . S
C565 C570 1.418 . S
C566 H561 0.930 . S
C566 C569 1.404 . S
C566 C570 1.353 . S
N567 Co532 2.145 . S
N567 C568 1.397 . S
N567 C569 1.334 . S
C568 H549 0.929 . S
C568 C565 1.388 . S
C568 N567 1.397 . S
C569 H550 0.929 . S
C569 C566 1.404 . S
C569 N567 1.334 . S
C570 H562 0.930 . S
C570 C565 1.418 . S
C570 C566 1.353 . S
C571 H541 0.930 . S
C571 N572 1.330 . S
C571 C573 1.446 . S
N572 Co531 2.151 . S
N572 C571 1.330 . S
N572 C576 1.418 . S
C573 H552 0.929 . S
C573 C571 1.446 . S
C573 C574 1.332 . S
C574 H554 0.931 . S
C574 C573 1.332 . S
C574 C575 1.267 . S
C575 H543 0.929 . S
C575 C574 1.267 . S
C575 C576 1.251 . S
C576 H546 0.929 . S
C576 N572 1.418 . S
C576 C575 1.251 . S
C577 H544 0.930 . S
C577 C579 1.406 . S
C577 C582 1.261 . S
C578 H545 0.930 . S
C578 N580 1.325 . S
C578 C581 1.357 . S
C579 H547 0.928 . S
C579 C577 1.406 . S
C579 N580 1.261 . S
N580 Co531 2.214 . S
N580 C578 1.325 . S
N580 C579 1.261 . S
C581 H551 0.931 . S
C581 C578 1.357 . S
C581 C582 1.312 . S
C582 H553 0.930 . S
C582 C577 1.261 . S
C582 C581 1.312 . S
C583 O555 1.214 . S
C583 O563 1.234 . S
C584 H556 0.929 . S
C584 C587 1.391 . S
C584 C589 1.391 . S
C585 H557 0.929 . S
C585 C586 1.390 . S
C585 N588 1.391 . S
C586 H558 0.930 . S
C586 C585 1.390 . S
C586 C587 1.392 . S
C587 H559 0.929 . S
C587 C584 1.391 . S
C587 C586 1.392 . S
N588 Co532 2.257 . S
N588 C585 1.391 . S
N588 C589 1.388 . S
C589 H560 0.930 . S
C589 C584 1.391 . S
C589 N588 1.388 . S
Co590 O592 2.143 . S
Co590 O598 2.074 . S
Co590 O601 2.093 . S
Co590 O614 2.097 . S
Co590 N631 2.151 . S
Co590 N639 2.214 . S
Co591 O592 2.160 . S
Co591 O597 2.058 . S
Co591 O607 2.057 . S
Co591 O622 2.037 . S
Co591 N626 2.145 . S
Co591 N647 2.257 . S
O592 Co590 2.143 . S
O592 Co591 2.160 . S
C593 O594 1.278 . S
C593 O601 1.224 . S
O594 C593 1.278 . S
C595 O596 1.245 . S
C595 O607 1.232 . S
O596 C595 1.245 . S
O597 Co591 2.058 . S
O597 C623 1.269 . S
O598 Co590 2.074 . S
O598 C623 1.257 . S
H599 C624 0.930 . S
H600 C630 0.930 . S
O601 Co590 2.093 . S
O601 C593 1.224 . S
H602 C634 0.929 . S
H603 C636 0.930 . S
H604 C637 0.930 . S
H605 C635 0.929 . S
H606 C638 0.928 . S
O607 Co591 2.057 . S
O607 C595 1.232 . S
H608 C627 0.929 . S
H609 C628 0.929 . S
H610 C640 0.931 . S
H611 C632 0.929 . S
H612 C641 0.930 . S
H613 C633 0.931 . S
O614 Co590 2.097 . S
O614 C642 1.214 . S
H615 C643 0.929 . S
H616 C644 0.929 . S
H617 C645 0.930 . S
H618 C646 0.929 . S
H619 C648 0.930 . S
H620 C625 0.930 . S
H621 C629 0.930 . S
O622 Co591 2.037 . S
O622 C642 1.234 . S
C623 O597 1.269 . S
C623 O598 1.257 . S
C624 H599 0.930 . S
C624 C627 1.388 . S
C624 C629 1.418 . S
C625 H620 0.930 . S
C625 C628 1.404 . S
C625 C629 1.353 . S
N626 Co591 2.145 . S
N626 C627 1.397 . S
N626 C628 1.334 . S
C627 H608 0.929 . S
C627 C624 1.388 . S
C627 N626 1.397 . S
C628 H609 0.929 . S
C628 C625 1.404 . S
C628 N626 1.334 . S
C629 H621 0.930 . S
C629 C624 1.418 . S
C629 C625 1.353 . S
C630 H600 0.930 . S
C630 N631 1.330 . S
C630 C632 1.446 . S
N631 Co590 2.151 . S
N631 C630 1.330 . S
N631 C635 1.418 1_554 S
C632 H611 0.929 . S
C632 C630 1.446 . S
C632 C633 1.332 1_554 S
C633 H613 0.931 . S
C633 C632 1.332 1_556 S
C633 C634 1.267 . S
C634 H602 0.929 . S
C634 C633 1.267 . S
C634 C635 1.251 . S
C635 H605 0.929 . S
C635 N631 1.418 1_556 S
C635 C634 1.251 . S
C636 H603 0.930 . S
C636 C638 1.406 1_556 S
C636 C641 1.261 . S
C637 H604 0.930 . S
C637 N639 1.325 . S
C637 C640 1.357 1_554 S
C638 H606 0.928 . S
C638 C636 1.406 1_554 S
C638 N639 1.261 . S
N639 Co590 2.214 . S
N639 C637 1.325 . S
N639 C638 1.261 . S
C640 H610 0.931 . S
C640 C637 1.357 1_556 S
C640 C641 1.312 . S
C641 H612 0.930 . S
C641 C636 1.261 . S
C641 C640 1.312 . S
C642 O614 1.214 . S
C642 O622 1.234 . S
C643 H615 0.929 . S
C643 C646 1.391 . S
C643 C648 1.391 . S
C644 H616 0.929 . S
C644 C645 1.390 . S
C644 N647 1.391 . S
C645 H617 0.930 . S
C645 C644 1.390 . S
C645 C646 1.392 . S
C646 H618 0.929 . S
C646 C643 1.391 . S
C646 C645 1.392 . S
N647 Co591 2.257 . S
N647 C644 1.391 . S
N647 C648 1.388 . S
C648 H619 0.930 . S
C648 C643 1.391 . S
C648 N647 1.388 . S
Co649 O651 2.143 . S
Co649 O657 2.074 . S
Co649 O660 2.093 . S
Co649 O673 2.097 . S
Co649 N690 2.151 . S
Co649 N698 2.214 . S
Co650 O651 2.160 . S
Co650 O656 2.058 . S
Co650 O666 2.057 . S
Co650 O681 2.037 . S
Co650 N685 2.145 . S
Co650 N706 2.257 . S
O651 Co649 2.143 . S
O651 Co650 2.160 . S
C652 O653 1.278 . S
C652 O660 1.224 . S
O653 C652 1.278 . S
C654 O655 1.245 . S
C654 O666 1.232 . S
O655 C654 1.245 . S
O656 Co650 2.058 . S
O656 C682 1.269 . S
O657 Co649 2.074 . S
O657 C682 1.257 . S
H658 C683 0.930 . S
H659 C689 0.930 . S
O660 Co649 2.093 . S
O660 C652 1.224 . S
H661 C693 0.929 . S
H662 C695 0.930 . S
H663 C696 0.930 . S
H664 C694 0.929 . S
H665 C697 0.928 . S
O666 Co650 2.057 . S
O666 C654 1.232 . S
H667 C686 0.929 . S
H668 C687 0.929 . S
H669 C699 0.931 . S
H670 C691 0.929 . S
H671 C700 0.930 . S
H672 C692 0.931 . S
O673 Co649 2.097 . S
O673 C701 1.214 . S
H674 C702 0.929 1_554 S
H675 C703 0.929 . S
H676 C704 0.930 1_554 S
H677 C705 0.929 . S
H678 C707 0.930 . S
H679 C684 0.930 . S
H680 C688 0.930 . S
O681 Co650 2.037 . S
O681 C701 1.234 . S
C682 O656 1.269 . S
C682 O657 1.257 . S
C683 H658 0.930 . S
C683 C686 1.388 . S
C683 C688 1.418 . S
C684 H679 0.930 . S
C684 C687 1.404 . S
C684 C688 1.353 . S
N685 Co650 2.145 . S
N685 C686 1.397 . S
N685 C687 1.334 . S
C686 H667 0.929 . S
C686 C683 1.388 . S
C686 N685 1.397 . S
C687 H668 0.929 . S
C687 C684 1.404 . S
C687 N685 1.334 . S
C688 H680 0.930 . S
C688 C683 1.418 . S
C688 C684 1.353 . S
C689 H659 0.930 . S
C689 N690 1.330 . S
C689 C691 1.446 . S
N690 Co649 2.151 . S
N690 C689 1.330 . S
N690 C694 1.418 . S
C691 H670 0.929 . S
C691 C689 1.446 . S
C691 C692 1.332 . S
C692 H672 0.931 . S
C692 C691 1.332 . S
C692 C693 1.267 . S
C693 H661 0.929 . S
C693 C692 1.267 . S
C693 C694 1.251 . S
C694 H664 0.929 . S
C694 N690 1.418 . S
C694 C693 1.251 . S
C695 H662 0.930 . S
C695 C697 1.406 . S
C695 C700 1.261 . S
C696 H663 0.930 . S
C696 N698 1.325 . S
C696 C699 1.357 . S
C697 H665 0.928 . S
C697 C695 1.406 . S
C697 N698 1.261 . S
N698 Co649 2.214 . S
N698 C696 1.325 . S
N698 C697 1.261 . S
C699 H669 0.931 . S
C699 C696 1.357 . S
C699 C700 1.312 . S
C700 H671 0.930 . S
C700 C695 1.261 . S
C700 C699 1.312 . S
C701 O673 1.214 . S
C701 O681 1.234 . S
C702 H674 0.929 1_556 S
C702 C705 1.391 1_556 S
C702 C707 1.391 . S
C703 H675 0.929 . S
C703 C704 1.390 . S
C703 N706 1.391 . S
C704 H676 0.930 1_556 S
C704 C703 1.390 . S
C704 C705 1.392 1_556 S
C705 H677 0.929 . S
C705 C702 1.391 1_554 S
C705 C704 1.392 1_554 S
N706 Co650 2.257 . S
N706 C703 1.391 . S
N706 C707 1.388 . S
C707 H678 0.930 . S
C707 C702 1.391 . S
C707 N706 1.388 . S
Co708 O710 2.143 . S
Co708 O716 2.074 . S
Co708 O719 2.093 . S
Co708 O732 2.097 . S
Co708 N749 2.151 . S
Co708 N757 2.214 . S
Co709 O710 2.160 . S
Co709 O715 2.058 . S
Co709 O725 2.057 . S
Co709 O740 2.037 . S
Co709 N744 2.145 . S
Co709 N765 2.257 . S
O710 Co708 2.143 . S
O710 Co709 2.160 . S
C711 O712 1.278 . S
C711 O719 1.224 . S
O712 C711 1.278 . S
C713 O714 1.245 . S
C713 O725 1.232 . S
O714 C713 1.245 . S
O715 Co709 2.058 . S
O715 C741 1.269 . S
O716 Co708 2.074 . S
O716 C741 1.257 . S
H717 C742 0.930 . S
H718 C748 0.930 . S
O719 Co708 2.093 . S
O719 C711 1.224 . S
H720 C752 0.929 . S
H721 C754 0.930 . S
H722 C755 0.930 . S
H723 C753 0.929 . S
H724 C756 0.928 . S
O725 Co709 2.057 . S
O725 C713 1.232 . S
H726 C745 0.929 . S
H727 C746 0.929 . S
H728 C758 0.931 . S
H729 C750 0.929 . S
H730 C759 0.930 . S
H731 C751 0.931 . S
O732 Co708 2.097 . S
O732 C760 1.214 . S
H733 C761 0.929 . S
H734 C762 0.929 . S
H735 C763 0.930 . S
H736 C764 0.929 . S
H737 C766 0.930 . S
H738 C743 0.930 . S
H739 C747 0.930 . S
O740 Co709 2.037 . S
O740 C760 1.234 . S
C741 O715 1.269 . S
C741 O716 1.257 . S
C742 H717 0.930 . S
C742 C745 1.388 . S
C742 C747 1.418 . S
C743 H738 0.930 . S
C743 C746 1.404 . S
C743 C747 1.353 . S
N744 Co709 2.145 . S
N744 C745 1.397 . S
N744 C746 1.334 . S
C745 H726 0.929 . S
C745 C742 1.388 . S
C745 N744 1.397 . S
C746 H727 0.929 . S
C746 C743 1.404 . S
C746 N744 1.334 . S
C747 H739 0.930 . S
C747 C742 1.418 . S
C747 C743 1.353 . S
C748 H718 0.930 . S
C748 N749 1.330 . S
C748 C750 1.446 . S
N749 Co708 2.151 . S
N749 C748 1.330 . S
N749 C753 1.418 1_556 S
C750 H729 0.929 . S
C750 C748 1.446 . S
C750 C751 1.332 1_556 S
C751 H731 0.931 . S
C751 C750 1.332 1_554 S
C751 C752 1.267 . S
C752 H720 0.929 . S
C752 C751 1.267 . S
C752 C753 1.251 . S
C753 H723 0.929 . S
C753 N749 1.418 1_554 S
C753 C752 1.251 . S
C754 H721 0.930 . S
C754 C756 1.406 1_554 S
C754 C759 1.261 . S
C755 H722 0.930 . S
C755 N757 1.325 . S
C755 C758 1.357 1_556 S
C756 H724 0.928 . S
C756 C754 1.406 1_556 S
C756 N757 1.261 . S
N757 Co708 2.214 . S
N757 C755 1.325 . S
N757 C756 1.261 . S
C758 H728 0.931 . S
C758 C755 1.357 1_554 S
C758 C759 1.312 . S
C759 H730 0.930 . S
C759 C754 1.261 . S
C759 C758 1.312 . S
C760 O732 1.214 . S
C760 O740 1.234 . S
C761 H733 0.929 . S
C761 C764 1.391 . S
C761 C766 1.391 . S
C762 H734 0.929 . S
C762 C763 1.390 . S
C762 N765 1.391 . S
C763 H735 0.930 . S
C763 C762 1.390 . S
C763 C764 1.392 . S
C764 H736 0.929 . S
C764 C761 1.391 . S
C764 C763 1.392 . S
N765 Co709 2.257 . S
N765 C762 1.391 . S
N765 C766 1.388 . S
C766 H737 0.930 . S
C766 C761 1.391 . S
C766 N765 1.388 . S
Co767 O769 2.143 . S
Co767 O775 2.074 . S
Co767 O778 2.093 . S
Co767 O791 2.097 . S
Co767 N808 2.151 . S
Co767 N816 2.214 . S
Co768 O769 2.160 . S
Co768 O774 2.058 . S
Co768 O784 2.057 . S
Co768 O799 2.037 . S
Co768 N803 2.145 . S
Co768 N824 2.257 . S
O769 Co767 2.143 . S
O769 Co768 2.160 . S
C770 O771 1.278 . S
C770 O778 1.224 . S
O771 C770 1.278 . S
C772 O773 1.245 . S
C772 O784 1.232 . S
O773 C772 1.245 . S
O774 Co768 2.058 . S
O774 C800 1.269 . S
O775 Co767 2.074 . S
O775 C800 1.257 . S
H776 C801 0.930 . S
H777 C807 0.930 . S
O778 Co767 2.093 . S
O778 C770 1.224 . S
H779 C811 0.929 . S
H780 C813 0.930 . S
H781 C814 0.930 . S
H782 C812 0.929 . S
H783 C815 0.928 . S
O784 Co768 2.057 . S
O784 C772 1.232 . S
H785 C804 0.929 . S
H786 C805 0.929 . S
H787 C817 0.931 . S
H788 C809 0.929 . S
H789 C818 0.930 . S
H790 C810 0.931 . S
O791 Co767 2.097 . S
O791 C819 1.214 . S
H792 C820 0.929 . S
H793 C821 0.929 . S
H794 C822 0.930 . S
H795 C823 0.929 . S
H796 C825 0.930 . S
H797 C802 0.930 . S
H798 C806 0.930 . S
O799 Co768 2.037 . S
O799 C819 1.234 . S
C800 O774 1.269 . S
C800 O775 1.257 . S
C801 H776 0.930 . S
C801 C804 1.388 . S
C801 C806 1.418 . S
C802 H797 0.930 . S
C802 C805 1.404 . S
C802 C806 1.353 . S
N803 Co768 2.145 . S
N803 C804 1.397 . S
N803 C805 1.334 . S
C804 H785 0.929 . S
C804 C801 1.388 . S
C804 N803 1.397 . S
C805 H786 0.929 . S
C805 C802 1.404 . S
C805 N803 1.334 . S
C806 H798 0.930 . S
C806 C801 1.418 . S
C806 C802 1.353 . S
C807 H777 0.930 . S
C807 N808 1.330 . S
C807 C809 1.446 . S
N808 Co767 2.151 . S
N808 C807 1.330 . S
N808 C812 1.418 . S
C809 H788 0.929 . S
C809 C807 1.446 . S
C809 C810 1.332 . S
C810 H790 0.931 . S
C810 C809 1.332 . S
C810 C811 1.267 . S
C811 H779 0.929 . S
C811 C810 1.267 . S
C811 C812 1.251 . S
C812 H782 0.929 . S
C812 N808 1.418 . S
C812 C811 1.251 . S
C813 H780 0.930 . S
C813 C815 1.406 . S
C813 C818 1.261 . S
C814 H781 0.930 . S
C814 N816 1.325 . S
C814 C817 1.357 . S
C815 H783 0.928 . S
C815 C813 1.406 . S
C815 N816 1.261 . S
N816 Co767 2.214 . S
N816 C814 1.325 . S
N816 C815 1.261 . S
C817 H787 0.931 . S
C817 C814 1.357 . S
C817 C818 1.312 . S
C818 H789 0.930 . S
C818 C813 1.261 . S
C818 C817 1.312 . S
C819 O791 1.214 . S
C819 O799 1.234 . S
C820 H792 0.929 . S
C820 C823 1.391 . S
C820 C825 1.391 . S
C821 H793 0.929 . S
C821 C822 1.390 . S
C821 N824 1.391 . S
C822 H794 0.930 . S
C822 C821 1.390 . S
C822 C823 1.392 . S
C823 H795 0.929 . S
C823 C820 1.391 . S
C823 C822 1.392 . S
N824 Co768 2.257 . S
N824 C821 1.391 . S
N824 C825 1.388 . S
C825 H796 0.930 . S
C825 C820 1.391 . S
C825 N824 1.388 . S
Co826 O828 2.143 . S
Co826 O834 2.074 . S
Co826 O837 2.093 . S
Co826 O850 2.097 . S
Co826 N867 2.151 . S
Co826 N875 2.214 . S
Co827 O828 2.160 . S
Co827 O833 2.058 . S
Co827 O843 2.057 . S
Co827 O858 2.037 . S
Co827 N862 2.145 . S
Co827 N883 2.257 . S
O828 Co826 2.143 . S
O828 Co827 2.160 . S
C829 O830 1.278 . S
C829 O837 1.224 . S
O830 C829 1.278 . S
C831 O832 1.245 . S
C831 O843 1.232 . S
O832 C831 1.245 . S
O833 Co827 2.058 . S
O833 C859 1.269 . S
O834 Co826 2.074 . S
O834 C859 1.257 . S
H835 C860 0.930 . S
H836 C866 0.930 . S
O837 Co826 2.093 . S
O837 C829 1.224 . S
H838 C870 0.929 . S
H839 C872 0.930 . S
H840 C873 0.930 . S
H841 C871 0.929 . S
H842 C874 0.928 . S
O843 Co827 2.057 . S
O843 C831 1.232 . S
H844 C863 0.929 . S
H845 C864 0.929 . S
H846 C876 0.931 . S
H847 C868 0.929 . S
H848 C877 0.930 . S
H849 C869 0.931 . S
O850 Co826 2.097 . S
O850 C878 1.214 . S
H851 C879 0.929 . S
H852 C880 0.929 . S
H853 C881 0.930 . S
H854 C882 0.929 . S
H855 C884 0.930 . S
H856 C861 0.930 . S
H857 C865 0.930 . S
O858 Co827 2.037 . S
O858 C878 1.234 . S
C859 O833 1.269 . S
C859 O834 1.257 . S
C860 H835 0.930 . S
C860 C863 1.388 . S
C860 C865 1.418 . S
C861 H856 0.930 . S
C861 C864 1.404 . S
C861 C865 1.353 . S
N862 Co827 2.145 . S
N862 C863 1.397 . S
N862 C864 1.334 . S
C863 H844 0.929 . S
C863 C860 1.388 . S
C863 N862 1.397 . S
C864 H845 0.929 . S
C864 C861 1.404 . S
C864 N862 1.334 . S
C865 H857 0.930 . S
C865 C860 1.418 . S
C865 C861 1.353 . S
C866 H836 0.930 . S
C866 N867 1.330 . S
C866 C868 1.446 . S
N867 Co826 2.151 . S
N867 C866 1.330 . S
N867 C871 1.418 . S
C868 H847 0.929 . S
C868 C866 1.446 . S
C868 C869 1.332 . S
C869 H849 0.931 . S
C869 C868 1.332 . S
C869 C870 1.267 . S
C870 H838 0.929 . S
C870 C869 1.267 . S
C870 C871 1.251 . S
C871 H841 0.929 . S
C871 N867 1.418 . S
C871 C870 1.251 . S
C872 H839 0.930 . S
C872 C874 1.406 . S
C872 C877 1.261 . S
C873 H840 0.930 . S
C873 N875 1.325 . S
C873 C876 1.357 . S
C874 H842 0.928 . S
C874 C872 1.406 . S
C874 N875 1.261 . S
N875 Co826 2.214 . S
N875 C873 1.325 . S
N875 C874 1.261 . S
C876 H846 0.931 . S
C876 C873 1.357 . S
C876 C877 1.312 . S
C877 H848 0.930 . S
C877 C872 1.261 . S
C877 C876 1.312 . S
C878 O850 1.214 . S
C878 O858 1.234 . S
C879 H851 0.929 . S
C879 C882 1.391 . S
C879 C884 1.391 . S
C880 H852 0.929 . S
C880 C881 1.390 . S
C880 N883 1.391 . S
C881 H853 0.930 . S
C881 C880 1.390 . S
C881 C882 1.392 . S
C882 H854 0.929 . S
C882 C879 1.391 . S
C882 C881 1.392 . S
N883 Co827 2.257 . S
N883 C880 1.391 . S
N883 C884 1.388 . S
C884 H855 0.930 . S
C884 C879 1.391 . S
C884 N883 1.388 . S
Co885 O887 2.143 . S
Co885 O893 2.074 . S
Co885 O896 2.093 . S
Co885 O909 2.097 . S
Co885 N926 2.151 . S
Co885 N934 2.214 . S
Co886 O887 2.160 . S
Co886 O892 2.058 . S
Co886 O902 2.057 . S
Co886 O917 2.037 . S
Co886 N921 2.145 . S
Co886 N942 2.257 . S
O887 Co885 2.143 . S
O887 Co886 2.160 . S
C888 O889 1.278 . S
C888 O896 1.224 . S
O889 C888 1.278 . S
C890 O891 1.245 . S
C890 O902 1.232 . S
O891 C890 1.245 . S
O892 Co886 2.058 . S
O892 C918 1.269 . S
O893 Co885 2.074 . S
O893 C918 1.257 . S
H894 C919 0.930 . S
H895 C925 0.930 . S
O896 Co885 2.093 . S
O896 C888 1.224 . S
H897 C929 0.929 . S
H898 C931 0.930 . S
H899 C932 0.930 . S
H900 C930 0.929 . S
H901 C933 0.928 . S
O902 Co886 2.057 . S
O902 C890 1.232 . S
H903 C922 0.929 . S
H904 C923 0.929 . S
H905 C935 0.931 . S
H906 C927 0.929 . S
H907 C936 0.930 . S
H908 C928 0.931 . S
O909 Co885 2.097 . S
O909 C937 1.214 . S
H910 C938 0.929 1_556 S
H911 C939 0.929 . S
H912 C940 0.930 1_556 S
H913 C941 0.929 . S
H914 C943 0.930 . S
H915 C920 0.930 . S
H916 C924 0.930 . S
O917 Co886 2.037 . S
O917 C937 1.234 . S
C918 O892 1.269 . S
C918 O893 1.257 . S
C919 H894 0.930 . S
C919 C922 1.388 . S
C919 C924 1.418 . S
C920 H915 0.930 . S
C920 C923 1.404 . S
C920 C924 1.353 . S
N921 Co886 2.145 . S
N921 C922 1.397 . S
N921 C923 1.334 . S
C922 H903 0.929 . S
C922 C919 1.388 . S
C922 N921 1.397 . S
C923 H904 0.929 . S
C923 C920 1.404 . S
C923 N921 1.334 . S
C924 H916 0.930 . S
C924 C919 1.418 . S
C924 C920 1.353 . S
C925 H895 0.930 . S
C925 N926 1.330 . S
C925 C927 1.446 . S
N926 Co885 2.151 . S
N926 C925 1.330 . S
N926 C930 1.418 . S
C927 H906 0.929 . S
C927 C925 1.446 . S
C927 C928 1.332 . S
C928 H908 0.931 . S
C928 C927 1.332 . S
C928 C929 1.267 . S
C929 H897 0.929 . S
C929 C928 1.267 . S
C929 C930 1.251 . S
C930 H900 0.929 . S
C930 N926 1.418 . S
C930 C929 1.251 . S
C931 H898 0.930 . S
C931 C933 1.406 . S
C931 C936 1.261 . S
C932 H899 0.930 . S
C932 N934 1.325 . S
C932 C935 1.357 . S
C933 H901 0.928 . S
C933 C931 1.406 . S
C933 N934 1.261 . S
N934 Co885 2.214 . S
N934 C932 1.325 . S
N934 C933 1.261 . S
C935 H905 0.931 . S
C935 C932 1.357 . S
C935 C936 1.312 . S
C936 H907 0.930 . S
C936 C931 1.261 . S
C936 C935 1.312 . S
C937 O909 1.214 . S
C937 O917 1.234 . S
C938 H910 0.929 1_554 S
C938 C941 1.391 1_554 S
C938 C943 1.391 . S
C939 H911 0.929 . S
C939 C940 1.390 . S
C939 N942 1.391 . S
C940 H912 0.930 1_554 S
C940 C939 1.390 . S
C940 C941 1.392 1_554 S
C941 H913 0.929 . S
C941 C938 1.391 1_556 S
C941 C940 1.392 1_556 S
N942 Co886 2.257 . S
N942 C939 1.391 . S
N942 C943 1.388 . S
C943 H914 0.930 . S
C943 C938 1.391 . S
C943 N942 1.388 . S
Co944 O946 2.143 . S
Co944 O952 2.074 . S
Co944 O955 2.093 . S
Co944 O968 2.097 . S
Co944 N985 2.151 . S
Co944 N993 2.214 . S
Co945 O946 2.160 . S
Co945 O951 2.058 . S
Co945 O961 2.057 . S
Co945 O976 2.037 . S
Co945 N980 2.145 . S
Co945 N1001 2.257 . S
O946 Co944 2.143 . S
O946 Co945 2.160 . S
C947 O948 1.278 . S
C947 O955 1.224 . S
O948 C947 1.278 . S
C949 O950 1.245 . S
C949 O961 1.232 . S
O950 C949 1.245 . S
O951 Co945 2.058 . S
O951 C977 1.269 . S
O952 Co944 2.074 . S
O952 C977 1.257 . S
H953 C978 0.930 . S
H954 C984 0.930 . S
O955 Co944 2.093 . S
O955 C947 1.224 . S
H956 C988 0.929 . S
H957 C990 0.930 . S
H958 C991 0.930 . S
H959 C989 0.929 . S
H960 C992 0.928 . S
O961 Co945 2.057 . S
O961 C949 1.232 . S
H962 C981 0.929 . S
H963 C982 0.929 . S
H964 C994 0.931 . S
H965 C986 0.929 . S
H966 C995 0.930 . S
H967 C987 0.931 . S
O968 Co944 2.097 . S
O968 C996 1.214 . S
H969 C997 0.929 . S
H970 C998 0.929 . S
H971 C999 0.930 . S
H972 C1000 0.929 . S
H973 C1002 0.930 . S
H974 C979 0.930 . S
H975 C983 0.930 . S
O976 Co945 2.037 . S
O976 C996 1.234 . S
C977 O951 1.269 . S
C977 O952 1.257 . S
C978 H953 0.930 . S
C978 C981 1.388 . S
C978 C983 1.418 . S
C979 H974 0.930 . S
C979 C982 1.404 . S
C979 C983 1.353 . S
N980 Co945 2.145 . S
N980 C981 1.397 . S
N980 C982 1.334 . S
C981 H962 0.929 . S
C981 C978 1.388 . S
C981 N980 1.397 . S
C982 H963 0.929 . S
C982 C979 1.404 . S
C982 N980 1.334 . S
C983 H975 0.930 . S
C983 C978 1.418 . S
C983 C979 1.353 . S
C984 H954 0.930 . S
C984 N985 1.330 . S
C984 C986 1.446 . S
N985 Co944 2.151 . S
N985 C984 1.330 . S
N985 C989 1.418 1_556 S
C986 H965 0.929 . S
C986 C984 1.446 . S
C986 C987 1.332 1_556 S
C987 H967 0.931 . S
C987 C986 1.332 1_554 S
C987 C988 1.267 . S
C988 H956 0.929 . S
C988 C987 1.267 . S
C988 C989 1.251 . S
C989 H959 0.929 . S
C989 N985 1.418 1_554 S
C989 C988 1.251 . S
C990 H957 0.930 . S
C990 C992 1.406 1_554 S
C990 C995 1.261 . S
C991 H958 0.930 . S
C991 N993 1.325 . S
C991 C994 1.357 1_556 S
C992 H960 0.928 . S
C992 C990 1.406 1_556 S
C992 N993 1.261 . S
N993 Co944 2.214 . S
N993 C991 1.325 . S
N993 C992 1.261 . S
C994 H964 0.931 . S
C994 C991 1.357 1_554 S
C994 C995 1.312 . S
C995 H966 0.930 . S
C995 C990 1.261 . S
C995 C994 1.312 . S
C996 O968 1.214 . S
C996 O976 1.234 . S
C997 H969 0.929 . S
C997 C1000 1.391 . S
C997 C1002 1.391 . S
C998 H970 0.929 . S
C998 C999 1.390 . S
C998 N1001 1.391 . S
C999 H971 0.930 . S
C999 C998 1.390 . S
C999 C1000 1.392 . S
C1000 H972 0.929 . S
C1000 C997 1.391 . S
C1000 C999 1.392 . S
N1001 Co945 2.257 . S
N1001 C998 1.391 . S
N1001 C1002 1.388 . S
C1002 H973 0.930 . S
C1002 C997 1.391 . S
C1002 N1001 1.388 . S
Co1003 O1005 2.143 . S
Co1003 O1011 2.074 . S
Co1003 O1014 2.093 . S
Co1003 O1027 2.097 . S
Co1003 N1044 2.151 . S
Co1003 N1052 2.214 . S
Co1004 O1005 2.160 . S
Co1004 O1010 2.058 . S
Co1004 O1020 2.057 . S
Co1004 O1035 2.037 . S
Co1004 N1039 2.145 . S
Co1004 N1060 2.257 . S
O1005 Co1003 2.143 . S
O1005 Co1004 2.160 . S
C1006 O1007 1.278 . S
C1006 O1014 1.224 . S
O1007 C1006 1.278 . S
C1008 O1009 1.245 . S
C1008 O1020 1.232 . S
O1009 C1008 1.245 . S
O1010 Co1004 2.058 . S
O1010 C1036 1.269 . S
O1011 Co1003 2.074 . S
O1011 C1036 1.257 . S
H1012 C1037 0.930 . S
H1013 C1043 0.930 . S
O1014 Co1003 2.093 . S
O1014 C1006 1.224 . S
H1015 C1047 0.929 . S
H1016 C1049 0.930 . S
H1017 C1050 0.930 . S
H1018 C1048 0.929 . S
H1019 C1051 0.928 . S
O1020 Co1004 2.057 . S
O1020 C1008 1.232 . S
H1021 C1040 0.929 . S
H1022 C1041 0.929 . S
H1023 C1053 0.931 . S
H1024 C1045 0.929 . S
H1025 C1054 0.930 . S
H1026 C1046 0.931 . S
O1027 Co1003 2.097 . S
O1027 C1055 1.214 . S
H1028 C1056 0.929 1_556 S
H1029 C1057 0.929 . S
H1030 C1058 0.930 1_556 S
H1031 C1059 0.929 . S
H1032 C1061 0.930 . S
H1033 C1038 0.930 . S
H1034 C1042 0.930 . S
O1035 Co1004 2.037 . S
O1035 C1055 1.234 . S
C1036 O1010 1.269 . S
C1036 O1011 1.257 . S
C1037 H1012 0.930 . S
C1037 C1040 1.388 . S
C1037 C1042 1.418 . S
C1038 H1033 0.930 . S
C1038 C1041 1.404 . S
C1038 C1042 1.353 . S
N1039 Co1004 2.145 . S
N1039 C1040 1.397 . S
N1039 C1041 1.334 . S
C1040 H1021 0.929 . S
C1040 C1037 1.388 . S
C1040 N1039 1.397 . S
C1041 H1022 0.929 . S
C1041 C1038 1.404 . S
C1041 N1039 1.334 . S
C1042 H1034 0.930 . S
C1042 C1037 1.418 . S
C1042 C1038 1.353 . S
C1043 H1013 0.930 . S
C1043 N1044 1.330 . S
C1043 C1045 1.446 . S
N1044 Co1003 2.151 . S
N1044 C1043 1.330 . S
N1044 C1048 1.418 . S
C1045 H1024 0.929 . S
C1045 C1043 1.446 . S
C1045 C1046 1.332 . S
C1046 H1026 0.931 . S
C1046 C1045 1.332 . S
C1046 C1047 1.267 . S
C1047 H1015 0.929 . S
C1047 C1046 1.267 . S
C1047 C1048 1.251 . S
C1048 H1018 0.929 . S
C1048 N1044 1.418 . S
C1048 C1047 1.251 . S
C1049 H1016 0.930 . S
C1049 C1051 1.406 . S
C1049 C1054 1.261 . S
C1050 H1017 0.930 . S
C1050 N1052 1.325 . S
C1050 C1053 1.357 . S
C1051 H1019 0.928 . S
C1051 C1049 1.406 . S
C1051 N1052 1.261 . S
N1052 Co1003 2.214 . S
N1052 C1050 1.325 . S
N1052 C1051 1.261 . S
C1053 H1023 0.931 . S
C1053 C1050 1.357 . S
C1053 C1054 1.312 . S
C1054 H1025 0.930 . S
C1054 C1049 1.261 . S
C1054 C1053 1.312 . S
C1055 O1027 1.214 . S
C1055 O1035 1.234 . S
C1056 H1028 0.929 1_554 S
C1056 C1059 1.391 1_554 S
C1056 C1061 1.391 . S
C1057 H1029 0.929 . S
C1057 C1058 1.390 . S
C1057 N1060 1.391 . S
C1058 H1030 0.930 1_554 S
C1058 C1057 1.390 . S
C1058 C1059 1.392 1_554 S
C1059 H1031 0.929 . S
C1059 C1056 1.391 1_556 S
C1059 C1058 1.392 1_556 S
N1060 Co1004 2.257 . S
N1060 C1057 1.391 . S
N1060 C1061 1.388 . S
C1061 H1032 0.930 . S
C1061 C1056 1.391 . S
C1061 N1060 1.388 . S
Co1062 O1064 2.143 . S
Co1062 O1070 2.074 . S
Co1062 O1073 2.093 . S
Co1062 O1086 2.097 . S
Co1062 N1103 2.151 . S
Co1062 N1111 2.214 . S
Co1063 O1064 2.160 . S
Co1063 O1069 2.058 . S
Co1063 O1079 2.057 . S
Co1063 O1094 2.037 . S
Co1063 N1098 2.145 . S
Co1063 N1119 2.257 . S
O1064 Co1062 2.143 . S
O1064 Co1063 2.160 . S
C1065 O1066 1.278 . S
C1065 O1073 1.224 . S
O1066 C1065 1.278 . S
C1067 O1068 1.245 . S
C1067 O1079 1.232 . S
O1068 C1067 1.245 . S
O1069 Co1063 2.058 . S
O1069 C1095 1.269 . S
O1070 Co1062 2.074 . S
O1070 C1095 1.257 . S
H1071 C1096 0.930 . S
H1072 C1102 0.930 . S
O1073 Co1062 2.093 . S
O1073 C1065 1.224 . S
H1074 C1106 0.929 . S
H1075 C1108 0.930 . S
H1076 C1109 0.930 . S
H1077 C1107 0.929 . S
H1078 C1110 0.928 . S
O1079 Co1063 2.057 . S
O1079 C1067 1.232 . S
H1080 C1099 0.929 . S
H1081 C1100 0.929 . S
H1082 C1112 0.931 . S
H1083 C1104 0.929 . S
H1084 C1113 0.930 . S
H1085 C1105 0.931 . S
O1086 Co1062 2.097 . S
O1086 C1114 1.214 . S
H1087 C1115 0.929 . S
H1088 C1116 0.929 . S
H1089 C1117 0.930 . S
H1090 C1118 0.929 . S
H1091 C1120 0.930 . S
H1092 C1097 0.930 . S
H1093 C1101 0.930 . S
O1094 Co1063 2.037 . S
O1094 C1114 1.234 . S
C1095 O1069 1.269 . S
C1095 O1070 1.257 . S
C1096 H1071 0.930 . S
C1096 C1099 1.388 . S
C1096 C1101 1.418 . S
C1097 H1092 0.930 . S
C1097 C1100 1.404 . S
C1097 C1101 1.353 . S
N1098 Co1063 2.145 . S
N1098 C1099 1.397 . S
N1098 C1100 1.334 . S
C1099 H1080 0.929 . S
C1099 C1096 1.388 . S
C1099 N1098 1.397 . S
C1100 H1081 0.929 . S
C1100 C1097 1.404 . S
C1100 N1098 1.334 . S
C1101 H1093 0.930 . S
C1101 C1096 1.418 . S
C1101 C1097 1.353 . S
C1102 H1072 0.930 . S
C1102 N1103 1.330 . S
C1102 C1104 1.446 . S
N1103 Co1062 2.151 . S
N1103 C1102 1.330 . S
N1103 C1107 1.418 . S
C1104 H1083 0.929 . S
C1104 C1102 1.446 . S
C1104 C1105 1.332 . S
C1105 H1085 0.931 . S
C1105 C1104 1.332 . S
C1105 C1106 1.267 . S
C1106 H1074 0.929 . S
C1106 C1105 1.267 . S
C1106 C1107 1.251 . S
C1107 H1077 0.929 . S
C1107 N1103 1.418 . S
C1107 C1106 1.251 . S
C1108 H1075 0.930 . S
C1108 C1110 1.406 . S
C1108 C1113 1.261 . S
C1109 H1076 0.930 . S
C1109 N1111 1.325 . S
C1109 C1112 1.357 . S
C1110 H1078 0.928 . S
C1110 C1108 1.406 . S
C1110 N1111 1.261 . S
N1111 Co1062 2.214 . S
N1111 C1109 1.325 . S
N1111 C1110 1.261 . S
C1112 H1082 0.931 . S
C1112 C1109 1.357 . S
C1112 C1113 1.312 . S
C1113 H1084 0.930 . S
C1113 C1108 1.261 . S
C1113 C1112 1.312 . S
C1114 O1086 1.214 . S
C1114 O1094 1.234 . S
C1115 H1087 0.929 . S
C1115 C1118 1.391 . S
C1115 C1120 1.391 . S
C1116 H1088 0.929 . S
C1116 C1117 1.390 . S
C1116 N1119 1.391 . S
C1117 H1089 0.930 . S
C1117 C1116 1.390 . S
C1117 C1118 1.392 . S
C1118 H1090 0.929 . S
C1118 C1115 1.391 . S
C1118 C1117 1.392 . S
N1119 Co1063 2.257 . S
N1119 C1116 1.391 . S
N1119 C1120 1.388 . S
C1120 H1091 0.930 . S
C1120 C1115 1.391 . S
C1120 N1119 1.388 . S
Co1121 O1123 2.143 . S
Co1121 O1129 2.074 . S
Co1121 O1132 2.093 . S
Co1121 O1145 2.097 . S
Co1121 N1162 2.151 . S
Co1121 N1170 2.214 . S
Co1122 O1123 2.160 . S
Co1122 O1128 2.058 . S
Co1122 O1138 2.057 . S
Co1122 O1153 2.037 . S
Co1122 N1157 2.145 . S
Co1122 N1178 2.257 . S
O1123 Co1121 2.143 . S
O1123 Co1122 2.160 . S
C1124 O1125 1.278 . S
C1124 O1132 1.224 . S
O1125 C1124 1.278 . S
C1126 O1127 1.245 . S
C1126 O1138 1.232 . S
O1127 C1126 1.245 . S
O1128 Co1122 2.058 . S
O1128 C1154 1.269 . S
O1129 Co1121 2.074 . S
O1129 C1154 1.257 . S
H1130 C1155 0.930 . S
H1131 C1161 0.930 . S
O1132 Co1121 2.093 . S
O1132 C1124 1.224 . S
H1133 C1165 0.929 . S
H1134 C1167 0.930 . S
H1135 C1168 0.930 . S
H1136 C1166 0.929 . S
H1137 C1169 0.928 . S
O1138 Co1122 2.057 . S
O1138 C1126 1.232 . S
H1139 C1158 0.929 . S
H1140 C1159 0.929 . S
H1141 C1171 0.931 . S
H1142 C1163 0.929 . S
H1143 C1172 0.930 . S
H1144 C1164 0.931 . S
O1145 Co1121 2.097 . S
O1145 C1173 1.214 . S
H1146 C1174 0.929 . S
H1147 C1175 0.929 . S
H1148 C1176 0.930 . S
H1149 C1177 0.929 . S
H1150 C1179 0.930 . S
H1151 C1156 0.930 . S
H1152 C1160 0.930 . S
O1153 Co1122 2.037 . S
O1153 C1173 1.234 . S
C1154 O1128 1.269 . S
C1154 O1129 1.257 . S
C1155 H1130 0.930 . S
C1155 C1158 1.388 . S
C1155 C1160 1.418 . S
C1156 H1151 0.930 . S
C1156 C1159 1.404 . S
C1156 C1160 1.353 . S
N1157 Co1122 2.145 . S
N1157 C1158 1.397 . S
N1157 C1159 1.334 . S
C1158 H1139 0.929 . S
C1158 C1155 1.388 . S
C1158 N1157 1.397 . S
C1159 H1140 0.929 . S
C1159 C1156 1.404 . S
C1159 N1157 1.334 . S
C1160 H1152 0.930 . S
C1160 C1155 1.418 . S
C1160 C1156 1.353 . S
C1161 H1131 0.930 . S
C1161 N1162 1.330 . S
C1161 C1163 1.446 . S
N1162 Co1121 2.151 . S
N1162 C1161 1.330 . S
N1162 C1166 1.418 . S
C1163 H1142 0.929 . S
C1163 C1161 1.446 . S
C1163 C1164 1.332 . S
C1164 H1144 0.931 . S
C1164 C1163 1.332 . S
C1164 C1165 1.267 . S
C1165 H1133 0.929 . S
C1165 C1164 1.267 . S
C1165 C1166 1.251 . S
C1166 H1136 0.929 . S
C1166 N1162 1.418 . S
C1166 C1165 1.251 . S
C1167 H1134 0.930 . S
C1167 C1169 1.406 . S
C1167 C1172 1.261 . S
C1168 H1135 0.930 . S
C1168 N1170 1.325 . S
C1168 C1171 1.357 . S
C1169 H1137 0.928 . S
C1169 C1167 1.406 . S
C1169 N1170 1.261 . S
N1170 Co1121 2.214 . S
N1170 C1168 1.325 . S
N1170 C1169 1.261 . S
C1171 H1141 0.931 . S
C1171 C1168 1.357 . S
C1171 C1172 1.312 . S
C1172 H1143 0.930 . S
C1172 C1167 1.261 . S
C1172 C1171 1.312 . S
C1173 O1145 1.214 . S
C1173 O1153 1.234 . S
C1174 H1146 0.929 . S
C1174 C1177 1.391 . S
C1174 C1179 1.391 . S
C1175 H1147 0.929 . S
C1175 C1176 1.390 . S
C1175 N1178 1.391 . S
C1176 H1148 0.930 . S
C1176 C1175 1.390 . S
C1176 C1177 1.392 . S
C1177 H1149 0.929 . S
C1177 C1174 1.391 . S
C1177 C1176 1.392 . S
N1178 Co1122 2.257 . S
N1178 C1175 1.391 . S
N1178 C1179 1.388 . S
C1179 H1150 0.930 . S
C1179 C1174 1.391 . S
C1179 N1178 1.388 . S
Co1180 O1182 2.143 . S
Co1180 O1188 2.074 . S
Co1180 O1191 2.093 . S
Co1180 O1204 2.097 . S
Co1180 N1221 2.151 . S
Co1180 N1229 2.214 . S
Co1181 O1182 2.160 . S
Co1181 O1187 2.058 . S
Co1181 O1197 2.057 . S
Co1181 O1212 2.037 . S
Co1181 N1216 2.145 . S
Co1181 N1237 2.257 . S
O1182 Co1180 2.143 . S
O1182 Co1181 2.160 . S
C1183 O1184 1.278 . S
C1183 O1191 1.224 . S
O1184 C1183 1.278 . S
C1185 O1186 1.245 . S
C1185 O1197 1.232 . S
O1186 C1185 1.245 . S
O1187 Co1181 2.058 . S
O1187 C1213 1.269 . S
O1188 Co1180 2.074 . S
O1188 C1213 1.257 . S
H1189 C1214 0.930 . S
H1190 C1220 0.930 . S
O1191 Co1180 2.093 . S
O1191 C1183 1.224 . S
H1192 C1224 0.929 . S
H1193 C1226 0.930 . S
H1194 C1227 0.930 . S
H1195 C1225 0.929 . S
H1196 C1228 0.928 . S
O1197 Co1181 2.057 . S
O1197 C1185 1.232 . S
H1198 C1217 0.929 . S
H1199 C1218 0.929 . S
H1200 C1230 0.931 . S
H1201 C1222 0.929 . S
H1202 C1231 0.930 . S
H1203 C1223 0.931 . S
O1204 Co1180 2.097 . S
O1204 C1232 1.214 . S
H1205 C1233 0.929 . S
H1206 C1234 0.929 . S
H1207 C1235 0.930 . S
H1208 C1236 0.929 . S
H1209 C1238 0.930 . S
H1210 C1215 0.930 . S
H1211 C1219 0.930 . S
O1212 Co1181 2.037 . S
O1212 C1232 1.234 . S
C1213 O1187 1.269 . S
C1213 O1188 1.257 . S
C1214 H1189 0.930 . S
C1214 C1217 1.388 . S
C1214 C1219 1.418 . S
C1215 H1210 0.930 . S
C1215 C1218 1.404 . S
C1215 C1219 1.353 . S
N1216 Co1181 2.145 . S
N1216 C1217 1.397 . S
N1216 C1218 1.334 . S
C1217 H1198 0.929 . S
C1217 C1214 1.388 . S
C1217 N1216 1.397 . S
C1218 H1199 0.929 . S
C1218 C1215 1.404 . S
C1218 N1216 1.334 . S
C1219 H1211 0.930 . S
C1219 C1214 1.418 . S
C1219 C1215 1.353 . S
C1220 H1190 0.930 . S
C1220 N1221 1.330 . S
C1220 C1222 1.446 . S
N1221 Co1180 2.151 . S
N1221 C1220 1.330 . S
N1221 C1225 1.418 . S
C1222 H1201 0.929 . S
C1222 C1220 1.446 . S
C1222 C1223 1.332 . S
C1223 H1203 0.931 . S
C1223 C1222 1.332 . S
C1223 C1224 1.267 . S
C1224 H1192 0.929 . S
C1224 C1223 1.267 . S
C1224 C1225 1.251 . S
C1225 H1195 0.929 . S
C1225 N1221 1.418 . S
C1225 C1224 1.251 . S
C1226 H1193 0.930 . S
C1226 C1228 1.406 . S
C1226 C1231 1.261 . S
C1227 H1194 0.930 . S
C1227 N1229 1.325 . S
C1227 C1230 1.357 . S
C1228 H1196 0.928 . S
C1228 C1226 1.406 . S
C1228 N1229 1.261 . S
N1229 Co1180 2.214 . S
N1229 C1227 1.325 . S
N1229 C1228 1.261 . S
C1230 H1200 0.931 . S
C1230 C1227 1.357 . S
C1230 C1231 1.312 . S
C1231 H1202 0.930 . S
C1231 C1226 1.261 . S
C1231 C1230 1.312 . S
C1232 O1204 1.214 . S
C1232 O1212 1.234 . S
C1233 H1205 0.929 . S
C1233 C1236 1.391 . S
C1233 C1238 1.391 . S
C1234 H1206 0.929 . S
C1234 C1235 1.390 . S
C1234 N1237 1.391 . S
C1235 H1207 0.930 . S
C1235 C1234 1.390 . S
C1235 C1236 1.392 . S
C1236 H1208 0.929 . S
C1236 C1233 1.391 . S
C1236 C1235 1.392 . S
N1237 Co1181 2.257 . S
N1237 C1234 1.391 . S
N1237 C1238 1.388 . S
C1238 H1209 0.930 . S
C1238 C1233 1.391 . S
C1238 N1237 1.388 . S
Co1239 O1241 2.143 . S
Co1239 O1247 2.074 . S
Co1239 O1250 2.093 . S
Co1239 O1263 2.097 . S
Co1239 N1280 2.151 . S
Co1239 N1288 2.214 . S
Co1240 O1241 2.160 . S
Co1240 O1246 2.058 . S
Co1240 O1256 2.057 . S
Co1240 O1271 2.037 . S
Co1240 N1275 2.145 . S
Co1240 N1296 2.257 . S
O1241 Co1239 2.143 . S
O1241 Co1240 2.160 . S
C1242 O1243 1.278 . S
C1242 O1250 1.224 . S
O1243 C1242 1.278 . S
C1244 O1245 1.245 . S
C1244 O1256 1.232 . S
O1245 C1244 1.245 . S
O1246 Co1240 2.058 . S
O1246 C1272 1.269 . S
O1247 Co1239 2.074 . S
O1247 C1272 1.257 . S
H1248 C1273 0.930 . S
H1249 C1279 0.930 . S
O1250 Co1239 2.093 . S
O1250 C1242 1.224 . S
H1251 C1283 0.929 . S
H1252 C1285 0.930 . S
H1253 C1286 0.930 . S
H1254 C1284 0.929 . S
H1255 C1287 0.928 . S
O1256 Co1240 2.057 . S
O1256 C1244 1.232 . S
H1257 C1276 0.929 . S
H1258 C1277 0.929 . S
H1259 C1289 0.931 . S
H1260 C1281 0.929 . S
H1261 C1290 0.930 . S
H1262 C1282 0.931 . S
O1263 Co1239 2.097 . S
O1263 C1291 1.214 . S
H1264 C1292 0.929 1_554 S
H1265 C1293 0.929 . S
H1266 C1294 0.930 1_554 S
H1267 C1295 0.929 . S
H1268 C1297 0.930 . S
H1269 C1274 0.930 . S
H1270 C1278 0.930 . S
O1271 Co1240 2.037 . S
O1271 C1291 1.234 . S
C1272 O1246 1.269 . S
C1272 O1247 1.257 . S
C1273 H1248 0.930 . S
C1273 C1276 1.388 . S
C1273 C1278 1.418 . S
C1274 H1269 0.930 . S
C1274 C1277 1.404 . S
C1274 C1278 1.353 . S
N1275 Co1240 2.145 . S
N1275 C1276 1.397 . S
N1275 C1277 1.334 . S
C1276 H1257 0.929 . S
C1276 C1273 1.388 . S
C1276 N1275 1.397 . S
C1277 H1258 0.929 . S
C1277 C1274 1.404 . S
C1277 N1275 1.334 . S
C1278 H1270 0.930 . S
C1278 C1273 1.418 . S
C1278 C1274 1.353 . S
C1279 H1249 0.930 . S
C1279 N1280 1.330 . S
C1279 C1281 1.446 . S
N1280 Co1239 2.151 . S
N1280 C1279 1.330 . S
N1280 C1284 1.418 . S
C1281 H1260 0.929 . S
C1281 C1279 1.446 . S
C1281 C1282 1.332 . S
C1282 H1262 0.931 . S
C1282 C1281 1.332 . S
C1282 C1283 1.267 . S
C1283 H1251 0.929 . S
C1283 C1282 1.267 . S
C1283 C1284 1.251 . S
C1284 H1254 0.929 . S
C1284 N1280 1.418 . S
C1284 C1283 1.251 . S
C1285 H1252 0.930 . S
C1285 C1287 1.406 . S
C1285 C1290 1.261 . S
C1286 H1253 0.930 . S
C1286 N1288 1.325 . S
C1286 C1289 1.357 . S
C1287 H1255 0.928 . S
C1287 C1285 1.406 . S
C1287 N1288 1.261 . S
N1288 Co1239 2.214 . S
N1288 C1286 1.325 . S
N1288 C1287 1.261 . S
C1289 H1259 0.931 . S
C1289 C1286 1.357 . S
C1289 C1290 1.312 . S
C1290 H1261 0.930 . S
C1290 C1285 1.261 . S
C1290 C1289 1.312 . S
C1291 O1263 1.214 . S
C1291 O1271 1.234 . S
C1292 H1264 0.929 1_556 S
C1292 C1295 1.391 1_556 S
C1292 C1297 1.391 . S
C1293 H1265 0.929 . S
C1293 C1294 1.390 . S
C1293 N1296 1.391 . S
C1294 H1266 0.930 1_556 S
C1294 C1293 1.390 . S
C1294 C1295 1.392 1_556 S
C1295 H1267 0.929 . S
C1295 C1292 1.391 1_554 S
C1295 C1294 1.392 1_554 S
N1296 Co1240 2.257 . S
N1296 C1293 1.391 . S
N1296 C1297 1.388 . S
C1297 H1268 0.930 . S
C1297 C1292 1.391 . S
C1297 N1296 1.388 . S
Co1298 O1300 2.143 . S
Co1298 O1306 2.074 . S
Co1298 O1309 2.093 . S
Co1298 O1322 2.097 . S
Co1298 N1339 2.151 . S
Co1298 N1347 2.214 . S
Co1299 O1300 2.160 . S
Co1299 O1305 2.058 . S
Co1299 O1315 2.057 . S
Co1299 O1330 2.037 . S
Co1299 N1334 2.145 . S
Co1299 N1355 2.257 . S
O1300 Co1298 2.143 . S
O1300 Co1299 2.160 . S
C1301 O1302 1.278 . S
C1301 O1309 1.224 . S
O1302 C1301 1.278 . S
C1303 O1304 1.245 . S
C1303 O1315 1.232 . S
O1304 C1303 1.245 . S
O1305 Co1299 2.058 . S
O1305 C1331 1.269 . S
O1306 Co1298 2.074 . S
O1306 C1331 1.257 . S
H1307 C1332 0.930 . S
H1308 C1338 0.930 . S
O1309 Co1298 2.093 . S
O1309 C1301 1.224 . S
H1310 C1342 0.929 . S
H1311 C1344 0.930 . S
H1312 C1345 0.930 . S
H1313 C1343 0.929 . S
H1314 C1346 0.928 . S
O1315 Co1299 2.057 . S
O1315 C1303 1.232 . S
H1316 C1335 0.929 . S
H1317 C1336 0.929 . S
H1318 C1348 0.931 . S
H1319 C1340 0.929 . S
H1320 C1349 0.930 . S
H1321 C1341 0.931 . S
O1322 Co1298 2.097 . S
O1322 C1350 1.214 . S
H1323 C1351 0.929 . S
H1324 C1352 0.929 . S
H1325 C1353 0.930 . S
H1326 C1354 0.929 . S
H1327 C1356 0.930 . S
H1328 C1333 0.930 . S
H1329 C1337 0.930 . S
O1330 Co1299 2.037 . S
O1330 C1350 1.234 . S
C1331 O1305 1.269 . S
C1331 O1306 1.257 . S
C1332 H1307 0.930 . S
C1332 C1335 1.388 . S
C1332 C1337 1.418 . S
C1333 H1328 0.930 . S
C1333 C1336 1.404 . S
C1333 C1337 1.353 . S
N1334 Co1299 2.145 . S
N1334 C1335 1.397 . S
N1334 C1336 1.334 . S
C1335 H1316 0.929 . S
C1335 C1332 1.388 . S
C1335 N1334 1.397 . S
C1336 H1317 0.929 . S
C1336 C1333 1.404 . S
C1336 N1334 1.334 . S
C1337 H1329 0.930 . S
C1337 C1332 1.418 . S
C1337 C1333 1.353 . S
C1338 H1308 0.930 . S
C1338 N1339 1.330 . S
C1338 C1340 1.446 . S
N1339 Co1298 2.151 . S
N1339 C1338 1.330 . S
N1339 C1343 1.418 1_554 S
C1340 H1319 0.929 . S
C1340 C1338 1.446 . S
C1340 C1341 1.332 1_554 S
C1341 H1321 0.931 . S
C1341 C1340 1.332 1_556 S
C1341 C1342 1.267 . S
C1342 H1310 0.929 . S
C1342 C1341 1.267 . S
C1342 C1343 1.251 . S
C1343 H1313 0.929 . S
C1343 N1339 1.418 1_556 S
C1343 C1342 1.251 . S
C1344 H1311 0.930 . S
C1344 C1346 1.406 1_556 S
C1344 C1349 1.261 . S
C1345 H1312 0.930 . S
C1345 N1347 1.325 . S
C1345 C1348 1.357 1_554 S
C1346 H1314 0.928 . S
C1346 C1344 1.406 1_554 S
C1346 N1347 1.261 . S
N1347 Co1298 2.214 . S
N1347 C1345 1.325 . S
N1347 C1346 1.261 . S
C1348 H1318 0.931 . S
C1348 C1345 1.357 1_556 S
C1348 C1349 1.312 . S
C1349 H1320 0.930 . S
C1349 C1344 1.261 . S
C1349 C1348 1.312 . S
C1350 O1322 1.214 . S
C1350 O1330 1.234 . S
C1351 H1323 0.929 . S
C1351 C1354 1.391 . S
C1351 C1356 1.391 . S
C1352 H1324 0.929 . S
C1352 C1353 1.390 . S
C1352 N1355 1.391 . S
C1353 H1325 0.930 . S
C1353 C1352 1.390 . S
C1353 C1354 1.392 . S
C1354 H1326 0.929 . S
C1354 C1351 1.391 . S
C1354 C1353 1.392 . S
N1355 Co1299 2.257 . S
N1355 C1352 1.391 . S
N1355 C1356 1.388 . S
C1356 H1327 0.930 . S
C1356 C1351 1.391 . S
C1356 N1355 1.388 . S
Co1357 O1359 2.143 . S
Co1357 O1365 2.074 . S
Co1357 O1368 2.093 . S
Co1357 O1381 2.097 . S
Co1357 N1398 2.151 . S
Co1357 N1406 2.214 . S
Co1358 O1359 2.160 . S
Co1358 O1364 2.058 . S
Co1358 O1374 2.057 . S
Co1358 O1389 2.037 . S
Co1358 N1393 2.145 . S
Co1358 N1414 2.257 . S
O1359 Co1357 2.143 . S
O1359 Co1358 2.160 . S
C1360 O1361 1.278 . S
C1360 O1368 1.224 . S
O1361 C1360 1.278 . S
C1362 O1363 1.245 . S
C1362 O1374 1.232 . S
O1363 C1362 1.245 . S
O1364 Co1358 2.058 . S
O1364 C1390 1.269 . S
O1365 Co1357 2.074 . S
O1365 C1390 1.257 . S
H1366 C1391 0.930 . S
H1367 C1397 0.930 . S
O1368 Co1357 2.093 . S
O1368 C1360 1.224 . S
H1369 C1401 0.929 . S
H1370 C1403 0.930 . S
H1371 C1404 0.930 . S
H1372 C1402 0.929 . S
H1373 C1405 0.928 . S
O1374 Co1358 2.057 . S
O1374 C1362 1.232 . S
H1375 C1394 0.929 . S
H1376 C1395 0.929 . S
H1377 C1407 0.931 . S
H1378 C1399 0.929 . S
H1379 C1408 0.930 . S
H1380 C1400 0.931 . S
O1381 Co1357 2.097 . S
O1381 C1409 1.214 . S
H1382 C1410 0.929 . S
H1383 C1411 0.929 . S
H1384 C1412 0.930 . S
H1385 C1413 0.929 . S
H1386 C1415 0.930 . S
H1387 C1392 0.930 . S
H1388 C1396 0.930 . S
O1389 Co1358 2.037 . S
O1389 C1409 1.234 . S
C1390 O1364 1.269 . S
C1390 O1365 1.257 . S
C1391 H1366 0.930 . S
C1391 C1394 1.388 . S
C1391 C1396 1.418 . S
C1392 H1387 0.930 . S
C1392 C1395 1.404 . S
C1392 C1396 1.353 . S
N1393 Co1358 2.145 . S
N1393 C1394 1.397 . S
N1393 C1395 1.334 . S
C1394 H1375 0.929 . S
C1394 C1391 1.388 . S
C1394 N1393 1.397 . S
C1395 H1376 0.929 . S
C1395 C1392 1.404 . S
C1395 N1393 1.334 . S
C1396 H1388 0.930 . S
C1396 C1391 1.418 . S
C1396 C1392 1.353 . S
C1397 H1367 0.930 . S
C1397 N1398 1.330 . S
C1397 C1399 1.446 . S
N1398 Co1357 2.151 . S
N1398 C1397 1.330 . S
N1398 C1402 1.418 . S
C1399 H1378 0.929 . S
C1399 C1397 1.446 . S
C1399 C1400 1.332 . S
C1400 H1380 0.931 . S
C1400 C1399 1.332 . S
C1400 C1401 1.267 . S
C1401 H1369 0.929 . S
C1401 C1400 1.267 . S
C1401 C1402 1.251 . S
C1402 H1372 0.929 . S
C1402 N1398 1.418 . S
C1402 C1401 1.251 . S
C1403 H1370 0.930 . S
C1403 C1405 1.406 . S
C1403 C1408 1.261 . S
C1404 H1371 0.930 . S
C1404 N1406 1.325 . S
C1404 C1407 1.357 . S
C1405 H1373 0.928 . S
C1405 C1403 1.406 . S
C1405 N1406 1.261 . S
N1406 Co1357 2.214 . S
N1406 C1404 1.325 . S
N1406 C1405 1.261 . S
C1407 H1377 0.931 . S
C1407 C1404 1.357 . S
C1407 C1408 1.312 . S
C1408 H1379 0.930 . S
C1408 C1403 1.261 . S
C1408 C1407 1.312 . S
C1409 O1381 1.214 . S
C1409 O1389 1.234 . S
C1410 H1382 0.929 . S
C1410 C1413 1.391 . S
C1410 C1415 1.391 . S
C1411 H1383 0.929 . S
C1411 C1412 1.390 . S
C1411 N1414 1.391 . S
C1412 H1384 0.930 . S
C1412 C1411 1.390 . S
C1412 C1413 1.392 . S
C1413 H1385 0.929 . S
C1413 C1410 1.391 . S
C1413 C1412 1.392 . S
N1414 Co1358 2.257 . S
N1414 C1411 1.391 . S
N1414 C1415 1.388 . S
C1415 H1386 0.930 . S
C1415 C1410 1.391 . S
C1415 N1414 1.388 . S
Co1416 O1418 2.143 . S
Co1416 O1424 2.074 . S
Co1416 O1427 2.093 . S
Co1416 O1440 2.097 . S
Co1416 N1457 2.151 . S
Co1416 N1465 2.214 . S
Co1417 O1418 2.160 . S
Co1417 O1423 2.058 . S
Co1417 O1433 2.057 . S
Co1417 O1448 2.037 . S
Co1417 N1452 2.145 . S
Co1417 N1473 2.257 . S
O1418 Co1416 2.143 . S
O1418 Co1417 2.160 . S
C1419 O1420 1.278 . S
C1419 O1427 1.224 . S
O1420 C1419 1.278 . S
C1421 O1422 1.245 . S
C1421 O1433 1.232 . S
O1422 C1421 1.245 . S
O1423 Co1417 2.058 . S
O1423 C1449 1.269 . S
O1424 Co1416 2.074 . S
O1424 C1449 1.257 . S
H1425 C1450 0.930 . S
H1426 C1456 0.930 . S
O1427 Co1416 2.093 . S
O1427 C1419 1.224 . S
H1428 C1460 0.929 . S
H1429 C1462 0.930 . S
H1430 C1463 0.930 . S
H1431 C1461 0.929 . S
H1432 C1464 0.928 . S
O1433 Co1417 2.057 . S
O1433 C1421 1.232 . S
H1434 C1453 0.929 . S
H1435 C1454 0.929 . S
H1436 C1466 0.931 . S
H1437 C1458 0.929 . S
H1438 C1467 0.930 . S
H1439 C1459 0.931 . S
O1440 Co1416 2.097 . S
O1440 C1468 1.214 . S
H1441 C1469 0.929 . S
H1442 C1470 0.929 . S
H1443 C1471 0.930 . S
H1444 C1472 0.929 . S
H1445 C1474 0.930 . S
H1446 C1451 0.930 . S
H1447 C1455 0.930 . S
O1448 Co1417 2.037 . S
O1448 C1468 1.234 . S
C1449 O1423 1.269 . S
C1449 O1424 1.257 . S
C1450 H1425 0.930 . S
C1450 C1453 1.388 . S
C1450 C1455 1.418 . S
C1451 H1446 0.930 . S
C1451 C1454 1.404 . S
C1451 C1455 1.353 . S
N1452 Co1417 2.145 . S
N1452 C1453 1.397 . S
N1452 C1454 1.334 . S
C1453 H1434 0.929 . S
C1453 C1450 1.388 . S
C1453 N1452 1.397 . S
C1454 H1435 0.929 . S
C1454 C1451 1.404 . S
C1454 N1452 1.334 . S
C1455 H1447 0.930 . S
C1455 C1450 1.418 . S
C1455 C1451 1.353 . S
C1456 H1426 0.930 . S
C1456 N1457 1.330 . S
C1456 C1458 1.446 . S
N1457 Co1416 2.151 . S
N1457 C1456 1.330 . S
N1457 C1461 1.418 1_554 S
C1458 H1437 0.929 . S
C1458 C1456 1.446 . S
C1458 C1459 1.332 1_554 S
C1459 H1439 0.931 . S
C1459 C1458 1.332 1_556 S
C1459 C1460 1.267 . S
C1460 H1428 0.929 . S
C1460 C1459 1.267 . S
C1460 C1461 1.251 . S
C1461 H1431 0.929 . S
C1461 N1457 1.418 1_556 S
C1461 C1460 1.251 . S
C1462 H1429 0.930 . S
C1462 C1464 1.406 1_556 S
C1462 C1467 1.261 . S
C1463 H1430 0.930 . S
C1463 N1465 1.325 . S
C1463 C1466 1.357 1_554 S
C1464 H1432 0.928 . S
C1464 C1462 1.406 1_554 S
C1464 N1465 1.261 . S
N1465 Co1416 2.214 . S
N1465 C1463 1.325 . S
N1465 C1464 1.261 . S
C1466 H1436 0.931 . S
C1466 C1463 1.357 1_556 S
C1466 C1467 1.312 . S
C1467 H1438 0.930 . S
C1467 C1462 1.261 . S
C1467 C1466 1.312 . S
C1468 O1440 1.214 . S
C1468 O1448 1.234 . S
C1469 H1441 0.929 . S
C1469 C1472 1.391 . S
C1469 C1474 1.391 . S
C1470 H1442 0.929 . S
C1470 C1471 1.390 . S
C1470 N1473 1.391 . S
C1471 H1443 0.930 . S
C1471 C1470 1.390 . S
C1471 C1472 1.392 . S
C1472 H1444 0.929 . S
C1472 C1469 1.391 . S
C1472 C1471 1.392 . S
N1473 Co1417 2.257 . S
N1473 C1470 1.391 . S
N1473 C1474 1.388 . S
C1474 H1445 0.930 . S
C1474 C1469 1.391 . S
C1474 N1473 1.388 . S
Co1475 O1477 2.143 . S
Co1475 O1483 2.074 . S
Co1475 O1486 2.093 . S
Co1475 O1499 2.097 . S
Co1475 N1516 2.151 . S
Co1475 N1524 2.214 . S
Co1476 O1477 2.160 . S
Co1476 O1482 2.058 . S
Co1476 O1492 2.057 . S
Co1476 O1507 2.037 . S
Co1476 N1511 2.145 . S
Co1476 N1532 2.257 . S
O1477 Co1475 2.143 . S
O1477 Co1476 2.160 . S
C1478 O1479 1.278 . S
C1478 O1486 1.224 . S
O1479 C1478 1.278 . S
C1480 O1481 1.245 . S
C1480 O1492 1.232 . S
O1481 C1480 1.245 . S
O1482 Co1476 2.058 . S
O1482 C1508 1.269 . S
O1483 Co1475 2.074 . S
O1483 C1508 1.257 . S
H1484 C1509 0.930 . S
H1485 C1515 0.930 . S
O1486 Co1475 2.093 . S
O1486 C1478 1.224 . S
H1487 C1519 0.929 . S
H1488 C1521 0.930 . S
H1489 C1522 0.930 . S
H1490 C1520 0.929 . S
H1491 C1523 0.928 . S
O1492 Co1476 2.057 . S
O1492 C1480 1.232 . S
H1493 C1512 0.929 . S
H1494 C1513 0.929 . S
H1495 C1525 0.931 . S
H1496 C1517 0.929 . S
H1497 C1526 0.930 . S
H1498 C1518 0.931 . S
O1499 Co1475 2.097 . S
O1499 C1527 1.214 . S
H1500 C1528 0.929 1_554 S
H1501 C1529 0.929 . S
H1502 C1530 0.930 1_554 S
H1503 C1531 0.929 . S
H1504 C1533 0.930 . S
H1505 C1510 0.930 . S
H1506 C1514 0.930 . S
O1507 Co1476 2.037 . S
O1507 C1527 1.234 . S
C1508 O1482 1.269 . S
C1508 O1483 1.257 . S
C1509 H1484 0.930 . S
C1509 C1512 1.388 . S
C1509 C1514 1.418 . S
C1510 H1505 0.930 . S
C1510 C1513 1.404 . S
C1510 C1514 1.353 . S
N1511 Co1476 2.145 . S
N1511 C1512 1.397 . S
N1511 C1513 1.334 . S
C1512 H1493 0.929 . S
C1512 C1509 1.388 . S
C1512 N1511 1.397 . S
C1513 H1494 0.929 . S
C1513 C1510 1.404 . S
C1513 N1511 1.334 . S
C1514 H1506 0.930 . S
C1514 C1509 1.418 . S
C1514 C1510 1.353 . S
C1515 H1485 0.930 . S
C1515 N1516 1.330 . S
C1515 C1517 1.446 . S
N1516 Co1475 2.151 . S
N1516 C1515 1.330 . S
N1516 C1520 1.418 . S
C1517 H1496 0.929 . S
C1517 C1515 1.446 . S
C1517 C1518 1.332 . S
C1518 H1498 0.931 . S
C1518 C1517 1.332 . S
C1518 C1519 1.267 . S
C1519 H1487 0.929 . S
C1519 C1518 1.267 . S
C1519 C1520 1.251 . S
C1520 H1490 0.929 . S
C1520 N1516 1.418 . S
C1520 C1519 1.251 . S
C1521 H1488 0.930 . S
C1521 C1523 1.406 . S
C1521 C1526 1.261 . S
C1522 H1489 0.930 . S
C1522 N1524 1.325 . S
C1522 C1525 1.357 . S
C1523 H1491 0.928 . S
C1523 C1521 1.406 . S
C1523 N1524 1.261 . S
N1524 Co1475 2.214 . S
N1524 C1522 1.325 . S
N1524 C1523 1.261 . S
C1525 H1495 0.931 . S
C1525 C1522 1.357 . S
C1525 C1526 1.312 . S
C1526 H1497 0.930 . S
C1526 C1521 1.261 . S
C1526 C1525 1.312 . S
C1527 O1499 1.214 . S
C1527 O1507 1.234 . S
C1528 H1500 0.929 1_556 S
C1528 C1531 1.391 1_556 S
C1528 C1533 1.391 . S
C1529 H1501 0.929 . S
C1529 C1530 1.390 . S
C1529 N1532 1.391 . S
C1530 H1502 0.930 1_556 S
C1530 C1529 1.390 . S
C1530 C1531 1.392 1_556 S
C1531 H1503 0.929 . S
C1531 C1528 1.391 1_554 S
C1531 C1530 1.392 1_554 S
N1532 Co1476 2.257 . S
N1532 C1529 1.391 . S
N1532 C1533 1.388 . S
C1533 H1504 0.930 . S
C1533 C1528 1.391 . S
C1533 N1532 1.388 . S
Co1534 O1536 2.143 . S
Co1534 O1542 2.074 . S
Co1534 O1545 2.093 . S
Co1534 O1558 2.097 . S
Co1534 N1575 2.151 . S
Co1534 N1583 2.214 . S
Co1535 O1536 2.160 . S
Co1535 O1541 2.058 . S
Co1535 O1551 2.057 . S
Co1535 O1566 2.037 . S
Co1535 N1570 2.145 . S
Co1535 N1591 2.257 . S
O1536 Co1534 2.143 . S
O1536 Co1535 2.160 . S
C1537 O1538 1.278 . S
C1537 O1545 1.224 . S
O1538 C1537 1.278 . S
C1539 O1540 1.245 . S
C1539 O1551 1.232 . S
O1540 C1539 1.245 . S
O1541 Co1535 2.058 . S
O1541 C1567 1.269 . S
O1542 Co1534 2.074 . S
O1542 C1567 1.257 . S
H1543 C1568 0.930 . S
H1544 C1574 0.930 . S
O1545 Co1534 2.093 . S
O1545 C1537 1.224 . S
H1546 C1578 0.929 . S
H1547 C1580 0.930 . S
H1548 C1581 0.930 . S
H1549 C1579 0.929 . S
H1550 C1582 0.928 . S
O1551 Co1535 2.057 . S
O1551 C1539 1.232 . S
H1552 C1571 0.929 . S
H1553 C1572 0.929 . S
H1554 C1584 0.931 . S
H1555 C1576 0.929 . S
H1556 C1585 0.930 . S
H1557 C1577 0.931 . S
O1558 Co1534 2.097 . S
O1558 C1586 1.214 . S
H1559 C1587 0.929 . S
H1560 C1588 0.929 . S
H1561 C1589 0.930 . S
H1562 C1590 0.929 . S
H1563 C1592 0.930 . S
H1564 C1569 0.930 . S
H1565 C1573 0.930 . S
O1566 Co1535 2.037 . S
O1566 C1586 1.234 . S
C1567 O1541 1.269 . S
C1567 O1542 1.257 . S
C1568 H1543 0.930 . S
C1568 C1571 1.388 . S
C1568 C1573 1.418 . S
C1569 H1564 0.930 . S
C1569 C1572 1.404 . S
C1569 C1573 1.353 . S
N1570 Co1535 2.145 . S
N1570 C1571 1.397 . S
N1570 C1572 1.334 . S
C1571 H1552 0.929 . S
C1571 C1568 1.388 . S
C1571 N1570 1.397 . S
C1572 H1553 0.929 . S
C1572 C1569 1.404 . S
C1572 N1570 1.334 . S
C1573 H1565 0.930 . S
C1573 C1568 1.418 . S
C1573 C1569 1.353 . S
C1574 H1544 0.930 . S
C1574 N1575 1.330 . S
C1574 C1576 1.446 . S
N1575 Co1534 2.151 . S
N1575 C1574 1.330 . S
N1575 C1579 1.418 . S
C1576 H1555 0.929 . S
C1576 C1574 1.446 . S
C1576 C1577 1.332 . S
C1577 H1557 0.931 . S
C1577 C1576 1.332 . S
C1577 C1578 1.267 . S
C1578 H1546 0.929 . S
C1578 C1577 1.267 . S
C1578 C1579 1.251 . S
C1579 H1549 0.929 . S
C1579 N1575 1.418 . S
C1579 C1578 1.251 . S
C1580 H1547 0.930 . S
C1580 C1582 1.406 . S
C1580 C1585 1.261 . S
C1581 H1548 0.930 . S
C1581 N1583 1.325 . S
C1581 C1584 1.357 . S
C1582 H1550 0.928 . S
C1582 C1580 1.406 . S
C1582 N1583 1.261 . S
N1583 Co1534 2.214 . S
N1583 C1581 1.325 . S
N1583 C1582 1.261 . S
C1584 H1554 0.931 . S
C1584 C1581 1.357 . S
C1584 C1585 1.312 . S
C1585 H1556 0.930 . S
C1585 C1580 1.261 . S
C1585 C1584 1.312 . S
C1586 O1558 1.214 . S
C1586 O1566 1.234 . S
C1587 H1559 0.929 . S
C1587 C1590 1.391 . S
C1587 C1592 1.391 . S
C1588 H1560 0.929 . S
C1588 C1589 1.390 . S
C1588 N1591 1.391 . S
C1589 H1561 0.930 . S
C1589 C1588 1.390 . S
C1589 C1590 1.392 . S
C1590 H1562 0.929 . S
C1590 C1587 1.391 . S
C1590 C1589 1.392 . S
N1591 Co1535 2.257 . S
N1591 C1588 1.391 . S
N1591 C1592 1.388 . S
C1592 H1563 0.930 . S
C1592 C1587 1.391 . S
C1592 N1591 1.388 . S
Co1593 O1595 2.143 . S
Co1593 O1601 2.074 . S
Co1593 O1604 2.093 . S
Co1593 O1617 2.097 . S
Co1593 N1634 2.151 . S
Co1593 N1642 2.214 . S
Co1594 O1595 2.160 . S
Co1594 O1600 2.058 . S
Co1594 O1610 2.057 . S
Co1594 O1625 2.037 . S
Co1594 N1629 2.145 . S
Co1594 N1650 2.257 . S
O1595 Co1593 2.143 . S
O1595 Co1594 2.160 . S
C1596 O1597 1.278 . S
C1596 O1604 1.224 . S
O1597 C1596 1.278 . S
C1598 O1599 1.245 . S
C1598 O1610 1.232 . S
O1599 C1598 1.245 . S
O1600 Co1594 2.058 . S
O1600 C1626 1.269 . S
O1601 Co1593 2.074 . S
O1601 C1626 1.257 . S
H1602 C1627 0.930 . S
H1603 C1633 0.930 . S
O1604 Co1593 2.093 . S
O1604 C1596 1.224 . S
H1605 C1637 0.929 . S
H1606 C1639 0.930 . S
H1607 C1640 0.930 . S
H1608 C1638 0.929 . S
H1609 C1641 0.928 . S
O1610 Co1594 2.057 . S
O1610 C1598 1.232 . S
H1611 C1630 0.929 . S
H1612 C1631 0.929 . S
H1613 C1643 0.931 . S
H1614 C1635 0.929 . S
H1615 C1644 0.930 . S
H1616 C1636 0.931 . S
O1617 Co1593 2.097 . S
O1617 C1645 1.214 . S
H1618 C1646 0.929 . S
H1619 C1647 0.929 . S
H1620 C1648 0.930 . S
H1621 C1649 0.929 . S
H1622 C1651 0.930 . S
H1623 C1628 0.930 . S
H1624 C1632 0.930 . S
O1625 Co1594 2.037 . S
O1625 C1645 1.234 . S
C1626 O1600 1.269 . S
C1626 O1601 1.257 . S
C1627 H1602 0.930 . S
C1627 C1630 1.388 . S
C1627 C1632 1.418 . S
C1628 H1623 0.930 . S
C1628 C1631 1.404 . S
C1628 C1632 1.353 . S
N1629 Co1594 2.145 . S
N1629 C1630 1.397 . S
N1629 C1631 1.334 . S
C1630 H1611 0.929 . S
C1630 C1627 1.388 . S
C1630 N1629 1.397 . S
C1631 H1612 0.929 . S
C1631 C1628 1.404 . S
C1631 N1629 1.334 . S
C1632 H1624 0.930 . S
C1632 C1627 1.418 . S
C1632 C1628 1.353 . S
C1633 H1603 0.930 . S
C1633 N1634 1.330 . S
C1633 C1635 1.446 . S
N1634 Co1593 2.151 . S
N1634 C1633 1.330 . S
N1634 C1638 1.418 . S
C1635 H1614 0.929 . S
C1635 C1633 1.446 . S
C1635 C1636 1.332 . S
C1636 H1616 0.931 . S
C1636 C1635 1.332 . S
C1636 C1637 1.267 . S
C1637 H1605 0.929 . S
C1637 C1636 1.267 . S
C1637 C1638 1.251 . S
C1638 H1608 0.929 . S
C1638 N1634 1.418 . S
C1638 C1637 1.251 . S
C1639 H1606 0.930 . S
C1639 C1641 1.406 . S
C1639 C1644 1.261 . S
C1640 H1607 0.930 . S
C1640 N1642 1.325 . S
C1640 C1643 1.357 . S
C1641 H1609 0.928 . S
C1641 C1639 1.406 . S
C1641 N1642 1.261 . S
N1642 Co1593 2.214 . S
N1642 C1640 1.325 . S
N1642 C1641 1.261 . S
C1643 H1613 0.931 . S
C1643 C1640 1.357 . S
C1643 C1644 1.312 . S
C1644 H1615 0.930 . S
C1644 C1639 1.261 . S
C1644 C1643 1.312 . S
C1645 O1617 1.214 . S
C1645 O1625 1.234 . S
C1646 H1618 0.929 . S
C1646 C1649 1.391 . S
C1646 C1651 1.391 . S
C1647 H1619 0.929 . S
C1647 C1648 1.390 . S
C1647 N1650 1.391 . S
C1648 H1620 0.930 . S
C1648 C1647 1.390 . S
C1648 C1649 1.392 . S
C1649 H1621 0.929 . S
C1649 C1646 1.391 . S
C1649 C1648 1.392 . S
N1650 Co1594 2.257 . S
N1650 C1647 1.391 . S
N1650 C1651 1.388 . S
C1651 H1622 0.930 . S
C1651 C1646 1.391 . S
C1651 N1650 1.388 . S
Co1652 O1654 2.143 . S
Co1652 O1660 2.074 . S
Co1652 O1663 2.093 . S
Co1652 O1676 2.097 . S
Co1652 N1693 2.151 . S
Co1652 N1701 2.214 . S
Co1653 O1654 2.160 . S
Co1653 O1659 2.058 . S
Co1653 O1669 2.057 . S
Co1653 O1684 2.037 . S
Co1653 N1688 2.145 . S
Co1653 N1709 2.257 . S
O1654 Co1652 2.143 . S
O1654 Co1653 2.160 . S
C1655 O1656 1.278 . S
C1655 O1663 1.224 . S
O1656 C1655 1.278 . S
C1657 O1658 1.245 . S
C1657 O1669 1.232 . S
O1658 C1657 1.245 . S
O1659 Co1653 2.058 . S
O1659 C1685 1.269 . S
O1660 Co1652 2.074 . S
O1660 C1685 1.257 . S
H1661 C1686 0.930 . S
H1662 C1692 0.930 . S
O1663 Co1652 2.093 . S
O1663 C1655 1.224 . S
H1664 C1696 0.929 . S
H1665 C1698 0.930 . S
H1666 C1699 0.930 . S
H1667 C1697 0.929 . S
H1668 C1700 0.928 . S
O1669 Co1653 2.057 . S
O1669 C1657 1.232 . S
H1670 C1689 0.929 . S
H1671 C1690 0.929 . S
H1672 C1702 0.931 . S
H1673 C1694 0.929 . S
H1674 C1703 0.930 . S
H1675 C1695 0.931 . S
O1676 Co1652 2.097 . S
O1676 C1704 1.214 . S
H1677 C1705 0.929 . S
H1678 C1706 0.929 . S
H1679 C1707 0.930 . S
H1680 C1708 0.929 . S
H1681 C1710 0.930 . S
H1682 C1687 0.930 . S
H1683 C1691 0.930 . S
O1684 Co1653 2.037 . S
O1684 C1704 1.234 . S
C1685 O1659 1.269 . S
C1685 O1660 1.257 . S
C1686 H1661 0.930 . S
C1686 C1689 1.388 . S
C1686 C1691 1.418 . S
C1687 H1682 0.930 . S
C1687 C1690 1.404 . S
C1687 C1691 1.353 . S
N1688 Co1653 2.145 . S
N1688 C1689 1.397 . S
N1688 C1690 1.334 . S
C1689 H1670 0.929 . S
C1689 C1686 1.388 . S
C1689 N1688 1.397 . S
C1690 H1671 0.929 . S
C1690 C1687 1.404 . S
C1690 N1688 1.334 . S
C1691 H1683 0.930 . S
C1691 C1686 1.418 . S
C1691 C1687 1.353 . S
C1692 H1662 0.930 . S
C1692 N1693 1.330 . S
C1692 C1694 1.446 . S
N1693 Co1652 2.151 . S
N1693 C1692 1.330 . S
N1693 C1697 1.418 . S
C1694 H1673 0.929 . S
C1694 C1692 1.446 . S
C1694 C1695 1.332 . S
C1695 H1675 0.931 . S
C1695 C1694 1.332 . S
C1695 C1696 1.267 . S
C1696 H1664 0.929 . S
C1696 C1695 1.267 . S
C1696 C1697 1.251 . S
C1697 H1667 0.929 . S
C1697 N1693 1.418 . S
C1697 C1696 1.251 . S
C1698 H1665 0.930 . S
C1698 C1700 1.406 . S
C1698 C1703 1.261 . S
C1699 H1666 0.930 . S
C1699 N1701 1.325 . S
C1699 C1702 1.357 . S
C1700 H1668 0.928 . S
C1700 C1698 1.406 . S
C1700 N1701 1.261 . S
N1701 Co1652 2.214 . S
N1701 C1699 1.325 . S
N1701 C1700 1.261 . S
C1702 H1672 0.931 . S
C1702 C1699 1.357 . S
C1702 C1703 1.312 . S
C1703 H1674 0.930 . S
C1703 C1698 1.261 . S
C1703 C1702 1.312 . S
C1704 O1676 1.214 . S
C1704 O1684 1.234 . S
C1705 H1677 0.929 . S
C1705 C1708 1.391 . S
C1705 C1710 1.391 . S
C1706 H1678 0.929 . S
C1706 C1707 1.390 . S
C1706 N1709 1.391 . S
C1707 H1679 0.930 . S
C1707 C1706 1.390 . S
C1707 C1708 1.392 . S
C1708 H1680 0.929 . S
C1708 C1705 1.391 . S
C1708 C1707 1.392 . S
N1709 Co1653 2.257 . S
N1709 C1706 1.391 . S
N1709 C1710 1.388 . S
C1710 H1681 0.930 . S
C1710 C1705 1.391 . S
C1710 N1709 1.388 . S
Co1711 O1713 2.143 . S
Co1711 O1719 2.074 . S
Co1711 O1722 2.093 . S
Co1711 O1735 2.097 . S
Co1711 N1752 2.151 . S
Co1711 N1760 2.214 . S
Co1712 O1713 2.160 . S
Co1712 O1718 2.058 . S
Co1712 O1728 2.057 . S
Co1712 O1743 2.037 . S
Co1712 N1747 2.145 . S
Co1712 N1768 2.257 . S
O1713 Co1711 2.143 . S
O1713 Co1712 2.160 . S
C1714 O1715 1.278 . S
C1714 O1722 1.224 . S
O1715 C1714 1.278 . S
C1716 O1717 1.245 . S
C1716 O1728 1.232 . S
O1717 C1716 1.245 . S
O1718 Co1712 2.058 . S
O1718 C1744 1.269 . S
O1719 Co1711 2.074 . S
O1719 C1744 1.257 . S
H1720 C1745 0.930 . S
H1721 C1751 0.930 . S
O1722 Co1711 2.093 . S
O1722 C1714 1.224 . S
H1723 C1755 0.929 . S
H1724 C1757 0.930 . S
H1725 C1758 0.930 . S
H1726 C1756 0.929 . S
H1727 C1759 0.928 . S
O1728 Co1712 2.057 . S
O1728 C1716 1.232 . S
H1729 C1748 0.929 . S
H1730 C1749 0.929 . S
H1731 C1761 0.931 . S
H1732 C1753 0.929 . S
H1733 C1762 0.930 . S
H1734 C1754 0.931 . S
O1735 Co1711 2.097 . S
O1735 C1763 1.214 . S
H1736 C1764 0.929 1_556 S
H1737 C1765 0.929 . S
H1738 C1766 0.930 1_556 S
H1739 C1767 0.929 . S
H1740 C1769 0.930 . S
H1741 C1746 0.930 . S
H1742 C1750 0.930 . S
O1743 Co1712 2.037 . S
O1743 C1763 1.234 . S
C1744 O1718 1.269 . S
C1744 O1719 1.257 . S
C1745 H1720 0.930 . S
C1745 C1748 1.388 . S
C1745 C1750 1.418 . S
C1746 H1741 0.930 . S
C1746 C1749 1.404 . S
C1746 C1750 1.353 . S
N1747 Co1712 2.145 . S
N1747 C1748 1.397 . S
N1747 C1749 1.334 . S
C1748 H1729 0.929 . S
C1748 C1745 1.388 . S
C1748 N1747 1.397 . S
C1749 H1730 0.929 . S
C1749 C1746 1.404 . S
C1749 N1747 1.334 . S
C1750 H1742 0.930 . S
C1750 C1745 1.418 . S
C1750 C1746 1.353 . S
C1751 H1721 0.930 . S
C1751 N1752 1.330 . S
C1751 C1753 1.446 . S
N1752 Co1711 2.151 . S
N1752 C1751 1.330 . S
N1752 C1756 1.418 . S
C1753 H1732 0.929 . S
C1753 C1751 1.446 . S
C1753 C1754 1.332 . S
C1754 H1734 0.931 . S
C1754 C1753 1.332 . S
C1754 C1755 1.267 . S
C1755 H1723 0.929 . S
C1755 C1754 1.267 . S
C1755 C1756 1.251 . S
C1756 H1726 0.929 . S
C1756 N1752 1.418 . S
C1756 C1755 1.251 . S
C1757 H1724 0.930 . S
C1757 C1759 1.406 . S
C1757 C1762 1.261 . S
C1758 H1725 0.930 . S
C1758 N1760 1.325 . S
C1758 C1761 1.357 . S
C1759 H1727 0.928 . S
C1759 C1757 1.406 . S
C1759 N1760 1.261 . S
N1760 Co1711 2.214 . S
N1760 C1758 1.325 . S
N1760 C1759 1.261 . S
C1761 H1731 0.931 . S
C1761 C1758 1.357 . S
C1761 C1762 1.312 . S
C1762 H1733 0.930 . S
C1762 C1757 1.261 . S
C1762 C1761 1.312 . S
C1763 O1735 1.214 . S
C1763 O1743 1.234 . S
C1764 H1736 0.929 1_554 S
C1764 C1767 1.391 1_554 S
C1764 C1769 1.391 . S
C1765 H1737 0.929 . S
C1765 C1766 1.390 . S
C1765 N1768 1.391 . S
C1766 H1738 0.930 1_554 S
C1766 C1765 1.390 . S
C1766 C1767 1.392 1_554 S
C1767 H1739 0.929 . S
C1767 C1764 1.391 1_556 S
C1767 C1766 1.392 1_556 S
N1768 Co1712 2.257 . S
N1768 C1765 1.391 . S
N1768 C1769 1.388 . S
C1769 H1740 0.930 . S
C1769 C1764 1.391 . S
C1769 N1768 1.388 . S
Co1770 O1772 2.143 . S
Co1770 O1778 2.074 . S
Co1770 O1781 2.093 . S
Co1770 O1794 2.097 . S
Co1770 N1811 2.151 . S
Co1770 N1819 2.214 . S
Co1771 O1772 2.160 . S
Co1771 O1777 2.058 . S
Co1771 O1787 2.057 . S
Co1771 O1802 2.037 . S
Co1771 N1806 2.145 . S
Co1771 N1827 2.257 . S
O1772 Co1770 2.143 . S
O1772 Co1771 2.160 . S
C1773 O1774 1.278 . S
C1773 O1781 1.224 . S
O1774 C1773 1.278 . S
C1775 O1776 1.245 . S
C1775 O1787 1.232 . S
O1776 C1775 1.245 . S
O1777 Co1771 2.058 . S
O1777 C1803 1.269 . S
O1778 Co1770 2.074 . S
O1778 C1803 1.257 . S
H1779 C1804 0.930 . S
H1780 C1810 0.930 . S
O1781 Co1770 2.093 . S
O1781 C1773 1.224 . S
H1782 C1814 0.929 . S
H1783 C1816 0.930 . S
H1784 C1817 0.930 . S
H1785 C1815 0.929 . S
H1786 C1818 0.928 . S
O1787 Co1771 2.057 . S
O1787 C1775 1.232 . S
H1788 C1807 0.929 . S
H1789 C1808 0.929 . S
H1790 C1820 0.931 . S
H1791 C1812 0.929 . S
H1792 C1821 0.930 . S
H1793 C1813 0.931 . S
O1794 Co1770 2.097 . S
O1794 C1822 1.214 . S
H1795 C1823 0.929 . S
H1796 C1824 0.929 . S
H1797 C1825 0.930 . S
H1798 C1826 0.929 . S
H1799 C1828 0.930 . S
H1800 C1805 0.930 . S
H1801 C1809 0.930 . S
O1802 Co1771 2.037 . S
O1802 C1822 1.234 . S
C1803 O1777 1.269 . S
C1803 O1778 1.257 . S
C1804 H1779 0.930 . S
C1804 C1807 1.388 . S
C1804 C1809 1.418 . S
C1805 H1800 0.930 . S
C1805 C1808 1.404 . S
C1805 C1809 1.353 . S
N1806 Co1771 2.145 . S
N1806 C1807 1.397 . S
N1806 C1808 1.334 . S
C1807 H1788 0.929 . S
C1807 C1804 1.388 . S
C1807 N1806 1.397 . S
C1808 H1789 0.929 . S
C1808 C1805 1.404 . S
C1808 N1806 1.334 . S
C1809 H1801 0.930 . S
C1809 C1804 1.418 . S
C1809 C1805 1.353 . S
C1810 H1780 0.930 . S
C1810 N1811 1.330 . S
C1810 C1812 1.446 . S
N1811 Co1770 2.151 . S
N1811 C1810 1.330 . S
N1811 C1815 1.418 1_556 S
C1812 H1791 0.929 . S
C1812 C1810 1.446 . S
C1812 C1813 1.332 1_556 S
C1813 H1793 0.931 . S
C1813 C1812 1.332 1_554 S
C1813 C1814 1.267 . S
C1814 H1782 0.929 . S
C1814 C1813 1.267 . S
C1814 C1815 1.251 . S
C1815 H1785 0.929 . S
C1815 N1811 1.418 1_554 S
C1815 C1814 1.251 . S
C1816 H1783 0.930 . S
C1816 C1818 1.406 1_554 S
C1816 C1821 1.261 . S
C1817 H1784 0.930 . S
C1817 N1819 1.325 . S
C1817 C1820 1.357 1_556 S
C1818 H1786 0.928 . S
C1818 C1816 1.406 1_556 S
C1818 N1819 1.261 . S
N1819 Co1770 2.214 . S
N1819 C1817 1.325 . S
N1819 C1818 1.261 . S
C1820 H1790 0.931 . S
C1820 C1817 1.357 1_554 S
C1820 C1821 1.312 . S
C1821 H1792 0.930 . S
C1821 C1816 1.261 . S
C1821 C1820 1.312 . S
C1822 O1794 1.214 . S
C1822 O1802 1.234 . S
C1823 H1795 0.929 . S
C1823 C1826 1.391 . S
C1823 C1828 1.391 . S
C1824 H1796 0.929 . S
C1824 C1825 1.390 . S
C1824 N1827 1.391 . S
C1825 H1797 0.930 . S
C1825 C1824 1.390 . S
C1825 C1826 1.392 . S
C1826 H1798 0.929 . S
C1826 C1823 1.391 . S
C1826 C1825 1.392 . S
N1827 Co1771 2.257 . S
N1827 C1824 1.391 . S
N1827 C1828 1.388 . S
C1828 H1799 0.930 . S
C1828 C1823 1.391 . S
C1828 N1827 1.388 . S
Co1829 O1831 2.143 . S
Co1829 O1837 2.074 . S
Co1829 O1840 2.093 . S
Co1829 O1853 2.097 . S
Co1829 N1870 2.151 . S
Co1829 N1878 2.214 . S
Co1830 O1831 2.160 . S
Co1830 O1836 2.058 . S
Co1830 O1846 2.057 . S
Co1830 O1861 2.037 . S
Co1830 N1865 2.145 . S
Co1830 N1886 2.257 . S
O1831 Co1829 2.143 . S
O1831 Co1830 2.160 . S
C1832 O1833 1.278 . S
C1832 O1840 1.224 . S
O1833 C1832 1.278 . S
C1834 O1835 1.245 . S
C1834 O1846 1.232 . S
O1835 C1834 1.245 . S
O1836 Co1830 2.058 . S
O1836 C1862 1.269 . S
O1837 Co1829 2.074 . S
O1837 C1862 1.257 . S
H1838 C1863 0.930 . S
H1839 C1869 0.930 . S
O1840 Co1829 2.093 . S
O1840 C1832 1.224 . S
H1841 C1873 0.929 . S
H1842 C1875 0.930 . S
H1843 C1876 0.930 . S
H1844 C1874 0.929 . S
H1845 C1877 0.928 . S
O1846 Co1830 2.057 . S
O1846 C1834 1.232 . S
H1847 C1866 0.929 . S
H1848 C1867 0.929 . S
H1849 C1879 0.931 . S
H1850 C1871 0.929 . S
H1851 C1880 0.930 . S
H1852 C1872 0.931 . S
O1853 Co1829 2.097 . S
O1853 C1881 1.214 . S
H1854 C1882 0.929 . S
H1855 C1883 0.929 . S
H1856 C1884 0.930 . S
H1857 C1885 0.929 . S
H1858 C1887 0.930 . S
H1859 C1864 0.930 . S
H1860 C1868 0.930 . S
O1861 Co1830 2.037 . S
O1861 C1881 1.234 . S
C1862 O1836 1.269 . S
C1862 O1837 1.257 . S
C1863 H1838 0.930 . S
C1863 C1866 1.388 . S
C1863 C1868 1.418 . S
C1864 H1859 0.930 . S
C1864 C1867 1.404 . S
C1864 C1868 1.353 . S
N1865 Co1830 2.145 . S
N1865 C1866 1.397 . S
N1865 C1867 1.334 . S
C1866 H1847 0.929 . S
C1866 C1863 1.388 . S
C1866 N1865 1.397 . S
C1867 H1848 0.929 . S
C1867 C1864 1.404 . S
C1867 N1865 1.334 . S
C1868 H1860 0.930 . S
C1868 C1863 1.418 . S
C1868 C1864 1.353 . S
C1869 H1839 0.930 . S
C1869 N1870 1.330 . S
C1869 C1871 1.446 . S
N1870 Co1829 2.151 . S
N1870 C1869 1.330 . S
N1870 C1874 1.418 . S
C1871 H1850 0.929 . S
C1871 C1869 1.446 . S
C1871 C1872 1.332 . S
C1872 H1852 0.931 . S
C1872 C1871 1.332 . S
C1872 C1873 1.267 . S
C1873 H1841 0.929 . S
C1873 C1872 1.267 . S
C1873 C1874 1.251 . S
C1874 H1844 0.929 . S
C1874 N1870 1.418 . S
C1874 C1873 1.251 . S
C1875 H1842 0.930 . S
C1875 C1877 1.406 . S
C1875 C1880 1.261 . S
C1876 H1843 0.930 . S
C1876 N1878 1.325 . S
C1876 C1879 1.357 . S
C1877 H1845 0.928 . S
C1877 C1875 1.406 . S
C1877 N1878 1.261 . S
N1878 Co1829 2.214 . S
N1878 C1876 1.325 . S
N1878 C1877 1.261 . S
C1879 H1849 0.931 . S
C1879 C1876 1.357 . S
C1879 C1880 1.312 . S
C1880 H1851 0.930 . S
C1880 C1875 1.261 . S
C1880 C1879 1.312 . S
C1881 O1853 1.214 . S
C1881 O1861 1.234 . S
C1882 H1854 0.929 . S
C1882 C1885 1.391 . S
C1882 C1887 1.391 . S
C1883 H1855 0.929 . S
C1883 C1884 1.390 . S
C1883 N1886 1.391 . S
C1884 H1856 0.930 . S
C1884 C1883 1.390 . S
C1884 C1885 1.392 . S
C1885 H1857 0.929 . S
C1885 C1882 1.391 . S
C1885 C1884 1.392 . S
N1886 Co1830 2.257 . S
N1886 C1883 1.391 . S
N1886 C1887 1.388 . S
C1887 H1858 0.930 . S
C1887 C1882 1.391 . S
C1887 N1886 1.388 . S
C1888 C1889 1.349 . S
C1888 C1890 1.327 . S
C1888 H1913 0.950 . S
C1889 C1888 1.349 . S
C1889 C1905 1.349 . S
C1890 C1888 1.327 . S
C1890 C1909 1.429 . S
C1890 H1914 0.950 . S
C1891 C1908 1.574 1_545 S
C1891 C1910 1.368 . S
C1891 H1915 0.949 . S
H1892 C1896 0.949 . S
C1893 C1894 1.349 . S
C1893 C1895 1.327 . S
C1893 H1916 0.950 . S
C1894 C1893 1.349 . S
C1894 C1906 1.349 . S
C1895 C1893 1.327 . S
C1895 C1911 1.429 . S
C1895 H1917 0.950 . S
C1896 H1892 0.949 . S
C1896 C1904 1.574 1_565 S
C1896 C1912 1.368 . S
H1897 C1905 0.950 . S
H1898 C1903 0.950 . S
H1899 C1904 0.949 . S
H1900 C1906 0.950 . S
H1901 C1907 0.950 . S
H1902 C1908 0.949 . S
C1903 H1898 0.950 . S
C1903 C1905 1.327 . S
C1903 C1909 1.429 . S
C1904 C1896 1.574 1_545 S
C1904 H1899 0.949 . S
C1904 C1910 1.368 . S
C1905 C1889 1.349 . S
C1905 H1897 0.950 . S
C1905 C1903 1.327 . S
C1906 C1894 1.349 . S
C1906 H1900 0.950 . S
C1906 C1907 1.327 . S
C1907 H1901 0.950 . S
C1907 C1906 1.327 . S
C1907 C1911 1.429 . S
C1908 C1891 1.574 1_565 S
C1908 H1902 0.949 . S
C1908 C1912 1.368 . S
C1909 C1890 1.429 . S
C1909 C1903 1.429 . S
C1909 C1910 1.523 . S
C1910 C1891 1.368 . S
C1910 C1904 1.368 . S
C1910 C1909 1.523 . S
C1911 C1895 1.429 . S
C1911 C1907 1.429 . S
C1911 C1912 1.523 . S
C1912 C1896 1.368 . S
C1912 C1908 1.368 . S
C1912 C1911 1.523 . S
H1913 C1888 0.950 . S
H1914 C1890 0.950 . S
H1915 C1891 0.949 . S
H1916 C1893 0.950 . S
H1917 C1895 0.950 . S
C1918 C1919 1.349 . S
C1918 C1920 1.327 . S
C1918 H1943 0.950 . S
C1919 C1918 1.349 . S
C1919 C1935 1.349 . S
C1920 C1918 1.327 . S
C1920 C1939 1.429 . S
C1920 H1944 0.950 . S
C1921 C1938 1.574 . S
C1921 C1940 1.368 . S
C1921 H1945 0.949 . S
H1922 C1926 0.949 . S
C1923 C1924 1.349 . S
C1923 C1925 1.327 . S
C1923 H1946 0.950 . S
C1924 C1923 1.349 . S
C1924 C1936 1.349 . S
C1925 C1923 1.327 . S
C1925 C1941 1.429 . S
C1925 H1947 0.950 . S
C1926 H1922 0.949 . S
C1926 C1934 1.574 . S
C1926 C1942 1.368 . S
H1927 C1935 0.950 . S
H1928 C1933 0.950 . S
H1929 C1934 0.949 . S
H1930 C1936 0.950 . S
H1931 C1937 0.950 . S
H1932 C1938 0.949 . S
C1933 H1928 0.950 . S
C1933 C1935 1.327 . S
C1933 C1939 1.429 . S
C1934 C1926 1.574 . S
C1934 H1929 0.949 . S
C1934 C1940 1.368 . S
C1935 C1919 1.349 . S
C1935 H1927 0.950 . S
C1935 C1933 1.327 . S
C1936 C1924 1.349 . S
C1936 H1930 0.950 . S
C1936 C1937 1.327 . S
C1937 H1931 0.950 . S
C1937 C1936 1.327 . S
C1937 C1941 1.429 . S
C1938 C1921 1.574 . S
C1938 H1932 0.949 . S
C1938 C1942 1.368 . S
C1939 C1920 1.429 . S
C1939 C1933 1.429 . S
C1939 C1940 1.523 . S
C1940 C1921 1.368 . S
C1940 C1934 1.368 . S
C1940 C1939 1.523 . S
C1941 C1925 1.429 . S
C1941 C1937 1.429 . S
C1941 C1942 1.523 . S
C1942 C1926 1.368 . S
C1942 C1938 1.368 . S
C1942 C1941 1.523 . S
H1943 C1918 0.950 . S
H1944 C1920 0.950 . S
H1945 C1921 0.949 . S
H1946 C1923 0.950 . S
H1947 C1925 0.950 . S
C1948 C1949 1.349 . S
C1948 C1950 1.327 . S
C1948 H1973 0.950 . S
C1949 C1948 1.349 . S
C1949 C1965 1.349 . S
C1950 C1948 1.327 . S
C1950 C1969 1.429 . S
C1950 H1974 0.950 . S
C1951 C1968 1.535 1_545 S
C1951 C1970 1.404 . S
C1951 H1975 0.953 . S
H1952 C1956 0.953 . S
C1953 C1954 1.349 . S
C1953 C1955 1.327 . S
C1953 H1976 0.950 . S
C1954 C1953 1.349 . S
C1954 C1966 1.349 . S
C1955 C1953 1.327 . S
C1955 C1971 1.429 . S
C1955 H1977 0.950 . S
C1956 H1952 0.953 . S
C1956 C1964 1.535 1_565 S
C1956 C1972 1.404 . S
H1957 C1965 0.950 . S
H1958 C1963 0.950 . S
H1959 C1964 0.949 . S
H1960 C1966 0.950 . S
H1961 C1967 0.950 . S
H1962 C1968 0.949 . S
C1963 H1958 0.950 . S
C1963 C1965 1.327 . S
C1963 C1969 1.429 . S
C1964 C1956 1.535 1_545 S
C1964 H1959 0.949 . S
C1964 C1970 1.368 . S
C1965 C1949 1.349 . S
C1965 H1957 0.950 . S
C1965 C1963 1.327 . S
C1966 C1954 1.349 . S
C1966 H1960 0.950 . S
C1966 C1967 1.327 . S
C1967 H1961 0.950 . S
C1967 C1966 1.327 . S
C1967 C1971 1.429 . S
C1968 C1951 1.535 1_565 S
C1968 H1962 0.949 . S
C1968 C1972 1.368 . S
C1969 C1950 1.429 . S
C1969 C1963 1.429 . S
C1969 C1970 1.523 . S
C1970 C1951 1.404 . S
C1970 C1964 1.368 . S
C1970 C1969 1.523 . S
C1971 C1955 1.429 . S
C1971 C1967 1.429 . S
C1971 C1972 1.523 . S
C1972 C1956 1.404 . S
C1972 C1968 1.368 . S
C1972 C1971 1.523 . S
H1973 C1948 0.950 . S
H1974 C1950 0.950 . S
H1975 C1951 0.953 . S
H1976 C1953 0.950 . S
H1977 C1955 0.950 . S
C1978 C1979 1.349 . S
C1978 C1980 1.327 . S
C1978 H2003 0.950 . S
C1979 C1978 1.349 . S
C1979 C1995 1.349 . S
C1980 C1978 1.327 . S
C1980 C1999 1.429 . S
C1980 H2004 0.950 . S
C1981 C1998 1.574 . S
C1981 C2000 1.368 . S
C1981 H2005 0.949 . S
H1982 C1986 0.949 . S
C1983 C1984 1.349 . S
C1983 C1985 1.327 . S
C1983 H2006 0.950 . S
C1984 C1983 1.349 . S
C1984 C1996 1.349 . S
C1985 C1983 1.327 . S
C1985 C2001 1.429 . S
C1985 H2007 0.950 . S
C1986 H1982 0.949 . S
C1986 C1994 1.574 . S
C1986 C2002 1.368 . S
H1987 C1995 0.950 . S
H1988 C1993 0.950 . S
H1989 C1994 0.949 . S
H1990 C1996 0.950 . S
H1991 C1997 0.950 . S
H1992 C1998 0.949 . S
C1993 H1988 0.950 . S
C1993 C1995 1.327 . S
C1993 C1999 1.429 . S
C1994 C1986 1.574 . S
C1994 H1989 0.949 . S
C1994 C2000 1.368 1_554 S
C1995 C1979 1.349 . S
C1995 H1987 0.950 . S
C1995 C1993 1.327 . S
C1996 C1984 1.349 . S
C1996 H1990 0.950 . S
C1996 C1997 1.327 . S
C1997 H1991 0.950 . S
C1997 C1996 1.327 . S
C1997 C2001 1.429 . S
C1998 C1981 1.574 . S
C1998 H1992 0.949 . S
C1998 C2002 1.368 1_556 S
C1999 C1980 1.429 . S
C1999 C1993 1.429 . S
C1999 C2000 1.523 . S
C2000 C1981 1.368 . S
C2000 C1994 1.368 1_556 S
C2000 C1999 1.523 . S
C2001 C1985 1.429 . S
C2001 C1997 1.429 . S
C2001 C2002 1.523 . S
C2002 C1986 1.368 . S
C2002 C1998 1.368 1_554 S
C2002 C2001 1.523 . S
H2003 C1978 0.950 . S
H2004 C1980 0.950 . S
H2005 C1981 0.949 . S
H2006 C1983 0.950 . S
H2007 C1985 0.950 . S
C2008 C2009 1.349 . S
C2008 C2010 1.327 . S
C2008 H2033 0.950 . S
C2009 C2008 1.349 . S
C2009 C2025 1.349 . S
C2010 C2008 1.327 . S
C2010 C2029 1.429 . S
C2010 H2034 0.950 . S
C2011 C2028 1.517 1_565 S
C2011 C2030 1.368 . S
C2011 H2035 0.949 . S
H2012 C2016 0.949 . S
C2013 C2014 1.349 . S
C2013 C2015 1.327 . S
C2013 H2036 0.950 . S
C2014 C2013 1.349 . S
C2014 C2026 1.349 . S
C2015 C2013 1.327 . S
C2015 C2031 1.429 . S
C2015 H2037 0.950 . S
C2016 H2012 0.949 . S
C2016 C2024 1.516 1_545 S
C2016 C2032 1.368 . S
H2017 C2025 0.950 . S
H2018 C2023 0.950 . S
H2019 C2024 0.957 . S
H2020 C2026 0.950 . S
H2021 C2027 0.950 . S
H2022 C2028 0.957 . S
C2023 H2018 0.950 . S
C2023 C2025 1.327 . S
C2023 C2029 1.429 . S
C2024 C2016 1.516 1_565 S
C2024 H2019 0.957 . S
C2024 C2030 1.421 . S
C2025 C2009 1.349 . S
C2025 H2017 0.950 . S
C2025 C2023 1.327 . S
C2026 C2014 1.349 . S
C2026 H2020 0.950 . S
C2026 C2027 1.327 . S
C2027 H2021 0.950 . S
C2027 C2026 1.327 . S
C2027 C2031 1.429 . S
C2028 C2011 1.517 1_545 S
C2028 H2022 0.957 . S
C2028 C2032 1.420 . S
C2029 C2010 1.429 . S
C2029 C2023 1.429 . S
C2029 C2030 1.523 . S
C2030 C2011 1.368 . S
C2030 C2024 1.421 . S
C2030 C2029 1.523 . S
C2031 C2015 1.429 . S
C2031 C2027 1.429 . S
C2031 C2032 1.523 . S
C2032 C2016 1.368 . S
C2032 C2028 1.420 . S
C2032 C2031 1.523 . S
H2033 C2008 0.950 . S
H2034 C2010 0.950 . S
H2035 C2011 0.949 . S
H2036 C2013 0.950 . S
H2037 C2015 0.950 . S
C2038 C2039 1.349 . S
C2038 C2040 1.327 . S
C2038 H2063 0.950 . S
C2039 C2038 1.349 . S
C2039 C2055 1.349 . S
C2040 C2038 1.327 . S
C2040 C2059 1.429 . S
C2040 H2064 0.950 . S
C2041 C2058 1.574 . S
C2041 C2060 1.368 . S
C2041 H2065 0.949 . S
H2042 C2046 0.949 . S
C2043 C2044 1.349 . S
C2043 C2045 1.327 . S
C2043 H2066 0.950 . S
C2044 C2043 1.349 . S
C2044 C2056 1.349 . S
C2045 C2043 1.327 . S
C2045 C2061 1.429 . S
C2045 H2067 0.950 . S
C2046 H2042 0.949 . S
C2046 C2054 1.574 . S
C2046 C2062 1.368 . S
H2047 C2055 0.950 . S
H2048 C2053 0.950 . S
H2049 C2054 0.949 . S
H2050 C2056 0.950 . S
H2051 C2057 0.950 . S
H2052 C2058 0.949 . S
C2053 H2048 0.950 . S
C2053 C2055 1.327 . S
C2053 C2059 1.429 . S
C2054 C2046 1.574 . S
C2054 H2049 0.949 . S
C2054 C2060 1.368 . S
C2055 C2039 1.349 . S
C2055 H2047 0.950 . S
C2055 C2053 1.327 . S
C2056 C2044 1.349 . S
C2056 H2050 0.950 . S
C2056 C2057 1.327 . S
C2057 H2051 0.950 . S
C2057 C2056 1.327 . S
C2057 C2061 1.429 . S
C2058 C2041 1.574 . S
C2058 H2052 0.949 . S
C2058 C2062 1.368 . S
C2059 C2040 1.429 . S
C2059 C2053 1.429 . S
C2059 C2060 1.523 . S
C2060 C2041 1.368 . S
C2060 C2054 1.368 . S
C2060 C2059 1.523 . S
C2061 C2045 1.429 . S
C2061 C2057 1.429 . S
C2061 C2062 1.523 . S
C2062 C2046 1.368 . S
C2062 C2058 1.368 . S
C2062 C2061 1.523 . S
H2063 C2038 0.950 . S
H2064 C2040 0.950 . S
H2065 C2041 0.949 . S
H2066 C2043 0.950 . S
H2067 C2045 0.950 . S
C2068 C2069 1.349 . S
C2068 C2070 1.327 . S
C2068 H2093 0.950 . S
C2069 C2068 1.349 . S
C2069 C2085 1.349 . S
C2070 C2068 1.327 . S
C2070 C2089 1.429 . S
C2070 H2094 0.950 . S
C2071 C2088 1.574 1_565 S
C2071 C2090 1.368 . S
C2071 H2095 0.949 . S
H2072 C2076 0.949 . S
C2073 C2074 1.349 . S
C2073 C2075 1.327 . S
C2073 H2096 0.950 . S
C2074 C2073 1.349 . S
C2074 C2086 1.349 . S
C2075 C2073 1.327 . S
C2075 C2091 1.429 . S
C2075 H2097 0.950 . S
C2076 H2072 0.949 . S
C2076 C2084 1.574 1_545 S
C2076 C2092 1.368 . S
H2077 C2085 0.950 . S
H2078 C2083 0.950 . S
H2079 C2084 0.949 . S
H2080 C2086 0.950 . S
H2081 C2087 0.950 . S
H2082 C2088 0.949 . S
C2083 H2078 0.950 . S
C2083 C2085 1.327 . S
C2083 C2089 1.429 . S
C2084 C2076 1.574 1_565 S
C2084 H2079 0.949 . S
C2084 C2090 1.368 . S
C2085 C2069 1.349 . S
C2085 H2077 0.950 . S
C2085 C2083 1.327 . S
C2086 C2074 1.349 . S
C2086 H2080 0.950 . S
C2086 C2087 1.327 . S
C2087 H2081 0.950 . S
C2087 C2086 1.327 . S
C2087 C2091 1.429 . S
C2088 C2071 1.574 1_545 S
C2088 H2082 0.949 . S
C2088 C2092 1.368 . S
C2089 C2070 1.429 . S
C2089 C2083 1.429 . S
C2089 C2090 1.523 . S
C2090 C2071 1.368 . S
C2090 C2084 1.368 . S
C2090 C2089 1.523 . S
C2091 C2075 1.429 . S
C2091 C2087 1.429 . S
C2091 C2092 1.523 . S
C2092 C2076 1.368 . S
C2092 C2088 1.368 . S
C2092 C2091 1.523 . S
H2093 C2068 0.950 . S
H2094 C2070 0.950 . S
H2095 C2071 0.949 . S
H2096 C2073 0.950 . S
H2097 C2075 0.950 . S
C2098 C2099 1.349 . S
C2098 C2100 1.327 . S
C2098 H2123 0.950 . S
C2099 C2098 1.349 . S
C2099 C2115 1.349 . S
C2100 C2098 1.327 . S
C2100 C2119 1.429 . S
C2100 H2124 0.950 . S
C2101 C2118 1.574 . S
C2101 C2120 1.368 1_554 S
C2101 H2125 0.949 . S
H2102 C2106 0.949 . S
C2103 C2104 1.349 . S
C2103 C2105 1.327 . S
C2103 H2126 0.950 . S
C2104 C2103 1.349 . S
C2104 C2116 1.349 . S
C2105 C2103 1.327 . S
C2105 C2121 1.429 . S
C2105 H2127 0.950 . S
C2106 H2102 0.949 . S
C2106 C2114 1.574 . S
C2106 C2122 1.368 1_556 S
H2107 C2115 0.950 . S
H2108 C2113 0.950 . S
H2109 C2114 0.949 . S
H2110 C2116 0.950 . S
H2111 C2117 0.950 . S
H2112 C2118 0.949 . S
C2113 H2108 0.950 . S
C2113 C2115 1.327 . S
C2113 C2119 1.429 . S
C2114 C2106 1.574 . S
C2114 H2109 0.949 . S
C2114 C2120 1.368 . S
C2115 C2099 1.349 . S
C2115 H2107 0.950 . S
C2115 C2113 1.327 . S
C2116 C2104 1.349 . S
C2116 H2110 0.950 . S
C2116 C2117 1.327 . S
C2117 H2111 0.950 . S
C2117 C2116 1.327 . S
C2117 C2121 1.429 . S
C2118 C2101 1.574 . S
C2118 H2112 0.949 . S
C2118 C2122 1.368 . S
C2119 C2100 1.429 . S
C2119 C2113 1.429 . S
C2119 C2120 1.523 . S
C2120 C2101 1.368 1_556 S
C2120 C2114 1.368 . S
C2120 C2119 1.523 . S
C2121 C2105 1.429 . S
C2121 C2117 1.429 . S
C2121 C2122 1.523 . S
C2122 C2106 1.368 1_554 S
C2122 C2118 1.368 . S
C2122 C2121 1.523 . S
H2123 C2098 0.950 . S
H2124 C2100 0.950 . S
H2125 C2101 0.949 . S
H2126 C2103 0.950 . S
H2127 C2105 0.950 . S
C2128 C2129 1.349 . S
C2128 C2130 1.327 . S
C2128 H2153 0.950 . S
C2129 C2128 1.349 . S
C2129 C2145 1.349 . S
C2130 C2128 1.327 . S
C2130 C2149 1.429 . S
C2130 H2154 0.950 . S
C2131 C2148 1.574 . S
C2131 C2150 1.368 . S
C2131 H2155 0.949 . S
H2132 C2136 0.949 . S
C2133 C2134 1.349 . S
C2133 C2135 1.327 . S
C2133 H2156 0.950 . S
C2134 C2133 1.349 . S
C2134 C2146 1.349 . S
C2135 C2133 1.327 . S
C2135 C2151 1.429 . S
C2135 H2157 0.950 . S
C2136 H2132 0.949 . S
C2136 C2144 1.574 . S
C2136 C2152 1.368 . S
H2137 C2145 0.950 . S
H2138 C2143 0.950 . S
H2139 C2144 0.949 . S
H2140 C2146 0.950 . S
H2141 C2147 0.950 . S
H2142 C2148 0.949 . S
C2143 H2138 0.950 . S
C2143 C2145 1.327 . S
C2143 C2149 1.429 . S
C2144 C2136 1.574 . S
C2144 H2139 0.949 . S
C2144 C2150 1.368 . S
C2145 C2129 1.349 . S
C2145 H2137 0.950 . S
C2145 C2143 1.327 . S
C2146 C2134 1.349 . S
C2146 H2140 0.950 . S
C2146 C2147 1.327 . S
C2147 H2141 0.950 . S
C2147 C2146 1.327 . S
C2147 C2151 1.429 . S
C2148 C2131 1.574 . S
C2148 H2142 0.949 . S
C2148 C2152 1.368 . S
C2149 C2130 1.429 . S
C2149 C2143 1.429 . S
C2149 C2150 1.523 . S
C2150 C2131 1.368 . S
C2150 C2144 1.368 . S
C2150 C2149 1.523 . S
C2151 C2135 1.429 . S
C2151 C2147 1.429 . S
C2151 C2152 1.523 . S
C2152 C2136 1.368 . S
C2152 C2148 1.368 . S
C2152 C2151 1.523 . S
H2153 C2128 0.950 . S
H2154 C2130 0.950 . S
H2155 C2131 0.949 . S
H2156 C2133 0.950 . S
H2157 C2135 0.950 . S
C2158 C2159 1.349 . S
C2158 C2160 1.327 . S
C2158 H2183 0.950 . S
C2159 C2158 1.349 . S
C2159 C2175 1.349 . S
C2160 C2158 1.327 . S
C2160 C2179 1.429 . S
C2160 H2184 0.950 . S
C2161 C2178 1.574 . S
C2161 C2180 1.368 1_554 S
C2161 H2185 0.949 . S
H2162 C2166 0.949 . S
C2163 C2164 1.349 . S
C2163 C2165 1.327 . S
C2163 H2186 0.950 . S
C2164 C2163 1.349 . S
C2164 C2176 1.349 . S
C2165 C2163 1.327 . S
C2165 C2181 1.429 . S
C2165 H2187 0.950 . S
C2166 H2162 0.949 . S
C2166 C2174 1.574 . S
C2166 C2182 1.368 1_556 S
H2167 C2175 0.950 . S
H2168 C2173 0.950 . S
H2169 C2174 0.949 . S
H2170 C2176 0.950 . S
H2171 C2177 0.950 . S
H2172 C2178 0.949 . S
C2173 H2168 0.950 . S
C2173 C2175 1.327 . S
C2173 C2179 1.429 . S
C2174 C2166 1.574 . S
C2174 H2169 0.949 . S
C2174 C2180 1.368 . S
C2175 C2159 1.349 . S
C2175 H2167 0.950 . S
C2175 C2173 1.327 . S
C2176 C2164 1.349 . S
C2176 H2170 0.950 . S
C2176 C2177 1.327 . S
C2177 H2171 0.950 . S
C2177 C2176 1.327 . S
C2177 C2181 1.429 . S
C2178 C2161 1.574 . S
C2178 H2172 0.949 . S
C2178 C2182 1.368 . S
C2179 C2160 1.429 . S
C2179 C2173 1.429 . S
C2179 C2180 1.523 . S
C2180 C2161 1.368 1_556 S
C2180 C2174 1.368 . S
C2180 C2179 1.523 . S
C2181 C2165 1.429 . S
C2181 C2177 1.429 . S
C2181 C2182 1.523 . S
C2182 C2166 1.368 1_554 S
C2182 C2178 1.368 . S
C2182 C2181 1.523 . S
H2183 C2158 0.950 . S
H2184 C2160 0.950 . S
H2185 C2161 0.949 . S
H2186 C2163 0.950 . S
H2187 C2165 0.950 . S
C2188 C2189 1.349 . S
C2188 C2190 1.327 . S
C2188 H2213 0.950 . S
C2189 C2188 1.349 . S
C2189 C2205 1.349 . S
C2190 C2188 1.327 . S
C2190 C2209 1.429 . S
C2190 H2214 0.950 . S
C2191 C2208 1.574 . S
C2191 C2210 1.368 . S
C2191 H2215 0.949 . S
H2192 C2196 0.949 . S
C2193 C2194 1.349 . S
C2193 C2195 1.327 . S
C2193 H2216 0.950 . S
C2194 C2193 1.349 . S
C2194 C2206 1.349 . S
C2195 C2193 1.327 . S
C2195 C2211 1.429 . S
C2195 H2217 0.950 . S
C2196 H2192 0.949 . S
C2196 C2204 1.574 . S
C2196 C2212 1.368 . S
H2197 C2205 0.950 . S
H2198 C2203 0.950 . S
H2199 C2204 0.949 . S
H2200 C2206 0.950 . S
H2201 C2207 0.950 . S
H2202 C2208 0.949 . S
C2203 H2198 0.950 . S
C2203 C2205 1.327 . S
C2203 C2209 1.429 . S
C2204 C2196 1.574 . S
C2204 H2199 0.949 . S
C2204 C2210 1.368 . S
C2205 C2189 1.349 . S
C2205 H2197 0.950 . S
C2205 C2203 1.327 . S
C2206 C2194 1.349 . S
C2206 H2200 0.950 . S
C2206 C2207 1.327 . S
C2207 H2201 0.950 . S
C2207 C2206 1.327 . S
C2207 C2211 1.429 . S
C2208 C2191 1.574 . S
C2208 H2202 0.949 . S
C2208 C2212 1.368 . S
C2209 C2190 1.429 . S
C2209 C2203 1.429 . S
C2209 C2210 1.523 . S
C2210 C2191 1.368 . S
C2210 C2204 1.368 . S
C2210 C2209 1.523 . S
C2211 C2195 1.429 . S
C2211 C2207 1.429 . S
C2211 C2212 1.523 . S
C2212 C2196 1.368 . S
C2212 C2208 1.368 . S
C2212 C2211 1.523 . S
H2213 C2188 0.950 . S
H2214 C2190 0.950 . S
H2215 C2191 0.949 . S
H2216 C2193 0.950 . S
H2217 C2195 0.950 . S
C2218 C2219 1.349 . S
C2218 C2220 1.327 . S
C2218 H2243 0.950 . S
C2219 C2218 1.349 . S
C2219 C2235 1.349 . S
C2220 C2218 1.327 . S
C2220 C2239 1.429 . S
C2220 H2244 0.950 . S
C2221 C2238 1.574 . S
C2221 C2240 1.368 . S
C2221 H2245 0.949 . S
H2222 C2226 0.949 . S
C2223 C2224 1.349 . S
C2223 C2225 1.327 . S
C2223 H2246 0.950 . S
C2224 C2223 1.349 . S
C2224 C2236 1.349 . S
C2225 C2223 1.327 . S
C2225 C2241 1.429 . S
C2225 H2247 0.950 . S
C2226 H2222 0.949 . S
C2226 C2234 1.574 . S
C2226 C2242 1.368 . S
H2227 C2235 0.950 . S
H2228 C2233 0.950 . S
H2229 C2234 0.949 . S
H2230 C2236 0.950 . S
H2231 C2237 0.950 . S
H2232 C2238 0.949 . S
C2233 H2228 0.950 . S
C2233 C2235 1.327 . S
C2233 C2239 1.429 . S
C2234 C2226 1.574 . S
C2234 H2229 0.949 . S
C2234 C2240 1.368 . S
C2235 C2219 1.349 . S
C2235 H2227 0.950 . S
C2235 C2233 1.327 . S
C2236 C2224 1.349 . S
C2236 H2230 0.950 . S
C2236 C2237 1.327 . S
C2237 H2231 0.950 . S
C2237 C2236 1.327 . S
C2237 C2241 1.429 . S
C2238 C2221 1.574 . S
C2238 H2232 0.949 . S
C2238 C2242 1.368 . S
C2239 C2220 1.429 . S
C2239 C2233 1.429 . S
C2239 C2240 1.523 . S
C2240 C2221 1.368 . S
C2240 C2234 1.368 . S
C2240 C2239 1.523 . S
C2241 C2225 1.429 . S
C2241 C2237 1.429 . S
C2241 C2242 1.523 . S
C2242 C2226 1.368 . S
C2242 C2238 1.368 . S
C2242 C2241 1.523 . S
H2243 C2218 0.950 . S
H2244 C2220 0.950 . S
H2245 C2221 0.949 . S
H2246 C2223 0.950 . S
H2247 C2225 0.950 . S
C2248 C2249 1.349 . S
C2248 C2250 1.327 . S
C2248 H2273 0.950 . S
C2249 C2248 1.349 . S
C2249 C2265 1.349 . S
C2250 C2248 1.327 . S
C2250 C2269 1.429 . S
C2250 H2274 0.950 . S
C2251 C2268 1.574 . S
C2251 C2270 1.368 . S
C2251 H2275 0.949 . S
H2252 C2256 0.949 . S
C2253 C2254 1.349 . S
C2253 C2255 1.327 . S
C2253 H2276 0.950 . S
C2254 C2253 1.349 . S
C2254 C2266 1.349 . S
C2255 C2253 1.327 . S
C2255 C2271 1.429 . S
C2255 H2277 0.950 . S
C2256 H2252 0.949 . S
C2256 C2264 1.574 . S
C2256 C2272 1.368 . S
H2257 C2265 0.950 . S
H2258 C2263 0.950 . S
H2259 C2264 0.949 . S
H2260 C2266 0.950 . S
H2261 C2267 0.950 . S
H2262 C2268 0.949 . S
C2263 H2258 0.950 . S
C2263 C2265 1.327 . S
C2263 C2269 1.429 . S
C2264 C2256 1.574 . S
C2264 H2259 0.949 . S
C2264 C2270 1.368 . S
C2265 C2249 1.349 . S
C2265 H2257 0.950 . S
C2265 C2263 1.327 . S
C2266 C2254 1.349 . S
C2266 H2260 0.950 . S
C2266 C2267 1.327 . S
C2267 H2261 0.950 . S
C2267 C2266 1.327 . S
C2267 C2271 1.429 . S
C2268 C2251 1.574 . S
C2268 H2262 0.949 . S
C2268 C2272 1.368 . S
C2269 C2250 1.429 . S
C2269 C2263 1.429 . S
C2269 C2270 1.523 . S
C2270 C2251 1.368 . S
C2270 C2264 1.368 . S
C2270 C2269 1.523 . S
C2271 C2255 1.429 . S
C2271 C2267 1.429 . S
C2271 C2272 1.523 . S
C2272 C2256 1.368 . S
C2272 C2268 1.368 . S
C2272 C2271 1.523 . S
H2273 C2248 0.950 . S
H2274 C2250 0.950 . S
H2275 C2251 0.949 . S
H2276 C2253 0.950 . S
H2277 C2255 0.950 . S
C2278 C2279 1.349 . S
C2278 C2280 1.327 . S
C2278 H2303 0.950 . S
C2279 C2278 1.349 . S
C2279 C2295 1.349 . S
C2280 C2278 1.327 . S
C2280 C2299 1.429 . S
C2280 H2304 0.950 . S
C2281 C2298 1.574 . S
C2281 C2300 1.368 . S
C2281 H2305 0.949 . S
H2282 C2286 0.949 . S
C2283 C2284 1.349 . S
C2283 C2285 1.327 . S
C2283 H2306 0.950 . S
C2284 C2283 1.349 . S
C2284 C2296 1.349 . S
C2285 C2283 1.327 . S
C2285 C2301 1.429 . S
C2285 H2307 0.950 . S
C2286 H2282 0.949 . S
C2286 C2294 1.574 . S
C2286 C2302 1.368 . S
H2287 C2295 0.950 . S
H2288 C2293 0.950 . S
H2289 C2294 0.949 . S
H2290 C2296 0.950 . S
H2291 C2297 0.950 . S
H2292 C2298 0.949 . S
C2293 H2288 0.950 . S
C2293 C2295 1.327 . S
C2293 C2299 1.429 . S
C2294 C2286 1.574 . S
C2294 H2289 0.949 . S
C2294 C2300 1.368 1_556 S
C2295 C2279 1.349 . S
C2295 H2287 0.950 . S
C2295 C2293 1.327 . S
C2296 C2284 1.349 . S
C2296 H2290 0.950 . S
C2296 C2297 1.327 . S
C2297 H2291 0.950 . S
C2297 C2296 1.327 . S
C2297 C2301 1.429 . S
C2298 C2281 1.574 . S
C2298 H2292 0.949 . S
C2298 C2302 1.368 1_554 S
C2299 C2280 1.429 . S
C2299 C2293 1.429 . S
C2299 C2300 1.523 . S
C2300 C2281 1.368 . S
C2300 C2294 1.368 1_554 S
C2300 C2299 1.523 . S
C2301 C2285 1.429 . S
C2301 C2297 1.429 . S
C2301 C2302 1.523 . S
C2302 C2286 1.368 . S
C2302 C2298 1.368 1_556 S
C2302 C2301 1.523 . S
H2303 C2278 0.950 . S
H2304 C2280 0.950 . S
H2305 C2281 0.949 . S
H2306 C2283 0.950 . S
H2307 C2285 0.950 . S
C2308 C2309 1.349 . S
C2308 C2310 1.327 . S
C2308 H2333 0.950 . S
C2309 C2308 1.349 . S
C2309 C2325 1.349 . S
C2310 C2308 1.327 . S
C2310 C2329 1.429 . S
C2310 H2334 0.950 . S
C2311 C2328 1.574 . S
C2311 C2330 1.368 . S
C2311 H2335 0.949 . S
H2312 C2316 0.949 . S
C2313 C2314 1.349 . S
C2313 C2315 1.327 . S
C2313 H2336 0.950 . S
C2314 C2313 1.349 . S
C2314 C2326 1.349 . S
C2315 C2313 1.327 . S
C2315 C2331 1.429 . S
C2315 H2337 0.950 . S
C2316 H2312 0.949 . S
C2316 C2324 1.574 . S
C2316 C2332 1.368 . S
H2317 C2325 0.950 . S
H2318 C2323 0.950 . S
H2319 C2324 0.949 . S
H2320 C2326 0.950 . S
H2321 C2327 0.950 . S
H2322 C2328 0.949 . S
C2323 H2318 0.950 . S
C2323 C2325 1.327 . S
C2323 C2329 1.429 . S
C2324 C2316 1.574 . S
C2324 H2319 0.949 . S
C2324 C2330 1.368 . S
C2325 C2309 1.349 . S
C2325 H2317 0.950 . S
C2325 C2323 1.327 . S
C2326 C2314 1.349 . S
C2326 H2320 0.950 . S
C2326 C2327 1.327 . S
C2327 H2321 0.950 . S
C2327 C2326 1.327 . S
C2327 C2331 1.429 . S
C2328 C2311 1.574 . S
C2328 H2322 0.949 . S
C2328 C2332 1.368 . S
C2329 C2310 1.429 . S
C2329 C2323 1.429 . S
C2329 C2330 1.523 . S
C2330 C2311 1.368 . S
C2330 C2324 1.368 . S
C2330 C2329 1.523 . S
C2331 C2315 1.429 . S
C2331 C2327 1.429 . S
C2331 C2332 1.523 . S
C2332 C2316 1.368 . S
C2332 C2328 1.368 . S
C2332 C2331 1.523 . S
H2333 C2308 0.950 . S
H2334 C2310 0.950 . S
H2335 C2311 0.949 . S
H2336 C2313 0.950 . S
H2337 C2315 0.950 . S
C2338 C2339 1.349 . S
C2338 C2340 1.327 . S
C2338 H2363 0.950 . S
C2339 C2338 1.349 . S
C2339 C2355 1.349 . S
C2340 C2338 1.327 . S
C2340 C2359 1.429 . S
C2340 H2364 0.950 . S
C2341 C2358 1.574 . S
C2341 C2360 1.368 . S
C2341 H2365 0.949 . S
H2342 C2346 0.949 . S
C2343 C2344 1.349 . S
C2343 C2345 1.327 . S
C2343 H2366 0.950 . S
C2344 C2343 1.349 . S
C2344 C2356 1.349 . S
C2345 C2343 1.327 . S
C2345 C2361 1.429 . S
C2345 H2367 0.950 . S
C2346 H2342 0.949 . S
C2346 C2354 1.574 . S
C2346 C2362 1.368 . S
H2347 C2355 0.950 . S
H2348 C2353 0.950 . S
H2349 C2354 0.949 . S
H2350 C2356 0.950 . S
H2351 C2357 0.950 . S
H2352 C2358 0.949 . S
C2353 H2348 0.950 . S
C2353 C2355 1.327 . S
C2353 C2359 1.429 . S
C2354 C2346 1.574 . S
C2354 H2349 0.949 . S
C2354 C2360 1.368 . S
C2355 C2339 1.349 . S
C2355 H2347 0.950 . S
C2355 C2353 1.327 . S
C2356 C2344 1.349 . S
C2356 H2350 0.950 . S
C2356 C2357 1.327 . S
C2357 H2351 0.950 . S
C2357 C2356 1.327 . S
C2357 C2361 1.429 . S
C2358 C2341 1.574 . S
C2358 H2352 0.949 . S
C2358 C2362 1.368 . S
C2359 C2340 1.429 . S
C2359 C2353 1.429 . S
C2359 C2360 1.523 . S
C2360 C2341 1.368 . S
C2360 C2354 1.368 . S
C2360 C2359 1.523 . S
C2361 C2345 1.429 . S
C2361 C2357 1.429 . S
C2361 C2362 1.523 . S
C2362 C2346 1.368 . S
C2362 C2358 1.368 . S
C2362 C2361 1.523 . S
H2363 C2338 0.950 . S
H2364 C2340 0.950 . S
H2365 C2341 0.949 . S
H2366 C2343 0.950 . S
H2367 C2345 0.950 . S
C2368 C2369 1.349 . S
C2368 C2370 1.327 . S
C2368 H2393 0.950 . S
C2369 C2368 1.349 . S
C2369 C2385 1.349 . S
C2370 C2368 1.327 . S
C2370 C2389 1.429 . S
C2370 H2394 0.950 . S
C2371 C2388 1.574 . S
C2371 C2390 1.368 . S
C2371 H2395 0.949 . S
H2372 C2376 0.949 . S
C2373 C2374 1.349 . S
C2373 C2375 1.327 . S
C2373 H2396 0.950 . S
C2374 C2373 1.349 . S
C2374 C2386 1.349 . S
C2375 C2373 1.327 . S
C2375 C2391 1.429 . S
C2375 H2397 0.950 . S
C2376 H2372 0.949 . S
C2376 C2384 1.574 . S
C2376 C2392 1.368 . S
H2377 C2385 0.950 . S
H2378 C2383 0.950 . S
H2379 C2384 0.949 . S
H2380 C2386 0.950 . S
H2381 C2387 0.950 . S
H2382 C2388 0.949 . S
C2383 H2378 0.950 . S
C2383 C2385 1.327 . S
C2383 C2389 1.429 . S
C2384 C2376 1.574 . S
C2384 H2379 0.949 . S
C2384 C2390 1.368 . S
C2385 C2369 1.349 . S
C2385 H2377 0.950 . S
C2385 C2383 1.327 . S
C2386 C2374 1.349 . S
C2386 H2380 0.950 . S
C2386 C2387 1.327 . S
C2387 H2381 0.950 . S
C2387 C2386 1.327 . S
C2387 C2391 1.429 . S
C2388 C2371 1.574 . S
C2388 H2382 0.949 . S
C2388 C2392 1.368 . S
C2389 C2370 1.429 . S
C2389 C2383 1.429 . S
C2389 C2390 1.523 . S
C2390 C2371 1.368 . S
C2390 C2384 1.368 . S
C2390 C2389 1.523 . S
C2391 C2375 1.429 . S
C2391 C2387 1.429 . S
C2391 C2392 1.523 . S
C2392 C2376 1.368 . S
C2392 C2388 1.368 . S
C2392 C2391 1.523 . S
H2393 C2368 0.950 . S
H2394 C2370 0.950 . S
H2395 C2371 0.949 . S
H2396 C2373 0.950 . S
H2397 C2375 0.950 . S
C2398 C2399 1.349 . S
C2398 C2400 1.327 . S
C2398 H2423 0.950 . S
C2399 C2398 1.349 . S
C2399 C2415 1.349 . S
C2400 C2398 1.327 . S
C2400 C2419 1.429 . S
C2400 H2424 0.950 . S
C2401 C2418 1.574 . S
C2401 C2420 1.368 . S
C2401 H2425 0.949 . S
H2402 C2406 0.949 . S
C2403 C2404 1.349 . S
C2403 C2405 1.327 . S
C2403 H2426 0.950 . S
C2404 C2403 1.349 . S
C2404 C2416 1.349 . S
C2405 C2403 1.327 . S
C2405 C2421 1.429 . S
C2405 H2427 0.950 . S
C2406 H2402 0.949 . S
C2406 C2414 1.574 . S
C2406 C2422 1.368 . S
H2407 C2415 0.950 . S
H2408 C2413 0.950 . S
H2409 C2414 0.949 . S
H2410 C2416 0.950 . S
H2411 C2417 0.950 . S
H2412 C2418 0.949 . S
C2413 H2408 0.950 . S
C2413 C2415 1.327 . S
C2413 C2419 1.429 . S
C2414 C2406 1.574 . S
C2414 H2409 0.949 . S
C2414 C2420 1.368 . S
C2415 C2399 1.349 . S
C2415 H2407 0.950 . S
C2415 C2413 1.327 . S
C2416 C2404 1.349 . S
C2416 H2410 0.950 . S
C2416 C2417 1.327 . S
C2417 H2411 0.950 . S
C2417 C2416 1.327 . S
C2417 C2421 1.429 . S
C2418 C2401 1.574 . S
C2418 H2412 0.949 . S
C2418 C2422 1.368 . S
C2419 C2400 1.429 . S
C2419 C2413 1.429 . S
C2419 C2420 1.523 1_655 S
C2420 C2401 1.368 . S
C2420 C2414 1.368 . S
C2420 C2419 1.523 1_455 S
C2421 C2405 1.429 . S
C2421 C2417 1.429 . S
C2421 C2422 1.523 . S
C2422 C2406 1.368 . S
C2422 C2418 1.368 . S
C2422 C2421 1.523 . S
H2423 C2398 0.950 . S
H2424 C2400 0.950 . S
H2425 C2401 0.949 . S
H2426 C2403 0.950 . S
H2427 C2405 0.950 . S
C2428 C2429 1.349 . S
C2428 C2430 1.327 . S
C2428 H2453 0.950 . S
C2429 C2428 1.349 . S
C2429 C2445 1.349 . S
C2430 C2428 1.327 . S
C2430 C2449 1.429 . S
C2430 H2454 0.950 . S
C2431 C2448 1.574 . S
C2431 C2450 1.368 . S
C2431 H2455 0.949 . S
H2432 C2436 0.949 . S
C2433 C2434 1.349 . S
C2433 C2435 1.327 . S
C2433 H2456 0.950 . S
C2434 C2433 1.349 . S
C2434 C2446 1.349 . S
C2435 C2433 1.327 . S
C2435 C2451 1.429 . S
C2435 H2457 0.950 . S
C2436 H2432 0.949 . S
C2436 C2444 1.574 . S
C2436 C2452 1.368 . S
H2437 C2445 0.950 . S
H2438 C2443 0.950 . S
H2439 C2444 0.949 . S
H2440 C2446 0.950 . S
H2441 C2447 0.950 . S
H2442 C2448 0.949 . S
C2443 H2438 0.950 . S
C2443 C2445 1.327 . S
C2443 C2449 1.429 . S
C2444 C2436 1.574 . S
C2444 H2439 0.949 . S
C2444 C2450 1.368 . S
C2445 C2429 1.349 . S
C2445 H2437 0.950 . S
C2445 C2443 1.327 . S
C2446 C2434 1.349 . S
C2446 H2440 0.950 . S
C2446 C2447 1.327 . S
C2447 H2441 0.950 . S
C2447 C2446 1.327 . S
C2447 C2451 1.429 . S
C2448 C2431 1.574 . S
C2448 H2442 0.949 . S
C2448 C2452 1.368 . S
C2449 C2430 1.429 . S
C2449 C2443 1.429 . S
C2449 C2450 1.523 . S
C2450 C2431 1.368 . S
C2450 C2444 1.368 . S
C2450 C2449 1.523 . S
C2451 C2435 1.429 . S
C2451 C2447 1.429 . S
C2451 C2452 1.523 . S
C2452 C2436 1.368 . S
C2452 C2448 1.368 . S
C2452 C2451 1.523 . S
H2453 C2428 0.950 . S
H2454 C2430 0.950 . S
H2455 C2431 0.949 . S
H2456 C2433 0.950 . S
H2457 C2435 0.950 . S
C2458 C2459 1.349 . S
C2458 C2460 1.327 . S
C2458 H2483 0.950 . S
C2459 C2458 1.349 . S
C2459 C2475 1.349 . S
C2460 C2458 1.327 . S
C2460 C2479 1.429 . S
C2460 H2484 0.950 . S
C2461 C2478 1.574 . S
C2461 C2480 1.368 . S
C2461 H2485 0.949 . S
H2462 C2466 0.949 . S
C2463 C2464 1.349 . S
C2463 C2465 1.327 . S
C2463 H2486 0.950 . S
C2464 C2463 1.349 . S
C2464 C2476 1.349 . S
C2465 C2463 1.327 . S
C2465 C2481 1.429 . S
C2465 H2487 0.950 . S
C2466 H2462 0.949 . S
C2466 C2474 1.574 . S
C2466 C2482 1.368 . S
H2467 C2475 0.950 . S
H2468 C2473 0.950 . S
H2469 C2474 0.949 . S
H2470 C2476 0.950 . S
H2471 C2477 0.950 . S
H2472 C2478 0.949 . S
C2473 H2468 0.950 . S
C2473 C2475 1.327 . S
C2473 C2479 1.429 . S
C2474 C2466 1.574 . S
C2474 H2469 0.949 . S
C2474 C2480 1.368 . S
C2475 C2459 1.349 . S
C2475 H2467 0.950 . S
C2475 C2473 1.327 . S
C2476 C2464 1.349 . S
C2476 H2470 0.950 . S
C2476 C2477 1.327 . S
C2477 H2471 0.950 . S
C2477 C2476 1.327 . S
C2477 C2481 1.429 . S
C2478 C2461 1.574 . S
C2478 H2472 0.949 . S
C2478 C2482 1.368 . S
C2479 C2460 1.429 . S
C2479 C2473 1.429 . S
C2479 C2480 1.523 . S
C2480 C2461 1.368 . S
C2480 C2474 1.368 . S
C2480 C2479 1.523 . S
C2481 C2465 1.429 . S
C2481 C2477 1.429 . S
C2481 C2482 1.523 . S
C2482 C2466 1.368 . S
C2482 C2478 1.368 . S
C2482 C2481 1.523 . S
H2483 C2458 0.950 . S
H2484 C2460 0.950 . S
H2485 C2461 0.949 . S
H2486 C2463 0.950 . S
H2487 C2465 0.950 . S
C2488 C2489 1.349 . S
C2488 C2490 1.327 . S
C2488 H2513 0.950 . S
C2489 C2488 1.349 . S
C2489 C2505 1.349 . S
C2490 C2488 1.327 . S
C2490 C2509 1.429 . S
C2490 H2514 0.950 . S
C2491 C2508 1.574 . S
C2491 C2510 1.368 . S
C2491 H2515 0.949 . S
H2492 C2496 0.949 . S
C2493 C2494 1.349 . S
C2493 C2495 1.327 . S
C2493 H2516 0.950 . S
C2494 C2493 1.349 . S
C2494 C2506 1.349 . S
C2495 C2493 1.327 . S
C2495 C2511 1.429 . S
C2495 H2517 0.950 . S
C2496 H2492 0.949 . S
C2496 C2504 1.574 . S
C2496 C2512 1.368 . S
H2497 C2505 0.950 . S
H2498 C2503 0.950 . S
H2499 C2504 0.949 . S
H2500 C2506 0.950 . S
H2501 C2507 0.950 . S
H2502 C2508 0.949 . S
C2503 H2498 0.950 . S
C2503 C2505 1.327 . S
C2503 C2509 1.429 . S
C2504 C2496 1.574 . S
C2504 H2499 0.949 . S
C2504 C2510 1.368 . S
C2505 C2489 1.349 . S
C2505 H2497 0.950 . S
C2505 C2503 1.327 . S
C2506 C2494 1.349 . S
C2506 H2500 0.950 . S
C2506 C2507 1.327 . S
C2507 H2501 0.950 . S
C2507 C2506 1.327 . S
C2507 C2511 1.429 . S
C2508 C2491 1.574 . S
C2508 H2502 0.949 . S
C2508 C2512 1.368 . S
C2509 C2490 1.429 . S
C2509 C2503 1.429 . S
C2509 C2510 1.523 . S
C2510 C2491 1.368 . S
C2510 C2504 1.368 . S
C2510 C2509 1.523 . S
C2511 C2495 1.429 . S
C2511 C2507 1.429 . S
C2511 C2512 1.523 . S
C2512 C2496 1.368 . S
C2512 C2508 1.368 . S
C2512 C2511 1.523 . S
H2513 C2488 0.950 . S
H2514 C2490 0.950 . S
H2515 C2491 0.949 . S
H2516 C2493 0.950 . S
H2517 C2495 0.950 . S
C2518 C2519 1.349 . S
C2518 C2520 1.327 . S
C2518 H2543 0.950 . S
C2519 C2518 1.349 . S
C2519 C2535 1.349 . S
C2520 C2518 1.327 . S
C2520 C2539 1.429 . S
C2520 H2544 0.950 . S
C2521 C2538 1.574 . S
C2521 C2540 1.368 . S
C2521 H2545 0.949 . S
H2522 C2526 0.949 . S
C2523 C2524 1.349 . S
C2523 C2525 1.327 . S
C2523 H2546 0.950 . S
C2524 C2523 1.349 . S
C2524 C2536 1.349 . S
C2525 C2523 1.327 . S
C2525 C2541 1.429 . S
C2525 H2547 0.950 . S
C2526 H2522 0.949 . S
C2526 C2534 1.574 . S
C2526 C2542 1.368 . S
H2527 C2535 0.950 . S
H2528 C2533 0.950 . S
H2529 C2534 0.949 . S
H2530 C2536 0.950 . S
H2531 C2537 0.950 . S
H2532 C2538 0.949 . S
C2533 H2528 0.950 . S
C2533 C2535 1.327 . S
C2533 C2539 1.429 . S
C2534 C2526 1.574 . S
C2534 H2529 0.949 . S
C2534 C2540 1.368 . S
C2535 C2519 1.349 . S
C2535 H2527 0.950 . S
C2535 C2533 1.327 . S
C2536 C2524 1.349 . S
C2536 H2530 0.950 . S
C2536 C2537 1.327 . S
C2537 H2531 0.950 . S
C2537 C2536 1.327 . S
C2537 C2541 1.429 . S
C2538 C2521 1.574 . S
C2538 H2532 0.949 . S
C2538 C2542 1.368 . S
C2539 C2520 1.429 . S
C2539 C2533 1.429 . S
C2539 C2540 1.523 . S
C2540 C2521 1.368 . S
C2540 C2534 1.368 . S
C2540 C2539 1.523 . S
C2541 C2525 1.429 . S
C2541 C2537 1.429 . S
C2541 C2542 1.523 . S
C2542 C2526 1.368 . S
C2542 C2538 1.368 . S
C2542 C2541 1.523 . S
H2543 C2518 0.950 . S
H2544 C2520 0.950 . S
H2545 C2521 0.949 . S
H2546 C2523 0.950 . S
H2547 C2525 0.950 . S
C2548 C2549 1.349 . S
C2548 C2550 1.327 . S
C2548 H2573 0.950 . S
C2549 C2548 1.349 . S
C2549 C2565 1.349 . S
C2550 C2548 1.327 . S
C2550 C2569 1.429 . S
C2550 H2574 0.950 . S
C2551 C2568 1.574 . S
C2551 C2570 1.368 . S
C2551 H2575 0.949 . S
H2552 C2556 0.949 . S
C2553 C2554 1.349 . S
C2553 C2555 1.327 . S
C2553 H2576 0.950 . S
C2554 C2553 1.349 . S
C2554 C2566 1.349 . S
C2555 C2553 1.327 . S
C2555 C2571 1.429 . S
C2555 H2577 0.950 . S
C2556 H2552 0.949 . S
C2556 C2564 1.574 . S
C2556 C2572 1.368 . S
H2557 C2565 0.950 . S
H2558 C2563 0.950 . S
H2559 C2564 0.949 . S
H2560 C2566 0.950 . S
H2561 C2567 0.950 . S
H2562 C2568 0.949 . S
C2563 H2558 0.950 . S
C2563 C2565 1.327 . S
C2563 C2569 1.429 . S
C2564 C2556 1.574 . S
C2564 H2559 0.949 . S
C2564 C2570 1.368 . S
C2565 C2549 1.349 . S
C2565 H2557 0.950 . S
C2565 C2563 1.327 . S
C2566 C2554 1.349 . S
C2566 H2560 0.950 . S
C2566 C2567 1.327 . S
C2567 H2561 0.950 . S
C2567 C2566 1.327 . S
C2567 C2571 1.429 . S
C2568 C2551 1.574 . S
C2568 H2562 0.949 . S
C2568 C2572 1.368 . S
C2569 C2550 1.429 . S
C2569 C2563 1.429 . S
C2569 C2570 1.523 . S
C2570 C2551 1.368 . S
C2570 C2564 1.368 . S
C2570 C2569 1.523 . S
C2571 C2555 1.429 . S
C2571 C2567 1.429 . S
C2571 C2572 1.523 . S
C2572 C2556 1.368 . S
C2572 C2568 1.368 . S
C2572 C2571 1.523 . S
H2573 C2548 0.950 . S
H2574 C2550 0.950 . S
H2575 C2551 0.949 . S
H2576 C2553 0.950 . S
H2577 C2555 0.950 . S
C2578 C2579 1.349 . S
C2578 C2580 1.327 . S
C2578 H2603 0.950 . S
C2579 C2578 1.349 . S
C2579 C2595 1.349 . S
C2580 C2578 1.327 . S
C2580 C2599 1.429 . S
C2580 H2604 0.950 . S
C2581 C2598 1.574 . S
C2581 C2600 1.368 . S
C2581 H2605 0.949 . S
H2582 C2586 0.949 . S
C2583 C2584 1.349 . S
C2583 C2585 1.327 . S
C2583 H2606 0.950 . S
C2584 C2583 1.349 . S
C2584 C2596 1.349 . S
C2585 C2583 1.327 . S
C2585 C2601 1.429 . S
C2585 H2607 0.950 . S
C2586 H2582 0.949 . S
C2586 C2594 1.574 . S
C2586 C2602 1.368 . S
H2587 C2595 0.950 . S
H2588 C2593 0.950 . S
H2589 C2594 0.949 . S
H2590 C2596 0.950 . S
H2591 C2597 0.950 . S
H2592 C2598 0.949 . S
C2593 H2588 0.950 . S
C2593 C2595 1.327 . S
C2593 C2599 1.429 . S
C2594 C2586 1.574 . S
C2594 H2589 0.949 . S
C2594 C2600 1.368 . S
C2595 C2579 1.349 . S
C2595 H2587 0.950 . S
C2595 C2593 1.327 . S
C2596 C2584 1.349 . S
C2596 H2590 0.950 . S
C2596 C2597 1.327 . S
C2597 H2591 0.950 . S
C2597 C2596 1.327 . S
C2597 C2601 1.429 . S
C2598 C2581 1.574 . S
C2598 H2592 0.949 . S
C2598 C2602 1.368 . S
C2599 C2580 1.429 . S
C2599 C2593 1.429 . S
C2599 C2600 1.523 . S
C2600 C2581 1.368 . S
C2600 C2594 1.368 . S
C2600 C2599 1.523 . S
C2601 C2585 1.429 . S
C2601 C2597 1.429 . S
C2601 C2602 1.523 1_655 S
C2602 C2586 1.368 . S
C2602 C2598 1.368 . S
C2602 C2601 1.523 1_455 S
H2603 C2578 0.950 . S
H2604 C2580 0.950 . S
H2605 C2581 0.949 . S
H2606 C2583 0.950 . S
H2607 C2585 0.950 . S
C2608 C2609 1.349 . S
C2608 C2610 1.327 . S
C2608 H2633 0.950 . S
C2609 C2608 1.349 . S
C2609 C2625 1.349 . S
C2610 C2608 1.327 . S
C2610 C2629 1.429 . S
C2610 H2634 0.950 . S
C2611 C2628 1.574 . S
C2611 C2630 1.368 . S
C2611 H2635 0.949 . S
H2612 C2616 0.949 . S
C2613 C2614 1.349 . S
C2613 C2615 1.327 . S
C2613 H2636 0.950 . S
C2614 C2613 1.349 . S
C2614 C2626 1.349 . S
C2615 C2613 1.327 . S
C2615 C2631 1.429 . S
C2615 H2637 0.950 . S
C2616 H2612 0.949 . S
C2616 C2624 1.574 . S
C2616 C2632 1.368 . S
H2617 C2625 0.950 . S
H2618 C2623 0.950 . S
H2619 C2624 0.949 . S
H2620 C2626 0.950 . S
H2621 C2627 0.950 . S
H2622 C2628 0.949 . S
C2623 H2618 0.950 . S
C2623 C2625 1.327 . S
C2623 C2629 1.429 . S
C2624 C2616 1.574 . S
C2624 H2619 0.949 . S
C2624 C2630 1.368 . S
C2625 C2609 1.349 . S
C2625 H2617 0.950 . S
C2625 C2623 1.327 . S
C2626 C2614 1.349 . S
C2626 H2620 0.950 . S
C2626 C2627 1.327 . S
C2627 H2621 0.950 . S
C2627 C2626 1.327 . S
C2627 C2631 1.429 . S
C2628 C2611 1.574 . S
C2628 H2622 0.949 . S
C2628 C2632 1.368 . S
C2629 C2610 1.429 . S
C2629 C2623 1.429 . S
C2629 C2630 1.523 . S
C2630 C2611 1.368 . S
C2630 C2624 1.368 . S
C2630 C2629 1.523 . S
C2631 C2615 1.429 . S
C2631 C2627 1.429 . S
C2631 C2632 1.523 . S
C2632 C2616 1.368 . S
C2632 C2628 1.368 . S
C2632 C2631 1.523 . S
H2633 C2608 0.950 . S
H2634 C2610 0.950 . S
H2635 C2611 0.949 . S
H2636 C2613 0.950 . S
H2637 C2615 0.950 . S
C2638 C2639 1.349 . S
C2638 C2640 1.327 . S
C2638 H2663 0.950 . S
C2639 C2638 1.349 . S
C2639 C2655 1.349 . S
C2640 C2638 1.327 . S
C2640 C2659 1.429 . S
C2640 H2664 0.950 . S
C2641 C2658 1.574 . S
C2641 C2660 1.368 . S
C2641 H2665 0.949 . S
H2642 C2646 0.949 . S
C2643 C2644 1.349 . S
C2643 C2645 1.327 . S
C2643 H2666 0.950 . S
C2644 C2643 1.349 . S
C2644 C2656 1.349 . S
C2645 C2643 1.327 . S
C2645 C2661 1.429 . S
C2645 H2667 0.950 . S
C2646 H2642 0.949 . S
C2646 C2654 1.574 . S
C2646 C2662 1.368 . S
H2647 C2655 0.950 . S
H2648 C2653 0.950 . S
H2649 C2654 0.949 . S
H2650 C2656 0.950 . S
H2651 C2657 0.950 . S
H2652 C2658 0.949 . S
C2653 H2648 0.950 . S
C2653 C2655 1.327 . S
C2653 C2659 1.429 . S
C2654 C2646 1.574 . S
C2654 H2649 0.949 . S
C2654 C2660 1.368 . S
C2655 C2639 1.349 . S
C2655 H2647 0.950 . S
C2655 C2653 1.327 . S
C2656 C2644 1.349 . S
C2656 H2650 0.950 . S
C2656 C2657 1.327 . S
C2657 H2651 0.950 . S
C2657 C2656 1.327 . S
C2657 C2661 1.429 . S
C2658 C2641 1.574 . S
C2658 H2652 0.949 . S
C2658 C2662 1.368 . S
C2659 C2640 1.429 . S
C2659 C2653 1.429 . S
C2659 C2660 1.523 . S
C2660 C2641 1.368 . S
C2660 C2654 1.368 . S
C2660 C2659 1.523 . S
C2661 C2645 1.429 . S
C2661 C2657 1.429 . S
C2661 C2662 1.523 1_455 S
C2662 C2646 1.368 . S
C2662 C2658 1.368 . S
C2662 C2661 1.523 1_655 S
H2663 C2638 0.950 . S
H2664 C2640 0.950 . S
H2665 C2641 0.949 . S
H2666 C2643 0.950 . S
H2667 C2645 0.950 . S
C2668 C2669 1.349 . S
C2668 C2670 1.327 . S
C2668 H2693 0.950 . S
C2669 C2668 1.349 . S
C2669 C2685 1.349 . S
C2670 C2668 1.327 . S
C2670 C2689 1.429 . S
C2670 H2694 0.950 . S
C2671 C2688 1.574 . S
C2671 C2690 1.368 . S
C2671 H2695 0.949 . S
H2672 C2676 0.949 . S
C2673 C2674 1.349 . S
C2673 C2675 1.327 . S
C2673 H2696 0.950 . S
C2674 C2673 1.349 . S
C2674 C2686 1.349 . S
C2675 C2673 1.327 . S
C2675 C2691 1.429 . S
C2675 H2697 0.950 . S
C2676 H2672 0.949 . S
C2676 C2684 1.574 . S
C2676 C2692 1.368 . S
H2677 C2685 0.950 . S
H2678 C2683 0.950 . S
H2679 C2684 0.949 . S
H2680 C2686 0.950 . S
H2681 C2687 0.950 . S
H2682 C2688 0.949 . S
C2683 H2678 0.950 . S
C2683 C2685 1.327 . S
C2683 C2689 1.429 . S
C2684 C2676 1.574 . S
C2684 H2679 0.949 . S
C2684 C2690 1.368 . S
C2685 C2669 1.349 . S
C2685 H2677 0.950 . S
C2685 C2683 1.327 . S
C2686 C2674 1.349 . S
C2686 H2680 0.950 . S
C2686 C2687 1.327 . S
C2687 H2681 0.950 . S
C2687 C2686 1.327 . S
C2687 C2691 1.429 . S
C2688 C2671 1.574 . S
C2688 H2682 0.949 . S
C2688 C2692 1.368 . S
C2689 C2670 1.429 . S
C2689 C2683 1.429 . S
C2689 C2690 1.523 . S
C2690 C2671 1.368 . S
C2690 C2684 1.368 . S
C2690 C2689 1.523 . S
C2691 C2675 1.429 . S
C2691 C2687 1.429 . S
C2691 C2692 1.523 . S
C2692 C2676 1.368 . S
C2692 C2688 1.368 . S
C2692 C2691 1.523 . S
H2693 C2668 0.950 . S
H2694 C2670 0.950 . S
H2695 C2671 0.949 . S
H2696 C2673 0.950 . S
H2697 C2675 0.950 . S
C2698 C2699 1.349 . S
C2698 C2700 1.327 . S
C2698 H2723 0.950 . S
C2699 C2698 1.349 . S
C2699 C2715 1.349 . S
C2700 C2698 1.327 . S
C2700 C2719 1.429 . S
C2700 H2724 0.950 . S
C2701 C2718 1.574 . S
C2701 C2720 1.368 . S
C2701 H2725 0.949 . S
H2702 C2706 0.949 . S
C2703 C2704 1.349 . S
C2703 C2705 1.327 . S
C2703 H2726 0.950 . S
C2704 C2703 1.349 . S
C2704 C2716 1.349 . S
C2705 C2703 1.327 . S
C2705 C2721 1.429 . S
C2705 H2727 0.950 . S
C2706 H2702 0.949 . S
C2706 C2714 1.574 . S
C2706 C2722 1.368 . S
H2707 C2715 0.950 . S
H2708 C2713 0.950 . S
H2709 C2714 0.949 . S
H2710 C2716 0.950 . S
H2711 C2717 0.950 . S
H2712 C2718 0.949 . S
C2713 H2708 0.950 . S
C2713 C2715 1.327 . S
C2713 C2719 1.429 . S
C2714 C2706 1.574 . S
C2714 H2709 0.949 . S
C2714 C2720 1.368 . S
C2715 C2699 1.349 . S
C2715 H2707 0.950 . S
C2715 C2713 1.327 . S
C2716 C2704 1.349 . S
C2716 H2710 0.950 . S
C2716 C2717 1.327 . S
C2717 H2711 0.950 . S
C2717 C2716 1.327 . S
C2717 C2721 1.429 . S
C2718 C2701 1.574 . S
C2718 H2712 0.949 . S
C2718 C2722 1.368 . S
C2719 C2700 1.429 . S
C2719 C2713 1.429 . S
C2719 C2720 1.523 . S
C2720 C2701 1.368 . S
C2720 C2714 1.368 . S
C2720 C2719 1.523 . S
C2721 C2705 1.429 . S
C2721 C2717 1.429 . S
C2721 C2722 1.523 . S
C2722 C2706 1.368 . S
C2722 C2718 1.368 . S
C2722 C2721 1.523 . S
H2723 C2698 0.950 . S
H2724 C2700 0.950 . S
H2725 C2701 0.949 . S
H2726 C2703 0.950 . S
H2727 C2705 0.950 . S
C2728 C2729 1.349 . S
C2728 C2730 1.327 . S
C2728 H2753 0.950 . S
C2729 C2728 1.349 . S
C2729 C2745 1.349 . S
C2730 C2728 1.327 . S
C2730 C2749 1.429 . S
C2730 H2754 0.950 . S
C2731 C2748 1.574 . S
C2731 C2750 1.368 . S
C2731 H2755 0.949 . S
H2732 C2736 0.949 . S
C2733 C2734 1.349 . S
C2733 C2735 1.327 . S
C2733 H2756 0.950 . S
C2734 C2733 1.349 . S
C2734 C2746 1.349 . S
C2735 C2733 1.327 . S
C2735 C2751 1.429 . S
C2735 H2757 0.950 . S
C2736 H2732 0.949 . S
C2736 C2744 1.574 . S
C2736 C2752 1.368 . S
H2737 C2745 0.950 . S
H2738 C2743 0.950 . S
H2739 C2744 0.949 . S
H2740 C2746 0.950 . S
H2741 C2747 0.950 . S
H2742 C2748 0.949 . S
C2743 H2738 0.950 . S
C2743 C2745 1.327 . S
C2743 C2749 1.429 . S
C2744 C2736 1.574 . S
C2744 H2739 0.949 . S
C2744 C2750 1.368 . S
C2745 C2729 1.349 . S
C2745 H2737 0.950 . S
C2745 C2743 1.327 . S
C2746 C2734 1.349 . S
C2746 H2740 0.950 . S
C2746 C2747 1.327 . S
C2747 H2741 0.950 . S
C2747 C2746 1.327 . S
C2747 C2751 1.429 . S
C2748 C2731 1.574 . S
C2748 H2742 0.949 . S
C2748 C2752 1.368 . S
C2749 C2730 1.429 . S
C2749 C2743 1.429 . S
C2749 C2750 1.523 . S
C2750 C2731 1.368 . S
C2750 C2744 1.368 . S
C2750 C2749 1.523 . S
C2751 C2735 1.429 . S
C2751 C2747 1.429 . S
C2751 C2752 1.523 . S
C2752 C2736 1.368 . S
C2752 C2748 1.368 . S
C2752 C2751 1.523 . S
H2753 C2728 0.950 . S
H2754 C2730 0.950 . S
H2755 C2731 0.949 . S
H2756 C2733 0.950 . S
H2757 C2735 0.950 . S
C2758 C2759 1.349 . S
C2758 C2760 1.327 . S
C2758 H2783 0.950 . S
C2759 C2758 1.349 . S
C2759 C2775 1.349 . S
C2760 C2758 1.327 . S
C2760 C2779 1.429 . S
C2760 H2784 0.950 . S
C2761 C2778 1.574 . S
C2761 C2780 1.368 . S
C2761 H2785 0.949 . S
H2762 C2766 0.949 . S
C2763 C2764 1.349 . S
C2763 C2765 1.327 . S
C2763 H2786 0.950 . S
C2764 C2763 1.349 . S
C2764 C2776 1.349 . S
C2765 C2763 1.327 . S
C2765 C2781 1.429 . S
C2765 H2787 0.950 . S
C2766 H2762 0.949 . S
C2766 C2774 1.574 . S
C2766 C2782 1.368 . S
H2767 C2775 0.950 . S
H2768 C2773 0.950 . S
H2769 C2774 0.949 . S
H2770 C2776 0.950 . S
H2771 C2777 0.950 . S
H2772 C2778 0.949 . S
C2773 H2768 0.950 . S
C2773 C2775 1.327 . S
C2773 C2779 1.429 . S
C2774 C2766 1.574 . S
C2774 H2769 0.949 . S
C2774 C2780 1.368 . S
C2775 C2759 1.349 . S
C2775 H2767 0.950 . S
C2775 C2773 1.327 . S
C2776 C2764 1.349 . S
C2776 H2770 0.950 . S
C2776 C2777 1.327 . S
C2777 H2771 0.950 . S
C2777 C2776 1.327 . S
C2777 C2781 1.429 . S
C2778 C2761 1.574 . S
C2778 H2772 0.949 . S
C2778 C2782 1.368 . S
C2779 C2760 1.429 . S
C2779 C2773 1.429 . S
C2779 C2780 1.523 . S
C2780 C2761 1.368 . S
C2780 C2774 1.368 . S
C2780 C2779 1.523 . S
C2781 C2765 1.429 . S
C2781 C2777 1.429 . S
C2781 C2782 1.523 . S
C2782 C2766 1.368 . S
C2782 C2778 1.368 . S
C2782 C2781 1.523 . S
H2783 C2758 0.950 . S
H2784 C2760 0.950 . S
H2785 C2761 0.949 . S
H2786 C2763 0.950 . S
H2787 C2765 0.950 . S
C2788 C2789 1.349 . S
C2788 C2790 1.327 . S
C2788 H2813 0.950 . S
C2789 C2788 1.349 . S
C2789 C2805 1.349 . S
C2790 C2788 1.327 . S
C2790 C2809 1.429 . S
C2790 H2814 0.950 . S
C2791 C2808 1.574 . S
C2791 C2810 1.368 . S
C2791 H2815 0.949 . S
H2792 C2796 0.949 . S
C2793 C2794 1.349 . S
C2793 C2795 1.327 . S
C2793 H2816 0.950 . S
C2794 C2793 1.349 . S
C2794 C2806 1.349 . S
C2795 C2793 1.327 . S
C2795 C2811 1.429 . S
C2795 H2817 0.950 . S
C2796 H2792 0.949 . S
C2796 C2804 1.574 . S
C2796 C2812 1.368 . S
H2797 C2805 0.950 . S
H2798 C2803 0.950 . S
H2799 C2804 0.949 . S
H2800 C2806 0.950 . S
H2801 C2807 0.950 . S
H2802 C2808 0.949 . S
C2803 H2798 0.950 . S
C2803 C2805 1.327 . S
C2803 C2809 1.429 . S
C2804 C2796 1.574 . S
C2804 H2799 0.949 . S
C2804 C2810 1.368 . S
C2805 C2789 1.349 . S
C2805 H2797 0.950 . S
C2805 C2803 1.327 . S
C2806 C2794 1.349 . S
C2806 H2800 0.950 . S
C2806 C2807 1.327 . S
C2807 H2801 0.950 . S
C2807 C2806 1.327 . S
C2807 C2811 1.429 . S
C2808 C2791 1.574 . S
C2808 H2802 0.949 . S
C2808 C2812 1.368 . S
C2809 C2790 1.429 . S
C2809 C2803 1.429 . S
C2809 C2810 1.523 . S
C2810 C2791 1.368 . S
C2810 C2804 1.368 . S
C2810 C2809 1.523 . S
C2811 C2795 1.429 . S
C2811 C2807 1.429 . S
C2811 C2812 1.523 . S
C2812 C2796 1.368 . S
C2812 C2808 1.368 . S
C2812 C2811 1.523 . S
H2813 C2788 0.950 . S
H2814 C2790 0.950 . S
H2815 C2791 0.949 . S
H2816 C2793 0.950 . S
H2817 C2795 0.950 . S
C2818 C2819 1.349 . S
C2818 C2820 1.327 . S
C2818 H2843 0.950 . S
C2819 C2818 1.349 . S
C2819 C2835 1.349 . S
C2820 C2818 1.327 . S
C2820 C2839 1.429 . S
C2820 H2844 0.950 . S
C2821 C2838 1.574 . S
C2821 C2840 1.368 . S
C2821 H2845 0.949 . S
H2822 C2826 0.949 . S
C2823 C2824 1.349 . S
C2823 C2825 1.327 . S
C2823 H2846 0.950 . S
C2824 C2823 1.349 . S
C2824 C2836 1.349 . S
C2825 C2823 1.327 . S
C2825 C2841 1.429 . S
C2825 H2847 0.950 . S
C2826 H2822 0.949 . S
C2826 C2834 1.574 . S
C2826 C2842 1.368 . S
H2827 C2835 0.950 . S
H2828 C2833 0.950 . S
H2829 C2834 0.949 . S
H2830 C2836 0.950 . S
H2831 C2837 0.950 . S
H2832 C2838 0.949 . S
C2833 H2828 0.950 . S
C2833 C2835 1.327 . S
C2833 C2839 1.429 . S
C2834 C2826 1.574 . S
C2834 H2829 0.949 . S
C2834 C2840 1.368 . S
C2835 C2819 1.349 . S
C2835 H2827 0.950 . S
C2835 C2833 1.327 . S
C2836 C2824 1.349 . S
C2836 H2830 0.950 . S
C2836 C2837 1.327 . S
C2837 H2831 0.950 . S
C2837 C2836 1.327 . S
C2837 C2841 1.429 . S
C2838 C2821 1.574 . S
C2838 H2832 0.949 . S
C2838 C2842 1.368 . S
C2839 C2820 1.429 . S
C2839 C2833 1.429 . S
C2839 C2840 1.523 . S
C2840 C2821 1.368 . S
C2840 C2834 1.368 . S
C2840 C2839 1.523 . S
C2841 C2825 1.429 . S
C2841 C2837 1.429 . S
C2841 C2842 1.523 1_455 S
C2842 C2826 1.368 . S
C2842 C2838 1.368 . S
C2842 C2841 1.523 1_655 S
H2843 C2818 0.950 . S
H2844 C2820 0.950 . S
H2845 C2821 0.949 . S
H2846 C2823 0.950 . S
H2847 C2825 0.950 . S
C2848 C2849 1.349 . S
C2848 C2850 1.327 . S
C2848 H2873 0.950 . S
C2849 C2848 1.349 . S
C2849 C2865 1.349 . S
C2850 C2848 1.327 . S
C2850 C2869 1.429 . S
C2850 H2874 0.950 . S
C2851 C2868 1.574 . S
C2851 C2870 1.368 . S
C2851 H2875 0.949 . S
H2852 C2856 0.949 . S
C2853 C2854 1.349 . S
C2853 C2855 1.327 . S
C2853 H2876 0.950 . S
C2854 C2853 1.349 . S
C2854 C2866 1.349 . S
C2855 C2853 1.327 . S
C2855 C2871 1.429 . S
C2855 H2877 0.950 . S
C2856 H2852 0.949 . S
C2856 C2864 1.574 . S
C2856 C2872 1.368 . S
H2857 C2865 0.950 . S
H2858 C2863 0.950 . S
H2859 C2864 0.949 . S
H2860 C2866 0.950 . S
H2861 C2867 0.950 . S
H2862 C2868 0.949 . S
C2863 H2858 0.950 . S
C2863 C2865 1.327 . S
C2863 C2869 1.429 . S
C2864 C2856 1.574 . S
C2864 H2859 0.949 . S
C2864 C2870 1.368 . S
C2865 C2849 1.349 . S
C2865 H2857 0.950 . S
C2865 C2863 1.327 . S
C2866 C2854 1.349 . S
C2866 H2860 0.950 . S
C2866 C2867 1.327 . S
C2867 H2861 0.950 . S
C2867 C2866 1.327 . S
C2867 C2871 1.429 . S
C2868 C2851 1.574 . S
C2868 H2862 0.949 . S
C2868 C2872 1.368 . S
C2869 C2850 1.429 . S
C2869 C2863 1.429 . S
C2869 C2870 1.523 . S
C2870 C2851 1.368 . S
C2870 C2864 1.368 . S
C2870 C2869 1.523 . S
C2871 C2855 1.429 . S
C2871 C2867 1.429 . S
C2871 C2872 1.523 . S
C2872 C2856 1.368 . S
C2872 C2868 1.368 . S
C2872 C2871 1.523 . S
H2873 C2848 0.950 . S
H2874 C2850 0.950 . S
H2875 C2851 0.949 . S
H2876 C2853 0.950 . S
H2877 C2855 0.950 . S
C2878 C2879 1.349 . S
C2878 C2880 1.327 . S
C2878 H2903 0.950 . S
C2879 C2878 1.349 . S
C2879 C2895 1.349 . S
C2880 C2878 1.327 . S
C2880 C2899 1.429 . S
C2880 H2904 0.950 . S
C2881 C2898 1.574 . S
C2881 C2900 1.368 . S
C2881 H2905 0.949 . S
H2882 C2886 0.949 . S
C2883 C2884 1.349 . S
C2883 C2885 1.327 . S
C2883 H2906 0.950 . S
C2884 C2883 1.349 . S
C2884 C2896 1.349 . S
C2885 C2883 1.327 . S
C2885 C2901 1.429 . S
C2885 H2907 0.950 . S
C2886 H2882 0.949 . S
C2886 C2894 1.574 . S
C2886 C2902 1.368 . S
H2887 C2895 0.950 . S
H2888 C2893 0.950 . S
H2889 C2894 0.949 . S
H2890 C2896 0.950 . S
H2891 C2897 0.950 . S
H2892 C2898 0.949 . S
C2893 H2888 0.950 . S
C2893 C2895 1.327 . S
C2893 C2899 1.429 . S
C2894 C2886 1.574 . S
C2894 H2889 0.949 . S
C2894 C2900 1.368 . S
C2895 C2879 1.349 . S
C2895 H2887 0.950 . S
C2895 C2893 1.327 . S
C2896 C2884 1.349 . S
C2896 H2890 0.950 . S
C2896 C2897 1.327 . S
C2897 H2891 0.950 . S
C2897 C2896 1.327 . S
C2897 C2901 1.429 . S
C2898 C2881 1.574 . S
C2898 H2892 0.949 . S
C2898 C2902 1.368 . S
C2899 C2880 1.429 . S
C2899 C2893 1.429 . S
C2899 C2900 1.523 . S
C2900 C2881 1.368 . S
C2900 C2894 1.368 . S
C2900 C2899 1.523 . S
C2901 C2885 1.429 . S
C2901 C2897 1.429 . S
C2901 C2902 1.523 . S
C2902 C2886 1.368 . S
C2902 C2898 1.368 . S
C2902 C2901 1.523 . S
H2903 C2878 0.950 . S
H2904 C2880 0.950 . S
H2905 C2881 0.949 . S
H2906 C2883 0.950 . S
H2907 C2885 0.950 . S
C2908 C2909 1.349 . S
C2908 C2910 1.327 . S
C2908 H2933 0.950 . S
C2909 C2908 1.349 . S
C2909 C2925 1.349 . S
C2910 C2908 1.327 . S
C2910 C2929 1.429 . S
C2910 H2934 0.950 . S
C2911 C2928 1.574 . S
C2911 C2930 1.368 . S
C2911 H2935 0.949 . S
H2912 C2916 0.949 . S
C2913 C2914 1.349 . S
C2913 C2915 1.327 . S
C2913 H2936 0.950 . S
C2914 C2913 1.349 . S
C2914 C2926 1.349 . S
C2915 C2913 1.327 . S
C2915 C2931 1.429 . S
C2915 H2937 0.950 . S
C2916 H2912 0.949 . S
C2916 C2924 1.574 . S
C2916 C2932 1.368 . S
H2917 C2925 0.950 . S
H2918 C2923 0.950 . S
H2919 C2924 0.949 . S
H2920 C2926 0.950 . S
H2921 C2927 0.950 . S
H2922 C2928 0.949 . S
C2923 H2918 0.950 . S
C2923 C2925 1.327 . S
C2923 C2929 1.429 . S
C2924 C2916 1.574 . S
C2924 H2919 0.949 . S
C2924 C2930 1.368 . S
C2925 C2909 1.349 . S
C2925 H2917 0.950 . S
C2925 C2923 1.327 . S
C2926 C2914 1.349 . S
C2926 H2920 0.950 . S
C2926 C2927 1.327 . S
C2927 H2921 0.950 . S
C2927 C2926 1.327 . S
C2927 C2931 1.429 . S
C2928 C2911 1.574 . S
C2928 H2922 0.949 . S
C2928 C2932 1.368 . S
C2929 C2910 1.429 . S
C2929 C2923 1.429 . S
C2929 C2930 1.523 . S
C2930 C2911 1.368 . S
C2930 C2924 1.368 . S
C2930 C2929 1.523 . S
C2931 C2915 1.429 . S
C2931 C2927 1.429 . S
C2931 C2932 1.523 . S
C2932 C2916 1.368 . S
C2932 C2928 1.368 . S
C2932 C2931 1.523 . S
H2933 C2908 0.950 . S
H2934 C2910 0.950 . S
H2935 C2911 0.949 . S
H2936 C2913 0.950 . S
H2937 C2915 0.950 . S
C2938 C2939 1.349 . S
C2938 C2940 1.327 . S
C2938 H2963 0.950 . S
C2939 C2938 1.349 . S
C2939 C2955 1.349 . S
C2940 C2938 1.327 . S
C2940 C2959 1.429 . S
C2940 H2964 0.950 . S
C2941 C2958 1.574 . S
C2941 C2960 1.368 . S
C2941 H2965 0.949 . S
H2942 C2946 0.949 . S
C2943 C2944 1.349 . S
C2943 C2945 1.327 . S
C2943 H2966 0.950 . S
C2944 C2943 1.349 . S
C2944 C2956 1.349 . S
C2945 C2943 1.327 . S
C2945 C2961 1.429 . S
C2945 H2967 0.950 . S
C2946 H2942 0.949 . S
C2946 C2954 1.574 . S
C2946 C2962 1.368 . S
H2947 C2955 0.950 . S
H2948 C2953 0.950 . S
H2949 C2954 0.949 . S
H2950 C2956 0.950 . S
H2951 C2957 0.950 . S
H2952 C2958 0.949 . S
C2953 H2948 0.950 . S
C2953 C2955 1.327 . S
C2953 C2959 1.429 . S
C2954 C2946 1.574 . S
C2954 H2949 0.949 . S
C2954 C2960 1.368 . S
C2955 C2939 1.349 . S
C2955 H2947 0.950 . S
C2955 C2953 1.327 . S
C2956 C2944 1.349 . S
C2956 H2950 0.950 . S
C2956 C2957 1.327 . S
C2957 H2951 0.950 . S
C2957 C2956 1.327 . S
C2957 C2961 1.429 . S
C2958 C2941 1.574 . S
C2958 H2952 0.949 . S
C2958 C2962 1.368 . S
C2959 C2940 1.429 . S
C2959 C2953 1.429 . S
C2959 C2960 1.523 . S
C2960 C2941 1.368 . S
C2960 C2954 1.368 . S
C2960 C2959 1.523 . S
C2961 C2945 1.429 . S
C2961 C2957 1.429 . S
C2961 C2962 1.523 1_455 S
C2962 C2946 1.368 . S
C2962 C2958 1.368 . S
C2962 C2961 1.523 1_655 S
H2963 C2938 0.950 . S
H2964 C2940 0.950 . S
H2965 C2941 0.949 . S
H2966 C2943 0.950 . S
H2967 C2945 0.950 . S
C2968 C2969 1.349 . S
C2968 C2970 1.327 . S
C2968 H2993 0.950 . S
C2969 C2968 1.349 . S
C2969 C2985 1.349 . S
C2970 C2968 1.327 . S
C2970 C2989 1.429 . S
C2970 H2994 0.950 . S
C2971 C2988 1.574 . S
C2971 C2990 1.368 . S
C2971 H2995 0.949 . S
H2972 C2976 0.949 . S
C2973 C2974 1.349 . S
C2973 C2975 1.327 . S
C2973 H2996 0.950 . S
C2974 C2973 1.349 . S
C2974 C2986 1.349 . S
C2975 C2973 1.327 . S
C2975 C2991 1.429 . S
C2975 H2997 0.950 . S
C2976 H2972 0.949 . S
C2976 C2984 1.574 . S
C2976 C2992 1.368 . S
H2977 C2985 0.950 . S
H2978 C2983 0.950 . S
H2979 C2984 0.949 . S
H2980 C2986 0.950 . S
H2981 C2987 0.950 . S
H2982 C2988 0.949 . S
C2983 H2978 0.950 . S
C2983 C2985 1.327 . S
C2983 C2989 1.429 . S
C2984 C2976 1.574 . S
C2984 H2979 0.949 . S
C2984 C2990 1.368 . S
C2985 C2969 1.349 . S
C2985 H2977 0.950 . S
C2985 C2983 1.327 . S
C2986 C2974 1.349 . S
C2986 H2980 0.950 . S
C2986 C2987 1.327 . S
C2987 H2981 0.950 . S
C2987 C2986 1.327 . S
C2987 C2991 1.429 . S
C2988 C2971 1.574 . S
C2988 H2982 0.949 . S
C2988 C2992 1.368 . S
C2989 C2970 1.429 . S
C2989 C2983 1.429 . S
C2989 C2990 1.523 . S
C2990 C2971 1.368 . S
C2990 C2984 1.368 . S
C2990 C2989 1.523 . S
C2991 C2975 1.429 . S
C2991 C2987 1.429 . S
C2991 C2992 1.523 . S
C2992 C2976 1.368 . S
C2992 C2988 1.368 . S
C2992 C2991 1.523 . S
H2993 C2968 0.950 . S
H2994 C2970 0.950 . S
H2995 C2971 0.949 . S
H2996 C2973 0.950 . S
H2997 C2975 0.950 . S
C2998 C2999 1.349 . S
C2998 C3000 1.327 . S
C2998 H3023 0.950 . S
C2999 C2998 1.349 . S
C2999 C3015 1.349 . S
C3000 C2998 1.327 . S
C3000 C3019 1.429 . S
C3000 H3024 0.950 . S
C3001 C3018 1.574 . S
C3001 C3020 1.368 . S
C3001 H3025 0.949 . S
H3002 C3006 0.949 . S
C3003 C3004 1.349 . S
C3003 C3005 1.327 . S
C3003 H3026 0.950 . S
C3004 C3003 1.349 . S
C3004 C3016 1.349 . S
C3005 C3003 1.327 . S
C3005 C3021 1.429 . S
C3005 H3027 0.950 . S
C3006 H3002 0.949 . S
C3006 C3014 1.574 . S
C3006 C3022 1.368 . S
H3007 C3015 0.950 . S
H3008 C3013 0.950 . S
H3009 C3014 0.949 . S
H3010 C3016 0.950 . S
H3011 C3017 0.950 . S
H3012 C3018 0.949 . S
C3013 H3008 0.950 . S
C3013 C3015 1.327 . S
C3013 C3019 1.429 . S
C3014 C3006 1.574 . S
C3014 H3009 0.949 . S
C3014 C3020 1.368 . S
C3015 C2999 1.349 . S
C3015 H3007 0.950 . S
C3015 C3013 1.327 . S
C3016 C3004 1.349 . S
C3016 H3010 0.950 . S
C3016 C3017 1.327 . S
C3017 H3011 0.950 . S
C3017 C3016 1.327 . S
C3017 C3021 1.429 . S
C3018 C3001 1.574 . S
C3018 H3012 0.949 . S
C3018 C3022 1.368 . S
C3019 C3000 1.429 . S
C3019 C3013 1.429 . S
C3019 C3020 1.523 1_455 S
C3020 C3001 1.368 . S
C3020 C3014 1.368 . S
C3020 C3019 1.523 1_655 S
C3021 C3005 1.429 . S
C3021 C3017 1.429 . S
C3021 C3022 1.523 . S
C3022 C3006 1.368 . S
C3022 C3018 1.368 . S
C3022 C3021 1.523 . S
H3023 C2998 0.950 . S
H3024 C3000 0.950 . S
H3025 C3001 0.949 . S
H3026 C3003 0.950 . S
H3027 C3005 0.950 . S
C3028 C3029 1.349 . S
C3028 C3030 1.327 . S
C3028 H3053 0.950 . S
C3029 C3028 1.349 . S
C3029 C3045 1.349 . S
C3030 C3028 1.327 . S
C3030 C3049 1.429 . S
C3030 H3054 0.950 . S
C3031 C3048 1.574 . S
C3031 C3050 1.368 . S
C3031 H3055 0.949 . S
H3032 C3036 0.949 . S
C3033 C3034 1.349 . S
C3033 C3035 1.327 . S
C3033 H3056 0.950 . S
C3034 C3033 1.349 . S
C3034 C3046 1.349 . S
C3035 C3033 1.327 . S
C3035 C3051 1.429 . S
C3035 H3057 0.950 . S
C3036 H3032 0.949 . S
C3036 C3044 1.574 . S
C3036 C3052 1.368 . S
H3037 C3045 0.950 . S
H3038 C3043 0.950 . S
H3039 C3044 0.949 . S
H3040 C3046 0.950 . S
H3041 C3047 0.950 . S
H3042 C3048 0.949 . S
C3043 H3038 0.950 . S
C3043 C3045 1.327 . S
C3043 C3049 1.429 . S
C3044 C3036 1.574 . S
C3044 H3039 0.949 . S
C3044 C3050 1.368 . S
C3045 C3029 1.349 . S
C3045 H3037 0.950 . S
C3045 C3043 1.327 . S
C3046 C3034 1.349 . S
C3046 H3040 0.950 . S
C3046 C3047 1.327 . S
C3047 H3041 0.950 . S
C3047 C3046 1.327 . S
C3047 C3051 1.429 . S
C3048 C3031 1.574 . S
C3048 H3042 0.949 . S
C3048 C3052 1.368 . S
C3049 C3030 1.429 . S
C3049 C3043 1.429 . S
C3049 C3050 1.523 . S
C3050 C3031 1.368 . S
C3050 C3044 1.368 . S
C3050 C3049 1.523 . S
C3051 C3035 1.429 . S
C3051 C3047 1.429 . S
C3051 C3052 1.523 . S
C3052 C3036 1.368 . S
C3052 C3048 1.368 . S
C3052 C3051 1.523 . S
H3053 C3028 0.950 . S
H3054 C3030 0.950 . S
H3055 C3031 0.949 . S
H3056 C3033 0.950 . S
H3057 C3035 0.950 . S
C3058 C3059 1.349 . S
C3058 C3060 1.327 . S
C3058 H3083 0.950 . S
C3059 C3058 1.349 . S
C3059 C3075 1.349 . S
C3060 C3058 1.327 . S
C3060 C3079 1.429 . S
C3060 H3084 0.950 . S
C3061 C3078 1.574 . S
C3061 C3080 1.368 . S
C3061 H3085 0.949 . S
H3062 C3066 0.949 . S
C3063 C3064 1.349 . S
C3063 C3065 1.327 . S
C3063 H3086 0.950 . S
C3064 C3063 1.349 . S
C3064 C3076 1.349 . S
C3065 C3063 1.327 . S
C3065 C3081 1.429 . S
C3065 H3087 0.950 . S
C3066 H3062 0.949 . S
C3066 C3074 1.574 . S
C3066 C3082 1.368 . S
H3067 C3075 0.950 . S
H3068 C3073 0.950 . S
H3069 C3074 0.949 . S
H3070 C3076 0.950 . S
H3071 C3077 0.950 . S
H3072 C3078 0.949 . S
C3073 H3068 0.950 . S
C3073 C3075 1.327 . S
C3073 C3079 1.429 . S
C3074 C3066 1.574 . S
C3074 H3069 0.949 . S
C3074 C3080 1.368 . S
C3075 C3059 1.349 . S
C3075 H3067 0.950 . S
C3075 C3073 1.327 . S
C3076 C3064 1.349 . S
C3076 H3070 0.950 . S
C3076 C3077 1.327 . S
C3077 H3071 0.950 . S
C3077 C3076 1.327 . S
C3077 C3081 1.429 . S
C3078 C3061 1.574 . S
C3078 H3072 0.949 . S
C3078 C3082 1.368 . S
C3079 C3060 1.429 . S
C3079 C3073 1.429 . S
C3079 C3080 1.523 . S
C3080 C3061 1.368 . S
C3080 C3074 1.368 . S
C3080 C3079 1.523 . S
C3081 C3065 1.429 . S
C3081 C3077 1.429 . S
C3081 C3082 1.523 . S
C3082 C3066 1.368 . S
C3082 C3078 1.368 . S
C3082 C3081 1.523 . S
H3083 C3058 0.950 . S
H3084 C3060 0.950 . S
H3085 C3061 0.949 . S
H3086 C3063 0.950 . S
H3087 C3065 0.950 . S
C3088 C3089 1.349 . S
C3088 C3090 1.327 . S
C3088 H3113 0.950 . S
C3089 C3088 1.349 . S
C3089 C3105 1.349 . S
C3090 C3088 1.327 . S
C3090 C3109 1.429 . S
C3090 H3114 0.950 . S
C3091 C3108 1.574 . S
C3091 C3110 1.368 . S
C3091 H3115 0.949 . S
H3092 C3096 0.949 . S
C3093 C3094 1.349 . S
C3093 C3095 1.327 . S
C3093 H3116 0.950 . S
C3094 C3093 1.349 . S
C3094 C3106 1.349 . S
C3095 C3093 1.327 . S
C3095 C3111 1.429 . S
C3095 H3117 0.950 . S
C3096 H3092 0.949 . S
C3096 C3104 1.574 . S
C3096 C3112 1.368 . S
H3097 C3105 0.950 . S
H3098 C3103 0.950 . S
H3099 C3104 0.949 . S
H3100 C3106 0.950 . S
H3101 C3107 0.950 . S
H3102 C3108 0.949 . S
C3103 H3098 0.950 . S
C3103 C3105 1.327 . S
C3103 C3109 1.429 . S
C3104 C3096 1.574 . S
C3104 H3099 0.949 . S
C3104 C3110 1.368 . S
C3105 C3089 1.349 . S
C3105 H3097 0.950 . S
C3105 C3103 1.327 . S
C3106 C3094 1.349 . S
C3106 H3100 0.950 . S
C3106 C3107 1.327 . S
C3107 H3101 0.950 . S
C3107 C3106 1.327 . S
C3107 C3111 1.429 . S
C3108 C3091 1.574 . S
C3108 H3102 0.949 . S
C3108 C3112 1.368 . S
C3109 C3090 1.429 . S
C3109 C3103 1.429 . S
C3109 C3110 1.523 . S
C3110 C3091 1.368 . S
C3110 C3104 1.368 . S
C3110 C3109 1.523 . S
C3111 C3095 1.429 . S
C3111 C3107 1.429 . S
C3111 C3112 1.523 . S
C3112 C3096 1.368 . S
C3112 C3108 1.368 . S
C3112 C3111 1.523 . S
H3113 C3088 0.950 . S
H3114 C3090 0.950 . S
H3115 C3091 0.949 . S
H3116 C3093 0.950 . S
H3117 C3095 0.950 . S
C3118 C3119 1.349 . S
C3118 C3120 1.327 . S
C3118 H3143 0.950 . S
C3119 C3118 1.349 . S
C3119 C3135 1.349 . S
C3120 C3118 1.327 . S
C3120 C3139 1.429 . S
C3120 H3144 0.950 . S
C3121 C3138 1.574 . S
C3121 C3140 1.368 . S
C3121 H3145 0.949 . S
H3122 C3126 0.949 . S
C3123 C3124 1.349 . S
C3123 C3125 1.327 . S
C3123 H3146 0.950 . S
C3124 C3123 1.349 . S
C3124 C3136 1.349 . S
C3125 C3123 1.327 . S
C3125 C3141 1.429 . S
C3125 H3147 0.950 . S
C3126 H3122 0.949 . S
C3126 C3134 1.574 . S
C3126 C3142 1.368 . S
H3127 C3135 0.950 . S
H3128 C3133 0.950 . S
H3129 C3134 0.949 . S
H3130 C3136 0.950 . S
H3131 C3137 0.950 . S
H3132 C3138 0.949 . S
C3133 H3128 0.950 . S
C3133 C3135 1.327 . S
C3133 C3139 1.429 . S
C3134 C3126 1.574 . S
C3134 H3129 0.949 . S
C3134 C3140 1.368 . S
C3135 C3119 1.349 . S
C3135 H3127 0.950 . S
C3135 C3133 1.327 . S
C3136 C3124 1.349 . S
C3136 H3130 0.950 . S
C3136 C3137 1.327 . S
C3137 H3131 0.950 . S
C3137 C3136 1.327 . S
C3137 C3141 1.429 . S
C3138 C3121 1.574 . S
C3138 H3132 0.949 . S
C3138 C3142 1.368 . S
C3139 C3120 1.429 . S
C3139 C3133 1.429 . S
C3139 C3140 1.523 . S
C3140 C3121 1.368 . S
C3140 C3134 1.368 . S
C3140 C3139 1.523 . S
C3141 C3125 1.429 . S
C3141 C3137 1.429 . S
C3141 C3142 1.523 . S
C3142 C3126 1.368 . S
C3142 C3138 1.368 . S
C3142 C3141 1.523 . S
H3143 C3118 0.950 . S
H3144 C3120 0.950 . S
H3145 C3121 0.949 . S
H3146 C3123 0.950 . S
H3147 C3125 0.950 . S
C3148 C3149 1.349 . S
C3148 C3150 1.327 . S
C3148 H3173 0.950 . S
C3149 C3148 1.349 . S
C3149 C3165 1.349 . S
C3150 C3148 1.327 . S
C3150 C3169 1.429 . S
C3150 H3174 0.950 . S
C3151 C3168 1.574 . S
C3151 C3170 1.368 . S
C3151 H3175 0.949 . S
H3152 C3156 0.949 . S
C3153 C3154 1.349 . S
C3153 C3155 1.327 . S
C3153 H3176 0.950 . S
C3154 C3153 1.349 . S
C3154 C3166 1.349 . S
C3155 C3153 1.327 . S
C3155 C3171 1.429 . S
C3155 H3177 0.950 . S
C3156 H3152 0.949 . S
C3156 C3164 1.574 . S
C3156 C3172 1.368 . S
H3157 C3165 0.950 . S
H3158 C3163 0.950 . S
H3159 C3164 0.949 . S
H3160 C3166 0.950 . S
H3161 C3167 0.950 . S
H3162 C3168 0.949 . S
C3163 H3158 0.950 . S
C3163 C3165 1.327 . S
C3163 C3169 1.429 . S
C3164 C3156 1.574 . S
C3164 H3159 0.949 . S
C3164 C3170 1.368 . S
C3165 C3149 1.349 . S
C3165 H3157 0.950 . S
C3165 C3163 1.327 . S
C3166 C3154 1.349 . S
C3166 H3160 0.950 . S
C3166 C3167 1.327 . S
C3167 H3161 0.950 . S
C3167 C3166 1.327 . S
C3167 C3171 1.429 . S
C3168 C3151 1.574 . S
C3168 H3162 0.949 . S
C3168 C3172 1.368 . S
C3169 C3150 1.429 . S
C3169 C3163 1.429 . S
C3169 C3170 1.523 . S
C3170 C3151 1.368 . S
C3170 C3164 1.368 . S
C3170 C3169 1.523 . S
C3171 C3155 1.429 . S
C3171 C3167 1.429 . S
C3171 C3172 1.523 . S
C3172 C3156 1.368 . S
C3172 C3168 1.368 . S
C3172 C3171 1.523 . S
H3173 C3148 0.950 . S
H3174 C3150 0.950 . S
H3175 C3151 0.949 . S
H3176 C3153 0.950 . S
H3177 C3155 0.950 . S
C3178 C3179 1.349 . S
C3178 C3180 1.327 . S
C3178 H3203 0.950 . S
C3179 C3178 1.349 . S
C3179 C3195 1.349 . S
C3180 C3178 1.327 . S
C3180 C3199 1.429 . S
C3180 H3204 0.950 . S
C3181 C3198 1.574 . S
C3181 C3200 1.368 . S
C3181 H3205 0.949 . S
H3182 C3186 0.949 . S
C3183 C3184 1.349 . S
C3183 C3185 1.327 . S
C3183 H3206 0.950 . S
C3184 C3183 1.349 . S
C3184 C3196 1.349 . S
C3185 C3183 1.327 . S
C3185 C3201 1.429 . S
C3185 H3207 0.950 . S
C3186 H3182 0.949 . S
C3186 C3194 1.574 . S
C3186 C3202 1.368 . S
H3187 C3195 0.950 . S
H3188 C3193 0.950 . S
H3189 C3194 0.949 . S
H3190 C3196 0.950 . S
H3191 C3197 0.950 . S
H3192 C3198 0.949 . S
C3193 H3188 0.950 . S
C3193 C3195 1.327 . S
C3193 C3199 1.429 . S
C3194 C3186 1.574 . S
C3194 H3189 0.949 . S
C3194 C3200 1.368 . S
C3195 C3179 1.349 . S
C3195 H3187 0.950 . S
C3195 C3193 1.327 . S
C3196 C3184 1.349 . S
C3196 H3190 0.950 . S
C3196 C3197 1.327 . S
C3197 H3191 0.950 . S
C3197 C3196 1.327 . S
C3197 C3201 1.429 . S
C3198 C3181 1.574 . S
C3198 H3192 0.949 . S
C3198 C3202 1.368 . S
C3199 C3180 1.429 . S
C3199 C3193 1.429 . S
C3199 C3200 1.523 . S
C3200 C3181 1.368 . S
C3200 C3194 1.368 . S
C3200 C3199 1.523 . S
C3201 C3185 1.429 . S
C3201 C3197 1.429 . S
C3201 C3202 1.523 1_655 S
C3202 C3186 1.368 . S
C3202 C3198 1.368 . S
C3202 C3201 1.523 1_455 S
H3203 C3178 0.950 . S
H3204 C3180 0.950 . S
H3205 C3181 0.949 . S
H3206 C3183 0.950 . S
H3207 C3185 0.950 . S
C3208 C3209 1.349 . S
C3208 C3210 1.327 . S
C3208 H3233 0.950 . S
C3209 C3208 1.349 . S
C3209 C3225 1.349 . S
C3210 C3208 1.327 . S
C3210 C3229 1.429 . S
C3210 H3234 0.950 . S
C3211 C3228 1.574 . S
C3211 C3230 1.368 . S
C3211 H3235 0.949 . S
H3212 C3216 0.949 . S
C3213 C3214 1.349 . S
C3213 C3215 1.327 . S
C3213 H3236 0.950 . S
C3214 C3213 1.349 . S
C3214 C3226 1.349 . S
C3215 C3213 1.327 . S
C3215 C3231 1.429 . S
C3215 H3237 0.950 . S
C3216 H3212 0.949 . S
C3216 C3224 1.574 . S
C3216 C3232 1.368 . S
H3217 C3225 0.950 . S
H3218 C3223 0.950 . S
H3219 C3224 0.949 . S
H3220 C3226 0.950 . S
H3221 C3227 0.950 . S
H3222 C3228 0.949 . S
C3223 H3218 0.950 . S
C3223 C3225 1.327 . S
C3223 C3229 1.429 . S
C3224 C3216 1.574 . S
C3224 H3219 0.949 . S
C3224 C3230 1.368 . S
C3225 C3209 1.349 . S
C3225 H3217 0.950 . S
C3225 C3223 1.327 . S
C3226 C3214 1.349 . S
C3226 H3220 0.950 . S
C3226 C3227 1.327 . S
C3227 H3221 0.950 . S
C3227 C3226 1.327 . S
C3227 C3231 1.429 . S
C3228 C3211 1.574 . S
C3228 H3222 0.949 . S
C3228 C3232 1.368 . S
C3229 C3210 1.429 . S
C3229 C3223 1.429 . S
C3229 C3230 1.523 . S
C3230 C3211 1.368 . S
C3230 C3224 1.368 . S
C3230 C3229 1.523 . S
C3231 C3215 1.429 . S
C3231 C3227 1.429 . S
C3231 C3232 1.523 . S
C3232 C3216 1.368 . S
C3232 C3228 1.368 . S
C3232 C3231 1.523 . S
H3233 C3208 0.950 . S
H3234 C3210 0.950 . S
H3235 C3211 0.949 . S
H3236 C3213 0.950 . S
H3237 C3215 0.950 . S
C3238 C3239 1.349 . S
C3238 C3240 1.327 . S
C3238 H3263 0.950 . S
C3239 C3238 1.349 . S
C3239 C3255 1.349 . S
C3240 C3238 1.327 . S
C3240 C3259 1.429 . S
C3240 H3264 0.950 . S
C3241 C3258 1.574 . S
C3241 C3260 1.368 . S
C3241 H3265 0.949 . S
H3242 C3246 0.949 . S
C3243 C3244 1.349 . S
C3243 C3245 1.327 . S
C3243 H3266 0.950 . S
C3244 C3243 1.349 . S
C3244 C3256 1.349 . S
C3245 C3243 1.327 . S
C3245 C3261 1.429 . S
C3245 H3267 0.950 . S
C3246 H3242 0.949 . S
C3246 C3254 1.574 . S
C3246 C3262 1.368 . S
H3247 C3255 0.950 . S
H3248 C3253 0.950 . S
H3249 C3254 0.949 . S
H3250 C3256 0.950 . S
H3251 C3257 0.950 . S
H3252 C3258 0.949 . S
C3253 H3248 0.950 . S
C3253 C3255 1.327 . S
C3253 C3259 1.429 . S
C3254 C3246 1.574 . S
C3254 H3249 0.949 . S
C3254 C3260 1.368 . S
C3255 C3239 1.349 . S
C3255 H3247 0.950 . S
C3255 C3253 1.327 . S
C3256 C3244 1.349 . S
C3256 H3250 0.950 . S
C3256 C3257 1.327 . S
C3257 H3251 0.950 . S
C3257 C3256 1.327 . S
C3257 C3261 1.429 . S
C3258 C3241 1.574 . S
C3258 H3252 0.949 . S
C3258 C3262 1.368 . S
C3259 C3240 1.429 . S
C3259 C3253 1.429 . S
C3259 C3260 1.523 1_655 S
C3260 C3241 1.368 . S
C3260 C3254 1.368 . S
C3260 C3259 1.523 1_455 S
C3261 C3245 1.429 . S
C3261 C3257 1.429 . S
C3261 C3262 1.523 . S
C3262 C3246 1.368 . S
C3262 C3258 1.368 . S
C3262 C3261 1.523 . S
H3263 C3238 0.950 . S
H3264 C3240 0.950 . S
H3265 C3241 0.949 . S
H3266 C3243 0.950 . S
H3267 C3245 0.950 . S
C3268 C3269 1.349 . S
C3268 C3270 1.327 . S
C3268 H3293 0.950 . S
C3269 C3268 1.349 . S
C3269 C3285 1.349 . S
C3270 C3268 1.327 . S
C3270 C3289 1.429 . S
C3270 H3294 0.950 . S
C3271 C3288 1.574 . S
C3271 C3290 1.368 . S
C3271 H3295 0.949 . S
H3272 C3276 0.949 . S
C3273 C3274 1.349 . S
C3273 C3275 1.327 . S
C3273 H3296 0.950 . S
C3274 C3273 1.349 . S
C3274 C3286 1.349 . S
C3275 C3273 1.327 . S
C3275 C3291 1.429 . S
C3275 H3297 0.950 . S
C3276 H3272 0.949 . S
C3276 C3284 1.574 . S
C3276 C3292 1.368 . S
H3277 C3285 0.950 . S
H3278 C3283 0.950 . S
H3279 C3284 0.949 . S
H3280 C3286 0.950 . S
H3281 C3287 0.950 . S
H3282 C3288 0.949 . S
C3283 H3278 0.950 . S
C3283 C3285 1.327 . S
C3283 C3289 1.429 . S
C3284 C3276 1.574 . S
C3284 H3279 0.949 . S
C3284 C3290 1.368 . S
C3285 C3269 1.349 . S
C3285 H3277 0.950 . S
C3285 C3283 1.327 . S
C3286 C3274 1.349 . S
C3286 H3280 0.950 . S
C3286 C3287 1.327 . S
C3287 H3281 0.950 . S
C3287 C3286 1.327 . S
C3287 C3291 1.429 . S
C3288 C3271 1.574 . S
C3288 H3282 0.949 . S
C3288 C3292 1.368 . S
C3289 C3270 1.429 . S
C3289 C3283 1.429 . S
C3289 C3290 1.523 . S
C3290 C3271 1.368 . S
C3290 C3284 1.368 . S
C3290 C3289 1.523 . S
C3291 C3275 1.429 . S
C3291 C3287 1.429 . S
C3291 C3292 1.523 . S
C3292 C3276 1.368 . S
C3292 C3288 1.368 . S
C3292 C3291 1.523 . S
H3293 C3268 0.950 . S
H3294 C3270 0.950 . S
H3295 C3271 0.949 . S
H3296 C3273 0.950 . S
H3297 C3275 0.950 . S
C3298 C3299 1.349 . S
C3298 C3300 1.327 . S
C3298 H3323 0.950 . S
C3299 C3298 1.349 . S
C3299 C3315 1.349 . S
C3300 C3298 1.327 . S
C3300 C3319 1.429 . S
C3300 H3324 0.950 . S
C3301 C3318 1.574 . S
C3301 C3320 1.368 . S
C3301 H3325 0.949 . S
H3302 C3306 0.949 . S
C3303 C3304 1.349 . S
C3303 C3305 1.327 . S
C3303 H3326 0.950 . S
C3304 C3303 1.349 . S
C3304 C3316 1.349 . S
C3305 C3303 1.327 . S
C3305 C3321 1.429 . S
C3305 H3327 0.950 . S
C3306 H3302 0.949 . S
C3306 C3314 1.574 . S
C3306 C3322 1.368 . S
H3307 C3315 0.950 . S
H3308 C3313 0.950 . S
H3309 C3314 0.949 . S
H3310 C3316 0.950 . S
H3311 C3317 0.950 . S
H3312 C3318 0.949 . S
C3313 H3308 0.950 . S
C3313 C3315 1.327 . S
C3313 C3319 1.429 . S
C3314 C3306 1.574 . S
C3314 H3309 0.949 . S
C3314 C3320 1.368 . S
C3315 C3299 1.349 . S
C3315 H3307 0.950 . S
C3315 C3313 1.327 . S
C3316 C3304 1.349 . S
C3316 H3310 0.950 . S
C3316 C3317 1.327 . S
C3317 H3311 0.950 . S
C3317 C3316 1.327 . S
C3317 C3321 1.429 . S
C3318 C3301 1.574 . S
C3318 H3312 0.949 . S
C3318 C3322 1.368 . S
C3319 C3300 1.429 . S
C3319 C3313 1.429 . S
C3319 C3320 1.523 . S
C3320 C3301 1.368 . S
C3320 C3314 1.368 . S
C3320 C3319 1.523 . S
C3321 C3305 1.429 . S
C3321 C3317 1.429 . S
C3321 C3322 1.523 . S
C3322 C3306 1.368 . S
C3322 C3318 1.368 . S
C3322 C3321 1.523 . S
H3323 C3298 0.950 . S
H3324 C3300 0.950 . S
H3325 C3301 0.949 . S
H3326 C3303 0.950 . S
H3327 C3305 0.950 . S
C3328 C3329 1.349 . S
C3328 C3330 1.327 . S
C3328 H3353 0.950 . S
C3329 C3328 1.349 . S
C3329 C3345 1.349 . S
C3330 C3328 1.327 . S
C3330 C3349 1.429 . S
C3330 H3354 0.950 . S
C3331 C3348 1.574 . S
C3331 C3350 1.368 . S
C3331 H3355 0.949 . S
H3332 C3336 0.949 . S
C3333 C3334 1.349 . S
C3333 C3335 1.327 . S
C3333 H3356 0.950 . S
C3334 C3333 1.349 . S
C3334 C3346 1.349 . S
C3335 C3333 1.327 . S
C3335 C3351 1.429 . S
C3335 H3357 0.950 . S
C3336 H3332 0.949 . S
C3336 C3344 1.574 . S
C3336 C3352 1.368 . S
H3337 C3345 0.950 . S
H3338 C3343 0.950 . S
H3339 C3344 0.949 . S
H3340 C3346 0.950 . S
H3341 C3347 0.950 . S
H3342 C3348 0.949 . S
C3343 H3338 0.950 . S
C3343 C3345 1.327 . S
C3343 C3349 1.429 . S
C3344 C3336 1.574 . S
C3344 H3339 0.949 . S
C3344 C3350 1.368 . S
C3345 C3329 1.349 . S
C3345 H3337 0.950 . S
C3345 C3343 1.327 . S
C3346 C3334 1.349 . S
C3346 H3340 0.950 . S
C3346 C3347 1.327 . S
C3347 H3341 0.950 . S
C3347 C3346 1.327 . S
C3347 C3351 1.429 . S
C3348 C3331 1.574 . S
C3348 H3342 0.949 . S
C3348 C3352 1.368 . S
C3349 C3330 1.429 . S
C3349 C3343 1.429 . S
C3349 C3350 1.523 . S
C3350 C3331 1.368 . S
C3350 C3344 1.368 . S
C3350 C3349 1.523 . S
C3351 C3335 1.429 . S
C3351 C3347 1.429 . S
C3351 C3352 1.523 . S
C3352 C3336 1.368 . S
C3352 C3348 1.368 . S
C3352 C3351 1.523 . S
H3353 C3328 0.950 . S
H3354 C3330 0.950 . S
H3355 C3331 0.949 . S
H3356 C3333 0.950 . S
H3357 C3335 0.950 . S
C3358 C3359 1.349 . S
C3358 C3360 1.327 . S
C3358 H3383 0.950 . S
C3359 C3358 1.349 . S
C3359 C3375 1.349 . S
C3360 C3358 1.327 . S
C3360 C3379 1.429 . S
C3360 H3384 0.950 . S
C3361 C3378 1.574 . S
C3361 C3380 1.368 . S
C3361 H3385 0.949 . S
H3362 C3366 0.949 . S
C3363 C3364 1.349 1_556 S
C3363 C3365 1.327 . S
C3363 H3386 0.950 1_556 S
C3364 C3363 1.349 1_554 S
C3364 C3376 1.349 . S
C3365 C3363 1.327 . S
C3365 C3381 1.429 . S
C3365 H3387 0.950 . S
C3366 H3362 0.949 . S
C3366 C3374 1.574 . S
C3366 C3382 1.368 . S
H3367 C3375 0.950 . S
H3368 C3373 0.950 . S
H3369 C3374 0.949 . S
H3370 C3376 0.950 . S
H3371 C3377 0.950 . S
H3372 C3378 0.949 . S
C3373 H3368 0.950 . S
C3373 C3375 1.327 . S
C3373 C3379 1.429 . S
C3374 C3366 1.574 . S
C3374 H3369 0.949 . S
C3374 C3380 1.368 . S
C3375 C3359 1.349 . S
C3375 H3367 0.950 . S
C3375 C3373 1.327 . S
C3376 C3364 1.349 . S
C3376 H3370 0.950 . S
C3376 C3377 1.327 1_554 S
C3377 H3371 0.950 . S
C3377 C3376 1.327 1_556 S
C3377 C3381 1.429 . S
C3378 C3361 1.574 . S
C3378 H3372 0.949 . S
C3378 C3382 1.368 . S
C3379 C3360 1.429 . S
C3379 C3373 1.429 . S
C3379 C3380 1.523 . S
C3380 C3361 1.368 . S
C3380 C3374 1.368 . S
C3380 C3379 1.523 . S
C3381 C3365 1.429 . S
C3381 C3377 1.429 . S
C3381 C3382 1.523 . S
C3382 C3366 1.368 . S
C3382 C3378 1.368 . S
C3382 C3381 1.523 . S
H3383 C3358 0.950 . S
H3384 C3360 0.950 . S
H3385 C3361 0.949 . S
H3386 C3363 0.950 1_554 S
H3387 C3365 0.950 . S
C3388 C3389 1.349 . S
C3388 C3390 1.327 1_556 S
C3388 H3413 0.950 . S
C3389 C3388 1.349 . S
C3389 C3405 1.349 . S
C3390 C3388 1.327 1_554 S
C3390 C3409 1.429 . S
C3390 H3414 0.950 . S
C3391 C3408 1.574 . S
C3391 C3410 1.368 . S
C3391 H3415 0.949 . S
H3392 C3396 0.949 . S
C3393 C3394 1.349 . S
C3393 C3395 1.327 . S
C3393 H3416 0.950 . S
C3394 C3393 1.349 . S
C3394 C3406 1.349 . S
C3395 C3393 1.327 . S
C3395 C3411 1.429 . S
C3395 H3417 0.950 . S
C3396 H3392 0.949 . S
C3396 C3404 1.574 . S
C3396 C3412 1.368 . S
H3397 C3405 0.950 . S
H3398 C3403 0.950 . S
H3399 C3404 0.949 . S
H3400 C3406 0.950 . S
H3401 C3407 0.950 . S
H3402 C3408 0.949 . S
C3403 H3398 0.950 . S
C3403 C3405 1.327 1_554 S
C3403 C3409 1.429 . S
C3404 C3396 1.574 . S
C3404 H3399 0.949 . S
C3404 C3410 1.368 . S
C3405 C3389 1.349 . S
C3405 H3397 0.950 . S
C3405 C3403 1.327 1_556 S
C3406 C3394 1.349 . S
C3406 H3400 0.950 . S
C3406 C3407 1.327 . S
C3407 H3401 0.950 . S
C3407 C3406 1.327 . S
C3407 C3411 1.429 . S
C3408 C3391 1.574 . S
C3408 H3402 0.949 . S
C3408 C3412 1.368 . S
C3409 C3390 1.429 . S
C3409 C3403 1.429 . S
C3409 C3410 1.523 . S
C3410 C3391 1.368 . S
C3410 C3404 1.368 . S
C3410 C3409 1.523 . S
C3411 C3395 1.429 . S
C3411 C3407 1.429 . S
C3411 C3412 1.523 . S
C3412 C3396 1.368 . S
C3412 C3408 1.368 . S
C3412 C3411 1.523 . S
H3413 C3388 0.950 . S
H3414 C3390 0.950 . S
H3415 C3391 0.949 . S
H3416 C3393 0.950 . S
H3417 C3395 0.950 . S
C3418 C3419 1.349 . S
C3418 C3420 1.327 . S
C3418 H3443 0.950 . S
C3419 C3418 1.349 . S
C3419 C3435 1.349 . S
C3420 C3418 1.327 . S
C3420 C3439 1.429 . S
C3420 H3444 0.950 . S
C3421 C3438 1.574 . S
C3421 C3440 1.368 . S
C3421 H3445 0.949 . S
H3422 C3426 0.949 . S
C3423 C3424 1.349 . S
C3423 C3425 1.327 . S
C3423 H3446 0.950 . S
C3424 C3423 1.349 . S
C3424 C3436 1.349 . S
C3425 C3423 1.327 . S
C3425 C3441 1.429 . S
C3425 H3447 0.950 . S
C3426 H3422 0.949 . S
C3426 C3434 1.574 . S
C3426 C3442 1.368 . S
H3427 C3435 0.950 . S
H3428 C3433 0.950 . S
H3429 C3434 0.949 . S
H3430 C3436 0.950 . S
H3431 C3437 0.950 . S
H3432 C3438 0.949 . S
C3433 H3428 0.950 . S
C3433 C3435 1.327 . S
C3433 C3439 1.429 . S
C3434 C3426 1.574 . S
C3434 H3429 0.949 . S
C3434 C3440 1.368 . S
C3435 C3419 1.349 . S
C3435 H3427 0.950 . S
C3435 C3433 1.327 . S
C3436 C3424 1.349 . S
C3436 H3430 0.950 . S
C3436 C3437 1.327 . S
C3437 H3431 0.950 . S
C3437 C3436 1.327 . S
C3437 C3441 1.429 . S
C3438 C3421 1.574 . S
C3438 H3432 0.949 . S
C3438 C3442 1.368 . S
C3439 C3420 1.429 . S
C3439 C3433 1.429 . S
C3439 C3440 1.523 . S
C3440 C3421 1.368 . S
C3440 C3434 1.368 . S
C3440 C3439 1.523 . S
C3441 C3425 1.429 . S
C3441 C3437 1.429 . S
C3441 C3442 1.523 . S
C3442 C3426 1.368 . S
C3442 C3438 1.368 . S
C3442 C3441 1.523 . S
H3443 C3418 0.950 . S
H3444 C3420 0.950 . S
H3445 C3421 0.949 . S
H3446 C3423 0.950 . S
H3447 C3425 0.950 . S
C3448 C3449 1.349 . S
C3448 C3450 1.327 . S
C3448 H3473 0.950 . S
C3449 C3448 1.349 . S
C3449 C3465 1.349 . S
C3450 C3448 1.327 . S
C3450 C3469 1.429 . S
C3450 H3474 0.950 . S
C3451 C3468 1.574 . S
C3451 C3470 1.368 . S
C3451 H3475 0.949 . S
H3452 C3456 0.949 . S
C3453 C3454 1.349 . S
C3453 C3455 1.327 . S
C3453 H3476 0.950 . S
C3454 C3453 1.349 . S
C3454 C3466 1.349 . S
C3455 C3453 1.327 . S
C3455 C3471 1.429 . S
C3455 H3477 0.950 . S
C3456 H3452 0.949 . S
C3456 C3464 1.574 . S
C3456 C3472 1.368 . S
H3457 C3465 0.950 . S
H3458 C3463 0.950 . S
H3459 C3464 0.949 . S
H3460 C3466 0.950 . S
H3461 C3467 0.950 . S
H3462 C3468 0.949 . S
C3463 H3458 0.950 . S
C3463 C3465 1.327 . S
C3463 C3469 1.429 . S
C3464 C3456 1.574 . S
C3464 H3459 0.949 . S
C3464 C3470 1.368 . S
C3465 C3449 1.349 . S
C3465 H3457 0.950 . S
C3465 C3463 1.327 . S
C3466 C3454 1.349 . S
C3466 H3460 0.950 . S
C3466 C3467 1.327 . S
C3467 H3461 0.950 . S
C3467 C3466 1.327 . S
C3467 C3471 1.429 . S
C3468 C3451 1.574 . S
C3468 H3462 0.949 . S
C3468 C3472 1.368 . S
C3469 C3450 1.429 . S
C3469 C3463 1.429 . S
C3469 C3470 1.523 . S
C3470 C3451 1.368 . S
C3470 C3464 1.368 . S
C3470 C3469 1.523 . S
C3471 C3455 1.429 . S
C3471 C3467 1.429 . S
C3471 C3472 1.523 . S
C3472 C3456 1.368 . S
C3472 C3468 1.368 . S
C3472 C3471 1.523 . S
H3473 C3448 0.950 . S
H3474 C3450 0.950 . S
H3475 C3451 0.949 . S
H3476 C3453 0.950 . S
H3477 C3455 0.950 . S
C3478 C3479 1.349 1_554 S
C3478 C3480 1.327 . S
C3478 H3503 0.950 1_554 S
C3479 C3478 1.349 1_556 S
C3479 C3495 1.349 . S
C3480 C3478 1.327 . S
C3480 C3499 1.429 . S
C3480 H3504 0.950 . S
C3481 C3498 1.574 . S
C3481 C3500 1.368 . S
C3481 H3505 0.949 . S
H3482 C3486 0.949 . S
C3483 C3484 1.349 . S
C3483 C3485 1.327 . S
C3483 H3506 0.950 . S
C3484 C3483 1.349 . S
C3484 C3496 1.349 . S
C3485 C3483 1.327 . S
C3485 C3501 1.429 . S
C3485 H3507 0.950 . S
C3486 H3482 0.949 . S
C3486 C3494 1.574 . S
C3486 C3502 1.368 . S
H3487 C3495 0.950 . S
H3488 C3493 0.950 . S
H3489 C3494 0.949 . S
H3490 C3496 0.950 . S
H3491 C3497 0.950 . S
H3492 C3498 0.949 . S
C3493 H3488 0.950 . S
C3493 C3495 1.327 1_554 S
C3493 C3499 1.429 . S
C3494 C3486 1.574 . S
C3494 H3489 0.949 . S
C3494 C3500 1.368 . S
C3495 C3479 1.349 . S
C3495 H3487 0.950 . S
C3495 C3493 1.327 1_556 S
C3496 C3484 1.349 . S
C3496 H3490 0.950 . S
C3496 C3497 1.327 . S
C3497 H3491 0.950 . S
C3497 C3496 1.327 . S
C3497 C3501 1.429 . S
C3498 C3481 1.574 . S
C3498 H3492 0.949 . S
C3498 C3502 1.368 . S
C3499 C3480 1.429 . S
C3499 C3493 1.429 . S
C3499 C3500 1.523 . S
C3500 C3481 1.368 . S
C3500 C3494 1.368 . S
C3500 C3499 1.523 . S
C3501 C3485 1.429 . S
C3501 C3497 1.429 . S
C3501 C3502 1.523 . S
C3502 C3486 1.368 . S
C3502 C3498 1.368 . S
C3502 C3501 1.523 . S
H3503 C3478 0.950 1_556 S
H3504 C3480 0.950 . S
H3505 C3481 0.949 . S
H3506 C3483 0.950 . S
H3507 C3485 0.950 . S
C3508 C3509 1.349 . S
C3508 C3510 1.327 . S
C3508 H3533 0.950 . S
C3509 C3508 1.349 . S
C3509 C3525 1.349 . S
C3510 C3508 1.327 . S
C3510 C3529 1.429 . S
C3510 H3534 0.950 . S
C3511 C3528 1.574 . S
C3511 C3530 1.368 . S
C3511 H3535 0.949 . S
H3512 C3516 0.949 . S
C3513 C3514 1.349 . S
C3513 C3515 1.327 1_554 S
C3513 H3536 0.950 . S
C3514 C3513 1.349 . S
C3514 C3526 1.349 . S
C3515 C3513 1.327 1_556 S
C3515 C3531 1.429 . S
C3515 H3537 0.950 . S
C3516 H3512 0.949 . S
C3516 C3524 1.574 . S
C3516 C3532 1.368 . S
H3517 C3525 0.950 . S
H3518 C3523 0.950 . S
H3519 C3524 0.949 . S
H3520 C3526 0.950 . S
H3521 C3527 0.950 . S
H3522 C3528 0.949 . S
C3523 H3518 0.950 . S
C3523 C3525 1.327 . S
C3523 C3529 1.429 . S
C3524 C3516 1.574 . S
C3524 H3519 0.949 . S
C3524 C3530 1.368 . S
C3525 C3509 1.349 . S
C3525 H3517 0.950 . S
C3525 C3523 1.327 . S
C3526 C3514 1.349 . S
C3526 H3520 0.950 . S
C3526 C3527 1.327 1_554 S
C3527 H3521 0.950 . S
C3527 C3526 1.327 1_556 S
C3527 C3531 1.429 . S
C3528 C3511 1.574 . S
C3528 H3522 0.949 . S
C3528 C3532 1.368 . S
C3529 C3510 1.429 . S
C3529 C3523 1.429 . S
C3529 C3530 1.523 . S
C3530 C3511 1.368 . S
C3530 C3524 1.368 . S
C3530 C3529 1.523 . S
C3531 C3515 1.429 . S
C3531 C3527 1.429 . S
C3531 C3532 1.523 . S
C3532 C3516 1.368 . S
C3532 C3528 1.368 . S
C3532 C3531 1.523 . S
H3533 C3508 0.950 . S
H3534 C3510 0.950 . S
H3535 C3511 0.949 . S
H3536 C3513 0.950 . S
H3537 C3515 0.950 . S
C3538 C3539 1.349 . S
C3538 C3540 1.327 . S
C3538 H3563 0.950 . S
C3539 C3538 1.349 . S
C3539 C3555 1.349 . S
C3540 C3538 1.327 . S
C3540 C3559 1.429 . S
C3540 H3564 0.950 . S
C3541 C3558 1.574 . S
C3541 C3560 1.368 . S
C3541 H3565 0.949 . S
H3542 C3546 0.949 . S
C3543 C3544 1.349 . S
C3543 C3545 1.327 . S
C3543 H3566 0.950 . S
C3544 C3543 1.349 . S
C3544 C3556 1.349 . S
C3545 C3543 1.327 . S
C3545 C3561 1.429 . S
C3545 H3567 0.950 . S
C3546 H3542 0.949 . S
C3546 C3554 1.574 . S
C3546 C3562 1.368 . S
H3547 C3555 0.950 . S
H3548 C3553 0.950 . S
H3549 C3554 0.949 . S
H3550 C3556 0.950 . S
H3551 C3557 0.950 . S
H3552 C3558 0.949 . S
C3553 H3548 0.950 . S
C3553 C3555 1.327 . S
C3553 C3559 1.429 . S
C3554 C3546 1.574 . S
C3554 H3549 0.949 . S
C3554 C3560 1.368 . S
C3555 C3539 1.349 . S
C3555 H3547 0.950 . S
C3555 C3553 1.327 . S
C3556 C3544 1.349 . S
C3556 H3550 0.950 . S
C3556 C3557 1.327 . S
C3557 H3551 0.950 . S
C3557 C3556 1.327 . S
C3557 C3561 1.429 . S
C3558 C3541 1.574 . S
C3558 H3552 0.949 . S
C3558 C3562 1.368 . S
C3559 C3540 1.429 . S
C3559 C3553 1.429 . S
C3559 C3560 1.523 . S
C3560 C3541 1.368 . S
C3560 C3554 1.368 . S
C3560 C3559 1.523 . S
C3561 C3545 1.429 . S
C3561 C3557 1.429 . S
C3561 C3562 1.523 . S
C3562 C3546 1.368 . S
C3562 C3558 1.368 . S
C3562 C3561 1.523 . S
H3563 C3538 0.950 . S
H3564 C3540 0.950 . S
H3565 C3541 0.949 . S
H3566 C3543 0.950 . S
H3567 C3545 0.950 . S
C3568 C3569 1.349 . S
C3568 C3570 1.327 1_556 S
C3568 H3593 0.950 . S
C3569 C3568 1.349 . S
C3569 C3585 1.349 . S
C3570 C3568 1.327 1_554 S
C3570 C3589 1.429 . S
C3570 H3594 0.950 . S
C3571 C3588 1.574 . S
C3571 C3590 1.368 . S
C3571 H3595 0.949 . S
H3572 C3576 0.949 . S
C3573 C3574 1.349 . S
C3573 C3575 1.327 . S
C3573 H3596 0.950 . S
C3574 C3573 1.349 . S
C3574 C3586 1.349 . S
C3575 C3573 1.327 . S
C3575 C3591 1.429 . S
C3575 H3597 0.950 . S
C3576 H3572 0.949 . S
C3576 C3584 1.574 . S
C3576 C3592 1.368 . S
H3577 C3585 0.950 . S
H3578 C3583 0.950 . S
H3579 C3584 0.949 . S
H3580 C3586 0.950 . S
H3581 C3587 0.950 . S
H3582 C3588 0.949 . S
C3583 H3578 0.950 . S
C3583 C3585 1.327 1_554 S
C3583 C3589 1.429 . S
C3584 C3576 1.574 . S
C3584 H3579 0.949 . S
C3584 C3590 1.368 . S
C3585 C3569 1.349 . S
C3585 H3577 0.950 . S
C3585 C3583 1.327 1_556 S
C3586 C3574 1.349 . S
C3586 H3580 0.950 . S
C3586 C3587 1.327 . S
C3587 H3581 0.950 . S
C3587 C3586 1.327 . S
C3587 C3591 1.429 . S
C3588 C3571 1.574 . S
C3588 H3582 0.949 . S
C3588 C3592 1.368 . S
C3589 C3570 1.429 . S
C3589 C3583 1.429 . S
C3589 C3590 1.523 . S
C3590 C3571 1.368 . S
C3590 C3584 1.368 . S
C3590 C3589 1.523 . S
C3591 C3575 1.429 . S
C3591 C3587 1.429 . S
C3591 C3592 1.523 . S
C3592 C3576 1.368 . S
C3592 C3588 1.368 . S
C3592 C3591 1.523 . S
H3593 C3568 0.950 . S
H3594 C3570 0.950 . S
H3595 C3571 0.949 . S
H3596 C3573 0.950 . S
H3597 C3575 0.950 . S
C3598 C3599 1.349 . S
C3598 C3600 1.327 . S
C3598 H3623 0.950 . S
C3599 C3598 1.349 . S
C3599 C3615 1.349 . S
C3600 C3598 1.327 . S
C3600 C3619 1.429 . S
C3600 H3624 0.950 . S
C3601 C3618 1.574 . S
C3601 C3620 1.368 . S
C3601 H3625 0.949 . S
H3602 C3606 0.949 . S
C3603 C3604 1.349 . S
C3603 C3605 1.327 . S
C3603 H3626 0.950 . S
C3604 C3603 1.349 . S
C3604 C3616 1.349 . S
C3605 C3603 1.327 . S
C3605 C3621 1.429 . S
C3605 H3627 0.950 . S
C3606 H3602 0.949 . S
C3606 C3614 1.574 . S
C3606 C3622 1.368 . S
H3607 C3615 0.950 . S
H3608 C3613 0.950 . S
H3609 C3614 0.949 . S
H3610 C3616 0.950 . S
H3611 C3617 0.950 . S
H3612 C3618 0.949 . S
C3613 H3608 0.950 . S
C3613 C3615 1.327 . S
C3613 C3619 1.429 . S
C3614 C3606 1.574 . S
C3614 H3609 0.949 . S
C3614 C3620 1.368 . S
C3615 C3599 1.349 . S
C3615 H3607 0.950 . S
C3615 C3613 1.327 . S
C3616 C3604 1.349 . S
C3616 H3610 0.950 . S
C3616 C3617 1.327 . S
C3617 H3611 0.950 . S
C3617 C3616 1.327 . S
C3617 C3621 1.429 . S
C3618 C3601 1.574 . S
C3618 H3612 0.949 . S
C3618 C3622 1.368 . S
C3619 C3600 1.429 . S
C3619 C3613 1.429 . S
C3619 C3620 1.523 . S
C3620 C3601 1.368 . S
C3620 C3614 1.368 . S
C3620 C3619 1.523 . S
C3621 C3605 1.429 . S
C3621 C3617 1.429 . S
C3621 C3622 1.523 . S
C3622 C3606 1.368 . S
C3622 C3618 1.368 . S
C3622 C3621 1.523 . S
H3623 C3598 0.950 . S
H3624 C3600 0.950 . S
H3625 C3601 0.949 . S
H3626 C3603 0.950 . S
H3627 C3605 0.950 . S
C3628 C3629 1.349 . S
C3628 C3630 1.327 . S
C3628 H3653 0.950 . S
C3629 C3628 1.349 . S
C3629 C3645 1.349 . S
C3630 C3628 1.327 . S
C3630 C3649 1.429 . S
C3630 H3654 0.950 . S
C3631 C3648 1.574 . S
C3631 C3650 1.368 . S
C3631 H3655 0.949 . S
H3632 C3636 0.949 . S
C3633 C3634 1.349 . S
C3633 C3635 1.327 . S
C3633 H3656 0.950 . S
C3634 C3633 1.349 . S
C3634 C3646 1.349 . S
C3635 C3633 1.327 . S
C3635 C3651 1.429 . S
C3635 H3657 0.950 . S
C3636 H3632 0.949 . S
C3636 C3644 1.574 . S
C3636 C3652 1.368 . S
H3637 C3645 0.950 . S
H3638 C3643 0.950 . S
H3639 C3644 0.949 . S
H3640 C3646 0.950 . S
H3641 C3647 0.950 . S
H3642 C3648 0.949 . S
C3643 H3638 0.950 . S
C3643 C3645 1.327 . S
C3643 C3649 1.429 . S
C3644 C3636 1.574 . S
C3644 H3639 0.949 . S
C3644 C3650 1.368 . S
C3645 C3629 1.349 . S
C3645 H3637 0.950 . S
C3645 C3643 1.327 . S
C3646 C3634 1.349 . S
C3646 H3640 0.950 . S
C3646 C3647 1.327 . S
C3647 H3641 0.950 . S
C3647 C3646 1.327 . S
C3647 C3651 1.429 . S
C3648 C3631 1.574 . S
C3648 H3642 0.949 . S
C3648 C3652 1.368 . S
C3649 C3630 1.429 . S
C3649 C3643 1.429 . S
C3649 C3650 1.523 . S
C3650 C3631 1.368 . S
C3650 C3644 1.368 . S
C3650 C3649 1.523 . S
C3651 C3635 1.429 . S
C3651 C3647 1.429 . S
C3651 C3652 1.523 . S
C3652 C3636 1.368 . S
C3652 C3648 1.368 . S
C3652 C3651 1.523 . S
H3653 C3628 0.950 . S
H3654 C3630 0.950 . S
H3655 C3631 0.949 . S
H3656 C3633 0.950 . S
H3657 C3635 0.950 . S
C3658 C3659 1.349 . S
C3658 C3660 1.327 1_554 S
C3658 H3683 0.950 . S
C3659 C3658 1.349 . S
C3659 C3675 1.349 . S
C3660 C3658 1.327 1_556 S
C3660 C3679 1.429 . S
C3660 H3684 0.950 . S
C3661 C3678 1.574 . S
C3661 C3680 1.368 . S
C3661 H3685 0.949 . S
H3662 C3666 0.949 . S
C3663 C3664 1.349 . S
C3663 C3665 1.327 . S
C3663 H3686 0.950 . S
C3664 C3663 1.349 . S
C3664 C3676 1.349 . S
C3665 C3663 1.327 . S
C3665 C3681 1.429 . S
C3665 H3687 0.950 . S
C3666 H3662 0.949 . S
C3666 C3674 1.574 . S
C3666 C3682 1.368 . S
H3667 C3675 0.950 . S
H3668 C3673 0.950 . S
H3669 C3674 0.949 . S
H3670 C3676 0.950 . S
H3671 C3677 0.950 . S
H3672 C3678 0.949 . S
C3673 H3668 0.950 . S
C3673 C3675 1.327 1_556 S
C3673 C3679 1.429 . S
C3674 C3666 1.574 . S
C3674 H3669 0.949 . S
C3674 C3680 1.368 . S
C3675 C3659 1.349 . S
C3675 H3667 0.950 . S
C3675 C3673 1.327 1_554 S
C3676 C3664 1.349 . S
C3676 H3670 0.950 . S
C3676 C3677 1.327 . S
C3677 H3671 0.950 . S
C3677 C3676 1.327 . S
C3677 C3681 1.429 . S
C3678 C3661 1.574 . S
C3678 H3672 0.949 . S
C3678 C3682 1.368 . S
C3679 C3660 1.429 . S
C3679 C3673 1.429 . S
C3679 C3680 1.523 . S
C3680 C3661 1.368 . S
C3680 C3674 1.368 . S
C3680 C3679 1.523 . S
C3681 C3665 1.429 . S
C3681 C3677 1.429 . S
C3681 C3682 1.523 . S
C3682 C3666 1.368 . S
C3682 C3678 1.368 . S
C3682 C3681 1.523 . S
H3683 C3658 0.950 . S
H3684 C3660 0.950 . S
H3685 C3661 0.949 . S
H3686 C3663 0.950 . S
H3687 C3665 0.950 . S
C3688 C3689 1.349 . S
C3688 C3690 1.327 . S
C3688 H3713 0.950 . S
C3689 C3688 1.349 . S
C3689 C3705 1.349 . S
C3690 C3688 1.327 . S
C3690 C3709 1.429 . S
C3690 H3714 0.950 . S
C3691 C3708 1.574 . S
C3691 C3710 1.368 . S
C3691 H3715 0.949 . S
H3692 C3696 0.949 . S
C3693 C3694 1.349 . S
C3693 C3695 1.327 1_554 S
C3693 H3716 0.950 . S
C3694 C3693 1.349 . S
C3694 C3706 1.349 . S
C3695 C3693 1.327 1_556 S
C3695 C3711 1.429 . S
C3695 H3717 0.950 . S
C3696 H3692 0.949 . S
C3696 C3704 1.574 . S
C3696 C3712 1.368 . S
H3697 C3705 0.950 . S
H3698 C3703 0.950 . S
H3699 C3704 0.949 . S
H3700 C3706 0.950 . S
H3701 C3707 0.950 . S
H3702 C3708 0.949 . S
C3703 H3698 0.950 . S
C3703 C3705 1.327 . S
C3703 C3709 1.429 . S
C3704 C3696 1.574 . S
C3704 H3699 0.949 . S
C3704 C3710 1.368 . S
C3705 C3689 1.349 . S
C3705 H3697 0.950 . S
C3705 C3703 1.327 . S
C3706 C3694 1.349 . S
C3706 H3700 0.950 . S
C3706 C3707 1.327 1_554 S
C3707 H3701 0.950 . S
C3707 C3706 1.327 1_556 S
C3707 C3711 1.429 . S
C3708 C3691 1.574 . S
C3708 H3702 0.949 . S
C3708 C3712 1.368 . S
C3709 C3690 1.429 . S
C3709 C3703 1.429 . S
C3709 C3710 1.523 . S
C3710 C3691 1.368 . S
C3710 C3704 1.368 . S
C3710 C3709 1.523 . S
C3711 C3695 1.429 . S
C3711 C3707 1.429 . S
C3711 C3712 1.523 . S
C3712 C3696 1.368 . S
C3712 C3708 1.368 . S
C3712 C3711 1.523 . S
H3713 C3688 0.950 . S
H3714 C3690 0.950 . S
H3715 C3691 0.949 . S
H3716 C3693 0.950 . S
H3717 C3695 0.950 . S
C3718 C3719 1.349 . S
C3718 C3720 1.327 . S
C3718 H3743 0.950 . S
C3719 C3718 1.349 . S
C3719 C3735 1.349 . S
C3720 C3718 1.327 . S
C3720 C3739 1.429 . S
C3720 H3744 0.950 . S
C3721 C3738 1.574 . S
C3721 C3740 1.368 . S
C3721 H3745 0.949 . S
H3722 C3726 0.949 . S
C3723 C3724 1.349 . S
C3723 C3725 1.327 . S
C3723 H3746 0.950 . S
C3724 C3723 1.349 . S
C3724 C3736 1.349 . S
C3725 C3723 1.327 . S
C3725 C3741 1.429 . S
C3725 H3747 0.950 . S
C3726 H3722 0.949 . S
C3726 C3734 1.574 . S
C3726 C3742 1.368 . S
H3727 C3735 0.950 . S
H3728 C3733 0.950 . S
H3729 C3734 0.949 . S
H3730 C3736 0.950 . S
H3731 C3737 0.950 . S
H3732 C3738 0.949 . S
C3733 H3728 0.950 . S
C3733 C3735 1.327 . S
C3733 C3739 1.429 . S
C3734 C3726 1.574 . S
C3734 H3729 0.949 . S
C3734 C3740 1.368 . S
C3735 C3719 1.349 . S
C3735 H3727 0.950 . S
C3735 C3733 1.327 . S
C3736 C3724 1.349 . S
C3736 H3730 0.950 . S
C3736 C3737 1.327 . S
C3737 H3731 0.950 . S
C3737 C3736 1.327 . S
C3737 C3741 1.429 . S
C3738 C3721 1.574 . S
C3738 H3732 0.949 . S
C3738 C3742 1.368 . S
C3739 C3720 1.429 . S
C3739 C3733 1.429 . S
C3739 C3740 1.523 . S
C3740 C3721 1.368 . S
C3740 C3734 1.368 . S
C3740 C3739 1.523 . S
C3741 C3725 1.429 . S
C3741 C3737 1.429 . S
C3741 C3742 1.523 . S
C3742 C3726 1.368 . S
C3742 C3738 1.368 . S
C3742 C3741 1.523 . S
H3743 C3718 0.950 . S
H3744 C3720 0.950 . S
H3745 C3721 0.949 . S
H3746 C3723 0.950 . S
H3747 C3725 0.950 . S
C3748 C3749 1.349 . S
C3748 C3750 1.327 . S
C3748 H3773 0.950 . S
C3749 C3748 1.349 . S
C3749 C3765 1.349 . S
C3750 C3748 1.327 . S
C3750 C3769 1.429 . S
C3750 H3774 0.950 . S
C3751 C3768 1.574 . S
C3751 C3770 1.368 . S
C3751 H3775 0.949 . S
H3752 C3756 0.949 . S
C3753 C3754 1.349 . S
C3753 C3755 1.327 . S
C3753 H3776 0.950 . S
C3754 C3753 1.349 . S
C3754 C3766 1.349 . S
C3755 C3753 1.327 . S
C3755 C3771 1.429 . S
C3755 H3777 0.950 . S
C3756 H3752 0.949 . S
C3756 C3764 1.574 . S
C3756 C3772 1.368 . S
H3757 C3765 0.950 . S
H3758 C3763 0.950 . S
H3759 C3764 0.949 . S
H3760 C3766 0.950 . S
H3761 C3767 0.950 . S
H3762 C3768 0.949 . S
C3763 H3758 0.950 . S
C3763 C3765 1.327 . S
C3763 C3769 1.429 . S
C3764 C3756 1.574 . S
C3764 H3759 0.949 . S
C3764 C3770 1.368 . S
C3765 C3749 1.349 . S
C3765 H3757 0.950 . S
C3765 C3763 1.327 . S
C3766 C3754 1.349 . S
C3766 H3760 0.950 . S
C3766 C3767 1.327 . S
C3767 H3761 0.950 . S
C3767 C3766 1.327 . S
C3767 C3771 1.429 . S
C3768 C3751 1.574 . S
C3768 H3762 0.949 . S
C3768 C3772 1.368 . S
C3769 C3750 1.429 . S
C3769 C3763 1.429 . S
C3769 C3770 1.523 . S
C3770 C3751 1.368 . S
C3770 C3764 1.368 . S
C3770 C3769 1.523 . S
C3771 C3755 1.429 . S
C3771 C3767 1.429 . S
C3771 C3772 1.523 . S
C3772 C3756 1.368 . S
C3772 C3768 1.368 . S
C3772 C3771 1.523 . S
H3773 C3748 0.950 . S
H3774 C3750 0.950 . S
H3775 C3751 0.949 . S
H3776 C3753 0.950 . S
H3777 C3755 0.950 . S
C3778 C3779 1.349 . S
C3778 C3780 1.327 . S
C3778 H3803 0.950 . S
C3779 C3778 1.349 . S
C3779 C3795 1.349 . S
C3780 C3778 1.327 . S
C3780 C3799 1.429 . S
C3780 H3804 0.950 . S
C3781 C3798 1.574 . S
C3781 C3800 1.368 . S
C3781 H3805 0.949 . S
H3782 C3786 0.949 . S
C3783 C3784 1.349 . S
C3783 C3785 1.327 1_556 S
C3783 H3806 0.950 . S
C3784 C3783 1.349 . S
C3784 C3796 1.349 . S
C3785 C3783 1.327 1_554 S
C3785 C3801 1.429 . S
C3785 H3807 0.950 . S
C3786 H3782 0.949 . S
C3786 C3794 1.574 . S
C3786 C3802 1.368 . S
H3787 C3795 0.950 . S
H3788 C3793 0.950 . S
H3789 C3794 0.949 . S
H3790 C3796 0.950 . S
H3791 C3797 0.950 . S
H3792 C3798 0.949 . S
C3793 H3788 0.950 . S
C3793 C3795 1.327 . S
C3793 C3799 1.429 . S
C3794 C3786 1.574 . S
C3794 H3789 0.949 . S
C3794 C3800 1.368 . S
C3795 C3779 1.349 . S
C3795 H3787 0.950 . S
C3795 C3793 1.327 . S
C3796 C3784 1.349 . S
C3796 H3790 0.950 . S
C3796 C3797 1.327 1_556 S
C3797 H3791 0.950 . S
C3797 C3796 1.327 1_554 S
C3797 C3801 1.429 . S
C3798 C3781 1.574 . S
C3798 H3792 0.949 . S
C3798 C3802 1.368 . S
C3799 C3780 1.429 . S
C3799 C3793 1.429 . S
C3799 C3800 1.523 . S
C3800 C3781 1.368 . S
C3800 C3794 1.368 . S
C3800 C3799 1.523 . S
C3801 C3785 1.429 . S
C3801 C3797 1.429 . S
C3801 C3802 1.523 . S
C3802 C3786 1.368 . S
C3802 C3798 1.368 . S
C3802 C3801 1.523 . S
H3803 C3778 0.950 . S
H3804 C3780 0.950 . S
H3805 C3781 0.949 . S
H3806 C3783 0.950 . S
H3807 C3785 0.950 . S
C1889 C5 1.374 . S
C1894 C241 1.374 . S
C1919 C64 1.374 . S
C1924 C300 1.374 . S
C1949 C359 1.374 . S
C1954 C123 1.374 . S
C1979 C418 1.374 . S
C1984 C182 1.374 . S
C2009 C477 1.374 . S
C2014 C713 1.374 . S
C2039 C536 1.374 . S
C2044 C772 1.374 . S
C2069 C831 1.374 . S
C2074 C595 1.374 . S
C2099 C654 1.374 . S
C2104 C890 1.374 . S
C2129 C1185 1.374 . S
C2134 C949 1.374 . S
C2159 C1244 1.374 . S
C2164 C1008 1.374 . S
C2189 C1067 1.374 . S
C2194 C1303 1.374 . S
C2219 C1362 1.374 . S
C2224 C1126 1.374 . S
C2249 C1421 1.374 . S
C2254 C1657 1.374 . S
C2279 C1716 1.374 . S
C2284 C1480 1.374 . S
C2309 C1775 1.374 . S
C2314 C1539 1.374 . S
C2339 C1598 1.374 . S
C2344 C1834 1.374 . S
C2369 C52 1.643 . S
C2374 C1596 1.620 . S
C2399 C475 1.620 . S
C2404 C111 1.643 . S
C2429 C170 1.643 . S
C2434 C1478 1.620 . S
C2459 C229 1.643 . S
C2464 C593 1.620 . S
C2489 C1714 1.620 . S
C2494 C288 1.643 . S
C2519 C829 1.620 . S
C2524 C347 1.643 . S
C2549 C406 1.643 . S
C2554 C1832 1.620 . S
C2579 C465 1.643 . S
C2584 C711 1.620 . S
C2609 C1124 1.620 . S
C2614 C524 1.643 . S
C2639 C583 1.643 . S
C2644 C3 1.620 . S
C2669 C1006 1.620 . S
C2674 C642 1.643 . S
C2699 C701 1.643 . S
C2704 C121 1.620 . S
C2729 C1242 1.620 . S
C2734 C760 1.643 . S
C2759 C819 1.643 . S
C2764 C357 1.620 . S
C2789 C1360 1.620 . S
C2794 C878 1.643 . S
C2819 C937 1.643 . S
C2824 C239 1.620 . S
C2849 C652 1.620 . S
C2854 C996 1.643 . S
C2879 C1419 1.620 . S
C2884 C1055 1.643 . S
C2909 C534 1.620 . S
C2914 C1114 1.643 . S
C2939 C1173 1.643 . S
C2944 C1537 1.620 . S
C2969 C770 1.620 . S
C2974 C1232 1.643 . S
C2999 C1773 1.620 . S
C3004 C1291 1.643 . S
C3029 C888 1.620 . S
C3034 C1350 1.643 . S
C3059 C1409 1.643 . S
C3064 C1655 1.620 . S
C3089 C1468 1.643 . S
C3094 C180 1.620 . S
C3119 C1527 1.643 . S
C3124 C947 1.620 . S
C3149 C1586 1.643 . S
C3154 C62 1.620 . S
C3179 C1645 1.643 . S
C3184 C1065 1.620 . S
C3209 C1704 1.643 . S
C3214 C298 1.620 . S
C3239 C1301 1.620 . S
C3244 C1763 1.643 . S
C3269 C416 1.620 . S
C3274 C1822 1.643 . S
C3299 C1881 1.643 . S
C3304 C1183 1.620 . S
C3329 C33 0.719 . S
C3334 C446 0.719 . S
C3359 C92 0.719 . S
C3364 C269 0.719 . S
C3389 C151 0.719 . S
C3394 C328 0.719 . S
C3419 C387 0.719 . S
C3424 C210 0.719 . S
C3449 C918 0.719 . S
C3454 C505 0.719 . S
C3479 C741 0.719 . S
C3484 C564 0.719 . S
C3509 C800 0.719 . S
C3514 C623 0.719 . S
C3539 C859 0.719 . S
C3544 C682 0.719 . S
C3569 C977 0.719 . S
C3574 C1390 0.719 . S
C3599 C1213 0.719 . S
C3604 C1036 0.719 . S
C3629 C1272 0.719 . S
C3634 C1095 0.719 . S
C3659 C1331 0.719 . S
C3664 C1154 0.719 . S
C3689 C1862 0.719 . S
C3694 C1449 0.719 . S
C3719 C1508 0.719 . S
C3724 C1685 0.719 . S
C3749 C1567 0.719 . S
C3754 C1744 0.719 . S
C3779 C1626 0.719 . S
C3784 C1803 0.719 . S
