# Generated by pormake.
# Topology irl, (4)-cn, num edge types: 1
# Building blocks:
#     Node 0, Type 0, BuildingBlock: CEKHIL_clean_sbu_0, # of connection points: 4
#     Node 1, Type 0, BuildingBlock: CEKHIL_clean_sbu_0, # of connection points: 4
#     Node 2, Type 0, BuildingBlock: CEKHIL_clean_sbu_0, # of connection points: 4
#     Node 3, Type 0, BuildingBlock: CEKHIL_clean_sbu_0, # of connection points: 4
#     Node 4, Type 0, BuildingBlock: CEKHIL_clean_sbu_0, # of connection points: 4
#     Node 5, Type 0, BuildingBlock: CEKHIL_clean_sbu_0, # of connection points: 4
#     Node 6, Type 0, BuildingBlock: CEKHIL_clean_sbu_0, # of connection points: 4
#     Node 7, Type 0, BuildingBlock: CEKHIL_clean_sbu_0, # of connection points: 4
#     Edge 8, Type (0, 0), BuildingBlock: XUDNAN_clean_linker_2, # of connection points: 2
#     Edge 9, Type (0, 0), BuildingBlock: XUDNAN_clean_linker_2, # of connection points: 2
#     Edge 10, Type (0, 0), BuildingBlock: XUDNAN_clean_linker_2, # of connection points: 2
#     Edge 11, Type (0, 0), BuildingBlock: XUDNAN_clean_linker_2, # of connection points: 2
#     Edge 12, Type (0, 0), BuildingBlock: XUDNAN_clean_linker_2, # of connection points: 2
#     Edge 13, Type (0, 0), BuildingBlock: XUDNAN_clean_linker_2, # of connection points: 2
#     Edge 14, Type (0, 0), BuildingBlock: XUDNAN_clean_linker_2, # of connection points: 2
#     Edge 15, Type (0, 0), BuildingBlock: XUDNAN_clean_linker_2, # of connection points: 2
#     Edge 16, Type (0, 0), BuildingBlock: XUDNAN_clean_linker_2, # of connection points: 2
#     Edge 17, Type (0, 0), BuildingBlock: XUDNAN_clean_linker_2, # of connection points: 2
#     Edge 18, Type (0, 0), BuildingBlock: XUDNAN_clean_linker_2, # of connection points: 2
#     Edge 19, Type (0, 0), BuildingBlock: XUDNAN_clean_linker_2, # of connection points: 2
#     Edge 20, Type (0, 0), BuildingBlock: XUDNAN_clean_linker_2, # of connection points: 2
#     Edge 21, Type (0, 0), BuildingBlock: XUDNAN_clean_linker_2, # of connection points: 2
#     Edge 22, Type (0, 0), BuildingBlock: XUDNAN_clean_linker_2, # of connection points: 2
#     Edge 23, Type (0, 0), BuildingBlock: XUDNAN_clean_linker_2, # of connection points: 2
# Relax obj value: 0.065
# Max RMSD: 0.129
# Mean RMSD: 0.129
data_MOF--net-irl--node1-CEKHIL_clean_sbu_0--edge1-XUDNAN_clean_linker_2
_symmetry_space_group_name_H-M    P1
_symmetry_Int_Tables_number       1
_symmetry_cell_setting            triclinic
loop_
_symmetry_equiv_pos_as_xyz
'x, y, z'
_cell_length_a     32.690535
_cell_length_b     45.705574
_cell_length_c     27.627214
_cell_angle_alpha  90.059591
_cell_angle_beta   90.012149
_cell_angle_gamma 90.01409
loop_
_atom_site_label
_atom_site_type_symbol
_atom_site_fract_x
_atom_site_fract_y
_atom_site_fract_z
_atom_type_partial_charge
Co0 Co 0.08741 0.16177 0.99444 0.0
O1 O 0.11181 0.20017 0.99305 0.0
O2 O 0.13805 0.16236 0.03178 0.0
C3 C 0.07458 0.15929 0.9141 0.0
O4 O 0.07096 0.11853 0.00179 0.0
Co5 Co 0.99627 0.15483 0.96717 0.0
O6 O 0.00803 0.11235 0.97026 0.0
C7 C 0.01747 0.17682 0.06405 0.0
C8 C 0.14112 0.18979 0.01946 0.0
C9 C 0.04049 0.10208 0.98931 0.0
O10 O 0.05542 0.17231 0.05437 0.0
O11 O 0.98897 0.17332 0.03276 0.0
O12 O 0.1105 0.15303 0.93119 0.0
O13 O 0.04875 0.16956 0.94533 0.0
Co14 Co 0.93479 0.83933 0.01226 0.0
O15 O 0.90008 0.80549 0.00853 0.0
O16 O 0.88229 0.84719 0.04313 0.0
C17 C 0.95475 0.83885 0.9343 0.0
O18 O 0.96381 0.87908 0.0206 0.0
Co19 Co 0.02759 0.82914 0.99618 0.0
O20 O 0.02991 0.87239 -0.00039 0.0
C21 C 0.99114 0.81262 0.08931 0.0
C22 C 0.87256 0.82043 0.03135 0.0
C23 C 1.00041 0.88882 0.01281 0.0
O24 O 0.95759 0.82488 0.07593 0.0
O25 O 0.02191 0.80967 0.06105 0.0
O26 O 0.92023 0.8507 0.94652 0.0
O27 O 0.97365 0.82483 0.96821 0.0
Co28 Co 0.06241 0.83973 0.5178 0.0
O29 O 0.09651 0.8058 0.52531 0.0
O30 O 0.11487 0.84546 0.4853 0.0
C31 C 0.04255 0.84313 0.59541 0.0
O32 O 0.03398 0.87946 0.50524 0.0
Co33 Co 0.9701 0.83095 0.53249 0.0
O34 O 0.96926 0.87415 0.5318 0.0
C35 C 0.00556 0.81286 0.4405 0.0
C36 C 0.12391 0.81904 0.49965 0.0
C37 C 0.99823 0.89001 0.51558 0.0
O38 O 0.03987 0.8227 0.45609 0.0
O39 O 0.97289 0.81302 0.46594 0.0
O40 O 0.07728 0.85394 0.58136 0.0
O41 O 0.02329 0.82727 0.56376 0.0
Co42 Co 0.93561 0.16746 0.50972 0.0
O43 O 0.91792 0.20749 0.5127 0.0
O44 O 0.87759 0.17068 0.49262 0.0
C45 C 0.969 0.16719 0.58127 0.0
O46 O 0.94498 0.12294 0.50441 0.0
Co47 Co 0.02912 0.15616 0.503 0.0
O48 O 0.01267 0.11494 0.51316 0.0
C49 C 0.98514 0.17589 0.4163 0.0
C50 C 0.88197 0.19874 0.49944 0.0
C51 C 0.97611 0.10557 0.50879 0.0
O52 O 0.95132 0.17311 0.43965 0.0
O53 O 0.02019 0.17217 0.43605 0.0
O54 O 0.92965 0.16348 0.5797 0.0
O55 O 0.98591 0.17419 0.54055 0.0
Co56 Co 0.56857 0.67556 0.99393 0.0
O57 O 0.5896 0.71464 -0.00141 0.0
O58 O 0.62366 0.67532 0.02172 0.0
C59 C 0.54514 0.68091 0.91781 0.0
O60 O 0.55486 0.63154 0.99327 0.0
Co61 Co 0.47469 0.66758 0.97818 0.0
O62 O 0.4895 0.62595 0.96871 0.0
C63 C 0.50667 0.68649 0.0731 0.0
C64 C 0.62248 0.70371 0.01724 0.0
C65 C 0.52405 0.61531 0.98092 0.0
O66 O 0.54332 0.68007 0.05991 0.0
O67 O 0.47596 0.6857 0.04432 0.0
O68 O 0.58315 0.6738 0.92501 0.0
O69 O 0.52411 0.68623 0.95618 0.0
Co70 Co 0.42867 0.34733 0.99303 0.0
O71 O 0.39971 0.31075 0.99592 0.0
O72 O 0.37904 0.35136 0.03202 0.0
C73 C 0.4393 0.34643 0.91224 0.0
O74 O 0.45213 0.38922 0.9961 0.0
Co75 Co 0.51985 0.34418 0.96177 0.0
O76 O 0.51647 0.3873 0.96623 0.0
C77 C 0.4978 0.32841 0.06149 0.0
C78 C 0.3728 0.32377 0.02253 0.0
C79 C 0.48631 0.40145 0.98378 0.0
O80 O 0.46078 0.33628 0.05262 0.0
O81 O 0.52565 0.32773 0.02894 0.0
O82 O 0.40492 0.35578 0.92989 0.0
O83 O 0.46418 0.3351 0.94342 0.0
Co84 Co 0.57554 0.34709 0.50778 0.0
O85 O 0.60429 0.31003 0.50765 0.0
O86 O 0.63254 0.35274 0.49082 0.0
C87 C 0.54287 0.34124 0.57876 0.0
O88 O 0.55606 0.38993 0.50711 0.0
Co89 Co 0.48104 0.34877 0.50132 0.0
O90 O 0.48718 0.39149 0.51089 0.0
C91 C 0.52826 0.33504 0.41401 0.0
C92 C 0.6369 0.32459 0.49596 0.0
C93 C 0.5219 0.40411 0.51022 0.0
O94 O 0.56119 0.34147 0.43724 0.0
O95 O 0.49299 0.33448 0.43405 0.0
O96 O 0.5808 0.34965 0.57771 0.0
O97 O 0.5274 0.33344 0.53753 0.0
Co98 Co 0.42497 0.67141 0.50873 0.0
O99 O 0.39848 0.70863 0.50301 0.0
O100 O 0.36958 0.66679 0.48219 0.0
C101 C 0.4476 0.67858 0.58422 0.0
O102 O 0.44589 0.62865 0.5122 0.0
Co103 Co 0.51919 0.67395 0.5174 0.0
O104 O 0.51134 0.63283 0.53717 0.0
C105 C 0.4815 0.68524 0.42375 0.0
C106 C 0.36702 0.69522 0.48563 0.0
C107 C 0.4797 0.61741 0.52827 0.0
O108 O 0.44737 0.67681 0.44188 0.0
O109 O 0.51447 0.68746 0.44841 0.0
O110 O 0.41073 0.66922 0.57644 0.0
O111 O 0.46802 0.68648 0.54629 0.0
H112 H 0.95305 0.93773 0.99251 0.0
H113 H 0.07167 0.9108 0.04697 0.0
H114 H 0.09402 0.96222 0.04973 0.0
H115 H 0.99045 0.99275 0.91466 0.0
H116 H 0.94922 0.01819 0.92491 0.0
H117 H 0.94053 0.97951 0.93168 0.0
H118 H 0.91465 0.98777 0.01926 0.0
H119 H 0.92288 0.02655 0.01258 0.0
H120 H 0.94655 0.00708 0.06189 0.0
H121 H 0.10556 0.01627 0.04198 0.0
H122 H 0.10443 0.06945 0.02566 0.0
H123 H 0.97917 0.06168 0.97458 0.0
C124 C 0.9833 0.9428 0.00613 0.0
C125 C 0.0105 0.92023 0.01985 0.0
C126 C 0.05027 0.92771 0.0363 0.0
C127 C 0.0633 0.95688 0.03806 0.0
C128 C 0.03632 0.97858 0.0231 0.0
C129 C 0.99707 0.972 0.00767 0.0
C130 C 0.97511 0.99949 0.99116 0.0
C131 C 0.96314 0.99735 0.93742 0.0
C132 C 0.93758 0.00558 0.02314 0.0
C133 C 0.00831 0.02228 -0.00088 0.0
C134 C 0.04327 0.00979 0.01788 0.0
C135 C 0.07823 0.02637 0.02754 0.0
C136 C 0.07736 0.05659 0.01803 0.0
C137 C 0.04184 0.06997 -0.00125 0.0
C138 C 0.00696 0.05234 0.98925 0.0
H139 H 0.05086 0.93806 0.5107 0.0
H140 H 0.92251 0.91368 0.50496 0.0
H141 H 0.90305 0.96543 0.50087 0.0
H142 H 0.03794 1.00029 0.58614 0.0
H143 H 0.07561 0.02257 0.55598 0.0
H144 H 0.08034 0.98332 0.55526 0.0
H145 H 0.08256 0.98376 0.46151 0.0
H146 H 0.0781 0.02306 0.462 0.0
H147 H 0.04193 1.00132 0.42832 0.0
H148 H 0.89634 0.02013 0.50137 0.0
H149 H 0.90408 0.07399 0.50425 0.0
H150 H 0.03609 0.06339 0.50988 0.0
C151 C 0.01877 0.94362 0.50776 0.0
C152 C 0.98837 0.92157 0.5083 0.0
C153 C 0.94658 0.92997 0.50499 0.0
C154 C 0.93504 0.95942 0.50252 0.0
C155 C 0.9655 0.9806 0.5032 0.0
C156 C 0.00653 0.97317 0.50541 0.0
C157 C 0.03288 1.00049 0.50697 0.0
C158 C 0.05818 1.00173 0.55388 0.0
C159 C 0.0605 1.00226 0.46202 0.0
C160 C 1.00022 0.02417 0.50614 0.0
C161 C 0.96155 0.01225 0.50366 0.0
C162 C 0.92654 0.02978 0.50305 0.0
C163 C 0.93119 0.06038 0.50479 0.0
C164 C 0.97058 0.07317 0.50735 0.0
C165 C 0.0054 0.05456 0.50802 0.0
H166 H 0.46896 0.57463 0.94703 0.0
H167 H 0.58462 0.58216 0.02348 0.0
H168 H 0.58492 0.52857 0.03596 0.0
H169 H 0.42464 0.5194 0.02132 0.0
H170 H 0.40026 0.50029 0.97202 0.0
H171 H 0.40942 0.53907 0.96773 0.0
H172 H 0.44964 0.53145 0.88795 0.0
H173 H 0.44005 0.49271 0.89155 0.0
H174 H 0.49179 0.50603 0.88667 0.0
H175 H 0.57211 0.47447 0.0412 0.0
H176 H 0.55021 0.42302 0.03354 0.0
H177 H 0.44206 0.45024 0.95477 0.0
C178 C 0.49459 0.5651 0.96619 0.0
C179 C 0.52684 0.58282 0.98436 0.0
C180 C 0.55972 0.56921 0.00899 0.0
C181 C 0.55998 0.53878 0.01653 0.0
C182 C 0.52724 0.52219 -0.00091 0.0
C183 C 0.49538 0.53481 0.97394 0.0
C184 C 0.46416 0.512 0.95836 0.0
C185 C 0.42213 0.51806 0.98123 0.0
C186 C 0.46126 0.51046 0.90284 0.0
C187 C 0.48325 0.48446 0.97902 0.0
C188 C 0.51963 0.49095 0.0024 0.0
C189 C 0.54366 0.46921 0.02315 0.0
C190 C 0.53086 0.44007 0.01878 0.0
C191 C 0.4942 0.43274 0.99418 0.0
C192 C 0.46968 0.4553 0.97474 0.0
H193 H 0.46989 0.44464 0.46978 0.0
H194 H 0.57398 0.43605 0.5661 0.0
H195 H 0.56967 0.48882 0.58531 0.0
H196 H 0.50066 0.51602 0.42204 0.0
H197 H 0.44888 0.52915 0.41646 0.0
H198 H 0.45947 0.4906 0.41126 0.0
H199 H 0.40724 0.48019 0.47954 0.0
H200 H 0.39702 0.51877 0.48553 0.0
H201 H 0.41326 0.49792 0.53743 0.0
H202 H 0.5517 0.54093 0.59813 0.0
H203 H 0.53081 0.59227 0.59272 0.0
H204 H 0.44142 0.56989 0.4823 0.0
C205 C 0.49194 0.45402 0.49461 0.0
C206 C 0.52232 0.4363 0.51663 0.0
C207 C 0.5508 0.44927 0.5486 0.0
C208 C 0.54827 0.47914 0.56006 0.0
C209 C 0.51755 0.49587 0.5385 0.0
C210 C 0.49054 0.48406 0.50546 0.0
C211 C 0.46209 0.50751 0.48543 0.0
C212 C 0.46815 0.51103 0.43054 0.0
C213 C 0.41724 0.50068 0.49773 0.0
C214 C 0.4771 0.53434 0.5128 0.0
C215 C 0.50864 0.52675 0.54378 0.0
C216 C 0.52749 0.5472 0.57351 0.0
C217 C 0.51524 0.5764 0.5701 0.0
C218 C 0.48477 0.58538 0.53657 0.0
C219 C 0.4646 0.56382 0.50841 0.0
H220 H 0.06662 0.17523 0.14463 0.0
H221 H 0.94209 0.19336 0.09881 0.0
H222 H 0.92162 0.19942 0.18424 0.0
H223 H 0.04089 0.13196 0.24334 0.0
H224 H 0.08172 0.14457 0.28193 0.0
H225 H 0.08783 0.14537 0.21725 0.0
H226 H 0.10391 0.20085 0.2208 0.0
H227 H 0.0981 0.20021 0.28567 0.0
H228 H 0.06829 0.22533 0.24985 0.0
H229 H 0.9133 0.19878 0.2748 0.0
H230 H 0.9178 0.19187 0.36317 0.0
H231 H 0.04775 0.17379 0.34971 0.0
C232 C 0.03522 0.18116 0.15232 0.0
C233 C 0.00604 0.18397 0.11476 0.0
C234 C 0.9651 0.19119 0.12678 0.0
C235 C 0.95317 0.19473 0.17526 0.0
C236 C 0.98252 0.19107 0.21136 0.0
C237 C 0.02276 0.18461 0.20046 0.0
C238 C 0.04769 0.17971 0.24599 0.0
C239 C 0.06556 0.14856 0.24718 0.0
C240 C 0.0815 0.20291 0.25086 0.0
C241 C 0.01498 0.18374 0.28423 0.0
C242 C 0.97768 0.19055 0.26355 0.0
C243 C 0.94245 0.1938 0.29142 0.0
C244 C 0.94533 0.18972 0.34165 0.0
C245 C 0.98316 0.18235 0.36364 0.0
C246 C 0.01846 0.17973 0.33431 0.0
H247 H 0.94603 0.82261 0.37232 0.0
H248 H 0.0642 0.78167 0.39398 0.0
H249 H 0.06879 0.77126 0.30647 0.0
H250 H 0.91074 0.77531 0.26865 0.0
H251 H 0.88765 0.80596 0.23806 0.0
H252 H 0.88983 0.80523 0.30326 0.0
H253 H 0.92671 0.8554 0.30304 0.0
H254 H 0.92492 0.85619 0.23801 0.0
H255 H 0.97329 0.85965 0.26881 0.0
H256 H 0.06508 0.77093 0.21658 0.0
H257 H 0.05392 0.78136 0.13011 0.0
H258 H 0.93887 0.82389 0.16536 0.0
C259 C 0.97203 0.81044 0.35875 0.0
C260 C 0.00442 0.80241 0.38988 0.0
C261 C 0.03887 0.78766 0.3707 0.0
C262 C 0.0417 0.7816 0.32109 0.0
C263 C 0.00992 0.7906 0.291 0.0
C264 C 0.97564 0.80464 0.309 0.0
C265 C 0.94825 0.81509 0.26816 0.0
C266 C 0.90665 0.79946 0.26963 0.0
C267 C 0.94302 0.84856 0.26961 0.0
C268 C 0.97311 0.80554 0.22455 0.0
C269 C 0.00822 0.79104 0.23859 0.0
C270 C 0.03737 0.78186 0.20507 0.0
C271 C 0.0308 0.78799 0.15595 0.0
C272 C 0.99545 0.80338 0.14065 0.0
C273 C 0.96595 0.81174 0.17559 0.0
H274 H 0.99977 0.80571 0.65504 0.0
H275 H 0.05385 0.89225 0.64795 0.0
H276 H 0.03696 0.90048 0.73392 0.0
H277 H 0.91699 0.82361 0.74013 0.0
H278 H 0.92139 0.78942 0.77219 0.0
H279 H 0.93447 0.79129 0.70892 0.0
H280 H 0.00624 0.77032 0.7283 0.0
H281 H 0.99359 0.76877 0.79169 0.0
H282 H 0.0382 0.78867 0.77202 0.0
H283 H 0.016 0.89921 0.82048 0.0
H284 H 0.99165 0.88823 0.90335 0.0
H285 H 0.95491 0.80153 0.85704 0.0
C286 C 0.00716 0.82657 0.67149 0.0
C287 C 0.0277 0.84851 0.64498 0.0
C288 C 0.03796 0.87526 0.66779 0.0
C289 C 0.02852 0.88013 0.71653 0.0
C290 C 0.00925 0.85786 0.74218 0.0
C291 C 0.99861 0.8316 0.72062 0.0
C292 C 0.97999 0.81082 0.75734 0.0
C293 C 0.93557 0.80335 0.74384 0.0
C294 C 0.00607 0.783 0.76264 0.0
C295 C 0.98196 0.82951 0.80271 0.0
C296 C 0.99873 0.85664 0.79296 0.0
C297 C 0.00307 0.87799 0.82868 0.0
C298 C 0.98945 0.87156 0.87557 0.0
C299 C 0.97241 0.84393 0.88629 0.0
C300 C 0.96872 0.8226 0.8496 0.0
H301 H 1.00008 0.16458 0.86819 0.0
H302 H 0.12929 0.14991 0.84146 0.0
H303 H 0.11631 0.14945 0.75354 0.0
H304 H 0.96351 0.11756 0.77018 0.0
H305 H 0.92107 0.14116 0.75572 0.0
H306 H 0.94039 0.13973 0.81675 0.0
H307 H 0.95111 0.1959 0.81573 0.0
H308 H 0.932 0.19748 0.75466 0.0
H309 H 0.98183 0.21212 0.76866 0.0
H310 H 0.09019 0.15384 0.66829 0.0
H311 H 0.05151 0.15914 0.59176 0.0
H312 H 0.93896 0.16833 0.67355 0.0
C313 C 0.02555 0.16109 0.8438 0.0
C314 C 0.06571 0.15738 0.86167 0.0
C315 C 0.09824 0.15276 0.82863 0.0
C316 C 0.09121 0.15251 0.77858 0.0
C317 C 0.05139 0.15655 0.76205 0.0
C318 C 0.019 0.1604 0.79362 0.0
C319 C 0.97915 0.16417 0.76629 0.0
C320 C 0.94927 0.13916 0.77793 0.0
C321 C 0.9599 0.19421 0.77697 0.0
C322 C 0.99434 0.1623 0.71453 0.0
C323 C 0.03614 0.15805 0.71287 0.0
C324 C 0.05736 0.15685 0.6691 0.0
C325 C 0.03522 0.15998 0.62585 0.0
C326 C 0.99231 0.16393 0.62677 0.0
C327 C 0.97172 0.16497 0.67175 0.0
H328 H 0.55809 0.67895 0.15096 0.0
H329 H 0.43719 0.71035 0.11121 0.0
H330 H 0.42123 0.71857 0.19708 0.0
H331 H 0.52749 0.63912 0.251 0.0
H332 H 0.57132 0.64743 0.28815 0.0
H333 H 0.57593 0.6478 0.22329 0.0
H334 H 0.60271 0.70112 0.22634 0.0
H335 H 0.59841 0.7009 0.2914 0.0
H336 H 0.57294 0.72883 0.25662 0.0
H337 H 0.41471 0.71762 0.28563 0.0
H338 H 0.41848 0.70849 0.37328 0.0
H339 H 0.54382 0.67859 0.35763 0.0
C340 C 0.52861 0.6882 0.16024 0.0
C341 C 0.4989 0.694 0.1243 0.0
C342 C 0.46044 0.70563 0.13803 0.0
C343 C 0.45112 0.71055 0.18672 0.0
C344 C 0.48066 0.70394 0.22126 0.0
C345 C 0.51873 0.69321 0.20882 0.0
C346 C 0.54359 0.68571 0.25345 0.0
C347 C 0.55524 0.65308 0.25398 0.0
C348 C 0.58167 0.70532 0.25716 0.0
C349 C 0.51289 0.69291 0.29278 0.0
C350 C 0.477 0.70369 0.27323 0.0
C351 C 0.44286 0.70972 0.30154 0.0
C352 C 0.44524 0.70429 0.3512 0.0
C353 C 0.48151 0.69299 0.37206 0.0
C354 C 0.51603 0.68776 0.34262 0.0
H355 H 0.46621 0.33502 0.34693 0.0
H356 H 0.59715 0.32176 0.36171 0.0
H357 H 0.60253 0.31386 0.27351 0.0
H358 H 0.44903 0.28195 0.24909 0.0
H359 H 0.41211 0.30495 0.21914 0.0
H360 H 0.41789 0.30677 0.28396 0.0
H361 H 0.43116 0.36258 0.27838 0.0
H362 H 0.4253 0.36094 0.21369 0.0
H363 H 0.47141 0.37589 0.23959 0.0
H364 H 0.5943 0.31042 0.18301 0.0
H365 H 0.57373 0.31409 0.09731 0.0
H366 H 0.44827 0.33018 0.14186 0.0
C367 C 0.49595 0.32995 0.33181 0.0
C368 C 0.53123 0.32885 0.36139 0.0
C369 C 0.56966 0.32272 0.33988 0.0
C370 C 0.57301 0.31805 0.28981 0.0
C371 C 0.53768 0.3196 0.26167 0.0
C372 C 0.49989 0.32547 0.2819 0.0
C373 C 0.46714 0.32803 0.24334 0.0
C374 C 0.43462 0.30399 0.24925 0.0
C375 C 0.44763 0.35868 0.24378 0.0
C376 C 0.49252 0.32319 0.19819 0.0
C377 C 0.53304 0.31802 0.20953 0.0
C378 C 0.56258 0.3142 0.17372 0.0
C379 C 0.55056 0.3163 0.12505 0.0
C380 C 0.50933 0.3224 0.11256 0.0
C381 C 0.47998 0.3253 0.14991 0.0
H382 H 0.51332 0.34181 0.86562 0.0
H383 H 0.38302 0.35133 0.84023 0.0
H384 H 0.39495 0.34996 0.75203 0.0
H385 H 0.54461 0.38846 0.76666 0.0
H386 H 0.58901 0.3668 0.75211 0.0
H387 H 0.57003 0.36772 0.81329 0.0
H388 H 0.56438 0.31116 0.81313 0.0
H389 H 0.58318 0.31007 0.75188 0.0
H390 H 0.53489 0.29324 0.76659 0.0
H391 H 0.42076 0.34555 0.66644 0.0
H392 H 0.4596 0.34312 0.58955 0.0
H393 H 0.57315 0.33978 0.67064 0.0
C394 C 0.48736 0.34356 0.84143 0.0
C395 C 0.44724 0.34649 0.85964 0.0
C396 C 0.41404 0.34909 0.82696 0.0
C397 C 0.42047 0.34823 0.77682 0.0
C398 C 0.46035 0.34517 0.75992 0.0
C399 C 0.49331 0.34327 0.79119 0.0
C400 C 0.5332 0.34119 0.76356 0.0
C401 C 0.56083 0.36762 0.77456 0.0
C402 C 0.55519 0.31219 0.77444 0.0
C403 C 0.51747 0.342 0.71198 0.0
C404 C 0.47533 0.34396 0.71063 0.0
C405 C 0.45381 0.34422 0.667 0.0
C406 C 0.47604 0.34273 0.62357 0.0
C407 C 0.51926 0.34144 0.62426 0.0
C408 C 0.54009 0.34102 0.66908 0.0
H409 H 0.57504 0.66242 0.82926 0.0
H410 H 0.47429 0.70866 0.89763 0.0
H411 H 0.44268 0.71665 0.81821 0.0
H412 H 0.5797 0.70677 0.71887 0.0
H413 H 0.58947 0.67596 0.67975 0.0
H414 H 0.60654 0.67523 0.74179 0.0
H415 H 0.56698 0.62684 0.7557 0.0
H416 H 0.54999 0.62736 0.6937 0.0
H417 H 0.51309 0.62526 0.74204 0.0
H418 H 0.41941 0.71738 0.73469 0.0
H419 H 0.40386 0.70914 0.64853 0.0
H420 H 0.51885 0.66308 0.63069 0.0
C421 C 0.54653 0.67442 0.82724 0.0
C422 C 0.52713 0.68501 0.8695 0.0
C423 C 0.48962 0.70029 0.86573 0.0
C424 C 0.47151 0.70512 0.82077 0.0
C425 C 0.4912 0.69445 0.77985 0.0
C426 C 0.52767 0.67926 0.78235 0.0
C427 C 0.54065 0.66865 0.73254 0.0
C428 C 0.58152 0.68249 0.71735 0.0
C429 C 0.54279 0.63503 0.73092 0.0
C430 C 0.50552 0.68013 0.70207 0.0
C431 C 0.47758 0.69505 0.73041 0.0
C432 C 0.44121 0.7061 0.71186 0.0
C433 C 0.43263 0.7013 0.66307 0.0
C434 C 0.46045 0.68588 0.63343 0.0
C435 C 0.4977 0.67556 0.65272 0.0
H436 H 0.29503 0.32392 0.98683 0.0
H437 H 0.37303 0.28337 0.094 0.0
H438 H 0.3195 0.2463 0.11041 0.0
H439 H 0.19446 0.30867 0.04763 0.0
H440 H 0.16974 0.30123 0.9906 0.0
H441 H 0.21129 0.3271 0.9935 0.0
H442 H 0.24965 0.29784 0.92723 0.0
H443 H 0.20863 0.27165 0.92467 0.0
H444 H 0.2601 0.25953 0.93666 0.0
H445 H 0.26121 0.20969 0.1067 0.0
H446 H 0.2014 0.17857 0.08667 0.0
H447 H 0.16147 0.24317 0.98191 0.0
C448 C 0.29987 0.30804 0.01532 0.0
C449 C 0.33739 0.307 0.0405 0.0
C450 C 0.34385 0.28496 0.07557 0.0
C451 C 0.31374 0.26374 0.08484 0.0
C452 C 0.27738 0.26475 0.05842 0.0
C453 C 0.27014 0.28657 0.02475 0.0
C454 C 0.23025 0.28124 0.99812 0.0
C455 C 0.19962 0.30603 0.00808 0.0
C456 C 0.23762 0.27733 0.94345 0.0
C457 C 0.21657 0.25283 0.02136 0.0
C458 C 0.24406 0.24364 0.05613 0.0
C459 C 0.23913 0.21696 0.08012 0.0
C460 C 0.20518 0.19934 0.06838 0.0
C461 C 0.17654 0.20849 0.03307 0.0
C462 C 0.18242 0.2357 0.00963 0.0
H463 H 0.70584 0.69312 0.01874 0.0
H464 H 0.61455 0.75972 0.04748 0.0
H465 H 0.669 0.79582 0.06298 0.0
H466 H 0.78403 0.7204 0.10731 0.0
H467 H 0.82587 0.71207 0.06713 0.0
H468 H 0.77997 0.69022 0.06553 0.0
H469 H 0.77255 0.70059 0.97376 0.0
H470 H 0.81823 0.72252 0.97513 0.0
H471 H 0.7711 0.73794 0.95286 0.0
H472 H 0.73295 0.82609 0.06814 0.0
H473 H 0.8018 0.84819 0.05961 0.0
H474 H 0.85155 0.76272 0.0248 0.0
C475 C 0.69748 0.71507 0.02969 0.0
C476 C 0.656 0.72355 0.03237 0.0
C477 C 0.64617 0.75273 0.04538 0.0
C478 C 0.67688 0.7734 0.05445 0.0
C479 C 0.7175 0.76469 0.05026 0.0
C480 C 0.72794 0.73622 0.03828 0.0
C481 C 0.77383 0.73334 0.03184 0.0
C482 C 0.79199 0.71279 0.07025 0.0
C483 C 0.78453 0.723 0.98034 0.0
C484 C 0.78719 0.76474 0.04033 0.0
C485 C 0.75437 0.78238 0.0519 0.0
C486 C 0.75901 0.81243 0.05959 0.0
C487 C 0.79818 0.82482 0.0547 0.0
C488 C 0.83201 0.80725 0.04152 0.0
C489 C 0.82631 0.77677 0.03498 0.0
H490 H 0.14616 0.7633 0.524 0.0
H491 H 0.18903 0.83991 0.44639 0.0
H492 H 0.25311 0.81363 0.42607 0.0
H493 H 0.2405 0.744 0.57643 0.0
H494 H 0.23253 0.70509 0.57123 0.0
H495 H 0.18933 0.72927 0.5763 0.0
H496 H 0.15954 0.70797 0.4968 0.0
H497 H 0.20295 0.68389 0.49122 0.0
H498 H 0.1901 0.70842 0.44249 0.0
H499 H 0.31425 0.78026 0.41963 0.0
H500 H 0.36901 0.74367 0.43046 0.0
H501 H 0.28588 0.68805 0.51059 0.0
C502 C 0.16885 0.77457 0.50238 0.0
C503 C 0.16254 0.80376 0.48674 0.0
C504 C 0.19314 0.81762 0.45874 0.0
C505 C 0.22952 0.80278 0.44686 0.0
C506 C 0.23466 0.77402 0.4629 0.0
C507 C 0.20513 0.76008 0.4901 0.0
C508 C 0.21889 0.72966 0.50504 0.0
C509 C 0.22041 0.72686 0.56053 0.0
C510 C 0.19122 0.70609 0.48254 0.0
C511 C 0.26139 0.72882 0.48311 0.0
C512 C 0.26964 0.75455 0.4585 0.0
C513 C 0.30784 0.7599 0.43808 0.0
C514 C 0.33869 0.73893 0.44426 0.0
C515 C 0.33132 0.71278 0.47033 0.0
C516 C 0.29186 0.70735 0.48902 0.0
H517 H 0.65457 0.26575 0.50427 0.0
H518 H 0.71047 0.35007 0.47494 0.0
H519 H 0.77798 0.32623 0.46854 0.0
H520 H 0.73478 0.23751 0.5777 0.0
H521 H 0.73112 0.20059 0.55512 0.0
H522 H 0.68669 0.22387 0.55502 0.0
H523 H 0.6778 0.21527 0.46297 0.0
H524 H 0.72224 0.19194 0.46276 0.0
H525 H 0.71979 0.22297 0.42265 0.0
H526 H 0.83957 0.29426 0.47013 0.0
H527 H 0.89202 0.25599 0.47805 0.0
H528 H 0.79749 0.19122 0.50424 0.0
C529 C 0.68097 0.27917 0.49606 0.0
C530 C 0.67715 0.30987 0.49004 0.0
C531 C 0.71251 0.32659 0.4796 0.0
C532 C 0.75103 0.31322 0.47586 0.0
C533 C 0.75378 0.28302 0.48235 0.0
C534 C 0.71975 0.26612 0.492 0.0
C535 C 0.73154 0.23416 0.49859 0.0
C536 C 0.72037 0.22341 0.54964 0.0
C537 C 0.71166 0.21495 0.4594 0.0
C538 C 0.77763 0.23583 0.49187 0.0
C539 C 0.78959 0.2643 0.48247 0.0
C540 C 0.83054 0.27187 0.47703 0.0
C541 C 0.86014 0.24992 0.48174 0.0
C542 C 0.84893 0.22055 0.49155 0.0
C543 C 0.80697 0.21337 0.49606 0.0
loop_
_geom_bond_atom_site_label_1
_geom_bond_atom_site_label_2
_geom_bond_distance
_geom_bond_site_symmetry_2
_ccdc_geom_bond_type
Co0 O1 2.216 . S
Co0 O2 2.091 . S
Co0 O4 2.005 1_554 S
Co0 O10 2.019 . S
Co0 O12 2.139 1_554 S
Co0 O13 2.245 1_554 S
O1 Co0 2.216 . S
O1 C8 1.247 . S
O2 Co0 2.091 . S
O2 C8 1.261 . S
C3 O12 1.247 . S
C3 O13 1.272 . S
O4 Co0 2.005 1_556 S
O4 C9 1.259 1_556 S
Co5 O6 2.061 . S
Co5 O11 2.052 . S
Co5 O13 2.135 1_654 S
O6 Co5 2.061 . S
O6 C9 1.235 1_655 S
C7 O10 1.238 . S
C7 O11 1.241 1_455 S
C8 O1 1.247 . S
C8 O2 1.261 . S
C9 O4 1.259 1_554 S
C9 O6 1.235 1_455 S
O10 Co0 2.019 . S
O10 C7 1.238 . S
O11 Co5 2.052 . S
O11 C7 1.241 1_655 S
O12 Co0 2.139 1_556 S
O12 C3 1.247 . S
O13 Co0 2.245 1_556 S
O13 C3 1.272 . S
O13 Co5 2.135 1_456 S
Co14 O15 2.216 . S
Co14 O16 2.091 . S
Co14 O18 2.005 1_554 S
Co14 O24 2.019 . S
Co14 O26 2.139 1_554 S
Co14 O27 2.245 1_554 S
O15 Co14 2.216 . S
O15 C22 1.247 . S
O16 Co14 2.091 . S
O16 C22 1.261 . S
C17 O26 1.247 . S
C17 O27 1.272 . S
O18 Co14 2.005 1_556 S
O18 C23 1.259 1_556 S
Co19 O20 2.061 . S
Co19 O25 2.052 . S
Co19 O27 2.135 1_454 S
O20 Co19 2.061 . S
O20 C23 1.235 1_455 S
C21 O24 1.238 . S
C21 O25 1.241 1_655 S
C22 O15 1.247 . S
C22 O16 1.261 . S
C23 O18 1.259 1_554 S
C23 O20 1.235 1_655 S
O24 Co14 2.019 . S
O24 C21 1.238 . S
O25 Co19 2.052 . S
O25 C21 1.241 1_455 S
O26 Co14 2.139 1_556 S
O26 C17 1.247 . S
O27 Co14 2.245 1_556 S
O27 C17 1.272 . S
O27 Co19 2.135 1_656 S
Co28 O29 2.216 . S
Co28 O30 2.091 . S
Co28 O32 2.004 . S
Co28 O38 2.021 . S
Co28 O40 2.137 . S
Co28 O41 2.244 . S
O29 Co28 2.216 . S
O29 C36 1.247 . S
O30 Co28 2.091 . S
O30 C36 1.261 . S
C31 O40 1.247 . S
C31 O41 1.272 . S
O32 Co28 2.004 . S
O32 C37 1.259 . S
Co33 O34 2.061 . S
Co33 O39 2.052 . S
Co33 O41 2.135 1_655 S
O34 Co33 2.061 . S
O34 C37 1.235 1_655 S
C35 O38 1.238 . S
C35 O39 1.241 1_455 S
C36 O29 1.247 . S
C36 O30 1.261 . S
C37 O32 1.259 . S
C37 O34 1.235 1_455 S
O38 Co28 2.021 . S
O38 C35 1.238 . S
O39 Co33 2.052 . S
O39 C35 1.241 1_655 S
O40 Co28 2.137 . S
O40 C31 1.247 . S
O41 Co28 2.244 . S
O41 C31 1.272 . S
O41 Co33 2.135 1_455 S
Co42 O43 2.216 . S
Co42 O44 2.091 . S
Co42 O46 2.004 . S
Co42 O52 2.021 . S
Co42 O54 2.137 . S
Co42 O55 2.244 . S
O43 Co42 2.216 . S
O43 C50 1.247 . S
O44 Co42 2.091 . S
O44 C50 1.261 . S
C45 O54 1.247 . S
C45 O55 1.272 . S
O46 Co42 2.004 . S
O46 C51 1.259 . S
Co47 O48 2.061 . S
Co47 O53 2.052 . S
Co47 O55 2.135 1_455 S
O48 Co47 2.061 . S
O48 C51 1.235 1_455 S
C49 O52 1.238 . S
C49 O53 1.241 1_655 S
C50 O43 1.247 . S
C50 O44 1.261 . S
C51 O46 1.259 . S
C51 O48 1.235 1_655 S
O52 Co42 2.021 . S
O52 C49 1.238 . S
O53 Co47 2.052 . S
O53 C49 1.241 1_455 S
O54 Co42 2.137 . S
O54 C45 1.247 . S
O55 Co42 2.244 . S
O55 C45 1.272 . S
O55 Co47 2.135 1_655 S
Co56 O57 2.216 . S
Co56 O58 2.091 . S
Co56 O60 2.005 1_554 S
Co56 O66 2.019 . S
Co56 O68 2.140 1_554 S
Co56 O69 2.245 1_554 S
O57 Co56 2.216 . S
O57 C64 1.247 . S
O58 Co56 2.091 . S
O58 C64 1.261 . S
C59 O68 1.247 . S
C59 O69 1.272 . S
O60 Co56 2.005 1_556 S
O60 C65 1.259 1_556 S
Co61 O62 2.061 . S
Co61 O67 2.052 . S
Co61 O69 2.135 1_554 S
O62 Co61 2.061 . S
O62 C65 1.235 . S
C63 O66 1.238 . S
C63 O67 1.241 . S
C64 O57 1.247 . S
C64 O58 1.261 . S
C65 O60 1.259 1_554 S
C65 O62 1.235 . S
O66 Co56 2.019 . S
O66 C63 1.238 . S
O67 Co61 2.052 . S
O67 C63 1.241 . S
O68 Co56 2.140 1_556 S
O68 C59 1.247 . S
O69 Co56 2.245 1_556 S
O69 C59 1.272 . S
O69 Co61 2.135 1_556 S
Co70 O71 2.216 . S
Co70 O72 2.091 . S
Co70 O74 2.005 1_554 S
Co70 O80 2.019 . S
Co70 O82 2.140 1_554 S
Co70 O83 2.245 1_554 S
O71 Co70 2.216 . S
O71 C78 1.247 . S
O72 Co70 2.091 . S
O72 C78 1.261 . S
C73 O82 1.247 . S
C73 O83 1.272 . S
O74 Co70 2.005 1_556 S
O74 C79 1.259 1_556 S
Co75 O76 2.061 . S
Co75 O81 2.052 . S
Co75 O83 2.135 1_554 S
O76 Co75 2.061 . S
O76 C79 1.235 . S
C77 O80 1.238 . S
C77 O81 1.241 . S
C78 O71 1.247 . S
C78 O72 1.261 . S
C79 O74 1.259 1_554 S
C79 O76 1.235 . S
O80 Co70 2.019 . S
O80 C77 1.238 . S
O81 Co75 2.052 . S
O81 C77 1.241 . S
O82 Co70 2.140 1_556 S
O82 C73 1.247 . S
O83 Co70 2.245 1_556 S
O83 C73 1.272 . S
O83 Co75 2.135 1_556 S
Co84 O85 2.216 . S
Co84 O86 2.091 . S
Co84 O88 2.004 . S
Co84 O94 2.021 . S
Co84 O96 2.137 . S
Co84 O97 2.244 . S
O85 Co84 2.216 . S
O85 C92 1.247 . S
O86 Co84 2.091 . S
O86 C92 1.261 . S
C87 O96 1.247 . S
C87 O97 1.272 . S
O88 Co84 2.004 . S
O88 C93 1.259 . S
Co89 O90 2.061 . S
Co89 O95 2.052 . S
Co89 O97 2.135 . S
O90 Co89 2.061 . S
O90 C93 1.235 . S
C91 O94 1.238 . S
C91 O95 1.241 . S
C92 O85 1.247 . S
C92 O86 1.261 . S
C93 O88 1.259 . S
C93 O90 1.235 . S
O94 Co84 2.021 . S
O94 C91 1.238 . S
O95 Co89 2.052 . S
O95 C91 1.241 . S
O96 Co84 2.137 . S
O96 C87 1.247 . S
O97 Co84 2.244 . S
O97 C87 1.272 . S
O97 Co89 2.135 . S
Co98 O99 2.216 . S
Co98 O100 2.091 . S
Co98 O102 2.004 . S
Co98 O108 2.021 . S
Co98 O110 2.137 . S
Co98 O111 2.244 . S
O99 Co98 2.216 . S
O99 C106 1.247 . S
O100 Co98 2.091 . S
O100 C106 1.261 . S
C101 O110 1.247 . S
C101 O111 1.272 . S
O102 Co98 2.004 . S
O102 C107 1.259 . S
Co103 O104 2.061 . S
Co103 O109 2.052 . S
Co103 O111 2.135 . S
O104 Co103 2.061 . S
O104 C107 1.235 . S
C105 O108 1.238 . S
C105 O109 1.241 . S
C106 O99 1.247 . S
C106 O100 1.261 . S
C107 O102 1.259 . S
C107 O104 1.235 . S
O108 Co98 2.021 . S
O108 C105 1.238 . S
O109 Co103 2.052 . S
O109 C105 1.241 . S
O110 Co98 2.137 . S
O110 C101 1.247 . S
O111 Co98 2.244 . S
O111 C101 1.272 . S
O111 Co103 2.135 . S
H112 C124 0.930 . S
H113 C126 0.930 . S
H114 C127 0.930 . S
H115 C131 0.959 . S
H116 C131 0.959 . S
H117 C131 0.961 1_565 S
H118 C132 0.960 1_565 S
H119 C132 0.961 . S
H120 C132 0.959 1_455 S
H121 C135 0.929 . S
H122 C136 0.931 . S
H123 C138 0.930 . S
C124 H112 0.930 . S
C124 C125 1.399 . S
C124 C129 1.399 . S
C125 C124 1.399 . S
C125 C126 1.376 1_654 S
C126 H113 0.930 . S
C126 C125 1.376 1_456 S
C126 C127 1.388 . S
C127 H114 0.930 . S
C127 C126 1.388 . S
C127 C128 1.390 . S
C128 C127 1.390 . S
C128 C129 1.394 1_456 S
C128 C134 1.465 1_565 S
C129 C124 1.399 . S
C129 C128 1.394 1_654 S
C129 C130 1.516 1_565 S
C130 C129 1.516 1_545 S
C130 C131 1.502 . S
C130 C132 1.561 . S
C130 C133 1.526 . S
C131 H115 0.959 . S
C131 H116 0.959 . S
C131 H117 0.961 1_545 S
C131 C130 1.502 . S
C132 H118 0.960 1_545 S
C132 H119 0.961 . S
C132 H120 0.959 1_655 S
C132 C130 1.561 . S
C133 C130 1.526 . S
C133 C134 1.396 1_654 S
C133 C138 1.390 . S
C134 C128 1.465 1_545 S
C134 C133 1.396 1_456 S
C134 C135 1.399 . S
C135 H121 0.929 . S
C135 C134 1.399 . S
C135 C136 1.385 . S
C136 H122 0.931 . S
C136 C135 1.385 . S
C136 C137 1.389 1_556 S
C137 C136 1.389 1_554 S
C137 C138 1.387 1_455 S
C138 H123 0.930 . S
C138 C133 1.390 . S
C138 C137 1.387 1_655 S
H139 C151 0.930 . S
H140 C153 0.927 1_655 S
H141 C154 0.930 . S
H142 C158 0.959 . S
H143 C158 0.959 . S
H144 C158 0.961 1_565 S
H145 C159 0.960 . S
H146 C159 0.961 1_545 S
H147 C159 0.959 . S
H148 C162 0.929 . S
H149 C163 0.931 . S
H150 C165 0.934 . S
C151 H139 0.930 . S
C151 C152 1.399 . S
C151 C156 1.399 . S
C152 C151 1.399 . S
C152 C153 1.387 . S
C153 H140 0.927 1_455 S
C153 C152 1.387 . S
C153 C154 1.382 1_455 S
C154 H141 0.930 . S
C154 C153 1.382 1_655 S
C154 C155 1.390 . S
C155 C154 1.390 . S
C155 C156 1.394 1_655 S
C155 C161 1.465 1_565 S
C156 C151 1.399 . S
C156 C155 1.394 1_455 S
C156 C157 1.516 1_565 S
C157 C156 1.516 1_545 S
C157 C158 1.502 . S
C157 C159 1.561 1_445 S
C157 C160 1.526 1_455 S
C158 H142 0.959 . S
C158 H143 0.959 . S
C158 H144 0.961 1_545 S
C158 C157 1.502 . S
C159 H145 0.960 . S
C159 H146 0.961 1_565 S
C159 H147 0.959 . S
C159 C157 1.561 1_665 S
C160 C157 1.526 1_655 S
C160 C161 1.396 . S
C160 C165 1.390 . S
C161 C155 1.465 1_545 S
C161 C160 1.396 . S
C161 C162 1.399 . S
C162 H148 0.929 . S
C162 C161 1.399 . S
C162 C163 1.385 . S
C163 H149 0.931 . S
C163 C162 1.385 . S
C163 C164 1.389 . S
C164 C163 1.389 . S
C164 C165 1.387 . S
C165 H150 0.934 . S
C165 C160 1.390 . S
C165 C164 1.387 . S
H166 C178 0.930 . S
H167 C180 0.930 . S
H168 C181 0.930 . S
H169 C185 0.959 . S
H170 C185 0.959 . S
H171 C185 0.961 . S
H172 C186 0.960 . S
H173 C186 0.961 . S
H174 C186 0.959 . S
H175 C189 0.929 . S
H176 C190 0.931 . S
H177 C192 0.930 . S
C178 H166 0.930 . S
C178 C179 1.399 1_556 S
C178 C183 1.399 . S
C179 C178 1.399 1_554 S
C179 C180 1.376 . S
C180 H167 0.930 . S
C180 C179 1.376 . S
C180 C181 1.388 . S
C181 H168 0.930 . S
C181 C180 1.388 . S
C181 C182 1.390 . S
C182 C181 1.390 . S
C182 C183 1.394 1_554 S
C182 C188 1.465 . S
C183 C178 1.399 . S
C183 C182 1.394 1_556 S
C183 C184 1.516 . S
C184 C183 1.516 . S
C184 C185 1.502 . S
C184 C186 1.561 . S
C184 C187 1.526 . S
C185 H169 0.959 . S
C185 H170 0.959 . S
C185 H171 0.961 . S
C185 C184 1.502 . S
C186 H172 0.960 . S
C186 H173 0.961 . S
C186 H174 0.959 . S
C186 C184 1.561 . S
C187 C184 1.526 . S
C187 C188 1.396 1_556 S
C187 C192 1.390 . S
C188 C182 1.465 . S
C188 C187 1.396 1_554 S
C188 C189 1.399 . S
C189 H175 0.929 . S
C189 C188 1.399 . S
C189 C190 1.385 . S
C190 H176 0.931 . S
C190 C189 1.385 . S
C190 C191 1.389 . S
C191 C190 1.389 . S
C191 C192 1.387 1_554 S
C192 H177 0.930 . S
C192 C187 1.390 . S
C192 C191 1.387 1_556 S
H193 C205 0.930 . S
H194 C207 0.930 . S
H195 C208 0.930 . S
H196 C212 0.959 . S
H197 C212 0.959 . S
H198 C212 0.961 . S
H199 C213 0.960 . S
H200 C213 0.961 . S
H201 C213 0.959 . S
H202 C216 0.929 . S
H203 C217 0.931 . S
H204 C219 0.930 . S
C205 H193 0.930 . S
C205 C206 1.399 . S
C205 C210 1.399 . S
C206 C205 1.399 . S
C206 C207 1.376 . S
C207 H194 0.930 . S
C207 C206 1.376 . S
C207 C208 1.388 . S
C208 H195 0.930 . S
C208 C207 1.388 . S
C208 C209 1.390 . S
C209 C208 1.390 . S
C209 C210 1.394 . S
C209 C215 1.465 . S
C210 C205 1.399 . S
C210 C209 1.394 . S
C210 C211 1.516 . S
C211 C210 1.516 . S
C211 C212 1.502 . S
C211 C213 1.561 . S
C211 C214 1.526 . S
C212 H196 0.959 . S
C212 H197 0.959 . S
C212 H198 0.961 . S
C212 C211 1.502 . S
C213 H199 0.960 . S
C213 H200 0.961 . S
C213 H201 0.959 . S
C213 C211 1.561 . S
C214 C211 1.526 . S
C214 C215 1.396 . S
C214 C219 1.390 . S
C215 C209 1.465 . S
C215 C214 1.396 . S
C215 C216 1.399 . S
C216 H202 0.929 . S
C216 C215 1.399 . S
C216 C217 1.385 . S
C217 H203 0.931 . S
C217 C216 1.385 . S
C217 C218 1.389 . S
C218 C217 1.389 . S
C218 C219 1.387 . S
C219 H204 0.930 . S
C219 C214 1.390 . S
C219 C218 1.387 . S
H220 C232 0.930 . S
H221 C234 0.930 . S
H222 C235 0.930 . S
H223 C239 0.959 . S
H224 C239 0.959 . S
H225 C239 0.961 . S
H226 C240 0.960 . S
H227 C240 0.961 . S
H228 C240 0.959 . S
H229 C243 0.929 1_455 S
H230 C244 0.931 . S
H231 C246 0.930 . S
C232 H220 0.930 . S
C232 C233 1.399 . S
C232 C237 1.399 . S
C233 C232 1.399 . S
C233 C234 1.376 . S
C234 H221 0.930 . S
C234 C233 1.376 . S
C234 C235 1.388 . S
C235 H222 0.930 . S
C235 C234 1.388 . S
C235 C236 1.390 . S
C236 C235 1.390 . S
C236 C237 1.394 . S
C236 C242 1.465 . S
C237 C232 1.399 . S
C237 C236 1.394 . S
C237 C238 1.516 . S
C238 C237 1.516 . S
C238 C239 1.502 1_455 S
C238 C240 1.561 . S
C238 C241 1.525 1_455 S
C239 H223 0.959 . S
C239 H224 0.959 . S
C239 H225 0.961 . S
C239 C238 1.502 1_655 S
C240 H226 0.960 . S
C240 H227 0.961 . S
C240 H228 0.959 . S
C240 C238 1.561 . S
C241 C238 1.525 1_655 S
C241 C242 1.396 1_655 S
C241 C246 1.390 . S
C242 C236 1.465 . S
C242 C241 1.396 1_455 S
C242 C243 1.399 1_455 S
C243 H229 0.929 1_655 S
C243 C242 1.399 1_655 S
C243 C244 1.385 . S
C244 H230 0.931 . S
C244 C243 1.385 . S
C244 C245 1.389 . S
C245 C244 1.389 . S
C245 C246 1.387 . S
C246 H231 0.930 . S
C246 C241 1.390 . S
C246 C245 1.387 . S
H247 C259 0.930 . S
H248 C261 0.930 . S
H249 C262 0.930 . S
H250 C266 0.959 . S
H251 C266 0.959 . S
H252 C266 0.961 . S
H253 C267 0.960 . S
H254 C267 0.961 . S
H255 C267 0.959 . S
H256 C270 0.929 . S
H257 C271 0.931 . S
H258 C273 0.930 . S
C259 H247 0.930 . S
C259 C260 1.399 1_655 S
C259 C264 1.399 . S
C260 C259 1.399 1_455 S
C260 C261 1.376 . S
C261 H248 0.930 . S
C261 C260 1.376 . S
C261 C262 1.388 . S
C262 H249 0.930 . S
C262 C261 1.388 . S
C262 C263 1.390 . S
C263 C262 1.390 . S
C263 C264 1.394 1_455 S
C263 C269 1.465 . S
C264 C259 1.399 . S
C264 C263 1.394 1_655 S
C264 C265 1.516 . S
C265 C264 1.516 . S
C265 C266 1.502 . S
C265 C267 1.561 1_655 S
C265 C268 1.526 . S
C266 H250 0.959 . S
C266 H251 0.959 . S
C266 H252 0.961 . S
C266 C265 1.502 . S
C267 H253 0.960 . S
C267 H254 0.961 . S
C267 H255 0.959 . S
C267 C265 1.561 1_455 S
C268 C265 1.526 . S
C268 C269 1.396 1_655 S
C268 C273 1.390 . S
C269 C263 1.465 . S
C269 C268 1.396 1_455 S
C269 C270 1.399 . S
C270 H256 0.929 . S
C270 C269 1.399 . S
C270 C271 1.385 . S
C271 H257 0.931 . S
C271 C270 1.385 . S
C271 C272 1.389 1_455 S
C272 C271 1.389 1_655 S
C272 C273 1.387 . S
C273 H258 0.930 . S
C273 C268 1.390 . S
C273 C272 1.387 . S
H274 C286 0.930 . S
H275 C288 0.930 . S
H276 C289 0.930 . S
H277 C293 0.959 . S
H278 C293 0.959 . S
H279 C293 0.961 . S
H280 C294 0.960 . S
H281 C294 0.961 1_655 S
H282 C294 0.959 . S
H283 C297 0.929 . S
H284 C298 0.931 . S
H285 C300 0.930 . S
C286 H274 0.930 . S
C286 C287 1.399 1_655 S
C286 C291 1.399 . S
C287 C286 1.399 1_455 S
C287 C288 1.376 . S
C288 H275 0.930 . S
C288 C287 1.376 . S
C288 C289 1.388 . S
C289 H276 0.930 . S
C289 C288 1.388 . S
C289 C290 1.390 . S
C290 C289 1.390 . S
C290 C291 1.394 1_455 S
C290 C296 1.465 . S
C291 C286 1.399 . S
C291 C290 1.394 1_655 S
C291 C292 1.516 . S
C292 C291 1.516 . S
C292 C293 1.502 . S
C292 C294 1.561 1_655 S
C292 C295 1.526 . S
C293 H277 0.959 . S
C293 H278 0.959 . S
C293 H279 0.961 . S
C293 C292 1.502 . S
C294 H280 0.960 . S
C294 H281 0.961 1_455 S
C294 H282 0.959 . S
C294 C292 1.561 1_455 S
C295 C292 1.526 . S
C295 C296 1.396 1_655 S
C295 C300 1.390 . S
C296 C290 1.465 . S
C296 C295 1.396 1_455 S
C296 C297 1.399 . S
C297 H283 0.929 . S
C297 C296 1.399 . S
C297 C298 1.385 . S
C298 H284 0.931 . S
C298 C297 1.385 . S
C298 C299 1.389 1_455 S
C299 C298 1.389 1_655 S
C299 C300 1.387 . S
C300 H285 0.930 . S
C300 C295 1.390 . S
C300 C299 1.387 . S
H301 C313 0.930 . S
H302 C315 0.930 . S
H303 C316 0.930 . S
H304 C320 0.959 . S
H305 C320 0.959 . S
H306 C320 0.961 . S
H307 C321 0.960 . S
H308 C321 0.961 . S
H309 C321 0.959 . S
H310 C324 0.929 . S
H311 C325 0.931 . S
H312 C327 0.930 . S
C313 H301 0.930 . S
C313 C314 1.399 1_655 S
C313 C318 1.399 . S
C314 C313 1.399 1_455 S
C314 C315 1.376 . S
C315 H302 0.930 . S
C315 C314 1.376 . S
C315 C316 1.388 . S
C316 H303 0.930 . S
C316 C315 1.388 . S
C316 C317 1.390 . S
C317 C316 1.390 . S
C317 C318 1.394 1_455 S
C317 C323 1.465 . S
C318 C313 1.399 . S
C318 C317 1.394 1_655 S
C318 C319 1.516 . S
C319 C318 1.516 . S
C319 C320 1.502 . S
C319 C321 1.561 1_655 S
C319 C322 1.526 . S
C320 H304 0.959 . S
C320 H305 0.959 . S
C320 H306 0.961 . S
C320 C319 1.502 . S
C321 H307 0.960 . S
C321 H308 0.961 . S
C321 H309 0.959 . S
C321 C319 1.561 1_455 S
C322 C319 1.526 . S
C322 C323 1.396 1_655 S
C322 C327 1.390 . S
C323 C317 1.465 . S
C323 C322 1.396 1_455 S
C323 C324 1.399 . S
C324 H310 0.929 . S
C324 C323 1.399 . S
C324 C325 1.385 . S
C325 H311 0.931 . S
C325 C324 1.385 . S
C325 C326 1.389 1_455 S
C326 C325 1.389 1_655 S
C326 C327 1.387 . S
C327 H312 0.930 . S
C327 C322 1.390 . S
C327 C326 1.387 . S
H328 C340 0.930 . S
H329 C342 0.930 . S
H330 C343 0.930 . S
H331 C347 0.959 . S
H332 C347 0.959 . S
H333 C347 0.961 . S
H334 C348 0.960 . S
H335 C348 0.961 . S
H336 C348 0.959 . S
H337 C351 0.929 . S
H338 C352 0.931 . S
H339 C354 0.930 . S
C340 H328 0.930 . S
C340 C341 1.399 . S
C340 C345 1.399 . S
C341 C340 1.399 . S
C341 C342 1.376 . S
C342 H329 0.930 . S
C342 C341 1.376 . S
C342 C343 1.388 . S
C343 H330 0.930 . S
C343 C342 1.388 . S
C343 C344 1.390 . S
C344 C343 1.390 . S
C344 C345 1.394 . S
C344 C350 1.465 . S
C345 C340 1.399 . S
C345 C344 1.394 . S
C345 C346 1.516 . S
C346 C345 1.516 . S
C346 C347 1.502 . S
C346 C348 1.561 . S
C346 C349 1.526 . S
C347 H331 0.959 . S
C347 H332 0.959 . S
C347 H333 0.961 . S
C347 C346 1.502 . S
C348 H334 0.960 . S
C348 H335 0.961 . S
C348 H336 0.959 . S
C348 C346 1.561 . S
C349 C346 1.526 . S
C349 C350 1.396 . S
C349 C354 1.390 . S
C350 C344 1.465 . S
C350 C349 1.396 . S
C350 C351 1.399 . S
C351 H337 0.929 . S
C351 C350 1.399 . S
C351 C352 1.385 . S
C352 H338 0.931 . S
C352 C351 1.385 . S
C352 C353 1.389 . S
C353 C352 1.389 . S
C353 C354 1.387 . S
C354 H339 0.930 . S
C354 C349 1.390 . S
C354 C353 1.387 . S
H355 C367 0.930 . S
H356 C369 0.930 . S
H357 C370 0.930 . S
H358 C374 0.959 . S
H359 C374 0.959 . S
H360 C374 0.961 . S
H361 C375 0.960 . S
H362 C375 0.961 . S
H363 C375 0.959 . S
H364 C378 0.929 . S
H365 C379 0.931 . S
H366 C381 0.930 . S
C367 H355 0.930 . S
C367 C368 1.399 . S
C367 C372 1.399 . S
C368 C367 1.399 . S
C368 C369 1.376 . S
C369 H356 0.930 . S
C369 C368 1.376 . S
C369 C370 1.388 . S
C370 H357 0.930 . S
C370 C369 1.388 . S
C370 C371 1.390 . S
C371 C370 1.390 . S
C371 C372 1.394 . S
C371 C377 1.465 . S
C372 C367 1.399 . S
C372 C371 1.394 . S
C372 C373 1.516 . S
C373 C372 1.516 . S
C373 C374 1.502 . S
C373 C375 1.561 . S
C373 C376 1.526 . S
C374 H358 0.959 . S
C374 H359 0.959 . S
C374 H360 0.961 . S
C374 C373 1.502 . S
C375 H361 0.960 . S
C375 H362 0.961 . S
C375 H363 0.959 . S
C375 C373 1.561 . S
C376 C373 1.526 . S
C376 C377 1.396 . S
C376 C381 1.390 . S
C377 C371 1.465 . S
C377 C376 1.396 . S
C377 C378 1.399 . S
C378 H364 0.929 . S
C378 C377 1.399 . S
C378 C379 1.385 . S
C379 H365 0.931 . S
C379 C378 1.385 . S
C379 C380 1.389 . S
C380 C379 1.389 . S
C380 C381 1.387 . S
C381 H366 0.930 . S
C381 C376 1.390 . S
C381 C380 1.387 . S
H382 C394 0.930 . S
H383 C396 0.930 . S
H384 C397 0.930 . S
H385 C401 0.959 . S
H386 C401 0.959 . S
H387 C401 0.961 . S
H388 C402 0.960 . S
H389 C402 0.961 . S
H390 C402 0.959 . S
H391 C405 0.929 . S
H392 C406 0.931 . S
H393 C408 0.930 . S
C394 H382 0.930 . S
C394 C395 1.399 . S
C394 C399 1.399 . S
C395 C394 1.399 . S
C395 C396 1.376 . S
C396 H383 0.930 . S
C396 C395 1.376 . S
C396 C397 1.388 . S
C397 H384 0.930 . S
C397 C396 1.388 . S
C397 C398 1.390 . S
C398 C397 1.390 . S
C398 C399 1.394 . S
C398 C404 1.465 . S
C399 C394 1.399 . S
C399 C398 1.394 . S
C399 C400 1.516 . S
C400 C399 1.516 . S
C400 C401 1.502 . S
C400 C402 1.561 . S
C400 C403 1.526 . S
C401 H385 0.959 . S
C401 H386 0.959 . S
C401 H387 0.961 . S
C401 C400 1.502 . S
C402 H388 0.960 . S
C402 H389 0.961 . S
C402 H390 0.959 . S
C402 C400 1.561 . S
C403 C400 1.526 . S
C403 C404 1.396 . S
C403 C408 1.390 . S
C404 C398 1.465 . S
C404 C403 1.396 . S
C404 C405 1.399 . S
C405 H391 0.929 . S
C405 C404 1.399 . S
C405 C406 1.385 . S
C406 H392 0.931 . S
C406 C405 1.385 . S
C406 C407 1.389 . S
C407 C406 1.389 . S
C407 C408 1.387 . S
C408 H393 0.930 . S
C408 C403 1.390 . S
C408 C407 1.387 . S
H409 C421 0.930 . S
H410 C423 0.930 . S
H411 C424 0.930 . S
H412 C428 0.959 . S
H413 C428 0.959 . S
H414 C428 0.961 . S
H415 C429 0.960 . S
H416 C429 0.961 . S
H417 C429 0.959 . S
H418 C432 0.929 . S
H419 C433 0.931 . S
H420 C435 0.930 . S
C421 H409 0.930 . S
C421 C422 1.399 . S
C421 C426 1.399 . S
C422 C421 1.399 . S
C422 C423 1.376 . S
C423 H410 0.930 . S
C423 C422 1.376 . S
C423 C424 1.388 . S
C424 H411 0.930 . S
C424 C423 1.388 . S
C424 C425 1.390 . S
C425 C424 1.390 . S
C425 C426 1.394 . S
C425 C431 1.465 . S
C426 C421 1.399 . S
C426 C425 1.394 . S
C426 C427 1.516 . S
C427 C426 1.516 . S
C427 C428 1.502 . S
C427 C429 1.561 . S
C427 C430 1.526 . S
C428 H412 0.959 . S
C428 H413 0.959 . S
C428 H414 0.961 . S
C428 C427 1.502 . S
C429 H415 0.960 . S
C429 H416 0.961 . S
C429 H417 0.959 . S
C429 C427 1.561 . S
C430 C427 1.526 . S
C430 C431 1.396 . S
C430 C435 1.390 . S
C431 C425 1.465 . S
C431 C430 1.396 . S
C431 C432 1.399 . S
C432 H418 0.929 . S
C432 C431 1.399 . S
C432 C433 1.385 . S
C433 H419 0.931 . S
C433 C432 1.385 . S
C433 C434 1.389 . S
C434 C433 1.389 . S
C434 C435 1.387 . S
C435 H420 0.930 . S
C435 C430 1.390 . S
C435 C434 1.387 . S
H436 C448 0.930 . S
H437 C450 0.930 . S
H438 C451 0.930 . S
H439 C455 0.959 . S
H440 C455 0.959 . S
H441 C455 0.961 . S
H442 C456 0.960 . S
H443 C456 0.961 . S
H444 C456 0.959 . S
H445 C459 0.929 . S
H446 C460 0.931 . S
H447 C462 0.930 . S
C448 H436 0.930 . S
C448 C449 1.399 1_556 S
C448 C453 1.399 . S
C449 C448 1.399 1_554 S
C449 C450 1.376 . S
C450 H437 0.930 . S
C450 C449 1.376 . S
C450 C451 1.388 . S
C451 H438 0.930 . S
C451 C450 1.388 . S
C451 C452 1.390 . S
C452 C451 1.390 . S
C452 C453 1.394 1_554 S
C452 C458 1.465 . S
C453 C448 1.399 . S
C453 C452 1.394 1_556 S
C453 C454 1.516 . S
C454 C453 1.516 . S
C454 C455 1.502 . S
C454 C456 1.561 . S
C454 C457 1.526 . S
C455 H439 0.959 . S
C455 H440 0.959 . S
C455 H441 0.961 . S
C455 C454 1.502 . S
C456 H442 0.960 . S
C456 H443 0.961 . S
C456 H444 0.959 . S
C456 C454 1.561 . S
C457 C454 1.526 . S
C457 C458 1.396 1_556 S
C457 C462 1.390 . S
C458 C452 1.465 . S
C458 C457 1.396 1_554 S
C458 C459 1.399 . S
C459 H445 0.929 . S
C459 C458 1.399 . S
C459 C460 1.385 . S
C460 H446 0.931 . S
C460 C459 1.385 . S
C460 C461 1.389 . S
C461 C460 1.389 . S
C461 C462 1.387 1_554 S
C462 H447 0.930 . S
C462 C457 1.390 . S
C462 C461 1.387 1_556 S
H463 C475 0.930 . S
H464 C477 0.930 . S
H465 C478 0.930 . S
H466 C482 0.959 . S
H467 C482 0.959 . S
H468 C482 0.961 . S
H469 C483 0.960 . S
H470 C483 0.961 . S
H471 C483 0.959 . S
H472 C486 0.929 . S
H473 C487 0.931 . S
H474 C489 0.930 . S
C475 H463 0.930 . S
C475 C476 1.399 . S
C475 C480 1.399 . S
C476 C475 1.399 . S
C476 C477 1.376 1_554 S
C477 H464 0.930 . S
C477 C476 1.376 1_556 S
C477 C478 1.388 . S
C478 H465 0.930 . S
C478 C477 1.388 . S
C478 C479 1.390 . S
C479 C478 1.390 . S
C479 C480 1.394 1_556 S
C479 C485 1.465 . S
C480 C475 1.399 . S
C480 C479 1.394 1_554 S
C480 C481 1.516 . S
C481 C480 1.516 . S
C481 C482 1.502 . S
C481 C483 1.561 . S
C481 C484 1.526 . S
C482 H466 0.959 . S
C482 H467 0.959 . S
C482 H468 0.961 . S
C482 C481 1.502 . S
C483 H469 0.960 . S
C483 H470 0.961 . S
C483 H471 0.959 . S
C483 C481 1.561 . S
C484 C481 1.526 . S
C484 C485 1.396 1_554 S
C484 C489 1.390 . S
C485 C479 1.465 . S
C485 C484 1.396 1_556 S
C485 C486 1.399 . S
C486 H472 0.929 . S
C486 C485 1.399 . S
C486 C487 1.385 . S
C487 H473 0.931 . S
C487 C486 1.385 . S
C487 C488 1.389 1_556 S
C488 C487 1.389 1_554 S
C488 C489 1.387 . S
C489 H474 0.930 . S
C489 C484 1.390 . S
C489 C488 1.387 . S
H490 C502 0.930 . S
H491 C504 0.930 . S
H492 C505 0.930 . S
H493 C509 0.959 . S
H494 C509 0.959 . S
H495 C509 0.961 . S
H496 C510 0.960 . S
H497 C510 0.961 . S
H498 C510 0.959 . S
H499 C513 0.929 . S
H500 C514 0.931 . S
H501 C516 0.930 . S
C502 H490 0.930 . S
C502 C503 1.399 . S
C502 C507 1.399 . S
C503 C502 1.399 . S
C503 C504 1.376 . S
C504 H491 0.930 . S
C504 C503 1.376 . S
C504 C505 1.388 . S
C505 H492 0.930 . S
C505 C504 1.388 . S
C505 C506 1.390 . S
C506 C505 1.390 . S
C506 C507 1.394 . S
C506 C512 1.465 . S
C507 C502 1.399 . S
C507 C506 1.394 . S
C507 C508 1.516 . S
C508 C507 1.516 . S
C508 C509 1.502 . S
C508 C510 1.561 . S
C508 C511 1.526 . S
C509 H493 0.959 . S
C509 H494 0.959 . S
C509 H495 0.961 . S
C509 C508 1.502 . S
C510 H496 0.960 . S
C510 H497 0.961 . S
C510 H498 0.959 . S
C510 C508 1.561 . S
C511 C508 1.526 . S
C511 C512 1.396 . S
C511 C516 1.390 . S
C512 C506 1.465 . S
C512 C511 1.396 . S
C512 C513 1.399 . S
C513 H499 0.929 . S
C513 C512 1.399 . S
C513 C514 1.385 . S
C514 H500 0.931 . S
C514 C513 1.385 . S
C514 C515 1.389 . S
C515 C514 1.389 . S
C515 C516 1.387 . S
C516 H501 0.930 . S
C516 C511 1.390 . S
C516 C515 1.387 . S
H517 C529 0.930 . S
H518 C531 0.930 . S
H519 C532 0.930 . S
H520 C536 0.959 . S
H521 C536 0.959 . S
H522 C536 0.961 . S
H523 C537 0.960 . S
H524 C537 0.961 . S
H525 C537 0.959 . S
H526 C540 0.929 . S
H527 C541 0.931 . S
H528 C543 0.930 . S
C529 H517 0.930 . S
C529 C530 1.399 . S
C529 C534 1.399 . S
C530 C529 1.399 . S
C530 C531 1.376 . S
C531 H518 0.930 . S
C531 C530 1.376 . S
C531 C532 1.388 . S
C532 H519 0.930 . S
C532 C531 1.388 . S
C532 C533 1.390 . S
C533 C532 1.390 . S
C533 C534 1.394 . S
C533 C539 1.465 . S
C534 C529 1.399 . S
C534 C533 1.394 . S
C534 C535 1.516 . S
C535 C534 1.516 . S
C535 C536 1.502 . S
C535 C537 1.561 . S
C535 C538 1.526 . S
C536 H520 0.959 . S
C536 H521 0.959 . S
C536 H522 0.961 . S
C536 C535 1.502 . S
C537 H523 0.960 . S
C537 H524 0.961 . S
C537 H525 0.959 . S
C537 C535 1.561 . S
C538 C535 1.526 . S
C538 C539 1.396 . S
C538 C543 1.390 . S
C539 C533 1.465 . S
C539 C538 1.396 . S
C539 C540 1.399 . S
C540 H526 0.929 . S
C540 C539 1.399 . S
C540 C541 1.385 . S
C541 H527 0.931 . S
C541 C540 1.385 . S
C541 C542 1.389 . S
C542 C541 1.389 . S
C542 C543 1.387 . S
C543 H528 0.930 . S
C543 C538 1.390 . S
C543 C542 1.387 . S
C125 C23 1.451 . S
C137 C9 1.496 . S
C152 C37 1.456 . S
C164 C51 1.487 . S
C179 C65 1.497 . S
C191 C79 1.466 . S
C206 C93 1.465 . S
C218 C107 1.475 . S
C233 C7 1.300 . S
C245 C49 1.298 . S
C260 C35 1.294 . S
C272 C21 1.290 . S
C287 C31 1.216 . S
C299 C17 1.262 . S
C314 C3 1.217 . S
C326 C45 1.258 . S
C341 C63 1.244 . S
C353 C105 1.248 . S
C368 C91 1.299 . S
C380 C77 1.297 . S
C395 C73 1.218 . S
C407 C87 1.254 . S
C422 C59 1.298 . S
C434 C101 1.256 . S
C449 C78 1.510 . S
C461 C8 1.502 . S
C476 C64 1.490 . S
C488 C22 1.498 . S
C503 C36 1.490 . S
C515 C106 1.501 . S
C530 C92 1.490 . S
C542 C50 1.502 . S
