# Generated by pormake.
# Topology gie, (4)-cn, num edge types: 1
# Building blocks:
#     Node 0, Type 0, BuildingBlock: QUQFOY_clean_sbu_1, # of connection points: 4
#     Node 1, Type 0, BuildingBlock: QUQFOY_clean_sbu_1, # of connection points: 4
#     Node 2, Type 0, BuildingBlock: QUQFOY_clean_sbu_1, # of connection points: 4
#     Node 3, Type 0, BuildingBlock: QUQFOY_clean_sbu_1, # of connection points: 4
#     Node 4, Type 0, BuildingBlock: QUQFOY_clean_sbu_1, # of connection points: 4
#     Node 5, Type 0, BuildingBlock: QUQFOY_clean_sbu_1, # of connection points: 4
#     Node 6, Type 0, BuildingBlock: QUQFOY_clean_sbu_1, # of connection points: 4
#     Node 7, Type 0, BuildingBlock: QUQFOY_clean_sbu_1, # of connection points: 4
#     Node 8, Type 0, BuildingBlock: QUQFOY_clean_sbu_1, # of connection points: 4
#     Node 9, Type 0, BuildingBlock: QUQFOY_clean_sbu_1, # of connection points: 4
#     Node 10, Type 0, BuildingBlock: QUQFOY_clean_sbu_1, # of connection points: 4
#     Node 11, Type 0, BuildingBlock: QUQFOY_clean_sbu_1, # of connection points: 4
#     Node 12, Type 0, BuildingBlock: QUQFOY_clean_sbu_1, # of connection points: 4
#     Node 13, Type 0, BuildingBlock: QUQFOY_clean_sbu_1, # of connection points: 4
#     Node 14, Type 0, BuildingBlock: QUQFOY_clean_sbu_1, # of connection points: 4
#     Node 15, Type 0, BuildingBlock: QUQFOY_clean_sbu_1, # of connection points: 4
#     Node 16, Type 0, BuildingBlock: QUQFOY_clean_sbu_1, # of connection points: 4
#     Node 17, Type 0, BuildingBlock: QUQFOY_clean_sbu_1, # of connection points: 4
#     Node 18, Type 0, BuildingBlock: QUQFOY_clean_sbu_1, # of connection points: 4
#     Node 19, Type 0, BuildingBlock: QUQFOY_clean_sbu_1, # of connection points: 4
#     Node 20, Type 0, BuildingBlock: QUQFOY_clean_sbu_1, # of connection points: 4
#     Node 21, Type 0, BuildingBlock: QUQFOY_clean_sbu_1, # of connection points: 4
#     Node 22, Type 0, BuildingBlock: QUQFOY_clean_sbu_1, # of connection points: 4
#     Node 23, Type 0, BuildingBlock: QUQFOY_clean_sbu_1, # of connection points: 4
#     Node 24, Type 0, BuildingBlock: QUQFOY_clean_sbu_1, # of connection points: 4
#     Node 25, Type 0, BuildingBlock: QUQFOY_clean_sbu_1, # of connection points: 4
#     Node 26, Type 0, BuildingBlock: QUQFOY_clean_sbu_1, # of connection points: 4
#     Node 27, Type 0, BuildingBlock: QUQFOY_clean_sbu_1, # of connection points: 4
#     Node 28, Type 0, BuildingBlock: QUQFOY_clean_sbu_1, # of connection points: 4
#     Node 29, Type 0, BuildingBlock: QUQFOY_clean_sbu_1, # of connection points: 4
#     Node 30, Type 0, BuildingBlock: QUQFOY_clean_sbu_1, # of connection points: 4
#     Node 31, Type 0, BuildingBlock: QUQFOY_clean_sbu_1, # of connection points: 4
#     Node 32, Type 0, BuildingBlock: QUQFOY_clean_sbu_1, # of connection points: 4
#     Node 33, Type 0, BuildingBlock: QUQFOY_clean_sbu_1, # of connection points: 4
#     Node 34, Type 0, BuildingBlock: QUQFOY_clean_sbu_1, # of connection points: 4
#     Node 35, Type 0, BuildingBlock: QUQFOY_clean_sbu_1, # of connection points: 4
#     Node 36, Type 0, BuildingBlock: QUQFOY_clean_sbu_1, # of connection points: 4
#     Node 37, Type 0, BuildingBlock: QUQFOY_clean_sbu_1, # of connection points: 4
#     Node 38, Type 0, BuildingBlock: QUQFOY_clean_sbu_1, # of connection points: 4
#     Node 39, Type 0, BuildingBlock: QUQFOY_clean_sbu_1, # of connection points: 4
#     Node 40, Type 0, BuildingBlock: QUQFOY_clean_sbu_1, # of connection points: 4
#     Node 41, Type 0, BuildingBlock: QUQFOY_clean_sbu_1, # of connection points: 4
#     Node 42, Type 0, BuildingBlock: QUQFOY_clean_sbu_1, # of connection points: 4
#     Node 43, Type 0, BuildingBlock: QUQFOY_clean_sbu_1, # of connection points: 4
#     Node 44, Type 0, BuildingBlock: QUQFOY_clean_sbu_1, # of connection points: 4
#     Node 45, Type 0, BuildingBlock: QUQFOY_clean_sbu_1, # of connection points: 4
#     Node 46, Type 0, BuildingBlock: QUQFOY_clean_sbu_1, # of connection points: 4
#     Node 47, Type 0, BuildingBlock: QUQFOY_clean_sbu_1, # of connection points: 4
#     Node 48, Type 0, BuildingBlock: QUQFOY_clean_sbu_1, # of connection points: 4
#     Node 49, Type 0, BuildingBlock: QUQFOY_clean_sbu_1, # of connection points: 4
#     Node 50, Type 0, BuildingBlock: QUQFOY_clean_sbu_1, # of connection points: 4
#     Node 51, Type 0, BuildingBlock: QUQFOY_clean_sbu_1, # of connection points: 4
#     Node 52, Type 0, BuildingBlock: QUQFOY_clean_sbu_1, # of connection points: 4
#     Node 53, Type 0, BuildingBlock: QUQFOY_clean_sbu_1, # of connection points: 4
#     Node 54, Type 0, BuildingBlock: QUQFOY_clean_sbu_1, # of connection points: 4
#     Node 55, Type 0, BuildingBlock: QUQFOY_clean_sbu_1, # of connection points: 4
#     Node 56, Type 0, BuildingBlock: QUQFOY_clean_sbu_1, # of connection points: 4
#     Node 57, Type 0, BuildingBlock: QUQFOY_clean_sbu_1, # of connection points: 4
#     Node 58, Type 0, BuildingBlock: QUQFOY_clean_sbu_1, # of connection points: 4
#     Node 59, Type 0, BuildingBlock: QUQFOY_clean_sbu_1, # of connection points: 4
#     Node 60, Type 0, BuildingBlock: QUQFOY_clean_sbu_1, # of connection points: 4
#     Node 61, Type 0, BuildingBlock: QUQFOY_clean_sbu_1, # of connection points: 4
#     Node 62, Type 0, BuildingBlock: QUQFOY_clean_sbu_1, # of connection points: 4
#     Node 63, Type 0, BuildingBlock: QUQFOY_clean_sbu_1, # of connection points: 4
#     Node 64, Type 0, BuildingBlock: QUQFOY_clean_sbu_1, # of connection points: 4
#     Node 65, Type 0, BuildingBlock: QUQFOY_clean_sbu_1, # of connection points: 4
#     Node 66, Type 0, BuildingBlock: QUQFOY_clean_sbu_1, # of connection points: 4
#     Node 67, Type 0, BuildingBlock: QUQFOY_clean_sbu_1, # of connection points: 4
#     Node 68, Type 0, BuildingBlock: QUQFOY_clean_sbu_1, # of connection points: 4
#     Node 69, Type 0, BuildingBlock: QUQFOY_clean_sbu_1, # of connection points: 4
#     Node 70, Type 0, BuildingBlock: QUQFOY_clean_sbu_1, # of connection points: 4
#     Node 71, Type 0, BuildingBlock: QUQFOY_clean_sbu_1, # of connection points: 4
#     Node 72, Type 0, BuildingBlock: QUQFOY_clean_sbu_1, # of connection points: 4
#     Node 73, Type 0, BuildingBlock: QUQFOY_clean_sbu_1, # of connection points: 4
#     Node 74, Type 0, BuildingBlock: QUQFOY_clean_sbu_1, # of connection points: 4
#     Node 75, Type 0, BuildingBlock: QUQFOY_clean_sbu_1, # of connection points: 4
#     Node 76, Type 0, BuildingBlock: QUQFOY_clean_sbu_1, # of connection points: 4
#     Node 77, Type 0, BuildingBlock: QUQFOY_clean_sbu_1, # of connection points: 4
#     Node 78, Type 0, BuildingBlock: QUQFOY_clean_sbu_1, # of connection points: 4
#     Node 79, Type 0, BuildingBlock: QUQFOY_clean_sbu_1, # of connection points: 4
#     Node 80, Type 0, BuildingBlock: QUQFOY_clean_sbu_1, # of connection points: 4
#     Node 81, Type 0, BuildingBlock: QUQFOY_clean_sbu_1, # of connection points: 4
#     Node 82, Type 0, BuildingBlock: QUQFOY_clean_sbu_1, # of connection points: 4
#     Node 83, Type 0, BuildingBlock: QUQFOY_clean_sbu_1, # of connection points: 4
#     Node 84, Type 0, BuildingBlock: QUQFOY_clean_sbu_1, # of connection points: 4
#     Node 85, Type 0, BuildingBlock: QUQFOY_clean_sbu_1, # of connection points: 4
#     Node 86, Type 0, BuildingBlock: QUQFOY_clean_sbu_1, # of connection points: 4
#     Node 87, Type 0, BuildingBlock: QUQFOY_clean_sbu_1, # of connection points: 4
#     Node 88, Type 0, BuildingBlock: QUQFOY_clean_sbu_1, # of connection points: 4
#     Node 89, Type 0, BuildingBlock: QUQFOY_clean_sbu_1, # of connection points: 4
#     Node 90, Type 0, BuildingBlock: QUQFOY_clean_sbu_1, # of connection points: 4
#     Node 91, Type 0, BuildingBlock: QUQFOY_clean_sbu_1, # of connection points: 4
#     Node 92, Type 0, BuildingBlock: QUQFOY_clean_sbu_1, # of connection points: 4
#     Node 93, Type 0, BuildingBlock: QUQFOY_clean_sbu_1, # of connection points: 4
#     Node 94, Type 0, BuildingBlock: QUQFOY_clean_sbu_1, # of connection points: 4
#     Node 95, Type 0, BuildingBlock: QUQFOY_clean_sbu_1, # of connection points: 4
#     Edge 96, Type (0, 0), BuildingBlock: AJUNOK_clean_linker_0, # of connection points: 2
#     Edge 97, Type (0, 0), BuildingBlock: AJUNOK_clean_linker_0, # of connection points: 2
#     Edge 98, Type (0, 0), BuildingBlock: AJUNOK_clean_linker_0, # of connection points: 2
#     Edge 99, Type (0, 0), BuildingBlock: AJUNOK_clean_linker_0, # of connection points: 2
#     Edge 100, Type (0, 0), BuildingBlock: AJUNOK_clean_linker_0, # of connection points: 2
#     Edge 101, Type (0, 0), BuildingBlock: AJUNOK_clean_linker_0, # of connection points: 2
#     Edge 102, Type (0, 0), BuildingBlock: AJUNOK_clean_linker_0, # of connection points: 2
#     Edge 103, Type (0, 0), BuildingBlock: AJUNOK_clean_linker_0, # of connection points: 2
#     Edge 104, Type (0, 0), BuildingBlock: AJUNOK_clean_linker_0, # of connection points: 2
#     Edge 105, Type (0, 0), BuildingBlock: AJUNOK_clean_linker_0, # of connection points: 2
#     Edge 106, Type (0, 0), BuildingBlock: AJUNOK_clean_linker_0, # of connection points: 2
#     Edge 107, Type (0, 0), BuildingBlock: AJUNOK_clean_linker_0, # of connection points: 2
#     Edge 108, Type (0, 0), BuildingBlock: AJUNOK_clean_linker_0, # of connection points: 2
#     Edge 109, Type (0, 0), BuildingBlock: AJUNOK_clean_linker_0, # of connection points: 2
#     Edge 110, Type (0, 0), BuildingBlock: AJUNOK_clean_linker_0, # of connection points: 2
#     Edge 111, Type (0, 0), BuildingBlock: AJUNOK_clean_linker_0, # of connection points: 2
#     Edge 112, Type (0, 0), BuildingBlock: AJUNOK_clean_linker_0, # of connection points: 2
#     Edge 113, Type (0, 0), BuildingBlock: AJUNOK_clean_linker_0, # of connection points: 2
#     Edge 114, Type (0, 0), BuildingBlock: AJUNOK_clean_linker_0, # of connection points: 2
#     Edge 115, Type (0, 0), BuildingBlock: AJUNOK_clean_linker_0, # of connection points: 2
#     Edge 116, Type (0, 0), BuildingBlock: AJUNOK_clean_linker_0, # of connection points: 2
#     Edge 117, Type (0, 0), BuildingBlock: AJUNOK_clean_linker_0, # of connection points: 2
#     Edge 118, Type (0, 0), BuildingBlock: AJUNOK_clean_linker_0, # of connection points: 2
#     Edge 119, Type (0, 0), BuildingBlock: AJUNOK_clean_linker_0, # of connection points: 2
#     Edge 120, Type (0, 0), BuildingBlock: AJUNOK_clean_linker_0, # of connection points: 2
#     Edge 121, Type (0, 0), BuildingBlock: AJUNOK_clean_linker_0, # of connection points: 2
#     Edge 122, Type (0, 0), BuildingBlock: AJUNOK_clean_linker_0, # of connection points: 2
#     Edge 123, Type (0, 0), BuildingBlock: AJUNOK_clean_linker_0, # of connection points: 2
#     Edge 124, Type (0, 0), BuildingBlock: AJUNOK_clean_linker_0, # of connection points: 2
#     Edge 125, Type (0, 0), BuildingBlock: AJUNOK_clean_linker_0, # of connection points: 2
#     Edge 126, Type (0, 0), BuildingBlock: AJUNOK_clean_linker_0, # of connection points: 2
#     Edge 127, Type (0, 0), BuildingBlock: AJUNOK_clean_linker_0, # of connection points: 2
#     Edge 128, Type (0, 0), BuildingBlock: AJUNOK_clean_linker_0, # of connection points: 2
#     Edge 129, Type (0, 0), BuildingBlock: AJUNOK_clean_linker_0, # of connection points: 2
#     Edge 130, Type (0, 0), BuildingBlock: AJUNOK_clean_linker_0, # of connection points: 2
#     Edge 131, Type (0, 0), BuildingBlock: AJUNOK_clean_linker_0, # of connection points: 2
#     Edge 132, Type (0, 0), BuildingBlock: AJUNOK_clean_linker_0, # of connection points: 2
#     Edge 133, Type (0, 0), BuildingBlock: AJUNOK_clean_linker_0, # of connection points: 2
#     Edge 134, Type (0, 0), BuildingBlock: AJUNOK_clean_linker_0, # of connection points: 2
#     Edge 135, Type (0, 0), BuildingBlock: AJUNOK_clean_linker_0, # of connection points: 2
#     Edge 136, Type (0, 0), BuildingBlock: AJUNOK_clean_linker_0, # of connection points: 2
#     Edge 137, Type (0, 0), BuildingBlock: AJUNOK_clean_linker_0, # of connection points: 2
#     Edge 138, Type (0, 0), BuildingBlock: AJUNOK_clean_linker_0, # of connection points: 2
#     Edge 139, Type (0, 0), BuildingBlock: AJUNOK_clean_linker_0, # of connection points: 2
#     Edge 140, Type (0, 0), BuildingBlock: AJUNOK_clean_linker_0, # of connection points: 2
#     Edge 141, Type (0, 0), BuildingBlock: AJUNOK_clean_linker_0, # of connection points: 2
#     Edge 142, Type (0, 0), BuildingBlock: AJUNOK_clean_linker_0, # of connection points: 2
#     Edge 143, Type (0, 0), BuildingBlock: AJUNOK_clean_linker_0, # of connection points: 2
#     Edge 144, Type (0, 0), BuildingBlock: AJUNOK_clean_linker_0, # of connection points: 2
#     Edge 145, Type (0, 0), BuildingBlock: AJUNOK_clean_linker_0, # of connection points: 2
#     Edge 146, Type (0, 0), BuildingBlock: AJUNOK_clean_linker_0, # of connection points: 2
#     Edge 147, Type (0, 0), BuildingBlock: AJUNOK_clean_linker_0, # of connection points: 2
#     Edge 148, Type (0, 0), BuildingBlock: AJUNOK_clean_linker_0, # of connection points: 2
#     Edge 149, Type (0, 0), BuildingBlock: AJUNOK_clean_linker_0, # of connection points: 2
#     Edge 150, Type (0, 0), BuildingBlock: AJUNOK_clean_linker_0, # of connection points: 2
#     Edge 151, Type (0, 0), BuildingBlock: AJUNOK_clean_linker_0, # of connection points: 2
#     Edge 152, Type (0, 0), BuildingBlock: AJUNOK_clean_linker_0, # of connection points: 2
#     Edge 153, Type (0, 0), BuildingBlock: AJUNOK_clean_linker_0, # of connection points: 2
#     Edge 154, Type (0, 0), BuildingBlock: AJUNOK_clean_linker_0, # of connection points: 2
#     Edge 155, Type (0, 0), BuildingBlock: AJUNOK_clean_linker_0, # of connection points: 2
#     Edge 156, Type (0, 0), BuildingBlock: AJUNOK_clean_linker_0, # of connection points: 2
#     Edge 157, Type (0, 0), BuildingBlock: AJUNOK_clean_linker_0, # of connection points: 2
#     Edge 158, Type (0, 0), BuildingBlock: AJUNOK_clean_linker_0, # of connection points: 2
#     Edge 159, Type (0, 0), BuildingBlock: AJUNOK_clean_linker_0, # of connection points: 2
#     Edge 160, Type (0, 0), BuildingBlock: AJUNOK_clean_linker_0, # of connection points: 2
#     Edge 161, Type (0, 0), BuildingBlock: AJUNOK_clean_linker_0, # of connection points: 2
#     Edge 162, Type (0, 0), BuildingBlock: AJUNOK_clean_linker_0, # of connection points: 2
#     Edge 163, Type (0, 0), BuildingBlock: AJUNOK_clean_linker_0, # of connection points: 2
#     Edge 164, Type (0, 0), BuildingBlock: AJUNOK_clean_linker_0, # of connection points: 2
#     Edge 165, Type (0, 0), BuildingBlock: AJUNOK_clean_linker_0, # of connection points: 2
#     Edge 166, Type (0, 0), BuildingBlock: AJUNOK_clean_linker_0, # of connection points: 2
#     Edge 167, Type (0, 0), BuildingBlock: AJUNOK_clean_linker_0, # of connection points: 2
#     Edge 168, Type (0, 0), BuildingBlock: AJUNOK_clean_linker_0, # of connection points: 2
#     Edge 169, Type (0, 0), BuildingBlock: AJUNOK_clean_linker_0, # of connection points: 2
#     Edge 170, Type (0, 0), BuildingBlock: AJUNOK_clean_linker_0, # of connection points: 2
#     Edge 171, Type (0, 0), BuildingBlock: AJUNOK_clean_linker_0, # of connection points: 2
#     Edge 172, Type (0, 0), BuildingBlock: AJUNOK_clean_linker_0, # of connection points: 2
#     Edge 173, Type (0, 0), BuildingBlock: AJUNOK_clean_linker_0, # of connection points: 2
#     Edge 174, Type (0, 0), BuildingBlock: AJUNOK_clean_linker_0, # of connection points: 2
#     Edge 175, Type (0, 0), BuildingBlock: AJUNOK_clean_linker_0, # of connection points: 2
#     Edge 176, Type (0, 0), BuildingBlock: AJUNOK_clean_linker_0, # of connection points: 2
#     Edge 177, Type (0, 0), BuildingBlock: AJUNOK_clean_linker_0, # of connection points: 2
#     Edge 178, Type (0, 0), BuildingBlock: AJUNOK_clean_linker_0, # of connection points: 2
#     Edge 179, Type (0, 0), BuildingBlock: AJUNOK_clean_linker_0, # of connection points: 2
#     Edge 180, Type (0, 0), BuildingBlock: AJUNOK_clean_linker_0, # of connection points: 2
#     Edge 181, Type (0, 0), BuildingBlock: AJUNOK_clean_linker_0, # of connection points: 2
#     Edge 182, Type (0, 0), BuildingBlock: AJUNOK_clean_linker_0, # of connection points: 2
#     Edge 183, Type (0, 0), BuildingBlock: AJUNOK_clean_linker_0, # of connection points: 2
#     Edge 184, Type (0, 0), BuildingBlock: AJUNOK_clean_linker_0, # of connection points: 2
#     Edge 185, Type (0, 0), BuildingBlock: AJUNOK_clean_linker_0, # of connection points: 2
#     Edge 186, Type (0, 0), BuildingBlock: AJUNOK_clean_linker_0, # of connection points: 2
#     Edge 187, Type (0, 0), BuildingBlock: AJUNOK_clean_linker_0, # of connection points: 2
#     Edge 188, Type (0, 0), BuildingBlock: AJUNOK_clean_linker_0, # of connection points: 2
#     Edge 189, Type (0, 0), BuildingBlock: AJUNOK_clean_linker_0, # of connection points: 2
#     Edge 190, Type (0, 0), BuildingBlock: AJUNOK_clean_linker_0, # of connection points: 2
#     Edge 191, Type (0, 0), BuildingBlock: AJUNOK_clean_linker_0, # of connection points: 2
#     Edge 192, Type (0, 0), BuildingBlock: AJUNOK_clean_linker_0, # of connection points: 2
#     Edge 193, Type (0, 0), BuildingBlock: AJUNOK_clean_linker_0, # of connection points: 2
#     Edge 194, Type (0, 0), BuildingBlock: AJUNOK_clean_linker_0, # of connection points: 2
#     Edge 195, Type (0, 0), BuildingBlock: AJUNOK_clean_linker_0, # of connection points: 2
#     Edge 196, Type (0, 0), BuildingBlock: AJUNOK_clean_linker_0, # of connection points: 2
#     Edge 197, Type (0, 0), BuildingBlock: AJUNOK_clean_linker_0, # of connection points: 2
#     Edge 198, Type (0, 0), BuildingBlock: AJUNOK_clean_linker_0, # of connection points: 2
#     Edge 199, Type (0, 0), BuildingBlock: AJUNOK_clean_linker_0, # of connection points: 2
#     Edge 200, Type (0, 0), BuildingBlock: AJUNOK_clean_linker_0, # of connection points: 2
#     Edge 201, Type (0, 0), BuildingBlock: AJUNOK_clean_linker_0, # of connection points: 2
#     Edge 202, Type (0, 0), BuildingBlock: AJUNOK_clean_linker_0, # of connection points: 2
#     Edge 203, Type (0, 0), BuildingBlock: AJUNOK_clean_linker_0, # of connection points: 2
#     Edge 204, Type (0, 0), BuildingBlock: AJUNOK_clean_linker_0, # of connection points: 2
#     Edge 205, Type (0, 0), BuildingBlock: AJUNOK_clean_linker_0, # of connection points: 2
#     Edge 206, Type (0, 0), BuildingBlock: AJUNOK_clean_linker_0, # of connection points: 2
#     Edge 207, Type (0, 0), BuildingBlock: AJUNOK_clean_linker_0, # of connection points: 2
#     Edge 208, Type (0, 0), BuildingBlock: AJUNOK_clean_linker_0, # of connection points: 2
#     Edge 209, Type (0, 0), BuildingBlock: AJUNOK_clean_linker_0, # of connection points: 2
#     Edge 210, Type (0, 0), BuildingBlock: AJUNOK_clean_linker_0, # of connection points: 2
#     Edge 211, Type (0, 0), BuildingBlock: AJUNOK_clean_linker_0, # of connection points: 2
#     Edge 212, Type (0, 0), BuildingBlock: AJUNOK_clean_linker_0, # of connection points: 2
#     Edge 213, Type (0, 0), BuildingBlock: AJUNOK_clean_linker_0, # of connection points: 2
#     Edge 214, Type (0, 0), BuildingBlock: AJUNOK_clean_linker_0, # of connection points: 2
#     Edge 215, Type (0, 0), BuildingBlock: AJUNOK_clean_linker_0, # of connection points: 2
#     Edge 216, Type (0, 0), BuildingBlock: AJUNOK_clean_linker_0, # of connection points: 2
#     Edge 217, Type (0, 0), BuildingBlock: AJUNOK_clean_linker_0, # of connection points: 2
#     Edge 218, Type (0, 0), BuildingBlock: AJUNOK_clean_linker_0, # of connection points: 2
#     Edge 219, Type (0, 0), BuildingBlock: AJUNOK_clean_linker_0, # of connection points: 2
#     Edge 220, Type (0, 0), BuildingBlock: AJUNOK_clean_linker_0, # of connection points: 2
#     Edge 221, Type (0, 0), BuildingBlock: AJUNOK_clean_linker_0, # of connection points: 2
#     Edge 222, Type (0, 0), BuildingBlock: AJUNOK_clean_linker_0, # of connection points: 2
#     Edge 223, Type (0, 0), BuildingBlock: AJUNOK_clean_linker_0, # of connection points: 2
#     Edge 224, Type (0, 0), BuildingBlock: AJUNOK_clean_linker_0, # of connection points: 2
#     Edge 225, Type (0, 0), BuildingBlock: AJUNOK_clean_linker_0, # of connection points: 2
#     Edge 226, Type (0, 0), BuildingBlock: AJUNOK_clean_linker_0, # of connection points: 2
#     Edge 227, Type (0, 0), BuildingBlock: AJUNOK_clean_linker_0, # of connection points: 2
#     Edge 228, Type (0, 0), BuildingBlock: AJUNOK_clean_linker_0, # of connection points: 2
#     Edge 229, Type (0, 0), BuildingBlock: AJUNOK_clean_linker_0, # of connection points: 2
#     Edge 230, Type (0, 0), BuildingBlock: AJUNOK_clean_linker_0, # of connection points: 2
#     Edge 231, Type (0, 0), BuildingBlock: AJUNOK_clean_linker_0, # of connection points: 2
#     Edge 232, Type (0, 0), BuildingBlock: AJUNOK_clean_linker_0, # of connection points: 2
#     Edge 233, Type (0, 0), BuildingBlock: AJUNOK_clean_linker_0, # of connection points: 2
#     Edge 234, Type (0, 0), BuildingBlock: AJUNOK_clean_linker_0, # of connection points: 2
#     Edge 235, Type (0, 0), BuildingBlock: AJUNOK_clean_linker_0, # of connection points: 2
#     Edge 236, Type (0, 0), BuildingBlock: AJUNOK_clean_linker_0, # of connection points: 2
#     Edge 237, Type (0, 0), BuildingBlock: AJUNOK_clean_linker_0, # of connection points: 2
#     Edge 238, Type (0, 0), BuildingBlock: AJUNOK_clean_linker_0, # of connection points: 2
#     Edge 239, Type (0, 0), BuildingBlock: AJUNOK_clean_linker_0, # of connection points: 2
#     Edge 240, Type (0, 0), BuildingBlock: AJUNOK_clean_linker_0, # of connection points: 2
#     Edge 241, Type (0, 0), BuildingBlock: AJUNOK_clean_linker_0, # of connection points: 2
#     Edge 242, Type (0, 0), BuildingBlock: AJUNOK_clean_linker_0, # of connection points: 2
#     Edge 243, Type (0, 0), BuildingBlock: AJUNOK_clean_linker_0, # of connection points: 2
#     Edge 244, Type (0, 0), BuildingBlock: AJUNOK_clean_linker_0, # of connection points: 2
#     Edge 245, Type (0, 0), BuildingBlock: AJUNOK_clean_linker_0, # of connection points: 2
#     Edge 246, Type (0, 0), BuildingBlock: AJUNOK_clean_linker_0, # of connection points: 2
#     Edge 247, Type (0, 0), BuildingBlock: AJUNOK_clean_linker_0, # of connection points: 2
#     Edge 248, Type (0, 0), BuildingBlock: AJUNOK_clean_linker_0, # of connection points: 2
#     Edge 249, Type (0, 0), BuildingBlock: AJUNOK_clean_linker_0, # of connection points: 2
#     Edge 250, Type (0, 0), BuildingBlock: AJUNOK_clean_linker_0, # of connection points: 2
#     Edge 251, Type (0, 0), BuildingBlock: AJUNOK_clean_linker_0, # of connection points: 2
#     Edge 252, Type (0, 0), BuildingBlock: AJUNOK_clean_linker_0, # of connection points: 2
#     Edge 253, Type (0, 0), BuildingBlock: AJUNOK_clean_linker_0, # of connection points: 2
#     Edge 254, Type (0, 0), BuildingBlock: AJUNOK_clean_linker_0, # of connection points: 2
#     Edge 255, Type (0, 0), BuildingBlock: AJUNOK_clean_linker_0, # of connection points: 2
#     Edge 256, Type (0, 0), BuildingBlock: AJUNOK_clean_linker_0, # of connection points: 2
#     Edge 257, Type (0, 0), BuildingBlock: AJUNOK_clean_linker_0, # of connection points: 2
#     Edge 258, Type (0, 0), BuildingBlock: AJUNOK_clean_linker_0, # of connection points: 2
#     Edge 259, Type (0, 0), BuildingBlock: AJUNOK_clean_linker_0, # of connection points: 2
#     Edge 260, Type (0, 0), BuildingBlock: AJUNOK_clean_linker_0, # of connection points: 2
#     Edge 261, Type (0, 0), BuildingBlock: AJUNOK_clean_linker_0, # of connection points: 2
#     Edge 262, Type (0, 0), BuildingBlock: AJUNOK_clean_linker_0, # of connection points: 2
#     Edge 263, Type (0, 0), BuildingBlock: AJUNOK_clean_linker_0, # of connection points: 2
#     Edge 264, Type (0, 0), BuildingBlock: AJUNOK_clean_linker_0, # of connection points: 2
#     Edge 265, Type (0, 0), BuildingBlock: AJUNOK_clean_linker_0, # of connection points: 2
#     Edge 266, Type (0, 0), BuildingBlock: AJUNOK_clean_linker_0, # of connection points: 2
#     Edge 267, Type (0, 0), BuildingBlock: AJUNOK_clean_linker_0, # of connection points: 2
#     Edge 268, Type (0, 0), BuildingBlock: AJUNOK_clean_linker_0, # of connection points: 2
#     Edge 269, Type (0, 0), BuildingBlock: AJUNOK_clean_linker_0, # of connection points: 2
#     Edge 270, Type (0, 0), BuildingBlock: AJUNOK_clean_linker_0, # of connection points: 2
#     Edge 271, Type (0, 0), BuildingBlock: AJUNOK_clean_linker_0, # of connection points: 2
#     Edge 272, Type (0, 0), BuildingBlock: AJUNOK_clean_linker_0, # of connection points: 2
#     Edge 273, Type (0, 0), BuildingBlock: AJUNOK_clean_linker_0, # of connection points: 2
#     Edge 274, Type (0, 0), BuildingBlock: AJUNOK_clean_linker_0, # of connection points: 2
#     Edge 275, Type (0, 0), BuildingBlock: AJUNOK_clean_linker_0, # of connection points: 2
#     Edge 276, Type (0, 0), BuildingBlock: AJUNOK_clean_linker_0, # of connection points: 2
#     Edge 277, Type (0, 0), BuildingBlock: AJUNOK_clean_linker_0, # of connection points: 2
#     Edge 278, Type (0, 0), BuildingBlock: AJUNOK_clean_linker_0, # of connection points: 2
#     Edge 279, Type (0, 0), BuildingBlock: AJUNOK_clean_linker_0, # of connection points: 2
#     Edge 280, Type (0, 0), BuildingBlock: AJUNOK_clean_linker_0, # of connection points: 2
#     Edge 281, Type (0, 0), BuildingBlock: AJUNOK_clean_linker_0, # of connection points: 2
#     Edge 282, Type (0, 0), BuildingBlock: AJUNOK_clean_linker_0, # of connection points: 2
#     Edge 283, Type (0, 0), BuildingBlock: AJUNOK_clean_linker_0, # of connection points: 2
#     Edge 284, Type (0, 0), BuildingBlock: AJUNOK_clean_linker_0, # of connection points: 2
#     Edge 285, Type (0, 0), BuildingBlock: AJUNOK_clean_linker_0, # of connection points: 2
#     Edge 286, Type (0, 0), BuildingBlock: AJUNOK_clean_linker_0, # of connection points: 2
#     Edge 287, Type (0, 0), BuildingBlock: AJUNOK_clean_linker_0, # of connection points: 2
# Relax obj value: 0.030
# Max RMSD: 0.136
# Mean RMSD: 0.136
data_MOF--net-gie--node1-QUQFOY_clean_sbu_1--edge1-AJUNOK_clean_linker_0
_symmetry_space_group_name_H-M    P1
_symmetry_Int_Tables_number       1
_symmetry_cell_setting            triclinic
loop_
_symmetry_equiv_pos_as_xyz
'x, y, z'
_cell_length_a     67.15197
_cell_length_b     67.171353
_cell_length_c     67.160494
_cell_angle_alpha  90.006664
_cell_angle_beta   90.000361
_cell_angle_gamma 90.012881
loop_
_atom_site_label
_atom_site_type_symbol
_atom_site_fract_x
_atom_site_fract_y
_atom_site_fract_z
_atom_type_partial_charge
O0 O 0.04042 0.17345 0.40388 0.0
Cd1 Cd 0.02063 0.16126 0.42387 0.0
Cd2 Cd 0.01081 0.14109 0.38875 0.0
O3 O 0.03628 0.15471 0.37713 0.0
O4 O 0.03265 0.16981 0.44985 0.0
O5 O 0.03132 0.13841 0.44047 0.0
C6 C 0.03772 0.15156 0.45298 0.0
C7 C 1.00154 0.10761 0.38354 0.0
C8 C 0.04529 0.1687 0.38623 0.0
C9 C 0.98073 0.17039 0.40645 0.0
O10 O 0.98664 0.15966 0.392 0.0
O11 O 0.99138 0.17199 0.42211 0.0
O12 O 1.00154 0.12044 0.36925 0.0
O13 O 1.00819 0.11343 0.40064 0.0
O14 O 0.09579 0.79016 0.65396 0.0
Cd15 Cd 0.10817 0.77047 0.67389 0.0
Cd16 Cd 0.12866 0.76073 0.6389 0.0
O17 O 0.11499 0.78626 0.62749 0.0
O18 O 0.09978 0.78244 0.69992 0.0
O19 O 0.13112 0.78127 0.69025 0.0
C20 C 0.11804 0.78761 0.70286 0.0
C21 C 0.16212 0.75186 0.6328 0.0
C22 C 0.10083 0.79515 0.63644 0.0
C23 C 0.09942 0.73049 0.65654 0.0
O24 O 0.11018 0.73645 0.64212 0.0
O25 O 0.0977 0.74117 0.67217 0.0
O26 O 0.14895 0.75187 0.61884 0.0
O27 O 0.15662 0.758 0.65018 0.0
O28 O 0.48027 0.84581 0.90447 0.0
Cd29 Cd 0.49974 0.8584 0.9245 0.0
Cd30 Cd 0.50959 0.87843 0.88885 0.0
O31 O 0.48436 0.86418 0.87746 0.0
O32 O 0.488 0.84901 0.9503 0.0
O33 O 0.48822 0.88059 0.94152 0.0
C34 C 0.48226 0.86699 0.95376 0.0
C35 C 0.51821 0.91186 0.88239 0.0
C36 C 0.47544 0.85025 0.88673 0.0
C37 C 0.54011 0.85017 0.90743 0.0
O38 O 0.53412 0.86047 0.89272 0.0
O39 O 0.52924 0.84836 0.92291 0.0
O40 O 0.51847 0.89849 0.86861 0.0
O41 O 0.51184 0.90655 0.89976 0.0
O42 O 0.42374 0.22987 0.15549 0.0
Cd43 Cd 0.41064 0.24946 0.17506 0.0
Cd44 Cd 0.39076 0.25839 0.13975 0.0
O45 O 0.40507 0.2331 0.12857 0.0
O46 O 0.41884 0.23783 0.2013 0.0
O47 O 0.38764 0.23826 0.19109 0.0
C48 C 0.40065 0.23226 0.20395 0.0
C49 C 0.3571 0.26679 0.13438 0.0
C50 C 0.41924 0.22461 0.13789 0.0
C51 C 0.41877 0.28951 0.15756 0.0
O52 O 0.40861 0.2831 0.14292 0.0
O53 O 0.42052 0.27899 0.17329 0.0
O54 O 0.36995 0.26691 0.1201 0.0
O55 O 0.36302 0.26045 0.15156 0.0
O56 O 0.04059 0.84575 0.11577 0.0
Cd57 Cd 0.02093 0.8581 0.09576 0.0
Cd58 Cd 0.01126 0.87865 0.13057 0.0
O59 O 0.03675 0.86506 0.14216 0.0
O60 O 0.03291 0.84969 0.06974 0.0
O61 O 0.03174 0.88104 0.07938 0.0
C62 C 0.03806 0.86795 0.06676 0.0
C63 C 1.00219 0.9122 0.13572 0.0
C64 C 0.04559 0.85083 0.13328 0.0
C65 C 0.98093 0.84946 0.11311 0.0
O66 O 0.98695 0.86019 0.12752 0.0
O67 O 0.99157 0.84771 0.09746 0.0
O68 O 1.0022 0.89941 0.15004 0.0
O69 O 1.0087 0.90629 0.11859 0.0
O70 O 0.42386 0.79036 0.36668 0.0
Cd71 Cd 0.4117 0.77074 0.34653 0.0
Cd72 Cd 0.39092 0.76095 0.38155 0.0
O73 O 0.40449 0.78651 0.39303 0.0
O74 O 0.42122 0.7825 0.32081 0.0
O75 O 0.38955 0.78198 0.3293 0.0
C76 C 0.40321 0.78805 0.31717 0.0
C77 C 0.35741 0.75207 0.38737 0.0
C78 C 0.41871 0.79537 0.38416 0.0
C79 C 0.42019 0.73069 0.36401 0.0
O80 O 0.40941 0.73667 0.3784 0.0
O81 O 0.42198 0.74136 0.34839 0.0
O82 O 0.37047 0.75208 0.40143 0.0
O83 O 0.36306 0.75823 0.37003 0.0
O84 O 0.48053 0.1732 0.61469 0.0
Cd85 Cd 0.49999 0.16047 0.59473 0.0
Cd86 Cd 0.50936 0.14027 0.63017 0.0
O87 O 0.48415 0.15455 0.64157 0.0
O88 O 0.48844 0.1699 0.56888 0.0
O89 O 0.48839 0.13834 0.57769 0.0
C90 C 0.48259 0.15197 0.5654 0.0
C91 C 0.5179 0.10665 0.63558 0.0
C92 C 0.47548 0.16867 0.63234 0.0
C93 C 0.54023 0.16846 0.61209 0.0
O94 O 0.534 0.15819 0.62673 0.0
O95 O 0.52955 0.17031 0.59649 0.0
O96 O 0.51813 0.11955 0.6498 0.0
O97 O 0.51139 0.1125 0.61844 0.0
O98 O 0.09548 0.22962 0.86505 0.0
Cd99 Cd 0.10811 0.24914 0.8451 0.0
Cd100 Cd 0.12835 0.25903 0.88044 0.0
O101 O 0.11428 0.23368 0.8918 0.0
O102 O 0.09982 0.2371 0.81905 0.0
O103 O 0.1311 0.23813 0.82894 0.0
C104 C 0.11807 0.23184 0.81624 0.0
C105 C 0.16175 0.26777 0.88696 0.0
C106 C 0.10024 0.22475 0.88269 0.0
C107 C 0.0999 0.2895 0.86203 0.0
O108 O 0.11031 0.28353 0.87668 0.0
O109 O 0.09798 0.27859 0.84658 0.0
O110 O 0.14837 0.26794 0.90072 0.0
O111 O 0.15649 0.26144 0.86957 0.0
O112 O 0.39248 0.98577 0.15922 0.0
Cd113 Cd 0.38901 0.01033 0.14119 0.0
Cd114 Cd 0.42426 0.01997 0.16187 0.0
O115 O 0.42256 0.99043 0.17169 0.0
O116 O 0.36887 1.00162 0.12094 0.0
O117 O 0.40014 1.00796 0.11315 0.0
C118 C 0.38276 1.00177 0.10769 0.0
C119 C 0.45351 0.03743 0.15328 0.0
C120 C 0.40705 0.97964 0.16966 0.0
C121 C 0.38664 0.04443 0.16947 0.0
O122 O 0.40418 0.03939 0.17442 0.0
O123 O 0.37766 0.0357 0.15523 0.0
O124 O 0.45007 0.03166 0.17125 0.0
O125 O 0.44124 0.03151 0.13968 0.0
O126 O 0.22996 0.15481 0.42357 0.0
Cd127 Cd 0.24956 0.17449 0.41062 0.0
Cd128 Cd 0.25916 0.13875 0.39109 0.0
O129 O 0.23389 0.12761 0.40545 0.0
O130 O 0.23768 0.20068 0.41869 0.0
O131 O 0.2385 0.19048 0.38751 0.0
C132 C 0.23232 0.20333 0.40044 0.0
C133 C 0.26777 0.13197 0.35773 0.0
C134 C 0.22503 0.13705 0.41931 0.0
C135 C 0.28984 0.15744 0.41911 0.0
O136 O 0.28374 0.14264 0.40898 0.0
O137 O 0.27904 0.17299 0.42076 0.0
O138 O 0.26795 0.1183 0.3712 0.0
O139 O 0.26147 0.14941 0.36289 0.0
O140 O 0.12763 0.03263 0.65932 0.0
Cd141 Cd 0.13064 1.00839 0.64075 0.0
Cd142 Cd 0.09595 0.99845 0.66191 0.0
O143 O 0.09778 0.02781 0.67221 0.0
O144 O 0.14999 0.01758 0.61993 0.0
O145 O 0.11853 0.01099 0.61316 0.0
C146 C 0.13561 0.01756 0.6072 0.0
C147 C 0.06654 0.98107 0.65369 0.0
C148 C 0.11333 0.03855 0.67025 0.0
C149 C 0.1338 0.97397 0.66842 0.0
O150 O 0.11635 0.97889 0.67378 0.0
O151 O 0.14246 0.98289 0.65411 0.0
O152 O 0.07038 0.98656 0.67168 0.0
O153 O 0.07851 0.98721 0.63992 0.0
O154 O 0.28997 0.86628 0.92402 0.0
Cd155 Cd 0.27055 0.84616 0.9115 0.0
Cd156 Cd 0.26086 0.88133 0.89079 0.0
O157 O 0.28624 0.89275 0.90478 0.0
O158 O 0.28229 0.82038 0.92087 0.0
O159 O 0.28209 0.82921 0.88929 0.0
C160 C 0.28804 0.81695 0.90289 0.0
C161 C 0.25235 0.88737 0.85724 0.0
C162 C 0.29499 0.88381 0.91904 0.0
C163 C 0.23017 0.8633 0.91927 0.0
O164 O 0.23627 0.87787 0.90882 0.0
O165 O 0.24099 0.84781 0.9213 0.0
O166 O 0.25216 0.90134 0.8704 0.0
O167 O 0.25855 0.87003 0.86282 0.0
O168 O 0.39281 0.03378 0.3606 0.0
Cd169 Cd 0.38885 1.00929 0.37859 0.0
Cd170 Cd 0.42462 0.99939 0.35855 0.0
O171 O 0.42301 0.02889 0.34848 0.0
O172 O 0.36848 0.01827 0.39848 0.0
O173 O 0.39956 0.01165 0.40678 0.0
C174 C 0.38216 0.01806 0.41193 0.0
C175 C 0.45388 0.98189 0.36717 0.0
C176 C 0.40753 0.03977 0.35031 0.0
C177 C 0.38679 0.97512 0.35043 0.0
O178 O 0.40454 0.97993 0.34601 0.0
O179 O 0.37749 0.98406 0.36433 0.0
O180 O 0.45041 0.9876 0.34918 0.0
O181 O 0.44163 0.98789 0.38076 0.0
O182 O 0.29015 0.15479 0.59527 0.0
Cd183 Cd 0.27054 0.17453 0.60808 0.0
Cd184 Cd 0.26124 0.13956 0.62846 0.0
O185 O 0.28674 0.12833 0.61457 0.0
O186 O 0.28241 0.20067 0.59991 0.0
O187 O 0.28159 0.19056 0.63113 0.0
C188 C 0.2878 0.20334 0.61814 0.0
C189 C 0.2527 0.13354 0.662 0.0
C190 C 0.29536 0.13732 0.60027 0.0
C191 C 0.23056 0.15708 0.59966 0.0
O192 O 0.23674 0.14262 0.61022 0.0
O193 O 0.2411 0.17279 0.59796 0.0
O194 O 0.2527 0.11953 0.64889 0.0
O195 O 0.25868 0.15094 0.65638 0.0
O196 O 0.12767 0.98643 0.85974 0.0
Cd197 Cd 0.13119 0.01071 0.87814 0.0
Cd198 Cd 0.09571 0.02054 0.85797 0.0
O199 O 0.09754 0.99124 0.84746 0.0
O200 O 0.15135 1.00176 0.89827 0.0
O201 O 0.12011 1.00812 0.90618 0.0
C202 C 0.13749 1.00186 0.91155 0.0
C203 C 0.06626 0.03772 0.86651 0.0
C204 C 0.11315 0.98053 0.84908 0.0
C205 C 0.13341 0.04513 0.85037 0.0
O206 O 0.11573 0.04027 0.84575 0.0
O207 O 0.14262 0.03611 0.86429 0.0
O208 O 0.06993 0.03223 0.8485 0.0
O209 O 0.07843 0.03168 0.88015 0.0
O210 O 0.22962 0.86445 0.09594 0.0
Cd211 Cd 0.24932 0.84471 0.10861 0.0
Cd212 Cd 0.2589 0.88022 0.12842 0.0
O213 O 0.23354 0.89147 0.11432 0.0
O214 O 0.23748 0.81862 0.10019 0.0
O215 O 0.2384 0.82834 0.13151 0.0
C216 C 0.23219 0.81568 0.11841 0.0
C217 C 0.26766 0.88678 0.16181 0.0
C218 C 0.22467 0.88215 0.10039 0.0
C219 C 0.28929 0.86208 0.09966 0.0
O220 O 0.28328 0.87666 0.11017 0.0
O221 O 0.27865 0.84641 0.09814 0.0
O222 O 0.26775 0.90054 0.14843 0.0
O223 O 0.26143 0.86935 0.15654 0.0
O224 O 0.17374 0.40373 0.03927 0.0
Cd225 Cd 0.16116 0.42368 0.0197 0.0
Cd226 Cd 0.14125 0.38812 0.00975 0.0
O227 O 0.15544 0.3767 0.03499 0.0
O228 O 0.16964 0.44968 0.03174 0.0
O229 O 0.13829 0.44002 0.03075 0.0
C230 C 0.15142 0.45262 0.03704 0.0
C231 C 0.10785 0.38154 1.00111 0.0
C232 C 0.1693 0.38597 0.04402 0.0
C233 C 0.16963 0.40675 0.97934 0.0
O234 O 0.15926 0.39204 0.98525 0.0
O235 O 0.17144 0.42219 0.99027 0.0
O236 O 0.12126 0.36782 1.00082 0.0
O237 O 0.11309 0.39892 1.00749 0.0
O238 O 0.67419 0.11594 0.97996 0.0
Cd239 Cd 0.66182 0.09595 0.99961 0.0
Cd240 Cd 0.64135 0.13113 1.0095 0.0
O241 O 0.65517 0.14252 0.98404 0.0
O242 O 0.67029 0.06995 0.98762 0.0
O243 O 0.63893 0.07956 0.9887 0.0
C244 C 0.65205 0.06697 0.9824 0.0
C245 C 0.60793 0.13745 0.01829 0.0
C246 C 0.66923 0.13352 0.97506 0.0
C247 C 0.67005 0.11303 0.03992 0.0
O248 O 0.65952 0.12759 0.03395 0.0
O249 O 0.67203 0.09758 0.02903 0.0
O250 O 0.62122 0.1513 0.0184 0.0
O251 O 0.61329 0.12007 0.01201 0.0
O252 O 0.14283 0.40898 0.28302 0.0
Cd253 Cd 0.13951 0.39086 0.25848 0.0
Cd254 Cd 0.17429 0.4114 0.24872 0.0
O255 O 0.17281 0.42157 0.27816 0.0
O256 O 0.1201 0.36999 0.26739 0.0
O257 O 0.1515 0.3632 0.26058 0.0
C258 C 0.13442 0.3572 0.26712 0.0
C259 C 0.20307 0.40128 0.2314 0.0
C260 C 0.15735 0.41955 0.28902 0.0
C261 C 0.13669 0.41896 0.22433 0.0
O262 O 0.15426 0.42396 0.22924 0.0
O263 O 0.12782 0.40472 0.23317 0.0
O264 O 0.20034 0.41956 0.23661 0.0
O265 O 0.19034 0.38831 0.23776 0.0
O266 O 0.84558 0.90241 0.47911 0.0
Cd267 Cd 0.85731 0.92272 0.49883 0.0
Cd268 Cd 0.8781 0.88755 0.5091 0.0
O269 O 0.86468 0.87594 0.48352 0.0
O270 O 0.84762 0.94832 0.48691 0.0
O271 O 0.87937 0.94024 0.48781 0.0
C272 C 0.86564 0.9522 0.48158 0.0
C273 C 0.91146 0.88135 0.51835 0.0
C274 C 0.85067 0.88484 0.47434 0.0
C275 C 0.84849 0.90538 0.53893 0.0
O276 O 0.85942 0.89101 0.5332 0.0
O277 O 0.84668 0.92089 0.5281 0.0
O278 O 0.8982 0.86748 0.51834 0.0
O279 O 0.9061 0.89871 0.512 0.0
O280 O 0.87699 0.11032 0.28388 0.0
Cd281 Cd 0.88032 0.12825 0.25924 0.0
Cd282 Cd 0.84514 0.10833 0.24989 0.0
O283 O 0.84672 0.09827 0.27938 0.0
O284 O 0.89979 0.14914 0.26796 0.0
O285 O 0.86835 0.1559 0.26123 0.0
C286 C 0.88545 0.16192 0.26771 0.0
C287 C 0.8163 0.11845 0.23264 0.0
C288 C 0.86233 0.10006 0.29008 0.0
C289 C 0.88253 0.1 0.22526 0.0
O290 O 0.86488 0.09545 0.2303 0.0
O291 O 0.89176 0.11409 0.23398 0.0
O292 O 0.81896 0.10021 0.23803 0.0
O293 O 0.82913 0.1314 0.23882 0.0
O294 O 0.34613 0.61462 0.54011 0.0
Cd295 Cd 0.35869 0.59478 0.52042 0.0
Cd296 Cd 0.37877 0.62996 0.51103 0.0
O297 O 0.36487 0.64142 0.53642 0.0
O298 O 0.34955 0.56885 0.53199 0.0
O299 O 0.38107 0.57783 0.53163 0.0
C300 C 0.36759 0.56545 0.53758 0.0
C301 C 0.41242 0.63493 0.50226 0.0
C302 C 0.35078 0.63224 0.54518 0.0
C303 C 0.34994 0.61236 0.4805 0.0
O304 O 0.36047 0.62687 0.48662 0.0
O305 O 0.34838 0.59663 0.49104 0.0
O306 O 0.39972 0.64933 0.50218 0.0
O307 O 0.40636 0.61784 0.50871 0.0
O308 O 0.14312 0.61015 0.23539 0.0
Cd309 Cd 0.13968 0.62837 0.25983 0.0
Cd310 Cd 0.17463 0.60748 0.26982 0.0
O311 O 0.17305 0.59744 0.24033 0.0
O312 O 0.12015 0.64905 0.25073 0.0
O313 O 0.15148 0.65611 0.25756 0.0
C314 C 0.13438 0.66194 0.25094 0.0
C315 C 0.2038 0.61602 0.28746 0.0
C316 C 0.15763 0.59952 0.22943 0.0
C317 C 0.13674 0.60034 0.29405 0.0
O318 O 0.15428 0.59524 0.28917 0.0
O319 O 0.12794 0.6146 0.28518 0.0
O320 O 0.20028 0.59802 0.28181 0.0
O321 O 0.19167 0.62965 0.28133 0.0
O322 O 0.378 0.40861 0.73581 0.0
Cd323 Cd 0.3816 0.39081 0.76048 0.0
Cd324 Cd 0.3458 0.41074 0.76974 0.0
O325 O 0.34765 0.42052 0.74017 0.0
O326 O 0.40197 0.37074 0.75192 0.0
O327 O 0.37075 0.36268 0.75823 0.0
C328 C 0.38819 0.35737 0.75206 0.0
C329 C 0.31645 0.40208 0.78703 0.0
C330 C 0.3633 0.41874 0.72952 0.0
C331 C 0.38324 0.41924 0.79441 0.0
O332 O 0.36557 0.42361 0.78929 0.0
O333 O 0.39265 0.40523 0.78576 0.0
O334 O 0.31983 0.42003 0.78116 0.0
O335 O 0.32885 0.38852 0.78128 0.0
O336 O 0.97956 0.84502 0.61657 0.0
Cd337 Cd 0.9989 0.85751 0.59636 0.0
Cd338 Cd 1.00884 0.87807 0.63175 0.0
O339 O 0.98352 0.86402 0.64319 0.0
O340 O 0.98705 0.84802 0.57065 0.0
O341 O 0.98725 0.87962 0.57934 0.0
C342 C 0.98126 0.86597 0.56716 0.0
C343 C 0.01757 0.91148 0.63822 0.0
C344 C 0.97467 0.84987 0.63418 0.0
C345 C 0.03938 0.84968 0.61332 0.0
O346 O 0.03337 0.86007 0.62797 0.0
O347 O 0.02846 0.84769 0.59789 0.0
O348 O 0.01778 0.89812 0.65199 0.0
O349 O 0.0112 0.90619 0.62085 0.0
O350 O 0.92361 0.23005 0.36451 0.0
Cd351 Cd 0.91071 0.24951 0.34468 0.0
Cd352 Cd 0.89085 0.25918 0.38016 0.0
O353 O 0.90527 0.23405 0.39155 0.0
O354 O 0.91902 0.23757 0.3186 0.0
O355 O 0.88776 0.23831 0.32856 0.0
C356 C 0.90081 0.23213 0.31583 0.0
C357 C 0.8573 0.26748 0.3865 0.0
C358 C 0.91924 0.22521 0.38227 0.0
C359 C 0.91896 0.28986 0.36161 0.0
O360 O 0.90869 0.28383 0.37634 0.0
O361 O 0.92076 0.27899 0.34612 0.0
O362 O 0.87061 0.26785 0.40033 0.0
O363 O 0.86274 0.26121 0.36913 0.0
O364 O 0.54088 0.17337 0.1168 0.0
Cd365 Cd 0.52114 0.16138 0.09666 0.0
Cd366 Cd 0.51128 0.14062 0.13177 0.0
O367 O 0.5369 0.1541 0.1432 0.0
O368 O 0.53287 0.17099 0.07096 0.0
O369 O 0.53226 0.13929 0.07928 0.0
C370 C 0.53835 0.15299 0.06721 0.0
C371 C 0.50224 0.10722 0.13785 0.0
C372 C 0.54587 0.16823 0.13429 0.0
C373 C 0.48113 0.17 0.11418 0.0
O374 O 0.48706 0.15919 0.12857 0.0
O375 O 0.49181 0.17177 0.09857 0.0
O376 O 0.5023 0.12039 0.15181 0.0
O377 O 0.50842 0.1127 0.12047 0.0
O378 O 0.59585 0.79008 0.86667 0.0
Cd379 Cd 0.60818 0.77046 0.84664 0.0
Cd380 Cd 0.62882 0.76063 0.88157 0.0
O381 O 0.61513 0.78611 0.89307 0.0
O382 O 0.59967 0.78245 0.82067 0.0
O383 O 0.63106 0.78136 0.83024 0.0
C384 C 0.61791 0.78767 0.81768 0.0
C385 C 0.66235 0.75193 0.88746 0.0
C386 C 0.60095 0.79503 0.88419 0.0
C387 C 0.59991 0.73023 0.86376 0.0
O388 O 0.61055 0.7362 0.87826 0.0
O389 O 0.59792 0.74107 0.84829 0.0
O390 O 0.64925 0.75182 0.90148 0.0
O391 O 0.65672 0.75812 0.87013 0.0
O392 O 0.97928 0.17377 0.90313 0.0
Cd393 Cd 0.99883 0.16158 0.92331 0.0
Cd394 Cd 1.00871 0.14083 0.88812 0.0
O395 O 0.98327 0.1546 0.87665 0.0
O396 O 0.98704 0.17103 0.94905 0.0
O397 O 0.98753 0.1394 0.94047 0.0
C398 C 0.98146 0.15303 0.95264 0.0
C399 C 0.01747 0.10737 0.88199 0.0
C400 C 0.97435 0.16874 0.88559 0.0
C401 C 0.03912 0.16969 0.90605 0.0
O402 O 0.03314 0.15908 0.89156 0.0
O403 O 0.02828 0.17172 0.92153 0.0
O404 O 0.01758 0.12057 0.86806 0.0
O405 O 0.01124 0.11285 0.89935 0.0
O406 O 0.59622 0.22835 0.65314 0.0
Cd407 Cd 0.60824 0.24808 0.67326 0.0
Cd408 Cd 0.62882 0.25804 0.63802 0.0
O409 O 0.61528 0.23246 0.62659 0.0
O410 O 0.59875 0.23631 0.699 0.0
O411 O 0.63043 0.23701 0.69057 0.0
C412 C 0.61678 0.2309 0.7027 0.0
C413 C 0.66219 0.26717 0.63175 0.0
C414 C 0.60123 0.22343 0.63558 0.0
C415 C 0.59946 0.28809 0.65581 0.0
O416 O 0.61024 0.28221 0.64138 0.0
O417 O 0.59775 0.27738 0.67141 0.0
O418 O 0.64893 0.26711 0.61788 0.0
O419 O 0.65683 0.26092 0.64914 0.0
O420 O 0.53954 0.84557 0.40498 0.0
Cd421 Cd 0.51999 0.85853 0.42469 0.0
Cd422 Cd 0.5106 0.87838 0.38912 0.0
O423 O 0.53585 0.86396 0.37793 0.0
O424 O 0.53173 0.85013 0.45084 0.0
O425 O 0.5312 0.8814 0.44092 0.0
C426 C 0.53724 0.8683 0.45367 0.0
C427 C 0.50223 0.91191 0.38278 0.0
C428 C 0.54457 0.84995 0.38728 0.0
C429 C 0.47974 0.85034 0.40747 0.0
O430 O 0.48593 0.86054 0.39276 0.0
O431 O 0.49047 0.84857 0.42306 0.0
O432 O 0.50201 0.89863 0.36892 0.0
O433 O 0.50842 0.90646 0.40017 0.0
O434 O 0.92365 0.78988 0.15477 0.0
Cd435 Cd 0.91106 0.77018 0.17458 0.0
Cd436 Cd 0.89096 0.76082 0.13903 0.0
O437 O 0.90507 0.78621 0.12785 0.0
O438 O 0.92033 0.78168 0.20054 0.0
O439 O 0.88878 0.78143 0.19166 0.0
C440 C 0.90232 0.78732 0.20401 0.0
C441 C 0.85748 0.75217 0.13275 0.0
C442 C 0.91911 0.79495 0.13713 0.0
C443 C 0.9197 0.73025 0.15685 0.0
O444 O 0.90918 0.7364 0.14234 0.0
O445 O 0.9213 0.74078 0.17259 0.0
O446 O 0.87071 0.75216 0.11885 0.0
O447 O 0.86294 0.75827 0.15017 0.0
O448 O 0.6164 0.97981 0.8461 0.0
Cd449 Cd 0.59612 0.99919 0.85842 0.0
Cd450 Cd 0.63114 1.00905 0.87923 0.0
O451 O 0.64276 0.98365 0.86548 0.0
O452 O 0.57044 0.98735 0.84887 0.0
O453 O 0.579 0.98768 0.88051 0.0
C454 C 0.56686 0.98165 0.86684 0.0
C455 C 0.63645 0.01805 0.91275 0.0
C456 C 0.63392 0.97485 0.85119 0.0
C457 C 0.61322 0.03954 0.85054 0.0
O458 O 0.62777 0.0335 0.86103 0.0
O459 O 0.59774 0.02871 0.84852 0.0
O460 O 0.6507 0.01815 0.89988 0.0
O461 O 0.61934 0.01142 0.90695 0.0
O462 O 0.78884 0.8639 0.59638 0.0
Cd463 Cd 0.76942 0.84407 0.60938 0.0
Cd464 Cd 0.75985 0.8796 0.62909 0.0
O465 O 0.78502 0.89098 0.61471 0.0
O466 O 0.78137 0.818 0.60106 0.0
O467 O 0.78074 0.828 0.63231 0.0
C468 C 0.7869 0.81527 0.61924 0.0
C469 C 0.75119 0.88538 0.66262 0.0
C470 C 0.79377 0.88163 0.60071 0.0
C471 C 0.72908 0.86102 0.60116 0.0
O472 O 0.73522 0.87581 0.61127 0.0
O473 O 0.73988 0.84548 0.59943 0.0
O474 O 0.75093 0.89944 0.64954 0.0
O475 O 0.75784 0.86822 0.657 0.0
O476 O 0.90329 0.04035 0.34636 0.0
Cd477 Cd 0.92336 0.02073 0.35866 0.0
Cd478 Cd 0.88805 0.01075 0.37906 0.0
O479 O 0.87666 0.03625 0.36531 0.0
O480 O 0.94929 0.03279 0.35001 0.0
O481 O 0.93992 0.03165 0.38144 0.0
C482 C 0.9524 0.03799 0.36823 0.0
C483 C 0.8815 1.00161 0.41236 0.0
C484 C 0.88569 0.04523 0.35127 0.0
C485 C 0.90615 0.98061 0.34995 0.0
O486 O 0.89164 0.98651 0.36061 0.0
O487 O 0.92172 0.99137 0.34825 0.0
O488 O 0.86775 1.00163 0.39898 0.0
O489 O 0.89892 1.00795 0.40717 0.0
O490 O 0.73006 0.1539 0.09568 0.0
Cd491 Cd 0.74951 0.17416 0.10793 0.0
Cd492 Cd 0.75918 0.13935 0.129 0.0
O493 O 0.73375 0.12772 0.11531 0.0
O494 O 0.7377 0.19986 0.09844 0.0
O495 O 0.73808 0.19125 0.13008 0.0
C496 C 0.73204 0.20341 0.11643 0.0
C497 C 0.76802 0.1342 0.16261 0.0
C498 C 0.72502 0.13645 0.10092 0.0
C499 C 0.7898 0.15691 0.10017 0.0
O500 O 0.78368 0.14248 0.1108 0.0
O501 O 0.77903 0.17241 0.09802 0.0
O502 O 0.76811 0.11989 0.14981 0.0
O503 O 0.76153 0.15131 0.15667 0.0
O504 O 0.61477 0.03892 0.67416 0.0
Cd505 Cd 0.59497 0.0193 0.66146 0.0
Cd506 Cd 0.63061 1.00954 0.6417 0.0
O507 O 0.64187 0.03485 0.6559 0.0
O508 O 0.56887 0.03128 0.66971 0.0
O509 O 0.57879 0.03028 0.63845 0.0
C510 C 0.56608 0.03657 0.65146 0.0
C511 C 0.63732 1.00079 0.60836 0.0
C512 C 0.63252 0.04379 0.66976 0.0
C513 C 0.61205 0.97907 0.67006 0.0
O514 O 0.62677 0.98507 0.65976 0.0
O515 O 0.59653 0.9899 0.67179 0.0
O516 O 0.65101 1.00064 0.62181 0.0
O517 O 0.61989 1.00712 0.61352 0.0
O518 O 0.73028 0.86321 0.42427 0.0
Cd519 Cd 0.74982 0.84369 0.41103 0.0
Cd520 Cd 0.75893 0.87925 0.39135 0.0
O521 O 0.73368 0.89028 0.40586 0.0
O522 O 0.7381 0.81742 0.41907 0.0
O523 O 0.73857 0.82781 0.38794 0.0
C524 C 0.73253 0.81489 0.40086 0.0
C525 C 0.7672 0.88564 0.35782 0.0
C526 C 0.72512 0.88088 0.41993 0.0
C527 C 0.78997 0.86103 0.41925 0.0
O528 O 0.78365 0.87574 0.40914 0.0
O529 O 0.77936 0.84535 0.42094 0.0
O530 O 0.76735 0.8995 0.3711 0.0
O531 O 0.76112 0.86821 0.36328 0.0
O532 O 0.90446 0.9789 0.17388 0.0
Cd533 Cd 0.92414 0.99874 0.16128 0.0
Cd534 Cd 0.88865 1.0082 0.14147 0.0
O535 O 0.87746 0.98274 0.15544 0.0
O536 O 0.9503 0.98698 0.1696 0.0
O537 O 0.94052 0.98798 0.1383 0.0
C538 C 0.95323 0.98178 0.15135 0.0
C539 C 0.88229 0.01703 0.10806 0.0
C540 C 0.88679 0.97388 0.16937 0.0
C541 C 0.90657 0.03859 0.17034 0.0
O542 O 0.89202 0.03253 0.15982 0.0
O543 O 0.9223 0.02803 0.17183 0.0
O544 O 0.86843 0.017 0.12134 0.0
O545 O 0.89971 0.01086 0.11343 0.0
O546 O 0.78979 0.15404 0.92387 0.0
Cd547 Cd 0.77023 0.174 0.91131 0.0
Cd548 Cd 0.76053 0.1386 0.89133 0.0
O549 O 0.78579 0.12708 0.9054 0.0
O550 O 0.78195 0.19987 0.92049 0.0
O551 O 0.78157 0.19092 0.88896 0.0
C552 C 0.78757 0.20327 0.90247 0.0
C553 C 0.75179 0.13322 0.85778 0.0
C554 C 0.79468 0.13633 0.91937 0.0
C555 C 0.72998 0.15681 0.91972 0.0
O556 O 0.73603 0.14213 0.9094 0.0
O557 O 0.74078 0.17235 0.92148 0.0
O558 O 0.75156 0.119 0.87068 0.0
O559 O 0.75841 0.15033 0.86359 0.0
O560 O 0.84609 0.61394 0.97939 0.0
Cd561 Cd 0.85872 0.59424 0.99917 0.0
Cd562 Cd 0.87868 0.62941 1.00849 0.0
O563 O 0.8648 0.64077 0.98306 0.0
O564 O 0.85046 0.56808 0.98737 0.0
O565 O 0.88174 0.57796 0.98837 0.0
C566 C 0.86872 0.56522 0.98215 0.0
C567 C 0.91225 0.6347 0.01739 0.0
C568 C 0.85072 0.63156 0.97429 0.0
C569 C 0.84977 0.61183 0.03898 0.0
O570 O 0.86033 0.62632 0.03285 0.0
O571 O 0.84823 0.59607 0.02849 0.0
O572 O 0.89942 0.64898 0.01738 0.0
O573 O 0.90637 0.61754 0.01095 0.0
O574 O 0.34601 0.90394 0.03994 0.0
Cd575 Cd 0.35845 0.92401 0.02041 0.0
Cd576 Cd 0.37867 0.88855 0.01056 0.0
O577 O 0.36454 0.87706 0.03581 0.0
O578 O 0.34909 0.9498 0.03217 0.0
O579 O 0.38068 0.94106 0.0318 0.0
C580 C 0.3671 0.9533 0.03781 0.0
C581 C 0.41218 0.88237 1.00203 0.0
C582 C 0.35058 0.88624 0.04476 0.0
C583 C 0.35017 0.90687 0.98008 0.0
O584 O 0.36062 0.89224 0.98605 0.0
O585 O 0.34829 0.92234 0.99095 0.0
O586 O 0.39894 0.86848 1.00174 0.0
O587 O 0.4067 0.89971 1.00833 0.0
O588 O 0.86473 0.59554 0.79027 0.0
Cd589 Cd 0.84492 0.60795 0.77046 0.0
Cd590 Cd 0.88011 0.62789 0.76085 0.0
O591 O 0.89158 0.61417 0.78631 0.0
O592 O 0.81883 0.5996 0.78235 0.0
O593 O 0.82852 0.63093 0.78117 0.0
C594 C 0.81586 0.61787 0.78748 0.0
C595 C 0.88554 0.66136 0.75174 0.0
C596 C 0.88238 0.6002 0.79524 0.0
C597 C 0.86234 0.59882 0.7306 0.0
O598 O 0.87686 0.60942 0.7366 0.0
O599 O 0.84665 0.59731 0.7412 0.0
O600 O 0.89975 0.64846 0.75175 0.0
O601 O 0.86837 0.65561 0.75829 0.0
O602 O 0.17333 0.11525 0.54027 0.0
Cd603 Cd 0.1608 0.0955 0.52047 0.0
Cd604 Cd 0.14088 0.1307 0.51102 0.0
O605 O 0.15469 0.14211 0.53649 0.0
O606 O 0.16921 0.0694 0.53228 0.0
O607 O 0.13787 0.07907 0.53125 0.0
C608 C 0.15097 0.06642 0.53749 0.0
C609 C 0.10734 0.13596 0.50197 0.0
C610 C 0.16871 0.13288 0.54532 0.0
C611 C 0.16993 0.11306 0.48068 0.0
O612 O 0.15935 0.12756 0.48675 0.0
O613 O 0.1714 0.09731 0.4912 0.0
O614 O 0.12018 0.15025 0.502 0.0
O615 O 0.1132 0.11882 0.50848 0.0
O616 O 0.15475 0.92374 0.78917 0.0
Cd617 Cd 0.17479 0.91118 0.76969 0.0
Cd618 Cd 0.13937 0.89098 0.76007 0.0
O619 O 0.12788 0.90511 0.78531 0.0
O620 O 0.20061 0.92057 0.78138 0.0
O621 O 0.1918 0.889 0.78121 0.0
C622 C 0.20406 0.9026 0.78715 0.0
C623 C 0.13391 0.85742 0.7514 0.0
C624 C 0.13708 0.91917 0.79412 0.0
C625 C 0.15758 0.91924 0.72937 0.0
O626 O 0.14291 0.90893 0.73549 0.0
O627 O 0.17311 0.92112 0.74016 0.0
O628 O 0.11972 0.87035 0.75117 0.0
O629 O 0.15105 0.86321 0.758 0.0
O630 O 0.67382 0.40321 0.47907 0.0
Cd631 Cd 0.66161 0.42338 0.49865 0.0
Cd632 Cd 0.64081 0.38873 0.50857 0.0
O633 O 0.65436 0.37696 0.48313 0.0
O634 O 0.67008 0.4493 0.48652 0.0
O635 O 0.6387 0.43974 0.4878 0.0
C636 C 0.65181 0.45229 0.48139 0.0
C637 C 0.60721 0.38377 0.51753 0.0
C638 C 0.66861 0.38571 0.47419 0.0
C639 C 0.66988 0.40637 0.53889 0.0
O640 O 0.65917 0.39192 0.53295 0.0
O641 O 0.67193 0.42181 0.52802 0.0
O642 O 0.61994 0.3694 0.51766 0.0
O643 O 0.61321 0.40083 0.51095 0.0
O644 O 0.86657 0.42347 0.72875 0.0
Cd645 Cd 0.84628 0.41142 0.74831 0.0
Cd646 Cd 0.88105 0.39049 0.75815 0.0
O647 O 0.89276 0.40389 0.73262 0.0
O648 O 0.82062 0.421 0.73647 0.0
O649 O 0.829 0.38931 0.73708 0.0
C650 C 0.81692 0.403 0.73096 0.0
C651 C 0.88607 0.35697 0.76732 0.0
C652 C 0.88402 0.41819 0.72375 0.0
C653 C 0.86367 0.41983 0.78838 0.0
O654 O 0.87804 0.40903 0.7824 0.0
O655 O 0.84807 0.42168 0.7777 0.0
O656 O 0.90044 0.36971 0.7673 0.0
O657 O 0.86898 0.36291 0.76077 0.0
O658 O 0.65341 0.59506 0.22946 0.0
Cd659 Cd 0.67378 0.60724 0.24884 0.0
Cd660 Cd 0.63888 0.62814 0.25886 0.0
O661 O 0.62709 0.61444 0.23351 0.0
O662 O 0.69942 0.59776 0.23687 0.0
O663 O 0.69088 0.6294 0.23743 0.0
C664 C 0.703 0.61577 0.23129 0.0
C665 C 0.63369 0.6617 0.26781 0.0
C666 C 0.63587 0.60018 0.22461 0.0
C667 C 0.65678 0.59924 0.28922 0.0
O668 O 0.64229 0.60989 0.28327 0.0
O669 O 0.6722 0.59716 0.27831 0.0
O670 O 0.61942 0.64886 0.26801 0.0
O671 O 0.65077 0.65584 0.26115 0.0
O672 O 0.53951 0.67433 0.9045 0.0
Cd673 Cd 0.51996 0.6617 0.92444 0.0
Cd674 Cd 0.51043 0.64124 0.88944 0.0
O675 O 0.53588 0.65507 0.87803 0.0
O676 O 0.53192 0.66999 0.95051 0.0
O677 O 0.53101 0.63872 0.94057 0.0
C678 C 0.53725 0.65176 0.95329 0.0
C679 C 0.50155 0.60772 0.88403 0.0
C680 C 0.54461 0.66932 0.887 0.0
C681 C 0.47972 0.66972 0.90729 0.0
O682 O 0.4859 0.65934 0.89271 0.0
O683 O 0.49046 0.67167 0.92285 0.0
O684 O 0.50151 0.62061 0.8698 0.0
O685 O 0.50807 0.61351 0.90118 0.0
O686 O 0.59594 0.28898 0.15485 0.0
Cd687 Cd 0.60911 0.2695 0.17449 0.0
Cd688 Cd 0.62866 0.26011 0.13879 0.0
O689 O 0.61411 0.28528 0.12766 0.0
O690 O 0.60091 0.28127 0.20068 0.0
O691 O 0.63211 0.28078 0.19048 0.0
C692 C 0.61911 0.28682 0.20333 0.0
C693 C 0.66214 0.2518 0.13222 0.0
C694 C 0.60016 0.29398 0.13711 0.0
C695 C 0.60088 0.22921 0.1574 0.0
O696 O 0.61093 0.2354 0.14259 0.0
O697 O 0.5992 0.23996 0.17299 0.0
O698 O 0.64876 0.25152 0.11845 0.0
O699 O 0.65681 0.25804 0.14963 0.0
O700 O 0.9791 0.34567 0.40217 0.0
Cd701 Cd 0.99875 0.35772 0.42236 0.0
Cd702 Cd 1.00871 0.37843 0.38716 0.0
O703 O 0.98313 0.36488 0.37571 0.0
O704 O 0.98693 0.3481 0.44803 0.0
O705 O 0.98751 0.3798 0.43971 0.0
C706 C 0.98141 0.36609 0.45177 0.0
C707 C 0.01779 0.41181 0.38092 0.0
C708 C 0.97416 0.35076 0.38464 0.0
C709 C 0.03884 0.34915 0.40496 0.0
O710 O 0.03294 0.35991 0.39053 0.0
O711 O 0.02811 0.34737 0.42054 0.0
O712 O 0.01776 0.39856 0.36704 0.0
O713 O 0.01153 0.40643 0.3983 0.0
O714 O 0.92383 0.72884 0.65392 0.0
Cd715 Cd 0.91146 0.74832 0.67409 0.0
Cd716 Cd 0.89084 0.7583 0.63933 0.0
O717 O 0.90458 0.73298 0.62752 0.0
O718 O 0.91983 0.73616 0.70003 0.0
O719 O 0.88849 0.73738 0.69033 0.0
C720 C 0.90156 0.73099 0.70294 0.0
C721 C 0.8572 0.76714 0.63435 0.0
C722 C 0.91878 0.72403 0.63634 0.0
C723 C 0.91968 0.78867 0.65726 0.0
O724 O 0.90906 0.78275 0.64273 0.0
O725 O 0.9217 0.77773 0.67267 0.0
O726 O 0.86996 0.76739 0.62 0.0
O727 O 0.8632 0.76049 0.65139 0.0
O728 O 0.53955 0.34539 0.61447 0.0
Cd729 Cd 0.51995 0.35841 0.59484 0.0
Cd730 Cd 0.51075 0.37812 0.63025 0.0
O731 O 0.53602 0.36384 0.6415 0.0
O732 O 0.53169 0.35023 0.56864 0.0
O733 O 0.5311 0.38142 0.57879 0.0
C734 C 0.53717 0.36843 0.56595 0.0
C735 C 0.50221 0.4117 0.63573 0.0
C736 C 0.54467 0.3498 0.63214 0.0
C737 C 0.4798 0.35013 0.61214 0.0
O738 O 0.48609 0.36026 0.62686 0.0
O739 O 0.49043 0.34843 0.59649 0.0
O740 O 0.50205 0.39879 0.64994 0.0
O741 O 0.5087 0.40588 0.61856 0.0
O742 O 0.92393 0.2895 0.86495 0.0
Cd743 Cd 0.91125 0.26996 0.84505 0.0
Cd744 Cd 0.89084 0.26033 0.88023 0.0
O745 O 0.90489 0.28571 0.89156 0.0
O746 O 0.91964 0.28186 0.81898 0.0
O747 O 0.88833 0.28103 0.82883 0.0
C748 C 0.90142 0.28722 0.81614 0.0
C749 C 0.85735 0.25176 0.88652 0.0
C750 C 0.91906 0.2945 0.88252 0.0
C751 C 0.91934 0.2297 0.86216 0.0
O752 O 0.9089 0.23579 0.87674 0.0
O753 O 0.92129 0.24049 0.84665 0.0
O754 O 0.87062 0.25163 0.90039 0.0
O755 O 0.8628 0.25793 0.86912 0.0
O756 O 0.97924 0.67311 0.11494 0.0
Cd757 Cd 0.99901 0.66055 0.09518 0.0
Cd758 Cd 1.00871 0.64079 0.1307 0.0
O759 O 0.98327 0.65476 0.14197 0.0
O760 O 0.98711 0.66884 0.06906 0.0
O761 O 0.98824 0.63755 0.07883 0.0
C762 C 0.98195 0.65058 0.06615 0.0
C763 C 0.01768 0.60744 0.13719 0.0
C764 C 0.97432 0.66865 0.13264 0.0
C765 C 0.03894 0.66972 0.11256 0.0
O766 O 0.03298 0.65919 0.12714 0.0
O767 O 0.02829 0.67118 0.09689 0.0
O768 O 0.01768 0.62079 0.15098 0.0
O769 O 0.01141 0.6127 0.11978 0.0
O770 O 0.59599 0.72876 0.36534 0.0
Cd771 Cd 0.60837 0.74857 0.34552 0.0
Cd772 Cd 0.62859 0.75803 0.38049 0.0
O773 O 0.61489 0.73257 0.39202 0.0
O774 O 0.59992 0.73671 0.31945 0.0
O775 O 0.63129 0.73783 0.32905 0.0
C776 C 0.61817 0.73154 0.31644 0.0
C777 C 0.66223 0.76686 0.38541 0.0
C778 C 0.60079 0.72372 0.38292 0.0
C779 C 0.59942 0.7884 0.36312 0.0
O780 O 0.61014 0.78235 0.37753 0.0
O781 O 0.59779 0.77785 0.3474 0.0
O782 O 0.64954 0.76691 0.39983 0.0
O783 O 0.65615 0.76045 0.36831 0.0
O784 O 0.89255 0.48531 0.65874 0.0
Cd785 Cd 0.88859 0.50991 0.6409 0.0
Cd786 Cd 0.92429 0.51975 0.66094 0.0
O787 O 0.92274 0.4902 0.67086 0.0
O788 O 0.86827 0.50106 0.6209 0.0
O789 O 0.89937 0.50778 0.61272 0.0
C790 C 0.88199 0.5014 0.60748 0.0
C791 C 0.95352 0.53728 0.65231 0.0
C792 C 0.90728 0.4793 0.66899 0.0
C793 C 0.88647 0.54396 0.66919 0.0
O794 O 0.90423 0.53915 0.67359 0.0
O795 O 0.87719 0.53506 0.65525 0.0
O796 O 0.9501 0.53151 0.67029 0.0
O797 O 0.94124 0.53133 0.63873 0.0
O798 O 0.72948 0.65398 0.92361 0.0
Cd799 Cd 0.74925 0.67382 0.91118 0.0
Cd800 Cd 0.75844 0.63865 0.89087 0.0
O801 O 0.73298 0.62728 0.90468 0.0
O802 O 0.73779 0.69972 0.92059 0.0
O803 O 0.73803 0.69101 0.88898 0.0
C804 C 0.73215 0.70328 0.9026 0.0
C805 C 0.76724 0.63353 0.85726 0.0
C806 C 0.72429 0.63643 0.91884 0.0
C807 C 0.78909 0.65598 0.91977 0.0
O808 O 0.78286 0.64155 0.90919 0.0
O809 O 0.77864 0.67176 0.92142 0.0
O810 O 0.76721 0.61917 0.87001 0.0
O811 O 0.76088 0.65068 0.86326 0.0
O812 O 0.6268 0.53321 0.15916 0.0
Cd813 Cd 0.63038 0.50873 0.14102 0.0
Cd814 Cd 0.59522 0.49876 0.16178 0.0
O815 O 0.59684 0.52824 0.17182 0.0
O816 O 0.65047 0.51763 0.12079 0.0
O817 O 0.61922 0.51113 0.11299 0.0
C818 C 0.63658 0.51742 0.10754 0.0
C819 C 0.56599 0.48123 0.15322 0.0
C820 C 0.61226 0.53916 0.16974 0.0
C821 C 0.63304 0.47448 0.16907 0.0
O822 O 0.61547 0.47934 0.17408 0.0
O823 O 0.64194 0.48338 0.15489 0.0
O824 O 0.56951 0.48688 0.17122 0.0
O825 O 0.57817 0.4873 0.1396 0.0
O826 O 0.78918 0.36468 0.42348 0.0
Cd827 Cd 0.76965 0.34467 0.41094 0.0
Cd828 Cd 0.76001 0.38007 0.39081 0.0
O829 O 0.7853 0.39155 0.40487 0.0
O830 O 0.7814 0.31885 0.42022 0.0
O831 O 0.78111 0.32773 0.38866 0.0
C832 C 0.78711 0.31545 0.40221 0.0
C833 C 0.75126 0.38554 0.35727 0.0
C834 C 0.79413 0.38234 0.4189 0.0
C835 C 0.72939 0.3619 0.41918 0.0
O836 O 0.73548 0.37655 0.40885 0.0
O837 O 0.74016 0.34636 0.42101 0.0
O838 O 0.75106 0.39973 0.37021 0.0
O839 O 0.75785 0.36841 0.36303 0.0
O840 O 0.89249 0.53261 0.86043 0.0
Cd841 Cd 0.88957 0.50811 0.87862 0.0
Cd842 Cd 0.92471 0.49916 0.8587 0.0
O843 O 0.92283 0.52854 0.84847 0.0
O844 O 0.87006 0.51674 0.89952 0.0
O845 O 0.90159 0.51044 0.90625 0.0
C846 C 0.88443 0.51675 0.91226 0.0
C847 C 0.9537 0.4821 0.86867 0.0
C848 C 0.90699 0.53892 0.84999 0.0
C849 C 0.88757 0.47417 0.8504 0.0
O850 O 0.90514 0.47943 0.84579 0.0
O851 O 0.87832 0.48271 0.86458 0.0
O852 O 0.95094 0.48752 0.85046 0.0
O853 O 0.94089 0.48818 0.8817 0.0
O854 O 0.79014 0.65402 0.09585 0.0
Cd855 Cd 0.77053 0.67404 0.10824 0.0
Cd856 Cd 0.76062 0.63841 0.12827 0.0
O857 O 0.78595 0.62703 0.11422 0.0
O858 O 0.78228 0.69986 0.09891 0.0
O859 O 0.78178 0.69115 0.1305 0.0
C860 C 0.78782 0.7034 0.11694 0.0
C861 C 0.75175 0.63179 0.16163 0.0
C862 C 0.79495 0.63629 0.10033 0.0
C863 C 0.73037 0.65676 0.09948 0.0
O864 O 0.73628 0.64217 0.11002 0.0
O865 O 0.74114 0.67234 0.09787 0.0
O866 O 0.75161 0.61808 0.1482 0.0
O867 O 0.75809 0.6492 0.15643 0.0
O868 O 0.62706 0.4856 0.36001 0.0
Cd869 Cd 0.63053 0.51003 0.37821 0.0
Cd870 Cd 0.59545 0.51998 0.35753 0.0
O871 O 0.59706 0.4905 0.34745 0.0
O872 O 0.65014 0.50091 0.39878 0.0
O873 O 0.61883 0.5077 0.40597 0.0
C874 C 0.63595 0.50105 0.41171 0.0
C875 C 0.56623 0.53746 0.36626 0.0
C876 C 0.61251 0.47962 0.34947 0.0
C877 C 0.63328 0.54429 0.35026 0.0
O878 O 0.6157 0.53942 0.34525 0.0
O879 O 0.64218 0.53539 0.36443 0.0
O880 O 0.5697 0.53189 0.34823 0.0
O881 O 0.57846 0.53135 0.37981 0.0
O882 O 0.72997 0.36539 0.59501 0.0
Cd883 Cd 0.74939 0.34524 0.60747 0.0
Cd884 Cd 0.75934 0.38066 0.62797 0.0
O885 O 0.73399 0.39205 0.61394 0.0
O886 O 0.73758 0.31949 0.59808 0.0
O887 O 0.73787 0.32825 0.62967 0.0
C888 C 0.73187 0.31602 0.61607 0.0
C889 C 0.76808 0.3872 0.66136 0.0
C890 C 0.72509 0.38301 0.59985 0.0
C891 C 0.78984 0.36223 0.59953 0.0
O892 O 0.78385 0.37687 0.60993 0.0
O893 O 0.77892 0.3468 0.59755 0.0
O894 O 0.76827 0.40094 0.64797 0.0
O895 O 0.76173 0.36981 0.65611 0.0
O896 O 0.6736 0.902 0.54141 0.0
Cd897 Cd 0.66181 0.92233 0.52174 0.0
Cd898 Cd 0.6407 0.88775 0.5118 0.0
O899 O 0.65387 0.87593 0.53739 0.0
O900 O 0.67143 0.94795 0.53363 0.0
O901 O 0.6397 0.93973 0.53277 0.0
C902 C 0.6534 0.95175 0.53898 0.0
C903 C 0.60713 0.88308 0.50252 0.0
C904 C 0.66817 0.88457 0.54635 0.0
C905 C 0.67043 0.90484 0.48176 0.0
O906 O 0.65943 0.89058 0.48766 0.0
O907 O 0.67232 0.92044 0.49244 0.0
O908 O 0.61973 0.86859 0.50256 0.0
O909 O 0.61324 0.90011 0.50907 0.0
O910 O 0.17329 0.61465 0.47929 0.0
Cd911 Cd 0.16062 0.59488 0.49895 0.0
Cd912 Cd 0.14067 0.63027 0.50849 0.0
O913 O 0.15472 0.64155 0.48308 0.0
O914 O 0.16905 0.56881 0.48707 0.0
O915 O 0.13772 0.57855 0.48794 0.0
C916 C 0.15084 0.56591 0.48171 0.0
C917 C 0.10717 0.63649 0.51718 0.0
C918 C 0.16874 0.6323 0.47427 0.0
C919 C 0.16948 0.6123 0.53892 0.0
O920 O 0.15895 0.62685 0.53288 0.0
O921 O 0.17102 0.59662 0.52831 0.0
O922 O 0.1204 0.6504 0.51725 0.0
O923 O 0.11265 0.6191 0.51102 0.0
O924 O 0.64237 0.90923 0.78427 0.0
Cd925 Cd 0.63877 0.89094 0.75991 0.0
Cd926 Cd 0.67365 0.9115 0.74963 0.0
O927 O 0.67227 0.92188 0.77901 0.0
O928 O 0.61926 0.87034 0.76921 0.0
O929 O 0.65055 0.86321 0.76222 0.0
C930 C 0.63347 0.85744 0.76897 0.0
C931 C 0.70253 0.90167 0.73229 0.0
C932 C 0.65694 0.91986 0.79006 0.0
C933 C 0.63578 0.9186 0.7254 0.0
O934 O 0.65339 0.92365 0.73009 0.0
O935 O 0.62694 0.90454 0.73454 0.0
O936 O 0.69953 0.91994 0.73736 0.0
O937 O 0.69001 0.88857 0.73879 0.0
O938 O 0.34565 0.40328 0.97899 0.0
Cd939 Cd 0.35784 0.42342 0.99861 0.0
Cd940 Cd 0.37856 0.3884 1.00827 0.0
O941 O 0.36504 0.37692 0.98268 0.0
O942 O 0.34832 0.44915 0.98688 0.0
O943 O 0.37999 0.44066 0.98736 0.0
C944 C 0.36632 0.4528 0.98133 0.0
C945 C 0.41203 0.38308 0.01755 0.0
C946 C 0.35078 0.38581 0.9739 0.0
C947 C 0.34933 0.40586 0.03858 0.0
O948 O 0.36003 0.39145 0.0325 0.0
O949 O 0.34759 0.42154 0.028 0.0
O950 O 0.39917 0.36882 0.01741 0.0
O951 O 0.40625 0.40023 0.01102 0.0
O952 O 0.37717 0.61046 0.78348 0.0
Cd953 Cd 0.38095 0.62828 0.75884 0.0
Cd954 Cd 0.34518 0.60826 0.74931 0.0
O955 O 0.34689 0.59842 0.77888 0.0
O956 O 0.40132 0.6483 0.76755 0.0
O957 O 0.37017 0.65644 0.76106 0.0
C958 C 0.38759 0.6617 0.76734 0.0
C959 C 0.31588 0.61691 0.73188 0.0
C960 C 0.36245 0.60026 0.78965 0.0
C961 C 0.38281 0.59987 0.72487 0.0
O962 O 0.3651 0.59549 0.72984 0.0
O963 O 0.39216 0.61386 0.73363 0.0
O964 O 0.31927 0.59895 0.73771 0.0
O965 O 0.32823 0.63047 0.73772 0.0
O966 O 0.84605 0.1155 0.04066 0.0
Cd967 Cd 0.85812 0.09526 0.02109 0.0
Cd968 Cd 0.87871 0.13058 0.01094 0.0
O969 O 0.86503 0.14209 0.03642 0.0
O970 O 0.84857 0.0696 0.03298 0.0
O971 O 0.88025 0.07799 0.03232 0.0
C972 C 0.86658 0.06591 0.03846 0.0
C973 C 0.91202 0.13709 1.00176 0.0
C974 C 0.85099 0.1331 0.04547 0.0
C975 C 0.84943 0.11248 0.98094 0.0
O976 O 0.86019 0.12696 0.98676 0.0
O977 O 0.84768 0.09696 0.99175 0.0
O978 O 0.89864 0.15084 1.00175 0.0
O979 O 0.90682 0.11969 1.00812 0.0
O980 O 0.64222 0.10966 0.73694 0.0
Cd981 Cd 0.63896 0.12827 0.7611 0.0
Cd982 Cd 0.67406 0.10783 0.77093 0.0
O983 O 0.67228 0.09721 0.74168 0.0
O984 O 0.61877 0.14833 0.75207 0.0
O985 O 0.65005 0.15628 0.75815 0.0
C986 C 0.63263 0.1616 0.75195 0.0
C987 C 0.70313 0.11755 0.788 0.0
C988 C 0.65664 0.09888 0.73102 0.0
C989 C 0.63659 0.10067 0.7957 0.0
O990 O 0.65412 0.09563 0.79072 0.0
O991 O 0.6276 0.11475 0.78673 0.0
O992 O 0.70005 0.0993 0.7829 0.0
O993 O 0.6906 0.1307 0.78163 0.0
O994 O 0.87722 0.90864 0.23706 0.0
Cd995 Cd 0.88052 0.89042 0.26149 0.0
Cd996 Cd 0.84503 0.91048 0.27086 0.0
O997 O 0.84696 0.92071 0.24145 0.0
O998 O 0.90064 0.87012 0.25282 0.0
O999 O 0.8693 0.86244 0.25896 0.0
C1000 C 0.88669 0.85693 0.25285 0.0
C1001 C 0.81568 0.90162 0.28805 0.0
C1002 C 0.8627 0.91914 0.23092 0.0
C1003 C 0.88249 0.9186 0.29558 0.0
O1004 O 0.86484 0.92313 0.29052 0.0
O1005 O 0.89176 0.90454 0.28686 0.0
O1006 O 0.81906 0.91964 0.28241 0.0
O1007 O 0.82807 0.88813 0.28213 0.0
O1008 O 0.47851 0.3455 0.11611 0.0
Cd1009 Cd 0.49832 0.35762 0.09611 0.0
Cd1010 Cd 0.50827 0.37806 0.13125 0.0
O1011 O 0.48271 0.36447 0.1427 0.0
O1012 O 0.48633 0.34907 0.07012 0.0
O1013 O 0.48768 0.38048 0.07952 0.0
C1014 C 0.4813 0.36733 0.06699 0.0
C1015 C 0.51732 0.41144 0.13753 0.0
C1016 C 0.47363 0.35047 0.13369 0.0
C1017 C 0.53832 0.3487 0.11346 0.0
O1018 O 0.53247 0.35951 0.12789 0.0
O1019 O 0.52758 0.34698 0.09788 0.0
O1020 O 0.51731 0.39817 0.15139 0.0
O1021 O 0.51108 0.40607 0.12013 0.0
O1022 O 0.42365 0.72905 0.86587 0.0
Cd1023 Cd 0.41179 0.74866 0.84554 0.0
Cd1024 Cd 0.39103 0.75893 0.88073 0.0
O1025 O 0.40457 0.73344 0.89236 0.0
O1026 O 0.42145 0.73671 0.81996 0.0
O1027 O 0.38971 0.73753 0.82813 0.0
C1028 C 0.40343 0.73131 0.81615 0.0
C1029 C 0.3577 0.76812 0.88711 0.0
C1030 C 0.4186 0.7243 0.88346 0.0
C1031 C 0.42054 0.78879 0.86278 0.0
O1032 O 0.40964 0.78306 0.87719 0.0
O1033 O 0.42235 0.77795 0.84729 0.0
O1034 O 0.37104 0.76816 0.90091 0.0
O1035 O 0.36297 0.76175 0.86973 0.0
O1036 O 0.0395 0.67357 0.61485 0.0
Cd1037 Cd 0.01992 0.66097 0.59495 0.0
Cd1038 Cd 0.01043 0.64077 0.63052 0.0
O1039 O 0.03574 0.655 0.64177 0.0
O1040 O 0.03154 0.67019 0.56904 0.0
O1041 O 0.03134 0.63867 0.578 0.0
C1042 C 0.03727 0.6522 0.56565 0.0
C1043 C 1.00193 0.60726 0.63677 0.0
C1044 C 0.04452 0.66903 0.63251 0.0
C1045 C 0.9797 0.66913 0.6124 0.0
O1046 O 0.98585 0.65876 0.62699 0.0
O1047 O 0.99042 0.67101 0.59681 0.0
O1048 O 1.00177 0.6205 0.65067 0.0
O1049 O 1.00811 0.61274 0.61939 0.0
O1050 O 0.09609 0.28943 0.36361 0.0
Cd1051 Cd 0.1089 0.26973 0.34396 0.0
Cd1052 Cd 0.12882 0.26055 0.37915 0.0
O1053 O 0.11483 0.28597 0.39045 0.0
O1054 O 0.10068 0.28152 0.31779 0.0
O1055 O 0.13193 0.28071 0.32781 0.0
C1056 C 0.11891 0.2869 0.31504 0.0
C1057 C 0.16242 0.25176 0.38444 0.0
C1058 C 0.1007 0.29461 0.38121 0.0
C1059 C 0.10008 0.22991 0.36155 0.0
O1060 O 0.11055 0.23612 0.37607 0.0
O1061 O 0.09856 0.24036 0.34576 0.0
O1062 O 0.1496 0.25177 0.39874 0.0
O1063 O 0.15652 0.25815 0.36728 0.0
O1064 O 0.47989 0.67307 0.40531 0.0
Cd1065 Cd 0.4996 0.66012 0.42486 0.0
Cd1066 Cd 0.50879 0.64045 0.3892 0.0
O1067 O 0.48337 0.65469 0.37823 0.0
O1068 O 0.48792 0.66838 0.45108 0.0
O1069 O 0.48857 0.63715 0.44106 0.0
C1070 C 0.48249 0.65018 0.45385 0.0
C1071 C 0.51749 0.60705 0.38256 0.0
C1072 C 0.47471 0.66869 0.38766 0.0
C1073 C 0.53948 0.66894 0.40724 0.0
O1074 O 0.53325 0.65861 0.39263 0.0
O1075 O 0.52901 0.67038 0.42304 0.0
O1076 O 0.51744 0.62042 0.3688 0.0
O1077 O 0.51139 0.61232 0.40004 0.0
O1078 O 0.09563 0.72981 0.15414 0.0
Cd1079 Cd 0.10846 0.74936 0.17395 0.0
Cd1080 Cd 0.12849 0.75876 0.13881 0.0
O1081 O 0.11436 0.73351 0.12732 0.0
O1082 O 0.1003 0.73742 0.20008 0.0
O1083 O 0.13151 0.73826 0.18997 0.0
C1084 C 0.11854 0.73204 0.20276 0.0
C1085 C 0.16216 0.76728 0.1337 0.0
C1086 C 0.10024 0.72478 0.1365 0.0
C1087 C 0.10026 0.78958 0.15679 0.0
O1088 O 0.11055 0.78339 0.14215 0.0
O1089 O 0.09842 0.77886 0.17237 0.0
O1090 O 0.14938 0.76752 0.11936 0.0
O1091 O 0.15615 0.76077 0.15079 0.0
O1092 O 0.04003 0.34509 0.90296 0.0
Cd1093 Cd 0.02058 0.35723 0.92328 0.0
Cd1094 Cd 0.0108 0.37836 0.88865 0.0
O1095 O 0.03621 0.36481 0.87686 0.0
O1096 O 0.03245 0.3477 0.94894 0.0
O1097 O 0.03196 0.37936 0.94043 0.0
C1098 C 0.03805 0.3657 0.95254 0.0
C1099 C 1.00198 0.412 0.88382 0.0
C1100 C 0.04501 0.35042 0.88552 0.0
C1101 C 0.98029 0.34937 0.90608 0.0
O1102 O 0.98633 0.36009 0.89169 0.0
O1103 O 0.9911 0.3472 0.92156 0.0
O1104 O 1.00183 0.39934 0.86939 0.0
O1105 O 1.00849 0.40591 0.90087 0.0
O1106 O 0.42431 0.29029 0.65347 0.0
Cd1107 Cd 0.41248 0.27061 0.67376 0.0
Cd1108 Cd 0.39151 0.26062 0.63896 0.0
O1109 O 0.40485 0.28615 0.62721 0.0
O1110 O 0.4221 0.28248 0.6994 0.0
O1111 O 0.39038 0.28167 0.69116 0.0
C1112 C 0.40408 0.28785 0.70319 0.0
C1113 C 0.35796 0.25151 0.63386 0.0
C1114 C 0.41904 0.29518 0.63598 0.0
C1115 C 0.42103 0.23054 0.65637 0.0
O1116 O 0.41009 0.23641 0.64205 0.0
O1117 O 0.42294 0.2413 0.67191 0.0
O1118 O 0.37075 0.25145 0.61954 0.0
O1119 O 0.36387 0.25805 0.65096 0.0
O1120 O 0.11621 0.47955 0.34468 0.0
Cd1121 Cd 0.0959 0.49899 0.35686 0.0
Cd1122 Cd 0.13073 0.50887 0.37783 0.0
O1123 O 0.14248 0.48349 0.36416 0.0
O1124 O 0.07022 0.48711 0.34735 0.0
O1125 O 0.07876 0.48758 0.379 0.0
C1126 C 0.06663 0.4815 0.36534 0.0
C1127 C 0.13571 0.5177 0.41147 0.0
C1128 C 0.13371 0.47463 0.34986 0.0
C1129 C 0.11302 0.53932 0.34893 0.0
O1130 O 0.12748 0.53333 0.3596 0.0
O1131 O 0.09757 0.52846 0.34681 0.0
O1132 O 0.15007 0.51791 0.39873 0.0
O1133 O 0.11865 0.51112 0.40545 0.0
O1134 O 0.28995 0.36387 0.09576 0.0
Cd1135 Cd 0.27017 0.34412 0.10832 0.0
Cd1136 Cd 0.26066 0.37936 0.12818 0.0
O1137 O 0.28608 0.39077 0.11432 0.0
O1138 O 0.28206 0.318 0.10009 0.0
O1139 O 0.28091 0.32785 0.13137 0.0
C1140 C 0.28721 0.31513 0.11837 0.0
C1141 C 0.25164 0.3849 0.16167 0.0
C1142 C 0.29494 0.38153 0.10033 0.0
C1143 C 0.23034 0.36159 0.09918 0.0
O1144 O 0.23638 0.3761 0.10976 0.0
O1145 O 0.2409 0.34587 0.09769 0.0
O1146 O 0.25164 0.39907 0.14872 0.0
O1147 O 0.25815 0.36771 0.15595 0.0
O1148 O 0.40352 0.54084 0.84602 0.0
Cd1149 Cd 0.42353 0.52112 0.85826 0.0
Cd1150 Cd 0.38835 0.51102 0.87851 0.0
O1151 O 0.37686 0.53652 0.86487 0.0
O1152 O 0.44951 0.53318 0.84982 0.0
O1153 O 0.43999 0.53183 0.8812 0.0
C1154 C 0.45256 0.53823 0.86809 0.0
C1155 C 0.382 0.5019 0.91186 0.0
C1156 C 0.38589 0.54563 0.85091 0.0
C1157 C 0.40643 0.48105 0.84927 0.0
O1158 O 0.39191 0.48684 0.85998 0.0
O1159 O 0.42197 0.49186 0.84764 0.0
O1160 O 0.36817 0.50187 0.89854 0.0
O1161 O 0.39938 0.50824 0.90656 0.0
O1162 O 0.22934 0.6539 0.59586 0.0
Cd1163 Cd 0.24903 0.67377 0.60838 0.0
Cd1164 Cd 0.25855 0.63831 0.6285 0.0
O1165 O 0.23313 0.62702 0.61447 0.0
O1166 O 0.23745 0.69967 0.59913 0.0
O1167 O 0.23776 0.69082 0.63068 0.0
C1168 C 0.23183 0.70314 0.61714 0.0
C1169 C 0.26724 0.63223 0.66201 0.0
C1170 C 0.22432 0.63625 0.60044 0.0
C1171 C 0.28904 0.6562 0.59972 0.0
O1172 O 0.28296 0.64167 0.61024 0.0
O1173 O 0.27843 0.67189 0.59811 0.0
O1174 O 0.26729 0.61826 0.64884 0.0
O1175 O 0.26108 0.6496 0.65646 0.0
O1176 O 0.11636 0.53982 0.17356 0.0
Cd1177 Cd 0.09597 0.5204 0.16146 0.0
Cd1178 Cd 0.13089 0.51035 0.1405 0.0
O1179 O 0.14269 0.53572 0.15417 0.0
O1180 O 0.07033 0.53236 0.17101 0.0
O1181 O 0.07877 0.53178 0.13934 0.0
C1182 C 0.06669 0.53791 0.15301 0.0
C1183 C 0.13606 0.50131 0.10693 0.0
C1184 C 0.13391 0.54465 0.16842 0.0
C1185 C 0.11303 0.48004 0.16948 0.0
O1186 O 0.1275 0.48597 0.15879 0.0
O1187 O 0.09761 0.49095 0.17159 0.0
O1188 O 0.15035 0.50115 0.11977 0.0
O1189 O 0.11899 0.50798 0.1128 0.0
O1190 O 0.22963 0.36601 0.9235 0.0
Cd1191 Cd 0.24903 0.34572 0.91122 0.0
Cd1192 Cd 0.25903 0.38081 0.89035 0.0
O1193 O 0.23364 0.39238 0.90419 0.0
O1194 O 0.23715 0.32005 0.92072 0.0
O1195 O 0.23755 0.32862 0.88908 0.0
C1196 C 0.23149 0.31648 0.90274 0.0
C1197 C 0.26776 0.38685 0.85685 0.0
C1198 C 0.22475 0.38354 0.91841 0.0
C1199 C 0.28947 0.36274 0.91908 0.0
O1200 O 0.28351 0.37728 0.90851 0.0
O1201 O 0.27855 0.34733 0.92116 0.0
O1202 O 0.26794 0.4008 0.87003 0.0
O1203 O 0.26146 0.36952 0.86238 0.0
O1204 O 0.40443 0.47848 0.67356 0.0
Cd1205 Cd 0.42437 0.4983 0.66137 0.0
Cd1206 Cd 0.38942 0.50801 0.64077 0.0
O1207 O 0.37799 0.48244 0.65433 0.0
O1208 O 0.45039 0.4864 0.66985 0.0
O1209 O 0.44088 0.48766 0.63846 0.0
C1210 C 0.45346 0.48133 0.65159 0.0
C1211 C 0.38338 0.51687 0.6073 0.0
C1212 C 0.38692 0.47349 0.66845 0.0
C1213 C 0.40689 0.53823 0.67013 0.0
O1214 O 0.39253 0.53228 0.65929 0.0
O1215 O 0.42251 0.52757 0.67192 0.0
O1216 O 0.3694 0.51683 0.62045 0.0
O1217 O 0.40077 0.51078 0.61285 0.0
O1218 O 0.29013 0.65397 0.42346 0.0
Cd1219 Cd 0.27043 0.67383 0.41097 0.0
Cd1220 Cd 0.26091 0.63821 0.39089 0.0
O1221 O 0.28632 0.62701 0.40496 0.0
O1222 O 0.28197 0.6997 0.42039 0.0
O1223 O 0.28173 0.69101 0.38879 0.0
C1224 C 0.28763 0.70327 0.40241 0.0
C1225 C 0.25219 0.6318 0.35745 0.0
C1226 C 0.29515 0.63631 0.41893 0.0
C1227 C 0.23043 0.65622 0.41965 0.0
O1228 O 0.23651 0.64167 0.40914 0.0
O1229 O 0.24103 0.67192 0.42123 0.0
O1230 O 0.25212 0.61797 0.37076 0.0
O1231 O 0.25837 0.64922 0.36282 0.0
O1232 O 0.34567 0.1168 0.47909 0.0
Cd1233 Cd 0.3579 0.09661 0.49862 0.0
Cd1234 Cd 0.37895 0.13155 0.50829 0.0
O1235 O 0.36518 0.14307 0.48286 0.0
O1236 O 0.34833 0.07087 0.48692 0.0
O1237 O 0.38 0.07939 0.48728 0.0
C1238 C 0.36632 0.06723 0.4813 0.0
C1239 C 0.41254 0.13726 0.5169 0.0
C1240 C 0.35087 0.13427 0.47407 0.0
C1241 C 0.35013 0.11397 0.5389 0.0
O1242 O 0.36078 0.12839 0.53281 0.0
O1243 O 0.34798 0.09847 0.52812 0.0
O1244 O 0.39952 0.15136 0.51701 0.0
O1245 O 0.40679 0.11996 0.51074 0.0
O1246 O 0.846 0.40306 0.54001 0.0
Cd1247 Cd 0.85793 0.42335 0.5204 0.0
Cd1248 Cd 0.87859 0.38811 0.51014 0.0
O1249 O 0.86506 0.37655 0.53567 0.0
O1250 O 0.84825 0.44892 0.53233 0.0
O1251 O 0.87998 0.44075 0.53157 0.0
C1252 C 0.86625 0.45273 0.53777 0.0
C1253 C 0.91191 0.38172 0.50089 0.0
C1254 C 0.85104 0.38548 0.54479 0.0
C1255 C 0.84914 0.40614 0.48027 0.0
O1256 O 0.85997 0.3917 0.48602 0.0
O1257 O 0.84739 0.42164 0.49111 0.0
O1258 O 0.89856 0.36793 0.50087 0.0
O1259 O 0.90666 0.39909 0.50728 0.0
O1260 O 0.36646 0.09528 0.29047 0.0
Cd1261 Cd 0.3461 0.10731 0.27097 0.0
Cd1262 Cd 0.38076 0.12844 0.26106 0.0
O1263 O 0.39261 0.11491 0.28646 0.0
O1264 O 0.32043 0.09779 0.28285 0.0
O1265 O 0.32889 0.12946 0.28221 0.0
C1266 C 0.31677 0.11581 0.28833 0.0
C1267 C 0.38558 0.16208 0.25219 0.0
C1268 C 0.38394 0.10058 0.29536 0.0
C1269 C 0.36325 0.09937 0.23066 0.0
O1270 O 0.37765 0.11014 0.23663 0.0
O1271 O 0.34782 0.0972 0.24152 0.0
O1272 O 0.40001 0.14941 0.25202 0.0
O1273 O 0.36854 0.15599 0.25875 0.0
O1274 O 0.67321 0.61534 0.04004 0.0
Cd1275 Cd 0.66077 0.59533 0.02044 0.0
Cd1276 Cd 0.64068 0.63064 0.01075 0.0
O1277 O 0.65459 0.6422 0.03608 0.0
O1278 O 0.67015 0.56953 0.03215 0.0
O1279 O 0.63855 0.57821 0.03174 0.0
C1280 C 0.65215 0.56598 0.03774 0.0
C1281 C 0.60714 0.63598 1.00181 0.0
C1282 C 0.66861 0.63301 0.04496 0.0
C1283 C 0.66952 0.61268 0.98039 0.0
O1284 O 0.65899 0.62724 0.9864 0.0
O1285 O 0.67109 0.59704 0.99106 0.0
O1286 O 0.62004 0.65021 1.00168 0.0
O1287 O 0.61295 0.61886 1.00841 0.0
O1288 O 0.65372 0.42377 0.28972 0.0
Cd1289 Cd 0.67384 0.41138 0.2702 0.0
Cd1290 Cd 0.63921 0.39059 0.26046 0.0
O1291 O 0.62747 0.40426 0.28585 0.0
O1292 O 0.69982 0.41975 0.28227 0.0
O1293 O 0.69007 0.38843 0.28112 0.0
C1294 C 0.70271 0.40149 0.28747 0.0
C1295 C 0.6343 0.35695 0.25164 0.0
C1296 C 0.63623 0.41858 0.29468 0.0
C1297 C 0.65678 0.41946 0.22996 0.0
O1298 O 0.64233 0.40881 0.23599 0.0
O1299 O 0.67226 0.42154 0.24078 0.0
O1300 O 0.61989 0.36965 0.2515 0.0
O1301 O 0.65136 0.36301 0.25818 0.0
O1302 O 0.17393 0.90385 0.9791 0.0
Cd1303 Cd 0.1617 0.92396 0.9987 0.0
Cd1304 Cd 0.14098 0.889 1.0083 0.0
O1305 O 0.15448 0.87752 0.98271 0.0
O1306 O 0.17115 0.9497 0.98695 0.0
O1307 O 0.13951 0.94111 0.98741 0.0
C1308 C 0.15315 0.95328 0.98136 0.0
C1309 C 0.1075 0.88373 0.01756 0.0
C1310 C 0.16878 0.8864 0.97396 0.0
C1311 C 0.17022 0.90641 0.03864 0.0
O1312 O 0.15953 0.89201 0.03254 0.0
O1313 O 0.17194 0.92211 0.02808 0.0
O1314 O 0.12032 0.86944 0.01742 0.0
O1315 O 0.11333 0.90088 0.01105 0.0
O1316 O 0.36592 0.92345 0.22922 0.0
Cd1317 Cd 0.34569 0.91141 0.24884 0.0
Cd1318 Cd 0.38098 0.89088 0.259 0.0
O1319 O 0.3925 0.90448 0.23349 0.0
O1320 O 0.32003 0.92089 0.2369 0.0
O1321 O 0.32845 0.88922 0.23767 0.0
C1322 C 0.31636 0.90286 0.23147 0.0
C1323 C 0.38742 0.85757 0.26817 0.0
C1324 C 0.38352 0.91849 0.22441 0.0
C1325 C 0.36293 0.92023 0.28894 0.0
O1326 O 0.37739 0.90945 0.28316 0.0
O1327 O 0.34739 0.92195 0.27814 0.0
O1328 O 0.4012 0.87092 0.2682 0.0
O1329 O 0.37003 0.86281 0.26182 0.0
O1330 O 0.15517 0.09608 0.7295 0.0
Cd1331 Cd 0.17502 0.10877 0.7491 0.0
Cd1332 Cd 0.13961 0.12863 0.75859 0.0
O1333 O 0.12821 0.11459 0.73326 0.0
O1334 O 0.20097 0.0997 0.73747 0.0
O1335 O 0.19189 0.13118 0.73781 0.0
C1336 C 0.20431 0.11773 0.73186 0.0
C1337 C 0.13412 0.16214 0.76752 0.0
C1338 C 0.13749 0.10056 0.72449 0.0
C1339 C 0.15758 0.09995 0.78907 0.0
O1340 O 0.14298 0.11038 0.78297 0.0
O1341 O 0.17329 0.09847 0.77849 0.0
O1342 O 0.11992 0.1492 0.76758 0.0
O1343 O 0.15128 0.1564 0.76097 0.0
C1344 C 0.07839 0.18494 0.38779 0.0
C1345 C 0.06127 0.18049 0.37665 0.0
C1346 C 0.09164 0.19985 0.38179 0.0
C1347 C 0.08817 0.21135 0.36455 0.0
H1348 H 0.08104 0.17748 0.40185 0.0
H1349 H 0.10413 0.2031 0.39146 0.0
S1350 S 0.04635 0.2041 0.32907 0.0
N1351 N 0.04235 0.18734 0.34664 0.0
N1352 N 0.06708 0.21578 0.33538 0.0
C1353 C 0.0718 0.20607 0.35248 0.0
C1354 C 0.05838 0.19057 0.35854 0.0
C1355 C 0.06128 0.82023 0.6052 0.0
C1356 C 0.05823 0.83818 0.61569 0.0
C1357 C 0.07656 0.80693 0.6107 0.0
C1358 C 0.08927 0.81119 0.62679 0.0
H1359 H 0.05096 0.81575 0.59365 0.0
H1360 H 0.07744 0.79261 0.60332 0.0
S1361 S 0.09006 0.85752 0.65666 0.0
N1362 N 0.07134 0.86062 0.64103 0.0
N1363 N 0.09949 0.83542 0.65148 0.0
C1364 C 0.08746 0.8297 0.63624 0.0
C1365 C 0.07212 0.84327 0.63062 0.0
C1366 C 0.42908 0.81908 0.88265 0.0
C1367 C 0.43257 0.8073 0.8656 0.0
C1368 C 0.44235 0.83405 0.88846 0.0
C1369 C 0.45951 0.83827 0.87731 0.0
H1370 H 0.41653 0.81604 0.89231 0.0
H1371 H 0.43965 0.84175 0.90238 0.0
S1372 S 0.47456 0.81386 0.83018 0.0
N1373 N 0.45377 0.80234 0.8366 0.0
N1374 N 0.47854 0.83088 0.8475 0.0
C1375 C 0.46246 0.82788 0.85939 0.0
C1376 C 0.44902 0.81232 0.85352 0.0
C1377 C 0.45111 0.17867 0.13441 0.0
C1378 C 0.46257 0.18193 0.1171 0.0
C1379 C 0.43604 0.19186 0.14015 0.0
C1380 C 0.43139 0.20869 0.12868 0.0
H1381 H 0.45446 0.16639 0.1443 0.0
H1382 H 0.42857 0.18936 0.15424 0.0
S1383 S 0.4549 0.22301 0.08087 0.0
N1384 N 0.46681 0.20255 0.08757 0.0
N1385 N 0.43808 0.22714 0.09835 0.0
C1386 C 0.44149 0.21139 0.11055 0.0
C1387 C 0.45715 0.19804 0.10475 0.0
C1388 C 0.05748 0.8268 0.15922 0.0
C1389 C 0.06165 0.83931 0.14294 0.0
C1390 C 0.07082 0.81157 0.16481 0.0
C1391 C 0.08871 0.80839 0.15426 0.0
H1392 H 0.04321 0.82779 0.16667 0.0
H1393 H 0.06641 0.80139 0.17652 0.0
S1394 S 0.10779 0.83967 0.11277 0.0
N1395 N 0.08574 0.84919 0.11798 0.0
N1396 N 0.11098 0.82115 0.12861 0.0
C1397 C 0.09371 0.82208 0.13913 0.0
C1398 C 0.08011 0.83735 0.13341 0.0
C1399 C 0.44259 0.80753 0.41013 0.0
C1400 C 0.43012 0.81154 0.39379 0.0
C1401 C 0.45777 0.82095 0.41568 0.0
C1402 C 0.46094 0.83876 0.405 0.0
H1403 H 0.44162 0.79331 0.41768 0.0
H1404 H 0.46793 0.81665 0.42744 0.0
S1405 S 0.42974 0.85744 0.36327 0.0
N1406 N 0.42025 0.83541 0.36862 0.0
N1407 N 0.4482 0.86081 0.37915 0.0
C1408 C 0.44728 0.84361 0.3898 0.0
C1409 C 0.43205 0.82993 0.38413 0.0
C1410 C 0.42948 0.20039 0.63625 0.0
C1411 C 0.43295 0.21198 0.65343 0.0
C1412 C 0.44262 0.18531 0.63043 0.0
C1413 C 0.45962 0.18077 0.64171 0.0
H1414 H 0.41706 0.20366 0.62649 0.0
H1415 H 0.43996 0.17775 0.61642 0.0
S1416 S 0.47452 0.20462 0.68918 0.0
N1417 N 0.45395 0.21644 0.68267 0.0
N1418 N 0.47846 0.1877 0.67176 0.0
C1419 C 0.46253 0.19099 0.65974 0.0
C1420 C 0.44923 0.20666 0.66561 0.0
C1421 C 0.07611 0.2127 0.90851 0.0
C1422 C 0.08864 0.20866 0.89221 0.0
C1423 C 0.06094 0.19928 0.91406 0.0
C1424 C 0.05784 0.1814 0.90346 0.0
H1425 H 0.07707 0.22694 0.91604 0.0
H1426 H 0.05077 0.20359 0.92581 0.0
S1427 S 0.08921 0.16263 0.86187 0.0
N1428 N 0.09862 0.18471 0.86716 0.0
N1429 N 0.0707 0.15929 0.87771 0.0
C1430 C 0.07154 0.17654 0.88828 0.0
C1431 C 0.08675 0.19023 0.8826 0.0
C1432 C 0.36079 0.05648 0.19353 0.0
C1433 C 0.37712 0.06052 0.18106 0.0
C1434 C 0.35525 0.06987 0.20874 0.0
C1435 C 0.36591 0.08769 0.21194 0.0
H1436 H 0.35321 0.04228 0.19251 0.0
H1437 H 0.34345 0.06556 0.21885 0.0
S1438 S 0.40769 0.10641 0.18077 0.0
N1439 N 0.40232 0.08439 0.17126 0.0
N1440 N 0.3918 0.10974 0.19924 0.0
C1441 C 0.38115 0.09255 0.1983 0.0
C1442 C 0.38681 0.07889 0.18305 0.0
C1443 C 0.17882 0.13338 0.45081 0.0
C1444 C 0.18199 0.11603 0.46222 0.0
C1445 C 0.19215 0.13922 0.4359 0.0
C1446 C 0.20905 0.1278 0.43137 0.0
H1447 H 0.16648 0.14323 0.45409 0.0
H1448 H 0.18968 0.15332 0.42847 0.0
S1449 S 0.22321 0.0799 0.45478 0.0
N1450 N 0.20262 0.08651 0.46652 0.0
N1451 N 0.22748 0.09746 0.43809 0.0
C1452 C 0.21168 0.10963 0.4414 0.0
C1453 C 0.19818 0.10373 0.4569 0.0
C1454 C 0.15982 0.96217 0.69238 0.0
C1455 C 0.14366 0.9579 0.67975 0.0
C1456 C 0.16548 0.9488 0.70755 0.0
C1457 C 0.1551 0.93079 0.71056 0.0
H1458 H 0.1671 0.97654 0.69154 0.0
H1459 H 0.17707 0.95329 0.71783 0.0
S1460 S 0.114 0.91143 0.67892 0.0
N1461 N 0.11902 0.9336 0.66957 0.0
N1462 N 0.12978 0.9083 0.69751 0.0
C1463 C 0.14011 0.9257 0.69675 0.0
C1464 C 0.13432 0.93933 0.68152 0.0
C1465 C 0.30711 0.90957 0.94318 0.0
C1466 C 0.31113 0.89335 0.93056 0.0
C1467 C 0.32058 0.91505 0.95834 0.0
C1468 C 0.33846 0.90443 0.96134 0.0
H1469 H 0.29287 0.91709 0.94232 0.0
H1470 H 0.31629 0.92673 0.9686 0.0
S1471 S 0.35714 0.86299 0.92975 0.0
N1472 N 0.33504 0.86833 0.92041 0.0
N1473 N 0.36053 0.87874 0.94832 0.0
C1474 C 0.3433 0.88933 0.94756 0.0
C1475 C 0.32956 0.88373 0.93235 0.0
C1476 C 0.38852 0.94202 0.33425 0.0
C1477 C 0.37737 0.95918 0.33845 0.0
C1478 C 0.38273 0.92875 0.31928 0.0
C1479 C 0.36571 0.93225 0.30747 0.0
H1480 H 0.40244 0.93932 0.34198 0.0
H1481 H 0.3924 0.9162 0.31625 0.0
S1482 S 0.33029 0.97423 0.31395 0.0
N1483 N 0.34758 0.97821 0.33101 0.0
N1484 N 0.33671 0.95345 0.30245 0.0
C1485 C 0.35362 0.94869 0.31247 0.0
C1486 C 0.35947 0.96213 0.32803 0.0
C1487 C 0.30743 0.11144 0.57625 0.0
C1488 C 0.31145 0.12785 0.58863 0.0
C1489 C 0.32077 0.10591 0.56101 0.0
C1490 C 0.33853 0.11665 0.55768 0.0
H1491 H 0.29327 0.1038 0.57738 0.0
H1492 H 0.31647 0.09404 0.55097 0.0
S1493 S 0.35721 0.15862 0.58858 0.0
N1494 N 0.33525 0.15321 0.59822 0.0
N1495 N 0.36053 0.14269 0.57016 0.0
C1496 C 0.34338 0.13196 0.57122 0.0
C1497 C 0.32977 0.13762 0.58651 0.0
C1498 C 0.13174 0.07824 0.83424 0.0
C1499 C 0.14291 0.06112 0.83855 0.0
C1500 C 0.13762 0.09151 0.8193 0.0
C1501 C 0.15475 0.08805 0.80764 0.0
H1502 H 0.11775 0.08089 0.84184 0.0
H1503 H 0.12793 0.10401 0.81616 0.0
S1504 S 0.19027 0.04621 0.81448 0.0
N1505 N 0.17285 0.04219 0.83139 0.0
N1506 N 0.18387 0.06696 0.8029 0.0
C1507 C 0.16686 0.07167 0.81278 0.0
C1508 C 0.16093 0.05823 0.8283 0.0
C1509 C 0.19183 0.88023 0.08369 0.0
C1510 C 0.20878 0.89154 0.08833 0.0
C1511 C 0.17868 0.88612 0.06865 0.0
C1512 C 0.18209 0.90341 0.05722 0.0
H1513 H 0.18922 0.86614 0.09112 0.0
H1514 H 0.1663 0.87634 0.06528 0.0
S1515 S 0.22347 0.9393 0.06496 0.0
N1516 N 0.22748 0.92174 0.08172 0.0
N1517 N 0.20294 0.93279 0.05305 0.0
C1518 C 0.1983 0.91563 0.06267 0.0
C1519 C 0.21161 0.90968 0.07829 0.0
C1520 C 0.20031 0.38173 0.09049 0.0
C1521 C 0.21188 0.36453 0.08711 0.0
C1522 C 0.18547 0.38768 0.07713 0.0
C1523 C 0.18118 0.37651 0.06 0.0
H1524 H 0.20342 0.39141 0.10301 0.0
H1525 H 0.17792 0.4017 0.07975 0.0
S1526 S 0.20506 0.32902 0.04526 0.0
N1527 N 0.21658 0.33538 0.06606 0.0
N1528 N 0.18827 0.34652 0.04113 0.0
C1529 C 0.19135 0.35845 0.05717 0.0
C1530 C 0.20678 0.35245 0.0707 0.0
C1531 C 0.69326 0.15934 0.9629 0.0
C1532 C 0.68066 0.1431 0.95888 0.0
C1533 C 0.70834 0.1649 0.94938 0.0
C1534 C 0.71128 0.15434 0.93145 0.0
H1535 H 0.69245 0.1668 0.97718 0.0
H1536 H 0.71861 0.17658 0.95368 0.0
S1537 S 0.67962 0.11297 0.91271 0.0
N1538 N 0.67039 0.11818 0.93489 0.0
N1539 N 0.69816 0.12875 0.90931 0.0
C1540 C 0.69749 0.13925 0.92661 0.0
C1541 C 0.68236 0.13356 0.9404 0.0
C1542 C 0.11085 0.44315 0.21255 0.0
C1543 C 0.12699 0.4305 0.20831 0.0
C1544 C 0.10522 0.45833 0.19917 0.0
C1545 C 0.11562 0.46132 0.18116 0.0
H1546 H 0.10351 0.44229 0.22689 0.0
H1547 H 0.09361 0.46859 0.20363 0.0
S1548 S 0.15674 0.42965 0.16191 0.0
N1549 N 0.15168 0.42032 0.18407 0.0
N1550 N 0.14099 0.44825 0.15874 0.0
C1551 C 0.13063 0.44751 0.17612 0.0
C1552 C 0.13638 0.43229 0.18976 0.0
C1553 C 0.81196 0.85296 0.44866 0.0
C1554 C 0.80875 0.8636 0.43084 0.0
C1555 C 0.82706 0.85864 0.46212 0.0
C1556 C 0.83939 0.87511 0.45814 0.0
H1557 H 0.80189 0.84111 0.45294 0.0
H1558 H 0.82805 0.85111 0.47635 0.0
S1559 S 0.83966 0.90558 0.4122 0.0
N1560 N 0.82134 0.88954 0.4088 0.0
N1561 N 0.84912 0.90033 0.43427 0.0
C1562 C 0.83743 0.88473 0.43973 0.0
C1563 C 0.8223 0.87892 0.42601 0.0
C1564 C 0.88061 0.08361 0.19227 0.0
C1565 C 0.8919 0.08802 0.2093 0.0
C1566 C 0.88646 0.06867 0.17899 0.0
C1567 C 0.90369 0.05711 0.18233 0.0
H1568 H 0.86658 0.09114 0.18969 0.0
H1569 H 0.8767 0.06547 0.16655 0.0
S1570 S 0.93946 0.0642 0.22392 0.0
N1571 N 0.922 0.08104 0.22803 0.0
N1572 N 0.93296 0.05254 0.20325 0.0
C1573 C 0.91588 0.06232 0.19864 0.0
C1574 C 0.90997 0.07785 0.21209 0.0
C1575 C 0.31927 0.6362 0.59131 0.0
C1576 C 0.30766 0.65336 0.58786 0.0
C1577 C 0.33432 0.63039 0.57813 0.0
C1578 C 0.3388 0.64165 0.56111 0.0
H1579 H 0.31602 0.62645 0.60374 0.0
H1580 H 0.34188 0.61638 0.58078 0.0
S1581 S 0.31486 0.68906 0.54623 0.0
N1582 N 0.3031 0.68257 0.56685 0.0
N1583 N 0.3318 0.67166 0.54227 0.0
C1584 C 0.32857 0.65967 0.55822 0.0
C1585 C 0.31293 0.66554 0.57157 0.0
C1586 C 0.11077 0.57632 0.30594 0.0
C1587 C 0.12701 0.58888 0.31012 0.0
C1588 C 0.10515 0.56114 0.31933 0.0
C1589 C 0.11564 0.55806 0.33727 0.0
H1590 H 0.10337 0.57723 0.29164 0.0
H1591 H 0.09347 0.55094 0.31492 0.0
S1592 S 0.15705 0.58948 0.35634 0.0
N1593 N 0.15189 0.5989 0.33423 0.0
N1594 N 0.14122 0.57095 0.35957 0.0
C1595 C 0.13075 0.57179 0.34226 0.0
C1596 C 0.13649 0.58702 0.32861 0.0
C1597 C 0.38664 0.45075 0.84059 0.0
C1598 C 0.40374 0.4625 0.83728 0.0
C1599 C 0.38101 0.4357 0.82734 0.0
C1600 C 0.39242 0.43136 0.81037 0.0
H1601 H 0.37679 0.45387 0.85298 0.0
H1602 H 0.36705 0.42801 0.82989 0.0
S1603 S 0.43976 0.45568 0.79585 0.0
N1604 N 0.43305 0.46734 0.81646 0.0
N1605 N 0.4225 0.43863 0.79173 0.0
C1606 C 0.41038 0.44174 0.80761 0.0
C1607 C 0.41605 0.45738 0.82103 0.0
C1608 C 0.94927 0.81042 0.66537 0.0
C1609 C 0.93137 0.8074 0.65479 0.0
C1610 C 0.96269 0.82563 0.6599 0.0
C1611 C 0.95858 0.83829 0.64373 0.0
H1612 H 0.95363 0.80016 0.67702 0.0
H1613 H 0.97695 0.82652 0.66738 0.0
S1614 S 0.91247 0.83907 0.61351 0.0
N1615 N 0.90918 0.82045 0.62921 0.0
N1616 N 0.93456 0.84845 0.61881 0.0
C1617 C 0.94013 0.83648 0.63416 0.0
C1618 C 0.92645 0.82122 0.63975 0.0
C1619 C 0.95057 0.17895 0.38642 0.0
C1620 C 0.96224 0.18243 0.40354 0.0
C1621 C 0.93561 0.1922 0.38053 0.0
C1622 C 0.9313 0.20934 0.39168 0.0
H1623 H 0.95367 0.16641 0.37675 0.0
H1624 H 0.92798 0.1895 0.36657 0.0
S1625 S 0.95547 0.22437 0.43895 0.0
N1626 N 0.96705 0.20362 0.43258 0.0
N1627 N 0.93852 0.22835 0.42155 0.0
C1628 C 0.9416 0.21229 0.40966 0.0
C1629 C 0.95715 0.19886 0.4156 0.0
C1630 C 0.55805 0.19212 0.1602 0.0
C1631 C 0.56207 0.17958 0.14391 0.0
C1632 C 0.57149 0.20729 0.16571 0.0
C1633 C 0.58933 0.21038 0.15505 0.0
H1634 H 0.54381 0.19122 0.16772 0.0
H1635 H 0.56718 0.21751 0.17742 0.0
S1636 S 0.60808 0.17895 0.11352 0.0
N1637 N 0.586 0.16954 0.11885 0.0
N1638 N 0.61143 0.19748 0.12933 0.0
C1639 C 0.5942 0.19664 0.13993 0.0
C1640 C 0.5805 0.18142 0.13429 0.0
C1641 C 0.57684 0.80704 0.90998 0.0
C1642 C 0.58955 0.81117 0.89385 0.0
C1643 C 0.56173 0.82052 0.91553 0.0
C1644 C 0.55886 0.8385 0.90507 0.0
H1645 H 0.57758 0.79271 0.91734 0.0
H1646 H 0.55138 0.81614 0.9271 0.0
S1647 S 0.5908 0.85752 0.86403 0.0
N1648 N 0.59999 0.83531 0.86917 0.0
N1649 N 0.57215 0.86081 0.87972 0.0
C1650 C 0.57276 0.84345 0.89011 0.0
C1651 C 0.58793 0.82971 0.88444 0.0
C1652 C 0.96224 0.19266 0.85964 0.0
C1653 C 0.95821 0.18018 0.87597 0.0
C1654 C 0.94882 0.20781 0.85407 0.0
C1655 C 0.93097 0.21095 0.8647 0.0
H1656 H 0.97648 0.1917 0.85211 0.0
H1657 H 0.95313 0.21796 0.84231 0.0
S1658 S 0.91222 0.17971 0.90638 0.0
N1659 N 0.93429 0.17027 0.90108 0.0
N1660 N 0.90887 0.19817 0.8905 0.0
C1661 C 0.9261 0.19728 0.8799 0.0
C1662 C 0.93979 0.18208 0.88559 0.0
C1663 C 0.56231 0.19779 0.60393 0.0
C1664 C 0.55903 0.18003 0.61467 0.0
C1665 C 0.57748 0.2112 0.60952 0.0
C1666 C 0.58982 0.20725 0.62599 0.0
H1667 H 0.55226 0.20205 0.59206 0.0
H1668 H 0.57854 0.22538 0.6019 0.0
S1669 S 0.5899 0.16149 0.65672 0.0
N1670 N 0.57154 0.15808 0.64071 0.0
N1671 N 0.59945 0.18348 0.65134 0.0
C1672 C 0.58778 0.18891 0.63572 0.0
C1673 C 0.57257 0.17523 0.63 0.0
C1674 C 0.57738 0.83321 0.3894 0.0
C1675 C 0.5605 0.83785 0.37799 0.0
C1676 C 0.59064 0.81825 0.38353 0.0
C1677 C 0.58741 0.80689 0.36615 0.0
H1678 H 0.57989 0.84061 0.40352 0.0
H1679 H 0.60296 0.8149 0.39338 0.0
S1680 S 0.54621 0.81458 0.33005 0.0
N1681 N 0.54202 0.83126 0.34764 0.0
N1682 N 0.56675 0.80273 0.33663 0.0
C1683 C 0.57124 0.81231 0.35387 0.0
C1684 C 0.55782 0.82786 0.3598 0.0
C1685 C 0.9358 0.82779 0.13915 0.0
C1686 C 0.93117 0.81087 0.12779 0.0
C1687 C 0.95086 0.84095 0.13332 0.0
C1688 C 0.96234 0.83757 0.11605 0.0
H1689 H 0.92834 0.83037 0.15322 0.0
H1690 H 0.95421 0.8533 0.14314 0.0
S1691 S 0.9547 0.79626 0.08007 0.0
N1692 N 0.93788 0.79222 0.09757 0.0
N1693 N 0.9666 0.81677 0.08664 0.0
C1694 C 0.95692 0.82139 0.10379 0.0
C1695 C 0.94127 0.80806 0.10967 0.0
C1696 C 0.65954 0.96303 0.82681 0.0
C1697 C 0.64358 0.95878 0.8397 0.0
C1698 C 0.66499 0.94961 0.8116 0.0
C1699 C 0.65459 0.93157 0.8088 0.0
H1700 H 0.66683 0.9774 0.82751 0.0
H1701 H 0.67644 0.95407 0.80115 0.0
S1702 S 0.61395 0.9123 0.84109 0.0
N1703 N 0.61909 0.9345 0.8503 0.0
N1704 N 0.62946 0.90912 0.82227 0.0
C1705 C 0.63979 0.92652 0.82283 0.0
C1706 C 0.63422 0.9402 0.8381 0.0
C1707 C 0.83994 0.88549 0.5692 0.0
C1708 C 0.83647 0.90255 0.55745 0.0
C1709 C 0.82673 0.87973 0.58424 0.0
C1710 C 0.80965 0.89096 0.58858 0.0
H1711 H 0.85244 0.87577 0.56609 0.0
H1712 H 0.82941 0.8658 0.59194 0.0
S1713 S 0.79467 0.93813 0.56423 0.0
N1714 N 0.81536 0.93163 0.5526 0.0
N1715 N 0.7907 0.92084 0.58128 0.0
C1716 C 0.80671 0.90888 0.57819 0.0
C1717 C 0.82009 0.91469 0.56256 0.0
C1718 C 0.85976 0.05727 0.32728 0.0
C1719 C 0.8761 0.06133 0.33974 0.0
C1720 C 0.8542 0.07065 0.31207 0.0
C1721 C 0.86485 0.08848 0.30887 0.0
H1722 H 0.85222 0.04305 0.32828 0.0
H1723 H 0.84244 0.06631 0.30193 0.0
S1724 S 0.90654 0.10731 0.34007 0.0
N1725 N 0.90123 0.08528 0.34958 0.0
N1726 N 0.89066 0.1106 0.32159 0.0
C1727 C 0.88005 0.09338 0.32252 0.0
C1728 C 0.88574 0.07974 0.33778 0.0
C1729 C 0.69971 0.10507 0.06161 0.0
C1730 C 0.68172 0.11551 0.05866 0.0
C1731 C 0.71312 0.11063 0.07679 0.0
C1732 C 0.70892 0.12675 0.08949 0.0
H1733 H 0.70413 0.09349 0.0513 0.0
H1734 H 0.72746 0.10328 0.0776 0.0
S1735 S 0.66257 0.15658 0.09047 0.0
N1736 N 0.65935 0.14088 0.07182 0.0
N1737 N 0.68473 0.15144 0.09978 0.0
C1738 C 0.69038 0.13616 0.08776 0.0
C1739 C 0.67671 0.13048 0.07253 0.0
C1740 C 0.63057 0.07679 0.68613 0.0
C1741 C 0.64187 0.05978 0.68172 0.0
C1742 C 0.63644 0.09011 0.70103 0.0
C1743 C 0.65369 0.08682 0.71256 0.0
H1744 H 0.61652 0.07934 0.67861 0.0
H1745 H 0.62666 0.10254 0.70422 0.0
S1746 S 0.68953 0.0453 0.70544 0.0
N1747 N 0.67203 0.04112 0.68866 0.0
N1748 N 0.68302 0.06598 0.71709 0.0
C1749 C 0.66589 0.07053 0.70735 0.0
C1750 C 0.65997 0.05704 0.69186 0.0
C1751 C 0.69245 0.87855 0.43693 0.0
C1752 C 0.70923 0.89006 0.43216 0.0
C1753 C 0.67926 0.88436 0.45196 0.0
C1754 C 0.68244 0.90178 0.46327 0.0
H1755 H 0.68999 0.8644 0.42957 0.0
H1756 H 0.66701 0.87444 0.4554 0.0
S1757 S 0.72337 0.93813 0.45524 0.0
N1758 N 0.72756 0.92053 0.43857 0.0
N1759 N 0.70295 0.93143 0.46724 0.0
C1760 C 0.69851 0.91414 0.45774 0.0
C1761 C 0.71187 0.90828 0.44211 0.0
C1762 C 0.88881 0.94098 0.18594 0.0
C1763 C 0.87744 0.9579 0.18135 0.0
C1764 C 0.88295 0.92774 0.20091 0.0
C1765 C 0.86563 0.93103 0.21234 0.0
H1766 H 0.90292 0.93846 0.17851 0.0
H1767 H 0.89278 0.9154 0.20425 0.0
S1768 S 0.82959 0.97229 0.20475 0.0
N1769 N 0.84715 0.97643 0.18801 0.0
N1770 N 0.83616 0.95174 0.21657 0.0
C1771 C 0.85335 0.9472 0.20695 0.0
C1772 C 0.85927 0.96061 0.19138 0.0
C1773 C 0.841 0.13226 0.95058 0.0
C1774 C 0.83747 0.11525 0.96238 0.0
C1775 C 0.82776 0.13806 0.93557 0.0
C1776 C 0.8106 0.12691 0.93134 0.0
H1777 H 0.85355 0.14193 0.95364 0.0
H1778 H 0.83048 0.15197 0.92786 0.0
S1779 S 0.79548 0.07983 0.95579 0.0
N1780 N 0.81624 0.08626 0.96735 0.0
N1781 N 0.79155 0.09711 0.93873 0.0
C1782 C 0.80763 0.109 0.94175 0.0
C1783 C 0.82103 0.10316 0.95734 0.0
C1784 C 0.81897 0.63553 0.92831 0.0
C1785 C 0.80767 0.65292 0.93163 0.0
C1786 C 0.83399 0.6296 0.94148 0.0
C1787 C 0.83873 0.64096 0.95836 0.0
H1788 H 0.81552 0.62571 0.91598 0.0
H1789 H 0.84131 0.61544 0.93893 0.0
S1790 S 0.81567 0.68893 0.97285 0.0
N1791 N 0.80371 0.68242 0.95235 0.0
N1792 N 0.83233 0.67129 0.97692 0.0
C1793 C 0.82881 0.65917 0.96112 0.0
C1794 C 0.81321 0.66517 0.94778 0.0
C1795 C 0.31958 0.88196 0.09121 0.0
C1796 C 0.30784 0.86489 0.0877 0.0
C1797 C 0.3345 0.88784 0.07791 0.0
C1798 C 0.33871 0.87674 0.06072 0.0
H1799 H 0.31652 0.89159 0.10378 0.0
H1800 H 0.34217 0.90178 0.08062 0.0
S1801 S 0.31438 0.82958 0.04564 0.0
N1802 N 0.3029 0.83591 0.06646 0.0
N1803 N 0.33136 0.84694 0.04165 0.0
C1804 C 0.32837 0.85879 0.05777 0.0
C1805 C 0.31286 0.85285 0.07123 0.0
C1806 C 0.88654 0.56878 0.84142 0.0
C1807 C 0.90393 0.55748 0.83811 0.0
C1808 C 0.88055 0.5837 0.82818 0.0
C1809 C 0.89185 0.58834 0.81123 0.0
H1810 H 0.87675 0.56538 0.85379 0.0
H1811 H 0.86639 0.59102 0.83072 0.0
S1812 S 0.93984 0.56527 0.79676 0.0
N1813 N 0.93339 0.55343 0.81734 0.0
N1814 N 0.92216 0.58187 0.79263 0.0
C1815 C 0.91009 0.57844 0.80849 0.0
C1816 C 0.91614 0.56294 0.8219 0.0
C1817 C 0.18539 0.13097 0.57817 0.0
C1818 C 0.18071 0.1423 0.56125 0.0
C1819 C 0.20047 0.13684 0.5913 0.0
C1820 C 0.2119 0.15413 0.58788 0.0
H1821 H 0.17796 0.11688 0.58077 0.0
H1822 H 0.20387 0.12704 0.60364 0.0
S1823 S 0.2041 0.19006 0.54657 0.0
N1824 N 0.18731 0.17252 0.54258 0.0
N1825 N 0.21604 0.18353 0.56707 0.0
C1826 C 0.20642 0.16637 0.57171 0.0
C1827 C 0.19075 0.16044 0.55842 0.0
C1828 C 0.13885 0.93533 0.82722 0.0
C1829 C 0.12766 0.93108 0.81009 0.0
C1830 C 0.13303 0.95027 0.84052 0.0
C1831 C 0.11595 0.96201 0.83707 0.0
H1832 H 0.1528 0.92766 0.82988 0.0
H1833 H 0.14273 0.95334 0.85304 0.0
S1834 S 0.08044 0.9554 0.79517 0.0
N1835 N 0.09778 0.93842 0.79114 0.0
N1836 N 0.08688 0.96692 0.81594 0.0
C1837 C 0.10384 0.95696 0.82066 0.0
C1838 C 0.10971 0.94143 0.80719 0.0
C1839 C 0.6926 0.35974 0.46232 0.0
C1840 C 0.67997 0.3759 0.4581 0.0
C1841 C 0.70771 0.35406 0.44888 0.0
C1842 C 0.71064 0.36442 0.43084 0.0
H1843 H 0.69181 0.35246 0.47669 0.0
H1844 H 0.718 0.34247 0.45333 0.0
S1845 S 0.67893 0.40549 0.41159 0.0
N1846 N 0.66968 0.40051 0.43382 0.0
N1847 N 0.6975 0.38971 0.40839 0.0
C1848 C 0.69682 0.37941 0.42581 0.0
C1849 C 0.68166 0.38522 0.43951 0.0
C1850 C 0.9154 0.45753 0.69853 0.0
C1851 C 0.90497 0.46046 0.68053 0.0
C1852 C 0.90986 0.44232 0.71191 0.0
C1853 C 0.89379 0.42957 0.70766 0.0
H1854 H 0.92692 0.46789 0.70301 0.0
H1855 H 0.91717 0.44154 0.72627 0.0
S1856 S 0.86406 0.42853 0.66124 0.0
N1857 N 0.87971 0.44724 0.65808 0.0
N1858 N 0.86918 0.41922 0.6834 0.0
C1859 C 0.88442 0.43127 0.6891 0.0
C1860 C 0.89008 0.44654 0.67546 0.0
C1861 C 0.60996 0.57608 0.21278 0.0
C1862 C 0.6261 0.58875 0.20855 0.0
C1863 C 0.60436 0.5609 0.19939 0.0
C1864 C 0.61477 0.55792 0.18139 0.0
H1865 H 0.60264 0.57691 0.22713 0.0
H1866 H 0.59277 0.55061 0.20384 0.0
S1867 S 0.65588 0.58963 0.16216 0.0
N1868 N 0.65079 0.59897 0.18432 0.0
N1869 N 0.64014 0.57101 0.15898 0.0
C1870 C 0.62976 0.57175 0.17635 0.0
C1871 C 0.63549 0.58699 0.19 0.0
C1872 C 0.57029 0.7085 0.85569 0.0
C1873 C 0.58814 0.71155 0.86635 0.0
C1874 C 0.5568 0.69337 0.8612 0.0
C1875 C 0.56078 0.68084 0.8775 0.0
H1876 H 0.56604 0.71867 0.84393 0.0
H1877 H 0.54259 0.69246 0.85364 0.0
S1878 S 0.6067 0.68017 0.90801 0.0
N1879 N 0.61014 0.69866 0.89218 0.0
N1880 N 0.58461 0.67082 0.90265 0.0
C1881 C 0.57917 0.68268 0.88718 0.0
C1882 C 0.59293 0.69786 0.88154 0.0
C1883 C 0.56843 0.34002 0.13354 0.0
C1884 C 0.55684 0.3367 0.11633 0.0
C1885 C 0.58347 0.3268 0.13928 0.0
C1886 C 0.58796 0.30986 0.1279 0.0
H1887 H 0.56521 0.3524 0.14336 0.0
H1888 H 0.59105 0.32938 0.15329 0.0
S1889 S 0.56406 0.29532 0.08034 0.0
N1890 N 0.5523 0.31589 0.08697 0.0
N1891 N 0.58098 0.29123 0.09774 0.0
C1892 C 0.57772 0.30708 0.10986 0.0
C1893 C 0.5621 0.32047 0.10406 0.0
C1894 C 0.96195 0.32679 0.35879 0.0
C1895 C 0.95795 0.33939 0.37504 0.0
C1896 C 0.94846 0.31164 0.35331 0.0
C1897 C 0.9306 0.30864 0.36396 0.0
H1898 H 0.9762 0.32763 0.35127 0.0
H1899 H 0.95275 0.30139 0.34163 0.0
S1900 S 0.91196 0.34021 0.40543 0.0
N1901 N 0.93406 0.34954 0.40008 0.0
N1902 N 0.90854 0.32166 0.38967 0.0
C1903 C 0.92577 0.32242 0.37906 0.0
C1904 C 0.93952 0.33762 0.38466 0.0
C1905 C 0.95789 0.69876 0.60459 0.0
C1906 C 0.96095 0.68078 0.61501 0.0
C1907 C 0.94276 0.71216 0.6103 0.0
C1908 C 0.93024 0.70798 0.62657 0.0
H1909 H 0.96808 0.70318 0.5929 0.0
H1910 H 0.94185 0.72648 0.60294 0.0
S1911 S 0.92959 0.66164 0.65643 0.0
N1912 N 0.94807 0.65843 0.64053 0.0
N1913 N 0.92022 0.6838 0.65138 0.0
C1914 C 0.93208 0.68945 0.63598 0.0
C1915 C 0.94725 0.67578 0.63014 0.0
C1916 C 0.57753 0.33319 0.62998 0.0
C1917 C 0.5606 0.33769 0.64137 0.0
C1918 C 0.59077 0.31818 0.63572 0.0
C1919 C 0.58747 0.30661 0.65295 0.0
H1920 H 0.58007 0.34074 0.61594 0.0
H1921 H 0.60313 0.31494 0.62588 0.0
S1922 S 0.54613 0.31388 0.68899 0.0
N1923 N 0.54201 0.33076 0.67157 0.0
N1924 N 0.5667 0.30212 0.68235 0.0
C1925 C 0.57126 0.31189 0.66524 0.0
C1926 C 0.55785 0.32749 0.65944 0.0
C1927 C 0.95832 0.31987 0.914 0.0
C1928 C 0.96155 0.33771 0.90337 0.0
C1929 C 0.94312 0.3065 0.90841 0.0
C1930 C 0.93069 0.31057 0.89205 0.0
H1931 H 0.96841 0.31555 0.92582 0.0
H1932 H 0.94206 0.2923 0.91597 0.0
S1933 S 0.93047 0.35651 0.86159 0.0
N1934 N 0.94892 0.35981 0.87751 0.0
N1935 N 0.92094 0.33448 0.86688 0.0
C1936 C 0.93271 0.32895 0.8824 0.0
C1937 C 0.94795 0.34259 0.88812 0.0
C1938 C 0.9414 0.6852 0.13074 0.0
C1939 C 0.95837 0.68063 0.14204 0.0
C1940 C 0.9282 0.7002 0.13663 0.0
C1941 C 0.93157 0.71166 0.15391 0.0
H1942 H 0.93881 0.67775 0.11666 0.0
H1943 H 0.91581 0.70352 0.12684 0.0
S1944 S 0.97301 0.70414 0.18977 0.0
N1945 N 0.97706 0.68736 0.17224 0.0
N1946 N 0.95242 0.71595 0.18327 0.0
C1947 C 0.9478 0.70629 0.16612 0.0
C1948 C 0.96117 0.6907 0.16018 0.0
C1949 C 0.56962 0.67739 0.38714 0.0
C1950 C 0.55808 0.68081 0.40436 0.0
C1951 C 0.58456 0.69064 0.38122 0.0
C1952 C 0.58899 0.70771 0.39243 0.0
H1953 H 0.56638 0.66493 0.37742 0.0
H1954 H 0.59206 0.68803 0.36716 0.0
S1955 S 0.56527 0.72249 0.44 0.0
N1956 N 0.55359 0.7018 0.43359 0.0
N1957 N 0.58209 0.72653 0.42249 0.0
C1958 C 0.57887 0.71055 0.41052 0.0
C1959 C 0.56334 0.69713 0.4165 0.0
C1960 C 0.88237 0.59026 0.70044 0.0
C1961 C 0.86523 0.58681 0.7121 0.0
C1962 C 0.88823 0.57698 0.6855 0.0
C1963 C 0.87705 0.55987 0.68118 0.0
H1964 H 0.89205 0.60277 0.70356 0.0
H1965 H 0.90221 0.57965 0.67788 0.0
S1966 S 0.82971 0.54495 0.70528 0.0
N1967 N 0.83612 0.5657 0.71687 0.0
N1968 N 0.84712 0.54093 0.68837 0.0
C1969 C 0.85905 0.55696 0.69146 0.0
C1970 C 0.85313 0.57041 0.70699 0.0
C1971 C 0.69125 0.63834 0.93511 0.0
C1972 C 0.70828 0.62705 0.93073 0.0
C1973 C 0.67801 0.63258 0.95012 0.0
C1974 C 0.68141 0.61545 0.96179 0.0
H1975 H 0.68866 0.65234 0.92751 0.0
H1976 H 0.66558 0.64235 0.9533 0.0
S1977 S 0.723 0.57967 0.95481 0.0
N1978 N 0.72706 0.59703 0.93785 0.0
N1979 N 0.70235 0.58621 0.96648 0.0
C1980 C 0.6977 0.60323 0.9566 0.0
C1981 C 0.71111 0.60905 0.941 0.0
C1982 C 0.66466 0.44906 0.20814 0.0
C1983 C 0.65412 0.43115 0.21125 0.0
C1984 C 0.65902 0.46248 0.19301 0.0
C1985 C 0.6427 0.45838 0.18053 0.0
H1986 H 0.67642 0.4534 0.21828 0.0
H1987 H 0.66649 0.47674 0.19206 0.0
S1988 S 0.61248 0.41227 0.18001 0.0
N1989 N 0.6284 0.40897 0.19846 0.0
N1990 N 0.61768 0.43437 0.1706 0.0
C1991 C 0.63315 0.43993 0.18242 0.0
C1992 C 0.63892 0.42624 0.19759 0.0
C1993 C 0.82726 0.38058 0.43499 0.0
C1994 C 0.81011 0.39175 0.43081 0.0
C1995 C 0.84056 0.38635 0.44995 0.0
C1996 C 0.8371 0.40337 0.46176 0.0
H1997 H 0.82993 0.36666 0.42726 0.0
H1998 H 0.8531 0.37666 0.45296 0.0
S1999 S 0.79515 0.43884 0.45533 0.0
N2000 N 0.79112 0.42156 0.43828 0.0
N2001 N 0.81594 0.43239 0.46681 0.0
C2002 C 0.82067 0.41548 0.45678 0.0
C2003 C 0.8072 0.40965 0.44124 0.0
C2004 C 0.8839 0.4283 0.81846 0.0
C2005 C 0.86661 0.43167 0.807 0.0
C2006 C 0.88968 0.44141 0.83358 0.0
C2007 C 0.87827 0.45827 0.83828 0.0
H2008 H 0.89375 0.416 0.81506 0.0
H2009 H 0.90377 0.43885 0.84104 0.0
S2010 S 0.83052 0.47285 0.81482 0.0
N2011 N 0.83715 0.4524 0.80283 0.0
N2012 N 0.84801 0.47686 0.83166 0.0
C2013 C 0.86016 0.46107 0.82819 0.0
C2014 C 0.85431 0.4478 0.81248 0.0
C2015 C 0.82795 0.63803 0.08392 0.0
C2016 C 0.81089 0.62682 0.0884 0.0
C2017 C 0.84121 0.63208 0.06899 0.0
C2018 C 0.83781 0.61483 0.05751 0.0
H2019 H 0.83058 0.65209 0.0914 0.0
H2020 H 0.85367 0.6418 0.06574 0.0
S2021 S 0.79613 0.57919 0.06479 0.0
N2022 N 0.79207 0.59673 0.08156 0.0
N2023 N 0.81681 0.58558 0.05308 0.0
C2024 C 0.82148 0.6027 0.06279 0.0
C2025 C 0.80805 0.60871 0.0783 0.0
C2026 C 0.66473 0.56964 0.31099 0.0
C2027 C 0.65422 0.58757 0.30795 0.0
C2028 C 0.65915 0.55623 0.32617 0.0
C2029 C 0.64294 0.56038 0.33877 0.0
H2030 H 0.6764 0.56525 0.30076 0.0
H2031 H 0.66658 0.54194 0.32705 0.0
S2032 S 0.61288 0.60657 0.3395 0.0
N2033 N 0.62867 0.60983 0.32094 0.0
N2034 N 0.61807 0.58446 0.34887 0.0
C2035 C 0.63345 0.57886 0.33695 0.0
C2036 C 0.63915 0.59253 0.32173 0.0
C2037 C 0.69952 0.41437 0.56064 0.0
C2038 C 0.68164 0.40375 0.55757 0.0
C2039 C 0.71298 0.40883 0.57578 0.0
C2040 C 0.70896 0.39253 0.5883 0.0
H2041 H 0.7038 0.42613 0.55047 0.0
H2042 H 0.72721 0.41638 0.57671 0.0
S2043 S 0.66297 0.36212 0.58892 0.0
N2044 N 0.65958 0.37796 0.57044 0.0
N2045 N 0.68507 0.36743 0.5983 0.0
C2046 C 0.69055 0.38289 0.58644 0.0
C2047 C 0.67682 0.38856 0.57126 0.0
C2048 C 0.70729 0.85297 0.57161 0.0
C2049 C 0.71024 0.86336 0.58962 0.0
C2050 C 0.69212 0.85859 0.55821 0.0
C2051 C 0.67944 0.87471 0.56246 0.0
H2052 H 0.71763 0.84143 0.56713 0.0
H2053 H 0.69134 0.85131 0.54383 0.0
S2054 S 0.67845 0.90435 0.60894 0.0
N2055 N 0.69708 0.88863 0.6121 0.0
N2056 N 0.66914 0.8993 0.58675 0.0
C2057 C 0.68114 0.88403 0.58104 0.0
C2058 C 0.69637 0.87829 0.5947 0.0
C2059 C 0.20021 0.63621 0.4281 0.0
C2060 C 0.21182 0.65339 0.43152 0.0
C2061 C 0.18518 0.6304 0.44131 0.0
C2062 C 0.18072 0.64168 0.45832 0.0
H2063 H 0.20344 0.62645 0.41568 0.0
H2064 H 0.17762 0.61638 0.43868 0.0
S2065 S 0.20463 0.68915 0.4731 0.0
N2066 N 0.21637 0.68264 0.45248 0.0
N2067 N 0.18772 0.67174 0.47711 0.0
C2068 C 0.19094 0.65972 0.46118 0.0
C2069 C 0.20656 0.66558 0.4478 0.0
C2070 C 0.60988 0.94264 0.71347 0.0
C2071 C 0.62597 0.92991 0.70928 0.0
C2072 C 0.6042 0.95766 0.69994 0.0
C2073 C 0.61449 0.9604 0.68183 0.0
H2074 H 0.60265 0.942 0.72788 0.0
H2075 H 0.59267 0.96804 0.70435 0.0
S2076 S 0.65535 0.92836 0.66265 0.0
N2077 N 0.65043 0.91932 0.68497 0.0
N2078 N 0.63963 0.94697 0.65937 0.0
C2079 C 0.6294 0.94647 0.67684 0.0
C2080 C 0.63521 0.93141 0.69063 0.0
C2081 C 0.32668 0.36001 0.96187 0.0
C2082 C 0.33928 0.37623 0.95778 0.0
C2083 C 0.31141 0.35455 0.94851 0.0
C2084 C 0.30828 0.3652 0.93067 0.0
H2085 H 0.32763 0.35248 0.9761 0.0
H2086 H 0.30119 0.34286 0.95287 0.0
S2087 S 0.33976 0.40666 0.91181 0.0
N2088 N 0.34927 0.40128 0.93383 0.0
N2089 N 0.32116 0.39091 0.90853 0.0
C2090 C 0.32204 0.38029 0.92575 0.0
C2091 C 0.33736 0.38587 0.93937 0.0
C2092 C 0.3866 0.56819 0.67881 0.0
C2093 C 0.4039 0.55674 0.68212 0.0
C2094 C 0.38076 0.58319 0.69203 0.0
C2095 C 0.39212 0.58777 0.70896 0.0
H2096 H 0.37679 0.56488 0.66645 0.0
H2097 H 0.36668 0.59065 0.68947 0.0
S2098 S 0.43989 0.56427 0.72346 0.0
N2099 N 0.43332 0.55245 0.7029 0.0
N2100 N 0.42236 0.58105 0.72757 0.0
C2101 C 0.41025 0.57769 0.71172 0.0
C2102 C 0.41615 0.5621 0.69833 0.0
C2103 C 0.81188 0.1648 0.07075 0.0
C2104 C 0.80858 0.1542 0.08859 0.0
C2105 C 0.8271 0.15916 0.05743 0.0
C2106 C 0.83948 0.14277 0.06154 0.0
H2107 H 0.80182 0.17662 0.06638 0.0
H2108 H 0.82819 0.16668 0.0432 0.0
S2109 S 0.83952 0.11239 0.10754 0.0
N2110 N 0.82111 0.12836 0.11077 0.0
N2111 N 0.84912 0.11763 0.08553 0.0
C2112 C 0.83741 0.13317 0.07995 0.0
C2113 C 0.82214 0.13894 0.09354 0.0
C2114 C 0.60516 0.06145 0.82108 0.0
C2115 C 0.61574 0.05833 0.83896 0.0
C2116 C 0.61071 0.07666 0.80771 0.0
C2117 C 0.62697 0.0892 0.81182 0.0
H2118 H 0.59345 0.05126 0.8167 0.0
H2119 H 0.60322 0.07761 0.79345 0.0
S2120 S 0.65719 0.08977 0.85794 0.0
N2121 N 0.64139 0.07121 0.86119 0.0
N2122 N 0.65195 0.09921 0.83586 0.0
C2123 C 0.63654 0.08732 0.83027 0.0
C2124 C 0.63086 0.07206 0.84391 0.0
C2125 C 0.88636 0.95021 0.34165 0.0
C2126 C 0.90341 0.96197 0.3381 0.0
C2127 C 0.88062 0.93509 0.32852 0.0
C2128 C 0.89186 0.93068 0.31147 0.0
H2129 H 0.87662 0.95338 0.35412 0.0
H2130 H 0.86668 0.92741 0.33123 0.0
S2131 S 0.93902 0.95501 0.29636 0.0
N2132 N 0.9325 0.96675 0.31698 0.0
N2133 N 0.92174 0.93792 0.29249 0.0
C2134 C 0.90978 0.94107 0.30848 0.0
C2135 C 0.91557 0.95678 0.32177 0.0
C2136 C 0.46147 0.32682 0.15987 0.0
C2137 C 0.45749 0.33904 0.14333 0.0
C2138 C 0.44808 0.31167 0.16557 0.0
C2139 C 0.43031 0.3083 0.15487 0.0
H2140 H 0.47565 0.32796 0.16748 0.0
H2141 H 0.45237 0.3017 0.1775 0.0
S2142 S 0.41166 0.33888 0.11267 0.0
N2143 N 0.43366 0.34849 0.11795 0.0
N2144 N 0.40831 0.32062 0.12878 0.0
C2145 C 0.42548 0.32173 0.13946 0.0
C2146 C 0.43914 0.33691 0.13363 0.0
C2147 C 0.44252 0.71249 0.90951 0.0
C2148 C 0.43002 0.70825 0.89324 0.0
C2149 C 0.45774 0.69917 0.91518 0.0
C2150 C 0.46091 0.68124 0.9047 0.0
H2151 H 0.44154 0.72679 0.91689 0.0
H2152 H 0.46791 0.70364 0.92687 0.0
S2153 S 0.42959 0.66195 0.86331 0.0
N2154 N 0.4201 0.68404 0.8684 0.0
N2155 N 0.44812 0.65883 0.87918 0.0
C2156 C 0.44721 0.67617 0.8896 0.0
C2157 C 0.43195 0.68975 0.8838 0.0
C2158 C 0.07748 0.68549 0.63054 0.0
C2159 C 0.06049 0.68101 0.64187 0.0
C2160 C 0.09075 0.70045 0.63637 0.0
C2161 C 0.08743 0.71197 0.65362 0.0
H2162 H 0.08003 0.67798 0.61648 0.0
H2163 H 0.10314 0.70369 0.62657 0.0
S2164 S 0.04597 0.7047 0.68952 0.0
N2165 N 0.04184 0.68789 0.67204 0.0
N2166 N 0.0666 0.71643 0.68298 0.0
C2167 C 0.07117 0.7067 0.66585 0.0
C2168 C 0.05773 0.69115 0.65996 0.0
C2169 C 0.08415 0.3275 0.3792 0.0
C2170 C 0.08865 0.31053 0.39053 0.0
C2171 C 0.06907 0.34067 0.38496 0.0
C2172 C 0.05744 0.33725 0.40212 0.0
H2173 H 0.09173 0.33011 0.36519 0.0
H2174 H 0.06582 0.35306 0.37516 0.0
S2175 S 0.06468 0.29577 0.43798 0.0
N2176 N 0.08165 0.29178 0.4206 0.0
N2177 N 0.05289 0.31634 0.4314 0.0
C2178 C 0.06272 0.32101 0.41435 0.0
C2179 C 0.07839 0.30768 0.40855 0.0
C2180 C 0.42885 0.7007 0.38427 0.0
C2181 C 0.43208 0.71211 0.36693 0.0
C2182 C 0.44201 0.68561 0.39 0.0
C2183 C 0.45879 0.68087 0.37848 0.0
H2184 H 0.41661 0.70412 0.3942 0.0
H2185 H 0.43953 0.67818 0.40411 0.0
S2186 S 0.473 0.7042 0.33055 0.0
N2187 N 0.45261 0.7162 0.3373 0.0
N2188 N 0.47715 0.68742 0.34805 0.0
C2189 C 0.46145 0.69092 0.36031 0.0
C2190 C 0.44813 0.7066 0.35453 0.0
C2191 C 0.06917 0.67835 0.13247 0.0
C2192 C 0.05745 0.68175 0.11536 0.0
C2193 C 0.08409 0.69168 0.13829 0.0
C2194 C 0.08832 0.7088 0.1271 0.0
H2195 H 0.06611 0.66583 0.14216 0.0
H2196 H 0.09175 0.68905 0.15226 0.0
S2197 S 0.06402 0.72363 0.07984 0.0
N2198 N 0.05252 0.70285 0.08628 0.0
N2199 N 0.08098 0.72771 0.0972 0.0
C2200 C 0.07798 0.71166 0.10913 0.0
C2201 C 0.06248 0.69817 0.10325 0.0
C2202 C 0.07022 0.31114 0.85407 0.0
C2203 C 0.08828 0.30827 0.86442 0.0
C2204 C 0.05681 0.32629 0.85966 0.0
C2205 C 0.06109 0.33906 0.87571 0.0
H2206 H 0.06574 0.30075 0.84257 0.0
H2207 H 0.04242 0.32702 0.85242 0.0
S2208 S 0.10764 0.34028 0.90523 0.0
N2209 N 0.11079 0.32159 0.88958 0.0
N2210 N 0.08542 0.34951 0.9002 0.0
C2211 C 0.0797 0.33743 0.885 0.0
C2212 C 0.09336 0.32221 0.87929 0.0
C2213 C 0.45789 0.32065 0.60416 0.0
C2214 C 0.46101 0.33856 0.61468 0.0
C2215 C 0.44277 0.30722 0.60985 0.0
C2216 C 0.43032 0.31133 0.62619 0.0
H2217 H 0.46805 0.31628 0.59242 0.0
H2218 H 0.44185 0.29293 0.60243 0.0
S2219 S 0.42979 0.35752 0.65628 0.0
N2220 N 0.44823 0.3608 0.64034 0.0
N2221 N 0.42039 0.33539 0.65116 0.0
C2222 C 0.43219 0.32982 0.63568 0.0
C2223 C 0.44735 0.3435 0.62986 0.0
C2224 C 0.15967 0.46264 0.32589 0.0
C2225 C 0.14344 0.45852 0.33847 0.0
C2226 C 0.16529 0.4492 0.31076 0.0
C2227 C 0.15479 0.43125 0.30774 0.0
H2228 H 0.16708 0.47694 0.32675 0.0
H2229 H 0.17697 0.45357 0.30054 0.0
S2230 S 0.11338 0.41231 0.33924 0.0
N2231 N 0.11855 0.43445 0.34858 0.0
N2232 N 0.12921 0.40901 0.32072 0.0
C2233 C 0.13969 0.42632 0.3215 0.0
C2234 C 0.13395 0.44002 0.33668 0.0
C2235 C 0.34097 0.38563 0.06867 0.0
C2236 C 0.33749 0.40287 0.05718 0.0
C2237 C 0.32783 0.37973 0.08372 0.0
C2238 C 0.31084 0.39098 0.08833 0.0
H2239 H 0.35338 0.37589 0.06533 0.0
H2240 H 0.33049 0.36567 0.09119 0.0
S2241 S 0.29596 0.43859 0.06479 0.0
N2242 N 0.31652 0.43215 0.05291 0.0
N2243 N 0.29202 0.42108 0.08161 0.0
C2244 C 0.30794 0.40907 0.07823 0.0
C2245 C 0.32123 0.41503 0.06259 0.0
C2246 C 0.35998 0.55749 0.82683 0.0
C2247 C 0.37622 0.56169 0.83939 0.0
C2248 C 0.35439 0.57083 0.81161 0.0
C2249 C 0.3649 0.58875 0.80849 0.0
H2250 H 0.35257 0.5432 0.82777 0.0
H2251 H 0.34274 0.56639 0.80138 0.0
S2252 S 0.40618 0.60797 0.83998 0.0
N2253 N 0.40104 0.58587 0.84943 0.0
N2254 N 0.3904 0.61112 0.8214 0.0
C2255 C 0.37996 0.59379 0.82225 0.0
C2256 C 0.38569 0.58019 0.83752 0.0
C2257 C 0.19131 0.63815 0.58408 0.0
C2258 C 0.20834 0.62687 0.58849 0.0
C2259 C 0.17805 0.63233 0.5691 0.0
C2260 C 0.18142 0.61515 0.55749 0.0
H2261 H 0.18872 0.65217 0.59164 0.0
H2262 H 0.16562 0.6421 0.5659 0.0
S2263 S 0.22303 0.57939 0.56455 0.0
N2264 N 0.2271 0.59681 0.58145 0.0
N2265 N 0.20236 0.5859 0.55288 0.0
C2266 C 0.19772 0.60295 0.5627 0.0
C2267 C 0.21115 0.60883 0.57827 0.0
C2268 C 0.16549 0.56988 0.20766 0.0
C2269 C 0.15507 0.58787 0.21067 0.0
C2270 C 0.15986 0.55649 0.19248 0.0
C2271 C 0.14369 0.56071 0.17985 0.0
H2272 H 0.1771 0.56543 0.21792 0.0
H2273 H 0.16719 0.54215 0.19163 0.0
S2274 S 0.11388 0.60707 0.17905 0.0
N2275 N 0.12966 0.61026 0.19763 0.0
N2276 N 0.11897 0.58492 0.16969 0.0
C2277 C 0.1343 0.57925 0.18164 0.0
C2278 C 0.14005 0.5929 0.19687 0.0
C2279 C 0.19938 0.4148 0.9578 0.0
C2280 C 0.18133 0.40441 0.96059 0.0
C2281 C 0.21284 0.40928 0.94266 0.0
C2282 C 0.20864 0.39324 0.92985 0.0
H2283 H 0.2038 0.4263 0.96821 0.0
H2284 H 0.22722 0.41657 0.94197 0.0
S2285 S 0.16215 0.36362 0.92845 0.0
N2286 N 0.15891 0.37922 0.94718 0.0
N2287 N 0.18439 0.36871 0.91929 0.0
C2288 C 0.19005 0.3839 0.93142 0.0
C2289 C 0.17632 0.38955 0.94662 0.0
C2290 C 0.36089 0.46147 0.69231 0.0
C2291 C 0.37725 0.45737 0.67989 0.0
C2292 C 0.35524 0.4481 0.70748 0.0
C2293 C 0.36583 0.43025 0.7107 0.0
H2294 H 0.3534 0.47572 0.6913 0.0
H2295 H 0.34348 0.45247 0.71761 0.0
S2296 S 0.40751 0.41129 0.67957 0.0
N2297 N 0.40231 0.43336 0.67007 0.0
N2298 N 0.39158 0.40804 0.69802 0.0
C2299 C 0.38104 0.4253 0.69707 0.0
C2300 C 0.38682 0.43894 0.68185 0.0
C2301 C 0.3413 0.63256 0.45047 0.0
C2302 C 0.33802 0.61526 0.46193 0.0
C2303 C 0.32806 0.63837 0.43548 0.0
C2304 C 0.31114 0.62698 0.43091 0.0
H2305 H 0.35364 0.6424 0.45379 0.0
H2306 H 0.33058 0.65246 0.42803 0.0
S2307 S 0.29674 0.5792 0.45442 0.0
N2308 N 0.3173 0.5858 0.46623 0.0
N2309 N 0.29259 0.59671 0.43764 0.0
C2310 C 0.30843 0.60885 0.44098 0.0
C2311 C 0.32184 0.60297 0.45656 0.0
C2312 C 0.32674 0.16008 0.46211 0.0
C2313 C 0.33944 0.14395 0.45795 0.0
C2314 C 0.31157 0.1656 0.44868 0.0
C2315 C 0.30863 0.15511 0.43072 0.0
H2316 H 0.32754 0.16745 0.47643 0.0
H2317 H 0.30123 0.17717 0.45308 0.0
S2318 S 0.34045 0.11403 0.41165 0.0
N2319 N 0.34975 0.11921 0.43381 0.0
N2320 N 0.32181 0.12971 0.4084 0.0
C2321 C 0.32251 0.14015 0.42574 0.0
C2322 C 0.33773 0.1345 0.43943 0.0
C2323 C 0.82691 0.35964 0.55666 0.0
C2324 C 0.83961 0.37576 0.56088 0.0
C2325 C 0.81167 0.35412 0.57002 0.0
C2326 C 0.80867 0.3646 0.58798 0.0
H2327 H 0.82775 0.35228 0.54233 0.0
H2328 H 0.80135 0.34256 0.56557 0.0
S2329 S 0.8405 0.40561 0.60723 0.0
N2330 N 0.84987 0.40045 0.5851 0.0
N2331 N 0.82181 0.38995 0.61039 0.0
C2332 C 0.82255 0.37954 0.59303 0.0
C2333 C 0.83784 0.38518 0.57941 0.0
C2334 C 0.41546 0.06136 0.32058 0.0
C2335 C 0.40517 0.05854 0.33867 0.0
C2336 C 0.40983 0.07648 0.30714 0.0
C2337 C 0.39379 0.08925 0.31143 0.0
H2338 H 0.42694 0.05096 0.31608 0.0
H2339 H 0.41703 0.07718 0.29273 0.0
S2340 S 0.36441 0.09058 0.35807 0.0
N2341 N 0.38007 0.0719 0.36122 0.0
N2342 N 0.36937 0.09976 0.33581 0.0
C2343 C 0.38456 0.08767 0.33007 0.0
C2344 C 0.39031 0.07249 0.34376 0.0
C2345 C 0.68475 0.63141 0.07807 0.0
C2346 C 0.68056 0.64249 0.06087 0.0
C2347 C 0.69982 0.63717 0.09126 0.0
C2348 C 0.71173 0.6541 0.08762 0.0
H2349 H 0.67697 0.61754 0.08085 0.0
H2350 H 0.70285 0.62754 0.10383 0.0
S2351 S 0.70532 0.68933 0.04548 0.0
N2352 N 0.68813 0.67214 0.04165 0.0
N2353 N 0.71686 0.68294 0.06625 0.0
C2354 C 0.70673 0.66613 0.07115 0.0
C2355 C 0.69108 0.66032 0.05779 0.0
C2356 C 0.60472 0.45793 0.31976 0.0
C2357 C 0.61503 0.46086 0.33783 0.0
C2358 C 0.61037 0.44276 0.30639 0.0
C2359 C 0.62644 0.43005 0.3107 0.0
H2360 H 0.59318 0.46826 0.31525 0.0
H2361 H 0.60312 0.44196 0.292 0.0
S2362 S 0.65591 0.429 0.35729 0.0
N2363 N 0.64021 0.44766 0.36039 0.0
N2364 N 0.65094 0.41972 0.33507 0.0
C2365 C 0.63572 0.43176 0.32931 0.0
C2366 C 0.62995 0.44698 0.34295 0.0
C2367 C 0.19276 0.86052 0.96188 0.0
C2368 C 0.18028 0.87684 0.95783 0.0
C2369 C 0.20805 0.85505 0.94855 0.0
C2370 C 0.21132 0.86579 0.93079 0.0
H2371 H 0.19171 0.85292 0.97607 0.0
H2372 H 0.21818 0.84328 0.95288 0.0
S2373 S 0.18018 0.90754 0.91204 0.0
N2374 N 0.17055 0.90208 0.93399 0.0
N2375 N 0.19869 0.89171 0.90875 0.0
C2376 C 0.19767 0.88099 0.9259 0.0
C2377 C 0.18233 0.88657 0.93949 0.0
C2378 C 0.40953 0.94239 0.21239 0.0
C2379 C 0.39318 0.92995 0.2083 0.0
C2380 C 0.41512 0.9576 0.19904 0.0
C2381 C 0.40448 0.96083 0.18121 0.0
H2382 H 0.41705 0.94136 0.22663 0.0
H2383 H 0.42689 0.96772 0.2034 0.0
S2384 S 0.36277 0.92971 0.16231 0.0
N2385 N 0.36806 0.92016 0.18433 0.0
N2386 N 0.37867 0.94817 0.15905 0.0
C2387 C 0.38928 0.9472 0.17627 0.0
C2388 C 0.38356 0.93194 0.18989 0.0
C2389 C 0.13937 0.0838 0.69169 0.0
C2390 C 0.12809 0.08844 0.70866 0.0
C2391 C 0.13352 0.06868 0.6786 0.0
C2392 C 0.11631 0.05715 0.6821 0.0
H2393 H 0.15341 0.09132 0.689 0.0
H2394 H 0.14328 0.06534 0.6662 0.0
S2395 S 0.08056 0.06475 0.72363 0.0
N2396 N 0.09802 0.08165 0.72751 0.0
N2397 N 0.08705 0.05283 0.7031 0.0
C2398 C 0.10413 0.06256 0.69836 0.0
C2399 C 0.11004 0.07827 0.7116 0.0
C2400 C 0.06334 0.16219 0.47796 0.0
C2401 C 0.0528 0.14663 0.4686 0.0
C2402 C 0.08026 0.15846 0.48965 0.0
C2403 C 0.08732 0.13899 0.49279 0.0
H2404 H 0.05918 0.17756 0.4754 0.0
H2405 H 0.08834 0.17108 0.49564 0.0
S2406 S 0.06371 0.09269 0.47388 0.0
N2407 N 0.04966 0.11075 0.46488 0.0
N2408 N 0.08127 0.10374 0.48709 0.0
C2409 C 0.07612 0.12316 0.48476 0.0
C2410 C 0.05895 0.12698 0.47261 0.0
C2411 C 0.11131 0.83032 0.73932 0.0
C2412 C 0.13082 0.83736 0.74237 0.0
C2413 C 0.10752 0.81334 0.72774 0.0
C2414 C 0.12304 0.80275 0.71838 0.0
H2415 H 0.09873 0.83844 0.74531 0.0
H2416 H 0.09213 0.8092 0.72524 0.0
S2417 S 0.17703 0.81365 0.72338 0.0
N2418 N 0.16605 0.83127 0.73656 0.0
N2419 N 0.15891 0.79957 0.71453 0.0
C2420 C 0.14272 0.8089 0.72228 0.0
C2421 C 0.14661 0.82611 0.73433 0.0
C2422 C 0.44251 0.89447 0.98366 0.0
C2423 C 0.43227 0.87889 0.99327 0.0
C2424 C 0.45946 0.89072 0.97188 0.0
C2425 C 0.46703 0.87129 0.96945 0.0
H2426 H 0.4367 0.9095 0.98422 0.0
H2427 H 0.4661 0.90306 0.96388 0.0
S2428 S 0.44744 0.82579 0.99421 0.0
N2429 N 0.43219 0.84367 1.00139 0.0
N2430 N 0.4641 0.83663 0.97975 0.0
C2431 C 0.45778 0.85585 0.98031 0.0
C2432 C 0.4404 0.85964 0.99205 0.0
C2433 C 0.41134 0.20677 0.229 0.0
C2434 C 0.39574 0.21703 0.21941 0.0
C2435 C 0.40775 0.18968 0.24048 0.0
C2436 C 0.38836 0.18221 0.24321 0.0
H2437 H 0.42667 0.21126 0.22675 0.0
H2438 H 0.42042 0.18183 0.24665 0.0
S2439 S 0.34194 0.20492 0.22356 0.0
N2440 N 0.35987 0.21942 0.215 0.0
N2441 N 0.3531 0.18752 0.23687 0.0
C2442 C 0.37245 0.19312 0.23496 0.0
C2443 C 0.37614 0.21044 0.22299 0.0
C2444 C 0.06358 0.85743 0.04164 0.0
C2445 C 0.05312 0.87295 0.05115 0.0
C2446 C 0.08046 0.8612 0.0299 0.0
C2447 C 0.08754 0.88069 0.02685 0.0
H2448 H 0.0594 0.84205 0.04412 0.0
H2449 H 0.08847 0.84861 0.02379 0.0
S2450 S 0.06417 0.9269 0.04623 0.0
N2451 N 0.05011 0.9088 0.05516 0.0
N2452 N 0.08163 0.9159 0.03284 0.0
C2453 C 0.07643 0.89648 0.03506 0.0
C2454 C 0.05931 0.89262 0.04726 0.0
C2455 C 0.37939 0.81045 0.29868 0.0
C2456 C 0.3989 0.80318 0.30139 0.0
C2457 C 0.37555 0.82726 0.28673 0.0
C2458 C 0.3911 0.83765 0.27723 0.0
H2459 H 0.36705 0.80369 0.30656 0.0
H2460 H 0.36044 0.83284 0.28594 0.0
S2461 S 0.44445 0.82326 0.27709 0.0
N2462 N 0.43366 0.80655 0.29153 0.0
N2463 N 0.42643 0.83818 0.26957 0.0
C2464 C 0.41046 0.82981 0.27876 0.0
C2465 C 0.41435 0.81258 0.29068 0.0
C2466 C 0.44258 0.12485 0.53551 0.0
C2467 C 0.43264 0.1405 0.52572 0.0
C2468 C 0.45954 0.12842 0.54734 0.0
C2469 C 0.46739 0.14777 0.54965 0.0
H2470 H 0.43653 0.1099 0.53505 0.0
H2471 H 0.46593 0.11606 0.55548 0.0
S2472 S 0.44868 0.19334 0.52439 0.0
N2473 N 0.43318 0.17564 0.51729 0.0
N2474 N 0.46509 0.18237 0.53902 0.0
C2475 C 0.45846 0.16325 0.53861 0.0
C2476 C 0.44108 0.15963 0.52681 0.0
C2477 C 0.11146 0.18914 0.77972 0.0
C2478 C 0.13098 0.18215 0.77667 0.0
C2479 C 0.10762 0.20608 0.79134 0.0
C2480 C 0.12312 0.21668 0.80075 0.0
H2481 H 0.09889 0.18101 0.77369 0.0
H2482 H 0.09223 0.21019 0.79383 0.0
S2483 S 0.17712 0.20589 0.79579 0.0
N2484 N 0.16619 0.18828 0.78255 0.0
N2485 N 0.15897 0.21991 0.80467 0.0
C2486 C 0.14281 0.21057 0.79687 0.0
C2487 C 0.14674 0.19339 0.78477 0.0
C2488 C 0.48356 0.07706 0.12578 0.0
C2489 C 0.49327 0.08722 0.14135 0.0
C2490 C 0.47168 0.06018 0.12953 0.0
C2491 C 0.46923 0.05262 0.14898 0.0
H2492 H 0.48415 0.08286 0.11075 0.0
H2493 H 0.46363 0.0536 0.11721 0.0
S2494 S 0.49415 0.07204 0.19447 0.0
N2495 N 0.50142 0.08724 0.17658 0.0
N2496 N 0.47958 0.05548 0.18363 0.0
C2497 C 0.48015 0.0618 0.16441 0.0
C2498 C 0.49201 0.0791 0.16061 0.0
C2499 C 0.20668 0.22839 0.41081 0.0
C2500 C 0.21714 0.21879 0.39534 0.0
C2501 C 0.18969 0.23994 0.40699 0.0
C2502 C 0.18249 0.24272 0.3875 0.0
H2503 H 0.21095 0.2261 0.42619 0.0
H2504 H 0.18167 0.24611 0.41956 0.0
S2505 S 0.20585 0.22309 0.34138 0.0
N2506 N 0.22005 0.21445 0.35951 0.0
N2507 N 0.18832 0.23644 0.35232 0.0
C2508 C 0.19361 0.23446 0.37174 0.0
C2509 C 0.21085 0.22243 0.37566 0.0
C2510 C 0.03589 0.94188 0.62624 0.0
C2511 C 0.02655 0.93145 0.64185 0.0
C2512 C 0.04784 0.95871 0.63 0.0
C2513 C 0.05073 0.96594 0.6495 0.0
H2514 H 0.03497 0.93632 0.61112 0.0
H2515 H 0.0556 0.9655 0.6176 0.0
S2516 S 0.0269 0.94573 0.69522 0.0
N2517 N 0.01922 0.93083 0.67725 0.0
N2518 N 0.0412 0.96249 0.68434 0.0
C2519 C 0.04017 0.9565 0.66503 0.0
C2520 C 0.02824 0.93926 0.66121 0.0
C2521 C 0.32742 0.78671 0.87523 0.0
C2522 C 0.33776 0.77715 0.89077 0.0
C2523 C 0.31058 0.79862 0.87906 0.0
C2524 C 0.30324 0.80124 0.89857 0.0
H2525 H 0.33305 0.78598 0.86013 0.0
H2526 H 0.30385 0.80654 0.86674 0.0
S2527 S 0.32322 0.77681 0.94407 0.0
N2528 N 0.3382 0.76937 0.92607 0.0
N2529 N 0.30652 0.79126 0.93329 0.0
C2530 C 0.31261 0.79049 0.914 0.0
C2531 C 0.32987 0.77861 0.91011 0.0
C2532 C 0.48385 0.94227 0.39476 0.0
C2533 C 0.49344 0.93197 0.37921 0.0
C2534 C 0.47205 0.95919 0.39097 0.0
C2535 C 0.46956 0.96666 0.3715 0.0
H2536 H 0.48445 0.93654 0.40983 0.0
H2537 H 0.46407 0.96587 0.40329 0.0
S2538 S 0.49423 0.94688 0.32603 0.0
N2539 N 0.50147 0.93174 0.34397 0.0
N2540 N 0.47979 0.96358 0.33682 0.0
C2541 C 0.48039 0.95736 0.35607 0.0
C2542 C 0.49217 0.94001 0.35992 0.0
C2543 C 0.31356 0.22821 0.60765 0.0
C2544 C 0.30307 0.21874 0.62317 0.0
C2545 C 0.33063 0.23967 0.6114 0.0
C2546 C 0.33787 0.24248 0.63087 0.0
H2547 H 0.30925 0.2259 0.59228 0.0
H2548 H 0.33865 0.24577 0.5988 0.0
S2549 S 0.31453 0.22309 0.67709 0.0
N2550 N 0.30023 0.21449 0.65902 0.0
N2551 N 0.33211 0.23631 0.66608 0.0
C2552 C 0.32675 0.23432 0.64668 0.0
C2553 C 0.30944 0.22238 0.64283 0.0
C2554 C 0.04798 0.06034 0.89029 0.0
C2555 C 0.05044 0.05279 0.87085 0.0
C2556 C 0.03609 0.0772 0.89406 0.0
C2557 C 0.02636 0.08734 0.87849 0.0
H2558 H 0.05607 0.05379 0.90261 0.0
H2559 H 0.03552 0.08301 0.90909 0.0
S2560 S 0.02537 0.0721 0.8254 0.0
N2561 N 0.04 0.05558 0.83622 0.0
N2562 N 0.01813 0.08731 0.84329 0.0
C2563 C 0.02759 0.0792 0.85924 0.0
C2564 C 0.03946 0.06192 0.85543 0.0
C2565 C 0.2066 0.79071 0.10772 0.0
C2566 C 0.21702 0.80015 0.12332 0.0
C2567 C 0.18956 0.77917 0.11137 0.0
C2568 C 0.18229 0.77623 0.13081 0.0
H2569 H 0.21092 0.79314 0.09238 0.0
H2570 H 0.18157 0.77314 0.09872 0.0
S2571 S 0.20554 0.79536 0.17719 0.0
N2572 N 0.21982 0.80414 0.1592 0.0
N2573 N 0.18801 0.78216 0.16607 0.0
C2574 C 0.19339 0.7843 0.14669 0.0
C2575 C 0.21066 0.79632 0.14295 0.0
C2576 C 0.16213 0.4775 0.06272 0.0
C2577 C 0.14653 0.46813 0.05224 0.0
C2578 C 0.15846 0.4891 0.07971 0.0
C2579 C 0.13901 0.49217 0.08689 0.0
H2580 H 0.17748 0.475 0.05846 0.0
H2581 H 0.17111 0.49511 0.08773 0.0
S2582 S 0.09263 0.47315 0.06353 0.0
N2583 N 0.11064 0.46427 0.04933 0.0
N2584 N 0.10374 0.48635 0.08106 0.0
C2585 C 0.12314 0.48411 0.07577 0.0
C2586 C 0.12689 0.47203 0.05854 0.0
C2587 C 0.65896 0.03035 0.93984 0.0
C2588 C 0.63948 0.02723 0.93276 0.0
C2589 C 0.66268 0.04203 0.95677 0.0
C2590 C 0.64712 0.05141 0.96728 0.0
H2591 H 0.67158 0.02435 0.93178 0.0
H2592 H 0.67805 0.04457 0.96094 0.0
S2593 S 0.59317 0.04627 0.95625 0.0
N2594 N 0.60422 0.03302 0.93872 0.0
N2595 N 0.61124 0.05523 0.97033 0.0
C2596 C 0.62746 0.04745 0.96109 0.0
C2597 C 0.62364 0.03531 0.94392 0.0
C2598 C 0.22798 0.41156 0.20559 0.0
C2599 C 0.21853 0.39614 0.21623 0.0
C2600 C 0.23956 0.40765 0.18864 0.0
C2601 C 0.24252 0.38811 0.18168 0.0
H2602 H 0.22557 0.42697 0.20968 0.0
H2603 H 0.24564 0.42017 0.18048 0.0
S2604 S 0.22325 0.3421 0.20554 0.0
N2605 N 0.21446 0.36031 0.21954 0.0
N2606 N 0.2365 0.35294 0.18789 0.0
C2607 C 0.23437 0.37241 0.19297 0.0
C2608 C 0.22232 0.37642 0.21015 0.0
C2609 C 0.88947 0.97094 0.45939 0.0
C2610 C 0.86994 0.96808 0.46655 0.0
C2611 C 0.89333 0.98299 0.44265 0.0
C2612 C 0.87778 0.99247 0.43225 0.0
H2613 H 0.90182 0.96309 0.46616 0.0
H2614 H 0.90846 0.98389 0.43715 0.0
S2615 S 0.82437 0.99225 0.44641 0.0
N2616 N 0.83515 0.97778 0.46309 0.0
N2617 N 0.84241 0.99995 0.43161 0.0
C2618 C 0.85839 0.9908 0.44 0.0
C2619 C 0.85448 0.97876 0.45714 0.0
C2620 C 0.79126 0.10801 0.20702 0.0
C2621 C 0.80086 0.1235 0.21743 0.0
C2622 C 0.77975 0.11177 0.18998 0.0
C2623 C 0.77702 0.13122 0.1827 0.0
H2624 H 0.79351 0.09264 0.21136 0.0
H2625 H 0.77357 0.09918 0.18201 0.0
S2626 S 0.79672 0.1774 0.20587 0.0
N2627 N 0.80528 0.15934 0.22018 0.0
N2628 N 0.78338 0.16642 0.18837 0.0
C2629 C 0.7853 0.14702 0.19377 0.0
C2630 C 0.79728 0.14316 0.21104 0.0
C2631 C 0.39151 0.54751 0.56032 0.0
C2632 C 0.37207 0.54968 0.55267 0.0
C2633 C 0.39536 0.53567 0.5772 0.0
C2634 C 0.37987 0.52572 0.58726 0.0
H2635 H 0.40375 0.55578 0.55383 0.0
H2636 H 0.41037 0.53532 0.5831 0.0
S2637 S 0.32688 0.52395 0.57173 0.0
N2638 N 0.33758 0.53873 0.55526 0.0
N2639 N 0.3448 0.51697 0.58704 0.0
C2640 C 0.36065 0.52666 0.57901 0.0
C2641 C 0.35676 0.53848 0.56171 0.0
C2642 C 0.23381 0.64368 0.32704 0.0
C2643 C 0.24332 0.62814 0.33743 0.0
C2644 C 0.22201 0.63984 0.31011 0.0
C2645 C 0.21944 0.62035 0.30274 0.0
H2646 H 0.23449 0.65877 0.33268 0.0
H2647 H 0.21412 0.65217 0.30334 0.0
S2648 S 0.24381 0.57487 0.32284 0.0
N2649 N 0.25114 0.59286 0.33789 0.0
N2650 N 0.22944 0.58564 0.30606 0.0
C2651 C 0.23016 0.60492 0.31217 0.0
C2652 C 0.24193 0.60881 0.32951 0.0
C2653 C 0.28639 0.37467 0.82672 0.0
C2654 C 0.27665 0.39027 0.83681 0.0
C2655 C 0.29827 0.37838 0.80983 0.0
C2656 C 0.30068 0.39779 0.80218 0.0
H2657 H 0.28585 0.35967 0.83261 0.0
H2658 H 0.30637 0.36605 0.80332 0.0
S2659 S 0.2756 0.44328 0.82136 0.0
N2660 N 0.26839 0.42545 0.83665 0.0
N2661 N 0.29021 0.43242 0.80485 0.0
C2662 C 0.28969 0.41323 0.81127 0.0
C2663 C 0.27784 0.40948 0.82858 0.0
C2664 C 0.94168 0.8934 0.53696 0.0
C2665 C 0.93141 0.8778 0.5274 0.0
C2666 C 0.95856 0.88966 0.54885 0.0
C2667 C 0.96601 0.8702 0.55147 0.0
H2668 H 0.93598 0.90846 0.53622 0.0
H2669 H 0.96523 0.90203 0.55676 0.0
S2670 S 0.94624 0.82459 0.52706 0.0
N2671 N 0.93115 0.8425 0.51962 0.0
N2672 N 0.9629 0.83547 0.5415 0.0
C2673 C 0.95671 0.85472 0.54073 0.0
C2674 C 0.93941 0.85851 0.52886 0.0
C2675 C 0.91147 0.20642 0.29098 0.0
C2676 C 0.89589 0.21688 0.30039 0.0
C2677 C 0.90781 0.18935 0.2795 0.0
C2678 C 0.88837 0.18207 0.27661 0.0
H2679 H 0.92683 0.21076 0.29337 0.0
H2680 H 0.92045 0.18134 0.27348 0.0
S2681 S 0.842 0.20536 0.29572 0.0
N2682 N 0.86001 0.21968 0.30442 0.0
N2683 N 0.8531 0.1878 0.28257 0.0
C2684 C 0.87249 0.19318 0.28467 0.0
C2685 C 0.87625 0.21049 0.29662 0.0
C2686 C 0.56078 0.12923 0.04868 0.0
C2687 C 0.55343 0.14872 0.05138 0.0
C2688 C 0.57761 0.12546 0.03674 0.0
C2689 C 0.58794 0.14104 0.02723 0.0
H2690 H 0.55408 0.11688 0.05658 0.0
H2691 H 0.58326 0.11037 0.03597 0.0
S2692 S 0.57331 0.1943 0.02702 0.0
N2693 N 0.55664 0.18346 0.04147 0.0
N2694 N 0.58832 0.17635 0.01952 0.0
C2695 C 0.58001 0.16035 0.02873 0.0
C2696 C 0.56276 0.16419 0.04064 0.0
C2697 C 0.60725 0.8134 0.79287 0.0
C2698 C 0.62282 0.80283 0.80215 0.0
C2699 C 0.61096 0.83037 0.78126 0.0
C2700 C 0.63045 0.83742 0.77809 0.0
H2701 H 0.59188 0.80924 0.79545 0.0
H2702 H 0.59834 0.83847 0.77533 0.0
S2703 S 0.67677 0.81377 0.79685 0.0
N2704 N 0.65872 0.79968 0.80582 0.0
N2705 N 0.66571 0.83137 0.78372 0.0
C2706 C 0.64629 0.8262 0.78606 0.0
C2707 C 0.64248 0.80899 0.79814 0.0
C2708 C 0.9423 0.12528 0.9831 0.0
C2709 C 0.93193 0.1408 0.99266 0.0
C2710 C 0.95909 0.12916 0.97112 0.0
C2711 C 0.96635 0.14868 0.96842 0.0
H2712 H 0.93673 0.11017 0.98388 0.0
H2713 H 0.96584 0.11684 0.9632 0.0
S2714 S 0.94628 0.19415 0.99284 0.0
N2715 N 0.93139 0.17611 1.00038 0.0
N2716 N 0.96297 0.1834 0.97835 0.0
C2717 C 0.95696 0.1641 0.97918 0.0
C2718 C 0.93975 0.16016 0.99114 0.0
C2719 C 0.64451 0.19176 0.73316 0.0
C2720 C 0.62898 0.18151 0.74286 0.0
C2721 C 0.64066 0.20852 0.72116 0.0
C2722 C 0.62115 0.21588 0.71856 0.0
H2723 H 0.6596 0.1861 0.73385 0.0
H2724 H 0.65296 0.21516 0.71312 0.0
S2725 S 0.57573 0.19621 0.7434 0.0
N2726 N 0.59372 0.18123 0.75085 0.0
N2727 N 0.58648 0.21277 0.72877 0.0
C2728 C 0.60575 0.20663 0.72947 0.0
C2729 C 0.60966 0.18946 0.74146 0.0
C2730 C 0.5626 0.85747 0.47881 0.0
C2731 C 0.55242 0.87312 0.46922 0.0
C2732 C 0.5796 0.86099 0.49045 0.0
C2733 C 0.58708 0.88036 0.49333 0.0
H2734 H 0.5581 0.84216 0.47646 0.0
H2735 H 0.58738 0.84829 0.49663 0.0
S2736 S 0.56455 0.92688 0.47372 0.0
N2737 N 0.5501 0.909 0.46497 0.0
N2738 N 0.58184 0.91564 0.48712 0.0
C2739 C 0.57625 0.89631 0.48506 0.0
C2740 C 0.55901 0.89269 0.47295 0.0
C2741 C 0.87468 0.82681 0.2341 0.0
C2742 C 0.8902 0.83691 0.24394 0.0
C2743 C 0.87848 0.80996 0.22218 0.0
C2744 C 0.89793 0.80238 0.21983 0.0
H2745 H 0.85965 0.83265 0.23458 0.0
H2746 H 0.8662 0.80345 0.214 0.0
S2747 S 0.94326 0.82157 0.24521 0.0
N2748 N 0.92536 0.8368 0.25238 0.0
N2749 N 0.9325 0.80509 0.23049 0.0
C2750 C 0.9133 0.81147 0.23093 0.0
C2751 C 0.90944 0.82873 0.24282 0.0
C2752 C 0.5484 0.95914 0.89057 0.0
C2753 C 0.55114 0.96645 0.87108 0.0
C2754 C 0.53652 0.94227 0.89436 0.0
C2755 C 0.52711 0.93186 0.87877 0.0
H2756 H 0.55621 0.96592 0.90294 0.0
H2757 H 0.53571 0.93667 0.90946 0.0
S2758 S 0.52709 0.94629 0.82544 0.0
N2759 N 0.54141 0.96306 0.83629 0.0
N2760 N 0.51957 0.93131 0.84341 0.0
C2761 C 0.52867 0.93972 0.85943 0.0
C2762 C 0.54052 0.95701 0.85559 0.0
C2763 C 0.82974 0.77902 0.6121 0.0
C2764 C 0.83707 0.77611 0.63151 0.0
C2765 C 0.81264 0.79049 0.60849 0.0
C2766 C 0.80222 0.79988 0.62411 0.0
H2767 H 0.8377 0.77301 0.59943 0.0
H2768 H 0.80825 0.79288 0.59316 0.0
S2769 S 0.81393 0.79522 0.67795 0.0
N2770 N 0.83146 0.78208 0.66679 0.0
N2771 N 0.79954 0.80391 0.66 0.0
C2772 C 0.80868 0.79612 0.64372 0.0
C2773 C 0.82601 0.78418 0.64742 0.0
C2774 C 0.97724 0.06367 0.35744 0.0
C2775 C 0.96799 0.05314 0.37306 0.0
C2776 C 0.98897 0.08059 0.3611 0.0
C2777 C 0.99225 0.08764 0.38056 0.0
H2778 H 0.97458 0.05952 0.34209 0.0
H2779 H 0.99488 0.08865 0.34844 0.0
S2780 S 0.97359 0.06408 0.42697 0.0
N2781 N 0.96446 0.05003 0.40897 0.0
N2782 N 0.98675 0.08162 0.41585 0.0
C2783 C 0.98429 0.07646 0.39644 0.0
C2784 C 0.97211 0.0593 0.3927 0.0
C2785 C 0.69266 0.23363 0.14409 0.0
C2786 C 0.68218 0.24302 0.12853 0.0
C2787 C 0.70956 0.22181 0.14025 0.0
C2788 C 0.71682 0.2191 0.12073 0.0
H2789 H 0.68709 0.2344 0.1592 0.0
H2790 H 0.71639 0.214 0.15259 0.0
S2791 S 0.69649 0.24313 0.07517 0.0
N2792 N 0.68153 0.25059 0.09319 0.0
N2793 N 0.71333 0.22886 0.08596 0.0
C2794 C 0.70733 0.22972 0.10527 0.0
C2795 C 0.69001 0.24151 0.10917 0.0
C2796 C 0.54125 0.06238 0.66194 0.0
C2797 C 0.55064 0.05179 0.64644 0.0
C2798 C 0.52976 0.07942 0.65815 0.0
C2799 C 0.52684 0.08654 0.63865 0.0
H2800 H 0.54365 0.05817 0.67732 0.0
H2801 H 0.52375 0.08753 0.67073 0.0
S2802 S 0.54595 0.06288 0.59247 0.0
N2803 N 0.55466 0.04871 0.61058 0.0
N2804 N 0.5328 0.08052 0.60344 0.0
C2805 C 0.53491 0.0753 0.62287 0.0
C2806 C 0.54687 0.05802 0.62676 0.0
C2807 C 0.6898 0.77845 0.4077 0.0
C2808 C 0.68237 0.7758 0.38829 0.0
C2809 C 0.70691 0.78988 0.41139 0.0
C2810 C 0.71725 0.7995 0.39585 0.0
H2811 H 0.6819 0.77225 0.42033 0.0
H2812 H 0.71136 0.79207 0.42673 0.0
S2813 S 0.70531 0.79554 0.34201 0.0
N2814 N 0.68783 0.78223 0.35307 0.0
N2815 N 0.71977 0.80401 0.36001 0.0
C2816 C 0.71071 0.79599 0.37622 0.0
C2817 C 0.69336 0.78408 0.37244 0.0
C2818 C 0.99009 0.93942 0.15815 0.0
C2819 C 0.99303 0.93222 0.13869 0.0
C2820 C 0.97841 0.95634 0.16189 0.0
C2821 C 0.96885 0.96673 0.14635 0.0
H2822 H 0.99623 0.93145 0.17077 0.0
H2823 H 0.976 0.9606 0.17725 0.0
S2824 S 0.97356 0.95542 0.09243 0.0
N2825 N 0.98693 0.93798 0.10346 0.0
N2826 N 0.96472 0.96958 0.11049 0.0
C2827 C 0.97266 0.96044 0.1267 0.0
C2828 C 0.9848 0.94328 0.12287 0.0
C2829 C 0.8271 0.23314 0.87464 0.0
C2830 C 0.83731 0.24295 0.89011 0.0
C2831 C 0.81021 0.2213 0.87852 0.0
C2832 C 0.8027 0.219 0.89799 0.0
H2833 H 0.83289 0.23359 0.85959 0.0
H2834 H 0.80361 0.21315 0.86627 0.0
S2835 S 0.8222 0.24431 0.94323 0.0
N2836 N 0.83739 0.2514 0.92526 0.0
N2837 N 0.80561 0.22966 0.93255 0.0
C2838 C 0.8119 0.23006 0.91332 0.0
C2839 C 0.82921 0.24187 0.90939 0.0
C2840 C 0.85823 0.5401 0.95662 0.0
C2841 C 0.87375 0.54967 0.96704 0.0
C2842 C 0.86199 0.52854 0.93962 0.0
C2843 C 0.88145 0.52573 0.93237 0.0
H2844 H 0.84286 0.54243 0.96092 0.0
H2845 H 0.84938 0.5224 0.93164 0.0
S2846 S 0.92768 0.54524 0.95564 0.0
N2847 N 0.90961 0.55392 0.96988 0.0
N2848 N 0.91667 0.53192 0.93813 0.0
C2849 C 0.89726 0.53395 0.94347 0.0
C2850 C 0.89341 0.54597 0.96071 0.0
C2851 C 0.39093 0.97145 0.06049 0.0
C2852 C 0.37146 0.96902 0.05299 0.0
C2853 C 0.39474 0.98328 0.0774 0.0
C2854 C 0.3792 0.99295 0.08764 0.0
H2855 H 0.40323 0.96341 0.05386 0.0
H2856 H 0.40979 0.98383 0.08317 0.0
S2857 S 0.32605 0.99393 0.07259 0.0
N2858 N 0.33682 0.9794 0.05595 0.0
N2859 N 0.34399 1.00113 0.08777 0.0
C2860 C 0.35992 0.99174 0.07955 0.0
C2861 C 0.35606 0.97994 0.06223 0.0
C2862 C 0.77911 0.61111 0.82994 0.0
C2863 C 0.77627 0.63056 0.83718 0.0
C2864 C 0.79071 0.60736 0.81296 0.0
C2865 C 0.80029 0.62288 0.80256 0.0
H2866 H 0.77296 0.5985 0.83791 0.0
H2867 H 0.79305 0.592 0.80866 0.0
S2868 S 0.7958 0.67679 0.81397 0.0
N2869 N 0.78246 0.66578 0.83145 0.0
N2870 N 0.80452 0.65873 0.79974 0.0
C2871 C 0.79656 0.64254 0.80888 0.0
C2872 C 0.7845 0.64638 0.82611 0.0
C2873 C 0.1616 0.04128 0.56291 0.0
C2874 C 0.14603 0.05083 0.55258 0.0
C2875 C 0.15794 0.02963 0.57987 0.0
C2876 C 0.1385 0.02671 0.58716 0.0
H2877 H 0.17695 0.04366 0.55858 0.0
H2878 H 0.17058 0.02349 0.58779 0.0
S2879 S 0.09215 0.04619 0.56415 0.0
N2880 N 0.11015 0.05498 0.54988 0.0
N2881 N 0.10325 0.03283 0.58156 0.0
C2882 C 0.12263 0.03493 0.57616 0.0
C2883 C 0.12639 0.04704 0.55896 0.0
C2884 C 0.2339 0.8752 0.82699 0.0
C2885 C 0.24358 0.89079 0.83714 0.0
C2886 C 0.22213 0.8789 0.81003 0.0
C2887 C 0.21975 0.89832 0.80238 0.0
H2888 H 0.23441 0.86019 0.83287 0.0
H2889 H 0.21407 0.86657 0.80346 0.0
S2890 S 0.24472 0.94382 0.82172 0.0
N2891 N 0.25184 0.92598 0.83704 0.0
N2892 N 0.2302 0.93295 0.80512 0.0
C2893 C 0.23068 0.91376 0.81153 0.0
C2894 C 0.24243 0.91001 0.82892 0.0
C2895 C 0.65855 0.4888 0.43872 0.0
C2896 C 0.63905 0.49191 0.43173 0.0
C2897 C 0.66235 0.47717 0.45566 0.0
C2898 C 0.64682 0.46782 0.46626 0.0
H2899 H 0.67114 0.49479 0.4306 0.0
H2900 H 0.67773 0.47464 0.45978 0.0
S2901 S 0.59283 0.47293 0.45545 0.0
N2902 N 0.60381 0.48614 0.43784 0.0
N2903 N 0.61095 0.46401 0.46948 0.0
C2904 C 0.62714 0.47176 0.46015 0.0
C2905 C 0.62325 0.48386 0.44297 0.0
C2906 C 0.78644 0.37534 0.69178 0.0
C2907 C 0.77702 0.3909 0.68133 0.0
C2908 C 0.79836 0.37918 0.70861 0.0
C2909 C 0.80114 0.39871 0.71583 0.0
H2910 H 0.7856 0.36022 0.68623 0.0
H2911 H 0.80618 0.36684 0.71542 0.0
S2912 S 0.77708 0.44427 0.69557 0.0
N2913 N 0.7695 0.42625 0.68068 0.0
N2914 N 0.79143 0.43348 0.71234 0.0
C2915 C 0.79051 0.41416 0.70637 0.0
C2916 C 0.77861 0.41026 0.68912 0.0
C2917 C 0.73334 0.64355 0.19207 0.0
C2918 C 0.74278 0.62803 0.18158 0.0
C2919 C 0.72144 0.63965 0.2089 0.0
C2920 C 0.71871 0.62012 0.2161 0.0
H2921 H 0.73414 0.65868 0.18656 0.0
H2922 H 0.71361 0.65197 0.21575 0.0
S2923 S 0.74284 0.57463 0.19571 0.0
N2924 N 0.75036 0.5927 0.18085 0.0
N2925 N 0.72848 0.58537 0.21252 0.0
C2926 C 0.72936 0.60469 0.20659 0.0
C2927 C 0.74123 0.60865 0.18933 0.0
C2928 C 0.56301 0.66229 0.97815 0.0
C2929 C 0.55245 0.64677 0.96876 0.0
C2930 C 0.58001 0.65852 0.98972 0.0
C2931 C 0.5871 0.63903 0.99272 0.0
H2932 H 0.55882 0.67766 0.9757 0.0
H2933 H 0.58809 0.67111 0.99575 0.0
S2934 S 0.56351 0.59282 0.9736 0.0
N2935 N 0.54937 0.61091 0.96479 0.0
N2936 N 0.5811 0.60381 0.98681 0.0
C2937 C 0.5759 0.62323 0.98463 0.0
C2938 C 0.55866 0.6271 0.97259 0.0
C2939 C 0.60844 0.31236 0.22835 0.0
C2940 C 0.62404 0.30206 0.21878 0.0
C2941 C 0.61207 0.32942 0.23987 0.0
C2942 C 0.63147 0.33684 0.24264 0.0
H2943 H 0.59311 0.30792 0.22606 0.0
H2944 H 0.59941 0.33731 0.24602 0.0
S2945 S 0.67786 0.314 0.22307 0.0
N2946 N 0.65991 0.29957 0.21445 0.0
N2947 N 0.66673 0.33142 0.23638 0.0
C2948 C 0.64737 0.32589 0.23441 0.0
C2949 C 0.64365 0.30859 0.22242 0.0
C2950 C 0.95901 0.38985 0.47035 0.0
C2951 C 0.96628 0.37034 0.46756 0.0
C2952 C 0.9422 0.39364 0.48232 0.0
C2953 C 0.93182 0.37806 0.49179 0.0
H2954 H 0.96576 0.40221 0.4625 0.0
H2955 H 0.93662 0.40875 0.48318 0.0
S2956 S 0.94622 0.32473 0.49172 0.0
N2957 N 0.96292 0.33557 0.47731 0.0
N2958 N 0.9313 0.34271 0.49933 0.0
C2959 C 0.93966 0.35872 0.49018 0.0
C2960 C 0.95689 0.35486 0.47823 0.0
C2961 C 0.90819 0.68833 0.73947 0.0
C2962 C 0.88867 0.68135 0.74256 0.0
C2963 C 0.91202 0.70525 0.72783 0.0
C2964 C 0.89653 0.71585 0.71845 0.0
H2965 H 0.92076 0.6802 0.74549 0.0
H2966 H 0.92742 0.70935 0.72531 0.0
S2967 S 0.84252 0.70512 0.72352 0.0
N2968 N 0.85345 0.68751 0.73675 0.0
N2969 N 0.86066 0.71911 0.7146 0.0
C2970 C 0.87683 0.70976 0.72237 0.0
C2971 C 0.8729 0.6926 0.73448 0.0
C2972 C 0.56271 0.35783 0.5409 0.0
C2973 C 0.55238 0.37339 0.55047 0.0
C2974 C 0.57975 0.36148 0.52937 0.0
C2975 C 0.58711 0.3809 0.52657 0.0
H2976 H 0.55831 0.34248 0.5432 0.0
H2977 H 0.58766 0.34885 0.52321 0.0
S2978 S 0.56417 0.42723 0.54615 0.0
N2979 N 0.54979 0.40925 0.55479 0.0
N2980 N 0.58161 0.41614 0.53282 0.0
C2981 C 0.57613 0.39677 0.53481 0.0
C2982 C 0.55885 0.39301 0.54682 0.0
C2983 C 0.90842 0.32971 0.77947 0.0
C2984 C 0.88898 0.33695 0.77651 0.0
C2985 C 0.91208 0.31274 0.79111 0.0
C2986 C 0.8965 0.30238 0.80061 0.0
H2987 H 0.92106 0.33764 0.77335 0.0
H2988 H 0.92743 0.30843 0.79352 0.0
S2989 S 0.84261 0.31389 0.79591 0.0
N2990 N 0.85372 0.33131 0.78258 0.0
N2991 N 0.86061 0.29964 0.80472 0.0
C2992 C 0.87686 0.30874 0.79682 0.0
C2993 C 0.87311 0.32594 0.78471 0.0
C2994 C 0.93942 0.65724 0.02943 0.0
C2995 C 0.9323 0.63776 0.02649 0.0
C2996 C 0.95638 0.66104 0.04106 0.0
C2997 C 0.96686 0.64554 0.05057 0.0
H2998 H 0.93138 0.66983 0.02333 0.0
H2999 H 0.96058 0.67642 0.04348 0.0
S3000 S 0.95577 0.59158 0.04582 0.0
N3001 N 0.93823 0.60255 0.03252 0.0
N3002 N 0.96988 0.60969 0.05464 0.0
C3003 C 0.96065 0.62586 0.04676 0.0
C3004 C 0.94346 0.62197 0.03466 0.0
C3005 C 0.61125 0.68893 0.27988 0.0
C3006 C 0.63072 0.68177 0.27688 0.0
C3007 C 0.60755 0.70593 0.29147 0.0
C3008 C 0.62311 0.71641 0.30088 0.0
H3009 H 0.59863 0.6809 0.27385 0.0
H3010 H 0.59218 0.71017 0.29393 0.0
S3011 S 0.67704 0.70517 0.29599 0.0
N3012 N 0.66597 0.68763 0.28277 0.0
N3013 N 0.659 0.71936 0.30482 0.0
C3014 C 0.64276 0.71014 0.29702 0.0
C3015 C 0.64656 0.69291 0.28496 0.0
C3016 C 0.97166 0.56003 0.62853 0.0
C3017 C 0.96921 0.55251 0.64799 0.0
C3018 C 0.98347 0.57696 0.62475 0.0
C3019 C 0.99311 0.5872 0.64031 0.0
H3020 H 0.96364 0.55339 0.61621 0.0
H3021 H 0.98403 0.58273 0.60971 0.0
S3022 S 0.99402 0.57214 0.69345 0.0
N3023 N 0.97953 0.55549 0.68264 0.0
N3024 N 1.00123 0.58733 0.67554 0.0
C3025 C 0.99187 0.57911 0.65958 0.0
C3026 C 0.98009 0.56176 0.66341 0.0
C3027 C 0.69245 0.7333 0.87522 0.0
C3028 C 0.68242 0.7431 0.89082 0.0
C3029 C 0.70935 0.72144 0.8789 0.0
C3030 C 0.71707 0.7191 0.8983 0.0
H3031 H 0.6865 0.73377 0.86023 0.0
H3032 H 0.7158 0.71329 0.86657 0.0
S3033 S 0.69812 0.7444 0.94377 0.0
N3034 N 0.68275 0.75153 0.92597 0.0
N3035 N 0.71457 0.72973 0.93289 0.0
C3036 C 0.70806 0.73016 0.91373 0.0
C3037 C 0.69073 0.74199 0.91 0.0
C3038 C 0.54776 0.45859 0.12941 0.0
C3039 C 0.5503 0.46601 0.14889 0.0
C3040 C 0.53589 0.44171 0.12559 0.0
C3041 C 0.52629 0.43142 0.14114 0.0
H3042 H 0.55572 0.46528 0.11708 0.0
H3043 H 0.53523 0.43602 0.11051 0.0
S3044 S 0.52567 0.4462 0.19437 0.0
N3045 N 0.54016 0.46287 0.18358 0.0
N3046 N 0.51834 0.43112 0.1764 0.0
C3047 C 0.52764 0.4394 0.16045 0.0
C3048 C 0.53948 0.45669 0.16432 0.0
C3049 C 0.80986 0.29742 0.37836 0.0
C3050 C 0.80237 0.29982 0.39784 0.0
C3051 C 0.82685 0.28571 0.37454 0.0
C3052 C 0.83719 0.27614 0.39007 0.0
H3053 H 0.80315 0.3054 0.36606 0.0
H3054 H 0.8326 0.28518 0.35948 0.0
S3055 S 0.82224 0.27512 0.44324 0.0
N3056 N 0.80548 0.28951 0.43248 0.0
N3057 N 0.83744 0.26801 0.42529 0.0
C3058 C 0.82913 0.27732 0.40936 0.0
C3059 C 0.81172 0.28899 0.41323 0.0
C3060 C 0.97881 0.45666 0.85802 0.0
C3061 C 0.96919 0.46692 0.87361 0.0
C3062 C 0.99031 0.43959 0.86163 0.0
C3063 C 0.99302 0.43213 0.88103 0.0
H3064 H 0.97657 0.46113 0.84269 0.0
H3065 H 0.9965 0.43173 0.84898 0.0
S3066 S 0.97332 0.45488 0.92741 0.0
N3067 N 0.96477 0.46935 0.90947 0.0
N3068 N 0.98666 0.43748 0.91627 0.0
C3069 C 0.98475 0.44305 0.89692 0.0
C3070 C 0.97278 0.46036 0.89321 0.0
C3071 C 0.81042 0.72158 0.14083 0.0
C3072 C 0.80292 0.71919 0.12136 0.0
C3073 C 0.82728 0.73347 0.14467 0.0
C3074 C 0.83746 0.74327 0.12917 0.0
H3075 H 0.80384 0.71344 0.1531 0.0
H3076 H 0.83305 0.73399 0.15972 0.0
S3077 S 0.82233 0.74443 0.07605 0.0
N3078 N 0.80579 0.72975 0.08677 0.0
N3079 N 0.8375 0.75162 0.094 0.0
C3080 C 0.82936 0.74211 0.1099 0.0
C3081 C 0.81209 0.73023 0.106 0.0
C3082 C 0.53607 0.57669 0.39423 0.0
C3083 C 0.52644 0.5871 0.37878 0.0
C3084 C 0.54797 0.55987 0.39027 0.0
C3085 C 0.55052 0.55262 0.37072 0.0
H3086 H 0.53542 0.58225 0.40935 0.0
H3087 H 0.55596 0.55309 0.40253 0.0
S3088 S 0.52584 0.57276 0.32542 0.0
N3089 N 0.51848 0.58767 0.34352 0.0
N3090 N 0.54036 0.55603 0.33606 0.0
C3091 C 0.53968 0.56204 0.35538 0.0
C3092 C 0.5278 0.57928 0.3594 0.0
C3093 C 0.6924 0.28585 0.64369 0.0
C3094 C 0.68214 0.2762 0.62815 0.0
C3095 C 0.70925 0.29777 0.63988 0.0
C3096 C 0.71668 0.3003 0.6204 0.0
H3097 H 0.68669 0.2852 0.65876 0.0
H3098 H 0.7159 0.30577 0.6522 0.0
S3099 S 0.69698 0.27556 0.57493 0.0
N3100 N 0.68191 0.2682 0.59289 0.0
N3101 N 0.7136 0.29011 0.58572 0.0
C3102 C 0.70741 0.28944 0.60498 0.0
C3103 C 0.69014 0.27755 0.60884 0.0
C3104 C 0.62949 0.97042 0.56114 0.0
C3105 C 0.64905 0.96758 0.55403 0.0
C3106 C 0.62559 0.98239 0.57792 0.0
C3107 C 0.64111 0.99181 0.58842 0.0
H3108 H 0.61716 0.96259 0.55429 0.0
H3109 H 0.61043 0.98326 0.58338 0.0
S3110 S 0.69457 0.99164 0.57446 0.0
N3111 N 0.68383 0.97726 0.55767 0.0
N3112 N 0.67647 0.99928 0.58924 0.0
C3113 C 0.66052 0.99018 0.58074 0.0
C3114 C 0.66448 0.97822 0.56354 0.0
C3115 C 0.16159 0.54107 0.45602 0.0
C3116 C 0.14597 0.55046 0.46645 0.0
C3117 C 0.15798 0.52959 0.43893 0.0
C3118 C 0.13856 0.52667 0.4316 0.0
H3119 H 0.17692 0.54347 0.4604 0.0
H3120 H 0.17065 0.52358 0.43096 0.0
S3121 S 0.09212 0.54576 0.45476 0.0
N3122 N 0.11007 0.55447 0.46914 0.0
N3123 N 0.10328 0.53262 0.43723 0.0
C3124 C 0.12265 0.53473 0.44267 0.0
C3125 C 0.12635 0.54668 0.46 0.0
C3126 C 0.72725 0.9121 0.70635 0.0
C3127 C 0.71804 0.89663 0.71715 0.0
C3128 C 0.73887 0.9082 0.68942 0.0
C3129 C 0.74211 0.88864 0.68264 0.0
H3130 H 0.7246 0.9275 0.7103 0.0
H3131 H 0.74474 0.92074 0.68114 0.0
S3132 S 0.72357 0.84257 0.70695 0.0
N3133 N 0.71453 0.86078 0.72079 0.0
N3134 N 0.73664 0.85345 0.68919 0.0
C3135 C 0.73422 0.87292 0.69408 0.0
C3136 C 0.72212 0.87691 0.71125 0.0
C3137 C 0.39393 0.48328 0.94209 0.0
C3138 C 0.37837 0.49284 0.93179 0.0
C3139 C 0.39012 0.4713 0.9589 0.0
C3140 C 0.37062 0.46862 0.96623 0.0
H3141 H 0.40903 0.48405 0.93646 0.0
H3142 H 0.40247 0.46337 0.96559 0.0
S3143 S 0.32508 0.49308 0.94639 0.0
N3144 N 0.34306 0.50059 0.93141 0.0
N3145 N 0.33589 0.47858 0.96302 0.0
C3146 C 0.35517 0.47939 0.95692 0.0
C3147 C 0.35904 0.49134 0.9397 0.0
C3148 C 0.29777 0.64063 0.70905 0.0
C3149 C 0.30015 0.62122 0.7167 0.0
C3150 C 0.28591 0.64436 0.69215 0.0
C3151 C 0.27614 0.62878 0.68205 0.0
H3152 H 0.30588 0.65295 0.71558 0.0
H3153 H 0.28539 0.65937 0.68628 0.0
S3154 S 0.27501 0.57576 0.69748 0.0
N3155 N 0.28963 0.5866 0.714 0.0
N3156 N 0.26783 0.59361 0.68219 0.0
C3157 C 0.27731 0.60957 0.69027 0.0
C3158 C 0.28915 0.60579 0.70759 0.0
C3159 C 0.89039 0.0475 0.06095 0.0
C3160 C 0.8709 0.05013 0.05359 0.0
C3161 C 0.89421 0.03558 0.07778 0.0
C3162 C 0.87866 0.026 0.08809 0.0
H3163 H 0.90273 0.05545 0.05425 0.0
H3164 H 0.9093 0.03487 0.08343 0.0
S3165 S 0.82539 0.02557 0.07342 0.0
N3166 N 0.83618 0.04007 0.05677 0.0
N3167 N 0.84337 0.01814 0.08844 0.0
C3168 C 0.85933 0.02742 0.08015 0.0
C3169 C 0.85546 0.03933 0.0629 0.0
C3170 C 0.73961 0.11068 0.83067 0.0
C3171 C 0.74274 0.13017 0.83771 0.0
C3172 C 0.728 0.10694 0.8137 0.0
C3173 C 0.7187 0.12249 0.80312 0.0
H3174 H 0.74555 0.09807 0.83879 0.0
H3175 H 0.72544 0.09157 0.80955 0.0
S3176 S 0.72394 0.17644 0.81401 0.0
N3177 N 0.73708 0.16541 0.83163 0.0
N3178 N 0.71499 0.15837 0.79994 0.0
C3179 C 0.72269 0.14215 0.80926 0.0
C3180 C 0.73476 0.14599 0.82647 0.0
C3181 C 0.79757 0.87767 0.31063 0.0
C3182 C 0.79991 0.89715 0.30315 0.0
C3183 C 0.78573 0.87378 0.32751 0.0
C3184 C 0.77596 0.88925 0.33776 0.0
H3185 H 0.8057 0.86542 0.304 0.0
H3186 H 0.78526 0.85872 0.33327 0.0
S3187 S 0.7747 0.94239 0.32275 0.0
N3188 N 0.78932 0.93172 0.30613 0.0
N3189 N 0.76758 0.9244 0.3379 0.0
C3190 C 0.77707 0.90853 0.32969 0.0
C3191 C 0.78888 0.91247 0.31238 0.0
C3192 C 0.4558 0.35676 0.04187 0.0
C3193 C 0.46629 0.3723 0.05131 0.0
C3194 C 0.43896 0.36052 0.03007 0.0
C3195 C 0.43196 0.38002 0.02689 0.0
H3196 H 0.45991 0.34138 0.04445 0.0
H3197 H 0.43092 0.34792 0.02401 0.0
S3198 S 0.45548 0.42625 0.04605 0.0
N3199 N 0.46944 0.40817 0.05512 0.0
N3200 N 0.438 0.41525 0.03269 0.0
C3201 C 0.44312 0.39582 0.03503 0.0
C3202 C 0.4602 0.39196 0.0473 0.0
C3203 C 0.37575 0.69217 0.78562 0.0
C3204 C 0.39131 0.68169 0.77624 0.0
C3205 C 0.3796 0.709 0.79754 0.0
C3206 C 0.39914 0.71619 0.80036 0.0
H3207 H 0.36062 0.68666 0.78477 0.0
H3208 H 0.36725 0.71584 0.80534 0.0
S3209 S 0.44472 0.69584 0.77636 0.0
N3210 N 0.42668 0.68098 0.76878 0.0
N3211 N 0.43393 0.71264 0.79069 0.0
C3212 C 0.4146 0.7067 0.78975 0.0
C3213 C 0.41069 0.68945 0.77785 0.0
C3214 C 0.07693 0.62452 0.53578 0.0
C3215 C 0.08713 0.64004 0.52603 0.0
C3216 C 0.06001 0.62834 0.5476 0.0
C3217 C 0.05245 0.6478 0.54994 0.0
H3218 H 0.08273 0.60949 0.5353 0.0
H3219 H 0.05341 0.61606 0.55571 0.0
S3220 S 0.07193 0.69313 0.52479 0.0
N3221 N 0.08716 0.6752 0.51768 0.0
N3222 N 0.05533 0.68238 0.53939 0.0
C3223 C 0.06165 0.66316 0.53894 0.0
C3224 C 0.07899 0.65929 0.52715 0.0
C3225 C 0.10834 0.31263 0.29019 0.0
C3226 C 0.12389 0.30216 0.29963 0.0
C3227 C 0.11204 0.32975 0.27878 0.0
C3228 C 0.13148 0.33704 0.27598 0.0
H3229 H 0.09298 0.30829 0.29252 0.0
H3230 H 0.09941 0.33777 0.27274 0.0
S3231 S 0.17779 0.31371 0.29518 0.0
N3232 N 0.15976 0.29936 0.30378 0.0
N3233 N 0.16673 0.33131 0.28204 0.0
C3234 C 0.14733 0.32591 0.28406 0.0
C3235 C 0.14354 0.30856 0.29595 0.0
C3236 C 0.45697 0.66083 0.47892 0.0
C3237 C 0.4673 0.64525 0.46936 0.0
C3238 C 0.43992 0.6572 0.49045 0.0
C3239 C 0.43254 0.63779 0.49326 0.0
H3240 H 0.46138 0.67617 0.4766 0.0
H3241 H 0.43202 0.66984 0.49659 0.0
S3242 S 0.45548 0.59142 0.47374 0.0
N3243 N 0.46987 0.60939 0.46509 0.0
N3244 N 0.43804 0.60254 0.48705 0.0
C3245 C 0.44353 0.62191 0.48504 0.0
C3246 C 0.46081 0.62564 0.47304 0.0
C3247 C 0.10807 0.70624 0.22761 0.0
C3248 C 0.12358 0.71678 0.21816 0.0
C3249 C 0.11185 0.68919 0.23908 0.0
C3250 C 0.13134 0.68202 0.24194 0.0
H3251 H 0.09269 0.7105 0.22527 0.0
H3252 H 0.09927 0.68113 0.24515 0.0
S3253 S 0.17753 0.70552 0.22263 0.0
N3254 N 0.15943 0.71975 0.21399 0.0
N3255 N 0.16655 0.68791 0.23583 0.0
C3256 C 0.14713 0.6932 0.2338 0.0
C3257 C 0.14325 0.71049 0.22185 0.0
C3258 C 0.07735 0.39338 0.98286 0.0
C3259 C 0.08785 0.37784 0.99224 0.0
C3260 C 0.06047 0.38953 0.97101 0.0
C3261 C 0.05325 0.37 0.96826 0.0
H3262 H 0.08289 0.40851 0.98367 0.0
H3263 H 0.05363 0.40187 0.96321 0.0
S3264 S 0.07363 0.32445 0.99225 0.0
N3265 N 0.08854 0.34249 0.99975 0.0
N3266 N 0.05679 0.33523 0.97796 0.0
C3267 C 0.06276 0.35455 0.97886 0.0
C3268 C 0.08006 0.35846 0.99068 0.0
C3269 C 0.38022 0.31013 0.72177 0.0
C3270 C 0.39975 0.30292 0.71902 0.0
C3271 C 0.37636 0.32695 0.7337 0.0
C3272 C 0.3919 0.33739 0.74316 0.0
H3273 H 0.36788 0.30334 0.7139 0.0
H3274 H 0.36123 0.33249 0.7345 0.0
S3275 S 0.44528 0.32313 0.74325 0.0
N3276 N 0.43451 0.30638 0.72884 0.0
N3277 N 0.42724 0.33801 0.75079 0.0
C3278 C 0.41127 0.32959 0.74163 0.0
C3279 C 0.41519 0.31236 0.72971 0.0
C3280 C 0.04832 0.45889 0.38911 0.0
C3281 C 0.05089 0.46632 0.36964 0.0
C3282 C 0.03641 0.44203 0.3929 0.0
C3283 C 0.0268 0.43177 0.37734 0.0
H3284 H 0.05629 0.46555 0.40145 0.0
H3285 H 0.03573 0.43633 0.40797 0.0
S3286 S 0.02624 0.44662 0.32413 0.0
N3287 N 0.04076 0.46324 0.33494 0.0
N3288 N 0.01886 0.43154 0.34207 0.0
C3289 C 0.02818 0.43978 0.35804 0.0
C3290 C 0.04006 0.45705 0.3542 0.0
C3291 C 0.31284 0.29009 0.10798 0.0
C3292 C 0.30232 0.29961 0.12345 0.0
C3293 C 0.32984 0.27855 0.1118 0.0
C3294 C 0.33698 0.27571 0.1313 0.0
H3295 H 0.30863 0.29244 0.09259 0.0
H3296 H 0.33791 0.27246 0.09924 0.0
S3297 S 0.31342 0.29508 0.17743 0.0
N3298 N 0.29927 0.30377 0.1593 0.0
N3299 N 0.33101 0.28182 0.1665 0.0
C3300 C 0.32578 0.28387 0.14706 0.0
C3301 C 0.30854 0.29588 0.14314 0.0
C3302 C 0.47759 0.56383 0.8576 0.0
C3303 C 0.46816 0.55328 0.87311 0.0
C3304 C 0.48929 0.58072 0.86141 0.0
C3305 C 0.49239 0.58772 0.88092 0.0
H3306 H 0.47506 0.55972 0.84221 0.0
H3307 H 0.49533 0.58882 0.84883 0.0
S3308 S 0.47327 0.56407 0.9271 0.0
N3309 N 0.46431 0.55007 0.90897 0.0
N3310 N 0.48656 0.58162 0.91614 0.0
C3311 C 0.48429 0.57651 0.8967 0.0
C3312 C 0.47212 0.55937 0.8928 0.0
C3313 C 0.20912 0.72123 0.641 0.0
C3314 C 0.21673 0.71892 0.62155 0.0
C3315 C 0.19225 0.73311 0.6448 0.0
C3316 C 0.18215 0.74295 0.62929 0.0
H3317 H 0.21564 0.71305 0.65327 0.0
H3318 H 0.1864 0.73357 0.65983 0.0
S3319 S 0.19753 0.74432 0.57624 0.0
N3320 N 0.21403 0.72961 0.58699 0.0
N3321 N 0.18228 0.75144 0.59415 0.0
C3322 C 0.19034 0.74186 0.61005 0.0
C3323 C 0.20763 0.73001 0.60619 0.0
C3324 C 0.04821 0.56033 0.12919 0.0
C3325 C 0.05093 0.55307 0.1487 0.0
C3326 C 0.03625 0.57714 0.12534 0.0
C3327 C 0.02673 0.58752 0.14089 0.0
H3328 H 0.0561 0.55358 0.11685 0.0
H3329 H 0.03546 0.58271 0.11023 0.0
S3330 S 0.0266 0.57314 0.19423 0.0
N3331 N 0.04106 0.55644 0.18345 0.0
N3332 N 0.01907 0.58805 0.17621 0.0
C3333 C 0.02827 0.57968 0.16024 0.0
C3334 C 0.04021 0.56246 0.16415 0.0
C3335 C 0.20903 0.29802 0.87893 0.0
C3336 C 0.21629 0.30077 0.89845 0.0
C3337 C 0.19218 0.28613 0.87509 0.0
C3338 C 0.18173 0.2767 0.89065 0.0
H3339 H 0.21584 0.30585 0.86658 0.0
H3340 H 0.18662 0.28532 0.85998 0.0
S3341 S 0.19602 0.27669 0.94402 0.0
N3342 N 0.21281 0.29103 0.93322 0.0
N3343 N 0.18111 0.26916 0.926 0.0
C3344 C 0.18955 0.27826 0.91001 0.0
C3345 C 0.20682 0.29013 0.91391 0.0
C3346 C 0.4784 0.45567 0.66213 0.0
C3347 C 0.46907 0.46627 0.64661 0.0
C3348 C 0.49005 0.43874 0.65834 0.0
C3349 C 0.49318 0.43176 0.63883 0.0
H3350 H 0.47583 0.45977 0.67752 0.0
H3351 H 0.496 0.4306 0.67093 0.0
S3352 S 0.47434 0.45556 0.59262 0.0
N3353 N 0.46536 0.46956 0.61073 0.0
N3354 N 0.48751 0.43794 0.6036 0.0
C3355 C 0.48519 0.44303 0.62304 0.0
C3356 C 0.47307 0.4602 0.62692 0.0
C3357 C 0.31049 0.72141 0.37875 0.0
C3358 C 0.30273 0.71909 0.39813 0.0
C3359 C 0.32739 0.73331 0.37509 0.0
C3360 C 0.33736 0.74316 0.3907 0.0
H3361 H 0.30409 0.71323 0.36642 0.0
H3362 H 0.33337 0.73377 0.36012 0.0
S3363 S 0.32151 0.74451 0.44361 0.0
N3364 N 0.30512 0.72979 0.43272 0.0
N3365 N 0.33692 0.75164 0.42584 0.0
C3366 C 0.329 0.74206 0.40987 0.0
C3367 C 0.31168 0.73019 0.41357 0.0
C3368 C 0.39013 0.0485 0.45909 0.0
C3369 C 0.37059 0.0514 0.46622 0.0
C3370 C 0.39398 0.03649 0.44233 0.0
C3371 C 0.37842 0.0271 0.43185 0.0
H3372 H 0.40249 0.05629 0.46593 0.0
H3373 H 0.40912 0.03556 0.43686 0.0
S3374 S 0.32496 0.0275 0.44584 0.0
N3375 N 0.33576 0.04186 0.46261 0.0
N3376 N 0.34302 0.01977 0.43107 0.0
C3377 C 0.35902 0.02882 0.43955 0.0
C3378 C 0.35511 0.04081 0.45673 0.0
C3379 C 0.89004 0.47135 0.56009 0.0
C3380 C 0.87051 0.4685 0.55292 0.0
C3381 C 0.89387 0.48324 0.57695 0.0
C3382 C 0.87829 0.49254 0.58747 0.0
H3383 H 0.90241 0.46361 0.55323 0.0
H3384 H 0.909 0.48412 0.58246 0.0
S3385 S 0.82487 0.49228 0.57337 0.0
N3386 N 0.83569 0.47803 0.55652 0.0
N3387 N 0.84289 0.49988 0.58824 0.0
C3388 C 0.8589 0.49089 0.57972 0.0
C3389 C 0.85502 0.47903 0.56245 0.0
C3390 C 0.29815 0.13974 0.3105 0.0
C3391 C 0.30096 0.12017 0.30341 0.0
C3392 C 0.28618 0.14367 0.32728 0.0
C3393 C 0.27674 0.12817 0.33779 0.0
H3394 H 0.30598 0.15205 0.30364 0.0
H3395 H 0.28532 0.15882 0.33273 0.0
S3396 S 0.27687 0.07471 0.32388 0.0
N3397 N 0.29126 0.08541 0.30708 0.0
N3398 N 0.26924 0.09281 0.33864 0.0
C3399 C 0.27836 0.10875 0.33012 0.0
C3400 C 0.29031 0.10476 0.31293 0.0
C3401 C 0.62834 0.54778 0.0604 0.0
C3402 C 0.6478 0.55023 0.05288 0.0
C3403 C 0.62455 0.53593 0.07729 0.0
C3404 C 0.6401 0.52626 0.0875 0.0
H3405 H 0.61602 0.55583 0.05379 0.0
H3406 H 0.6095 0.53536 0.08308 0.0
S3407 S 0.69324 0.52531 0.07239 0.0
N3408 N 0.68244 0.53985 0.05579 0.0
N3409 N 0.67532 0.51809 0.08758 0.0
C3410 C 0.65937 0.52748 0.0794 0.0
C3411 C 0.66321 0.5393 0.06208 0.0
C3412 C 0.72757 0.41198 0.31325 0.0
C3413 C 0.7182 0.39648 0.30263 0.0
C3414 C 0.73916 0.40817 0.33021 0.0
C3415 C 0.7422 0.38866 0.33722 0.0
H3416 H 0.72508 0.42737 0.30912 0.0
H3417 H 0.74515 0.42074 0.33835 0.0
S3418 S 0.72319 0.34249 0.31345 0.0
N3419 N 0.71433 0.36062 0.2994 0.0
N3420 N 0.73637 0.35345 0.33109 0.0
C3421 C 0.73415 0.37288 0.32596 0.0
C3422 C 0.7221 0.37679 0.30875 0.0
C3423 C 0.12554 0.9834 0.94188 0.0
C3424 C 0.14109 0.99296 0.93156 0.0
C3425 C 0.12934 0.97156 0.95877 0.0
C3426 C 0.14883 0.969 0.96618 0.0
H3427 H 0.11046 0.98407 0.93619 0.0
H3428 H 0.11701 0.96361 0.96547 0.0
S3429 S 0.19434 0.99355 0.94632 0.0
N3430 N 0.17637 1.00088 0.93124 0.0
N3431 N 0.18353 0.97911 0.96302 0.0
C3432 C 0.16427 0.97979 0.95685 0.0
C3433 C 0.1604 0.99161 0.93954 0.0
C3434 C 0.29796 0.87893 0.20909 0.0
C3435 C 0.30061 0.89847 0.21632 0.0
C3436 C 0.28608 0.87503 0.19224 0.0
C3437 C 0.27657 0.89053 0.18179 0.0
H3438 H 0.30585 0.86663 0.2159 0.0
H3439 H 0.28534 0.8599 0.18669 0.0
S3440 S 0.27626 0.94389 0.19608 0.0
N3441 N 0.29067 0.93318 0.21286 0.0
N3442 N 0.26882 0.92583 0.18117 0.0
C3443 C 0.27803 0.9099 0.1896 0.0
C3444 C 0.28989 0.91386 0.20686 0.0
C3445 C 0.22212 0.14168 0.70903 0.0
C3446 C 0.22005 0.12225 0.71675 0.0
C3447 C 0.23392 0.14553 0.69212 0.0
C3448 C 0.24393 0.13007 0.68209 0.0
H3449 H 0.21379 0.15388 0.71548 0.0
H3450 H 0.23418 0.16051 0.68616 0.0
S3451 S 0.24602 0.07716 0.69781 0.0
N3452 N 0.23119 0.08783 0.71426 0.0
N3453 N 0.25288 0.09505 0.68242 0.0
C3454 C 0.24311 0.11088 0.69041 0.0
C3455 C 0.23133 0.10698 0.70774 0.0
loop_
_geom_bond_atom_site_label_1
_geom_bond_atom_site_label_2
_geom_bond_distance
_geom_bond_site_symmetry_2
_ccdc_geom_bond_type
O0 Cd1 2.223 . S
O0 C8 1.315 . S
Cd1 O0 2.223 . S
Cd1 O4 2.297 . S
Cd1 O5 2.439 . S
Cd1 O11 2.240 1_455 S
Cd2 O3 2.240 . S
Cd2 O10 2.223 1_455 S
Cd2 O12 2.297 1_455 S
Cd2 O13 2.439 1_455 S
O3 Cd2 2.240 . S
O3 C8 1.279 . S
O4 Cd1 2.297 . S
O4 C6 1.247 . S
O5 Cd1 2.439 . S
O5 C6 1.208 . S
C6 O4 1.247 . S
C6 O5 1.208 . S
C7 O12 1.247 . S
C7 O13 1.208 . S
C8 O0 1.315 . S
C8 O3 1.279 . S
C9 O10 1.315 . S
C9 O11 1.279 . S
O10 Cd2 2.223 1_655 S
O10 C9 1.315 . S
O11 Cd1 2.240 1_655 S
O11 C9 1.279 . S
O12 Cd2 2.297 1_655 S
O12 C7 1.247 . S
O13 Cd2 2.439 1_655 S
O13 C7 1.208 . S
O14 Cd15 2.223 . S
O14 C22 1.315 . S
Cd15 O14 2.223 . S
Cd15 O18 2.297 . S
Cd15 O19 2.439 . S
Cd15 O25 2.240 . S
Cd16 O17 2.240 . S
Cd16 O24 2.223 . S
Cd16 O26 2.297 . S
Cd16 O27 2.439 . S
O17 Cd16 2.240 . S
O17 C22 1.279 . S
O18 Cd15 2.297 . S
O18 C20 1.247 . S
O19 Cd15 2.439 . S
O19 C20 1.208 . S
C20 O18 1.247 . S
C20 O19 1.208 . S
C21 O26 1.247 . S
C21 O27 1.208 . S
C22 O14 1.315 . S
C22 O17 1.279 . S
C23 O24 1.315 . S
C23 O25 1.279 . S
O24 Cd16 2.223 . S
O24 C23 1.315 . S
O25 Cd15 2.240 . S
O25 C23 1.279 . S
O26 Cd16 2.297 . S
O26 C21 1.247 . S
O27 Cd16 2.439 . S
O27 C21 1.208 . S
O28 Cd29 2.223 . S
O28 C36 1.315 . S
Cd29 O28 2.223 . S
Cd29 O32 2.297 . S
Cd29 O33 2.439 . S
Cd29 O39 2.240 . S
Cd30 O31 2.240 . S
Cd30 O38 2.223 . S
Cd30 O40 2.297 . S
Cd30 O41 2.439 . S
O31 Cd30 2.240 . S
O31 C36 1.279 . S
O32 Cd29 2.297 . S
O32 C34 1.247 . S
O33 Cd29 2.439 . S
O33 C34 1.208 . S
C34 O32 1.247 . S
C34 O33 1.208 . S
C35 O40 1.247 . S
C35 O41 1.208 . S
C36 O28 1.315 . S
C36 O31 1.279 . S
C37 O38 1.315 . S
C37 O39 1.279 . S
O38 Cd30 2.223 . S
O38 C37 1.315 . S
O39 Cd29 2.240 . S
O39 C37 1.279 . S
O40 Cd30 2.297 . S
O40 C35 1.247 . S
O41 Cd30 2.439 . S
O41 C35 1.208 . S
O42 Cd43 2.223 . S
O42 C50 1.315 . S
Cd43 O42 2.223 . S
Cd43 O46 2.297 . S
Cd43 O47 2.439 . S
Cd43 O53 2.240 . S
Cd44 O45 2.240 . S
Cd44 O52 2.223 . S
Cd44 O54 2.297 . S
Cd44 O55 2.439 . S
O45 Cd44 2.240 . S
O45 C50 1.279 . S
O46 Cd43 2.297 . S
O46 C48 1.247 . S
O47 Cd43 2.439 . S
O47 C48 1.208 . S
C48 O46 1.247 . S
C48 O47 1.208 . S
C49 O54 1.247 . S
C49 O55 1.208 . S
C50 O42 1.315 . S
C50 O45 1.279 . S
C51 O52 1.315 . S
C51 O53 1.279 . S
O52 Cd44 2.223 . S
O52 C51 1.315 . S
O53 Cd43 2.240 . S
O53 C51 1.279 . S
O54 Cd44 2.297 . S
O54 C49 1.247 . S
O55 Cd44 2.439 . S
O55 C49 1.208 . S
O56 Cd57 2.223 . S
O56 C64 1.315 . S
Cd57 O56 2.223 . S
Cd57 O60 2.297 . S
Cd57 O61 2.439 . S
Cd57 O67 2.240 1_455 S
Cd58 O59 2.240 . S
Cd58 O66 2.223 1_455 S
Cd58 O68 2.297 1_455 S
Cd58 O69 2.439 1_455 S
O59 Cd58 2.240 . S
O59 C64 1.279 . S
O60 Cd57 2.297 . S
O60 C62 1.247 . S
O61 Cd57 2.439 . S
O61 C62 1.208 . S
C62 O60 1.247 . S
C62 O61 1.208 . S
C63 O68 1.247 . S
C63 O69 1.208 . S
C64 O56 1.315 . S
C64 O59 1.279 . S
C65 O66 1.315 . S
C65 O67 1.279 . S
O66 Cd58 2.223 1_655 S
O66 C65 1.315 . S
O67 Cd57 2.240 1_655 S
O67 C65 1.279 . S
O68 Cd58 2.297 1_655 S
O68 C63 1.247 . S
O69 Cd58 2.439 1_655 S
O69 C63 1.208 . S
O70 Cd71 2.223 . S
O70 C78 1.315 . S
Cd71 O70 2.223 . S
Cd71 O74 2.297 . S
Cd71 O75 2.439 . S
Cd71 O81 2.240 . S
Cd72 O73 2.240 . S
Cd72 O80 2.223 . S
Cd72 O82 2.297 . S
Cd72 O83 2.439 . S
O73 Cd72 2.240 . S
O73 C78 1.279 . S
O74 Cd71 2.297 . S
O74 C76 1.247 . S
O75 Cd71 2.439 . S
O75 C76 1.208 . S
C76 O74 1.247 . S
C76 O75 1.208 . S
C77 O82 1.247 . S
C77 O83 1.208 . S
C78 O70 1.315 . S
C78 O73 1.279 . S
C79 O80 1.315 . S
C79 O81 1.279 . S
O80 Cd72 2.223 . S
O80 C79 1.315 . S
O81 Cd71 2.240 . S
O81 C79 1.279 . S
O82 Cd72 2.297 . S
O82 C77 1.247 . S
O83 Cd72 2.439 . S
O83 C77 1.208 . S
O84 Cd85 2.223 . S
O84 C92 1.315 . S
Cd85 O84 2.223 . S
Cd85 O88 2.297 . S
Cd85 O89 2.439 . S
Cd85 O95 2.240 . S
Cd86 O87 2.240 . S
Cd86 O94 2.223 . S
Cd86 O96 2.297 . S
Cd86 O97 2.439 . S
O87 Cd86 2.240 . S
O87 C92 1.279 . S
O88 Cd85 2.297 . S
O88 C90 1.247 . S
O89 Cd85 2.439 . S
O89 C90 1.208 . S
C90 O88 1.247 . S
C90 O89 1.208 . S
C91 O96 1.247 . S
C91 O97 1.208 . S
C92 O84 1.315 . S
C92 O87 1.279 . S
C93 O94 1.315 . S
C93 O95 1.279 . S
O94 Cd86 2.223 . S
O94 C93 1.315 . S
O95 Cd85 2.240 . S
O95 C93 1.279 . S
O96 Cd86 2.297 . S
O96 C91 1.247 . S
O97 Cd86 2.439 . S
O97 C91 1.208 . S
O98 Cd99 2.223 . S
O98 C106 1.315 . S
Cd99 O98 2.223 . S
Cd99 O102 2.297 . S
Cd99 O103 2.439 . S
Cd99 O109 2.240 . S
Cd100 O101 2.240 . S
Cd100 O108 2.223 . S
Cd100 O110 2.297 . S
Cd100 O111 2.439 . S
O101 Cd100 2.240 . S
O101 C106 1.279 . S
O102 Cd99 2.297 . S
O102 C104 1.247 . S
O103 Cd99 2.439 . S
O103 C104 1.208 . S
C104 O102 1.247 . S
C104 O103 1.208 . S
C105 O110 1.247 . S
C105 O111 1.208 . S
C106 O98 1.315 . S
C106 O101 1.279 . S
C107 O108 1.315 . S
C107 O109 1.279 . S
O108 Cd100 2.223 . S
O108 C107 1.315 . S
O109 Cd99 2.240 . S
O109 C107 1.279 . S
O110 Cd100 2.297 . S
O110 C105 1.247 . S
O111 Cd100 2.439 . S
O111 C105 1.208 . S
O112 Cd113 2.223 1_565 S
O112 C120 1.315 . S
Cd113 O112 2.223 1_545 S
Cd113 O116 2.297 1_545 S
Cd113 O117 2.439 1_545 S
Cd113 O123 2.240 . S
Cd114 O115 2.240 1_545 S
Cd114 O122 2.223 . S
Cd114 O124 2.297 . S
Cd114 O125 2.439 . S
O115 Cd114 2.240 1_565 S
O115 C120 1.279 . S
O116 Cd113 2.297 1_565 S
O116 C118 1.247 . S
O117 Cd113 2.439 1_565 S
O117 C118 1.208 . S
C118 O116 1.247 . S
C118 O117 1.208 . S
C119 O124 1.247 . S
C119 O125 1.208 . S
C120 O112 1.315 . S
C120 O115 1.279 . S
C121 O122 1.315 . S
C121 O123 1.279 . S
O122 Cd114 2.223 . S
O122 C121 1.315 . S
O123 Cd113 2.240 . S
O123 C121 1.279 . S
O124 Cd114 2.297 . S
O124 C119 1.247 . S
O125 Cd114 2.439 . S
O125 C119 1.208 . S
O126 Cd127 2.223 . S
O126 C134 1.315 . S
Cd127 O126 2.223 . S
Cd127 O130 2.297 . S
Cd127 O131 2.439 . S
Cd127 O137 2.240 . S
Cd128 O129 2.240 . S
Cd128 O136 2.223 . S
Cd128 O138 2.297 . S
Cd128 O139 2.439 . S
O129 Cd128 2.240 . S
O129 C134 1.279 . S
O130 Cd127 2.297 . S
O130 C132 1.247 . S
O131 Cd127 2.439 . S
O131 C132 1.208 . S
C132 O130 1.247 . S
C132 O131 1.208 . S
C133 O138 1.247 . S
C133 O139 1.208 . S
C134 O126 1.315 . S
C134 O129 1.279 . S
C135 O136 1.315 . S
C135 O137 1.279 . S
O136 Cd128 2.223 . S
O136 C135 1.315 . S
O137 Cd127 2.240 . S
O137 C135 1.279 . S
O138 Cd128 2.297 . S
O138 C133 1.247 . S
O139 Cd128 2.439 . S
O139 C133 1.208 . S
O140 Cd141 2.223 1_545 S
O140 C148 1.315 . S
Cd141 O140 2.223 1_565 S
Cd141 O144 2.297 1_565 S
Cd141 O145 2.439 1_565 S
Cd141 O151 2.240 . S
Cd142 O143 2.240 1_565 S
Cd142 O150 2.223 . S
Cd142 O152 2.297 . S
Cd142 O153 2.439 . S
O143 Cd142 2.240 1_545 S
O143 C148 1.279 . S
O144 Cd141 2.297 1_545 S
O144 C146 1.247 . S
O145 Cd141 2.439 1_545 S
O145 C146 1.208 . S
C146 O144 1.247 . S
C146 O145 1.208 . S
C147 O152 1.247 . S
C147 O153 1.208 . S
C148 O140 1.315 . S
C148 O143 1.279 . S
C149 O150 1.315 . S
C149 O151 1.279 . S
O150 Cd142 2.223 . S
O150 C149 1.315 . S
O151 Cd141 2.240 . S
O151 C149 1.279 . S
O152 Cd142 2.297 . S
O152 C147 1.247 . S
O153 Cd142 2.439 . S
O153 C147 1.208 . S
O154 Cd155 2.223 . S
O154 C162 1.315 . S
Cd155 O154 2.223 . S
Cd155 O158 2.297 . S
Cd155 O159 2.439 . S
Cd155 O165 2.240 . S
Cd156 O157 2.240 . S
Cd156 O164 2.223 . S
Cd156 O166 2.297 . S
Cd156 O167 2.439 . S
O157 Cd156 2.240 . S
O157 C162 1.279 . S
O158 Cd155 2.297 . S
O158 C160 1.247 . S
O159 Cd155 2.439 . S
O159 C160 1.208 . S
C160 O158 1.247 . S
C160 O159 1.208 . S
C161 O166 1.247 . S
C161 O167 1.208 . S
C162 O154 1.315 . S
C162 O157 1.279 . S
C163 O164 1.315 . S
C163 O165 1.279 . S
O164 Cd156 2.223 . S
O164 C163 1.315 . S
O165 Cd155 2.240 . S
O165 C163 1.279 . S
O166 Cd156 2.297 . S
O166 C161 1.247 . S
O167 Cd156 2.439 . S
O167 C161 1.208 . S
O168 Cd169 2.223 1_545 S
O168 C176 1.315 . S
Cd169 O168 2.223 1_565 S
Cd169 O172 2.297 1_565 S
Cd169 O173 2.439 1_565 S
Cd169 O179 2.240 . S
Cd170 O171 2.240 1_565 S
Cd170 O178 2.223 . S
Cd170 O180 2.297 . S
Cd170 O181 2.439 . S
O171 Cd170 2.240 1_545 S
O171 C176 1.279 . S
O172 Cd169 2.297 1_545 S
O172 C174 1.247 . S
O173 Cd169 2.439 1_545 S
O173 C174 1.208 . S
C174 O172 1.247 . S
C174 O173 1.208 . S
C175 O180 1.247 . S
C175 O181 1.208 . S
C176 O168 1.315 . S
C176 O171 1.279 . S
C177 O178 1.315 . S
C177 O179 1.279 . S
O178 Cd170 2.223 . S
O178 C177 1.315 . S
O179 Cd169 2.240 . S
O179 C177 1.279 . S
O180 Cd170 2.297 . S
O180 C175 1.247 . S
O181 Cd170 2.439 . S
O181 C175 1.208 . S
O182 Cd183 2.223 . S
O182 C190 1.315 . S
Cd183 O182 2.223 . S
Cd183 O186 2.297 . S
Cd183 O187 2.439 . S
Cd183 O193 2.240 . S
Cd184 O185 2.240 . S
Cd184 O192 2.223 . S
Cd184 O194 2.297 . S
Cd184 O195 2.439 . S
O185 Cd184 2.240 . S
O185 C190 1.279 . S
O186 Cd183 2.297 . S
O186 C188 1.247 . S
O187 Cd183 2.439 . S
O187 C188 1.208 . S
C188 O186 1.247 . S
C188 O187 1.208 . S
C189 O194 1.247 . S
C189 O195 1.208 . S
C190 O182 1.315 . S
C190 O185 1.279 . S
C191 O192 1.315 . S
C191 O193 1.279 . S
O192 Cd184 2.223 . S
O192 C191 1.315 . S
O193 Cd183 2.240 . S
O193 C191 1.279 . S
O194 Cd184 2.297 . S
O194 C189 1.247 . S
O195 Cd184 2.439 . S
O195 C189 1.208 . S
O196 Cd197 2.223 1_565 S
O196 C204 1.315 . S
Cd197 O196 2.223 1_545 S
Cd197 O200 2.297 1_545 S
Cd197 O201 2.439 1_545 S
Cd197 O207 2.240 . S
Cd198 O199 2.240 1_545 S
Cd198 O206 2.223 . S
Cd198 O208 2.297 . S
Cd198 O209 2.439 . S
O199 Cd198 2.240 1_565 S
O199 C204 1.279 . S
O200 Cd197 2.297 1_565 S
O200 C202 1.247 . S
O201 Cd197 2.439 1_565 S
O201 C202 1.208 . S
C202 O200 1.247 . S
C202 O201 1.208 . S
C203 O208 1.247 . S
C203 O209 1.208 . S
C204 O196 1.315 . S
C204 O199 1.279 . S
C205 O206 1.315 . S
C205 O207 1.279 . S
O206 Cd198 2.223 . S
O206 C205 1.315 . S
O207 Cd197 2.240 . S
O207 C205 1.279 . S
O208 Cd198 2.297 . S
O208 C203 1.247 . S
O209 Cd198 2.439 . S
O209 C203 1.208 . S
O210 Cd211 2.223 . S
O210 C218 1.315 . S
Cd211 O210 2.223 . S
Cd211 O214 2.297 . S
Cd211 O215 2.439 . S
Cd211 O221 2.240 . S
Cd212 O213 2.240 . S
Cd212 O220 2.223 . S
Cd212 O222 2.297 . S
Cd212 O223 2.439 . S
O213 Cd212 2.240 . S
O213 C218 1.279 . S
O214 Cd211 2.297 . S
O214 C216 1.247 . S
O215 Cd211 2.439 . S
O215 C216 1.208 . S
C216 O214 1.247 . S
C216 O215 1.208 . S
C217 O222 1.247 . S
C217 O223 1.208 . S
C218 O210 1.315 . S
C218 O213 1.279 . S
C219 O220 1.315 . S
C219 O221 1.279 . S
O220 Cd212 2.223 . S
O220 C219 1.315 . S
O221 Cd211 2.240 . S
O221 C219 1.279 . S
O222 Cd212 2.297 . S
O222 C217 1.247 . S
O223 Cd212 2.439 . S
O223 C217 1.208 . S
O224 Cd225 2.223 . S
O224 C232 1.315 . S
Cd225 O224 2.223 . S
Cd225 O228 2.297 . S
Cd225 O229 2.439 . S
Cd225 O235 2.240 1_554 S
Cd226 O227 2.240 . S
Cd226 O234 2.223 1_554 S
Cd226 O236 2.297 1_554 S
Cd226 O237 2.439 1_554 S
O227 Cd226 2.240 . S
O227 C232 1.279 . S
O228 Cd225 2.297 . S
O228 C230 1.247 . S
O229 Cd225 2.439 . S
O229 C230 1.208 . S
C230 O228 1.247 . S
C230 O229 1.208 . S
C231 O236 1.247 . S
C231 O237 1.208 . S
C232 O224 1.315 . S
C232 O227 1.279 . S
C233 O234 1.315 . S
C233 O235 1.279 . S
O234 Cd226 2.223 1_556 S
O234 C233 1.315 . S
O235 Cd225 2.240 1_556 S
O235 C233 1.279 . S
O236 Cd226 2.297 1_556 S
O236 C231 1.247 . S
O237 Cd226 2.439 1_556 S
O237 C231 1.208 . S
O238 Cd239 2.223 . S
O238 C246 1.315 . S
Cd239 O238 2.223 . S
Cd239 O242 2.297 . S
Cd239 O243 2.439 . S
Cd239 O249 2.240 1_556 S
Cd240 O241 2.240 . S
Cd240 O248 2.223 1_556 S
Cd240 O250 2.297 1_556 S
Cd240 O251 2.439 1_556 S
O241 Cd240 2.240 . S
O241 C246 1.279 . S
O242 Cd239 2.297 . S
O242 C244 1.247 . S
O243 Cd239 2.439 . S
O243 C244 1.208 . S
C244 O242 1.247 . S
C244 O243 1.208 . S
C245 O250 1.247 . S
C245 O251 1.208 . S
C246 O238 1.315 . S
C246 O241 1.279 . S
C247 O248 1.315 . S
C247 O249 1.279 . S
O248 Cd240 2.223 1_554 S
O248 C247 1.315 . S
O249 Cd239 2.240 1_554 S
O249 C247 1.279 . S
O250 Cd240 2.297 1_554 S
O250 C245 1.247 . S
O251 Cd240 2.439 1_554 S
O251 C245 1.208 . S
O252 Cd253 2.223 . S
O252 C260 1.315 . S
Cd253 O252 2.223 . S
Cd253 O256 2.297 . S
Cd253 O257 2.439 . S
Cd253 O263 2.240 . S
Cd254 O255 2.240 . S
Cd254 O262 2.223 . S
Cd254 O264 2.297 . S
Cd254 O265 2.439 . S
O255 Cd254 2.240 . S
O255 C260 1.279 . S
O256 Cd253 2.297 . S
O256 C258 1.247 . S
O257 Cd253 2.439 . S
O257 C258 1.208 . S
C258 O256 1.247 . S
C258 O257 1.208 . S
C259 O264 1.247 . S
C259 O265 1.208 . S
C260 O252 1.315 . S
C260 O255 1.279 . S
C261 O262 1.315 . S
C261 O263 1.279 . S
O262 Cd254 2.223 . S
O262 C261 1.315 . S
O263 Cd253 2.240 . S
O263 C261 1.279 . S
O264 Cd254 2.297 . S
O264 C259 1.247 . S
O265 Cd254 2.439 . S
O265 C259 1.208 . S
O266 Cd267 2.223 . S
O266 C274 1.315 . S
Cd267 O266 2.223 . S
Cd267 O270 2.297 . S
Cd267 O271 2.439 . S
Cd267 O277 2.240 . S
Cd268 O269 2.240 . S
Cd268 O276 2.223 . S
Cd268 O278 2.297 . S
Cd268 O279 2.439 . S
O269 Cd268 2.240 . S
O269 C274 1.279 . S
O270 Cd267 2.297 . S
O270 C272 1.247 . S
O271 Cd267 2.439 . S
O271 C272 1.208 . S
C272 O270 1.247 . S
C272 O271 1.208 . S
C273 O278 1.247 . S
C273 O279 1.208 . S
C274 O266 1.315 . S
C274 O269 1.279 . S
C275 O276 1.315 . S
C275 O277 1.279 . S
O276 Cd268 2.223 . S
O276 C275 1.315 . S
O277 Cd267 2.240 . S
O277 C275 1.279 . S
O278 Cd268 2.297 . S
O278 C273 1.247 . S
O279 Cd268 2.439 . S
O279 C273 1.208 . S
O280 Cd281 2.223 . S
O280 C288 1.315 . S
Cd281 O280 2.223 . S
Cd281 O284 2.297 . S
Cd281 O285 2.439 . S
Cd281 O291 2.240 . S
Cd282 O283 2.240 . S
Cd282 O290 2.223 . S
Cd282 O292 2.297 . S
Cd282 O293 2.439 . S
O283 Cd282 2.240 . S
O283 C288 1.279 . S
O284 Cd281 2.297 . S
O284 C286 1.247 . S
O285 Cd281 2.439 . S
O285 C286 1.208 . S
C286 O284 1.247 . S
C286 O285 1.208 . S
C287 O292 1.247 . S
C287 O293 1.208 . S
C288 O280 1.315 . S
C288 O283 1.279 . S
C289 O290 1.315 . S
C289 O291 1.279 . S
O290 Cd282 2.223 . S
O290 C289 1.315 . S
O291 Cd281 2.240 . S
O291 C289 1.279 . S
O292 Cd282 2.297 . S
O292 C287 1.247 . S
O293 Cd282 2.439 . S
O293 C287 1.208 . S
O294 Cd295 2.223 . S
O294 C302 1.315 . S
Cd295 O294 2.223 . S
Cd295 O298 2.297 . S
Cd295 O299 2.439 . S
Cd295 O305 2.240 . S
Cd296 O297 2.240 . S
Cd296 O304 2.223 . S
Cd296 O306 2.297 . S
Cd296 O307 2.439 . S
O297 Cd296 2.240 . S
O297 C302 1.279 . S
O298 Cd295 2.297 . S
O298 C300 1.247 . S
O299 Cd295 2.439 . S
O299 C300 1.208 . S
C300 O298 1.247 . S
C300 O299 1.208 . S
C301 O306 1.247 . S
C301 O307 1.208 . S
C302 O294 1.315 . S
C302 O297 1.279 . S
C303 O304 1.315 . S
C303 O305 1.279 . S
O304 Cd296 2.223 . S
O304 C303 1.315 . S
O305 Cd295 2.240 . S
O305 C303 1.279 . S
O306 Cd296 2.297 . S
O306 C301 1.247 . S
O307 Cd296 2.439 . S
O307 C301 1.208 . S
O308 Cd309 2.223 . S
O308 C316 1.315 . S
Cd309 O308 2.223 . S
Cd309 O312 2.297 . S
Cd309 O313 2.439 . S
Cd309 O319 2.240 . S
Cd310 O311 2.240 . S
Cd310 O318 2.223 . S
Cd310 O320 2.297 . S
Cd310 O321 2.439 . S
O311 Cd310 2.240 . S
O311 C316 1.279 . S
O312 Cd309 2.297 . S
O312 C314 1.247 . S
O313 Cd309 2.439 . S
O313 C314 1.208 . S
C314 O312 1.247 . S
C314 O313 1.208 . S
C315 O320 1.247 . S
C315 O321 1.208 . S
C316 O308 1.315 . S
C316 O311 1.279 . S
C317 O318 1.315 . S
C317 O319 1.279 . S
O318 Cd310 2.223 . S
O318 C317 1.315 . S
O319 Cd309 2.240 . S
O319 C317 1.279 . S
O320 Cd310 2.297 . S
O320 C315 1.247 . S
O321 Cd310 2.439 . S
O321 C315 1.208 . S
O322 Cd323 2.223 . S
O322 C330 1.315 . S
Cd323 O322 2.223 . S
Cd323 O326 2.297 . S
Cd323 O327 2.439 . S
Cd323 O333 2.240 . S
Cd324 O325 2.240 . S
Cd324 O332 2.223 . S
Cd324 O334 2.297 . S
Cd324 O335 2.439 . S
O325 Cd324 2.240 . S
O325 C330 1.279 . S
O326 Cd323 2.297 . S
O326 C328 1.247 . S
O327 Cd323 2.439 . S
O327 C328 1.208 . S
C328 O326 1.247 . S
C328 O327 1.208 . S
C329 O334 1.247 . S
C329 O335 1.208 . S
C330 O322 1.315 . S
C330 O325 1.279 . S
C331 O332 1.315 . S
C331 O333 1.279 . S
O332 Cd324 2.223 . S
O332 C331 1.315 . S
O333 Cd323 2.240 . S
O333 C331 1.279 . S
O334 Cd324 2.297 . S
O334 C329 1.247 . S
O335 Cd324 2.439 . S
O335 C329 1.208 . S
O336 Cd337 2.223 . S
O336 C344 1.315 . S
Cd337 O336 2.223 . S
Cd337 O340 2.297 . S
Cd337 O341 2.439 . S
Cd337 O347 2.240 1_655 S
Cd338 O339 2.240 . S
Cd338 O346 2.223 1_655 S
Cd338 O348 2.297 1_655 S
Cd338 O349 2.439 1_655 S
O339 Cd338 2.240 . S
O339 C344 1.279 . S
O340 Cd337 2.297 . S
O340 C342 1.247 . S
O341 Cd337 2.439 . S
O341 C342 1.208 . S
C342 O340 1.247 . S
C342 O341 1.208 . S
C343 O348 1.247 . S
C343 O349 1.208 . S
C344 O336 1.315 . S
C344 O339 1.279 . S
C345 O346 1.315 . S
C345 O347 1.279 . S
O346 Cd338 2.223 1_455 S
O346 C345 1.315 . S
O347 Cd337 2.240 1_455 S
O347 C345 1.279 . S
O348 Cd338 2.297 1_455 S
O348 C343 1.247 . S
O349 Cd338 2.439 1_455 S
O349 C343 1.208 . S
O350 Cd351 2.223 . S
O350 C358 1.315 . S
Cd351 O350 2.223 . S
Cd351 O354 2.297 . S
Cd351 O355 2.439 . S
Cd351 O361 2.240 . S
Cd352 O353 2.240 . S
Cd352 O360 2.223 . S
Cd352 O362 2.297 . S
Cd352 O363 2.439 . S
O353 Cd352 2.240 . S
O353 C358 1.279 . S
O354 Cd351 2.297 . S
O354 C356 1.247 . S
O355 Cd351 2.439 . S
O355 C356 1.208 . S
C356 O354 1.247 . S
C356 O355 1.208 . S
C357 O362 1.247 . S
C357 O363 1.208 . S
C358 O350 1.315 . S
C358 O353 1.279 . S
C359 O360 1.315 . S
C359 O361 1.279 . S
O360 Cd352 2.223 . S
O360 C359 1.315 . S
O361 Cd351 2.240 . S
O361 C359 1.279 . S
O362 Cd352 2.297 . S
O362 C357 1.247 . S
O363 Cd352 2.439 . S
O363 C357 1.208 . S
O364 Cd365 2.223 . S
O364 C372 1.315 . S
Cd365 O364 2.223 . S
Cd365 O368 2.297 . S
Cd365 O369 2.439 . S
Cd365 O375 2.240 . S
Cd366 O367 2.240 . S
Cd366 O374 2.223 . S
Cd366 O376 2.297 . S
Cd366 O377 2.439 . S
O367 Cd366 2.240 . S
O367 C372 1.279 . S
O368 Cd365 2.297 . S
O368 C370 1.247 . S
O369 Cd365 2.439 . S
O369 C370 1.208 . S
C370 O368 1.247 . S
C370 O369 1.208 . S
C371 O376 1.247 . S
C371 O377 1.208 . S
C372 O364 1.315 . S
C372 O367 1.279 . S
C373 O374 1.315 . S
C373 O375 1.279 . S
O374 Cd366 2.223 . S
O374 C373 1.315 . S
O375 Cd365 2.240 . S
O375 C373 1.279 . S
O376 Cd366 2.297 . S
O376 C371 1.247 . S
O377 Cd366 2.439 . S
O377 C371 1.208 . S
O378 Cd379 2.223 . S
O378 C386 1.315 . S
Cd379 O378 2.223 . S
Cd379 O382 2.297 . S
Cd379 O383 2.439 . S
Cd379 O389 2.240 . S
Cd380 O381 2.240 . S
Cd380 O388 2.223 . S
Cd380 O390 2.297 . S
Cd380 O391 2.439 . S
O381 Cd380 2.240 . S
O381 C386 1.279 . S
O382 Cd379 2.297 . S
O382 C384 1.247 . S
O383 Cd379 2.439 . S
O383 C384 1.208 . S
C384 O382 1.247 . S
C384 O383 1.208 . S
C385 O390 1.247 . S
C385 O391 1.208 . S
C386 O378 1.315 . S
C386 O381 1.279 . S
C387 O388 1.315 . S
C387 O389 1.279 . S
O388 Cd380 2.223 . S
O388 C387 1.315 . S
O389 Cd379 2.240 . S
O389 C387 1.279 . S
O390 Cd380 2.297 . S
O390 C385 1.247 . S
O391 Cd380 2.439 . S
O391 C385 1.208 . S
O392 Cd393 2.223 . S
O392 C400 1.315 . S
Cd393 O392 2.223 . S
Cd393 O396 2.297 . S
Cd393 O397 2.439 . S
Cd393 O403 2.240 1_655 S
Cd394 O395 2.240 . S
Cd394 O402 2.223 1_655 S
Cd394 O404 2.297 1_655 S
Cd394 O405 2.439 1_655 S
O395 Cd394 2.240 . S
O395 C400 1.279 . S
O396 Cd393 2.297 . S
O396 C398 1.247 . S
O397 Cd393 2.439 . S
O397 C398 1.208 . S
C398 O396 1.247 . S
C398 O397 1.208 . S
C399 O404 1.247 . S
C399 O405 1.208 . S
C400 O392 1.315 . S
C400 O395 1.279 . S
C401 O402 1.315 . S
C401 O403 1.279 . S
O402 Cd394 2.223 1_455 S
O402 C401 1.315 . S
O403 Cd393 2.240 1_455 S
O403 C401 1.279 . S
O404 Cd394 2.297 1_455 S
O404 C399 1.247 . S
O405 Cd394 2.439 1_455 S
O405 C399 1.208 . S
O406 Cd407 2.223 . S
O406 C414 1.315 . S
Cd407 O406 2.223 . S
Cd407 O410 2.297 . S
Cd407 O411 2.439 . S
Cd407 O417 2.240 . S
Cd408 O409 2.240 . S
Cd408 O416 2.223 . S
Cd408 O418 2.297 . S
Cd408 O419 2.439 . S
O409 Cd408 2.240 . S
O409 C414 1.279 . S
O410 Cd407 2.297 . S
O410 C412 1.247 . S
O411 Cd407 2.439 . S
O411 C412 1.208 . S
C412 O410 1.247 . S
C412 O411 1.208 . S
C413 O418 1.247 . S
C413 O419 1.208 . S
C414 O406 1.315 . S
C414 O409 1.279 . S
C415 O416 1.315 . S
C415 O417 1.279 . S
O416 Cd408 2.223 . S
O416 C415 1.315 . S
O417 Cd407 2.240 . S
O417 C415 1.279 . S
O418 Cd408 2.297 . S
O418 C413 1.247 . S
O419 Cd408 2.439 . S
O419 C413 1.208 . S
O420 Cd421 2.223 . S
O420 C428 1.315 . S
Cd421 O420 2.223 . S
Cd421 O424 2.297 . S
Cd421 O425 2.439 . S
Cd421 O431 2.240 . S
Cd422 O423 2.240 . S
Cd422 O430 2.223 . S
Cd422 O432 2.297 . S
Cd422 O433 2.439 . S
O423 Cd422 2.240 . S
O423 C428 1.279 . S
O424 Cd421 2.297 . S
O424 C426 1.247 . S
O425 Cd421 2.439 . S
O425 C426 1.208 . S
C426 O424 1.247 . S
C426 O425 1.208 . S
C427 O432 1.247 . S
C427 O433 1.208 . S
C428 O420 1.315 . S
C428 O423 1.279 . S
C429 O430 1.315 . S
C429 O431 1.279 . S
O430 Cd422 2.223 . S
O430 C429 1.315 . S
O431 Cd421 2.240 . S
O431 C429 1.279 . S
O432 Cd422 2.297 . S
O432 C427 1.247 . S
O433 Cd422 2.439 . S
O433 C427 1.208 . S
O434 Cd435 2.223 . S
O434 C442 1.315 . S
Cd435 O434 2.223 . S
Cd435 O438 2.297 . S
Cd435 O439 2.439 . S
Cd435 O445 2.240 . S
Cd436 O437 2.240 . S
Cd436 O444 2.223 . S
Cd436 O446 2.297 . S
Cd436 O447 2.439 . S
O437 Cd436 2.240 . S
O437 C442 1.279 . S
O438 Cd435 2.297 . S
O438 C440 1.247 . S
O439 Cd435 2.439 . S
O439 C440 1.208 . S
C440 O438 1.247 . S
C440 O439 1.208 . S
C441 O446 1.247 . S
C441 O447 1.208 . S
C442 O434 1.315 . S
C442 O437 1.279 . S
C443 O444 1.315 . S
C443 O445 1.279 . S
O444 Cd436 2.223 . S
O444 C443 1.315 . S
O445 Cd435 2.240 . S
O445 C443 1.279 . S
O446 Cd436 2.297 . S
O446 C441 1.247 . S
O447 Cd436 2.439 . S
O447 C441 1.208 . S
O448 Cd449 2.223 . S
O448 C456 1.315 . S
Cd449 O448 2.223 . S
Cd449 O452 2.297 . S
Cd449 O453 2.439 . S
Cd449 O459 2.240 1_565 S
Cd450 O451 2.240 . S
Cd450 O458 2.223 1_565 S
Cd450 O460 2.297 1_565 S
Cd450 O461 2.439 1_565 S
O451 Cd450 2.240 . S
O451 C456 1.279 . S
O452 Cd449 2.297 . S
O452 C454 1.247 . S
O453 Cd449 2.439 . S
O453 C454 1.208 . S
C454 O452 1.247 . S
C454 O453 1.208 . S
C455 O460 1.247 . S
C455 O461 1.208 . S
C456 O448 1.315 . S
C456 O451 1.279 . S
C457 O458 1.315 . S
C457 O459 1.279 . S
O458 Cd450 2.223 1_545 S
O458 C457 1.315 . S
O459 Cd449 2.240 1_545 S
O459 C457 1.279 . S
O460 Cd450 2.297 1_545 S
O460 C455 1.247 . S
O461 Cd450 2.439 1_545 S
O461 C455 1.208 . S
O462 Cd463 2.223 . S
O462 C470 1.315 . S
Cd463 O462 2.223 . S
Cd463 O466 2.297 . S
Cd463 O467 2.439 . S
Cd463 O473 2.240 . S
Cd464 O465 2.240 . S
Cd464 O472 2.223 . S
Cd464 O474 2.297 . S
Cd464 O475 2.439 . S
O465 Cd464 2.240 . S
O465 C470 1.279 . S
O466 Cd463 2.297 . S
O466 C468 1.247 . S
O467 Cd463 2.439 . S
O467 C468 1.208 . S
C468 O466 1.247 . S
C468 O467 1.208 . S
C469 O474 1.247 . S
C469 O475 1.208 . S
C470 O462 1.315 . S
C470 O465 1.279 . S
C471 O472 1.315 . S
C471 O473 1.279 . S
O472 Cd464 2.223 . S
O472 C471 1.315 . S
O473 Cd463 2.240 . S
O473 C471 1.279 . S
O474 Cd464 2.297 . S
O474 C469 1.247 . S
O475 Cd464 2.439 . S
O475 C469 1.208 . S
O476 Cd477 2.223 . S
O476 C484 1.315 . S
Cd477 O476 2.223 . S
Cd477 O480 2.297 . S
Cd477 O481 2.439 . S
Cd477 O487 2.240 1_545 S
Cd478 O479 2.240 . S
Cd478 O486 2.223 1_545 S
Cd478 O488 2.297 1_545 S
Cd478 O489 2.439 1_545 S
O479 Cd478 2.240 . S
O479 C484 1.279 . S
O480 Cd477 2.297 . S
O480 C482 1.247 . S
O481 Cd477 2.439 . S
O481 C482 1.208 . S
C482 O480 1.247 . S
C482 O481 1.208 . S
C483 O488 1.247 . S
C483 O489 1.208 . S
C484 O476 1.315 . S
C484 O479 1.279 . S
C485 O486 1.315 . S
C485 O487 1.279 . S
O486 Cd478 2.223 1_565 S
O486 C485 1.315 . S
O487 Cd477 2.240 1_565 S
O487 C485 1.279 . S
O488 Cd478 2.297 1_565 S
O488 C483 1.247 . S
O489 Cd478 2.439 1_565 S
O489 C483 1.208 . S
O490 Cd491 2.223 . S
O490 C498 1.315 . S
Cd491 O490 2.223 . S
Cd491 O494 2.297 . S
Cd491 O495 2.439 . S
Cd491 O501 2.240 . S
Cd492 O493 2.240 . S
Cd492 O500 2.223 . S
Cd492 O502 2.297 . S
Cd492 O503 2.439 . S
O493 Cd492 2.240 . S
O493 C498 1.279 . S
O494 Cd491 2.297 . S
O494 C496 1.247 . S
O495 Cd491 2.439 . S
O495 C496 1.208 . S
C496 O494 1.247 . S
C496 O495 1.208 . S
C497 O502 1.247 . S
C497 O503 1.208 . S
C498 O490 1.315 . S
C498 O493 1.279 . S
C499 O500 1.315 . S
C499 O501 1.279 . S
O500 Cd492 2.223 . S
O500 C499 1.315 . S
O501 Cd491 2.240 . S
O501 C499 1.279 . S
O502 Cd492 2.297 . S
O502 C497 1.247 . S
O503 Cd492 2.439 . S
O503 C497 1.208 . S
O504 Cd505 2.223 . S
O504 C512 1.315 . S
Cd505 O504 2.223 . S
Cd505 O508 2.297 . S
Cd505 O509 2.439 . S
Cd505 O515 2.240 1_545 S
Cd506 O507 2.240 . S
Cd506 O514 2.223 1_545 S
Cd506 O516 2.297 1_545 S
Cd506 O517 2.439 1_545 S
O507 Cd506 2.240 . S
O507 C512 1.279 . S
O508 Cd505 2.297 . S
O508 C510 1.247 . S
O509 Cd505 2.439 . S
O509 C510 1.208 . S
C510 O508 1.247 . S
C510 O509 1.208 . S
C511 O516 1.247 . S
C511 O517 1.208 . S
C512 O504 1.315 . S
C512 O507 1.279 . S
C513 O514 1.315 . S
C513 O515 1.279 . S
O514 Cd506 2.223 1_565 S
O514 C513 1.315 . S
O515 Cd505 2.240 1_565 S
O515 C513 1.279 . S
O516 Cd506 2.297 1_565 S
O516 C511 1.247 . S
O517 Cd506 2.439 1_565 S
O517 C511 1.208 . S
O518 Cd519 2.223 . S
O518 C526 1.315 . S
Cd519 O518 2.223 . S
Cd519 O522 2.297 . S
Cd519 O523 2.439 . S
Cd519 O529 2.240 . S
Cd520 O521 2.240 . S
Cd520 O528 2.223 . S
Cd520 O530 2.297 . S
Cd520 O531 2.439 . S
O521 Cd520 2.240 . S
O521 C526 1.279 . S
O522 Cd519 2.297 . S
O522 C524 1.247 . S
O523 Cd519 2.439 . S
O523 C524 1.208 . S
C524 O522 1.247 . S
C524 O523 1.208 . S
C525 O530 1.247 . S
C525 O531 1.208 . S
C526 O518 1.315 . S
C526 O521 1.279 . S
C527 O528 1.315 . S
C527 O529 1.279 . S
O528 Cd520 2.223 . S
O528 C527 1.315 . S
O529 Cd519 2.240 . S
O529 C527 1.279 . S
O530 Cd520 2.297 . S
O530 C525 1.247 . S
O531 Cd520 2.439 . S
O531 C525 1.208 . S
O532 Cd533 2.223 . S
O532 C540 1.315 . S
Cd533 O532 2.223 . S
Cd533 O536 2.297 . S
Cd533 O537 2.439 . S
Cd533 O543 2.240 1_565 S
Cd534 O535 2.240 . S
Cd534 O542 2.223 1_565 S
Cd534 O544 2.297 1_565 S
Cd534 O545 2.439 1_565 S
O535 Cd534 2.240 . S
O535 C540 1.279 . S
O536 Cd533 2.297 . S
O536 C538 1.247 . S
O537 Cd533 2.439 . S
O537 C538 1.208 . S
C538 O536 1.247 . S
C538 O537 1.208 . S
C539 O544 1.247 . S
C539 O545 1.208 . S
C540 O532 1.315 . S
C540 O535 1.279 . S
C541 O542 1.315 . S
C541 O543 1.279 . S
O542 Cd534 2.223 1_545 S
O542 C541 1.315 . S
O543 Cd533 2.240 1_545 S
O543 C541 1.279 . S
O544 Cd534 2.297 1_545 S
O544 C539 1.247 . S
O545 Cd534 2.439 1_545 S
O545 C539 1.208 . S
O546 Cd547 2.223 . S
O546 C554 1.315 . S
Cd547 O546 2.223 . S
Cd547 O550 2.297 . S
Cd547 O551 2.439 . S
Cd547 O557 2.240 . S
Cd548 O549 2.240 . S
Cd548 O556 2.223 . S
Cd548 O558 2.297 . S
Cd548 O559 2.439 . S
O549 Cd548 2.240 . S
O549 C554 1.279 . S
O550 Cd547 2.297 . S
O550 C552 1.247 . S
O551 Cd547 2.439 . S
O551 C552 1.208 . S
C552 O550 1.247 . S
C552 O551 1.208 . S
C553 O558 1.247 . S
C553 O559 1.208 . S
C554 O546 1.315 . S
C554 O549 1.279 . S
C555 O556 1.315 . S
C555 O557 1.279 . S
O556 Cd548 2.223 . S
O556 C555 1.315 . S
O557 Cd547 2.240 . S
O557 C555 1.279 . S
O558 Cd548 2.297 . S
O558 C553 1.247 . S
O559 Cd548 2.439 . S
O559 C553 1.208 . S
O560 Cd561 2.223 . S
O560 C568 1.315 . S
Cd561 O560 2.223 . S
Cd561 O564 2.297 . S
Cd561 O565 2.439 . S
Cd561 O571 2.240 1_556 S
Cd562 O563 2.240 . S
Cd562 O570 2.223 1_556 S
Cd562 O572 2.297 1_556 S
Cd562 O573 2.439 1_556 S
O563 Cd562 2.240 . S
O563 C568 1.279 . S
O564 Cd561 2.297 . S
O564 C566 1.247 . S
O565 Cd561 2.439 . S
O565 C566 1.208 . S
C566 O564 1.247 . S
C566 O565 1.208 . S
C567 O572 1.247 . S
C567 O573 1.208 . S
C568 O560 1.315 . S
C568 O563 1.279 . S
C569 O570 1.315 . S
C569 O571 1.279 . S
O570 Cd562 2.223 1_554 S
O570 C569 1.315 . S
O571 Cd561 2.240 1_554 S
O571 C569 1.279 . S
O572 Cd562 2.297 1_554 S
O572 C567 1.247 . S
O573 Cd562 2.439 1_554 S
O573 C567 1.208 . S
O574 Cd575 2.223 . S
O574 C582 1.315 . S
Cd575 O574 2.223 . S
Cd575 O578 2.297 . S
Cd575 O579 2.439 . S
Cd575 O585 2.240 1_554 S
Cd576 O577 2.240 . S
Cd576 O584 2.223 1_554 S
Cd576 O586 2.297 1_554 S
Cd576 O587 2.439 1_554 S
O577 Cd576 2.240 . S
O577 C582 1.279 . S
O578 Cd575 2.297 . S
O578 C580 1.247 . S
O579 Cd575 2.439 . S
O579 C580 1.208 . S
C580 O578 1.247 . S
C580 O579 1.208 . S
C581 O586 1.247 . S
C581 O587 1.208 . S
C582 O574 1.315 . S
C582 O577 1.279 . S
C583 O584 1.315 . S
C583 O585 1.279 . S
O584 Cd576 2.223 1_556 S
O584 C583 1.315 . S
O585 Cd575 2.240 1_556 S
O585 C583 1.279 . S
O586 Cd576 2.297 1_556 S
O586 C581 1.247 . S
O587 Cd576 2.439 1_556 S
O587 C581 1.208 . S
O588 Cd589 2.223 . S
O588 C596 1.315 . S
Cd589 O588 2.223 . S
Cd589 O592 2.297 . S
Cd589 O593 2.439 . S
Cd589 O599 2.240 . S
Cd590 O591 2.240 . S
Cd590 O598 2.223 . S
Cd590 O600 2.297 . S
Cd590 O601 2.439 . S
O591 Cd590 2.240 . S
O591 C596 1.279 . S
O592 Cd589 2.297 . S
O592 C594 1.247 . S
O593 Cd589 2.439 . S
O593 C594 1.208 . S
C594 O592 1.247 . S
C594 O593 1.208 . S
C595 O600 1.247 . S
C595 O601 1.208 . S
C596 O588 1.315 . S
C596 O591 1.279 . S
C597 O598 1.315 . S
C597 O599 1.279 . S
O598 Cd590 2.223 . S
O598 C597 1.315 . S
O599 Cd589 2.240 . S
O599 C597 1.279 . S
O600 Cd590 2.297 . S
O600 C595 1.247 . S
O601 Cd590 2.439 . S
O601 C595 1.208 . S
O602 Cd603 2.223 . S
O602 C610 1.315 . S
Cd603 O602 2.223 . S
Cd603 O606 2.297 . S
Cd603 O607 2.439 . S
Cd603 O613 2.240 . S
Cd604 O605 2.240 . S
Cd604 O612 2.223 . S
Cd604 O614 2.297 . S
Cd604 O615 2.439 . S
O605 Cd604 2.240 . S
O605 C610 1.279 . S
O606 Cd603 2.297 . S
O606 C608 1.247 . S
O607 Cd603 2.439 . S
O607 C608 1.208 . S
C608 O606 1.247 . S
C608 O607 1.208 . S
C609 O614 1.247 . S
C609 O615 1.208 . S
C610 O602 1.315 . S
C610 O605 1.279 . S
C611 O612 1.315 . S
C611 O613 1.279 . S
O612 Cd604 2.223 . S
O612 C611 1.315 . S
O613 Cd603 2.240 . S
O613 C611 1.279 . S
O614 Cd604 2.297 . S
O614 C609 1.247 . S
O615 Cd604 2.439 . S
O615 C609 1.208 . S
O616 Cd617 2.223 . S
O616 C624 1.315 . S
Cd617 O616 2.223 . S
Cd617 O620 2.297 . S
Cd617 O621 2.439 . S
Cd617 O627 2.240 . S
Cd618 O619 2.240 . S
Cd618 O626 2.223 . S
Cd618 O628 2.297 . S
Cd618 O629 2.439 . S
O619 Cd618 2.240 . S
O619 C624 1.279 . S
O620 Cd617 2.297 . S
O620 C622 1.247 . S
O621 Cd617 2.439 . S
O621 C622 1.208 . S
C622 O620 1.247 . S
C622 O621 1.208 . S
C623 O628 1.247 . S
C623 O629 1.208 . S
C624 O616 1.315 . S
C624 O619 1.279 . S
C625 O626 1.315 . S
C625 O627 1.279 . S
O626 Cd618 2.223 . S
O626 C625 1.315 . S
O627 Cd617 2.240 . S
O627 C625 1.279 . S
O628 Cd618 2.297 . S
O628 C623 1.247 . S
O629 Cd618 2.439 . S
O629 C623 1.208 . S
O630 Cd631 2.223 . S
O630 C638 1.315 . S
Cd631 O630 2.223 . S
Cd631 O634 2.297 . S
Cd631 O635 2.439 . S
Cd631 O641 2.240 . S
Cd632 O633 2.240 . S
Cd632 O640 2.223 . S
Cd632 O642 2.297 . S
Cd632 O643 2.439 . S
O633 Cd632 2.240 . S
O633 C638 1.279 . S
O634 Cd631 2.297 . S
O634 C636 1.247 . S
O635 Cd631 2.439 . S
O635 C636 1.208 . S
C636 O634 1.247 . S
C636 O635 1.208 . S
C637 O642 1.247 . S
C637 O643 1.208 . S
C638 O630 1.315 . S
C638 O633 1.279 . S
C639 O640 1.315 . S
C639 O641 1.279 . S
O640 Cd632 2.223 . S
O640 C639 1.315 . S
O641 Cd631 2.240 . S
O641 C639 1.279 . S
O642 Cd632 2.297 . S
O642 C637 1.247 . S
O643 Cd632 2.439 . S
O643 C637 1.208 . S
O644 Cd645 2.223 . S
O644 C652 1.315 . S
Cd645 O644 2.223 . S
Cd645 O648 2.297 . S
Cd645 O649 2.439 . S
Cd645 O655 2.240 . S
Cd646 O647 2.240 . S
Cd646 O654 2.223 . S
Cd646 O656 2.297 . S
Cd646 O657 2.439 . S
O647 Cd646 2.240 . S
O647 C652 1.279 . S
O648 Cd645 2.297 . S
O648 C650 1.247 . S
O649 Cd645 2.439 . S
O649 C650 1.208 . S
C650 O648 1.247 . S
C650 O649 1.208 . S
C651 O656 1.247 . S
C651 O657 1.208 . S
C652 O644 1.315 . S
C652 O647 1.279 . S
C653 O654 1.315 . S
C653 O655 1.279 . S
O654 Cd646 2.223 . S
O654 C653 1.315 . S
O655 Cd645 2.240 . S
O655 C653 1.279 . S
O656 Cd646 2.297 . S
O656 C651 1.247 . S
O657 Cd646 2.439 . S
O657 C651 1.208 . S
O658 Cd659 2.223 . S
O658 C666 1.315 . S
Cd659 O658 2.223 . S
Cd659 O662 2.297 . S
Cd659 O663 2.439 . S
Cd659 O669 2.240 . S
Cd660 O661 2.240 . S
Cd660 O668 2.223 . S
Cd660 O670 2.297 . S
Cd660 O671 2.439 . S
O661 Cd660 2.240 . S
O661 C666 1.279 . S
O662 Cd659 2.297 . S
O662 C664 1.247 . S
O663 Cd659 2.439 . S
O663 C664 1.208 . S
C664 O662 1.247 . S
C664 O663 1.208 . S
C665 O670 1.247 . S
C665 O671 1.208 . S
C666 O658 1.315 . S
C666 O661 1.279 . S
C667 O668 1.315 . S
C667 O669 1.279 . S
O668 Cd660 2.223 . S
O668 C667 1.315 . S
O669 Cd659 2.240 . S
O669 C667 1.279 . S
O670 Cd660 2.297 . S
O670 C665 1.247 . S
O671 Cd660 2.439 . S
O671 C665 1.208 . S
O672 Cd673 2.223 . S
O672 C680 1.315 . S
Cd673 O672 2.223 . S
Cd673 O676 2.297 . S
Cd673 O677 2.439 . S
Cd673 O683 2.240 . S
Cd674 O675 2.240 . S
Cd674 O682 2.223 . S
Cd674 O684 2.297 . S
Cd674 O685 2.439 . S
O675 Cd674 2.240 . S
O675 C680 1.279 . S
O676 Cd673 2.297 . S
O676 C678 1.247 . S
O677 Cd673 2.439 . S
O677 C678 1.208 . S
C678 O676 1.247 . S
C678 O677 1.208 . S
C679 O684 1.247 . S
C679 O685 1.208 . S
C680 O672 1.315 . S
C680 O675 1.279 . S
C681 O682 1.315 . S
C681 O683 1.279 . S
O682 Cd674 2.223 . S
O682 C681 1.315 . S
O683 Cd673 2.240 . S
O683 C681 1.279 . S
O684 Cd674 2.297 . S
O684 C679 1.247 . S
O685 Cd674 2.439 . S
O685 C679 1.208 . S
O686 Cd687 2.223 . S
O686 C694 1.315 . S
Cd687 O686 2.223 . S
Cd687 O690 2.297 . S
Cd687 O691 2.439 . S
Cd687 O697 2.240 . S
Cd688 O689 2.240 . S
Cd688 O696 2.223 . S
Cd688 O698 2.297 . S
Cd688 O699 2.439 . S
O689 Cd688 2.240 . S
O689 C694 1.279 . S
O690 Cd687 2.297 . S
O690 C692 1.247 . S
O691 Cd687 2.439 . S
O691 C692 1.208 . S
C692 O690 1.247 . S
C692 O691 1.208 . S
C693 O698 1.247 . S
C693 O699 1.208 . S
C694 O686 1.315 . S
C694 O689 1.279 . S
C695 O696 1.315 . S
C695 O697 1.279 . S
O696 Cd688 2.223 . S
O696 C695 1.315 . S
O697 Cd687 2.240 . S
O697 C695 1.279 . S
O698 Cd688 2.297 . S
O698 C693 1.247 . S
O699 Cd688 2.439 . S
O699 C693 1.208 . S
O700 Cd701 2.223 . S
O700 C708 1.315 . S
Cd701 O700 2.223 . S
Cd701 O704 2.297 . S
Cd701 O705 2.439 . S
Cd701 O711 2.240 1_655 S
Cd702 O703 2.240 . S
Cd702 O710 2.223 1_655 S
Cd702 O712 2.297 1_655 S
Cd702 O713 2.439 1_655 S
O703 Cd702 2.240 . S
O703 C708 1.279 . S
O704 Cd701 2.297 . S
O704 C706 1.247 . S
O705 Cd701 2.439 . S
O705 C706 1.208 . S
C706 O704 1.247 . S
C706 O705 1.208 . S
C707 O712 1.247 . S
C707 O713 1.208 . S
C708 O700 1.315 . S
C708 O703 1.279 . S
C709 O710 1.315 . S
C709 O711 1.279 . S
O710 Cd702 2.223 1_455 S
O710 C709 1.315 . S
O711 Cd701 2.240 1_455 S
O711 C709 1.279 . S
O712 Cd702 2.297 1_455 S
O712 C707 1.247 . S
O713 Cd702 2.439 1_455 S
O713 C707 1.208 . S
O714 Cd715 2.223 . S
O714 C722 1.315 . S
Cd715 O714 2.223 . S
Cd715 O718 2.297 . S
Cd715 O719 2.439 . S
Cd715 O725 2.240 . S
Cd716 O717 2.240 . S
Cd716 O724 2.223 . S
Cd716 O726 2.297 . S
Cd716 O727 2.439 . S
O717 Cd716 2.240 . S
O717 C722 1.279 . S
O718 Cd715 2.297 . S
O718 C720 1.247 . S
O719 Cd715 2.439 . S
O719 C720 1.208 . S
C720 O718 1.247 . S
C720 O719 1.208 . S
C721 O726 1.247 . S
C721 O727 1.208 . S
C722 O714 1.315 . S
C722 O717 1.279 . S
C723 O724 1.315 . S
C723 O725 1.279 . S
O724 Cd716 2.223 . S
O724 C723 1.315 . S
O725 Cd715 2.240 . S
O725 C723 1.279 . S
O726 Cd716 2.297 . S
O726 C721 1.247 . S
O727 Cd716 2.439 . S
O727 C721 1.208 . S
O728 Cd729 2.223 . S
O728 C736 1.315 . S
Cd729 O728 2.223 . S
Cd729 O732 2.297 . S
Cd729 O733 2.439 . S
Cd729 O739 2.240 . S
Cd730 O731 2.240 . S
Cd730 O738 2.223 . S
Cd730 O740 2.297 . S
Cd730 O741 2.439 . S
O731 Cd730 2.240 . S
O731 C736 1.279 . S
O732 Cd729 2.297 . S
O732 C734 1.247 . S
O733 Cd729 2.439 . S
O733 C734 1.208 . S
C734 O732 1.247 . S
C734 O733 1.208 . S
C735 O740 1.247 . S
C735 O741 1.208 . S
C736 O728 1.315 . S
C736 O731 1.279 . S
C737 O738 1.315 . S
C737 O739 1.279 . S
O738 Cd730 2.223 . S
O738 C737 1.315 . S
O739 Cd729 2.240 . S
O739 C737 1.279 . S
O740 Cd730 2.297 . S
O740 C735 1.247 . S
O741 Cd730 2.439 . S
O741 C735 1.208 . S
O742 Cd743 2.223 . S
O742 C750 1.315 . S
Cd743 O742 2.223 . S
Cd743 O746 2.297 . S
Cd743 O747 2.439 . S
Cd743 O753 2.240 . S
Cd744 O745 2.240 . S
Cd744 O752 2.223 . S
Cd744 O754 2.297 . S
Cd744 O755 2.439 . S
O745 Cd744 2.240 . S
O745 C750 1.279 . S
O746 Cd743 2.297 . S
O746 C748 1.247 . S
O747 Cd743 2.439 . S
O747 C748 1.208 . S
C748 O746 1.247 . S
C748 O747 1.208 . S
C749 O754 1.247 . S
C749 O755 1.208 . S
C750 O742 1.315 . S
C750 O745 1.279 . S
C751 O752 1.315 . S
C751 O753 1.279 . S
O752 Cd744 2.223 . S
O752 C751 1.315 . S
O753 Cd743 2.240 . S
O753 C751 1.279 . S
O754 Cd744 2.297 . S
O754 C749 1.247 . S
O755 Cd744 2.439 . S
O755 C749 1.208 . S
O756 Cd757 2.223 . S
O756 C764 1.315 . S
Cd757 O756 2.223 . S
Cd757 O760 2.297 . S
Cd757 O761 2.439 . S
Cd757 O767 2.240 1_655 S
Cd758 O759 2.240 . S
Cd758 O766 2.223 1_655 S
Cd758 O768 2.297 1_655 S
Cd758 O769 2.439 1_655 S
O759 Cd758 2.240 . S
O759 C764 1.279 . S
O760 Cd757 2.297 . S
O760 C762 1.247 . S
O761 Cd757 2.439 . S
O761 C762 1.208 . S
C762 O760 1.247 . S
C762 O761 1.208 . S
C763 O768 1.247 . S
C763 O769 1.208 . S
C764 O756 1.315 . S
C764 O759 1.279 . S
C765 O766 1.315 . S
C765 O767 1.279 . S
O766 Cd758 2.223 1_455 S
O766 C765 1.315 . S
O767 Cd757 2.240 1_455 S
O767 C765 1.279 . S
O768 Cd758 2.297 1_455 S
O768 C763 1.247 . S
O769 Cd758 2.439 1_455 S
O769 C763 1.208 . S
O770 Cd771 2.223 . S
O770 C778 1.315 . S
Cd771 O770 2.223 . S
Cd771 O774 2.297 . S
Cd771 O775 2.439 . S
Cd771 O781 2.240 . S
Cd772 O773 2.240 . S
Cd772 O780 2.223 . S
Cd772 O782 2.297 . S
Cd772 O783 2.439 . S
O773 Cd772 2.240 . S
O773 C778 1.279 . S
O774 Cd771 2.297 . S
O774 C776 1.247 . S
O775 Cd771 2.439 . S
O775 C776 1.208 . S
C776 O774 1.247 . S
C776 O775 1.208 . S
C777 O782 1.247 . S
C777 O783 1.208 . S
C778 O770 1.315 . S
C778 O773 1.279 . S
C779 O780 1.315 . S
C779 O781 1.279 . S
O780 Cd772 2.223 . S
O780 C779 1.315 . S
O781 Cd771 2.240 . S
O781 C779 1.279 . S
O782 Cd772 2.297 . S
O782 C777 1.247 . S
O783 Cd772 2.439 . S
O783 C777 1.208 . S
O784 Cd785 2.223 . S
O784 C792 1.315 . S
Cd785 O784 2.223 . S
Cd785 O788 2.297 . S
Cd785 O789 2.439 . S
Cd785 O795 2.240 . S
Cd786 O787 2.240 . S
Cd786 O794 2.223 . S
Cd786 O796 2.297 . S
Cd786 O797 2.439 . S
O787 Cd786 2.240 . S
O787 C792 1.279 . S
O788 Cd785 2.297 . S
O788 C790 1.247 . S
O789 Cd785 2.439 . S
O789 C790 1.208 . S
C790 O788 1.247 . S
C790 O789 1.208 . S
C791 O796 1.247 . S
C791 O797 1.208 . S
C792 O784 1.315 . S
C792 O787 1.279 . S
C793 O794 1.315 . S
C793 O795 1.279 . S
O794 Cd786 2.223 . S
O794 C793 1.315 . S
O795 Cd785 2.240 . S
O795 C793 1.279 . S
O796 Cd786 2.297 . S
O796 C791 1.247 . S
O797 Cd786 2.439 . S
O797 C791 1.208 . S
O798 Cd799 2.223 . S
O798 C806 1.315 . S
Cd799 O798 2.223 . S
Cd799 O802 2.297 . S
Cd799 O803 2.439 . S
Cd799 O809 2.240 . S
Cd800 O801 2.240 . S
Cd800 O808 2.223 . S
Cd800 O810 2.297 . S
Cd800 O811 2.439 . S
O801 Cd800 2.240 . S
O801 C806 1.279 . S
O802 Cd799 2.297 . S
O802 C804 1.247 . S
O803 Cd799 2.439 . S
O803 C804 1.208 . S
C804 O802 1.247 . S
C804 O803 1.208 . S
C805 O810 1.247 . S
C805 O811 1.208 . S
C806 O798 1.315 . S
C806 O801 1.279 . S
C807 O808 1.315 . S
C807 O809 1.279 . S
O808 Cd800 2.223 . S
O808 C807 1.315 . S
O809 Cd799 2.240 . S
O809 C807 1.279 . S
O810 Cd800 2.297 . S
O810 C805 1.247 . S
O811 Cd800 2.439 . S
O811 C805 1.208 . S
O812 Cd813 2.223 . S
O812 C820 1.315 . S
Cd813 O812 2.223 . S
Cd813 O816 2.297 . S
Cd813 O817 2.439 . S
Cd813 O823 2.240 . S
Cd814 O815 2.240 . S
Cd814 O822 2.223 . S
Cd814 O824 2.297 . S
Cd814 O825 2.439 . S
O815 Cd814 2.240 . S
O815 C820 1.279 . S
O816 Cd813 2.297 . S
O816 C818 1.247 . S
O817 Cd813 2.439 . S
O817 C818 1.208 . S
C818 O816 1.247 . S
C818 O817 1.208 . S
C819 O824 1.247 . S
C819 O825 1.208 . S
C820 O812 1.315 . S
C820 O815 1.279 . S
C821 O822 1.315 . S
C821 O823 1.279 . S
O822 Cd814 2.223 . S
O822 C821 1.315 . S
O823 Cd813 2.240 . S
O823 C821 1.279 . S
O824 Cd814 2.297 . S
O824 C819 1.247 . S
O825 Cd814 2.439 . S
O825 C819 1.208 . S
O826 Cd827 2.223 . S
O826 C834 1.315 . S
Cd827 O826 2.223 . S
Cd827 O830 2.297 . S
Cd827 O831 2.439 . S
Cd827 O837 2.240 . S
Cd828 O829 2.240 . S
Cd828 O836 2.223 . S
Cd828 O838 2.297 . S
Cd828 O839 2.439 . S
O829 Cd828 2.240 . S
O829 C834 1.279 . S
O830 Cd827 2.297 . S
O830 C832 1.247 . S
O831 Cd827 2.439 . S
O831 C832 1.208 . S
C832 O830 1.247 . S
C832 O831 1.208 . S
C833 O838 1.247 . S
C833 O839 1.208 . S
C834 O826 1.315 . S
C834 O829 1.279 . S
C835 O836 1.315 . S
C835 O837 1.279 . S
O836 Cd828 2.223 . S
O836 C835 1.315 . S
O837 Cd827 2.240 . S
O837 C835 1.279 . S
O838 Cd828 2.297 . S
O838 C833 1.247 . S
O839 Cd828 2.439 . S
O839 C833 1.208 . S
O840 Cd841 2.223 . S
O840 C848 1.315 . S
Cd841 O840 2.223 . S
Cd841 O844 2.297 . S
Cd841 O845 2.439 . S
Cd841 O851 2.240 . S
Cd842 O843 2.240 . S
Cd842 O850 2.223 . S
Cd842 O852 2.297 . S
Cd842 O853 2.439 . S
O843 Cd842 2.240 . S
O843 C848 1.279 . S
O844 Cd841 2.297 . S
O844 C846 1.247 . S
O845 Cd841 2.439 . S
O845 C846 1.208 . S
C846 O844 1.247 . S
C846 O845 1.208 . S
C847 O852 1.247 . S
C847 O853 1.208 . S
C848 O840 1.315 . S
C848 O843 1.279 . S
C849 O850 1.315 . S
C849 O851 1.279 . S
O850 Cd842 2.223 . S
O850 C849 1.315 . S
O851 Cd841 2.240 . S
O851 C849 1.279 . S
O852 Cd842 2.297 . S
O852 C847 1.247 . S
O853 Cd842 2.439 . S
O853 C847 1.208 . S
O854 Cd855 2.223 . S
O854 C862 1.315 . S
Cd855 O854 2.223 . S
Cd855 O858 2.297 . S
Cd855 O859 2.439 . S
Cd855 O865 2.240 . S
Cd856 O857 2.240 . S
Cd856 O864 2.223 . S
Cd856 O866 2.297 . S
Cd856 O867 2.439 . S
O857 Cd856 2.240 . S
O857 C862 1.279 . S
O858 Cd855 2.297 . S
O858 C860 1.247 . S
O859 Cd855 2.439 . S
O859 C860 1.208 . S
C860 O858 1.247 . S
C860 O859 1.208 . S
C861 O866 1.247 . S
C861 O867 1.208 . S
C862 O854 1.315 . S
C862 O857 1.279 . S
C863 O864 1.315 . S
C863 O865 1.279 . S
O864 Cd856 2.223 . S
O864 C863 1.315 . S
O865 Cd855 2.240 . S
O865 C863 1.279 . S
O866 Cd856 2.297 . S
O866 C861 1.247 . S
O867 Cd856 2.439 . S
O867 C861 1.208 . S
O868 Cd869 2.223 . S
O868 C876 1.315 . S
Cd869 O868 2.223 . S
Cd869 O872 2.297 . S
Cd869 O873 2.439 . S
Cd869 O879 2.240 . S
Cd870 O871 2.240 . S
Cd870 O878 2.223 . S
Cd870 O880 2.297 . S
Cd870 O881 2.439 . S
O871 Cd870 2.240 . S
O871 C876 1.279 . S
O872 Cd869 2.297 . S
O872 C874 1.247 . S
O873 Cd869 2.439 . S
O873 C874 1.208 . S
C874 O872 1.247 . S
C874 O873 1.208 . S
C875 O880 1.247 . S
C875 O881 1.208 . S
C876 O868 1.315 . S
C876 O871 1.279 . S
C877 O878 1.315 . S
C877 O879 1.279 . S
O878 Cd870 2.223 . S
O878 C877 1.315 . S
O879 Cd869 2.240 . S
O879 C877 1.279 . S
O880 Cd870 2.297 . S
O880 C875 1.247 . S
O881 Cd870 2.439 . S
O881 C875 1.208 . S
O882 Cd883 2.223 . S
O882 C890 1.315 . S
Cd883 O882 2.223 . S
Cd883 O886 2.297 . S
Cd883 O887 2.439 . S
Cd883 O893 2.240 . S
Cd884 O885 2.240 . S
Cd884 O892 2.223 . S
Cd884 O894 2.297 . S
Cd884 O895 2.439 . S
O885 Cd884 2.240 . S
O885 C890 1.279 . S
O886 Cd883 2.297 . S
O886 C888 1.247 . S
O887 Cd883 2.439 . S
O887 C888 1.208 . S
C888 O886 1.247 . S
C888 O887 1.208 . S
C889 O894 1.247 . S
C889 O895 1.208 . S
C890 O882 1.315 . S
C890 O885 1.279 . S
C891 O892 1.315 . S
C891 O893 1.279 . S
O892 Cd884 2.223 . S
O892 C891 1.315 . S
O893 Cd883 2.240 . S
O893 C891 1.279 . S
O894 Cd884 2.297 . S
O894 C889 1.247 . S
O895 Cd884 2.439 . S
O895 C889 1.208 . S
O896 Cd897 2.223 . S
O896 C904 1.315 . S
Cd897 O896 2.223 . S
Cd897 O900 2.297 . S
Cd897 O901 2.439 . S
Cd897 O907 2.240 . S
Cd898 O899 2.240 . S
Cd898 O906 2.223 . S
Cd898 O908 2.297 . S
Cd898 O909 2.439 . S
O899 Cd898 2.240 . S
O899 C904 1.279 . S
O900 Cd897 2.297 . S
O900 C902 1.247 . S
O901 Cd897 2.439 . S
O901 C902 1.208 . S
C902 O900 1.247 . S
C902 O901 1.208 . S
C903 O908 1.247 . S
C903 O909 1.208 . S
C904 O896 1.315 . S
C904 O899 1.279 . S
C905 O906 1.315 . S
C905 O907 1.279 . S
O906 Cd898 2.223 . S
O906 C905 1.315 . S
O907 Cd897 2.240 . S
O907 C905 1.279 . S
O908 Cd898 2.297 . S
O908 C903 1.247 . S
O909 Cd898 2.439 . S
O909 C903 1.208 . S
O910 Cd911 2.223 . S
O910 C918 1.315 . S
Cd911 O910 2.223 . S
Cd911 O914 2.297 . S
Cd911 O915 2.439 . S
Cd911 O921 2.240 . S
Cd912 O913 2.240 . S
Cd912 O920 2.223 . S
Cd912 O922 2.297 . S
Cd912 O923 2.439 . S
O913 Cd912 2.240 . S
O913 C918 1.279 . S
O914 Cd911 2.297 . S
O914 C916 1.247 . S
O915 Cd911 2.439 . S
O915 C916 1.208 . S
C916 O914 1.247 . S
C916 O915 1.208 . S
C917 O922 1.247 . S
C917 O923 1.208 . S
C918 O910 1.315 . S
C918 O913 1.279 . S
C919 O920 1.315 . S
C919 O921 1.279 . S
O920 Cd912 2.223 . S
O920 C919 1.315 . S
O921 Cd911 2.240 . S
O921 C919 1.279 . S
O922 Cd912 2.297 . S
O922 C917 1.247 . S
O923 Cd912 2.439 . S
O923 C917 1.208 . S
O924 Cd925 2.223 . S
O924 C932 1.315 . S
Cd925 O924 2.223 . S
Cd925 O928 2.297 . S
Cd925 O929 2.439 . S
Cd925 O935 2.240 . S
Cd926 O927 2.240 . S
Cd926 O934 2.223 . S
Cd926 O936 2.297 . S
Cd926 O937 2.439 . S
O927 Cd926 2.240 . S
O927 C932 1.279 . S
O928 Cd925 2.297 . S
O928 C930 1.247 . S
O929 Cd925 2.439 . S
O929 C930 1.208 . S
C930 O928 1.247 . S
C930 O929 1.208 . S
C931 O936 1.247 . S
C931 O937 1.208 . S
C932 O924 1.315 . S
C932 O927 1.279 . S
C933 O934 1.315 . S
C933 O935 1.279 . S
O934 Cd926 2.223 . S
O934 C933 1.315 . S
O935 Cd925 2.240 . S
O935 C933 1.279 . S
O936 Cd926 2.297 . S
O936 C931 1.247 . S
O937 Cd926 2.439 . S
O937 C931 1.208 . S
O938 Cd939 2.223 . S
O938 C946 1.315 . S
Cd939 O938 2.223 . S
Cd939 O942 2.297 . S
Cd939 O943 2.439 . S
Cd939 O949 2.240 1_556 S
Cd940 O941 2.240 . S
Cd940 O948 2.223 1_556 S
Cd940 O950 2.297 1_556 S
Cd940 O951 2.439 1_556 S
O941 Cd940 2.240 . S
O941 C946 1.279 . S
O942 Cd939 2.297 . S
O942 C944 1.247 . S
O943 Cd939 2.439 . S
O943 C944 1.208 . S
C944 O942 1.247 . S
C944 O943 1.208 . S
C945 O950 1.247 . S
C945 O951 1.208 . S
C946 O938 1.315 . S
C946 O941 1.279 . S
C947 O948 1.315 . S
C947 O949 1.279 . S
O948 Cd940 2.223 1_554 S
O948 C947 1.315 . S
O949 Cd939 2.240 1_554 S
O949 C947 1.279 . S
O950 Cd940 2.297 1_554 S
O950 C945 1.247 . S
O951 Cd940 2.439 1_554 S
O951 C945 1.208 . S
O952 Cd953 2.223 . S
O952 C960 1.315 . S
Cd953 O952 2.223 . S
Cd953 O956 2.297 . S
Cd953 O957 2.439 . S
Cd953 O963 2.240 . S
Cd954 O955 2.240 . S
Cd954 O962 2.223 . S
Cd954 O964 2.297 . S
Cd954 O965 2.439 . S
O955 Cd954 2.240 . S
O955 C960 1.279 . S
O956 Cd953 2.297 . S
O956 C958 1.247 . S
O957 Cd953 2.439 . S
O957 C958 1.208 . S
C958 O956 1.247 . S
C958 O957 1.208 . S
C959 O964 1.247 . S
C959 O965 1.208 . S
C960 O952 1.315 . S
C960 O955 1.279 . S
C961 O962 1.315 . S
C961 O963 1.279 . S
O962 Cd954 2.223 . S
O962 C961 1.315 . S
O963 Cd953 2.240 . S
O963 C961 1.279 . S
O964 Cd954 2.297 . S
O964 C959 1.247 . S
O965 Cd954 2.439 . S
O965 C959 1.208 . S
O966 Cd967 2.223 . S
O966 C974 1.315 . S
Cd967 O966 2.223 . S
Cd967 O970 2.297 . S
Cd967 O971 2.439 . S
Cd967 O977 2.240 1_554 S
Cd968 O969 2.240 . S
Cd968 O976 2.223 1_554 S
Cd968 O978 2.297 1_554 S
Cd968 O979 2.439 1_554 S
O969 Cd968 2.240 . S
O969 C974 1.279 . S
O970 Cd967 2.297 . S
O970 C972 1.247 . S
O971 Cd967 2.439 . S
O971 C972 1.208 . S
C972 O970 1.247 . S
C972 O971 1.208 . S
C973 O978 1.247 . S
C973 O979 1.208 . S
C974 O966 1.315 . S
C974 O969 1.279 . S
C975 O976 1.315 . S
C975 O977 1.279 . S
O976 Cd968 2.223 1_556 S
O976 C975 1.315 . S
O977 Cd967 2.240 1_556 S
O977 C975 1.279 . S
O978 Cd968 2.297 1_556 S
O978 C973 1.247 . S
O979 Cd968 2.439 1_556 S
O979 C973 1.208 . S
O980 Cd981 2.223 . S
O980 C988 1.315 . S
Cd981 O980 2.223 . S
Cd981 O984 2.297 . S
Cd981 O985 2.439 . S
Cd981 O991 2.240 . S
Cd982 O983 2.240 . S
Cd982 O990 2.223 . S
Cd982 O992 2.297 . S
Cd982 O993 2.439 . S
O983 Cd982 2.240 . S
O983 C988 1.279 . S
O984 Cd981 2.297 . S
O984 C986 1.247 . S
O985 Cd981 2.439 . S
O985 C986 1.208 . S
C986 O984 1.247 . S
C986 O985 1.208 . S
C987 O992 1.247 . S
C987 O993 1.208 . S
C988 O980 1.315 . S
C988 O983 1.279 . S
C989 O990 1.315 . S
C989 O991 1.279 . S
O990 Cd982 2.223 . S
O990 C989 1.315 . S
O991 Cd981 2.240 . S
O991 C989 1.279 . S
O992 Cd982 2.297 . S
O992 C987 1.247 . S
O993 Cd982 2.439 . S
O993 C987 1.208 . S
O994 Cd995 2.223 . S
O994 C1002 1.315 . S
Cd995 O994 2.223 . S
Cd995 O998 2.297 . S
Cd995 O999 2.439 . S
Cd995 O1005 2.240 . S
Cd996 O997 2.240 . S
Cd996 O1004 2.223 . S
Cd996 O1006 2.297 . S
Cd996 O1007 2.439 . S
O997 Cd996 2.240 . S
O997 C1002 1.279 . S
O998 Cd995 2.297 . S
O998 C1000 1.247 . S
O999 Cd995 2.439 . S
O999 C1000 1.208 . S
C1000 O998 1.247 . S
C1000 O999 1.208 . S
C1001 O1006 1.247 . S
C1001 O1007 1.208 . S
C1002 O994 1.315 . S
C1002 O997 1.279 . S
C1003 O1004 1.315 . S
C1003 O1005 1.279 . S
O1004 Cd996 2.223 . S
O1004 C1003 1.315 . S
O1005 Cd995 2.240 . S
O1005 C1003 1.279 . S
O1006 Cd996 2.297 . S
O1006 C1001 1.247 . S
O1007 Cd996 2.439 . S
O1007 C1001 1.208 . S
O1008 Cd1009 2.223 . S
O1008 C1016 1.315 . S
Cd1009 O1008 2.223 . S
Cd1009 O1012 2.297 . S
Cd1009 O1013 2.439 . S
Cd1009 O1019 2.240 . S
Cd1010 O1011 2.240 . S
Cd1010 O1018 2.223 . S
Cd1010 O1020 2.297 . S
Cd1010 O1021 2.439 . S
O1011 Cd1010 2.240 . S
O1011 C1016 1.279 . S
O1012 Cd1009 2.297 . S
O1012 C1014 1.247 . S
O1013 Cd1009 2.439 . S
O1013 C1014 1.208 . S
C1014 O1012 1.247 . S
C1014 O1013 1.208 . S
C1015 O1020 1.247 . S
C1015 O1021 1.208 . S
C1016 O1008 1.315 . S
C1016 O1011 1.279 . S
C1017 O1018 1.315 . S
C1017 O1019 1.279 . S
O1018 Cd1010 2.223 . S
O1018 C1017 1.315 . S
O1019 Cd1009 2.240 . S
O1019 C1017 1.279 . S
O1020 Cd1010 2.297 . S
O1020 C1015 1.247 . S
O1021 Cd1010 2.439 . S
O1021 C1015 1.208 . S
O1022 Cd1023 2.223 . S
O1022 C1030 1.315 . S
Cd1023 O1022 2.223 . S
Cd1023 O1026 2.297 . S
Cd1023 O1027 2.439 . S
Cd1023 O1033 2.240 . S
Cd1024 O1025 2.240 . S
Cd1024 O1032 2.223 . S
Cd1024 O1034 2.297 . S
Cd1024 O1035 2.439 . S
O1025 Cd1024 2.240 . S
O1025 C1030 1.279 . S
O1026 Cd1023 2.297 . S
O1026 C1028 1.247 . S
O1027 Cd1023 2.439 . S
O1027 C1028 1.208 . S
C1028 O1026 1.247 . S
C1028 O1027 1.208 . S
C1029 O1034 1.247 . S
C1029 O1035 1.208 . S
C1030 O1022 1.315 . S
C1030 O1025 1.279 . S
C1031 O1032 1.315 . S
C1031 O1033 1.279 . S
O1032 Cd1024 2.223 . S
O1032 C1031 1.315 . S
O1033 Cd1023 2.240 . S
O1033 C1031 1.279 . S
O1034 Cd1024 2.297 . S
O1034 C1029 1.247 . S
O1035 Cd1024 2.439 . S
O1035 C1029 1.208 . S
O1036 Cd1037 2.223 . S
O1036 C1044 1.315 . S
Cd1037 O1036 2.223 . S
Cd1037 O1040 2.297 . S
Cd1037 O1041 2.439 . S
Cd1037 O1047 2.240 1_455 S
Cd1038 O1039 2.240 . S
Cd1038 O1046 2.223 1_455 S
Cd1038 O1048 2.297 1_455 S
Cd1038 O1049 2.439 1_455 S
O1039 Cd1038 2.240 . S
O1039 C1044 1.279 . S
O1040 Cd1037 2.297 . S
O1040 C1042 1.247 . S
O1041 Cd1037 2.439 . S
O1041 C1042 1.208 . S
C1042 O1040 1.247 . S
C1042 O1041 1.208 . S
C1043 O1048 1.247 . S
C1043 O1049 1.208 . S
C1044 O1036 1.315 . S
C1044 O1039 1.279 . S
C1045 O1046 1.315 . S
C1045 O1047 1.279 . S
O1046 Cd1038 2.223 1_655 S
O1046 C1045 1.315 . S
O1047 Cd1037 2.240 1_655 S
O1047 C1045 1.279 . S
O1048 Cd1038 2.297 1_655 S
O1048 C1043 1.247 . S
O1049 Cd1038 2.439 1_655 S
O1049 C1043 1.208 . S
O1050 Cd1051 2.223 . S
O1050 C1058 1.315 . S
Cd1051 O1050 2.223 . S
Cd1051 O1054 2.297 . S
Cd1051 O1055 2.439 . S
Cd1051 O1061 2.240 . S
Cd1052 O1053 2.240 . S
Cd1052 O1060 2.223 . S
Cd1052 O1062 2.297 . S
Cd1052 O1063 2.439 . S
O1053 Cd1052 2.240 . S
O1053 C1058 1.279 . S
O1054 Cd1051 2.297 . S
O1054 C1056 1.247 . S
O1055 Cd1051 2.439 . S
O1055 C1056 1.208 . S
C1056 O1054 1.247 . S
C1056 O1055 1.208 . S
C1057 O1062 1.247 . S
C1057 O1063 1.208 . S
C1058 O1050 1.315 . S
C1058 O1053 1.279 . S
C1059 O1060 1.315 . S
C1059 O1061 1.279 . S
O1060 Cd1052 2.223 . S
O1060 C1059 1.315 . S
O1061 Cd1051 2.240 . S
O1061 C1059 1.279 . S
O1062 Cd1052 2.297 . S
O1062 C1057 1.247 . S
O1063 Cd1052 2.439 . S
O1063 C1057 1.208 . S
O1064 Cd1065 2.223 . S
O1064 C1072 1.315 . S
Cd1065 O1064 2.223 . S
Cd1065 O1068 2.297 . S
Cd1065 O1069 2.439 . S
Cd1065 O1075 2.240 . S
Cd1066 O1067 2.240 . S
Cd1066 O1074 2.223 . S
Cd1066 O1076 2.297 . S
Cd1066 O1077 2.439 . S
O1067 Cd1066 2.240 . S
O1067 C1072 1.279 . S
O1068 Cd1065 2.297 . S
O1068 C1070 1.247 . S
O1069 Cd1065 2.439 . S
O1069 C1070 1.208 . S
C1070 O1068 1.247 . S
C1070 O1069 1.208 . S
C1071 O1076 1.247 . S
C1071 O1077 1.208 . S
C1072 O1064 1.315 . S
C1072 O1067 1.279 . S
C1073 O1074 1.315 . S
C1073 O1075 1.279 . S
O1074 Cd1066 2.223 . S
O1074 C1073 1.315 . S
O1075 Cd1065 2.240 . S
O1075 C1073 1.279 . S
O1076 Cd1066 2.297 . S
O1076 C1071 1.247 . S
O1077 Cd1066 2.439 . S
O1077 C1071 1.208 . S
O1078 Cd1079 2.223 . S
O1078 C1086 1.315 . S
Cd1079 O1078 2.223 . S
Cd1079 O1082 2.297 . S
Cd1079 O1083 2.439 . S
Cd1079 O1089 2.240 . S
Cd1080 O1081 2.240 . S
Cd1080 O1088 2.223 . S
Cd1080 O1090 2.297 . S
Cd1080 O1091 2.439 . S
O1081 Cd1080 2.240 . S
O1081 C1086 1.279 . S
O1082 Cd1079 2.297 . S
O1082 C1084 1.247 . S
O1083 Cd1079 2.439 . S
O1083 C1084 1.208 . S
C1084 O1082 1.247 . S
C1084 O1083 1.208 . S
C1085 O1090 1.247 . S
C1085 O1091 1.208 . S
C1086 O1078 1.315 . S
C1086 O1081 1.279 . S
C1087 O1088 1.315 . S
C1087 O1089 1.279 . S
O1088 Cd1080 2.223 . S
O1088 C1087 1.315 . S
O1089 Cd1079 2.240 . S
O1089 C1087 1.279 . S
O1090 Cd1080 2.297 . S
O1090 C1085 1.247 . S
O1091 Cd1080 2.439 . S
O1091 C1085 1.208 . S
O1092 Cd1093 2.223 . S
O1092 C1100 1.315 . S
Cd1093 O1092 2.223 . S
Cd1093 O1096 2.297 . S
Cd1093 O1097 2.439 . S
Cd1093 O1103 2.240 1_455 S
Cd1094 O1095 2.240 . S
Cd1094 O1102 2.223 1_455 S
Cd1094 O1104 2.297 1_455 S
Cd1094 O1105 2.439 1_455 S
O1095 Cd1094 2.240 . S
O1095 C1100 1.279 . S
O1096 Cd1093 2.297 . S
O1096 C1098 1.247 . S
O1097 Cd1093 2.439 . S
O1097 C1098 1.208 . S
C1098 O1096 1.247 . S
C1098 O1097 1.208 . S
C1099 O1104 1.247 . S
C1099 O1105 1.208 . S
C1100 O1092 1.315 . S
C1100 O1095 1.279 . S
C1101 O1102 1.315 . S
C1101 O1103 1.279 . S
O1102 Cd1094 2.223 1_655 S
O1102 C1101 1.315 . S
O1103 Cd1093 2.240 1_655 S
O1103 C1101 1.279 . S
O1104 Cd1094 2.297 1_655 S
O1104 C1099 1.247 . S
O1105 Cd1094 2.439 1_655 S
O1105 C1099 1.208 . S
O1106 Cd1107 2.223 . S
O1106 C1114 1.315 . S
Cd1107 O1106 2.223 . S
Cd1107 O1110 2.297 . S
Cd1107 O1111 2.439 . S
Cd1107 O1117 2.240 . S
Cd1108 O1109 2.240 . S
Cd1108 O1116 2.223 . S
Cd1108 O1118 2.297 . S
Cd1108 O1119 2.439 . S
O1109 Cd1108 2.240 . S
O1109 C1114 1.279 . S
O1110 Cd1107 2.297 . S
O1110 C1112 1.247 . S
O1111 Cd1107 2.439 . S
O1111 C1112 1.208 . S
C1112 O1110 1.247 . S
C1112 O1111 1.208 . S
C1113 O1118 1.247 . S
C1113 O1119 1.208 . S
C1114 O1106 1.315 . S
C1114 O1109 1.279 . S
C1115 O1116 1.315 . S
C1115 O1117 1.279 . S
O1116 Cd1108 2.223 . S
O1116 C1115 1.315 . S
O1117 Cd1107 2.240 . S
O1117 C1115 1.279 . S
O1118 Cd1108 2.297 . S
O1118 C1113 1.247 . S
O1119 Cd1108 2.439 . S
O1119 C1113 1.208 . S
O1120 Cd1121 2.223 . S
O1120 C1128 1.315 . S
Cd1121 O1120 2.223 . S
Cd1121 O1124 2.297 . S
Cd1121 O1125 2.439 . S
Cd1121 O1131 2.240 . S
Cd1122 O1123 2.240 . S
Cd1122 O1130 2.223 . S
Cd1122 O1132 2.297 . S
Cd1122 O1133 2.439 . S
O1123 Cd1122 2.240 . S
O1123 C1128 1.279 . S
O1124 Cd1121 2.297 . S
O1124 C1126 1.247 . S
O1125 Cd1121 2.439 . S
O1125 C1126 1.208 . S
C1126 O1124 1.247 . S
C1126 O1125 1.208 . S
C1127 O1132 1.247 . S
C1127 O1133 1.208 . S
C1128 O1120 1.315 . S
C1128 O1123 1.279 . S
C1129 O1130 1.315 . S
C1129 O1131 1.279 . S
O1130 Cd1122 2.223 . S
O1130 C1129 1.315 . S
O1131 Cd1121 2.240 . S
O1131 C1129 1.279 . S
O1132 Cd1122 2.297 . S
O1132 C1127 1.247 . S
O1133 Cd1122 2.439 . S
O1133 C1127 1.208 . S
O1134 Cd1135 2.223 . S
O1134 C1142 1.315 . S
Cd1135 O1134 2.223 . S
Cd1135 O1138 2.297 . S
Cd1135 O1139 2.439 . S
Cd1135 O1145 2.240 . S
Cd1136 O1137 2.240 . S
Cd1136 O1144 2.223 . S
Cd1136 O1146 2.297 . S
Cd1136 O1147 2.439 . S
O1137 Cd1136 2.240 . S
O1137 C1142 1.279 . S
O1138 Cd1135 2.297 . S
O1138 C1140 1.247 . S
O1139 Cd1135 2.439 . S
O1139 C1140 1.208 . S
C1140 O1138 1.247 . S
C1140 O1139 1.208 . S
C1141 O1146 1.247 . S
C1141 O1147 1.208 . S
C1142 O1134 1.315 . S
C1142 O1137 1.279 . S
C1143 O1144 1.315 . S
C1143 O1145 1.279 . S
O1144 Cd1136 2.223 . S
O1144 C1143 1.315 . S
O1145 Cd1135 2.240 . S
O1145 C1143 1.279 . S
O1146 Cd1136 2.297 . S
O1146 C1141 1.247 . S
O1147 Cd1136 2.439 . S
O1147 C1141 1.208 . S
O1148 Cd1149 2.223 . S
O1148 C1156 1.315 . S
Cd1149 O1148 2.223 . S
Cd1149 O1152 2.297 . S
Cd1149 O1153 2.439 . S
Cd1149 O1159 2.240 . S
Cd1150 O1151 2.240 . S
Cd1150 O1158 2.223 . S
Cd1150 O1160 2.297 . S
Cd1150 O1161 2.439 . S
O1151 Cd1150 2.240 . S
O1151 C1156 1.279 . S
O1152 Cd1149 2.297 . S
O1152 C1154 1.247 . S
O1153 Cd1149 2.439 . S
O1153 C1154 1.208 . S
C1154 O1152 1.247 . S
C1154 O1153 1.208 . S
C1155 O1160 1.247 . S
C1155 O1161 1.208 . S
C1156 O1148 1.315 . S
C1156 O1151 1.279 . S
C1157 O1158 1.315 . S
C1157 O1159 1.279 . S
O1158 Cd1150 2.223 . S
O1158 C1157 1.315 . S
O1159 Cd1149 2.240 . S
O1159 C1157 1.279 . S
O1160 Cd1150 2.297 . S
O1160 C1155 1.247 . S
O1161 Cd1150 2.439 . S
O1161 C1155 1.208 . S
O1162 Cd1163 2.223 . S
O1162 C1170 1.315 . S
Cd1163 O1162 2.223 . S
Cd1163 O1166 2.297 . S
Cd1163 O1167 2.439 . S
Cd1163 O1173 2.240 . S
Cd1164 O1165 2.240 . S
Cd1164 O1172 2.223 . S
Cd1164 O1174 2.297 . S
Cd1164 O1175 2.439 . S
O1165 Cd1164 2.240 . S
O1165 C1170 1.279 . S
O1166 Cd1163 2.297 . S
O1166 C1168 1.247 . S
O1167 Cd1163 2.439 . S
O1167 C1168 1.208 . S
C1168 O1166 1.247 . S
C1168 O1167 1.208 . S
C1169 O1174 1.247 . S
C1169 O1175 1.208 . S
C1170 O1162 1.315 . S
C1170 O1165 1.279 . S
C1171 O1172 1.315 . S
C1171 O1173 1.279 . S
O1172 Cd1164 2.223 . S
O1172 C1171 1.315 . S
O1173 Cd1163 2.240 . S
O1173 C1171 1.279 . S
O1174 Cd1164 2.297 . S
O1174 C1169 1.247 . S
O1175 Cd1164 2.439 . S
O1175 C1169 1.208 . S
O1176 Cd1177 2.223 . S
O1176 C1184 1.315 . S
Cd1177 O1176 2.223 . S
Cd1177 O1180 2.297 . S
Cd1177 O1181 2.439 . S
Cd1177 O1187 2.240 . S
Cd1178 O1179 2.240 . S
Cd1178 O1186 2.223 . S
Cd1178 O1188 2.297 . S
Cd1178 O1189 2.439 . S
O1179 Cd1178 2.240 . S
O1179 C1184 1.279 . S
O1180 Cd1177 2.297 . S
O1180 C1182 1.247 . S
O1181 Cd1177 2.439 . S
O1181 C1182 1.208 . S
C1182 O1180 1.247 . S
C1182 O1181 1.208 . S
C1183 O1188 1.247 . S
C1183 O1189 1.208 . S
C1184 O1176 1.315 . S
C1184 O1179 1.279 . S
C1185 O1186 1.315 . S
C1185 O1187 1.279 . S
O1186 Cd1178 2.223 . S
O1186 C1185 1.315 . S
O1187 Cd1177 2.240 . S
O1187 C1185 1.279 . S
O1188 Cd1178 2.297 . S
O1188 C1183 1.247 . S
O1189 Cd1178 2.439 . S
O1189 C1183 1.208 . S
O1190 Cd1191 2.223 . S
O1190 C1198 1.315 . S
Cd1191 O1190 2.223 . S
Cd1191 O1194 2.297 . S
Cd1191 O1195 2.439 . S
Cd1191 O1201 2.240 . S
Cd1192 O1193 2.240 . S
Cd1192 O1200 2.223 . S
Cd1192 O1202 2.297 . S
Cd1192 O1203 2.439 . S
O1193 Cd1192 2.240 . S
O1193 C1198 1.279 . S
O1194 Cd1191 2.297 . S
O1194 C1196 1.247 . S
O1195 Cd1191 2.439 . S
O1195 C1196 1.208 . S
C1196 O1194 1.247 . S
C1196 O1195 1.208 . S
C1197 O1202 1.247 . S
C1197 O1203 1.208 . S
C1198 O1190 1.315 . S
C1198 O1193 1.279 . S
C1199 O1200 1.315 . S
C1199 O1201 1.279 . S
O1200 Cd1192 2.223 . S
O1200 C1199 1.315 . S
O1201 Cd1191 2.240 . S
O1201 C1199 1.279 . S
O1202 Cd1192 2.297 . S
O1202 C1197 1.247 . S
O1203 Cd1192 2.439 . S
O1203 C1197 1.208 . S
O1204 Cd1205 2.223 . S
O1204 C1212 1.315 . S
Cd1205 O1204 2.223 . S
Cd1205 O1208 2.297 . S
Cd1205 O1209 2.439 . S
Cd1205 O1215 2.240 . S
Cd1206 O1207 2.240 . S
Cd1206 O1214 2.223 . S
Cd1206 O1216 2.297 . S
Cd1206 O1217 2.439 . S
O1207 Cd1206 2.240 . S
O1207 C1212 1.279 . S
O1208 Cd1205 2.297 . S
O1208 C1210 1.247 . S
O1209 Cd1205 2.439 . S
O1209 C1210 1.208 . S
C1210 O1208 1.247 . S
C1210 O1209 1.208 . S
C1211 O1216 1.247 . S
C1211 O1217 1.208 . S
C1212 O1204 1.315 . S
C1212 O1207 1.279 . S
C1213 O1214 1.315 . S
C1213 O1215 1.279 . S
O1214 Cd1206 2.223 . S
O1214 C1213 1.315 . S
O1215 Cd1205 2.240 . S
O1215 C1213 1.279 . S
O1216 Cd1206 2.297 . S
O1216 C1211 1.247 . S
O1217 Cd1206 2.439 . S
O1217 C1211 1.208 . S
O1218 Cd1219 2.223 . S
O1218 C1226 1.315 . S
Cd1219 O1218 2.223 . S
Cd1219 O1222 2.297 . S
Cd1219 O1223 2.439 . S
Cd1219 O1229 2.240 . S
Cd1220 O1221 2.240 . S
Cd1220 O1228 2.223 . S
Cd1220 O1230 2.297 . S
Cd1220 O1231 2.439 . S
O1221 Cd1220 2.240 . S
O1221 C1226 1.279 . S
O1222 Cd1219 2.297 . S
O1222 C1224 1.247 . S
O1223 Cd1219 2.439 . S
O1223 C1224 1.208 . S
C1224 O1222 1.247 . S
C1224 O1223 1.208 . S
C1225 O1230 1.247 . S
C1225 O1231 1.208 . S
C1226 O1218 1.315 . S
C1226 O1221 1.279 . S
C1227 O1228 1.315 . S
C1227 O1229 1.279 . S
O1228 Cd1220 2.223 . S
O1228 C1227 1.315 . S
O1229 Cd1219 2.240 . S
O1229 C1227 1.279 . S
O1230 Cd1220 2.297 . S
O1230 C1225 1.247 . S
O1231 Cd1220 2.439 . S
O1231 C1225 1.208 . S
O1232 Cd1233 2.223 . S
O1232 C1240 1.315 . S
Cd1233 O1232 2.223 . S
Cd1233 O1236 2.297 . S
Cd1233 O1237 2.439 . S
Cd1233 O1243 2.240 . S
Cd1234 O1235 2.240 . S
Cd1234 O1242 2.223 . S
Cd1234 O1244 2.297 . S
Cd1234 O1245 2.439 . S
O1235 Cd1234 2.240 . S
O1235 C1240 1.279 . S
O1236 Cd1233 2.297 . S
O1236 C1238 1.247 . S
O1237 Cd1233 2.439 . S
O1237 C1238 1.208 . S
C1238 O1236 1.247 . S
C1238 O1237 1.208 . S
C1239 O1244 1.247 . S
C1239 O1245 1.208 . S
C1240 O1232 1.315 . S
C1240 O1235 1.279 . S
C1241 O1242 1.315 . S
C1241 O1243 1.279 . S
O1242 Cd1234 2.223 . S
O1242 C1241 1.315 . S
O1243 Cd1233 2.240 . S
O1243 C1241 1.279 . S
O1244 Cd1234 2.297 . S
O1244 C1239 1.247 . S
O1245 Cd1234 2.439 . S
O1245 C1239 1.208 . S
O1246 Cd1247 2.223 . S
O1246 C1254 1.315 . S
Cd1247 O1246 2.223 . S
Cd1247 O1250 2.297 . S
Cd1247 O1251 2.439 . S
Cd1247 O1257 2.240 . S
Cd1248 O1249 2.240 . S
Cd1248 O1256 2.223 . S
Cd1248 O1258 2.297 . S
Cd1248 O1259 2.439 . S
O1249 Cd1248 2.240 . S
O1249 C1254 1.279 . S
O1250 Cd1247 2.297 . S
O1250 C1252 1.247 . S
O1251 Cd1247 2.439 . S
O1251 C1252 1.208 . S
C1252 O1250 1.247 . S
C1252 O1251 1.208 . S
C1253 O1258 1.247 . S
C1253 O1259 1.208 . S
C1254 O1246 1.315 . S
C1254 O1249 1.279 . S
C1255 O1256 1.315 . S
C1255 O1257 1.279 . S
O1256 Cd1248 2.223 . S
O1256 C1255 1.315 . S
O1257 Cd1247 2.240 . S
O1257 C1255 1.279 . S
O1258 Cd1248 2.297 . S
O1258 C1253 1.247 . S
O1259 Cd1248 2.439 . S
O1259 C1253 1.208 . S
O1260 Cd1261 2.223 . S
O1260 C1268 1.315 . S
Cd1261 O1260 2.223 . S
Cd1261 O1264 2.297 . S
Cd1261 O1265 2.439 . S
Cd1261 O1271 2.240 . S
Cd1262 O1263 2.240 . S
Cd1262 O1270 2.223 . S
Cd1262 O1272 2.297 . S
Cd1262 O1273 2.439 . S
O1263 Cd1262 2.240 . S
O1263 C1268 1.279 . S
O1264 Cd1261 2.297 . S
O1264 C1266 1.247 . S
O1265 Cd1261 2.439 . S
O1265 C1266 1.208 . S
C1266 O1264 1.247 . S
C1266 O1265 1.208 . S
C1267 O1272 1.247 . S
C1267 O1273 1.208 . S
C1268 O1260 1.315 . S
C1268 O1263 1.279 . S
C1269 O1270 1.315 . S
C1269 O1271 1.279 . S
O1270 Cd1262 2.223 . S
O1270 C1269 1.315 . S
O1271 Cd1261 2.240 . S
O1271 C1269 1.279 . S
O1272 Cd1262 2.297 . S
O1272 C1267 1.247 . S
O1273 Cd1262 2.439 . S
O1273 C1267 1.208 . S
O1274 Cd1275 2.223 . S
O1274 C1282 1.315 . S
Cd1275 O1274 2.223 . S
Cd1275 O1278 2.297 . S
Cd1275 O1279 2.439 . S
Cd1275 O1285 2.240 1_554 S
Cd1276 O1277 2.240 . S
Cd1276 O1284 2.223 1_554 S
Cd1276 O1286 2.297 1_554 S
Cd1276 O1287 2.439 1_554 S
O1277 Cd1276 2.240 . S
O1277 C1282 1.279 . S
O1278 Cd1275 2.297 . S
O1278 C1280 1.247 . S
O1279 Cd1275 2.439 . S
O1279 C1280 1.208 . S
C1280 O1278 1.247 . S
C1280 O1279 1.208 . S
C1281 O1286 1.247 . S
C1281 O1287 1.208 . S
C1282 O1274 1.315 . S
C1282 O1277 1.279 . S
C1283 O1284 1.315 . S
C1283 O1285 1.279 . S
O1284 Cd1276 2.223 1_556 S
O1284 C1283 1.315 . S
O1285 Cd1275 2.240 1_556 S
O1285 C1283 1.279 . S
O1286 Cd1276 2.297 1_556 S
O1286 C1281 1.247 . S
O1287 Cd1276 2.439 1_556 S
O1287 C1281 1.208 . S
O1288 Cd1289 2.223 . S
O1288 C1296 1.315 . S
Cd1289 O1288 2.223 . S
Cd1289 O1292 2.297 . S
Cd1289 O1293 2.439 . S
Cd1289 O1299 2.240 . S
Cd1290 O1291 2.240 . S
Cd1290 O1298 2.223 . S
Cd1290 O1300 2.297 . S
Cd1290 O1301 2.439 . S
O1291 Cd1290 2.240 . S
O1291 C1296 1.279 . S
O1292 Cd1289 2.297 . S
O1292 C1294 1.247 . S
O1293 Cd1289 2.439 . S
O1293 C1294 1.208 . S
C1294 O1292 1.247 . S
C1294 O1293 1.208 . S
C1295 O1300 1.247 . S
C1295 O1301 1.208 . S
C1296 O1288 1.315 . S
C1296 O1291 1.279 . S
C1297 O1298 1.315 . S
C1297 O1299 1.279 . S
O1298 Cd1290 2.223 . S
O1298 C1297 1.315 . S
O1299 Cd1289 2.240 . S
O1299 C1297 1.279 . S
O1300 Cd1290 2.297 . S
O1300 C1295 1.247 . S
O1301 Cd1290 2.439 . S
O1301 C1295 1.208 . S
O1302 Cd1303 2.223 . S
O1302 C1310 1.315 . S
Cd1303 O1302 2.223 . S
Cd1303 O1306 2.297 . S
Cd1303 O1307 2.439 . S
Cd1303 O1313 2.240 1_556 S
Cd1304 O1305 2.240 . S
Cd1304 O1312 2.223 1_556 S
Cd1304 O1314 2.297 1_556 S
Cd1304 O1315 2.439 1_556 S
O1305 Cd1304 2.240 . S
O1305 C1310 1.279 . S
O1306 Cd1303 2.297 . S
O1306 C1308 1.247 . S
O1307 Cd1303 2.439 . S
O1307 C1308 1.208 . S
C1308 O1306 1.247 . S
C1308 O1307 1.208 . S
C1309 O1314 1.247 . S
C1309 O1315 1.208 . S
C1310 O1302 1.315 . S
C1310 O1305 1.279 . S
C1311 O1312 1.315 . S
C1311 O1313 1.279 . S
O1312 Cd1304 2.223 1_554 S
O1312 C1311 1.315 . S
O1313 Cd1303 2.240 1_554 S
O1313 C1311 1.279 . S
O1314 Cd1304 2.297 1_554 S
O1314 C1309 1.247 . S
O1315 Cd1304 2.439 1_554 S
O1315 C1309 1.208 . S
O1316 Cd1317 2.223 . S
O1316 C1324 1.315 . S
Cd1317 O1316 2.223 . S
Cd1317 O1320 2.297 . S
Cd1317 O1321 2.439 . S
Cd1317 O1327 2.240 . S
Cd1318 O1319 2.240 . S
Cd1318 O1326 2.223 . S
Cd1318 O1328 2.297 . S
Cd1318 O1329 2.439 . S
O1319 Cd1318 2.240 . S
O1319 C1324 1.279 . S
O1320 Cd1317 2.297 . S
O1320 C1322 1.247 . S
O1321 Cd1317 2.439 . S
O1321 C1322 1.208 . S
C1322 O1320 1.247 . S
C1322 O1321 1.208 . S
C1323 O1328 1.247 . S
C1323 O1329 1.208 . S
C1324 O1316 1.315 . S
C1324 O1319 1.279 . S
C1325 O1326 1.315 . S
C1325 O1327 1.279 . S
O1326 Cd1318 2.223 . S
O1326 C1325 1.315 . S
O1327 Cd1317 2.240 . S
O1327 C1325 1.279 . S
O1328 Cd1318 2.297 . S
O1328 C1323 1.247 . S
O1329 Cd1318 2.439 . S
O1329 C1323 1.208 . S
O1330 Cd1331 2.223 . S
O1330 C1338 1.315 . S
Cd1331 O1330 2.223 . S
Cd1331 O1334 2.297 . S
Cd1331 O1335 2.439 . S
Cd1331 O1341 2.240 . S
Cd1332 O1333 2.240 . S
Cd1332 O1340 2.223 . S
Cd1332 O1342 2.297 . S
Cd1332 O1343 2.439 . S
O1333 Cd1332 2.240 . S
O1333 C1338 1.279 . S
O1334 Cd1331 2.297 . S
O1334 C1336 1.247 . S
O1335 Cd1331 2.439 . S
O1335 C1336 1.208 . S
C1336 O1334 1.247 . S
C1336 O1335 1.208 . S
C1337 O1342 1.247 . S
C1337 O1343 1.208 . S
C1338 O1330 1.315 . S
C1338 O1333 1.279 . S
C1339 O1340 1.315 . S
C1339 O1341 1.279 . S
O1340 Cd1332 2.223 . S
O1340 C1339 1.315 . S
O1341 Cd1331 2.240 . S
O1341 C1339 1.279 . S
O1342 Cd1332 2.297 . S
O1342 C1337 1.247 . S
O1343 Cd1332 2.439 . S
O1343 C1337 1.208 . S
C1344 C1345 1.369 . S
C1344 C1346 1.419 . S
C1344 H1348 0.930 . S
C1345 C1344 1.369 . S
C1345 C1354 1.429 . S
C1346 C1344 1.419 . S
C1346 C1347 1.363 . S
C1346 H1349 0.929 . S
C1347 C1346 1.363 . S
C1347 C1353 1.428 . S
H1348 C1344 0.930 . S
H1349 C1346 0.929 . S
S1350 N1351 1.613 . S
S1350 N1352 1.610 . S
N1351 S1350 1.613 . S
N1351 C1354 1.350 . S
N1352 S1350 1.610 . S
N1352 C1353 1.351 . S
C1353 C1347 1.428 . S
C1353 N1352 1.351 . S
C1353 C1354 1.434 . S
C1354 C1345 1.429 . S
C1354 N1351 1.350 . S
C1354 C1353 1.434 . S
C1355 C1356 1.369 . S
C1355 C1357 1.419 . S
C1355 H1359 0.930 . S
C1356 C1355 1.369 . S
C1356 C1365 1.429 . S
C1357 C1355 1.419 . S
C1357 C1358 1.363 . S
C1357 H1360 0.929 . S
C1358 C1357 1.363 . S
C1358 C1364 1.428 . S
H1359 C1355 0.930 . S
H1360 C1357 0.929 . S
S1361 N1362 1.613 . S
S1361 N1363 1.610 . S
N1362 S1361 1.613 . S
N1362 C1365 1.350 . S
N1363 S1361 1.610 . S
N1363 C1364 1.351 . S
C1364 C1358 1.428 . S
C1364 N1363 1.351 . S
C1364 C1365 1.434 . S
C1365 C1356 1.429 . S
C1365 N1362 1.350 . S
C1365 C1364 1.434 . S
C1366 C1367 1.369 . S
C1366 C1368 1.419 . S
C1366 H1370 0.930 . S
C1367 C1366 1.369 . S
C1367 C1376 1.429 . S
C1368 C1366 1.419 . S
C1368 C1369 1.363 . S
C1368 H1371 0.929 . S
C1369 C1368 1.363 . S
C1369 C1375 1.428 . S
H1370 C1366 0.930 . S
H1371 C1368 0.929 . S
S1372 N1373 1.613 . S
S1372 N1374 1.610 . S
N1373 S1372 1.613 . S
N1373 C1376 1.350 . S
N1374 S1372 1.610 . S
N1374 C1375 1.351 . S
C1375 C1369 1.428 . S
C1375 N1374 1.351 . S
C1375 C1376 1.434 . S
C1376 C1367 1.429 . S
C1376 N1373 1.350 . S
C1376 C1375 1.434 . S
C1377 C1378 1.369 . S
C1377 C1379 1.419 . S
C1377 H1381 0.930 . S
C1378 C1377 1.369 . S
C1378 C1387 1.429 . S
C1379 C1377 1.419 . S
C1379 C1380 1.363 . S
C1379 H1382 0.929 . S
C1380 C1379 1.363 . S
C1380 C1386 1.428 . S
H1381 C1377 0.930 . S
H1382 C1379 0.929 . S
S1383 N1384 1.613 . S
S1383 N1385 1.610 . S
N1384 S1383 1.613 . S
N1384 C1387 1.350 . S
N1385 S1383 1.610 . S
N1385 C1386 1.351 . S
C1386 C1380 1.428 . S
C1386 N1385 1.351 . S
C1386 C1387 1.434 . S
C1387 C1378 1.429 . S
C1387 N1384 1.350 . S
C1387 C1386 1.434 . S
C1388 C1389 1.369 . S
C1388 C1390 1.419 . S
C1388 H1392 0.930 . S
C1389 C1388 1.369 . S
C1389 C1398 1.429 . S
C1390 C1388 1.419 . S
C1390 C1391 1.363 . S
C1390 H1393 0.929 . S
C1391 C1390 1.363 . S
C1391 C1397 1.428 . S
H1392 C1388 0.930 . S
H1393 C1390 0.929 . S
S1394 N1395 1.613 . S
S1394 N1396 1.610 . S
N1395 S1394 1.613 . S
N1395 C1398 1.350 . S
N1396 S1394 1.610 . S
N1396 C1397 1.351 . S
C1397 C1391 1.428 . S
C1397 N1396 1.351 . S
C1397 C1398 1.434 . S
C1398 C1389 1.429 . S
C1398 N1395 1.350 . S
C1398 C1397 1.434 . S
C1399 C1400 1.369 . S
C1399 C1401 1.419 . S
C1399 H1403 0.930 . S
C1400 C1399 1.369 . S
C1400 C1409 1.429 . S
C1401 C1399 1.419 . S
C1401 C1402 1.363 . S
C1401 H1404 0.929 . S
C1402 C1401 1.363 . S
C1402 C1408 1.428 . S
H1403 C1399 0.930 . S
H1404 C1401 0.929 . S
S1405 N1406 1.613 . S
S1405 N1407 1.610 . S
N1406 S1405 1.613 . S
N1406 C1409 1.350 . S
N1407 S1405 1.610 . S
N1407 C1408 1.351 . S
C1408 C1402 1.428 . S
C1408 N1407 1.351 . S
C1408 C1409 1.434 . S
C1409 C1400 1.429 . S
C1409 N1406 1.350 . S
C1409 C1408 1.434 . S
C1410 C1411 1.369 . S
C1410 C1412 1.419 . S
C1410 H1414 0.930 . S
C1411 C1410 1.369 . S
C1411 C1420 1.429 . S
C1412 C1410 1.419 . S
C1412 C1413 1.363 . S
C1412 H1415 0.929 . S
C1413 C1412 1.363 . S
C1413 C1419 1.428 . S
H1414 C1410 0.930 . S
H1415 C1412 0.929 . S
S1416 N1417 1.613 . S
S1416 N1418 1.610 . S
N1417 S1416 1.613 . S
N1417 C1420 1.350 . S
N1418 S1416 1.610 . S
N1418 C1419 1.351 . S
C1419 C1413 1.428 . S
C1419 N1418 1.351 . S
C1419 C1420 1.434 . S
C1420 C1411 1.429 . S
C1420 N1417 1.350 . S
C1420 C1419 1.434 . S
C1421 C1422 1.369 . S
C1421 C1423 1.419 . S
C1421 H1425 0.930 . S
C1422 C1421 1.369 . S
C1422 C1431 1.429 . S
C1423 C1421 1.419 . S
C1423 C1424 1.363 . S
C1423 H1426 0.929 . S
C1424 C1423 1.363 . S
C1424 C1430 1.428 . S
H1425 C1421 0.930 . S
H1426 C1423 0.929 . S
S1427 N1428 1.613 . S
S1427 N1429 1.610 . S
N1428 S1427 1.613 . S
N1428 C1431 1.350 . S
N1429 S1427 1.610 . S
N1429 C1430 1.351 . S
C1430 C1424 1.428 . S
C1430 N1429 1.351 . S
C1430 C1431 1.434 . S
C1431 C1422 1.429 . S
C1431 N1428 1.350 . S
C1431 C1430 1.434 . S
C1432 C1433 1.369 . S
C1432 C1434 1.419 . S
C1432 H1436 0.930 . S
C1433 C1432 1.369 . S
C1433 C1442 1.429 . S
C1434 C1432 1.419 . S
C1434 C1435 1.363 . S
C1434 H1437 0.929 . S
C1435 C1434 1.363 . S
C1435 C1441 1.428 . S
H1436 C1432 0.930 . S
H1437 C1434 0.929 . S
S1438 N1439 1.613 . S
S1438 N1440 1.610 . S
N1439 S1438 1.613 . S
N1439 C1442 1.350 . S
N1440 S1438 1.610 . S
N1440 C1441 1.351 . S
C1441 C1435 1.428 . S
C1441 N1440 1.351 . S
C1441 C1442 1.434 . S
C1442 C1433 1.429 . S
C1442 N1439 1.350 . S
C1442 C1441 1.434 . S
C1443 C1444 1.369 . S
C1443 C1445 1.419 . S
C1443 H1447 0.930 . S
C1444 C1443 1.369 . S
C1444 C1453 1.429 . S
C1445 C1443 1.419 . S
C1445 C1446 1.363 . S
C1445 H1448 0.929 . S
C1446 C1445 1.363 . S
C1446 C1452 1.428 . S
H1447 C1443 0.930 . S
H1448 C1445 0.929 . S
S1449 N1450 1.613 . S
S1449 N1451 1.610 . S
N1450 S1449 1.613 . S
N1450 C1453 1.350 . S
N1451 S1449 1.610 . S
N1451 C1452 1.351 . S
C1452 C1446 1.428 . S
C1452 N1451 1.351 . S
C1452 C1453 1.434 . S
C1453 C1444 1.429 . S
C1453 N1450 1.350 . S
C1453 C1452 1.434 . S
C1454 C1455 1.369 . S
C1454 C1456 1.419 . S
C1454 H1458 0.930 . S
C1455 C1454 1.369 . S
C1455 C1464 1.429 . S
C1456 C1454 1.419 . S
C1456 C1457 1.363 . S
C1456 H1459 0.929 . S
C1457 C1456 1.363 . S
C1457 C1463 1.428 . S
H1458 C1454 0.930 . S
H1459 C1456 0.929 . S
S1460 N1461 1.613 . S
S1460 N1462 1.610 . S
N1461 S1460 1.613 . S
N1461 C1464 1.350 . S
N1462 S1460 1.610 . S
N1462 C1463 1.351 . S
C1463 C1457 1.428 . S
C1463 N1462 1.351 . S
C1463 C1464 1.434 . S
C1464 C1455 1.429 . S
C1464 N1461 1.350 . S
C1464 C1463 1.434 . S
C1465 C1466 1.369 . S
C1465 C1467 1.419 . S
C1465 H1469 0.930 . S
C1466 C1465 1.369 . S
C1466 C1475 1.429 . S
C1467 C1465 1.419 . S
C1467 C1468 1.363 . S
C1467 H1470 0.929 . S
C1468 C1467 1.363 . S
C1468 C1474 1.428 . S
H1469 C1465 0.930 . S
H1470 C1467 0.929 . S
S1471 N1472 1.613 . S
S1471 N1473 1.610 . S
N1472 S1471 1.613 . S
N1472 C1475 1.350 . S
N1473 S1471 1.610 . S
N1473 C1474 1.351 . S
C1474 C1468 1.428 . S
C1474 N1473 1.351 . S
C1474 C1475 1.434 . S
C1475 C1466 1.429 . S
C1475 N1472 1.350 . S
C1475 C1474 1.434 . S
C1476 C1477 1.369 . S
C1476 C1478 1.419 . S
C1476 H1480 0.930 . S
C1477 C1476 1.369 . S
C1477 C1486 1.429 . S
C1478 C1476 1.419 . S
C1478 C1479 1.363 . S
C1478 H1481 0.929 . S
C1479 C1478 1.363 . S
C1479 C1485 1.428 . S
H1480 C1476 0.930 . S
H1481 C1478 0.929 . S
S1482 N1483 1.613 . S
S1482 N1484 1.610 . S
N1483 S1482 1.613 . S
N1483 C1486 1.350 . S
N1484 S1482 1.610 . S
N1484 C1485 1.351 . S
C1485 C1479 1.428 . S
C1485 N1484 1.351 . S
C1485 C1486 1.434 . S
C1486 C1477 1.429 . S
C1486 N1483 1.350 . S
C1486 C1485 1.434 . S
C1487 C1488 1.369 . S
C1487 C1489 1.419 . S
C1487 H1491 0.930 . S
C1488 C1487 1.369 . S
C1488 C1497 1.429 . S
C1489 C1487 1.419 . S
C1489 C1490 1.363 . S
C1489 H1492 0.929 . S
C1490 C1489 1.363 . S
C1490 C1496 1.428 . S
H1491 C1487 0.930 . S
H1492 C1489 0.929 . S
S1493 N1494 1.613 . S
S1493 N1495 1.610 . S
N1494 S1493 1.613 . S
N1494 C1497 1.350 . S
N1495 S1493 1.610 . S
N1495 C1496 1.351 . S
C1496 C1490 1.428 . S
C1496 N1495 1.351 . S
C1496 C1497 1.434 . S
C1497 C1488 1.429 . S
C1497 N1494 1.350 . S
C1497 C1496 1.434 . S
C1498 C1499 1.369 . S
C1498 C1500 1.419 . S
C1498 H1502 0.930 . S
C1499 C1498 1.369 . S
C1499 C1508 1.429 . S
C1500 C1498 1.419 . S
C1500 C1501 1.363 . S
C1500 H1503 0.929 . S
C1501 C1500 1.363 . S
C1501 C1507 1.428 . S
H1502 C1498 0.930 . S
H1503 C1500 0.929 . S
S1504 N1505 1.613 . S
S1504 N1506 1.610 . S
N1505 S1504 1.613 . S
N1505 C1508 1.350 . S
N1506 S1504 1.610 . S
N1506 C1507 1.351 . S
C1507 C1501 1.428 . S
C1507 N1506 1.351 . S
C1507 C1508 1.434 . S
C1508 C1499 1.429 . S
C1508 N1505 1.350 . S
C1508 C1507 1.434 . S
C1509 C1510 1.369 . S
C1509 C1511 1.419 . S
C1509 H1513 0.930 . S
C1510 C1509 1.369 . S
C1510 C1519 1.429 . S
C1511 C1509 1.419 . S
C1511 C1512 1.363 . S
C1511 H1514 0.929 . S
C1512 C1511 1.363 . S
C1512 C1518 1.428 . S
H1513 C1509 0.930 . S
H1514 C1511 0.929 . S
S1515 N1516 1.613 . S
S1515 N1517 1.610 . S
N1516 S1515 1.613 . S
N1516 C1519 1.350 . S
N1517 S1515 1.610 . S
N1517 C1518 1.351 . S
C1518 C1512 1.428 . S
C1518 N1517 1.351 . S
C1518 C1519 1.434 . S
C1519 C1510 1.429 . S
C1519 N1516 1.350 . S
C1519 C1518 1.434 . S
C1520 C1521 1.369 . S
C1520 C1522 1.419 . S
C1520 H1524 0.930 . S
C1521 C1520 1.369 . S
C1521 C1530 1.429 . S
C1522 C1520 1.419 . S
C1522 C1523 1.363 . S
C1522 H1525 0.929 . S
C1523 C1522 1.363 . S
C1523 C1529 1.428 . S
H1524 C1520 0.930 . S
H1525 C1522 0.929 . S
S1526 N1527 1.613 . S
S1526 N1528 1.610 . S
N1527 S1526 1.613 . S
N1527 C1530 1.350 . S
N1528 S1526 1.610 . S
N1528 C1529 1.351 . S
C1529 C1523 1.428 . S
C1529 N1528 1.351 . S
C1529 C1530 1.434 . S
C1530 C1521 1.429 . S
C1530 N1527 1.350 . S
C1530 C1529 1.434 . S
C1531 C1532 1.369 . S
C1531 C1533 1.419 . S
C1531 H1535 0.930 . S
C1532 C1531 1.369 . S
C1532 C1541 1.429 . S
C1533 C1531 1.419 . S
C1533 C1534 1.363 . S
C1533 H1536 0.929 . S
C1534 C1533 1.363 . S
C1534 C1540 1.428 . S
H1535 C1531 0.930 . S
H1536 C1533 0.929 . S
S1537 N1538 1.613 . S
S1537 N1539 1.610 . S
N1538 S1537 1.613 . S
N1538 C1541 1.350 . S
N1539 S1537 1.610 . S
N1539 C1540 1.351 . S
C1540 C1534 1.428 . S
C1540 N1539 1.351 . S
C1540 C1541 1.434 . S
C1541 C1532 1.429 . S
C1541 N1538 1.350 . S
C1541 C1540 1.434 . S
C1542 C1543 1.369 . S
C1542 C1544 1.419 . S
C1542 H1546 0.930 . S
C1543 C1542 1.369 . S
C1543 C1552 1.429 . S
C1544 C1542 1.419 . S
C1544 C1545 1.363 . S
C1544 H1547 0.929 . S
C1545 C1544 1.363 . S
C1545 C1551 1.428 . S
H1546 C1542 0.930 . S
H1547 C1544 0.929 . S
S1548 N1549 1.613 . S
S1548 N1550 1.610 . S
N1549 S1548 1.613 . S
N1549 C1552 1.350 . S
N1550 S1548 1.610 . S
N1550 C1551 1.351 . S
C1551 C1545 1.428 . S
C1551 N1550 1.351 . S
C1551 C1552 1.434 . S
C1552 C1543 1.429 . S
C1552 N1549 1.350 . S
C1552 C1551 1.434 . S
C1553 C1554 1.369 . S
C1553 C1555 1.419 . S
C1553 H1557 0.930 . S
C1554 C1553 1.369 . S
C1554 C1563 1.429 . S
C1555 C1553 1.419 . S
C1555 C1556 1.363 . S
C1555 H1558 0.929 . S
C1556 C1555 1.363 . S
C1556 C1562 1.428 . S
H1557 C1553 0.930 . S
H1558 C1555 0.929 . S
S1559 N1560 1.613 . S
S1559 N1561 1.610 . S
N1560 S1559 1.613 . S
N1560 C1563 1.350 . S
N1561 S1559 1.610 . S
N1561 C1562 1.351 . S
C1562 C1556 1.428 . S
C1562 N1561 1.351 . S
C1562 C1563 1.434 . S
C1563 C1554 1.429 . S
C1563 N1560 1.350 . S
C1563 C1562 1.434 . S
C1564 C1565 1.369 . S
C1564 C1566 1.419 . S
C1564 H1568 0.930 . S
C1565 C1564 1.369 . S
C1565 C1574 1.429 . S
C1566 C1564 1.419 . S
C1566 C1567 1.363 . S
C1566 H1569 0.929 . S
C1567 C1566 1.363 . S
C1567 C1573 1.428 . S
H1568 C1564 0.930 . S
H1569 C1566 0.929 . S
S1570 N1571 1.613 . S
S1570 N1572 1.610 . S
N1571 S1570 1.613 . S
N1571 C1574 1.350 . S
N1572 S1570 1.610 . S
N1572 C1573 1.351 . S
C1573 C1567 1.428 . S
C1573 N1572 1.351 . S
C1573 C1574 1.434 . S
C1574 C1565 1.429 . S
C1574 N1571 1.350 . S
C1574 C1573 1.434 . S
C1575 C1576 1.369 . S
C1575 C1577 1.419 . S
C1575 H1579 0.930 . S
C1576 C1575 1.369 . S
C1576 C1585 1.429 . S
C1577 C1575 1.419 . S
C1577 C1578 1.363 . S
C1577 H1580 0.929 . S
C1578 C1577 1.363 . S
C1578 C1584 1.428 . S
H1579 C1575 0.930 . S
H1580 C1577 0.929 . S
S1581 N1582 1.613 . S
S1581 N1583 1.610 . S
N1582 S1581 1.613 . S
N1582 C1585 1.350 . S
N1583 S1581 1.610 . S
N1583 C1584 1.351 . S
C1584 C1578 1.428 . S
C1584 N1583 1.351 . S
C1584 C1585 1.434 . S
C1585 C1576 1.429 . S
C1585 N1582 1.350 . S
C1585 C1584 1.434 . S
C1586 C1587 1.369 . S
C1586 C1588 1.419 . S
C1586 H1590 0.930 . S
C1587 C1586 1.369 . S
C1587 C1596 1.429 . S
C1588 C1586 1.419 . S
C1588 C1589 1.363 . S
C1588 H1591 0.929 . S
C1589 C1588 1.363 . S
C1589 C1595 1.428 . S
H1590 C1586 0.930 . S
H1591 C1588 0.929 . S
S1592 N1593 1.613 . S
S1592 N1594 1.610 . S
N1593 S1592 1.613 . S
N1593 C1596 1.350 . S
N1594 S1592 1.610 . S
N1594 C1595 1.351 . S
C1595 C1589 1.428 . S
C1595 N1594 1.351 . S
C1595 C1596 1.434 . S
C1596 C1587 1.429 . S
C1596 N1593 1.350 . S
C1596 C1595 1.434 . S
C1597 C1598 1.369 . S
C1597 C1599 1.419 . S
C1597 H1601 0.930 . S
C1598 C1597 1.369 . S
C1598 C1607 1.429 . S
C1599 C1597 1.419 . S
C1599 C1600 1.363 . S
C1599 H1602 0.929 . S
C1600 C1599 1.363 . S
C1600 C1606 1.428 . S
H1601 C1597 0.930 . S
H1602 C1599 0.929 . S
S1603 N1604 1.613 . S
S1603 N1605 1.610 . S
N1604 S1603 1.613 . S
N1604 C1607 1.350 . S
N1605 S1603 1.610 . S
N1605 C1606 1.351 . S
C1606 C1600 1.428 . S
C1606 N1605 1.351 . S
C1606 C1607 1.434 . S
C1607 C1598 1.429 . S
C1607 N1604 1.350 . S
C1607 C1606 1.434 . S
C1608 C1609 1.369 . S
C1608 C1610 1.419 . S
C1608 H1612 0.930 . S
C1609 C1608 1.369 . S
C1609 C1618 1.429 . S
C1610 C1608 1.419 . S
C1610 C1611 1.363 . S
C1610 H1613 0.929 . S
C1611 C1610 1.363 . S
C1611 C1617 1.428 . S
H1612 C1608 0.930 . S
H1613 C1610 0.929 . S
S1614 N1615 1.613 . S
S1614 N1616 1.610 . S
N1615 S1614 1.613 . S
N1615 C1618 1.350 . S
N1616 S1614 1.610 . S
N1616 C1617 1.351 . S
C1617 C1611 1.428 . S
C1617 N1616 1.351 . S
C1617 C1618 1.434 . S
C1618 C1609 1.429 . S
C1618 N1615 1.350 . S
C1618 C1617 1.434 . S
C1619 C1620 1.369 . S
C1619 C1621 1.419 . S
C1619 H1623 0.930 . S
C1620 C1619 1.369 . S
C1620 C1629 1.429 . S
C1621 C1619 1.419 . S
C1621 C1622 1.363 . S
C1621 H1624 0.929 . S
C1622 C1621 1.363 . S
C1622 C1628 1.428 . S
H1623 C1619 0.930 . S
H1624 C1621 0.929 . S
S1625 N1626 1.613 . S
S1625 N1627 1.610 . S
N1626 S1625 1.613 . S
N1626 C1629 1.350 . S
N1627 S1625 1.610 . S
N1627 C1628 1.351 . S
C1628 C1622 1.428 . S
C1628 N1627 1.351 . S
C1628 C1629 1.434 . S
C1629 C1620 1.429 . S
C1629 N1626 1.350 . S
C1629 C1628 1.434 . S
C1630 C1631 1.369 . S
C1630 C1632 1.419 . S
C1630 H1634 0.930 . S
C1631 C1630 1.369 . S
C1631 C1640 1.429 . S
C1632 C1630 1.419 . S
C1632 C1633 1.363 . S
C1632 H1635 0.929 . S
C1633 C1632 1.363 . S
C1633 C1639 1.428 . S
H1634 C1630 0.930 . S
H1635 C1632 0.929 . S
S1636 N1637 1.613 . S
S1636 N1638 1.610 . S
N1637 S1636 1.613 . S
N1637 C1640 1.350 . S
N1638 S1636 1.610 . S
N1638 C1639 1.351 . S
C1639 C1633 1.428 . S
C1639 N1638 1.351 . S
C1639 C1640 1.434 . S
C1640 C1631 1.429 . S
C1640 N1637 1.350 . S
C1640 C1639 1.434 . S
C1641 C1642 1.369 . S
C1641 C1643 1.419 . S
C1641 H1645 0.930 . S
C1642 C1641 1.369 . S
C1642 C1651 1.429 . S
C1643 C1641 1.419 . S
C1643 C1644 1.363 . S
C1643 H1646 0.929 . S
C1644 C1643 1.363 . S
C1644 C1650 1.428 . S
H1645 C1641 0.930 . S
H1646 C1643 0.929 . S
S1647 N1648 1.613 . S
S1647 N1649 1.610 . S
N1648 S1647 1.613 . S
N1648 C1651 1.350 . S
N1649 S1647 1.610 . S
N1649 C1650 1.351 . S
C1650 C1644 1.428 . S
C1650 N1649 1.351 . S
C1650 C1651 1.434 . S
C1651 C1642 1.429 . S
C1651 N1648 1.350 . S
C1651 C1650 1.434 . S
C1652 C1653 1.369 . S
C1652 C1654 1.419 . S
C1652 H1656 0.930 . S
C1653 C1652 1.369 . S
C1653 C1662 1.429 . S
C1654 C1652 1.419 . S
C1654 C1655 1.363 . S
C1654 H1657 0.929 . S
C1655 C1654 1.363 . S
C1655 C1661 1.428 . S
H1656 C1652 0.930 . S
H1657 C1654 0.929 . S
S1658 N1659 1.613 . S
S1658 N1660 1.610 . S
N1659 S1658 1.613 . S
N1659 C1662 1.350 . S
N1660 S1658 1.610 . S
N1660 C1661 1.351 . S
C1661 C1655 1.428 . S
C1661 N1660 1.351 . S
C1661 C1662 1.434 . S
C1662 C1653 1.429 . S
C1662 N1659 1.350 . S
C1662 C1661 1.434 . S
C1663 C1664 1.369 . S
C1663 C1665 1.419 . S
C1663 H1667 0.930 . S
C1664 C1663 1.369 . S
C1664 C1673 1.429 . S
C1665 C1663 1.419 . S
C1665 C1666 1.363 . S
C1665 H1668 0.929 . S
C1666 C1665 1.363 . S
C1666 C1672 1.428 . S
H1667 C1663 0.930 . S
H1668 C1665 0.929 . S
S1669 N1670 1.613 . S
S1669 N1671 1.610 . S
N1670 S1669 1.613 . S
N1670 C1673 1.350 . S
N1671 S1669 1.610 . S
N1671 C1672 1.351 . S
C1672 C1666 1.428 . S
C1672 N1671 1.351 . S
C1672 C1673 1.434 . S
C1673 C1664 1.429 . S
C1673 N1670 1.350 . S
C1673 C1672 1.434 . S
C1674 C1675 1.369 . S
C1674 C1676 1.419 . S
C1674 H1678 0.930 . S
C1675 C1674 1.369 . S
C1675 C1684 1.429 . S
C1676 C1674 1.419 . S
C1676 C1677 1.363 . S
C1676 H1679 0.929 . S
C1677 C1676 1.363 . S
C1677 C1683 1.428 . S
H1678 C1674 0.930 . S
H1679 C1676 0.929 . S
S1680 N1681 1.613 . S
S1680 N1682 1.610 . S
N1681 S1680 1.613 . S
N1681 C1684 1.350 . S
N1682 S1680 1.610 . S
N1682 C1683 1.351 . S
C1683 C1677 1.428 . S
C1683 N1682 1.351 . S
C1683 C1684 1.434 . S
C1684 C1675 1.429 . S
C1684 N1681 1.350 . S
C1684 C1683 1.434 . S
C1685 C1686 1.369 . S
C1685 C1687 1.419 . S
C1685 H1689 0.930 . S
C1686 C1685 1.369 . S
C1686 C1695 1.429 . S
C1687 C1685 1.419 . S
C1687 C1688 1.363 . S
C1687 H1690 0.929 . S
C1688 C1687 1.363 . S
C1688 C1694 1.428 . S
H1689 C1685 0.930 . S
H1690 C1687 0.929 . S
S1691 N1692 1.613 . S
S1691 N1693 1.610 . S
N1692 S1691 1.613 . S
N1692 C1695 1.350 . S
N1693 S1691 1.610 . S
N1693 C1694 1.351 . S
C1694 C1688 1.428 . S
C1694 N1693 1.351 . S
C1694 C1695 1.434 . S
C1695 C1686 1.429 . S
C1695 N1692 1.350 . S
C1695 C1694 1.434 . S
C1696 C1697 1.369 . S
C1696 C1698 1.419 . S
C1696 H1700 0.930 . S
C1697 C1696 1.369 . S
C1697 C1706 1.429 . S
C1698 C1696 1.419 . S
C1698 C1699 1.363 . S
C1698 H1701 0.929 . S
C1699 C1698 1.363 . S
C1699 C1705 1.428 . S
H1700 C1696 0.930 . S
H1701 C1698 0.929 . S
S1702 N1703 1.613 . S
S1702 N1704 1.610 . S
N1703 S1702 1.613 . S
N1703 C1706 1.350 . S
N1704 S1702 1.610 . S
N1704 C1705 1.351 . S
C1705 C1699 1.428 . S
C1705 N1704 1.351 . S
C1705 C1706 1.434 . S
C1706 C1697 1.429 . S
C1706 N1703 1.350 . S
C1706 C1705 1.434 . S
C1707 C1708 1.369 . S
C1707 C1709 1.419 . S
C1707 H1711 0.930 . S
C1708 C1707 1.369 . S
C1708 C1717 1.429 . S
C1709 C1707 1.419 . S
C1709 C1710 1.363 . S
C1709 H1712 0.929 . S
C1710 C1709 1.363 . S
C1710 C1716 1.428 . S
H1711 C1707 0.930 . S
H1712 C1709 0.929 . S
S1713 N1714 1.613 . S
S1713 N1715 1.610 . S
N1714 S1713 1.613 . S
N1714 C1717 1.350 . S
N1715 S1713 1.610 . S
N1715 C1716 1.351 . S
C1716 C1710 1.428 . S
C1716 N1715 1.351 . S
C1716 C1717 1.434 . S
C1717 C1708 1.429 . S
C1717 N1714 1.350 . S
C1717 C1716 1.434 . S
C1718 C1719 1.369 . S
C1718 C1720 1.419 . S
C1718 H1722 0.930 . S
C1719 C1718 1.369 . S
C1719 C1728 1.429 . S
C1720 C1718 1.419 . S
C1720 C1721 1.363 . S
C1720 H1723 0.929 . S
C1721 C1720 1.363 . S
C1721 C1727 1.428 . S
H1722 C1718 0.930 . S
H1723 C1720 0.929 . S
S1724 N1725 1.613 . S
S1724 N1726 1.610 . S
N1725 S1724 1.613 . S
N1725 C1728 1.350 . S
N1726 S1724 1.610 . S
N1726 C1727 1.351 . S
C1727 C1721 1.428 . S
C1727 N1726 1.351 . S
C1727 C1728 1.434 . S
C1728 C1719 1.429 . S
C1728 N1725 1.350 . S
C1728 C1727 1.434 . S
C1729 C1730 1.369 . S
C1729 C1731 1.419 . S
C1729 H1733 0.930 . S
C1730 C1729 1.369 . S
C1730 C1739 1.429 . S
C1731 C1729 1.419 . S
C1731 C1732 1.363 . S
C1731 H1734 0.929 . S
C1732 C1731 1.363 . S
C1732 C1738 1.428 . S
H1733 C1729 0.930 . S
H1734 C1731 0.929 . S
S1735 N1736 1.613 . S
S1735 N1737 1.610 . S
N1736 S1735 1.613 . S
N1736 C1739 1.350 . S
N1737 S1735 1.610 . S
N1737 C1738 1.351 . S
C1738 C1732 1.428 . S
C1738 N1737 1.351 . S
C1738 C1739 1.434 . S
C1739 C1730 1.429 . S
C1739 N1736 1.350 . S
C1739 C1738 1.434 . S
C1740 C1741 1.369 . S
C1740 C1742 1.419 . S
C1740 H1744 0.930 . S
C1741 C1740 1.369 . S
C1741 C1750 1.429 . S
C1742 C1740 1.419 . S
C1742 C1743 1.363 . S
C1742 H1745 0.929 . S
C1743 C1742 1.363 . S
C1743 C1749 1.428 . S
H1744 C1740 0.930 . S
H1745 C1742 0.929 . S
S1746 N1747 1.613 . S
S1746 N1748 1.610 . S
N1747 S1746 1.613 . S
N1747 C1750 1.350 . S
N1748 S1746 1.610 . S
N1748 C1749 1.351 . S
C1749 C1743 1.428 . S
C1749 N1748 1.351 . S
C1749 C1750 1.434 . S
C1750 C1741 1.429 . S
C1750 N1747 1.350 . S
C1750 C1749 1.434 . S
C1751 C1752 1.369 . S
C1751 C1753 1.419 . S
C1751 H1755 0.930 . S
C1752 C1751 1.369 . S
C1752 C1761 1.429 . S
C1753 C1751 1.419 . S
C1753 C1754 1.363 . S
C1753 H1756 0.929 . S
C1754 C1753 1.363 . S
C1754 C1760 1.428 . S
H1755 C1751 0.930 . S
H1756 C1753 0.929 . S
S1757 N1758 1.613 . S
S1757 N1759 1.610 . S
N1758 S1757 1.613 . S
N1758 C1761 1.350 . S
N1759 S1757 1.610 . S
N1759 C1760 1.351 . S
C1760 C1754 1.428 . S
C1760 N1759 1.351 . S
C1760 C1761 1.434 . S
C1761 C1752 1.429 . S
C1761 N1758 1.350 . S
C1761 C1760 1.434 . S
C1762 C1763 1.369 . S
C1762 C1764 1.419 . S
C1762 H1766 0.930 . S
C1763 C1762 1.369 . S
C1763 C1772 1.429 . S
C1764 C1762 1.419 . S
C1764 C1765 1.363 . S
C1764 H1767 0.929 . S
C1765 C1764 1.363 . S
C1765 C1771 1.428 . S
H1766 C1762 0.930 . S
H1767 C1764 0.929 . S
S1768 N1769 1.613 . S
S1768 N1770 1.610 . S
N1769 S1768 1.613 . S
N1769 C1772 1.350 . S
N1770 S1768 1.610 . S
N1770 C1771 1.351 . S
C1771 C1765 1.428 . S
C1771 N1770 1.351 . S
C1771 C1772 1.434 . S
C1772 C1763 1.429 . S
C1772 N1769 1.350 . S
C1772 C1771 1.434 . S
C1773 C1774 1.369 . S
C1773 C1775 1.419 . S
C1773 H1777 0.930 . S
C1774 C1773 1.369 . S
C1774 C1783 1.429 . S
C1775 C1773 1.419 . S
C1775 C1776 1.363 . S
C1775 H1778 0.929 . S
C1776 C1775 1.363 . S
C1776 C1782 1.428 . S
H1777 C1773 0.930 . S
H1778 C1775 0.929 . S
S1779 N1780 1.613 . S
S1779 N1781 1.610 . S
N1780 S1779 1.613 . S
N1780 C1783 1.350 . S
N1781 S1779 1.610 . S
N1781 C1782 1.351 . S
C1782 C1776 1.428 . S
C1782 N1781 1.351 . S
C1782 C1783 1.434 . S
C1783 C1774 1.429 . S
C1783 N1780 1.350 . S
C1783 C1782 1.434 . S
C1784 C1785 1.369 . S
C1784 C1786 1.419 . S
C1784 H1788 0.930 . S
C1785 C1784 1.369 . S
C1785 C1794 1.429 . S
C1786 C1784 1.419 . S
C1786 C1787 1.363 . S
C1786 H1789 0.929 . S
C1787 C1786 1.363 . S
C1787 C1793 1.428 . S
H1788 C1784 0.930 . S
H1789 C1786 0.929 . S
S1790 N1791 1.613 . S
S1790 N1792 1.610 . S
N1791 S1790 1.613 . S
N1791 C1794 1.350 . S
N1792 S1790 1.610 . S
N1792 C1793 1.351 . S
C1793 C1787 1.428 . S
C1793 N1792 1.351 . S
C1793 C1794 1.434 . S
C1794 C1785 1.429 . S
C1794 N1791 1.350 . S
C1794 C1793 1.434 . S
C1795 C1796 1.369 . S
C1795 C1797 1.419 . S
C1795 H1799 0.930 . S
C1796 C1795 1.369 . S
C1796 C1805 1.429 . S
C1797 C1795 1.419 . S
C1797 C1798 1.363 . S
C1797 H1800 0.929 . S
C1798 C1797 1.363 . S
C1798 C1804 1.428 . S
H1799 C1795 0.930 . S
H1800 C1797 0.929 . S
S1801 N1802 1.613 . S
S1801 N1803 1.610 . S
N1802 S1801 1.613 . S
N1802 C1805 1.350 . S
N1803 S1801 1.610 . S
N1803 C1804 1.351 . S
C1804 C1798 1.428 . S
C1804 N1803 1.351 . S
C1804 C1805 1.434 . S
C1805 C1796 1.429 . S
C1805 N1802 1.350 . S
C1805 C1804 1.434 . S
C1806 C1807 1.369 . S
C1806 C1808 1.419 . S
C1806 H1810 0.930 . S
C1807 C1806 1.369 . S
C1807 C1816 1.429 . S
C1808 C1806 1.419 . S
C1808 C1809 1.363 . S
C1808 H1811 0.929 . S
C1809 C1808 1.363 . S
C1809 C1815 1.428 . S
H1810 C1806 0.930 . S
H1811 C1808 0.929 . S
S1812 N1813 1.613 . S
S1812 N1814 1.610 . S
N1813 S1812 1.613 . S
N1813 C1816 1.350 . S
N1814 S1812 1.610 . S
N1814 C1815 1.351 . S
C1815 C1809 1.428 . S
C1815 N1814 1.351 . S
C1815 C1816 1.434 . S
C1816 C1807 1.429 . S
C1816 N1813 1.350 . S
C1816 C1815 1.434 . S
C1817 C1818 1.369 . S
C1817 C1819 1.419 . S
C1817 H1821 0.930 . S
C1818 C1817 1.369 . S
C1818 C1827 1.429 . S
C1819 C1817 1.419 . S
C1819 C1820 1.363 . S
C1819 H1822 0.929 . S
C1820 C1819 1.363 . S
C1820 C1826 1.428 . S
H1821 C1817 0.930 . S
H1822 C1819 0.929 . S
S1823 N1824 1.613 . S
S1823 N1825 1.610 . S
N1824 S1823 1.613 . S
N1824 C1827 1.350 . S
N1825 S1823 1.610 . S
N1825 C1826 1.351 . S
C1826 C1820 1.428 . S
C1826 N1825 1.351 . S
C1826 C1827 1.434 . S
C1827 C1818 1.429 . S
C1827 N1824 1.350 . S
C1827 C1826 1.434 . S
C1828 C1829 1.369 . S
C1828 C1830 1.419 . S
C1828 H1832 0.930 . S
C1829 C1828 1.369 . S
C1829 C1838 1.429 . S
C1830 C1828 1.419 . S
C1830 C1831 1.363 . S
C1830 H1833 0.929 . S
C1831 C1830 1.363 . S
C1831 C1837 1.428 . S
H1832 C1828 0.930 . S
H1833 C1830 0.929 . S
S1834 N1835 1.613 . S
S1834 N1836 1.610 . S
N1835 S1834 1.613 . S
N1835 C1838 1.350 . S
N1836 S1834 1.610 . S
N1836 C1837 1.351 . S
C1837 C1831 1.428 . S
C1837 N1836 1.351 . S
C1837 C1838 1.434 . S
C1838 C1829 1.429 . S
C1838 N1835 1.350 . S
C1838 C1837 1.434 . S
C1839 C1840 1.369 . S
C1839 C1841 1.419 . S
C1839 H1843 0.930 . S
C1840 C1839 1.369 . S
C1840 C1849 1.429 . S
C1841 C1839 1.419 . S
C1841 C1842 1.363 . S
C1841 H1844 0.929 . S
C1842 C1841 1.363 . S
C1842 C1848 1.428 . S
H1843 C1839 0.930 . S
H1844 C1841 0.929 . S
S1845 N1846 1.613 . S
S1845 N1847 1.610 . S
N1846 S1845 1.613 . S
N1846 C1849 1.350 . S
N1847 S1845 1.610 . S
N1847 C1848 1.351 . S
C1848 C1842 1.428 . S
C1848 N1847 1.351 . S
C1848 C1849 1.434 . S
C1849 C1840 1.429 . S
C1849 N1846 1.350 . S
C1849 C1848 1.434 . S
C1850 C1851 1.369 . S
C1850 C1852 1.419 . S
C1850 H1854 0.930 . S
C1851 C1850 1.369 . S
C1851 C1860 1.429 . S
C1852 C1850 1.419 . S
C1852 C1853 1.363 . S
C1852 H1855 0.929 . S
C1853 C1852 1.363 . S
C1853 C1859 1.428 . S
H1854 C1850 0.930 . S
H1855 C1852 0.929 . S
S1856 N1857 1.613 . S
S1856 N1858 1.610 . S
N1857 S1856 1.613 . S
N1857 C1860 1.350 . S
N1858 S1856 1.610 . S
N1858 C1859 1.351 . S
C1859 C1853 1.428 . S
C1859 N1858 1.351 . S
C1859 C1860 1.434 . S
C1860 C1851 1.429 . S
C1860 N1857 1.350 . S
C1860 C1859 1.434 . S
C1861 C1862 1.369 . S
C1861 C1863 1.419 . S
C1861 H1865 0.930 . S
C1862 C1861 1.369 . S
C1862 C1871 1.429 . S
C1863 C1861 1.419 . S
C1863 C1864 1.363 . S
C1863 H1866 0.929 . S
C1864 C1863 1.363 . S
C1864 C1870 1.428 . S
H1865 C1861 0.930 . S
H1866 C1863 0.929 . S
S1867 N1868 1.613 . S
S1867 N1869 1.610 . S
N1868 S1867 1.613 . S
N1868 C1871 1.350 . S
N1869 S1867 1.610 . S
N1869 C1870 1.351 . S
C1870 C1864 1.428 . S
C1870 N1869 1.351 . S
C1870 C1871 1.434 . S
C1871 C1862 1.429 . S
C1871 N1868 1.350 . S
C1871 C1870 1.434 . S
C1872 C1873 1.369 . S
C1872 C1874 1.419 . S
C1872 H1876 0.930 . S
C1873 C1872 1.369 . S
C1873 C1882 1.429 . S
C1874 C1872 1.419 . S
C1874 C1875 1.363 . S
C1874 H1877 0.929 . S
C1875 C1874 1.363 . S
C1875 C1881 1.428 . S
H1876 C1872 0.930 . S
H1877 C1874 0.929 . S
S1878 N1879 1.613 . S
S1878 N1880 1.610 . S
N1879 S1878 1.613 . S
N1879 C1882 1.350 . S
N1880 S1878 1.610 . S
N1880 C1881 1.351 . S
C1881 C1875 1.428 . S
C1881 N1880 1.351 . S
C1881 C1882 1.434 . S
C1882 C1873 1.429 . S
C1882 N1879 1.350 . S
C1882 C1881 1.434 . S
C1883 C1884 1.369 . S
C1883 C1885 1.419 . S
C1883 H1887 0.930 . S
C1884 C1883 1.369 . S
C1884 C1893 1.429 . S
C1885 C1883 1.419 . S
C1885 C1886 1.363 . S
C1885 H1888 0.929 . S
C1886 C1885 1.363 . S
C1886 C1892 1.428 . S
H1887 C1883 0.930 . S
H1888 C1885 0.929 . S
S1889 N1890 1.613 . S
S1889 N1891 1.610 . S
N1890 S1889 1.613 . S
N1890 C1893 1.350 . S
N1891 S1889 1.610 . S
N1891 C1892 1.351 . S
C1892 C1886 1.428 . S
C1892 N1891 1.351 . S
C1892 C1893 1.434 . S
C1893 C1884 1.429 . S
C1893 N1890 1.350 . S
C1893 C1892 1.434 . S
C1894 C1895 1.369 . S
C1894 C1896 1.419 . S
C1894 H1898 0.930 . S
C1895 C1894 1.369 . S
C1895 C1904 1.429 . S
C1896 C1894 1.419 . S
C1896 C1897 1.363 . S
C1896 H1899 0.929 . S
C1897 C1896 1.363 . S
C1897 C1903 1.428 . S
H1898 C1894 0.930 . S
H1899 C1896 0.929 . S
S1900 N1901 1.613 . S
S1900 N1902 1.610 . S
N1901 S1900 1.613 . S
N1901 C1904 1.350 . S
N1902 S1900 1.610 . S
N1902 C1903 1.351 . S
C1903 C1897 1.428 . S
C1903 N1902 1.351 . S
C1903 C1904 1.434 . S
C1904 C1895 1.429 . S
C1904 N1901 1.350 . S
C1904 C1903 1.434 . S
C1905 C1906 1.369 . S
C1905 C1907 1.419 . S
C1905 H1909 0.930 . S
C1906 C1905 1.369 . S
C1906 C1915 1.429 . S
C1907 C1905 1.419 . S
C1907 C1908 1.363 . S
C1907 H1910 0.929 . S
C1908 C1907 1.363 . S
C1908 C1914 1.428 . S
H1909 C1905 0.930 . S
H1910 C1907 0.929 . S
S1911 N1912 1.613 . S
S1911 N1913 1.610 . S
N1912 S1911 1.613 . S
N1912 C1915 1.350 . S
N1913 S1911 1.610 . S
N1913 C1914 1.351 . S
C1914 C1908 1.428 . S
C1914 N1913 1.351 . S
C1914 C1915 1.434 . S
C1915 C1906 1.429 . S
C1915 N1912 1.350 . S
C1915 C1914 1.434 . S
C1916 C1917 1.369 . S
C1916 C1918 1.419 . S
C1916 H1920 0.930 . S
C1917 C1916 1.369 . S
C1917 C1926 1.429 . S
C1918 C1916 1.419 . S
C1918 C1919 1.363 . S
C1918 H1921 0.929 . S
C1919 C1918 1.363 . S
C1919 C1925 1.428 . S
H1920 C1916 0.930 . S
H1921 C1918 0.929 . S
S1922 N1923 1.613 . S
S1922 N1924 1.610 . S
N1923 S1922 1.613 . S
N1923 C1926 1.350 . S
N1924 S1922 1.610 . S
N1924 C1925 1.351 . S
C1925 C1919 1.428 . S
C1925 N1924 1.351 . S
C1925 C1926 1.434 . S
C1926 C1917 1.429 . S
C1926 N1923 1.350 . S
C1926 C1925 1.434 . S
C1927 C1928 1.369 . S
C1927 C1929 1.419 . S
C1927 H1931 0.930 . S
C1928 C1927 1.369 . S
C1928 C1937 1.429 . S
C1929 C1927 1.419 . S
C1929 C1930 1.363 . S
C1929 H1932 0.929 . S
C1930 C1929 1.363 . S
C1930 C1936 1.428 . S
H1931 C1927 0.930 . S
H1932 C1929 0.929 . S
S1933 N1934 1.613 . S
S1933 N1935 1.610 . S
N1934 S1933 1.613 . S
N1934 C1937 1.350 . S
N1935 S1933 1.610 . S
N1935 C1936 1.351 . S
C1936 C1930 1.428 . S
C1936 N1935 1.351 . S
C1936 C1937 1.434 . S
C1937 C1928 1.429 . S
C1937 N1934 1.350 . S
C1937 C1936 1.434 . S
C1938 C1939 1.369 . S
C1938 C1940 1.419 . S
C1938 H1942 0.930 . S
C1939 C1938 1.369 . S
C1939 C1948 1.429 . S
C1940 C1938 1.419 . S
C1940 C1941 1.363 . S
C1940 H1943 0.929 . S
C1941 C1940 1.363 . S
C1941 C1947 1.428 . S
H1942 C1938 0.930 . S
H1943 C1940 0.929 . S
S1944 N1945 1.613 . S
S1944 N1946 1.610 . S
N1945 S1944 1.613 . S
N1945 C1948 1.350 . S
N1946 S1944 1.610 . S
N1946 C1947 1.351 . S
C1947 C1941 1.428 . S
C1947 N1946 1.351 . S
C1947 C1948 1.434 . S
C1948 C1939 1.429 . S
C1948 N1945 1.350 . S
C1948 C1947 1.434 . S
C1949 C1950 1.369 . S
C1949 C1951 1.419 . S
C1949 H1953 0.930 . S
C1950 C1949 1.369 . S
C1950 C1959 1.429 . S
C1951 C1949 1.419 . S
C1951 C1952 1.363 . S
C1951 H1954 0.929 . S
C1952 C1951 1.363 . S
C1952 C1958 1.428 . S
H1953 C1949 0.930 . S
H1954 C1951 0.929 . S
S1955 N1956 1.613 . S
S1955 N1957 1.610 . S
N1956 S1955 1.613 . S
N1956 C1959 1.350 . S
N1957 S1955 1.610 . S
N1957 C1958 1.351 . S
C1958 C1952 1.428 . S
C1958 N1957 1.351 . S
C1958 C1959 1.434 . S
C1959 C1950 1.429 . S
C1959 N1956 1.350 . S
C1959 C1958 1.434 . S
C1960 C1961 1.369 . S
C1960 C1962 1.419 . S
C1960 H1964 0.930 . S
C1961 C1960 1.369 . S
C1961 C1970 1.429 . S
C1962 C1960 1.419 . S
C1962 C1963 1.363 . S
C1962 H1965 0.929 . S
C1963 C1962 1.363 . S
C1963 C1969 1.428 . S
H1964 C1960 0.930 . S
H1965 C1962 0.929 . S
S1966 N1967 1.613 . S
S1966 N1968 1.610 . S
N1967 S1966 1.613 . S
N1967 C1970 1.350 . S
N1968 S1966 1.610 . S
N1968 C1969 1.351 . S
C1969 C1963 1.428 . S
C1969 N1968 1.351 . S
C1969 C1970 1.434 . S
C1970 C1961 1.429 . S
C1970 N1967 1.350 . S
C1970 C1969 1.434 . S
C1971 C1972 1.369 . S
C1971 C1973 1.419 . S
C1971 H1975 0.930 . S
C1972 C1971 1.369 . S
C1972 C1981 1.429 . S
C1973 C1971 1.419 . S
C1973 C1974 1.363 . S
C1973 H1976 0.929 . S
C1974 C1973 1.363 . S
C1974 C1980 1.428 . S
H1975 C1971 0.930 . S
H1976 C1973 0.929 . S
S1977 N1978 1.613 . S
S1977 N1979 1.610 . S
N1978 S1977 1.613 . S
N1978 C1981 1.350 . S
N1979 S1977 1.610 . S
N1979 C1980 1.351 . S
C1980 C1974 1.428 . S
C1980 N1979 1.351 . S
C1980 C1981 1.434 . S
C1981 C1972 1.429 . S
C1981 N1978 1.350 . S
C1981 C1980 1.434 . S
C1982 C1983 1.369 . S
C1982 C1984 1.419 . S
C1982 H1986 0.930 . S
C1983 C1982 1.369 . S
C1983 C1992 1.429 . S
C1984 C1982 1.419 . S
C1984 C1985 1.363 . S
C1984 H1987 0.929 . S
C1985 C1984 1.363 . S
C1985 C1991 1.428 . S
H1986 C1982 0.930 . S
H1987 C1984 0.929 . S
S1988 N1989 1.613 . S
S1988 N1990 1.610 . S
N1989 S1988 1.613 . S
N1989 C1992 1.350 . S
N1990 S1988 1.610 . S
N1990 C1991 1.351 . S
C1991 C1985 1.428 . S
C1991 N1990 1.351 . S
C1991 C1992 1.434 . S
C1992 C1983 1.429 . S
C1992 N1989 1.350 . S
C1992 C1991 1.434 . S
C1993 C1994 1.369 . S
C1993 C1995 1.419 . S
C1993 H1997 0.930 . S
C1994 C1993 1.369 . S
C1994 C2003 1.429 . S
C1995 C1993 1.419 . S
C1995 C1996 1.363 . S
C1995 H1998 0.929 . S
C1996 C1995 1.363 . S
C1996 C2002 1.428 . S
H1997 C1993 0.930 . S
H1998 C1995 0.929 . S
S1999 N2000 1.613 . S
S1999 N2001 1.610 . S
N2000 S1999 1.613 . S
N2000 C2003 1.350 . S
N2001 S1999 1.610 . S
N2001 C2002 1.351 . S
C2002 C1996 1.428 . S
C2002 N2001 1.351 . S
C2002 C2003 1.434 . S
C2003 C1994 1.429 . S
C2003 N2000 1.350 . S
C2003 C2002 1.434 . S
C2004 C2005 1.369 . S
C2004 C2006 1.419 . S
C2004 H2008 0.930 . S
C2005 C2004 1.369 . S
C2005 C2014 1.429 . S
C2006 C2004 1.419 . S
C2006 C2007 1.363 . S
C2006 H2009 0.929 . S
C2007 C2006 1.363 . S
C2007 C2013 1.428 . S
H2008 C2004 0.930 . S
H2009 C2006 0.929 . S
S2010 N2011 1.613 . S
S2010 N2012 1.610 . S
N2011 S2010 1.613 . S
N2011 C2014 1.350 . S
N2012 S2010 1.610 . S
N2012 C2013 1.351 . S
C2013 C2007 1.428 . S
C2013 N2012 1.351 . S
C2013 C2014 1.434 . S
C2014 C2005 1.429 . S
C2014 N2011 1.350 . S
C2014 C2013 1.434 . S
C2015 C2016 1.369 . S
C2015 C2017 1.419 . S
C2015 H2019 0.930 . S
C2016 C2015 1.369 . S
C2016 C2025 1.429 . S
C2017 C2015 1.419 . S
C2017 C2018 1.363 . S
C2017 H2020 0.929 . S
C2018 C2017 1.363 . S
C2018 C2024 1.428 . S
H2019 C2015 0.930 . S
H2020 C2017 0.929 . S
S2021 N2022 1.613 . S
S2021 N2023 1.610 . S
N2022 S2021 1.613 . S
N2022 C2025 1.350 . S
N2023 S2021 1.610 . S
N2023 C2024 1.351 . S
C2024 C2018 1.428 . S
C2024 N2023 1.351 . S
C2024 C2025 1.434 . S
C2025 C2016 1.429 . S
C2025 N2022 1.350 . S
C2025 C2024 1.434 . S
C2026 C2027 1.369 . S
C2026 C2028 1.419 . S
C2026 H2030 0.930 . S
C2027 C2026 1.369 . S
C2027 C2036 1.429 . S
C2028 C2026 1.419 . S
C2028 C2029 1.363 . S
C2028 H2031 0.929 . S
C2029 C2028 1.363 . S
C2029 C2035 1.428 . S
H2030 C2026 0.930 . S
H2031 C2028 0.929 . S
S2032 N2033 1.613 . S
S2032 N2034 1.610 . S
N2033 S2032 1.613 . S
N2033 C2036 1.350 . S
N2034 S2032 1.610 . S
N2034 C2035 1.351 . S
C2035 C2029 1.428 . S
C2035 N2034 1.351 . S
C2035 C2036 1.434 . S
C2036 C2027 1.429 . S
C2036 N2033 1.350 . S
C2036 C2035 1.434 . S
C2037 C2038 1.369 . S
C2037 C2039 1.419 . S
C2037 H2041 0.930 . S
C2038 C2037 1.369 . S
C2038 C2047 1.429 . S
C2039 C2037 1.419 . S
C2039 C2040 1.363 . S
C2039 H2042 0.929 . S
C2040 C2039 1.363 . S
C2040 C2046 1.428 . S
H2041 C2037 0.930 . S
H2042 C2039 0.929 . S
S2043 N2044 1.613 . S
S2043 N2045 1.610 . S
N2044 S2043 1.613 . S
N2044 C2047 1.350 . S
N2045 S2043 1.610 . S
N2045 C2046 1.351 . S
C2046 C2040 1.428 . S
C2046 N2045 1.351 . S
C2046 C2047 1.434 . S
C2047 C2038 1.429 . S
C2047 N2044 1.350 . S
C2047 C2046 1.434 . S
C2048 C2049 1.369 . S
C2048 C2050 1.419 . S
C2048 H2052 0.930 . S
C2049 C2048 1.369 . S
C2049 C2058 1.429 . S
C2050 C2048 1.419 . S
C2050 C2051 1.363 . S
C2050 H2053 0.929 . S
C2051 C2050 1.363 . S
C2051 C2057 1.428 . S
H2052 C2048 0.930 . S
H2053 C2050 0.929 . S
S2054 N2055 1.613 . S
S2054 N2056 1.610 . S
N2055 S2054 1.613 . S
N2055 C2058 1.350 . S
N2056 S2054 1.610 . S
N2056 C2057 1.351 . S
C2057 C2051 1.428 . S
C2057 N2056 1.351 . S
C2057 C2058 1.434 . S
C2058 C2049 1.429 . S
C2058 N2055 1.350 . S
C2058 C2057 1.434 . S
C2059 C2060 1.369 . S
C2059 C2061 1.419 . S
C2059 H2063 0.930 . S
C2060 C2059 1.369 . S
C2060 C2069 1.429 . S
C2061 C2059 1.419 . S
C2061 C2062 1.363 . S
C2061 H2064 0.929 . S
C2062 C2061 1.363 . S
C2062 C2068 1.428 . S
H2063 C2059 0.930 . S
H2064 C2061 0.929 . S
S2065 N2066 1.613 . S
S2065 N2067 1.610 . S
N2066 S2065 1.613 . S
N2066 C2069 1.350 . S
N2067 S2065 1.610 . S
N2067 C2068 1.351 . S
C2068 C2062 1.428 . S
C2068 N2067 1.351 . S
C2068 C2069 1.434 . S
C2069 C2060 1.429 . S
C2069 N2066 1.350 . S
C2069 C2068 1.434 . S
C2070 C2071 1.369 . S
C2070 C2072 1.419 . S
C2070 H2074 0.930 . S
C2071 C2070 1.369 . S
C2071 C2080 1.429 . S
C2072 C2070 1.419 . S
C2072 C2073 1.363 . S
C2072 H2075 0.929 . S
C2073 C2072 1.363 . S
C2073 C2079 1.428 . S
H2074 C2070 0.930 . S
H2075 C2072 0.929 . S
S2076 N2077 1.613 . S
S2076 N2078 1.610 . S
N2077 S2076 1.613 . S
N2077 C2080 1.350 . S
N2078 S2076 1.610 . S
N2078 C2079 1.351 . S
C2079 C2073 1.428 . S
C2079 N2078 1.351 . S
C2079 C2080 1.434 . S
C2080 C2071 1.429 . S
C2080 N2077 1.350 . S
C2080 C2079 1.434 . S
C2081 C2082 1.369 . S
C2081 C2083 1.419 . S
C2081 H2085 0.930 . S
C2082 C2081 1.369 . S
C2082 C2091 1.429 . S
C2083 C2081 1.419 . S
C2083 C2084 1.363 . S
C2083 H2086 0.929 . S
C2084 C2083 1.363 . S
C2084 C2090 1.428 . S
H2085 C2081 0.930 . S
H2086 C2083 0.929 . S
S2087 N2088 1.613 . S
S2087 N2089 1.610 . S
N2088 S2087 1.613 . S
N2088 C2091 1.350 . S
N2089 S2087 1.610 . S
N2089 C2090 1.351 . S
C2090 C2084 1.428 . S
C2090 N2089 1.351 . S
C2090 C2091 1.434 . S
C2091 C2082 1.429 . S
C2091 N2088 1.350 . S
C2091 C2090 1.434 . S
C2092 C2093 1.369 . S
C2092 C2094 1.419 . S
C2092 H2096 0.930 . S
C2093 C2092 1.369 . S
C2093 C2102 1.429 . S
C2094 C2092 1.419 . S
C2094 C2095 1.363 . S
C2094 H2097 0.929 . S
C2095 C2094 1.363 . S
C2095 C2101 1.428 . S
H2096 C2092 0.930 . S
H2097 C2094 0.929 . S
S2098 N2099 1.613 . S
S2098 N2100 1.610 . S
N2099 S2098 1.613 . S
N2099 C2102 1.350 . S
N2100 S2098 1.610 . S
N2100 C2101 1.351 . S
C2101 C2095 1.428 . S
C2101 N2100 1.351 . S
C2101 C2102 1.434 . S
C2102 C2093 1.429 . S
C2102 N2099 1.350 . S
C2102 C2101 1.434 . S
C2103 C2104 1.369 . S
C2103 C2105 1.419 . S
C2103 H2107 0.930 . S
C2104 C2103 1.369 . S
C2104 C2113 1.429 . S
C2105 C2103 1.419 . S
C2105 C2106 1.363 . S
C2105 H2108 0.929 . S
C2106 C2105 1.363 . S
C2106 C2112 1.428 . S
H2107 C2103 0.930 . S
H2108 C2105 0.929 . S
S2109 N2110 1.613 . S
S2109 N2111 1.610 . S
N2110 S2109 1.613 . S
N2110 C2113 1.350 . S
N2111 S2109 1.610 . S
N2111 C2112 1.351 . S
C2112 C2106 1.428 . S
C2112 N2111 1.351 . S
C2112 C2113 1.434 . S
C2113 C2104 1.429 . S
C2113 N2110 1.350 . S
C2113 C2112 1.434 . S
C2114 C2115 1.369 . S
C2114 C2116 1.419 . S
C2114 H2118 0.930 . S
C2115 C2114 1.369 . S
C2115 C2124 1.429 . S
C2116 C2114 1.419 . S
C2116 C2117 1.363 . S
C2116 H2119 0.929 . S
C2117 C2116 1.363 . S
C2117 C2123 1.428 . S
H2118 C2114 0.930 . S
H2119 C2116 0.929 . S
S2120 N2121 1.613 . S
S2120 N2122 1.610 . S
N2121 S2120 1.613 . S
N2121 C2124 1.350 . S
N2122 S2120 1.610 . S
N2122 C2123 1.351 . S
C2123 C2117 1.428 . S
C2123 N2122 1.351 . S
C2123 C2124 1.434 . S
C2124 C2115 1.429 . S
C2124 N2121 1.350 . S
C2124 C2123 1.434 . S
C2125 C2126 1.369 . S
C2125 C2127 1.419 . S
C2125 H2129 0.930 . S
C2126 C2125 1.369 . S
C2126 C2135 1.429 . S
C2127 C2125 1.419 . S
C2127 C2128 1.363 . S
C2127 H2130 0.929 . S
C2128 C2127 1.363 . S
C2128 C2134 1.428 . S
H2129 C2125 0.930 . S
H2130 C2127 0.929 . S
S2131 N2132 1.613 . S
S2131 N2133 1.610 . S
N2132 S2131 1.613 . S
N2132 C2135 1.350 . S
N2133 S2131 1.610 . S
N2133 C2134 1.351 . S
C2134 C2128 1.428 . S
C2134 N2133 1.351 . S
C2134 C2135 1.434 . S
C2135 C2126 1.429 . S
C2135 N2132 1.350 . S
C2135 C2134 1.434 . S
C2136 C2137 1.369 . S
C2136 C2138 1.419 . S
C2136 H2140 0.930 . S
C2137 C2136 1.369 . S
C2137 C2146 1.429 . S
C2138 C2136 1.419 . S
C2138 C2139 1.363 . S
C2138 H2141 0.929 . S
C2139 C2138 1.363 . S
C2139 C2145 1.428 . S
H2140 C2136 0.930 . S
H2141 C2138 0.929 . S
S2142 N2143 1.613 . S
S2142 N2144 1.610 . S
N2143 S2142 1.613 . S
N2143 C2146 1.350 . S
N2144 S2142 1.610 . S
N2144 C2145 1.351 . S
C2145 C2139 1.428 . S
C2145 N2144 1.351 . S
C2145 C2146 1.434 . S
C2146 C2137 1.429 . S
C2146 N2143 1.350 . S
C2146 C2145 1.434 . S
C2147 C2148 1.369 . S
C2147 C2149 1.419 . S
C2147 H2151 0.930 . S
C2148 C2147 1.369 . S
C2148 C2157 1.429 . S
C2149 C2147 1.419 . S
C2149 C2150 1.363 . S
C2149 H2152 0.929 . S
C2150 C2149 1.363 . S
C2150 C2156 1.428 . S
H2151 C2147 0.930 . S
H2152 C2149 0.929 . S
S2153 N2154 1.613 . S
S2153 N2155 1.610 . S
N2154 S2153 1.613 . S
N2154 C2157 1.350 . S
N2155 S2153 1.610 . S
N2155 C2156 1.351 . S
C2156 C2150 1.428 . S
C2156 N2155 1.351 . S
C2156 C2157 1.434 . S
C2157 C2148 1.429 . S
C2157 N2154 1.350 . S
C2157 C2156 1.434 . S
C2158 C2159 1.369 . S
C2158 C2160 1.419 . S
C2158 H2162 0.930 . S
C2159 C2158 1.369 . S
C2159 C2168 1.429 . S
C2160 C2158 1.419 . S
C2160 C2161 1.363 . S
C2160 H2163 0.929 . S
C2161 C2160 1.363 . S
C2161 C2167 1.428 . S
H2162 C2158 0.930 . S
H2163 C2160 0.929 . S
S2164 N2165 1.613 . S
S2164 N2166 1.610 . S
N2165 S2164 1.613 . S
N2165 C2168 1.350 . S
N2166 S2164 1.610 . S
N2166 C2167 1.351 . S
C2167 C2161 1.428 . S
C2167 N2166 1.351 . S
C2167 C2168 1.434 . S
C2168 C2159 1.429 . S
C2168 N2165 1.350 . S
C2168 C2167 1.434 . S
C2169 C2170 1.369 . S
C2169 C2171 1.419 . S
C2169 H2173 0.930 . S
C2170 C2169 1.369 . S
C2170 C2179 1.429 . S
C2171 C2169 1.419 . S
C2171 C2172 1.363 . S
C2171 H2174 0.929 . S
C2172 C2171 1.363 . S
C2172 C2178 1.428 . S
H2173 C2169 0.930 . S
H2174 C2171 0.929 . S
S2175 N2176 1.613 . S
S2175 N2177 1.610 . S
N2176 S2175 1.613 . S
N2176 C2179 1.350 . S
N2177 S2175 1.610 . S
N2177 C2178 1.351 . S
C2178 C2172 1.428 . S
C2178 N2177 1.351 . S
C2178 C2179 1.434 . S
C2179 C2170 1.429 . S
C2179 N2176 1.350 . S
C2179 C2178 1.434 . S
C2180 C2181 1.369 . S
C2180 C2182 1.419 . S
C2180 H2184 0.930 . S
C2181 C2180 1.369 . S
C2181 C2190 1.429 . S
C2182 C2180 1.419 . S
C2182 C2183 1.363 . S
C2182 H2185 0.929 . S
C2183 C2182 1.363 . S
C2183 C2189 1.428 . S
H2184 C2180 0.930 . S
H2185 C2182 0.929 . S
S2186 N2187 1.613 . S
S2186 N2188 1.610 . S
N2187 S2186 1.613 . S
N2187 C2190 1.350 . S
N2188 S2186 1.610 . S
N2188 C2189 1.351 . S
C2189 C2183 1.428 . S
C2189 N2188 1.351 . S
C2189 C2190 1.434 . S
C2190 C2181 1.429 . S
C2190 N2187 1.350 . S
C2190 C2189 1.434 . S
C2191 C2192 1.369 . S
C2191 C2193 1.419 . S
C2191 H2195 0.930 . S
C2192 C2191 1.369 . S
C2192 C2201 1.429 . S
C2193 C2191 1.419 . S
C2193 C2194 1.363 . S
C2193 H2196 0.929 . S
C2194 C2193 1.363 . S
C2194 C2200 1.428 . S
H2195 C2191 0.930 . S
H2196 C2193 0.929 . S
S2197 N2198 1.613 . S
S2197 N2199 1.610 . S
N2198 S2197 1.613 . S
N2198 C2201 1.350 . S
N2199 S2197 1.610 . S
N2199 C2200 1.351 . S
C2200 C2194 1.428 . S
C2200 N2199 1.351 . S
C2200 C2201 1.434 . S
C2201 C2192 1.429 . S
C2201 N2198 1.350 . S
C2201 C2200 1.434 . S
C2202 C2203 1.369 . S
C2202 C2204 1.419 . S
C2202 H2206 0.930 . S
C2203 C2202 1.369 . S
C2203 C2212 1.429 . S
C2204 C2202 1.419 . S
C2204 C2205 1.363 . S
C2204 H2207 0.929 . S
C2205 C2204 1.363 . S
C2205 C2211 1.428 . S
H2206 C2202 0.930 . S
H2207 C2204 0.929 . S
S2208 N2209 1.613 . S
S2208 N2210 1.610 . S
N2209 S2208 1.613 . S
N2209 C2212 1.350 . S
N2210 S2208 1.610 . S
N2210 C2211 1.351 . S
C2211 C2205 1.428 . S
C2211 N2210 1.351 . S
C2211 C2212 1.434 . S
C2212 C2203 1.429 . S
C2212 N2209 1.350 . S
C2212 C2211 1.434 . S
C2213 C2214 1.369 . S
C2213 C2215 1.419 . S
C2213 H2217 0.930 . S
C2214 C2213 1.369 . S
C2214 C2223 1.429 . S
C2215 C2213 1.419 . S
C2215 C2216 1.363 . S
C2215 H2218 0.929 . S
C2216 C2215 1.363 . S
C2216 C2222 1.428 . S
H2217 C2213 0.930 . S
H2218 C2215 0.929 . S
S2219 N2220 1.613 . S
S2219 N2221 1.610 . S
N2220 S2219 1.613 . S
N2220 C2223 1.350 . S
N2221 S2219 1.610 . S
N2221 C2222 1.351 . S
C2222 C2216 1.428 . S
C2222 N2221 1.351 . S
C2222 C2223 1.434 . S
C2223 C2214 1.429 . S
C2223 N2220 1.350 . S
C2223 C2222 1.434 . S
C2224 C2225 1.369 . S
C2224 C2226 1.419 . S
C2224 H2228 0.930 . S
C2225 C2224 1.369 . S
C2225 C2234 1.429 . S
C2226 C2224 1.419 . S
C2226 C2227 1.363 . S
C2226 H2229 0.929 . S
C2227 C2226 1.363 . S
C2227 C2233 1.428 . S
H2228 C2224 0.930 . S
H2229 C2226 0.929 . S
S2230 N2231 1.613 . S
S2230 N2232 1.610 . S
N2231 S2230 1.613 . S
N2231 C2234 1.350 . S
N2232 S2230 1.610 . S
N2232 C2233 1.351 . S
C2233 C2227 1.428 . S
C2233 N2232 1.351 . S
C2233 C2234 1.434 . S
C2234 C2225 1.429 . S
C2234 N2231 1.350 . S
C2234 C2233 1.434 . S
C2235 C2236 1.369 . S
C2235 C2237 1.419 . S
C2235 H2239 0.930 . S
C2236 C2235 1.369 . S
C2236 C2245 1.429 . S
C2237 C2235 1.419 . S
C2237 C2238 1.363 . S
C2237 H2240 0.929 . S
C2238 C2237 1.363 . S
C2238 C2244 1.428 . S
H2239 C2235 0.930 . S
H2240 C2237 0.929 . S
S2241 N2242 1.613 . S
S2241 N2243 1.610 . S
N2242 S2241 1.613 . S
N2242 C2245 1.350 . S
N2243 S2241 1.610 . S
N2243 C2244 1.351 . S
C2244 C2238 1.428 . S
C2244 N2243 1.351 . S
C2244 C2245 1.434 . S
C2245 C2236 1.429 . S
C2245 N2242 1.350 . S
C2245 C2244 1.434 . S
C2246 C2247 1.369 . S
C2246 C2248 1.419 . S
C2246 H2250 0.930 . S
C2247 C2246 1.369 . S
C2247 C2256 1.429 . S
C2248 C2246 1.419 . S
C2248 C2249 1.363 . S
C2248 H2251 0.929 . S
C2249 C2248 1.363 . S
C2249 C2255 1.428 . S
H2250 C2246 0.930 . S
H2251 C2248 0.929 . S
S2252 N2253 1.613 . S
S2252 N2254 1.610 . S
N2253 S2252 1.613 . S
N2253 C2256 1.350 . S
N2254 S2252 1.610 . S
N2254 C2255 1.351 . S
C2255 C2249 1.428 . S
C2255 N2254 1.351 . S
C2255 C2256 1.434 . S
C2256 C2247 1.429 . S
C2256 N2253 1.350 . S
C2256 C2255 1.434 . S
C2257 C2258 1.369 . S
C2257 C2259 1.419 . S
C2257 H2261 0.930 . S
C2258 C2257 1.369 . S
C2258 C2267 1.429 . S
C2259 C2257 1.419 . S
C2259 C2260 1.363 . S
C2259 H2262 0.929 . S
C2260 C2259 1.363 . S
C2260 C2266 1.428 . S
H2261 C2257 0.930 . S
H2262 C2259 0.929 . S
S2263 N2264 1.613 . S
S2263 N2265 1.610 . S
N2264 S2263 1.613 . S
N2264 C2267 1.350 . S
N2265 S2263 1.610 . S
N2265 C2266 1.351 . S
C2266 C2260 1.428 . S
C2266 N2265 1.351 . S
C2266 C2267 1.434 . S
C2267 C2258 1.429 . S
C2267 N2264 1.350 . S
C2267 C2266 1.434 . S
C2268 C2269 1.369 . S
C2268 C2270 1.419 . S
C2268 H2272 0.930 . S
C2269 C2268 1.369 . S
C2269 C2278 1.429 . S
C2270 C2268 1.419 . S
C2270 C2271 1.363 . S
C2270 H2273 0.929 . S
C2271 C2270 1.363 . S
C2271 C2277 1.428 . S
H2272 C2268 0.930 . S
H2273 C2270 0.929 . S
S2274 N2275 1.613 . S
S2274 N2276 1.610 . S
N2275 S2274 1.613 . S
N2275 C2278 1.350 . S
N2276 S2274 1.610 . S
N2276 C2277 1.351 . S
C2277 C2271 1.428 . S
C2277 N2276 1.351 . S
C2277 C2278 1.434 . S
C2278 C2269 1.429 . S
C2278 N2275 1.350 . S
C2278 C2277 1.434 . S
C2279 C2280 1.369 . S
C2279 C2281 1.419 . S
C2279 H2283 0.930 . S
C2280 C2279 1.369 . S
C2280 C2289 1.429 . S
C2281 C2279 1.419 . S
C2281 C2282 1.363 . S
C2281 H2284 0.929 . S
C2282 C2281 1.363 . S
C2282 C2288 1.428 . S
H2283 C2279 0.930 . S
H2284 C2281 0.929 . S
S2285 N2286 1.613 . S
S2285 N2287 1.610 . S
N2286 S2285 1.613 . S
N2286 C2289 1.350 . S
N2287 S2285 1.610 . S
N2287 C2288 1.351 . S
C2288 C2282 1.428 . S
C2288 N2287 1.351 . S
C2288 C2289 1.434 . S
C2289 C2280 1.429 . S
C2289 N2286 1.350 . S
C2289 C2288 1.434 . S
C2290 C2291 1.369 . S
C2290 C2292 1.419 . S
C2290 H2294 0.930 . S
C2291 C2290 1.369 . S
C2291 C2300 1.429 . S
C2292 C2290 1.419 . S
C2292 C2293 1.363 . S
C2292 H2295 0.929 . S
C2293 C2292 1.363 . S
C2293 C2299 1.428 . S
H2294 C2290 0.930 . S
H2295 C2292 0.929 . S
S2296 N2297 1.613 . S
S2296 N2298 1.610 . S
N2297 S2296 1.613 . S
N2297 C2300 1.350 . S
N2298 S2296 1.610 . S
N2298 C2299 1.351 . S
C2299 C2293 1.428 . S
C2299 N2298 1.351 . S
C2299 C2300 1.434 . S
C2300 C2291 1.429 . S
C2300 N2297 1.350 . S
C2300 C2299 1.434 . S
C2301 C2302 1.369 . S
C2301 C2303 1.419 . S
C2301 H2305 0.930 . S
C2302 C2301 1.369 . S
C2302 C2311 1.429 . S
C2303 C2301 1.419 . S
C2303 C2304 1.363 . S
C2303 H2306 0.929 . S
C2304 C2303 1.363 . S
C2304 C2310 1.428 . S
H2305 C2301 0.930 . S
H2306 C2303 0.929 . S
S2307 N2308 1.613 . S
S2307 N2309 1.610 . S
N2308 S2307 1.613 . S
N2308 C2311 1.350 . S
N2309 S2307 1.610 . S
N2309 C2310 1.351 . S
C2310 C2304 1.428 . S
C2310 N2309 1.351 . S
C2310 C2311 1.434 . S
C2311 C2302 1.429 . S
C2311 N2308 1.350 . S
C2311 C2310 1.434 . S
C2312 C2313 1.369 . S
C2312 C2314 1.419 . S
C2312 H2316 0.930 . S
C2313 C2312 1.369 . S
C2313 C2322 1.429 . S
C2314 C2312 1.419 . S
C2314 C2315 1.363 . S
C2314 H2317 0.929 . S
C2315 C2314 1.363 . S
C2315 C2321 1.428 . S
H2316 C2312 0.930 . S
H2317 C2314 0.929 . S
S2318 N2319 1.613 . S
S2318 N2320 1.610 . S
N2319 S2318 1.613 . S
N2319 C2322 1.350 . S
N2320 S2318 1.610 . S
N2320 C2321 1.351 . S
C2321 C2315 1.428 . S
C2321 N2320 1.351 . S
C2321 C2322 1.434 . S
C2322 C2313 1.429 . S
C2322 N2319 1.350 . S
C2322 C2321 1.434 . S
C2323 C2324 1.369 . S
C2323 C2325 1.419 . S
C2323 H2327 0.930 . S
C2324 C2323 1.369 . S
C2324 C2333 1.429 . S
C2325 C2323 1.419 . S
C2325 C2326 1.363 . S
C2325 H2328 0.929 . S
C2326 C2325 1.363 . S
C2326 C2332 1.428 . S
H2327 C2323 0.930 . S
H2328 C2325 0.929 . S
S2329 N2330 1.613 . S
S2329 N2331 1.610 . S
N2330 S2329 1.613 . S
N2330 C2333 1.350 . S
N2331 S2329 1.610 . S
N2331 C2332 1.351 . S
C2332 C2326 1.428 . S
C2332 N2331 1.351 . S
C2332 C2333 1.434 . S
C2333 C2324 1.429 . S
C2333 N2330 1.350 . S
C2333 C2332 1.434 . S
C2334 C2335 1.369 . S
C2334 C2336 1.419 . S
C2334 H2338 0.930 . S
C2335 C2334 1.369 . S
C2335 C2344 1.429 . S
C2336 C2334 1.419 . S
C2336 C2337 1.363 . S
C2336 H2339 0.929 . S
C2337 C2336 1.363 . S
C2337 C2343 1.428 . S
H2338 C2334 0.930 . S
H2339 C2336 0.929 . S
S2340 N2341 1.613 . S
S2340 N2342 1.610 . S
N2341 S2340 1.613 . S
N2341 C2344 1.350 . S
N2342 S2340 1.610 . S
N2342 C2343 1.351 . S
C2343 C2337 1.428 . S
C2343 N2342 1.351 . S
C2343 C2344 1.434 . S
C2344 C2335 1.429 . S
C2344 N2341 1.350 . S
C2344 C2343 1.434 . S
C2345 C2346 1.369 . S
C2345 C2347 1.419 . S
C2345 H2349 0.930 . S
C2346 C2345 1.369 . S
C2346 C2355 1.429 . S
C2347 C2345 1.419 . S
C2347 C2348 1.363 . S
C2347 H2350 0.929 . S
C2348 C2347 1.363 . S
C2348 C2354 1.428 . S
H2349 C2345 0.930 . S
H2350 C2347 0.929 . S
S2351 N2352 1.613 . S
S2351 N2353 1.610 . S
N2352 S2351 1.613 . S
N2352 C2355 1.350 . S
N2353 S2351 1.610 . S
N2353 C2354 1.351 . S
C2354 C2348 1.428 . S
C2354 N2353 1.351 . S
C2354 C2355 1.434 . S
C2355 C2346 1.429 . S
C2355 N2352 1.350 . S
C2355 C2354 1.434 . S
C2356 C2357 1.369 . S
C2356 C2358 1.419 . S
C2356 H2360 0.930 . S
C2357 C2356 1.369 . S
C2357 C2366 1.429 . S
C2358 C2356 1.419 . S
C2358 C2359 1.363 . S
C2358 H2361 0.929 . S
C2359 C2358 1.363 . S
C2359 C2365 1.428 . S
H2360 C2356 0.930 . S
H2361 C2358 0.929 . S
S2362 N2363 1.613 . S
S2362 N2364 1.610 . S
N2363 S2362 1.613 . S
N2363 C2366 1.350 . S
N2364 S2362 1.610 . S
N2364 C2365 1.351 . S
C2365 C2359 1.428 . S
C2365 N2364 1.351 . S
C2365 C2366 1.434 . S
C2366 C2357 1.429 . S
C2366 N2363 1.350 . S
C2366 C2365 1.434 . S
C2367 C2368 1.369 . S
C2367 C2369 1.419 . S
C2367 H2371 0.930 . S
C2368 C2367 1.369 . S
C2368 C2377 1.429 . S
C2369 C2367 1.419 . S
C2369 C2370 1.363 . S
C2369 H2372 0.929 . S
C2370 C2369 1.363 . S
C2370 C2376 1.428 . S
H2371 C2367 0.930 . S
H2372 C2369 0.929 . S
S2373 N2374 1.613 . S
S2373 N2375 1.610 . S
N2374 S2373 1.613 . S
N2374 C2377 1.350 . S
N2375 S2373 1.610 . S
N2375 C2376 1.351 . S
C2376 C2370 1.428 . S
C2376 N2375 1.351 . S
C2376 C2377 1.434 . S
C2377 C2368 1.429 . S
C2377 N2374 1.350 . S
C2377 C2376 1.434 . S
C2378 C2379 1.369 . S
C2378 C2380 1.419 . S
C2378 H2382 0.930 . S
C2379 C2378 1.369 . S
C2379 C2388 1.429 . S
C2380 C2378 1.419 . S
C2380 C2381 1.363 . S
C2380 H2383 0.929 . S
C2381 C2380 1.363 . S
C2381 C2387 1.428 . S
H2382 C2378 0.930 . S
H2383 C2380 0.929 . S
S2384 N2385 1.613 . S
S2384 N2386 1.610 . S
N2385 S2384 1.613 . S
N2385 C2388 1.350 . S
N2386 S2384 1.610 . S
N2386 C2387 1.351 . S
C2387 C2381 1.428 . S
C2387 N2386 1.351 . S
C2387 C2388 1.434 . S
C2388 C2379 1.429 . S
C2388 N2385 1.350 . S
C2388 C2387 1.434 . S
C2389 C2390 1.369 . S
C2389 C2391 1.419 . S
C2389 H2393 0.930 . S
C2390 C2389 1.369 . S
C2390 C2399 1.429 . S
C2391 C2389 1.419 . S
C2391 C2392 1.363 . S
C2391 H2394 0.929 . S
C2392 C2391 1.363 . S
C2392 C2398 1.428 . S
H2393 C2389 0.930 . S
H2394 C2391 0.929 . S
S2395 N2396 1.613 . S
S2395 N2397 1.610 . S
N2396 S2395 1.613 . S
N2396 C2399 1.350 . S
N2397 S2395 1.610 . S
N2397 C2398 1.351 . S
C2398 C2392 1.428 . S
C2398 N2397 1.351 . S
C2398 C2399 1.434 . S
C2399 C2390 1.429 . S
C2399 N2396 1.350 . S
C2399 C2398 1.434 . S
C2400 C2401 1.369 . S
C2400 C2402 1.419 . S
C2400 H2404 0.930 . S
C2401 C2400 1.369 . S
C2401 C2410 1.429 . S
C2402 C2400 1.419 . S
C2402 C2403 1.363 . S
C2402 H2405 0.929 . S
C2403 C2402 1.363 . S
C2403 C2409 1.428 . S
H2404 C2400 0.930 . S
H2405 C2402 0.929 . S
S2406 N2407 1.613 . S
S2406 N2408 1.610 . S
N2407 S2406 1.613 . S
N2407 C2410 1.350 . S
N2408 S2406 1.610 . S
N2408 C2409 1.351 . S
C2409 C2403 1.428 . S
C2409 N2408 1.351 . S
C2409 C2410 1.434 . S
C2410 C2401 1.429 . S
C2410 N2407 1.350 . S
C2410 C2409 1.434 . S
C2411 C2412 1.369 . S
C2411 C2413 1.419 . S
C2411 H2415 0.930 . S
C2412 C2411 1.369 . S
C2412 C2421 1.429 . S
C2413 C2411 1.419 . S
C2413 C2414 1.363 . S
C2413 H2416 0.929 . S
C2414 C2413 1.363 . S
C2414 C2420 1.428 . S
H2415 C2411 0.930 . S
H2416 C2413 0.929 . S
S2417 N2418 1.613 . S
S2417 N2419 1.610 . S
N2418 S2417 1.613 . S
N2418 C2421 1.350 . S
N2419 S2417 1.610 . S
N2419 C2420 1.351 . S
C2420 C2414 1.428 . S
C2420 N2419 1.351 . S
C2420 C2421 1.434 . S
C2421 C2412 1.429 . S
C2421 N2418 1.350 . S
C2421 C2420 1.434 . S
C2422 C2423 1.369 . S
C2422 C2424 1.419 . S
C2422 H2426 0.930 . S
C2423 C2422 1.369 . S
C2423 C2432 1.429 . S
C2424 C2422 1.419 . S
C2424 C2425 1.363 . S
C2424 H2427 0.929 . S
C2425 C2424 1.363 . S
C2425 C2431 1.428 . S
H2426 C2422 0.930 . S
H2427 C2424 0.929 . S
S2428 N2429 1.613 1_554 S
S2428 N2430 1.610 1_554 S
N2429 S2428 1.613 1_556 S
N2429 C2432 1.350 . S
N2430 S2428 1.610 1_556 S
N2430 C2431 1.351 . S
C2431 C2425 1.428 . S
C2431 N2430 1.351 . S
C2431 C2432 1.434 . S
C2432 C2423 1.429 . S
C2432 N2429 1.350 . S
C2432 C2431 1.434 . S
C2433 C2434 1.369 . S
C2433 C2435 1.419 . S
C2433 H2437 0.930 . S
C2434 C2433 1.369 . S
C2434 C2443 1.429 . S
C2435 C2433 1.419 . S
C2435 C2436 1.363 . S
C2435 H2438 0.929 . S
C2436 C2435 1.363 . S
C2436 C2442 1.428 . S
H2437 C2433 0.930 . S
H2438 C2435 0.929 . S
S2439 N2440 1.613 . S
S2439 N2441 1.610 . S
N2440 S2439 1.613 . S
N2440 C2443 1.350 . S
N2441 S2439 1.610 . S
N2441 C2442 1.351 . S
C2442 C2436 1.428 . S
C2442 N2441 1.351 . S
C2442 C2443 1.434 . S
C2443 C2434 1.429 . S
C2443 N2440 1.350 . S
C2443 C2442 1.434 . S
C2444 C2445 1.369 . S
C2444 C2446 1.419 . S
C2444 H2448 0.930 . S
C2445 C2444 1.369 . S
C2445 C2454 1.429 . S
C2446 C2444 1.419 . S
C2446 C2447 1.363 . S
C2446 H2449 0.929 . S
C2447 C2446 1.363 . S
C2447 C2453 1.428 . S
H2448 C2444 0.930 . S
H2449 C2446 0.929 . S
S2450 N2451 1.613 . S
S2450 N2452 1.610 . S
N2451 S2450 1.613 . S
N2451 C2454 1.350 . S
N2452 S2450 1.610 . S
N2452 C2453 1.351 . S
C2453 C2447 1.428 . S
C2453 N2452 1.351 . S
C2453 C2454 1.434 . S
C2454 C2445 1.429 . S
C2454 N2451 1.350 . S
C2454 C2453 1.434 . S
C2455 C2456 1.369 . S
C2455 C2457 1.419 . S
C2455 H2459 0.930 . S
C2456 C2455 1.369 . S
C2456 C2465 1.429 . S
C2457 C2455 1.419 . S
C2457 C2458 1.363 . S
C2457 H2460 0.929 . S
C2458 C2457 1.363 . S
C2458 C2464 1.428 . S
H2459 C2455 0.930 . S
H2460 C2457 0.929 . S
S2461 N2462 1.613 . S
S2461 N2463 1.610 . S
N2462 S2461 1.613 . S
N2462 C2465 1.350 . S
N2463 S2461 1.610 . S
N2463 C2464 1.351 . S
C2464 C2458 1.428 . S
C2464 N2463 1.351 . S
C2464 C2465 1.434 . S
C2465 C2456 1.429 . S
C2465 N2462 1.350 . S
C2465 C2464 1.434 . S
C2466 C2467 1.369 . S
C2466 C2468 1.419 . S
C2466 H2470 0.930 . S
C2467 C2466 1.369 . S
C2467 C2476 1.429 . S
C2468 C2466 1.419 . S
C2468 C2469 1.363 . S
C2468 H2471 0.929 . S
C2469 C2468 1.363 . S
C2469 C2475 1.428 . S
H2470 C2466 0.930 . S
H2471 C2468 0.929 . S
S2472 N2473 1.613 . S
S2472 N2474 1.610 . S
N2473 S2472 1.613 . S
N2473 C2476 1.350 . S
N2474 S2472 1.610 . S
N2474 C2475 1.351 . S
C2475 C2469 1.428 . S
C2475 N2474 1.351 . S
C2475 C2476 1.434 . S
C2476 C2467 1.429 . S
C2476 N2473 1.350 . S
C2476 C2475 1.434 . S
C2477 C2478 1.369 . S
C2477 C2479 1.419 . S
C2477 H2481 0.930 . S
C2478 C2477 1.369 . S
C2478 C2487 1.429 . S
C2479 C2477 1.419 . S
C2479 C2480 1.363 . S
C2479 H2482 0.929 . S
C2480 C2479 1.363 . S
C2480 C2486 1.428 . S
H2481 C2477 0.930 . S
H2482 C2479 0.929 . S
S2483 N2484 1.613 . S
S2483 N2485 1.610 . S
N2484 S2483 1.613 . S
N2484 C2487 1.350 . S
N2485 S2483 1.610 . S
N2485 C2486 1.351 . S
C2486 C2480 1.428 . S
C2486 N2485 1.351 . S
C2486 C2487 1.434 . S
C2487 C2478 1.429 . S
C2487 N2484 1.350 . S
C2487 C2486 1.434 . S
C2488 C2489 1.369 . S
C2488 C2490 1.419 . S
C2488 H2492 0.930 . S
C2489 C2488 1.369 . S
C2489 C2498 1.429 . S
C2490 C2488 1.419 . S
C2490 C2491 1.363 . S
C2490 H2493 0.929 . S
C2491 C2490 1.363 . S
C2491 C2497 1.428 . S
H2492 C2488 0.930 . S
H2493 C2490 0.929 . S
S2494 N2495 1.613 . S
S2494 N2496 1.610 . S
N2495 S2494 1.613 . S
N2495 C2498 1.350 . S
N2496 S2494 1.610 . S
N2496 C2497 1.351 . S
C2497 C2491 1.428 . S
C2497 N2496 1.351 . S
C2497 C2498 1.434 . S
C2498 C2489 1.429 . S
C2498 N2495 1.350 . S
C2498 C2497 1.434 . S
C2499 C2500 1.369 . S
C2499 C2501 1.419 . S
C2499 H2503 0.930 . S
C2500 C2499 1.369 . S
C2500 C2509 1.429 . S
C2501 C2499 1.419 . S
C2501 C2502 1.363 . S
C2501 H2504 0.929 . S
C2502 C2501 1.363 . S
C2502 C2508 1.428 . S
H2503 C2499 0.930 . S
H2504 C2501 0.929 . S
S2505 N2506 1.613 . S
S2505 N2507 1.610 . S
N2506 S2505 1.613 . S
N2506 C2509 1.350 . S
N2507 S2505 1.610 . S
N2507 C2508 1.351 . S
C2508 C2502 1.428 . S
C2508 N2507 1.351 . S
C2508 C2509 1.434 . S
C2509 C2500 1.429 . S
C2509 N2506 1.350 . S
C2509 C2508 1.434 . S
C2510 C2511 1.369 . S
C2510 C2512 1.419 . S
C2510 H2514 0.930 . S
C2511 C2510 1.369 . S
C2511 C2520 1.429 . S
C2512 C2510 1.419 . S
C2512 C2513 1.363 . S
C2512 H2515 0.929 . S
C2513 C2512 1.363 . S
C2513 C2519 1.428 . S
H2514 C2510 0.930 . S
H2515 C2512 0.929 . S
S2516 N2517 1.613 . S
S2516 N2518 1.610 . S
N2517 S2516 1.613 . S
N2517 C2520 1.350 . S
N2518 S2516 1.610 . S
N2518 C2519 1.351 . S
C2519 C2513 1.428 . S
C2519 N2518 1.351 . S
C2519 C2520 1.434 . S
C2520 C2511 1.429 . S
C2520 N2517 1.350 . S
C2520 C2519 1.434 . S
C2521 C2522 1.369 . S
C2521 C2523 1.419 . S
C2521 H2525 0.930 . S
C2522 C2521 1.369 . S
C2522 C2531 1.429 . S
C2523 C2521 1.419 . S
C2523 C2524 1.363 . S
C2523 H2526 0.929 . S
C2524 C2523 1.363 . S
C2524 C2530 1.428 . S
H2525 C2521 0.930 . S
H2526 C2523 0.929 . S
S2527 N2528 1.613 . S
S2527 N2529 1.610 . S
N2528 S2527 1.613 . S
N2528 C2531 1.350 . S
N2529 S2527 1.610 . S
N2529 C2530 1.351 . S
C2530 C2524 1.428 . S
C2530 N2529 1.351 . S
C2530 C2531 1.434 . S
C2531 C2522 1.429 . S
C2531 N2528 1.350 . S
C2531 C2530 1.434 . S
C2532 C2533 1.369 . S
C2532 C2534 1.419 . S
C2532 H2536 0.930 . S
C2533 C2532 1.369 . S
C2533 C2542 1.429 . S
C2534 C2532 1.419 . S
C2534 C2535 1.363 . S
C2534 H2537 0.929 . S
C2535 C2534 1.363 . S
C2535 C2541 1.428 . S
H2536 C2532 0.930 . S
H2537 C2534 0.929 . S
S2538 N2539 1.613 . S
S2538 N2540 1.610 . S
N2539 S2538 1.613 . S
N2539 C2542 1.350 . S
N2540 S2538 1.610 . S
N2540 C2541 1.351 . S
C2541 C2535 1.428 . S
C2541 N2540 1.351 . S
C2541 C2542 1.434 . S
C2542 C2533 1.429 . S
C2542 N2539 1.350 . S
C2542 C2541 1.434 . S
C2543 C2544 1.369 . S
C2543 C2545 1.419 . S
C2543 H2547 0.930 . S
C2544 C2543 1.369 . S
C2544 C2553 1.429 . S
C2545 C2543 1.419 . S
C2545 C2546 1.363 . S
C2545 H2548 0.929 . S
C2546 C2545 1.363 . S
C2546 C2552 1.428 . S
H2547 C2543 0.930 . S
H2548 C2545 0.929 . S
S2549 N2550 1.613 . S
S2549 N2551 1.610 . S
N2550 S2549 1.613 . S
N2550 C2553 1.350 . S
N2551 S2549 1.610 . S
N2551 C2552 1.351 . S
C2552 C2546 1.428 . S
C2552 N2551 1.351 . S
C2552 C2553 1.434 . S
C2553 C2544 1.429 . S
C2553 N2550 1.350 . S
C2553 C2552 1.434 . S
C2554 C2555 1.369 . S
C2554 C2556 1.419 . S
C2554 H2558 0.930 . S
C2555 C2554 1.369 . S
C2555 C2564 1.429 . S
C2556 C2554 1.419 . S
C2556 C2557 1.363 . S
C2556 H2559 0.929 . S
C2557 C2556 1.363 . S
C2557 C2563 1.428 . S
H2558 C2554 0.930 . S
H2559 C2556 0.929 . S
S2560 N2561 1.613 . S
S2560 N2562 1.610 . S
N2561 S2560 1.613 . S
N2561 C2564 1.350 . S
N2562 S2560 1.610 . S
N2562 C2563 1.351 . S
C2563 C2557 1.428 . S
C2563 N2562 1.351 . S
C2563 C2564 1.434 . S
C2564 C2555 1.429 . S
C2564 N2561 1.350 . S
C2564 C2563 1.434 . S
C2565 C2566 1.369 . S
C2565 C2567 1.419 . S
C2565 H2569 0.930 . S
C2566 C2565 1.369 . S
C2566 C2575 1.429 . S
C2567 C2565 1.419 . S
C2567 C2568 1.363 . S
C2567 H2570 0.929 . S
C2568 C2567 1.363 . S
C2568 C2574 1.428 . S
H2569 C2565 0.930 . S
H2570 C2567 0.929 . S
S2571 N2572 1.613 . S
S2571 N2573 1.610 . S
N2572 S2571 1.613 . S
N2572 C2575 1.350 . S
N2573 S2571 1.610 . S
N2573 C2574 1.351 . S
C2574 C2568 1.428 . S
C2574 N2573 1.351 . S
C2574 C2575 1.434 . S
C2575 C2566 1.429 . S
C2575 N2572 1.350 . S
C2575 C2574 1.434 . S
C2576 C2577 1.369 . S
C2576 C2578 1.419 . S
C2576 H2580 0.930 . S
C2577 C2576 1.369 . S
C2577 C2586 1.429 . S
C2578 C2576 1.419 . S
C2578 C2579 1.363 . S
C2578 H2581 0.929 . S
C2579 C2578 1.363 . S
C2579 C2585 1.428 . S
H2580 C2576 0.930 . S
H2581 C2578 0.929 . S
S2582 N2583 1.613 . S
S2582 N2584 1.610 . S
N2583 S2582 1.613 . S
N2583 C2586 1.350 . S
N2584 S2582 1.610 . S
N2584 C2585 1.351 . S
C2585 C2579 1.428 . S
C2585 N2584 1.351 . S
C2585 C2586 1.434 . S
C2586 C2577 1.429 . S
C2586 N2583 1.350 . S
C2586 C2585 1.434 . S
C2587 C2588 1.369 . S
C2587 C2589 1.419 . S
C2587 H2591 0.930 . S
C2588 C2587 1.369 . S
C2588 C2597 1.429 . S
C2589 C2587 1.419 . S
C2589 C2590 1.363 . S
C2589 H2592 0.929 . S
C2590 C2589 1.363 . S
C2590 C2596 1.428 . S
H2591 C2587 0.930 . S
H2592 C2589 0.929 . S
S2593 N2594 1.613 . S
S2593 N2595 1.610 . S
N2594 S2593 1.613 . S
N2594 C2597 1.350 . S
N2595 S2593 1.610 . S
N2595 C2596 1.351 . S
C2596 C2590 1.428 . S
C2596 N2595 1.351 . S
C2596 C2597 1.434 . S
C2597 C2588 1.429 . S
C2597 N2594 1.350 . S
C2597 C2596 1.434 . S
C2598 C2599 1.369 . S
C2598 C2600 1.419 . S
C2598 H2602 0.930 . S
C2599 C2598 1.369 . S
C2599 C2608 1.429 . S
C2600 C2598 1.419 . S
C2600 C2601 1.363 . S
C2600 H2603 0.929 . S
C2601 C2600 1.363 . S
C2601 C2607 1.428 . S
H2602 C2598 0.930 . S
H2603 C2600 0.929 . S
S2604 N2605 1.613 . S
S2604 N2606 1.610 . S
N2605 S2604 1.613 . S
N2605 C2608 1.350 . S
N2606 S2604 1.610 . S
N2606 C2607 1.351 . S
C2607 C2601 1.428 . S
C2607 N2606 1.351 . S
C2607 C2608 1.434 . S
C2608 C2599 1.429 . S
C2608 N2605 1.350 . S
C2608 C2607 1.434 . S
C2609 C2610 1.369 . S
C2609 C2611 1.419 . S
C2609 H2613 0.930 . S
C2610 C2609 1.369 . S
C2610 C2619 1.429 . S
C2611 C2609 1.419 . S
C2611 C2612 1.363 . S
C2611 H2614 0.929 . S
C2612 C2611 1.363 . S
C2612 C2618 1.428 . S
H2613 C2609 0.930 . S
H2614 C2611 0.929 . S
S2615 N2616 1.613 . S
S2615 N2617 1.610 . S
N2616 S2615 1.613 . S
N2616 C2619 1.350 . S
N2617 S2615 1.610 . S
N2617 C2618 1.351 . S
C2618 C2612 1.428 . S
C2618 N2617 1.351 . S
C2618 C2619 1.434 . S
C2619 C2610 1.429 . S
C2619 N2616 1.350 . S
C2619 C2618 1.434 . S
C2620 C2621 1.369 . S
C2620 C2622 1.419 . S
C2620 H2624 0.930 . S
C2621 C2620 1.369 . S
C2621 C2630 1.429 . S
C2622 C2620 1.419 . S
C2622 C2623 1.363 . S
C2622 H2625 0.929 . S
C2623 C2622 1.363 . S
C2623 C2629 1.428 . S
H2624 C2620 0.930 . S
H2625 C2622 0.929 . S
S2626 N2627 1.613 . S
S2626 N2628 1.610 . S
N2627 S2626 1.613 . S
N2627 C2630 1.350 . S
N2628 S2626 1.610 . S
N2628 C2629 1.351 . S
C2629 C2623 1.428 . S
C2629 N2628 1.351 . S
C2629 C2630 1.434 . S
C2630 C2621 1.429 . S
C2630 N2627 1.350 . S
C2630 C2629 1.434 . S
C2631 C2632 1.369 . S
C2631 C2633 1.419 . S
C2631 H2635 0.930 . S
C2632 C2631 1.369 . S
C2632 C2641 1.429 . S
C2633 C2631 1.419 . S
C2633 C2634 1.363 . S
C2633 H2636 0.929 . S
C2634 C2633 1.363 . S
C2634 C2640 1.428 . S
H2635 C2631 0.930 . S
H2636 C2633 0.929 . S
S2637 N2638 1.613 . S
S2637 N2639 1.610 . S
N2638 S2637 1.613 . S
N2638 C2641 1.350 . S
N2639 S2637 1.610 . S
N2639 C2640 1.351 . S
C2640 C2634 1.428 . S
C2640 N2639 1.351 . S
C2640 C2641 1.434 . S
C2641 C2632 1.429 . S
C2641 N2638 1.350 . S
C2641 C2640 1.434 . S
C2642 C2643 1.369 . S
C2642 C2644 1.419 . S
C2642 H2646 0.930 . S
C2643 C2642 1.369 . S
C2643 C2652 1.429 . S
C2644 C2642 1.419 . S
C2644 C2645 1.363 . S
C2644 H2647 0.929 . S
C2645 C2644 1.363 . S
C2645 C2651 1.428 . S
H2646 C2642 0.930 . S
H2647 C2644 0.929 . S
S2648 N2649 1.613 . S
S2648 N2650 1.610 . S
N2649 S2648 1.613 . S
N2649 C2652 1.350 . S
N2650 S2648 1.610 . S
N2650 C2651 1.351 . S
C2651 C2645 1.428 . S
C2651 N2650 1.351 . S
C2651 C2652 1.434 . S
C2652 C2643 1.429 . S
C2652 N2649 1.350 . S
C2652 C2651 1.434 . S
C2653 C2654 1.369 . S
C2653 C2655 1.419 . S
C2653 H2657 0.930 . S
C2654 C2653 1.369 . S
C2654 C2663 1.429 . S
C2655 C2653 1.419 . S
C2655 C2656 1.363 . S
C2655 H2658 0.929 . S
C2656 C2655 1.363 . S
C2656 C2662 1.428 . S
H2657 C2653 0.930 . S
H2658 C2655 0.929 . S
S2659 N2660 1.613 . S
S2659 N2661 1.610 . S
N2660 S2659 1.613 . S
N2660 C2663 1.350 . S
N2661 S2659 1.610 . S
N2661 C2662 1.351 . S
C2662 C2656 1.428 . S
C2662 N2661 1.351 . S
C2662 C2663 1.434 . S
C2663 C2654 1.429 . S
C2663 N2660 1.350 . S
C2663 C2662 1.434 . S
C2664 C2665 1.369 . S
C2664 C2666 1.419 . S
C2664 H2668 0.930 . S
C2665 C2664 1.369 . S
C2665 C2674 1.429 . S
C2666 C2664 1.419 . S
C2666 C2667 1.363 . S
C2666 H2669 0.929 . S
C2667 C2666 1.363 . S
C2667 C2673 1.428 . S
H2668 C2664 0.930 . S
H2669 C2666 0.929 . S
S2670 N2671 1.613 . S
S2670 N2672 1.610 . S
N2671 S2670 1.613 . S
N2671 C2674 1.350 . S
N2672 S2670 1.610 . S
N2672 C2673 1.351 . S
C2673 C2667 1.428 . S
C2673 N2672 1.351 . S
C2673 C2674 1.434 . S
C2674 C2665 1.429 . S
C2674 N2671 1.350 . S
C2674 C2673 1.434 . S
C2675 C2676 1.369 . S
C2675 C2677 1.419 . S
C2675 H2679 0.930 . S
C2676 C2675 1.369 . S
C2676 C2685 1.429 . S
C2677 C2675 1.419 . S
C2677 C2678 1.363 . S
C2677 H2680 0.929 . S
C2678 C2677 1.363 . S
C2678 C2684 1.428 . S
H2679 C2675 0.930 . S
H2680 C2677 0.929 . S
S2681 N2682 1.613 . S
S2681 N2683 1.610 . S
N2682 S2681 1.613 . S
N2682 C2685 1.350 . S
N2683 S2681 1.610 . S
N2683 C2684 1.351 . S
C2684 C2678 1.428 . S
C2684 N2683 1.351 . S
C2684 C2685 1.434 . S
C2685 C2676 1.429 . S
C2685 N2682 1.350 . S
C2685 C2684 1.434 . S
C2686 C2687 1.369 . S
C2686 C2688 1.419 . S
C2686 H2690 0.930 . S
C2687 C2686 1.369 . S
C2687 C2696 1.429 . S
C2688 C2686 1.419 . S
C2688 C2689 1.363 . S
C2688 H2691 0.929 . S
C2689 C2688 1.363 . S
C2689 C2695 1.428 . S
H2690 C2686 0.930 . S
H2691 C2688 0.929 . S
S2692 N2693 1.613 1_556 S
S2692 N2694 1.610 1_556 S
N2693 S2692 1.613 1_554 S
N2693 C2696 1.350 . S
N2694 S2692 1.610 1_554 S
N2694 C2695 1.351 . S
C2695 C2689 1.428 . S
C2695 N2694 1.351 . S
C2695 C2696 1.434 . S
C2696 C2687 1.429 . S
C2696 N2693 1.350 . S
C2696 C2695 1.434 . S
C2697 C2698 1.369 . S
C2697 C2699 1.419 . S
C2697 H2701 0.930 . S
C2698 C2697 1.369 . S
C2698 C2707 1.429 . S
C2699 C2697 1.419 . S
C2699 C2700 1.363 . S
C2699 H2702 0.929 . S
C2700 C2699 1.363 . S
C2700 C2706 1.428 . S
H2701 C2697 0.930 . S
H2702 C2699 0.929 . S
S2703 N2704 1.613 . S
S2703 N2705 1.610 . S
N2704 S2703 1.613 . S
N2704 C2707 1.350 . S
N2705 S2703 1.610 . S
N2705 C2706 1.351 . S
C2706 C2700 1.428 . S
C2706 N2705 1.351 . S
C2706 C2707 1.434 . S
C2707 C2698 1.429 . S
C2707 N2704 1.350 . S
C2707 C2706 1.434 . S
C2708 C2709 1.369 . S
C2708 C2710 1.419 . S
C2708 H2712 0.930 . S
C2709 C2708 1.369 . S
C2709 C2718 1.429 . S
C2710 C2708 1.419 . S
C2710 C2711 1.363 . S
C2710 H2713 0.929 . S
C2711 C2710 1.363 . S
C2711 C2717 1.428 . S
H2712 C2708 0.930 . S
H2713 C2710 0.929 . S
S2714 N2715 1.613 . S
S2714 N2716 1.610 . S
N2715 S2714 1.613 . S
N2715 C2718 1.350 . S
N2716 S2714 1.610 . S
N2716 C2717 1.351 . S
C2717 C2711 1.428 . S
C2717 N2716 1.351 . S
C2717 C2718 1.434 . S
C2718 C2709 1.429 . S
C2718 N2715 1.350 . S
C2718 C2717 1.434 . S
C2719 C2720 1.369 . S
C2719 C2721 1.419 . S
C2719 H2723 0.930 . S
C2720 C2719 1.369 . S
C2720 C2729 1.429 . S
C2721 C2719 1.419 . S
C2721 C2722 1.363 . S
C2721 H2724 0.929 . S
C2722 C2721 1.363 . S
C2722 C2728 1.428 . S
H2723 C2719 0.930 . S
H2724 C2721 0.929 . S
S2725 N2726 1.613 . S
S2725 N2727 1.610 . S
N2726 S2725 1.613 . S
N2726 C2729 1.350 . S
N2727 S2725 1.610 . S
N2727 C2728 1.351 . S
C2728 C2722 1.428 . S
C2728 N2727 1.351 . S
C2728 C2729 1.434 . S
C2729 C2720 1.429 . S
C2729 N2726 1.350 . S
C2729 C2728 1.434 . S
C2730 C2731 1.369 . S
C2730 C2732 1.419 . S
C2730 H2734 0.930 . S
C2731 C2730 1.369 . S
C2731 C2740 1.429 . S
C2732 C2730 1.419 . S
C2732 C2733 1.363 . S
C2732 H2735 0.929 . S
C2733 C2732 1.363 . S
C2733 C2739 1.428 . S
H2734 C2730 0.930 . S
H2735 C2732 0.929 . S
S2736 N2737 1.613 . S
S2736 N2738 1.610 . S
N2737 S2736 1.613 . S
N2737 C2740 1.350 . S
N2738 S2736 1.610 . S
N2738 C2739 1.351 . S
C2739 C2733 1.428 . S
C2739 N2738 1.351 . S
C2739 C2740 1.434 . S
C2740 C2731 1.429 . S
C2740 N2737 1.350 . S
C2740 C2739 1.434 . S
C2741 C2742 1.369 . S
C2741 C2743 1.419 . S
C2741 H2745 0.930 . S
C2742 C2741 1.369 . S
C2742 C2751 1.429 . S
C2743 C2741 1.419 . S
C2743 C2744 1.363 . S
C2743 H2746 0.929 . S
C2744 C2743 1.363 . S
C2744 C2750 1.428 . S
H2745 C2741 0.930 . S
H2746 C2743 0.929 . S
S2747 N2748 1.613 . S
S2747 N2749 1.610 . S
N2748 S2747 1.613 . S
N2748 C2751 1.350 . S
N2749 S2747 1.610 . S
N2749 C2750 1.351 . S
C2750 C2744 1.428 . S
C2750 N2749 1.351 . S
C2750 C2751 1.434 . S
C2751 C2742 1.429 . S
C2751 N2748 1.350 . S
C2751 C2750 1.434 . S
C2752 C2753 1.369 . S
C2752 C2754 1.419 . S
C2752 H2756 0.930 . S
C2753 C2752 1.369 . S
C2753 C2762 1.429 . S
C2754 C2752 1.419 . S
C2754 C2755 1.363 . S
C2754 H2757 0.929 . S
C2755 C2754 1.363 . S
C2755 C2761 1.428 . S
H2756 C2752 0.930 . S
H2757 C2754 0.929 . S
S2758 N2759 1.613 . S
S2758 N2760 1.610 . S
N2759 S2758 1.613 . S
N2759 C2762 1.350 . S
N2760 S2758 1.610 . S
N2760 C2761 1.351 . S
C2761 C2755 1.428 . S
C2761 N2760 1.351 . S
C2761 C2762 1.434 . S
C2762 C2753 1.429 . S
C2762 N2759 1.350 . S
C2762 C2761 1.434 . S
C2763 C2764 1.369 . S
C2763 C2765 1.419 . S
C2763 H2767 0.930 . S
C2764 C2763 1.369 . S
C2764 C2773 1.429 . S
C2765 C2763 1.419 . S
C2765 C2766 1.363 . S
C2765 H2768 0.929 . S
C2766 C2765 1.363 . S
C2766 C2772 1.428 . S
H2767 C2763 0.930 . S
H2768 C2765 0.929 . S
S2769 N2770 1.613 . S
S2769 N2771 1.610 . S
N2770 S2769 1.613 . S
N2770 C2773 1.350 . S
N2771 S2769 1.610 . S
N2771 C2772 1.351 . S
C2772 C2766 1.428 . S
C2772 N2771 1.351 . S
C2772 C2773 1.434 . S
C2773 C2764 1.429 . S
C2773 N2770 1.350 . S
C2773 C2772 1.434 . S
C2774 C2775 1.369 . S
C2774 C2776 1.419 . S
C2774 H2778 0.930 . S
C2775 C2774 1.369 . S
C2775 C2784 1.429 . S
C2776 C2774 1.419 . S
C2776 C2777 1.363 . S
C2776 H2779 0.929 . S
C2777 C2776 1.363 . S
C2777 C2783 1.428 . S
H2778 C2774 0.930 . S
H2779 C2776 0.929 . S
S2780 N2781 1.607 1_455 S
S2780 N2782 1.609 1_455 S
N2781 S2780 1.607 1_655 S
N2781 C2784 1.350 . S
N2782 S2780 1.609 1_655 S
N2782 C2783 1.351 . S
C2783 C2777 1.428 . S
C2783 N2782 1.351 . S
C2783 C2784 1.434 . S
C2784 C2775 1.429 . S
C2784 N2781 1.350 . S
C2784 C2783 1.434 . S
C2785 C2786 1.369 . S
C2785 C2787 1.419 . S
C2785 H2789 0.930 . S
C2786 C2785 1.369 . S
C2786 C2795 1.429 . S
C2787 C2785 1.419 . S
C2787 C2788 1.363 . S
C2787 H2790 0.929 . S
C2788 C2787 1.363 . S
C2788 C2794 1.428 . S
H2789 C2785 0.930 . S
H2790 C2787 0.929 . S
S2791 N2792 1.613 . S
S2791 N2793 1.610 . S
N2792 S2791 1.613 . S
N2792 C2795 1.350 . S
N2793 S2791 1.610 . S
N2793 C2794 1.351 . S
C2794 C2788 1.428 . S
C2794 N2793 1.351 . S
C2794 C2795 1.434 . S
C2795 C2786 1.429 . S
C2795 N2792 1.350 . S
C2795 C2794 1.434 . S
C2796 C2797 1.369 . S
C2796 C2798 1.419 . S
C2796 H2800 0.930 . S
C2797 C2796 1.369 . S
C2797 C2806 1.429 . S
C2798 C2796 1.419 . S
C2798 C2799 1.363 . S
C2798 H2801 0.929 . S
C2799 C2798 1.363 . S
C2799 C2805 1.428 . S
H2800 C2796 0.930 . S
H2801 C2798 0.929 . S
S2802 N2803 1.613 . S
S2802 N2804 1.610 . S
N2803 S2802 1.613 . S
N2803 C2806 1.350 . S
N2804 S2802 1.610 . S
N2804 C2805 1.351 . S
C2805 C2799 1.428 . S
C2805 N2804 1.351 . S
C2805 C2806 1.434 . S
C2806 C2797 1.429 . S
C2806 N2803 1.350 . S
C2806 C2805 1.434 . S
C2807 C2808 1.369 . S
C2807 C2809 1.419 . S
C2807 H2811 0.930 . S
C2808 C2807 1.369 . S
C2808 C2817 1.429 . S
C2809 C2807 1.419 . S
C2809 C2810 1.363 . S
C2809 H2812 0.929 . S
C2810 C2809 1.363 . S
C2810 C2816 1.428 . S
H2811 C2807 0.930 . S
H2812 C2809 0.929 . S
S2813 N2814 1.613 . S
S2813 N2815 1.610 . S
N2814 S2813 1.613 . S
N2814 C2817 1.350 . S
N2815 S2813 1.610 . S
N2815 C2816 1.351 . S
C2816 C2810 1.428 . S
C2816 N2815 1.351 . S
C2816 C2817 1.434 . S
C2817 C2808 1.429 . S
C2817 N2814 1.350 . S
C2817 C2816 1.434 . S
C2818 C2819 1.369 . S
C2818 C2820 1.419 . S
C2818 H2822 0.930 . S
C2819 C2818 1.369 . S
C2819 C2828 1.429 . S
C2820 C2818 1.419 . S
C2820 C2821 1.363 . S
C2820 H2823 0.929 . S
C2821 C2820 1.363 . S
C2821 C2827 1.428 . S
H2822 C2818 0.930 . S
H2823 C2820 0.929 . S
S2824 N2825 1.613 1_455 S
S2824 N2826 1.610 1_455 S
N2825 S2824 1.613 1_655 S
N2825 C2828 1.350 . S
N2826 S2824 1.610 1_655 S
N2826 C2827 1.351 . S
C2827 C2821 1.428 . S
C2827 N2826 1.351 . S
C2827 C2828 1.434 . S
C2828 C2819 1.429 . S
C2828 N2825 1.350 . S
C2828 C2827 1.434 . S
C2829 C2830 1.369 . S
C2829 C2831 1.419 . S
C2829 H2833 0.930 . S
C2830 C2829 1.369 . S
C2830 C2839 1.429 . S
C2831 C2829 1.419 . S
C2831 C2832 1.363 . S
C2831 H2834 0.929 . S
C2832 C2831 1.363 . S
C2832 C2838 1.428 . S
H2833 C2829 0.930 . S
H2834 C2831 0.929 . S
S2835 N2836 1.613 . S
S2835 N2837 1.610 . S
N2836 S2835 1.613 . S
N2836 C2839 1.350 . S
N2837 S2835 1.610 . S
N2837 C2838 1.351 . S
C2838 C2832 1.428 . S
C2838 N2837 1.351 . S
C2838 C2839 1.434 . S
C2839 C2830 1.429 . S
C2839 N2836 1.350 . S
C2839 C2838 1.434 . S
C2840 C2841 1.369 . S
C2840 C2842 1.419 . S
C2840 H2844 0.930 . S
C2841 C2840 1.369 . S
C2841 C2850 1.429 . S
C2842 C2840 1.419 . S
C2842 C2843 1.363 . S
C2842 H2845 0.929 . S
C2843 C2842 1.363 . S
C2843 C2849 1.428 . S
H2844 C2840 0.930 . S
H2845 C2842 0.929 . S
S2846 N2847 1.613 . S
S2846 N2848 1.610 . S
N2847 S2846 1.613 . S
N2847 C2850 1.350 . S
N2848 S2846 1.610 . S
N2848 C2849 1.351 . S
C2849 C2843 1.428 . S
C2849 N2848 1.351 . S
C2849 C2850 1.434 . S
C2850 C2841 1.429 . S
C2850 N2847 1.350 . S
C2850 C2849 1.434 . S
C2851 C2852 1.369 . S
C2851 C2853 1.419 . S
C2851 H2855 0.930 . S
C2852 C2851 1.369 . S
C2852 C2861 1.429 . S
C2853 C2851 1.419 . S
C2853 C2854 1.363 . S
C2853 H2856 0.929 . S
C2854 C2853 1.363 . S
C2854 C2860 1.428 . S
H2855 C2851 0.930 . S
H2856 C2853 0.929 . S
S2857 N2858 1.613 . S
S2857 N2859 1.610 . S
N2858 S2857 1.613 . S
N2858 C2861 1.350 . S
N2859 S2857 1.610 . S
N2859 C2860 1.351 . S
C2860 C2854 1.428 . S
C2860 N2859 1.351 . S
C2860 C2861 1.434 . S
C2861 C2852 1.429 . S
C2861 N2858 1.350 . S
C2861 C2860 1.434 . S
C2862 C2863 1.369 . S
C2862 C2864 1.419 . S
C2862 H2866 0.930 . S
C2863 C2862 1.369 . S
C2863 C2872 1.429 . S
C2864 C2862 1.419 . S
C2864 C2865 1.363 . S
C2864 H2867 0.929 . S
C2865 C2864 1.363 . S
C2865 C2871 1.428 . S
H2866 C2862 0.930 . S
H2867 C2864 0.929 . S
S2868 N2869 1.613 . S
S2868 N2870 1.610 . S
N2869 S2868 1.613 . S
N2869 C2872 1.350 . S
N2870 S2868 1.610 . S
N2870 C2871 1.351 . S
C2871 C2865 1.428 . S
C2871 N2870 1.351 . S
C2871 C2872 1.434 . S
C2872 C2863 1.429 . S
C2872 N2869 1.350 . S
C2872 C2871 1.434 . S
C2873 C2874 1.369 . S
C2873 C2875 1.419 . S
C2873 H2877 0.930 . S
C2874 C2873 1.369 . S
C2874 C2883 1.429 . S
C2875 C2873 1.419 . S
C2875 C2876 1.363 . S
C2875 H2878 0.929 . S
C2876 C2875 1.363 . S
C2876 C2882 1.428 . S
H2877 C2873 0.930 . S
H2878 C2875 0.929 . S
S2879 N2880 1.613 . S
S2879 N2881 1.610 . S
N2880 S2879 1.613 . S
N2880 C2883 1.350 . S
N2881 S2879 1.610 . S
N2881 C2882 1.351 . S
C2882 C2876 1.428 . S
C2882 N2881 1.351 . S
C2882 C2883 1.434 . S
C2883 C2874 1.429 . S
C2883 N2880 1.350 . S
C2883 C2882 1.434 . S
C2884 C2885 1.369 . S
C2884 C2886 1.419 . S
C2884 H2888 0.930 . S
C2885 C2884 1.369 . S
C2885 C2894 1.429 . S
C2886 C2884 1.419 . S
C2886 C2887 1.363 . S
C2886 H2889 0.929 . S
C2887 C2886 1.363 . S
C2887 C2893 1.428 . S
H2888 C2884 0.930 . S
H2889 C2886 0.929 . S
S2890 N2891 1.613 . S
S2890 N2892 1.610 . S
N2891 S2890 1.613 . S
N2891 C2894 1.350 . S
N2892 S2890 1.610 . S
N2892 C2893 1.351 . S
C2893 C2887 1.428 . S
C2893 N2892 1.351 . S
C2893 C2894 1.434 . S
C2894 C2885 1.429 . S
C2894 N2891 1.350 . S
C2894 C2893 1.434 . S
C2895 C2896 1.369 . S
C2895 C2897 1.419 . S
C2895 H2899 0.930 . S
C2896 C2895 1.369 . S
C2896 C2905 1.429 . S
C2897 C2895 1.419 . S
C2897 C2898 1.363 . S
C2897 H2900 0.929 . S
C2898 C2897 1.363 . S
C2898 C2904 1.428 . S
H2899 C2895 0.930 . S
H2900 C2897 0.929 . S
S2901 N2902 1.613 . S
S2901 N2903 1.610 . S
N2902 S2901 1.613 . S
N2902 C2905 1.350 . S
N2903 S2901 1.610 . S
N2903 C2904 1.351 . S
C2904 C2898 1.428 . S
C2904 N2903 1.351 . S
C2904 C2905 1.434 . S
C2905 C2896 1.429 . S
C2905 N2902 1.350 . S
C2905 C2904 1.434 . S
C2906 C2907 1.369 . S
C2906 C2908 1.419 . S
C2906 H2910 0.930 . S
C2907 C2906 1.369 . S
C2907 C2916 1.429 . S
C2908 C2906 1.419 . S
C2908 C2909 1.363 . S
C2908 H2911 0.929 . S
C2909 C2908 1.363 . S
C2909 C2915 1.428 . S
H2910 C2906 0.930 . S
H2911 C2908 0.929 . S
S2912 N2913 1.613 . S
S2912 N2914 1.610 . S
N2913 S2912 1.613 . S
N2913 C2916 1.350 . S
N2914 S2912 1.610 . S
N2914 C2915 1.351 . S
C2915 C2909 1.428 . S
C2915 N2914 1.351 . S
C2915 C2916 1.434 . S
C2916 C2907 1.429 . S
C2916 N2913 1.350 . S
C2916 C2915 1.434 . S
C2917 C2918 1.369 . S
C2917 C2919 1.419 . S
C2917 H2921 0.930 . S
C2918 C2917 1.369 . S
C2918 C2927 1.429 . S
C2919 C2917 1.419 . S
C2919 C2920 1.363 . S
C2919 H2922 0.929 . S
C2920 C2919 1.363 . S
C2920 C2926 1.428 . S
H2921 C2917 0.930 . S
H2922 C2919 0.929 . S
S2923 N2924 1.613 . S
S2923 N2925 1.610 . S
N2924 S2923 1.613 . S
N2924 C2927 1.350 . S
N2925 S2923 1.610 . S
N2925 C2926 1.351 . S
C2926 C2920 1.428 . S
C2926 N2925 1.351 . S
C2926 C2927 1.434 . S
C2927 C2918 1.429 . S
C2927 N2924 1.350 . S
C2927 C2926 1.434 . S
C2928 C2929 1.369 . S
C2928 C2930 1.419 . S
C2928 H2932 0.930 . S
C2929 C2928 1.369 . S
C2929 C2938 1.429 . S
C2930 C2928 1.419 . S
C2930 C2931 1.363 . S
C2930 H2933 0.929 . S
C2931 C2930 1.363 . S
C2931 C2937 1.428 . S
H2932 C2928 0.930 . S
H2933 C2930 0.929 . S
S2934 N2935 1.613 . S
S2934 N2936 1.610 . S
N2935 S2934 1.613 . S
N2935 C2938 1.350 . S
N2936 S2934 1.610 . S
N2936 C2937 1.351 . S
C2937 C2931 1.428 . S
C2937 N2936 1.351 . S
C2937 C2938 1.434 . S
C2938 C2929 1.429 . S
C2938 N2935 1.350 . S
C2938 C2937 1.434 . S
C2939 C2940 1.369 . S
C2939 C2941 1.419 . S
C2939 H2943 0.930 . S
C2940 C2939 1.369 . S
C2940 C2949 1.429 . S
C2941 C2939 1.419 . S
C2941 C2942 1.363 . S
C2941 H2944 0.929 . S
C2942 C2941 1.363 . S
C2942 C2948 1.428 . S
H2943 C2939 0.930 . S
H2944 C2941 0.929 . S
S2945 N2946 1.613 . S
S2945 N2947 1.610 . S
N2946 S2945 1.613 . S
N2946 C2949 1.350 . S
N2947 S2945 1.610 . S
N2947 C2948 1.351 . S
C2948 C2942 1.428 . S
C2948 N2947 1.351 . S
C2948 C2949 1.434 . S
C2949 C2940 1.429 . S
C2949 N2946 1.350 . S
C2949 C2948 1.434 . S
C2950 C2951 1.369 . S
C2950 C2952 1.419 . S
C2950 H2954 0.930 . S
C2951 C2950 1.369 . S
C2951 C2960 1.429 . S
C2952 C2950 1.419 . S
C2952 C2953 1.363 . S
C2952 H2955 0.929 . S
C2953 C2952 1.363 . S
C2953 C2959 1.428 . S
H2954 C2950 0.930 . S
H2955 C2952 0.929 . S
S2956 N2957 1.613 . S
S2956 N2958 1.610 . S
N2957 S2956 1.613 . S
N2957 C2960 1.350 . S
N2958 S2956 1.610 . S
N2958 C2959 1.351 . S
C2959 C2953 1.428 . S
C2959 N2958 1.351 . S
C2959 C2960 1.434 . S
C2960 C2951 1.429 . S
C2960 N2957 1.350 . S
C2960 C2959 1.434 . S
C2961 C2962 1.369 . S
C2961 C2963 1.419 . S
C2961 H2965 0.930 . S
C2962 C2961 1.369 . S
C2962 C2971 1.429 . S
C2963 C2961 1.419 . S
C2963 C2964 1.363 . S
C2963 H2966 0.929 . S
C2964 C2963 1.363 . S
C2964 C2970 1.428 . S
H2965 C2961 0.930 . S
H2966 C2963 0.929 . S
S2967 N2968 1.613 . S
S2967 N2969 1.610 . S
N2968 S2967 1.613 . S
N2968 C2971 1.350 . S
N2969 S2967 1.610 . S
N2969 C2970 1.351 . S
C2970 C2964 1.428 . S
C2970 N2969 1.351 . S
C2970 C2971 1.434 . S
C2971 C2962 1.429 . S
C2971 N2968 1.350 . S
C2971 C2970 1.434 . S
C2972 C2973 1.369 . S
C2972 C2974 1.419 . S
C2972 H2976 0.930 . S
C2973 C2972 1.369 . S
C2973 C2982 1.429 . S
C2974 C2972 1.419 . S
C2974 C2975 1.363 . S
C2974 H2977 0.929 . S
C2975 C2974 1.363 . S
C2975 C2981 1.428 . S
H2976 C2972 0.930 . S
H2977 C2974 0.929 . S
S2978 N2979 1.613 . S
S2978 N2980 1.610 . S
N2979 S2978 1.613 . S
N2979 C2982 1.350 . S
N2980 S2978 1.610 . S
N2980 C2981 1.351 . S
C2981 C2975 1.428 . S
C2981 N2980 1.351 . S
C2981 C2982 1.434 . S
C2982 C2973 1.429 . S
C2982 N2979 1.350 . S
C2982 C2981 1.434 . S
C2983 C2984 1.369 . S
C2983 C2985 1.419 . S
C2983 H2987 0.930 . S
C2984 C2983 1.369 . S
C2984 C2993 1.429 . S
C2985 C2983 1.419 . S
C2985 C2986 1.363 . S
C2985 H2988 0.929 . S
C2986 C2985 1.363 . S
C2986 C2992 1.428 . S
H2987 C2983 0.930 . S
H2988 C2985 0.929 . S
S2989 N2990 1.613 . S
S2989 N2991 1.610 . S
N2990 S2989 1.613 . S
N2990 C2993 1.350 . S
N2991 S2989 1.610 . S
N2991 C2992 1.351 . S
C2992 C2986 1.428 . S
C2992 N2991 1.351 . S
C2992 C2993 1.434 . S
C2993 C2984 1.429 . S
C2993 N2990 1.350 . S
C2993 C2992 1.434 . S
C2994 C2995 1.369 . S
C2994 C2996 1.419 . S
C2994 H2998 0.930 . S
C2995 C2994 1.369 . S
C2995 C3004 1.429 . S
C2996 C2994 1.419 . S
C2996 C2997 1.363 . S
C2996 H2999 0.929 . S
C2997 C2996 1.363 . S
C2997 C3003 1.428 . S
H2998 C2994 0.930 . S
H2999 C2996 0.929 . S
S3000 N3001 1.613 . S
S3000 N3002 1.610 . S
N3001 S3000 1.613 . S
N3001 C3004 1.350 . S
N3002 S3000 1.610 . S
N3002 C3003 1.351 . S
C3003 C2997 1.428 . S
C3003 N3002 1.351 . S
C3003 C3004 1.434 . S
C3004 C2995 1.429 . S
C3004 N3001 1.350 . S
C3004 C3003 1.434 . S
C3005 C3006 1.369 . S
C3005 C3007 1.419 . S
C3005 H3009 0.930 . S
C3006 C3005 1.369 . S
C3006 C3015 1.429 . S
C3007 C3005 1.419 . S
C3007 C3008 1.363 . S
C3007 H3010 0.929 . S
C3008 C3007 1.363 . S
C3008 C3014 1.428 . S
H3009 C3005 0.930 . S
H3010 C3007 0.929 . S
S3011 N3012 1.613 . S
S3011 N3013 1.610 . S
N3012 S3011 1.613 . S
N3012 C3015 1.350 . S
N3013 S3011 1.610 . S
N3013 C3014 1.351 . S
C3014 C3008 1.428 . S
C3014 N3013 1.351 . S
C3014 C3015 1.434 . S
C3015 C3006 1.429 . S
C3015 N3012 1.350 . S
C3015 C3014 1.434 . S
C3016 C3017 1.369 . S
C3016 C3018 1.419 . S
C3016 H3020 0.930 . S
C3017 C3016 1.369 . S
C3017 C3026 1.429 . S
C3018 C3016 1.419 . S
C3018 C3019 1.363 . S
C3018 H3021 0.929 . S
C3019 C3018 1.363 . S
C3019 C3025 1.428 . S
H3020 C3016 0.930 . S
H3021 C3018 0.929 . S
S3022 N3023 1.613 . S
S3022 N3024 1.610 . S
N3023 S3022 1.613 . S
N3023 C3026 1.350 . S
N3024 S3022 1.610 . S
N3024 C3025 1.351 . S
C3025 C3019 1.428 . S
C3025 N3024 1.351 . S
C3025 C3026 1.434 . S
C3026 C3017 1.429 . S
C3026 N3023 1.350 . S
C3026 C3025 1.434 . S
C3027 C3028 1.369 . S
C3027 C3029 1.419 . S
C3027 H3031 0.930 . S
C3028 C3027 1.369 . S
C3028 C3037 1.429 . S
C3029 C3027 1.419 . S
C3029 C3030 1.363 . S
C3029 H3032 0.929 . S
C3030 C3029 1.363 . S
C3030 C3036 1.428 . S
H3031 C3027 0.930 . S
H3032 C3029 0.929 . S
S3033 N3034 1.613 . S
S3033 N3035 1.610 . S
N3034 S3033 1.613 . S
N3034 C3037 1.350 . S
N3035 S3033 1.610 . S
N3035 C3036 1.351 . S
C3036 C3030 1.428 . S
C3036 N3035 1.351 . S
C3036 C3037 1.434 . S
C3037 C3028 1.429 . S
C3037 N3034 1.350 . S
C3037 C3036 1.434 . S
C3038 C3039 1.369 . S
C3038 C3040 1.419 . S
C3038 H3042 0.930 . S
C3039 C3038 1.369 . S
C3039 C3048 1.429 . S
C3040 C3038 1.419 . S
C3040 C3041 1.363 . S
C3040 H3043 0.929 . S
C3041 C3040 1.363 . S
C3041 C3047 1.428 . S
H3042 C3038 0.930 . S
H3043 C3040 0.929 . S
S3044 N3045 1.613 . S
S3044 N3046 1.610 . S
N3045 S3044 1.613 . S
N3045 C3048 1.350 . S
N3046 S3044 1.610 . S
N3046 C3047 1.351 . S
C3047 C3041 1.428 . S
C3047 N3046 1.351 . S
C3047 C3048 1.434 . S
C3048 C3039 1.429 . S
C3048 N3045 1.350 . S
C3048 C3047 1.434 . S
C3049 C3050 1.369 . S
C3049 C3051 1.419 . S
C3049 H3053 0.930 . S
C3050 C3049 1.369 . S
C3050 C3059 1.429 . S
C3051 C3049 1.419 . S
C3051 C3052 1.363 . S
C3051 H3054 0.929 . S
C3052 C3051 1.363 . S
C3052 C3058 1.428 . S
H3053 C3049 0.930 . S
H3054 C3051 0.929 . S
S3055 N3056 1.613 . S
S3055 N3057 1.610 . S
N3056 S3055 1.613 . S
N3056 C3059 1.350 . S
N3057 S3055 1.610 . S
N3057 C3058 1.351 . S
C3058 C3052 1.428 . S
C3058 N3057 1.351 . S
C3058 C3059 1.434 . S
C3059 C3050 1.429 . S
C3059 N3056 1.350 . S
C3059 C3058 1.434 . S
C3060 C3061 1.369 . S
C3060 C3062 1.419 . S
C3060 H3064 0.930 . S
C3061 C3060 1.369 . S
C3061 C3070 1.429 . S
C3062 C3060 1.419 . S
C3062 C3063 1.363 . S
C3062 H3065 0.929 . S
C3063 C3062 1.363 . S
C3063 C3069 1.428 . S
H3064 C3060 0.930 . S
H3065 C3062 0.929 . S
S3066 N3067 1.613 . S
S3066 N3068 1.610 . S
N3067 S3066 1.613 . S
N3067 C3070 1.350 . S
N3068 S3066 1.610 . S
N3068 C3069 1.351 . S
C3069 C3063 1.428 . S
C3069 N3068 1.351 . S
C3069 C3070 1.434 . S
C3070 C3061 1.429 . S
C3070 N3067 1.350 . S
C3070 C3069 1.434 . S
C3071 C3072 1.369 . S
C3071 C3073 1.419 . S
C3071 H3075 0.930 . S
C3072 C3071 1.369 . S
C3072 C3081 1.429 . S
C3073 C3071 1.419 . S
C3073 C3074 1.363 . S
C3073 H3076 0.929 . S
C3074 C3073 1.363 . S
C3074 C3080 1.428 . S
H3075 C3071 0.930 . S
H3076 C3073 0.929 . S
S3077 N3078 1.613 . S
S3077 N3079 1.610 . S
N3078 S3077 1.613 . S
N3078 C3081 1.350 . S
N3079 S3077 1.610 . S
N3079 C3080 1.351 . S
C3080 C3074 1.428 . S
C3080 N3079 1.351 . S
C3080 C3081 1.434 . S
C3081 C3072 1.429 . S
C3081 N3078 1.350 . S
C3081 C3080 1.434 . S
C3082 C3083 1.369 . S
C3082 C3084 1.419 . S
C3082 H3086 0.930 . S
C3083 C3082 1.369 . S
C3083 C3092 1.429 . S
C3084 C3082 1.419 . S
C3084 C3085 1.363 . S
C3084 H3087 0.929 . S
C3085 C3084 1.363 . S
C3085 C3091 1.428 . S
H3086 C3082 0.930 . S
H3087 C3084 0.929 . S
S3088 N3089 1.613 . S
S3088 N3090 1.610 . S
N3089 S3088 1.613 . S
N3089 C3092 1.350 . S
N3090 S3088 1.610 . S
N3090 C3091 1.351 . S
C3091 C3085 1.428 . S
C3091 N3090 1.351 . S
C3091 C3092 1.434 . S
C3092 C3083 1.429 . S
C3092 N3089 1.350 . S
C3092 C3091 1.434 . S
C3093 C3094 1.369 . S
C3093 C3095 1.419 . S
C3093 H3097 0.930 . S
C3094 C3093 1.369 . S
C3094 C3103 1.429 . S
C3095 C3093 1.419 . S
C3095 C3096 1.363 . S
C3095 H3098 0.929 . S
C3096 C3095 1.363 . S
C3096 C3102 1.428 . S
H3097 C3093 0.930 . S
H3098 C3095 0.929 . S
S3099 N3100 1.613 . S
S3099 N3101 1.610 . S
N3100 S3099 1.613 . S
N3100 C3103 1.350 . S
N3101 S3099 1.610 . S
N3101 C3102 1.351 . S
C3102 C3096 1.428 . S
C3102 N3101 1.351 . S
C3102 C3103 1.434 . S
C3103 C3094 1.429 . S
C3103 N3100 1.350 . S
C3103 C3102 1.434 . S
C3104 C3105 1.369 . S
C3104 C3106 1.419 . S
C3104 H3108 0.930 . S
C3105 C3104 1.369 . S
C3105 C3114 1.429 . S
C3106 C3104 1.419 . S
C3106 C3107 1.363 . S
C3106 H3109 0.929 . S
C3107 C3106 1.363 . S
C3107 C3113 1.428 . S
H3108 C3104 0.930 . S
H3109 C3106 0.929 . S
S3110 N3111 1.613 1_545 S
S3110 N3112 1.615 . S
N3111 S3110 1.613 1_565 S
N3111 C3114 1.350 . S
N3112 S3110 1.615 . S
N3112 C3113 1.332 1_545 S
C3113 C3107 1.428 . S
C3113 N3112 1.332 1_565 S
C3113 C3114 1.434 . S
C3114 C3105 1.429 . S
C3114 N3111 1.350 . S
C3114 C3113 1.434 . S
C3115 C3116 1.369 . S
C3115 C3117 1.419 . S
C3115 H3119 0.930 . S
C3116 C3115 1.369 . S
C3116 C3125 1.429 . S
C3117 C3115 1.419 . S
C3117 C3118 1.363 . S
C3117 H3120 0.929 . S
C3118 C3117 1.363 . S
C3118 C3124 1.428 . S
H3119 C3115 0.930 . S
H3120 C3117 0.929 . S
S3121 N3122 1.613 . S
S3121 N3123 1.610 . S
N3122 S3121 1.613 . S
N3122 C3125 1.350 . S
N3123 S3121 1.610 . S
N3123 C3124 1.351 . S
C3124 C3118 1.428 . S
C3124 N3123 1.351 . S
C3124 C3125 1.434 . S
C3125 C3116 1.429 . S
C3125 N3122 1.350 . S
C3125 C3124 1.434 . S
C3126 C3127 1.369 . S
C3126 C3128 1.419 . S
C3126 H3130 0.930 . S
C3127 C3126 1.369 . S
C3127 C3136 1.429 . S
C3128 C3126 1.419 . S
C3128 C3129 1.363 . S
C3128 H3131 0.929 . S
C3129 C3128 1.363 . S
C3129 C3135 1.428 . S
H3130 C3126 0.930 . S
H3131 C3128 0.929 . S
S3132 N3133 1.613 . S
S3132 N3134 1.610 . S
N3133 S3132 1.613 . S
N3133 C3136 1.350 . S
N3134 S3132 1.610 . S
N3134 C3135 1.351 . S
C3135 C3129 1.428 . S
C3135 N3134 1.351 . S
C3135 C3136 1.434 . S
C3136 C3127 1.429 . S
C3136 N3133 1.350 . S
C3136 C3135 1.434 . S
C3137 C3138 1.369 . S
C3137 C3139 1.419 . S
C3137 H3141 0.930 . S
C3138 C3137 1.369 . S
C3138 C3147 1.429 . S
C3139 C3137 1.419 . S
C3139 C3140 1.363 . S
C3139 H3142 0.929 . S
C3140 C3139 1.363 . S
C3140 C3146 1.428 . S
H3141 C3137 0.930 . S
H3142 C3139 0.929 . S
S3143 N3144 1.613 . S
S3143 N3145 1.610 . S
N3144 S3143 1.613 . S
N3144 C3147 1.350 . S
N3145 S3143 1.610 . S
N3145 C3146 1.351 . S
C3146 C3140 1.428 . S
C3146 N3145 1.351 . S
C3146 C3147 1.434 . S
C3147 C3138 1.429 . S
C3147 N3144 1.350 . S
C3147 C3146 1.434 . S
C3148 C3149 1.369 . S
C3148 C3150 1.419 . S
C3148 H3152 0.930 . S
C3149 C3148 1.369 . S
C3149 C3158 1.429 . S
C3150 C3148 1.419 . S
C3150 C3151 1.363 . S
C3150 H3153 0.929 . S
C3151 C3150 1.363 . S
C3151 C3157 1.428 . S
H3152 C3148 0.930 . S
H3153 C3150 0.929 . S
S3154 N3155 1.613 . S
S3154 N3156 1.610 . S
N3155 S3154 1.613 . S
N3155 C3158 1.350 . S
N3156 S3154 1.610 . S
N3156 C3157 1.351 . S
C3157 C3151 1.428 . S
C3157 N3156 1.351 . S
C3157 C3158 1.434 . S
C3158 C3149 1.429 . S
C3158 N3155 1.350 . S
C3158 C3157 1.434 . S
C3159 C3160 1.369 . S
C3159 C3161 1.419 . S
C3159 H3163 0.930 . S
C3160 C3159 1.369 . S
C3160 C3169 1.429 . S
C3161 C3159 1.419 . S
C3161 C3162 1.363 . S
C3161 H3164 0.929 . S
C3162 C3161 1.363 . S
C3162 C3168 1.428 . S
H3163 C3159 0.930 . S
H3164 C3161 0.929 . S
S3165 N3166 1.613 . S
S3165 N3167 1.610 . S
N3166 S3165 1.613 . S
N3166 C3169 1.350 . S
N3167 S3165 1.610 . S
N3167 C3168 1.351 . S
C3168 C3162 1.428 . S
C3168 N3167 1.351 . S
C3168 C3169 1.434 . S
C3169 C3160 1.429 . S
C3169 N3166 1.350 . S
C3169 C3168 1.434 . S
C3170 C3171 1.369 . S
C3170 C3172 1.419 . S
C3170 H3174 0.930 . S
C3171 C3170 1.369 . S
C3171 C3180 1.429 . S
C3172 C3170 1.419 . S
C3172 C3173 1.363 . S
C3172 H3175 0.929 . S
C3173 C3172 1.363 . S
C3173 C3179 1.428 . S
H3174 C3170 0.930 . S
H3175 C3172 0.929 . S
S3176 N3177 1.613 . S
S3176 N3178 1.610 . S
N3177 S3176 1.613 . S
N3177 C3180 1.350 . S
N3178 S3176 1.610 . S
N3178 C3179 1.351 . S
C3179 C3173 1.428 . S
C3179 N3178 1.351 . S
C3179 C3180 1.434 . S
C3180 C3171 1.429 . S
C3180 N3177 1.350 . S
C3180 C3179 1.434 . S
C3181 C3182 1.369 . S
C3181 C3183 1.419 . S
C3181 H3185 0.930 . S
C3182 C3181 1.369 . S
C3182 C3191 1.429 . S
C3183 C3181 1.419 . S
C3183 C3184 1.363 . S
C3183 H3186 0.929 . S
C3184 C3183 1.363 . S
C3184 C3190 1.428 . S
H3185 C3181 0.930 . S
H3186 C3183 0.929 . S
S3187 N3188 1.613 . S
S3187 N3189 1.610 . S
N3188 S3187 1.613 . S
N3188 C3191 1.350 . S
N3189 S3187 1.610 . S
N3189 C3190 1.351 . S
C3190 C3184 1.428 . S
C3190 N3189 1.351 . S
C3190 C3191 1.434 . S
C3191 C3182 1.429 . S
C3191 N3188 1.350 . S
C3191 C3190 1.434 . S
C3192 C3193 1.369 . S
C3192 C3194 1.419 . S
C3192 H3196 0.930 . S
C3193 C3192 1.369 . S
C3193 C3202 1.429 . S
C3194 C3192 1.419 . S
C3194 C3195 1.363 . S
C3194 H3197 0.929 . S
C3195 C3194 1.363 . S
C3195 C3201 1.428 . S
H3196 C3192 0.930 . S
H3197 C3194 0.929 . S
S3198 N3199 1.613 . S
S3198 N3200 1.610 . S
N3199 S3198 1.613 . S
N3199 C3202 1.350 . S
N3200 S3198 1.610 . S
N3200 C3201 1.351 . S
C3201 C3195 1.428 . S
C3201 N3200 1.351 . S
C3201 C3202 1.434 . S
C3202 C3193 1.429 . S
C3202 N3199 1.350 . S
C3202 C3201 1.434 . S
C3203 C3204 1.369 . S
C3203 C3205 1.419 . S
C3203 H3207 0.930 . S
C3204 C3203 1.369 . S
C3204 C3213 1.429 . S
C3205 C3203 1.419 . S
C3205 C3206 1.363 . S
C3205 H3208 0.929 . S
C3206 C3205 1.363 . S
C3206 C3212 1.428 . S
H3207 C3203 0.930 . S
H3208 C3205 0.929 . S
S3209 N3210 1.613 . S
S3209 N3211 1.610 . S
N3210 S3209 1.613 . S
N3210 C3213 1.350 . S
N3211 S3209 1.610 . S
N3211 C3212 1.351 . S
C3212 C3206 1.428 . S
C3212 N3211 1.351 . S
C3212 C3213 1.434 . S
C3213 C3204 1.429 . S
C3213 N3210 1.350 . S
C3213 C3212 1.434 . S
C3214 C3215 1.369 . S
C3214 C3216 1.419 . S
C3214 H3218 0.930 . S
C3215 C3214 1.369 . S
C3215 C3224 1.429 . S
C3216 C3214 1.419 . S
C3216 C3217 1.363 . S
C3216 H3219 0.929 . S
C3217 C3216 1.363 . S
C3217 C3223 1.428 . S
H3218 C3214 0.930 . S
H3219 C3216 0.929 . S
S3220 N3221 1.613 . S
S3220 N3222 1.610 . S
N3221 S3220 1.613 . S
N3221 C3224 1.350 . S
N3222 S3220 1.610 . S
N3222 C3223 1.351 . S
C3223 C3217 1.428 . S
C3223 N3222 1.351 . S
C3223 C3224 1.434 . S
C3224 C3215 1.429 . S
C3224 N3221 1.350 . S
C3224 C3223 1.434 . S
C3225 C3226 1.369 . S
C3225 C3227 1.419 . S
C3225 H3229 0.930 . S
C3226 C3225 1.369 . S
C3226 C3235 1.429 . S
C3227 C3225 1.419 . S
C3227 C3228 1.363 . S
C3227 H3230 0.929 . S
C3228 C3227 1.363 . S
C3228 C3234 1.428 . S
H3229 C3225 0.930 . S
H3230 C3227 0.929 . S
S3231 N3232 1.613 . S
S3231 N3233 1.610 . S
N3232 S3231 1.613 . S
N3232 C3235 1.350 . S
N3233 S3231 1.610 . S
N3233 C3234 1.351 . S
C3234 C3228 1.428 . S
C3234 N3233 1.351 . S
C3234 C3235 1.434 . S
C3235 C3226 1.429 . S
C3235 N3232 1.350 . S
C3235 C3234 1.434 . S
C3236 C3237 1.369 . S
C3236 C3238 1.419 . S
C3236 H3240 0.930 . S
C3237 C3236 1.369 . S
C3237 C3246 1.429 . S
C3238 C3236 1.419 . S
C3238 C3239 1.363 . S
C3238 H3241 0.929 . S
C3239 C3238 1.363 . S
C3239 C3245 1.428 . S
H3240 C3236 0.930 . S
H3241 C3238 0.929 . S
S3242 N3243 1.613 . S
S3242 N3244 1.610 . S
N3243 S3242 1.613 . S
N3243 C3246 1.350 . S
N3244 S3242 1.610 . S
N3244 C3245 1.351 . S
C3245 C3239 1.428 . S
C3245 N3244 1.351 . S
C3245 C3246 1.434 . S
C3246 C3237 1.429 . S
C3246 N3243 1.350 . S
C3246 C3245 1.434 . S
C3247 C3248 1.369 . S
C3247 C3249 1.419 . S
C3247 H3251 0.930 . S
C3248 C3247 1.369 . S
C3248 C3257 1.429 . S
C3249 C3247 1.419 . S
C3249 C3250 1.363 . S
C3249 H3252 0.929 . S
C3250 C3249 1.363 . S
C3250 C3256 1.428 . S
H3251 C3247 0.930 . S
H3252 C3249 0.929 . S
S3253 N3254 1.613 . S
S3253 N3255 1.610 . S
N3254 S3253 1.613 . S
N3254 C3257 1.350 . S
N3255 S3253 1.610 . S
N3255 C3256 1.351 . S
C3256 C3250 1.428 . S
C3256 N3255 1.351 . S
C3256 C3257 1.434 . S
C3257 C3248 1.429 . S
C3257 N3254 1.350 . S
C3257 C3256 1.434 . S
C3258 C3259 1.369 . S
C3258 C3260 1.419 . S
C3258 H3262 0.930 . S
C3259 C3258 1.369 . S
C3259 C3268 1.429 . S
C3260 C3258 1.419 . S
C3260 C3261 1.363 . S
C3260 H3263 0.929 . S
C3261 C3260 1.363 . S
C3261 C3267 1.428 . S
H3262 C3258 0.930 . S
H3263 C3260 0.929 . S
S3264 N3265 1.622 . S
S3264 N3266 1.610 1_554 S
N3265 S3264 1.622 . S
N3265 C3268 1.315 1_554 S
N3266 S3264 1.610 1_556 S
N3266 C3267 1.351 . S
C3267 C3261 1.428 . S
C3267 N3266 1.351 . S
C3267 C3268 1.434 . S
C3268 C3259 1.429 . S
C3268 N3265 1.315 1_556 S
C3268 C3267 1.434 . S
C3269 C3270 1.369 . S
C3269 C3271 1.419 . S
C3269 H3273 0.930 . S
C3270 C3269 1.369 . S
C3270 C3279 1.429 . S
C3271 C3269 1.419 . S
C3271 C3272 1.363 . S
C3271 H3274 0.929 . S
C3272 C3271 1.363 . S
C3272 C3278 1.428 . S
H3273 C3269 0.930 . S
H3274 C3271 0.929 . S
S3275 N3276 1.613 . S
S3275 N3277 1.610 . S
N3276 S3275 1.613 . S
N3276 C3279 1.350 . S
N3277 S3275 1.610 . S
N3277 C3278 1.351 . S
C3278 C3272 1.428 . S
C3278 N3277 1.351 . S
C3278 C3279 1.434 . S
C3279 C3270 1.429 . S
C3279 N3276 1.350 . S
C3279 C3278 1.434 . S
C3280 C3281 1.369 . S
C3280 C3282 1.419 . S
C3280 H3284 0.930 . S
C3281 C3280 1.369 . S
C3281 C3290 1.429 . S
C3282 C3280 1.419 . S
C3282 C3283 1.363 . S
C3282 H3285 0.929 . S
C3283 C3282 1.363 . S
C3283 C3289 1.428 . S
H3284 C3280 0.930 . S
H3285 C3282 0.929 . S
S3286 N3287 1.613 . S
S3286 N3288 1.610 . S
N3287 S3286 1.613 . S
N3287 C3290 1.350 . S
N3288 S3286 1.610 . S
N3288 C3289 1.351 . S
C3289 C3283 1.428 . S
C3289 N3288 1.351 . S
C3289 C3290 1.434 . S
C3290 C3281 1.429 . S
C3290 N3287 1.350 . S
C3290 C3289 1.434 . S
C3291 C3292 1.369 . S
C3291 C3293 1.419 . S
C3291 H3295 0.930 . S
C3292 C3291 1.369 . S
C3292 C3301 1.429 . S
C3293 C3291 1.419 . S
C3293 C3294 1.363 . S
C3293 H3296 0.929 . S
C3294 C3293 1.363 . S
C3294 C3300 1.428 . S
H3295 C3291 0.930 . S
H3296 C3293 0.929 . S
S3297 N3298 1.613 . S
S3297 N3299 1.610 . S
N3298 S3297 1.613 . S
N3298 C3301 1.350 . S
N3299 S3297 1.610 . S
N3299 C3300 1.351 . S
C3300 C3294 1.428 . S
C3300 N3299 1.351 . S
C3300 C3301 1.434 . S
C3301 C3292 1.429 . S
C3301 N3298 1.350 . S
C3301 C3300 1.434 . S
C3302 C3303 1.369 . S
C3302 C3304 1.419 . S
C3302 H3306 0.930 . S
C3303 C3302 1.369 . S
C3303 C3312 1.429 . S
C3304 C3302 1.419 . S
C3304 C3305 1.363 . S
C3304 H3307 0.929 . S
C3305 C3304 1.363 . S
C3305 C3311 1.428 . S
H3306 C3302 0.930 . S
H3307 C3304 0.929 . S
S3308 N3309 1.613 . S
S3308 N3310 1.610 . S
N3309 S3308 1.613 . S
N3309 C3312 1.350 . S
N3310 S3308 1.610 . S
N3310 C3311 1.351 . S
C3311 C3305 1.428 . S
C3311 N3310 1.351 . S
C3311 C3312 1.434 . S
C3312 C3303 1.429 . S
C3312 N3309 1.350 . S
C3312 C3311 1.434 . S
C3313 C3314 1.369 . S
C3313 C3315 1.419 . S
C3313 H3317 0.930 . S
C3314 C3313 1.369 . S
C3314 C3323 1.429 . S
C3315 C3313 1.419 . S
C3315 C3316 1.363 . S
C3315 H3318 0.929 . S
C3316 C3315 1.363 . S
C3316 C3322 1.428 . S
H3317 C3313 0.930 . S
H3318 C3315 0.929 . S
S3319 N3320 1.613 . S
S3319 N3321 1.610 . S
N3320 S3319 1.613 . S
N3320 C3323 1.350 . S
N3321 S3319 1.610 . S
N3321 C3322 1.351 . S
C3322 C3316 1.428 . S
C3322 N3321 1.351 . S
C3322 C3323 1.434 . S
C3323 C3314 1.429 . S
C3323 N3320 1.350 . S
C3323 C3322 1.434 . S
C3324 C3325 1.369 . S
C3324 C3326 1.419 . S
C3324 H3328 0.930 . S
C3325 C3324 1.369 . S
C3325 C3334 1.429 . S
C3326 C3324 1.419 . S
C3326 C3327 1.363 . S
C3326 H3329 0.929 . S
C3327 C3326 1.363 . S
C3327 C3333 1.428 . S
H3328 C3324 0.930 . S
H3329 C3326 0.929 . S
S3330 N3331 1.613 . S
S3330 N3332 1.610 . S
N3331 S3330 1.613 . S
N3331 C3334 1.350 . S
N3332 S3330 1.610 . S
N3332 C3333 1.351 . S
C3333 C3327 1.428 . S
C3333 N3332 1.351 . S
C3333 C3334 1.434 . S
C3334 C3325 1.429 . S
C3334 N3331 1.350 . S
C3334 C3333 1.434 . S
C3335 C3336 1.369 . S
C3335 C3337 1.419 . S
C3335 H3339 0.930 . S
C3336 C3335 1.369 . S
C3336 C3345 1.429 . S
C3337 C3335 1.419 . S
C3337 C3338 1.363 . S
C3337 H3340 0.929 . S
C3338 C3337 1.363 . S
C3338 C3344 1.428 . S
H3339 C3335 0.930 . S
H3340 C3337 0.929 . S
S3341 N3342 1.613 . S
S3341 N3343 1.610 . S
N3342 S3341 1.613 . S
N3342 C3345 1.350 . S
N3343 S3341 1.610 . S
N3343 C3344 1.351 . S
C3344 C3338 1.428 . S
C3344 N3343 1.351 . S
C3344 C3345 1.434 . S
C3345 C3336 1.429 . S
C3345 N3342 1.350 . S
C3345 C3344 1.434 . S
C3346 C3347 1.369 . S
C3346 C3348 1.419 . S
C3346 H3350 0.930 . S
C3347 C3346 1.369 . S
C3347 C3356 1.429 . S
C3348 C3346 1.419 . S
C3348 C3349 1.363 . S
C3348 H3351 0.929 . S
C3349 C3348 1.363 . S
C3349 C3355 1.428 . S
H3350 C3346 0.930 . S
H3351 C3348 0.929 . S
S3352 N3353 1.613 . S
S3352 N3354 1.610 . S
N3353 S3352 1.613 . S
N3353 C3356 1.350 . S
N3354 S3352 1.610 . S
N3354 C3355 1.351 . S
C3355 C3349 1.428 . S
C3355 N3354 1.351 . S
C3355 C3356 1.434 . S
C3356 C3347 1.429 . S
C3356 N3353 1.350 . S
C3356 C3355 1.434 . S
C3357 C3358 1.369 . S
C3357 C3359 1.419 . S
C3357 H3361 0.930 . S
C3358 C3357 1.369 . S
C3358 C3367 1.429 . S
C3359 C3357 1.419 . S
C3359 C3360 1.363 . S
C3359 H3362 0.929 . S
C3360 C3359 1.363 . S
C3360 C3366 1.428 . S
H3361 C3357 0.930 . S
H3362 C3359 0.929 . S
S3363 N3364 1.613 . S
S3363 N3365 1.610 . S
N3364 S3363 1.613 . S
N3364 C3367 1.350 . S
N3365 S3363 1.610 . S
N3365 C3366 1.351 . S
C3366 C3360 1.428 . S
C3366 N3365 1.351 . S
C3366 C3367 1.434 . S
C3367 C3358 1.429 . S
C3367 N3364 1.350 . S
C3367 C3366 1.434 . S
C3368 C3369 1.369 . S
C3368 C3370 1.419 . S
C3368 H3372 0.930 . S
C3369 C3368 1.369 . S
C3369 C3378 1.429 . S
C3370 C3368 1.419 . S
C3370 C3371 1.363 . S
C3370 H3373 0.929 . S
C3371 C3370 1.363 . S
C3371 C3377 1.428 . S
H3372 C3368 0.930 . S
H3373 C3370 0.929 . S
S3374 N3375 1.613 . S
S3374 N3376 1.610 . S
N3375 S3374 1.613 . S
N3375 C3378 1.350 . S
N3376 S3374 1.610 . S
N3376 C3377 1.351 . S
C3377 C3371 1.428 . S
C3377 N3376 1.351 . S
C3377 C3378 1.434 . S
C3378 C3369 1.429 . S
C3378 N3375 1.350 . S
C3378 C3377 1.434 . S
C3379 C3380 1.369 . S
C3379 C3381 1.419 . S
C3379 H3383 0.930 . S
C3380 C3379 1.369 . S
C3380 C3389 1.429 . S
C3381 C3379 1.419 . S
C3381 C3382 1.363 . S
C3381 H3384 0.929 . S
C3382 C3381 1.363 . S
C3382 C3388 1.428 . S
H3383 C3379 0.930 . S
H3384 C3381 0.929 . S
S3385 N3386 1.613 . S
S3385 N3387 1.610 . S
N3386 S3385 1.613 . S
N3386 C3389 1.350 . S
N3387 S3385 1.610 . S
N3387 C3388 1.351 . S
C3388 C3382 1.428 . S
C3388 N3387 1.351 . S
C3388 C3389 1.434 . S
C3389 C3380 1.429 . S
C3389 N3386 1.350 . S
C3389 C3388 1.434 . S
C3390 C3391 1.369 . S
C3390 C3392 1.419 . S
C3390 H3394 0.930 . S
C3391 C3390 1.369 . S
C3391 C3400 1.429 . S
C3392 C3390 1.419 . S
C3392 C3393 1.363 . S
C3392 H3395 0.929 . S
C3393 C3392 1.363 . S
C3393 C3399 1.428 . S
H3394 C3390 0.930 . S
H3395 C3392 0.929 . S
S3396 N3397 1.613 . S
S3396 N3398 1.610 . S
N3397 S3396 1.613 . S
N3397 C3400 1.350 . S
N3398 S3396 1.610 . S
N3398 C3399 1.351 . S
C3399 C3393 1.428 . S
C3399 N3398 1.351 . S
C3399 C3400 1.434 . S
C3400 C3391 1.429 . S
C3400 N3397 1.350 . S
C3400 C3399 1.434 . S
C3401 C3402 1.369 . S
C3401 C3403 1.419 . S
C3401 H3405 0.930 . S
C3402 C3401 1.369 . S
C3402 C3411 1.429 . S
C3403 C3401 1.419 . S
C3403 C3404 1.363 . S
C3403 H3406 0.929 . S
C3404 C3403 1.363 . S
C3404 C3410 1.428 . S
H3405 C3401 0.930 . S
H3406 C3403 0.929 . S
S3407 N3408 1.613 . S
S3407 N3409 1.610 . S
N3408 S3407 1.613 . S
N3408 C3411 1.350 . S
N3409 S3407 1.610 . S
N3409 C3410 1.351 . S
C3410 C3404 1.428 . S
C3410 N3409 1.351 . S
C3410 C3411 1.434 . S
C3411 C3402 1.429 . S
C3411 N3408 1.350 . S
C3411 C3410 1.434 . S
C3412 C3413 1.369 . S
C3412 C3414 1.419 . S
C3412 H3416 0.930 . S
C3413 C3412 1.369 . S
C3413 C3422 1.429 . S
C3414 C3412 1.419 . S
C3414 C3415 1.363 . S
C3414 H3417 0.929 . S
C3415 C3414 1.363 . S
C3415 C3421 1.428 . S
H3416 C3412 0.930 . S
H3417 C3414 0.929 . S
S3418 N3419 1.613 . S
S3418 N3420 1.610 . S
N3419 S3418 1.613 . S
N3419 C3422 1.350 . S
N3420 S3418 1.610 . S
N3420 C3421 1.351 . S
C3421 C3415 1.428 . S
C3421 N3420 1.351 . S
C3421 C3422 1.434 . S
C3422 C3413 1.429 . S
C3422 N3419 1.350 . S
C3422 C3421 1.434 . S
C3423 C3424 1.369 . S
C3423 C3425 1.419 . S
C3423 H3427 0.930 . S
C3424 C3423 1.369 . S
C3424 C3433 1.429 . S
C3425 C3423 1.419 . S
C3425 C3426 1.363 . S
C3425 H3428 0.929 . S
C3426 C3425 1.363 . S
C3426 C3432 1.428 . S
H3427 C3423 0.930 . S
H3428 C3425 0.929 . S
S3429 N3430 1.613 . S
S3429 N3431 1.610 . S
N3430 S3429 1.613 . S
N3430 C3433 1.350 . S
N3431 S3429 1.610 . S
N3431 C3432 1.351 . S
C3432 C3426 1.428 . S
C3432 N3431 1.351 . S
C3432 C3433 1.434 . S
C3433 C3424 1.429 . S
C3433 N3430 1.350 . S
C3433 C3432 1.434 . S
C3434 C3435 1.369 . S
C3434 C3436 1.419 . S
C3434 H3438 0.930 . S
C3435 C3434 1.369 . S
C3435 C3444 1.429 . S
C3436 C3434 1.419 . S
C3436 C3437 1.363 . S
C3436 H3439 0.929 . S
C3437 C3436 1.363 . S
C3437 C3443 1.428 . S
H3438 C3434 0.930 . S
H3439 C3436 0.929 . S
S3440 N3441 1.613 . S
S3440 N3442 1.610 . S
N3441 S3440 1.613 . S
N3441 C3444 1.350 . S
N3442 S3440 1.610 . S
N3442 C3443 1.351 . S
C3443 C3437 1.428 . S
C3443 N3442 1.351 . S
C3443 C3444 1.434 . S
C3444 C3435 1.429 . S
C3444 N3441 1.350 . S
C3444 C3443 1.434 . S
C3445 C3446 1.369 . S
C3445 C3447 1.419 . S
C3445 H3449 0.930 . S
C3446 C3445 1.369 . S
C3446 C3455 1.429 . S
C3447 C3445 1.419 . S
C3447 C3448 1.363 . S
C3447 H3450 0.929 . S
C3448 C3447 1.363 . S
C3448 C3454 1.428 . S
H3449 C3445 0.930 . S
H3450 C3447 0.929 . S
S3451 N3452 1.613 . S
S3451 N3453 1.610 . S
N3452 S3451 1.613 . S
N3452 C3455 1.350 . S
N3453 S3451 1.610 . S
N3453 C3454 1.351 . S
C3454 C3448 1.428 . S
C3454 N3453 1.351 . S
C3454 C3455 1.434 . S
C3455 C3446 1.429 . S
C3455 N3452 1.350 . S
C3455 C3454 1.434 . S
C1345 C8 1.386 . S
C1347 C1059 1.311 . S
C1356 C345 1.312 . S
C1358 C22 1.386 . S
C1367 C1031 1.304 . S
C1369 C36 1.383 . S
C1378 C373 1.312 . S
C1380 C50 1.385 . S
C1389 C64 1.386 . S
C1391 C1087 1.308 . S
C1400 C78 1.386 . S
C1402 C429 1.308 . S
C1411 C1115 1.301 . S
C1413 C92 1.382 . S
C1422 C106 1.384 . S
C1424 C401 1.304 . S
C1433 C121 1.385 . S
C1435 C1269 1.306 . S
C1444 C611 1.313 . S
C1446 C134 1.386 . S
C1455 C149 1.382 . S
C1457 C625 1.302 . S
C1466 C162 1.383 . S
C1468 C583 1.303 . S
C1477 C177 1.387 . S
C1479 C1325 1.311 . S
C1488 C190 1.384 . S
C1490 C1241 1.305 . S
C1499 C205 1.383 . S
C1501 C1339 1.306 . S
C1510 C218 1.386 . S
C1512 C1311 1.311 . S
C1521 C1143 1.300 . S
C1523 C232 1.382 . S
C1532 C246 1.385 . S
C1534 C555 1.307 . S
C1543 C261 1.382 . S
C1545 C1185 1.302 . S
C1554 C527 1.312 . S
C1556 C274 1.386 . S
C1565 C289 1.386 . S
C1567 C541 1.311 . S
C1576 C1171 1.306 . S
C1578 C302 1.384 . S
C1587 C317 1.383 . S
C1589 C1129 1.303 . S
C1598 C1157 1.300 . S
C1600 C331 1.382 . S
C1609 C723 1.307 . S
C1611 C344 1.385 . S
C1620 C9 1.306 . S
C1622 C358 1.383 . S
C1631 C372 1.387 . S
C1633 C695 1.309 . S
C1642 C386 1.387 . S
C1644 C37 1.311 . S
C1653 C400 1.384 . S
C1655 C751 1.303 . S
C1664 C93 1.301 . S
C1666 C414 1.383 . S
C1675 C428 1.383 . S
C1677 C779 1.306 . S
C1686 C442 1.382 . S
C1688 C65 1.303 . S
C1697 C456 1.387 . S
C1699 C932 1.311 . S
C1708 C275 1.308 . S
C1710 C470 1.384 . S
C1719 C484 1.386 . S
C1721 C288 1.307 . S
C1730 C247 1.303 . S
C1732 C498 1.384 . S
C1741 C512 1.383 . S
C1743 C988 1.307 . S
C1752 C526 1.384 . S
C1754 C905 1.309 . S
C1763 C540 1.385 . S
C1765 C1002 1.310 . S
C1774 C975 1.309 . S
C1776 C554 1.384 . S
C1785 C807 1.310 . S
C1787 C568 1.386 . S
C1796 C219 1.305 . S
C1798 C582 1.383 . S
C1807 C848 1.312 . S
C1809 C596 1.385 . S
C1818 C610 1.382 . S
C1820 C191 1.305 . S
C1829 C624 1.385 . S
C1831 C204 1.310 . S
C1840 C638 1.384 . S
C1842 C835 1.303 . S
C1851 C792 1.302 . S
C1853 C652 1.384 . S
C1862 C666 1.387 . S
C1864 C820 1.311 . S
C1873 C387 1.309 . S
C1875 C680 1.385 . S
C1884 C1017 1.311 . S
C1886 C694 1.385 . S
C1895 C708 1.382 . S
C1897 C359 1.302 . S
C1906 C1045 1.301 . S
C1908 C722 1.383 . S
C1917 C736 1.387 . S
C1919 C415 1.312 . S
C1928 C1101 1.313 . S
C1930 C750 1.386 . S
C1939 C764 1.387 . S
C1941 C443 1.312 . S
C1950 C1073 1.312 . S
C1952 C778 1.386 . S
C1961 C597 1.308 . S
C1963 C793 1.384 . S
C1972 C806 1.387 . S
C1974 C1283 1.312 . S
C1983 C1297 1.308 . S
C1985 C821 1.385 . S
C1994 C834 1.387 . S
C1996 C1255 1.312 . S
C2005 C653 1.313 . S
C2007 C849 1.386 . S
C2016 C862 1.387 . S
C2018 C569 1.310 . S
C2027 C667 1.300 . S
C2029 C877 1.383 . S
C2038 C639 1.306 . S
C2040 C890 1.385 . S
C2049 C471 1.311 . S
C2051 C904 1.386 . S
C2060 C1227 1.313 . S
C2062 C918 1.386 . S
C2071 C933 1.383 . S
C2073 C513 1.302 . S
C2082 C946 1.384 . S
C2084 C1199 1.305 . S
C2093 C1213 1.314 . S
C2095 C961 1.386 . S
C2104 C499 1.302 . S
C2106 C974 1.383 . S
C2115 C457 1.303 . S
C2117 C989 1.384 . S
C2126 C485 1.313 . S
C2128 C1003 1.386 . S
C2137 C1016 1.385 . S
C2139 C51 1.306 . S
C2148 C1030 1.384 . S
C2150 C681 1.304 . S
C2159 C1044 1.382 . S
C2161 C23 1.305 . S
C2170 C1058 1.383 . S
C2172 C709 1.307 . S
C2181 C79 1.310 . S
C2183 C1072 1.386 . S
C2192 C765 1.308 . S
C2194 C1086 1.384 . S
C2203 C107 1.304 . S
C2205 C1100 1.385 . S
C2214 C737 1.302 . S
C2216 C1114 1.382 . S
C2225 C1128 1.384 . S
C2227 C260 1.305 . S
C2236 C947 1.305 . S
C2238 C1142 1.383 . S
C2247 C1156 1.383 . S
C2249 C960 1.302 . S
C2258 C1170 1.383 . S
C2260 C919 1.305 . S
C2269 C316 1.301 . S
C2271 C1184 1.383 . S
C2280 C233 1.302 . S
C2282 C1198 1.384 . S
C2291 C1212 1.387 . S
C2293 C330 1.310 . S
C2302 C303 1.309 . S
C2304 C1226 1.384 . S
C2313 C1240 1.382 . S
C2315 C135 1.302 . S
C2324 C1254 1.387 . S
C2326 C891 1.311 . S
C2335 C176 1.300 . S
C2337 C1268 1.383 . S
C2346 C1282 1.386 . S
C2348 C863 1.312 . S
C2357 C876 1.303 . S
C2359 C1296 1.384 . S
C2368 C1310 1.382 . S
C2370 C163 1.302 . S
C2379 C1324 1.386 . S
C2381 C120 1.307 . S
C2390 C1338 1.382 . S
C2392 C148 1.302 . S
C2401 C6 1.478 . S
C2403 C609 1.470 . S
C2412 C623 1.470 . S
C2414 C20 1.476 . S
C2423 C581 1.466 . S
C2425 C34 1.477 . S
C2434 C48 1.476 . S
C2436 C1267 1.469 . S
C2445 C62 1.476 . S
C2447 C1309 1.469 . S
C2456 C76 1.473 . S
C2458 C1323 1.465 . S
C2467 C1239 1.464 . S
C2469 C90 1.474 . S
C2478 C1337 1.468 . S
C2480 C104 1.475 . S
C2489 C371 1.464 . S
C2491 C119 1.474 . S
C2500 C132 1.475 . S
C2502 C1057 1.469 . S
C2511 C343 1.465 . S
C2513 C147 1.474 . S
C2522 C1029 1.466 . S
C2524 C160 1.477 . S
C2533 C427 1.466 . S
C2535 C175 1.474 . S
C2544 C188 1.478 . S
C2546 C1113 1.468 . S
C2555 C203 1.473 . S
C2557 C399 1.465 . S
C2566 C216 1.475 . S
C2568 C1085 1.469 . S
C2577 C230 1.476 . S
C2579 C1183 1.466 . S
C2588 C455 1.470 . S
C2590 C244 1.478 . S
C2599 C259 1.479 . S
C2601 C1141 1.469 . S
C2610 C272 1.473 . S
C2612 C483 1.465 . S
C2621 C287 1.476 . S
C2623 C497 1.469 . S
C2632 C300 1.474 . S
C2634 C1211 1.467 . S
C2643 C1225 1.464 . S
C2645 C315 1.474 . S
C2654 C1197 1.464 . S
C2656 C329 1.474 . S
C2665 C273 1.464 . S
C2667 C342 1.475 . S
C2676 C356 1.476 . S
C2678 C286 1.469 . S
C2687 C370 1.477 . S
C2689 C245 1.466 . S
C2698 C384 1.478 . S
C2700 C930 1.470 . S
C2709 C973 1.467 . S
C2711 C398 1.474 . S
C2720 C986 1.465 . S
C2722 C412 1.474 . S
C2731 C426 1.479 . S
C2733 C903 1.469 . S
C2742 C1000 1.468 . S
C2744 C440 1.474 . S
C2753 C454 1.473 . S
C2755 C35 1.466 . S
C2764 C721 1.469 . S
C2766 C468 1.478 . S
C2775 C482 1.479 . S
C2777 C7 1.468 . S
C2786 C693 1.465 . S
C2788 C496 1.474 . S
C2797 C510 1.479 . S
C2799 C91 1.469 . S
C2808 C777 1.468 . S
C2810 C524 1.478 . S
C2819 C63 1.466 . S
C2821 C538 1.477 . S
C2830 C749 1.465 . S
C2832 C552 1.476 . S
C2841 C566 1.476 . S
C2843 C846 1.469 . S
C2852 C580 1.475 . S
C2854 C118 1.465 . S
C2863 C805 1.471 . S
C2865 C594 1.477 . S
C2874 C608 1.476 . S
C2876 C146 1.469 . S
C2885 C161 1.464 . S
C2887 C622 1.474 . S
C2896 C874 1.468 . S
C2898 C636 1.478 . S
C2907 C889 1.468 . S
C2909 C650 1.475 . S
C2918 C861 1.468 . S
C2920 C664 1.475 . S
C2929 C678 1.478 . S
C2931 C1281 1.468 . S
C2940 C692 1.479 . S
C2942 C1295 1.469 . S
C2951 C706 1.473 . S
C2953 C1253 1.466 . S
C2962 C595 1.465 . S
C2964 C720 1.474 . S
C2973 C734 1.476 . S
C2975 C637 1.469 . S
C2984 C651 1.470 . S
C2986 C748 1.478 . S
C2995 C567 1.470 . S
C2997 C762 1.476 . S
C3006 C665 1.469 . S
C3008 C776 1.475 . S
C3017 C791 1.473 . S
C3019 C1043 1.465 . S
C3028 C385 1.464 . S
C3030 C804 1.474 . S
C3039 C819 1.474 . S
C3041 C1015 1.468 . S
C3050 C832 1.475 . S
C3052 C357 1.468 . S
C3061 C847 1.479 . S
C3063 C1099 1.469 . S
C3072 C860 1.475 . S
C3074 C441 1.465 . S
C3083 C1071 1.464 . S
C3085 C875 1.475 . S
C3094 C413 1.464 . S
C3096 C888 1.474 . S
C3105 C902 1.475 . S
C3107 C511 1.465 . S
C3116 C916 1.479 . S
C3118 C1127 1.469 . S
C3127 C931 1.478 . S
C3129 C469 1.470 . S
C3138 C1155 1.466 . S
C3140 C944 1.477 . S
C3149 C959 1.474 . S
C3151 C1169 1.467 . S
C3160 C972 1.473 . S
C3162 C539 1.465 . S
C3171 C553 1.470 . S
C3173 C987 1.476 . S
C3182 C1001 1.475 . S
C3184 C525 1.465 . S
C3193 C1014 1.477 . S
C3195 C945 1.470 . S
C3204 C958 1.467 . S
C3206 C1028 1.474 . S
C3215 C917 1.464 . S
C3217 C1042 1.474 . S
C3226 C1056 1.478 . S
C3228 C258 1.468 . S
C3237 C1070 1.477 . S
C3239 C301 1.470 . S
C3248 C1084 1.479 . S
C3250 C314 1.469 . S
C3259 C231 1.464 . S
C3261 C1098 1.476 . S
C3270 C1112 1.474 . S
C3272 C328 1.465 . S
C3281 C1126 1.474 . S
C3283 C707 1.465 . S
C3292 C1140 1.479 . S
C3294 C49 1.469 . S
C3303 C1154 1.473 . S
C3305 C679 1.466 . S
C3314 C1168 1.473 . S
C3316 C21 1.465 . S
C3325 C1182 1.473 . S
C3327 C763 1.466 . S
C3336 C1196 1.478 . S
C3338 C105 1.467 . S
C3347 C1210 1.479 . S
C3349 C735 1.469 . S
C3358 C1224 1.473 . S
C3360 C77 1.465 . S
C3369 C1238 1.473 . S
C3371 C174 1.465 . S
C3380 C1252 1.478 . S
C3382 C790 1.467 . S
C3391 C1266 1.473 . S
C3393 C133 1.465 . S
C3402 C1280 1.475 . S
C3404 C818 1.465 . S
C3413 C1294 1.478 . S
C3415 C833 1.468 . S
C3424 C202 1.464 . S
C3426 C1308 1.474 . S
C3435 C1322 1.473 . S
C3437 C217 1.466 . S
C3446 C1336 1.478 . S
C3448 C189 1.467 . S
