# Generated by pormake.
# Topology tzs, (4)-cn, num edge types: 1
# Building blocks:
#     Node 0, Type 0, BuildingBlock: NAHDIM_clean_sbu_0, # of connection points: 4
#     Node 1, Type 0, BuildingBlock: NAHDIM_clean_sbu_0, # of connection points: 4
#     Node 2, Type 0, BuildingBlock: NAHDIM_clean_sbu_0, # of connection points: 4
#     Node 3, Type 0, BuildingBlock: NAHDIM_clean_sbu_0, # of connection points: 4
#     Node 4, Type 0, BuildingBlock: NAHDIM_clean_sbu_0, # of connection points: 4
#     Node 5, Type 0, BuildingBlock: NAHDIM_clean_sbu_0, # of connection points: 4
#     Node 6, Type 0, BuildingBlock: NAHDIM_clean_sbu_0, # of connection points: 4
#     Node 7, Type 0, BuildingBlock: NAHDIM_clean_sbu_0, # of connection points: 4
#     Node 8, Type 0, BuildingBlock: NAHDIM_clean_sbu_0, # of connection points: 4
#     Node 9, Type 0, BuildingBlock: NAHDIM_clean_sbu_0, # of connection points: 4
#     Node 10, Type 0, BuildingBlock: NAHDIM_clean_sbu_0, # of connection points: 4
#     Node 11, Type 0, BuildingBlock: NAHDIM_clean_sbu_0, # of connection points: 4
#     Node 12, Type 0, BuildingBlock: NAHDIM_clean_sbu_0, # of connection points: 4
#     Node 13, Type 0, BuildingBlock: NAHDIM_clean_sbu_0, # of connection points: 4
#     Node 14, Type 0, BuildingBlock: NAHDIM_clean_sbu_0, # of connection points: 4
#     Node 15, Type 0, BuildingBlock: NAHDIM_clean_sbu_0, # of connection points: 4
#     Edge 16, Type (0, 0), BuildingBlock: AJUNOK_clean_linker_0, # of connection points: 2
#     Edge 17, Type (0, 0), BuildingBlock: AJUNOK_clean_linker_0, # of connection points: 2
#     Edge 18, Type (0, 0), BuildingBlock: AJUNOK_clean_linker_0, # of connection points: 2
#     Edge 19, Type (0, 0), BuildingBlock: AJUNOK_clean_linker_0, # of connection points: 2
#     Edge 20, Type (0, 0), BuildingBlock: AJUNOK_clean_linker_0, # of connection points: 2
#     Edge 21, Type (0, 0), BuildingBlock: AJUNOK_clean_linker_0, # of connection points: 2
#     Edge 22, Type (0, 0), BuildingBlock: AJUNOK_clean_linker_0, # of connection points: 2
#     Edge 23, Type (0, 0), BuildingBlock: AJUNOK_clean_linker_0, # of connection points: 2
#     Edge 24, Type (0, 0), BuildingBlock: AJUNOK_clean_linker_0, # of connection points: 2
#     Edge 25, Type (0, 0), BuildingBlock: AJUNOK_clean_linker_0, # of connection points: 2
#     Edge 26, Type (0, 0), BuildingBlock: AJUNOK_clean_linker_0, # of connection points: 2
#     Edge 27, Type (0, 0), BuildingBlock: AJUNOK_clean_linker_0, # of connection points: 2
#     Edge 28, Type (0, 0), BuildingBlock: AJUNOK_clean_linker_0, # of connection points: 2
#     Edge 29, Type (0, 0), BuildingBlock: AJUNOK_clean_linker_0, # of connection points: 2
#     Edge 30, Type (0, 0), BuildingBlock: AJUNOK_clean_linker_0, # of connection points: 2
#     Edge 31, Type (0, 0), BuildingBlock: AJUNOK_clean_linker_0, # of connection points: 2
#     Edge 32, Type (0, 0), BuildingBlock: AJUNOK_clean_linker_0, # of connection points: 2
#     Edge 33, Type (0, 0), BuildingBlock: AJUNOK_clean_linker_0, # of connection points: 2
#     Edge 34, Type (0, 0), BuildingBlock: AJUNOK_clean_linker_0, # of connection points: 2
#     Edge 35, Type (0, 0), BuildingBlock: AJUNOK_clean_linker_0, # of connection points: 2
#     Edge 36, Type (0, 0), BuildingBlock: AJUNOK_clean_linker_0, # of connection points: 2
#     Edge 37, Type (0, 0), BuildingBlock: AJUNOK_clean_linker_0, # of connection points: 2
#     Edge 38, Type (0, 0), BuildingBlock: AJUNOK_clean_linker_0, # of connection points: 2
#     Edge 39, Type (0, 0), BuildingBlock: AJUNOK_clean_linker_0, # of connection points: 2
#     Edge 40, Type (0, 0), BuildingBlock: AJUNOK_clean_linker_0, # of connection points: 2
#     Edge 41, Type (0, 0), BuildingBlock: AJUNOK_clean_linker_0, # of connection points: 2
#     Edge 42, Type (0, 0), BuildingBlock: AJUNOK_clean_linker_0, # of connection points: 2
#     Edge 43, Type (0, 0), BuildingBlock: AJUNOK_clean_linker_0, # of connection points: 2
#     Edge 44, Type (0, 0), BuildingBlock: AJUNOK_clean_linker_0, # of connection points: 2
#     Edge 45, Type (0, 0), BuildingBlock: AJUNOK_clean_linker_0, # of connection points: 2
#     Edge 46, Type (0, 0), BuildingBlock: AJUNOK_clean_linker_0, # of connection points: 2
#     Edge 47, Type (0, 0), BuildingBlock: AJUNOK_clean_linker_0, # of connection points: 2
# Relax obj value: 0.068
# Max RMSD: 0.083
# Mean RMSD: 0.083
data_MOF--net-tzs--node1-NAHDIM_clean_sbu_0--edge1-AJUNOK_clean_linker_0
_symmetry_space_group_name_H-M    P1
_symmetry_Int_Tables_number       1
_symmetry_cell_setting            triclinic
loop_
_symmetry_equiv_pos_as_xyz
'x, y, z'
_cell_length_a     36.533743
_cell_length_b     36.560529
_cell_length_c     28.871124
_cell_angle_alpha  89.909729
_cell_angle_beta   89.87133
_cell_angle_gamma 89.933091
loop_
_atom_site_label
_atom_site_type_symbol
_atom_site_fract_x
_atom_site_fract_y
_atom_site_fract_z
_atom_type_partial_charge
C0 C 0.21591 0.32441 0.24011 0.0
O1 O 0.22775 0.35766 0.23166 0.0
O2 O 0.1646 0.40535 0.23845 0.0
Zn3 Zn 0.15072 0.35771 0.20759 0.0
O4 O 0.15762 0.3626 0.13862 0.0
C5 C 0.0772 0.37756 0.21493 0.0
O6 O 0.0921 0.40657 0.19576 0.0
O7 O 0.18254 0.31696 0.23205 0.0
C8 C 0.14226 0.34195 0.10918 0.0
O9 O 0.12098 0.31542 0.12399 0.0
C10 C 0.17861 0.43197 0.21627 0.0
O11 O 0.18654 0.42778 0.17223 0.0
O12 O 0.09731 0.34979 0.22249 0.0
C13 C 0.67438 0.21639 0.22307 0.0
O14 O 0.64191 0.2282 0.21047 0.0
O15 O 0.59225 0.16303 0.23963 0.0
Zn16 Zn 0.6391 0.14845 0.20696 0.0
O17 O 0.63149 0.15126 0.13806 0.0
C18 C 0.62274 0.0751 0.2272 0.0
O19 O 0.59065 0.08769 0.21424 0.0
O20 O 0.68009 0.18215 0.22486 0.0
C21 C 0.65681 0.14544 0.1088 0.0
O22 O 0.68948 0.13624 0.12383 0.0
C23 C 0.56514 0.17632 0.21773 0.0
O24 O 0.56879 0.1837 0.17346 0.0
O25 O 0.65012 0.0965 0.22599 0.0
C26 C 0.78673 0.68484 0.19931 0.0
O27 O 0.77515 0.65442 0.1801 0.0
O28 O 0.83581 0.60164 0.20635 0.0
Zn29 Zn 0.85435 0.64972 0.18078 0.0
O30 O 0.85501 0.6484 0.11092 0.0
C31 C 0.91849 0.63714 0.23633 0.0
O32 O 0.89648 0.61341 0.25609 0.0
O33 O 0.82099 0.68985 0.20322 0.0
C34 C 0.88078 0.63147 0.09041 0.0
O35 O 0.90614 0.61557 0.11559 0.0
C36 C 0.82849 0.57306 0.1832 0.0
O37 O 0.83112 0.57397 0.13784 0.0
O38 O 0.90626 0.65728 0.20388 0.0
C39 C 0.32042 0.78683 0.2219 0.0
O40 O 0.35357 0.77674 0.20965 0.0
O41 O 0.39806 0.8434 0.22624 0.0
Zn42 Zn 0.35044 0.85457 0.19386 0.0
O43 O 0.35736 0.84663 0.12536 0.0
C44 C 0.35379 0.9324 0.18486 0.0
O45 O 0.37764 0.92317 0.15282 0.0
O46 O 0.3116 0.82032 0.21783 0.0
C47 C 0.33583 0.85915 0.09474 0.0
O48 O 0.30681 0.87771 0.10793 0.0
C49 C 0.4284 0.84444 0.20465 0.0
O50 O 0.4285 0.85298 0.16045 0.0
O51 O 0.33753 0.90724 0.20731 0.0
C52 C 0.21367 0.68173 0.29204 0.0
O53 O 0.22382 0.65117 0.3123 0.0
O54 O 0.16251 0.60058 0.28363 0.0
Zn55 Zn 0.14561 0.6487 0.31065 0.0
O56 O 0.1474 0.64738 0.38069 0.0
C57 C 0.07333 0.62982 0.28209 0.0
O58 O 0.08755 0.59703 0.28693 0.0
O59 O 0.17964 0.68804 0.28738 0.0
C60 C 0.12542 0.62783 0.40429 0.0
O61 O 0.1011 0.60785 0.38251 0.0
C62 C 0.17471 0.57355 0.30666 0.0
O63 O 0.17814 0.57633 0.35178 0.0
O64 O 0.09331 0.65764 0.28977 0.0
C65 C 0.31592 0.21047 0.30324 0.0
O66 O 0.34568 0.21807 0.32678 0.0
O67 O 0.39658 0.15624 0.28626 0.0
Zn68 Zn 0.34775 0.14078 0.31257 0.0
O69 O 0.34996 0.13931 0.3822 0.0
C70 C 0.34478 0.08405 0.2453 0.0
O71 O 0.35663 0.11116 0.21943 0.0
O72 O 0.30971 0.17734 0.29258 0.0
C73 C 0.36956 0.1157 0.40293 0.0
O74 O 0.38792 0.09181 0.37809 0.0
C75 C 0.42365 0.16827 0.3092 0.0
O76 O 0.42078 0.17194 0.35431 0.0
O77 O 0.33714 0.09041 0.28753 0.0
C78 C 0.78512 0.32376 0.27307 0.0
O79 O 0.774 0.35532 0.2897 0.0
O80 O 0.83651 0.40598 0.25807 0.0
Zn81 Zn 0.85212 0.35906 0.28936 0.0
O82 O 0.84811 0.36379 0.35867 0.0
C83 C 0.92514 0.37874 0.27651 0.0
O84 O 0.9108 0.4082 0.29522 0.0
O85 O 0.81929 0.31816 0.26872 0.0
C86 C 0.86582 0.34252 0.3853 0.0
O87 O 0.8871 0.31745 0.36686 0.0
C88 C 0.82474 0.43375 0.27999 0.0
O89 O 0.82039 0.43148 0.32506 0.0
O90 O 0.90488 0.35081 0.27115 0.0
C91 C 0.67785 0.78671 0.2719 0.0
O92 O 0.64404 0.77506 0.27676 0.0
O93 O 0.59707 0.83982 0.27741 0.0
Zn94 Zn 0.64526 0.85202 0.30787 0.0
O95 O 0.64089 0.84622 0.37708 0.0
C96 C 0.62843 0.92643 0.29947 0.0
O97 O 0.59892 0.91344 0.3197 0.0
O98 O 0.68531 0.81946 0.28312 0.0
C99 C 0.66194 0.86302 0.40479 0.0
O100 O 0.68763 0.88422 0.38764 0.0
C101 C 0.56812 0.83246 0.30009 0.0
O102 O 0.56986 0.83012 0.34542 0.0
O103 O 0.65495 0.90477 0.29162 0.0
C104 C 0.80089 0.69572 0.79149 0.0
O105 O 0.81069 0.70205 0.83449 0.0
O106 O 0.90494 0.65608 0.76874 0.0
Zn107 Zn 0.85699 0.63974 0.79622 0.0
O108 O 0.85785 0.64286 0.86594 0.0
C109 C 0.85778 0.57871 0.73556 0.0
O110 O 0.8691 0.60431 0.70694 0.0
O111 O 0.81671 0.67031 0.76917 0.0
C112 C 0.8792 0.62205 0.8886 0.0
O113 O 0.90005 0.59899 0.8657 0.0
C114 C 0.93099 0.67179 0.78989 0.0
O115 O 0.92742 0.67949 0.83409 0.0
O116 O 0.84985 0.58746 0.77697 0.0
C117 C 0.28546 0.82016 0.77693 0.0
O118 O 0.2726 0.85199 0.79046 0.0
O119 O 0.33525 0.90304 0.76898 0.0
Zn120 Zn 0.35129 0.85609 0.79963 0.0
O121 O 0.34557 0.86024 0.86876 0.0
C122 C 0.42453 0.8761 0.78162 0.0
O123 O 0.41054 0.90759 0.79465 0.0
O124 O 0.31983 0.81494 0.77727 0.0
C125 C 0.36538 0.84258 0.89714 0.0
O126 O 0.39102 0.82083 0.88096 0.0
C127 C 0.32174 0.92971 0.79148 0.0
O128 O 0.31585 0.92597 0.83611 0.0
O129 O 0.40413 0.84796 0.78192 0.0
C130 C 0.18145 0.28066 0.78731 0.0
O131 O 0.14908 0.27005 0.80193 0.0
O132 O 0.10259 0.33585 0.7814 0.0
Zn133 Zn 0.1501 0.34794 0.81328 0.0
O134 O 0.14504 0.34191 0.88247 0.0
C135 C 0.13495 0.42263 0.80716 0.0
O136 O 0.10608 0.40999 0.82918 0.0
O137 O 0.18936 0.31445 0.78919 0.0
C138 C 0.16316 0.36183 0.91019 0.0
O139 O 0.18591 0.38616 0.89307 0.0
C140 C 0.07291 0.32888 0.80267 0.0
O141 O 0.07304 0.32756 0.84813 0.0
O142 O 0.16054 0.40047 0.797 0.0
C143 C 0.7175 0.18227 0.78787 0.0
O144 O 0.7288 0.15082 0.80471 0.0
O145 O 0.66527 0.10202 0.78382 0.0
Zn146 Zn 0.65049 0.14986 0.81287 0.0
O147 O 0.65604 0.14694 0.88228 0.0
C148 C 0.5757 0.13305 0.80505 0.0
O149 O 0.58816 0.10462 0.82805 0.0
O150 O 0.68339 0.18905 0.78774 0.0
C151 C 0.63333 0.16165 0.90997 0.0
O152 O 0.60559 0.18011 0.89292 0.0
C153 C 0.67017 0.07284 0.80693 0.0
O154 O 0.66636 0.07366 0.85217 0.0
O155 O 0.59787 0.1586 0.79484 0.0
C156 C 0.82647 0.28267 0.71307 0.0
O157 O 0.85971 0.2703 0.70531 0.0
O158 O 0.90662 0.33612 0.71677 0.0
Zn159 Zn 0.86022 0.34861 0.68271 0.0
O160 O 0.867 0.34183 0.614 0.0
C161 C 0.86716 0.42633 0.67886 0.0
O162 O 0.89269 0.41757 0.6487 0.0
O163 O 0.81972 0.31622 0.70547 0.0
C164 C 0.84554 0.35675 0.58502 0.0
O165 O 0.81822 0.37672 0.60052 0.0
C166 C 0.93761 0.33472 0.69683 0.0
O167 O 0.93949 0.34074 0.65201 0.0
O168 O 0.84843 0.40099 0.69744 0.0
C169 C 0.69367 0.79243 0.70566 0.0
O170 O 0.6844 0.78992 0.66187 0.0
O171 O 0.66218 0.90566 0.73313 0.0
Zn172 Zn 0.64913 0.85803 0.70249 0.0
O173 O 0.6571 0.86218 0.63345 0.0
C174 C 0.57462 0.87581 0.71302 0.0
O175 O 0.58788 0.90658 0.69647 0.0
O176 O 0.68119 0.81881 0.72957 0.0
C177 C 0.63649 0.84728 0.60357 0.0
O178 O 0.60844 0.82777 0.61781 0.0
C179 C 0.67501 0.93313 0.71155 0.0
O180 O 0.68195 0.93027 0.66706 0.0
O181 O 0.59608 0.84867 0.71766 0.0
C182 C 0.18182 0.70951 0.71635 0.0
O183 O 0.15106 0.72035 0.69721 0.0
O184 O 0.09942 0.65963 0.72516 0.0
Zn185 Zn 0.14786 0.64173 0.69995 0.0
O186 O 0.14811 0.64245 0.63019 0.0
C187 C 0.12853 0.57155 0.73585 0.0
O188 O 0.09583 0.58603 0.73123 0.0
O189 O 0.18729 0.67548 0.72197 0.0
C190 C 0.13034 0.6196 0.60598 0.0
O191 O 0.11103 0.59426 0.62712 0.0
C192 C 0.07323 0.6716 0.70052 0.0
O193 O 0.07798 0.67519 0.65565 0.0
O194 O 0.15634 0.59027 0.7239 0.0
C195 C 0.28847 0.17729 0.71431 0.0
O196 O 0.27849 0.14624 0.69534 0.0
O197 O 0.33845 0.09713 0.72235 0.0
Zn198 Zn 0.35686 0.14488 0.69602 0.0
O199 O 0.35723 0.14314 0.62622 0.0
C200 C 0.42636 0.12606 0.73519 0.0
O201 O 0.41125 0.09352 0.73371 0.0
O202 O 0.32243 0.1843 0.71769 0.0
C203 C 0.37913 0.1222 0.60452 0.0
O204 O 0.40212 0.102 0.62836 0.0
C205 C 0.32548 0.07051 0.69942 0.0
O206 O 0.3222 0.07334 0.65427 0.0
O207 O 0.40828 0.15344 0.72034 0.0
C208 C 0.25665 0.23127 0.26821 0.0
C209 C 0.29051 0.24004 0.28857 0.0
C210 C 0.23245 0.25867 0.25331 0.0
C211 C 0.24131 0.29595 0.25769 0.0
H212 H 0.24868 0.20298 0.26362 0.0
H213 H 0.20686 0.25049 0.23756 0.0
S214 S 0.32598 0.33373 0.30998 0.0
N215 N 0.33116 0.28897 0.31336 0.0
N216 N 0.28587 0.34026 0.28514 0.0
C217 C 0.2749 0.30515 0.27839 0.0
C218 C 0.29941 0.27728 0.2939 0.0
C219 C 0.72076 0.30528 0.25629 0.0
C220 C 0.75794 0.29558 0.25976 0.0
C221 C 0.69415 0.27952 0.24419 0.0
C222 C 0.70349 0.24283 0.2355 0.0
H223 H 0.71198 0.33312 0.26278 0.0
H224 H 0.66593 0.2885 0.24206 0.0
S225 S 0.79705 0.20313 0.23968 0.0
N226 N 0.80283 0.2466 0.25321 0.0
N227 N 0.75272 0.19807 0.23078 0.0
C228 C 0.74058 0.23264 0.23883 0.0
C229 C 0.7678 0.25902 0.25081 0.0
C230 C 0.72233 0.70369 0.21648 0.0
C231 C 0.75995 0.71194 0.21739 0.0
C232 C 0.69622 0.72803 0.23412 0.0
C233 C 0.70648 0.76186 0.25325 0.0
H234 H 0.71279 0.67801 0.2023 0.0
H235 H 0.66768 0.72015 0.23259 0.0
S236 S 0.80146 0.79702 0.2638 0.0
N237 N 0.80619 0.75665 0.23896 0.0
N238 N 0.75705 0.8025 0.27197 0.0
C239 C 0.74399 0.77071 0.25415 0.0
C240 C 0.7707 0.74576 0.23631 0.0
C241 C 0.25648 0.76873 0.24388 0.0
C242 C 0.29382 0.75963 0.24008 0.0
C243 C 0.23078 0.74339 0.26053 0.0
C244 C 0.24141 0.70805 0.27452 0.0
H245 H 0.24687 0.79556 0.23357 0.0
H246 H 0.20236 0.75173 0.26263 0.0
S247 S 0.33602 0.67062 0.27204 0.0
N248 N 0.34018 0.71271 0.25206 0.0
N249 N 0.29208 0.6653 0.28346 0.0
C250 C 0.27873 0.69865 0.27114 0.0
C251 C 0.30485 0.72435 0.25388 0.0
C252 C 0.72868 0.76916 0.77402 0.0
C253 C 0.71981 0.76614 0.72674 0.0
C254 C 0.7545 0.74601 0.79463 0.0
C255 C 0.7726 0.71878 0.76889 0.0
H256 H 0.71586 0.78986 0.79543 0.0
H257 H 0.76048 0.74979 0.83104 0.0
S258 S 0.75874 0.69873 0.64397 0.0
N259 N 0.73078 0.73315 0.65485 0.0
N260 N 0.77926 0.68961 0.69353 0.0
C261 C 0.7636 0.71499 0.72169 0.0
C262 C 0.73725 0.73864 0.70066 0.0
C263 C 0.19865 0.77366 0.73629 0.0
C264 C 0.20911 0.7368 0.73173 0.0
C265 C 0.22353 0.80024 0.75104 0.0
C266 C 0.26005 0.79117 0.76132 0.0
H267 H 0.17086 0.78214 0.72882 0.0
H268 H 0.21399 0.8282 0.75409 0.0
S269 S 0.30157 0.69857 0.75438 0.0
N270 N 0.25864 0.69254 0.73842 0.0
N271 N 0.30556 0.74261 0.76578 0.0
C272 C 0.27104 0.75444 0.75662 0.0
C273 C 0.24554 0.72724 0.74198 0.0
C274 C 0.24469 0.26423 0.76066 0.0
C275 C 0.20812 0.25379 0.76863 0.0
C276 C 0.27047 0.23935 0.74319 0.0
C277 C 0.26065 0.20314 0.73251 0.0
H278 H 0.25364 0.29181 0.76824 0.0
H279 H 0.29828 0.24871 0.73779 0.0
S280 S 0.16843 0.16188 0.747 0.0
N281 N 0.16345 0.20454 0.76449 0.0
N282 N 0.21175 0.15797 0.73152 0.0
C283 C 0.22414 0.19233 0.74016 0.0
C284 C 0.19796 0.21758 0.75828 0.0
C285 C 0.7813 0.19847 0.76447 0.0
C286 C 0.7443 0.20873 0.76862 0.0
C287 C 0.80744 0.22248 0.74624 0.0
C288 C 0.79779 0.2579 0.73157 0.0
H289 H 0.79033 0.17154 0.77524 0.0
H290 H 0.83553 0.21313 0.74395 0.0
S291 S 0.70449 0.29838 0.73477 0.0
N292 N 0.69924 0.25686 0.7563 0.0
N293 N 0.74841 0.30208 0.72215 0.0
C294 C 0.76086 0.26863 0.73546 0.0
C295 C 0.73414 0.24404 0.75391 0.0
C296 C 0.13781 0.32817 0.97877 0.0
C297 C 0.15844 0.35756 0.96105 0.0
C298 C 0.13281 0.32337 0.02655 0.0
C299 C 0.14816 0.3478 0.05873 0.0
H300 H 0.12545 0.30848 0.95559 0.0
H301 H 0.11679 0.30021 0.03824 0.0
S302 S 0.20362 0.43008 0.03041 0.0
N303 N 0.19374 0.412 0.97962 0.0
N304 N 0.18437 0.40305 0.06923 0.0
C305 C 0.1687 0.37749 0.0415 0.0
C306 C 0.17383 0.38235 0.99279 0.0
C307 C 0.67135 0.14369 0.97841 0.0
C308 C 0.63831 0.15781 0.96079 0.0
C309 C 0.67701 0.1398 0.02616 0.0
C310 C 0.64977 0.14959 0.05838 0.0
H311 H 0.69328 0.13575 0.95517 0.0
H312 H 0.70301 0.12893 0.03778 0.0
S313 S 0.55784 0.18719 0.03032 0.0
N314 N 0.57767 0.1812 0.97947 0.0
N315 N 0.58816 0.17375 0.06906 0.0
C316 C 0.61643 0.16351 0.04124 0.0
C317 C 0.61075 0.16767 0.99256 0.0
C318 C 0.85477 0.64541 0.96413 0.0
C319 C 0.88058 0.62406 0.93998 0.0
C320 C 0.85513 0.64766 0.01259 0.0
C321 C 0.88144 0.62881 0.03904 0.0
H322 H 0.83385 0.66043 0.94555 0.0
H323 H 0.83451 0.66437 0.02936 0.0
S324 S 0.95569 0.5696 0.99269 0.0
N325 N 0.93359 0.58397 0.94631 0.0
N326 N 0.93435 0.58826 0.03721 0.0
C327 C 0.90763 0.60753 0.01534 0.0
C328 C 0.90717 0.60513 0.96593 0.0
C329 C 0.32065 0.86926 0.01118 0.0
C330 C 0.34403 0.85401 0.04472 0.0
C331 C 0.3279 0.86548 0.96376 0.0
C332 C 0.3588 0.84616 0.94773 0.0
H333 H 0.29649 0.88442 0.02149 0.0
H334 H 0.30892 0.87776 0.93951 0.0
S335 S 0.42913 0.80128 0.02119 0.0
N336 N 0.39974 0.81896 0.05844 0.0
N337 N 0.41327 0.81186 0.96939 0.0
C338 C 0.38249 0.83074 0.98084 0.0
C339 C 0.37514 0.83466 0.02924 0.0
C340 C 0.10757 0.59891 0.5287 0.0
C341 C 0.13021 0.62225 0.55463 0.0
C342 C 0.10625 0.60105 0.4803 0.0
C343 C 0.12764 0.62651 0.45562 0.0
H344 H 0.09045 0.57883 0.54584 0.0
H345 H 0.08829 0.5824 0.46217 0.0
S346 S 0.19178 0.69394 0.50688 0.0
N347 N 0.17474 0.67175 0.55183 0.0
N348 N 0.17232 0.67565 0.46089 0.0
C349 C 0.15058 0.64997 0.48102 0.0
C350 C 0.15184 0.64789 0.53045 0.0
C351 C 0.35414 0.14324 0.52833 0.0
C352 C 0.37761 0.11983 0.55318 0.0
C353 C 0.35172 0.14155 0.47998 0.0
C354 C 0.37256 0.11629 0.45426 0.0
H355 H 0.33743 0.16321 0.54629 0.0
H356 H 0.33325 0.16032 0.46272 0.0
S357 S 0.43815 0.04855 0.50249 0.0
N358 N 0.42213 0.07036 0.54825 0.0
N359 N 0.41752 0.06715 0.45744 0.0
C360 C 0.39612 0.0926 0.4786 0.0
C361 C 0.39867 0.09439 0.52796 0.0
C362 C 0.83469 0.36886 0.45503 0.0
C363 C 0.86167 0.3456 0.43636 0.0
C364 C 0.82967 0.37211 0.50297 0.0
C365 C 0.85154 0.3524 0.5344 0.0
H366 H 0.81702 0.38464 0.43247 0.0
H367 H 0.80846 0.39038 0.51536 0.0
S368 S 0.92655 0.28809 0.50359 0.0
N369 N 0.91088 0.3027 0.45328 0.0
N370 N 0.90154 0.30886 0.5433 0.0
C371 C 0.8788 0.32914 0.51628 0.0
C372 C 0.88382 0.32572 0.46735 0.0
C373 C 0.62116 0.83458 0.52064 0.0
C374 C 0.64406 0.85163 0.55323 0.0
C375 C 0.62734 0.83828 0.47295 0.0
C376 C 0.65668 0.85924 0.45566 0.0
H377 H 0.59809 0.81822 0.53192 0.0
H378 H 0.60871 0.82466 0.4495 0.0
S379 S 0.72514 0.90927 0.52631 0.0
N380 N 0.69763 0.89013 0.5647 0.0
N381 N 0.70919 0.89709 0.47518 0.0
C382 C 0.67996 0.87635 0.48783 0.0
C383 C 0.67368 0.87255 0.5365 0.0
C384 C 0.1776 0.50531 0.30913 0.0
C385 C 0.18037 0.53791 0.28346 0.0
C386 C 0.17824 0.47114 0.28723 0.0
C387 C 0.18217 0.4682 0.23885 0.0
H388 H 0.17338 0.50613 0.34627 0.0
H389 H 0.1748 0.44689 0.30838 0.0
S390 S 0.19452 0.5454 0.15646 0.0
N391 N 0.18999 0.56516 0.20752 0.0
N392 N 0.19163 0.50101 0.16632 0.0
C393 C 0.18692 0.50058 0.21303 0.0
C394 C 0.18586 0.5354 0.23533 0.0
C395 C 0.52605 0.17487 0.28904 0.0
C396 C 0.52881 0.17882 0.24063 0.0
C397 C 0.4919 0.17303 0.31116 0.0
C398 C 0.45917 0.17458 0.28569 0.0
H399 H 0.55046 0.17233 0.31004 0.0
H400 H 0.49126 0.16895 0.34833 0.0
S401 S 0.45106 0.18795 0.15863 0.0
N402 N 0.49556 0.18676 0.16826 0.0
N403 N 0.43152 0.1829 0.20983 0.0
C404 C 0.46145 0.17998 0.23751 0.0
C405 C 0.49622 0.18225 0.215 0.0
C406 C 0.82722 0.50468 0.18382 0.0
C407 C 0.82229 0.53787 0.20761 0.0
C408 C 0.8265 0.47111 0.20727 0.0
C409 C 0.82059 0.46928 0.25546 0.0
H410 H 0.83319 0.50458 0.14706 0.0
H411 H 0.83175 0.44649 0.18751 0.0
S412 S 0.80141 0.54813 0.33287 0.0
N413 N 0.80787 0.56668 0.28136 0.0
N414 N 0.80633 0.50364 0.32541 0.0
C415 C 0.81349 0.50215 0.27923 0.0
C416 C 0.81441 0.53639 0.25534 0.0
C417 C 0.53042 0.84085 0.22865 0.0
C418 C 0.53227 0.83162 0.27595 0.0
C419 C 0.4968 0.84406 0.20584 0.0
C420 C 0.46351 0.83817 0.22926 0.0
H421 H 0.55511 0.84666 0.20915 0.0
H422 H 0.49704 0.85206 0.1697 0.0
S423 S 0.45319 0.80979 0.35221 0.0
N424 N 0.49778 0.81402 0.3447 0.0
N425 N 0.43458 0.82003 0.30179 0.0
C426 C 0.46492 0.82747 0.27612 0.0
C427 C 0.49926 0.82419 0.29943 0.0
C428 C 0.87593 0.52968 0.67989 0.0
C429 C 0.85736 0.53993 0.72062 0.0
C430 C 0.87834 0.493 0.66636 0.0
C431 C 0.86195 0.46504 0.6927 0.0
H432 H 0.88957 0.55003 0.65872 0.0
H433 H 0.89355 0.48656 0.63516 0.0
S434 S 0.80815 0.47751 0.8009 0.0
N435 N 0.82092 0.51925 0.78625 0.0
N436 N 0.82516 0.45031 0.76064 0.0
C437 C 0.84229 0.47497 0.73279 0.0
C438 C 0.84011 0.51238 0.74681 0.0
C439 C 0.51645 0.90708 0.73497 0.0
C440 C 0.53615 0.87427 0.72947 0.0
C441 C 0.48064 0.90719 0.75216 0.0
C442 C 0.46271 0.87449 0.76416 0.0
H443 H 0.52889 0.93314 0.72652 0.0
H444 H 0.46686 0.9333 0.75572 0.0
S445 S 0.50178 0.78095 0.75568 0.0
N446 N 0.53491 0.80798 0.73711 0.0
N447 N 0.46726 0.80819 0.76903 0.0
C448 C 0.48185 0.84135 0.75844 0.0
C449 C 0.51861 0.84125 0.74126 0.0
C450 C 0.10318 0.482 0.79363 0.0
C451 C 0.13547 0.46112 0.79084 0.0
C452 C 0.10154 0.51759 0.77604 0.0
C453 C 0.1322 0.53411 0.75518 0.0
H454 H 0.07854 0.47062 0.80877 0.0
H455 H 0.0758 0.53217 0.77876 0.0
S456 S 0.22403 0.49194 0.741 0.0
N457 N 0.19936 0.45999 0.76679 0.0
N458 N 0.19633 0.52723 0.73394 0.0
C459 C 0.16502 0.51396 0.75304 0.0
C460 C 0.16663 0.47741 0.77076 0.0
C461 C 0.47984 0.10026 0.77758 0.0
C462 C 0.46392 0.12998 0.75403 0.0
C463 C 0.51556 0.10202 0.79466 0.0
C464 C 0.53718 0.1335 0.78873 0.0
H465 H 0.46469 0.07514 0.78284 0.0
H466 H 0.52641 0.07809 0.81204 0.0
S467 S 0.5082 0.21951 0.73073 0.0
N468 N 0.47223 0.19241 0.72665 0.0
N469 N 0.53967 0.19568 0.75859 0.0
C470 C 0.5215 0.16377 0.76588 0.0
C471 C 0.48484 0.16203 0.74863 0.0
C472 C 0.66949 0.00454 0.8065 0.0
C473 C 0.67574 0.03755 0.78272 0.0
C474 C 0.67056 0.97091 0.78345 0.0
C475 C 0.67815 0.96881 0.73568 0.0
H476 H 0.66244 0.00464 0.84296 0.0
H477 H 0.66445 0.94644 0.80319 0.0
S478 S 0.70065 0.04706 0.6585 0.0
N479 N 0.69277 0.06591 0.70947 0.0
N480 N 0.69495 0.00268 0.66612 0.0
C481 C 0.68629 0.00148 0.71191 0.0
C482 C 0.68501 0.03582 0.73541 0.0
C483 C 0.999 0.67876 0.79213 0.0
C484 C 0.96658 0.67687 0.7661 0.0
C485 C 0.03335 0.6785 0.77046 0.0
C486 C 0.03665 0.67682 0.72189 0.0
H487 H 0.99797 0.67881 0.82963 0.0
H488 H 0.05754 0.67863 0.79211 0.0
S489 S 0.95987 0.67566 0.6378 0.0
N490 N 0.93976 0.67626 0.68905 0.0
N491 N 0.00427 0.67613 0.64828 0.0
C492 C 0.00438 0.67705 0.69535 0.0
C493 C 0.96938 0.67693 0.71746 0.0
C494 C 0.32148 0.00237 0.69757 0.0
C495 C 0.31903 0.0351 0.72287 0.0
C496 C 0.32083 0.96835 0.71994 0.0
C497 C 0.31729 0.96572 0.76843 0.0
H498 H 0.32564 0.00297 0.66042 0.0
H499 H 0.32423 0.94398 0.69908 0.0
S500 S 0.30503 0.04344 0.84977 0.0
N501 N 0.30948 0.06286 0.79842 0.0
N502 N 0.30788 -0.00101 0.84053 0.0
C503 C 0.31251 0.99825 0.79381 0.0
C504 C 0.31353 0.03291 0.77102 0.0
C505 C 0.03841 0.33195 0.72802 0.0
C506 C 0.03812 0.32647 0.77632 0.0
C507 C 0.00587 0.33345 0.70257 0.0
C508 C 0.97157 0.32955 0.72425 0.0
H509 H 0.06395 0.33608 0.70964 0.0
H510 H 0.00773 0.33866 0.6657 0.0
S511 S 0.95567 0.311 0.84928 0.0
N512 N 0.00055 0.31446 0.8444 0.0
N513 N 0.93939 0.31724 0.79657 0.0
C514 C 0.97086 0.32249 0.77225 0.0
C515 C 0.00409 0.32094 0.79824 0.0
C516 C 0.33119 0.01725 0.25526 0.0
C517 C 0.344 0.04602 0.22708 0.0
C518 C 0.33324 0.98072 0.24067 0.0
C519 C 0.34849 0.97141 0.19745 0.0
H520 H 0.32016 0.02282 0.28939 0.0
H521 H 0.32386 0.95958 0.26417 0.0
S522 S 0.38301 0.03645 0.10868 0.0
N523 N 0.37022 0.06266 0.15231 0.0
N524 N 0.37426 0.99412 0.12519 0.0
C525 C 0.36015 -7e-05 0.16818 0.0
C526 C 0.35783 0.03717 0.18288 0.0
C527 C 0.98269 0.34575 0.2535 0.0
C528 C 0.96376 0.37884 0.26053 0.0
C529 C 0.01939 0.34548 0.23882 0.0
C530 C 0.0383 0.37827 0.22984 0.0
H531 H 0.96924 0.31984 0.25991 0.0
H532 H 0.03294 0.31936 0.23423 0.0
S533 S 0.00087 0.47234 0.2421 0.0
N534 N 0.96666 0.4453 0.25691 0.0
N535 N 0.03517 0.4448 0.22903 0.0
C536 C 0.01952 0.41154 0.2363 0.0
C537 C 0.9824 0.41182 0.25175 0.0
C538 C 0.59532 0.98353 0.27792 0.0
C539 C 0.62871 0.96463 0.28214 0.0
C540 C 0.59389 0.01899 0.25984 0.0
C541 C 0.62582 0.03737 0.2457 0.0
H542 H 0.5698 0.97069 0.28799 0.0
H543 H 0.56738 0.03214 0.25726 0.0
S544 S 0.72044 0.00044 0.25038 0.0
N545 N 0.6947 0.96707 0.27108 0.0
N546 N 0.69206 0.03416 0.2376 0.0
C547 C 0.65955 0.01906 0.25021 0.0
C548 C 0.66098 0.9826 0.26823 0.0
C549 C 0.01042 0.60392 0.27961 0.0
C550 C 0.03398 0.63351 0.2707 0.0
C551 C 0.97313 0.60584 0.26917 0.0
C552 C 0.95783 0.63722 0.24864 0.0
H553 H 0.02077 0.57895 0.29506 0.0
H554 H 0.95632 0.58212 0.27652 0.0
S555 S 0.00757 0.72244 0.21838 0.0
N556 N 0.0393 0.69549 0.24071 0.0
N557 N 0.96906 0.69885 0.22012 0.0
C558 C 0.98099 0.66713 0.23951 0.0
C559 C 0.01906 0.66537 0.25086 0.0
loop_
_geom_bond_atom_site_label_1
_geom_bond_atom_site_label_2
_geom_bond_distance
_geom_bond_site_symmetry_2
_ccdc_geom_bond_type
C0 O1 1.160 . S
C0 O7 1.185 . S
O1 C0 1.160 . S
O2 Zn3 1.899 . S
O2 C10 1.284 . S
Zn3 O2 1.899 . S
Zn3 O4 2.032 . S
Zn3 O7 2.086 . S
Zn3 O12 1.977 . S
O4 Zn3 2.032 . S
O4 C8 1.278 . S
C5 O6 1.203 . S
C5 O12 1.267 . S
O6 C5 1.203 . S
O7 C0 1.185 . S
O7 Zn3 2.086 . S
C8 O4 1.278 . S
C8 O9 1.211 . S
O9 C8 1.211 . S
C10 O2 1.284 . S
C10 O11 1.273 . S
O11 C10 1.273 . S
O12 Zn3 1.977 . S
O12 C5 1.267 . S
C13 O14 1.160 . S
C13 O20 1.185 . S
O14 C13 1.160 . S
O15 Zn16 1.899 . S
O15 C23 1.284 . S
Zn16 O15 1.899 . S
Zn16 O17 2.032 . S
Zn16 O20 2.086 . S
Zn16 O25 1.977 . S
O17 Zn16 2.032 . S
O17 C21 1.278 . S
C18 O19 1.203 . S
C18 O25 1.267 . S
O19 C18 1.203 . S
O20 C13 1.185 . S
O20 Zn16 2.086 . S
C21 O17 1.278 . S
C21 O22 1.211 . S
O22 C21 1.211 . S
C23 O15 1.284 . S
C23 O24 1.273 . S
O24 C23 1.273 . S
O25 Zn16 1.977 . S
O25 C18 1.267 . S
C26 O27 1.160 . S
C26 O33 1.185 . S
O27 C26 1.160 . S
O28 Zn29 1.899 . S
O28 C36 1.284 . S
Zn29 O28 1.899 . S
Zn29 O30 2.032 . S
Zn29 O33 2.086 . S
Zn29 O38 1.977 . S
O30 Zn29 2.032 . S
O30 C34 1.278 . S
C31 O32 1.203 . S
C31 O38 1.267 . S
O32 C31 1.203 . S
O33 C26 1.185 . S
O33 Zn29 2.086 . S
C34 O30 1.278 . S
C34 O35 1.211 . S
O35 C34 1.211 . S
C36 O28 1.284 . S
C36 O37 1.273 . S
O37 C36 1.273 . S
O38 Zn29 1.977 . S
O38 C31 1.267 . S
C39 O40 1.160 . S
C39 O46 1.185 . S
O40 C39 1.160 . S
O41 Zn42 1.899 . S
O41 C49 1.284 . S
Zn42 O41 1.899 . S
Zn42 O43 2.032 . S
Zn42 O46 2.086 . S
Zn42 O51 1.977 . S
O43 Zn42 2.032 . S
O43 C47 1.278 . S
C44 O45 1.203 . S
C44 O51 1.267 . S
O45 C44 1.203 . S
O46 C39 1.185 . S
O46 Zn42 2.086 . S
C47 O43 1.278 . S
C47 O48 1.211 . S
O48 C47 1.211 . S
C49 O41 1.284 . S
C49 O50 1.273 . S
O50 C49 1.273 . S
O51 Zn42 1.977 . S
O51 C44 1.267 . S
C52 O53 1.160 . S
C52 O59 1.185 . S
O53 C52 1.160 . S
O54 Zn55 1.899 . S
O54 C62 1.284 . S
Zn55 O54 1.899 . S
Zn55 O56 2.032 . S
Zn55 O59 2.086 . S
Zn55 O64 1.977 . S
O56 Zn55 2.032 . S
O56 C60 1.278 . S
C57 O58 1.203 . S
C57 O64 1.267 . S
O58 C57 1.203 . S
O59 C52 1.185 . S
O59 Zn55 2.086 . S
C60 O56 1.278 . S
C60 O61 1.211 . S
O61 C60 1.211 . S
C62 O54 1.284 . S
C62 O63 1.273 . S
O63 C62 1.273 . S
O64 Zn55 1.977 . S
O64 C57 1.267 . S
C65 O66 1.160 . S
C65 O72 1.185 . S
O66 C65 1.160 . S
O67 Zn68 1.899 . S
O67 C75 1.284 . S
Zn68 O67 1.899 . S
Zn68 O69 2.032 . S
Zn68 O72 2.086 . S
Zn68 O77 1.977 . S
O69 Zn68 2.032 . S
O69 C73 1.278 . S
C70 O71 1.203 . S
C70 O77 1.267 . S
O71 C70 1.203 . S
O72 C65 1.185 . S
O72 Zn68 2.086 . S
C73 O69 1.278 . S
C73 O74 1.211 . S
O74 C73 1.211 . S
C75 O67 1.284 . S
C75 O76 1.273 . S
O76 C75 1.273 . S
O77 Zn68 1.977 . S
O77 C70 1.267 . S
C78 O79 1.160 . S
C78 O85 1.185 . S
O79 C78 1.160 . S
O80 Zn81 1.899 . S
O80 C88 1.284 . S
Zn81 O80 1.899 . S
Zn81 O82 2.032 . S
Zn81 O85 2.086 . S
Zn81 O90 1.977 . S
O82 Zn81 2.032 . S
O82 C86 1.278 . S
C83 O84 1.203 . S
C83 O90 1.267 . S
O84 C83 1.203 . S
O85 C78 1.185 . S
O85 Zn81 2.086 . S
C86 O82 1.278 . S
C86 O87 1.211 . S
O87 C86 1.211 . S
C88 O80 1.284 . S
C88 O89 1.273 . S
O89 C88 1.273 . S
O90 Zn81 1.977 . S
O90 C83 1.267 . S
C91 O92 1.160 . S
C91 O98 1.185 . S
O92 C91 1.160 . S
O93 Zn94 1.899 . S
O93 C101 1.284 . S
Zn94 O93 1.899 . S
Zn94 O95 2.032 . S
Zn94 O98 2.086 . S
Zn94 O103 1.977 . S
O95 Zn94 2.032 . S
O95 C99 1.278 . S
C96 O97 1.203 . S
C96 O103 1.267 . S
O97 C96 1.203 . S
O98 C91 1.185 . S
O98 Zn94 2.086 . S
C99 O95 1.278 . S
C99 O100 1.211 . S
O100 C99 1.211 . S
C101 O93 1.284 . S
C101 O102 1.273 . S
O102 C101 1.273 . S
O103 Zn94 1.977 . S
O103 C96 1.267 . S
C104 O105 1.160 . S
C104 O111 1.185 . S
O105 C104 1.160 . S
O106 Zn107 1.899 . S
O106 C114 1.284 . S
Zn107 O106 1.899 . S
Zn107 O108 2.032 . S
Zn107 O111 2.086 . S
Zn107 O116 1.977 . S
O108 Zn107 2.032 . S
O108 C112 1.278 . S
C109 O110 1.203 . S
C109 O116 1.267 . S
O110 C109 1.203 . S
O111 C104 1.185 . S
O111 Zn107 2.086 . S
C112 O108 1.278 . S
C112 O113 1.211 . S
O113 C112 1.211 . S
C114 O106 1.284 . S
C114 O115 1.273 . S
O115 C114 1.273 . S
O116 Zn107 1.977 . S
O116 C109 1.267 . S
C117 O118 1.160 . S
C117 O124 1.185 . S
O118 C117 1.160 . S
O119 Zn120 1.899 . S
O119 C127 1.284 . S
Zn120 O119 1.899 . S
Zn120 O121 2.032 . S
Zn120 O124 2.086 . S
Zn120 O129 1.977 . S
O121 Zn120 2.032 . S
O121 C125 1.278 . S
C122 O123 1.203 . S
C122 O129 1.267 . S
O123 C122 1.203 . S
O124 C117 1.185 . S
O124 Zn120 2.086 . S
C125 O121 1.278 . S
C125 O126 1.211 . S
O126 C125 1.211 . S
C127 O119 1.284 . S
C127 O128 1.273 . S
O128 C127 1.273 . S
O129 Zn120 1.977 . S
O129 C122 1.267 . S
C130 O131 1.160 . S
C130 O137 1.185 . S
O131 C130 1.160 . S
O132 Zn133 1.899 . S
O132 C140 1.284 . S
Zn133 O132 1.899 . S
Zn133 O134 2.032 . S
Zn133 O137 2.086 . S
Zn133 O142 1.977 . S
O134 Zn133 2.032 . S
O134 C138 1.278 . S
C135 O136 1.203 . S
C135 O142 1.267 . S
O136 C135 1.203 . S
O137 C130 1.185 . S
O137 Zn133 2.086 . S
C138 O134 1.278 . S
C138 O139 1.211 . S
O139 C138 1.211 . S
C140 O132 1.284 . S
C140 O141 1.273 . S
O141 C140 1.273 . S
O142 Zn133 1.977 . S
O142 C135 1.267 . S
C143 O144 1.160 . S
C143 O150 1.185 . S
O144 C143 1.160 . S
O145 Zn146 1.899 . S
O145 C153 1.284 . S
Zn146 O145 1.899 . S
Zn146 O147 2.032 . S
Zn146 O150 2.086 . S
Zn146 O155 1.977 . S
O147 Zn146 2.032 . S
O147 C151 1.278 . S
C148 O149 1.203 . S
C148 O155 1.267 . S
O149 C148 1.203 . S
O150 C143 1.185 . S
O150 Zn146 2.086 . S
C151 O147 1.278 . S
C151 O152 1.211 . S
O152 C151 1.211 . S
C153 O145 1.284 . S
C153 O154 1.273 . S
O154 C153 1.273 . S
O155 Zn146 1.977 . S
O155 C148 1.267 . S
C156 O157 1.160 . S
C156 O163 1.185 . S
O157 C156 1.160 . S
O158 Zn159 1.899 . S
O158 C166 1.284 . S
Zn159 O158 1.899 . S
Zn159 O160 2.032 . S
Zn159 O163 2.086 . S
Zn159 O168 1.977 . S
O160 Zn159 2.032 . S
O160 C164 1.278 . S
C161 O162 1.203 . S
C161 O168 1.267 . S
O162 C161 1.203 . S
O163 C156 1.185 . S
O163 Zn159 2.086 . S
C164 O160 1.278 . S
C164 O165 1.211 . S
O165 C164 1.211 . S
C166 O158 1.284 . S
C166 O167 1.273 . S
O167 C166 1.273 . S
O168 Zn159 1.977 . S
O168 C161 1.267 . S
C169 O170 1.160 . S
C169 O176 1.185 . S
O170 C169 1.160 . S
O171 Zn172 1.899 . S
O171 C179 1.284 . S
Zn172 O171 1.899 . S
Zn172 O173 2.032 . S
Zn172 O176 2.086 . S
Zn172 O181 1.977 . S
O173 Zn172 2.032 . S
O173 C177 1.278 . S
C174 O175 1.203 . S
C174 O181 1.267 . S
O175 C174 1.203 . S
O176 C169 1.185 . S
O176 Zn172 2.086 . S
C177 O173 1.278 . S
C177 O178 1.211 . S
O178 C177 1.211 . S
C179 O171 1.284 . S
C179 O180 1.273 . S
O180 C179 1.273 . S
O181 Zn172 1.977 . S
O181 C174 1.267 . S
C182 O183 1.160 . S
C182 O189 1.185 . S
O183 C182 1.160 . S
O184 Zn185 1.899 . S
O184 C192 1.284 . S
Zn185 O184 1.899 . S
Zn185 O186 2.032 . S
Zn185 O189 2.086 . S
Zn185 O194 1.977 . S
O186 Zn185 2.032 . S
O186 C190 1.278 . S
C187 O188 1.203 . S
C187 O194 1.267 . S
O188 C187 1.203 . S
O189 C182 1.185 . S
O189 Zn185 2.086 . S
C190 O186 1.278 . S
C190 O191 1.211 . S
O191 C190 1.211 . S
C192 O184 1.284 . S
C192 O193 1.273 . S
O193 C192 1.273 . S
O194 Zn185 1.977 . S
O194 C187 1.267 . S
C195 O196 1.160 . S
C195 O202 1.185 . S
O196 C195 1.160 . S
O197 Zn198 1.899 . S
O197 C205 1.284 . S
Zn198 O197 1.899 . S
Zn198 O199 2.032 . S
Zn198 O202 2.086 . S
Zn198 O207 1.977 . S
O199 Zn198 2.032 . S
O199 C203 1.278 . S
C200 O201 1.203 . S
C200 O207 1.267 . S
O201 C200 1.203 . S
O202 C195 1.185 . S
O202 Zn198 2.086 . S
C203 O199 1.278 . S
C203 O204 1.211 . S
O204 C203 1.211 . S
C205 O197 1.284 . S
C205 O206 1.273 . S
O206 C205 1.273 . S
O207 Zn198 1.977 . S
O207 C200 1.267 . S
C208 C209 1.369 . S
C208 C210 1.419 . S
C208 H212 0.930 . S
C209 C208 1.369 . S
C209 C218 1.429 . S
C210 C208 1.419 . S
C210 C211 1.363 . S
C210 H213 0.929 . S
C211 C210 1.363 . S
C211 C217 1.428 . S
H212 C208 0.930 . S
H213 C210 0.929 . S
S214 N215 1.613 . S
S214 N216 1.610 . S
N215 S214 1.613 . S
N215 C218 1.350 . S
N216 S214 1.610 . S
N216 C217 1.351 . S
C217 C211 1.428 . S
C217 N216 1.351 . S
C217 C218 1.434 . S
C218 C209 1.429 . S
C218 N215 1.350 . S
C218 C217 1.434 . S
C219 C220 1.369 . S
C219 C221 1.419 . S
C219 H223 0.930 . S
C220 C219 1.369 . S
C220 C229 1.429 . S
C221 C219 1.419 . S
C221 C222 1.363 . S
C221 H224 0.929 . S
C222 C221 1.363 . S
C222 C228 1.428 . S
H223 C219 0.930 . S
H224 C221 0.929 . S
S225 N226 1.613 . S
S225 N227 1.610 . S
N226 S225 1.613 . S
N226 C229 1.350 . S
N227 S225 1.610 . S
N227 C228 1.351 . S
C228 C222 1.428 . S
C228 N227 1.351 . S
C228 C229 1.434 . S
C229 C220 1.429 . S
C229 N226 1.350 . S
C229 C228 1.434 . S
C230 C231 1.369 . S
C230 C232 1.419 . S
C230 H234 0.930 . S
C231 C230 1.369 . S
C231 C240 1.429 . S
C232 C230 1.419 . S
C232 C233 1.363 . S
C232 H235 0.929 . S
C233 C232 1.363 . S
C233 C239 1.428 . S
H234 C230 0.930 . S
H235 C232 0.929 . S
S236 N237 1.613 . S
S236 N238 1.610 . S
N237 S236 1.613 . S
N237 C240 1.350 . S
N238 S236 1.610 . S
N238 C239 1.351 . S
C239 C233 1.428 . S
C239 N238 1.351 . S
C239 C240 1.434 . S
C240 C231 1.429 . S
C240 N237 1.350 . S
C240 C239 1.434 . S
C241 C242 1.369 . S
C241 C243 1.419 . S
C241 H245 0.930 . S
C242 C241 1.369 . S
C242 C251 1.429 . S
C243 C241 1.419 . S
C243 C244 1.363 . S
C243 H246 0.929 . S
C244 C243 1.363 . S
C244 C250 1.428 . S
H245 C241 0.930 . S
H246 C243 0.929 . S
S247 N248 1.613 . S
S247 N249 1.610 . S
N248 S247 1.613 . S
N248 C251 1.350 . S
N249 S247 1.610 . S
N249 C250 1.351 . S
C250 C244 1.428 . S
C250 N249 1.351 . S
C250 C251 1.434 . S
C251 C242 1.429 . S
C251 N248 1.350 . S
C251 C250 1.434 . S
C252 C253 1.369 . S
C252 C254 1.419 . S
C252 H256 0.930 . S
C253 C252 1.369 . S
C253 C262 1.429 . S
C254 C252 1.419 . S
C254 C255 1.363 . S
C254 H257 0.929 . S
C255 C254 1.363 . S
C255 C261 1.428 . S
H256 C252 0.930 . S
H257 C254 0.929 . S
S258 N259 1.613 . S
S258 N260 1.610 . S
N259 S258 1.613 . S
N259 C262 1.350 . S
N260 S258 1.610 . S
N260 C261 1.351 . S
C261 C255 1.428 . S
C261 N260 1.351 . S
C261 C262 1.434 . S
C262 C253 1.429 . S
C262 N259 1.350 . S
C262 C261 1.434 . S
C263 C264 1.369 . S
C263 C265 1.419 . S
C263 H267 0.930 . S
C264 C263 1.369 . S
C264 C273 1.429 . S
C265 C263 1.419 . S
C265 C266 1.363 . S
C265 H268 0.929 . S
C266 C265 1.363 . S
C266 C272 1.428 . S
H267 C263 0.930 . S
H268 C265 0.929 . S
S269 N270 1.613 . S
S269 N271 1.610 . S
N270 S269 1.613 . S
N270 C273 1.350 . S
N271 S269 1.610 . S
N271 C272 1.351 . S
C272 C266 1.428 . S
C272 N271 1.351 . S
C272 C273 1.434 . S
C273 C264 1.429 . S
C273 N270 1.350 . S
C273 C272 1.434 . S
C274 C275 1.369 . S
C274 C276 1.419 . S
C274 H278 0.930 . S
C275 C274 1.369 . S
C275 C284 1.429 . S
C276 C274 1.419 . S
C276 C277 1.363 . S
C276 H279 0.929 . S
C277 C276 1.363 . S
C277 C283 1.428 . S
H278 C274 0.930 . S
H279 C276 0.929 . S
S280 N281 1.613 . S
S280 N282 1.610 . S
N281 S280 1.613 . S
N281 C284 1.350 . S
N282 S280 1.610 . S
N282 C283 1.351 . S
C283 C277 1.428 . S
C283 N282 1.351 . S
C283 C284 1.434 . S
C284 C275 1.429 . S
C284 N281 1.350 . S
C284 C283 1.434 . S
C285 C286 1.369 . S
C285 C287 1.419 . S
C285 H289 0.930 . S
C286 C285 1.369 . S
C286 C295 1.429 . S
C287 C285 1.419 . S
C287 C288 1.363 . S
C287 H290 0.929 . S
C288 C287 1.363 . S
C288 C294 1.428 . S
H289 C285 0.930 . S
H290 C287 0.929 . S
S291 N292 1.613 . S
S291 N293 1.610 . S
N292 S291 1.613 . S
N292 C295 1.350 . S
N293 S291 1.610 . S
N293 C294 1.351 . S
C294 C288 1.428 . S
C294 N293 1.351 . S
C294 C295 1.434 . S
C295 C286 1.429 . S
C295 N292 1.350 . S
C295 C294 1.434 . S
C296 C297 1.369 . S
C296 C298 1.419 1_556 S
C296 H300 0.930 . S
C297 C296 1.369 . S
C297 C306 1.429 . S
C298 C296 1.419 1_554 S
C298 C299 1.363 . S
C298 H301 0.929 . S
C299 C298 1.363 . S
C299 C305 1.428 . S
H300 C296 0.930 . S
H301 C298 0.929 . S
S302 N303 1.613 . S
S302 N304 1.610 1_556 S
N303 S302 1.613 . S
N303 C306 1.350 . S
N304 S302 1.610 1_554 S
N304 C305 1.351 . S
C305 C299 1.428 . S
C305 N304 1.351 . S
C305 C306 1.434 1_554 S
C306 C297 1.429 . S
C306 N303 1.350 . S
C306 C305 1.434 1_556 S
C307 C308 1.369 . S
C307 C309 1.419 1_556 S
C307 H311 0.930 . S
C308 C307 1.369 . S
C308 C317 1.429 . S
C309 C307 1.419 1_554 S
C309 C310 1.363 . S
C309 H312 0.929 . S
C310 C309 1.363 . S
C310 C316 1.428 . S
H311 C307 0.930 . S
H312 C309 0.929 . S
S313 N314 1.613 . S
S313 N315 1.610 1_556 S
N314 S313 1.613 . S
N314 C317 1.350 . S
N315 S313 1.610 1_554 S
N315 C316 1.351 . S
C316 C310 1.428 . S
C316 N315 1.351 . S
C316 C317 1.434 1_554 S
C317 C308 1.429 . S
C317 N314 1.350 . S
C317 C316 1.434 1_556 S
C318 C319 1.369 . S
C318 C320 1.419 1_556 S
C318 H322 0.930 . S
C319 C318 1.369 . S
C319 C328 1.429 . S
C320 C318 1.419 1_554 S
C320 C321 1.363 . S
C320 H323 0.929 . S
C321 C320 1.363 . S
C321 C327 1.428 . S
H322 C318 0.930 . S
H323 C320 0.929 . S
S324 N325 1.613 1_554 S
S324 N326 1.610 . S
N325 S324 1.613 1_556 S
N325 C328 1.350 . S
N326 S324 1.610 . S
N326 C327 1.351 . S
C327 C321 1.428 . S
C327 N326 1.351 . S
C327 C328 1.434 1_554 S
C328 C319 1.429 . S
C328 N325 1.350 . S
C328 C327 1.434 1_556 S
C329 C330 1.369 . S
C329 C331 1.419 1_554 S
C329 H333 0.930 . S
C330 C329 1.369 . S
C330 C339 1.429 . S
C331 C329 1.419 1_556 S
C331 C332 1.363 . S
C331 H334 0.929 . S
C332 C331 1.363 . S
C332 C338 1.428 . S
H333 C329 0.930 . S
H334 C331 0.929 . S
S335 N336 1.613 1_556 S
S335 N337 1.610 . S
N336 S335 1.613 1_554 S
N336 C339 1.350 . S
N337 S335 1.610 . S
N337 C338 1.351 . S
C338 C332 1.428 . S
C338 N337 1.351 . S
C338 C339 1.434 1_556 S
C339 C330 1.429 . S
C339 N336 1.350 . S
C339 C338 1.434 1_554 S
C340 C341 1.369 . S
C340 C342 1.419 . S
C340 H344 0.930 . S
C341 C340 1.369 . S
C341 C350 1.429 . S
C342 C340 1.419 . S
C342 C343 1.363 . S
C342 H345 0.929 . S
C343 C342 1.363 . S
C343 C349 1.428 . S
H344 C340 0.930 . S
H345 C342 0.929 . S
S346 N347 1.613 . S
S346 N348 1.610 . S
N347 S346 1.613 . S
N347 C350 1.350 . S
N348 S346 1.610 . S
N348 C349 1.351 . S
C349 C343 1.428 . S
C349 N348 1.351 . S
C349 C350 1.434 . S
C350 C341 1.429 . S
C350 N347 1.350 . S
C350 C349 1.434 . S
C351 C352 1.369 . S
C351 C353 1.419 . S
C351 H355 0.930 . S
C352 C351 1.369 . S
C352 C361 1.429 . S
C353 C351 1.419 . S
C353 C354 1.363 . S
C353 H356 0.929 . S
C354 C353 1.363 . S
C354 C360 1.428 . S
H355 C351 0.930 . S
H356 C353 0.929 . S
S357 N358 1.613 . S
S357 N359 1.610 . S
N358 S357 1.613 . S
N358 C361 1.350 . S
N359 S357 1.610 . S
N359 C360 1.351 . S
C360 C354 1.428 . S
C360 N359 1.351 . S
C360 C361 1.434 . S
C361 C352 1.429 . S
C361 N358 1.350 . S
C361 C360 1.434 . S
C362 C363 1.369 . S
C362 C364 1.419 . S
C362 H366 0.930 . S
C363 C362 1.369 . S
C363 C372 1.429 . S
C364 C362 1.419 . S
C364 C365 1.363 . S
C364 H367 0.929 . S
C365 C364 1.363 . S
C365 C371 1.428 . S
H366 C362 0.930 . S
H367 C364 0.929 . S
S368 N369 1.613 . S
S368 N370 1.610 . S
N369 S368 1.613 . S
N369 C372 1.350 . S
N370 S368 1.610 . S
N370 C371 1.351 . S
C371 C365 1.428 . S
C371 N370 1.351 . S
C371 C372 1.434 . S
C372 C363 1.429 . S
C372 N369 1.350 . S
C372 C371 1.434 . S
C373 C374 1.369 . S
C373 C375 1.419 . S
C373 H377 0.930 . S
C374 C373 1.369 . S
C374 C383 1.429 . S
C375 C373 1.419 . S
C375 C376 1.363 . S
C375 H378 0.929 . S
C376 C375 1.363 . S
C376 C382 1.428 . S
H377 C373 0.930 . S
H378 C375 0.929 . S
S379 N380 1.613 . S
S379 N381 1.610 . S
N380 S379 1.613 . S
N380 C383 1.350 . S
N381 S379 1.610 . S
N381 C382 1.351 . S
C382 C376 1.428 . S
C382 N381 1.351 . S
C382 C383 1.434 . S
C383 C374 1.429 . S
C383 N380 1.350 . S
C383 C382 1.434 . S
C384 C385 1.369 . S
C384 C386 1.419 . S
C384 H388 0.930 . S
C385 C384 1.369 . S
C385 C394 1.429 . S
C386 C384 1.419 . S
C386 C387 1.363 . S
C386 H389 0.929 . S
C387 C386 1.363 . S
C387 C393 1.428 . S
H388 C384 0.930 . S
H389 C386 0.929 . S
S390 N391 1.613 . S
S390 N392 1.610 . S
N391 S390 1.613 . S
N391 C394 1.350 . S
N392 S390 1.610 . S
N392 C393 1.351 . S
C393 C387 1.428 . S
C393 N392 1.351 . S
C393 C394 1.434 . S
C394 C385 1.429 . S
C394 N391 1.350 . S
C394 C393 1.434 . S
C395 C396 1.369 . S
C395 C397 1.419 . S
C395 H399 0.930 . S
C396 C395 1.369 . S
C396 C405 1.429 . S
C397 C395 1.419 . S
C397 C398 1.363 . S
C397 H400 0.929 . S
C398 C397 1.363 . S
C398 C404 1.428 . S
H399 C395 0.930 . S
H400 C397 0.929 . S
S401 N402 1.613 . S
S401 N403 1.610 . S
N402 S401 1.613 . S
N402 C405 1.350 . S
N403 S401 1.610 . S
N403 C404 1.351 . S
C404 C398 1.428 . S
C404 N403 1.351 . S
C404 C405 1.434 . S
C405 C396 1.429 . S
C405 N402 1.350 . S
C405 C404 1.434 . S
C406 C407 1.369 . S
C406 C408 1.419 . S
C406 H410 0.930 . S
C407 C406 1.369 . S
C407 C416 1.429 . S
C408 C406 1.419 . S
C408 C409 1.363 . S
C408 H411 0.929 . S
C409 C408 1.363 . S
C409 C415 1.428 . S
H410 C406 0.930 . S
H411 C408 0.929 . S
S412 N413 1.613 . S
S412 N414 1.610 . S
N413 S412 1.613 . S
N413 C416 1.350 . S
N414 S412 1.610 . S
N414 C415 1.351 . S
C415 C409 1.428 . S
C415 N414 1.351 . S
C415 C416 1.434 . S
C416 C407 1.429 . S
C416 N413 1.350 . S
C416 C415 1.434 . S
C417 C418 1.369 . S
C417 C419 1.419 . S
C417 H421 0.930 . S
C418 C417 1.369 . S
C418 C427 1.429 . S
C419 C417 1.419 . S
C419 C420 1.363 . S
C419 H422 0.929 . S
C420 C419 1.363 . S
C420 C426 1.428 . S
H421 C417 0.930 . S
H422 C419 0.929 . S
S423 N424 1.613 . S
S423 N425 1.610 . S
N424 S423 1.613 . S
N424 C427 1.350 . S
N425 S423 1.610 . S
N425 C426 1.351 . S
C426 C420 1.428 . S
C426 N425 1.351 . S
C426 C427 1.434 . S
C427 C418 1.429 . S
C427 N424 1.350 . S
C427 C426 1.434 . S
C428 C429 1.369 . S
C428 C430 1.419 . S
C428 H432 0.930 . S
C429 C428 1.369 . S
C429 C438 1.429 . S
C430 C428 1.419 . S
C430 C431 1.363 . S
C430 H433 0.929 . S
C431 C430 1.363 . S
C431 C437 1.428 . S
H432 C428 0.930 . S
H433 C430 0.929 . S
S434 N435 1.613 . S
S434 N436 1.610 . S
N435 S434 1.613 . S
N435 C438 1.350 . S
N436 S434 1.610 . S
N436 C437 1.351 . S
C437 C431 1.428 . S
C437 N436 1.351 . S
C437 C438 1.434 . S
C438 C429 1.429 . S
C438 N435 1.350 . S
C438 C437 1.434 . S
C439 C440 1.369 . S
C439 C441 1.419 . S
C439 H443 0.930 . S
C440 C439 1.369 . S
C440 C449 1.429 . S
C441 C439 1.419 . S
C441 C442 1.363 . S
C441 H444 0.929 . S
C442 C441 1.363 . S
C442 C448 1.428 . S
H443 C439 0.930 . S
H444 C441 0.929 . S
S445 N446 1.613 . S
S445 N447 1.610 . S
N446 S445 1.613 . S
N446 C449 1.350 . S
N447 S445 1.610 . S
N447 C448 1.351 . S
C448 C442 1.428 . S
C448 N447 1.351 . S
C448 C449 1.434 . S
C449 C440 1.429 . S
C449 N446 1.350 . S
C449 C448 1.434 . S
C450 C451 1.369 . S
C450 C452 1.419 . S
C450 H454 0.930 . S
C451 C450 1.369 . S
C451 C460 1.429 . S
C452 C450 1.419 . S
C452 C453 1.363 . S
C452 H455 0.929 . S
C453 C452 1.363 . S
C453 C459 1.428 . S
H454 C450 0.930 . S
H455 C452 0.929 . S
S456 N457 1.613 . S
S456 N458 1.610 . S
N457 S456 1.613 . S
N457 C460 1.350 . S
N458 S456 1.610 . S
N458 C459 1.351 . S
C459 C453 1.428 . S
C459 N458 1.351 . S
C459 C460 1.434 . S
C460 C451 1.429 . S
C460 N457 1.350 . S
C460 C459 1.434 . S
C461 C462 1.369 . S
C461 C463 1.419 . S
C461 H465 0.930 . S
C462 C461 1.369 . S
C462 C471 1.429 . S
C463 C461 1.419 . S
C463 C464 1.363 . S
C463 H466 0.929 . S
C464 C463 1.363 . S
C464 C470 1.428 . S
H465 C461 0.930 . S
H466 C463 0.929 . S
S467 N468 1.613 . S
S467 N469 1.610 . S
N468 S467 1.613 . S
N468 C471 1.350 . S
N469 S467 1.610 . S
N469 C470 1.351 . S
C470 C464 1.428 . S
C470 N469 1.351 . S
C470 C471 1.434 . S
C471 C462 1.429 . S
C471 N468 1.350 . S
C471 C470 1.434 . S
C472 C473 1.369 . S
C472 C474 1.419 1_545 S
C472 H476 0.930 . S
C473 C472 1.369 . S
C473 C482 1.429 . S
C474 C472 1.419 1_565 S
C474 C475 1.363 . S
C474 H477 0.929 . S
C475 C474 1.363 . S
C475 C481 1.428 . S
H476 C472 0.930 . S
H477 C474 0.929 . S
S478 N479 1.613 . S
S478 N480 1.610 1_545 S
N479 S478 1.613 . S
N479 C482 1.350 . S
N480 S478 1.610 1_565 S
N480 C481 1.351 . S
C481 C475 1.428 . S
C481 N480 1.351 . S
C481 C482 1.434 1_565 S
C482 C473 1.429 . S
C482 N479 1.350 . S
C482 C481 1.434 1_545 S
C483 C484 1.369 . S
C483 C485 1.419 1_655 S
C483 H487 0.930 . S
C484 C483 1.369 . S
C484 C493 1.429 . S
C485 C483 1.419 1_455 S
C485 C486 1.363 . S
C485 H488 0.929 . S
C486 C485 1.363 . S
C486 C492 1.428 . S
H487 C483 0.930 . S
H488 C485 0.929 . S
S489 N490 1.613 . S
S489 N491 1.610 1_655 S
N490 S489 1.613 . S
N490 C493 1.350 . S
N491 S489 1.610 1_455 S
N491 C492 1.351 . S
C492 C486 1.428 . S
C492 N491 1.351 . S
C492 C493 1.434 1_455 S
C493 C484 1.429 . S
C493 N490 1.350 . S
C493 C492 1.434 1_655 S
C494 C495 1.369 . S
C494 C496 1.419 1_545 S
C494 H498 0.930 . S
C495 C494 1.369 . S
C495 C504 1.429 . S
C496 C494 1.419 1_565 S
C496 C497 1.363 . S
C496 H499 0.929 . S
C497 C496 1.363 . S
C497 C503 1.428 . S
H498 C494 0.930 . S
H499 C496 0.929 . S
S500 N501 1.613 . S
S500 N502 1.610 1_545 S
N501 S500 1.613 . S
N501 C504 1.350 . S
N502 S500 1.610 1_565 S
N502 C503 1.351 . S
C503 C497 1.428 . S
C503 N502 1.351 . S
C503 C504 1.434 1_565 S
C504 C495 1.429 . S
C504 N501 1.350 . S
C504 C503 1.434 1_545 S
C505 C506 1.369 . S
C505 C507 1.419 1_455 S
C505 H509 0.930 . S
C506 C505 1.369 . S
C506 C515 1.429 . S
C507 C505 1.419 1_655 S
C507 C508 1.363 . S
C507 H510 0.929 . S
C508 C507 1.363 . S
C508 C514 1.428 . S
H509 C505 0.930 . S
H510 C507 0.929 . S
S511 N512 1.613 1_655 S
S511 N513 1.610 . S
N512 S511 1.613 1_455 S
N512 C515 1.350 . S
N513 S511 1.610 . S
N513 C514 1.351 . S
C514 C508 1.428 . S
C514 N513 1.351 . S
C514 C515 1.434 1_655 S
C515 C506 1.429 . S
C515 N512 1.350 . S
C515 C514 1.434 1_455 S
C516 C517 1.369 . S
C516 C518 1.419 1_545 S
C516 H520 0.930 . S
C517 C516 1.369 . S
C517 C526 1.429 . S
C518 C516 1.419 1_565 S
C518 C519 1.363 . S
C518 H521 0.929 . S
C519 C518 1.363 . S
C519 C525 1.428 . S
H520 C516 0.930 . S
H521 C518 0.929 . S
S522 N523 1.613 . S
S522 N524 1.610 1_545 S
N523 S522 1.613 . S
N523 C526 1.350 . S
N524 S522 1.610 1_565 S
N524 C525 1.351 . S
C525 C519 1.428 . S
C525 N524 1.351 . S
C525 C526 1.434 1_565 S
C526 C517 1.429 . S
C526 N523 1.350 . S
C526 C525 1.434 1_545 S
C527 C528 1.369 . S
C527 C529 1.419 1_655 S
C527 H531 0.930 . S
C528 C527 1.369 . S
C528 C537 1.429 . S
C529 C527 1.419 1_455 S
C529 C530 1.363 . S
C529 H532 0.929 . S
C530 C529 1.363 . S
C530 C536 1.428 . S
H531 C527 0.930 . S
H532 C529 0.929 . S
S533 N534 1.613 . S
S533 N535 1.610 1_655 S
N534 S533 1.613 . S
N534 C537 1.350 . S
N535 S533 1.610 1_455 S
N535 C536 1.351 . S
C536 C530 1.428 . S
C536 N535 1.351 . S
C536 C537 1.434 1_455 S
C537 C528 1.429 . S
C537 N534 1.350 . S
C537 C536 1.434 1_655 S
C538 C539 1.369 . S
C538 C540 1.419 1_565 S
C538 H542 0.930 . S
C539 C538 1.369 . S
C539 C548 1.429 . S
C540 C538 1.419 1_545 S
C540 C541 1.363 . S
C540 H543 0.929 . S
C541 C540 1.363 . S
C541 C547 1.428 . S
H542 C538 0.930 . S
H543 C540 0.929 . S
S544 N545 1.613 . S
S544 N546 1.610 1_565 S
N545 S544 1.613 . S
N545 C548 1.350 . S
N546 S544 1.610 1_545 S
N546 C547 1.351 . S
C547 C541 1.428 . S
C547 N546 1.351 . S
C547 C548 1.434 1_545 S
C548 C539 1.429 . S
C548 N545 1.350 . S
C548 C547 1.434 1_565 S
C549 C550 1.369 . S
C549 C551 1.419 1_455 S
C549 H553 0.930 . S
C550 C549 1.369 . S
C550 C559 1.429 . S
C551 C549 1.419 1_655 S
C551 C552 1.363 . S
C551 H554 0.929 . S
C552 C551 1.363 . S
C552 C558 1.428 . S
H553 C549 0.930 . S
H554 C551 0.929 . S
S555 N556 1.613 . S
S555 N557 1.610 1_455 S
N556 S555 1.613 . S
N556 C559 1.350 . S
N557 S555 1.610 1_655 S
N557 C558 1.351 . S
C558 C552 1.428 . S
C558 N557 1.351 . S
C558 C559 1.434 1_655 S
C559 C550 1.429 . S
C559 N556 1.350 . S
C559 C558 1.434 1_455 S
C209 C65 1.314 . S
C211 C0 1.311 . S
C220 C78 1.313 . S
C222 C13 1.315 . S
C231 C26 1.311 . S
C233 C91 1.314 . S
C242 C39 1.310 . S
C244 C52 1.310 . S
C253 C169 1.315 . S
C255 C104 1.312 . S
C264 C182 1.315 . S
C266 C117 1.315 . S
C275 C130 1.312 . S
C277 C195 1.310 . S
C286 C143 1.313 . S
C288 C156 1.315 . S
C297 C138 1.462 . S
C299 C8 1.467 . S
C308 C151 1.462 . S
C310 C21 1.467 . S
C319 C112 1.463 . S
C321 C34 1.463 . S
C330 C47 1.464 . S
C332 C125 1.462 . S
C341 C190 1.469 . S
C343 C60 1.465 . S
C352 C203 1.461 . S
C354 C73 1.464 . S
C363 C86 1.463 . S
C365 C164 1.468 . S
C374 C177 1.469 . S
C376 C99 1.464 . S
C385 C62 1.401 . S
C387 C10 1.398 . S
C396 C23 1.399 . S
C398 C75 1.401 . S
C407 C36 1.401 . S
C409 C88 1.398 . S
C418 C101 1.400 . S
C420 C49 1.400 . S
C429 C109 1.431 . S
C431 C161 1.431 . S
C440 C174 1.435 . S
C442 C122 1.434 . S
C451 C135 1.432 . S
C453 C187 1.432 . S
C462 C200 1.432 . S
C464 C148 1.432 . S
C473 C153 1.401 . S
C475 C179 1.398 . S
C484 C114 1.400 . S
C486 C192 1.397 . S
C495 C205 1.400 . S
C497 C127 1.397 . S
C506 C140 1.398 . S
C508 C166 1.401 . S
C517 C70 1.431 . S
C519 C44 1.430 . S
C528 C83 1.427 . S
C530 C5 1.428 . S
C539 C96 1.435 . S
C541 C18 1.434 . S
C550 C57 1.435 . S
C552 C31 1.434 . S
