# Generated by pormake.
# Topology wll, (5)-cn, num edge types: 1
# Building blocks:
#     Node 0, Type 0, BuildingBlock: BEQFEK_clean_sbu_0, # of connection points: 5
#     Node 1, Type 0, BuildingBlock: BEQFEK_clean_sbu_0, # of connection points: 5
#     Node 2, Type 0, BuildingBlock: BEQFEK_clean_sbu_0, # of connection points: 5
#     Node 3, Type 0, BuildingBlock: BEQFEK_clean_sbu_0, # of connection points: 5
#     Node 4, Type 0, BuildingBlock: BEQFEK_clean_sbu_0, # of connection points: 5
#     Node 5, Type 0, BuildingBlock: BEQFEK_clean_sbu_0, # of connection points: 5
#     Node 6, Type 0, BuildingBlock: BEQFEK_clean_sbu_0, # of connection points: 5
#     Node 7, Type 0, BuildingBlock: BEQFEK_clean_sbu_0, # of connection points: 5
#     Node 8, Type 0, BuildingBlock: BEQFEK_clean_sbu_0, # of connection points: 5
#     Node 9, Type 0, BuildingBlock: BEQFEK_clean_sbu_0, # of connection points: 5
#     Node 10, Type 0, BuildingBlock: BEQFEK_clean_sbu_0, # of connection points: 5
#     Node 11, Type 0, BuildingBlock: BEQFEK_clean_sbu_0, # of connection points: 5
#     Node 12, Type 0, BuildingBlock: BEQFEK_clean_sbu_0, # of connection points: 5
#     Node 13, Type 0, BuildingBlock: BEQFEK_clean_sbu_0, # of connection points: 5
#     Node 14, Type 0, BuildingBlock: BEQFEK_clean_sbu_0, # of connection points: 5
#     Node 15, Type 0, BuildingBlock: BEQFEK_clean_sbu_0, # of connection points: 5
#     Node 16, Type 0, BuildingBlock: BEQFEK_clean_sbu_0, # of connection points: 5
#     Node 17, Type 0, BuildingBlock: BEQFEK_clean_sbu_0, # of connection points: 5
#     Edge 18, Type (0, 0), BuildingBlock: XUDNAN_clean_linker_2, # of connection points: 2
#     Edge 19, Type (0, 0), BuildingBlock: XUDNAN_clean_linker_2, # of connection points: 2
#     Edge 20, Type (0, 0), BuildingBlock: XUDNAN_clean_linker_2, # of connection points: 2
#     Edge 21, Type (0, 0), BuildingBlock: XUDNAN_clean_linker_2, # of connection points: 2
#     Edge 22, Type (0, 0), BuildingBlock: XUDNAN_clean_linker_2, # of connection points: 2
#     Edge 23, Type (0, 0), BuildingBlock: XUDNAN_clean_linker_2, # of connection points: 2
#     Edge 24, Type (0, 0), BuildingBlock: XUDNAN_clean_linker_2, # of connection points: 2
#     Edge 25, Type (0, 0), BuildingBlock: XUDNAN_clean_linker_2, # of connection points: 2
#     Edge 26, Type (0, 0), BuildingBlock: XUDNAN_clean_linker_2, # of connection points: 2
#     Edge 27, Type (0, 0), BuildingBlock: XUDNAN_clean_linker_2, # of connection points: 2
#     Edge 28, Type (0, 0), BuildingBlock: XUDNAN_clean_linker_2, # of connection points: 2
#     Edge 29, Type (0, 0), BuildingBlock: XUDNAN_clean_linker_2, # of connection points: 2
#     Edge 30, Type (0, 0), BuildingBlock: XUDNAN_clean_linker_2, # of connection points: 2
#     Edge 31, Type (0, 0), BuildingBlock: XUDNAN_clean_linker_2, # of connection points: 2
#     Edge 32, Type (0, 0), BuildingBlock: XUDNAN_clean_linker_2, # of connection points: 2
#     Edge 33, Type (0, 0), BuildingBlock: XUDNAN_clean_linker_2, # of connection points: 2
#     Edge 34, Type (0, 0), BuildingBlock: XUDNAN_clean_linker_2, # of connection points: 2
#     Edge 35, Type (0, 0), BuildingBlock: XUDNAN_clean_linker_2, # of connection points: 2
#     Edge 36, Type (0, 0), BuildingBlock: XUDNAN_clean_linker_2, # of connection points: 2
#     Edge 37, Type (0, 0), BuildingBlock: XUDNAN_clean_linker_2, # of connection points: 2
#     Edge 38, Type (0, 0), BuildingBlock: XUDNAN_clean_linker_2, # of connection points: 2
#     Edge 39, Type (0, 0), BuildingBlock: XUDNAN_clean_linker_2, # of connection points: 2
#     Edge 40, Type (0, 0), BuildingBlock: XUDNAN_clean_linker_2, # of connection points: 2
#     Edge 41, Type (0, 0), BuildingBlock: XUDNAN_clean_linker_2, # of connection points: 2
#     Edge 42, Type (0, 0), BuildingBlock: XUDNAN_clean_linker_2, # of connection points: 2
#     Edge 43, Type (0, 0), BuildingBlock: XUDNAN_clean_linker_2, # of connection points: 2
#     Edge 44, Type (0, 0), BuildingBlock: XUDNAN_clean_linker_2, # of connection points: 2
#     Edge 45, Type (0, 0), BuildingBlock: XUDNAN_clean_linker_2, # of connection points: 2
#     Edge 46, Type (0, 0), BuildingBlock: XUDNAN_clean_linker_2, # of connection points: 2
#     Edge 47, Type (0, 0), BuildingBlock: XUDNAN_clean_linker_2, # of connection points: 2
#     Edge 48, Type (0, 0), BuildingBlock: XUDNAN_clean_linker_2, # of connection points: 2
#     Edge 49, Type (0, 0), BuildingBlock: XUDNAN_clean_linker_2, # of connection points: 2
#     Edge 50, Type (0, 0), BuildingBlock: XUDNAN_clean_linker_2, # of connection points: 2
#     Edge 51, Type (0, 0), BuildingBlock: XUDNAN_clean_linker_2, # of connection points: 2
#     Edge 52, Type (0, 0), BuildingBlock: XUDNAN_clean_linker_2, # of connection points: 2
#     Edge 53, Type (0, 0), BuildingBlock: XUDNAN_clean_linker_2, # of connection points: 2
#     Edge 54, Type (0, 0), BuildingBlock: XUDNAN_clean_linker_2, # of connection points: 2
#     Edge 55, Type (0, 0), BuildingBlock: XUDNAN_clean_linker_2, # of connection points: 2
#     Edge 56, Type (0, 0), BuildingBlock: XUDNAN_clean_linker_2, # of connection points: 2
#     Edge 57, Type (0, 0), BuildingBlock: XUDNAN_clean_linker_2, # of connection points: 2
#     Edge 58, Type (0, 0), BuildingBlock: XUDNAN_clean_linker_2, # of connection points: 2
#     Edge 59, Type (0, 0), BuildingBlock: XUDNAN_clean_linker_2, # of connection points: 2
#     Edge 60, Type (0, 0), BuildingBlock: XUDNAN_clean_linker_2, # of connection points: 2
#     Edge 61, Type (0, 0), BuildingBlock: XUDNAN_clean_linker_2, # of connection points: 2
#     Edge 62, Type (0, 0), BuildingBlock: XUDNAN_clean_linker_2, # of connection points: 2
# Relax obj value: 0.196
# Max RMSD: 0.163
# Mean RMSD: 0.161
data_MOF--net-wll--node1-BEQFEK_clean_sbu_0--edge1-XUDNAN_clean_linker_2
_symmetry_space_group_name_H-M    P1
_symmetry_Int_Tables_number       1
_symmetry_cell_setting            triclinic
loop_
_symmetry_equiv_pos_as_xyz
'x, y, z'
_cell_length_a     39.683874
_cell_length_b     39.714092
_cell_length_c     66.980838
_cell_angle_alpha  90.019095
_cell_angle_beta   90.046917
_cell_angle_gamma 120.00197
loop_
_atom_site_label
_atom_site_type_symbol
_atom_site_fract_x
_atom_site_fract_y
_atom_site_fract_z
_atom_type_partial_charge
Co0 Co 0.28918 0.3133 0.12221 0.0
Co1 Co 0.32806 0.30341 0.08345 0.0
C2 C 0.3121 0.25309 0.12037 0.0
O3 O 0.29421 0.26762 0.12952 0.0
O4 O 0.32634 0.26484 0.10301 0.0
C5 C 0.23549 0.29884 0.15507 0.0
O6 O 0.22448 0.26187 0.15291 0.0
C7 C 0.34066 0.26135 0.05079 0.0
C8 C 0.36462 0.30562 0.02693 0.0
C9 C 0.35342 0.26736 0.0312 0.0
N10 N 0.34399 0.29454 0.05789 0.0
N11 N 0.35863 0.32099 0.04359 0.0
C12 C 0.32303 0.2239 0.0621 0.0
H13 H 0.29813 0.2206 0.07114 0.0
H14 H 0.31305 0.19867 0.05188 0.0
H15 H 0.34519 0.22441 0.07238 0.0
C16 C 0.23323 0.31104 0.09187 0.0
N17 N 0.26415 0.3076 0.09721 0.0
N18 N 0.27901 0.30088 0.08119 0.0
C19 C 0.257 0.29813 0.06524 0.0
C20 C 0.22755 0.30514 0.07135 0.0
C21 C 0.21263 0.3241 0.10588 0.0
H22 H 0.23399 0.34694 0.11598 0.0
H23 H 0.19198 0.29907 0.11515 0.0
H24 H 0.19648 0.33598 0.09779 0.0
O25 O 0.34205 0.35847 0.12176 0.0
O26 O 0.36874 0.35585 0.09301 0.0
H27 H 0.28672 0.3135 0.03722 0.0
H28 H 0.23627 0.276 0.03552 0.0
C29 C 0.26311 0.28743 0.04466 0.0
H30 H 0.27157 0.26479 0.04551 0.0
H31 H 0.36381 0.34936 0.04507 0.0
O32 O 0.26155 0.32384 0.14366 0.0
C33 C 0.37015 0.3727 0.10944 0.0
Co34 Co 0.68398 0.98061 0.12184 0.0
Co35 Co 0.70537 0.04135 0.08714 0.0
C36 C 0.75565 0.06007 0.12333 0.0
O37 O 0.73301 0.02629 0.13026 0.0
O38 O 0.74911 0.07071 0.10652 0.0
C39 C 0.69782 0.93528 0.15064 0.0
O40 O 0.73457 0.95916 0.14637 0.0
C41 C 0.74726 0.08945 0.05197 0.0
C42 C 0.70027 0.09472 0.03726 0.0
C43 C 0.73896 0.10481 0.03519 0.0
N44 N 0.71476 0.07076 0.0631 0.0
N45 N 0.68692 0.07427 0.05425 0.0
C46 C 0.78544 0.09328 0.05782 0.0
H47 H 0.78636 0.08865 0.07406 0.0
H48 H 0.78924 0.07084 0.04993 0.0
H49 H 0.80982 0.12241 0.05369 0.0
C50 C 0.6778 0.93012 0.08811 0.0
N51 N 0.68758 0.96527 0.09564 0.0
N52 N 0.69671 0.99036 0.08095 0.0
C53 C 0.69289 0.97165 0.06349 0.0
C54 C 0.68088 0.9329 0.06747 0.0
C55 C 0.66371 0.8942 0.10049 0.0
H56 H 0.6369 0.88837 0.10854 0.0
H57 H 0.6861 0.89904 0.11181 0.0
H58 H 0.65774 0.86857 0.09128 0.0
O59 O 0.64213 0.99355 0.12353 0.0
O60 O 0.65771 0.03718 0.09939 0.0
H61 H 0.67654 0.00209 0.04284 0.0
H62 H 0.68678 0.96717 0.03124 0.0
C63 C 0.69556 0.98908 0.04333 0.0
H64 H 0.72593 0.01242 0.04066 0.0
H65 H 0.6586 0.06227 0.0597 0.0
O66 O 0.67159 0.93862 0.14145 0.0
C67 C 0.63562 0.01715 0.11371 0.0
Co68 Co 0.01501 0.70126 0.12083 0.0
Co69 Co 0.96181 0.65523 0.08438 0.0
C70 C 0.93395 0.68535 0.11835 0.0
O71 O 0.96682 0.70279 0.12707 0.0
O72 O 0.92924 0.66618 0.1024 0.0
C73 C 0.06734 0.76994 0.14238 0.0
O74 O 0.05665 0.78712 0.1291 0.0
C75 C 0.91374 0.64963 0.04959 0.0
C76 C 0.90609 0.5969 0.03442 0.0
C77 C 0.89656 0.626 0.03299 0.0
N78 N 0.93288 0.63538 0.06005 0.0
N79 N 0.9281 0.60381 0.0509 0.0
C80 C 0.9115 0.68475 0.05572 0.0
H81 H 0.91989 0.69232 0.0715 0.0
H82 H 0.93213 0.71005 0.04663 0.0
H83 H 0.88169 0.6798 0.05329 0.0
C84 C 0.07039 0.74269 0.08702 0.0
N85 N 0.03446 0.71814 0.09431 0.0
N86 N 0.01103 0.69976 0.07923 0.0
C87 C 0.03093 0.71263 0.06199 0.0
C88 C 0.06919 0.74011 0.06632 0.0
C89 C 0.10646 0.76327 0.09948 0.0
H90 H 0.10353 0.74643 0.1132 0.0
H91 H 0.11118 0.79231 0.10371 0.0
H92 H 0.1324 0.76762 0.09104 0.0
O93 O 0.0031 0.647 0.12448 0.0
O94 O 0.96982 0.6146 0.09743 0.0
H95 H 0.00484 0.66595 0.04089 0.0
H96 H 0.03498 0.71319 0.02961 0.0
C97 C 0.01409 0.69729 0.04177 0.0
H98 H 0.98829 0.70055 0.03946 0.0
H99 H 0.93976 0.58691 0.05593 0.0
O100 O 0.05361 0.73345 0.14146 0.0
C101 C 0.98599 0.61594 0.11412 0.0
Co102 Co 0.70538 0.68246 0.87944 0.0
Co103 Co 0.6628 0.69878 0.91476 0.0
C104 C 0.67611 0.73927 0.87581 0.0
O105 O 0.6923 0.72084 0.86926 0.0
O106 O 0.66431 0.73538 0.89378 0.0
C107 C 0.74495 0.69151 0.84205 0.0
O108 O 0.72581 0.70895 0.83643 0.0
C109 C 0.65395 0.74223 0.9483 0.0
C110 C 0.60573 0.69503 0.96518 0.0
C111 C 0.63106 0.73489 0.9653 0.0
N112 N 0.64277 0.70827 0.93887 0.0
N113 N 0.6139 0.68023 0.94905 0.0
C114 C 0.68503 0.78074 0.94062 0.0
H115 H 0.69048 0.77888 0.92455 0.0
H116 H 0.71252 0.78948 0.94879 0.0
H117 H 0.67673 0.80331 0.94298 0.0
C118 C 0.75781 0.68994 0.91195 0.0
N119 N 0.72926 0.69547 0.90479 0.0
N120 N 0.71181 0.70206 0.91974 0.0
C121 C 0.72886 0.70073 0.93696 0.0
C122 C 0.75858 0.69299 0.93259 0.0
C123 C 0.77958 0.67579 0.89953 0.0
H124 H 0.75874 0.64709 0.89298 0.0
H125 H 0.79423 0.69638 0.88705 0.0
H126 H 0.80173 0.67314 0.90845 0.0
O127 O 0.6561 0.63283 0.88111 0.0
O128 O 0.62501 0.64496 0.90523 0.0
H129 H 0.68168 0.6754 0.95775 0.0
H130 H 0.72913 0.69472 0.96915 0.0
C131 C 0.71238 0.6993 0.95724 0.0
H132 H 0.71298 0.72705 0.96015 0.0
H133 H 0.59973 0.65094 0.94497 0.0
O134 O 0.74009 0.67763 0.85962 0.0
C135 C 0.62608 0.6224 0.89194 0.0
Co136 Co 0.31523 0.01502 0.88189 0.0
Co137 Co 0.30573 0.9624 0.91908 0.0
C138 C 0.25622 0.92974 0.88232 0.0
O139 O 0.27142 0.96265 0.87362 0.0
O140 O 0.26707 0.92641 0.89973 0.0
C141 C 0.3078 0.04563 0.84401 0.0
O142 O 0.29198 0.00931 0.83808 0.0
C143 C 0.26503 0.90782 0.95175 0.0
C144 C 0.31288 0.919 0.97247 0.0
C145 C 0.273 0.89699 0.96997 0.0
N146 N 0.29866 0.93531 0.94374 0.0
N147 N 0.32722 0.94171 0.95615 0.0
C148 C 0.22589 0.89334 0.94247 0.0
H149 H 0.22576 0.91654 0.93329 0.0
H150 H 0.20292 0.88333 0.95408 0.0
H151 H 0.21936 0.86835 0.93261 0.0
C152 C 0.31446 0.06544 0.91452 0.0
N153 N 0.30805 0.0307 0.90772 0.0
N154 N 0.30192 0.00759 0.92303 0.0
C155 C 0.30308 0.02642 0.93996 0.0
C156 C 0.31189 0.06401 0.93526 0.0
C157 C 0.32889 0.10076 0.90161 0.0
H158 H 0.35449 0.10481 0.89295 0.0
H159 H 0.30583 0.0962 0.89076 0.0
H160 H 0.33708 0.12735 0.91047 0.0
O161 O 0.36435 0.0131 0.88182 0.0
O162 O 0.35826 0.97768 0.90876 0.0
H163 H 0.32508 0.00839 0.96437 0.0
H164 H 0.29421 0.02757 0.97178 0.0
C165 C 0.29862 0.00973 0.96047 0.0
H166 H 0.2732 0.97991 0.96081 0.0
H167 H 0.35647 0.96189 0.95359 0.0
O168 O 0.31983 0.05426 0.86191 0.0
C169 C 0.37768 0.9974 0.89367 0.0
Co170 Co 0.98419 0.28272 0.8755 0.0
Co171 Co 0.03234 0.32994 0.91306 0.0
C172 C 0.06986 0.31228 0.87892 0.0
O173 O 0.03785 0.29367 0.86946 0.0
O174 O 0.07136 0.32718 0.89595 0.0
C175 C 0.94324 0.21405 0.85116 0.0
O176 O 0.95854 0.19938 0.86333 0.0
C177 C 0.07767 0.33991 0.94922 0.0
C178 C 0.06586 0.37924 0.96742 0.0
C179 C 0.08406 0.35723 0.96785 0.0
N180 N 0.05647 0.35097 0.93827 0.0
N181 N 0.05029 0.37524 0.94907 0.0
C182 C 0.08717 0.30952 0.94281 0.0
H183 H 0.0663 0.29039 0.93125 0.0
H184 H 0.08673 0.29183 0.95574 0.0
H185 H 0.11686 0.32406 0.93632 0.0
C186 C 0.93123 0.23194 0.9075 0.0
N187 N 0.96614 0.26085 0.90124 0.0
N188 N 0.98698 0.28004 0.91694 0.0
C189 C 0.96641 0.26298 0.93362 0.0
C190 C 0.93056 0.23195 0.92821 0.0
C191 C 0.89718 0.20849 0.89406 0.0
H192 H 0.89703 0.2267 0.88155 0.0
H193 H 0.89958 0.18391 0.88787 0.0
H194 H 0.8692 0.19614 0.90223 0.0
O195 O 0.9826 0.33136 0.87417 0.0
O196 O 0.01752 0.36618 0.90028 0.0
H197 H 0.98239 0.30966 0.95426 0.0
H198 H 0.95524 0.2622 0.96542 0.0
C199 C 0.97778 0.27976 0.95418 0.0
H200 H 0.00521 0.28084 0.95856 0.0
H201 H 0.03358 0.38731 0.94432 0.0
O202 O 0.94999 0.24852 0.85386 0.0
C203 C 0.99701 0.36204 0.8848 0.0
Co204 Co 0.9712 0.6651 0.45281 0.0
Co205 Co 0.01785 0.64604 0.42097 0.0
C206 C 0.98535 0.59844 0.45835 0.0
O207 O 0.96992 0.61853 0.46345 0.0
O208 O 0.00508 0.60573 0.4423 0.0
C209 C 0.90952 0.6509 0.47999 0.0
O210 O 0.90061 0.61446 0.47801 0.0
C211 C 0.02871 0.59748 0.39151 0.0
C212 C 0.06855 0.64077 0.36967 0.0
C213 C 0.04685 0.60124 0.37332 0.0
N214 N 0.03881 0.63319 0.39829 0.0
N215 N 0.0631 0.65897 0.38529 0.0
C216 C -0.00021 0.56055 0.40153 0.0
H217 H 0.97565 0.5638 0.40776 0.0
H218 H 0.98802 0.5356 0.39101 0.0
H219 H 0.01428 0.55463 0.41412 0.0
C220 C 0.92475 0.65939 0.41702 0.0
N221 N 0.95436 0.65781 0.42598 0.0
N222 N 0.97285 0.6486 0.41268 0.0
C223 C 0.95508 0.64357 0.39482 0.0
C224 C 0.92416 0.6503 0.39699 0.0
C225 C 0.89672 0.66783 0.42772 0.0
H226 H 0.91306 0.69565 0.436 0.0
H227 H 0.88027 0.6445 0.43879 0.0
H228 H 0.87587 0.66951 0.4173 0.0
O229 O 0.0253 0.70789 0.45554 0.0
O230 O 0.05881 0.69736 0.43212 0.0
H231 H 0.99873 0.65645 0.37278 0.0
H232 H 0.95012 0.63277 0.36288 0.0
C233 C 0.96819 0.63396 0.3758 0.0
H234 H 0.96664 0.60544 0.37733 0.0
H235 H 0.0748 0.68895 0.38672 0.0
O236 O 0.93799 0.67713 0.47017 0.0
C237 C 0.05704 0.71753 0.44649 0.0
Co238 Co 0.34845 0.31369 0.4528 0.0
Co239 Co 0.36105 0.36404 0.41435 0.0
C240 C 0.41441 0.39556 0.44974 0.0
O241 O 0.39631 0.36367 0.4593 0.0
O242 O 0.40369 0.3991 0.43233 0.0
C243 C 0.34982 0.2849 0.49206 0.0
O244 O 0.36243 0.32101 0.4976 0.0
C245 C 0.40319 0.41118 0.37958 0.0
C246 C 0.35531 0.39799 0.3585 0.0
C247 C 0.39548 0.41767 0.36022 0.0
N248 N 0.36911 0.38855 0.38887 0.0
N249 N 0.34059 0.38146 0.37631 0.0
C250 C 0.44204 0.42171 0.38822 0.0
H251 H 0.43905 0.39939 0.39915 0.0
H252 H 0.46283 0.42466 0.37634 0.0
H253 H 0.45396 0.44999 0.39608 0.0
C254 C 0.3455 0.25828 0.42217 0.0
N255 N 0.35139 0.29353 0.42757 0.0
N256 N 0.35836 0.31511 0.41153 0.0
C257 C 0.35821 0.29461 0.39543 0.0
C258 C 0.34962 0.25771 0.40157 0.0
C259 C 0.33227 0.22484 0.43633 0.0
H260 H 0.30936 0.22363 0.44628 0.0
H261 H 0.35719 0.22939 0.44579 0.0
H262 H 0.32047 0.19668 0.42838 0.0
O263 O 0.30387 0.32286 0.45343 0.0
O264 O 0.31163 0.35703 0.42577 0.0
H265 H 0.34294 0.31351 0.36876 0.0
H266 H 0.37282 0.29168 0.36448 0.0
C267 C 0.36744 0.31052 0.37464 0.0
H268 H 0.39396 0.33952 0.37485 0.0
H269 H 0.31112 0.36368 0.37959 0.0
O270 O 0.34166 0.27568 0.4738 0.0
C271 C 0.29278 0.34064 0.44164 0.0
Co272 Co 0.69198 0.04749 0.45969 0.0
Co273 Co 0.62244 -9e-05 0.42994 0.0
C274 C 0.61203 0.03066 0.46945 0.0
O275 O 0.64801 0.04639 0.47366 0.0
O276 O 0.59858 0.01233 0.4531 0.0
C277 C 0.74423 0.10341 0.48868 0.0
O278 O 0.71411 0.10683 0.49373 0.0
C279 C 0.57265 0.0038 0.3993 0.0
C280 C 0.54871 0.94744 0.38374 0.0
C281 C 0.55005 0.98299 0.38308 0.0
N282 N 0.58486 0.98204 0.40881 0.0
N283 N 0.56996 0.94808 0.39963 0.0
C284 C 0.58224 0.04368 0.40591 0.0
H285 H 0.58618 0.04645 0.42234 0.0
H286 H 0.60989 0.06575 0.39898 0.0
H287 H 0.55893 0.04983 0.40139 0.0
C288 C 0.72778 0.09361 0.4237 0.0
N289 N 0.69687 0.06532 0.43339 0.0
N290 N 0.66935 0.04407 0.42044 0.0
C291 C 0.68261 0.05772 0.40191 0.0
C292 C 0.71964 0.08979 0.40348 0.0
C293 C 0.765 0.1224 0.4336 0.0
H294 H 0.75852 0.13501 0.44682 0.0
H295 H 0.78416 0.14612 0.42324 0.0
H296 H 0.7805 0.10726 0.43883 0.0
O297 O 0.68397 0.99449 0.45903 0.0
O298 O 0.63398 0.95861 0.43877 0.0
H299 H 0.6452 0.00543 0.38548 0.0
H300 H 0.68579 0.04205 0.37143 0.0
C301 C 0.66358 0.03709 0.38289 0.0
H302 H 0.64544 0.04872 0.3769 0.0
H303 H 0.57546 0.92594 0.40375 0.0
O304 O 0.74077 0.08014 0.47474 0.0
C305 C 0.6608 0.96222 0.45064 0.0
Co306 Co 0.37505 0.01832 0.21435 0.0
Co307 Co 0.32419 0.03095 0.24641 0.0
C308 C 0.35419 0.0813 0.21016 0.0
O309 O 0.37039 0.06221 0.20468 0.0
O310 O 0.33509 0.07328 0.22644 0.0
C311 C 0.43992 0.04577 0.18865 0.0
O312 O 0.44214 0.079 0.19312 0.0
C313 C 0.31225 0.07143 0.27963 0.0
C314 C 0.26507 0.02322 0.29652 0.0
C315 C 0.29095 0.06285 0.29712 0.0
N316 N 0.29964 0.03841 0.26915 0.0
N317 N 0.27073 0.00982 0.27909 0.0
C318 C 0.34706 0.10943 0.2741 0.0
H319 H 0.36571 0.10488 0.26337 0.0
H320 H 0.36415 0.12477 0.28759 0.0
H321 H 0.33705 0.12811 0.26696 0.0
C322 C 0.42115 0.02428 0.25015 0.0
N323 N 0.39126 0.02539 0.24125 0.0
N324 N 0.36994 0.02988 0.2549 0.0
C325 C 0.38528 0.03067 0.27306 0.0
C326 C 0.41827 0.02749 0.27058 0.0
C327 C 0.45061 0.01818 0.23931 0.0
H328 H 0.43551 0.99226 0.22952 0.0
H329 H 0.46844 0.04373 0.22967 0.0
H330 H 0.47 0.01419 0.24981 0.0
O331 O 0.32304 0.9717 0.21102 0.0
O332 O 0.28711 0.98012 0.23394 0.0
H333 H 0.33683 0.01258 0.29283 0.0
H334 H 0.38237 0.02753 0.3054 0.0
C335 C 0.36849 0.03352 0.29256 0.0
H336 H 0.3733 0.06332 0.29434 0.0
H337 H 0.2566 0.98076 0.27461 0.0
O338 O 0.41351 0.01465 0.19666 0.0
C339 C 0.29071 0.9605 0.21986 0.0
Co340 Co 0.98774 0.35374 0.21799 0.0
Co341 Co 0.97333 0.29563 0.25323 0.0
C342 C 0.9302 0.26906 0.2143 0.0
O343 O 0.94491 0.30311 0.20702 0.0
O344 O 0.93946 0.26382 0.23165 0.0
C345 C 0.97004 0.40501 0.19658 0.0
O346 O 0.94108 0.39222 0.20932 0.0
C347 C 0.92062 0.23975 0.28207 0.0
C348 C 0.95888 0.24494 0.30722 0.0
C349 C 0.92009 0.2285 0.30175 0.0
N350 N 0.95776 0.26318 0.27652 0.0
N351 N 0.98061 0.26522 0.29141 0.0
C352 C 0.88651 0.22906 0.26862 0.0
H353 H 0.89003 0.21595 0.25476 0.0
H354 H 0.88561 0.25566 0.26448 0.0
H355 H 0.85858 0.20737 0.27545 0.0
C356 C 0.9891 0.40204 0.25256 0.0
N357 N 0.97943 0.36732 0.24417 0.0
N358 N 0.96985 0.34128 0.25843 0.0
C359 C 0.97059 0.358 0.27607 0.0
C360 C 0.98384 0.39726 0.27313 0.0
C361 C 0.01037 0.44013 0.24182 0.0
H362 H 0.02658 0.43784 0.22891 0.0
H363 H 0.98904 0.44829 0.23633 0.0
H364 H 0.03104 0.46355 0.25192 0.0
O365 O 0.03576 0.35065 0.21927 0.0
O366 O 0.02723 0.31046 0.2446 0.0
H367 H 0.98466 0.33223 0.30034 0.0
H368 H 0.95672 0.35476 0.30751 0.0
C369 C 0.96083 0.33745 0.29575 0.0
H370 H 0.93345 0.30933 0.2944 0.0
H371 H 0.01088 0.28246 0.29125 0.0
O372 O 0.99445 0.39328 0.19787 0.0
C373 C 0.04784 0.33284 0.23043 0.0
Co374 Co 0.63589 0.63467 0.21049 0.0
Co375 Co 0.69975 0.66929 0.24426 0.0
C376 C 0.71852 0.6526 0.20383 0.0
O377 O 0.68371 0.64097 0.19844 0.0
O378 O 0.72961 0.66402 0.22163 0.0
C379 C 0.58909 0.57201 0.18539 0.0
O380 O 0.60865 0.55782 0.19446 0.0
C381 C 0.75461 0.66958 0.27395 0.0
C382 C 0.75146 0.70582 0.29807 0.0
C383 C 0.76729 0.68268 0.29327 0.0
N384 N 0.73145 0.68338 0.26791 0.0
N385 N 0.73028 0.7056 0.28227 0.0
C386 C 0.76456 0.64482 0.26116 0.0
H387 H 0.73802 0.61632 0.25844 0.0
H388 H 0.78753 0.64042 0.26798 0.0
H389 H 0.77525 0.65908 0.24649 0.0
C390 C 0.59146 0.5787 0.24223 0.0
N391 N 0.62467 0.60864 0.23514 0.0
N392 N 0.65135 0.62179 0.24927 0.0
C393 C 0.63593 0.59953 0.26574 0.0
C394 C 0.5975 0.57143 0.26175 0.0
C395 C 0.5532 0.561 0.2315 0.0
H396 H 0.55228 0.58253 0.22133 0.0
H397 H 0.54931 0.5357 0.22263 0.0
H398 H 0.52868 0.55067 0.2422 0.0
O399 O 0.64174 0.68583 0.21461 0.0
O400 O 0.68944 0.71285 0.23718 0.0
H401 H 0.66475 0.63313 0.29166 0.0
H402 H 0.64056 0.58115 0.29565 0.0
C403 C 0.65756 0.60485 0.28487 0.0
H404 H 0.68503 0.60506 0.28174 0.0
H405 H 0.71379 0.7194 0.2816 0.0
O406 O 0.59503 0.60546 0.19027 0.0
C407 C 0.66487 0.71449 0.22544 0.0
Co408 Co 0.62412 0.9853 0.79352 0.0
Co409 Co 0.65318 0.96145 0.75497 0.0
C410 C 0.62616 0.91161 0.79224 0.0
O411 O 0.61789 0.93446 0.80154 0.0
O412 O 0.63961 0.91898 0.77454 0.0
C413 C 0.59879 0.9932 0.8327 0.0
O414 O 0.61953 0.97785 0.83897 0.0
C415 C 0.65217 0.90969 0.72327 0.0
C416 C 0.67829 0.94932 0.69767 0.0
C417 C 0.66022 0.91047 0.70307 0.0
N418 N 0.66375 0.94611 0.72945 0.0
N419 N 0.68001 0.96979 0.71412 0.0
C420 C 0.63582 0.87528 0.73686 0.0
H421 H 0.65594 0.88204 0.74965 0.0
H422 H 0.60719 0.86955 0.74259 0.0
H423 H 0.63267 0.84891 0.72945 0.0
C424 C 0.57394 0.99302 0.76327 0.0
N425 N 0.60099 0.98355 0.7684 0.0
N426 N 0.6112 0.97147 0.75245 0.0
C427 C 0.58961 0.97124 0.7368 0.0
C428 C 0.5655 0.98531 0.74305 0.0
C429 C 0.55936 0.01245 0.77717 0.0
H430 H 0.58365 0.034 0.78654 0.0
H431 H 0.53693 0.99027 0.78714 0.0
H432 H 0.54666 0.02773 0.76896 0.0
O433 O 0.68022 0.02277 0.79302 0.0
O434 O 0.70117 0.00896 0.76495 0.0
H435 H 0.61525 0.97775 0.70799 0.0
H436 H 0.56301 0.94716 0.70819 0.0
C437 C 0.59015 0.95538 0.71659 0.0
H438 H 0.59318 0.92927 0.71813 0.0
H439 H 0.69096 0.99975 0.71469 0.0
O440 O 0.59814 0.9998 0.81419 0.0
C441 C 0.70732 0.02922 0.78076 0.0
Co442 Co 0.00424 0.63578 0.79052 0.0
Co443 Co 0.03096 0.69735 0.75598 0.0
C444 C 0.0745 0.71665 0.7944 0.0
O445 O 0.05085 0.68247 0.80059 0.0
O446 O 0.07123 0.72769 0.77696 0.0
C447 C 0.01527 0.58954 0.82006 0.0
O448 O 0.05213 0.61647 0.81887 0.0
C449 C 0.07463 0.75714 0.72518 0.0
C450 C 0.03226 0.73574 0.7003 0.0
C451 C 0.06941 0.76443 0.70548 0.0
N452 N 0.04198 0.72534 0.73135 0.0
N453 N 0.01668 0.713 0.71646 0.0
C454 C 0.11083 0.77808 0.73749 0.0
H455 H 0.11722 0.75666 0.74461 0.0
H456 H 0.13611 0.79869 0.72835 0.0
H457 H 0.10597 0.7943 0.74957 0.0
C458 C 0.00829 0.5878 0.75821 0.0
N459 N 0.01311 0.62174 0.76511 0.0
N460 N 0.02705 0.64793 0.75084 0.0
C461 C 0.03301 0.63164 0.73447 0.0
C462 C 0.02107 0.59285 0.73854 0.0
C463 C 0.98845 0.55056 0.76977 0.0
H464 H 0.96474 0.54955 0.77897 0.0
H465 H 0.00984 0.54912 0.7799 0.0
H466 H 0.9758 0.52486 0.75976 0.0
O467 O 0.96137 0.64648 0.78966 0.0
O468 O 0.97978 0.69037 0.76547 0.0
H469 H 0.02927 0.65304 0.70579 0.0
H470 H 0.06611 0.63938 0.70759 0.0
C471 C 0.05179 0.65324 0.71567 0.0
H472 H 0.07381 0.68377 0.71915 0.0
H473 H 0.98902 0.68839 0.71719 0.0
O474 O 0.99034 0.59268 0.80952 0.0
C475 C 0.95557 0.6695 0.77894 0.0
Co476 Co 0.36945 0.36315 0.78927 0.0
Co477 Co 0.30621 0.32486 0.75527 0.0
C478 C 0.28839 0.35023 0.79397 0.0
O479 O 0.32275 0.36161 0.79994 0.0
O480 O 0.27746 0.33574 0.77663 0.0
C481 C 0.40879 0.41981 0.81897 0.0
O482 O 0.37952 0.42554 0.81545 0.0
C483 C 0.26507 0.33535 0.72221 0.0
C484 C 0.23969 0.27971 0.70582 0.0
C485 C 0.24369 0.31645 0.70533 0.0
N486 N 0.27403 0.31132 0.732 0.0
N487 N 0.25847 0.27792 0.72224 0.0
C488 C 0.27575 0.3752 0.7294 0.0
H489 H 0.28141 0.37781 0.7457 0.0
H490 H 0.30263 0.39722 0.72185 0.0
H491 H 0.25219 0.38161 0.72588 0.0
C492 C 0.41674 0.41067 0.75551 0.0
N493 N 0.38208 0.38476 0.76337 0.0
N494 N 0.35655 0.368 0.7489 0.0
C495 C 0.37472 0.38217 0.73124 0.0
C496 C 0.41324 0.41011 0.73488 0.0
C497 C 0.45325 0.4327 0.7675 0.0
H498 H 0.46095 0.41193 0.77427 0.0
H499 H 0.44817 0.4483 0.77982 0.0
H500 H 0.47782 0.45404 0.7582 0.0
O501 O 0.35789 0.30841 0.78851 0.0
O502 O 0.31269 0.2806 0.76472 0.0
H503 H 0.33859 0.33229 0.71298 0.0
H504 H 0.38177 0.36896 0.70068 0.0
C505 C 0.35835 0.36401 0.71134 0.0
H506 H 0.34195 0.37722 0.70488 0.0
H507 H 0.26125 0.25418 0.72659 0.0
O508 O 0.4122 0.39463 0.80875 0.0
C509 C 0.33437 0.27862 0.77829 0.0
Co510 Co 0.05883 0.37293 0.54724 0.0
Co511 Co 0.00637 0.37075 0.58286 0.0
C512 C 0.02649 0.42605 0.54794 0.0
O513 O 0.04779 0.4147 0.53948 0.0
O514 O 0.00975 0.41154 0.56451 0.0
C515 C 0.09406 0.37663 0.50945 0.0
O516 O 0.06736 0.38409 0.50273 0.0
C517 C 0.994 0.40773 0.61743 0.0
C518 C 0.95367 0.35767 0.63594 0.0
C519 C 0.97573 0.39792 0.63585 0.0
N520 N 0.98344 0.37485 0.60714 0.0
N521 N 0.95859 0.34503 0.61809 0.0
C522 C 0.02518 0.44712 0.61082 0.0
H523 H 0.04415 0.44454 0.59948 0.0
H524 H 0.04303 0.46445 0.62371 0.0
H525 H 0.01136 0.46273 0.60404 0.0
C526 C 0.11114 0.38058 0.58055 0.0
N527 N 0.07856 0.37898 0.57348 0.0
N528 N 0.05615 0.37648 0.58854 0.0
C529 C 0.07365 0.37586 0.60573 0.0
C530 C 0.10905 0.37852 0.60122 0.0
C531 C 0.14148 0.37988 0.56759 0.0
H532 H 0.12812 0.35233 0.55896 0.0
H533 H 0.15241 0.40421 0.55675 0.0
H534 H 0.16614 0.38214 0.57647 0.0
O535 O 0.01022 0.32234 0.54493 0.0
O536 O 0.97196 0.31966 0.56989 0.0
H537 H 0.02662 0.34625 0.62634 0.0
H538 H 0.07418 0.36846 0.63785 0.0
C539 C 0.05643 0.37178 0.62607 0.0
H540 H 0.0547 0.39813 0.62953 0.0
H541 H 0.9468 0.31599 0.61386 0.0
O542 O 0.096 0.37165 0.52806 0.0
C543 C 0.97825 0.3047 0.55449 0.0
Co544 Co 0.65003 0.68988 0.54857 0.0
Co545 Co 0.63395 0.62201 0.57828 0.0
C546 C 0.59147 0.60675 0.53934 0.0
O547 O 0.61016 0.64284 0.53527 0.0
O548 O 0.59667 0.59389 0.55582 0.0
C549 C 0.6347 0.73635 0.52078 0.0
O550 O 0.5992 0.70641 0.52001 0.0
C551 C 0.59023 0.56258 0.60937 0.0
C552 C 0.63834 0.56127 0.62525 0.0
C553 C 0.59837 0.54613 0.62578 0.0
N554 N 0.62395 0.58672 0.60004 0.0
N555 N 0.65245 0.5854 0.60952 0.0
C556 C 0.55128 0.55485 0.60217 0.0
H557 H 0.55236 0.56157 0.58606 0.0
H558 H 0.54277 0.57373 0.61035 0.0
H559 H 0.52887 0.52403 0.60482 0.0
C560 C 0.63472 0.72259 0.58438 0.0
N561 N 0.63627 0.69355 0.57489 0.0
N562 N 0.63058 0.66613 0.58775 0.0
C563 C 0.62558 0.67735 0.60605 0.0
C564 C 0.62791 0.71335 0.60445 0.0
C565 C 0.63996 0.7585 0.57428 0.0
H566 H 0.62006 0.75011 0.56127 0.0
H567 H 0.63384 0.77681 0.58447 0.0
H568 H 0.67023 0.77561 0.56865 0.0
O569 O 0.69883 0.689 0.54852 0.0
O570 O 0.68777 0.63914 0.56798 0.0
H571 H 0.62874 0.67534 0.63828 0.0
H572 H 0.59331 0.63085 0.62649 0.0
C573 C 0.62293 0.65635 0.62506 0.0
H574 H 0.64425 0.64609 0.62486 0.0
H575 H 0.68173 0.60176 0.60554 0.0
O576 O 0.65961 0.73536 0.53234 0.0
C577 C 0.70991 0.66704 0.5564 0.0
Co578 Co 0.31522 0.98018 0.55313 0.0
Co579 Co 0.36689 0.02348 0.59064 0.0
C580 C 0.39894 0.00026 0.55639 0.0
O581 O 0.3666 0.9843 0.54707 0.0
O582 O 0.40243 0.01611 0.57332 0.0
C583 C 0.26712 0.91096 0.53042 0.0
O584 O 0.27793 0.8945 0.54405 0.0
C585 C 0.41503 0.03262 0.62572 0.0
C586 C 0.40392 0.0711 0.64503 0.0
C587 C 0.4225 0.04943 0.64453 0.0
N588 N 0.39271 0.04352 0.61563 0.0
N589 N 0.387 0.06732 0.62709 0.0
C590 C 0.42411 0.00235 0.61849 0.0
H591 H 0.40224 0.98314 0.60733 0.0
H592 H 0.42482 0.98457 0.63109 0.0
H593 H 0.45319 0.017 0.61132 0.0
C594 C 0.26005 0.93338 0.58612 0.0
N595 N 0.29572 0.95978 0.57922 0.0
N596 N 0.31896 0.97645 0.5946 0.0
C597 C 0.2994 0.96006 0.61157 0.0
C598 C 0.26133 0.93276 0.60685 0.0
C599 C 0.22413 0.9136 0.57351 0.0
H600 H 0.22725 0.93121 0.56008 0.0
H601 H 0.2194 0.88479 0.56877 0.0
H602 H 0.19817 0.90878 0.58211 0.0
O603 O 0.32185 0.03296 0.55108 0.0
O604 O 0.35678 0.06302 0.57808 0.0
H605 H 0.3211 3e-05 0.63604 0.0
H606 H 0.29717 0.94961 0.64345 0.0
C607 C 0.3164 0.97088 0.63211 0.0
H608 H 0.34455 0.97153 0.63252 0.0
H609 H 0.36975 0.07924 0.62306 0.0
O610 O 0.27896 0.94714 0.53158 0.0
C611 C 0.33892 0.06299 0.56222 0.0
H612 H 0.31437 0.23906 0.996 0.0
H613 H 0.39583 0.23181 0.03639 0.0
H614 H 0.39805 0.18285 0.01438 0.0
H615 H 0.25941 0.13761 0.98631 0.0
H616 H 0.2496 0.14249 0.96052 0.0
H617 H 0.2576 0.17995 0.97819 0.0
H618 H 0.31311 0.23116 0.95606 0.0
H619 H 0.30534 0.19379 0.93832 0.0
H620 H 0.35288 0.22389 0.94907 0.0
H621 H 0.39067 0.13448 0.98869 0.0
H622 H 0.36938 0.08421 0.96253 0.0
H623 H 0.28841 0.11824 0.93981 0.0
C624 C 0.33308 0.22748 0.99993 0.0
C625 C 0.35539 0.23927 0.01763 0.0
C626 C 0.37884 0.22308 0.02276 0.0
C627 C 0.38035 0.19548 0.01034 0.0
C628 C 0.35783 0.18414 0.99301 0.0
C629 C 0.33428 0.19923 0.98788 0.0
C630 C 0.31055 0.17954 0.96932 0.0
C631 C 0.2667 0.15866 0.97386 0.0
C632 C 0.32111 0.20885 0.95218 0.0
C633 C 0.32416 0.15076 0.96496 0.0
C634 C 0.35195 0.15451 0.97865 0.0
C635 C 0.36881 0.13112 0.97795 0.0
C636 C 0.35639 0.10255 0.96312 0.0
C637 C 0.32687 0.09706 0.94942 0.0
C638 C 0.31104 0.12194 0.95013 0.0
H639 H 0.80123 0.10099 0.01853 0.0
H640 H 0.73237 0.15769 0.01226 0.0
H641 H 0.77151 0.19341 0.98297 0.0
H642 H 0.89339 0.18584 0.00653 0.0
H643 H 0.91138 0.15826 0.99354 0.0
H644 H 0.87693 0.13618 0.01357 0.0
H645 H 0.83107 0.08032 0.98982 0.0
H646 H 0.86516 0.10254 0.96963 0.0
H647 H 0.81557 0.09176 0.96675 0.0
H648 H 0.81832 0.22353 0.95464 0.0
H649 H 0.87243 0.24879 0.93026 0.0
H650 H 0.91279 0.17519 0.95597 0.0
C651 C 0.79487 0.12161 0.01147 0.0
C652 C 0.76409 0.12705 0.0181 0.0
C653 C 0.75586 0.15307 0.00756 0.0
C654 C 0.77792 0.17352 0.99089 0.0
C655 C 0.80818 0.16768 0.98489 0.0
C656 C 0.8169 0.14262 0.99493 0.0
C657 C 0.85161 0.14235 0.98568 0.0
C658 C 0.88532 0.15651 1.00073 0.0
C659 C 0.84015 0.10183 0.97748 0.0
C660 C 0.86115 0.17137 0.96894 0.0
C661 C 0.83544 0.1853 0.96863 0.0
C662 C 0.83851 0.21272 0.95467 0.0
C663 C 0.86907 0.22671 0.94085 0.0
C664 C 0.89602 0.21331 0.94119 0.0
C665 C 0.89198 0.18525 0.95532 0.0
H666 H 0.90036 0.6923 0.01675 0.0
H667 H 0.83801 0.56635 0.01235 0.0
H668 H 0.79652 0.56986 0.9859 0.0
H669 H 0.81567 0.70336 0.01099 0.0
H670 H 0.84161 0.74781 0.99692 0.0
H671 H 0.867 0.73531 0.01512 0.0
H672 H 0.91615 0.7412 0.98797 0.0
H673 H 0.89078 0.75346 0.96966 0.0
H674 H 0.89845 0.71297 0.96537 0.0
H675 H 0.76184 0.587 0.96 0.0
H676 H 0.73564 0.61675 0.93672 0.0
H677 H 0.81795 0.73109 0.95945 0.0
C678 C 0.87738 0.6653 0.01078 0.0
C679 C 0.8719 0.62892 0.01714 0.0
C680 C 0.84269 0.59457 0.00786 0.0
C681 C 0.81888 0.59624 0.99285 0.0
C682 C 0.82463 0.63252 0.98727 0.0
C683 C 0.85306 0.66643 0.99598 0.0
C684 C 0.85305 0.70172 0.98735 0.0
C685 C 0.84377 0.72331 0.00356 0.0
C686 C 0.89192 0.72893 0.97697 0.0
C687 C 0.82017 0.68235 0.97238 0.0
C688 C 0.80432 0.64241 0.97251 0.0
C689 C 0.77394 0.6182 0.9598 0.0
C690 C 0.75932 0.63525 0.94665 0.0
C691 C 0.77498 0.676 0.94641 0.0
C692 C 0.80564 0.69984 0.95945 0.0
H693 H 0.72178 0.92053 0.03825 0.0
H694 H 0.60694 0.87266 0.06426 0.0
H695 H 0.58142 0.81796 0.04023 0.0
H696 H 0.69075 0.89437 0.98685 0.0
H697 H 0.72762 0.88203 0.98106 0.0
H698 H 0.73668 0.91806 0.99987 0.0
H699 H 0.75233 0.87913 0.02564 0.0
H700 H 0.74354 0.84314 0.00688 0.0
H701 H 0.71719 0.82874 0.03013 0.0
H702 H 0.56866 0.76849 0.01376 0.0
H703 H 0.56946 0.72609 0.98711 0.0
H704 H 0.69343 0.80438 0.9792 0.0
C705 C 0.69128 0.89849 0.03875 0.0
C706 C 0.66617 0.90047 0.05301 0.0
C707 C 0.62649 0.87128 0.05343 0.0
C708 C 0.61179 0.8403 0.03983 0.0
C709 C 0.63726 0.83895 0.02597 0.0
C710 C 0.6762 0.86712 0.02536 0.0
C711 C 0.69748 0.85803 0.00935 0.0
C712 C 0.71411 0.89003 0.99333 0.0
C713 C 0.72952 0.85188 0.01855 0.0
C714 C 0.66444 0.82037 1.00107 0.0
C715 C 0.62994 0.81008 0.0108 0.0
C716 C 0.59549 0.77631 0.00599 0.0
C717 C 0.59629 0.75236 0.99084 0.0
C718 C 0.63129 0.76212 0.98064 0.0
C719 C 0.66583 0.79658 0.98601 0.0
H720 H 0.24282 0.90928 0.00392 0.0
H721 H 0.23984 0.81892 0.96648 0.0
H722 H 0.1909 0.76864 0.98892 0.0
H723 H 0.2287 0.85969 0.05213 0.0
H724 H 0.19757 0.8768 0.06181 0.0
H725 H 0.23484 0.90564 0.04389 0.0
H726 H 0.183 0.90663 0.02073 0.0
H727 H 0.14565 0.87793 0.03858 0.0
H728 H 0.14137 0.8613 0.01316 0.0
H729 H 0.14126 0.72865 0.0146 0.0
H730 H 0.09018 0.70096 0.0405 0.0
H731 H 0.12281 0.81706 0.06066 0.0
C732 C 0.23216 0.87885 1.00074 0.0
C733 C 0.24514 0.86754 0.98379 0.0
C734 C 0.23025 0.82774 0.9796 0.0
C735 C 0.20264 0.79916 0.99226 0.0
C736 C 0.19019 0.81108 0.0089 0.0
C737 C 0.20424 0.84995 0.01312 0.0
C738 C 0.18398 0.8548 0.03117 0.0
C739 C 0.21301 0.87546 0.04826 0.0
C740 C 0.1622 0.87644 0.02556 0.0
C741 C 0.15596 0.81262 0.03624 0.0
C742 C 0.16047 0.78793 0.02336 0.0
C743 C 0.13742 0.74767 0.02475 0.0
C744 C 0.10844 0.73223 0.03942 0.0
C745 C 0.10236 0.75698 0.05227 0.0
C746 C 0.12698 0.79762 0.05096 0.0
H747 H 0.24172 0.34258 0.03533 0.0
H748 H 0.14993 0.27751 0.07823 0.0
H749 H 0.10368 0.28614 0.05702 0.0
H750 H 0.21285 0.41024 0.01981 0.0
H751 H 0.22428 0.40907 0.99387 0.0
H752 H 0.25051 0.39965 0.01295 0.0
H753 H 0.23158 0.33341 0.99651 0.0
H754 H 0.20553 0.34274 0.97729 0.0
H755 H 0.18099 0.29889 0.99193 0.0
H756 H 0.06814 0.30369 0.03136 0.0
H757 H 0.04428 0.32299 1.00173 0.0
H758 H 0.15751 0.36975 0.97399 0.0
C759 C 0.21178 0.32964 0.04017 0.0
C760 C 0.19944 0.30951 0.05851 0.0
C761 C 0.16015 0.29365 0.06442 0.0
C762 C 0.13367 0.29824 0.05242 0.0
C763 C 0.14683 0.31816 0.03439 0.0
C764 C 0.18483 0.33306 0.02815 0.0
C765 C 0.19126 0.35162 0.00772 0.0
C766 C 0.22152 0.39523 0.00866 0.0
C767 C 0.20302 0.33039 0.99246 0.0
C768 C 0.15096 0.34507 0.00344 0.0
C769 C 0.12588 0.32622 0.01915 0.0
C770 C 0.08742 0.31817 0.01893 0.0
C771 C 0.07419 0.32934 1.00215 0.0
C772 C 0.09917 0.34768 0.98575 0.0
C773 C 0.13795 0.35557 0.98638 0.0
H774 H 0.01109 0.58075 0.33685 0.0
H775 H 0.07316 0.55118 0.38022 0.0
H776 H 0.06716 0.49845 0.35808 0.0
H777 H 0.94189 0.48207 0.32383 0.0
H778 H 0.93925 0.49227 0.29783 0.0
H779 H 0.95093 0.52946 0.31632 0.0
H780 H 0.01433 0.5755 0.29726 0.0
H781 H 0.00293 0.53835 0.27875 0.0
H782 H 0.04876 0.5597 0.29183 0.0
H783 H 0.05583 0.4505 0.33124 0.0
H784 H 0.03308 0.40427 0.30317 0.0
H785 H 0.97265 0.46014 0.27808 0.0
C786 C 0.02366 0.56327 0.34149 0.0
C787 C 0.04305 0.57001 0.36001 0.0
C788 C 0.0585 0.54636 0.36597 0.0
C789 C 0.05532 0.51656 0.35349 0.0
C790 C 0.03609 0.51055 0.33526 0.0
C791 C 0.02001 0.53281 0.32935 0.0
C792 C 0.9986 0.51843 0.30961 0.0
C793 C 0.95509 0.50474 0.31205 0.0
C794 C 0.01728 0.54988 0.2934 0.0
C795 C 0.00509 0.48455 0.30538 0.0
C796 C 0.02735 0.48107 0.32026 0.0
C797 C 0.03788 0.45255 0.31967 0.0
C798 C 0.02455 0.42624 0.30373 0.0
C799 C 9e-05 0.42787 0.2888 0.0
C800 C 0.99095 0.45799 0.28942 0.0
H801 H 0.57869 0.58059 0.3002 0.0
H802 H 0.5492 0.49519 0.25319 0.0
H803 H 0.49465 0.44643 0.27348 0.0
H804 H 0.55636 0.51134 0.34187 0.0
H805 H 0.53751 0.53518 0.35742 0.0
H806 H 0.57513 0.56291 0.33945 0.0
H807 H 0.53175 0.58764 0.32383 0.0
H808 H 0.49383 0.55964 0.34156 0.0
H809 H 0.48359 0.55295 0.31517 0.0
H810 H 0.44015 0.40909 0.2973 0.0
H811 H 0.39287 0.38273 0.32508 0.0
H812 H 0.46033 0.49011 0.35803 0.0
C813 C 0.56138 0.55132 0.29444 0.0
C814 C 0.56808 0.54152 0.27515 0.0
C815 C 0.54426 0.50325 0.26789 0.0
C816 C 0.51333 0.47538 0.27931 0.0
C817 C 0.50698 0.48611 0.29811 0.0
C818 C 0.53071 0.52289 0.30582 0.0
C819 C 0.51722 0.52681 0.32643 0.0
C820 C 0.54841 0.53451 0.34223 0.0
C821 C 0.50593 0.55865 0.32675 0.0
C822 C 0.48184 0.48673 0.3289 0.0
C823 C 0.47634 0.46386 0.31229 0.0
C824 C 0.44444 0.42647 0.31052 0.0
C825 C 0.41766 0.41186 0.32626 0.0
C826 C 0.42331 0.43439 0.34359 0.0
C827 C 0.45579 0.47225 0.34496 0.0
H828 H 0.47936 0.94474 0.36419 0.0
H829 H 0.58982 0.05272 0.36381 0.0
H830 H 0.56827 0.07541 0.33488 0.0
H831 H 0.46646 0.93383 0.31122 0.0
H832 H 0.41474 0.9154 0.3119 0.0
H833 H 0.43858 0.90752 0.33279 0.0
H834 H 0.41137 0.93983 0.35648 0.0
H835 H 0.38726 0.9476 0.33567 0.0
H836 H 0.42036 0.98808 0.351 0.0
H837 H 0.53603 0.08534 0.30504 0.0
H838 H 0.49269 0.08373 0.27789 0.0
H839 H 0.40213 0.97094 0.29827 0.0
C840 C 0.4988 0.97325 0.35805 0.0
C841 C 0.53601 0.99724 0.36643 0.0
C842 C 0.56084 0.03426 0.35798 0.0
C843 C 0.54899 0.04727 0.3414 0.0
C844 C 0.51211 0.02301 0.3335 0.0
C845 C 0.48716 0.98696 0.34166 0.0
C846 C 0.44878 0.96695 0.33049 0.0
C847 C 0.44174 0.92866 0.32104 0.0
C848 C 0.41494 0.96023 0.34423 0.0
C849 C 0.45624 0.99721 0.31469 0.0
C850 C 0.49309 0.0292 0.31661 0.0
C851 C 0.507 0.0606 0.30348 0.0
C852 C 0.48238 0.05945 0.28812 0.0
C853 C 0.44433 0.0274 0.28624 0.0
C854 C 0.43116 0.99584 0.29959 0.0
H855 H 0.30692 0.23254 0.36714 0.0
H856 H 0.37826 0.20841 0.4071 0.0
H857 H 0.36853 0.15378 0.38536 0.0
H858 H 0.23879 0.1342 0.3527 0.0
H859 H 0.23643 0.14651 0.32703 0.0
H860 H 0.24688 0.18183 0.34644 0.0
H861 H 0.31046 0.23073 0.32831 0.0
H862 H 0.30015 0.19563 0.30881 0.0
H863 H 0.34574 0.21645 0.3221 0.0
H864 H 0.35128 0.10223 0.35904 0.0
H865 H 0.3307 0.05965 0.32916 0.0
H866 H 0.27532 0.12113 0.30507 0.0
C867 C 0.32069 0.21589 0.37125 0.0
C868 C 0.34331 0.22456 0.3888 0.0
C869 C 0.36042 0.20184 0.39384 0.0
C870 C 0.35519 0.17094 0.38155 0.0
C871 C 0.33309 0.16349 0.3642 0.0
C872 C 0.3164 0.18554 0.35897 0.0
C873 C 0.29558 0.1728 0.33907 0.0
C874 C 0.25182 0.15794 0.34147 0.0
C875 C 0.3141 0.20587 0.32366 0.0
C876 C 0.30308 0.14003 0.33389 0.0
C877 C 0.32444 0.13486 0.34869 0.0
C878 C 0.33461 0.10605 0.34737 0.0
C879 C 0.32279 0.08202 0.33045 0.0
C880 C 0.30147 0.08733 0.31507 0.0
C881 C 0.29156 0.11666 0.31676 0.0
H882 H 0.90647 0.17739 0.33245 0.0
H883 H 0.85997 0.24341 0.3037 0.0
H884 H 0.80287 0.21312 0.32573 0.0
H885 H 0.81603 0.08972 0.34202 0.0
H886 H 0.8299 0.08206 0.36649 0.0
H887 H 0.86654 0.10733 0.34773 0.0
H888 H 0.903 0.1661 0.37162 0.0
H889 H 0.86649 0.14097 0.39046 0.0
H890 H 0.87737 0.18859 0.38227 0.0
H891 H 0.74935 0.1737 0.34961 0.0
H892 H 0.70628 0.1332 0.37703 0.0
H893 H 0.7899 0.09786 0.39296 0.0
C894 C 0.88407 0.18516 0.33075 0.0
C895 C 0.8865 0.21096 0.31556 0.0
C896 C 0.85747 0.22172 0.3143 0.0
C897 C 0.82515 0.20511 0.32696 0.0
C898 C 0.82288 0.17876 0.34129 0.0
C899 C 0.85185 0.16939 0.34358 0.0
C900 C 0.84304 0.14176 0.36096 0.0
C901 C 0.83861 0.10291 0.35387 0.0
C902 C 0.87434 0.16049 0.37729 0.0
C903 C 0.80448 0.13687 0.36788 0.0
C904 C 0.79323 0.15817 0.35615 0.0
C905 C 0.75801 0.15727 0.35908 0.0
C906 C 0.73378 0.13425 0.37458 0.0
C907 C 0.74529 0.11315 0.38706 0.0
C908 C 0.78095 0.11435 0.38368 0.0
H909 H 0.91271 0.70821 0.38251 0.0
H910 H 0.87396 0.58559 0.37631 0.0
H911 H 0.82914 0.58029 0.34913 0.0
H912 H 0.81967 0.70182 0.37275 0.0
H913 H 0.84066 0.74655 0.35876 0.0
H914 H 0.86848 0.74018 0.37814 0.0
H915 H 0.92359 0.7554 0.3528 0.0
H916 H 0.89584 0.76159 0.33331 0.0
H917 H 0.91251 0.72722 0.33016 0.0
H918 H 0.78867 0.58841 0.32286 0.0
H919 H 0.75582 0.60936 0.29874 0.0
H920 H 0.82275 0.7276 0.32084 0.0
C921 C 0.8944 0.68026 0.37551 0.0
C922 C 0.89632 0.64717 0.38144 0.0
C923 C 0.87257 0.61111 0.37189 0.0
C924 C 0.84715 0.60789 0.35649 0.0
C925 C 0.84609 0.64112 0.3508 0.0
C926 C 0.8691 0.67664 0.35998 0.0
C927 C 0.86311 0.70803 0.35062 0.0
C928 C 0.84701 0.72514 0.36599 0.0
C929 C 0.90102 0.73994 0.34116 0.0
C930 C 0.83304 0.68458 0.33481 0.0
C931 C 0.82363 0.64605 0.33521 0.0
C932 C 0.79623 0.61862 0.32221 0.0
C933 C 0.7781 0.6309 0.30837 0.0
C934 C 0.78782 0.67038 0.30741 0.0
C935 C 0.81529 0.69738 0.32102 0.0
H936 H 0.68274 0.78752 0.61467 0.0
H937 H 0.56847 0.69306 0.63059 0.0
H938 H 0.56368 0.73394 0.65715 0.0
H939 H 0.71455 0.82076 0.665 0.0
H940 H 0.74119 0.87146 0.65824 0.0
H941 H 0.73519 0.83495 0.64038 0.0
H942 H 0.70482 0.86184 0.61523 0.0
H943 H 0.7106 0.89837 0.63304 0.0
H944 H 0.66331 0.86587 0.62263 0.0
H945 H 0.57035 0.78581 0.68079 0.0
H946 H 0.59005 0.84319 0.70223 0.0
H947 H 0.70175 0.90323 0.67227 0.0
C948 C 0.65673 0.77565 0.62376 0.0
C949 C 0.62576 0.73744 0.62063 0.0
C950 C 0.59236 0.72238 0.63287 0.0
C951 C 0.58939 0.74539 0.64788 0.0
C952 C 0.62028 0.78318 0.65049 0.0
C953 C 0.65349 0.79812 0.63892 0.0
C954 C 0.68286 0.83928 0.64515 0.0
C955 C 0.72068 0.84174 0.65264 0.0
C956 C 0.69085 0.86804 0.62799 0.0
C957 C 0.66096 0.84522 0.66203 0.0
C958 C 0.6248 0.81257 0.66472 0.0
C959 C 0.59886 0.81125 0.67909 0.0
C960 C 0.61047 0.84384 0.69131 0.0
C961 C 0.648 0.87699 0.68942 0.0
C962 C 0.67317 0.87797 0.67426 0.0
H963 H 0.207 0.85512 0.61033 0.0
H964 H 0.24235 0.96855 0.63556 0.0
H965 H 0.1952 0.93778 0.66297 0.0
H966 H 0.10188 0.81126 0.62377 0.0
H967 H 0.097 0.76453 0.62908 0.0
H968 H 0.13125 0.79572 0.61051 0.0
H969 H 0.18647 0.79197 0.62919 0.0
H970 H 0.15257 0.76128 0.64795 0.0
H971 H 0.19548 0.80588 0.65512 0.0
H972 H 0.15125 0.89498 0.68982 0.0
H973 H 0.10592 0.84227 0.71236 0.0
H974 H 0.09487 0.75641 0.66893 0.0
C975 C 0.20399 0.87334 0.62139 0.0
C976 C 0.22859 0.91407 0.62111 0.0
C977 C 0.22412 0.93719 0.63579 0.0
C978 C 0.1974 0.92002 0.65136 0.0
C979 C 0.17471 0.87969 0.65178 0.0
C980 C 0.17698 0.85659 0.63698 0.0
C981 C 0.14977 0.81386 0.64136 0.0
C982 C 0.11809 0.79525 0.62522 0.0
C983 C 0.17244 0.79198 0.64353 0.0
C984 C 0.13283 0.81665 0.66117 0.0
C985 C 0.14779 0.85492 0.66694 0.0
C986 C 0.13872 0.8649 0.68532 0.0
C987 C 0.11328 0.83492 0.69806 0.0
C988 C 0.09703 0.79563 0.69224 0.0
C989 C 0.1067 0.78639 0.67353 0.0
H990 H 0.09431 0.31772 0.62564 0.0
H991 H 0.18471 0.43286 0.60814 0.0
H992 H 0.22971 0.42937 0.6327 0.0
H993 H 0.11588 0.32761 0.67779 0.0
H994 H 0.10577 0.27834 0.68095 0.0
H995 H 0.08134 0.28963 0.66166 0.0
H996 H 0.10607 0.25967 0.63509 0.0
H997 H 0.1305 0.24817 0.6543 0.0
H998 H 0.15749 0.27702 0.63312 0.0
H999 H 0.26359 0.41405 0.66002 0.0
H1000 H 0.28529 0.38713 0.6871 0.0
H1001 H 0.17294 0.28132 0.68657 0.0
C1002 C 0.12367 0.34206 0.62701 0.0
C1003 C 0.1363 0.37567 0.6152 0.0
C1004 C 0.1748 0.40695 0.61714 0.0
C1005 C 0.20038 0.40519 0.63103 0.0
C1006 C 0.18693 0.3718 0.64269 0.0
C1007 C 0.14957 0.34066 0.64071 0.0
C1008 C 0.14229 0.30824 0.65507 0.0
C1009 C 0.10937 0.30052 0.66974 0.0
C1010 C 0.13358 0.27108 0.64371 0.0
C1011 C 0.18129 0.32607 0.66557 0.0
C1012 C 0.20657 0.36281 0.65825 0.0
C1013 C 0.24403 0.38536 0.66589 0.0
C1014 C 0.25595 0.37 0.68141 0.0
C1015 C 0.23051 0.33248 0.68915 0.0
C1016 C 0.19289 0.31013 0.68094 0.0
H1017 H 0.97226 0.46499 0.63888 0.0
H1018 H -0.00027 0.38822 0.67218 0.0
H1019 H 0.01818 0.43208 0.7014 0.0
H1020 H 0.04791 0.55614 0.65918 0.0
H1021 H 0.0176 0.57796 0.66051 0.0
H1022 H 0.00827 0.54165 0.64181 0.0
H1023 H 0.93727 0.50023 0.65433 0.0
H1024 H 0.94628 0.53658 0.67291 0.0
H1025 H 0.92839 0.48686 0.68032 0.0
H1026 H 0.03564 0.4851 0.72646 0.0
H1027 H 0.04293 0.53945 0.74745 0.0
H1028 H 0.99813 0.57871 0.69916 0.0
C1029 C 0.98224 0.45763 0.65236 0.0
C1030 C 0.98483 0.42349 0.65339 0.0
C1031 C 0.99748 0.41426 0.67124 0.0
C1032 C 0.00826 0.43909 0.68781 0.0
C1033 C 0.00563 0.4727 0.68634 0.0
C1034 C 0.99233 0.48171 0.66921 0.0
C1035 C 0.99012 0.51846 0.67202 0.0
C1036 C 0.01762 0.55044 0.65751 0.0
C1037 C 0.94801 0.51001 0.66977 0.0
C1038 C 0.00422 0.52862 0.6934 0.0
C1039 C 0.01364 0.50219 0.70123 0.0
C1040 C 0.02789 0.5057 0.72058 0.0
C1041 C 0.03174 0.53653 0.73241 0.0
C1042 C 0.02057 0.56295 0.72505 0.0
C1043 C 0.00718 0.55917 0.70516 0.0
H1044 H 0.42159 0.45911 0.70421 0.0
H1045 H 0.47535 0.39901 0.73186 0.0
H1046 H 0.52681 0.42503 0.70601 0.0
H1047 H 0.44115 0.44655 0.65304 0.0
H1048 H 0.45182 0.49432 0.64525 0.0
H1049 H 0.41875 0.47046 0.66565 0.0
H1050 H 0.46061 0.52938 0.68866 0.0
H1051 H 0.49352 0.55358 0.66828 0.0
H1052 H 0.51177 0.54613 0.69152 0.0
H1053 H 0.57161 0.45673 0.67702 0.0
H1054 H 0.60991 0.49585 0.6483 0.0
H1055 H 0.52933 0.53887 0.64065 0.0
C1056 C 0.44438 0.45169 0.70477 0.0
C1057 C 0.44493 0.4274 0.71999 0.0
C1058 C 0.47492 0.41801 0.72039 0.0
C1059 C 0.50401 0.43242 0.70572 0.0
C1060 C 0.50273 0.45632 0.69085 0.0
C1061 C 0.47398 0.46629 0.69038 0.0
C1062 C 0.4802 0.49361 0.67317 0.0
C1063 C 0.44594 0.47512 0.65841 0.0
C1064 C 0.48694 0.53301 0.68087 0.0
C1065 C 0.51687 0.49737 0.66402 0.0
C1066 C 0.5291 0.47529 0.67435 0.0
C1067 C 0.56231 0.47415 0.66882 0.0
C1068 C 0.58389 0.49654 0.65246 0.0
C1069 C 0.57245 0.52004 0.64179 0.0
C1070 C 0.53837 0.52031 0.64777 0.0
H1071 H 0.57687 0.01651 0.70536 0.0
H1072 H 0.49188 0.96849 0.75308 0.0
H1073 H 0.44725 0.98225 0.73358 0.0
H1074 H 0.55893 0.09167 0.68961 0.0
H1075 H 0.56353 0.08498 0.66334 0.0
H1076 H 0.58951 0.07281 0.68132 0.0
H1077 H 0.55777 0.00282 0.6671 0.0
H1078 H 0.53195 0.01487 0.64894 0.0
H1079 H 0.50551 0.97402 0.6654 0.0
H1080 H 0.41315 0.00372 0.70945 0.0
H1081 H 0.38854 0.02438 0.68074 0.0
H1082 H 0.49268 0.05199 0.64729 0.0
C1083 C 0.54867 0.00839 0.7116 0.0
C1084 C 0.53802 0.99187 0.73087 0.0
C1085 C 0.50099 0.98203 0.73856 0.0
C1086 C 0.47538 0.98953 0.72755 0.0
C1087 C 0.48693 0.00614 0.70868 0.0
C1088 C 0.52239 0.01479 0.70061 0.0
C1089 C 0.52703 0.03092 0.67965 0.0
C1090 C 0.56182 0.07257 0.67842 0.0
C1091 C 0.53078 0.00405 0.66437 0.0
C1092 C 0.48879 0.03036 0.67728 0.0
C1093 C 0.46631 0.01642 0.69431 0.0
C1094 C 0.43032 0.01435 0.69597 0.0
C1095 C 0.4167 0.02633 0.67968 0.0
C1096 C 0.43872 0.03953 0.6619 0.0
C1097 C 0.47524 0.04167 0.66072 0.0
H1098 H 0.41087 0.37848 0.14257 0.0
H1099 H 0.41023 0.44364 0.09088 0.0
H1100 H 0.46776 0.5029 0.10442 0.0
H1101 H 0.43686 0.45142 0.17865 0.0
H1102 H 0.46808 0.43921 0.19264 0.0
H1103 H 0.42809 0.40228 0.17847 0.0
H1104 H 0.47535 0.38665 0.1593 0.0
H1105 H 0.5155 0.42327 0.17356 0.0
H1106 H 0.5168 0.42519 0.14667 0.0
H1107 H 0.52097 0.55615 0.12598 0.0
H1108 H 0.57092 0.59682 0.15111 0.0
H1109 H 0.53938 0.49417 0.1867 0.0
C1110 C 0.42325 0.4052 0.13402 0.0
C1111 C 0.40647 0.40698 0.1158 0.0
C1112 C 0.42312 0.44204 0.10485 0.0
C1113 C 0.45554 0.47568 0.11248 0.0
C1114 C 0.47109 0.47315 0.13077 0.0
C1115 C 0.45592 0.43851 0.14114 0.0
C1116 C 0.4779 0.44302 0.16031 0.0
C1117 C 0.45113 0.43342 0.17859 0.0
C1118 C 0.49756 0.41806 0.15992 0.0
C1119 C 0.50751 0.48584 0.15939 0.0
C1120 C 0.5029 0.50295 0.14239 0.0
C1121 C 0.52529 0.5429 0.13911 0.0
C1122 C 0.55336 0.56575 0.15346 0.0
C1123 C 0.55913 0.54836 0.17058 0.0
C1124 C 0.53598 0.50797 0.1735 0.0
H1125 H 0.57877 0.97566 0.14145 0.0
H1126 H 0.62057 0.07385 0.10092 0.0
H1127 H 0.57205 0.08925 0.11444 0.0
H1128 H 0.475 0.94831 0.13936 0.0
H1129 H 0.46743 0.93511 0.16539 0.0
H1130 H 0.50313 0.92974 0.15129 0.0
H1131 H 0.55594 0.97239 0.17719 0.0
H1132 H 0.52057 0.9782 0.19126 0.0
H1133 H 0.56438 0.02044 0.18273 0.0
H1134 H 0.52475 0.09855 0.13486 0.0
H1135 H 0.47767 0.09804 0.15906 0.0
H1136 H 0.46432 0.99229 0.18547 0.0
C1137 C 0.57732 1e-05 0.13515 0.0
C1138 C 0.60357 0.02358 0.12012 0.0
C1139 C 0.60073 0.05527 0.11237 0.0
C1140 C 0.57329 0.06429 0.11997 0.0
C1141 C 0.54857 0.04106 0.13512 0.0
C1142 C 0.54989 0.00923 0.14244 0.0
C1143 C 0.52096 0.98986 0.15926 0.0
C1144 C 0.48978 0.94829 0.15347 0.0
C1145 C 0.54172 0.99027 0.17876 0.0
C1146 C 0.50392 0.01643 0.16062 0.0
C1147 C 0.52029 0.04576 0.14654 0.0
C1148 C 0.51123 0.07537 0.14571 0.0
C1149 C 0.48466 0.07495 0.15959 0.0
C1150 C 0.46721 0.04496 0.17399 0.0
C1151 C 0.47676 0.01517 0.17438 0.0
H1152 H 0.95856 0.46677 0.20042 0.0
H1153 H 0.99168 0.40631 0.15785 0.0
H1154 H 0.99692 0.45226 0.13134 0.0
H1155 H 0.90311 0.49186 0.16746 0.0
H1156 H 0.92093 0.53951 0.1781 0.0
H1157 H 0.9178 0.50064 0.19329 0.0
H1158 H 0.99104 0.54247 0.20209 0.0
H1159 H 0.99433 0.58152 0.18701 0.0
H1160 H 0.02637 0.5625 0.18227 0.0
H1161 H 0.99518 0.5034 0.10918 0.0
H1162 H 0.99571 0.56098 0.09434 0.0
H1163 H 0.97064 0.59122 0.15246 0.0
C1164 C 0.9667 0.46317 0.18547 0.0
C1165 C 0.97429 0.43294 0.18099 0.0
C1166 C 0.9857 0.42941 0.16145 0.0
C1167 C 0.98855 0.45519 0.14633 0.0
C1168 C 0.98071 0.48473 0.15119 0.0
C1169 C 0.97076 0.48927 0.17039 0.0
C1170 C 0.96631 0.52482 0.17207 0.0
C1171 C 0.92455 0.51351 0.17808 0.0
C1172 C 0.9963 0.55459 0.18672 0.0
C1173 C 0.97496 0.53941 0.1508 0.0
C1174 C 0.98251 0.51557 0.13885 0.0
C1175 C 0.98976 0.52252 0.11844 0.0
C1176 C 0.98986 0.55507 0.11013 0.0
C1177 C 0.98367 0.5805 0.12235 0.0
C1178 C 0.97602 0.57242 0.14288 0.0
H1179 H 0.48795 0.45008 0.81943 0.0
H1180 H 0.39174 0.44162 0.85401 0.0
H1181 H 0.43764 0.4852 0.87956 0.0
H1182 H 0.55341 0.46078 0.86258 0.0
H1183 H 0.59618 0.49617 0.84943 0.0
H1184 H 0.55568 0.4585 0.83576 0.0
H1185 H 0.55223 0.51078 0.81411 0.0
H1186 H 0.59261 0.54846 0.82767 0.0
H1187 H 0.54739 0.54874 0.82618 0.0
H1188 H 0.49328 0.53518 0.89915 0.0
H1189 H 0.55501 0.59138 0.91036 0.0
H1190 H 0.61586 0.56972 0.86264 0.0
C1191 C 0.47667 0.45649 0.83273 0.0
C1192 C 0.43644 0.44222 0.83498 0.0
C1193 C 0.42256 0.4522 0.85215 0.0
C1194 C 0.44835 0.4767 0.86679 0.0
C1195 C 0.488 0.49118 0.86397 0.0
C1196 C 0.5022 0.48158 0.84736 0.0
C1197 C 0.54624 0.50509 0.84669 0.0
C1198 C 0.56391 0.47854 0.84874 0.0
C1199 C 0.56043 0.52973 0.82754 0.0
C1200 C 0.55435 0.5303 0.86508 0.0
C1201 C 0.52042 0.52117 0.87507 0.0
C1202 C 0.52017 0.54227 0.89165 0.0
C1203 C 0.55542 0.57421 0.8979 0.0
C1204 C 0.59038 0.58504 0.88743 0.0
C1205 C 0.58979 0.56203 0.87113 0.0
H1206 H 0.54947 0.02053 0.82372 0.0
H1207 H 0.5883 0.97684 0.87278 0.0
H1208 H 0.53938 0.97886 0.89476 0.0
H1209 H 0.52649 0.08462 0.85371 0.0
H1210 H 0.48437 0.07333 0.83873 0.0
H1211 H 0.5255 0.07284 0.82764 0.0
H1212 H 0.48036 0.00205 0.81569 0.0
H1213 H 0.43919 0.0022 0.8268 0.0
H1214 H 0.45076 0.96526 0.83366 0.0
H1215 H 0.48173 0.97893 0.91026 0.0
H1216 H 0.42083 0.97845 0.91835 0.0
H1217 H 0.42014 0.02241 0.85908 0.0
C1218 C 0.54829 0.0121 0.83918 0.0
C1219 C 0.57279 0.99857 0.84653 0.0
C1220 C 0.56997 0.98745 0.86683 0.0
C1221 C 0.54229 0.98853 0.87943 0.0
C1222 C 0.51791 0.00107 0.87155 0.0
C1223 C 0.52089 0.01296 0.85193 0.0
C1224 C 0.48959 0.02267 0.8467 0.0
C1225 C 0.50757 0.06594 0.84139 0.0
C1226 C 0.46344 0.99648 0.82972 0.0
C1227 C 0.46785 0.01339 0.86631 0.0
C1228 C 0.48481 0.00128 0.8805 0.0
C1229 C 0.46852 0.9889 0.89937 0.0
C1230 C 0.43383 0.98861 0.90379 0.0
C1231 C 0.41577 0.00058 0.88939 0.0
C1232 C 0.43345 0.0136 0.87052 0.0
H1233 H 0.06048 0.57346 0.84498 0.0
H1234 H 0.94285 0.52515 0.82203 0.0
H1235 H 0.92374 0.46374 0.8396 0.0
H1236 H 0.06733 0.49029 0.83929 0.0
H1237 H 0.09459 0.49629 0.86185 0.0
H1238 H 0.09809 0.53815 0.84954 0.0
H1239 H 0.0774 0.55795 0.88216 0.0
H1240 H 0.07389 0.51608 0.89462 0.0
H1241 H 0.03271 0.52362 0.8943 0.0
H1242 H 0.9195 0.40538 0.85549 0.0
H1243 H 0.92986 0.35414 0.87003 0.0
H1244 H 0.04905 0.44022 0.88432 0.0
C1245 C 0.03052 0.55024 0.84397 0.0
C1246 C 0.00315 0.55417 0.83215 0.0
C1247 C 0.96431 0.52294 0.83106 0.0
C1248 C 0.95312 0.48793 0.84102 0.0
C1249 C 0.98096 0.48475 0.85223 0.0
C1250 C 0.01876 0.51513 0.85396 0.0
C1251 C 0.04355 0.50319 0.86591 0.0
C1252 C 0.0779 0.50721 0.85339 0.0
C1253 C 0.05772 0.52661 0.88541 0.0
C1254 C 0.0141 0.46094 0.86999 0.0
C1255 C 0.97812 0.45104 0.86205 0.0
C1256 C 0.94723 0.41292 0.86218 0.0
C1257 C 0.9534 0.38404 0.87039 0.0
C1258 C 0.99001 0.39351 0.87852 0.0
C1259 C 0.02049 0.43254 0.87869 0.0
H1260 H 0.20465 0.83797 0.53366 0.0
H1261 H 0.26835 0.93101 0.49129 0.0
H1262 H 0.22336 0.89052 0.46432 0.0
H1263 H 0.17953 0.75671 0.50095 0.0
H1264 H 0.13133 0.72776 0.51113 0.0
H1265 H 0.17007 0.76311 0.52659 0.0
H1266 H 0.12916 0.79587 0.53447 0.0
H1267 H 0.09026 0.76054 0.51912 0.0
H1268 H 0.11049 0.81169 0.51421 0.0
H1269 H 0.17201 0.83771 0.44171 0.0
H1270 H 0.11385 0.78125 0.42662 0.0
H1271 H 0.08086 0.72692 0.48483 0.0
C1272 C 0.20926 0.84962 0.51865 0.0
C1273 C 0.24013 0.88726 0.51439 0.0
C1274 C 0.24483 0.90207 0.49474 0.0
C1275 C 0.21958 0.87924 0.47936 0.0
C1276 C 0.18934 0.84206 0.48403 0.0
C1277 C 0.18372 0.8277 0.5033 0.0
C1278 C 0.14754 0.7881 0.50479 0.0
C1279 C 0.15775 0.7571 0.51124 0.0
C1280 C 0.11759 0.78914 0.51898 0.0
C1281 C 0.13373 0.78225 0.48335 0.0
C1282 C 0.15853 0.81326 0.47146 0.0
C1283 C 0.15219 0.81348 0.45094 0.0
C1284 C 0.11931 0.78139 0.44247 0.0
C1285 C 0.09296 0.75027 0.45467 0.0
C1286 C 0.10044 0.75074 0.47528 0.0
H1287 H 0.14462 0.35063 0.51798 0.0
H1288 H 0.10378 0.39352 0.46944 0.0
H1289 H 0.14835 0.38648 0.44626 0.0
H1290 H 0.24417 0.39737 0.50343 0.0
H1291 H 0.25066 0.3573 0.51074 0.0
H1292 H 0.21511 0.36527 0.52325 0.0
H1293 H 0.16154 0.29484 0.51472 0.0
H1294 H 0.19692 0.28672 0.50208 0.0
H1295 H 0.15379 0.27887 0.48908 0.0
H1296 H 0.19941 0.37693 0.42871 0.0
H1297 H 0.25243 0.36526 0.4182 0.0
H1298 H 0.25759 0.32664 0.4782 0.0
C1299 C 0.14498 0.35856 0.50247 0.0
C1300 C 0.12078 0.37272 0.49552 0.0
C1301 C 0.12206 0.38259 0.4751 0.0
C1302 C 0.14724 0.37865 0.46182 0.0
C1303 C 0.17064 0.36451 0.46918 0.0
C1304 C 0.16961 0.35451 0.48903 0.0
C1305 C 0.19782 0.34026 0.49325 0.0
C1306 C 0.22877 0.36663 0.50857 0.0
C1307 C 0.17621 0.29764 0.50019 0.0
C1308 C 0.21528 0.34421 0.47273 0.0
C1309 C 0.19927 0.35823 0.45903 0.0
C1310 C 0.21193 0.36564 0.43927 0.0
C1311 C 0.24206 0.35893 0.43345 0.0
C1312 C 0.25899 0.34477 0.44732 0.0
C1313 C 0.24494 0.33695 0.46713 0.0
H1314 H 0.6027 0.88648 0.45582 0.0
H1315 H 0.72777 0.96273 0.45892 0.0
H1316 H 0.7348 0.91023 0.47424 0.0
H1317 H 0.59279 0.84593 0.50216 0.0
H1318 H 0.5556 0.79719 0.49578 0.0
H1319 H 0.5602 0.83772 0.48159 0.0
H1320 H 0.56753 0.80698 0.44895 0.0
H1321 H 0.56234 0.76594 0.463 0.0
H1322 H 0.60435 0.79317 0.44735 0.0
H1323 H 0.72808 0.85442 0.49348 0.0
H1324 H 0.70823 0.79613 0.51403 0.0
H1325 H 0.58723 0.75476 0.49901 0.0
C1326 C 0.63159 0.89147 0.45903 0.0
C1327 C 0.66475 0.92841 0.45604 0.0
C1328 C 0.70206 0.93449 0.46102 0.0
C1329 C 0.70636 0.90486 0.4697 0.0
C1330 C 0.67305 0.86927 0.47326 0.0
C1331 C 0.63638 0.86215 0.46791 0.0
C1332 C 0.60521 0.82253 0.47525 0.0
C1333 C 0.5768 0.82609 0.48954 0.0
C1334 C 0.58358 0.79556 0.45758 0.0
C1335 C 0.63007 0.80931 0.48616 0.0
C1336 C 0.66912 0.83661 0.48461 0.0
C1337 C 0.69766 0.83242 0.49451 0.0
C1338 C 0.68604 0.79932 0.50626 0.0
C1339 C 0.6462 0.7708 0.50806 0.0
C1340 C 0.61793 0.77582 0.49773 0.0
H1341 H 0.13478 0.83795 0.13634 0.0
H1342 H 0.06729 0.75325 0.18181 0.0
H1343 H 0.11757 0.79249 0.20706 0.0
H1344 H 0.22794 0.85458 0.15416 0.0
H1345 H 0.25314 0.90546 0.14772 0.0
H1346 H 0.21102 0.87156 0.13361 0.0
H1347 H 0.17816 0.91262 0.14081 0.0
H1348 H 0.22019 0.94668 0.15489 0.0
H1349 H 0.17271 0.9238 0.16628 0.0
H1350 H 0.17337 0.84405 0.22762 0.0
H1351 H 0.23392 0.89987 0.2411 0.0
H1352 H 0.26798 0.94575 0.18124 0.0
C1353 C 0.1306 0.82789 0.15165 0.0
C1354 C 0.09715 0.79307 0.15734 0.0
C1355 C 0.09281 0.7801 0.17733 0.0
C1356 C 0.12111 0.80216 0.19171 0.0
C1357 C 0.15391 0.83649 0.18565 0.0
C1358 C 0.15909 0.84889 0.16601 0.0
C1359 C 0.19773 0.88574 0.16313 0.0
C1360 C 0.22401 0.87891 0.14881 0.0
C1361 C 0.19182 0.91918 0.15585 0.0
C1362 C 0.21323 0.89256 0.18426 0.0
C1363 C 0.18734 0.86419 0.19712 0.0
C1364 C 0.19422 0.86601 0.21764 0.0
C1365 C 0.2285 0.89767 0.22517 0.0
C1366 C 0.25568 0.9263 0.2121 0.0
C1367 C 0.24802 0.92351 0.19143 0.0
H1368 H 0.06346 0.27394 0.2255 0.0
H1369 H 0.11509 0.39906 0.22214 0.0
H1370 H 0.17398 0.40421 0.20671 0.0
H1371 H 0.15705 0.27096 0.23226 0.0
H1372 H 0.13962 0.22905 0.21622 0.0
H1373 H 0.1058 0.23582 0.23127 0.0
H1374 H 0.06631 0.23084 0.19949 0.0
H1375 H 0.10017 0.22464 0.18434 0.0
H1376 H 0.09039 0.2634 0.17892 0.0
H1377 H 0.22162 0.39537 0.18711 0.0
H1378 H 0.25559 0.37345 0.16447 0.0
H1379 H 0.17234 0.2533 0.17895 0.0
C1380 C 0.08802 0.30245 0.22235 0.0
C1381 C 0.08544 0.33624 0.22539 0.0
C1382 C 0.11708 0.37302 0.22021 0.0
C1383 C 0.15057 0.37617 0.21147 0.0
C1384 C 0.15172 0.3422 0.20788 0.0
C1385 C 0.1214 0.30599 0.21323 0.0
C1386 C 0.12761 0.27383 0.20513 0.0
C1387 C 0.13284 0.25108 0.22224 0.0
C1388 C 0.09414 0.2466 0.19114 0.0
C1389 C 0.16524 0.29757 0.19373 0.0
C1390 C 0.17898 0.33694 0.19587 0.0
C1391 C 0.2116 0.36466 0.18561 0.0
C1392 C 0.23057 0.35186 0.17268 0.0
C1393 C 0.21671 0.31163 0.16996 0.0
C1394 C 0.18393 0.28423 0.18089 0.0
H1395 H 0.72685 0.78506 0.21616 0.0
H1396 H 0.60226 0.72439 0.22559 0.0
H1397 H 0.59889 0.77998 0.2114 0.0
H1398 H 0.7449 0.88846 0.22296 0.0
H1399 H 0.78018 0.90608 0.20307 0.0
H1400 H 0.77441 0.86641 0.21856 0.0
H1401 H 0.76259 0.82449 0.1869 0.0
H1402 H 0.76746 0.86353 0.17135 0.0
H1403 H 0.72391 0.81658 0.16999 0.0
H1404 H 0.60666 0.83493 0.19069 0.0
H1405 H 0.62558 0.88783 0.1663 0.0
H1406 H 0.74527 0.91294 0.16918 0.0
C1407 C 0.69933 0.7846 0.21621 0.0
C1408 C 0.66494 0.75114 0.22241 0.0
C1409 C 0.62895 0.7503 0.22129 0.0
C1410 C 0.62679 0.78167 0.21322 0.0
C1411 C 0.66089 0.81353 0.20625 0.0
C1412 C 0.69664 0.81554 0.20786 0.0
C1413 C 0.72782 0.85045 0.19668 0.0
C1414 C 0.75865 0.87959 0.21119 0.0
C1415 C 0.74651 0.83799 0.18026 0.0
C1416 C 0.70368 0.86662 0.18782 0.0
C1417 C 0.6653 0.84524 0.1938 0.0
C1418 C 0.63679 0.85247 0.18626 0.0
C1419 C 0.64778 0.8824 0.17229 0.0
C1420 C 0.68693 0.90465 0.1659 0.0
C1421 C 0.71522 0.8968 0.17397 0.0
H1422 H 0.74223 0.03582 0.81626 0.0
H1423 H 0.76174 0.08873 0.75773 0.0
H1424 H 0.82697 0.14117 0.76874 0.0
H1425 H 0.78697 0.12082 0.84496 0.0
H1426 H 0.80842 0.10299 0.86276 0.0
H1427 H 0.76441 0.06942 0.8499 0.0
H1428 H 0.79735 0.03128 0.83711 0.0
H1429 H 0.84149 0.06467 0.85001 0.0
H1430 H 0.84257 0.05661 0.82359 0.0
H1431 H 0.88615 0.19184 0.78805 0.0
H1432 H 0.9379 0.23215 0.81247 0.0
H1433 H 0.88218 0.14124 0.85676 0.0
C1434 C 0.76048 0.05831 0.80573 0.0
C1435 C 0.74723 0.05875 0.78625 0.0
C1436 C 0.77171 0.08816 0.77272 0.0
C1437 C 0.8086 0.11795 0.77887 0.0
C1438 C 0.82066 0.117 0.79837 0.0
C1439 C 0.79759 0.08741 0.81142 0.0
C1440 C 0.81708 0.09272 0.83151 0.0
C1441 C 0.79277 0.09674 0.84826 0.0
C1442 C 0.82511 0.05933 0.8358 0.0
C1443 C 0.8544 0.13055 0.82797 0.0
C1444 C 0.85584 0.1444 0.80885 0.0
C1445 C 0.88581 0.18078 0.80286 0.0
C1446 C 0.91494 0.20347 0.81678 0.0
C1447 C 0.91423 0.18924 0.83622 0.0
C1448 C 0.88387 0.15219 0.84177 0.0
H1449 H 0.78419 0.65177 0.84748 0.0
H1450 H 0.77005 0.72755 0.80583 0.0
H1451 H 0.81984 0.72724 0.78385 0.0
H1452 H 0.88572 0.69479 0.84318 0.0
H1453 H 0.88606 0.64966 0.84479 0.0
H1454 H 0.84769 0.6541 0.85651 0.0
H1455 H 0.79634 0.59418 0.83668 0.0
H1456 H 0.83462 0.58959 0.82486 0.0
H1457 H 0.79927 0.5939 0.80983 0.0
H1458 H 0.87477 0.72222 0.76758 0.0
H1459 H 0.92913 0.7117 0.7582 0.0
H1460 H 0.90514 0.63781 0.8102 0.0
C1461 C 0.79124 0.668 0.83365 0.0
C1462 C 0.77322 0.68967 0.82837 0.0
C1463 C 0.78338 0.7106 0.81015 0.0
C1464 C 0.81162 0.71061 0.79755 0.0
C1465 C 0.8291 0.68921 0.8033 0.0
C1466 C 0.81907 0.66807 0.82085 0.0
C1467 C 0.84285 0.64836 0.82391 0.0
C1468 C 0.86701 0.6626 0.84324 0.0
C1469 C 0.81671 0.60387 0.8238 0.0
C1470 C 0.86845 0.6624 0.80558 0.0
C1471 C 0.86006 0.6858 0.79379 0.0
C1472 C 0.88129 0.70356 0.77657 0.0
C1473 C 0.91213 0.69745 0.77136 0.0
C1474 C 0.92132 0.67375 0.78336 0.0
C1475 C 0.89871 0.65574 0.80053 0.0
H1476 H 0.36079 0.25978 0.81186 0.0
H1477 H 0.29739 0.21062 0.75672 0.0
H1478 H 0.28649 0.14599 0.76676 0.0
H1479 H 0.40665 0.2 0.81554 0.0
H1480 H 0.40129 0.19567 0.84229 0.0
H1481 H 0.40675 0.23841 0.82994 0.0
H1482 H 0.34267 0.22719 0.84616 0.0
H1483 H 0.33688 0.18432 0.85845 0.0
H1484 H 0.29864 0.18121 0.84265 0.0
H1485 H 0.28018 0.08611 0.78365 0.0
H1486 H 0.27775 0.03572 0.80619 0.0
H1487 H 0.34366 0.12432 0.85061 0.0
C1488 C 0.34519 0.23563 0.80169 0.0
C1489 C 0.33023 0.24039 0.78339 0.0
C1490 C 0.30929 0.20775 0.77076 0.0
C1491 C 0.30299 0.17094 0.77633 0.0
C1492 C 0.31767 0.16723 0.79461 0.0
C1493 C 0.33832 0.19872 0.80709 0.0
C1494 C 0.34917 0.18672 0.82643 0.0
C1495 C 0.39361 0.20637 0.82867 0.0
C1496 C 0.33073 0.19537 0.84448 0.0
C1497 C 0.33107 0.14343 0.82298 0.0
C1498 C 0.31333 0.13277 0.80448 0.0
C1499 C 0.29413 0.09418 0.79812 0.0
C1500 C 0.29291 0.06575 0.81105 0.0
C1501 C 0.31051 0.07601 0.83018 0.0
C1502 C 0.32995 0.11547 0.83609 0.0
H1503 H 0.89936 0.27361 0.55825 0.0
H1504 H 0.98702 0.25299 0.53153 0.0
H1505 H 0.93564 0.19558 0.51398 0.0
H1506 H 0.82174 0.1699 0.56317 0.0
H1507 H 0.78396 0.18048 0.55656 0.0
H1508 H 0.82704 0.21653 0.56929 0.0
H1509 H 0.83904 0.26579 0.54101 0.0
H1510 H 0.79631 0.22986 0.5281 0.0
H1511 H 0.8427 0.25311 0.51557 0.0
H1512 H 0.87617 0.14491 0.49679 0.0
H1513 H 0.81205 0.10352 0.48123 0.0
H1514 H 0.76269 0.15762 0.51842 0.0
C1515 C 0.90759 0.25628 0.54919 0.0
C1516 C 0.9471 0.26746 0.54639 0.0
C1517 C 0.95688 0.24479 0.53394 0.0
C1518 C 0.92792 0.2121 0.52395 0.0
C1519 C 0.88932 0.20251 0.52652 0.0
C1520 C 0.87902 0.22377 0.5389 0.0
C1521 C 0.83575 0.20927 0.53765 0.0
C1522 C 0.81596 0.19307 0.55787 0.0
C1523 C 0.82802 0.24142 0.53013 0.0
C1524 C 0.82357 0.17715 0.52233 0.0
C1525 C 0.85487 0.1735 0.51628 0.0
C1526 C 0.85131 0.14711 0.50158 0.0
C1527 C 0.81476 0.12381 0.49279 0.0
C1528 C 0.78227 0.12719 0.49865 0.0
C1529 C 0.78685 0.1541 0.51372 0.0
H1530 H 0.72948 0.61114 0.54891 0.0
H1531 H 0.77506 0.7357 0.54852 0.0
H1532 H 0.83452 0.74543 0.53167 0.0
H1533 H 0.82563 0.61436 0.55437 0.0
H1534 H 0.81068 0.57373 0.53766 0.0
H1535 H 0.77514 0.57704 0.553 0.0
H1536 H 0.73513 0.57145 0.52134 0.0
H1537 H 0.77075 0.56876 0.50589 0.0
H1538 H 0.758 0.60572 0.50126 0.0
H1539 H 0.88423 0.74133 0.51097 0.0
H1540 H 0.92271 0.72381 0.48883 0.0
H1541 H 0.84465 0.60164 0.50177 0.0
C1542 C 0.75273 0.64049 0.546 0.0
C1543 C 0.74808 0.67275 0.55025 0.0
C1544 C 0.77836 0.71069 0.54553 0.0
C1545 C 0.8122 0.71649 0.53597 0.0
C1546 C 0.81529 0.68402 0.53119 0.0
C1547 C 0.78659 0.64675 0.53618 0.0
C1548 C 0.79537 0.61673 0.52746 0.0
C1549 C 0.80212 0.59413 0.54412 0.0
C1550 C 0.76288 0.58906 0.51314 0.0
C1551 C 0.83272 0.6429 0.5163 0.0
C1552 C 0.84391 0.68161 0.51886 0.0
C1553 C 0.87617 0.71115 0.50911 0.0
C1554 C 0.89772 0.70088 0.49647 0.0
C1555 C 0.88681 0.66137 0.4936 0.0
C1556 C 0.85396 0.63212 0.50377 0.0
H1557 H 0.31691 0.07857 0.52615 0.0
H1558 H 0.36292 0.12947 0.58426 0.0
H1559 H 0.36715 0.19085 0.57328 0.0
H1560 H 0.378 0.16213 0.498 0.0
H1561 H 0.3416 0.1544 0.47962 0.0
H1562 H 0.33923 0.11357 0.49256 0.0
H1563 H 0.26912 0.09227 0.50425 0.0
H1564 H 0.27124 0.13302 0.49127 0.0
H1565 H 0.2599 0.12632 0.51754 0.0
H1566 H 0.36926 0.24775 0.55534 0.0
H1567 H 0.3703 0.29596 0.53166 0.0
H1568 H 0.32384 0.20767 0.48529 0.0
C1569 C 0.32735 0.10238 0.53671 0.0
C1570 C 0.33941 0.09909 0.55612 0.0
C1571 C 0.35346 0.13124 0.56932 0.0
C1572 C 0.35588 0.16621 0.56324 0.0
C1573 C 0.34419 0.16857 0.54392 0.0
C1574 C 0.3302 0.1375 0.53085 0.0
C1575 C 0.3214 0.14812 0.51057 0.0
C1576 C 0.34657 0.14434 0.49423 0.0
C1577 C 0.27782 0.12347 0.50562 0.0
C1578 C 0.3331 0.19018 0.51418 0.0
C1579 C 0.34586 0.20138 0.53354 0.0
C1580 C 0.3591 0.23924 0.54018 0.0
C1581 C 0.35959 0.26642 0.52661 0.0
C1582 C 0.34713 0.25563 0.50662 0.0
C1583 C 0.33344 0.21687 0.50047 0.0
H1584 H 0.31083 0.11884 0.21059 0.0
H1585 H 0.40006 0.10987 0.17731 0.0
H1586 H 0.39727 0.15112 0.151 0.0
H1587 H 0.2542 0.11542 0.16877 0.0
H1588 H 0.24249 0.15099 0.17799 0.0
H1589 H 0.25222 0.12214 0.19528 0.0
H1590 H 0.30647 0.18463 0.21206 0.0
H1591 H 0.29647 0.21367 0.19503 0.0
H1592 H 0.34504 0.22109 0.19695 0.0
H1593 H 0.3823 0.18855 0.12708 0.0
H1594 H 0.36165 0.22824 0.10835 0.0
H1595 H 0.28321 0.21624 0.15662 0.0
C1596 C 0.33025 0.12617 0.19795 0.0
C1597 C 0.35554 0.11081 0.19608 0.0
C1598 C 0.38027 0.12095 0.17917 0.0
C1599 C 0.3789 0.14437 0.16403 0.0
C1600 C 0.35287 0.15789 0.16597 0.0
C1601 C 0.32944 0.1499 0.18258 0.0
C1602 C 0.3041 0.16842 0.18062 0.0
C1603 C 0.26068 0.13738 0.18067 0.0
C1604 C 0.3136 0.19876 0.19715 0.0
C1605 C 0.31681 0.18755 0.16025 0.0
C1606 C 0.34475 0.1807 0.1521 0.0
C1607 C 0.36063 0.19445 0.13332 0.0
C1608 C 0.34841 0.21674 0.12272 0.0
C1609 C 0.32069 0.2254 0.13092 0.0
C1610 C 0.30441 0.21015 0.1499 0.0
H1611 H 0.79298 0.14052 0.12345 0.0
H1612 H 0.79043 0.04184 0.15289 0.0
H1613 H 0.83622 0.08548 0.17823 0.0
H1614 H 0.89769 0.21132 0.13431 0.0
H1615 H 0.88852 0.25087 0.13848 0.0
H1616 H 0.85868 0.21262 0.12118 0.0
H1617 H 0.79717 0.20037 0.14059 0.0
H1618 H 0.82681 0.23811 0.15812 0.0
H1619 H 0.79365 0.18967 0.16692 0.0
H1620 H 0.87507 0.13661 0.20223 0.0
H1621 H 0.91211 0.19503 0.22253 0.0
H1622 H 0.89279 0.26354 0.17814 0.0
C1623 C 0.80299 0.12836 0.13491 0.0
C1624 C 0.78814 0.08772 0.13618 0.0
C1625 C 0.80129 0.07278 0.15163 0.0
C1626 C 0.82733 0.09734 0.16611 0.0
C1627 C 0.84021 0.1369 0.16493 0.0
C1628 C 0.82915 0.15263 0.14963 0.0
C1629 C 0.84631 0.19617 0.15265 0.0
C1630 C 0.87448 0.2191 0.13564 0.0
C1631 C 0.81406 0.20668 0.15469 0.0
C1632 C 0.86788 0.20202 0.17227 0.0
C1633 C 0.86374 0.16724 0.17895 0.0
C1634 C 0.87905 0.16418 0.19705 0.0
C1635 C 0.89983 0.19767 0.20858 0.0
C1636 C 0.90548 0.23411 0.20201 0.0
C1637 C 0.88917 0.23623 0.18355 0.0
H1638 H 0.92472 0.70244 0.15724 0.0
H1639 H 0.8645 0.66373 0.10039 0.0
H1640 H 0.80383 0.65226 0.11627 0.0
H1641 H 0.84856 0.6331 0.18703 0.0
H1642 H 0.85611 0.66521 0.2077 0.0
H1643 H 0.8963 0.67398 0.19182 0.0
H1644 H 0.90977 0.74367 0.18449 0.0
H1645 H 0.86997 0.73533 0.2006 0.0
H1646 H 0.87102 0.75055 0.17514 0.0
H1647 H 0.74901 0.63972 0.13819 0.0
H1648 H 0.70304 0.63193 0.16468 0.0
H1649 H 0.79749 0.67922 0.20794 0.0
C1650 C 0.89898 0.69241 0.14806 0.0
C1651 C 0.89942 0.68404 0.12755 0.0
C1652 C 0.86493 0.67032 0.11612 0.0
C1653 C 0.83026 0.66366 0.125 0.0
C1654 C 0.83049 0.67097 0.14532 0.0
C1655 C 0.8639 0.68548 0.15673 0.0
C1656 C 0.85548 0.68951 0.17844 0.0
C1657 C 0.86466 0.66392 0.19204 0.0
C1658 C 0.87789 0.73232 0.18505 0.0
C1659 C 0.81203 0.67444 0.17742 0.0
C1660 C 0.79841 0.66393 0.15814 0.0
C1661 C 0.75932 0.64824 0.15333 0.0
C1662 C 0.7334 0.64379 0.16857 0.0
C1663 C 0.74655 0.6551 0.18847 0.0
C1664 C 0.78647 0.67036 0.19292 0.0
H1665 H 0.66698 0.80347 0.88177 0.0
H1666 H 0.66071 0.72181 0.83672 0.0
H1667 H 0.64021 0.75312 0.81175 0.0
H1668 H 0.58502 0.81313 0.86364 0.0
H1669 H 0.60871 0.8647 0.8683 0.0
H1670 H 0.62016 0.83433 0.88353 0.0
H1671 H 0.69326 0.87735 0.87491 0.0
H1672 H 0.68204 0.90803 0.85987 0.0
H1673 H 0.70801 0.88601 0.8491 0.0
H1674 H 0.62126 0.79232 0.79147 0.0
H1675 H 0.61298 0.84354 0.77562 0.0
H1676 H 0.63476 0.90346 0.83243 0.0
C1677 C 0.6611 0.79223 0.86666 0.0
C1678 C 0.66553 0.76027 0.86118 0.0
C1679 C 0.65797 0.74653 0.84123 0.0
C1680 C 0.64586 0.76382 0.82695 0.0
C1681 C 0.6417 0.79513 0.83274 0.0
C1682 C 0.6496 0.80975 0.85198 0.0
C1683 C 0.64566 0.84578 0.85359 0.0
C1684 C 0.61294 0.83906 0.86813 0.0
C1685 C 0.68456 0.8814 0.85972 0.0
C1686 C 0.63487 0.84918 0.83221 0.0
C1687 C 0.63206 0.81912 0.82063 0.0
C1688 C 0.62354 0.81617 0.80033 0.0
C1689 C 0.61916 0.84555 0.79141 0.0
C1690 C 0.62384 0.87774 0.80267 0.0
C1691 C 0.63067 0.87897 0.82348 0.0
H1692 H 0.12022 0.79715 0.79206 0.0
H1693 H 0.09595 0.69794 0.82933 0.0
H1694 H 0.13917 0.74189 0.85526 0.0
H1695 H 0.22337 0.85693 0.80676 0.0
H1696 H 0.22216 0.9017 0.80659 0.0
H1697 H 0.19069 0.86248 0.79016 0.0
H1698 H 0.13099 0.86388 0.80474 0.0
H1699 H 0.16221 0.90275 0.82138 0.0
H1700 H 0.12239 0.85851 0.83128 0.0
H1701 H 0.18061 0.7949 0.87808 0.0
H1702 H 0.22393 0.85532 0.89589 0.0
H1703 H 0.2242 0.9224 0.84452 0.0
C1704 C 0.12456 0.78473 0.80553 0.0
C1705 C 0.10445 0.74396 0.80861 0.0
C1706 C 0.11072 0.72894 0.82657 0.0
C1707 C 0.13526 0.75369 0.84146 0.0
C1708 C 0.15368 0.79355 0.83825 0.0
C1709 C 0.14921 0.80919 0.8207 0.0
C1710 C 0.17233 0.85338 0.82146 0.0
C1711 C 0.20402 0.86957 0.80528 0.0
C1712 C 0.14536 0.87063 0.81961 0.0
C1713 C 0.18998 0.85983 0.84225 0.0
C1714 C 0.17855 0.82476 0.85158 0.0
C1715 C 0.19008 0.82262 0.87091 0.0
C1716 C 0.2146 0.85728 0.88095 0.0
C1717 C 0.22764 0.89384 0.87168 0.0
C1718 C 0.21482 0.89501 0.85206 0.0
H1719 H 0.08033 0.29118 0.84111 0.0
H1720 H 0.14292 0.35077 0.895 0.0
H1721 H 0.20493 0.36861 0.87844 0.0
H1722 H 0.14357 0.25292 0.82767 0.0
H1723 H 0.14028 0.2594 0.80124 0.0
H1724 H 0.10045 0.25063 0.81741 0.0
H1725 H 0.10368 0.31366 0.8045 0.0
H1726 H 0.14386 0.3229 0.78848 0.0
H1727 H 0.14881 0.35917 0.80627 0.0
H1728 H 0.25991 0.38192 0.85623 0.0
H1729 H 0.30536 0.38539 0.83045 0.0
H1730 H 0.20834 0.3168 0.79048 0.0
C1731 C 0.10704 0.30766 0.8495 0.0
C1732 C 0.10664 0.31963 0.86939 0.0
C1733 C 0.14233 0.34126 0.87978 0.0
C1734 C 0.17778 0.35169 0.87048 0.0
C1735 C 0.17717 0.34018 0.85079 0.0
C1736 C 0.14284 0.3183 0.84045 0.0
C1737 C 0.15065 0.30955 0.81943 0.0
C1738 C 0.13268 0.26551 0.81626 0.0
C1739 C 0.13587 0.32739 0.80375 0.0
C1740 C 0.19477 0.33001 0.81964 0.0
C1741 C 0.20929 0.34763 0.83788 0.0
C1742 C 0.24895 0.36816 0.8419 0.0
C1743 C 0.27456 0.37002 0.82706 0.0
C1744 C 0.26056 0.35137 0.80835 0.0
C1745 C 0.22004 0.33158 0.80454 0.0
H1746 H 0.02581 0.55835 0.45763 0.0
H1747 H 0.94082 0.5726 0.49194 0.0
H1748 H 0.94336 0.53122 0.51843 0.0
H1749 H 0.98951 0.4563 0.47198 0.0
H1750 H 0.03763 0.46237 0.47316 0.0
H1751 H 0.02764 0.49153 0.45621 0.0
H1752 H 0.08402 0.55389 0.47199 0.0
H1753 H 0.09375 0.52496 0.48921 0.0
H1754 H 0.08392 0.56179 0.4985 0.0
H1755 H 0.95815 0.49288 0.54232 0.0
H1756 H 0.97888 0.45287 0.56084 0.0
H1757 H 0.0533 0.46123 0.51125 0.0
C1758 C 0.00721 0.55217 0.47054 0.0
C1759 C 0.98322 0.56894 0.47266 0.0
C1760 C 0.95956 0.5603 0.48991 0.0
C1761 C 0.96083 0.53686 0.50512 0.0
C1762 C 0.98567 0.52192 0.50288 0.0
C1763 C 0.00798 0.52859 0.48594 0.0
C1764 C 0.03244 0.5091 0.48756 0.0
C1765 C 0.02112 0.47797 0.47126 0.0
C1766 C 0.07612 0.53924 0.48677 0.0
C1767 C 0.0206 0.49089 0.50813 0.0
C1768 C 0.99375 0.49891 0.51669 0.0
C1769 C 0.9789 0.48603 0.53573 0.0
C1770 C 0.99104 0.46344 0.54617 0.0
C1771 C 0.01765 0.45369 0.53753 0.0
C1772 C 0.03295 0.46813 0.51832 0.0
H1773 H 0.54244 0.52685 0.5416 0.0
H1774 H 0.58305 0.62536 0.50125 0.0
H1775 H 0.54527 0.58136 0.474 0.0
H1776 H 0.54287 0.45913 0.50589 0.0
H1777 H 0.49865 0.41801 0.51493 0.0
H1778 H 0.52923 0.45691 0.53173 0.0
H1779 H 0.47103 0.46621 0.54102 0.0
H1780 H 0.44021 0.42705 0.52443 0.0
H1781 H 0.44447 0.47414 0.5215 0.0
H1782 H 0.5051 0.52797 0.45083 0.0
H1783 H 0.45844 0.46784 0.43361 0.0
H1784 H 0.44123 0.40276 0.48849 0.0
C1785 C 0.54323 0.53913 0.52706 0.0
C1786 C 0.56594 0.57965 0.52364 0.0
C1787 C 0.56598 0.59452 0.50437 0.0
C1788 C 0.54475 0.56974 0.48868 0.0
C1789 C 0.52328 0.53007 0.49244 0.0
C1790 C 0.5218 0.51474 0.51115 0.0
C1791 C 0.49518 0.47093 0.51107 0.0
C1792 C 0.51785 0.45002 0.51621 0.0
C1793 C 0.46067 0.45888 0.52535 0.0
C1794 C 0.48205 0.46431 0.48942 0.0
C1795 C 0.49904 0.49888 0.47897 0.0
C1796 C 0.49146 0.50064 0.45883 0.0
C1797 C 0.46495 0.46622 0.44916 0.0
C1798 C 0.44604 0.43046 0.45965 0.0
C1799 C 0.4553 0.42953 0.48 0.0
H1800 H 0.53244 0.00011 0.46671 0.0
H1801 H 0.63074 0.0615 0.50698 0.0
H1802 H 0.58632 0.05745 0.5336 0.0
H1803 H 0.47846 0.04585 0.4845 0.0
H1804 H 0.43175 0.00232 0.48193 0.0
H1805 H 0.47134 0.0102 0.46581 0.0
H1806 H 0.4631 0.94395 0.47678 0.0
H1807 H 0.42381 0.9361 0.49314 0.0
H1808 H 0.46533 0.93457 0.50294 0.0
H1809 H 0.53213 0.04516 0.55622 0.0
H1810 H 0.47136 0.03123 0.57283 0.0
H1811 H 0.40716 0.97887 0.51817 0.0
C1812 C 0.54466 0.01296 0.48108 0.0
C1813 C 0.58518 0.03104 0.48471 0.0
C1814 C 0.5999 0.04751 0.50374 0.0
C1815 C 0.57488 0.04522 0.51904 0.0
C1816 C 0.53516 0.02656 0.5151 0.0
C1817 C 0.52005 0.01114 0.49657 0.0
C1818 C 0.47613 0.99324 0.49634 0.0
C1819 C 0.4637 0.01417 0.48125 0.0
C1820 C 0.45591 0.94936 0.49205 0.0
C1821 C 0.46908 0.00107 0.51767 0.0
C1822 C 0.50359 0.02002 0.52821 0.0
C1823 C 0.50489 0.03049 0.54812 0.0
C1824 C 0.47009 0.0223 0.55744 0.0
C1825 C 0.43434 0.004 0.54683 0.0
C1826 C 0.43389 0.99272 0.52673 0.0
loop_
_geom_bond_atom_site_label_1
_geom_bond_atom_site_label_2
_geom_bond_distance
_geom_bond_site_symmetry_2
_ccdc_geom_bond_type
Co0 O3 1.970 . S
Co0 N17 1.989 . S
Co0 O25 1.967 . S
Co0 O32 1.920 . S
Co1 O4 1.966 . S
Co1 N10 2.022 . S
Co1 N18 1.993 . S
Co1 O26 1.941 . S
C2 O3 1.258 . S
C2 O4 1.263 . S
O3 Co0 1.970 . S
O3 C2 1.258 . S
O4 Co1 1.966 . S
O4 C2 1.263 . S
C5 O6 1.235 . S
C5 O32 1.289 . S
O6 C5 1.235 . S
C7 C9 1.400 . S
C7 N10 1.351 . S
C7 C12 1.501 . S
C8 C9 1.387 . S
C8 N11 1.341 . S
C9 C7 1.400 . S
C9 C8 1.387 . S
N10 Co1 2.022 . S
N10 C7 1.351 . S
N10 N11 1.365 . S
N11 C8 1.341 . S
N11 N10 1.365 . S
N11 H31 0.862 . S
C12 C7 1.501 . S
C12 H13 0.961 . S
C12 H14 0.961 . S
C12 H15 0.960 . S
H13 C12 0.961 . S
H14 C12 0.961 . S
H15 C12 0.960 . S
C16 N17 1.342 . S
C16 C20 1.401 . S
C16 C21 1.499 . S
N17 Co0 1.989 . S
N17 C16 1.342 . S
N17 N18 1.388 . S
N18 Co1 1.993 . S
N18 N17 1.388 . S
N18 C19 1.346 . S
C19 N18 1.346 . S
C19 C20 1.396 . S
C19 C29 1.510 . S
C20 C16 1.401 . S
C20 C19 1.396 . S
C21 C16 1.499 . S
C21 H22 0.959 . S
C21 H23 0.960 . S
C21 H24 0.961 . S
H22 C21 0.959 . S
H23 C21 0.960 . S
H24 C21 0.961 . S
O25 Co0 1.967 . S
O25 C33 1.258 . S
O26 Co1 1.941 . S
O26 C33 1.266 . S
H27 C29 0.959 . S
H28 C29 0.961 . S
C29 C19 1.510 . S
C29 H27 0.959 . S
C29 H28 0.961 . S
C29 H30 0.960 . S
H30 C29 0.960 . S
H31 N11 0.862 . S
O32 Co0 1.920 . S
O32 C5 1.289 . S
C33 O25 1.258 . S
C33 O26 1.266 . S
Co34 O37 1.970 1_565 S
Co34 N51 1.989 . S
Co34 O59 1.967 . S
Co34 O66 1.920 . S
Co35 O38 1.966 . S
Co35 N44 2.022 . S
Co35 N52 1.993 1_545 S
Co35 O60 1.941 . S
C36 O37 1.258 . S
C36 O38 1.263 . S
O37 Co34 1.970 1_545 S
O37 C36 1.258 . S
O38 Co35 1.966 . S
O38 C36 1.263 . S
C39 O40 1.235 . S
C39 O66 1.289 . S
O40 C39 1.235 . S
C41 C43 1.400 . S
C41 N44 1.351 . S
C41 C46 1.501 . S
C42 C43 1.387 . S
C42 N45 1.341 . S
C43 C41 1.400 . S
C43 C42 1.387 . S
N44 Co35 2.022 . S
N44 C41 1.351 . S
N44 N45 1.365 . S
N45 C42 1.341 . S
N45 N44 1.365 . S
N45 H65 0.862 . S
C46 C41 1.501 . S
C46 H47 0.961 . S
C46 H48 0.961 . S
C46 H49 0.960 . S
H47 C46 0.961 . S
H48 C46 0.961 . S
H49 C46 0.960 . S
C50 N51 1.342 . S
C50 C54 1.401 . S
C50 C55 1.499 . S
N51 Co34 1.989 . S
N51 C50 1.342 . S
N51 N52 1.388 . S
N52 Co35 1.993 1_565 S
N52 N51 1.388 . S
N52 C53 1.346 . S
C53 N52 1.346 . S
C53 C54 1.396 . S
C53 C63 1.510 . S
C54 C50 1.401 . S
C54 C53 1.396 . S
C55 C50 1.499 . S
C55 H56 0.959 . S
C55 H57 0.960 . S
C55 H58 0.961 . S
H56 C55 0.959 . S
H57 C55 0.960 . S
H58 C55 0.961 . S
O59 Co34 1.967 . S
O59 C67 1.258 1_565 S
O60 Co35 1.941 . S
O60 C67 1.266 . S
H61 C63 0.959 . S
H62 C63 0.961 . S
C63 C53 1.510 . S
C63 H61 0.959 . S
C63 H62 0.961 . S
C63 H64 0.960 1_565 S
H64 C63 0.960 1_545 S
H65 N45 0.862 . S
O66 Co34 1.920 . S
O66 C39 1.289 . S
C67 O59 1.258 1_545 S
C67 O60 1.266 . S
Co68 O71 1.970 1_455 S
Co68 N85 1.989 . S
Co68 O93 1.967 . S
Co68 O100 1.920 . S
Co69 O72 1.966 . S
Co69 N78 2.022 . S
Co69 N86 1.993 1_655 S
Co69 O94 1.941 . S
C70 O71 1.258 . S
C70 O72 1.263 . S
O71 Co68 1.970 1_655 S
O71 C70 1.258 . S
O72 Co69 1.966 . S
O72 C70 1.263 . S
C73 O74 1.235 . S
C73 O100 1.289 . S
O74 C73 1.235 . S
C75 C77 1.400 . S
C75 N78 1.351 . S
C75 C80 1.501 . S
C76 C77 1.387 . S
C76 N79 1.341 . S
C77 C75 1.400 . S
C77 C76 1.387 . S
N78 Co69 2.022 . S
N78 C75 1.351 . S
N78 N79 1.365 . S
N79 C76 1.341 . S
N79 N78 1.365 . S
N79 H99 0.862 . S
C80 C75 1.501 . S
C80 H81 0.961 . S
C80 H82 0.961 . S
C80 H83 0.960 . S
H81 C80 0.961 . S
H82 C80 0.961 . S
H83 C80 0.960 . S
C84 N85 1.342 . S
C84 C88 1.401 . S
C84 C89 1.499 . S
N85 Co68 1.989 . S
N85 C84 1.342 . S
N85 N86 1.388 . S
N86 Co69 1.993 1_455 S
N86 N85 1.388 . S
N86 C87 1.346 . S
C87 N86 1.346 . S
C87 C88 1.396 . S
C87 C97 1.510 . S
C88 C84 1.401 . S
C88 C87 1.396 . S
C89 C84 1.499 . S
C89 H90 0.959 . S
C89 H91 0.960 . S
C89 H92 0.961 . S
H90 C89 0.959 . S
H91 C89 0.960 . S
H92 C89 0.961 . S
O93 Co68 1.967 . S
O93 C101 1.258 1_455 S
O94 Co69 1.941 . S
O94 C101 1.266 . S
H95 C97 0.959 . S
H96 C97 0.961 . S
C97 C87 1.510 . S
C97 H95 0.959 . S
C97 H96 0.961 . S
C97 H98 0.960 1_455 S
H98 C97 0.960 1_655 S
H99 N79 0.862 . S
O100 Co68 1.920 . S
O100 C73 1.289 . S
C101 O93 1.258 1_655 S
C101 O94 1.266 . S
Co102 O105 1.970 . S
Co102 N119 1.989 . S
Co102 O127 1.967 . S
Co102 O134 1.920 . S
Co103 O106 1.966 . S
Co103 N112 2.022 . S
Co103 N120 1.993 . S
Co103 O128 1.941 . S
C104 O105 1.258 . S
C104 O106 1.263 . S
O105 Co102 1.970 . S
O105 C104 1.258 . S
O106 Co103 1.966 . S
O106 C104 1.263 . S
C107 O108 1.235 . S
C107 O134 1.289 . S
O108 C107 1.235 . S
C109 C111 1.400 . S
C109 N112 1.351 . S
C109 C114 1.501 . S
C110 C111 1.387 . S
C110 N113 1.341 . S
C111 C109 1.400 . S
C111 C110 1.387 . S
N112 Co103 2.022 . S
N112 C109 1.351 . S
N112 N113 1.365 . S
N113 C110 1.341 . S
N113 N112 1.365 . S
N113 H133 0.862 . S
C114 C109 1.501 . S
C114 H115 0.961 . S
C114 H116 0.961 . S
C114 H117 0.960 . S
H115 C114 0.961 . S
H116 C114 0.961 . S
H117 C114 0.960 . S
C118 N119 1.342 . S
C118 C122 1.401 . S
C118 C123 1.499 . S
N119 Co102 1.989 . S
N119 C118 1.342 . S
N119 N120 1.388 . S
N120 Co103 1.993 . S
N120 N119 1.388 . S
N120 C121 1.346 . S
C121 N120 1.346 . S
C121 C122 1.396 . S
C121 C131 1.510 . S
C122 C118 1.401 . S
C122 C121 1.396 . S
C123 C118 1.499 . S
C123 H124 0.959 . S
C123 H125 0.960 . S
C123 H126 0.961 . S
H124 C123 0.959 . S
H125 C123 0.960 . S
H126 C123 0.961 . S
O127 Co102 1.967 . S
O127 C135 1.258 . S
O128 Co103 1.941 . S
O128 C135 1.266 . S
H129 C131 0.959 . S
H130 C131 0.961 . S
C131 C121 1.510 . S
C131 H129 0.959 . S
C131 H130 0.961 . S
C131 H132 0.960 . S
H132 C131 0.960 . S
H133 N113 0.862 . S
O134 Co102 1.920 . S
O134 C107 1.289 . S
C135 O127 1.258 . S
C135 O128 1.266 . S
Co136 O139 1.970 1_545 S
Co136 N153 1.989 . S
Co136 O161 1.967 . S
Co136 O168 1.920 . S
Co137 O140 1.966 . S
Co137 N146 2.022 . S
Co137 N154 1.993 1_565 S
Co137 O162 1.941 . S
C138 O139 1.258 . S
C138 O140 1.263 . S
O139 Co136 1.970 1_565 S
O139 C138 1.258 . S
O140 Co137 1.966 . S
O140 C138 1.263 . S
C141 O142 1.235 . S
C141 O168 1.289 . S
O142 C141 1.235 . S
C143 C145 1.400 . S
C143 N146 1.351 . S
C143 C148 1.501 . S
C144 C145 1.387 . S
C144 N147 1.341 . S
C145 C143 1.400 . S
C145 C144 1.387 . S
N146 Co137 2.022 . S
N146 C143 1.351 . S
N146 N147 1.365 . S
N147 C144 1.341 . S
N147 N146 1.365 . S
N147 H167 0.862 . S
C148 C143 1.501 . S
C148 H149 0.961 . S
C148 H150 0.961 . S
C148 H151 0.960 . S
H149 C148 0.961 . S
H150 C148 0.961 . S
H151 C148 0.960 . S
C152 N153 1.342 . S
C152 C156 1.401 . S
C152 C157 1.499 . S
N153 Co136 1.989 . S
N153 C152 1.342 . S
N153 N154 1.388 . S
N154 Co137 1.993 1_545 S
N154 N153 1.388 . S
N154 C155 1.346 . S
C155 N154 1.346 . S
C155 C156 1.396 . S
C155 C165 1.510 . S
C156 C152 1.401 . S
C156 C155 1.396 . S
C157 C152 1.499 . S
C157 H158 0.959 . S
C157 H159 0.960 . S
C157 H160 0.961 . S
H158 C157 0.959 . S
H159 C157 0.960 . S
H160 C157 0.961 . S
O161 Co136 1.967 . S
O161 C169 1.258 1_545 S
O162 Co137 1.941 . S
O162 C169 1.266 . S
H163 C165 0.959 . S
H164 C165 0.961 . S
C165 C155 1.510 . S
C165 H163 0.959 . S
C165 H164 0.961 . S
C165 H166 0.960 1_545 S
H166 C165 0.960 1_565 S
H167 N147 0.862 . S
O168 Co136 1.920 . S
O168 C141 1.289 . S
C169 O161 1.258 1_565 S
C169 O162 1.266 . S
Co170 O173 1.970 1_655 S
Co170 N187 1.989 . S
Co170 O195 1.967 . S
Co170 O202 1.920 . S
Co171 O174 1.966 . S
Co171 N180 2.022 . S
Co171 N188 1.993 1_455 S
Co171 O196 1.941 . S
C172 O173 1.258 . S
C172 O174 1.263 . S
O173 Co170 1.970 1_455 S
O173 C172 1.258 . S
O174 Co171 1.966 . S
O174 C172 1.263 . S
C175 O176 1.235 . S
C175 O202 1.289 . S
O176 C175 1.235 . S
C177 C179 1.400 . S
C177 N180 1.351 . S
C177 C182 1.501 . S
C178 C179 1.387 . S
C178 N181 1.341 . S
C179 C177 1.400 . S
C179 C178 1.387 . S
N180 Co171 2.022 . S
N180 C177 1.351 . S
N180 N181 1.365 . S
N181 C178 1.341 . S
N181 N180 1.365 . S
N181 H201 0.862 . S
C182 C177 1.501 . S
C182 H183 0.961 . S
C182 H184 0.961 . S
C182 H185 0.960 . S
H183 C182 0.961 . S
H184 C182 0.961 . S
H185 C182 0.960 . S
C186 N187 1.342 . S
C186 C190 1.401 . S
C186 C191 1.499 . S
N187 Co170 1.989 . S
N187 C186 1.342 . S
N187 N188 1.388 . S
N188 Co171 1.993 1_655 S
N188 N187 1.388 . S
N188 C189 1.346 . S
C189 N188 1.346 . S
C189 C190 1.396 . S
C189 C199 1.510 . S
C190 C186 1.401 . S
C190 C189 1.396 . S
C191 C186 1.499 . S
C191 H192 0.959 . S
C191 H193 0.960 . S
C191 H194 0.961 . S
H192 C191 0.959 . S
H193 C191 0.960 . S
H194 C191 0.961 . S
O195 Co170 1.967 . S
O195 C203 1.258 1_655 S
O196 Co171 1.941 . S
O196 C203 1.266 . S
H197 C199 0.959 . S
H198 C199 0.961 . S
C199 C189 1.510 . S
C199 H197 0.959 . S
C199 H198 0.961 . S
C199 H200 0.960 1_655 S
H200 C199 0.960 1_455 S
H201 N181 0.862 . S
O202 Co170 1.920 . S
O202 C175 1.289 . S
C203 O195 1.258 1_455 S
C203 O196 1.266 . S
Co204 O207 1.970 . S
Co204 N221 1.989 . S
Co204 O229 1.967 1_655 S
Co204 O236 1.920 . S
Co205 O208 1.966 . S
Co205 N214 2.022 . S
Co205 N222 1.993 1_455 S
Co205 O230 1.941 . S
C206 O207 1.258 . S
C206 O208 1.263 1_655 S
O207 Co204 1.970 . S
O207 C206 1.258 . S
O208 Co205 1.966 . S
O208 C206 1.263 1_455 S
C209 O210 1.235 . S
C209 O236 1.289 . S
O210 C209 1.235 . S
C211 C213 1.400 . S
C211 N214 1.351 . S
C211 C216 1.501 . S
C212 C213 1.387 . S
C212 N215 1.341 . S
C213 C211 1.400 . S
C213 C212 1.387 . S
N214 Co205 2.022 . S
N214 C211 1.351 . S
N214 N215 1.365 . S
N215 C212 1.341 . S
N215 N214 1.365 . S
N215 H235 0.862 . S
C216 C211 1.501 . S
C216 H217 0.961 . S
C216 H218 0.961 1_455 S
C216 H219 0.960 . S
H217 C216 0.961 . S
H218 C216 0.961 1_655 S
H219 C216 0.960 . S
C220 N221 1.342 . S
C220 C224 1.401 . S
C220 C225 1.499 . S
N221 Co204 1.989 . S
N221 C220 1.342 . S
N221 N222 1.388 . S
N222 Co205 1.993 1_655 S
N222 N221 1.388 . S
N222 C223 1.346 . S
C223 N222 1.346 . S
C223 C224 1.396 . S
C223 C233 1.510 . S
C224 C220 1.401 . S
C224 C223 1.396 . S
C225 C220 1.499 . S
C225 H226 0.959 . S
C225 H227 0.960 . S
C225 H228 0.961 . S
H226 C225 0.959 . S
H227 C225 0.960 . S
H228 C225 0.961 . S
O229 Co204 1.967 1_455 S
O229 C237 1.258 . S
O230 Co205 1.941 . S
O230 C237 1.266 . S
H231 C233 0.959 . S
H232 C233 0.961 . S
C233 C223 1.510 . S
C233 H231 0.959 . S
C233 H232 0.961 . S
C233 H234 0.960 . S
H234 C233 0.960 . S
H235 N215 0.862 . S
O236 Co204 1.920 . S
O236 C209 1.289 . S
C237 O229 1.258 . S
C237 O230 1.266 . S
Co238 O241 1.970 . S
Co238 N255 1.989 . S
Co238 O263 1.967 . S
Co238 O270 1.920 . S
Co239 O242 1.966 . S
Co239 N248 2.022 . S
Co239 N256 1.993 . S
Co239 O264 1.941 . S
C240 O241 1.258 . S
C240 O242 1.263 . S
O241 Co238 1.970 . S
O241 C240 1.258 . S
O242 Co239 1.966 . S
O242 C240 1.263 . S
C243 O244 1.235 . S
C243 O270 1.289 . S
O244 C243 1.235 . S
C245 C247 1.400 . S
C245 N248 1.351 . S
C245 C250 1.501 . S
C246 C247 1.387 . S
C246 N249 1.341 . S
C247 C245 1.400 . S
C247 C246 1.387 . S
N248 Co239 2.022 . S
N248 C245 1.351 . S
N248 N249 1.365 . S
N249 C246 1.341 . S
N249 N248 1.365 . S
N249 H269 0.862 . S
C250 C245 1.501 . S
C250 H251 0.961 . S
C250 H252 0.961 . S
C250 H253 0.960 . S
H251 C250 0.961 . S
H252 C250 0.961 . S
H253 C250 0.960 . S
C254 N255 1.342 . S
C254 C258 1.401 . S
C254 C259 1.499 . S
N255 Co238 1.989 . S
N255 C254 1.342 . S
N255 N256 1.388 . S
N256 Co239 1.993 . S
N256 N255 1.388 . S
N256 C257 1.346 . S
C257 N256 1.346 . S
C257 C258 1.396 . S
C257 C267 1.510 . S
C258 C254 1.401 . S
C258 C257 1.396 . S
C259 C254 1.499 . S
C259 H260 0.959 . S
C259 H261 0.960 . S
C259 H262 0.961 . S
H260 C259 0.959 . S
H261 C259 0.960 . S
H262 C259 0.961 . S
O263 Co238 1.967 . S
O263 C271 1.258 . S
O264 Co239 1.941 . S
O264 C271 1.266 . S
H265 C267 0.959 . S
H266 C267 0.961 . S
C267 C257 1.510 . S
C267 H265 0.959 . S
C267 H266 0.961 . S
C267 H268 0.960 . S
H268 C267 0.960 . S
H269 N249 0.862 . S
O270 Co238 1.920 . S
O270 C243 1.289 . S
C271 O263 1.258 . S
C271 O264 1.266 . S
Co272 O275 1.970 . S
Co272 N289 1.989 . S
Co272 O297 1.967 1_545 S
Co272 O304 1.920 . S
Co273 O276 1.966 . S
Co273 N282 2.022 . S
Co273 N290 1.993 1_565 S
Co273 O298 1.941 . S
C274 O275 1.258 . S
C274 O276 1.263 1_545 S
O275 Co272 1.970 . S
O275 C274 1.258 . S
O276 Co273 1.966 . S
O276 C274 1.263 1_565 S
C277 O278 1.235 . S
C277 O304 1.289 . S
O278 C277 1.235 . S
C279 C281 1.400 . S
C279 N282 1.351 . S
C279 C284 1.501 . S
C280 C281 1.387 . S
C280 N283 1.341 . S
C281 C279 1.400 . S
C281 C280 1.387 . S
N282 Co273 2.022 . S
N282 C279 1.351 . S
N282 N283 1.365 . S
N283 C280 1.341 . S
N283 N282 1.365 . S
N283 H303 0.862 . S
C284 C279 1.501 . S
C284 H285 0.961 . S
C284 H286 0.961 1_565 S
C284 H287 0.960 . S
H285 C284 0.961 . S
H286 C284 0.961 1_545 S
H287 C284 0.960 . S
C288 N289 1.342 . S
C288 C292 1.401 . S
C288 C293 1.499 . S
N289 Co272 1.989 . S
N289 C288 1.342 . S
N289 N290 1.388 . S
N290 Co273 1.993 1_545 S
N290 N289 1.388 . S
N290 C291 1.346 . S
C291 N290 1.346 . S
C291 C292 1.396 . S
C291 C301 1.510 . S
C292 C288 1.401 . S
C292 C291 1.396 . S
C293 C288 1.499 . S
C293 H294 0.959 . S
C293 H295 0.960 . S
C293 H296 0.961 . S
H294 C293 0.959 . S
H295 C293 0.960 . S
H296 C293 0.961 . S
O297 Co272 1.967 1_565 S
O297 C305 1.258 . S
O298 Co273 1.941 . S
O298 C305 1.266 . S
H299 C301 0.959 . S
H300 C301 0.961 . S
C301 C291 1.510 . S
C301 H299 0.959 . S
C301 H300 0.961 . S
C301 H302 0.960 . S
H302 C301 0.960 . S
H303 N283 0.862 . S
O304 Co272 1.920 . S
O304 C277 1.289 . S
C305 O297 1.258 . S
C305 O298 1.266 . S
Co306 O309 1.970 1_565 S
Co306 N323 1.992 1_565 S
Co306 O331 1.967 . S
Co306 O338 1.920 . S
Co307 O310 1.966 . S
Co307 N316 2.022 . S
Co307 N324 1.993 . S
Co307 O332 1.941 1_545 S
C308 O309 1.258 . S
C308 O310 1.263 . S
O309 Co306 1.970 1_545 S
O309 C308 1.258 . S
O310 Co307 1.966 . S
O310 C308 1.263 . S
C311 O312 1.250 . S
C311 O338 1.286 1_545 S
O312 C311 1.250 . S
C313 C315 1.400 . S
C313 N316 1.351 . S
C313 C318 1.501 . S
C314 C315 1.387 . S
C314 N317 1.341 . S
C315 C313 1.400 . S
C315 C314 1.387 . S
N316 Co307 2.022 . S
N316 C313 1.351 . S
N316 N317 1.365 . S
N317 C314 1.341 . S
N317 N316 1.365 . S
N317 H337 0.862 1_545 S
C318 C313 1.501 . S
C318 H319 0.961 . S
C318 H320 0.961 . S
C318 H321 0.960 . S
H319 C318 0.961 . S
H320 C318 0.961 . S
H321 C318 0.960 . S
C322 N323 1.326 1_565 S
C322 C326 1.401 . S
C322 C327 1.499 . S
N323 Co306 1.992 1_545 S
N323 C322 1.326 1_545 S
N323 N324 1.403 . S
N324 Co307 1.993 . S
N324 N323 1.403 . S
N324 C325 1.346 . S
C325 N324 1.346 . S
C325 C326 1.398 1_545 S
C325 C335 1.510 . S
C326 C322 1.401 . S
C326 C325 1.398 1_565 S
C327 C322 1.499 . S
C327 H328 0.959 . S
C327 H329 0.960 . S
C327 H330 0.961 . S
H328 C327 0.959 . S
H329 C327 0.960 . S
H330 C327 0.961 . S
O331 Co306 1.967 . S
O331 C339 1.258 . S
O332 Co307 1.941 1_565 S
O332 C339 1.266 . S
H333 C335 0.959 . S
H334 C335 0.961 . S
C335 C325 1.510 . S
C335 H333 0.959 . S
C335 H334 0.961 . S
C335 H336 0.960 . S
H336 C335 0.960 . S
H337 N317 0.862 1_565 S
O338 Co306 1.920 . S
O338 C311 1.286 1_565 S
C339 O331 1.258 . S
C339 O332 1.266 . S
Co340 O343 1.970 1_455 S
Co340 N357 1.989 1_455 S
Co340 O365 1.967 . S
Co340 O372 1.920 . S
Co341 O344 1.966 . S
Co341 N350 2.022 . S
Co341 N358 1.993 . S
Co341 O366 1.941 1_655 S
C342 O343 1.258 . S
C342 O344 1.263 . S
O343 Co340 1.970 1_655 S
O343 C342 1.258 . S
O344 Co341 1.966 . S
O344 C342 1.263 . S
C345 O346 1.235 . S
C345 O372 1.289 1_655 S
O346 C345 1.235 . S
C347 C349 1.400 . S
C347 N350 1.351 . S
C347 C352 1.501 . S
C348 C349 1.387 . S
C348 N351 1.341 . S
C349 C347 1.400 . S
C349 C348 1.387 . S
N350 Co341 2.022 . S
N350 C347 1.351 . S
N350 N351 1.365 . S
N351 C348 1.341 . S
N351 N350 1.365 . S
N351 H371 0.862 1_655 S
C352 C347 1.501 . S
C352 H353 0.961 . S
C352 H354 0.961 . S
C352 H355 0.960 . S
H353 C352 0.961 . S
H354 C352 0.961 . S
H355 C352 0.960 . S
C356 N357 1.342 1_455 S
C356 C360 1.401 1_455 S
C356 C361 1.499 . S
N357 Co340 1.989 1_655 S
N357 C356 1.342 1_655 S
N357 N358 1.388 . S
N358 Co341 1.993 . S
N358 N357 1.388 . S
N358 C359 1.346 . S
C359 N358 1.346 . S
C359 C360 1.394 . S
C359 C369 1.510 . S
C360 C356 1.401 1_655 S
C360 C359 1.394 . S
C361 C356 1.499 . S
C361 H362 0.959 . S
C361 H363 0.960 . S
C361 H364 0.961 . S
H362 C361 0.959 . S
H363 C361 0.960 . S
H364 C361 0.961 . S
O365 Co340 1.967 . S
O365 C373 1.258 . S
O366 Co341 1.941 1_455 S
O366 C373 1.266 . S
H367 C369 0.959 . S
H368 C369 0.961 . S
C369 C359 1.510 . S
C369 H367 0.959 . S
C369 H368 0.961 . S
C369 H370 0.960 . S
H370 C369 0.960 . S
H371 N351 0.862 1_455 S
O372 Co340 1.920 . S
O372 C345 1.289 1_455 S
C373 O365 1.258 . S
C373 O366 1.266 . S
Co374 O377 1.970 . S
Co374 N391 1.989 . S
Co374 O399 1.967 . S
Co374 O406 1.920 . S
Co375 O378 1.966 . S
Co375 N384 2.022 . S
Co375 N392 1.993 . S
Co375 O400 1.941 . S
C376 O377 1.258 . S
C376 O378 1.263 . S
O377 Co374 1.970 . S
O377 C376 1.258 . S
O378 Co375 1.966 . S
O378 C376 1.263 . S
C379 O380 1.235 . S
C379 O406 1.289 . S
O380 C379 1.235 . S
C381 C383 1.400 . S
C381 N384 1.351 . S
C381 C386 1.501 . S
C382 C383 1.387 . S
C382 N385 1.341 . S
C383 C381 1.400 . S
C383 C382 1.387 . S
N384 Co375 2.022 . S
N384 C381 1.351 . S
N384 N385 1.365 . S
N385 C382 1.341 . S
N385 N384 1.365 . S
N385 H405 0.862 . S
C386 C381 1.501 . S
C386 H387 0.961 . S
C386 H388 0.961 . S
C386 H389 0.960 . S
H387 C386 0.961 . S
H388 C386 0.961 . S
H389 C386 0.960 . S
C390 N391 1.342 . S
C390 C394 1.401 . S
C390 C395 1.499 . S
N391 Co374 1.989 . S
N391 C390 1.342 . S
N391 N392 1.388 . S
N392 Co375 1.993 . S
N392 N391 1.388 . S
N392 C393 1.346 . S
C393 N392 1.346 . S
C393 C394 1.396 . S
C393 C403 1.510 . S
C394 C390 1.401 . S
C394 C393 1.396 . S
C395 C390 1.499 . S
C395 H396 0.959 . S
C395 H397 0.960 . S
C395 H398 0.961 . S
H396 C395 0.959 . S
H397 C395 0.960 . S
H398 C395 0.961 . S
O399 Co374 1.967 . S
O399 C407 1.258 . S
O400 Co375 1.941 . S
O400 C407 1.266 . S
H401 C403 0.959 . S
H402 C403 0.961 . S
C403 C393 1.510 . S
C403 H401 0.959 . S
C403 H402 0.961 . S
C403 H404 0.960 . S
H404 C403 0.960 . S
H405 N385 0.862 . S
O406 Co374 1.920 . S
O406 C379 1.289 . S
C407 O399 1.258 . S
C407 O400 1.266 . S
Co408 O411 1.970 1_545 S
Co408 N425 1.992 1_545 S
Co408 O433 1.967 . S
Co408 O440 1.920 . S
Co409 O412 1.966 . S
Co409 N418 2.022 . S
Co409 N426 1.993 . S
Co409 O434 1.941 1_565 S
C410 O411 1.258 . S
C410 O412 1.263 . S
O411 Co408 1.970 1_565 S
O411 C410 1.258 . S
O412 Co409 1.966 . S
O412 C410 1.263 . S
C413 O414 1.250 . S
C413 O440 1.286 1_565 S
O414 C413 1.250 . S
C415 C417 1.400 . S
C415 N418 1.351 . S
C415 C420 1.501 . S
C416 C417 1.387 . S
C416 N419 1.341 . S
C417 C415 1.400 . S
C417 C416 1.387 . S
N418 Co409 2.022 . S
N418 C415 1.351 . S
N418 N419 1.365 . S
N419 C416 1.341 . S
N419 N418 1.365 . S
N419 H439 0.862 1_565 S
C420 C415 1.501 . S
C420 H421 0.961 . S
C420 H422 0.961 . S
C420 H423 0.960 . S
H421 C420 0.961 . S
H422 C420 0.961 . S
H423 C420 0.960 . S
C424 N425 1.326 1_545 S
C424 C428 1.401 . S
C424 C429 1.499 . S
N425 Co408 1.992 1_565 S
N425 C424 1.326 1_565 S
N425 N426 1.403 . S
N426 Co409 1.993 . S
N426 N425 1.403 . S
N426 C427 1.346 . S
C427 N426 1.346 . S
C427 C428 1.398 1_565 S
C427 C437 1.510 . S
C428 C424 1.401 . S
C428 C427 1.398 1_545 S
C429 C424 1.499 . S
C429 H430 0.959 . S
C429 H431 0.960 . S
C429 H432 0.961 . S
H430 C429 0.959 . S
H431 C429 0.960 . S
H432 C429 0.961 . S
O433 Co408 1.967 . S
O433 C441 1.258 . S
O434 Co409 1.941 1_545 S
O434 C441 1.266 . S
H435 C437 0.959 . S
H436 C437 0.961 . S
C437 C427 1.510 . S
C437 H435 0.959 . S
C437 H436 0.961 . S
C437 H438 0.960 . S
H438 C437 0.960 . S
H439 N419 0.862 1_545 S
O440 Co408 1.920 . S
O440 C413 1.286 1_545 S
C441 O433 1.258 . S
C441 O434 1.266 . S
Co442 O445 1.970 1_655 S
Co442 N459 1.989 1_655 S
Co442 O467 1.967 . S
Co442 O474 1.920 . S
Co443 O446 1.966 . S
Co443 N452 2.022 . S
Co443 N460 1.993 . S
Co443 O468 1.941 1_455 S
C444 O445 1.258 . S
C444 O446 1.263 . S
O445 Co442 1.970 1_455 S
O445 C444 1.258 . S
O446 Co443 1.966 . S
O446 C444 1.263 . S
C447 O448 1.235 . S
C447 O474 1.289 1_455 S
O448 C447 1.235 . S
C449 C451 1.400 . S
C449 N452 1.351 . S
C449 C454 1.501 . S
C450 C451 1.387 . S
C450 N453 1.341 . S
C451 C449 1.400 . S
C451 C450 1.387 . S
N452 Co443 2.022 . S
N452 C449 1.351 . S
N452 N453 1.365 . S
N453 C450 1.341 . S
N453 N452 1.365 . S
N453 H473 0.862 1_455 S
C454 C449 1.501 . S
C454 H455 0.961 . S
C454 H456 0.961 . S
C454 H457 0.960 . S
H455 C454 0.961 . S
H456 C454 0.961 . S
H457 C454 0.960 . S
C458 N459 1.342 1_655 S
C458 C462 1.401 1_655 S
C458 C463 1.499 . S
N459 Co442 1.989 1_455 S
N459 C458 1.342 1_455 S
N459 N460 1.388 . S
N460 Co443 1.993 . S
N460 N459 1.388 . S
N460 C461 1.346 . S
C461 N460 1.346 . S
C461 C462 1.394 . S
C461 C471 1.510 . S
C462 C458 1.401 1_455 S
C462 C461 1.394 . S
C463 C458 1.499 . S
C463 H464 0.959 . S
C463 H465 0.960 . S
C463 H466 0.961 . S
H464 C463 0.959 . S
H465 C463 0.960 . S
H466 C463 0.961 . S
O467 Co442 1.967 . S
O467 C475 1.258 . S
O468 Co443 1.941 1_655 S
O468 C475 1.266 . S
H469 C471 0.959 . S
H470 C471 0.961 . S
C471 C461 1.510 . S
C471 H469 0.959 . S
C471 H470 0.961 . S
C471 H472 0.960 . S
H472 C471 0.960 . S
H473 N453 0.862 1_655 S
O474 Co442 1.920 . S
O474 C447 1.289 1_655 S
C475 O467 1.258 . S
C475 O468 1.266 . S
Co476 O479 1.970 . S
Co476 N493 1.989 . S
Co476 O501 1.967 . S
Co476 O508 1.920 . S
Co477 O480 1.966 . S
Co477 N486 2.022 . S
Co477 N494 1.993 . S
Co477 O502 1.941 . S
C478 O479 1.258 . S
C478 O480 1.263 . S
O479 Co476 1.970 . S
O479 C478 1.258 . S
O480 Co477 1.966 . S
O480 C478 1.263 . S
C481 O482 1.235 . S
C481 O508 1.289 . S
O482 C481 1.235 . S
C483 C485 1.400 . S
C483 N486 1.351 . S
C483 C488 1.501 . S
C484 C485 1.387 . S
C484 N487 1.341 . S
C485 C483 1.400 . S
C485 C484 1.387 . S
N486 Co477 2.022 . S
N486 C483 1.351 . S
N486 N487 1.365 . S
N487 C484 1.341 . S
N487 N486 1.365 . S
N487 H507 0.862 . S
C488 C483 1.501 . S
C488 H489 0.961 . S
C488 H490 0.961 . S
C488 H491 0.960 . S
H489 C488 0.961 . S
H490 C488 0.961 . S
H491 C488 0.960 . S
C492 N493 1.342 . S
C492 C496 1.401 . S
C492 C497 1.499 . S
N493 Co476 1.989 . S
N493 C492 1.342 . S
N493 N494 1.388 . S
N494 Co477 1.993 . S
N494 N493 1.388 . S
N494 C495 1.346 . S
C495 N494 1.346 . S
C495 C496 1.396 . S
C495 C505 1.510 . S
C496 C492 1.401 . S
C496 C495 1.396 . S
C497 C492 1.499 . S
C497 H498 0.959 . S
C497 H499 0.960 . S
C497 H500 0.961 . S
H498 C497 0.959 . S
H499 C497 0.960 . S
H500 C497 0.961 . S
O501 Co476 1.967 . S
O501 C509 1.258 . S
O502 Co477 1.941 . S
O502 C509 1.266 . S
H503 C505 0.959 . S
H504 C505 0.961 . S
C505 C495 1.510 . S
C505 H503 0.959 . S
C505 H504 0.961 . S
C505 H506 0.960 . S
H506 C505 0.960 . S
H507 N487 0.862 . S
O508 Co476 1.920 . S
O508 C481 1.289 . S
C509 O501 1.258 . S
C509 O502 1.266 . S
Co510 O513 1.970 . S
Co510 N527 1.989 . S
Co510 O535 1.967 1_455 S
Co510 O542 1.920 . S
Co511 O514 1.966 . S
Co511 N520 2.022 . S
Co511 N528 1.993 1_655 S
Co511 O536 1.941 . S
C512 O513 1.258 . S
C512 O514 1.263 1_455 S
O513 Co510 1.970 . S
O513 C512 1.258 . S
O514 Co511 1.966 . S
O514 C512 1.263 1_655 S
C515 O516 1.235 . S
C515 O542 1.289 . S
O516 C515 1.235 . S
C517 C519 1.400 . S
C517 N520 1.351 . S
C517 C522 1.501 . S
C518 C519 1.387 . S
C518 N521 1.341 . S
C519 C517 1.400 . S
C519 C518 1.387 . S
N520 Co511 2.022 . S
N520 C517 1.351 . S
N520 N521 1.365 . S
N521 C518 1.341 . S
N521 N520 1.365 . S
N521 H541 0.862 . S
C522 C517 1.501 . S
C522 H523 0.961 . S
C522 H524 0.961 1_655 S
C522 H525 0.960 . S
H523 C522 0.961 . S
H524 C522 0.961 1_455 S
H525 C522 0.960 . S
C526 N527 1.342 . S
C526 C530 1.401 . S
C526 C531 1.499 . S
N527 Co510 1.989 . S
N527 C526 1.342 . S
N527 N528 1.388 . S
N528 Co511 1.993 1_455 S
N528 N527 1.388 . S
N528 C529 1.346 . S
C529 N528 1.346 . S
C529 C530 1.396 . S
C529 C539 1.510 . S
C530 C526 1.401 . S
C530 C529 1.396 . S
C531 C526 1.499 . S
C531 H532 0.959 . S
C531 H533 0.960 . S
C531 H534 0.961 . S
H532 C531 0.959 . S
H533 C531 0.960 . S
H534 C531 0.961 . S
O535 Co510 1.967 1_655 S
O535 C543 1.258 . S
O536 Co511 1.941 . S
O536 C543 1.266 . S
H537 C539 0.959 . S
H538 C539 0.961 . S
C539 C529 1.510 . S
C539 H537 0.959 . S
C539 H538 0.961 . S
C539 H540 0.960 . S
H540 C539 0.960 . S
H541 N521 0.862 . S
O542 Co510 1.920 . S
O542 C515 1.289 . S
C543 O535 1.258 . S
C543 O536 1.266 . S
Co544 O547 1.970 . S
Co544 N561 1.989 . S
Co544 O569 1.967 . S
Co544 O576 1.920 . S
Co545 O548 1.966 . S
Co545 N554 2.022 . S
Co545 N562 1.993 . S
Co545 O570 1.941 . S
C546 O547 1.258 . S
C546 O548 1.263 . S
O547 Co544 1.970 . S
O547 C546 1.258 . S
O548 Co545 1.966 . S
O548 C546 1.263 . S
C549 O550 1.235 . S
C549 O576 1.289 . S
O550 C549 1.235 . S
C551 C553 1.400 . S
C551 N554 1.351 . S
C551 C556 1.501 . S
C552 C553 1.387 . S
C552 N555 1.341 . S
C553 C551 1.400 . S
C553 C552 1.387 . S
N554 Co545 2.022 . S
N554 C551 1.351 . S
N554 N555 1.365 . S
N555 C552 1.341 . S
N555 N554 1.365 . S
N555 H575 0.862 . S
C556 C551 1.501 . S
C556 H557 0.961 . S
C556 H558 0.961 . S
C556 H559 0.960 . S
H557 C556 0.961 . S
H558 C556 0.961 . S
H559 C556 0.960 . S
C560 N561 1.342 . S
C560 C564 1.401 . S
C560 C565 1.499 . S
N561 Co544 1.989 . S
N561 C560 1.342 . S
N561 N562 1.388 . S
N562 Co545 1.993 . S
N562 N561 1.388 . S
N562 C563 1.346 . S
C563 N562 1.346 . S
C563 C564 1.396 . S
C563 C573 1.510 . S
C564 C560 1.401 . S
C564 C563 1.396 . S
C565 C560 1.499 . S
C565 H566 0.959 . S
C565 H567 0.960 . S
C565 H568 0.961 . S
H566 C565 0.959 . S
H567 C565 0.960 . S
H568 C565 0.961 . S
O569 Co544 1.967 . S
O569 C577 1.258 . S
O570 Co545 1.941 . S
O570 C577 1.266 . S
H571 C573 0.959 . S
H572 C573 0.961 . S
C573 C563 1.510 . S
C573 H571 0.959 . S
C573 H572 0.961 . S
C573 H574 0.960 . S
H574 C573 0.960 . S
H575 N555 0.862 . S
O576 Co544 1.920 . S
O576 C549 1.289 . S
C577 O569 1.258 . S
C577 O570 1.266 . S
Co578 O581 1.970 . S
Co578 N595 1.989 . S
Co578 O603 1.967 1_565 S
Co578 O610 1.920 . S
Co579 O582 1.966 . S
Co579 N588 2.022 . S
Co579 N596 1.993 1_545 S
Co579 O604 1.941 . S
C580 O581 1.258 . S
C580 O582 1.263 1_565 S
O581 Co578 1.970 . S
O581 C580 1.258 . S
O582 Co579 1.966 . S
O582 C580 1.263 1_545 S
C583 O584 1.235 . S
C583 O610 1.289 . S
O584 C583 1.235 . S
C585 C587 1.400 . S
C585 N588 1.351 . S
C585 C590 1.501 . S
C586 C587 1.387 . S
C586 N589 1.341 . S
C587 C585 1.400 . S
C587 C586 1.387 . S
N588 Co579 2.022 . S
N588 C585 1.351 . S
N588 N589 1.365 . S
N589 C586 1.341 . S
N589 N588 1.365 . S
N589 H609 0.862 . S
C590 C585 1.501 . S
C590 H591 0.961 . S
C590 H592 0.961 1_545 S
C590 H593 0.960 . S
H591 C590 0.961 . S
H592 C590 0.961 1_565 S
H593 C590 0.960 . S
C594 N595 1.342 . S
C594 C598 1.401 . S
C594 C599 1.499 . S
N595 Co578 1.989 . S
N595 C594 1.342 . S
N595 N596 1.388 . S
N596 Co579 1.993 1_565 S
N596 N595 1.388 . S
N596 C597 1.346 . S
C597 N596 1.346 . S
C597 C598 1.396 . S
C597 C607 1.510 . S
C598 C594 1.401 . S
C598 C597 1.396 . S
C599 C594 1.499 . S
C599 H600 0.959 . S
C599 H601 0.960 . S
C599 H602 0.961 . S
H600 C599 0.959 . S
H601 C599 0.960 . S
H602 C599 0.961 . S
O603 Co578 1.967 1_545 S
O603 C611 1.258 . S
O604 Co579 1.941 . S
O604 C611 1.266 . S
H605 C607 0.959 . S
H606 C607 0.961 . S
C607 C597 1.510 . S
C607 H605 0.959 . S
C607 H606 0.961 . S
C607 H608 0.960 . S
H608 C607 0.960 . S
H609 N589 0.862 . S
O610 Co578 1.920 . S
O610 C583 1.289 . S
C611 O603 1.258 . S
C611 O604 1.266 . S
H612 C624 0.930 1_556 S
H613 C626 0.930 . S
H614 C627 0.930 . S
H615 C631 0.959 . S
H616 C631 0.959 . S
H617 C631 0.961 . S
H618 C632 0.960 . S
H619 C632 0.961 . S
H620 C632 0.959 . S
H621 C635 0.929 1_554 S
H622 C636 0.931 . S
H623 C638 0.930 . S
C624 H612 0.930 1_554 S
C624 C625 1.399 . S
C624 C629 1.399 1_554 S
C625 C624 1.399 . S
C625 C626 1.376 . S
C626 H613 0.930 . S
C626 C625 1.376 . S
C626 C627 1.388 . S
C627 H614 0.930 . S
C627 C626 1.388 . S
C627 C628 1.390 . S
C628 C627 1.390 . S
C628 C629 1.394 1_554 S
C628 C634 1.465 1_554 S
C629 C624 1.399 1_556 S
C629 C628 1.394 1_556 S
C629 C630 1.516 . S
C630 C629 1.516 . S
C630 C631 1.502 . S
C630 C632 1.561 . S
C630 C633 1.526 . S
C631 H615 0.959 . S
C631 H616 0.959 . S
C631 H617 0.961 . S
C631 C630 1.502 . S
C632 H618 0.960 . S
C632 H619 0.961 . S
C632 H620 0.959 . S
C632 C630 1.561 . S
C633 C630 1.526 . S
C633 C634 1.396 . S
C633 C638 1.390 . S
C634 C628 1.465 1_556 S
C634 C633 1.396 . S
C634 C635 1.399 . S
C635 H621 0.929 1_556 S
C635 C634 1.399 . S
C635 C636 1.385 . S
C636 H622 0.931 . S
C636 C635 1.385 . S
C636 C637 1.389 . S
C637 C636 1.389 . S
C637 C638 1.387 . S
C638 H623 0.930 . S
C638 C633 1.390 . S
C638 C637 1.387 . S
H639 C651 0.931 . S
H640 C653 0.930 . S
H641 C654 0.930 . S
H642 C658 0.959 . S
H643 C658 0.959 . S
H644 C658 0.961 . S
H645 C659 0.960 . S
H646 C659 0.961 . S
H647 C659 0.959 . S
H648 C662 0.929 1_554 S
H649 C663 0.931 . S
H650 C665 0.930 . S
C651 H639 0.931 . S
C651 C652 1.399 . S
C651 C656 1.399 1_554 S
C652 C651 1.399 . S
C652 C653 1.376 . S
C653 H640 0.930 . S
C653 C652 1.376 . S
C653 C654 1.388 . S
C654 H641 0.930 . S
C654 C653 1.388 . S
C654 C655 1.390 . S
C655 C654 1.390 . S
C655 C656 1.394 1_554 S
C655 C661 1.465 1_554 S
C656 C651 1.399 1_556 S
C656 C655 1.394 1_556 S
C656 C657 1.516 . S
C657 C656 1.516 . S
C657 C658 1.502 . S
C657 C659 1.561 . S
C657 C660 1.526 . S
C658 H642 0.959 . S
C658 H643 0.959 . S
C658 H644 0.961 . S
C658 C657 1.502 . S
C659 H645 0.960 . S
C659 H646 0.961 . S
C659 H647 0.959 . S
C659 C657 1.561 . S
C660 C657 1.526 . S
C660 C661 1.396 . S
C660 C665 1.390 . S
C661 C655 1.465 1_556 S
C661 C660 1.396 . S
C661 C662 1.399 . S
C662 H648 0.929 1_556 S
C662 C661 1.399 . S
C662 C663 1.385 . S
C663 H649 0.931 . S
C663 C662 1.385 . S
C663 C664 1.389 . S
C664 C663 1.389 . S
C664 C665 1.387 . S
C665 H650 0.930 . S
C665 C660 1.390 . S
C665 C664 1.387 . S
H666 C678 0.930 . S
H667 C680 0.930 . S
H668 C681 0.930 . S
H669 C685 0.959 . S
H670 C685 0.959 . S
H671 C685 0.961 . S
H672 C686 0.959 1_554 S
H673 C686 0.961 . S
H674 C686 0.959 . S
H675 C689 0.929 . S
H676 C690 0.931 . S
H677 C692 0.930 . S
C678 H666 0.930 . S
C678 C679 1.399 . S
C678 C683 1.399 . S
C679 C678 1.399 . S
C679 C680 1.376 . S
C680 H667 0.930 . S
C680 C679 1.376 . S
C680 C681 1.388 1_554 S
C681 H668 0.930 . S
C681 C680 1.388 1_556 S
C681 C682 1.390 . S
C682 C681 1.390 . S
C682 C683 1.394 1_556 S
C682 C688 1.465 . S
C683 C678 1.399 . S
C683 C682 1.394 1_554 S
C683 C684 1.516 1_554 S
C684 C683 1.516 1_556 S
C684 C685 1.502 1_556 S
C684 C686 1.561 . S
C684 C687 1.526 . S
C685 H669 0.959 . S
C685 H670 0.959 . S
C685 H671 0.961 . S
C685 C684 1.502 1_554 S
C686 H672 0.959 1_556 S
C686 H673 0.961 . S
C686 H674 0.959 . S
C686 C684 1.561 . S
C687 C684 1.526 . S
C687 C688 1.396 . S
C687 C692 1.390 . S
C688 C682 1.465 . S
C688 C687 1.396 . S
C688 C689 1.399 . S
C689 H675 0.929 . S
C689 C688 1.399 . S
C689 C690 1.385 . S
C690 H676 0.931 . S
C690 C689 1.385 . S
C690 C691 1.389 . S
C691 C690 1.389 . S
C691 C692 1.387 . S
C692 H677 0.930 . S
C692 C687 1.390 . S
C692 C691 1.387 . S
H693 C705 0.930 . S
H694 C707 0.930 . S
H695 C708 0.930 . S
H696 C712 0.959 . S
H697 C712 0.959 . S
H698 C712 0.961 1_554 S
H699 C713 0.960 . S
H700 C713 0.961 . S
H701 C713 0.959 . S
H702 C716 0.929 1_554 S
H703 C717 0.931 . S
H704 C719 0.930 . S
C705 H693 0.930 . S
C705 C706 1.399 . S
C705 C710 1.399 . S
C706 C705 1.399 . S
C706 C707 1.376 . S
C707 H694 0.930 . S
C707 C706 1.376 . S
C707 C708 1.388 . S
C708 H695 0.930 . S
C708 C707 1.388 . S
C708 C709 1.390 . S
C709 C708 1.390 . S
C709 C710 1.394 . S
C709 C715 1.465 . S
C710 C705 1.399 . S
C710 C709 1.394 . S
C710 C711 1.516 . S
C711 C710 1.516 . S
C711 C712 1.502 1_554 S
C711 C713 1.561 . S
C711 C714 1.526 1_554 S
C712 H696 0.959 . S
C712 H697 0.959 . S
C712 H698 0.961 1_556 S
C712 C711 1.502 1_556 S
C713 H699 0.960 . S
C713 H700 0.961 . S
C713 H701 0.959 . S
C713 C711 1.561 . S
C714 C711 1.526 1_556 S
C714 C715 1.396 1_556 S
C714 C719 1.390 . S
C715 C709 1.465 . S
C715 C714 1.396 1_554 S
C715 C716 1.399 1_554 S
C716 H702 0.929 1_556 S
C716 C715 1.399 1_556 S
C716 C717 1.385 . S
C717 H703 0.931 . S
C717 C716 1.385 . S
C717 C718 1.389 . S
C718 C717 1.389 . S
C718 C719 1.387 . S
C719 H704 0.930 . S
C719 C714 1.390 . S
C719 C718 1.387 . S
H720 C732 0.930 1_554 S
H721 C734 0.930 . S
H722 C735 0.930 . S
H723 C739 0.959 . S
H724 C739 0.959 . S
H725 C739 0.961 . S
H726 C740 0.960 . S
H727 C740 0.961 . S
H728 C740 0.959 . S
H729 C743 0.929 1_556 S
H730 C744 0.931 . S
H731 C746 0.930 . S
C732 H720 0.930 1_556 S
C732 C733 1.399 . S
C732 C737 1.399 1_556 S
C733 C732 1.399 . S
C733 C734 1.376 . S
C734 H721 0.930 . S
C734 C733 1.376 . S
C734 C735 1.388 . S
C735 H722 0.930 . S
C735 C734 1.388 . S
C735 C736 1.390 . S
C736 C735 1.390 . S
C736 C737 1.394 1_556 S
C736 C742 1.465 1_556 S
C737 C732 1.399 1_554 S
C737 C736 1.394 1_554 S
C737 C738 1.516 . S
C738 C737 1.516 . S
C738 C739 1.502 . S
C738 C740 1.561 . S
C738 C741 1.526 . S
C739 H723 0.959 . S
C739 H724 0.959 . S
C739 H725 0.961 . S
C739 C738 1.502 . S
C740 H726 0.960 . S
C740 H727 0.961 . S
C740 H728 0.959 . S
C740 C738 1.561 . S
C741 C738 1.526 . S
C741 C742 1.396 . S
C741 C746 1.390 . S
C742 C736 1.465 1_554 S
C742 C741 1.396 . S
C742 C743 1.399 . S
C743 H729 0.929 1_554 S
C743 C742 1.399 . S
C743 C744 1.385 . S
C744 H730 0.931 . S
C744 C743 1.385 . S
C744 C745 1.389 . S
C745 C744 1.389 . S
C745 C746 1.387 . S
C746 H731 0.930 . S
C746 C741 1.390 . S
C746 C745 1.387 . S
H747 C759 0.930 . S
H748 C761 0.930 . S
H749 C762 0.930 . S
H750 C766 0.959 . S
H751 C766 0.959 1_556 S
H752 C766 0.961 . S
H753 C767 0.960 . S
H754 C767 0.961 . S
H755 C767 0.959 . S
H756 C770 0.929 1_554 S
H757 C771 0.931 . S
H758 C773 0.930 . S
C759 H747 0.930 . S
C759 C760 1.399 . S
C759 C764 1.399 . S
C760 C759 1.399 . S
C760 C761 1.376 . S
C761 H748 0.930 . S
C761 C760 1.376 . S
C761 C762 1.388 . S
C762 H749 0.930 . S
C762 C761 1.388 . S
C762 C763 1.390 . S
C763 C762 1.390 . S
C763 C764 1.394 . S
C763 C769 1.465 . S
C764 C759 1.399 . S
C764 C763 1.394 . S
C764 C765 1.516 . S
C765 C764 1.516 . S
C765 C766 1.502 . S
C765 C767 1.561 1_554 S
C765 C768 1.526 1_554 S
C766 H750 0.959 . S
C766 H751 0.959 1_554 S
C766 H752 0.961 . S
C766 C765 1.502 . S
C767 H753 0.960 . S
C767 H754 0.961 . S
C767 H755 0.959 . S
C767 C765 1.561 1_556 S
C768 C765 1.526 1_556 S
C768 C769 1.396 1_556 S
C768 C773 1.390 . S
C769 C763 1.465 . S
C769 C768 1.396 1_554 S
C769 C770 1.398 1_554 S
C770 H756 0.929 1_556 S
C770 C769 1.398 1_556 S
C770 C771 1.386 . S
C771 H757 0.931 . S
C771 C770 1.386 . S
C771 C772 1.389 . S
C772 C771 1.389 . S
C772 C773 1.387 . S
C773 H758 0.930 . S
C773 C768 1.390 . S
C773 C772 1.387 . S
H774 C786 0.930 . S
H775 C788 0.930 . S
H776 C789 0.930 . S
H777 C793 0.959 1_655 S
H778 C793 0.959 . S
H779 C793 0.961 . S
H780 C794 0.960 . S
H781 C794 0.961 . S
H782 C794 0.959 . S
H783 C797 0.929 . S
H784 C798 0.931 . S
H785 C800 0.930 . S
C786 H774 0.930 . S
C786 C787 1.399 . S
C786 C791 1.399 . S
C787 C786 1.399 . S
C787 C788 1.376 . S
C788 H775 0.930 . S
C788 C787 1.376 . S
C788 C789 1.388 . S
C789 H776 0.930 . S
C789 C788 1.388 . S
C789 C790 1.390 . S
C790 C789 1.390 . S
C790 C791 1.394 . S
C790 C796 1.465 . S
C791 C786 1.399 . S
C791 C790 1.394 . S
C791 C792 1.516 . S
C792 C791 1.516 . S
C792 C793 1.502 . S
C792 C794 1.561 . S
C792 C795 1.526 . S
C793 H777 0.959 1_455 S
C793 H778 0.959 . S
C793 H779 0.961 . S
C793 C792 1.502 . S
C794 H780 0.960 . S
C794 H781 0.961 . S
C794 H782 0.959 . S
C794 C792 1.561 . S
C795 C792 1.526 . S
C795 C796 1.396 . S
C795 C800 1.390 . S
C796 C790 1.465 . S
C796 C795 1.396 . S
C796 C797 1.399 . S
C797 H783 0.929 . S
C797 C796 1.399 . S
C797 C798 1.385 . S
C798 H784 0.931 . S
C798 C797 1.385 . S
C798 C799 1.389 . S
C799 C798 1.389 . S
C799 C800 1.387 . S
C800 H785 0.930 . S
C800 C795 1.390 . S
C800 C799 1.387 . S
H801 C813 0.930 . S
H802 C815 0.930 . S
H803 C816 0.930 . S
H804 C820 0.959 . S
H805 C820 0.959 . S
H806 C820 0.961 . S
H807 C821 0.960 . S
H808 C821 0.961 . S
H809 C821 0.959 . S
H810 C824 0.929 . S
H811 C825 0.931 . S
H812 C827 0.930 . S
C813 H801 0.930 . S
C813 C814 1.399 . S
C813 C818 1.399 . S
C814 C813 1.399 . S
C814 C815 1.376 . S
C815 H802 0.930 . S
C815 C814 1.376 . S
C815 C816 1.388 . S
C816 H803 0.930 . S
C816 C815 1.388 . S
C816 C817 1.390 . S
C817 C816 1.390 . S
C817 C818 1.394 . S
C817 C823 1.465 . S
C818 C813 1.399 . S
C818 C817 1.394 . S
C818 C819 1.516 . S
C819 C818 1.516 . S
C819 C820 1.502 . S
C819 C821 1.561 . S
C819 C822 1.526 . S
C820 H804 0.959 . S
C820 H805 0.959 . S
C820 H806 0.961 . S
C820 C819 1.502 . S
C821 H807 0.960 . S
C821 H808 0.961 . S
C821 H809 0.959 . S
C821 C819 1.561 . S
C822 C819 1.526 . S
C822 C823 1.396 . S
C822 C827 1.390 . S
C823 C817 1.465 . S
C823 C822 1.396 . S
C823 C824 1.399 . S
C824 H810 0.929 . S
C824 C823 1.399 . S
C824 C825 1.385 . S
C825 H811 0.931 . S
C825 C824 1.385 . S
C825 C826 1.389 . S
C826 C825 1.389 . S
C826 C827 1.387 . S
C827 H812 0.930 . S
C827 C822 1.390 . S
C827 C826 1.387 . S
H828 C840 0.930 . S
H829 C842 0.930 1_545 S
H830 C843 0.930 . S
H831 C847 0.959 . S
H832 C847 0.959 . S
H833 C847 0.961 . S
H834 C848 0.960 . S
H835 C848 0.961 . S
H836 C848 0.959 . S
H837 C851 0.929 . S
H838 C852 0.931 . S
H839 C854 0.930 . S
C840 H828 0.930 . S
C840 C841 1.399 . S
C840 C845 1.399 . S
C841 C840 1.399 . S
C841 C842 1.376 . S
C842 H829 0.930 1_565 S
C842 C841 1.376 . S
C842 C843 1.388 1_565 S
C843 H830 0.930 . S
C843 C842 1.388 1_545 S
C843 C844 1.390 1_545 S
C844 C843 1.390 1_565 S
C844 C845 1.394 . S
C844 C850 1.465 . S
C845 C840 1.399 . S
C845 C844 1.394 . S
C845 C846 1.516 . S
C846 C845 1.516 . S
C846 C847 1.502 . S
C846 C848 1.561 . S
C846 C849 1.526 . S
C847 H831 0.959 . S
C847 H832 0.959 . S
C847 H833 0.961 . S
C847 C846 1.502 . S
C848 H834 0.960 . S
C848 H835 0.961 . S
C848 H836 0.959 . S
C848 C846 1.561 . S
C849 C846 1.526 . S
C849 C850 1.396 . S
C849 C854 1.390 . S
C850 C844 1.465 . S
C850 C849 1.396 . S
C850 C851 1.399 1_565 S
C851 H837 0.929 . S
C851 C850 1.399 1_545 S
C851 C852 1.385 . S
C852 H838 0.931 . S
C852 C851 1.385 . S
C852 C853 1.389 1_545 S
C853 C852 1.389 1_565 S
C853 C854 1.387 . S
C854 H839 0.930 . S
C854 C849 1.390 . S
C854 C853 1.387 . S
H855 C867 0.930 . S
H856 C869 0.930 . S
H857 C870 0.930 . S
H858 C874 0.959 . S
H859 C874 0.959 . S
H860 C874 0.961 . S
H861 C875 0.960 . S
H862 C875 0.961 . S
H863 C875 0.959 . S
H864 C878 0.929 . S
H865 C879 0.931 . S
H866 C881 0.930 . S
C867 H855 0.930 . S
C867 C868 1.399 . S
C867 C872 1.399 . S
C868 C867 1.399 . S
C868 C869 1.376 . S
C869 H856 0.930 . S
C869 C868 1.376 . S
C869 C870 1.388 . S
C870 H857 0.930 . S
C870 C869 1.388 . S
C870 C871 1.390 . S
C871 C870 1.390 . S
C871 C872 1.394 . S
C871 C877 1.465 . S
C872 C867 1.399 . S
C872 C871 1.394 . S
C872 C873 1.516 . S
C873 C872 1.516 . S
C873 C874 1.502 . S
C873 C875 1.561 . S
C873 C876 1.526 . S
C874 H858 0.959 . S
C874 H859 0.959 . S
C874 H860 0.961 . S
C874 C873 1.502 . S
C875 H861 0.960 . S
C875 H862 0.961 . S
C875 H863 0.959 . S
C875 C873 1.561 . S
C876 C873 1.526 . S
C876 C877 1.396 . S
C876 C881 1.390 . S
C877 C871 1.465 . S
C877 C876 1.396 . S
C877 C878 1.399 . S
C878 H864 0.929 . S
C878 C877 1.399 . S
C878 C879 1.385 . S
C879 H865 0.931 . S
C879 C878 1.385 . S
C879 C880 1.389 . S
C880 C879 1.389 . S
C880 C881 1.387 . S
C881 H866 0.930 . S
C881 C876 1.390 . S
C881 C880 1.387 . S
H882 C894 0.930 . S
H883 C896 0.930 . S
H884 C897 0.930 . S
H885 C901 0.959 . S
H886 C901 0.959 . S
H887 C901 0.961 . S
H888 C902 0.960 . S
H889 C902 0.961 . S
H890 C902 0.959 . S
H891 C905 0.929 . S
H892 C906 0.931 . S
H893 C908 0.930 . S
C894 H882 0.930 . S
C894 C895 1.399 . S
C894 C899 1.399 . S
C895 C894 1.399 . S
C895 C896 1.376 . S
C896 H883 0.930 . S
C896 C895 1.376 . S
C896 C897 1.388 . S
C897 H884 0.930 . S
C897 C896 1.388 . S
C897 C898 1.390 . S
C898 C897 1.390 . S
C898 C899 1.394 . S
C898 C904 1.465 . S
C899 C894 1.399 . S
C899 C898 1.394 . S
C899 C900 1.516 . S
C900 C899 1.516 . S
C900 C901 1.502 . S
C900 C902 1.561 . S
C900 C903 1.526 . S
C901 H885 0.959 . S
C901 H886 0.959 . S
C901 H887 0.961 . S
C901 C900 1.502 . S
C902 H888 0.960 . S
C902 H889 0.961 . S
C902 H890 0.959 . S
C902 C900 1.561 . S
C903 C900 1.526 . S
C903 C904 1.396 . S
C903 C908 1.390 . S
C904 C898 1.465 . S
C904 C903 1.396 . S
C904 C905 1.399 . S
C905 H891 0.929 . S
C905 C904 1.399 . S
C905 C906 1.385 . S
C906 H892 0.931 . S
C906 C905 1.385 . S
C906 C907 1.389 . S
C907 C906 1.389 . S
C907 C908 1.387 . S
C908 H893 0.930 . S
C908 C903 1.390 . S
C908 C907 1.387 . S
H909 C921 0.930 . S
H910 C923 0.930 . S
H911 C924 0.930 . S
H912 C928 0.959 . S
H913 C928 0.959 . S
H914 C928 0.961 . S
H915 C929 0.960 . S
H916 C929 0.961 . S
H917 C929 0.959 . S
H918 C932 0.929 . S
H919 C933 0.931 . S
H920 C935 0.930 . S
C921 H909 0.930 . S
C921 C922 1.399 . S
C921 C926 1.399 . S
C922 C921 1.399 . S
C922 C923 1.376 . S
C923 H910 0.930 . S
C923 C922 1.376 . S
C923 C924 1.388 . S
C924 H911 0.930 . S
C924 C923 1.388 . S
C924 C925 1.390 . S
C925 C924 1.390 . S
C925 C926 1.394 . S
C925 C931 1.465 . S
C926 C921 1.399 . S
C926 C925 1.394 . S
C926 C927 1.516 . S
C927 C926 1.516 . S
C927 C928 1.502 . S
C927 C929 1.561 . S
C927 C930 1.526 . S
C928 H912 0.959 . S
C928 H913 0.959 . S
C928 H914 0.961 . S
C928 C927 1.502 . S
C929 H915 0.960 . S
C929 H916 0.961 . S
C929 H917 0.959 . S
C929 C927 1.561 . S
C930 C927 1.526 . S
C930 C931 1.396 . S
C930 C935 1.390 . S
C931 C925 1.465 . S
C931 C930 1.396 . S
C931 C932 1.399 . S
C932 H918 0.929 . S
C932 C931 1.399 . S
C932 C933 1.385 . S
C933 H919 0.931 . S
C933 C932 1.385 . S
C933 C934 1.389 . S
C934 C933 1.389 . S
C934 C935 1.387 . S
C935 H920 0.930 . S
C935 C930 1.390 . S
C935 C934 1.387 . S
H936 C948 0.930 . S
H937 C950 0.930 . S
H938 C951 0.930 . S
H939 C955 0.959 . S
H940 C955 0.959 . S
H941 C955 0.961 . S
H942 C956 0.960 . S
H943 C956 0.961 . S
H944 C956 0.959 . S
H945 C959 0.929 . S
H946 C960 0.931 . S
H947 C962 0.930 . S
C948 H936 0.930 . S
C948 C949 1.399 . S
C948 C953 1.399 . S
C949 C948 1.399 . S
C949 C950 1.376 . S
C950 H937 0.930 . S
C950 C949 1.376 . S
C950 C951 1.388 . S
C951 H938 0.930 . S
C951 C950 1.388 . S
C951 C952 1.390 . S
C952 C951 1.390 . S
C952 C953 1.394 . S
C952 C958 1.465 . S
C953 C948 1.399 . S
C953 C952 1.394 . S
C953 C954 1.516 . S
C954 C953 1.516 . S
C954 C955 1.502 . S
C954 C956 1.561 . S
C954 C957 1.526 . S
C955 H939 0.959 . S
C955 H940 0.959 . S
C955 H941 0.961 . S
C955 C954 1.502 . S
C956 H942 0.960 . S
C956 H943 0.961 . S
C956 H944 0.959 . S
C956 C954 1.561 . S
C957 C954 1.526 . S
C957 C958 1.396 . S
C957 C962 1.390 . S
C958 C952 1.465 . S
C958 C957 1.396 . S
C958 C959 1.399 . S
C959 H945 0.929 . S
C959 C958 1.399 . S
C959 C960 1.385 . S
C960 H946 0.931 . S
C960 C959 1.385 . S
C960 C961 1.389 . S
C961 C960 1.389 . S
C961 C962 1.387 . S
C962 H947 0.930 . S
C962 C957 1.390 . S
C962 C961 1.387 . S
H963 C975 0.930 . S
H964 C977 0.930 . S
H965 C978 0.930 . S
H966 C982 0.959 . S
H967 C982 0.959 . S
H968 C982 0.961 . S
H969 C983 0.960 . S
H970 C983 0.961 . S
H971 C983 0.959 . S
H972 C986 0.929 . S
H973 C987 0.931 . S
H974 C989 0.930 . S
C975 H963 0.930 . S
C975 C976 1.399 . S
C975 C980 1.399 . S
C976 C975 1.399 . S
C976 C977 1.376 . S
C977 H964 0.930 . S
C977 C976 1.376 . S
C977 C978 1.388 . S
C978 H965 0.930 . S
C978 C977 1.388 . S
C978 C979 1.390 . S
C979 C978 1.390 . S
C979 C980 1.394 . S
C979 C985 1.465 . S
C980 C975 1.399 . S
C980 C979 1.394 . S
C980 C981 1.516 . S
C981 C980 1.516 . S
C981 C982 1.502 . S
C981 C983 1.561 . S
C981 C984 1.526 . S
C982 H966 0.959 . S
C982 H967 0.959 . S
C982 H968 0.961 . S
C982 C981 1.502 . S
C983 H969 0.960 . S
C983 H970 0.961 . S
C983 H971 0.959 . S
C983 C981 1.561 . S
C984 C981 1.526 . S
C984 C985 1.396 . S
C984 C989 1.390 . S
C985 C979 1.465 . S
C985 C984 1.396 . S
C985 C986 1.399 . S
C986 H972 0.929 . S
C986 C985 1.399 . S
C986 C987 1.385 . S
C987 H973 0.931 . S
C987 C986 1.385 . S
C987 C988 1.389 . S
C988 C987 1.389 . S
C988 C989 1.387 . S
C989 H974 0.930 . S
C989 C984 1.390 . S
C989 C988 1.387 . S
H990 C1002 0.930 . S
H991 C1004 0.930 . S
H992 C1005 0.930 . S
H993 C1009 0.959 . S
H994 C1009 0.959 . S
H995 C1009 0.961 . S
H996 C1010 0.960 . S
H997 C1010 0.961 . S
H998 C1010 0.959 . S
H999 C1013 0.929 . S
H1000 C1014 0.931 . S
H1001 C1016 0.930 . S
C1002 H990 0.930 . S
C1002 C1003 1.399 . S
C1002 C1007 1.399 . S
C1003 C1002 1.399 . S
C1003 C1004 1.376 . S
C1004 H991 0.930 . S
C1004 C1003 1.376 . S
C1004 C1005 1.388 . S
C1005 H992 0.930 . S
C1005 C1004 1.388 . S
C1005 C1006 1.390 . S
C1006 C1005 1.390 . S
C1006 C1007 1.394 . S
C1006 C1012 1.465 . S
C1007 C1002 1.399 . S
C1007 C1006 1.394 . S
C1007 C1008 1.516 . S
C1008 C1007 1.516 . S
C1008 C1009 1.502 . S
C1008 C1010 1.561 . S
C1008 C1011 1.526 . S
C1009 H993 0.959 . S
C1009 H994 0.959 . S
C1009 H995 0.961 . S
C1009 C1008 1.502 . S
C1010 H996 0.960 . S
C1010 H997 0.961 . S
C1010 H998 0.959 . S
C1010 C1008 1.561 . S
C1011 C1008 1.526 . S
C1011 C1012 1.396 . S
C1011 C1016 1.390 . S
C1012 C1006 1.465 . S
C1012 C1011 1.396 . S
C1012 C1013 1.399 . S
C1013 H999 0.929 . S
C1013 C1012 1.399 . S
C1013 C1014 1.385 . S
C1014 H1000 0.931 . S
C1014 C1013 1.385 . S
C1014 C1015 1.389 . S
C1015 C1014 1.389 . S
C1015 C1016 1.387 . S
C1016 H1001 0.930 . S
C1016 C1011 1.390 . S
C1016 C1015 1.387 . S
H1017 C1029 0.930 . S
H1018 C1031 0.930 . S
H1019 C1032 0.950 . S
H1020 C1036 0.959 . S
H1021 C1036 0.959 . S
H1022 C1036 0.961 . S
H1023 C1037 0.960 . S
H1024 C1037 0.961 . S
H1025 C1037 0.959 . S
H1026 C1040 0.929 . S
H1027 C1041 0.931 . S
H1028 C1043 0.930 . S
C1029 H1017 0.930 . S
C1029 C1030 1.399 . S
C1029 C1034 1.399 . S
C1030 C1029 1.399 . S
C1030 C1031 1.376 . S
C1031 H1018 0.930 . S
C1031 C1030 1.376 . S
C1031 C1032 1.388 . S
C1032 H1019 0.950 . S
C1032 C1031 1.388 . S
C1032 C1033 1.390 . S
C1033 C1032 1.390 . S
C1033 C1034 1.394 . S
C1033 C1039 1.465 . S
C1034 C1029 1.399 . S
C1034 C1033 1.394 . S
C1034 C1035 1.516 . S
C1035 C1034 1.516 . S
C1035 C1036 1.502 . S
C1035 C1037 1.561 . S
C1035 C1038 1.526 . S
C1036 H1020 0.959 . S
C1036 H1021 0.959 . S
C1036 H1022 0.961 . S
C1036 C1035 1.502 . S
C1037 H1023 0.960 . S
C1037 H1024 0.961 . S
C1037 H1025 0.959 . S
C1037 C1035 1.561 . S
C1038 C1035 1.526 . S
C1038 C1039 1.396 . S
C1038 C1043 1.390 . S
C1039 C1033 1.465 . S
C1039 C1038 1.396 . S
C1039 C1040 1.399 1_655 S
C1040 H1026 0.929 . S
C1040 C1039 1.399 1_455 S
C1040 C1041 1.385 . S
C1041 H1027 0.931 . S
C1041 C1040 1.385 . S
C1041 C1042 1.389 1_455 S
C1042 C1041 1.389 1_655 S
C1042 C1043 1.387 . S
C1043 H1028 0.930 . S
C1043 C1038 1.390 . S
C1043 C1042 1.387 . S
H1044 C1056 0.930 . S
H1045 C1058 0.930 . S
H1046 C1059 0.930 . S
H1047 C1063 0.959 . S
H1048 C1063 0.959 . S
H1049 C1063 0.961 . S
H1050 C1064 0.960 . S
H1051 C1064 0.961 . S
H1052 C1064 0.959 . S
H1053 C1067 0.929 . S
H1054 C1068 0.931 . S
H1055 C1070 0.930 . S
C1056 H1044 0.930 . S
C1056 C1057 1.399 . S
C1056 C1061 1.399 . S
C1057 C1056 1.399 . S
C1057 C1058 1.376 . S
C1058 H1045 0.930 . S
C1058 C1057 1.376 . S
C1058 C1059 1.388 . S
C1059 H1046 0.930 . S
C1059 C1058 1.388 . S
C1059 C1060 1.390 . S
C1060 C1059 1.390 . S
C1060 C1061 1.394 . S
C1060 C1066 1.465 . S
C1061 C1056 1.399 . S
C1061 C1060 1.394 . S
C1061 C1062 1.516 . S
C1062 C1061 1.516 . S
C1062 C1063 1.502 . S
C1062 C1064 1.561 . S
C1062 C1065 1.526 . S
C1063 H1047 0.959 . S
C1063 H1048 0.959 . S
C1063 H1049 0.961 . S
C1063 C1062 1.502 . S
C1064 H1050 0.960 . S
C1064 H1051 0.961 . S
C1064 H1052 0.959 . S
C1064 C1062 1.561 . S
C1065 C1062 1.526 . S
C1065 C1066 1.396 . S
C1065 C1070 1.390 . S
C1066 C1060 1.465 . S
C1066 C1065 1.396 . S
C1066 C1067 1.399 . S
C1067 H1053 0.929 . S
C1067 C1066 1.399 . S
C1067 C1068 1.385 . S
C1068 H1054 0.931 . S
C1068 C1067 1.385 . S
C1068 C1069 1.389 . S
C1069 C1068 1.389 . S
C1069 C1070 1.387 . S
C1070 H1055 0.930 . S
C1070 C1065 1.390 . S
C1070 C1069 1.387 . S
H1071 C1083 0.930 1_565 S
H1072 C1085 0.930 . S
H1073 C1086 0.930 . S
H1074 C1090 0.959 . S
H1075 C1090 0.959 . S
H1076 C1090 0.961 . S
H1077 C1091 0.960 . S
H1078 C1091 0.961 . S
H1079 C1091 0.959 . S
H1080 C1094 0.929 . S
H1081 C1095 0.931 . S
H1082 C1097 0.930 . S
C1083 H1071 0.930 1_545 S
C1083 C1084 1.399 . S
C1083 C1088 1.399 . S
C1084 C1083 1.399 . S
C1084 C1085 1.376 . S
C1085 H1072 0.930 . S
C1085 C1084 1.376 . S
C1085 C1086 1.388 . S
C1086 H1073 0.930 . S
C1086 C1085 1.388 . S
C1086 C1087 1.390 . S
C1087 C1086 1.390 . S
C1087 C1088 1.394 . S
C1087 C1093 1.465 . S
C1088 C1083 1.399 . S
C1088 C1087 1.394 . S
C1088 C1089 1.516 . S
C1089 C1088 1.516 . S
C1089 C1090 1.502 . S
C1089 C1091 1.561 1_545 S
C1089 C1092 1.526 . S
C1090 H1074 0.959 . S
C1090 H1075 0.959 . S
C1090 H1076 0.961 . S
C1090 C1089 1.502 . S
C1091 H1077 0.960 . S
C1091 H1078 0.961 . S
C1091 H1079 0.959 . S
C1091 C1089 1.561 1_565 S
C1092 C1089 1.526 . S
C1092 C1093 1.396 . S
C1092 C1097 1.390 . S
C1093 C1087 1.465 . S
C1093 C1092 1.396 . S
C1093 C1094 1.399 . S
C1094 H1080 0.929 . S
C1094 C1093 1.399 . S
C1094 C1095 1.385 . S
C1095 H1081 0.931 . S
C1095 C1094 1.385 . S
C1095 C1096 1.389 . S
C1096 C1095 1.389 . S
C1096 C1097 1.387 . S
C1097 H1082 0.930 . S
C1097 C1092 1.390 . S
C1097 C1096 1.387 . S
H1098 C1110 0.930 . S
H1099 C1112 0.930 . S
H1100 C1113 0.930 . S
H1101 C1117 0.959 . S
H1102 C1117 0.959 . S
H1103 C1117 0.961 . S
H1104 C1118 0.960 . S
H1105 C1118 0.961 . S
H1106 C1118 0.959 . S
H1107 C1121 0.929 . S
H1108 C1122 0.931 . S
H1109 C1124 0.930 . S
C1110 H1098 0.930 . S
C1110 C1111 1.399 . S
C1110 C1115 1.399 . S
C1111 C1110 1.399 . S
C1111 C1112 1.376 . S
C1112 H1099 0.930 . S
C1112 C1111 1.376 . S
C1112 C1113 1.388 . S
C1113 H1100 0.930 . S
C1113 C1112 1.388 . S
C1113 C1114 1.390 . S
C1114 C1113 1.390 . S
C1114 C1115 1.394 . S
C1114 C1120 1.465 . S
C1115 C1110 1.399 . S
C1115 C1114 1.394 . S
C1115 C1116 1.516 . S
C1116 C1115 1.516 . S
C1116 C1117 1.502 . S
C1116 C1118 1.561 . S
C1116 C1119 1.526 . S
C1117 H1101 0.959 . S
C1117 H1102 0.959 . S
C1117 H1103 0.961 . S
C1117 C1116 1.502 . S
C1118 H1104 0.960 . S
C1118 H1105 0.961 . S
C1118 H1106 0.959 . S
C1118 C1116 1.561 . S
C1119 C1116 1.526 . S
C1119 C1120 1.396 . S
C1119 C1124 1.390 . S
C1120 C1114 1.465 . S
C1120 C1119 1.396 . S
C1120 C1121 1.399 . S
C1121 H1107 0.929 . S
C1121 C1120 1.399 . S
C1121 C1122 1.385 . S
C1122 H1108 0.931 . S
C1122 C1121 1.385 . S
C1122 C1123 1.389 . S
C1123 C1122 1.389 . S
C1123 C1124 1.387 . S
C1124 H1109 0.930 . S
C1124 C1119 1.390 . S
C1124 C1123 1.387 . S
H1125 C1137 0.930 . S
H1126 C1139 0.930 . S
H1127 C1140 0.930 . S
H1128 C1144 0.959 . S
H1129 C1144 0.959 . S
H1130 C1144 0.961 . S
H1131 C1145 0.960 . S
H1132 C1145 0.961 . S
H1133 C1145 0.959 . S
H1134 C1148 0.929 . S
H1135 C1149 0.931 . S
H1136 C1151 0.930 . S
C1137 H1125 0.930 . S
C1137 C1138 1.399 1_565 S
C1137 C1142 1.399 . S
C1138 C1137 1.399 1_545 S
C1138 C1139 1.376 . S
C1139 H1126 0.930 . S
C1139 C1138 1.376 . S
C1139 C1140 1.388 . S
C1140 H1127 0.930 . S
C1140 C1139 1.388 . S
C1140 C1141 1.390 . S
C1141 C1140 1.390 . S
C1141 C1142 1.394 1_545 S
C1141 C1147 1.465 . S
C1142 C1137 1.399 . S
C1142 C1141 1.394 1_565 S
C1142 C1143 1.516 . S
C1143 C1142 1.516 . S
C1143 C1144 1.502 . S
C1143 C1145 1.561 . S
C1143 C1146 1.526 . S
C1144 H1128 0.959 . S
C1144 H1129 0.959 . S
C1144 H1130 0.961 . S
C1144 C1143 1.502 . S
C1145 H1131 0.960 . S
C1145 H1132 0.961 . S
C1145 H1133 0.959 . S
C1145 C1143 1.561 . S
C1146 C1143 1.526 . S
C1146 C1147 1.396 1_565 S
C1146 C1151 1.390 . S
C1147 C1141 1.465 . S
C1147 C1146 1.396 1_545 S
C1147 C1148 1.399 . S
C1148 H1134 0.929 . S
C1148 C1147 1.399 . S
C1148 C1149 1.385 . S
C1149 H1135 0.931 . S
C1149 C1148 1.385 . S
C1149 C1150 1.389 1_545 S
C1150 C1149 1.389 1_565 S
C1150 C1151 1.387 . S
C1151 H1136 0.930 . S
C1151 C1146 1.390 . S
C1151 C1150 1.387 . S
H1152 C1164 0.930 1_655 S
H1153 C1166 0.930 . S
H1154 C1167 0.930 . S
H1155 C1171 0.959 . S
H1156 C1171 0.959 . S
H1157 C1171 0.961 . S
H1158 C1172 0.960 . S
H1159 C1172 0.961 . S
H1160 C1172 0.959 . S
H1161 C1175 0.929 . S
H1162 C1176 0.931 . S
H1163 C1178 0.930 . S
C1164 H1152 0.930 1_455 S
C1164 C1165 1.399 . S
C1164 C1169 1.399 . S
C1165 C1164 1.399 . S
C1165 C1166 1.376 . S
C1166 H1153 0.930 . S
C1166 C1165 1.376 . S
C1166 C1167 1.388 . S
C1167 H1154 0.930 . S
C1167 C1166 1.388 . S
C1167 C1168 1.390 . S
C1168 C1167 1.390 . S
C1168 C1169 1.394 . S
C1168 C1174 1.465 . S
C1169 C1164 1.399 . S
C1169 C1168 1.394 . S
C1169 C1170 1.516 1_455 S
C1170 C1169 1.516 1_655 S
C1170 C1171 1.502 . S
C1170 C1172 1.561 1_655 S
C1170 C1173 1.526 1_655 S
C1171 H1155 0.959 . S
C1171 H1156 0.959 . S
C1171 H1157 0.961 . S
C1171 C1170 1.502 . S
C1172 H1158 0.960 . S
C1172 H1159 0.961 . S
C1172 H1160 0.959 . S
C1172 C1170 1.561 1_455 S
C1173 C1170 1.526 1_455 S
C1173 C1174 1.394 . S
C1173 C1178 1.391 1_455 S
C1174 C1168 1.465 . S
C1174 C1173 1.394 . S
C1174 C1175 1.399 . S
C1175 H1161 0.929 . S
C1175 C1174 1.399 . S
C1175 C1176 1.385 . S
C1176 H1162 0.931 . S
C1176 C1175 1.385 . S
C1176 C1177 1.389 1_455 S
C1177 C1176 1.389 1_655 S
C1177 C1178 1.387 . S
C1178 H1163 0.930 . S
C1178 C1173 1.391 1_655 S
C1178 C1177 1.387 . S
H1179 C1191 0.930 . S
H1180 C1193 0.930 . S
H1181 C1194 0.930 . S
H1182 C1198 0.959 . S
H1183 C1198 0.959 . S
H1184 C1198 0.961 . S
H1185 C1199 0.960 . S
H1186 C1199 0.961 . S
H1187 C1199 0.959 . S
H1188 C1202 0.929 . S
H1189 C1203 0.931 . S
H1190 C1205 0.930 . S
C1191 H1179 0.930 . S
C1191 C1192 1.399 . S
C1191 C1196 1.399 . S
C1192 C1191 1.399 . S
C1192 C1193 1.376 . S
C1193 H1180 0.930 . S
C1193 C1192 1.376 . S
C1193 C1194 1.388 . S
C1194 H1181 0.930 . S
C1194 C1193 1.388 . S
C1194 C1195 1.390 . S
C1195 C1194 1.390 . S
C1195 C1196 1.394 . S
C1195 C1201 1.465 . S
C1196 C1191 1.399 . S
C1196 C1195 1.394 . S
C1196 C1197 1.516 . S
C1197 C1196 1.516 . S
C1197 C1198 1.502 . S
C1197 C1199 1.561 . S
C1197 C1200 1.526 . S
C1198 H1182 0.959 . S
C1198 H1183 0.959 . S
C1198 H1184 0.961 . S
C1198 C1197 1.502 . S
C1199 H1185 0.960 . S
C1199 H1186 0.961 . S
C1199 H1187 0.959 . S
C1199 C1197 1.561 . S
C1200 C1197 1.526 . S
C1200 C1201 1.396 . S
C1200 C1205 1.390 . S
C1201 C1195 1.465 . S
C1201 C1200 1.396 . S
C1201 C1202 1.399 . S
C1202 H1188 0.929 . S
C1202 C1201 1.399 . S
C1202 C1203 1.385 . S
C1203 H1189 0.931 . S
C1203 C1202 1.385 . S
C1203 C1204 1.389 . S
C1204 C1203 1.389 . S
C1204 C1205 1.387 . S
C1205 H1190 0.930 . S
C1205 C1200 1.390 . S
C1205 C1204 1.387 . S
H1206 C1218 0.930 . S
H1207 C1220 0.930 . S
H1208 C1221 0.930 . S
H1209 C1225 0.959 . S
H1210 C1225 0.959 . S
H1211 C1225 0.961 . S
H1212 C1226 0.960 . S
H1213 C1226 0.961 . S
H1214 C1226 0.959 . S
H1215 C1229 0.929 . S
H1216 C1230 0.931 . S
H1217 C1232 0.930 . S
C1218 H1206 0.930 . S
C1218 C1219 1.399 . S
C1218 C1223 1.399 . S
C1219 C1218 1.399 . S
C1219 C1220 1.376 1_545 S
C1220 H1207 0.930 . S
C1220 C1219 1.376 1_565 S
C1220 C1221 1.388 . S
C1221 H1208 0.930 . S
C1221 C1220 1.388 . S
C1221 C1222 1.390 . S
C1222 C1221 1.390 . S
C1222 C1223 1.394 1_565 S
C1222 C1228 1.465 . S
C1223 C1218 1.399 . S
C1223 C1222 1.394 1_545 S
C1223 C1224 1.516 . S
C1224 C1223 1.516 . S
C1224 C1225 1.502 . S
C1224 C1226 1.561 . S
C1224 C1227 1.526 . S
C1225 H1209 0.959 . S
C1225 H1210 0.959 . S
C1225 H1211 0.961 . S
C1225 C1224 1.502 . S
C1226 H1212 0.960 . S
C1226 H1213 0.961 . S
C1226 H1214 0.959 . S
C1226 C1224 1.561 . S
C1227 C1224 1.526 . S
C1227 C1228 1.396 1_545 S
C1227 C1232 1.390 . S
C1228 C1222 1.465 . S
C1228 C1227 1.396 1_565 S
C1228 C1229 1.399 . S
C1229 H1215 0.929 . S
C1229 C1228 1.399 . S
C1229 C1230 1.385 . S
C1230 H1216 0.931 . S
C1230 C1229 1.385 . S
C1230 C1231 1.389 . S
C1231 C1230 1.389 . S
C1231 C1232 1.387 1_565 S
C1232 H1217 0.930 . S
C1232 C1227 1.390 . S
C1232 C1231 1.387 1_545 S
H1233 C1245 0.930 . S
H1234 C1247 0.930 . S
H1235 C1248 0.930 . S
H1236 C1252 0.959 . S
H1237 C1252 0.959 . S
H1238 C1252 0.961 . S
H1239 C1253 0.960 . S
H1240 C1253 0.961 . S
H1241 C1253 0.959 1_655 S
H1242 C1256 0.929 . S
H1243 C1257 0.931 . S
H1244 C1259 0.930 . S
C1245 H1233 0.930 . S
C1245 C1246 1.399 1_455 S
C1245 C1250 1.399 . S
C1246 C1245 1.399 1_655 S
C1246 C1247 1.376 . S
C1247 H1234 0.930 . S
C1247 C1246 1.376 . S
C1247 C1248 1.388 . S
C1248 H1235 0.930 . S
C1248 C1247 1.388 . S
C1248 C1249 1.390 . S
C1249 C1248 1.390 . S
C1249 C1250 1.394 1_655 S
C1249 C1255 1.465 . S
C1250 C1245 1.399 . S
C1250 C1249 1.394 1_455 S
C1250 C1251 1.516 . S
C1251 C1250 1.516 . S
C1251 C1252 1.502 . S
C1251 C1253 1.561 . S
C1251 C1254 1.526 . S
C1252 H1236 0.959 . S
C1252 H1237 0.959 . S
C1252 H1238 0.961 . S
C1252 C1251 1.502 . S
C1253 H1239 0.960 . S
C1253 H1240 0.961 . S
C1253 H1241 0.959 1_455 S
C1253 C1251 1.561 . S
C1254 C1251 1.526 . S
C1254 C1255 1.396 1_455 S
C1254 C1259 1.390 . S
C1255 C1249 1.465 . S
C1255 C1254 1.396 1_655 S
C1255 C1256 1.399 . S
C1256 H1242 0.929 . S
C1256 C1255 1.399 . S
C1256 C1257 1.385 . S
C1257 H1243 0.931 . S
C1257 C1256 1.385 . S
C1257 C1258 1.398 . S
C1258 C1257 1.398 . S
C1258 C1259 1.388 1_655 S
C1259 H1244 0.930 . S
C1259 C1254 1.390 . S
C1259 C1258 1.388 1_455 S
H1260 C1272 0.930 . S
H1261 C1274 0.930 . S
H1262 C1275 0.930 . S
H1263 C1279 0.959 . S
H1264 C1279 0.959 . S
H1265 C1279 0.961 . S
H1266 C1280 0.960 . S
H1267 C1280 0.961 . S
H1268 C1280 0.959 . S
H1269 C1283 0.929 . S
H1270 C1284 0.931 . S
H1271 C1286 0.930 . S
C1272 H1260 0.930 . S
C1272 C1273 1.399 . S
C1272 C1277 1.399 . S
C1273 C1272 1.399 . S
C1273 C1274 1.376 . S
C1274 H1261 0.930 . S
C1274 C1273 1.376 . S
C1274 C1275 1.388 . S
C1275 H1262 0.930 . S
C1275 C1274 1.388 . S
C1275 C1276 1.390 . S
C1276 C1275 1.390 . S
C1276 C1277 1.394 . S
C1276 C1282 1.465 . S
C1277 C1272 1.399 . S
C1277 C1276 1.394 . S
C1277 C1278 1.516 . S
C1278 C1277 1.516 . S
C1278 C1279 1.502 . S
C1278 C1280 1.561 . S
C1278 C1281 1.526 . S
C1279 H1263 0.959 . S
C1279 H1264 0.959 . S
C1279 H1265 0.961 . S
C1279 C1278 1.502 . S
C1280 H1266 0.960 . S
C1280 H1267 0.961 . S
C1280 H1268 0.959 . S
C1280 C1278 1.561 . S
C1281 C1278 1.526 . S
C1281 C1282 1.396 . S
C1281 C1286 1.390 . S
C1282 C1276 1.465 . S
C1282 C1281 1.396 . S
C1282 C1283 1.399 . S
C1283 H1269 0.929 . S
C1283 C1282 1.399 . S
C1283 C1284 1.385 . S
C1284 H1270 0.931 . S
C1284 C1283 1.385 . S
C1284 C1285 1.389 . S
C1285 C1284 1.389 . S
C1285 C1286 1.387 . S
C1286 H1271 0.930 . S
C1286 C1281 1.390 . S
C1286 C1285 1.387 . S
H1287 C1299 0.930 . S
H1288 C1301 0.930 . S
H1289 C1302 0.930 . S
H1290 C1306 0.959 . S
H1291 C1306 0.959 . S
H1292 C1306 0.961 . S
H1293 C1307 0.960 . S
H1294 C1307 0.961 . S
H1295 C1307 0.959 . S
H1296 C1310 0.929 . S
H1297 C1311 0.931 . S
H1298 C1313 0.930 . S
C1299 H1287 0.930 . S
C1299 C1300 1.399 . S
C1299 C1304 1.399 . S
C1300 C1299 1.399 . S
C1300 C1301 1.376 . S
C1301 H1288 0.930 . S
C1301 C1300 1.376 . S
C1301 C1302 1.388 . S
C1302 H1289 0.930 . S
C1302 C1301 1.388 . S
C1302 C1303 1.390 . S
C1303 C1302 1.390 . S
C1303 C1304 1.394 . S
C1303 C1309 1.465 . S
C1304 C1299 1.399 . S
C1304 C1303 1.394 . S
C1304 C1305 1.516 . S
C1305 C1304 1.516 . S
C1305 C1306 1.502 . S
C1305 C1307 1.561 . S
C1305 C1308 1.526 . S
C1306 H1290 0.959 . S
C1306 H1291 0.959 . S
C1306 H1292 0.961 . S
C1306 C1305 1.502 . S
C1307 H1293 0.960 . S
C1307 H1294 0.961 . S
C1307 H1295 0.959 . S
C1307 C1305 1.561 . S
C1308 C1305 1.526 . S
C1308 C1309 1.396 . S
C1308 C1313 1.390 . S
C1309 C1303 1.465 . S
C1309 C1308 1.396 . S
C1309 C1310 1.399 . S
C1310 H1296 0.929 . S
C1310 C1309 1.399 . S
C1310 C1311 1.385 . S
C1311 H1297 0.931 . S
C1311 C1310 1.385 . S
C1311 C1312 1.389 . S
C1312 C1311 1.389 . S
C1312 C1313 1.387 . S
C1313 H1298 0.930 . S
C1313 C1308 1.390 . S
C1313 C1312 1.387 . S
H1314 C1326 0.930 . S
H1315 C1328 0.930 . S
H1316 C1329 0.930 . S
H1317 C1333 0.959 . S
H1318 C1333 0.959 . S
H1319 C1333 0.961 . S
H1320 C1334 0.960 . S
H1321 C1334 0.961 . S
H1322 C1334 0.959 . S
H1323 C1337 0.929 . S
H1324 C1338 0.931 . S
H1325 C1340 0.930 . S
C1326 H1314 0.930 . S
C1326 C1327 1.399 . S
C1326 C1331 1.399 . S
C1327 C1326 1.399 . S
C1327 C1328 1.376 . S
C1328 H1315 0.930 . S
C1328 C1327 1.376 . S
C1328 C1329 1.388 . S
C1329 H1316 0.930 . S
C1329 C1328 1.388 . S
C1329 C1330 1.390 . S
C1330 C1329 1.390 . S
C1330 C1331 1.394 . S
C1330 C1336 1.465 . S
C1331 C1326 1.399 . S
C1331 C1330 1.394 . S
C1331 C1332 1.516 . S
C1332 C1331 1.516 . S
C1332 C1333 1.502 . S
C1332 C1334 1.561 . S
C1332 C1335 1.526 . S
C1333 H1317 0.959 . S
C1333 H1318 0.959 . S
C1333 H1319 0.961 . S
C1333 C1332 1.502 . S
C1334 H1320 0.960 . S
C1334 H1321 0.961 . S
C1334 H1322 0.959 . S
C1334 C1332 1.561 . S
C1335 C1332 1.526 . S
C1335 C1336 1.396 . S
C1335 C1340 1.390 . S
C1336 C1330 1.465 . S
C1336 C1335 1.396 . S
C1336 C1337 1.399 . S
C1337 H1323 0.929 . S
C1337 C1336 1.399 . S
C1337 C1338 1.385 . S
C1338 H1324 0.931 . S
C1338 C1337 1.385 . S
C1338 C1339 1.389 . S
C1339 C1338 1.389 . S
C1339 C1340 1.387 . S
C1340 H1325 0.930 . S
C1340 C1335 1.390 . S
C1340 C1339 1.387 . S
H1341 C1353 0.930 . S
H1342 C1355 0.930 . S
H1343 C1356 0.930 . S
H1344 C1360 0.959 . S
H1345 C1360 0.959 . S
H1346 C1360 0.961 . S
H1347 C1361 0.960 . S
H1348 C1361 0.961 . S
H1349 C1361 0.959 . S
H1350 C1364 0.929 . S
H1351 C1365 0.931 . S
H1352 C1367 0.930 . S
C1353 H1341 0.930 . S
C1353 C1354 1.399 . S
C1353 C1358 1.399 . S
C1354 C1353 1.399 . S
C1354 C1355 1.376 . S
C1355 H1342 0.930 . S
C1355 C1354 1.376 . S
C1355 C1356 1.388 . S
C1356 H1343 0.930 . S
C1356 C1355 1.388 . S
C1356 C1357 1.390 . S
C1357 C1356 1.390 . S
C1357 C1358 1.394 . S
C1357 C1363 1.465 . S
C1358 C1353 1.399 . S
C1358 C1357 1.394 . S
C1358 C1359 1.516 . S
C1359 C1358 1.516 . S
C1359 C1360 1.502 . S
C1359 C1361 1.561 . S
C1359 C1362 1.526 . S
C1360 H1344 0.959 . S
C1360 H1345 0.959 . S
C1360 H1346 0.961 . S
C1360 C1359 1.502 . S
C1361 H1347 0.960 . S
C1361 H1348 0.961 . S
C1361 H1349 0.959 . S
C1361 C1359 1.561 . S
C1362 C1359 1.526 . S
C1362 C1363 1.396 . S
C1362 C1367 1.390 . S
C1363 C1357 1.465 . S
C1363 C1362 1.396 . S
C1363 C1364 1.399 . S
C1364 H1350 0.929 . S
C1364 C1363 1.399 . S
C1364 C1365 1.385 . S
C1365 H1351 0.931 . S
C1365 C1364 1.385 . S
C1365 C1366 1.389 . S
C1366 C1365 1.389 . S
C1366 C1367 1.387 . S
C1367 H1352 0.930 . S
C1367 C1362 1.390 . S
C1367 C1366 1.387 . S
H1368 C1380 0.930 . S
H1369 C1382 0.930 . S
H1370 C1383 0.930 . S
H1371 C1387 0.959 . S
H1372 C1387 0.959 . S
H1373 C1387 0.961 . S
H1374 C1388 0.960 . S
H1375 C1388 0.961 . S
H1376 C1388 0.959 . S
H1377 C1391 0.929 . S
H1378 C1392 0.931 . S
H1379 C1394 0.930 . S
C1380 H1368 0.930 . S
C1380 C1381 1.399 . S
C1380 C1385 1.399 . S
C1381 C1380 1.399 . S
C1381 C1382 1.376 . S
C1382 H1369 0.930 . S
C1382 C1381 1.376 . S
C1382 C1383 1.388 . S
C1383 H1370 0.930 . S
C1383 C1382 1.388 . S
C1383 C1384 1.390 . S
C1384 C1383 1.390 . S
C1384 C1385 1.394 . S
C1384 C1390 1.465 . S
C1385 C1380 1.399 . S
C1385 C1384 1.394 . S
C1385 C1386 1.516 . S
C1386 C1385 1.516 . S
C1386 C1387 1.502 . S
C1386 C1388 1.561 . S
C1386 C1389 1.526 . S
C1387 H1371 0.959 . S
C1387 H1372 0.959 . S
C1387 H1373 0.961 . S
C1387 C1386 1.502 . S
C1388 H1374 0.960 . S
C1388 H1375 0.961 . S
C1388 H1376 0.959 . S
C1388 C1386 1.561 . S
C1389 C1386 1.526 . S
C1389 C1390 1.396 . S
C1389 C1394 1.390 . S
C1390 C1384 1.465 . S
C1390 C1389 1.396 . S
C1390 C1391 1.399 . S
C1391 H1377 0.929 . S
C1391 C1390 1.399 . S
C1391 C1392 1.385 . S
C1392 H1378 0.931 . S
C1392 C1391 1.385 . S
C1392 C1393 1.389 . S
C1393 C1392 1.389 . S
C1393 C1394 1.387 . S
C1394 H1379 0.930 . S
C1394 C1389 1.390 . S
C1394 C1393 1.387 . S
H1395 C1407 0.930 . S
H1396 C1409 0.930 . S
H1397 C1410 0.930 . S
H1398 C1414 0.959 . S
H1399 C1414 0.959 . S
H1400 C1414 0.961 . S
H1401 C1415 0.960 . S
H1402 C1415 0.961 . S
H1403 C1415 0.959 . S
H1404 C1418 0.929 . S
H1405 C1419 0.931 . S
H1406 C1421 0.930 . S
C1407 H1395 0.930 . S
C1407 C1408 1.399 . S
C1407 C1412 1.399 . S
C1408 C1407 1.399 . S
C1408 C1409 1.376 . S
C1409 H1396 0.930 . S
C1409 C1408 1.376 . S
C1409 C1410 1.388 . S
C1410 H1397 0.930 . S
C1410 C1409 1.388 . S
C1410 C1411 1.390 . S
C1411 C1410 1.390 . S
C1411 C1412 1.394 . S
C1411 C1417 1.465 . S
C1412 C1407 1.399 . S
C1412 C1411 1.394 . S
C1412 C1413 1.516 . S
C1413 C1412 1.516 . S
C1413 C1414 1.502 . S
C1413 C1415 1.561 . S
C1413 C1416 1.526 . S
C1414 H1398 0.959 . S
C1414 H1399 0.959 . S
C1414 H1400 0.961 . S
C1414 C1413 1.502 . S
C1415 H1401 0.960 . S
C1415 H1402 0.961 . S
C1415 H1403 0.959 . S
C1415 C1413 1.561 . S
C1416 C1413 1.526 . S
C1416 C1417 1.396 . S
C1416 C1421 1.390 . S
C1417 C1411 1.465 . S
C1417 C1416 1.396 . S
C1417 C1418 1.399 . S
C1418 H1404 0.929 . S
C1418 C1417 1.399 . S
C1418 C1419 1.385 . S
C1419 H1405 0.931 . S
C1419 C1418 1.385 . S
C1419 C1420 1.389 . S
C1420 C1419 1.389 . S
C1420 C1421 1.387 . S
C1421 H1406 0.930 . S
C1421 C1416 1.390 . S
C1421 C1420 1.387 . S
H1422 C1434 0.930 . S
H1423 C1436 0.930 . S
H1424 C1437 0.930 . S
H1425 C1441 0.959 . S
H1426 C1441 0.959 . S
H1427 C1441 0.961 . S
H1428 C1442 0.960 . S
H1429 C1442 0.961 . S
H1430 C1442 0.959 . S
H1431 C1445 0.929 . S
H1432 C1446 0.931 . S
H1433 C1448 0.930 . S
C1434 H1422 0.930 . S
C1434 C1435 1.399 . S
C1434 C1439 1.399 . S
C1435 C1434 1.399 . S
C1435 C1436 1.376 . S
C1436 H1423 0.930 . S
C1436 C1435 1.376 . S
C1436 C1437 1.388 . S
C1437 H1424 0.930 . S
C1437 C1436 1.388 . S
C1437 C1438 1.390 . S
C1438 C1437 1.390 . S
C1438 C1439 1.394 . S
C1438 C1444 1.465 . S
C1439 C1434 1.399 . S
C1439 C1438 1.394 . S
C1439 C1440 1.516 . S
C1440 C1439 1.516 . S
C1440 C1441 1.502 . S
C1440 C1442 1.561 . S
C1440 C1443 1.526 . S
C1441 H1425 0.959 . S
C1441 H1426 0.959 . S
C1441 H1427 0.961 . S
C1441 C1440 1.502 . S
C1442 H1428 0.960 . S
C1442 H1429 0.961 . S
C1442 H1430 0.959 . S
C1442 C1440 1.561 . S
C1443 C1440 1.526 . S
C1443 C1444 1.396 . S
C1443 C1448 1.390 . S
C1444 C1438 1.465 . S
C1444 C1443 1.396 . S
C1444 C1445 1.399 . S
C1445 H1431 0.929 . S
C1445 C1444 1.399 . S
C1445 C1446 1.385 . S
C1446 H1432 0.931 . S
C1446 C1445 1.385 . S
C1446 C1447 1.389 . S
C1447 C1446 1.389 . S
C1447 C1448 1.387 . S
C1448 H1433 0.930 . S
C1448 C1443 1.390 . S
C1448 C1447 1.387 . S
H1449 C1461 0.930 . S
H1450 C1463 0.930 . S
H1451 C1464 0.930 . S
H1452 C1468 0.959 . S
H1453 C1468 0.959 . S
H1454 C1468 0.961 . S
H1455 C1469 0.960 . S
H1456 C1469 0.961 . S
H1457 C1469 0.959 . S
H1458 C1472 0.929 . S
H1459 C1473 0.931 . S
H1460 C1475 0.930 . S
C1461 H1449 0.930 . S
C1461 C1462 1.399 . S
C1461 C1466 1.399 . S
C1462 C1461 1.399 . S
C1462 C1463 1.376 . S
C1463 H1450 0.930 . S
C1463 C1462 1.376 . S
C1463 C1464 1.388 . S
C1464 H1451 0.930 . S
C1464 C1463 1.388 . S
C1464 C1465 1.390 . S
C1465 C1464 1.390 . S
C1465 C1466 1.394 . S
C1465 C1471 1.465 . S
C1466 C1461 1.399 . S
C1466 C1465 1.394 . S
C1466 C1467 1.516 . S
C1467 C1466 1.516 . S
C1467 C1468 1.502 . S
C1467 C1469 1.561 . S
C1467 C1470 1.526 . S
C1468 H1452 0.959 . S
C1468 H1453 0.959 . S
C1468 H1454 0.961 . S
C1468 C1467 1.502 . S
C1469 H1455 0.960 . S
C1469 H1456 0.961 . S
C1469 H1457 0.959 . S
C1469 C1467 1.561 . S
C1470 C1467 1.526 . S
C1470 C1471 1.396 . S
C1470 C1475 1.390 . S
C1471 C1465 1.465 . S
C1471 C1470 1.396 . S
C1471 C1472 1.399 . S
C1472 H1458 0.929 . S
C1472 C1471 1.399 . S
C1472 C1473 1.385 . S
C1473 H1459 0.931 . S
C1473 C1472 1.385 . S
C1473 C1474 1.389 . S
C1474 C1473 1.389 . S
C1474 C1475 1.387 . S
C1475 H1460 0.930 . S
C1475 C1470 1.390 . S
C1475 C1474 1.387 . S
H1476 C1488 0.930 . S
H1477 C1490 0.930 . S
H1478 C1491 0.930 . S
H1479 C1495 0.959 . S
H1480 C1495 0.959 . S
H1481 C1495 0.961 . S
H1482 C1496 0.960 . S
H1483 C1496 0.961 . S
H1484 C1496 0.959 . S
H1485 C1499 0.929 . S
H1486 C1500 0.931 . S
H1487 C1502 0.930 . S
C1488 H1476 0.930 . S
C1488 C1489 1.399 . S
C1488 C1493 1.399 . S
C1489 C1488 1.399 . S
C1489 C1490 1.376 . S
C1490 H1477 0.930 . S
C1490 C1489 1.376 . S
C1490 C1491 1.388 . S
C1491 H1478 0.930 . S
C1491 C1490 1.388 . S
C1491 C1492 1.390 . S
C1492 C1491 1.390 . S
C1492 C1493 1.394 . S
C1492 C1498 1.465 . S
C1493 C1488 1.399 . S
C1493 C1492 1.394 . S
C1493 C1494 1.516 . S
C1494 C1493 1.516 . S
C1494 C1495 1.502 . S
C1494 C1496 1.561 . S
C1494 C1497 1.526 . S
C1495 H1479 0.959 . S
C1495 H1480 0.959 . S
C1495 H1481 0.961 . S
C1495 C1494 1.502 . S
C1496 H1482 0.960 . S
C1496 H1483 0.961 . S
C1496 H1484 0.959 . S
C1496 C1494 1.561 . S
C1497 C1494 1.526 . S
C1497 C1498 1.396 . S
C1497 C1502 1.390 . S
C1498 C1492 1.465 . S
C1498 C1497 1.396 . S
C1498 C1499 1.399 . S
C1499 H1485 0.929 . S
C1499 C1498 1.399 . S
C1499 C1500 1.385 . S
C1500 H1486 0.931 . S
C1500 C1499 1.385 . S
C1500 C1501 1.389 . S
C1501 C1500 1.389 . S
C1501 C1502 1.387 . S
C1502 H1487 0.930 . S
C1502 C1497 1.390 . S
C1502 C1501 1.387 . S
H1503 C1515 0.930 . S
H1504 C1517 0.930 . S
H1505 C1518 0.930 . S
H1506 C1522 0.959 . S
H1507 C1522 0.959 . S
H1508 C1522 0.961 . S
H1509 C1523 0.960 . S
H1510 C1523 0.961 . S
H1511 C1523 0.959 . S
H1512 C1526 0.929 . S
H1513 C1527 0.931 . S
H1514 C1529 0.930 . S
C1515 H1503 0.930 . S
C1515 C1516 1.399 . S
C1515 C1520 1.399 . S
C1516 C1515 1.399 . S
C1516 C1517 1.376 . S
C1517 H1504 0.930 . S
C1517 C1516 1.376 . S
C1517 C1518 1.388 . S
C1518 H1505 0.930 . S
C1518 C1517 1.388 . S
C1518 C1519 1.390 . S
C1519 C1518 1.390 . S
C1519 C1520 1.394 . S
C1519 C1525 1.465 . S
C1520 C1515 1.399 . S
C1520 C1519 1.394 . S
C1520 C1521 1.516 . S
C1521 C1520 1.516 . S
C1521 C1522 1.502 . S
C1521 C1523 1.561 . S
C1521 C1524 1.526 . S
C1522 H1506 0.959 . S
C1522 H1507 0.959 . S
C1522 H1508 0.961 . S
C1522 C1521 1.502 . S
C1523 H1509 0.960 . S
C1523 H1510 0.961 . S
C1523 H1511 0.959 . S
C1523 C1521 1.561 . S
C1524 C1521 1.526 . S
C1524 C1525 1.396 . S
C1524 C1529 1.390 . S
C1525 C1519 1.465 . S
C1525 C1524 1.396 . S
C1525 C1526 1.399 . S
C1526 H1512 0.929 . S
C1526 C1525 1.399 . S
C1526 C1527 1.385 . S
C1527 H1513 0.931 . S
C1527 C1526 1.385 . S
C1527 C1528 1.389 . S
C1528 C1527 1.389 . S
C1528 C1529 1.387 . S
C1529 H1514 0.930 . S
C1529 C1524 1.390 . S
C1529 C1528 1.387 . S
H1530 C1542 0.930 . S
H1531 C1544 0.930 . S
H1532 C1545 0.930 . S
H1533 C1549 0.959 . S
H1534 C1549 0.959 . S
H1535 C1549 0.961 . S
H1536 C1550 0.960 . S
H1537 C1550 0.961 . S
H1538 C1550 0.959 . S
H1539 C1553 0.929 . S
H1540 C1554 0.931 . S
H1541 C1556 0.930 . S
C1542 H1530 0.930 . S
C1542 C1543 1.399 . S
C1542 C1547 1.399 . S
C1543 C1542 1.399 . S
C1543 C1544 1.376 . S
C1544 H1531 0.930 . S
C1544 C1543 1.376 . S
C1544 C1545 1.388 . S
C1545 H1532 0.930 . S
C1545 C1544 1.388 . S
C1545 C1546 1.390 . S
C1546 C1545 1.390 . S
C1546 C1547 1.394 . S
C1546 C1552 1.465 . S
C1547 C1542 1.399 . S
C1547 C1546 1.394 . S
C1547 C1548 1.516 . S
C1548 C1547 1.516 . S
C1548 C1549 1.502 . S
C1548 C1550 1.561 . S
C1548 C1551 1.526 . S
C1549 H1533 0.959 . S
C1549 H1534 0.959 . S
C1549 H1535 0.961 . S
C1549 C1548 1.502 . S
C1550 H1536 0.960 . S
C1550 H1537 0.961 . S
C1550 H1538 0.959 . S
C1550 C1548 1.561 . S
C1551 C1548 1.526 . S
C1551 C1552 1.396 . S
C1551 C1556 1.390 . S
C1552 C1546 1.465 . S
C1552 C1551 1.396 . S
C1552 C1553 1.399 . S
C1553 H1539 0.929 . S
C1553 C1552 1.399 . S
C1553 C1554 1.385 . S
C1554 H1540 0.931 . S
C1554 C1553 1.385 . S
C1554 C1555 1.389 . S
C1555 C1554 1.389 . S
C1555 C1556 1.387 . S
C1556 H1541 0.930 . S
C1556 C1551 1.390 . S
C1556 C1555 1.387 . S
H1557 C1569 0.930 . S
H1558 C1571 0.930 . S
H1559 C1572 0.930 . S
H1560 C1576 0.959 . S
H1561 C1576 0.959 . S
H1562 C1576 0.961 . S
H1563 C1577 0.960 . S
H1564 C1577 0.961 . S
H1565 C1577 0.959 . S
H1566 C1580 0.929 . S
H1567 C1581 0.931 . S
H1568 C1583 0.930 . S
C1569 H1557 0.930 . S
C1569 C1570 1.399 . S
C1569 C1574 1.399 . S
C1570 C1569 1.399 . S
C1570 C1571 1.376 . S
C1571 H1558 0.930 . S
C1571 C1570 1.376 . S
C1571 C1572 1.388 . S
C1572 H1559 0.930 . S
C1572 C1571 1.388 . S
C1572 C1573 1.390 . S
C1573 C1572 1.390 . S
C1573 C1574 1.394 . S
C1573 C1579 1.465 . S
C1574 C1569 1.399 . S
C1574 C1573 1.394 . S
C1574 C1575 1.516 . S
C1575 C1574 1.516 . S
C1575 C1576 1.502 . S
C1575 C1577 1.561 . S
C1575 C1578 1.526 . S
C1576 H1560 0.959 . S
C1576 H1561 0.959 . S
C1576 H1562 0.961 . S
C1576 C1575 1.502 . S
C1577 H1563 0.960 . S
C1577 H1564 0.961 . S
C1577 H1565 0.959 . S
C1577 C1575 1.561 . S
C1578 C1575 1.526 . S
C1578 C1579 1.396 . S
C1578 C1583 1.390 . S
C1579 C1573 1.465 . S
C1579 C1578 1.396 . S
C1579 C1580 1.399 . S
C1580 H1566 0.929 . S
C1580 C1579 1.399 . S
C1580 C1581 1.385 . S
C1581 H1567 0.931 . S
C1581 C1580 1.385 . S
C1581 C1582 1.389 . S
C1582 C1581 1.389 . S
C1582 C1583 1.387 . S
C1583 H1568 0.930 . S
C1583 C1578 1.390 . S
C1583 C1582 1.387 . S
H1584 C1596 0.930 . S
H1585 C1598 0.930 . S
H1586 C1599 0.930 . S
H1587 C1603 0.959 . S
H1588 C1603 0.959 . S
H1589 C1603 0.961 . S
H1590 C1604 0.960 . S
H1591 C1604 0.961 . S
H1592 C1604 0.959 . S
H1593 C1607 0.929 . S
H1594 C1608 0.931 . S
H1595 C1610 0.930 . S
C1596 H1584 0.930 . S
C1596 C1597 1.399 . S
C1596 C1601 1.399 . S
C1597 C1596 1.399 . S
C1597 C1598 1.376 . S
C1598 H1585 0.930 . S
C1598 C1597 1.376 . S
C1598 C1599 1.388 . S
C1599 H1586 0.930 . S
C1599 C1598 1.388 . S
C1599 C1600 1.390 . S
C1600 C1599 1.390 . S
C1600 C1601 1.394 . S
C1600 C1606 1.465 . S
C1601 C1596 1.399 . S
C1601 C1600 1.394 . S
C1601 C1602 1.516 . S
C1602 C1601 1.516 . S
C1602 C1603 1.502 . S
C1602 C1604 1.561 . S
C1602 C1605 1.526 . S
C1603 H1587 0.959 . S
C1603 H1588 0.959 . S
C1603 H1589 0.961 . S
C1603 C1602 1.502 . S
C1604 H1590 0.960 . S
C1604 H1591 0.961 . S
C1604 H1592 0.959 . S
C1604 C1602 1.561 . S
C1605 C1602 1.526 . S
C1605 C1606 1.396 . S
C1605 C1610 1.390 . S
C1606 C1600 1.465 . S
C1606 C1605 1.396 . S
C1606 C1607 1.399 . S
C1607 H1593 0.929 . S
C1607 C1606 1.399 . S
C1607 C1608 1.385 . S
C1608 H1594 0.931 . S
C1608 C1607 1.385 . S
C1608 C1609 1.389 . S
C1609 C1608 1.389 . S
C1609 C1610 1.387 . S
C1610 H1595 0.930 . S
C1610 C1605 1.390 . S
C1610 C1609 1.387 . S
H1611 C1623 0.930 . S
H1612 C1625 0.930 . S
H1613 C1626 0.930 . S
H1614 C1630 0.959 . S
H1615 C1630 0.959 . S
H1616 C1630 0.961 . S
H1617 C1631 0.960 . S
H1618 C1631 0.961 . S
H1619 C1631 0.959 . S
H1620 C1634 0.929 . S
H1621 C1635 0.931 . S
H1622 C1637 0.930 . S
C1623 H1611 0.930 . S
C1623 C1624 1.399 . S
C1623 C1628 1.399 . S
C1624 C1623 1.399 . S
C1624 C1625 1.376 . S
C1625 H1612 0.930 . S
C1625 C1624 1.376 . S
C1625 C1626 1.388 . S
C1626 H1613 0.930 . S
C1626 C1625 1.388 . S
C1626 C1627 1.390 . S
C1627 C1626 1.390 . S
C1627 C1628 1.394 . S
C1627 C1633 1.465 . S
C1628 C1623 1.399 . S
C1628 C1627 1.394 . S
C1628 C1629 1.516 . S
C1629 C1628 1.516 . S
C1629 C1630 1.502 . S
C1629 C1631 1.561 . S
C1629 C1632 1.526 . S
C1630 H1614 0.959 . S
C1630 H1615 0.959 . S
C1630 H1616 0.961 . S
C1630 C1629 1.502 . S
C1631 H1617 0.960 . S
C1631 H1618 0.961 . S
C1631 H1619 0.959 . S
C1631 C1629 1.561 . S
C1632 C1629 1.526 . S
C1632 C1633 1.396 . S
C1632 C1637 1.390 . S
C1633 C1627 1.465 . S
C1633 C1632 1.396 . S
C1633 C1634 1.399 . S
C1634 H1620 0.929 . S
C1634 C1633 1.399 . S
C1634 C1635 1.385 . S
C1635 H1621 0.931 . S
C1635 C1634 1.385 . S
C1635 C1636 1.389 . S
C1636 C1635 1.389 . S
C1636 C1637 1.387 . S
C1637 H1622 0.930 . S
C1637 C1632 1.390 . S
C1637 C1636 1.387 . S
H1638 C1650 0.930 . S
H1639 C1652 0.930 . S
H1640 C1653 0.930 . S
H1641 C1657 0.959 . S
H1642 C1657 0.959 . S
H1643 C1657 0.961 . S
H1644 C1658 0.960 . S
H1645 C1658 0.961 . S
H1646 C1658 0.959 . S
H1647 C1661 0.929 . S
H1648 C1662 0.931 . S
H1649 C1664 0.930 . S
C1650 H1638 0.930 . S
C1650 C1651 1.399 . S
C1650 C1655 1.399 . S
C1651 C1650 1.399 . S
C1651 C1652 1.376 . S
C1652 H1639 0.930 . S
C1652 C1651 1.376 . S
C1652 C1653 1.388 . S
C1653 H1640 0.930 . S
C1653 C1652 1.388 . S
C1653 C1654 1.390 . S
C1654 C1653 1.390 . S
C1654 C1655 1.394 . S
C1654 C1660 1.465 . S
C1655 C1650 1.399 . S
C1655 C1654 1.394 . S
C1655 C1656 1.516 . S
C1656 C1655 1.516 . S
C1656 C1657 1.502 . S
C1656 C1658 1.561 . S
C1656 C1659 1.526 . S
C1657 H1641 0.959 . S
C1657 H1642 0.959 . S
C1657 H1643 0.961 . S
C1657 C1656 1.502 . S
C1658 H1644 0.960 . S
C1658 H1645 0.961 . S
C1658 H1646 0.959 . S
C1658 C1656 1.561 . S
C1659 C1656 1.526 . S
C1659 C1660 1.396 . S
C1659 C1664 1.390 . S
C1660 C1654 1.465 . S
C1660 C1659 1.396 . S
C1660 C1661 1.399 . S
C1661 H1647 0.929 . S
C1661 C1660 1.399 . S
C1661 C1662 1.385 . S
C1662 H1648 0.931 . S
C1662 C1661 1.385 . S
C1662 C1663 1.389 . S
C1663 C1662 1.389 . S
C1663 C1664 1.387 . S
C1664 H1649 0.930 . S
C1664 C1659 1.390 . S
C1664 C1663 1.387 . S
H1665 C1677 0.930 . S
H1666 C1679 0.930 . S
H1667 C1680 0.930 . S
H1668 C1684 0.959 . S
H1669 C1684 0.959 . S
H1670 C1684 0.961 . S
H1671 C1685 0.960 . S
H1672 C1685 0.961 . S
H1673 C1685 0.959 . S
H1674 C1688 0.929 . S
H1675 C1689 0.931 . S
H1676 C1691 0.930 . S
C1677 H1665 0.930 . S
C1677 C1678 1.399 . S
C1677 C1682 1.399 . S
C1678 C1677 1.399 . S
C1678 C1679 1.376 . S
C1679 H1666 0.930 . S
C1679 C1678 1.376 . S
C1679 C1680 1.388 . S
C1680 H1667 0.930 . S
C1680 C1679 1.388 . S
C1680 C1681 1.390 . S
C1681 C1680 1.390 . S
C1681 C1682 1.394 . S
C1681 C1687 1.465 . S
C1682 C1677 1.399 . S
C1682 C1681 1.394 . S
C1682 C1683 1.516 . S
C1683 C1682 1.516 . S
C1683 C1684 1.502 . S
C1683 C1685 1.561 . S
C1683 C1686 1.526 . S
C1684 H1668 0.959 . S
C1684 H1669 0.959 . S
C1684 H1670 0.961 . S
C1684 C1683 1.502 . S
C1685 H1671 0.960 . S
C1685 H1672 0.961 . S
C1685 H1673 0.959 . S
C1685 C1683 1.561 . S
C1686 C1683 1.526 . S
C1686 C1687 1.396 . S
C1686 C1691 1.390 . S
C1687 C1681 1.465 . S
C1687 C1686 1.396 . S
C1687 C1688 1.399 . S
C1688 H1674 0.929 . S
C1688 C1687 1.399 . S
C1688 C1689 1.385 . S
C1689 H1675 0.931 . S
C1689 C1688 1.385 . S
C1689 C1690 1.389 . S
C1690 C1689 1.389 . S
C1690 C1691 1.387 . S
C1691 H1676 0.930 . S
C1691 C1686 1.390 . S
C1691 C1690 1.387 . S
H1692 C1704 0.930 . S
H1693 C1706 0.930 . S
H1694 C1707 0.930 . S
H1695 C1711 0.959 . S
H1696 C1711 0.959 . S
H1697 C1711 0.961 . S
H1698 C1712 0.960 . S
H1699 C1712 0.961 . S
H1700 C1712 0.959 . S
H1701 C1715 0.929 . S
H1702 C1716 0.931 . S
H1703 C1718 0.930 . S
C1704 H1692 0.930 . S
C1704 C1705 1.399 . S
C1704 C1709 1.399 . S
C1705 C1704 1.399 . S
C1705 C1706 1.376 . S
C1706 H1693 0.930 . S
C1706 C1705 1.376 . S
C1706 C1707 1.388 . S
C1707 H1694 0.930 . S
C1707 C1706 1.388 . S
C1707 C1708 1.390 . S
C1708 C1707 1.390 . S
C1708 C1709 1.394 . S
C1708 C1714 1.465 . S
C1709 C1704 1.399 . S
C1709 C1708 1.394 . S
C1709 C1710 1.516 . S
C1710 C1709 1.516 . S
C1710 C1711 1.502 . S
C1710 C1712 1.561 . S
C1710 C1713 1.526 . S
C1711 H1695 0.959 . S
C1711 H1696 0.959 . S
C1711 H1697 0.961 . S
C1711 C1710 1.502 . S
C1712 H1698 0.960 . S
C1712 H1699 0.961 . S
C1712 H1700 0.959 . S
C1712 C1710 1.561 . S
C1713 C1710 1.526 . S
C1713 C1714 1.396 . S
C1713 C1718 1.390 . S
C1714 C1708 1.465 . S
C1714 C1713 1.396 . S
C1714 C1715 1.399 . S
C1715 H1701 0.929 . S
C1715 C1714 1.399 . S
C1715 C1716 1.385 . S
C1716 H1702 0.931 . S
C1716 C1715 1.385 . S
C1716 C1717 1.389 . S
C1717 C1716 1.389 . S
C1717 C1718 1.387 . S
C1718 H1703 0.930 . S
C1718 C1713 1.390 . S
C1718 C1717 1.387 . S
H1719 C1731 0.930 . S
H1720 C1733 0.930 . S
H1721 C1734 0.930 . S
H1722 C1738 0.959 . S
H1723 C1738 0.959 . S
H1724 C1738 0.961 . S
H1725 C1739 0.960 . S
H1726 C1739 0.961 . S
H1727 C1739 0.959 . S
H1728 C1742 0.929 . S
H1729 C1743 0.931 . S
H1730 C1745 0.930 . S
C1731 H1719 0.930 . S
C1731 C1732 1.399 . S
C1731 C1736 1.399 . S
C1732 C1731 1.399 . S
C1732 C1733 1.376 . S
C1733 H1720 0.930 . S
C1733 C1732 1.376 . S
C1733 C1734 1.388 . S
C1734 H1721 0.930 . S
C1734 C1733 1.388 . S
C1734 C1735 1.390 . S
C1735 C1734 1.390 . S
C1735 C1736 1.394 . S
C1735 C1741 1.465 . S
C1736 C1731 1.399 . S
C1736 C1735 1.394 . S
C1736 C1737 1.516 . S
C1737 C1736 1.516 . S
C1737 C1738 1.502 . S
C1737 C1739 1.561 . S
C1737 C1740 1.526 . S
C1738 H1722 0.959 . S
C1738 H1723 0.959 . S
C1738 H1724 0.961 . S
C1738 C1737 1.502 . S
C1739 H1725 0.960 . S
C1739 H1726 0.961 . S
C1739 H1727 0.959 . S
C1739 C1737 1.561 . S
C1740 C1737 1.526 . S
C1740 C1741 1.396 . S
C1740 C1745 1.390 . S
C1741 C1735 1.465 . S
C1741 C1740 1.396 . S
C1741 C1742 1.399 . S
C1742 H1728 0.929 . S
C1742 C1741 1.399 . S
C1742 C1743 1.385 . S
C1743 H1729 0.931 . S
C1743 C1742 1.385 . S
C1743 C1744 1.389 . S
C1744 C1743 1.389 . S
C1744 C1745 1.387 . S
C1745 H1730 0.930 . S
C1745 C1740 1.390 . S
C1745 C1744 1.387 . S
H1746 C1758 0.930 . S
H1747 C1760 0.930 . S
H1748 C1761 0.930 . S
H1749 C1765 0.959 . S
H1750 C1765 0.959 . S
H1751 C1765 0.961 . S
H1752 C1766 0.960 . S
H1753 C1766 0.961 . S
H1754 C1766 0.959 . S
H1755 C1769 0.929 . S
H1756 C1770 0.931 . S
H1757 C1772 0.930 . S
C1758 H1746 0.930 . S
C1758 C1759 1.399 1_455 S
C1758 C1763 1.399 . S
C1759 C1758 1.399 1_655 S
C1759 C1760 1.376 . S
C1760 H1747 0.930 . S
C1760 C1759 1.376 . S
C1760 C1761 1.388 . S
C1761 H1748 0.930 . S
C1761 C1760 1.388 . S
C1761 C1762 1.390 . S
C1762 C1761 1.390 . S
C1762 C1763 1.394 1_655 S
C1762 C1768 1.465 . S
C1763 C1758 1.399 . S
C1763 C1762 1.394 1_455 S
C1763 C1764 1.516 . S
C1764 C1763 1.516 . S
C1764 C1765 1.502 . S
C1764 C1766 1.561 . S
C1764 C1767 1.526 . S
C1765 H1749 0.959 . S
C1765 H1750 0.959 . S
C1765 H1751 0.961 . S
C1765 C1764 1.502 . S
C1766 H1752 0.960 . S
C1766 H1753 0.961 . S
C1766 H1754 0.959 . S
C1766 C1764 1.561 . S
C1767 C1764 1.526 . S
C1767 C1768 1.396 1_455 S
C1767 C1772 1.390 . S
C1768 C1762 1.465 . S
C1768 C1767 1.396 1_655 S
C1768 C1769 1.399 . S
C1769 H1755 0.929 . S
C1769 C1768 1.399 . S
C1769 C1770 1.385 . S
C1770 H1756 0.931 . S
C1770 C1769 1.385 . S
C1770 C1771 1.389 1_655 S
C1771 C1770 1.389 1_455 S
C1771 C1772 1.387 . S
C1772 H1757 0.930 . S
C1772 C1767 1.390 . S
C1772 C1771 1.387 . S
H1773 C1785 0.930 . S
H1774 C1787 0.930 . S
H1775 C1788 0.930 . S
H1776 C1792 0.959 . S
H1777 C1792 0.959 . S
H1778 C1792 0.961 . S
H1779 C1793 0.960 . S
H1780 C1793 0.961 . S
H1781 C1793 0.959 . S
H1782 C1796 0.929 . S
H1783 C1797 0.931 . S
H1784 C1799 0.930 . S
C1785 H1773 0.930 . S
C1785 C1786 1.399 . S
C1785 C1790 1.399 . S
C1786 C1785 1.399 . S
C1786 C1787 1.376 . S
C1787 H1774 0.930 . S
C1787 C1786 1.376 . S
C1787 C1788 1.388 . S
C1788 H1775 0.930 . S
C1788 C1787 1.388 . S
C1788 C1789 1.390 . S
C1789 C1788 1.390 . S
C1789 C1790 1.394 . S
C1789 C1795 1.465 . S
C1790 C1785 1.399 . S
C1790 C1789 1.394 . S
C1790 C1791 1.516 . S
C1791 C1790 1.516 . S
C1791 C1792 1.502 . S
C1791 C1793 1.561 . S
C1791 C1794 1.526 . S
C1792 H1776 0.959 . S
C1792 H1777 0.959 . S
C1792 H1778 0.961 . S
C1792 C1791 1.502 . S
C1793 H1779 0.960 . S
C1793 H1780 0.961 . S
C1793 H1781 0.959 . S
C1793 C1791 1.561 . S
C1794 C1791 1.526 . S
C1794 C1795 1.396 . S
C1794 C1799 1.390 . S
C1795 C1789 1.465 . S
C1795 C1794 1.396 . S
C1795 C1796 1.399 . S
C1796 H1782 0.929 . S
C1796 C1795 1.399 . S
C1796 C1797 1.385 . S
C1797 H1783 0.931 . S
C1797 C1796 1.385 . S
C1797 C1798 1.389 . S
C1798 C1797 1.389 . S
C1798 C1799 1.387 . S
C1799 H1784 0.930 . S
C1799 C1794 1.390 . S
C1799 C1798 1.387 . S
H1800 C1812 0.930 . S
H1801 C1814 0.930 . S
H1802 C1815 0.930 . S
H1803 C1819 0.959 . S
H1804 C1819 0.959 . S
H1805 C1819 0.961 . S
H1806 C1820 0.960 . S
H1807 C1820 0.961 . S
H1808 C1820 0.959 . S
H1809 C1823 0.929 . S
H1810 C1824 0.931 . S
H1811 C1826 0.930 . S
C1812 H1800 0.930 . S
C1812 C1813 1.399 1_565 S
C1812 C1817 1.399 . S
C1813 C1812 1.399 1_545 S
C1813 C1814 1.376 . S
C1814 H1801 0.930 . S
C1814 C1813 1.376 . S
C1814 C1815 1.388 . S
C1815 H1802 0.930 . S
C1815 C1814 1.388 . S
C1815 C1816 1.390 . S
C1816 C1815 1.390 . S
C1816 C1817 1.394 1_545 S
C1816 C1822 1.465 . S
C1817 C1812 1.399 . S
C1817 C1816 1.394 1_565 S
C1817 C1818 1.516 . S
C1818 C1817 1.516 . S
C1818 C1819 1.502 . S
C1818 C1820 1.561 . S
C1818 C1821 1.526 . S
C1819 H1803 0.959 . S
C1819 H1804 0.959 . S
C1819 H1805 0.961 . S
C1819 C1818 1.502 . S
C1820 H1806 0.960 . S
C1820 H1807 0.961 . S
C1820 H1808 0.959 . S
C1820 C1818 1.561 . S
C1821 C1818 1.526 . S
C1821 C1822 1.396 1_565 S
C1821 C1826 1.390 . S
C1822 C1816 1.465 . S
C1822 C1821 1.396 1_545 S
C1822 C1823 1.399 . S
C1823 H1809 0.929 . S
C1823 C1822 1.399 . S
C1823 C1824 1.385 . S
C1824 H1810 0.931 . S
C1824 C1823 1.385 . S
C1824 C1825 1.389 1_545 S
C1825 C1824 1.389 1_565 S
C1825 C1826 1.387 . S
C1826 H1811 0.930 . S
C1826 C1821 1.390 . S
C1826 C1825 1.387 . S
C625 C9 1.332 . S
C637 C156 1.329 . S
C652 C43 1.356 . S
C664 C190 1.355 . S
C679 C77 1.365 . S
C691 C122 1.371 . S
C706 C54 1.315 . S
C718 C111 1.316 . S
C733 C145 1.353 . S
C745 C88 1.356 . S
C760 C20 1.372 . S
C772 C179 1.369 . S
C787 C213 1.371 . S
C799 C360 1.372 1_455 S
C814 C394 1.341 . S
C826 C247 1.337 . S
C841 C281 1.350 . S
C853 C326 1.349 . S
C868 C258 1.337 . S
C880 C315 1.335 . S
C895 C349 1.339 . S
C907 C292 1.348 . S
C922 C224 1.342 . S
C934 C383 1.332 . S
C949 C564 1.353 . S
C961 C417 1.352 . S
C976 C598 1.356 . S
C988 C451 1.357 . S
C1003 C530 1.330 . S
C1015 C485 1.326 . S
C1030 C519 1.342 . S
C1042 C462 1.349 1_655 S
C1057 C496 1.345 . S
C1069 C553 1.351 . S
C1084 C428 1.332 . S
C1096 C587 1.333 . S
C1111 C33 1.384 . S
C1123 C379 1.348 . S
C1138 C67 1.342 . S
C1150 C311 1.280 1_565 S
C1165 C345 1.380 1_455 S
C1177 C101 1.394 . S
C1192 C481 1.334 . S
C1204 C135 1.337 . S
C1219 C413 1.275 1_545 S
C1231 C169 1.344 . S
C1246 C447 1.377 1_655 S
C1258 C203 1.346 1_655 S
C1273 C583 1.370 . S
C1285 C237 1.385 . S
C1300 C515 1.327 . S
C1312 C271 1.381 . S
C1327 C305 1.340 . S
C1339 C549 1.332 . S
C1354 C73 1.306 . S
C1366 C339 1.351 . S
C1381 C373 1.328 . S
C1393 C5 1.349 . S
C1408 C407 1.319 . S
C1420 C39 1.340 . S
C1435 C441 1.352 . S
C1447 C175 1.310 . S
C1462 C107 1.310 . S
C1474 C475 1.364 . S
C1489 C509 1.316 . S
C1501 C141 1.264 . S
C1516 C543 1.365 . S
C1528 C277 1.375 . S
C1543 C577 1.345 . S
C1555 C209 1.363 . S
C1570 C611 1.386 . S
C1582 C243 1.329 . S
C1597 C308 1.993 . S
C1609 C2 1.992 . S
C1624 C36 2.018 . S
C1636 C342 2.017 . S
C1651 C70 2.005 . S
C1663 C376 2.012 . S
C1678 C104 1.993 . S
C1690 C410 1.993 . S
C1705 C444 2.018 . S
C1717 C138 2.018 . S
C1732 C172 2.006 . S
C1744 C478 2.011 . S
C1759 C206 1.971 . S
C1771 C512 1.969 . S
C1786 C546 1.977 . S
C1798 C240 1.975 . S
C1813 C274 1.973 . S
C1825 C580 1.971 . S
