# Generated by pormake.
# Topology qdl, (4)-cn, num edge types: 1
# Building blocks:
#     Node 0, Type 0, BuildingBlock: NAWXER_clean_sbu_0, # of connection points: 4
#     Node 1, Type 0, BuildingBlock: NAWXER_clean_sbu_0, # of connection points: 4
#     Node 2, Type 0, BuildingBlock: NAWXER_clean_sbu_0, # of connection points: 4
#     Node 3, Type 0, BuildingBlock: NAWXER_clean_sbu_0, # of connection points: 4
#     Node 4, Type 0, BuildingBlock: NAWXER_clean_sbu_0, # of connection points: 4
#     Node 5, Type 0, BuildingBlock: NAWXER_clean_sbu_0, # of connection points: 4
#     Edge 6, Type (0, 0), BuildingBlock: XIVTED_clean_linker_0, # of connection points: 2
#     Edge 7, Type (0, 0), BuildingBlock: XIVTED_clean_linker_0, # of connection points: 2
#     Edge 8, Type (0, 0), BuildingBlock: XIVTED_clean_linker_0, # of connection points: 2
#     Edge 9, Type (0, 0), BuildingBlock: XIVTED_clean_linker_0, # of connection points: 2
#     Edge 10, Type (0, 0), BuildingBlock: XIVTED_clean_linker_0, # of connection points: 2
#     Edge 11, Type (0, 0), BuildingBlock: XIVTED_clean_linker_0, # of connection points: 2
#     Edge 12, Type (0, 0), BuildingBlock: XIVTED_clean_linker_0, # of connection points: 2
#     Edge 13, Type (0, 0), BuildingBlock: XIVTED_clean_linker_0, # of connection points: 2
#     Edge 14, Type (0, 0), BuildingBlock: XIVTED_clean_linker_0, # of connection points: 2
#     Edge 15, Type (0, 0), BuildingBlock: XIVTED_clean_linker_0, # of connection points: 2
#     Edge 16, Type (0, 0), BuildingBlock: XIVTED_clean_linker_0, # of connection points: 2
#     Edge 17, Type (0, 0), BuildingBlock: XIVTED_clean_linker_0, # of connection points: 2
# Relax obj value: 0.000
# Max RMSD: 0.023
# Mean RMSD: 0.019
data_MOF--net-qdl--node1-NAWXER_clean_sbu_0--edge1-XIVTED_clean_linker_0
_symmetry_space_group_name_H-M    P1
_symmetry_Int_Tables_number       1
_symmetry_cell_setting            triclinic
loop_
_symmetry_equiv_pos_as_xyz
'x, y, z'
_cell_length_a     14.931678
_cell_length_b     14.934019
_cell_length_c     88.779923
_cell_angle_alpha  94.932537
_cell_angle_beta   94.967125
_cell_angle_gamma 120.0142
loop_
_atom_site_label
_atom_site_type_symbol
_atom_site_fract_x
_atom_site_fract_y
_atom_site_fract_z
_atom_type_partial_charge
C0 C 0.90299 0.9149 0.08103 0.0
C1 C 0.90465 0.24511 0.08402 0.0
O2 O 0.994 0.9968 0.08472 0.0
Zn3 Zn 0.06591 0.16255 0.08851 0.0
O4 O 0.82356 0.92487 0.07836 0.0
Zn5 Zn 0.89948 0.07793 0.0823 0.0
O6 O 0.98762 0.12144 0.0635 0.0
O7 O 0.15558 0.20423 0.07292 0.0
O8 O 0.82458 0.15361 0.08068 0.0
O9 O 0.99546 0.25618 0.08708 0.0
O10 O 0.12858 0.19704 0.10974 0.0
O11 O 0.95596 0.10889 0.10647 0.0
C12 C 0.08383 0.16899 0.06146 0.0
C13 C 0.04391 0.154 0.1154 0.0
C14 C 0.38837 0.36452 0.43088 0.0
C15 C 0.0618 0.36963 0.4284 0.0
O16 O 0.30561 0.27363 0.42805 0.0
Zn17 Zn 0.1401 0.20487 0.42511 0.0
O18 O 0.37983 0.44515 0.43283 0.0
Zn19 Zn 0.22698 0.37084 0.42973 0.0
O20 O 0.18749 0.29157 0.44968 0.0
O21 O 0.09992 0.12206 0.4413 0.0
O22 O 0.15399 0.44903 0.4309 0.0
O23 O 0.04908 0.27785 0.42613 0.0
O24 O 0.09681 0.13244 0.40458 0.0
O25 O 0.18799 0.30402 0.4057 0.0
C26 C 0.13842 0.1967 0.45238 0.0
C27 C 0.1379 0.21212 0.39779 0.0
C28 C 0.1565 0.07652 0.78326 0.0
C29 C 0.10258 0.04185 0.72741 0.0
O30 O 0.11112 0.11238 0.77508 0.0
Zn31 Zn 0.12925 0.06207 0.75536 0.0
O32 O 0.19514 0.02617 0.77677 0.0
Zn33 Zn 0.20894 0.97597 0.7541 0.0
O34 O 0.36018 0.0513 0.7541 0.0
O35 O 0.29337 0.15366 0.75556 0.0
O36 O 0.15093 0.99714 0.73248 0.0
O37 O 0.07562 0.09002 0.73679 0.0
O38 O 0.03295 0.89653 0.75399 0.0
O39 O 0.13046 0.82419 0.75298 0.0
C40 C 0.37269 0.14244 0.75499 0.0
C41 C 0.04105 0.81479 0.75319 0.0
C42 C 1.00713 0.01142 0.61347 0.0
C43 C 0.01568 0.04687 0.55935 0.0
O44 O 0.04584 0.09522 0.60757 0.0
Zn45 Zn 1.00953 0.03073 0.58646 0.0
O46 O 0.96167 0.9227 0.60474 0.0
Zn47 Zn 0.92511 0.86435 0.58054 0.0
O48 O 1.00006 0.78883 0.57874 0.0
O49 O 0.10288 0.95976 0.58508 0.0
O50 O 0.96722 0.95093 0.56154 0.0
O51 O 0.05193 0.11914 0.57075 0.0
O52 O 0.84404 0.95925 0.58294 0.0
O53 O 0.77206 0.78861 0.57702 0.0
C54 C 0.09164 0.86888 0.58205 0.0
C55 C 0.7621 0.8681 0.57952 0.0
C56 C 0.22551 0.18406 0.95326 0.0
C57 C 0.20961 0.13233 0.89776 0.0
O58 O 0.18245 0.21251 0.94329 0.0
Zn59 Zn 0.21736 0.16009 0.92548 0.0
O60 O 0.27296 0.1367 0.94899 0.0
Zn61 Zn 0.30383 0.08195 0.92789 0.0
O62 O 0.45629 0.16204 0.93 0.0
O63 O 0.38314 0.25806 0.92776 0.0
O64 O 0.25904 0.09445 0.90476 0.0
O65 O 0.17133 0.17729 0.90545 0.0
O66 O 0.12574 0.99557 0.92525 0.0
O67 O 0.22929 0.93061 0.92789 0.0
C68 C 0.4654 0.25091 0.9293 0.0
C69 C 0.13757 0.91697 0.92631 0.0
C70 C 0.04137 0.13672 0.2832 0.0
C71 C 0.01866 0.11494 0.2276 0.0
O72 O 0.94668 0.08665 0.27628 0.0
Zn73 Zn 0.86521 0.04203 0.25319 0.0
O74 O 0.11651 0.17504 0.27546 0.0
Zn75 Zn 0.03254 0.12677 0.25545 0.0
O76 O 0.9618 0.21992 0.25553 0.0
O77 O 0.79035 0.11853 0.25312 0.0
O78 O 0.10101 0.15757 0.23744 0.0
O79 O 0.92875 0.0702 0.23208 0.0
O80 O 0.78891 0.8897 0.25125 0.0
O81 O 0.9603 0.96085 0.25367 0.0
C82 C 0.87092 0.20959 0.25458 0.0
C83 C 0.86871 0.87939 0.25218 0.0
H84 H 0.72434 0.71715 0.07593 0.0
H85 H 0.06171 0.44629 0.09254 0.0
H86 H 0.06157 0.87584 0.08513 0.0
H87 H 0.7308 0.2619 0.07556 0.0
H88 H 0.05516 0.60396 0.09149 0.0
H89 H 0.71755 0.54911 0.07673 0.0
C90 C 0.79667 0.71678 0.07803 0.0
C91 C 0.89364 0.811 0.08053 0.0
C92 C 0.98356 0.52937 0.08796 0.0
C93 C 0.88631 0.62031 0.08158 0.0
C94 C 0.98719 0.43871 0.08859 0.0
C95 C 0.89674 0.34021 0.08404 0.0
C96 C 0.88874 0.52283 0.08273 0.0
C97 C 0.80249 0.33626 0.07915 0.0
C98 C 0.79269 0.62106 0.07851 0.0
C99 C 0.98484 0.80584 0.08321 0.0
N100 N 0.80086 0.42654 0.07858 0.0
N101 N 0.97873 0.71268 0.08371 0.0
H102 H 0.42547 0.20414 0.42878 0.0
H103 H 0.04844 0.54752 0.43501 0.0
H104 H 0.58638 0.54141 0.43403 0.0
H105 H 0.85946 0.21239 0.42201 0.0
H106 H 0.88674 0.55327 0.4361 0.0
H107 H 0.59047 0.21177 0.42826 0.0
C108 C 0.49575 0.28028 0.42985 0.0
C109 C 0.49155 0.3723 0.43136 0.0
C110 C 0.88141 0.47887 0.43297 0.0
C111 C 0.68319 0.38166 0.43069 0.0
C112 C 0.97341 0.47552 0.43233 0.0
C113 C 0.96774 0.37929 0.42849 0.0
C114 C 0.78385 0.3853 0.42982 0.0
C115 C 0.86846 0.28846 0.42512 0.0
C116 C 0.59052 0.28457 0.42951 0.0
C117 C 0.58603 0.46849 0.43281 0.0
N118 N 0.7812 0.29387 0.42592 0.0
N119 N 0.67838 0.4708 0.43241 0.0
H120 H 0.84228 0.77516 0.75192 0.0
H121 H 0.56412 0.158 0.75262 0.0
H122 H 0.02044 0.61972 0.75366 0.0
H123 H 0.41726 0.34315 0.7574 0.0
H124 H 0.73134 0.31951 0.75186 0.0
H125 H 0.68473 0.61062 0.75232 0.0
C126 C 0.84851 0.70619 0.75238 0.0
C127 C 0.94531 0.71179 0.75284 0.0
C128 C 0.66218 0.32407 0.75311 0.0
C129 C 0.76283 0.5207 0.75337 0.0
C130 C 0.56695 0.23219 0.75355 0.0
C131 C 0.47627 0.23679 0.75502 0.0
C132 C 0.6659 0.42041 0.75408 0.0
C133 C 0.48445 0.33498 0.75619 0.0
C134 C 0.75791 0.61167 0.75264 0.0
C135 C 0.94742 0.61895 0.75332 0.0
N136 N 0.577 0.42213 0.75566 0.0
N137 N 0.85727 0.52683 0.75361 0.0
H138 H 0.29257 0.02559 0.59086 0.0
H139 H 0.56446 0.68937 0.57429 0.0
H140 H 0.10866 0.69527 0.57353 0.0
H141 H 0.72288 0.0264 0.58387 0.0
H142 H 0.39619 0.68222 0.575 0.0
H143 H 0.4504 0.01917 0.59 0.0
C144 C 0.28512 0.95122 0.58686 0.0
C145 C 0.18673 0.86092 0.58216 0.0
C146 C 0.46813 0.7574 0.57689 0.0
C147 C 0.36957 0.85308 0.58107 0.0
C148 C 0.56399 0.76159 0.57647 0.0
C149 C 0.65818 0.8586 0.57908 0.0
C150 C 0.46723 0.85086 0.58002 0.0
C151 C 0.6529 0.94965 0.58185 0.0
C152 C 0.37589 0.94767 0.58635 0.0
C153 C 0.18296 0.76684 0.57723 0.0
N154 N 0.55959 0.94333 0.58229 0.0
N155 N 0.27336 0.76529 0.57677 0.0
H156 H 0.50459 0.4491 0.92962 0.0
H157 H 0.12337 0.72852 0.93066 0.0
H158 H 0.66131 0.27209 0.92982 0.0
H159 H 0.93556 0.8689 0.92183 0.0
H160 H 0.96201 0.56203 0.93179 0.0
H161 H 0.66919 0.60597 0.92884 0.0
C162 C 0.57386 0.44301 0.92953 0.0
C163 C 0.56858 0.34667 0.9297 0.0
C164 C 0.95682 0.62955 0.92956 0.0
C165 C 0.7596 0.52822 0.9287 0.0
C166 C 0.04862 0.72436 0.92888 0.0
C167 C 0.04326 0.81316 0.92622 0.0
C168 C 0.85976 0.62439 0.92763 0.0
C169 C 0.94433 0.80326 0.92401 0.0
C170 C 0.66835 0.53314 0.92903 0.0
C171 C 0.6618 0.34472 0.92967 0.0
N172 N 0.85725 0.71124 0.92483 0.0
N173 N 0.75384 0.43437 0.92914 0.0
H174 H 0.03148 0.41046 0.26039 0.0
H175 H 0.69039 0.68365 0.25019 0.0
H176 H 0.69459 0.22743 0.24956 0.0
H177 H 0.02691 0.8388 0.254 0.0
H178 H 0.68397 0.51593 0.25108 0.0
H179 H 0.02493 0.5683 0.25978 0.0
C180 C 0.95563 0.40321 0.25788 0.0
C181 C 0.86341 0.30499 0.25491 0.0
C182 C 0.75885 0.587 0.25167 0.0
C183 C 0.85536 0.4879 0.25412 0.0
C184 C 0.76262 0.68256 0.25116 0.0
C185 C 0.85936 0.7757 0.25206 0.0
C186 C 0.85251 0.58532 0.25318 0.0
C187 C 0.95042 0.76964 0.2533 0.0
C188 C 0.95198 0.494 0.2575 0.0
C189 C 0.76762 0.30157 0.25188 0.0
N190 N 0.94458 0.67664 0.25386 0.0
N191 N 0.76597 0.39198 0.25151 0.0
H192 H 0.85653 0.02911 0.20403 0.0
H193 H 0.21395 0.23722 0.1382 0.0
H194 H 0.19395 0.20983 0.2134 0.0
H195 H 0.87618 0.066 0.13069 0.0
H196 H 0.21097 0.22761 0.16562 0.0
H197 H 0.865 0.03999 0.17699 0.0
C198 C 0.93267 0.07099 0.20041 0.0
C199 C 0.02471 0.11878 0.21106 0.0
C200 C 0.13766 0.19236 0.15795 0.0
C201 C 0.03497 0.1319 0.17989 0.0
C202 C 0.13926 0.19792 0.14229 0.0
C203 C 0.04516 0.15239 0.13209 0.0
C204 C 0.04128 0.14076 0.16341 0.0
C205 C 0.95076 0.10233 0.13807 0.0
C206 C 0.93742 0.07732 0.18491 0.0
C207 C 0.12097 0.17182 0.2056 0.0
N208 N 0.95135 0.09783 0.15328 0.0
N209 N 0.12363 0.17711 0.19038 0.0
H210 H 0.11991 0.24053 0.55018 0.0
H211 H 0.03722 1.00561 0.46207 0.0
H212 H 0.95047 0.91037 0.53272 0.0
H213 H 0.20375 0.33678 0.47879 0.0
H214 H 1.00667 0.97017 0.48803 0.0
H215 H 0.15179 0.27836 0.52424 0.0
C216 C 0.08904 0.176 0.54091 0.0
C217 C 0.03239 0.07207 0.54367 0.0
C218 C 0.05005 0.05066 0.48605 0.0
C219 C 0.06909 0.11484 0.51395 0.0
C220 C 0.06775 0.071 0.4712 0.0
C221 C 0.12316 0.1744 0.46821 0.0
C222 C 0.08791 0.13422 0.49805 0.0
C223 C 0.16068 0.25582 0.48054 0.0
C224 C 0.10747 0.19767 0.52609 0.0
C225 C 0.99452 0.9917 0.53118 0.0
N226 N 0.14225 0.234 0.49491 0.0
N227 N 0.01368 0.01479 0.51691 0.0
H228 H 0.07838 0.17175 0.80163 0.0
H229 H 0.28273 0.04066 0.87841 0.0
H230 H 0.25093 0.01068 0.80347 0.0
H231 H 0.11445 0.20622 0.87854 0.0
H232 H 0.26968 0.02979 0.85077 0.0
H233 H 0.08947 0.18693 0.82959 0.0
C234 C 0.11875 0.13987 0.80788 0.0
C235 C 0.16371 0.08978 0.80015 0.0
C236 C 0.23543 0.06856 0.85679 0.0
C237 C 0.17636 0.10661 0.83207 0.0
C238 C 0.24279 0.07473 0.87263 0.0
C239 C 0.19963 0.12448 0.88087 0.0
C240 C 0.18447 0.11239 0.84898 0.0
C241 C 0.14883 0.16709 0.87267 0.0
C242 C 0.12492 0.14845 0.82383 0.0
C243 C 0.21493 0.04986 0.80886 0.0
N244 N 0.14267 0.16013 0.85716 0.0
N245 N 0.21967 0.05907 0.82429 0.0
H246 H 0.95716 0.1511 0.03588 0.0
H247 H 0.3417 0.17451 0.97795 0.0
H248 H 0.26933 0.21732 0.05129 0.0
H249 H 0.08565 0.2246 0.96581 0.0
H250 H 0.31349 0.18177 1.00465 0.0
H251 H 0.99845 0.16791 0.00986 0.0
C252 C 0.0345 0.16928 0.0338 0.0
C253 C 0.10981 0.18235 0.04578 0.0
C254 C 0.26419 0.1922 0.99617 0.0
C255 C 0.15729 0.20113 0.01597 0.0
C256 C 0.28004 0.18786 0.98091 0.0
C257 C 0.21565 0.1986 0.96961 0.0
C258 C 0.18214 0.2055 1.00012 0.0
C259 C 0.13724 0.21611 0.97414 0.0
C260 C 0.05814 0.17943 0.01895 0.0
C261 C 0.20896 0.20662 0.0424 0.0
N262 N 0.12187 0.21776 0.98902 0.0
N263 N 0.22953 0.2142 0.02778 0.0
H264 H 0.22093 0.27828 0.30276 0.0
H265 H 1.00046 0.03741 0.37744 0.0
H266 H 0.90707 0.02091 0.30207 0.0
H267 H 0.25058 0.35683 0.37963 0.0
H268 H 0.98075 0.0181 0.34953 0.0
H269 H 0.2484 0.29661 0.33082 0.0
C270 C 0.15808 0.22543 0.30849 0.0
C271 C 0.06141 0.14825 0.30008 0.0
C272 C 0.03997 0.09239 0.35613 0.0
C273 C 0.09265 0.16811 0.33202 0.0
C274 C 0.05155 0.1034 0.37206 0.0
C275 C 0.12697 0.19907 0.38089 0.0
C276 C 0.10525 0.1771 0.34893 0.0
C277 C 0.19093 0.28192 0.37327 0.0
C278 C 0.17366 0.23622 0.32447 0.0
C279 C 0.98257 0.082 0.30809 0.0
N280 N 0.1789 0.26894 0.35771 0.0
N281 N 1.00008 0.09314 0.32359 0.0
H282 H 0.97315 0.85286 0.62966 0.0
H283 H 0.05934 0.17099 0.71189 0.0
H284 H 0.059 0.17737 0.63559 0.0
H285 H 0.09543 0.90186 0.70488 0.0
H286 H 0.03136 0.16417 0.68399 0.0
H287 H 0.98948 0.85916 0.65736 0.0
C288 C 0.99508 0.92545 0.63678 0.0
C289 C 0.01525 0.01491 0.63028 0.0
C290 C 0.04523 0.10668 0.68862 0.0
C291 C 0.0334 0.02231 0.66207 0.0
C292 C 0.06061 0.11015 0.7045 0.0
C293 C 0.08013 0.03711 0.7107 0.0
C294 C 0.04755 0.02851 0.67895 0.0
C295 C 0.08138 0.96018 0.70061 0.0
C296 C 1.00468 0.92901 0.65261 0.0
C297 C 0.04345 0.10678 0.64013 0.0
N298 N 0.06499 0.95771 0.68527 0.0
N299 N 0.05143 0.1081 0.65555 0.0
loop_
_geom_bond_atom_site_label_1
_geom_bond_atom_site_label_2
_geom_bond_distance
_geom_bond_site_symmetry_2
_ccdc_geom_bond_type
C0 O2 1.247 1_565 S
C0 O4 1.258 . S
C1 O8 1.247 . S
C1 O9 1.258 . S
O2 C0 1.247 1_545 S
O2 Zn3 2.028 . S
Zn3 O2 2.028 . S
Zn3 O7 2.035 . S
Zn3 O9 2.035 . S
Zn3 O10 2.028 . S
O4 C0 1.258 . S
O4 Zn5 2.035 1_565 S
Zn5 O4 2.035 1_545 S
Zn5 O6 2.028 . S
Zn5 O8 2.028 . S
Zn5 O11 2.035 . S
O6 Zn5 2.028 . S
O6 C12 1.247 . S
O7 Zn3 2.035 . S
O7 C12 1.258 . S
O8 C1 1.247 . S
O8 Zn5 2.028 . S
O9 C1 1.258 . S
O9 Zn3 2.035 . S
O10 Zn3 2.028 . S
O10 C13 1.247 . S
O11 Zn5 2.035 . S
O11 C13 1.258 . S
C12 O6 1.247 . S
C12 O7 1.258 . S
C13 O10 1.247 . S
C13 O11 1.258 . S
C14 O16 1.247 1_545 S
C14 O18 1.258 . S
C15 O22 1.247 . S
C15 O23 1.258 1_545 S
O16 C14 1.247 1_565 S
O16 Zn17 2.028 . S
Zn17 O16 2.028 . S
Zn17 O21 2.035 . S
Zn17 O23 2.035 1_455 S
Zn17 O24 2.028 . S
O18 C14 1.258 . S
O18 Zn19 2.035 . S
Zn19 O18 2.035 . S
Zn19 O20 2.028 . S
Zn19 O22 2.028 1_455 S
Zn19 O25 2.035 . S
O20 Zn19 2.028 . S
O20 C26 1.247 . S
O21 Zn17 2.035 . S
O21 C26 1.258 1_565 S
O22 C15 1.247 . S
O22 Zn19 2.028 1_655 S
O23 C15 1.258 1_565 S
O23 Zn17 2.035 1_655 S
O24 Zn17 2.028 . S
O24 C27 1.247 1_565 S
O25 Zn19 2.035 . S
O25 C27 1.258 . S
C26 O20 1.247 . S
C26 O21 1.258 1_545 S
C27 O24 1.247 1_545 S
C27 O25 1.258 . S
C28 O30 1.247 1_455 S
C28 O32 1.258 . S
C29 O36 1.247 . S
C29 O37 1.258 1_455 S
O30 C28 1.247 1_655 S
O30 Zn31 2.028 . S
Zn31 O30 2.028 . S
Zn31 O35 2.035 1_655 S
Zn31 O37 2.035 . S
Zn31 O38 2.028 . S
O32 C28 1.258 . S
O32 Zn33 2.035 . S
Zn33 O32 2.035 . S
Zn33 O34 2.028 . S
Zn33 O36 2.028 . S
Zn33 O39 2.035 1_445 S
O34 Zn33 2.028 . S
O34 C40 1.247 . S
O35 Zn31 2.035 1_455 S
O35 C40 1.258 . S
O36 C29 1.247 . S
O36 Zn33 2.028 . S
O37 C29 1.258 1_655 S
O37 Zn31 2.035 . S
O38 Zn31 2.028 . S
O38 C41 1.247 1_545 S
O39 Zn33 2.035 1_665 S
O39 C41 1.258 . S
C40 O34 1.247 . S
C40 O35 1.258 . S
C41 O38 1.247 1_565 S
C41 O39 1.258 . S
C42 O44 1.247 . S
C42 O46 1.258 1_445 S
C43 O50 1.247 1_455 S
C43 O51 1.258 1_565 S
O44 C42 1.247 . S
O44 Zn45 2.028 . S
Zn45 O44 2.028 . S
Zn45 O49 2.035 . S
Zn45 O51 2.035 . S
Zn45 O52 2.028 1_455 S
O46 C42 1.258 1_665 S
O46 Zn47 2.035 . S
Zn47 O46 2.035 . S
Zn47 O48 2.028 1_655 S
Zn47 O50 2.028 . S
Zn47 O53 2.035 . S
O48 Zn47 2.028 1_455 S
O48 C54 1.247 1_565 S
O49 Zn45 2.035 . S
O49 C54 1.258 . S
O50 C43 1.247 1_655 S
O50 Zn47 2.028 . S
O51 C43 1.258 1_545 S
O51 Zn45 2.035 . S
O52 Zn45 2.028 1_655 S
O52 C55 1.247 . S
O53 Zn47 2.035 . S
O53 C55 1.258 1_565 S
C54 O48 1.247 1_545 S
C54 O49 1.258 . S
C55 O52 1.247 . S
C55 O53 1.258 1_545 S
C56 O58 1.247 . S
C56 O60 1.258 . S
C57 O64 1.247 . S
C57 O65 1.259 1_455 S
O58 C56 1.247 . S
O58 Zn59 2.028 . S
Zn59 O58 2.028 . S
Zn59 O63 2.035 . S
Zn59 O65 2.035 1_455 S
Zn59 O66 2.028 1_455 S
O60 C56 1.258 . S
O60 Zn61 2.035 . S
Zn61 O60 2.035 . S
Zn61 O62 2.028 . S
Zn61 O64 2.028 . S
Zn61 O67 2.035 1_445 S
O62 Zn61 2.028 . S
O62 C68 1.247 . S
O63 Zn59 2.035 . S
O63 C68 1.258 . S
O64 C57 1.247 . S
O64 Zn61 2.028 . S
O65 C57 1.259 1_655 S
O65 Zn59 2.035 1_655 S
O66 Zn59 2.028 1_655 S
O66 C69 1.247 1_545 S
O67 Zn61 2.035 1_665 S
O67 C69 1.258 . S
C68 O62 1.247 . S
C68 O63 1.258 . S
C69 O66 1.247 1_565 S
C69 O67 1.258 . S
C70 O72 1.247 . S
C70 O74 1.258 . S
C71 O78 1.247 . S
C71 O79 1.258 . S
O72 C70 1.247 . S
O72 Zn73 2.028 . S
Zn73 O72 2.028 . S
Zn73 O77 2.035 . S
Zn73 O79 2.035 . S
Zn73 O80 2.028 1_545 S
O74 C70 1.258 . S
O74 Zn75 2.035 . S
Zn75 O74 2.035 . S
Zn75 O76 2.028 . S
Zn75 O78 2.028 . S
Zn75 O81 2.035 . S
O76 Zn75 2.028 . S
O76 C82 1.247 . S
O77 Zn73 2.035 . S
O77 C82 1.258 . S
O78 C71 1.247 . S
O78 Zn75 2.028 . S
O79 C71 1.258 . S
O79 Zn73 2.035 . S
O80 Zn73 2.028 1_565 S
O80 C83 1.247 . S
O81 Zn75 2.035 . S
O81 C83 1.258 1_545 S
C82 O76 1.247 . S
C82 O77 1.258 . S
C83 O80 1.247 . S
C83 O81 1.258 1_565 S
H84 C90 0.930 . S
H85 C94 0.930 . S
H86 C99 0.929 . S
H87 C97 0.929 . S
H88 C92 0.929 . S
H89 C98 0.929 . S
C90 H84 0.930 . S
C90 C91 1.367 . S
C90 C98 1.378 . S
C91 C90 1.367 . S
C91 C99 1.433 . S
C92 H88 0.929 . S
C92 C94 1.378 . S
C92 C96 1.350 . S
C93 C96 1.463 . S
C93 C98 1.350 . S
C93 N101 1.427 . S
C94 H85 0.930 . S
C94 C92 1.378 . S
C94 C95 1.367 . S
C95 C94 1.367 . S
C95 C97 1.433 . S
C96 C92 1.350 . S
C96 C93 1.463 . S
C96 N100 1.427 . S
C97 H87 0.929 . S
C97 C95 1.433 . S
C97 N100 1.384 . S
C98 H89 0.929 . S
C98 C90 1.378 . S
C98 C93 1.350 . S
C99 H86 0.929 . S
C99 C91 1.433 . S
C99 N101 1.384 . S
N100 C96 1.427 . S
N100 C97 1.384 . S
N101 C93 1.427 . S
N101 C99 1.384 . S
H102 C108 0.930 . S
H103 C112 0.930 . S
H104 C117 0.929 . S
H105 C115 0.929 . S
H106 C110 0.929 . S
H107 C116 0.929 . S
C108 H102 0.930 . S
C108 C109 1.367 1_565 S
C108 C116 1.378 . S
C109 C108 1.367 1_545 S
C109 C117 1.433 . S
C110 H106 0.929 . S
C110 C112 1.378 . S
C110 C114 1.350 . S
C111 C114 1.463 . S
C111 C116 1.350 1_545 S
C111 N119 1.427 . S
C112 H103 0.930 . S
C112 C110 1.378 . S
C112 C113 1.367 . S
C113 C112 1.367 . S
C113 C115 1.433 1_545 S
C114 C110 1.350 . S
C114 C111 1.463 . S
C114 N118 1.427 1_545 S
C115 H105 0.929 . S
C115 C113 1.433 1_565 S
C115 N118 1.384 . S
C116 H107 0.929 . S
C116 C108 1.378 . S
C116 C111 1.350 1_565 S
C117 H104 0.929 . S
C117 C109 1.433 . S
C117 N119 1.384 . S
N118 C114 1.427 1_565 S
N118 C115 1.384 . S
N119 C111 1.427 . S
N119 C117 1.384 . S
H120 C126 0.930 . S
H121 C130 0.930 . S
H122 C135 0.929 . S
H123 C133 0.929 . S
H124 C128 0.929 . S
H125 C134 0.929 . S
C126 H120 0.930 . S
C126 C127 1.367 . S
C126 C134 1.378 . S
C127 C126 1.367 . S
C127 C135 1.433 . S
C128 H124 0.929 . S
C128 C130 1.378 . S
C128 C132 1.350 . S
C129 C132 1.463 . S
C129 C134 1.350 . S
C129 N137 1.427 . S
C130 H121 0.930 . S
C130 C128 1.378 . S
C130 C131 1.367 . S
C131 C130 1.367 . S
C131 C133 1.433 . S
C132 C128 1.350 . S
C132 C129 1.463 . S
C132 N136 1.427 . S
C133 H123 0.929 . S
C133 C131 1.433 . S
C133 N136 1.384 . S
C134 H125 0.929 . S
C134 C126 1.378 . S
C134 C129 1.350 . S
C135 H122 0.929 . S
C135 C127 1.433 . S
C135 N137 1.384 . S
N136 C132 1.427 . S
N136 C133 1.384 . S
N137 C129 1.427 . S
N137 C135 1.384 . S
H138 C144 0.930 . S
H139 C148 0.930 . S
H140 C153 0.929 . S
H141 C151 0.929 . S
H142 C146 0.929 . S
H143 C152 0.929 . S
C144 H138 0.930 . S
C144 C145 1.367 . S
C144 C152 1.378 . S
C145 C144 1.367 . S
C145 C153 1.433 1_545 S
C146 H142 0.929 . S
C146 C148 1.378 . S
C146 C150 1.353 . S
C147 C150 1.460 1_545 S
C147 C152 1.350 . S
C147 N155 1.427 1_545 S
C148 H139 0.930 . S
C148 C146 1.378 . S
C148 C149 1.366 1_565 S
C149 C148 1.366 1_545 S
C149 C151 1.437 . S
C150 C146 1.353 . S
C150 C147 1.460 1_565 S
C150 N154 1.426 1_565 S
C151 H141 0.929 . S
C151 C149 1.437 . S
C151 N154 1.384 . S
C152 H143 0.929 . S
C152 C144 1.378 . S
C152 C147 1.350 . S
C153 H140 0.929 . S
C153 C145 1.433 1_565 S
C153 N155 1.384 . S
N154 C150 1.426 1_545 S
N154 C151 1.384 . S
N155 C147 1.427 1_565 S
N155 C153 1.384 . S
H156 C162 0.930 . S
H157 C166 0.930 . S
H158 C171 0.929 . S
H159 C169 0.929 . S
H160 C164 0.929 . S
H161 C170 0.929 . S
C162 H156 0.930 . S
C162 C163 1.367 . S
C162 C170 1.378 . S
C163 C162 1.367 . S
C163 C171 1.433 . S
C164 H160 0.929 . S
C164 C166 1.378 . S
C164 C168 1.350 . S
C165 C168 1.463 . S
C165 C170 1.350 . S
C165 N173 1.427 . S
C166 H157 0.930 . S
C166 C164 1.378 . S
C166 C167 1.367 . S
C167 C166 1.367 . S
C167 C169 1.433 . S
C168 C164 1.350 . S
C168 C165 1.463 . S
C168 N172 1.427 . S
C169 H159 0.929 . S
C169 C167 1.433 . S
C169 N172 1.384 . S
C170 H161 0.929 . S
C170 C162 1.378 . S
C170 C165 1.350 . S
C171 H158 0.929 . S
C171 C163 1.433 . S
C171 N173 1.384 . S
N172 C168 1.427 . S
N172 C169 1.384 . S
N173 C165 1.427 . S
N173 C171 1.384 . S
H174 C180 0.930 . S
H175 C184 0.930 . S
H176 C189 0.929 . S
H177 C187 0.929 . S
H178 C182 0.929 . S
H179 C188 0.929 . S
C180 H174 0.930 . S
C180 C181 1.367 . S
C180 C188 1.378 . S
C181 C180 1.367 . S
C181 C189 1.433 . S
C182 H178 0.929 . S
C182 C184 1.378 . S
C182 C186 1.350 . S
C183 C186 1.463 . S
C183 C188 1.350 . S
C183 N191 1.427 . S
C184 H175 0.930 . S
C184 C182 1.378 . S
C184 C185 1.367 . S
C185 C184 1.367 . S
C185 C187 1.433 . S
C186 C182 1.350 . S
C186 C183 1.463 . S
C186 N190 1.427 . S
C187 H177 0.929 . S
C187 C185 1.433 . S
C187 N190 1.384 . S
C188 H179 0.929 . S
C188 C180 1.378 . S
C188 C183 1.350 . S
C189 H176 0.929 . S
C189 C181 1.433 . S
C189 N191 1.384 . S
N190 C186 1.427 . S
N190 C187 1.384 . S
N191 C183 1.427 . S
N191 C189 1.384 . S
H192 C198 0.930 1_565 S
H193 C202 0.930 . S
H194 C207 0.929 . S
H195 C205 0.925 1_565 S
H196 C200 0.929 . S
H197 C206 0.929 1_565 S
C198 H192 0.930 1_545 S
C198 C199 1.367 . S
C198 C206 1.378 . S
C199 C198 1.367 . S
C199 C207 1.433 . S
C200 H196 0.929 . S
C200 C202 1.378 . S
C200 C204 1.350 . S
C201 C204 1.463 . S
C201 C206 1.350 . S
C201 N209 1.427 . S
C202 H193 0.930 . S
C202 C200 1.378 . S
C202 C203 1.367 . S
C203 C202 1.367 . S
C203 C205 1.433 . S
C204 C200 1.350 . S
C204 C201 1.463 . S
C204 N208 1.427 . S
C205 H195 0.925 1_545 S
C205 C203 1.433 . S
C205 N208 1.384 . S
C206 H197 0.929 1_545 S
C206 C198 1.378 . S
C206 C201 1.350 . S
C207 H194 0.929 . S
C207 C199 1.433 . S
C207 N209 1.384 . S
N208 C204 1.427 . S
N208 C205 1.384 . S
N209 C201 1.427 . S
N209 C207 1.384 . S
H210 C216 0.930 . S
H211 C220 0.930 . S
H212 C225 0.929 . S
H213 C223 0.929 . S
H214 C218 0.929 . S
H215 C224 0.929 . S
C216 H210 0.930 . S
C216 C217 1.367 1_545 S
C216 C224 1.378 . S
C217 C216 1.367 1_565 S
C217 C225 1.433 1_455 S
C218 H214 0.929 . S
C218 C220 1.378 . S
C218 C222 1.355 1_655 S
C219 C222 1.463 1_545 S
C219 C224 1.350 . S
C219 N227 1.427 1_445 S
C220 H211 0.930 . S
C220 C218 1.378 . S
C220 C221 1.367 1_665 S
C221 C220 1.367 1_445 S
C221 C223 1.433 . S
C222 C218 1.355 1_455 S
C222 C219 1.463 1_565 S
C222 N226 1.421 1_565 S
C223 H213 0.929 . S
C223 C221 1.433 . S
C223 N226 1.384 . S
C224 H215 0.929 . S
C224 C216 1.378 . S
C224 C219 1.350 . S
C225 H212 0.929 . S
C225 C217 1.433 1_655 S
C225 N227 1.384 . S
N226 C222 1.421 1_545 S
N226 C223 1.384 . S
N227 C219 1.427 1_665 S
N227 C225 1.384 . S
H228 C234 0.930 . S
H229 C238 0.930 . S
H230 C243 0.929 1_565 S
H231 C241 0.929 . S
H232 C236 0.929 . S
H233 C242 0.929 . S
C234 H228 0.930 . S
C234 C235 1.367 . S
C234 C242 1.378 . S
C235 C234 1.367 . S
C235 C243 1.433 . S
C236 H232 0.929 . S
C236 C238 1.378 . S
C236 C240 1.350 . S
C237 C240 1.463 . S
C237 C242 1.350 . S
C237 N245 1.427 . S
C238 H229 0.930 . S
C238 C236 1.378 . S
C238 C239 1.367 . S
C239 C238 1.367 . S
C239 C241 1.433 . S
C240 C236 1.350 . S
C240 C237 1.463 . S
C240 N244 1.427 . S
C241 H231 0.929 . S
C241 C239 1.433 . S
C241 N244 1.384 . S
C242 H233 0.929 . S
C242 C234 1.378 . S
C242 C237 1.350 . S
C243 H230 0.929 1_545 S
C243 C235 1.433 . S
C243 N245 1.384 . S
N244 C240 1.427 . S
N244 C241 1.384 . S
N245 C237 1.427 . S
N245 C243 1.384 . S
H246 C252 0.930 1_655 S
H247 C256 0.930 . S
H248 C261 0.929 . S
H249 C259 0.929 . S
H250 C254 0.929 . S
H251 C260 0.929 1_655 S
C252 H246 0.930 1_455 S
C252 C253 1.367 . S
C252 C260 1.378 . S
C253 C252 1.367 . S
C253 C261 1.433 . S
C254 H250 0.929 . S
C254 C256 1.378 . S
C254 C258 1.350 . S
C255 C258 1.463 1_554 S
C255 C260 1.350 . S
C255 N263 1.427 . S
C256 H247 0.930 . S
C256 C254 1.378 . S
C256 C257 1.367 . S
C257 C256 1.367 . S
C257 C259 1.433 1_455 S
C258 C254 1.350 . S
C258 C255 1.463 1_556 S
C258 N262 1.427 . S
C259 H249 0.929 . S
C259 C257 1.433 1_655 S
C259 N262 1.384 1_655 S
C260 H251 0.929 1_455 S
C260 C252 1.378 . S
C260 C255 1.350 . S
C261 H248 0.929 . S
C261 C253 1.433 . S
C261 N263 1.384 . S
N262 C258 1.427 . S
N262 C259 1.384 1_455 S
N263 C255 1.427 . S
N263 C261 1.384 . S
H264 C270 0.930 . S
H265 C274 0.930 . S
H266 C279 0.937 . S
H267 C277 0.929 . S
H268 C272 0.929 . S
H269 C278 0.929 . S
C270 H264 0.930 . S
C270 C271 1.367 . S
C270 C278 1.378 . S
C271 C270 1.367 . S
C271 C279 1.424 1_545 S
C272 H268 0.929 . S
C272 C274 1.378 . S
C272 C276 1.350 1_565 S
C273 C276 1.463 . S
C273 C278 1.350 . S
C273 N281 1.427 1_545 S
C274 H265 0.930 . S
C274 C272 1.378 . S
C274 C275 1.367 1_565 S
C275 C274 1.367 1_545 S
C275 C277 1.433 . S
C276 C272 1.350 1_545 S
C276 C273 1.463 . S
C276 N280 1.427 . S
C277 H267 0.929 . S
C277 C275 1.433 . S
C277 N280 1.384 . S
C278 H269 0.929 . S
C278 C270 1.378 . S
C278 C273 1.350 . S
C279 H266 0.937 . S
C279 C271 1.424 1_565 S
C279 N281 1.385 . S
N280 C276 1.427 . S
N280 C277 1.384 . S
N281 C273 1.427 1_565 S
N281 C279 1.385 . S
H282 C288 0.930 . S
H283 C292 0.930 . S
H284 C297 0.929 . S
H285 C295 0.929 . S
H286 C290 0.929 . S
H287 C296 0.929 . S
C288 H282 0.930 . S
C288 C289 1.367 1_565 S
C288 C296 1.378 . S
C289 C288 1.367 1_545 S
C289 C297 1.433 1_455 S
C290 H286 0.929 . S
C290 C292 1.378 . S
C290 C294 1.350 1_655 S
C291 C294 1.463 . S
C291 C296 1.350 1_545 S
C291 N299 1.427 1_455 S
C292 H283 0.930 . S
C292 C290 1.378 . S
C292 C293 1.367 1_655 S
C293 C292 1.367 1_455 S
C293 C295 1.433 1_545 S
C294 C290 1.350 1_455 S
C294 C291 1.463 . S
C294 N298 1.427 1_545 S
C295 H285 0.929 . S
C295 C293 1.433 1_565 S
C295 N298 1.384 . S
C296 H287 0.929 . S
C296 C288 1.378 . S
C296 C291 1.350 1_565 S
C297 H284 0.929 . S
C297 C289 1.433 1_655 S
C297 N299 1.384 . S
N298 C294 1.427 1_565 S
N298 C295 1.384 . S
N299 C291 1.427 1_655 S
N299 C297 1.384 . S
C91 C0 1.499 . S
C95 C1 1.499 . S
C109 C14 1.498 . S
C113 C15 1.498 . S
C127 C41 1.498 . S
C131 C40 1.498 . S
C145 C54 1.497 . S
C149 C55 1.495 . S
C163 C68 1.499 . S
C167 C69 1.499 . S
C181 C82 1.497 . S
C185 C83 1.497 . S
C199 C71 1.503 . S
C203 C13 1.504 . S
C217 C43 1.504 . S
C221 C26 1.506 . S
C235 C28 1.504 . S
C239 C57 1.502 . S
C253 C12 1.506 . S
C257 C56 1.505 . S
C271 C70 1.503 . S
C275 C27 1.505 . S
C289 C42 1.506 . S
C293 C29 1.506 . S
