# Generated by pormake.
# Topology ecv, (8)-cn, num edge types: 1
# Building blocks:
#     Node 0, Type 0, BuildingBlock: TAGTUT_clean_sbu_1, # of connection points: 8
#     Node 1, Type 0, BuildingBlock: TAGTUT_clean_sbu_1, # of connection points: 8
#     Node 2, Type 0, BuildingBlock: TAGTUT_clean_sbu_1, # of connection points: 8
#     Node 3, Type 0, BuildingBlock: TAGTUT_clean_sbu_1, # of connection points: 8
#     Node 4, Type 0, BuildingBlock: TAGTUT_clean_sbu_1, # of connection points: 8
#     Node 5, Type 0, BuildingBlock: TAGTUT_clean_sbu_1, # of connection points: 8
#     Node 6, Type 0, BuildingBlock: TAGTUT_clean_sbu_1, # of connection points: 8
#     Node 7, Type 0, BuildingBlock: TAGTUT_clean_sbu_1, # of connection points: 8
#     Node 8, Type 0, BuildingBlock: TAGTUT_clean_sbu_1, # of connection points: 8
#     Node 9, Type 0, BuildingBlock: TAGTUT_clean_sbu_1, # of connection points: 8
#     Node 10, Type 0, BuildingBlock: TAGTUT_clean_sbu_1, # of connection points: 8
#     Node 11, Type 0, BuildingBlock: TAGTUT_clean_sbu_1, # of connection points: 8
#     Node 12, Type 0, BuildingBlock: TAGTUT_clean_sbu_1, # of connection points: 8
#     Node 13, Type 0, BuildingBlock: TAGTUT_clean_sbu_1, # of connection points: 8
#     Node 14, Type 0, BuildingBlock: TAGTUT_clean_sbu_1, # of connection points: 8
#     Node 15, Type 0, BuildingBlock: TAGTUT_clean_sbu_1, # of connection points: 8
#     Edge 16, Type (0, 0), BuildingBlock: CIFDUS_clean_linker_0, # of connection points: 2
#     Edge 17, Type (0, 0), BuildingBlock: CIFDUS_clean_linker_0, # of connection points: 2
#     Edge 18, Type (0, 0), BuildingBlock: CIFDUS_clean_linker_0, # of connection points: 2
#     Edge 19, Type (0, 0), BuildingBlock: CIFDUS_clean_linker_0, # of connection points: 2
#     Edge 20, Type (0, 0), BuildingBlock: CIFDUS_clean_linker_0, # of connection points: 2
#     Edge 21, Type (0, 0), BuildingBlock: CIFDUS_clean_linker_0, # of connection points: 2
#     Edge 22, Type (0, 0), BuildingBlock: CIFDUS_clean_linker_0, # of connection points: 2
#     Edge 23, Type (0, 0), BuildingBlock: CIFDUS_clean_linker_0, # of connection points: 2
#     Edge 24, Type (0, 0), BuildingBlock: CIFDUS_clean_linker_0, # of connection points: 2
#     Edge 25, Type (0, 0), BuildingBlock: CIFDUS_clean_linker_0, # of connection points: 2
#     Edge 26, Type (0, 0), BuildingBlock: CIFDUS_clean_linker_0, # of connection points: 2
#     Edge 27, Type (0, 0), BuildingBlock: CIFDUS_clean_linker_0, # of connection points: 2
#     Edge 28, Type (0, 0), BuildingBlock: CIFDUS_clean_linker_0, # of connection points: 2
#     Edge 29, Type (0, 0), BuildingBlock: CIFDUS_clean_linker_0, # of connection points: 2
#     Edge 30, Type (0, 0), BuildingBlock: CIFDUS_clean_linker_0, # of connection points: 2
#     Edge 31, Type (0, 0), BuildingBlock: CIFDUS_clean_linker_0, # of connection points: 2
#     Edge 32, Type (0, 0), BuildingBlock: CIFDUS_clean_linker_0, # of connection points: 2
#     Edge 33, Type (0, 0), BuildingBlock: CIFDUS_clean_linker_0, # of connection points: 2
#     Edge 34, Type (0, 0), BuildingBlock: CIFDUS_clean_linker_0, # of connection points: 2
#     Edge 35, Type (0, 0), BuildingBlock: CIFDUS_clean_linker_0, # of connection points: 2
#     Edge 36, Type (0, 0), BuildingBlock: CIFDUS_clean_linker_0, # of connection points: 2
#     Edge 37, Type (0, 0), BuildingBlock: CIFDUS_clean_linker_0, # of connection points: 2
#     Edge 38, Type (0, 0), BuildingBlock: CIFDUS_clean_linker_0, # of connection points: 2
#     Edge 39, Type (0, 0), BuildingBlock: CIFDUS_clean_linker_0, # of connection points: 2
#     Edge 40, Type (0, 0), BuildingBlock: CIFDUS_clean_linker_0, # of connection points: 2
#     Edge 41, Type (0, 0), BuildingBlock: CIFDUS_clean_linker_0, # of connection points: 2
#     Edge 42, Type (0, 0), BuildingBlock: CIFDUS_clean_linker_0, # of connection points: 2
#     Edge 43, Type (0, 0), BuildingBlock: CIFDUS_clean_linker_0, # of connection points: 2
#     Edge 44, Type (0, 0), BuildingBlock: CIFDUS_clean_linker_0, # of connection points: 2
#     Edge 45, Type (0, 0), BuildingBlock: CIFDUS_clean_linker_0, # of connection points: 2
#     Edge 46, Type (0, 0), BuildingBlock: CIFDUS_clean_linker_0, # of connection points: 2
#     Edge 47, Type (0, 0), BuildingBlock: CIFDUS_clean_linker_0, # of connection points: 2
#     Edge 48, Type (0, 0), BuildingBlock: CIFDUS_clean_linker_0, # of connection points: 2
#     Edge 49, Type (0, 0), BuildingBlock: CIFDUS_clean_linker_0, # of connection points: 2
#     Edge 50, Type (0, 0), BuildingBlock: CIFDUS_clean_linker_0, # of connection points: 2
#     Edge 51, Type (0, 0), BuildingBlock: CIFDUS_clean_linker_0, # of connection points: 2
#     Edge 52, Type (0, 0), BuildingBlock: CIFDUS_clean_linker_0, # of connection points: 2
#     Edge 53, Type (0, 0), BuildingBlock: CIFDUS_clean_linker_0, # of connection points: 2
#     Edge 54, Type (0, 0), BuildingBlock: CIFDUS_clean_linker_0, # of connection points: 2
#     Edge 55, Type (0, 0), BuildingBlock: CIFDUS_clean_linker_0, # of connection points: 2
#     Edge 56, Type (0, 0), BuildingBlock: CIFDUS_clean_linker_0, # of connection points: 2
#     Edge 57, Type (0, 0), BuildingBlock: CIFDUS_clean_linker_0, # of connection points: 2
#     Edge 58, Type (0, 0), BuildingBlock: CIFDUS_clean_linker_0, # of connection points: 2
#     Edge 59, Type (0, 0), BuildingBlock: CIFDUS_clean_linker_0, # of connection points: 2
#     Edge 60, Type (0, 0), BuildingBlock: CIFDUS_clean_linker_0, # of connection points: 2
#     Edge 61, Type (0, 0), BuildingBlock: CIFDUS_clean_linker_0, # of connection points: 2
#     Edge 62, Type (0, 0), BuildingBlock: CIFDUS_clean_linker_0, # of connection points: 2
#     Edge 63, Type (0, 0), BuildingBlock: CIFDUS_clean_linker_0, # of connection points: 2
#     Edge 64, Type (0, 0), BuildingBlock: CIFDUS_clean_linker_0, # of connection points: 2
#     Edge 65, Type (0, 0), BuildingBlock: CIFDUS_clean_linker_0, # of connection points: 2
#     Edge 66, Type (0, 0), BuildingBlock: CIFDUS_clean_linker_0, # of connection points: 2
#     Edge 67, Type (0, 0), BuildingBlock: CIFDUS_clean_linker_0, # of connection points: 2
#     Edge 68, Type (0, 0), BuildingBlock: CIFDUS_clean_linker_0, # of connection points: 2
#     Edge 69, Type (0, 0), BuildingBlock: CIFDUS_clean_linker_0, # of connection points: 2
#     Edge 70, Type (0, 0), BuildingBlock: CIFDUS_clean_linker_0, # of connection points: 2
#     Edge 71, Type (0, 0), BuildingBlock: CIFDUS_clean_linker_0, # of connection points: 2
#     Edge 72, Type (0, 0), BuildingBlock: CIFDUS_clean_linker_0, # of connection points: 2
#     Edge 73, Type (0, 0), BuildingBlock: CIFDUS_clean_linker_0, # of connection points: 2
#     Edge 74, Type (0, 0), BuildingBlock: CIFDUS_clean_linker_0, # of connection points: 2
#     Edge 75, Type (0, 0), BuildingBlock: CIFDUS_clean_linker_0, # of connection points: 2
#     Edge 76, Type (0, 0), BuildingBlock: CIFDUS_clean_linker_0, # of connection points: 2
#     Edge 77, Type (0, 0), BuildingBlock: CIFDUS_clean_linker_0, # of connection points: 2
#     Edge 78, Type (0, 0), BuildingBlock: CIFDUS_clean_linker_0, # of connection points: 2
#     Edge 79, Type (0, 0), BuildingBlock: CIFDUS_clean_linker_0, # of connection points: 2
# Relax obj value: 0.115
# Max RMSD: 0.179
# Mean RMSD: 0.179
data_MOF--net-ecv--node1-TAGTUT_clean_sbu_1--edge1-CIFDUS_clean_linker_0
_symmetry_space_group_name_H-M    P1
_symmetry_Int_Tables_number       1
_symmetry_cell_setting            triclinic
loop_
_symmetry_equiv_pos_as_xyz
'x, y, z'
_cell_length_a     17.777712
_cell_length_b     23.787835
_cell_length_c     104.48283
_cell_angle_alpha  94.469961
_cell_angle_beta   90.047929
_cell_angle_gamma 90.038468
loop_
_atom_site_label
_atom_site_type_symbol
_atom_site_fract_x
_atom_site_fract_y
_atom_site_fract_z
_atom_type_partial_charge
C0 C 0.12831 0.18992 0.49752 0.0
C1 C 0.03171 0.10047 0.46396 0.0
C2 C 0.31681 0.10991 0.44369 0.0
Mg3 Mg 0.05591 0.22536 0.47281 0.0
O4 O 0.1503 0.20799 0.46591 0.0
Mg5 Mg 0.21018 0.13948 0.46968 0.0
Mg6 Mg 0.17742 0.21028 0.44787 0.0
O7 O 0.20786 0.21231 0.42964 0.0
Mg8 Mg 0.31015 0.21132 0.42576 0.0
Mg9 Mg 0.14107 0.27331 0.42363 0.0
C10 C 0.04892 0.31832 0.45224 0.0
C11 C 0.03724 0.16452 0.42862 0.0
O12 O 0.17097 0.15749 0.49038 0.0
O13 O 0.08165 0.22405 0.4929 0.0
O14 O 0.1024 0.0907 0.46495 0.0
O15 O 1.0022 0.14902 0.46645 0.0
O16 O 0.02713 0.3011 0.46301 0.0
O17 O 0.09993 0.29039 0.44544 0.0
C18 C 0.30021 0.25091 0.47102 0.0
O19 O 0.26755 0.26595 0.46067 0.0
O20 O 0.30676 0.19871 0.47292 0.0
O21 O 0.19162 0.24789 0.40242 0.0
O22 O 0.30424 0.20738 0.40556 0.0
O23 O 0.23382 0.33789 0.4272 0.0
C24 C 0.25348 0.2245 0.39816 0.0
O25 O 0.34125 0.2945 0.43191 0.0
O26 O 0.34807 0.1366 0.43489 0.0
C27 C 0.30263 0.33902 0.43067 0.0
O28 O 0.2542 0.12867 0.44891 0.0
O29 O 0.07783 0.15627 0.43851 0.0
O30 O 0.05001 0.20543 0.42162 0.0
C31 C 0.06934 0.19097 0.79234 0.0
C32 C 0.08646 0.23648 0.83322 0.0
C33 C 0.37781 0.20435 0.82972 0.0
Mg34 Mg 0.06251 0.12544 0.81667 0.0
O35 O 0.1667 0.12818 0.81446 0.0
Mg36 Mg 0.22076 0.20075 0.81172 0.0
Mg37 Mg 0.23274 0.10597 0.82807 0.0
O38 O 0.2986 0.08521 0.84204 0.0
Mg39 Mg 0.40185 0.08397 0.83891 0.0
Mg40 Mg 0.24503 0.01566 0.84684 0.0
C41 C 0.09254 0.00504 0.82674 0.0
C42 C 0.14818 0.12538 0.85626 0.0
O43 O 0.1326 0.21073 0.79642 0.0
O44 O 0.03156 0.15532 0.79834 0.0
O45 O 0.14608 0.24522 0.82676 0.0
O46 O 0.04823 0.19098 0.83144 0.0
O47 O 0.04667 0.0376 0.82134 0.0
O48 O 0.1599 0.02293 0.82982 0.0
C49 C 0.29897 0.08979 0.79835 0.0
O50 O 0.29274 0.0666 0.80913 0.0
O51 O 0.28539 0.1424 0.79761 0.0
O52 O 0.33315 0.01607 0.86388 0.0
O53 O 0.43732 0.05882 0.85717 0.0
O54 O 0.3256 0.96442 0.8339 0.0
C55 C 0.40111 0.03396 0.86569 0.0
O56 O 0.4098 0.01715 0.82448 0.0
O57 O 0.42394 0.17021 0.83445 0.0
C58 C 0.3808 0.96932 0.82619 0.0
O59 O 0.30963 0.18744 0.82693 0.0
O60 O 0.16437 0.14617 0.84561 0.0
O61 O 0.17032 0.07628 0.8588 0.0
C62 C 0.59742 0.81506 0.60472 0.0
C63 C 0.65273 0.75909 0.56526 0.0
C64 C 0.94052 0.79907 0.57518 0.0
Mg65 Mg 0.62128 0.87148 0.57891 0.0
O66 O 0.72109 0.87143 0.58469 0.0
Mg67 Mg 0.76877 0.80019 0.58993 0.0
Mg68 Mg 0.80095 0.89888 0.57377 0.0
O69 O 0.88271 0.92834 0.56353 0.0
Mg70 Mg 0.97824 0.92712 0.57117 0.0
Mg71 Mg 0.83301 1.00342 0.56138 0.0
C72 C 0.65686 0.99682 0.57336 0.0
C73 C 0.76425 0.89916 0.54278 0.0
O74 O 0.66565 0.7965 0.60439 0.0
O75 O 0.56989 0.8427 0.59578 0.0
O76 O 0.70078 0.7535 0.5742 0.0
O77 O 0.62104 0.80625 0.56374 0.0
O78 O 0.60643 0.96024 0.57556 0.0
O79 O 0.727 0.98129 0.57235 0.0
C80 C 0.86002 0.90358 0.60385 0.0
O81 O 0.85268 0.92858 0.5935 0.0
O82 O 0.83384 0.85419 0.60493 0.0
O83 O 0.94318 0.02508 0.55179 0.0
O84 O 0.04064 0.97209 0.5576 0.0
O85 O 0.88475 0.04334 0.57983 0.0
C86 C 0.01315 0.01198 0.55149 0.0
O87 O 0.97009 0.98577 0.58753 0.0
O88 O 0.99094 0.83662 0.57355 0.0
C89 C 0.93336 0.03201 0.58831 0.0
O90 O 0.86959 0.81318 0.57552 0.0
O91 O 0.75723 0.87177 0.55297 0.0
O92 O 0.78766 0.95057 0.54349 0.0
C93 C 0.61375 0.93583 0.17368 0.0
C94 C 0.65454 1.00207 0.21263 0.0
C95 C 0.94852 0.95158 0.20488 0.0
Mg96 Mg 0.62561 0.88524 0.20038 0.0
O97 O 0.72778 0.88462 0.19619 0.0
Mg98 Mg 0.77936 0.95305 0.19016 0.0
Mg99 Mg 0.80686 0.85392 0.20678 0.0
O100 O 0.8899 0.82155 0.21622 0.0
Mg101 Mg 0.98448 0.821 0.20788 0.0
Mg102 Mg 0.83738 0.7475 0.21827 0.0
C103 C 0.65836 0.75999 0.20722 0.0
C104 C 0.77527 0.85109 0.23791 0.0
O105 O 0.68078 0.95607 0.17506 0.0
O106 O 0.58243 0.90811 0.18226 0.0
O107 O 0.70954 1.00437 0.20481 0.0
O108 O 0.61959 0.95609 0.21418 0.0
O109 O 0.60964 0.79743 0.20472 0.0
O110 O 0.72924 0.77369 0.20826 0.0
C111 C 0.8642 0.84663 0.17644 0.0
O112 O 0.85466 0.82193 0.18678 0.0
O113 O 0.84293 0.8972 0.17552 0.0
O114 O 0.94852 0.72298 0.22713 0.0
O115 O 0.04667 0.77572 0.22152 0.0
O116 O 0.88105 0.70761 0.1992 0.0
C117 C 0.01868 0.73551 0.22749 0.0
O118 O 0.97311 0.75978 0.19164 0.0
O119 O 0.99873 0.913 0.2058 0.0
C120 C 0.92965 0.71672 0.19056 0.0
O121 O 0.87744 0.93847 0.205 0.0
O122 O 0.76592 0.88071 0.2281 0.0
O123 O 0.79922 0.79993 0.23659 0.0
C124 C 0.05343 0.55682 0.98319 0.0
C125 C 0.09936 0.52388 0.94251 0.0
C126 C 0.37888 0.56205 0.95126 0.0
Mg127 Mg 0.05636 0.62935 0.96009 0.0
O128 O 0.15921 0.63181 0.96435 0.0
Mg129 Mg 0.2158 0.55977 0.96687 0.0
Mg130 Mg 0.23029 0.65714 0.95165 0.0
O131 O 0.29975 0.67941 0.93843 0.0
Mg132 Mg 0.40198 0.6831 0.9429 0.0
Mg133 Mg 0.24535 0.74782 0.93318 0.0
C134 C 0.08601 0.7539 0.95189 0.0
C135 C 0.14961 0.63969 0.923 0.0
O136 O 0.12061 0.54256 0.98012 0.0
O137 O 0.01592 0.59253 0.97716 0.0
O138 O 0.1545 0.51553 0.95003 0.0
O139 O 0.05517 0.56617 0.94442 0.0
O140 O 0.0393 0.71843 0.95614 0.0
O141 O 0.1555 0.73886 0.94959 0.0
C142 C 0.28725 0.67164 0.98181 0.0
O143 O 0.28539 0.69525 0.97104 0.0
O144 O 0.27023 0.61933 0.98236 0.0
O145 O 0.33976 0.74709 0.917 0.0
O146 O 0.44321 0.70823 0.9251 0.0
O147 O 0.31855 0.79929 0.94718 0.0
C148 C 0.40887 0.73058 0.91601 0.0
O149 O 0.4036 0.75007 0.95742 0.0
O150 O 0.42633 0.59713 0.94727 0.0
C151 C 0.36859 0.79579 0.95587 0.0
O152 O 0.30974 0.57806 0.9533 0.0
O153 O 0.16666 0.61888 0.93358 0.0
O154 O 0.17152 0.6888 0.92047 0.0
C155 C 0.11766 0.57613 0.28609 0.0
C156 C 0.04836 0.66456 0.32209 0.0
C157 C 0.31992 0.64988 0.3387 0.0
Mg158 Mg 0.05458 0.53999 0.31176 0.0
O159 O 0.15617 0.54673 0.31612 0.0
Mg160 Mg 0.21629 0.61694 0.31276 0.0
Mg161 Mg 0.18917 0.54076 0.33387 0.0
O162 O 0.22295 0.53753 0.35181 0.0
Mg163 Mg 0.3223 0.55167 0.35677 0.0
Mg164 Mg 0.16686 0.47103 0.35736 0.0
C165 C 0.05853 0.43562 0.32985 0.0
C166 C 0.04834 0.57319 0.35392 0.0
O167 O 0.16874 0.60377 0.29253 0.0
O168 O 0.06816 0.54624 0.29137 0.0
O169 O 0.11736 0.66955 0.31907 0.0
O170 O 0.01248 0.61794 0.32054 0.0
O171 O 0.0287 0.46078 0.32061 0.0
O172 O 0.11814 0.45687 0.33576 0.0
C173 C 0.30842 0.50504 0.31012 0.0
O174 O 0.28 0.48912 0.3207 0.0
O175 O 0.31059 0.55723 0.30805 0.0
O176 O 0.21804 0.49327 0.37878 0.0
O177 O 0.31318 0.55457 0.3767 0.0
O178 O 0.27226 0.41818 0.35253 0.0
C179 C 0.27067 0.52619 0.38358 0.0
O180 O 0.37289 0.47469 0.35086 0.0
O181 O 0.35166 0.62831 0.34814 0.0
C182 C 0.34234 0.42608 0.35035 0.0
O183 O 0.26271 0.62457 0.33303 0.0
O184 O 0.08634 0.58744 0.34418 0.0
O185 O 0.06765 0.53143 0.3603 0.0
C186 C 0.62137 0.27061 0.11956 0.0
C187 C 0.65524 0.20201 0.081 0.0
C188 C 0.94199 0.23759 0.0829 0.0
Mg189 Mg 0.63305 0.31746 0.09263 0.0
O190 O 0.7346 0.32023 0.09736 0.0
Mg191 Mg 0.78503 0.25043 0.10266 0.0
Mg192 Mg 0.80445 0.34032 0.08392 0.0
O193 O 0.87354 0.36209 0.07065 0.0
Mg194 Mg 0.97739 0.35815 0.07321 0.0
Mg195 Mg 0.82218 0.43576 0.06799 0.0
C196 C 0.66017 0.4383 0.0841 0.0
C197 C 0.74185 0.32627 0.05395 0.0
O198 O 0.69015 0.25311 0.1188 0.0
O199 O 0.5891 0.29382 0.11038 0.0
O200 O 0.70739 0.1986 0.08935 0.0
O201 O 0.62858 0.24946 0.0784 0.0
O202 O 0.61201 0.40293 0.08775 0.0
O203 O 0.73012 0.42296 0.08259 0.0
C204 C 0.88584 0.35808 0.1125 0.0
O205 O 0.87297 0.37833 0.10167 0.0
O206 O 0.85938 0.31031 0.11516 0.0
O207 O 0.91281 0.44584 0.05341 0.0
O208 O 0.01297 0.38981 0.05526 0.0
O209 O 0.89619 0.47838 0.08361 0.0
C210 C 0.97638 0.42672 0.04945 0.0
O211 O 0.99107 0.42149 0.08846 0.0
O212 O 0.98871 0.26989 0.07762 0.0
C213 C 0.95377 0.46728 0.09039 0.0
O214 O 0.87497 0.25622 0.08605 0.0
O215 O 0.74555 0.3027 0.06472 0.0
O216 O 0.75845 0.37853 0.05333 0.0
C217 C 0.60723 0.51454 0.66499 0.0
C218 C 0.66665 0.5613 0.70622 0.0
C219 C 0.94546 0.51945 0.69684 0.0
Mg220 Mg 0.62201 0.45462 0.69029 0.0
O221 O 0.72324 0.45297 0.68516 0.0
Mg222 Mg 0.77644 0.5233 0.68085 0.0
Mg223 Mg 0.79847 0.42544 0.69694 0.0
O224 O 0.87384 0.39571 0.70839 0.0
Mg225 Mg 0.97473 0.39185 0.70308 0.0
Mg226 Mg 0.81583 0.32491 0.71139 0.0
C227 C 0.64913 0.33069 0.69687 0.0
C228 C 0.75182 0.43601 0.72772 0.0
O229 O 0.67563 0.53222 0.66627 0.0
O230 O 0.57544 0.48606 0.67337 0.0
O231 O 0.71484 0.56945 0.69743 0.0
O232 O 0.62712 0.51636 0.70602 0.0
O233 O 0.60044 0.36639 0.69352 0.0
O234 O 0.71847 0.34668 0.69867 0.0
C235 C 0.85984 0.41594 0.66698 0.0
O236 O 0.85225 0.39126 0.67744 0.0
O237 O 0.83665 0.46628 0.6659 0.0
O238 O 0.91492 0.30445 0.72357 0.0
O239 O 0.02005 0.35211 0.71951 0.0
O240 O 0.86974 0.28047 0.69389 0.0
C241 C 0.98373 0.31691 0.72588 0.0
O242 O 0.96667 0.33022 0.68702 0.0
O243 O 0.99286 0.48208 0.70003 0.0
C244 C 0.92151 0.28818 0.6857 0.0
O245 O 0.87505 0.50574 0.69506 0.0
O246 O 0.7517 0.46061 0.7171 0.0
O247 O 0.76839 0.38349 0.72789 0.0
C248 C 0.56009 0.06623 0.98685 0.0
C249 C 0.58944 0.03132 0.94536 0.0
C250 C 0.87597 0.05953 0.9513 0.0
Mg251 Mg 0.55939 0.13714 0.96344 0.0
O252 O 0.66311 0.13463 0.96624 0.0
Mg253 Mg 0.71592 0.06115 0.96857 0.0
Mg254 Mg 0.73147 0.15832 0.95301 0.0
O255 O 0.7987 0.18018 0.93935 0.0
Mg256 Mg 0.90221 0.18019 0.94229 0.0
Mg257 Mg 0.74541 0.24968 0.93445 0.0
C258 C 0.59072 0.25873 0.95422 0.0
C259 C 0.65017 0.14081 0.92445 0.0
O260 O 0.62439 0.04787 0.98302 0.0
O261 O 0.52339 0.10302 0.98103 0.0
O262 O 0.64559 0.01886 0.95233 0.0
O263 O 0.55032 0.07596 0.94774 0.0
O264 O 0.54463 0.22549 0.95936 0.0
O265 O 0.65853 0.24147 0.95125 0.0
C266 C 0.79284 0.17179 0.98302 0.0
O267 O 0.78945 0.19571 0.97228 0.0
O268 O 0.77669 0.11933 0.98355 0.0
O269 O 0.83435 0.24946 0.91753 0.0
O270 O 0.93779 0.20498 0.92396 0.0
O271 O 0.82479 0.29981 0.94781 0.0
C272 C 0.90169 0.23064 0.91555 0.0
O273 O 0.91092 0.24692 0.95677 0.0
O274 O 0.92265 0.09342 0.94662 0.0
C275 C 0.87993 0.29453 0.95553 0.0
O276 O 0.80825 0.07705 0.95419 0.0
O277 O 0.66636 0.1197 0.93504 0.0
O278 O 0.67158 0.19025 0.92208 0.0
C279 C 0.61984 0.0668 0.28201 0.0
C280 C 0.53413 0.15819 0.31596 0.0
C281 C 0.81849 0.14524 0.33546 0.0
Mg282 Mg 0.55196 0.03252 0.30712 0.0
O283 O 0.64821 0.04736 0.31353 0.0
Mg284 Mg 0.7095 0.11439 0.30934 0.0
Mg285 Mg 0.67631 0.04646 0.33163 0.0
O286 O 0.70676 0.04564 0.34991 0.0
Mg287 Mg 0.80893 0.04584 0.35387 0.0
Mg288 Mg 0.63868 0.98575 0.35613 0.0
C289 C 0.54471 0.94037 0.32781 0.0
C290 C 0.53723 0.09527 0.35077 0.0
O291 O 0.66576 0.09761 0.2889 0.0
O292 O 0.57217 0.03421 0.28689 0.0
O293 O 0.60492 0.16705 0.31465 0.0
O294 O 0.50323 0.10997 0.31371 0.0
O295 O 0.52204 0.9575 0.31709 0.0
O296 O 0.59698 0.96787 0.33442 0.0
C297 C 0.79954 0.9996 0.30901 0.0
O298 O 0.76608 0.98877 0.31961 0.0
O299 O 0.79995 0.04944 0.30516 0.0
O300 O 0.6893 0.01193 0.37728 0.0
O301 O 0.80255 0.05138 0.37407 0.0
O302 O 0.73018 0.91987 0.3528 0.0
C303 C 0.75137 0.03516 0.38149 0.0
O304 O 0.83857 0.96206 0.34809 0.0
O305 O 0.84837 0.11952 0.34454 0.0
C306 C 0.79913 0.91798 0.34942 0.0
O307 O 0.75663 0.12577 0.33004 0.0
O308 O 0.5779 0.10255 0.34083 0.0
O309 O 0.54924 0.05465 0.35788 0.0
C310 C 0.10875 0.74789 0.11601 0.0
C311 C 0.15738 0.69943 0.07505 0.0
C312 C 0.44193 0.7402 0.0831 0.0
Mg313 Mg 0.12055 0.80714 0.09062 0.0
O314 O 0.22232 0.80823 0.09552 0.0
Mg315 Mg 0.27502 0.73745 0.09957 0.0
Mg316 Mg 0.29621 0.83538 0.08353 0.0
O317 O 0.37003 0.86455 0.0718 0.0
Mg318 Mg 0.47186 0.86706 0.07652 0.0
Mg319 Mg 0.31282 0.9359 0.0691 0.0
C320 C 0.14768 0.93102 0.08418 0.0
C321 C 0.24558 0.82544 0.05296 0.0
O322 O 0.17703 0.73039 0.11455 0.0
O323 O 0.07546 0.77573 0.10767 0.0
O324 O 0.20678 0.69142 0.08366 0.0
O325 O 0.12145 0.74574 0.07482 0.0
O326 O 0.09915 0.89528 0.08755 0.0
O327 O 0.21692 0.91501 0.08223 0.0
C328 C 0.36266 0.84384 0.11322 0.0
O329 O 0.35337 0.86921 0.10289 0.0
O330 O 0.33936 0.79346 0.11421 0.0
O331 O 0.40989 0.95502 0.05637 0.0
O332 O 0.51451 0.9057 0.05978 0.0
O333 O 0.37101 0.97935 0.08636 0.0
C334 C 0.47769 0.94126 0.0536 0.0
O335 O 0.46833 0.9283 0.09261 0.0
O336 O 0.48923 0.77723 0.07971 0.0
C337 C 0.42436 0.97086 0.09423 0.0
O338 O 0.37163 0.75404 0.08494 0.0
O339 O 0.24647 0.80068 0.06355 0.0
O340 O 0.26197 0.878 0.0528 0.0
C341 C 0.13181 0.99317 0.66134 0.0
C342 C 0.15596 0.0597 0.69962 0.0
C343 C 0.44428 0.02412 0.69936 0.0
Mg344 Mg 0.13694 0.94409 0.68814 0.0
O345 O 0.23931 0.94141 0.68402 0.0
Mg346 Mg 0.29147 0.01146 0.67914 0.0
Mg347 Mg 0.30617 0.92164 0.69794 0.0
O348 O 0.37199 0.90053 0.71166 0.0
Mg349 Mg 0.4762 0.90448 0.70971 0.0
Mg350 Mg 0.31922 0.82742 0.71439 0.0
C351 C 0.16175 0.82317 0.69694 0.0
C352 C 0.23787 0.93713 0.72756 0.0
O353 O 0.20073 0.00991 0.6625 0.0
O354 O 0.09737 0.96936 0.67022 0.0
O355 O 0.21073 0.06343 0.6918 0.0
O356 O 0.13085 0.012 0.70237 0.0
O357 O 0.11453 0.85823 0.69284 0.0
O358 O 0.23121 0.83892 0.69897 0.0
C359 C 0.39311 0.9034 0.66989 0.0
O360 O 0.37822 0.88291 0.68064 0.0
O361 O 0.3677 0.95134 0.66715 0.0
O362 O 0.40642 0.81917 0.72985 0.0
O363 O 0.50655 0.87567 0.72815 0.0
O364 O 0.39631 0.78346 0.69968 0.0
C365 C 0.46897 0.83963 0.73406 0.0
O366 O 0.49369 0.83844 0.69518 0.0
O367 O 0.49031 0.99213 0.70489 0.0
C368 C 0.45681 0.7923 0.69347 0.0
O369 O 0.37739 0.0055 0.69616 0.0
O370 O 0.24442 0.96033 0.71678 0.0
O371 O 0.25205 0.88465 0.72831 0.0
C372 C 0.61806 0.68419 0.49431 0.0
C373 C 0.55088 0.5927 0.45864 0.0
C374 C 0.82277 0.60909 0.44201 0.0
Mg375 Mg 0.55544 0.71793 0.46848 0.0
O376 O 0.65724 0.71165 0.46433 0.0
Mg377 Mg 0.71811 0.64216 0.46794 0.0
Mg378 Mg 0.69029 0.71711 0.44663 0.0
O379 O 0.72385 0.72002 0.42868 0.0
Mg380 Mg 0.82305 0.70662 0.42366 0.0
Mg381 Mg 0.66579 0.7851 0.42283 0.0
C382 C 0.55787 0.82107 0.45016 0.0
C383 C 0.54961 0.68183 0.42659 0.0
O384 O 0.66947 0.65629 0.48804 0.0
O385 O 0.56856 0.71341 0.48885 0.0
O386 O 0.61999 0.58849 0.46166 0.0
O387 O 0.51446 0.6391 0.46001 0.0
O388 O 0.52804 0.7962 0.45943 0.0
O389 O 0.61799 0.80011 0.44442 0.0
C390 C 0.80804 0.7547 0.47068 0.0
O391 O 0.77953 0.77032 0.46006 0.0
O392 O 0.81154 0.70252 0.47269 0.0
O393 O 0.71634 0.76196 0.40146 0.0
O394 O 0.81275 0.70204 0.40372 0.0
O395 O 0.76973 0.83982 0.42735 0.0
C396 C 0.76935 0.7293 0.39675 0.0
O397 O 0.87173 0.78483 0.42916 0.0
O398 O 0.85385 0.63078 0.43252 0.0
C399 C 0.84005 0.83301 0.42948 0.0
O400 O 0.76536 0.63404 0.44769 0.0
O401 O 0.58817 0.66862 0.43637 0.0
O402 O 0.56786 0.72345 0.4201 0.0
C403 C 0.55495 0.70855 0.79983 0.0
C404 C 0.61267 0.73986 0.83985 0.0
C405 C 0.88766 0.69852 0.82956 0.0
Mg406 Mg 0.56328 0.63469 0.82271 0.0
O407 O 0.66459 0.63108 0.81764 0.0
Mg408 Mg 0.72197 0.70222 0.81467 0.0
Mg409 Mg 0.73892 0.60322 0.82952 0.0
O410 O 0.81306 0.57795 0.84182 0.0
Mg411 Mg 0.91425 0.57544 0.83664 0.0
Mg412 Mg 0.7598 0.50823 0.84648 0.0
C413 C 0.59267 0.50847 0.82973 0.0
C414 C 0.67259 0.61652 0.85916 0.0
O415 O 0.62356 0.72129 0.80223 0.0
O416 O 0.51846 0.67331 0.80615 0.0
O417 O 0.66564 0.7473 0.83186 0.0
O418 O 0.56839 0.69732 0.83852 0.0
O419 O 0.54543 0.54513 0.82615 0.0
O420 O 0.66283 0.52267 0.83167 0.0
C421 C 0.78851 0.59054 0.79892 0.0
O422 O 0.78797 0.56652 0.80962 0.0
O423 O 0.77162 0.64293 0.79856 0.0
O424 O 0.86024 0.50197 0.86134 0.0
O425 O 0.96195 0.54399 0.85345 0.0
O426 O 0.82338 0.46009 0.83039 0.0
C427 C 0.92969 0.51759 0.86213 0.0
O428 O 0.90886 0.51285 0.82115 0.0
O429 O 0.93627 0.66326 0.83314 0.0
C430 C 0.87083 0.4674 0.82143 0.0
O431 O 0.81858 0.68208 0.82765 0.0
O432 O 0.68222 0.63922 0.84851 0.0
O433 O 0.69648 0.5669 0.86088 0.0
C434 C 0.11221 0.31834 0.60736 0.0
C435 C 0.15726 0.2544 0.56822 0.0
C436 C 0.44676 0.30319 0.5757 0.0
Mg437 Mg 0.12478 0.36962 0.58079 0.0
O438 O 0.22629 0.37188 0.58568 0.0
Mg439 Mg 0.27884 0.30321 0.59131 0.0
Mg440 Mg 0.30334 0.40017 0.57441 0.0
O441 O 0.38222 0.42975 0.56369 0.0
Mg442 Mg 0.47899 0.43102 0.57091 0.0
Mg443 Mg 0.32863 0.50266 0.56106 0.0
C444 C 0.15479 0.49437 0.57384 0.0
C445 C 0.26282 0.39471 0.54339 0.0
O446 O 0.18017 0.29979 0.60627 0.0
O447 O 0.08038 0.34472 0.5986 0.0
O448 O 0.20979 0.25195 0.57653 0.0
O449 O 0.12259 0.3003 0.56655 0.0
O450 O 0.10604 0.45738 0.57658 0.0
O451 O 0.22531 0.48006 0.57268 0.0
C452 C 0.36429 0.41137 0.60459 0.0
O453 O 0.35478 0.43525 0.59411 0.0
O454 O 0.34241 0.36093 0.60573 0.0
O455 O 0.4359 0.52449 0.55077 0.0
O456 O 0.53667 0.47512 0.55665 0.0
O457 O 0.38257 0.54639 0.57886 0.0
C458 C 0.5063 0.51295 0.55026 0.0
O459 O 0.47062 0.4919 0.58689 0.0
O460 O 0.49609 0.34098 0.57364 0.0
C461 C 0.43359 0.53801 0.58716 0.0
O462 O 0.3758 0.31674 0.57638 0.0
O463 O 0.25914 0.36844 0.5538 0.0
O464 O 0.28268 0.44684 0.54372 0.0
C465 C 0.08596 0.44671 0.17794 0.0
C466 C 0.1328 0.50109 0.21382 0.0
C467 C 0.43526 0.45905 0.20572 0.0
Mg468 Mg 0.10939 0.38858 0.20343 0.0
O469 O 0.21044 0.39145 0.19745 0.0
Mg470 Mg 0.2592 0.4643 0.19289 0.0
Mg471 Mg 0.29332 0.36141 0.20737 0.0
O472 O 0.37671 0.32965 0.21686 0.0
Mg473 Mg 0.47027 0.32957 0.20857 0.0
Mg474 Mg 0.32579 0.25515 0.2192 0.0
C475 C 0.14946 0.26241 0.20805 0.0
C476 C 0.26082 0.35891 0.23834 0.0
O477 O 0.1524 0.46881 0.17888 0.0
O478 O 0.05943 0.41587 0.18638 0.0
O479 O 0.20195 0.50741 0.21108 0.0
O480 O 0.11376 0.45517 0.21844 0.0
O481 O 0.09766 0.29878 0.20649 0.0
O482 O 0.21939 0.27863 0.20859 0.0
C483 C 0.34662 0.36276 0.17707 0.0
O484 O 0.3418 0.33542 0.18715 0.0
O485 O 0.31935 0.41239 0.17669 0.0
O486 O 0.43656 0.23235 0.22826 0.0
O487 O 0.53436 0.28303 0.22166 0.0
O488 O 0.37421 0.21449 0.20062 0.0
C489 C 0.50692 0.24406 0.22806 0.0
O490 O 0.45625 0.27197 0.19209 0.0
O491 O 0.48485 0.4202 0.20659 0.0
C492 C 0.42088 0.22521 0.19182 0.0
O493 O 0.36386 0.44645 0.20595 0.0
O494 O 0.25293 0.38667 0.22826 0.0
O495 O 0.28378 0.30745 0.23745 0.0
H496 H 0.44962 0.35828 0.43402 0.0
H497 H 0.2338 0.44182 0.43464 0.0
H498 H 0.29299 0.53006 0.44289 0.0
H499 H 0.40445 0.58018 0.45168 0.0
H500 H 0.61827 0.49311 0.45144 0.0
H501 H 0.56043 0.40886 0.44139 0.0
C502 C 0.41539 0.39575 0.43594 0.0
C503 C 0.33769 0.39354 0.43404 0.0
C504 C 0.44898 0.44529 0.44091 0.0
C505 C 0.29406 0.44263 0.4362 0.0
C506 C 0.3276 0.49285 0.44098 0.0
C507 C 0.43819 0.54272 0.44945 0.0
C508 C 0.51489 0.5425 0.45252 0.0
C509 C 0.40473 0.4941 0.44371 0.0
C510 C 0.55856 0.49409 0.44938 0.0
C511 C 0.52585 0.44591 0.44357 0.0
H512 H 0.07882 0.00582 0.45089 0.0
H513 H 0.8783 0.09624 0.46366 0.0
H514 H 0.80016 0.02313 0.45265 0.0
H515 H 0.78999 0.93212 0.4403 0.0
H516 H 0.99148 0.84242 0.42779 0.0
H517 H 0.06894 0.91835 0.43767 0.0
C518 C 0.01801 0.00932 0.45142 0.0
C519 C 0.98411 0.05551 0.45822 0.0
C520 C 0.97401 0.96802 0.44502 0.0
C521 C 0.9054 0.06041 0.45855 0.0
C522 C 0.86085 0.019 0.45222 0.0
C523 C 0.85081 0.92971 0.43957 0.0
C524 C 0.88541 0.88195 0.43353 0.0
C525 C 0.89474 0.97257 0.44549 0.0
C526 C 0.96406 0.87886 0.43259 0.0
C527 C 0.00822 0.92192 0.43826 0.0
H528 H 0.35781 0.86656 0.83472 0.0
H529 H 0.52022 0.9629 0.81477 0.0
H530 H 0.62267 0.91381 0.82475 0.0
H531 H 0.66411 0.8484 0.84023 0.0
H532 H 0.50121 0.74991 0.85873 0.0
H533 H 0.39979 0.80648 0.85108 0.0
C534 C 0.41555 0.87649 0.83237 0.0
C535 C 0.43156 0.92082 0.82469 0.0
C536 C 0.47326 0.8528 0.83906 0.0
C537 C 0.50648 0.93016 0.82104 0.0
C538 C 0.56504 0.90392 0.82711 0.0
C539 C 0.60617 0.84029 0.84281 0.0
C540 C 0.5877 0.78949 0.848 0.0
C541 C 0.54873 0.86713 0.83656 0.0
C542 C 0.5158 0.78524 0.85339 0.0
C543 C 0.45724 0.81561 0.84844 0.0
H544 H 0.12339 0.34611 0.83134 0.0
H545 H 0.95592 0.2435 0.84793 0.0
H546 H 0.85626 0.29442 0.83763 0.0
H547 H 0.82039 0.35813 0.82126 0.0
H548 H 0.98857 0.45544 0.80373 0.0
H549 H 0.0882 0.4043 0.81403 0.0
C550 C 0.06486 0.33544 0.83288 0.0
C551 C 0.0466 0.2864 0.83881 0.0
C552 C 0.01016 0.35828 0.82533 0.0
C553 C 0.97128 0.27826 0.84236 0.0
C554 C 0.91451 0.30513 0.83596 0.0
C555 C 0.87924 0.36684 0.81945 0.0
C556 C 0.89907 0.41679 0.81402 0.0
C557 C 0.93407 0.34225 0.82673 0.0
C558 C 0.97309 0.42144 0.80954 0.0
C559 C 0.02989 0.39446 0.8159 0.0
H560 H 0.58337 0.55223 0.58805 0.0
H561 H 0.37735 0.64203 0.59657 0.0
H562 H 0.41877 0.71774 0.58362 0.0
H563 H 0.50372 0.74873 0.56713 0.0
H564 H 0.70396 0.6535 0.55715 0.0
H565 H 0.66512 0.58073 0.57105 0.0
C566 C 0.54802 0.58905 0.58732 0.0
C567 C 0.47391 0.58901 0.59197 0.0
C568 C 0.56653 0.62668 0.57824 0.0
C569 C 0.43294 0.63963 0.59232 0.0
C570 C 0.45462 0.68129 0.58437 0.0
C571 C 0.53745 0.7109 0.56759 0.0
C572 C 0.60934 0.7081 0.56201 0.0
C573 C 0.51856 0.67285 0.57657 0.0
C574 C 0.6497 0.65731 0.56186 0.0
C575 C 0.62956 0.61731 0.57029 0.0
H576 H 0.08219 0.04554 0.59229 0.0
H577 H 0.87352 0.13348 0.59904 0.0
H578 H 0.91968 0.21142 0.5872 0.0
H579 H 0.0091 0.24384 0.57154 0.0
H580 H 0.21021 0.1478 0.56232 0.0
H581 H 0.1687 0.07522 0.57606 0.0
C582 C 0.04718 0.0824 0.59135 0.0
C583 C 0.97103 0.08096 0.59485 0.0
C584 C 0.06861 0.12085 0.58262 0.0
C585 C 0.93055 0.13182 0.59538 0.0
C586 C 0.95512 0.17483 0.58803 0.0
C587 C 0.04254 0.20594 0.57209 0.0
C588 C 0.11437 0.2022 0.56648 0.0
C589 C 0.02134 0.16724 0.58077 0.0
C590 C 0.15531 0.15181 0.5668 0.0
C591 C 0.13344 0.11182 0.57512 0.0
H592 H 0.50698 0.01019 0.20821 0.0
H593 H 0.70522 0.1096 0.21779 0.0
H594 H 0.65997 0.18306 0.20463 0.0
H595 H 0.57023 0.21391 0.18913 0.0
H596 H 0.36413 0.12192 0.18203 0.0
H597 H 0.41452 0.0433 0.19317 0.0
C598 C 0.539 0.04892 0.20787 0.0
C599 C 0.61052 0.05389 0.21361 0.0
C600 C 0.51542 0.0886 0.19959 0.0
C601 C 0.65024 0.10488 0.21335 0.0
C602 C 0.62609 0.14557 0.20539 0.0
C603 C 0.53674 0.17603 0.18976 0.0
C604 C 0.46077 0.17573 0.18605 0.0
C605 C 0.56061 0.13641 0.19803 0.0
C606 C 0.4215 0.12431 0.18554 0.0
C607 C 0.4486 0.08075 0.19249 0.0
H608 H 0.86414 0.61206 0.18713 0.0
H609 H 0.04729 0.70694 0.17304 0.0
H610 H 0.13599 0.6357 0.1787 0.0
H611 H 0.16297 0.57203 0.19538 0.0
H612 H 0.9806 0.48453 0.21269 0.0
H613 H 0.89009 0.53146 0.19954 0.0
C614 C 0.92341 0.61587 0.18486 0.0
C615 C 0.95146 0.66818 0.18162 0.0
C616 C 0.97443 0.579 0.19001 0.0
C617 C 0.02518 0.66929 0.17679 0.0
C618 C 0.07665 0.62951 0.18051 0.0
C619 C 0.10365 0.56209 0.19613 0.0
C620 C 0.07853 0.5252 0.2051 0.0
C621 C 0.05231 0.58852 0.18852 0.0
C622 C 1.00131 0.51302 0.2059 0.0
C623 C 0.94961 0.53928 0.19829 0.0
H624 H 0.44335 0.01863 0.93854 0.0
H625 H 0.65706 0.93779 0.93234 0.0
H626 H 0.60912 0.85249 0.94118 0.0
H627 H 0.51611 0.81138 0.95487 0.0
H628 H 0.30662 0.89769 0.96336 0.0
H629 H 0.35011 0.97815 0.95217 0.0
C630 C 0.47886 0.98166 0.93891 0.0
C631 C 0.55628 0.98617 0.93689 0.0
C632 C 0.45499 0.93808 0.94605 0.0
C633 C 0.59858 0.93635 0.93522 0.0
C634 C 0.57272 0.8889 0.94088 0.0
C635 C 0.48113 0.84875 0.95474 0.0
C636 C 0.40721 0.84824 0.95935 0.0
C637 C 0.50351 0.89172 0.94734 0.0
C638 C 0.36357 0.8975 0.95966 0.0
C639 C 0.38671 0.94199 0.95273 0.0
H640 H 0.85044 0.40038 0.94916 0.0
H641 H 0.01978 0.30203 0.96689 0.0
H642 H 0.1184 0.3511 0.95594 0.0
H643 H 0.1539 0.41574 0.93988 0.0
H644 H 0.98656 0.51693 0.92349 0.0
H645 H 0.88654 0.46142 0.93242 0.0
C646 C 0.909 0.39024 0.95084 0.0
C647 C 0.92784 0.34436 0.95788 0.0
C648 C 0.964 0.41384 0.94352 0.0
C649 C 1.00382 0.33535 0.96092 0.0
C650 C 0.06003 0.36143 0.95426 0.0
C651 C 0.09509 0.42461 0.93808 0.0
C652 C 0.07516 0.47645 0.93359 0.0
C653 C 0.04018 0.39843 0.94505 0.0
C654 C 1.00192 0.48131 0.92876 0.0
C655 C 0.94475 0.45166 0.93439 0.0
H656 H 0.58234 0.25477 0.32832 0.0
H657 H 0.38117 0.16213 0.31667 0.0
H658 H 0.30364 0.23522 0.32763 0.0
H659 H 0.29349 0.32623 0.33977 0.0
H660 H 0.49464 0.41919 0.3512 0.0
H661 H 0.5724 0.34376 0.34118 0.0
C662 C 0.52152 0.25088 0.32803 0.0
C663 C 0.48733 0.20382 0.3216 0.0
C664 C 0.4776 0.29241 0.3344 0.0
C665 C 0.4086 0.19849 0.32152 0.0
C666 C 0.3643 0.23994 0.32782 0.0
C667 C 0.35434 0.32958 0.34023 0.0
C668 C 0.38861 0.37796 0.34604 0.0
C669 C 0.39834 0.28703 0.33425 0.0
C670 C 0.46735 0.3822 0.34659 0.0
C671 C 0.5117 0.33941 0.34085 0.0
H672 H 0.94627 0.89724 0.34742 0.0
H673 H 0.72892 0.81595 0.34471 0.0
H674 H 0.78826 0.72751 0.33661 0.0
H675 H 0.90077 0.67717 0.3283 0.0
H676 H 0.11614 0.76239 0.3306 0.0
H677 H 0.05778 0.84609 0.34075 0.0
C678 C 0.91176 0.86019 0.34508 0.0
C679 C 0.83367 0.86311 0.34631 0.0
C680 C 0.94551 0.81066 0.34018 0.0
C681 C 0.78953 0.81455 0.34366 0.0
C682 C 0.82318 0.76425 0.33896 0.0
C683 C 0.93472 0.7141 0.33101 0.0
C684 C 0.01203 0.71409 0.32844 0.0
C685 C 0.90092 0.76247 0.33681 0.0
C686 C 0.05597 0.76172 0.33222 0.0
C687 C 0.02296 0.80956 0.33811 0.0
H688 H 0.37273 0.07944 0.09549 0.0
H689 H 0.53704 0.97883 0.11309 0.0
H690 H 0.638 0.0366 0.1055 0.0
H691 H 0.67855 0.09912 0.08945 0.0
H692 H 0.51376 0.19689 0.07036 0.0
H693 H 0.41257 0.14682 0.08038 0.0
C694 C 0.4309 0.07108 0.09789 0.0
C695 C 0.44988 0.01952 0.10268 0.0
C696 C 0.48774 0.09884 0.0917 0.0
C697 C 0.5222 0.01469 0.1079 0.0
C698 C 0.58032 0.0459 0.10304 0.0
C699 C 0.62052 0.10904 0.08728 0.0
C700 C 0.60365 0.15386 0.07978 0.0
C701 C 0.56346 0.08434 0.09394 0.0
C702 C 0.52831 0.16364 0.07644 0.0
C703 C 0.47045 0.13674 0.08254 0.0
H704 H 0.10389 0.48298 0.09274 0.0
H705 H 0.89514 0.56496 0.10295 0.0
H706 H 0.92997 0.64504 0.09086 0.0
H707 H 0.00931 0.68142 0.07433 0.0
H708 H 0.21945 0.60031 0.06427 0.0
H709 H 0.18542 0.52069 0.07661 0.0
C710 C 0.06687 0.5192 0.09257 0.0
C711 C 0.99261 0.5155 0.0969 0.0
C712 C 0.08299 0.5602 0.08416 0.0
C713 C 0.95016 0.56531 0.0985 0.0
C714 C 0.96798 0.60949 0.09103 0.0
C715 C 0.04668 0.64539 0.07451 0.0
C716 C 0.11991 0.64862 0.06968 0.0
C717 C 0.03147 0.60487 0.08306 0.0
C718 C 0.16431 0.59967 0.06868 0.0
C719 C 0.14692 0.55587 0.07629 0.0
H720 H 0.42061 0.68285 0.69576 0.0
H721 H 0.59234 0.7854 0.68023 0.0
H722 H 0.68926 0.73473 0.69131 0.0
H723 H 0.72105 0.67024 0.70778 0.0
H724 H 0.54884 0.57286 0.72406 0.0
H725 H 0.4516 0.6248 0.71333 0.0
C726 C 0.47947 0.69364 0.69462 0.0
C727 C 0.49928 0.74228 0.68865 0.0
C728 C 0.5323 0.67087 0.70254 0.0
C729 C 0.57554 0.75077 0.68574 0.0
C730 C 0.6306 0.72403 0.69257 0.0
C731 C 0.66176 0.66172 0.70921 0.0
C732 C 0.64029 0.61111 0.71419 0.0
C733 C 0.60875 0.68682 0.70164 0.0
C734 C 0.56568 0.60705 0.71842 0.0
C735 C 0.51033 0.6345 0.71181 0.0
H736 H 0.86705 0.18028 0.68482 0.0
H737 H 0.02902 0.27874 0.66608 0.0
H738 H 0.13021 0.21911 0.67271 0.0
H739 H 0.17349 0.1581 0.68878 0.0
H740 H 0.01234 0.06264 0.70931 0.0
H741 H 0.90935 0.11148 0.69943 0.0
C742 C 0.92467 0.18769 0.68194 0.0
C743 C 0.94371 0.23913 0.67707 0.0
C744 C 0.98245 0.1588 0.68762 0.0
C745 C 0.01453 0.24288 0.67127 0.0
C746 C 0.07304 0.21051 0.67559 0.0
C747 C 0.11598 0.14806 0.69126 0.0
C748 C 0.1007 0.10533 0.69944 0.0
C749 C 0.05775 0.17237 0.68482 0.0
C750 C 0.02574 0.09493 0.70291 0.0
C751 C 0.96682 0.12121 0.69694 0.0
H752 H 0.44426 0.05982 0.43294 0.0
H753 H 0.27428 0.03442 0.46141 0.0
H754 H 0.33251 0.94393 0.46546 0.0
H755 H 0.43083 0.87148 0.46087 0.0
H756 H 0.60069 0.89639 0.43235 0.0
H757 H 0.54269 0.98708 0.42832 0.0
C758 C 0.41966 0.03495 0.44012 0.0
C759 C 0.35425 0.05524 0.44693 0.0
C760 C 0.4533 0.98228 0.44231 0.0
C761 C 0.32419 0.02111 0.45607 0.0
C762 C 0.35759 0.96893 0.45834 0.0
C763 C 0.45557 0.8963 0.45369 0.0
C764 C 0.52087 0.87587 0.44689 0.0
C765 C 0.42197 0.94892 0.45149 0.0
C766 C 0.55088 0.90985 0.4377 0.0
C767 C 0.51761 0.96213 0.43544 0.0
H768 H 0.93115 0.37802 0.46372 0.0
H769 H 0.08394 0.38063 0.43167 0.0
H770 H 0.02838 0.46984 0.42608 0.0
H771 H 0.93791 0.5477 0.43038 0.0
H772 H 0.78367 0.54493 0.46222 0.0
H773 H 0.83878 0.45541 0.4678 0.0
C774 C 0.95253 0.39769 0.45544 0.0
C775 C 0.01243 0.37161 0.44813 0.0
C776 C 0.92016 0.4494 0.4523 0.0
C777 C 0.03827 0.39869 0.43747 0.0
C778 C 0.00646 0.45009 0.43431 0.0
C779 C 0.91598 0.52799 0.43861 0.0
C780 C 0.8563 0.55436 0.44593 0.0
C781 C 0.94766 0.47601 0.44168 0.0
C782 C 0.82934 0.5268 0.45644 0.0
C783 C 0.86096 0.47523 0.4596 0.0
H784 H 0.51993 0.24693 0.83463 0.0
H785 H 0.30125 0.29799 0.82182 0.0
H786 H 0.3478 0.39499 0.8211 0.0
H787 H 0.45023 0.46608 0.82436 0.0
H788 H 0.66874 0.41426 0.83711 0.0
H789 H 0.62218 0.31741 0.8377 0.0
C790 C 0.48194 0.27891 0.83158 0.0
C791 C 0.40635 0.2639 0.8282 0.0
C792 C 0.50917 0.33505 0.8313 0.0
C793 C 0.35928 0.3071 0.82437 0.0
C794 C 0.38608 0.36297 0.82403 0.0
C795 C 0.48807 0.4339 0.82736 0.0
C796 C 0.56366 0.44874 0.83081 0.0
C797 C 0.46081 0.37763 0.82755 0.0
C798 C 0.61074 0.4053 0.83451 0.0
C799 C 0.58393 0.34951 0.83479 0.0
H800 H 0.02756 0.74493 0.83495 0.0
H801 H 0.80835 0.78938 0.82111 0.0
H802 H 0.85168 0.88643 0.81948 0.0
H803 H 0.95179 0.95922 0.82185 0.0
H804 H 0.17066 0.91523 0.83591 0.0
H805 H 0.12713 0.8182 0.83767 0.0
C806 C 0.98886 0.77552 0.83149 0.0
C807 C 0.91414 0.75851 0.82803 0.0
C808 C 0.01422 0.83193 0.8307 0.0
C809 C 0.86581 0.79999 0.82375 0.0
C810 C 0.89077 0.85592 0.82285 0.0
C811 C 0.99038 0.92876 0.82539 0.0
C812 C 0.0652 0.94573 0.82878 0.0
C813 C 0.96482 0.87251 0.82631 0.0
C814 C 0.11317 0.90454 0.83329 0.0
C815 C 0.08813 0.84863 0.83424 0.0
H816 H 0.5921 0.2624 0.57302 0.0
H817 H 0.36491 0.20598 0.57902 0.0
H818 H 0.40962 0.10831 0.57832 0.0
H819 H 0.51256 0.0383 0.57589 0.0
H820 H 0.74014 0.09398 0.56997 0.0
H821 H 0.69564 0.19192 0.57061 0.0
C822 C 0.55192 0.229 0.57427 0.0
C823 C 0.47438 0.24277 0.57618 0.0
C824 C 0.57825 0.1723 0.57373 0.0
C825 C 0.4244 0.19783 0.57765 0.0
C826 C 0.45017 0.14157 0.57718 0.0
C827 C 0.55301 0.07153 0.57464 0.0
C828 C 0.63046 0.0575 0.57276 0.0
C829 C 0.52687 0.12818 0.57517 0.0
C830 C 0.68068 0.10232 0.57129 0.0
C831 C 0.655 0.15871 0.57174 0.0
H832 H 0.00897 0.53419 0.57597 0.0
H833 H 0.23564 0.59178 0.57 0.0
H834 H 0.18956 0.68907 0.57029 0.0
H835 H 0.08552 0.75852 0.57254 0.0
H836 H 0.8586 0.70124 0.5784 0.0
H837 H 0.90446 0.60373 0.57797 0.0
C838 C 0.04878 0.56773 0.57462 0.0
C839 C 0.12658 0.5544 0.57286 0.0
C840 C 0.02166 0.62416 0.57492 0.0
C841 C 0.17599 0.59955 0.57124 0.0
C842 C 0.14941 0.6556 0.57149 0.0
C843 C 0.04552 0.72502 0.5738 0.0
C844 C 0.96782 0.73849 0.57562 0.0
C845 C 0.07246 0.66856 0.5734 0.0
C846 C 0.91819 0.69332 0.5771 0.0
C847 C 0.94466 0.63718 0.57679 0.0
H848 H 0.58191 0.49668 0.20783 0.0
H849 H 0.3559 0.55857 0.20338 0.0
H850 H 0.40484 0.6553 0.20399 0.0
H851 H 0.51149 0.72269 0.20575 0.0
H852 H 0.73751 0.66088 0.21024 0.0
H853 H 0.68851 0.56423 0.20981 0.0
C854 C 0.54278 0.53105 0.20691 0.0
C855 C 0.46438 0.51917 0.20545 0.0
C856 C 0.57153 0.58703 0.20742 0.0
C857 C 0.41591 0.56535 0.20443 0.0
C858 C 0.44415 0.621 0.20483 0.0
C859 C 0.55061 0.68838 0.20674 0.0
C860 C 0.62904 0.70027 0.20813 0.0
C861 C 0.52181 0.63245 0.20636 0.0
C862 C 0.67744 0.65416 0.2093 0.0
C863 C 0.64917 0.59852 0.20897 0.0
H864 H 0.00599 0.2183 0.20617 0.0
H865 H 0.2366 0.16612 0.21026 0.0
H866 H 0.19555 0.06727 0.20926 0.0
H867 H 0.09381 0.99462 0.20703 0.0
H868 H 0.86368 0.04804 0.20288 0.0
H869 H 0.90512 0.14646 0.20398 0.0
C870 C 0.04784 0.18564 0.20695 0.0
C871 C 0.12511 0.201 0.20842 0.0
C872 C 0.02365 0.12839 0.20623 0.0
C873 C 0.17718 0.15682 0.20926 0.0
C874 C 0.15347 0.09985 0.20862 0.0
C875 C 0.05235 0.02757 0.20627 0.0
C876 C 0.97489 0.01261 0.20477 0.0
C877 C 0.07683 0.08492 0.20703 0.0
C878 C 0.92317 0.05703 0.20395 0.0
C879 C 0.94707 0.11377 0.20463 0.0
H880 H 0.52001 0.51794 0.94615 0.0
H881 H 0.3018 0.47035 0.95985 0.0
H882 H 0.34763 0.37395 0.96154 0.0
H883 H 0.44934 0.3027 0.95914 0.0
H884 H 0.66731 0.34987 0.94526 0.0
H885 H 0.62146 0.44635 0.94354 0.0
C886 C 0.48205 0.48682 0.9496 0.0
C887 C 0.40685 0.50267 0.95298 0.0
C888 C 0.50885 0.43087 0.95042 0.0
C889 C 0.35956 0.46058 0.95727 0.0
C890 C 0.38595 0.40505 0.95819 0.0
C891 C 0.4873 0.33374 0.95566 0.0
C892 C 0.56251 0.31785 0.95229 0.0
C893 C 0.46042 0.38959 0.95477 0.0
C894 C 0.60959 0.35976 0.94786 0.0
C895 C 0.58321 0.41531 0.94693 0.0
H896 H 0.94449 0.79773 0.95734 0.0
H897 H 0.16253 0.84655 0.94379 0.0
H898 H 0.1174 0.94356 0.94289 0.0
H899 H 0.01668 0.01517 0.94601 0.0
H900 H 0.7984 0.96703 0.95955 0.0
H901 H 0.84336 0.8698 0.9605 0.0
C902 C 0.98252 0.82928 0.9541 0.0
C903 C 0.05758 0.81356 0.95054 0.0
C904 C 0.95608 0.88566 0.95371 0.0
C905 C 0.1049 0.85619 0.9465 0.0
C906 C 0.07893 0.91209 0.94604 0.0
C907 C 0.97845 0.98378 0.94926 0.0
C908 C 0.90348 0.99972 0.9528 0.0
C909 C 0.00476 0.92747 0.94967 0.0
C910 C 0.85601 0.95723 0.95688 0.0
C911 C 0.88189 0.90121 0.95735 0.0
H912 H 0.43542 0.7117 0.35014 0.0
H913 H 0.27877 0.71385 0.31858 0.0
H914 H 0.33309 0.80339 0.31286 0.0
H915 H 0.4257 0.88081 0.31668 0.0
H916 H 0.58108 0.87876 0.34842 0.0
H917 H 0.52596 0.78973 0.35422 0.0
C918 C 0.41278 0.7313 0.34194 0.0
C919 C 0.35271 0.70475 0.33474 0.0
C920 C 0.44404 0.78327 0.33878 0.0
C921 C 0.3248 0.73213 0.32427 0.0
C922 C 0.35595 0.78371 0.32102 0.0
C923 C 0.4477 0.86131 0.32493 0.0
C924 C 0.50822 0.88745 0.3321 0.0
C925 C 0.41564 0.80968 0.3282 0.0
C926 C 0.53491 0.86062 0.34273 0.0
C927 C 0.50336 0.80932 0.34602 0.0
H928 H 0.9332 0.38429 0.31863 0.0
H929 H 0.10044 0.36 0.34767 0.0
H930 H 0.04279 0.26881 0.35142 0.0
H931 H 0.9452 0.19565 0.34647 0.0
H932 H 0.77763 0.22038 0.31751 0.0
H933 H 0.83586 0.3112 0.31366 0.0
C934 C 0.95746 0.35949 0.32586 0.0
C935 C 0.02191 0.3803 0.3329 0.0
C936 C 0.92404 0.30658 0.3279 0.0
C937 C 0.05131 0.34629 0.34213 0.0
C938 C 0.01823 0.29372 0.34424 0.0
C939 C 0.92114 0.22041 0.33921 0.0
C940 C 0.85639 0.19982 0.33222 0.0
C941 C 0.95472 0.27328 0.33715 0.0
C942 C 0.82706 0.23386 0.32298 0.0
C943 C 0.86044 0.28624 0.32084 0.0
H944 H 0.58662 0.69999 0.07912 0.0
H945 H 0.36478 0.64452 0.08928 0.0
H946 H 0.41233 0.54804 0.08993 0.0
H947 H 0.51622 0.47897 0.08761 0.0
H948 H 0.73863 0.53368 0.07761 0.0
H949 H 0.69113 0.63035 0.07677 0.0
C950 C 0.54824 0.66708 0.08156 0.0
C951 C 0.47138 0.68072 0.08425 0.0
C952 C 0.57618 0.61107 0.08183 0.0
C953 C 0.4237 0.63643 0.08727 0.0
C954 C 0.45109 0.58086 0.08759 0.0
C955 C 0.55488 0.51167 0.08515 0.0
C956 C 0.63175 0.4978 0.08258 0.0
C957 C 0.52711 0.56758 0.08485 0.0
C958 C 0.67965 0.54193 0.07952 0.0
C959 C 0.65228 0.59759 0.07912 0.0
H960 H 0.00716 0.97614 0.08961 0.0
H961 H 0.22681 0.02341 0.07649 0.0
H962 H 0.18304 0.12066 0.07546 0.0
H963 H 0.08277 0.19264 0.07816 0.0
H964 H 0.86306 0.1463 0.09142 0.0
H965 H 0.90694 0.0489 0.09264 0.0
C966 C 0.04586 0.00742 0.08645 0.0
C967 C 0.12088 0.99117 0.083 0.0
C968 C 0.02022 0.06393 0.08601 0.0
C969 C 0.16918 0.03345 0.07909 0.0
C970 C 0.14397 0.08948 0.07856 0.0
C971 C 0.04396 0.16162 0.08141 0.0
C972 C 0.96887 0.178 0.08474 0.0
C973 C 0.06967 0.1053 0.08199 0.0
C974 C 0.92075 0.13606 0.08888 0.0
C975 C 0.946 0.07998 0.0895 0.0
H976 H 0.58506 0.06972 0.70405 0.0
H977 H 0.36559 0.11416 0.69032 0.0
H978 H 0.40911 0.21135 0.68868 0.0
H979 H 0.5089 0.28464 0.69147 0.0
H980 H 0.72852 0.23931 0.70497 0.0
H981 H 0.68518 0.14221 0.70643 0.0
C982 C 0.54628 0.1003 0.70061 0.0
C983 C 0.47133 0.08345 0.69728 0.0
C984 C 0.57182 0.15656 0.69975 0.0
C985 C 0.42319 0.12478 0.69289 0.0
C986 C 0.44822 0.18076 0.69201 0.0
C987 C 0.54766 0.25382 0.69481 0.0
C988 C 0.62254 0.27061 0.69824 0.0
C989 C 0.52228 0.19734 0.6955 0.0
C990 C 0.67098 0.22888 0.70237 0.0
C991 C 0.646 0.17291 0.70316 0.0
H992 H 0.0893 0.56077 0.70151 0.0
H993 H 0.86852 0.6148 0.69041 0.0
H994 H 0.91532 0.71163 0.69001 0.0
H995 H 0.01841 0.78154 0.69277 0.0
H996 H 0.23956 0.72831 0.70385 0.0
H997 H 0.19277 0.6313 0.70443 0.0
C998 C 0.05102 0.59344 0.69891 0.0
C999 C 0.97469 0.57922 0.69588 0.0
C1000 C 0.07849 0.64972 0.69882 0.0
C1001 C 0.92708 0.62328 0.69269 0.0
C1002 C 0.95403 0.67907 0.69251 0.0
C1003 C 0.0569 0.74908 0.69541 0.0
C1004 C 0.13326 0.7635 0.69835 0.0
C1005 C 0.02953 0.69292 0.69559 0.0
C1006 C 0.18096 0.71966 0.70164 0.0
C1007 C 0.15401 0.66378 0.7019 0.0
H1008 H 0.35246 0.27607 0.3833 0.0
H1009 H 0.19557 0.1381 0.38297 0.0
H1010 H 0.26771 0.08633 0.36599 0.0
H1011 H 0.39142 0.07155 0.35548 0.0
H1012 H 0.54882 0.20926 0.35567 0.0
H1013 H 0.46037 0.27044 0.36821 0.0
C1014 C 0.33168 0.23614 0.37895 0.0
C1015 C 0.26844 0.21104 0.38435 0.0
C1016 C 0.37519 0.20583 0.36946 0.0
C1017 C 0.24307 0.15875 0.37883 0.0
C1018 C 0.28542 0.12859 0.3693 0.0
C1019 C 0.40516 0.11553 0.35792 0.0
C1020 C 0.47685 0.13577 0.35485 0.0
C1021 C 0.35407 0.15023 0.36518 0.0
C1022 C 0.49405 0.19278 0.35797 0.0
C1023 C 0.44363 0.2276 0.36522 0.0
H1024 H 0.84856 0.98358 0.39666 0.0
H1025 H 0.69501 0.12324 0.39629 0.0
H1026 H 0.76833 0.1756 0.41306 0.0
H1027 H 0.89233 0.18977 0.42355 0.0
H1028 H 0.04635 0.05034 0.42404 0.0
H1029 H 0.95658 0.98927 0.41173 0.0
C1030 C 0.82872 0.02408 0.40082 0.0
C1031 C 0.76619 0.04944 0.39527 0.0
C1032 C 0.87296 0.0547 0.41017 0.0
C1033 C 0.742 0.10243 0.40055 0.0
C1034 C 0.78503 0.1329 0.40995 0.0
C1035 C 0.90507 0.14552 0.42128 0.0
C1036 C 0.97619 0.12467 0.42448 0.0
C1037 C 0.85318 0.11085 0.41418 0.0
C1038 C 0.99206 0.06728 0.42163 0.0
C1039 C 0.94087 0.03251 0.41451 0.0
H1040 H 0.50618 0.09944 0.92226 0.0
H1041 H 0.71884 0.10487 0.90262 0.0
H1042 H 0.66217 0.06092 0.88305 0.0
H1043 H 0.54973 0.03467 0.87074 0.0
H1044 H 0.33365 0.03472 0.88943 0.0
H1045 H 0.39392 0.06063 0.9102 0.0
C1046 C 0.54007 0.08952 0.91377 0.0
C1047 C 0.61641 0.10524 0.91379 0.0
C1048 C 0.50637 0.06551 0.90237 0.0
C1049 C 0.65995 0.09305 0.90274 0.0
C1050 C 0.62757 0.06807 0.89156 0.0
C1051 C 0.51585 0.03918 0.8794 0.0
C1052 C 0.43723 0.0336 0.8785 0.0
C1053 C 0.5504 0.05612 0.89113 0.0
C1054 C 0.39431 0.03874 0.88984 0.0
C1055 C 0.42871 0.05425 0.9017 0.0
H1056 H 0.04993 0.23206 0.91007 0.0
H1057 H 0.83172 0.22627 0.89202 0.0
H1058 H 0.89018 0.19969 0.87116 0.0
H1059 H 1.00241 0.16231 0.85886 0.0
H1060 H 0.21819 0.16536 0.87769 0.0
H1061 H 0.16209 0.20848 0.89738 0.0
C1062 C 0.01522 0.2263 0.90152 0.0
C1063 C 0.93656 0.23054 0.90263 0.0
C1064 C 0.04895 0.20951 0.88969 0.0
C1065 C 0.89245 0.22349 0.89144 0.0
C1066 C 0.92585 0.20759 0.87952 0.0
C1067 C 0.03704 0.17422 0.86718 0.0
C1068 C 0.11423 0.16112 0.86688 0.0
C1069 C 1.00384 0.19817 0.87863 0.0
C1070 C 0.1587 0.17537 0.87775 0.0
C1071 C 0.12662 0.19982 0.88901 0.0
H1072 H 0.3489 0.86233 0.6464 0.0
H1073 H 0.54178 0.87589 0.67134 0.0
H1074 H 0.62328 0.84009 0.65355 0.0
H1075 H 0.64106 0.81848 0.63003 0.0
H1076 H 0.44579 0.80589 0.60542 0.0
H1077 H 0.36391 0.82626 0.62388 0.0
C1078 C 0.40855 0.85602 0.64797 0.0
C1079 C 0.43952 0.87141 0.66011 0.0
C1080 C 0.45472 0.83591 0.63769 0.0
C1081 C 0.51676 0.86352 0.66209 0.0
C1082 C 0.56335 0.84352 0.65188 0.0
C1083 C 0.5805 0.81833 0.62879 0.0
C1084 C 0.54972 0.8113 0.61631 0.0
C1085 C 0.53331 0.83128 0.63951 0.0
C1086 C 0.47103 0.81174 0.61488 0.0
C1087 C 0.42406 0.8237 0.62543 0.0
H1088 H 0.00782 0.9321 0.60597 0.0
H1089 H 0.79902 0.93513 0.6269 0.0
H1090 H 0.86407 0.97296 0.64637 0.0
H1091 H 0.98161 0.99541 0.65776 0.0
H1092 H 0.19173 0.99068 0.63709 0.0
H1093 H 0.12425 0.9669 0.61692 0.0
C1094 C 0.97621 0.94343 0.61464 0.0
C1095 C 0.89857 0.93227 0.615 0.0
C1096 C 0.01418 0.96497 0.62578 0.0
C1097 C 0.85874 0.94394 0.62646 0.0
C1098 C 0.89587 0.96557 0.63755 0.0
C1099 C 0.01261 0.99028 0.6488 0.0
C1100 C 0.09166 0.99406 0.64894 0.0
C1101 C 0.9738 0.97494 0.63738 0.0
C1102 C 0.13091 0.98811 0.63725 0.0
C1103 C 0.09239 0.9738 0.62574 0.0
H1104 H 0.46402 0.92551 0.16905 0.0
H1105 H 0.67624 0.94513 0.14993 0.0
H1106 H 0.61566 0.92335 0.12909 0.0
H1107 H 0.50503 0.88519 0.11656 0.0
H1108 H 0.29464 0.86483 0.13603 0.0
H1109 H 0.35152 0.89965 0.15643 0.0
C1110 C 0.4968 0.9262 0.16031 0.0
C1111 C 0.57473 0.93644 0.16109 0.0
C1112 C 0.46187 0.91267 0.14839 0.0
C1113 C 0.61614 0.93765 0.14965 0.0
C1114 C 0.58159 0.9246 0.13771 0.0
C1115 C 0.47137 0.8906 0.12521 0.0
C1116 C 0.39561 0.87364 0.12482 0.0
C1117 C 0.50493 0.91022 0.13698 0.0
C1118 C 0.35294 0.87825 0.13614 0.0
C1119 C 0.38547 0.898 0.1478 0.0
H1120 H 0.00951 0.81426 0.17253 0.0
H1121 H 0.79208 0.81478 0.15437 0.0
H1122 H 0.84698 0.77515 0.13415 0.0
H1123 H 0.95904 0.74998 0.12119 0.0
H1124 H 0.17674 0.74854 0.13942 0.0
H1125 H 0.1194 0.77657 0.16017 0.0
C1126 C 0.97387 0.80353 0.16428 0.0
C1127 C 0.89669 0.81594 0.16496 0.0
C1128 C 0.00596 0.78064 0.15271 0.0
C1129 C 0.85152 0.80469 0.15405 0.0
C1130 C 0.88289 0.78212 0.14251 0.0
C1131 C 0.99359 0.75413 0.12978 0.0
C1132 C 0.07209 0.74735 0.12873 0.0
C1133 C 0.96032 0.77102 0.14166 0.0
C1134 C 0.11614 0.75288 0.13995 0.0
C1135 C 0.08346 0.76971 0.1518 0.0
H1136 H 0.52612 0.6483 0.86108 0.0
H1137 H 0.73629 0.65376 0.88165 0.0
H1138 H 0.67445 0.69932 0.90065 0.0
H1139 H 0.55903 0.72896 0.91194 0.0
H1140 H 0.34672 0.72081 0.89187 0.0
H1141 H 0.41099 0.68725 0.872 0.0
C1142 C 0.55829 0.66079 0.86966 0.0
C1143 C 0.63559 0.64867 0.87 0.0
C1144 C 0.52198 0.6866 0.88059 0.0
C1145 C 0.67679 0.66331 0.88121 0.0
C1146 C 0.64147 0.68935 0.89204 0.0
C1147 C 0.52691 0.72115 0.90314 0.0
C1148 C 0.44805 0.72709 0.90343 0.0
C1149 C 0.5639 0.70023 0.8919 0.0
C1150 C 0.40744 0.71708 0.89193 0.0
C1151 C 0.44411 0.69702 0.8806 0.0
H1152 H 0.1785 0.55711 0.9041 0.0
H1153 H 1.00056 0.65747 0.92202 0.0
H1154 H 0.91086 0.61813 0.90591 0.0
H1155 H 0.88719 0.56487 0.88519 0.0
H1156 H 0.06804 0.4729 0.86588 0.0
H1157 H 0.15173 0.49711 0.88414 0.0
C1158 C 0.11972 0.56929 0.90456 0.0
C1159 C 0.09564 0.60984 0.91417 0.0
C1160 C 0.06895 0.54755 0.89503 0.0
C1161 C 0.01985 0.6262 0.91466 0.0
C1162 C 0.9687 0.60374 0.90546 0.0
C1163 C 0.94405 0.54832 0.88524 0.0
C1164 C 0.97113 0.5162 0.87436 0.0
C1165 C 0.99296 0.56544 0.89542 0.0
C1166 C 0.04574 0.49675 0.87428 0.0
C1167 C 0.0938 0.51127 0.88465 0.0
H1168 H 0.24536 0.6148 0.40033 0.0
H1169 H 0.35105 0.45195 0.39668 0.0
H1170 H 0.44797 0.48505 0.41215 0.0
H1171 H 0.51991 0.56784 0.42204 0.0
H1172 H 0.417 0.73226 0.42344 0.0
H1173 H 0.30278 0.69175 0.41369 0.0
C1174 C 0.28698 0.58561 0.40354 0.0
C1175 C 0.29099 0.53112 0.39733 0.0
C1176 C 0.34557 0.60636 0.41165 0.0
C1177 C 0.34602 0.49396 0.40141 0.0
C1178 C 0.40287 0.51347 0.41001 0.0
C1179 C 0.47162 0.59431 0.4205 0.0
C1180 C 0.4773 0.65315 0.42323 0.0
C1181 C 0.40619 0.57076 0.41445 0.0
C1182 C 0.41433 0.68702 0.42122 0.0
C1183 C 0.34885 0.66386 0.41567 0.0
H1184 H 0.74459 0.6391 0.38046 0.0
H1185 H 0.84755 0.80307 0.38319 0.0
H1186 H 0.9442 0.76959 0.36776 0.0
H1187 H 0.0168 0.68691 0.3581 0.0
H1188 H 0.91717 0.52149 0.35771 0.0
H1189 H 0.80282 0.56158 0.36744 0.0
C1190 C 0.78549 0.66836 0.37705 0.0
C1191 C 0.78889 0.72336 0.38299 0.0
C1192 C 0.84402 0.64749 0.36897 0.0
C1193 C 0.84299 0.76066 0.37866 0.0
C1194 C 0.89969 0.74098 0.37008 0.0
C1195 C 0.96918 0.66008 0.35986 0.0
C1196 C 0.97586 0.60117 0.35742 0.0
C1197 C 0.90376 0.68342 0.3659 0.0
C1198 C 0.91378 0.56681 0.35973 0.0
C1199 C 0.8482 0.58973 0.36526 0.0
H1200 H 0.49337 0.33115 0.17491 0.0
H1201 H 0.28802 0.34103 0.15331 0.0
H1202 H 0.35347 0.30495 0.13374 0.0
H1203 H 0.47047 0.27771 0.12265 0.0
H1204 H 0.67703 0.26846 0.1441 0.0
H1205 H 0.60858 0.2933 0.1641 0.0
C1206 C 0.4623 0.32292 0.16605 0.0
C1207 C 0.38549 0.33702 0.16559 0.0
C1208 C 0.50043 0.30203 0.15487 0.0
C1209 C 0.34697 0.3299 0.15386 0.0
C1210 C 0.38433 0.30919 0.14271 0.0
C1211 C 0.50052 0.28015 0.13172 0.0
C1212 C 0.57906 0.27175 0.13184 0.0
C1213 C 0.46127 0.296 0.14308 0.0
C1214 C 0.61671 0.27447 0.14371 0.0
C1215 C 0.57768 0.28938 0.15513 0.0
H1216 H 0.13055 0.44658 0.15278 0.0
H1217 H 0.9344 0.45387 0.17711 0.0
H1218 H 0.85356 0.43337 0.15855 0.0
H1219 H 0.84016 0.39752 0.13601 0.0
H1220 H 0.03409 0.38795 0.11133 0.0
H1221 H 0.11393 0.42513 0.12922 0.0
C1222 C 0.06995 0.4457 0.15393 0.0
C1223 C 0.03868 0.45155 0.16636 0.0
C1224 C 0.0234 0.4321 0.14314 0.0
C1225 C 0.96001 0.44952 0.16769 0.0
C1226 C 0.91363 0.43723 0.15707 0.0
C1227 C 0.89964 0.40491 0.13452 0.0
C1228 C 0.93135 0.39017 0.12243 0.0
C1229 C 0.94494 0.42589 0.14485 0.0
C1230 C 0.00838 0.39969 0.12054 0.0
C1231 C 0.05409 0.42053 0.1308 0.0
H1232 H 0.50346 0.46055 0.60811 0.0
H1233 H 0.29498 0.42964 0.62736 0.0
H1234 H 0.34809 0.46896 0.6477 0.0
H1235 H 0.45786 0.50098 0.66033 0.0
H1236 H 0.66818 0.53001 0.64135 0.0
H1237 H 0.60905 0.50596 0.62048 0.0
C1238 C 0.46864 0.46482 0.61661 0.0
C1239 C 0.39483 0.44323 0.61618 0.0
C1240 C 0.49998 0.48712 0.62834 0.0
C1241 C 0.35177 0.44628 0.62747 0.0
C1242 C 0.38211 0.46874 0.63909 0.0
C1243 C 0.4905 0.50339 0.65162 0.0
C1244 C 0.56769 0.51667 0.65247 0.0
C1245 C 0.4568 0.48777 0.6397 0.0
C1246 C 0.6087 0.52008 0.64104 0.0
C1247 C 0.57509 0.50559 0.62908 0.0
H1248 H 0.96217 0.32743 0.61168 0.0
H1249 H 0.17415 0.31196 0.63122 0.0
H1250 H 0.11303 0.3366 0.65185 0.0
H1251 H 1.00214 0.37573 0.66396 0.0
H1252 H 0.79196 0.39261 0.64416 0.0
H1253 H 0.84932 0.35505 0.624 0.0
C1254 C 0.99474 0.32818 0.62048 0.0
C1255 C 0.07277 0.31834 0.61987 0.0
C1256 C 0.95954 0.34352 0.63227 0.0
C1257 C 0.11397 0.31906 0.63139 0.0
C1258 C 0.07914 0.3338 0.64319 0.0
C1259 C 0.96866 0.36914 0.6553 0.0
C1260 C 0.89286 0.38566 0.65551 0.0
C1261 C 1.00244 0.34795 0.64371 0.0
C1262 C 0.85033 0.37947 0.64417 0.0
C1263 C 0.8831 0.35811 0.63267 0.0
H1264 H 0.2619 0.43379 0.51898 0.0
H1265 H 0.26017 0.28036 0.53861 0.0
H1266 H 0.28115 0.22546 0.51834 0.0
H1267 H 0.30334 0.21981 0.49551 0.0
H1268 H 0.29071 0.36879 0.47448 0.0
H1269 H 0.27397 0.42661 0.49492 0.0
C1270 C 0.26458 0.38823 0.51881 0.0
C1271 C 0.25946 0.36165 0.53052 0.0
C1272 C 0.27567 0.35612 0.50691 0.0
C1273 C 0.26327 0.30245 0.52994 0.0
C1274 C 0.276 0.27083 0.5183 0.0
C1275 C 0.29745 0.26501 0.49517 0.0
C1276 C 0.29975 0.28955 0.48321 0.0
C1277 C 0.28335 0.29719 0.50679 0.0
C1278 C 0.29061 0.34838 0.48339 0.0
C1279 C 0.28014 0.38138 0.49512 0.0
H1280 H 0.99245 0.12077 0.54766 0.0
H1281 H 0.14637 0.98235 0.53964 0.0
H1282 H 0.21276 0.03645 0.52412 0.0
H1283 H 0.20628 0.11214 0.5097 0.0
H1284 H 0.04217 0.24517 0.51629 0.0
H1285 H 1.00292 0.20547 0.53607 0.0
C1286 C 0.04102 0.10264 0.54258 0.0
C1287 C 0.06278 0.04693 0.54424 0.0
C1288 C 0.07696 0.13312 0.53352 0.0
C1289 C 0.12778 0.02475 0.53819 0.0
C1290 C 0.16553 0.05563 0.52936 0.0
C1291 C 0.16296 0.13328 0.51558 0.0
C1292 C 0.12425 0.17975 0.51122 0.0
C1293 C 0.13755 0.10831 0.52642 0.0
C1294 C 0.07091 0.20815 0.51923 0.0
C1295 C 0.0481 0.18526 0.53047 0.0
H1296 H 0.26884 0.90471 0.75155 0.0
H1297 H 0.20838 0.05118 0.73182 0.0
H1298 H 0.22904 0.11109 0.75168 0.0
H1299 H 0.2673 0.12217 0.77437 0.0
H1300 H 0.32799 0.9757 0.79408 0.0
H1301 H 0.30704 0.91578 0.77423 0.0
C1302 C 0.25869 0.94965 0.75154 0.0
C1303 C 0.23577 0.97298 0.74005 0.0
C1304 C 0.27312 0.98407 0.76291 0.0
C1305 C 0.22475 0.03161 0.74042 0.0
C1306 C 0.23756 0.06601 0.75177 0.0
C1307 C 0.27742 0.07723 0.77437 0.0
C1308 C 0.30052 0.05389 0.78586 0.0
C1309 C 0.26292 0.0428 0.76301 0.0
C1310 C 0.31148 0.99526 0.78549 0.0
C1311 C 0.29852 0.96086 0.77414 0.0
H1312 H 0.1401 0.26138 0.77713 0.0
H1313 H 0.9419 0.15689 0.77916 0.0
H1314 H 0.90319 0.18254 0.75795 0.0
H1315 H 0.92366 0.23626 0.73947 0.0
H1316 H 0.11859 0.34414 0.73771 0.0
H1317 H 0.16237 0.31335 0.75826 0.0
C1318 C 0.08822 0.24414 0.773 0.0
C1319 C 0.04351 0.20755 0.77978 0.0
C1320 C 0.06653 0.25894 0.76087 0.0
C1321 C 0.97692 0.18546 0.7742 0.0
C1322 C 0.95504 0.19985 0.76206 0.0
C1323 C 0.97604 0.25309 0.7435 0.0
C1324 C 0.01746 0.29306 0.73714 0.0
C1325 C 0.99928 0.23673 0.75539 0.0
C1326 C 0.08568 0.31347 0.74243 0.0
C1327 C 0.1103 0.29624 0.7542 0.0
H1328 H 0.78727 0.72378 0.49481 0.0
H1329 H 0.81855 0.87284 0.47431 0.0
H1330 H 0.80336 0.93152 0.49472 0.0
H1331 H 0.78223 0.93914 0.51863 0.0
H1332 H 0.73837 0.78681 0.53744 0.0
H1333 H 0.75524 0.73104 0.51721 0.0
C1334 C 0.79128 0.76913 0.49457 0.0
C1335 C 0.80585 0.79336 0.48283 0.0
C1336 C 0.77857 0.80217 0.50609 0.0
C1337 C 0.80891 0.85255 0.48309 0.0
C1338 C 0.79948 0.8861 0.49478 0.0
C1339 C 0.77487 0.89382 0.51827 0.0
C1340 C 0.75931 0.86756 0.52977 0.0
C1341 C 0.78397 0.86128 0.50638 0.0
C1342 C 0.7501 0.80868 0.52895 0.0
C1343 C 0.76029 0.77648 0.51733 0.0
H1344 H 0.8767 0.85279 0.25753 0.0
H1345 H 0.65338 0.90805 0.24847 0.0
H1346 H 0.6374 0.94745 0.2707 0.0
H1347 H 0.68997 0.97252 0.29228 0.0
H1348 H 0.91969 0.93201 0.30051 0.0
H1349 H 0.93028 0.87952 0.27929 0.0
C1350 C 0.82454 0.87363 0.26044 0.0
C1351 C 0.76602 0.87731 0.25131 0.0
C1352 C 0.81713 0.89858 0.27315 0.0
C1353 C 0.69924 0.90491 0.25521 0.0
C1354 C 0.69019 0.92741 0.26795 0.0
C1355 C 0.74191 0.95127 0.2895 0.0
C1356 C 0.80332 0.95505 0.29814 0.0
C1357 C 0.74896 0.9251 0.27695 0.0
C1358 C 0.87091 0.92837 0.29428 0.0
C1359 C 0.87715 0.89921 0.28204 0.0
H1360 H 0.19428 0.65214 0.27324 0.0
H1361 H 0.02759 0.51998 0.26802 0.0
H1362 H 0.99548 0.55158 0.24701 0.0
H1363 H 0.99506 0.62867 0.23295 0.0
H1364 H 0.14995 0.76763 0.23971 0.0
H1365 H 0.20816 0.72055 0.25722 0.0
C1366 C 0.15181 0.62945 0.26744 0.0
C1367 C 0.11118 0.58514 0.27236 0.0
C1368 C 0.13112 0.64957 0.25575 0.0
C1369 C 0.05804 0.55523 0.26457 0.0
C1370 C 0.03966 0.57331 0.25259 0.0
C1371 C 0.04234 0.64827 0.23815 0.0
C1372 C 0.06658 0.70236 0.23548 0.0
C1373 C 0.07252 0.62248 0.24852 0.0
C1374 C 0.12965 0.72642 0.24183 0.0
C1375 C 0.16246 0.6997 0.25186 0.0
H1376 H 0.28316 0.85693 0.02907 0.0
H1377 H 0.20345 0.71439 0.04839 0.0
H1378 H 0.21566 0.65422 0.02846 0.0
H1379 H 0.25082 0.64129 1.00571 0.0
H1380 H 0.32924 0.78344 0.98611 0.0
H1381 H 0.31763 0.84398 1.0061 0.0
C1382 C 0.26713 0.8129 0.02893 0.0
C1383 C 0.24135 0.7907 0.04035 0.0
C1384 C 0.27592 0.77805 0.01742 0.0
C1385 C 0.22248 0.73314 0.03985 0.0
C1386 C 0.23021 0.69847 0.02844 0.0
C1387 C 0.2667 0.68533 1.00576 0.0
C1388 C 0.29209 0.70727 0.9943 0.0
C1389 C 0.25778 0.72027 0.01721 0.0
C1390 C 0.31061 0.76489 0.99471 0.0
C1391 C 0.30319 0.79973 1.00615 0.0
H1392 H 0.11721 0.47682 0.99656 0.0
H1393 H 0.92282 0.58587 0.99605 0.0
H1394 H 0.88331 0.55506 0.01681 0.0
H1395 H 0.90759 0.50132 0.03518 0.0
H1396 H 0.10331 0.39365 0.03592 0.0
H1397 H 0.14037 0.42179 1.01479 0.0
C1398 C 0.06592 0.49395 1.00091 0.0
C1399 C 0.0232 0.53406 0.99482 0.0
C1400 C 0.04483 0.47721 1.01288 0.0
C1401 C 0.95657 0.55503 1.00055 0.0
C1402 C 0.93438 0.53775 1.01243 0.0
C1403 C 0.95862 0.48386 0.03081 0.0
C1404 C 1.00293 0.44547 0.03715 0.0
C1405 C 0.97888 0.49966 0.01873 0.0
C1406 C 0.0686 0.42346 0.03127 0.0
C1407 C 0.08944 0.43926 0.01919 0.0
H1408 H 0.28668 0.53517 0.28599 0.0
H1409 H 0.32125 0.38704 0.30667 0.0
H1410 H 0.30557 0.32765 0.28637 0.0
H1411 H 0.28236 0.31924 0.26247 0.0
H1412 H 0.23418 0.47088 0.24365 0.0
H1413 H 0.25297 0.52714 0.26372 0.0
C1414 C 0.29142 0.48989 0.28629 0.0
C1415 C 0.30696 0.46611 0.29803 0.0
C1416 C 0.2782 0.45645 0.27486 0.0
C1417 C 0.31087 0.40697 0.29786 0.0
C1418 C 0.30111 0.37302 0.28624 0.0
C1419 C 0.27444 0.3645 0.26281 0.0
C1420 C 0.2572 0.39043 0.25134 0.0
C1421 C 0.2843 0.39738 0.27464 0.0
C1422 C 0.24728 0.44924 0.25212 0.0
C1423 C 0.25848 0.48176 0.26365 0.0
H1424 H 0.75607 0.14063 1.00691 0.0
H1425 H 0.83153 0.28407 0.98745 0.0
H1426 H 0.81562 0.34454 1.00734 0.0
H1427 H 0.77807 0.35719 0.03004 0.0
H1428 H 0.70305 0.21384 0.04957 0.0
H1429 H 0.71867 0.1533 0.02967 0.0
C1430 C 0.77047 0.18495 1.00699 0.0
C1431 C 0.79623 0.20728 0.99556 0.0
C1432 C 0.75916 0.21986 0.0184 0.0
C1433 C 0.81274 0.26522 0.996 0.0
C1434 C 0.80279 0.30001 1.00738 0.0
C1435 C 0.76369 0.31288 0.02999 0.0
C1436 C 0.73811 0.2906 0.04143 0.0
C1437 C 0.77502 0.27795 0.01858 0.0
C1438 C 0.72166 0.23265 0.04101 0.0
C1439 C 0.73148 0.19783 0.02962 0.0
H1440 H 0.74898 0.6202 0.77506 0.0
H1441 H 0.83489 0.4802 0.7945 0.0
H1442 H 0.82609 0.41953 0.77455 0.0
H1443 H 0.79206 0.40571 0.75158 0.0
H1444 H 0.70564 0.5459 0.73229 0.0
H1445 H 0.7147 0.6064 0.75221 0.0
C1446 C 0.76703 0.57664 0.77496 0.0
C1447 C 0.79371 0.55528 0.7864 0.0
C1448 C 0.75995 0.54155 0.76348 0.0
C1449 C 0.81512 0.49825 0.78594 0.0
C1450 C 0.80938 0.46332 0.77451 0.0
C1451 C 0.77397 0.44927 0.75173 0.0
C1452 C 0.74707 0.47079 0.74031 0.0
C1453 C 0.78102 0.48431 0.76324 0.0
C1454 C 0.72557 0.52777 0.74082 0.0
C1455 C 0.73146 0.56261 0.75224 0.0
H1456 H 0.63081 0.99561 1.00198 0.0
H1457 H 0.42903 0.09567 0.99945 0.0
H1458 H 0.38975 0.06885 0.02053 0.0
H1459 H 0.41252 0.01728 0.03928 0.0
H1460 H 0.61242 0.91514 0.04169 0.0
H1461 H 0.65428 0.94466 0.02093 0.0
C1462 C 0.57793 0.01153 1.00596 0.0
C1463 C 0.53263 0.0475 0.99911 0.0
C1464 C 0.55623 0.99644 0.01805 0.0
C1465 C 0.46464 0.06774 1.00448 0.0
C1466 C 0.44246 0.05271 0.01655 0.0
C1467 C 0.46557 1.00142 0.03536 0.0
C1468 C 0.50918 0.96366 0.042 0.0
C1469 C 0.48799 0.01726 0.02338 0.0
C1470 C 0.57793 0.94422 0.03678 0.0
C1471 C 0.60149 0.96073 0.02489 0.0
H1472 H 0.70026 0.14171 0.26939 0.0
H1473 H 0.52883 0.01319 0.2637 0.0
H1474 H 0.49053 0.05213 0.24381 0.0
H1475 H 0.48335 0.1359 0.23193 0.0
H1476 H 0.64312 0.27122 0.23925 0.0
H1477 H 0.709 0.21625 0.25468 0.0
C1478 C 0.65556 0.12132 0.26367 0.0
C1479 C 0.61482 0.07638 0.2683 0.0
C1480 C 0.63055 0.14615 0.25279 0.0
C1481 C 0.55936 0.049 0.26054 0.0
C1482 C 0.53712 0.07146 0.24922 0.0
C1483 C 0.53309 0.15315 0.23684 0.0
C1484 C 0.55671 0.20829 0.23504 0.0
C1485 C 0.56836 0.12243 0.24591 0.0
C1486 C 0.62317 0.22928 0.24082 0.0
C1487 C 0.66055 0.19793 0.24962 0.0
H1488 H 0.61379 0.79132 0.78677 0.0
H1489 H 0.42132 0.68051 0.78771 0.0
H1490 H 0.37732 0.71307 0.76734 0.0
H1491 H 0.39899 0.76732 0.74886 0.0
H1492 H 0.59478 0.87482 0.74759 0.0
H1493 H 0.63342 0.84754 0.76868 0.0
C1494 C 0.56194 0.77419 0.78259 0.0
C1495 C 0.52128 0.73289 0.78865 0.0
C1496 C 0.53858 0.79166 0.77082 0.0
C1497 C 0.45364 0.71216 0.78321 0.0
C1498 C 0.4289 0.73043 0.77155 0.0
C1499 C 0.45029 0.78493 0.75313 0.0
C1500 C 0.49443 0.82278 0.7466 0.0
C1501 C 0.47198 0.76913 0.76517 0.0
C1502 C 0.56026 0.84531 0.75237 0.0
C1503 C 0.5821 0.82995 0.76442 0.0
H1504 H 0.47642 0.61829 0.54454 0.0
H1505 H 0.64224 0.48618 0.53902 0.0
H1506 H 0.70595 0.53888 0.52296 0.0
H1507 H 0.69647 0.61073 0.50763 0.0
H1508 H 0.52124 0.73673 0.51177 0.0
H1509 H 0.48088 0.69931 0.53174 0.0
C1510 C 0.52676 0.60109 0.53986 0.0
C1511 C 0.55297 0.54744 0.54242 0.0
C1512 C 0.5612 0.63058 0.53048 0.0
C1513 C 0.62024 0.52684 0.53688 0.0
C1514 C 0.65648 0.55693 0.52774 0.0
C1515 C 0.65033 0.63086 0.51301 0.0
C1516 C 0.60945 0.6747 0.50796 0.0
C1517 C 0.62478 0.60716 0.52399 0.0
C1518 C 0.55192 0.70172 0.51528 0.0
C1519 C 0.52861 0.68018 0.52664 0.0
loop_
_geom_bond_atom_site_label_1
_geom_bond_atom_site_label_2
_geom_bond_distance
_geom_bond_site_symmetry_2
_ccdc_geom_bond_type
C0 O12 1.241 . S
C0 O13 1.280 . S
C1 O14 1.277 . S
C1 O15 1.245 1_565 S
C2 O26 1.247 . S
C2 O28 1.289 . S
Mg3 O4 1.926 . S
Mg3 O13 1.984 . S
Mg3 O15 1.988 . S
Mg3 O16 2.061 . S
O4 Mg3 1.926 . S
O4 Mg5 1.986 . S
O4 Mg6 1.917 . S
Mg5 O4 1.986 . S
Mg5 O12 2.042 . S
Mg5 O14 2.041 1_545 S
Mg5 O20 2.038 . S
Mg5 O28 2.238 . S
Mg6 O4 1.917 . S
Mg6 O7 1.917 . S
Mg6 O17 2.106 . S
Mg6 O19 2.079 . S
Mg6 O28 2.106 . S
Mg6 O29 2.079 . S
O7 Mg6 1.917 . S
O7 Mg8 1.926 . S
O7 Mg9 1.986 . S
Mg8 O7 1.926 . S
Mg8 O22 1.984 . S
Mg8 O25 1.988 . S
Mg8 O26 2.061 . S
Mg9 O7 1.986 . S
Mg9 O17 2.238 . S
Mg9 O21 2.042 . S
Mg9 O23 2.041 . S
Mg9 O30 2.038 . S
C10 O16 1.247 . S
C10 O17 1.289 . S
C11 O29 1.245 . S
C11 O30 1.274 . S
O12 C0 1.241 . S
O12 Mg5 2.042 . S
O13 C0 1.280 . S
O13 Mg3 1.984 . S
O14 C1 1.277 . S
O14 Mg5 2.041 1_565 S
O15 C1 1.245 1_545 S
O15 Mg3 1.988 . S
O16 Mg3 2.061 . S
O16 C10 1.247 . S
O17 Mg6 2.106 . S
O17 Mg9 2.238 . S
O17 C10 1.289 . S
C18 O19 1.245 . S
C18 O20 1.274 . S
O19 Mg6 2.079 . S
O19 C18 1.245 . S
O20 Mg5 2.038 . S
O20 C18 1.274 . S
O21 Mg9 2.042 . S
O21 C24 1.241 . S
O22 Mg8 1.984 . S
O22 C24 1.280 . S
O23 Mg9 2.041 . S
O23 C27 1.277 . S
C24 O21 1.241 . S
C24 O22 1.280 . S
O25 Mg8 1.988 . S
O25 C27 1.245 . S
O26 C2 1.247 . S
O26 Mg8 2.061 . S
C27 O23 1.277 . S
C27 O25 1.245 . S
O28 C2 1.289 . S
O28 Mg5 2.238 . S
O28 Mg6 2.106 . S
O29 Mg6 2.079 . S
O29 C11 1.245 . S
O30 Mg9 2.038 . S
O30 C11 1.274 . S
C31 O43 1.241 . S
C31 O44 1.280 . S
C32 O45 1.277 . S
C32 O46 1.245 . S
C33 O57 1.247 . S
C33 O59 1.289 . S
Mg34 O35 1.926 . S
Mg34 O44 1.984 . S
Mg34 O46 1.988 . S
Mg34 O47 2.061 . S
O35 Mg34 1.926 . S
O35 Mg36 1.986 . S
O35 Mg37 1.917 . S
Mg36 O35 1.986 . S
Mg36 O43 2.042 . S
Mg36 O45 2.041 . S
Mg36 O51 2.038 . S
Mg36 O59 2.238 . S
Mg37 O35 1.917 . S
Mg37 O38 1.917 . S
Mg37 O48 2.106 . S
Mg37 O50 2.079 . S
Mg37 O59 2.106 . S
Mg37 O60 2.079 . S
O38 Mg37 1.917 . S
O38 Mg39 1.926 . S
O38 Mg40 1.986 . S
Mg39 O38 1.926 . S
Mg39 O53 1.984 . S
Mg39 O56 1.988 . S
Mg39 O57 2.061 . S
Mg40 O38 1.986 . S
Mg40 O48 2.238 . S
Mg40 O52 2.042 . S
Mg40 O54 2.041 1_545 S
Mg40 O61 2.038 . S
C41 O47 1.247 . S
C41 O48 1.289 . S
C42 O60 1.245 . S
C42 O61 1.274 . S
O43 C31 1.241 . S
O43 Mg36 2.042 . S
O44 C31 1.280 . S
O44 Mg34 1.984 . S
O45 C32 1.277 . S
O45 Mg36 2.041 . S
O46 C32 1.245 . S
O46 Mg34 1.988 . S
O47 Mg34 2.061 . S
O47 C41 1.247 . S
O48 Mg37 2.106 . S
O48 Mg40 2.238 . S
O48 C41 1.289 . S
C49 O50 1.245 . S
C49 O51 1.274 . S
O50 Mg37 2.079 . S
O50 C49 1.245 . S
O51 Mg36 2.038 . S
O51 C49 1.274 . S
O52 Mg40 2.042 . S
O52 C55 1.241 . S
O53 Mg39 1.984 . S
O53 C55 1.280 . S
O54 Mg40 2.041 1_565 S
O54 C58 1.277 . S
C55 O52 1.241 . S
C55 O53 1.280 . S
O56 Mg39 1.988 . S
O56 C58 1.245 1_545 S
O57 C33 1.247 . S
O57 Mg39 2.061 . S
C58 O54 1.277 . S
C58 O56 1.245 1_565 S
O59 C33 1.289 . S
O59 Mg36 2.238 . S
O59 Mg37 2.106 . S
O60 Mg37 2.079 . S
O60 C42 1.245 . S
O61 Mg40 2.038 . S
O61 C42 1.274 . S
C62 O74 1.241 . S
C62 O75 1.280 . S
C63 O76 1.277 . S
C63 O77 1.245 . S
C64 O88 1.247 . S
C64 O90 1.289 . S
Mg65 O66 1.926 . S
Mg65 O75 1.984 . S
Mg65 O77 1.988 . S
Mg65 O78 2.061 . S
O66 Mg65 1.926 . S
O66 Mg67 1.986 . S
O66 Mg68 1.917 . S
Mg67 O66 1.986 . S
Mg67 O74 2.042 . S
Mg67 O76 2.041 . S
Mg67 O82 2.038 . S
Mg67 O90 2.238 . S
Mg68 O66 1.917 . S
Mg68 O69 1.917 . S
Mg68 O79 2.106 . S
Mg68 O81 2.079 . S
Mg68 O90 2.106 . S
Mg68 O91 2.079 . S
O69 Mg68 1.917 . S
O69 Mg70 1.926 . S
O69 Mg71 1.986 . S
Mg70 O69 1.926 . S
Mg70 O84 1.984 . S
Mg70 O87 1.988 . S
Mg70 O88 2.061 . S
Mg71 O69 1.986 . S
Mg71 O79 2.238 . S
Mg71 O83 2.042 . S
Mg71 O85 2.041 1_565 S
Mg71 O92 2.038 . S
C72 O78 1.247 . S
C72 O79 1.289 . S
C73 O91 1.245 . S
C73 O92 1.274 . S
O74 C62 1.241 . S
O74 Mg67 2.042 . S
O75 C62 1.280 . S
O75 Mg65 1.984 . S
O76 C63 1.277 . S
O76 Mg67 2.041 . S
O77 C63 1.245 . S
O77 Mg65 1.988 . S
O78 Mg65 2.061 . S
O78 C72 1.247 . S
O79 Mg68 2.106 . S
O79 Mg71 2.238 . S
O79 C72 1.289 . S
C80 O81 1.245 . S
C80 O82 1.274 . S
O81 Mg68 2.079 . S
O81 C80 1.245 . S
O82 Mg67 2.038 . S
O82 C80 1.274 . S
O83 Mg71 2.042 . S
O83 C86 1.241 . S
O84 Mg70 1.984 . S
O84 C86 1.280 . S
O85 Mg71 2.041 1_545 S
O85 C89 1.277 . S
C86 O83 1.241 . S
C86 O84 1.280 . S
O87 Mg70 1.988 . S
O87 C89 1.245 1_565 S
O88 C64 1.247 . S
O88 Mg70 2.061 . S
C89 O85 1.277 . S
C89 O87 1.245 1_545 S
O90 C64 1.289 . S
O90 Mg67 2.238 . S
O90 Mg68 2.106 . S
O91 Mg68 2.079 . S
O91 C73 1.245 . S
O92 Mg71 2.038 . S
O92 C73 1.274 . S
C93 O105 1.241 . S
C93 O106 1.280 . S
C94 O107 1.277 . S
C94 O108 1.245 1_545 S
C95 O119 1.247 . S
C95 O121 1.289 . S
Mg96 O97 1.926 . S
Mg96 O106 1.984 . S
Mg96 O108 1.988 . S
Mg96 O109 2.061 . S
O97 Mg96 1.926 . S
O97 Mg98 1.986 . S
O97 Mg99 1.917 . S
Mg98 O97 1.986 . S
Mg98 O105 2.042 . S
Mg98 O107 2.041 1_565 S
Mg98 O113 2.038 . S
Mg98 O121 2.238 . S
Mg99 O97 1.917 . S
Mg99 O100 1.917 . S
Mg99 O110 2.106 . S
Mg99 O112 2.079 . S
Mg99 O121 2.106 . S
Mg99 O122 2.079 . S
O100 Mg99 1.917 . S
O100 Mg101 1.926 . S
O100 Mg102 1.986 . S
Mg101 O100 1.926 . S
Mg101 O115 1.984 . S
Mg101 O118 1.988 . S
Mg101 O119 2.061 . S
Mg102 O100 1.986 . S
Mg102 O110 2.238 . S
Mg102 O114 2.042 . S
Mg102 O116 2.041 . S
Mg102 O123 2.038 . S
C103 O109 1.247 . S
C103 O110 1.289 . S
C104 O122 1.245 . S
C104 O123 1.274 . S
O105 C93 1.241 . S
O105 Mg98 2.042 . S
O106 C93 1.280 . S
O106 Mg96 1.984 . S
O107 C94 1.277 . S
O107 Mg98 2.041 1_545 S
O108 C94 1.245 1_565 S
O108 Mg96 1.988 . S
O109 Mg96 2.061 . S
O109 C103 1.247 . S
O110 Mg99 2.106 . S
O110 Mg102 2.238 . S
O110 C103 1.289 . S
C111 O112 1.245 . S
C111 O113 1.274 . S
O112 Mg99 2.079 . S
O112 C111 1.245 . S
O113 Mg98 2.038 . S
O113 C111 1.274 . S
O114 Mg102 2.042 . S
O114 C117 1.241 . S
O115 Mg101 1.984 . S
O115 C117 1.280 . S
O116 Mg102 2.041 . S
O116 C120 1.277 . S
C117 O114 1.241 . S
C117 O115 1.280 . S
O118 Mg101 1.988 . S
O118 C120 1.245 . S
O119 C95 1.247 . S
O119 Mg101 2.061 . S
C120 O116 1.277 . S
C120 O118 1.245 . S
O121 C95 1.289 . S
O121 Mg98 2.238 . S
O121 Mg99 2.106 . S
O122 Mg99 2.079 . S
O122 C104 1.245 . S
O123 Mg102 2.038 . S
O123 C104 1.274 . S
C124 O136 1.241 . S
C124 O137 1.280 . S
C125 O138 1.277 . S
C125 O139 1.245 . S
C126 O150 1.247 . S
C126 O152 1.289 . S
Mg127 O128 1.926 . S
Mg127 O137 1.984 . S
Mg127 O139 1.988 . S
Mg127 O140 2.061 . S
O128 Mg127 1.926 . S
O128 Mg129 1.986 . S
O128 Mg130 1.917 . S
Mg129 O128 1.986 . S
Mg129 O136 2.042 . S
Mg129 O138 2.041 . S
Mg129 O144 2.038 . S
Mg129 O152 2.238 . S
Mg130 O128 1.917 . S
Mg130 O131 1.917 . S
Mg130 O141 2.106 . S
Mg130 O143 2.079 . S
Mg130 O152 2.106 . S
Mg130 O153 2.079 . S
O131 Mg130 1.917 . S
O131 Mg132 1.926 . S
O131 Mg133 1.986 . S
Mg132 O131 1.926 . S
Mg132 O146 1.984 . S
Mg132 O149 1.988 . S
Mg132 O150 2.061 . S
Mg133 O131 1.986 . S
Mg133 O141 2.238 . S
Mg133 O145 2.042 . S
Mg133 O147 2.041 . S
Mg133 O154 2.038 . S
C134 O140 1.247 . S
C134 O141 1.289 . S
C135 O153 1.245 . S
C135 O154 1.274 . S
O136 C124 1.241 . S
O136 Mg129 2.042 . S
O137 C124 1.280 . S
O137 Mg127 1.984 . S
O138 C125 1.277 . S
O138 Mg129 2.041 . S
O139 C125 1.245 . S
O139 Mg127 1.988 . S
O140 Mg127 2.061 . S
O140 C134 1.247 . S
O141 Mg130 2.106 . S
O141 Mg133 2.238 . S
O141 C134 1.289 . S
C142 O143 1.245 . S
C142 O144 1.274 . S
O143 Mg130 2.079 . S
O143 C142 1.245 . S
O144 Mg129 2.038 . S
O144 C142 1.274 . S
O145 Mg133 2.042 . S
O145 C148 1.241 . S
O146 Mg132 1.984 . S
O146 C148 1.280 . S
O147 Mg133 2.041 . S
O147 C151 1.277 . S
C148 O145 1.241 . S
C148 O146 1.280 . S
O149 Mg132 1.988 . S
O149 C151 1.245 . S
O150 C126 1.247 . S
O150 Mg132 2.061 . S
C151 O147 1.277 . S
C151 O149 1.245 . S
O152 C126 1.289 . S
O152 Mg129 2.238 . S
O152 Mg130 2.106 . S
O153 Mg130 2.079 . S
O153 C135 1.245 . S
O154 Mg133 2.038 . S
O154 C135 1.274 . S
C155 O167 1.241 . S
C155 O168 1.280 . S
C156 O169 1.277 . S
C156 O170 1.245 . S
C157 O181 1.247 . S
C157 O183 1.289 . S
Mg158 O159 1.926 . S
Mg158 O168 1.984 . S
Mg158 O170 1.988 . S
Mg158 O171 2.061 . S
O159 Mg158 1.926 . S
O159 Mg160 1.986 . S
O159 Mg161 1.917 . S
Mg160 O159 1.986 . S
Mg160 O167 2.042 . S
Mg160 O169 2.041 . S
Mg160 O175 2.038 . S
Mg160 O183 2.238 . S
Mg161 O159 1.917 . S
Mg161 O162 1.917 . S
Mg161 O172 2.106 . S
Mg161 O174 2.079 . S
Mg161 O183 2.106 . S
Mg161 O184 2.079 . S
O162 Mg161 1.917 . S
O162 Mg163 1.926 . S
O162 Mg164 1.986 . S
Mg163 O162 1.926 . S
Mg163 O177 1.984 . S
Mg163 O180 1.988 . S
Mg163 O181 2.061 . S
Mg164 O162 1.986 . S
Mg164 O172 2.238 . S
Mg164 O176 2.042 . S
Mg164 O178 2.041 . S
Mg164 O185 2.038 . S
C165 O171 1.247 . S
C165 O172 1.289 . S
C166 O184 1.245 . S
C166 O185 1.274 . S
O167 C155 1.241 . S
O167 Mg160 2.042 . S
O168 C155 1.280 . S
O168 Mg158 1.984 . S
O169 C156 1.277 . S
O169 Mg160 2.041 . S
O170 C156 1.245 . S
O170 Mg158 1.988 . S
O171 Mg158 2.061 . S
O171 C165 1.247 . S
O172 Mg161 2.106 . S
O172 Mg164 2.238 . S
O172 C165 1.289 . S
C173 O174 1.245 . S
C173 O175 1.274 . S
O174 Mg161 2.079 . S
O174 C173 1.245 . S
O175 Mg160 2.038 . S
O175 C173 1.274 . S
O176 Mg164 2.042 . S
O176 C179 1.241 . S
O177 Mg163 1.984 . S
O177 C179 1.280 . S
O178 Mg164 2.041 . S
O178 C182 1.277 . S
C179 O176 1.241 . S
C179 O177 1.280 . S
O180 Mg163 1.988 . S
O180 C182 1.245 . S
O181 C157 1.247 . S
O181 Mg163 2.061 . S
C182 O178 1.277 . S
C182 O180 1.245 . S
O183 C157 1.289 . S
O183 Mg160 2.238 . S
O183 Mg161 2.106 . S
O184 Mg161 2.079 . S
O184 C166 1.245 . S
O185 Mg164 2.038 . S
O185 C166 1.274 . S
C186 O198 1.241 . S
C186 O199 1.280 . S
C187 O200 1.277 . S
C187 O201 1.245 . S
C188 O212 1.247 . S
C188 O214 1.289 . S
Mg189 O190 1.926 . S
Mg189 O199 1.984 . S
Mg189 O201 1.988 . S
Mg189 O202 2.061 . S
O190 Mg189 1.926 . S
O190 Mg191 1.986 . S
O190 Mg192 1.917 . S
Mg191 O190 1.986 . S
Mg191 O198 2.042 . S
Mg191 O200 2.041 . S
Mg191 O206 2.038 . S
Mg191 O214 2.238 . S
Mg192 O190 1.917 . S
Mg192 O193 1.917 . S
Mg192 O203 2.106 . S
Mg192 O205 2.079 . S
Mg192 O214 2.106 . S
Mg192 O215 2.079 . S
O193 Mg192 1.917 . S
O193 Mg194 1.926 . S
O193 Mg195 1.986 . S
Mg194 O193 1.926 . S
Mg194 O208 1.984 . S
Mg194 O211 1.988 . S
Mg194 O212 2.061 . S
Mg195 O193 1.986 . S
Mg195 O203 2.238 . S
Mg195 O207 2.042 . S
Mg195 O209 2.041 . S
Mg195 O216 2.038 . S
C196 O202 1.247 . S
C196 O203 1.289 . S
C197 O215 1.245 . S
C197 O216 1.274 . S
O198 C186 1.241 . S
O198 Mg191 2.042 . S
O199 C186 1.280 . S
O199 Mg189 1.984 . S
O200 C187 1.277 . S
O200 Mg191 2.041 . S
O201 C187 1.245 . S
O201 Mg189 1.988 . S
O202 Mg189 2.061 . S
O202 C196 1.247 . S
O203 Mg192 2.106 . S
O203 Mg195 2.238 . S
O203 C196 1.289 . S
C204 O205 1.245 . S
C204 O206 1.274 . S
O205 Mg192 2.079 . S
O205 C204 1.245 . S
O206 Mg191 2.038 . S
O206 C204 1.274 . S
O207 Mg195 2.042 . S
O207 C210 1.241 . S
O208 Mg194 1.984 . S
O208 C210 1.280 . S
O209 Mg195 2.041 . S
O209 C213 1.277 . S
C210 O207 1.241 . S
C210 O208 1.280 . S
O211 Mg194 1.988 . S
O211 C213 1.245 . S
O212 C188 1.247 . S
O212 Mg194 2.061 . S
C213 O209 1.277 . S
C213 O211 1.245 . S
O214 C188 1.289 . S
O214 Mg191 2.238 . S
O214 Mg192 2.106 . S
O215 Mg192 2.079 . S
O215 C197 1.245 . S
O216 Mg195 2.038 . S
O216 C197 1.274 . S
C217 O229 1.241 . S
C217 O230 1.280 . S
C218 O231 1.277 . S
C218 O232 1.245 . S
C219 O243 1.247 . S
C219 O245 1.289 . S
Mg220 O221 1.926 . S
Mg220 O230 1.984 . S
Mg220 O232 1.988 . S
Mg220 O233 2.061 . S
O221 Mg220 1.926 . S
O221 Mg222 1.986 . S
O221 Mg223 1.917 . S
Mg222 O221 1.986 . S
Mg222 O229 2.042 . S
Mg222 O231 2.041 . S
Mg222 O237 2.038 . S
Mg222 O245 2.238 . S
Mg223 O221 1.917 . S
Mg223 O224 1.917 . S
Mg223 O234 2.106 . S
Mg223 O236 2.079 . S
Mg223 O245 2.106 . S
Mg223 O246 2.079 . S
O224 Mg223 1.917 . S
O224 Mg225 1.926 . S
O224 Mg226 1.986 . S
Mg225 O224 1.926 . S
Mg225 O239 1.984 . S
Mg225 O242 1.988 . S
Mg225 O243 2.061 . S
Mg226 O224 1.986 . S
Mg226 O234 2.238 . S
Mg226 O238 2.042 . S
Mg226 O240 2.041 . S
Mg226 O247 2.038 . S
C227 O233 1.247 . S
C227 O234 1.289 . S
C228 O246 1.245 . S
C228 O247 1.274 . S
O229 C217 1.241 . S
O229 Mg222 2.042 . S
O230 C217 1.280 . S
O230 Mg220 1.984 . S
O231 C218 1.277 . S
O231 Mg222 2.041 . S
O232 C218 1.245 . S
O232 Mg220 1.988 . S
O233 Mg220 2.061 . S
O233 C227 1.247 . S
O234 Mg223 2.106 . S
O234 Mg226 2.238 . S
O234 C227 1.289 . S
C235 O236 1.245 . S
C235 O237 1.274 . S
O236 Mg223 2.079 . S
O236 C235 1.245 . S
O237 Mg222 2.038 . S
O237 C235 1.274 . S
O238 Mg226 2.042 . S
O238 C241 1.241 . S
O239 Mg225 1.984 . S
O239 C241 1.280 . S
O240 Mg226 2.041 . S
O240 C244 1.277 . S
C241 O238 1.241 . S
C241 O239 1.280 . S
O242 Mg225 1.988 . S
O242 C244 1.245 . S
O243 C219 1.247 . S
O243 Mg225 2.061 . S
C244 O240 1.277 . S
C244 O242 1.245 . S
O245 C219 1.289 . S
O245 Mg222 2.238 . S
O245 Mg223 2.106 . S
O246 Mg223 2.079 . S
O246 C228 1.245 . S
O247 Mg226 2.038 . S
O247 C228 1.274 . S
C248 O260 1.241 . S
C248 O261 1.280 . S
C249 O262 1.277 . S
C249 O263 1.245 1_565 S
C250 O274 1.247 . S
C250 O276 1.289 . S
Mg251 O252 1.926 . S
Mg251 O261 1.984 . S
Mg251 O263 1.988 . S
Mg251 O264 2.061 . S
O252 Mg251 1.926 . S
O252 Mg253 1.986 . S
O252 Mg254 1.917 . S
Mg253 O252 1.986 . S
Mg253 O260 2.042 . S
Mg253 O262 2.041 1_545 S
Mg253 O268 2.038 . S
Mg253 O276 2.238 . S
Mg254 O252 1.917 . S
Mg254 O255 1.917 . S
Mg254 O265 2.106 . S
Mg254 O267 2.079 . S
Mg254 O276 2.106 . S
Mg254 O277 2.079 . S
O255 Mg254 1.917 . S
O255 Mg256 1.926 . S
O255 Mg257 1.986 . S
Mg256 O255 1.926 . S
Mg256 O270 1.984 . S
Mg256 O273 1.988 . S
Mg256 O274 2.061 . S
Mg257 O255 1.986 . S
Mg257 O265 2.238 . S
Mg257 O269 2.042 . S
Mg257 O271 2.041 . S
Mg257 O278 2.038 . S
C258 O264 1.247 . S
C258 O265 1.289 . S
C259 O277 1.245 . S
C259 O278 1.274 . S
O260 C248 1.241 . S
O260 Mg253 2.042 . S
O261 C248 1.280 . S
O261 Mg251 1.984 . S
O262 C249 1.277 . S
O262 Mg253 2.041 1_565 S
O263 C249 1.245 1_545 S
O263 Mg251 1.988 . S
O264 Mg251 2.061 . S
O264 C258 1.247 . S
O265 Mg254 2.106 . S
O265 Mg257 2.238 . S
O265 C258 1.289 . S
C266 O267 1.245 . S
C266 O268 1.274 . S
O267 Mg254 2.079 . S
O267 C266 1.245 . S
O268 Mg253 2.038 . S
O268 C266 1.274 . S
O269 Mg257 2.042 . S
O269 C272 1.241 . S
O270 Mg256 1.984 . S
O270 C272 1.280 . S
O271 Mg257 2.041 . S
O271 C275 1.277 . S
C272 O269 1.241 . S
C272 O270 1.280 . S
O273 Mg256 1.988 . S
O273 C275 1.245 . S
O274 C250 1.247 . S
O274 Mg256 2.061 . S
C275 O271 1.277 . S
C275 O273 1.245 . S
O276 C250 1.289 . S
O276 Mg253 2.238 . S
O276 Mg254 2.106 . S
O277 Mg254 2.079 . S
O277 C259 1.245 . S
O278 Mg257 2.038 . S
O278 C259 1.274 . S
C279 O291 1.241 . S
C279 O292 1.280 . S
C280 O293 1.277 . S
C280 O294 1.245 . S
C281 O305 1.247 . S
C281 O307 1.289 . S
Mg282 O283 1.926 . S
Mg282 O292 1.984 . S
Mg282 O294 1.988 . S
Mg282 O295 2.061 . S
O283 Mg282 1.926 . S
O283 Mg284 1.986 . S
O283 Mg285 1.917 . S
Mg284 O283 1.986 . S
Mg284 O291 2.042 . S
Mg284 O293 2.041 . S
Mg284 O299 2.038 . S
Mg284 O307 2.238 . S
Mg285 O283 1.917 . S
Mg285 O286 1.917 . S
Mg285 O296 2.106 . S
Mg285 O298 2.079 . S
Mg285 O307 2.106 . S
Mg285 O308 2.079 . S
O286 Mg285 1.917 . S
O286 Mg287 1.926 . S
O286 Mg288 1.986 . S
Mg287 O286 1.926 . S
Mg287 O301 1.984 . S
Mg287 O304 1.988 . S
Mg287 O305 2.061 . S
Mg288 O286 1.986 . S
Mg288 O296 2.238 . S
Mg288 O300 2.042 . S
Mg288 O302 2.041 1_545 S
Mg288 O309 2.038 . S
C289 O295 1.247 . S
C289 O296 1.289 . S
C290 O308 1.245 . S
C290 O309 1.274 . S
O291 C279 1.241 . S
O291 Mg284 2.042 . S
O292 C279 1.280 . S
O292 Mg282 1.984 . S
O293 C280 1.277 . S
O293 Mg284 2.041 . S
O294 C280 1.245 . S
O294 Mg282 1.988 . S
O295 Mg282 2.061 . S
O295 C289 1.247 . S
O296 Mg285 2.106 . S
O296 Mg288 2.238 . S
O296 C289 1.289 . S
C297 O298 1.245 . S
C297 O299 1.274 . S
O298 Mg285 2.079 . S
O298 C297 1.245 . S
O299 Mg284 2.038 . S
O299 C297 1.274 . S
O300 Mg288 2.042 . S
O300 C303 1.241 . S
O301 Mg287 1.984 . S
O301 C303 1.280 . S
O302 Mg288 2.041 1_565 S
O302 C306 1.277 . S
C303 O300 1.241 . S
C303 O301 1.280 . S
O304 Mg287 1.988 . S
O304 C306 1.245 1_545 S
O305 C281 1.247 . S
O305 Mg287 2.061 . S
C306 O302 1.277 . S
C306 O304 1.245 1_565 S
O307 C281 1.289 . S
O307 Mg284 2.238 . S
O307 Mg285 2.106 . S
O308 Mg285 2.079 . S
O308 C290 1.245 . S
O309 Mg288 2.038 . S
O309 C290 1.274 . S
C310 O322 1.241 . S
C310 O323 1.280 . S
C311 O324 1.277 . S
C311 O325 1.245 . S
C312 O336 1.247 . S
C312 O338 1.289 . S
Mg313 O314 1.926 . S
Mg313 O323 1.984 . S
Mg313 O325 1.988 . S
Mg313 O326 2.061 . S
O314 Mg313 1.926 . S
O314 Mg315 1.986 . S
O314 Mg316 1.917 . S
Mg315 O314 1.986 . S
Mg315 O322 2.042 . S
Mg315 O324 2.041 . S
Mg315 O330 2.038 . S
Mg315 O338 2.238 . S
Mg316 O314 1.917 . S
Mg316 O317 1.917 . S
Mg316 O327 2.106 . S
Mg316 O329 2.079 . S
Mg316 O338 2.106 . S
Mg316 O339 2.079 . S
O317 Mg316 1.917 . S
O317 Mg318 1.926 . S
O317 Mg319 1.986 . S
Mg318 O317 1.926 . S
Mg318 O332 1.984 . S
Mg318 O335 1.988 . S
Mg318 O336 2.061 . S
Mg319 O317 1.986 . S
Mg319 O327 2.238 . S
Mg319 O331 2.042 . S
Mg319 O333 2.041 1_565 S
Mg319 O340 2.038 . S
C320 O326 1.247 . S
C320 O327 1.289 . S
C321 O339 1.245 . S
C321 O340 1.274 . S
O322 C310 1.241 . S
O322 Mg315 2.042 . S
O323 C310 1.280 . S
O323 Mg313 1.984 . S
O324 C311 1.277 . S
O324 Mg315 2.041 . S
O325 C311 1.245 . S
O325 Mg313 1.988 . S
O326 Mg313 2.061 . S
O326 C320 1.247 . S
O327 Mg316 2.106 . S
O327 Mg319 2.238 . S
O327 C320 1.289 . S
C328 O329 1.245 . S
C328 O330 1.274 . S
O329 Mg316 2.079 . S
O329 C328 1.245 . S
O330 Mg315 2.038 . S
O330 C328 1.274 . S
O331 Mg319 2.042 . S
O331 C334 1.241 . S
O332 Mg318 1.984 . S
O332 C334 1.280 . S
O333 Mg319 2.041 1_545 S
O333 C337 1.277 . S
C334 O331 1.241 . S
C334 O332 1.280 . S
O335 Mg318 1.988 . S
O335 C337 1.245 1_565 S
O336 C312 1.247 . S
O336 Mg318 2.061 . S
C337 O333 1.277 . S
C337 O335 1.245 1_545 S
O338 C312 1.289 . S
O338 Mg315 2.238 . S
O338 Mg316 2.106 . S
O339 Mg316 2.079 . S
O339 C321 1.245 . S
O340 Mg319 2.038 . S
O340 C321 1.274 . S
C341 O353 1.241 . S
C341 O354 1.280 . S
C342 O355 1.277 . S
C342 O356 1.245 1_545 S
C343 O367 1.247 . S
C343 O369 1.289 . S
Mg344 O345 1.926 . S
Mg344 O354 1.984 . S
Mg344 O356 1.988 . S
Mg344 O357 2.061 . S
O345 Mg344 1.926 . S
O345 Mg346 1.986 . S
O345 Mg347 1.917 . S
Mg346 O345 1.986 . S
Mg346 O353 2.042 . S
Mg346 O355 2.041 1_565 S
Mg346 O361 2.038 . S
Mg346 O369 2.238 . S
Mg347 O345 1.917 . S
Mg347 O348 1.917 . S
Mg347 O358 2.106 . S
Mg347 O360 2.079 . S
Mg347 O369 2.106 . S
Mg347 O370 2.079 . S
O348 Mg347 1.917 . S
O348 Mg349 1.926 . S
O348 Mg350 1.986 . S
Mg349 O348 1.926 . S
Mg349 O363 1.984 . S
Mg349 O366 1.988 . S
Mg349 O367 2.061 . S
Mg350 O348 1.986 . S
Mg350 O358 2.238 . S
Mg350 O362 2.042 . S
Mg350 O364 2.041 . S
Mg350 O371 2.038 . S
C351 O357 1.247 . S
C351 O358 1.289 . S
C352 O370 1.245 . S
C352 O371 1.274 . S
O353 C341 1.241 . S
O353 Mg346 2.042 . S
O354 C341 1.280 . S
O354 Mg344 1.984 . S
O355 C342 1.277 . S
O355 Mg346 2.041 1_545 S
O356 C342 1.245 1_565 S
O356 Mg344 1.988 . S
O357 Mg344 2.061 . S
O357 C351 1.247 . S
O358 Mg347 2.106 . S
O358 Mg350 2.238 . S
O358 C351 1.289 . S
C359 O360 1.245 . S
C359 O361 1.274 . S
O360 Mg347 2.079 . S
O360 C359 1.245 . S
O361 Mg346 2.038 . S
O361 C359 1.274 . S
O362 Mg350 2.042 . S
O362 C365 1.241 . S
O363 Mg349 1.984 . S
O363 C365 1.280 . S
O364 Mg350 2.041 . S
O364 C368 1.277 . S
C365 O362 1.241 . S
C365 O363 1.280 . S
O366 Mg349 1.988 . S
O366 C368 1.245 . S
O367 C343 1.247 . S
O367 Mg349 2.061 . S
C368 O364 1.277 . S
C368 O366 1.245 . S
O369 C343 1.289 . S
O369 Mg346 2.238 . S
O369 Mg347 2.106 . S
O370 Mg347 2.079 . S
O370 C352 1.245 . S
O371 Mg350 2.038 . S
O371 C352 1.274 . S
C372 O384 1.241 . S
C372 O385 1.280 . S
C373 O386 1.277 . S
C373 O387 1.245 . S
C374 O398 1.247 . S
C374 O400 1.289 . S
Mg375 O376 1.926 . S
Mg375 O385 1.984 . S
Mg375 O387 1.988 . S
Mg375 O388 2.061 . S
O376 Mg375 1.926 . S
O376 Mg377 1.986 . S
O376 Mg378 1.917 . S
Mg377 O376 1.986 . S
Mg377 O384 2.042 . S
Mg377 O386 2.041 . S
Mg377 O392 2.038 . S
Mg377 O400 2.238 . S
Mg378 O376 1.917 . S
Mg378 O379 1.917 . S
Mg378 O389 2.106 . S
Mg378 O391 2.079 . S
Mg378 O400 2.106 . S
Mg378 O401 2.079 . S
O379 Mg378 1.917 . S
O379 Mg380 1.926 . S
O379 Mg381 1.986 . S
Mg380 O379 1.926 . S
Mg380 O394 1.984 . S
Mg380 O397 1.988 . S
Mg380 O398 2.061 . S
Mg381 O379 1.986 . S
Mg381 O389 2.238 . S
Mg381 O393 2.042 . S
Mg381 O395 2.041 . S
Mg381 O402 2.038 . S
C382 O388 1.247 . S
C382 O389 1.289 . S
C383 O401 1.245 . S
C383 O402 1.274 . S
O384 C372 1.241 . S
O384 Mg377 2.042 . S
O385 C372 1.280 . S
O385 Mg375 1.984 . S
O386 C373 1.277 . S
O386 Mg377 2.041 . S
O387 C373 1.245 . S
O387 Mg375 1.988 . S
O388 Mg375 2.061 . S
O388 C382 1.247 . S
O389 Mg378 2.106 . S
O389 Mg381 2.238 . S
O389 C382 1.289 . S
C390 O391 1.245 . S
C390 O392 1.274 . S
O391 Mg378 2.079 . S
O391 C390 1.245 . S
O392 Mg377 2.038 . S
O392 C390 1.274 . S
O393 Mg381 2.042 . S
O393 C396 1.241 . S
O394 Mg380 1.984 . S
O394 C396 1.280 . S
O395 Mg381 2.041 . S
O395 C399 1.277 . S
C396 O393 1.241 . S
C396 O394 1.280 . S
O397 Mg380 1.988 . S
O397 C399 1.245 . S
O398 C374 1.247 . S
O398 Mg380 2.061 . S
C399 O395 1.277 . S
C399 O397 1.245 . S
O400 C374 1.289 . S
O400 Mg377 2.238 . S
O400 Mg378 2.106 . S
O401 Mg378 2.079 . S
O401 C383 1.245 . S
O402 Mg381 2.038 . S
O402 C383 1.274 . S
C403 O415 1.241 . S
C403 O416 1.280 . S
C404 O417 1.277 . S
C404 O418 1.245 . S
C405 O429 1.247 . S
C405 O431 1.289 . S
Mg406 O407 1.926 . S
Mg406 O416 1.984 . S
Mg406 O418 1.988 . S
Mg406 O419 2.061 . S
O407 Mg406 1.926 . S
O407 Mg408 1.986 . S
O407 Mg409 1.917 . S
Mg408 O407 1.986 . S
Mg408 O415 2.042 . S
Mg408 O417 2.041 . S
Mg408 O423 2.038 . S
Mg408 O431 2.238 . S
Mg409 O407 1.917 . S
Mg409 O410 1.917 . S
Mg409 O420 2.106 . S
Mg409 O422 2.079 . S
Mg409 O431 2.106 . S
Mg409 O432 2.079 . S
O410 Mg409 1.917 . S
O410 Mg411 1.926 . S
O410 Mg412 1.986 . S
Mg411 O410 1.926 . S
Mg411 O425 1.984 . S
Mg411 O428 1.988 . S
Mg411 O429 2.061 . S
Mg412 O410 1.986 . S
Mg412 O420 2.238 . S
Mg412 O424 2.042 . S
Mg412 O426 2.041 . S
Mg412 O433 2.038 . S
C413 O419 1.247 . S
C413 O420 1.289 . S
C414 O432 1.245 . S
C414 O433 1.274 . S
O415 C403 1.241 . S
O415 Mg408 2.042 . S
O416 C403 1.280 . S
O416 Mg406 1.984 . S
O417 C404 1.277 . S
O417 Mg408 2.041 . S
O418 C404 1.245 . S
O418 Mg406 1.988 . S
O419 Mg406 2.061 . S
O419 C413 1.247 . S
O420 Mg409 2.106 . S
O420 Mg412 2.238 . S
O420 C413 1.289 . S
C421 O422 1.245 . S
C421 O423 1.274 . S
O422 Mg409 2.079 . S
O422 C421 1.245 . S
O423 Mg408 2.038 . S
O423 C421 1.274 . S
O424 Mg412 2.042 . S
O424 C427 1.241 . S
O425 Mg411 1.984 . S
O425 C427 1.280 . S
O426 Mg412 2.041 . S
O426 C430 1.277 . S
C427 O424 1.241 . S
C427 O425 1.280 . S
O428 Mg411 1.988 . S
O428 C430 1.245 . S
O429 C405 1.247 . S
O429 Mg411 2.061 . S
C430 O426 1.277 . S
C430 O428 1.245 . S
O431 C405 1.289 . S
O431 Mg408 2.238 . S
O431 Mg409 2.106 . S
O432 Mg409 2.079 . S
O432 C414 1.245 . S
O433 Mg412 2.038 . S
O433 C414 1.274 . S
C434 O446 1.241 . S
C434 O447 1.280 . S
C435 O448 1.277 . S
C435 O449 1.245 . S
C436 O460 1.247 . S
C436 O462 1.289 . S
Mg437 O438 1.926 . S
Mg437 O447 1.984 . S
Mg437 O449 1.988 . S
Mg437 O450 2.061 . S
O438 Mg437 1.926 . S
O438 Mg439 1.986 . S
O438 Mg440 1.917 . S
Mg439 O438 1.986 . S
Mg439 O446 2.042 . S
Mg439 O448 2.041 . S
Mg439 O454 2.038 . S
Mg439 O462 2.238 . S
Mg440 O438 1.917 . S
Mg440 O441 1.917 . S
Mg440 O451 2.106 . S
Mg440 O453 2.079 . S
Mg440 O462 2.106 . S
Mg440 O463 2.079 . S
O441 Mg440 1.917 . S
O441 Mg442 1.926 . S
O441 Mg443 1.986 . S
Mg442 O441 1.926 . S
Mg442 O456 1.984 . S
Mg442 O459 1.988 . S
Mg442 O460 2.061 . S
Mg443 O441 1.986 . S
Mg443 O451 2.238 . S
Mg443 O455 2.042 . S
Mg443 O457 2.041 . S
Mg443 O464 2.038 . S
C444 O450 1.247 . S
C444 O451 1.289 . S
C445 O463 1.245 . S
C445 O464 1.274 . S
O446 C434 1.241 . S
O446 Mg439 2.042 . S
O447 C434 1.280 . S
O447 Mg437 1.984 . S
O448 C435 1.277 . S
O448 Mg439 2.041 . S
O449 C435 1.245 . S
O449 Mg437 1.988 . S
O450 Mg437 2.061 . S
O450 C444 1.247 . S
O451 Mg440 2.106 . S
O451 Mg443 2.238 . S
O451 C444 1.289 . S
C452 O453 1.245 . S
C452 O454 1.274 . S
O453 Mg440 2.079 . S
O453 C452 1.245 . S
O454 Mg439 2.038 . S
O454 C452 1.274 . S
O455 Mg443 2.042 . S
O455 C458 1.241 . S
O456 Mg442 1.984 . S
O456 C458 1.280 . S
O457 Mg443 2.041 . S
O457 C461 1.277 . S
C458 O455 1.241 . S
C458 O456 1.280 . S
O459 Mg442 1.988 . S
O459 C461 1.245 . S
O460 C436 1.247 . S
O460 Mg442 2.061 . S
C461 O457 1.277 . S
C461 O459 1.245 . S
O462 C436 1.289 . S
O462 Mg439 2.238 . S
O462 Mg440 2.106 . S
O463 Mg440 2.079 . S
O463 C445 1.245 . S
O464 Mg443 2.038 . S
O464 C445 1.274 . S
C465 O477 1.241 . S
C465 O478 1.280 . S
C466 O479 1.277 . S
C466 O480 1.245 . S
C467 O491 1.247 . S
C467 O493 1.289 . S
Mg468 O469 1.926 . S
Mg468 O478 1.984 . S
Mg468 O480 1.988 . S
Mg468 O481 2.061 . S
O469 Mg468 1.926 . S
O469 Mg470 1.986 . S
O469 Mg471 1.917 . S
Mg470 O469 1.986 . S
Mg470 O477 2.042 . S
Mg470 O479 2.041 . S
Mg470 O485 2.038 . S
Mg470 O493 2.238 . S
Mg471 O469 1.917 . S
Mg471 O472 1.917 . S
Mg471 O482 2.106 . S
Mg471 O484 2.079 . S
Mg471 O493 2.106 . S
Mg471 O494 2.079 . S
O472 Mg471 1.917 . S
O472 Mg473 1.926 . S
O472 Mg474 1.986 . S
Mg473 O472 1.926 . S
Mg473 O487 1.984 . S
Mg473 O490 1.988 . S
Mg473 O491 2.061 . S
Mg474 O472 1.986 . S
Mg474 O482 2.238 . S
Mg474 O486 2.042 . S
Mg474 O488 2.041 . S
Mg474 O495 2.038 . S
C475 O481 1.247 . S
C475 O482 1.289 . S
C476 O494 1.245 . S
C476 O495 1.274 . S
O477 C465 1.241 . S
O477 Mg470 2.042 . S
O478 C465 1.280 . S
O478 Mg468 1.984 . S
O479 C466 1.277 . S
O479 Mg470 2.041 . S
O480 C466 1.245 . S
O480 Mg468 1.988 . S
O481 Mg468 2.061 . S
O481 C475 1.247 . S
O482 Mg471 2.106 . S
O482 Mg474 2.238 . S
O482 C475 1.289 . S
C483 O484 1.245 . S
C483 O485 1.274 . S
O484 Mg471 2.079 . S
O484 C483 1.245 . S
O485 Mg470 2.038 . S
O485 C483 1.274 . S
O486 Mg474 2.042 . S
O486 C489 1.241 . S
O487 Mg473 1.984 . S
O487 C489 1.280 . S
O488 Mg474 2.041 . S
O488 C492 1.277 . S
C489 O486 1.241 . S
C489 O487 1.280 . S
O490 Mg473 1.988 . S
O490 C492 1.245 . S
O491 C467 1.247 . S
O491 Mg473 2.061 . S
C492 O488 1.277 . S
C492 O490 1.245 . S
O493 C467 1.289 . S
O493 Mg470 2.238 . S
O493 Mg471 2.106 . S
O494 Mg471 2.079 . S
O494 C476 1.245 . S
O495 Mg474 2.038 . S
O495 C476 1.274 . S
H496 C502 0.930 . S
H497 C505 0.930 . S
H498 C506 0.930 . S
H499 C507 0.930 . S
H500 C510 0.930 . S
H501 C511 0.930 . S
C502 H496 0.930 . S
C502 C503 1.355 . S
C502 C504 1.415 . S
C503 C502 1.355 . S
C503 C505 1.419 . S
C504 C502 1.415 . S
C504 C509 1.425 . S
C504 C511 1.409 . S
C505 H497 0.930 . S
C505 C503 1.419 . S
C505 C506 1.362 . S
C506 H498 0.930 . S
C506 C505 1.362 . S
C506 C509 1.409 . S
C507 H499 0.930 . S
C507 C508 1.355 . S
C507 C509 1.415 . S
C508 C507 1.355 . S
C508 C510 1.419 . S
C509 C504 1.425 . S
C509 C506 1.409 . S
C509 C507 1.415 . S
C510 H500 0.930 . S
C510 C508 1.419 . S
C510 C511 1.362 . S
C511 H501 0.930 . S
C511 C504 1.409 . S
C511 C510 1.362 . S
H512 C518 0.930 . S
H513 C521 0.930 1_545 S
H514 C522 0.930 . S
H515 C523 0.930 . S
H516 C526 0.930 . S
H517 C527 0.930 1_455 S
C518 H512 0.930 . S
C518 C519 1.355 . S
C518 C520 1.415 1_455 S
C519 C518 1.355 . S
C519 C521 1.419 1_455 S
C520 C518 1.415 1_655 S
C520 C525 1.425 . S
C520 C527 1.409 . S
C521 H513 0.930 1_565 S
C521 C519 1.419 1_655 S
C521 C522 1.362 . S
C522 H514 0.930 . S
C522 C521 1.362 . S
C522 C525 1.409 . S
C523 H515 0.930 . S
C523 C524 1.355 . S
C523 C525 1.415 . S
C524 C523 1.355 . S
C524 C526 1.419 . S
C525 C520 1.425 . S
C525 C522 1.409 . S
C525 C523 1.415 . S
C526 H516 0.930 . S
C526 C524 1.419 . S
C526 C527 1.362 . S
C527 H517 0.930 1_655 S
C527 C520 1.409 . S
C527 C526 1.362 . S
H528 C534 0.930 . S
H529 C537 0.930 1_545 S
H530 C538 0.930 . S
H531 C539 0.930 . S
H532 C542 0.930 . S
H533 C543 0.930 . S
C534 H528 0.930 . S
C534 C535 1.355 . S
C534 C536 1.415 . S
C535 C534 1.355 . S
C535 C537 1.419 . S
C536 C534 1.415 . S
C536 C541 1.425 . S
C536 C543 1.409 . S
C537 H529 0.930 1_565 S
C537 C535 1.419 . S
C537 C538 1.362 . S
C538 H530 0.930 . S
C538 C537 1.362 . S
C538 C541 1.409 . S
C539 H531 0.930 . S
C539 C540 1.355 . S
C539 C541 1.415 . S
C540 C539 1.355 . S
C540 C542 1.419 . S
C541 C536 1.425 . S
C541 C538 1.409 . S
C541 C539 1.415 . S
C542 H532 0.930 . S
C542 C540 1.419 . S
C542 C543 1.362 . S
C543 H533 0.930 . S
C543 C536 1.409 . S
C543 C542 1.362 . S
H544 C550 0.930 . S
H545 C553 0.930 . S
H546 C554 0.930 . S
H547 C555 0.930 . S
H548 C558 0.930 . S
H549 C559 0.930 1_455 S
C550 H544 0.930 . S
C550 C551 1.355 . S
C550 C552 1.415 1_455 S
C551 C550 1.355 . S
C551 C553 1.419 1_455 S
C552 C550 1.415 1_655 S
C552 C557 1.425 . S
C552 C559 1.409 . S
C553 H545 0.930 . S
C553 C551 1.419 1_655 S
C553 C554 1.362 . S
C554 H546 0.930 . S
C554 C553 1.362 . S
C554 C557 1.409 . S
C555 H547 0.930 . S
C555 C556 1.355 . S
C555 C557 1.415 . S
C556 C555 1.355 . S
C556 C558 1.419 . S
C557 C552 1.425 . S
C557 C554 1.409 . S
C557 C555 1.415 . S
C558 H548 0.930 . S
C558 C556 1.419 . S
C558 C559 1.362 . S
C559 H549 0.930 1_655 S
C559 C552 1.409 . S
C559 C558 1.362 . S
H560 C566 0.930 . S
H561 C569 0.930 . S
H562 C570 0.930 . S
H563 C571 0.930 . S
H564 C574 0.930 . S
H565 C575 0.930 . S
C566 H560 0.930 . S
C566 C567 1.355 . S
C566 C568 1.415 . S
C567 C566 1.355 . S
C567 C569 1.419 . S
C568 C566 1.415 . S
C568 C573 1.425 . S
C568 C575 1.409 . S
C569 H561 0.930 . S
C569 C567 1.419 . S
C569 C570 1.362 . S
C570 H562 0.930 . S
C570 C569 1.362 . S
C570 C573 1.409 . S
C571 H563 0.930 . S
C571 C572 1.355 . S
C571 C573 1.415 . S
C572 C571 1.355 . S
C572 C574 1.419 . S
C573 C568 1.425 . S
C573 C570 1.409 . S
C573 C571 1.415 . S
C574 H564 0.930 . S
C574 C572 1.419 . S
C574 C575 1.362 . S
C575 H565 0.930 . S
C575 C568 1.409 . S
C575 C574 1.362 . S
H576 C582 0.930 . S
H577 C585 0.930 . S
H578 C586 0.930 . S
H579 C587 0.930 . S
H580 C590 0.930 . S
H581 C591 0.930 . S
C582 H576 0.930 . S
C582 C583 1.355 1_455 S
C582 C584 1.415 . S
C583 C582 1.355 1_655 S
C583 C585 1.419 . S
C584 C582 1.415 . S
C584 C589 1.425 . S
C584 C591 1.409 . S
C585 H577 0.930 . S
C585 C583 1.419 . S
C585 C586 1.362 . S
C586 H578 0.930 . S
C586 C585 1.362 . S
C586 C589 1.409 1_655 S
C587 H579 0.930 . S
C587 C588 1.355 . S
C587 C589 1.415 . S
C588 C587 1.355 . S
C588 C590 1.419 . S
C589 C584 1.425 . S
C589 C586 1.409 1_455 S
C589 C587 1.415 . S
C590 H580 0.930 . S
C590 C588 1.419 . S
C590 C591 1.362 . S
C591 H581 0.930 . S
C591 C584 1.409 . S
C591 C590 1.362 . S
H592 C598 0.930 . S
H593 C601 0.930 . S
H594 C602 0.930 . S
H595 C603 0.930 . S
H596 C606 0.930 . S
H597 C607 0.930 . S
C598 H592 0.930 . S
C598 C599 1.355 . S
C598 C600 1.415 . S
C599 C598 1.355 . S
C599 C601 1.419 . S
C600 C598 1.415 . S
C600 C605 1.425 . S
C600 C607 1.409 . S
C601 H593 0.930 . S
C601 C599 1.419 . S
C601 C602 1.362 . S
C602 H594 0.930 . S
C602 C601 1.362 . S
C602 C605 1.409 . S
C603 H595 0.930 . S
C603 C604 1.355 . S
C603 C605 1.415 . S
C604 C603 1.355 . S
C604 C606 1.419 . S
C605 C600 1.425 . S
C605 C602 1.409 . S
C605 C603 1.415 . S
C606 H596 0.930 . S
C606 C604 1.419 . S
C606 C607 1.362 . S
C607 H597 0.930 . S
C607 C600 1.409 . S
C607 C606 1.362 . S
H608 C614 0.930 . S
H609 C617 0.930 . S
H610 C618 0.930 . S
H611 C619 0.930 . S
H612 C622 0.930 . S
H613 C623 0.930 1_655 S
C614 H608 0.930 . S
C614 C615 1.355 . S
C614 C616 1.415 1_655 S
C615 C614 1.355 . S
C615 C617 1.419 1_655 S
C616 C614 1.415 1_455 S
C616 C621 1.425 . S
C616 C623 1.409 . S
C617 H609 0.930 . S
C617 C615 1.419 1_455 S
C617 C618 1.362 . S
C618 H610 0.930 . S
C618 C617 1.362 . S
C618 C621 1.409 . S
C619 H611 0.930 . S
C619 C620 1.355 . S
C619 C621 1.415 . S
C620 C619 1.355 . S
C620 C622 1.419 . S
C621 C616 1.425 . S
C621 C618 1.409 . S
C621 C619 1.415 . S
C622 H612 0.930 . S
C622 C620 1.419 . S
C622 C623 1.362 . S
C623 H613 0.930 1_455 S
C623 C616 1.409 . S
C623 C622 1.362 . S
H624 C630 0.930 . S
H625 C633 0.930 . S
H626 C634 0.930 . S
H627 C635 0.930 . S
H628 C638 0.930 . S
H629 C639 0.930 . S
C630 H624 0.930 . S
C630 C631 1.355 . S
C630 C632 1.415 . S
C631 C630 1.355 . S
C631 C633 1.419 . S
C632 C630 1.415 . S
C632 C637 1.425 . S
C632 C639 1.409 . S
C633 H625 0.930 . S
C633 C631 1.419 . S
C633 C634 1.362 . S
C634 H626 0.930 . S
C634 C633 1.362 . S
C634 C637 1.409 . S
C635 H627 0.930 . S
C635 C636 1.355 . S
C635 C637 1.415 . S
C636 C635 1.355 . S
C636 C638 1.419 . S
C637 C632 1.425 . S
C637 C634 1.409 . S
C637 C635 1.415 . S
C638 H628 0.930 . S
C638 C636 1.419 . S
C638 C639 1.362 . S
C639 H629 0.930 . S
C639 C632 1.409 . S
C639 C638 1.362 . S
H640 C646 0.930 . S
H641 C649 0.930 . S
H642 C650 0.930 1_455 S
H643 C651 0.930 . S
H644 C654 0.930 . S
H645 C655 0.930 . S
C646 H640 0.930 . S
C646 C647 1.355 . S
C646 C648 1.415 . S
C647 C646 1.355 . S
C647 C649 1.419 . S
C648 C646 1.415 . S
C648 C653 1.425 . S
C648 C655 1.409 . S
C649 H641 0.930 . S
C649 C647 1.419 . S
C649 C650 1.362 . S
C650 H642 0.930 1_655 S
C650 C649 1.362 . S
C650 C653 1.409 . S
C651 H643 0.930 . S
C651 C652 1.355 . S
C651 C653 1.415 1_455 S
C652 C651 1.355 . S
C652 C654 1.419 1_455 S
C653 C648 1.425 . S
C653 C650 1.409 . S
C653 C651 1.415 1_655 S
C654 H644 0.930 . S
C654 C652 1.419 1_655 S
C654 C655 1.362 . S
C655 H645 0.930 . S
C655 C648 1.409 . S
C655 C654 1.362 . S
H656 C662 0.930 . S
H657 C665 0.930 . S
H658 C666 0.930 . S
H659 C667 0.930 . S
H660 C670 0.930 . S
H661 C671 0.930 . S
C662 H656 0.930 . S
C662 C663 1.355 . S
C662 C664 1.415 . S
C663 C662 1.355 . S
C663 C665 1.419 . S
C664 C662 1.415 . S
C664 C669 1.425 . S
C664 C671 1.409 . S
C665 H657 0.930 . S
C665 C663 1.419 . S
C665 C666 1.362 . S
C666 H658 0.930 . S
C666 C665 1.362 . S
C666 C669 1.409 . S
C667 H659 0.930 . S
C667 C668 1.355 . S
C667 C669 1.415 . S
C668 C667 1.355 . S
C668 C670 1.419 . S
C669 C664 1.425 . S
C669 C666 1.409 . S
C669 C667 1.415 . S
C670 H660 0.930 . S
C670 C668 1.419 . S
C670 C671 1.362 . S
C671 H661 0.930 . S
C671 C664 1.409 . S
C671 C670 1.362 . S
H672 C678 0.930 . S
H673 C681 0.930 . S
H674 C682 0.930 . S
H675 C683 0.930 . S
H676 C686 0.930 . S
H677 C687 0.930 . S
C678 H672 0.930 . S
C678 C679 1.355 . S
C678 C680 1.415 . S
C679 C678 1.355 . S
C679 C681 1.419 . S
C680 C678 1.415 . S
C680 C685 1.425 . S
C680 C687 1.409 1_655 S
C681 H673 0.930 . S
C681 C679 1.419 . S
C681 C682 1.362 . S
C682 H674 0.930 . S
C682 C681 1.362 . S
C682 C685 1.409 . S
C683 H675 0.930 . S
C683 C684 1.355 1_655 S
C683 C685 1.415 . S
C684 C683 1.355 1_455 S
C684 C686 1.419 . S
C685 C680 1.425 . S
C685 C682 1.409 . S
C685 C683 1.415 . S
C686 H676 0.930 . S
C686 C684 1.419 . S
C686 C687 1.362 . S
C687 H677 0.930 . S
C687 C680 1.409 1_455 S
C687 C686 1.362 . S
H688 C694 0.930 . S
H689 C697 0.930 1_565 S
H690 C698 0.930 . S
H691 C699 0.930 . S
H692 C702 0.930 . S
H693 C703 0.930 . S
C694 H688 0.930 . S
C694 C695 1.355 . S
C694 C696 1.415 . S
C695 C694 1.355 . S
C695 C697 1.419 . S
C696 C694 1.415 . S
C696 C701 1.425 . S
C696 C703 1.409 . S
C697 H689 0.930 1_545 S
C697 C695 1.419 . S
C697 C698 1.362 . S
C698 H690 0.930 . S
C698 C697 1.362 . S
C698 C701 1.409 . S
C699 H691 0.930 . S
C699 C700 1.355 . S
C699 C701 1.415 . S
C700 C699 1.355 . S
C700 C702 1.419 . S
C701 C696 1.425 . S
C701 C698 1.409 . S
C701 C699 1.415 . S
C702 H692 0.930 . S
C702 C700 1.419 . S
C702 C703 1.362 . S
C703 H693 0.930 . S
C703 C696 1.409 . S
C703 C702 1.362 . S
H704 C710 0.930 . S
H705 C713 0.930 . S
H706 C714 0.930 . S
H707 C715 0.930 . S
H708 C718 0.930 . S
H709 C719 0.930 . S
C710 H704 0.930 . S
C710 C711 1.355 1_455 S
C710 C712 1.415 . S
C711 C710 1.355 1_655 S
C711 C713 1.419 . S
C712 C710 1.415 . S
C712 C717 1.425 . S
C712 C719 1.409 . S
C713 H705 0.930 . S
C713 C711 1.419 . S
C713 C714 1.362 . S
C714 H706 0.930 . S
C714 C713 1.362 . S
C714 C717 1.409 1_655 S
C715 H707 0.930 . S
C715 C716 1.355 . S
C715 C717 1.415 . S
C716 C715 1.355 . S
C716 C718 1.419 . S
C717 C712 1.425 . S
C717 C714 1.409 1_455 S
C717 C715 1.415 . S
C718 H708 0.930 . S
C718 C716 1.419 . S
C718 C719 1.362 . S
C719 H709 0.930 . S
C719 C712 1.409 . S
C719 C718 1.362 . S
H720 C726 0.930 . S
H721 C729 0.930 . S
H722 C730 0.930 . S
H723 C731 0.930 . S
H724 C734 0.930 . S
H725 C735 0.930 . S
C726 H720 0.930 . S
C726 C727 1.355 . S
C726 C728 1.415 . S
C727 C726 1.355 . S
C727 C729 1.419 . S
C728 C726 1.415 . S
C728 C733 1.425 . S
C728 C735 1.409 . S
C729 H721 0.930 . S
C729 C727 1.419 . S
C729 C730 1.362 . S
C730 H722 0.930 . S
C730 C729 1.362 . S
C730 C733 1.409 . S
C731 H723 0.930 . S
C731 C732 1.355 . S
C731 C733 1.415 . S
C732 C731 1.355 . S
C732 C734 1.419 . S
C733 C728 1.425 . S
C733 C730 1.409 . S
C733 C731 1.415 . S
C734 H724 0.930 . S
C734 C732 1.419 . S
C734 C735 1.362 . S
C735 H725 0.930 . S
C735 C728 1.409 . S
C735 C734 1.362 . S
H736 C742 0.930 . S
H737 C745 0.930 . S
H738 C746 0.930 . S
H739 C747 0.930 . S
H740 C750 0.930 . S
H741 C751 0.930 1_655 S
C742 H736 0.930 . S
C742 C743 1.355 . S
C742 C744 1.415 1_655 S
C743 C742 1.355 . S
C743 C745 1.419 1_655 S
C744 C742 1.415 1_455 S
C744 C749 1.425 . S
C744 C751 1.409 . S
C745 H737 0.930 . S
C745 C743 1.419 1_455 S
C745 C746 1.362 . S
C746 H738 0.930 . S
C746 C745 1.362 . S
C746 C749 1.409 . S
C747 H739 0.930 . S
C747 C748 1.355 . S
C747 C749 1.415 . S
C748 C747 1.355 . S
C748 C750 1.419 . S
C749 C744 1.425 . S
C749 C746 1.409 . S
C749 C747 1.415 . S
C750 H740 0.930 . S
C750 C748 1.419 . S
C750 C751 1.362 . S
C751 H741 0.930 1_455 S
C751 C744 1.409 . S
C751 C750 1.362 . S
H752 C758 0.930 . S
H753 C761 0.930 1_545 S
H754 C762 0.930 . S
H755 C763 0.930 . S
H756 C766 0.930 . S
H757 C767 0.930 . S
C758 H752 0.930 . S
C758 C759 1.355 . S
C758 C760 1.415 . S
C759 C758 1.355 . S
C759 C761 1.419 . S
C760 C758 1.415 . S
C760 C765 1.425 . S
C760 C767 1.409 . S
C761 H753 0.930 1_565 S
C761 C759 1.419 . S
C761 C762 1.362 . S
C762 H754 0.930 . S
C762 C761 1.362 . S
C762 C765 1.409 . S
C763 H755 0.930 . S
C763 C764 1.355 . S
C763 C765 1.415 . S
C764 C763 1.355 . S
C764 C766 1.419 . S
C765 C760 1.425 . S
C765 C762 1.409 . S
C765 C763 1.415 . S
C766 H756 0.930 . S
C766 C764 1.419 . S
C766 C767 1.362 . S
C767 H757 0.930 . S
C767 C760 1.409 . S
C767 C766 1.362 . S
H768 C774 0.930 . S
H769 C777 0.930 . S
H770 C778 0.930 . S
H771 C779 0.930 . S
H772 C782 0.930 . S
H773 C783 0.930 . S
C774 H768 0.930 . S
C774 C775 1.355 1_655 S
C774 C776 1.415 . S
C775 C774 1.355 1_455 S
C775 C777 1.419 . S
C776 C774 1.415 . S
C776 C781 1.425 . S
C776 C783 1.409 . S
C777 H769 0.930 . S
C777 C775 1.419 . S
C777 C778 1.362 1_455 S
C778 H770 0.930 . S
C778 C777 1.362 1_655 S
C778 C781 1.409 . S
C779 H771 0.930 . S
C779 C780 1.355 . S
C779 C781 1.415 . S
C780 C779 1.355 . S
C780 C782 1.419 . S
C781 C776 1.425 . S
C781 C778 1.409 . S
C781 C779 1.415 . S
C782 H772 0.930 . S
C782 C780 1.419 . S
C782 C783 1.362 . S
C783 H773 0.930 . S
C783 C776 1.409 . S
C783 C782 1.362 . S
H784 C790 0.930 . S
H785 C793 0.930 . S
H786 C794 0.930 . S
H787 C795 0.930 . S
H788 C798 0.930 . S
H789 C799 0.930 . S
C790 H784 0.930 . S
C790 C791 1.355 . S
C790 C792 1.415 . S
C791 C790 1.355 . S
C791 C793 1.419 . S
C792 C790 1.415 . S
C792 C797 1.425 . S
C792 C799 1.409 . S
C793 H785 0.930 . S
C793 C791 1.419 . S
C793 C794 1.362 . S
C794 H786 0.930 . S
C794 C793 1.362 . S
C794 C797 1.409 . S
C795 H787 0.930 . S
C795 C796 1.355 . S
C795 C797 1.415 . S
C796 C795 1.355 . S
C796 C798 1.419 . S
C797 C792 1.425 . S
C797 C794 1.409 . S
C797 C795 1.415 . S
C798 H788 0.930 . S
C798 C796 1.419 . S
C798 C799 1.362 . S
C799 H789 0.930 . S
C799 C792 1.409 . S
C799 C798 1.362 . S
H800 C806 0.930 . S
H801 C809 0.930 . S
H802 C810 0.930 . S
H803 C811 0.930 . S
H804 C814 0.930 1_545 S
H805 C815 0.930 . S
C806 H800 0.930 . S
C806 C807 1.355 . S
C806 C808 1.415 . S
C807 C806 1.355 . S
C807 C809 1.419 . S
C808 C806 1.415 . S
C808 C813 1.425 . S
C808 C815 1.409 . S
C809 H801 0.930 . S
C809 C807 1.419 . S
C809 C810 1.362 1_655 S
C810 H802 0.930 . S
C810 C809 1.362 1_455 S
C810 C813 1.409 1_455 S
C811 H803 0.930 . S
C811 C812 1.355 . S
C811 C813 1.415 1_455 S
C812 C811 1.355 . S
C812 C814 1.419 1_455 S
C813 C808 1.425 . S
C813 C810 1.409 1_655 S
C813 C811 1.415 1_655 S
C814 H804 0.930 1_565 S
C814 C812 1.419 1_655 S
C814 C815 1.362 . S
C815 H805 0.930 . S
C815 C808 1.409 . S
C815 C814 1.362 . S
H816 C822 0.930 . S
H817 C825 0.930 . S
H818 C826 0.930 . S
H819 C827 0.930 . S
H820 C830 0.930 . S
H821 C831 0.930 . S
C822 H816 0.930 . S
C822 C823 1.355 . S
C822 C824 1.415 . S
C823 C822 1.355 . S
C823 C825 1.419 . S
C824 C822 1.415 . S
C824 C829 1.425 . S
C824 C831 1.409 . S
C825 H817 0.930 . S
C825 C823 1.419 . S
C825 C826 1.362 . S
C826 H818 0.930 . S
C826 C825 1.362 . S
C826 C829 1.409 . S
C827 H819 0.930 . S
C827 C828 1.355 . S
C827 C829 1.415 . S
C828 C827 1.355 . S
C828 C830 1.419 . S
C829 C824 1.425 . S
C829 C826 1.409 . S
C829 C827 1.415 . S
C830 H820 0.930 . S
C830 C828 1.419 . S
C830 C831 1.362 . S
C831 H821 0.930 . S
C831 C824 1.409 . S
C831 C830 1.362 . S
H832 C838 0.930 . S
H833 C841 0.930 . S
H834 C842 0.930 1_655 S
H835 C843 0.930 . S
H836 C846 0.930 . S
H837 C847 0.930 . S
C838 H832 0.930 . S
C838 C839 1.355 . S
C838 C840 1.415 . S
C839 C838 1.355 . S
C839 C841 1.419 . S
C840 C838 1.415 . S
C840 C845 1.425 . S
C840 C847 1.409 . S
C841 H833 0.930 . S
C841 C839 1.419 . S
C841 C842 1.362 . S
C842 H834 0.930 1_455 S
C842 C841 1.362 . S
C842 C845 1.409 . S
C843 H835 0.930 . S
C843 C844 1.355 . S
C843 C845 1.415 1_655 S
C844 C843 1.355 . S
C844 C846 1.419 1_655 S
C845 C840 1.425 . S
C845 C842 1.409 . S
C845 C843 1.415 1_455 S
C846 H836 0.930 . S
C846 C844 1.419 1_455 S
C846 C847 1.362 . S
C847 H837 0.930 . S
C847 C840 1.409 . S
C847 C846 1.362 . S
H848 C854 0.930 . S
H849 C857 0.930 . S
H850 C858 0.930 . S
H851 C859 0.930 . S
H852 C862 0.930 . S
H853 C863 0.930 . S
C854 H848 0.930 . S
C854 C855 1.355 . S
C854 C856 1.415 . S
C855 C854 1.355 . S
C855 C857 1.419 . S
C856 C854 1.415 . S
C856 C861 1.425 . S
C856 C863 1.409 . S
C857 H849 0.930 . S
C857 C855 1.419 . S
C857 C858 1.362 . S
C858 H850 0.930 . S
C858 C857 1.362 . S
C858 C861 1.409 . S
C859 H851 0.930 . S
C859 C860 1.355 . S
C859 C861 1.415 . S
C860 C859 1.355 . S
C860 C862 1.419 . S
C861 C856 1.425 . S
C861 C858 1.409 . S
C861 C859 1.415 . S
C862 H852 0.930 . S
C862 C860 1.419 . S
C862 C863 1.362 . S
C863 H853 0.930 . S
C863 C856 1.409 . S
C863 C862 1.362 . S
H864 C870 0.930 . S
H865 C873 0.930 . S
H866 C874 0.930 . S
H867 C875 0.930 . S
H868 C878 0.930 . S
H869 C879 0.930 . S
C870 H864 0.930 . S
C870 C871 1.355 . S
C870 C872 1.415 . S
C871 C870 1.355 . S
C871 C873 1.419 . S
C872 C870 1.415 . S
C872 C877 1.425 . S
C872 C879 1.409 1_455 S
C873 H865 0.930 . S
C873 C871 1.419 . S
C873 C874 1.362 . S
C874 H866 0.930 . S
C874 C873 1.362 . S
C874 C877 1.409 . S
C875 H867 0.930 . S
C875 C876 1.355 1_455 S
C875 C877 1.415 . S
C876 C875 1.355 1_655 S
C876 C878 1.419 . S
C877 C872 1.425 . S
C877 C874 1.409 . S
C877 C875 1.415 . S
C878 H868 0.930 . S
C878 C876 1.419 . S
C878 C879 1.362 . S
C879 H869 0.930 . S
C879 C872 1.409 1_655 S
C879 C878 1.362 . S
H880 C886 0.930 . S
H881 C889 0.930 . S
H882 C890 0.930 . S
H883 C891 0.930 . S
H884 C894 0.930 . S
H885 C895 0.930 . S
C886 H880 0.930 . S
C886 C887 1.355 . S
C886 C888 1.415 . S
C887 C886 1.355 . S
C887 C889 1.419 . S
C888 C886 1.415 . S
C888 C893 1.425 . S
C888 C895 1.409 . S
C889 H881 0.930 . S
C889 C887 1.419 . S
C889 C890 1.362 . S
C890 H882 0.930 . S
C890 C889 1.362 . S
C890 C893 1.409 . S
C891 H883 0.930 . S
C891 C892 1.355 . S
C891 C893 1.415 . S
C892 C891 1.355 . S
C892 C894 1.419 . S
C893 C888 1.425 . S
C893 C890 1.409 . S
C893 C891 1.415 . S
C894 H884 0.930 . S
C894 C892 1.419 . S
C894 C895 1.362 . S
C895 H885 0.930 . S
C895 C888 1.409 . S
C895 C894 1.362 . S
H896 C902 0.930 . S
H897 C905 0.930 . S
H898 C906 0.930 . S
H899 C907 0.930 . S
H900 C910 0.930 . S
H901 C911 0.930 . S
C902 H896 0.930 . S
C902 C903 1.355 1_655 S
C902 C904 1.415 . S
C903 C902 1.355 1_455 S
C903 C905 1.419 . S
C904 C902 1.415 . S
C904 C909 1.425 . S
C904 C911 1.409 . S
C905 H897 0.930 . S
C905 C903 1.419 . S
C905 C906 1.362 . S
C906 H898 0.930 . S
C906 C905 1.362 . S
C906 C909 1.409 1_455 S
C907 H899 0.930 . S
C907 C908 1.355 . S
C907 C909 1.415 . S
C908 C907 1.355 . S
C908 C910 1.419 . S
C909 C904 1.425 . S
C909 C906 1.409 1_655 S
C909 C907 1.415 . S
C910 H900 0.930 . S
C910 C908 1.419 . S
C910 C911 1.362 . S
C911 H901 0.930 . S
C911 C904 1.409 . S
C911 C910 1.362 . S
H912 C918 0.930 . S
H913 C921 0.930 . S
H914 C922 0.930 . S
H915 C923 0.930 . S
H916 C926 0.930 1_545 S
H917 C927 0.930 . S
C918 H912 0.930 . S
C918 C919 1.355 . S
C918 C920 1.415 . S
C919 C918 1.355 . S
C919 C921 1.419 . S
C920 C918 1.415 . S
C920 C925 1.425 . S
C920 C927 1.409 . S
C921 H913 0.930 . S
C921 C919 1.419 . S
C921 C922 1.362 . S
C922 H914 0.930 . S
C922 C921 1.362 . S
C922 C925 1.409 . S
C923 H915 0.930 . S
C923 C924 1.355 . S
C923 C925 1.415 . S
C924 C923 1.355 . S
C924 C926 1.419 . S
C925 C920 1.425 . S
C925 C922 1.409 . S
C925 C923 1.415 . S
C926 H916 0.930 1_565 S
C926 C924 1.419 . S
C926 C927 1.362 . S
C927 H917 0.930 . S
C927 C920 1.409 . S
C927 C926 1.362 . S
H928 C934 0.930 . S
H929 C937 0.930 . S
H930 C938 0.930 . S
H931 C939 0.930 . S
H932 C942 0.930 . S
H933 C943 0.930 . S
C934 H928 0.930 . S
C934 C935 1.355 . S
C934 C936 1.415 1_455 S
C935 C934 1.355 . S
C935 C937 1.419 1_455 S
C936 C934 1.415 1_655 S
C936 C941 1.425 . S
C936 C943 1.409 1_655 S
C937 H929 0.930 . S
C937 C935 1.419 1_655 S
C937 C938 1.362 . S
C938 H930 0.930 . S
C938 C937 1.362 . S
C938 C941 1.409 . S
C939 H931 0.930 . S
C939 C940 1.355 . S
C939 C941 1.415 . S
C940 C939 1.355 . S
C940 C942 1.419 . S
C941 C936 1.425 . S
C941 C938 1.409 . S
C941 C939 1.415 . S
C942 H932 0.930 . S
C942 C940 1.419 . S
C942 C943 1.362 1_655 S
C943 H933 0.930 . S
C943 C936 1.409 1_455 S
C943 C942 1.362 1_455 S
H944 C950 0.930 . S
H945 C953 0.930 . S
H946 C954 0.930 . S
H947 C955 0.930 . S
H948 C958 0.930 . S
H949 C959 0.930 . S
C950 H944 0.930 . S
C950 C951 1.355 . S
C950 C952 1.415 . S
C951 C950 1.355 . S
C951 C953 1.419 . S
C952 C950 1.415 . S
C952 C957 1.425 . S
C952 C959 1.409 . S
C953 H945 0.930 . S
C953 C951 1.419 . S
C953 C954 1.362 . S
C954 H946 0.930 . S
C954 C953 1.362 . S
C954 C957 1.409 . S
C955 H947 0.930 . S
C955 C956 1.355 . S
C955 C957 1.415 . S
C956 C955 1.355 . S
C956 C958 1.419 . S
C957 C952 1.425 . S
C957 C954 1.409 . S
C957 C955 1.415 . S
C958 H948 0.930 . S
C958 C956 1.419 . S
C958 C959 1.362 . S
C959 H949 0.930 . S
C959 C952 1.409 . S
C959 C958 1.362 . S
H960 C966 0.930 . S
H961 C969 0.930 1_565 S
H962 C970 0.922 1_655 S
H963 C971 0.930 . S
H964 C974 0.930 . S
H965 C975 0.930 . S
C966 H960 0.930 . S
C966 C967 1.355 . S
C966 C968 1.415 . S
C967 C966 1.355 . S
C967 C969 1.419 . S
C968 C966 1.415 . S
C968 C973 1.425 . S
C968 C975 1.409 . S
C969 H961 0.930 1_545 S
C969 C967 1.419 . S
C969 C970 1.369 . S
C970 H962 0.922 1_455 S
C970 C969 1.369 . S
C970 C973 1.410 . S
C971 H963 0.930 . S
C971 C972 1.355 . S
C971 C973 1.415 1_655 S
C972 C971 1.355 . S
C972 C974 1.419 1_655 S
C973 C968 1.425 . S
C973 C970 1.410 . S
C973 C971 1.415 1_455 S
C974 H964 0.930 . S
C974 C972 1.419 1_455 S
C974 C975 1.362 . S
C975 H965 0.930 . S
C975 C968 1.409 . S
C975 C974 1.362 . S
H976 C982 0.930 . S
H977 C985 0.930 . S
H978 C986 0.930 . S
H979 C987 0.930 . S
H980 C990 0.930 . S
H981 C991 0.930 . S
C982 H976 0.930 . S
C982 C983 1.355 . S
C982 C984 1.415 . S
C983 C982 1.355 . S
C983 C985 1.419 . S
C984 C982 1.415 . S
C984 C989 1.425 . S
C984 C991 1.409 . S
C985 H977 0.930 . S
C985 C983 1.419 . S
C985 C986 1.362 . S
C986 H978 0.930 . S
C986 C985 1.362 . S
C986 C989 1.409 . S
C987 H979 0.930 . S
C987 C988 1.355 . S
C987 C989 1.415 . S
C988 C987 1.355 . S
C988 C990 1.419 . S
C989 C984 1.425 . S
C989 C986 1.409 . S
C989 C987 1.415 . S
C990 H980 0.930 . S
C990 C988 1.419 . S
C990 C991 1.362 . S
C991 H981 0.930 . S
C991 C984 1.409 . S
C991 C990 1.362 . S
H992 C998 0.930 . S
H993 C1001 0.930 . S
H994 C1002 0.930 . S
H995 C1003 0.930 . S
H996 C1006 0.930 . S
H997 C1007 0.930 1_655 S
C998 H992 0.930 . S
C998 C999 1.355 . S
C998 C1000 1.415 1_655 S
C999 C998 1.355 . S
C999 C1001 1.419 1_655 S
C1000 C998 1.415 1_455 S
C1000 C1005 1.425 . S
C1000 C1007 1.409 . S
C1001 H993 0.930 . S
C1001 C999 1.419 1_455 S
C1001 C1002 1.362 . S
C1002 H994 0.930 . S
C1002 C1001 1.362 . S
C1002 C1005 1.409 . S
C1003 H995 0.930 . S
C1003 C1004 1.355 . S
C1003 C1005 1.415 . S
C1004 C1003 1.355 . S
C1004 C1006 1.419 . S
C1005 C1000 1.425 . S
C1005 C1002 1.409 . S
C1005 C1003 1.415 . S
C1006 H996 0.930 . S
C1006 C1004 1.419 . S
C1006 C1007 1.362 . S
C1007 H997 0.930 1_455 S
C1007 C1000 1.409 . S
C1007 C1006 1.362 . S
H1008 C1014 0.930 . S
H1009 C1017 0.930 . S
H1010 C1018 0.930 . S
H1011 C1019 0.930 . S
H1012 C1022 0.930 . S
H1013 C1023 0.930 . S
C1014 H1008 0.930 . S
C1014 C1015 1.355 . S
C1014 C1016 1.415 . S
C1015 C1014 1.355 . S
C1015 C1017 1.419 . S
C1016 C1014 1.415 . S
C1016 C1021 1.425 . S
C1016 C1023 1.409 . S
C1017 H1009 0.930 . S
C1017 C1015 1.419 . S
C1017 C1018 1.362 . S
C1018 H1010 0.930 . S
C1018 C1017 1.362 . S
C1018 C1021 1.409 . S
C1019 H1011 0.930 . S
C1019 C1020 1.355 . S
C1019 C1021 1.415 . S
C1020 C1019 1.355 . S
C1020 C1022 1.419 . S
C1021 C1016 1.425 . S
C1021 C1018 1.409 . S
C1021 C1019 1.415 . S
C1022 H1012 0.930 . S
C1022 C1020 1.419 . S
C1022 C1023 1.362 . S
C1023 H1013 0.930 . S
C1023 C1016 1.409 . S
C1023 C1022 1.362 . S
H1024 C1030 0.930 . S
H1025 C1033 0.930 . S
H1026 C1034 0.930 1_455 S
H1027 C1035 0.930 . S
H1028 C1038 0.930 . S
H1029 C1039 0.928 1_665 S
C1030 H1024 0.930 . S
C1030 C1031 1.355 . S
C1030 C1032 1.415 . S
C1031 C1030 1.355 . S
C1031 C1033 1.419 . S
C1032 C1030 1.415 . S
C1032 C1037 1.425 1_655 S
C1032 C1039 1.408 1_655 S
C1033 H1025 0.930 . S
C1033 C1031 1.419 . S
C1033 C1034 1.362 . S
C1034 H1026 0.930 1_655 S
C1034 C1033 1.362 . S
C1034 C1037 1.409 1_655 S
C1035 H1027 0.930 . S
C1035 C1036 1.355 . S
C1035 C1037 1.415 . S
C1036 C1035 1.355 . S
C1036 C1038 1.419 . S
C1037 C1032 1.425 1_455 S
C1037 C1034 1.409 1_455 S
C1037 C1035 1.415 . S
C1038 H1028 0.930 . S
C1038 C1036 1.419 . S
C1038 C1039 1.366 . S
C1039 H1029 0.928 1_445 S
C1039 C1032 1.408 1_455 S
C1039 C1038 1.366 . S
H1040 C1046 0.930 . S
H1041 C1049 0.930 . S
H1042 C1050 0.930 . S
H1043 C1051 0.930 . S
H1044 C1054 0.930 . S
H1045 C1055 0.930 . S
C1046 H1040 0.930 . S
C1046 C1047 1.355 . S
C1046 C1048 1.415 . S
C1047 C1046 1.355 . S
C1047 C1049 1.419 . S
C1048 C1046 1.415 . S
C1048 C1053 1.425 . S
C1048 C1055 1.409 . S
C1049 H1041 0.930 . S
C1049 C1047 1.419 . S
C1049 C1050 1.362 . S
C1050 H1042 0.930 . S
C1050 C1049 1.362 . S
C1050 C1053 1.409 . S
C1051 H1043 0.930 . S
C1051 C1052 1.355 . S
C1051 C1053 1.415 . S
C1052 C1051 1.355 . S
C1052 C1054 1.419 . S
C1053 C1048 1.425 . S
C1053 C1050 1.409 . S
C1053 C1051 1.415 . S
C1054 H1044 0.930 . S
C1054 C1052 1.419 . S
C1054 C1055 1.362 . S
C1055 H1045 0.930 . S
C1055 C1048 1.409 . S
C1055 C1054 1.362 . S
H1056 C1062 0.930 1_455 S
H1057 C1065 0.930 . S
H1058 C1066 0.930 . S
H1059 C1067 0.930 1_655 S
H1060 C1070 0.930 . S
H1061 C1071 0.930 . S
C1062 H1056 0.930 1_655 S
C1062 C1063 1.355 . S
C1062 C1064 1.415 1_655 S
C1063 C1062 1.355 . S
C1063 C1065 1.419 . S
C1064 C1062 1.415 1_455 S
C1064 C1069 1.425 1_455 S
C1064 C1071 1.409 . S
C1065 H1057 0.930 . S
C1065 C1063 1.419 . S
C1065 C1066 1.362 . S
C1066 H1058 0.930 . S
C1066 C1065 1.362 . S
C1066 C1069 1.409 . S
C1067 H1059 0.930 1_455 S
C1067 C1068 1.355 . S
C1067 C1069 1.415 1_455 S
C1068 C1067 1.355 . S
C1068 C1070 1.419 . S
C1069 C1064 1.425 1_655 S
C1069 C1066 1.409 . S
C1069 C1067 1.415 1_655 S
C1070 H1060 0.930 . S
C1070 C1068 1.419 . S
C1070 C1071 1.362 . S
C1071 H1061 0.930 . S
C1071 C1064 1.409 . S
C1071 C1070 1.362 . S
H1072 C1078 0.930 . S
H1073 C1081 0.930 . S
H1074 C1082 0.930 . S
H1075 C1083 0.930 . S
H1076 C1086 0.930 . S
H1077 C1087 0.930 . S
C1078 H1072 0.930 . S
C1078 C1079 1.355 . S
C1078 C1080 1.415 . S
C1079 C1078 1.355 . S
C1079 C1081 1.419 . S
C1080 C1078 1.415 . S
C1080 C1085 1.425 . S
C1080 C1087 1.409 . S
C1081 H1073 0.930 . S
C1081 C1079 1.419 . S
C1081 C1082 1.362 . S
C1082 H1074 0.930 . S
C1082 C1081 1.362 . S
C1082 C1085 1.409 . S
C1083 H1075 0.930 . S
C1083 C1084 1.355 . S
C1083 C1085 1.415 . S
C1084 C1083 1.355 . S
C1084 C1086 1.419 . S
C1085 C1080 1.425 . S
C1085 C1082 1.409 . S
C1085 C1083 1.415 . S
C1086 H1076 0.930 . S
C1086 C1084 1.419 . S
C1086 C1087 1.362 . S
C1087 H1077 0.930 . S
C1087 C1080 1.409 . S
C1087 C1086 1.362 . S
H1088 C1094 0.930 . S
H1089 C1097 0.930 . S
H1090 C1098 0.930 1_545 S
H1091 C1099 0.930 . S
H1092 C1102 0.930 . S
H1093 C1103 0.930 . S
C1094 H1088 0.930 . S
C1094 C1095 1.355 . S
C1094 C1096 1.415 1_655 S
C1095 C1094 1.355 . S
C1095 C1097 1.419 . S
C1096 C1094 1.415 1_455 S
C1096 C1101 1.425 . S
C1096 C1103 1.409 . S
C1097 H1089 0.930 . S
C1097 C1095 1.419 . S
C1097 C1098 1.362 . S
C1098 H1090 0.930 1_565 S
C1098 C1097 1.362 . S
C1098 C1101 1.409 1_655 S
C1099 H1091 0.930 . S
C1099 C1100 1.355 . S
C1099 C1101 1.415 . S
C1100 C1099 1.355 . S
C1100 C1102 1.419 . S
C1101 C1096 1.425 . S
C1101 C1098 1.409 1_455 S
C1101 C1099 1.415 . S
C1102 H1092 0.930 . S
C1102 C1100 1.419 . S
C1102 C1103 1.362 . S
C1103 H1093 0.930 . S
C1103 C1096 1.409 . S
C1103 C1102 1.362 . S
H1104 C1110 0.930 . S
H1105 C1113 0.930 . S
H1106 C1114 0.930 . S
H1107 C1115 0.930 . S
H1108 C1118 0.930 . S
H1109 C1119 0.930 . S
C1110 H1104 0.930 . S
C1110 C1111 1.355 . S
C1110 C1112 1.415 . S
C1111 C1110 1.355 . S
C1111 C1113 1.419 . S
C1112 C1110 1.415 . S
C1112 C1117 1.425 . S
C1112 C1119 1.409 . S
C1113 H1105 0.930 . S
C1113 C1111 1.419 . S
C1113 C1114 1.362 . S
C1114 H1106 0.930 . S
C1114 C1113 1.362 . S
C1114 C1117 1.409 . S
C1115 H1107 0.930 . S
C1115 C1116 1.355 . S
C1115 C1117 1.415 . S
C1116 C1115 1.355 . S
C1116 C1118 1.419 . S
C1117 C1112 1.425 . S
C1117 C1114 1.409 . S
C1117 C1115 1.415 . S
C1118 H1108 0.930 . S
C1118 C1116 1.419 . S
C1118 C1119 1.362 . S
C1119 H1109 0.930 . S
C1119 C1112 1.409 . S
C1119 C1118 1.362 . S
H1120 C1126 0.930 . S
H1121 C1129 0.930 . S
H1122 C1130 0.930 . S
H1123 C1131 0.930 . S
H1124 C1134 0.930 . S
H1125 C1135 0.930 . S
C1126 H1120 0.930 . S
C1126 C1127 1.355 . S
C1126 C1128 1.415 . S
C1127 C1126 1.355 . S
C1127 C1129 1.419 . S
C1128 C1126 1.415 . S
C1128 C1133 1.425 1_655 S
C1128 C1135 1.409 . S
C1129 H1121 0.930 . S
C1129 C1127 1.419 . S
C1129 C1130 1.362 1_655 S
C1130 H1122 0.930 . S
C1130 C1129 1.362 1_455 S
C1130 C1133 1.409 . S
C1131 H1123 0.930 . S
C1131 C1132 1.355 . S
C1131 C1133 1.415 . S
C1132 C1131 1.355 . S
C1132 C1134 1.419 . S
C1133 C1128 1.425 1_455 S
C1133 C1130 1.409 . S
C1133 C1131 1.415 . S
C1134 H1124 0.930 . S
C1134 C1132 1.419 . S
C1134 C1135 1.362 1_455 S
C1135 H1125 0.930 . S
C1135 C1128 1.409 . S
C1135 C1134 1.362 1_655 S
H1136 C1142 0.930 . S
H1137 C1145 0.930 . S
H1138 C1146 0.930 . S
H1139 C1147 0.930 . S
H1140 C1150 0.930 . S
H1141 C1151 0.930 . S
C1142 H1136 0.930 . S
C1142 C1143 1.355 . S
C1142 C1144 1.415 . S
C1143 C1142 1.355 . S
C1143 C1145 1.419 . S
C1144 C1142 1.415 . S
C1144 C1149 1.425 . S
C1144 C1151 1.409 . S
C1145 H1137 0.930 . S
C1145 C1143 1.419 . S
C1145 C1146 1.362 . S
C1146 H1138 0.930 . S
C1146 C1145 1.362 . S
C1146 C1149 1.409 . S
C1147 H1139 0.930 . S
C1147 C1148 1.355 . S
C1147 C1149 1.415 . S
C1148 C1147 1.355 . S
C1148 C1150 1.419 . S
C1149 C1144 1.425 . S
C1149 C1146 1.409 . S
C1149 C1147 1.415 . S
C1150 H1140 0.930 . S
C1150 C1148 1.419 . S
C1150 C1151 1.362 . S
C1151 H1141 0.930 . S
C1151 C1144 1.409 . S
C1151 C1150 1.362 . S
H1152 C1158 0.930 . S
H1153 C1161 0.930 1_655 S
H1154 C1162 0.930 . S
H1155 C1163 0.930 . S
H1156 C1166 0.930 . S
H1157 C1167 0.930 . S
C1158 H1152 0.930 . S
C1158 C1159 1.355 . S
C1158 C1160 1.415 . S
C1159 C1158 1.355 . S
C1159 C1161 1.419 . S
C1160 C1158 1.415 . S
C1160 C1165 1.425 1_455 S
C1160 C1167 1.409 . S
C1161 H1153 0.930 1_455 S
C1161 C1159 1.419 . S
C1161 C1162 1.362 1_455 S
C1162 H1154 0.930 . S
C1162 C1161 1.362 1_655 S
C1162 C1165 1.409 . S
C1163 H1155 0.930 . S
C1163 C1164 1.355 . S
C1163 C1165 1.415 . S
C1164 C1163 1.355 . S
C1164 C1166 1.419 . S
C1165 C1160 1.425 1_655 S
C1165 C1162 1.409 . S
C1165 C1163 1.415 . S
C1166 H1156 0.930 . S
C1166 C1164 1.419 . S
C1166 C1167 1.362 1_655 S
C1167 H1157 0.930 . S
C1167 C1160 1.409 . S
C1167 C1166 1.362 1_455 S
H1168 C1174 0.930 . S
H1169 C1177 0.930 . S
H1170 C1178 0.930 . S
H1171 C1179 0.930 . S
H1172 C1182 0.930 . S
H1173 C1183 0.930 . S
C1174 H1168 0.930 . S
C1174 C1175 1.355 . S
C1174 C1176 1.415 . S
C1175 C1174 1.355 . S
C1175 C1177 1.419 . S
C1176 C1174 1.415 . S
C1176 C1181 1.425 . S
C1176 C1183 1.409 . S
C1177 H1169 0.930 . S
C1177 C1175 1.419 . S
C1177 C1178 1.362 . S
C1178 H1170 0.930 . S
C1178 C1177 1.362 . S
C1178 C1181 1.409 . S
C1179 H1171 0.930 . S
C1179 C1180 1.355 . S
C1179 C1181 1.415 . S
C1180 C1179 1.355 . S
C1180 C1182 1.419 . S
C1181 C1176 1.425 . S
C1181 C1178 1.409 . S
C1181 C1179 1.415 . S
C1182 H1172 0.930 . S
C1182 C1180 1.419 . S
C1182 C1183 1.362 . S
C1183 H1173 0.930 . S
C1183 C1176 1.409 . S
C1183 C1182 1.362 . S
H1184 C1190 0.930 . S
H1185 C1193 0.930 . S
H1186 C1194 0.930 . S
H1187 C1195 0.930 . S
H1188 C1198 0.930 . S
H1189 C1199 0.930 . S
C1190 H1184 0.930 . S
C1190 C1191 1.355 . S
C1190 C1192 1.415 . S
C1191 C1190 1.355 . S
C1191 C1193 1.419 . S
C1192 C1190 1.415 . S
C1192 C1197 1.425 1_655 S
C1192 C1199 1.409 . S
C1193 H1185 0.930 . S
C1193 C1191 1.419 . S
C1193 C1194 1.362 1_655 S
C1194 H1186 0.930 . S
C1194 C1193 1.362 1_455 S
C1194 C1197 1.409 . S
C1195 H1187 0.930 . S
C1195 C1196 1.355 . S
C1195 C1197 1.415 . S
C1196 C1195 1.355 . S
C1196 C1198 1.419 . S
C1197 C1192 1.425 1_455 S
C1197 C1194 1.409 . S
C1197 C1195 1.415 . S
C1198 H1188 0.930 . S
C1198 C1196 1.419 . S
C1198 C1199 1.362 1_455 S
C1199 H1189 0.930 . S
C1199 C1192 1.409 . S
C1199 C1198 1.362 1_655 S
H1200 C1206 0.930 . S
H1201 C1209 0.930 . S
H1202 C1210 0.930 . S
H1203 C1211 0.930 . S
H1204 C1214 0.930 . S
H1205 C1215 0.930 . S
C1206 H1200 0.930 . S
C1206 C1207 1.355 . S
C1206 C1208 1.415 . S
C1207 C1206 1.355 . S
C1207 C1209 1.419 . S
C1208 C1206 1.415 . S
C1208 C1213 1.425 . S
C1208 C1215 1.409 . S
C1209 H1201 0.930 . S
C1209 C1207 1.419 . S
C1209 C1210 1.362 . S
C1210 H1202 0.930 . S
C1210 C1209 1.362 . S
C1210 C1213 1.409 . S
C1211 H1203 0.930 . S
C1211 C1212 1.355 . S
C1211 C1213 1.415 . S
C1212 C1211 1.355 . S
C1212 C1214 1.419 . S
C1213 C1208 1.425 . S
C1213 C1210 1.409 . S
C1213 C1211 1.415 . S
C1214 H1204 0.930 . S
C1214 C1212 1.419 . S
C1214 C1215 1.362 . S
C1215 H1205 0.930 . S
C1215 C1208 1.409 . S
C1215 C1214 1.362 . S
H1216 C1222 0.930 . S
H1217 C1225 0.930 . S
H1218 C1226 0.930 1_655 S
H1219 C1227 0.930 . S
H1220 C1230 0.930 . S
H1221 C1231 0.930 1_455 S
C1222 H1216 0.930 . S
C1222 C1223 1.355 . S
C1222 C1224 1.415 . S
C1223 C1222 1.355 . S
C1223 C1225 1.419 . S
C1224 C1222 1.415 . S
C1224 C1229 1.425 1_455 S
C1224 C1231 1.409 1_455 S
C1225 H1217 0.930 . S
C1225 C1223 1.419 . S
C1225 C1226 1.362 . S
C1226 H1218 0.930 1_455 S
C1226 C1225 1.362 . S
C1226 C1229 1.409 1_455 S
C1227 H1219 0.930 . S
C1227 C1228 1.355 . S
C1227 C1229 1.415 . S
C1228 C1227 1.355 . S
C1228 C1230 1.419 . S
C1229 C1224 1.425 1_655 S
C1229 C1226 1.409 1_655 S
C1229 C1227 1.415 . S
C1230 H1220 0.930 . S
C1230 C1228 1.419 . S
C1230 C1231 1.362 . S
C1231 H1221 0.930 1_655 S
C1231 C1224 1.409 1_655 S
C1231 C1230 1.362 . S
H1232 C1238 0.930 . S
H1233 C1241 0.930 . S
H1234 C1242 0.930 . S
H1235 C1243 0.930 . S
H1236 C1246 0.930 . S
H1237 C1247 0.930 . S
C1238 H1232 0.930 . S
C1238 C1239 1.355 . S
C1238 C1240 1.415 . S
C1239 C1238 1.355 . S
C1239 C1241 1.419 . S
C1240 C1238 1.415 . S
C1240 C1245 1.425 . S
C1240 C1247 1.409 . S
C1241 H1233 0.930 . S
C1241 C1239 1.419 . S
C1241 C1242 1.362 . S
C1242 H1234 0.930 . S
C1242 C1241 1.362 . S
C1242 C1245 1.409 . S
C1243 H1235 0.930 . S
C1243 C1244 1.355 . S
C1243 C1245 1.415 . S
C1244 C1243 1.355 . S
C1244 C1246 1.419 . S
C1245 C1240 1.425 . S
C1245 C1242 1.409 . S
C1245 C1243 1.415 . S
C1246 H1236 0.930 . S
C1246 C1244 1.419 . S
C1246 C1247 1.362 . S
C1247 H1237 0.930 . S
C1247 C1240 1.409 . S
C1247 C1246 1.362 . S
H1248 C1254 0.930 1_655 S
H1249 C1257 0.930 . S
H1250 C1258 0.930 . S
H1251 C1259 0.930 1_455 S
H1252 C1262 0.930 . S
H1253 C1263 0.930 . S
C1254 H1248 0.930 1_455 S
C1254 C1255 1.355 . S
C1254 C1256 1.415 1_455 S
C1255 C1254 1.355 . S
C1255 C1257 1.419 . S
C1256 C1254 1.415 1_655 S
C1256 C1261 1.425 1_655 S
C1256 C1263 1.409 . S
C1257 H1249 0.930 . S
C1257 C1255 1.419 . S
C1257 C1258 1.362 . S
C1258 H1250 0.930 . S
C1258 C1257 1.362 . S
C1258 C1261 1.409 . S
C1259 H1251 0.930 1_655 S
C1259 C1260 1.355 . S
C1259 C1261 1.415 1_655 S
C1260 C1259 1.355 . S
C1260 C1262 1.419 . S
C1261 C1256 1.425 1_455 S
C1261 C1258 1.409 . S
C1261 C1259 1.415 1_455 S
C1262 H1252 0.930 . S
C1262 C1260 1.419 . S
C1262 C1263 1.362 . S
C1263 H1253 0.930 . S
C1263 C1256 1.409 . S
C1263 C1262 1.362 . S
H1264 C1270 0.930 . S
H1265 C1273 0.930 . S
H1266 C1274 0.930 . S
H1267 C1275 0.930 . S
H1268 C1278 0.930 . S
H1269 C1279 0.930 . S
C1270 H1264 0.930 . S
C1270 C1271 1.355 . S
C1270 C1272 1.415 . S
C1271 C1270 1.355 . S
C1271 C1273 1.419 . S
C1272 C1270 1.415 . S
C1272 C1277 1.425 . S
C1272 C1279 1.409 . S
C1273 H1265 0.930 . S
C1273 C1271 1.419 . S
C1273 C1274 1.362 . S
C1274 H1266 0.930 . S
C1274 C1273 1.362 . S
C1274 C1277 1.409 . S
C1275 H1267 0.930 . S
C1275 C1276 1.355 . S
C1275 C1277 1.415 . S
C1276 C1275 1.355 . S
C1276 C1278 1.419 . S
C1277 C1272 1.425 . S
C1277 C1274 1.409 . S
C1277 C1275 1.415 . S
C1278 H1268 0.930 . S
C1278 C1276 1.419 . S
C1278 C1279 1.362 . S
C1279 H1269 0.930 . S
C1279 C1272 1.409 . S
C1279 C1278 1.362 . S
H1280 C1286 0.930 . S
H1281 C1289 0.930 . S
H1282 C1290 0.930 . S
H1283 C1291 0.930 . S
H1284 C1294 0.930 . S
H1285 C1295 0.930 . S
C1286 H1280 0.930 . S
C1286 C1287 1.355 1_455 S
C1286 C1288 1.415 1_565 S
C1287 C1286 1.355 1_655 S
C1287 C1289 1.419 . S
C1288 C1286 1.415 1_545 S
C1288 C1293 1.425 1_445 S
C1288 C1295 1.409 . S
C1289 H1281 0.930 . S
C1289 C1287 1.419 . S
C1289 C1290 1.362 . S
C1290 H1282 0.930 . S
C1290 C1289 1.362 . S
C1290 C1293 1.409 . S
C1291 H1283 0.930 . S
C1291 C1292 1.355 1_655 S
C1291 C1293 1.415 1_545 S
C1292 C1291 1.355 1_455 S
C1292 C1294 1.419 . S
C1293 C1288 1.425 1_665 S
C1293 C1290 1.409 . S
C1293 C1291 1.415 1_565 S
C1294 H1284 0.930 . S
C1294 C1292 1.419 . S
C1294 C1295 1.362 . S
C1295 H1285 0.930 . S
C1295 C1288 1.409 . S
C1295 C1294 1.362 . S
H1296 C1302 0.930 . S
H1297 C1305 0.930 1_545 S
H1298 C1306 0.930 . S
H1299 C1307 0.930 . S
H1300 C1310 0.930 1_565 S
H1301 C1311 0.930 . S
C1302 H1296 0.930 . S
C1302 C1303 1.355 . S
C1302 C1304 1.415 . S
C1303 C1302 1.355 . S
C1303 C1305 1.419 . S
C1304 C1302 1.415 . S
C1304 C1309 1.425 1_565 S
C1304 C1311 1.409 . S
C1305 H1297 0.930 1_565 S
C1305 C1303 1.419 . S
C1305 C1306 1.362 1_565 S
C1306 H1298 0.930 . S
C1306 C1305 1.362 1_545 S
C1306 C1309 1.409 . S
C1307 H1299 0.930 . S
C1307 C1308 1.355 . S
C1307 C1309 1.415 . S
C1308 C1307 1.355 . S
C1308 C1310 1.419 . S
C1309 C1304 1.425 1_545 S
C1309 C1306 1.409 . S
C1309 C1307 1.415 . S
C1310 H1300 0.930 1_545 S
C1310 C1308 1.419 . S
C1310 C1311 1.362 1_545 S
C1311 H1301 0.930 . S
C1311 C1304 1.409 . S
C1311 C1310 1.362 1_565 S
H1312 C1318 0.930 1_655 S
H1313 C1321 0.930 . S
H1314 C1322 0.930 . S
H1315 C1323 0.930 1_455 S
H1316 C1326 0.930 . S
H1317 C1327 0.930 . S
C1318 H1312 0.930 1_455 S
C1318 C1319 1.355 . S
C1318 C1320 1.415 1_455 S
C1319 C1318 1.355 . S
C1319 C1321 1.419 . S
C1320 C1318 1.415 1_655 S
C1320 C1325 1.425 1_655 S
C1320 C1327 1.409 . S
C1321 H1313 0.930 . S
C1321 C1319 1.419 . S
C1321 C1322 1.362 . S
C1322 H1314 0.930 . S
C1322 C1321 1.362 . S
C1322 C1325 1.409 . S
C1323 H1315 0.930 1_655 S
C1323 C1324 1.355 . S
C1323 C1325 1.415 1_655 S
C1324 C1323 1.355 . S
C1324 C1326 1.419 . S
C1325 C1320 1.425 1_455 S
C1325 C1322 1.409 . S
C1325 C1323 1.415 1_455 S
C1326 H1316 0.930 . S
C1326 C1324 1.419 . S
C1326 C1327 1.362 . S
C1327 H1317 0.930 . S
C1327 C1320 1.409 . S
C1327 C1326 1.362 . S
H1328 C1334 0.930 . S
H1329 C1337 0.930 . S
H1330 C1338 0.930 . S
H1331 C1339 0.930 . S
H1332 C1342 0.930 . S
H1333 C1343 0.930 . S
C1334 H1328 0.930 . S
C1334 C1335 1.355 . S
C1334 C1336 1.415 . S
C1335 C1334 1.355 . S
C1335 C1337 1.419 . S
C1336 C1334 1.415 . S
C1336 C1341 1.425 . S
C1336 C1343 1.409 . S
C1337 H1329 0.930 . S
C1337 C1335 1.419 . S
C1337 C1338 1.362 . S
C1338 H1330 0.930 . S
C1338 C1337 1.362 . S
C1338 C1341 1.409 . S
C1339 H1331 0.930 . S
C1339 C1340 1.355 . S
C1339 C1341 1.415 . S
C1340 C1339 1.355 . S
C1340 C1342 1.419 . S
C1341 C1336 1.425 . S
C1341 C1338 1.409 . S
C1341 C1339 1.415 . S
C1342 H1332 0.930 . S
C1342 C1340 1.419 . S
C1342 C1343 1.362 . S
C1343 H1333 0.930 . S
C1343 C1336 1.409 . S
C1343 C1342 1.362 . S
H1344 C1350 0.930 1_545 S
H1345 C1353 0.930 . S
H1346 C1354 0.930 . S
H1347 C1355 0.930 1_565 S
H1348 C1358 0.930 . S
H1349 C1359 0.930 . S
C1350 H1344 0.930 1_565 S
C1350 C1351 1.355 . S
C1350 C1352 1.415 1_565 S
C1351 C1350 1.355 . S
C1351 C1353 1.419 . S
C1352 C1350 1.415 1_545 S
C1352 C1357 1.425 1_545 S
C1352 C1359 1.409 . S
C1353 H1345 0.930 . S
C1353 C1351 1.419 . S
C1353 C1354 1.362 . S
C1354 H1346 0.930 . S
C1354 C1353 1.362 . S
C1354 C1357 1.409 . S
C1355 H1347 0.930 1_545 S
C1355 C1356 1.355 . S
C1355 C1357 1.415 1_545 S
C1356 C1355 1.355 . S
C1356 C1358 1.419 . S
C1357 C1352 1.425 1_565 S
C1357 C1354 1.409 . S
C1357 C1355 1.415 1_565 S
C1358 H1348 0.930 . S
C1358 C1356 1.419 . S
C1358 C1359 1.362 . S
C1359 H1349 0.930 . S
C1359 C1352 1.409 . S
C1359 C1358 1.362 . S
H1360 C1366 0.930 . S
H1361 C1369 0.930 . S
H1362 C1370 0.930 . S
H1363 C1371 0.930 . S
H1364 C1374 0.930 . S
H1365 C1375 0.930 . S
C1366 H1360 0.930 . S
C1366 C1367 1.355 . S
C1366 C1368 1.415 . S
C1367 C1366 1.355 . S
C1367 C1369 1.419 1_455 S
C1368 C1366 1.415 . S
C1368 C1373 1.425 1_455 S
C1368 C1375 1.409 . S
C1369 H1361 0.930 . S
C1369 C1367 1.419 1_655 S
C1369 C1370 1.362 . S
C1370 H1362 0.930 . S
C1370 C1369 1.362 . S
C1370 C1373 1.409 . S
C1371 H1363 0.930 . S
C1371 C1372 1.355 . S
C1371 C1373 1.415 . S
C1372 C1371 1.355 . S
C1372 C1374 1.419 1_655 S
C1373 C1368 1.425 1_655 S
C1373 C1370 1.409 . S
C1373 C1371 1.415 . S
C1374 H1364 0.930 . S
C1374 C1372 1.419 1_455 S
C1374 C1375 1.362 . S
C1375 H1365 0.930 . S
C1375 C1368 1.409 . S
C1375 C1374 1.362 . S
H1376 C1382 0.930 . S
H1377 C1385 0.930 . S
H1378 C1386 0.930 . S
H1379 C1387 0.930 . S
H1380 C1390 0.930 . S
H1381 C1391 0.930 . S
C1382 H1376 0.930 . S
C1382 C1383 1.355 . S
C1382 C1384 1.415 . S
C1383 C1382 1.355 . S
C1383 C1385 1.419 . S
C1384 C1382 1.415 . S
C1384 C1389 1.425 1_554 S
C1384 C1391 1.409 1_554 S
C1385 H1377 0.930 . S
C1385 C1383 1.419 . S
C1385 C1386 1.362 . S
C1386 H1378 0.930 . S
C1386 C1385 1.362 . S
C1386 C1389 1.409 1_554 S
C1387 H1379 0.930 . S
C1387 C1388 1.355 . S
C1387 C1389 1.415 . S
C1388 C1387 1.355 . S
C1388 C1390 1.419 . S
C1389 C1384 1.425 1_556 S
C1389 C1386 1.409 1_556 S
C1389 C1387 1.415 . S
C1390 H1380 0.930 . S
C1390 C1388 1.419 . S
C1390 C1391 1.362 . S
C1391 H1381 0.930 . S
C1391 C1384 1.409 1_556 S
C1391 C1390 1.362 . S
H1392 C1398 0.930 . S
H1393 C1401 0.930 . S
H1394 C1402 0.930 . S
H1395 C1403 0.930 . S
H1396 C1406 0.930 . S
H1397 C1407 0.930 . S
C1398 H1392 0.930 . S
C1398 C1399 1.355 . S
C1398 C1400 1.415 1_556 S
C1399 C1398 1.355 . S
C1399 C1401 1.419 1_455 S
C1400 C1398 1.415 1_554 S
C1400 C1405 1.425 1_454 S
C1400 C1407 1.409 . S
C1401 H1393 0.930 . S
C1401 C1399 1.419 1_655 S
C1401 C1402 1.362 . S
C1402 H1394 0.930 . S
C1402 C1401 1.362 . S
C1402 C1405 1.409 . S
C1403 H1395 0.930 . S
C1403 C1404 1.355 . S
C1403 C1405 1.415 1_554 S
C1404 C1403 1.355 . S
C1404 C1406 1.419 1_655 S
C1405 C1400 1.425 1_656 S
C1405 C1402 1.409 . S
C1405 C1403 1.415 1_556 S
C1406 H1396 0.930 . S
C1406 C1404 1.419 1_455 S
C1406 C1407 1.362 . S
C1407 H1397 0.930 . S
C1407 C1400 1.409 . S
C1407 C1406 1.362 . S
H1408 C1414 0.930 . S
H1409 C1417 0.930 . S
H1410 C1418 0.930 . S
H1411 C1419 0.930 . S
H1412 C1422 0.930 . S
H1413 C1423 0.930 . S
C1414 H1408 0.930 . S
C1414 C1415 1.355 . S
C1414 C1416 1.415 . S
C1415 C1414 1.355 . S
C1415 C1417 1.419 . S
C1416 C1414 1.415 . S
C1416 C1421 1.425 . S
C1416 C1423 1.409 . S
C1417 H1409 0.930 . S
C1417 C1415 1.419 . S
C1417 C1418 1.362 . S
C1418 H1410 0.930 . S
C1418 C1417 1.362 . S
C1418 C1421 1.409 . S
C1419 H1411 0.930 . S
C1419 C1420 1.355 . S
C1419 C1421 1.415 . S
C1420 C1419 1.355 . S
C1420 C1422 1.419 . S
C1421 C1416 1.425 . S
C1421 C1418 1.409 . S
C1421 C1419 1.415 . S
C1422 H1412 0.930 . S
C1422 C1420 1.419 . S
C1422 C1423 1.362 . S
C1423 H1413 0.930 . S
C1423 C1416 1.409 . S
C1423 C1422 1.362 . S
H1424 C1430 0.930 . S
H1425 C1433 0.930 . S
H1426 C1434 0.930 . S
H1427 C1435 0.930 . S
H1428 C1438 0.930 . S
H1429 C1439 0.930 . S
C1430 H1424 0.930 . S
C1430 C1431 1.355 . S
C1430 C1432 1.415 . S
C1431 C1430 1.355 . S
C1431 C1433 1.419 . S
C1432 C1430 1.415 . S
C1432 C1437 1.425 1_556 S
C1432 C1439 1.409 1_556 S
C1433 H1425 0.930 . S
C1433 C1431 1.419 . S
C1433 C1434 1.362 . S
C1434 H1426 0.930 . S
C1434 C1433 1.362 . S
C1434 C1437 1.409 1_556 S
C1435 H1427 0.930 . S
C1435 C1436 1.355 . S
C1435 C1437 1.415 . S
C1436 C1435 1.355 . S
C1436 C1438 1.419 . S
C1437 C1432 1.425 1_554 S
C1437 C1434 1.409 1_554 S
C1437 C1435 1.415 . S
C1438 H1428 0.930 . S
C1438 C1436 1.419 . S
C1438 C1439 1.362 . S
C1439 H1429 0.930 . S
C1439 C1432 1.409 1_554 S
C1439 C1438 1.362 . S
H1440 C1446 0.930 . S
H1441 C1449 0.930 . S
H1442 C1450 0.930 . S
H1443 C1451 0.930 . S
H1444 C1454 0.930 . S
H1445 C1455 0.930 . S
C1446 H1440 0.930 . S
C1446 C1447 1.355 . S
C1446 C1448 1.415 . S
C1447 C1446 1.355 . S
C1447 C1449 1.419 . S
C1448 C1446 1.415 . S
C1448 C1453 1.425 . S
C1448 C1455 1.409 . S
C1449 H1441 0.930 . S
C1449 C1447 1.419 . S
C1449 C1450 1.362 . S
C1450 H1442 0.930 . S
C1450 C1449 1.362 . S
C1450 C1453 1.409 . S
C1451 H1443 0.930 . S
C1451 C1452 1.355 . S
C1451 C1453 1.415 . S
C1452 C1451 1.355 . S
C1452 C1454 1.419 . S
C1453 C1448 1.425 . S
C1453 C1450 1.409 . S
C1453 C1451 1.415 . S
C1454 H1444 0.930 . S
C1454 C1452 1.419 . S
C1454 C1455 1.362 . S
C1455 H1445 0.930 . S
C1455 C1448 1.409 . S
C1455 C1454 1.362 . S
H1456 C1462 0.930 . S
H1457 C1465 0.930 . S
H1458 C1466 0.930 . S
H1459 C1467 0.930 . S
H1460 C1470 0.930 . S
H1461 C1471 0.930 . S
C1462 H1456 0.930 . S
C1462 C1463 1.355 . S
C1462 C1464 1.460 . S
C1463 C1462 1.355 . S
C1463 C1465 1.419 . S
C1464 C1462 1.460 . S
C1464 C1469 1.417 1_546 S
C1464 C1471 1.372 1_546 S
C1465 H1457 0.930 . S
C1465 C1463 1.419 . S
C1465 C1466 1.362 . S
C1466 H1458 0.930 . S
C1466 C1465 1.362 . S
C1466 C1469 1.372 1_546 S
C1467 H1459 0.930 . S
C1467 C1468 1.355 . S
C1467 C1469 1.460 . S
C1468 C1467 1.355 . S
C1468 C1470 1.419 . S
C1469 C1464 1.417 1_564 S
C1469 C1466 1.372 1_564 S
C1469 C1467 1.460 . S
C1470 H1460 0.930 . S
C1470 C1468 1.419 . S
C1470 C1471 1.362 . S
C1471 H1461 0.930 . S
C1471 C1464 1.372 1_564 S
C1471 C1470 1.362 . S
H1472 C1478 0.930 . S
H1473 C1481 0.930 . S
H1474 C1482 0.930 . S
H1475 C1483 0.930 . S
H1476 C1486 0.930 . S
H1477 C1487 0.930 . S
C1478 H1472 0.930 . S
C1478 C1479 1.355 . S
C1478 C1480 1.415 . S
C1479 C1478 1.355 . S
C1479 C1481 1.419 . S
C1480 C1478 1.415 . S
C1480 C1485 1.425 . S
C1480 C1487 1.409 . S
C1481 H1473 0.930 . S
C1481 C1479 1.419 . S
C1481 C1482 1.362 . S
C1482 H1474 0.930 . S
C1482 C1481 1.362 . S
C1482 C1485 1.409 . S
C1483 H1475 0.930 . S
C1483 C1484 1.355 . S
C1483 C1485 1.415 . S
C1484 C1483 1.355 . S
C1484 C1486 1.419 . S
C1485 C1480 1.425 . S
C1485 C1482 1.409 . S
C1485 C1483 1.415 . S
C1486 H1476 0.930 . S
C1486 C1484 1.419 . S
C1486 C1487 1.362 . S
C1487 H1477 0.930 . S
C1487 C1480 1.409 . S
C1487 C1486 1.362 . S
H1488 C1494 0.930 . S
H1489 C1497 0.930 . S
H1490 C1498 0.930 . S
H1491 C1499 0.930 . S
H1492 C1502 0.930 . S
H1493 C1503 0.930 . S
C1494 H1488 0.930 . S
C1494 C1495 1.355 . S
C1494 C1496 1.415 . S
C1495 C1494 1.355 . S
C1495 C1497 1.419 . S
C1496 C1494 1.415 . S
C1496 C1501 1.425 . S
C1496 C1503 1.409 . S
C1497 H1489 0.930 . S
C1497 C1495 1.419 . S
C1497 C1498 1.362 . S
C1498 H1490 0.930 . S
C1498 C1497 1.362 . S
C1498 C1501 1.409 . S
C1499 H1491 0.930 . S
C1499 C1500 1.355 . S
C1499 C1501 1.415 . S
C1500 C1499 1.355 . S
C1500 C1502 1.419 . S
C1501 C1496 1.425 . S
C1501 C1498 1.409 . S
C1501 C1499 1.415 . S
C1502 H1492 0.930 . S
C1502 C1500 1.419 . S
C1502 C1503 1.362 . S
C1503 H1493 0.930 . S
C1503 C1496 1.409 . S
C1503 C1502 1.362 . S
H1504 C1510 0.930 . S
H1505 C1513 0.930 . S
H1506 C1514 0.930 . S
H1507 C1515 0.930 . S
H1508 C1518 0.930 . S
H1509 C1519 0.930 . S
C1510 H1504 0.930 . S
C1510 C1511 1.355 . S
C1510 C1512 1.415 . S
C1511 C1510 1.355 . S
C1511 C1513 1.419 . S
C1512 C1510 1.415 . S
C1512 C1517 1.425 . S
C1512 C1519 1.409 . S
C1513 H1505 0.930 . S
C1513 C1511 1.419 . S
C1513 C1514 1.362 . S
C1514 H1506 0.930 . S
C1514 C1513 1.362 . S
C1514 C1517 1.409 . S
C1515 H1507 0.930 . S
C1515 C1516 1.355 . S
C1515 C1517 1.415 . S
C1516 C1515 1.355 . S
C1516 C1518 1.419 . S
C1517 C1512 1.425 . S
C1517 C1514 1.409 . S
C1517 C1515 1.415 . S
C1518 H1508 0.930 . S
C1518 C1516 1.419 . S
C1518 C1519 1.362 . S
C1519 H1509 0.930 . S
C1519 C1512 1.409 . S
C1519 C1518 1.362 . S
C503 C27 0.777 . S
C508 C373 0.777 . S
C519 C1 0.678 . S
C524 C399 0.678 . S
C535 C58 0.673 . S
C540 C404 0.673 . S
C551 C32 0.699 . S
C556 C430 0.699 . S
C567 C461 0.786 . S
C572 C63 0.786 . S
C583 C89 0.807 . S
C588 C435 0.807 . S
C599 C94 0.752 . S
C604 C492 0.752 . S
C615 C120 0.723 . S
C620 C466 0.723 . S
C631 C249 0.762 . S
C636 C151 0.762 . S
C647 C275 0.704 . S
C652 C125 0.704 . S
C663 C280 0.688 . S
C668 C182 0.688 . S
C679 C306 0.817 . S
C684 C156 0.817 . S
C695 C337 0.673 . S
C700 C187 0.673 . S
C711 C213 0.807 . S
C716 C311 0.807 . S
C727 C368 0.673 . S
C732 C218 0.673 . S
C743 C244 0.727 . S
C748 C342 0.727 . S
C759 C2 1.963 1_565 S
C764 C382 1.963 . S
C775 C10 1.968 . S
C780 C374 1.968 . S
C791 C33 1.964 . S
C796 C413 1.964 . S
C807 C405 1.954 . S
C812 C41 1.954 1_565 S
C823 C436 2.006 . S
C828 C72 2.006 1_545 S
C839 C444 1.980 . S
C844 C64 1.980 . S
C855 C467 2.009 . S
C860 C103 2.009 . S
C871 C475 1.979 . S
C876 C95 1.979 1_545 S
C887 C126 1.954 . S
C892 C258 1.954 . S
C903 C134 1.995 . S
C908 C250 1.995 1_565 S
C919 C157 1.956 . S
C924 C289 1.956 1_565 S
C935 C165 1.961 . S
C940 C281 1.961 . S
C951 C312 1.957 . S
C956 C196 1.957 . S
C967 C320 1.968 1_545 S
C972 C188 1.968 . S
C983 C343 1.978 1_545 S
C988 C227 1.978 . S
C999 C219 1.969 . S
C1004 C351 1.969 . S
C1015 C24 1.819 . S
C1020 C290 1.799 . S
C1031 C303 1.825 . S
C1036 C11 1.802 . S
C1047 C259 1.795 . S
C1052 C55 1.838 . S
C1063 C272 1.833 . S
C1068 C42 1.774 . S
C1079 C359 1.740 . S
C1084 C62 1.788 . S
C1095 C80 1.801 . S
C1100 C341 1.836 . S
C1111 C93 1.838 . S
C1116 C328 1.788 . S
C1127 C111 1.800 . S
C1132 C310 1.822 . S
C1143 C414 1.765 . S
C1148 C148 1.829 . S
C1159 C135 1.750 . S
C1164 C427 1.788 . S
C1175 C179 1.799 . S
C1180 C383 1.777 . S
C1191 C396 1.787 . S
C1196 C166 1.745 . S
C1207 C483 1.801 . S
C1212 C186 1.836 . S
C1223 C465 1.802 . S
C1228 C204 1.736 . S
C1239 C452 1.779 . S
C1244 C217 1.835 . S
C1255 C434 1.837 . S
C1260 C235 1.785 . S
C1271 C445 2.140 . S
C1276 C18 2.140 . S
C1287 C86 1.276 . S
C1292 C0 1.276 . S
C1303 C352 2.143 . S
C1308 C49 2.143 . S
C1319 C31 1.178 . S
C1324 C241 1.178 . S
C1335 C390 2.105 . S
C1340 C73 2.105 . S
C1351 C104 2.103 . S
C1356 C297 2.103 . S
C1367 C155 1.303 . S
C1372 C117 1.303 . S
C1383 C321 2.141 . S
C1388 C142 2.141 . S
C1399 C124 1.175 . S
C1404 C210 1.175 . S
C1415 C173 2.123 . S
C1420 C476 2.123 . S
C1431 C266 2.143 . S
C1436 C197 2.143 . S
C1447 C421 2.141 . S
C1452 C228 2.141 . S
C1463 C248 1.231 . S
C1468 C334 1.231 . S
C1479 C279 1.172 . S
C1484 C489 1.172 . S
C1495 C403 1.291 . S
C1500 C365 1.291 . S
C1511 C458 1.288 . S
C1516 C372 1.288 . S
