# Generated by pormake.
# Topology ilc, (8)-cn, num edge types: 1
# Building blocks:
#     Node 0, Type 0, BuildingBlock: EYACOX_clean_sbu_0, # of connection points: 8
#     Node 1, Type 0, BuildingBlock: EYACOX_clean_sbu_0, # of connection points: 8
#     Node 2, Type 0, BuildingBlock: EYACOX_clean_sbu_0, # of connection points: 8
#     Edge 3, Type (0, 0), BuildingBlock: TEMPAE_clean_linker_10, # of connection points: 2
#     Edge 4, Type (0, 0), BuildingBlock: TEMPAE_clean_linker_10, # of connection points: 2
#     Edge 5, Type (0, 0), BuildingBlock: TEMPAE_clean_linker_10, # of connection points: 2
#     Edge 6, Type (0, 0), BuildingBlock: TEMPAE_clean_linker_10, # of connection points: 2
#     Edge 7, Type (0, 0), BuildingBlock: TEMPAE_clean_linker_10, # of connection points: 2
#     Edge 8, Type (0, 0), BuildingBlock: TEMPAE_clean_linker_10, # of connection points: 2
#     Edge 9, Type (0, 0), BuildingBlock: TEMPAE_clean_linker_10, # of connection points: 2
#     Edge 10, Type (0, 0), BuildingBlock: TEMPAE_clean_linker_10, # of connection points: 2
#     Edge 11, Type (0, 0), BuildingBlock: TEMPAE_clean_linker_10, # of connection points: 2
#     Edge 12, Type (0, 0), BuildingBlock: TEMPAE_clean_linker_10, # of connection points: 2
#     Edge 13, Type (0, 0), BuildingBlock: TEMPAE_clean_linker_10, # of connection points: 2
#     Edge 14, Type (0, 0), BuildingBlock: TEMPAE_clean_linker_10, # of connection points: 2
# Relax obj value: 0.109
# Max RMSD: 0.171
# Mean RMSD: 0.171
data_MOF--net-ilc--node1-EYACOX_clean_sbu_0--edge1-TEMPAE_clean_linker_10
_symmetry_space_group_name_H-M    P1
_symmetry_Int_Tables_number       1
_symmetry_cell_setting            triclinic
loop_
_symmetry_equiv_pos_as_xyz
'x, y, z'
_cell_length_a     27.243538
_cell_length_b     21.623801
_cell_length_c     20.234071
_cell_angle_alpha  84.699187
_cell_angle_beta   121.93122
_cell_angle_gamma 126.46033
loop_
_atom_site_label
_atom_site_type_symbol
_atom_site_fract_x
_atom_site_fract_y
_atom_site_fract_z
_atom_type_partial_charge
Eu0 Eu 0.98555 0.96988 0.0344 0.0
Eu1 Eu 0.10961 0.02765 0.99151 0.0
O2 O 0.97102 0.99915 0.1199 0.0
O3 O 0.87594 0.88878 0.01548 0.0
O4 O 0.99244 0.93784 0.88092 0.0
O5 O 0.93809 0.86246 0.94395 0.0
O6 O 0.95164 0.0169 0.92786 0.0
O7 O 0.0492 0.07541 0.91416 0.0
C8 C 0.88123 0.88953 0.13735 0.0
C9 C 0.8525 0.8172 0.24825 0.0
C10 C 0.83079 0.86341 0.21682 0.0
C11 C 0.84357 0.89833 0.15938 0.0
C12 C 0.89283 0.81104 0.2305 0.0
C13 C 0.90743 0.8474 0.17505 0.0
C14 C 0.90092 0.9325 0.08295 0.0
C15 C 0.94024 0.86951 0.88009 0.0
O16 O 0.16238 0.99078 0.97561 0.0
O17 O 0.18863 0.10462 0.95874 0.0
C18 C 0.98732 0.05989 0.89486 0.0
O19 O 0.17358 0.11565 0.11208 0.0
O20 O 0.07268 0.10511 0.07183 0.0
O21 O 0.09779 0.93222 0.05515 0.0
O22 O 0.06936 0.95669 0.13217 0.0
C23 C 0.19287 0.03145 0.88089 0.0
C24 C 0.14313 0.93032 0.76728 0.0
C25 C 0.13718 0.95078 0.82536 0.0
C26 C 0.20369 0.98974 0.76495 0.0
C27 C 0.25348 0.07074 0.81163 0.0
C28 C 0.24917 0.09221 0.87087 0.0
C29 C 0.1962 0.05153 0.95244 0.0
C30 C 0.14537 0.14434 0.11988 0.0
C31 C 0.09548 0.9279 0.11889 0.0
H32 H 0.84425 0.79211 0.29389 0.0
H33 H 0.82771 0.93516 0.13513 0.0
H34 H 0.94173 0.84601 0.16414 0.0
H35 H 0.08995 0.90445 0.82729 0.0
H36 H 0.20671 0.97463 0.71808 0.0
H37 H 0.28882 0.15503 0.90864 0.0
Eu38 Eu 0.62884 0.27507 0.34894 0.0
Eu39 Eu 0.77856 0.37906 0.33739 0.0
O40 O 0.52882 0.25198 0.32179 0.0
O41 O 0.57353 0.20211 0.40666 0.0
O42 O 0.67004 0.27339 0.22496 0.0
O43 O 0.61078 0.18217 0.27642 0.0
O44 O 0.59331 0.30998 0.23186 0.0
O45 O 0.71188 0.42108 0.26802 0.0
C46 C 0.52744 0.25085 0.43843 0.0
C47 C 0.5306 0.315 0.55548 0.0
C48 C 0.46356 0.23971 0.49622 0.0
C49 C 0.46195 0.20642 0.43737 0.0
C50 C 0.59507 0.36011 0.5579 0.0
C51 C 0.59435 0.32775 0.49994 0.0
C52 C 0.52717 0.2168 0.37727 0.0
C53 C 0.62976 0.19918 0.22573 0.0
O54 O 0.86804 0.48195 0.32968 0.0
O55 O 0.83654 0.36421 0.30455 0.0
C56 C 0.63805 0.3785 0.22278 0.0
O57 O 0.82209 0.45796 0.45146 0.0
O58 O 0.70386 0.40764 0.40592 0.0
O59 O 0.79646 0.30738 0.42279 0.0
O60 O 0.72121 0.28069 0.46125 0.0
C61 C 0.8596 0.43857 0.2174 0.0
C62 C 0.78109 0.42997 0.07635 0.0
C63 C 0.80222 0.44073 0.15678 0.0
C64 C 0.81516 0.41421 0.05634 0.0
C65 C 0.88143 0.42789 0.11716 0.0
C66 C 0.90197 0.43609 0.19834 0.0
C67 C 0.87268 0.43678 0.29853 0.0
C68 C 0.77759 0.46327 0.45444 0.0
C69 C 0.77301 0.28148 0.46962 0.0
H70 H 0.53461 0.33756 0.60532 0.0
H71 H 0.41095 0.14696 0.39186 0.0
H72 H 0.64553 0.36106 0.50364 0.0
H73 H 0.7746 0.45125 0.17203 0.0
H74 H 0.79743 0.40461 0.99381 0.0
H75 H 0.95087 0.44248 0.24617 0.0
Eu76 Eu 0.29213 0.60414 0.67579 0.0
Eu77 Eu 0.44398 0.70461 0.66561 0.0
O78 O 0.22153 0.61341 0.68924 0.0
O79 O 0.20978 0.5063 0.69584 0.0
O80 O 0.33893 0.59748 0.55243 0.0
O81 O 0.26864 0.50946 0.5974 0.0
O82 O 0.25684 0.63556 0.55704 0.0
O83 O 0.37661 0.74618 0.59509 0.0
C84 C 0.20402 0.55662 0.78876 0.0
C85 C 0.23194 0.55611 0.942 0.0
C86 C 0.15859 0.5239 0.87521 0.0
C87 C 0.14316 0.51913 0.79575 0.0
C88 C 0.29238 0.61326 0.93812 0.0
C89 C 0.27881 0.61006 0.86102 0.0
C90 C 0.19308 0.54728 0.70864 0.0
C91 C 0.29194 0.52394 0.55086 0.0
O92 O 0.50254 0.69909 0.62548 0.0
O93 O 0.54597 0.81549 0.68314 0.0
C94 C 0.30232 0.70268 0.54701 0.0
O95 O 0.48781 0.76943 0.78805 0.0
O96 O 0.37583 0.73818 0.73722 0.0
O97 O 0.44945 0.61996 0.73862 0.0
O98 O 0.38368 0.60651 0.78575 0.0
C99 C 0.55544 0.80645 0.57519 0.0
C100 C 0.5029 0.84032 0.45234 0.0
C101 C 0.50093 0.81279 0.5167 0.0
C102 C 0.55995 0.86226 0.44659 0.0
C103 C 0.61269 0.85274 0.50019 0.0
C104 C 0.61046 0.82432 0.56558 0.0
C105 C 0.55075 0.77766 0.64293 0.0
C106 C 0.44791 0.77957 0.79554 0.0
C107 C 0.42948 0.59883 0.78892 0.0
H108 H 0.24433 0.55575 0.00254 0.0
H109 H 0.08641 0.49028 0.74139 0.0
H110 H 0.32579 0.65169 0.85723 0.0
H111 H 0.45526 0.79344 0.51944 0.0
H112 H 0.55857 0.87952 0.39397 0.0
H113 H 0.65051 0.81602 0.60799 0.0
C114 C 0.09872 0.81369 0.67544 0.0
C115 C 0.08124 0.85542 0.69519 0.0
C116 C 0.0615 0.77449 0.59319 0.0
C117 C 1.00824 0.78053 0.52973 0.0
C118 C 0.98353 0.81318 0.54952 0.0
C119 C 1.01957 0.84896 0.63239 0.0
C120 C 0.08643 0.73619 0.57499 0.0
C121 C 0.92717 0.8214 0.48348 0.0
C122 C 1.00996 0.84896 0.35407 0.0
C123 C 0.93471 0.78599 0.28855 0.0
C124 C 0.03931 0.84353 0.43375 0.0
C125 C 0.99229 0.77275 0.44695 0.0
C126 C 0.9219 0.70366 0.37847 0.0
C127 C 0.89384 0.71084 0.29933 0.0
C128 C 0.11573 0.91828 0.50493 0.0
C129 C 0.87159 0.62611 0.38944 0.0
H130 H 0.1468 0.81892 0.72397 0.0
H131 H 1.00751 0.88294 0.64738 0.0
H132 H 0.04038 0.68701 0.51456 0.0
H133 H 0.13518 0.78311 0.57343 0.0
H134 H 0.10515 0.7109 0.62384 0.0
H135 H 0.91401 0.84832 0.50873 0.0
H136 H 0.95016 0.86114 0.45164 0.0
H137 H 0.87374 0.76105 0.43684 0.0
H138 H 0.04178 0.90695 0.34568 0.0
H139 H 0.83568 0.66173 0.24832 0.0
H140 H 0.14962 0.90184 0.54846 0.0
H141 H 0.10812 0.94531 0.53908 0.0
H142 H 0.14814 0.96518 0.4842 0.0
H143 H 0.90536 0.61613 0.44405 0.0
H144 H 0.83313 0.57345 0.334 0.0
H145 H 0.83621 0.6294 0.39822 0.0
C146 C 0.7064 0.41705 0.69823 0.0
C147 C 0.66314 0.43164 0.63326 0.0
C148 C 0.72825 0.44141 0.77731 0.0
C149 C 0.70939 0.48456 0.79273 0.0
C150 C 0.67798 0.51212 0.73051 0.0
C151 C 0.6571 0.48705 0.65195 0.0
C152 C 0.7661 0.41488 0.84239 0.0
C153 C 0.65506 0.5569 0.74121 0.0
C154 C 0.67047 0.39882 0.94343 0.0
C155 C 0.74186 0.45699 0.01714 0.0
C156 C 0.65333 0.41447 0.86844 0.0
C157 C 0.71064 0.4866 0.86749 0.0
C158 C 0.7759 0.55086 0.94271 0.0
C159 C 0.78953 0.53593 0.0171 0.0
C160 C 0.57743 0.34982 0.78977 0.0
C161 C 0.8363 0.6318 0.94639 0.0
H162 H 0.71243 0.37549 0.68476 0.0
H163 H 0.62229 0.49743 0.60164 0.0
H164 H 0.72352 0.36068 0.84801 0.0
H165 H 0.79161 0.3986 0.82741 0.0
H166 H 0.8111 0.46441 0.90211 0.0
H167 H 0.59285 0.5136 0.70924 0.0
H168 H 0.68306 0.58472 0.8066 0.0
H169 H 0.66814 0.60517 0.71193 0.0
H170 H 0.63208 0.33818 0.943 0.0
H171 H 0.84425 0.58186 0.07444 0.0
H172 H 0.57849 0.30474 0.76987 0.0
H173 H 0.56259 0.37565 0.73982 0.0
H174 H 0.53287 0.31868 0.79968 0.0
H175 H 0.87959 0.63073 0.95533 0.0
H176 H 0.8651 0.68118 0.9995 0.0
H177 H 0.81243 0.6456 0.88912 0.0
C178 C 0.33028 0.73821 0.99989 0.0
C179 C 0.35126 0.69126 0.00561 0.0
C180 C 0.34476 0.77443 0.06875 0.0
C181 C 0.38929 0.7717 0.14669 0.0
C182 C 0.42537 0.74086 0.15478 0.0
C183 C 0.40349 0.69794 0.08348 0.0
C184 C 0.30556 0.8076 0.05466 0.0
C185 C 0.48443 0.75006 0.2383 0.0
C186 C 0.45202 0.88746 0.34152 0.0
C187 C 0.43668 0.82609 0.37781 0.0
C188 C 0.43308 0.87103 0.26236 0.0
C189 C 0.39055 0.78985 0.21715 0.0
C190 C 0.35655 0.7258 0.24646 0.0
C191 C 0.37814 0.7453 0.32627 0.0
C192 C 0.46612 0.94219 0.2332 0.0
C193 C 0.30738 0.63707 0.2009 0.0
H194 H 0.2903 0.73351 0.93933 0.0
H195 H 0.42143 0.66345 0.0882 0.0
H196 H 0.29739 0.80842 0.10262 0.0
H197 H 0.33993 0.87062 0.05376 0.0
H198 H 0.24921 0.77144 0.99385 0.0
H199 H 0.53412 0.81565 0.27223 0.0
H200 H 0.46408 0.72671 0.27676 0.0
H201 H 0.50297 0.71793 0.23347 0.0
H202 H 0.49322 0.95014 0.38086 0.0
H203 H 0.3619 0.6972 0.35321 0.0
H204 H 0.42842 0.95729 0.20459 0.0
H205 H 0.47222 0.9296 0.18741 0.0
H206 H 0.52235 0.99694 0.28582 0.0
H207 H 0.26085 0.59866 0.20786 0.0
H208 H 0.34117 0.61709 0.22863 0.0
H209 H 0.28302 0.62493 0.13463 0.0
C210 C 0.1931 0.67957 0.41307 0.0
C211 C 0.27008 0.73172 0.48012 0.0
C212 C 0.16315 0.70695 0.34947 0.0
C213 C 0.21057 0.7891 0.35387 0.0
C214 C 0.28827 0.84199 0.42158 0.0
C215 C 0.31715 0.8124 0.48277 0.0
C216 C 0.08035 0.64805 0.2782 0.0
C217 C 0.34124 0.93037 0.43035 0.0
C218 C 0.15383 0.86096 0.16699 0.0
C219 C 0.12273 0.88971 0.17709 0.0
C220 C 0.18124 0.82672 0.22291 0.0
C221 C 0.17812 0.82134 0.29118 0.0
C222 C 0.14584 0.84921 0.30092 0.0
C223 C 0.11836 0.88247 0.24387 0.0
C224 C 0.21371 0.79642 0.20899 0.0
C225 C 0.13921 0.84396 0.37103 0.0
H226 H 0.15621 0.61697 0.4097 0.0
H227 H 0.37676 0.85344 0.53391 0.0
H228 H 0.04895 0.65967 0.28625 0.0
H229 H 0.07181 0.65601 0.21902 0.0
H230 H 0.0558 0.58414 0.27434 0.0
H231 H 0.35705 0.93534 0.38846 0.0
H232 H 0.31355 0.95717 0.41312 0.0
H233 H 0.39407 0.96702 0.49416 0.0
H234 H 0.15721 0.86553 0.11553 0.0
H235 H 0.09379 0.90336 0.25232 0.0
H236 H 0.18836 0.73412 0.21304 0.0
H237 H 0.2756 0.83607 0.25772 0.0
H238 H 0.20394 0.79581 0.14826 0.0
H239 H 0.08095 0.78915 0.34858 0.0
H240 H 0.14889 0.89796 0.39256 0.0
H241 H 0.17952 0.83973 0.42442 0.0
C242 C 0.3319 0.47027 0.50785 0.0
C243 C 0.27275 0.45856 0.50074 0.0
C244 C 0.31712 0.41698 0.45283 0.0
C245 C 0.24119 0.35133 0.38844 0.0
C246 C 0.18104 0.33626 0.38396 0.0
C247 C 0.1977 0.39034 0.44104 0.0
C248 C 0.38284 0.43436 0.4607 0.0
C249 C 0.09937 0.26597 0.31631 0.0
C250 C 0.19805 0.27777 0.18828 0.0
C251 C 0.18879 0.20718 0.19433 0.0
C252 C 0.21762 0.32695 0.25258 0.0
C253 C 0.22519 0.3026 0.32254 0.0
C254 C 0.21766 0.23218 0.32931 0.0
C255 C 0.20053 0.18572 0.26528 0.0
C256 C 0.22615 0.40235 0.24375 0.0
C257 C 0.22209 0.2024 0.40094 0.0
H258 H 0.39009 0.52299 0.55516 0.0
H259 H 0.15237 0.38196 0.43614 0.0
H260 H 0.37214 0.37741 0.44717 0.0
H261 H 0.39018 0.46438 0.4154 0.0
H262 H 0.43659 0.47517 0.52325 0.0
H263 H 0.05982 0.25836 0.32603 0.0
H264 H 0.08543 0.27622 0.25626 0.0
H265 H 0.08997 0.2086 0.31223 0.0
H266 H 0.18634 0.29217 0.13166 0.0
H267 H 0.19011 0.12897 0.26771 0.0
H268 H 0.28176 0.45609 0.29779 0.0
H269 H 0.18162 0.39551 0.24177 0.0
H270 H 0.22169 0.41445 0.18704 0.0
H271 H 0.2682 0.25381 0.45931 0.0
H272 H 0.2311 0.1579 0.40558 0.0
H273 H 0.16823 0.17203 0.3928 0.0
C274 C 0.69624 0.93502 0.45447 0.0
C275 C 0.66222 0.86618 0.47773 0.0
C276 C 0.72282 0.93945 0.40902 0.0
C277 C 0.71826 0.87471 0.38803 0.0
C278 C 0.68688 0.80637 0.41404 0.0
C279 C 0.65921 0.80282 0.45835 0.0
C280 C 0.75265 0.01211 0.38028 0.0
C281 C 0.67954 0.73531 0.39183 0.0
C282 C 0.72839 0.84487 0.21192 0.0
C283 C 0.80445 0.88103 0.25505 0.0
C284 C 0.69989 0.84453 0.25357 0.0
C285 C 0.74817 0.87957 0.34093 0.0
C286 C 0.82583 0.91879 0.38393 0.0
C287 C 0.85289 0.91963 0.34056 0.0
C288 C 0.61723 0.80324 0.20355 0.0
C289 C 0.88039 0.95821 0.47627 0.0
H290 H 0.69774 0.98384 0.4675 0.0
H291 H 0.63112 0.74836 0.47341 0.0
H292 H 0.7247 0.99189 0.31326 0.0
H293 H 0.74357 0.05222 0.39254 0.0
H294 H 0.81418 0.04842 0.41215 0.0
H295 H 0.6547 0.68724 0.41705 0.0
H296 H 0.64272 0.70827 0.32393 0.0
H297 H 0.73587 0.75619 0.41502 0.0
H298 H 0.69033 0.81338 0.14622 0.0
H299 H 0.91175 0.947 0.37428 0.0
H300 H 0.60794 0.83418 0.23043 0.0
H301 H 0.58525 0.73932 0.20287 0.0
H302 H 0.59407 0.80236 0.1387 0.0
H303 H 0.88999 0.01369 0.49254 0.0
H304 H 0.9362 0.9763 0.50158 0.0
H305 H 0.85657 0.91661 0.50659 0.0
C306 C 0.75673 0.17974 0.54526 0.0
C307 C 0.80435 0.24939 0.53272 0.0
C308 C 0.78427 0.14592 0.60158 0.0
C309 C 0.86237 0.18468 0.64981 0.0
C310 C 0.9108 0.25559 0.6378 0.0
C311 C 0.88104 0.28622 0.57863 0.0
C312 C 0.72946 0.06873 0.60942 0.0
C313 C 0.99433 0.29959 0.68796 0.0
C314 C 0.93804 0.13423 0.84862 0.0
C315 C 0.95547 0.0912 0.83216 0.0
C316 C 0.90824 0.16512 0.79043 0.0
C317 C 0.89327 0.1509 0.71225 0.0
C318 C 0.9086 0.10458 0.69465 0.0
C319 C 0.94108 0.07707 0.75541 0.0
C320 C 0.89731 0.21657 0.81612 0.0
C321 C 0.8911 0.08272 0.61217 0.0
H322 H 0.69715 0.15021 0.5092 0.0
H323 H 0.91816 0.34002 0.56928 0.0
H324 H 0.74176 0.02706 0.61595 0.0
H325 H 0.73517 0.08373 0.66531 0.0
H326 H 0.66981 0.0363 0.55549 0.0
H327 H 1.02434 0.35369 0.67135 0.0
H328 H 1.02026 0.31889 0.7545 0.0
H329 H 1.00315 0.25837 0.67825 0.0
H330 H 0.94974 0.14579 0.90833 0.0
H331 H 0.95347 0.0426 0.74195 0.0
H332 H 0.85317 0.21637 0.76337 0.0
H333 H 0.95179 0.27985 0.84877 0.0
H334 H 0.88225 0.19618 0.85966 0.0
H335 H 0.85638 0.09624 0.56422 0.0
H336 H 0.86075 0.01692 0.59057 0.0
H337 H 0.94496 0.11645 0.6192 0.0
C338 C 0.75557 0.54199 0.49646 0.0
C339 C 0.8068 0.5324 0.51177 0.0
C340 C 0.77291 0.59303 0.55603 0.0
C341 C 0.84648 0.64214 0.63115 0.0
C342 C 0.90065 0.63647 0.64519 0.0
C343 C 0.87963 0.58082 0.5851 0.0
C344 C 0.71015 0.59114 0.53653 0.0
C345 C 0.97893 0.68343 0.72499 0.0
C346 C 0.87713 0.81031 0.73545 0.0
C347 C 0.89705 0.79999 0.81229 0.0
C348 C 0.8641 0.76212 0.67738 0.0
C349 C 0.86475 0.69725 0.69406 0.0
C350 C 0.87841 0.68283 0.76942 0.0
C351 C 0.89794 0.73687 0.82907 0.0
C352 C 0.85114 0.78362 0.59991 0.0
C353 C 0.87706 0.61392 0.79111 0.0
H354 H 0.69927 0.50599 0.43868 0.0
H355 H 0.91901 0.57284 0.59708 0.0
H356 H 0.72051 0.61736 0.59134 0.0
H357 H 0.70267 0.62485 0.49274 0.0
H358 H 0.65552 0.5277 0.50455 0.0
H359 H 1.01946 0.69642 0.71422 0.0
H360 H 0.9997 0.7407 0.75853 0.0
H361 H 0.97873 0.64444 0.7645 0.0
H362 H 0.87846 0.86113 0.72355 0.0
H363 H 0.91946 0.73336 0.8908 0.0
H364 H 0.79608 0.77015 0.56322 0.0
H365 H 0.85164 0.75099 0.56158 0.0
H366 H 0.89486 0.85008 0.61587 0.0
H367 H 0.84568 0.5638 0.73717 0.0
H368 H 0.8519 0.5897 0.8249 0.0
H369 H 0.93616 0.6384 0.83456 0.0
C370 C 0.37473 0.1253 0.52363 0.0
C371 C 0.40204 0.19904 0.50727 0.0
C372 C 0.34662 0.1055 0.57098 0.0
C373 C 0.35284 0.16439 0.60929 0.0
C374 C 0.37783 0.23743 0.58971 0.0
C375 C 0.39377 0.24901 0.53215 0.0
C376 C 0.31685 0.02438 0.58478 0.0
C377 C 0.39595 0.30793 0.63516 0.0
C378 C 0.25783 0.13709 0.70871 0.0
C379 C 0.29821 0.12822 0.78312 0.0
C380 C 0.27242 0.14436 0.65031 0.0
C381 C 0.33442 0.1516 0.66992 0.0
C382 C 0.37989 0.1501 0.74892 0.0
C383 C 0.36065 0.13777 0.8039 0.0
C384 C 0.21607 0.13622 0.56541 0.0
C385 C 0.44488 0.15366 0.77489 0.0
H386 H 0.38064 0.08604 0.50512 0.0
H387 H 0.41371 0.30568 0.51865 0.0
H388 H 0.28009 0.97616 0.52615 0.0
H389 H 0.36498 0.02572 0.62794 0.0
H390 H 0.28453 0.00782 0.60992 0.0
H391 H 0.442 0.36706 0.63838 0.0
H392 H 0.3458 0.30384 0.60228 0.0
H393 H 0.41385 0.30931 0.69902 0.0
H394 H 0.20749 0.12623 0.69106 0.0
H395 H 0.39008 0.12763 0.85993 0.0
H396 H 0.217 0.11709 0.51746 0.0
H397 H 0.22779 0.19486 0.5656 0.0
H398 H 0.15761 0.09074 0.54786 0.0
H399 H 0.42728 0.09224 0.77398 0.0
H400 H 0.49363 0.19446 0.83948 0.0
H401 H 0.464 0.17425 0.73501 0.0
C402 C 0.64937 0.4934 0.17179 0.0
C403 C 0.60573 0.40945 0.15915 0.0
C404 C 0.62137 0.52469 0.11224 0.0
C405 C 0.54857 0.47071 0.03647 0.0
C406 C 0.50474 0.38572 0.02276 0.0
C407 C 0.5332 0.35622 0.08479 0.0
C408 C 0.67046 0.61569 0.13056 0.0
C409 C 0.42754 0.32558 0.9427 0.0
C410 C 0.44751 0.55233 0.91285 0.0
C411 C 0.4606 0.56655 0.85246 0.0
C412 C 0.47565 0.52124 0.97266 0.0
C413 C 0.51788 0.50328 0.97247 0.0
C414 C 0.53136 0.51738 0.91174 0.0
C415 C 0.50276 0.54888 0.85276 0.0
C416 C 0.46065 0.50821 0.03667 0.0
C417 C 0.57567 0.49872 0.90878 0.0
H418 H 0.70543 0.5351 0.22914 0.0
H419 H 0.49939 0.29128 0.07414 0.0
H420 H 0.69419 0.63337 0.09496 0.0
H421 H 0.63709 0.63569 0.1121 0.0
H422 H 0.71817 0.64883 0.197 0.0
H423 H 0.4084 0.26326 0.93541 0.0
H424 H 0.38608 0.32514 0.94135 0.0
H425 H 0.42758 0.34253 0.88927 0.0
H426 H 0.41536 0.56582 0.91379 0.0
H427 H 0.51312 0.55911 0.80643 0.0
H428 H 0.51512 0.5452 0.09916 0.0
H429 H 0.42994 0.44349 0.03357 0.0
H430 H 0.42675 0.5249 0.02851 0.0
H431 H 0.63343 0.53489 0.96754 0.0
H432 H 0.58068 0.51216 0.85731 0.0
H433 H 0.54786 0.43359 0.90164 0.0
C434 C 0.43581 0.84279 0.87526 0.0
C435 C 0.48275 0.83948 0.8681 0.0
C436 C 0.46607 0.90088 0.94063 0.0
C437 C 0.54522 0.95652 1.00088 0.0
C438 C 0.59306 0.95173 0.99647 0.0
C439 C 0.56103 0.89286 0.92949 0.0
C440 C 0.41347 0.9051 0.94294 0.0
C441 C 0.67789 0.01078 0.06014 0.0
C442 C 0.60352 0.14883 0.09747 0.0
C443 C 0.60797 0.13636 0.16898 0.0
C444 C 0.58857 0.09322 0.0449 0.0
C445 C 0.57677 0.02313 0.06411 0.0
C446 C 0.58352 0.01147 0.13749 0.0
C447 C 0.59987 0.06903 0.18982 0.0
C448 C 0.58211 0.1078 0.96716 0.0
C449 C 0.57115 0.93713 0.15907 0.0
H450 H 0.37499 0.80078 0.82882 0.0
H451 H 0.59724 0.88978 0.92443 0.0
H452 H 0.42502 0.90758 0.00447 0.0
H453 H 0.4234 0.96147 0.93191 0.0
H454 H 0.35287 0.85254 0.89555 0.0
H455 H 0.70577 0.99195 0.05401 0.0
H456 H 0.70112 0.0718 0.05301 0.0
H457 H 0.69285 0.01676 0.12323 0.0
H458 H 0.61124 0.20199 0.0822 0.0
H459 H 0.60739 0.06206 0.24737 0.0
H460 H 0.52197 0.06391 0.91298 0.0
H461 H 0.61454 0.09797 0.95927 0.0
H462 H 0.60303 0.17031 0.96727 0.0
H463 H 0.58287 0.93941 0.22078 0.0
H464 H 0.6081 0.93085 0.15765 0.0
H465 H 0.51177 0.8821 0.11229 0.0
C466 C 1.03078 0.44907 0.85322 0.0
C467 C 0.10921 0.51334 0.89725 0.0
C468 C 0.99142 0.43794 0.88543 0.0
C469 C 1.0319 0.48849 0.9653 0.0
C470 C 0.10872 0.55769 0.0049 0.0
C471 C 0.14496 0.57014 0.96942 0.0
C472 C 0.90632 0.37584 0.8326 0.0
C473 C 0.15311 0.61959 0.08491 0.0
C474 C 0.94818 0.5105 0.05577 0.0
C475 C 0.93221 0.44981 0.09331 0.0
C476 C 0.9761 0.52041 0.01059 0.0
C477 C 0.9947 0.47262 0.00692 0.0
C478 C 0.98454 0.41534 0.05047 0.0
C479 C 0.95161 0.40308 0.09136 0.0
C480 C 0.98271 0.58124 0.96542 0.0
C481 C 1.00852 0.36704 0.05385 0.0
H482 H 1.00046 0.40745 0.7947 0.0
H483 H 0.20337 0.62433 1.00063 0.0
H484 H 0.88729 0.33019 0.86273 0.0
H485 H 0.88349 0.40653 0.82594 0.0
H486 H 0.88218 0.3448 0.77013 0.0
H487 H 0.21274 0.66964 0.10854 0.0
H488 H 0.12845 0.64827 0.07588 0.0
H489 H 0.15075 0.58969 0.13201 0.0
H490 H 0.93377 0.54742 0.05705 0.0
H491 H 0.9393 0.35578 0.11969 0.0
H492 H 0.99515 0.5788 0.92213 0.0
H493 H 1.02679 0.64357 0.01031 0.0
H494 H 0.92906 0.57022 0.93069 0.0
H495 H 0.97444 0.32687 0.99101 0.0
H496 H 1.00159 0.32901 0.09424 0.0
H497 H 0.06882 0.40886 0.07701 0.0
loop_
_geom_bond_atom_site_label_1
_geom_bond_atom_site_label_2
_geom_bond_distance
_geom_bond_site_symmetry_2
_ccdc_geom_bond_type
Eu0 O2 2.487 . S
Eu0 O3 2.520 . S
Eu0 O5 2.322 1_554 S
Eu0 O6 2.380 1_564 S
Eu0 C14 2.851 . S
Eu0 O20 2.400 1_665 S
Eu0 O22 2.321 1_655 S
Eu1 O4 2.399 1_445 S
Eu1 O7 2.321 1_455 S
Eu1 O16 2.483 . S
Eu1 O17 2.517 . S
Eu1 O19 2.326 1_556 S
Eu1 O21 2.383 1_546 S
Eu1 C29 2.847 . S
O2 Eu0 2.487 . S
O2 C14 1.258 . S
O3 Eu0 2.520 . S
O3 C14 1.246 . S
O4 Eu1 2.399 1_665 S
O4 C15 1.216 . S
O5 Eu0 2.322 1_556 S
O5 C15 1.279 . S
O6 Eu0 2.380 1_546 S
O6 C18 1.239 . S
O7 Eu1 2.321 1_655 S
O7 C18 1.249 . S
C8 C11 1.390 . S
C8 C13 1.370 . S
C8 C14 1.489 . S
C9 C10 1.344 . S
C9 C12 1.413 . S
C9 H32 0.931 . S
C10 C9 1.344 . S
C10 C11 1.423 . S
C11 C8 1.390 . S
C11 C10 1.423 . S
C11 H33 0.930 . S
C12 C9 1.413 . S
C12 C13 1.397 . S
C13 C8 1.370 . S
C13 C12 1.397 . S
C13 H34 0.932 . S
C14 Eu0 2.851 . S
C14 O2 1.258 . S
C14 O3 1.246 . S
C14 C8 1.489 . S
C15 O4 1.216 . S
C15 O5 1.279 . S
O16 Eu1 2.483 . S
O16 C29 1.258 . S
O17 Eu1 2.517 . S
O17 C29 1.246 . S
C18 O6 1.239 . S
C18 O7 1.249 . S
O19 Eu1 2.326 1_554 S
O19 C30 1.279 . S
O20 Eu0 2.400 1_445 S
O20 C30 1.216 . S
O21 Eu1 2.383 1_564 S
O21 C31 1.239 . S
O22 Eu0 2.321 1_455 S
O22 C31 1.249 . S
C23 C25 1.370 . S
C23 C28 1.390 . S
C23 C29 1.489 . S
C24 C25 1.397 . S
C24 C26 1.413 . S
C25 C23 1.370 . S
C25 C24 1.397 . S
C25 H35 0.932 . S
C26 C24 1.413 . S
C26 C27 1.344 . S
C26 H36 0.931 . S
C27 C26 1.344 . S
C27 C28 1.423 . S
C28 C23 1.390 . S
C28 C27 1.423 . S
C28 H37 0.930 . S
C29 Eu1 2.847 . S
C29 O16 1.258 . S
C29 O17 1.246 . S
C29 C23 1.489 . S
C30 O19 1.279 . S
C30 O20 1.216 . S
C31 O21 1.239 . S
C31 O22 1.249 . S
H32 C9 0.931 . S
H33 C11 0.930 . S
H34 C13 0.932 . S
H35 C25 0.932 . S
H36 C26 0.931 . S
H37 C28 0.930 . S
Eu38 O40 2.472 . S
Eu38 O41 2.507 . S
Eu38 O43 2.336 . S
Eu38 O44 2.389 . S
Eu38 C52 2.835 . S
Eu38 O58 2.396 . S
Eu38 O60 2.323 . S
Eu39 O42 2.396 . S
Eu39 O45 2.323 . S
Eu39 O54 2.472 . S
Eu39 O55 2.507 . S
Eu39 O57 2.336 . S
Eu39 O59 2.389 . S
Eu39 C67 2.835 . S
O40 Eu38 2.472 . S
O40 C52 1.258 . S
O41 Eu38 2.507 . S
O41 C52 1.246 . S
O42 Eu39 2.396 . S
O42 C53 1.216 . S
O43 Eu38 2.336 . S
O43 C53 1.279 . S
O44 Eu38 2.389 . S
O44 C56 1.239 . S
O45 Eu39 2.323 . S
O45 C56 1.249 . S
C46 C49 1.390 . S
C46 C51 1.370 . S
C46 C52 1.489 . S
C47 C48 1.344 . S
C47 C50 1.413 . S
C47 H70 0.931 . S
C48 C47 1.344 . S
C48 C49 1.423 . S
C49 C46 1.390 . S
C49 C48 1.423 . S
C49 H71 0.930 . S
C50 C47 1.413 . S
C50 C51 1.397 . S
C51 C46 1.370 . S
C51 C50 1.397 . S
C51 H72 0.932 . S
C52 Eu38 2.835 . S
C52 O40 1.258 . S
C52 O41 1.246 . S
C52 C46 1.489 . S
C53 O42 1.216 . S
C53 O43 1.279 . S
O54 Eu39 2.472 . S
O54 C67 1.258 . S
O55 Eu39 2.507 . S
O55 C67 1.246 . S
C56 O44 1.239 . S
C56 O45 1.249 . S
O57 Eu39 2.336 . S
O57 C68 1.279 . S
O58 Eu38 2.396 . S
O58 C68 1.216 . S
O59 Eu39 2.389 . S
O59 C69 1.239 . S
O60 Eu38 2.323 . S
O60 C69 1.249 . S
C61 C63 1.370 . S
C61 C66 1.390 . S
C61 C67 1.489 . S
C62 C63 1.397 . S
C62 C64 1.413 . S
C63 C61 1.370 . S
C63 C62 1.397 . S
C63 H73 0.932 . S
C64 C62 1.413 . S
C64 C65 1.344 . S
C64 H74 0.931 . S
C65 C64 1.344 . S
C65 C66 1.423 . S
C66 C61 1.390 . S
C66 C65 1.423 . S
C66 H75 0.930 . S
C67 Eu39 2.835 . S
C67 O54 1.258 . S
C67 O55 1.246 . S
C67 C61 1.489 . S
C68 O57 1.279 . S
C68 O58 1.216 . S
C69 O59 1.239 . S
C69 O60 1.249 . S
H70 C47 0.931 . S
H71 C49 0.930 . S
H72 C51 0.932 . S
H73 C63 0.932 . S
H74 C64 0.931 . S
H75 C66 0.930 . S
Eu76 O78 2.472 . S
Eu76 O79 2.507 . S
Eu76 O81 2.336 . S
Eu76 O82 2.389 . S
Eu76 C90 2.835 . S
Eu76 O96 2.396 . S
Eu76 O98 2.323 . S
Eu77 O80 2.396 . S
Eu77 O83 2.323 . S
Eu77 O92 2.472 . S
Eu77 O93 2.507 . S
Eu77 O95 2.336 . S
Eu77 O97 2.389 . S
Eu77 C105 2.835 . S
O78 Eu76 2.472 . S
O78 C90 1.258 . S
O79 Eu76 2.507 . S
O79 C90 1.246 . S
O80 Eu77 2.396 . S
O80 C91 1.216 . S
O81 Eu76 2.336 . S
O81 C91 1.279 . S
O82 Eu76 2.389 . S
O82 C94 1.239 . S
O83 Eu77 2.323 . S
O83 C94 1.249 . S
C84 C87 1.390 . S
C84 C89 1.370 . S
C84 C90 1.489 . S
C85 C86 1.344 . S
C85 C88 1.413 . S
C85 H108 0.931 . S
C86 C85 1.344 . S
C86 C87 1.423 . S
C87 C84 1.390 . S
C87 C86 1.423 . S
C87 H109 0.930 . S
C88 C85 1.413 . S
C88 C89 1.397 . S
C89 C84 1.370 . S
C89 C88 1.397 . S
C89 H110 0.932 . S
C90 Eu76 2.835 . S
C90 O78 1.258 . S
C90 O79 1.246 . S
C90 C84 1.489 . S
C91 O80 1.216 . S
C91 O81 1.279 . S
O92 Eu77 2.472 . S
O92 C105 1.258 . S
O93 Eu77 2.507 . S
O93 C105 1.246 . S
C94 O82 1.239 . S
C94 O83 1.249 . S
O95 Eu77 2.336 . S
O95 C106 1.279 . S
O96 Eu76 2.396 . S
O96 C106 1.216 . S
O97 Eu77 2.389 . S
O97 C107 1.239 . S
O98 Eu76 2.323 . S
O98 C107 1.249 . S
C99 C101 1.370 . S
C99 C104 1.390 . S
C99 C105 1.489 . S
C100 C101 1.397 . S
C100 C102 1.413 . S
C101 C99 1.370 . S
C101 C100 1.397 . S
C101 H111 0.932 . S
C102 C100 1.413 . S
C102 C103 1.344 . S
C102 H112 0.931 . S
C103 C102 1.344 . S
C103 C104 1.423 . S
C104 C99 1.390 . S
C104 C103 1.423 . S
C104 H113 0.930 . S
C105 Eu77 2.835 . S
C105 O92 1.258 . S
C105 O93 1.246 . S
C105 C99 1.489 . S
C106 O95 1.279 . S
C106 O96 1.216 . S
C107 O97 1.239 . S
C107 O98 1.249 . S
H108 C85 0.931 . S
H109 C87 0.930 . S
H110 C89 0.932 . S
H111 C101 0.932 . S
H112 C102 0.931 . S
H113 C104 0.930 . S
C114 C115 1.391 . S
C114 C116 1.394 . S
C114 H130 0.931 . S
C115 C114 1.391 . S
C115 C119 1.376 . S
C116 C114 1.394 . S
C116 C117 1.369 . S
C116 C120 1.531 1_545 S
C117 C116 1.369 . S
C117 C118 1.410 1_455 S
C117 C125 1.503 1_445 S
C118 C117 1.410 1_655 S
C118 C119 1.392 1_655 S
C118 C121 1.511 . S
C119 C115 1.376 . S
C119 C118 1.392 1_455 S
C119 H131 0.929 . S
C120 C116 1.531 1_565 S
C120 H132 0.960 . S
C120 H133 0.962 . S
C120 H134 0.960 . S
C121 C118 1.511 . S
C121 H135 0.961 . S
C121 H136 0.961 . S
C121 H137 0.961 . S
C122 C123 1.370 . S
C122 C124 1.354 . S
C122 H138 0.931 . S
C123 C122 1.370 . S
C123 C127 1.408 . S
C124 C122 1.354 . S
C124 C125 1.387 . S
C124 C128 1.518 1_665 S
C125 C117 1.503 1_665 S
C125 C124 1.387 . S
C125 C126 1.403 . S
C126 C125 1.403 . S
C126 C127 1.404 . S
C126 C129 1.539 . S
C127 C123 1.408 . S
C127 C126 1.404 . S
C127 H139 0.930 . S
C128 C124 1.518 1_445 S
C128 H140 0.956 . S
C128 H141 0.961 . S
C128 H142 0.961 . S
C129 C126 1.539 . S
C129 H143 0.958 . S
C129 H144 0.961 . S
C129 H145 0.960 . S
H130 C114 0.931 . S
H131 C119 0.929 . S
H132 C120 0.960 . S
H133 C120 0.962 . S
H134 C120 0.960 . S
H135 C121 0.961 . S
H136 C121 0.961 . S
H137 C121 0.961 . S
H138 C122 0.931 . S
H139 C127 0.930 . S
H140 C128 0.956 . S
H141 C128 0.961 . S
H142 C128 0.961 . S
H143 C129 0.958 . S
H144 C129 0.961 . S
H145 C129 0.960 . S
C146 C147 1.391 . S
C146 C148 1.394 . S
C146 H162 0.931 . S
C147 C146 1.391 . S
C147 C151 1.376 . S
C148 C146 1.394 . S
C148 C149 1.369 . S
C148 C152 1.531 . S
C149 C148 1.369 . S
C149 C150 1.410 . S
C149 C157 1.503 . S
C150 C149 1.410 . S
C150 C151 1.392 . S
C150 C153 1.511 . S
C151 C147 1.376 . S
C151 C150 1.392 . S
C151 H163 0.929 . S
C152 C148 1.531 . S
C152 H164 0.960 . S
C152 H165 0.962 . S
C152 H166 0.960 . S
C153 C150 1.511 . S
C153 H167 0.961 . S
C153 H168 0.961 . S
C153 H169 0.961 . S
C154 C155 1.370 1_556 S
C154 C156 1.363 . S
C154 H170 0.931 . S
C155 C154 1.370 1_554 S
C155 C159 1.408 . S
C156 C154 1.363 . S
C156 C157 1.370 . S
C156 C160 1.524 . S
C157 C149 1.503 . S
C157 C156 1.370 . S
C157 C158 1.403 . S
C158 C157 1.403 . S
C158 C159 1.404 1_556 S
C158 C161 1.539 . S
C159 C155 1.408 . S
C159 C158 1.404 1_554 S
C159 H171 0.930 . S
C160 C156 1.524 . S
C160 H172 0.956 . S
C160 H173 0.961 . S
C160 H174 0.961 . S
C161 C158 1.539 . S
C161 H175 0.958 . S
C161 H176 0.961 . S
C161 H177 0.960 . S
H162 C146 0.931 . S
H163 C151 0.929 . S
H164 C152 0.960 . S
H165 C152 0.962 . S
H166 C152 0.960 . S
H167 C153 0.961 . S
H168 C153 0.961 . S
H169 C153 0.961 . S
H170 C154 0.931 . S
H171 C159 0.930 . S
H172 C160 0.956 . S
H173 C160 0.961 . S
H174 C160 0.961 . S
H175 C161 0.958 . S
H176 C161 0.961 . S
H177 C161 0.960 . S
C178 C179 1.391 . S
C178 C180 1.394 1_556 S
C178 H194 0.931 . S
C179 C178 1.391 . S
C179 C183 1.376 1_556 S
C180 C178 1.394 1_554 S
C180 C181 1.369 . S
C180 C184 1.531 . S
C181 C180 1.369 . S
C181 C182 1.410 . S
C181 C189 1.503 . S
C182 C181 1.410 . S
C182 C183 1.392 . S
C182 C185 1.511 . S
C183 C179 1.376 1_554 S
C183 C182 1.392 . S
C183 H195 0.929 . S
C184 C180 1.531 . S
C184 H196 0.960 . S
C184 H197 0.962 . S
C184 H198 0.960 . S
C185 C182 1.511 . S
C185 H199 0.961 . S
C185 H200 0.961 . S
C185 H201 0.961 . S
C186 C187 1.370 . S
C186 C188 1.363 . S
C186 H202 0.931 . S
C187 C186 1.370 . S
C187 C191 1.408 . S
C188 C186 1.363 . S
C188 C189 1.370 . S
C188 C192 1.524 . S
C189 C181 1.503 . S
C189 C188 1.370 . S
C189 C190 1.403 . S
C190 C189 1.403 . S
C190 C191 1.404 . S
C190 C193 1.539 . S
C191 C187 1.408 . S
C191 C190 1.404 . S
C191 H203 0.930 . S
C192 C188 1.524 . S
C192 H204 0.956 . S
C192 H205 0.961 . S
C192 H206 0.961 . S
C193 C190 1.539 . S
C193 H207 0.958 . S
C193 H208 0.961 . S
C193 H209 0.960 . S
H194 C178 0.931 . S
H195 C183 0.929 . S
H196 C184 0.960 . S
H197 C184 0.962 . S
H198 C184 0.960 . S
H199 C185 0.961 . S
H200 C185 0.961 . S
H201 C185 0.961 . S
H202 C186 0.931 . S
H203 C191 0.930 . S
H204 C192 0.956 . S
H205 C192 0.961 . S
H206 C192 0.961 . S
H207 C193 0.958 . S
H208 C193 0.961 . S
H209 C193 0.960 . S
C210 C211 1.391 . S
C210 C212 1.394 . S
C210 H226 0.931 . S
C211 C210 1.391 . S
C211 C215 1.376 . S
C212 C210 1.394 . S
C212 C213 1.369 . S
C212 C216 1.531 . S
C213 C212 1.369 . S
C213 C214 1.410 . S
C213 C221 1.503 . S
C214 C213 1.410 . S
C214 C215 1.392 . S
C214 C217 1.511 . S
C215 C211 1.376 . S
C215 C214 1.392 . S
C215 H227 0.929 . S
C216 C212 1.531 . S
C216 H228 0.960 . S
C216 H229 0.962 . S
C216 H230 0.960 . S
C217 C214 1.511 . S
C217 H231 0.961 . S
C217 H232 0.961 . S
C217 H233 0.961 . S
C218 C219 1.370 . S
C218 C220 1.363 . S
C218 H234 0.931 . S
C219 C218 1.370 . S
C219 C223 1.408 . S
C220 C218 1.363 . S
C220 C221 1.370 . S
C220 C224 1.524 . S
C221 C213 1.503 . S
C221 C220 1.370 . S
C221 C222 1.403 . S
C222 C221 1.403 . S
C222 C223 1.404 . S
C222 C225 1.539 . S
C223 C219 1.408 . S
C223 C222 1.404 . S
C223 H235 0.930 . S
C224 C220 1.524 . S
C224 H236 0.956 . S
C224 H237 0.961 . S
C224 H238 0.961 . S
C225 C222 1.539 . S
C225 H239 0.958 . S
C225 H240 0.961 . S
C225 H241 0.960 . S
H226 C210 0.931 . S
H227 C215 0.929 . S
H228 C216 0.960 . S
H229 C216 0.962 . S
H230 C216 0.960 . S
H231 C217 0.961 . S
H232 C217 0.961 . S
H233 C217 0.961 . S
H234 C218 0.931 . S
H235 C223 0.930 . S
H236 C224 0.956 . S
H237 C224 0.961 . S
H238 C224 0.961 . S
H239 C225 0.958 . S
H240 C225 0.961 . S
H241 C225 0.960 . S
C242 C243 1.391 . S
C242 C244 1.394 . S
C242 H258 0.931 . S
C243 C242 1.391 . S
C243 C247 1.376 . S
C244 C242 1.394 . S
C244 C245 1.369 . S
C244 C248 1.531 . S
C245 C244 1.369 . S
C245 C246 1.410 . S
C245 C253 1.503 . S
C246 C245 1.410 . S
C246 C247 1.392 . S
C246 C249 1.511 . S
C247 C243 1.376 . S
C247 C246 1.392 . S
C247 H259 0.929 . S
C248 C244 1.531 . S
C248 H260 0.960 . S
C248 H261 0.962 . S
C248 H262 0.960 . S
C249 C246 1.511 . S
C249 H263 0.961 . S
C249 H264 0.961 . S
C249 H265 0.961 . S
C250 C251 1.370 . S
C250 C252 1.363 . S
C250 H266 0.931 . S
C251 C250 1.370 . S
C251 C255 1.408 . S
C252 C250 1.363 . S
C252 C253 1.370 . S
C252 C256 1.524 . S
C253 C245 1.503 . S
C253 C252 1.370 . S
C253 C254 1.403 . S
C254 C253 1.403 . S
C254 C255 1.404 . S
C254 C257 1.539 . S
C255 C251 1.408 . S
C255 C254 1.404 . S
C255 H267 0.930 . S
C256 C252 1.524 . S
C256 H268 0.956 . S
C256 H269 0.961 . S
C256 H270 0.961 . S
C257 C254 1.539 . S
C257 H271 0.958 . S
C257 H272 0.961 1_455 S
C257 H273 0.960 . S
H258 C242 0.931 . S
H259 C247 0.929 . S
H260 C248 0.960 . S
H261 C248 0.962 . S
H262 C248 0.960 . S
H263 C249 0.961 . S
H264 C249 0.961 . S
H265 C249 0.961 . S
H266 C250 0.931 . S
H267 C255 0.930 . S
H268 C256 0.956 . S
H269 C256 0.961 . S
H270 C256 0.961 . S
H271 C257 0.958 . S
H272 C257 0.961 1_655 S
H273 C257 0.960 . S
C274 C275 1.391 . S
C274 C276 1.394 . S
C274 H290 0.931 . S
C275 C274 1.391 . S
C275 C279 1.376 . S
C276 C274 1.394 . S
C276 C277 1.369 . S
C276 C280 1.531 . S
C277 C276 1.369 . S
C277 C278 1.410 . S
C277 C285 1.503 . S
C278 C277 1.410 . S
C278 C279 1.392 . S
C278 C281 1.511 . S
C279 C275 1.376 . S
C279 C278 1.392 . S
C279 H291 0.929 . S
C280 C276 1.531 . S
C280 H292 0.960 . S
C280 H293 0.962 . S
C280 H294 0.960 . S
C281 C278 1.511 . S
C281 H295 0.961 . S
C281 H296 0.961 . S
C281 H297 0.961 . S
C282 C283 1.370 . S
C282 C284 1.363 . S
C282 H298 0.931 . S
C283 C282 1.370 . S
C283 C287 1.408 . S
C284 C282 1.363 . S
C284 C285 1.370 . S
C284 C288 1.524 . S
C285 C277 1.503 . S
C285 C284 1.370 . S
C285 C286 1.403 . S
C286 C285 1.403 . S
C286 C287 1.404 . S
C286 C289 1.539 1_565 S
C287 C283 1.408 . S
C287 C286 1.404 . S
C287 H299 0.930 1_565 S
C288 C284 1.524 . S
C288 H300 0.956 . S
C288 H301 0.961 . S
C288 H302 0.961 . S
C289 C286 1.539 1_545 S
C289 H303 0.958 . S
C289 H304 0.961 . S
C289 H305 0.960 1_545 S
H290 C274 0.931 . S
H291 C279 0.929 . S
H292 C280 0.960 . S
H293 C280 0.962 . S
H294 C280 0.960 . S
H295 C281 0.961 . S
H296 C281 0.961 . S
H297 C281 0.961 . S
H298 C282 0.931 . S
H299 C287 0.930 1_545 S
H300 C288 0.956 . S
H301 C288 0.961 . S
H302 C288 0.961 . S
H303 C289 0.958 . S
H304 C289 0.961 . S
H305 C289 0.960 1_565 S
C306 C307 1.391 . S
C306 C308 1.394 . S
C306 H322 0.931 . S
C307 C306 1.391 . S
C307 C311 1.376 . S
C308 C306 1.394 . S
C308 C309 1.369 . S
C308 C312 1.531 . S
C309 C308 1.369 . S
C309 C310 1.410 . S
C309 C317 1.503 . S
C310 C309 1.410 . S
C310 C311 1.392 . S
C310 C313 1.511 . S
C311 C307 1.376 . S
C311 C310 1.392 . S
C311 H323 0.929 . S
C312 C308 1.531 . S
C312 H324 0.960 . S
C312 H325 0.962 . S
C312 H326 0.960 . S
C313 C310 1.511 . S
C313 H327 0.961 . S
C313 H328 0.961 . S
C313 H329 0.961 . S
C314 C315 1.370 . S
C314 C316 1.363 . S
C314 H330 0.931 . S
C315 C314 1.370 . S
C315 C319 1.408 . S
C316 C314 1.363 . S
C316 C317 1.370 . S
C316 C320 1.524 . S
C317 C309 1.503 . S
C317 C316 1.370 . S
C317 C318 1.403 . S
C318 C317 1.403 . S
C318 C319 1.404 . S
C318 C321 1.539 . S
C319 C315 1.408 . S
C319 C318 1.404 . S
C319 H331 0.930 . S
C320 C316 1.524 . S
C320 H332 0.956 . S
C320 H333 0.961 . S
C320 H334 0.961 . S
C321 C318 1.539 . S
C321 H335 0.958 . S
C321 H336 0.961 . S
C321 H337 0.960 . S
H322 C306 0.931 . S
H323 C311 0.929 . S
H324 C312 0.960 . S
H325 C312 0.962 . S
H326 C312 0.960 . S
H327 C313 0.961 . S
H328 C313 0.961 . S
H329 C313 0.961 . S
H330 C314 0.931 . S
H331 C319 0.930 . S
H332 C320 0.956 . S
H333 C320 0.961 . S
H334 C320 0.961 . S
H335 C321 0.958 . S
H336 C321 0.961 . S
H337 C321 0.960 . S
C338 C339 1.391 . S
C338 C340 1.394 . S
C338 H354 0.931 . S
C339 C338 1.391 . S
C339 C343 1.376 . S
C340 C338 1.394 . S
C340 C341 1.369 . S
C340 C344 1.531 . S
C341 C340 1.369 . S
C341 C342 1.410 . S
C341 C349 1.503 . S
C342 C341 1.410 . S
C342 C343 1.392 . S
C342 C345 1.511 . S
C343 C339 1.376 . S
C343 C342 1.392 . S
C343 H355 0.929 . S
C344 C340 1.531 . S
C344 H356 0.960 . S
C344 H357 0.962 . S
C344 H358 0.960 . S
C345 C342 1.511 . S
C345 H359 0.961 . S
C345 H360 0.961 . S
C345 H361 0.961 . S
C346 C347 1.370 . S
C346 C348 1.363 . S
C346 H362 0.931 . S
C347 C346 1.370 . S
C347 C351 1.408 . S
C348 C346 1.363 . S
C348 C349 1.370 . S
C348 C352 1.524 . S
C349 C341 1.503 . S
C349 C348 1.370 . S
C349 C350 1.403 . S
C350 C349 1.403 . S
C350 C351 1.404 . S
C350 C353 1.539 . S
C351 C347 1.408 . S
C351 C350 1.404 . S
C351 H363 0.930 . S
C352 C348 1.524 . S
C352 H364 0.956 . S
C352 H365 0.961 . S
C352 H366 0.961 . S
C353 C350 1.539 . S
C353 H367 0.958 . S
C353 H368 0.961 . S
C353 H369 0.960 . S
H354 C338 0.931 . S
H355 C343 0.929 . S
H356 C344 0.960 . S
H357 C344 0.962 . S
H358 C344 0.960 . S
H359 C345 0.961 . S
H360 C345 0.961 . S
H361 C345 0.961 . S
H362 C346 0.931 . S
H363 C351 0.930 . S
H364 C352 0.956 . S
H365 C352 0.961 . S
H366 C352 0.961 . S
H367 C353 0.958 . S
H368 C353 0.961 . S
H369 C353 0.960 . S
C370 C371 1.391 . S
C370 C372 1.394 . S
C370 H386 0.931 . S
C371 C370 1.391 . S
C371 C375 1.376 . S
C372 C370 1.394 . S
C372 C373 1.369 . S
C372 C376 1.531 . S
C373 C372 1.369 . S
C373 C374 1.410 . S
C373 C381 1.503 . S
C374 C373 1.410 . S
C374 C375 1.392 . S
C374 C377 1.511 . S
C375 C371 1.376 . S
C375 C374 1.392 . S
C375 H387 0.929 . S
C376 C372 1.531 . S
C376 H388 0.960 . S
C376 H389 0.962 . S
C376 H390 0.960 . S
C377 C374 1.511 . S
C377 H391 0.961 . S
C377 H392 0.961 . S
C377 H393 0.961 . S
C378 C379 1.370 . S
C378 C380 1.363 . S
C378 H394 0.931 . S
C379 C378 1.370 . S
C379 C383 1.408 . S
C380 C378 1.363 . S
C380 C381 1.370 . S
C380 C384 1.524 . S
C381 C373 1.503 . S
C381 C380 1.370 . S
C381 C382 1.403 . S
C382 C381 1.403 . S
C382 C383 1.404 . S
C382 C385 1.539 . S
C383 C379 1.408 . S
C383 C382 1.404 . S
C383 H395 0.930 . S
C384 C380 1.524 . S
C384 H396 0.956 . S
C384 H397 0.961 . S
C384 H398 0.961 . S
C385 C382 1.539 . S
C385 H399 0.958 . S
C385 H400 0.961 . S
C385 H401 0.960 . S
H386 C370 0.931 . S
H387 C375 0.929 . S
H388 C376 0.960 . S
H389 C376 0.962 . S
H390 C376 0.960 . S
H391 C377 0.961 . S
H392 C377 0.961 . S
H393 C377 0.961 . S
H394 C378 0.931 . S
H395 C383 0.930 . S
H396 C384 0.956 . S
H397 C384 0.961 . S
H398 C384 0.961 . S
H399 C385 0.958 . S
H400 C385 0.961 . S
H401 C385 0.960 . S
C402 C403 1.391 . S
C402 C404 1.394 . S
C402 H418 0.931 . S
C403 C402 1.391 . S
C403 C407 1.376 . S
C404 C402 1.394 . S
C404 C405 1.369 . S
C404 C408 1.531 . S
C405 C404 1.369 . S
C405 C406 1.410 . S
C405 C413 1.503 1_554 S
C406 C405 1.410 . S
C406 C407 1.392 . S
C406 C409 1.511 1_554 S
C407 C403 1.376 . S
C407 C406 1.392 . S
C407 H419 0.929 . S
C408 C404 1.531 . S
C408 H420 0.960 . S
C408 H421 0.962 . S
C408 H422 0.960 . S
C409 C406 1.511 1_556 S
C409 H423 0.961 . S
C409 H424 0.961 . S
C409 H425 0.961 1_556 S
C410 C411 1.370 . S
C410 C412 1.363 . S
C410 H426 0.931 . S
C411 C410 1.370 . S
C411 C415 1.408 . S
C412 C410 1.363 . S
C412 C413 1.370 . S
C412 C416 1.524 . S
C413 C405 1.503 1_556 S
C413 C412 1.370 . S
C413 C414 1.403 . S
C414 C413 1.403 . S
C414 C415 1.404 . S
C414 C417 1.539 1_556 S
C415 C411 1.408 . S
C415 C414 1.404 . S
C415 H427 0.930 . S
C416 C412 1.524 . S
C416 H428 0.956 . S
C416 H429 0.961 . S
C416 H430 0.961 . S
C417 C414 1.539 1_554 S
C417 H431 0.958 . S
C417 H432 0.961 . S
C417 H433 0.960 . S
H418 C402 0.931 . S
H419 C407 0.929 . S
H420 C408 0.960 . S
H421 C408 0.962 . S
H422 C408 0.960 . S
H423 C409 0.961 . S
H424 C409 0.961 . S
H425 C409 0.961 1_554 S
H426 C410 0.931 . S
H427 C415 0.930 . S
H428 C416 0.956 . S
H429 C416 0.961 . S
H430 C416 0.961 . S
H431 C417 0.958 . S
H432 C417 0.961 . S
H433 C417 0.960 . S
C434 C435 1.391 . S
C434 C436 1.394 . S
C434 H450 0.931 . S
C435 C434 1.391 . S
C435 C439 1.376 . S
C436 C434 1.394 . S
C436 C437 1.369 . S
C436 C440 1.531 . S
C437 C436 1.369 . S
C437 C438 1.410 . S
C437 C445 1.503 1_566 S
C438 C437 1.410 . S
C438 C439 1.392 . S
C438 C441 1.511 1_566 S
C439 C435 1.376 . S
C439 C438 1.392 . S
C439 H451 0.929 . S
C440 C436 1.531 . S
C440 H452 0.960 1_556 S
C440 H453 0.962 . S
C440 H454 0.960 . S
C441 C438 1.511 1_544 S
C441 H455 0.961 1_554 S
C441 H456 0.961 . S
C441 H457 0.961 . S
C442 C443 1.370 . S
C442 C444 1.363 . S
C442 H458 0.931 . S
C443 C442 1.370 . S
C443 C447 1.408 . S
C444 C442 1.363 . S
C444 C445 1.370 . S
C444 C448 1.524 1_554 S
C445 C437 1.503 1_544 S
C445 C444 1.370 . S
C445 C446 1.403 . S
C446 C445 1.403 . S
C446 C447 1.404 . S
C446 C449 1.539 1_545 S
C447 C443 1.408 . S
C447 C446 1.404 . S
C447 H459 0.930 . S
C448 C444 1.524 1_556 S
C448 H460 0.956 . S
C448 H461 0.961 . S
C448 H462 0.961 . S
C449 C446 1.539 1_565 S
C449 H463 0.958 . S
C449 H464 0.961 1_565 S
C449 H465 0.960 . S
H450 C434 0.931 . S
H451 C439 0.929 . S
H452 C440 0.960 1_554 S
H453 C440 0.962 . S
H454 C440 0.960 . S
H455 C441 0.961 1_556 S
H456 C441 0.961 . S
H457 C441 0.961 . S
H458 C442 0.931 . S
H459 C447 0.930 . S
H460 C448 0.956 . S
H461 C448 0.961 . S
H462 C448 0.961 . S
H463 C449 0.958 . S
H464 C449 0.961 1_545 S
H465 C449 0.960 . S
C466 C467 1.392 . S
C466 C468 1.393 1_455 S
C466 H482 0.931 1_455 S
C467 C466 1.392 . S
C467 C471 1.376 . S
C468 C466 1.393 1_655 S
C468 C469 1.369 1_655 S
C468 C472 1.531 . S
C469 C468 1.369 1_455 S
C469 C470 1.410 1_556 S
C469 C477 1.503 1_456 S
C470 C469 1.410 1_554 S
C470 C471 1.392 1_554 S
C470 C473 1.511 . S
C471 C467 1.376 . S
C471 C470 1.392 1_556 S
C471 H483 0.929 1_556 S
C472 C468 1.531 . S
C472 H484 0.960 . S
C472 H485 0.962 . S
C472 H486 0.960 . S
C473 C470 1.511 . S
C473 H487 0.961 . S
C473 H488 0.961 . S
C473 H489 0.961 . S
C474 C475 1.370 . S
C474 C476 1.363 . S
C474 H490 0.931 . S
C475 C474 1.370 . S
C475 C479 1.408 . S
C476 C474 1.363 . S
C476 C477 1.370 . S
C476 C480 1.524 1_655 S
C477 C469 1.503 1_654 S
C477 C476 1.370 . S
C477 C478 1.403 . S
C478 C477 1.403 . S
C478 C479 1.404 . S
C478 C481 1.539 1_554 S
C479 C475 1.408 . S
C479 C478 1.404 . S
C479 H491 0.930 . S
C480 C476 1.524 1_455 S
C480 H492 0.956 1_554 S
C480 H493 0.961 . S
C480 H494 0.961 . S
C481 C478 1.539 1_556 S
C481 H495 0.958 . S
C481 H496 0.961 1_556 S
C481 H497 0.960 . S
H482 C466 0.931 1_655 S
H483 C471 0.929 1_554 S
H484 C472 0.960 . S
H485 C472 0.962 . S
H486 C472 0.960 . S
H487 C473 0.961 . S
H488 C473 0.961 . S
H489 C473 0.961 . S
H490 C474 0.931 . S
H491 C479 0.930 . S
H492 C480 0.956 1_556 S
H493 C480 0.961 . S
H494 C480 0.961 . S
H495 C481 0.958 . S
H496 C481 0.961 1_554 S
H497 C481 0.960 . S
C115 C24 0.651 . S
C123 C12 0.711 . S
C147 C50 0.767 . S
C155 C62 0.677 . S
C179 C88 0.730 . S
C187 C100 0.679 . S
C211 C94 2.074 . S
C219 C31 2.087 . S
C243 C91 1.368 . S
C251 C30 1.326 . S
C275 C103 2.165 . S
C283 C10 2.183 . S
C307 C69 2.074 . S
C315 C18 2.088 . S
C339 C68 1.310 . S
C347 C15 1.351 . S
C371 C48 2.144 . S
C379 C27 2.194 . S
C403 C56 2.078 . S
C411 C107 2.085 . S
C435 C106 1.318 . S
C443 C53 1.346 . S
C467 C86 2.155 . S
C475 C65 2.191 . S
