# Generated by pormake.
# Topology rob, (6)-cn, num edge types: 1
# Building blocks:
#     Node 0, Type 0, BuildingBlock: FUNLAD_clean_sbu_0, # of connection points: 6
#     Node 1, Type 0, BuildingBlock: FUNLAD_clean_sbu_0, # of connection points: 6
#     Node 2, Type 0, BuildingBlock: FUNLAD_clean_sbu_0, # of connection points: 6
#     Node 3, Type 0, BuildingBlock: FUNLAD_clean_sbu_0, # of connection points: 6
#     Edge 4, Type (0, 0), BuildingBlock: UVAHIK_clean_linker_0, # of connection points: 2
#     Edge 5, Type (0, 0), BuildingBlock: UVAHIK_clean_linker_0, # of connection points: 2
#     Edge 6, Type (0, 0), BuildingBlock: UVAHIK_clean_linker_0, # of connection points: 2
#     Edge 7, Type (0, 0), BuildingBlock: UVAHIK_clean_linker_0, # of connection points: 2
#     Edge 8, Type (0, 0), BuildingBlock: UVAHIK_clean_linker_0, # of connection points: 2
#     Edge 9, Type (0, 0), BuildingBlock: UVAHIK_clean_linker_0, # of connection points: 2
#     Edge 10, Type (0, 0), BuildingBlock: UVAHIK_clean_linker_0, # of connection points: 2
#     Edge 11, Type (0, 0), BuildingBlock: UVAHIK_clean_linker_0, # of connection points: 2
#     Edge 12, Type (0, 0), BuildingBlock: UVAHIK_clean_linker_0, # of connection points: 2
#     Edge 13, Type (0, 0), BuildingBlock: UVAHIK_clean_linker_0, # of connection points: 2
#     Edge 14, Type (0, 0), BuildingBlock: UVAHIK_clean_linker_0, # of connection points: 2
#     Edge 15, Type (0, 0), BuildingBlock: UVAHIK_clean_linker_0, # of connection points: 2
# Relax obj value: 0.163
# Max RMSD: 0.167
# Mean RMSD: 0.167
data_MOF--net-rob--node1-FUNLAD_clean_sbu_0--edge1-UVAHIK_clean_linker_0
_symmetry_space_group_name_H-M    P1
_symmetry_Int_Tables_number       1
_symmetry_cell_setting            triclinic
loop_
_symmetry_equiv_pos_as_xyz
'x, y, z'
_cell_length_a     20.436093
_cell_length_b     48.372036
_cell_length_c     30.391104
_cell_angle_alpha  92.68795
_cell_angle_beta   89.888703
_cell_angle_gamma 90.00636
loop_
_atom_site_label
_atom_site_type_symbol
_atom_site_fract_x
_atom_site_fract_y
_atom_site_fract_z
_atom_type_partial_charge
C0 C 0.28953 0.24839 0.90502 0.0
N1 N 0.31759 0.32074 0.98443 0.0
C2 C 0.38023 0.32266 0.9696 0.0
C3 C 0.41156 0.34837 0.96963 0.0
C4 C 0.37815 0.37226 0.9853 0.0
C5 C 0.31335 0.36963 -6e-05 0.0
C6 C 0.28391 0.34361 -0.00083 0.0
Zn7 Zn 0.27188 0.28319 -0.01358 0.0
C8 C 0.13533 0.28577 0.95193 0.0
N9 N 0.1726 0.20561 -0.00835 0.0
C10 C 0.20632 0.18278 0.97679 0.0
C11 C 0.10991 0.20364 0.00639 0.0
C12 C 0.07856 0.17792 0.00607 0.0
C13 C 0.11199 0.15408 -0.0098 0.0
C14 C 0.17687 0.15676 0.97574 0.0
Zn15 Zn 0.21831 0.24317 -0.01026 0.0
O16 O 0.30632 0.2716 0.92284 0.0
C17 C 0.35489 0.2405 0.02406 0.0
O18 O 0.25255 0.23242 0.92579 0.0
H19 H 0.08395 0.22207 0.01798 0.0
H20 H 0.40616 0.3042 0.95811 0.0
H21 H 0.25618 0.18474 0.96539 0.0
O22 O 0.35566 0.26569 0.01396 0.0
O23 O 0.30337 0.22621 0.01736 0.0
H24 H 0.23408 0.34167 0.01065 0.0
O25 O 0.18413 0.25466 0.05328 0.0
O26 O 0.23736 0.294 0.05042 0.0
O27 O 0.13458 0.26066 0.96242 0.0
O28 O 0.18683 0.30011 0.95845 0.0
C29 C 0.20061 0.2779 0.07115 0.0
H30 H 0.46176 0.34946 0.95836 0.0
H31 H 0.28544 0.38754 0.01163 0.0
H32 H 0.02831 0.17679 0.01723 0.0
H33 H 0.20482 0.13888 0.96392 0.0
C34 C 0.78214 0.75158 0.89908 0.0
N35 N 0.79301 0.82476 0.97899 0.0
C36 C 0.85241 0.82999 0.96087 0.0
C37 C 0.87563 0.8571 0.9597 0.0
C38 C 0.83739 0.8791 0.97732 0.0
C39 C 0.77586 0.8731 -0.00474 0.0
C40 C 0.75457 0.84568 -0.00422 0.0
Zn41 Zn 0.76231 0.78471 0.98302 0.0
C42 C 0.6245 0.7769 0.95689 0.0
N43 N 0.70106 0.70075 -0.00778 0.0
C44 C 0.73908 0.67972 0.97536 0.0
C45 C 0.64177 0.69572 0.01063 0.0
C46 C 0.61821 0.66868 0.01207 0.0
C47 C 0.65601 0.64655 -0.00558 0.0
C48 C 0.71744 0.65236 0.97615 0.0
Zn49 Zn 0.73197 0.74074 -0.01192 0.0
O50 O 0.78946 0.77578 0.91656 0.0
C51 C 0.86974 0.7484 0.01407 0.0
O52 O 0.75948 0.73249 0.92201 0.0
H53 H 0.61223 0.71275 0.02371 0.0
H54 H 0.88229 0.81305 0.94785 0.0
H55 H 0.78609 0.68417 0.96091 0.0
O56 O 0.85636 0.77315 0.00494 0.0
O57 O 0.82601 0.72985 0.00928 0.0
H58 H 0.70749 0.84108 0.01001 0.0
O59 O 0.70534 0.74955 0.05438 0.0
O60 O 0.73441 0.79297 0.04929 0.0
O61 O 0.63808 0.75226 0.96647 0.0
O62 O 0.66809 0.79553 0.9614 0.0
C63 C 0.71231 0.77369 0.07209 0.0
H64 H 0.92371 0.86069 0.94605 0.0
H65 H 0.74435 0.88941 0.00866 0.0
H66 H 0.57021 0.66525 0.02595 0.0
H67 H 0.7486 0.63593 0.9627 0.0
C68 C 0.28164 0.76937 0.57105 0.0
N69 N 0.29447 0.69658 0.4904 0.0
C70 C 0.35407 0.69165 0.5083 0.0
C71 C 0.37833 0.66469 0.50901 0.0
C72 C 0.34086 0.64254 0.49124 0.0
C73 C 0.27898 0.64819 0.47371 0.0
C74 C 0.2567 0.67548 0.47355 0.0
Zn75 Zn 0.26269 0.7365 0.48677 0.0
C76 C 0.12477 0.74368 0.51297 0.0
N77 N 0.19984 0.82031 0.47855 0.0
C78 C 0.23724 0.84146 0.4956 0.0
C79 C 0.14027 0.82511 0.46051 0.0
C80 C 0.11562 0.852 0.4599 0.0
C81 C 0.15266 0.87421 0.47794 0.0
C82 C 0.21455 0.8687 0.49554 0.0
Zn83 Zn 0.23177 0.78044 0.48221 0.0
O84 O 0.28935 0.74526 0.55329 0.0
C85 C 0.36965 0.77341 0.45616 0.0
O86 O 0.25883 0.78852 0.54836 0.0
H87 H 0.1114 0.808 0.44703 0.0
H88 H 0.38324 0.70871 0.52162 0.0
H89 H 0.28433 0.83717 0.50995 0.0
O90 O 0.35654 0.74858 0.46499 0.0
O91 O 0.32563 0.79183 0.46113 0.0
H92 H 0.20958 0.67986 0.4593 0.0
O93 O 0.20562 0.77181 0.41585 0.0
O94 O 0.23523 0.72841 0.42041 0.0
O95 O 0.13807 0.76841 0.50368 0.0
O96 O 0.16865 0.72517 0.50828 0.0
C97 C 0.21297 0.74775 0.39786 0.0
H98 H 0.42593 0.66124 0.52337 0.0
H99 H 0.24878 0.63178 0.45923 0.0
H100 H 0.06803 0.85537 0.44547 0.0
H101 H 0.24442 0.88516 0.51021 0.0
C102 C 0.78852 0.27312 0.57018 0.0
N103 N 0.8172 0.2005 0.49144 0.0
C104 C 0.87948 0.19869 0.50681 0.0
C105 C 0.91033 0.17295 0.50828 0.0
C106 C 0.87672 0.14885 0.49382 0.0
C107 C 0.81251 0.15142 0.47813 0.0
C108 C 0.7836 0.1775 0.47727 0.0
Zn109 Zn 0.77169 0.23803 0.48861 0.0
C110 C 0.63468 0.23566 0.5228 0.0
N111 N 0.67295 0.31567 0.48259 0.0
C112 C 0.70646 0.33869 0.49678 0.0
C113 C 0.61078 0.31745 0.46702 0.0
C114 C 0.57998 0.34319 0.46528 0.0
C115 C 0.61354 0.36732 0.47968 0.0
C116 C 0.6776 0.36477 0.49566 0.0
Zn117 Zn 0.7185 0.27814 0.48546 0.0
O118 O 0.80516 0.24989 0.55228 0.0
C119 C 0.85555 0.2806 0.45146 0.0
O120 O 0.75179 0.28917 0.54947 0.0
H121 H 0.58505 0.29889 0.45584 0.0
H122 H 0.90527 0.21724 0.51797 0.0
H123 H 0.75575 0.33684 0.50918 0.0
O124 O 0.85598 0.25537 0.46133 0.0
O125 O 0.80408 0.29493 0.45813 0.0
H126 H 0.73422 0.17937 0.46504 0.0
O127 O 0.68532 0.26637 0.42183 0.0
O128 O 0.73813 0.22694 0.42454 0.0
O129 O 0.63425 0.26081 0.51252 0.0
O130 O 0.68613 0.22128 0.5163 0.0
C131 C 0.70163 0.24312 0.40388 0.0
H132 H 0.95964 0.17191 0.52107 0.0
H133 H 0.78508 0.1335 0.46599 0.0
H134 H 0.53078 0.34421 0.45229 0.0
H135 H 0.70498 0.38271 0.50776 0.0
C136 C 0.59607 0.60835 0.03071 0.0
C137 C 0.63089 0.6177 -0.00567 0.0
C138 C 0.57082 0.58149 0.03008 0.0
C139 C 0.58764 0.51218 0.97492 0.0
H140 H 0.41152 0.50153 0.01869 0.0
C141 C 0.44929 0.40804 0.95154 0.0
C142 C 0.41048 0.39979 -0.01317 0.0
C143 C 0.47785 0.43435 0.95262 0.0
C144 C 0.46108 0.50407 0.00685 0.0
H145 H 0.66616 0.60609 0.92865 0.0
H146 H 0.62239 0.55917 0.9277 0.0
H147 H 0.4585 0.54784 0.02062 0.0
H148 H 0.37317 0.4123 0.05159 0.0
H149 H 0.42322 0.45802 0.05362 0.0
H150 H 0.59021 0.46837 0.96122 0.0
C151 C 0.61533 0.57254 0.95692 0.0
C152 C 0.48798 0.53063 0.00794 0.0
C153 C 0.64047 0.59943 0.95751 0.0
C154 C 0.40179 0.41823 0.02351 0.0
C155 C 0.43043 0.44445 0.02465 0.0
C156 C 0.56076 0.48557 0.97391 0.0
C157 C 0.57988 0.56332 -0.0069 0.0
C158 C 0.55158 0.535 -0.00796 0.0
C159 C 0.46838 0.45294 -0.01091 0.0
C160 C 0.49717 0.4812 -0.01007 0.0
H161 H 0.58873 0.62172 0.05988 0.0
H162 H 0.54462 0.57486 0.05876 0.0
H163 H 0.63706 0.51483 0.9629 0.0
H164 H 0.45633 0.39441 0.92262 0.0
H165 H 0.50614 0.44034 0.92445 0.0
C166 C 0.32621 0.59143 0.49958 0.0
C167 C 0.36685 0.61382 0.48995 0.0
C168 C 0.35064 0.56439 0.49764 0.0
C169 C 0.48353 0.5215 0.44841 0.0
H170 H 0.441 0.47151 0.54035 0.0
C171 C 0.61868 0.41806 0.46596 0.0
C172 C 0.58221 0.39501 0.4783 0.0
C173 C 0.59012 0.44428 0.46604 0.0
C174 C 0.45261 0.48507 0.51407 0.0
H175 H 0.46488 0.6253 0.47031 0.0
H176 H 0.50768 0.57822 0.46749 0.0
H177 H 0.39552 0.51819 0.54345 0.0
H178 H 0.48681 0.38152 0.50019 0.0
H179 H 0.43651 0.42724 0.49942 0.0
H180 H 0.54064 0.48847 0.41901 0.0
C181 C 0.45679 0.58154 0.47626 0.0
C182 C 0.42661 0.51184 0.51589 0.0
C183 C 0.43247 0.60856 0.47839 0.0
C184 C 0.51615 0.39878 0.49015 0.0
C185 C 0.48753 0.42505 0.49021 0.0
C186 C 0.50938 0.49474 0.44652 0.0
C187 C 0.41615 0.55914 0.48577 0.0
C188 C 0.44218 0.53043 0.48325 0.0
C189 C 0.52429 0.44814 0.47837 0.0
C190 C 0.49465 0.47625 0.47949 0.0
H191 H 0.27558 0.59482 0.50895 0.0
H192 H 0.31796 0.54756 0.50484 0.0
H193 H 0.49556 0.53517 0.42234 0.0
H194 H 0.66944 0.41585 0.45611 0.0
H195 H 0.62009 0.46164 0.45718 0.0
C196 C 0.08857 0.1083 0.95133 0.0
C197 C 0.07962 0.12655 -0.01178 0.0
C198 C 0.06008 0.08204 0.9498 0.0
C199 C 0.93 0.04037 -0.00029 0.0
H200 H 0.0335 0.97856 0.9527 0.0
C201 C 0.85183 0.92618 0.01467 0.0
C202 C 0.86212 0.90804 0.97777 0.0
C203 C 0.87651 0.95316 0.01558 0.0
C204 C 0.00366 0.99564 0.96545 0.0
H205 H 0.03334 0.13158 0.05233 0.0
H206 H 0.98378 0.08558 0.0498 0.0
H207 H 0.07975 0.025 0.95525 0.0
H208 H 0.90508 0.90434 0.91244 0.0
H209 H 0.94834 0.95135 0.91412 0.0
H210 H 0.85406 0.01085 0.01017 0.0
C211 C 0.01219 0.09175 0.02179 0.0
C212 C 0.03016 0.02228 0.96691 0.0
C213 C 0.04061 0.11809 0.02327 0.0
C214 C 0.89719 0.91761 0.94166 0.0
C215 C 0.92196 0.94456 0.94261 0.0
C216 C 0.90352 0.01368 -0.00166 0.0
C217 C 0.02202 0.07333 0.98516 0.0
C218 C 0.99363 0.04499 0.98394 0.0
C219 C 0.91218 0.96261 0.97967 0.0
C220 C 0.94002 0.99102 0.9811 0.0
H221 H 0.11732 0.11439 0.92342 0.0
H222 H 0.06755 0.06862 0.9207 0.0
H223 H 0.90023 0.05745 0.0125 0.0
H224 H 0.82594 0.91936 0.04333 0.0
H225 H 0.8689 0.96641 0.04486 0.0
C226 C 0.97417 0.11752 0.48254 0.0
C227 C 0.90821 0.12117 0.49472 0.0
C228 C 0.00292 0.09127 0.48196 0.0
C229 C 0.98193 0.02128 0.52466 0.0
H230 H 0.0953 0.99859 0.42706 0.0
C231 C 0.06043 0.90781 0.49113 0.0
C232 C 0.12612 0.90283 0.47948 0.0
C233 C 0.0356 0.93474 0.49357 0.0
C234 C 0.06434 1.00473 0.45478 0.0
H235 H 0.82131 0.10012 0.51698 0.0
H236 H 0.87089 0.05435 0.515 0.0
H237 H 0.04926 0.04517 0.43094 0.0
H238 H 0.217 0.9222 0.46064 0.0
H239 H 0.17372 0.96932 0.46527 0.0
H240 H -0.00354 0.98074 0.54822 0.0
C241 C 0.90067 0.0718 0.50627 0.0
C242 C 0.03802 0.03144 0.45706 0.0
C243 C 0.87198 0.09801 0.50688 0.0
C244 C 0.16633 0.92539 0.47006 0.0
C245 C 0.14139 0.95234 0.47231 0.0
C246 C 0.00808 0.99458 0.52231 0.0
C247 C 0.9664 0.06807 0.4936 0.0
C248 C 0.9962 0.03999 0.49191 0.0
C249 C 0.07581 0.95732 0.4843 0.0
C250 C 0.04929 0.98594 0.48723 0.0
H251 H 0.00332 0.13487 0.47261 0.0
H252 H 0.05387 0.08918 0.4725 0.0
H253 H 0.95084 0.02734 0.55236 0.0
H254 H 0.02835 0.89092 0.49906 0.0
H255 H 0.98468 0.93785 0.50243 0.0
C256 C 0.62046 0.24723 0.34371 0.0
C257 C 0.67695 0.23473 0.35982 0.0
C258 C 0.59568 0.23893 0.30256 0.0
C259 C 0.63738 0.2146 0.19457 0.0
H260 H 0.45324 0.1956 0.18661 0.0
C261 C 0.40563 0.20253 0.06535 0.0
C262 C 0.41049 0.22888 0.04797 0.0
C263 C 0.45159 0.19398 0.09577 0.0
C264 C 0.50513 0.20013 0.18802 0.0
H265 H 0.75265 0.20415 0.34539 0.0
H266 H 0.70991 0.19027 0.27214 0.0
H267 H 0.50628 0.19878 0.25828 0.0
H268 H 0.47122 0.26554 0.04478 0.0
H269 H 0.55075 0.25078 0.09821 0.0
H270 H 0.63497 0.21789 0.12445 0.0
C271 C 0.68464 0.20611 0.292 0.0
C272 C 0.5352 0.20216 0.22909 0.0
C273 C 0.70882 0.21403 0.33373 0.0
C274 C 0.46567 0.24527 0.05806 0.0
C275 C 0.51168 0.23668 0.08839 0.0
C276 C 0.60702 0.21289 0.15333 0.0
C277 C 0.62752 0.21835 0.27645 0.0
C278 C 0.60075 0.21041 0.23277 0.0
C279 C 0.50321 0.21158 0.10917 0.0
C280 C 0.53996 0.20665 0.14994 0.0
H281 H 0.59483 0.26316 0.36317 0.0
H282 H 0.55188 0.24883 0.29084 0.0
H283 H 0.68808 0.22105 0.19687 0.0
H284 H 0.36415 0.18923 0.05769 0.0
H285 H 0.44447 0.17436 0.11091 0.0
C286 C 0.68565 0.75689 0.1464 0.0
C287 C 0.69636 0.77908 0.11908 0.0
C288 C 0.67007 0.76181 0.19076 0.0
C289 C 0.66509 0.77827 0.28843 0.0
H290 H 0.51189 0.82446 0.30792 0.0
C291 C 0.44626 0.80727 0.4236 0.0
C292 C 0.43205 0.77998 0.43444 0.0
C293 C 0.49747 0.81261 0.3947 0.0
C294 C 0.55587 0.81214 0.30371 0.0
H295 H 0.7004 0.82383 0.11691 0.0
H296 H 0.67148 0.83239 0.19454 0.0
H297 H 0.56687 0.82368 0.23704 0.0
H298 H 0.46431 0.73728 0.42708 0.0
H299 H 0.55187 0.74639 0.37595 0.0
H300 H 0.65282 0.76598 0.35466 0.0
C301 C 0.67574 0.81123 0.18151 0.0
C302 C 0.58722 0.81163 0.26288 0.0
C303 C 0.69215 0.80631 0.13716 0.0
C304 C 0.47366 0.75852 0.41911 0.0
C305 C 0.5244 0.76382 0.38994 0.0
C306 C 0.63414 0.77899 0.32948 0.0
C307 C 0.66424 0.789 0.20862 0.0
C308 C 0.64035 0.79382 0.25429 0.0
C309 C 0.535 0.79074 0.37582 0.0
C310 C 0.57739 0.79499 0.33693 0.0
H311 H 0.68896 0.73567 0.13351 0.0
H312 H 0.6604 0.74429 0.21075 0.0
H313 H 0.70673 0.7647 0.28277 0.0
H314 H 0.41564 0.82432 0.43547 0.0
H315 H 0.50537 0.83368 0.38532 0.0
C316 C 0.521 0.76088 0.92066 0.0
C317 C 0.56228 0.78279 0.93455 0.0
C318 C 0.4708 0.76517 0.89075 0.0
C319 C 0.36226 0.77806 0.82825 0.0
H320 H 0.42905 0.82102 0.73337 0.0
C321 C 0.30194 0.80242 0.63538 0.0
C322 C 0.29815 0.77505 0.61784 0.0
C323 C 0.31908 0.80777 0.67943 0.0
C324 C 0.40892 0.8094 0.75985 0.0
H325 H 0.57846 0.82702 0.9322 0.0
H326 H 0.48946 0.83468 0.88086 0.0
H327 H 0.48358 0.82353 0.80429 0.0
H328 H 0.30711 0.73183 0.63299 0.0
H329 H 0.33687 0.74121 0.70991 0.0
H330 H 0.29038 0.76247 0.78218 0.0
C331 C 0.49734 0.81398 0.89189 0.0
C332 C 0.43996 0.81092 0.80072 0.0
C333 C 0.5481 0.80963 0.92152 0.0
C334 C 0.31005 0.75313 0.64548 0.0
C335 C 0.32636 0.75849 0.68962 0.0
C336 C 0.33171 0.77629 0.78714 0.0
C337 C 0.4603 0.79155 0.87443 0.0
C338 C 0.41848 0.79451 0.83496 0.0
C339 C 0.33179 0.78585 0.70685 0.0
C340 C 0.35616 0.79126 0.75221 0.0
H341 H 0.53028 0.73997 0.93033 0.0
H342 H 0.44373 0.74732 0.87796 0.0
H343 H 0.34356 0.7656 0.85417 0.0
H344 H 0.29282 0.81974 0.61489 0.0
H345 H 0.32294 0.82904 0.69198 0.0
C346 C 0.58481 0.19889 0.56715 0.0
C347 C 0.579 0.22439 0.54717 0.0
C348 C 0.53915 0.19132 0.5986 0.0
C349 C 0.48675 0.2016 0.69064 0.0
H350 H 0.30268 0.22084 0.69857 0.0
C351 C 0.37025 0.25209 0.84415 0.0
C352 C 0.31409 0.23967 0.861 0.0
C353 C 0.39522 0.24313 0.80326 0.0
C354 C 0.35377 0.21493 0.69661 0.0
H355 H 0.51673 0.26025 0.54017 0.0
H356 H 0.43765 0.24718 0.59528 0.0
H357 H 0.35509 0.21485 0.62602 0.0
H358 H 0.23895 0.20863 0.84807 0.0
H359 H 0.28203 0.19353 0.77546 0.0
H360 H 0.48655 0.20351 0.76111 0.0
C361 C 0.47729 0.23303 0.58682 0.0
C362 C 0.38369 0.21157 0.65529 0.0
C363 C 0.52302 0.24066 0.55553 0.0
C364 C 0.28255 0.21846 0.83585 0.0
C365 C 0.30692 0.20986 0.79445 0.0
C366 C 0.45711 0.20529 0.73176 0.0
C367 C 0.48691 0.20905 0.61034 0.0
C368 C 0.45101 0.20582 0.65206 0.0
C369 C 0.36387 0.22193 0.77822 0.0
C370 C 0.3911 0.21294 0.73503 0.0
H371 H 0.62696 0.1857 0.5609 0.0
H372 H 0.54714 0.17253 0.61589 0.0
H373 H 0.53886 0.19753 0.6893 0.0
H374 H 0.39559 0.26842 0.86286 0.0
H375 H 0.43887 0.25292 0.79099 0.0
C376 C 0.94679 0.71481 0.04666 0.0
C377 C 0.93208 0.74206 0.0359 0.0
C378 C -0.00211 0.70962 0.07559 0.0
C379 C 0.13371 0.74358 0.1408 0.0
H380 H 0.06758 0.69822 0.23295 0.0
C381 C 0.18604 0.76487 0.32386 0.0
C382 C 0.19707 0.74256 0.35086 0.0
C383 C 0.17029 0.76014 0.27954 0.0
C384 C 0.08762 0.71047 0.20719 0.0
H385 H 0.96327 0.78488 0.04355 0.0
H386 H 0.05069 0.77603 0.09473 0.0
H387 H 0.01236 0.6976 0.1623 0.0
H388 H 0.20156 0.69779 0.35244 0.0
H389 H 0.17238 0.68956 0.27486 0.0
H390 H 0.20625 0.75786 0.18735 0.0
C391 C 0.02369 0.75852 0.08063 0.0
C392 C 0.05613 0.71005 0.16649 0.0
C393 C 0.97306 0.76366 0.05142 0.0
C394 C 0.19307 0.7154 0.33245 0.0
C395 C 0.17649 0.71067 0.28813 0.0
C396 C 0.16481 0.74419 0.18172 0.0
C397 C 0.03482 0.7316 0.0946 0.0
C398 C 0.07725 0.72741 0.13338 0.0
C399 C 0.16461 0.73302 0.26136 0.0
C400 C 0.14052 0.72839 0.21576 0.0
H401 H 0.91666 0.69765 0.03466 0.0
H402 H 0.00621 0.68856 0.08485 0.0
H403 H 0.15208 0.75675 0.11571 0.0
H404 H 0.18918 0.78603 0.337 0.0
H405 H 0.16035 0.77775 0.25983 0.0
C406 C 0.90722 0.31875 0.411 0.0
C407 C 0.91152 0.29224 0.42783 0.0
C408 C 0.95343 0.32739 0.3807 0.0
C409 C 0.1082 0.30821 0.32215 0.0
H410 H 0.00699 0.32296 0.21794 0.0
C411 C 0.11949 0.27408 0.13165 0.0
C412 C 0.17617 0.28636 0.11529 0.0
C413 C 0.09512 0.28245 0.17295 0.0
C414 C 0.03605 0.3194 0.24692 0.0
H415 H 0.97159 0.25535 0.43029 0.0
H416 H 0.05152 0.27025 0.37704 0.0
H417 H 0.95457 0.3262 0.28994 0.0
H418 H 0.25264 0.31662 0.12938 0.0
H419 H 0.21061 0.33062 0.20285 0.0
H420 H 0.18872 0.29979 0.27806 0.0
C421 C 0.01271 0.28441 0.38719 0.0
C422 C 0.00635 0.32147 0.28819 0.0
C423 C 0.96646 0.27575 0.41741 0.0
C424 C 0.20863 0.30692 0.14124 0.0
C425 C 0.18487 0.3149 0.1831 0.0
C426 C 0.1382 0.30646 0.28073 0.0
C427 C 0.00471 0.30969 0.36687 0.0
C428 C 0.04131 0.3147 0.32599 0.0
C429 C 0.12758 0.30288 0.19892 0.0
C430 C 0.10136 0.31086 0.24279 0.0
H431 H 0.86595 0.33214 0.41896 0.0
H432 H 0.94669 0.34714 0.36593 0.0
H433 H 0.13624 0.30301 0.35082 0.0
H434 H 0.09344 0.25826 0.11229 0.0
H435 H 0.05117 0.27272 0.18489 0.0
C436 C 0.78239 0.30312 0.6394 0.0
C437 C 0.8133 0.28176 0.61413 0.0
C438 C 0.80715 0.31165 0.68068 0.0
C439 C 0.85456 0.30653 0.77834 0.0
H440 H 0.04013 0.3231 0.78445 0.0
C441 C 0.02379 0.28086 0.91925 0.0
C442 C 0.08002 0.29701 0.92728 0.0
C443 C 0.9783 0.2884 0.88785 0.0
C444 C 0.98792 0.31925 0.78344 0.0
H445 H 0.89411 0.25266 0.61198 0.0
H446 H 0.93804 0.268 0.68359 0.0
H447 H 0.98718 0.31719 0.71298 0.0
H448 H 0.12878 0.3354 0.91269 0.0
H449 H 0.04936 0.34841 0.85753 0.0
H450 H 0.85636 0.30678 0.84894 0.0
C451 C 0.89458 0.27798 0.67152 0.0
C452 C 0.95789 0.31561 0.74252 0.0
C453 C 0.86922 0.2691 0.63077 0.0
C454 C 0.0864 0.32231 0.90674 0.0
C455 C 0.04099 0.32978 0.87518 0.0
C456 C 0.88485 0.30985 0.81947 0.0
C457 C 0.86389 0.29935 0.69667 0.0
C458 C 0.89166 0.30827 0.73967 0.0
C459 C 0.98839 0.31217 0.86388 0.0
C460 C 0.95234 0.31531 0.82227 0.0
H461 H 0.739 0.31315 0.62735 0.0
H462 H 0.78277 0.32811 0.69975 0.0
H463 H 0.80331 0.30085 0.77672 0.0
H464 H 0.01707 0.26142 0.93501 0.0
H465 H 0.93839 0.27434 0.87974 0.0
C466 C 0.02056 0.75931 0.54889 0.0
C467 C 0.06248 0.73755 0.5352 0.0
C468 C 0.97027 0.75488 0.5788 0.0
C469 C 0.86201 0.7418 0.64162 0.0
H470 H 0.92994 0.69955 0.7368 0.0
C471 C 0.80286 0.71828 0.8351 0.0
C472 C 0.79876 0.74572 0.85231 0.0
C473 C 0.81992 0.71275 0.79104 0.0
C474 C 0.9095 0.71097 0.71025 0.0
H475 H 0.07968 0.69341 0.53785 0.0
H476 H 0.99053 0.6855 0.5892 0.0
H477 H 0.98429 0.69688 0.66569 0.0
H478 H 0.8071 0.78887 0.83659 0.0
H479 H 0.83672 0.77917 0.75964 0.0
H480 H 0.79002 0.75738 0.6878 0.0
C481 C -0.00202 0.7062 0.57802 0.0
C482 C 0.94043 0.70935 0.66927 0.0
C483 C 0.04883 0.7107 0.54838 0.0
C484 C 0.81029 0.76751 0.82435 0.0
C485 C 0.82652 0.76198 0.7802 0.0
C486 C 0.83158 0.74367 0.68284 0.0
C487 C 0.96032 0.72852 0.59532 0.0
C488 C 0.91855 0.72552 0.6349 0.0
C489 C 0.83222 0.73455 0.76328 0.0
C490 C 0.85646 0.72897 0.71788 0.0
H491 H 0.0294 0.78023 0.53908 0.0
H492 H 0.94272 0.77265 0.59145 0.0
H493 H 0.84301 0.75406 0.61562 0.0
H494 H 0.79403 0.70104 0.85584 0.0
H495 H 0.82401 0.69143 0.77873 0.0
loop_
_geom_bond_atom_site_label_1
_geom_bond_atom_site_label_2
_geom_bond_distance
_geom_bond_site_symmetry_2
_ccdc_geom_bond_type
C0 O16 1.251 . S
C0 O18 1.254 . S
N1 C2 1.333 1_554 S
N1 C6 1.307 . S
N1 Zn7 2.020 . S
C2 N1 1.333 1_556 S
C2 C3 1.379 . S
C2 H20 0.952 . S
C3 C2 1.379 . S
C3 C4 1.390 1_556 S
C3 H30 0.949 . S
C4 C3 1.390 1_554 S
C4 C5 1.357 . S
C5 C4 1.357 . S
C5 C6 1.370 . S
C5 H31 0.950 . S
C6 N1 1.307 . S
C6 C5 1.370 . S
C6 H24 0.948 . S
Zn7 N1 2.020 . S
Zn7 O16 2.021 1_554 S
Zn7 O22 2.051 . S
Zn7 O26 2.044 . S
Zn7 O28 2.006 1_554 S
C8 O27 1.246 . S
C8 O28 1.249 . S
N9 C10 1.307 . S
N9 C11 1.333 1_556 S
N9 Zn15 2.020 . S
C10 N9 1.307 . S
C10 C14 1.370 . S
C10 H21 0.948 . S
C11 N9 1.333 1_554 S
C11 C12 1.379 . S
C11 H19 0.952 . S
C12 C11 1.379 . S
C12 C13 1.390 1_554 S
C12 H32 0.949 . S
C13 C12 1.390 1_556 S
C13 C14 1.357 . S
C14 C10 1.370 . S
C14 C13 1.357 . S
C14 H33 0.950 . S
Zn15 N9 2.020 . S
Zn15 O18 2.040 . S
Zn15 O23 2.011 1_556 S
Zn15 O25 2.025 1_556 S
Zn15 O27 2.047 . S
O16 C0 1.251 . S
O16 Zn7 2.021 1_556 S
C17 O22 1.246 . S
C17 O23 1.249 . S
O18 C0 1.254 . S
O18 Zn15 2.040 . S
H19 C11 0.952 . S
H20 C2 0.952 . S
H21 C10 0.948 . S
O22 Zn7 2.051 . S
O22 C17 1.246 . S
O23 Zn15 2.011 1_554 S
O23 C17 1.249 . S
H24 C6 0.948 . S
O25 Zn15 2.025 1_554 S
O25 C29 1.251 . S
O26 Zn7 2.044 . S
O26 C29 1.254 . S
O27 C8 1.246 . S
O27 Zn15 2.047 . S
O28 Zn7 2.006 1_556 S
O28 C8 1.249 . S
C29 O25 1.251 . S
C29 O26 1.254 . S
H30 C3 0.949 . S
H31 C5 0.950 . S
H32 C12 0.949 . S
H33 C14 0.950 . S
C34 O50 1.251 . S
C34 O52 1.254 . S
N35 C36 1.333 1_554 S
N35 C40 1.307 . S
N35 Zn41 2.020 . S
C36 N35 1.333 1_556 S
C36 C37 1.379 . S
C36 H54 0.952 . S
C37 C36 1.379 . S
C37 C38 1.390 1_556 S
C37 H64 0.949 . S
C38 C37 1.390 1_554 S
C38 C39 1.357 . S
C39 C38 1.357 . S
C39 C40 1.370 . S
C39 H65 0.950 . S
C40 N35 1.307 . S
C40 C39 1.370 . S
C40 H58 0.948 . S
Zn41 N35 2.020 . S
Zn41 O50 2.021 1_554 S
Zn41 O56 2.051 . S
Zn41 O60 2.044 . S
Zn41 O62 2.006 1_554 S
C42 O61 1.246 . S
C42 O62 1.249 . S
N43 C44 1.307 . S
N43 C45 1.333 1_556 S
N43 Zn49 2.020 . S
C44 N43 1.307 . S
C44 C48 1.370 . S
C44 H55 0.948 . S
C45 N43 1.333 1_554 S
C45 C46 1.379 . S
C45 H53 0.952 . S
C46 C45 1.379 . S
C46 C47 1.390 1_554 S
C46 H66 0.949 . S
C47 C46 1.390 1_556 S
C47 C48 1.357 . S
C48 C44 1.370 . S
C48 C47 1.357 . S
C48 H67 0.950 . S
Zn49 N43 2.020 . S
Zn49 O52 2.040 . S
Zn49 O57 2.011 1_556 S
Zn49 O59 2.025 1_556 S
Zn49 O61 2.047 . S
O50 C34 1.251 . S
O50 Zn41 2.021 1_556 S
C51 O56 1.246 . S
C51 O57 1.249 . S
O52 C34 1.254 . S
O52 Zn49 2.040 . S
H53 C45 0.952 . S
H54 C36 0.952 . S
H55 C44 0.948 . S
O56 Zn41 2.051 . S
O56 C51 1.246 . S
O57 Zn49 2.011 1_554 S
O57 C51 1.249 . S
H58 C40 0.948 . S
O59 Zn49 2.025 1_554 S
O59 C63 1.251 . S
O60 Zn41 2.044 . S
O60 C63 1.254 . S
O61 C42 1.246 . S
O61 Zn49 2.047 . S
O62 Zn41 2.006 1_556 S
O62 C42 1.249 . S
C63 O59 1.251 . S
C63 O60 1.254 . S
H64 C37 0.949 . S
H65 C39 0.950 . S
H66 C46 0.949 . S
H67 C48 0.950 . S
C68 O84 1.251 . S
C68 O86 1.254 . S
N69 C70 1.333 . S
N69 C74 1.307 . S
N69 Zn75 2.020 . S
C70 N69 1.333 . S
C70 C71 1.379 . S
C70 H88 0.952 . S
C71 C70 1.379 . S
C71 C72 1.390 . S
C71 H98 0.949 . S
C72 C71 1.390 . S
C72 C73 1.357 . S
C73 C72 1.357 . S
C73 C74 1.370 . S
C73 H99 0.950 . S
C74 N69 1.307 . S
C74 C73 1.370 . S
C74 H92 0.948 . S
Zn75 N69 2.020 . S
Zn75 O84 2.039 . S
Zn75 O90 2.034 . S
Zn75 O94 2.025 . S
Zn75 O96 2.024 . S
C76 O95 1.246 . S
C76 O96 1.249 . S
N77 C78 1.307 . S
N77 C79 1.333 . S
N77 Zn83 2.020 . S
C78 N77 1.307 . S
C78 C82 1.370 . S
C78 H89 0.948 . S
C79 N77 1.333 . S
C79 C80 1.379 . S
C79 H87 0.952 . S
C80 C79 1.379 . S
C80 C81 1.390 . S
C80 H100 0.949 . S
C81 C80 1.390 . S
C81 C82 1.357 . S
C82 C78 1.370 . S
C82 C81 1.357 . S
C82 H101 0.950 . S
Zn83 N77 2.020 . S
Zn83 O86 2.025 . S
Zn83 O91 2.024 . S
Zn83 O93 2.039 . S
Zn83 O95 2.034 . S
O84 C68 1.251 . S
O84 Zn75 2.039 . S
C85 O90 1.246 . S
C85 O91 1.249 . S
O86 C68 1.254 . S
O86 Zn83 2.025 . S
H87 C79 0.952 . S
H88 C70 0.952 . S
H89 C78 0.948 . S
O90 Zn75 2.034 . S
O90 C85 1.246 . S
O91 Zn83 2.024 . S
O91 C85 1.249 . S
H92 C74 0.948 . S
O93 Zn83 2.039 . S
O93 C97 1.251 . S
O94 Zn75 2.025 . S
O94 C97 1.254 . S
O95 C76 1.246 . S
O95 Zn83 2.034 . S
O96 Zn75 2.024 . S
O96 C76 1.249 . S
C97 O93 1.251 . S
C97 O94 1.254 . S
H98 C71 0.949 . S
H99 C73 0.950 . S
H100 C80 0.949 . S
H101 C82 0.950 . S
C102 O118 1.251 . S
C102 O120 1.254 . S
N103 C104 1.333 . S
N103 C108 1.307 . S
N103 Zn109 2.020 . S
C104 N103 1.333 . S
C104 C105 1.379 . S
C104 H122 0.952 . S
C105 C104 1.379 . S
C105 C106 1.390 . S
C105 H132 0.949 . S
C106 C105 1.390 . S
C106 C107 1.357 . S
C107 C106 1.357 . S
C107 C108 1.370 . S
C107 H133 0.950 . S
C108 N103 1.307 . S
C108 C107 1.370 . S
C108 H126 0.948 . S
Zn109 N103 2.020 . S
Zn109 O118 2.039 . S
Zn109 O124 2.034 . S
Zn109 O128 2.025 . S
Zn109 O130 2.024 . S
C110 O129 1.246 . S
C110 O130 1.249 . S
N111 C112 1.307 . S
N111 C113 1.333 . S
N111 Zn117 2.020 . S
C112 N111 1.307 . S
C112 C116 1.370 . S
C112 H123 0.948 . S
C113 N111 1.333 . S
C113 C114 1.379 . S
C113 H121 0.952 . S
C114 C113 1.379 . S
C114 C115 1.390 . S
C114 H134 0.949 . S
C115 C114 1.390 . S
C115 C116 1.357 . S
C116 C112 1.370 . S
C116 C115 1.357 . S
C116 H135 0.950 . S
Zn117 N111 2.020 . S
Zn117 O120 2.025 . S
Zn117 O125 2.024 . S
Zn117 O127 2.039 . S
Zn117 O129 2.034 . S
O118 C102 1.251 . S
O118 Zn109 2.039 . S
C119 O124 1.246 . S
C119 O125 1.249 . S
O120 C102 1.254 . S
O120 Zn117 2.025 . S
H121 C113 0.952 . S
H122 C104 0.952 . S
H123 C112 0.948 . S
O124 Zn109 2.034 . S
O124 C119 1.246 . S
O125 Zn117 2.024 . S
O125 C119 1.249 . S
H126 C108 0.948 . S
O127 Zn117 2.039 . S
O127 C131 1.251 . S
O128 Zn109 2.025 . S
O128 C131 1.254 . S
O129 C110 1.246 . S
O129 Zn117 2.034 . S
O130 Zn109 2.024 . S
O130 C110 1.249 . S
C131 O127 1.251 . S
C131 O128 1.254 . S
H132 C105 0.949 . S
H133 C107 0.950 . S
H134 C114 0.949 . S
H135 C116 0.950 . S
C136 C137 1.351 1_554 S
C136 C138 1.327 . S
C136 H161 0.950 . S
C137 C136 1.351 1_556 S
C137 C153 1.347 . S
C138 C136 1.327 . S
C138 C157 1.427 . S
C138 H162 0.950 . S
C139 C156 1.574 . S
C139 C158 1.369 1_556 S
C139 H163 0.949 . S
H140 C144 0.949 . S
C141 C142 1.346 1_556 S
C141 C143 1.327 . S
C141 H164 0.950 . S
C142 C141 1.346 1_554 S
C142 C154 1.351 . S
C143 C141 1.327 . S
C143 C159 1.427 1_556 S
C143 H165 0.950 . S
C144 H140 0.949 . S
C144 C152 1.574 . S
C144 C160 1.369 . S
H145 C153 0.950 . S
H146 C151 0.950 . S
H147 C152 0.949 . S
H148 C154 0.950 . S
H149 C155 0.950 . S
H150 C156 0.949 . S
C151 H146 0.950 . S
C151 C153 1.327 . S
C151 C157 1.430 1_556 S
C152 C144 1.574 . S
C152 H147 0.949 . S
C152 C158 1.368 . S
C153 C137 1.347 . S
C153 H145 0.950 . S
C153 C151 1.327 . S
C154 C142 1.351 . S
C154 H148 0.950 . S
C154 C155 1.327 . S
C155 H149 0.950 . S
C155 C154 1.327 . S
C155 C159 1.430 . S
C156 C139 1.574 . S
C156 H150 0.949 . S
C156 C160 1.368 1_556 S
C157 C138 1.427 . S
C157 C151 1.430 1_554 S
C157 C158 1.523 . S
C158 C139 1.369 1_554 S
C158 C152 1.368 . S
C158 C157 1.523 . S
C159 C143 1.427 1_554 S
C159 C155 1.430 . S
C159 C160 1.523 . S
C160 C144 1.369 . S
C160 C156 1.368 1_554 S
C160 C159 1.523 . S
H161 C136 0.950 . S
H162 C138 0.950 . S
H163 C139 0.949 . S
H164 C141 0.950 . S
H165 C143 0.950 . S
C166 C167 1.349 . S
C166 C168 1.327 . S
C166 H191 0.950 . S
C167 C166 1.349 . S
C167 C183 1.349 . S
C168 C166 1.327 . S
C168 C187 1.429 . S
C168 H192 0.950 . S
C169 C186 1.574 . S
C169 C188 1.368 . S
C169 H193 0.949 . S
H170 C174 0.949 . S
C171 C172 1.349 . S
C171 C173 1.327 . S
C171 H194 0.950 . S
C172 C171 1.349 . S
C172 C184 1.349 . S
C173 C171 1.327 . S
C173 C189 1.429 . S
C173 H195 0.950 . S
C174 H170 0.949 . S
C174 C182 1.574 . S
C174 C190 1.368 . S
H175 C183 0.950 . S
H176 C181 0.950 . S
H177 C182 0.949 . S
H178 C184 0.950 . S
H179 C185 0.950 . S
H180 C186 0.949 . S
C181 H176 0.950 . S
C181 C183 1.327 . S
C181 C187 1.429 . S
C182 C174 1.574 . S
C182 H177 0.949 . S
C182 C188 1.368 . S
C183 C167 1.349 . S
C183 H175 0.950 . S
C183 C181 1.327 . S
C184 C172 1.349 . S
C184 H178 0.950 . S
C184 C185 1.327 . S
C185 H179 0.950 . S
C185 C184 1.327 . S
C185 C189 1.429 . S
C186 C169 1.574 . S
C186 H180 0.949 . S
C186 C190 1.368 . S
C187 C168 1.429 . S
C187 C181 1.429 . S
C187 C188 1.523 . S
C188 C169 1.368 . S
C188 C182 1.368 . S
C188 C187 1.523 . S
C189 C173 1.429 . S
C189 C185 1.429 . S
C189 C190 1.523 . S
C190 C174 1.368 . S
C190 C186 1.368 . S
C190 C189 1.523 . S
H191 C166 0.950 . S
H192 C168 0.950 . S
H193 C169 0.949 . S
H194 C171 0.950 . S
H195 C173 0.950 . S
C196 C197 1.347 . S
C196 C198 1.327 . S
C196 H221 0.950 . S
C197 C196 1.347 . S
C197 C213 1.351 1_556 S
C198 C196 1.327 . S
C198 C217 1.430 1_556 S
C198 H222 0.950 . S
C199 C216 1.574 1_545 S
C199 C218 1.368 1_655 S
C199 H223 0.949 . S
H200 C204 0.949 . S
C201 C202 1.351 . S
C201 C203 1.327 . S
C201 H224 0.950 . S
C202 C201 1.351 . S
C202 C214 1.346 1_554 S
C203 C201 1.327 . S
C203 C219 1.430 . S
C203 H225 0.950 . S
C204 H200 0.949 . S
C204 C212 1.574 1_565 S
C204 C220 1.368 1_456 S
H205 C213 0.950 . S
H206 C211 0.950 . S
H207 C212 0.949 . S
H208 C214 0.950 . S
H209 C215 0.950 . S
H210 C216 0.949 . S
C211 H206 0.950 . S
C211 C213 1.327 . S
C211 C217 1.427 . S
C212 C204 1.574 1_545 S
C212 H207 0.949 . S
C212 C218 1.369 1_556 S
C213 C197 1.351 1_554 S
C213 H205 0.950 . S
C213 C211 1.327 . S
C214 C202 1.346 1_556 S
C214 H208 0.950 . S
C214 C215 1.327 . S
C215 H209 0.950 . S
C215 C214 1.327 . S
C215 C219 1.427 1_556 S
C216 C199 1.574 1_565 S
C216 H210 0.949 . S
C216 C220 1.369 . S
C217 C198 1.430 1_554 S
C217 C211 1.427 . S
C217 C218 1.523 . S
C218 C199 1.368 1_455 S
C218 C212 1.369 1_554 S
C218 C217 1.523 . S
C219 C203 1.430 . S
C219 C215 1.427 1_554 S
C219 C220 1.523 . S
C220 C204 1.368 1_654 S
C220 C216 1.369 . S
C220 C219 1.523 . S
H221 C196 0.950 . S
H222 C198 0.950 . S
H223 C199 0.949 . S
H224 C201 0.950 . S
H225 C203 0.950 . S
C226 C227 1.349 . S
C226 C228 1.327 . S
C226 H251 0.950 . S
C227 C226 1.349 . S
C227 C243 1.349 . S
C228 C226 1.327 . S
C228 C247 1.429 . S
C228 H252 0.950 . S
C229 C246 1.574 1_545 S
C229 C248 1.368 . S
C229 H253 0.949 . S
H230 C234 0.949 . S
C231 C232 1.349 . S
C231 C233 1.327 . S
C231 H254 0.950 . S
C232 C231 1.349 . S
C232 C244 1.349 . S
C233 C231 1.327 . S
C233 C249 1.429 . S
C233 H255 0.950 . S
C234 H230 0.949 . S
C234 C242 1.574 1_565 S
C234 C250 1.368 . S
H235 C243 0.950 . S
H236 C241 0.950 . S
H237 C242 0.949 . S
H238 C244 0.950 . S
H239 C245 0.950 . S
H240 C246 0.949 . S
C241 H236 0.950 . S
C241 C243 1.327 . S
C241 C247 1.429 . S
C242 C234 1.574 1_545 S
C242 H237 0.949 . S
C242 C248 1.368 1_455 S
C243 C227 1.349 . S
C243 H235 0.950 . S
C243 C241 1.327 . S
C244 C232 1.349 . S
C244 H238 0.950 . S
C244 C245 1.327 . S
C245 H239 0.950 . S
C245 C244 1.327 . S
C245 C249 1.429 . S
C246 C229 1.574 1_565 S
C246 H240 0.949 . S
C246 C250 1.368 1_655 S
C247 C228 1.429 . S
C247 C241 1.429 . S
C247 C248 1.523 . S
C248 C229 1.368 . S
C248 C242 1.368 1_655 S
C248 C247 1.523 . S
C249 C233 1.429 . S
C249 C245 1.429 . S
C249 C250 1.523 . S
C250 C234 1.368 . S
C250 C246 1.368 1_455 S
C250 C249 1.523 . S
H251 C226 0.950 . S
H252 C228 0.950 . S
H253 C229 0.949 . S
H254 C231 0.950 . S
H255 C233 0.950 . S
C256 C257 1.349 . S
C256 C258 1.327 . S
C256 H281 0.950 . S
C257 C256 1.349 . S
C257 C273 1.349 . S
C258 C256 1.327 . S
C258 C277 1.429 . S
C258 H282 0.950 . S
C259 C276 1.574 . S
C259 C278 1.368 . S
C259 H283 0.949 . S
H260 C264 0.949 . S
C261 C262 1.349 . S
C261 C263 1.327 . S
C261 H284 0.950 . S
C262 C261 1.349 . S
C262 C274 1.349 . S
C263 C261 1.327 . S
C263 C279 1.429 . S
C263 H285 0.950 . S
C264 H260 0.949 . S
C264 C272 1.574 . S
C264 C280 1.368 . S
H265 C273 0.950 . S
H266 C271 0.950 . S
H267 C272 0.949 . S
H268 C274 0.950 . S
H269 C275 0.950 . S
H270 C276 0.949 . S
C271 H266 0.950 . S
C271 C273 1.327 . S
C271 C277 1.429 . S
C272 C264 1.574 . S
C272 H267 0.949 . S
C272 C278 1.368 . S
C273 C257 1.349 . S
C273 H265 0.950 . S
C273 C271 1.327 . S
C274 C262 1.349 . S
C274 H268 0.950 . S
C274 C275 1.327 . S
C275 H269 0.950 . S
C275 C274 1.327 . S
C275 C279 1.429 . S
C276 C259 1.574 . S
C276 H270 0.949 . S
C276 C280 1.368 . S
C277 C258 1.429 . S
C277 C271 1.429 . S
C277 C278 1.523 . S
C278 C259 1.368 . S
C278 C272 1.368 . S
C278 C277 1.523 . S
C279 C263 1.429 . S
C279 C275 1.429 . S
C279 C280 1.523 . S
C280 C264 1.368 . S
C280 C276 1.368 . S
C280 C279 1.523 . S
H281 C256 0.950 . S
H282 C258 0.950 . S
H283 C259 0.949 . S
H284 C261 0.950 . S
H285 C263 0.950 . S
C286 C287 1.349 . S
C286 C288 1.327 . S
C286 H311 0.950 . S
C287 C286 1.349 . S
C287 C303 1.349 . S
C288 C286 1.327 . S
C288 C307 1.429 . S
C288 H312 0.950 . S
C289 C306 1.574 . S
C289 C308 1.368 . S
C289 H313 0.949 . S
H290 C294 0.949 . S
C291 C292 1.349 . S
C291 C293 1.327 . S
C291 H314 0.950 . S
C292 C291 1.349 . S
C292 C304 1.349 . S
C293 C291 1.327 . S
C293 C309 1.429 . S
C293 H315 0.950 . S
C294 H290 0.949 . S
C294 C302 1.574 . S
C294 C310 1.368 . S
H295 C303 0.950 . S
H296 C301 0.950 . S
H297 C302 0.949 . S
H298 C304 0.950 . S
H299 C305 0.950 . S
H300 C306 0.949 . S
C301 H296 0.950 . S
C301 C303 1.327 . S
C301 C307 1.429 . S
C302 C294 1.574 . S
C302 H297 0.949 . S
C302 C308 1.368 . S
C303 C287 1.349 . S
C303 H295 0.950 . S
C303 C301 1.327 . S
C304 C292 1.349 . S
C304 H298 0.950 . S
C304 C305 1.327 . S
C305 H299 0.950 . S
C305 C304 1.327 . S
C305 C309 1.429 . S
C306 C289 1.574 . S
C306 H300 0.949 . S
C306 C310 1.368 . S
C307 C288 1.429 . S
C307 C301 1.429 . S
C307 C308 1.523 . S
C308 C289 1.368 . S
C308 C302 1.368 . S
C308 C307 1.523 . S
C309 C293 1.429 . S
C309 C305 1.429 . S
C309 C310 1.523 . S
C310 C294 1.368 . S
C310 C306 1.368 . S
C310 C309 1.523 . S
H311 C286 0.950 . S
H312 C288 0.950 . S
H313 C289 0.949 . S
H314 C291 0.950 . S
H315 C293 0.950 . S
C316 C317 1.349 . S
C316 C318 1.327 . S
C316 H341 0.950 . S
C317 C316 1.349 . S
C317 C333 1.349 . S
C318 C316 1.327 . S
C318 C337 1.429 . S
C318 H342 0.950 . S
C319 C336 1.574 . S
C319 C338 1.368 . S
C319 H343 0.949 . S
H320 C324 0.949 . S
C321 C322 1.349 . S
C321 C323 1.327 . S
C321 H344 0.950 . S
C322 C321 1.349 . S
C322 C334 1.349 . S
C323 C321 1.327 . S
C323 C339 1.429 . S
C323 H345 0.950 . S
C324 H320 0.949 . S
C324 C332 1.574 . S
C324 C340 1.368 . S
H325 C333 0.950 . S
H326 C331 0.950 . S
H327 C332 0.949 . S
H328 C334 0.950 . S
H329 C335 0.950 . S
H330 C336 0.949 . S
C331 H326 0.950 . S
C331 C333 1.327 . S
C331 C337 1.429 . S
C332 C324 1.574 . S
C332 H327 0.949 . S
C332 C338 1.368 . S
C333 C317 1.349 . S
C333 H325 0.950 . S
C333 C331 1.327 . S
C334 C322 1.349 . S
C334 H328 0.950 . S
C334 C335 1.327 . S
C335 H329 0.950 . S
C335 C334 1.327 . S
C335 C339 1.429 . S
C336 C319 1.574 . S
C336 H330 0.949 . S
C336 C340 1.368 . S
C337 C318 1.429 . S
C337 C331 1.429 . S
C337 C338 1.523 . S
C338 C319 1.368 . S
C338 C332 1.368 . S
C338 C337 1.523 . S
C339 C323 1.429 . S
C339 C335 1.429 . S
C339 C340 1.523 . S
C340 C324 1.368 . S
C340 C336 1.368 . S
C340 C339 1.523 . S
H341 C316 0.950 . S
H342 C318 0.950 . S
H343 C319 0.949 . S
H344 C321 0.950 . S
H345 C323 0.950 . S
C346 C347 1.349 . S
C346 C348 1.327 . S
C346 H371 0.950 . S
C347 C346 1.349 . S
C347 C363 1.349 . S
C348 C346 1.327 . S
C348 C367 1.429 . S
C348 H372 0.950 . S
C349 C366 1.574 . S
C349 C368 1.368 . S
C349 H373 0.949 . S
H350 C354 0.949 . S
C351 C352 1.349 . S
C351 C353 1.327 . S
C351 H374 0.950 . S
C352 C351 1.349 . S
C352 C364 1.349 . S
C353 C351 1.327 . S
C353 C369 1.429 . S
C353 H375 0.950 . S
C354 H350 0.949 . S
C354 C362 1.574 . S
C354 C370 1.368 . S
H355 C363 0.950 . S
H356 C361 0.950 . S
H357 C362 0.949 . S
H358 C364 0.950 . S
H359 C365 0.950 . S
H360 C366 0.949 . S
C361 H356 0.950 . S
C361 C363 1.327 . S
C361 C367 1.429 . S
C362 C354 1.574 . S
C362 H357 0.949 . S
C362 C368 1.368 . S
C363 C347 1.349 . S
C363 H355 0.950 . S
C363 C361 1.327 . S
C364 C352 1.349 . S
C364 H358 0.950 . S
C364 C365 1.327 . S
C365 H359 0.950 . S
C365 C364 1.327 . S
C365 C369 1.429 . S
C366 C349 1.574 . S
C366 H360 0.949 . S
C366 C370 1.368 . S
C367 C348 1.429 . S
C367 C361 1.429 . S
C367 C368 1.523 . S
C368 C349 1.368 . S
C368 C362 1.368 . S
C368 C367 1.523 . S
C369 C353 1.429 . S
C369 C365 1.429 . S
C369 C370 1.523 . S
C370 C354 1.368 . S
C370 C366 1.368 . S
C370 C369 1.523 . S
H371 C346 0.950 . S
H372 C348 0.950 . S
H373 C349 0.949 . S
H374 C351 0.950 . S
H375 C353 0.950 . S
C376 C377 1.349 . S
C376 C378 1.327 . S
C376 H401 0.950 . S
C377 C376 1.349 . S
C377 C393 1.349 . S
C378 C376 1.327 . S
C378 C397 1.429 . S
C378 H402 0.950 . S
C379 C396 1.574 . S
C379 C398 1.368 . S
C379 H403 0.949 . S
H380 C384 0.949 . S
C381 C382 1.349 . S
C381 C383 1.327 . S
C381 H404 0.950 . S
C382 C381 1.349 . S
C382 C394 1.349 . S
C383 C381 1.327 . S
C383 C399 1.429 . S
C383 H405 0.950 . S
C384 H380 0.949 . S
C384 C392 1.574 . S
C384 C400 1.368 . S
H385 C393 0.950 . S
H386 C391 0.950 . S
H387 C392 0.949 . S
H388 C394 0.950 . S
H389 C395 0.950 . S
H390 C396 0.949 . S
C391 H386 0.950 . S
C391 C393 1.327 . S
C391 C397 1.429 . S
C392 C384 1.574 . S
C392 H387 0.949 . S
C392 C398 1.368 1_455 S
C393 C377 1.349 . S
C393 H385 0.950 . S
C393 C391 1.327 . S
C394 C382 1.349 . S
C394 H388 0.950 . S
C394 C395 1.327 . S
C395 H389 0.950 . S
C395 C394 1.327 . S
C395 C399 1.429 . S
C396 C379 1.574 . S
C396 H390 0.949 . S
C396 C400 1.368 1_655 S
C397 C378 1.429 . S
C397 C391 1.429 . S
C397 C398 1.523 . S
C398 C379 1.368 . S
C398 C392 1.368 1_655 S
C398 C397 1.523 . S
C399 C383 1.429 . S
C399 C395 1.429 . S
C399 C400 1.523 . S
C400 C384 1.368 . S
C400 C396 1.368 1_455 S
C400 C399 1.523 . S
H401 C376 0.950 . S
H402 C378 0.950 . S
H403 C379 0.949 . S
H404 C381 0.950 . S
H405 C383 0.950 . S
C406 C407 1.349 . S
C406 C408 1.327 . S
C406 H431 0.950 . S
C407 C406 1.349 . S
C407 C423 1.349 . S
C408 C406 1.327 . S
C408 C427 1.429 . S
C408 H432 0.950 . S
C409 C426 1.574 . S
C409 C428 1.368 . S
C409 H433 0.949 . S
H410 C414 0.949 . S
C411 C412 1.349 . S
C411 C413 1.327 . S
C411 H434 0.950 . S
C412 C411 1.349 . S
C412 C424 1.349 . S
C413 C411 1.327 . S
C413 C429 1.429 . S
C413 H435 0.950 . S
C414 H410 0.949 . S
C414 C422 1.574 . S
C414 C430 1.368 . S
H415 C423 0.950 . S
H416 C421 0.950 . S
H417 C422 0.949 . S
H418 C424 0.950 . S
H419 C425 0.950 . S
H420 C426 0.949 . S
C421 H416 0.950 . S
C421 C423 1.327 . S
C421 C427 1.429 . S
C422 C414 1.574 . S
C422 H417 0.949 . S
C422 C428 1.368 1_455 S
C423 C407 1.349 . S
C423 H415 0.950 . S
C423 C421 1.327 . S
C424 C412 1.349 . S
C424 H418 0.950 . S
C424 C425 1.327 . S
C425 H419 0.950 . S
C425 C424 1.327 . S
C425 C429 1.429 . S
C426 C409 1.574 . S
C426 H420 0.949 . S
C426 C430 1.368 1_655 S
C427 C408 1.429 . S
C427 C421 1.429 . S
C427 C428 1.523 . S
C428 C409 1.368 . S
C428 C422 1.368 1_655 S
C428 C427 1.523 . S
C429 C413 1.429 . S
C429 C425 1.429 . S
C429 C430 1.523 . S
C430 C414 1.368 . S
C430 C426 1.368 1_455 S
C430 C429 1.523 . S
H431 C406 0.950 . S
H432 C408 0.950 . S
H433 C409 0.949 . S
H434 C411 0.950 . S
H435 C413 0.950 . S
C436 C437 1.349 . S
C436 C438 1.327 . S
C436 H461 0.950 . S
C437 C436 1.349 . S
C437 C453 1.349 . S
C438 C436 1.327 . S
C438 C457 1.429 . S
C438 H462 0.950 . S
C439 C456 1.574 . S
C439 C458 1.368 1_455 S
C439 H463 0.949 . S
H440 C444 0.949 . S
C441 C442 1.349 . S
C441 C443 1.327 . S
C441 H464 0.950 . S
C442 C441 1.349 . S
C442 C454 1.349 . S
C443 C441 1.327 . S
C443 C459 1.429 . S
C443 H465 0.950 . S
C444 H440 0.949 . S
C444 C452 1.574 . S
C444 C460 1.368 1_655 S
H445 C453 0.950 . S
H446 C451 0.950 . S
H447 C452 0.949 . S
H448 C454 0.950 . S
H449 C455 0.950 . S
H450 C456 0.949 . S
C451 H446 0.950 . S
C451 C453 1.327 . S
C451 C457 1.429 . S
C452 C444 1.574 . S
C452 H447 0.949 . S
C452 C458 1.368 . S
C453 C437 1.349 . S
C453 H445 0.950 . S
C453 C451 1.327 . S
C454 C442 1.349 . S
C454 H448 0.950 . S
C454 C455 1.327 . S
C455 H449 0.950 . S
C455 C454 1.327 . S
C455 C459 1.429 . S
C456 C439 1.574 . S
C456 H450 0.949 . S
C456 C460 1.368 . S
C457 C438 1.429 . S
C457 C451 1.429 . S
C457 C458 1.523 . S
C458 C439 1.368 1_655 S
C458 C452 1.368 . S
C458 C457 1.523 . S
C459 C443 1.429 . S
C459 C455 1.429 . S
C459 C460 1.523 . S
C460 C444 1.368 1_455 S
C460 C456 1.368 . S
C460 C459 1.523 . S
H461 C436 0.950 . S
H462 C438 0.950 . S
H463 C439 0.949 . S
H464 C441 0.950 . S
H465 C443 0.950 . S
C466 C467 1.349 . S
C466 C468 1.327 . S
C466 H491 0.950 . S
C467 C466 1.349 . S
C467 C483 1.349 . S
C468 C466 1.327 . S
C468 C487 1.429 . S
C468 H492 0.950 . S
C469 C486 1.574 . S
C469 C488 1.368 . S
C469 H493 0.949 . S
H470 C474 0.949 . S
C471 C472 1.349 . S
C471 C473 1.327 . S
C471 H494 0.950 . S
C472 C471 1.349 . S
C472 C484 1.349 . S
C473 C471 1.327 . S
C473 C489 1.429 . S
C473 H495 0.950 . S
C474 H470 0.949 . S
C474 C482 1.574 . S
C474 C490 1.368 . S
H475 C483 0.950 . S
H476 C481 0.950 . S
H477 C482 0.949 . S
H478 C484 0.950 . S
H479 C485 0.950 . S
H480 C486 0.949 . S
C481 H476 0.950 . S
C481 C483 1.327 . S
C481 C487 1.429 . S
C482 C474 1.574 . S
C482 H477 0.949 . S
C482 C488 1.368 1_655 S
C483 C467 1.349 . S
C483 H475 0.950 . S
C483 C481 1.327 . S
C484 C472 1.349 . S
C484 H478 0.950 . S
C484 C485 1.327 . S
C485 H479 0.950 . S
C485 C484 1.327 . S
C485 C489 1.429 . S
C486 C469 1.574 . S
C486 H480 0.949 . S
C486 C490 1.368 1_455 S
C487 C468 1.429 . S
C487 C481 1.429 . S
C487 C488 1.523 . S
C488 C469 1.368 . S
C488 C482 1.368 1_455 S
C488 C487 1.523 . S
C489 C473 1.429 . S
C489 C485 1.429 . S
C489 C490 1.523 . S
C490 C474 1.368 . S
C490 C486 1.368 1_655 S
C490 C489 1.523 . S
H491 C466 0.950 . S
H492 C468 0.950 . S
H493 C469 0.949 . S
H494 C471 0.950 . S
H495 C473 0.950 . S
C137 C47 1.631 . S
C142 C4 1.632 . S
C167 C72 1.631 . S
C172 C115 1.631 . S
C197 C13 1.631 . S
C202 C38 1.632 . S
C227 C106 1.631 . S
C232 C81 1.631 . S
C257 C131 0.846 . S
C262 C17 0.846 . S
C287 C63 0.846 . S
C292 C85 0.846 . S
C317 C42 0.847 . S
C322 C68 0.847 . S
C347 C110 0.847 . S
C352 C0 0.847 . S
C377 C51 0.847 . S
C382 C97 0.845 . S
C407 C119 0.847 . S
C412 C29 0.845 . S
C437 C102 0.846 . S
C442 C8 0.849 . S
C467 C76 0.847 . S
C472 C34 0.847 . S
