# Generated by pormake.
# Topology fcp, (5)-cn, num edge types: 1
# Building blocks:
#     Node 0, Type 0, BuildingBlock: BEQFEK_clean_sbu_0, # of connection points: 5
#     Node 1, Type 0, BuildingBlock: BEQFEK_clean_sbu_0, # of connection points: 5
#     Node 2, Type 0, BuildingBlock: BEQFEK_clean_sbu_0, # of connection points: 5
#     Node 3, Type 0, BuildingBlock: BEQFEK_clean_sbu_0, # of connection points: 5
#     Node 4, Type 0, BuildingBlock: BEQFEK_clean_sbu_0, # of connection points: 5
#     Node 5, Type 0, BuildingBlock: BEQFEK_clean_sbu_0, # of connection points: 5
#     Node 6, Type 0, BuildingBlock: BEQFEK_clean_sbu_0, # of connection points: 5
#     Node 7, Type 0, BuildingBlock: BEQFEK_clean_sbu_0, # of connection points: 5
#     Node 8, Type 0, BuildingBlock: BEQFEK_clean_sbu_0, # of connection points: 5
#     Node 9, Type 0, BuildingBlock: BEQFEK_clean_sbu_0, # of connection points: 5
#     Node 10, Type 0, BuildingBlock: BEQFEK_clean_sbu_0, # of connection points: 5
#     Node 11, Type 0, BuildingBlock: BEQFEK_clean_sbu_0, # of connection points: 5
#     Node 12, Type 0, BuildingBlock: BEQFEK_clean_sbu_0, # of connection points: 5
#     Node 13, Type 0, BuildingBlock: BEQFEK_clean_sbu_0, # of connection points: 5
#     Node 14, Type 0, BuildingBlock: BEQFEK_clean_sbu_0, # of connection points: 5
#     Node 15, Type 0, BuildingBlock: BEQFEK_clean_sbu_0, # of connection points: 5
#     Node 16, Type 0, BuildingBlock: BEQFEK_clean_sbu_0, # of connection points: 5
#     Node 17, Type 0, BuildingBlock: BEQFEK_clean_sbu_0, # of connection points: 5
#     Node 18, Type 0, BuildingBlock: BEQFEK_clean_sbu_0, # of connection points: 5
#     Node 19, Type 0, BuildingBlock: BEQFEK_clean_sbu_0, # of connection points: 5
#     Node 20, Type 0, BuildingBlock: BEQFEK_clean_sbu_0, # of connection points: 5
#     Node 21, Type 0, BuildingBlock: BEQFEK_clean_sbu_0, # of connection points: 5
#     Node 22, Type 0, BuildingBlock: BEQFEK_clean_sbu_0, # of connection points: 5
#     Node 23, Type 0, BuildingBlock: BEQFEK_clean_sbu_0, # of connection points: 5
#     Edge 24, Type (0, 0), BuildingBlock: UVAHIK_clean_linker_0, # of connection points: 2
#     Edge 25, Type (0, 0), BuildingBlock: UVAHIK_clean_linker_0, # of connection points: 2
#     Edge 26, Type (0, 0), BuildingBlock: UVAHIK_clean_linker_0, # of connection points: 2
#     Edge 27, Type (0, 0), BuildingBlock: UVAHIK_clean_linker_0, # of connection points: 2
#     Edge 28, Type (0, 0), BuildingBlock: UVAHIK_clean_linker_0, # of connection points: 2
#     Edge 29, Type (0, 0), BuildingBlock: UVAHIK_clean_linker_0, # of connection points: 2
#     Edge 30, Type (0, 0), BuildingBlock: UVAHIK_clean_linker_0, # of connection points: 2
#     Edge 31, Type (0, 0), BuildingBlock: UVAHIK_clean_linker_0, # of connection points: 2
#     Edge 32, Type (0, 0), BuildingBlock: UVAHIK_clean_linker_0, # of connection points: 2
#     Edge 33, Type (0, 0), BuildingBlock: UVAHIK_clean_linker_0, # of connection points: 2
#     Edge 34, Type (0, 0), BuildingBlock: UVAHIK_clean_linker_0, # of connection points: 2
#     Edge 35, Type (0, 0), BuildingBlock: UVAHIK_clean_linker_0, # of connection points: 2
#     Edge 36, Type (0, 0), BuildingBlock: UVAHIK_clean_linker_0, # of connection points: 2
#     Edge 37, Type (0, 0), BuildingBlock: UVAHIK_clean_linker_0, # of connection points: 2
#     Edge 38, Type (0, 0), BuildingBlock: UVAHIK_clean_linker_0, # of connection points: 2
#     Edge 39, Type (0, 0), BuildingBlock: UVAHIK_clean_linker_0, # of connection points: 2
#     Edge 40, Type (0, 0), BuildingBlock: UVAHIK_clean_linker_0, # of connection points: 2
#     Edge 41, Type (0, 0), BuildingBlock: UVAHIK_clean_linker_0, # of connection points: 2
#     Edge 42, Type (0, 0), BuildingBlock: UVAHIK_clean_linker_0, # of connection points: 2
#     Edge 43, Type (0, 0), BuildingBlock: UVAHIK_clean_linker_0, # of connection points: 2
#     Edge 44, Type (0, 0), BuildingBlock: UVAHIK_clean_linker_0, # of connection points: 2
#     Edge 45, Type (0, 0), BuildingBlock: UVAHIK_clean_linker_0, # of connection points: 2
#     Edge 46, Type (0, 0), BuildingBlock: UVAHIK_clean_linker_0, # of connection points: 2
#     Edge 47, Type (0, 0), BuildingBlock: UVAHIK_clean_linker_0, # of connection points: 2
#     Edge 48, Type (0, 0), BuildingBlock: UVAHIK_clean_linker_0, # of connection points: 2
#     Edge 49, Type (0, 0), BuildingBlock: UVAHIK_clean_linker_0, # of connection points: 2
#     Edge 50, Type (0, 0), BuildingBlock: UVAHIK_clean_linker_0, # of connection points: 2
#     Edge 51, Type (0, 0), BuildingBlock: UVAHIK_clean_linker_0, # of connection points: 2
#     Edge 52, Type (0, 0), BuildingBlock: UVAHIK_clean_linker_0, # of connection points: 2
#     Edge 53, Type (0, 0), BuildingBlock: UVAHIK_clean_linker_0, # of connection points: 2
#     Edge 54, Type (0, 0), BuildingBlock: UVAHIK_clean_linker_0, # of connection points: 2
#     Edge 55, Type (0, 0), BuildingBlock: UVAHIK_clean_linker_0, # of connection points: 2
#     Edge 56, Type (0, 0), BuildingBlock: UVAHIK_clean_linker_0, # of connection points: 2
#     Edge 57, Type (0, 0), BuildingBlock: UVAHIK_clean_linker_0, # of connection points: 2
#     Edge 58, Type (0, 0), BuildingBlock: UVAHIK_clean_linker_0, # of connection points: 2
#     Edge 59, Type (0, 0), BuildingBlock: UVAHIK_clean_linker_0, # of connection points: 2
#     Edge 60, Type (0, 0), BuildingBlock: UVAHIK_clean_linker_0, # of connection points: 2
#     Edge 61, Type (0, 0), BuildingBlock: UVAHIK_clean_linker_0, # of connection points: 2
#     Edge 62, Type (0, 0), BuildingBlock: UVAHIK_clean_linker_0, # of connection points: 2
#     Edge 63, Type (0, 0), BuildingBlock: UVAHIK_clean_linker_0, # of connection points: 2
#     Edge 64, Type (0, 0), BuildingBlock: UVAHIK_clean_linker_0, # of connection points: 2
#     Edge 65, Type (0, 0), BuildingBlock: UVAHIK_clean_linker_0, # of connection points: 2
#     Edge 66, Type (0, 0), BuildingBlock: UVAHIK_clean_linker_0, # of connection points: 2
#     Edge 67, Type (0, 0), BuildingBlock: UVAHIK_clean_linker_0, # of connection points: 2
#     Edge 68, Type (0, 0), BuildingBlock: UVAHIK_clean_linker_0, # of connection points: 2
#     Edge 69, Type (0, 0), BuildingBlock: UVAHIK_clean_linker_0, # of connection points: 2
#     Edge 70, Type (0, 0), BuildingBlock: UVAHIK_clean_linker_0, # of connection points: 2
#     Edge 71, Type (0, 0), BuildingBlock: UVAHIK_clean_linker_0, # of connection points: 2
#     Edge 72, Type (0, 0), BuildingBlock: UVAHIK_clean_linker_0, # of connection points: 2
#     Edge 73, Type (0, 0), BuildingBlock: UVAHIK_clean_linker_0, # of connection points: 2
#     Edge 74, Type (0, 0), BuildingBlock: UVAHIK_clean_linker_0, # of connection points: 2
#     Edge 75, Type (0, 0), BuildingBlock: UVAHIK_clean_linker_0, # of connection points: 2
#     Edge 76, Type (0, 0), BuildingBlock: UVAHIK_clean_linker_0, # of connection points: 2
#     Edge 77, Type (0, 0), BuildingBlock: UVAHIK_clean_linker_0, # of connection points: 2
#     Edge 78, Type (0, 0), BuildingBlock: UVAHIK_clean_linker_0, # of connection points: 2
#     Edge 79, Type (0, 0), BuildingBlock: UVAHIK_clean_linker_0, # of connection points: 2
#     Edge 80, Type (0, 0), BuildingBlock: UVAHIK_clean_linker_0, # of connection points: 2
#     Edge 81, Type (0, 0), BuildingBlock: UVAHIK_clean_linker_0, # of connection points: 2
#     Edge 82, Type (0, 0), BuildingBlock: UVAHIK_clean_linker_0, # of connection points: 2
#     Edge 83, Type (0, 0), BuildingBlock: UVAHIK_clean_linker_0, # of connection points: 2
# Relax obj value: 0.273
# Max RMSD: 0.212
# Mean RMSD: 0.212
data_MOF--net-fcp--node1-BEQFEK_clean_sbu_0--edge1-UVAHIK_clean_linker_0
_symmetry_space_group_name_H-M    P1
_symmetry_Int_Tables_number       1
_symmetry_cell_setting            triclinic
loop_
_symmetry_equiv_pos_as_xyz
'x, y, z'
_cell_length_a     64.93685
_cell_length_b     64.936418
_cell_length_c     64.919737
_cell_angle_alpha  90.017507
_cell_angle_beta   89.980789
_cell_angle_gamma 90.020667
loop_
_atom_site_label
_atom_site_type_symbol
_atom_site_fract_x
_atom_site_fract_y
_atom_site_fract_z
_atom_type_partial_charge
Co0 Co 0.04406 0.33751 0.15737 0.0
Co1 Co 0.08836 0.32878 0.14013 0.0
C2 C 0.06599 0.29857 0.16721 0.0
O3 O 0.05025 0.3101 0.16851 0.0
O4 O 0.08172 0.30397 0.15683 0.0
C5 C 0.00258 0.33091 0.17074 0.0
O6 O 0.00752 0.31137 0.16907 0.0
C7 C 0.11997 0.30601 0.1173 0.0
C8 C 0.14591 0.32802 0.11778 0.0
C9 C 0.14058 0.30819 0.11189 0.0
N10 N 0.1136 0.32365 0.12609 0.0
N11 N 0.12907 0.33686 0.12601 0.0
C12 C 0.10693 0.28705 0.11572 0.0
H13 H 0.0919 0.28922 0.12344 0.0
H14 H 0.10377 0.28368 0.09929 0.0
H15 H 0.11515 0.27367 0.12247 0.0
C16 C 0.03518 0.34158 0.11291 0.0
N17 N 0.04822 0.33821 0.12863 0.0
N18 N 0.06688 0.33516 0.12133 0.0
C19 C 0.06639 0.33693 0.10066 0.0
C20 C 0.04626 0.34097 0.09461 0.0
C21 C 0.01239 0.34386 0.11551 0.0
H22 H 0.00674 0.33238 0.12681 0.0
H23 H 0.00404 0.34163 0.10078 0.0
H24 H 0.00898 0.35943 0.12167 0.0
O25 O 0.06182 0.35779 0.17146 0.0
O26 O 0.09322 0.35184 0.15938 0.0
H27 H 0.08208 0.34279 0.07181 0.0
H28 H 0.08946 0.31947 0.08502 0.0
C29 C 0.08503 0.33582 0.08713 0.0
H30 H 0.09805 0.34404 0.0945 0.0
H31 H 0.1284 0.3516 0.13239 0.0
O32 O 0.01551 0.34457 0.16529 0.0
C33 C 0.08101 0.36176 0.17106 0.0
Co34 Co 0.84165 0.44829 0.33339 0.0
Co35 Co 0.83046 0.40568 0.35298 0.0
C36 C 0.80081 0.42854 0.3259 0.0
O37 O 0.81343 0.4433 0.3234 0.0
O38 O 0.80539 0.41304 0.337 0.0
C39 C 0.83666 0.49019 0.32109 0.0
O40 O 0.81712 0.48665 0.32498 0.0
C41 C 0.80611 0.37516 0.37516 0.0
C42 C 0.82926 0.35167 0.38343 0.0
C43 C 0.80842 0.35612 0.3845 0.0
N44 N 0.82464 0.38156 0.3686 0.0
N45 N 0.83846 0.36752 0.37369 0.0
C46 C 0.78685 0.38769 0.37353 0.0
H47 H 0.79059 0.40436 0.3735 0.0
H48 H 0.77624 0.38423 0.38649 0.0
H49 H 0.77896 0.38386 0.3589 0.0
C50 C 0.84788 0.45907 0.37709 0.0
N51 N 0.84328 0.44545 0.36218 0.0
N52 N 0.83855 0.42764 0.37059 0.0
C53 C 0.83992 0.42939 0.39125 0.0
C54 C 0.84585 0.44939 0.39602 0.0
C55 C 0.85433 0.48084 0.37313 0.0
H56 H 0.86595 0.48121 0.36062 0.0
H57 H 0.84075 0.48985 0.368 0.0
H58 H 0.86095 0.48811 0.38711 0.0
O59 O 0.86025 0.42891 0.31945 0.0
O60 O 0.85257 0.39851 0.33303 0.0
H61 H 0.84445 0.39934 0.40388 0.0
H62 H 0.83476 0.41791 0.42226 0.0
C63 C 0.83403 0.4127 0.40602 0.0
H64 H 0.81811 0.40754 0.40267 0.0
H65 H 0.85412 0.36862 0.37023 0.0
O66 O 0.84981 0.4761 0.3244 0.0
C67 C 0.86291 0.40953 0.32051 0.0
Co68 Co 0.94463 0.66223 0.15939 0.0
Co69 Co 0.90081 0.66531 0.13924 0.0
C70 C 0.91923 0.70007 0.16372 0.0
O71 O 0.93596 0.69035 0.16666 0.0
O72 O 0.90435 0.69209 0.15373 0.0
C73 C 0.98384 0.67147 0.17787 0.0
O74 O 0.97679 0.6904 0.1787 0.0
C75 C 0.86691 0.68302 0.11552 0.0
C76 C 0.84676 0.65599 0.11068 0.0
C77 C 0.84812 0.677 0.10723 0.0
N78 N 0.87619 0.66629 0.12335 0.0
N79 N 0.8642 0.65014 0.12021 0.0
C80 C 0.87487 0.70445 0.11862 0.0
H81 H 0.87129 0.70941 0.13458 0.0
H82 H 0.89185 0.70461 0.1167 0.0
H83 H 0.86786 0.71566 0.1079 0.0
C84 C 0.95642 0.65468 0.1161 0.0
N85 N 0.94222 0.65809 0.1308 0.0
N86 N 0.92387 0.65914 0.12229 0.0
C87 C 0.92576 0.65612 0.10185 0.0
C88 C 0.94646 0.65326 0.09722 0.0
C89 C 0.97912 0.6545 0.12007 0.0
H90 H 0.98316 0.66706 0.13091 0.0
H91 H 0.98811 0.65644 0.10567 0.0
H92 H 0.98338 0.63966 0.1274 0.0
O93 O 0.92752 0.64231 0.17489 0.0
O94 O 0.89668 0.64398 0.16036 0.0
H95 H 0.896 0.64484 0.09342 0.0
H96 H 0.91258 0.64976 0.07178 0.0
C97 C 0.90794 0.65534 0.08724 0.0
H98 H 0.90111 0.67093 0.08585 0.0
H99 H 0.8676 0.63527 0.12524 0.0
O100 O 0.97306 0.65756 0.16927 0.0
C101 C 0.90882 0.63656 0.17381 0.0
Co102 Co 0.14804 0.54909 0.33312 0.0
Co103 Co 0.15985 0.59106 0.35365 0.0
C104 C 0.18745 0.56993 0.32294 0.0
O105 O 0.17526 0.55475 0.32099 0.0
O106 O 0.18323 0.58484 0.33494 0.0
C107 C 0.15277 0.50777 0.31935 0.0
O108 O 0.17233 0.51131 0.32314 0.0
C109 C 0.18702 0.61946 0.37485 0.0
C110 C 0.1662 0.64462 0.3843 0.0
C111 C 0.18671 0.6387 0.38407 0.0
N112 N 0.1677 0.61438 0.36956 0.0
N113 N 0.15525 0.62938 0.37541 0.0
C114 C 0.20518 0.60558 0.37195 0.0
H115 H 0.20024 0.58922 0.37219 0.0
H116 H 0.21685 0.60827 0.38415 0.0
H117 H 0.21235 0.60878 0.3568 0.0
C118 C 0.14538 0.53641 0.37678 0.0
N119 N 0.14877 0.55063 0.3621 0.0
N120 N 0.1536 0.56826 0.37086 0.0
C121 C 0.1534 0.56583 0.39148 0.0
C122 C 0.14824 0.54554 0.39588 0.0
C123 C 0.13902 0.51468 0.37249 0.0
H124 H 0.12661 0.51453 0.36075 0.0
H125 H 0.15237 0.50609 0.36616 0.0
H126 H 0.13346 0.50682 0.38661 0.0
O127 O 0.12824 0.56901 0.32161 0.0
O128 O 0.13597 0.5989 0.33631 0.0
H129 H 0.14894 0.59575 0.40449 0.0
H130 H 0.15858 0.57692 0.42264 0.0
C131 C 0.15931 0.58232 0.40647 0.0
H132 H 0.17524 0.58747 0.40318 0.0
H133 H 0.13939 0.62947 0.37283 0.0
O134 O 0.13957 0.52161 0.32342 0.0
C135 C 0.1251 0.58822 0.32394 0.0
Co136 Co 0.04303 0.65268 0.83526 0.0
Co137 Co 0.08595 0.66173 0.85541 0.0
C138 C 0.06489 0.69243 0.82803 0.0
O139 O 0.04954 0.68057 0.82541 0.0
O140 O 0.08003 0.68708 0.83927 0.0
C141 C 0.00191 0.65996 0.82133 0.0
O142 O 0.0064 0.67931 0.82517 0.0
C143 C 0.11709 0.68508 0.87756 0.0
C144 C 0.14044 0.66152 0.88499 0.0
C145 C 0.13643 0.68245 0.88619 0.0
N146 N 0.11014 0.66668 0.87122 0.0
N147 N 0.12405 0.65258 0.8759 0.0
C148 C 0.10495 0.7046 0.87608 0.0
H149 H 0.08821 0.70122 0.87679 0.0
H150 H 0.10919 0.71535 0.88869 0.0
H151 H 0.10828 0.71214 0.86115 0.0
C152 C 0.03145 0.64701 0.87884 0.0
N153 N 0.04543 0.65096 0.86409 0.0
N154 N 0.06341 0.65464 0.8727 0.0
C155 C 0.06143 0.65311 0.89331 0.0
C156 C 0.04109 0.64825 0.89786 0.0
C157 C 0.00936 0.64197 0.87463 0.0
H158 H 0.00841 0.6303 0.86218 0.0
H159 H 0.00135 0.65606 0.86925 0.0
H160 H 0.00148 0.63597 0.88856 0.0
O161 O 0.06175 0.63314 0.82161 0.0
O162 O 0.09231 0.63932 0.8356 0.0
H163 H 0.09126 0.64684 0.90571 0.0
H164 H 0.0731 0.65658 0.92448 0.0
C165 C 0.07835 0.65772 0.90827 0.0
H166 H 0.08418 0.67352 0.9055 0.0
H167 H 0.12263 0.63697 0.87234 0.0
O168 O 0.01501 0.64605 0.82558 0.0
C169 C 0.08096 0.62953 0.82295 0.0
Co170 Co 0.15394 0.44872 0.65806 0.0
Co171 Co 0.16578 0.40609 0.63873 0.0
C172 C 0.1941 0.42851 0.66755 0.0
O173 O 0.18149 0.44336 0.66942 0.0
O174 O 0.19 0.41307 0.65616 0.0
C175 C 0.15879 0.49027 0.67168 0.0
O176 O 0.17843 0.48666 0.66845 0.0
C177 C 0.19098 0.37523 0.61782 0.0
C178 C 0.16785 0.35253 0.60747 0.0
C179 C 0.18883 0.35642 0.60796 0.0
N180 N 0.1722 0.38203 0.62319 0.0
N181 N 0.15841 0.36844 0.61687 0.0
C182 C 0.2104 0.3872 0.62103 0.0
H183 H 0.20713 0.40397 0.62082 0.0
H184 H 0.22191 0.38348 0.60894 0.0
H185 H 0.21698 0.38315 0.63624 0.0
C186 C 0.14996 0.45984 0.61421 0.0
N187 N 0.15386 0.44614 0.62922 0.0
N188 N 0.15887 0.42833 0.62092 0.0
C189 C 0.15837 0.43018 0.60024 0.0
C190 C 0.15272 0.45023 0.59533 0.0
C191 C 0.14325 0.48155 0.61804 0.0
H192 H 0.13116 0.48178 0.63012 0.0
H193 H 0.15657 0.4906 0.62375 0.0
H194 H 0.13713 0.48886 0.60386 0.0
O195 O 0.13447 0.42934 0.67071 0.0
O196 O 0.14251 0.39894 0.65734 0.0
H197 H 0.15359 0.40049 0.58689 0.0
H198 H 0.16508 0.41894 0.56945 0.0
C199 C 0.16461 0.41348 0.58562 0.0
H200 H 0.18008 0.40771 0.58989 0.0
H201 H 0.14258 0.36991 0.61921 0.0
O202 O 0.14565 0.47647 0.66722 0.0
C203 C 0.13162 0.41001 0.66934 0.0
Co204 Co 0.94652 0.34263 0.83259 0.0
Co205 Co 0.90465 0.33206 0.85437 0.0
C206 C 0.92275 0.30442 0.82245 0.0
O207 O 0.9378 0.31662 0.81972 0.0
O208 O 0.90884 0.30813 0.83576 0.0
C209 C 0.9866 0.33488 0.81628 0.0
O210 O 0.98136 0.3155 0.81881 0.0
C211 C 0.8719 0.30924 0.87563 0.0
C212 C 0.8543 0.33433 0.89049 0.0
C213 C 0.8548 0.31317 0.88785 0.0
N214 N 0.88121 0.32725 0.87147 0.0
N215 N 0.87068 0.34217 0.88046 0.0
C216 C 0.87815 0.28922 0.86604 0.0
H217 H 0.87562 0.29018 0.84918 0.0
H218 H 0.89482 0.28659 0.86873 0.0
H219 H 0.8692 0.27597 0.87192 0.0
C220 C 0.9608 0.34357 0.8757 0.0
N221 N 0.94598 0.34088 0.8615 0.0
N222 N 0.92848 0.33658 0.87078 0.0
C223 C 0.93166 0.33631 0.89129 0.0
C224 C 0.95222 0.34079 0.89505 0.0
C225 C 0.98248 0.34963 0.87073 0.0
H226 H 0.98241 0.3624 0.85938 0.0
H227 H 0.9905 0.33633 0.8636 0.0
H228 H 0.99104 0.35455 0.88467 0.0
O229 O 0.92818 0.36457 0.82299 0.0
O230 O 0.89815 0.35662 0.83727 0.0
H231 H 0.90416 0.34358 0.90779 0.0
H232 H 0.92234 0.32839 0.92237 0.0
C233 C 0.91557 0.33091 0.90689 0.0
H234 H 0.90742 0.31671 0.90202 0.0
H235 H 0.87447 0.35776 0.87943 0.0
O236 O 0.97429 0.34896 0.82204 0.0
C237 C 0.9091 0.36807 0.82569 0.0
Co238 Co 0.84015 0.54854 0.65773 0.0
Co239 Co 0.83014 0.59061 0.63646 0.0
C240 C 0.80064 0.57022 0.66577 0.0
O241 O 0.81256 0.55494 0.66838 0.0
O242 O 0.80556 0.58501 0.65388 0.0
C243 C 0.83449 0.508 0.67385 0.0
O244 O 0.81493 0.51154 0.67011 0.0
C245 C 0.80523 0.61984 0.61351 0.0
C246 C 0.8278 0.64344 0.604 0.0
C247 C 0.80701 0.63862 0.60356 0.0
N248 N 0.82399 0.61395 0.61983 0.0
N249 N 0.83748 0.62802 0.61397 0.0
C250 C 0.7862 0.60709 0.61604 0.0
H251 H 0.79021 0.59048 0.61652 0.0
H252 H 0.77523 0.60998 0.60324 0.0
H253 H 0.77859 0.61125 0.63073 0.0
C254 C 0.84511 0.53548 0.61452 0.0
N255 N 0.84098 0.54984 0.62885 0.0
N256 N 0.8369 0.56747 0.61974 0.0
C257 C 0.83829 0.56486 0.59919 0.0
C258 C 0.84353 0.54449 0.59522 0.0
C259 C 0.85109 0.51377 0.61942 0.0
H260 H 0.86292 0.51374 0.63174 0.0
H261 H 0.8374 0.50539 0.62529 0.0
H262 H 0.85725 0.50564 0.60571 0.0
O263 O 0.85973 0.56809 0.66991 0.0
O264 O 0.85319 0.5982 0.65515 0.0
H265 H 0.84439 0.59426 0.58568 0.0
H266 H 0.83424 0.5755 0.56771 0.0
C267 C 0.83344 0.58128 0.58375 0.0
H268 H 0.8177 0.58722 0.58661 0.0
H269 H 0.85322 0.62732 0.61716 0.0
O270 O 0.84783 0.52127 0.66846 0.0
C271 C 0.86333 0.58724 0.66787 0.0
Co272 Co 0.16011 0.04658 0.338 0.0
Co273 Co 0.14048 0.09014 0.33208 0.0
C274 C 0.16807 0.07062 0.30014 0.0
O275 O 0.17002 0.05401 0.3103 0.0
O276 O 0.15745 0.08557 0.30705 0.0
C277 C 0.17514 0.00582 0.33034 0.0
O278 O 0.17362 0.01119 0.31089 0.0
C279 C 0.11757 0.12042 0.30895 0.0
C280 C 0.11056 0.14445 0.33199 0.0
C281 C 0.10851 0.13957 0.3113 0.0
N282 N 0.12486 0.11434 0.32728 0.0
N283 N 0.12056 0.12869 0.34107 0.0
C284 C 0.11863 0.10756 0.28984 0.0
H285 H 0.1182 0.09096 0.29391 0.0
H286 H 0.10569 0.11122 0.27929 0.0
H287 H 0.13336 0.1107 0.28176 0.0
C288 C 0.11629 0.03509 0.3428 0.0
N289 N 0.13126 0.04909 0.33973 0.0
N290 N 0.12295 0.06743 0.3376 0.0
C291 C 0.10237 0.06576 0.33953 0.0
C292 C 0.09744 0.04519 0.34282 0.0
C293 C 0.12009 0.0124 0.34423 0.0
H294 H 0.13071 0.00763 0.33174 0.0
H295 H 0.10564 0.0034 0.34294 0.0
H296 H 0.12764 0.00892 0.35916 0.0
O297 O 0.17402 0.06462 0.35839 0.0
O298 O 0.15944 0.09535 0.35512 0.0
H299 H 0.07243 0.07944 0.34512 0.0
H300 H 0.08632 0.08931 0.3231 0.0
C301 C 0.08786 0.08367 0.33915 0.0
H302 H 0.09415 0.09634 0.3487 0.0
H303 H 0.12475 0.12788 0.35657 0.0
O304 O 0.16928 0.01829 0.34425 0.0
C305 C 0.17243 0.08344 0.36368 0.0
Co306 Co 0.54887 0.33263 0.15191 0.0
Co307 Co 0.59221 0.35108 0.16236 0.0
C308 C 0.56889 0.32441 0.19229 0.0
O309 O 0.55376 0.32247 0.18001 0.0
O310 O 0.58467 0.335 0.18739 0.0
C311 C 0.50752 0.31757 0.15559 0.0
O312 O 0.51131 0.31833 0.17545 0.0
C313 C 0.62193 0.37409 0.18675 0.0
C314 C 0.64678 0.38039 0.16437 0.0
C315 C 0.64114 0.38319 0.18477 0.0
N316 N 0.61654 0.36616 0.16844 0.0
N317 N 0.63142 0.36998 0.15509 0.0
C318 C 0.6083 0.37385 0.20533 0.0
H319 H 0.59188 0.37386 0.20059 0.0
H320 H 0.61142 0.38734 0.21536 0.0
H321 H 0.61125 0.35958 0.21425 0.0
C322 C 0.53896 0.37668 0.14671 0.0
N323 N 0.55233 0.36137 0.15063 0.0
N324 N 0.57061 0.36921 0.15447 0.0
C325 C 0.56955 0.38986 0.15276 0.0
C326 C 0.54943 0.3953 0.14787 0.0
C327 C 0.51634 0.37341 0.1437 0.0
H328 H 0.51062 0.36213 0.15517 0.0
H329 H 0.50751 0.38792 0.14537 0.0
H330 H 0.51366 0.36689 0.12813 0.0
O331 O 0.56812 0.31842 0.13317 0.0
O332 O 0.59893 0.3314 0.14013 0.0
H333 H 0.58423 0.41962 0.14908 0.0
H334 H 0.59178 0.40514 0.17162 0.0
C335 C 0.58761 0.404 0.15509 0.0
H336 H 0.60098 0.39767 0.14659 0.0
H337 H 0.63113 0.36539 0.13968 0.0
O338 O 0.52106 0.32401 0.143 0.0
C339 C 0.58745 0.31912 0.13006 0.0
Co340 Co 0.83491 0.94996 0.33876 0.0
Co341 Co 0.85518 0.90663 0.33264 0.0
C342 C 0.82897 0.9262 0.29998 0.0
O343 O 0.82588 0.94216 0.31088 0.0
O344 O 0.83998 0.91139 0.30656 0.0
C345 C 0.81991 0.9906 0.32987 0.0
O346 O 0.82221 0.98503 0.31056 0.0
C347 C 0.87964 0.8755 0.31173 0.0
C348 C 0.87889 0.84973 0.33389 0.0
C349 C 0.8851 0.85506 0.31419 0.0
N350 N 0.87065 0.88203 0.32917 0.0
N351 N 0.87063 0.86668 0.34254 0.0
C352 C 0.88037 0.88771 0.2922 0.0
H353 H 0.87785 0.90431 0.29537 0.0
H354 H 0.89546 0.88564 0.28448 0.0
H355 H 0.86825 0.88204 0.28158 0.0
C356 C 0.87837 0.96169 0.34517 0.0
N357 N 0.86371 0.94754 0.34149 0.0
N358 N 0.87237 0.92936 0.33921 0.0
C359 C 0.8929 0.93134 0.34152 0.0
C360 C 0.89736 0.95193 0.34529 0.0
C361 C 0.87408 0.98406 0.34865 0.0
H362 H 0.86173 0.98574 0.36034 0.0
H363 H 0.86847 0.99102 0.33409 0.0
H364 H 0.88799 0.99244 0.35396 0.0
O365 O 0.82062 0.93227 0.35887 0.0
O366 O 0.83483 0.90149 0.35476 0.0
H367 H 0.90333 0.90086 0.34847 0.0
H368 H 0.92387 0.91875 0.34248 0.0
C369 C 0.90791 0.91409 0.33867 0.0
H370 H 0.90751 0.90896 0.3224 0.0
H371 H 0.86378 0.86738 0.35707 0.0
O372 O 0.8253 0.97833 0.34413 0.0
C373 C 0.82191 0.9133 0.36358 0.0
Co374 Co 0.44717 0.65547 0.15726 0.0
Co375 Co 0.40474 0.63326 0.16299 0.0
C376 C 0.42259 0.6616 0.19516 0.0
O377 O 0.43907 0.66449 0.185 0.0
O378 O 0.40816 0.65032 0.18819 0.0
C379 C 0.48673 0.67365 0.16513 0.0
O380 O 0.48201 0.67094 0.18462 0.0
C381 C 0.37291 0.61094 0.18507 0.0
C382 C 0.35205 0.60069 0.16024 0.0
C383 C 0.35427 0.60119 0.18147 0.0
N384 N 0.38116 0.61629 0.1669 0.0
N385 N 0.36876 0.60992 0.15207 0.0
C386 C 0.38313 0.6146 0.20541 0.0
H387 H 0.4001 0.61348 0.2037 0.0
H388 H 0.3778 0.60328 0.21706 0.0
H389 H 0.37933 0.63033 0.2109 0.0
C390 C 0.46118 0.61264 0.15176 0.0
N391 N 0.44632 0.62664 0.15515 0.0
N392 N 0.42856 0.61716 0.15752 0.0
C393 C 0.43156 0.59672 0.15566 0.0
C394 C 0.45233 0.59321 0.15195 0.0
C395 C 0.48327 0.61801 0.14794 0.0
H396 H 0.48419 0.63028 0.13609 0.0
H397 H 0.49009 0.62418 0.16235 0.0
H398 H 0.49228 0.60448 0.14272 0.0
O399 O 0.4286 0.66838 0.13697 0.0
O400 O 0.39865 0.65222 0.13998 0.0
H401 H 0.40336 0.58264 0.14626 0.0
H402 H 0.42126 0.56502 0.15834 0.0
C403 C 0.41503 0.58092 0.15861 0.0
H404 H 0.40727 0.58357 0.17359 0.0
H405 H 0.37136 0.61248 0.13641 0.0
O406 O 0.47466 0.66689 0.1513 0.0
C407 C 0.40995 0.66584 0.13153 0.0
Co408 Co 0.16119 0.94429 0.65262 0.0
Co409 Co 0.14217 0.90131 0.66328 0.0
C410 C 0.17166 0.92274 0.69177 0.0
O411 O 0.17332 0.93803 0.67967 0.0
O412 O 0.16013 0.90748 0.68735 0.0
C413 C 0.17449 0.98586 0.65819 0.0
O414 O 0.17195 0.98171 0.67784 0.0
C415 C 0.1207 0.87067 0.688 0.0
C416 C 0.11055 0.848 0.66474 0.0
C417 C 0.11048 0.85208 0.68569 0.0
N418 N 0.12671 0.8772 0.66934 0.0
N419 N 0.12058 0.86362 0.65546 0.0
C420 C 0.1235 0.88282 0.70739 0.0
H421 H 0.12397 0.89954 0.70389 0.0
H422 H 0.11085 0.87964 0.71844 0.0
H423 H 0.1383 0.8784 0.71465 0.0
C424 C 0.11723 0.95561 0.65051 0.0
N425 N 0.13236 0.94177 0.65335 0.0
N426 N 0.12421 0.92369 0.65755 0.0
C427 C 0.10353 0.92545 0.65739 0.0
C428 C 0.09848 0.94573 0.65297 0.0
C429 C 0.1208 0.97776 0.64524 0.0
H430 H 0.13193 0.97884 0.63233 0.0
H431 H 0.12762 0.9857 0.65875 0.0
H432 H 0.10628 0.98561 0.64083 0.0
O433 O 0.17313 0.92562 0.63198 0.0
O434 O 0.15994 0.89496 0.63928 0.0
H435 H 0.09133 0.89539 0.65171 0.0
H436 H 0.07268 0.91336 0.66197 0.0
C437 C 0.08898 0.90834 0.6626 0.0
H438 H 0.09233 0.9027 0.67835 0.0
H439 H 0.12332 0.86497 0.63968 0.0
O440 O 0.16989 0.9723 0.64485 0.0
C441 C 0.17157 0.90641 0.62841 0.0
Co442 Co 0.44163 0.33141 0.84078 0.0
Co443 Co 0.39951 0.35389 0.83434 0.0
C444 C 0.41823 0.32607 0.80212 0.0
O445 O 0.43446 0.32293 0.81258 0.0
O446 O 0.40367 0.33723 0.80902 0.0
C447 C 0.48161 0.3138 0.83389 0.0
O448 O 0.47733 0.31654 0.81431 0.0
C449 C 0.37009 0.37795 0.81103 0.0
C450 C 0.34742 0.38763 0.83448 0.0
C451 C 0.35163 0.38834 0.81356 0.0
N452 N 0.37636 0.37114 0.8295 0.0
N453 N 0.36285 0.37708 0.84352 0.0
C454 C 0.38223 0.37536 0.7916 0.0
H455 H 0.39896 0.37518 0.7951 0.0
H456 H 0.37887 0.38796 0.78055 0.0
H457 H 0.37813 0.36044 0.78433 0.0
C458 C 0.4558 0.37417 0.84684 0.0
N459 N 0.44087 0.36024 0.84337 0.0
N460 N 0.42322 0.36983 0.84075 0.0
C461 C 0.42635 0.39027 0.84254 0.0
C462 C 0.44711 0.39367 0.84644 0.0
C463 C 0.47788 0.36872 0.85052 0.0
H464 H 0.47882 0.35646 0.86238 0.0
H465 H 0.48461 0.36253 0.83607 0.0
H466 H 0.48697 0.38223 0.85569 0.0
O467 O 0.42225 0.31814 0.86012 0.0
O468 O 0.3925 0.3346 0.85684 0.0
H469 H 0.39733 0.40383 0.85015 0.0
H470 H 0.41607 0.42205 0.84048 0.0
C471 C 0.41004 0.40616 0.83897 0.0
H472 H 0.40365 0.40423 0.82326 0.0
H473 H 0.36394 0.37357 0.85917 0.0
O474 O 0.46896 0.32004 0.84747 0.0
C475 C 0.40346 0.32065 0.86516 0.0
Co476 Co 0.83649 0.04392 0.651 0.0
Co477 Co 0.85703 0.08613 0.66267 0.0
C478 C 0.82763 0.06497 0.69113 0.0
O479 O 0.82496 0.05039 0.67834 0.0
O480 O 0.83988 0.07979 0.68723 0.0
C481 C 0.8227 0.00273 0.65744 0.0
O482 O 0.82644 0.00698 0.67686 0.0
C483 C 0.87297 0.12254 0.68428 0.0
C484 C 0.89708 0.13372 0.66304 0.0
C485 C 0.88822 0.13737 0.6821 0.0
N486 N 0.87336 0.11019 0.66768 0.0
N487 N 0.88753 0.11721 0.65485 0.0
C488 C 0.85676 0.12147 0.70062 0.0
H489 H 0.84173 0.11748 0.69359 0.0
H490 H 0.861 0.10934 0.71188 0.0
H491 H 0.85498 0.13637 0.70876 0.0
C492 C 0.87987 0.03118 0.64806 0.0
N493 N 0.86539 0.04562 0.65126 0.0
N494 N 0.87426 0.06302 0.65675 0.0
C495 C 0.89479 0.05993 0.65776 0.0
C496 C 0.89897 0.03977 0.65207 0.0
C497 C 0.87539 0.00966 0.64113 0.0
H498 H 0.8694 0.00066 0.65437 0.0
H499 H 0.8894 0.00199 0.63506 0.0
H500 H 0.8634 0.00987 0.62897 0.0
O501 O 0.82485 0.06285 0.63067 0.0
O502 O 0.83861 0.09296 0.63912 0.0
H503 H 0.91552 0.08515 0.65377 0.0
H504 H 0.92348 0.06701 0.67304 0.0
C505 C 0.90995 0.07503 0.66634 0.0
H506 H 0.90265 0.08457 0.67847 0.0
H507 H 0.89079 0.11063 0.64054 0.0
O508 O 0.82679 0.01609 0.64373 0.0
C509 C 0.82676 0.08213 0.62785 0.0
Co510 Co 0.54453 0.65495 0.83633 0.0
Co511 Co 0.58854 0.63581 0.83223 0.0
C512 C 0.57041 0.66414 0.80008 0.0
O513 O 0.55322 0.66562 0.80931 0.0
O514 O 0.58509 0.65357 0.80757 0.0
C515 C 0.50438 0.67117 0.82752 0.0
O516 O 0.51072 0.67082 0.80831 0.0
C517 C 0.62 0.61425 0.8095 0.0
C518 C 0.64381 0.60768 0.83286 0.0
C519 C 0.63956 0.60615 0.81199 0.0
N520 N 0.61311 0.62058 0.8279 0.0
N521 N 0.6273 0.61645 0.84191 0.0
C522 C 0.60768 0.6156 0.79006 0.0
H523 H 0.59101 0.61425 0.7936 0.0
H524 H 0.61227 0.60334 0.77907 0.0
H525 H 0.61035 0.63081 0.78274 0.0
C526 C 0.53325 0.61097 0.83979 0.0
N527 N 0.5472 0.62609 0.83741 0.0
N528 N 0.56571 0.61798 0.83605 0.0
C529 C 0.56417 0.59737 0.83778 0.0
C530 C 0.54353 0.59222 0.84017 0.0
C531 C 0.5105 0.61455 0.84061 0.0
H532 H 0.50608 0.62601 0.82876 0.0
H533 H 0.50171 0.60014 0.83797 0.0
H534 H 0.50639 0.62096 0.85592 0.0
O535 O 0.56141 0.66824 0.85805 0.0
O536 O 0.59243 0.654 0.85618 0.0
H537 H 0.57797 0.56764 0.84416 0.0
H538 H 0.58875 0.58161 0.82261 0.0
C539 C 0.58227 0.58311 0.83836 0.0
H540 H 0.59437 0.58963 0.84848 0.0
H541 H 0.62597 0.62017 0.85746 0.0
O542 O 0.51597 0.66403 0.84158 0.0
C543 C 0.57988 0.6666 0.86444 0.0
Co544 Co 0.33651 0.15453 0.04478 0.0
Co545 Co 0.3325 0.13645 0.08931 0.0
C546 C 0.29869 0.16131 0.06994 0.0
O547 O 0.30893 0.16372 0.05342 0.0
O548 O 0.30593 0.15102 0.08498 0.0
C549 C 0.32665 0.16964 0.00439 0.0
O550 O 0.30757 0.16904 0.01106 0.0
C551 C 0.31398 0.11285 0.12266 0.0
C552 C 0.33757 0.11539 0.14702 0.0
C553 C 0.31785 0.10827 0.14312 0.0
N554 N 0.33065 0.12223 0.1148 0.0
N555 N 0.34488 0.12333 0.12931 0.0
C556 C 0.2939 0.11087 0.11155 0.0
H557 H 0.29617 0.11257 0.0947 0.0
H558 H 0.28675 0.09572 0.11485 0.0
H559 H 0.28323 0.12303 0.11707 0.0
C560 C 0.3428 0.11047 0.035 0.0
N561 N 0.33955 0.12586 0.04849 0.0
N562 N 0.33836 0.11822 0.06722 0.0
C563 C 0.34115 0.09769 0.06631 0.0
C564 C 0.34399 0.09206 0.04584 0.0
C565 C 0.34322 0.11339 0.01214 0.0
H566 H 0.33091 0.12428 0.00752 0.0
H567 H 0.34098 0.09865 0.0038 0.0
H568 H 0.35823 0.1202 0.00764 0.0
O569 O 0.35723 0.16995 0.06088 0.0
O570 O 0.35441 0.15731 0.09246 0.0
H571 H 0.34907 0.06887 0.08111 0.0
H572 H 0.32597 0.08127 0.09044 0.0
C573 C 0.34188 0.08392 0.08478 0.0
H574 H 0.3508 0.09143 0.09725 0.0
H575 H 0.3591 0.13059 0.12748 0.0
O576 O 0.34104 0.16299 0.01587 0.0
C577 C 0.36264 0.1697 0.07971 0.0
Co578 Co 0.34123 0.83 0.94712 0.0
Co579 Co 0.33234 0.85191 0.90507 0.0
C580 C 0.30171 0.8233 0.9247 0.0
O581 O 0.31345 0.82011 0.94003 0.0
O582 O 0.30707 0.8353 0.91013 0.0
C583 C 0.33435 0.81401 0.98762 0.0
O584 O 0.31483 0.8168 0.98309 0.0
C585 C 0.30932 0.87552 0.87471 0.0
C586 C 0.33327 0.88435 0.85223 0.0
C587 C 0.31229 0.88534 0.856 0.0
N588 N 0.32761 0.86874 0.88154 0.0
N589 N 0.34192 0.87421 0.86814 0.0
C590 C 0.28964 0.87343 0.88651 0.0
H591 H 0.29281 0.87294 0.9033 0.0
H592 H 0.27909 0.88642 0.88303 0.0
H593 H 0.28197 0.85886 0.88205 0.0
C594 C 0.34674 0.8731 0.96055 0.0
N595 N 0.34276 0.85894 0.94597 0.0
N596 N 0.33915 0.86827 0.92835 0.0
C597 C 0.34076 0.88877 0.93116 0.0
C598 C 0.34561 0.89249 0.95167 0.0
C599 C 0.35192 0.86799 0.98242 0.0
H600 H 0.36386 0.85579 0.98274 0.0
H601 H 0.33798 0.86189 0.9902 0.0
H602 H 0.35763 0.88165 0.99094 0.0
O603 O 0.36093 0.81726 0.92791 0.0
O604 O 0.35492 0.8326 0.89798 0.0
H605 H 0.34754 0.90248 0.90201 0.0
H606 H 0.33731 0.92039 0.92076 0.0
C607 C 0.33638 0.90441 0.91481 0.0
H608 H 0.32072 0.90181 0.90856 0.0
H609 H 0.35751 0.87061 0.86961 0.0
O610 O 0.34807 0.81944 0.97477 0.0
C611 C 0.36467 0.81947 0.9088 0.0
Co612 Co 0.33718 0.15361 0.54573 0.0
Co613 Co 0.35525 0.16095 0.58979 0.0
C614 C 0.33007 0.1931 0.56819 0.0
O615 O 0.32773 0.18164 0.55248 0.0
O616 O 0.34049 0.18711 0.58369 0.0
C617 C 0.32264 0.16062 0.5046 0.0
O618 O 0.32366 0.18014 0.50979 0.0
C619 C 0.37803 0.18148 0.62261 0.0
C620 C 0.37662 0.15834 0.64749 0.0
C621 C 0.38281 0.17827 0.64312 0.0
N622 N 0.36942 0.16424 0.61514 0.0
N623 N 0.36901 0.15029 0.62996 0.0
C624 C 0.37912 0.20138 0.61108 0.0
H625 H 0.37863 0.19855 0.59423 0.0
H626 H 0.3934 0.20985 0.6151 0.0
H627 H 0.36579 0.21112 0.6155 0.0
C628 C 0.38131 0.1474 0.53627 0.0
N629 N 0.36588 0.15116 0.54957 0.0
N630 N 0.37353 0.15372 0.56816 0.0
C631 C 0.39411 0.15129 0.56736 0.0
C632 C 0.39977 0.14727 0.54709 0.0
C633 C 0.37836 0.14575 0.51345 0.0
H634 H 0.36728 0.15764 0.50824 0.0
H635 H 0.39303 0.14781 0.50495 0.0
H636 H 0.37178 0.13042 0.50975 0.0
O637 O 0.32192 0.13391 0.56319 0.0
O638 O 0.33453 0.13926 0.59444 0.0
H639 H 0.40075 0.1437 0.59878 0.0
H640 H 0.42322 0.14534 0.58254 0.0
C641 C 0.40791 0.15218 0.58581 0.0
H642 H 0.40993 0.16847 0.59055 0.0
H643 H 0.36242 0.13571 0.62845 0.0
O644 O 0.32882 0.14701 0.51723 0.0
C645 C 0.32221 0.12998 0.58238 0.0
Co646 Co 0.65386 0.1576 0.94503 0.0
Co647 Co 0.66381 0.13822 0.90207 0.0
C648 C 0.69223 0.16855 0.92209 0.0
O649 O 0.68048 0.17009 0.93768 0.0
O650 O 0.68769 0.15676 0.90709 0.0
C651 C 0.6612 0.17096 0.98626 0.0
O652 O 0.6806 0.16793 0.98138 0.0
C653 C 0.68795 0.117 0.87086 0.0
C654 C 0.66423 0.10626 0.84896 0.0
C655 C 0.6853 0.10667 0.85235 0.0
N656 N 0.66937 0.12262 0.87795 0.0
N657 N 0.65522 0.11612 0.86484 0.0
C658 C 0.70759 0.12028 0.88249 0.0
H659 H 0.70452 0.12056 0.8993 0.0
H660 H 0.7189 0.10797 0.87895 0.0
H661 H 0.71429 0.13535 0.87803 0.0
C662 C 0.65212 0.11378 0.9569 0.0
N663 N 0.65492 0.12876 0.94288 0.0
N664 N 0.65911 0.12043 0.92488 0.0
C665 C 0.65915 0.09976 0.9269 0.0
C666 C 0.65475 0.0949 0.94727 0.0
C667 C 0.64623 0.11761 0.97886 0.0
H668 H 0.63386 0.12936 0.97954 0.0
H669 H 0.65978 0.12372 0.9873 0.0
H670 H 0.6408 0.10334 0.98653 0.0
O671 O 0.63238 0.16893 0.92693 0.0
O672 O 0.63928 0.15548 0.89627 0.0
H673 H 0.65278 0.08655 0.89742 0.0
H674 H 0.66489 0.06892 0.91528 0.0
C675 C 0.66437 0.0851 0.90989 0.0
H676 H 0.67962 0.08916 0.90342 0.0
H677 H 0.63944 0.11855 0.86667 0.0
O678 O 0.64725 0.16663 0.97324 0.0
C679 C 0.62842 0.16702 0.90784 0.0
Co680 Co 0.65726 0.83996 0.54616 0.0
Co681 Co 0.63804 0.8307 0.58943 0.0
C682 C 0.66333 0.79932 0.56696 0.0
O683 O 0.66606 0.81154 0.5519 0.0
O684 O 0.6527 0.80463 0.58259 0.0
C685 C 0.67217 0.83432 0.50484 0.0
O686 O 0.67076 0.81458 0.50903 0.0
C687 C 0.61522 0.80938 0.62194 0.0
C688 C 0.6137 0.83337 0.64603 0.0
C689 C 0.60911 0.81294 0.64205 0.0
N690 N 0.62303 0.82694 0.6143 0.0
N691 N 0.62171 0.84134 0.62864 0.0
C692 C 0.61597 0.78909 0.61107 0.0
H693 H 0.6161 0.7914 0.59414 0.0
H694 H 0.6026 0.77939 0.61546 0.0
H695 H 0.63022 0.78086 0.61564 0.0
C696 C 0.61375 0.84716 0.53589 0.0
N697 N 0.62867 0.84276 0.54951 0.0
N698 N 0.62036 0.83893 0.5676 0.0
C699 C 0.59975 0.84082 0.56605 0.0
C700 C 0.59491 0.84604 0.54586 0.0
C701 C 0.61763 0.85214 0.51372 0.0
H702 H 0.62988 0.86399 0.5126 0.0
H703 H 0.62318 0.83811 0.5057 0.0
H704 H 0.60355 0.85792 0.50596 0.0
O705 O 0.67228 0.85856 0.56467 0.0
O706 O 0.65907 0.85204 0.59545 0.0
H707 H 0.58844 0.84598 0.59654 0.0
H708 H 0.56878 0.83814 0.57837 0.0
C709 C 0.58504 0.83597 0.58312 0.0
H710 H 0.58725 0.81976 0.588 0.0
H711 H 0.62732 0.8563 0.62693 0.0
O712 O 0.66624 0.84741 0.51812 0.0
C713 C 0.6717 0.86168 0.58399 0.0
Co714 Co 0.64734 0.83377 0.04942 0.0
Co715 Co 0.65974 0.85485 0.09096 0.0
C716 C 0.68595 0.82219 0.0713 0.0
O717 O 0.67372 0.82036 0.05613 0.0
O718 O 0.68234 0.83493 0.08576 0.0
C719 C 0.65168 0.81732 0.00894 0.0
O720 O 0.67143 0.81949 0.01271 0.0
C721 C 0.68696 0.87589 0.11953 0.0
C722 C 0.66562 0.88752 0.14334 0.0
C723 C 0.68631 0.88613 0.13826 0.0
N724 N 0.66763 0.87117 0.11396 0.0
N725 N 0.65489 0.87829 0.12815 0.0
C726 C 0.70546 0.87159 0.10647 0.0
H727 H 0.70111 0.87127 0.08994 0.0
H728 H 0.71755 0.88341 0.10901 0.0
H729 H 0.71182 0.85631 0.11062 0.0
C730 C 0.64702 0.87705 0.03544 0.0
N731 N 0.64972 0.86264 0.05006 0.0
N732 N 0.65478 0.87164 0.0675 0.0
C733 C 0.65545 0.89216 0.06454 0.0
C734 C 0.65058 0.89625 0.04411 0.0
C735 C 0.64037 0.87242 0.01386 0.0
H736 H 0.62731 0.86141 0.01413 0.0
H737 H 0.6533 0.86501 0.00549 0.0
H738 H 0.63562 0.88655 0.00553 0.0
O739 O 0.62641 0.82433 0.06919 0.0
O740 O 0.63483 0.83904 0.09888 0.0
H741 H 0.65071 0.90654 0.09379 0.0
H742 H 0.66223 0.92332 0.07473 0.0
C743 C 0.66169 0.90736 0.08072 0.0
H744 H 0.67717 0.90328 0.08661 0.0
H745 H 0.63893 0.87646 0.1277 0.0
O746 O 0.63867 0.8235 0.02218 0.0
C747 C 0.6232 0.82732 0.0883 0.0
Co748 Co 0.3363 0.83838 0.44353 0.0
Co749 Co 0.35665 0.83209 0.40031 0.0
C750 C 0.33147 0.79897 0.42053 0.0
O751 O 0.32811 0.81015 0.43626 0.0
O752 O 0.34232 0.80549 0.40554 0.0
C753 C 0.31956 0.83083 0.48379 0.0
O754 O 0.32105 0.81133 0.47863 0.0
C755 C 0.38137 0.81219 0.36858 0.0
C756 C 0.3803 0.83517 0.34354 0.0
C757 C 0.38675 0.81539 0.3482 0.0
N758 N 0.37214 0.82928 0.37566 0.0
N759 N 0.37198 0.84315 0.36078 0.0
C760 C 0.38238 0.79234 0.3802 0.0
H761 H 0.3697 0.78214 0.37497 0.0
H762 H 0.38079 0.79514 0.39699 0.0
H763 H 0.39716 0.78438 0.37708 0.0
C764 C 0.37967 0.84574 0.45518 0.0
N765 N 0.36502 0.84179 0.44108 0.0
N766 N 0.37363 0.83962 0.42287 0.0
C767 C 0.39409 0.84247 0.42471 0.0
C768 C 0.39863 0.84638 0.44528 0.0
C769 C 0.37556 0.84699 0.47783 0.0
H770 H 0.36461 0.83469 0.48236 0.0
H771 H 0.38985 0.84532 0.48702 0.0
H772 H 0.36831 0.86205 0.48138 0.0
O773 O 0.32132 0.85767 0.42546 0.0
O774 O 0.33559 0.85328 0.39478 0.0
H775 H 0.40224 0.85033 0.39371 0.0
H776 H 0.42386 0.84893 0.4111 0.0
C777 C 0.40885 0.8419 0.407 0.0
H778 H 0.41134 0.82566 0.4023 0.0
H779 H 0.36499 0.85757 0.36197 0.0
O780 O 0.32633 0.84454 0.47157 0.0
C781 C 0.32241 0.86194 0.40638 0.0
Co782 Co 0.66043 0.15401 0.44606 0.0
Co783 Co 0.63854 0.16425 0.40421 0.0
C784 C 0.666 0.19479 0.42547 0.0
O785 O 0.66941 0.18225 0.44011 0.0
O786 O 0.65425 0.18998 0.41049 0.0
C787 C 0.67673 0.15953 0.48674 0.0
O788 O 0.6731 0.17915 0.4834 0.0
C789 C 0.61598 0.18624 0.3717 0.0
C790 C 0.60223 0.16057 0.35404 0.0
C791 C 0.60371 0.18184 0.35476 0.0
N792 N 0.62125 0.1684 0.38076 0.0
N793 N 0.61295 0.15312 0.37016 0.0
C794 C 0.62474 0.20664 0.37786 0.0
H795 H 0.62145 0.20952 0.39438 0.0
H796 H 0.61881 0.21955 0.36846 0.0
H797 H 0.64168 0.20605 0.37583 0.0
C798 C 0.61759 0.14726 0.45924 0.0
N799 N 0.63166 0.15182 0.44475 0.0
N800 N 0.62225 0.15621 0.42734 0.0
C801 C 0.60175 0.15468 0.43029 0.0
C802 C 0.59816 0.1489 0.45058 0.0
C803 C 0.62283 0.14137 0.48089 0.0
H804 H 0.63532 0.12972 0.48079 0.0
H805 H 0.62858 0.15515 0.48921 0.0
H806 H 0.60929 0.13502 0.48917 0.0
O807 O 0.67364 0.13542 0.42628 0.0
O808 O 0.65869 0.14246 0.39642 0.0
H809 H 0.58539 0.14827 0.4025 0.0
H810 H 0.57037 0.16192 0.42149 0.0
C811 C 0.5859 0.16036 0.41455 0.0
H812 H 0.59018 0.17514 0.40716 0.0
H813 H 0.61483 0.13758 0.37378 0.0
O814 O 0.6714 0.14635 0.47329 0.0
C815 C 0.67181 0.13246 0.40702 0.0
C816 C 0.12546 0.48519 0.30438 0.0
C817 C 0.14644 0.48923 0.30781 0.0
C818 C 0.11944 0.46937 0.29116 0.0
C819 C 0.138 0.44157 0.24603 0.0
H820 H 0.09047 0.40678 0.25584 0.0
C821 C 0.11079 0.37924 0.18833 0.0
C822 C 0.08941 0.37706 0.1857 0.0
C823 C 0.11864 0.39217 0.20364 0.0
C824 C 0.10366 0.41653 0.2528 0.0
H825 H 0.17755 0.47916 0.30092 0.0
H826 H 0.16698 0.45145 0.2778 0.0
H827 H 0.1028 0.42947 0.28312 0.0
H828 H 0.05952 0.38742 0.19655 0.0
H829 H 0.07321 0.41023 0.22291 0.0
H830 H 0.13861 0.42899 0.21557 0.0
C831 C 0.15523 0.46071 0.2852 0.0
C832 C 0.11076 0.42944 0.26845 0.0
C833 C 0.16127 0.47647 0.29854 0.0
C834 C 0.07607 0.38861 0.19824 0.0
C835 C 0.08391 0.40156 0.21348 0.0
C836 C 0.13086 0.42871 0.23035 0.0
C837 C 0.13428 0.45731 0.28103 0.0
C838 C 0.12785 0.44226 0.26514 0.0
C839 C 0.10526 0.40322 0.21659 0.0
C840 C 0.11344 0.41625 0.23348 0.0
H841 H 0.11367 0.4947 0.31137 0.0
H842 H 0.10318 0.46721 0.28814 0.0
H843 H 0.15104 0.45151 0.24294 0.0
H844 H 0.1215 0.37052 0.17897 0.0
H845 H 0.13516 0.39303 0.20573 0.0
C846 C 0.97883 0.35799 0.18425 0.0
C847 C 0.98376 0.33706 0.18196 0.0
C848 C 0.96303 0.36407 0.19749 0.0
C849 C 0.93718 0.34672 0.24436 0.0
H850 H 0.90184 0.39369 0.23401 0.0
C851 C 0.87809 0.37806 0.30387 0.0
C852 C 0.87704 0.39963 0.30562 0.0
C853 C 0.88982 0.36894 0.28827 0.0
C854 C 0.9117 0.38061 0.23716 0.0
H855 H 0.97515 0.30598 0.19076 0.0
H856 H 0.94744 0.31664 0.21382 0.0
H857 H 0.92325 0.38012 0.20629 0.0
H858 H 0.88823 0.42846 0.29287 0.0
H859 H 0.9088 0.41256 0.26598 0.0
H860 H 0.92593 0.3475 0.27537 0.0
C861 C 0.95602 0.32834 0.20559 0.0
C862 C 0.9239 0.37282 0.22128 0.0
C863 C 0.97179 0.32225 0.19227 0.0
C864 C 0.88853 0.41181 0.2919 0.0
C865 C 0.9002 0.40271 0.27635 0.0
C866 C 0.92495 0.35452 0.26027 0.0
C867 C 0.95184 0.34934 0.20874 0.0
C868 C 0.93707 0.35605 0.22481 0.0
C869 C 0.90069 0.38121 0.27412 0.0
C870 C 0.91242 0.37181 0.25693 0.0
H871 H 0.9877 0.36978 0.17646 0.0
H872 H 0.9603 0.38038 0.19969 0.0
H873 H 0.94737 0.33393 0.24764 0.0
H874 H 0.86939 0.36823 0.31417 0.0
H875 H 0.8899 0.35231 0.2869 0.0
C876 C 0.86402 0.51357 0.30754 0.0
C877 C 0.84302 0.50911 0.31023 0.0
C878 C 0.87017 0.52974 0.2948 0.0
C879 C 0.85271 0.55693 0.24921 0.0
H880 H 0.8984 0.59363 0.26065 0.0
C881 C 0.87941 0.61867 0.19117 0.0
C882 C 0.90072 0.62198 0.1893 0.0
C883 C 0.87164 0.60606 0.20675 0.0
C884 C 0.88576 0.58334 0.25714 0.0
H885 H 0.81196 0.51881 0.30265 0.0
H886 H 0.82276 0.54704 0.28028 0.0
H887 H 0.88586 0.57059 0.28758 0.0
H888 H 0.93063 0.6142 0.20202 0.0
H889 H 0.91711 0.59174 0.22882 0.0
H890 H 0.85294 0.56909 0.21863 0.0
C891 C 0.83443 0.53789 0.28792 0.0
C892 C 0.87852 0.57026 0.2726 0.0
C893 C 0.82826 0.52182 0.30082 0.0
C894 C 0.91412 0.61206 0.20309 0.0
C895 C 0.90635 0.59933 0.21858 0.0
C896 C 0.86003 0.56988 0.23371 0.0
C897 C 0.85544 0.54167 0.28441 0.0
C898 C 0.86204 0.55681 0.26872 0.0
C899 C 0.88501 0.59635 0.22072 0.0
C900 C 0.87677 0.5831 0.23743 0.0
H901 H 0.87575 0.50412 0.3147 0.0
H902 H 0.88647 0.53224 0.29229 0.0
H903 H 0.8402 0.54646 0.24568 0.0
H904 H 0.86864 0.62619 0.18088 0.0
H905 H 0.85511 0.60428 0.2081 0.0
C906 C 0.10765 0.62008 0.31058 0.0
C907 C 0.10994 0.59853 0.3104 0.0
C908 C 0.09525 0.62985 0.29593 0.0
C909 C 0.07504 0.62176 0.24377 0.0
H910 H 0.03569 0.66449 0.2575 0.0
C911 C 0.00903 0.64503 0.18995 0.0
C912 C 0.00236 0.66561 0.18972 0.0
C913 C 0.0245 0.63876 0.20346 0.0
C914 C 0.0469 0.65286 0.25334 0.0
H915 H 0.10013 0.57032 0.29529 0.0
H916 H 0.07852 0.58735 0.26996 0.0
H917 H 0.05729 0.64976 0.28453 0.0
H918 H 0.00758 0.69601 0.2026 0.0
H919 H 0.03484 0.68506 0.22603 0.0
H920 H 0.0646 0.62465 0.21267 0.0
C921 C 0.08661 0.5967 0.28117 0.0
C922 C 0.05919 0.64438 0.26884 0.0
C923 C 0.09888 0.58695 0.29582 0.0
C924 C 0.01229 0.68001 0.20248 0.0
C925 C 0.02779 0.67372 0.21602 0.0
C926 C 0.06285 0.63028 0.22828 0.0
C927 C 0.08501 0.61826 0.28079 0.0
C928 C 0.07305 0.62844 0.26426 0.0
C929 C 0.03371 0.65293 0.217 0.0
C930 C 0.04834 0.64563 0.23295 0.0
H931 H 0.11595 0.62946 0.32161 0.0
H932 H 0.09426 0.6465 0.29598 0.0
H933 H 0.08593 0.60979 0.23973 0.0
H934 H 0.00174 0.63355 0.18028 0.0
H935 H 0.02854 0.62259 0.20393 0.0
C936 C 0.16684 0.52106 0.69344 0.0
C937 C 0.15223 0.50862 0.68341 0.0
C938 C 0.16051 0.53642 0.70712 0.0
C939 C 0.11549 0.56701 0.72393 0.0
H940 H 0.14196 0.56559 0.77748 0.0
C941 C 0.07784 0.60343 0.79483 0.0
C942 C 0.09039 0.61494 0.80819 0.0
C943 C 0.08656 0.5914 0.77933 0.0
C944 C 0.1346 0.56639 0.76254 0.0
H945 H 0.11955 0.50338 0.67883 0.0
H946 H 0.10853 0.53015 0.70262 0.0
H947 H 0.15538 0.54437 0.74951 0.0
H948 H 0.12202 0.62225 0.81619 0.0
H949 H 0.13724 0.60123 0.78898 0.0
H950 H 0.09455 0.58879 0.73698 0.0
C951 C 0.12487 0.52806 0.69996 0.0
C952 C 0.14231 0.55429 0.7465 0.0
C953 C 0.13119 0.51265 0.68639 0.0
C954 C 0.11191 0.61354 0.80617 0.0
C955 C 0.12064 0.60149 0.7906 0.0
C956 C 0.10781 0.57912 0.73993 0.0
C957 C 0.13946 0.53974 0.71087 0.0
C958 C 0.13262 0.55422 0.72713 0.0
C959 C 0.10802 0.5906 0.77677 0.0
C960 C 0.11705 0.57867 0.75951 0.0
H961 H 0.18318 0.51838 0.69142 0.0
H962 H 0.17208 0.5454 0.71511 0.0
H963 H 0.1079 0.56749 0.70908 0.0
H964 H 0.06122 0.60401 0.79604 0.0
H965 H 0.07643 0.58279 0.76923 0.0
C966 C 0.01643 0.32511 0.79385 0.0
C967 C 0.0052 0.34033 0.80438 0.0
C968 C 0.03236 0.33062 0.78045 0.0
C969 C 0.0666 0.37381 0.76579 0.0
H970 H 0.06487 0.34914 0.71137 0.0
C971 C 0.10467 0.41249 0.69666 0.0
C972 C 0.11656 0.4002 0.68337 0.0
C973 C 0.09218 0.40349 0.7116 0.0
C974 C 0.06573 0.35596 0.72658 0.0
H975 H 0.00255 0.37318 0.80994 0.0
H976 H 0.03019 0.38276 0.78659 0.0
H977 H 0.04221 0.33614 0.73847 0.0
H978 H 0.12395 0.36874 0.67483 0.0
H979 H 0.10192 0.35298 0.70103 0.0
H980 H 0.08974 0.39394 0.75381 0.0
C981 C 0.0268 0.36657 0.78871 0.0
C982 C 0.05281 0.34849 0.74211 0.0
C983 C 0.01086 0.36108 0.80201 0.0
C984 C 0.11499 0.37864 0.68483 0.0
C985 C 0.10239 0.36961 0.69982 0.0
C986 C 0.07945 0.38128 0.75029 0.0
C987 C 0.03744 0.35144 0.77745 0.0
C988 C 0.05282 0.35764 0.76176 0.0
C989 C 0.09123 0.38199 0.71363 0.0
C990 C 0.07882 0.37274 0.7304 0.0
H991 H 0.01247 0.30898 0.79539 0.0
H992 H 0.04047 0.31862 0.77217 0.0
H993 H 0.06723 0.38092 0.78088 0.0
H994 H 0.10533 0.42914 0.69588 0.0
H995 H 0.08336 0.41341 0.72172 0.0
C996 C 0.87778 0.38576 0.81162 0.0
C997 C 0.89931 0.3847 0.81366 0.0
C998 C 0.86882 0.39983 0.798 0.0
C999 C 0.8797 0.44687 0.76771 0.0
H1000 H 0.83929 0.42488 0.72957 0.0
C1001 C 0.86158 0.48804 0.69235 0.0
C1002 C 0.84068 0.491 0.68761 0.0
C1003 C 0.86736 0.47451 0.70795 0.0
C1004 C 0.85039 0.43128 0.74025 0.0
H1005 H 0.92824 0.39832 0.80386 0.0
H1006 H 0.91269 0.42269 0.78022 0.0
H1007 H 0.85129 0.40368 0.75828 0.0
H1008 H 0.80954 0.48106 0.6946 0.0
H1009 H 0.81974 0.45728 0.72191 0.0
H1010 H 0.87914 0.47428 0.74953 0.0
C1011 C 0.90268 0.41274 0.78912 0.0
C1012 C 0.85719 0.41921 0.75673 0.0
C1013 C 0.91161 0.39866 0.8026 0.0
C1014 C 0.82577 0.47915 0.69792 0.0
C1015 C 0.83159 0.46554 0.71355 0.0
C1016 C 0.87297 0.45887 0.75126 0.0
C1017 C 0.88124 0.4132 0.78634 0.0
C1018 C 0.8722 0.42676 0.77039 0.0
C1019 C 0.8524 0.4636 0.71913 0.0
C1020 C 0.85856 0.45106 0.73713 0.0
H1021 H 0.86787 0.37522 0.81994 0.0
H1022 H 0.85223 0.40002 0.79633 0.0
H1023 H 0.89101 0.45323 0.77821 0.0
H1024 H 0.87347 0.49677 0.68454 0.0
H1025 H 0.88356 0.47292 0.7116 0.0
C1026 C 0.9719 0.67004 0.79934 0.0
C1027 C 0.98344 0.65461 0.80919 0.0
C1028 C 0.95642 0.66479 0.78533 0.0
C1029 C 0.92408 0.62144 0.76724 0.0
H1030 H 0.92726 0.64867 0.71413 0.0
C1031 C 0.89014 0.58461 0.69522 0.0
C1032 C 0.87814 0.59701 0.68216 0.0
C1033 C 0.90194 0.59342 0.71081 0.0
C1034 C 0.92599 0.64113 0.72896 0.0
H1035 H 0.98699 0.62162 0.81307 0.0
H1036 H 0.96009 0.61248 0.7887 0.0
H1037 H 0.9483 0.66112 0.74276 0.0
H1038 H 0.86999 0.62851 0.67457 0.0
H1039 H 0.89082 0.64395 0.70194 0.0
H1040 H 0.90219 0.60115 0.75337 0.0
C1041 C 0.96292 0.62863 0.79177 0.0
C1042 C 0.93797 0.64828 0.74537 0.0
C1043 C 0.97843 0.63387 0.80566 0.0
C1044 C 0.87907 0.61854 0.68438 0.0
C1045 C 0.89096 0.62738 0.70005 0.0
C1046 C 0.91217 0.61429 0.75088 0.0
C1047 C 0.9521 0.64402 0.78107 0.0
C1048 C 0.93747 0.6382 0.76454 0.0
C1049 C 0.90206 0.61483 0.71374 0.0
C1050 C 0.91337 0.62374 0.73144 0.0
H1051 H 0.97537 0.68618 0.80177 0.0
H1052 H 0.94814 0.67696 0.7775 0.0
H1053 H 0.9231 0.6136 0.78194 0.0
H1054 H 0.89 0.56799 0.69382 0.0
H1055 H 0.91077 0.58339 0.7208 0.0
C1056 C 0.18814 0.11338 0.3823 0.0
C1057 C 0.18725 0.09204 0.3787 0.0
C1058 C 0.20359 0.12172 0.39473 0.0
C1059 C 0.25554 0.10997 0.41455 0.0
H1060 H 0.24404 0.15412 0.45307 0.0
C1061 C 0.30991 0.13332 0.48065 0.0
C1062 C 0.3112 0.15425 0.486 0.0
C1063 C 0.29641 0.12682 0.46525 0.0
C1064 C 0.24757 0.14204 0.44213 0.0
H1065 H 0.20142 0.06267 0.38604 0.0
H1066 H 0.22806 0.0772 0.40803 0.0
H1067 H 0.21631 0.1403 0.43191 0.0
H1068 H 0.30038 0.18495 0.47844 0.0
H1069 H 0.27685 0.17356 0.45144 0.0
H1070 H 0.28674 0.11145 0.42512 0.0
C1071 C 0.21711 0.08752 0.40084 0.0
C1072 C 0.23167 0.13408 0.43005 0.0
C1073 C 0.20172 0.07918 0.38838 0.0
C1074 C 0.29966 0.16869 0.47477 0.0
C1075 C 0.28608 0.16217 0.45941 0.0
C1076 C 0.27143 0.11788 0.42668 0.0
C1077 C 0.21843 0.10891 0.40387 0.0
C1078 C 0.23543 0.11781 0.41629 0.0
C1079 C 0.28391 0.14112 0.45491 0.0
C1080 C 0.26756 0.13387 0.44073 0.0
H1081 H 0.17729 0.12375 0.37503 0.0
H1082 H 0.20426 0.13828 0.39665 0.0
H1083 H 0.25903 0.09771 0.40378 0.0
H1084 H 0.31868 0.12181 0.48895 0.0
H1085 H 0.29501 0.11048 0.46219 0.0
C1086 C 0.61832 0.30238 0.11388 0.0
C1087 C 0.5968 0.30416 0.11564 0.0
C1088 C 0.62702 0.28685 0.10176 0.0
C1089 C 0.61458 0.23604 0.07962 0.0
H1090 H 0.66021 0.24706 0.04271 0.0
C1091 C 0.63491 0.18455 0.01078 0.0
C1092 C 0.65569 0.18208 0.00531 0.0
C1093 C 0.62939 0.19752 0.02699 0.0
C1094 C 0.64773 0.24363 0.05324 0.0
H1095 H 0.56758 0.2915 0.1054 0.0
H1096 H 0.58274 0.26474 0.08411 0.0
H1097 H 0.64731 0.27445 0.06496 0.0
H1098 H 0.68708 0.19032 0.01328 0.0
H1099 H 0.67739 0.21299 0.0417 0.0
H1100 H 0.61468 0.20537 0.06755 0.0
C1101 C 0.59289 0.27503 0.09245 0.0
C1102 C 0.64031 0.25934 0.06593 0.0
C1103 C 0.58421 0.29051 0.10452 0.0
C1104 C 0.67093 0.19197 0.01708 0.0
C1105 C 0.66539 0.20505 0.03326 0.0
C1106 C 0.62199 0.22036 0.06694 0.0
C1107 C 0.61437 0.27282 0.09119 0.0
C1108 C 0.62338 0.25581 0.07893 0.0
C1109 C 0.64454 0.20832 0.03804 0.0
C1110 C 0.63837 0.2241 0.05332 0.0
H1111 H 0.62846 0.31263 0.12227 0.0
H1112 H 0.64363 0.28549 0.10111 0.0
H1113 H 0.6018 0.23274 0.08983 0.0
H1114 H 0.62281 0.17706 0.00207 0.0
H1115 H 0.61319 0.19984 0.03019 0.0
C1116 C 0.68481 0.86254 0.48202 0.0
C1117 C 0.6839 0.84144 0.4867 0.0
C1118 C 0.69858 0.86982 0.46724 0.0
C1119 C 0.73335 0.85447 0.42473 0.0
H1120 H 0.76422 0.90247 0.44246 0.0
C1121 C 0.80609 0.8833 0.38212 0.0
C1122 C 0.80717 0.90465 0.37865 0.0
C1123 C 0.79105 0.87511 0.39517 0.0
C1124 C 0.75562 0.88918 0.4372 0.0
H1125 H 0.69573 0.81126 0.4786 0.0
H1126 H 0.71996 0.82403 0.45289 0.0
H1127 H 0.73665 0.88918 0.46407 0.0
H1128 H 0.79357 0.93417 0.38657 0.0
H1129 H 0.76743 0.91989 0.40922 0.0
H1130 H 0.75251 0.85448 0.39787 0.0
C1131 C 0.70995 0.83493 0.46059 0.0
C1132 C 0.73977 0.8816 0.44953 0.0
C1133 C 0.69609 0.82762 0.47535 0.0
C1134 C 0.79321 0.91765 0.38889 0.0
C1135 C 0.77826 0.90948 0.40196 0.0
C1136 C 0.74926 0.86206 0.41237 0.0
C1137 C 0.7118 0.85617 0.45688 0.0
C1138 C 0.72837 0.86424 0.4434 0.0
C1139 C 0.77688 0.88813 0.40508 0.0
C1140 C 0.76049 0.87956 0.41845 0.0
H1141 H 0.67542 0.87356 0.49032 0.0
H1142 H 0.6993 0.88623 0.46434 0.0
H1143 H 0.72476 0.84114 0.41955 0.0
H1144 H 0.81662 0.87285 0.37448 0.0
H1145 H 0.79051 0.85861 0.3975 0.0
C1146 C 0.36116 0.8001 0.01139 0.0
C1147 C 0.3403 0.80207 0.00602 0.0
C1148 C 0.36714 0.78666 0.02703 0.0
C1149 C 0.35062 0.739 0.05169 0.0
H1150 H 0.39477 0.75121 0.08998 0.0
C1151 C 0.37954 0.68088 0.11305 0.0
C1152 C 0.40093 0.68019 0.11633 0.0
C1153 C 0.37094 0.696 0.10036 0.0
C1154 C 0.38254 0.74751 0.07925 0.0
H1155 H 0.30924 0.79226 0.01352 0.0
H1156 H 0.31975 0.76874 0.04092 0.0
H1157 H 0.38153 0.77835 0.06769 0.0
H1158 H 0.43014 0.69425 0.10809 0.0
H1159 H 0.41521 0.72024 0.08571 0.0
H1160 H 0.35194 0.70803 0.06291 0.0
C1161 C 0.33145 0.77747 0.03284 0.0
C1162 C 0.37492 0.76307 0.06657 0.0
C1163 C 0.32545 0.79104 0.01726 0.0
C1164 C 0.41358 0.69444 0.10605 0.0
C1165 C 0.40501 0.70946 0.09336 0.0
C1166 C 0.35829 0.72339 0.06434 0.0
C1167 C 0.3524 0.77485 0.03758 0.0
C1168 C 0.35909 0.75891 0.05245 0.0
C1169 C 0.38358 0.71067 0.09067 0.0
C1170 C 0.37457 0.72741 0.07802 0.0
H1171 H 0.37297 0.80846 0.00307 0.0
H1172 H 0.38341 0.78486 0.03023 0.0
H1173 H 0.33858 0.73527 0.04075 0.0
H1174 H 0.36935 0.67016 0.12078 0.0
H1175 H 0.35436 0.69657 0.09865 0.0
C1176 C 0.30447 0.85805 0.50632 0.0
C1177 C 0.30691 0.83707 0.50163 0.0
C1178 C 0.2899 0.86433 0.52079 0.0
C1179 C 0.25664 0.84737 0.5634 0.0
H1180 H 0.22213 0.89247 0.54489 0.0
C1181 C 0.18606 0.8757 0.6099 0.0
C1182 C 0.18466 0.89719 0.61222 0.0
C1183 C 0.19998 0.86714 0.59587 0.0
C1184 C 0.23171 0.87996 0.55034 0.0
H1185 H 0.29699 0.80612 0.50946 0.0
H1186 H 0.27149 0.81718 0.53482 0.0
H1187 H 0.24977 0.88003 0.52284 0.0
H1188 H 0.19631 0.92652 0.60112 0.0
H1189 H 0.22052 0.91163 0.57689 0.0
H1190 H 0.23867 0.84752 0.59108 0.0
C1191 C 0.28084 0.82872 0.52723 0.0
C1192 C 0.24757 0.87288 0.53775 0.0
C1193 C 0.29542 0.82241 0.51269 0.0
C1194 C 0.19697 0.90991 0.59976 0.0
C1195 C 0.2108 0.90137 0.58575 0.0
C1196 C 0.24077 0.85452 0.57608 0.0
C1197 C 0.27751 0.84977 0.53091 0.0
C1198 C 0.26038 0.85672 0.54426 0.0
C1199 C 0.21265 0.87991 0.58383 0.0
C1200 C 0.22833 0.87109 0.56978 0.0
H1201 H 0.31324 0.86973 0.49825 0.0
H1202 H 0.28797 0.88065 0.52368 0.0
H1203 H 0.26632 0.83491 0.5688 0.0
H1204 H 0.17677 0.86548 0.61926 0.0
H1205 H 0.20091 0.85054 0.59453 0.0
C1206 C 0.37251 0.30569 0.8829 0.0
C1207 C 0.39392 0.3058 0.87957 0.0
C1208 C 0.36338 0.29016 0.89472 0.0
C1209 C 0.37291 0.23705 0.91243 0.0
H1210 H 0.33083 0.24887 0.95312 0.0
C1211 C 0.35235 0.18212 0.97861 0.0
C1212 C 0.33186 0.18122 0.9855 0.0
C1213 C 0.35798 0.19571 0.96295 0.0
C1214 C 0.34228 0.24525 0.94153 0.0
H1215 H 0.42258 0.29017 0.88681 0.0
H1216 H 0.4067 0.26341 0.90758 0.0
H1217 H 0.3446 0.27674 0.93202 0.0
H1218 H 0.30094 0.19287 0.98044 0.0
H1219 H 0.31083 0.21654 0.95295 0.0
H1220 H 0.37092 0.20565 0.92224 0.0
C1221 C 0.39692 0.27502 0.90068 0.0
C1222 C 0.35021 0.26123 0.9295 0.0
C1223 C 0.40603 0.29049 0.88891 0.0
C1224 C 0.31689 0.19327 0.97555 0.0
C1225 C 0.32255 0.20694 0.95991 0.0
C1226 C 0.36499 0.22109 0.92445 0.0
C1227 C 0.37547 0.27446 0.9034 0.0
C1228 C 0.3659 0.25736 0.91512 0.0
C1229 C 0.34326 0.20869 0.95385 0.0
C1230 C 0.34987 0.22508 0.93939 0.0
H1231 H 0.36272 0.31723 0.87589 0.0
H1232 H 0.3468 0.2901 0.89652 0.0
H1233 H 0.38467 0.23351 0.90114 0.0
H1234 H 0.36423 0.17297 0.9859 0.0
H1235 H 0.37409 0.19678 0.95873 0.0
C1236 C 0.80248 0.07997 0.59815 0.0
C1237 C 0.81388 0.09213 0.61197 0.0
C1238 C 0.7888 0.08905 0.58437 0.0
C1239 C 0.75689 0.13494 0.57761 0.0
H1240 H 0.75063 0.11338 0.52225 0.0
C1241 C 0.70028 0.16771 0.5162 0.0
C1242 C 0.69003 0.15304 0.504 0.0
C1243 C 0.71539 0.16154 0.53025 0.0
C1244 C 0.75209 0.11944 0.53773 0.0
H1245 H 0.82027 0.12345 0.62173 0.0
H1246 H 0.79628 0.13937 0.59743 0.0
H1247 H 0.7786 0.10096 0.54389 0.0
H1248 H 0.68651 0.12033 0.49801 0.0
H1249 H 0.71266 0.10964 0.52259 0.0
H1250 H 0.73018 0.15334 0.57137 0.0
C1251 C 0.79789 0.12277 0.59749 0.0
C1252 C 0.76813 0.11238 0.55009 0.0
C1253 C 0.81172 0.11366 0.61127 0.0
C1254 C 0.69429 0.13205 0.507 0.0
C1255 C 0.70937 0.12591 0.52097 0.0
C1256 C 0.74081 0.14207 0.56518 0.0
C1257 C 0.78614 0.11051 0.58406 0.0
C1258 C 0.77047 0.11974 0.57029 0.0
C1259 C 0.72049 0.14062 0.53228 0.0
C1260 C 0.73804 0.13406 0.54527 0.0
H1261 H 0.80378 0.06334 0.59824 0.0
H1262 H 0.77979 0.07916 0.57441 0.0
H1263 H 0.75821 0.14076 0.59319 0.0
H1264 H 0.69731 0.18401 0.51427 0.0
H1265 H 0.72372 0.1732 0.5388 0.0
C1266 C 0.62351 0.80292 0.98703 0.0
C1267 C 0.64464 0.80485 0.99127 0.0
C1268 C 0.61659 0.78882 0.97236 0.0
C1269 C 0.63331 0.75533 0.92923 0.0
H1270 H 0.58604 0.72269 0.9457 0.0
C1271 C 0.60837 0.6823 0.88523 0.0
C1272 C 0.58726 0.68081 0.88065 0.0
C1273 C 0.61552 0.69723 0.89897 0.0
C1274 C 0.59915 0.73178 0.94082 0.0
H1275 H 0.67516 0.79429 0.98268 0.0
H1276 H 0.66306 0.76949 0.95727 0.0
H1277 H 0.59812 0.75035 0.96796 0.0
H1278 H 0.55703 0.69334 0.88752 0.0
H1279 H 0.56953 0.71928 0.91153 0.0
H1280 H 0.6344 0.73653 0.90215 0.0
C1281 C 0.65183 0.77898 0.96515 0.0
C1282 C 0.60603 0.7477 0.95351 0.0
C1283 C 0.65877 0.79317 0.97976 0.0
C1284 C 0.57339 0.69408 0.89068 0.0
C1285 C 0.58053 0.70891 0.9045 0.0
C1286 C 0.62647 0.73934 0.91656 0.0
C1287 C 0.63064 0.77628 0.96167 0.0
C1288 C 0.62315 0.7597 0.94784 0.0
C1289 C 0.60169 0.71085 0.90853 0.0
C1290 C 0.6093 0.72743 0.92223 0.0
H1291 H 0.61224 0.81185 0.99549 0.0
H1292 H 0.60018 0.78744 0.96969 0.0
H1293 H 0.6464 0.76443 0.92432 0.0
H1294 H 0.61947 0.67231 0.87779 0.0
H1295 H 0.63189 0.6982 0.90203 0.0
C1296 C 0.47699 0.2948 0.16127 0.0
C1297 C 0.48928 0.30644 0.14779 0.0
C1298 C 0.46174 0.28174 0.15356 0.0
C1299 C 0.44954 0.2528 0.10645 0.0
H1300 H 0.39785 0.24186 0.1343 0.0
C1301 C 0.38743 0.19854 0.07324 0.0
C1302 C 0.3778 0.185 0.08714 0.0
C1303 C 0.40062 0.21395 0.08038 0.0
C1304 C 0.41232 0.24465 0.12647 0.0
H1305 H 0.49426 0.31466 0.11578 0.0
H1306 H 0.46738 0.29218 0.10237 0.0
H1307 H 0.42041 0.26911 0.14705 0.0
H1308 H 0.37482 0.17682 0.11944 0.0
H1309 H 0.39797 0.20366 0.13183 0.0
H1310 H 0.44148 0.22831 0.08593 0.0
C1311 C 0.46989 0.29272 0.11885 0.0
C1312 C 0.42521 0.26027 0.13374 0.0
C1313 C 0.4852 0.3057 0.12655 0.0
C1314 C 0.38196 0.18699 0.1083 0.0
C1315 C 0.39508 0.20247 0.11544 0.0
C1316 C 0.43662 0.23726 0.09915 0.0
C1317 C 0.4584 0.28014 0.13222 0.0
C1318 C 0.44403 0.26444 0.12388 0.0
C1319 C 0.40441 0.21621 0.10156 0.0
C1320 C 0.41795 0.23293 0.10916 0.0
H1321 H 0.47975 0.29502 0.17772 0.0
H1322 H 0.45326 0.27217 0.16427 0.0
H1323 H 0.46412 0.25532 0.09874 0.0
H1324 H 0.38455 0.19747 0.05685 0.0
H1325 H 0.40748 0.2244 0.06934 0.0
C1326 C 0.38179 0.8051 0.87722 0.0
C1327 C 0.37925 0.80513 0.89874 0.0
C1328 C 0.39376 0.78996 0.86766 0.0
C1329 C 0.41297 0.73736 0.87641 0.0
H1330 H 0.45234 0.75015 0.83338 0.0
C1331 C 0.47921 0.68344 0.85388 0.0
C1332 C 0.48566 0.68275 0.83324 0.0
C1333 C 0.4636 0.69687 0.85997 0.0
C1334 C 0.44112 0.74626 0.8451 0.0
H1335 H 0.38807 0.7898 0.92714 0.0
H1336 H 0.40903 0.76367 0.91049 0.0
H1337 H 0.43107 0.77756 0.84784 0.0
H1338 H 0.47992 0.69468 0.80255 0.0
H1339 H 0.45249 0.71806 0.81321 0.0
H1340 H 0.42323 0.70615 0.87395 0.0
C1341 C 0.40144 0.77507 0.90098 0.0
C1342 C 0.42901 0.76198 0.85342 0.0
C1343 C 0.38955 0.79018 0.91052 0.0
C1344 C 0.47537 0.69492 0.8186 0.0
C1345 C 0.45976 0.70842 0.82471 0.0
C1346 C 0.42504 0.72166 0.86808 0.0
C1347 C 0.40335 0.77455 0.87944 0.0
C1348 C 0.41512 0.75774 0.86945 0.0
C1349 C 0.45409 0.70991 0.84555 0.0
C1350 C 0.43953 0.72601 0.85262 0.0
H1351 H 0.37406 0.81639 0.86769 0.0
H1352 H 0.39497 0.78992 0.85102 0.0
H1353 H 0.40206 0.73356 0.88844 0.0
H1354 H 0.48677 0.6742 0.86553 0.0
H1355 H 0.45971 0.69775 0.87617 0.0
C1356 C 0.19555 0.01709 0.66628 0.0
C1357 C 0.18547 0.00468 0.6517 0.0
C1358 C 0.20859 0.03297 0.65988 0.0
C1359 C 0.22358 0.06491 0.61516 0.0
H1360 H 0.27775 0.06371 0.64032 0.0
C1361 C 0.29333 0.1048 0.57799 0.0
C1362 C 0.30695 0.11544 0.59103 0.0
C1363 C 0.27789 0.0923 0.58622 0.0
C1364 C 0.26262 0.06447 0.63333 0.0
H1365 H 0.18002 3e-05 0.61905 0.0
H1366 H 0.20273 0.0277 0.60792 0.0
H1367 H 0.25058 0.04154 0.65368 0.0
H1368 H 0.31525 0.12098 0.62295 0.0
H1369 H 0.28818 0.09933 0.63726 0.0
H1370 H 0.23568 0.0877 0.59468 0.0
C1371 C 0.2006 0.02518 0.62427 0.0
C1372 C 0.24705 0.05181 0.64102 0.0
C1373 C 0.18767 0.00925 0.63066 0.0
C1374 C 0.30506 0.11295 0.61246 0.0
C1375 C 0.28957 0.10049 0.62068 0.0
C1376 C 0.23914 0.07764 0.60752 0.0
C1377 C 0.21164 0.03681 0.6388 0.0
C1378 C 0.22745 0.05171 0.63185 0.0
C1379 C 0.27568 0.0902 0.60765 0.0
C1380 C 0.25891 0.07735 0.61634 0.0
H1381 H 0.19411 0.01401 0.68261 0.0
H1382 H 0.21669 0.04191 0.67141 0.0
H1383 H 0.20855 0.06531 0.60794 0.0
H1384 H 0.2944 0.10629 0.56141 0.0
H1385 H 0.26769 0.08425 0.57575 0.0
C1386 C 0.50317 0.29739 0.86113 0.0
C1387 C 0.49909 0.30067 0.84014 0.0
C1388 C 0.51756 0.28269 0.86724 0.0
C1389 C 0.56116 0.25087 0.84991 0.0
H1390 H 0.54324 0.2151 0.8943 0.0
C1391 C 0.60931 0.18112 0.87733 0.0
C1392 C 0.61175 0.17963 0.89881 0.0
C1393 C 0.59487 0.19469 0.86893 0.0
C1394 C 0.54851 0.22502 0.88197 0.0
H1395 H 0.50778 0.29195 0.80905 0.0
H1396 H 0.53298 0.26619 0.8198 0.0
H1397 H 0.52054 0.24234 0.88215 0.0
H1398 H 0.60039 0.19066 0.92827 0.0
H1399 H 0.57537 0.21424 0.91365 0.0
H1400 H 0.58927 0.23362 0.84994 0.0
C1401 C 0.525 0.27502 0.83149 0.0
C1402 C 0.53555 0.24066 0.87505 0.0
C1403 C 0.51055 0.28975 0.82535 0.0
C1404 C 0.59895 0.19143 0.91167 0.0
C1405 C 0.58451 0.20489 0.90329 0.0
C1406 C 0.57418 0.2352 0.85687 0.0
C1407 C 0.52821 0.27096 0.8525 0.0
C1408 C 0.54185 0.25395 0.85917 0.0
C1409 C 0.5825 0.20689 0.88184 0.0
C1410 C 0.56808 0.22231 0.87318 0.0
H1411 H 0.49477 0.3057 0.87291 0.0
H1412 H 0.52008 0.28023 0.88355 0.0
H1413 H 0.56644 0.26092 0.83769 0.0
H1414 H 0.61892 0.17223 0.86699 0.0
H1415 H 0.59348 0.19576 0.85233 0.0
C1416 C 0.80154 0.97196 0.66696 0.0
C1417 C 0.81119 0.98397 0.65175 0.0
C1418 C 0.78818 0.95604 0.66138 0.0
C1419 C 0.77176 0.92327 0.61776 0.0
H1420 H 0.71814 0.92524 0.64407 0.0
C1421 C 0.70076 0.88668 0.58065 0.0
C1422 C 0.68708 0.87566 0.59331 0.0
C1423 C 0.71651 0.89845 0.58926 0.0
C1424 C 0.73312 0.92426 0.63679 0.0
H1425 H 0.81545 0.98792 0.61884 0.0
H1426 H 0.79219 0.9602 0.60914 0.0
H1427 H 0.74591 0.94712 0.6568 0.0
H1428 H 0.67891 0.86883 0.62501 0.0
H1429 H 0.70657 0.88942 0.64005 0.0
H1430 H 0.7589 0.90071 0.59751 0.0
C1431 C 0.79492 0.96304 0.62535 0.0
C1432 C 0.74904 0.93675 0.64411 0.0
C1433 C 0.80816 0.97901 0.63091 0.0
C1434 C 0.68916 0.87717 0.61482 0.0
C1435 C 0.70499 0.88896 0.62345 0.0
C1436 C 0.75588 0.91077 0.61048 0.0
C1437 C 0.78439 0.95174 0.64051 0.0
C1438 C 0.76839 0.93667 0.6344 0.0
C1439 C 0.71901 0.89946 0.61072 0.0
C1440 C 0.73626 0.91147 0.61963 0.0
H1441 H 0.80361 0.97538 0.68316 0.0
H1442 H 0.78044 0.9474 0.67338 0.0
H1443 H 0.78661 0.92267 0.61018 0.0
H1444 H 0.69953 0.88601 0.56403 0.0
H1445 H 0.72677 0.90675 0.57905 0.0
C1446 C 0.51428 0.69914 0.17427 0.0
C1447 C 0.50348 0.68789 0.15923 0.0
C1448 C 0.5275 0.71514 0.1685 0.0
C1449 C 0.53392 0.75208 0.12656 0.0
H1450 H 0.5887 0.76121 0.14847 0.0
C1451 C 0.59283 0.80385 0.08665 0.0
C1452 C 0.60674 0.81539 0.09855 0.0
C1453 C 0.57902 0.79038 0.09602 0.0
C1454 C 0.57326 0.75909 0.14251 0.0
H1455 H 0.49924 0.68361 0.12632 0.0
H1456 H 0.5223 0.71139 0.11635 0.0
H1457 H 0.56816 0.73223 0.16106 0.0
H1458 H 0.61637 0.82256 0.12975 0.0
H1459 H 0.59199 0.79901 0.14619 0.0
H1460 H 0.53893 0.77873 0.10793 0.0
C1461 C 0.52023 0.70812 0.13259 0.0
C1462 C 0.56159 0.74246 0.14965 0.0
C1463 C 0.50713 0.69211 0.13832 0.0
C1464 C 0.60587 0.81386 0.12014 0.0
C1465 C 0.59204 0.80027 0.12955 0.0
C1466 C 0.5455 0.76872 0.11953 0.0
C1467 C 0.53004 0.72018 0.14761 0.0
C1468 C 0.54201 0.73853 0.14135 0.0
C1469 C 0.57875 0.78811 0.11754 0.0
C1470 C 0.56549 0.77214 0.12706 0.0
H1471 H 0.51183 0.69622 0.19051 0.0
H1472 H 0.53495 0.72418 0.18038 0.0
H1473 H 0.51865 0.74969 0.12027 0.0
H1474 H 0.59303 0.80469 0.06998 0.0
H1475 H 0.56916 0.78108 0.0863 0.0
C1476 C 0.18756 0.98105 0.35699 0.0
C1477 C 0.18623 0.98686 0.33619 0.0
C1478 C 0.20047 0.96496 0.36297 0.0
C1479 C 0.24805 0.94003 0.34677 0.0
H1480 H 0.23529 0.90167 0.39072 0.0
C1481 C 0.30624 0.87921 0.37588 0.0
C1482 C 0.30714 0.87619 0.39731 0.0
C1483 C 0.29079 0.89142 0.36723 0.0
C1484 C 0.23913 0.9124 0.37853 0.0
H1485 H 0.19641 0.97958 0.30519 0.0
H1486 H 0.21895 0.9514 0.31569 0.0
H1487 H 0.20834 0.92412 0.37728 0.0
H1488 H 0.29284 0.88412 0.42649 0.0
H1489 H 0.26621 0.9057 0.41143 0.0
H1490 H 0.27894 0.92871 0.34835 0.0
C1491 C 0.21019 0.95949 0.32737 0.0
C1492 C 0.22368 0.92517 0.3708 0.0
C1493 C 0.19719 0.97553 0.32136 0.0
C1494 C 0.29255 0.88602 0.40992 0.0
C1495 C 0.27716 0.89825 0.40128 0.0
C1496 C 0.26352 0.92729 0.35454 0.0
C1497 C 0.21234 0.9544 0.34829 0.0
C1498 C 0.22806 0.93933 0.35504 0.0
C1499 C 0.27596 0.9009 0.37983 0.0
C1500 C 0.25929 0.91357 0.37073 0.0
H1501 H 0.17923 0.98941 0.36879 0.0
H1502 H 0.2019 0.96149 0.37923 0.0
H1503 H 0.25197 0.95101 0.33484 0.0
H1504 H 0.31719 0.87179 0.36571 0.0
H1505 H 0.2902 0.89307 0.35064 0.0
C1506 C 0.79749 0.02034 0.31986 0.0
C1507 C 0.80834 0.00947 0.33512 0.0
C1508 C 0.78416 0.03635 0.3253 0.0
C1509 C 0.76993 0.07134 0.36807 0.0
H1510 H 0.71488 0.06767 0.34511 0.0
C1511 C 0.70076 0.10724 0.40862 0.0
C1512 C 0.68642 0.11828 0.39675 0.0
C1513 C 0.716 0.09548 0.39918 0.0
C1514 C 0.73025 0.0691 0.35142 0.0
H1515 H 0.81466 0.00764 0.36788 0.0
H1516 H 0.79147 0.03545 0.37733 0.0
H1517 H 0.74217 0.04554 0.33167 0.0
H1518 H 0.67643 0.12499 0.36557 0.0
H1519 H 0.70318 0.10422 0.34901 0.0
H1520 H 0.75791 0.09449 0.38817 0.0
C1521 C 0.79325 0.03169 0.36118 0.0
C1522 C 0.7459 0.05648 0.3437 0.0
C1523 C 0.80646 0.01565 0.35576 0.0
C1524 C 0.68724 0.11667 0.37516 0.0
C1525 C 0.70254 0.1048 0.36567 0.0
C1526 C 0.75431 0.08391 0.37577 0.0
C1527 C 0.78158 0.04188 0.34607 0.0
C1528 C 0.76578 0.05714 0.35229 0.0
C1529 C 0.71731 0.09442 0.37762 0.0
C1530 C 0.7342 0.08256 0.36789 0.0
H1531 H 0.79865 0.01597 0.3038 0.0
H1532 H 0.77556 0.04411 0.31331 0.0
H1533 H 0.78517 0.07246 0.37473 0.0
H1534 H 0.70051 0.10796 0.42529 0.0
H1535 H 0.72686 0.08725 0.4088 0.0
C1536 C 0.95528 0.356 0.93012 0.0
C1537 C 0.96262 0.34235 0.91512 0.0
C1538 C 0.96514 0.3575 0.94917 0.0
C1539 C 0.01406 0.34441 0.97587 0.0
H1540 H 0.98064 0.35057 0.02501 0.0
C1541 C 0.04355 0.32871 0.05827 0.0
C1542 C 0.03823 0.34313 0.07346 0.0
C1543 C 0.03528 0.33021 0.03849 0.0
C1544 C 0.99016 0.34908 0.01138 0.0
H1545 H 0.98571 0.31947 0.90791 0.0
H1546 H 0.00269 0.32152 0.94141 0.0
H1547 H 0.9641 0.34981 0.99134 0.0
H1548 H 0.02069 0.37075 0.0799 0.0
H1549 H 0.00575 0.37312 0.04536 0.0
H1550 H 0.04005 0.34299 0.99615 0.0
C1551 C 0.98969 0.33151 0.93842 0.0
C1552 C 0.98073 0.34871 0.99208 0.0
C1553 C 0.97993 0.3302 0.91931 0.0
C1554 C 0.02476 0.35928 0.06849 0.0
C1555 C 0.01628 0.36065 0.04879 0.0
C1556 C 0.02346 0.34456 0.9952 0.0
C1557 C 0.9824 0.34518 0.9536 0.0
C1558 C 0.99254 0.34626 0.97408 0.0
C1559 C 0.02136 0.34604 0.03366 0.0
C1560 C 0.01158 0.3468 0.01312 0.0
H1561 H 0.94202 0.36565 0.92703 0.0
H1562 H 0.95932 0.36843 0.96034 0.0
H1563 H 0.02368 0.34291 0.96232 0.0
H1564 H 0.05372 0.31598 0.06182 0.0
H1565 H 0.03926 0.31863 0.02716 0.0
C1566 C 0.86037 0.45042 0.43164 0.0
C1567 C 0.84752 0.45894 0.41654 0.0
C1568 C 0.86182 0.45957 0.45107 0.0
C1569 C 0.85206 0.50855 0.47844 0.0
H1570 H 0.85093 0.47402 0.52715 0.0
C1571 C 0.85949 0.5423 0.56031 0.0
C1572 C 0.84586 0.53435 0.57505 0.0
C1573 C 0.86145 0.53278 0.54111 0.0
C1574 C 0.85119 0.48387 0.51369 0.0
H1575 H 0.82599 0.48342 0.40965 0.0
H1576 H 0.82834 0.4994 0.4436 0.0
H1577 H 0.85079 0.45813 0.49311 0.0
H1578 H 0.82367 0.51038 0.58164 0.0
H1579 H 0.82689 0.49376 0.54803 0.0
H1580 H 0.85176 0.5343 0.49897 0.0
C1581 C 0.83759 0.48589 0.44043 0.0
C1582 C 0.85135 0.47476 0.4942 0.0
C1583 C 0.83617 0.47673 0.42106 0.0
C1584 C 0.83438 0.51665 0.57048 0.0
C1585 C 0.83631 0.50713 0.55131 0.0
C1586 C 0.8519 0.51766 0.49791 0.0
C1587 C 0.85042 0.47741 0.45567 0.0
C1588 C 0.85153 0.48701 0.47636 0.0
C1589 C 0.8498 0.51513 0.53638 0.0
C1590 C 0.85122 0.50542 0.51575 0.0
H1591 H 0.86939 0.43677 0.42834 0.0
H1592 H 0.87199 0.45281 0.46242 0.0
H1593 H 0.85248 0.51841 0.46499 0.0
H1594 H 0.86866 0.55583 0.56368 0.0
H1595 H 0.87217 0.53916 0.53003 0.0
C1596 C 0.01456 0.65957 0.92304 0.0
C1597 C 0.03133 0.64686 0.91829 0.0
C1598 C 0.00523 0.65844 0.94235 0.0
C1599 C 0.01452 0.64157 0.99578 0.0
H1600 H 0.95525 0.64761 0.00015 0.0
C1601 C 0.97031 0.63508 0.07306 0.0
C1602 C 0.95592 0.65078 0.0767 0.0
C1603 C 0.97942 0.63297 0.05367 0.0
C1604 C 0.97183 0.64599 -0.00085 0.0
H1605 H 0.0515 0.62288 0.92956 0.0
H1606 H 0.03502 0.62064 0.96345 0.0
H1607 H 0.97135 0.64656 0.96625 0.0
H1608 H 0.93996 0.67679 0.06328 0.0
H1609 H 0.9556 0.67296 0.02929 0.0
H1610 H 0.01489 0.641 0.02878 0.0
C1611 C 0.02925 0.63171 0.9524 0.0
C1612 C 0.98106 0.64544 0.97976 0.0
C1613 C 0.03864 0.63293 0.93306 0.0
C1614 C 0.95075 0.66433 0.06071 0.0
C1615 C 0.9597 0.66214 0.0413 0.0
C1616 C 0.00525 0.64198 0.0152 0.0
C1617 C 0.01243 0.64448 0.95725 0.0
C1618 C 0.00254 0.64357 0.97785 0.0
C1619 C 0.97414 0.64646 0.03759 0.0
C1620 C 0.98385 0.64452 0.01706 0.0
H1621 H 0.00884 0.67057 0.91187 0.0
H1622 H 0.99257 0.66878 0.9457 0.0
H1623 H 0.03113 0.64034 0.99486 0.0
H1624 H 0.97441 0.62438 0.08518 0.0
H1625 H 0.99041 0.62068 0.05117 0.0
C1626 C 0.13862 0.45094 0.55956 0.0
C1627 C 0.15123 0.45967 0.57475 0.0
C1628 C 0.13712 0.46009 0.54014 0.0
C1629 C 0.14604 0.5094 0.51305 0.0
H1630 H 0.14607 0.47513 0.46413 0.0
C1631 C 0.13451 0.54329 0.43173 0.0
C1632 C 0.14731 0.53548 0.4162 0.0
C1633 C 0.13382 0.53379 0.45102 0.0
C1634 C 0.14616 0.48491 0.47764 0.0
H1635 H 0.17234 0.48448 0.58179 0.0
H1636 H 0.16997 0.50043 0.54782 0.0
H1637 H 0.14752 0.45907 0.49802 0.0
H1638 H 0.16937 0.51179 0.40831 0.0
H1639 H 0.16842 0.49523 0.44208 0.0
H1640 H 0.14534 0.53525 0.49268 0.0
C1641 C 0.16092 0.48676 0.55092 0.0
C1642 C 0.14674 0.4757 0.49706 0.0
C1643 C 0.16237 0.47763 0.57031 0.0
C1644 C 0.15929 0.51796 0.4201 0.0
C1645 C 0.15865 0.50847 0.43937 0.0
C1646 C 0.1455 0.5186 0.49363 0.0
C1647 C 0.14825 0.47813 0.53561 0.0
C1648 C 0.14685 0.48785 0.51498 0.0
C1649 C 0.14595 0.5163 0.45507 0.0
C1650 C 0.1457 0.50647 0.4757 0.0
H1651 H 0.12977 0.43717 0.5628 0.0
H1652 H 0.12705 0.4532 0.52877 0.0
H1653 H 0.14584 0.51918 0.52656 0.0
H1654 H 0.12497 0.55668 0.42889 0.0
H1655 H 0.12366 0.54002 0.46269 0.0
C1656 C 0.9232 0.97732 0.33295 0.0
C1657 C 0.91776 0.9617 0.3468 0.0
C1658 C 0.94249 0.98667 0.33418 0.0
C1659 C 0.99502 0.9786 0.35404 0.0
H1660 H 5e-05 0.03727 0.34403 0.0
C1661 C 0.07227 0.02252 0.36111 0.0
C1662 C 0.07675 0.03605 0.34486 0.0
C1663 C 0.05272 0.0137 0.36283 0.0
C1664 C -0.00112 0.02085 0.34675 0.0
H1665 H 0.92776 0.94365 0.37294 0.0
H1666 H 0.96164 0.96012 0.3753 0.0
H1667 H 0.96604 0.02139 0.3446 0.0
H1668 H 0.06461 0.05092 0.31762 0.0
H1669 H 0.03034 0.0357 0.32067 0.0
H1670 H 0.02793 0.97813 0.35613 0.0
C1671 C 0.95114 0.96496 0.36328 0.0
C1672 C 0.97942 0.01175 0.34704 0.0
C1673 C 0.93181 0.95557 0.36199 0.0
C1674 C 0.06139 0.04073 0.33043 0.0
C1675 C 0.04182 0.03205 0.3322 0.0
C1676 C 0.01449 0.98774 0.35384 0.0
C1677 C 0.95669 0.98062 0.34937 0.0
C1678 C 0.97729 0.99046 0.35039 0.0
C1679 C 0.0373 0.01841 0.34839 0.0
C1680 C 0.01662 0.00891 0.34991 0.0
H1681 H 0.91258 0.98214 0.32101 0.0
H1682 H 0.94641 -0.00159 0.323 0.0
H1683 H 0.99392 0.96213 0.35643 0.0
H1684 H 0.08387 0.01887 0.37253 0.0
H1685 H 0.04959 0.00339 0.37556 0.0
C1686 C 0.54478 0.43101 0.16124 0.0
C1687 C 0.54075 0.41622 0.14602 0.0
C1688 C 0.5361 0.4506 0.1599 0.0
C1689 C 0.49185 0.47779 0.13887 0.0
H1690 H 0.52421 0.52677 0.14992 0.0
C1691 C 0.45673 0.55932 0.13443 0.0
C1692 C 0.46287 0.57327 0.14971 0.0
C1693 C 0.46681 0.54044 0.13233 0.0
C1694 C 0.51491 0.51323 0.14701 0.0
H1695 H 0.52485 0.4102 0.11733 0.0
H1696 H 0.50923 0.44448 0.11516 0.0
H1697 H 0.54099 0.49318 0.14922 0.0
H1698 H 0.48397 0.57872 0.17489 0.0
H1699 H 0.50134 0.54555 0.17166 0.0
H1700 H 0.46566 0.49765 0.13728 0.0
C1701 C 0.51911 0.44089 0.12811 0.0
C1702 C 0.52454 0.49403 0.14653 0.0
C1703 C 0.52799 0.42134 0.12935 0.0
C1704 C 0.47915 0.56817 0.16289 0.0
C1705 C 0.48914 0.54926 0.16092 0.0
C1706 C 0.48217 0.49697 0.13953 0.0
C1707 C 0.52304 0.45567 0.14342 0.0
C1708 C 0.51307 0.47613 0.14265 0.0
C1709 C 0.48311 0.53516 0.1456 0.0
C1710 C 0.49355 0.5149 0.14381 0.0
H1711 H 0.55433 0.42729 0.17441 0.0
H1712 H 0.53915 0.46162 0.17206 0.0
H1713 H 0.48262 0.46418 0.13607 0.0
H1714 H 0.44427 0.56312 0.12401 0.0
H1715 H 0.46196 0.53007 0.1202 0.0
C1716 C 0.07296 0.97108 0.66604 0.0
C1717 C 0.07787 0.95506 0.65244 0.0
C1718 C 0.05335 0.97983 0.66579 0.0
C1719 C 0.00866 0.98827 0.63286 0.0
H1720 H 0.97937 0.99627 0.68435 0.0
C1721 C 0.93549 0.03823 0.64048 0.0
C1722 C 0.91917 0.02951 0.65161 0.0
C1723 C 0.95471 0.02863 0.64015 0.0
C1724 C 0.98735 0.99403 0.66987 0.0
H1725 H 0.06668 0.93565 0.62777 0.0
H1726 H 0.03222 0.95113 0.62713 0.0
H1727 H 0.01345 0.9803 0.68459 0.0
H1728 H 0.9099 0.00428 0.67133 0.0
H1729 H 0.94365 0.98746 0.6709 0.0
H1730 H 0.98259 0.00214 0.61816 0.0
C1731 C 0.04349 0.95688 0.638 0.0
C1732 C 0.00687 0.98506 0.67002 0.0
C1733 C 0.06306 0.94799 0.63842 0.0
C1734 C 0.92229 0.01114 0.66251 0.0
C1735 C 0.94157 0.00164 0.66237 0.0
C1736 C 0.98923 -0.00254 0.63274 0.0
C1737 C 0.03845 0.97281 0.65175 0.0
C1738 C 0.01769 0.98211 0.65152 0.0
C1739 C 0.95793 0.01031 0.65118 0.0
C1740 C 0.97841 0.00041 0.65124 0.0
H1741 H 0.08425 0.97669 0.67697 0.0
H1742 H 0.04988 0.99222 0.67641 0.0
H1743 H 0.01677 0.98626 0.61841 0.0
H1744 H 0.93332 0.05242 0.63196 0.0
H1745 H 0.96714 0.03571 0.63156 0.0
C1746 C 0.53982 0.55572 0.82874 0.0
C1747 C 0.53452 0.5715 0.84251 0.0
C1748 C 0.53106 0.53619 0.83074 0.0
C1749 C 0.4857 0.50984 0.85156 0.0
H1750 H 0.51895 0.46069 0.84488 0.0
C1751 C 0.45186 0.42838 0.86225 0.0
C1752 C 0.45789 0.41359 0.84773 0.0
C1753 C 0.46181 0.44744 0.86307 0.0
C1754 C 0.50942 0.47427 0.8466 0.0
H1755 H 0.51632 0.57936 0.86933 0.0
H1756 H 0.50079 0.54519 0.87276 0.0
H1757 H 0.53528 0.49449 0.84352 0.0
H1758 H 0.47885 0.40677 0.82273 0.0
H1759 H 0.49614 0.44015 0.8239 0.0
H1760 H 0.45978 0.4897 0.85425 0.0
C1761 C 0.51157 0.54795 0.86033 0.0
C1762 C 0.51879 0.49361 0.84584 0.0
C1763 C 0.52043 0.56745 0.85838 0.0
C1764 C 0.47411 0.41796 0.83417 0.0
C1765 C 0.48402 0.43701 0.83492 0.0
C1766 C 0.47632 0.4905 0.85223 0.0
C1767 C 0.51677 0.53214 0.84649 0.0
C1768 C 0.50699 0.51159 0.84816 0.0
C1769 C 0.47793 0.45201 0.84932 0.0
C1770 C 0.48805 0.4725 0.84959 0.0
H1771 H 0.55049 0.55859 0.81624 0.0
H1772 H 0.53514 0.52438 0.81967 0.0
H1773 H 0.47619 0.52345 0.85313 0.0
H1774 H 0.43948 0.42516 0.87296 0.0
H1775 H 0.45694 0.45855 0.87452 0.0
C1776 C 0.33312 0.05528 0.04334 0.0
C1777 C 0.34654 0.07112 0.03736 0.0
C1778 C 0.33505 0.03562 0.03486 0.0
C1779 C 0.35402 0.009 0.98901 0.0
H1780 H 0.3488 0.96008 0.02287 0.0
C1781 C 0.36175 0.92723 0.95495 0.0
C1782 C 0.34761 0.91256 0.96208 0.0
C1783 C 0.36336 0.94636 0.96469 0.0
C1784 C 0.3501 0.97359 0.01317 0.0
H1785 H 0.37274 0.07892 0.01826 0.0
H1786 H 0.37601 0.04452 0.00314 0.0
H1787 H 0.34846 0.99399 0.03904 0.0
H1788 H 0.32406 0.90604 0.98473 0.0
H1789 H 0.32653 0.93955 0.00162 0.0
H1790 H 0.35515 0.98871 0.96309 0.0
C1791 C 0.36392 0.04734 0.0143 0.0
C1792 C 0.34995 0.99299 0.02245 0.0
C1793 C 0.36206 0.06696 0.02291 0.0
C1794 C 0.33519 0.91714 0.97912 0.0
C1795 C 0.33671 0.93627 0.98882 0.0
C1796 C 0.35405 0.9896 0.97971 0.0
C1797 C 0.35037 0.0315 0.02013 0.0
C1798 C 0.35172 0.01089 0.01044 0.0
C1799 C 0.35077 0.95113 0.98169 0.0
C1800 C 0.35188 0.97168 0.99167 0.0
H1801 H 0.32084 0.05821 0.05426 0.0
H1802 H 0.32421 0.0238 0.03943 0.0
H1803 H 0.35516 0.02255 0.97934 0.0
H1804 H 0.3716 0.92385 0.94191 0.0
H1805 H 0.37454 0.95734 0.95899 0.0
C1806 C 0.43625 0.15901 0.54389 0.0
C1807 C 0.42075 0.14489 0.53864 0.0
C1808 C 0.45586 0.15732 0.53523 0.0
C1809 C 0.48214 0.13866 0.48944 0.0
H1810 H 0.53157 0.14418 0.52248 0.0
C1811 C 0.56327 0.13307 0.45349 0.0
C1812 C 0.57817 0.14673 0.46107 0.0
C1813 C 0.5443 0.13111 0.46346 0.0
C1814 C 0.51793 0.14284 0.51299 0.0
H1815 H 0.41355 0.11772 0.52069 0.0
H1816 H 0.44781 0.11504 0.50509 0.0
H1817 H 0.49795 0.14393 0.53924 0.0
H1818 H 0.58514 0.16927 0.48458 0.0
H1819 H 0.55185 0.16637 0.50176 0.0
H1820 H 0.50191 0.1383 0.46313 0.0
C1821 C 0.44476 0.12738 0.5159 0.0
C1822 C 0.4987 0.14261 0.52262 0.0
C1823 C 0.42522 0.12892 0.52477 0.0
C1824 C 0.57389 0.15847 0.47866 0.0
C1825 C 0.55488 0.15669 0.48852 0.0
C1826 C 0.50135 0.13913 0.47978 0.0
C1827 C 0.46022 0.14164 0.52098 0.0
C1828 C 0.48064 0.14068 0.51092 0.0
C1829 C 0.53984 0.14296 0.48107 0.0
C1830 C 0.51948 0.14141 0.49142 0.0
H1831 H 0.43308 0.17164 0.55431 0.0
H1832 H 0.46743 0.16867 0.53921 0.0
H1833 H 0.46841 0.13739 0.48005 0.0
H1834 H 0.5664 0.1238 0.43997 0.0
H1835 H 0.53321 0.1202 0.45747 0.0
C1836 C 0.66566 0.06992 0.97421 0.0
C1837 C 0.65369 0.07435 0.95681 0.0
C1838 C 0.66457 0.05056 0.98346 0.0
C1839 C 0.64957 -0.00323 0.97334 0.0
H1840 H 0.64992 0.99277 0.03295 0.0
C1841 C 0.66163 0.91986 0.01597 0.0
C1842 C 0.64987 0.91641 0.03375 0.0
C1843 C 0.66126 0.93905 0.0063 0.0
C1844 C 0.64961 0.99363 0.01629 0.0
H1845 H 0.63107 0.06244 0.93544 0.0
H1846 H 0.62901 0.02847 0.95165 0.0
H1847 H 0.65048 0.02654 0.01664 0.0
H1848 H 0.62814 0.92977 0.05518 0.0
H1849 H 0.62732 0.96341 0.03823 0.0
H1850 H 0.64837 0.96385 0.97301 0.0
C1851 C 0.63947 0.03981 0.958 0.0
C1852 C 0.65019 0.01297 0.00695 0.0
C1853 C 0.6406 0.0592 0.94875 0.0
C1854 C 0.63752 0.93227 0.0416 0.0
C1855 C 0.63711 0.95146 0.03194 0.0
C1856 C 0.64898 0.97742 0.98269 0.0
C1857 C 0.65143 0.0353 0.97548 0.0
C1858 C 0.6503 0.01475 0.98537 0.0
C1859 C 0.64906 0.95509 0.01423 0.0
C1860 C 0.6491 0.97564 0.00426 0.0
H1861 H 0.67597 0.08141 0.98056 0.0
H1862 H 0.67421 0.04747 -0.00329 0.0
H1863 H 0.64981 -0.00237 0.95668 0.0
H1864 H 0.67135 0.90781 0.00976 0.0
H1865 H 0.67085 0.94144 0.99286 0.0
C1866 C 0.43483 0.83463 0.45032 0.0
C1867 C 0.41912 0.84875 0.45481 0.0
C1868 C 0.45398 0.83633 0.45988 0.0
C1869 C 0.47871 0.85588 0.50639 0.0
H1870 H 0.52898 0.84859 0.47498 0.0
C1871 C 0.55988 0.8617 0.54315 0.0
C1872 C 0.57441 0.84729 0.53629 0.0
C1873 C 0.54081 0.86337 0.53327 0.0
C1874 C 0.51508 0.85045 0.48401 0.0
H1875 H 0.41102 0.87586 0.47246 0.0
H1876 H 0.44456 0.87869 0.48952 0.0
H1877 H 0.49594 0.84905 0.45723 0.0
H1878 H 0.58057 0.82296 0.51437 0.0
H1879 H 0.54721 0.8255 0.49732 0.0
H1880 H 0.4978 0.85675 0.53326 0.0
C1881 C 0.44201 0.8663 0.47864 0.0
C1882 C 0.49618 0.85079 0.47382 0.0
C1883 C 0.42289 0.86469 0.46891 0.0
C1884 C 0.56958 0.83433 0.51973 0.0
C1885 C 0.55057 0.8359 0.50993 0.0
C1886 C 0.49763 0.85541 0.51663 0.0
C1887 C 0.45772 0.85208 0.47424 0.0
C1888 C 0.4778 0.85323 0.48493 0.0
C1889 C 0.53603 0.85058 0.51642 0.0
C1890 C 0.516 0.85239 0.50557 0.0
H1891 H 0.43216 0.822 0.43975 0.0
H1892 H 0.46572 0.82498 0.45642 0.0
H1893 H 0.46474 0.8576 0.51535 0.0
H1894 H 0.56344 0.8719 0.55587 0.0
H1895 H 0.53002 0.87493 0.53854 0.0
C1896 C 0.08307 0.26546 0.17726 0.0
C1897 C 0.06645 0.27919 0.17913 0.0
C1898 C 0.08438 0.24819 0.19001 0.0
C1899 C 0.06904 0.2314 0.24113 0.0
H1900 H 0.08713 0.17757 0.2227 0.0
C1901 C 0.0828 0.16513 0.29855 0.0
C1902 C 0.10051 0.15328 0.2951 0.0
C1903 C 0.07578 0.1788 0.28347 0.0
C1904 C 0.08219 0.19256 0.22811 0.0
H1905 H 0.0377 0.28505 0.19525 0.0
H1906 H 0.04015 0.25499 0.21753 0.0
H1907 H 0.08014 0.2045 0.1974 0.0
H1908 H 0.12534 0.14703 0.27367 0.0
H1909 H 0.11336 0.17091 0.24755 0.0
H1910 H 0.07186 0.2199 0.27182 0.0
C1911 C 0.05218 0.25769 0.20629 0.0
C1912 C 0.07814 0.20792 0.21362 0.0
C1913 C 0.05078 0.27485 0.19346 0.0
C1914 C 0.11121 0.15542 0.27644 0.0
C1915 C 0.10433 0.16915 0.26146 0.0
C1916 C 0.07325 0.21612 0.25563 0.0
C1917 C 0.06917 0.24442 0.20495 0.0
C1918 C 0.07179 0.22755 0.22002 0.0
C1919 C 0.08658 0.18108 0.26481 0.0
C1920 C 0.08019 0.19662 0.24931 0.0
H1921 H 0.09533 0.26831 0.16631 0.0
H1922 H 0.09772 0.23825 0.18875 0.0
H1923 H 0.06441 0.2465 0.24651 0.0
H1924 H 0.07436 0.16379 0.31289 0.0
H1925 H 0.06196 0.18763 0.28647 0.0
C1926 C 0.76668 0.41284 0.31696 0.0
C1927 C 0.7811 0.42878 0.31446 0.0
C1928 C 0.7491 0.41196 0.30462 0.0
C1929 C 0.73223 0.42618 0.25336 0.0
H1930 H 0.67819 0.40998 0.27295 0.0
C1931 C 0.66613 0.40986 0.19663 0.0
C1932 C 0.65414 0.39242 0.20095 0.0
C1933 C 0.67955 0.41779 0.21147 0.0
C1934 C 0.69322 0.4144 0.26722 0.0
H1935 H 0.78785 0.45686 0.29754 0.0
H1936 H 0.75725 0.45513 0.27585 0.0
H1937 H 0.70546 0.41759 0.29772 0.0
H1938 H 0.64714 0.36921 0.22389 0.0
H1939 H 0.67067 0.38274 0.24963 0.0
H1940 H 0.72049 0.42207 0.22292 0.0
C1941 C 0.75964 0.4433 0.28737 0.0
C1942 C 0.70877 0.41883 0.28141 0.0
C1943 C 0.77713 0.44429 0.29985 0.0
C1944 C 0.6557 0.38307 0.22037 0.0
C1945 C 0.66923 0.39085 0.23513 0.0
C1946 C 0.71676 0.42156 0.23917 0.0
C1947 C 0.74567 0.42693 0.28939 0.0
C1948 C 0.72851 0.42443 0.27459 0.0
C1949 C 0.68149 0.40819 0.23081 0.0
C1950 C 0.69717 0.41525 0.24592 0.0
H1951 H 0.76924 0.40065 0.32801 0.0
H1952 H 0.73867 0.39906 0.30637 0.0
H1953 H 0.74739 0.4302 0.24767 0.0
H1954 H 0.6652 0.4173 0.18172 0.0
H1955 H 0.68856 0.43131 0.2077 0.0
C1956 C 0.87687 0.8247 0.29254 0.0
C1957 C 0.89055 0.84059 0.29767 0.0
C1958 C 0.88094 0.8119 0.27577 0.0
C1959 C 0.92125 0.7893 0.24571 0.0
H1960 H 0.87992 0.78322 0.203 0.0
C1961 C 0.93364 0.73196 0.17968 0.0
C1962 C 0.91645 0.72019 0.1739 0.0
C1963 C 0.93124 0.74949 0.19191 0.0
C1964 C 0.89155 0.78455 0.21487 0.0
H1965 H 0.91939 0.85542 0.28998 0.0
H1966 H 0.92698 0.83238 0.26086 0.0
H1967 H 0.87435 0.80765 0.23103 0.0
H1968 H 0.88319 0.71796 0.1756 0.0
H1969 H 0.87901 0.7479 0.19762 0.0
H1970 H 0.93795 0.76542 0.23055 0.0
C1971 C 0.91296 0.83013 0.26963 0.0
C1972 C 0.88838 0.79864 0.23081 0.0
C1973 C 0.90866 0.84323 0.28618 0.0
C1974 C 0.89672 0.7268 0.17974 0.0
C1975 C 0.89434 0.74409 0.19232 0.0
C1976 C 0.92426 0.77491 0.23001 0.0
C1977 C 0.89897 0.81457 0.26415 0.0
C1978 C 0.90309 0.80092 0.24647 0.0
C1979 C 0.91163 0.75538 0.199 0.0
C1980 C 0.90931 0.77213 0.21451 0.0
H1981 H 0.86274 0.82254 0.30117 0.0
H1982 H 0.87005 0.79986 0.27192 0.0
H1983 H 0.93272 0.79074 0.25774 0.0
H1984 H 0.94902 0.72735 0.17516 0.0
H1985 H 0.94485 0.7581 0.19621 0.0
C1986 C 0.32616 0.57806 0.19418 0.0
C1987 C 0.3382 0.59586 0.19663 0.0
C1988 C 0.31025 0.57371 0.20807 0.0
C1989 C 0.27523 0.59979 0.24381 0.0
H1990 H 0.26765 0.54601 0.26865 0.0
C1991 C 0.21894 0.58839 0.31054 0.0
C1992 C 0.20617 0.57093 0.30997 0.0
C1993 C 0.23558 0.59017 0.29708 0.0
C1994 C 0.26945 0.56105 0.26167 0.0
H1995 H 0.34245 0.62353 0.21487 0.0
H1996 H 0.31513 0.61578 0.2392 0.0
H1997 H 0.29545 0.55133 0.24373 0.0
H1998 H 0.20129 0.54133 0.29516 0.0
H1999 H 0.23018 0.54466 0.27141 0.0
H2000 H 0.24927 0.60957 0.26144 0.0
C2001 C 0.31804 0.60507 0.22674 0.0
C2002 C 0.28534 0.56407 0.24742 0.0
C2003 C 0.33393 0.60933 0.21299 0.0
C2004 C 0.21081 0.55501 0.29602 0.0
C2005 C 0.22744 0.55685 0.28246 0.0
C2006 C 0.25936 0.59676 0.25792 0.0
C2007 C 0.30594 0.58732 0.22436 0.0
C2008 C 0.28852 0.58356 0.23858 0.0
C2009 C 0.23977 0.57462 0.28261 0.0
C2010 C 0.25643 0.57745 0.26723 0.0
H2011 H 0.32903 0.56758 0.18152 0.0
H2012 H 0.301 0.56001 0.20579 0.0
H2013 H 0.27706 0.61487 0.23691 0.0
H2014 H 0.21582 0.60097 0.32101 0.0
H2015 H 0.24504 0.6039 0.29786 0.0
C2016 C 0.08303 0.72499 0.81791 0.0
C2017 C 0.06567 0.71212 0.81658 0.0
C2018 C 0.0846 0.74249 0.80552 0.0
C2019 C 0.06788 0.76129 0.75559 0.0
H2020 H 0.09027 0.8134 0.77429 0.0
C2021 C 0.08376 0.82785 0.699 0.0
C2022 C 0.10237 0.83843 0.70192 0.0
C2023 C 0.07648 0.8143 0.71407 0.0
C2024 C 0.08411 0.7989 0.76881 0.0
H2025 H 0.03595 0.70806 0.80175 0.0
H2026 H 0.03885 0.73852 0.78004 0.0
H2027 H 0.08253 0.78642 0.79932 0.0
H2028 H 0.12842 0.84254 0.72238 0.0
H2029 H 0.11594 0.81885 0.74849 0.0
H2030 H 0.07023 0.77327 0.72504 0.0
C2031 C 0.05125 0.73496 0.79062 0.0
C2032 C 0.07963 0.78351 0.78315 0.0
C2033 C 0.04959 0.71756 0.80312 0.0
C2034 C 0.11367 0.83514 0.72004 0.0
C2035 C 0.1065 0.82152 0.73501 0.0
C2036 C 0.07252 0.77659 0.74123 0.0
C2037 C 0.06892 0.74738 0.79145 0.0
C2038 C 0.07176 0.76446 0.77663 0.0
C2039 C 0.08786 0.81087 0.73219 0.0
C2040 C 0.08102 0.79545 0.74763 0.0
H2041 H 0.09574 0.72122 0.82798 0.0
H2042 H 0.0985 0.75168 0.80631 0.0
H2043 H 0.06208 0.74664 0.75011 0.0
H2044 H 0.07483 0.8301 0.68509 0.0
H2045 H 0.06197 0.80649 0.71149 0.0
C2046 C 0.32684 0.41471 0.80044 0.0
C2047 C 0.33784 0.39637 0.7974 0.0
C2048 C 0.31327 0.42187 0.78531 0.0
C2049 C 0.2993 0.41481 0.73021 0.0
H2050 H 0.24552 0.43383 0.74782 0.0
C2051 C 0.22723 0.41225 0.67884 0.0
C2052 C 0.21322 0.4287 0.67994 0.0
C2053 C 0.2443 0.4116 0.69189 0.0
C2054 C 0.26059 0.4289 0.74265 0.0
H2055 H 0.34243 0.37051 0.77677 0.0
H2056 H 0.31893 0.38286 0.75052 0.0
H2057 H 0.27195 0.42674 0.77349 0.0
H2058 H 0.20661 0.45777 0.69516 0.0
H2059 H 0.23636 0.45648 0.718 0.0
H2060 H 0.2876 0.41621 0.6994 0.0
C2061 C 0.32129 0.39221 0.76414 0.0
C2062 C 0.27575 0.42486 0.75735 0.0
C2063 C 0.33483 0.38514 0.77918 0.0
C2064 C 0.21703 0.44481 0.69394 0.0
C2065 C 0.23402 0.44407 0.70709 0.0
C2066 C 0.2841 0.41873 0.71553 0.0
C2067 C 0.31033 0.41064 0.767 0.0
C2068 C 0.29512 0.41733 0.75132 0.0
C2069 C 0.24764 0.42731 0.7064 0.0
C2070 C 0.26448 0.42541 0.72164 0.0
H2071 H 0.3288 0.42354 0.81446 0.0
H2072 H 0.30509 0.43616 0.78795 0.0
H2073 H 0.31422 0.40942 0.72504 0.0
H2074 H 0.22474 0.39957 0.66834 0.0
H2075 H 0.25443 0.39837 0.69118 0.0
C2076 C 0.90969 0.26883 0.81534 0.0
C2077 C 0.92098 0.28615 0.80907 0.0
C2078 C 0.90766 0.25187 0.80224 0.0
C2079 C 0.92913 0.22884 0.75399 0.0
H2080 H 0.87728 0.19921 0.75401 0.0
C2081 C 0.90114 0.17287 0.68977 0.0
C2082 C 0.89426 0.15363 0.69687 0.0
C2083 C 0.90594 0.18853 0.70376 0.0
C2084 C 0.89187 0.20733 0.75395 0.0
H2085 H 0.93891 0.29943 0.7842 0.0
H2086 H 0.93462 0.2704 0.76107 0.0
H2087 H 0.88234 0.22761 0.77799 0.0
H2088 H 0.88914 0.13502 0.72417 0.0
H2089 H 0.89643 0.16269 0.74849 0.0
H2090 H 0.93813 0.20891 0.7292 0.0
C2091 C 0.92791 0.26944 0.7763 0.0
C2092 C 0.89487 0.2235 0.76779 0.0
C2093 C 0.93026 0.28619 0.78953 0.0
C2094 C 0.89332 0.15 0.71819 0.0
C2095 C 0.89773 0.16572 0.73212 0.0
C2096 C 0.92595 0.21292 0.73988 0.0
C2097 C 0.91654 0.25205 0.78244 0.0
C2098 C 0.91356 0.23448 0.76802 0.0
C2099 C 0.90382 0.18517 0.72501 0.0
C2100 C 0.90731 0.20203 0.73981 0.0
H2101 H 0.90259 0.26829 0.83042 0.0
H2102 H 0.89917 0.2386 0.80771 0.0
H2103 H 0.94388 0.23663 0.75395 0.0
H2104 H 0.90231 0.17597 0.67341 0.0
H2105 H 0.91069 0.20344 0.69798 0.0
C2106 C 0.66754 0.58345 0.79838 0.0
C2107 C 0.65437 0.60038 0.79577 0.0
C2108 C 0.68221 0.57869 0.78332 0.0
C2109 C 0.71248 0.60329 0.74275 0.0
H2110 H 0.72106 0.54797 0.72197 0.0
C2111 C 0.76827 0.58848 0.67614 0.0
C2112 C 0.78151 0.5715 0.6781 0.0
C2113 C 0.75143 0.59076 0.6893 0.0
C2114 C 0.71896 0.56347 0.72776 0.0
H2115 H 0.64679 0.62615 0.77592 0.0
H2116 H 0.67204 0.61771 0.74962 0.0
H2117 H 0.69458 0.55421 0.74805 0.0
H2118 H 0.78695 0.54315 0.695 0.0
H2119 H 0.7579 0.5474 0.71824 0.0
H2120 H 0.73702 0.61261 0.72298 0.0
C2121 C 0.67092 0.60795 0.76311 0.0
C2122 C 0.70382 0.56701 0.74267 0.0
C2123 C 0.65624 0.6126 0.77803 0.0
C2124 C 0.77708 0.55644 0.69304 0.0
C2125 C 0.76033 0.55881 0.70632 0.0
C2126 C 0.72766 0.59975 0.72801 0.0
C2127 C 0.68415 0.59106 0.76565 0.0
C2128 C 0.70039 0.58699 0.7502 0.0
C2129 C 0.74756 0.57621 0.70487 0.0
C2130 C 0.73104 0.57982 0.72025 0.0
H2131 H 0.66651 0.57396 0.81206 0.0
H2132 H 0.69239 0.5657 0.78573 0.0
H2133 H 0.71039 0.61879 0.74857 0.0
H2134 H 0.77119 0.60035 0.66482 0.0
H2135 H 0.74165 0.60414 0.68749 0.0
C2136 C 0.18841 0.05626 0.27066 0.0
C2137 C 0.18004 0.07336 0.281 0.0
C2138 C 0.20194 0.05906 0.25414 0.0
C2139 C 0.24205 0.0924 0.23845 0.0
H2140 H 0.23517 0.07306 0.18237 0.0
C2141 C 0.29849 0.11634 0.17499 0.0
C2142 C 0.30258 0.10264 0.15885 0.0
C2143 C 0.28322 0.11188 0.1894 0.0
C2144 C 0.23754 0.07824 0.19804 0.0
H2145 H 0.17862 0.10676 0.2816 0.0
H2146 H 0.20276 0.11155 0.25313 0.0
H2147 H 0.2081 0.06668 0.20781 0.0
H2148 H 0.29461 0.07333 0.14519 0.0
H2149 H 0.26842 0.0649 0.17097 0.0
H2150 H 0.27167 0.10321 0.22934 0.0
C2151 C 0.19862 0.09605 0.25774 0.0
C2152 C 0.22195 0.07471 0.2125 0.0
C2153 C 0.18479 0.09328 0.27396 0.0
C2154 C 0.29151 0.08417 0.1575 0.0
C2155 C 0.27644 0.07947 0.17218 0.0
C2156 C 0.25779 0.09554 0.22419 0.0
C2157 C 0.20756 0.07898 0.248 0.0
C2158 C 0.22402 0.08205 0.23269 0.0
C2159 C 0.272 0.09335 0.18826 0.0
C2160 C 0.25564 0.08881 0.20369 0.0
H2161 H 0.18496 0.04073 0.27569 0.0
H2162 H 0.20876 0.04571 0.24681 0.0
H2163 H 0.24404 0.09789 0.25409 0.0
H2164 H 0.30673 0.13081 0.17612 0.0
H2165 H 0.27997 0.12322 0.20118 0.0
C2166 C 0.58544 0.21443 0.34545 0.0
C2167 C 0.59545 0.19628 0.33933 0.0
C2168 C 0.57929 0.2289 0.33079 0.0
C2169 C 0.56884 0.23602 0.27536 0.0
H2170 H 0.58509 0.29261 0.28564 0.0
C2171 C 0.58595 0.3129 0.22498 0.0
C2172 C 0.56871 0.31277 0.21189 0.0
C2173 C 0.58663 0.30003 0.24221 0.0
C2174 C 0.58043 0.27688 0.28259 0.0
H2175 H 0.60557 0.1782 0.3132 0.0
H2176 H 0.59478 0.20345 0.28748 0.0
H2177 H 0.59061 0.26654 0.31218 0.0
H2178 H 0.53821 0.29978 0.20729 0.0
H2179 H 0.53945 0.27745 0.23736 0.0
H2180 H 0.5593 0.24618 0.24553 0.0
C2181 C 0.5918 0.20661 0.30359 0.0
C2182 C 0.5834 0.262 0.29783 0.0
C2183 C 0.59803 0.1922 0.31827 0.0
C2184 C 0.55181 0.30017 0.21693 0.0
C2185 C 0.55253 0.28729 0.23411 0.0
C2186 C 0.56578 0.2509 0.26016 0.0
C2187 C 0.58276 0.22531 0.30973 0.0
C2188 C 0.57793 0.24136 0.29425 0.0
C2189 C 0.57012 0.28675 0.24667 0.0
C2190 C 0.57182 0.27143 0.2635 0.0
H2191 H 0.58264 0.21755 0.3616 0.0
H2192 H 0.57195 0.24298 0.33593 0.0
H2193 H 0.56432 0.22027 0.27224 0.0
H2194 H 0.59922 0.32239 0.22156 0.0
H2195 H 0.60047 0.29983 0.25152 0.0
C2196 C 0.82166 0.90696 0.26732 0.0
C2197 C 0.81834 0.92424 0.27993 0.0
C2198 C 0.81002 0.90409 0.24948 0.0
C2199 C 0.77379 0.93005 0.21347 0.0
H2200 H 0.7526 0.87468 0.20627 0.0
C2201 C 0.70255 0.91008 0.16363 0.0
C2202 C 0.7037 0.89214 0.15162 0.0
C2203 C 0.7184 0.91503 0.17734 0.0
C2204 C 0.75861 0.89016 0.20787 0.0
H2205 H 0.8008 0.95253 0.28316 0.0
H2206 H 0.78025 0.94728 0.25234 0.0
H2207 H 0.77754 0.88153 0.23331 0.0
H2208 H 0.72197 0.86495 0.14507 0.0
H2209 H 0.74975 0.8738 0.16852 0.0
H2210 H 0.75426 0.93869 0.1883 0.0
C2211 C 0.79203 0.93608 0.25605 0.0
C2212 C 0.77297 0.89409 0.22334 0.0
C2213 C 0.80375 0.93902 0.27382 0.0
C2214 C 0.72094 0.87925 0.15355 0.0
C2215 C 0.73672 0.88414 0.16725 0.0
C2216 C 0.75932 0.92613 0.19802 0.0
C2217 C 0.79472 0.91837 0.24391 0.0
C2218 C 0.78062 0.9141 0.22643 0.0
C2219 C 0.73552 0.90195 0.17945 0.0
C2220 C 0.7515 0.90616 0.19517 0.0
H2221 H 0.83289 0.89537 0.27148 0.0
H2222 H 0.81274 0.89047 0.24024 0.0
H2223 H 0.77958 0.94559 0.2153 0.0
H2224 H 0.6893 0.92016 0.16256 0.0
H2225 H 0.71695 0.92873 0.18675 0.0
C2226 C 0.43629 0.68159 0.2251 0.0
C2227 C 0.4194 0.67329 0.21438 0.0
C2228 C 0.43317 0.69512 0.24154 0.0
C2229 C 0.39951 0.73544 0.25593 0.0
H2230 H 0.41964 0.73044 0.31192 0.0
C2231 C 0.37769 0.79485 0.3174 0.0
C2232 C 0.39183 0.79941 0.33303 0.0
C2233 C 0.38152 0.77885 0.30364 0.0
C2234 C 0.41423 0.73227 0.29626 0.0
H2235 H 0.38604 0.67191 0.21301 0.0
H2236 H 0.38067 0.69609 0.24138 0.0
H2237 H 0.4255 0.70246 0.28736 0.0
H2238 H 0.42118 0.79143 0.34652 0.0
H2239 H 0.42858 0.76396 0.32175 0.0
H2240 H 0.3891 0.76546 0.26411 0.0
C2241 C 0.39625 0.69187 0.23714 0.0
C2242 C 0.41743 0.71616 0.28232 0.0
C2243 C 0.39935 0.67802 0.221 0.0
C2244 C 0.41008 0.78802 0.33454 0.0
C2245 C 0.41416 0.77222 0.32048 0.0
C2246 C 0.3967 0.7517 0.26965 0.0
C2247 C 0.41314 0.70083 0.24721 0.0
C2248 C 0.40986 0.71758 0.26216 0.0
C2249 C 0.39985 0.76733 0.30491 0.0
C2250 C 0.40377 0.75026 0.2901 0.0
H2251 H 0.45192 0.67812 0.22039 0.0
H2252 H 0.44638 0.70195 0.2491 0.0
H2253 H 0.39389 0.73696 0.24029 0.0
H2254 H 0.36335 0.80331 0.31621 0.0
H2255 H 0.36987 0.77528 0.29227 0.0
C2256 C 0.27837 0.88155 0.83833 0.0
C2257 C 0.29651 0.89287 0.84148 0.0
C2258 C 0.26394 0.88792 0.8238 0.0
C2259 C 0.25939 0.91838 0.77635 0.0
H2260 H 0.20093 0.9102 0.78565 0.0
C2261 C 0.19839 0.93817 0.71491 0.0
C2262 C 0.1841 0.92237 0.71086 0.0
C2263 C 0.21115 0.93718 0.73218 0.0
C2264 C 0.21721 0.91254 0.78285 0.0
H2265 H 0.31398 0.91956 0.83179 0.0
H2266 H 0.28852 0.93099 0.80643 0.0
H2267 H 0.22521 0.90431 0.81372 0.0
H2268 H 0.17172 0.89345 0.72212 0.0
H2269 H 0.19391 0.89184 0.75232 0.0
H2270 H 0.25135 0.92641 0.74541 0.0
C2271 C 0.28549 0.91712 0.81519 0.0
C2272 C 0.23112 0.90914 0.79888 0.0
C2273 C 0.30002 0.91066 0.82973 0.0
C2274 C 0.18247 0.9059 0.72479 0.0
C2275 C 0.19513 0.90501 0.74215 0.0
C2276 C 0.24545 0.92192 0.76036 0.0
C2277 C 0.26733 0.90573 0.81199 0.0
C2278 C 0.25241 0.91159 0.79569 0.0
C2279 C 0.20979 0.9205 0.74585 0.0
C2280 C 0.22428 0.91864 0.76335 0.0
H2281 H 0.27563 0.8673 0.84651 0.0
H2282 H 0.25044 0.87843 0.82133 0.0
H2283 H 0.27569 0.92015 0.77327 0.0
H2284 H 0.20003 0.95113 0.70454 0.0
H2285 H 0.2222 0.94942 0.73478 0.0
C2286 C 0.39549 0.31114 0.77497 0.0
C2287 C 0.41542 0.31492 0.78251 0.0
C2288 C 0.39254 0.29796 0.75825 0.0
C2289 C 0.41429 0.27476 0.71292 0.0
H2290 H 0.38383 0.22573 0.72826 0.0
C2291 C 0.40611 0.20513 0.65776 0.0
C2292 C 0.38758 0.19412 0.65851 0.0
C2293 C 0.41019 0.22044 0.67237 0.0
C2294 C 0.39203 0.23945 0.7235 0.0
H2295 H 0.44795 0.30908 0.77761 0.0
H2296 H 0.44271 0.28643 0.74788 0.0
H2297 H 0.38896 0.25299 0.75342 0.0
H2298 H 0.35853 0.19049 0.6744 0.0
H2299 H 0.36503 0.21774 0.69925 0.0
H2300 H 0.41677 0.2617 0.68277 0.0
C2301 C 0.42946 0.29348 0.75518 0.0
C2302 C 0.39505 0.25498 0.738 0.0
C2303 C 0.43242 0.30634 0.77219 0.0
C2304 C 0.37307 0.19867 0.6738 0.0
C2305 C 0.3769 0.21421 0.68809 0.0
C2306 C 0.41089 0.25939 0.6982 0.0
C2307 C 0.40948 0.28875 0.74852 0.0
C2308 C 0.40617 0.27272 0.73281 0.0
C2309 C 0.39558 0.22522 0.68771 0.0
C2310 C 0.39966 0.24153 0.70331 0.0
H2311 H 0.38208 0.31749 0.78261 0.0
H2312 H 0.377 0.29449 0.75325 0.0
H2313 H 0.42294 0.28839 0.70868 0.0
H2314 H 0.4175 0.20172 0.64605 0.0
H2315 H 0.42486 0.22833 0.67174 0.0
C2316 C 0.80042 0.04987 0.71395 0.0
C2317 C 0.81537 0.06516 0.71035 0.0
C2318 C 0.78759 0.05098 0.73118 0.0
C2319 C 0.78143 0.0759 0.782 0.0
H2320 H 0.72302 0.06979 0.77113 0.0
C2321 C 0.71944 0.10996 0.8349 0.0
C2322 C 0.70122 0.0988 0.83818 0.0
C2323 C 0.73412 0.10297 0.82087 0.0
C2324 C 0.73928 0.07116 0.77455 0.0
H2325 H 0.82904 0.09308 0.72258 0.0
H2326 H 0.80662 0.09506 0.7525 0.0
H2327 H 0.74781 0.0624 0.74396 0.0
H2328 H 0.68385 0.07178 0.82919 0.0
H2329 H 0.70964 0.0594 0.80463 0.0
H2330 H 0.77287 0.08509 0.81248 0.0
C2331 C 0.80492 0.08216 0.74205 0.0
C2332 C 0.75349 0.06694 0.75897 0.0
C2333 C 0.81769 0.0811 0.7248 0.0
C2334 C 0.69785 0.08059 0.82701 0.0
C2335 C 0.71257 0.07356 0.81295 0.0
C2336 C 0.76723 0.08007 0.7976 0.0
C2337 C 0.7895 0.06731 0.74523 0.0
C2338 C 0.77468 0.06966 0.76242 0.0
C2339 C 0.73083 0.08474 0.80969 0.0
C2340 C 0.74598 0.07816 0.79391 0.0
H2341 H 0.79826 0.03728 0.70322 0.0
H2342 H 0.776 0.03918 0.73338 0.0
H2343 H 0.7977 0.07782 0.78519 0.0
H2344 H 0.72212 0.12447 0.84263 0.0
H2345 H 0.74775 0.11224 0.8183 0.0
C2346 C 0.5941 0.68162 0.77533 0.0
C2347 C 0.57395 0.67633 0.78121 0.0
C2348 C 0.59743 0.69529 0.75908 0.0
C2349 C 0.57736 0.71689 0.71219 0.0
H2350 H 0.6049 0.76735 0.72839 0.0
C2351 C 0.58603 0.78562 0.65614 0.0
C2352 C 0.60406 0.79736 0.65764 0.0
C2353 C 0.58167 0.77055 0.6709 0.0
C2354 C 0.59753 0.75324 0.72343 0.0
H2355 H 0.54156 0.68018 0.77395 0.0
H2356 H 0.54754 0.70368 0.74504 0.0
H2357 H 0.59939 0.74027 0.75369 0.0
H2358 H 0.63188 0.80265 0.67514 0.0
H2359 H 0.62495 0.77581 0.70035 0.0
H2360 H 0.57615 0.72935 0.68174 0.0
C2361 C 0.56063 0.69743 0.75328 0.0
C2362 C 0.59428 0.73781 0.73799 0.0
C2363 C 0.55725 0.68408 0.76982 0.0
C2364 C 0.61775 0.79386 0.67391 0.0
C2365 C 0.61365 0.77856 0.6884 0.0
C2366 C 0.58099 0.73216 0.69744 0.0
C2367 C 0.58071 0.70352 0.74816 0.0
C2368 C 0.58421 0.71955 0.73249 0.0
C2369 C 0.5955 0.76674 0.6872 0.0
C2370 C 0.59118 0.75055 0.70286 0.0
H2371 H 0.60727 0.67592 0.78382 0.0
H2372 H 0.61305 0.69977 0.75528 0.0
H2373 H 0.56956 0.70284 0.70767 0.0
H2374 H 0.57526 0.78824 0.64367 0.0
H2375 H 0.56739 0.76205 0.66962 0.0
C2376 C 0.26676 0.16952 0.0901 0.0
C2377 C 0.27878 0.17214 0.07228 0.0
C2378 C 0.24928 0.18163 0.09333 0.0
C2379 C 0.21355 0.21866 0.06783 0.0
H2380 H 0.20896 0.24104 0.123 0.0
C2381 C 0.14953 0.27622 0.09177 0.0
C2382 C 0.15529 0.29204 0.10536 0.0
C2383 C 0.16323 0.26027 0.08714 0.0
C2384 C 0.2101 0.23504 0.10748 0.0
H2385 H 0.28126 0.18888 0.04343 0.0
H2386 H 0.25118 0.21023 0.04929 0.0
H2387 H 0.23457 0.21476 0.11583 0.0
H2388 H 0.18036 0.30422 0.12377 0.0
H2389 H 0.20441 0.27684 0.11524 0.0
H2390 H 0.18969 0.23973 0.05931 0.0
C2391 C 0.255 0.19863 0.06064 0.0
C2392 C 0.22457 0.2197 0.10343 0.0
C2393 C 0.27238 0.18644 0.05734 0.0
C2394 C 0.17536 0.29214 0.1134 0.0
C2395 C 0.18907 0.27629 0.10871 0.0
C2396 C 0.19912 0.23412 0.07186 0.0
C2397 C 0.24351 0.19672 0.07889 0.0
C2398 C 0.22668 0.21151 0.0835 0.0
C2399 C 0.18305 0.25996 0.09584 0.0
C2400 C 0.19747 0.24271 0.09166 0.0
H2401 H 0.27115 0.1585 0.10182 0.0
H2402 H 0.24053 0.17948 0.10737 0.0
H2403 H 0.2146 0.21251 0.05236 0.0
H2404 H 0.13452 0.27611 0.0846 0.0
H2405 H 0.15814 0.24799 0.07706 0.0
C2406 C 0.26895 0.8145 0.90626 0.0
C2407 C 0.2822 0.8116 0.92311 0.0
C2408 C 0.25162 0.80203 0.90373 0.0
C2409 C 0.21785 0.76415 0.93032 0.0
H2410 H 0.20801 0.74509 0.87456 0.0
C2411 C 0.16436 0.69546 0.90931 0.0
C2412 C 0.1513 0.6985 0.89235 0.0
C2413 C 0.17929 0.71018 0.91431 0.0
C2414 C 0.21042 0.75045 0.89019 0.0
H2415 H 0.28718 0.79371 0.95094 0.0
H2416 H 0.25726 0.7717 0.94625 0.0
H2417 H 0.23555 0.76958 0.88111 0.0
H2418 H 0.14419 0.71885 0.86683 0.0
H2419 H 0.16983 0.74459 0.87574 0.0
H2420 H 0.19288 0.74448 0.93933 0.0
C2421 C 0.26006 0.78382 0.93515 0.0
C2422 C 0.22616 0.76455 0.89394 0.0
C2423 C 0.27731 0.7964 0.93776 0.0
C2424 C 0.1535 0.71639 0.88042 0.0
C2425 C 0.16844 0.73099 0.88532 0.0
C2426 C 0.20215 0.74989 0.92656 0.0
C2427 C 0.24723 0.78624 0.91789 0.0
C2428 C 0.23005 0.77163 0.91403 0.0
C2429 C 0.18161 0.72797 0.90219 0.0
C2430 C 0.19826 0.74297 0.90643 0.0
H2431 H 0.27219 0.82605 0.89472 0.0
H2432 H 0.24182 0.80458 0.89048 0.0
H2433 H 0.22032 0.76944 0.94594 0.0
H2434 H 0.1631 0.68166 0.9186 0.0
H2435 H 0.18941 0.70737 0.92727 0.0
C2436 C 0.30552 0.21865 0.55304 0.0
C2437 C 0.31902 0.21303 0.56903 0.0
C2438 C 0.2932 0.23616 0.55481 0.0
C2439 C 0.28607 0.28475 0.58326 0.0
H2440 H 0.22809 0.27535 0.57237 0.0
C2441 C 0.22274 0.33902 0.61319 0.0
C2442 C 0.20517 0.34223 0.60102 0.0
C2443 C 0.23767 0.32478 0.60723 0.0
C2444 C 0.24425 0.27842 0.57511 0.0
H2445 H 0.33089 0.22205 0.59895 0.0
H2446 H 0.30936 0.25269 0.60198 0.0
H2447 H 0.2529 0.24818 0.56535 0.0
H2448 H 0.18932 0.33309 0.57315 0.0
H2449 H 0.21566 0.30842 0.5624 0.0
H2450 H 0.27743 0.31498 0.59312 0.0
C2451 C 0.30837 0.2435 0.58808 0.0
C2452 C 0.25847 0.26281 0.57112 0.0
C2453 C 0.32064 0.2259 0.58638 0.0
C2454 C 0.2028 0.33093 0.58275 0.0
C2455 C 0.21783 0.31677 0.57668 0.0
C2456 C 0.27186 0.30046 0.5871 0.0
C2457 C 0.29418 0.24852 0.57253 0.0
C2458 C 0.27948 0.26572 0.5754 0.0
C2459 C 0.23538 0.31339 0.58895 0.0
C2460 C 0.25073 0.29737 0.58335 0.0
H2461 H 0.30395 0.20918 0.5394 0.0
H2462 H 0.2826 0.23983 0.54246 0.0
H2463 H 0.30221 0.28748 0.58649 0.0
H2464 H 0.22463 0.34696 0.62772 0.0
H2465 H 0.25069 0.32222 0.61734 0.0
C2466 C 0.81805 0.30305 0.892 0.0
C2467 C 0.83896 0.29855 0.89496 0.0
C2468 C 0.80298 0.28868 0.89738 0.0
C2469 C 0.79598 0.23315 0.90447 0.0
H2470 H 0.74386 0.24939 0.92868 0.0
C2471 C 0.72342 0.18164 0.90339 0.0
C2472 C 0.71092 0.18155 0.92107 0.0
C2473 C 0.74018 0.19507 0.90195 0.0
C2474 C 0.75842 0.24456 0.92211 0.0
H2475 H 0.86056 0.27647 0.9075 0.0
H2476 H 0.83422 0.25112 0.9167 0.0
H2477 H 0.7709 0.27502 0.9239 0.0
H2478 H 0.7067 0.19503 0.95142 0.0
H2479 H 0.73594 0.21833 0.94888 0.0
H2480 H 0.78345 0.20269 0.90262 0.0
C2481 C 0.82949 0.2655 0.9097 0.0
C2482 C 0.77381 0.25929 0.91919 0.0
C2483 C 0.84454 0.27993 0.90439 0.0
C2484 C 0.71591 0.19477 0.9375 0.0
C2485 C 0.73261 0.20821 0.93604 0.0
C2486 C 0.78054 0.21843 0.90731 0.0
C2487 C 0.80858 0.2696 0.90594 0.0
C2488 C 0.79269 0.25377 0.91019 0.0
C2489 C 0.74475 0.20871 0.91814 0.0
C2490 C 0.76155 0.22403 0.91601 0.0
H2491 H 0.81339 0.31741 0.8849 0.0
H2492 H 0.787 0.29223 0.89419 0.0
H2493 H 0.81031 0.22848 0.89731 0.0
H2494 H 0.71999 0.17172 0.89043 0.0
H2495 H 0.74915 0.19525 0.88788 0.0
C2496 C 0.68747 0.77423 0.5505 0.0
C2497 C 0.67425 0.77932 0.56691 0.0
C2498 C 0.69986 0.75672 0.55149 0.0
C2499 C 0.70802 0.70746 0.57842 0.0
H2500 H 0.76578 0.71833 0.56767 0.0
C2501 C 0.77248 0.6548 0.60823 0.0
C2502 C 0.79032 0.6522 0.5963 0.0
C2503 C 0.75717 0.66852 0.60208 0.0
C2504 C 0.74969 0.71484 0.57032 0.0
H2505 H 0.66285 0.76931 0.59669 0.0
H2506 H 0.68452 0.73865 0.59836 0.0
H2507 H 0.7404 0.7451 0.56127 0.0
H2508 H 0.80627 0.66186 0.56867 0.0
H2509 H 0.77925 0.68567 0.55758 0.0
H2510 H 0.71732 0.67724 0.58763 0.0
C2511 C 0.68523 0.74826 0.58475 0.0
C2512 C 0.73514 0.73022 0.5667 0.0
C2513 C 0.67289 0.76587 0.58382 0.0
C2514 C 0.79258 0.66356 0.57807 0.0
C2515 C 0.77716 0.67721 0.5718 0.0
C2516 C 0.72256 0.69199 0.58188 0.0
C2517 C 0.69922 0.74383 0.56882 0.0
C2518 C 0.71422 0.7268 0.57101 0.0
C2519 C 0.75934 0.67999 0.58386 0.0
C2520 C 0.74362 0.69563 0.57823 0.0
H2521 H 0.68883 0.78413 0.53715 0.0
H2522 H 0.7103 0.7535 0.53887 0.0
H2523 H 0.69195 0.70435 0.58165 0.0
H2524 H 0.77066 0.64684 0.62275 0.0
H2525 H 0.74396 0.67066 0.61205 0.0
C2526 C 0.81138 0.6876 0.10842 0.0
C2527 C 0.83113 0.69025 0.10011 0.0
C2528 C 0.79557 0.70124 0.10337 0.0
C2529 C 0.77083 0.7404 0.10274 0.0
H2530 H 0.76302 0.7636 0.04827 0.0
C2531 C 0.71718 0.80927 0.08987 0.0
C2532 C 0.70405 0.80842 0.07269 0.0
C2533 C 0.73332 0.79525 0.09195 0.0
C2534 C 0.76493 0.75716 0.06354 0.0
H2535 H 0.84945 0.70775 0.07842 0.0
H2536 H 0.82205 0.73217 0.07012 0.0
H2537 H 0.78899 0.73691 0.05356 0.0
H2538 H 0.69797 0.79246 0.04393 0.0
H2539 H 0.7259 0.76777 0.04779 0.0
H2540 H 0.74652 0.76018 0.11268 0.0
C2541 C 0.81874 0.71967 0.08064 0.0
C2542 C 0.77993 0.74202 0.0666 0.0
C2543 C 0.83452 0.70592 0.08564 0.0
C2544 C 0.70778 0.79356 0.05737 0.0
C2545 C 0.72388 0.77947 0.05951 0.0
C2546 C 0.75584 0.75545 0.09968 0.0
C2547 C 0.79922 0.71776 0.08985 0.0
C2548 C 0.78303 0.73348 0.08625 0.0
C2549 C 0.73663 0.77996 0.07698 0.0
C2550 C 0.75276 0.76407 0.08007 0.0
H2551 H 0.80832 0.67541 0.1194 0.0
H2552 H 0.78057 0.69902 0.11032 0.0
H2553 H 0.77302 0.73439 0.11814 0.0
H2554 H 0.71477 0.82046 0.10197 0.0
H2555 H 0.7431 0.79628 0.10542 0.0
C2556 C 0.22188 0.65262 0.37708 0.0
C2557 C 0.2044 0.65178 0.3898 0.0
C2558 C 0.23803 0.66602 0.38162 0.0
C2559 C 0.26127 0.69747 0.42263 0.0
H2560 H 0.28053 0.73108 0.37716 0.0
C2561 C 0.30659 0.77281 0.43397 0.0
C2562 C 0.32112 0.77872 0.41903 0.0
C2563 C 0.29489 0.75498 0.43139 0.0
C2564 C 0.2757 0.72155 0.38997 0.0
H2565 H 0.18997 0.66433 0.41712 0.0
H2566 H 0.21833 0.68793 0.42512 0.0
H2567 H 0.25502 0.70441 0.37094 0.0
H2568 H 0.33563 0.76981 0.39027 0.0
H2569 H 0.31552 0.7384 0.386 0.0
H2570 H 0.28186 0.71476 0.44171 0.0
C2571 C 0.21965 0.67792 0.41183 0.0
C2572 C 0.261 0.70631 0.3864 0.0
C2573 C 0.2034 0.66456 0.40721 0.0
C2574 C 0.32445 0.7658 0.40198 0.0
C2575 C 0.31282 0.74787 0.39947 0.0
C2576 C 0.27612 0.71265 0.4262 0.0
C2577 C 0.23701 0.67895 0.39892 0.0
C2578 C 0.25345 0.69429 0.40272 0.0
C2579 C 0.29753 0.74254 0.41388 0.0
C2580 C 0.2833 0.72506 0.40994 0.0
H2581 H 0.22282 0.64352 0.36316 0.0
H2582 H 0.25122 0.66646 0.37141 0.0
H2583 H 0.25588 0.68824 0.43545 0.0
H2584 H 0.30362 0.78238 0.44731 0.0
H2585 H 0.28312 0.75151 0.44268 0.0
C2586 C 0.67479 0.22872 0.40905 0.0
C2587 C 0.67732 0.21459 0.42525 0.0
C2588 C 0.68732 0.24618 0.40775 0.0
C2589 C 0.73874 0.2632 0.42257 0.0
H2590 H 0.71988 0.31689 0.40456 0.0
C2591 C 0.79544 0.33034 0.40993 0.0
C2592 C 0.79218 0.3422 0.39217 0.0
C2593 C 0.78043 0.31642 0.41662 0.0
C2594 C 0.7254 0.30195 0.40949 0.0
H2595 H 0.69427 0.20843 0.45346 0.0
H2596 H 0.716 0.23884 0.45112 0.0
H2597 H 0.6948 0.28972 0.41151 0.0
H2598 H 0.77114 0.34816 0.36695 0.0
H2599 H 0.74509 0.32393 0.37846 0.0
H2600 H 0.76932 0.27504 0.41989 0.0
C2601 C 0.70452 0.23624 0.43929 0.0
C2602 C 0.71103 0.28643 0.4135 0.0
C2603 C 0.69197 0.21886 0.44065 0.0
C2604 C 0.77376 0.33981 0.38113 0.0
C2605 C 0.75883 0.32585 0.38772 0.0
C2606 C 0.7531 0.27865 0.41845 0.0
C2607 C 0.70264 0.24982 0.42259 0.0
C2608 C 0.71759 0.26684 0.41985 0.0
C2609 C 0.76201 0.31391 0.40548 0.0
C2610 C 0.74662 0.29812 0.41159 0.0
H2611 H 0.66362 0.22601 0.39702 0.0
H2612 H 0.6856 0.25634 0.39463 0.0
H2613 H 0.74427 0.24815 0.42715 0.0
H2614 H 0.80959 0.33185 0.41864 0.0
H2615 H 0.7833 0.30758 0.43047 0.0
loop_
_geom_bond_atom_site_label_1
_geom_bond_atom_site_label_2
_geom_bond_distance
_geom_bond_site_symmetry_2
_ccdc_geom_bond_type
Co0 O3 1.970 . S
Co0 N17 1.989 . S
Co0 O25 1.967 . S
Co0 O32 1.920 . S
Co1 O4 1.966 . S
Co1 N10 2.022 . S
Co1 N18 1.993 . S
Co1 O26 1.941 . S
C2 O3 1.258 . S
C2 O4 1.263 . S
O3 Co0 1.970 . S
O3 C2 1.258 . S
O4 Co1 1.966 . S
O4 C2 1.263 . S
C5 O6 1.235 . S
C5 O32 1.289 . S
O6 C5 1.235 . S
C7 C9 1.400 . S
C7 N10 1.351 . S
C7 C12 1.501 . S
C8 C9 1.387 . S
C8 N11 1.341 . S
C9 C7 1.400 . S
C9 C8 1.387 . S
N10 Co1 2.022 . S
N10 C7 1.351 . S
N10 N11 1.365 . S
N11 C8 1.341 . S
N11 N10 1.365 . S
N11 H31 0.862 . S
C12 C7 1.501 . S
C12 H13 0.961 . S
C12 H14 0.961 . S
C12 H15 0.960 . S
H13 C12 0.961 . S
H14 C12 0.961 . S
H15 C12 0.960 . S
C16 N17 1.342 . S
C16 C20 1.401 . S
C16 C21 1.499 . S
N17 Co0 1.989 . S
N17 C16 1.342 . S
N17 N18 1.388 . S
N18 Co1 1.993 . S
N18 N17 1.388 . S
N18 C19 1.346 . S
C19 N18 1.346 . S
C19 C20 1.396 . S
C19 C29 1.510 . S
C20 C16 1.401 . S
C20 C19 1.396 . S
C21 C16 1.499 . S
C21 H22 0.959 . S
C21 H23 0.960 . S
C21 H24 0.961 . S
H22 C21 0.959 . S
H23 C21 0.960 . S
H24 C21 0.961 . S
O25 Co0 1.967 . S
O25 C33 1.258 . S
O26 Co1 1.941 . S
O26 C33 1.266 . S
H27 C29 0.959 . S
H28 C29 0.961 . S
C29 C19 1.510 . S
C29 H27 0.959 . S
C29 H28 0.961 . S
C29 H30 0.960 . S
H30 C29 0.960 . S
H31 N11 0.862 . S
O32 Co0 1.920 . S
O32 C5 1.289 . S
C33 O25 1.258 . S
C33 O26 1.266 . S
Co34 O37 1.970 . S
Co34 N51 1.989 . S
Co34 O59 1.967 . S
Co34 O66 1.920 . S
Co35 O38 1.966 . S
Co35 N44 2.022 . S
Co35 N52 1.993 . S
Co35 O60 1.941 . S
C36 O37 1.258 . S
C36 O38 1.263 . S
O37 Co34 1.970 . S
O37 C36 1.258 . S
O38 Co35 1.966 . S
O38 C36 1.263 . S
C39 O40 1.235 . S
C39 O66 1.289 . S
O40 C39 1.235 . S
C41 C43 1.400 . S
C41 N44 1.351 . S
C41 C46 1.501 . S
C42 C43 1.387 . S
C42 N45 1.341 . S
C43 C41 1.400 . S
C43 C42 1.387 . S
N44 Co35 2.022 . S
N44 C41 1.351 . S
N44 N45 1.365 . S
N45 C42 1.341 . S
N45 N44 1.365 . S
N45 H65 0.862 . S
C46 C41 1.501 . S
C46 H47 0.961 . S
C46 H48 0.961 . S
C46 H49 0.960 . S
H47 C46 0.961 . S
H48 C46 0.961 . S
H49 C46 0.960 . S
C50 N51 1.342 . S
C50 C54 1.401 . S
C50 C55 1.499 . S
N51 Co34 1.989 . S
N51 C50 1.342 . S
N51 N52 1.388 . S
N52 Co35 1.993 . S
N52 N51 1.388 . S
N52 C53 1.346 . S
C53 N52 1.346 . S
C53 C54 1.396 . S
C53 C63 1.510 . S
C54 C50 1.401 . S
C54 C53 1.396 . S
C55 C50 1.499 . S
C55 H56 0.959 . S
C55 H57 0.960 . S
C55 H58 0.961 . S
H56 C55 0.959 . S
H57 C55 0.960 . S
H58 C55 0.961 . S
O59 Co34 1.967 . S
O59 C67 1.258 . S
O60 Co35 1.941 . S
O60 C67 1.266 . S
H61 C63 0.959 . S
H62 C63 0.961 . S
C63 C53 1.510 . S
C63 H61 0.959 . S
C63 H62 0.961 . S
C63 H64 0.960 . S
H64 C63 0.960 . S
H65 N45 0.862 . S
O66 Co34 1.920 . S
O66 C39 1.289 . S
C67 O59 1.258 . S
C67 O60 1.266 . S
Co68 O71 1.970 . S
Co68 N85 1.989 . S
Co68 O93 1.967 . S
Co68 O100 1.920 . S
Co69 O72 1.966 . S
Co69 N78 2.022 . S
Co69 N86 1.993 . S
Co69 O94 1.941 . S
C70 O71 1.258 . S
C70 O72 1.263 . S
O71 Co68 1.970 . S
O71 C70 1.258 . S
O72 Co69 1.966 . S
O72 C70 1.263 . S
C73 O74 1.235 . S
C73 O100 1.289 . S
O74 C73 1.235 . S
C75 C77 1.400 . S
C75 N78 1.351 . S
C75 C80 1.501 . S
C76 C77 1.387 . S
C76 N79 1.341 . S
C77 C75 1.400 . S
C77 C76 1.387 . S
N78 Co69 2.022 . S
N78 C75 1.351 . S
N78 N79 1.365 . S
N79 C76 1.341 . S
N79 N78 1.365 . S
N79 H99 0.862 . S
C80 C75 1.501 . S
C80 H81 0.961 . S
C80 H82 0.961 . S
C80 H83 0.960 . S
H81 C80 0.961 . S
H82 C80 0.961 . S
H83 C80 0.960 . S
C84 N85 1.342 . S
C84 C88 1.401 . S
C84 C89 1.499 . S
N85 Co68 1.989 . S
N85 C84 1.342 . S
N85 N86 1.388 . S
N86 Co69 1.993 . S
N86 N85 1.388 . S
N86 C87 1.346 . S
C87 N86 1.346 . S
C87 C88 1.396 . S
C87 C97 1.510 . S
C88 C84 1.401 . S
C88 C87 1.396 . S
C89 C84 1.499 . S
C89 H90 0.959 . S
C89 H91 0.960 . S
C89 H92 0.961 . S
H90 C89 0.959 . S
H91 C89 0.960 . S
H92 C89 0.961 . S
O93 Co68 1.967 . S
O93 C101 1.258 . S
O94 Co69 1.941 . S
O94 C101 1.266 . S
H95 C97 0.959 . S
H96 C97 0.961 . S
C97 C87 1.510 . S
C97 H95 0.959 . S
C97 H96 0.961 . S
C97 H98 0.960 . S
H98 C97 0.960 . S
H99 N79 0.862 . S
O100 Co68 1.920 . S
O100 C73 1.289 . S
C101 O93 1.258 . S
C101 O94 1.266 . S
Co102 O105 1.970 . S
Co102 N119 1.989 . S
Co102 O127 1.967 . S
Co102 O134 1.920 . S
Co103 O106 1.966 . S
Co103 N112 2.022 . S
Co103 N120 1.993 . S
Co103 O128 1.941 . S
C104 O105 1.258 . S
C104 O106 1.263 . S
O105 Co102 1.970 . S
O105 C104 1.258 . S
O106 Co103 1.966 . S
O106 C104 1.263 . S
C107 O108 1.235 . S
C107 O134 1.289 . S
O108 C107 1.235 . S
C109 C111 1.400 . S
C109 N112 1.351 . S
C109 C114 1.501 . S
C110 C111 1.387 . S
C110 N113 1.341 . S
C111 C109 1.400 . S
C111 C110 1.387 . S
N112 Co103 2.022 . S
N112 C109 1.351 . S
N112 N113 1.365 . S
N113 C110 1.341 . S
N113 N112 1.365 . S
N113 H133 0.862 . S
C114 C109 1.501 . S
C114 H115 0.961 . S
C114 H116 0.961 . S
C114 H117 0.960 . S
H115 C114 0.961 . S
H116 C114 0.961 . S
H117 C114 0.960 . S
C118 N119 1.342 . S
C118 C122 1.401 . S
C118 C123 1.499 . S
N119 Co102 1.989 . S
N119 C118 1.342 . S
N119 N120 1.388 . S
N120 Co103 1.993 . S
N120 N119 1.388 . S
N120 C121 1.346 . S
C121 N120 1.346 . S
C121 C122 1.396 . S
C121 C131 1.510 . S
C122 C118 1.401 . S
C122 C121 1.396 . S
C123 C118 1.499 . S
C123 H124 0.959 . S
C123 H125 0.960 . S
C123 H126 0.961 . S
H124 C123 0.959 . S
H125 C123 0.960 . S
H126 C123 0.961 . S
O127 Co102 1.967 . S
O127 C135 1.258 . S
O128 Co103 1.941 . S
O128 C135 1.266 . S
H129 C131 0.959 . S
H130 C131 0.961 . S
C131 C121 1.510 . S
C131 H129 0.959 . S
C131 H130 0.961 . S
C131 H132 0.960 . S
H132 C131 0.960 . S
H133 N113 0.862 . S
O134 Co102 1.920 . S
O134 C107 1.289 . S
C135 O127 1.258 . S
C135 O128 1.266 . S
Co136 O139 1.970 . S
Co136 N153 1.989 . S
Co136 O161 1.967 . S
Co136 O168 1.920 . S
Co137 O140 1.966 . S
Co137 N146 2.022 . S
Co137 N154 1.993 . S
Co137 O162 1.941 . S
C138 O139 1.258 . S
C138 O140 1.263 . S
O139 Co136 1.970 . S
O139 C138 1.258 . S
O140 Co137 1.966 . S
O140 C138 1.263 . S
C141 O142 1.235 . S
C141 O168 1.289 . S
O142 C141 1.235 . S
C143 C145 1.400 . S
C143 N146 1.351 . S
C143 C148 1.501 . S
C144 C145 1.387 . S
C144 N147 1.341 . S
C145 C143 1.400 . S
C145 C144 1.387 . S
N146 Co137 2.022 . S
N146 C143 1.351 . S
N146 N147 1.365 . S
N147 C144 1.341 . S
N147 N146 1.365 . S
N147 H167 0.862 . S
C148 C143 1.501 . S
C148 H149 0.961 . S
C148 H150 0.961 . S
C148 H151 0.960 . S
H149 C148 0.961 . S
H150 C148 0.961 . S
H151 C148 0.960 . S
C152 N153 1.342 . S
C152 C156 1.401 . S
C152 C157 1.499 . S
N153 Co136 1.989 . S
N153 C152 1.342 . S
N153 N154 1.388 . S
N154 Co137 1.993 . S
N154 N153 1.388 . S
N154 C155 1.346 . S
C155 N154 1.346 . S
C155 C156 1.396 . S
C155 C165 1.510 . S
C156 C152 1.401 . S
C156 C155 1.396 . S
C157 C152 1.499 . S
C157 H158 0.959 . S
C157 H159 0.960 . S
C157 H160 0.961 . S
H158 C157 0.959 . S
H159 C157 0.960 . S
H160 C157 0.961 . S
O161 Co136 1.967 . S
O161 C169 1.258 . S
O162 Co137 1.941 . S
O162 C169 1.266 . S
H163 C165 0.959 . S
H164 C165 0.961 . S
C165 C155 1.510 . S
C165 H163 0.959 . S
C165 H164 0.961 . S
C165 H166 0.960 . S
H166 C165 0.960 . S
H167 N147 0.862 . S
O168 Co136 1.920 . S
O168 C141 1.289 . S
C169 O161 1.258 . S
C169 O162 1.266 . S
Co170 O173 1.970 . S
Co170 N187 1.989 . S
Co170 O195 1.967 . S
Co170 O202 1.920 . S
Co171 O174 1.966 . S
Co171 N180 2.022 . S
Co171 N188 1.993 . S
Co171 O196 1.941 . S
C172 O173 1.258 . S
C172 O174 1.263 . S
O173 Co170 1.970 . S
O173 C172 1.258 . S
O174 Co171 1.966 . S
O174 C172 1.263 . S
C175 O176 1.235 . S
C175 O202 1.289 . S
O176 C175 1.235 . S
C177 C179 1.400 . S
C177 N180 1.351 . S
C177 C182 1.501 . S
C178 C179 1.387 . S
C178 N181 1.341 . S
C179 C177 1.400 . S
C179 C178 1.387 . S
N180 Co171 2.022 . S
N180 C177 1.351 . S
N180 N181 1.365 . S
N181 C178 1.341 . S
N181 N180 1.365 . S
N181 H201 0.862 . S
C182 C177 1.501 . S
C182 H183 0.961 . S
C182 H184 0.961 . S
C182 H185 0.960 . S
H183 C182 0.961 . S
H184 C182 0.961 . S
H185 C182 0.960 . S
C186 N187 1.342 . S
C186 C190 1.401 . S
C186 C191 1.499 . S
N187 Co170 1.989 . S
N187 C186 1.342 . S
N187 N188 1.388 . S
N188 Co171 1.993 . S
N188 N187 1.388 . S
N188 C189 1.346 . S
C189 N188 1.346 . S
C189 C190 1.396 . S
C189 C199 1.510 . S
C190 C186 1.401 . S
C190 C189 1.396 . S
C191 C186 1.499 . S
C191 H192 0.959 . S
C191 H193 0.960 . S
C191 H194 0.961 . S
H192 C191 0.959 . S
H193 C191 0.960 . S
H194 C191 0.961 . S
O195 Co170 1.967 . S
O195 C203 1.258 . S
O196 Co171 1.941 . S
O196 C203 1.266 . S
H197 C199 0.959 . S
H198 C199 0.961 . S
C199 C189 1.510 . S
C199 H197 0.959 . S
C199 H198 0.961 . S
C199 H200 0.960 . S
H200 C199 0.960 . S
H201 N181 0.862 . S
O202 Co170 1.920 . S
O202 C175 1.289 . S
C203 O195 1.258 . S
C203 O196 1.266 . S
Co204 O207 1.970 . S
Co204 N221 1.989 . S
Co204 O229 1.967 . S
Co204 O236 1.920 . S
Co205 O208 1.966 . S
Co205 N214 2.022 . S
Co205 N222 1.993 . S
Co205 O230 1.941 . S
C206 O207 1.258 . S
C206 O208 1.263 . S
O207 Co204 1.970 . S
O207 C206 1.258 . S
O208 Co205 1.966 . S
O208 C206 1.263 . S
C209 O210 1.235 . S
C209 O236 1.289 . S
O210 C209 1.235 . S
C211 C213 1.400 . S
C211 N214 1.351 . S
C211 C216 1.501 . S
C212 C213 1.387 . S
C212 N215 1.341 . S
C213 C211 1.400 . S
C213 C212 1.387 . S
N214 Co205 2.022 . S
N214 C211 1.351 . S
N214 N215 1.365 . S
N215 C212 1.341 . S
N215 N214 1.365 . S
N215 H235 0.862 . S
C216 C211 1.501 . S
C216 H217 0.961 . S
C216 H218 0.961 . S
C216 H219 0.960 . S
H217 C216 0.961 . S
H218 C216 0.961 . S
H219 C216 0.960 . S
C220 N221 1.342 . S
C220 C224 1.401 . S
C220 C225 1.499 . S
N221 Co204 1.989 . S
N221 C220 1.342 . S
N221 N222 1.388 . S
N222 Co205 1.993 . S
N222 N221 1.388 . S
N222 C223 1.346 . S
C223 N222 1.346 . S
C223 C224 1.396 . S
C223 C233 1.510 . S
C224 C220 1.401 . S
C224 C223 1.396 . S
C225 C220 1.499 . S
C225 H226 0.959 . S
C225 H227 0.960 . S
C225 H228 0.961 . S
H226 C225 0.959 . S
H227 C225 0.960 . S
H228 C225 0.961 . S
O229 Co204 1.967 . S
O229 C237 1.258 . S
O230 Co205 1.941 . S
O230 C237 1.266 . S
H231 C233 0.959 . S
H232 C233 0.961 . S
C233 C223 1.510 . S
C233 H231 0.959 . S
C233 H232 0.961 . S
C233 H234 0.960 . S
H234 C233 0.960 . S
H235 N215 0.862 . S
O236 Co204 1.920 . S
O236 C209 1.289 . S
C237 O229 1.258 . S
C237 O230 1.266 . S
Co238 O241 1.970 . S
Co238 N255 1.989 . S
Co238 O263 1.967 . S
Co238 O270 1.920 . S
Co239 O242 1.966 . S
Co239 N248 2.022 . S
Co239 N256 1.993 . S
Co239 O264 1.941 . S
C240 O241 1.258 . S
C240 O242 1.263 . S
O241 Co238 1.970 . S
O241 C240 1.258 . S
O242 Co239 1.966 . S
O242 C240 1.263 . S
C243 O244 1.235 . S
C243 O270 1.289 . S
O244 C243 1.235 . S
C245 C247 1.400 . S
C245 N248 1.351 . S
C245 C250 1.501 . S
C246 C247 1.387 . S
C246 N249 1.341 . S
C247 C245 1.400 . S
C247 C246 1.387 . S
N248 Co239 2.022 . S
N248 C245 1.351 . S
N248 N249 1.365 . S
N249 C246 1.341 . S
N249 N248 1.365 . S
N249 H269 0.862 . S
C250 C245 1.501 . S
C250 H251 0.961 . S
C250 H252 0.961 . S
C250 H253 0.960 . S
H251 C250 0.961 . S
H252 C250 0.961 . S
H253 C250 0.960 . S
C254 N255 1.342 . S
C254 C258 1.401 . S
C254 C259 1.499 . S
N255 Co238 1.989 . S
N255 C254 1.342 . S
N255 N256 1.388 . S
N256 Co239 1.993 . S
N256 N255 1.388 . S
N256 C257 1.346 . S
C257 N256 1.346 . S
C257 C258 1.396 . S
C257 C267 1.510 . S
C258 C254 1.401 . S
C258 C257 1.396 . S
C259 C254 1.499 . S
C259 H260 0.959 . S
C259 H261 0.960 . S
C259 H262 0.961 . S
H260 C259 0.959 . S
H261 C259 0.960 . S
H262 C259 0.961 . S
O263 Co238 1.967 . S
O263 C271 1.258 . S
O264 Co239 1.941 . S
O264 C271 1.266 . S
H265 C267 0.959 . S
H266 C267 0.961 . S
C267 C257 1.510 . S
C267 H265 0.959 . S
C267 H266 0.961 . S
C267 H268 0.960 . S
H268 C267 0.960 . S
H269 N249 0.862 . S
O270 Co238 1.920 . S
O270 C243 1.289 . S
C271 O263 1.258 . S
C271 O264 1.266 . S
Co272 O275 1.970 . S
Co272 N289 1.989 . S
Co272 O297 1.967 . S
Co272 O304 1.920 . S
Co273 O276 1.966 . S
Co273 N282 2.022 . S
Co273 N290 1.993 . S
Co273 O298 1.941 . S
C274 O275 1.258 . S
C274 O276 1.263 . S
O275 Co272 1.970 . S
O275 C274 1.258 . S
O276 Co273 1.966 . S
O276 C274 1.263 . S
C277 O278 1.235 . S
C277 O304 1.289 . S
O278 C277 1.235 . S
C279 C281 1.400 . S
C279 N282 1.351 . S
C279 C284 1.501 . S
C280 C281 1.387 . S
C280 N283 1.341 . S
C281 C279 1.400 . S
C281 C280 1.387 . S
N282 Co273 2.022 . S
N282 C279 1.351 . S
N282 N283 1.365 . S
N283 C280 1.341 . S
N283 N282 1.365 . S
N283 H303 0.862 . S
C284 C279 1.501 . S
C284 H285 0.961 . S
C284 H286 0.961 . S
C284 H287 0.960 . S
H285 C284 0.961 . S
H286 C284 0.961 . S
H287 C284 0.960 . S
C288 N289 1.342 . S
C288 C292 1.401 . S
C288 C293 1.499 . S
N289 Co272 1.989 . S
N289 C288 1.342 . S
N289 N290 1.388 . S
N290 Co273 1.993 . S
N290 N289 1.388 . S
N290 C291 1.346 . S
C291 N290 1.346 . S
C291 C292 1.396 . S
C291 C301 1.510 . S
C292 C288 1.401 . S
C292 C291 1.396 . S
C293 C288 1.499 . S
C293 H294 0.959 . S
C293 H295 0.960 . S
C293 H296 0.961 . S
H294 C293 0.959 . S
H295 C293 0.960 . S
H296 C293 0.961 . S
O297 Co272 1.967 . S
O297 C305 1.258 . S
O298 Co273 1.941 . S
O298 C305 1.266 . S
H299 C301 0.959 . S
H300 C301 0.961 . S
C301 C291 1.510 . S
C301 H299 0.959 . S
C301 H300 0.961 . S
C301 H302 0.960 . S
H302 C301 0.960 . S
H303 N283 0.862 . S
O304 Co272 1.920 . S
O304 C277 1.289 . S
C305 O297 1.258 . S
C305 O298 1.266 . S
Co306 O309 1.970 . S
Co306 N323 1.989 . S
Co306 O331 1.967 . S
Co306 O338 1.920 . S
Co307 O310 1.966 . S
Co307 N316 2.022 . S
Co307 N324 1.993 . S
Co307 O332 1.941 . S
C308 O309 1.258 . S
C308 O310 1.263 . S
O309 Co306 1.970 . S
O309 C308 1.258 . S
O310 Co307 1.966 . S
O310 C308 1.263 . S
C311 O312 1.235 . S
C311 O338 1.289 . S
O312 C311 1.235 . S
C313 C315 1.400 . S
C313 N316 1.351 . S
C313 C318 1.501 . S
C314 C315 1.387 . S
C314 N317 1.341 . S
C315 C313 1.400 . S
C315 C314 1.387 . S
N316 Co307 2.022 . S
N316 C313 1.351 . S
N316 N317 1.365 . S
N317 C314 1.341 . S
N317 N316 1.365 . S
N317 H337 0.862 . S
C318 C313 1.501 . S
C318 H319 0.961 . S
C318 H320 0.961 . S
C318 H321 0.960 . S
H319 C318 0.961 . S
H320 C318 0.961 . S
H321 C318 0.960 . S
C322 N323 1.342 . S
C322 C326 1.401 . S
C322 C327 1.499 . S
N323 Co306 1.989 . S
N323 C322 1.342 . S
N323 N324 1.388 . S
N324 Co307 1.993 . S
N324 N323 1.388 . S
N324 C325 1.346 . S
C325 N324 1.346 . S
C325 C326 1.396 . S
C325 C335 1.510 . S
C326 C322 1.401 . S
C326 C325 1.396 . S
C327 C322 1.499 . S
C327 H328 0.959 . S
C327 H329 0.960 . S
C327 H330 0.961 . S
H328 C327 0.959 . S
H329 C327 0.960 . S
H330 C327 0.961 . S
O331 Co306 1.967 . S
O331 C339 1.258 . S
O332 Co307 1.941 . S
O332 C339 1.266 . S
H333 C335 0.959 . S
H334 C335 0.961 . S
C335 C325 1.510 . S
C335 H333 0.959 . S
C335 H334 0.961 . S
C335 H336 0.960 . S
H336 C335 0.960 . S
H337 N317 0.862 . S
O338 Co306 1.920 . S
O338 C311 1.289 . S
C339 O331 1.258 . S
C339 O332 1.266 . S
Co340 O343 1.970 . S
Co340 N357 1.989 . S
Co340 O365 1.967 . S
Co340 O372 1.920 . S
Co341 O344 1.966 . S
Co341 N350 2.022 . S
Co341 N358 1.993 . S
Co341 O366 1.941 . S
C342 O343 1.258 . S
C342 O344 1.263 . S
O343 Co340 1.970 . S
O343 C342 1.258 . S
O344 Co341 1.966 . S
O344 C342 1.263 . S
C345 O346 1.235 . S
C345 O372 1.289 . S
O346 C345 1.235 . S
C347 C349 1.400 . S
C347 N350 1.351 . S
C347 C352 1.501 . S
C348 C349 1.387 . S
C348 N351 1.341 . S
C349 C347 1.400 . S
C349 C348 1.387 . S
N350 Co341 2.022 . S
N350 C347 1.351 . S
N350 N351 1.365 . S
N351 C348 1.341 . S
N351 N350 1.365 . S
N351 H371 0.862 . S
C352 C347 1.501 . S
C352 H353 0.961 . S
C352 H354 0.961 . S
C352 H355 0.960 . S
H353 C352 0.961 . S
H354 C352 0.961 . S
H355 C352 0.960 . S
C356 N357 1.342 . S
C356 C360 1.401 . S
C356 C361 1.499 . S
N357 Co340 1.989 . S
N357 C356 1.342 . S
N357 N358 1.388 . S
N358 Co341 1.993 . S
N358 N357 1.388 . S
N358 C359 1.346 . S
C359 N358 1.346 . S
C359 C360 1.396 . S
C359 C369 1.510 . S
C360 C356 1.401 . S
C360 C359 1.396 . S
C361 C356 1.499 . S
C361 H362 0.959 . S
C361 H363 0.960 . S
C361 H364 0.961 . S
H362 C361 0.959 . S
H363 C361 0.960 . S
H364 C361 0.961 . S
O365 Co340 1.967 . S
O365 C373 1.258 . S
O366 Co341 1.941 . S
O366 C373 1.266 . S
H367 C369 0.959 . S
H368 C369 0.961 . S
C369 C359 1.510 . S
C369 H367 0.959 . S
C369 H368 0.961 . S
C369 H370 0.960 . S
H370 C369 0.960 . S
H371 N351 0.862 . S
O372 Co340 1.920 . S
O372 C345 1.289 . S
C373 O365 1.258 . S
C373 O366 1.266 . S
Co374 O377 1.970 . S
Co374 N391 1.989 . S
Co374 O399 1.967 . S
Co374 O406 1.920 . S
Co375 O378 1.966 . S
Co375 N384 2.022 . S
Co375 N392 1.993 . S
Co375 O400 1.941 . S
C376 O377 1.258 . S
C376 O378 1.263 . S
O377 Co374 1.970 . S
O377 C376 1.258 . S
O378 Co375 1.966 . S
O378 C376 1.263 . S
C379 O380 1.235 . S
C379 O406 1.289 . S
O380 C379 1.235 . S
C381 C383 1.400 . S
C381 N384 1.351 . S
C381 C386 1.501 . S
C382 C383 1.387 . S
C382 N385 1.341 . S
C383 C381 1.400 . S
C383 C382 1.387 . S
N384 Co375 2.022 . S
N384 C381 1.351 . S
N384 N385 1.365 . S
N385 C382 1.341 . S
N385 N384 1.365 . S
N385 H405 0.862 . S
C386 C381 1.501 . S
C386 H387 0.961 . S
C386 H388 0.961 . S
C386 H389 0.960 . S
H387 C386 0.961 . S
H388 C386 0.961 . S
H389 C386 0.960 . S
C390 N391 1.342 . S
C390 C394 1.401 . S
C390 C395 1.499 . S
N391 Co374 1.989 . S
N391 C390 1.342 . S
N391 N392 1.388 . S
N392 Co375 1.993 . S
N392 N391 1.388 . S
N392 C393 1.346 . S
C393 N392 1.346 . S
C393 C394 1.396 . S
C393 C403 1.510 . S
C394 C390 1.401 . S
C394 C393 1.396 . S
C395 C390 1.499 . S
C395 H396 0.959 . S
C395 H397 0.960 . S
C395 H398 0.961 . S
H396 C395 0.959 . S
H397 C395 0.960 . S
H398 C395 0.961 . S
O399 Co374 1.967 . S
O399 C407 1.258 . S
O400 Co375 1.941 . S
O400 C407 1.266 . S
H401 C403 0.959 . S
H402 C403 0.961 . S
C403 C393 1.510 . S
C403 H401 0.959 . S
C403 H402 0.961 . S
C403 H404 0.960 . S
H404 C403 0.960 . S
H405 N385 0.862 . S
O406 Co374 1.920 . S
O406 C379 1.289 . S
C407 O399 1.258 . S
C407 O400 1.266 . S
Co408 O411 1.970 . S
Co408 N425 1.989 . S
Co408 O433 1.967 . S
Co408 O440 1.920 . S
Co409 O412 1.966 . S
Co409 N418 2.022 . S
Co409 N426 1.993 . S
Co409 O434 1.941 . S
C410 O411 1.258 . S
C410 O412 1.263 . S
O411 Co408 1.970 . S
O411 C410 1.258 . S
O412 Co409 1.966 . S
O412 C410 1.263 . S
C413 O414 1.235 . S
C413 O440 1.289 . S
O414 C413 1.235 . S
C415 C417 1.400 . S
C415 N418 1.351 . S
C415 C420 1.501 . S
C416 C417 1.387 . S
C416 N419 1.341 . S
C417 C415 1.400 . S
C417 C416 1.387 . S
N418 Co409 2.022 . S
N418 C415 1.351 . S
N418 N419 1.365 . S
N419 C416 1.341 . S
N419 N418 1.365 . S
N419 H439 0.862 . S
C420 C415 1.501 . S
C420 H421 0.961 . S
C420 H422 0.961 . S
C420 H423 0.960 . S
H421 C420 0.961 . S
H422 C420 0.961 . S
H423 C420 0.960 . S
C424 N425 1.342 . S
C424 C428 1.401 . S
C424 C429 1.499 . S
N425 Co408 1.989 . S
N425 C424 1.342 . S
N425 N426 1.388 . S
N426 Co409 1.993 . S
N426 N425 1.388 . S
N426 C427 1.346 . S
C427 N426 1.346 . S
C427 C428 1.396 . S
C427 C437 1.510 . S
C428 C424 1.401 . S
C428 C427 1.396 . S
C429 C424 1.499 . S
C429 H430 0.959 . S
C429 H431 0.960 . S
C429 H432 0.961 . S
H430 C429 0.959 . S
H431 C429 0.960 . S
H432 C429 0.961 . S
O433 Co408 1.967 . S
O433 C441 1.258 . S
O434 Co409 1.941 . S
O434 C441 1.266 . S
H435 C437 0.959 . S
H436 C437 0.961 . S
C437 C427 1.510 . S
C437 H435 0.959 . S
C437 H436 0.961 . S
C437 H438 0.960 . S
H438 C437 0.960 . S
H439 N419 0.862 . S
O440 Co408 1.920 . S
O440 C413 1.289 . S
C441 O433 1.258 . S
C441 O434 1.266 . S
Co442 O445 1.970 . S
Co442 N459 1.989 . S
Co442 O467 1.967 . S
Co442 O474 1.920 . S
Co443 O446 1.966 . S
Co443 N452 2.022 . S
Co443 N460 1.993 . S
Co443 O468 1.941 . S
C444 O445 1.258 . S
C444 O446 1.263 . S
O445 Co442 1.970 . S
O445 C444 1.258 . S
O446 Co443 1.966 . S
O446 C444 1.263 . S
C447 O448 1.235 . S
C447 O474 1.289 . S
O448 C447 1.235 . S
C449 C451 1.400 . S
C449 N452 1.351 . S
C449 C454 1.501 . S
C450 C451 1.387 . S
C450 N453 1.341 . S
C451 C449 1.400 . S
C451 C450 1.387 . S
N452 Co443 2.022 . S
N452 C449 1.351 . S
N452 N453 1.365 . S
N453 C450 1.341 . S
N453 N452 1.365 . S
N453 H473 0.862 . S
C454 C449 1.501 . S
C454 H455 0.961 . S
C454 H456 0.961 . S
C454 H457 0.960 . S
H455 C454 0.961 . S
H456 C454 0.961 . S
H457 C454 0.960 . S
C458 N459 1.342 . S
C458 C462 1.401 . S
C458 C463 1.499 . S
N459 Co442 1.989 . S
N459 C458 1.342 . S
N459 N460 1.388 . S
N460 Co443 1.993 . S
N460 N459 1.388 . S
N460 C461 1.346 . S
C461 N460 1.346 . S
C461 C462 1.396 . S
C461 C471 1.510 . S
C462 C458 1.401 . S
C462 C461 1.396 . S
C463 C458 1.499 . S
C463 H464 0.959 . S
C463 H465 0.960 . S
C463 H466 0.961 . S
H464 C463 0.959 . S
H465 C463 0.960 . S
H466 C463 0.961 . S
O467 Co442 1.967 . S
O467 C475 1.258 . S
O468 Co443 1.941 . S
O468 C475 1.266 . S
H469 C471 0.959 . S
H470 C471 0.961 . S
C471 C461 1.510 . S
C471 H469 0.959 . S
C471 H470 0.961 . S
C471 H472 0.960 . S
H472 C471 0.960 . S
H473 N453 0.862 . S
O474 Co442 1.920 . S
O474 C447 1.289 . S
C475 O467 1.258 . S
C475 O468 1.266 . S
Co476 O479 1.970 . S
Co476 N493 1.989 . S
Co476 O501 1.967 . S
Co476 O508 1.920 . S
Co477 O480 1.966 . S
Co477 N486 2.022 . S
Co477 N494 1.993 . S
Co477 O502 1.941 . S
C478 O479 1.258 . S
C478 O480 1.263 . S
O479 Co476 1.970 . S
O479 C478 1.258 . S
O480 Co477 1.966 . S
O480 C478 1.263 . S
C481 O482 1.235 . S
C481 O508 1.289 . S
O482 C481 1.235 . S
C483 C485 1.400 . S
C483 N486 1.351 . S
C483 C488 1.501 . S
C484 C485 1.387 . S
C484 N487 1.341 . S
C485 C483 1.400 . S
C485 C484 1.387 . S
N486 Co477 2.022 . S
N486 C483 1.351 . S
N486 N487 1.365 . S
N487 C484 1.341 . S
N487 N486 1.365 . S
N487 H507 0.862 . S
C488 C483 1.501 . S
C488 H489 0.961 . S
C488 H490 0.961 . S
C488 H491 0.960 . S
H489 C488 0.961 . S
H490 C488 0.961 . S
H491 C488 0.960 . S
C492 N493 1.342 . S
C492 C496 1.401 . S
C492 C497 1.499 . S
N493 Co476 1.989 . S
N493 C492 1.342 . S
N493 N494 1.388 . S
N494 Co477 1.993 . S
N494 N493 1.388 . S
N494 C495 1.346 . S
C495 N494 1.346 . S
C495 C496 1.396 . S
C495 C505 1.510 . S
C496 C492 1.401 . S
C496 C495 1.396 . S
C497 C492 1.499 . S
C497 H498 0.959 . S
C497 H499 0.960 . S
C497 H500 0.961 . S
H498 C497 0.959 . S
H499 C497 0.960 . S
H500 C497 0.961 . S
O501 Co476 1.967 . S
O501 C509 1.258 . S
O502 Co477 1.941 . S
O502 C509 1.266 . S
H503 C505 0.959 . S
H504 C505 0.961 . S
C505 C495 1.510 . S
C505 H503 0.959 . S
C505 H504 0.961 . S
C505 H506 0.960 . S
H506 C505 0.960 . S
H507 N487 0.862 . S
O508 Co476 1.920 . S
O508 C481 1.289 . S
C509 O501 1.258 . S
C509 O502 1.266 . S
Co510 O513 1.970 . S
Co510 N527 1.989 . S
Co510 O535 1.967 . S
Co510 O542 1.920 . S
Co511 O514 1.966 . S
Co511 N520 2.022 . S
Co511 N528 1.993 . S
Co511 O536 1.941 . S
C512 O513 1.258 . S
C512 O514 1.263 . S
O513 Co510 1.970 . S
O513 C512 1.258 . S
O514 Co511 1.966 . S
O514 C512 1.263 . S
C515 O516 1.235 . S
C515 O542 1.289 . S
O516 C515 1.235 . S
C517 C519 1.400 . S
C517 N520 1.351 . S
C517 C522 1.501 . S
C518 C519 1.387 . S
C518 N521 1.341 . S
C519 C517 1.400 . S
C519 C518 1.387 . S
N520 Co511 2.022 . S
N520 C517 1.351 . S
N520 N521 1.365 . S
N521 C518 1.341 . S
N521 N520 1.365 . S
N521 H541 0.862 . S
C522 C517 1.501 . S
C522 H523 0.961 . S
C522 H524 0.961 . S
C522 H525 0.960 . S
H523 C522 0.961 . S
H524 C522 0.961 . S
H525 C522 0.960 . S
C526 N527 1.342 . S
C526 C530 1.401 . S
C526 C531 1.499 . S
N527 Co510 1.989 . S
N527 C526 1.342 . S
N527 N528 1.388 . S
N528 Co511 1.993 . S
N528 N527 1.388 . S
N528 C529 1.346 . S
C529 N528 1.346 . S
C529 C530 1.396 . S
C529 C539 1.510 . S
C530 C526 1.401 . S
C530 C529 1.396 . S
C531 C526 1.499 . S
C531 H532 0.959 . S
C531 H533 0.960 . S
C531 H534 0.961 . S
H532 C531 0.959 . S
H533 C531 0.960 . S
H534 C531 0.961 . S
O535 Co510 1.967 . S
O535 C543 1.258 . S
O536 Co511 1.941 . S
O536 C543 1.266 . S
H537 C539 0.959 . S
H538 C539 0.961 . S
C539 C529 1.510 . S
C539 H537 0.959 . S
C539 H538 0.961 . S
C539 H540 0.960 . S
H540 C539 0.960 . S
H541 N521 0.862 . S
O542 Co510 1.920 . S
O542 C515 1.289 . S
C543 O535 1.258 . S
C543 O536 1.266 . S
Co544 O547 1.970 . S
Co544 N561 1.989 . S
Co544 O569 1.967 . S
Co544 O576 1.920 . S
Co545 O548 1.966 . S
Co545 N554 2.022 . S
Co545 N562 1.993 . S
Co545 O570 1.941 . S
C546 O547 1.258 . S
C546 O548 1.263 . S
O547 Co544 1.970 . S
O547 C546 1.258 . S
O548 Co545 1.966 . S
O548 C546 1.263 . S
C549 O550 1.235 . S
C549 O576 1.289 . S
O550 C549 1.235 . S
C551 C553 1.400 . S
C551 N554 1.351 . S
C551 C556 1.501 . S
C552 C553 1.387 . S
C552 N555 1.341 . S
C553 C551 1.400 . S
C553 C552 1.387 . S
N554 Co545 2.022 . S
N554 C551 1.351 . S
N554 N555 1.365 . S
N555 C552 1.341 . S
N555 N554 1.365 . S
N555 H575 0.862 . S
C556 C551 1.501 . S
C556 H557 0.961 . S
C556 H558 0.961 . S
C556 H559 0.960 . S
H557 C556 0.961 . S
H558 C556 0.961 . S
H559 C556 0.960 . S
C560 N561 1.342 . S
C560 C564 1.401 . S
C560 C565 1.499 . S
N561 Co544 1.989 . S
N561 C560 1.342 . S
N561 N562 1.388 . S
N562 Co545 1.993 . S
N562 N561 1.388 . S
N562 C563 1.346 . S
C563 N562 1.346 . S
C563 C564 1.396 . S
C563 C573 1.510 . S
C564 C560 1.401 . S
C564 C563 1.396 . S
C565 C560 1.499 . S
C565 H566 0.959 . S
C565 H567 0.960 . S
C565 H568 0.961 . S
H566 C565 0.959 . S
H567 C565 0.960 . S
H568 C565 0.961 . S
O569 Co544 1.967 . S
O569 C577 1.258 . S
O570 Co545 1.941 . S
O570 C577 1.266 . S
H571 C573 0.959 . S
H572 C573 0.961 . S
C573 C563 1.510 . S
C573 H571 0.959 . S
C573 H572 0.961 . S
C573 H574 0.960 . S
H574 C573 0.960 . S
H575 N555 0.862 . S
O576 Co544 1.920 . S
O576 C549 1.289 . S
C577 O569 1.258 . S
C577 O570 1.266 . S
Co578 O581 1.970 . S
Co578 N595 1.989 . S
Co578 O603 1.967 . S
Co578 O610 1.920 . S
Co579 O582 1.966 . S
Co579 N588 2.022 . S
Co579 N596 1.993 . S
Co579 O604 1.941 . S
C580 O581 1.258 . S
C580 O582 1.263 . S
O581 Co578 1.970 . S
O581 C580 1.258 . S
O582 Co579 1.966 . S
O582 C580 1.263 . S
C583 O584 1.235 . S
C583 O610 1.289 . S
O584 C583 1.235 . S
C585 C587 1.400 . S
C585 N588 1.351 . S
C585 C590 1.501 . S
C586 C587 1.387 . S
C586 N589 1.341 . S
C587 C585 1.400 . S
C587 C586 1.387 . S
N588 Co579 2.022 . S
N588 C585 1.351 . S
N588 N589 1.365 . S
N589 C586 1.341 . S
N589 N588 1.365 . S
N589 H609 0.862 . S
C590 C585 1.501 . S
C590 H591 0.961 . S
C590 H592 0.961 . S
C590 H593 0.960 . S
H591 C590 0.961 . S
H592 C590 0.961 . S
H593 C590 0.960 . S
C594 N595 1.342 . S
C594 C598 1.401 . S
C594 C599 1.499 . S
N595 Co578 1.989 . S
N595 C594 1.342 . S
N595 N596 1.388 . S
N596 Co579 1.993 . S
N596 N595 1.388 . S
N596 C597 1.346 . S
C597 N596 1.346 . S
C597 C598 1.396 . S
C597 C607 1.510 . S
C598 C594 1.401 . S
C598 C597 1.396 . S
C599 C594 1.499 . S
C599 H600 0.959 . S
C599 H601 0.960 . S
C599 H602 0.961 . S
H600 C599 0.959 . S
H601 C599 0.960 . S
H602 C599 0.961 . S
O603 Co578 1.967 . S
O603 C611 1.258 . S
O604 Co579 1.941 . S
O604 C611 1.266 . S
H605 C607 0.959 . S
H606 C607 0.961 . S
C607 C597 1.510 . S
C607 H605 0.959 . S
C607 H606 0.961 . S
C607 H608 0.960 . S
H608 C607 0.960 . S
H609 N589 0.862 . S
O610 Co578 1.920 . S
O610 C583 1.289 . S
C611 O603 1.258 . S
C611 O604 1.266 . S
Co612 O615 1.970 . S
Co612 N629 1.989 . S
Co612 O637 1.967 . S
Co612 O644 1.920 . S
Co613 O616 1.966 . S
Co613 N622 2.022 . S
Co613 N630 1.993 . S
Co613 O638 1.941 . S
C614 O615 1.258 . S
C614 O616 1.263 . S
O615 Co612 1.970 . S
O615 C614 1.258 . S
O616 Co613 1.966 . S
O616 C614 1.263 . S
C617 O618 1.235 . S
C617 O644 1.289 . S
O618 C617 1.235 . S
C619 C621 1.400 . S
C619 N622 1.351 . S
C619 C624 1.501 . S
C620 C621 1.387 . S
C620 N623 1.341 . S
C621 C619 1.400 . S
C621 C620 1.387 . S
N622 Co613 2.022 . S
N622 C619 1.351 . S
N622 N623 1.365 . S
N623 C620 1.341 . S
N623 N622 1.365 . S
N623 H643 0.862 . S
C624 C619 1.501 . S
C624 H625 0.961 . S
C624 H626 0.961 . S
C624 H627 0.960 . S
H625 C624 0.961 . S
H626 C624 0.961 . S
H627 C624 0.960 . S
C628 N629 1.342 . S
C628 C632 1.401 . S
C628 C633 1.499 . S
N629 Co612 1.989 . S
N629 C628 1.342 . S
N629 N630 1.388 . S
N630 Co613 1.993 . S
N630 N629 1.388 . S
N630 C631 1.346 . S
C631 N630 1.346 . S
C631 C632 1.396 . S
C631 C641 1.510 . S
C632 C628 1.401 . S
C632 C631 1.396 . S
C633 C628 1.499 . S
C633 H634 0.959 . S
C633 H635 0.960 . S
C633 H636 0.961 . S
H634 C633 0.959 . S
H635 C633 0.960 . S
H636 C633 0.961 . S
O637 Co612 1.967 . S
O637 C645 1.258 . S
O638 Co613 1.941 . S
O638 C645 1.266 . S
H639 C641 0.959 . S
H640 C641 0.961 . S
C641 C631 1.510 . S
C641 H639 0.959 . S
C641 H640 0.961 . S
C641 H642 0.960 . S
H642 C641 0.960 . S
H643 N623 0.862 . S
O644 Co612 1.920 . S
O644 C617 1.289 . S
C645 O637 1.258 . S
C645 O638 1.266 . S
Co646 O649 1.970 . S
Co646 N663 1.989 . S
Co646 O671 1.967 . S
Co646 O678 1.920 . S
Co647 O650 1.966 . S
Co647 N656 2.022 . S
Co647 N664 1.993 . S
Co647 O672 1.941 . S
C648 O649 1.258 . S
C648 O650 1.263 . S
O649 Co646 1.970 . S
O649 C648 1.258 . S
O650 Co647 1.966 . S
O650 C648 1.263 . S
C651 O652 1.235 . S
C651 O678 1.289 . S
O652 C651 1.235 . S
C653 C655 1.400 . S
C653 N656 1.351 . S
C653 C658 1.501 . S
C654 C655 1.387 . S
C654 N657 1.341 . S
C655 C653 1.400 . S
C655 C654 1.387 . S
N656 Co647 2.022 . S
N656 C653 1.351 . S
N656 N657 1.365 . S
N657 C654 1.341 . S
N657 N656 1.365 . S
N657 H677 0.862 . S
C658 C653 1.501 . S
C658 H659 0.961 . S
C658 H660 0.961 . S
C658 H661 0.960 . S
H659 C658 0.961 . S
H660 C658 0.961 . S
H661 C658 0.960 . S
C662 N663 1.342 . S
C662 C666 1.401 . S
C662 C667 1.499 . S
N663 Co646 1.989 . S
N663 C662 1.342 . S
N663 N664 1.388 . S
N664 Co647 1.993 . S
N664 N663 1.388 . S
N664 C665 1.346 . S
C665 N664 1.346 . S
C665 C666 1.396 . S
C665 C675 1.510 . S
C666 C662 1.401 . S
C666 C665 1.396 . S
C667 C662 1.499 . S
C667 H668 0.959 . S
C667 H669 0.960 . S
C667 H670 0.961 . S
H668 C667 0.959 . S
H669 C667 0.960 . S
H670 C667 0.961 . S
O671 Co646 1.967 . S
O671 C679 1.258 . S
O672 Co647 1.941 . S
O672 C679 1.266 . S
H673 C675 0.959 . S
H674 C675 0.961 . S
C675 C665 1.510 . S
C675 H673 0.959 . S
C675 H674 0.961 . S
C675 H676 0.960 . S
H676 C675 0.960 . S
H677 N657 0.862 . S
O678 Co646 1.920 . S
O678 C651 1.289 . S
C679 O671 1.258 . S
C679 O672 1.266 . S
Co680 O683 1.970 . S
Co680 N697 1.989 . S
Co680 O705 1.967 . S
Co680 O712 1.920 . S
Co681 O684 1.966 . S
Co681 N690 2.022 . S
Co681 N698 1.993 . S
Co681 O706 1.941 . S
C682 O683 1.258 . S
C682 O684 1.263 . S
O683 Co680 1.970 . S
O683 C682 1.258 . S
O684 Co681 1.966 . S
O684 C682 1.263 . S
C685 O686 1.235 . S
C685 O712 1.289 . S
O686 C685 1.235 . S
C687 C689 1.400 . S
C687 N690 1.351 . S
C687 C692 1.501 . S
C688 C689 1.387 . S
C688 N691 1.341 . S
C689 C687 1.400 . S
C689 C688 1.387 . S
N690 Co681 2.022 . S
N690 C687 1.351 . S
N690 N691 1.365 . S
N691 C688 1.341 . S
N691 N690 1.365 . S
N691 H711 0.862 . S
C692 C687 1.501 . S
C692 H693 0.961 . S
C692 H694 0.961 . S
C692 H695 0.960 . S
H693 C692 0.961 . S
H694 C692 0.961 . S
H695 C692 0.960 . S
C696 N697 1.342 . S
C696 C700 1.401 . S
C696 C701 1.499 . S
N697 Co680 1.989 . S
N697 C696 1.342 . S
N697 N698 1.388 . S
N698 Co681 1.993 . S
N698 N697 1.388 . S
N698 C699 1.346 . S
C699 N698 1.346 . S
C699 C700 1.396 . S
C699 C709 1.510 . S
C700 C696 1.401 . S
C700 C699 1.396 . S
C701 C696 1.499 . S
C701 H702 0.959 . S
C701 H703 0.960 . S
C701 H704 0.961 . S
H702 C701 0.959 . S
H703 C701 0.960 . S
H704 C701 0.961 . S
O705 Co680 1.967 . S
O705 C713 1.258 . S
O706 Co681 1.941 . S
O706 C713 1.266 . S
H707 C709 0.959 . S
H708 C709 0.961 . S
C709 C699 1.510 . S
C709 H707 0.959 . S
C709 H708 0.961 . S
C709 H710 0.960 . S
H710 C709 0.960 . S
H711 N691 0.862 . S
O712 Co680 1.920 . S
O712 C685 1.289 . S
C713 O705 1.258 . S
C713 O706 1.266 . S
Co714 O717 1.970 . S
Co714 N731 1.989 . S
Co714 O739 1.967 . S
Co714 O746 1.920 . S
Co715 O718 1.966 . S
Co715 N724 2.022 . S
Co715 N732 1.993 . S
Co715 O740 1.941 . S
C716 O717 1.258 . S
C716 O718 1.263 . S
O717 Co714 1.970 . S
O717 C716 1.258 . S
O718 Co715 1.966 . S
O718 C716 1.263 . S
C719 O720 1.235 . S
C719 O746 1.289 . S
O720 C719 1.235 . S
C721 C723 1.400 . S
C721 N724 1.351 . S
C721 C726 1.501 . S
C722 C723 1.387 . S
C722 N725 1.341 . S
C723 C721 1.400 . S
C723 C722 1.387 . S
N724 Co715 2.022 . S
N724 C721 1.351 . S
N724 N725 1.365 . S
N725 C722 1.341 . S
N725 N724 1.365 . S
N725 H745 0.862 . S
C726 C721 1.501 . S
C726 H727 0.961 . S
C726 H728 0.961 . S
C726 H729 0.960 . S
H727 C726 0.961 . S
H728 C726 0.961 . S
H729 C726 0.960 . S
C730 N731 1.342 . S
C730 C734 1.401 . S
C730 C735 1.499 . S
N731 Co714 1.989 . S
N731 C730 1.342 . S
N731 N732 1.388 . S
N732 Co715 1.993 . S
N732 N731 1.388 . S
N732 C733 1.346 . S
C733 N732 1.346 . S
C733 C734 1.396 . S
C733 C743 1.510 . S
C734 C730 1.401 . S
C734 C733 1.396 . S
C735 C730 1.499 . S
C735 H736 0.959 . S
C735 H737 0.960 . S
C735 H738 0.961 . S
H736 C735 0.959 . S
H737 C735 0.960 . S
H738 C735 0.961 . S
O739 Co714 1.967 . S
O739 C747 1.258 . S
O740 Co715 1.941 . S
O740 C747 1.266 . S
H741 C743 0.959 . S
H742 C743 0.961 . S
C743 C733 1.510 . S
C743 H741 0.959 . S
C743 H742 0.961 . S
C743 H744 0.960 . S
H744 C743 0.960 . S
H745 N725 0.862 . S
O746 Co714 1.920 . S
O746 C719 1.289 . S
C747 O739 1.258 . S
C747 O740 1.266 . S
Co748 O751 1.970 . S
Co748 N765 1.989 . S
Co748 O773 1.967 . S
Co748 O780 1.920 . S
Co749 O752 1.966 . S
Co749 N758 2.022 . S
Co749 N766 1.993 . S
Co749 O774 1.941 . S
C750 O751 1.258 . S
C750 O752 1.263 . S
O751 Co748 1.970 . S
O751 C750 1.258 . S
O752 Co749 1.966 . S
O752 C750 1.263 . S
C753 O754 1.235 . S
C753 O780 1.289 . S
O754 C753 1.235 . S
C755 C757 1.400 . S
C755 N758 1.351 . S
C755 C760 1.501 . S
C756 C757 1.387 . S
C756 N759 1.341 . S
C757 C755 1.400 . S
C757 C756 1.387 . S
N758 Co749 2.022 . S
N758 C755 1.351 . S
N758 N759 1.365 . S
N759 C756 1.341 . S
N759 N758 1.365 . S
N759 H779 0.862 . S
C760 C755 1.501 . S
C760 H761 0.961 . S
C760 H762 0.961 . S
C760 H763 0.960 . S
H761 C760 0.961 . S
H762 C760 0.961 . S
H763 C760 0.960 . S
C764 N765 1.342 . S
C764 C768 1.401 . S
C764 C769 1.499 . S
N765 Co748 1.989 . S
N765 C764 1.342 . S
N765 N766 1.388 . S
N766 Co749 1.993 . S
N766 N765 1.388 . S
N766 C767 1.346 . S
C767 N766 1.346 . S
C767 C768 1.396 . S
C767 C777 1.510 . S
C768 C764 1.401 . S
C768 C767 1.396 . S
C769 C764 1.499 . S
C769 H770 0.959 . S
C769 H771 0.960 . S
C769 H772 0.961 . S
H770 C769 0.959 . S
H771 C769 0.960 . S
H772 C769 0.961 . S
O773 Co748 1.967 . S
O773 C781 1.258 . S
O774 Co749 1.941 . S
O774 C781 1.266 . S
H775 C777 0.959 . S
H776 C777 0.961 . S
C777 C767 1.510 . S
C777 H775 0.959 . S
C777 H776 0.961 . S
C777 H778 0.960 . S
H778 C777 0.960 . S
H779 N759 0.862 . S
O780 Co748 1.920 . S
O780 C753 1.289 . S
C781 O773 1.258 . S
C781 O774 1.266 . S
Co782 O785 1.970 . S
Co782 N799 1.989 . S
Co782 O807 1.967 . S
Co782 O814 1.920 . S
Co783 O786 1.966 . S
Co783 N792 2.022 . S
Co783 N800 1.993 . S
Co783 O808 1.941 . S
C784 O785 1.258 . S
C784 O786 1.263 . S
O785 Co782 1.970 . S
O785 C784 1.258 . S
O786 Co783 1.966 . S
O786 C784 1.263 . S
C787 O788 1.235 . S
C787 O814 1.289 . S
O788 C787 1.235 . S
C789 C791 1.400 . S
C789 N792 1.351 . S
C789 C794 1.501 . S
C790 C791 1.387 . S
C790 N793 1.341 . S
C791 C789 1.400 . S
C791 C790 1.387 . S
N792 Co783 2.022 . S
N792 C789 1.351 . S
N792 N793 1.365 . S
N793 C790 1.341 . S
N793 N792 1.365 . S
N793 H813 0.862 . S
C794 C789 1.501 . S
C794 H795 0.961 . S
C794 H796 0.961 . S
C794 H797 0.960 . S
H795 C794 0.961 . S
H796 C794 0.961 . S
H797 C794 0.960 . S
C798 N799 1.342 . S
C798 C802 1.401 . S
C798 C803 1.499 . S
N799 Co782 1.989 . S
N799 C798 1.342 . S
N799 N800 1.388 . S
N800 Co783 1.993 . S
N800 N799 1.388 . S
N800 C801 1.346 . S
C801 N800 1.346 . S
C801 C802 1.396 . S
C801 C811 1.510 . S
C802 C798 1.401 . S
C802 C801 1.396 . S
C803 C798 1.499 . S
C803 H804 0.959 . S
C803 H805 0.960 . S
C803 H806 0.961 . S
H804 C803 0.959 . S
H805 C803 0.960 . S
H806 C803 0.961 . S
O807 Co782 1.967 . S
O807 C815 1.258 . S
O808 Co783 1.941 . S
O808 C815 1.266 . S
H809 C811 0.959 . S
H810 C811 0.961 . S
C811 C801 1.510 . S
C811 H809 0.959 . S
C811 H810 0.961 . S
C811 H812 0.960 . S
H812 C811 0.960 . S
H813 N793 0.862 . S
O814 Co782 1.920 . S
O814 C787 1.289 . S
C815 O807 1.258 . S
C815 O808 1.266 . S
C816 C817 1.349 . S
C816 C818 1.327 . S
C816 H841 0.950 . S
C817 C816 1.349 . S
C817 C833 1.349 . S
C818 C816 1.327 . S
C818 C837 1.429 . S
C818 H842 0.950 . S
C819 C836 1.574 . S
C819 C838 1.368 . S
C819 H843 0.949 . S
H820 C824 0.949 . S
C821 C822 1.349 . S
C821 C823 1.327 . S
C821 H844 0.950 . S
C822 C821 1.349 . S
C822 C834 1.349 . S
C823 C821 1.327 . S
C823 C839 1.429 . S
C823 H845 0.950 . S
C824 H820 0.949 . S
C824 C832 1.574 . S
C824 C840 1.368 . S
H825 C833 0.950 . S
H826 C831 0.950 . S
H827 C832 0.949 . S
H828 C834 0.950 . S
H829 C835 0.950 . S
H830 C836 0.949 . S
C831 H826 0.950 . S
C831 C833 1.327 . S
C831 C837 1.429 . S
C832 C824 1.574 . S
C832 H827 0.949 . S
C832 C838 1.368 . S
C833 C817 1.349 . S
C833 H825 0.950 . S
C833 C831 1.327 . S
C834 C822 1.349 . S
C834 H828 0.950 . S
C834 C835 1.327 . S
C835 H829 0.950 . S
C835 C834 1.327 . S
C835 C839 1.429 . S
C836 C819 1.574 . S
C836 H830 0.949 . S
C836 C840 1.368 . S
C837 C818 1.429 . S
C837 C831 1.429 . S
C837 C838 1.523 . S
C838 C819 1.368 . S
C838 C832 1.368 . S
C838 C837 1.523 . S
C839 C823 1.429 . S
C839 C835 1.429 . S
C839 C840 1.523 . S
C840 C824 1.368 . S
C840 C836 1.368 . S
C840 C839 1.523 . S
H841 C816 0.950 . S
H842 C818 0.950 . S
H843 C819 0.949 . S
H844 C821 0.950 . S
H845 C823 0.950 . S
C846 C847 1.349 1_655 S
C846 C848 1.327 . S
C846 H871 0.950 . S
C847 C846 1.349 1_455 S
C847 C863 1.349 1_455 S
C848 C846 1.327 . S
C848 C867 1.429 . S
C848 H872 0.950 . S
C849 C866 1.574 . S
C849 C868 1.368 . S
C849 H873 0.949 . S
H850 C854 0.949 . S
C851 C852 1.349 . S
C851 C853 1.327 . S
C851 H874 0.950 . S
C852 C851 1.349 . S
C852 C864 1.349 . S
C853 C851 1.327 . S
C853 C869 1.429 . S
C853 H875 0.950 . S
C854 H850 0.949 . S
C854 C862 1.574 . S
C854 C870 1.368 . S
H855 C863 0.950 1_455 S
H856 C861 0.950 . S
H857 C862 0.949 . S
H858 C864 0.950 . S
H859 C865 0.950 . S
H860 C866 0.949 . S
C861 H856 0.950 . S
C861 C863 1.327 . S
C861 C867 1.429 . S
C862 C854 1.574 . S
C862 H857 0.949 . S
C862 C868 1.368 . S
C863 C847 1.349 1_655 S
C863 H855 0.950 1_655 S
C863 C861 1.327 . S
C864 C852 1.349 . S
C864 H858 0.950 . S
C864 C865 1.327 . S
C865 H859 0.950 . S
C865 C864 1.327 . S
C865 C869 1.429 . S
C866 C849 1.574 . S
C866 H860 0.949 . S
C866 C870 1.368 . S
C867 C848 1.429 . S
C867 C861 1.429 . S
C867 C868 1.523 . S
C868 C849 1.368 . S
C868 C862 1.368 . S
C868 C867 1.523 . S
C869 C853 1.429 . S
C869 C865 1.429 . S
C869 C870 1.523 . S
C870 C854 1.368 . S
C870 C866 1.368 . S
C870 C869 1.523 . S
H871 C846 0.950 . S
H872 C848 0.950 . S
H873 C849 0.949 . S
H874 C851 0.950 . S
H875 C853 0.950 . S
C876 C877 1.349 . S
C876 C878 1.327 . S
C876 H901 0.950 . S
C877 C876 1.349 . S
C877 C893 1.349 . S
C878 C876 1.327 . S
C878 C897 1.429 . S
C878 H902 0.950 . S
C879 C896 1.574 . S
C879 C898 1.368 . S
C879 H903 0.949 . S
H880 C884 0.949 . S
C881 C882 1.349 . S
C881 C883 1.327 . S
C881 H904 0.950 . S
C882 C881 1.349 . S
C882 C894 1.349 . S
C883 C881 1.327 . S
C883 C899 1.429 . S
C883 H905 0.950 . S
C884 H880 0.949 . S
C884 C892 1.574 . S
C884 C900 1.368 . S
H885 C893 0.950 . S
H886 C891 0.950 . S
H887 C892 0.949 . S
H888 C894 0.950 . S
H889 C895 0.950 . S
H890 C896 0.949 . S
C891 H886 0.950 . S
C891 C893 1.327 . S
C891 C897 1.429 . S
C892 C884 1.574 . S
C892 H887 0.949 . S
C892 C898 1.368 . S
C893 C877 1.349 . S
C893 H885 0.950 . S
C893 C891 1.327 . S
C894 C882 1.349 . S
C894 H888 0.950 . S
C894 C895 1.327 . S
C895 H889 0.950 . S
C895 C894 1.327 . S
C895 C899 1.429 . S
C896 C879 1.574 . S
C896 H890 0.949 . S
C896 C900 1.368 . S
C897 C878 1.429 . S
C897 C891 1.429 . S
C897 C898 1.523 . S
C898 C879 1.368 . S
C898 C892 1.368 . S
C898 C897 1.523 . S
C899 C883 1.429 . S
C899 C895 1.429 . S
C899 C900 1.523 . S
C900 C884 1.368 . S
C900 C896 1.368 . S
C900 C899 1.523 . S
H901 C876 0.950 . S
H902 C878 0.950 . S
H903 C879 0.949 . S
H904 C881 0.950 . S
H905 C883 0.950 . S
C906 C907 1.349 . S
C906 C908 1.327 . S
C906 H931 0.950 . S
C907 C906 1.349 . S
C907 C923 1.349 . S
C908 C906 1.327 . S
C908 C927 1.429 . S
C908 H932 0.950 . S
C909 C926 1.574 . S
C909 C928 1.368 . S
C909 H933 0.949 . S
H910 C914 0.949 . S
C911 C912 1.344 1_455 S
C911 C913 1.361 . S
C911 H934 0.922 1_455 S
C912 C911 1.344 1_655 S
C912 C924 1.349 1_655 S
C913 C911 1.361 . S
C913 C929 1.429 . S
C913 H935 0.950 . S
C914 H910 0.949 . S
C914 C922 1.574 . S
C914 C930 1.368 . S
H915 C923 0.950 . S
H916 C921 0.950 . S
H917 C922 0.949 . S
H918 C924 0.950 . S
H919 C925 0.950 . S
H920 C926 0.949 . S
C921 H916 0.950 . S
C921 C923 1.327 . S
C921 C927 1.429 . S
C922 C914 1.574 . S
C922 H917 0.949 . S
C922 C928 1.368 . S
C923 C907 1.349 . S
C923 H915 0.950 . S
C923 C921 1.327 . S
C924 C912 1.349 1_455 S
C924 H918 0.950 . S
C924 C925 1.327 . S
C925 H919 0.950 . S
C925 C924 1.327 . S
C925 C929 1.429 . S
C926 C909 1.574 . S
C926 H920 0.949 . S
C926 C930 1.368 . S
C927 C908 1.429 . S
C927 C921 1.429 . S
C927 C928 1.523 . S
C928 C909 1.368 . S
C928 C922 1.368 . S
C928 C927 1.523 . S
C929 C913 1.429 . S
C929 C925 1.429 . S
C929 C930 1.523 . S
C930 C914 1.368 . S
C930 C926 1.368 . S
C930 C929 1.523 . S
H931 C906 0.950 . S
H932 C908 0.950 . S
H933 C909 0.949 . S
H934 C911 0.922 1_655 S
H935 C913 0.950 . S
C936 C937 1.349 . S
C936 C938 1.327 . S
C936 H961 0.950 . S
C937 C936 1.349 . S
C937 C953 1.349 . S
C938 C936 1.327 . S
C938 C957 1.429 . S
C938 H962 0.950 . S
C939 C956 1.574 . S
C939 C958 1.368 . S
C939 H963 0.949 . S
H940 C944 0.949 . S
C941 C942 1.349 . S
C941 C943 1.327 . S
C941 H964 0.950 . S
C942 C941 1.349 . S
C942 C954 1.349 . S
C943 C941 1.327 . S
C943 C959 1.429 . S
C943 H965 0.950 . S
C944 H940 0.949 . S
C944 C952 1.574 . S
C944 C960 1.368 . S
H945 C953 0.950 . S
H946 C951 0.950 . S
H947 C952 0.949 . S
H948 C954 0.950 . S
H949 C955 0.950 . S
H950 C956 0.949 . S
C951 H946 0.950 . S
C951 C953 1.327 . S
C951 C957 1.429 . S
C952 C944 1.574 . S
C952 H947 0.949 . S
C952 C958 1.368 . S
C953 C937 1.349 . S
C953 H945 0.950 . S
C953 C951 1.327 . S
C954 C942 1.349 . S
C954 H948 0.950 . S
C954 C955 1.327 . S
C955 H949 0.950 . S
C955 C954 1.327 . S
C955 C959 1.429 . S
C956 C939 1.574 . S
C956 H950 0.949 . S
C956 C960 1.368 . S
C957 C938 1.429 . S
C957 C951 1.429 . S
C957 C958 1.523 . S
C958 C939 1.368 . S
C958 C952 1.368 . S
C958 C957 1.523 . S
C959 C943 1.429 . S
C959 C955 1.429 . S
C959 C960 1.523 . S
C960 C944 1.368 . S
C960 C956 1.368 . S
C960 C959 1.523 . S
H961 C936 0.950 . S
H962 C938 0.950 . S
H963 C939 0.949 . S
H964 C941 0.950 . S
H965 C943 0.950 . S
C966 C967 1.349 . S
C966 C968 1.327 1_655 S
C966 H991 0.950 . S
C967 C966 1.349 . S
C967 C983 1.349 1_655 S
C968 C966 1.327 1_455 S
C968 C987 1.429 . S
C968 H992 0.950 . S
C969 C986 1.574 . S
C969 C988 1.368 . S
C969 H993 0.949 . S
H970 C974 0.949 . S
C971 C972 1.349 . S
C971 C973 1.327 . S
C971 H994 0.950 . S
C972 C971 1.349 . S
C972 C984 1.349 . S
C973 C971 1.327 . S
C973 C989 1.429 . S
C973 H995 0.950 . S
C974 H970 0.949 . S
C974 C982 1.574 . S
C974 C990 1.368 . S
H975 C983 0.950 . S
H976 C981 0.950 . S
H977 C982 0.949 . S
H978 C984 0.950 . S
H979 C985 0.950 . S
H980 C986 0.949 . S
C981 H976 0.950 . S
C981 C983 1.327 . S
C981 C987 1.429 . S
C982 C974 1.574 . S
C982 H977 0.949 . S
C982 C988 1.368 . S
C983 C967 1.349 1_455 S
C983 H975 0.950 . S
C983 C981 1.327 . S
C984 C972 1.349 . S
C984 H978 0.950 . S
C984 C985 1.327 . S
C985 H979 0.950 . S
C985 C984 1.327 . S
C985 C989 1.429 . S
C986 C969 1.574 . S
C986 H980 0.949 . S
C986 C990 1.368 . S
C987 C968 1.429 . S
C987 C981 1.429 . S
C987 C988 1.523 . S
C988 C969 1.368 . S
C988 C982 1.368 . S
C988 C987 1.523 . S
C989 C973 1.429 . S
C989 C985 1.429 . S
C989 C990 1.523 . S
C990 C974 1.368 . S
C990 C986 1.368 . S
C990 C989 1.523 . S
H991 C966 0.950 . S
H992 C968 0.950 . S
H993 C969 0.949 . S
H994 C971 0.950 . S
H995 C973 0.950 . S
C996 C997 1.349 . S
C996 C998 1.327 . S
C996 H1021 0.950 . S
C997 C996 1.349 . S
C997 C1013 1.349 . S
C998 C996 1.327 . S
C998 C1017 1.429 . S
C998 H1022 0.950 . S
C999 C1016 1.574 . S
C999 C1018 1.368 . S
C999 H1023 0.949 . S
H1000 C1004 0.949 . S
C1001 C1002 1.349 . S
C1001 C1003 1.327 . S
C1001 H1024 0.950 . S
C1002 C1001 1.349 . S
C1002 C1014 1.349 . S
C1003 C1001 1.327 . S
C1003 C1019 1.429 . S
C1003 H1025 0.950 . S
C1004 H1000 0.949 . S
C1004 C1012 1.574 . S
C1004 C1020 1.368 . S
H1005 C1013 0.950 . S
H1006 C1011 0.950 . S
H1007 C1012 0.949 . S
H1008 C1014 0.950 . S
H1009 C1015 0.950 . S
H1010 C1016 0.949 . S
C1011 H1006 0.950 . S
C1011 C1013 1.327 . S
C1011 C1017 1.429 . S
C1012 C1004 1.574 . S
C1012 H1007 0.949 . S
C1012 C1018 1.368 . S
C1013 C997 1.349 . S
C1013 H1005 0.950 . S
C1013 C1011 1.327 . S
C1014 C1002 1.349 . S
C1014 H1008 0.950 . S
C1014 C1015 1.327 . S
C1015 H1009 0.950 . S
C1015 C1014 1.327 . S
C1015 C1019 1.429 . S
C1016 C999 1.574 . S
C1016 H1010 0.949 . S
C1016 C1020 1.368 . S
C1017 C998 1.429 . S
C1017 C1011 1.429 . S
C1017 C1018 1.523 . S
C1018 C999 1.368 . S
C1018 C1012 1.368 . S
C1018 C1017 1.523 . S
C1019 C1003 1.429 . S
C1019 C1015 1.429 . S
C1019 C1020 1.523 . S
C1020 C1004 1.368 . S
C1020 C1016 1.368 . S
C1020 C1019 1.523 . S
H1021 C996 0.950 . S
H1022 C998 0.950 . S
H1023 C999 0.949 . S
H1024 C1001 0.950 . S
H1025 C1003 0.950 . S
C1026 C1027 1.349 1_655 S
C1026 C1028 1.327 . S
C1026 H1051 0.950 1_655 S
C1027 C1026 1.349 1_455 S
C1027 C1043 1.349 1_455 S
C1028 C1026 1.327 . S
C1028 C1047 1.429 . S
C1028 H1052 0.950 . S
C1029 C1046 1.574 . S
C1029 C1048 1.368 . S
C1029 H1053 0.949 . S
H1030 C1034 0.949 . S
C1031 C1032 1.349 . S
C1031 C1033 1.327 . S
C1031 H1054 0.950 . S
C1032 C1031 1.349 . S
C1032 C1044 1.349 . S
C1033 C1031 1.327 . S
C1033 C1049 1.429 . S
C1033 H1055 0.950 . S
C1034 H1030 0.949 . S
C1034 C1042 1.574 . S
C1034 C1050 1.368 . S
H1035 C1043 0.950 . S
H1036 C1041 0.950 . S
H1037 C1042 0.949 . S
H1038 C1044 0.950 . S
H1039 C1045 0.950 . S
H1040 C1046 0.949 . S
C1041 H1036 0.950 . S
C1041 C1043 1.327 . S
C1041 C1047 1.429 . S
C1042 C1034 1.574 . S
C1042 H1037 0.949 . S
C1042 C1048 1.368 . S
C1043 C1027 1.349 1_655 S
C1043 H1035 0.950 . S
C1043 C1041 1.327 . S
C1044 C1032 1.349 . S
C1044 H1038 0.950 . S
C1044 C1045 1.327 . S
C1045 H1039 0.950 . S
C1045 C1044 1.327 . S
C1045 C1049 1.429 . S
C1046 C1029 1.574 . S
C1046 H1040 0.949 . S
C1046 C1050 1.368 . S
C1047 C1028 1.429 . S
C1047 C1041 1.429 . S
C1047 C1048 1.523 . S
C1048 C1029 1.368 . S
C1048 C1042 1.368 . S
C1048 C1047 1.523 . S
C1049 C1033 1.429 . S
C1049 C1045 1.429 . S
C1049 C1050 1.523 . S
C1050 C1034 1.368 . S
C1050 C1046 1.368 . S
C1050 C1049 1.523 . S
H1051 C1026 0.950 1_455 S
H1052 C1028 0.950 . S
H1053 C1029 0.949 . S
H1054 C1031 0.950 . S
H1055 C1033 0.950 . S
C1056 C1057 1.349 . S
C1056 C1058 1.327 . S
C1056 H1081 0.950 . S
C1057 C1056 1.349 . S
C1057 C1073 1.349 . S
C1058 C1056 1.327 . S
C1058 C1077 1.429 . S
C1058 H1082 0.950 . S
C1059 C1076 1.574 . S
C1059 C1078 1.368 . S
C1059 H1083 0.949 . S
H1060 C1064 0.949 . S
C1061 C1062 1.349 . S
C1061 C1063 1.327 . S
C1061 H1084 0.950 . S
C1062 C1061 1.349 . S
C1062 C1074 1.349 . S
C1063 C1061 1.327 . S
C1063 C1079 1.429 . S
C1063 H1085 0.950 . S
C1064 H1060 0.949 . S
C1064 C1072 1.574 . S
C1064 C1080 1.368 . S
H1065 C1073 0.950 . S
H1066 C1071 0.950 . S
H1067 C1072 0.949 . S
H1068 C1074 0.950 . S
H1069 C1075 0.950 . S
H1070 C1076 0.949 . S
C1071 H1066 0.950 . S
C1071 C1073 1.327 . S
C1071 C1077 1.429 . S
C1072 C1064 1.574 . S
C1072 H1067 0.949 . S
C1072 C1078 1.368 . S
C1073 C1057 1.349 . S
C1073 H1065 0.950 . S
C1073 C1071 1.327 . S
C1074 C1062 1.349 . S
C1074 H1068 0.950 . S
C1074 C1075 1.327 . S
C1075 H1069 0.950 . S
C1075 C1074 1.327 . S
C1075 C1079 1.429 . S
C1076 C1059 1.574 . S
C1076 H1070 0.949 . S
C1076 C1080 1.368 . S
C1077 C1058 1.429 . S
C1077 C1071 1.429 . S
C1077 C1078 1.523 . S
C1078 C1059 1.368 . S
C1078 C1072 1.368 . S
C1078 C1077 1.523 . S
C1079 C1063 1.429 . S
C1079 C1075 1.429 . S
C1079 C1080 1.523 . S
C1080 C1064 1.368 . S
C1080 C1076 1.368 . S
C1080 C1079 1.523 . S
H1081 C1056 0.950 . S
H1082 C1058 0.950 . S
H1083 C1059 0.949 . S
H1084 C1061 0.950 . S
H1085 C1063 0.950 . S
C1086 C1087 1.349 . S
C1086 C1088 1.327 . S
C1086 H1111 0.950 . S
C1087 C1086 1.349 . S
C1087 C1103 1.349 . S
C1088 C1086 1.327 . S
C1088 C1107 1.429 . S
C1088 H1112 0.950 . S
C1089 C1106 1.574 . S
C1089 C1108 1.368 . S
C1089 H1113 0.949 . S
H1090 C1094 0.949 . S
C1091 C1092 1.349 1_554 S
C1091 C1093 1.327 . S
C1091 H1114 0.950 . S
C1092 C1091 1.349 1_556 S
C1092 C1104 1.349 . S
C1093 C1091 1.327 . S
C1093 C1109 1.429 . S
C1093 H1115 0.950 . S
C1094 H1090 0.949 . S
C1094 C1102 1.574 . S
C1094 C1110 1.368 . S
H1095 C1103 0.950 . S
H1096 C1101 0.950 . S
H1097 C1102 0.949 . S
H1098 C1104 0.950 . S
H1099 C1105 0.950 . S
H1100 C1106 0.949 . S
C1101 H1096 0.950 . S
C1101 C1103 1.327 . S
C1101 C1107 1.429 . S
C1102 C1094 1.574 . S
C1102 H1097 0.949 . S
C1102 C1108 1.368 . S
C1103 C1087 1.349 . S
C1103 H1095 0.950 . S
C1103 C1101 1.327 . S
C1104 C1092 1.349 . S
C1104 H1098 0.950 . S
C1104 C1105 1.327 1_556 S
C1105 H1099 0.950 . S
C1105 C1104 1.327 1_554 S
C1105 C1109 1.429 . S
C1106 C1089 1.574 . S
C1106 H1100 0.949 . S
C1106 C1110 1.368 . S
C1107 C1088 1.429 . S
C1107 C1101 1.429 . S
C1107 C1108 1.523 . S
C1108 C1089 1.368 . S
C1108 C1102 1.368 . S
C1108 C1107 1.523 . S
C1109 C1093 1.429 . S
C1109 C1105 1.429 . S
C1109 C1110 1.523 . S
C1110 C1094 1.368 . S
C1110 C1106 1.368 . S
C1110 C1109 1.523 . S
H1111 C1086 0.950 . S
H1112 C1088 0.950 . S
H1113 C1089 0.949 . S
H1114 C1091 0.950 . S
H1115 C1093 0.950 . S
C1116 C1117 1.349 . S
C1116 C1118 1.327 . S
C1116 H1141 0.950 . S
C1117 C1116 1.349 . S
C1117 C1133 1.349 . S
C1118 C1116 1.327 . S
C1118 C1137 1.429 . S
C1118 H1142 0.950 . S
C1119 C1136 1.574 . S
C1119 C1138 1.368 . S
C1119 H1143 0.949 . S
H1120 C1124 0.949 . S
C1121 C1122 1.349 . S
C1121 C1123 1.327 . S
C1121 H1144 0.950 . S
C1122 C1121 1.349 . S
C1122 C1134 1.349 . S
C1123 C1121 1.327 . S
C1123 C1139 1.429 . S
C1123 H1145 0.950 . S
C1124 H1120 0.949 . S
C1124 C1132 1.574 . S
C1124 C1140 1.368 . S
H1125 C1133 0.950 . S
H1126 C1131 0.950 . S
H1127 C1132 0.949 . S
H1128 C1134 0.950 . S
H1129 C1135 0.950 . S
H1130 C1136 0.949 . S
C1131 H1126 0.950 . S
C1131 C1133 1.327 . S
C1131 C1137 1.429 . S
C1132 C1124 1.574 . S
C1132 H1127 0.949 . S
C1132 C1138 1.368 . S
C1133 C1117 1.349 . S
C1133 H1125 0.950 . S
C1133 C1131 1.327 . S
C1134 C1122 1.349 . S
C1134 H1128 0.950 . S
C1134 C1135 1.327 . S
C1135 H1129 0.950 . S
C1135 C1134 1.327 . S
C1135 C1139 1.429 . S
C1136 C1119 1.574 . S
C1136 H1130 0.949 . S
C1136 C1140 1.368 . S
C1137 C1118 1.429 . S
C1137 C1131 1.429 . S
C1137 C1138 1.523 . S
C1138 C1119 1.368 . S
C1138 C1132 1.368 . S
C1138 C1137 1.523 . S
C1139 C1123 1.429 . S
C1139 C1135 1.429 . S
C1139 C1140 1.523 . S
C1140 C1124 1.368 . S
C1140 C1136 1.368 . S
C1140 C1139 1.523 . S
H1141 C1116 0.950 . S
H1142 C1118 0.950 . S
H1143 C1119 0.949 . S
H1144 C1121 0.950 . S
H1145 C1123 0.950 . S
C1146 C1147 1.349 1_554 S
C1146 C1148 1.327 . S
C1146 H1171 0.950 . S
C1147 C1146 1.349 1_556 S
C1147 C1163 1.349 . S
C1148 C1146 1.327 . S
C1148 C1167 1.429 . S
C1148 H1172 0.950 . S
C1149 C1166 1.574 . S
C1149 C1168 1.368 . S
C1149 H1173 0.949 . S
H1150 C1154 0.949 . S
C1151 C1152 1.349 . S
C1151 C1153 1.327 . S
C1151 H1174 0.950 . S
C1152 C1151 1.349 . S
C1152 C1164 1.349 . S
C1153 C1151 1.327 . S
C1153 C1169 1.429 . S
C1153 H1175 0.950 . S
C1154 H1150 0.949 . S
C1154 C1162 1.574 . S
C1154 C1170 1.368 . S
H1155 C1163 0.950 . S
H1156 C1161 0.950 . S
H1157 C1162 0.949 . S
H1158 C1164 0.950 . S
H1159 C1165 0.950 . S
H1160 C1166 0.949 . S
C1161 H1156 0.950 . S
C1161 C1163 1.327 1_554 S
C1161 C1167 1.429 . S
C1162 C1154 1.574 . S
C1162 H1157 0.949 . S
C1162 C1168 1.368 . S
C1163 C1147 1.349 . S
C1163 H1155 0.950 . S
C1163 C1161 1.327 1_556 S
C1164 C1152 1.349 . S
C1164 H1158 0.950 . S
C1164 C1165 1.327 . S
C1165 H1159 0.950 . S
C1165 C1164 1.327 . S
C1165 C1169 1.429 . S
C1166 C1149 1.574 . S
C1166 H1160 0.949 . S
C1166 C1170 1.368 . S
C1167 C1148 1.429 . S
C1167 C1161 1.429 . S
C1167 C1168 1.523 . S
C1168 C1149 1.368 . S
C1168 C1162 1.368 . S
C1168 C1167 1.523 . S
C1169 C1153 1.429 . S
C1169 C1165 1.429 . S
C1169 C1170 1.523 . S
C1170 C1154 1.368 . S
C1170 C1166 1.368 . S
C1170 C1169 1.523 . S
H1171 C1146 0.950 . S
H1172 C1148 0.950 . S
H1173 C1149 0.949 . S
H1174 C1151 0.950 . S
H1175 C1153 0.950 . S
C1176 C1177 1.349 . S
C1176 C1178 1.327 . S
C1176 H1201 0.950 . S
C1177 C1176 1.349 . S
C1177 C1193 1.349 . S
C1178 C1176 1.327 . S
C1178 C1197 1.429 . S
C1178 H1202 0.950 . S
C1179 C1196 1.574 . S
C1179 C1198 1.368 . S
C1179 H1203 0.949 . S
H1180 C1184 0.949 . S
C1181 C1182 1.349 . S
C1181 C1183 1.327 . S
C1181 H1204 0.950 . S
C1182 C1181 1.349 . S
C1182 C1194 1.349 . S
C1183 C1181 1.327 . S
C1183 C1199 1.429 . S
C1183 H1205 0.950 . S
C1184 H1180 0.949 . S
C1184 C1192 1.574 . S
C1184 C1200 1.368 . S
H1185 C1193 0.950 . S
H1186 C1191 0.950 . S
H1187 C1192 0.949 . S
H1188 C1194 0.950 . S
H1189 C1195 0.950 . S
H1190 C1196 0.949 . S
C1191 H1186 0.950 . S
C1191 C1193 1.327 . S
C1191 C1197 1.429 . S
C1192 C1184 1.574 . S
C1192 H1187 0.949 . S
C1192 C1198 1.368 . S
C1193 C1177 1.349 . S
C1193 H1185 0.950 . S
C1193 C1191 1.327 . S
C1194 C1182 1.349 . S
C1194 H1188 0.950 . S
C1194 C1195 1.327 . S
C1195 H1189 0.950 . S
C1195 C1194 1.327 . S
C1195 C1199 1.429 . S
C1196 C1179 1.574 . S
C1196 H1190 0.949 . S
C1196 C1200 1.368 . S
C1197 C1178 1.429 . S
C1197 C1191 1.429 . S
C1197 C1198 1.523 . S
C1198 C1179 1.368 . S
C1198 C1192 1.368 . S
C1198 C1197 1.523 . S
C1199 C1183 1.429 . S
C1199 C1195 1.429 . S
C1199 C1200 1.523 . S
C1200 C1184 1.368 . S
C1200 C1196 1.368 . S
C1200 C1199 1.523 . S
H1201 C1176 0.950 . S
H1202 C1178 0.950 . S
H1203 C1179 0.949 . S
H1204 C1181 0.950 . S
H1205 C1183 0.950 . S
C1206 C1207 1.349 . S
C1206 C1208 1.327 . S
C1206 H1231 0.950 . S
C1207 C1206 1.349 . S
C1207 C1223 1.349 . S
C1208 C1206 1.327 . S
C1208 C1227 1.429 . S
C1208 H1232 0.950 . S
C1209 C1226 1.574 . S
C1209 C1228 1.368 . S
C1209 H1233 0.949 . S
H1210 C1214 0.949 . S
C1211 C1212 1.349 1_556 S
C1211 C1213 1.327 . S
C1211 H1234 0.950 . S
C1212 C1211 1.349 1_554 S
C1212 C1224 1.349 . S
C1213 C1211 1.327 . S
C1213 C1229 1.429 . S
C1213 H1235 0.950 . S
C1214 H1210 0.949 . S
C1214 C1222 1.574 . S
C1214 C1230 1.368 . S
H1215 C1223 0.950 . S
H1216 C1221 0.950 . S
H1217 C1222 0.949 . S
H1218 C1224 0.950 . S
H1219 C1225 0.950 . S
H1220 C1226 0.949 . S
C1221 H1216 0.950 . S
C1221 C1223 1.327 . S
C1221 C1227 1.429 . S
C1222 C1214 1.574 . S
C1222 H1217 0.949 . S
C1222 C1228 1.368 . S
C1223 C1207 1.349 . S
C1223 H1215 0.950 . S
C1223 C1221 1.327 . S
C1224 C1212 1.349 . S
C1224 H1218 0.950 . S
C1224 C1225 1.327 1_554 S
C1225 H1219 0.950 . S
C1225 C1224 1.327 1_556 S
C1225 C1229 1.429 . S
C1226 C1209 1.574 . S
C1226 H1220 0.949 . S
C1226 C1230 1.368 . S
C1227 C1208 1.429 . S
C1227 C1221 1.429 . S
C1227 C1228 1.523 . S
C1228 C1209 1.368 . S
C1228 C1222 1.368 . S
C1228 C1227 1.523 . S
C1229 C1213 1.429 . S
C1229 C1225 1.429 . S
C1229 C1230 1.523 . S
C1230 C1214 1.368 . S
C1230 C1226 1.368 . S
C1230 C1229 1.523 . S
H1231 C1206 0.950 . S
H1232 C1208 0.950 . S
H1233 C1209 0.949 . S
H1234 C1211 0.950 . S
H1235 C1213 0.950 . S
C1236 C1237 1.349 . S
C1236 C1238 1.327 . S
C1236 H1261 0.950 . S
C1237 C1236 1.349 . S
C1237 C1253 1.349 . S
C1238 C1236 1.327 . S
C1238 C1257 1.429 . S
C1238 H1262 0.950 . S
C1239 C1256 1.574 . S
C1239 C1258 1.368 . S
C1239 H1263 0.949 . S
H1240 C1244 0.949 . S
C1241 C1242 1.349 . S
C1241 C1243 1.327 . S
C1241 H1264 0.950 . S
C1242 C1241 1.349 . S
C1242 C1254 1.349 . S
C1243 C1241 1.327 . S
C1243 C1259 1.429 . S
C1243 H1265 0.950 . S
C1244 H1240 0.949 . S
C1244 C1252 1.574 . S
C1244 C1260 1.368 . S
H1245 C1253 0.950 . S
H1246 C1251 0.950 . S
H1247 C1252 0.949 . S
H1248 C1254 0.950 . S
H1249 C1255 0.950 . S
H1250 C1256 0.949 . S
C1251 H1246 0.950 . S
C1251 C1253 1.327 . S
C1251 C1257 1.429 . S
C1252 C1244 1.574 . S
C1252 H1247 0.949 . S
C1252 C1258 1.368 . S
C1253 C1237 1.349 . S
C1253 H1245 0.950 . S
C1253 C1251 1.327 . S
C1254 C1242 1.349 . S
C1254 H1248 0.950 . S
C1254 C1255 1.327 . S
C1255 H1249 0.950 . S
C1255 C1254 1.327 . S
C1255 C1259 1.429 . S
C1256 C1239 1.574 . S
C1256 H1250 0.949 . S
C1256 C1260 1.368 . S
C1257 C1238 1.429 . S
C1257 C1251 1.429 . S
C1257 C1258 1.523 . S
C1258 C1239 1.368 . S
C1258 C1252 1.368 . S
C1258 C1257 1.523 . S
C1259 C1243 1.429 . S
C1259 C1255 1.429 . S
C1259 C1260 1.523 . S
C1260 C1244 1.368 . S
C1260 C1256 1.368 . S
C1260 C1259 1.523 . S
H1261 C1236 0.950 . S
H1262 C1238 0.950 . S
H1263 C1239 0.949 . S
H1264 C1241 0.950 . S
H1265 C1243 0.950 . S
C1266 C1267 1.349 . S
C1266 C1268 1.327 1_554 S
C1266 H1291 0.950 . S
C1267 C1266 1.349 . S
C1267 C1283 1.349 1_554 S
C1268 C1266 1.327 1_556 S
C1268 C1287 1.429 . S
C1268 H1292 0.950 . S
C1269 C1286 1.574 . S
C1269 C1288 1.368 . S
C1269 H1293 0.949 . S
H1270 C1274 0.949 . S
C1271 C1272 1.349 . S
C1271 C1273 1.327 . S
C1271 H1294 0.950 . S
C1272 C1271 1.349 . S
C1272 C1284 1.349 . S
C1273 C1271 1.327 . S
C1273 C1289 1.429 . S
C1273 H1295 0.950 . S
C1274 H1270 0.949 . S
C1274 C1282 1.574 . S
C1274 C1290 1.368 . S
H1275 C1283 0.950 . S
H1276 C1281 0.950 . S
H1277 C1282 0.949 . S
H1278 C1284 0.950 . S
H1279 C1285 0.950 . S
H1280 C1286 0.949 . S
C1281 H1276 0.950 . S
C1281 C1283 1.327 . S
C1281 C1287 1.429 . S
C1282 C1274 1.574 . S
C1282 H1277 0.949 . S
C1282 C1288 1.368 . S
C1283 C1267 1.349 1_556 S
C1283 H1275 0.950 . S
C1283 C1281 1.327 . S
C1284 C1272 1.349 . S
C1284 H1278 0.950 . S
C1284 C1285 1.327 . S
C1285 H1279 0.950 . S
C1285 C1284 1.327 . S
C1285 C1289 1.429 . S
C1286 C1269 1.574 . S
C1286 H1280 0.949 . S
C1286 C1290 1.368 . S
C1287 C1268 1.429 . S
C1287 C1281 1.429 . S
C1287 C1288 1.523 . S
C1288 C1269 1.368 . S
C1288 C1282 1.368 . S
C1288 C1287 1.523 . S
C1289 C1273 1.429 . S
C1289 C1285 1.429 . S
C1289 C1290 1.523 . S
C1290 C1274 1.368 . S
C1290 C1286 1.368 . S
C1290 C1289 1.523 . S
H1291 C1266 0.950 . S
H1292 C1268 0.950 . S
H1293 C1269 0.949 . S
H1294 C1271 0.950 . S
H1295 C1273 0.950 . S
C1296 C1297 1.349 . S
C1296 C1298 1.327 . S
C1296 H1321 0.950 . S
C1297 C1296 1.349 . S
C1297 C1313 1.349 . S
C1298 C1296 1.327 . S
C1298 C1317 1.429 . S
C1298 H1322 0.950 . S
C1299 C1316 1.574 . S
C1299 C1318 1.368 . S
C1299 H1323 0.949 . S
H1300 C1304 0.949 . S
C1301 C1302 1.349 . S
C1301 C1303 1.327 . S
C1301 H1324 0.950 . S
C1302 C1301 1.349 . S
C1302 C1314 1.349 . S
C1303 C1301 1.327 . S
C1303 C1319 1.429 . S
C1303 H1325 0.950 . S
C1304 H1300 0.949 . S
C1304 C1312 1.574 . S
C1304 C1320 1.368 . S
H1305 C1313 0.950 . S
H1306 C1311 0.950 . S
H1307 C1312 0.949 . S
H1308 C1314 0.950 . S
H1309 C1315 0.950 . S
H1310 C1316 0.949 . S
C1311 H1306 0.950 . S
C1311 C1313 1.327 . S
C1311 C1317 1.429 . S
C1312 C1304 1.574 . S
C1312 H1307 0.949 . S
C1312 C1318 1.368 . S
C1313 C1297 1.349 . S
C1313 H1305 0.950 . S
C1313 C1311 1.327 . S
C1314 C1302 1.349 . S
C1314 H1308 0.950 . S
C1314 C1315 1.327 . S
C1315 H1309 0.950 . S
C1315 C1314 1.327 . S
C1315 C1319 1.429 . S
C1316 C1299 1.574 . S
C1316 H1310 0.949 . S
C1316 C1320 1.368 . S
C1317 C1298 1.429 . S
C1317 C1311 1.429 . S
C1317 C1318 1.523 . S
C1318 C1299 1.368 . S
C1318 C1312 1.368 . S
C1318 C1317 1.523 . S
C1319 C1303 1.429 . S
C1319 C1315 1.429 . S
C1319 C1320 1.523 . S
C1320 C1304 1.368 . S
C1320 C1316 1.368 . S
C1320 C1319 1.523 . S
H1321 C1296 0.950 . S
H1322 C1298 0.950 . S
H1323 C1299 0.949 . S
H1324 C1301 0.950 . S
H1325 C1303 0.950 . S
C1326 C1327 1.349 . S
C1326 C1328 1.327 . S
C1326 H1351 0.950 . S
C1327 C1326 1.349 . S
C1327 C1343 1.349 . S
C1328 C1326 1.327 . S
C1328 C1347 1.429 . S
C1328 H1352 0.950 . S
C1329 C1346 1.574 . S
C1329 C1348 1.368 . S
C1329 H1353 0.949 . S
H1330 C1334 0.949 . S
C1331 C1332 1.349 . S
C1331 C1333 1.327 . S
C1331 H1354 0.950 . S
C1332 C1331 1.349 . S
C1332 C1344 1.349 . S
C1333 C1331 1.327 . S
C1333 C1349 1.429 . S
C1333 H1355 0.950 . S
C1334 H1330 0.949 . S
C1334 C1342 1.574 . S
C1334 C1350 1.368 . S
H1335 C1343 0.950 . S
H1336 C1341 0.950 . S
H1337 C1342 0.949 . S
H1338 C1344 0.950 . S
H1339 C1345 0.950 . S
H1340 C1346 0.949 . S
C1341 H1336 0.950 . S
C1341 C1343 1.327 . S
C1341 C1347 1.429 . S
C1342 C1334 1.574 . S
C1342 H1337 0.949 . S
C1342 C1348 1.368 . S
C1343 C1327 1.349 . S
C1343 H1335 0.950 . S
C1343 C1341 1.327 . S
C1344 C1332 1.349 . S
C1344 H1338 0.950 . S
C1344 C1345 1.327 . S
C1345 H1339 0.950 . S
C1345 C1344 1.327 . S
C1345 C1349 1.429 . S
C1346 C1329 1.574 . S
C1346 H1340 0.949 . S
C1346 C1350 1.368 . S
C1347 C1328 1.429 . S
C1347 C1341 1.429 . S
C1347 C1348 1.523 . S
C1348 C1329 1.368 . S
C1348 C1342 1.368 . S
C1348 C1347 1.523 . S
C1349 C1333 1.429 . S
C1349 C1345 1.429 . S
C1349 C1350 1.523 . S
C1350 C1334 1.368 . S
C1350 C1346 1.368 . S
C1350 C1349 1.523 . S
H1351 C1326 0.950 . S
H1352 C1328 0.950 . S
H1353 C1329 0.949 . S
H1354 C1331 0.950 . S
H1355 C1333 0.950 . S
C1356 C1357 1.349 1_545 S
C1356 C1358 1.327 . S
C1356 H1381 0.950 . S
C1357 C1356 1.349 1_565 S
C1357 C1373 1.351 . S
C1358 C1356 1.327 . S
C1358 C1377 1.429 . S
C1358 H1382 0.950 . S
C1359 C1376 1.574 . S
C1359 C1378 1.368 . S
C1359 H1383 0.949 . S
H1360 C1364 0.949 . S
C1361 C1362 1.349 . S
C1361 C1363 1.327 . S
C1361 H1384 0.950 . S
C1362 C1361 1.349 . S
C1362 C1374 1.349 . S
C1363 C1361 1.327 . S
C1363 C1379 1.429 . S
C1363 H1385 0.950 . S
C1364 H1360 0.949 . S
C1364 C1372 1.574 . S
C1364 C1380 1.368 . S
H1365 C1373 0.981 . S
H1366 C1371 0.950 . S
H1367 C1372 0.949 . S
H1368 C1374 0.950 . S
H1369 C1375 0.950 . S
H1370 C1376 0.949 . S
C1371 H1366 0.950 . S
C1371 C1373 1.296 1_545 S
C1371 C1377 1.429 . S
C1372 C1364 1.574 . S
C1372 H1367 0.949 . S
C1372 C1378 1.368 . S
C1373 C1357 1.351 . S
C1373 H1365 0.981 . S
C1373 C1371 1.296 1_565 S
C1374 C1362 1.349 . S
C1374 H1368 0.950 . S
C1374 C1375 1.327 . S
C1375 H1369 0.950 . S
C1375 C1374 1.327 . S
C1375 C1379 1.429 . S
C1376 C1359 1.574 . S
C1376 H1370 0.949 . S
C1376 C1380 1.368 . S
C1377 C1358 1.429 . S
C1377 C1371 1.429 . S
C1377 C1378 1.523 . S
C1378 C1359 1.368 . S
C1378 C1372 1.368 . S
C1378 C1377 1.523 . S
C1379 C1363 1.429 . S
C1379 C1375 1.429 . S
C1379 C1380 1.523 . S
C1380 C1364 1.368 . S
C1380 C1376 1.368 . S
C1380 C1379 1.523 . S
H1381 C1356 0.950 . S
H1382 C1358 0.950 . S
H1383 C1359 0.949 . S
H1384 C1361 0.950 . S
H1385 C1363 0.950 . S
C1386 C1387 1.349 . S
C1386 C1388 1.327 . S
C1386 H1411 0.950 . S
C1387 C1386 1.349 . S
C1387 C1403 1.349 . S
C1388 C1386 1.327 . S
C1388 C1407 1.429 . S
C1388 H1412 0.950 . S
C1389 C1406 1.574 . S
C1389 C1408 1.368 . S
C1389 H1413 0.949 . S
H1390 C1394 0.949 . S
C1391 C1392 1.349 . S
C1391 C1393 1.327 . S
C1391 H1414 0.950 . S
C1392 C1391 1.349 . S
C1392 C1404 1.349 . S
C1393 C1391 1.327 . S
C1393 C1409 1.429 . S
C1393 H1415 0.950 . S
C1394 H1390 0.949 . S
C1394 C1402 1.574 . S
C1394 C1410 1.368 . S
H1395 C1403 0.950 . S
H1396 C1401 0.950 . S
H1397 C1402 0.949 . S
H1398 C1404 0.950 . S
H1399 C1405 0.950 . S
H1400 C1406 0.949 . S
C1401 H1396 0.950 . S
C1401 C1403 1.327 . S
C1401 C1407 1.429 . S
C1402 C1394 1.574 . S
C1402 H1397 0.949 . S
C1402 C1408 1.368 . S
C1403 C1387 1.349 . S
C1403 H1395 0.950 . S
C1403 C1401 1.327 . S
C1404 C1392 1.349 . S
C1404 H1398 0.950 . S
C1404 C1405 1.327 . S
C1405 H1399 0.950 . S
C1405 C1404 1.327 . S
C1405 C1409 1.429 . S
C1406 C1389 1.574 . S
C1406 H1400 0.949 . S
C1406 C1410 1.368 . S
C1407 C1388 1.429 . S
C1407 C1401 1.429 . S
C1407 C1408 1.523 . S
C1408 C1389 1.368 . S
C1408 C1402 1.368 . S
C1408 C1407 1.523 . S
C1409 C1393 1.429 . S
C1409 C1405 1.429 . S
C1409 C1410 1.523 . S
C1410 C1394 1.368 . S
C1410 C1406 1.368 . S
C1410 C1409 1.523 . S
H1411 C1386 0.950 . S
H1412 C1388 0.950 . S
H1413 C1389 0.949 . S
H1414 C1391 0.950 . S
H1415 C1393 0.950 . S
C1416 C1417 1.349 1_565 S
C1416 C1418 1.327 . S
C1416 H1441 0.950 1_565 S
C1417 C1416 1.349 1_545 S
C1417 C1433 1.349 1_545 S
C1418 C1416 1.327 . S
C1418 C1437 1.429 . S
C1418 H1442 0.950 . S
C1419 C1436 1.574 . S
C1419 C1438 1.368 . S
C1419 H1443 0.949 . S
H1420 C1424 0.949 . S
C1421 C1422 1.349 . S
C1421 C1423 1.327 . S
C1421 H1444 0.950 . S
C1422 C1421 1.349 . S
C1422 C1434 1.349 . S
C1423 C1421 1.327 . S
C1423 C1439 1.429 . S
C1423 H1445 0.950 . S
C1424 H1420 0.949 . S
C1424 C1432 1.574 . S
C1424 C1440 1.368 . S
H1425 C1433 0.950 . S
H1426 C1431 0.950 . S
H1427 C1432 0.949 . S
H1428 C1434 0.950 . S
H1429 C1435 0.950 . S
H1430 C1436 0.949 . S
C1431 H1426 0.950 . S
C1431 C1433 1.327 . S
C1431 C1437 1.429 . S
C1432 C1424 1.574 . S
C1432 H1427 0.949 . S
C1432 C1438 1.368 . S
C1433 C1417 1.349 1_565 S
C1433 H1425 0.950 . S
C1433 C1431 1.327 . S
C1434 C1422 1.349 . S
C1434 H1428 0.950 . S
C1434 C1435 1.327 . S
C1435 H1429 0.950 . S
C1435 C1434 1.327 . S
C1435 C1439 1.429 . S
C1436 C1419 1.574 . S
C1436 H1430 0.949 . S
C1436 C1440 1.368 . S
C1437 C1418 1.429 . S
C1437 C1431 1.429 . S
C1437 C1438 1.523 . S
C1438 C1419 1.368 . S
C1438 C1432 1.368 . S
C1438 C1437 1.523 . S
C1439 C1423 1.429 . S
C1439 C1435 1.429 . S
C1439 C1440 1.523 . S
C1440 C1424 1.368 . S
C1440 C1436 1.368 . S
C1440 C1439 1.523 . S
H1441 C1416 0.950 1_545 S
H1442 C1418 0.950 . S
H1443 C1419 0.949 . S
H1444 C1421 0.950 . S
H1445 C1423 0.950 . S
C1446 C1447 1.349 . S
C1446 C1448 1.327 . S
C1446 H1471 0.950 . S
C1447 C1446 1.349 . S
C1447 C1463 1.349 . S
C1448 C1446 1.327 . S
C1448 C1467 1.429 . S
C1448 H1472 0.950 . S
C1449 C1466 1.574 . S
C1449 C1468 1.368 . S
C1449 H1473 0.949 . S
H1450 C1454 0.949 . S
C1451 C1452 1.349 . S
C1451 C1453 1.327 . S
C1451 H1474 0.950 . S
C1452 C1451 1.349 . S
C1452 C1464 1.349 . S
C1453 C1451 1.327 . S
C1453 C1469 1.429 . S
C1453 H1475 0.950 . S
C1454 H1450 0.949 . S
C1454 C1462 1.574 . S
C1454 C1470 1.368 . S
H1455 C1463 0.950 . S
H1456 C1461 0.950 . S
H1457 C1462 0.949 . S
H1458 C1464 0.950 . S
H1459 C1465 0.950 . S
H1460 C1466 0.949 . S
C1461 H1456 0.950 . S
C1461 C1463 1.327 . S
C1461 C1467 1.429 . S
C1462 C1454 1.574 . S
C1462 H1457 0.949 . S
C1462 C1468 1.368 . S
C1463 C1447 1.349 . S
C1463 H1455 0.950 . S
C1463 C1461 1.327 . S
C1464 C1452 1.349 . S
C1464 H1458 0.950 . S
C1464 C1465 1.327 . S
C1465 H1459 0.950 . S
C1465 C1464 1.327 . S
C1465 C1469 1.429 . S
C1466 C1449 1.574 . S
C1466 H1460 0.949 . S
C1466 C1470 1.368 . S
C1467 C1448 1.429 . S
C1467 C1461 1.429 . S
C1467 C1468 1.523 . S
C1468 C1449 1.368 . S
C1468 C1462 1.368 . S
C1468 C1467 1.523 . S
C1469 C1453 1.429 . S
C1469 C1465 1.429 . S
C1469 C1470 1.523 . S
C1470 C1454 1.368 . S
C1470 C1466 1.368 . S
C1470 C1469 1.523 . S
H1471 C1446 0.950 . S
H1472 C1448 0.950 . S
H1473 C1449 0.949 . S
H1474 C1451 0.950 . S
H1475 C1453 0.950 . S
C1476 C1477 1.349 1_565 S
C1476 C1478 1.327 . S
C1476 H1501 0.950 . S
C1477 C1476 1.349 1_545 S
C1477 C1493 1.349 1_545 S
C1478 C1476 1.327 . S
C1478 C1497 1.429 . S
C1478 H1502 0.950 . S
C1479 C1496 1.574 . S
C1479 C1498 1.368 . S
C1479 H1503 0.949 . S
H1480 C1484 0.949 . S
C1481 C1482 1.349 . S
C1481 C1483 1.327 . S
C1481 H1504 0.950 . S
C1482 C1481 1.349 . S
C1482 C1494 1.349 . S
C1483 C1481 1.327 . S
C1483 C1499 1.429 . S
C1483 H1505 0.950 . S
C1484 H1480 0.949 . S
C1484 C1492 1.574 . S
C1484 C1500 1.368 . S
H1485 C1493 0.950 1_545 S
H1486 C1491 0.950 . S
H1487 C1492 0.949 . S
H1488 C1494 0.950 . S
H1489 C1495 0.950 . S
H1490 C1496 0.949 . S
C1491 H1486 0.950 . S
C1491 C1493 1.327 . S
C1491 C1497 1.429 . S
C1492 C1484 1.574 . S
C1492 H1487 0.949 . S
C1492 C1498 1.368 . S
C1493 C1477 1.349 1_565 S
C1493 H1485 0.950 1_565 S
C1493 C1491 1.327 . S
C1494 C1482 1.349 . S
C1494 H1488 0.950 . S
C1494 C1495 1.327 . S
C1495 H1489 0.950 . S
C1495 C1494 1.327 . S
C1495 C1499 1.429 . S
C1496 C1479 1.574 . S
C1496 H1490 0.949 . S
C1496 C1500 1.368 . S
C1497 C1478 1.429 . S
C1497 C1491 1.429 . S
C1497 C1498 1.523 . S
C1498 C1479 1.368 . S
C1498 C1492 1.368 . S
C1498 C1497 1.523 . S
C1499 C1483 1.429 . S
C1499 C1495 1.429 . S
C1499 C1500 1.523 . S
C1500 C1484 1.368 . S
C1500 C1496 1.368 . S
C1500 C1499 1.523 . S
H1501 C1476 0.950 . S
H1502 C1478 0.950 . S
H1503 C1479 0.949 . S
H1504 C1481 0.950 . S
H1505 C1483 0.950 . S
C1506 C1507 1.349 1_545 S
C1506 C1508 1.327 . S
C1506 H1531 0.950 . S
C1507 C1506 1.349 1_565 S
C1507 C1523 1.349 1_565 S
C1508 C1506 1.327 . S
C1508 C1527 1.429 . S
C1508 H1532 0.950 . S
C1509 C1526 1.574 . S
C1509 C1528 1.368 . S
C1509 H1533 0.949 . S
H1510 C1514 0.949 . S
C1511 C1512 1.349 . S
C1511 C1513 1.327 . S
C1511 H1534 0.950 . S
C1512 C1511 1.349 . S
C1512 C1524 1.349 . S
C1513 C1511 1.327 . S
C1513 C1529 1.429 . S
C1513 H1535 0.950 . S
C1514 H1510 0.949 . S
C1514 C1522 1.574 . S
C1514 C1530 1.368 . S
H1515 C1523 0.950 1_565 S
H1516 C1521 0.950 . S
H1517 C1522 0.949 . S
H1518 C1524 0.950 . S
H1519 C1525 0.950 . S
H1520 C1526 0.949 . S
C1521 H1516 0.950 . S
C1521 C1523 1.327 . S
C1521 C1527 1.429 . S
C1522 C1514 1.574 . S
C1522 H1517 0.949 . S
C1522 C1528 1.368 . S
C1523 C1507 1.349 1_545 S
C1523 H1515 0.950 1_545 S
C1523 C1521 1.327 . S
C1524 C1512 1.349 . S
C1524 H1518 0.950 . S
C1524 C1525 1.327 . S
C1525 H1519 0.950 . S
C1525 C1524 1.327 . S
C1525 C1529 1.429 . S
C1526 C1509 1.574 . S
C1526 H1520 0.949 . S
C1526 C1530 1.368 . S
C1527 C1508 1.429 . S
C1527 C1521 1.429 . S
C1527 C1528 1.523 . S
C1528 C1509 1.368 . S
C1528 C1522 1.368 . S
C1528 C1527 1.523 . S
C1529 C1513 1.429 . S
C1529 C1525 1.429 . S
C1529 C1530 1.523 . S
C1530 C1514 1.368 . S
C1530 C1526 1.368 . S
C1530 C1529 1.523 . S
H1531 C1506 0.950 . S
H1532 C1508 0.950 . S
H1533 C1509 0.949 . S
H1534 C1511 0.950 . S
H1535 C1513 0.950 . S
C1536 C1537 1.349 . S
C1536 C1538 1.327 . S
C1536 H1561 0.950 . S
C1537 C1536 1.349 . S
C1537 C1553 1.349 . S
C1538 C1536 1.327 . S
C1538 C1557 1.429 . S
C1538 H1562 0.950 . S
C1539 C1556 1.574 1_556 S
C1539 C1558 1.368 1_455 S
C1539 H1563 0.949 . S
H1540 C1544 0.949 . S
C1541 C1542 1.349 . S
C1541 C1543 1.327 . S
C1541 H1564 0.950 . S
C1542 C1541 1.349 . S
C1542 C1554 1.349 . S
C1543 C1541 1.327 . S
C1543 C1559 1.429 . S
C1543 H1565 0.950 . S
C1544 H1540 0.949 . S
C1544 C1552 1.574 1_554 S
C1544 C1560 1.368 1_655 S
H1545 C1553 0.950 . S
H1546 C1551 0.950 . S
H1547 C1552 0.949 . S
H1548 C1554 0.950 . S
H1549 C1555 0.950 . S
H1550 C1556 0.949 . S
C1551 H1546 0.950 . S
C1551 C1553 1.327 . S
C1551 C1557 1.429 . S
C1552 C1544 1.574 1_556 S
C1552 H1547 0.949 . S
C1552 C1558 1.368 . S
C1553 C1537 1.349 . S
C1553 H1545 0.950 . S
C1553 C1551 1.327 . S
C1554 C1542 1.349 . S
C1554 H1548 0.950 . S
C1554 C1555 1.327 . S
C1555 H1549 0.950 . S
C1555 C1554 1.327 . S
C1555 C1559 1.429 . S
C1556 C1539 1.574 1_554 S
C1556 H1550 0.949 . S
C1556 C1560 1.368 . S
C1557 C1538 1.429 . S
C1557 C1551 1.429 . S
C1557 C1558 1.523 . S
C1558 C1539 1.368 1_655 S
C1558 C1552 1.368 . S
C1558 C1557 1.523 . S
C1559 C1543 1.429 . S
C1559 C1555 1.429 . S
C1559 C1560 1.523 . S
C1560 C1544 1.368 1_455 S
C1560 C1556 1.368 . S
C1560 C1559 1.523 . S
H1561 C1536 0.950 . S
H1562 C1538 0.950 . S
H1563 C1539 0.949 . S
H1564 C1541 0.950 . S
H1565 C1543 0.950 . S
C1566 C1567 1.349 . S
C1566 C1568 1.327 . S
C1566 H1591 0.950 . S
C1567 C1566 1.349 . S
C1567 C1583 1.349 . S
C1568 C1566 1.327 . S
C1568 C1587 1.429 . S
C1568 H1592 0.950 . S
C1569 C1586 1.574 . S
C1569 C1588 1.368 . S
C1569 H1593 0.949 . S
H1570 C1574 0.949 . S
C1571 C1572 1.349 . S
C1571 C1573 1.327 . S
C1571 H1594 0.950 . S
C1572 C1571 1.349 . S
C1572 C1584 1.349 . S
C1573 C1571 1.327 . S
C1573 C1589 1.429 . S
C1573 H1595 0.950 . S
C1574 H1570 0.949 . S
C1574 C1582 1.574 . S
C1574 C1590 1.368 . S
H1575 C1583 0.950 . S
H1576 C1581 0.950 . S
H1577 C1582 0.949 . S
H1578 C1584 0.950 . S
H1579 C1585 0.950 . S
H1580 C1586 0.949 . S
C1581 H1576 0.950 . S
C1581 C1583 1.327 . S
C1581 C1587 1.429 . S
C1582 C1574 1.574 . S
C1582 H1577 0.949 . S
C1582 C1588 1.368 . S
C1583 C1567 1.349 . S
C1583 H1575 0.950 . S
C1583 C1581 1.327 . S
C1584 C1572 1.349 . S
C1584 H1578 0.950 . S
C1584 C1585 1.327 . S
C1585 H1579 0.950 . S
C1585 C1584 1.327 . S
C1585 C1589 1.429 . S
C1586 C1569 1.574 . S
C1586 H1580 0.949 . S
C1586 C1590 1.368 . S
C1587 C1568 1.429 . S
C1587 C1581 1.429 . S
C1587 C1588 1.523 . S
C1588 C1569 1.368 . S
C1588 C1582 1.368 . S
C1588 C1587 1.523 . S
C1589 C1573 1.429 . S
C1589 C1585 1.429 . S
C1589 C1590 1.523 . S
C1590 C1574 1.368 . S
C1590 C1586 1.368 . S
C1590 C1589 1.523 . S
H1591 C1566 0.950 . S
H1592 C1568 0.950 . S
H1593 C1569 0.949 . S
H1594 C1571 0.950 . S
H1595 C1573 0.950 . S
C1596 C1597 1.349 . S
C1596 C1598 1.327 . S
C1596 H1621 0.950 . S
C1597 C1596 1.349 . S
C1597 C1613 1.349 . S
C1598 C1596 1.327 . S
C1598 C1617 1.429 . S
C1598 H1622 0.950 . S
C1599 C1616 1.574 1_556 S
C1599 C1618 1.368 . S
C1599 H1623 0.949 . S
H1600 C1604 0.949 . S
C1601 C1602 1.349 . S
C1601 C1603 1.327 . S
C1601 H1624 0.950 . S
C1602 C1601 1.349 . S
C1602 C1614 1.349 . S
C1603 C1601 1.327 . S
C1603 C1619 1.429 . S
C1603 H1625 0.950 . S
C1604 H1600 0.949 . S
C1604 C1612 1.574 1_554 S
C1604 C1620 1.368 . S
H1605 C1613 0.950 . S
H1606 C1611 0.950 . S
H1607 C1612 0.949 . S
H1608 C1614 0.950 . S
H1609 C1615 0.950 . S
H1610 C1616 0.949 . S
C1611 H1606 0.950 . S
C1611 C1613 1.327 . S
C1611 C1617 1.429 . S
C1612 C1604 1.574 1_556 S
C1612 H1607 0.949 . S
C1612 C1618 1.368 1_655 S
C1613 C1597 1.349 . S
C1613 H1605 0.950 . S
C1613 C1611 1.327 . S
C1614 C1602 1.349 . S
C1614 H1608 0.950 . S
C1614 C1615 1.327 . S
C1615 H1609 0.950 . S
C1615 C1614 1.327 . S
C1615 C1619 1.429 . S
C1616 C1599 1.574 1_554 S
C1616 H1610 0.949 . S
C1616 C1620 1.368 1_455 S
C1617 C1598 1.429 . S
C1617 C1611 1.429 . S
C1617 C1618 1.523 . S
C1618 C1599 1.368 . S
C1618 C1612 1.368 1_455 S
C1618 C1617 1.523 . S
C1619 C1603 1.429 . S
C1619 C1615 1.429 . S
C1619 C1620 1.523 . S
C1620 C1604 1.368 . S
C1620 C1616 1.368 1_655 S
C1620 C1619 1.523 . S
H1621 C1596 0.950 . S
H1622 C1598 0.950 . S
H1623 C1599 0.949 . S
H1624 C1601 0.950 . S
H1625 C1603 0.950 . S
C1626 C1627 1.349 . S
C1626 C1628 1.327 . S
C1626 H1651 0.950 . S
C1627 C1626 1.349 . S
C1627 C1643 1.349 . S
C1628 C1626 1.327 . S
C1628 C1647 1.429 . S
C1628 H1652 0.950 . S
C1629 C1646 1.574 . S
C1629 C1648 1.368 . S
C1629 H1653 0.949 . S
H1630 C1634 0.949 . S
C1631 C1632 1.349 . S
C1631 C1633 1.327 . S
C1631 H1654 0.950 . S
C1632 C1631 1.349 . S
C1632 C1644 1.349 . S
C1633 C1631 1.327 . S
C1633 C1649 1.429 . S
C1633 H1655 0.950 . S
C1634 H1630 0.949 . S
C1634 C1642 1.574 . S
C1634 C1650 1.368 . S
H1635 C1643 0.950 . S
H1636 C1641 0.950 . S
H1637 C1642 0.949 . S
H1638 C1644 0.950 . S
H1639 C1645 0.950 . S
H1640 C1646 0.949 . S
C1641 H1636 0.950 . S
C1641 C1643 1.327 . S
C1641 C1647 1.429 . S
C1642 C1634 1.574 . S
C1642 H1637 0.949 . S
C1642 C1648 1.368 . S
C1643 C1627 1.349 . S
C1643 H1635 0.950 . S
C1643 C1641 1.327 . S
C1644 C1632 1.349 . S
C1644 H1638 0.950 . S
C1644 C1645 1.327 . S
C1645 H1639 0.950 . S
C1645 C1644 1.327 . S
C1645 C1649 1.429 . S
C1646 C1629 1.574 . S
C1646 H1640 0.949 . S
C1646 C1650 1.368 . S
C1647 C1628 1.429 . S
C1647 C1641 1.429 . S
C1647 C1648 1.523 . S
C1648 C1629 1.368 . S
C1648 C1642 1.368 . S
C1648 C1647 1.523 . S
C1649 C1633 1.429 . S
C1649 C1645 1.429 . S
C1649 C1650 1.523 . S
C1650 C1634 1.368 . S
C1650 C1646 1.368 . S
C1650 C1649 1.523 . S
H1651 C1626 0.950 . S
H1652 C1628 0.950 . S
H1653 C1629 0.949 . S
H1654 C1631 0.950 . S
H1655 C1633 0.950 . S
C1656 C1657 1.349 . S
C1656 C1658 1.327 . S
C1656 H1681 0.950 . S
C1657 C1656 1.349 . S
C1657 C1673 1.349 . S
C1658 C1656 1.327 . S
C1658 C1677 1.429 . S
C1658 H1682 0.950 . S
C1659 C1676 1.574 1_655 S
C1659 C1678 1.368 . S
C1659 H1683 0.949 . S
H1660 C1664 0.949 . S
C1661 C1662 1.349 . S
C1661 C1663 1.327 . S
C1661 H1684 0.950 . S
C1662 C1661 1.349 . S
C1662 C1674 1.349 . S
C1663 C1661 1.327 . S
C1663 C1679 1.429 . S
C1663 H1685 0.950 . S
C1664 H1660 0.949 . S
C1664 C1672 1.574 1_455 S
C1664 C1680 1.368 . S
H1665 C1673 0.950 . S
H1666 C1671 0.950 . S
H1667 C1672 0.949 . S
H1668 C1674 0.950 . S
H1669 C1675 0.950 . S
H1670 C1676 0.949 . S
C1671 H1666 0.950 . S
C1671 C1673 1.327 . S
C1671 C1677 1.429 . S
C1672 C1664 1.574 1_655 S
C1672 H1667 0.949 . S
C1672 C1678 1.368 1_545 S
C1673 C1657 1.349 . S
C1673 H1665 0.950 . S
C1673 C1671 1.327 . S
C1674 C1662 1.349 . S
C1674 H1668 0.950 . S
C1674 C1675 1.327 . S
C1675 H1669 0.950 . S
C1675 C1674 1.327 . S
C1675 C1679 1.429 . S
C1676 C1659 1.574 1_455 S
C1676 H1670 0.949 . S
C1676 C1680 1.368 1_565 S
C1677 C1658 1.429 . S
C1677 C1671 1.429 . S
C1677 C1678 1.523 . S
C1678 C1659 1.368 . S
C1678 C1672 1.368 1_565 S
C1678 C1677 1.523 . S
C1679 C1663 1.429 . S
C1679 C1675 1.429 . S
C1679 C1680 1.523 . S
C1680 C1664 1.368 . S
C1680 C1676 1.368 1_545 S
C1680 C1679 1.523 . S
H1681 C1656 0.950 . S
H1682 C1658 0.950 . S
H1683 C1659 0.949 . S
H1684 C1661 0.950 . S
H1685 C1663 0.950 . S
C1686 C1687 1.349 . S
C1686 C1688 1.327 . S
C1686 H1711 0.950 . S
C1687 C1686 1.349 . S
C1687 C1703 1.349 . S
C1688 C1686 1.327 . S
C1688 C1707 1.429 . S
C1688 H1712 0.950 . S
C1689 C1706 1.574 . S
C1689 C1708 1.368 . S
C1689 H1713 0.949 . S
H1690 C1694 0.949 . S
C1691 C1692 1.349 . S
C1691 C1693 1.327 . S
C1691 H1714 0.950 . S
C1692 C1691 1.349 . S
C1692 C1704 1.349 . S
C1693 C1691 1.327 . S
C1693 C1709 1.429 . S
C1693 H1715 0.950 . S
C1694 H1690 0.949 . S
C1694 C1702 1.574 . S
C1694 C1710 1.368 . S
H1695 C1703 0.950 . S
H1696 C1701 0.950 . S
H1697 C1702 0.949 . S
H1698 C1704 0.950 . S
H1699 C1705 0.950 . S
H1700 C1706 0.949 . S
C1701 H1696 0.950 . S
C1701 C1703 1.327 . S
C1701 C1707 1.429 . S
C1702 C1694 1.574 . S
C1702 H1697 0.949 . S
C1702 C1708 1.368 . S
C1703 C1687 1.349 . S
C1703 H1695 0.950 . S
C1703 C1701 1.327 . S
C1704 C1692 1.349 . S
C1704 H1698 0.950 . S
C1704 C1705 1.327 . S
C1705 H1699 0.950 . S
C1705 C1704 1.327 . S
C1705 C1709 1.429 . S
C1706 C1689 1.574 . S
C1706 H1700 0.949 . S
C1706 C1710 1.368 . S
C1707 C1688 1.429 . S
C1707 C1701 1.429 . S
C1707 C1708 1.523 . S
C1708 C1689 1.368 . S
C1708 C1702 1.368 . S
C1708 C1707 1.523 . S
C1709 C1693 1.429 . S
C1709 C1705 1.429 . S
C1709 C1710 1.523 . S
C1710 C1694 1.368 . S
C1710 C1706 1.368 . S
C1710 C1709 1.523 . S
H1711 C1686 0.950 . S
H1712 C1688 0.950 . S
H1713 C1689 0.949 . S
H1714 C1691 0.950 . S
H1715 C1693 0.950 . S
C1716 C1717 1.349 . S
C1716 C1718 1.327 . S
C1716 H1741 0.950 . S
C1717 C1716 1.349 . S
C1717 C1733 1.349 . S
C1718 C1716 1.327 . S
C1718 C1737 1.429 . S
C1718 H1742 0.950 . S
C1719 C1736 1.574 1_455 S
C1719 C1738 1.368 . S
C1719 H1743 0.949 . S
H1720 C1724 0.949 . S
C1721 C1722 1.349 . S
C1721 C1723 1.327 . S
C1721 H1744 0.950 . S
C1722 C1721 1.349 . S
C1722 C1734 1.349 . S
C1723 C1721 1.327 . S
C1723 C1739 1.429 . S
C1723 H1745 0.950 . S
C1724 H1720 0.949 . S
C1724 C1732 1.574 1_655 S
C1724 C1740 1.368 . S
H1725 C1733 0.950 . S
H1726 C1731 0.950 . S
H1727 C1732 0.949 . S
H1728 C1734 0.950 . S
H1729 C1735 0.950 . S
H1730 C1736 0.949 . S
C1731 H1726 0.950 . S
C1731 C1733 1.327 . S
C1731 C1737 1.429 . S
C1732 C1724 1.574 1_455 S
C1732 H1727 0.949 . S
C1732 C1738 1.368 1_545 S
C1733 C1717 1.349 . S
C1733 H1725 0.950 . S
C1733 C1731 1.327 . S
C1734 C1722 1.349 . S
C1734 H1728 0.950 . S
C1734 C1735 1.327 . S
C1735 H1729 0.950 . S
C1735 C1734 1.327 . S
C1735 C1739 1.429 . S
C1736 C1719 1.574 1_655 S
C1736 H1730 0.949 . S
C1736 C1740 1.368 1_565 S
C1737 C1718 1.429 . S
C1737 C1731 1.429 . S
C1737 C1738 1.523 . S
C1738 C1719 1.368 . S
C1738 C1732 1.368 1_565 S
C1738 C1737 1.523 . S
C1739 C1723 1.429 . S
C1739 C1735 1.429 . S
C1739 C1740 1.523 . S
C1740 C1724 1.368 . S
C1740 C1736 1.368 1_545 S
C1740 C1739 1.523 . S
H1741 C1716 0.950 . S
H1742 C1718 0.950 . S
H1743 C1719 0.949 . S
H1744 C1721 0.950 . S
H1745 C1723 0.950 . S
C1746 C1747 1.349 . S
C1746 C1748 1.327 . S
C1746 H1771 0.950 . S
C1747 C1746 1.349 . S
C1747 C1763 1.349 . S
C1748 C1746 1.327 . S
C1748 C1767 1.429 . S
C1748 H1772 0.950 . S
C1749 C1766 1.574 . S
C1749 C1768 1.368 . S
C1749 H1773 0.949 . S
H1750 C1754 0.949 . S
C1751 C1752 1.349 . S
C1751 C1753 1.327 . S
C1751 H1774 0.950 . S
C1752 C1751 1.349 . S
C1752 C1764 1.349 . S
C1753 C1751 1.327 . S
C1753 C1769 1.429 . S
C1753 H1775 0.950 . S
C1754 H1750 0.949 . S
C1754 C1762 1.574 . S
C1754 C1770 1.368 . S
H1755 C1763 0.950 . S
H1756 C1761 0.950 . S
H1757 C1762 0.949 . S
H1758 C1764 0.950 . S
H1759 C1765 0.950 . S
H1760 C1766 0.949 . S
C1761 H1756 0.950 . S
C1761 C1763 1.327 . S
C1761 C1767 1.429 . S
C1762 C1754 1.574 . S
C1762 H1757 0.949 . S
C1762 C1768 1.368 . S
C1763 C1747 1.349 . S
C1763 H1755 0.950 . S
C1763 C1761 1.327 . S
C1764 C1752 1.349 . S
C1764 H1758 0.950 . S
C1764 C1765 1.327 . S
C1765 H1759 0.950 . S
C1765 C1764 1.327 . S
C1765 C1769 1.429 . S
C1766 C1749 1.574 . S
C1766 H1760 0.949 . S
C1766 C1770 1.368 . S
C1767 C1748 1.429 . S
C1767 C1761 1.429 . S
C1767 C1768 1.523 . S
C1768 C1749 1.368 . S
C1768 C1762 1.368 . S
C1768 C1767 1.523 . S
C1769 C1753 1.429 . S
C1769 C1765 1.429 . S
C1769 C1770 1.523 . S
C1770 C1754 1.368 . S
C1770 C1766 1.368 . S
C1770 C1769 1.523 . S
H1771 C1746 0.950 . S
H1772 C1748 0.950 . S
H1773 C1749 0.949 . S
H1774 C1751 0.950 . S
H1775 C1753 0.950 . S
C1776 C1777 1.349 . S
C1776 C1778 1.327 . S
C1776 H1801 0.950 . S
C1777 C1776 1.349 . S
C1777 C1793 1.349 . S
C1778 C1776 1.327 . S
C1778 C1797 1.429 . S
C1778 H1802 0.950 . S
C1779 C1796 1.574 1_545 S
C1779 C1798 1.368 1_556 S
C1779 H1803 0.949 . S
H1780 C1784 0.949 . S
C1781 C1782 1.349 . S
C1781 C1783 1.327 . S
C1781 H1804 0.950 . S
C1782 C1781 1.349 . S
C1782 C1794 1.349 . S
C1783 C1781 1.327 . S
C1783 C1799 1.429 . S
C1783 H1805 0.950 . S
C1784 H1780 0.949 . S
C1784 C1792 1.574 1_565 S
C1784 C1800 1.368 1_554 S
H1785 C1793 0.950 . S
H1786 C1791 0.984 . S
H1787 C1792 0.949 . S
H1788 C1794 0.950 . S
H1789 C1795 0.984 . S
H1790 C1796 0.949 . S
C1791 H1786 0.984 . S
C1791 C1793 1.327 . S
C1791 C1797 1.429 . S
C1792 C1784 1.574 1_545 S
C1792 H1787 0.949 . S
C1792 C1798 1.368 . S
C1793 C1777 1.349 . S
C1793 H1785 0.950 . S
C1793 C1791 1.327 . S
C1794 C1782 1.349 . S
C1794 H1788 0.950 . S
C1794 C1795 1.327 . S
C1795 H1789 0.984 . S
C1795 C1794 1.327 . S
C1795 C1799 1.429 . S
C1796 C1779 1.574 1_565 S
C1796 H1790 0.949 . S
C1796 C1800 1.368 . S
C1797 C1778 1.429 . S
C1797 C1791 1.429 . S
C1797 C1798 1.523 . S
C1798 C1779 1.368 1_554 S
C1798 C1792 1.368 . S
C1798 C1797 1.523 . S
C1799 C1783 1.429 . S
C1799 C1795 1.429 . S
C1799 C1800 1.523 . S
C1800 C1784 1.368 1_556 S
C1800 C1796 1.368 . S
C1800 C1799 1.523 . S
H1801 C1776 0.950 . S
H1802 C1778 0.950 . S
H1803 C1779 0.949 . S
H1804 C1781 0.950 . S
H1805 C1783 0.950 . S
C1806 C1807 1.349 . S
C1806 C1808 1.327 . S
C1806 H1831 0.950 . S
C1807 C1806 1.349 . S
C1807 C1823 1.349 . S
C1808 C1806 1.327 . S
C1808 C1827 1.429 . S
C1808 H1832 0.950 . S
C1809 C1826 1.574 . S
C1809 C1828 1.368 . S
C1809 H1833 0.949 . S
H1810 C1814 0.949 . S
C1811 C1812 1.349 . S
C1811 C1813 1.327 . S
C1811 H1834 0.950 . S
C1812 C1811 1.349 . S
C1812 C1824 1.349 . S
C1813 C1811 1.327 . S
C1813 C1829 1.429 . S
C1813 H1835 0.950 . S
C1814 H1810 0.949 . S
C1814 C1822 1.574 . S
C1814 C1830 1.368 . S
H1815 C1823 0.950 . S
H1816 C1821 0.950 . S
H1817 C1822 0.949 . S
H1818 C1824 0.950 . S
H1819 C1825 0.950 . S
H1820 C1826 0.949 . S
C1821 H1816 0.950 . S
C1821 C1823 1.327 . S
C1821 C1827 1.429 . S
C1822 C1814 1.574 . S
C1822 H1817 0.949 . S
C1822 C1828 1.368 . S
C1823 C1807 1.349 . S
C1823 H1815 0.950 . S
C1823 C1821 1.327 . S
C1824 C1812 1.349 . S
C1824 H1818 0.950 . S
C1824 C1825 1.327 . S
C1825 H1819 0.950 . S
C1825 C1824 1.327 . S
C1825 C1829 1.429 . S
C1826 C1809 1.574 . S
C1826 H1820 0.949 . S
C1826 C1830 1.368 . S
C1827 C1808 1.429 . S
C1827 C1821 1.429 . S
C1827 C1828 1.523 . S
C1828 C1809 1.368 . S
C1828 C1822 1.368 . S
C1828 C1827 1.523 . S
C1829 C1813 1.429 . S
C1829 C1825 1.429 . S
C1829 C1830 1.523 . S
C1830 C1814 1.368 . S
C1830 C1826 1.368 . S
C1830 C1829 1.523 . S
H1831 C1806 0.950 . S
H1832 C1808 0.950 . S
H1833 C1809 0.949 . S
H1834 C1811 0.950 . S
H1835 C1813 0.950 . S
C1836 C1837 1.349 . S
C1836 C1838 1.327 . S
C1836 H1861 0.950 . S
C1837 C1836 1.349 . S
C1837 C1853 1.349 . S
C1838 C1836 1.327 . S
C1838 C1857 1.429 . S
C1838 H1862 0.950 1_556 S
C1839 C1856 1.574 1_545 S
C1839 C1858 1.368 . S
C1839 H1863 0.949 . S
H1840 C1844 0.949 . S
C1841 C1842 1.349 . S
C1841 C1843 1.327 . S
C1841 H1864 0.950 . S
C1842 C1841 1.349 . S
C1842 C1854 1.349 . S
C1843 C1841 1.327 . S
C1843 C1859 1.429 . S
C1843 H1865 0.950 1_554 S
C1844 H1840 0.949 . S
C1844 C1852 1.574 1_565 S
C1844 C1860 1.368 . S
H1845 C1853 0.950 . S
H1846 C1851 0.950 . S
H1847 C1852 0.949 . S
H1848 C1854 0.950 . S
H1849 C1855 0.950 . S
H1850 C1856 0.949 . S
C1851 H1846 0.950 . S
C1851 C1853 1.327 . S
C1851 C1857 1.429 . S
C1852 C1844 1.574 1_545 S
C1852 H1847 0.949 . S
C1852 C1858 1.368 1_554 S
C1853 C1837 1.349 . S
C1853 H1845 0.950 . S
C1853 C1851 1.327 . S
C1854 C1842 1.349 . S
C1854 H1848 0.950 . S
C1854 C1855 1.327 . S
C1855 H1849 0.950 . S
C1855 C1854 1.327 . S
C1855 C1859 1.429 . S
C1856 C1839 1.574 1_565 S
C1856 H1850 0.949 . S
C1856 C1860 1.368 1_556 S
C1857 C1838 1.429 . S
C1857 C1851 1.429 . S
C1857 C1858 1.523 . S
C1858 C1839 1.368 . S
C1858 C1852 1.368 1_556 S
C1858 C1857 1.523 . S
C1859 C1843 1.429 . S
C1859 C1855 1.429 . S
C1859 C1860 1.523 . S
C1860 C1844 1.368 . S
C1860 C1856 1.368 1_554 S
C1860 C1859 1.523 . S
H1861 C1836 0.950 . S
H1862 C1838 0.950 1_554 S
H1863 C1839 0.949 . S
H1864 C1841 0.950 . S
H1865 C1843 0.950 1_556 S
C1866 C1867 1.349 . S
C1866 C1868 1.327 . S
C1866 H1891 0.950 . S
C1867 C1866 1.349 . S
C1867 C1883 1.349 . S
C1868 C1866 1.327 . S
C1868 C1887 1.429 . S
C1868 H1892 0.950 . S
C1869 C1886 1.574 . S
C1869 C1888 1.368 . S
C1869 H1893 0.949 . S
H1870 C1874 0.949 . S
C1871 C1872 1.349 . S
C1871 C1873 1.327 . S
C1871 H1894 0.950 . S
C1872 C1871 1.349 . S
C1872 C1884 1.349 . S
C1873 C1871 1.327 . S
C1873 C1889 1.429 . S
C1873 H1895 0.950 . S
C1874 H1870 0.949 . S
C1874 C1882 1.574 . S
C1874 C1890 1.368 . S
H1875 C1883 0.950 . S
H1876 C1881 0.950 . S
H1877 C1882 0.949 . S
H1878 C1884 0.950 . S
H1879 C1885 0.950 . S
H1880 C1886 0.949 . S
C1881 H1876 0.950 . S
C1881 C1883 1.327 . S
C1881 C1887 1.429 . S
C1882 C1874 1.574 . S
C1882 H1877 0.949 . S
C1882 C1888 1.368 . S
C1883 C1867 1.349 . S
C1883 H1875 0.950 . S
C1883 C1881 1.327 . S
C1884 C1872 1.349 . S
C1884 H1878 0.950 . S
C1884 C1885 1.327 . S
C1885 H1879 0.950 . S
C1885 C1884 1.327 . S
C1885 C1889 1.429 . S
C1886 C1869 1.574 . S
C1886 H1880 0.949 . S
C1886 C1890 1.368 . S
C1887 C1868 1.429 . S
C1887 C1881 1.429 . S
C1887 C1888 1.523 . S
C1888 C1869 1.368 . S
C1888 C1882 1.368 . S
C1888 C1887 1.523 . S
C1889 C1873 1.429 . S
C1889 C1885 1.429 . S
C1889 C1890 1.523 . S
C1890 C1874 1.368 . S
C1890 C1886 1.368 . S
C1890 C1889 1.523 . S
H1891 C1866 0.950 . S
H1892 C1868 0.950 . S
H1893 C1869 0.949 . S
H1894 C1871 0.950 . S
H1895 C1873 0.950 . S
C1896 C1897 1.349 . S
C1896 C1898 1.327 . S
C1896 H1921 0.950 . S
C1897 C1896 1.349 . S
C1897 C1913 1.349 . S
C1898 C1896 1.327 . S
C1898 C1917 1.429 . S
C1898 H1922 0.950 . S
C1899 C1916 1.574 . S
C1899 C1918 1.368 . S
C1899 H1923 0.949 . S
H1900 C1904 0.949 . S
C1901 C1902 1.349 . S
C1901 C1903 1.327 . S
C1901 H1924 0.950 . S
C1902 C1901 1.349 . S
C1902 C1914 1.349 . S
C1903 C1901 1.327 . S
C1903 C1919 1.429 . S
C1903 H1925 0.950 . S
C1904 H1900 0.949 . S
C1904 C1912 1.574 . S
C1904 C1920 1.368 . S
H1905 C1913 0.950 . S
H1906 C1911 0.950 . S
H1907 C1912 0.949 . S
H1908 C1914 0.950 . S
H1909 C1915 0.950 . S
H1910 C1916 0.949 . S
C1911 H1906 0.950 . S
C1911 C1913 1.327 . S
C1911 C1917 1.429 . S
C1912 C1904 1.574 . S
C1912 H1907 0.949 . S
C1912 C1918 1.368 . S
C1913 C1897 1.349 . S
C1913 H1905 0.950 . S
C1913 C1911 1.327 . S
C1914 C1902 1.349 . S
C1914 H1908 0.950 . S
C1914 C1915 1.327 . S
C1915 H1909 0.950 . S
C1915 C1914 1.327 . S
C1915 C1919 1.429 . S
C1916 C1899 1.574 . S
C1916 H1910 0.949 . S
C1916 C1920 1.368 . S
C1917 C1898 1.429 . S
C1917 C1911 1.429 . S
C1917 C1918 1.523 . S
C1918 C1899 1.368 . S
C1918 C1912 1.368 . S
C1918 C1917 1.523 . S
C1919 C1903 1.429 . S
C1919 C1915 1.429 . S
C1919 C1920 1.523 . S
C1920 C1904 1.368 . S
C1920 C1916 1.368 . S
C1920 C1919 1.523 . S
H1921 C1896 0.950 . S
H1922 C1898 0.950 . S
H1923 C1899 0.949 . S
H1924 C1901 0.950 . S
H1925 C1903 0.950 . S
C1926 C1927 1.349 . S
C1926 C1928 1.327 . S
C1926 H1951 0.950 . S
C1927 C1926 1.349 . S
C1927 C1943 1.349 . S
C1928 C1926 1.327 . S
C1928 C1947 1.429 . S
C1928 H1952 0.950 . S
C1929 C1946 1.574 . S
C1929 C1948 1.368 . S
C1929 H1953 0.949 . S
H1930 C1934 0.949 . S
C1931 C1932 1.349 . S
C1931 C1933 1.327 . S
C1931 H1954 0.950 . S
C1932 C1931 1.349 . S
C1932 C1944 1.349 . S
C1933 C1931 1.327 . S
C1933 C1949 1.429 . S
C1933 H1955 0.950 . S
C1934 H1930 0.949 . S
C1934 C1942 1.574 . S
C1934 C1950 1.368 . S
H1935 C1943 0.950 . S
H1936 C1941 0.950 . S
H1937 C1942 0.949 . S
H1938 C1944 0.950 . S
H1939 C1945 0.950 . S
H1940 C1946 0.949 . S
C1941 H1936 0.950 . S
C1941 C1943 1.327 . S
C1941 C1947 1.429 . S
C1942 C1934 1.574 . S
C1942 H1937 0.949 . S
C1942 C1948 1.368 . S
C1943 C1927 1.349 . S
C1943 H1935 0.950 . S
C1943 C1941 1.327 . S
C1944 C1932 1.349 . S
C1944 H1938 0.950 . S
C1944 C1945 1.327 . S
C1945 H1939 0.950 . S
C1945 C1944 1.327 . S
C1945 C1949 1.429 . S
C1946 C1929 1.574 . S
C1946 H1940 0.949 . S
C1946 C1950 1.368 . S
C1947 C1928 1.429 . S
C1947 C1941 1.429 . S
C1947 C1948 1.523 . S
C1948 C1929 1.368 . S
C1948 C1942 1.368 . S
C1948 C1947 1.523 . S
C1949 C1933 1.429 . S
C1949 C1945 1.429 . S
C1949 C1950 1.523 . S
C1950 C1934 1.368 . S
C1950 C1946 1.368 . S
C1950 C1949 1.523 . S
H1951 C1926 0.950 . S
H1952 C1928 0.950 . S
H1953 C1929 0.949 . S
H1954 C1931 0.950 . S
H1955 C1933 0.950 . S
C1956 C1957 1.349 . S
C1956 C1958 1.327 . S
C1956 H1981 0.950 . S
C1957 C1956 1.349 . S
C1957 C1973 1.349 . S
C1958 C1956 1.327 . S
C1958 C1977 1.429 . S
C1958 H1982 0.950 . S
C1959 C1976 1.574 . S
C1959 C1978 1.368 . S
C1959 H1983 0.949 . S
H1960 C1964 0.949 . S
C1961 C1962 1.349 . S
C1961 C1963 1.327 . S
C1961 H1984 0.950 . S
C1962 C1961 1.349 . S
C1962 C1974 1.349 . S
C1963 C1961 1.327 . S
C1963 C1979 1.429 . S
C1963 H1985 0.950 . S
C1964 H1960 0.949 . S
C1964 C1972 1.574 . S
C1964 C1980 1.368 . S
H1965 C1973 0.950 . S
H1966 C1971 0.950 . S
H1967 C1972 0.949 . S
H1968 C1974 0.950 . S
H1969 C1975 0.950 . S
H1970 C1976 0.949 . S
C1971 H1966 0.950 . S
C1971 C1973 1.327 . S
C1971 C1977 1.429 . S
C1972 C1964 1.574 . S
C1972 H1967 0.949 . S
C1972 C1978 1.368 . S
C1973 C1957 1.349 . S
C1973 H1965 0.950 . S
C1973 C1971 1.327 . S
C1974 C1962 1.349 . S
C1974 H1968 0.950 . S
C1974 C1975 1.327 . S
C1975 H1969 0.950 . S
C1975 C1974 1.327 . S
C1975 C1979 1.429 . S
C1976 C1959 1.574 . S
C1976 H1970 0.949 . S
C1976 C1980 1.368 . S
C1977 C1958 1.429 . S
C1977 C1971 1.429 . S
C1977 C1978 1.523 . S
C1978 C1959 1.368 . S
C1978 C1972 1.368 . S
C1978 C1977 1.523 . S
C1979 C1963 1.429 . S
C1979 C1975 1.429 . S
C1979 C1980 1.523 . S
C1980 C1964 1.368 . S
C1980 C1976 1.368 . S
C1980 C1979 1.523 . S
H1981 C1956 0.950 . S
H1982 C1958 0.950 . S
H1983 C1959 0.949 . S
H1984 C1961 0.950 . S
H1985 C1963 0.950 . S
C1986 C1987 1.349 . S
C1986 C1988 1.327 . S
C1986 H2011 0.950 . S
C1987 C1986 1.349 . S
C1987 C2003 1.349 . S
C1988 C1986 1.327 . S
C1988 C2007 1.429 . S
C1988 H2012 0.950 . S
C1989 C2006 1.574 . S
C1989 C2008 1.368 . S
C1989 H2013 0.949 . S
H1990 C1994 0.949 . S
C1991 C1992 1.349 . S
C1991 C1993 1.327 . S
C1991 H2014 0.950 . S
C1992 C1991 1.349 . S
C1992 C2004 1.349 . S
C1993 C1991 1.327 . S
C1993 C2009 1.429 . S
C1993 H2015 0.950 . S
C1994 H1990 0.949 . S
C1994 C2002 1.574 . S
C1994 C2010 1.368 . S
H1995 C2003 0.950 . S
H1996 C2001 0.950 . S
H1997 C2002 0.949 . S
H1998 C2004 0.950 . S
H1999 C2005 0.950 . S
H2000 C2006 0.949 . S
C2001 H1996 0.950 . S
C2001 C2003 1.327 . S
C2001 C2007 1.429 . S
C2002 C1994 1.574 . S
C2002 H1997 0.949 . S
C2002 C2008 1.368 . S
C2003 C1987 1.349 . S
C2003 H1995 0.950 . S
C2003 C2001 1.327 . S
C2004 C1992 1.349 . S
C2004 H1998 0.950 . S
C2004 C2005 1.327 . S
C2005 H1999 0.950 . S
C2005 C2004 1.327 . S
C2005 C2009 1.429 . S
C2006 C1989 1.574 . S
C2006 H2000 0.949 . S
C2006 C2010 1.368 . S
C2007 C1988 1.429 . S
C2007 C2001 1.429 . S
C2007 C2008 1.523 . S
C2008 C1989 1.368 . S
C2008 C2002 1.368 . S
C2008 C2007 1.523 . S
C2009 C1993 1.429 . S
C2009 C2005 1.429 . S
C2009 C2010 1.523 . S
C2010 C1994 1.368 . S
C2010 C2006 1.368 . S
C2010 C2009 1.523 . S
H2011 C1986 0.950 . S
H2012 C1988 0.950 . S
H2013 C1989 0.949 . S
H2014 C1991 0.950 . S
H2015 C1993 0.950 . S
C2016 C2017 1.349 . S
C2016 C2018 1.327 . S
C2016 H2041 0.950 . S
C2017 C2016 1.349 . S
C2017 C2033 1.349 . S
C2018 C2016 1.327 . S
C2018 C2037 1.429 . S
C2018 H2042 0.950 . S
C2019 C2036 1.574 . S
C2019 C2038 1.368 . S
C2019 H2043 0.949 . S
H2020 C2024 0.949 . S
C2021 C2022 1.349 . S
C2021 C2023 1.327 . S
C2021 H2044 0.950 . S
C2022 C2021 1.349 . S
C2022 C2034 1.349 . S
C2023 C2021 1.327 . S
C2023 C2039 1.429 . S
C2023 H2045 0.950 . S
C2024 H2020 0.949 . S
C2024 C2032 1.574 . S
C2024 C2040 1.368 . S
H2025 C2033 0.950 . S
H2026 C2031 0.950 . S
H2027 C2032 0.949 . S
H2028 C2034 0.950 . S
H2029 C2035 0.950 . S
H2030 C2036 0.949 . S
C2031 H2026 0.950 . S
C2031 C2033 1.327 . S
C2031 C2037 1.429 . S
C2032 C2024 1.574 . S
C2032 H2027 0.949 . S
C2032 C2038 1.368 . S
C2033 C2017 1.349 . S
C2033 H2025 0.950 . S
C2033 C2031 1.327 . S
C2034 C2022 1.349 . S
C2034 H2028 0.950 . S
C2034 C2035 1.327 . S
C2035 H2029 0.950 . S
C2035 C2034 1.327 . S
C2035 C2039 1.429 . S
C2036 C2019 1.574 . S
C2036 H2030 0.949 . S
C2036 C2040 1.368 . S
C2037 C2018 1.429 . S
C2037 C2031 1.429 . S
C2037 C2038 1.523 . S
C2038 C2019 1.368 . S
C2038 C2032 1.368 . S
C2038 C2037 1.523 . S
C2039 C2023 1.429 . S
C2039 C2035 1.429 . S
C2039 C2040 1.523 . S
C2040 C2024 1.368 . S
C2040 C2036 1.368 . S
C2040 C2039 1.523 . S
H2041 C2016 0.950 . S
H2042 C2018 0.950 . S
H2043 C2019 0.949 . S
H2044 C2021 0.950 . S
H2045 C2023 0.950 . S
C2046 C2047 1.349 . S
C2046 C2048 1.327 . S
C2046 H2071 0.950 . S
C2047 C2046 1.349 . S
C2047 C2063 1.349 . S
C2048 C2046 1.327 . S
C2048 C2067 1.429 . S
C2048 H2072 0.950 . S
C2049 C2066 1.574 . S
C2049 C2068 1.368 . S
C2049 H2073 0.949 . S
H2050 C2054 0.949 . S
C2051 C2052 1.349 . S
C2051 C2053 1.327 . S
C2051 H2074 0.950 . S
C2052 C2051 1.349 . S
C2052 C2064 1.349 . S
C2053 C2051 1.327 . S
C2053 C2069 1.429 . S
C2053 H2075 0.950 . S
C2054 H2050 0.949 . S
C2054 C2062 1.574 . S
C2054 C2070 1.368 . S
H2055 C2063 0.950 . S
H2056 C2061 0.950 . S
H2057 C2062 0.949 . S
H2058 C2064 0.950 . S
H2059 C2065 0.950 . S
H2060 C2066 0.949 . S
C2061 H2056 0.950 . S
C2061 C2063 1.327 . S
C2061 C2067 1.429 . S
C2062 C2054 1.574 . S
C2062 H2057 0.949 . S
C2062 C2068 1.368 . S
C2063 C2047 1.349 . S
C2063 H2055 0.950 . S
C2063 C2061 1.327 . S
C2064 C2052 1.349 . S
C2064 H2058 0.950 . S
C2064 C2065 1.327 . S
C2065 H2059 0.950 . S
C2065 C2064 1.327 . S
C2065 C2069 1.429 . S
C2066 C2049 1.574 . S
C2066 H2060 0.949 . S
C2066 C2070 1.368 . S
C2067 C2048 1.429 . S
C2067 C2061 1.429 . S
C2067 C2068 1.523 . S
C2068 C2049 1.368 . S
C2068 C2062 1.368 . S
C2068 C2067 1.523 . S
C2069 C2053 1.429 . S
C2069 C2065 1.429 . S
C2069 C2070 1.523 . S
C2070 C2054 1.368 . S
C2070 C2066 1.368 . S
C2070 C2069 1.523 . S
H2071 C2046 0.950 . S
H2072 C2048 0.950 . S
H2073 C2049 0.949 . S
H2074 C2051 0.950 . S
H2075 C2053 0.950 . S
C2076 C2077 1.349 . S
C2076 C2078 1.327 . S
C2076 H2101 0.950 . S
C2077 C2076 1.349 . S
C2077 C2093 1.349 . S
C2078 C2076 1.327 . S
C2078 C2097 1.429 . S
C2078 H2102 0.950 . S
C2079 C2096 1.574 . S
C2079 C2098 1.368 . S
C2079 H2103 0.949 . S
H2080 C2084 0.949 . S
C2081 C2082 1.349 . S
C2081 C2083 1.327 . S
C2081 H2104 0.950 . S
C2082 C2081 1.349 . S
C2082 C2094 1.349 . S
C2083 C2081 1.327 . S
C2083 C2099 1.429 . S
C2083 H2105 0.950 . S
C2084 H2080 0.949 . S
C2084 C2092 1.574 . S
C2084 C2100 1.368 . S
H2085 C2093 0.950 . S
H2086 C2091 0.950 . S
H2087 C2092 0.949 . S
H2088 C2094 0.950 . S
H2089 C2095 0.950 . S
H2090 C2096 0.949 . S
C2091 H2086 0.950 . S
C2091 C2093 1.327 . S
C2091 C2097 1.429 . S
C2092 C2084 1.574 . S
C2092 H2087 0.949 . S
C2092 C2098 1.368 . S
C2093 C2077 1.349 . S
C2093 H2085 0.950 . S
C2093 C2091 1.327 . S
C2094 C2082 1.349 . S
C2094 H2088 0.950 . S
C2094 C2095 1.327 . S
C2095 H2089 0.950 . S
C2095 C2094 1.327 . S
C2095 C2099 1.429 . S
C2096 C2079 1.574 . S
C2096 H2090 0.949 . S
C2096 C2100 1.368 . S
C2097 C2078 1.429 . S
C2097 C2091 1.429 . S
C2097 C2098 1.523 . S
C2098 C2079 1.368 . S
C2098 C2092 1.368 . S
C2098 C2097 1.523 . S
C2099 C2083 1.429 . S
C2099 C2095 1.429 . S
C2099 C2100 1.523 . S
C2100 C2084 1.368 . S
C2100 C2096 1.368 . S
C2100 C2099 1.523 . S
H2101 C2076 0.950 . S
H2102 C2078 0.950 . S
H2103 C2079 0.949 . S
H2104 C2081 0.950 . S
H2105 C2083 0.950 . S
C2106 C2107 1.349 . S
C2106 C2108 1.327 . S
C2106 H2131 0.950 . S
C2107 C2106 1.349 . S
C2107 C2123 1.349 . S
C2108 C2106 1.327 . S
C2108 C2127 1.429 . S
C2108 H2132 0.950 . S
C2109 C2126 1.574 . S
C2109 C2128 1.368 . S
C2109 H2133 0.949 . S
H2110 C2114 0.949 . S
C2111 C2112 1.349 . S
C2111 C2113 1.327 . S
C2111 H2134 0.950 . S
C2112 C2111 1.349 . S
C2112 C2124 1.349 . S
C2113 C2111 1.327 . S
C2113 C2129 1.429 . S
C2113 H2135 0.950 . S
C2114 H2110 0.949 . S
C2114 C2122 1.574 . S
C2114 C2130 1.368 . S
H2115 C2123 0.950 . S
H2116 C2121 0.950 . S
H2117 C2122 0.949 . S
H2118 C2124 0.950 . S
H2119 C2125 0.950 . S
H2120 C2126 0.949 . S
C2121 H2116 0.950 . S
C2121 C2123 1.327 . S
C2121 C2127 1.429 . S
C2122 C2114 1.574 . S
C2122 H2117 0.949 . S
C2122 C2128 1.368 . S
C2123 C2107 1.349 . S
C2123 H2115 0.950 . S
C2123 C2121 1.327 . S
C2124 C2112 1.349 . S
C2124 H2118 0.950 . S
C2124 C2125 1.327 . S
C2125 H2119 0.950 . S
C2125 C2124 1.327 . S
C2125 C2129 1.429 . S
C2126 C2109 1.574 . S
C2126 H2120 0.949 . S
C2126 C2130 1.368 . S
C2127 C2108 1.429 . S
C2127 C2121 1.429 . S
C2127 C2128 1.523 . S
C2128 C2109 1.368 . S
C2128 C2122 1.368 . S
C2128 C2127 1.523 . S
C2129 C2113 1.429 . S
C2129 C2125 1.429 . S
C2129 C2130 1.523 . S
C2130 C2114 1.368 . S
C2130 C2126 1.368 . S
C2130 C2129 1.523 . S
H2131 C2106 0.950 . S
H2132 C2108 0.950 . S
H2133 C2109 0.949 . S
H2134 C2111 0.950 . S
H2135 C2113 0.950 . S
C2136 C2137 1.349 . S
C2136 C2138 1.327 . S
C2136 H2161 0.950 . S
C2137 C2136 1.349 . S
C2137 C2153 1.349 . S
C2138 C2136 1.327 . S
C2138 C2157 1.429 . S
C2138 H2162 0.950 . S
C2139 C2156 1.574 . S
C2139 C2158 1.368 . S
C2139 H2163 0.949 . S
H2140 C2144 0.949 . S
C2141 C2142 1.349 . S
C2141 C2143 1.327 . S
C2141 H2164 0.950 . S
C2142 C2141 1.349 . S
C2142 C2154 1.349 . S
C2143 C2141 1.327 . S
C2143 C2159 1.429 . S
C2143 H2165 0.950 . S
C2144 H2140 0.949 . S
C2144 C2152 1.574 . S
C2144 C2160 1.368 . S
H2145 C2153 0.950 . S
H2146 C2151 0.950 . S
H2147 C2152 0.949 . S
H2148 C2154 0.950 . S
H2149 C2155 0.950 . S
H2150 C2156 0.949 . S
C2151 H2146 0.950 . S
C2151 C2153 1.327 . S
C2151 C2157 1.429 . S
C2152 C2144 1.574 . S
C2152 H2147 0.949 . S
C2152 C2158 1.368 . S
C2153 C2137 1.349 . S
C2153 H2145 0.950 . S
C2153 C2151 1.327 . S
C2154 C2142 1.349 . S
C2154 H2148 0.950 . S
C2154 C2155 1.327 . S
C2155 H2149 0.950 . S
C2155 C2154 1.327 . S
C2155 C2159 1.429 . S
C2156 C2139 1.574 . S
C2156 H2150 0.949 . S
C2156 C2160 1.368 . S
C2157 C2138 1.429 . S
C2157 C2151 1.429 . S
C2157 C2158 1.523 . S
C2158 C2139 1.368 . S
C2158 C2152 1.368 . S
C2158 C2157 1.523 . S
C2159 C2143 1.429 . S
C2159 C2155 1.429 . S
C2159 C2160 1.523 . S
C2160 C2144 1.368 . S
C2160 C2156 1.368 . S
C2160 C2159 1.523 . S
H2161 C2136 0.950 . S
H2162 C2138 0.950 . S
H2163 C2139 0.949 . S
H2164 C2141 0.950 . S
H2165 C2143 0.950 . S
C2166 C2167 1.349 . S
C2166 C2168 1.327 . S
C2166 H2191 0.950 . S
C2167 C2166 1.349 . S
C2167 C2183 1.349 . S
C2168 C2166 1.327 . S
C2168 C2187 1.429 . S
C2168 H2192 0.950 . S
C2169 C2186 1.574 . S
C2169 C2188 1.368 . S
C2169 H2193 0.949 . S
H2170 C2174 0.949 . S
C2171 C2172 1.349 . S
C2171 C2173 1.327 . S
C2171 H2194 0.950 . S
C2172 C2171 1.349 . S
C2172 C2184 1.349 . S
C2173 C2171 1.327 . S
C2173 C2189 1.429 . S
C2173 H2195 0.950 . S
C2174 H2170 0.949 . S
C2174 C2182 1.574 . S
C2174 C2190 1.368 . S
H2175 C2183 0.950 . S
H2176 C2181 0.950 . S
H2177 C2182 0.949 . S
H2178 C2184 0.950 . S
H2179 C2185 0.950 . S
H2180 C2186 0.949 . S
C2181 H2176 0.950 . S
C2181 C2183 1.327 . S
C2181 C2187 1.429 . S
C2182 C2174 1.574 . S
C2182 H2177 0.949 . S
C2182 C2188 1.368 . S
C2183 C2167 1.349 . S
C2183 H2175 0.950 . S
C2183 C2181 1.327 . S
C2184 C2172 1.349 . S
C2184 H2178 0.950 . S
C2184 C2185 1.327 . S
C2185 H2179 0.950 . S
C2185 C2184 1.327 . S
C2185 C2189 1.429 . S
C2186 C2169 1.574 . S
C2186 H2180 0.949 . S
C2186 C2190 1.368 . S
C2187 C2168 1.429 . S
C2187 C2181 1.429 . S
C2187 C2188 1.523 . S
C2188 C2169 1.368 . S
C2188 C2182 1.368 . S
C2188 C2187 1.523 . S
C2189 C2173 1.429 . S
C2189 C2185 1.429 . S
C2189 C2190 1.523 . S
C2190 C2174 1.368 . S
C2190 C2186 1.368 . S
C2190 C2189 1.523 . S
H2191 C2166 0.950 . S
H2192 C2168 0.950 . S
H2193 C2169 0.949 . S
H2194 C2171 0.950 . S
H2195 C2173 0.950 . S
C2196 C2197 1.349 . S
C2196 C2198 1.327 . S
C2196 H2221 0.950 . S
C2197 C2196 1.349 . S
C2197 C2213 1.349 . S
C2198 C2196 1.327 . S
C2198 C2217 1.429 . S
C2198 H2222 0.950 . S
C2199 C2216 1.574 . S
C2199 C2218 1.368 . S
C2199 H2223 0.949 . S
H2200 C2204 0.949 . S
C2201 C2202 1.349 . S
C2201 C2203 1.327 . S
C2201 H2224 0.950 . S
C2202 C2201 1.349 . S
C2202 C2214 1.349 . S
C2203 C2201 1.327 . S
C2203 C2219 1.429 . S
C2203 H2225 0.950 . S
C2204 H2200 0.949 . S
C2204 C2212 1.574 . S
C2204 C2220 1.368 . S
H2205 C2213 0.950 . S
H2206 C2211 0.950 . S
H2207 C2212 0.949 . S
H2208 C2214 0.950 . S
H2209 C2215 0.950 . S
H2210 C2216 0.949 . S
C2211 H2206 0.950 . S
C2211 C2213 1.327 . S
C2211 C2217 1.429 . S
C2212 C2204 1.574 . S
C2212 H2207 0.949 . S
C2212 C2218 1.368 . S
C2213 C2197 1.349 . S
C2213 H2205 0.950 . S
C2213 C2211 1.327 . S
C2214 C2202 1.349 . S
C2214 H2208 0.950 . S
C2214 C2215 1.327 . S
C2215 H2209 0.950 . S
C2215 C2214 1.327 . S
C2215 C2219 1.429 . S
C2216 C2199 1.574 . S
C2216 H2210 0.949 . S
C2216 C2220 1.368 . S
C2217 C2198 1.429 . S
C2217 C2211 1.429 . S
C2217 C2218 1.523 . S
C2218 C2199 1.368 . S
C2218 C2212 1.368 . S
C2218 C2217 1.523 . S
C2219 C2203 1.429 . S
C2219 C2215 1.429 . S
C2219 C2220 1.523 . S
C2220 C2204 1.368 . S
C2220 C2216 1.368 . S
C2220 C2219 1.523 . S
H2221 C2196 0.950 . S
H2222 C2198 0.950 . S
H2223 C2199 0.949 . S
H2224 C2201 0.950 . S
H2225 C2203 0.950 . S
C2226 C2227 1.349 . S
C2226 C2228 1.327 . S
C2226 H2251 0.950 . S
C2227 C2226 1.349 . S
C2227 C2243 1.349 . S
C2228 C2226 1.327 . S
C2228 C2247 1.429 . S
C2228 H2252 0.950 . S
C2229 C2246 1.574 . S
C2229 C2248 1.368 . S
C2229 H2253 0.949 . S
H2230 C2234 0.949 . S
C2231 C2232 1.349 . S
C2231 C2233 1.327 . S
C2231 H2254 0.950 . S
C2232 C2231 1.349 . S
C2232 C2244 1.349 . S
C2233 C2231 1.327 . S
C2233 C2249 1.429 . S
C2233 H2255 0.950 . S
C2234 H2230 0.949 . S
C2234 C2242 1.574 . S
C2234 C2250 1.368 . S
H2235 C2243 0.950 . S
H2236 C2241 0.950 . S
H2237 C2242 0.949 . S
H2238 C2244 0.950 . S
H2239 C2245 0.950 . S
H2240 C2246 0.949 . S
C2241 H2236 0.950 . S
C2241 C2243 1.327 . S
C2241 C2247 1.429 . S
C2242 C2234 1.574 . S
C2242 H2237 0.949 . S
C2242 C2248 1.368 . S
C2243 C2227 1.349 . S
C2243 H2235 0.950 . S
C2243 C2241 1.327 . S
C2244 C2232 1.349 . S
C2244 H2238 0.950 . S
C2244 C2245 1.327 . S
C2245 H2239 0.950 . S
C2245 C2244 1.327 . S
C2245 C2249 1.429 . S
C2246 C2229 1.574 . S
C2246 H2240 0.949 . S
C2246 C2250 1.368 . S
C2247 C2228 1.429 . S
C2247 C2241 1.429 . S
C2247 C2248 1.523 . S
C2248 C2229 1.368 . S
C2248 C2242 1.368 . S
C2248 C2247 1.523 . S
C2249 C2233 1.429 . S
C2249 C2245 1.429 . S
C2249 C2250 1.523 . S
C2250 C2234 1.368 . S
C2250 C2246 1.368 . S
C2250 C2249 1.523 . S
H2251 C2226 0.950 . S
H2252 C2228 0.950 . S
H2253 C2229 0.949 . S
H2254 C2231 0.950 . S
H2255 C2233 0.950 . S
C2256 C2257 1.349 . S
C2256 C2258 1.327 . S
C2256 H2281 0.950 . S
C2257 C2256 1.349 . S
C2257 C2273 1.349 . S
C2258 C2256 1.327 . S
C2258 C2277 1.429 . S
C2258 H2282 0.950 . S
C2259 C2276 1.574 . S
C2259 C2278 1.368 . S
C2259 H2283 0.949 . S
H2260 C2264 0.949 . S
C2261 C2262 1.349 . S
C2261 C2263 1.327 . S
C2261 H2284 0.950 . S
C2262 C2261 1.349 . S
C2262 C2274 1.349 . S
C2263 C2261 1.327 . S
C2263 C2279 1.429 . S
C2263 H2285 0.950 . S
C2264 H2260 0.949 . S
C2264 C2272 1.574 . S
C2264 C2280 1.368 . S
H2265 C2273 0.950 . S
H2266 C2271 0.950 . S
H2267 C2272 0.949 . S
H2268 C2274 0.950 . S
H2269 C2275 0.950 . S
H2270 C2276 0.949 . S
C2271 H2266 0.950 . S
C2271 C2273 1.327 . S
C2271 C2277 1.429 . S
C2272 C2264 1.574 . S
C2272 H2267 0.949 . S
C2272 C2278 1.368 . S
C2273 C2257 1.349 . S
C2273 H2265 0.950 . S
C2273 C2271 1.327 . S
C2274 C2262 1.349 . S
C2274 H2268 0.950 . S
C2274 C2275 1.327 . S
C2275 H2269 0.950 . S
C2275 C2274 1.327 . S
C2275 C2279 1.429 . S
C2276 C2259 1.574 . S
C2276 H2270 0.949 . S
C2276 C2280 1.368 . S
C2277 C2258 1.429 . S
C2277 C2271 1.429 . S
C2277 C2278 1.523 . S
C2278 C2259 1.368 . S
C2278 C2272 1.368 . S
C2278 C2277 1.523 . S
C2279 C2263 1.429 . S
C2279 C2275 1.429 . S
C2279 C2280 1.523 . S
C2280 C2264 1.368 . S
C2280 C2276 1.368 . S
C2280 C2279 1.523 . S
H2281 C2256 0.950 . S
H2282 C2258 0.950 . S
H2283 C2259 0.949 . S
H2284 C2261 0.950 . S
H2285 C2263 0.950 . S
C2286 C2287 1.349 . S
C2286 C2288 1.327 . S
C2286 H2311 0.950 . S
C2287 C2286 1.349 . S
C2287 C2303 1.349 . S
C2288 C2286 1.327 . S
C2288 C2307 1.429 . S
C2288 H2312 0.950 . S
C2289 C2306 1.574 . S
C2289 C2308 1.368 . S
C2289 H2313 0.949 . S
H2290 C2294 0.949 . S
C2291 C2292 1.349 . S
C2291 C2293 1.327 . S
C2291 H2314 0.950 . S
C2292 C2291 1.349 . S
C2292 C2304 1.349 . S
C2293 C2291 1.327 . S
C2293 C2309 1.429 . S
C2293 H2315 0.950 . S
C2294 H2290 0.949 . S
C2294 C2302 1.574 . S
C2294 C2310 1.368 . S
H2295 C2303 0.950 . S
H2296 C2301 0.950 . S
H2297 C2302 0.949 . S
H2298 C2304 0.950 . S
H2299 C2305 0.950 . S
H2300 C2306 0.949 . S
C2301 H2296 0.950 . S
C2301 C2303 1.327 . S
C2301 C2307 1.429 . S
C2302 C2294 1.574 . S
C2302 H2297 0.949 . S
C2302 C2308 1.368 . S
C2303 C2287 1.349 . S
C2303 H2295 0.950 . S
C2303 C2301 1.327 . S
C2304 C2292 1.349 . S
C2304 H2298 0.950 . S
C2304 C2305 1.327 . S
C2305 H2299 0.950 . S
C2305 C2304 1.327 . S
C2305 C2309 1.429 . S
C2306 C2289 1.574 . S
C2306 H2300 0.949 . S
C2306 C2310 1.368 . S
C2307 C2288 1.429 . S
C2307 C2301 1.429 . S
C2307 C2308 1.523 . S
C2308 C2289 1.368 . S
C2308 C2302 1.368 . S
C2308 C2307 1.523 . S
C2309 C2293 1.429 . S
C2309 C2305 1.429 . S
C2309 C2310 1.523 . S
C2310 C2294 1.368 . S
C2310 C2306 1.368 . S
C2310 C2309 1.523 . S
H2311 C2286 0.950 . S
H2312 C2288 0.950 . S
H2313 C2289 0.949 . S
H2314 C2291 0.950 . S
H2315 C2293 0.950 . S
C2316 C2317 1.349 . S
C2316 C2318 1.327 . S
C2316 H2341 0.950 . S
C2317 C2316 1.349 . S
C2317 C2333 1.349 . S
C2318 C2316 1.327 . S
C2318 C2337 1.429 . S
C2318 H2342 0.950 . S
C2319 C2336 1.574 . S
C2319 C2338 1.368 . S
C2319 H2343 0.949 . S
H2320 C2324 0.949 . S
C2321 C2322 1.349 . S
C2321 C2323 1.327 . S
C2321 H2344 0.950 . S
C2322 C2321 1.349 . S
C2322 C2334 1.349 . S
C2323 C2321 1.327 . S
C2323 C2339 1.429 . S
C2323 H2345 0.950 . S
C2324 H2320 0.949 . S
C2324 C2332 1.574 . S
C2324 C2340 1.368 . S
H2325 C2333 0.950 . S
H2326 C2331 0.950 . S
H2327 C2332 0.949 . S
H2328 C2334 0.950 . S
H2329 C2335 0.950 . S
H2330 C2336 0.949 . S
C2331 H2326 0.950 . S
C2331 C2333 1.327 . S
C2331 C2337 1.429 . S
C2332 C2324 1.574 . S
C2332 H2327 0.949 . S
C2332 C2338 1.368 . S
C2333 C2317 1.349 . S
C2333 H2325 0.950 . S
C2333 C2331 1.327 . S
C2334 C2322 1.349 . S
C2334 H2328 0.950 . S
C2334 C2335 1.327 . S
C2335 H2329 0.950 . S
C2335 C2334 1.327 . S
C2335 C2339 1.429 . S
C2336 C2319 1.574 . S
C2336 H2330 0.949 . S
C2336 C2340 1.368 . S
C2337 C2318 1.429 . S
C2337 C2331 1.429 . S
C2337 C2338 1.523 . S
C2338 C2319 1.368 . S
C2338 C2332 1.368 . S
C2338 C2337 1.523 . S
C2339 C2323 1.429 . S
C2339 C2335 1.429 . S
C2339 C2340 1.523 . S
C2340 C2324 1.368 . S
C2340 C2336 1.368 . S
C2340 C2339 1.523 . S
H2341 C2316 0.950 . S
H2342 C2318 0.950 . S
H2343 C2319 0.949 . S
H2344 C2321 0.950 . S
H2345 C2323 0.950 . S
C2346 C2347 1.349 . S
C2346 C2348 1.327 . S
C2346 H2371 0.950 . S
C2347 C2346 1.349 . S
C2347 C2363 1.349 . S
C2348 C2346 1.327 . S
C2348 C2367 1.429 . S
C2348 H2372 0.950 . S
C2349 C2366 1.574 . S
C2349 C2368 1.368 . S
C2349 H2373 0.949 . S
H2350 C2354 0.949 . S
C2351 C2352 1.349 . S
C2351 C2353 1.327 . S
C2351 H2374 0.950 . S
C2352 C2351 1.349 . S
C2352 C2364 1.349 . S
C2353 C2351 1.327 . S
C2353 C2369 1.429 . S
C2353 H2375 0.950 . S
C2354 H2350 0.949 . S
C2354 C2362 1.574 . S
C2354 C2370 1.368 . S
H2355 C2363 0.950 . S
H2356 C2361 0.950 . S
H2357 C2362 0.949 . S
H2358 C2364 0.950 . S
H2359 C2365 0.950 . S
H2360 C2366 0.949 . S
C2361 H2356 0.950 . S
C2361 C2363 1.327 . S
C2361 C2367 1.429 . S
C2362 C2354 1.574 . S
C2362 H2357 0.949 . S
C2362 C2368 1.368 . S
C2363 C2347 1.349 . S
C2363 H2355 0.950 . S
C2363 C2361 1.327 . S
C2364 C2352 1.349 . S
C2364 H2358 0.950 . S
C2364 C2365 1.327 . S
C2365 H2359 0.950 . S
C2365 C2364 1.327 . S
C2365 C2369 1.429 . S
C2366 C2349 1.574 . S
C2366 H2360 0.949 . S
C2366 C2370 1.368 . S
C2367 C2348 1.429 . S
C2367 C2361 1.429 . S
C2367 C2368 1.523 . S
C2368 C2349 1.368 . S
C2368 C2362 1.368 . S
C2368 C2367 1.523 . S
C2369 C2353 1.429 . S
C2369 C2365 1.429 . S
C2369 C2370 1.523 . S
C2370 C2354 1.368 . S
C2370 C2366 1.368 . S
C2370 C2369 1.523 . S
H2371 C2346 0.950 . S
H2372 C2348 0.950 . S
H2373 C2349 0.949 . S
H2374 C2351 0.950 . S
H2375 C2353 0.950 . S
C2376 C2377 1.349 . S
C2376 C2378 1.327 . S
C2376 H2401 0.950 . S
C2377 C2376 1.349 . S
C2377 C2393 1.349 . S
C2378 C2376 1.327 . S
C2378 C2397 1.429 . S
C2378 H2402 0.950 . S
C2379 C2396 1.574 . S
C2379 C2398 1.368 . S
C2379 H2403 0.949 . S
H2380 C2384 0.949 . S
C2381 C2382 1.349 . S
C2381 C2383 1.327 . S
C2381 H2404 0.950 . S
C2382 C2381 1.349 . S
C2382 C2394 1.349 . S
C2383 C2381 1.327 . S
C2383 C2399 1.429 . S
C2383 H2405 0.950 . S
C2384 H2380 0.949 . S
C2384 C2392 1.574 . S
C2384 C2400 1.368 . S
H2385 C2393 0.950 . S
H2386 C2391 0.950 . S
H2387 C2392 0.949 . S
H2388 C2394 0.950 . S
H2389 C2395 0.950 . S
H2390 C2396 0.949 . S
C2391 H2386 0.950 . S
C2391 C2393 1.327 . S
C2391 C2397 1.429 . S
C2392 C2384 1.574 . S
C2392 H2387 0.949 . S
C2392 C2398 1.368 . S
C2393 C2377 1.349 . S
C2393 H2385 0.950 . S
C2393 C2391 1.327 . S
C2394 C2382 1.349 . S
C2394 H2388 0.950 . S
C2394 C2395 1.327 . S
C2395 H2389 0.950 . S
C2395 C2394 1.327 . S
C2395 C2399 1.429 . S
C2396 C2379 1.574 . S
C2396 H2390 0.949 . S
C2396 C2400 1.368 . S
C2397 C2378 1.429 . S
C2397 C2391 1.429 . S
C2397 C2398 1.523 . S
C2398 C2379 1.368 . S
C2398 C2392 1.368 . S
C2398 C2397 1.523 . S
C2399 C2383 1.429 . S
C2399 C2395 1.429 . S
C2399 C2400 1.523 . S
C2400 C2384 1.368 . S
C2400 C2396 1.368 . S
C2400 C2399 1.523 . S
H2401 C2376 0.950 . S
H2402 C2378 0.950 . S
H2403 C2379 0.949 . S
H2404 C2381 0.950 . S
H2405 C2383 0.950 . S
C2406 C2407 1.349 . S
C2406 C2408 1.327 . S
C2406 H2431 0.950 . S
C2407 C2406 1.349 . S
C2407 C2423 1.349 . S
C2408 C2406 1.327 . S
C2408 C2427 1.429 . S
C2408 H2432 0.950 . S
C2409 C2426 1.574 . S
C2409 C2428 1.368 . S
C2409 H2433 0.949 . S
H2410 C2414 0.949 . S
C2411 C2412 1.349 . S
C2411 C2413 1.327 . S
C2411 H2434 0.950 . S
C2412 C2411 1.349 . S
C2412 C2424 1.349 . S
C2413 C2411 1.327 . S
C2413 C2429 1.429 . S
C2413 H2435 0.950 . S
C2414 H2410 0.949 . S
C2414 C2422 1.574 . S
C2414 C2430 1.368 . S
H2415 C2423 0.950 . S
H2416 C2421 0.950 . S
H2417 C2422 0.949 . S
H2418 C2424 0.950 . S
H2419 C2425 0.950 . S
H2420 C2426 0.949 . S
C2421 H2416 0.950 . S
C2421 C2423 1.327 . S
C2421 C2427 1.429 . S
C2422 C2414 1.574 . S
C2422 H2417 0.949 . S
C2422 C2428 1.368 . S
C2423 C2407 1.349 . S
C2423 H2415 0.950 . S
C2423 C2421 1.327 . S
C2424 C2412 1.349 . S
C2424 H2418 0.950 . S
C2424 C2425 1.327 . S
C2425 H2419 0.950 . S
C2425 C2424 1.327 . S
C2425 C2429 1.429 . S
C2426 C2409 1.574 . S
C2426 H2420 0.949 . S
C2426 C2430 1.368 . S
C2427 C2408 1.429 . S
C2427 C2421 1.429 . S
C2427 C2428 1.523 . S
C2428 C2409 1.368 . S
C2428 C2422 1.368 . S
C2428 C2427 1.523 . S
C2429 C2413 1.429 . S
C2429 C2425 1.429 . S
C2429 C2430 1.523 . S
C2430 C2414 1.368 . S
C2430 C2426 1.368 . S
C2430 C2429 1.523 . S
H2431 C2406 0.950 . S
H2432 C2408 0.950 . S
H2433 C2409 0.949 . S
H2434 C2411 0.950 . S
H2435 C2413 0.950 . S
C2436 C2437 1.349 . S
C2436 C2438 1.327 . S
C2436 H2461 0.950 . S
C2437 C2436 1.349 . S
C2437 C2453 1.349 . S
C2438 C2436 1.327 . S
C2438 C2457 1.429 . S
C2438 H2462 0.950 . S
C2439 C2456 1.574 . S
C2439 C2458 1.368 . S
C2439 H2463 0.949 . S
H2440 C2444 0.949 . S
C2441 C2442 1.349 . S
C2441 C2443 1.327 . S
C2441 H2464 0.950 . S
C2442 C2441 1.349 . S
C2442 C2454 1.349 . S
C2443 C2441 1.327 . S
C2443 C2459 1.429 . S
C2443 H2465 0.950 . S
C2444 H2440 0.949 . S
C2444 C2452 1.574 . S
C2444 C2460 1.368 . S
H2445 C2453 0.950 . S
H2446 C2451 0.950 . S
H2447 C2452 0.949 . S
H2448 C2454 0.950 . S
H2449 C2455 0.950 . S
H2450 C2456 0.949 . S
C2451 H2446 0.950 . S
C2451 C2453 1.327 . S
C2451 C2457 1.429 . S
C2452 C2444 1.574 . S
C2452 H2447 0.949 . S
C2452 C2458 1.368 . S
C2453 C2437 1.349 . S
C2453 H2445 0.950 . S
C2453 C2451 1.327 . S
C2454 C2442 1.349 . S
C2454 H2448 0.950 . S
C2454 C2455 1.327 . S
C2455 H2449 0.950 . S
C2455 C2454 1.327 . S
C2455 C2459 1.429 . S
C2456 C2439 1.574 . S
C2456 H2450 0.949 . S
C2456 C2460 1.368 . S
C2457 C2438 1.429 . S
C2457 C2451 1.429 . S
C2457 C2458 1.523 . S
C2458 C2439 1.368 . S
C2458 C2452 1.368 . S
C2458 C2457 1.523 . S
C2459 C2443 1.429 . S
C2459 C2455 1.429 . S
C2459 C2460 1.523 . S
C2460 C2444 1.368 . S
C2460 C2456 1.368 . S
C2460 C2459 1.523 . S
H2461 C2436 0.950 . S
H2462 C2438 0.950 . S
H2463 C2439 0.949 . S
H2464 C2441 0.950 . S
H2465 C2443 0.950 . S
C2466 C2467 1.349 . S
C2466 C2468 1.327 . S
C2466 H2491 0.950 . S
C2467 C2466 1.349 . S
C2467 C2483 1.349 . S
C2468 C2466 1.327 . S
C2468 C2487 1.429 . S
C2468 H2492 0.950 . S
C2469 C2486 1.574 . S
C2469 C2488 1.368 . S
C2469 H2493 0.949 . S
H2470 C2474 0.949 . S
C2471 C2472 1.349 . S
C2471 C2473 1.327 . S
C2471 H2494 0.950 . S
C2472 C2471 1.349 . S
C2472 C2484 1.349 . S
C2473 C2471 1.327 . S
C2473 C2489 1.429 . S
C2473 H2495 0.950 . S
C2474 H2470 0.949 . S
C2474 C2482 1.574 . S
C2474 C2490 1.368 . S
H2475 C2483 0.950 . S
H2476 C2481 0.950 . S
H2477 C2482 0.949 . S
H2478 C2484 0.950 . S
H2479 C2485 0.950 . S
H2480 C2486 0.949 . S
C2481 H2476 0.950 . S
C2481 C2483 1.327 . S
C2481 C2487 1.429 . S
C2482 C2474 1.574 . S
C2482 H2477 0.949 . S
C2482 C2488 1.368 . S
C2483 C2467 1.349 . S
C2483 H2475 0.950 . S
C2483 C2481 1.327 . S
C2484 C2472 1.349 . S
C2484 H2478 0.950 . S
C2484 C2485 1.327 . S
C2485 H2479 0.950 . S
C2485 C2484 1.327 . S
C2485 C2489 1.429 . S
C2486 C2469 1.574 . S
C2486 H2480 0.949 . S
C2486 C2490 1.368 . S
C2487 C2468 1.429 . S
C2487 C2481 1.429 . S
C2487 C2488 1.523 . S
C2488 C2469 1.368 . S
C2488 C2482 1.368 . S
C2488 C2487 1.523 . S
C2489 C2473 1.429 . S
C2489 C2485 1.429 . S
C2489 C2490 1.523 . S
C2490 C2474 1.368 . S
C2490 C2486 1.368 . S
C2490 C2489 1.523 . S
H2491 C2466 0.950 . S
H2492 C2468 0.950 . S
H2493 C2469 0.949 . S
H2494 C2471 0.950 . S
H2495 C2473 0.950 . S
C2496 C2497 1.349 . S
C2496 C2498 1.327 . S
C2496 H2521 0.950 . S
C2497 C2496 1.349 . S
C2497 C2513 1.349 . S
C2498 C2496 1.327 . S
C2498 C2517 1.429 . S
C2498 H2522 0.950 . S
C2499 C2516 1.574 . S
C2499 C2518 1.368 . S
C2499 H2523 0.949 . S
H2500 C2504 0.949 . S
C2501 C2502 1.349 . S
C2501 C2503 1.327 . S
C2501 H2524 0.950 . S
C2502 C2501 1.349 . S
C2502 C2514 1.349 . S
C2503 C2501 1.327 . S
C2503 C2519 1.429 . S
C2503 H2525 0.950 . S
C2504 H2500 0.949 . S
C2504 C2512 1.574 . S
C2504 C2520 1.368 . S
H2505 C2513 0.950 . S
H2506 C2511 0.950 . S
H2507 C2512 0.949 . S
H2508 C2514 0.950 . S
H2509 C2515 0.950 . S
H2510 C2516 0.949 . S
C2511 H2506 0.950 . S
C2511 C2513 1.327 . S
C2511 C2517 1.429 . S
C2512 C2504 1.574 . S
C2512 H2507 0.949 . S
C2512 C2518 1.368 . S
C2513 C2497 1.349 . S
C2513 H2505 0.950 . S
C2513 C2511 1.327 . S
C2514 C2502 1.349 . S
C2514 H2508 0.950 . S
C2514 C2515 1.327 . S
C2515 H2509 0.950 . S
C2515 C2514 1.327 . S
C2515 C2519 1.429 . S
C2516 C2499 1.574 . S
C2516 H2510 0.949 . S
C2516 C2520 1.368 . S
C2517 C2498 1.429 . S
C2517 C2511 1.429 . S
C2517 C2518 1.523 . S
C2518 C2499 1.368 . S
C2518 C2512 1.368 . S
C2518 C2517 1.523 . S
C2519 C2503 1.429 . S
C2519 C2515 1.429 . S
C2519 C2520 1.523 . S
C2520 C2504 1.368 . S
C2520 C2516 1.368 . S
C2520 C2519 1.523 . S
H2521 C2496 0.950 . S
H2522 C2498 0.950 . S
H2523 C2499 0.949 . S
H2524 C2501 0.950 . S
H2525 C2503 0.950 . S
C2526 C2527 1.349 . S
C2526 C2528 1.327 . S
C2526 H2551 0.950 . S
C2527 C2526 1.349 . S
C2527 C2543 1.349 . S
C2528 C2526 1.327 . S
C2528 C2547 1.429 . S
C2528 H2552 0.950 . S
C2529 C2546 1.574 . S
C2529 C2548 1.368 . S
C2529 H2553 0.949 . S
H2530 C2534 0.949 . S
C2531 C2532 1.349 . S
C2531 C2533 1.327 . S
C2531 H2554 0.950 . S
C2532 C2531 1.349 . S
C2532 C2544 1.349 . S
C2533 C2531 1.327 . S
C2533 C2549 1.429 . S
C2533 H2555 0.950 . S
C2534 H2530 0.949 . S
C2534 C2542 1.574 . S
C2534 C2550 1.368 . S
H2535 C2543 0.950 . S
H2536 C2541 0.950 . S
H2537 C2542 0.949 . S
H2538 C2544 0.950 . S
H2539 C2545 0.950 . S
H2540 C2546 0.949 . S
C2541 H2536 0.950 . S
C2541 C2543 1.327 . S
C2541 C2547 1.429 . S
C2542 C2534 1.574 . S
C2542 H2537 0.949 . S
C2542 C2548 1.368 . S
C2543 C2527 1.349 . S
C2543 H2535 0.950 . S
C2543 C2541 1.327 . S
C2544 C2532 1.349 . S
C2544 H2538 0.950 . S
C2544 C2545 1.327 . S
C2545 H2539 0.950 . S
C2545 C2544 1.327 . S
C2545 C2549 1.429 . S
C2546 C2529 1.574 . S
C2546 H2540 0.949 . S
C2546 C2550 1.368 . S
C2547 C2528 1.429 . S
C2547 C2541 1.429 . S
C2547 C2548 1.523 . S
C2548 C2529 1.368 . S
C2548 C2542 1.368 . S
C2548 C2547 1.523 . S
C2549 C2533 1.429 . S
C2549 C2545 1.429 . S
C2549 C2550 1.523 . S
C2550 C2534 1.368 . S
C2550 C2546 1.368 . S
C2550 C2549 1.523 . S
H2551 C2526 0.950 . S
H2552 C2528 0.950 . S
H2553 C2529 0.949 . S
H2554 C2531 0.950 . S
H2555 C2533 0.950 . S
C2556 C2557 1.349 . S
C2556 C2558 1.327 . S
C2556 H2581 0.950 . S
C2557 C2556 1.349 . S
C2557 C2573 1.349 . S
C2558 C2556 1.327 . S
C2558 C2577 1.429 . S
C2558 H2582 0.950 . S
C2559 C2576 1.574 . S
C2559 C2578 1.368 . S
C2559 H2583 0.949 . S
H2560 C2564 0.949 . S
C2561 C2562 1.349 . S
C2561 C2563 1.327 . S
C2561 H2584 0.950 . S
C2562 C2561 1.349 . S
C2562 C2574 1.349 . S
C2563 C2561 1.327 . S
C2563 C2579 1.429 . S
C2563 H2585 0.950 . S
C2564 H2560 0.949 . S
C2564 C2572 1.574 . S
C2564 C2580 1.368 . S
H2565 C2573 0.950 . S
H2566 C2571 0.950 . S
H2567 C2572 0.949 . S
H2568 C2574 0.950 . S
H2569 C2575 0.950 . S
H2570 C2576 0.949 . S
C2571 H2566 0.950 . S
C2571 C2573 1.327 . S
C2571 C2577 1.429 . S
C2572 C2564 1.574 . S
C2572 H2567 0.949 . S
C2572 C2578 1.368 . S
C2573 C2557 1.349 . S
C2573 H2565 0.950 . S
C2573 C2571 1.327 . S
C2574 C2562 1.349 . S
C2574 H2568 0.950 . S
C2574 C2575 1.327 . S
C2575 H2569 0.950 . S
C2575 C2574 1.327 . S
C2575 C2579 1.429 . S
C2576 C2559 1.574 . S
C2576 H2570 0.949 . S
C2576 C2580 1.368 . S
C2577 C2558 1.429 . S
C2577 C2571 1.429 . S
C2577 C2578 1.523 . S
C2578 C2559 1.368 . S
C2578 C2572 1.368 . S
C2578 C2577 1.523 . S
C2579 C2563 1.429 . S
C2579 C2575 1.429 . S
C2579 C2580 1.523 . S
C2580 C2564 1.368 . S
C2580 C2576 1.368 . S
C2580 C2579 1.523 . S
H2581 C2556 0.950 . S
H2582 C2558 0.950 . S
H2583 C2559 0.949 . S
H2584 C2561 0.950 . S
H2585 C2563 0.950 . S
C2586 C2587 1.349 . S
C2586 C2588 1.327 . S
C2586 H2611 0.950 . S
C2587 C2586 1.349 . S
C2587 C2603 1.349 . S
C2588 C2586 1.327 . S
C2588 C2607 1.429 . S
C2588 H2612 0.950 . S
C2589 C2606 1.574 . S
C2589 C2608 1.368 . S
C2589 H2613 0.949 . S
H2590 C2594 0.949 . S
C2591 C2592 1.349 . S
C2591 C2593 1.327 . S
C2591 H2614 0.950 . S
C2592 C2591 1.349 . S
C2592 C2604 1.349 . S
C2593 C2591 1.327 . S
C2593 C2609 1.429 . S
C2593 H2615 0.950 . S
C2594 H2590 0.949 . S
C2594 C2602 1.574 . S
C2594 C2610 1.368 . S
H2595 C2603 0.950 . S
H2596 C2601 0.950 . S
H2597 C2602 0.949 . S
H2598 C2604 0.950 . S
H2599 C2605 0.950 . S
H2600 C2606 0.949 . S
C2601 H2596 0.950 . S
C2601 C2603 1.327 . S
C2601 C2607 1.429 . S
C2602 C2594 1.574 . S
C2602 H2597 0.949 . S
C2602 C2608 1.368 . S
C2603 C2587 1.349 . S
C2603 H2595 0.950 . S
C2603 C2601 1.327 . S
C2604 C2592 1.349 . S
C2604 H2598 0.950 . S
C2604 C2605 1.327 . S
C2605 H2599 0.950 . S
C2605 C2604 1.327 . S
C2605 C2609 1.429 . S
C2606 C2589 1.574 . S
C2606 H2600 0.949 . S
C2606 C2610 1.368 . S
C2607 C2588 1.429 . S
C2607 C2601 1.429 . S
C2607 C2608 1.523 . S
C2608 C2589 1.368 . S
C2608 C2602 1.368 . S
C2608 C2607 1.523 . S
C2609 C2593 1.429 . S
C2609 C2605 1.429 . S
C2609 C2610 1.523 . S
C2610 C2594 1.368 . S
C2610 C2606 1.368 . S
C2610 C2609 1.523 . S
H2611 C2586 0.950 . S
H2612 C2588 0.950 . S
H2613 C2589 0.949 . S
H2614 C2591 0.950 . S
H2615 C2593 0.950 . S
C817 C107 1.153 . S
C822 C33 1.155 . S
C847 C5 1.153 . S
C852 C67 1.155 . S
C877 C39 1.153 . S
C882 C101 1.155 . S
C907 C135 1.155 . S
C912 C73 1.153 . S
C937 C175 1.153 . S
C942 C169 1.155 . S
C967 C209 1.153 . S
C972 C203 1.155 . S
C997 C237 1.155 . S
C1002 C243 1.153 . S
C1027 C141 1.153 . S
C1032 C271 1.155 . S
C1057 C305 1.155 . S
C1062 C617 1.153 . S
C1087 C339 1.155 . S
C1092 C651 1.153 . S
C1117 C685 1.153 . S
C1122 C373 1.155 . S
C1147 C583 1.153 . S
C1152 C407 1.155 . S
C1177 C753 1.153 . S
C1182 C441 1.155 . S
C1207 C475 1.155 . S
C1212 C549 1.153 . S
C1237 C509 1.155 . S
C1242 C787 1.153 . S
C1267 C719 1.153 . S
C1272 C543 1.155 . S
C1297 C311 1.153 . S
C1302 C577 1.155 . S
C1327 C611 1.155 . S
C1332 C515 1.153 . S
C1357 C413 1.153 . S
C1362 C645 1.155 . S
C1387 C447 1.153 . S
C1392 C679 1.155 . S
C1417 C481 1.153 . S
C1422 C713 1.155 . S
C1447 C379 1.153 . S
C1452 C747 1.155 . S
C1477 C277 1.153 . S
C1482 C781 1.155 . S
C1507 C345 1.153 . S
C1512 C815 1.155 . S
C1537 C224 2.112 . S
C1542 C20 2.112 . S
C1567 C54 2.112 . S
C1572 C258 2.112 . S
C1597 C156 2.112 . S
C1602 C88 2.112 . S
C1627 C190 2.112 . S
C1632 C122 2.112 . S
C1657 C360 2.112 . S
C1662 C292 2.112 . S
C1687 C326 2.112 . S
C1692 C394 2.112 . S
C1717 C428 2.112 . S
C1722 C496 2.112 . S
C1747 C530 2.112 . S
C1752 C462 2.112 . S
C1777 C564 2.112 . S
C1782 C598 2.112 . S
C1807 C632 2.112 . S
C1812 C802 2.112 . S
C1837 C666 2.112 . S
C1842 C734 2.112 . S
C1867 C768 2.112 . S
C1872 C700 2.112 . S
C1897 C2 1.066 . S
C1902 C281 1.036 . S
C1927 C36 1.066 . S
C1932 C315 1.036 . S
C1957 C349 1.036 . S
C1962 C70 1.066 . S
C1987 C383 1.036 . S
C1992 C104 1.066 . S
C2017 C138 1.066 . S
C2022 C417 1.036 . S
C2047 C451 1.036 . S
C2052 C172 1.066 . S
C2077 C206 1.066 . S
C2082 C485 1.036 . S
C2107 C519 1.036 . S
C2112 C240 1.066 . S
C2137 C274 1.066 . S
C2142 C553 1.036 . S
C2167 C791 1.036 . S
C2172 C308 1.066 . S
C2197 C342 1.066 . S
C2202 C723 1.036 . S
C2227 C376 1.066 . S
C2232 C757 1.036 . S
C2257 C587 1.036 . S
C2262 C410 1.066 . S
C2287 C444 1.066 . S
C2292 C621 1.036 . S
C2317 C478 1.066 . S
C2322 C655 1.036 . S
C2347 C512 1.066 . S
C2352 C689 1.036 . S
C2377 C546 1.066 . S
C2382 C9 1.036 . S
C2407 C580 1.066 . S
C2412 C145 1.036 . S
C2437 C614 1.066 . S
C2442 C179 1.036 . S
C2467 C213 1.036 . S
C2472 C648 1.066 . S
C2497 C682 1.066 . S
C2502 C247 1.036 . S
C2527 C77 1.036 . S
C2532 C716 1.066 . S
C2557 C111 1.036 . S
C2562 C750 1.066 . S
C2587 C784 1.066 . S
C2592 C43 1.036 . S
