# Generated by pormake.
# Topology sml, (6)-cn, num edge types: 1
# Building blocks:
#     Node 0, Type 0, BuildingBlock: NUHQIS_clean_sbu_0, # of connection points: 6
#     Node 1, Type 0, BuildingBlock: NUHQIS_clean_sbu_0, # of connection points: 6
#     Node 2, Type 0, BuildingBlock: NUHQIS_clean_sbu_0, # of connection points: 6
#     Node 3, Type 0, BuildingBlock: NUHQIS_clean_sbu_0, # of connection points: 6
#     Node 4, Type 0, BuildingBlock: NUHQIS_clean_sbu_0, # of connection points: 6
#     Node 5, Type 0, BuildingBlock: NUHQIS_clean_sbu_0, # of connection points: 6
#     Edge 6, Type (0, 0), BuildingBlock: XIVTED_clean_linker_0, # of connection points: 2
#     Edge 7, Type (0, 0), BuildingBlock: XIVTED_clean_linker_0, # of connection points: 2
#     Edge 8, Type (0, 0), BuildingBlock: XIVTED_clean_linker_0, # of connection points: 2
#     Edge 9, Type (0, 0), BuildingBlock: XIVTED_clean_linker_0, # of connection points: 2
#     Edge 10, Type (0, 0), BuildingBlock: XIVTED_clean_linker_0, # of connection points: 2
#     Edge 11, Type (0, 0), BuildingBlock: XIVTED_clean_linker_0, # of connection points: 2
#     Edge 12, Type (0, 0), BuildingBlock: XIVTED_clean_linker_0, # of connection points: 2
#     Edge 13, Type (0, 0), BuildingBlock: XIVTED_clean_linker_0, # of connection points: 2
#     Edge 14, Type (0, 0), BuildingBlock: XIVTED_clean_linker_0, # of connection points: 2
#     Edge 15, Type (0, 0), BuildingBlock: XIVTED_clean_linker_0, # of connection points: 2
#     Edge 16, Type (0, 0), BuildingBlock: XIVTED_clean_linker_0, # of connection points: 2
#     Edge 17, Type (0, 0), BuildingBlock: XIVTED_clean_linker_0, # of connection points: 2
#     Edge 18, Type (0, 0), BuildingBlock: XIVTED_clean_linker_0, # of connection points: 2
#     Edge 19, Type (0, 0), BuildingBlock: XIVTED_clean_linker_0, # of connection points: 2
#     Edge 20, Type (0, 0), BuildingBlock: XIVTED_clean_linker_0, # of connection points: 2
#     Edge 21, Type (0, 0), BuildingBlock: XIVTED_clean_linker_0, # of connection points: 2
#     Edge 22, Type (0, 0), BuildingBlock: XIVTED_clean_linker_0, # of connection points: 2
#     Edge 23, Type (0, 0), BuildingBlock: XIVTED_clean_linker_0, # of connection points: 2
# Relax obj value: 0.173
# Max RMSD: 0.220
# Mean RMSD: 0.220
data_MOF--net-sml--node1-NUHQIS_clean_sbu_0--edge1-XIVTED_clean_linker_0
_symmetry_space_group_name_H-M    P1
_symmetry_Int_Tables_number       1
_symmetry_cell_setting            triclinic
loop_
_symmetry_equiv_pos_as_xyz
'x, y, z'
_cell_length_a     32.782115
_cell_length_b     32.885227
_cell_length_c     24.777252
_cell_angle_alpha  90.171594
_cell_angle_beta   90.037055
_cell_angle_gamma 120.26905
loop_
_atom_site_label
_atom_site_type_symbol
_atom_site_fract_x
_atom_site_fract_y
_atom_site_fract_z
_atom_type_partial_charge
Tb0 Tb 0.19631 0.40973 0.15566 0.0
Eu1 Eu 0.12462 0.39565 0.05264 0.0
C2 C 0.17742 0.33482 0.06751 0.0
C3 C 0.23734 0.45616 0.04224 0.0
C4 C 0.22533 0.416 0.29934 0.0
C5 C 0.23568 0.40563 0.39452 0.0
C6 C 0.25122 0.41068 0.34095 0.0
C7 C 0.18366 0.41615 0.31199 0.0
C8 C 0.16809 0.4111 0.3654 0.0
C9 C 0.19387 0.40575 0.40745 0.0
C10 C 0.24055 0.41946 0.24267 0.0
O11 O 0.15299 0.43932 0.17794 0.0
O12 O 0.14447 0.46435 0.09549 0.0
O13 O 0.07876 0.36473 0.12603 0.0
O14 O 0.12951 0.34502 0.16462 0.0
C15 C 0.14688 0.46855 0.14829 0.0
O16 O 0.10439 0.42696 0.98809 0.0
O17 O 0.06579 0.35137 0.99862 0.0
O18 O 0.13961 0.33551 0.05061 0.0
O19 O 0.20911 0.3672 0.09968 0.0
O20 O 0.24167 0.46094 0.09519 0.0
O21 O 0.19727 0.42666 1.01872 0.0
C22 C 0.08829 0.34221 0.16304 0.0
O23 O 0.21935 0.38032 0.21515 0.0
O24 O 0.24331 0.45457 0.21521 0.0
C25 C 0.07968 0.38075 0.90944 0.0
C26 C 0.09661 0.37753 0.79798 0.0
C27 C 0.05871 0.38285 0.81573 0.0
C28 C 0.05038 0.38448 0.87097 0.0
C29 C 0.11697 0.37462 0.89208 0.0
C30 C 0.12533 0.37297 0.83697 0.0
C31 C 0.07347 0.38643 0.96735 0.0
H32 H 0.2567 0.4021 0.42589 0.0
H33 H 0.28335 0.41026 0.332 0.0
H34 H 0.16277 0.41958 0.28043 0.0
H35 H 0.13536 0.41055 0.37357 0.0
H36 H 0.03559 0.38595 0.78693 0.0
H37 H 0.02159 0.38948 0.88364 0.0
H38 H 0.1403 0.37214 0.92121 0.0
H39 H 0.15523 0.36956 0.82498 0.0
Tb40 Tb 0.78152 0.20896 0.49633 0.0
Eu41 Eu 0.85299 0.26845 0.59928 0.0
C42 C 0.79634 0.15403 0.58869 0.0
C43 C 0.74028 0.21905 0.60775 0.0
C44 C 0.75276 0.18393 0.35254 0.0
C45 C 0.74188 0.16107 0.25791 0.0
C46 C 0.72696 0.15145 0.31171 0.0
C47 C 0.79393 0.22604 0.33891 0.0
C48 C 0.80891 0.23571 0.28523 0.0
C49 C 0.783 0.20343 0.24389 0.0
C50 C 0.73755 0.17339 0.40932 0.0
O51 O 0.82793 0.28081 0.47218 0.0
O52 O 0.83615 0.31758 0.55268 0.0
O53 O 0.89906 0.27934 0.52702 0.0
O54 O 0.84687 0.20798 0.49066 0.0
C55 C 0.8348 0.31758 0.49972 0.0
O56 O 0.87314 0.32067 0.66356 0.0
O57 O 0.91203 0.28406 0.65309 0.0
O58 O 0.83453 0.19239 0.60559 0.0
O59 O 0.7661 0.15462 0.55434 0.0
O60 O 0.73667 0.21817 0.55464 0.0
O61 O 0.77979 0.22945 0.63236 0.0
C62 C 0.88873 0.24581 0.49147 0.0
O63 O 0.75811 0.15543 0.43763 0.0
O64 O 0.73539 0.20658 0.43588 0.0
C65 C 0.89674 0.29846 0.74215 0.0
C66 C 0.87644 0.27609 0.85262 0.0
C67 C 0.91275 0.32102 0.83678 0.0
C68 C 0.92268 0.33213 0.78198 0.0
C69 C 0.86135 0.25329 0.75775 0.0
C70 C 0.85139 0.24218 0.81235 0.0
C71 C 0.90388 0.31114 0.68454 0.0
H72 H 0.72143 0.13501 0.22738 0.0
H73 H 0.69537 0.11854 0.32145 0.0
H74 H 0.81462 0.25149 0.36983 0.0
H75 H 0.84041 0.26886 0.27611 0.0
H76 H 0.93232 0.34812 0.86664 0.0
H77 H 0.94978 0.36734 0.77067 0.0
H78 H 0.84074 0.22683 0.72758 0.0
H79 H 0.82371 0.20705 0.82301 0.0
Tb80 Tb 0.56288 0.77661 0.81228 0.0
Eu81 Eu 0.57614 0.71884 0.7089 0.0
C82 C 0.63524 0.83296 0.72197 0.0
C83 C 0.51358 0.76829 0.6997 0.0
C84 C 0.55738 0.80012 0.95596 0.0
C85 C 0.56677 0.82128 0.05112 0.0
C86 C 0.5612 0.83093 0.99742 0.0
C87 C 0.55937 0.7596 0.96886 0.0
C88 C 0.56487 0.74988 0.02242 0.0
C89 C 0.56861 0.78057 0.06432 0.0
C90 C 0.55281 0.81081 0.89924 0.0
O91 O 0.53657 0.70441 0.83508 0.0
O92 O 0.50888 0.66908 0.75369 0.0
O93 O 0.61074 0.70746 0.78129 0.0
O94 O 0.62896 0.77742 0.82092 0.0
C95 C 0.5067 0.66809 0.80658 0.0
O96 O 0.54411 0.66646 0.64473 0.0
O97 O 0.62008 0.70458 0.65465 0.0
O98 O 0.6348 0.79486 0.70445 0.0
O99 O 0.60384 0.83186 0.75577 0.0
O100 O 0.50975 0.76809 0.75274 0.0
O101 O 0.54315 0.75847 0.67555 0.0
C102 C 0.63355 0.74018 0.818 0.0
O103 O 0.59178 0.82991 0.87138 0.0
O104 O 0.51782 0.77716 0.8722 0.0
C105 C 0.58965 0.68806 0.56577 0.0
C106 C 0.59235 0.7076 0.45431 0.0
C107 C 0.58829 0.66505 0.47215 0.0
C108 C 0.58692 0.65539 0.52739 0.0
C109 C 0.59449 0.73083 0.54834 0.0
C110 C 0.59587 0.74053 0.49323 0.0
C111 C 0.58459 0.67652 0.62369 0.0
H112 H 0.56906 0.84543 0.08239 0.0
H113 H 0.55994 0.86247 0.98827 0.0
H114 H 0.55708 0.73562 0.93741 0.0
H115 H 0.56693 0.71867 0.03087 0.0
H116 H 0.586 0.63911 0.44343 0.0
H117 H 0.58299 0.62211 0.54011 0.0
H118 H 0.59625 0.75636 0.57743 0.0
H119 H 0.59829 0.7733 0.48118 0.0
Tb120 Tb 0.77651 0.56531 0.14509 0.0
Eu121 Eu 0.71995 0.58176 0.24733 0.0
C122 C 0.83415 0.64221 0.23134 0.0
C123 C 0.77111 0.52117 0.25981 0.0
C124 C 0.79828 0.5567 1.00186 0.0
C125 C 0.81709 0.56223 0.90625 0.0
C126 C 0.82712 0.557 0.95997 0.0
C127 C 0.75925 0.56168 0.98934 0.0
C128 C 0.74919 0.56694 0.93578 0.0
C129 C 0.77798 0.56731 0.89343 0.0
C130 C 0.80959 0.55283 0.05864 0.0
O131 O 0.70366 0.53775 0.12243 0.0
O132 O 0.66919 0.51337 0.20458 0.0
O133 O 0.7069 0.6139 0.17399 0.0
O134 O 0.77588 0.63012 0.13266 0.0
C135 C 0.66743 0.50931 0.15179 0.0
O136 O 0.66782 0.55093 0.31165 0.0
O137 O 0.70721 0.62657 0.30202 0.0
O138 O 0.79577 0.64175 0.24822 0.0
O139 O 0.8329 0.60938 0.19982 0.0
O140 O 0.76988 0.51493 0.20706 0.0
O141 O 0.7616 0.5516 0.28202 0.0
C142 C 0.73876 0.63511 0.13614 0.0
O143 O 0.82959 0.59217 0.08588 0.0
O144 O 0.77585 0.51875 0.08627 0.0
C145 C 0.69113 0.5964 0.39092 0.0
C146 C 0.71145 0.5983 0.50233 0.0
C147 C 0.66979 0.59688 0.48488 0.0
C148 C 0.65973 0.59583 0.42969 0.0
C149 C 0.73306 0.59867 0.40798 0.0
C150 C 0.74311 0.59958 0.46302 0.0
C151 C 0.67896 0.59154 0.33302 0.0
H152 H 0.83972 0.56181 0.8747 0.0
H153 H 0.85748 0.55333 0.96879 0.0
H154 H 0.73677 0.56204 0.02109 0.0
H155 H 0.71929 0.57153 0.9277 0.0
H156 H 0.64487 0.59644 0.51384 0.0
H157 H 0.62708 0.59384 0.41728 0.0
H158 H 0.75762 0.59876 0.37867 0.0
H159 H 0.77512 0.59992 0.47468 0.0
Tb160 Tb 0.20152 0.80211 0.46647 0.0
Eu161 Eu 0.26772 0.86568 0.36356 0.0
C162 C 0.15356 0.82058 0.3692 0.0
C163 C 0.20672 0.75277 0.35839 0.0
C164 C 0.17255 0.78009 0.61002 0.0
C165 C 0.15469 0.76761 0.70561 0.0
C166 C 0.14268 0.75309 0.65194 0.0
C167 C 0.21434 0.82226 0.62227 0.0
C168 C 0.22657 0.8367 0.67595 0.0
C169 C 0.1971 0.80932 0.71847 0.0
C170 C 0.16032 0.76426 0.55365 0.0
O171 O 0.27438 0.83764 0.49195 0.0
O172 O 0.30968 0.84052 0.41173 0.0
O173 O 0.28672 0.91341 0.43601 0.0
O174 O 0.21189 0.87268 0.4674 0.0
C175 C 0.30901 0.83874 0.46473 0.0
O176 O 0.31863 0.87817 0.2999 0.0
O177 O 0.29238 0.92641 0.31035 0.0
O178 O 0.19442 0.85568 0.35262 0.0
O179 O 0.14989 0.79022 0.40587 0.0
O180 O 0.20333 0.75063 0.41156 0.0
O181 O 0.22294 0.79245 0.33199 0.0
C182 C 0.25394 0.9101 0.4689 0.0
O183 O 0.1492 0.7897 0.52361 0.0
O184 O 0.18929 0.75423 0.52892 0.0
C185 C 0.30344 0.90798 0.2214 0.0
C186 C 0.28037 0.89162 0.11065 0.0
C187 C 0.32752 0.92061 0.12729 0.0
C188 C 0.33897 0.92855 0.18228 0.0
C189 C 0.25627 0.87968 0.20495 0.0
C190 C 0.24483 0.87162 0.15013 0.0
C191 C 0.31562 0.913 0.27916 0.0
H192 H 0.13054 0.74612 0.73702 0.0
H193 H 0.11009 0.7207 0.64319 0.0
H194 H 0.23774 0.84379 0.59032 0.0
H195 H 0.25962 0.86877 0.68404 0.0
H196 H 0.35569 0.93577 0.09785 0.0
H197 H 0.37563 0.9499 0.19427 0.0
H198 H 0.22835 0.86306 0.23459 0.0
H199 H 0.20816 0.84938 0.13862 0.0
Tb200 Tb 0.38587 0.1812 0.82754 0.0
Eu201 Eu 0.38773 0.11813 0.93105 0.0
C202 C 0.31585 0.15891 0.92226 0.0
C203 C 0.43798 0.23042 0.93698 0.0
C204 C 0.38037 0.20465 0.68429 0.0
C205 C 0.37721 0.21821 0.58849 0.0
C206 C 0.38071 0.2331 0.64216 0.0
C207 C 0.37629 0.16098 0.67223 0.0
C208 C 0.37296 0.14613 0.61864 0.0
C209 C 0.37347 0.17462 0.57607 0.0
C210 C 0.3843 0.22031 0.74072 0.0
O211 O 0.42411 0.14683 0.80295 0.0
O212 O 0.45594 0.14488 0.88399 0.0
O213 O 0.36016 0.06988 0.85904 0.0
O214 O 0.32677 0.10949 0.82239 0.0
C215 C 0.4576 0.14637 0.83098 0.0
O216 O 0.42661 0.10701 0.99512 0.0
O217 O 0.35177 0.05775 0.98495 0.0
O218 O 0.32232 0.12463 0.9393 0.0
O219 O 0.34333 0.19025 0.88671 0.0
O220 O 0.43848 0.2326 0.88374 0.0
O221 O 0.41342 0.19062 0.96288 0.0
C222 C 0.33149 0.07228 0.82402 0.0
O223 O 0.34718 0.19523 0.77049 0.0
O224 O 0.42306 0.2293 0.76561 0.0
C225 C 0.38168 0.07655 0.07375 0.0
C226 C 0.37339 0.08975 0.18513 0.0
C227 C 0.38411 0.05552 0.16711 0.0
C228 C 0.38839 0.04914 0.11192 0.0
C229 C 0.37039 0.11028 0.09127 0.0
C230 C 0.36635 0.11688 0.14635 0.0
C231 C 0.38877 0.07178 1.01597 0.0
H232 H 0.37824 0.2412 0.55666 0.0
H233 H 0.38388 0.2669 0.65075 0.0
H234 H 0.37567 0.13836 0.70432 0.0
H235 H 0.36949 0.11212 0.61057 0.0
H236 H 0.38933 0.0337 0.19564 0.0
H237 H 0.39759 0.02329 0.09906 0.0
H238 H 0.36555 0.13214 0.0623 0.0
H239 H 0.35896 0.14417 0.15848 0.0
H240 H 0.25741 0.18005 0.86839 0.0
H241 H 0.22554 0.30047 0.1217 0.0
H242 H 0.2907 0.15371 0.02816 0.0
H243 H 0.14542 0.28072 0.97589 0.0
H244 H 0.24396 0.24123 0.09042 0.0
H245 H 0.20894 0.20944 0.90773 0.0
C246 C 0.25343 0.17946 0.91186 0.0
C247 C 0.27824 0.16509 0.94533 0.0
C248 C 0.22171 0.24922 0.0656 0.0
C249 C 0.2242 0.19975 0.99057 0.0
C250 C 0.2116 0.28339 0.08315 0.0
C251 C 0.18475 0.29608 0.05071 0.0
C252 C 0.20572 0.22835 1.01472 0.0
C253 C 0.16668 0.27221 1.00177 0.0
C254 C 0.22578 0.19615 0.93429 0.0
C255 C 0.27203 0.16465 1.00121 0.0
N256 N 0.17829 0.24004 0.98468 0.0
N257 N 0.24643 0.18296 0.0223 0.0
H258 H 0.11297 0.32563 0.26141 0.0
H259 H 0.86174 0.20443 0.39297 0.0
H260 H -0.00645 0.31209 0.17177 0.0
H261 H 0.98403 0.30744 0.48207 0.0
H262 H 0.90927 0.22534 0.31121 0.0
H263 H 0.06488 0.30022 0.34264 0.0
C264 C 0.0764 0.31666 0.25854 0.0
C265 C 0.05714 0.32115 0.20976 0.0
C266 C 0.92562 0.24295 0.34883 0.0
C267 C 0.0022 0.29135 0.30239 0.0
C268 C 0.89882 0.23095 0.3956 0.0
C269 C 0.91914 0.25439 0.4444 0.0
C270 C 0.97333 0.27751 0.35128 0.0
C271 C 0.96716 0.28862 0.44525 0.0
C272 C 0.04926 0.30249 0.30504 0.0
C273 C 0.00965 0.30917 0.20862 0.0
N274 N -0.00707 0.29901 0.39918 0.0
N275 N 0.98348 0.29442 0.25448 0.0
H276 H 0.81495 0.13174 0.68843 0.0
H277 H 0.67786 0.85601 0.62313 0.0
H278 H 0.75632 0.07231 0.53238 0.0
H279 H 0.67636 0.91454 0.77873 0.0
H280 H 0.73173 0.93602 0.59009 0.0
H281 H 0.78873 0.05201 0.72203 0.0
C282 C 0.79735 0.10198 0.66114 0.0
C283 C 0.78673 0.10804 0.60809 0.0
C284 C 0.72016 0.93104 0.63172 0.0
C285 C 0.75776 0.01797 0.64549 0.0
C286 C 0.68962 0.88564 0.65048 0.0
C287 C 0.67215 0.87921 0.7032 0.0
C288 C 0.73362 0.96966 0.66638 0.0
C289 C 0.6884 0.91843 0.73737 0.0
C290 C 0.78246 0.05675 0.6802 0.0
C291 C 0.76413 0.06869 0.57399 0.0
N292 N 0.71806 0.96217 0.71824 0.0
N293 N 0.75006 0.02514 0.59338 0.0
H294 H 0.65067 0.78026 0.9175 0.0
H295 H 0.77999 0.65412 0.03736 0.0
H296 H 0.66845 0.67986 0.82252 0.0
H297 H 0.67703 0.66855 0.13155 0.0
H298 H 0.75839 0.68322 0.95851 0.0
H299 H 0.67968 0.75878 0.99668 0.0
C300 C 0.66142 0.75424 0.913 0.0
C301 C 0.65704 0.73158 0.86336 0.0
C302 C 0.74097 0.68039 0.99663 0.0
C303 C 0.69082 0.70778 0.95357 0.0
C304 C 0.75331 0.66407 0.04178 0.0
C305 C 0.72995 0.65864 0.09108 0.0
C306 C 0.70606 0.69265 1.0012 0.0
C307 C 0.69569 0.67207 0.09424 0.0
C308 C 0.67763 0.74192 0.95832 0.0
C309 C 0.67124 0.698 0.86009 0.0
N310 N 0.68481 0.68875 0.0497 0.0
N311 N 0.68783 0.68718 0.90479 0.0
H312 H 0.13383 0.82432 0.26274 0.0
H313 H 0.8567 0.69793 0.32149 0.0
H314 H 0.07311 0.79834 0.42207 0.0
H315 H 0.91726 0.67524 0.17794 0.0
H316 H 0.93627 0.75747 0.35128 0.0
H317 H 0.05439 0.79318 0.22404 0.0
C318 C 0.10392 0.8134 0.28942 0.0
C319 C 0.10941 0.81307 0.34539 0.0
C320 C 0.93188 0.73985 0.3129 0.0
C321 C 0.01951 0.77779 0.30205 0.0
C322 C 0.88665 0.70596 0.29598 0.0
C323 C 0.88073 0.68107 0.24785 0.0
C324 C 0.97106 0.74915 0.28101 0.0
C325 C 0.92054 0.69294 0.21599 0.0
C326 C 0.05877 0.79542 0.26748 0.0
C327 C 0.06986 0.79839 0.37856 0.0
N328 N 0.96413 0.72595 0.23332 0.0
N329 N 0.02638 0.78085 0.35637 0.0
H330 H 0.3671 0.01959 0.78224 0.0
H331 H 0.19665 0.93113 0.52661 0.0
H332 H 0.25741 0.05388 0.75868 0.0
H333 H 0.33797 0.95313 0.52304 0.0
H334 H 0.2121 0.96613 0.61692 0.0
H335 H 0.34827 0.98104 0.69359 0.0
C336 C 0.33828 0.01794 0.75905 0.0
C337 C 0.31375 0.03993 0.77761 0.0
C338 C 0.23991 0.96385 0.59604 0.0
C339 C 0.29288 -0.00299 0.67636 0.0
C340 C 0.23128 0.94431 0.54448 0.0
C341 C 0.26633 0.93991 0.51728 0.0
C342 C 0.28355 0.97815 0.62088 0.0
C343 C 0.31034 0.95676 0.54235 0.0
C344 C 0.32811 -0.00335 0.70822 0.0
C345 C 0.27721 0.0374 0.74566 0.0
N346 N 0.31758 0.97471 0.59319 0.0
N347 N 0.26796 0.01649 0.69641 0.0
H348 H 0.12617 0.32404 0.7433 0.0
H349 H 0.15448 0.4518 0.45913 0.0
H350 H 0.09191 0.4333 0.71846 0.0
H351 H 0.19498 0.3473 0.48596 0.0
H352 H 0.12765 0.44264 0.55264 0.0
H353 H 0.14807 0.32948 0.64823 0.0
C354 C 0.12328 0.34925 0.71795 0.0
C355 C 0.10735 0.37843 0.73928 0.0
C356 C 0.14235 0.42166 0.53809 0.0
C357 C 0.13216 0.3846 0.62982 0.0
C358 C 0.15749 0.42669 0.48452 0.0
C359 C 0.1772 0.40037 0.46443 0.0
C360 C 0.14679 0.38999 0.57212 0.0
C361 C 0.18072 0.36887 0.49972 0.0
C362 C 0.13563 0.35219 0.66351 0.0
C363 C 0.10353 0.40974 0.70393 0.0
N364 N 0.16571 0.36459 0.5517 0.0
N365 N 0.11602 0.41212 0.65115 0.0
H366 H 0.87348 0.24748 0.2026 0.0
H367 H 0.7876 0.22673 0.89553 0.0
H368 H 0.72751 0.18433 0.15361 0.0
H369 H 0.93462 0.30078 0.94203 0.0
H370 H 0.76566 0.20866 0.99004 0.0
H371 H 0.89717 0.26578 0.10803 0.0
C372 C 0.84636 0.23759 0.17211 0.0
C373 C 0.79829 0.21421 0.18639 0.0
C374 C 0.80276 0.22882 0.97973 0.0
C375 C 0.82531 0.23467 0.07773 0.0
C376 C 0.81537 0.2389 0.92557 0.0
C377 C 0.8631 0.26508 0.91054 0.0
C378 C 0.83802 0.24491 1.01964 0.0
C379 C 0.89738 0.28075 0.95167 0.0
C380 C 0.85996 0.24788 0.11803 0.0
C381 C 0.76488 0.20169 0.14476 0.0
N382 N 0.88419 0.27033 1.00428 0.0
N383 N 0.77901 0.21207 0.09256 0.0
H384 H 0.53805 0.64554 0.37431 0.0
H385 H 0.62576 0.84197 0.14318 0.0
H386 H 0.64384 0.79133 0.39996 0.0
H387 H 0.52446 0.69507 0.11597 0.0
H388 H 0.6335 0.82398 0.23702 0.0
H389 H 0.53417 0.66257 0.27917 0.0
C390 C 0.56086 0.68106 0.35994 0.0
C391 C 0.59125 0.71705 0.39555 0.0
C392 C 0.60963 0.79564 0.21052 0.0
C393 C 0.58639 0.737 0.28632 0.0
C394 C 0.60496 0.80595 0.15694 0.0
C395 C 0.57426 0.77005 0.12147 0.0
C396 C 0.58329 0.74906 0.2291 0.0
C397 C 0.5489 0.72387 0.14155 0.0
C398 C 0.55836 0.69083 0.30555 0.0
C399 C 0.61932 0.76256 0.37441 0.0
N400 N 0.55385 0.71477 0.19394 0.0
N401 N 0.61611 0.77121 0.32136 0.0
H402 H 0.69125 0.52894 0.84352 0.0
H403 H 0.79675 0.64566 0.55569 0.0
H404 H 0.84015 0.61895 0.81267 0.0
H405 H 0.64881 0.54771 0.58335 0.0
H406 H 0.81275 0.63935 0.65065 0.0
H407 H 0.67456 0.5388 0.74982 0.0
C408 C 0.72048 0.55102 0.81721 0.0
C409 C 0.76726 0.57305 0.83626 0.0
C410 C 0.77676 0.61931 0.63601 0.0
C411 C 0.74829 0.58419 0.72833 0.0
C412 C 0.76757 0.62272 0.5816 0.0
C413 C 0.72133 0.59697 0.56104 0.0
C414 C 0.7395 0.58993 0.67054 0.0
C415 C 0.68495 0.56863 0.5972 0.0
C416 C 0.71089 0.55642 0.76352 0.0
C417 C 0.8036 0.60069 0.79979 0.0
N418 N 0.69483 0.56576 0.64997 0.0
N419 N 0.79336 0.60546 0.74775 0.0
H420 H 0.24335 0.89877 0.76318 0.0
H421 H 0.2214 0.8056 0.06565 0.0
H422 H 0.18281 0.75216 0.80544 0.0
H423 H 0.31227 0.95151 0.02345 0.0
H424 H 0.20181 0.78665 0.97047 0.0
H425 H 0.26508 0.92003 0.85797 0.0
C426 C 0.23476 0.87101 0.79213 0.0
C427 C 0.21081 0.82343 0.77596 0.0
C428 C 0.22606 0.82285 0.98188 0.0
C429 C 0.235 0.84769 0.88484 0.0
C430 C 0.23699 0.83375 0.03632 0.0
C431 C 0.26835 0.88024 0.05259 0.0
C432 C 0.24629 0.8587 0.94308 0.0
C433 C 0.28813 0.91515 1.01261 0.0
C434 C 0.24702 0.88324 0.84635 0.0
C435 C 0.20019 0.78917 0.81579 0.0
N436 N 0.2766 0.90371 0.95968 0.0
N437 N 0.21217 0.80196 0.86815 0.0
H438 H 0.32206 0.18182 0.493 0.0
H439 H 0.42814 0.08667 0.26761 0.0
H440 H 0.41848 0.13233 0.52884 0.0
H441 H 0.31346 0.11262 0.23745 0.0
H442 H 0.42572 0.10384 0.36305 0.0
H443 H 0.31988 0.15849 0.39876 0.0
C444 C 0.34287 0.16614 0.48103 0.0
C445 C 0.37065 0.15923 0.51893 0.0
C446 C 0.40096 0.10559 0.33557 0.0
C447 C 0.36815 0.13217 0.41095 0.0
C448 C 0.40207 0.09546 0.28096 0.0
C449 C 0.37103 0.09826 0.24399 0.0
C450 C 0.36881 0.119 0.3536 0.0
C451 C 0.33871 0.1108 0.264 0.0
C452 C 0.34137 0.15254 0.42726 0.0
C453 C 0.39628 0.13802 0.50118 0.0
N454 N 0.33861 0.12089 0.31726 0.0
N455 N 0.39463 0.12552 0.44848 0.0
H456 H 0.12607 0.47155 0.25382 0.0
H457 H 0.20556 0.74424 0.24842 0.0
H458 H 0.16357 0.55355 0.10762 0.0
H459 H 0.17295 0.66216 0.39439 0.0
H460 H 0.18315 0.67352 0.19549 0.0
H461 H 0.13457 0.53895 0.30423 0.0
C462 C 0.13568 0.50371 0.23214 0.0
C463 C 0.1447 0.50712 0.17642 0.0
C464 C 0.18067 0.67088 0.23905 0.0
C465 C 0.15489 0.58486 0.23436 0.0
C466 C 0.19359 0.71133 0.26951 0.0
C467 C 0.19157 0.70935 0.32622 0.0
C468 C 0.16561 0.62792 0.26528 0.0
C469 C 0.17538 0.66552 0.3509 0.0
C470 C 0.14057 0.54225 0.26109 0.0
C471 C 0.15636 0.54944 0.1505 0.0
N472 N 0.16325 0.62662 0.32028 0.0
N473 N 0.16167 0.58692 0.17984 0.0
H474 H 0.7362 0.22088 0.71797 0.0
H475 H 0.45929 0.12725 0.7246 0.0
H476 H 0.64869 0.18703 0.57554 0.0
H477 H 0.54695 0.17197 0.86746 0.0
H478 H 0.5273 0.14187 0.67094 0.0
H479 H 0.66689 0.19775 0.77398 0.0
C480 C 0.70243 0.20864 0.69832 0.0
C481 C 0.69837 0.2061 0.64172 0.0
C482 C 0.53178 0.14827 0.71402 0.0
C483 C 0.61869 0.17924 0.70609 0.0
C484 C 0.49288 0.13983 0.74487 0.0
C485 C 0.49757 0.1489 0.80065 0.0
C486 C 0.57599 0.16611 0.7389 0.0
C487 C 0.54181 0.16456 0.82461 0.0
C488 C 0.66283 0.19535 0.73051 0.0
C489 C 0.65361 0.18983 0.61887 0.0
N490 N 0.57953 0.17311 0.79345 0.0
N491 N 0.61555 0.17704 0.65116 0.0
H492 H 0.32969 0.51532 0.07219 0.0
H493 H 0.41903 0.59951 0.77064 0.0
H494 H 0.23952 0.45916 0.93194 0.0
H495 H 0.50961 0.64548 0.91102 0.0
H496 H 0.35379 0.54268 0.82742 0.0
H497 H 0.39707 0.5601 1.01255 0.0
C498 C 0.32403 0.51239 0.02894 0.0
C499 C 0.27882 0.48367 1.00719 0.0
C500 C 0.38817 0.56486 0.84556 0.0
C501 C 0.35578 0.53466 0.93854 0.0
C502 C 0.4254 0.59697 0.81306 0.0
C503 C 0.46948 0.6276 0.83632 0.0
C504 C 0.39535 0.56365 0.90144 0.0
C505 C 0.47591 0.62306 0.89157 0.0
C506 C 0.36254 0.53779 0.99483 0.0
C507 C 0.27369 0.48099 0.95067 0.0
N508 N 0.43918 0.59213 0.92228 0.0
N509 N 0.31163 0.50634 0.91836 0.0
H510 H 0.86397 0.34042 0.3963 0.0
H511 H 0.76981 0.52076 0.37002 0.0
H512 H 0.81178 0.38383 0.53145 0.0
H513 H 0.80485 0.462 0.23368 0.0
H514 H 0.79386 0.47863 0.43068 0.0
H515 H 0.85356 0.3941 0.33835 0.0
C516 C 0.85092 0.36186 0.41398 0.0
C517 C 0.8381 0.35728 0.46866 0.0
C518 C 0.79642 0.47502 0.38754 0.0
C519 C 0.82558 0.41852 0.40215 0.0
C520 C 0.7826 0.49901 0.35266 0.0
C521 C 0.78508 0.49477 0.29639 0.0
C522 C 0.81301 0.44654 0.36624 0.0
C523 C 0.80203 0.46609 0.27664 0.0
C524 C 0.84482 0.39237 0.38074 0.0
C525 C 0.82205 0.38633 0.48953 0.0
N526 N 0.81529 0.443 0.31157 0.0
N527 N 0.81565 0.41539 0.456 0.0
H528 H 0.37492 0.81614 0.42937 0.0
H529 H 0.45366 0.79956 0.73116 0.0
H530 H 0.32722 0.85573 0.57193 0.0
H531 H 0.50943 0.76786 0.58943 0.0
H532 H 0.40877 0.82259 0.67259 0.0
H533 H 0.428 0.80225 0.48635 0.0
C534 C 0.37612 0.82256 0.4724 0.0
C535 C 0.34627 0.83659 0.49595 0.0
C536 C 0.43093 0.81068 0.65432 0.0
C537 C 0.40613 0.82027 0.56128 0.0
C538 C 0.45641 0.79733 0.68782 0.0
C539 C 0.48523 0.78156 0.66533 0.0
C540 C 0.43414 0.80809 0.59791 0.0
C541 C 0.48761 0.7797 0.60873 0.0
C542 C 0.40614 0.81437 0.50497 0.0
C543 C 0.34911 0.84427 0.55202 0.0
N544 N 0.46232 0.79266 0.57703 0.0
N545 N 0.37814 0.83567 0.58271 0.0
H546 H 0.64452 0.50862 0.04634 0.0
H547 H 0.44165 0.23839 0.04705 0.0
H548 H 0.59565 0.42505 0.1912 0.0
H549 H 0.49813 0.32098 0.90232 0.0
H550 H 0.49078 0.30829 0.10121 0.0
H551 H 0.5837 0.44299 0.9948 0.0
C552 C 0.6206 0.4765 0.06751 0.0
C553 C 0.62557 0.47207 0.12317 0.0
C554 C 0.49227 0.31124 0.05764 0.0
C555 C 0.5558 0.39634 0.06388 0.0
C556 C 0.46424 0.27126 0.02648 0.0
C557 C 0.46604 0.27359 0.96977 0.0
C558 C 0.52248 0.35406 0.03212 0.0
C559 C 0.49575 0.31736 0.94578 0.0
C560 C 0.58585 0.43897 0.0379 0.0
C561 C 0.59312 0.4299 0.14839 0.0
N562 N 0.523 0.35578 0.97709 0.0
N563 N 0.55989 0.39336 0.11839 0.0
loop_
_geom_bond_atom_site_label_1
_geom_bond_atom_site_label_2
_geom_bond_distance
_geom_bond_site_symmetry_2
_ccdc_geom_bond_type
Tb0 C10 2.825 . S
Tb0 O11 2.347 . S
Tb0 O14 2.366 . S
Tb0 O19 2.418 . S
Tb0 O20 2.384 . S
Tb0 O23 2.479 . S
Tb0 O24 2.471 . S
Eu1 O12 2.418 . S
Eu1 O13 2.384 . S
Eu1 O16 2.479 1_554 S
Eu1 O17 2.471 1_554 S
Eu1 O18 2.347 . S
Eu1 O21 2.366 1_554 S
Eu1 C31 2.825 1_554 S
C2 O18 1.259 . S
C2 O19 1.265 . S
C3 O20 1.255 1_556 S
C3 O21 1.265 . S
C4 C6 1.380 . S
C4 C7 1.374 . S
C4 C10 1.507 . S
C5 C6 1.384 . S
C5 C9 1.387 . S
C5 H32 0.930 . S
C6 C4 1.380 . S
C6 C5 1.384 . S
C6 H33 0.931 . S
C7 C4 1.374 . S
C7 C8 1.390 . S
C7 H34 0.930 . S
C8 C7 1.390 . S
C8 C9 1.391 . S
C8 H35 0.930 . S
C9 C5 1.387 . S
C9 C8 1.391 . S
C10 Tb0 2.825 . S
C10 C4 1.507 . S
C10 O23 1.238 . S
C10 O24 1.247 . S
O11 Tb0 2.347 . S
O11 C15 1.259 . S
O12 Eu1 2.418 . S
O12 C15 1.265 . S
O13 Eu1 2.384 . S
O13 C22 1.255 . S
O14 Tb0 2.366 . S
O14 C22 1.265 . S
C15 O11 1.259 . S
C15 O12 1.265 . S
O16 Eu1 2.479 1_556 S
O16 C31 1.238 . S
O17 Eu1 2.471 1_556 S
O17 C31 1.247 . S
O18 Eu1 2.347 . S
O18 C2 1.259 . S
O19 Tb0 2.418 . S
O19 C2 1.265 . S
O20 Tb0 2.384 . S
O20 C3 1.255 1_554 S
O21 Eu1 2.366 1_556 S
O21 C3 1.265 . S
C22 O13 1.255 . S
C22 O14 1.265 . S
O23 Tb0 2.479 . S
O23 C10 1.238 . S
O24 Tb0 2.471 . S
O24 C10 1.247 . S
C25 C28 1.380 . S
C25 C29 1.374 . S
C25 C31 1.507 . S
C26 C27 1.387 . S
C26 C30 1.391 . S
C27 C26 1.387 . S
C27 C28 1.384 . S
C27 H36 0.930 . S
C28 C25 1.380 . S
C28 C27 1.384 . S
C28 H37 0.931 . S
C29 C25 1.374 . S
C29 C30 1.390 . S
C29 H38 0.930 . S
C30 C26 1.391 . S
C30 C29 1.390 . S
C30 H39 0.930 . S
C31 Eu1 2.825 1_556 S
C31 O16 1.238 . S
C31 O17 1.247 . S
C31 C25 1.507 . S
H32 C5 0.930 . S
H33 C6 0.931 . S
H34 C7 0.930 . S
H35 C8 0.930 . S
H36 C27 0.930 . S
H37 C28 0.931 . S
H38 C29 0.930 . S
H39 C30 0.930 . S
Tb40 C50 2.825 . S
Tb40 O51 2.347 . S
Tb40 O54 2.366 . S
Tb40 O59 2.418 . S
Tb40 O60 2.384 . S
Tb40 O63 2.479 . S
Tb40 O64 2.471 . S
Eu41 O52 2.418 . S
Eu41 O53 2.384 . S
Eu41 O56 2.479 . S
Eu41 O57 2.471 . S
Eu41 O58 2.347 . S
Eu41 O61 2.366 . S
Eu41 C71 2.825 . S
C42 O58 1.259 . S
C42 O59 1.265 . S
C43 O60 1.255 . S
C43 O61 1.265 . S
C44 C46 1.380 . S
C44 C47 1.374 . S
C44 C50 1.507 . S
C45 C46 1.384 . S
C45 C49 1.387 . S
C45 H72 0.930 . S
C46 C44 1.380 . S
C46 C45 1.384 . S
C46 H73 0.931 . S
C47 C44 1.374 . S
C47 C48 1.390 . S
C47 H74 0.930 . S
C48 C47 1.390 . S
C48 C49 1.391 . S
C48 H75 0.930 . S
C49 C45 1.387 . S
C49 C48 1.391 . S
C50 Tb40 2.825 . S
C50 C44 1.507 . S
C50 O63 1.238 . S
C50 O64 1.247 . S
O51 Tb40 2.347 . S
O51 C55 1.259 . S
O52 Eu41 2.418 . S
O52 C55 1.265 . S
O53 Eu41 2.384 . S
O53 C62 1.255 . S
O54 Tb40 2.366 . S
O54 C62 1.265 . S
C55 O51 1.259 . S
C55 O52 1.265 . S
O56 Eu41 2.479 . S
O56 C71 1.238 . S
O57 Eu41 2.471 . S
O57 C71 1.247 . S
O58 Eu41 2.347 . S
O58 C42 1.259 . S
O59 Tb40 2.418 . S
O59 C42 1.265 . S
O60 Tb40 2.384 . S
O60 C43 1.255 . S
O61 Eu41 2.366 . S
O61 C43 1.265 . S
C62 O53 1.255 . S
C62 O54 1.265 . S
O63 Tb40 2.479 . S
O63 C50 1.238 . S
O64 Tb40 2.471 . S
O64 C50 1.247 . S
C65 C68 1.380 . S
C65 C69 1.374 . S
C65 C71 1.507 . S
C66 C67 1.387 . S
C66 C70 1.391 . S
C67 C66 1.387 . S
C67 C68 1.384 . S
C67 H76 0.930 . S
C68 C65 1.380 . S
C68 C67 1.384 . S
C68 H77 0.931 . S
C69 C65 1.374 . S
C69 C70 1.390 . S
C69 H78 0.930 . S
C70 C66 1.391 . S
C70 C69 1.390 . S
C70 H79 0.930 . S
C71 Eu41 2.825 . S
C71 O56 1.238 . S
C71 O57 1.247 . S
C71 C65 1.507 . S
H72 C45 0.930 . S
H73 C46 0.931 . S
H74 C47 0.930 . S
H75 C48 0.930 . S
H76 C67 0.930 . S
H77 C68 0.931 . S
H78 C69 0.930 . S
H79 C70 0.930 . S
Tb80 C90 2.825 . S
Tb80 O91 2.347 . S
Tb80 O94 2.366 . S
Tb80 O99 2.418 . S
Tb80 O100 2.384 . S
Tb80 O103 2.479 . S
Tb80 O104 2.471 . S
Eu81 O92 2.418 . S
Eu81 O93 2.384 . S
Eu81 O96 2.479 . S
Eu81 O97 2.471 . S
Eu81 O98 2.347 . S
Eu81 O101 2.366 . S
Eu81 C111 2.825 . S
C82 O98 1.259 . S
C82 O99 1.265 . S
C83 O100 1.255 . S
C83 O101 1.265 . S
C84 C86 1.380 . S
C84 C87 1.374 . S
C84 C90 1.507 . S
C85 C86 1.384 1_554 S
C85 C89 1.387 . S
C85 H112 0.930 . S
C86 C84 1.380 . S
C86 C85 1.384 1_556 S
C86 H113 0.931 . S
C87 C84 1.374 . S
C87 C88 1.390 1_556 S
C87 H114 0.930 . S
C88 C87 1.390 1_554 S
C88 C89 1.391 . S
C88 H115 0.930 . S
C89 C85 1.387 . S
C89 C88 1.391 . S
C90 Tb80 2.825 . S
C90 C84 1.507 . S
C90 O103 1.238 . S
C90 O104 1.247 . S
O91 Tb80 2.347 . S
O91 C95 1.259 . S
O92 Eu81 2.418 . S
O92 C95 1.265 . S
O93 Eu81 2.384 . S
O93 C102 1.255 . S
O94 Tb80 2.366 . S
O94 C102 1.265 . S
C95 O91 1.259 . S
C95 O92 1.265 . S
O96 Eu81 2.479 . S
O96 C111 1.238 . S
O97 Eu81 2.471 . S
O97 C111 1.247 . S
O98 Eu81 2.347 . S
O98 C82 1.259 . S
O99 Tb80 2.418 . S
O99 C82 1.265 . S
O100 Tb80 2.384 . S
O100 C83 1.255 . S
O101 Eu81 2.366 . S
O101 C83 1.265 . S
C102 O93 1.255 . S
C102 O94 1.265 . S
O103 Tb80 2.479 . S
O103 C90 1.238 . S
O104 Tb80 2.471 . S
O104 C90 1.247 . S
C105 C108 1.380 . S
C105 C109 1.374 . S
C105 C111 1.507 . S
C106 C107 1.387 . S
C106 C110 1.391 . S
C107 C106 1.387 . S
C107 C108 1.384 . S
C107 H116 0.930 . S
C108 C105 1.380 . S
C108 C107 1.384 . S
C108 H117 0.931 . S
C109 C105 1.374 . S
C109 C110 1.390 . S
C109 H118 0.930 . S
C110 C106 1.391 . S
C110 C109 1.390 . S
C110 H119 0.930 . S
C111 Eu81 2.825 . S
C111 O96 1.238 . S
C111 O97 1.247 . S
C111 C105 1.507 . S
H112 C85 0.930 . S
H113 C86 0.931 . S
H114 C87 0.930 . S
H115 C88 0.930 . S
H116 C107 0.930 . S
H117 C108 0.931 . S
H118 C109 0.930 . S
H119 C110 0.930 . S
Tb120 C130 2.825 . S
Tb120 O131 2.347 . S
Tb120 O134 2.366 . S
Tb120 O139 2.418 . S
Tb120 O140 2.384 . S
Tb120 O143 2.479 . S
Tb120 O144 2.471 . S
Eu121 O132 2.418 . S
Eu121 O133 2.384 . S
Eu121 O136 2.479 . S
Eu121 O137 2.471 . S
Eu121 O138 2.347 . S
Eu121 O141 2.366 . S
Eu121 C151 2.825 . S
C122 O138 1.259 . S
C122 O139 1.265 . S
C123 O140 1.255 . S
C123 O141 1.265 . S
C124 C126 1.380 . S
C124 C127 1.374 . S
C124 C130 1.507 1_556 S
C125 C126 1.384 . S
C125 C129 1.387 . S
C125 H152 0.930 . S
C126 C124 1.380 . S
C126 C125 1.384 . S
C126 H153 0.931 . S
C127 C124 1.374 . S
C127 C128 1.390 . S
C127 H154 0.930 . S
C128 C127 1.390 . S
C128 C129 1.391 . S
C128 H155 0.930 . S
C129 C125 1.387 . S
C129 C128 1.391 . S
C130 Tb120 2.825 . S
C130 C124 1.507 1_554 S
C130 O143 1.238 . S
C130 O144 1.247 . S
O131 Tb120 2.347 . S
O131 C135 1.259 . S
O132 Eu121 2.418 . S
O132 C135 1.265 . S
O133 Eu121 2.384 . S
O133 C142 1.255 . S
O134 Tb120 2.366 . S
O134 C142 1.265 . S
C135 O131 1.259 . S
C135 O132 1.265 . S
O136 Eu121 2.479 . S
O136 C151 1.238 . S
O137 Eu121 2.471 . S
O137 C151 1.247 . S
O138 Eu121 2.347 . S
O138 C122 1.259 . S
O139 Tb120 2.418 . S
O139 C122 1.265 . S
O140 Tb120 2.384 . S
O140 C123 1.255 . S
O141 Eu121 2.366 . S
O141 C123 1.265 . S
C142 O133 1.255 . S
C142 O134 1.265 . S
O143 Tb120 2.479 . S
O143 C130 1.238 . S
O144 Tb120 2.471 . S
O144 C130 1.247 . S
C145 C148 1.380 . S
C145 C149 1.374 . S
C145 C151 1.507 . S
C146 C147 1.387 . S
C146 C150 1.391 . S
C147 C146 1.387 . S
C147 C148 1.384 . S
C147 H156 0.930 . S
C148 C145 1.380 . S
C148 C147 1.384 . S
C148 H157 0.931 . S
C149 C145 1.374 . S
C149 C150 1.390 . S
C149 H158 0.930 . S
C150 C146 1.391 . S
C150 C149 1.390 . S
C150 H159 0.930 . S
C151 Eu121 2.825 . S
C151 O136 1.238 . S
C151 O137 1.247 . S
C151 C145 1.507 . S
H152 C125 0.930 . S
H153 C126 0.931 . S
H154 C127 0.930 . S
H155 C128 0.930 . S
H156 C147 0.930 . S
H157 C148 0.931 . S
H158 C149 0.930 . S
H159 C150 0.930 . S
Tb160 C170 2.825 . S
Tb160 O171 2.347 . S
Tb160 O174 2.366 . S
Tb160 O179 2.418 . S
Tb160 O180 2.384 . S
Tb160 O183 2.479 . S
Tb160 O184 2.471 . S
Eu161 O172 2.418 . S
Eu161 O173 2.384 . S
Eu161 O176 2.479 . S
Eu161 O177 2.471 . S
Eu161 O178 2.347 . S
Eu161 O181 2.366 . S
Eu161 C191 2.825 . S
C162 O178 1.259 . S
C162 O179 1.265 . S
C163 O180 1.255 . S
C163 O181 1.265 . S
C164 C166 1.380 . S
C164 C167 1.374 . S
C164 C170 1.507 . S
C165 C166 1.384 . S
C165 C169 1.387 . S
C165 H192 0.930 . S
C166 C164 1.380 . S
C166 C165 1.384 . S
C166 H193 0.931 . S
C167 C164 1.374 . S
C167 C168 1.390 . S
C167 H194 0.930 . S
C168 C167 1.390 . S
C168 C169 1.391 . S
C168 H195 0.930 . S
C169 C165 1.387 . S
C169 C168 1.391 . S
C170 Tb160 2.825 . S
C170 C164 1.507 . S
C170 O183 1.238 . S
C170 O184 1.247 . S
O171 Tb160 2.347 . S
O171 C175 1.259 . S
O172 Eu161 2.418 . S
O172 C175 1.265 . S
O173 Eu161 2.384 . S
O173 C182 1.255 . S
O174 Tb160 2.366 . S
O174 C182 1.265 . S
C175 O171 1.259 . S
C175 O172 1.265 . S
O176 Eu161 2.479 . S
O176 C191 1.238 . S
O177 Eu161 2.471 . S
O177 C191 1.247 . S
O178 Eu161 2.347 . S
O178 C162 1.259 . S
O179 Tb160 2.418 . S
O179 C162 1.265 . S
O180 Tb160 2.384 . S
O180 C163 1.255 . S
O181 Eu161 2.366 . S
O181 C163 1.265 . S
C182 O173 1.255 . S
C182 O174 1.265 . S
O183 Tb160 2.479 . S
O183 C170 1.238 . S
O184 Tb160 2.471 . S
O184 C170 1.247 . S
C185 C188 1.380 . S
C185 C189 1.374 . S
C185 C191 1.507 . S
C186 C187 1.387 . S
C186 C190 1.391 . S
C187 C186 1.387 . S
C187 C188 1.384 . S
C187 H196 0.930 . S
C188 C185 1.380 . S
C188 C187 1.384 . S
C188 H197 0.931 . S
C189 C185 1.374 . S
C189 C190 1.390 . S
C189 H198 0.930 . S
C190 C186 1.391 . S
C190 C189 1.390 . S
C190 H199 0.930 . S
C191 Eu161 2.825 . S
C191 O176 1.238 . S
C191 O177 1.247 . S
C191 C185 1.507 . S
H192 C165 0.930 . S
H193 C166 0.931 . S
H194 C167 0.930 . S
H195 C168 0.930 . S
H196 C187 0.930 . S
H197 C188 0.931 . S
H198 C189 0.930 . S
H199 C190 0.930 . S
Tb200 C210 2.825 . S
Tb200 O211 2.347 . S
Tb200 O214 2.366 . S
Tb200 O219 2.418 . S
Tb200 O220 2.384 . S
Tb200 O223 2.479 . S
Tb200 O224 2.471 . S
Eu201 O212 2.418 . S
Eu201 O213 2.384 . S
Eu201 O216 2.479 1_556 S
Eu201 O217 2.471 1_556 S
Eu201 O218 2.347 . S
Eu201 O221 2.366 . S
Eu201 C231 2.825 1_556 S
C202 O218 1.259 . S
C202 O219 1.265 . S
C203 O220 1.255 . S
C203 O221 1.265 . S
C204 C206 1.380 . S
C204 C207 1.374 . S
C204 C210 1.507 . S
C205 C206 1.384 . S
C205 C209 1.387 . S
C205 H232 0.930 . S
C206 C204 1.380 . S
C206 C205 1.384 . S
C206 H233 0.931 . S
C207 C204 1.374 . S
C207 C208 1.390 . S
C207 H234 0.930 . S
C208 C207 1.390 . S
C208 C209 1.391 . S
C208 H235 0.930 . S
C209 C205 1.387 . S
C209 C208 1.391 . S
C210 Tb200 2.825 . S
C210 C204 1.507 . S
C210 O223 1.238 . S
C210 O224 1.247 . S
O211 Tb200 2.347 . S
O211 C215 1.259 . S
O212 Eu201 2.418 . S
O212 C215 1.265 . S
O213 Eu201 2.384 . S
O213 C222 1.255 . S
O214 Tb200 2.366 . S
O214 C222 1.265 . S
C215 O211 1.259 . S
C215 O212 1.265 . S
O216 Eu201 2.479 1_554 S
O216 C231 1.238 . S
O217 Eu201 2.471 1_554 S
O217 C231 1.247 . S
O218 Eu201 2.347 . S
O218 C202 1.259 . S
O219 Tb200 2.418 . S
O219 C202 1.265 . S
O220 Tb200 2.384 . S
O220 C203 1.255 . S
O221 Eu201 2.366 . S
O221 C203 1.265 . S
C222 O213 1.255 . S
C222 O214 1.265 . S
O223 Tb200 2.479 . S
O223 C210 1.238 . S
O224 Tb200 2.471 . S
O224 C210 1.247 . S
C225 C228 1.380 . S
C225 C229 1.374 . S
C225 C231 1.507 . S
C226 C227 1.387 . S
C226 C230 1.391 . S
C227 C226 1.387 . S
C227 C228 1.384 . S
C227 H236 0.930 . S
C228 C225 1.380 . S
C228 C227 1.384 . S
C228 H237 0.931 . S
C229 C225 1.374 . S
C229 C230 1.390 . S
C229 H238 0.930 . S
C230 C226 1.391 . S
C230 C229 1.390 . S
C230 H239 0.930 . S
C231 Eu201 2.825 1_554 S
C231 O216 1.238 . S
C231 O217 1.247 . S
C231 C225 1.507 . S
H232 C205 0.930 . S
H233 C206 0.931 . S
H234 C207 0.930 . S
H235 C208 0.930 . S
H236 C227 0.930 . S
H237 C228 0.931 . S
H238 C229 0.930 . S
H239 C230 0.930 . S
H240 C246 0.930 . S
H241 C250 0.930 . S
H242 C255 0.929 . S
H243 C253 0.929 . S
H244 C248 0.929 . S
H245 C254 0.929 . S
C246 H240 0.930 . S
C246 C247 1.367 . S
C246 C254 1.378 . S
C247 C246 1.367 . S
C247 C255 1.433 . S
C248 H244 0.929 . S
C248 C250 1.378 . S
C248 C252 1.350 1_554 S
C249 C252 1.463 . S
C249 C254 1.350 . S
C249 N257 1.427 . S
C250 H241 0.930 . S
C250 C248 1.378 . S
C250 C251 1.367 . S
C251 C250 1.367 . S
C251 C253 1.433 1_554 S
C252 C248 1.350 1_556 S
C252 C249 1.463 . S
C252 N256 1.427 . S
C253 H243 0.929 . S
C253 C251 1.433 1_556 S
C253 N256 1.384 . S
C254 H245 0.929 . S
C254 C246 1.378 . S
C254 C249 1.350 . S
C255 H242 0.929 . S
C255 C247 1.433 . S
C255 N257 1.384 . S
N256 C252 1.427 . S
N256 C253 1.384 . S
N257 C249 1.427 . S
N257 C255 1.384 . S
H258 C264 0.930 . S
H259 C268 0.930 . S
H260 C273 0.929 1_655 S
H261 C271 0.929 1_455 S
H262 C266 0.929 . S
H263 C272 0.929 . S
C264 H258 0.930 . S
C264 C265 1.367 . S
C264 C272 1.378 . S
C265 C264 1.367 . S
C265 C273 1.433 . S
C266 H262 0.929 . S
C266 C268 1.378 . S
C266 C270 1.350 . S
C267 C270 1.463 1_455 S
C267 C272 1.350 . S
C267 N275 1.427 1_455 S
C268 H259 0.930 . S
C268 C266 1.378 . S
C268 C269 1.367 . S
C269 C268 1.367 . S
C269 C271 1.433 . S
C270 C266 1.350 . S
C270 C267 1.463 1_655 S
C270 N274 1.427 1_655 S
C271 H261 0.929 1_655 S
C271 C269 1.433 . S
C271 N274 1.384 1_655 S
C272 H263 0.929 . S
C272 C264 1.378 . S
C272 C267 1.350 . S
C273 H260 0.929 1_455 S
C273 C265 1.433 . S
C273 N275 1.384 1_455 S
N274 C270 1.427 1_455 S
N274 C271 1.384 1_455 S
N275 C267 1.427 1_655 S
N275 C273 1.384 1_655 S
H276 C282 0.930 . S
H277 C286 0.930 . S
H278 C291 0.929 . S
H279 C289 0.929 . S
H280 C284 0.929 . S
H281 C290 0.929 . S
C282 H276 0.930 . S
C282 C283 1.367 . S
C282 C290 1.378 . S
C283 C282 1.367 . S
C283 C291 1.433 . S
C284 H280 0.929 . S
C284 C286 1.378 . S
C284 C288 1.350 . S
C285 C288 1.463 1_545 S
C285 C290 1.350 . S
C285 N293 1.427 . S
C286 H277 0.930 . S
C286 C284 1.378 . S
C286 C287 1.367 . S
C287 C286 1.367 . S
C287 C289 1.433 . S
C288 C284 1.350 . S
C288 C285 1.463 1_565 S
C288 N292 1.427 . S
C289 H279 0.929 . S
C289 C287 1.433 . S
C289 N292 1.384 . S
C290 H281 0.929 . S
C290 C282 1.378 . S
C290 C285 1.350 . S
C291 H278 0.929 . S
C291 C283 1.433 . S
C291 N293 1.384 . S
N292 C288 1.427 . S
N292 C289 1.384 . S
N293 C285 1.427 . S
N293 C291 1.384 . S
H294 C300 0.930 . S
H295 C304 0.930 . S
H296 C309 0.929 . S
H297 C307 0.929 . S
H298 C302 0.929 . S
H299 C308 0.929 . S
C300 H294 0.930 . S
C300 C301 1.367 . S
C300 C308 1.378 . S
C301 C300 1.367 . S
C301 C309 1.433 . S
C302 H298 0.929 . S
C302 C304 1.378 1_556 S
C302 C306 1.350 . S
C303 C306 1.463 . S
C303 C308 1.350 . S
C303 N311 1.427 . S
C304 H295 0.930 . S
C304 C302 1.378 1_554 S
C304 C305 1.367 . S
C305 C304 1.367 . S
C305 C307 1.433 . S
C306 C302 1.350 . S
C306 C303 1.463 . S
C306 N310 1.427 1_556 S
C307 H297 0.929 . S
C307 C305 1.433 . S
C307 N310 1.384 . S
C308 H299 0.929 . S
C308 C300 1.378 . S
C308 C303 1.350 . S
C309 H296 0.929 . S
C309 C301 1.433 . S
C309 N311 1.384 . S
N310 C306 1.427 1_554 S
N310 C307 1.384 . S
N311 C303 1.427 . S
N311 C309 1.384 . S
H312 C318 0.930 . S
H313 C322 0.930 . S
H314 C327 0.929 . S
H315 C325 0.929 . S
H316 C320 0.929 . S
H317 C326 0.929 . S
C318 H312 0.930 . S
C318 C319 1.367 . S
C318 C326 1.378 . S
C319 C318 1.367 . S
C319 C327 1.433 . S
C320 H316 0.929 . S
C320 C322 1.378 . S
C320 C324 1.350 . S
C321 C324 1.463 1_455 S
C321 C326 1.350 . S
C321 N329 1.427 . S
C322 H313 0.930 . S
C322 C320 1.378 . S
C322 C323 1.367 . S
C323 C322 1.367 . S
C323 C325 1.433 . S
C324 C320 1.350 . S
C324 C321 1.463 1_655 S
C324 N328 1.427 . S
C325 H315 0.929 . S
C325 C323 1.433 . S
C325 N328 1.384 . S
C326 H317 0.929 . S
C326 C318 1.378 . S
C326 C321 1.350 . S
C327 H314 0.929 . S
C327 C319 1.433 . S
C327 N329 1.384 . S
N328 C324 1.427 . S
N328 C325 1.384 . S
N329 C321 1.427 . S
N329 C327 1.384 . S
H330 C336 0.930 . S
H331 C340 0.930 . S
H332 C345 0.929 . S
H333 C343 0.929 . S
H334 C338 0.929 . S
H335 C344 0.929 . S
C336 H330 0.930 . S
C336 C337 1.367 . S
C336 C344 1.378 . S
C337 C336 1.367 . S
C337 C345 1.433 . S
C338 H334 0.929 . S
C338 C340 1.378 . S
C338 C342 1.350 . S
C339 C342 1.463 1_545 S
C339 C344 1.350 . S
C339 N347 1.427 1_545 S
C340 H331 0.930 . S
C340 C338 1.378 . S
C340 C341 1.367 . S
C341 C340 1.367 . S
C341 C343 1.433 . S
C342 C338 1.350 . S
C342 C339 1.463 1_565 S
C342 N346 1.427 1_565 S
C343 H333 0.929 . S
C343 C341 1.433 . S
C343 N346 1.384 1_565 S
C344 H335 0.929 . S
C344 C336 1.378 . S
C344 C339 1.350 . S
C345 H332 0.929 . S
C345 C337 1.433 . S
C345 N347 1.384 1_545 S
N346 C342 1.427 1_545 S
N346 C343 1.384 1_545 S
N347 C339 1.427 1_565 S
N347 C345 1.384 1_565 S
H348 C354 0.930 . S
H349 C358 0.930 . S
H350 C363 0.929 . S
H351 C361 0.929 . S
H352 C356 0.929 . S
H353 C362 0.929 . S
C354 H348 0.930 . S
C354 C355 1.367 . S
C354 C362 1.378 . S
C355 C354 1.367 . S
C355 C363 1.433 . S
C356 H352 0.929 . S
C356 C358 1.378 . S
C356 C360 1.350 . S
C357 C360 1.463 . S
C357 C362 1.350 . S
C357 N365 1.427 . S
C358 H349 0.930 . S
C358 C356 1.378 . S
C358 C359 1.367 . S
C359 C358 1.367 . S
C359 C361 1.433 . S
C360 C356 1.350 . S
C360 C357 1.463 . S
C360 N364 1.427 . S
C361 H351 0.929 . S
C361 C359 1.433 . S
C361 N364 1.384 . S
C362 H353 0.929 . S
C362 C354 1.378 . S
C362 C357 1.350 . S
C363 H350 0.929 . S
C363 C355 1.433 . S
C363 N365 1.384 . S
N364 C360 1.427 . S
N364 C361 1.384 . S
N365 C357 1.427 . S
N365 C363 1.384 . S
H366 C372 0.930 . S
H367 C376 0.930 . S
H368 C381 0.929 . S
H369 C379 0.929 . S
H370 C374 0.929 . S
H371 C380 0.929 . S
C372 H366 0.930 . S
C372 C373 1.367 . S
C372 C380 1.378 . S
C373 C372 1.367 . S
C373 C381 1.433 . S
C374 H370 0.929 . S
C374 C376 1.378 . S
C374 C378 1.350 1_556 S
C375 C378 1.463 . S
C375 C380 1.350 . S
C375 N383 1.427 . S
C376 H367 0.930 . S
C376 C374 1.378 . S
C376 C377 1.367 . S
C377 C376 1.367 . S
C377 C379 1.433 . S
C378 C374 1.350 1_554 S
C378 C375 1.463 . S
C378 N382 1.427 1_554 S
C379 H369 0.929 . S
C379 C377 1.433 . S
C379 N382 1.384 . S
C380 H371 0.929 . S
C380 C372 1.378 . S
C380 C375 1.350 . S
C381 H368 0.929 . S
C381 C373 1.433 . S
C381 N383 1.384 . S
N382 C378 1.427 1_556 S
N382 C379 1.384 . S
N383 C375 1.427 . S
N383 C381 1.384 . S
H384 C390 0.930 . S
H385 C394 0.930 . S
H386 C399 0.929 . S
H387 C397 0.929 . S
H388 C392 0.929 . S
H389 C398 0.929 . S
C390 H384 0.930 . S
C390 C391 1.367 . S
C390 C398 1.378 . S
C391 C390 1.367 . S
C391 C399 1.433 . S
C392 H388 0.929 . S
C392 C394 1.378 . S
C392 C396 1.350 . S
C393 C396 1.463 . S
C393 C398 1.350 . S
C393 N401 1.427 . S
C394 H385 0.930 . S
C394 C392 1.378 . S
C394 C395 1.367 . S
C395 C394 1.367 . S
C395 C397 1.433 . S
C396 C392 1.350 . S
C396 C393 1.463 . S
C396 N400 1.427 . S
C397 H387 0.929 . S
C397 C395 1.433 . S
C397 N400 1.384 . S
C398 H389 0.929 . S
C398 C390 1.378 . S
C398 C393 1.350 . S
C399 H386 0.929 . S
C399 C391 1.433 . S
C399 N401 1.384 . S
N400 C396 1.427 . S
N400 C397 1.384 . S
N401 C393 1.427 . S
N401 C399 1.384 . S
H402 C408 0.930 . S
H403 C412 0.930 . S
H404 C417 0.929 . S
H405 C415 0.929 . S
H406 C410 0.929 . S
H407 C416 0.929 . S
C408 H402 0.930 . S
C408 C409 1.367 . S
C408 C416 1.378 . S
C409 C408 1.367 . S
C409 C417 1.433 . S
C410 H406 0.929 . S
C410 C412 1.378 . S
C410 C414 1.350 . S
C411 C414 1.463 . S
C411 C416 1.350 . S
C411 N419 1.427 . S
C412 H403 0.930 . S
C412 C410 1.378 . S
C412 C413 1.367 . S
C413 C412 1.367 . S
C413 C415 1.433 . S
C414 C410 1.350 . S
C414 C411 1.463 . S
C414 N418 1.427 . S
C415 H405 0.929 . S
C415 C413 1.433 . S
C415 N418 1.384 . S
C416 H407 0.929 . S
C416 C408 1.378 . S
C416 C411 1.350 . S
C417 H404 0.929 . S
C417 C409 1.433 . S
C417 N419 1.384 . S
N418 C414 1.427 . S
N418 C415 1.384 . S
N419 C411 1.427 . S
N419 C417 1.384 . S
H420 C426 0.930 . S
H421 C430 0.930 . S
H422 C435 0.929 . S
H423 C433 0.929 . S
H424 C428 0.929 . S
H425 C434 0.929 . S
C426 H420 0.930 . S
C426 C427 1.367 . S
C426 C434 1.378 . S
C427 C426 1.367 . S
C427 C435 1.433 . S
C428 H424 0.929 . S
C428 C430 1.378 1_556 S
C428 C432 1.350 . S
C429 C432 1.463 . S
C429 C434 1.350 . S
C429 N437 1.427 . S
C430 H421 0.930 . S
C430 C428 1.378 1_554 S
C430 C431 1.367 . S
C431 C430 1.367 . S
C431 C433 1.433 1_554 S
C432 C428 1.350 . S
C432 C429 1.463 . S
C432 N436 1.427 . S
C433 H423 0.929 . S
C433 C431 1.433 1_556 S
C433 N436 1.384 . S
C434 H425 0.929 . S
C434 C426 1.378 . S
C434 C429 1.350 . S
C435 H422 0.929 . S
C435 C427 1.433 . S
C435 N437 1.384 . S
N436 C432 1.427 . S
N436 C433 1.384 . S
N437 C429 1.427 . S
N437 C435 1.384 . S
H438 C444 0.930 . S
H439 C448 0.930 . S
H440 C453 0.929 . S
H441 C451 0.929 . S
H442 C446 0.929 . S
H443 C452 0.929 . S
C444 H438 0.930 . S
C444 C445 1.367 . S
C444 C452 1.378 . S
C445 C444 1.367 . S
C445 C453 1.433 . S
C446 H442 0.929 . S
C446 C448 1.378 . S
C446 C450 1.350 . S
C447 C450 1.463 . S
C447 C452 1.350 . S
C447 N455 1.427 . S
C448 H439 0.930 . S
C448 C446 1.378 . S
C448 C449 1.367 . S
C449 C448 1.367 . S
C449 C451 1.433 . S
C450 C446 1.350 . S
C450 C447 1.463 . S
C450 N454 1.427 . S
C451 H441 0.929 . S
C451 C449 1.433 . S
C451 N454 1.384 . S
C452 H443 0.929 . S
C452 C444 1.378 . S
C452 C447 1.350 . S
C453 H440 0.929 . S
C453 C445 1.433 . S
C453 N455 1.384 . S
N454 C450 1.427 . S
N454 C451 1.384 . S
N455 C447 1.427 . S
N455 C453 1.384 . S
H456 C462 0.930 . S
H457 C466 0.930 . S
H458 C471 0.929 . S
H459 C469 0.929 . S
H460 C464 0.929 . S
H461 C470 0.929 . S
C462 H456 0.930 . S
C462 C463 1.367 . S
C462 C470 1.378 . S
C463 C462 1.367 . S
C463 C471 1.433 . S
C464 H460 0.929 . S
C464 C466 1.378 . S
C464 C468 1.350 . S
C465 C468 1.463 . S
C465 C470 1.350 . S
C465 N473 1.427 . S
C466 H457 0.930 . S
C466 C464 1.378 . S
C466 C467 1.367 . S
C467 C466 1.367 . S
C467 C469 1.433 . S
C468 C464 1.350 . S
C468 C465 1.463 . S
C468 N472 1.427 . S
C469 H459 0.929 . S
C469 C467 1.433 . S
C469 N472 1.384 . S
C470 H461 0.929 . S
C470 C462 1.378 . S
C470 C465 1.350 . S
C471 H458 0.929 . S
C471 C463 1.433 . S
C471 N473 1.384 . S
N472 C468 1.427 . S
N472 C469 1.384 . S
N473 C465 1.427 . S
N473 C471 1.384 . S
H474 C480 0.930 . S
H475 C484 0.930 . S
H476 C489 0.929 . S
H477 C487 0.929 . S
H478 C482 0.929 . S
H479 C488 0.929 . S
C480 H474 0.930 . S
C480 C481 1.367 . S
C480 C488 1.378 . S
C481 C480 1.367 . S
C481 C489 1.433 . S
C482 H478 0.929 . S
C482 C484 1.378 . S
C482 C486 1.350 . S
C483 C486 1.463 . S
C483 C488 1.350 . S
C483 N491 1.427 . S
C484 H475 0.930 . S
C484 C482 1.378 . S
C484 C485 1.367 . S
C485 C484 1.367 . S
C485 C487 1.433 . S
C486 C482 1.350 . S
C486 C483 1.463 . S
C486 N490 1.427 . S
C487 H477 0.929 . S
C487 C485 1.433 . S
C487 N490 1.384 . S
C488 H479 0.929 . S
C488 C480 1.378 . S
C488 C483 1.350 . S
C489 H476 0.929 . S
C489 C481 1.433 . S
C489 N491 1.384 . S
N490 C486 1.427 . S
N490 C487 1.384 . S
N491 C483 1.427 . S
N491 C489 1.384 . S
H492 C498 0.930 1_554 S
H493 C502 0.930 . S
H494 C507 0.929 . S
H495 C505 0.929 . S
H496 C500 0.929 . S
H497 C506 0.929 . S
C498 H492 0.930 1_556 S
C498 C499 1.367 . S
C498 C506 1.378 . S
C499 C498 1.367 . S
C499 C507 1.433 . S
C500 H496 0.929 . S
C500 C502 1.378 . S
C500 C504 1.350 . S
C501 C504 1.463 . S
C501 C506 1.350 . S
C501 N509 1.427 . S
C502 H493 0.930 . S
C502 C500 1.378 . S
C502 C503 1.367 . S
C503 C502 1.367 . S
C503 C505 1.433 . S
C504 C500 1.350 . S
C504 C501 1.463 . S
C504 N508 1.427 . S
C505 H495 0.929 . S
C505 C503 1.433 . S
C505 N508 1.384 . S
C506 H497 0.929 . S
C506 C498 1.378 . S
C506 C501 1.350 . S
C507 H494 0.929 . S
C507 C499 1.433 . S
C507 N509 1.384 . S
N508 C504 1.427 . S
N508 C505 1.384 . S
N509 C501 1.427 . S
N509 C507 1.384 . S
H510 C516 0.930 . S
H511 C520 0.930 . S
H512 C525 0.929 . S
H513 C523 0.929 . S
H514 C518 0.929 . S
H515 C524 0.929 . S
C516 H510 0.930 . S
C516 C517 1.367 . S
C516 C524 1.378 . S
C517 C516 1.367 . S
C517 C525 1.433 . S
C518 H514 0.929 . S
C518 C520 1.378 . S
C518 C522 1.350 . S
C519 C522 1.463 . S
C519 C524 1.350 . S
C519 N527 1.427 . S
C520 H511 0.930 . S
C520 C518 1.378 . S
C520 C521 1.367 . S
C521 C520 1.367 . S
C521 C523 1.433 . S
C522 C518 1.350 . S
C522 C519 1.463 . S
C522 N526 1.427 . S
C523 H513 0.929 . S
C523 C521 1.433 . S
C523 N526 1.384 . S
C524 H515 0.929 . S
C524 C516 1.378 . S
C524 C519 1.350 . S
C525 H512 0.929 . S
C525 C517 1.433 . S
C525 N527 1.384 . S
N526 C522 1.427 . S
N526 C523 1.384 . S
N527 C519 1.427 . S
N527 C525 1.384 . S
H528 C534 0.930 . S
H529 C538 0.930 . S
H530 C543 0.929 . S
H531 C541 0.929 . S
H532 C536 0.929 . S
H533 C542 0.929 . S
C534 H528 0.930 . S
C534 C535 1.367 . S
C534 C542 1.378 . S
C535 C534 1.367 . S
C535 C543 1.433 . S
C536 H532 0.929 . S
C536 C538 1.378 . S
C536 C540 1.350 . S
C537 C540 1.463 . S
C537 C542 1.350 . S
C537 N545 1.427 . S
C538 H529 0.930 . S
C538 C536 1.378 . S
C538 C539 1.367 . S
C539 C538 1.367 . S
C539 C541 1.433 . S
C540 C536 1.350 . S
C540 C537 1.463 . S
C540 N544 1.427 . S
C541 H531 0.929 . S
C541 C539 1.433 . S
C541 N544 1.384 . S
C542 H533 0.929 . S
C542 C534 1.378 . S
C542 C537 1.350 . S
C543 H530 0.929 . S
C543 C535 1.433 . S
C543 N545 1.384 . S
N544 C540 1.427 . S
N544 C541 1.384 . S
N545 C537 1.427 . S
N545 C543 1.384 . S
H546 C552 0.930 . S
H547 C556 0.930 . S
H548 C561 0.929 . S
H549 C559 0.929 . S
H550 C554 0.929 . S
H551 C560 0.929 . S
C552 H546 0.930 . S
C552 C553 1.367 . S
C552 C560 1.378 . S
C553 C552 1.367 . S
C553 C561 1.433 . S
C554 H550 0.929 . S
C554 C556 1.378 . S
C554 C558 1.350 . S
C555 C558 1.463 . S
C555 C560 1.350 . S
C555 N563 1.427 . S
C556 H547 0.930 . S
C556 C554 1.378 . S
C556 C557 1.367 1_554 S
C557 C556 1.367 1_556 S
C557 C559 1.433 . S
C558 C554 1.350 . S
C558 C555 1.463 . S
C558 N562 1.427 1_554 S
C559 H549 0.929 . S
C559 C557 1.433 . S
C559 N562 1.384 . S
C560 H551 0.929 . S
C560 C552 1.378 . S
C560 C555 1.350 . S
C561 H548 0.929 . S
C561 C553 1.433 . S
C561 N563 1.384 . S
N562 C558 1.427 1_556 S
N562 C559 1.384 . S
N563 C555 1.427 . S
N563 C561 1.384 . S
C247 C202 1.377 . S
C251 C2 1.366 . S
C265 C22 1.680 . S
C269 C62 1.683 . S
C283 C42 1.381 . S
C287 C82 1.377 . S
C301 C102 1.680 . S
C305 C142 1.684 . S
C319 C162 1.374 . S
C323 C122 1.383 . S
C337 C222 1.680 . S
C341 C182 1.685 . S
C355 C26 1.163 . S
C359 C9 1.163 . S
C373 C49 1.162 . S
C377 C66 1.162 . S
C391 C106 1.174 . S
C395 C89 1.174 . S
C409 C129 1.159 . S
C413 C146 1.159 . S
C427 C169 1.161 . S
C431 C186 1.161 . S
C445 C209 1.172 . S
C449 C226 1.172 . S
C463 C15 1.863 . S
C467 C163 1.864 . S
C481 C43 1.864 . S
C485 C215 1.863 . S
C499 C3 1.864 . S
C503 C95 1.865 . S
C517 C55 1.864 . S
C521 C123 1.865 . S
C535 C175 1.863 . S
C539 C83 1.863 . S
C553 C135 1.863 . S
C557 C203 1.864 . S
