# Generated by pormake.
# Topology gis, (4)-cn, num edge types: 1
# Building blocks:
#     Node 0, Type 0, BuildingBlock: GALJAG_clean_sbu_0, # of connection points: 4
#     Node 1, Type 0, BuildingBlock: GALJAG_clean_sbu_0, # of connection points: 4
#     Node 2, Type 0, BuildingBlock: GALJAG_clean_sbu_0, # of connection points: 4
#     Node 3, Type 0, BuildingBlock: GALJAG_clean_sbu_0, # of connection points: 4
#     Node 4, Type 0, BuildingBlock: GALJAG_clean_sbu_0, # of connection points: 4
#     Node 5, Type 0, BuildingBlock: GALJAG_clean_sbu_0, # of connection points: 4
#     Node 6, Type 0, BuildingBlock: GALJAG_clean_sbu_0, # of connection points: 4
#     Node 7, Type 0, BuildingBlock: GALJAG_clean_sbu_0, # of connection points: 4
#     Node 8, Type 0, BuildingBlock: GALJAG_clean_sbu_0, # of connection points: 4
#     Node 9, Type 0, BuildingBlock: GALJAG_clean_sbu_0, # of connection points: 4
#     Node 10, Type 0, BuildingBlock: GALJAG_clean_sbu_0, # of connection points: 4
#     Node 11, Type 0, BuildingBlock: GALJAG_clean_sbu_0, # of connection points: 4
#     Node 12, Type 0, BuildingBlock: GALJAG_clean_sbu_0, # of connection points: 4
#     Node 13, Type 0, BuildingBlock: GALJAG_clean_sbu_0, # of connection points: 4
#     Node 14, Type 0, BuildingBlock: GALJAG_clean_sbu_0, # of connection points: 4
#     Node 15, Type 0, BuildingBlock: GALJAG_clean_sbu_0, # of connection points: 4
#     Edge 16, Type (0, 0), BuildingBlock: XIVTED_clean_linker_0, # of connection points: 2
#     Edge 17, Type (0, 0), BuildingBlock: XIVTED_clean_linker_0, # of connection points: 2
#     Edge 18, Type (0, 0), BuildingBlock: XIVTED_clean_linker_0, # of connection points: 2
#     Edge 19, Type (0, 0), BuildingBlock: XIVTED_clean_linker_0, # of connection points: 2
#     Edge 20, Type (0, 0), BuildingBlock: XIVTED_clean_linker_0, # of connection points: 2
#     Edge 21, Type (0, 0), BuildingBlock: XIVTED_clean_linker_0, # of connection points: 2
#     Edge 22, Type (0, 0), BuildingBlock: XIVTED_clean_linker_0, # of connection points: 2
#     Edge 23, Type (0, 0), BuildingBlock: XIVTED_clean_linker_0, # of connection points: 2
#     Edge 24, Type (0, 0), BuildingBlock: XIVTED_clean_linker_0, # of connection points: 2
#     Edge 25, Type (0, 0), BuildingBlock: XIVTED_clean_linker_0, # of connection points: 2
#     Edge 26, Type (0, 0), BuildingBlock: XIVTED_clean_linker_0, # of connection points: 2
#     Edge 27, Type (0, 0), BuildingBlock: XIVTED_clean_linker_0, # of connection points: 2
#     Edge 28, Type (0, 0), BuildingBlock: XIVTED_clean_linker_0, # of connection points: 2
#     Edge 29, Type (0, 0), BuildingBlock: XIVTED_clean_linker_0, # of connection points: 2
#     Edge 30, Type (0, 0), BuildingBlock: XIVTED_clean_linker_0, # of connection points: 2
#     Edge 31, Type (0, 0), BuildingBlock: XIVTED_clean_linker_0, # of connection points: 2
#     Edge 32, Type (0, 0), BuildingBlock: XIVTED_clean_linker_0, # of connection points: 2
#     Edge 33, Type (0, 0), BuildingBlock: XIVTED_clean_linker_0, # of connection points: 2
#     Edge 34, Type (0, 0), BuildingBlock: XIVTED_clean_linker_0, # of connection points: 2
#     Edge 35, Type (0, 0), BuildingBlock: XIVTED_clean_linker_0, # of connection points: 2
#     Edge 36, Type (0, 0), BuildingBlock: XIVTED_clean_linker_0, # of connection points: 2
#     Edge 37, Type (0, 0), BuildingBlock: XIVTED_clean_linker_0, # of connection points: 2
#     Edge 38, Type (0, 0), BuildingBlock: XIVTED_clean_linker_0, # of connection points: 2
#     Edge 39, Type (0, 0), BuildingBlock: XIVTED_clean_linker_0, # of connection points: 2
#     Edge 40, Type (0, 0), BuildingBlock: XIVTED_clean_linker_0, # of connection points: 2
#     Edge 41, Type (0, 0), BuildingBlock: XIVTED_clean_linker_0, # of connection points: 2
#     Edge 42, Type (0, 0), BuildingBlock: XIVTED_clean_linker_0, # of connection points: 2
#     Edge 43, Type (0, 0), BuildingBlock: XIVTED_clean_linker_0, # of connection points: 2
#     Edge 44, Type (0, 0), BuildingBlock: XIVTED_clean_linker_0, # of connection points: 2
#     Edge 45, Type (0, 0), BuildingBlock: XIVTED_clean_linker_0, # of connection points: 2
#     Edge 46, Type (0, 0), BuildingBlock: XIVTED_clean_linker_0, # of connection points: 2
#     Edge 47, Type (0, 0), BuildingBlock: XIVTED_clean_linker_0, # of connection points: 2
# Relax obj value: 0.052
# Max RMSD: 0.088
# Mean RMSD: 0.088
data_MOF--net-gis--node1-GALJAG_clean_sbu_0--edge1-XIVTED_clean_linker_0
_symmetry_space_group_name_H-M    P1
_symmetry_Int_Tables_number       1
_symmetry_cell_setting            triclinic
loop_
_symmetry_equiv_pos_as_xyz
'x, y, z'
_cell_length_a     54.376276
_cell_length_b     54.323103
_cell_length_c     37.865186
_cell_angle_alpha  90.162548
_cell_angle_beta   90.272578
_cell_angle_gamma 90.015098
loop_
_atom_site_label
_atom_site_type_symbol
_atom_site_fract_x
_atom_site_fract_y
_atom_site_fract_z
_atom_type_partial_charge
In0 In 0.13218 0.6015 0.11947 0.0
O1 O 0.14751 0.59399 0.17464 0.0
O2 O 0.17231 0.60448 0.13385 0.0
C3 C 0.0837 0.59265 0.1225 0.0
C4 C 0.1304 0.65049 0.11014 0.0
C5 C 0.14419 0.56305 0.07871 0.0
O6 O 0.09713 0.59201 0.1499 0.0
O7 O 0.09485 0.59755 0.09422 0.0
O8 O 0.14429 0.58487 0.067 0.0
O9 O 0.13813 0.5609 0.11069 0.0
C10 C 0.16948 0.59831 0.16567 0.0
O11 O 0.13951 0.63637 0.087 0.0
O12 O 0.12262 0.63984 0.13743 0.0
In13 In 0.63187 0.88316 0.35738 0.0
O14 O 0.64188 0.84946 0.39086 0.0
O15 O 0.63656 0.84491 0.33541 0.0
C16 C 0.63496 0.92107 0.40274 0.0
C17 C 0.66918 0.89376 0.31411 0.0
C18 C 0.58294 0.88129 0.34721 0.0
O19 O 0.63941 0.89919 0.41215 0.0
O20 O 0.62892 0.9236 0.37075 0.0
O21 O 0.59698 0.89127 0.32491 0.0
O22 O 0.59365 0.87258 0.37399 0.0
C23 C 0.64157 0.83497 0.36464 0.0
O24 O 0.64724 0.89207 0.30307 0.0
O25 O 0.67205 0.89043 0.34685 0.0
In26 In 0.35404 0.38849 0.62386 0.0
O27 O 0.34282 0.40397 0.57041 0.0
O28 O 0.35277 0.42911 0.61152 0.0
C29 C 0.3472 0.33971 0.61777 0.0
C30 C 0.40337 0.39127 0.62741 0.0
C31 C 0.31758 0.39687 0.66957 0.0
O32 O 0.3442 0.35396 0.59174 0.0
O33 O 0.35385 0.35011 0.64605 0.0
O34 O 0.3399 0.3968 0.67931 0.0
O35 O 0.31401 0.39315 0.63704 0.0
C36 C 0.34572 0.42613 0.57998 0.0
O37 O 0.39006 0.39701 0.65349 0.0
O38 O 0.39173 0.38414 0.60038 0.0
In39 In 0.85372 0.10489 0.86389 0.0
O40 O 0.88794 0.09404 0.83232 0.0
O41 O 0.89123 0.09945 0.88794 0.0
C42 C 0.81575 0.10114 0.81882 0.0
C43 C 0.84118 0.06814 0.90715 0.0
C44 C 0.85702 0.15396 0.87186 0.0
O45 O 0.83748 0.0959 0.80966 0.0
O46 O 0.81349 0.10861 0.85021 0.0
O47 O 0.84802 0.14044 0.89567 0.0
O48 O 0.86395 0.1427 0.8445 0.0
C49 C 0.90175 0.09407 0.85933 0.0
O50 O 0.84212 0.09027 0.91769 0.0
O51 O 0.84642 0.06485 0.87504 0.0
In52 In 0.13659 0.37988 0.87676 0.0
O53 O 0.1426 0.34407 0.90793 0.0
O54 O 0.12775 0.34204 0.85589 0.0
C55 C 0.14808 0.41678 0.92091 0.0
C56 C 0.17481 0.38482 0.83296 0.0
C57 C 0.08861 0.39045 0.86893 0.0
O58 O 0.1462 0.3948 0.93164 0.0
O59 O 0.14431 0.41979 0.88831 0.0
O60 O 0.1031 0.39005 0.84291 0.0
O61 O 0.09836 0.38547 0.89834 0.0
C62 C 0.13454 0.33059 0.88315 0.0
O63 O 0.15305 0.38989 0.82356 0.0
O64 O 0.17708 0.37688 0.8641 0.0
In65 In 0.85207 0.88616 0.10977 0.0
O66 O 0.84609 0.85086 0.07731 0.0
O67 O 0.85951 0.84789 0.13002 0.0
C68 C 0.84091 0.92312 0.06592 0.0
C69 C 0.81369 0.89115 0.1533 0.0
C70 C 0.90024 0.89573 0.11778 0.0
O71 O 0.84171 0.90098 0.05541 0.0
O72 O 0.8457 0.92633 0.09825 0.0
O73 O 0.88569 0.89579 0.14374 0.0
O74 O 0.89042 0.89081 0.08834 0.0
C75 C 0.85312 0.83692 0.10206 0.0
O76 O 0.83545 0.89575 0.16325 0.0
O77 O 0.81154 0.88382 0.12179 0.0
In78 In 0.35292 0.60596 0.371 0.0
O79 O 0.3431 0.59176 0.42573 0.0
O80 O 0.35029 0.56572 0.3847 0.0
C81 C 0.34897 0.65513 0.37426 0.0
C82 C 0.402 0.60171 0.36588 0.0
C83 C 0.31514 0.59773 0.32697 0.0
O84 O 0.34463 0.64178 0.40084 0.0
O85 O 0.35525 0.6436 0.34679 0.0
O86 O 0.33724 0.59539 0.31711 0.0
O87 O 0.31236 0.60397 0.35883 0.0
C88 C 0.34464 0.56938 0.41658 0.0
O89 O 0.38793 0.59626 0.34031 0.0
O90 O 0.39122 0.60907 0.39336 0.0
In91 In 0.63254 0.10243 0.61361 0.0
O92 O 0.59756 0.09492 0.64558 0.0
O93 O 0.59431 0.10959 0.59361 0.0
C94 C 0.67069 0.0938 0.65673 0.0
C95 C 0.63679 0.06429 0.5691 0.0
C96 C 0.63851 0.15127 0.60789 0.0
O97 O 0.6487 0.09309 0.66753 0.0
O98 O 0.67319 0.09846 0.6243 0.0
O99 O 0.64169 0.13709 0.58171 0.0
O100 O 0.6328 0.14065 0.63628 0.0
C101 C 0.58352 0.10259 0.62122 0.0
O102 O 0.64049 0.08623 0.55928 0.0
O103 O 0.63111 0.0618 0.60118 0.0
In104 In 0.85806 0.38619 0.8625 0.0
O105 O 0.84497 0.39976 0.91641 0.0
O106 O 0.84559 0.42507 0.87357 0.0
C107 C 0.86252 0.33774 0.87461 0.0
C108 C 0.90603 0.39771 0.85744 0.0
C109 C 0.82251 0.38616 0.81313 0.0
O110 O 0.8511 0.35174 0.89568 0.0
O111 O 0.87169 0.34832 0.8481 0.0
O112 O 0.84099 0.40015 0.81093 0.0
O113 O 0.82223 0.37225 0.83968 0.0
C114 C 0.8412 0.4215 0.90581 0.0
O115 O 0.89282 0.39414 0.83033 0.0
O116 O 0.89491 0.39581 0.88644 0.0
In117 In 0.35074 0.10787 0.61902 0.0
O118 O 0.34095 0.14233 0.58705 0.0
O119 O 0.34729 0.14576 0.64246 0.0
C120 C 0.34695 0.07001 0.57392 0.0
C121 C 0.31355 0.09674 0.66208 0.0
C122 C 0.39979 0.10867 0.62739 0.0
O123 O 0.34238 0.09188 0.56448 0.0
O124 O 0.35336 0.06753 0.60577 0.0
O125 O 0.38583 0.10025 0.65108 0.0
O126 O 0.38893 0.11654 0.60019 0.0
C127 C 0.34202 0.15632 0.61379 0.0
O128 O 0.3356 0.09759 0.67288 0.0
O129 O 0.31049 0.10131 0.62968 0.0
In130 In 0.6354 0.60252 0.36321 0.0
O131 O 0.59945 0.59436 0.33348 0.0
O132 O 0.59769 0.60699 0.38672 0.0
C133 C 0.67173 0.59372 0.31756 0.0
C134 C 0.64397 0.56448 0.4063 0.0
C135 C 0.64185 0.65143 0.36794 0.0
O136 O 0.64934 0.59295 0.3082 0.0
O137 O 0.67549 0.59869 0.34972 0.0
O138 O 0.64459 0.63765 0.39457 0.0
O139 O 0.63577 0.64049 0.33982 0.0
C140 C 0.5861 0.60012 0.35949 0.0
O141 O 0.6471 0.58652 0.41633 0.0
O142 O 0.63644 0.56191 0.37493 0.0
In143 In 0.13034 0.88304 0.11705 0.0
O144 O 0.09563 0.89114 0.14929 0.0
O145 O 0.09401 0.89529 0.09356 0.0
C146 C 0.16275 0.88615 0.17065 0.0
C147 C 0.1492 0.91474 0.06994 0.0
C148 C 0.12716 0.83436 0.10481 0.0
O149 O 0.14659 0.9024 0.16544 0.0
O150 O 0.16223 0.86827 0.14943 0.0
O151 O 0.14159 0.84798 0.08748 0.0
O152 O 0.11443 0.84541 0.12769 0.0
C153 C 0.08279 0.8965 0.12253 0.0
O154 O 0.1412 0.89382 0.06081 0.0
O155 O 0.14822 0.91913 0.10256 0.0
In156 In 0.85186 0.60323 0.10854 0.0
O157 O 0.83664 0.59337 0.16264 0.0
O158 O 0.81162 0.60523 0.12259 0.0
C159 C 0.90035 0.59447 0.11382 0.0
C160 C 0.8526 0.65253 0.10246 0.0
C161 C 0.83983 0.5662 0.06493 0.0
O162 O 0.88635 0.59327 0.14034 0.0
O163 O 0.88981 0.59997 0.08515 0.0
O164 O 0.83986 0.58837 0.05468 0.0
O165 O 0.84588 0.56302 0.09681 0.0
C166 C 0.81461 0.59783 0.15387 0.0
O167 O 0.84536 0.63889 0.07735 0.0
O168 O 0.85921 0.64124 0.12994 0.0
In169 In 0.1333 0.09712 0.87106 0.0
O170 O 0.09869 0.08832 0.83879 0.0
O171 O 0.09547 0.09325 0.89446 0.0
C172 C 0.17085 0.09299 0.82598 0.0
C173 C 0.14548 0.05891 0.91207 0.0
C174 C 0.13265 0.14623 0.88033 0.0
O175 O 0.1489 0.08883 0.81646 0.0
O176 O 0.17355 0.09943 0.8578 0.0
O177 O 0.13949 0.13188 0.90473 0.0
O178 O 0.12632 0.13572 0.85198 0.0
C179 C 0.0848 0.08874 0.86549 0.0
O180 O 0.14622 0.08085 0.92341 0.0
O181 O 0.13846 0.05649 0.88043 0.0
In182 In 0.63584 0.38456 0.61337 0.0
O183 O 0.60193 0.39325 0.64719 0.0
O184 O 0.59735 0.38758 0.59184 0.0
C185 C 0.67483 0.38745 0.65654 0.0
C186 C 0.64728 0.42101 0.56885 0.0
C187 C 0.63477 0.33544 0.607 0.0
O188 O 0.65465 0.39776 0.66416 0.0
O189 O 0.67512 0.376 0.62754 0.0
O190 O 0.64166 0.34904 0.5818 0.0
O191 O 0.62826 0.34674 0.6346 0.0
C192 C 0.58732 0.39215 0.6211 0.0
O193 O 0.64535 0.39892 0.55851 0.0
O194 O 0.64367 0.4244 0.60138 0.0
In195 In 0.35106 0.88809 0.36443 0.0
O196 O 0.34485 0.90422 0.41924 0.0
O197 O 0.35067 0.92882 0.37624 0.0
C198 C 0.34711 0.83922 0.37072 0.0
C199 C 0.39966 0.88848 0.35291 0.0
C200 C 0.31013 0.89426 0.3262 0.0
O201 O 0.34438 0.8534 0.39704 0.0
O202 O 0.35172 0.84983 0.34185 0.0
O203 O 0.331 0.90037 0.31432 0.0
O204 O 0.31018 0.88553 0.35704 0.0
C205 C 0.34669 0.92625 0.40882 0.0
O206 O 0.38462 0.8946 0.32883 0.0
O207 O 0.39005 0.88291 0.38205 0.0
H208 H 0.15497 0.80474 0.0615 0.0
H209 H 0.1045 0.68205 0.15111 0.0
H210 H 0.09713 0.80255 0.13909 0.0
H211 H 0.15221 0.6802 0.0604 0.0
H212 H 0.10225 0.72656 0.14647 0.0
H213 H 0.15472 0.75951 0.05954 0.0
C214 C 0.14209 0.79476 0.07784 0.0
C215 C 0.12615 0.80736 0.10066 0.0
C216 C 0.11315 0.71653 0.1274 0.0
C217 C 0.12588 0.75591 0.09874 0.0
C218 C 0.11451 0.69106 0.13012 0.0
C219 C 0.12865 0.67744 0.10618 0.0
C220 C 0.12623 0.72866 0.10073 0.0
C221 C 0.14111 0.69008 0.07939 0.0
C222 C 0.14197 0.769 0.07673 0.0
C223 C 0.10984 0.7936 0.12127 0.0
N224 N 0.13976 0.71509 0.0775 0.0
N225 N 0.11025 0.76867 0.11997 0.0
H226 H 0.42786 0.90544 0.29745 0.0
H227 H 0.55146 0.85471 0.3869 0.0
H228 H 0.43243 0.86735 0.39716 0.0
H229 H 0.55313 0.90523 0.29918 0.0
H230 H 0.5069 0.85493 0.38463 0.0
H231 H 0.47294 0.90215 0.29204 0.0
C232 C 0.43831 0.89637 0.31806 0.0
C233 C 0.42648 0.88681 0.34791 0.0
C234 C 0.51689 0.866 0.36576 0.0
C235 C 0.47752 0.88277 0.34176 0.0
C236 C 0.54239 0.86585 0.36704 0.0
C237 C 0.55597 0.88021 0.34347 0.0
C238 C 0.50467 0.88077 0.34088 0.0
C239 C 0.54324 0.89401 0.31796 0.0
C240 C 0.46394 0.89452 0.31498 0.0
C241 C 0.44077 0.87519 0.37384 0.0
N242 N 0.51817 0.89413 0.31748 0.0
N243 N 0.46543 0.8735 0.37012 0.0
H244 H 0.3448 0.30814 0.67281 0.0
H245 H 0.33848 0.18598 0.55509 0.0
H246 H 0.34047 0.31039 0.55904 0.0
H247 H 0.33791 0.18778 0.66904 0.0
H248 H 0.3367 0.23123 0.55464 0.0
H249 H 0.33999 0.26377 0.67079 0.0
C250 C 0.34281 0.29924 0.64732 0.0
C251 C 0.34324 0.31291 0.61602 0.0
C252 C 0.33675 0.22164 0.57967 0.0
C253 C 0.3378 0.26183 0.61341 0.0
C254 C 0.33772 0.19588 0.57993 0.0
C255 C 0.33859 0.1832 0.61216 0.0
C256 C 0.33664 0.23459 0.61186 0.0
C257 C 0.33754 0.19681 0.64359 0.0
C258 C 0.33999 0.27384 0.64616 0.0
C259 C 0.34032 0.30043 0.58376 0.0
N260 N 0.33677 0.22171 0.64263 0.0
N261 N 0.33792 0.27547 0.58323 0.0
H262 H 0.05322 0.08309 0.92011 0.0
H263 H 0.93145 0.08924 0.80104 0.0
H264 H 0.05534 0.08656 0.80632 0.0
H265 H 0.93263 0.08778 0.91498 0.0
H266 H 0.97639 0.0843 0.80109 0.0
H267 H 0.00863 0.08061 0.91748 0.0
C268 C 0.04425 0.08321 0.89449 0.0
C269 C 0.05794 0.08526 0.8634 0.0
C270 C 0.96673 0.08488 0.82601 0.0
C271 C 0.0067 0.08262 0.86012 0.0
C272 C 0.94113 0.08765 0.82599 0.0
C273 C 0.92839 0.08913 0.85806 0.0
C274 C 0.97947 0.08352 0.85834 0.0
C275 C 0.94174 0.08696 0.88964 0.0
C276 C 0.01875 0.08179 0.89298 0.0
C277 C 0.04539 0.0851 0.83092 0.0
N278 N 0.96651 0.08438 0.88896 0.0
N279 N 0.02038 0.08404 0.8301 0.0
H280 H 0.11522 0.29971 0.83404 0.0
H281 H 0.14853 0.17504 0.93605 0.0
H282 H 0.15074 0.29979 0.93622 0.0
H283 H 0.11568 0.17901 0.83224 0.0
H284 H 0.14825 0.22031 0.93902 0.0
H285 H 0.11382 0.25511 0.83534 0.0
C286 C 0.12273 0.2903 0.85686 0.0
C287 C 0.13321 0.30348 0.885 0.0
C288 C 0.14106 0.21118 0.91569 0.0
C289 C 0.13175 0.25206 0.88667 0.0
C290 C 0.1412 0.18541 0.91401 0.0
C291 C 0.13219 0.17329 0.88381 0.0
C292 C 0.13179 0.22475 0.887 0.0
C293 C 0.1229 0.18755 0.85599 0.0
C294 C 0.12193 0.26475 0.8576 0.0
C295 C 0.14254 0.29027 0.91394 0.0
N296 N 0.12298 0.21243 0.85827 0.0
N297 N 0.14167 0.26519 0.91401 0.0
H298 H 0.92837 0.89791 0.1782 0.0
H299 H 0.05318 0.91162 0.06887 0.0
H300 H 0.93259 0.90397 0.06478 0.0
H301 H 0.05203 0.89335 0.17969 0.0
H302 H 0.00863 0.9158 0.06956 0.0
H303 H 0.97328 0.90255 0.18166 0.0
C304 C 0.93872 0.90044 0.15411 0.0
C305 C 0.92685 0.90032 0.12113 0.0
C306 C 0.01806 0.91103 0.09384 0.0
C307 C 0.97789 0.90572 0.12486 0.0
C308 C 0.04353 0.90869 0.09347 0.0
C309 C 0.05625 0.90185 0.12418 0.0
C310 C 0.00512 0.90636 0.12511 0.0
C311 C 0.04285 0.89851 0.15539 0.0
C312 C 0.96429 0.90304 0.15609 0.0
C313 C 0.94104 0.9037 0.09073 0.0
N314 N 0.0179 0.90056 0.155 0.0
N315 N 0.96578 0.90617 0.09333 0.0
H316 H 0.35378 0.68578 0.31843 0.0
H317 H 0.34007 0.81046 0.42958 0.0
H318 H 0.3399 0.68599 0.43057 0.0
H319 H 0.35055 0.80651 0.31678 0.0
H320 H 0.33902 0.76524 0.43158 0.0
H321 H 0.35178 0.73038 0.3183 0.0
C322 C 0.35028 0.69526 0.34311 0.0
C323 C 0.34709 0.68219 0.37459 0.0
C324 C 0.34145 0.77435 0.40644 0.0
C325 C 0.34481 0.73353 0.37471 0.0
C326 C 0.34204 0.80009 0.40529 0.0
C327 C 0.3455 0.81219 0.37299 0.0
C328 C 0.34435 0.76079 0.37506 0.0
C329 C 0.34795 0.79796 0.34229 0.0
C330 C 0.3491 0.72079 0.34303 0.0
C331 C 0.34249 0.69545 0.40573 0.0
N332 N 0.34739 0.77308 0.34413 0.0
N333 N 0.34158 0.7205 0.40507 0.0
H334 H 0.55188 0.123 0.5744 0.0
H335 H 0.42928 0.08857 0.67922 0.0
H336 H 0.55384 0.08577 0.67493 0.0
H337 H 0.4318 0.1293 0.5816 0.0
H338 H 0.47453 0.0877 0.68015 0.0
H339 H 0.50751 0.12564 0.5783 0.0
C340 C 0.54292 0.11531 0.59736 0.0
C341 C 0.55655 0.10403 0.62431 0.0
C342 C 0.46509 0.0969 0.65868 0.0
C343 C 0.50541 0.10699 0.62903 0.0
C344 C 0.43934 0.09743 0.65817 0.0
C345 C 0.42683 0.10889 0.63017 0.0
C346 C 0.47821 0.10793 0.63101 0.0
C347 C 0.44066 0.12011 0.60357 0.0
C348 C 0.51751 0.11688 0.59964 0.0
C349 C 0.54394 0.09456 0.65354 0.0
N350 N 0.46553 0.11926 0.60462 0.0
N351 N 0.51896 0.09616 0.65511 0.0
H352 H 0.88117 0.18465 0.82758 0.0
H353 H 0.84005 0.30879 0.92449 0.0
H354 H 0.83868 0.18452 0.92355 0.0
H355 H 0.88799 0.30539 0.83409 0.0
H356 H 0.84017 0.26359 0.92689 0.0
H357 H 0.88452 0.22915 0.83144 0.0
C358 C 0.87254 0.19403 0.84955 0.0
C359 C 0.8595 0.18091 0.87518 0.0
C360 C 0.8508 0.2728 0.90675 0.0
C361 C 0.86321 0.23211 0.87979 0.0
C362 C 0.85077 0.29855 0.90541 0.0
C363 C 0.86389 0.3108 0.8789 0.0
C364 C 0.864 0.25937 0.88134 0.0
C365 C 0.87747 0.29671 0.85483 0.0
C366 C 0.87451 0.2195 0.85181 0.0
C367 C 0.84885 0.19402 0.9032 0.0
N368 N 0.87705 0.27181 0.85652 0.0
N369 N 0.85079 0.219 0.90467 0.0
H370 H 0.64496 0.68196 0.31183 0.0
H371 H 0.64521 0.80657 0.4246 0.0
H372 H 0.64652 0.68207 0.42578 0.0
H373 H 0.64698 0.8025 0.3108 0.0
H374 H 0.64837 0.76143 0.42701 0.0
H375 H 0.64833 0.72647 0.3122 0.0
C376 C 0.64606 0.69141 0.33702 0.0
C377 C 0.64525 0.67835 0.36883 0.0
C378 C 0.64827 0.7705 0.40158 0.0
C379 C 0.649 0.72962 0.36954 0.0
C380 C 0.64651 0.79621 0.4002 0.0
C381 C 0.64561 0.80821 0.36744 0.0
C382 C 0.64916 0.75691 0.36996 0.0
C383 C 0.64737 0.794 0.33663 0.0
C384 C 0.64804 0.71689 0.33724 0.0
C385 C 0.64701 0.69154 0.40068 0.0
N386 N 0.64892 0.76917 0.33867 0.0
N387 N 0.6486 0.71657 0.40026 0.0
H388 H 0.8695 0.68394 0.15273 0.0
H389 H 0.83798 0.80743 0.04674 0.0
H390 H 0.83752 0.68282 0.04819 0.0
H391 H 0.86947 0.80477 0.15151 0.0
H392 H 0.83836 0.76216 0.0449 0.0
H393 H 0.87035 0.72856 0.15097 0.0
C394 C 0.86265 0.69313 0.12931 0.0
C395 C 0.85335 0.67965 0.10059 0.0
C396 C 0.84522 0.77156 0.06819 0.0
C397 C 0.85423 0.73106 0.09836 0.0
C398 C 0.84503 0.79733 0.06924 0.0
C399 C 0.85365 0.80982 0.09936 0.0
C400 C 0.85411 0.75836 0.09747 0.0
C401 C 0.86258 0.79593 0.12778 0.0
C402 C 0.86315 0.71868 0.1283 0.0
C403 C 0.8448 0.69257 0.07091 0.0
N404 N 0.86254 0.77102 0.12613 0.0
N405 N 0.84538 0.71765 0.07057 0.0
H406 H 0.62251 0.30391 0.65935 0.0
H407 H 0.6471 0.18038 0.54968 0.0
H408 H 0.6481 0.30529 0.55164 0.0
H409 H 0.63296 0.18372 0.66167 0.0
H410 H 0.64659 0.22567 0.54788 0.0
H411 H 0.62448 0.25931 0.65855 0.0
C412 C 0.6285 0.29478 0.63541 0.0
C413 C 0.63519 0.30832 0.60552 0.0
C414 C 0.64373 0.2164 0.5728 0.0
C415 C 0.6376 0.25697 0.60441 0.0
C416 C 0.64406 0.19062 0.57385 0.0
C417 C 0.63998 0.17833 0.60584 0.0
C418 C 0.63917 0.22975 0.60395 0.0
C419 C 0.6361 0.1924 0.63639 0.0
C420 C 0.62971 0.26925 0.635 0.0
C421 C 0.6428 0.29548 0.57525 0.0
N422 N 0.63569 0.21728 0.63462 0.0
N423 N 0.64381 0.27042 0.57543 0.0
H424 H 0.05664 0.40002 0.922 0.0
H425 H 0.93668 0.39505 0.79997 0.0
H426 H 0.06036 0.39289 0.80862 0.0
H427 H 0.93633 0.40936 0.91213 0.0
H428 H 0.98181 0.39705 0.8009 0.0
H429 H 0.01245 0.40611 0.91749 0.0
C430 C 0.04812 0.39984 0.89607 0.0
C431 C 0.06211 0.39575 0.86566 0.0
C432 C 0.97179 0.40003 0.82518 0.0
C433 C 0.01133 0.40256 0.86022 0.0
C434 C 0.94608 0.39893 0.82465 0.0
C435 C 0.93282 0.40179 0.85609 0.0
C436 C 0.98416 0.40395 0.8574 0.0
C437 C 0.94583 0.40679 0.88733 0.0
C438 C 0.02285 0.40338 0.89348 0.0
C439 C 0.05016 0.39592 0.83273 0.0
N440 N 0.97074 0.40751 0.88722 0.0
N441 N 0.02534 0.39902 0.83087 0.0
H442 H 0.55549 0.58752 0.30415 0.0
H443 H 0.43436 0.61073 0.41902 0.0
H444 H 0.55506 0.61043 0.41339 0.0
H445 H 0.43117 0.58911 0.30932 0.0
H446 H 0.47893 0.6093 0.4168 0.0
H447 H 0.51027 0.58671 0.30472 0.0
C448 C 0.54589 0.59233 0.3282 0.0
C449 C 0.559 0.5991 0.35875 0.0
C450 C 0.4686 0.60482 0.39312 0.0
C451 C 0.50759 0.5982 0.35961 0.0
C452 C 0.44308 0.60563 0.39439 0.0
C453 C 0.42905 0.60009 0.36427 0.0
C454 C 0.48036 0.59847 0.36145 0.0
C455 C 0.44137 0.59353 0.33313 0.0
C456 C 0.52015 0.59187 0.32851 0.0
C457 C 0.54573 0.60515 0.3892 0.0
N458 N 0.46641 0.59296 0.33246 0.0
N459 N 0.52083 0.60457 0.38882 0.0
H460 H 0.55927 0.39826 0.68101 0.0
H461 H 0.4338 0.38435 0.57186 0.0
H462 H 0.55408 0.39169 0.56759 0.0
H463 H 0.43454 0.40181 0.68313 0.0
H464 H 0.47833 0.38645 0.57128 0.0
H465 H 0.51407 0.39957 0.68389 0.0
C466 C 0.54865 0.39728 0.65677 0.0
C467 C 0.5604 0.39474 0.62403 0.0
C468 C 0.46889 0.38992 0.5959 0.0
C469 C 0.50904 0.39607 0.62712 0.0
C470 C 0.44338 0.38865 0.59626 0.0
C471 C 0.43045 0.39287 0.62762 0.0
C472 C 0.48178 0.39531 0.62719 0.0
C473 C 0.44387 0.39844 0.6584 0.0
C474 C 0.52292 0.39801 0.65843 0.0
C475 C 0.54584 0.39354 0.59343 0.0
N476 N 0.46891 0.39941 0.65748 0.0
N477 N 0.52101 0.3941 0.59577 0.0
H478 H 0.05327 0.58796 0.17997 0.0
H479 H 0.93223 0.59118 0.0591 0.0
H480 H 0.05301 0.58938 0.06601 0.0
H481 H 0.92939 0.58903 0.17293 0.0
H482 H 0.97673 0.58742 0.06199 0.0
H483 H 0.00815 0.58528 0.17894 0.0
C484 C 0.04374 0.58749 0.15479 0.0
C485 C 0.05683 0.58908 0.12304 0.0
C486 C 0.96647 0.58764 0.08642 0.0
C487 C 0.00552 0.58608 0.12164 0.0
C488 C 0.94101 0.58981 0.08477 0.0
C489 C 0.92715 0.59059 0.11584 0.0
C490 C 0.97829 0.58642 0.11943 0.0
C491 C 0.93947 0.58857 0.14835 0.0
C492 C 0.01804 0.586 0.15421 0.0
C493 C 0.04365 0.58838 0.09114 0.0
N494 N 0.96444 0.58676 0.14935 0.0
N495 N 0.01878 0.58706 0.09129 0.0
H496 H 0.14641 0.51508 0.0993 0.0
H497 H 0.15672 0.46426 0.90213 0.0
H498 H 0.15399 0.56169 0.00787 0.0
H499 H 0.14984 0.4173 -0.0067 0.0
H500 H 0.16013 0.49989 0.94109 0.0
H501 H 0.15184 0.47897 0.06168 0.0
C502 C 0.1494 0.51771 0.0713 0.0
C503 C 0.14952 0.54138 0.05656 0.0
C504 C 0.15808 0.4818 0.95266 0.0
C505 C 0.15566 0.50013 0.01336 0.0
C506 C 0.15613 0.46144 0.93043 0.0
C507 C 0.15274 0.43785 0.94457 0.0
C508 C 0.15645 0.4786 0.98932 0.0
C509 C 0.15231 0.43521 0.98136 0.0
C510 C 0.15252 0.49708 0.04985 0.0
C511 C 0.15363 0.54375 0.02023 0.0
N512 N 0.15389 0.45541 0.00252 0.0
N513 N 0.15634 0.52334 -0.0002 0.0
H514 H 0.71713 0.90101 0.33259 0.0
H515 H 0.76541 0.88653 0.1352 0.0
H516 H 0.66912 0.89473 0.24193 0.0
H517 H 0.81309 0.90272 0.22372 0.0
H518 H 0.72986 0.8905 0.1738 0.0
H519 H 0.75244 0.90314 0.29313 0.0
C520 C 0.71402 0.9003 0.30433 0.0
C521 C 0.69022 0.89752 0.29044 0.0
C522 C 0.74807 0.89332 0.1848 0.0
C523 C 0.7305 0.89972 0.2452 0.0
C524 C 0.76838 0.89097 0.1628 0.0
C525 C 0.7922 0.89415 0.1764 0.0
C526 C 0.75161 0.89872 0.22073 0.0
C527 C 0.79501 0.90003 0.21226 0.0
C528 C 0.73418 0.90151 0.28183 0.0
C529 C 0.68719 0.89679 0.25368 0.0
N530 N 0.77492 0.90198 0.23328 0.0
N531 N 0.70715 0.89767 0.2323 0.0
H532 H 0.33536 0.42486 0.50927 0.0
H533 H 0.33913 0.57147 0.48837 0.0
H534 H 0.34738 0.475 0.5963 0.0
H535 H 0.34194 0.52058 0.40074 0.0
H536 H 0.33602 0.53652 0.52886 0.0
H537 H 0.3316 0.46009 0.46951 0.0
C538 C 0.33705 0.44329 0.52001 0.0
C539 C 0.34189 0.44707 0.556 0.0
C540 C 0.33718 0.53304 0.50074 0.0
C541 C 0.33762 0.48735 0.51085 0.0
C542 C 0.33889 0.55296 0.47768 0.0
C543 C 0.341 0.54884 0.44127 0.0
C544 C 0.33744 0.50894 0.48718 0.0
C545 C 0.34056 0.52453 0.4287 0.0
C546 C 0.33495 0.46337 0.49734 0.0
C547 C 0.34383 0.4713 0.56863 0.0
N548 N 0.33891 0.50548 0.45164 0.0
N549 N 0.34178 0.49054 0.54604 0.0
H550 H 0.71893 0.09004 0.63831 0.0
H551 H 0.76745 0.10608 0.83584 0.0
H552 H 0.67108 0.09193 0.72889 0.0
H553 H 0.81532 0.08943 0.74837 0.0
H554 H 0.73196 0.10142 0.79679 0.0
H555 H 0.75452 0.0897 0.6779 0.0
C556 C 0.71593 0.09018 0.66657 0.0
C557 C 0.69207 0.09115 0.68042 0.0
C558 C 0.7502 0.09867 0.78613 0.0
C559 C 0.73265 0.09102 0.72578 0.0
C560 C 0.77048 0.10145 0.80836 0.0
C561 C 0.79434 0.09825 0.79521 0.0
C562 C 0.75379 0.09286 0.75039 0.0
C563 C 0.79721 0.09212 0.75949 0.0
C564 C 0.73624 0.08997 0.68914 0.0
C565 C 0.68919 0.09121 0.71717 0.0
N566 N 0.77714 0.08975 0.73822 0.0
N567 N 0.70928 0.09138 0.73862 0.0
H568 H 0.83538 0.42023 0.97755 0.0
H569 H 0.83035 0.56691 -0.00622 0.0
H570 H 0.83208 0.4692 0.88809 0.0
H571 H 0.83687 0.51781 0.08276 0.0
H572 H 0.82505 0.53118 0.9549 0.0
H573 H 0.82976 0.45557 0.01686 0.0
C574 C 0.83315 0.43838 0.96619 0.0
C575 C 0.8345 0.44188 0.92961 0.0
C576 C 0.82742 0.52825 0.98299 0.0
C577 C 0.8283 0.48234 0.97426 0.0
C578 C 0.83043 0.54863 0.00514 0.0
C579 C 0.83435 0.54525 0.0414 0.0
C580 C 0.82838 0.50441 -0.00271 0.0
C581 C 0.83416 0.52121 0.05485 0.0
C582 C 0.83 0.45855 0.98861 0.0
C583 C 0.8314 0.46574 0.91621 0.0
N584 N 0.83144 0.5017 0.03275 0.0
N585 N 0.82869 0.48511 0.93856 0.0
H586 H 0.21934 0.09605 0.84325 0.0
H587 H 0.2653 0.09115 0.64389 0.0
H588 H 0.17044 0.08451 0.7546 0.0
H589 H 0.31426 0.09229 0.73394 0.0
H590 H 0.23036 0.08729 0.68377 0.0
H591 H 0.25435 0.09361 0.8035 0.0
C592 C 0.21599 0.09294 0.81536 0.0
C593 C 0.19198 0.09065 0.80208 0.0
C594 C 0.24875 0.08817 0.69481 0.0
C595 C 0.23199 0.08787 0.75642 0.0
C596 C 0.26869 0.09039 0.67208 0.0
C597 C 0.29265 0.09222 0.68573 0.0
C598 C 0.25281 0.08799 0.73144 0.0
C599 C 0.29605 0.09103 0.72238 0.0
C600 C 0.236 0.09146 0.7927 0.0
C601 C 0.18869 0.08646 0.76583 0.0
N602 N 0.2763 0.08919 0.74401 0.0
N603 N 0.20851 0.08538 0.74415 0.0
H604 H 0.64214 0.516 0.38812 0.0
H605 H 0.6556 0.46893 0.58639 0.0
H606 H 0.65562 0.56435 0.47677 0.0
H607 H 0.64864 0.42029 0.49659 0.0
H608 H 0.6585 0.5039 0.54636 0.0
H609 H 0.64703 0.48061 0.42698 0.0
C610 C 0.64624 0.51916 0.41579 0.0
C611 C 0.64827 0.54312 0.42938 0.0
C612 C 0.65657 0.48558 0.53534 0.0
C613 C 0.65384 0.50269 0.47401 0.0
C614 C 0.65491 0.4656 0.55818 0.0
C615 C 0.65166 0.44174 0.54472 0.0
C616 C 0.65477 0.48167 0.49877 0.0
C617 C 0.65103 0.43843 0.50801 0.0
C618 C 0.64909 0.49893 0.43794 0.0
C619 C 0.65378 0.54616 0.46531 0.0
N620 N 0.65232 0.45824 0.48628 0.0
N621 N 0.65619 0.52614 0.48649 0.0
H622 H 0.30006 0.92337 0.2688 0.0
H623 H 0.18438 0.84944 0.20784 0.0
H624 H 0.26858 0.86777 0.3361 0.0
H625 H 0.18533 0.92815 0.1933 0.0
H626 H 0.21939 0.8532 0.24856 0.0
H627 H 0.26187 0.92332 0.23347 0.0
C628 C 0.28511 0.91127 0.27613 0.0
C629 C 0.28735 0.89553 0.30524 0.0
C630 C 0.21174 0.86964 0.23666 0.0
C631 C 0.24435 0.8951 0.26507 0.0
C632 C 0.19189 0.86751 0.21353 0.0
C633 C 0.18205 0.88854 0.19758 0.0
C634 C 0.22223 0.89285 0.24284 0.0
C635 C 0.19238 0.91157 0.20552 0.0
C636 C 0.2634 0.91135 0.25621 0.0
C637 C 0.26751 0.88022 0.31386 0.0
N638 N 0.21229 0.91312 0.22726 0.0
N639 N 0.24694 0.88011 0.29353 0.0
H640 H 0.63478 0.01565 0.58617 0.0
H641 H 0.63172 0.96969 0.38611 0.0
H642 H 0.64215 0.06463 0.49729 0.0
H643 H 0.64188 0.92059 0.47439 0.0
H644 H 0.63367 0.00472 0.42655 0.0
H645 H 0.63566 0.98055 0.54577 0.0
C646 C 0.63667 0.019 0.55812 0.0
C647 C 0.63835 0.04305 0.54497 0.0
C648 C 0.63559 0.9863 0.43708 0.0
C649 C 0.63922 0.00301 0.49865 0.0
C650 C 0.6344 0.9663 0.41405 0.0
C651 C 0.63659 0.94223 0.42701 0.0
C652 C 0.63877 0.9822 0.47338 0.0
C653 C 0.64011 0.93887 0.46337 0.0
C654 C 0.63722 -0.00105 0.5351 0.0
C655 C 0.64082 0.04636 0.50847 0.0
N656 N 0.64096 0.95866 0.48537 0.0
N657 N 0.64103 0.02654 0.48651 0.0
H658 H 0.26933 0.40372 0.6533 0.0
H659 H 0.22331 0.37886 0.84955 0.0
H660 H 0.31876 0.39481 0.74184 0.0
H661 H 0.17487 0.3992 0.76384 0.0
H662 H 0.25856 0.38488 0.81077 0.0
H663 H 0.23457 0.40299 0.69369 0.0
C664 C 0.27286 0.40183 0.68134 0.0
C665 C 0.29691 0.39918 0.6943 0.0
C666 C 0.24024 0.38813 0.80048 0.0
C667 C 0.2572 0.39805 0.74065 0.0
C668 C 0.22011 0.3846 0.82253 0.0
C669 C 0.19616 0.38842 0.80976 0.0
C670 C 0.23636 0.39539 0.76534 0.0
C671 C 0.19304 0.39597 0.77467 0.0
C672 C 0.25301 0.40141 0.70439 0.0
C673 C 0.30047 0.3969 0.73083 0.0
N674 N 0.21293 0.3991 0.75361 0.0
N675 N 0.28077 0.39614 0.75276 0.0
H676 H 0.83396 0.0691 0.97866 0.0
H677 H 0.83398 0.92221 -0.00575 0.0
H678 H 0.83662 0.0198 0.88915 0.0
H679 H 0.83677 0.97151 0.08378 0.0
H680 H 0.82939 0.95777 0.95523 0.0
H681 H 0.82935 0.03354 0.01762 0.0
C682 C 0.83332 0.05081 0.96721 0.0
C683 C 0.83593 0.04732 0.93075 0.0
C684 C 0.83081 0.96078 0.98345 0.0
C685 C 0.8308 0.00665 0.97496 0.0
C686 C 0.83341 0.9405 0.00568 0.0
C687 C 0.83601 0.94398 0.04219 0.0
C688 C 0.83086 0.98465 -0.0021 0.0
C689 C 0.83504 0.96803 0.05571 0.0
C690 C 0.83074 0.03052 0.98941 0.0
C691 C 0.83489 0.02327 0.9172 0.0
N692 N 0.83272 0.98747 0.03353 0.0
N693 N 0.83259 0.00383 0.93935 0.0
H694 H 0.16878 0.59041 0.23711 0.0
H695 H 0.31562 0.59121 0.25529 0.0
H696 H 0.21807 0.60096 0.14942 0.0
H697 H 0.26658 0.59726 0.34419 0.0
H698 H 0.2799 0.58908 0.21581 0.0
H699 H 0.20443 0.58756 0.27674 0.0
C700 C 0.18709 0.59206 0.22623 0.0
C701 C 0.19053 0.59608 0.19005 0.0
C702 C 0.27698 0.59076 0.24398 0.0
C703 C 0.23123 0.59269 0.23495 0.0
C704 C 0.29734 0.59189 0.26649 0.0
C705 C 0.294 0.59457 0.30296 0.0
C706 C 0.25317 0.5922 0.25815 0.0
C707 C 0.26994 0.59536 0.31615 0.0
C708 C 0.2074 0.59045 0.2488 0.0
C709 C 0.21462 0.59802 0.17722 0.0
N710 N 0.25042 0.59424 0.29374 0.0
N711 N 0.23405 0.59631 0.19966 0.0
H712 H 0.35118 0.02157 0.59079 0.0
H713 H 0.34588 0.97482 0.39114 0.0
H714 H 0.33893 0.07015 0.50244 0.0
H715 H 0.34352 0.92606 0.48086 0.0
H716 H 0.34441 0.01007 0.43124 0.0
H717 H 0.34956 0.98641 0.5507 0.0
C718 C 0.34809 0.02482 0.56291 0.0
C719 C 0.34524 0.04878 0.54983 0.0
C720 C 0.34408 0.99167 0.44216 0.0
C721 C 0.34344 0.00863 0.50381 0.0
C722 C 0.34497 0.97155 0.41932 0.0
C723 C 0.34488 0.94753 0.43279 0.0
C724 C 0.3433 0.98771 0.47874 0.0
C725 C 0.34363 0.9443 0.46944 0.0
C726 C 0.3471 0.00473 0.54006 0.0
C727 C 0.34121 0.05195 0.51354 0.0
N728 N 0.34302 0.96421 0.49119 0.0
N729 N 0.34056 0.03207 0.4917 0.0
H730 H 0.81601 0.58622 0.22411 0.0
H731 H 0.6696 0.59053 0.24544 0.0
H732 H 0.76582 0.60185 0.13842 0.0
H733 H 0.72043 0.58981 0.33333 0.0
H734 H 0.7045 0.58882 0.20486 0.0
H735 H 0.78088 0.58195 0.26382 0.0
C736 C 0.7976 0.58868 0.21367 0.0
C737 C 0.79377 0.59457 0.17807 0.0
C738 C 0.70798 0.5889 0.23304 0.0
C739 C 0.75362 0.58961 0.22309 0.0
C740 C 0.68809 0.58977 0.25616 0.0
C741 C 0.6922 0.5905 0.2927 0.0
C742 C 0.73206 0.58862 0.24668 0.0
C743 C 0.71648 0.58947 0.30528 0.0
C744 C 0.77758 0.58625 0.23629 0.0
C745 C 0.76956 0.59747 0.16579 0.0
N746 N 0.73552 0.58868 0.28229 0.0
N747 N 0.75038 0.595 0.1883 0.0
H748 H 0.14658 0.91289 -0.00228 0.0
H749 H 0.16102 0.05849 0.98095 0.0
H750 H 0.16681 0.96058 0.08446 0.0
H751 H 0.14384 0.01052 0.89318 0.0
H752 H 0.16812 0.02228 0.01787 0.0
H753 H 0.15095 0.94765 0.95729 0.0
C754 C 0.15237 0.93057 0.00814 0.0
C755 C 0.15601 0.93399 0.04448 0.0
C756 C 0.16301 0.01967 0.99044 0.0
C757 C 0.1607 0.97383 -0.00134 0.0
C758 C 0.15891 0.04033 0.96942 0.0
C759 C 0.15155 0.03745 0.93414 0.0
C760 C 0.15956 -0.00399 0.97608 0.0
C761 C 0.14927 0.01354 0.92039 0.0
C762 C 0.15477 0.95043 0.98511 0.0
C763 C 0.16354 0.95724 0.05663 0.0
N764 N 0.15303 0.99374 0.94148 0.0
N765 N 0.16533 0.97636 0.03383 0.0
H766 H 0.68832 0.42334 0.70381 0.0
H767 H 0.79422 0.34751 0.79317 0.0
H768 H 0.71068 0.3531 0.66128 0.0
H769 H 0.80419 0.42538 0.77644 0.0
H770 H 0.75825 0.34839 0.75396 0.0
H771 H 0.72586 0.4239 0.74061 0.0
C772 C 0.70106 0.40804 0.70243 0.0
C773 C 0.69657 0.38815 0.67965 0.0
C774 C 0.76842 0.36522 0.75878 0.0
C775 C 0.73879 0.38853 0.7215 0.0
C776 C 0.78884 0.36475 0.78104 0.0
C777 C 0.80211 0.38638 0.78766 0.0
C778 C 0.76086 0.38761 0.74401 0.0
C779 C 0.79446 0.4083 0.77154 0.0
C780 C 0.72242 0.40846 0.72309 0.0
C781 C 0.71361 0.36881 0.67848 0.0
N782 N 0.77402 0.40847 0.7507 0.0
N783 N 0.73387 0.36933 0.69945 0.0
loop_
_geom_bond_atom_site_label_1
_geom_bond_atom_site_label_2
_geom_bond_distance
_geom_bond_site_symmetry_2
_ccdc_geom_bond_type
In0 O1 2.294 . S
In0 O2 2.326 . S
In0 O6 2.266 . S
In0 O7 2.326 . S
In0 O8 2.266 . S
In0 O9 2.326 . S
In0 O11 2.294 . S
In0 O12 2.326 . S
O1 In0 2.294 . S
O1 C10 1.240 . S
O2 In0 2.326 . S
O2 C10 1.252 . S
C3 O6 1.252 . S
C3 O7 1.260 . S
C4 O11 1.240 . S
C4 O12 1.252 . S
C5 O8 1.252 . S
C5 O9 1.260 . S
O6 In0 2.266 . S
O6 C3 1.252 . S
O7 In0 2.326 . S
O7 C3 1.260 . S
O8 In0 2.266 . S
O8 C5 1.252 . S
O9 In0 2.326 . S
O9 C5 1.260 . S
C10 O1 1.240 . S
C10 O2 1.252 . S
O11 In0 2.294 . S
O11 C4 1.240 . S
O12 In0 2.326 . S
O12 C4 1.252 . S
In13 O14 2.294 . S
In13 O15 2.326 . S
In13 O19 2.266 . S
In13 O20 2.326 . S
In13 O21 2.266 . S
In13 O22 2.326 . S
In13 O24 2.294 . S
In13 O25 2.326 . S
O14 In13 2.294 . S
O14 C23 1.240 . S
O15 In13 2.326 . S
O15 C23 1.252 . S
C16 O19 1.252 . S
C16 O20 1.260 . S
C17 O24 1.240 . S
C17 O25 1.252 . S
C18 O21 1.252 . S
C18 O22 1.260 . S
O19 In13 2.266 . S
O19 C16 1.252 . S
O20 In13 2.326 . S
O20 C16 1.260 . S
O21 In13 2.266 . S
O21 C18 1.252 . S
O22 In13 2.326 . S
O22 C18 1.260 . S
C23 O14 1.240 . S
C23 O15 1.252 . S
O24 In13 2.294 . S
O24 C17 1.240 . S
O25 In13 2.326 . S
O25 C17 1.252 . S
In26 O27 2.294 . S
In26 O28 2.326 . S
In26 O32 2.266 . S
In26 O33 2.326 . S
In26 O34 2.266 . S
In26 O35 2.326 . S
In26 O37 2.294 . S
In26 O38 2.326 . S
O27 In26 2.294 . S
O27 C36 1.240 . S
O28 In26 2.326 . S
O28 C36 1.252 . S
C29 O32 1.252 . S
C29 O33 1.260 . S
C30 O37 1.240 . S
C30 O38 1.252 . S
C31 O34 1.252 . S
C31 O35 1.260 . S
O32 In26 2.266 . S
O32 C29 1.252 . S
O33 In26 2.326 . S
O33 C29 1.260 . S
O34 In26 2.266 . S
O34 C31 1.252 . S
O35 In26 2.326 . S
O35 C31 1.260 . S
C36 O27 1.240 . S
C36 O28 1.252 . S
O37 In26 2.294 . S
O37 C30 1.240 . S
O38 In26 2.326 . S
O38 C30 1.252 . S
In39 O40 2.294 . S
In39 O41 2.326 . S
In39 O45 2.266 . S
In39 O46 2.326 . S
In39 O47 2.266 . S
In39 O48 2.326 . S
In39 O50 2.294 . S
In39 O51 2.326 . S
O40 In39 2.294 . S
O40 C49 1.240 . S
O41 In39 2.326 . S
O41 C49 1.252 . S
C42 O45 1.252 . S
C42 O46 1.260 . S
C43 O50 1.240 . S
C43 O51 1.252 . S
C44 O47 1.252 . S
C44 O48 1.260 . S
O45 In39 2.266 . S
O45 C42 1.252 . S
O46 In39 2.326 . S
O46 C42 1.260 . S
O47 In39 2.266 . S
O47 C44 1.252 . S
O48 In39 2.326 . S
O48 C44 1.260 . S
C49 O40 1.240 . S
C49 O41 1.252 . S
O50 In39 2.294 . S
O50 C43 1.240 . S
O51 In39 2.326 . S
O51 C43 1.252 . S
In52 O53 2.294 . S
In52 O54 2.326 . S
In52 O58 2.266 . S
In52 O59 2.326 . S
In52 O60 2.266 . S
In52 O61 2.326 . S
In52 O63 2.294 . S
In52 O64 2.326 . S
O53 In52 2.294 . S
O53 C62 1.240 . S
O54 In52 2.326 . S
O54 C62 1.252 . S
C55 O58 1.252 . S
C55 O59 1.260 . S
C56 O63 1.240 . S
C56 O64 1.252 . S
C57 O60 1.252 . S
C57 O61 1.260 . S
O58 In52 2.266 . S
O58 C55 1.252 . S
O59 In52 2.326 . S
O59 C55 1.260 . S
O60 In52 2.266 . S
O60 C57 1.252 . S
O61 In52 2.326 . S
O61 C57 1.260 . S
C62 O53 1.240 . S
C62 O54 1.252 . S
O63 In52 2.294 . S
O63 C56 1.240 . S
O64 In52 2.326 . S
O64 C56 1.252 . S
In65 O66 2.294 . S
In65 O67 2.326 . S
In65 O71 2.266 . S
In65 O72 2.326 . S
In65 O73 2.266 . S
In65 O74 2.326 . S
In65 O76 2.294 . S
In65 O77 2.326 . S
O66 In65 2.294 . S
O66 C75 1.240 . S
O67 In65 2.326 . S
O67 C75 1.252 . S
C68 O71 1.252 . S
C68 O72 1.260 . S
C69 O76 1.240 . S
C69 O77 1.252 . S
C70 O73 1.252 . S
C70 O74 1.260 . S
O71 In65 2.266 . S
O71 C68 1.252 . S
O72 In65 2.326 . S
O72 C68 1.260 . S
O73 In65 2.266 . S
O73 C70 1.252 . S
O74 In65 2.326 . S
O74 C70 1.260 . S
C75 O66 1.240 . S
C75 O67 1.252 . S
O76 In65 2.294 . S
O76 C69 1.240 . S
O77 In65 2.326 . S
O77 C69 1.252 . S
In78 O79 2.294 . S
In78 O80 2.326 . S
In78 O84 2.266 . S
In78 O85 2.326 . S
In78 O86 2.266 . S
In78 O87 2.326 . S
In78 O89 2.294 . S
In78 O90 2.326 . S
O79 In78 2.294 . S
O79 C88 1.240 . S
O80 In78 2.326 . S
O80 C88 1.252 . S
C81 O84 1.252 . S
C81 O85 1.260 . S
C82 O89 1.240 . S
C82 O90 1.252 . S
C83 O86 1.252 . S
C83 O87 1.260 . S
O84 In78 2.266 . S
O84 C81 1.252 . S
O85 In78 2.326 . S
O85 C81 1.260 . S
O86 In78 2.266 . S
O86 C83 1.252 . S
O87 In78 2.326 . S
O87 C83 1.260 . S
C88 O79 1.240 . S
C88 O80 1.252 . S
O89 In78 2.294 . S
O89 C82 1.240 . S
O90 In78 2.326 . S
O90 C82 1.252 . S
In91 O92 2.294 . S
In91 O93 2.326 . S
In91 O97 2.266 . S
In91 O98 2.326 . S
In91 O99 2.266 . S
In91 O100 2.326 . S
In91 O102 2.294 . S
In91 O103 2.326 . S
O92 In91 2.294 . S
O92 C101 1.240 . S
O93 In91 2.326 . S
O93 C101 1.252 . S
C94 O97 1.252 . S
C94 O98 1.260 . S
C95 O102 1.240 . S
C95 O103 1.252 . S
C96 O99 1.252 . S
C96 O100 1.260 . S
O97 In91 2.266 . S
O97 C94 1.252 . S
O98 In91 2.326 . S
O98 C94 1.260 . S
O99 In91 2.266 . S
O99 C96 1.252 . S
O100 In91 2.326 . S
O100 C96 1.260 . S
C101 O92 1.240 . S
C101 O93 1.252 . S
O102 In91 2.294 . S
O102 C95 1.240 . S
O103 In91 2.326 . S
O103 C95 1.252 . S
In104 O105 2.294 . S
In104 O106 2.326 . S
In104 O110 2.266 . S
In104 O111 2.326 . S
In104 O112 2.266 . S
In104 O113 2.326 . S
In104 O115 2.294 . S
In104 O116 2.326 . S
O105 In104 2.294 . S
O105 C114 1.240 . S
O106 In104 2.326 . S
O106 C114 1.252 . S
C107 O110 1.252 . S
C107 O111 1.260 . S
C108 O115 1.240 . S
C108 O116 1.252 . S
C109 O112 1.252 . S
C109 O113 1.260 . S
O110 In104 2.266 . S
O110 C107 1.252 . S
O111 In104 2.326 . S
O111 C107 1.260 . S
O112 In104 2.266 . S
O112 C109 1.252 . S
O113 In104 2.326 . S
O113 C109 1.260 . S
C114 O105 1.240 . S
C114 O106 1.252 . S
O115 In104 2.294 . S
O115 C108 1.240 . S
O116 In104 2.326 . S
O116 C108 1.252 . S
In117 O118 2.294 . S
In117 O119 2.326 . S
In117 O123 2.266 . S
In117 O124 2.326 . S
In117 O125 2.266 . S
In117 O126 2.326 . S
In117 O128 2.294 . S
In117 O129 2.326 . S
O118 In117 2.294 . S
O118 C127 1.240 . S
O119 In117 2.326 . S
O119 C127 1.252 . S
C120 O123 1.252 . S
C120 O124 1.260 . S
C121 O128 1.240 . S
C121 O129 1.252 . S
C122 O125 1.252 . S
C122 O126 1.260 . S
O123 In117 2.266 . S
O123 C120 1.252 . S
O124 In117 2.326 . S
O124 C120 1.260 . S
O125 In117 2.266 . S
O125 C122 1.252 . S
O126 In117 2.326 . S
O126 C122 1.260 . S
C127 O118 1.240 . S
C127 O119 1.252 . S
O128 In117 2.294 . S
O128 C121 1.240 . S
O129 In117 2.326 . S
O129 C121 1.252 . S
In130 O131 2.294 . S
In130 O132 2.326 . S
In130 O136 2.266 . S
In130 O137 2.326 . S
In130 O138 2.266 . S
In130 O139 2.326 . S
In130 O141 2.294 . S
In130 O142 2.326 . S
O131 In130 2.294 . S
O131 C140 1.240 . S
O132 In130 2.326 . S
O132 C140 1.252 . S
C133 O136 1.252 . S
C133 O137 1.260 . S
C134 O141 1.240 . S
C134 O142 1.252 . S
C135 O138 1.252 . S
C135 O139 1.260 . S
O136 In130 2.266 . S
O136 C133 1.252 . S
O137 In130 2.326 . S
O137 C133 1.260 . S
O138 In130 2.266 . S
O138 C135 1.252 . S
O139 In130 2.326 . S
O139 C135 1.260 . S
C140 O131 1.240 . S
C140 O132 1.252 . S
O141 In130 2.294 . S
O141 C134 1.240 . S
O142 In130 2.326 . S
O142 C134 1.252 . S
In143 O144 2.294 . S
In143 O145 2.326 . S
In143 O149 2.266 . S
In143 O150 2.326 . S
In143 O151 2.266 . S
In143 O152 2.326 . S
In143 O154 2.294 . S
In143 O155 2.326 . S
O144 In143 2.294 . S
O144 C153 1.240 . S
O145 In143 2.326 . S
O145 C153 1.252 . S
C146 O149 1.252 . S
C146 O150 1.260 . S
C147 O154 1.240 . S
C147 O155 1.252 . S
C148 O151 1.252 . S
C148 O152 1.260 . S
O149 In143 2.266 . S
O149 C146 1.252 . S
O150 In143 2.326 . S
O150 C146 1.260 . S
O151 In143 2.266 . S
O151 C148 1.252 . S
O152 In143 2.326 . S
O152 C148 1.260 . S
C153 O144 1.240 . S
C153 O145 1.252 . S
O154 In143 2.294 . S
O154 C147 1.240 . S
O155 In143 2.326 . S
O155 C147 1.252 . S
In156 O157 2.294 . S
In156 O158 2.326 . S
In156 O162 2.266 . S
In156 O163 2.326 . S
In156 O164 2.266 . S
In156 O165 2.326 . S
In156 O167 2.294 . S
In156 O168 2.326 . S
O157 In156 2.294 . S
O157 C166 1.240 . S
O158 In156 2.326 . S
O158 C166 1.252 . S
C159 O162 1.252 . S
C159 O163 1.260 . S
C160 O167 1.240 . S
C160 O168 1.252 . S
C161 O164 1.252 . S
C161 O165 1.260 . S
O162 In156 2.266 . S
O162 C159 1.252 . S
O163 In156 2.326 . S
O163 C159 1.260 . S
O164 In156 2.266 . S
O164 C161 1.252 . S
O165 In156 2.326 . S
O165 C161 1.260 . S
C166 O157 1.240 . S
C166 O158 1.252 . S
O167 In156 2.294 . S
O167 C160 1.240 . S
O168 In156 2.326 . S
O168 C160 1.252 . S
In169 O170 2.294 . S
In169 O171 2.326 . S
In169 O175 2.266 . S
In169 O176 2.326 . S
In169 O177 2.266 . S
In169 O178 2.326 . S
In169 O180 2.294 . S
In169 O181 2.326 . S
O170 In169 2.294 . S
O170 C179 1.240 . S
O171 In169 2.326 . S
O171 C179 1.252 . S
C172 O175 1.252 . S
C172 O176 1.260 . S
C173 O180 1.240 . S
C173 O181 1.252 . S
C174 O177 1.252 . S
C174 O178 1.260 . S
O175 In169 2.266 . S
O175 C172 1.252 . S
O176 In169 2.326 . S
O176 C172 1.260 . S
O177 In169 2.266 . S
O177 C174 1.252 . S
O178 In169 2.326 . S
O178 C174 1.260 . S
C179 O170 1.240 . S
C179 O171 1.252 . S
O180 In169 2.294 . S
O180 C173 1.240 . S
O181 In169 2.326 . S
O181 C173 1.252 . S
In182 O183 2.294 . S
In182 O184 2.326 . S
In182 O188 2.266 . S
In182 O189 2.326 . S
In182 O190 2.266 . S
In182 O191 2.326 . S
In182 O193 2.294 . S
In182 O194 2.326 . S
O183 In182 2.294 . S
O183 C192 1.240 . S
O184 In182 2.326 . S
O184 C192 1.252 . S
C185 O188 1.252 . S
C185 O189 1.260 . S
C186 O193 1.240 . S
C186 O194 1.252 . S
C187 O190 1.252 . S
C187 O191 1.260 . S
O188 In182 2.266 . S
O188 C185 1.252 . S
O189 In182 2.326 . S
O189 C185 1.260 . S
O190 In182 2.266 . S
O190 C187 1.252 . S
O191 In182 2.326 . S
O191 C187 1.260 . S
C192 O183 1.240 . S
C192 O184 1.252 . S
O193 In182 2.294 . S
O193 C186 1.240 . S
O194 In182 2.326 . S
O194 C186 1.252 . S
In195 O196 2.294 . S
In195 O197 2.326 . S
In195 O201 2.266 . S
In195 O202 2.326 . S
In195 O203 2.266 . S
In195 O204 2.326 . S
In195 O206 2.294 . S
In195 O207 2.326 . S
O196 In195 2.294 . S
O196 C205 1.240 . S
O197 In195 2.326 . S
O197 C205 1.252 . S
C198 O201 1.252 . S
C198 O202 1.260 . S
C199 O206 1.240 . S
C199 O207 1.252 . S
C200 O203 1.252 . S
C200 O204 1.260 . S
O201 In195 2.266 . S
O201 C198 1.252 . S
O202 In195 2.326 . S
O202 C198 1.260 . S
O203 In195 2.266 . S
O203 C200 1.252 . S
O204 In195 2.326 . S
O204 C200 1.260 . S
C205 O196 1.240 . S
C205 O197 1.252 . S
O206 In195 2.294 . S
O206 C199 1.240 . S
O207 In195 2.326 . S
O207 C199 1.252 . S
H208 C214 0.930 . S
H209 C218 0.930 . S
H210 C223 0.929 . S
H211 C221 0.929 . S
H212 C216 0.929 . S
H213 C222 0.929 . S
C214 H208 0.930 . S
C214 C215 1.367 . S
C214 C222 1.378 . S
C215 C214 1.367 . S
C215 C223 1.433 . S
C216 H212 0.929 . S
C216 C218 1.378 . S
C216 C220 1.350 . S
C217 C220 1.463 . S
C217 C222 1.350 . S
C217 N225 1.427 . S
C218 H209 0.930 . S
C218 C216 1.378 . S
C218 C219 1.367 . S
C219 C218 1.367 . S
C219 C221 1.433 . S
C220 C216 1.350 . S
C220 C217 1.463 . S
C220 N224 1.427 . S
C221 H211 0.929 . S
C221 C219 1.433 . S
C221 N224 1.384 . S
C222 H213 0.929 . S
C222 C214 1.378 . S
C222 C217 1.350 . S
C223 H210 0.929 . S
C223 C215 1.433 . S
C223 N225 1.384 . S
N224 C220 1.427 . S
N224 C221 1.384 . S
N225 C217 1.427 . S
N225 C223 1.384 . S
H226 C232 0.930 . S
H227 C236 0.930 . S
H228 C241 0.929 . S
H229 C239 0.929 . S
H230 C234 0.929 . S
H231 C240 0.929 . S
C232 H226 0.930 . S
C232 C233 1.367 . S
C232 C240 1.378 . S
C233 C232 1.367 . S
C233 C241 1.433 . S
C234 H230 0.929 . S
C234 C236 1.378 . S
C234 C238 1.350 . S
C235 C238 1.463 . S
C235 C240 1.350 . S
C235 N243 1.427 . S
C236 H227 0.930 . S
C236 C234 1.378 . S
C236 C237 1.367 . S
C237 C236 1.367 . S
C237 C239 1.433 . S
C238 C234 1.350 . S
C238 C235 1.463 . S
C238 N242 1.427 . S
C239 H229 0.929 . S
C239 C237 1.433 . S
C239 N242 1.384 . S
C240 H231 0.929 . S
C240 C232 1.378 . S
C240 C235 1.350 . S
C241 H228 0.929 . S
C241 C233 1.433 . S
C241 N243 1.384 . S
N242 C238 1.427 . S
N242 C239 1.384 . S
N243 C235 1.427 . S
N243 C241 1.384 . S
H244 C250 0.930 . S
H245 C254 0.930 . S
H246 C259 0.929 . S
H247 C257 0.929 . S
H248 C252 0.929 . S
H249 C258 0.929 . S
C250 H244 0.930 . S
C250 C251 1.367 . S
C250 C258 1.378 . S
C251 C250 1.367 . S
C251 C259 1.433 . S
C252 H248 0.929 . S
C252 C254 1.378 . S
C252 C256 1.350 . S
C253 C256 1.463 . S
C253 C258 1.350 . S
C253 N261 1.427 . S
C254 H245 0.930 . S
C254 C252 1.378 . S
C254 C255 1.367 . S
C255 C254 1.367 . S
C255 C257 1.433 . S
C256 C252 1.350 . S
C256 C253 1.463 . S
C256 N260 1.427 . S
C257 H247 0.929 . S
C257 C255 1.433 . S
C257 N260 1.384 . S
C258 H249 0.929 . S
C258 C250 1.378 . S
C258 C253 1.350 . S
C259 H246 0.929 . S
C259 C251 1.433 . S
C259 N261 1.384 . S
N260 C256 1.427 . S
N260 C257 1.384 . S
N261 C253 1.427 . S
N261 C259 1.384 . S
H262 C268 0.930 . S
H263 C272 0.930 . S
H264 C277 0.929 . S
H265 C275 0.929 . S
H266 C270 0.929 . S
H267 C276 0.929 . S
C268 H262 0.930 . S
C268 C269 1.367 . S
C268 C276 1.378 . S
C269 C268 1.367 . S
C269 C277 1.433 . S
C270 H266 0.929 . S
C270 C272 1.378 . S
C270 C274 1.350 . S
C271 C274 1.463 1_455 S
C271 C276 1.350 . S
C271 N279 1.427 . S
C272 H263 0.930 . S
C272 C270 1.378 . S
C272 C273 1.367 . S
C273 C272 1.367 . S
C273 C275 1.433 . S
C274 C270 1.350 . S
C274 C271 1.463 1_655 S
C274 N278 1.427 . S
C275 H265 0.929 . S
C275 C273 1.433 . S
C275 N278 1.384 . S
C276 H267 0.929 . S
C276 C268 1.378 . S
C276 C271 1.350 . S
C277 H264 0.929 . S
C277 C269 1.433 . S
C277 N279 1.384 . S
N278 C274 1.427 . S
N278 C275 1.384 . S
N279 C271 1.427 . S
N279 C277 1.384 . S
H280 C286 0.930 . S
H281 C290 0.930 . S
H282 C295 0.929 . S
H283 C293 0.929 . S
H284 C288 0.929 . S
H285 C294 0.929 . S
C286 H280 0.930 . S
C286 C287 1.367 . S
C286 C294 1.378 . S
C287 C286 1.367 . S
C287 C295 1.433 . S
C288 H284 0.929 . S
C288 C290 1.378 . S
C288 C292 1.350 . S
C289 C292 1.463 . S
C289 C294 1.350 . S
C289 N297 1.427 . S
C290 H281 0.930 . S
C290 C288 1.378 . S
C290 C291 1.367 . S
C291 C290 1.367 . S
C291 C293 1.433 . S
C292 C288 1.350 . S
C292 C289 1.463 . S
C292 N296 1.427 . S
C293 H283 0.929 . S
C293 C291 1.433 . S
C293 N296 1.384 . S
C294 H285 0.929 . S
C294 C286 1.378 . S
C294 C289 1.350 . S
C295 H282 0.929 . S
C295 C287 1.433 . S
C295 N297 1.384 . S
N296 C292 1.427 . S
N296 C293 1.384 . S
N297 C289 1.427 . S
N297 C295 1.384 . S
H298 C304 0.930 . S
H299 C308 0.930 . S
H300 C313 0.929 . S
H301 C311 0.929 . S
H302 C306 0.929 . S
H303 C312 0.929 . S
C304 H298 0.930 . S
C304 C305 1.367 . S
C304 C312 1.378 . S
C305 C304 1.367 . S
C305 C313 1.433 . S
C306 H302 0.929 . S
C306 C308 1.378 . S
C306 C310 1.350 . S
C307 C310 1.463 1_655 S
C307 C312 1.350 . S
C307 N315 1.427 . S
C308 H299 0.930 . S
C308 C306 1.378 . S
C308 C309 1.367 . S
C309 C308 1.367 . S
C309 C311 1.433 . S
C310 C306 1.350 . S
C310 C307 1.463 1_455 S
C310 N314 1.427 . S
C311 H301 0.929 . S
C311 C309 1.433 . S
C311 N314 1.384 . S
C312 H303 0.929 . S
C312 C304 1.378 . S
C312 C307 1.350 . S
C313 H300 0.929 . S
C313 C305 1.433 . S
C313 N315 1.384 . S
N314 C310 1.427 . S
N314 C311 1.384 . S
N315 C307 1.427 . S
N315 C313 1.384 . S
H316 C322 0.930 . S
H317 C326 0.930 . S
H318 C331 0.929 . S
H319 C329 0.929 . S
H320 C324 0.929 . S
H321 C330 0.929 . S
C322 H316 0.930 . S
C322 C323 1.367 . S
C322 C330 1.378 . S
C323 C322 1.367 . S
C323 C331 1.433 . S
C324 H320 0.929 . S
C324 C326 1.378 . S
C324 C328 1.350 . S
C325 C328 1.463 . S
C325 C330 1.350 . S
C325 N333 1.427 . S
C326 H317 0.930 . S
C326 C324 1.378 . S
C326 C327 1.367 . S
C327 C326 1.367 . S
C327 C329 1.433 . S
C328 C324 1.350 . S
C328 C325 1.463 . S
C328 N332 1.427 . S
C329 H319 0.929 . S
C329 C327 1.433 . S
C329 N332 1.384 . S
C330 H321 0.929 . S
C330 C322 1.378 . S
C330 C325 1.350 . S
C331 H318 0.929 . S
C331 C323 1.433 . S
C331 N333 1.384 . S
N332 C328 1.427 . S
N332 C329 1.384 . S
N333 C325 1.427 . S
N333 C331 1.384 . S
H334 C340 0.930 . S
H335 C344 0.930 . S
H336 C349 0.929 . S
H337 C347 0.929 . S
H338 C342 0.929 . S
H339 C348 0.929 . S
C340 H334 0.930 . S
C340 C341 1.367 . S
C340 C348 1.378 . S
C341 C340 1.367 . S
C341 C349 1.433 . S
C342 H338 0.929 . S
C342 C344 1.378 . S
C342 C346 1.350 . S
C343 C346 1.463 . S
C343 C348 1.350 . S
C343 N351 1.427 . S
C344 H335 0.930 . S
C344 C342 1.378 . S
C344 C345 1.367 . S
C345 C344 1.367 . S
C345 C347 1.433 . S
C346 C342 1.350 . S
C346 C343 1.463 . S
C346 N350 1.427 . S
C347 H337 0.929 . S
C347 C345 1.433 . S
C347 N350 1.384 . S
C348 H339 0.929 . S
C348 C340 1.378 . S
C348 C343 1.350 . S
C349 H336 0.929 . S
C349 C341 1.433 . S
C349 N351 1.384 . S
N350 C346 1.427 . S
N350 C347 1.384 . S
N351 C343 1.427 . S
N351 C349 1.384 . S
H352 C358 0.930 . S
H353 C362 0.930 . S
H354 C367 0.929 . S
H355 C365 0.929 . S
H356 C360 0.929 . S
H357 C366 0.929 . S
C358 H352 0.930 . S
C358 C359 1.367 . S
C358 C366 1.378 . S
C359 C358 1.367 . S
C359 C367 1.433 . S
C360 H356 0.929 . S
C360 C362 1.378 . S
C360 C364 1.350 . S
C361 C364 1.463 . S
C361 C366 1.350 . S
C361 N369 1.427 . S
C362 H353 0.930 . S
C362 C360 1.378 . S
C362 C363 1.367 . S
C363 C362 1.367 . S
C363 C365 1.433 . S
C364 C360 1.350 . S
C364 C361 1.463 . S
C364 N368 1.427 . S
C365 H355 0.929 . S
C365 C363 1.433 . S
C365 N368 1.384 . S
C366 H357 0.929 . S
C366 C358 1.378 . S
C366 C361 1.350 . S
C367 H354 0.929 . S
C367 C359 1.433 . S
C367 N369 1.384 . S
N368 C364 1.427 . S
N368 C365 1.384 . S
N369 C361 1.427 . S
N369 C367 1.384 . S
H370 C376 0.930 . S
H371 C380 0.930 . S
H372 C385 0.929 . S
H373 C383 0.929 . S
H374 C378 0.929 . S
H375 C384 0.929 . S
C376 H370 0.930 . S
C376 C377 1.367 . S
C376 C384 1.378 . S
C377 C376 1.367 . S
C377 C385 1.433 . S
C378 H374 0.929 . S
C378 C380 1.378 . S
C378 C382 1.350 . S
C379 C382 1.463 . S
C379 C384 1.350 . S
C379 N387 1.427 . S
C380 H371 0.930 . S
C380 C378 1.378 . S
C380 C381 1.367 . S
C381 C380 1.367 . S
C381 C383 1.433 . S
C382 C378 1.350 . S
C382 C379 1.463 . S
C382 N386 1.427 . S
C383 H373 0.929 . S
C383 C381 1.433 . S
C383 N386 1.384 . S
C384 H375 0.929 . S
C384 C376 1.378 . S
C384 C379 1.350 . S
C385 H372 0.929 . S
C385 C377 1.433 . S
C385 N387 1.384 . S
N386 C382 1.427 . S
N386 C383 1.384 . S
N387 C379 1.427 . S
N387 C385 1.384 . S
H388 C394 0.930 . S
H389 C398 0.930 . S
H390 C403 0.929 . S
H391 C401 0.929 . S
H392 C396 0.929 . S
H393 C402 0.929 . S
C394 H388 0.930 . S
C394 C395 1.367 . S
C394 C402 1.378 . S
C395 C394 1.367 . S
C395 C403 1.433 . S
C396 H392 0.929 . S
C396 C398 1.378 . S
C396 C400 1.350 . S
C397 C400 1.463 . S
C397 C402 1.350 . S
C397 N405 1.427 . S
C398 H389 0.930 . S
C398 C396 1.378 . S
C398 C399 1.367 . S
C399 C398 1.367 . S
C399 C401 1.433 . S
C400 C396 1.350 . S
C400 C397 1.463 . S
C400 N404 1.427 . S
C401 H391 0.929 . S
C401 C399 1.433 . S
C401 N404 1.384 . S
C402 H393 0.929 . S
C402 C394 1.378 . S
C402 C397 1.350 . S
C403 H390 0.929 . S
C403 C395 1.433 . S
C403 N405 1.384 . S
N404 C400 1.427 . S
N404 C401 1.384 . S
N405 C397 1.427 . S
N405 C403 1.384 . S
H406 C412 0.930 . S
H407 C416 0.930 . S
H408 C421 0.929 . S
H409 C419 0.929 . S
H410 C414 0.929 . S
H411 C420 0.929 . S
C412 H406 0.930 . S
C412 C413 1.367 . S
C412 C420 1.378 . S
C413 C412 1.367 . S
C413 C421 1.433 . S
C414 H410 0.929 . S
C414 C416 1.378 . S
C414 C418 1.350 . S
C415 C418 1.463 . S
C415 C420 1.350 . S
C415 N423 1.427 . S
C416 H407 0.930 . S
C416 C414 1.378 . S
C416 C417 1.367 . S
C417 C416 1.367 . S
C417 C419 1.433 . S
C418 C414 1.350 . S
C418 C415 1.463 . S
C418 N422 1.427 . S
C419 H409 0.929 . S
C419 C417 1.433 . S
C419 N422 1.384 . S
C420 H411 0.929 . S
C420 C412 1.378 . S
C420 C415 1.350 . S
C421 H408 0.929 . S
C421 C413 1.433 . S
C421 N423 1.384 . S
N422 C418 1.427 . S
N422 C419 1.384 . S
N423 C415 1.427 . S
N423 C421 1.384 . S
H424 C430 0.930 . S
H425 C434 0.930 . S
H426 C439 0.929 . S
H427 C437 0.929 . S
H428 C432 0.929 . S
H429 C438 0.929 . S
C430 H424 0.930 . S
C430 C431 1.367 . S
C430 C438 1.378 . S
C431 C430 1.367 . S
C431 C439 1.433 . S
C432 H428 0.929 . S
C432 C434 1.378 . S
C432 C436 1.350 . S
C433 C436 1.463 1_455 S
C433 C438 1.350 . S
C433 N441 1.427 . S
C434 H425 0.930 . S
C434 C432 1.378 . S
C434 C435 1.367 . S
C435 C434 1.367 . S
C435 C437 1.433 . S
C436 C432 1.350 . S
C436 C433 1.463 1_655 S
C436 N440 1.427 . S
C437 H427 0.929 . S
C437 C435 1.433 . S
C437 N440 1.384 . S
C438 H429 0.929 . S
C438 C430 1.378 . S
C438 C433 1.350 . S
C439 H426 0.929 . S
C439 C431 1.433 . S
C439 N441 1.384 . S
N440 C436 1.427 . S
N440 C437 1.384 . S
N441 C433 1.427 . S
N441 C439 1.384 . S
H442 C448 0.930 . S
H443 C452 0.930 . S
H444 C457 0.929 . S
H445 C455 0.929 . S
H446 C450 0.929 . S
H447 C456 0.929 . S
C448 H442 0.930 . S
C448 C449 1.367 . S
C448 C456 1.378 . S
C449 C448 1.367 . S
C449 C457 1.433 . S
C450 H446 0.929 . S
C450 C452 1.378 . S
C450 C454 1.350 . S
C451 C454 1.463 . S
C451 C456 1.350 . S
C451 N459 1.427 . S
C452 H443 0.930 . S
C452 C450 1.378 . S
C452 C453 1.367 . S
C453 C452 1.367 . S
C453 C455 1.433 . S
C454 C450 1.350 . S
C454 C451 1.463 . S
C454 N458 1.427 . S
C455 H445 0.929 . S
C455 C453 1.433 . S
C455 N458 1.384 . S
C456 H447 0.929 . S
C456 C448 1.378 . S
C456 C451 1.350 . S
C457 H444 0.929 . S
C457 C449 1.433 . S
C457 N459 1.384 . S
N458 C454 1.427 . S
N458 C455 1.384 . S
N459 C451 1.427 . S
N459 C457 1.384 . S
H460 C466 0.930 . S
H461 C470 0.930 . S
H462 C475 0.929 . S
H463 C473 0.929 . S
H464 C468 0.929 . S
H465 C474 0.929 . S
C466 H460 0.930 . S
C466 C467 1.367 . S
C466 C474 1.378 . S
C467 C466 1.367 . S
C467 C475 1.433 . S
C468 H464 0.929 . S
C468 C470 1.378 . S
C468 C472 1.350 . S
C469 C472 1.463 . S
C469 C474 1.350 . S
C469 N477 1.427 . S
C470 H461 0.930 . S
C470 C468 1.378 . S
C470 C471 1.367 . S
C471 C470 1.367 . S
C471 C473 1.433 . S
C472 C468 1.350 . S
C472 C469 1.463 . S
C472 N476 1.427 . S
C473 H463 0.929 . S
C473 C471 1.433 . S
C473 N476 1.384 . S
C474 H465 0.929 . S
C474 C466 1.378 . S
C474 C469 1.350 . S
C475 H462 0.929 . S
C475 C467 1.433 . S
C475 N477 1.384 . S
N476 C472 1.427 . S
N476 C473 1.384 . S
N477 C469 1.427 . S
N477 C475 1.384 . S
H478 C484 0.930 . S
H479 C488 0.930 . S
H480 C493 0.929 . S
H481 C491 0.929 . S
H482 C486 0.929 . S
H483 C492 0.929 . S
C484 H478 0.930 . S
C484 C485 1.367 . S
C484 C492 1.378 . S
C485 C484 1.367 . S
C485 C493 1.433 . S
C486 H482 0.929 . S
C486 C488 1.378 . S
C486 C490 1.350 . S
C487 C490 1.463 1_455 S
C487 C492 1.350 . S
C487 N495 1.427 . S
C488 H479 0.930 . S
C488 C486 1.378 . S
C488 C489 1.367 . S
C489 C488 1.367 . S
C489 C491 1.433 . S
C490 C486 1.350 . S
C490 C487 1.463 1_655 S
C490 N494 1.427 . S
C491 H481 0.929 . S
C491 C489 1.433 . S
C491 N494 1.384 . S
C492 H483 0.929 . S
C492 C484 1.378 . S
C492 C487 1.350 . S
C493 H480 0.929 . S
C493 C485 1.433 . S
C493 N495 1.384 . S
N494 C490 1.427 . S
N494 C491 1.384 . S
N495 C487 1.427 . S
N495 C493 1.384 . S
H496 C502 0.930 . S
H497 C506 0.930 . S
H498 C511 0.929 . S
H499 C509 0.929 . S
H500 C504 0.929 . S
H501 C510 0.929 . S
C502 H496 0.930 . S
C502 C503 1.367 . S
C502 C510 1.378 . S
C503 C502 1.367 . S
C503 C511 1.433 . S
C504 H500 0.929 . S
C504 C506 1.378 . S
C504 C508 1.350 . S
C505 C508 1.463 1_554 S
C505 C510 1.350 . S
C505 N513 1.427 1_554 S
C506 H497 0.930 . S
C506 C504 1.378 . S
C506 C507 1.367 . S
C507 C506 1.367 . S
C507 C509 1.433 . S
C508 C504 1.350 . S
C508 C505 1.463 1_556 S
C508 N512 1.427 1_556 S
C509 H499 0.929 . S
C509 C507 1.433 . S
C509 N512 1.384 1_556 S
C510 H501 0.929 . S
C510 C502 1.378 . S
C510 C505 1.350 . S
C511 H498 0.929 . S
C511 C503 1.433 . S
C511 N513 1.384 1_554 S
N512 C508 1.427 1_554 S
N512 C509 1.384 1_554 S
N513 C505 1.427 1_556 S
N513 C511 1.384 1_556 S
H514 C520 0.930 . S
H515 C524 0.930 . S
H516 C529 0.929 . S
H517 C527 0.929 . S
H518 C522 0.929 . S
H519 C528 0.929 . S
C520 H514 0.930 . S
C520 C521 1.367 . S
C520 C528 1.378 . S
C521 C520 1.367 . S
C521 C529 1.433 . S
C522 H518 0.929 . S
C522 C524 1.378 . S
C522 C526 1.350 . S
C523 C526 1.463 . S
C523 C528 1.350 . S
C523 N531 1.427 . S
C524 H515 0.930 . S
C524 C522 1.378 . S
C524 C525 1.367 . S
C525 C524 1.367 . S
C525 C527 1.433 . S
C526 C522 1.350 . S
C526 C523 1.463 . S
C526 N530 1.427 . S
C527 H517 0.929 . S
C527 C525 1.433 . S
C527 N530 1.384 . S
C528 H519 0.929 . S
C528 C520 1.378 . S
C528 C523 1.350 . S
C529 H516 0.929 . S
C529 C521 1.433 . S
C529 N531 1.384 . S
N530 C526 1.427 . S
N530 C527 1.384 . S
N531 C523 1.427 . S
N531 C529 1.384 . S
H532 C538 0.930 . S
H533 C542 0.930 . S
H534 C547 0.929 . S
H535 C545 0.929 . S
H536 C540 0.929 . S
H537 C546 0.929 . S
C538 H532 0.930 . S
C538 C539 1.367 . S
C538 C546 1.378 . S
C539 C538 1.367 . S
C539 C547 1.433 . S
C540 H536 0.929 . S
C540 C542 1.378 . S
C540 C544 1.350 . S
C541 C544 1.463 . S
C541 C546 1.350 . S
C541 N549 1.427 . S
C542 H533 0.930 . S
C542 C540 1.378 . S
C542 C543 1.367 . S
C543 C542 1.367 . S
C543 C545 1.433 . S
C544 C540 1.350 . S
C544 C541 1.463 . S
C544 N548 1.427 . S
C545 H535 0.929 . S
C545 C543 1.433 . S
C545 N548 1.384 . S
C546 H537 0.929 . S
C546 C538 1.378 . S
C546 C541 1.350 . S
C547 H534 0.929 . S
C547 C539 1.433 . S
C547 N549 1.384 . S
N548 C544 1.427 . S
N548 C545 1.384 . S
N549 C541 1.427 . S
N549 C547 1.384 . S
H550 C556 0.930 . S
H551 C560 0.930 . S
H552 C565 0.929 . S
H553 C563 0.929 . S
H554 C558 0.929 . S
H555 C564 0.929 . S
C556 H550 0.930 . S
C556 C557 1.367 . S
C556 C564 1.378 . S
C557 C556 1.367 . S
C557 C565 1.433 . S
C558 H554 0.929 . S
C558 C560 1.378 . S
C558 C562 1.350 . S
C559 C562 1.463 . S
C559 C564 1.350 . S
C559 N567 1.427 . S
C560 H551 0.930 . S
C560 C558 1.378 . S
C560 C561 1.367 . S
C561 C560 1.367 . S
C561 C563 1.433 . S
C562 C558 1.350 . S
C562 C559 1.463 . S
C562 N566 1.427 . S
C563 H553 0.929 . S
C563 C561 1.433 . S
C563 N566 1.384 . S
C564 H555 0.929 . S
C564 C556 1.378 . S
C564 C559 1.350 . S
C565 H552 0.929 . S
C565 C557 1.433 . S
C565 N567 1.384 . S
N566 C562 1.427 . S
N566 C563 1.384 . S
N567 C559 1.427 . S
N567 C565 1.384 . S
H568 C574 0.930 . S
H569 C578 0.930 . S
H570 C583 0.929 . S
H571 C581 0.929 . S
H572 C576 0.929 1_556 S
H573 C582 0.929 1_554 S
C574 H568 0.930 . S
C574 C575 1.367 . S
C574 C582 1.378 . S
C575 C574 1.367 . S
C575 C583 1.433 . S
C576 H572 0.929 1_554 S
C576 C578 1.378 . S
C576 C580 1.350 . S
C577 C580 1.463 1_556 S
C577 C582 1.350 . S
C577 N585 1.427 . S
C578 H569 0.930 . S
C578 C576 1.378 . S
C578 C579 1.367 . S
C579 C578 1.367 . S
C579 C581 1.433 . S
C580 C576 1.350 . S
C580 C577 1.463 1_554 S
C580 N584 1.427 . S
C581 H571 0.929 . S
C581 C579 1.433 . S
C581 N584 1.384 . S
C582 H573 0.929 1_556 S
C582 C574 1.378 . S
C582 C577 1.350 . S
C583 H570 0.929 . S
C583 C575 1.433 . S
C583 N585 1.384 . S
N584 C580 1.427 . S
N584 C581 1.384 . S
N585 C577 1.427 . S
N585 C583 1.384 . S
H586 C592 0.930 . S
H587 C596 0.930 . S
H588 C601 0.929 . S
H589 C599 0.929 . S
H590 C594 0.929 . S
H591 C600 0.929 . S
C592 H586 0.930 . S
C592 C593 1.367 . S
C592 C600 1.378 . S
C593 C592 1.367 . S
C593 C601 1.433 . S
C594 H590 0.929 . S
C594 C596 1.378 . S
C594 C598 1.350 . S
C595 C598 1.463 . S
C595 C600 1.350 . S
C595 N603 1.427 . S
C596 H587 0.930 . S
C596 C594 1.378 . S
C596 C597 1.367 . S
C597 C596 1.367 . S
C597 C599 1.433 . S
C598 C594 1.350 . S
C598 C595 1.463 . S
C598 N602 1.427 . S
C599 H589 0.929 . S
C599 C597 1.433 . S
C599 N602 1.384 . S
C600 H591 0.929 . S
C600 C592 1.378 . S
C600 C595 1.350 . S
C601 H588 0.929 . S
C601 C593 1.433 . S
C601 N603 1.384 . S
N602 C598 1.427 . S
N602 C599 1.384 . S
N603 C595 1.427 . S
N603 C601 1.384 . S
H604 C610 0.930 . S
H605 C614 0.930 . S
H606 C619 0.929 . S
H607 C617 0.929 . S
H608 C612 0.929 . S
H609 C618 0.929 . S
C610 H604 0.930 . S
C610 C611 1.367 . S
C610 C618 1.378 . S
C611 C610 1.367 . S
C611 C619 1.433 . S
C612 H608 0.929 . S
C612 C614 1.378 . S
C612 C616 1.350 . S
C613 C616 1.463 . S
C613 C618 1.350 . S
C613 N621 1.427 . S
C614 H605 0.930 . S
C614 C612 1.378 . S
C614 C615 1.367 . S
C615 C614 1.367 . S
C615 C617 1.433 . S
C616 C612 1.350 . S
C616 C613 1.463 . S
C616 N620 1.427 . S
C617 H607 0.929 . S
C617 C615 1.433 . S
C617 N620 1.384 . S
C618 H609 0.929 . S
C618 C610 1.378 . S
C618 C613 1.350 . S
C619 H606 0.929 . S
C619 C611 1.433 . S
C619 N621 1.384 . S
N620 C616 1.427 . S
N620 C617 1.384 . S
N621 C613 1.427 . S
N621 C619 1.384 . S
H622 C628 0.930 . S
H623 C632 0.930 . S
H624 C637 0.929 . S
H625 C635 0.929 . S
H626 C630 0.929 . S
H627 C636 0.929 . S
C628 H622 0.930 . S
C628 C629 1.367 . S
C628 C636 1.378 . S
C629 C628 1.367 . S
C629 C637 1.433 . S
C630 H626 0.929 . S
C630 C632 1.378 . S
C630 C634 1.350 . S
C631 C634 1.463 . S
C631 C636 1.350 . S
C631 N639 1.427 . S
C632 H623 0.930 . S
C632 C630 1.378 . S
C632 C633 1.367 . S
C633 C632 1.367 . S
C633 C635 1.433 . S
C634 C630 1.350 . S
C634 C631 1.463 . S
C634 N638 1.427 . S
C635 H625 0.929 . S
C635 C633 1.433 . S
C635 N638 1.384 . S
C636 H627 0.929 . S
C636 C628 1.378 . S
C636 C631 1.350 . S
C637 H624 0.929 . S
C637 C629 1.433 . S
C637 N639 1.384 . S
N638 C634 1.427 . S
N638 C635 1.384 . S
N639 C631 1.427 . S
N639 C637 1.384 . S
H640 C646 0.930 . S
H641 C650 0.930 . S
H642 C655 0.929 . S
H643 C653 0.929 . S
H644 C648 0.929 . S
H645 C654 0.929 . S
C646 H640 0.930 . S
C646 C647 1.367 . S
C646 C654 1.378 . S
C647 C646 1.367 . S
C647 C655 1.433 . S
C648 H644 0.929 . S
C648 C650 1.378 . S
C648 C652 1.350 . S
C649 C652 1.463 1_545 S
C649 C654 1.350 . S
C649 N657 1.427 . S
C650 H641 0.930 . S
C650 C648 1.378 . S
C650 C651 1.367 . S
C651 C650 1.367 . S
C651 C653 1.433 . S
C652 C648 1.350 . S
C652 C649 1.463 1_565 S
C652 N656 1.427 . S
C653 H643 0.929 . S
C653 C651 1.433 . S
C653 N656 1.384 . S
C654 H645 0.929 . S
C654 C646 1.378 . S
C654 C649 1.350 . S
C655 H642 0.929 . S
C655 C647 1.433 . S
C655 N657 1.384 . S
N656 C652 1.427 . S
N656 C653 1.384 . S
N657 C649 1.427 . S
N657 C655 1.384 . S
H658 C664 0.930 . S
H659 C668 0.930 . S
H660 C673 0.929 . S
H661 C671 0.929 . S
H662 C666 0.929 . S
H663 C672 0.929 . S
C664 H658 0.930 . S
C664 C665 1.367 . S
C664 C672 1.378 . S
C665 C664 1.367 . S
C665 C673 1.433 . S
C666 H662 0.929 . S
C666 C668 1.378 . S
C666 C670 1.350 . S
C667 C670 1.463 . S
C667 C672 1.350 . S
C667 N675 1.427 . S
C668 H659 0.930 . S
C668 C666 1.378 . S
C668 C669 1.367 . S
C669 C668 1.367 . S
C669 C671 1.433 . S
C670 C666 1.350 . S
C670 C667 1.463 . S
C670 N674 1.427 . S
C671 H661 0.929 . S
C671 C669 1.433 . S
C671 N674 1.384 . S
C672 H663 0.929 . S
C672 C664 1.378 . S
C672 C667 1.350 . S
C673 H660 0.929 . S
C673 C665 1.433 . S
C673 N675 1.384 . S
N674 C670 1.427 . S
N674 C671 1.384 . S
N675 C667 1.427 . S
N675 C673 1.384 . S
H676 C682 0.930 . S
H677 C686 0.930 . S
H678 C691 0.929 . S
H679 C689 0.929 . S
H680 C684 0.928 1_556 S
H681 C690 0.937 . S
C682 H676 0.930 . S
C682 C683 1.367 . S
C682 C690 1.372 1_556 S
C683 C682 1.367 . S
C683 C691 1.433 . S
C684 H680 0.928 1_554 S
C684 C686 1.378 . S
C684 C688 1.350 . S
C685 C688 1.463 1_546 S
C685 C690 1.347 1_556 S
C685 N693 1.427 . S
C686 H677 0.930 . S
C686 C684 1.378 . S
C686 C687 1.367 . S
C687 C686 1.367 . S
C687 C689 1.433 . S
C688 C684 1.350 . S
C688 C685 1.463 1_564 S
C688 N692 1.427 . S
C689 H679 0.929 . S
C689 C687 1.433 . S
C689 N692 1.384 . S
C690 H681 0.937 . S
C690 C682 1.372 1_554 S
C690 C685 1.347 1_554 S
C691 H678 0.929 . S
C691 C683 1.433 . S
C691 N693 1.384 . S
N692 C688 1.427 . S
N692 C689 1.384 . S
N693 C685 1.427 . S
N693 C691 1.384 . S
H694 C700 0.930 . S
H695 C704 0.930 . S
H696 C709 0.929 . S
H697 C707 0.929 . S
H698 C702 0.929 . S
H699 C708 0.929 . S
C700 H694 0.930 . S
C700 C701 1.367 . S
C700 C708 1.378 . S
C701 C700 1.367 . S
C701 C709 1.433 . S
C702 H698 0.929 . S
C702 C704 1.378 . S
C702 C706 1.350 . S
C703 C706 1.463 . S
C703 C708 1.350 . S
C703 N711 1.427 . S
C704 H695 0.930 . S
C704 C702 1.378 . S
C704 C705 1.367 . S
C705 C704 1.367 . S
C705 C707 1.433 . S
C706 C702 1.350 . S
C706 C703 1.463 . S
C706 N710 1.427 . S
C707 H697 0.929 . S
C707 C705 1.433 . S
C707 N710 1.384 . S
C708 H699 0.929 . S
C708 C700 1.378 . S
C708 C703 1.350 . S
C709 H696 0.929 . S
C709 C701 1.433 . S
C709 N711 1.384 . S
N710 C706 1.427 . S
N710 C707 1.384 . S
N711 C703 1.427 . S
N711 C709 1.384 . S
H712 C718 0.930 . S
H713 C722 0.930 . S
H714 C727 0.929 . S
H715 C725 0.929 . S
H716 C720 0.929 1_545 S
H717 C726 0.929 1_565 S
C718 H712 0.930 . S
C718 C719 1.367 . S
C718 C726 1.378 . S
C719 C718 1.367 . S
C719 C727 1.433 . S
C720 H716 0.929 1_565 S
C720 C722 1.378 . S
C720 C724 1.350 . S
C721 C724 1.463 1_545 S
C721 C726 1.350 . S
C721 N729 1.427 . S
C722 H713 0.930 . S
C722 C720 1.378 . S
C722 C723 1.367 . S
C723 C722 1.367 . S
C723 C725 1.433 . S
C724 C720 1.350 . S
C724 C721 1.463 1_565 S
C724 N728 1.427 . S
C725 H715 0.929 . S
C725 C723 1.433 . S
C725 N728 1.384 . S
C726 H717 0.929 1_545 S
C726 C718 1.378 . S
C726 C721 1.350 . S
C727 H714 0.929 . S
C727 C719 1.433 . S
C727 N729 1.384 . S
N728 C724 1.427 . S
N728 C725 1.384 . S
N729 C721 1.427 . S
N729 C727 1.384 . S
H730 C736 0.930 . S
H731 C740 0.930 . S
H732 C745 0.929 . S
H733 C743 0.929 . S
H734 C738 0.929 . S
H735 C744 0.929 . S
C736 H730 0.930 . S
C736 C737 1.367 . S
C736 C744 1.378 . S
C737 C736 1.367 . S
C737 C745 1.433 . S
C738 H734 0.929 . S
C738 C740 1.378 . S
C738 C742 1.350 . S
C739 C742 1.463 . S
C739 C744 1.350 . S
C739 N747 1.427 . S
C740 H731 0.930 . S
C740 C738 1.378 . S
C740 C741 1.367 . S
C741 C740 1.367 . S
C741 C743 1.433 . S
C742 C738 1.350 . S
C742 C739 1.463 . S
C742 N746 1.427 . S
C743 H733 0.929 . S
C743 C741 1.433 . S
C743 N746 1.384 . S
C744 H735 0.929 . S
C744 C736 1.378 . S
C744 C739 1.350 . S
C745 H732 0.929 . S
C745 C737 1.433 . S
C745 N747 1.384 . S
N746 C742 1.427 . S
N746 C743 1.384 . S
N747 C739 1.427 . S
N747 C745 1.384 . S
H748 C754 0.930 . S
H749 C758 0.930 . S
H750 C763 0.929 . S
H751 C761 0.929 . S
H752 C756 0.929 . S
H753 C762 0.929 . S
C754 H748 0.930 . S
C754 C755 1.367 . S
C754 C762 1.378 . S
C755 C754 1.367 . S
C755 C763 1.433 . S
C756 H752 0.929 . S
C756 C758 1.378 . S
C756 C760 1.350 . S
C757 C760 1.463 1_564 S
C757 C762 1.350 . S
C757 N765 1.427 . S
C758 H749 0.930 . S
C758 C756 1.378 . S
C758 C759 1.367 . S
C759 C758 1.367 . S
C759 C761 1.433 . S
C760 C756 1.350 . S
C760 C757 1.463 1_546 S
C760 N764 1.427 . S
C761 H751 0.929 . S
C761 C759 1.433 . S
C761 N764 1.384 . S
C762 H753 0.929 . S
C762 C754 1.378 . S
C762 C757 1.350 . S
C763 H750 0.929 . S
C763 C755 1.433 . S
C763 N765 1.384 . S
N764 C760 1.427 . S
N764 C761 1.384 . S
N765 C757 1.427 . S
N765 C763 1.384 . S
H766 C772 0.930 . S
H767 C776 0.930 . S
H768 C781 0.929 . S
H769 C779 0.929 . S
H770 C774 0.929 . S
H771 C780 0.929 . S
C772 H766 0.930 . S
C772 C773 1.367 . S
C772 C780 1.378 . S
C773 C772 1.367 . S
C773 C781 1.433 . S
C774 H770 0.929 . S
C774 C776 1.378 . S
C774 C778 1.350 . S
C775 C778 1.463 . S
C775 C780 1.350 . S
C775 N783 1.427 . S
C776 H767 0.930 . S
C776 C774 1.378 . S
C776 C777 1.367 . S
C777 C776 1.367 . S
C777 C779 1.433 . S
C778 C774 1.350 . S
C778 C775 1.463 . S
C778 N782 1.427 . S
C779 H769 0.929 . S
C779 C777 1.433 . S
C779 N782 1.384 . S
C780 H771 0.929 . S
C780 C772 1.378 . S
C780 C775 1.350 . S
C781 H768 0.929 . S
C781 C773 1.433 . S
C781 N783 1.384 . S
N782 C778 1.427 . S
N782 C779 1.384 . S
N783 C775 1.427 . S
N783 C781 1.384 . S
C215 C148 1.473 . S
C219 C4 1.472 . S
C233 C199 1.480 . S
C237 C18 1.474 . S
C251 C29 1.471 . S
C255 C127 1.474 . S
C269 C179 1.469 . S
C273 C49 1.468 . S
C287 C62 1.474 . S
C291 C174 1.472 . S
C305 C70 1.479 . S
C309 C153 1.477 . S
C323 C81 1.481 . S
C327 C198 1.482 . S
C341 C101 1.477 . S
C345 C122 1.478 . S
C359 C44 1.477 . S
C363 C107 1.476 . S
C377 C135 1.475 . S
C381 C23 1.480 . S
C395 C160 1.466 . S
C399 C75 1.470 . S
C413 C187 1.474 . S
C417 C96 1.479 . S
C431 C57 1.469 . S
C435 C108 1.475 . S
C449 C140 1.474 . S
C453 C82 1.472 . S
C467 C192 1.475 . S
C471 C30 1.471 . S
C485 C3 1.484 . S
C489 C159 1.479 . S
C503 C5 1.401 . S
C507 C55 1.401 . S
C521 C17 1.385 . S
C525 C69 1.381 . S
C539 C36 1.390 . S
C543 C88 1.388 . S
C557 C94 1.397 . S
C561 C42 1.395 . S
C575 C114 1.389 . S
C579 C161 1.388 . S
C593 C172 1.388 . S
C597 C121 1.389 . S
C611 C134 1.392 . S
C615 C186 1.391 . S
C629 C200 1.403 . S
C633 C146 1.400 . S
C647 C95 1.391 . S
C651 C16 1.394 . S
C665 C31 1.393 . S
C669 C56 1.391 . S
C683 C43 1.399 . S
C687 C68 1.399 . S
C701 C10 1.385 . S
C705 C83 1.389 . S
C719 C120 1.395 . S
C723 C205 1.396 . S
C737 C166 1.397 . S
C741 C133 1.399 . S
C755 C147 1.382 . S
C759 C173 1.386 . S
C773 C185 1.395 . S
C777 C109 1.392 . S
