# Generated by pormake.
# Topology vbm, (6)-cn, num edge types: 1
# Building blocks:
#     Node 0, Type 0, BuildingBlock: MIDCAF_clean_sbu_0, # of connection points: 6
#     Node 1, Type 0, BuildingBlock: MIDCAF_clean_sbu_0, # of connection points: 6
#     Node 2, Type 0, BuildingBlock: MIDCAF_clean_sbu_0, # of connection points: 6
#     Node 3, Type 0, BuildingBlock: MIDCAF_clean_sbu_0, # of connection points: 6
#     Node 4, Type 0, BuildingBlock: MIDCAF_clean_sbu_0, # of connection points: 6
#     Node 5, Type 0, BuildingBlock: MIDCAF_clean_sbu_0, # of connection points: 6
#     Node 6, Type 0, BuildingBlock: MIDCAF_clean_sbu_0, # of connection points: 6
#     Node 7, Type 0, BuildingBlock: MIDCAF_clean_sbu_0, # of connection points: 6
#     Node 8, Type 0, BuildingBlock: MIDCAF_clean_sbu_0, # of connection points: 6
#     Node 9, Type 0, BuildingBlock: MIDCAF_clean_sbu_0, # of connection points: 6
#     Node 10, Type 0, BuildingBlock: MIDCAF_clean_sbu_0, # of connection points: 6
#     Node 11, Type 0, BuildingBlock: MIDCAF_clean_sbu_0, # of connection points: 6
#     Node 12, Type 0, BuildingBlock: MIDCAF_clean_sbu_0, # of connection points: 6
#     Node 13, Type 0, BuildingBlock: MIDCAF_clean_sbu_0, # of connection points: 6
#     Node 14, Type 0, BuildingBlock: MIDCAF_clean_sbu_0, # of connection points: 6
#     Node 15, Type 0, BuildingBlock: MIDCAF_clean_sbu_0, # of connection points: 6
#     Edge 16, Type (0, 0), BuildingBlock: AJUNOK_clean_linker_0, # of connection points: 2
#     Edge 17, Type (0, 0), BuildingBlock: AJUNOK_clean_linker_0, # of connection points: 2
#     Edge 18, Type (0, 0), BuildingBlock: AJUNOK_clean_linker_0, # of connection points: 2
#     Edge 19, Type (0, 0), BuildingBlock: AJUNOK_clean_linker_0, # of connection points: 2
#     Edge 20, Type (0, 0), BuildingBlock: AJUNOK_clean_linker_0, # of connection points: 2
#     Edge 21, Type (0, 0), BuildingBlock: AJUNOK_clean_linker_0, # of connection points: 2
#     Edge 22, Type (0, 0), BuildingBlock: AJUNOK_clean_linker_0, # of connection points: 2
#     Edge 23, Type (0, 0), BuildingBlock: AJUNOK_clean_linker_0, # of connection points: 2
#     Edge 24, Type (0, 0), BuildingBlock: AJUNOK_clean_linker_0, # of connection points: 2
#     Edge 25, Type (0, 0), BuildingBlock: AJUNOK_clean_linker_0, # of connection points: 2
#     Edge 26, Type (0, 0), BuildingBlock: AJUNOK_clean_linker_0, # of connection points: 2
#     Edge 27, Type (0, 0), BuildingBlock: AJUNOK_clean_linker_0, # of connection points: 2
#     Edge 28, Type (0, 0), BuildingBlock: AJUNOK_clean_linker_0, # of connection points: 2
#     Edge 29, Type (0, 0), BuildingBlock: AJUNOK_clean_linker_0, # of connection points: 2
#     Edge 30, Type (0, 0), BuildingBlock: AJUNOK_clean_linker_0, # of connection points: 2
#     Edge 31, Type (0, 0), BuildingBlock: AJUNOK_clean_linker_0, # of connection points: 2
#     Edge 32, Type (0, 0), BuildingBlock: AJUNOK_clean_linker_0, # of connection points: 2
#     Edge 33, Type (0, 0), BuildingBlock: AJUNOK_clean_linker_0, # of connection points: 2
#     Edge 34, Type (0, 0), BuildingBlock: AJUNOK_clean_linker_0, # of connection points: 2
#     Edge 35, Type (0, 0), BuildingBlock: AJUNOK_clean_linker_0, # of connection points: 2
#     Edge 36, Type (0, 0), BuildingBlock: AJUNOK_clean_linker_0, # of connection points: 2
#     Edge 37, Type (0, 0), BuildingBlock: AJUNOK_clean_linker_0, # of connection points: 2
#     Edge 38, Type (0, 0), BuildingBlock: AJUNOK_clean_linker_0, # of connection points: 2
#     Edge 39, Type (0, 0), BuildingBlock: AJUNOK_clean_linker_0, # of connection points: 2
#     Edge 40, Type (0, 0), BuildingBlock: AJUNOK_clean_linker_0, # of connection points: 2
#     Edge 41, Type (0, 0), BuildingBlock: AJUNOK_clean_linker_0, # of connection points: 2
#     Edge 42, Type (0, 0), BuildingBlock: AJUNOK_clean_linker_0, # of connection points: 2
#     Edge 43, Type (0, 0), BuildingBlock: AJUNOK_clean_linker_0, # of connection points: 2
#     Edge 44, Type (0, 0), BuildingBlock: AJUNOK_clean_linker_0, # of connection points: 2
#     Edge 45, Type (0, 0), BuildingBlock: AJUNOK_clean_linker_0, # of connection points: 2
#     Edge 46, Type (0, 0), BuildingBlock: AJUNOK_clean_linker_0, # of connection points: 2
#     Edge 47, Type (0, 0), BuildingBlock: AJUNOK_clean_linker_0, # of connection points: 2
#     Edge 48, Type (0, 0), BuildingBlock: AJUNOK_clean_linker_0, # of connection points: 2
#     Edge 49, Type (0, 0), BuildingBlock: AJUNOK_clean_linker_0, # of connection points: 2
#     Edge 50, Type (0, 0), BuildingBlock: AJUNOK_clean_linker_0, # of connection points: 2
#     Edge 51, Type (0, 0), BuildingBlock: AJUNOK_clean_linker_0, # of connection points: 2
#     Edge 52, Type (0, 0), BuildingBlock: AJUNOK_clean_linker_0, # of connection points: 2
#     Edge 53, Type (0, 0), BuildingBlock: AJUNOK_clean_linker_0, # of connection points: 2
#     Edge 54, Type (0, 0), BuildingBlock: AJUNOK_clean_linker_0, # of connection points: 2
#     Edge 55, Type (0, 0), BuildingBlock: AJUNOK_clean_linker_0, # of connection points: 2
#     Edge 56, Type (0, 0), BuildingBlock: AJUNOK_clean_linker_0, # of connection points: 2
#     Edge 57, Type (0, 0), BuildingBlock: AJUNOK_clean_linker_0, # of connection points: 2
#     Edge 58, Type (0, 0), BuildingBlock: AJUNOK_clean_linker_0, # of connection points: 2
#     Edge 59, Type (0, 0), BuildingBlock: AJUNOK_clean_linker_0, # of connection points: 2
#     Edge 60, Type (0, 0), BuildingBlock: AJUNOK_clean_linker_0, # of connection points: 2
#     Edge 61, Type (0, 0), BuildingBlock: AJUNOK_clean_linker_0, # of connection points: 2
#     Edge 62, Type (0, 0), BuildingBlock: AJUNOK_clean_linker_0, # of connection points: 2
#     Edge 63, Type (0, 0), BuildingBlock: AJUNOK_clean_linker_0, # of connection points: 2
# Relax obj value: 0.153
# Max RMSD: 0.187
# Mean RMSD: 0.187
data_MOF--net-vbm--node1-MIDCAF_clean_sbu_0--edge1-AJUNOK_clean_linker_0
_symmetry_space_group_name_H-M    P1
_symmetry_Int_Tables_number       1
_symmetry_cell_setting            triclinic
loop_
_symmetry_equiv_pos_as_xyz
'x, y, z'
_cell_length_a     43.749894
_cell_length_b     11.485255
_cell_length_c     45.251609
_cell_angle_alpha  89.871668
_cell_angle_beta   90.171323
_cell_angle_gamma 89.969251
loop_
_atom_site_label
_atom_site_type_symbol
_atom_site_fract_x
_atom_site_fract_y
_atom_site_fract_z
_atom_type_partial_charge
Zn0 Zn 0.18125 0.87062 0.12094 0.0
Zn1 Zn 0.09719 0.04493 0.18046 0.0
Zn2 Zn 0.14023 0.97311 0.15062 0.0
C3 C 0.06745 0.9756 0.13221 0.0
C4 C 0.12715 0.89581 0.21738 0.0
O5 O 0.1777 0.09875 0.14589 0.0
O6 O 0.21425 0.97595 0.13272 0.0
C7 C 0.1335 0.92011 0.08189 0.0
O8 O 0.09571 0.9581 0.12529 0.0
O9 O 0.06072 0.01324 0.15746 0.0
O10 O 0.10422 0.962 0.2174 0.0
O11 O 0.14243 0.87927 0.19347 0.0
O12 O 0.16124 0.88976 0.08177 0.0
O13 O 0.1203 0.94693 0.10633 0.0
O14 O 0.15286 0.80252 0.17099 0.0
O15 O 0.18205 0.71583 0.13786 0.0
C16 C 0.16735 0.71168 0.16171 0.0
O17 O 0.15276 0.15527 0.16249 0.0
O18 O 0.10933 0.20663 0.18317 0.0
C19 C 0.20606 0.07595 0.14088 0.0
C20 C 0.1359 0.23302 0.17499 0.0
Zn21 Zn 0.91589 0.79263 0.17497 0.0
Zn22 Zn 0.85853 0.02152 0.10516 0.0
Zn23 Zn 0.87916 0.90712 0.14543 0.0
C24 C 0.85278 0.17304 0.15059 0.0
C25 C 0.90635 0.96307 0.07739 0.0
O26 O 0.85552 0.73612 0.15601 0.0
O27 O 0.89117 0.65971 0.18459 0.0
C28 C 0.89942 0.98431 0.20863 0.0
O29 O 0.86603 0.0872 0.16428 0.0
O30 O 0.84697 0.16329 0.12352 0.0
O31 O 0.88622 0.03822 0.07185 0.0
O32 O 0.90642 0.91105 0.10279 0.0
O33 O 0.9185 0.90236 0.20734 0.0
O34 O 0.88175 0.00698 0.18653 0.0
O35 O 0.92691 0.88286 0.12623 0.0
O36 O 0.95363 0.75996 0.15346 0.0
C37 C 0.95195 0.82573 0.13124 0.0
O38 O 0.83616 0.81363 0.13713 0.0
O39 O 0.8231 0.92301 0.09901 0.0
C40 C 0.86515 0.6524 0.17286 0.0
C41 C 0.81699 0.84142 0.11665 0.0
Zn42 Zn 0.1566 0.95448 0.44179 0.0
Zn43 Zn 0.08018 0.82632 0.37752 0.0
Zn44 Zn 0.11912 0.8959 0.40745 0.0
C45 C 0.04943 0.96419 0.41591 0.0
C46 C 0.12086 0.89205 0.33831 0.0
O47 O 0.16249 0.92758 0.38239 0.0
O48 O 0.19431 0.91704 0.42026 0.0
C49 C 0.12875 0.78602 0.47202 0.0
O50 O 0.0769 0.00556 0.4173 0.0
O51 O 0.04477 0.87571 0.40022 0.0
O52 O 0.09213 0.89944 0.34011 0.0
O53 O 0.13702 0.88234 0.36199 0.0
O54 O 0.14434 0.87471 0.47834 0.0
O55 O 0.12031 0.76823 0.44509 0.0
O56 O 0.10378 0.07021 0.41806 0.0
O57 O 0.14797 0.11999 0.43759 0.0
C58 C 0.12282 0.14929 0.42627 0.0
O59 O 0.11096 0.71554 0.41941 0.0
O60 O 0.08721 0.6587 0.37874 0.0
C61 C 0.19 0.92871 0.39277 0.0
C62 C 0.10049 0.63428 0.40265 0.0
Zn63 Zn 0.83207 0.06987 0.42308 0.0
Zn64 Zn 0.90942 0.29273 0.37336 0.0
Zn65 Zn 0.8667 0.17336 0.39197 0.0
C66 C 0.93946 0.20766 0.41665 0.0
C67 C 0.8922 0.12244 0.3304 0.0
O68 O 0.82518 0.28469 0.39587 0.0
O69 O 0.80231 0.1883 0.4318 0.0
C70 C 0.88005 0.06452 0.45801 0.0
O71 O 0.912 0.16527 0.41717 0.0
O72 O 0.94588 0.2862 0.39827 0.0
O73 O 0.91056 0.2037 0.33642 0.0
O74 O 0.87286 0.08717 0.34979 0.0
O75 O 0.85504 0.01083 0.45703 0.0
O76 O 0.88771 0.13234 0.43645 0.0
O77 O 0.85503 0.00258 0.36919 0.0
O78 O 0.8166 0.94885 0.39727 0.0
C79 C 0.83403 0.92759 0.3759 0.0
O80 O 0.84852 0.35547 0.3802 0.0
O81 O 0.8914 0.4424 0.36712 0.0
C82 C 0.80253 0.27171 0.41376 0.0
C83 C 0.86286 0.44606 0.37013 0.0
Zn84 Zn 0.85955 0.86309 0.93495 0.0
Zn85 Zn 0.92794 0.70343 0.87014 0.0
Zn86 Zn 0.88949 0.80844 0.89649 0.0
C87 C 0.96244 0.80624 0.91035 0.0
C88 C 0.89858 0.86054 0.83148 0.0
O89 O 0.84586 0.70737 0.89398 0.0
O90 O 0.81943 0.83072 0.92077 0.0
C91 C 0.90349 0.80362 0.96686 0.0
O92 O 0.93471 0.82447 0.91879 0.0
O93 O 0.96745 0.75387 0.88642 0.0
O94 O 0.9135 0.76671 0.83229 0.0
O95 O 0.89023 0.91016 0.85558 0.0
O96 O 0.87557 0.78086 0.97031 0.0
O97 O 0.91316 0.83062 0.94079 0.0
O98 O 0.87492 0.97618 0.88073 0.0
O99 O 0.86856 0.02984 0.92708 0.0
C100 C 0.86942 0.05589 0.89989 0.0
O101 O 0.87123 0.63081 0.8892 0.0
O102 O 0.91475 0.54576 0.87695 0.0
C103 C 0.81995 0.75236 0.90149 0.0
C104 C 0.88665 0.53866 0.88268 0.0
Zn105 Zn 0.17998 0.96764 0.92733 0.0
Zn106 Zn 0.10219 0.12769 0.86143 0.0
Zn107 Zn 0.14119 0.02516 0.89321 0.0
C108 C 0.07057 0.03985 0.90954 0.0
C109 C 0.12734 0.94698 0.82843 0.0
O110 O 0.18112 0.14118 0.88886 0.0
O111 O 0.21669 0.03626 0.91088 0.0
C112 C 0.13466 0.01173 0.96372 0.0
O113 O 0.09803 0.01669 0.91793 0.0
O114 O 0.06579 0.08492 0.88449 0.0
O115 O 0.11257 0.04049 0.82538 0.0
O116 O 0.1378 0.91598 0.85385 0.0
O117 O 0.16323 0.02482 0.96509 0.0
O118 O 0.12164 -0.00285 0.9384 0.0
O119 O 0.15589 0.85704 0.87615 0.0
O120 O 0.17642 0.80102 0.91834 0.0
C121 C 0.16807 0.77712 0.89235 0.0
O122 O 0.15524 0.20821 0.88366 0.0
O123 O 0.11484 0.28884 0.86243 0.0
C124 C 0.20955 0.11951 0.89413 0.0
C125 C 0.14136 0.29841 0.87299 0.0
Zn126 Zn 0.86178 0.93684 0.62052 0.0
Zn127 Zn 0.94318 0.10193 0.66498 0.0
Zn128 Zn 0.90005 0.0174 0.64418 0.0
C129 C 0.96996 0.96647 0.62468 0.0
C130 C 0.91121 -0.01434 0.71008 0.0
O131 O 0.85967 0.13639 0.63869 0.0
O132 O 0.83143 -0.01274 0.65048 0.0
C133 C 0.89841 0.01884 0.57782 0.0
O134 O 0.94143 0.96605 0.61702 0.0
O135 O 0.97802 0.01998 0.6477 0.0
O136 O 0.93042 0.06576 0.70586 0.0
O137 O 0.89942 0.93341 0.68763 0.0
O138 O 0.87003 0.02338 0.58276 0.0
O139 O 0.91665 -0.00934 0.599 0.0
O140 O 0.88838 0.85234 0.66625 0.0
O141 O 0.87318 0.77565 0.624 0.0
C142 C 0.88062 0.76289 0.65076 0.0
O143 O 0.8886 0.19925 0.6533 0.0
O144 O 0.93593 0.26437 0.65541 0.0
C145 C 0.83328 0.09478 0.64575 0.0
C146 C 0.90757 0.28376 0.65638 0.0
Zn147 Zn 0.16944 0.70789 0.62428 0.0
Zn148 Zn 0.09281 0.54515 0.67737 0.0
Zn149 Zn 0.13639 0.63594 0.65408 0.0
C150 C 0.06533 0.65396 0.63155 0.0
C151 C 0.11819 0.70458 0.71761 0.0
O152 O 0.18086 0.53095 0.65606 0.0
O153 O 0.20523 0.69496 0.64963 0.0
C154 C 0.13523 0.61455 0.58577 0.0
O155 O 0.09422 0.66392 0.62594 0.0
O156 O 0.05698 0.60035 0.6545 0.0
O157 O 0.10081 0.61737 0.71591 0.0
O158 O 0.13251 0.73942 0.69444 0.0
O159 O 0.16364 0.60288 0.5896 0.0
O160 O 0.11895 0.64797 0.60788 0.0
O161 O 0.14802 0.80765 0.6711 0.0
O162 O 0.15203 0.86451 0.62478 0.0
C163 C 0.15105 0.88981 0.65191 0.0
O164 O 0.15307 0.46199 0.66335 0.0
O165 O 0.10785 0.38628 0.67388 0.0
C166 C 0.20591 0.59063 0.65795 0.0
C167 C 0.13619 0.37399 0.66979 0.0
Zn168 Zn 0.65773 0.5016 0.09368 0.0
Zn169 Zn 0.58398 0.71802 0.14642 0.0
Zn170 Zn 0.62581 0.61797 0.12594 0.0
C171 C 0.55415 0.63626 0.10244 0.0
C172 C 0.60826 0.58417 0.19175 0.0
O173 O 0.66792 0.72252 0.12412 0.0
O174 O 0.69195 0.60651 0.09295 0.0
C175 C 0.61501 0.53937 0.05505 0.0
O176 O 0.58276 0.61503 0.09783 0.0
O177 O 0.54592 0.67836 0.12681 0.0
O178 O 0.59124 0.67084 0.18729 0.0
O179 O 0.62047 0.5311 0.16962 0.0
O180 O 0.63802 0.47376 0.05566 0.0
O181 O 0.60729 0.59615 0.07865 0.0
O182 O 0.63496 0.44838 0.14967 0.0
O183 O 0.66602 0.36695 0.11743 0.0
C184 C 0.65223 0.36245 0.14173 0.0
O185 O 0.64289 0.79679 0.13875 0.0
O186 O 0.59713 0.87603 0.14103 0.0
C187 C 0.69186 0.69518 0.1092 0.0
C188 C 0.62569 0.88674 0.14308 0.0
Zn189 Zn 0.41858 0.35947 0.14132 0.0
Zn190 Zn 0.33775 0.5251 0.08356 0.0
Zn191 Zn 0.37608 0.45719 0.11351 0.0
C192 C 0.35279 0.71027 0.11575 0.0
C193 C 0.37717 0.46034 0.04357 0.0
O194 O 0.36126 0.27756 0.1243 0.0
O195 O 0.40265 0.20292 0.1451 0.0
C196 C 0.39792 0.54389 0.17613 0.0
O197 O 0.36325 0.62658 0.13184 0.0
O198 O 0.34533 0.69051 0.0893 0.0
O199 O 0.3485 0.45396 0.04553 0.0
O200 O 0.39319 0.47842 0.06707 0.0
O201 O 0.41618 0.45891 0.17649 0.0
O202 O 0.38127 0.56469 0.15324 0.0
O203 O 0.41854 0.46611 0.08596 0.0
O204 O 0.45306 0.38174 0.11452 0.0
C205 C 0.44645 0.43499 0.09097 0.0
O206 O 0.3348 0.34433 0.11828 0.0
O207 O 0.30093 0.47312 0.10317 0.0
C208 C 0.3757 0.19037 0.13579 0.0
C209 C 0.30673 0.37854 0.11602 0.0
Zn210 Zn 0.63346 0.59551 0.42205 0.0
Zn211 Zn 0.57516 0.37134 0.36276 0.0
Zn212 Zn 0.61382 0.47975 0.38308 0.0
C213 C 0.54011 0.50542 0.39351 0.0
C214 C 0.60513 0.48764 0.31676 0.0
O215 O 0.65665 0.38605 0.39144 0.0
O216 O 0.67374 0.52307 0.42118 0.0
C217 C 0.59198 0.49559 0.45394 0.0
O218 O 0.56775 0.51763 0.40308 0.0
O219 O 0.53514 0.43894 0.37194 0.0
O220 O 0.59084 0.39477 0.32225 0.0
O221 O 0.61246 0.55527 0.33835 0.0
O222 O 0.61165 0.57274 0.45938 0.0
O223 O 0.58793 0.46208 0.42685 0.0
O224 O 0.62545 0.64571 0.36083 0.0
O225 O 0.63362 0.74331 0.40221 0.0
C226 C 0.63255 0.74055 0.37438 0.0
O227 O 0.63178 0.30388 0.37327 0.0
O228 O 0.58674 0.22206 0.37951 0.0
C229 C 0.67829 0.43058 0.40696 0.0
C230 C 0.61492 0.2121 0.37417 0.0
Zn231 Zn 0.4197 0.91651 0.33313 0.0
Zn232 Zn 0.33553 0.74751 0.37464 0.0
Zn233 Zn 0.374 0.82848 0.35359 0.0
C234 C 0.35542 0.57095 0.34754 0.0
C235 C 0.36501 0.8219 0.42125 0.0
O236 O 0.36061 0.00686 0.34245 0.0
O237 O 0.40618 0.07667 0.33149 0.0
C238 C 0.39809 0.76173 0.29062 0.0
O239 O 0.3638 0.65957 0.33196 0.0
O240 O 0.34756 0.58582 0.37406 0.0
O241 O 0.33751 0.83271 0.41307 0.0
O242 O 0.38525 0.79964 0.40133 0.0
O243 O 0.41797 0.83972 0.29443 0.0
O244 O 0.37995 0.73386 0.31187 0.0
O245 O 0.41307 0.79509 0.38481 0.0
O246 O 0.45221 0.86924 0.36046 0.0
C247 C 0.4422 0.81133 0.38204 0.0
O248 O 0.33205 0.94389 0.35321 0.0
O249 O 0.30644 0.78724 0.34246 0.0
C250 C 0.37778 0.09142 0.33408 0.0
C251 C 0.30683 0.8962 0.34455 0.0
Zn252 Zn 0.33083 0.58844 0.8834 0.0
Zn253 Zn 0.4137 0.4356 0.82141 0.0
Zn254 Zn 0.37199 0.52937 0.85526 0.0
C255 C 0.44263 0.51118 0.87355 0.0
C256 C 0.38261 0.61605 0.78998 0.0
O257 O 0.33402 0.40291 0.858 0.0
O258 O 0.29603 0.5282 0.85996 0.0
C259 C 0.37431 0.51431 0.92241 0.0
O260 O 0.41512 0.53896 0.88052 0.0
O261 O 0.44842 0.46865 0.84845 0.0
O262 O 0.40237 0.53645 0.78782 0.0
O263 O 0.36968 0.63768 0.81491 0.0
O264 O 0.34576 0.50295 0.91928 0.0
O265 O 0.39051 0.54781 0.9003 0.0
O266 O 0.35795 0.70245 0.83891 0.0
O267 O 0.33797 0.75385 0.8815 0.0
C268 C 0.34817 0.78217 0.85652 0.0
O269 O 0.36002 0.34942 0.84492 0.0
O270 O 0.39835 0.27499 0.81926 0.0
C271 C 0.30516 0.42513 0.85676 0.0
C272 C 0.37283 0.26313 0.83173 0.0
Zn273 Zn 0.65709 0.50428 0.8984 0.0
Zn274 Zn 0.59299 0.69335 0.83496 0.0
Zn275 Zn 0.62987 0.59533 0.86527 0.0
C276 C 0.55811 0.64307 0.88119 0.0
C277 C 0.61593 0.52434 0.79876 0.0
O278 O 0.67443 0.6873 0.86915 0.0
O279 O 0.69631 0.51941 0.87843 0.0
C280 C 0.62025 0.59251 0.93495 0.0
O281 O 0.58462 0.60302 0.88864 0.0
O282 O 0.55456 0.69158 0.85644 0.0
O283 O 0.59683 0.60631 0.79858 0.0
O284 O 0.62954 0.49641 0.82312 0.0
O285 O 0.64904 0.58892 0.93582 0.0
O286 O 0.60658 0.5787 0.90986 0.0
O287 O 0.64112 0.42059 0.84789 0.0
O288 O 0.63987 0.34919 0.89305 0.0
C289 C 0.64199 0.33235 0.86557 0.0
O290 O 0.65141 0.76667 0.8573 0.0
O291 O 0.61295 0.84184 0.83206 0.0
C292 C 0.69874 0.62345 0.87019 0.0
C293 C 0.63926 0.85224 0.84303 0.0
Zn294 Zn 0.35724 0.48752 0.57149 0.0
Zn295 Zn 0.43711 0.68342 0.63068 0.0
Zn296 Zn 0.39508 0.59054 0.60456 0.0
C297 C 0.46051 0.47156 0.62274 0.0
C298 C 0.38743 0.68907 0.6694 0.0
O299 O 0.35146 0.57023 0.63117 0.0
O300 O 0.32433 0.46349 0.60023 0.0
C301 C 0.37081 0.69007 0.54226 0.0
O302 O 0.43503 0.46611 0.60833 0.0
O303 O 0.46705 0.56173 0.63713 0.0
O304 O 0.41392 0.72949 0.66581 0.0
O305 O 0.37522 0.62667 0.64883 0.0
O306 O 0.35165 0.60835 0.54136 0.0
O307 O 0.38965 0.69857 0.56412 0.0
O308 O 0.41162 0.41135 0.59237 0.0
O309 O 0.37889 0.34556 0.5591 0.0
C310 C 0.40266 0.33057 0.57441 0.0
O311 O 0.40742 0.77007 0.58521 0.0
O312 O 0.45084 0.81487 0.60733 0.0
C313 C 0.3268 0.51278 0.62499 0.0
C314 C 0.42973 0.84239 0.58972 0.0
Zn315 Zn 0.62562 0.14939 0.66061 0.0
Zn316 Zn 0.66564 0.30015 0.5762 0.0
Zn317 Zn 0.64259 0.25216 0.6205 0.0
C318 C 0.66133 0.50078 0.61125 0.0
C319 C 0.61348 0.25219 0.55471 0.0
O320 O 0.66538 0.07716 0.6228 0.0
O321 O 0.63392 -0.01164 0.65355 0.0
C322 C 0.64975 0.32852 0.68652 0.0
O323 O 0.65767 0.42428 0.63162 0.0
O324 O 0.65988 0.46998 0.58444 0.0
O325 O 0.63977 0.22387 0.54587 0.0
O326 O 0.60958 0.27331 0.58248 0.0
O327 O 0.65141 0.22088 0.69141 0.0
O328 O 0.64358 0.3643 0.66017 0.0
O329 O 0.59334 0.23551 0.60984 0.0
O330 O 0.58232 0.19842 0.6562 0.0
C331 C 0.57332 0.22446 0.63045 0.0
O332 O 0.68828 0.16366 0.61669 0.0
O333 O 0.70884 0.26368 0.5804 0.0
C334 C 0.65607 0.98385 0.63597 0.0
C335 C 0.71226 0.19838 0.60249 0.0
C336 C 0.22679 0.25525 0.11902 0.0
C337 C 0.22937 0.16672 0.14013 0.0
C338 C 0.25194 0.32461 0.11203 0.0
C339 C 0.28054 0.30765 0.12592 0.0
H340 H 0.20575 0.26647 0.10661 0.0
H341 H 0.24917 0.38896 0.09469 0.0
S342 S 0.29714 0.09794 0.18621 0.0
N343 N 0.26133 0.07092 0.17678 0.0
N344 N 0.3084 0.20639 0.16481 0.0
C345 C 0.28268 0.22447 0.14858 0.0
C346 C 0.25713 0.15246 0.15535 0.0
C347 C 0.76887 0.77112 0.14082 0.0
C348 C 0.78566 0.79454 0.115 0.0
C349 C 0.73718 0.75015 0.13942 0.0
C350 C 0.72146 0.75358 0.11224 0.0
H351 H 0.78011 0.77125 0.16218 0.0
H352 H 0.72515 0.72677 0.15947 0.0
S353 S 0.75493 0.80796 0.03843 0.0
N354 N 0.78414 0.81658 0.06148 0.0
N355 N 0.72486 0.78037 0.05921 0.0
C356 C 0.73799 0.77772 0.0865 0.0
C357 C 0.77001 0.7969 0.08777 0.0
C358 C 0.27055 0.0178 0.37283 0.0
C359 C 0.27637 0.95112 0.34752 0.0
C360 C 0.24148 0.01731 0.3859 0.0
C361 C 0.21724 0.95061 0.37412 0.0
H362 H 0.28922 0.05843 0.38471 0.0
H363 H 0.23862 0.06247 0.40671 0.0
S364 S 0.21947 0.77991 0.3049 0.0
N365 N 0.2542 0.83483 0.30806 0.0
N366 N 0.20023 0.82849 0.3337 0.0
C367 C 0.22183 0.89533 0.34696 0.0
C368 C 0.25121 0.89807 0.33325 0.0
C369 C 0.75741 0.33179 0.38372 0.0
C370 C 0.77351 0.33513 0.41072 0.0
C371 C 0.72582 0.35565 0.38255 0.0
C372 C 0.70956 0.38312 0.40838 0.0
H373 H 0.76894 0.30488 0.36371 0.0
H374 H 0.7142 0.3543 0.36138 0.0
S375 S 0.74138 0.40349 0.48435 0.0
N376 N 0.77095 0.36903 0.46355 0.0
N377 N 0.71199 0.41321 0.46152 0.0
C378 C 0.72563 0.38804 0.43532 0.0
C379 C 0.7575 0.36472 0.43643 0.0
C380 C 0.73643 0.77788 0.88096 0.0
C381 C 0.73004 0.66955 0.86849 0.0
C382 C 0.76609 0.80473 0.89014 0.0
C383 C 0.79045 0.72437 0.88713 0.0
H384 H 0.71813 0.83789 0.88615 0.0
H385 H 0.76952 0.88764 0.90102 0.0
S386 S 0.78649 0.44008 0.8491 0.0
N387 N 0.75101 0.48948 0.84852 0.0
N388 N 0.80695 0.54127 0.86583 0.0
C389 C 0.78498 0.62156 0.87152 0.0
C390 C 0.75468 0.59395 0.86215 0.0
C391 C 0.28687 0.25896 0.88557 0.0
C392 C 0.28284 0.33279 0.86123 0.0
C393 C 0.26305 0.18932 0.89563 0.0
C394 C 0.23424 0.19141 0.88173 0.0
H395 H 0.30779 0.26152 0.89834 0.0
H396 H 0.26699 0.13695 0.91522 0.0
S397 S 0.21356 0.36073 0.81465 0.0
N398 N 0.24905 0.40011 0.82216 0.0
N399 N 0.20428 0.26368 0.84008 0.0
C400 C 0.23045 0.26037 0.85626 0.0
C401 C 0.25475 0.33278 0.84628 0.0
C402 C 0.74825 0.13015 0.64224 0.0
C403 C 0.74379 0.17801 0.61395 0.0
C404 C 0.7777 0.11729 0.65418 0.0
C405 C 0.80397 0.15196 0.63843 0.0
H406 H 0.72891 0.10085 0.65518 0.0
H407 H 0.7801 0.07315 0.67526 0.0
S408 S 0.80508 0.28899 0.56428 0.0
N409 N 0.7685 0.2665 0.57108 0.0
N410 N 0.82356 0.24123 0.59375 0.0
C411 C 0.79984 0.20548 0.61085 0.0
C412 C 0.76989 0.218 0.59849 0.0
C413 C 0.24606 0.44056 0.64837 0.0
C414 C 0.23707 0.54248 0.6629 0.0
C415 C 0.27654 0.42518 0.63932 0.0
C416 C 0.29902 0.512 0.64407 0.0
H417 H 0.2291 0.37902 0.64091 0.0
H418 H 0.2818 0.34964 0.62596 0.0
S419 S 0.28811 0.78196 0.68747 0.0
N420 N 0.25431 0.71823 0.68779 0.0
N421 N 0.31057 0.69501 0.66829 0.0
C422 C 0.29104 0.60672 0.66193 0.0
C423 C 0.26033 0.61993 0.67213 0.0
C424 C 0.12103 0.77696 0.29253 0.0
C425 C 0.13348 0.86998 0.30883 0.0
C426 C 0.12349 0.77314 0.26172 0.0
C427 C 0.13888 0.86135 0.24642 0.0
H428 H 0.1067 0.71297 0.30338 0.0
H429 H 0.11033 0.70875 0.24974 0.0
S430 S 0.18013 0.11156 0.27932 0.0
N431 N 0.16488 0.04374 0.30795 0.0
N432 N 0.17067 0.03419 0.24993 0.0
C433 C 0.15477 0.94617 0.26282 0.0
C434 C 0.15164 0.95166 0.29416 0.0
C435 C 0.92061 0.08252 0.28454 0.0
C436 C 0.89261 0.08002 0.29973 0.0
C437 C 0.92207 0.06106 0.25429 0.0
C438 C 0.8956 0.03698 0.23787 0.0
H439 H 0.94171 0.10154 0.29617 0.0
H440 H 0.9443 0.05988 0.24377 0.0
S441 S 0.81653 0.02161 0.26678 0.0
N442 N 0.83758 0.05432 0.29599 0.0
N443 N 0.84048 0.01078 0.23873 0.0
C444 C 0.86732 0.03517 0.25254 0.0
C445 C 0.86581 0.05698 0.2836 0.0
C446 C 0.91167 0.03749 0.76362 0.0
C447 C 0.90243 0.95978 0.74105 0.0
C448 C 0.90698 0.01213 0.79353 0.0
C449 C 0.8927 0.90855 0.80195 0.0
H450 H 0.92392 0.11673 0.75831 0.0
H451 H 0.91693 0.06888 0.81003 0.0
S452 S 0.8603 0.68346 0.75217 0.0
N453 N 0.87516 0.78114 0.72957 0.0
N454 N 0.86655 0.73294 0.7859 0.0
C455 C 0.88117 0.83456 0.77976 0.0
C456 C 0.88594 0.86027 0.74926 0.0
C457 C 0.1479 0.90106 0.77884 0.0
C458 C 0.12901 0.87093 0.80271 0.0
C459 C 0.14468 0.84607 0.75135 0.0
C460 C 0.12195 0.76129 0.74679 0.0
H461 H 0.16459 0.97015 0.78121 0.0
H462 H 0.15974 0.8715 0.73352 0.0
S463 S 0.06644 0.65495 0.80306 0.0
N464 N 0.08699 0.75369 0.82053 0.0
N465 N 0.08048 0.64934 0.76929 0.0
C466 C 0.10324 0.72971 0.77098 0.0
C467 C 0.1068 0.78522 0.79882 0.0
C468 C 0.60937 0.4211 0.26428 0.0
C469 C 0.61198 0.51249 0.28518 0.0
C470 C 0.6108 0.44192 0.23373 0.0
C471 C 0.61478 0.555 0.22297 0.0
H472 H 0.60492 0.33273 0.27148 0.0
H473 H 0.60675 0.37065 0.2186 0.0
S474 S 0.62809 0.82141 0.26775 0.0
N475 N 0.62271 0.7176 0.2925 0.0
N476 N 0.62534 0.75748 0.23519 0.0
C477 C 0.61992 0.64554 0.24351 0.0
C478 C 0.61859 0.62419 0.27459 0.0
C479 C 0.4235 0.69814 0.24461 0.0
C480 C 0.39652 0.70638 0.2613 0.0
C481 C 0.42325 0.6516 0.21618 0.0
C482 C 0.39594 0.6139 0.20307 0.0
H483 H 0.4452 0.72585 0.2538 0.0
H484 H 0.44476 0.64246 0.20458 0.0
S485 S 0.3189 0.61969 0.23675 0.0
N486 N 0.34154 0.67521 0.2624 0.0
N487 N 0.34112 0.58843 0.20836 0.0
C488 C 0.36861 0.62407 0.21903 0.0
C489 C 0.3689 0.66983 0.24837 0.0
C490 C 0.35688 0.58753 0.74237 0.0
C491 C 0.37149 0.66506 0.76193 0.0
C492 C 0.35866 0.60282 0.71167 0.0
C493 C 0.37454 0.69779 0.69962 0.0
H494 H 0.34727 0.50695 0.75071 0.0
H495 H 0.35044 0.53356 0.69752 0.0
S496 S 0.4105 0.93916 0.74175 0.0
N497 N 0.39862 0.8474 0.7674 0.0
N498 N 0.39971 0.88275 0.70984 0.0
C499 C 0.38527 0.78458 0.71917 0.0
C500 C 0.38435 0.76664 0.75037 0.0
C501 C 0.65407 0.42683 0.76559 0.0
C502 C 0.62491 0.4757 0.76971 0.0
C503 C 0.66343 0.38812 0.73762 0.0
C504 C 0.64447 0.40127 0.71264 0.0
H505 H 0.66957 0.41668 0.78413 0.0
H506 H 0.68519 0.34375 0.73567 0.0
S507 S 0.56652 0.5267 0.71106 0.0
N508 N 0.57726 0.53585 0.74597 0.0
N509 N 0.59571 0.46814 0.69352 0.0
C510 C 0.61595 0.4547 0.71614 0.0
C511 C 0.60597 0.49063 0.74463 0.0
C512 C 0.11787 0.87467 1.00195 0.0
C513 C 0.11867 -0.00986 0.99165 0.0
C514 C 0.11829 0.85038 0.03233 0.0
C515 C 0.11869 0.9409 0.05316 0.0
H516 H 0.12102 0.80327 0.98663 0.0
H517 H 0.12162 0.76112 0.03947 0.0
S518 S 0.11449 0.25668 0.03722 0.0
N519 N 0.11543 0.19474 1.0043 0.0
N520 N 0.11477 0.149 0.06151 0.0
C521 C 0.11506 0.05574 0.04309 0.0
C522 C 0.11542 0.08053 0.01217 0.0
C523 C 0.91932 0.75324 0.0178 0.0
C524 C 0.92139 0.82981 0.9936 0.0
C525 C 0.9209 0.79524 0.04684 0.0
C526 C 0.92353 0.91536 0.05222 0.0
H527 H 0.91257 0.66352 0.01433 0.0
H528 H 0.91514 0.73619 0.06469 0.0
S529 S 0.93859 0.14513 0.99673 0.0
N530 N 0.93349 0.02559 0.97712 0.0
N531 N 0.93575 0.10486 0.03167 0.0
C532 C 0.93101 -0.01138 0.02846 0.0
C533 C 0.92997 0.94558 0.99897 0.0
C534 C 0.10094 0.75051 0.51843 0.0
C535 C 0.12044 0.7075 0.49635 0.0
C536 C 0.10233 0.70689 0.54737 0.0
C537 C 0.12371 0.62056 0.55508 0.0
H538 H 0.08688 0.82641 0.51407 0.0
H539 H 0.08929 0.75075 0.56426 0.0
S540 S 0.17469 0.46199 0.50386 0.0
N541 N 0.15789 0.56168 0.48305 0.0
N542 N 0.16005 0.47734 0.53719 0.0
C543 C 0.14008 0.56605 0.53228 0.0
C544 C 0.1387 0.61074 0.50292 0.0
C545 C 0.90637 0.14257 0.53379 0.0
C546 C 0.90848 0.03202 0.5471 0.0
C547 C 0.90176 0.15408 0.50318 0.0
C548 C 0.89824 0.05507 0.48534 0.0
H549 H 0.90509 0.2198 0.54745 0.0
H550 H 0.8972 0.23987 0.49417 0.0
S551 S 0.90681 0.74768 0.50896 0.0
N552 N 0.91134 0.82343 0.53966 0.0
N553 N 0.90133 0.84436 0.48238 0.0
C554 C 0.90359 0.94503 0.49796 0.0
C555 C 0.90903 0.93364 0.52889 0.0
C556 C 0.59554 0.46918 0.00673 0.0
C557 C 0.60114 0.56333 0.02586 0.0
C558 C 0.59662 0.48353 0.97592 0.0
C559 C 0.60392 0.59199 0.96338 0.0
H560 H 0.59367 0.38177 0.01561 0.0
H561 H 0.5956 0.40667 0.96209 0.0
S562 S 0.61488 0.86917 1.00361 0.0
N563 N 0.60906 0.77179 0.02993 0.0
N564 N 0.6123 0.79773 0.97205 0.0
C565 C 0.60587 0.68896 0.9821 0.0
C566 C 0.60406 0.67489 0.01344 0.0
C567 C 0.3793 0.38017 0.9646 0.0
C568 C 0.38772 0.48612 0.95142 0.0
C569 C 0.38071 0.36526 0.99523 0.0
C570 C 0.39032 0.45629 0.01371 0.0
H571 H 0.36866 0.31266 0.95146 0.0
H572 H 0.37093 0.28694 1.00469 0.0
S573 S 0.41983 0.74323 0.9896 0.0
N574 N 0.41034 0.67697 0.9585 0.0
N575 N 0.41248 0.64975 0.01648 0.0
C576 C 0.40231 0.55734 1.00059 0.0
C577 C 0.40108 0.57224 0.9692 0.0
C578 C 0.58456 0.30502 0.47834 0.0
C579 C 0.58041 0.42647 0.47919 0.0
C580 C 0.59081 0.24203 0.50433 0.0
C581 C 0.59226 0.29805 0.53194 0.0
H582 H 0.58752 0.26129 0.45734 0.0
H583 H 0.59811 0.15222 0.50235 0.0
S584 S 0.5734 0.60719 0.54655 0.0
N585 N 0.57112 0.59475 0.51025 0.0
N586 N 0.58201 0.47606 0.55911 0.0
C587 C 0.58277 0.41486 0.53345 0.0
C588 C 0.57693 0.47926 0.50698 0.0
C589 C 0.34927 0.8183 0.50342 0.0
C590 C 0.37446 0.75784 0.51496 0.0
C591 C 0.34797 0.8489 0.47345 0.0
C592 C 0.37144 0.81722 0.45364 0.0
H593 H 0.32954 0.83504 0.5172 0.0
H594 H 0.32731 0.89044 0.46541 0.0
S595 S 0.44398 0.6698 0.47437 0.0
N596 N 0.42467 0.6773 0.50558 0.0
N597 N 0.42219 0.73298 0.44914 0.0
C598 C 0.39782 0.76483 0.46563 0.0
C599 C 0.39923 0.73482 0.49628 0.0
C600 C 0.98707 0.97202 0.10958 0.0
C601 C 0.98056 0.85435 0.11545 0.0
C602 C 0.01741 0.01157 0.10912 0.0
C603 C 0.04189 0.93422 0.1139 0.0
H604 H 0.96892 0.03622 0.10967 0.0
H605 H 0.02146 0.10466 0.10924 0.0
S606 S 0.03687 0.61366 0.11981 0.0
N607 N 1.00093 0.65772 0.11842 0.0
N608 N 0.05792 0.73249 0.11689 0.0
C609 C 0.03572 0.81453 0.11388 0.0
C610 C 1.0049 0.77428 0.11492 0.0
C611 C 0.99336 0.20231 0.43525 0.0
C612 C 0.96534 0.14436 0.43054 0.0
C613 C 0.02123 0.14099 0.43525 0.0
C614 C 0.02192 0.02156 0.42882 0.0
H615 H 0.99397 0.29649 0.43642 0.0
H616 H 0.04216 0.18859 0.43823 0.0
S617 S 0.95455 0.82454 0.42619 0.0
N618 N 0.93987 0.95659 0.428 0.0
N619 N 0.99193 0.84278 0.42744 0.0
C620 C 0.99389 0.96068 0.42963 0.0
C621 C 0.96561 0.02215 0.43038 0.0
C622 C 0.04343 0.87056 0.93012 0.0
C623 C 0.04403 -0.00864 0.92509 0.0
C624 C 0.0157 0.80942 0.92924 0.0
C625 C 0.98797 0.86824 0.9243 0.0
H626 H 0.06455 0.82114 0.9305 0.0
H627 H 0.01628 0.7151 0.92931 0.0
S628 S 0.97725 0.18678 0.91668 0.0
N629 N 0.01455 0.16946 0.92039 0.0
N630 N 0.96243 0.05491 0.919 0.0
C631 C 0.98804 -0.00962 0.92376 0.0
C632 C 0.01621 0.0522 0.92427 0.0
C633 C 0.98725 0.76736 0.61225 0.0
C634 C 0.99279 0.88787 0.61127 0.0
C635 C 0.01158 0.68782 0.61485 0.0
C636 C 0.04218 0.72615 0.61596 0.0
H637 H 0.96413 0.73531 0.615 0.0
H638 H 1.00626 0.5972 0.61911 0.0
S639 S 0.06856 0.03131 0.60779 0.0
N640 N 0.03089 0.04016 0.60666 0.0
N641 N 0.07652 0.89134 0.61106 0.0
C642 C 0.04795 0.84487 0.61075 0.0
C643 C 0.02321 0.9257 0.60849 0.0
C644 C 0.49953 0.4215 0.07293 0.0
C645 C 0.47231 0.48683 0.07476 0.0
C646 C 0.52814 0.47511 0.07653 0.0
C647 C 0.53002 0.595 0.08223 0.0
H648 H 0.49854 0.32722 0.0733 0.0
H649 H 0.54811 0.42028 0.07938 0.0
S650 S 0.46655 0.80794 0.0787 0.0
N651 N 0.44986 0.68018 0.07433 0.0
N652 N 0.50353 0.7806 0.08149 0.0
C653 C 0.50362 0.66298 0.07826 0.0
C654 C 0.47462 0.60868 0.07421 0.0
C655 C 0.45991 0.61709 0.39862 0.0
C656 C 0.46466 0.73815 0.39803 0.0
C657 C 0.48461 0.53983 0.40129 0.0
C658 C 0.51483 0.58095 0.40368 0.0
H659 H 0.43752 0.58162 0.3937 0.0
H660 H 0.4803 0.44758 0.39851 0.0
S661 S 0.53855 0.88983 0.40936 0.0
N662 N 0.5011 0.89543 0.4047 0.0
N663 N 0.54749 0.75009 0.41019 0.0
C664 C 0.51937 0.70129 0.4071 0.0
C665 C 0.49424 0.78007 0.40402 0.0
C666 C 0.47586 0.65985 0.89573 0.0
C667 C 0.46867 0.54155 0.89251 0.0
C668 C 0.50643 0.69515 0.89805 0.0
C669 C 0.53026 0.61268 0.89756 0.0
H670 H 0.4585 0.72563 0.89194 0.0
H671 H 0.51159 0.78704 0.89584 0.0
S672 S 0.52184 0.29244 0.8999 0.0
N673 N 0.48655 0.34215 0.89652 0.0
N674 N 0.54402 0.40857 0.90184 0.0
C675 C 0.52273 0.49462 0.90047 0.0
C676 C 0.49171 0.45873 0.8975 0.0
C677 C 0.4964 0.34888 0.65063 0.0
C678 C 0.48314 0.37655 0.62327 0.0
C679 C 0.52444 0.29156 0.65237 0.0
C680 C 0.54079 0.26047 0.62675 0.0
H681 H 0.48608 0.37952 0.67093 0.0
H682 H 0.53428 0.27953 0.67416 0.0
S683 S 0.51185 0.28748 0.54985 0.0
N684 N 0.48538 0.3516 0.57009 0.0
N685 N 0.5383 0.24085 0.57326 0.0
C686 C 0.52614 0.27628 0.59925 0.0
C687 C 0.49721 0.33486 0.59754 0.0
C688 C 0.18382 0.50729 0.17015 0.0
C689 C 0.16198 0.5957 0.17457 0.0
C690 C 0.17582 0.38952 0.17226 0.0
C691 C 0.14566 0.35606 0.17835 0.0
H692 H 0.20675 0.52918 0.16307 0.0
H693 H 0.19302 0.32469 0.16791 0.0
S694 S 0.08116 0.55532 0.19653 0.0
N695 N 0.11004 0.64248 0.18901 0.0
N696 N 0.09482 0.42217 0.19318 0.0
C697 C 0.12439 0.44413 0.18577 0.0
C698 C 0.13263 0.56383 0.18384 0.0
C699 C 0.83141 0.37425 0.14522 0.0
C700 C 0.84677 0.29108 0.16324 0.0
C701 C 0.83359 0.49423 0.15052 0.0
C702 C 0.85056 0.53567 0.17451 0.0
H703 H 0.81985 0.34774 0.12513 0.0
H704 H 0.82468 0.5541 0.13407 0.0
S705 S 0.88479 0.35531 0.2345 0.0
N706 N 0.87273 0.25962 0.20992 0.0
N707 N 0.87517 0.48426 0.22121 0.0
C708 C 0.86105 0.45326 0.19559 0.0
C709 C 0.85965 0.33107 0.18964 0.0
C710 C 0.08884 0.31184 0.40978 0.0
C711 C 0.11722 0.27385 0.42067 0.0
C712 C 0.08306 0.42998 0.40516 0.0
C713 C 0.10609 0.51278 0.4098 0.0
H714 H 0.07139 0.25014 0.40369 0.0
H715 H 0.0607 0.45645 0.39723 0.0
S716 S 0.18779 0.45412 0.42483 0.0
N717 N 0.1708 0.3266 0.4283 0.0
N718 N 0.16017 0.54761 0.41731 0.0
C719 C 0.13549 0.47554 0.41731 0.0
C720 C 0.14114 0.35598 0.42305 0.0
C721 C 0.82374 0.60093 0.38048 0.0
C722 C 0.84821 0.56024 0.36358 0.0
C723 C 0.81672 0.72032 0.38117 0.0
C724 C 0.83446 0.80397 0.36561 0.0
H725 H 0.81172 0.54251 0.39523 0.0
H726 H 0.79904 0.74765 0.39635 0.0
S727 S 0.89465 0.73581 0.31098 0.0
N728 N 0.88498 0.60816 0.32498 0.0
N729 N 0.87289 0.83238 0.32781 0.0
C730 C 0.85619 0.76195 0.34567 0.0
C731 C 0.86281 0.64017 0.34434 0.0
C732 C 0.88094 0.22121 0.86619 0.0
C733 C 0.86616 0.17916 0.89145 0.0
C734 C 0.88454 0.34079 0.86182 0.0
C735 C 0.87328 0.42174 0.88246 0.0
H736 H 0.89194 0.16192 0.85103 0.0
H737 H 0.89827 0.36984 0.84332 0.0
S738 S 0.82659 0.35631 0.94837 0.0
N739 N 0.8352 0.22755 0.93447 0.0
N740 N 0.84253 0.45308 0.92622 0.0
C741 C 0.85537 0.38151 0.90586 0.0
C742 C 0.85173 0.2596 0.91041 0.0
C743 C 0.14415 0.50126 0.85439 0.0
C744 C 0.15506 0.41533 0.87399 0.0
C745 C 0.15094 0.61862 0.85876 0.0
C746 C 0.16867 0.65418 0.88292 0.0
H747 H 0.12879 0.47856 0.83647 0.0
H748 H 0.1405 0.68193 0.84432 0.0
S749 S 0.20887 0.46062 0.93633 0.0
N750 N 0.18851 0.3717 0.91555 0.0
N751 N 0.20228 0.59237 0.92314 0.0
C752 C 0.18282 0.56787 0.9005 0.0
C753 C 0.1757 0.44819 0.8962 0.0
C754 C 0.86204 0.56075 0.65076 0.0
C755 C 0.88289 0.6436 0.66176 0.0
C756 C 0.86909 0.44214 0.6509 0.0
C757 C 0.89733 0.40367 0.66181 0.0
H758 H 0.84123 0.58871 0.63978 0.0
H759 H 0.85341 0.38199 0.64042 0.0
S760 S 0.9566 0.58414 0.69893 0.0
N761 N 0.93038 0.67836 0.68801 0.0
N762 N 0.94378 0.45488 0.68889 0.0
C763 C 0.91677 0.48457 0.67596 0.0
C764 C 0.90944 0.60511 0.67589 0.0
C765 C 0.13864 0.05466 0.68539 0.0
C766 C 0.15363 0.01276 0.66026 0.0
C767 C 0.13583 0.17441 0.69004 0.0
C768 C 0.14797 0.25508 0.66973 0.0
H769 H 0.12706 -0.00454 0.70025 0.0
H770 H 0.12219 0.20415 0.7085 0.0
S771 S 0.19249 0.18883 0.60251 0.0
N772 N 0.18411 0.06046 0.6168 0.0
N773 N 0.17729 0.28556 0.62502 0.0
C774 C 0.16505 0.21435 0.64588 0.0
C775 C 0.16818 0.09275 0.64123 0.0
C776 C 0.61563 0.08551 0.16276 0.0
C777 C 0.63701 0.00412 0.15156 0.0
C778 C 0.62238 0.20427 0.16462 0.0
C779 C 0.65085 0.24595 0.15551 0.0
H780 H 0.59252 0.05908 0.16806 0.0
H781 H 0.60402 0.26426 0.1697 0.0
S782 S 0.71796 0.0667 0.13422 0.0
N783 N 0.68996 0.97155 0.13818 0.0
N784 N 0.7031 0.19492 0.14233 0.0
C785 C 0.67398 0.16376 0.14918 0.0
C786 C 0.66694 0.04265 0.14686 0.0
C787 C 0.3715 0.86757 0.14895 0.0
C788 C 0.35189 0.83134 0.12624 0.0
C789 C 0.37685 -0.01408 0.1537 0.0
C790 C 0.363 0.07157 0.13571 0.0
H791 H 0.38457 0.80486 0.16162 0.0
H792 H 0.39359 0.00995 0.17029 0.0
S793 S 0.3042 0.02073 0.07797 0.0
N794 N 0.3137 0.88954 0.08975 0.0
N795 N 0.32534 0.11175 0.09736 0.0
C796 C 0.3409 0.0365 0.11507 0.0
C797 C 0.33495 0.91614 0.11068 0.0
C798 C 0.60436 0.02284 0.35017 0.0
C799 C 0.62554 0.09629 0.36464 0.0
C800 C 0.60949 0.90318 0.34769 0.0
C801 C 0.63592 0.85356 0.35971 0.0
H802 H 0.58241 0.05635 0.34293 0.0
H803 H 0.59092 0.84824 0.34012 0.0
S804 S 0.70202 0.01148 0.392 0.0
N805 N 0.67657 0.1145 0.38514 0.0
N806 N 0.68642 0.88846 0.38052 0.0
C807 C 0.65932 0.92837 0.36979 0.0
C808 C 0.65402 0.05047 0.37243 0.0
C809 C 0.34168 0.24939 0.34715 0.0
C810 C 0.3659 0.20968 0.32976 0.0
C811 C 0.33653 0.36858 0.35034 0.0
C812 C 0.3555 0.45113 0.33633 0.0
H813 H 0.32846 0.18929 0.36041 0.0
H814 H 0.31902 0.3962 0.3657 0.0
S815 S 0.41666 0.38885 0.28228 0.0
N816 N 0.40468 0.25959 0.29329 0.0
N817 N 0.3956 0.48422 0.30033 0.0
C818 C 0.37716 0.41202 0.31598 0.0
C819 C 0.38224 0.29063 0.31247 0.0
C820 C 0.35325 0.94659 0.8204 0.0
C821 C 0.35117 0.90693 0.84971 0.0
C822 C 0.3589 0.0644 0.81426 0.0
C823 C 0.36182 0.14537 0.83732 0.0
H824 H 0.35086 0.88612 0.80225 0.0
H825 H 0.36161 0.09192 0.7915 0.0
S826 S 0.3593 0.08581 0.9177 0.0
N827 N 0.35287 0.9588 0.90198 0.0
N828 N 0.36337 0.17883 0.89019 0.0
C829 C 0.35905 0.1075 0.86657 0.0
C830 C 0.35363 -0.01157 0.87286 0.0
C831 C 0.66167 0.13362 0.87606 0.0
C832 C 0.64847 0.21255 0.85568 0.0
C833 C 0.66323 0.01444 0.87009 0.0
C834 C 0.65179 0.97073 0.84345 0.0
H835 H 0.6691 0.16287 0.89767 0.0
H836 H 0.67023 0.95582 0.88764 0.0
S837 S 0.62142 0.14216 0.78024 0.0
N838 N 0.62798 0.23952 0.80628 0.0
N839 N 0.63248 0.0161 0.79425 0.0
C840 C 0.64253 0.0502 0.82136 0.0
C841 C 0.64029 0.17122 0.82772 0.0
C842 C 0.43062 0.04737 0.60657 0.0
C843 C 0.42682 0.9684 0.583 0.0
C844 C 0.42533 0.16672 0.60298 0.0
C845 C 0.41597 0.21218 0.57563 0.0
H846 H 0.43632 0.01593 0.62851 0.0
H847 H 0.42658 0.22212 0.62228 0.0
S848 S 0.40966 0.04788 0.50541 0.0
N849 N 0.4185 0.94787 0.53033 0.0
N850 N 0.40747 0.17233 0.52351 0.0
C851 C 0.41431 0.13591 0.55134 0.0
C852 C 0.41993 0.01395 0.55503 0.0
C853 C 0.6659 0.7076 0.5947 0.0
C854 C 0.66657 0.62527 0.61796 0.0
C855 C 0.66677 0.8273 0.60035 0.0
C856 C 0.66823 0.86823 0.62941 0.0
H857 H 0.66291 0.68005 0.572 0.0
H858 H 0.66337 0.88752 0.58216 0.0
S859 S 0.67711 0.69163 0.69754 0.0
N860 N 0.67417 0.59495 0.67073 0.0
N861 N 0.67495 0.82025 0.68129 0.0
C862 C 0.67199 0.78775 0.65255 0.0
C863 C 0.67128 0.66599 0.64686 0.0
loop_
_geom_bond_atom_site_label_1
_geom_bond_atom_site_label_2
_geom_bond_distance
_geom_bond_site_symmetry_2
_ccdc_geom_bond_type
Zn0 O6 1.920 1_565 S
Zn0 O12 1.898 . S
Zn0 O15 1.905 . S
Zn1 O9 1.905 . S
Zn1 O10 1.898 . S
Zn1 O18 1.920 . S
Zn2 O5 2.080 . S
Zn2 O8 2.114 . S
Zn2 O11 2.120 . S
Zn2 O13 2.120 . S
Zn2 O14 2.114 1_545 S
Zn2 O17 2.080 . S
C3 O8 1.166 . S
C3 O9 1.182 . S
C4 O10 1.167 . S
C4 O11 1.299 . S
O5 Zn2 2.080 . S
O5 C19 1.305 . S
O6 Zn0 1.920 1_545 S
O6 C19 1.234 . S
C7 O12 1.167 1_545 S
C7 O13 1.299 . S
O8 Zn2 2.114 . S
O8 C3 1.166 . S
O9 Zn1 1.905 . S
O9 C3 1.182 . S
O10 Zn1 1.898 . S
O10 C4 1.167 . S
O11 Zn2 2.120 . S
O11 C4 1.299 . S
O12 Zn0 1.898 . S
O12 C7 1.167 1_565 S
O13 Zn2 2.120 . S
O13 C7 1.299 . S
O14 Zn2 2.114 1_565 S
O14 C16 1.166 . S
O15 Zn0 1.905 . S
O15 C16 1.182 . S
C16 O14 1.166 . S
C16 O15 1.182 . S
O17 Zn2 2.080 . S
O17 C20 1.305 . S
O18 Zn1 1.920 . S
O18 C20 1.234 . S
C19 O5 1.305 . S
C19 O6 1.234 . S
C20 O17 1.305 . S
C20 O18 1.234 . S
Zn21 O27 1.920 . S
Zn21 O33 1.898 . S
Zn21 O36 1.905 . S
Zn22 O30 1.905 . S
Zn22 O31 1.898 . S
Zn22 O39 1.920 1_545 S
Zn23 O26 2.080 . S
Zn23 O29 2.114 1_565 S
Zn23 O32 2.120 . S
Zn23 O34 2.120 . S
Zn23 O35 2.114 . S
Zn23 O38 2.080 . S
C24 O29 1.166 . S
C24 O30 1.182 . S
C25 O31 1.167 1_565 S
C25 O32 1.299 . S
O26 Zn23 2.080 . S
O26 C40 1.305 . S
O27 Zn21 1.920 . S
O27 C40 1.234 . S
C28 O33 1.167 . S
C28 O34 1.299 . S
O29 Zn23 2.114 1_545 S
O29 C24 1.166 . S
O30 Zn22 1.905 . S
O30 C24 1.182 . S
O31 Zn22 1.898 . S
O31 C25 1.167 1_545 S
O32 Zn23 2.120 . S
O32 C25 1.299 . S
O33 Zn21 1.898 . S
O33 C28 1.167 . S
O34 Zn23 2.120 . S
O34 C28 1.299 . S
O35 Zn23 2.114 . S
O35 C37 1.166 . S
O36 Zn21 1.905 . S
O36 C37 1.182 . S
C37 O35 1.166 . S
C37 O36 1.182 . S
O38 Zn23 2.080 . S
O38 C41 1.305 . S
O39 Zn22 1.920 1_565 S
O39 C41 1.234 . S
C40 O26 1.305 . S
C40 O27 1.234 . S
C41 O38 1.305 . S
C41 O39 1.234 . S
Zn42 O48 1.920 1_545 S
Zn42 O54 1.898 . S
Zn42 O57 1.905 . S
Zn43 O51 1.905 . S
Zn43 O52 1.898 . S
Zn43 O60 1.920 . S
Zn44 O47 2.080 . S
Zn44 O50 2.114 . S
Zn44 O53 2.120 . S
Zn44 O55 2.120 . S
Zn44 O56 2.114 1_565 S
Zn44 O59 2.080 . S
C45 O50 1.166 . S
C45 O51 1.182 . S
C46 O52 1.167 . S
C46 O53 1.299 . S
O47 Zn44 2.080 . S
O47 C61 1.305 . S
O48 Zn42 1.920 1_565 S
O48 C61 1.234 . S
C49 O54 1.167 1_565 S
C49 O55 1.299 . S
O50 Zn44 2.114 . S
O50 C45 1.166 . S
O51 Zn43 1.905 . S
O51 C45 1.182 . S
O52 Zn43 1.898 . S
O52 C46 1.167 . S
O53 Zn44 2.120 . S
O53 C46 1.299 . S
O54 Zn42 1.898 . S
O54 C49 1.167 1_545 S
O55 Zn44 2.120 . S
O55 C49 1.299 . S
O56 Zn44 2.114 1_545 S
O56 C58 1.166 . S
O57 Zn42 1.905 . S
O57 C58 1.182 . S
C58 O56 1.166 . S
C58 O57 1.182 . S
O59 Zn44 2.080 . S
O59 C62 1.305 . S
O60 Zn43 1.920 . S
O60 C62 1.234 . S
C61 O47 1.305 . S
C61 O48 1.234 . S
C62 O59 1.305 . S
C62 O60 1.234 . S
Zn63 O69 1.920 1_565 S
Zn63 O75 1.898 . S
Zn63 O78 1.905 . S
Zn64 O72 1.905 . S
Zn64 O73 1.898 . S
Zn64 O81 1.920 . S
Zn65 O68 2.080 . S
Zn65 O71 2.114 . S
Zn65 O74 2.120 . S
Zn65 O76 2.120 . S
Zn65 O77 2.114 1_545 S
Zn65 O80 2.080 . S
C66 O71 1.166 . S
C66 O72 1.182 . S
C67 O73 1.167 . S
C67 O74 1.299 . S
O68 Zn65 2.080 . S
O68 C82 1.305 . S
O69 Zn63 1.920 1_545 S
O69 C82 1.234 . S
C70 O75 1.167 1_545 S
C70 O76 1.299 . S
O71 Zn65 2.114 . S
O71 C66 1.166 . S
O72 Zn64 1.905 . S
O72 C66 1.182 . S
O73 Zn64 1.898 . S
O73 C67 1.167 . S
O74 Zn65 2.120 . S
O74 C67 1.299 . S
O75 Zn63 1.898 . S
O75 C70 1.167 1_565 S
O76 Zn65 2.120 . S
O76 C70 1.299 . S
O77 Zn65 2.114 1_565 S
O77 C79 1.166 . S
O78 Zn63 1.905 . S
O78 C79 1.182 . S
C79 O77 1.166 . S
C79 O78 1.182 . S
O80 Zn65 2.080 . S
O80 C83 1.305 . S
O81 Zn64 1.920 . S
O81 C83 1.234 . S
C82 O68 1.305 . S
C82 O69 1.234 . S
C83 O80 1.305 . S
C83 O81 1.234 . S
Zn84 O90 1.920 1_545 S
Zn84 O96 1.898 . S
Zn84 O99 1.905 . S
Zn85 O93 1.905 . S
Zn85 O94 1.898 . S
Zn85 O102 1.920 . S
Zn86 O89 2.080 . S
Zn86 O92 2.114 . S
Zn86 O95 2.120 . S
Zn86 O97 2.120 . S
Zn86 O98 2.114 1_565 S
Zn86 O101 2.080 . S
C87 O92 1.166 . S
C87 O93 1.182 . S
C88 O94 1.167 . S
C88 O95 1.299 . S
O89 Zn86 2.080 . S
O89 C103 1.305 . S
O90 Zn84 1.920 1_565 S
O90 C103 1.234 . S
C91 O96 1.167 1_565 S
C91 O97 1.299 . S
O92 Zn86 2.114 . S
O92 C87 1.166 . S
O93 Zn85 1.905 . S
O93 C87 1.182 . S
O94 Zn85 1.898 . S
O94 C88 1.167 . S
O95 Zn86 2.120 . S
O95 C88 1.299 . S
O96 Zn84 1.898 . S
O96 C91 1.167 1_545 S
O97 Zn86 2.120 . S
O97 C91 1.299 . S
O98 Zn86 2.114 1_545 S
O98 C100 1.166 . S
O99 Zn84 1.905 . S
O99 C100 1.182 . S
C100 O98 1.166 . S
C100 O99 1.182 . S
O101 Zn86 2.080 . S
O101 C104 1.305 . S
O102 Zn85 1.920 . S
O102 C104 1.234 . S
C103 O89 1.305 . S
C103 O90 1.234 . S
C104 O101 1.305 . S
C104 O102 1.234 . S
Zn105 O111 1.920 1_565 S
Zn105 O117 1.898 . S
Zn105 O120 1.905 . S
Zn106 O114 1.905 . S
Zn106 O115 1.898 . S
Zn106 O123 1.920 . S
Zn107 O110 2.080 . S
Zn107 O113 2.114 . S
Zn107 O116 2.120 . S
Zn107 O118 2.120 . S
Zn107 O119 2.114 1_545 S
Zn107 O122 2.080 . S
C108 O113 1.166 . S
C108 O114 1.182 . S
C109 O115 1.167 . S
C109 O116 1.299 . S
O110 Zn107 2.080 . S
O110 C124 1.305 . S
O111 Zn105 1.920 1_545 S
O111 C124 1.234 . S
C112 O117 1.167 1_545 S
C112 O118 1.299 . S
O113 Zn107 2.114 . S
O113 C108 1.166 . S
O114 Zn106 1.905 . S
O114 C108 1.182 . S
O115 Zn106 1.898 . S
O115 C109 1.167 . S
O116 Zn107 2.120 . S
O116 C109 1.299 . S
O117 Zn105 1.898 . S
O117 C112 1.167 1_565 S
O118 Zn107 2.120 . S
O118 C112 1.299 . S
O119 Zn107 2.114 1_565 S
O119 C121 1.166 . S
O120 Zn105 1.905 . S
O120 C121 1.182 . S
C121 O119 1.166 . S
C121 O120 1.182 . S
O122 Zn107 2.080 . S
O122 C125 1.305 . S
O123 Zn106 1.920 . S
O123 C125 1.234 . S
C124 O110 1.305 . S
C124 O111 1.234 . S
C125 O122 1.305 . S
C125 O123 1.234 . S
Zn126 O132 1.920 1_565 S
Zn126 O138 1.898 . S
Zn126 O141 1.905 . S
Zn127 O135 1.905 . S
Zn127 O136 1.898 . S
Zn127 O144 1.920 . S
Zn128 O131 2.080 . S
Zn128 O134 2.114 . S
Zn128 O137 2.120 . S
Zn128 O139 2.120 . S
Zn128 O140 2.114 1_545 S
Zn128 O143 2.080 . S
C129 O134 1.166 . S
C129 O135 1.182 . S
C130 O136 1.167 . S
C130 O137 1.299 . S
O131 Zn128 2.080 . S
O131 C145 1.305 . S
O132 Zn126 1.920 1_545 S
O132 C145 1.234 . S
C133 O138 1.167 1_545 S
C133 O139 1.299 . S
O134 Zn128 2.114 . S
O134 C129 1.166 . S
O135 Zn127 1.905 . S
O135 C129 1.182 . S
O136 Zn127 1.898 . S
O136 C130 1.167 . S
O137 Zn128 2.120 . S
O137 C130 1.299 . S
O138 Zn126 1.898 . S
O138 C133 1.167 1_565 S
O139 Zn128 2.120 . S
O139 C133 1.299 . S
O140 Zn128 2.114 1_565 S
O140 C142 1.166 . S
O141 Zn126 1.905 . S
O141 C142 1.182 . S
C142 O140 1.166 . S
C142 O141 1.182 . S
O143 Zn128 2.080 . S
O143 C146 1.305 . S
O144 Zn127 1.920 . S
O144 C146 1.234 . S
C145 O131 1.305 . S
C145 O132 1.234 . S
C146 O143 1.305 . S
C146 O144 1.234 . S
Zn147 O153 1.920 1_545 S
Zn147 O159 1.898 . S
Zn147 O162 1.905 . S
Zn148 O156 1.905 . S
Zn148 O157 1.898 . S
Zn148 O165 1.920 . S
Zn149 O152 2.080 . S
Zn149 O155 2.114 . S
Zn149 O158 2.120 . S
Zn149 O160 2.120 . S
Zn149 O161 2.114 1_565 S
Zn149 O164 2.080 . S
C150 O155 1.166 . S
C150 O156 1.182 . S
C151 O157 1.167 . S
C151 O158 1.299 . S
O152 Zn149 2.080 . S
O152 C166 1.305 . S
O153 Zn147 1.920 1_565 S
O153 C166 1.234 . S
C154 O159 1.167 1_565 S
C154 O160 1.299 . S
O155 Zn149 2.114 . S
O155 C150 1.166 . S
O156 Zn148 1.905 . S
O156 C150 1.182 . S
O157 Zn148 1.898 . S
O157 C151 1.167 . S
O158 Zn149 2.120 . S
O158 C151 1.299 . S
O159 Zn147 1.898 . S
O159 C154 1.167 1_545 S
O160 Zn149 2.120 . S
O160 C154 1.299 . S
O161 Zn149 2.114 1_545 S
O161 C163 1.166 . S
O162 Zn147 1.905 . S
O162 C163 1.182 . S
C163 O161 1.166 . S
C163 O162 1.182 . S
O164 Zn149 2.080 . S
O164 C167 1.305 . S
O165 Zn148 1.920 . S
O165 C167 1.234 . S
C166 O152 1.305 . S
C166 O153 1.234 . S
C167 O164 1.305 . S
C167 O165 1.234 . S
Zn168 O174 1.920 . S
Zn168 O180 1.898 . S
Zn168 O183 1.905 . S
Zn169 O177 1.905 . S
Zn169 O178 1.898 . S
Zn169 O186 1.920 . S
Zn170 O173 2.080 . S
Zn170 O176 2.114 . S
Zn170 O179 2.120 . S
Zn170 O181 2.120 . S
Zn170 O182 2.114 . S
Zn170 O185 2.080 . S
C171 O176 1.166 . S
C171 O177 1.182 . S
C172 O178 1.167 . S
C172 O179 1.299 . S
O173 Zn170 2.080 . S
O173 C187 1.305 . S
O174 Zn168 1.920 . S
O174 C187 1.234 . S
C175 O180 1.167 . S
C175 O181 1.299 . S
O176 Zn170 2.114 . S
O176 C171 1.166 . S
O177 Zn169 1.905 . S
O177 C171 1.182 . S
O178 Zn169 1.898 . S
O178 C172 1.167 . S
O179 Zn170 2.120 . S
O179 C172 1.299 . S
O180 Zn168 1.898 . S
O180 C175 1.167 . S
O181 Zn170 2.120 . S
O181 C175 1.299 . S
O182 Zn170 2.114 . S
O182 C184 1.166 . S
O183 Zn168 1.905 . S
O183 C184 1.182 . S
C184 O182 1.166 . S
C184 O183 1.182 . S
O185 Zn170 2.080 . S
O185 C188 1.305 . S
O186 Zn169 1.920 . S
O186 C188 1.234 . S
C187 O173 1.305 . S
C187 O174 1.234 . S
C188 O185 1.305 . S
C188 O186 1.234 . S
Zn189 O195 1.920 . S
Zn189 O201 1.898 . S
Zn189 O204 1.905 . S
Zn190 O198 1.905 . S
Zn190 O199 1.898 . S
Zn190 O207 1.920 . S
Zn191 O194 2.080 . S
Zn191 O197 2.114 . S
Zn191 O200 2.120 . S
Zn191 O202 2.120 . S
Zn191 O203 2.114 . S
Zn191 O206 2.080 . S
C192 O197 1.166 . S
C192 O198 1.182 . S
C193 O199 1.167 . S
C193 O200 1.299 . S
O194 Zn191 2.080 . S
O194 C208 1.305 . S
O195 Zn189 1.920 . S
O195 C208 1.234 . S
C196 O201 1.167 . S
C196 O202 1.299 . S
O197 Zn191 2.114 . S
O197 C192 1.166 . S
O198 Zn190 1.905 . S
O198 C192 1.182 . S
O199 Zn190 1.898 . S
O199 C193 1.167 . S
O200 Zn191 2.120 . S
O200 C193 1.299 . S
O201 Zn189 1.898 . S
O201 C196 1.167 . S
O202 Zn191 2.120 . S
O202 C196 1.299 . S
O203 Zn191 2.114 . S
O203 C205 1.166 . S
O204 Zn189 1.905 . S
O204 C205 1.182 . S
C205 O203 1.166 . S
C205 O204 1.182 . S
O206 Zn191 2.080 . S
O206 C209 1.305 . S
O207 Zn190 1.920 . S
O207 C209 1.234 . S
C208 O194 1.305 . S
C208 O195 1.234 . S
C209 O206 1.305 . S
C209 O207 1.234 . S
Zn210 O216 1.920 . S
Zn210 O222 1.898 . S
Zn210 O225 1.905 . S
Zn211 O219 1.905 . S
Zn211 O220 1.898 . S
Zn211 O228 1.920 . S
Zn212 O215 2.080 . S
Zn212 O218 2.114 . S
Zn212 O221 2.120 . S
Zn212 O223 2.120 . S
Zn212 O224 2.114 . S
Zn212 O227 2.080 . S
C213 O218 1.166 . S
C213 O219 1.182 . S
C214 O220 1.167 . S
C214 O221 1.299 . S
O215 Zn212 2.080 . S
O215 C229 1.305 . S
O216 Zn210 1.920 . S
O216 C229 1.234 . S
C217 O222 1.167 . S
C217 O223 1.299 . S
O218 Zn212 2.114 . S
O218 C213 1.166 . S
O219 Zn211 1.905 . S
O219 C213 1.182 . S
O220 Zn211 1.898 . S
O220 C214 1.167 . S
O221 Zn212 2.120 . S
O221 C214 1.299 . S
O222 Zn210 1.898 . S
O222 C217 1.167 . S
O223 Zn212 2.120 . S
O223 C217 1.299 . S
O224 Zn212 2.114 . S
O224 C226 1.166 . S
O225 Zn210 1.905 . S
O225 C226 1.182 . S
C226 O224 1.166 . S
C226 O225 1.182 . S
O227 Zn212 2.080 . S
O227 C230 1.305 . S
O228 Zn211 1.920 . S
O228 C230 1.234 . S
C229 O215 1.305 . S
C229 O216 1.234 . S
C230 O227 1.305 . S
C230 O228 1.234 . S
Zn231 O237 1.920 . S
Zn231 O243 1.898 . S
Zn231 O246 1.905 . S
Zn232 O240 1.905 . S
Zn232 O241 1.898 . S
Zn232 O249 1.920 . S
Zn233 O236 2.080 . S
Zn233 O239 2.114 . S
Zn233 O242 2.120 . S
Zn233 O244 2.120 . S
Zn233 O245 2.114 . S
Zn233 O248 2.080 . S
C234 O239 1.166 . S
C234 O240 1.182 . S
C235 O241 1.167 . S
C235 O242 1.299 . S
O236 Zn233 2.080 . S
O236 C250 1.305 . S
O237 Zn231 1.920 . S
O237 C250 1.234 . S
C238 O243 1.167 . S
C238 O244 1.299 . S
O239 Zn233 2.114 . S
O239 C234 1.166 . S
O240 Zn232 1.905 . S
O240 C234 1.182 . S
O241 Zn232 1.898 . S
O241 C235 1.167 . S
O242 Zn233 2.120 . S
O242 C235 1.299 . S
O243 Zn231 1.898 . S
O243 C238 1.167 . S
O244 Zn233 2.120 . S
O244 C238 1.299 . S
O245 Zn233 2.114 . S
O245 C247 1.166 . S
O246 Zn231 1.905 . S
O246 C247 1.182 . S
C247 O245 1.166 . S
C247 O246 1.182 . S
O248 Zn233 2.080 . S
O248 C251 1.305 . S
O249 Zn232 1.920 . S
O249 C251 1.234 . S
C250 O236 1.305 . S
C250 O237 1.234 . S
C251 O248 1.305 . S
C251 O249 1.234 . S
Zn252 O258 1.920 . S
Zn252 O264 1.898 . S
Zn252 O267 1.905 . S
Zn253 O261 1.905 . S
Zn253 O262 1.898 . S
Zn253 O270 1.920 . S
Zn254 O257 2.080 . S
Zn254 O260 2.114 . S
Zn254 O263 2.120 . S
Zn254 O265 2.120 . S
Zn254 O266 2.114 . S
Zn254 O269 2.080 . S
C255 O260 1.166 . S
C255 O261 1.182 . S
C256 O262 1.167 . S
C256 O263 1.299 . S
O257 Zn254 2.080 . S
O257 C271 1.305 . S
O258 Zn252 1.920 . S
O258 C271 1.234 . S
C259 O264 1.167 . S
C259 O265 1.299 . S
O260 Zn254 2.114 . S
O260 C255 1.166 . S
O261 Zn253 1.905 . S
O261 C255 1.182 . S
O262 Zn253 1.898 . S
O262 C256 1.167 . S
O263 Zn254 2.120 . S
O263 C256 1.299 . S
O264 Zn252 1.898 . S
O264 C259 1.167 . S
O265 Zn254 2.120 . S
O265 C259 1.299 . S
O266 Zn254 2.114 . S
O266 C268 1.166 . S
O267 Zn252 1.905 . S
O267 C268 1.182 . S
C268 O266 1.166 . S
C268 O267 1.182 . S
O269 Zn254 2.080 . S
O269 C272 1.305 . S
O270 Zn253 1.920 . S
O270 C272 1.234 . S
C271 O257 1.305 . S
C271 O258 1.234 . S
C272 O269 1.305 . S
C272 O270 1.234 . S
Zn273 O279 1.920 . S
Zn273 O285 1.898 . S
Zn273 O288 1.905 . S
Zn274 O282 1.905 . S
Zn274 O283 1.898 . S
Zn274 O291 1.920 . S
Zn275 O278 2.080 . S
Zn275 O281 2.114 . S
Zn275 O284 2.120 . S
Zn275 O286 2.120 . S
Zn275 O287 2.114 . S
Zn275 O290 2.080 . S
C276 O281 1.166 . S
C276 O282 1.182 . S
C277 O283 1.167 . S
C277 O284 1.299 . S
O278 Zn275 2.080 . S
O278 C292 1.305 . S
O279 Zn273 1.920 . S
O279 C292 1.234 . S
C280 O285 1.167 . S
C280 O286 1.299 . S
O281 Zn275 2.114 . S
O281 C276 1.166 . S
O282 Zn274 1.905 . S
O282 C276 1.182 . S
O283 Zn274 1.898 . S
O283 C277 1.167 . S
O284 Zn275 2.120 . S
O284 C277 1.299 . S
O285 Zn273 1.898 . S
O285 C280 1.167 . S
O286 Zn275 2.120 . S
O286 C280 1.299 . S
O287 Zn275 2.114 . S
O287 C289 1.166 . S
O288 Zn273 1.905 . S
O288 C289 1.182 . S
C289 O287 1.166 . S
C289 O288 1.182 . S
O290 Zn275 2.080 . S
O290 C293 1.305 . S
O291 Zn274 1.920 . S
O291 C293 1.234 . S
C292 O278 1.305 . S
C292 O279 1.234 . S
C293 O290 1.305 . S
C293 O291 1.234 . S
Zn294 O300 1.920 . S
Zn294 O306 1.898 . S
Zn294 O309 1.905 . S
Zn295 O303 1.905 . S
Zn295 O304 1.898 . S
Zn295 O312 1.920 . S
Zn296 O299 2.080 . S
Zn296 O302 2.114 . S
Zn296 O305 2.120 . S
Zn296 O307 2.120 . S
Zn296 O308 2.114 . S
Zn296 O311 2.080 . S
C297 O302 1.166 . S
C297 O303 1.182 . S
C298 O304 1.167 . S
C298 O305 1.299 . S
O299 Zn296 2.080 . S
O299 C313 1.305 . S
O300 Zn294 1.920 . S
O300 C313 1.234 . S
C301 O306 1.167 . S
C301 O307 1.299 . S
O302 Zn296 2.114 . S
O302 C297 1.166 . S
O303 Zn295 1.905 . S
O303 C297 1.182 . S
O304 Zn295 1.898 . S
O304 C298 1.167 . S
O305 Zn296 2.120 . S
O305 C298 1.299 . S
O306 Zn294 1.898 . S
O306 C301 1.167 . S
O307 Zn296 2.120 . S
O307 C301 1.299 . S
O308 Zn296 2.114 . S
O308 C310 1.166 . S
O309 Zn294 1.905 . S
O309 C310 1.182 . S
C310 O308 1.166 . S
C310 O309 1.182 . S
O311 Zn296 2.080 . S
O311 C314 1.305 . S
O312 Zn295 1.920 . S
O312 C314 1.234 . S
C313 O299 1.305 . S
C313 O300 1.234 . S
C314 O311 1.305 . S
C314 O312 1.234 . S
Zn315 O321 1.920 . S
Zn315 O327 1.898 . S
Zn315 O330 1.905 . S
Zn316 O324 1.905 . S
Zn316 O325 1.898 . S
Zn316 O333 1.920 . S
Zn317 O320 2.080 . S
Zn317 O323 2.114 . S
Zn317 O326 2.120 . S
Zn317 O328 2.120 . S
Zn317 O329 2.114 . S
Zn317 O332 2.080 . S
C318 O323 1.166 . S
C318 O324 1.182 . S
C319 O325 1.167 . S
C319 O326 1.299 . S
O320 Zn317 2.080 . S
O320 C334 1.305 . S
O321 Zn315 1.920 . S
O321 C334 1.234 . S
C322 O327 1.167 . S
C322 O328 1.299 . S
O323 Zn317 2.114 . S
O323 C318 1.166 . S
O324 Zn316 1.905 . S
O324 C318 1.182 . S
O325 Zn316 1.898 . S
O325 C319 1.167 . S
O326 Zn317 2.120 . S
O326 C319 1.299 . S
O327 Zn315 1.898 . S
O327 C322 1.167 . S
O328 Zn317 2.120 . S
O328 C322 1.299 . S
O329 Zn317 2.114 . S
O329 C331 1.166 . S
O330 Zn315 1.905 . S
O330 C331 1.182 . S
C331 O329 1.166 . S
C331 O330 1.182 . S
O332 Zn317 2.080 . S
O332 C335 1.305 . S
O333 Zn316 1.920 . S
O333 C335 1.234 . S
C334 O320 1.305 . S
C334 O321 1.234 . S
C335 O332 1.305 . S
C335 O333 1.234 . S
C336 C337 1.369 . S
C336 C338 1.419 . S
C336 H340 0.930 . S
C337 C336 1.369 . S
C337 C346 1.429 . S
C338 C336 1.419 . S
C338 C339 1.363 . S
C338 H341 0.929 . S
C339 C338 1.363 . S
C339 C345 1.428 . S
H340 C336 0.930 . S
H341 C338 0.929 . S
S342 N343 1.613 1_565 S
S342 N344 1.610 1_565 S
N343 S342 1.613 1_545 S
N343 C346 1.350 . S
N344 S342 1.610 1_545 S
N344 C345 1.351 . S
C345 C339 1.428 . S
C345 N344 1.351 . S
C345 C346 1.434 . S
C346 C337 1.429 . S
C346 N343 1.350 . S
C346 C345 1.434 . S
C347 C348 1.369 . S
C347 C349 1.419 . S
C347 H351 0.930 . S
C348 C347 1.369 . S
C348 C357 1.429 . S
C349 C347 1.419 . S
C349 C350 1.363 . S
C349 H352 0.929 . S
C350 C349 1.363 . S
C350 C356 1.428 . S
H351 C347 0.930 . S
H352 C349 0.929 . S
S353 N354 1.613 . S
S353 N355 1.610 . S
N354 S353 1.613 . S
N354 C357 1.350 . S
N355 S353 1.610 . S
N355 C356 1.351 . S
C356 C350 1.428 . S
C356 N355 1.351 . S
C356 C357 1.434 . S
C357 C348 1.429 . S
C357 N354 1.350 . S
C357 C356 1.434 . S
C358 C359 1.369 . S
C358 C360 1.419 . S
C358 H362 0.930 . S
C359 C358 1.369 . S
C359 C368 1.429 . S
C360 C358 1.419 . S
C360 C361 1.363 . S
C360 H363 0.929 . S
C361 C360 1.363 . S
C361 C367 1.428 . S
H362 C358 0.930 . S
H363 C360 0.929 . S
S364 N365 1.613 . S
S364 N366 1.610 . S
N365 S364 1.613 . S
N365 C368 1.350 . S
N366 S364 1.610 . S
N366 C367 1.351 . S
C367 C361 1.428 . S
C367 N366 1.351 . S
C367 C368 1.434 . S
C368 C359 1.429 . S
C368 N365 1.350 . S
C368 C367 1.434 . S
C369 C370 1.369 . S
C369 C371 1.419 . S
C369 H373 0.930 . S
C370 C369 1.369 . S
C370 C379 1.429 . S
C371 C369 1.419 . S
C371 C372 1.363 . S
C371 H374 0.929 . S
C372 C371 1.363 . S
C372 C378 1.428 . S
H373 C369 0.930 . S
H374 C371 0.929 . S
S375 N376 1.613 . S
S375 N377 1.610 . S
N376 S375 1.613 . S
N376 C379 1.350 . S
N377 S375 1.610 . S
N377 C378 1.351 . S
C378 C372 1.428 . S
C378 N377 1.351 . S
C378 C379 1.434 . S
C379 C370 1.429 . S
C379 N376 1.350 . S
C379 C378 1.434 . S
C380 C381 1.369 . S
C380 C382 1.419 . S
C380 H384 0.930 . S
C381 C380 1.369 . S
C381 C390 1.429 . S
C382 C380 1.419 . S
C382 C383 1.363 . S
C382 H385 0.929 . S
C383 C382 1.363 . S
C383 C389 1.428 . S
H384 C380 0.930 . S
H385 C382 0.929 . S
S386 N387 1.613 . S
S386 N388 1.610 . S
N387 S386 1.613 . S
N387 C390 1.350 . S
N388 S386 1.610 . S
N388 C389 1.351 . S
C389 C383 1.428 . S
C389 N388 1.351 . S
C389 C390 1.434 . S
C390 C381 1.429 . S
C390 N387 1.350 . S
C390 C389 1.434 . S
C391 C392 1.369 . S
C391 C393 1.419 . S
C391 H395 0.930 . S
C392 C391 1.369 . S
C392 C401 1.429 . S
C393 C391 1.419 . S
C393 C394 1.363 . S
C393 H396 0.929 . S
C394 C393 1.363 . S
C394 C400 1.428 . S
H395 C391 0.930 . S
H396 C393 0.929 . S
S397 N398 1.613 . S
S397 N399 1.610 . S
N398 S397 1.613 . S
N398 C401 1.350 . S
N399 S397 1.610 . S
N399 C400 1.351 . S
C400 C394 1.428 . S
C400 N399 1.351 . S
C400 C401 1.434 . S
C401 C392 1.429 . S
C401 N398 1.350 . S
C401 C400 1.434 . S
C402 C403 1.369 . S
C402 C404 1.419 . S
C402 H406 0.930 . S
C403 C402 1.369 . S
C403 C412 1.429 . S
C404 C402 1.419 . S
C404 C405 1.363 . S
C404 H407 0.929 . S
C405 C404 1.363 . S
C405 C411 1.428 . S
H406 C402 0.930 . S
H407 C404 0.929 . S
S408 N409 1.613 . S
S408 N410 1.610 . S
N409 S408 1.613 . S
N409 C412 1.350 . S
N410 S408 1.610 . S
N410 C411 1.351 . S
C411 C405 1.428 . S
C411 N410 1.351 . S
C411 C412 1.434 . S
C412 C403 1.429 . S
C412 N409 1.350 . S
C412 C411 1.434 . S
C413 C414 1.369 . S
C413 C415 1.419 . S
C413 H417 0.930 . S
C414 C413 1.369 . S
C414 C423 1.429 . S
C415 C413 1.419 . S
C415 C416 1.363 . S
C415 H418 0.929 . S
C416 C415 1.363 . S
C416 C422 1.428 . S
H417 C413 0.930 . S
H418 C415 0.929 . S
S419 N420 1.613 1_545 S
S419 N421 1.610 1_545 S
N420 S419 1.613 1_565 S
N420 C423 1.350 . S
N421 S419 1.610 1_565 S
N421 C422 1.351 . S
C422 C416 1.428 . S
C422 N421 1.351 . S
C422 C423 1.434 . S
C423 C414 1.429 . S
C423 N420 1.350 . S
C423 C422 1.434 . S
C424 C425 1.369 . S
C424 C426 1.419 . S
C424 H428 0.930 . S
C425 C424 1.369 . S
C425 C434 1.429 1_545 S
C426 C424 1.419 . S
C426 C427 1.363 1_545 S
C426 H429 0.929 . S
C427 C426 1.363 1_565 S
C427 C433 1.428 . S
H428 C424 0.930 . S
H429 C426 0.929 . S
S430 N431 1.613 . S
S430 N432 1.610 . S
N431 S430 1.613 . S
N431 C434 1.350 . S
N432 S430 1.610 . S
N432 C433 1.351 . S
C433 C427 1.428 . S
C433 N432 1.351 . S
C433 C434 1.434 . S
C434 C425 1.429 1_565 S
C434 N431 1.350 . S
C434 C433 1.434 . S
C435 C436 1.369 1_545 S
C435 C437 1.419 . S
C435 H439 0.930 . S
C436 C435 1.369 1_565 S
C436 C445 1.429 . S
C437 C435 1.419 . S
C437 C438 1.365 . S
C437 H440 0.929 . S
C438 C437 1.365 . S
C438 C444 1.426 1_545 S
H439 C435 0.930 . S
H440 C437 0.929 . S
S441 N442 1.613 . S
S441 N443 1.610 . S
N442 S441 1.613 . S
N442 C445 1.350 . S
N443 S441 1.610 . S
N443 C444 1.351 . S
C444 C438 1.426 1_565 S
C444 N443 1.351 . S
C444 C445 1.434 . S
C445 C436 1.429 . S
C445 N442 1.350 . S
C445 C444 1.434 . S
C446 C447 1.369 1_545 S
C446 C448 1.419 . S
C446 H450 0.930 . S
C447 C446 1.369 1_565 S
C447 C456 1.429 . S
C448 C446 1.419 . S
C448 C449 1.366 . S
C448 H451 0.929 . S
C449 C448 1.366 . S
C449 C455 1.425 1_545 S
H450 C446 0.930 . S
H451 C448 0.929 . S
S452 N453 1.613 . S
S452 N454 1.610 . S
N453 S452 1.613 . S
N453 C456 1.350 . S
N454 S452 1.610 . S
N454 C455 1.351 . S
C455 C449 1.425 1_565 S
C455 N454 1.351 . S
C455 C456 1.434 . S
C456 C447 1.429 . S
C456 N453 1.350 . S
C456 C455 1.434 . S
C457 C458 1.369 1_545 S
C457 C459 1.419 . S
C457 H461 0.930 . S
C458 C457 1.369 1_565 S
C458 C467 1.429 . S
C459 C457 1.419 . S
C459 C460 1.365 . S
C459 H462 0.929 . S
C460 C459 1.365 . S
C460 C466 1.426 1_545 S
H461 C457 0.930 . S
H462 C459 0.929 . S
S463 N464 1.613 . S
S463 N465 1.610 . S
N464 S463 1.613 . S
N464 C467 1.350 . S
N465 S463 1.610 . S
N465 C466 1.351 . S
C466 C460 1.426 1_565 S
C466 N465 1.351 . S
C466 C467 1.434 . S
C467 C458 1.429 . S
C467 N464 1.350 . S
C467 C466 1.434 . S
C468 C469 1.369 . S
C468 C470 1.419 . S
C468 H472 0.930 . S
C469 C468 1.369 . S
C469 C478 1.429 . S
C470 C468 1.419 . S
C470 C471 1.363 . S
C470 H473 0.929 . S
C471 C470 1.363 . S
C471 C477 1.428 . S
H472 C468 0.930 . S
H473 C470 0.929 . S
S474 N475 1.613 . S
S474 N476 1.610 . S
N475 S474 1.613 . S
N475 C478 1.350 . S
N476 S474 1.610 . S
N476 C477 1.351 . S
C477 C471 1.428 . S
C477 N476 1.351 . S
C477 C478 1.434 . S
C478 C469 1.429 . S
C478 N475 1.350 . S
C478 C477 1.434 . S
C479 C480 1.369 . S
C479 C481 1.419 . S
C479 H483 0.930 . S
C480 C479 1.369 . S
C480 C489 1.429 . S
C481 C479 1.419 . S
C481 C482 1.363 . S
C481 H484 0.929 . S
C482 C481 1.363 . S
C482 C488 1.428 . S
H483 C479 0.930 . S
H484 C481 0.929 . S
S485 N486 1.613 . S
S485 N487 1.610 . S
N486 S485 1.613 . S
N486 C489 1.350 . S
N487 S485 1.610 . S
N487 C488 1.351 . S
C488 C482 1.428 . S
C488 N487 1.351 . S
C488 C489 1.434 . S
C489 C480 1.429 . S
C489 N486 1.350 . S
C489 C488 1.434 . S
C490 C491 1.369 . S
C490 C492 1.419 . S
C490 H494 0.930 . S
C491 C490 1.369 . S
C491 C500 1.429 . S
C492 C490 1.419 . S
C492 C493 1.363 . S
C492 H495 0.929 . S
C493 C492 1.363 . S
C493 C499 1.428 . S
H494 C490 0.930 . S
H495 C492 0.929 . S
S496 N497 1.613 . S
S496 N498 1.610 . S
N497 S496 1.613 . S
N497 C500 1.350 . S
N498 S496 1.610 . S
N498 C499 1.351 . S
C499 C493 1.428 . S
C499 N498 1.351 . S
C499 C500 1.434 . S
C500 C491 1.429 . S
C500 N497 1.350 . S
C500 C499 1.434 . S
C501 C502 1.369 . S
C501 C503 1.419 . S
C501 H505 0.930 . S
C502 C501 1.369 . S
C502 C511 1.429 . S
C503 C501 1.419 . S
C503 C504 1.363 . S
C503 H506 0.929 . S
C504 C503 1.363 . S
C504 C510 1.428 . S
H505 C501 0.930 . S
H506 C503 0.929 . S
S507 N508 1.613 . S
S507 N509 1.610 . S
N508 S507 1.613 . S
N508 C511 1.350 . S
N509 S507 1.610 . S
N509 C510 1.351 . S
C510 C504 1.428 . S
C510 N509 1.351 . S
C510 C511 1.434 . S
C511 C502 1.429 . S
C511 N508 1.350 . S
C511 C510 1.434 . S
C512 C513 1.369 1_565 S
C512 C514 1.419 1_556 S
C512 H516 0.930 . S
C513 C512 1.369 1_545 S
C513 C522 1.429 . S
C514 C512 1.419 1_554 S
C514 C515 1.363 1_565 S
C514 H517 0.929 . S
C515 C514 1.363 1_545 S
C515 C521 1.428 . S
H516 C512 0.930 . S
H517 C514 0.929 . S
S518 N519 1.616 1_554 S
S518 N520 1.608 . S
N519 S518 1.616 1_556 S
N519 C522 1.350 . S
N520 S518 1.608 . S
N520 C521 1.351 . S
C521 C515 1.428 . S
C521 N520 1.351 . S
C521 C522 1.434 1_554 S
C522 C513 1.429 . S
C522 N519 1.350 . S
C522 C521 1.434 1_556 S
C523 C524 1.369 . S
C523 C525 1.419 1_556 S
C523 H527 0.930 . S
C524 C523 1.369 . S
C524 C533 1.429 1_565 S
C525 C523 1.419 1_554 S
C525 C526 1.363 . S
C525 H528 0.929 . S
C526 C525 1.363 . S
C526 C532 1.428 1_565 S
H527 C523 0.930 . S
H528 C525 0.929 . S
S529 N530 1.616 1_554 S
S529 N531 1.608 . S
N530 S529 1.616 1_556 S
N530 C533 1.350 . S
N531 S529 1.608 . S
N531 C532 1.351 . S
C532 C526 1.428 1_545 S
C532 N531 1.351 . S
C532 C533 1.434 1_554 S
C533 C524 1.429 1_545 S
C533 N530 1.350 . S
C533 C532 1.434 1_556 S
C534 C535 1.369 . S
C534 C536 1.419 . S
C534 H538 0.930 . S
C535 C534 1.369 . S
C535 C544 1.429 1_565 S
C536 C534 1.419 . S
C536 C537 1.363 . S
C536 H539 0.929 . S
C537 C536 1.363 . S
C537 C543 1.428 1_565 S
H538 C534 0.930 . S
H539 C536 0.929 . S
S540 N541 1.613 . S
S540 N542 1.610 . S
N541 S540 1.613 . S
N541 C544 1.350 . S
N542 S540 1.610 . S
N542 C543 1.351 . S
C543 C537 1.428 1_545 S
C543 N542 1.351 . S
C543 C544 1.434 . S
C544 C535 1.429 1_545 S
C544 N541 1.350 . S
C544 C543 1.434 . S
C545 C546 1.369 . S
C545 C547 1.419 . S
C545 H549 0.930 . S
C546 C545 1.369 . S
C546 C555 1.429 1_545 S
C547 C545 1.419 . S
C547 C548 1.363 . S
C547 H550 0.929 . S
C548 C547 1.363 . S
C548 C554 1.428 1_545 S
H549 C545 0.930 . S
H550 C547 0.929 . S
S551 N552 1.613 . S
S551 N553 1.610 . S
N552 S551 1.613 . S
N552 C555 1.350 . S
N553 S551 1.610 . S
N553 C554 1.351 . S
C554 C548 1.428 1_565 S
C554 N553 1.351 . S
C554 C555 1.434 . S
C555 C546 1.429 1_565 S
C555 N552 1.350 . S
C555 C554 1.434 . S
C556 C557 1.369 . S
C556 C558 1.419 1_554 S
C556 H560 0.930 . S
C557 C556 1.369 . S
C557 C566 1.429 . S
C558 C556 1.419 1_556 S
C558 C559 1.363 . S
C558 H561 0.929 . S
C559 C558 1.363 . S
C559 C565 1.428 . S
H560 C556 0.930 . S
H561 C558 0.929 . S
S562 N563 1.616 1_556 S
S562 N564 1.608 . S
N563 S562 1.616 1_554 S
N563 C566 1.350 . S
N564 S562 1.608 . S
N564 C565 1.351 . S
C565 C559 1.428 . S
C565 N564 1.351 . S
C565 C566 1.434 1_556 S
C566 C557 1.429 . S
C566 N563 1.350 . S
C566 C565 1.434 1_554 S
C567 C568 1.369 . S
C567 C569 1.419 1_556 S
C567 H571 0.930 . S
C568 C567 1.369 . S
C568 C577 1.429 . S
C569 C567 1.419 1_554 S
C569 C570 1.363 . S
C569 H572 0.929 . S
C570 C569 1.363 . S
C570 C576 1.428 . S
H571 C567 0.930 . S
H572 C569 0.929 . S
S573 N574 1.616 1_554 S
S573 N575 1.608 . S
N574 S573 1.616 1_556 S
N574 C577 1.350 . S
N575 S573 1.608 . S
N575 C576 1.351 . S
C576 C570 1.428 . S
C576 N575 1.351 . S
C576 C577 1.434 1_554 S
C577 C568 1.429 . S
C577 N574 1.350 . S
C577 C576 1.434 1_556 S
C578 C579 1.369 . S
C578 C580 1.419 . S
C578 H582 0.930 . S
C579 C578 1.369 . S
C579 C588 1.429 . S
C580 C578 1.419 . S
C580 C581 1.363 . S
C580 H583 0.929 . S
C581 C580 1.363 . S
C581 C587 1.428 . S
H582 C578 0.930 . S
H583 C580 0.929 . S
S584 N585 1.613 . S
S584 N586 1.610 . S
N585 S584 1.613 . S
N585 C588 1.350 . S
N586 S584 1.610 . S
N586 C587 1.351 . S
C587 C581 1.428 . S
C587 N586 1.351 . S
C587 C588 1.434 . S
C588 C579 1.429 . S
C588 N585 1.350 . S
C588 C587 1.434 . S
C589 C590 1.369 . S
C589 C591 1.419 . S
C589 H593 0.930 . S
C590 C589 1.369 . S
C590 C599 1.429 . S
C591 C589 1.419 . S
C591 C592 1.363 . S
C591 H594 0.929 . S
C592 C591 1.363 . S
C592 C598 1.428 . S
H593 C589 0.930 . S
H594 C591 0.929 . S
S595 N596 1.613 . S
S595 N597 1.610 . S
N596 S595 1.613 . S
N596 C599 1.350 . S
N597 S595 1.610 . S
N597 C598 1.351 . S
C598 C592 1.428 . S
C598 N597 1.351 . S
C598 C599 1.434 . S
C599 C590 1.429 . S
C599 N596 1.350 . S
C599 C598 1.434 . S
C600 C601 1.369 . S
C600 C602 1.419 1_665 S
C600 H604 0.930 . S
C601 C600 1.369 . S
C601 C610 1.429 . S
C602 C600 1.419 1_445 S
C602 C603 1.363 . S
C602 H605 0.929 . S
C603 C602 1.363 . S
C603 C609 1.428 . S
H604 C600 0.930 . S
H605 C602 0.929 . S
S606 N607 1.591 1_455 S
S606 N608 1.633 1_565 S
N607 S606 1.591 1_655 S
N607 C610 1.350 . S
N608 S606 1.633 1_545 S
N608 C609 1.351 . S
C609 C603 1.428 . S
C609 N608 1.351 . S
C609 C610 1.434 1_445 S
C610 C601 1.429 . S
C610 N607 1.350 . S
C610 C609 1.434 1_665 S
C611 C612 1.369 . S
C611 C613 1.419 1_655 S
C611 H615 0.930 . S
C612 C611 1.369 . S
C612 C621 1.429 1_545 S
C613 C611 1.419 1_455 S
C613 C614 1.363 1_545 S
C613 H616 0.929 . S
C614 C613 1.363 1_565 S
C614 C620 1.428 . S
H615 C611 0.930 . S
H616 C613 0.929 . S
S617 N618 1.613 . S
S617 N619 1.610 1_655 S
N618 S617 1.613 . S
N618 C621 1.350 . S
N619 S617 1.610 1_455 S
N619 C620 1.351 . S
C620 C614 1.428 . S
C620 N619 1.351 . S
C620 C621 1.434 1_455 S
C621 C612 1.429 1_565 S
C621 N618 1.350 . S
C621 C620 1.434 1_655 S
C622 C623 1.369 1_565 S
C622 C624 1.419 1_455 S
C622 H626 0.930 . S
C623 C622 1.369 1_545 S
C623 C632 1.429 . S
C624 C622 1.419 1_655 S
C624 C625 1.363 . S
C624 H627 0.929 . S
C625 C624 1.363 . S
C625 C631 1.428 1_565 S
H626 C622 0.930 . S
H627 C624 0.929 . S
S628 N629 1.613 1_655 S
S628 N630 1.610 . S
N629 S628 1.613 1_455 S
N629 C632 1.350 . S
N630 S628 1.610 . S
N630 C631 1.351 . S
C631 C625 1.428 1_545 S
C631 N630 1.351 . S
C631 C632 1.434 1_655 S
C632 C623 1.429 . S
C632 N629 1.350 . S
C632 C631 1.434 1_455 S
C633 C634 1.369 . S
C633 C635 1.419 1_645 S
C633 H637 0.930 . S
C634 C633 1.369 . S
C634 C643 1.429 . S
C635 C633 1.419 1_465 S
C635 C636 1.363 . S
C635 H638 0.929 . S
C636 C635 1.363 . S
C636 C642 1.428 . S
H637 C633 0.930 . S
H638 C635 0.929 . S
S639 N640 1.613 1_455 S
S639 N641 1.610 . S
N640 S639 1.613 1_655 S
N640 C643 1.350 . S
N641 S639 1.610 . S
N641 C642 1.351 1_545 S
C642 C636 1.428 . S
C642 N641 1.351 1_565 S
C642 C643 1.434 1_465 S
C643 C634 1.429 . S
C643 N640 1.350 . S
C643 C642 1.434 1_645 S
C644 C645 1.369 . S
C644 C646 1.419 . S
C644 H648 0.930 . S
C645 C644 1.369 . S
C645 C654 1.429 . S
C646 C644 1.419 . S
C646 C647 1.363 . S
C646 H649 0.929 . S
C647 C646 1.363 . S
C647 C653 1.428 . S
H648 C644 0.930 . S
H649 C646 0.929 . S
S650 N651 1.613 . S
S650 N652 1.610 . S
N651 S650 1.613 . S
N651 C654 1.350 . S
N652 S650 1.610 . S
N652 C653 1.351 . S
C653 C647 1.428 . S
C653 N652 1.351 . S
C653 C654 1.434 . S
C654 C645 1.429 . S
C654 N651 1.350 . S
C654 C653 1.434 . S
C655 C656 1.369 . S
C655 C657 1.419 . S
C655 H659 0.930 . S
C656 C655 1.369 . S
C656 C665 1.429 . S
C657 C655 1.419 . S
C657 C658 1.363 . S
C657 H660 0.929 . S
C658 C657 1.363 . S
C658 C664 1.428 . S
H659 C655 0.930 . S
H660 C657 0.929 . S
S661 N662 1.613 . S
S661 N663 1.610 . S
N662 S661 1.613 . S
N662 C665 1.350 . S
N663 S661 1.610 . S
N663 C664 1.351 . S
C664 C658 1.428 . S
C664 N663 1.351 . S
C664 C665 1.434 . S
C665 C656 1.429 . S
C665 N662 1.350 . S
C665 C664 1.434 . S
C666 C667 1.369 . S
C666 C668 1.419 . S
C666 H670 0.930 . S
C667 C666 1.369 . S
C667 C676 1.429 . S
C668 C666 1.419 . S
C668 C669 1.363 . S
C668 H671 0.929 . S
C669 C668 1.363 . S
C669 C675 1.428 . S
H670 C666 0.930 . S
H671 C668 0.929 . S
S672 N673 1.613 . S
S672 N674 1.610 . S
N673 S672 1.613 . S
N673 C676 1.350 . S
N674 S672 1.610 . S
N674 C675 1.351 . S
C675 C669 1.428 . S
C675 N674 1.351 . S
C675 C676 1.434 . S
C676 C667 1.429 . S
C676 N673 1.350 . S
C676 C675 1.434 . S
C677 C678 1.369 . S
C677 C679 1.419 . S
C677 H681 0.930 . S
C678 C677 1.369 . S
C678 C687 1.429 . S
C679 C677 1.419 . S
C679 C680 1.363 . S
C679 H682 0.929 . S
C680 C679 1.363 . S
C680 C686 1.428 . S
H681 C677 0.930 . S
H682 C679 0.929 . S
S683 N684 1.613 . S
S683 N685 1.610 . S
N684 S683 1.613 . S
N684 C687 1.350 . S
N685 S683 1.610 . S
N685 C686 1.351 . S
C686 C680 1.428 . S
C686 N685 1.351 . S
C686 C687 1.434 . S
C687 C678 1.429 . S
C687 N684 1.350 . S
C687 C686 1.434 . S
C688 C689 1.369 . S
C688 C690 1.419 . S
C688 H692 0.930 . S
C689 C688 1.369 . S
C689 C698 1.429 . S
C690 C688 1.419 . S
C690 C691 1.363 . S
C690 H693 0.929 . S
C691 C690 1.363 . S
C691 C697 1.428 . S
H692 C688 0.930 . S
H693 C690 0.929 . S
S694 N695 1.613 . S
S694 N696 1.610 . S
N695 S694 1.613 . S
N695 C698 1.350 . S
N696 S694 1.610 . S
N696 C697 1.351 . S
C697 C691 1.428 . S
C697 N696 1.351 . S
C697 C698 1.434 . S
C698 C689 1.429 . S
C698 N695 1.350 . S
C698 C697 1.434 . S
C699 C700 1.369 . S
C699 C701 1.419 . S
C699 H703 0.930 . S
C700 C699 1.369 . S
C700 C709 1.429 . S
C701 C699 1.419 . S
C701 C702 1.363 . S
C701 H704 0.929 . S
C702 C701 1.363 . S
C702 C708 1.428 . S
H703 C699 0.930 . S
H704 C701 0.929 . S
S705 N706 1.613 . S
S705 N707 1.610 . S
N706 S705 1.613 . S
N706 C709 1.350 . S
N707 S705 1.610 . S
N707 C708 1.351 . S
C708 C702 1.428 . S
C708 N707 1.351 . S
C708 C709 1.434 . S
C709 C700 1.429 . S
C709 N706 1.350 . S
C709 C708 1.434 . S
C710 C711 1.369 . S
C710 C712 1.419 . S
C710 H714 0.930 . S
C711 C710 1.369 . S
C711 C720 1.429 . S
C712 C710 1.419 . S
C712 C713 1.363 . S
C712 H715 0.929 . S
C713 C712 1.363 . S
C713 C719 1.428 . S
H714 C710 0.930 . S
H715 C712 0.929 . S
S716 N717 1.613 . S
S716 N718 1.610 . S
N717 S716 1.613 . S
N717 C720 1.350 . S
N718 S716 1.610 . S
N718 C719 1.351 . S
C719 C713 1.428 . S
C719 N718 1.351 . S
C719 C720 1.434 . S
C720 C711 1.429 . S
C720 N717 1.350 . S
C720 C719 1.434 . S
C721 C722 1.369 . S
C721 C723 1.419 . S
C721 H725 0.930 . S
C722 C721 1.369 . S
C722 C731 1.429 . S
C723 C721 1.419 . S
C723 C724 1.363 . S
C723 H726 0.929 . S
C724 C723 1.363 . S
C724 C730 1.428 . S
H725 C721 0.930 . S
H726 C723 0.929 . S
S727 N728 1.613 . S
S727 N729 1.610 . S
N728 S727 1.613 . S
N728 C731 1.350 . S
N729 S727 1.610 . S
N729 C730 1.351 . S
C730 C724 1.428 . S
C730 N729 1.351 . S
C730 C731 1.434 . S
C731 C722 1.429 . S
C731 N728 1.350 . S
C731 C730 1.434 . S
C732 C733 1.369 . S
C732 C734 1.419 . S
C732 H736 0.930 . S
C733 C732 1.369 . S
C733 C742 1.429 . S
C734 C732 1.419 . S
C734 C735 1.363 . S
C734 H737 0.929 . S
C735 C734 1.363 . S
C735 C741 1.428 . S
H736 C732 0.930 . S
H737 C734 0.929 . S
S738 N739 1.613 . S
S738 N740 1.610 . S
N739 S738 1.613 . S
N739 C742 1.350 . S
N740 S738 1.610 . S
N740 C741 1.351 . S
C741 C735 1.428 . S
C741 N740 1.351 . S
C741 C742 1.434 . S
C742 C733 1.429 . S
C742 N739 1.350 . S
C742 C741 1.434 . S
C743 C744 1.369 . S
C743 C745 1.419 . S
C743 H747 0.930 . S
C744 C743 1.369 . S
C744 C753 1.429 . S
C745 C743 1.419 . S
C745 C746 1.363 . S
C745 H748 0.929 . S
C746 C745 1.363 . S
C746 C752 1.428 . S
H747 C743 0.930 . S
H748 C745 0.929 . S
S749 N750 1.613 . S
S749 N751 1.610 . S
N750 S749 1.613 . S
N750 C753 1.350 . S
N751 S749 1.610 . S
N751 C752 1.351 . S
C752 C746 1.428 . S
C752 N751 1.351 . S
C752 C753 1.434 . S
C753 C744 1.429 . S
C753 N750 1.350 . S
C753 C752 1.434 . S
C754 C755 1.369 . S
C754 C756 1.419 . S
C754 H758 0.930 . S
C755 C754 1.369 . S
C755 C764 1.429 . S
C756 C754 1.419 . S
C756 C757 1.363 . S
C756 H759 0.929 . S
C757 C756 1.363 . S
C757 C763 1.428 . S
H758 C754 0.930 . S
H759 C756 0.929 . S
S760 N761 1.613 . S
S760 N762 1.610 . S
N761 S760 1.613 . S
N761 C764 1.350 . S
N762 S760 1.610 . S
N762 C763 1.351 . S
C763 C757 1.428 . S
C763 N762 1.351 . S
C763 C764 1.434 . S
C764 C755 1.429 . S
C764 N761 1.350 . S
C764 C763 1.434 . S
C765 C766 1.369 . S
C765 C767 1.419 . S
C765 H769 0.930 . S
C766 C765 1.369 . S
C766 C775 1.429 . S
C767 C765 1.419 . S
C767 C768 1.363 . S
C767 H770 0.929 . S
C768 C767 1.363 . S
C768 C774 1.428 . S
H769 C765 0.930 . S
H770 C767 0.929 . S
S771 N772 1.613 . S
S771 N773 1.610 . S
N772 S771 1.613 . S
N772 C775 1.350 . S
N773 S771 1.610 . S
N773 C774 1.351 . S
C774 C768 1.428 . S
C774 N773 1.351 . S
C774 C775 1.434 . S
C775 C766 1.429 . S
C775 N772 1.350 . S
C775 C774 1.434 . S
C776 C777 1.369 1_545 S
C776 C778 1.419 . S
C776 H780 0.930 1_545 S
C777 C776 1.369 1_565 S
C777 C786 1.429 . S
C778 C776 1.419 . S
C778 C779 1.363 . S
C778 H781 0.929 . S
C779 C778 1.363 . S
C779 C785 1.428 . S
H780 C776 0.930 1_565 S
H781 C778 0.929 . S
S782 N783 1.613 1_545 S
S782 N784 1.610 . S
N783 S782 1.613 1_565 S
N783 C786 1.351 . S
N784 S782 1.610 . S
N784 C785 1.351 . S
C785 C779 1.428 . S
C785 N784 1.351 . S
C785 C786 1.432 1_545 S
C786 C777 1.429 . S
C786 N783 1.351 . S
C786 C785 1.432 1_565 S
C787 C788 1.369 . S
C787 C789 1.419 . S
C787 H791 0.930 . S
C788 C787 1.369 . S
C788 C797 1.429 . S
C789 C787 1.419 . S
C789 C790 1.363 1_565 S
C789 H792 0.929 1_565 S
C790 C789 1.363 1_545 S
C790 C796 1.428 1_545 S
H791 C787 0.930 . S
H792 C789 0.929 1_545 S
S793 N794 1.613 . S
S793 N795 1.610 1_565 S
N794 S793 1.613 . S
N794 C797 1.350 . S
N795 S793 1.610 1_545 S
N795 C796 1.351 1_545 S
C796 C790 1.428 1_565 S
C796 N795 1.351 1_565 S
C796 C797 1.434 . S
C797 C788 1.429 . S
C797 N794 1.350 . S
C797 C796 1.434 . S
C798 C799 1.369 1_565 S
C798 C800 1.419 . S
C798 H802 0.930 1_565 S
C799 C798 1.369 1_545 S
C799 C808 1.429 1_545 S
C800 C798 1.419 . S
C800 C801 1.363 . S
C800 H803 0.929 . S
C801 C800 1.363 . S
C801 C807 1.428 . S
H802 C798 0.930 1_545 S
H803 C800 0.929 . S
S804 N805 1.613 1_565 S
S804 N806 1.610 . S
N805 S804 1.613 1_545 S
N805 C808 1.350 1_545 S
N806 S804 1.610 . S
N806 C807 1.351 . S
C807 C801 1.428 . S
C807 N806 1.351 . S
C807 C808 1.434 . S
C808 C799 1.429 1_565 S
C808 N805 1.350 1_565 S
C808 C807 1.434 . S
C809 C810 1.369 . S
C809 C811 1.419 1_565 S
C809 H813 0.930 . S
C810 C809 1.369 . S
C810 C819 1.429 1_565 S
C811 C809 1.419 1_545 S
C811 C812 1.363 . S
C811 H814 0.929 . S
C812 C811 1.363 . S
C812 C818 1.428 . S
H813 C809 0.930 . S
H814 C811 0.929 . S
S815 N816 1.613 1_545 S
S815 N817 1.610 . S
N816 S815 1.613 1_565 S
N816 C819 1.350 1_565 S
N817 S815 1.610 . S
N817 C818 1.351 . S
C818 C812 1.428 . S
C818 N817 1.351 . S
C818 C819 1.434 . S
C819 C810 1.429 1_545 S
C819 N816 1.350 1_545 S
C819 C818 1.434 . S
C820 C821 1.369 . S
C820 C822 1.419 . S
C820 H824 0.930 . S
C821 C820 1.369 . S
C821 C830 1.429 . S
C822 C820 1.419 . S
C822 C823 1.363 1_565 S
C822 H825 0.929 1_565 S
C823 C822 1.363 1_545 S
C823 C829 1.428 . S
H824 C820 0.930 . S
H825 C822 0.929 1_545 S
S826 N827 1.613 . S
S826 N828 1.610 1_565 S
N827 S826 1.613 . S
N827 C830 1.350 . S
N828 S826 1.610 1_545 S
N828 C829 1.351 . S
C829 C823 1.428 . S
C829 N828 1.351 . S
C829 C830 1.434 1_545 S
C830 C821 1.429 . S
C830 N827 1.350 . S
C830 C829 1.434 1_565 S
C831 C832 1.369 . S
C831 C833 1.419 1_545 S
C831 H835 0.930 . S
C832 C831 1.369 . S
C832 C841 1.429 . S
C833 C831 1.419 1_565 S
C833 C834 1.363 . S
C833 H836 0.929 . S
C834 C833 1.363 . S
C834 C840 1.428 1_565 S
H835 C831 0.930 . S
H836 C833 0.929 . S
S837 N838 1.613 . S
S837 N839 1.610 . S
N838 S837 1.613 . S
N838 C841 1.350 . S
N839 S837 1.610 . S
N839 C840 1.351 . S
C840 C834 1.428 1_545 S
C840 N839 1.351 . S
C840 C841 1.434 . S
C841 C832 1.429 . S
C841 N838 1.350 . S
C841 C840 1.434 . S
C842 C843 1.369 1_545 S
C842 C844 1.419 . S
C842 H846 0.930 . S
C843 C842 1.369 1_565 S
C843 C852 1.429 . S
C844 C842 1.419 . S
C844 C845 1.363 . S
C844 H847 0.929 . S
C845 C844 1.363 . S
C845 C851 1.428 . S
H846 C842 0.930 . S
H847 C844 0.929 . S
S848 N849 1.613 1_545 S
S848 N850 1.610 . S
N849 S848 1.613 1_565 S
N849 C852 1.350 . S
N850 S848 1.610 . S
N850 C851 1.351 . S
C851 C845 1.428 . S
C851 N850 1.351 . S
C851 C852 1.434 1_545 S
C852 C843 1.429 . S
C852 N849 1.350 . S
C852 C851 1.434 1_565 S
C853 C854 1.369 . S
C853 C855 1.419 . S
C853 H857 0.930 . S
C854 C853 1.369 . S
C854 C863 1.429 . S
C855 C853 1.419 . S
C855 C856 1.363 1_565 S
C855 H858 0.929 1_565 S
C856 C855 1.363 1_545 S
C856 C862 1.428 1_545 S
H857 C853 0.930 . S
H858 C855 0.929 1_545 S
S859 N860 1.613 . S
S859 N861 1.610 1_565 S
N860 S859 1.613 . S
N860 C863 1.350 . S
N861 S859 1.610 1_545 S
N861 C862 1.351 1_545 S
C862 C856 1.428 1_565 S
C862 N861 1.351 1_565 S
C862 C863 1.434 . S
C863 C854 1.429 . S
C863 N860 1.350 . S
C863 C862 1.434 . S
C337 C19 1.422 . S
C339 C209 1.429 . S
C348 C41 1.426 . S
C350 C187 1.421 . S
C359 C251 1.429 . S
C361 C61 1.428 . S
C370 C82 1.426 . S
C372 C229 1.421 . S
C381 C292 1.420 . S
C383 C103 1.425 . S
C392 C271 1.422 . S
C394 C124 1.429 . S
C403 C335 1.422 . S
C405 C145 1.423 . S
C414 C166 1.420 . S
C416 C313 1.427 . S
C425 C46 1.314 1_545 S
C427 C4 1.310 1_565 S
C436 C67 1.316 1_565 S
C438 C28 1.303 1_545 S
C447 C130 1.316 1_565 S
C449 C88 1.303 1_545 S
C458 C109 1.313 1_565 S
C460 C151 1.300 1_545 S
C469 C214 1.315 . S
C471 C172 1.302 . S
C480 C238 1.316 . S
C482 C196 1.306 . S
C491 C256 1.316 . S
C493 C298 1.304 . S
C502 C277 1.313 . S
C504 C322 1.301 . S
C513 C112 1.326 . S
C515 C7 1.326 . S
C524 C91 1.323 . S
C526 C25 1.323 . S
C535 C49 1.317 . S
C537 C154 1.319 . S
C546 C133 1.319 . S
C548 C70 1.320 . S
C557 C175 1.328 . S
C559 C280 1.326 . S
C568 C259 1.326 . S
C570 C193 1.325 . S
C579 C217 1.317 . S
C581 C319 1.319 . S
C590 C301 1.330 . S
C592 C235 1.329 . S
C601 C37 1.430 . S
C603 C3 1.430 . S
C612 C66 1.432 . S
C614 C45 1.431 . S
C623 C108 1.440 . S
C625 C87 1.440 . S
C634 C129 1.429 . S
C636 C150 1.432 . S
C645 C205 1.439 . S
C647 C171 1.436 . S
C656 C247 1.432 . S
C658 C213 1.435 . S
C667 C255 1.442 . S
C669 C276 1.441 . S
C678 C297 1.434 . S
C680 C331 1.436 . S
C689 C16 1.313 . S
C691 C20 1.336 . S
C700 C24 1.313 . S
C702 C40 1.336 . S
C711 C58 1.304 . S
C713 C62 1.344 . S
C722 C83 1.337 . S
C724 C79 1.309 . S
C733 C100 1.304 . S
C735 C104 1.341 . S
C744 C125 1.345 . S
C746 C121 1.305 . S
C755 C142 1.314 . S
C757 C146 1.336 . S
C766 C163 1.304 . S
C768 C167 1.344 . S
C777 C188 1.340 . S
C779 C184 1.314 . S
C788 C192 1.304 . S
C790 C208 1.342 . S
C799 C230 1.345 . S
C801 C226 1.305 . S
C810 C250 1.339 . S
C812 C234 1.307 . S
C821 C268 1.305 . S
C823 C272 1.344 . S
C832 C289 1.313 . S
C834 C293 1.336 . S
C843 C314 1.345 . S
C845 C310 1.306 . S
C854 C318 1.316 . S
C856 C334 1.338 . S
