# Generated by pormake.
# Topology ukv, (4)-cn, num edge types: 1
# Building blocks:
#     Node 0, Type 0, BuildingBlock: AZAVOO_clean_sbu_0, # of connection points: 4
#     Node 1, Type 0, BuildingBlock: AZAVOO_clean_sbu_0, # of connection points: 4
#     Node 2, Type 0, BuildingBlock: AZAVOO_clean_sbu_0, # of connection points: 4
#     Node 3, Type 0, BuildingBlock: AZAVOO_clean_sbu_0, # of connection points: 4
#     Node 4, Type 0, BuildingBlock: AZAVOO_clean_sbu_0, # of connection points: 4
#     Node 5, Type 0, BuildingBlock: AZAVOO_clean_sbu_0, # of connection points: 4
#     Node 6, Type 0, BuildingBlock: AZAVOO_clean_sbu_0, # of connection points: 4
#     Node 7, Type 0, BuildingBlock: AZAVOO_clean_sbu_0, # of connection points: 4
#     Node 8, Type 0, BuildingBlock: AZAVOO_clean_sbu_0, # of connection points: 4
#     Node 9, Type 0, BuildingBlock: AZAVOO_clean_sbu_0, # of connection points: 4
#     Node 10, Type 0, BuildingBlock: AZAVOO_clean_sbu_0, # of connection points: 4
#     Node 11, Type 0, BuildingBlock: AZAVOO_clean_sbu_0, # of connection points: 4
#     Node 12, Type 0, BuildingBlock: AZAVOO_clean_sbu_0, # of connection points: 4
#     Node 13, Type 0, BuildingBlock: AZAVOO_clean_sbu_0, # of connection points: 4
#     Node 14, Type 0, BuildingBlock: AZAVOO_clean_sbu_0, # of connection points: 4
#     Node 15, Type 0, BuildingBlock: AZAVOO_clean_sbu_0, # of connection points: 4
#     Node 16, Type 0, BuildingBlock: AZAVOO_clean_sbu_0, # of connection points: 4
#     Node 17, Type 0, BuildingBlock: AZAVOO_clean_sbu_0, # of connection points: 4
#     Node 18, Type 0, BuildingBlock: AZAVOO_clean_sbu_0, # of connection points: 4
#     Node 19, Type 0, BuildingBlock: AZAVOO_clean_sbu_0, # of connection points: 4
#     Node 20, Type 0, BuildingBlock: AZAVOO_clean_sbu_0, # of connection points: 4
#     Node 21, Type 0, BuildingBlock: AZAVOO_clean_sbu_0, # of connection points: 4
#     Node 22, Type 0, BuildingBlock: AZAVOO_clean_sbu_0, # of connection points: 4
#     Node 23, Type 0, BuildingBlock: AZAVOO_clean_sbu_0, # of connection points: 4
#     Node 24, Type 0, BuildingBlock: AZAVOO_clean_sbu_0, # of connection points: 4
#     Node 25, Type 0, BuildingBlock: AZAVOO_clean_sbu_0, # of connection points: 4
#     Node 26, Type 0, BuildingBlock: AZAVOO_clean_sbu_0, # of connection points: 4
#     Node 27, Type 0, BuildingBlock: AZAVOO_clean_sbu_0, # of connection points: 4
#     Node 28, Type 0, BuildingBlock: AZAVOO_clean_sbu_0, # of connection points: 4
#     Node 29, Type 0, BuildingBlock: AZAVOO_clean_sbu_0, # of connection points: 4
#     Node 30, Type 0, BuildingBlock: AZAVOO_clean_sbu_0, # of connection points: 4
#     Node 31, Type 0, BuildingBlock: AZAVOO_clean_sbu_0, # of connection points: 4
#     Node 32, Type 0, BuildingBlock: AZAVOO_clean_sbu_0, # of connection points: 4
#     Node 33, Type 0, BuildingBlock: AZAVOO_clean_sbu_0, # of connection points: 4
#     Node 34, Type 0, BuildingBlock: AZAVOO_clean_sbu_0, # of connection points: 4
#     Node 35, Type 0, BuildingBlock: AZAVOO_clean_sbu_0, # of connection points: 4
#     Edge 36, Type (0, 0), None
#     Edge 37, Type (0, 0), None
#     Edge 38, Type (0, 0), None
#     Edge 39, Type (0, 0), None
#     Edge 40, Type (0, 0), None
#     Edge 41, Type (0, 0), None
#     Edge 42, Type (0, 0), None
#     Edge 43, Type (0, 0), None
#     Edge 44, Type (0, 0), None
#     Edge 45, Type (0, 0), None
#     Edge 46, Type (0, 0), None
#     Edge 47, Type (0, 0), None
#     Edge 48, Type (0, 0), None
#     Edge 49, Type (0, 0), None
#     Edge 50, Type (0, 0), None
#     Edge 51, Type (0, 0), None
#     Edge 52, Type (0, 0), None
#     Edge 53, Type (0, 0), None
#     Edge 54, Type (0, 0), None
#     Edge 55, Type (0, 0), None
#     Edge 56, Type (0, 0), None
#     Edge 57, Type (0, 0), None
#     Edge 58, Type (0, 0), None
#     Edge 59, Type (0, 0), None
#     Edge 60, Type (0, 0), None
#     Edge 61, Type (0, 0), None
#     Edge 62, Type (0, 0), None
#     Edge 63, Type (0, 0), None
#     Edge 64, Type (0, 0), None
#     Edge 65, Type (0, 0), None
#     Edge 66, Type (0, 0), None
#     Edge 67, Type (0, 0), None
#     Edge 68, Type (0, 0), None
#     Edge 69, Type (0, 0), None
#     Edge 70, Type (0, 0), None
#     Edge 71, Type (0, 0), None
#     Edge 72, Type (0, 0), None
#     Edge 73, Type (0, 0), None
#     Edge 74, Type (0, 0), None
#     Edge 75, Type (0, 0), None
#     Edge 76, Type (0, 0), None
#     Edge 77, Type (0, 0), None
#     Edge 78, Type (0, 0), None
#     Edge 79, Type (0, 0), None
#     Edge 80, Type (0, 0), None
#     Edge 81, Type (0, 0), None
#     Edge 82, Type (0, 0), None
#     Edge 83, Type (0, 0), None
#     Edge 84, Type (0, 0), None
#     Edge 85, Type (0, 0), None
#     Edge 86, Type (0, 0), None
#     Edge 87, Type (0, 0), None
#     Edge 88, Type (0, 0), None
#     Edge 89, Type (0, 0), None
#     Edge 90, Type (0, 0), None
#     Edge 91, Type (0, 0), None
#     Edge 92, Type (0, 0), None
#     Edge 93, Type (0, 0), None
#     Edge 94, Type (0, 0), None
#     Edge 95, Type (0, 0), None
#     Edge 96, Type (0, 0), None
#     Edge 97, Type (0, 0), None
#     Edge 98, Type (0, 0), None
#     Edge 99, Type (0, 0), None
#     Edge 100, Type (0, 0), None
#     Edge 101, Type (0, 0), None
#     Edge 102, Type (0, 0), None
#     Edge 103, Type (0, 0), None
#     Edge 104, Type (0, 0), None
#     Edge 105, Type (0, 0), None
#     Edge 106, Type (0, 0), None
#     Edge 107, Type (0, 0), None
# Relax obj value: 0.290
# Max RMSD: 0.192
# Mean RMSD: 0.192
data_MOF--net-ukv--node1-AZAVOO_clean_sbu_0--edge1-none
_symmetry_space_group_name_H-M    P1
_symmetry_Int_Tables_number       1
_symmetry_cell_setting            triclinic
loop_
_symmetry_equiv_pos_as_xyz
'x, y, z'
_cell_length_a     45.237003
_cell_length_b     45.125548
_cell_length_c     8.1727498
_cell_angle_alpha  90.916518
_cell_angle_beta   89.534407
_cell_angle_gamma 120.53231
loop_
_atom_site_label
_atom_site_type_symbol
_atom_site_fract_x
_atom_site_fract_y
_atom_site_fract_z
_atom_type_partial_charge
Mg0 Mg 0.27195 0.081 0.33565 0.0
O1 O 0.25738 0.09685 0.10425 0.0
O2 O 0.21243 0.10225 0.16692 0.0
Mg3 Mg 0.1843 0.06589 0.38266 0.0
C4 C 0.23886 0.10998 0.07992 0.0
C5 C 0.32451 0.08338 0.03045 0.0
O6 O 0.35527 0.08984 0.98857 0.0
O7 O 0.23961 0.02311 0.29242 0.0
O8 O 0.18792 0.01782 0.32372 0.0
O9 O 0.28572 0.13367 0.43268 0.0
O10 O 0.23584 0.08734 0.48074 0.0
C11 C 0.20697 1.00471 0.30286 0.0
C12 C 0.25529 0.11991 0.49443 0.0
O13 O 0.31859 0.08639 0.18209 0.0
Mg14 Mg 0.9392 0.23005 0.34477 0.0
O15 O 0.90705 0.18943 0.15566 0.0
O16 O 0.90819 0.14125 0.20736 0.0
Mg17 Mg 0.95317 0.15527 0.388 0.0
C18 C 0.8955 0.15734 0.13535 0.0
C19 C 0.92722 0.27483 0.05252 0.0
O20 O 0.91831 0.29753 0.01943 0.0
O21 O 0.99093 0.24886 0.21943 0.0
O22 O 0.99023 0.20116 0.23664 0.0
O23 O 0.8933 0.19931 0.50158 0.0
O24 O 0.9363 0.18948 0.49562 0.0
C25 C 1.00271 0.23201 0.2881 0.0
C26 C 0.90543 0.17984 0.53916 0.0
O27 O 0.92845 0.26796 0.20296 0.0
Mg28 Mg 0.81873 0.7245 0.11259 0.0
O29 O 0.84748 0.74066 0.87151 0.0
O30 O 0.89862 0.78544 0.93278 0.0
Mg31 Mg 0.88993 0.81398 0.14917 0.0
C32 C 0.8795 0.7588 0.84575 0.0
C33 C 0.76784 0.66647 0.81913 0.0
O34 O 0.74697 0.63382 0.78469 0.0
O35 O 0.78971 0.75349 0.08442 0.0
O36 O 0.83591 0.8061 0.113 0.0
O37 O 0.85961 0.71386 0.19727 0.0
O38 O 0.86176 0.76283 0.25278 0.0
C39 C 0.80345 0.78611 0.09961 0.0
C40 C 0.87581 0.74448 0.26059 0.0
O41 O 0.77864 0.67501 0.96682 0.0
Mg42 Mg 0.0846 0.2893 0.49119 0.0
O43 O 0.08235 0.2638 0.73152 0.0
O44 O 0.08637 0.21829 0.66309 0.0
Mg45 Mg 0.04653 0.1951 0.45303 0.0
C46 C 0.09524 0.24498 0.75304 0.0
C47 C 0.10017 0.34948 0.785 0.0
O48 O 0.11681 0.38239 0.82219 0.0
O49 O 0.02723 0.27225 0.50126 0.0
O50 O 0.01943 0.22206 0.54897 0.0
O51 O 0.13305 0.28932 0.42433 0.0
O52 O 0.08246 0.24641 0.34687 0.0
C53 C 0.01152 0.24039 0.46391 0.0
C54 C 0.11528 0.25994 0.35016 0.0
O55 O 0.10235 0.34035 0.63838 0.0
Mg56 Mg 0.71118 0.80195 0.04482 0.0
O57 O 0.71804 0.84056 0.24464 0.0
O58 O 0.76653 0.88894 0.1816 0.0
Mg59 Mg 0.796 0.8807 0.97239 0.0
C60 C 0.7386 0.87273 0.26239 0.0
C61 C 0.65842 0.75369 0.35427 0.0
O62 O 0.62975 0.72571 0.39387 0.0
O63 O 0.75006 0.78558 0.11881 0.0
O64 O 0.79834 0.83402 0.05136 0.0
O65 O 0.69237 0.83224 0.9033 0.0
O66 O 0.7452 0.84214 0.88978 0.0
C67 C 0.78254 0.80261 0.09377 0.0
C68 C 0.72377 0.85135 0.8547 0.0
O69 O 0.66604 0.75968 0.202 0.0
Mg70 Mg 0.19015 0.89803 0.18634 0.0
O71 O 0.15042 0.864 0.3738 0.0
O72 O 0.10198 0.86405 0.3231 0.0
Mg73 Mg 0.1119 0.90444 0.12819 0.0
C74 C 0.11845 0.852 0.39535 0.0
C75 C 0.2388 0.88888 0.48105 0.0
O76 O 0.26199 0.88024 0.5081 0.0
O77 O 0.20636 0.95143 0.29258 0.0
O78 O 0.1586 0.95242 0.23129 0.0
O79 O 0.16183 0.85199 0.0239 0.0
O80 O 0.15059 0.89403 0.03033 0.0
C81 C 0.18969 0.96726 0.27973 0.0
C82 C 0.14263 0.864 0.98043 0.0
O83 O 0.23005 0.88952 0.33257 0.0
Mg84 Mg 0.7142 0.92944 0.55433 0.0
O85 O 0.71635 0.89493 0.74362 0.0
O86 O 0.76528 0.89573 0.69238 0.0
Mg87 Mg 0.79855 0.93603 0.50127 0.0
C88 C 0.7362 0.8832 0.76388 0.0
C89 C 0.66221 0.92223 0.86396 0.0
O90 O 0.63276 0.91789 0.91582 0.0
O91 O 0.75236 0.98273 0.66329 0.0
O92 O 0.80188 0.98394 0.61906 0.0
O93 O 0.69582 0.88138 0.40048 0.0
O94 O 0.74942 0.92399 0.40007 0.0
C95 C 0.78517 0.99839 0.66528 0.0
C96 C 0.72741 0.89315 0.35789 0.0
O97 O 0.6681 0.92424 0.70941 0.0
Mg98 Mg 0.06836 0.76991 0.686 0.0
O99 O 0.10097 0.81151 0.868 0.0
O100 O 0.09707 0.85826 0.81752 0.0
Mg101 Mg 0.0507 0.84255 0.64755 0.0
C102 C 0.11122 0.8433 0.88695 0.0
C103 C 0.08573 0.72903 0.97789 0.0
O104 O 0.09704 0.70824 0.01173 0.0
O105 O 0.01771 0.7506 0.82352 0.0
O106 O 0.01798 0.79822 0.8147 0.0
O107 O 0.1126 0.80136 0.52055 0.0
O108 O 0.06833 0.80918 0.53525 0.0
C109 C 0.00523 0.7675 0.7619 0.0
C110 C 0.09908 0.81976 0.48599 0.0
O111 O 0.08262 0.73438 0.82711 0.0
Mg112 Mg 0.18748 0.28492 0.97811 0.0
O113 O 0.16402 0.26319 0.22638 0.0
O114 O 0.11342 0.21859 0.16231 0.0
Mg115 Mg 0.12398 0.1928 0.94075 0.0
C116 C 0.13205 0.24478 0.25239 0.0
C117 C 0.24104 0.34316 0.2634 0.0
O118 O 0.26155 0.37586 0.29883 0.0
O119 O 0.22292 0.26257 0.96159 0.0
O120 O 0.18074 0.20908 0.90346 0.0
O121 O 0.1411 0.28957 0.9175 0.0
O122 O 0.14464 0.24445 0.84272 0.0
C123 C 0.21256 0.23198 0.90937 0.0
C124 C 0.12745 0.25974 0.84555 0.0
O125 O 0.2272 0.33491 0.1212 0.0
Mg126 Mg 0.92309 0.71287 0.58612 0.0
O127 O 0.92121 0.73837 0.35343 0.0
O128 O 0.91997 0.78496 0.4343 0.0
Mg129 Mg 0.96332 0.80726 0.62701 0.0
C130 C 0.90874 0.75789 0.34448 0.0
C131 C 0.90576 0.6536 0.28801 0.0
O132 O 0.88895 0.62089 0.24678 0.0
O133 O 0.97934 0.72822 0.54803 0.0
O134 O 0.9867 0.77849 0.50979 0.0
O135 O 0.87638 0.71377 0.67209 0.0
O136 O 0.92802 0.75637 0.73858 0.0
C137 C 0.99533 0.75986 0.58755 0.0
C138 C 0.89524 0.74325 0.74353 0.0
O139 O 0.9033 0.662 0.43557 0.0
Mg140 Mg 0.28521 0.2011 0.83983 0.0
O141 O 0.26253 0.17241 0.59698 0.0
O142 O 0.21524 0.12371 0.6662 0.0
Mg143 Mg 0.19158 0.14428 0.85095 0.0
C144 C 0.24281 0.13998 0.58243 0.0
C145 C 0.34426 0.24598 0.54672 0.0
O146 O 0.37686 0.26503 0.50892 0.0
O147 O 0.2687 0.24222 0.83704 0.0
O148 O 0.22499 0.1957 0.74498 0.0
O149 O 0.28387 0.15289 0.91384 0.0
O150 O 0.24094 0.16066 0.98075 0.0
C151 C 0.23643 0.22368 0.82455 0.0
C152 C 0.25422 0.14139 0.98197 0.0
O153 O 0.33623 0.23552 0.69445 0.0
Mg154 Mg 0.81337 0.10651 0.84508 0.0
O155 O 0.85311 0.13816 0.65355 0.0
O156 O 0.89911 0.13305 0.69425 0.0
Mg157 Mg 0.88533 0.09013 0.88109 0.0
C158 C 0.88443 0.14761 0.62765 0.0
C159 C 0.76814 0.121 0.55619 0.0
O160 O 0.74673 0.13184 0.52722 0.0
O161 O 0.7915 0.05308 0.72844 0.0
O162 O 0.83635 0.04567 0.76419 0.0
O163 O 0.84565 0.15189 1.00431 0.0
O164 O 0.85244 0.10691 0.99496 0.0
C165 C 0.80529 0.03443 0.72125 0.0
C166 C 0.86335 0.13789 0.04332 0.0
O167 O 0.77605 0.11955 0.70528 0.0
Mg168 Mg 0.96404 0.41546 0.62012 0.0
O169 O 0.95349 0.44741 0.45126 0.0
O170 O 0.90174 0.44125 0.50208 0.0
Mg171 Mg 0.87217 0.39336 0.66333 0.0
C172 C 0.93137 0.45654 0.43417 0.0
C173 C 0.02373 0.43873 0.32344 0.0
O174 O 0.05646 0.45377 0.28803 0.0
O175 O 0.93465 0.36594 0.46811 0.0
O176 O 0.8862 0.36364 0.48331 0.0
O177 O 0.97569 0.45796 0.7966 0.0
O178 O 0.92344 0.41293 0.77734 0.0
C179 C 0.90496 0.35198 0.53082 0.0
C180 C 0.94351 0.44364 0.8321 0.0
O181 O 0.01495 0.4342 0.47463 0.0
Mg182 Mg 0.59258 0.54977 0.73249 0.0
O183 O 0.55935 0.51217 0.53759 0.0
O184 O 0.56081 0.46398 0.57558 0.0
Mg185 Mg 0.6022 0.47352 0.76336 0.0
C186 C 0.54822 0.48055 0.50886 0.0
C187 C 0.58585 0.59647 0.43363 0.0
O188 O 0.58188 0.62217 0.39143 0.0
O189 O 0.64426 0.56695 0.6157 0.0
O190 O 0.6471 0.51901 0.63369 0.0
O191 O 0.54559 0.5189 0.88409 0.0
O192 O 0.58838 0.50877 0.87733 0.0
C193 C 0.65995 0.55043 0.59362 0.0
C194 C 0.55754 0.49915 0.92002 0.0
O195 O 0.58632 0.59059 0.58661 0.0
Mg196 Mg 0.47064 0.0494 0.54334 0.0
O197 O 0.48871 0.07231 0.2944 0.0
O198 O 0.53558 0.12156 0.34952 0.0
Mg199 Mg 0.52368 0.14405 0.57792 0.0
C200 C 0.51948 0.09428 0.26257 0.0
C201 C 0.42281 0.9887 0.25448 0.0
O202 O 0.40508 0.95581 0.21635 0.0
O203 O 0.42889 0.06383 0.56255 0.0
O204 O 0.46545 0.12006 0.60145 0.0
O205 O 0.5227 0.05442 0.59513 0.0
O206 O 0.51097 0.09394 0.67502 0.0
C207 C 0.43505 0.09411 0.59905 0.0
C208 C 0.53243 0.0835 0.66894 0.0
O209 O 0.43568 0.99757 0.39893 0.0
Mg210 Mg 0.76137 0.635 0.37715 0.0
O211 O 0.79499 0.62766 0.5512 0.0
O212 O 0.78945 0.57644 0.49249 0.0
Mg213 Mg 0.74644 0.54695 0.30609 0.0
C214 C 0.8042 0.60559 0.56651 0.0
C215 C 0.77664 0.69201 0.68921 0.0
O216 O 0.7854 0.72363 0.73122 0.0
O217 O 0.71076 0.60032 0.50671 0.0
O218 O 0.70453 0.54843 0.4569 0.0
O219 O 0.80577 0.65011 0.20779 0.0
O220 O 0.7611 0.59751 0.2138 0.0
C221 C 0.6938 0.56754 0.51664 0.0
C222 C 0.79162 0.61812 0.16399 0.0
O223 O 0.77376 0.68396 0.53629 0.0
Mg224 Mg 0.35438 0.1135 0.60239 0.0
O225 O 0.37088 0.14933 0.82763 0.0
O226 O 0.41924 0.19727 0.755 0.0
Mg227 Mg 0.44649 0.17718 0.59243 0.0
C228 C 0.39114 0.1818 0.83565 0.0
C229 C 0.29749 0.07066 0.90355 0.0
O230 O 0.26564 0.04893 0.94549 0.0
O231 O 0.37646 0.07781 0.65195 0.0
O232 O 0.41554 0.1287 0.72555 0.0
O233 O 0.35033 0.15636 0.49211 0.0
O234 O 0.39732 0.15403 0.45453 0.0
C235 C 0.40801 0.09954 0.66839 0.0
C236 C 0.38119 0.17031 0.43552 0.0
O237 O 0.30432 0.07794 0.75148 0.0
Mg238 Mg 0.8936 0.27579 0.63579 0.0
O239 O 0.85846 0.25261 0.84954 0.0
O240 O 0.81067 0.2543 0.79781 0.0
Mg241 Mg 0.8257 0.29952 0.62678 0.0
C242 C 0.82684 0.24193 0.87128 0.0
C243 C 0.93727 0.25964 0.91701 0.0
O244 O 0.95603 0.2459 0.94897 0.0
O245 O 0.9219 0.33047 0.74355 0.0
O246 O 0.87413 0.32919 0.77501 0.0
O247 O 0.85468 0.22826 0.5028 0.0
O248 O 0.85197 0.27562 0.49715 0.0
C249 C 0.90305 0.34248 0.70397 0.0
C250 C 0.83799 0.24328 0.46336 0.0
O251 O 0.92928 0.26037 0.76756 0.0
Mg252 Mg 0.36881 0.24212 0.10835 0.0
O253 O 0.3773 0.21516 0.31789 0.0
O254 O 0.42351 0.21151 0.2581 0.0
Mg255 Mg 0.45305 0.24877 0.04643 0.0
C256 C 0.39613 0.20223 0.3404 0.0
C257 C 0.31826 0.23971 0.42163 0.0
O258 O 0.28906 0.23669 0.46877 0.0
O259 O 0.40668 0.29863 0.17102 0.0
O260 O 0.45575 0.29951 0.11617 0.0
O261 O 0.34966 0.19093 0.98221 0.0
O262 O 0.40241 0.23437 0.95478 0.0
C263 C 0.43919 0.31485 0.14931 0.0
C264 C 0.38043 0.20285 0.92678 0.0
O265 O 0.32406 0.23947 0.26762 0.0
Mg266 Mg 0.7704 0.15684 0.12834 0.0
O267 O 0.79234 0.19199 0.35292 0.0
O268 O 0.79577 0.24143 0.28737 0.0
Mg269 Mg 0.75765 0.23185 0.07927 0.0
C270 C 0.8054 0.22435 0.37185 0.0
C271 C 0.78025 0.10862 0.4176 0.0
O272 O 0.79071 0.08688 0.44569 0.0
O273 O 0.71194 0.13072 0.17205 0.0
O274 O 0.71121 0.17841 0.1113 0.0
O275 O 0.82095 0.19332 0.01576 0.0
O276 O 0.77536 0.19829 0.98447 0.0
C277 C 0.69567 0.14615 0.13643 0.0
C278 C 0.80725 0.21026 0.96102 0.0
O279 O 0.77961 0.11717 0.26918 0.0
Mg280 Mg 0.88117 0.62686 0.85978 0.0
O281 O 0.84204 0.62466 0.04321 0.0
O282 O 0.79279 0.57553 0.99633 0.0
Mg283 Mg 0.8012 0.5433 0.79976 0.0
C284 C 0.81005 0.60493 0.06681 0.0
C285 C 0.92793 0.6791 0.16595 0.0
O286 O 0.95452 0.70816 0.21575 0.0
O287 O 0.8927 0.58807 0.96912 0.0
O288 O 0.84377 0.5382 0.92225 0.0
O289 O 0.85624 0.64714 0.70197 0.0
O290 O 0.84146 0.59229 0.70459 0.0
C291 C 0.87494 0.55525 0.97003 0.0
C292 C 0.83526 0.61552 0.65888 0.0
O293 O 0.92332 0.67291 0.01193 0.0
Mg294 Mg 0.58201 0.0648 0.04893 0.0
O295 O 0.57902 0.08505 0.80159 0.0
O296 O 0.56775 0.12619 0.86116 0.0
Mg297 Mg 0.59814 0.15357 0.09578 0.0
C298 C 0.56374 0.10122 0.77004 0.0
C299 C 0.58454 0.01255 0.7496 0.0
O300 O 0.57767 0.98143 0.70887 0.0
O301 O 0.64125 0.09539 0.07163 0.0
O302 O 0.64439 0.1461 0.10698 0.0
O303 O 0.52725 0.05296 0.10081 0.0
O304 O 0.57271 0.10092 0.18221 0.0
C305 C 0.65835 0.12762 0.10609 0.0
C306 C 0.54015 0.08258 0.17372 0.0
O307 O 0.57907 0.01839 0.89807 0.0
Mg308 Mg 0.95811 0.53501 0.14496 0.0
O309 O 0.95171 0.49438 0.95787 0.0
O310 O 0.90102 0.44646 0.99379 0.0
Mg311 Mg 0.8712 0.45886 0.18774 0.0
C312 C 0.93067 0.4627 0.92769 0.0
C313 C 0.01694 0.58281 0.85391 0.0
O314 O 0.04956 0.60406 0.82525 0.0
O315 O 0.92381 0.55149 0.02949 0.0
O316 O 0.87176 0.50494 0.06763 0.0
O317 O 0.97449 0.50768 0.30699 0.0
O318 O 0.92077 0.49611 0.29577 0.0
C319 C 0.89112 0.53611 0.02367 0.0
C320 C 0.94257 0.48821 0.34602 0.0
O321 O 0.00761 0.57356 1.00182 0.0
Mg322 Mg 0.46623 0.42655 0.22446 0.0
O323 O 0.50505 0.45611 0.02724 0.0
O324 O 0.55207 0.45393 0.08446 0.0
Mg325 Mg 0.54041 0.41391 0.28493 0.0
C326 C 0.53677 0.46679 0.00819 0.0
C327 C 0.42276 0.438 0.91736 0.0
O328 O 0.39948 0.44575 0.87762 0.0
O329 O 0.44495 0.37052 0.14231 0.0
O330 O 0.4907 0.36594 0.20354 0.0
O331 O 0.49899 0.47483 0.36746 0.0
O332 O 0.50549 0.4298 0.37888 0.0
C333 C 0.45922 0.35256 0.16337 0.0
C334 C 0.51649 0.46123 0.41572 0.0
O335 O 0.42782 0.43549 0.06972 0.0
Mg336 Mg 0.6192 0.76571 0.75 0.0
O337 O 0.60259 0.76384 0.482 0.0
O338 O 0.55649 0.76714 0.5054 0.0
Mg339 Mg 0.54958 0.72717 0.6823 0.0
C340 C 0.58557 0.77779 0.44011 0.0
C341 C 0.68225 0.77488 0.48628 0.0
O342 O 0.71538 0.78902 0.46088 0.0
O343 O 0.60264 0.70855 0.82585 0.0
O344 O 0.5478 0.69097 0.87003 0.0
O345 O 0.62087 0.81591 0.76866 0.0
O346 O 0.57603 0.76915 0.86799 0.0
C347 C 0.57391 0.68821 0.89643 0.0
C348 C 0.59233 0.80198 0.84925 0.0
O349 O 0.67184 0.77834 0.62833 0.0
Mg350 Mg 0.24141 0.85488 0.90838 0.0
O351 O 0.21874 0.8188 0.68931 0.0
O352 O 0.22128 0.77183 0.74295 0.0
Mg353 Mg 0.26136 0.78506 0.94767 0.0
C354 C 0.20874 0.78718 0.66481 0.0
C355 C 0.22552 0.89964 0.62101 0.0
O356 O 0.21249 0.9193 0.59425 0.0
O357 O 0.29872 0.88258 0.84256 0.0
O358 O 0.30697 0.8384 0.88715 0.0
O359 O 0.1929 0.81707 0.03056 0.0
O360 O 0.24035 0.81506 0.05213 0.0
C361 C 0.3185 0.87022 0.85965 0.0
C362 C 0.20828 0.80137 0.08009 0.0
O363 O 0.22759 0.89176 0.76919 0.0
Mg364 Mg 0.12718 0.37735 0.21433 0.0
O365 O 0.16501 0.37788 0.0292 0.0
O366 O 0.21449 0.42658 0.07987 0.0
Mg367 Mg 0.20817 0.4604 0.27313 0.0
C368 C 0.19707 0.39736 0.00785 0.0
C369 C 0.07855 0.32459 0.91046 0.0
O370 O 0.05117 0.2958 0.86432 0.0
O371 O 0.1174 0.41704 0.09854 0.0
O372 O 0.16711 0.46632 0.14208 0.0
O373 O 0.15244 0.35717 0.37555 0.0
O374 O 0.16749 0.41196 0.36863 0.0
C375 C 0.13612 0.44978 0.09196 0.0
C376 C 0.17371 0.38888 0.41628 0.0
O377 O 0.08408 0.33133 0.06391 0.0
Mg378 Mg 0.4258 0.96624 0.81291 0.0
O379 O 0.45696 0.96187 0.01631 0.0
O380 O 0.46235 0.91653 0.95558 0.0
Mg381 Mg 0.42542 0.88492 0.74347 0.0
C382 C 0.47116 0.94415 0.03732 0.0
C383 C 0.42497 0.01382 0.13408 0.0
O384 O 0.42393 0.04088 0.18706 0.0
O385 O 0.37041 0.92502 0.87693 0.0
O386 O 0.37321 0.87801 0.81409 0.0
O387 O 0.47665 0.98854 0.67993 0.0
O388 O 0.43566 0.93446 0.65495 0.0
C389 C 0.35607 0.89256 0.8509 0.0
C390 C 0.46633 0.95783 0.6242 0.0
O391 O 0.42475 0.00864 0.97893 0.0
Mg392 Mg 0.05646 0.47297 0.89633 0.0
O393 O 0.06342 0.51376 0.08389 0.0
O394 O 0.11477 0.56098 0.05084 0.0
Mg395 Mg 0.14417 0.5473 0.86026 0.0
C396 C 0.08493 0.54526 0.11512 0.0
C397 C 0.9984 0.42691 0.18889 0.0
O398 O 0.96588 0.40615 0.22109 0.0
O399 O 0.08893 0.45479 0.01426 0.0
O400 O 0.1417 0.50072 0.98697 0.0
O401 O 0.04118 0.50121 0.73528 0.0
O402 O 0.09453 0.51155 0.74706 0.0
C403 C 0.12139 0.46956 0.02864 0.0
C404 C 0.07322 0.52022 0.69726 0.0
O405 O 0.00702 0.43537 0.03971 0.0
Mg406 Mg 0.54869 0.591 0.01036 0.0
O407 O 0.51949 0.58515 0.2509 0.0
O408 O 0.47006 0.58072 0.17934 0.0
Mg409 Mg 0.49059 0.62508 0.9968 0.0
C410 C 0.48696 0.57062 0.263 0.0
C411 C 0.59252 0.57728 0.30441 0.0
O412 O 0.61043 0.56281 0.34025 0.0
O413 O 0.58933 0.64971 0.01497 0.0
O414 O 0.54305 0.64675 0.10235 0.0
O415 O 0.50196 0.54231 0.93356 0.0
O416 O 0.50797 0.59245 0.86788 0.0
C417 C 0.57065 0.66312 0.02117 0.0
C418 C 0.48964 0.55941 0.86561 0.0
O419 O 0.58277 0.57542 0.15588 0.0
Mg420 Mg 0.05299 0.59381 0.42222 0.0
O421 O 0.06315 0.56163 0.59219 0.0
O422 O 0.11449 0.5668 0.54072 0.0
Mg423 Mg 0.14452 0.61425 0.37735 0.0
C424 C 0.08495 0.55204 0.60945 0.0
C425 C 0.99229 0.5715 0.71701 0.0
O426 O 0.95946 0.55727 0.74943 0.0
O427 O 0.08375 0.64345 0.57188 0.0
O428 O 0.13197 0.64521 0.55708 0.0
O429 O 0.04044 0.55102 0.24592 0.0
O430 O 0.09312 0.59537 0.26544 0.0
C431 C 0.11344 0.65707 0.50872 0.0
C432 C 0.07259 0.56478 0.21054 0.0
O433 O 1.00181 0.57602 0.56671 0.0
Mg434 Mg 0.43208 0.47999 0.49963 0.0
O435 O 0.4466 0.50996 0.73743 0.0
O436 O 0.44919 0.55945 0.68414 0.0
Mg437 Mg 0.41129 0.54877 0.47367 0.0
C438 C 0.4583 0.54167 0.76673 0.0
C439 C 0.4404 0.43016 0.78563 0.0
O440 O 0.45194 0.40939 0.81665 0.0
O441 O 0.37443 0.45008 0.55514 0.0
O442 O 0.36681 0.49523 0.54258 0.0
O443 O 0.48324 0.52213 0.40369 0.0
O444 O 0.43539 0.52223 0.36215 0.0
C445 C 0.35509 0.46308 0.56143 0.0
C446 C 0.46805 0.53744 0.34708 0.0
O447 O 0.44312 0.44123 0.63914 0.0
Mg448 Mg 0.55822 0.98498 0.3129 0.0
O449 O 0.52049 0.96926 0.52737 0.0
O450 O 0.47341 0.92047 0.44635 0.0
Mg451 Mg 0.49314 0.89307 0.28056 0.0
C452 C 0.48816 0.94846 0.53066 0.0
C453 C 0.60046 0.03992 0.62613 0.0
O454 O 0.6242 0.07089 0.67373 0.0
O455 O 0.59059 0.95974 0.3659 0.0
O456 O 0.54016 0.91863 0.43421 0.0
O457 O 0.51737 0.99113 0.18935 0.0
O458 O 0.51891 0.94345 0.15758 0.0
C459 C 0.56973 0.92778 0.37834 0.0
C460 C 0.50325 0.95995 0.13305 0.0
O461 O 0.59453 0.03381 0.47211 0.0
Mg462 Mg 0.24912 0.37119 0.70065 0.0
O463 O 0.2153 0.37798 0.52223 0.0
O464 O 0.21838 0.42772 0.58911 0.0
Mg465 Mg 0.25903 0.45686 0.78709 0.0
C466 C 0.20491 0.39921 0.50983 0.0
C467 C 0.23644 0.31729 0.38431 0.0
O468 O 0.23041 0.28704 0.33242 0.0
O469 O 0.30256 0.40904 0.59239 0.0
O470 O 0.30465 0.4583 0.66226 0.0
O471 O 0.20217 0.35324 0.85871 0.0
O472 O 0.24642 0.40618 0.86659 0.0
C473 C 0.31854 0.44196 0.60342 0.0
C474 C 0.21572 0.3848 0.90942 0.0
O475 O 0.24041 0.32413 0.5382 0.0
Mg476 Mg 0.63039 0.87422 0.26152 0.0
O477 O 0.61063 0.85144 0.00998 0.0
O478 O 0.55848 0.80685 0.05585 0.0
Mg479 Mg 0.5373 0.81321 0.30304 0.0
C480 C 0.58526 0.82264 0.96692 0.0
C481 C 0.68846 0.92738 0.98546 0.0
O482 O 0.72095 0.94785 0.95002 0.0
O483 O 0.60842 0.91038 0.27557 0.0
O484 O 0.55373 0.87035 0.32387 0.0
O485 O 0.63407 0.82647 0.31018 0.0
O486 O 0.58959 0.83098 0.38199 0.0
C487 C 0.57773 0.90174 0.31662 0.0
C488 C 0.60357 0.81255 0.37179 0.0
O489 O 0.68071 0.91404 0.12799 0.0
Mg490 Mg 0.12194 0.73177 0.39674 0.0
O491 O 0.15773 0.75621 0.18443 0.0
O492 O 0.20709 0.75812 0.24324 0.0
Mg493 Mg 0.19309 0.71285 0.4142 0.0
C494 C 0.18991 0.76908 0.16753 0.0
C495 C 0.07557 0.7441 0.11348 0.0
O496 O 0.05557 0.75648 0.08277 0.0
O497 O 0.09586 0.67698 0.29121 0.0
O498 O 0.14489 0.68078 0.2661 0.0
O499 O 0.15846 0.78005 0.53063 0.0
O500 O 0.16427 0.73444 0.53959 0.0
C501 C 0.11564 0.66635 0.33474 0.0
C502 C 0.17651 0.76659 0.57262 0.0
O503 O 0.08461 0.74453 0.2621 0.0
loop_
_geom_bond_atom_site_label_1
_geom_bond_atom_site_label_2
_geom_bond_distance
_geom_bond_site_symmetry_2
_ccdc_geom_bond_type
Mg0 O1 2.028 1_554 S
Mg0 O7 1.986 . S
Mg0 O9 2.114 . S
Mg0 O10 2.251 . S
Mg0 O13 2.010 . S
O1 Mg0 2.028 1_556 S
O1 C4 1.250 . S
O2 Mg3 2.028 1_556 S
O2 C4 1.248 . S
Mg3 O2 2.028 1_554 S
Mg3 O8 2.032 . S
Mg3 O10 2.079 . S
C4 O1 1.250 . S
C4 O2 1.248 . S
C5 O6 1.264 . S
C5 O13 1.249 . S
O6 C5 1.264 . S
O7 Mg0 1.986 . S
O7 C11 1.246 . S
O8 Mg3 2.032 . S
O8 C11 1.259 . S
O9 Mg0 2.114 . S
O9 C12 1.252 . S
O10 Mg0 2.251 . S
O10 Mg3 2.079 . S
O10 C12 1.273 . S
C11 O7 1.246 . S
C11 O8 1.259 . S
C12 O9 1.252 . S
C12 O10 1.273 . S
O13 Mg0 2.010 . S
O13 C5 1.249 . S
Mg14 O15 2.028 1_554 S
Mg14 O21 1.986 . S
Mg14 O23 2.114 . S
Mg14 O24 2.251 . S
Mg14 O27 2.010 . S
O15 Mg14 2.028 1_556 S
O15 C18 1.250 . S
O16 Mg17 2.028 1_556 S
O16 C18 1.248 . S
Mg17 O16 2.028 1_554 S
Mg17 O22 2.032 . S
Mg17 O24 2.079 . S
C18 O15 1.250 . S
C18 O16 1.248 . S
C19 O20 1.264 . S
C19 O27 1.249 . S
O20 C19 1.264 . S
O21 Mg14 1.986 . S
O21 C25 1.246 . S
O22 Mg17 2.032 . S
O22 C25 1.259 . S
O23 Mg14 2.114 . S
O23 C26 1.252 . S
O24 Mg14 2.251 . S
O24 Mg17 2.079 . S
O24 C26 1.273 . S
C25 O21 1.246 . S
C25 O22 1.259 . S
C26 O23 1.252 . S
C26 O24 1.273 . S
O27 Mg14 2.010 . S
O27 C19 1.249 . S
Mg28 O29 2.028 1_554 S
Mg28 O35 1.986 . S
Mg28 O37 2.114 . S
Mg28 O38 2.251 . S
Mg28 O41 2.010 . S
O29 Mg28 2.028 1_556 S
O29 C32 1.250 . S
O30 Mg31 2.028 1_556 S
O30 C32 1.248 . S
Mg31 O30 2.028 1_554 S
Mg31 O36 2.032 . S
Mg31 O38 2.079 . S
C32 O29 1.250 . S
C32 O30 1.248 . S
C33 O34 1.264 . S
C33 O41 1.249 . S
O34 C33 1.264 . S
O35 Mg28 1.986 . S
O35 C39 1.246 . S
O36 Mg31 2.032 . S
O36 C39 1.259 . S
O37 Mg28 2.114 . S
O37 C40 1.252 . S
O38 Mg28 2.251 . S
O38 Mg31 2.079 . S
O38 C40 1.273 . S
C39 O35 1.246 . S
C39 O36 1.259 . S
C40 O37 1.252 . S
C40 O38 1.273 . S
O41 Mg28 2.010 . S
O41 C33 1.249 . S
Mg42 O43 2.028 . S
Mg42 O49 1.986 . S
Mg42 O51 2.114 . S
Mg42 O52 2.251 . S
Mg42 O55 2.010 . S
O43 Mg42 2.028 . S
O43 C46 1.250 . S
O44 Mg45 2.028 . S
O44 C46 1.248 . S
Mg45 O44 2.028 . S
Mg45 O50 2.032 . S
Mg45 O52 2.079 . S
C46 O43 1.250 . S
C46 O44 1.248 . S
C47 O48 1.264 . S
C47 O55 1.249 . S
O48 C47 1.264 . S
O49 Mg42 1.986 . S
O49 C53 1.246 . S
O50 Mg45 2.032 . S
O50 C53 1.259 . S
O51 Mg42 2.114 . S
O51 C54 1.252 . S
O52 Mg42 2.251 . S
O52 Mg45 2.079 . S
O52 C54 1.273 . S
C53 O49 1.246 . S
C53 O50 1.259 . S
C54 O51 1.252 . S
C54 O52 1.273 . S
O55 Mg42 2.010 . S
O55 C47 1.249 . S
Mg56 O57 2.028 . S
Mg56 O63 1.986 . S
Mg56 O65 2.114 . S
Mg56 O66 2.251 . S
Mg56 O69 2.010 . S
O57 Mg56 2.028 . S
O57 C60 1.250 . S
O58 Mg59 2.028 . S
O58 C60 1.248 . S
Mg59 O58 2.028 . S
Mg59 O64 2.032 . S
Mg59 O66 2.079 . S
C60 O57 1.250 . S
C60 O58 1.248 . S
C61 O62 1.264 . S
C61 O69 1.249 . S
O62 C61 1.264 . S
O63 Mg56 1.986 . S
O63 C67 1.246 . S
O64 Mg59 2.032 . S
O64 C67 1.259 . S
O65 Mg56 2.114 . S
O65 C68 1.252 . S
O66 Mg56 2.251 . S
O66 Mg59 2.079 . S
O66 C68 1.273 . S
C67 O63 1.246 . S
C67 O64 1.259 . S
C68 O65 1.252 . S
C68 O66 1.273 . S
O69 Mg56 2.010 . S
O69 C61 1.249 . S
Mg70 O71 2.028 . S
Mg70 O77 1.986 . S
Mg70 O79 2.114 . S
Mg70 O80 2.251 . S
Mg70 O83 2.010 . S
O71 Mg70 2.028 . S
O71 C74 1.250 . S
O72 Mg73 2.028 . S
O72 C74 1.248 . S
Mg73 O72 2.028 . S
Mg73 O78 2.032 . S
Mg73 O80 2.079 . S
C74 O71 1.250 . S
C74 O72 1.248 . S
C75 O76 1.264 . S
C75 O83 1.249 . S
O76 C75 1.264 . S
O77 Mg70 1.986 . S
O77 C81 1.246 . S
O78 Mg73 2.032 . S
O78 C81 1.259 . S
O79 Mg70 2.114 . S
O79 C82 1.252 . S
O80 Mg70 2.251 . S
O80 Mg73 2.079 . S
O80 C82 1.273 . S
C81 O77 1.246 . S
C81 O78 1.259 . S
C82 O79 1.252 . S
C82 O80 1.273 . S
O83 Mg70 2.010 . S
O83 C75 1.249 . S
Mg84 O85 2.028 1_556 S
Mg84 O91 1.986 . S
Mg84 O93 2.114 . S
Mg84 O94 2.251 . S
Mg84 O97 2.010 . S
O85 Mg84 2.028 1_554 S
O85 C88 1.250 . S
O86 Mg87 2.028 1_554 S
O86 C88 1.248 . S
Mg87 O86 2.028 1_556 S
Mg87 O92 2.032 . S
Mg87 O94 2.079 . S
C88 O85 1.250 . S
C88 O86 1.248 . S
C89 O90 1.264 . S
C89 O97 1.249 . S
O90 C89 1.264 . S
O91 Mg84 1.986 . S
O91 C95 1.246 . S
O92 Mg87 2.032 . S
O92 C95 1.259 . S
O93 Mg84 2.114 . S
O93 C96 1.252 . S
O94 Mg84 2.251 . S
O94 Mg87 2.079 . S
O94 C96 1.273 . S
C95 O91 1.246 . S
C95 O92 1.259 . S
C96 O93 1.252 . S
C96 O94 1.273 . S
O97 Mg84 2.010 . S
O97 C89 1.249 . S
Mg98 O99 2.028 1_556 S
Mg98 O105 1.986 . S
Mg98 O107 2.114 . S
Mg98 O108 2.251 . S
Mg98 O111 2.010 . S
O99 Mg98 2.028 1_554 S
O99 C102 1.250 . S
O100 Mg101 2.028 1_554 S
O100 C102 1.248 . S
Mg101 O100 2.028 1_556 S
Mg101 O106 2.032 . S
Mg101 O108 2.079 . S
C102 O99 1.250 . S
C102 O100 1.248 . S
C103 O104 1.264 . S
C103 O111 1.249 . S
O104 C103 1.264 . S
O105 Mg98 1.986 . S
O105 C109 1.246 . S
O106 Mg101 2.032 . S
O106 C109 1.259 . S
O107 Mg98 2.114 . S
O107 C110 1.252 . S
O108 Mg98 2.251 . S
O108 Mg101 2.079 . S
O108 C110 1.273 . S
C109 O105 1.246 . S
C109 O106 1.259 . S
C110 O107 1.252 . S
C110 O108 1.273 . S
O111 Mg98 2.010 . S
O111 C103 1.249 . S
Mg112 O113 2.028 1_556 S
Mg112 O119 1.986 . S
Mg112 O121 2.114 . S
Mg112 O122 2.251 . S
Mg112 O125 2.010 . S
O113 Mg112 2.028 1_554 S
O113 C116 1.250 . S
O114 Mg115 2.028 1_554 S
O114 C116 1.248 . S
Mg115 O114 2.028 1_556 S
Mg115 O120 2.032 . S
Mg115 O122 2.079 . S
C116 O113 1.250 . S
C116 O114 1.248 . S
C117 O118 1.264 . S
C117 O125 1.249 . S
O118 C117 1.264 . S
O119 Mg112 1.986 . S
O119 C123 1.246 . S
O120 Mg115 2.032 . S
O120 C123 1.259 . S
O121 Mg112 2.114 . S
O121 C124 1.252 . S
O122 Mg112 2.251 . S
O122 Mg115 2.079 . S
O122 C124 1.273 . S
C123 O119 1.246 . S
C123 O120 1.259 . S
C124 O121 1.252 . S
C124 O122 1.273 . S
O125 Mg112 2.010 . S
O125 C117 1.249 . S
Mg126 O127 2.028 . S
Mg126 O133 1.986 . S
Mg126 O135 2.114 . S
Mg126 O136 2.251 . S
Mg126 O139 2.010 . S
O127 Mg126 2.028 . S
O127 C130 1.250 . S
O128 Mg129 2.028 . S
O128 C130 1.248 . S
Mg129 O128 2.028 . S
Mg129 O134 2.032 . S
Mg129 O136 2.079 . S
C130 O127 1.250 . S
C130 O128 1.248 . S
C131 O132 1.264 . S
C131 O139 1.249 . S
O132 C131 1.264 . S
O133 Mg126 1.986 . S
O133 C137 1.246 . S
O134 Mg129 2.032 . S
O134 C137 1.259 . S
O135 Mg126 2.114 . S
O135 C138 1.252 . S
O136 Mg126 2.251 . S
O136 Mg129 2.079 . S
O136 C138 1.273 . S
C137 O133 1.246 . S
C137 O134 1.259 . S
C138 O135 1.252 . S
C138 O136 1.273 . S
O139 Mg126 2.010 . S
O139 C131 1.249 . S
Mg140 O141 2.028 . S
Mg140 O147 1.986 . S
Mg140 O149 2.114 . S
Mg140 O150 2.251 . S
Mg140 O153 2.010 . S
O141 Mg140 2.028 . S
O141 C144 1.250 . S
O142 Mg143 2.028 . S
O142 C144 1.248 . S
Mg143 O142 2.028 . S
Mg143 O148 2.032 . S
Mg143 O150 2.079 . S
C144 O141 1.250 . S
C144 O142 1.248 . S
C145 O146 1.264 . S
C145 O153 1.249 . S
O146 C145 1.264 . S
O147 Mg140 1.986 . S
O147 C151 1.246 . S
O148 Mg143 2.032 . S
O148 C151 1.259 . S
O149 Mg140 2.114 . S
O149 C152 1.252 . S
O150 Mg140 2.251 . S
O150 Mg143 2.079 . S
O150 C152 1.273 . S
C151 O147 1.246 . S
C151 O148 1.259 . S
C152 O149 1.252 . S
C152 O150 1.273 . S
O153 Mg140 2.010 . S
O153 C145 1.249 . S
Mg154 O155 2.028 . S
Mg154 O161 1.986 . S
Mg154 O163 2.114 . S
Mg154 O164 2.251 . S
Mg154 O167 2.010 . S
O155 Mg154 2.028 . S
O155 C158 1.250 . S
O156 Mg157 2.028 . S
O156 C158 1.248 . S
Mg157 O156 2.028 . S
Mg157 O162 2.032 . S
Mg157 O164 2.079 . S
C158 O155 1.250 . S
C158 O156 1.248 . S
C159 O160 1.264 . S
C159 O167 1.249 . S
O160 C159 1.264 . S
O161 Mg154 1.986 . S
O161 C165 1.246 . S
O162 Mg157 2.032 . S
O162 C165 1.259 . S
O163 Mg154 2.114 . S
O163 C166 1.252 . S
O164 Mg154 2.251 . S
O164 Mg157 2.079 . S
O164 C166 1.273 . S
C165 O161 1.246 . S
C165 O162 1.259 . S
C166 O163 1.252 . S
C166 O164 1.273 . S
O167 Mg154 2.010 . S
O167 C159 1.249 . S
Mg168 O169 2.028 . S
Mg168 O175 1.986 . S
Mg168 O177 2.114 . S
Mg168 O178 2.251 . S
Mg168 O181 2.010 . S
O169 Mg168 2.028 . S
O169 C172 1.250 . S
O170 Mg171 2.028 . S
O170 C172 1.248 . S
Mg171 O170 2.028 . S
Mg171 O176 2.032 . S
Mg171 O178 2.079 . S
C172 O169 1.250 . S
C172 O170 1.248 . S
C173 O174 1.236 1_655 S
C173 O181 1.278 . S
O174 C173 1.236 1_455 S
O175 Mg168 1.986 . S
O175 C179 1.246 . S
O176 Mg171 2.032 . S
O176 C179 1.259 . S
O177 Mg168 2.114 . S
O177 C180 1.252 . S
O178 Mg168 2.251 . S
O178 Mg171 2.079 . S
O178 C180 1.273 . S
C179 O175 1.246 . S
C179 O176 1.259 . S
C180 O177 1.252 . S
C180 O178 1.273 . S
O181 Mg168 2.010 . S
O181 C173 1.278 . S
Mg182 O183 2.028 . S
Mg182 O189 1.986 . S
Mg182 O191 2.114 . S
Mg182 O192 2.251 . S
Mg182 O195 2.010 . S
O183 Mg182 2.028 . S
O183 C186 1.250 . S
O184 Mg185 2.028 . S
O184 C186 1.248 . S
Mg185 O184 2.028 . S
Mg185 O190 2.032 . S
Mg185 O192 2.079 . S
C186 O183 1.250 . S
C186 O184 1.248 . S
C187 O188 1.264 . S
C187 O195 1.249 . S
O188 C187 1.264 . S
O189 Mg182 1.986 . S
O189 C193 1.246 . S
O190 Mg185 2.032 . S
O190 C193 1.259 . S
O191 Mg182 2.114 . S
O191 C194 1.252 . S
O192 Mg182 2.251 . S
O192 Mg185 2.079 . S
O192 C194 1.273 . S
C193 O189 1.246 . S
C193 O190 1.259 . S
C194 O191 1.252 . S
C194 O192 1.273 . S
O195 Mg182 2.010 . S
O195 C187 1.249 . S
Mg196 O197 2.028 . S
Mg196 O203 1.986 . S
Mg196 O205 2.114 . S
Mg196 O206 2.251 . S
Mg196 O209 2.010 . S
O197 Mg196 2.028 . S
O197 C200 1.250 . S
O198 Mg199 2.028 . S
O198 C200 1.248 . S
Mg199 O198 2.028 . S
Mg199 O204 2.032 . S
Mg199 O206 2.079 . S
C200 O197 1.250 . S
C200 O198 1.248 . S
C201 O202 1.249 1_545 S
C201 O209 1.277 . S
O202 C201 1.249 1_565 S
O203 Mg196 1.986 . S
O203 C207 1.246 . S
O204 Mg199 2.032 . S
O204 C207 1.259 . S
O205 Mg196 2.114 . S
O205 C208 1.252 . S
O206 Mg196 2.251 . S
O206 Mg199 2.079 . S
O206 C208 1.273 . S
C207 O203 1.246 . S
C207 O204 1.259 . S
C208 O205 1.252 . S
C208 O206 1.273 . S
O209 Mg196 2.010 . S
O209 C201 1.277 . S
Mg210 O211 2.028 . S
Mg210 O217 1.986 . S
Mg210 O219 2.114 . S
Mg210 O220 2.251 . S
Mg210 O223 2.010 . S
O211 Mg210 2.028 . S
O211 C214 1.250 . S
O212 Mg213 2.028 . S
O212 C214 1.248 . S
Mg213 O212 2.028 . S
Mg213 O218 2.032 . S
Mg213 O220 2.079 . S
C214 O211 1.250 . S
C214 O212 1.248 . S
C215 O216 1.264 . S
C215 O223 1.249 . S
O216 C215 1.264 . S
O217 Mg210 1.986 . S
O217 C221 1.246 . S
O218 Mg213 2.032 . S
O218 C221 1.259 . S
O219 Mg210 2.114 . S
O219 C222 1.252 . S
O220 Mg210 2.251 . S
O220 Mg213 2.079 . S
O220 C222 1.273 . S
C221 O217 1.246 . S
C221 O218 1.259 . S
C222 O219 1.252 . S
C222 O220 1.273 . S
O223 Mg210 2.010 . S
O223 C215 1.249 . S
Mg224 O225 2.028 . S
Mg224 O231 1.986 . S
Mg224 O233 2.114 . S
Mg224 O234 2.251 . S
Mg224 O237 2.010 . S
O225 Mg224 2.028 . S
O225 C228 1.250 . S
O226 Mg227 2.028 . S
O226 C228 1.248 . S
Mg227 O226 2.028 . S
Mg227 O232 2.032 . S
Mg227 O234 2.079 . S
C228 O225 1.250 . S
C228 O226 1.248 . S
C229 O230 1.264 . S
C229 O237 1.249 . S
O230 C229 1.264 . S
O231 Mg224 1.986 . S
O231 C235 1.246 . S
O232 Mg227 2.032 . S
O232 C235 1.259 . S
O233 Mg224 2.114 . S
O233 C236 1.252 . S
O234 Mg224 2.251 . S
O234 Mg227 2.079 . S
O234 C236 1.273 . S
C235 O231 1.246 . S
C235 O232 1.259 . S
C236 O233 1.252 . S
C236 O234 1.273 . S
O237 Mg224 2.010 . S
O237 C229 1.249 . S
Mg238 O239 2.028 . S
Mg238 O245 1.986 . S
Mg238 O247 2.114 . S
Mg238 O248 2.251 . S
Mg238 O251 2.010 . S
O239 Mg238 2.028 . S
O239 C242 1.250 . S
O240 Mg241 2.028 . S
O240 C242 1.248 . S
Mg241 O240 2.028 . S
Mg241 O246 2.032 . S
Mg241 O248 2.079 . S
C242 O239 1.250 . S
C242 O240 1.248 . S
C243 O244 1.264 . S
C243 O251 1.249 . S
O244 C243 1.264 . S
O245 Mg238 1.986 . S
O245 C249 1.246 . S
O246 Mg241 2.032 . S
O246 C249 1.259 . S
O247 Mg238 2.114 . S
O247 C250 1.252 . S
O248 Mg238 2.251 . S
O248 Mg241 2.079 . S
O248 C250 1.273 . S
C249 O245 1.246 . S
C249 O246 1.259 . S
C250 O247 1.252 . S
C250 O248 1.273 . S
O251 Mg238 2.010 . S
O251 C243 1.249 . S
Mg252 O253 2.028 . S
Mg252 O259 1.986 . S
Mg252 O261 2.114 . S
Mg252 O262 2.251 . S
Mg252 O265 2.010 . S
O253 Mg252 2.028 . S
O253 C256 1.250 . S
O254 Mg255 2.028 . S
O254 C256 1.248 . S
Mg255 O254 2.028 . S
Mg255 O260 2.032 . S
Mg255 O262 2.079 . S
C256 O253 1.250 . S
C256 O254 1.248 . S
C257 O258 1.264 . S
C257 O265 1.249 . S
O258 C257 1.264 . S
O259 Mg252 1.986 . S
O259 C263 1.246 . S
O260 Mg255 2.032 . S
O260 C263 1.259 . S
O261 Mg252 2.114 . S
O261 C264 1.252 1_554 S
O262 Mg252 2.251 . S
O262 Mg255 2.079 . S
O262 C264 1.273 1_554 S
C263 O259 1.246 . S
C263 O260 1.259 . S
C264 O261 1.252 1_556 S
C264 O262 1.273 1_556 S
O265 Mg252 2.010 . S
O265 C257 1.249 . S
Mg266 O267 2.028 . S
Mg266 O273 1.986 . S
Mg266 O275 2.114 . S
Mg266 O276 2.251 . S
Mg266 O279 2.010 . S
O267 Mg266 2.028 . S
O267 C270 1.250 . S
O268 Mg269 2.028 . S
O268 C270 1.248 . S
Mg269 O268 2.028 . S
Mg269 O274 2.032 . S
Mg269 O276 2.079 . S
C270 O267 1.250 . S
C270 O268 1.248 . S
C271 O272 1.264 . S
C271 O279 1.249 . S
O272 C271 1.264 . S
O273 Mg266 1.986 . S
O273 C277 1.246 . S
O274 Mg269 2.032 . S
O274 C277 1.259 . S
O275 Mg266 2.114 . S
O275 C278 1.252 1_554 S
O276 Mg266 2.251 . S
O276 Mg269 2.079 . S
O276 C278 1.273 1_554 S
C277 O273 1.246 . S
C277 O274 1.259 . S
C278 O275 1.252 1_556 S
C278 O276 1.273 1_556 S
O279 Mg266 2.010 . S
O279 C271 1.249 . S
Mg280 O281 2.028 . S
Mg280 O287 1.986 . S
Mg280 O289 2.114 . S
Mg280 O290 2.251 . S
Mg280 O293 2.010 . S
O281 Mg280 2.028 . S
O281 C284 1.250 . S
O282 Mg283 2.028 . S
O282 C284 1.248 . S
Mg283 O282 2.028 . S
Mg283 O288 2.032 . S
Mg283 O290 2.079 . S
C284 O281 1.250 . S
C284 O282 1.248 . S
C285 O286 1.264 . S
C285 O293 1.249 . S
O286 C285 1.264 . S
O287 Mg280 1.986 . S
O287 C291 1.246 . S
O288 Mg283 2.032 . S
O288 C291 1.259 . S
O289 Mg280 2.114 . S
O289 C292 1.252 1_554 S
O290 Mg280 2.251 . S
O290 Mg283 2.079 . S
O290 C292 1.273 1_554 S
C291 O287 1.246 . S
C291 O288 1.259 . S
C292 O289 1.252 1_556 S
C292 O290 1.273 1_556 S
O293 Mg280 2.010 . S
O293 C285 1.249 . S
Mg294 O295 2.028 1_554 S
Mg294 O301 1.986 1_554 S
Mg294 O303 2.114 . S
Mg294 O304 2.251 . S
Mg294 O307 2.010 1_554 S
O295 Mg294 2.028 1_556 S
O295 C298 1.250 . S
O296 Mg297 2.028 1_556 S
O296 C298 1.248 . S
Mg297 O296 2.028 1_554 S
Mg297 O302 2.032 . S
Mg297 O304 2.079 . S
C298 O295 1.250 . S
C298 O296 1.248 . S
C299 O300 1.236 1_545 S
C299 O307 1.279 . S
O300 C299 1.236 1_565 S
O301 Mg294 1.986 1_556 S
O301 C305 1.246 . S
O302 Mg297 2.032 . S
O302 C305 1.259 1_554 S
O303 Mg294 2.114 . S
O303 C306 1.252 . S
O304 Mg294 2.251 . S
O304 Mg297 2.079 . S
O304 C306 1.273 . S
C305 O301 1.246 . S
C305 O302 1.259 1_556 S
C306 O303 1.252 . S
C306 O304 1.273 . S
O307 Mg294 2.010 1_556 S
O307 C299 1.279 . S
Mg308 O309 2.028 1_554 S
Mg308 O315 1.986 1_554 S
Mg308 O317 2.114 . S
Mg308 O318 2.251 . S
Mg308 O321 2.010 1_554 S
O309 Mg308 2.028 1_556 S
O309 C312 1.250 . S
O310 Mg311 2.028 1_556 S
O310 C312 1.248 . S
Mg311 O310 2.028 1_554 S
Mg311 O316 2.032 . S
Mg311 O318 2.079 . S
C312 O309 1.250 . S
C312 O310 1.248 . S
C313 O314 1.248 1_655 S
C313 O321 1.277 . S
O314 C313 1.248 1_455 S
O315 Mg308 1.986 1_556 S
O315 C319 1.246 . S
O316 Mg311 2.032 . S
O316 C319 1.259 1_554 S
O317 Mg308 2.114 . S
O317 C320 1.252 . S
O318 Mg308 2.251 . S
O318 Mg311 2.079 . S
O318 C320 1.273 . S
C319 O315 1.246 . S
C319 O316 1.259 1_556 S
C320 O317 1.252 . S
C320 O318 1.273 . S
O321 Mg308 2.010 1_556 S
O321 C313 1.277 . S
Mg322 O323 2.028 1_554 S
Mg322 O329 1.986 1_554 S
Mg322 O331 2.114 . S
Mg322 O332 2.251 . S
Mg322 O335 2.010 1_554 S
O323 Mg322 2.028 1_556 S
O323 C326 1.250 . S
O324 Mg325 2.028 1_556 S
O324 C326 1.248 . S
Mg325 O324 2.028 1_554 S
Mg325 O330 2.032 . S
Mg325 O332 2.079 . S
C326 O323 1.250 . S
C326 O324 1.248 . S
C327 O328 1.264 . S
C327 O335 1.249 . S
O328 C327 1.264 . S
O329 Mg322 1.986 1_556 S
O329 C333 1.246 . S
O330 Mg325 2.032 . S
O330 C333 1.259 1_554 S
O331 Mg322 2.114 . S
O331 C334 1.252 . S
O332 Mg322 2.251 . S
O332 Mg325 2.079 . S
O332 C334 1.273 . S
C333 O329 1.246 . S
C333 O330 1.259 1_556 S
C334 O331 1.252 . S
C334 O332 1.273 . S
O335 Mg322 2.010 1_556 S
O335 C327 1.249 . S
Mg336 O337 2.028 . S
Mg336 O343 1.986 . S
Mg336 O345 2.114 . S
Mg336 O346 2.251 . S
Mg336 O349 2.010 . S
O337 Mg336 2.028 . S
O337 C340 1.250 . S
O338 Mg339 2.028 . S
O338 C340 1.248 . S
Mg339 O338 2.028 . S
Mg339 O344 2.032 . S
Mg339 O346 2.079 . S
C340 O337 1.250 . S
C340 O338 1.248 . S
C341 O342 1.264 . S
C341 O349 1.249 . S
O342 C341 1.264 . S
O343 Mg336 1.986 . S
O343 C347 1.246 . S
O344 Mg339 2.032 . S
O344 C347 1.259 . S
O345 Mg336 2.114 . S
O345 C348 1.252 1_556 S
O346 Mg336 2.251 . S
O346 Mg339 2.079 . S
O346 C348 1.273 1_556 S
C347 O343 1.246 . S
C347 O344 1.259 . S
C348 O345 1.252 1_554 S
C348 O346 1.273 1_554 S
O349 Mg336 2.010 . S
O349 C341 1.249 . S
Mg350 O351 2.028 . S
Mg350 O357 1.986 . S
Mg350 O359 2.114 . S
Mg350 O360 2.251 . S
Mg350 O363 2.010 . S
O351 Mg350 2.028 . S
O351 C354 1.250 . S
O352 Mg353 2.028 . S
O352 C354 1.248 . S
Mg353 O352 2.028 . S
Mg353 O358 2.032 . S
Mg353 O360 2.079 . S
C354 O351 1.250 . S
C354 O352 1.248 . S
C355 O356 1.264 . S
C355 O363 1.249 . S
O356 C355 1.264 . S
O357 Mg350 1.986 . S
O357 C361 1.246 . S
O358 Mg353 2.032 . S
O358 C361 1.259 . S
O359 Mg350 2.114 . S
O359 C362 1.252 1_556 S
O360 Mg350 2.251 . S
O360 Mg353 2.079 . S
O360 C362 1.273 1_556 S
C361 O357 1.246 . S
C361 O358 1.259 . S
C362 O359 1.252 1_554 S
C362 O360 1.273 1_554 S
O363 Mg350 2.010 . S
O363 C355 1.249 . S
Mg364 O365 2.028 . S
Mg364 O371 1.986 . S
Mg364 O373 2.114 . S
Mg364 O374 2.251 . S
Mg364 O377 2.010 . S
O365 Mg364 2.028 . S
O365 C368 1.250 . S
O366 Mg367 2.028 . S
O366 C368 1.248 . S
Mg367 O366 2.028 . S
Mg367 O372 2.032 . S
Mg367 O374 2.079 . S
C368 O365 1.250 . S
C368 O366 1.248 . S
C369 O370 1.264 . S
C369 O377 1.249 . S
O370 C369 1.264 . S
O371 Mg364 1.986 . S
O371 C375 1.246 . S
O372 Mg367 2.032 . S
O372 C375 1.259 . S
O373 Mg364 2.114 . S
O373 C376 1.252 1_556 S
O374 Mg364 2.251 . S
O374 Mg367 2.079 . S
O374 C376 1.273 1_556 S
C375 O371 1.246 . S
C375 O372 1.259 . S
C376 O373 1.252 1_554 S
C376 O374 1.273 1_554 S
O377 Mg364 2.010 . S
O377 C369 1.249 . S
Mg378 O379 2.028 1_556 S
Mg378 O385 1.986 1_556 S
Mg378 O387 2.114 . S
Mg378 O388 2.251 . S
Mg378 O391 2.010 1_556 S
O379 Mg378 2.028 1_554 S
O379 C382 1.250 . S
O380 Mg381 2.028 1_554 S
O380 C382 1.248 . S
Mg381 O380 2.028 1_556 S
Mg381 O386 2.032 . S
Mg381 O388 2.079 . S
C382 O379 1.250 . S
C382 O380 1.248 . S
C383 O384 1.235 1_565 S
C383 O391 1.279 . S
O384 C383 1.235 1_545 S
O385 Mg378 1.986 1_554 S
O385 C389 1.246 . S
O386 Mg381 2.032 . S
O386 C389 1.259 1_556 S
O387 Mg378 2.114 . S
O387 C390 1.252 . S
O388 Mg378 2.251 . S
O388 Mg381 2.079 . S
O388 C390 1.273 . S
C389 O385 1.246 . S
C389 O386 1.259 1_554 S
C390 O387 1.252 . S
C390 O388 1.273 . S
O391 Mg378 2.010 1_554 S
O391 C383 1.279 . S
Mg392 O393 2.028 1_556 S
Mg392 O399 1.986 1_556 S
Mg392 O401 2.114 . S
Mg392 O402 2.251 . S
Mg392 O405 2.010 1_556 S
O393 Mg392 2.028 1_554 S
O393 C396 1.250 . S
O394 Mg395 2.028 1_554 S
O394 C396 1.248 . S
Mg395 O394 2.028 1_556 S
Mg395 O400 2.032 . S
Mg395 O402 2.079 . S
C396 O393 1.250 . S
C396 O394 1.248 . S
C397 O398 1.248 1_455 S
C397 O405 1.277 . S
O398 C397 1.248 1_655 S
O399 Mg392 1.986 1_554 S
O399 C403 1.246 . S
O400 Mg395 2.032 . S
O400 C403 1.259 1_556 S
O401 Mg392 2.114 . S
O401 C404 1.252 . S
O402 Mg392 2.251 . S
O402 Mg395 2.079 . S
O402 C404 1.273 . S
C403 O399 1.246 . S
C403 O400 1.259 1_554 S
C404 O401 1.252 . S
C404 O402 1.273 . S
O405 Mg392 2.010 1_554 S
O405 C397 1.277 . S
Mg406 O407 2.028 1_556 S
Mg406 O413 1.986 1_556 S
Mg406 O415 2.114 . S
Mg406 O416 2.251 . S
Mg406 O419 2.010 1_556 S
O407 Mg406 2.028 1_554 S
O407 C410 1.250 . S
O408 Mg409 2.028 1_554 S
O408 C410 1.248 . S
Mg409 O408 2.028 1_556 S
Mg409 O414 2.032 . S
Mg409 O416 2.079 . S
C410 O407 1.250 . S
C410 O408 1.248 . S
C411 O412 1.264 . S
C411 O419 1.249 . S
O412 C411 1.264 . S
O413 Mg406 1.986 1_554 S
O413 C417 1.246 . S
O414 Mg409 2.032 . S
O414 C417 1.259 1_556 S
O415 Mg406 2.114 . S
O415 C418 1.252 . S
O416 Mg406 2.251 . S
O416 Mg409 2.079 . S
O416 C418 1.273 . S
C417 O413 1.246 . S
C417 O414 1.259 1_554 S
C418 O415 1.252 . S
C418 O416 1.273 . S
O419 Mg406 2.010 1_554 S
O419 C411 1.249 . S
Mg420 O421 2.028 . S
Mg420 O427 1.986 . S
Mg420 O429 2.114 . S
Mg420 O430 2.251 . S
Mg420 O433 2.010 . S
O421 Mg420 2.028 . S
O421 C424 1.250 . S
O422 Mg423 2.028 . S
O422 C424 1.248 . S
Mg423 O422 2.028 . S
Mg423 O428 2.032 . S
Mg423 O430 2.079 . S
C424 O421 1.250 . S
C424 O422 1.248 . S
C425 O426 1.236 1_455 S
C425 O433 1.279 . S
O426 C425 1.236 1_655 S
O427 Mg420 1.986 . S
O427 C431 1.246 . S
O428 Mg423 2.032 . S
O428 C431 1.259 . S
O429 Mg420 2.114 . S
O429 C432 1.252 . S
O430 Mg420 2.251 . S
O430 Mg423 2.079 . S
O430 C432 1.273 . S
C431 O427 1.246 . S
C431 O428 1.259 . S
C432 O429 1.252 . S
C432 O430 1.273 . S
O433 Mg420 2.010 . S
O433 C425 1.279 . S
Mg434 O435 2.028 . S
Mg434 O441 1.986 . S
Mg434 O443 2.114 . S
Mg434 O444 2.251 . S
Mg434 O447 2.010 . S
O435 Mg434 2.028 . S
O435 C438 1.250 . S
O436 Mg437 2.028 . S
O436 C438 1.248 . S
Mg437 O436 2.028 . S
Mg437 O442 2.032 . S
Mg437 O444 2.079 . S
C438 O435 1.250 . S
C438 O436 1.248 . S
C439 O440 1.264 . S
C439 O447 1.249 . S
O440 C439 1.264 . S
O441 Mg434 1.986 . S
O441 C445 1.246 . S
O442 Mg437 2.032 . S
O442 C445 1.259 . S
O443 Mg434 2.114 . S
O443 C446 1.252 . S
O444 Mg434 2.251 . S
O444 Mg437 2.079 . S
O444 C446 1.273 . S
C445 O441 1.246 . S
C445 O442 1.259 . S
C446 O443 1.252 . S
C446 O444 1.273 . S
O447 Mg434 2.010 . S
O447 C439 1.249 . S
Mg448 O449 2.028 . S
Mg448 O455 1.986 . S
Mg448 O457 2.114 . S
Mg448 O458 2.251 . S
Mg448 O461 2.010 . S
O449 Mg448 2.028 . S
O449 C452 1.250 . S
O450 Mg451 2.028 . S
O450 C452 1.248 . S
Mg451 O450 2.028 . S
Mg451 O456 2.032 . S
Mg451 O458 2.079 . S
C452 O449 1.250 . S
C452 O450 1.248 . S
C453 O454 1.248 1_565 S
C453 O461 1.277 . S
O454 C453 1.248 1_545 S
O455 Mg448 1.986 . S
O455 C459 1.246 . S
O456 Mg451 2.032 . S
O456 C459 1.259 . S
O457 Mg448 2.114 . S
O457 C460 1.252 . S
O458 Mg448 2.251 . S
O458 Mg451 2.079 . S
O458 C460 1.273 . S
C459 O455 1.246 . S
C459 O456 1.259 . S
C460 O457 1.252 . S
C460 O458 1.273 . S
O461 Mg448 2.010 . S
O461 C453 1.277 . S
Mg462 O463 2.028 . S
Mg462 O469 1.986 . S
Mg462 O471 2.114 . S
Mg462 O472 2.251 . S
Mg462 O475 2.010 . S
O463 Mg462 2.028 . S
O463 C466 1.250 . S
O464 Mg465 2.028 . S
O464 C466 1.248 . S
Mg465 O464 2.028 . S
Mg465 O470 2.032 . S
Mg465 O472 2.079 . S
C466 O463 1.250 . S
C466 O464 1.248 . S
C467 O468 1.264 . S
C467 O475 1.249 . S
O468 C467 1.264 . S
O469 Mg462 1.986 . S
O469 C473 1.246 . S
O470 Mg465 2.032 . S
O470 C473 1.259 . S
O471 Mg462 2.114 . S
O471 C474 1.252 . S
O472 Mg462 2.251 . S
O472 Mg465 2.079 . S
O472 C474 1.273 . S
C473 O469 1.246 . S
C473 O470 1.259 . S
C474 O471 1.252 . S
C474 O472 1.273 . S
O475 Mg462 2.010 . S
O475 C467 1.249 . S
Mg476 O477 2.028 . S
Mg476 O483 1.986 . S
Mg476 O485 2.114 . S
Mg476 O486 2.251 . S
Mg476 O489 2.010 . S
O477 Mg476 2.028 . S
O477 C480 1.250 . S
O478 Mg479 2.028 . S
O478 C480 1.248 . S
Mg479 O478 2.028 . S
Mg479 O484 2.032 . S
Mg479 O486 2.079 . S
C480 O477 1.250 . S
C480 O478 1.248 . S
C481 O482 1.264 . S
C481 O489 1.249 . S
O482 C481 1.264 . S
O483 Mg476 1.986 . S
O483 C487 1.246 . S
O484 Mg479 2.032 . S
O484 C487 1.259 . S
O485 Mg476 2.114 . S
O485 C488 1.252 . S
O486 Mg476 2.251 . S
O486 Mg479 2.079 . S
O486 C488 1.273 . S
C487 O483 1.246 . S
C487 O484 1.259 . S
C488 O485 1.252 . S
C488 O486 1.273 . S
O489 Mg476 2.010 . S
O489 C481 1.249 . S
Mg490 O491 2.028 . S
Mg490 O497 1.986 . S
Mg490 O499 2.114 . S
Mg490 O500 2.251 . S
Mg490 O503 2.010 . S
O491 Mg490 2.028 . S
O491 C494 1.250 . S
O492 Mg493 2.028 . S
O492 C494 1.248 . S
Mg493 O492 2.028 . S
Mg493 O498 2.032 . S
Mg493 O500 2.079 . S
C494 O491 1.250 . S
C494 O492 1.248 . S
C495 O496 1.264 . S
C495 O503 1.249 . S
O496 C495 1.264 . S
O497 Mg490 1.986 . S
O497 C501 1.246 . S
O498 Mg493 2.032 . S
O498 C501 1.259 . S
O499 Mg490 2.114 . S
O499 C502 1.252 . S
O500 Mg490 2.251 . S
O500 Mg493 2.079 . S
O500 C502 1.273 . S
C501 O497 1.246 . S
C501 O498 1.259 . S
C502 O499 1.252 . S
C502 O500 1.273 . S
O503 Mg490 2.010 . S
O503 C495 1.249 . S
C81 C11 1.599 1_565 S
C25 C53 1.599 1_655 S
C67 C39 1.600 . S
C95 C165 1.599 1_565 S
C109 C137 1.600 1_455 S
C151 C123 1.600 . S
C249 C179 1.600 . S
C193 C221 1.599 . S
C235 C207 1.599 . S
C263 C333 1.599 1_554 S
C277 C305 1.600 1_554 S
C291 C319 1.599 1_554 S
C347 C417 1.599 1_556 S
C389 C361 1.600 1_554 S
C375 C403 1.599 1_556 S
C431 C501 1.600 . S
C445 C473 1.599 . S
C459 C487 1.599 . S
C152 C4 1.522 . S
C166 C18 1.522 . S
C138 C32 1.522 . S
C124 C46 1.523 . S
C60 C96 1.523 . S
C74 C110 1.522 . S
C88 C68 1.522 . S
C102 C82 1.522 . S
C116 C54 1.522 . S
C40 C130 1.522 . S
C12 C144 1.523 . S
C158 C26 1.522 . S
C172 C320 1.522 . S
C186 C334 1.522 . S
C306 C200 1.522 . S
C214 C292 1.522 . S
C228 C264 1.522 . S
C242 C278 1.522 . S
C256 C236 1.522 . S
C250 C270 1.523 . S
C222 C284 1.522 . S
C298 C208 1.523 . S
C180 C312 1.522 . S
C194 C326 1.522 . S
C488 C340 1.522 . S
C354 C502 1.523 . S
C368 C474 1.522 . S
C460 C382 1.523 . S
C432 C396 1.522 . S
C446 C410 1.522 . S
C424 C404 1.522 . S
C418 C438 1.522 . S
C452 C390 1.522 . S
C376 C466 1.522 . S
C348 C480 1.522 . S
C362 C494 1.522 . S
C229 C5 2.226 1_556 S
C19 C243 2.226 1_554 S
C215 C33 2.225 1_556 S
C369 C47 2.225 . S
C61 C341 2.226 . S
C75 C355 2.225 . S
C89 C481 2.226 1_556 S
C495 C103 2.226 1_554 S
C467 C117 2.225 1_554 S
C285 C131 2.225 . S
C145 C257 2.226 . S
C159 C271 2.225 . S
C173 C397 2.225 1_655 S
C411 C187 2.225 . S
C383 C201 2.225 1_565 S
C299 C453 2.225 1_545 S
C425 C313 2.225 1_455 S
C439 C327 2.225 . S
