# Generated by pormake.
# Topology uks, (4)-cn, num edge types: 1
# Building blocks:
#     Node 0, Type 0, BuildingBlock: ESEHIV_clean_sbu_0, # of connection points: 4
#     Node 1, Type 0, BuildingBlock: ESEHIV_clean_sbu_0, # of connection points: 4
#     Node 2, Type 0, BuildingBlock: ESEHIV_clean_sbu_0, # of connection points: 4
#     Node 3, Type 0, BuildingBlock: ESEHIV_clean_sbu_0, # of connection points: 4
#     Node 4, Type 0, BuildingBlock: ESEHIV_clean_sbu_0, # of connection points: 4
#     Node 5, Type 0, BuildingBlock: ESEHIV_clean_sbu_0, # of connection points: 4
#     Node 6, Type 0, BuildingBlock: ESEHIV_clean_sbu_0, # of connection points: 4
#     Node 7, Type 0, BuildingBlock: ESEHIV_clean_sbu_0, # of connection points: 4
#     Node 8, Type 0, BuildingBlock: ESEHIV_clean_sbu_0, # of connection points: 4
#     Node 9, Type 0, BuildingBlock: ESEHIV_clean_sbu_0, # of connection points: 4
#     Node 10, Type 0, BuildingBlock: ESEHIV_clean_sbu_0, # of connection points: 4
#     Node 11, Type 0, BuildingBlock: ESEHIV_clean_sbu_0, # of connection points: 4
#     Node 12, Type 0, BuildingBlock: ESEHIV_clean_sbu_0, # of connection points: 4
#     Node 13, Type 0, BuildingBlock: ESEHIV_clean_sbu_0, # of connection points: 4
#     Node 14, Type 0, BuildingBlock: ESEHIV_clean_sbu_0, # of connection points: 4
#     Node 15, Type 0, BuildingBlock: ESEHIV_clean_sbu_0, # of connection points: 4
#     Node 16, Type 0, BuildingBlock: ESEHIV_clean_sbu_0, # of connection points: 4
#     Node 17, Type 0, BuildingBlock: ESEHIV_clean_sbu_0, # of connection points: 4
#     Node 18, Type 0, BuildingBlock: ESEHIV_clean_sbu_0, # of connection points: 4
#     Node 19, Type 0, BuildingBlock: ESEHIV_clean_sbu_0, # of connection points: 4
#     Node 20, Type 0, BuildingBlock: ESEHIV_clean_sbu_0, # of connection points: 4
#     Node 21, Type 0, BuildingBlock: ESEHIV_clean_sbu_0, # of connection points: 4
#     Node 22, Type 0, BuildingBlock: ESEHIV_clean_sbu_0, # of connection points: 4
#     Node 23, Type 0, BuildingBlock: ESEHIV_clean_sbu_0, # of connection points: 4
#     Edge 24, Type (0, 0), BuildingBlock: CIFDUS_clean_linker_0, # of connection points: 2
#     Edge 25, Type (0, 0), BuildingBlock: CIFDUS_clean_linker_0, # of connection points: 2
#     Edge 26, Type (0, 0), BuildingBlock: CIFDUS_clean_linker_0, # of connection points: 2
#     Edge 27, Type (0, 0), BuildingBlock: CIFDUS_clean_linker_0, # of connection points: 2
#     Edge 28, Type (0, 0), BuildingBlock: CIFDUS_clean_linker_0, # of connection points: 2
#     Edge 29, Type (0, 0), BuildingBlock: CIFDUS_clean_linker_0, # of connection points: 2
#     Edge 30, Type (0, 0), BuildingBlock: CIFDUS_clean_linker_0, # of connection points: 2
#     Edge 31, Type (0, 0), BuildingBlock: CIFDUS_clean_linker_0, # of connection points: 2
#     Edge 32, Type (0, 0), BuildingBlock: CIFDUS_clean_linker_0, # of connection points: 2
#     Edge 33, Type (0, 0), BuildingBlock: CIFDUS_clean_linker_0, # of connection points: 2
#     Edge 34, Type (0, 0), BuildingBlock: CIFDUS_clean_linker_0, # of connection points: 2
#     Edge 35, Type (0, 0), BuildingBlock: CIFDUS_clean_linker_0, # of connection points: 2
#     Edge 36, Type (0, 0), BuildingBlock: CIFDUS_clean_linker_0, # of connection points: 2
#     Edge 37, Type (0, 0), BuildingBlock: CIFDUS_clean_linker_0, # of connection points: 2
#     Edge 38, Type (0, 0), BuildingBlock: CIFDUS_clean_linker_0, # of connection points: 2
#     Edge 39, Type (0, 0), BuildingBlock: CIFDUS_clean_linker_0, # of connection points: 2
#     Edge 40, Type (0, 0), BuildingBlock: CIFDUS_clean_linker_0, # of connection points: 2
#     Edge 41, Type (0, 0), BuildingBlock: CIFDUS_clean_linker_0, # of connection points: 2
#     Edge 42, Type (0, 0), BuildingBlock: CIFDUS_clean_linker_0, # of connection points: 2
#     Edge 43, Type (0, 0), BuildingBlock: CIFDUS_clean_linker_0, # of connection points: 2
#     Edge 44, Type (0, 0), BuildingBlock: CIFDUS_clean_linker_0, # of connection points: 2
#     Edge 45, Type (0, 0), BuildingBlock: CIFDUS_clean_linker_0, # of connection points: 2
#     Edge 46, Type (0, 0), BuildingBlock: CIFDUS_clean_linker_0, # of connection points: 2
#     Edge 47, Type (0, 0), BuildingBlock: CIFDUS_clean_linker_0, # of connection points: 2
#     Edge 48, Type (0, 0), BuildingBlock: CIFDUS_clean_linker_0, # of connection points: 2
#     Edge 49, Type (0, 0), BuildingBlock: CIFDUS_clean_linker_0, # of connection points: 2
#     Edge 50, Type (0, 0), BuildingBlock: CIFDUS_clean_linker_0, # of connection points: 2
#     Edge 51, Type (0, 0), BuildingBlock: CIFDUS_clean_linker_0, # of connection points: 2
#     Edge 52, Type (0, 0), BuildingBlock: CIFDUS_clean_linker_0, # of connection points: 2
#     Edge 53, Type (0, 0), BuildingBlock: CIFDUS_clean_linker_0, # of connection points: 2
#     Edge 54, Type (0, 0), BuildingBlock: CIFDUS_clean_linker_0, # of connection points: 2
#     Edge 55, Type (0, 0), BuildingBlock: CIFDUS_clean_linker_0, # of connection points: 2
#     Edge 56, Type (0, 0), BuildingBlock: CIFDUS_clean_linker_0, # of connection points: 2
#     Edge 57, Type (0, 0), BuildingBlock: CIFDUS_clean_linker_0, # of connection points: 2
#     Edge 58, Type (0, 0), BuildingBlock: CIFDUS_clean_linker_0, # of connection points: 2
#     Edge 59, Type (0, 0), BuildingBlock: CIFDUS_clean_linker_0, # of connection points: 2
#     Edge 60, Type (0, 0), BuildingBlock: CIFDUS_clean_linker_0, # of connection points: 2
#     Edge 61, Type (0, 0), BuildingBlock: CIFDUS_clean_linker_0, # of connection points: 2
#     Edge 62, Type (0, 0), BuildingBlock: CIFDUS_clean_linker_0, # of connection points: 2
#     Edge 63, Type (0, 0), BuildingBlock: CIFDUS_clean_linker_0, # of connection points: 2
#     Edge 64, Type (0, 0), BuildingBlock: CIFDUS_clean_linker_0, # of connection points: 2
#     Edge 65, Type (0, 0), BuildingBlock: CIFDUS_clean_linker_0, # of connection points: 2
#     Edge 66, Type (0, 0), BuildingBlock: CIFDUS_clean_linker_0, # of connection points: 2
#     Edge 67, Type (0, 0), BuildingBlock: CIFDUS_clean_linker_0, # of connection points: 2
#     Edge 68, Type (0, 0), BuildingBlock: CIFDUS_clean_linker_0, # of connection points: 2
#     Edge 69, Type (0, 0), BuildingBlock: CIFDUS_clean_linker_0, # of connection points: 2
#     Edge 70, Type (0, 0), BuildingBlock: CIFDUS_clean_linker_0, # of connection points: 2
#     Edge 71, Type (0, 0), BuildingBlock: CIFDUS_clean_linker_0, # of connection points: 2
# Relax obj value: 0.050
# Max RMSD: 0.131
# Mean RMSD: 0.107
data_MOF--net-uks--node1-ESEHIV_clean_sbu_0--edge1-CIFDUS_clean_linker_0
_symmetry_space_group_name_H-M    P1
_symmetry_Int_Tables_number       1
_symmetry_cell_setting            triclinic
loop_
_symmetry_equiv_pos_as_xyz
'x, y, z'
_cell_length_a     45.781441
_cell_length_b     54.488311
_cell_length_c     54.214593
_cell_angle_alpha  89.826105
_cell_angle_beta   90.006287
_cell_angle_gamma 86.195178
loop_
_atom_site_label
_atom_site_type_symbol
_atom_site_fract_x
_atom_site_fract_y
_atom_site_fract_z
_atom_type_partial_charge
Cu0 Cu 0.10838 0.40202 0.72056 0.0
N1 N 0.09713 0.37973 0.74461 0.0
N2 N 0.09262 0.34118 0.75815 0.0
C3 C 0.11037 0.35707 0.74758 0.0
C4 C 0.06743 0.35469 0.76276 0.0
C5 C 0.07019 0.37834 0.75422 0.0
O6 O 0.08658 0.39361 0.69132 0.0
C7 C 0.17104 0.38539 0.71405 0.0
O8 O 0.16388 0.36466 0.70415 0.0
H9 H 0.13161 0.35178 0.73994 0.0
H10 H 0.05267 0.39255 0.75251 0.0
N11 N 0.09633 0.43483 0.72712 0.0
N12 N 0.09348 0.47568 0.72124 0.0
C13 C 0.1051 0.45363 0.71341 0.0
C14 C 0.0784 0.44523 0.74437 0.0
C15 C 0.07654 0.47047 0.74074 0.0
C16 C 0.08422 0.37163 0.6841 0.0
O17 O 0.10314 0.35415 0.69182 0.0
H18 H 0.1195 0.451 0.69768 0.0
H19 H 0.06754 0.43529 0.75859 0.0
O20 O 0.15111 0.40183 0.71972 0.0
H21 H 0.04742 0.34745 0.76942 0.0
H22 H 0.06407 0.48389 0.75185 0.0
Cu23 Cu 0.6262 0.63807 0.26214 0.0
N24 N 0.61096 0.65442 0.29018 0.0
N25 N 0.60332 0.68664 0.31548 0.0
C26 C 0.62092 0.6757 0.29825 0.0
C27 C 0.58125 0.67165 0.31843 0.0
C28 C 0.58606 0.65171 0.30283 0.0
O29 O 0.60219 0.64958 0.23423 0.0
C30 C 0.68226 0.64135 0.27912 0.0
O31 O 0.67009 0.63056 0.29785 0.0
H32 H 0.63964 0.68394 0.29029 0.0
H33 H 0.57159 0.63709 0.29996 0.0
N34 N 0.62716 0.60361 0.26272 0.0
N35 N 0.64032 0.5654 0.24974 0.0
C36 C 0.64281 0.58975 0.24629 0.0
C37 C 0.61399 0.58755 0.2772 0.0
C38 C 0.62204 0.56391 0.26918 0.0
C39 C 0.57602 0.64292 0.23317 0.0
O40 O 0.56705 0.62805 0.25029 0.0
H41 H 0.65556 0.5976 0.23182 0.0
H42 H 0.59964 0.59262 0.29246 0.0
O43 O 0.66679 0.64649 0.25999 0.0
H44 H 0.56249 0.67528 0.33034 0.0
H45 H 0.61537 0.54701 0.27732 0.0
Cu46 Cu 0.38932 0.14879 0.74345 0.0
N47 N 0.39878 0.1628 0.77353 0.0
N48 N 0.39449 0.19108 0.80336 0.0
C49 C 0.38141 0.18061 0.78418 0.0
C50 C 0.42133 0.1793 0.80496 0.0
C51 C 0.42388 0.16172 0.78656 0.0
O52 O 0.41254 0.16389 0.71806 0.0
C53 C 0.3282 0.14253 0.73467 0.0
O54 O 0.33657 0.12227 0.72292 0.0
H55 H 0.36035 0.18712 0.77676 0.0
H56 H 0.44315 0.14999 0.78221 0.0
N57 N 0.39591 0.11446 0.74372 0.0
N58 N 0.39194 0.07579 0.73081 0.0
C59 C 0.39427 0.0995 0.72406 0.0
C60 C 0.39558 0.09965 0.76358 0.0
C61 C 0.39316 0.07581 0.7557 0.0
C62 C 0.44017 0.1589 0.71764 0.0
O63 O 0.45162 0.14222 0.73299 0.0
H64 H 0.39162 0.10628 0.70534 0.0
H65 H 0.39485 0.10599 0.78248 0.0
O66 O 0.34728 0.15714 0.74127 0.0
H67 H 0.43826 0.18372 0.81783 0.0
H68 H 0.39085 0.05997 0.76747 0.0
Cu69 Cu 0.88059 0.92321 0.22515 0.0
N70 N 0.89113 0.9 0.24974 0.0
N71 N 0.90149 0.86206 0.26501 0.0
C72 C 0.90116 0.87671 0.24482 0.0
C73 C 0.89169 0.87703 0.28352 0.0
C74 C 0.88519 0.90036 0.27403 0.0
O75 O 0.90494 0.91303 0.19692 0.0
C76 C 0.82338 0.90497 0.22582 0.0
O77 O 0.83732 0.88335 0.22903 0.0
H78 H 0.90655 0.87047 0.22637 0.0
H79 H 0.8751 0.916 0.28378 0.0
N80 N 0.88818 0.9555 0.23382 0.0
N81 N 0.88582 0.99677 0.2332 0.0
C82 C 0.87775 0.97611 0.22201 0.0
C83 C 0.90346 0.9633 0.25312 0.0
C84 C 0.90206 0.9887 0.2528 0.0
C85 C 0.93242 0.91437 0.20026 0.0
O86 O 0.94122 0.92451 0.22068 0.0
H87 H 0.86371 0.9759 0.20595 0.0
H88 H 0.91457 0.95137 0.26662 0.0
O89 O 0.83809 0.92346 0.22098 0.0
H90 H 0.88762 0.87129 0.30226 0.0
H91 H 0.91219 1.00028 0.26605 0.0
Cu92 Cu 0.12953 0.13999 0.82003 0.0
N93 N 0.11314 0.16006 0.79487 0.0
N94 N 0.09946 0.19644 0.7777 0.0
C95 C 0.10239 0.18334 0.79879 0.0
C96 C 0.10853 0.18066 0.75967 0.0
C97 C 0.11701 0.15821 0.77034 0.0
O98 O 0.1097 0.15049 0.85033 0.0
C99 C 0.18259 0.16431 0.8147 0.0
O100 O 0.16656 0.18505 0.81714 0.0
H101 H 0.09965 0.19123 0.81702 0.0
H102 H 0.12747 0.14239 0.76112 0.0
N103 N 0.12573 0.10618 0.81594 0.0
N104 N 0.1367 0.06583 0.82204 0.0
C105 C 0.14134 0.08901 0.82922 0.0
C106 C 0.1103 0.09356 0.79975 0.0
C107 C 0.11695 0.06863 0.80353 0.0
C108 C 0.08199 0.14989 0.84883 0.0
O109 O 0.07047 0.14174 0.8285 0.0
H110 H 0.15613 0.09367 0.84378 0.0
H111 H 0.09584 0.10186 0.78584 0.0
O112 O 0.17122 0.14395 0.81846 0.0
H113 H 0.11045 0.18537 0.74035 0.0
H114 H 0.10867 0.05384 0.79287 0.0
Cu115 Cu 0.90594 0.65745 0.32968 0.0
N116 N 0.91708 0.68063 0.30646 0.0
N117 N 0.92304 0.71857 0.29205 0.0
C118 C 0.91373 0.70495 0.31095 0.0
C119 C 0.93269 0.70209 0.27484 0.0
C120 C 0.92919 0.67865 0.28386 0.0
O121 O 0.92493 0.66815 0.35961 0.0
C122 C 0.84981 0.6596 0.31058 0.0
O123 O 0.86514 0.65843 0.29008 0.0
H124 H 0.90416 0.71249 0.32778 0.0
H125 H 0.93515 0.66153 0.27458 0.0
N126 N 0.91658 0.62424 0.32222 0.0
N127 N 0.92069 0.58319 0.32716 0.0
C128 C 0.91818 0.60533 0.3385 0.0
C129 C 0.91793 0.6136 0.29983 0.0
C130 C 0.92055 0.58837 0.30281 0.0
C131 C 0.95101 0.66 0.36451 0.0
O132 O 0.96284 0.64147 0.35176 0.0
H133 H 0.91584 0.60773 0.35823 0.0
H134 H 0.91547 0.62336 0.28251 0.0
O135 O 0.86336 0.66008 0.33113 0.0
H136 H 0.94195 0.70661 0.25717 0.0
H137 H 0.92151 0.57488 0.28817 0.0
Cu138 Cu 0.35678 0.399 0.82524 0.0
N139 N 0.34916 0.36831 0.83835 0.0
N140 N 0.35501 0.32761 0.84396 0.0
C141 C 0.36616 0.34768 0.83406 0.0
C142 C 0.32967 0.33589 0.85475 0.0
C143 C 0.32615 0.3611 0.85131 0.0
O144 O 0.39921 0.39815 0.82099 0.0
C145 C 0.30652 0.4116 0.79786 0.0
O146 O 0.29726 0.4182 0.81994 0.0
H147 H 0.38585 0.34731 0.82298 0.0
H148 H 0.30782 0.37319 0.85726 0.0
N149 N 0.34751 0.42502 0.84704 0.0
N150 N 0.34254 0.46349 0.86152 0.0
C151 C 0.34705 0.44917 0.8414 0.0
C152 C 0.34308 0.424 0.87154 0.0
C153 C 0.34004 0.44771 0.88053 0.0
C154 C 0.41367 0.39216 0.8405 0.0
O155 O 0.3992 0.38771 0.86078 0.0
H156 H 0.35084 0.45606 0.82301 0.0
H157 H 0.34279 0.40721 0.88219 0.0
O158 O 0.33298 0.4031 0.7952 0.0
H159 H 0.31464 0.32454 0.86418 0.0
H160 H 0.33629 0.45293 0.89958 0.0
Cu161 Cu 0.6372 0.88995 0.33953 0.0
N162 N 0.64461 0.85921 0.3545 0.0
N163 N 0.64639 0.81824 0.35868 0.0
C164 C 0.63342 0.83812 0.34718 0.0
C165 C 0.66641 0.82722 0.37392 0.0
C166 C 0.66521 0.8525 0.37134 0.0
O167 O 0.59584 0.89035 0.33034 0.0
C168 C 0.6707 0.906 0.29657 0.0
O169 O 0.65629 0.92764 0.29739 0.0
H170 H 0.61751 0.83722 0.33249 0.0
H171 H 0.67936 0.86497 0.38016 0.0
N172 N 0.64461 0.9151 0.36202 0.0
N173 N 0.65918 0.94983 0.37876 0.0
C174 C 0.66015 0.93509 0.35869 0.0
C175 C 0.63406 0.91709 0.38516 0.0
C176 C 0.64276 0.93855 0.39543 0.0
C177 C 0.57513 0.90373 0.34025 0.0
O178 O 0.58145 0.92253 0.35388 0.0
H179 H 0.67158 0.939 0.34183 0.0
H180 H 0.62051 0.904 0.39379 0.0
O181 O 0.66445 0.88924 0.31175 0.0
H182 H 0.68154 0.81622 0.38545 0.0
H183 H 0.63765 0.94523 0.41382 0.0
Cu184 Cu 0.723 0.15364 0.41311 0.0
N185 N 0.75858 0.16693 0.42131 0.0
N186 N 0.79637 0.19127 0.42226 0.0
C187 C 0.77215 0.18508 0.40987 0.0
C188 C 0.79771 0.17631 0.44225 0.0
C189 C 0.77454 0.1615 0.44161 0.0
O190 O 0.69304 0.16952 0.43445 0.0
C191 C 0.73381 0.15124 0.36315 0.0
O192 O 0.75819 0.14035 0.37178 0.0
H193 H 0.76399 0.19373 0.39304 0.0
H194 H 0.76926 0.14808 0.45536 0.0
N195 N 0.72602 0.11928 0.41719 0.0
N196 N 0.7163 0.0797 0.41321 0.0
C197 C 0.70516 0.10335 0.41304 0.0
C198 C 0.75105 0.10516 0.42017 0.0
C199 C 0.74514 0.08082 0.41775 0.0
C200 C 0.692 0.16389 0.45725 0.0
O201 O 0.70959 0.14569 0.46556 0.0
H202 H 0.68268 0.10903 0.40855 0.0
H203 H 0.77242 0.11211 0.42262 0.0
O204 O 0.71453 0.15962 0.3784 0.0
H205 H 0.81368 0.17641 0.45693 0.0
H206 H 0.76095 0.06517 0.4187 0.0
Cu207 Cu 0.87232 0.20167 0.89449 0.0
N208 N 0.86877 0.19236 0.86151 0.0
N209 N 0.87672 0.19246 0.82073 0.0
C210 C 0.88489 0.20086 0.84294 0.0
C211 C 0.85451 0.17803 0.8256 0.0
C212 C 0.8497 0.17796 0.85079 0.0
O213 O 0.91342 0.20838 0.89776 0.0
C214 C 0.8191 0.22969 0.89856 0.0
O215 O 0.80858 0.20809 0.89522 0.0
H216 H 0.90165 0.2137 0.84566 0.0
H217 H 0.83315 0.16848 0.86053 0.0
N218 N 0.86178 0.17703 0.91637 0.0
N219 N 0.84625 0.15861 0.95044 0.0
C220 C 0.84895 0.18023 0.93865 0.0
C221 C 0.86705 0.15257 0.9139 0.0
C222 C 0.85769 0.14117 0.93497 0.0
C223 C 0.93291 0.19413 0.9082 0.0
O224 O 0.92482 0.1758 0.92179 0.0
H225 H 0.8426 0.19808 0.9464 0.0
H226 H 0.87765 0.14372 0.89814 0.0
O227 O 0.84675 0.23112 0.8994 0.0
H228 H 0.84248 0.16832 0.81196 0.0
H229 H 0.8593 0.1216 0.9387 0.0
Cu230 Cu 0.86555 0.38389 0.38883 0.0
N231 N 0.88174 0.35184 0.38482 0.0
N232 N 0.87654 0.31118 0.3857 0.0
C233 C 0.86412 0.33363 0.37995 0.0
C234 C 0.90343 0.3155 0.39435 0.0
C235 C 0.9065 0.34062 0.39394 0.0
O236 O 0.84945 0.38222 0.42212 0.0
C237 C 0.81733 0.40364 0.35724 0.0
O238 O 0.80971 0.42041 0.3738 0.0
H239 H 0.8413 0.33714 0.37507 0.0
H240 H 0.92425 0.35004 0.40195 0.0
N241 N 0.89166 0.40898 0.38429 0.0
N242 N 0.90724 0.44539 0.37227 0.0
C243 C 0.88476 0.43052 0.37261 0.0
C244 C 0.91978 0.41016 0.3913 0.0
C245 C 0.92934 0.43269 0.38413 0.0
C246 C 0.8663 0.38484 0.44054 0.0
O247 O 0.89093 0.39534 0.43704 0.0
H248 H 0.86351 0.43538 0.36465 0.0
H249 H 0.93247 0.39573 0.40099 0.0
O250 O 0.83766 0.38727 0.36195 0.0
H251 H 0.91905 0.30174 0.40199 0.0
H252 H 0.95099 0.43903 0.38699 0.0
Cu253 Cu 0.64157 0.36772 0.88721 0.0
N254 N 0.65174 0.37691 0.85525 0.0
N255 N 0.65044 0.37542 0.81394 0.0
C256 C 0.64172 0.36547 0.83534 0.0
C257 C 0.66685 0.394 0.82086 0.0
C258 C 0.6676 0.39488 0.8464 0.0
O259 O 0.59933 0.36438 0.88604 0.0
C260 C 0.69171 0.33709 0.89213 0.0
O261 O 0.70308 0.35794 0.88662 0.0
H262 H 0.62738 0.35055 0.83682 0.0
H263 H 0.67859 0.40779 0.85764 0.0
N264 N 0.64994 0.39032 0.91195 0.0
N265 N 0.66521 0.40401 0.94838 0.0
C266 C 0.66829 0.38608 0.93124 0.0
C267 C 0.63481 0.41173 0.91714 0.0
C268 C 0.64414 0.42018 0.93961 0.0
C269 C 0.58372 0.3805 0.87384 0.0
O270 O 0.5963 0.39923 0.86413 0.0
H271 H 0.68227 0.36943 0.93352 0.0
H272 H 0.61717 0.41997 0.90602 0.0
O273 O 0.66396 0.33679 0.89383 0.0
H274 H 0.67759 0.40613 0.80849 0.0
H275 H 0.63563 0.43661 0.94907 0.0
Cu276 Cu 0.72781 0.40227 0.16005 0.0
N277 N 0.76181 0.40607 0.17845 0.0
N278 N 0.78963 0.4063 0.21234 0.0
C279 C 0.76215 0.40709 0.20328 0.0
C280 C 0.80731 0.40488 0.19239 0.0
C281 C 0.7901 0.40472 0.17152 0.0
O282 O 0.69803 0.42468 0.1755 0.0
C283 C 0.74217 0.35252 0.15467 0.0
O284 O 0.76522 0.36183 0.14483 0.0
H285 H 0.74262 0.4068 0.21451 0.0
H286 H 0.79784 0.4023 0.15281 0.0
N287 N 0.73159 0.41061 0.12652 0.0
N288 N 0.72181 0.41363 0.08607 0.0
C289 C 0.71234 0.40636 0.10839 0.0
C290 C 0.75374 0.42126 0.11525 0.0
C291 C 0.74788 0.42295 0.09032 0.0
C292 C 0.70471 0.44705 0.17603 0.0
O293 O 0.72878 0.45271 0.16475 0.0
H294 H 0.69199 0.39777 0.11146 0.0
H295 H 0.77272 0.42763 0.12445 0.0
O296 O 0.72119 0.36722 0.16224 0.0
H297 H 0.83099 0.40317 0.19286 0.0
H298 H 0.76145 0.43088 0.07644 0.0
Cu299 Cu 0.6161 0.25658 0.64282 0.0
N300 N 0.6039 0.28624 0.65795 0.0
N301 N 0.60299 0.31278 0.68943 0.0
C302 C 0.60767 0.28916 0.68232 0.0
C303 C 0.59577 0.32537 0.66857 0.0
C304 C 0.5963 0.3089 0.64911 0.0
O305 O 0.59334 0.23096 0.65691 0.0
C306 C 0.67522 0.23572 0.64383 0.0
O307 O 0.66519 0.21657 0.63279 0.0
H308 H 0.61579 0.27433 0.69434 0.0
H309 H 0.59276 0.31339 0.62988 0.0
N310 N 0.61365 0.25607 0.60828 0.0
N311 N 0.62267 0.23966 0.57086 0.0
C312 C 0.61683 0.23526 0.59489 0.0
C313 C 0.61718 0.27443 0.59212 0.0
C314 C 0.62247 0.2644 0.56905 0.0
C315 C 0.56568 0.23274 0.6537 0.0
O316 O 0.55415 0.25114 0.64042 0.0
H317 H 0.61698 0.21714 0.60312 0.0
H318 H 0.61861 0.2935 0.59706 0.0
O319 O 0.65739 0.25313 0.65083 0.0
H320 H 0.59124 0.34509 0.66733 0.0
H321 H 0.6284 0.27447 0.55275 0.0
Cu322 Cu 0.78002 0.15603 0.15341 0.0
N323 N 0.75248 0.15001 0.17779 0.0
N324 N 0.73674 0.14751 0.21666 0.0
C325 C 0.75515 0.15796 0.20107 0.0
C326 C 0.72131 0.13262 0.2026 0.0
C327 C 0.73113 0.13417 0.1785 0.0
O328 O 0.81243 0.13112 0.15847 0.0
C329 C 0.76525 0.20556 0.15672 0.0
O330 O 0.73949 0.19641 0.1551 0.0
H331 H 0.77195 0.16979 0.20686 0.0
H332 H 0.72479 0.12314 0.16308 0.0
N333 N 0.766 0.15244 0.1213 0.0
N334 N 0.76648 0.15405 0.08004 0.0
C335 C 0.78275 0.1522 0.10083 0.0
C336 C 0.73815 0.15435 0.1132 0.0
C337 C 0.73838 0.15541 0.08774 0.0
C338 C 0.82448 0.12665 0.17936 0.0
O339 O 0.81937 0.14231 0.19745 0.0
H340 H 0.80638 0.15236 0.10125 0.0
H341 H 0.71908 0.15622 0.12499 0.0
O342 O 0.7881 0.19071 0.15659 0.0
H343 H 0.70603 0.11994 0.20958 0.0
H344 H 0.7194 0.15779 0.07586 0.0
Cu345 Cu 0.89341 0.29326 0.63635 0.0
N346 N 0.90794 0.26519 0.65376 0.0
N347 N 0.90995 0.23872 0.68556 0.0
C348 C 0.89303 0.25496 0.67215 0.0
C349 C 0.93685 0.23882 0.67539 0.0
C350 C 0.93554 0.2552 0.65574 0.0
O351 O 0.91731 0.3199 0.64585 0.0
C352 C 0.83865 0.27754 0.6363 0.0
O353 O 0.85437 0.25995 0.62499 0.0
H354 H 0.87071 0.26078 0.67694 0.0
H355 H 0.95378 0.26062 0.64477 0.0
N356 N 0.89665 0.29184 0.6019 0.0
N357 N 0.89241 0.30677 0.56344 0.0
C358 C 0.89382 0.31217 0.58765 0.0
C359 C 0.89738 0.27278 0.58609 0.0
C360 C 0.89461 0.28197 0.56229 0.0
C361 C 0.92446 0.32508 0.66778 0.0
O362 O 0.9116 0.31474 0.68641 0.0
H363 H 0.89147 0.33063 0.59505 0.0
H364 H 0.89873 0.25361 0.59149 0.0
O365 O 0.85145 0.29641 0.64346 0.0
H366 H 0.95625 0.22854 0.68221 0.0
H367 H 0.89403 0.2713 0.54551 0.0
Cu368 Cu 0.39528 0.73088 0.14529 0.0
N369 N 0.41526 0.75461 0.16204 0.0
N370 N 0.42929 0.77148 0.1973 0.0
C371 C 0.42127 0.751 0.1861 0.0
C372 C 0.4286 0.78888 0.17949 0.0
C373 C 0.42023 0.77832 0.15756 0.0
O374 O 0.41547 0.70035 0.1566 0.0
C375 C 0.34368 0.75807 0.15085 0.0
O376 O 0.36027 0.77382 0.14034 0.0
H377 H 0.41706 0.73416 0.19574 0.0
H378 H 0.41586 0.78773 0.14022 0.0
N379 N 0.3947 0.7319 0.11075 0.0
N380 N 0.37773 0.72384 0.073 0.0
C381 C 0.37424 0.72105 0.09756 0.0
C382 C 0.41196 0.74206 0.094 0.0
C383 C 0.4016 0.73701 0.07065 0.0
C384 C 0.44268 0.6986 0.15127 0.0
O385 O 0.45256 0.71467 0.13576 0.0
H386 H 0.35728 0.71094 0.10601 0.0
H387 H 0.43068 0.75234 0.09842 0.0
O388 O 0.35451 0.73631 0.15525 0.0
H389 H 0.43232 0.80807 0.18239 0.0
H390 H 0.41073 0.74285 0.05335 0.0
Cu391 Cu 0.38228 0.82775 0.4035 0.0
N392 N 0.39069 0.80501 0.37817 0.0
N393 N 0.40056 0.79242 0.33958 0.0
C394 C 0.39395 0.81179 0.35448 0.0
C395 C 0.4013 0.77253 0.35459 0.0
C396 C 0.39509 0.78035 0.37839 0.0
O397 O 0.40351 0.85631 0.39383 0.0
C398 C 0.32819 0.81305 0.41557 0.0
O399 O 0.34578 0.79455 0.42318 0.0
H400 H 0.39204 0.83077 0.34844 0.0
H401 H 0.39379 0.76886 0.39459 0.0
N402 N 0.39631 0.81726 0.43468 0.0
N403 N 0.39873 0.81435 0.47586 0.0
C404 C 0.38755 0.82733 0.45639 0.0
C405 C 0.41397 0.79739 0.44064 0.0
C406 C 0.41534 0.79545 0.46603 0.0
C407 C 0.43049 0.85035 0.38952 0.0
O408 O 0.44053 0.8276 0.39385 0.0
H409 H 0.37202 0.84314 0.45785 0.0
H410 H 0.42443 0.78477 0.42751 0.0
O411 O 0.3394 0.8315 0.40558 0.0
H412 H 0.40555 0.75364 0.34878 0.0
H413 H 0.4272 0.78104 0.47647 0.0
Cu414 Cu 0.22284 0.88537 0.87448 0.0
N415 N 0.25857 0.89147 0.85955 0.0
N416 N 0.29105 0.88867 0.82864 0.0
C417 C 0.26334 0.88554 0.83579 0.0
C418 C 0.30429 0.89744 0.84876 0.0
C419 C 0.28417 0.899 0.86794 0.0
O420 O 0.19441 0.91127 0.86261 0.0
C421 C 0.23874 0.83689 0.86936 0.0
O422 O 0.26129 0.84542 0.88072 0.0
H423 H 0.24665 0.87856 0.82409 0.0
H424 H 0.28821 0.90445 0.88674 0.0
N425 N 0.22263 0.88439 0.90914 0.0
N426 N 0.20932 0.8722 0.94688 0.0
C427 C 0.20731 0.86857 0.9223 0.0
C428 C 0.2349 0.89862 0.92597 0.0
C429 C 0.22667 0.89118 0.94926 0.0
C430 C 0.20181 0.93313 0.86644 0.0
O431 O 0.22616 0.93593 0.87863 0.0
H432 H 0.19427 0.85503 0.91386 0.0
H433 H 0.24856 0.91351 0.92166 0.0
O434 O 0.2167 0.85174 0.86443 0.0
H435 H 0.32705 0.90156 0.8498 0.0
H436 H 0.23311 0.89906 0.96657 0.0
Cu437 Cu 0.14025 0.72883 0.39973 0.0
N438 N 0.14434 0.71856 0.36667 0.0
N439 N 0.13982 0.71957 0.32542 0.0
C440 C 0.13764 0.73252 0.34662 0.0
C441 C 0.14806 0.69634 0.33237 0.0
C442 C 0.15082 0.69577 0.35781 0.0
O443 O 0.09842 0.73213 0.40665 0.0
C444 C 0.1657 0.77687 0.39391 0.0
O445 O 0.14736 0.78236 0.37584 0.0
H446 H 0.12998 0.75162 0.34752 0.0
H447 H 0.15642 0.67974 0.36909 0.0
N448 N 0.15495 0.70466 0.42201 0.0
N449 N 0.16035 0.68534 0.4585 0.0
C450 C 0.14289 0.70045 0.44417 0.0
C451 C 0.18107 0.69178 0.42224 0.0
C452 C 0.18445 0.6798 0.44472 0.0
C453 C 0.07882 0.74399 0.39393 0.0
O454 O 0.0866 0.76016 0.37761 0.0
H455 H 0.12243 0.70958 0.45021 0.0
H456 H 0.19709 0.69201 0.40759 0.0
O457 O 0.1637 0.75699 0.40608 0.0
H458 H 0.15174 0.68087 0.32002 0.0
H459 H 0.20344 0.66841 0.45064 0.0
Cu460 Cu 0.28758 0.64579 0.88672 0.0
N461 N 0.25284 0.63641 0.87256 0.0
N462 N 0.2218 0.63114 0.84127 0.0
C463 C 0.24948 0.63531 0.84793 0.0
C464 C 0.20731 0.6293 0.86294 0.0
C465 C 0.22648 0.63256 0.88215 0.0
O466 O 0.316 0.61862 0.87838 0.0
C467 C 0.27056 0.69292 0.87473 0.0
O468 O 0.24748 0.68523 0.88603 0.0
H469 H 0.2671 0.63845 0.8353 0.0
H470 H 0.22115 0.63329 0.90156 0.0
N471 N 0.28649 0.65109 0.92097 0.0
N472 N 0.30134 0.66504 0.95749 0.0
C473 C 0.30487 0.66546 0.93275 0.0
C474 C 0.27054 0.64125 0.93886 0.0
C475 C 0.27957 0.64991 0.9614 0.0
C476 C 0.32994 0.60568 0.89472 0.0
O477 O 0.33052 0.61382 0.91747 0.0
H478 H 0.32094 0.67568 0.92322 0.0
H479 H 0.25427 0.62808 0.93588 0.0
O480 O 0.29315 0.67802 0.87238 0.0
H481 H 0.1842 0.62687 0.86501 0.0
H482 H 0.27152 0.64465 0.97929 0.0
Cu483 Cu 0.11866 0.80574 0.13685 0.0
N484 N 0.10333 0.77935 0.15365 0.0
N485 N 0.09922 0.75464 0.18649 0.0
C486 C 0.1116 0.7744 0.17704 0.0
C487 C 0.08229 0.74676 0.16806 0.0
C488 C 0.08478 0.76212 0.1478 0.0
O489 O 0.09603 0.83505 0.14838 0.0
C490 C 0.17145 0.78124 0.14029 0.0
O491 O 0.15536 0.76581 0.12874 0.0
H492 H 0.12719 0.78495 0.18668 0.0
H493 H 0.07396 0.76074 0.13018 0.0
N494 N 0.11827 0.80556 0.10221 0.0
N495 N 0.13139 0.81727 0.06425 0.0
C496 C 0.13235 0.82191 0.08871 0.0
C497 C 0.10792 0.78984 0.08578 0.0
C498 C 0.11595 0.79704 0.06234 0.0
C499 C 0.06922 0.83692 0.14171 0.0
O500 O 0.05988 0.82026 0.12668 0.0
H501 H 0.14406 0.83643 0.09694 0.0
H502 H 0.096 0.774 0.09048 0.0
O503 O 0.1599 0.8025 0.1458 0.0
H504 H 0.06888 0.73116 0.16913 0.0
H505 H 0.1109 0.78796 0.04529 0.0
Cu506 Cu 0.15652 0.66332 0.65408 0.0
N507 N 0.14829 0.69735 0.65696 0.0
N508 N 0.15711 0.73715 0.65378 0.0
C509 C 0.16358 0.71419 0.64525 0.0
C510 C 0.13683 0.73474 0.67152 0.0
C511 C 0.13131 0.71015 0.67337 0.0
O512 O 0.1711 0.65803 0.62036 0.0
C513 C 0.17104 0.65367 0.70236 0.0
O514 O 0.143 0.6603 0.70391 0.0
H515 H 0.18052 0.70947 0.63183 0.0
H516 H 0.11698 0.7021 0.68654 0.0
N517 N 0.12384 0.6447 0.65869 0.0
N518 N 0.09913 0.61262 0.67096 0.0
C519 C 0.12566 0.62101 0.66608 0.0
C520 C 0.09511 0.65167 0.65868 0.0
C521 C 0.07981 0.63191 0.66617 0.0
C522 C 0.15207 0.66305 0.60354 0.0
O523 O 0.12522 0.6699 0.61033 0.0
H524 H 0.14633 0.61065 0.66915 0.0
H525 H 0.08602 0.67 0.65433 0.0
O526 O 0.18333 0.65373 0.68119 0.0
H527 H 0.12727 0.74958 0.68275 0.0
H528 H 0.05631 0.63199 0.66831 0.0
Cu529 Cu 0.32172 0.89081 0.64637 0.0
N530 N 0.28489 0.87979 0.63898 0.0
N531 N 0.24747 0.85537 0.63893 0.0
C532 C 0.27105 0.86246 0.65136 0.0
C533 C 0.24639 0.86883 0.61797 0.0
C534 C 0.26947 0.88389 0.61807 0.0
O535 O 0.34819 0.8798 0.61981 0.0
C536 C 0.35266 0.88655 0.69233 0.0
O537 O 0.37184 0.90021 0.68195 0.0
H538 H 0.27921 0.85409 0.66837 0.0
H539 H 0.27549 0.89606 0.60339 0.0
N540 N 0.32068 0.9253 0.64691 0.0
N541 N 0.32907 0.9632 0.66004 0.0
C542 C 0.32431 0.93984 0.66665 0.0
C543 C 0.32252 0.9401 0.62715 0.0
C544 C 0.32766 0.96345 0.63515 0.0
C545 C 0.34822 0.85855 0.61004 0.0
O546 O 0.33271 0.84182 0.62027 0.0
H547 H 0.32542 0.93307 0.68541 0.0
H548 H 0.32191 0.93399 0.60821 0.0
O549 O 0.33211 0.87877 0.67926 0.0
H550 H 0.23053 0.86739 0.60332 0.0
H551 H 0.33113 0.97912 0.62347 0.0
H552 H 0.12344 0.22755 0.74589 0.0
H553 H 0.06248 0.22468 0.80621 0.0
H554 H 0.05503 0.26959 0.80581 0.0
H555 H 0.06686 0.30986 0.78886 0.0
H556 H 0.12794 0.31216 0.72837 0.0
H557 H 0.13452 0.26756 0.72852 0.0
C558 C 0.10818 0.23672 0.75867 0.0
C559 C 0.09342 0.22275 0.77597 0.0
C560 C 0.10434 0.26257 0.75856 0.0
C561 C 0.07418 0.23502 0.79278 0.0
C562 C 0.06993 0.2607 0.79256 0.0
C563 C 0.08153 0.30061 0.77567 0.0
C564 C 0.09706 0.31461 0.75886 0.0
C565 C 0.0851 0.27471 0.77567 0.0
C566 C 0.11613 0.30216 0.74197 0.0
C567 C 0.11972 0.2765 0.74183 0.0
H568 H 0.71539 0.64229 0.32049 0.0
H569 H 0.71871 0.65431 0.24185 0.0
H570 H 0.77062 0.6622 0.24497 0.0
H571 H 0.81538 0.6638 0.26979 0.0
H572 H 0.8118 0.65217 0.34851 0.0
H573 H 0.75943 0.64622 0.34561 0.0
C574 C 0.72742 0.64666 0.304 0.0
C575 C 0.71325 0.64745 0.2809 0.0
C576 C 0.75715 0.65126 0.30597 0.0
C577 C 0.7291 0.65352 0.25981 0.0
C578 C 0.75878 0.65799 0.2616 0.0
C579 C 0.80315 0.6601 0.28637 0.0
C580 C 0.81759 0.65825 0.30934 0.0
C581 C 0.77308 0.65664 0.28455 0.0
C582 C 0.80129 0.65368 0.33063 0.0
C583 C 0.77136 0.65018 0.32895 0.0
H584 H 0.32493 0.28687 0.83977 0.0
H585 H 0.41215 0.3121 0.84188 0.0
H586 H 0.43272 0.27079 0.83202 0.0
H587 H 0.42557 0.22849 0.81872 0.0
H588 H 0.33831 0.20353 0.8153 0.0
H589 H 0.31811 0.24348 0.83006 0.0
C590 C 0.34844 0.28318 0.83856 0.0
C591 C 0.36695 0.30259 0.84129 0.0
C592 C 0.36011 0.25942 0.83249 0.0
C593 C 0.39741 0.29756 0.83943 0.0
C594 C 0.4092 0.27393 0.83387 0.0
C595 C 0.40223 0.23162 0.82179 0.0
C596 C 0.38345 0.21313 0.81581 0.0
C597 C 0.39073 0.25484 0.82976 0.0
C598 C 0.35316 0.21759 0.81955 0.0
C599 C 0.34161 0.24043 0.82796 0.0
H600 H 0.69951 0.93962 0.26958 0.0
H601 H 0.70016 0.86209 0.28644 0.0
H602 H 0.74569 0.85465 0.26363 0.0
H603 H 0.78769 0.87042 0.24232 0.0
H604 H 0.78854 0.94802 0.22641 0.0
H605 H 0.74004 0.95499 0.24497 0.0
C606 C 0.70938 0.92105 0.26796 0.0
C607 C 0.69643 0.90151 0.27998 0.0
C608 C 0.736 0.91687 0.25503 0.0
C609 C 0.70965 0.87756 0.27763 0.0
C610 C 0.73577 0.87324 0.26456 0.0
C611 C 0.77715 0.88884 0.24251 0.0
C612 C 0.792 0.90866 0.23308 0.0
C613 C 0.74951 0.89281 0.2537 0.0
C614 C 0.77777 0.93237 0.23353 0.0
C615 C 0.75003 0.93641 0.24429 0.0
H616 H 0.69447 0.15639 0.25079 0.0
H617 H 0.78647 0.13687 0.24139 0.0
H618 H 0.79366 0.13663 0.28599 0.0
H619 H 0.7741 0.14216 0.32747 0.0
H620 H 0.68244 0.163 0.33813 0.0
H621 H 0.67472 0.16282 0.29336 0.0
C622 C 0.71593 0.15201 0.2587 0.0
C623 C 0.73996 0.14672 0.24302 0.0
C624 C 0.71997 0.15232 0.2845 0.0
C625 C 0.76781 0.14121 0.25323 0.0
C626 C 0.77189 0.14104 0.27868 0.0
C627 C 0.75239 0.1467 0.32007 0.0
C628 C 0.72889 0.15252 0.33614 0.0
C629 C 0.74819 0.14667 0.29446 0.0
C630 C 0.70096 0.15854 0.32616 0.0
C631 C 0.69651 0.15833 0.30056 0.0
H632 H 0.94201 0.23003 0.727 0.0
H633 H 0.85757 0.22083 0.69447 0.0
H634 H 0.84007 0.20434 0.73332 0.0
H635 H 0.84772 0.19494 0.77729 0.0
H636 H 0.93172 0.205 0.81037 0.0
H637 H 0.95039 0.21872 0.77077 0.0
C638 C 0.91997 0.22401 0.72834 0.0
C639 C 0.9011 0.22667 0.70786 0.0
C640 C 0.90986 0.21494 0.75097 0.0
C641 C 0.87242 0.21914 0.71002 0.0
C642 C 0.86241 0.2097 0.73223 0.0
C643 C 0.87023 0.19977 0.77578 0.0
C644 C 0.88819 0.19902 0.79689 0.0
C645 C 0.88076 0.20788 0.75296 0.0
C646 C 0.91724 0.20572 0.79456 0.0
C647 C 0.92799 0.21348 0.77186 0.0
H648 H 0.84206 0.38212 0.31685 0.0
H649 H 0.76886 0.4308 0.33953 0.0
H650 H 0.75345 0.43583 0.29633 0.0
H651 H 0.76173 0.42686 0.25188 0.0
H652 H 0.83657 0.37953 0.23028 0.0
H653 H 0.85063 0.37376 0.27336 0.0
C654 C 0.82253 0.39368 0.31249 0.0
C655 C 0.80646 0.40589 0.33149 0.0
C656 C 0.81433 0.39694 0.28774 0.0
C657 C 0.78153 0.4211 0.3253 0.0
C658 C 0.77279 0.42403 0.3006 0.0
C659 C 0.78105 0.41526 0.25669 0.0
C660 C 0.79815 0.40372 0.23787 0.0
C661 C 0.78915 0.41213 0.28163 0.0
C662 C 0.8233 0.38892 0.24432 0.0
C663 C 0.83122 0.38545 0.26898 0.0
H664 H 0.62226 0.35725 0.70162 0.0
H665 H 0.59547 0.28919 0.73241 0.0
H666 H 0.60851 0.30243 0.77358 0.0
H667 H 0.62915 0.33223 0.80051 0.0
H668 H 0.65439 0.40143 0.77102 0.0
H669 H 0.64085 0.38861 0.72966 0.0
C670 C 0.61887 0.34551 0.7174 0.0
C671 C 0.60808 0.32213 0.71385 0.0
C672 C 0.62653 0.35327 0.74122 0.0
C673 C 0.60413 0.30706 0.73452 0.0
C674 C 0.61155 0.31465 0.7581 0.0
C675 C 0.63135 0.34485 0.78528 0.0
C676 C 0.64277 0.36791 0.78925 0.0
C677 C 0.62307 0.33756 0.76163 0.0
C678 C 0.646 0.38348 0.76877 0.0
C679 C 0.63803 0.37622 0.74503 0.0
H680 H 0.29754 0.72901 0.15177 0.0
H681 H 0.31999 0.80432 0.15825 0.0
H682 H 0.26827 0.81839 0.15802 0.0
H683 H 0.21671 0.80965 0.15152 0.0
H684 H 0.19479 0.73434 0.14289 0.0
H685 H 0.24582 0.72004 0.14854 0.0
C686 C 0.29103 0.74842 0.15367 0.0
C687 C 0.31248 0.76558 0.15489 0.0
C688 C 0.26123 0.75648 0.15279 0.0
C689 C 0.3038 0.79074 0.15708 0.0
C690 C 0.27423 0.79884 0.1569 0.0
C691 C 0.22311 0.79012 0.15123 0.0
C692 C 0.20205 0.77317 0.14648 0.0
C693 C 0.25274 0.78194 0.15403 0.0
C694 C 0.21065 0.74787 0.14615 0.0
C695 C 0.23986 0.7396 0.14944 0.0
H696 H 0.28391 0.82982 0.38412 0.0
H697 H 0.30099 0.79021 0.45217 0.0
H698 H 0.25087 0.7779 0.45306 0.0
H699 H 0.20438 0.7737 0.43199 0.0
H700 H 0.18659 0.81196 0.3633 0.0
H701 H 0.23426 0.82966 0.36537 0.0
C702 C 0.27634 0.81907 0.39943 0.0
C703 C 0.29622 0.81078 0.41795 0.0
C704 C 0.24739 0.81147 0.39956 0.0
C705 C 0.28619 0.79664 0.43757 0.0
C706 C 0.25752 0.78951 0.43808 0.0
C707 C 0.21067 0.78623 0.41764 0.0
C708 C 0.19199 0.79118 0.39738 0.0
C709 C 0.23826 0.79605 0.41875 0.0
C710 C 0.20049 0.8077 0.37911 0.0
C711 C 0.22789 0.81776 0.38021 0.0
H712 H 0.2867 0.80587 0.86415 0.0
H713 H 0.19233 0.80812 0.86322 0.0
H714 H 0.19432 0.76307 0.86179 0.0
H715 H 0.22285 0.72345 0.86589 0.0
H716 H 0.31722 0.72125 0.86764 0.0
H717 H 0.31533 0.76611 0.86328 0.0
C718 C 0.26654 0.79651 0.86334 0.0
C719 C 0.23935 0.81024 0.8642 0.0
C720 C 0.26792 0.77073 0.8628 0.0
C721 C 0.21346 0.79795 0.86265 0.0
C722 C 0.21463 0.77222 0.86198 0.0
C723 C 0.24306 0.73276 0.86499 0.0
C724 C 0.27018 0.71912 0.86747 0.0
C725 C 0.24172 0.75847 0.86283 0.0
C726 C 0.29613 0.73134 0.86582 0.0
C727 C 0.29501 0.75698 0.8635 0.0
H728 H 0.17434 0.77241 0.68428 0.0
H729 H 0.17284 0.75045 0.60807 0.0
H730 H 0.19965 0.78613 0.59637 0.0
H731 H 0.22518 0.82275 0.60807 0.0
H732 H 0.2295 0.84335 0.68456 0.0
H733 H 0.20005 0.80914 0.69601 0.0
C734 C 0.1796 0.77568 0.66511 0.0
C735 C 0.17149 0.75895 0.64701 0.0
C736 C 0.19569 0.7959 0.65864 0.0
C737 C 0.17894 0.76307 0.62228 0.0
C738 C 0.19423 0.78346 0.61561 0.0
C739 C 0.21936 0.81989 0.62719 0.0
C740 C 0.22935 0.83564 0.64545 0.0
C741 C 0.20295 0.79989 0.63365 0.0
C742 C 0.22216 0.83141 0.67023 0.0
C743 C 0.20527 0.8119 0.67675 0.0
H744 H 0.91467 0.83349 0.30512 0.0
H745 H 0.90039 0.83005 0.22649 0.0
H746 H 0.90766 0.78556 0.22776 0.0
H747 H 0.91559 0.747 0.25134 0.0
H748 H 0.92838 0.75009 0.33001 0.0
H749 H 0.92374 0.79499 0.32858 0.0
C750 C 0.91302 0.82309 0.28825 0.0
C751 C 0.90698 0.83551 0.26577 0.0
C752 C 0.91675 0.7972 0.2891 0.0
C753 C 0.90541 0.82142 0.24409 0.0
C754 C 0.90935 0.79576 0.24478 0.0
C755 C 0.9177 0.75751 0.2681 0.0
C756 C 0.92211 0.74512 0.29075 0.0
C757 C 0.91479 0.78341 0.26719 0.0
C758 C 0.9245 0.75909 0.31237 0.0
C759 C 0.92197 0.78481 0.31156 0.0
H760 H 0.19241 0.42586 0.7348 0.0
H761 H 0.21817 0.35125 0.71372 0.0
H762 H 0.26513 0.35401 0.7348 0.0
H763 H 0.2961 0.37592 0.76411 0.0
H764 H 0.26768 0.44931 0.78706 0.0
H765 H 0.22495 0.44889 0.76019 0.0
C766 C 0.20841 0.41027 0.73444 0.0
C767 C 0.20147 0.38827 0.72289 0.0
C768 C 0.23502 0.41177 0.74711 0.0
C769 C 0.22274 0.3684 0.72251 0.0
C770 C 0.24962 0.36993 0.73469 0.0
C771 C 0.28096 0.39202 0.76258 0.0
C772 C 0.28506 0.4127 0.77741 0.0
C773 C 0.25565 0.39127 0.74773 0.0
C774 C 0.26499 0.43326 0.77574 0.0
C775 C 0.24046 0.43297 0.76049 0.0
H776 H 0.59584 0.79747 0.34873 0.0
H777 H 0.68895 0.7817 0.35566 0.0
H778 H 0.68372 0.73902 0.34358 0.0
H779 H 0.65288 0.7065 0.32932 0.0
H780 H 0.55953 0.72143 0.324 0.0
H781 H 0.56443 0.7639 0.33734 0.0
C782 C 0.61489 0.7846 0.34766 0.0
C783 C 0.64275 0.79275 0.353 0.0
C784 C 0.61164 0.75993 0.341 0.0
C785 C 0.66727 0.77584 0.35184 0.0
C786 C 0.6643 0.75147 0.34481 0.0
C787 C 0.63364 0.71907 0.33123 0.0
C788 C 0.60591 0.71089 0.32558 0.0
C789 C 0.63665 0.74336 0.33912 0.0
C790 C 0.58108 0.72723 0.32842 0.0
C791 C 0.58391 0.75156 0.33589 0.0
H792 H 0.30507 0.1791 0.76485 0.0
H793 H 0.28418 0.11175 0.72897 0.0
H794 H 0.23817 0.11214 0.75151 0.0
H795 H 0.20484 0.13035 0.78262 0.0
H796 H 0.22357 0.19865 0.81729 0.0
H797 H 0.26976 0.19894 0.79428 0.0
C798 C 0.29029 0.16468 0.76168 0.0
C799 C 0.29828 0.14533 0.74528 0.0
C800 C 0.26377 0.16492 0.77485 0.0
C801 C 0.27873 0.12686 0.74144 0.0
C802 C 0.25245 0.12695 0.75447 0.0
C803 C 0.21918 0.14518 0.78536 0.0
C804 C 0.2112 0.16418 0.80203 0.0
C805 C 0.24504 0.1456 0.77154 0.0
C806 C 0.22951 0.18367 0.80479 0.0
C807 C 0.25579 0.18388 0.79155 0.0
H808 H 0.31849 0.85787 0.71953 0.0
H809 H 0.37985 0.91421 0.7265 0.0
H810 H 0.36777 0.91876 0.77024 0.0
H811 H 0.33556 0.90986 0.80549 0.0
H812 H 0.27464 0.85325 0.79778 0.0
H813 H 0.29061 0.84587 0.75555 0.0
C814 C 0.32963 0.87085 0.73069 0.0
C815 C 0.34988 0.88578 0.71963 0.0
C816 C 0.32225 0.87367 0.75572 0.0
C817 C 0.36421 0.9024 0.73447 0.0
C818 C 0.35713 0.90517 0.7595 0.0
C819 C 0.32616 0.89566 0.79469 0.0
C820 C 0.30337 0.88261 0.8047 0.0
C821 C 0.33555 0.89139 0.77019 0.0
C822 C 0.29151 0.86417 0.79039 0.0
C823 C 0.3008 0.85976 0.76622 0.0
H824 H 0.11992 0.695 0.28584 0.0
H825 H 0.14645 0.76577 0.30936 0.0
H826 H 0.13497 0.78295 0.26878 0.0
H827 H 0.11728 0.77829 0.22687 0.0
H828 H 0.09211 0.70766 0.20177 0.0
H829 H 0.10262 0.6902 0.24275 0.0
C830 C 0.12341 0.7141 0.282 0.0
C831 C 0.1339 0.72907 0.30082 0.0
C832 C 0.11677 0.72399 0.25837 0.0
C833 C 0.13798 0.75389 0.29549 0.0
C834 C 0.13153 0.76374 0.2722 0.0
C835 C 0.11438 0.75898 0.23009 0.0
C836 C 0.10413 0.74435 0.21096 0.0
C837 C 0.12086 0.74901 0.25354 0.0
C838 C 0.09977 0.7195 0.21604 0.0
C839 C 0.106 0.70943 0.23948 0.0
H840 H 0.24891 0.64246 0.79801 0.0
H841 H 0.16713 0.61954 0.82747 0.0
H842 H 0.14536 0.62307 0.78677 0.0
H843 H 0.14813 0.63506 0.74346 0.0
H844 H 0.22946 0.65707 0.71313 0.0
H845 H 0.25298 0.6509 0.75362 0.0
C846 C 0.22642 0.63796 0.7958 0.0
C847 C 0.20973 0.63122 0.81646 0.0
C848 C 0.21389 0.63982 0.77207 0.0
C849 C 0.1806 0.62535 0.81247 0.0
C850 C 0.16804 0.62723 0.78902 0.0
C851 C 0.17111 0.63834 0.74562 0.0
C852 C 0.18698 0.64678 0.72541 0.0
C853 C 0.18429 0.63488 0.76883 0.0
C854 C 0.2168 0.65054 0.7284 0.0
C855 C 0.23014 0.64717 0.75159 0.0
H856 H 0.43279 0.7593 0.31207 0.0
H857 H 0.37923 0.82735 0.30736 0.0
H858 H 0.38653 0.82854 0.26289 0.0
H859 H 0.40523 0.80874 0.22465 0.0
H860 H 0.45671 0.73983 0.22907 0.0
H861 H 0.45331 0.74048 0.27413 0.0
C862 C 0.42261 0.77433 0.30134 0.0
C863 C 0.4054 0.79314 0.31322 0.0
C864 C 0.42664 0.7748 0.2756 0.0
C865 C 0.39283 0.81272 0.29891 0.0
C866 C 0.39689 0.81339 0.27337 0.0
C867 C 0.41627 0.79423 0.23557 0.0
C868 C 0.43134 0.77433 0.22364 0.0
C869 C 0.41351 0.79442 0.26145 0.0
C870 C 0.44504 0.75533 0.23795 0.0
C871 C 0.44296 0.75564 0.26366 0.0
H872 H 0.75084 0.33412 0.8961 0.0
H873 H 0.67655 0.28933 0.89586 0.0
H874 H 0.70947 0.25215 0.89884 0.0
H875 H 0.75945 0.2324 0.89961 0.0
H876 H 0.83348 0.27756 0.89996 0.0
H877 H 0.80045 0.3146 0.89895 0.0
C878 C 0.74177 0.31624 0.89677 0.0
C879 C 0.71124 0.31452 0.89555 0.0
C880 C 0.76079 0.29501 0.89845 0.0
C881 C 0.69993 0.29119 0.89672 0.0
C882 C 0.71876 0.26993 0.89837 0.0
C883 C 0.76839 0.25034 0.89959 0.0
C884 C 0.79897 0.25215 0.89968 0.0
C885 C 0.74924 0.27161 0.89895 0.0
C886 C 0.8101 0.27558 0.89983 0.0
C887 C 0.79121 0.29679 0.89921 0.0
H888 H 0.81158 0.23552 0.63065 0.0
H889 H 0.79565 0.3109 0.65393 0.0
H890 H 0.74369 0.30396 0.66024 0.0
H891 H 0.70259 0.2769 0.65673 0.0
H892 H 0.71964 0.20185 0.63248 0.0
H893 H 0.7717 0.20828 0.62918 0.0
C894 C 0.79686 0.25055 0.63713 0.0
C895 C 0.80745 0.27383 0.64152 0.0
C896 C 0.76727 0.24643 0.64057 0.0
C897 C 0.78804 0.29287 0.65027 0.0
C898 C 0.75836 0.28887 0.65386 0.0
C899 C 0.71773 0.26184 0.65101 0.0
C900 C 0.70713 0.2389 0.64475 0.0
C901 C 0.74768 0.26578 0.64876 0.0
C902 C 0.7271 0.21967 0.63733 0.0
C903 C 0.75688 0.22335 0.63537 0.0
H904 H 0.78803 0.3186 0.1498 0.0
H905 H 0.69543 0.32535 0.16556 0.0
H906 H 0.69493 0.28051 0.1684 0.0
H907 H 0.72042 0.23956 0.16513 0.0
H908 H 0.81319 0.23272 0.1501 0.0
H909 H 0.81403 0.27762 0.14847 0.0
C910 C 0.76768 0.31031 0.15385 0.0
C911 C 0.74169 0.32538 0.15723 0.0
C912 C 0.76763 0.28456 0.15563 0.0
C913 C 0.71568 0.31425 0.16281 0.0
C914 C 0.7154 0.28861 0.16441 0.0
C915 C 0.74092 0.24783 0.16157 0.0
C916 C 0.76672 0.23272 0.15756 0.0
C917 C 0.74119 0.2736 0.16067 0.0
C918 C 0.79305 0.24385 0.15325 0.0
C919 C 0.79349 0.26953 0.15223 0.0
H920 H 0.88826 0.27222 0.41636 0.0
H921 H 0.83004 0.29926 0.35835 0.0
H922 H 0.80022 0.26425 0.36413 0.0
H923 H 0.78895 0.2273 0.38725 0.0
H924 H 0.84874 0.19931 0.44399 0.0
H925 H 0.87938 0.23319 0.43692 0.0
C926 C 0.86941 0.27029 0.40463 0.0
C927 C 0.86135 0.2887 0.38713 0.0
C928 C 0.85227 0.24999 0.40799 0.0
C929 C 0.83657 0.28574 0.3723 0.0
C930 C 0.81947 0.26563 0.37554 0.0
C931 C 0.80875 0.22828 0.39799 0.0
C932 C 0.81577 0.21062 0.41655 0.0
C933 C 0.82679 0.24784 0.39365 0.0
C934 C 0.84191 0.21263 0.43001 0.0
C935 C 0.85978 0.23207 0.42587 0.0
H936 H 0.13395 0.57056 0.66858 0.0
H937 H 0.05086 0.60054 0.69653 0.0
H938 H 0.04165 0.56074 0.71461 0.0
H939 H 0.05743 0.51725 0.72296 0.0
H940 H 0.1414 0.48818 0.69605 0.0
H941 H 0.15001 0.52773 0.67742 0.0
C942 C 0.11392 0.56858 0.67879 0.0
C943 C 0.09323 0.58879 0.68111 0.0
C944 C 0.10887 0.54566 0.68944 0.0
C945 C 0.06713 0.58543 0.69408 0.0
C946 C 0.0619 0.56263 0.70464 0.0
C947 C 0.07771 0.51961 0.71321 0.0
C948 C 0.09861 0.49954 0.71087 0.0
C949 C 0.08267 0.54261 0.70253 0.0
C950 C 0.12464 0.50301 0.69787 0.0
C951 C 0.1297 0.52575 0.68728 0.0
H952 H 0.50192 0.69761 0.14895 0.0
H953 H 0.43153 0.66483 0.18729 0.0
H954 H 0.46701 0.64354 0.21509 0.0
H955 H 0.51757 0.63676 0.23031 0.0
H956 H 0.58741 0.6714 0.19305 0.0
H957 H 0.55243 0.68953 0.16301 0.0
C958 C 0.49424 0.68557 0.16317 0.0
C959 C 0.46399 0.68288 0.16601 0.0
C960 C 0.51466 0.67395 0.17945 0.0
C961 C 0.45461 0.66723 0.18463 0.0
C962 C 0.4749 0.65515 0.20062 0.0
C963 C 0.52524 0.64812 0.21551 0.0
C964 C 0.55515 0.65278 0.21404 0.0
C965 C 0.50492 0.65878 0.1985 0.0
C966 C 0.56458 0.66758 0.19473 0.0
C967 C 0.54457 0.67795 0.17753 0.0
H968 H 0.36306 1.00033 0.64819 0.0
H969 H 0.31538 0.96973 0.70829 0.0
H970 H 0.33172 1.00137 0.73592 0.0
H971 H 0.35888 0.03816 0.7429 0.0
H972 H 0.40636 0.06894 0.68282 0.0
H973 H 0.39046 0.037 0.65523 0.0
C974 C 0.3559 1.00072 0.66723 0.0
C975 C 0.33785 0.98261 0.67604 0.0
C976 C 0.36542 1.019 0.68307 0.0
C977 C 0.32939 0.98324 0.70099 0.0
C978 C 0.33869 1.0014 0.71682 0.0
C979 C 0.36615 0.03771 0.72389 0.0
C980 C 0.38395 0.05595 0.71502 0.0
C981 C 0.35677 1.01934 0.70809 0.0
C982 C 0.39255 0.05527 0.69012 0.0
C983 C 0.38348 0.03697 0.67433 0.0
H984 H 0.01104 0.84389 0.13147 0.0
H985 H 0.07912 0.87205 0.17633 0.0
H986 H 0.04285 0.90001 0.19677 0.0
H987 H 0.99159 0.91418 0.20399 0.0
H988 H 0.92322 0.88514 0.16013 0.0
H989 H 0.95998 0.85997 0.13697 0.0
C990 C 0.01807 0.85628 0.14556 0.0
C991 C 0.04786 0.85569 0.15245 0.0
C992 C 0.99702 0.8721 0.15745 0.0
C993 C 0.05643 0.87201 0.17069 0.0
C994 C 0.03566 0.88798 0.18242 0.0
C995 C 0.98464 0.90256 0.18919 0.0
C996 C 0.95455 0.90149 0.18393 0.0
C997 C 1.00585 0.88784 0.17627 0.0
C998 C 0.94613 0.88637 0.1646 0.0
C999 C 0.96717 0.87187 0.15142 0.0
H1000 H 0.21713 0.98008 0.8685 0.0
H1001 H 0.14849 0.93639 0.84208 0.0
H1002 H 0.12197 0.97371 0.82587 0.0
H1003 H 0.11854 1.01914 0.8194 0.0
H1004 H 0.18922 0.06117 0.8452 0.0
H1005 H 0.21434 0.02416 0.86157 0.0
C1006 C 0.19631 0.97856 0.85927 0.0
C1007 C 0.18484 0.95535 0.85663 0.0
C1008 C 0.18142 0.99993 0.84991 0.0
C1009 C 0.15788 0.95396 0.84444 0.0
C1010 C 0.14272 0.97533 0.83515 0.0
C1011 C 0.13949 1.0202 0.82847 0.0
C1012 C 0.15158 0.04327 0.83123 0.0
C1013 C 0.15432 0.99849 0.83774 0.0
C1014 C 0.1788 0.04406 0.8432 0.0
C1015 C 0.19344 1.02275 0.85246 0.0
H1016 H 0.95647 0.7091 0.36139 0.0
H1017 H 0.99092 0.64341 0.39856 0.0
H1018 H 0.03148 0.66554 0.41488 0.0
H1019 H 0.06092 0.70131 0.41309 0.0
H1020 H 0.02975 0.76563 0.37176 0.0
H1021 H 0.98403 0.74654 0.36284 0.0
C1022 C 0.97235 0.69994 0.37377 0.0
C1023 C 0.97061 0.67477 0.37909 0.0
C1024 C 0.99648 0.71246 0.38195 0.0
C1025 C 0.99174 0.66284 0.39449 0.0
C1026 C 0.01502 0.67544 0.40364 0.0
C1027 C 0.04389 0.71146 0.40262 0.0
C1028 C 0.04893 0.73486 0.39297 0.0
C1029 C 0.01823 0.69996 0.39669 0.0
C1030 C 0.02657 0.74758 0.37932 0.0
C1031 C 1.00044 0.73661 0.37413 0.0
H1032 H 0.31979 0.57834 0.85356 0.0
H1033 H 0.36103 0.57384 0.92521 0.0
H1034 H 0.36929 0.52943 0.92095 0.0
H1035 H 0.36149 0.49135 0.89839 0.0
H1036 H 0.32054 0.49539 0.82682 0.0
H1037 H 0.31563 0.54034 0.82945 0.0
C1038 C 0.33108 0.56773 0.86805 0.0
C1039 C 0.33957 0.57954 0.88977 0.0
C1040 C 0.33549 0.54199 0.86563 0.0
C1041 C 0.35411 0.56535 0.90834 0.0
C1042 C 0.35874 0.53986 0.90599 0.0
C1043 C 0.35149 0.5021 0.8834 0.0
C1044 C 0.34109 0.49003 0.86257 0.0
C1045 C 0.34886 0.52791 0.88502 0.0
C1046 C 0.32876 0.50423 0.84303 0.0
C1047 C 0.32587 0.52993 0.84457 0.0
H1048 H 0.46779 0.83924 0.35269 0.0
H1049 H 0.43852 0.89867 0.40076 0.0
H1050 H 0.47945 0.9224 0.387 0.0
H1051 H 0.52725 0.92331 0.3656 0.0
H1052 H 0.55583 0.86296 0.31797 0.0
H1053 H 0.51119 0.84273 0.32694 0.0
C1054 C 0.47009 0.85761 0.3598 0.0
C1055 C 0.4505 0.86716 0.37789 0.0
C1056 C 0.49367 0.87086 0.35201 0.0
C1057 C 0.45335 0.89103 0.38677 0.0
C1058 C 0.47687 0.90446 0.37904 0.0
C1059 C 0.52346 0.90599 0.35675 0.0
C1060 C 0.54526 0.89453 0.34141 0.0
C1061 C 0.49775 0.89417 0.36229 0.0
C1062 C 0.53971 0.87216 0.32999 0.0
C1063 C 0.51419 0.86048 0.3352 0.0
H1064 H 0.62122 0.24489 0.52109 0.0
H1065 H 0.64897 0.19418 0.57917 0.0
H1066 H 0.67058 0.16566 0.54895 0.0
H1067 H 0.68488 0.15606 0.50639 0.0
H1068 H 0.65871 0.20674 0.44791 0.0
H1069 H 0.63341 0.23415 0.47783 0.0
C1070 C 0.63193 0.22759 0.52714 0.0
C1071 C 0.63332 0.22191 0.55255 0.0
C1072 C 0.64484 0.21121 0.50955 0.0
C1073 C 0.64702 0.19914 0.55989 0.0
C1074 C 0.65971 0.18278 0.54256 0.0
C1075 C 0.67344 0.17299 0.50008 0.0
C1076 C 0.67393 0.17933 0.47488 0.0
C1077 C 0.65916 0.18877 0.5174 0.0
C1078 C 0.65879 0.20134 0.46715 0.0
C1079 C 0.64437 0.21709 0.48429 0.0
H1080 H 0.81409 0.13089 0.0594 0.0
H1081 H 0.74263 0.18442 0.04491 0.0
H1082 H 0.76144 0.19113 1.00334 0.0
H1083 H 0.79874 0.18201 0.97106 0.0
H1084 H 0.86853 0.12673 0.98474 0.0
H1085 H 0.85011 0.12043 0.02653 0.0
C1086 C 0.80272 0.144 0.04709 0.0
C1087 C 0.77706 0.15717 0.05522 0.0
C1088 C 0.81344 0.14747 1.02306 0.0
C1089 C 0.76226 0.17391 0.039 0.0
C1090 C 0.77311 0.17785 1.01528 0.0
C1091 C 0.80987 0.16868 0.98329 0.0
C1092 C 0.83501 0.15493 0.97493 0.0
C1093 C 0.79875 0.1648 1.00712 0.0
C1094 C 0.84906 0.13741 0.99076 0.0
C1095 C 0.83858 0.13387 1.01466 0.0
H1096 H 0.8591 0.30285 0.52259 0.0
H1097 H 0.91688 0.35011 0.55948 0.0
H1098 H 0.91143 0.37987 0.52569 0.0
H1099 H 0.89249 0.3914 0.48465 0.0
H1100 H 0.83384 0.34483 0.44766 0.0
H1101 H 0.8368 0.31621 0.48258 0.0
C1102 C 0.8705 0.31965 0.52311 0.0
C1103 C 0.88864 0.32417 0.54337 0.0
C1104 C 0.86686 0.33692 0.50372 0.0
C1105 C 0.90283 0.34625 0.5441 0.0
C1106 C 0.89971 0.36325 0.52478 0.0
C1107 C 0.87993 0.37521 0.4844 0.0
C1108 C 0.86298 0.37033 0.46352 0.0
C1109 C 0.88199 0.3587 0.50441 0.0
C1110 C 0.84681 0.34925 0.46356 0.0
C1111 C 0.84877 0.33269 0.48343 0.0
H1112 H 0.64066 0.41612 0.99221 0.0
H1113 H 0.72235 0.39273 0.95749 0.0
H1114 H 0.74757 0.39394 0.99733 0.0
H1115 H 0.74631 0.40192 0.04218 0.0
H1116 H 0.66402 0.42244 0.07738 0.0
H1117 H 0.63897 0.422 0.03743 0.0
C1118 C 0.664 0.41143 0.99344 0.0
C1119 C 0.67976 0.40461 0.97196 0.0
C1120 C 0.67815 0.41157 1.01652 0.0
C1121 C 0.70986 0.39804 0.9738 0.0
C1122 C 0.72424 0.39878 0.99655 0.0
C1123 C 0.72291 0.40632 0.04101 0.0
C1124 C 0.70703 0.41236 0.06264 0.0
C1125 C 0.70863 0.40555 1.01804 0.0
C1126 C 0.67663 0.41763 0.061 0.0
C1127 C 0.66236 0.41748 0.03816 0.0
H1128 H 0.89542 0.54327 0.31 0.0
H1129 H 0.94659 0.56894 0.37018 0.0
H1130 H 0.94781 0.5281 0.38941 0.0
H1131 H 0.9341 0.48481 0.3891 0.0
H1132 H 0.88077 0.46013 0.3298 0.0
H1133 H 0.88064 0.50062 0.31023 0.0
C1134 C 0.90701 0.53986 0.32723 0.0
C1135 C 0.9211 0.55911 0.33854 0.0
C1136 C 0.90718 0.51644 0.33836 0.0
C1137 C 0.9355 0.5545 0.36116 0.0
C1138 C 0.93628 0.53111 0.3721 0.0
C1139 C 0.92263 0.48832 0.37183 0.0
C1140 C 0.90754 0.46942 0.36088 0.0
C1141 C 0.9222 0.5119 0.36087 0.0
C1142 C 0.89236 0.47436 0.33869 0.0
C1143 C 0.89237 0.49751 0.32744 0.0
H1144 H 0.44803 0.36652 0.87337 0.0
H1145 H 0.45205 0.41359 0.80949 0.0
H1146 H 0.50536 0.41353 0.81398 0.0
H1147 H 0.55022 0.40193 0.83751 0.0
H1148 H 0.54614 0.3539 0.90068 0.0
H1149 H 0.49322 0.35246 0.89499 0.0
C1150 C 0.46057 0.3767 0.86033 0.0
C1151 C 0.44608 0.39031 0.84127 0.0
C1152 C 0.49107 0.3765 0.86302 0.0
C1153 C 0.46267 0.40302 0.8243 0.0
C1154 C 0.49311 0.40307 0.82696 0.0
C1155 C 0.53776 0.39111 0.85004 0.0
C1156 C 0.55202 0.37829 0.86974 0.0
C1157 C 0.50744 0.3902 0.84649 0.0
C1158 C 0.53568 0.36399 0.88548 0.0
C1159 C 0.50543 0.36321 0.88225 0.0
H1160 H 0.73704 0.0403 0.38717 0.0
H1161 H 0.66161 0.07006 0.42721 0.0
H1162 H 0.63684 0.03216 0.42002 0.0
H1163 H 0.6373 0.99002 0.40314 0.0
H1164 H 0.71194 0.96117 0.36147 0.0
H1165 H 0.73641 0.99918 0.36836 0.0
C1166 C 0.71522 0.03842 0.39437 0.0
C1167 C 0.70126 0.05784 0.40795 0.0
C1168 C 0.70103 1.01673 0.38984 0.0
C1169 C 0.67273 0.05538 0.4167 0.0
C1170 C 0.65865 0.03369 0.41266 0.0
C1171 C 0.65894 0.99209 0.39564 0.0
C1172 C 0.67291 0.97272 0.38198 0.0
C1173 C 0.67268 1.01416 0.39941 0.0
C1174 C 0.70072 0.97582 0.37194 0.0
C1175 C 0.71475 0.99751 0.37598 0.0
H1176 H 0.04658 0.19062 0.84423 0.0
H1177 H 0.07176 0.13187 0.89471 0.0
H1178 H 0.02881 0.14303 0.92046 0.0
H1179 H 0.98016 0.16513 0.9243 0.0
H1180 H 0.95515 0.22349 0.87286 0.0
H1181 H 1.00222 0.21728 0.85215 0.0
C1182 C 0.04309 0.18086 0.86136 0.0
C1183 C 0.06211 0.16059 0.86777 0.0
C1184 C 0.01819 0.18712 0.87567 0.0
C1185 C 0.05747 0.14776 0.88972 0.0
C1186 C 0.03278 0.15399 0.90424 0.0
C1187 C 0.98525 0.17689 0.90893 0.0
C1188 C 0.96381 0.19441 0.89989 0.0
C1189 C 0.01234 0.17299 0.8968 0.0
C1190 C 0.97101 0.20969 0.88012 0.0
C1191 C 0.99793 0.20608 0.86814 0.0
H1192 H 0.84587 0.10912 0.22343 0.0
H1193 H 0.83619 0.08837 0.14724 0.0
H1194 H 0.855 0.04642 0.15703 0.0
H1195 H 0.87186 1.01495 0.18773 0.0
H1196 H 0.88046 0.03596 0.26392 0.0
H1197 H 0.86466 0.07832 0.25356 0.0
C1198 C 0.8482 0.09556 0.20884 0.0
C1199 C 0.83952 0.10205 0.18459 0.0
C1200 C 0.85869 0.07134 0.21465 0.0
C1201 C 0.84268 0.08404 0.16605 0.0
C1202 C 0.85333 0.05995 0.17167 0.0
C1203 C 0.87021 0.02876 0.20208 0.0
C1204 C 0.87734 1.02206 0.22663 0.0
C1205 C 0.86093 0.05326 0.19599 0.0
C1206 C 0.87548 0.04044 0.24486 0.0
C1207 C 0.86627 0.06474 0.23896 0.0
H1208 H 0.03173 0.38196 0.70526 0.0
H1209 H 0.07311 0.34426 0.6435 0.0
H1210 H 0.02604 0.32875 0.63139 0.0
H1211 H 0.97401 0.32344 0.64035 0.0
H1212 H 0.93451 0.3566 0.70541 0.0
H1213 H 0.97981 0.37648 0.71436 0.0
C1214 C 0.03022 0.37076 0.68886 0.0
C1215 C 0.05557 0.36466 0.67489 0.0
C1216 C 1.00347 0.36096 0.68283 0.0
C1217 C 0.05372 0.34945 0.65422 0.0
C1218 C 0.02688 0.34052 0.64742 0.0
C1219 C 0.9752 0.33537 0.65625 0.0
C1220 C 0.95083 0.33886 0.67205 0.0
C1221 C 1.00171 0.34582 0.66183 0.0
C1222 C 0.9529 0.35379 0.69294 0.0
C1223 C 0.97881 0.36511 0.69805 0.0
H1224 H 0.71887 0.49376 0.18346 0.0
H1225 H 0.65288 0.44378 0.20179 0.0
H1226 H 0.62696 0.47599 0.22663 0.0
H1227 H 0.62333 0.51879 0.24311 0.0
H1228 H 0.69136 0.56706 0.22497 0.0
H1229 H 0.71597 0.53511 0.20008 0.0
C1230 C 0.69874 0.48978 0.19275 0.0
C1231 C 0.68782 0.46632 0.19059 0.0
C1232 C 0.68425 0.50819 0.20711 0.0
C1233 C 0.66178 0.46166 0.20301 0.0
C1234 C 0.64699 0.48009 0.21727 0.0
C1235 C 0.64363 0.52224 0.23386 0.0
C1236 C 0.65513 0.54561 0.23579 0.0
C1237 C 0.65808 0.50348 0.21953 0.0
C1238 C 0.68147 0.54964 0.22349 0.0
C1239 C 0.69577 0.53125 0.20931 0.0
H1240 H 0.4998 0.15505 0.71607 0.0
H1241 H 0.42455 0.19533 0.68423 0.0
H1242 H 0.45679 0.22093 0.66099 0.0
H1243 H 0.50621 0.23311 0.65114 0.0
H1244 H 0.58146 0.19335 0.68358 0.0
H1245 H 0.54929 0.1663 0.70508 0.0
C1246 C 0.49037 0.16929 0.70391 0.0
C1247 C 0.45968 0.17324 0.702 0.0
C1248 C 0.50906 0.18414 0.69078 0.0
C1249 C 0.44801 0.19184 0.68613 0.0
C1250 C 0.46647 0.20654 0.67285 0.0
C1251 C 0.51567 0.21845 0.6628 0.0
C1252 C 0.54631 0.21539 0.66577 0.0
C1253 C 0.49701 0.20306 0.67527 0.0
C1254 C 0.55802 0.19622 0.68096 0.0
C1255 C 0.53961 0.18073 0.69329 0.0
H1256 H 0.39254 0.85783 0.49941 0.0
H1257 H 0.38915 0.77972 0.51008 0.0
H1258 H 0.37452 0.78629 0.5531 0.0
H1259 H 0.36033 0.81447 0.58719 0.0
H1260 H 0.36579 0.89261 0.57703 0.0
H1261 H 0.38218 0.88585 0.53459 0.0
C1262 C 0.38865 0.84231 0.51124 0.0
C1263 C 0.39174 0.81834 0.50156 0.0
C1264 C 0.38065 0.84624 0.53609 0.0
C1265 C 0.38707 0.79832 0.51714 0.0
C1266 C 0.37859 0.80208 0.54171 0.0
C1267 C 0.36539 0.83 0.57578 0.0
C1268 C 0.36165 0.85402 0.58534 0.0
C1269 C 0.37502 0.82598 0.55134 0.0
C1270 C 0.36853 0.87391 0.57027 0.0
C1271 C 0.37776 0.87008 0.54589 0.0
H1272 H 0.14827 0.80041 1.01897 0.0
H1273 H 0.14557 0.86485 0.06519 0.0
H1274 H 0.17019 0.88732 0.03329 0.0
H1275 H 0.19236 0.88904 0.99197 0.0
H1276 H 0.19449 0.82488 0.94547 0.0
H1277 H 0.16995 0.80226 0.97745 0.0
C1278 C 0.15277 0.81942 1.02203 0.0
C1279 C 0.14508 0.83072 0.04471 0.0
C1280 C 0.16689 0.83242 1.00343 0.0
C1281 C 0.15155 0.85539 0.04824 0.0
C1282 C 0.16555 0.86838 0.02988 0.0
C1283 C 0.18769 0.87006 0.98889 0.0
C1284 C 0.19532 0.85878 0.96621 0.0
C1285 C 0.17345 0.85709 1.00743 0.0
C1286 C 0.18863 0.83421 0.96253 0.0
C1287 C 0.17467 0.82118 0.98091 0.0
H1288 H 0.11422 0.66649 0.56527 0.0
H1289 H 0.20664 0.66081 0.58157 0.0
H1290 H 0.21764 0.66588 0.53759 0.0
H1291 H 0.20052 0.67482 0.49473 0.0
H1292 H 0.10774 0.68052 0.47967 0.0
H1293 H 0.09743 0.67271 0.52294 0.0
C1294 C 0.13685 0.66619 0.55929 0.0
C1295 C 0.15956 0.66343 0.57681 0.0
C1296 C 0.14293 0.66935 0.53413 0.0
C1297 C 0.18871 0.66287 0.56854 0.0
C1298 C 0.19498 0.66589 0.54337 0.0
C1299 C 0.17808 0.67401 0.50085 0.0
C1300 C 0.15491 0.67858 0.48387 0.0
C1301 C 0.17222 0.66954 0.52601 0.0
C1302 C 0.12597 0.67758 0.49229 0.0
C1303 C 0.12004 0.67299 0.51706 0.0
H1304 H 0.39368 0.71208 0.02609 0.0
H1305 H 0.32049 0.71433 0.07633 0.0
H1306 H 0.29034 0.69634 0.04503 0.0
H1307 H 0.28467 0.67929 1.00344 0.0
H1308 H 0.35769 0.67713 0.95306 0.0
H1309 H 0.38755 0.69607 0.98401 0.0
C1310 C 0.37107 0.70889 0.03012 0.0
C1311 C 0.35962 0.71439 0.05375 0.0
C1312 C 0.35366 0.69853 1.01191 0.0
C1313 C 0.33022 0.70988 0.05858 0.0
C1314 C 0.31282 0.69968 0.04059 0.0
C1315 C 0.30714 0.68285 0.99925 0.0
C1316 C 0.31875 0.67673 0.97583 0.0
C1317 C 0.32435 0.6937 1.01725 0.0
C1318 C 0.34789 0.68187 0.97072 0.0
C1319 C 0.36513 0.6926 0.98852 0.0
loop_
_geom_bond_atom_site_label_1
_geom_bond_atom_site_label_2
_geom_bond_distance
_geom_bond_site_symmetry_2
_ccdc_geom_bond_type
Cu0 N1 1.999 . S
Cu0 O6 1.974 . S
Cu0 N11 1.985 . S
Cu0 O20 1.959 . S
N1 Cu0 1.999 . S
N1 C3 1.263 . S
N1 C5 1.389 . S
N2 C3 1.358 . S
N2 C4 1.400 . S
C3 N1 1.263 . S
C3 N2 1.358 . S
C3 H9 0.930 . S
C4 N2 1.400 . S
C4 C5 1.351 . S
C4 H21 0.930 . S
C5 N1 1.389 . S
C5 C4 1.351 . S
C5 H10 0.930 . S
O6 Cu0 1.974 . S
O6 C16 1.282 . S
C7 O8 1.261 . S
C7 O20 1.251 . S
O8 C7 1.261 . S
H9 C3 0.930 . S
H10 C5 0.930 . S
N11 Cu0 1.985 . S
N11 C13 1.335 . S
N11 C14 1.390 . S
N12 C13 1.345 . S
N12 C15 1.336 . S
C13 N11 1.335 . S
C13 N12 1.345 . S
C13 H18 0.930 . S
C14 N11 1.390 . S
C14 C15 1.346 . S
C14 H19 0.930 . S
C15 N12 1.336 . S
C15 C14 1.346 . S
C15 H22 0.929 . S
C16 O6 1.282 . S
C16 O17 1.216 . S
O17 C16 1.216 . S
H18 C13 0.930 . S
H19 C14 0.930 . S
O20 Cu0 1.959 . S
O20 C7 1.251 . S
H21 C4 0.930 . S
H22 C15 0.929 . S
Cu23 N24 1.999 . S
Cu23 O29 1.974 . S
Cu23 N34 1.985 . S
Cu23 O43 1.959 . S
N24 Cu23 1.999 . S
N24 C26 1.263 . S
N24 C28 1.389 . S
N25 C26 1.358 . S
N25 C27 1.400 . S
C26 N24 1.263 . S
C26 N25 1.358 . S
C26 H32 0.930 . S
C27 N25 1.400 . S
C27 C28 1.351 . S
C27 H44 0.930 . S
C28 N24 1.389 . S
C28 C27 1.351 . S
C28 H33 0.930 . S
O29 Cu23 1.974 . S
O29 C39 1.282 . S
C30 O31 1.261 . S
C30 O43 1.251 . S
O31 C30 1.261 . S
H32 C26 0.930 . S
H33 C28 0.930 . S
N34 Cu23 1.985 . S
N34 C36 1.335 . S
N34 C37 1.390 . S
N35 C36 1.345 . S
N35 C38 1.336 . S
C36 N34 1.335 . S
C36 N35 1.345 . S
C36 H41 0.930 . S
C37 N34 1.390 . S
C37 C38 1.346 . S
C37 H42 0.930 . S
C38 N35 1.336 . S
C38 C37 1.346 . S
C38 H45 0.929 . S
C39 O29 1.282 . S
C39 O40 1.216 . S
O40 C39 1.216 . S
H41 C36 0.930 . S
H42 C37 0.930 . S
O43 Cu23 1.959 . S
O43 C30 1.251 . S
H44 C27 0.930 . S
H45 C38 0.929 . S
Cu46 N47 1.999 . S
Cu46 O52 1.974 . S
Cu46 N57 1.985 . S
Cu46 O66 1.959 . S
N47 Cu46 1.999 . S
N47 C49 1.263 . S
N47 C51 1.389 . S
N48 C49 1.358 . S
N48 C50 1.400 . S
C49 N47 1.263 . S
C49 N48 1.358 . S
C49 H55 0.930 . S
C50 N48 1.400 . S
C50 C51 1.351 . S
C50 H67 0.930 . S
C51 N47 1.389 . S
C51 C50 1.351 . S
C51 H56 0.930 . S
O52 Cu46 1.974 . S
O52 C62 1.282 . S
C53 O54 1.261 . S
C53 O66 1.251 . S
O54 C53 1.261 . S
H55 C49 0.930 . S
H56 C51 0.930 . S
N57 Cu46 1.985 . S
N57 C59 1.335 . S
N57 C60 1.390 . S
N58 C59 1.345 . S
N58 C61 1.336 . S
C59 N57 1.335 . S
C59 N58 1.345 . S
C59 H64 0.930 . S
C60 N57 1.390 . S
C60 C61 1.346 . S
C60 H65 0.930 . S
C61 N58 1.336 . S
C61 C60 1.346 . S
C61 H68 0.929 . S
C62 O52 1.282 . S
C62 O63 1.216 . S
O63 C62 1.216 . S
H64 C59 0.930 . S
H65 C60 0.930 . S
O66 Cu46 1.959 . S
O66 C53 1.251 . S
H67 C50 0.930 . S
H68 C61 0.929 . S
Cu69 N70 1.999 . S
Cu69 O75 1.974 . S
Cu69 N80 1.985 . S
Cu69 O89 1.959 . S
N70 Cu69 1.999 . S
N70 C72 1.263 . S
N70 C74 1.389 . S
N71 C72 1.358 . S
N71 C73 1.400 . S
C72 N70 1.263 . S
C72 N71 1.358 . S
C72 H78 0.930 . S
C73 N71 1.400 . S
C73 C74 1.351 . S
C73 H90 0.930 . S
C74 N70 1.389 . S
C74 C73 1.351 . S
C74 H79 0.930 . S
O75 Cu69 1.974 . S
O75 C85 1.282 . S
C76 O77 1.261 . S
C76 O89 1.251 . S
O77 C76 1.261 . S
H78 C72 0.930 . S
H79 C74 0.930 . S
N80 Cu69 1.985 . S
N80 C82 1.335 . S
N80 C83 1.390 . S
N81 C82 1.345 . S
N81 C84 1.336 . S
C82 N80 1.335 . S
C82 N81 1.345 . S
C82 H87 0.930 . S
C83 N80 1.390 . S
C83 C84 1.346 . S
C83 H88 0.930 . S
C84 N81 1.336 . S
C84 C83 1.346 . S
C84 H91 0.929 . S
C85 O75 1.282 . S
C85 O86 1.216 . S
O86 C85 1.216 . S
H87 C82 0.930 . S
H88 C83 0.930 . S
O89 Cu69 1.959 . S
O89 C76 1.251 . S
H90 C73 0.930 . S
H91 C84 0.929 . S
Cu92 N93 1.999 . S
Cu92 O98 1.974 . S
Cu92 N103 1.985 . S
Cu92 O112 1.959 . S
N93 Cu92 1.999 . S
N93 C95 1.263 . S
N93 C97 1.389 . S
N94 C95 1.358 . S
N94 C96 1.400 . S
C95 N93 1.263 . S
C95 N94 1.358 . S
C95 H101 0.930 . S
C96 N94 1.400 . S
C96 C97 1.351 . S
C96 H113 0.930 . S
C97 N93 1.389 . S
C97 C96 1.351 . S
C97 H102 0.930 . S
O98 Cu92 1.974 . S
O98 C108 1.282 . S
C99 O100 1.261 . S
C99 O112 1.251 . S
O100 C99 1.261 . S
H101 C95 0.930 . S
H102 C97 0.930 . S
N103 Cu92 1.985 . S
N103 C105 1.335 . S
N103 C106 1.390 . S
N104 C105 1.345 . S
N104 C107 1.336 . S
C105 N103 1.335 . S
C105 N104 1.345 . S
C105 H110 0.930 . S
C106 N103 1.390 . S
C106 C107 1.346 . S
C106 H111 0.930 . S
C107 N104 1.336 . S
C107 C106 1.346 . S
C107 H114 0.929 . S
C108 O98 1.282 . S
C108 O109 1.216 . S
O109 C108 1.216 . S
H110 C105 0.930 . S
H111 C106 0.930 . S
O112 Cu92 1.959 . S
O112 C99 1.251 . S
H113 C96 0.930 . S
H114 C107 0.929 . S
Cu115 N116 1.999 . S
Cu115 O121 1.974 . S
Cu115 N126 1.985 . S
Cu115 O135 1.959 . S
N116 Cu115 1.999 . S
N116 C118 1.263 . S
N116 C120 1.389 . S
N117 C118 1.358 . S
N117 C119 1.400 . S
C118 N116 1.263 . S
C118 N117 1.358 . S
C118 H124 0.930 . S
C119 N117 1.400 . S
C119 C120 1.351 . S
C119 H136 0.930 . S
C120 N116 1.389 . S
C120 C119 1.351 . S
C120 H125 0.930 . S
O121 Cu115 1.974 . S
O121 C131 1.282 . S
C122 O123 1.261 . S
C122 O135 1.251 . S
O123 C122 1.261 . S
H124 C118 0.930 . S
H125 C120 0.930 . S
N126 Cu115 1.985 . S
N126 C128 1.335 . S
N126 C129 1.390 . S
N127 C128 1.345 . S
N127 C130 1.336 . S
C128 N126 1.335 . S
C128 N127 1.345 . S
C128 H133 0.930 . S
C129 N126 1.390 . S
C129 C130 1.346 . S
C129 H134 0.930 . S
C130 N127 1.336 . S
C130 C129 1.346 . S
C130 H137 0.929 . S
C131 O121 1.282 . S
C131 O132 1.216 . S
O132 C131 1.216 . S
H133 C128 0.930 . S
H134 C129 0.930 . S
O135 Cu115 1.959 . S
O135 C122 1.251 . S
H136 C119 0.930 . S
H137 C130 0.929 . S
Cu138 N139 1.999 . S
Cu138 O144 1.974 . S
Cu138 N149 1.985 . S
Cu138 O158 1.959 . S
N139 Cu138 1.999 . S
N139 C141 1.263 . S
N139 C143 1.389 . S
N140 C141 1.358 . S
N140 C142 1.400 . S
C141 N139 1.263 . S
C141 N140 1.358 . S
C141 H147 0.930 . S
C142 N140 1.400 . S
C142 C143 1.351 . S
C142 H159 0.930 . S
C143 N139 1.389 . S
C143 C142 1.351 . S
C143 H148 0.930 . S
O144 Cu138 1.974 . S
O144 C154 1.282 . S
C145 O146 1.261 . S
C145 O158 1.251 . S
O146 C145 1.261 . S
H147 C141 0.930 . S
H148 C143 0.930 . S
N149 Cu138 1.985 . S
N149 C151 1.335 . S
N149 C152 1.390 . S
N150 C151 1.345 . S
N150 C153 1.336 . S
C151 N149 1.335 . S
C151 N150 1.345 . S
C151 H156 0.930 . S
C152 N149 1.390 . S
C152 C153 1.346 . S
C152 H157 0.930 . S
C153 N150 1.336 . S
C153 C152 1.346 . S
C153 H160 0.929 . S
C154 O144 1.282 . S
C154 O155 1.216 . S
O155 C154 1.216 . S
H156 C151 0.930 . S
H157 C152 0.930 . S
O158 Cu138 1.959 . S
O158 C145 1.251 . S
H159 C142 0.930 . S
H160 C153 0.929 . S
Cu161 N162 1.999 . S
Cu161 O167 1.974 . S
Cu161 N172 1.985 . S
Cu161 O181 1.959 . S
N162 Cu161 1.999 . S
N162 C164 1.263 . S
N162 C166 1.389 . S
N163 C164 1.358 . S
N163 C165 1.400 . S
C164 N162 1.263 . S
C164 N163 1.358 . S
C164 H170 0.930 . S
C165 N163 1.400 . S
C165 C166 1.351 . S
C165 H182 0.930 . S
C166 N162 1.389 . S
C166 C165 1.351 . S
C166 H171 0.930 . S
O167 Cu161 1.974 . S
O167 C177 1.282 . S
C168 O169 1.261 . S
C168 O181 1.251 . S
O169 C168 1.261 . S
H170 C164 0.930 . S
H171 C166 0.930 . S
N172 Cu161 1.985 . S
N172 C174 1.335 . S
N172 C175 1.390 . S
N173 C174 1.345 . S
N173 C176 1.336 . S
C174 N172 1.335 . S
C174 N173 1.345 . S
C174 H179 0.930 . S
C175 N172 1.390 . S
C175 C176 1.346 . S
C175 H180 0.930 . S
C176 N173 1.336 . S
C176 C175 1.346 . S
C176 H183 0.929 . S
C177 O167 1.282 . S
C177 O178 1.216 . S
O178 C177 1.216 . S
H179 C174 0.930 . S
H180 C175 0.930 . S
O181 Cu161 1.959 . S
O181 C168 1.251 . S
H182 C165 0.930 . S
H183 C176 0.929 . S
Cu184 N185 1.999 . S
Cu184 O190 1.974 . S
Cu184 N195 1.985 . S
Cu184 O204 1.959 . S
N185 Cu184 1.999 . S
N185 C187 1.263 . S
N185 C189 1.389 . S
N186 C187 1.358 . S
N186 C188 1.400 . S
C187 N185 1.263 . S
C187 N186 1.358 . S
C187 H193 0.930 . S
C188 N186 1.400 . S
C188 C189 1.351 . S
C188 H205 0.930 . S
C189 N185 1.389 . S
C189 C188 1.351 . S
C189 H194 0.930 . S
O190 Cu184 1.974 . S
O190 C200 1.282 . S
C191 O192 1.261 . S
C191 O204 1.251 . S
O192 C191 1.261 . S
H193 C187 0.930 . S
H194 C189 0.930 . S
N195 Cu184 1.985 . S
N195 C197 1.335 . S
N195 C198 1.390 . S
N196 C197 1.345 . S
N196 C199 1.336 . S
C197 N195 1.335 . S
C197 N196 1.345 . S
C197 H202 0.930 . S
C198 N195 1.390 . S
C198 C199 1.346 . S
C198 H203 0.930 . S
C199 N196 1.336 . S
C199 C198 1.346 . S
C199 H206 0.929 . S
C200 O190 1.282 . S
C200 O201 1.216 . S
O201 C200 1.216 . S
H202 C197 0.930 . S
H203 C198 0.930 . S
O204 Cu184 1.959 . S
O204 C191 1.251 . S
H205 C188 0.930 . S
H206 C199 0.929 . S
Cu207 N208 1.999 . S
Cu207 O213 1.974 . S
Cu207 N218 1.985 . S
Cu207 O227 1.959 . S
N208 Cu207 1.999 . S
N208 C210 1.263 . S
N208 C212 1.389 . S
N209 C210 1.358 . S
N209 C211 1.400 . S
C210 N208 1.263 . S
C210 N209 1.358 . S
C210 H216 0.930 . S
C211 N209 1.400 . S
C211 C212 1.351 . S
C211 H228 0.930 . S
C212 N208 1.389 . S
C212 C211 1.351 . S
C212 H217 0.930 . S
O213 Cu207 1.974 . S
O213 C223 1.282 . S
C214 O215 1.261 . S
C214 O227 1.251 . S
O215 C214 1.261 . S
H216 C210 0.930 . S
H217 C212 0.930 . S
N218 Cu207 1.985 . S
N218 C220 1.335 . S
N218 C221 1.390 . S
N219 C220 1.345 . S
N219 C222 1.336 . S
C220 N218 1.335 . S
C220 N219 1.345 . S
C220 H225 0.930 . S
C221 N218 1.390 . S
C221 C222 1.346 . S
C221 H226 0.930 . S
C222 N219 1.336 . S
C222 C221 1.346 . S
C222 H229 0.929 . S
C223 O213 1.282 . S
C223 O224 1.216 . S
O224 C223 1.216 . S
H225 C220 0.930 . S
H226 C221 0.930 . S
O227 Cu207 1.959 . S
O227 C214 1.251 . S
H228 C211 0.930 . S
H229 C222 0.929 . S
Cu230 N231 1.999 . S
Cu230 O236 1.974 . S
Cu230 N241 1.985 . S
Cu230 O250 1.959 . S
N231 Cu230 1.999 . S
N231 C233 1.263 . S
N231 C235 1.389 . S
N232 C233 1.358 . S
N232 C234 1.400 . S
C233 N231 1.263 . S
C233 N232 1.358 . S
C233 H239 0.930 . S
C234 N232 1.400 . S
C234 C235 1.351 . S
C234 H251 0.930 . S
C235 N231 1.389 . S
C235 C234 1.351 . S
C235 H240 0.930 . S
O236 Cu230 1.974 . S
O236 C246 1.282 . S
C237 O238 1.261 . S
C237 O250 1.251 . S
O238 C237 1.261 . S
H239 C233 0.930 . S
H240 C235 0.930 . S
N241 Cu230 1.985 . S
N241 C243 1.335 . S
N241 C244 1.390 . S
N242 C243 1.345 . S
N242 C245 1.336 . S
C243 N241 1.335 . S
C243 N242 1.345 . S
C243 H248 0.930 . S
C244 N241 1.390 . S
C244 C245 1.346 . S
C244 H249 0.930 . S
C245 N242 1.336 . S
C245 C244 1.346 . S
C245 H252 0.929 . S
C246 O236 1.282 . S
C246 O247 1.216 . S
O247 C246 1.216 . S
H248 C243 0.930 . S
H249 C244 0.930 . S
O250 Cu230 1.959 . S
O250 C237 1.251 . S
H251 C234 0.930 . S
H252 C245 0.929 . S
Cu253 N254 1.999 . S
Cu253 O259 1.974 . S
Cu253 N264 1.985 . S
Cu253 O273 1.959 . S
N254 Cu253 1.999 . S
N254 C256 1.263 . S
N254 C258 1.389 . S
N255 C256 1.358 . S
N255 C257 1.400 . S
C256 N254 1.263 . S
C256 N255 1.358 . S
C256 H262 0.930 . S
C257 N255 1.400 . S
C257 C258 1.351 . S
C257 H274 0.930 . S
C258 N254 1.389 . S
C258 C257 1.351 . S
C258 H263 0.930 . S
O259 Cu253 1.974 . S
O259 C269 1.282 . S
C260 O261 1.261 . S
C260 O273 1.251 . S
O261 C260 1.261 . S
H262 C256 0.930 . S
H263 C258 0.930 . S
N264 Cu253 1.985 . S
N264 C266 1.335 . S
N264 C267 1.390 . S
N265 C266 1.345 . S
N265 C268 1.336 . S
C266 N264 1.335 . S
C266 N265 1.345 . S
C266 H271 0.930 . S
C267 N264 1.390 . S
C267 C268 1.346 . S
C267 H272 0.930 . S
C268 N265 1.336 . S
C268 C267 1.346 . S
C268 H275 0.929 . S
C269 O259 1.282 . S
C269 O270 1.216 . S
O270 C269 1.216 . S
H271 C266 0.930 . S
H272 C267 0.930 . S
O273 Cu253 1.959 . S
O273 C260 1.251 . S
H274 C257 0.930 . S
H275 C268 0.929 . S
Cu276 N277 1.999 . S
Cu276 O282 1.974 . S
Cu276 N287 1.985 . S
Cu276 O296 1.959 . S
N277 Cu276 1.999 . S
N277 C279 1.263 . S
N277 C281 1.389 . S
N278 C279 1.358 . S
N278 C280 1.400 . S
C279 N277 1.263 . S
C279 N278 1.358 . S
C279 H285 0.930 . S
C280 N278 1.400 . S
C280 C281 1.351 . S
C280 H297 0.930 . S
C281 N277 1.389 . S
C281 C280 1.351 . S
C281 H286 0.930 . S
O282 Cu276 1.974 . S
O282 C292 1.282 . S
C283 O284 1.261 . S
C283 O296 1.251 . S
O284 C283 1.261 . S
H285 C279 0.930 . S
H286 C281 0.930 . S
N287 Cu276 1.985 . S
N287 C289 1.335 . S
N287 C290 1.390 . S
N288 C289 1.345 . S
N288 C291 1.336 . S
C289 N287 1.335 . S
C289 N288 1.345 . S
C289 H294 0.930 . S
C290 N287 1.390 . S
C290 C291 1.346 . S
C290 H295 0.930 . S
C291 N288 1.336 . S
C291 C290 1.346 . S
C291 H298 0.929 . S
C292 O282 1.282 . S
C292 O293 1.216 . S
O293 C292 1.216 . S
H294 C289 0.930 . S
H295 C290 0.930 . S
O296 Cu276 1.959 . S
O296 C283 1.251 . S
H297 C280 0.930 . S
H298 C291 0.929 . S
Cu299 N300 1.999 . S
Cu299 O305 1.974 . S
Cu299 N310 1.985 . S
Cu299 O319 1.959 . S
N300 Cu299 1.999 . S
N300 C302 1.263 . S
N300 C304 1.389 . S
N301 C302 1.358 . S
N301 C303 1.400 . S
C302 N300 1.263 . S
C302 N301 1.358 . S
C302 H308 0.930 . S
C303 N301 1.400 . S
C303 C304 1.351 . S
C303 H320 0.930 . S
C304 N300 1.389 . S
C304 C303 1.351 . S
C304 H309 0.930 . S
O305 Cu299 1.974 . S
O305 C315 1.282 . S
C306 O307 1.261 . S
C306 O319 1.251 . S
O307 C306 1.261 . S
H308 C302 0.930 . S
H309 C304 0.930 . S
N310 Cu299 1.985 . S
N310 C312 1.335 . S
N310 C313 1.390 . S
N311 C312 1.345 . S
N311 C314 1.336 . S
C312 N310 1.335 . S
C312 N311 1.345 . S
C312 H317 0.930 . S
C313 N310 1.390 . S
C313 C314 1.346 . S
C313 H318 0.930 . S
C314 N311 1.336 . S
C314 C313 1.346 . S
C314 H321 0.929 . S
C315 O305 1.282 . S
C315 O316 1.216 . S
O316 C315 1.216 . S
H317 C312 0.930 . S
H318 C313 0.930 . S
O319 Cu299 1.959 . S
O319 C306 1.251 . S
H320 C303 0.930 . S
H321 C314 0.929 . S
Cu322 N323 1.999 . S
Cu322 O328 1.974 . S
Cu322 N333 1.985 . S
Cu322 O342 1.959 . S
N323 Cu322 1.999 . S
N323 C325 1.263 . S
N323 C327 1.389 . S
N324 C325 1.358 . S
N324 C326 1.400 . S
C325 N323 1.263 . S
C325 N324 1.358 . S
C325 H331 0.930 . S
C326 N324 1.400 . S
C326 C327 1.351 . S
C326 H343 0.930 . S
C327 N323 1.389 . S
C327 C326 1.351 . S
C327 H332 0.930 . S
O328 Cu322 1.974 . S
O328 C338 1.282 . S
C329 O330 1.261 . S
C329 O342 1.251 . S
O330 C329 1.261 . S
H331 C325 0.930 . S
H332 C327 0.930 . S
N333 Cu322 1.985 . S
N333 C335 1.335 . S
N333 C336 1.390 . S
N334 C335 1.345 . S
N334 C337 1.336 . S
C335 N333 1.335 . S
C335 N334 1.345 . S
C335 H340 0.930 . S
C336 N333 1.390 . S
C336 C337 1.346 . S
C336 H341 0.930 . S
C337 N334 1.336 . S
C337 C336 1.346 . S
C337 H344 0.929 . S
C338 O328 1.282 . S
C338 O339 1.216 . S
O339 C338 1.216 . S
H340 C335 0.930 . S
H341 C336 0.930 . S
O342 Cu322 1.959 . S
O342 C329 1.251 . S
H343 C326 0.930 . S
H344 C337 0.929 . S
Cu345 N346 1.999 . S
Cu345 O351 1.974 . S
Cu345 N356 1.985 . S
Cu345 O365 1.959 . S
N346 Cu345 1.999 . S
N346 C348 1.263 . S
N346 C350 1.389 . S
N347 C348 1.358 . S
N347 C349 1.400 . S
C348 N346 1.263 . S
C348 N347 1.358 . S
C348 H354 0.930 . S
C349 N347 1.400 . S
C349 C350 1.351 . S
C349 H366 0.930 . S
C350 N346 1.389 . S
C350 C349 1.351 . S
C350 H355 0.930 . S
O351 Cu345 1.974 . S
O351 C361 1.282 . S
C352 O353 1.261 . S
C352 O365 1.251 . S
O353 C352 1.261 . S
H354 C348 0.930 . S
H355 C350 0.930 . S
N356 Cu345 1.985 . S
N356 C358 1.335 . S
N356 C359 1.390 . S
N357 C358 1.345 . S
N357 C360 1.336 . S
C358 N356 1.335 . S
C358 N357 1.345 . S
C358 H363 0.930 . S
C359 N356 1.390 . S
C359 C360 1.346 . S
C359 H364 0.930 . S
C360 N357 1.336 . S
C360 C359 1.346 . S
C360 H367 0.929 . S
C361 O351 1.282 . S
C361 O362 1.216 . S
O362 C361 1.216 . S
H363 C358 0.930 . S
H364 C359 0.930 . S
O365 Cu345 1.959 . S
O365 C352 1.251 . S
H366 C349 0.930 . S
H367 C360 0.929 . S
Cu368 N369 1.999 . S
Cu368 O374 1.974 . S
Cu368 N379 1.985 . S
Cu368 O388 1.959 . S
N369 Cu368 1.999 . S
N369 C371 1.263 . S
N369 C373 1.389 . S
N370 C371 1.358 . S
N370 C372 1.400 . S
C371 N369 1.263 . S
C371 N370 1.358 . S
C371 H377 0.930 . S
C372 N370 1.400 . S
C372 C373 1.351 . S
C372 H389 0.930 . S
C373 N369 1.389 . S
C373 C372 1.351 . S
C373 H378 0.930 . S
O374 Cu368 1.974 . S
O374 C384 1.282 . S
C375 O376 1.261 . S
C375 O388 1.251 . S
O376 C375 1.261 . S
H377 C371 0.930 . S
H378 C373 0.930 . S
N379 Cu368 1.985 . S
N379 C381 1.335 . S
N379 C382 1.390 . S
N380 C381 1.345 . S
N380 C383 1.336 . S
C381 N379 1.335 . S
C381 N380 1.345 . S
C381 H386 0.930 . S
C382 N379 1.390 . S
C382 C383 1.346 . S
C382 H387 0.930 . S
C383 N380 1.336 . S
C383 C382 1.346 . S
C383 H390 0.929 . S
C384 O374 1.282 . S
C384 O385 1.216 . S
O385 C384 1.216 . S
H386 C381 0.930 . S
H387 C382 0.930 . S
O388 Cu368 1.959 . S
O388 C375 1.251 . S
H389 C372 0.930 . S
H390 C383 0.929 . S
Cu391 N392 1.999 . S
Cu391 O397 1.974 . S
Cu391 N402 1.985 . S
Cu391 O411 1.959 . S
N392 Cu391 1.999 . S
N392 C394 1.263 . S
N392 C396 1.389 . S
N393 C394 1.358 . S
N393 C395 1.400 . S
C394 N392 1.263 . S
C394 N393 1.358 . S
C394 H400 0.930 . S
C395 N393 1.400 . S
C395 C396 1.351 . S
C395 H412 0.930 . S
C396 N392 1.389 . S
C396 C395 1.351 . S
C396 H401 0.930 . S
O397 Cu391 1.974 . S
O397 C407 1.282 . S
C398 O399 1.261 . S
C398 O411 1.251 . S
O399 C398 1.261 . S
H400 C394 0.930 . S
H401 C396 0.930 . S
N402 Cu391 1.985 . S
N402 C404 1.335 . S
N402 C405 1.390 . S
N403 C404 1.345 . S
N403 C406 1.336 . S
C404 N402 1.335 . S
C404 N403 1.345 . S
C404 H409 0.930 . S
C405 N402 1.390 . S
C405 C406 1.346 . S
C405 H410 0.930 . S
C406 N403 1.336 . S
C406 C405 1.346 . S
C406 H413 0.929 . S
C407 O397 1.282 . S
C407 O408 1.216 . S
O408 C407 1.216 . S
H409 C404 0.930 . S
H410 C405 0.930 . S
O411 Cu391 1.959 . S
O411 C398 1.251 . S
H412 C395 0.930 . S
H413 C406 0.929 . S
Cu414 N415 1.999 . S
Cu414 O420 1.974 . S
Cu414 N425 1.985 . S
Cu414 O434 1.959 . S
N415 Cu414 1.999 . S
N415 C417 1.263 . S
N415 C419 1.389 . S
N416 C417 1.358 . S
N416 C418 1.400 . S
C417 N415 1.263 . S
C417 N416 1.358 . S
C417 H423 0.930 . S
C418 N416 1.400 . S
C418 C419 1.351 . S
C418 H435 0.930 . S
C419 N415 1.389 . S
C419 C418 1.351 . S
C419 H424 0.930 . S
O420 Cu414 1.974 . S
O420 C430 1.282 . S
C421 O422 1.261 . S
C421 O434 1.251 . S
O422 C421 1.261 . S
H423 C417 0.930 . S
H424 C419 0.930 . S
N425 Cu414 1.985 . S
N425 C427 1.335 . S
N425 C428 1.390 . S
N426 C427 1.345 . S
N426 C429 1.336 . S
C427 N425 1.335 . S
C427 N426 1.345 . S
C427 H432 0.930 . S
C428 N425 1.390 . S
C428 C429 1.346 . S
C428 H433 0.930 . S
C429 N426 1.336 . S
C429 C428 1.346 . S
C429 H436 0.929 . S
C430 O420 1.282 . S
C430 O431 1.216 . S
O431 C430 1.216 . S
H432 C427 0.930 . S
H433 C428 0.930 . S
O434 Cu414 1.959 . S
O434 C421 1.251 . S
H435 C418 0.930 . S
H436 C429 0.929 . S
Cu437 N438 1.999 . S
Cu437 O443 1.974 . S
Cu437 N448 1.985 . S
Cu437 O457 1.959 . S
N438 Cu437 1.999 . S
N438 C440 1.263 . S
N438 C442 1.389 . S
N439 C440 1.358 . S
N439 C441 1.400 . S
C440 N438 1.263 . S
C440 N439 1.358 . S
C440 H446 0.930 . S
C441 N439 1.400 . S
C441 C442 1.351 . S
C441 H458 0.930 . S
C442 N438 1.389 . S
C442 C441 1.351 . S
C442 H447 0.930 . S
O443 Cu437 1.974 . S
O443 C453 1.282 . S
C444 O445 1.261 . S
C444 O457 1.251 . S
O445 C444 1.261 . S
H446 C440 0.930 . S
H447 C442 0.930 . S
N448 Cu437 1.985 . S
N448 C450 1.335 . S
N448 C451 1.390 . S
N449 C450 1.345 . S
N449 C452 1.336 . S
C450 N448 1.335 . S
C450 N449 1.345 . S
C450 H455 0.930 . S
C451 N448 1.390 . S
C451 C452 1.346 . S
C451 H456 0.930 . S
C452 N449 1.336 . S
C452 C451 1.346 . S
C452 H459 0.929 . S
C453 O443 1.282 . S
C453 O454 1.216 . S
O454 C453 1.216 . S
H455 C450 0.930 . S
H456 C451 0.930 . S
O457 Cu437 1.959 . S
O457 C444 1.251 . S
H458 C441 0.930 . S
H459 C452 0.929 . S
Cu460 N461 1.999 . S
Cu460 O466 1.974 . S
Cu460 N471 1.985 . S
Cu460 O480 1.959 . S
N461 Cu460 1.999 . S
N461 C463 1.263 . S
N461 C465 1.389 . S
N462 C463 1.358 . S
N462 C464 1.400 . S
C463 N461 1.263 . S
C463 N462 1.358 . S
C463 H469 0.930 . S
C464 N462 1.400 . S
C464 C465 1.351 . S
C464 H481 0.930 . S
C465 N461 1.389 . S
C465 C464 1.351 . S
C465 H470 0.930 . S
O466 Cu460 1.974 . S
O466 C476 1.282 . S
C467 O468 1.261 . S
C467 O480 1.251 . S
O468 C467 1.261 . S
H469 C463 0.930 . S
H470 C465 0.930 . S
N471 Cu460 1.985 . S
N471 C473 1.335 . S
N471 C474 1.390 . S
N472 C473 1.345 . S
N472 C475 1.336 . S
C473 N471 1.335 . S
C473 N472 1.345 . S
C473 H478 0.930 . S
C474 N471 1.390 . S
C474 C475 1.346 . S
C474 H479 0.930 . S
C475 N472 1.336 . S
C475 C474 1.346 . S
C475 H482 0.929 . S
C476 O466 1.282 . S
C476 O477 1.216 . S
O477 C476 1.216 . S
H478 C473 0.930 . S
H479 C474 0.930 . S
O480 Cu460 1.959 . S
O480 C467 1.251 . S
H481 C464 0.930 . S
H482 C475 0.929 . S
Cu483 N484 1.999 . S
Cu483 O489 1.974 . S
Cu483 N494 1.985 . S
Cu483 O503 1.959 . S
N484 Cu483 1.999 . S
N484 C486 1.263 . S
N484 C488 1.389 . S
N485 C486 1.358 . S
N485 C487 1.400 . S
C486 N484 1.263 . S
C486 N485 1.358 . S
C486 H492 0.930 . S
C487 N485 1.400 . S
C487 C488 1.351 . S
C487 H504 0.930 . S
C488 N484 1.389 . S
C488 C487 1.351 . S
C488 H493 0.930 . S
O489 Cu483 1.974 . S
O489 C499 1.282 . S
C490 O491 1.261 . S
C490 O503 1.251 . S
O491 C490 1.261 . S
H492 C486 0.930 . S
H493 C488 0.930 . S
N494 Cu483 1.985 . S
N494 C496 1.335 . S
N494 C497 1.390 . S
N495 C496 1.345 . S
N495 C498 1.336 . S
C496 N494 1.335 . S
C496 N495 1.345 . S
C496 H501 0.930 . S
C497 N494 1.390 . S
C497 C498 1.346 . S
C497 H502 0.930 . S
C498 N495 1.336 . S
C498 C497 1.346 . S
C498 H505 0.929 . S
C499 O489 1.282 . S
C499 O500 1.216 . S
O500 C499 1.216 . S
H501 C496 0.930 . S
H502 C497 0.930 . S
O503 Cu483 1.959 . S
O503 C490 1.251 . S
H504 C487 0.930 . S
H505 C498 0.929 . S
Cu506 N507 1.999 . S
Cu506 O512 1.974 . S
Cu506 N517 1.985 . S
Cu506 O526 1.959 . S
N507 Cu506 1.999 . S
N507 C509 1.263 . S
N507 C511 1.389 . S
N508 C509 1.358 . S
N508 C510 1.400 . S
C509 N507 1.263 . S
C509 N508 1.358 . S
C509 H515 0.930 . S
C510 N508 1.400 . S
C510 C511 1.351 . S
C510 H527 0.930 . S
C511 N507 1.389 . S
C511 C510 1.351 . S
C511 H516 0.930 . S
O512 Cu506 1.974 . S
O512 C522 1.282 . S
C513 O514 1.261 . S
C513 O526 1.251 . S
O514 C513 1.261 . S
H515 C509 0.930 . S
H516 C511 0.930 . S
N517 Cu506 1.985 . S
N517 C519 1.335 . S
N517 C520 1.390 . S
N518 C519 1.345 . S
N518 C521 1.336 . S
C519 N517 1.335 . S
C519 N518 1.345 . S
C519 H524 0.930 . S
C520 N517 1.390 . S
C520 C521 1.346 . S
C520 H525 0.930 . S
C521 N518 1.336 . S
C521 C520 1.346 . S
C521 H528 0.929 . S
C522 O512 1.282 . S
C522 O523 1.216 . S
O523 C522 1.216 . S
H524 C519 0.930 . S
H525 C520 0.930 . S
O526 Cu506 1.959 . S
O526 C513 1.251 . S
H527 C510 0.930 . S
H528 C521 0.929 . S
Cu529 N530 1.999 . S
Cu529 O535 1.974 . S
Cu529 N540 1.985 . S
Cu529 O549 1.959 . S
N530 Cu529 1.999 . S
N530 C532 1.263 . S
N530 C534 1.389 . S
N531 C532 1.358 . S
N531 C533 1.400 . S
C532 N530 1.263 . S
C532 N531 1.358 . S
C532 H538 0.930 . S
C533 N531 1.400 . S
C533 C534 1.351 . S
C533 H550 0.930 . S
C534 N530 1.389 . S
C534 C533 1.351 . S
C534 H539 0.930 . S
O535 Cu529 1.974 . S
O535 C545 1.282 . S
C536 O537 1.261 . S
C536 O549 1.251 . S
O537 C536 1.261 . S
H538 C532 0.930 . S
H539 C534 0.930 . S
N540 Cu529 1.985 . S
N540 C542 1.335 . S
N540 C543 1.390 . S
N541 C542 1.345 . S
N541 C544 1.336 . S
C542 N540 1.335 . S
C542 N541 1.345 . S
C542 H547 0.930 . S
C543 N540 1.390 . S
C543 C544 1.346 . S
C543 H548 0.930 . S
C544 N541 1.336 . S
C544 C543 1.346 . S
C544 H551 0.929 . S
C545 O535 1.282 . S
C545 O546 1.216 . S
O546 C545 1.216 . S
H547 C542 0.930 . S
H548 C543 0.930 . S
O549 Cu529 1.959 . S
O549 C536 1.251 . S
H550 C533 0.930 . S
H551 C544 0.929 . S
H552 C558 0.930 . S
H553 C561 0.930 . S
H554 C562 0.930 . S
H555 C563 0.930 . S
H556 C566 0.930 . S
H557 C567 0.930 . S
C558 H552 0.930 . S
C558 C559 1.355 . S
C558 C560 1.415 . S
C559 C558 1.355 . S
C559 C561 1.419 . S
C560 C558 1.415 . S
C560 C565 1.425 . S
C560 C567 1.409 . S
C561 H553 0.930 . S
C561 C559 1.419 . S
C561 C562 1.362 . S
C562 H554 0.930 . S
C562 C561 1.362 . S
C562 C565 1.409 . S
C563 H555 0.930 . S
C563 C564 1.355 . S
C563 C565 1.415 . S
C564 C563 1.355 . S
C564 C566 1.419 . S
C565 C560 1.425 . S
C565 C562 1.409 . S
C565 C563 1.415 . S
C566 H556 0.930 . S
C566 C564 1.419 . S
C566 C567 1.362 . S
C567 H557 0.930 . S
C567 C560 1.409 . S
C567 C566 1.362 . S
H568 C574 0.930 . S
H569 C577 0.930 . S
H570 C578 0.930 . S
H571 C579 0.930 . S
H572 C582 0.930 . S
H573 C583 0.930 . S
C574 H568 0.930 . S
C574 C575 1.355 . S
C574 C576 1.415 . S
C575 C574 1.355 . S
C575 C577 1.419 . S
C576 C574 1.415 . S
C576 C581 1.425 . S
C576 C583 1.409 . S
C577 H569 0.930 . S
C577 C575 1.419 . S
C577 C578 1.362 . S
C578 H570 0.930 . S
C578 C577 1.362 . S
C578 C581 1.409 . S
C579 H571 0.930 . S
C579 C580 1.355 . S
C579 C581 1.415 . S
C580 C579 1.355 . S
C580 C582 1.419 . S
C581 C576 1.425 . S
C581 C578 1.409 . S
C581 C579 1.415 . S
C582 H572 0.930 . S
C582 C580 1.419 . S
C582 C583 1.362 . S
C583 H573 0.930 . S
C583 C576 1.409 . S
C583 C582 1.362 . S
H584 C590 0.930 . S
H585 C593 0.930 . S
H586 C594 0.930 . S
H587 C595 0.930 . S
H588 C598 0.930 . S
H589 C599 0.930 . S
C590 H584 0.930 . S
C590 C591 1.355 . S
C590 C592 1.415 . S
C591 C590 1.355 . S
C591 C593 1.419 . S
C592 C590 1.415 . S
C592 C597 1.425 . S
C592 C599 1.409 . S
C593 H585 0.930 . S
C593 C591 1.419 . S
C593 C594 1.362 . S
C594 H586 0.930 . S
C594 C593 1.362 . S
C594 C597 1.409 . S
C595 H587 0.930 . S
C595 C596 1.355 . S
C595 C597 1.415 . S
C596 C595 1.355 . S
C596 C598 1.419 . S
C597 C592 1.425 . S
C597 C594 1.409 . S
C597 C595 1.415 . S
C598 H588 0.930 . S
C598 C596 1.419 . S
C598 C599 1.362 . S
C599 H589 0.930 . S
C599 C592 1.409 . S
C599 C598 1.362 . S
H600 C606 0.930 . S
H601 C609 0.930 . S
H602 C610 0.930 . S
H603 C611 0.930 . S
H604 C614 0.930 . S
H605 C615 0.930 . S
C606 H600 0.930 . S
C606 C607 1.355 . S
C606 C608 1.415 . S
C607 C606 1.355 . S
C607 C609 1.419 . S
C608 C606 1.415 . S
C608 C613 1.425 . S
C608 C615 1.409 . S
C609 H601 0.930 . S
C609 C607 1.419 . S
C609 C610 1.362 . S
C610 H602 0.930 . S
C610 C609 1.362 . S
C610 C613 1.409 . S
C611 H603 0.930 . S
C611 C612 1.355 . S
C611 C613 1.415 . S
C612 C611 1.355 . S
C612 C614 1.419 . S
C613 C608 1.425 . S
C613 C610 1.409 . S
C613 C611 1.415 . S
C614 H604 0.930 . S
C614 C612 1.419 . S
C614 C615 1.362 . S
C615 H605 0.930 . S
C615 C608 1.409 . S
C615 C614 1.362 . S
H616 C622 0.930 . S
H617 C625 0.930 . S
H618 C626 0.930 . S
H619 C627 0.930 . S
H620 C630 0.930 . S
H621 C631 0.930 . S
C622 H616 0.930 . S
C622 C623 1.355 . S
C622 C624 1.415 . S
C623 C622 1.355 . S
C623 C625 1.419 . S
C624 C622 1.415 . S
C624 C629 1.425 . S
C624 C631 1.409 . S
C625 H617 0.930 . S
C625 C623 1.419 . S
C625 C626 1.362 . S
C626 H618 0.930 . S
C626 C625 1.362 . S
C626 C629 1.409 . S
C627 H619 0.930 . S
C627 C628 1.355 . S
C627 C629 1.415 . S
C628 C627 1.355 . S
C628 C630 1.419 . S
C629 C624 1.425 . S
C629 C626 1.409 . S
C629 C627 1.415 . S
C630 H620 0.930 . S
C630 C628 1.419 . S
C630 C631 1.362 . S
C631 H621 0.930 . S
C631 C624 1.409 . S
C631 C630 1.362 . S
H632 C638 0.930 . S
H633 C641 0.930 . S
H634 C642 0.930 . S
H635 C643 0.930 . S
H636 C646 0.930 . S
H637 C647 0.930 . S
C638 H632 0.930 . S
C638 C639 1.355 . S
C638 C640 1.415 . S
C639 C638 1.355 . S
C639 C641 1.419 . S
C640 C638 1.415 . S
C640 C645 1.425 . S
C640 C647 1.409 . S
C641 H633 0.930 . S
C641 C639 1.419 . S
C641 C642 1.362 . S
C642 H634 0.930 . S
C642 C641 1.362 . S
C642 C645 1.409 . S
C643 H635 0.930 . S
C643 C644 1.355 . S
C643 C645 1.415 . S
C644 C643 1.355 . S
C644 C646 1.419 . S
C645 C640 1.425 . S
C645 C642 1.409 . S
C645 C643 1.415 . S
C646 H636 0.930 . S
C646 C644 1.419 . S
C646 C647 1.362 . S
C647 H637 0.930 . S
C647 C640 1.409 . S
C647 C646 1.362 . S
H648 C654 0.930 . S
H649 C657 0.930 . S
H650 C658 0.930 . S
H651 C659 0.930 . S
H652 C662 0.930 . S
H653 C663 0.930 . S
C654 H648 0.930 . S
C654 C655 1.355 . S
C654 C656 1.415 . S
C655 C654 1.355 . S
C655 C657 1.419 . S
C656 C654 1.415 . S
C656 C661 1.425 . S
C656 C663 1.409 . S
C657 H649 0.930 . S
C657 C655 1.419 . S
C657 C658 1.362 . S
C658 H650 0.930 . S
C658 C657 1.362 . S
C658 C661 1.409 . S
C659 H651 0.930 . S
C659 C660 1.355 . S
C659 C661 1.415 . S
C660 C659 1.355 . S
C660 C662 1.419 . S
C661 C656 1.425 . S
C661 C658 1.409 . S
C661 C659 1.415 . S
C662 H652 0.930 . S
C662 C660 1.419 . S
C662 C663 1.362 . S
C663 H653 0.930 . S
C663 C656 1.409 . S
C663 C662 1.362 . S
H664 C670 0.930 . S
H665 C673 0.930 . S
H666 C674 0.930 . S
H667 C675 0.930 . S
H668 C678 0.930 . S
H669 C679 0.930 . S
C670 H664 0.930 . S
C670 C671 1.355 . S
C670 C672 1.415 . S
C671 C670 1.355 . S
C671 C673 1.419 . S
C672 C670 1.415 . S
C672 C677 1.425 . S
C672 C679 1.409 . S
C673 H665 0.930 . S
C673 C671 1.419 . S
C673 C674 1.362 . S
C674 H666 0.930 . S
C674 C673 1.362 . S
C674 C677 1.409 . S
C675 H667 0.930 . S
C675 C676 1.355 . S
C675 C677 1.415 . S
C676 C675 1.355 . S
C676 C678 1.419 . S
C677 C672 1.425 . S
C677 C674 1.409 . S
C677 C675 1.415 . S
C678 H668 0.930 . S
C678 C676 1.419 . S
C678 C679 1.362 . S
C679 H669 0.930 . S
C679 C672 1.409 . S
C679 C678 1.362 . S
H680 C686 0.930 . S
H681 C689 0.930 . S
H682 C690 0.930 . S
H683 C691 0.930 . S
H684 C694 0.930 . S
H685 C695 0.930 . S
C686 H680 0.930 . S
C686 C687 1.355 . S
C686 C688 1.415 . S
C687 C686 1.355 . S
C687 C689 1.419 . S
C688 C686 1.415 . S
C688 C693 1.425 . S
C688 C695 1.409 . S
C689 H681 0.930 . S
C689 C687 1.419 . S
C689 C690 1.362 . S
C690 H682 0.930 . S
C690 C689 1.362 . S
C690 C693 1.409 . S
C691 H683 0.930 . S
C691 C692 1.355 . S
C691 C693 1.415 . S
C692 C691 1.355 . S
C692 C694 1.419 . S
C693 C688 1.425 . S
C693 C690 1.409 . S
C693 C691 1.415 . S
C694 H684 0.930 . S
C694 C692 1.419 . S
C694 C695 1.362 . S
C695 H685 0.930 . S
C695 C688 1.409 . S
C695 C694 1.362 . S
H696 C702 0.930 . S
H697 C705 0.930 . S
H698 C706 0.930 . S
H699 C707 0.930 . S
H700 C710 0.930 . S
H701 C711 0.930 . S
C702 H696 0.930 . S
C702 C703 1.355 . S
C702 C704 1.415 . S
C703 C702 1.355 . S
C703 C705 1.419 . S
C704 C702 1.415 . S
C704 C709 1.425 . S
C704 C711 1.409 . S
C705 H697 0.930 . S
C705 C703 1.419 . S
C705 C706 1.362 . S
C706 H698 0.930 . S
C706 C705 1.362 . S
C706 C709 1.409 . S
C707 H699 0.930 . S
C707 C708 1.355 . S
C707 C709 1.415 . S
C708 C707 1.355 . S
C708 C710 1.419 . S
C709 C704 1.425 . S
C709 C706 1.409 . S
C709 C707 1.415 . S
C710 H700 0.930 . S
C710 C708 1.419 . S
C710 C711 1.362 . S
C711 H701 0.930 . S
C711 C704 1.409 . S
C711 C710 1.362 . S
H712 C718 0.930 . S
H713 C721 0.930 . S
H714 C722 0.930 . S
H715 C723 0.930 . S
H716 C726 0.930 . S
H717 C727 0.930 . S
C718 H712 0.930 . S
C718 C719 1.355 . S
C718 C720 1.415 . S
C719 C718 1.355 . S
C719 C721 1.419 . S
C720 C718 1.415 . S
C720 C725 1.425 . S
C720 C727 1.409 . S
C721 H713 0.930 . S
C721 C719 1.419 . S
C721 C722 1.362 . S
C722 H714 0.930 . S
C722 C721 1.362 . S
C722 C725 1.409 . S
C723 H715 0.930 . S
C723 C724 1.355 . S
C723 C725 1.415 . S
C724 C723 1.355 . S
C724 C726 1.419 . S
C725 C720 1.425 . S
C725 C722 1.409 . S
C725 C723 1.415 . S
C726 H716 0.930 . S
C726 C724 1.419 . S
C726 C727 1.362 . S
C727 H717 0.930 . S
C727 C720 1.409 . S
C727 C726 1.362 . S
H728 C734 0.930 . S
H729 C737 0.930 . S
H730 C738 0.930 . S
H731 C739 0.930 . S
H732 C742 0.930 . S
H733 C743 0.930 . S
C734 H728 0.930 . S
C734 C735 1.355 . S
C734 C736 1.415 . S
C735 C734 1.355 . S
C735 C737 1.419 . S
C736 C734 1.415 . S
C736 C741 1.425 . S
C736 C743 1.409 . S
C737 H729 0.930 . S
C737 C735 1.419 . S
C737 C738 1.362 . S
C738 H730 0.930 . S
C738 C737 1.362 . S
C738 C741 1.409 . S
C739 H731 0.930 . S
C739 C740 1.355 . S
C739 C741 1.415 . S
C740 C739 1.355 . S
C740 C742 1.419 . S
C741 C736 1.425 . S
C741 C738 1.409 . S
C741 C739 1.415 . S
C742 H732 0.930 . S
C742 C740 1.419 . S
C742 C743 1.362 . S
C743 H733 0.930 . S
C743 C736 1.409 . S
C743 C742 1.362 . S
H744 C750 0.930 . S
H745 C753 0.930 . S
H746 C754 0.930 . S
H747 C755 0.930 . S
H748 C758 0.930 . S
H749 C759 0.930 . S
C750 H744 0.930 . S
C750 C751 1.355 . S
C750 C752 1.415 . S
C751 C750 1.355 . S
C751 C753 1.419 . S
C752 C750 1.415 . S
C752 C757 1.425 . S
C752 C759 1.409 . S
C753 H745 0.930 . S
C753 C751 1.419 . S
C753 C754 1.362 . S
C754 H746 0.930 . S
C754 C753 1.362 . S
C754 C757 1.409 . S
C755 H747 0.930 . S
C755 C756 1.355 . S
C755 C757 1.415 . S
C756 C755 1.355 . S
C756 C758 1.419 . S
C757 C752 1.425 . S
C757 C754 1.409 . S
C757 C755 1.415 . S
C758 H748 0.930 . S
C758 C756 1.419 . S
C758 C759 1.362 . S
C759 H749 0.930 . S
C759 C752 1.409 . S
C759 C758 1.362 . S
H760 C766 0.930 . S
H761 C769 0.930 . S
H762 C770 0.930 . S
H763 C771 0.930 . S
H764 C774 0.930 . S
H765 C775 0.930 . S
C766 H760 0.930 . S
C766 C767 1.355 . S
C766 C768 1.415 . S
C767 C766 1.355 . S
C767 C769 1.419 . S
C768 C766 1.415 . S
C768 C773 1.425 . S
C768 C775 1.409 . S
C769 H761 0.930 . S
C769 C767 1.419 . S
C769 C770 1.362 . S
C770 H762 0.930 . S
C770 C769 1.362 . S
C770 C773 1.409 . S
C771 H763 0.930 . S
C771 C772 1.355 . S
C771 C773 1.415 . S
C772 C771 1.355 . S
C772 C774 1.419 . S
C773 C768 1.425 . S
C773 C770 1.409 . S
C773 C771 1.415 . S
C774 H764 0.930 . S
C774 C772 1.419 . S
C774 C775 1.362 . S
C775 H765 0.930 . S
C775 C768 1.409 . S
C775 C774 1.362 . S
H776 C782 0.930 . S
H777 C785 0.930 . S
H778 C786 0.930 . S
H779 C787 0.930 . S
H780 C790 0.930 . S
H781 C791 0.930 . S
C782 H776 0.930 . S
C782 C783 1.355 . S
C782 C784 1.415 . S
C783 C782 1.355 . S
C783 C785 1.419 . S
C784 C782 1.415 . S
C784 C789 1.425 . S
C784 C791 1.409 . S
C785 H777 0.930 . S
C785 C783 1.419 . S
C785 C786 1.362 . S
C786 H778 0.930 . S
C786 C785 1.362 . S
C786 C789 1.409 . S
C787 H779 0.930 . S
C787 C788 1.355 . S
C787 C789 1.415 . S
C788 C787 1.355 . S
C788 C790 1.419 . S
C789 C784 1.425 . S
C789 C786 1.409 . S
C789 C787 1.415 . S
C790 H780 0.930 . S
C790 C788 1.419 . S
C790 C791 1.362 . S
C791 H781 0.930 . S
C791 C784 1.409 . S
C791 C790 1.362 . S
H792 C798 0.930 . S
H793 C801 0.930 . S
H794 C802 0.930 . S
H795 C803 0.930 . S
H796 C806 0.930 . S
H797 C807 0.930 . S
C798 H792 0.930 . S
C798 C799 1.355 . S
C798 C800 1.415 . S
C799 C798 1.355 . S
C799 C801 1.419 . S
C800 C798 1.415 . S
C800 C805 1.425 . S
C800 C807 1.409 . S
C801 H793 0.930 . S
C801 C799 1.419 . S
C801 C802 1.362 . S
C802 H794 0.930 . S
C802 C801 1.362 . S
C802 C805 1.409 . S
C803 H795 0.930 . S
C803 C804 1.355 . S
C803 C805 1.415 . S
C804 C803 1.355 . S
C804 C806 1.419 . S
C805 C800 1.425 . S
C805 C802 1.409 . S
C805 C803 1.415 . S
C806 H796 0.930 . S
C806 C804 1.419 . S
C806 C807 1.362 . S
C807 H797 0.930 . S
C807 C800 1.409 . S
C807 C806 1.362 . S
H808 C814 0.930 . S
H809 C817 0.930 . S
H810 C818 0.930 . S
H811 C819 0.930 . S
H812 C822 0.930 . S
H813 C823 0.930 . S
C814 H808 0.930 . S
C814 C815 1.355 . S
C814 C816 1.415 . S
C815 C814 1.355 . S
C815 C817 1.419 . S
C816 C814 1.415 . S
C816 C821 1.425 . S
C816 C823 1.409 . S
C817 H809 0.930 . S
C817 C815 1.419 . S
C817 C818 1.362 . S
C818 H810 0.930 . S
C818 C817 1.362 . S
C818 C821 1.409 . S
C819 H811 0.930 . S
C819 C820 1.355 . S
C819 C821 1.415 . S
C820 C819 1.355 . S
C820 C822 1.419 . S
C821 C816 1.425 . S
C821 C818 1.409 . S
C821 C819 1.415 . S
C822 H812 0.930 . S
C822 C820 1.419 . S
C822 C823 1.362 . S
C823 H813 0.930 . S
C823 C816 1.409 . S
C823 C822 1.362 . S
H824 C830 0.930 . S
H825 C833 0.930 . S
H826 C834 0.930 . S
H827 C835 0.930 . S
H828 C838 0.930 . S
H829 C839 0.930 . S
C830 H824 0.930 . S
C830 C831 1.355 . S
C830 C832 1.415 . S
C831 C830 1.355 . S
C831 C833 1.419 . S
C832 C830 1.415 . S
C832 C837 1.425 . S
C832 C839 1.409 . S
C833 H825 0.930 . S
C833 C831 1.419 . S
C833 C834 1.362 . S
C834 H826 0.930 . S
C834 C833 1.362 . S
C834 C837 1.409 . S
C835 H827 0.930 . S
C835 C836 1.355 . S
C835 C837 1.415 . S
C836 C835 1.355 . S
C836 C838 1.419 . S
C837 C832 1.425 . S
C837 C834 1.409 . S
C837 C835 1.415 . S
C838 H828 0.930 . S
C838 C836 1.419 . S
C838 C839 1.362 . S
C839 H829 0.930 . S
C839 C832 1.409 . S
C839 C838 1.362 . S
H840 C846 0.930 . S
H841 C849 0.930 . S
H842 C850 0.930 . S
H843 C851 0.930 . S
H844 C854 0.930 . S
H845 C855 0.930 . S
C846 H840 0.930 . S
C846 C847 1.355 . S
C846 C848 1.415 . S
C847 C846 1.355 . S
C847 C849 1.419 . S
C848 C846 1.415 . S
C848 C853 1.425 . S
C848 C855 1.409 . S
C849 H841 0.930 . S
C849 C847 1.419 . S
C849 C850 1.362 . S
C850 H842 0.930 . S
C850 C849 1.362 . S
C850 C853 1.409 . S
C851 H843 0.930 . S
C851 C852 1.355 . S
C851 C853 1.415 . S
C852 C851 1.355 . S
C852 C854 1.419 . S
C853 C848 1.425 . S
C853 C850 1.409 . S
C853 C851 1.415 . S
C854 H844 0.930 . S
C854 C852 1.419 . S
C854 C855 1.362 . S
C855 H845 0.930 . S
C855 C848 1.409 . S
C855 C854 1.362 . S
H856 C862 0.930 . S
H857 C865 0.930 . S
H858 C866 0.930 . S
H859 C867 0.930 . S
H860 C870 0.930 . S
H861 C871 0.930 . S
C862 H856 0.930 . S
C862 C863 1.355 . S
C862 C864 1.415 . S
C863 C862 1.355 . S
C863 C865 1.419 . S
C864 C862 1.415 . S
C864 C869 1.425 . S
C864 C871 1.409 . S
C865 H857 0.930 . S
C865 C863 1.419 . S
C865 C866 1.362 . S
C866 H858 0.930 . S
C866 C865 1.362 . S
C866 C869 1.409 . S
C867 H859 0.930 . S
C867 C868 1.355 . S
C867 C869 1.415 . S
C868 C867 1.355 . S
C868 C870 1.419 . S
C869 C864 1.425 . S
C869 C866 1.409 . S
C869 C867 1.415 . S
C870 H860 0.930 . S
C870 C868 1.419 . S
C870 C871 1.362 . S
C871 H861 0.930 . S
C871 C864 1.409 . S
C871 C870 1.362 . S
H872 C878 0.930 . S
H873 C881 0.930 . S
H874 C882 0.930 . S
H875 C883 0.930 . S
H876 C886 0.930 . S
H877 C887 0.930 . S
C878 H872 0.930 . S
C878 C879 1.355 . S
C878 C880 1.415 . S
C879 C878 1.355 . S
C879 C881 1.419 . S
C880 C878 1.415 . S
C880 C885 1.425 . S
C880 C887 1.409 . S
C881 H873 0.930 . S
C881 C879 1.419 . S
C881 C882 1.362 . S
C882 H874 0.930 . S
C882 C881 1.362 . S
C882 C885 1.409 . S
C883 H875 0.930 . S
C883 C884 1.355 . S
C883 C885 1.415 . S
C884 C883 1.355 . S
C884 C886 1.419 . S
C885 C880 1.425 . S
C885 C882 1.409 . S
C885 C883 1.415 . S
C886 H876 0.930 . S
C886 C884 1.419 . S
C886 C887 1.362 . S
C887 H877 0.930 . S
C887 C880 1.409 . S
C887 C886 1.362 . S
H888 C894 0.930 . S
H889 C897 0.930 . S
H890 C898 0.930 . S
H891 C899 0.930 . S
H892 C902 0.930 . S
H893 C903 0.930 . S
C894 H888 0.930 . S
C894 C895 1.355 . S
C894 C896 1.415 . S
C895 C894 1.355 . S
C895 C897 1.419 . S
C896 C894 1.415 . S
C896 C901 1.425 . S
C896 C903 1.409 . S
C897 H889 0.930 . S
C897 C895 1.419 . S
C897 C898 1.362 . S
C898 H890 0.930 . S
C898 C897 1.362 . S
C898 C901 1.409 . S
C899 H891 0.930 . S
C899 C900 1.355 . S
C899 C901 1.415 . S
C900 C899 1.355 . S
C900 C902 1.419 . S
C901 C896 1.425 . S
C901 C898 1.409 . S
C901 C899 1.415 . S
C902 H892 0.930 . S
C902 C900 1.419 . S
C902 C903 1.362 . S
C903 H893 0.930 . S
C903 C896 1.409 . S
C903 C902 1.362 . S
H904 C910 0.930 . S
H905 C913 0.930 . S
H906 C914 0.930 . S
H907 C915 0.930 . S
H908 C918 0.930 . S
H909 C919 0.930 . S
C910 H904 0.930 . S
C910 C911 1.355 . S
C910 C912 1.415 . S
C911 C910 1.355 . S
C911 C913 1.419 . S
C912 C910 1.415 . S
C912 C917 1.425 . S
C912 C919 1.409 . S
C913 H905 0.930 . S
C913 C911 1.419 . S
C913 C914 1.362 . S
C914 H906 0.930 . S
C914 C913 1.362 . S
C914 C917 1.409 . S
C915 H907 0.930 . S
C915 C916 1.355 . S
C915 C917 1.415 . S
C916 C915 1.355 . S
C916 C918 1.419 . S
C917 C912 1.425 . S
C917 C914 1.409 . S
C917 C915 1.415 . S
C918 H908 0.930 . S
C918 C916 1.419 . S
C918 C919 1.362 . S
C919 H909 0.930 . S
C919 C912 1.409 . S
C919 C918 1.362 . S
H920 C926 0.930 . S
H921 C929 0.930 . S
H922 C930 0.930 . S
H923 C931 0.930 . S
H924 C934 0.930 . S
H925 C935 0.930 . S
C926 H920 0.930 . S
C926 C927 1.355 . S
C926 C928 1.415 . S
C927 C926 1.355 . S
C927 C929 1.419 . S
C928 C926 1.415 . S
C928 C933 1.425 . S
C928 C935 1.409 . S
C929 H921 0.930 . S
C929 C927 1.419 . S
C929 C930 1.362 . S
C930 H922 0.930 . S
C930 C929 1.362 . S
C930 C933 1.409 . S
C931 H923 0.930 . S
C931 C932 1.355 . S
C931 C933 1.415 . S
C932 C931 1.355 . S
C932 C934 1.419 . S
C933 C928 1.425 . S
C933 C930 1.409 . S
C933 C931 1.415 . S
C934 H924 0.930 . S
C934 C932 1.419 . S
C934 C935 1.362 . S
C935 H925 0.930 . S
C935 C928 1.409 . S
C935 C934 1.362 . S
H936 C942 0.930 . S
H937 C945 0.930 . S
H938 C946 0.930 . S
H939 C947 0.930 . S
H940 C950 0.930 . S
H941 C951 0.930 . S
C942 H936 0.930 . S
C942 C943 1.355 . S
C942 C944 1.415 . S
C943 C942 1.355 . S
C943 C945 1.419 . S
C944 C942 1.415 . S
C944 C949 1.425 . S
C944 C951 1.409 . S
C945 H937 0.930 . S
C945 C943 1.419 . S
C945 C946 1.362 . S
C946 H938 0.930 . S
C946 C945 1.362 . S
C946 C949 1.409 . S
C947 H939 0.930 . S
C947 C948 1.355 . S
C947 C949 1.415 . S
C948 C947 1.355 . S
C948 C950 1.419 . S
C949 C944 1.425 . S
C949 C946 1.409 . S
C949 C947 1.415 . S
C950 H940 0.930 . S
C950 C948 1.419 . S
C950 C951 1.362 . S
C951 H941 0.930 . S
C951 C944 1.409 . S
C951 C950 1.362 . S
H952 C958 0.930 . S
H953 C961 0.930 . S
H954 C962 0.930 . S
H955 C963 0.930 . S
H956 C966 0.930 . S
H957 C967 0.930 . S
C958 H952 0.930 . S
C958 C959 1.355 . S
C958 C960 1.415 . S
C959 C958 1.355 . S
C959 C961 1.419 . S
C960 C958 1.415 . S
C960 C965 1.425 . S
C960 C967 1.409 . S
C961 H953 0.930 . S
C961 C959 1.419 . S
C961 C962 1.362 . S
C962 H954 0.930 . S
C962 C961 1.362 . S
C962 C965 1.409 . S
C963 H955 0.930 . S
C963 C964 1.355 . S
C963 C965 1.415 . S
C964 C963 1.355 . S
C964 C966 1.419 . S
C965 C960 1.425 . S
C965 C962 1.409 . S
C965 C963 1.415 . S
C966 H956 0.930 . S
C966 C964 1.419 . S
C966 C967 1.362 . S
C967 H957 0.930 . S
C967 C960 1.409 . S
C967 C966 1.362 . S
H968 C974 0.930 . S
H969 C977 0.930 . S
H970 C978 0.930 . S
H971 C979 0.930 . S
H972 C982 0.930 . S
H973 C983 0.930 . S
C974 H968 0.930 . S
C974 C975 1.355 . S
C974 C976 1.415 . S
C975 C974 1.355 . S
C975 C977 1.419 . S
C976 C974 1.415 . S
C976 C981 1.425 . S
C976 C983 1.409 1_565 S
C977 H969 0.930 . S
C977 C975 1.419 . S
C977 C978 1.362 . S
C978 H970 0.930 . S
C978 C977 1.362 . S
C978 C981 1.409 . S
C979 H971 0.930 . S
C979 C980 1.355 . S
C979 C981 1.415 1_545 S
C980 C979 1.355 . S
C980 C982 1.419 . S
C981 C976 1.425 . S
C981 C978 1.409 . S
C981 C979 1.415 1_565 S
C982 H972 0.930 . S
C982 C980 1.419 . S
C982 C983 1.362 . S
C983 H973 0.930 . S
C983 C976 1.409 1_545 S
C983 C982 1.362 . S
H984 C990 0.930 . S
H985 C993 0.930 . S
H986 C994 0.930 . S
H987 C995 0.930 . S
H988 C998 0.930 . S
H989 C999 0.930 . S
C990 H984 0.930 . S
C990 C991 1.355 . S
C990 C992 1.415 1_455 S
C991 C990 1.355 . S
C991 C993 1.419 . S
C992 C990 1.415 1_655 S
C992 C997 1.425 . S
C992 C999 1.409 . S
C993 H985 0.930 . S
C993 C991 1.419 . S
C993 C994 1.362 . S
C994 H986 0.930 . S
C994 C993 1.362 . S
C994 C997 1.409 1_455 S
C995 H987 0.930 . S
C995 C996 1.355 . S
C995 C997 1.415 . S
C996 C995 1.355 . S
C996 C998 1.419 . S
C997 C992 1.425 . S
C997 C994 1.409 1_655 S
C997 C995 1.415 . S
C998 H988 0.930 . S
C998 C996 1.419 . S
C998 C999 1.362 . S
C999 H989 0.930 . S
C999 C992 1.409 . S
C999 C998 1.362 . S
H1000 C1006 0.930 . S
H1001 C1009 0.930 . S
H1002 C1010 0.930 . S
H1003 C1011 0.930 . S
H1004 C1014 0.930 . S
H1005 C1015 0.930 . S
C1006 H1000 0.930 . S
C1006 C1007 1.355 . S
C1006 C1008 1.415 . S
C1007 C1006 1.355 . S
C1007 C1009 1.419 . S
C1008 C1006 1.415 . S
C1008 C1013 1.425 . S
C1008 C1015 1.409 1_565 S
C1009 H1001 0.930 . S
C1009 C1007 1.419 . S
C1009 C1010 1.362 . S
C1010 H1002 0.930 . S
C1010 C1009 1.362 . S
C1010 C1013 1.409 . S
C1011 H1003 0.930 . S
C1011 C1012 1.355 1_565 S
C1011 C1013 1.415 . S
C1012 C1011 1.355 1_545 S
C1012 C1014 1.419 . S
C1013 C1008 1.425 . S
C1013 C1010 1.409 . S
C1013 C1011 1.415 . S
C1014 H1004 0.930 . S
C1014 C1012 1.419 . S
C1014 C1015 1.362 . S
C1015 H1005 0.930 . S
C1015 C1008 1.409 1_545 S
C1015 C1014 1.362 . S
H1016 C1022 0.930 . S
H1017 C1025 0.930 . S
H1018 C1026 0.925 1_455 S
H1019 C1027 0.930 . S
H1020 C1030 0.930 . S
H1021 C1031 0.930 . S
C1022 H1016 0.930 . S
C1022 C1023 1.355 . S
C1022 C1024 1.415 1_655 S
C1023 C1022 1.355 . S
C1023 C1025 1.419 . S
C1024 C1022 1.415 1_455 S
C1024 C1029 1.425 . S
C1024 C1031 1.409 . S
C1025 H1017 0.930 . S
C1025 C1023 1.419 . S
C1025 C1026 1.382 . S
C1026 H1018 0.925 1_655 S
C1026 C1025 1.382 . S
C1026 C1029 1.395 1_655 S
C1027 H1019 0.930 . S
C1027 C1028 1.355 . S
C1027 C1029 1.415 . S
C1028 C1027 1.355 . S
C1028 C1030 1.419 . S
C1029 C1024 1.425 . S
C1029 C1026 1.395 1_455 S
C1029 C1027 1.415 . S
C1030 H1020 0.930 . S
C1030 C1028 1.419 . S
C1030 C1031 1.362 . S
C1031 H1021 0.930 . S
C1031 C1024 1.409 . S
C1031 C1030 1.362 . S
H1032 C1038 0.930 . S
H1033 C1041 0.930 . S
H1034 C1042 0.930 . S
H1035 C1043 0.930 . S
H1036 C1046 0.930 . S
H1037 C1047 0.930 . S
C1038 H1032 0.930 . S
C1038 C1039 1.355 . S
C1038 C1040 1.415 . S
C1039 C1038 1.355 . S
C1039 C1041 1.419 . S
C1040 C1038 1.415 . S
C1040 C1045 1.425 . S
C1040 C1047 1.409 . S
C1041 H1033 0.930 . S
C1041 C1039 1.419 . S
C1041 C1042 1.362 . S
C1042 H1034 0.930 . S
C1042 C1041 1.362 . S
C1042 C1045 1.409 . S
C1043 H1035 0.930 . S
C1043 C1044 1.355 . S
C1043 C1045 1.415 . S
C1044 C1043 1.355 . S
C1044 C1046 1.419 . S
C1045 C1040 1.425 . S
C1045 C1042 1.409 . S
C1045 C1043 1.415 . S
C1046 H1036 0.930 . S
C1046 C1044 1.419 . S
C1046 C1047 1.362 . S
C1047 H1037 0.930 . S
C1047 C1040 1.409 . S
C1047 C1046 1.362 . S
H1048 C1054 0.930 . S
H1049 C1057 0.930 . S
H1050 C1058 0.930 . S
H1051 C1059 0.930 . S
H1052 C1062 0.930 . S
H1053 C1063 0.930 . S
C1054 H1048 0.930 . S
C1054 C1055 1.355 . S
C1054 C1056 1.415 . S
C1055 C1054 1.355 . S
C1055 C1057 1.419 . S
C1056 C1054 1.415 . S
C1056 C1061 1.425 . S
C1056 C1063 1.409 . S
C1057 H1049 0.930 . S
C1057 C1055 1.419 . S
C1057 C1058 1.362 . S
C1058 H1050 0.930 . S
C1058 C1057 1.362 . S
C1058 C1061 1.409 . S
C1059 H1051 0.930 . S
C1059 C1060 1.355 . S
C1059 C1061 1.415 . S
C1060 C1059 1.355 . S
C1060 C1062 1.419 . S
C1061 C1056 1.425 . S
C1061 C1058 1.409 . S
C1061 C1059 1.415 . S
C1062 H1052 0.930 . S
C1062 C1060 1.419 . S
C1062 C1063 1.362 . S
C1063 H1053 0.930 . S
C1063 C1056 1.409 . S
C1063 C1062 1.362 . S
H1064 C1070 0.930 . S
H1065 C1073 0.930 . S
H1066 C1074 0.930 . S
H1067 C1075 0.930 . S
H1068 C1078 0.930 . S
H1069 C1079 0.930 . S
C1070 H1064 0.930 . S
C1070 C1071 1.355 . S
C1070 C1072 1.415 . S
C1071 C1070 1.355 . S
C1071 C1073 1.419 . S
C1072 C1070 1.415 . S
C1072 C1077 1.425 . S
C1072 C1079 1.409 . S
C1073 H1065 0.930 . S
C1073 C1071 1.419 . S
C1073 C1074 1.362 . S
C1074 H1066 0.930 . S
C1074 C1073 1.362 . S
C1074 C1077 1.409 . S
C1075 H1067 0.930 . S
C1075 C1076 1.355 . S
C1075 C1077 1.415 . S
C1076 C1075 1.355 . S
C1076 C1078 1.419 . S
C1077 C1072 1.425 . S
C1077 C1074 1.409 . S
C1077 C1075 1.415 . S
C1078 H1068 0.930 . S
C1078 C1076 1.419 . S
C1078 C1079 1.362 . S
C1079 H1069 0.930 . S
C1079 C1072 1.409 . S
C1079 C1078 1.362 . S
H1080 C1086 0.930 . S
H1081 C1089 0.930 . S
H1082 C1090 0.930 1_556 S
H1083 C1091 0.930 . S
H1084 C1094 0.930 . S
H1085 C1095 0.930 . S
C1086 H1080 0.930 . S
C1086 C1087 1.355 . S
C1086 C1088 1.415 . S
C1087 C1086 1.355 . S
C1087 C1089 1.419 . S
C1088 C1086 1.415 . S
C1088 C1093 1.425 . S
C1088 C1095 1.409 . S
C1089 H1081 0.930 . S
C1089 C1087 1.419 . S
C1089 C1090 1.362 . S
C1090 H1082 0.930 1_554 S
C1090 C1089 1.362 . S
C1090 C1093 1.409 . S
C1091 H1083 0.930 . S
C1091 C1092 1.355 . S
C1091 C1093 1.415 1_556 S
C1092 C1091 1.355 . S
C1092 C1094 1.419 . S
C1093 C1088 1.425 . S
C1093 C1090 1.409 . S
C1093 C1091 1.415 1_554 S
C1094 H1084 0.930 . S
C1094 C1092 1.419 . S
C1094 C1095 1.362 1_556 S
C1095 H1085 0.930 . S
C1095 C1088 1.409 . S
C1095 C1094 1.362 1_554 S
H1096 C1102 0.930 . S
H1097 C1105 0.930 . S
H1098 C1106 0.930 . S
H1099 C1107 0.930 . S
H1100 C1110 0.930 . S
H1101 C1111 0.930 . S
C1102 H1096 0.930 . S
C1102 C1103 1.355 . S
C1102 C1104 1.415 . S
C1103 C1102 1.355 . S
C1103 C1105 1.419 . S
C1104 C1102 1.415 . S
C1104 C1109 1.425 . S
C1104 C1111 1.409 . S
C1105 H1097 0.930 . S
C1105 C1103 1.419 . S
C1105 C1106 1.362 . S
C1106 H1098 0.930 . S
C1106 C1105 1.362 . S
C1106 C1109 1.409 . S
C1107 H1099 0.930 . S
C1107 C1108 1.355 . S
C1107 C1109 1.415 . S
C1108 C1107 1.355 . S
C1108 C1110 1.419 . S
C1109 C1104 1.425 . S
C1109 C1106 1.409 . S
C1109 C1107 1.415 . S
C1110 H1100 0.930 . S
C1110 C1108 1.419 . S
C1110 C1111 1.362 . S
C1111 H1101 0.930 . S
C1111 C1104 1.409 . S
C1111 C1110 1.362 . S
H1112 C1118 0.920 1_554 S
H1113 C1121 0.930 . S
H1114 C1122 0.930 . S
H1115 C1123 0.930 . S
H1116 C1126 0.930 . S
H1117 C1127 0.930 . S
C1118 H1112 0.920 1_556 S
C1118 C1119 1.384 . S
C1118 C1120 1.396 1_556 S
C1119 C1118 1.384 . S
C1119 C1121 1.419 . S
C1120 C1118 1.396 1_554 S
C1120 C1125 1.425 . S
C1120 C1127 1.409 . S
C1121 H1113 0.930 . S
C1121 C1119 1.419 . S
C1121 C1122 1.362 . S
C1122 H1114 0.930 . S
C1122 C1121 1.362 . S
C1122 C1125 1.409 1_556 S
C1123 H1115 0.930 . S
C1123 C1124 1.355 . S
C1123 C1125 1.415 . S
C1124 C1123 1.355 . S
C1124 C1126 1.419 . S
C1125 C1120 1.425 . S
C1125 C1122 1.409 1_554 S
C1125 C1123 1.415 . S
C1126 H1116 0.930 . S
C1126 C1124 1.419 . S
C1126 C1127 1.362 . S
C1127 H1117 0.930 . S
C1127 C1120 1.409 . S
C1127 C1126 1.362 . S
H1128 C1134 0.930 . S
H1129 C1137 0.930 . S
H1130 C1138 0.930 . S
H1131 C1139 0.930 . S
H1132 C1142 0.930 . S
H1133 C1143 0.930 . S
C1134 H1128 0.930 . S
C1134 C1135 1.355 . S
C1134 C1136 1.415 . S
C1135 C1134 1.355 . S
C1135 C1137 1.419 . S
C1136 C1134 1.415 . S
C1136 C1141 1.425 . S
C1136 C1143 1.409 . S
C1137 H1129 0.930 . S
C1137 C1135 1.419 . S
C1137 C1138 1.362 . S
C1138 H1130 0.930 . S
C1138 C1137 1.362 . S
C1138 C1141 1.409 . S
C1139 H1131 0.930 . S
C1139 C1140 1.355 . S
C1139 C1141 1.415 . S
C1140 C1139 1.355 . S
C1140 C1142 1.419 . S
C1141 C1136 1.425 . S
C1141 C1138 1.409 . S
C1141 C1139 1.415 . S
C1142 H1132 0.930 . S
C1142 C1140 1.419 . S
C1142 C1143 1.362 . S
C1143 H1133 0.930 . S
C1143 C1136 1.409 . S
C1143 C1142 1.362 . S
H1144 C1150 0.930 . S
H1145 C1153 0.930 . S
H1146 C1154 0.930 . S
H1147 C1155 0.930 . S
H1148 C1158 0.930 . S
H1149 C1159 0.930 . S
C1150 H1144 0.930 . S
C1150 C1151 1.355 . S
C1150 C1152 1.415 . S
C1151 C1150 1.355 . S
C1151 C1153 1.419 . S
C1152 C1150 1.415 . S
C1152 C1157 1.425 . S
C1152 C1159 1.409 . S
C1153 H1145 0.930 . S
C1153 C1151 1.419 . S
C1153 C1154 1.362 . S
C1154 H1146 0.930 . S
C1154 C1153 1.362 . S
C1154 C1157 1.409 . S
C1155 H1147 0.930 . S
C1155 C1156 1.355 . S
C1155 C1157 1.415 . S
C1156 C1155 1.355 . S
C1156 C1158 1.419 . S
C1157 C1152 1.425 . S
C1157 C1154 1.409 . S
C1157 C1155 1.415 . S
C1158 H1148 0.930 . S
C1158 C1156 1.419 . S
C1158 C1159 1.362 . S
C1159 H1149 0.930 . S
C1159 C1152 1.409 . S
C1159 C1158 1.362 . S
H1160 C1166 0.930 . S
H1161 C1169 0.930 . S
H1162 C1170 0.930 . S
H1163 C1171 0.930 . S
H1164 C1174 0.930 . S
H1165 C1175 0.930 . S
C1166 H1160 0.930 . S
C1166 C1167 1.355 . S
C1166 C1168 1.415 1_545 S
C1167 C1166 1.355 . S
C1167 C1169 1.419 . S
C1168 C1166 1.415 1_565 S
C1168 C1173 1.425 1_565 S
C1168 C1175 1.409 . S
C1169 H1161 0.930 . S
C1169 C1167 1.419 . S
C1169 C1170 1.362 . S
C1170 H1162 0.930 . S
C1170 C1169 1.362 . S
C1170 C1173 1.409 . S
C1171 H1163 0.930 . S
C1171 C1172 1.355 . S
C1171 C1173 1.415 1_565 S
C1172 C1171 1.355 . S
C1172 C1174 1.419 . S
C1173 C1168 1.425 1_545 S
C1173 C1170 1.409 . S
C1173 C1171 1.415 1_545 S
C1174 H1164 0.930 . S
C1174 C1172 1.419 . S
C1174 C1175 1.362 . S
C1175 H1165 0.930 . S
C1175 C1168 1.409 . S
C1175 C1174 1.362 . S
H1176 C1182 0.930 . S
H1177 C1185 0.930 . S
H1178 C1186 0.930 . S
H1179 C1187 0.930 . S
H1180 C1190 0.930 . S
H1181 C1191 0.930 . S
C1182 H1176 0.930 . S
C1182 C1183 1.355 . S
C1182 C1184 1.415 . S
C1183 C1182 1.355 . S
C1183 C1185 1.419 . S
C1184 C1182 1.415 . S
C1184 C1189 1.425 . S
C1184 C1191 1.409 1_455 S
C1185 H1177 0.930 . S
C1185 C1183 1.419 . S
C1185 C1186 1.362 . S
C1186 H1178 0.930 . S
C1186 C1185 1.362 . S
C1186 C1189 1.409 . S
C1187 H1179 0.930 . S
C1187 C1188 1.355 . S
C1187 C1189 1.415 1_655 S
C1188 C1187 1.355 . S
C1188 C1190 1.419 . S
C1189 C1184 1.425 . S
C1189 C1186 1.409 . S
C1189 C1187 1.415 1_455 S
C1190 H1180 0.930 . S
C1190 C1188 1.419 . S
C1190 C1191 1.362 . S
C1191 H1181 0.930 . S
C1191 C1184 1.409 1_655 S
C1191 C1190 1.362 . S
H1192 C1198 0.930 . S
H1193 C1201 0.930 . S
H1194 C1202 0.930 . S
H1195 C1203 0.930 . S
H1196 C1206 0.930 . S
H1197 C1207 0.930 . S
C1198 H1192 0.930 . S
C1198 C1199 1.355 . S
C1198 C1200 1.415 . S
C1199 C1198 1.355 . S
C1199 C1201 1.419 . S
C1200 C1198 1.415 . S
C1200 C1205 1.425 . S
C1200 C1207 1.409 . S
C1201 H1193 0.930 . S
C1201 C1199 1.419 . S
C1201 C1202 1.362 . S
C1202 H1194 0.930 . S
C1202 C1201 1.362 . S
C1202 C1205 1.409 . S
C1203 H1195 0.930 . S
C1203 C1204 1.355 . S
C1203 C1205 1.415 1_565 S
C1204 C1203 1.355 . S
C1204 C1206 1.419 . S
C1205 C1200 1.425 . S
C1205 C1202 1.409 . S
C1205 C1203 1.415 1_545 S
C1206 H1196 0.930 . S
C1206 C1204 1.419 . S
C1206 C1207 1.362 1_565 S
C1207 H1197 0.930 . S
C1207 C1200 1.409 . S
C1207 C1206 1.362 1_545 S
H1208 C1214 0.930 1_655 S
H1209 C1217 0.930 . S
H1210 C1218 0.930 . S
H1211 C1219 0.930 . S
H1212 C1222 0.930 . S
H1213 C1223 0.930 . S
C1214 H1208 0.930 1_455 S
C1214 C1215 1.355 . S
C1214 C1216 1.415 1_455 S
C1215 C1214 1.355 . S
C1215 C1217 1.419 . S
C1216 C1214 1.415 1_655 S
C1216 C1221 1.425 1_655 S
C1216 C1223 1.409 . S
C1217 H1209 0.930 . S
C1217 C1215 1.419 . S
C1217 C1218 1.362 . S
C1218 H1210 0.930 . S
C1218 C1217 1.362 . S
C1218 C1221 1.409 . S
C1219 H1211 0.930 . S
C1219 C1220 1.355 . S
C1219 C1221 1.415 1_655 S
C1220 C1219 1.355 . S
C1220 C1222 1.419 . S
C1221 C1216 1.425 1_455 S
C1221 C1218 1.409 . S
C1221 C1219 1.415 1_455 S
C1222 H1212 0.930 . S
C1222 C1220 1.419 . S
C1222 C1223 1.362 . S
C1223 H1213 0.930 . S
C1223 C1216 1.409 . S
C1223 C1222 1.362 . S
H1224 C1230 0.930 . S
H1225 C1233 0.930 . S
H1226 C1234 0.930 . S
H1227 C1235 0.930 . S
H1228 C1238 0.930 . S
H1229 C1239 0.930 . S
C1230 H1224 0.930 . S
C1230 C1231 1.355 . S
C1230 C1232 1.415 . S
C1231 C1230 1.355 . S
C1231 C1233 1.419 . S
C1232 C1230 1.415 . S
C1232 C1237 1.425 . S
C1232 C1239 1.409 . S
C1233 H1225 0.930 . S
C1233 C1231 1.419 . S
C1233 C1234 1.362 . S
C1234 H1226 0.930 . S
C1234 C1233 1.362 . S
C1234 C1237 1.409 . S
C1235 H1227 0.930 . S
C1235 C1236 1.355 . S
C1235 C1237 1.415 . S
C1236 C1235 1.355 . S
C1236 C1238 1.419 . S
C1237 C1232 1.425 . S
C1237 C1234 1.409 . S
C1237 C1235 1.415 . S
C1238 H1228 0.930 . S
C1238 C1236 1.419 . S
C1238 C1239 1.362 . S
C1239 H1229 0.930 . S
C1239 C1232 1.409 . S
C1239 C1238 1.362 . S
H1240 C1246 0.930 . S
H1241 C1249 0.930 . S
H1242 C1250 0.930 . S
H1243 C1251 0.930 . S
H1244 C1254 0.930 . S
H1245 C1255 0.930 . S
C1246 H1240 0.930 . S
C1246 C1247 1.355 . S
C1246 C1248 1.415 . S
C1247 C1246 1.355 . S
C1247 C1249 1.419 . S
C1248 C1246 1.415 . S
C1248 C1253 1.425 . S
C1248 C1255 1.409 . S
C1249 H1241 0.930 . S
C1249 C1247 1.419 . S
C1249 C1250 1.362 . S
C1250 H1242 0.930 . S
C1250 C1249 1.362 . S
C1250 C1253 1.409 . S
C1251 H1243 0.930 . S
C1251 C1252 1.355 . S
C1251 C1253 1.415 . S
C1252 C1251 1.355 . S
C1252 C1254 1.419 . S
C1253 C1248 1.425 . S
C1253 C1250 1.409 . S
C1253 C1251 1.415 . S
C1254 H1244 0.930 . S
C1254 C1252 1.419 . S
C1254 C1255 1.362 . S
C1255 H1245 0.930 . S
C1255 C1248 1.409 . S
C1255 C1254 1.362 . S
H1256 C1262 0.930 . S
H1257 C1265 0.930 . S
H1258 C1266 0.930 . S
H1259 C1267 0.930 . S
H1260 C1270 0.930 . S
H1261 C1271 0.930 . S
C1262 H1256 0.930 . S
C1262 C1263 1.355 . S
C1262 C1264 1.415 . S
C1263 C1262 1.355 . S
C1263 C1265 1.419 . S
C1264 C1262 1.415 . S
C1264 C1269 1.425 . S
C1264 C1271 1.409 . S
C1265 H1257 0.930 . S
C1265 C1263 1.419 . S
C1265 C1266 1.362 . S
C1266 H1258 0.930 . S
C1266 C1265 1.362 . S
C1266 C1269 1.409 . S
C1267 H1259 0.930 . S
C1267 C1268 1.355 . S
C1267 C1269 1.415 . S
C1268 C1267 1.355 . S
C1268 C1270 1.419 . S
C1269 C1264 1.425 . S
C1269 C1266 1.409 . S
C1269 C1267 1.415 . S
C1270 H1260 0.930 . S
C1270 C1268 1.419 . S
C1270 C1271 1.362 . S
C1271 H1261 0.930 . S
C1271 C1264 1.409 . S
C1271 C1270 1.362 . S
H1272 C1278 0.930 . S
H1273 C1281 0.930 . S
H1274 C1282 0.930 . S
H1275 C1283 0.930 . S
H1276 C1286 0.930 . S
H1277 C1287 0.930 . S
C1278 H1272 0.930 . S
C1278 C1279 1.355 . S
C1278 C1280 1.415 1_554 S
C1279 C1278 1.355 . S
C1279 C1281 1.419 . S
C1280 C1278 1.415 1_556 S
C1280 C1285 1.425 . S
C1280 C1287 1.409 . S
C1281 H1273 0.930 . S
C1281 C1279 1.419 . S
C1281 C1282 1.362 1_554 S
C1282 H1274 0.930 . S
C1282 C1281 1.362 1_556 S
C1282 C1285 1.409 . S
C1283 H1275 0.930 . S
C1283 C1284 1.355 . S
C1283 C1285 1.415 . S
C1284 C1283 1.355 . S
C1284 C1286 1.419 . S
C1285 C1280 1.425 . S
C1285 C1282 1.409 . S
C1285 C1283 1.415 . S
C1286 H1276 0.930 . S
C1286 C1284 1.419 . S
C1286 C1287 1.362 . S
C1287 H1277 0.930 . S
C1287 C1280 1.409 . S
C1287 C1286 1.362 . S
H1288 C1294 0.930 . S
H1289 C1297 0.930 . S
H1290 C1298 0.930 . S
H1291 C1299 0.930 . S
H1292 C1302 0.930 . S
H1293 C1303 0.930 . S
C1294 H1288 0.930 . S
C1294 C1295 1.355 . S
C1294 C1296 1.415 . S
C1295 C1294 1.355 . S
C1295 C1297 1.419 . S
C1296 C1294 1.415 . S
C1296 C1301 1.425 . S
C1296 C1303 1.409 . S
C1297 H1289 0.930 . S
C1297 C1295 1.419 . S
C1297 C1298 1.362 . S
C1298 H1290 0.930 . S
C1298 C1297 1.362 . S
C1298 C1301 1.409 . S
C1299 H1291 0.930 . S
C1299 C1300 1.355 . S
C1299 C1301 1.415 . S
C1300 C1299 1.355 . S
C1300 C1302 1.419 . S
C1301 C1296 1.425 . S
C1301 C1298 1.409 . S
C1301 C1299 1.415 . S
C1302 H1292 0.930 . S
C1302 C1300 1.419 . S
C1302 C1303 1.362 . S
C1303 H1293 0.930 . S
C1303 C1296 1.409 . S
C1303 C1302 1.362 . S
H1304 C1310 0.930 . S
H1305 C1313 0.930 . S
H1306 C1314 0.930 . S
H1307 C1315 0.930 . S
H1308 C1318 0.930 . S
H1309 C1319 0.930 . S
C1310 H1304 0.930 . S
C1310 C1311 1.355 . S
C1310 C1312 1.415 1_554 S
C1311 C1310 1.355 . S
C1311 C1313 1.419 . S
C1312 C1310 1.415 1_556 S
C1312 C1317 1.425 . S
C1312 C1319 1.409 . S
C1313 H1305 0.930 . S
C1313 C1311 1.419 . S
C1313 C1314 1.362 . S
C1314 H1306 0.930 . S
C1314 C1313 1.362 . S
C1314 C1317 1.409 1_554 S
C1315 H1307 0.930 . S
C1315 C1316 1.355 . S
C1315 C1317 1.415 . S
C1316 C1315 1.355 . S
C1316 C1318 1.419 . S
C1317 C1312 1.425 . S
C1317 C1314 1.409 1_556 S
C1317 C1315 1.415 . S
C1318 H1308 0.930 . S
C1318 C1316 1.419 . S
C1318 C1319 1.362 . S
C1319 H1309 0.930 . S
C1319 C1312 1.409 . S
C1319 C1318 1.362 . S
C559 N94 1.641 . S
C564 N2 1.596 . S
C575 C30 1.785 . S
C580 C122 1.799 . S
C591 N140 1.642 . S
C596 N48 1.613 . S
C607 C168 1.765 . S
C612 C76 1.798 . S
C623 N324 1.661 . S
C628 C191 1.667 . S
C639 N347 1.596 . S
C644 N209 1.627 . S
C655 C237 1.687 . S
C660 N278 1.655 . S
C671 N301 1.626 . S
C676 N255 1.586 . S
C687 C375 1.650 . S
C692 C490 1.627 . S
C703 C398 1.953 . S
C708 C444 1.945 . S
C719 C421 1.904 . S
C724 C467 1.882 . S
C735 N508 1.505 . S
C740 N531 1.469 . S
C751 N71 1.437 . S
C756 N117 1.444 . S
C767 C7 1.636 . S
C772 C145 1.631 . S
C783 N163 1.379 . S
C788 N25 1.490 . S
C799 C53 1.652 . S
C804 C99 1.612 . S
C815 C536 1.513 . S
C820 N416 1.403 . S
C831 N439 1.391 . S
C836 N485 1.469 . S
C847 N462 1.442 . S
C852 C513 1.509 . S
C863 N393 1.464 . S
C868 N370 1.388 . S
C879 C260 1.510 . S
C884 C214 1.478 . S
C895 C352 1.764 . S
C900 C306 1.775 . S
C911 C283 1.742 . S
C916 C329 1.766 . S
C927 N232 1.178 . S
C932 N186 1.269 . S
C943 N518 1.752 . S
C948 N12 1.774 . S
C959 C384 1.649 . S
C964 C39 1.645 . S
C975 N541 1.769 . S
C980 N58 1.718 . S
C991 C499 1.652 . S
C996 C85 1.658 . S
C1007 C430 1.669 . S
C1012 N104 1.646 . S
C1023 C131 1.829 . S
C1028 C453 1.821 . S
C1039 C476 1.674 . S
C1044 N150 1.661 . S
C1055 C407 1.807 . S
C1060 C177 1.806 . S
C1071 N311 1.659 . S
C1076 C200 1.723 . S
C1087 N334 1.697 . S
C1092 N219 1.673 . S
C1103 N357 1.653 . S
C1108 C246 1.729 . S
C1119 N265 1.661 . S
C1124 N288 1.643 . S
C1135 N127 1.564 . S
C1140 N242 1.545 . S
C1151 C154 1.455 . S
C1156 C269 1.458 . S
C1167 N196 1.562 . S
C1172 N173 1.536 . S
C1183 C108 1.415 . S
C1188 C223 1.421 . S
C1199 C338 1.522 . S
C1204 N81 1.520 . S
C1215 C16 1.506 . S
C1220 C361 1.501 . S
C1231 C292 1.515 . S
C1236 N35 1.507 . S
C1247 C62 1.521 . S
C1252 C315 1.529 . S
C1263 N403 1.502 . S
C1268 C545 1.509 . S
C1279 N495 1.518 . S
C1284 N426 1.541 . S
C1295 C522 1.463 . S
C1300 N449 1.518 . S
C1311 N380 1.543 . S
C1316 N472 1.507 . S
