# Generated by pormake.
# Topology wiu, (6)-cn, num edge types: 1
# Building blocks:
#     Node 0, Type 0, BuildingBlock: VOLQOD_clean_sbu_1, # of connection points: 6
#     Node 1, Type 0, BuildingBlock: VOLQOD_clean_sbu_1, # of connection points: 6
#     Node 2, Type 0, BuildingBlock: VOLQOD_clean_sbu_1, # of connection points: 6
#     Node 3, Type 0, BuildingBlock: VOLQOD_clean_sbu_1, # of connection points: 6
#     Node 4, Type 0, BuildingBlock: VOLQOD_clean_sbu_1, # of connection points: 6
#     Node 5, Type 0, BuildingBlock: VOLQOD_clean_sbu_1, # of connection points: 6
#     Node 6, Type 0, BuildingBlock: VOLQOD_clean_sbu_1, # of connection points: 6
#     Node 7, Type 0, BuildingBlock: VOLQOD_clean_sbu_1, # of connection points: 6
#     Node 8, Type 0, BuildingBlock: VOLQOD_clean_sbu_1, # of connection points: 6
#     Node 9, Type 0, BuildingBlock: VOLQOD_clean_sbu_1, # of connection points: 6
#     Node 10, Type 0, BuildingBlock: VOLQOD_clean_sbu_1, # of connection points: 6
#     Node 11, Type 0, BuildingBlock: VOLQOD_clean_sbu_1, # of connection points: 6
#     Node 12, Type 0, BuildingBlock: VOLQOD_clean_sbu_1, # of connection points: 6
#     Node 13, Type 0, BuildingBlock: VOLQOD_clean_sbu_1, # of connection points: 6
#     Node 14, Type 0, BuildingBlock: VOLQOD_clean_sbu_1, # of connection points: 6
#     Node 15, Type 0, BuildingBlock: VOLQOD_clean_sbu_1, # of connection points: 6
#     Edge 16, Type (0, 0), BuildingBlock: CIFDUS_clean_linker_0, # of connection points: 2
#     Edge 17, Type (0, 0), BuildingBlock: CIFDUS_clean_linker_0, # of connection points: 2
#     Edge 18, Type (0, 0), BuildingBlock: CIFDUS_clean_linker_0, # of connection points: 2
#     Edge 19, Type (0, 0), BuildingBlock: CIFDUS_clean_linker_0, # of connection points: 2
#     Edge 20, Type (0, 0), BuildingBlock: CIFDUS_clean_linker_0, # of connection points: 2
#     Edge 21, Type (0, 0), BuildingBlock: CIFDUS_clean_linker_0, # of connection points: 2
#     Edge 22, Type (0, 0), BuildingBlock: CIFDUS_clean_linker_0, # of connection points: 2
#     Edge 23, Type (0, 0), BuildingBlock: CIFDUS_clean_linker_0, # of connection points: 2
#     Edge 24, Type (0, 0), BuildingBlock: CIFDUS_clean_linker_0, # of connection points: 2
#     Edge 25, Type (0, 0), BuildingBlock: CIFDUS_clean_linker_0, # of connection points: 2
#     Edge 26, Type (0, 0), BuildingBlock: CIFDUS_clean_linker_0, # of connection points: 2
#     Edge 27, Type (0, 0), BuildingBlock: CIFDUS_clean_linker_0, # of connection points: 2
#     Edge 28, Type (0, 0), BuildingBlock: CIFDUS_clean_linker_0, # of connection points: 2
#     Edge 29, Type (0, 0), BuildingBlock: CIFDUS_clean_linker_0, # of connection points: 2
#     Edge 30, Type (0, 0), BuildingBlock: CIFDUS_clean_linker_0, # of connection points: 2
#     Edge 31, Type (0, 0), BuildingBlock: CIFDUS_clean_linker_0, # of connection points: 2
#     Edge 32, Type (0, 0), BuildingBlock: CIFDUS_clean_linker_0, # of connection points: 2
#     Edge 33, Type (0, 0), BuildingBlock: CIFDUS_clean_linker_0, # of connection points: 2
#     Edge 34, Type (0, 0), BuildingBlock: CIFDUS_clean_linker_0, # of connection points: 2
#     Edge 35, Type (0, 0), BuildingBlock: CIFDUS_clean_linker_0, # of connection points: 2
#     Edge 36, Type (0, 0), BuildingBlock: CIFDUS_clean_linker_0, # of connection points: 2
#     Edge 37, Type (0, 0), BuildingBlock: CIFDUS_clean_linker_0, # of connection points: 2
#     Edge 38, Type (0, 0), BuildingBlock: CIFDUS_clean_linker_0, # of connection points: 2
#     Edge 39, Type (0, 0), BuildingBlock: CIFDUS_clean_linker_0, # of connection points: 2
#     Edge 40, Type (0, 0), BuildingBlock: CIFDUS_clean_linker_0, # of connection points: 2
#     Edge 41, Type (0, 0), BuildingBlock: CIFDUS_clean_linker_0, # of connection points: 2
#     Edge 42, Type (0, 0), BuildingBlock: CIFDUS_clean_linker_0, # of connection points: 2
#     Edge 43, Type (0, 0), BuildingBlock: CIFDUS_clean_linker_0, # of connection points: 2
#     Edge 44, Type (0, 0), BuildingBlock: CIFDUS_clean_linker_0, # of connection points: 2
#     Edge 45, Type (0, 0), BuildingBlock: CIFDUS_clean_linker_0, # of connection points: 2
#     Edge 46, Type (0, 0), BuildingBlock: CIFDUS_clean_linker_0, # of connection points: 2
#     Edge 47, Type (0, 0), BuildingBlock: CIFDUS_clean_linker_0, # of connection points: 2
#     Edge 48, Type (0, 0), BuildingBlock: CIFDUS_clean_linker_0, # of connection points: 2
#     Edge 49, Type (0, 0), BuildingBlock: CIFDUS_clean_linker_0, # of connection points: 2
#     Edge 50, Type (0, 0), BuildingBlock: CIFDUS_clean_linker_0, # of connection points: 2
#     Edge 51, Type (0, 0), BuildingBlock: CIFDUS_clean_linker_0, # of connection points: 2
#     Edge 52, Type (0, 0), BuildingBlock: CIFDUS_clean_linker_0, # of connection points: 2
#     Edge 53, Type (0, 0), BuildingBlock: CIFDUS_clean_linker_0, # of connection points: 2
#     Edge 54, Type (0, 0), BuildingBlock: CIFDUS_clean_linker_0, # of connection points: 2
#     Edge 55, Type (0, 0), BuildingBlock: CIFDUS_clean_linker_0, # of connection points: 2
#     Edge 56, Type (0, 0), BuildingBlock: CIFDUS_clean_linker_0, # of connection points: 2
#     Edge 57, Type (0, 0), BuildingBlock: CIFDUS_clean_linker_0, # of connection points: 2
#     Edge 58, Type (0, 0), BuildingBlock: CIFDUS_clean_linker_0, # of connection points: 2
#     Edge 59, Type (0, 0), BuildingBlock: CIFDUS_clean_linker_0, # of connection points: 2
#     Edge 60, Type (0, 0), BuildingBlock: CIFDUS_clean_linker_0, # of connection points: 2
#     Edge 61, Type (0, 0), BuildingBlock: CIFDUS_clean_linker_0, # of connection points: 2
#     Edge 62, Type (0, 0), BuildingBlock: CIFDUS_clean_linker_0, # of connection points: 2
#     Edge 63, Type (0, 0), BuildingBlock: CIFDUS_clean_linker_0, # of connection points: 2
# Relax obj value: 0.181
# Max RMSD: 0.175
# Mean RMSD: 0.175
data_MOF--net-wiu--node1-VOLQOD_clean_sbu_1--edge1-CIFDUS_clean_linker_0
_symmetry_space_group_name_H-M    P1
_symmetry_Int_Tables_number       1
_symmetry_cell_setting            triclinic
loop_
_symmetry_equiv_pos_as_xyz
'x, y, z'
_cell_length_a     29.548239
_cell_length_b     29.511236
_cell_length_c     51.699053
_cell_angle_alpha  90.026411
_cell_angle_beta   90.064476
_cell_angle_gamma 89.93152
loop_
_atom_site_label
_atom_site_type_symbol
_atom_site_fract_x
_atom_site_fract_y
_atom_site_fract_z
_atom_type_partial_charge
O0 O 0.38545 0.20986 0.03096 0.0
Zn1 Zn 0.32257 0.20089 0.04333 0.0
O2 O 0.32186 0.14029 0.05779 0.0
Zn3 Zn 0.30467 0.09427 0.03274 0.0
Zn4 Zn 0.38179 0.12638 0.06956 0.0
Zn5 Zn 0.28157 0.14285 0.08635 0.0
O6 O 0.25579 0.05258 0.04984 0.0
O7 O 0.2305 0.10143 0.07965 0.0
O8 O 0.282 0.20209 0.01224 0.0
O9 O 0.2709 0.12832 0.0048 0.0
O10 O 0.36337 0.06367 0.01627 0.0
O11 O 0.4139 0.08245 0.04613 0.0
O12 O 0.38308 0.10691 0.10654 0.0
O13 O 0.302 0.25 0.06918 0.0
O14 O 0.31223 0.12089 0.11839 0.0
O15 O 0.2594 0.20593 0.09397 0.0
C16 C 0.42097 0.2002 0.04369 0.0
C17 C 0.22627 0.06502 0.06668 0.0
C18 C 0.40421 0.06278 0.02491 0.0
C19 C 0.26435 0.16999 -0.00078 0.0
C20 C 0.35219 0.10777 0.12368 0.0
C21 C 0.27313 0.24512 0.08732 0.0
O22 O 0.41876 0.1812 0.06569 0.0
O23 O 0.54107 0.60642 0.26083 0.0
Zn24 Zn 0.56212 0.55248 0.28014 0.0
O25 O 0.61478 0.57006 0.30024 0.0
Zn26 Zn 0.67169 0.5545 0.28325 0.0
Zn27 Zn 0.61483 0.63408 0.30719 0.0
Zn28 Zn 0.60785 0.5375 0.33178 0.0
O29 O 0.70925 0.5133 0.30803 0.0
O30 O 0.65234 0.48678 0.33211 0.0
O31 O 0.57986 0.50553 0.25443 0.0
O32 O 0.65517 0.51152 0.25438 0.0
O33 O 0.70365 0.61311 0.26758 0.0
O34 O 0.66543 0.66612 0.28874 0.0
O35 O 0.62051 0.6481 0.34583 0.0
O36 O 0.50959 0.52965 0.30213 0.0
O37 O 0.6241 0.57754 0.3605 0.0
O38 O 0.54351 0.51757 0.33967 0.0
C39 C 0.54125 0.64731 0.26844 0.0
C40 C 0.69306 0.48421 0.32403 0.0
C41 C 0.6962 0.65511 0.27272 0.0
C42 C 0.61856 0.49395 0.2459 0.0
C43 C 0.62623 0.61997 0.36432 0.0
C44 C 0.50794 0.51749 0.32576 0.0
O45 O 0.56142 0.66025 0.28903 0.0
O46 O 0.15882 0.80405 0.52613 0.0
Zn47 Zn 0.21611 0.82289 0.54221 0.0
O48 O 0.21042 0.88475 0.55453 0.0
Zn49 Zn 0.23338 0.92905 0.52971 0.0
Zn50 Zn 0.14714 0.89807 0.56121 0.0
Zn51 Zn 0.24463 0.8847 0.586 0.0
O52 O 0.2796 0.971 0.54806 0.0
O53 O 0.29083 0.93331 0.58497 0.0
O54 O 0.26075 0.82064 0.51373 0.0
O55 O 0.26932 0.89343 0.50297 0.0
O56 O 0.17894 0.9633 0.51192 0.0
O57 O 0.12323 0.94934 0.53957 0.0
O58 O 0.13447 0.90872 0.59929 0.0
O59 O 0.23464 0.77746 0.56985 0.0
O60 O 0.20385 0.89971 0.61498 0.0
O61 O 0.27279 0.82426 0.59527 0.0
C62 C 0.11873 0.81724 0.5305 0.0
C63 C 0.30003 0.96582 0.56973 0.0
C64 C 0.13756 0.96827 0.51904 0.0
C65 C 0.27785 0.85136 0.49962 0.0
C66 C 0.16207 0.90808 0.61827 0.0
C67 C 0.26129 0.78424 0.58882 0.0
O68 O 0.10978 0.84869 0.54654 0.0
O69 O 0.98911 0.43177 0.76358 0.0
Zn70 Zn 0.96513 0.48271 0.78412 0.0
O71 O 0.91256 0.4614 0.80308 0.0
Zn72 Zn 0.85703 0.4776 0.78518 0.0
Zn73 Zn 0.91388 0.39632 0.8076 0.0
Zn74 Zn 0.91728 0.49061 0.83605 0.0
O75 O 0.81999 0.52036 0.80803 0.0
O76 O 0.87121 0.54015 0.83782 0.0
O77 O 0.94797 0.53104 0.75896 0.0
O78 O 0.87369 0.51908 0.75587 0.0
O79 O 0.82347 0.4203 0.77058 0.0
O80 O 0.86436 0.36467 0.7875 0.0
O81 O 0.90766 0.37789 0.84578 0.0
O82 O 0.01576 0.50394 0.80765 0.0
O83 O 0.90205 0.44665 0.86295 0.0
O84 O 0.98097 0.51132 0.8453 0.0
C85 C 0.99012 0.39023 0.76977 0.0
C86 C 0.833 0.54572 0.82672 0.0
C87 C 0.83175 0.3778 0.77325 0.0
C88 C 0.90965 0.53947 0.74882 0.0
C89 C 0.90115 0.40384 0.86522 0.0
C90 C 0.0168 0.51345 0.83169 0.0
O91 O 0.9689 0.37421 0.78925 0.0
O92 O 0.64581 0.82431 0.9473 0.0
Zn93 Zn 0.69813 0.83727 0.92591 0.0
O94 O 0.68261 0.88608 0.90325 0.0
Zn95 Zn 0.69938 0.94403 0.91873 0.0
Zn96 Zn 0.6186 0.88598 0.89636 0.0
Zn97 Zn 0.71617 0.87189 0.87297 0.0
O98 O 0.74207 0.97744 0.89306 0.0
O99 O 0.76567 0.91708 0.8705 0.0
O100 O 0.74681 0.85572 0.94902 0.0
O101 O 0.74208 0.9309 0.94857 0.0
O102 O 0.64059 0.97707 0.9332 0.0
O103 O 0.5873 0.94083 0.91104 0.0
O104 O 0.60554 0.88225 0.85759 0.0
O105 O 0.71819 0.78018 0.90863 0.0
O106 O 0.67626 0.87857 0.84293 0.0
O107 O 0.73948 0.80724 0.8707 0.0
C108 C 0.60459 0.82387 0.94065 0.0
C109 C 0.77025 0.95823 0.87759 0.0
C110 C 0.5987 0.97126 0.92723 0.0
C111 C 0.7595 0.89421 0.95707 0.0
C112 C 0.63388 0.88059 0.83896 0.0
C113 C 0.73562 0.77438 0.88645 0.0
O114 O 0.5908 0.83821 0.91869 0.0
O115 O 0.4837 0.44032 0.73243 0.0
Zn116 Zn 0.45835 0.4917 0.71209 0.0
O117 O 0.40766 0.47059 0.69099 0.0
Zn118 Zn 0.34856 0.48922 0.70435 0.0
Zn119 Zn 0.40815 0.40577 0.68757 0.0
Zn120 Zn 0.41827 0.49658 0.65772 0.0
O121 O 0.31698 0.53088 0.67731 0.0
O122 O 0.37706 0.54941 0.65334 0.0
O123 O 0.43668 0.53803 0.73712 0.0
O124 O 0.36157 0.53179 0.7342 0.0
O125 O 0.31135 0.43288 0.71851 0.0
O126 O 0.35676 0.37698 0.70643 0.0
O127 O 0.40472 0.3848 0.65 0.0
O128 O 0.51121 0.51579 0.69084 0.0
O129 O 0.4033 0.45198 0.63076 0.0
O130 O 0.48343 0.51365 0.65111 0.0
C131 C 0.48347 0.39866 0.72635 0.0
C132 C 0.33635 0.55627 0.66048 0.0
C133 C 0.3213 0.39044 0.718 0.0
C134 C 0.39702 0.54918 0.7443 0.0
C135 C 0.40091 0.40905 0.62969 0.0
C136 C 0.51629 0.52049 0.66652 0.0
O137 O 0.46093 0.38319 0.70722 0.0
O138 O 0.89874 0.21261 0.4422 0.0
Zn139 Zn 0.83796 0.20344 0.42623 0.0
O140 O 0.84263 0.14635 0.40741 0.0
Zn141 Zn 0.82343 0.09465 0.42775 0.0
Zn142 Zn 0.90547 0.13815 0.39858 0.0
Zn143 Zn 0.80755 0.15304 0.37693 0.0
O144 O 0.77484 0.05788 0.40773 0.0
O145 O 0.75708 0.10861 0.37741 0.0
O146 O 0.79312 0.19586 0.45504 0.0
O147 O 0.78731 0.12055 0.45683 0.0
O148 O 0.87978 0.06021 0.44322 0.0
O149 O 0.93618 0.09258 0.42179 0.0
O150 O 0.91411 0.12269 0.36115 0.0
O151 O 0.81727 0.25645 0.40329 0.0
O152 O 0.84531 0.13849 0.34639 0.0
O153 O 0.78325 0.21619 0.37258 0.0
C154 C 0.93585 0.20802 0.43007 0.0
C155 C 0.74922 0.07162 0.38925 0.0
C156 C 0.92238 0.06492 0.43893 0.0
C157 C 0.7768 0.15995 0.46496 0.0
C158 C 0.88606 0.12631 0.34256 0.0
C159 C 0.79228 0.2541 0.38317 0.0
O160 O 0.93612 0.19564 0.40654 0.0
O161 O 0.04352 0.5952 0.23165 0.0
Zn162 Zn 0.06539 0.53991 0.21342 0.0
O163 O 0.11778 0.55513 0.19212 0.0
Zn164 Zn 0.17565 0.53551 0.20656 0.0
Zn165 Zn 0.12111 0.61943 0.18606 0.0
Zn166 Zn 0.10661 0.5241 0.16035 0.0
O167 O 0.20878 0.49336 0.17998 0.0
O168 O 0.14865 0.47188 0.15689 0.0
O169 O 0.08382 0.4938 0.23955 0.0
O170 O 0.15917 0.49331 0.23591 0.0
O171 O 0.21204 0.59178 0.2218 0.0
O172 O 0.17186 0.64884 0.20589 0.0
O173 O 0.12562 0.63456 0.14747 0.0
O174 O 1.01092 0.51774 0.19245 0.0
O175 O 0.11968 0.56481 0.13173 0.0
O176 O 0.04156 0.50718 0.15395 0.0
C177 C 0.045 0.6355 0.22309 0.0
C178 C 0.18988 0.46666 0.16355 0.0
C179 C 0.20437 0.6346 0.21985 0.0
C180 C 0.12261 0.4792 0.24636 0.0
C181 C 0.12484 0.60703 0.12841 0.0
C182 C 1.00713 0.5073 0.16863 0.0
O183 O 0.06794 0.64667 0.20321 0.0
O184 O 0.85118 0.72562 0.51026 0.0
Zn185 Zn 0.8011 0.70121 0.53165 0.0
O186 O 0.82364 0.65348 0.55435 0.0
Zn187 Zn 0.80635 0.59303 0.54212 0.0
Zn188 Zn 0.88867 0.65658 0.55734 0.0
Zn189 Zn 0.79831 0.66741 0.58761 0.0
O190 O 0.76174 0.56493 0.56891 0.0
O191 O 0.74874 0.62385 0.59506 0.0
O192 O 0.7555 0.67659 0.50719 0.0
O193 O 0.76649 0.60209 0.51056 0.0
O194 O 0.86447 0.55489 0.53078 0.0
O195 O 0.91881 0.60366 0.54064 0.0
O196 O 0.91092 0.65798 0.59464 0.0
O197 O 0.77657 0.75551 0.55109 0.0
O198 O 0.84439 0.6583 0.61438 0.0
O199 O 0.77805 0.73256 0.59179 0.0
C200 C 0.89282 0.72761 0.51608 0.0
C201 C 0.73971 0.58377 0.58747 0.0
C202 C 0.90661 0.56608 0.53094 0.0
C203 C 0.74739 0.63622 0.49993 0.0
C204 C 0.88728 0.65673 0.61523 0.0
C205 C 0.77101 0.76341 0.5751 0.0
O206 O 0.90956 0.70766 0.53577 0.0
O207 O 0.0615 0.12194 0.76752 0.0
Zn208 Zn 0.07802 0.06941 0.78891 0.0
O209 O 0.12543 0.088 0.81254 0.0
Zn210 Zn 0.18599 0.07229 0.80033 0.0
Zn211 Zn 0.12226 0.1525 0.81782 0.0
Zn212 Zn 0.11135 0.05706 0.84379 0.0
O213 O 0.21739 0.02985 0.82706 0.0
O214 O 0.15602 1.00811 0.84897 0.0
O215 O 0.10237 0.02329 0.76459 0.0
O216 O 0.17693 0.03219 0.76902 0.0
O217 O 0.22138 0.13068 0.7883 0.0
O218 O 0.17411 0.18484 0.80076 0.0
O219 O 0.12234 0.16869 0.85619 0.0
O220 O 0.02062 0.04707 0.80666 0.0
O221 O 0.11678 0.09958 0.87301 0.0
O222 O 0.0486 0.03142 0.8454 0.0
C223 C 0.05678 0.16242 0.77519 0.0
C224 C 0.19749 1.00323 0.84302 0.0
C225 C 0.21039 0.17281 0.78946 0.0
C226 C 0.14281 0.01415 0.75788 0.0
C227 C 0.12031 0.14222 0.87567 0.0
C228 C 0.01576 0.03199 0.82954 0.0
O229 O 0.07004 0.17589 0.79742 0.0
O230 O 0.67587 0.30153 0.01009 0.0
Zn231 Zn 0.72492 0.32409 0.03295 0.0
O232 O 0.70311 0.37557 0.05346 0.0
Zn233 Zn 0.72201 0.4346 0.03973 0.0
Zn234 Zn 0.63778 0.37378 0.05582 0.0
Zn235 Zn 0.72803 0.36568 0.08716 0.0
O236 O 0.76675 0.46538 0.06582 0.0
O237 O 0.77612 0.41019 0.09475 0.0
O238 O 0.77366 0.3453 0.00902 0.0
O239 O 0.76254 0.42028 0.00915 0.0
O240 O 0.66466 0.47343 0.02737 0.0
O241 O 0.60919 0.42814 0.04004 0.0
O242 O 0.61449 0.37083 0.09288 0.0
O243 O 0.74397 0.26938 0.05518 0.0
O244 O 0.68068 0.37424 0.11302 0.0
O245 O 0.75062 0.30268 0.09333 0.0
C246 C 0.63353 0.30345 0.01377 0.0
C247 C 0.7867 0.44887 0.08581 0.0
C248 C 0.62211 0.46434 0.02908 0.0
C249 C 0.78215 0.38482 0.00035 0.0
C250 C 0.63777 0.37367 0.11358 0.0
C251 C 0.75321 0.26748 0.07926 0.0
O252 O 0.61593 0.32488 0.03268 0.0
O253 O 0.46118 0.91374 0.27015 0.0
Zn254 Zn 0.44063 0.96137 0.29449 0.0
O255 O 0.39838 0.93514 0.31896 0.0
Zn256 Zn 0.33551 0.94979 0.30979 0.0
Zn257 Zn 0.40529 0.86995 0.32 0.0
Zn258 Zn 0.41693 0.96 0.35171 0.0
O259 O 0.30992 0.99295 0.33832 0.0
O260 O 0.37105 1.00559 0.36295 0.0
O261 O 0.40971 1.00669 0.27262 0.0
O262 O 0.33709 0.98905 0.27773 0.0
O263 O 0.29918 0.89052 0.29874 0.0
O264 O 0.35184 0.83789 0.30443 0.0
O265 O 0.41353 0.84614 0.35673 0.0
O266 O 0.49728 0.98751 0.31082 0.0
O267 O 0.4177 0.91178 0.37763 0.0
O268 O 0.48063 0.98524 0.35247 0.0
C269 C 0.4674 0.87203 0.27473 0.0
C270 C 0.32999 1.01373 0.35695 0.0
C271 C 0.31255 0.8491 0.2967 0.0
C272 C 0.36836 1.0109 0.26621 0.0
C273 C 0.41753 0.86881 0.37761 0.0
C274 C 0.5084 0.99377 0.33435 0.0
O275 O 0.45421 0.85298 0.29554 0.0
O276 O 0.18624 0.28414 0.48196 0.0
Zn277 Zn 0.23518 0.31141 0.4603 0.0
O278 O 0.21097 0.36308 0.4404 0.0
Zn279 Zn 0.22827 0.42252 0.4541 0.0
Zn280 Zn 0.14559 0.35999 0.43838 0.0
Zn281 Zn 0.23531 0.35558 0.40641 0.0
O282 O 0.27187 0.4551 0.42827 0.0
O283 O 0.28382 0.40044 0.39931 0.0
O284 O 0.28226 0.33437 0.48515 0.0
O285 O 0.26935 0.40908 0.48427 0.0
O286 O 0.1706 0.45955 0.46725 0.0
O287 O 0.11583 0.41214 0.45611 0.0
O288 O 0.12178 0.35988 0.40127 0.0
O289 O 0.2575 0.25873 0.4371 0.0
O290 O 0.1876 0.36585 0.38097 0.0
O291 O 0.25615 0.29249 0.39898 0.0
C292 C 0.14391 0.28459 0.47781 0.0
C293 C 0.29297 0.43939 0.40849 0.0
C294 C 0.12836 0.44879 0.46678 0.0
C295 C 0.28969 0.3744 0.49346 0.0
C296 C 0.1447 0.36462 0.38057 0.0
C297 C 0.26259 0.25724 0.41259 0.0
O298 O 0.12591 0.30779 0.45969 0.0
O299 O 0.9611 0.89764 0.19114 0.0
Zn300 Zn 0.94087 0.95048 0.17115 0.0
O301 O 0.88644 0.93341 0.15266 0.0
Zn302 Zn 0.8304 0.9483 0.17077 0.0
Zn303 Zn 0.88668 0.86912 0.14561 0.0
Zn304 Zn 0.89166 0.96828 0.12198 0.0
O305 O 0.79143 0.99291 0.14856 0.0
O306 O 0.84449 0.01548 0.12072 0.0
O307 O 0.92428 0.99819 0.19681 0.0
O308 O 0.8495 0.98823 0.20008 0.0
O309 O 0.79881 0.88907 0.18563 0.0
O310 O 0.83395 0.83684 0.16216 0.0
O311 O 0.88692 0.85625 0.1069 0.0
O312 O 0.99336 0.97072 0.14791 0.0
O313 O 0.8829 0.92741 0.093 0.0
O314 O 0.9523 0.99609 0.11525 0.0
C315 C 0.95883 0.85595 0.18535 0.0
C316 C 0.80556 0.01979 0.1308 0.0
C317 C 0.80453 0.84739 0.17912 0.0
C318 C 0.8862 1.00736 0.20713 0.0
C319 C 0.88366 0.88511 0.08861 0.0
C320 C 0.99043 0.99088 0.12619 0.0
O321 O 0.93749 0.84148 0.16554 0.0
O322 O 0.34505 0.75221 0.97841 0.0
Zn323 Zn 0.29504 0.72366 0.95925 0.0
O324 O 0.3153 0.66839 0.94156 0.0
Zn325 Zn 0.29731 0.61238 0.95943 0.0
Zn326 Zn 0.38056 0.66956 0.93751 0.0
Zn327 Zn 0.28742 0.67229 0.9082 0.0
O328 O 0.25045 0.57663 0.93671 0.0
O329 O 0.24141 0.6248 0.90397 0.0
O330 O 0.25117 0.70785 0.98666 0.0
O331 O 0.26125 0.63304 -0.00923 0.0
O332 O 0.35562 0.57556 0.97186 0.0
O333 O 0.41065 0.61753 0.95529 0.0
O334 O 0.40068 0.66807 0.89969 0.0
O335 O 0.27146 0.77289 0.9351 0.0
O336 O 0.33295 0.66266 0.88144 0.0
O337 O 0.26017 0.73253 0.89962 0.0
C338 C 0.38715 0.74856 0.97462 0.0
C339 C 0.23073 0.58849 0.91562 0.0
C340 C 0.39809 0.58359 0.96855 0.0
C341 C 0.24398 0.67058 -0.00173 0.0
C342 C 0.37575 0.66342 0.87971 0.0
C343 C 0.25835 0.76992 0.91172 0.0
O344 O 0.40376 0.72198 0.95763 0.0
O345 O 0.55816 0.14008 0.69396 0.0
Zn346 Zn 0.57636 0.0858 0.67445 0.0
O347 O 0.63651 0.09603 0.66047 0.0
Zn348 Zn 0.68403 0.06991 0.68264 0.0
Zn349 Zn 0.64654 0.16067 0.65679 0.0
Zn350 Zn 0.63485 0.06886 0.62693 0.0
O351 O 0.71837 0.01996 0.66202 0.0
O352 O 0.67593 0.01585 0.62641 0.0
O353 O 0.57817 0.03749 0.70096 0.0
O354 O 0.65177 0.03385 0.71057 0.0
O355 O 0.72359 0.12198 0.70012 0.0
O356 O 0.69757 0.18172 0.67874 0.0
O357 O 0.65849 0.18048 0.61992 0.0
O358 O 0.52856 0.07068 0.64747 0.0
O359 O 0.65549 0.113 0.60096 0.0
O360 O 0.57261 0.05027 0.61495 0.0
C361 C 0.5685 0.18137 0.69081 0.0
C362 C 0.70792 1.00083 0.64051 0.0
C363 C 0.72345 0.16496 0.69587 0.0
C364 C 0.61069 0.02226 0.7145 0.0
C365 C 0.66193 0.15553 0.59992 0.0
C366 C 0.53336 0.05517 0.62464 0.0
O367 O 0.59661 0.19424 0.67368 0.0
H368 H 0.44426 0.2567 0.00484 0.0
H369 H 0.49531 0.14922 0.05344 0.0
H370 H 0.57125 0.16057 0.03655 0.0
H371 H 0.624 0.21492 0.01844 0.0
H372 H 0.574 0.33099 0.97714 0.0
H373 H 0.4972 0.30072 0.97843 0.0
C374 C 0.47199 0.23542 0.01135 0.0
C375 C 0.4651 0.204 0.03123 0.0
C376 C 0.51577 0.24325 0.0023 0.0
C377 C 0.50062 0.17537 0.03905 0.0
C378 C 0.54384 0.18131 0.02914 0.0
C379 C 0.5965 0.23191 0.00837 0.0
C380 C 0.60345 0.27535 -0.00145 0.0
C381 C 0.55222 0.21714 0.01213 0.0
C382 C 0.56859 0.29749 0.98514 0.0
C383 C 0.52461 0.28079 0.98653 0.0
H384 H 0.58465 0.71803 0.24923 0.0
H385 H 0.4539 0.65399 0.25212 0.0
H386 H 0.41714 0.72627 0.24213 0.0
H387 H 0.42286 0.80757 0.25005 0.0
H388 H 0.55356 0.87075 0.25653 0.0
H389 H 0.59041 0.79992 0.2439 0.0
C390 C 0.54824 0.7199 0.24645 0.0
C391 C 0.52141 0.68218 0.25222 0.0
C392 C 0.52771 0.76181 0.24262 0.0
C393 C 0.47463 0.68343 0.24815 0.0
C394 C 0.4538 0.72472 0.24265 0.0
C395 C 0.45926 0.80609 0.2472 0.0
C396 C 0.48602 0.84287 0.25483 0.0
C397 C 0.47986 0.76448 0.24242 0.0
C398 C 0.53283 0.84208 0.25097 0.0
C399 C 0.55375 0.80147 0.24415 0.0
H400 H 0.04121 0.85874 0.51756 0.0
H401 H 0.11476 0.73323 0.50871 0.0
H402 H 0.0472 0.69684 0.4911 0.0
H403 H 0.96479 0.69591 0.49159 0.0
H404 H 0.89044 0.8182 0.50747 0.0
H405 H 0.96062 0.86196 0.50706 0.0
C406 C 0.04247 0.82358 0.51142 0.0
C407 C 0.08163 0.7977 0.5156 0.0
C408 C 1.00342 0.80281 0.50215 0.0
C409 C 0.08414 0.75307 0.50642 0.0
C410 C 0.04572 0.73243 0.49625 0.0
C411 C 0.96409 0.73257 0.49347 0.0
C412 C 0.92369 0.75407 0.50044 0.0
C413 C 1.00461 0.75617 0.49583 0.0
C414 C 0.92181 0.80132 0.50242 0.0
C415 C 0.96196 0.82602 0.50279 0.0
H416 H 0.10692 0.23006 0.75818 0.0
H417 H 0.97438 0.17049 0.75221 0.0
H418 H 0.9431 0.24294 0.73758 0.0
H419 H 0.94988 0.32448 0.7439 0.0
H420 H 0.08002 0.38409 0.75932 0.0
H421 H 0.11699 0.31119 0.75144 0.0
C422 C 0.07162 0.23287 0.75248 0.0
C423 C 0.0422 0.19662 0.75695 0.0
C424 C 0.0538 0.275 0.74605 0.0
C425 C 0.99692 0.19893 0.74922 0.0
C426 C 0.9792 0.24029 0.74106 0.0
C427 C 0.98655 0.32161 0.74413 0.0
C428 C 1.01256 0.35806 0.75295 0.0
C429 C 1.00657 0.27912 0.74197 0.0
C430 C 0.05981 0.3556 0.7529 0.0
C431 C 0.08069 0.31389 0.74875 0.0
H432 H 0.53175 0.87192 0.95326 0.0
H433 H 0.60583 0.75049 0.97222 0.0
H434 H 0.54214 0.72321 -0.00186 0.0
H435 H 0.45988 0.72384 0.00153 0.0
H436 H 0.38419 0.84032 0.97636 0.0
H437 H 0.45423 0.88204 0.96899 0.0
C438 C 0.53395 0.83992 0.96357 0.0
C439 C 0.57139 0.81162 0.95996 0.0
C440 C 0.49718 0.8244 0.97776 0.0
C441 C 0.57595 0.77153 0.97419 0.0
C442 C 0.53987 0.75625 0.98908 0.0
C443 C 0.4591 0.75932 -0.00405 0.0
C444 C 0.41817 0.77862 0.98798 0.0
C445 C 0.49922 0.78082 0.98918 0.0
C446 C 0.41605 0.82476 0.9818 0.0
C447 C 0.45606 0.84812 0.97698 0.0
H448 H 0.61197 0.25574 0.70697 0.0
H449 H 0.48864 0.17963 0.71712 0.0
H450 H 0.45641 0.24154 0.74262 0.0
H451 H 0.45613 0.32321 0.74947 0.0
H452 H 0.57472 0.40182 0.73218 0.0
H453 H 0.61793 0.3326 0.72432 0.0
C454 C 0.5782 0.25265 0.71503 0.0
C455 C 0.55143 0.21481 0.70914 0.0
C456 C 0.55978 0.28856 0.72896 0.0
C457 C 0.50889 0.20956 0.72072 0.0
C458 C 0.49072 0.24466 0.73543 0.0
C459 C 0.49218 0.32468 0.74547 0.0
C460 C 0.5121 0.36662 0.74005 0.0
C461 C 0.51476 0.28534 0.73806 0.0
C462 C 0.55879 0.36938 0.73579 0.0
C463 C 0.58304 0.32988 0.7306 0.0
H464 H 0.13414 0.19737 0.46727 0.0
H465 H 0.0851 0.30304 0.51695 0.0
H466 H 1.00708 0.28007 0.50877 0.0
H467 H 0.95605 0.24983 0.47527 0.0
H468 H 1.00895 0.15642 0.41854 0.0
H469 H 0.08161 0.15508 0.44057 0.0
C470 C 0.10624 0.21333 0.47748 0.0
C471 C 0.11434 0.25318 0.49128 0.0
C472 C 0.06197 0.20409 0.46968 0.0
C473 C 0.07898 0.27293 0.50546 0.0
C474 C 0.03435 0.26076 0.50008 0.0
C475 C 0.98341 0.22883 0.46802 0.0
C476 C 0.97809 0.20499 0.44478 0.0
C477 C 0.02578 0.22983 0.4801 0.0
C478 C 1.0131 0.17675 0.43583 0.0
C479 C 0.05445 0.17541 0.4486 0.0
H480 H 0.07423 0.71394 0.24188 0.0
H481 H 0.9538 0.63574 0.22796 0.0
H482 H 0.91103 0.70501 0.21937 0.0
H483 H 0.91637 0.78178 0.20169 0.0
H484 H 0.03956 0.85835 0.21064 0.0
H485 H 0.07361 0.79585 0.23509 0.0
C486 C 0.03797 0.71264 0.23844 0.0
C487 C 0.01709 0.67062 0.23456 0.0
C488 C 0.01511 0.75198 0.23129 0.0
C489 C 0.97027 0.6682 0.23066 0.0
C490 C 0.94622 0.70766 0.22514 0.0
C491 C 0.95042 0.78481 0.20942 0.0
C492 C 0.97665 0.82292 0.20354 0.0
C493 C 0.96959 0.74882 0.22296 0.0
C494 C 0.01973 0.82821 0.21443 0.0
C495 C 0.03893 0.79277 0.22846 0.0
H496 H 0.41036 0.04185 0.97234 0.0
H497 H 0.488 0.04091 0.04308 0.0
H498 H 0.55528 0.01786 0.01944 0.0
H499 H 0.59354 0.99672 0.97857 0.0
H500 H 0.51631 0.99548 0.90786 0.0
H501 H 0.44897 0.02079 0.93121 0.0
C502 C 0.44177 0.03599 0.98266 0.0
C503 C 0.44325 0.04298 0.00973 0.0
C504 C 0.48132 0.02292 0.96875 0.0
C505 C 0.48505 0.03577 0.0224 0.0
C506 C 0.52401 0.02274 0.00881 0.0
C507 C 0.56231 1.00306 0.96815 0.0
C508 C 0.56073 0.99494 0.94124 0.0
C509 C 0.52287 0.01648 0.98193 0.0
C510 C 0.51912 1.00201 0.92842 0.0
C511 C 0.48024 0.01615 0.94186 0.0
H512 H 0.73097 0.65868 0.22276 0.0
H513 H 0.71277 0.73963 0.2914 0.0
H514 H 0.74075 0.8064 0.26877 0.0
H515 H 0.77013 0.8434 0.22907 0.0
H516 H 0.78823 0.76263 0.16035 0.0
H517 H 0.76046 0.69576 0.183 0.0
C518 C 0.7339 0.6907 0.23291 0.0
C519 C 0.72005 0.69343 0.25903 0.0
C520 C 0.74939 0.72987 0.21949 0.0
C521 C 0.72331 0.73592 0.27145 0.0
C522 C 0.73912 0.7745 0.25842 0.0
C523 C 0.76726 0.8114 0.21889 0.0
C524 C 0.78099 0.80878 0.19275 0.0
C525 C 0.75183 0.77223 0.2323 0.0
C526 C 0.77777 0.76629 0.18031 0.0
C527 C 0.76208 0.72764 0.19336 0.0
H528 H 0.04533 0.96142 0.5212 0.0
H529 H 0.15179 0.02639 0.47785 0.0
H530 H 0.09502 0.06068 0.44921 0.0
H531 H 0.01513 0.07172 0.43622 0.0
H532 H 0.90909 1.00549 0.47935 0.0
H533 H 0.96587 0.97165 0.50795 0.0
C534 C 0.05639 0.98341 0.50565 0.0
C535 C 0.10327 0.99157 0.50204 0.0
C536 C 0.0235 1.00236 0.48894 0.0
C537 C 0.11631 0.01957 0.48135 0.0
C538 C 0.08372 0.0391 0.46487 0.0
C539 C 1.00419 0.04975 0.45179 0.0
C540 C 0.95731 0.04132 0.45539 0.0
C541 C 0.0372 0.03057 0.46839 0.0
C542 C 0.9445 1.01265 0.47584 0.0
C543 C 0.97709 0.9934 0.49234 0.0
H544 H 0.84524 0.28522 0.77173 0.0
H545 H 0.75966 0.39053 0.74036 0.0
H546 H 0.72019 0.33434 0.71398 0.0
H547 H 0.71044 0.25619 0.69913 0.0
H548 H 0.79408 0.14948 0.73048 0.0
H549 H 0.83393 0.20549 0.75738 0.0
C550 C 0.81775 0.29604 0.75927 0.0
C551 C 0.80562 0.34264 0.75826 0.0
C552 C 0.79508 0.26327 0.74392 0.0
C553 C 0.76993 0.35538 0.74177 0.0
C554 C 0.74736 0.32312 0.72655 0.0
C555 C 0.7376 0.2448 0.71167 0.0
C556 C 0.74942 0.19818 0.71234 0.0
C557 C 0.75984 0.2771 0.72731 0.0
C558 C 0.78425 0.18477 0.72926 0.0
C559 C 0.807 0.21694 0.74472 0.0
H560 H 0.34139 0.30061 0.72455 0.0
H561 H 0.23979 0.40014 0.74403 0.0
H562 H 0.19771 0.34221 0.76807 0.0
H563 H 0.18974 0.26318 0.78359 0.0
H564 H 0.29197 0.16427 0.76402 0.0
H565 H 0.33382 0.22231 0.74018 0.0
C566 C 0.30991 0.30995 0.7339 0.0
C567 C 0.29389 0.35523 0.73217 0.0
C568 C 0.28608 0.27645 0.74789 0.0
C569 C 0.2531 0.36597 0.74478 0.0
C570 C 0.22903 0.3327 0.75862 0.0
C571 C 0.22137 0.25414 0.77431 0.0
C572 C 0.23761 0.20887 0.77592 0.0
C573 C 0.24525 0.28783 0.76039 0.0
C574 C 0.27851 0.1984 0.76338 0.0
C575 C 0.30246 0.23171 0.74963 0.0
H576 H 0.33354 0.75918 0.28903 0.0
H577 H 0.22922 0.85765 0.27265 0.0
H578 H 0.1879 0.8007 0.24748 0.0
H579 H 0.18191 0.72344 0.22922 0.0
H580 H 0.2855 0.62455 0.24615 0.0
H581 H 0.32654 0.68128 0.27172 0.0
C582 C 0.30155 0.76839 0.28019 0.0
C583 C 0.28472 0.81329 0.28306 0.0
C584 C 0.27796 0.73532 0.26552 0.0
C585 C 0.24318 0.82381 0.27113 0.0
C586 C 0.21958 0.79112 0.25655 0.0
C587 C 0.21362 0.71407 0.23835 0.0
C588 C 0.23059 0.66928 0.23533 0.0
C589 C 0.23679 0.74687 0.25341 0.0
C590 C 0.27147 0.65833 0.24784 0.0
C591 C 0.29495 0.69093 0.26257 0.0
H592 H 0.03794 0.42944 0.47155 0.0
H593 H 0.13631 0.53173 0.49158 0.0
H594 H 0.0769 0.57561 0.51331 0.0
H595 H 0.99723 0.58502 0.52667 0.0
H596 H 0.89888 0.48269 0.50665 0.0
H597 H 0.95835 0.4387 0.48506 0.0
C598 C 0.04671 0.46143 0.48056 0.0
C599 C 0.09219 0.47708 0.47967 0.0
C600 C 1.01227 0.4864 0.49321 0.0
C601 C 0.1021 0.51862 0.49173 0.0
C602 C 0.06797 0.54373 0.50425 0.0
C603 C 0.98848 0.55297 0.51773 0.0
C604 C 0.94298 0.53737 0.51855 0.0
C605 C 0.02296 0.52792 0.50517 0.0
C606 C 0.93312 0.49574 0.50658 0.0
C607 C 0.96727 0.47058 0.49413 0.0
H608 H 0.53043 0.45033 0.02962 0.0
H609 H 0.63068 0.54385 0.0008 0.0
H610 H 0.57059 0.58773 0.97955 0.0
H611 H 0.48979 0.59904 0.96867 0.0
H612 H 0.38986 0.50529 -0.00236 0.0
H613 H 0.4499 0.4619 0.0191 0.0
C614 C 0.53953 0.48043 0.01881 0.0
C615 C 0.58572 0.49355 0.01704 0.0
C616 C 0.50471 0.50533 0.00646 0.0
C617 C 0.59593 0.53276 0.00275 0.0
C618 C 0.56141 0.55781 -0.00952 0.0
C619 C 0.48083 0.56899 0.97957 0.0
C620 C 0.43469 0.55556 0.98125 0.0
C621 C 0.5157 0.54429 -0.00793 0.0
C622 C 0.42455 0.5166 -0.00424 0.0
C623 C 0.45905 0.49179 0.00813 0.0
H624 H 0.31463 0.32302 0.10516 0.0
H625 H 0.18548 0.25559 0.0996 0.0
H626 H 0.14937 0.31725 0.12311 0.0
H627 H 0.15373 0.38947 0.14535 0.0
H628 H 0.28179 0.45767 0.15387 0.0
H629 H 0.31929 0.39634 0.12966 0.0
C630 C 0.27856 0.32225 0.10895 0.0
C631 C 0.25263 0.28494 0.1004 0.0
C632 C 0.25796 0.35759 0.1233 0.0
C633 C 0.20611 0.28388 0.10589 0.0
C634 C 0.18542 0.31909 0.1194 0.0
C635 C 0.18993 0.39109 0.14199 0.0
C636 C 0.21483 0.42836 0.15129 0.0
C637 C 0.21097 0.35592 0.12827 0.0
C638 C 0.26181 0.42933 0.14705 0.0
C639 C 0.28315 0.39439 0.13303 0.0
H640 H 0.47904 0.52844 0.37567 0.0
H641 H 0.43762 0.47566 0.30152 0.0
H642 H 0.3662 0.44987 0.32022 0.0
H643 H 0.3172 0.43869 0.35803 0.0
H644 H 0.3556 0.49474 0.43185 0.0
H645 H 0.42597 0.52375 0.41285 0.0
C646 C 0.45431 0.5113 0.36363 0.0
C647 C 0.464 0.50336 0.33727 0.0
C648 C 0.41263 0.49751 0.37442 0.0
C649 C 0.4312 0.48199 0.32183 0.0
C650 C 0.39031 0.46724 0.33253 0.0
C651 C 0.34067 0.45785 0.3699 0.0
C652 C 0.3312 0.46439 0.39637 0.0
C653 C 0.38086 0.47441 0.35883 0.0
C654 C 0.36181 0.48956 0.41141 0.0
C655 C 0.40228 0.50573 0.40059 0.0
H656 H 0.22015 0.70376 0.60081 0.0
H657 H 0.3449 0.77795 0.60987 0.0
H658 H 0.37815 0.71448 0.63344 0.0
H659 H 0.37284 0.6375 0.65045 0.0
H660 H 0.24749 0.56374 0.64474 0.0
H661 H 0.21297 0.62759 0.62127 0.0
C662 C 0.25461 0.70583 0.60795 0.0
C663 C 0.28027 0.7453 0.60335 0.0
C664 C 0.2732 0.66949 0.6222 0.0
C665 C 0.32455 0.74797 0.61311 0.0
C666 C 0.34358 0.71169 0.62658 0.0
C667 C 0.33782 0.63549 0.6442 0.0
C668 C 0.3128 0.5959 0.64909 0.0
C669 C 0.31834 0.67229 0.63112 0.0
C670 C 0.26733 0.59396 0.64126 0.0
C671 C 0.24778 0.63033 0.6277 0.0
H672 H 0.0412 0.50766 0.88293 0.0
H673 H 0.09171 0.5465 0.8078 0.0
H674 H 0.16396 0.56779 0.82701 0.0
H675 H 0.21131 0.5797 0.86508 0.0
H676 H 0.16324 0.54102 0.94056 0.0
H677 H 0.09209 0.51404 0.92123 0.0
C678 C 0.06802 0.52087 0.87079 0.0
C679 C 0.06066 0.52607 0.84393 0.0
C680 C 0.1101 0.53252 0.88198 0.0
C681 C 0.09617 0.54238 0.82847 0.0
C682 C 0.13762 0.55449 0.83944 0.0
C683 C 0.18557 0.56465 0.87731 0.0
C684 C 0.19253 0.56248 0.90425 0.0
C685 C 0.14478 0.55012 0.86614 0.0
C686 C 0.15898 0.54264 0.91977 0.0
C687 C 0.11806 0.5278 0.90873 0.0
H688 H 0.82652 0.58242 0.87444 0.0
H689 H 0.77938 0.59869 0.79604 0.0
H690 H 0.74496 0.6716 0.80745 0.0
H691 H 0.73288 0.73319 0.8393 0.0
H692 H 0.77637 0.71383 0.91819 0.0
H693 H 0.80788 0.63981 0.90703 0.0
C694 C 0.80815 0.60167 0.85995 0.0
C695 C 0.80562 0.58541 0.83444 0.0
C696 C 0.78836 0.64327 0.86668 0.0
C697 C 0.78144 0.6104 0.81587 0.0
C698 C 0.76216 0.65227 0.82233 0.0
C699 C 0.74922 0.71261 0.85398 0.0
C700 C 0.75291 0.72906 0.87943 0.0
C701 C 0.76623 0.66948 0.84756 0.0
C702 C 0.77331 0.70186 0.89845 0.0
C703 C 0.79131 0.65958 0.89209 0.0
H704 H 0.55147 0.49895 0.61925 0.0
H705 H 0.58271 0.56934 0.69021 0.0
H706 H 0.65603 0.59199 0.67263 0.0
H707 H 0.7095 0.5952 0.63641 0.0
H708 H 0.68067 0.52254 0.56593 0.0
H709 H 0.60863 0.49647 0.58418 0.0
C710 C 0.57436 0.51928 0.63084 0.0
C711 C 0.56129 0.53306 0.6559 0.0
C712 C 0.61701 0.5314 0.62077 0.0
C713 C 0.59174 0.55853 0.67086 0.0
C714 C 0.63371 0.57146 0.66082 0.0
C715 C 0.68773 0.57315 0.62513 0.0
C716 C 0.70037 0.56103 0.59976 0.0
C717 C 0.64648 0.55848 0.63573 0.0
C718 C 0.67196 0.5321 0.58554 0.0
C719 C 0.63055 0.51759 0.5959 0.0
H720 H 0.82849 0.33725 0.37045 0.0
H721 H 0.70389 0.26134 0.3725 0.0
H722 H 0.66293 0.32544 0.35418 0.0
H723 H 0.66196 0.40222 0.33745 0.0
H724 H 0.78559 0.47893 0.332 0.0
H725 H 0.82776 0.41529 0.35127 0.0
C726 C 0.79236 0.33514 0.36701 0.0
C727 C 0.76904 0.29483 0.37305 0.0
C728 C 0.76903 0.37198 0.35561 0.0
C729 C 0.72243 0.29203 0.36807 0.0
C730 C 0.69901 0.32862 0.35755 0.0
C731 C 0.6982 0.40517 0.34044 0.0
C732 C 0.72054 0.44541 0.3335 0.0
C733 C 0.72192 0.36859 0.35119 0.0
C734 C 0.76761 0.44826 0.33711 0.0
C735 C 0.79161 0.41198 0.34828 0.0
H736 H 0.81005 0.44596 0.13635 0.0
H737 H 0.85212 0.50165 0.06315 0.0
H738 H 0.92445 0.52479 0.08245 0.0
H739 H 0.97807 0.52326 0.11938 0.0
H740 H 0.93404 0.47 0.19284 0.0
H741 H 0.86022 0.45142 0.17415 0.0
C742 C 0.83474 0.4639 0.1247 0.0
C743 C 0.82574 0.47194 0.09829 0.0
C744 C 0.8762 0.47672 0.13589 0.0
C745 C 0.85795 0.49545 0.08354 0.0
C746 C 0.89954 0.50816 0.09452 0.0
C747 C 0.95229 0.50755 0.13128 0.0
C748 C 0.96187 0.49722 0.1574 0.0
C749 C 0.90948 0.49789 0.12051 0.0
C750 C 0.92773 0.47792 0.1727 0.0
C751 C 0.88549 0.46737 0.16201 0.0
H752 H 0.78073 0.80125 0.62327 0.0
H753 H 0.73399 0.83066 0.54588 0.0
H754 H 0.71466 0.90761 0.55894 0.0
H755 H 0.70849 0.96564 0.59226 0.0
H756 H 0.75459 0.9382 0.66991 0.0
H757 H 0.7779 0.86179 0.65661 0.0
C758 C 0.7661 0.82444 0.6093 0.0
C759 C 0.75836 0.80986 0.58364 0.0
C760 C 0.75552 0.86916 0.61688 0.0
C761 C 0.74013 0.84071 0.56573 0.0
C762 C 0.72916 0.88485 0.57317 0.0
C763 C 0.72404 0.9432 0.60633 0.0
C764 C 0.72955 0.9577 0.63213 0.0
C765 C 0.73651 0.89933 0.59867 0.0
C766 C 0.7502 0.92816 0.64991 0.0
C767 C 0.76308 0.88427 0.64235 0.0
H768 H 0.85203 0.92056 0.87322 0.0
H769 H 0.78225 0.04755 0.86278 0.0
H770 H 0.85193 0.08147 0.84522 0.0
H771 H 0.93322 0.07377 0.83235 0.0
H772 H 1.00195 0.94721 0.84646 0.0
H773 H 0.93193 0.9139 0.86277 0.0
C774 C 0.85199 0.95574 0.86711 0.0
C775 C 0.81203 0.98146 0.86903 0.0
C776 C 0.89191 0.97477 0.85747 0.0
C777 C 0.81268 0.02717 0.86153 0.0
C778 C 0.85241 0.04637 0.85135 0.0
C779 C 0.93244 0.03881 0.83879 0.0
C780 C 0.97225 1.01251 0.83785 0.0
C781 C 0.89221 0.02033 0.84904 0.0
C782 C 0.97149 0.96771 0.84681 0.0
C783 C 0.93159 0.94878 0.8562 0.0
H784 H 0.82011 0.10362 0.14805 0.0
H785 H 0.73932 0.02753 0.09415 0.0
H786 H 0.71635 0.09806 0.07246 0.0
H787 H 0.72488 0.18146 0.06679 0.0
H788 H 0.80721 0.25597 0.12108 0.0
H789 H 0.82461 0.18626 0.14432 0.0
C790 C 0.79613 0.10276 0.13213 0.0
C791 C 0.78023 0.06074 0.12317 0.0
C792 C 0.78459 0.14315 0.11931 0.0
C793 C 0.75067 0.05968 0.1019 0.0
C794 C 0.73829 0.09995 0.08924 0.0
C795 C 0.74687 0.18226 0.08359 0.0
C796 C 0.76526 0.22388 0.09194 0.0
C797 C 0.75611 0.14184 0.09731 0.0
C798 C 0.79288 0.22447 0.11411 0.0
C799 C 0.80267 0.18461 0.12753 0.0
H800 H 0.70543 0.07483 0.34337 0.0
H801 H 0.69749 0.01454 0.41921 0.0
H802 H 0.62173 0.98541 0.40906 0.0
H803 H 0.55585 0.98125 0.37931 0.0
H804 H 0.566 0.04071 0.30327 0.0
H805 H 0.64259 0.06651 0.31298 0.0
C806 C 0.68739 0.05489 0.35765 0.0
C807 C 0.7071 0.04706 0.38209 0.0
C808 C 0.6439 0.03874 0.35176 0.0
C809 C 0.68334 0.02079 0.4002 0.0
C810 C 0.63981 1.00455 0.39448 0.0
C811 C 0.5748 1.00001 0.36492 0.0
C812 C 0.55488 1.00956 0.34068 0.0
C813 C 0.61937 0.01412 0.37048 0.0
C814 C 0.58029 0.0331 0.32208 0.0
C815 C 0.62417 0.0478 0.32761 0.0
H816 H 0.27877 0.17237 0.43328 0.0
H817 H 0.26774 0.24358 0.36055 0.0
H818 H 0.28062 0.17352 0.33706 0.0
H819 H 0.29909 0.09225 0.3366 0.0
H820 H 0.31616 0.02139 0.40868 0.0
H821 H 0.29591 0.09009 0.43275 0.0
C822 C 0.27928 0.17259 0.41231 0.0
C823 C 0.27255 0.21368 0.3989 0.0
C824 C 0.28714 0.1318 0.39864 0.0
C825 C 0.27315 0.21289 0.37162 0.0
C826 C 0.28028 0.17262 0.35802 0.0
C827 C 0.297 0.09164 0.35755 0.0
C828 C 0.30785 0.0516 0.37085 0.0
C829 C 0.28752 0.13187 0.37125 0.0
C830 C 0.30687 0.05164 0.39804 0.0
C831 C 0.29584 0.09107 0.4118 0.0
H832 H 0.07496 0.95236 0.12269 0.0
H833 H 0.99642 0.06841 0.09883 0.0
H834 H 0.06113 0.09818 0.0751 0.0
H835 H 0.14099 0.09387 0.06318 0.0
H836 H 0.22084 0.97826 0.08549 0.0
H837 H 0.15459 0.94479 0.10702 0.0
C838 C 0.07229 0.98426 0.11239 0.0
C839 C 0.03117 1.00861 0.1129 0.0
C840 C 0.10955 1.00072 0.09808 0.0
C841 C 0.02776 0.0493 0.09894 0.0
C842 C 0.06467 0.06624 0.08525 0.0
C843 C 0.14344 0.06064 0.07208 0.0
C844 C 0.18537 0.03816 0.07243 0.0
C845 C 0.1057 0.04241 0.08479 0.0
C846 C 0.18856 0.9956 0.08442 0.0
C847 C 0.15087 0.97694 0.09711 0.0
H848 H 0.16763 0.91827 0.8413 0.0
H849 H 0.277 0.99962 0.87079 0.0
H850 H 0.30474 0.93458 0.89615 0.0
H851 H 0.29478 0.85501 0.91146 0.0
H852 H 0.18674 0.77433 0.87944 0.0
H853 H 0.16095 0.83883 0.85378 0.0
C854 C 0.19805 0.92147 0.85295 0.0
C855 C 0.22049 0.96335 0.85416 0.0
C856 C 0.21331 0.88432 0.86739 0.0
C857 C 0.2597 0.96738 0.8693 0.0
C858 C 0.27511 0.9304 0.88401 0.0
C859 C 0.26537 0.85192 0.89902 0.0
C860 C 0.24203 0.81034 0.89767 0.0
C861 C 0.2516 0.88889 0.88359 0.0
C862 C 0.2048 0.80616 0.88097 0.0
C863 C 0.19022 0.84291 0.86622 0.0
H864 H 0.44398 0.06649 0.63682 0.0
H865 H 0.53188 0.01466 0.57703 0.0
H866 H 0.46639 0.98901 0.55235 0.0
H867 H 0.38422 0.97426 0.54974 0.0
H868 H 0.29705 0.02285 0.61039 0.0
H869 H 0.36165 0.05771 0.63232 0.0
C870 C 0.44887 0.04988 0.61831 0.0
C871 C 0.493 0.04209 0.60906 0.0
C872 C 0.41095 0.03496 0.60417 0.0
C873 C 0.49845 0.02085 0.58485 0.0
C874 C 0.46093 1.00619 0.57062 0.0
C875 C 0.37937 0.99394 0.56724 0.0
C876 C 0.33601 0.99696 0.57821 0.0
C877 C 0.41703 1.0123 0.58029 0.0
C878 C 0.33011 0.02106 0.60138 0.0
C879 C 0.36711 0.04044 0.61408 0.0
H880 H 0.18259 0.13515 0.98899 0.0
H881 H 0.28151 0.22955 0.96024 0.0
H882 H 0.23862 0.23775 0.91983 0.0
H883 H 0.18025 0.20703 0.89033 0.0
H884 H 0.08224 0.11208 0.91983 0.0
H885 H 0.11622 0.11656 0.96272 0.0
C886 C 0.19418 0.15809 0.97399 0.0
C887 C 0.23535 0.1809 0.97704 0.0
C888 C 0.16934 0.16271 0.95109 0.0
C889 C 0.24993 0.21135 0.95796 0.0
C890 C 0.22549 0.21597 0.93492 0.0
C891 C 0.16526 0.18892 0.90644 0.0
C892 C 0.12933 0.15878 0.90199 0.0
C893 C 0.18603 0.19043 0.93089 0.0
C894 C 0.11022 0.1352 0.92289 0.0
C895 C 0.12991 0.13734 0.94732 0.0
H896 H 0.67376 0.35673 0.16007 0.0
H897 H 0.55504 0.41289 0.12351 0.0
H898 H 0.53434 0.45057 0.1641 0.0
H899 H 0.55899 0.47948 0.2068 0.0
H900 H 0.68422 0.43101 0.23982 0.0
H901 H 0.69403 0.37887 0.20363 0.0
C902 C 0.64277 0.37645 0.16112 0.0
C903 C 0.6165 0.38299 0.13877 0.0
C904 C 0.63312 0.40039 0.1837 0.0
C905 C 0.57591 0.40759 0.14047 0.0
C906 C 0.5645 0.42966 0.16356 0.0
C907 C 0.58796 0.45688 0.20618 0.0
C908 C 0.62129 0.45938 0.22556 0.0
C909 C 0.59427 0.42831 0.18478 0.0
C910 C 0.65869 0.43012 0.22476 0.0
C911 C 0.66415 0.40021 0.2042 0.0
H912 H 0.36387 0.87601 0.49009 0.0
H913 H 0.25414 0.79483 0.46086 0.0
H914 H 0.29597 0.78078 0.42076 0.0
H915 H 0.35646 0.8055 0.39132 0.0
H916 H 0.46553 0.88745 0.42078 0.0
H917 H 0.4329 0.88502 0.46406 0.0
C918 C 0.34975 0.85457 0.47506 0.0
C919 C 0.3059 0.83745 0.47775 0.0
C920 C 0.37415 0.8463 0.45233 0.0
C921 C 0.28782 0.80881 0.45872 0.0
C922 C 0.31171 0.80071 0.43591 0.0
C923 C 0.37428 0.82063 0.40752 0.0
C924 C 0.41267 0.84731 0.40299 0.0
C925 C 0.35407 0.82097 0.43206 0.0
C926 C 0.43562 0.86697 0.424 0.0
C927 C 0.41655 0.86633 0.44861 0.0
H928 H 0.84989 0.67181 0.66165 0.0
H929 H 0.97046 0.61865 0.62566 0.0
H930 H 0.99226 0.5826 0.66655 0.0
H931 H 0.96894 0.55459 0.70971 0.0
H932 H 0.84256 0.60042 0.74231 0.0
H933 H 0.83071 0.65067 0.70547 0.0
C934 C 0.88143 0.65303 0.66283 0.0
C935 C 0.90801 0.64696 0.64058 0.0
C936 C 0.89205 0.63025 0.68567 0.0
C937 C 0.94929 0.62355 0.64253 0.0
C938 C 0.96143 0.60248 0.6658 0.0
C939 C 0.93933 0.5763 0.70885 0.0
C940 C 0.90628 0.57362 0.72832 0.0
C941 C 0.93183 0.60369 0.68706 0.0
C942 C 0.86795 0.6016 0.72721 0.0
C943 C 0.86127 0.63036 0.70625 0.0
H944 H 0.89513 0.93608 0.04629 0.0
H945 H 0.85073 0.80364 0.07094 0.0
H946 H 0.81307 0.79246 0.02918 0.0
H947 H 0.78057 0.82681 -0.0098 0.0
H948 H 0.81581 0.96407 0.96939 0.0
H949 H 0.86854 0.96761 0.00577 0.0
C950 C 0.87784 0.90435 0.0424 0.0
C951 C 0.87448 0.8712 0.06183 0.0
C952 C 0.85355 0.89982 0.01947 0.0
C953 C 0.85336 0.82978 0.05632 0.0
C954 C 0.83132 0.82372 0.03263 0.0
C955 C 0.80027 0.8573 -0.00658 0.0
C956 C 0.79393 0.89548 0.9775 0.0
C957 C 0.82911 0.85958 0.01479 0.0
C958 C 0.81962 0.93467 0.98175 0.0
C959 C 0.84989 0.93656 0.00239 0.0
H960 H 0.33441 0.67566 0.83411 0.0
H961 H 0.45959 0.62835 0.86767 0.0
H962 H 0.48043 0.59341 0.82628 0.0
H963 H 0.45633 0.56547 0.78336 0.0
H964 H 0.32639 0.60603 0.7528 0.0
H965 H 0.31369 0.65411 0.79049 0.0
C966 C 0.36667 0.65832 0.83231 0.0
C967 C 0.39502 0.65368 0.85401 0.0
C968 C 0.37695 0.63629 0.80918 0.0
C969 C 0.43713 0.63216 0.85124 0.0
C970 C 0.44873 0.61174 0.8277 0.0
C971 C 0.4256 0.58545 0.78481 0.0
C972 C 0.39198 0.58185 0.76559 0.0
C973 C 0.41786 0.6118 0.80697 0.0
C974 C 0.35232 0.60776 0.76761 0.0
C975 C 0.34515 0.63535 0.78906 0.0
H976 H 0.63944 0.12377 0.55337 0.0
H977 H 0.71742 0.22848 0.59069 0.0
H978 H 0.75619 0.24459 0.54973 0.0
H979 H 0.77689 0.21872 0.50557 0.0
H980 H 0.70288 0.10809 0.47108 0.0
H981 H 0.65342 0.10431 0.50865 0.0
C982 C 0.66437 0.15072 0.55243 0.0
C983 C 0.67641 0.17427 0.57495 0.0
C984 C 0.68769 0.15807 0.52941 0.0
C985 C 0.70787 0.20979 0.5735 0.0
C986 C 0.73032 0.2186 0.55019 0.0
C987 C 0.74932 0.19451 0.50622 0.0
C988 C 0.74376 0.16319 0.48599 0.0
C989 C 0.72199 0.19142 0.52836 0.0
C990 C 0.70809 0.13189 0.48677 0.0
C991 C 0.6798 0.1298 0.50816 0.0
H992 H 0.17898 0.34571 0.33402 0.0
H993 H 0.06277 0.4058 0.37103 0.0
H994 H 0.04136 0.4422 0.33012 0.0
H995 H 0.06472 0.46828 0.28667 0.0
H996 H 0.18708 0.41483 0.25269 0.0
H997 H 0.1976 0.36485 0.28975 0.0
C998 C 0.14836 0.36602 0.333 0.0
C999 C 0.12297 0.37396 0.3555 0.0
C1000 C 0.13821 0.38894 0.31014 0.0
C1001 C 0.0829 0.39938 0.35391 0.0
C1002 C 0.0711 0.42068 0.33064 0.0
C1003 C 0.09321 0.44509 0.28726 0.0
C1004 C 0.12557 0.44564 0.2673 0.0
C1005 C 0.09992 0.4176 0.30908 0.0
C1006 C 0.1623 0.41552 0.26813 0.0
C1007 C 0.16819 0.38683 0.28921 0.0
H1008 H 0.62858 0.5689 0.40739 0.0
H1009 H 0.65526 0.70445 0.37995 0.0
H1010 H 0.69141 0.72295 0.42135 0.0
H1011 H 0.72357 0.69711 0.46288 0.0
H1012 H 0.70187 0.55907 0.48769 0.0
H1013 H 0.65583 0.54483 0.44937 0.0
C1014 C 0.64187 0.60275 0.41043 0.0
C1015 C 0.63993 0.63506 0.39044 0.0
C1016 C 0.66408 0.61237 0.43362 0.0
C1017 C 0.65651 0.67892 0.39498 0.0
C1018 C 0.67748 0.68934 0.41855 0.0
C1019 C 0.70828 0.66409 0.46004 0.0
C1020 C 0.71647 0.62899 0.47793 0.0
C1021 C 0.68279 0.6558 0.43763 0.0
C1022 C 0.69654 0.58639 0.47402 0.0
C1023 C 0.67013 0.57829 0.45219 0.0
H1024 H 0.21258 0.9064 0.66176 0.0
H1025 H 0.07835 0.93833 0.63396 0.0
H1026 H 0.05878 0.96933 0.67645 0.0
H1027 H 0.08304 0.99508 0.71954 0.0
H1028 H 0.21942 0.96778 0.74541 0.0
H1029 H 0.23493 0.92696 0.70535 0.0
C1030 C 0.17881 0.91973 0.66493 0.0
C1031 C 0.14718 0.92072 0.64457 0.0
C1032 C 0.16838 0.93863 0.68895 0.0
C1033 C 0.10344 0.93749 0.64925 0.0
C1034 C 0.09231 0.95537 0.67349 0.0
C1035 C 0.11592 0.97955 0.71658 0.0
C1036 C 0.15022 0.98474 0.73526 0.0
C1037 C 0.125 0.95729 0.6932 0.0
C1038 C 0.19268 0.96464 0.73117 0.0
C1039 C 0.20154 0.94131 0.7083 0.0
H1040 H 0.90835 0.44754 0.91049 0.0
H1041 H 0.86468 0.3205 0.87757 0.0
H1042 H 0.82818 0.30051 0.91866 0.0
H1043 H 0.79938 0.32491 0.96153 0.0
H1044 H 0.83732 0.45619 -0.00869 0.0
H1045 H 0.88515 0.46909 0.95363 0.0
C1046 C 0.89132 0.41513 0.91231 0.0
C1047 C 0.88846 0.38588 0.89088 0.0
C1048 C 0.86876 0.40511 0.9353 0.0
C1049 C 0.86721 0.34365 0.89377 0.0
C1050 C 0.84597 0.33249 0.91716 0.0
C1051 C 0.81874 0.35598 0.95988 0.0
C1052 C 0.81459 0.38983 0.97895 0.0
C1053 C 0.84502 0.36382 0.93768 0.0
C1054 C 0.83958 0.43 0.97666 0.0
C1055 C 0.86698 0.43731 0.9552 0.0
H1056 H 0.42773 0.04045 0.2304 0.0
H1057 H 0.28506 0.03773 0.24847 0.0
H1058 H 0.2677 0.07005 0.20604 0.0
H1059 H 0.29288 0.09307 0.16283 0.0
H1060 H 0.4355 0.0911 0.14438 0.0
H1061 H 0.45299 0.06607 0.18818 0.0
C1062 C 0.39281 0.04754 0.22531 0.0
C1063 C 0.3577 0.03658 0.24253 0.0
C1064 C 0.38306 0.06456 0.20073 0.0
C1065 C 0.31268 0.04576 0.2355 0.0
C1066 C 0.30274 0.06401 0.21123 0.0
C1067 C 0.32783 0.08741 0.16841 0.0
C1068 C 0.36281 0.09361 0.15032 0.0
C1069 C 0.33763 0.07249 0.1935 0.0
C1070 C 0.4079 0.08615 0.15786 0.0
C1071 C 0.41797 0.07202 0.18292 0.0
H1072 H 0.40977 0.44838 0.58315 0.0
H1073 H 0.36586 0.3244 0.61947 0.0
H1074 H 0.33242 0.29928 0.57845 0.0
H1075 H 0.30597 0.31843 0.53425 0.0
H1076 H 0.34468 0.44639 0.50053 0.0
H1077 H 0.38991 0.46423 0.53864 0.0
C1078 C 0.39338 0.41554 0.5821 0.0
C1079 C 0.38948 0.38867 0.60442 0.0
C1080 C 0.37281 0.4024 0.55898 0.0
C1081 C 0.36907 0.34582 0.60257 0.0
C1082 C 0.34964 0.33166 0.57918 0.0
C1083 C 0.32507 0.34976 0.53514 0.0
C1084 C 0.32174 0.38135 0.51486 0.0
C1085 C 0.34978 0.36052 0.55756 0.0
C1086 C 0.34635 0.42193 0.51613 0.0
C1087 C 0.37222 0.43209 0.53786 0.0
H1088 H 0.83492 0.13233 0.29956 0.0
H1089 H 0.96597 0.0877 0.3266 0.0
H1090 H 0.98036 0.05172 0.28477 0.0
H1091 H 0.95081 0.02404 0.24306 0.0
H1092 H 0.81675 0.06358 0.21859 0.0
H1093 H 0.80841 0.11072 0.25703 0.0
C1094 C 0.86694 0.11522 0.2963 0.0
C1095 C 0.89893 0.11185 0.31631 0.0
C1096 C 0.87417 0.09331 0.27278 0.0
C1097 C 0.94055 0.09032 0.31156 0.0
C1098 C 0.94871 0.06957 0.28772 0.0
C1099 C 0.92018 0.04368 0.24601 0.0
C1100 C 0.88418 0.04009 0.22839 0.0
C1101 C 0.91502 0.06945 0.26857 0.0
C1102 C 0.84455 0.06543 0.23224 0.0
C1103 C 0.83981 0.09238 0.25412 0.0
H1104 H 0.17042 0.68217 0.11166 0.0
H1105 H 0.09663 0.56483 0.085 0.0
H1106 H 0.12458 0.57623 0.04137 0.0
H1107 H 0.17873 0.61237 0.01232 0.0
H1108 H 0.25075 0.73133 0.03745 0.0
H1109 H 0.21475 0.72671 0.08005 0.0
C1110 C 0.15955 0.65997 0.09613 0.0
C1111 C 0.13261 0.62209 0.10165 0.0
C1112 C 0.17609 0.66642 0.07093 0.0
C1113 C 0.11833 0.5937 0.08133 0.0
C1114 C 0.13433 0.60003 0.05635 0.0
C1115 C 0.18591 0.63755 0.02708 0.0
C1116 C 0.21765 0.67151 0.02222 0.0
C1117 C 0.16479 0.63499 0.05122 0.0
C1118 C 0.22638 0.70468 0.04107 0.0
C1119 C 0.20595 0.70199 0.06538 0.0
H1120 H 0.56663 0.9354 0.82154 0.0
H1121 H 0.67145 0.84377 0.79627 0.0
H1122 H 0.67046 0.87764 0.75331 0.0
H1123 H 0.65117 0.94326 0.72634 0.0
H1124 H 0.5459 0.03473 0.75083 0.0
H1125 H 0.53563 0.99125 0.79075 0.0
C1126 C 0.58775 0.92164 0.80628 0.0
C1127 C 0.6197 0.88794 0.81206 0.0
C1128 C 0.58802 0.94226 0.78181 0.0
C1129 C 0.64699 0.87024 0.79221 0.0
C1130 C 0.64683 0.88988 0.76775 0.0
C1131 C 0.62554 0.95303 0.7403 0.0
C1132 C 0.60011 0.9924 0.73627 0.0
C1133 C 0.61952 0.92767 0.7629 0.0
C1134 C 0.56617 1.00459 0.75394 0.0
C1135 C 0.5603 0.9798 0.77668 0.0
loop_
_geom_bond_atom_site_label_1
_geom_bond_atom_site_label_2
_geom_bond_distance
_geom_bond_site_symmetry_2
_ccdc_geom_bond_type
O0 Zn1 1.953 . S
O0 C16 1.225 . S
Zn1 O0 1.953 . S
Zn1 O2 1.949 . S
Zn1 O8 1.919 . S
Zn1 O13 1.924 . S
O2 Zn1 1.949 . S
O2 Zn3 1.923 . S
O2 Zn4 1.950 . S
O2 Zn5 1.945 . S
Zn3 O2 1.923 . S
Zn3 O6 1.933 . S
Zn3 O9 1.941 . S
Zn3 O10 1.965 . S
Zn4 O2 1.950 . S
Zn4 O11 1.938 . S
Zn4 O12 1.906 . S
Zn4 O22 1.953 . S
Zn5 O2 1.945 . S
Zn5 O7 1.932 . S
Zn5 O14 1.977 . S
Zn5 O15 1.910 . S
O6 Zn3 1.933 . S
O6 C17 1.226 . S
O7 Zn5 1.932 . S
O7 C17 1.307 . S
O8 Zn1 1.919 . S
O8 C19 1.253 . S
O9 Zn3 1.941 . S
O9 C19 1.283 . S
O10 Zn3 1.965 . S
O10 C18 1.303 . S
O11 Zn4 1.938 . S
O11 C18 1.247 . S
O12 Zn4 1.906 . S
O12 C20 1.304 . S
O13 Zn1 1.924 . S
O13 C21 1.311 . S
O14 Zn5 1.977 . S
O14 C20 1.272 . S
O15 Zn5 1.910 . S
O15 C21 1.231 . S
C16 O0 1.225 . S
C16 O22 1.298 . S
C17 O6 1.226 . S
C17 O7 1.307 . S
C18 O10 1.303 . S
C18 O11 1.247 . S
C19 O8 1.253 . S
C19 O9 1.283 . S
C20 O12 1.304 . S
C20 O14 1.272 . S
C21 O13 1.311 . S
C21 O15 1.231 . S
O22 Zn4 1.953 . S
O22 C16 1.298 . S
O23 Zn24 1.953 . S
O23 C39 1.225 . S
Zn24 O23 1.953 . S
Zn24 O25 1.949 . S
Zn24 O31 1.919 . S
Zn24 O36 1.924 . S
O25 Zn24 1.949 . S
O25 Zn26 1.923 . S
O25 Zn27 1.950 . S
O25 Zn28 1.945 . S
Zn26 O25 1.923 . S
Zn26 O29 1.933 . S
Zn26 O32 1.941 . S
Zn26 O33 1.965 . S
Zn27 O25 1.950 . S
Zn27 O34 1.938 . S
Zn27 O35 1.906 . S
Zn27 O45 1.953 . S
Zn28 O25 1.945 . S
Zn28 O30 1.932 . S
Zn28 O37 1.977 . S
Zn28 O38 1.910 . S
O29 Zn26 1.933 . S
O29 C40 1.226 . S
O30 Zn28 1.932 . S
O30 C40 1.307 . S
O31 Zn24 1.919 . S
O31 C42 1.253 . S
O32 Zn26 1.941 . S
O32 C42 1.283 . S
O33 Zn26 1.965 . S
O33 C41 1.303 . S
O34 Zn27 1.938 . S
O34 C41 1.247 . S
O35 Zn27 1.906 . S
O35 C43 1.304 . S
O36 Zn24 1.924 . S
O36 C44 1.311 . S
O37 Zn28 1.977 . S
O37 C43 1.272 . S
O38 Zn28 1.910 . S
O38 C44 1.231 . S
C39 O23 1.225 . S
C39 O45 1.298 . S
C40 O29 1.226 . S
C40 O30 1.307 . S
C41 O33 1.303 . S
C41 O34 1.247 . S
C42 O31 1.253 . S
C42 O32 1.283 . S
C43 O35 1.304 . S
C43 O37 1.272 . S
C44 O36 1.311 . S
C44 O38 1.231 . S
O45 Zn27 1.953 . S
O45 C39 1.298 . S
O46 Zn47 1.953 . S
O46 C62 1.225 . S
Zn47 O46 1.953 . S
Zn47 O48 1.949 . S
Zn47 O54 1.919 . S
Zn47 O59 1.924 . S
O48 Zn47 1.949 . S
O48 Zn49 1.923 . S
O48 Zn50 1.950 . S
O48 Zn51 1.945 . S
Zn49 O48 1.923 . S
Zn49 O52 1.933 . S
Zn49 O55 1.941 . S
Zn49 O56 1.965 . S
Zn50 O48 1.950 . S
Zn50 O57 1.938 . S
Zn50 O58 1.906 . S
Zn50 O68 1.953 . S
Zn51 O48 1.945 . S
Zn51 O53 1.932 . S
Zn51 O60 1.977 . S
Zn51 O61 1.910 . S
O52 Zn49 1.933 . S
O52 C63 1.226 . S
O53 Zn51 1.932 . S
O53 C63 1.307 . S
O54 Zn47 1.919 . S
O54 C65 1.253 . S
O55 Zn49 1.941 . S
O55 C65 1.283 . S
O56 Zn49 1.965 . S
O56 C64 1.303 . S
O57 Zn50 1.938 . S
O57 C64 1.247 . S
O58 Zn50 1.906 . S
O58 C66 1.304 . S
O59 Zn47 1.924 . S
O59 C67 1.311 . S
O60 Zn51 1.977 . S
O60 C66 1.272 . S
O61 Zn51 1.910 . S
O61 C67 1.231 . S
C62 O46 1.225 . S
C62 O68 1.298 . S
C63 O52 1.226 . S
C63 O53 1.307 . S
C64 O56 1.303 . S
C64 O57 1.247 . S
C65 O54 1.253 . S
C65 O55 1.283 . S
C66 O58 1.304 . S
C66 O60 1.272 . S
C67 O59 1.311 . S
C67 O61 1.231 . S
O68 Zn50 1.953 . S
O68 C62 1.298 . S
O69 Zn70 1.953 . S
O69 C85 1.225 . S
Zn70 O69 1.953 . S
Zn70 O71 1.949 . S
Zn70 O77 1.919 . S
Zn70 O82 1.924 . S
O71 Zn70 1.949 . S
O71 Zn72 1.923 . S
O71 Zn73 1.950 . S
O71 Zn74 1.945 . S
Zn72 O71 1.923 . S
Zn72 O75 1.933 . S
Zn72 O78 1.941 . S
Zn72 O79 1.965 . S
Zn73 O71 1.950 . S
Zn73 O80 1.938 . S
Zn73 O81 1.906 . S
Zn73 O91 1.953 . S
Zn74 O71 1.945 . S
Zn74 O76 1.932 . S
Zn74 O83 1.977 . S
Zn74 O84 1.910 . S
O75 Zn72 1.933 . S
O75 C86 1.226 . S
O76 Zn74 1.932 . S
O76 C86 1.307 . S
O77 Zn70 1.919 . S
O77 C88 1.253 . S
O78 Zn72 1.941 . S
O78 C88 1.283 . S
O79 Zn72 1.965 . S
O79 C87 1.303 . S
O80 Zn73 1.938 . S
O80 C87 1.247 . S
O81 Zn73 1.906 . S
O81 C89 1.304 . S
O82 Zn70 1.924 . S
O82 C90 1.311 . S
O83 Zn74 1.977 . S
O83 C89 1.272 . S
O84 Zn74 1.910 . S
O84 C90 1.231 . S
C85 O69 1.225 . S
C85 O91 1.298 . S
C86 O75 1.226 . S
C86 O76 1.307 . S
C87 O79 1.303 . S
C87 O80 1.247 . S
C88 O77 1.253 . S
C88 O78 1.283 . S
C89 O81 1.304 . S
C89 O83 1.272 . S
C90 O82 1.311 . S
C90 O84 1.231 . S
O91 Zn73 1.953 . S
O91 C85 1.298 . S
O92 Zn93 1.953 . S
O92 C108 1.225 . S
Zn93 O92 1.953 . S
Zn93 O94 1.949 . S
Zn93 O100 1.919 . S
Zn93 O105 1.924 . S
O94 Zn93 1.949 . S
O94 Zn95 1.923 . S
O94 Zn96 1.950 . S
O94 Zn97 1.945 . S
Zn95 O94 1.923 . S
Zn95 O98 1.933 . S
Zn95 O101 1.941 . S
Zn95 O102 1.965 . S
Zn96 O94 1.950 . S
Zn96 O103 1.938 . S
Zn96 O104 1.906 . S
Zn96 O114 1.953 . S
Zn97 O94 1.945 . S
Zn97 O99 1.932 . S
Zn97 O106 1.977 . S
Zn97 O107 1.910 . S
O98 Zn95 1.933 . S
O98 C109 1.226 . S
O99 Zn97 1.932 . S
O99 C109 1.307 . S
O100 Zn93 1.919 . S
O100 C111 1.253 . S
O101 Zn95 1.941 . S
O101 C111 1.283 . S
O102 Zn95 1.965 . S
O102 C110 1.303 . S
O103 Zn96 1.938 . S
O103 C110 1.247 . S
O104 Zn96 1.906 . S
O104 C112 1.304 . S
O105 Zn93 1.924 . S
O105 C113 1.311 . S
O106 Zn97 1.977 . S
O106 C112 1.272 . S
O107 Zn97 1.910 . S
O107 C113 1.231 . S
C108 O92 1.225 . S
C108 O114 1.298 . S
C109 O98 1.226 . S
C109 O99 1.307 . S
C110 O102 1.303 . S
C110 O103 1.247 . S
C111 O100 1.253 . S
C111 O101 1.283 . S
C112 O104 1.304 . S
C112 O106 1.272 . S
C113 O105 1.311 . S
C113 O107 1.231 . S
O114 Zn96 1.953 . S
O114 C108 1.298 . S
O115 Zn116 1.953 . S
O115 C131 1.225 . S
Zn116 O115 1.953 . S
Zn116 O117 1.949 . S
Zn116 O123 1.919 . S
Zn116 O128 1.924 . S
O117 Zn116 1.949 . S
O117 Zn118 1.923 . S
O117 Zn119 1.950 . S
O117 Zn120 1.945 . S
Zn118 O117 1.923 . S
Zn118 O121 1.933 . S
Zn118 O124 1.941 . S
Zn118 O125 1.965 . S
Zn119 O117 1.950 . S
Zn119 O126 1.938 . S
Zn119 O127 1.906 . S
Zn119 O137 1.953 . S
Zn120 O117 1.945 . S
Zn120 O122 1.932 . S
Zn120 O129 1.977 . S
Zn120 O130 1.910 . S
O121 Zn118 1.933 . S
O121 C132 1.226 . S
O122 Zn120 1.932 . S
O122 C132 1.307 . S
O123 Zn116 1.919 . S
O123 C134 1.253 . S
O124 Zn118 1.941 . S
O124 C134 1.283 . S
O125 Zn118 1.965 . S
O125 C133 1.303 . S
O126 Zn119 1.938 . S
O126 C133 1.247 . S
O127 Zn119 1.906 . S
O127 C135 1.304 . S
O128 Zn116 1.924 . S
O128 C136 1.311 . S
O129 Zn120 1.977 . S
O129 C135 1.272 . S
O130 Zn120 1.910 . S
O130 C136 1.231 . S
C131 O115 1.225 . S
C131 O137 1.298 . S
C132 O121 1.226 . S
C132 O122 1.307 . S
C133 O125 1.303 . S
C133 O126 1.247 . S
C134 O123 1.253 . S
C134 O124 1.283 . S
C135 O127 1.304 . S
C135 O129 1.272 . S
C136 O128 1.311 . S
C136 O130 1.231 . S
O137 Zn119 1.953 . S
O137 C131 1.298 . S
O138 Zn139 1.953 . S
O138 C154 1.225 . S
Zn139 O138 1.953 . S
Zn139 O140 1.949 . S
Zn139 O146 1.919 . S
Zn139 O151 1.924 . S
O140 Zn139 1.949 . S
O140 Zn141 1.923 . S
O140 Zn142 1.950 . S
O140 Zn143 1.945 . S
Zn141 O140 1.923 . S
Zn141 O144 1.933 . S
Zn141 O147 1.941 . S
Zn141 O148 1.965 . S
Zn142 O140 1.950 . S
Zn142 O149 1.938 . S
Zn142 O150 1.906 . S
Zn142 O160 1.953 . S
Zn143 O140 1.945 . S
Zn143 O145 1.932 . S
Zn143 O152 1.977 . S
Zn143 O153 1.910 . S
O144 Zn141 1.933 . S
O144 C155 1.226 . S
O145 Zn143 1.932 . S
O145 C155 1.307 . S
O146 Zn139 1.919 . S
O146 C157 1.253 . S
O147 Zn141 1.941 . S
O147 C157 1.283 . S
O148 Zn141 1.965 . S
O148 C156 1.303 . S
O149 Zn142 1.938 . S
O149 C156 1.247 . S
O150 Zn142 1.906 . S
O150 C158 1.304 . S
O151 Zn139 1.924 . S
O151 C159 1.311 . S
O152 Zn143 1.977 . S
O152 C158 1.272 . S
O153 Zn143 1.910 . S
O153 C159 1.231 . S
C154 O138 1.225 . S
C154 O160 1.298 . S
C155 O144 1.226 . S
C155 O145 1.307 . S
C156 O148 1.303 . S
C156 O149 1.247 . S
C157 O146 1.253 . S
C157 O147 1.283 . S
C158 O150 1.304 . S
C158 O152 1.272 . S
C159 O151 1.311 . S
C159 O153 1.231 . S
O160 Zn142 1.953 . S
O160 C154 1.298 . S
O161 Zn162 1.953 . S
O161 C177 1.225 . S
Zn162 O161 1.953 . S
Zn162 O163 1.949 . S
Zn162 O169 1.919 . S
Zn162 O174 1.924 . S
O163 Zn162 1.949 . S
O163 Zn164 1.923 . S
O163 Zn165 1.950 . S
O163 Zn166 1.945 . S
Zn164 O163 1.923 . S
Zn164 O167 1.933 . S
Zn164 O170 1.941 . S
Zn164 O171 1.965 . S
Zn165 O163 1.950 . S
Zn165 O172 1.938 . S
Zn165 O173 1.906 . S
Zn165 O183 1.953 . S
Zn166 O163 1.945 . S
Zn166 O168 1.932 . S
Zn166 O175 1.977 . S
Zn166 O176 1.910 . S
O167 Zn164 1.933 . S
O167 C178 1.226 . S
O168 Zn166 1.932 . S
O168 C178 1.307 . S
O169 Zn162 1.919 . S
O169 C180 1.253 . S
O170 Zn164 1.941 . S
O170 C180 1.283 . S
O171 Zn164 1.965 . S
O171 C179 1.303 . S
O172 Zn165 1.938 . S
O172 C179 1.247 . S
O173 Zn165 1.906 . S
O173 C181 1.304 . S
O174 Zn162 1.924 . S
O174 C182 1.311 . S
O175 Zn166 1.977 . S
O175 C181 1.272 . S
O176 Zn166 1.910 . S
O176 C182 1.231 . S
C177 O161 1.225 . S
C177 O183 1.298 . S
C178 O167 1.226 . S
C178 O168 1.307 . S
C179 O171 1.303 . S
C179 O172 1.247 . S
C180 O169 1.253 . S
C180 O170 1.283 . S
C181 O173 1.304 . S
C181 O175 1.272 . S
C182 O174 1.311 . S
C182 O176 1.231 . S
O183 Zn165 1.953 . S
O183 C177 1.298 . S
O184 Zn185 1.953 . S
O184 C200 1.225 . S
Zn185 O184 1.953 . S
Zn185 O186 1.949 . S
Zn185 O192 1.919 . S
Zn185 O197 1.924 . S
O186 Zn185 1.949 . S
O186 Zn187 1.923 . S
O186 Zn188 1.950 . S
O186 Zn189 1.945 . S
Zn187 O186 1.923 . S
Zn187 O190 1.933 . S
Zn187 O193 1.941 . S
Zn187 O194 1.965 . S
Zn188 O186 1.950 . S
Zn188 O195 1.938 . S
Zn188 O196 1.906 . S
Zn188 O206 1.953 . S
Zn189 O186 1.945 . S
Zn189 O191 1.932 . S
Zn189 O198 1.977 . S
Zn189 O199 1.910 . S
O190 Zn187 1.933 . S
O190 C201 1.226 . S
O191 Zn189 1.932 . S
O191 C201 1.307 . S
O192 Zn185 1.919 . S
O192 C203 1.253 . S
O193 Zn187 1.941 . S
O193 C203 1.283 . S
O194 Zn187 1.965 . S
O194 C202 1.303 . S
O195 Zn188 1.938 . S
O195 C202 1.247 . S
O196 Zn188 1.906 . S
O196 C204 1.304 . S
O197 Zn185 1.924 . S
O197 C205 1.311 . S
O198 Zn189 1.977 . S
O198 C204 1.272 . S
O199 Zn189 1.910 . S
O199 C205 1.231 . S
C200 O184 1.225 . S
C200 O206 1.298 . S
C201 O190 1.226 . S
C201 O191 1.307 . S
C202 O194 1.303 . S
C202 O195 1.247 . S
C203 O192 1.253 . S
C203 O193 1.283 . S
C204 O196 1.304 . S
C204 O198 1.272 . S
C205 O197 1.311 . S
C205 O199 1.231 . S
O206 Zn188 1.953 . S
O206 C200 1.298 . S
O207 Zn208 1.953 . S
O207 C223 1.225 . S
Zn208 O207 1.953 . S
Zn208 O209 1.949 . S
Zn208 O215 1.919 . S
Zn208 O220 1.924 . S
O209 Zn208 1.949 . S
O209 Zn210 1.923 . S
O209 Zn211 1.950 . S
O209 Zn212 1.945 . S
Zn210 O209 1.923 . S
Zn210 O213 1.933 . S
Zn210 O216 1.941 . S
Zn210 O217 1.965 . S
Zn211 O209 1.950 . S
Zn211 O218 1.938 . S
Zn211 O219 1.906 . S
Zn211 O229 1.953 . S
Zn212 O209 1.945 . S
Zn212 O214 1.932 1_545 S
Zn212 O221 1.977 . S
Zn212 O222 1.910 . S
O213 Zn210 1.933 . S
O213 C224 1.226 1_545 S
O214 Zn212 1.932 1_565 S
O214 C224 1.307 . S
O215 Zn208 1.919 . S
O215 C226 1.253 . S
O216 Zn210 1.941 . S
O216 C226 1.283 . S
O217 Zn210 1.965 . S
O217 C225 1.303 . S
O218 Zn211 1.938 . S
O218 C225 1.247 . S
O219 Zn211 1.906 . S
O219 C227 1.304 . S
O220 Zn208 1.924 . S
O220 C228 1.311 . S
O221 Zn212 1.977 . S
O221 C227 1.272 . S
O222 Zn212 1.910 . S
O222 C228 1.231 . S
C223 O207 1.225 . S
C223 O229 1.298 . S
C224 O213 1.226 1_565 S
C224 O214 1.307 . S
C225 O217 1.303 . S
C225 O218 1.247 . S
C226 O215 1.253 . S
C226 O216 1.283 . S
C227 O219 1.304 . S
C227 O221 1.272 . S
C228 O220 1.311 . S
C228 O222 1.231 . S
O229 Zn211 1.953 . S
O229 C223 1.298 . S
O230 Zn231 1.953 . S
O230 C246 1.225 . S
Zn231 O230 1.953 . S
Zn231 O232 1.949 . S
Zn231 O238 1.919 . S
Zn231 O243 1.924 . S
O232 Zn231 1.949 . S
O232 Zn233 1.923 . S
O232 Zn234 1.950 . S
O232 Zn235 1.945 . S
Zn233 O232 1.923 . S
Zn233 O236 1.933 . S
Zn233 O239 1.941 . S
Zn233 O240 1.965 . S
Zn234 O232 1.950 . S
Zn234 O241 1.938 . S
Zn234 O242 1.906 . S
Zn234 O252 1.953 . S
Zn235 O232 1.945 . S
Zn235 O237 1.932 . S
Zn235 O244 1.977 . S
Zn235 O245 1.910 . S
O236 Zn233 1.933 . S
O236 C247 1.226 . S
O237 Zn235 1.932 . S
O237 C247 1.307 . S
O238 Zn231 1.919 . S
O238 C249 1.253 . S
O239 Zn233 1.941 . S
O239 C249 1.283 . S
O240 Zn233 1.965 . S
O240 C248 1.303 . S
O241 Zn234 1.938 . S
O241 C248 1.247 . S
O242 Zn234 1.906 . S
O242 C250 1.304 . S
O243 Zn231 1.924 . S
O243 C251 1.311 . S
O244 Zn235 1.977 . S
O244 C250 1.272 . S
O245 Zn235 1.910 . S
O245 C251 1.231 . S
C246 O230 1.225 . S
C246 O252 1.298 . S
C247 O236 1.226 . S
C247 O237 1.307 . S
C248 O240 1.303 . S
C248 O241 1.247 . S
C249 O238 1.253 . S
C249 O239 1.283 . S
C250 O242 1.304 . S
C250 O244 1.272 . S
C251 O243 1.311 . S
C251 O245 1.231 . S
O252 Zn234 1.953 . S
O252 C246 1.298 . S
O253 Zn254 1.953 . S
O253 C269 1.225 . S
Zn254 O253 1.953 . S
Zn254 O255 1.949 . S
Zn254 O261 1.919 . S
Zn254 O266 1.924 . S
O255 Zn254 1.949 . S
O255 Zn256 1.923 . S
O255 Zn257 1.950 . S
O255 Zn258 1.945 . S
Zn256 O255 1.923 . S
Zn256 O259 1.933 . S
Zn256 O262 1.941 . S
Zn256 O263 1.965 . S
Zn257 O255 1.950 . S
Zn257 O264 1.938 . S
Zn257 O265 1.906 . S
Zn257 O275 1.953 . S
Zn258 O255 1.945 . S
Zn258 O260 1.932 1_565 S
Zn258 O267 1.977 . S
Zn258 O268 1.910 . S
O259 Zn256 1.933 . S
O259 C270 1.226 1_565 S
O260 Zn258 1.932 1_545 S
O260 C270 1.307 . S
O261 Zn254 1.919 . S
O261 C272 1.253 . S
O262 Zn256 1.941 . S
O262 C272 1.283 . S
O263 Zn256 1.965 . S
O263 C271 1.303 . S
O264 Zn257 1.938 . S
O264 C271 1.247 . S
O265 Zn257 1.906 . S
O265 C273 1.304 . S
O266 Zn254 1.924 . S
O266 C274 1.311 . S
O267 Zn258 1.977 . S
O267 C273 1.272 . S
O268 Zn258 1.910 . S
O268 C274 1.231 . S
C269 O253 1.225 . S
C269 O275 1.298 . S
C270 O259 1.226 1_545 S
C270 O260 1.307 . S
C271 O263 1.303 . S
C271 O264 1.247 . S
C272 O261 1.253 . S
C272 O262 1.283 . S
C273 O265 1.304 . S
C273 O267 1.272 . S
C274 O266 1.311 . S
C274 O268 1.231 . S
O275 Zn257 1.953 . S
O275 C269 1.298 . S
O276 Zn277 1.953 . S
O276 C292 1.225 . S
Zn277 O276 1.953 . S
Zn277 O278 1.949 . S
Zn277 O284 1.919 . S
Zn277 O289 1.924 . S
O278 Zn277 1.949 . S
O278 Zn279 1.923 . S
O278 Zn280 1.950 . S
O278 Zn281 1.945 . S
Zn279 O278 1.923 . S
Zn279 O282 1.933 . S
Zn279 O285 1.941 . S
Zn279 O286 1.965 . S
Zn280 O278 1.950 . S
Zn280 O287 1.938 . S
Zn280 O288 1.906 . S
Zn280 O298 1.953 . S
Zn281 O278 1.945 . S
Zn281 O283 1.932 . S
Zn281 O290 1.977 . S
Zn281 O291 1.910 . S
O282 Zn279 1.933 . S
O282 C293 1.226 . S
O283 Zn281 1.932 . S
O283 C293 1.307 . S
O284 Zn277 1.919 . S
O284 C295 1.253 . S
O285 Zn279 1.941 . S
O285 C295 1.283 . S
O286 Zn279 1.965 . S
O286 C294 1.303 . S
O287 Zn280 1.938 . S
O287 C294 1.247 . S
O288 Zn280 1.906 . S
O288 C296 1.304 . S
O289 Zn277 1.924 . S
O289 C297 1.311 . S
O290 Zn281 1.977 . S
O290 C296 1.272 . S
O291 Zn281 1.910 . S
O291 C297 1.231 . S
C292 O276 1.225 . S
C292 O298 1.298 . S
C293 O282 1.226 . S
C293 O283 1.307 . S
C294 O286 1.303 . S
C294 O287 1.247 . S
C295 O284 1.253 . S
C295 O285 1.283 . S
C296 O288 1.304 . S
C296 O290 1.272 . S
C297 O289 1.311 . S
C297 O291 1.231 . S
O298 Zn280 1.953 . S
O298 C292 1.298 . S
O299 Zn300 1.953 . S
O299 C315 1.225 . S
Zn300 O299 1.953 . S
Zn300 O301 1.949 . S
Zn300 O307 1.919 . S
Zn300 O312 1.924 . S
O301 Zn300 1.949 . S
O301 Zn302 1.923 . S
O301 Zn303 1.950 . S
O301 Zn304 1.945 . S
Zn302 O301 1.923 . S
Zn302 O305 1.933 . S
Zn302 O308 1.941 . S
Zn302 O309 1.965 . S
Zn303 O301 1.950 . S
Zn303 O310 1.938 . S
Zn303 O311 1.906 . S
Zn303 O321 1.953 . S
Zn304 O301 1.945 . S
Zn304 O306 1.932 1_565 S
Zn304 O313 1.977 . S
Zn304 O314 1.910 . S
O305 Zn302 1.933 . S
O305 C316 1.226 1_565 S
O306 Zn304 1.932 1_545 S
O306 C316 1.307 . S
O307 Zn300 1.919 . S
O307 C318 1.253 . S
O308 Zn302 1.941 . S
O308 C318 1.283 . S
O309 Zn302 1.965 . S
O309 C317 1.303 . S
O310 Zn303 1.938 . S
O310 C317 1.247 . S
O311 Zn303 1.906 . S
O311 C319 1.304 . S
O312 Zn300 1.924 . S
O312 C320 1.311 . S
O313 Zn304 1.977 . S
O313 C319 1.272 . S
O314 Zn304 1.910 . S
O314 C320 1.231 . S
C315 O299 1.225 . S
C315 O321 1.298 . S
C316 O305 1.226 1_545 S
C316 O306 1.307 . S
C317 O309 1.303 . S
C317 O310 1.247 . S
C318 O307 1.253 . S
C318 O308 1.283 . S
C319 O311 1.304 . S
C319 O313 1.272 . S
C320 O312 1.311 . S
C320 O314 1.231 . S
O321 Zn303 1.953 . S
O321 C315 1.298 . S
O322 Zn323 1.953 . S
O322 C338 1.225 . S
Zn323 O322 1.953 . S
Zn323 O324 1.949 . S
Zn323 O330 1.919 . S
Zn323 O335 1.924 . S
O324 Zn323 1.949 . S
O324 Zn325 1.923 . S
O324 Zn326 1.950 . S
O324 Zn327 1.945 . S
Zn325 O324 1.923 . S
Zn325 O328 1.933 . S
Zn325 O331 1.941 . S
Zn325 O332 1.965 . S
Zn326 O324 1.950 . S
Zn326 O333 1.938 . S
Zn326 O334 1.906 . S
Zn326 O344 1.953 . S
Zn327 O324 1.945 . S
Zn327 O329 1.932 . S
Zn327 O336 1.977 . S
Zn327 O337 1.910 . S
O328 Zn325 1.933 . S
O328 C339 1.226 . S
O329 Zn327 1.932 . S
O329 C339 1.307 . S
O330 Zn323 1.919 . S
O330 C341 1.253 . S
O331 Zn325 1.941 . S
O331 C341 1.283 . S
O332 Zn325 1.965 . S
O332 C340 1.303 . S
O333 Zn326 1.938 . S
O333 C340 1.247 . S
O334 Zn326 1.906 . S
O334 C342 1.304 . S
O335 Zn323 1.924 . S
O335 C343 1.311 . S
O336 Zn327 1.977 . S
O336 C342 1.272 . S
O337 Zn327 1.910 . S
O337 C343 1.231 . S
C338 O322 1.225 . S
C338 O344 1.298 . S
C339 O328 1.226 . S
C339 O329 1.307 . S
C340 O332 1.303 . S
C340 O333 1.247 . S
C341 O330 1.253 . S
C341 O331 1.283 . S
C342 O334 1.304 . S
C342 O336 1.272 . S
C343 O335 1.311 . S
C343 O337 1.231 . S
O344 Zn326 1.953 . S
O344 C338 1.298 . S
O345 Zn346 1.953 . S
O345 C361 1.225 . S
Zn346 O345 1.953 . S
Zn346 O347 1.949 . S
Zn346 O353 1.919 . S
Zn346 O358 1.924 . S
O347 Zn346 1.949 . S
O347 Zn348 1.923 . S
O347 Zn349 1.950 . S
O347 Zn350 1.945 . S
Zn348 O347 1.923 . S
Zn348 O351 1.933 . S
Zn348 O354 1.941 . S
Zn348 O355 1.965 . S
Zn349 O347 1.950 . S
Zn349 O356 1.938 . S
Zn349 O357 1.906 . S
Zn349 O367 1.953 . S
Zn350 O347 1.945 . S
Zn350 O352 1.932 1_545 S
Zn350 O359 1.977 . S
Zn350 O360 1.910 . S
O351 Zn348 1.933 . S
O351 C362 1.226 1_545 S
O352 Zn350 1.932 1_565 S
O352 C362 1.307 . S
O353 Zn346 1.919 . S
O353 C364 1.253 . S
O354 Zn348 1.941 . S
O354 C364 1.283 . S
O355 Zn348 1.965 . S
O355 C363 1.303 . S
O356 Zn349 1.938 . S
O356 C363 1.247 . S
O357 Zn349 1.906 . S
O357 C365 1.304 . S
O358 Zn346 1.924 . S
O358 C366 1.311 . S
O359 Zn350 1.977 . S
O359 C365 1.272 . S
O360 Zn350 1.910 . S
O360 C366 1.231 . S
C361 O345 1.225 . S
C361 O367 1.298 . S
C362 O351 1.226 1_565 S
C362 O352 1.307 . S
C363 O355 1.303 . S
C363 O356 1.247 . S
C364 O353 1.253 . S
C364 O354 1.283 . S
C365 O357 1.304 . S
C365 O359 1.272 . S
C366 O358 1.311 . S
C366 O360 1.231 . S
O367 Zn349 1.953 . S
O367 C361 1.298 . S
H368 C374 0.930 . S
H369 C377 0.930 . S
H370 C378 0.930 . S
H371 C379 0.930 . S
H372 C382 0.930 . S
H373 C383 0.930 . S
C374 H368 0.930 . S
C374 C375 1.355 . S
C374 C376 1.415 . S
C375 C374 1.355 . S
C375 C377 1.419 . S
C376 C374 1.415 . S
C376 C381 1.425 . S
C376 C383 1.409 . S
C377 H369 0.930 . S
C377 C375 1.419 . S
C377 C378 1.362 . S
C378 H370 0.930 . S
C378 C377 1.362 . S
C378 C381 1.409 . S
C379 H371 0.930 . S
C379 C380 1.355 . S
C379 C381 1.415 . S
C380 C379 1.355 . S
C380 C382 1.419 . S
C381 C376 1.425 . S
C381 C378 1.409 . S
C381 C379 1.415 . S
C382 H372 0.930 . S
C382 C380 1.419 . S
C382 C383 1.362 . S
C383 H373 0.930 . S
C383 C376 1.409 . S
C383 C382 1.362 . S
H384 C390 0.930 . S
H385 C393 0.930 . S
H386 C394 0.930 . S
H387 C395 0.930 . S
H388 C398 0.930 . S
H389 C399 0.930 . S
C390 H384 0.930 . S
C390 C391 1.355 . S
C390 C392 1.415 . S
C391 C390 1.355 . S
C391 C393 1.419 . S
C392 C390 1.415 . S
C392 C397 1.425 . S
C392 C399 1.409 . S
C393 H385 0.930 . S
C393 C391 1.419 . S
C393 C394 1.362 . S
C394 H386 0.930 . S
C394 C393 1.362 . S
C394 C397 1.409 . S
C395 H387 0.930 . S
C395 C396 1.355 . S
C395 C397 1.415 . S
C396 C395 1.355 . S
C396 C398 1.419 . S
C397 C392 1.425 . S
C397 C394 1.409 . S
C397 C395 1.415 . S
C398 H388 0.930 . S
C398 C396 1.419 . S
C398 C399 1.362 . S
C399 H389 0.930 . S
C399 C392 1.409 . S
C399 C398 1.362 . S
H400 C406 0.930 . S
H401 C409 0.930 . S
H402 C410 0.930 . S
H403 C411 0.930 . S
H404 C414 0.930 . S
H405 C415 0.930 . S
C406 H400 0.930 . S
C406 C407 1.355 . S
C406 C408 1.415 1_455 S
C407 C406 1.355 . S
C407 C409 1.419 . S
C408 C406 1.415 1_655 S
C408 C413 1.425 1_655 S
C408 C415 1.409 . S
C409 H401 0.930 . S
C409 C407 1.419 . S
C409 C410 1.362 . S
C410 H402 0.930 . S
C410 C409 1.362 . S
C410 C413 1.409 . S
C411 H403 0.930 . S
C411 C412 1.355 . S
C411 C413 1.415 1_655 S
C412 C411 1.355 . S
C412 C414 1.419 . S
C413 C408 1.425 1_455 S
C413 C410 1.409 . S
C413 C411 1.415 1_455 S
C414 H404 0.930 . S
C414 C412 1.419 . S
C414 C415 1.362 . S
C415 H405 0.930 . S
C415 C408 1.409 . S
C415 C414 1.362 . S
H416 C422 0.930 . S
H417 C425 0.930 . S
H418 C426 0.930 . S
H419 C427 0.930 . S
H420 C430 0.930 . S
H421 C431 0.930 . S
C422 H416 0.930 . S
C422 C423 1.355 . S
C422 C424 1.415 . S
C423 C422 1.355 . S
C423 C425 1.419 . S
C424 C422 1.415 . S
C424 C429 1.425 1_455 S
C424 C431 1.409 . S
C425 H417 0.930 . S
C425 C423 1.419 . S
C425 C426 1.362 1_455 S
C426 H418 0.930 . S
C426 C425 1.362 1_655 S
C426 C429 1.409 . S
C427 H419 0.930 . S
C427 C428 1.355 . S
C427 C429 1.415 . S
C428 C427 1.355 . S
C428 C430 1.419 . S
C429 C424 1.425 1_655 S
C429 C426 1.409 . S
C429 C427 1.415 . S
C430 H420 0.930 . S
C430 C428 1.419 . S
C430 C431 1.362 1_655 S
C431 H421 0.930 . S
C431 C424 1.409 . S
C431 C430 1.362 1_455 S
H432 C438 0.930 . S
H433 C441 0.930 . S
H434 C442 0.930 . S
H435 C443 0.930 . S
H436 C446 0.930 . S
H437 C447 0.930 . S
C438 H432 0.930 . S
C438 C439 1.355 . S
C438 C440 1.415 . S
C439 C438 1.355 . S
C439 C441 1.419 . S
C440 C438 1.415 . S
C440 C445 1.425 . S
C440 C447 1.409 . S
C441 H433 0.930 . S
C441 C439 1.419 . S
C441 C442 1.362 . S
C442 H434 0.930 . S
C442 C441 1.362 . S
C442 C445 1.409 . S
C443 H435 0.930 . S
C443 C444 1.355 . S
C443 C445 1.415 . S
C444 C443 1.355 . S
C444 C446 1.419 . S
C445 C440 1.425 . S
C445 C442 1.409 . S
C445 C443 1.415 . S
C446 H436 0.930 . S
C446 C444 1.419 . S
C446 C447 1.362 . S
C447 H437 0.930 . S
C447 C440 1.409 . S
C447 C446 1.362 . S
H448 C454 0.930 . S
H449 C457 0.930 . S
H450 C458 0.930 . S
H451 C459 0.930 . S
H452 C462 0.930 . S
H453 C463 0.930 . S
C454 H448 0.930 . S
C454 C455 1.355 . S
C454 C456 1.415 . S
C455 C454 1.355 . S
C455 C457 1.419 . S
C456 C454 1.415 . S
C456 C461 1.425 . S
C456 C463 1.409 . S
C457 H449 0.930 . S
C457 C455 1.419 . S
C457 C458 1.362 . S
C458 H450 0.930 . S
C458 C457 1.362 . S
C458 C461 1.409 . S
C459 H451 0.930 . S
C459 C460 1.355 . S
C459 C461 1.415 . S
C460 C459 1.355 . S
C460 C462 1.419 . S
C461 C456 1.425 . S
C461 C458 1.409 . S
C461 C459 1.415 . S
C462 H452 0.930 . S
C462 C460 1.419 . S
C462 C463 1.362 . S
C463 H453 0.930 . S
C463 C456 1.409 . S
C463 C462 1.362 . S
H464 C470 0.930 . S
H465 C473 0.930 . S
H466 C474 0.930 . S
H467 C475 0.930 . S
H468 C478 0.930 . S
H469 C479 0.930 . S
C470 H464 0.930 . S
C470 C471 1.355 . S
C470 C472 1.415 . S
C471 C470 1.355 . S
C471 C473 1.419 . S
C472 C470 1.415 . S
C472 C477 1.425 1_455 S
C472 C479 1.409 . S
C473 H465 0.930 . S
C473 C471 1.419 . S
C473 C474 1.362 1_455 S
C474 H466 0.930 . S
C474 C473 1.362 1_655 S
C474 C477 1.409 . S
C475 H467 0.930 . S
C475 C476 1.355 . S
C475 C477 1.415 . S
C476 C475 1.355 . S
C476 C478 1.419 . S
C477 C472 1.425 1_655 S
C477 C474 1.409 . S
C477 C475 1.415 . S
C478 H468 0.930 . S
C478 C476 1.419 . S
C478 C479 1.362 1_655 S
C479 H469 0.930 . S
C479 C472 1.409 . S
C479 C478 1.362 1_455 S
H480 C486 0.930 . S
H481 C489 0.930 . S
H482 C490 0.930 . S
H483 C491 0.930 . S
H484 C494 0.930 . S
H485 C495 0.930 . S
C486 H480 0.930 . S
C486 C487 1.355 . S
C486 C488 1.414 . S
C487 C486 1.355 . S
C487 C489 1.419 . S
C488 C486 1.414 . S
C488 C493 1.425 1_455 S
C488 C495 1.410 1_455 S
C489 H481 0.930 . S
C489 C487 1.419 . S
C489 C490 1.362 . S
C490 H482 0.930 . S
C490 C489 1.362 . S
C490 C493 1.410 1_455 S
C491 H483 0.930 . S
C491 C492 1.355 . S
C491 C493 1.414 . S
C492 C491 1.355 . S
C492 C494 1.419 . S
C493 C488 1.425 1_655 S
C493 C490 1.410 1_655 S
C493 C491 1.414 . S
C494 H484 0.930 . S
C494 C492 1.419 . S
C494 C495 1.362 . S
C495 H485 0.930 . S
C495 C488 1.410 1_655 S
C495 C494 1.362 . S
H496 C502 0.936 . S
H497 C505 0.930 . S
H498 C506 0.930 . S
H499 C507 0.936 . S
H500 C510 0.930 . S
H501 C511 0.930 . S
C502 H496 0.936 . S
C502 C503 1.355 . S
C502 C504 1.415 1_554 S
C503 C502 1.355 . S
C503 C505 1.419 . S
C504 C502 1.415 1_556 S
C504 C509 1.425 1_546 S
C504 C511 1.409 1_545 S
C505 H497 0.930 . S
C505 C503 1.419 . S
C505 C506 1.362 . S
C506 H498 0.930 . S
C506 C505 1.362 . S
C506 C509 1.409 1_545 S
C507 H499 0.936 . S
C507 C508 1.355 . S
C507 C509 1.415 1_556 S
C508 C507 1.355 . S
C508 C510 1.419 . S
C509 C504 1.425 1_564 S
C509 C506 1.409 1_565 S
C509 C507 1.415 1_554 S
C510 H500 0.930 . S
C510 C508 1.419 . S
C510 C511 1.362 . S
C511 H501 0.930 . S
C511 C504 1.409 1_565 S
C511 C510 1.362 . S
H512 C518 0.930 . S
H513 C521 0.930 . S
H514 C522 0.930 . S
H515 C523 0.930 . S
H516 C526 0.930 . S
H517 C527 0.930 . S
C518 H512 0.930 . S
C518 C519 1.355 . S
C518 C520 1.415 . S
C519 C518 1.355 . S
C519 C521 1.419 . S
C520 C518 1.415 . S
C520 C525 1.425 . S
C520 C527 1.409 . S
C521 H513 0.930 . S
C521 C519 1.419 . S
C521 C522 1.362 . S
C522 H514 0.930 . S
C522 C521 1.362 . S
C522 C525 1.409 . S
C523 H515 0.930 . S
C523 C524 1.355 . S
C523 C525 1.415 . S
C524 C523 1.355 . S
C524 C526 1.419 . S
C525 C520 1.425 . S
C525 C522 1.409 . S
C525 C523 1.415 . S
C526 H516 0.930 . S
C526 C524 1.419 . S
C526 C527 1.362 . S
C527 H517 0.930 . S
C527 C520 1.409 . S
C527 C526 1.362 . S
H528 C534 0.930 . S
H529 C537 0.930 . S
H530 C538 0.930 . S
H531 C539 0.930 . S
H532 C542 0.930 . S
H533 C543 0.930 . S
C534 H528 0.930 . S
C534 C535 1.355 . S
C534 C536 1.415 1_455 S
C535 C534 1.355 . S
C535 C537 1.419 . S
C536 C534 1.415 1_655 S
C536 C541 1.425 1_665 S
C536 C543 1.409 1_565 S
C537 H529 0.930 . S
C537 C535 1.419 . S
C537 C538 1.362 . S
C538 H530 0.930 . S
C538 C537 1.362 . S
C538 C541 1.409 1_565 S
C539 H531 0.930 . S
C539 C540 1.355 . S
C539 C541 1.415 1_655 S
C540 C539 1.355 . S
C540 C542 1.419 . S
C541 C536 1.425 1_445 S
C541 C538 1.409 1_545 S
C541 C539 1.415 1_455 S
C542 H532 0.930 . S
C542 C540 1.419 . S
C542 C543 1.362 . S
C543 H533 0.930 . S
C543 C536 1.409 1_545 S
C543 C542 1.362 . S
H544 C550 0.930 . S
H545 C553 0.930 . S
H546 C554 0.930 . S
H547 C555 0.930 . S
H548 C558 0.930 . S
H549 C559 0.930 . S
C550 H544 0.930 . S
C550 C551 1.355 . S
C550 C552 1.415 . S
C551 C550 1.355 . S
C551 C553 1.419 . S
C552 C550 1.415 . S
C552 C557 1.425 . S
C552 C559 1.409 . S
C553 H545 0.930 . S
C553 C551 1.419 . S
C553 C554 1.362 . S
C554 H546 0.930 . S
C554 C553 1.362 . S
C554 C557 1.409 . S
C555 H547 0.930 . S
C555 C556 1.355 . S
C555 C557 1.415 . S
C556 C555 1.355 . S
C556 C558 1.419 . S
C557 C552 1.425 . S
C557 C554 1.409 . S
C557 C555 1.415 . S
C558 H548 0.930 . S
C558 C556 1.419 . S
C558 C559 1.362 . S
C559 H549 0.930 . S
C559 C552 1.409 . S
C559 C558 1.362 . S
H560 C566 0.930 . S
H561 C569 0.930 . S
H562 C570 0.930 . S
H563 C571 0.930 . S
H564 C574 0.930 . S
H565 C575 0.930 . S
C566 H560 0.930 . S
C566 C567 1.355 . S
C566 C568 1.415 . S
C567 C566 1.355 . S
C567 C569 1.419 . S
C568 C566 1.415 . S
C568 C573 1.425 . S
C568 C575 1.409 . S
C569 H561 0.930 . S
C569 C567 1.419 . S
C569 C570 1.362 . S
C570 H562 0.930 . S
C570 C569 1.362 . S
C570 C573 1.409 . S
C571 H563 0.930 . S
C571 C572 1.355 . S
C571 C573 1.415 . S
C572 C571 1.355 . S
C572 C574 1.419 . S
C573 C568 1.425 . S
C573 C570 1.409 . S
C573 C571 1.415 . S
C574 H564 0.930 . S
C574 C572 1.419 . S
C574 C575 1.362 . S
C575 H565 0.930 . S
C575 C568 1.409 . S
C575 C574 1.362 . S
H576 C582 0.930 . S
H577 C585 0.930 . S
H578 C586 0.930 . S
H579 C587 0.930 . S
H580 C590 0.930 . S
H581 C591 0.930 . S
C582 H576 0.930 . S
C582 C583 1.355 . S
C582 C584 1.415 . S
C583 C582 1.355 . S
C583 C585 1.419 . S
C584 C582 1.415 . S
C584 C589 1.425 . S
C584 C591 1.409 . S
C585 H577 0.930 . S
C585 C583 1.419 . S
C585 C586 1.362 . S
C586 H578 0.930 . S
C586 C585 1.362 . S
C586 C589 1.409 . S
C587 H579 0.930 . S
C587 C588 1.355 . S
C587 C589 1.415 . S
C588 C587 1.355 . S
C588 C590 1.419 . S
C589 C584 1.425 . S
C589 C586 1.409 . S
C589 C587 1.415 . S
C590 H580 0.930 . S
C590 C588 1.419 . S
C590 C591 1.362 . S
C591 H581 0.930 . S
C591 C584 1.409 . S
C591 C590 1.362 . S
H592 C598 0.930 . S
H593 C601 0.930 . S
H594 C602 0.930 . S
H595 C603 0.930 . S
H596 C606 0.930 . S
H597 C607 0.930 . S
C598 H592 0.930 . S
C598 C599 1.355 . S
C598 C600 1.415 . S
C599 C598 1.355 . S
C599 C601 1.419 . S
C600 C598 1.415 . S
C600 C605 1.425 1_455 S
C600 C607 1.409 . S
C601 H593 0.930 . S
C601 C599 1.419 . S
C601 C602 1.362 1_455 S
C602 H594 0.930 . S
C602 C601 1.362 1_655 S
C602 C605 1.409 . S
C603 H595 0.930 . S
C603 C604 1.355 . S
C603 C605 1.415 . S
C604 C603 1.355 . S
C604 C606 1.419 . S
C605 C600 1.425 1_655 S
C605 C602 1.409 . S
C605 C603 1.415 . S
C606 H596 0.930 . S
C606 C604 1.419 . S
C606 C607 1.362 1_655 S
C607 H597 0.930 . S
C607 C600 1.409 . S
C607 C606 1.362 1_455 S
H608 C614 0.930 . S
H609 C617 0.930 . S
H610 C618 0.930 . S
H611 C619 0.930 . S
H612 C622 0.930 . S
H613 C623 0.930 . S
C614 H608 0.930 . S
C614 C615 1.355 . S
C614 C616 1.415 1_554 S
C615 C614 1.355 . S
C615 C617 1.419 . S
C616 C614 1.415 1_556 S
C616 C621 1.425 1_556 S
C616 C623 1.409 . S
C617 H609 0.930 . S
C617 C615 1.419 . S
C617 C618 1.362 . S
C618 H610 0.930 . S
C618 C617 1.362 . S
C618 C621 1.409 . S
C619 H611 0.930 . S
C619 C620 1.355 . S
C619 C621 1.415 1_556 S
C620 C619 1.355 . S
C620 C622 1.419 . S
C621 C616 1.425 1_554 S
C621 C618 1.409 . S
C621 C619 1.415 1_554 S
C622 H612 0.930 . S
C622 C620 1.419 . S
C622 C623 1.362 . S
C623 H613 0.930 . S
C623 C616 1.409 . S
C623 C622 1.362 . S
H624 C630 0.930 . S
H625 C633 0.930 . S
H626 C634 0.930 . S
H627 C635 0.930 . S
H628 C638 0.930 . S
H629 C639 0.930 . S
C630 H624 0.930 . S
C630 C631 1.355 . S
C630 C632 1.415 . S
C631 C630 1.355 . S
C631 C633 1.419 . S
C632 C630 1.415 . S
C632 C637 1.425 . S
C632 C639 1.409 . S
C633 H625 0.930 . S
C633 C631 1.419 . S
C633 C634 1.362 . S
C634 H626 0.930 . S
C634 C633 1.362 . S
C634 C637 1.409 . S
C635 H627 0.930 . S
C635 C636 1.355 . S
C635 C637 1.415 . S
C636 C635 1.355 . S
C636 C638 1.419 . S
C637 C632 1.425 . S
C637 C634 1.409 . S
C637 C635 1.415 . S
C638 H628 0.930 . S
C638 C636 1.419 . S
C638 C639 1.362 . S
C639 H629 0.930 . S
C639 C632 1.409 . S
C639 C638 1.362 . S
H640 C646 0.930 . S
H641 C649 0.930 . S
H642 C650 0.930 . S
H643 C651 0.930 . S
H644 C654 0.930 . S
H645 C655 0.930 . S
C646 H640 0.930 . S
C646 C647 1.355 . S
C646 C648 1.415 . S
C647 C646 1.355 . S
C647 C649 1.419 . S
C648 C646 1.415 . S
C648 C653 1.425 . S
C648 C655 1.409 . S
C649 H641 0.930 . S
C649 C647 1.419 . S
C649 C650 1.362 . S
C650 H642 0.930 . S
C650 C649 1.362 . S
C650 C653 1.409 . S
C651 H643 0.930 . S
C651 C652 1.355 . S
C651 C653 1.415 . S
C652 C651 1.355 . S
C652 C654 1.419 . S
C653 C648 1.425 . S
C653 C650 1.409 . S
C653 C651 1.415 . S
C654 H644 0.930 . S
C654 C652 1.419 . S
C654 C655 1.362 . S
C655 H645 0.930 . S
C655 C648 1.409 . S
C655 C654 1.362 . S
H656 C662 0.930 . S
H657 C665 0.930 . S
H658 C666 0.930 . S
H659 C667 0.930 . S
H660 C670 0.930 . S
H661 C671 0.930 . S
C662 H656 0.930 . S
C662 C663 1.355 . S
C662 C664 1.415 . S
C663 C662 1.355 . S
C663 C665 1.419 . S
C664 C662 1.415 . S
C664 C669 1.425 . S
C664 C671 1.409 . S
C665 H657 0.930 . S
C665 C663 1.419 . S
C665 C666 1.362 . S
C666 H658 0.930 . S
C666 C665 1.362 . S
C666 C669 1.409 . S
C667 H659 0.930 . S
C667 C668 1.355 . S
C667 C669 1.415 . S
C668 C667 1.355 . S
C668 C670 1.419 . S
C669 C664 1.425 . S
C669 C666 1.409 . S
C669 C667 1.415 . S
C670 H660 0.930 . S
C670 C668 1.419 . S
C670 C671 1.362 . S
C671 H661 0.930 . S
C671 C664 1.409 . S
C671 C670 1.362 . S
H672 C678 0.930 . S
H673 C681 0.930 . S
H674 C682 0.930 . S
H675 C683 0.930 . S
H676 C686 0.930 . S
H677 C687 0.930 . S
C678 H672 0.930 . S
C678 C679 1.355 . S
C678 C680 1.415 . S
C679 C678 1.355 . S
C679 C681 1.419 . S
C680 C678 1.415 . S
C680 C685 1.425 . S
C680 C687 1.409 . S
C681 H673 0.930 . S
C681 C679 1.419 . S
C681 C682 1.362 . S
C682 H674 0.930 . S
C682 C681 1.362 . S
C682 C685 1.409 . S
C683 H675 0.930 . S
C683 C684 1.355 . S
C683 C685 1.415 . S
C684 C683 1.355 . S
C684 C686 1.419 . S
C685 C680 1.425 . S
C685 C682 1.409 . S
C685 C683 1.415 . S
C686 H676 0.930 . S
C686 C684 1.419 . S
C686 C687 1.362 . S
C687 H677 0.930 . S
C687 C680 1.409 . S
C687 C686 1.362 . S
H688 C694 0.930 . S
H689 C697 0.930 . S
H690 C698 0.930 . S
H691 C699 0.930 . S
H692 C702 0.930 . S
H693 C703 0.930 . S
C694 H688 0.930 . S
C694 C695 1.355 . S
C694 C696 1.415 . S
C695 C694 1.355 . S
C695 C697 1.419 . S
C696 C694 1.415 . S
C696 C701 1.425 . S
C696 C703 1.409 . S
C697 H689 0.930 . S
C697 C695 1.419 . S
C697 C698 1.362 . S
C698 H690 0.930 . S
C698 C697 1.362 . S
C698 C701 1.409 . S
C699 H691 0.930 . S
C699 C700 1.355 . S
C699 C701 1.415 . S
C700 C699 1.355 . S
C700 C702 1.419 . S
C701 C696 1.425 . S
C701 C698 1.409 . S
C701 C699 1.415 . S
C702 H692 0.930 . S
C702 C700 1.419 . S
C702 C703 1.362 . S
C703 H693 0.930 . S
C703 C696 1.409 . S
C703 C702 1.362 . S
H704 C710 0.930 . S
H705 C713 0.930 . S
H706 C714 0.930 . S
H707 C715 0.930 . S
H708 C718 0.930 . S
H709 C719 0.930 . S
C710 H704 0.930 . S
C710 C711 1.355 . S
C710 C712 1.415 . S
C711 C710 1.355 . S
C711 C713 1.419 . S
C712 C710 1.415 . S
C712 C717 1.425 . S
C712 C719 1.409 . S
C713 H705 0.930 . S
C713 C711 1.419 . S
C713 C714 1.362 . S
C714 H706 0.930 . S
C714 C713 1.362 . S
C714 C717 1.409 . S
C715 H707 0.930 . S
C715 C716 1.355 . S
C715 C717 1.415 . S
C716 C715 1.355 . S
C716 C718 1.419 . S
C717 C712 1.425 . S
C717 C714 1.409 . S
C717 C715 1.415 . S
C718 H708 0.930 . S
C718 C716 1.419 . S
C718 C719 1.362 . S
C719 H709 0.930 . S
C719 C712 1.409 . S
C719 C718 1.362 . S
H720 C726 0.930 . S
H721 C729 0.930 . S
H722 C730 0.930 . S
H723 C731 0.930 . S
H724 C734 0.930 . S
H725 C735 0.930 . S
C726 H720 0.930 . S
C726 C727 1.355 . S
C726 C728 1.415 . S
C727 C726 1.355 . S
C727 C729 1.419 . S
C728 C726 1.415 . S
C728 C733 1.425 . S
C728 C735 1.409 . S
C729 H721 0.930 . S
C729 C727 1.419 . S
C729 C730 1.362 . S
C730 H722 0.930 . S
C730 C729 1.362 . S
C730 C733 1.409 . S
C731 H723 0.930 . S
C731 C732 1.355 . S
C731 C733 1.415 . S
C732 C731 1.355 . S
C732 C734 1.419 . S
C733 C728 1.425 . S
C733 C730 1.409 . S
C733 C731 1.415 . S
C734 H724 0.930 . S
C734 C732 1.419 . S
C734 C735 1.362 . S
C735 H725 0.930 . S
C735 C728 1.409 . S
C735 C734 1.362 . S
H736 C742 0.930 . S
H737 C745 0.930 . S
H738 C746 0.930 . S
H739 C747 0.930 . S
H740 C750 0.930 . S
H741 C751 0.930 . S
C742 H736 0.930 . S
C742 C743 1.355 . S
C742 C744 1.415 . S
C743 C742 1.355 . S
C743 C745 1.419 . S
C744 C742 1.415 . S
C744 C749 1.425 . S
C744 C751 1.409 . S
C745 H737 0.930 . S
C745 C743 1.419 . S
C745 C746 1.362 . S
C746 H738 0.930 . S
C746 C745 1.362 . S
C746 C749 1.409 . S
C747 H739 0.930 . S
C747 C748 1.355 . S
C747 C749 1.415 . S
C748 C747 1.355 . S
C748 C750 1.419 . S
C749 C744 1.425 . S
C749 C746 1.409 . S
C749 C747 1.415 . S
C750 H740 0.930 . S
C750 C748 1.419 . S
C750 C751 1.362 . S
C751 H741 0.930 . S
C751 C744 1.409 . S
C751 C750 1.362 . S
H752 C758 0.930 . S
H753 C761 0.930 . S
H754 C762 0.930 . S
H755 C763 0.930 . S
H756 C766 0.930 . S
H757 C767 0.930 . S
C758 H752 0.930 . S
C758 C759 1.355 . S
C758 C760 1.415 . S
C759 C758 1.355 . S
C759 C761 1.419 . S
C760 C758 1.415 . S
C760 C765 1.425 . S
C760 C767 1.409 . S
C761 H753 0.930 . S
C761 C759 1.419 . S
C761 C762 1.362 . S
C762 H754 0.930 . S
C762 C761 1.362 . S
C762 C765 1.409 . S
C763 H755 0.930 . S
C763 C764 1.355 . S
C763 C765 1.415 . S
C764 C763 1.355 . S
C764 C766 1.419 . S
C765 C760 1.425 . S
C765 C762 1.409 . S
C765 C763 1.415 . S
C766 H756 0.930 . S
C766 C764 1.419 . S
C766 C767 1.362 . S
C767 H757 0.930 . S
C767 C760 1.409 . S
C767 C766 1.362 . S
H768 C774 0.930 . S
H769 C777 0.930 . S
H770 C778 0.930 . S
H771 C779 0.930 . S
H772 C782 0.910 1_455 S
H773 C783 0.930 . S
C774 H768 0.930 . S
C774 C775 1.355 . S
C774 C776 1.415 . S
C775 C774 1.355 . S
C775 C777 1.419 1_565 S
C776 C774 1.415 . S
C776 C781 1.425 1_565 S
C776 C783 1.409 . S
C777 H769 0.930 . S
C777 C775 1.419 1_545 S
C777 C778 1.362 . S
C778 H770 0.930 . S
C778 C777 1.362 . S
C778 C781 1.409 . S
C779 H771 0.930 . S
C779 C780 1.355 . S
C779 C781 1.415 . S
C780 C779 1.355 . S
C780 C782 1.419 1_545 S
C781 C776 1.425 1_545 S
C781 C778 1.409 . S
C781 C779 1.415 . S
C782 H772 0.910 1_655 S
C782 C780 1.419 1_565 S
C782 C783 1.362 . S
C783 H773 0.930 . S
C783 C776 1.409 . S
C783 C782 1.362 . S
H784 C790 0.930 . S
H785 C793 0.930 . S
H786 C794 0.930 . S
H787 C795 0.930 . S
H788 C798 0.930 . S
H789 C799 0.930 . S
C790 H784 0.930 . S
C790 C791 1.355 . S
C790 C792 1.415 . S
C791 C790 1.355 . S
C791 C793 1.419 . S
C792 C790 1.415 . S
C792 C797 1.425 . S
C792 C799 1.409 . S
C793 H785 0.930 . S
C793 C791 1.419 . S
C793 C794 1.362 . S
C794 H786 0.930 . S
C794 C793 1.362 . S
C794 C797 1.409 . S
C795 H787 0.930 . S
C795 C796 1.355 . S
C795 C797 1.415 . S
C796 C795 1.355 . S
C796 C798 1.419 . S
C797 C792 1.425 . S
C797 C794 1.409 . S
C797 C795 1.415 . S
C798 H788 0.930 . S
C798 C796 1.419 . S
C798 C799 1.362 . S
C799 H789 0.930 . S
C799 C792 1.409 . S
C799 C798 1.362 . S
H800 C806 0.932 . S
H801 C809 0.930 . S
H802 C810 0.930 . S
H803 C811 0.930 . S
H804 C814 0.930 . S
H805 C815 0.930 . S
C806 H800 0.932 . S
C806 C807 1.352 1_565 S
C806 C808 1.415 . S
C807 C806 1.352 1_545 S
C807 C809 1.419 . S
C808 C806 1.415 . S
C808 C813 1.425 1_565 S
C808 C815 1.409 . S
C809 H801 0.930 . S
C809 C807 1.419 . S
C809 C810 1.362 . S
C810 H802 0.930 . S
C810 C809 1.362 . S
C810 C813 1.409 . S
C811 H803 0.930 . S
C811 C812 1.355 1_545 S
C811 C813 1.415 . S
C812 C811 1.355 1_565 S
C812 C814 1.419 . S
C813 C808 1.425 1_545 S
C813 C810 1.409 . S
C813 C811 1.415 . S
C814 H804 0.930 . S
C814 C812 1.419 . S
C814 C815 1.362 . S
C815 H805 0.930 . S
C815 C808 1.409 . S
C815 C814 1.362 . S
H816 C822 0.930 . S
H817 C825 0.930 . S
H818 C826 0.930 . S
H819 C827 0.930 . S
H820 C830 0.930 . S
H821 C831 0.930 . S
C822 H816 0.930 . S
C822 C823 1.355 . S
C822 C824 1.415 . S
C823 C822 1.355 . S
C823 C825 1.419 . S
C824 C822 1.415 . S
C824 C829 1.425 . S
C824 C831 1.409 . S
C825 H817 0.930 . S
C825 C823 1.419 . S
C825 C826 1.362 . S
C826 H818 0.930 . S
C826 C825 1.362 . S
C826 C829 1.409 . S
C827 H819 0.930 . S
C827 C828 1.355 . S
C827 C829 1.415 . S
C828 C827 1.355 . S
C828 C830 1.419 . S
C829 C824 1.425 . S
C829 C826 1.409 . S
C829 C827 1.415 . S
C830 H820 0.930 . S
C830 C828 1.419 . S
C830 C831 1.362 . S
C831 H821 0.930 . S
C831 C824 1.409 . S
C831 C830 1.362 . S
H832 C838 0.930 . S
H833 C841 0.930 1_655 S
H834 C842 0.930 . S
H835 C843 0.930 . S
H836 C846 0.930 . S
H837 C847 0.930 1_565 S
C838 H832 0.930 . S
C838 C839 1.355 . S
C838 C840 1.415 1_565 S
C839 C838 1.355 . S
C839 C841 1.419 1_565 S
C840 C838 1.415 1_545 S
C840 C845 1.425 . S
C840 C847 1.409 . S
C841 H833 0.930 1_455 S
C841 C839 1.419 1_545 S
C841 C842 1.362 . S
C842 H834 0.930 . S
C842 C841 1.362 . S
C842 C845 1.409 . S
C843 H835 0.930 . S
C843 C844 1.355 . S
C843 C845 1.415 . S
C844 C843 1.355 . S
C844 C846 1.419 . S
C845 C840 1.425 . S
C845 C842 1.409 . S
C845 C843 1.415 . S
C846 H836 0.930 . S
C846 C844 1.419 . S
C846 C847 1.362 . S
C847 H837 0.930 1_545 S
C847 C840 1.409 . S
C847 C846 1.362 . S
H848 C854 0.930 . S
H849 C857 0.930 . S
H850 C858 0.930 . S
H851 C859 0.930 . S
H852 C862 0.930 . S
H853 C863 0.930 . S
C854 H848 0.930 . S
C854 C855 1.355 . S
C854 C856 1.415 . S
C855 C854 1.355 . S
C855 C857 1.419 . S
C856 C854 1.415 . S
C856 C861 1.425 . S
C856 C863 1.409 . S
C857 H849 0.930 . S
C857 C855 1.419 . S
C857 C858 1.362 . S
C858 H850 0.930 . S
C858 C857 1.362 . S
C858 C861 1.409 . S
C859 H851 0.930 . S
C859 C860 1.355 . S
C859 C861 1.415 . S
C860 C859 1.355 . S
C860 C862 1.419 . S
C861 C856 1.425 . S
C861 C858 1.409 . S
C861 C859 1.415 . S
C862 H852 0.930 . S
C862 C860 1.419 . S
C862 C863 1.362 . S
C863 H853 0.930 . S
C863 C856 1.409 . S
C863 C862 1.362 . S
H864 C870 0.929 . S
H865 C873 0.930 . S
H866 C874 0.930 1_565 S
H867 C875 0.930 . S
H868 C878 0.930 . S
H869 C879 0.930 . S
C870 H864 0.929 . S
C870 C871 1.362 . S
C870 C872 1.408 1_545 S
C871 C870 1.362 . S
C871 C873 1.419 . S
C872 C870 1.408 1_565 S
C872 C877 1.425 . S
C872 C879 1.409 . S
C873 H865 0.930 . S
C873 C871 1.419 . S
C873 C874 1.368 . S
C874 H866 0.930 1_545 S
C874 C873 1.368 . S
C874 C877 1.404 1_545 S
C875 H867 0.930 . S
C875 C876 1.355 . S
C875 C877 1.415 . S
C876 C875 1.355 . S
C876 C878 1.419 . S
C877 C872 1.425 . S
C877 C874 1.404 1_565 S
C877 C875 1.415 . S
C878 H868 0.930 . S
C878 C876 1.419 . S
C878 C879 1.362 . S
C879 H869 0.930 . S
C879 C872 1.409 . S
C879 C878 1.362 . S
H880 C886 0.930 1_554 S
H881 C889 0.930 . S
H882 C890 0.930 . S
H883 C891 0.930 . S
H884 C894 0.930 . S
H885 C895 0.930 . S
C886 H880 0.930 1_556 S
C886 C887 1.345 1_556 S
C886 C888 1.415 . S
C887 C886 1.345 1_554 S
C887 C889 1.402 1_554 S
C888 C886 1.415 . S
C888 C893 1.425 . S
C888 C895 1.409 . S
C889 H881 0.930 . S
C889 C887 1.402 1_556 S
C889 C890 1.362 . S
C890 H882 0.930 . S
C890 C889 1.362 . S
C890 C893 1.409 . S
C891 H883 0.930 . S
C891 C892 1.355 . S
C891 C893 1.415 . S
C892 C891 1.355 . S
C892 C894 1.419 . S
C893 C888 1.425 . S
C893 C890 1.409 . S
C893 C891 1.415 . S
C894 H884 0.930 . S
C894 C892 1.419 . S
C894 C895 1.362 . S
C895 H885 0.930 . S
C895 C888 1.409 . S
C895 C894 1.362 . S
H896 C902 0.930 . S
H897 C905 0.930 . S
H898 C906 0.930 . S
H899 C907 0.930 . S
H900 C910 0.930 . S
H901 C911 0.930 . S
C902 H896 0.930 . S
C902 C903 1.355 . S
C902 C904 1.415 . S
C903 C902 1.355 . S
C903 C905 1.419 . S
C904 C902 1.415 . S
C904 C909 1.425 . S
C904 C911 1.409 . S
C905 H897 0.930 . S
C905 C903 1.419 . S
C905 C906 1.362 . S
C906 H898 0.930 . S
C906 C905 1.362 . S
C906 C909 1.409 . S
C907 H899 0.930 . S
C907 C908 1.355 . S
C907 C909 1.415 . S
C908 C907 1.355 . S
C908 C910 1.419 . S
C909 C904 1.425 . S
C909 C906 1.409 . S
C909 C907 1.415 . S
C910 H900 0.930 . S
C910 C908 1.419 . S
C910 C911 1.362 . S
C911 H901 0.930 . S
C911 C904 1.409 . S
C911 C910 1.362 . S
H912 C918 0.930 . S
H913 C921 0.930 . S
H914 C922 0.930 . S
H915 C923 0.930 . S
H916 C926 0.930 . S
H917 C927 0.930 . S
C918 H912 0.930 . S
C918 C919 1.355 . S
C918 C920 1.415 . S
C919 C918 1.355 . S
C919 C921 1.419 . S
C920 C918 1.415 . S
C920 C925 1.425 . S
C920 C927 1.409 . S
C921 H913 0.930 . S
C921 C919 1.419 . S
C921 C922 1.362 . S
C922 H914 0.930 . S
C922 C921 1.362 . S
C922 C925 1.409 . S
C923 H915 0.930 . S
C923 C924 1.355 . S
C923 C925 1.415 . S
C924 C923 1.355 . S
C924 C926 1.419 . S
C925 C920 1.425 . S
C925 C922 1.409 . S
C925 C923 1.415 . S
C926 H916 0.930 . S
C926 C924 1.419 . S
C926 C927 1.362 . S
C927 H917 0.930 . S
C927 C920 1.409 . S
C927 C926 1.362 . S
H928 C934 0.930 . S
H929 C937 0.930 . S
H930 C938 0.930 . S
H931 C939 0.930 . S
H932 C942 0.930 . S
H933 C943 0.930 . S
C934 H928 0.930 . S
C934 C935 1.355 . S
C934 C936 1.415 . S
C935 C934 1.355 . S
C935 C937 1.419 . S
C936 C934 1.415 . S
C936 C941 1.425 . S
C936 C943 1.409 . S
C937 H929 0.930 . S
C937 C935 1.419 . S
C937 C938 1.362 . S
C938 H930 0.930 . S
C938 C937 1.362 . S
C938 C941 1.409 . S
C939 H931 0.930 . S
C939 C940 1.355 . S
C939 C941 1.415 . S
C940 C939 1.355 . S
C940 C942 1.419 . S
C941 C936 1.425 . S
C941 C938 1.409 . S
C941 C939 1.415 . S
C942 H932 0.930 . S
C942 C940 1.419 . S
C942 C943 1.362 . S
C943 H933 0.930 . S
C943 C936 1.409 . S
C943 C942 1.362 . S
H944 C950 0.930 . S
H945 C953 0.930 . S
H946 C954 0.930 . S
H947 C955 0.930 1_556 S
H948 C958 0.930 . S
H949 C959 0.930 . S
C950 H944 0.930 . S
C950 C951 1.355 . S
C950 C952 1.415 . S
C951 C950 1.355 . S
C951 C953 1.419 . S
C952 C950 1.415 . S
C952 C957 1.425 . S
C952 C959 1.409 . S
C953 H945 0.930 . S
C953 C951 1.419 . S
C953 C954 1.362 . S
C954 H946 0.930 . S
C954 C953 1.362 . S
C954 C957 1.409 . S
C955 H947 0.930 1_554 S
C955 C956 1.349 1_554 S
C955 C957 1.415 . S
C956 C955 1.349 1_556 S
C956 C958 1.406 1_556 S
C957 C952 1.425 . S
C957 C954 1.409 . S
C957 C955 1.415 . S
C958 H948 0.930 . S
C958 C956 1.406 1_554 S
C958 C959 1.362 . S
C959 H949 0.930 . S
C959 C952 1.409 . S
C959 C958 1.362 . S
H960 C966 0.930 . S
H961 C969 0.930 . S
H962 C970 0.930 . S
H963 C971 0.930 . S
H964 C974 0.930 . S
H965 C975 0.930 . S
C966 H960 0.930 . S
C966 C967 1.355 . S
C966 C968 1.415 . S
C967 C966 1.355 . S
C967 C969 1.419 . S
C968 C966 1.415 . S
C968 C973 1.425 . S
C968 C975 1.409 . S
C969 H961 0.930 . S
C969 C967 1.419 . S
C969 C970 1.362 . S
C970 H962 0.930 . S
C970 C969 1.362 . S
C970 C973 1.409 . S
C971 H963 0.930 . S
C971 C972 1.355 . S
C971 C973 1.415 . S
C972 C971 1.355 . S
C972 C974 1.419 . S
C973 C968 1.425 . S
C973 C970 1.409 . S
C973 C971 1.415 . S
C974 H964 0.930 . S
C974 C972 1.419 . S
C974 C975 1.362 . S
C975 H965 0.930 . S
C975 C968 1.409 . S
C975 C974 1.362 . S
H976 C982 0.930 . S
H977 C985 0.930 . S
H978 C986 0.930 . S
H979 C987 0.930 . S
H980 C990 0.930 . S
H981 C991 0.930 . S
C982 H976 0.930 . S
C982 C983 1.355 . S
C982 C984 1.415 . S
C983 C982 1.355 . S
C983 C985 1.419 . S
C984 C982 1.415 . S
C984 C989 1.425 . S
C984 C991 1.409 . S
C985 H977 0.930 . S
C985 C983 1.419 . S
C985 C986 1.362 . S
C986 H978 0.930 . S
C986 C985 1.362 . S
C986 C989 1.409 . S
C987 H979 0.930 . S
C987 C988 1.355 . S
C987 C989 1.415 . S
C988 C987 1.355 . S
C988 C990 1.419 . S
C989 C984 1.425 . S
C989 C986 1.409 . S
C989 C987 1.415 . S
C990 H980 0.930 . S
C990 C988 1.419 . S
C990 C991 1.362 . S
C991 H981 0.930 . S
C991 C984 1.409 . S
C991 C990 1.362 . S
H992 C998 0.930 . S
H993 C1001 0.930 . S
H994 C1002 0.930 . S
H995 C1003 0.930 . S
H996 C1006 0.930 . S
H997 C1007 0.930 . S
C998 H992 0.930 . S
C998 C999 1.355 . S
C998 C1000 1.415 . S
C999 C998 1.355 . S
C999 C1001 1.419 . S
C1000 C998 1.415 . S
C1000 C1005 1.425 . S
C1000 C1007 1.409 . S
C1001 H993 0.930 . S
C1001 C999 1.419 . S
C1001 C1002 1.362 . S
C1002 H994 0.930 . S
C1002 C1001 1.362 . S
C1002 C1005 1.409 . S
C1003 H995 0.930 . S
C1003 C1004 1.355 . S
C1003 C1005 1.415 . S
C1004 C1003 1.355 . S
C1004 C1006 1.419 . S
C1005 C1000 1.425 . S
C1005 C1002 1.409 . S
C1005 C1003 1.415 . S
C1006 H996 0.930 . S
C1006 C1004 1.419 . S
C1006 C1007 1.362 . S
C1007 H997 0.930 . S
C1007 C1000 1.409 . S
C1007 C1006 1.362 . S
H1008 C1014 0.930 . S
H1009 C1017 0.930 . S
H1010 C1018 0.930 . S
H1011 C1019 0.930 . S
H1012 C1022 0.930 . S
H1013 C1023 0.930 . S
C1014 H1008 0.930 . S
C1014 C1015 1.355 . S
C1014 C1016 1.415 . S
C1015 C1014 1.355 . S
C1015 C1017 1.419 . S
C1016 C1014 1.415 . S
C1016 C1021 1.425 . S
C1016 C1023 1.409 . S
C1017 H1009 0.930 . S
C1017 C1015 1.419 . S
C1017 C1018 1.362 . S
C1018 H1010 0.930 . S
C1018 C1017 1.362 . S
C1018 C1021 1.409 . S
C1019 H1011 0.930 . S
C1019 C1020 1.355 . S
C1019 C1021 1.415 . S
C1020 C1019 1.355 . S
C1020 C1022 1.419 . S
C1021 C1016 1.425 . S
C1021 C1018 1.409 . S
C1021 C1019 1.415 . S
C1022 H1012 0.930 . S
C1022 C1020 1.419 . S
C1022 C1023 1.362 . S
C1023 H1013 0.930 . S
C1023 C1016 1.409 . S
C1023 C1022 1.362 . S
H1024 C1030 0.930 . S
H1025 C1033 0.930 . S
H1026 C1034 0.930 . S
H1027 C1035 0.930 . S
H1028 C1038 0.930 . S
H1029 C1039 0.930 . S
C1030 H1024 0.930 . S
C1030 C1031 1.355 . S
C1030 C1032 1.415 . S
C1031 C1030 1.355 . S
C1031 C1033 1.419 . S
C1032 C1030 1.415 . S
C1032 C1037 1.425 . S
C1032 C1039 1.409 . S
C1033 H1025 0.930 . S
C1033 C1031 1.419 . S
C1033 C1034 1.362 1_565 S
C1034 H1026 0.930 . S
C1034 C1033 1.362 1_545 S
C1034 C1037 1.409 1_545 S
C1035 H1027 0.930 . S
C1035 C1036 1.355 . S
C1035 C1037 1.415 1_545 S
C1036 C1035 1.355 . S
C1036 C1038 1.419 1_545 S
C1037 C1032 1.425 . S
C1037 C1034 1.409 1_565 S
C1037 C1035 1.415 1_565 S
C1038 H1028 0.930 . S
C1038 C1036 1.419 1_565 S
C1038 C1039 1.362 . S
C1039 H1029 0.930 . S
C1039 C1032 1.409 . S
C1039 C1038 1.362 . S
H1040 C1046 0.930 . S
H1041 C1049 0.930 . S
H1042 C1050 0.930 . S
H1043 C1051 0.930 . S
H1044 C1054 0.930 . S
H1045 C1055 0.930 . S
C1046 H1040 0.930 . S
C1046 C1047 1.355 . S
C1046 C1048 1.415 . S
C1047 C1046 1.355 . S
C1047 C1049 1.419 . S
C1048 C1046 1.415 . S
C1048 C1053 1.425 . S
C1048 C1055 1.409 . S
C1049 H1041 0.930 . S
C1049 C1047 1.419 . S
C1049 C1050 1.362 . S
C1050 H1042 0.930 . S
C1050 C1049 1.362 . S
C1050 C1053 1.409 . S
C1051 H1043 0.930 . S
C1051 C1052 1.355 1_556 S
C1051 C1053 1.415 . S
C1052 C1051 1.355 1_554 S
C1052 C1054 1.419 . S
C1053 C1048 1.425 . S
C1053 C1050 1.409 . S
C1053 C1051 1.415 . S
C1054 H1044 0.930 . S
C1054 C1052 1.419 . S
C1054 C1055 1.362 1_554 S
C1055 H1045 0.930 . S
C1055 C1048 1.409 . S
C1055 C1054 1.362 1_556 S
H1056 C1062 0.930 . S
H1057 C1065 0.930 . S
H1058 C1066 0.930 . S
H1059 C1067 0.930 . S
H1060 C1070 0.930 . S
H1061 C1071 0.930 . S
C1062 H1056 0.930 . S
C1062 C1063 1.355 . S
C1062 C1064 1.415 1_565 S
C1063 C1062 1.355 . S
C1063 C1065 1.419 1_565 S
C1064 C1062 1.415 1_545 S
C1064 C1069 1.425 . S
C1064 C1071 1.409 1_545 S
C1065 H1057 0.930 . S
C1065 C1063 1.419 1_545 S
C1065 C1066 1.362 . S
C1066 H1058 0.930 . S
C1066 C1065 1.362 . S
C1066 C1069 1.409 . S
C1067 H1059 0.930 . S
C1067 C1068 1.355 . S
C1067 C1069 1.415 . S
C1068 C1067 1.355 . S
C1068 C1070 1.419 . S
C1069 C1064 1.425 . S
C1069 C1066 1.409 . S
C1069 C1067 1.415 . S
C1070 H1060 0.930 . S
C1070 C1068 1.419 . S
C1070 C1071 1.362 1_545 S
C1071 H1061 0.930 . S
C1071 C1064 1.409 1_565 S
C1071 C1070 1.362 1_565 S
H1072 C1078 0.930 . S
H1073 C1081 0.930 . S
H1074 C1082 0.930 . S
H1075 C1083 0.930 . S
H1076 C1086 0.930 . S
H1077 C1087 0.930 . S
C1078 H1072 0.930 . S
C1078 C1079 1.355 . S
C1078 C1080 1.415 . S
C1079 C1078 1.355 . S
C1079 C1081 1.419 . S
C1080 C1078 1.415 . S
C1080 C1085 1.425 . S
C1080 C1087 1.409 . S
C1081 H1073 0.930 . S
C1081 C1079 1.419 . S
C1081 C1082 1.362 . S
C1082 H1074 0.930 . S
C1082 C1081 1.362 . S
C1082 C1085 1.409 . S
C1083 H1075 0.930 . S
C1083 C1084 1.355 . S
C1083 C1085 1.415 . S
C1084 C1083 1.355 . S
C1084 C1086 1.419 . S
C1085 C1080 1.425 . S
C1085 C1082 1.409 . S
C1085 C1083 1.415 . S
C1086 H1076 0.930 . S
C1086 C1084 1.419 . S
C1086 C1087 1.362 . S
C1087 H1077 0.930 . S
C1087 C1080 1.409 . S
C1087 C1086 1.362 . S
H1088 C1094 0.930 . S
H1089 C1097 0.930 . S
H1090 C1098 0.930 . S
H1091 C1099 0.930 . S
H1092 C1102 0.930 . S
H1093 C1103 0.930 . S
C1094 H1088 0.930 . S
C1094 C1095 1.355 . S
C1094 C1096 1.415 . S
C1095 C1094 1.355 . S
C1095 C1097 1.419 . S
C1096 C1094 1.415 . S
C1096 C1101 1.425 . S
C1096 C1103 1.409 1_545 S
C1097 H1089 0.930 . S
C1097 C1095 1.419 . S
C1097 C1098 1.362 . S
C1098 H1090 0.930 . S
C1098 C1097 1.362 . S
C1098 C1101 1.409 . S
C1099 H1091 0.930 . S
C1099 C1100 1.355 1_545 S
C1099 C1101 1.415 . S
C1100 C1099 1.355 1_565 S
C1100 C1102 1.419 . S
C1101 C1096 1.425 . S
C1101 C1098 1.409 . S
C1101 C1099 1.415 . S
C1102 H1092 0.930 . S
C1102 C1100 1.419 . S
C1102 C1103 1.362 . S
C1103 H1093 0.930 . S
C1103 C1096 1.409 1_565 S
C1103 C1102 1.362 . S
H1104 C1110 0.930 . S
H1105 C1113 0.930 . S
H1106 C1114 0.930 . S
H1107 C1115 0.930 . S
H1108 C1118 0.930 . S
H1109 C1119 0.930 . S
C1110 H1104 0.930 . S
C1110 C1111 1.355 . S
C1110 C1112 1.415 . S
C1111 C1110 1.355 . S
C1111 C1113 1.419 . S
C1112 C1110 1.415 . S
C1112 C1117 1.425 . S
C1112 C1119 1.409 . S
C1113 H1105 0.930 . S
C1113 C1111 1.419 . S
C1113 C1114 1.362 . S
C1114 H1106 0.930 . S
C1114 C1113 1.362 . S
C1114 C1117 1.409 . S
C1115 H1107 0.930 . S
C1115 C1116 1.353 1_554 S
C1115 C1117 1.415 . S
C1116 C1115 1.353 1_556 S
C1116 C1118 1.418 1_556 S
C1117 C1112 1.425 . S
C1117 C1114 1.409 . S
C1117 C1115 1.415 . S
C1118 H1108 0.930 . S
C1118 C1116 1.418 1_554 S
C1118 C1119 1.362 . S
C1119 H1109 0.930 . S
C1119 C1112 1.409 . S
C1119 C1118 1.362 . S
H1120 C1126 0.930 . S
H1121 C1129 0.930 . S
H1122 C1130 0.930 . S
H1123 C1131 0.930 . S
H1124 C1134 0.930 . S
H1125 C1135 0.930 . S
C1126 H1120 0.930 . S
C1126 C1127 1.355 . S
C1126 C1128 1.415 . S
C1127 C1126 1.355 . S
C1127 C1129 1.419 . S
C1128 C1126 1.415 . S
C1128 C1133 1.425 . S
C1128 C1135 1.409 . S
C1129 H1121 0.930 . S
C1129 C1127 1.419 . S
C1129 C1130 1.362 . S
C1130 H1122 0.930 . S
C1130 C1129 1.362 . S
C1130 C1133 1.409 . S
C1131 H1123 0.930 . S
C1131 C1132 1.355 . S
C1131 C1133 1.415 1_545 S
C1132 C1131 1.355 . S
C1132 C1134 1.419 1_545 S
C1133 C1128 1.425 . S
C1133 C1130 1.409 . S
C1133 C1131 1.415 1_565 S
C1134 H1124 0.930 . S
C1134 C1132 1.419 1_565 S
C1134 C1135 1.362 . S
C1135 H1125 0.930 . S
C1135 C1128 1.409 . S
C1135 C1134 1.362 . S
C375 C16 0.426 . S
C380 C246 0.463 . S
C391 C39 0.444 . S
C396 C269 0.471 . S
C407 C62 0.454 . S
C412 C200 0.464 . S
C423 C223 0.474 . S
C428 C85 0.439 . S
C439 C108 0.469 . S
C444 C338 0.448 . S
C455 C361 0.465 . S
C460 C131 0.425 . S
C471 C292 0.449 . S
C476 C154 0.435 . S
C487 C177 0.428 . S
C492 C315 0.474 . S
C503 C18 2.043 . S
C508 C110 2.043 . S
C519 C41 2.037 . S
C524 C317 2.037 . S
C535 C64 2.042 . S
C540 C156 2.042 . S
C551 C87 2.042 . S
C556 C363 2.042 . S
C567 C133 2.040 . S
C572 C225 2.040 . S
C583 C271 2.038 . S
C588 C179 2.038 . S
C599 C294 2.043 . S
C604 C202 2.043 . S
C615 C248 2.039 . S
C620 C340 2.039 . S
C631 C21 1.766 . S
C636 C178 1.765 . S
C647 C44 1.770 . S
C652 C293 1.773 . S
C663 C67 1.767 . S
C668 C132 1.763 . S
C679 C90 1.762 1_455 S
C684 C339 1.771 . S
C695 C86 1.775 . S
C700 C113 1.767 . S
C711 C136 1.774 . S
C716 C201 1.768 . S
C727 C159 1.760 . S
C732 C40 1.775 . S
C743 C247 1.765 . S
C748 C182 1.776 1_655 S
C759 C205 1.760 . S
C764 C362 1.781 . S
C775 C109 1.778 . S
C780 C228 1.759 1_655 S
C791 C316 1.758 . S
C796 C251 1.772 . S
C807 C155 1.747 . S
C812 C274 1.785 . S
C823 C297 1.773 . S
C828 C270 1.757 . S
C839 C320 1.767 1_455 S
C844 C17 1.764 . S
C855 C224 1.761 . S
C860 C343 1.769 . S
C871 C366 1.772 . S
C876 C63 1.757 . S
C887 C19 1.183 . S
C892 C227 1.191 . S
C903 C250 1.199 . S
C908 C42 1.170 . S
C919 C65 1.165 . S
C924 C273 1.191 . S
C935 C204 1.194 . S
C940 C88 1.178 . S
C951 C319 1.191 . S
C956 C111 1.176 . S
C967 C342 1.202 . S
C972 C134 1.203 . S
C983 C365 1.209 . S
C988 C157 1.214 . S
C999 C296 1.207 . S
C1004 C180 1.213 . S
C1015 C43 1.199 . S
C1020 C203 1.195 . S
C1031 C66 1.200 . S
C1036 C226 1.199 . S
C1047 C89 1.198 . S
C1052 C249 1.192 . S
C1063 C272 1.211 . S
C1068 C20 1.206 . S
C1079 C135 1.191 . S
C1084 C295 1.159 . S
C1095 C158 1.191 . S
C1100 C318 1.162 . S
C1111 C181 1.209 . S
C1116 C341 1.205 . S
C1127 C112 1.210 . S
C1132 C364 1.204 . S
