# Generated by pormake.
# Topology snv-x, (7)-cn, num edge types: 1
# Building blocks:
#     Node 0, Type 0, BuildingBlock: NUHQUE_clean_sbu_2, # of connection points: 7
#     Node 1, Type 0, BuildingBlock: NUHQUE_clean_sbu_2, # of connection points: 7
#     Node 2, Type 0, BuildingBlock: NUHQUE_clean_sbu_2, # of connection points: 7
#     Node 3, Type 0, BuildingBlock: NUHQUE_clean_sbu_2, # of connection points: 7
#     Node 4, Type 0, BuildingBlock: NUHQUE_clean_sbu_2, # of connection points: 7
#     Node 5, Type 0, BuildingBlock: NUHQUE_clean_sbu_2, # of connection points: 7
#     Node 6, Type 0, BuildingBlock: NUHQUE_clean_sbu_2, # of connection points: 7
#     Node 7, Type 0, BuildingBlock: NUHQUE_clean_sbu_2, # of connection points: 7
#     Node 8, Type 0, BuildingBlock: NUHQUE_clean_sbu_2, # of connection points: 7
#     Node 9, Type 0, BuildingBlock: NUHQUE_clean_sbu_2, # of connection points: 7
#     Node 10, Type 0, BuildingBlock: NUHQUE_clean_sbu_2, # of connection points: 7
#     Node 11, Type 0, BuildingBlock: NUHQUE_clean_sbu_2, # of connection points: 7
#     Node 12, Type 0, BuildingBlock: NUHQUE_clean_sbu_2, # of connection points: 7
#     Node 13, Type 0, BuildingBlock: NUHQUE_clean_sbu_2, # of connection points: 7
#     Node 14, Type 0, BuildingBlock: NUHQUE_clean_sbu_2, # of connection points: 7
#     Node 15, Type 0, BuildingBlock: NUHQUE_clean_sbu_2, # of connection points: 7
#     Node 16, Type 0, BuildingBlock: NUHQUE_clean_sbu_2, # of connection points: 7
#     Node 17, Type 0, BuildingBlock: NUHQUE_clean_sbu_2, # of connection points: 7
#     Node 18, Type 0, BuildingBlock: NUHQUE_clean_sbu_2, # of connection points: 7
#     Node 19, Type 0, BuildingBlock: NUHQUE_clean_sbu_2, # of connection points: 7
#     Node 20, Type 0, BuildingBlock: NUHQUE_clean_sbu_2, # of connection points: 7
#     Node 21, Type 0, BuildingBlock: NUHQUE_clean_sbu_2, # of connection points: 7
#     Node 22, Type 0, BuildingBlock: NUHQUE_clean_sbu_2, # of connection points: 7
#     Node 23, Type 0, BuildingBlock: NUHQUE_clean_sbu_2, # of connection points: 7
#     Edge 24, Type (0, 0), BuildingBlock: UVAHIK_clean_linker_0, # of connection points: 2
#     Edge 25, Type (0, 0), BuildingBlock: UVAHIK_clean_linker_0, # of connection points: 2
#     Edge 26, Type (0, 0), BuildingBlock: UVAHIK_clean_linker_0, # of connection points: 2
#     Edge 27, Type (0, 0), BuildingBlock: UVAHIK_clean_linker_0, # of connection points: 2
#     Edge 28, Type (0, 0), BuildingBlock: UVAHIK_clean_linker_0, # of connection points: 2
#     Edge 29, Type (0, 0), BuildingBlock: UVAHIK_clean_linker_0, # of connection points: 2
#     Edge 30, Type (0, 0), BuildingBlock: UVAHIK_clean_linker_0, # of connection points: 2
#     Edge 31, Type (0, 0), BuildingBlock: UVAHIK_clean_linker_0, # of connection points: 2
#     Edge 32, Type (0, 0), BuildingBlock: UVAHIK_clean_linker_0, # of connection points: 2
#     Edge 33, Type (0, 0), BuildingBlock: UVAHIK_clean_linker_0, # of connection points: 2
#     Edge 34, Type (0, 0), BuildingBlock: UVAHIK_clean_linker_0, # of connection points: 2
#     Edge 35, Type (0, 0), BuildingBlock: UVAHIK_clean_linker_0, # of connection points: 2
#     Edge 36, Type (0, 0), BuildingBlock: UVAHIK_clean_linker_0, # of connection points: 2
#     Edge 37, Type (0, 0), BuildingBlock: UVAHIK_clean_linker_0, # of connection points: 2
#     Edge 38, Type (0, 0), BuildingBlock: UVAHIK_clean_linker_0, # of connection points: 2
#     Edge 39, Type (0, 0), BuildingBlock: UVAHIK_clean_linker_0, # of connection points: 2
#     Edge 40, Type (0, 0), BuildingBlock: UVAHIK_clean_linker_0, # of connection points: 2
#     Edge 41, Type (0, 0), BuildingBlock: UVAHIK_clean_linker_0, # of connection points: 2
#     Edge 42, Type (0, 0), BuildingBlock: UVAHIK_clean_linker_0, # of connection points: 2
#     Edge 43, Type (0, 0), BuildingBlock: UVAHIK_clean_linker_0, # of connection points: 2
#     Edge 44, Type (0, 0), BuildingBlock: UVAHIK_clean_linker_0, # of connection points: 2
#     Edge 45, Type (0, 0), BuildingBlock: UVAHIK_clean_linker_0, # of connection points: 2
#     Edge 46, Type (0, 0), BuildingBlock: UVAHIK_clean_linker_0, # of connection points: 2
#     Edge 47, Type (0, 0), BuildingBlock: UVAHIK_clean_linker_0, # of connection points: 2
#     Edge 48, Type (0, 0), BuildingBlock: UVAHIK_clean_linker_0, # of connection points: 2
#     Edge 49, Type (0, 0), BuildingBlock: UVAHIK_clean_linker_0, # of connection points: 2
#     Edge 50, Type (0, 0), BuildingBlock: UVAHIK_clean_linker_0, # of connection points: 2
#     Edge 51, Type (0, 0), BuildingBlock: UVAHIK_clean_linker_0, # of connection points: 2
#     Edge 52, Type (0, 0), BuildingBlock: UVAHIK_clean_linker_0, # of connection points: 2
#     Edge 53, Type (0, 0), BuildingBlock: UVAHIK_clean_linker_0, # of connection points: 2
#     Edge 54, Type (0, 0), BuildingBlock: UVAHIK_clean_linker_0, # of connection points: 2
#     Edge 55, Type (0, 0), BuildingBlock: UVAHIK_clean_linker_0, # of connection points: 2
#     Edge 56, Type (0, 0), BuildingBlock: UVAHIK_clean_linker_0, # of connection points: 2
#     Edge 57, Type (0, 0), BuildingBlock: UVAHIK_clean_linker_0, # of connection points: 2
#     Edge 58, Type (0, 0), BuildingBlock: UVAHIK_clean_linker_0, # of connection points: 2
#     Edge 59, Type (0, 0), BuildingBlock: UVAHIK_clean_linker_0, # of connection points: 2
#     Edge 60, Type (0, 0), BuildingBlock: UVAHIK_clean_linker_0, # of connection points: 2
#     Edge 61, Type (0, 0), BuildingBlock: UVAHIK_clean_linker_0, # of connection points: 2
#     Edge 62, Type (0, 0), BuildingBlock: UVAHIK_clean_linker_0, # of connection points: 2
#     Edge 63, Type (0, 0), BuildingBlock: UVAHIK_clean_linker_0, # of connection points: 2
#     Edge 64, Type (0, 0), BuildingBlock: UVAHIK_clean_linker_0, # of connection points: 2
#     Edge 65, Type (0, 0), BuildingBlock: UVAHIK_clean_linker_0, # of connection points: 2
#     Edge 66, Type (0, 0), BuildingBlock: UVAHIK_clean_linker_0, # of connection points: 2
#     Edge 67, Type (0, 0), BuildingBlock: UVAHIK_clean_linker_0, # of connection points: 2
#     Edge 68, Type (0, 0), BuildingBlock: UVAHIK_clean_linker_0, # of connection points: 2
#     Edge 69, Type (0, 0), BuildingBlock: UVAHIK_clean_linker_0, # of connection points: 2
#     Edge 70, Type (0, 0), BuildingBlock: UVAHIK_clean_linker_0, # of connection points: 2
#     Edge 71, Type (0, 0), BuildingBlock: UVAHIK_clean_linker_0, # of connection points: 2
#     Edge 72, Type (0, 0), BuildingBlock: UVAHIK_clean_linker_0, # of connection points: 2
#     Edge 73, Type (0, 0), BuildingBlock: UVAHIK_clean_linker_0, # of connection points: 2
#     Edge 74, Type (0, 0), BuildingBlock: UVAHIK_clean_linker_0, # of connection points: 2
#     Edge 75, Type (0, 0), BuildingBlock: UVAHIK_clean_linker_0, # of connection points: 2
#     Edge 76, Type (0, 0), BuildingBlock: UVAHIK_clean_linker_0, # of connection points: 2
#     Edge 77, Type (0, 0), BuildingBlock: UVAHIK_clean_linker_0, # of connection points: 2
#     Edge 78, Type (0, 0), BuildingBlock: UVAHIK_clean_linker_0, # of connection points: 2
#     Edge 79, Type (0, 0), BuildingBlock: UVAHIK_clean_linker_0, # of connection points: 2
#     Edge 80, Type (0, 0), BuildingBlock: UVAHIK_clean_linker_0, # of connection points: 2
#     Edge 81, Type (0, 0), BuildingBlock: UVAHIK_clean_linker_0, # of connection points: 2
#     Edge 82, Type (0, 0), BuildingBlock: UVAHIK_clean_linker_0, # of connection points: 2
#     Edge 83, Type (0, 0), BuildingBlock: UVAHIK_clean_linker_0, # of connection points: 2
#     Edge 84, Type (0, 0), BuildingBlock: UVAHIK_clean_linker_0, # of connection points: 2
#     Edge 85, Type (0, 0), BuildingBlock: UVAHIK_clean_linker_0, # of connection points: 2
#     Edge 86, Type (0, 0), BuildingBlock: UVAHIK_clean_linker_0, # of connection points: 2
#     Edge 87, Type (0, 0), BuildingBlock: UVAHIK_clean_linker_0, # of connection points: 2
#     Edge 88, Type (0, 0), BuildingBlock: UVAHIK_clean_linker_0, # of connection points: 2
#     Edge 89, Type (0, 0), BuildingBlock: UVAHIK_clean_linker_0, # of connection points: 2
#     Edge 90, Type (0, 0), BuildingBlock: UVAHIK_clean_linker_0, # of connection points: 2
#     Edge 91, Type (0, 0), BuildingBlock: UVAHIK_clean_linker_0, # of connection points: 2
#     Edge 92, Type (0, 0), BuildingBlock: UVAHIK_clean_linker_0, # of connection points: 2
#     Edge 93, Type (0, 0), BuildingBlock: UVAHIK_clean_linker_0, # of connection points: 2
#     Edge 94, Type (0, 0), BuildingBlock: UVAHIK_clean_linker_0, # of connection points: 2
#     Edge 95, Type (0, 0), BuildingBlock: UVAHIK_clean_linker_0, # of connection points: 2
#     Edge 96, Type (0, 0), BuildingBlock: UVAHIK_clean_linker_0, # of connection points: 2
#     Edge 97, Type (0, 0), BuildingBlock: UVAHIK_clean_linker_0, # of connection points: 2
#     Edge 98, Type (0, 0), BuildingBlock: UVAHIK_clean_linker_0, # of connection points: 2
#     Edge 99, Type (0, 0), BuildingBlock: UVAHIK_clean_linker_0, # of connection points: 2
#     Edge 100, Type (0, 0), BuildingBlock: UVAHIK_clean_linker_0, # of connection points: 2
#     Edge 101, Type (0, 0), BuildingBlock: UVAHIK_clean_linker_0, # of connection points: 2
#     Edge 102, Type (0, 0), BuildingBlock: UVAHIK_clean_linker_0, # of connection points: 2
#     Edge 103, Type (0, 0), BuildingBlock: UVAHIK_clean_linker_0, # of connection points: 2
#     Edge 104, Type (0, 0), BuildingBlock: UVAHIK_clean_linker_0, # of connection points: 2
#     Edge 105, Type (0, 0), BuildingBlock: UVAHIK_clean_linker_0, # of connection points: 2
#     Edge 106, Type (0, 0), BuildingBlock: UVAHIK_clean_linker_0, # of connection points: 2
#     Edge 107, Type (0, 0), BuildingBlock: UVAHIK_clean_linker_0, # of connection points: 2
# Relax obj value: 0.177
# Max RMSD: 0.251
# Mean RMSD: 0.251
data_MOF--net-snv-x--node1-NUHQUE_clean_sbu_2--edge1-UVAHIK_clean_linker_0
_symmetry_space_group_name_H-M    P1
_symmetry_Int_Tables_number       1
_symmetry_cell_setting            triclinic
loop_
_symmetry_equiv_pos_as_xyz
'x, y, z'
_cell_length_a     68.316027
_cell_length_b     68.292036
_cell_length_c     68.33008
_cell_angle_alpha  89.936614
_cell_angle_beta   90.033655
_cell_angle_gamma 89.950446
loop_
_atom_site_label
_atom_site_type_symbol
_atom_site_fract_x
_atom_site_fract_y
_atom_site_fract_z
_atom_type_partial_charge
O0 O 0.11804 0.44066 0.26028 0.0
Tb1 Tb 0.10859 0.42859 0.28876 0.0
Eu2 Eu 0.12868 0.40587 0.32793 0.0
C3 C 0.13619 0.43867 0.25375 0.0
O4 O 0.14787 0.42613 0.2625 0.0
C5 C 0.13589 0.44922 0.31829 0.0
O6 O 0.13359 0.39329 0.35788 0.0
C7 C 0.15342 0.39221 0.30276 0.0
C8 C 0.1311 0.37459 0.36165 0.0
O9 O 0.12569 0.36274 0.34752 0.0
C10 C 0.09001 0.39032 0.30724 0.0
C11 C 0.15818 0.37355 0.29324 0.0
C12 C 0.16513 0.3739 0.27398 0.0
C13 C 0.17165 0.35666 0.2649 0.0
C14 C 0.17025 0.33887 0.27519 0.0
C15 C 0.16308 0.33826 0.29443 0.0
C16 C 0.15708 0.35571 0.30344 0.0
O17 O 0.13499 0.44254 0.30029 0.0
O18 O 0.13057 0.43797 0.3328 0.0
O19 O 0.08173 0.44479 0.2836 0.0
O20 O 0.09244 0.44183 0.31284 0.0
C21 C 0.07843 0.44876 0.30194 0.0
O22 O 0.09866 0.3938 0.32406 0.0
O23 O 0.09623 0.39851 0.29062 0.0
O24 O 0.15718 0.39347 0.32158 0.0
O25 O 0.1368 0.40042 0.29761 0.0
H26 H 0.16609 0.38777 0.26632 0.0
H27 H 0.1761 0.32558 0.26879 0.0
H28 H 0.15199 0.35543 0.31844 0.0
O29 O 0.56721 0.11565 0.26373 0.0
Tb30 Tb 0.58042 0.10531 0.29136 0.0
Eu31 Eu 0.60604 0.12395 0.33021 0.0
C32 C 0.56993 0.13383 0.25755 0.0
O33 O 0.58363 0.14436 0.26598 0.0
C34 C 0.56342 0.13407 0.32127 0.0
O35 O 0.62152 0.12767 0.35899 0.0
C36 C 0.62038 0.14761 0.30433 0.0
C37 C 0.63859 0.11941 0.36228 0.0
O38 O 0.64678 0.10882 0.34851 0.0
C39 C 0.61845 0.08484 0.30788 0.0
C40 C 0.63923 0.15143 0.29475 0.0
C41 C 0.63927 0.15625 0.27482 0.0
C42 C 0.65663 0.16199 0.26544 0.0
C43 C 0.67417 0.16193 0.27624 0.0
C44 C 0.67443 0.15669 0.29613 0.0
C45 C 0.65686 0.15145 0.30534 0.0
O46 O 0.57068 0.13317 0.30352 0.0
O47 O 0.57419 0.12814 0.33594 0.0
O48 O 0.56206 0.0796 0.28789 0.0
O49 O 0.56743 0.09072 0.31658 0.0
C50 C 0.55885 0.07706 0.30651 0.0
O51 O 0.61559 0.09303 0.32506 0.0
O52 O 0.60989 0.09159 0.29166 0.0
O53 O 0.61909 0.15197 0.32302 0.0
O54 O 0.61169 0.13115 0.29967 0.0
H55 H 0.62557 0.1561 0.26682 0.0
H56 H 0.68751 0.16731 0.26958 0.0
H57 H 0.65686 0.14778 0.32079 0.0
O58 O 0.88563 0.57919 0.25966 0.0
Tb59 Tb 0.89728 0.58823 0.28844 0.0
Eu60 Eu 0.88063 0.61975 0.32596 0.0
C61 C 0.86668 0.58026 0.25566 0.0
O62 O 0.85536 0.59037 0.26744 0.0
C63 C 0.86914 0.57743 0.3209 0.0
O64 O 0.87749 0.6387 0.3527 0.0
C65 C 0.85881 0.63148 0.29724 0.0
C66 C 0.89215 0.63997 0.36509 0.0
O67 O 0.90858 0.63083 0.36105 0.0
C68 C 0.92256 0.6245 0.30431 0.0
C69 C 0.85482 0.64972 0.28671 0.0
C70 C 0.84679 0.64881 0.26791 0.0
C71 C 0.84177 0.66603 0.2579 0.0
C72 C 0.8451 0.68422 0.2669 0.0
C73 C 0.85293 0.68531 0.28591 0.0
C74 C 0.85809 0.66792 0.29561 0.0
O75 O 0.86931 0.58457 0.30309 0.0
O76 O 0.87541 0.58884 0.33484 0.0
O77 O 0.91466 0.56176 0.28455 0.0
O78 O 0.9109 0.57337 0.31322 0.0
C79 C 0.91852 0.55928 0.30303 0.0
O80 O 0.91241 0.62582 0.32065 0.0
O81 O 0.91663 0.61437 0.28868 0.0
O82 O 0.85272 0.63068 0.31547 0.0
O83 O 0.87632 0.62401 0.29469 0.0
H84 H 0.84397 0.63467 0.26126 0.0
H85 H 0.84018 0.69748 0.25966 0.0
H86 H 0.8641 0.66849 0.31029 0.0
O87 O 0.442 0.88101 0.2674 0.0
Tb88 Tb 0.43127 0.89007 0.29654 0.0
Eu89 Eu 0.40268 0.86847 0.3324 0.0
C90 C 0.43937 0.86303 0.2606 0.0
O91 O 0.42643 0.85173 0.26924 0.0
C92 C 0.44504 0.85832 0.32442 0.0
O93 O 0.38735 0.86156 0.36062 0.0
C94 C 0.38938 0.84866 0.30294 0.0
C95 C 0.36922 0.86679 0.36431 0.0
O96 O 0.35899 0.87589 0.35079 0.0
C97 C 0.39409 0.91178 0.31561 0.0
C98 C 0.37071 0.8461 0.29276 0.0
C99 C 0.37057 0.83801 0.27394 0.0
C100 C 0.35277 0.83427 0.2644 0.0
C101 C 0.33513 0.839 0.27387 0.0
C102 C 0.33511 0.84692 0.29284 0.0
C103 C 0.35303 0.85067 0.30212 0.0
O104 O 0.43778 0.86061 0.30682 0.0
O105 O 0.43403 0.8632 0.33917 0.0
O106 O 0.45553 0.91043 0.29384 0.0
O107 O 0.44627 0.90154 0.32231 0.0
C108 C 0.45877 0.91201 0.31253 0.0
O109 O 0.39439 0.90011 0.33099 0.0
O110 O 0.40388 0.90776 0.29912 0.0
O111 O 0.39025 0.84167 0.32086 0.0
O112 O 0.39763 0.8659 0.30105 0.0
H113 H 0.38429 0.83418 0.26695 0.0
H114 H 0.32135 0.83509 0.26705 0.0
H115 H 0.35322 0.85656 0.31683 0.0
O116 O 0.12638 0.57694 0.74869 0.0
Tb117 Tb 0.11471 0.58669 0.72001 0.0
Eu118 Eu 0.13722 0.60917 0.68195 0.0
C119 C 0.14546 0.5743 0.75121 0.0
O120 O 0.15744 0.58118 0.73788 0.0
C121 C 0.13837 0.56443 0.68784 0.0
O122 O 0.14589 0.62273 0.65336 0.0
C123 C 0.16112 0.61777 0.71008 0.0
C124 C 0.14361 0.64146 0.64963 0.0
O125 O 0.13667 0.65307 0.66329 0.0
C126 C 0.09817 0.62605 0.70076 0.0
C127 C 0.16661 0.63478 0.72192 0.0
C128 C 0.17293 0.63174 0.7412 0.0
C129 C 0.17845 0.64764 0.75286 0.0
C130 C 0.17761 0.66661 0.74507 0.0
C131 C 0.17236 0.66982 0.72542 0.0
C132 C 0.16633 0.6538 0.71403 0.0
O133 O 0.13804 0.56937 0.70641 0.0
O134 O 0.13525 0.57763 0.67437 0.0
O135 O 0.08793 0.57171 0.72839 0.0
O136 O 0.09572 0.57354 0.69815 0.0
C137 C 0.08271 0.56738 0.71057 0.0
O138 O 0.1081 0.62345 0.68453 0.0
O139 O 0.10312 0.6171 0.71742 0.0
O140 O 0.16619 0.61809 0.69152 0.0
O141 O 0.14345 0.61091 0.71306 0.0
H142 H 0.17394 0.617 0.74703 0.0
H143 H 0.18228 0.67882 0.75405 0.0
H144 H 0.16231 0.65594 0.69884 0.0
O145 O 0.43611 0.12256 0.74868 0.0
Tb146 Tb 0.42631 0.11152 0.72001 0.0
Eu147 Eu 0.40779 0.13182 0.67914 0.0
C148 C 0.43582 0.14148 0.75283 0.0
O149 O 0.42576 0.15329 0.74146 0.0
C150 C 0.45076 0.13528 0.69038 0.0
O151 O 0.39433 0.13841 0.64985 0.0
C152 C 0.39659 0.15717 0.705 0.0
C153 C 0.3756 0.1355 0.64655 0.0
O154 O 0.36456 0.12841 0.66059 0.0
C155 C 0.38845 0.09448 0.69942 0.0
C156 C 0.37796 0.16437 0.71269 0.0
C157 C 0.37766 0.1743 0.73056 0.0
C158 C 0.36013 0.18226 0.73773 0.0
C159 C 0.34284 0.17981 0.7268 0.0
C160 C 0.34294 0.16963 0.7089 0.0
C161 C 0.36063 0.16182 0.70205 0.0
O162 O 0.44262 0.13616 0.70775 0.0
O163 O 0.44009 0.13031 0.67532 0.0
O164 O 0.44127 0.08494 0.7289 0.0
O165 O 0.44043 0.0927 0.69858 0.0
C166 C 0.4463 0.07976 0.71127 0.0
O167 O 0.39347 0.10266 0.68273 0.0
O168 O 0.39599 0.10036 0.71643 0.0
O169 O 0.40051 0.1618 0.68674 0.0
O170 O 0.40087 0.13898 0.70934 0.0
H171 H 0.39116 0.17608 0.7387 0.0
H172 H 0.32947 0.18682 0.73167 0.0
H173 H 0.36104 0.15401 0.68829 0.0
O174 O 0.88377 0.43416 0.74951 0.0
Tb175 Tb 0.89515 0.42539 0.72048 0.0
Eu176 Eu 0.87554 0.39818 0.68141 0.0
C177 C 0.86486 0.43369 0.75386 0.0
O178 O 0.85296 0.42408 0.74223 0.0
C179 C 0.86779 0.44104 0.68885 0.0
O180 O 0.87058 0.38039 0.65415 0.0
C181 C 0.85353 0.38724 0.71021 0.0
C182 C 0.88472 0.37926 0.64116 0.0
O183 O 0.90139 0.38811 0.64482 0.0
C184 C 0.9173 0.38838 0.70147 0.0
C185 C 0.84775 0.36922 0.72017 0.0
C186 C 0.83942 0.37055 0.7388 0.0
C187 C 0.83199 0.35383 0.74815 0.0
C188 C 0.83392 0.33558 0.7388 0.0
C189 C 0.84265 0.33403 0.72025 0.0
C190 C 0.84953 0.35099 0.71095 0.0
O191 O 0.86762 0.43341 0.70649 0.0
O192 O 0.87297 0.42979 0.67434 0.0
O193 O 0.91552 0.44877 0.72751 0.0
O194 O 0.90973 0.44219 0.69757 0.0
C195 C 0.91918 0.45359 0.70948 0.0
O196 O 0.90684 0.38958 0.68533 0.0
O197 O 0.91247 0.39776 0.71796 0.0
O198 O 0.847 0.38954 0.69224 0.0
O199 O 0.87182 0.39257 0.71251 0.0
H200 H 0.83822 0.38477 0.74572 0.0
H201 H 0.82743 0.32265 0.74532 0.0
H202 H 0.8559 0.35007 0.69644 0.0
O203 O 0.57939 0.86897 0.73992 0.0
Tb204 Tb 0.58495 0.88684 0.71345 0.0
Eu205 Eu 0.61224 0.86366 0.67691 0.0
C206 C 0.57048 0.87511 0.75601 0.0
O207 O 0.56892 0.89398 0.75932 0.0
C208 C 0.56851 0.86079 0.68097 0.0
O209 O 0.62964 0.85311 0.65117 0.0
C210 C 0.61895 0.84397 0.70866 0.0
C211 C 0.64788 0.8582 0.6479 0.0
O212 O 0.65724 0.86888 0.66086 0.0
C213 C 0.62279 0.90697 0.69254 0.0
C214 C 0.63597 0.83768 0.72002 0.0
C215 C 0.63327 0.83108 0.73923 0.0
C216 C 0.64923 0.82421 0.75021 0.0
C217 C 0.66798 0.82451 0.74175 0.0
C218 C 0.67084 0.8308 0.72235 0.0
C219 C 0.65471 0.83765 0.71162 0.0
O220 O 0.57487 0.86025 0.69905 0.0
O221 O 0.58124 0.86419 0.66726 0.0
O222 O 0.56311 0.90781 0.72326 0.0
O223 O 0.56573 0.90157 0.69274 0.0
C224 C 0.55617 0.91142 0.70588 0.0
O225 O 0.62311 0.89441 0.67791 0.0
O226 O 0.61248 0.90404 0.70894 0.0
O227 O 0.61673 0.83572 0.69144 0.0
O228 O 0.61561 0.86287 0.70854 0.0
H229 H 0.61868 0.83095 0.74546 0.0
H230 H 0.68033 0.81898 0.75002 0.0
H231 H 0.65651 0.84225 0.69654 0.0
O232 O 0.26392 0.11951 0.44229 0.0
Tb233 Tb 0.29339 0.11178 0.43156 0.0
Eu234 Eu 0.32881 0.13435 0.40448 0.0
C235 C 0.25568 0.1367 0.4387 0.0
O236 O 0.26311 0.1479 0.42496 0.0
C237 C 0.31958 0.14431 0.44661 0.0
O238 O 0.35724 0.14192 0.38985 0.0
C239 C 0.2994 0.1544 0.39119 0.0
C240 C 0.36122 0.13734 0.37162 0.0
O241 O 0.34789 0.12859 0.36089 0.0
C242 C 0.31326 0.09094 0.39459 0.0
C243 C 0.28955 0.1581 0.37253 0.0
C244 C 0.27152 0.1679 0.37244 0.0
C245 C 0.26249 0.17289 0.35466 0.0
C246 C 0.27163 0.16767 0.33701 0.0
C247 C 0.28986 0.15814 0.33695 0.0
C248 C 0.29866 0.15319 0.35482 0.0
O249 O 0.30211 0.14146 0.4392 0.0
O250 O 0.33465 0.13928 0.43607 0.0
O251 O 0.29113 0.09086 0.45541 0.0
O252 O 0.31942 0.10068 0.4465 0.0
C253 C 0.30985 0.08969 0.45873 0.0
O254 O 0.32838 0.10289 0.39548 0.0
O255 O 0.29648 0.09463 0.40397 0.0
O256 O 0.31719 0.16152 0.39281 0.0
O257 O 0.29761 0.13665 0.39836 0.0
H258 H 0.2648 0.17209 0.38618 0.0
H259 H 0.26528 0.17244 0.32325 0.0
H260 H 0.31287 0.14613 0.35497 0.0
O261 O 0.87908 0.26798 0.43261 0.0
Tb262 Tb 0.88912 0.29713 0.42288 0.0
Eu263 Eu 0.86978 0.337 0.39741 0.0
C264 C 0.86079 0.2619 0.43066 0.0
O265 O 0.84887 0.27171 0.41917 0.0
C266 C 0.86114 0.32719 0.44026 0.0
O267 O 0.86687 0.36759 0.38562 0.0
C268 C 0.84435 0.31288 0.38304 0.0
C269 C 0.86941 0.3719 0.36706 0.0
O270 O 0.87318 0.35783 0.35451 0.0
C271 C 0.91012 0.3156 0.38505 0.0
C272 C 0.83931 0.30301 0.36464 0.0
C273 C 0.83245 0.28367 0.36547 0.0
C274 C 0.8268 0.27391 0.34834 0.0
C275 C 0.82835 0.28359 0.3303 0.0
C276 C 0.83472 0.3031 0.32931 0.0
C277 C 0.84027 0.31278 0.34654 0.0
O278 O 0.86143 0.30952 0.43272 0.0
O279 O 0.86691 0.34182 0.42942 0.0
O280 O 0.91101 0.29038 0.44491 0.0
O281 O 0.90453 0.3203 0.43866 0.0
C282 C 0.91491 0.30845 0.44938 0.0
O283 O 0.90019 0.33208 0.3865 0.0
O284 O 0.90489 0.29921 0.39441 0.0
O285 O 0.84158 0.33192 0.38378 0.0
O286 O 0.86053 0.30705 0.39171 0.0
H287 H 0.83112 0.27636 0.3795 0.0
H288 H 0.82324 0.2764 0.31711 0.0
H289 H 0.84498 0.32792 0.34585 0.0
O290 O 0.75161 0.88383 0.43476 0.0
Tb291 Tb 0.72249 0.89296 0.42409 0.0
Eu292 Eu 0.68303 0.87078 0.404 0.0
C293 C 0.75736 0.86539 0.43299 0.0
O294 O 0.74749 0.85394 0.42113 0.0
C295 C 0.69538 0.86457 0.44663 0.0
O296 O 0.65289 0.86511 0.39231 0.0
C297 C 0.7086 0.84706 0.38915 0.0
C298 C 0.64875 0.86723 0.37365 0.0
O299 O 0.66263 0.87251 0.36144 0.0
C300 C 0.70155 0.90978 0.38652 0.0
C301 C 0.71773 0.84302 0.3701 0.0
C302 C 0.73786 0.83903 0.36951 0.0
C303 C 0.74707 0.83474 0.35171 0.0
C304 C 0.73595 0.83461 0.33447 0.0
C305 C 0.7156 0.83761 0.33488 0.0
C306 C 0.70661 0.84227 0.35277 0.0
O307 O 0.7127 0.86612 0.43849 0.0
O308 O 0.67979 0.86877 0.43637 0.0
O309 O 0.72735 0.92032 0.43952 0.0
O310 O 0.69846 0.9084 0.43828 0.0
C311 C 0.70909 0.92298 0.44436 0.0
O312 O 0.68525 0.9009 0.39158 0.0
O313 O 0.71881 0.90425 0.3938 0.0
O314 O 0.68999 0.84258 0.3911 0.0
O315 O 0.71336 0.86377 0.39734 0.0
H316 H 0.74631 0.83889 0.38295 0.0
H317 H 0.74306 0.83099 0.32076 0.0
H318 H 0.69092 0.84445 0.35336 0.0
O319 O 0.12479 0.75355 0.43539 0.0
Tb320 Tb 0.11489 0.72455 0.42526 0.0
Eu321 Eu 0.13533 0.68525 0.40403 0.0
C322 C 0.14351 0.75852 0.43463 0.0
O323 O 0.1555 0.74753 0.42439 0.0
C324 C 0.14097 0.69484 0.44752 0.0
O325 O 0.14154 0.6556 0.39127 0.0
C326 C 0.15961 0.71144 0.3914 0.0
C327 C 0.1377 0.65134 0.37292 0.0
O328 O 0.13024 0.66485 0.36142 0.0
C329 C 0.09716 0.70548 0.38701 0.0
C330 C 0.16391 0.7203 0.37236 0.0
C331 C 0.17235 0.73893 0.37153 0.0
C332 C 0.17732 0.74723 0.35342 0.0
C333 C 0.17391 0.73655 0.33618 0.0
C334 C 0.16555 0.71774 0.33683 0.0
C335 C 0.16011 0.70998 0.35506 0.0
O336 O 0.14036 0.71286 0.4408 0.0
O337 O 0.13594 0.68033 0.43616 0.0
O338 O 0.08804 0.73095 0.44101 0.0
O339 O 0.09769 0.70127 0.43855 0.0
C340 C 0.08405 0.71277 0.44518 0.0
O341 O 0.10564 0.68865 0.39092 0.0
O342 O 0.10326 0.72218 0.39501 0.0
O343 O 0.16422 0.69284 0.39329 0.0
O344 O 0.14249 0.71584 0.39885 0.0
H345 H 0.17527 0.74685 0.38497 0.0
H346 H 0.17902 0.74245 0.32237 0.0
H347 H 0.15343 0.69564 0.3559 0.0
O348 O 0.25957 0.89095 0.57322 0.0
Tb349 Tb 0.28821 0.89967 0.58518 0.0
Eu350 Eu 0.32628 0.87802 0.60887 0.0
C351 C 0.25305 0.87282 0.57527 0.0
O352 O 0.26199 0.86121 0.58775 0.0
C353 C 0.31671 0.87075 0.56585 0.0
O354 O 0.35525 0.87338 0.62375 0.0
C355 C 0.29992 0.85421 0.62209 0.0
C356 C 0.36819 0.88759 0.62358 0.0
O357 O 0.36374 0.90415 0.61482 0.0
C358 C 0.30624 0.91778 0.62353 0.0
C359 C 0.29103 0.84941 0.641 0.0
C360 C 0.27244 0.84076 0.64139 0.0
C361 C 0.26387 0.83545 0.65925 0.0
C362 C 0.27404 0.83901 0.67675 0.0
C363 C 0.29288 0.84722 0.67653 0.0
C364 C 0.30123 0.85263 0.65856 0.0
O365 O 0.29897 0.87212 0.57309 0.0
O366 O 0.33159 0.87562 0.57681 0.0
O367 O 0.28499 0.92614 0.5678 0.0
O368 O 0.31352 0.9141 0.57219 0.0
C369 C 0.3036 0.92832 0.5643 0.0
O370 O 0.32277 0.90844 0.62038 0.0
O371 O 0.28958 0.91228 0.61502 0.0
O372 O 0.31842 0.84932 0.61994 0.0
O373 O 0.29569 0.87157 0.61498 0.0
H374 H 0.26482 0.8378 0.62778 0.0
H375 H 0.26788 0.83397 0.69048 0.0
H376 H 0.31581 0.85889 0.6582 0.0
O377 O 0.12033 0.25784 0.57185 0.0
Tb378 Tb 0.11011 0.2863 0.58329 0.0
Eu379 Eu 0.13251 0.32439 0.60731 0.0
C380 C 0.13875 0.25202 0.57365 0.0
O381 O 0.15039 0.26171 0.58545 0.0
C382 C 0.13648 0.31697 0.56341 0.0
O383 O 0.13808 0.35261 0.62316 0.0
C384 C 0.15674 0.297 0.61729 0.0
C385 C 0.12427 0.36599 0.62268 0.0
O386 O 0.10794 0.3621 0.61328 0.0
C387 C 0.09277 0.30465 0.62244 0.0
C388 C 0.16392 0.28713 0.63494 0.0
C389 C 0.17191 0.26833 0.63313 0.0
C390 C 0.18025 0.25891 0.64935 0.0
C391 C 0.18011 0.26849 0.66753 0.0
C392 C 0.17249 0.28752 0.66952 0.0
C393 C 0.16406 0.29667 0.65315 0.0
O394 O 0.13624 0.29879 0.5697 0.0
O395 O 0.13213 0.33109 0.57552 0.0
O396 O 0.08379 0.28037 0.56645 0.0
O397 O 0.0936 0.30989 0.56948 0.0
C398 C 0.08017 0.29859 0.56213 0.0
O399 O 0.10262 0.32095 0.61985 0.0
O400 O 0.09759 0.28807 0.61331 0.0
O401 O 0.16196 0.3154 0.615 0.0
O402 O 0.13847 0.29352 0.61244 0.0
H403 H 0.17207 0.26124 0.61895 0.0
H404 H 0.18687 0.26149 0.68006 0.0
H405 H 0.15842 0.31147 0.65431 0.0
O406 O 0.74735 0.11893 0.56265 0.0
Tb407 Tb 0.7189 0.10859 0.57393 0.0
Eu408 Eu 0.68261 0.13136 0.60467 0.0
C409 C 0.75422 0.13674 0.56605 0.0
O410 O 0.74636 0.14723 0.58009 0.0
C411 C 0.6902 0.1397 0.56237 0.0
O412 O 0.65586 0.13931 0.62198 0.0
C413 C 0.71334 0.15002 0.61679 0.0
C414 C 0.65209 0.13278 0.63966 0.0
O415 O 0.66482 0.12145 0.64861 0.0
C416 C 0.69915 0.08695 0.61066 0.0
C417 C 0.7208 0.15562 0.63604 0.0
C418 C 0.73908 0.16469 0.63768 0.0
C419 C 0.74569 0.17124 0.65597 0.0
C420 C 0.73373 0.16875 0.6725 0.0
C421 C 0.7152 0.1599 0.67097 0.0
C422 C 0.70906 0.153 0.65264 0.0
O423 O 0.70727 0.13787 0.57084 0.0
O424 O 0.67514 0.13604 0.57338 0.0
O425 O 0.72189 0.08955 0.54862 0.0
O426 O 0.69332 0.09714 0.55853 0.0
C427 C 0.70323 0.0877 0.54536 0.0
O428 O 0.68395 0.09899 0.61052 0.0
O429 O 0.71583 0.09069 0.60105 0.0
O430 O 0.69708 0.1588 0.61145 0.0
O431 O 0.71335 0.13119 0.61308 0.0
H432 H 0.74796 0.16698 0.62473 0.0
H433 H 0.73835 0.17501 0.68632 0.0
H434 H 0.69486 0.14615 0.65109 0.0
O435 O 0.88513 0.74753 0.57483 0.0
Tb436 Tb 0.8962 0.71845 0.58372 0.0
Eu437 Eu 0.87686 0.67933 0.6099 0.0
C438 C 0.86632 0.75207 0.5761 0.0
O439 O 0.85492 0.74089 0.58681 0.0
C440 C 0.8683 0.68799 0.56713 0.0
O441 O 0.87187 0.64978 0.62339 0.0
C442 C 0.85365 0.70614 0.62328 0.0
C443 C 0.87569 0.64573 0.6418 0.0
O444 O 0.88218 0.65959 0.65343 0.0
C445 C 0.91805 0.69947 0.621 0.0
C446 C 0.84956 0.71619 0.64176 0.0
C447 C 0.84191 0.73521 0.64118 0.0
C448 C 0.83696 0.74491 0.65854 0.0
C449 C 0.83996 0.73544 0.67654 0.0
C450 C 0.84724 0.71621 0.67732 0.0
C451 C 0.85228 0.70673 0.65982 0.0
O452 O 0.86843 0.70553 0.5749 0.0
O453 O 0.8738 0.67338 0.5781 0.0
O454 O 0.91702 0.725 0.56061 0.0
O455 O 0.91069 0.69517 0.56737 0.0
C456 C 0.92049 0.70685 0.55601 0.0
O457 O 0.90773 0.68321 0.61988 0.0
O458 O 0.91301 0.71592 0.61162 0.0
O459 O 0.84885 0.68752 0.62238 0.0
O460 O 0.87058 0.71012 0.61513 0.0
H461 H 0.83929 0.74227 0.62719 0.0
H462 H 0.83507 0.74249 0.68989 0.0
H463 H 0.85778 0.69184 0.66021 0.0
O464 O 0.42543 0.25908 0.13528 0.0
Tb465 Tb 0.41649 0.2849 0.11781 0.0
Eu466 Eu 0.39274 0.32516 0.13726 0.0
C467 C 0.44464 0.25666 0.13707 0.0
O468 O 0.45592 0.26863 0.12712 0.0
C469 C 0.43702 0.3207 0.13667 0.0
O470 O 0.37455 0.35181 0.1436 0.0
C471 C 0.38537 0.29673 0.16114 0.0
C472 C 0.37258 0.36472 0.12947 0.0
O473 O 0.38107 0.36124 0.11258 0.0
C474 C 0.37845 0.30447 0.09762 0.0
C475 C 0.36692 0.28824 0.1678 0.0
C476 C 0.36656 0.26962 0.17633 0.0
C477 C 0.34871 0.26142 0.18228 0.0
C478 C 0.33133 0.27222 0.17996 0.0
C479 C 0.33157 0.29103 0.17156 0.0
C480 C 0.34947 0.29869 0.16508 0.0
O481 O 0.43148 0.30256 0.14003 0.0
O482 O 0.42368 0.33385 0.13311 0.0
O483 O 0.43229 0.27058 0.09429 0.0
O484 O 0.43426 0.3017 0.09761 0.0
C485 C 0.43988 0.28665 0.08744 0.0
O486 O 0.38 0.32077 0.10764 0.0
O487 O 0.38751 0.28796 0.10289 0.0
O488 O 0.38883 0.31475 0.16705 0.0
O489 O 0.38911 0.29401 0.14253 0.0
H490 H 0.38009 0.26152 0.17824 0.0
H491 H 0.31778 0.2663 0.18568 0.0
H492 H 0.34995 0.31293 0.15807 0.0
O493 O 0.43517 0.74443 0.88059 0.0
Tb494 Tb 0.42677 0.71551 0.89267 0.0
Eu495 Eu 0.40332 0.67638 0.87133 0.0
C496 C 0.43548 0.74765 0.86144 0.0
O497 O 0.42605 0.73545 0.85 0.0
C498 C 0.44656 0.68487 0.8662 0.0
O499 O 0.38779 0.64835 0.86415 0.0
C500 C 0.39174 0.70514 0.8494 0.0
C501 C 0.36929 0.64538 0.86847 0.0
O502 O 0.35914 0.65941 0.87685 0.0
C503 C 0.39043 0.69387 0.91309 0.0
C504 C 0.37337 0.71476 0.84391 0.0
C505 C 0.3739 0.7341 0.83704 0.0
C506 C 0.35657 0.74366 0.83164 0.0
C507 C 0.33871 0.73367 0.83325 0.0
C508 C 0.33803 0.71397 0.8392 0.0
C509 C 0.35547 0.70469 0.84494 0.0
O510 O 0.43899 0.70253 0.86613 0.0
O511 O 0.4352 0.67012 0.8703 0.0
O512 O 0.4471 0.72414 0.91555 0.0
O513 O 0.444 0.69383 0.90852 0.0
C514 C 0.45306 0.70646 0.91947 0.0
O515 O 0.39323 0.67815 0.90231 0.0
O516 O 0.39826 0.71116 0.90827 0.0
O517 O 0.39442 0.68726 0.84281 0.0
O518 O 0.39722 0.70742 0.86766 0.0
H519 H 0.38779 0.74164 0.83567 0.0
H520 H 0.32535 0.74105 0.82886 0.0
H521 H 0.3553 0.68949 0.84945 0.0
O522 O 0.25774 0.43276 0.88362 0.0
Tb523 Tb 0.28566 0.42613 0.89866 0.0
Eu524 Eu 0.32315 0.40241 0.87701 0.0
C525 C 0.24487 0.44614 0.88931 0.0
O526 O 0.2455 0.4528 0.9073 0.0
C527 C 0.31399 0.44495 0.86956 0.0
O528 O 0.35165 0.38819 0.86893 0.0
C529 C 0.2944 0.39105 0.85498 0.0
C530 C 0.35562 0.36966 0.87232 0.0
O531 O 0.34221 0.35834 0.88017 0.0
C532 C 0.30592 0.3888 0.91855 0.0
C533 C 0.28538 0.37272 0.84855 0.0
C534 C 0.26605 0.37295 0.84158 0.0
C535 C 0.25769 0.35587 0.83391 0.0
C536 C 0.26886 0.33866 0.8331 0.0
C537 C 0.2884 0.33848 0.8394 0.0
C538 C 0.29644 0.35541 0.84768 0.0
O539 O 0.29645 0.43725 0.87072 0.0
O540 O 0.32886 0.43435 0.87509 0.0
O541 O 0.28096 0.44822 0.92107 0.0
O542 O 0.31012 0.44178 0.91167 0.0
C543 C 0.29942 0.45258 0.92308 0.0
O544 O 0.32168 0.39108 0.90768 0.0
O545 O 0.289 0.39764 0.91425 0.0
O546 O 0.31213 0.39449 0.84836 0.0
O547 O 0.29218 0.39557 0.87349 0.0
H548 H 0.25777 0.38651 0.84156 0.0
H549 H 0.26278 0.32571 0.82623 0.0
H550 H 0.31167 0.35549 0.85217 0.0
O551 O 0.57978 0.26176 0.87521 0.0
Tb552 Tb 0.58469 0.29082 0.88848 0.0
Eu553 Eu 0.60244 0.33168 0.86762 0.0
C554 C 0.57659 0.25946 0.85622 0.0
O555 O 0.58074 0.27391 0.84426 0.0
C556 C 0.55901 0.32153 0.86668 0.0
O557 O 0.617 0.35968 0.85854 0.0
C558 C 0.61263 0.30293 0.84509 0.0
C559 C 0.63574 0.36259 0.86176 0.0
O560 O 0.64614 0.34877 0.87018 0.0
C561 C 0.62009 0.31531 0.90769 0.0
C562 C 0.63094 0.29462 0.8379 0.0
C563 C 0.63081 0.27666 0.82813 0.0
C564 C 0.64828 0.26869 0.82082 0.0
C565 C 0.66589 0.27902 0.82358 0.0
C566 C 0.66617 0.29701 0.83359 0.0
C567 C 0.64856 0.30457 0.84088 0.0
O568 O 0.56666 0.30393 0.86543 0.0
O569 O 0.57038 0.33643 0.87034 0.0
O570 O 0.56954 0.27594 0.91195 0.0
O571 O 0.56619 0.30694 0.90865 0.0
C572 C 0.56127 0.29162 0.91883 0.0
O573 O 0.61598 0.33095 0.89726 0.0
O574 O 0.61311 0.29764 0.90315 0.0
O575 O 0.608 0.32039 0.8384 0.0
O576 O 0.60971 0.30098 0.86392 0.0
H577 H 0.61708 0.26895 0.82618 0.0
H578 H 0.67925 0.2735 0.81705 0.0
H579 H 0.64844 0.31829 0.84874 0.0
O580 O 0.75017 0.56851 0.89307 0.0
Tb581 Tb 0.72163 0.58067 0.90227 0.0
Eu582 Eu 0.68296 0.60279 0.88132 0.0
C583 C 0.75647 0.5708 0.87487 0.0
O584 O 0.74753 0.58366 0.86368 0.0
C585 C 0.69344 0.56008 0.87366 0.0
O586 O 0.65331 0.61572 0.87527 0.0
C587 C 0.70898 0.61638 0.85729 0.0
C588 C 0.64896 0.63404 0.87922 0.0
O589 O 0.66228 0.64546 0.88706 0.0
C590 C 0.70268 0.61858 0.92053 0.0
C591 C 0.71658 0.63577 0.85221 0.0
C592 C 0.73467 0.63742 0.84275 0.0
C593 C 0.74151 0.65582 0.8367 0.0
C594 C 0.72995 0.67251 0.8401 0.0
C595 C 0.71165 0.67101 0.84942 0.0
C596 C 0.70533 0.65254 0.85583 0.0
O597 O 0.71116 0.56733 0.87516 0.0
O598 O 0.67853 0.57062 0.87929 0.0
O599 O 0.72486 0.56469 0.92961 0.0
O600 O 0.6964 0.56822 0.91718 0.0
C601 C 0.70621 0.56141 0.93201 0.0
O602 O 0.68606 0.61479 0.91157 0.0
O603 O 0.71953 0.61072 0.91452 0.0
O604 O 0.69069 0.61309 0.85233 0.0
O605 O 0.71336 0.60995 0.87485 0.0
H606 H 0.74325 0.62438 0.83984 0.0
H607 H 0.7347 0.68649 0.8343 0.0
H608 H 0.69135 0.65106 0.8631 0.0
O609 O 0.57772 0.74079 0.13155 0.0
Tb610 Tb 0.58728 0.7122 0.11958 0.0
Eu611 Eu 0.60854 0.67039 0.13759 0.0
C612 C 0.57643 0.74392 0.15066 0.0
O613 O 0.58415 0.731 0.16261 0.0
C614 C 0.56478 0.6804 0.14312 0.0
O615 O 0.61892 0.63939 0.14194 0.0
C616 C 0.62117 0.6948 0.16377 0.0
C617 C 0.63742 0.6346 0.13962 0.0
O618 O 0.65019 0.64834 0.13538 0.0
C619 C 0.62523 0.69298 0.10044 0.0
C620 C 0.63775 0.70781 0.16797 0.0
C621 C 0.63372 0.7266 0.17522 0.0
C622 C 0.64894 0.73968 0.17922 0.0
C623 C 0.6683 0.73376 0.17605 0.0
C624 C 0.67272 0.71453 0.17016 0.0
C625 C 0.65727 0.70173 0.16554 0.0
O626 O 0.57177 0.69829 0.1439 0.0
O627 O 0.57621 0.66587 0.13812 0.0
O628 O 0.57142 0.72195 0.09382 0.0
O629 O 0.57273 0.69137 0.10034 0.0
C630 C 0.5663 0.70451 0.08813 0.0
O631 O 0.62135 0.6758 0.10815 0.0
O632 O 0.61743 0.70948 0.10745 0.0
O633 O 0.62403 0.67579 0.16493 0.0
O634 O 0.61021 0.7 0.1489 0.0
H635 H 0.61876 0.73098 0.1781 0.0
H636 H 0.68006 0.74383 0.17952 0.0
H637 H 0.66037 0.68687 0.16094 0.0
O638 O 0.25783 0.57494 0.12172 0.0
Tb639 Tb 0.28703 0.58563 0.11278 0.0
Eu640 Eu 0.32568 0.60647 0.1342 0.0
C641 C 0.25126 0.57691 0.13986 0.0
O642 O 0.26039 0.5889 0.15175 0.0
C643 C 0.31482 0.56355 0.14109 0.0
O644 O 0.35573 0.61763 0.14124 0.0
C645 C 0.29904 0.62026 0.15732 0.0
C646 C 0.36053 0.63614 0.13936 0.0
O647 O 0.3473 0.64885 0.13354 0.0
C648 C 0.30814 0.6227 0.09429 0.0
C649 C 0.28923 0.63883 0.16167 0.0
C650 C 0.27038 0.63835 0.16966 0.0
C651 C 0.26124 0.65563 0.176 0.0
C652 C 0.27102 0.67357 0.17335 0.0
C653 C 0.28983 0.67425 0.16506 0.0
C654 C 0.29887 0.65678 0.15921 0.0
O655 O 0.29701 0.57062 0.13934 0.0
O656 O 0.32976 0.57435 0.13617 0.0
O657 O 0.28146 0.56937 0.08612 0.0
O658 O 0.31069 0.57101 0.09722 0.0
C659 C 0.29964 0.56443 0.08318 0.0
O660 O 0.3242 0.61839 0.10396 0.0
O661 O 0.29083 0.61541 0.09976 0.0
O662 O 0.31761 0.619 0.16219 0.0
O663 O 0.29498 0.61231 0.14033 0.0
H664 H 0.26316 0.62436 0.17157 0.0
H665 H 0.26466 0.68693 0.17905 0.0
H666 H 0.31355 0.6571 0.15323 0.0
O667 O 0.74557 0.44961 0.12053 0.0
Tb668 Tb 0.72044 0.44223 0.10169 0.0
Eu669 Eu 0.67712 0.39105 0.11248 0.0
C670 C 0.76016 0.46104 0.11498 0.0
O671 O 0.76181 0.46577 0.09642 0.0
C672 C 0.68864 0.4306 0.13261 0.0
O673 O 0.64621 0.38341 0.10409 0.0
C674 C 0.6955 0.36276 0.12891 0.0
C675 C 0.64036 0.36517 0.10601 0.0
O676 O 0.65326 0.35179 0.11097 0.0
C677 C 0.70619 0.40891 0.07717 0.0
C678 C 0.70609 0.34673 0.13833 0.0
C679 C 0.72243 0.35068 0.15008 0.0
C680 C 0.73209 0.33536 0.15974 0.0
C681 C 0.72484 0.31621 0.15812 0.0
C682 C 0.70803 0.31218 0.14694 0.0
C683 C 0.69906 0.32754 0.13659 0.0
O684 O 0.70551 0.42558 0.1247 0.0
O685 O 0.67436 0.41758 0.13225 0.0
O686 O 0.72054 0.47266 0.09197 0.0
O687 O 0.69332 0.45872 0.09752 0.0
C688 C 0.70166 0.47498 0.09235 0.0
O689 O 0.69744 0.40904 0.09415 0.0
O690 O 0.7199 0.4225 0.07582 0.0
O691 O 0.69405 0.36412 0.10972 0.0
O692 O 0.68687 0.3766 0.13916 0.0
H693 H 0.72762 0.3656 0.15168 0.0
H694 H 0.73163 0.30468 0.16668 0.0
H695 H 0.68614 0.32476 0.12781 0.0
C696 C 0.13801 0.38052 0.39702 0.0
C697 C 0.13368 0.36731 0.38187 0.0
C698 C 0.13964 0.37403 0.41629 0.0
C699 C 0.14807 0.33073 0.44714 0.0
H700 H 0.12153 0.36191 0.48642 0.0
C701 C 0.13876 0.30664 0.5283 0.0
C702 C 0.13981 0.32144 0.54254 0.0
C703 C 0.13938 0.31139 0.50838 0.0
C704 C 0.12927 0.35317 0.4757 0.0
H705 H 0.12822 0.33678 0.37503 0.0
H706 H 0.13106 0.32541 0.40891 0.0
H707 H 0.11984 0.37162 0.45224 0.0
H708 H 0.14348 0.35264 0.54715 0.0
H709 H 0.14504 0.36085 0.51257 0.0
H710 H 0.15758 0.31231 0.47075 0.0
C711 C 0.13322 0.34081 0.40574 0.0
C712 C 0.12825 0.35872 0.45609 0.0
C713 C 0.13149 0.34733 0.38639 0.0
C714 C 0.14243 0.34092 0.53653 0.0
C715 C 0.14318 0.34564 0.51669 0.0
C716 C 0.14917 0.32519 0.46685 0.0
C717 C 0.13704 0.35416 0.42091 0.0
C718 C 0.13776 0.34768 0.44162 0.0
C719 C 0.14115 0.33102 0.50237 0.0
C720 C 0.13992 0.33648 0.48136 0.0
H721 H 0.13991 0.39599 0.39406 0.0
H722 H 0.14291 0.38461 0.42763 0.0
H723 H 0.15564 0.322 0.43629 0.0
H724 H 0.13666 0.29148 0.53251 0.0
H725 H 0.13768 0.29979 0.49773 0.0
C726 C 0.64254 0.13677 0.39417 0.0
C727 C 0.64812 0.12155 0.38154 0.0
C728 C 0.651 0.13845 0.41269 0.0
C729 C 0.67165 0.10934 0.45157 0.0
H730 H 0.68945 0.15918 0.47221 0.0
C731 C 0.67099 0.13005 0.53285 0.0
C732 C 0.68835 0.13757 0.54095 0.0
C733 C 0.6695 0.1268 0.51279 0.0
C734 C 0.68478 0.14513 0.46653 0.0
H735 H 0.66703 0.09622 0.37829 0.0
H736 H 0.68145 0.09889 0.41102 0.0
H737 H 0.68058 0.15646 0.43756 0.0
H738 H 0.71769 0.1477 0.53441 0.0
H739 H 0.71465 0.14286 0.4989 0.0
H740 H 0.67488 0.09829 0.4808 0.0
C741 C 0.67069 0.10961 0.40641 0.0
C742 C 0.6796 0.14361 0.44681 0.0
C743 C 0.66248 0.10814 0.38771 0.0
C744 C 0.70412 0.142 0.52852 0.0
C745 C 0.70243 0.13917 0.5083 0.0
C746 C 0.67651 0.11095 0.47136 0.0
C747 C 0.66496 0.12476 0.41906 0.0
C748 C 0.67265 0.1258 0.43926 0.0
C749 C 0.68514 0.13142 0.50035 0.0
C750 C 0.68276 0.12896 0.47904 0.0
H751 H 0.63157 0.14736 0.38977 0.0
H752 H 0.64619 0.15014 0.42226 0.0
H753 H 0.66623 0.09548 0.44611 0.0
H754 H 0.65863 0.12631 0.54203 0.0
H755 H 0.65596 0.12099 0.50693 0.0
C756 C 0.90576 0.65185 0.39687 0.0
C757 C 0.88964 0.64962 0.3843 0.0
C758 C 0.90319 0.65882 0.41588 0.0
C759 C 0.8682 0.68326 0.44953 0.0
H760 H 0.8962 0.65334 0.48888 0.0
C761 C 0.86825 0.7015 0.53293 0.0
C762 C 0.8673 0.68536 0.54569 0.0
C763 C 0.87006 0.69862 0.51272 0.0
C764 C 0.88819 0.66177 0.47809 0.0
H765 H 0.85829 0.65387 0.38149 0.0
H766 H 0.85375 0.66575 0.41487 0.0
H767 H 0.90156 0.64636 0.45446 0.0
H768 H 0.86643 0.65364 0.54725 0.0
H769 H 0.8693 0.64868 0.51214 0.0
H770 H 0.85447 0.69832 0.47342 0.0
C771 C 0.86841 0.66229 0.40994 0.0
C772 C 0.89147 0.65796 0.45833 0.0
C773 C 0.87101 0.6554 0.39084 0.0
C774 C 0.86729 0.66638 0.53782 0.0
C775 C 0.86907 0.66352 0.51771 0.0
C776 C 0.86494 0.68712 0.46939 0.0
C777 C 0.88442 0.66362 0.42283 0.0
C778 C 0.88145 0.66856 0.44379 0.0
C779 C 0.87095 0.67957 0.50497 0.0
C780 C 0.87474 0.67623 0.48386 0.0
H781 H 0.92035 0.64776 0.3922 0.0
H782 H 0.91588 0.66007 0.4253 0.0
H783 H 0.86037 0.69178 0.43867 0.0
H784 H 0.86838 0.71631 0.53858 0.0
H785 H 0.87154 0.71127 0.50326 0.0
C786 C 0.34139 0.86757 0.38835 0.0
C787 C 0.36111 0.86356 0.38412 0.0
C788 C 0.33424 0.8654 0.40744 0.0
C789 C 0.34677 0.84357 0.45601 0.0
H790 H 0.31249 0.88414 0.47604 0.0
C791 C 0.33852 0.86165 0.53794 0.0
C792 C 0.31964 0.86558 0.54508 0.0
C793 C 0.3416 0.85866 0.51796 0.0
C794 C 0.32182 0.87254 0.47057 0.0
H795 H 0.38874 0.85391 0.39656 0.0
H796 H 0.37651 0.85066 0.42966 0.0
H797 H 0.32137 0.88412 0.44149 0.0
H798 H 0.28911 0.86903 0.53696 0.0
H799 H 0.2946 0.86403 0.50197 0.0
H800 H 0.34786 0.83257 0.48537 0.0
C801 C 0.36636 0.85502 0.41829 0.0
C802 C 0.32688 0.87248 0.45075 0.0
C803 C 0.37343 0.85703 0.39926 0.0
C804 C 0.30383 0.86596 0.53191 0.0
C805 C 0.30696 0.86322 0.51188 0.0
C806 C 0.34188 0.84377 0.47585 0.0
C807 C 0.34671 0.85928 0.42269 0.0
C808 C 0.3397 0.85819 0.44328 0.0
C809 C 0.32591 0.85977 0.5047 0.0
C810 C 0.3296 0.85843 0.48338 0.0
H811 H 0.33151 0.87252 0.37697 0.0
H812 H 0.31897 0.86857 0.41024 0.0
H813 H 0.35632 0.83209 0.4507 0.0
H814 H 0.35099 0.86128 0.54773 0.0
H815 H 0.35639 0.8562 0.5128 0.0
C816 C 0.15347 0.6357 0.61498 0.0
C817 C 0.14723 0.64877 0.62958 0.0
C818 C 0.15516 0.64186 0.59561 0.0
C819 C 0.15955 0.68452 0.56322 0.0
H820 H 0.13445 0.65025 0.5256 0.0
C821 C 0.14518 0.70597 0.48216 0.0
C822 C 0.14611 0.69096 0.46813 0.0
C823 C 0.14739 0.70166 0.50206 0.0
C824 C 0.14184 0.65984 0.53582 0.0
H825 H 0.13877 0.67882 0.63545 0.0
H826 H 0.14179 0.68961 0.60137 0.0
H827 H 0.13457 0.64142 0.56003 0.0
H828 H 0.15139 0.65997 0.46375 0.0
H829 H 0.15586 0.65256 0.49827 0.0
H830 H 0.16691 0.70292 0.53887 0.0
C831 C 0.14534 0.67459 0.60505 0.0
C832 C 0.14183 0.6548 0.55558 0.0
C833 C 0.14354 0.66839 0.62451 0.0
C834 C 0.15036 0.6718 0.47425 0.0
C835 C 0.15278 0.66754 0.49406 0.0
C836 C 0.1597 0.68952 0.54334 0.0
C837 C 0.15074 0.66124 0.59037 0.0
C838 C 0.15076 0.66701 0.56947 0.0
C839 C 0.15073 0.68229 0.50826 0.0
C840 C 0.15092 0.67716 0.5294 0.0
H841 H 0.15661 0.62053 0.61838 0.0
H842 H 0.15967 0.63133 0.58465 0.0
H843 H 0.16661 0.69414 0.57365 0.0
H844 H 0.14185 0.72088 0.47787 0.0
H845 H 0.14561 0.71335 0.5126 0.0
C846 C 0.37944 0.14602 0.61173 0.0
C847 C 0.36724 0.13974 0.62703 0.0
C848 C 0.37181 0.14944 0.5931 0.0
C849 C 0.33075 0.1359 0.56116 0.0
H850 H 0.35093 0.17809 0.52894 0.0
C851 C 0.30649 0.14671 0.48078 0.0
C852 C 0.32215 0.14869 0.46759 0.0
C853 C 0.30969 0.14837 0.50094 0.0
C854 C 0.34516 0.16624 0.53777 0.0
H855 H 0.33732 0.1326 0.63491 0.0
H856 H 0.32394 0.1387 0.60229 0.0
H857 H 0.36074 0.17575 0.56319 0.0
H858 H 0.35319 0.15478 0.46504 0.0
H859 H 0.35873 0.15779 0.50008 0.0
H860 H 0.31551 0.12615 0.53557 0.0
C861 C 0.33948 0.14073 0.60469 0.0
C862 C 0.3508 0.16487 0.55736 0.0
C863 C 0.34714 0.13729 0.62338 0.0
C864 C 0.34084 0.15319 0.47485 0.0
C865 C 0.34399 0.15501 0.49493 0.0
C866 C 0.32506 0.1373 0.54155 0.0
C867 C 0.35176 0.14673 0.58931 0.0
C868 C 0.34403 0.14943 0.56916 0.0
C869 C 0.32855 0.15226 0.50821 0.0
C870 C 0.33255 0.15224 0.52955 0.0
H871 H 0.395 0.14802 0.61403 0.0
H872 H 0.38174 0.15375 0.58152 0.0
H873 H 0.32543 0.1237 0.56979 0.0
H874 H 0.29193 0.14315 0.4756 0.0
H875 H 0.29749 0.14631 0.51084 0.0
C876 C 0.89721 0.36786 0.60879 0.0
C877 C 0.88155 0.36976 0.62197 0.0
C878 C 0.89408 0.36078 0.58991 0.0
C879 C 0.85907 0.33479 0.55775 0.0
H880 H 0.88449 0.36541 0.51727 0.0
C881 C 0.8605 0.31445 0.47475 0.0
C882 C 0.85884 0.33017 0.46154 0.0
C883 C 0.86154 0.31796 0.49492 0.0
C884 C 0.87717 0.35678 0.52838 0.0
H885 H 0.85045 0.36483 0.62598 0.0
H886 H 0.84492 0.35265 0.59279 0.0
H887 H 0.8902 0.37333 0.55143 0.0
H888 H 0.85559 0.36167 0.45911 0.0
H889 H 0.8571 0.36771 0.49414 0.0
H890 H 0.84581 0.31844 0.53442 0.0
C891 C 0.85966 0.35652 0.59716 0.0
C892 C 0.88065 0.36116 0.54798 0.0
C893 C 0.86281 0.36358 0.61614 0.0
C894 C 0.85709 0.34927 0.4689 0.0
C895 C 0.85807 0.35275 0.48897 0.0
C896 C 0.85564 0.33034 0.53803 0.0
C897 C 0.87519 0.3555 0.58371 0.0
C898 C 0.87164 0.35026 0.56291 0.0
C899 C 0.86091 0.33722 0.50216 0.0
C900 C 0.86454 0.34143 0.52315 0.0
H901 H 0.91189 0.37225 0.61289 0.0
H902 H 0.90643 0.35978 0.58003 0.0
H903 H 0.852 0.32606 0.56894 0.0
H904 H 0.86197 0.29956 0.46948 0.0
H905 H 0.86378 0.3057 0.50475 0.0
C906 C 0.64509 0.84546 0.61383 0.0
C907 C 0.65668 0.85385 0.62861 0.0
C908 C 0.65237 0.8432 0.59493 0.0
C909 C 0.68976 0.86363 0.56183 0.0
H910 H 0.671 0.82239 0.52763 0.0
C911 C 0.71005 0.85966 0.4798 0.0
C912 C 0.69365 0.85881 0.46738 0.0
C913 C 0.70804 0.85624 0.49987 0.0
C914 C 0.6764 0.83394 0.53705 0.0
H915 H 0.68539 0.86552 0.63535 0.0
H916 H 0.69838 0.86106 0.60231 0.0
H917 H 0.66384 0.82095 0.56258 0.0
H918 H 0.66248 0.85293 0.46608 0.0
H919 H 0.65908 0.84661 0.50109 0.0
H920 H 0.70227 0.87658 0.53615 0.0
C921 C 0.68344 0.85669 0.60528 0.0
C922 C 0.67224 0.8332 0.55705 0.0
C923 C 0.67606 0.85913 0.62424 0.0
C924 C 0.67537 0.85371 0.47528 0.0
C925 C 0.67344 0.85 0.49529 0.0
C926 C 0.69415 0.86422 0.54186 0.0
C927 C 0.67154 0.84903 0.59029 0.0
C928 C 0.67839 0.84832 0.56961 0.0
C929 C 0.68968 0.85159 0.50782 0.0
C930 C 0.68709 0.84963 0.52923 0.0
H931 H 0.63006 0.84126 0.61663 0.0
H932 H 0.6426 0.8376 0.58378 0.0
H933 H 0.69452 0.87568 0.57095 0.0
H934 H 0.72432 0.86361 0.47414 0.0
H935 H 0.72079 0.85747 0.50922 0.0
C936 C 0.38567 0.13763 0.34413 0.0
C937 C 0.38117 0.14082 0.36393 0.0
C938 C 0.40487 0.13998 0.33736 0.0
C939 C 0.45342 0.16081 0.35151 0.0
H940 H 0.47363 0.12176 0.31566 0.0
C941 C 0.53539 0.14242 0.34326 0.0
C942 C 0.54268 0.13936 0.32429 0.0
C943 C 0.5154 0.14545 0.3463 0.0
C944 C 0.46812 0.13295 0.32545 0.0
H945 H 0.39324 0.1492 0.3921 0.0
H946 H 0.42654 0.15273 0.38051 0.0
H947 H 0.43897 0.12165 0.32411 0.0
H948 H 0.5348 0.13755 0.29356 0.0
H949 H 0.4998 0.14261 0.29897 0.0
H950 H 0.48284 0.17149 0.35346 0.0
C951 C 0.4153 0.1489 0.37001 0.0
C952 C 0.44824 0.13293 0.33026 0.0
C953 C 0.39615 0.14672 0.37672 0.0
C954 C 0.52964 0.13992 0.30836 0.0
C955 C 0.50961 0.14269 0.31144 0.0
C956 C 0.47333 0.16067 0.34686 0.0
C957 C 0.41997 0.14544 0.35028 0.0
C958 C 0.44069 0.14667 0.34362 0.0
C959 C 0.50227 0.14524 0.33047 0.0
C960 C 0.48092 0.14656 0.33401 0.0
H961 H 0.37441 0.13319 0.33389 0.0
H962 H 0.40788 0.13746 0.32201 0.0
H963 H 0.44806 0.17188 0.3615 0.0
H964 H 0.54508 0.14206 0.35581 0.0
H965 H 0.51012 0.14722 0.36114 0.0
C966 C 0.86783 0.4076 0.37482 0.0
C967 C 0.86894 0.39264 0.36074 0.0
C968 C 0.8681 0.42723 0.3692 0.0
C969 C 0.85824 0.46059 0.32837 0.0
H970 H 0.89113 0.49615 0.35793 0.0
C971 C 0.86704 0.54291 0.30853 0.0
C972 C 0.86773 0.55609 0.3243 0.0
C973 C 0.86744 0.52269 0.31188 0.0
C974 C 0.8817 0.48647 0.34966 0.0
H975 H 0.87085 0.38662 0.32964 0.0
H976 H 0.87116 0.42113 0.31978 0.0
H977 H 0.89139 0.46134 0.36569 0.0
H978 H 0.86878 0.55844 0.35593 0.0
H979 H 0.86901 0.52331 0.36178 0.0
H980 H 0.84827 0.48583 0.31257 0.0
C981 C 0.87011 0.41753 0.33519 0.0
C982 C 0.8819 0.46652 0.35407 0.0
C983 C 0.87001 0.3978 0.34084 0.0
C984 C 0.86833 0.54867 0.34346 0.0
C985 C 0.86864 0.52851 0.3468 0.0
C986 C 0.85795 0.48063 0.32401 0.0
C987 C 0.86936 0.43243 0.34935 0.0
C988 C 0.86998 0.4534 0.34367 0.0
C989 C 0.86846 0.51527 0.33106 0.0
C990 C 0.86947 0.49383 0.33481 0.0
H991 H 0.86696 0.40418 0.39028 0.0
H992 H 0.8672 0.43838 0.38043 0.0
H993 H 0.84881 0.45082 0.32019 0.0
H994 H 0.86671 0.54818 0.29357 0.0
H995 H 0.86744 0.51289 0.29942 0.0
C996 C 0.61358 0.86007 0.38035 0.0
C997 C 0.62839 0.86458 0.36682 0.0
C998 C 0.59416 0.85852 0.37432 0.0
C999 C 0.56222 0.85066 0.33178 0.0
H1000 H 0.52362 0.876 0.36479 0.0
C1001 C 0.47955 0.8581 0.31189 0.0
C1002 C 0.46628 0.85573 0.32743 0.0
C1003 C 0.49972 0.85831 0.31548 0.0
C1004 C 0.53418 0.86865 0.35552 0.0
H1005 H 0.63449 0.87042 0.33621 0.0
H1006 H 0.60034 0.86773 0.32566 0.0
H1007 H 0.55813 0.87822 0.37319 0.0
H1008 H 0.46366 0.85059 0.35864 0.0
H1009 H 0.49872 0.85055 0.36481 0.0
H1010 H 0.53808 0.84102 0.31416 0.0
C1011 C 0.60388 0.86538 0.34094 0.0
C1012 C 0.55396 0.86996 0.36032 0.0
C1013 C 0.62339 0.867 0.34699 0.0
C1014 C 0.47353 0.85263 0.3464 0.0
C1015 C 0.49361 0.85276 0.34995 0.0
C1016 C 0.54234 0.84932 0.32697 0.0
C1017 C 0.58904 0.86141 0.35462 0.0
C1018 C 0.56818 0.86075 0.34869 0.0
C1019 C 0.50692 0.85609 0.33464 0.0
C1020 C 0.52811 0.85806 0.33898 0.0
H1021 H 0.61692 0.85797 0.39571 0.0
H1022 H 0.5831 0.8551 0.38515 0.0
H1023 H 0.57287 0.84337 0.32258 0.0
H1024 H 0.47436 0.86062 0.29711 0.0
H1025 H 0.50962 0.86098 0.30339 0.0
C1026 C 0.13706 0.62614 0.34615 0.0
C1027 C 0.14069 0.63111 0.36578 0.0
C1028 C 0.13878 0.6067 0.3399 0.0
C1029 C 0.1357 0.5568 0.35928 0.0
H1030 H 0.16068 0.54114 0.31081 0.0
C1031 C 0.14547 0.4758 0.34131 0.0
C1032 C 0.14106 0.46984 0.32217 0.0
C1033 C 0.14764 0.49561 0.34574 0.0
C1034 C 0.1535 0.54531 0.3243 0.0
H1035 H 0.14966 0.61968 0.39407 0.0
H1036 H 0.1526 0.58593 0.38318 0.0
H1037 H 0.15996 0.57578 0.32003 0.0
H1038 H 0.1363 0.47984 0.29241 0.0
H1039 H 0.13967 0.51458 0.30022 0.0
H1040 H 0.12883 0.52664 0.36351 0.0
C1041 C 0.14822 0.59699 0.37266 0.0
C1042 C 0.15311 0.56512 0.32957 0.0
C1043 C 0.14661 0.61637 0.37887 0.0
C1044 C 0.13977 0.48402 0.30731 0.0
C1045 C 0.14174 0.50392 0.31178 0.0
C1046 C 0.13599 0.53711 0.35399 0.0
C1047 C 0.14403 0.59188 0.3532 0.0
C1048 C 0.14433 0.57102 0.3472 0.0
C1049 C 0.14518 0.50996 0.33116 0.0
C1050 C 0.14503 0.53106 0.33653 0.0
H1051 H 0.13257 0.63719 0.33568 0.0
H1052 H 0.13539 0.60316 0.32482 0.0
H1053 H 0.12845 0.56095 0.37276 0.0
H1054 H 0.14678 0.46519 0.35304 0.0
H1055 H 0.15082 0.49969 0.36071 0.0
C1056 C 0.541 0.86095 0.65699 0.0
C1057 C 0.54736 0.86102 0.67652 0.0
C1058 C 0.5212 0.86313 0.65253 0.0
C1059 C 0.47131 0.86017 0.67306 0.0
H1060 H 0.45905 0.89459 0.62956 0.0
C1061 C 0.39391 0.86626 0.63884 0.0
C1062 C 0.38784 0.88478 0.6322 0.0
C1063 C 0.41296 0.86345 0.64579 0.0
C1064 C 0.46217 0.88511 0.64189 0.0
H1065 H 0.53794 0.86295 0.70677 0.0
H1066 H 0.50327 0.86698 0.69895 0.0
H1067 H 0.49299 0.88929 0.63877 0.0
H1068 H 0.39668 0.91506 0.62848 0.0
H1069 H 0.42972 0.91024 0.6409 0.0
H1070 H 0.44036 0.85631 0.67635 0.0
C1071 C 0.51359 0.865 0.68709 0.0
C1072 C 0.48166 0.88184 0.64699 0.0
C1073 C 0.53345 0.86272 0.69157 0.0
C1074 C 0.40097 0.90056 0.63327 0.0
C1075 C 0.41995 0.89777 0.64031 0.0
C1076 C 0.45174 0.86346 0.66796 0.0
C1077 C 0.50731 0.86554 0.6675 0.0
C1078 C 0.48648 0.86922 0.66253 0.0
C1079 C 0.42629 0.87912 0.64632 0.0
C1080 C 0.44697 0.87593 0.65226 0.0
H1081 H 0.55136 0.85955 0.64507 0.0
H1082 H 0.51679 0.86309 0.6373 0.0
H1083 H 0.47456 0.8503 0.68505 0.0
H1084 H 0.38411 0.85381 0.63821 0.0
H1085 H 0.41742 0.84886 0.65015 0.0
C1086 C 0.11175 0.39899 0.63199 0.0
C1087 C 0.12726 0.38549 0.6315 0.0
C1088 C 0.11468 0.4179 0.63907 0.0
C1089 C 0.14781 0.44885 0.66847 0.0
H1090 H 0.12325 0.49056 0.63872 0.0
C1091 C 0.14082 0.52878 0.69608 0.0
C1092 C 0.1418 0.54387 0.68211 0.0
C1093 C 0.1415 0.50918 0.69024 0.0
C1094 C 0.13044 0.47914 0.64707 0.0
H1095 H 0.15788 0.38103 0.63861 0.0
H1096 H 0.16309 0.41428 0.65077 0.0
H1097 H 0.11941 0.45687 0.62816 0.0
H1098 H 0.14551 0.55029 0.65124 0.0
H1099 H 0.14713 0.51619 0.64112 0.0
H1100 H 0.15906 0.47132 0.68724 0.0
C1101 C 0.14861 0.41013 0.64582 0.0
C1102 C 0.12798 0.45977 0.64118 0.0
C1103 C 0.14565 0.39112 0.63878 0.0
C1104 C 0.1445 0.539 0.66234 0.0
C1105 C 0.14532 0.51945 0.65652 0.0
C1106 C 0.1503 0.46831 0.67438 0.0
C1107 C 0.13322 0.42381 0.64573 0.0
C1108 C 0.13647 0.44438 0.65189 0.0
C1109 C 0.14327 0.50431 0.67033 0.0
C1110 C 0.14156 0.48366 0.66377 0.0
H1111 H 0.09733 0.39505 0.62669 0.0
H1112 H 0.1024 0.42795 0.63921 0.0
H1113 H 0.15446 0.4373 0.67708 0.0
H1114 H 0.13869 0.53208 0.71144 0.0
H1115 H 0.13975 0.49788 0.70123 0.0
C1116 C 0.62853 0.13207 0.66796 0.0
C1117 C 0.63275 0.13695 0.64843 0.0
C1118 C 0.60969 0.13502 0.67551 0.0
C1119 C 0.56211 0.15993 0.66446 0.0
H1120 H 0.54007 0.11829 0.69611 0.0
C1121 C 0.4797 0.14303 0.66939 0.0
C1122 C 0.47182 0.13942 0.68802 0.0
C1123 C 0.49985 0.1455 0.667 0.0
C1124 C 0.54613 0.13016 0.68751 0.0
H1125 H 0.62061 0.14907 0.62165 0.0
H1126 H 0.58798 0.15359 0.63449 0.0
H1127 H 0.57478 0.11755 0.68776 0.0
H1128 H 0.47878 0.1358 0.71881 0.0
H1129 H 0.51412 0.13969 0.71449 0.0
H1130 H 0.53312 0.17189 0.66335 0.0
C1131 C 0.59916 0.14798 0.64424 0.0
C1132 C 0.56603 0.12981 0.68279 0.0
C1133 C 0.61793 0.14523 0.63679 0.0
C1134 C 0.48444 0.13865 0.70428 0.0
C1135 C 0.50464 0.14078 0.70182 0.0
C1136 C 0.54218 0.16011 0.66894 0.0
C1137 C 0.5947 0.14278 0.66364 0.0
C1138 C 0.57419 0.14447 0.67082 0.0
C1139 C 0.51252 0.14408 0.68314 0.0
C1140 C 0.53395 0.14504 0.68019 0.0
H1141 H 0.6397 0.12582 0.67733 0.0
H1142 H 0.60685 0.13109 0.6906 0.0
H1143 H 0.56796 0.17173 0.65563 0.0
H1144 H 0.47033 0.1437 0.65661 0.0
H1145 H 0.5056 0.14786 0.65242 0.0
C1146 C 0.87679 0.62031 0.66849 0.0
C1147 C 0.87381 0.62528 0.64873 0.0
C1148 C 0.87585 0.60071 0.67453 0.0
C1149 C 0.88206 0.55107 0.6552 0.0
H1150 H 0.85179 0.53382 0.69999 0.0
C1151 C 0.86511 0.47004 0.66687 0.0
C1152 C 0.86643 0.46242 0.6859 0.0
C1153 C 0.86579 0.49019 0.66368 0.0
C1154 C 0.86052 0.53844 0.6876 0.0
H1155 H 0.86707 0.61363 0.61994 0.0
H1156 H 0.86556 0.5797 0.63045 0.0
H1157 H 0.85376 0.5688 0.69225 0.0
H1158 H 0.86909 0.46994 0.71663 0.0
H1159 H 0.87054 0.50529 0.71101 0.0
H1160 H 0.88896 0.52095 0.65048 0.0
C1161 C 0.86877 0.59086 0.64124 0.0
C1162 C 0.86163 0.55845 0.68318 0.0
C1163 C 0.86954 0.61035 0.63526 0.0
C1164 C 0.8679 0.47541 0.70179 0.0
C1165 C 0.86872 0.49564 0.69857 0.0
C1166 C 0.88106 0.53118 0.65966 0.0
C1167 C 0.87213 0.58579 0.66087 0.0
C1168 C 0.87211 0.56488 0.6667 0.0
C1169 C 0.86799 0.50323 0.67944 0.0
C1170 C 0.86996 0.52457 0.67567 0.0
H1171 H 0.88005 0.63149 0.67923 0.0
H1172 H 0.87852 0.59717 0.68976 0.0
H1173 H 0.89058 0.55566 0.64264 0.0
H1174 H 0.86382 0.4604 0.65435 0.0
H1175 H 0.86472 0.49555 0.6488 0.0
C1176 C 0.36034 0.39679 0.11712 0.0
C1177 C 0.36255 0.3836 0.13275 0.0
C1178 C 0.35287 0.41549 0.12031 0.0
C1179 C 0.32567 0.4472 0.15415 0.0
H1180 H 0.35732 0.48779 0.13018 0.0
C1181 C 0.30304 0.52905 0.14523 0.0
C1182 C 0.31811 0.54296 0.14675 0.0
C1183 C 0.30726 0.50905 0.14695 0.0
C1184 C 0.34844 0.47667 0.13717 0.0
H1185 H 0.3576 0.37926 0.16381 0.0
H1186 H 0.34459 0.41224 0.16941 0.0
H1187 H 0.36623 0.45368 0.12575 0.0
H1188 H 0.34896 0.54708 0.15307 0.0
H1189 H 0.3562 0.51237 0.15635 0.0
H1190 H 0.30783 0.47048 0.16552 0.0
C1191 C 0.34865 0.40798 0.1547 0.0
C1192 C 0.3534 0.45711 0.13441 0.0
C1193 C 0.35616 0.38916 0.1515 0.0
C1194 C 0.33709 0.53668 0.15153 0.0
C1195 C 0.34126 0.51679 0.15334 0.0
C1196 C 0.32059 0.4669 0.15682 0.0
C1197 C 0.34746 0.42147 0.1392 0.0
C1198 C 0.34202 0.44216 0.14272 0.0
C1199 C 0.32658 0.50275 0.15027 0.0
C1200 C 0.33197 0.48181 0.14835 0.0
H1201 H 0.36485 0.39287 0.10244 0.0
H1202 H 0.35175 0.42547 0.10802 0.0
H1203 H 0.31665 0.43592 0.16069 0.0
H1204 H 0.28826 0.53349 0.14156 0.0
H1205 H 0.29567 0.49853 0.14448 0.0
C1206 C 0.34067 0.62226 0.86881 0.0
C1207 C 0.36055 0.62589 0.86494 0.0
C1208 C 0.3329 0.60345 0.86635 0.0
C1209 C 0.34365 0.55507 0.84352 0.0
H1210 H 0.30992 0.53479 0.8844 0.0
C1211 C 0.33537 0.4731 0.86047 0.0
C1212 C 0.31663 0.46585 0.86473 0.0
C1213 C 0.33834 0.49313 0.85774 0.0
C1214 C 0.31907 0.54035 0.8727 0.0
H1215 H 0.38776 0.61269 0.85518 0.0
H1216 H 0.37441 0.58008 0.85133 0.0
H1217 H 0.31941 0.56923 0.8848 0.0
H1218 H 0.28619 0.47379 0.86916 0.0
H1219 H 0.29148 0.50896 0.8646 0.0
H1220 H 0.34398 0.52594 0.83196 0.0
C1221 C 0.36465 0.59172 0.85587 0.0
C1222 C 0.32448 0.56009 0.87289 0.0
C1223 C 0.37236 0.61046 0.85823 0.0
C1224 C 0.30079 0.47896 0.86577 0.0
C1225 C 0.30382 0.49907 0.8633 0.0
C1226 C 0.33838 0.53533 0.84344 0.0
C1227 C 0.34486 0.58792 0.86 0.0
C1228 C 0.3372 0.56759 0.85854 0.0
C1229 C 0.32266 0.50635 0.85944 0.0
C1230 C 0.32635 0.52769 0.85823 0.0
H1231 H 0.33116 0.63389 0.8739 0.0
H1232 H 0.31754 0.60107 0.86946 0.0
H1233 H 0.35311 0.56045 0.83199 0.0
H1234 H 0.34784 0.46333 0.85961 0.0
H1235 H 0.35305 0.49835 0.85498 0.0
C1236 C 0.38042 0.34242 0.87117 0.0
C1237 C 0.3756 0.36224 0.86841 0.0
C1238 C 0.39967 0.33591 0.86838 0.0
C1239 C 0.4474 0.35087 0.84647 0.0
H1240 H 0.46937 0.31507 0.88471 0.0
C1241 C 0.53016 0.34341 0.86095 0.0
C1242 C 0.53782 0.32448 0.86347 0.0
C1243 C 0.50998 0.34629 0.85925 0.0
C1244 C 0.46337 0.32486 0.87376 0.0
H1245 H 0.3872 0.39071 0.86031 0.0
H1246 H 0.42055 0.37955 0.85593 0.0
H1247 H 0.43457 0.32303 0.88592 0.0
H1248 H 0.53038 0.2937 0.86601 0.0
H1249 H 0.49506 0.29882 0.86325 0.0
H1250 H 0.47642 0.35326 0.83484 0.0
C1251 C 0.40951 0.36887 0.85983 0.0
C1252 C 0.44341 0.32939 0.8744 0.0
C1253 C 0.39034 0.37531 0.86249 0.0
C1254 C 0.52492 0.30846 0.86398 0.0
C1255 C 0.50471 0.31138 0.86253 0.0
C1256 C 0.46737 0.34648 0.84596 0.0
C1257 C 0.41449 0.34912 0.86284 0.0
C1258 C 0.43524 0.34272 0.86097 0.0
C1259 C 0.49704 0.33034 0.86027 0.0
C1260 C 0.4756 0.33367 0.85978 0.0
H1261 H 0.36937 0.33196 0.87564 0.0
H1262 H 0.40295 0.32055 0.8706 0.0
H1263 H 0.44155 0.36086 0.83563 0.0
H1264 H 0.53972 0.35605 0.86053 0.0
H1265 H 0.50447 0.36109 0.85772 0.0
C1266 C 0.63258 0.39769 0.85209 0.0
C1267 C 0.64456 0.38182 0.85736 0.0
C1268 C 0.64055 0.41631 0.84957 0.0
C1269 C 0.68264 0.44585 0.86524 0.0
H1270 H 0.66048 0.4835 0.82888 0.0
C1271 C 0.70623 0.52691 0.86485 0.0
C1272 C 0.69041 0.53998 0.86638 0.0
C1273 C 0.70301 0.50728 0.86005 0.0
C1274 C 0.66685 0.47311 0.83905 0.0
H1275 H 0.67446 0.37277 0.86311 0.0
H1276 H 0.68848 0.40531 0.85837 0.0
H1277 H 0.65084 0.44915 0.82685 0.0
H1278 H 0.65896 0.54304 0.86317 0.0
H1279 H 0.65338 0.50887 0.85465 0.0
H1280 H 0.69836 0.46992 0.87765 0.0
C1281 C 0.67284 0.40343 0.85662 0.0
C1282 C 0.6613 0.45347 0.83795 0.0
C1283 C 0.66482 0.38478 0.85927 0.0
C1284 C 0.67144 0.5333 0.86216 0.0
C1285 C 0.66825 0.51376 0.85715 0.0
C1286 C 0.68831 0.46546 0.86623 0.0
C1287 C 0.66073 0.41949 0.85209 0.0
C1288 C 0.66871 0.43971 0.85139 0.0
C1289 C 0.68394 0.50048 0.85644 0.0
C1290 C 0.68008 0.47936 0.85348 0.0
H1291 H 0.61691 0.39591 0.85053 0.0
H1292 H 0.63073 0.42836 0.8464 0.0
H1293 H 0.68845 0.43573 0.87599 0.0
H1294 H 0.72103 0.53165 0.86803 0.0
H1295 H 0.71537 0.49735 0.85948 0.0
C1296 C 0.62438 0.66138 0.87739 0.0
C1297 C 0.62898 0.64144 0.87524 0.0
C1298 C 0.6053 0.66808 0.87398 0.0
C1299 C 0.55831 0.65366 0.85054 0.0
H1300 H 0.5354 0.69045 0.88716 0.0
C1301 C 0.47526 0.66288 0.8608 0.0
C1302 C 0.46777 0.68186 0.8633 0.0
C1303 C 0.49543 0.65972 0.85988 0.0
C1304 C 0.54169 0.68041 0.87663 0.0
H1305 H 0.61721 0.61292 0.8677 0.0
H1306 H 0.58406 0.62446 0.86217 0.0
H1307 H 0.56992 0.68171 0.89015 0.0
H1308 H 0.47548 0.71251 0.86648 0.0
H1309 H 0.51084 0.70693 0.865 0.0
H1310 H 0.52988 0.65188 0.83746 0.0
C1311 C 0.59518 0.63505 0.8661 0.0
C1312 C 0.56147 0.67541 0.87832 0.0
C1313 C 0.6142 0.6284 0.86942 0.0
C1314 C 0.48084 0.69771 0.86444 0.0
C1315 C 0.50105 0.69452 0.86374 0.0
C1316 C 0.53852 0.65856 0.84894 0.0
C1317 C 0.59045 0.65496 0.86838 0.0
C1318 C 0.56993 0.6617 0.86551 0.0
C1319 C 0.50855 0.67546 0.86163 0.0
C1320 C 0.52993 0.67174 0.86216 0.0
H1321 H 0.63549 0.67183 0.88171 0.0
H1322 H 0.60221 0.68354 0.87565 0.0
H1323 H 0.56444 0.64338 0.84016 0.0
H1324 H 0.46556 0.65037 0.85992 0.0
H1325 H 0.50077 0.64485 0.85847 0.0
C1326 C 0.62952 0.59893 0.14286 0.0
C1327 C 0.64357 0.61382 0.14098 0.0
C1328 C 0.63517 0.57927 0.14352 0.0
C1329 C 0.67636 0.54602 0.13114 0.0
H1330 H 0.64783 0.50967 0.16412 0.0
C1331 C 0.69932 0.46486 0.14045 0.0
C1332 C 0.68418 0.45127 0.13744 0.0
C1333 C 0.69512 0.48482 0.14248 0.0
C1334 C 0.65589 0.51965 0.1548 0.0
H1335 H 0.67467 0.61972 0.13858 0.0
H1336 H 0.68459 0.58542 0.14019 0.0
H1337 H 0.63927 0.54433 0.16451 0.0
H1338 H 0.65267 0.44781 0.13546 0.0
H1339 H 0.64536 0.48251 0.13937 0.0
H1340 H 0.69309 0.52123 0.12163 0.0
C1341 C 0.66913 0.58891 0.14076 0.0
C1342 C 0.65094 0.53951 0.15494 0.0
C1343 C 0.66346 0.6086 0.13997 0.0
C1344 C 0.66469 0.45789 0.13771 0.0
C1345 C 0.66049 0.47778 0.13994 0.0
C1346 C 0.68144 0.52617 0.13117 0.0
C1347 C 0.65505 0.57397 0.14247 0.0
C1348 C 0.66096 0.55295 0.14295 0.0
C1349 C 0.67566 0.49151 0.14195 0.0
C1350 C 0.67111 0.51275 0.14284 0.0
H1351 H 0.61406 0.60241 0.14354 0.0
H1352 H 0.62387 0.5682 0.14449 0.0
H1353 H 0.68421 0.55585 0.12149 0.0
H1354 H 0.71444 0.46015 0.14064 0.0
H1355 H 0.7071 0.49505 0.14428 0.0
C1356 C 0.38636 0.66208 0.14262 0.0
C1357 C 0.38098 0.64223 0.14297 0.0
C1358 C 0.40591 0.66754 0.14541 0.0
C1359 C 0.45381 0.64856 0.16336 0.0
H1360 H 0.47527 0.68883 0.1296 0.0
C1361 C 0.53639 0.65777 0.14813 0.0
C1362 C 0.54386 0.67692 0.14733 0.0
C1363 C 0.5163 0.65459 0.15022 0.0
C1364 C 0.46943 0.67775 0.13933 0.0
H1365 H 0.39183 0.61257 0.14666 0.0
H1366 H 0.42576 0.622 0.15102 0.0
H1367 H 0.44039 0.68153 0.12826 0.0
H1368 H 0.53617 0.70775 0.14861 0.0
H1369 H 0.5011 0.70214 0.15216 0.0
H1370 H 0.48306 0.64437 0.1739 0.0
C1371 C 0.41494 0.63343 0.14905 0.0
C1372 C 0.44943 0.67359 0.1386 0.0
C1373 C 0.39545 0.62801 0.14639 0.0
C1374 C 0.53089 0.69281 0.1492 0.0
C1375 C 0.5108 0.68962 0.15111 0.0
C1376 C 0.47383 0.65262 0.16396 0.0
C1377 C 0.42045 0.65325 0.14851 0.0
C1378 C 0.44141 0.65877 0.15043 0.0
C1379 C 0.50328 0.67049 0.15137 0.0
C1380 C 0.48187 0.6671 0.1518 0.0
H1381 H 0.37552 0.67339 0.14013 0.0
H1382 H 0.40961 0.68295 0.14516 0.0
H1383 H 0.44807 0.63732 0.17295 0.0
H1384 H 0.546 0.64523 0.14671 0.0
H1385 H 0.51089 0.63969 0.15021 0.0
C1386 C 0.61315 0.34108 0.11008 0.0
C1387 C 0.61926 0.36025 0.10573 0.0
C1388 C 0.59332 0.33681 0.11248 0.0
C1389 C 0.54331 0.3541 0.10253 0.0
H1390 H 0.53039 0.32465 0.14935 0.0
C1391 C 0.46346 0.34434 0.12774 0.0
C1392 C 0.45799 0.32594 0.13518 0.0
C1393 C 0.48311 0.34876 0.12435 0.0
C1394 C 0.53371 0.33264 0.13607 0.0
H1395 H 0.60924 0.38976 0.0995 0.0
H1396 H 0.5745 0.38222 0.10359 0.0
H1397 H 0.56451 0.33145 0.14166 0.0
H1398 H 0.46898 0.29821 0.14598 0.0
H1399 H 0.50323 0.30555 0.13935 0.0
H1400 H 0.51256 0.35506 0.09673 0.0
C1401 C 0.58512 0.37054 0.10518 0.0
C1402 C 0.55328 0.33657 0.13168 0.0
C1403 C 0.60502 0.37485 0.10287 0.0
C1404 C 0.47267 0.31233 0.13982 0.0
C1405 C 0.49236 0.31667 0.13625 0.0
C1406 C 0.52372 0.35002 0.10681 0.0
C1407 C 0.57913 0.35157 0.11049 0.0
C1408 C 0.55829 0.34732 0.11487 0.0
C1409 C 0.49781 0.33486 0.12822 0.0
C1410 C 0.51866 0.33926 0.12367 0.0
H1411 H 0.62371 0.32944 0.11225 0.0
H1412 H 0.5891 0.32199 0.11623 0.0
H1413 H 0.54676 0.36229 0.08939 0.0
H1414 H 0.45252 0.35525 0.1241 0.0
H1415 H 0.48677 0.36308 0.1186 0.0
C1416 C 0.13811 0.47189 0.23732 0.0
C1417 C 0.14461 0.45236 0.23878 0.0
C1418 C 0.14801 0.48549 0.22535 0.0
C1419 C 0.18071 0.49076 0.18254 0.0
H1420 H 0.19838 0.53863 0.20712 0.0
C1421 C 0.23468 0.54384 0.14228 0.0
C1422 C 0.23593 0.56355 0.1481 0.0
C1423 C 0.22249 0.53054 0.15232 0.0
C1424 C 0.19329 0.52566 0.19963 0.0
H1425 H 0.16634 0.43183 0.22822 0.0
H1426 H 0.18295 0.45525 0.2067 0.0
H1427 H 0.17862 0.51555 0.22559 0.0
H1428 H 0.22462 0.58481 0.16863 0.0
H1429 H 0.20244 0.56238 0.18504 0.0
H1430 H 0.1946 0.50093 0.15639 0.0
C1431 C 0.17037 0.46013 0.21501 0.0
C1432 C 0.18197 0.51226 0.21045 0.0
C1433 C 0.16081 0.44668 0.22736 0.0
C1434 C 0.22405 0.56974 0.16371 0.0
C1435 C 0.21147 0.55662 0.1734 0.0
C1436 C 0.19163 0.50438 0.17153 0.0
C1437 C 0.16437 0.47984 0.21411 0.0
C1438 C 0.17565 0.49453 0.20215 0.0
C1439 C 0.21075 0.53657 0.16829 0.0
C1440 C 0.19834 0.52211 0.17987 0.0
H1441 H 0.1259 0.4769 0.24609 0.0
H1442 H 0.14294 0.50052 0.22499 0.0
H1443 H 0.17599 0.47731 0.1756 0.0
H1444 H 0.24392 0.53843 0.13059 0.0
H1445 H 0.22292 0.51536 0.14786 0.0
C1446 C 0.56067 0.16224 0.23595 0.0
C1447 C 0.55609 0.14362 0.24354 0.0
C1448 C 0.54702 0.1729 0.2249 0.0
C1449 C 0.49992 0.16981 0.19679 0.0
H1450 H 0.50008 0.22589 0.20541 0.0
C1451 C 0.44514 0.22561 0.15837 0.0
C1452 C 0.45437 0.2424 0.15072 0.0
C1453 C 0.45562 0.21238 0.17049 0.0
C1454 C 0.49982 0.21026 0.20271 0.0
H1455 H 0.53339 0.12152 0.24482 0.0
H1456 H 0.50947 0.14019 0.2255 0.0
H1457 H 0.52205 0.20509 0.22414 0.0
H1458 H 0.48186 0.25839 0.15033 0.0
H1459 H 0.49956 0.23592 0.1711 0.0
H1460 H 0.47754 0.17529 0.17518 0.0
C1461 C 0.52378 0.14649 0.22802 0.0
C1462 C 0.51258 0.19826 0.21344 0.0
C1463 C 0.53755 0.13572 0.23911 0.0
C1464 C 0.47411 0.24567 0.15577 0.0
C1465 C 0.48435 0.23276 0.16791 0.0
C1466 C 0.48702 0.18191 0.18602 0.0
C1467 C 0.52816 0.16547 0.22107 0.0
C1468 C 0.51325 0.17787 0.21038 0.0
C1469 C 0.4754 0.21588 0.17551 0.0
C1470 C 0.48711 0.2024 0.18851 0.0
H1471 H 0.57478 0.16884 0.23889 0.0
H1472 H 0.5513 0.18716 0.21944 0.0
H1473 H 0.4999 0.15422 0.19394 0.0
H1474 H 0.43001 0.22255 0.15478 0.0
H1475 H 0.4482 0.19955 0.1761 0.0
C1476 C 0.79137 0.4785 0.12432 0.0
C1477 C 0.77315 0.47063 0.12979 0.0
C1478 C 0.80283 0.48909 0.13774 0.0
C1479 C 0.80658 0.50224 0.19159 0.0
H1480 H 0.84031 0.54344 0.17195 0.0
C1481 C 0.83713 0.56432 0.24067 0.0
C1482 C 0.85742 0.56803 0.23999 0.0
C1483 C 0.82814 0.55183 0.22713 0.0
C1484 C 0.83109 0.53188 0.17766 0.0
H1485 H 0.75268 0.46798 0.15381 0.0
H1486 H 0.77198 0.48701 0.17686 0.0
H1487 H 0.82204 0.52312 0.14901 0.0
H1488 H 0.88402 0.56155 0.22402 0.0
H1489 H 0.86805 0.5402 0.19973 0.0
H1490 H 0.815 0.51187 0.2203 0.0
C1491 C 0.77802 0.48448 0.16245 0.0
C1492 C 0.8206 0.52004 0.16447 0.0
C1493 C 0.76678 0.47352 0.14913 0.0
C1494 C 0.86839 0.55912 0.22498 0.0
C1495 C 0.85924 0.5469 0.21107 0.0
C1496 C 0.81674 0.51435 0.20473 0.0
C1497 C 0.79625 0.49261 0.15701 0.0
C1498 C 0.80803 0.505 0.17115 0.0
C1499 C 0.83901 0.54289 0.21216 0.0
C1500 C 0.82908 0.52938 0.19798 0.0
H1501 H 0.7968 0.47654 0.10956 0.0
H1502 H 0.81687 0.49451 0.13286 0.0
H1503 H 0.79762 0.49065 0.1976 0.0
H1504 H 0.82813 0.57074 0.25203 0.0
H1505 H 0.81254 0.54923 0.22832 0.0
C1506 C 0.56588 0.76472 0.1792 0.0
C1507 C 0.56428 0.76016 0.15915 0.0
C1508 C 0.553 0.77799 0.18818 0.0
C1509 C 0.50329 0.79997 0.18272 0.0
H1510 H 0.52048 0.83312 0.22541 0.0
C1511 C 0.44858 0.83573 0.23749 0.0
C1512 C 0.45277 0.85425 0.24554 0.0
C1513 C 0.46205 0.82608 0.2253 0.0
C1514 C 0.51535 0.82416 0.2134 0.0
H1515 H 0.54784 0.76656 0.13281 0.0
H1516 H 0.52539 0.78987 0.14842 0.0
H1517 H 0.54437 0.8138 0.20725 0.0
H1518 H 0.47463 0.87719 0.24657 0.0
H1519 H 0.49808 0.86047 0.22519 0.0
H1520 H 0.47427 0.81033 0.18887 0.0
C1521 C 0.53661 0.783 0.15728 0.0
C1522 C 0.52911 0.81282 0.20306 0.0
C1523 C 0.54966 0.76977 0.14822 0.0
C1524 C 0.47075 0.86304 0.24057 0.0
C1525 C 0.48433 0.8533 0.22844 0.0
C1526 C 0.48951 0.81124 0.19312 0.0
C1527 C 0.53792 0.78717 0.17749 0.0
C1528 C 0.52332 0.80035 0.18766 0.0
C1529 C 0.48032 0.83452 0.22078 0.0
C1530 C 0.49525 0.82339 0.2088 0.0
H1531 H 0.57687 0.75762 0.18818 0.0
H1532 H 0.55449 0.7805 0.20375 0.0
H1533 H 0.49809 0.7905 0.17113 0.0
H1534 H 0.43499 0.82837 0.24099 0.0
H1535 H 0.45836 0.81161 0.22 0.0
C1536 C 0.14255 0.5545 0.78286 0.0
C1537 C 0.15369 0.56122 0.76686 0.0
C1538 C 0.15068 0.54134 0.79662 0.0
C1539 C 0.18854 0.50296 0.80134 0.0
H1540 H 0.18829 0.51352 0.85698 0.0
C1541 C 0.23691 0.45744 0.85498 0.0
C1542 C 0.23167 0.45601 0.87483 0.0
C1543 C 0.22607 0.46923 0.84198 0.0
C1544 C 0.18823 0.50994 0.84157 0.0
H1545 H 0.18226 0.5591 0.75304 0.0
H1546 H 0.19596 0.53612 0.77647 0.0
H1547 H 0.17132 0.53566 0.83465 0.0
H1548 H 0.21035 0.46535 0.8963 0.0
H1549 H 0.19084 0.48479 0.87364 0.0
H1550 H 0.20489 0.47707 0.80797 0.0
C1551 C 0.18103 0.54107 0.77852 0.0
C1552 C 0.1785 0.52283 0.82872 0.0
C1553 C 0.17312 0.55443 0.76512 0.0
C1554 C 0.21485 0.4661 0.88112 0.0
C1555 C 0.20377 0.47755 0.86806 0.0
C1556 C 0.19792 0.48987 0.81418 0.0
C1557 C 0.16996 0.53423 0.79443 0.0
C1558 C 0.17878 0.51968 0.8084 0.0
C1559 C 0.20936 0.47973 0.84829 0.0
C1560 C 0.19826 0.49323 0.83456 0.0
H1561 H 0.12755 0.55932 0.78468 0.0
H1562 H 0.14174 0.53635 0.80872 0.0
H1563 H 0.18888 0.49995 0.78578 0.0
H1564 H 0.24997 0.4502 0.84964 0.0
H1565 H 0.23132 0.47059 0.82711 0.0
C1566 C 0.46636 0.14027 0.77384 0.0
C1567 C 0.44932 0.15016 0.76774 0.0
C1568 C 0.4805 0.14977 0.78544 0.0
C1569 C 0.48858 0.19292 0.81813 0.0
H1570 H 0.54291 0.18781 0.80258 0.0
C1571 C 0.55145 0.23255 0.86024 0.0
C1572 C 0.56504 0.24258 0.84844 0.0
C1573 C 0.53808 0.21924 0.85192 0.0
C1574 C 0.52782 0.18941 0.80717 0.0
H1575 H 0.43361 0.17767 0.76975 0.0
H1576 H 0.4579 0.19399 0.79018 0.0
H1577 H 0.51775 0.16875 0.78576 0.0
H1578 H 0.57569 0.24573 0.81874 0.0
H1579 H 0.55284 0.22235 0.80441 0.0
H1580 H 0.49861 0.21386 0.83929 0.0
C1581 C 0.46044 0.17891 0.78601 0.0
C1582 C 0.51337 0.1783 0.79761 0.0
C1583 C 0.44647 0.16952 0.77422 0.0
C1584 C 0.56551 0.23823 0.82831 0.0
C1585 C 0.55237 0.22475 0.82006 0.0
C1586 C 0.50307 0.20385 0.82784 0.0
C1587 C 0.47787 0.16934 0.79151 0.0
C1588 C 0.49347 0.18008 0.80274 0.0
C1589 C 0.53813 0.21538 0.83164 0.0
C1590 C 0.52289 0.20248 0.82233 0.0
H1591 H 0.46918 0.12544 0.76898 0.0
H1592 H 0.49363 0.14184 0.7895 0.0
H1593 H 0.47348 0.1946 0.82263 0.0
H1594 H 0.55049 0.23568 0.87574 0.0
H1595 H 0.52748 0.21218 0.86136 0.0
C1596 C 0.77636 0.53924 0.87444 0.0
C1597 C 0.77122 0.55725 0.86576 0.0
C1598 C 0.78822 0.52561 0.86441 0.0
C1599 C 0.82254 0.52058 0.82147 0.0
H1600 H 0.80897 0.4656 0.82452 0.0
C1601 C 0.86714 0.46101 0.77906 0.0
C1602 C 0.85635 0.44597 0.77 0.0
C1603 C 0.85816 0.47398 0.79239 0.0
C1604 C 0.81298 0.48089 0.82338 0.0
H1605 H 0.77514 0.57501 0.83974 0.0
H1606 H 0.79562 0.55159 0.82249 0.0
H1607 H 0.79109 0.48938 0.84424 0.0
H1608 H 0.82757 0.43267 0.7685 0.0
H1609 H 0.81209 0.45501 0.79148 0.0
H1610 H 0.84404 0.51218 0.80019 0.0
C1611 C 0.7907 0.5479 0.83709 0.0
C1612 C 0.80282 0.49459 0.83495 0.0
C1613 C 0.77879 0.5614 0.84703 0.0
C1614 C 0.83647 0.44397 0.77516 0.0
C1615 C 0.82754 0.45682 0.7885 0.0
C1616 C 0.83275 0.50688 0.80995 0.0
C1617 C 0.79544 0.52962 0.84544 0.0
C1618 C 0.80723 0.51473 0.83405 0.0
C1619 C 0.83811 0.47227 0.79717 0.0
C1620 C 0.82802 0.48679 0.8105 0.0
H1621 H 0.77071 0.53539 0.88874 0.0
H1622 H 0.79164 0.51185 0.87151 0.0
H1623 H 0.82666 0.53585 0.82044 0.0
H1624 H 0.88242 0.46315 0.77543 0.0
H1625 H 0.86695 0.48546 0.79886 0.0
C1626 C 0.45223 0.76186 0.83185 0.0
C1627 C 0.44894 0.76245 0.85222 0.0
C1628 C 0.46617 0.77398 0.82291 0.0
C1629 C 0.49343 0.82021 0.82713 0.0
H1630 H 0.52965 0.79581 0.79096 0.0
C1631 C 0.55348 0.86652 0.78778 0.0
C1632 C 0.55961 0.861 0.7689 0.0
C1633 C 0.5413 0.85428 0.79904 0.0
C1634 C 0.51953 0.8031 0.8007 0.0
H1635 H 0.45773 0.77696 0.87899 0.0
H1636 H 0.48171 0.79877 0.86317 0.0
H1637 H 0.50566 0.77588 0.80812 0.0
H1638 H 0.55756 0.83803 0.74719 0.0
H1639 H 0.53593 0.81714 0.76625 0.0
H1640 H 0.50652 0.84755 0.81918 0.0
C1641 C 0.4735 0.78859 0.85421 0.0
C1642 C 0.50577 0.79152 0.81072 0.0
C1643 C 0.45973 0.7761 0.86329 0.0
C1644 C 0.55344 0.8427 0.76177 0.0
C1645 C 0.54096 0.83061 0.77286 0.0
C1646 C 0.50695 0.83189 0.81682 0.0
C1647 C 0.47716 0.78744 0.83391 0.0
C1648 C 0.49244 0.79988 0.82403 0.0
C1649 C 0.53444 0.83622 0.79169 0.0
C1650 C 0.52026 0.8236 0.80329 0.0
H1651 H 0.44437 0.75158 0.8227 0.0
H1652 H 0.46835 0.77281 0.80725 0.0
H1653 H 0.48329 0.82721 0.83711 0.0
H1654 H 0.55792 0.88048 0.79383 0.0
H1655 H 0.53725 0.85916 0.81354 0.0
C1656 C 0.14042 0.234 0.54132 0.0
C1657 C 0.14739 0.23673 0.56052 0.0
C1658 C 0.15048 0.22179 0.52808 0.0
C1659 C 0.1852 0.18037 0.52418 0.0
H1660 H 0.20012 0.20316 0.47448 0.0
C1661 C 0.24022 0.14051 0.47211 0.0
C1662 C 0.24039 0.14502 0.45202 0.0
C1663 C 0.22781 0.1506 0.48513 0.0
C1664 C 0.19582 0.19617 0.48802 0.0
H1665 H 0.17013 0.22816 0.58093 0.0
H1666 H 0.18708 0.20625 0.55818 0.0
H1667 H 0.17999 0.22182 0.49709 0.0
H1668 H 0.22696 0.16323 0.42984 0.0
H1669 H 0.20448 0.17971 0.45196 0.0
H1670 H 0.20031 0.15448 0.51509 0.0
C1671 C 0.17399 0.21374 0.55326 0.0
C1672 C 0.18428 0.20709 0.50112 0.0
C1673 C 0.16424 0.22632 0.56632 0.0
C1674 C 0.22725 0.15936 0.44522 0.0
C1675 C 0.21449 0.16909 0.45811 0.0
C1676 C 0.19636 0.16923 0.51089 0.0
C1677 C 0.1675 0.21159 0.53382 0.0
C1678 C 0.17894 0.19944 0.51947 0.0
C1679 C 0.2148 0.1653 0.47846 0.0
C1680 C 0.2021 0.17694 0.49255 0.0
H1681 H 0.12768 0.24198 0.53624 0.0
H1682 H 0.14502 0.22044 0.51326 0.0
H1683 H 0.18126 0.17394 0.53812 0.0
H1684 H 0.2504 0.12983 0.47796 0.0
H1685 H 0.22904 0.14724 0.50055 0.0
C1686 C 0.76828 0.14162 0.53215 0.0
C1687 C 0.76831 0.1463 0.55223 0.0
C1688 C 0.7794 0.15261 0.5187 0.0
C1689 C 0.82225 0.18508 0.51331 0.0
H1690 H 0.79461 0.20747 0.46916 0.0
C1691 C 0.85975 0.24293 0.46247 0.0
C1692 C 0.85268 0.24595 0.44337 0.0
C1693 C 0.85034 0.22985 0.47536 0.0
C1694 C 0.8029 0.20109 0.48104 0.0
H1695 H 0.78059 0.16596 0.57383 0.0
H1696 H 0.80067 0.18448 0.55053 0.0
H1697 H 0.77744 0.18596 0.4917 0.0
H1698 H 0.83052 0.23687 0.42267 0.0
H1699 H 0.81507 0.2132 0.44429 0.0
H1700 H 0.8479 0.19941 0.50251 0.0
C1701 C 0.79183 0.17246 0.54516 0.0
C1702 C 0.79286 0.18877 0.49414 0.0
C1703 C 0.78032 0.16182 0.55853 0.0
C1704 C 0.83638 0.23497 0.43729 0.0
C1705 C 0.82728 0.22151 0.44995 0.0
C1706 C 0.83247 0.19702 0.49995 0.0
C1707 C 0.79125 0.16828 0.52499 0.0
C1708 C 0.80232 0.18071 0.51057 0.0
C1709 C 0.83374 0.21895 0.46946 0.0
C1710 C 0.82299 0.20547 0.48356 0.0
H1711 H 0.75898 0.13 0.5267 0.0
H1712 H 0.77862 0.14894 0.50331 0.0
H1713 H 0.83006 0.17903 0.52573 0.0
H1714 H 0.87206 0.25139 0.46781 0.0
H1715 H 0.85583 0.22888 0.49017 0.0
C1716 C 0.83679 0.7705 0.56386 0.0
C1717 C 0.85717 0.76736 0.56318 0.0
C1718 C 0.8274 0.78269 0.55024 0.0
C1719 C 0.81013 0.79675 0.51157 0.0
H1720 H 0.82985 0.84719 0.49454 0.0
C1721 C 0.77676 0.83632 0.4447 0.0
C1722 C 0.77215 0.85635 0.44654 0.0
C1723 C 0.78833 0.8267 0.45868 0.0
C1724 C 0.82411 0.83316 0.49918 0.0
H1725 H 0.88366 0.77547 0.54776 0.0
H1726 H 0.86726 0.79709 0.5241 0.0
H1727 H 0.84763 0.8285 0.51968 0.0
H1728 H 0.77696 0.88204 0.46448 0.0
H1729 H 0.79753 0.86524 0.48882 0.0
H1730 H 0.78673 0.8012 0.49116 0.0
C1731 C 0.85856 0.78996 0.53526 0.0
C1732 C 0.8344 0.82236 0.5135 0.0
C1733 C 0.86799 0.77755 0.54886 0.0
C1734 C 0.78025 0.86666 0.46246 0.0
C1735 C 0.79204 0.857 0.47645 0.0
C1736 C 0.80005 0.80737 0.49714 0.0
C1737 C 0.83804 0.79235 0.53548 0.0
C1738 C 0.82749 0.80401 0.51999 0.0
C1739 C 0.79586 0.83674 0.475 0.0
C1740 C 0.80683 0.82574 0.49068 0.0
H1741 H 0.82786 0.76305 0.57464 0.0
H1742 H 0.81167 0.78438 0.55116 0.0
H1743 H 0.8044 0.78264 0.51597 0.0
H1744 H 0.77095 0.82779 0.43268 0.0
H1745 H 0.79119 0.81121 0.4568 0.0
C1746 C 0.1411 0.7824 0.463 0.0
C1747 C 0.15186 0.77423 0.44745 0.0
C1748 C 0.15005 0.79522 0.47646 0.0
C1749 C 0.19483 0.82637 0.48425 0.0
H1750 H 0.18238 0.81999 0.53919 0.0
C1751 C 0.23074 0.84534 0.56497 0.0
C1752 C 0.23804 0.86435 0.5617 0.0
C1753 C 0.21854 0.83614 0.55126 0.0
C1754 C 0.18614 0.82197 0.52393 0.0
H1755 H 0.18046 0.77379 0.4337 0.0
H1756 H 0.1959 0.79588 0.4569 0.0
H1757 H 0.16472 0.80094 0.51474 0.0
H1758 H 0.23768 0.88867 0.54132 0.0
H1759 H 0.21619 0.87273 0.51746 0.0
H1760 H 0.21669 0.84691 0.49348 0.0
C1761 C 0.1805 0.79261 0.45875 0.0
C1762 C 0.17578 0.81116 0.50981 0.0
C1763 C 0.17161 0.77978 0.4454 0.0
C1764 C 0.23229 0.87409 0.54445 0.0
C1765 C 0.2201 0.86482 0.53063 0.0
C1766 C 0.20516 0.8372 0.49836 0.0
C1767 C 0.17 0.80033 0.4747 0.0
C1768 C 0.1801 0.81297 0.48972 0.0
C1769 C 0.21321 0.84557 0.5337 0.0
C1770 C 0.20118 0.83502 0.51848 0.0
H1771 H 0.12591 0.77842 0.46517 0.0
H1772 H 0.14133 0.801 0.48836 0.0
H1773 H 0.1985 0.82845 0.46898 0.0
H1774 H 0.23487 0.83727 0.57799 0.0
H1775 H 0.21385 0.82128 0.55417 0.0
C1776 C 0.93537 0.52744 0.29903 0.0
C1777 C 0.92978 0.54295 0.31117 0.0
C1778 C 0.94747 0.51269 0.30621 0.0
C1779 C 0.98759 0.508 0.3394 0.0
H1780 H 0.98752 0.45525 0.31848 0.0
C1781 C 0.05811 0.46198 0.32924 0.0
C1782 C 0.06012 0.45701 0.3094 0.0
C1783 C 0.04016 0.46878 0.33634 0.0
C1784 C 0.98761 0.4698 0.32479 0.0
H1785 H 0.93117 0.5548 0.34056 0.0
H1786 H 0.95289 0.52907 0.35307 0.0
H1787 H 0.95701 0.47387 0.31956 0.0
H1788 H 0.04522 0.45492 0.28147 0.0
H1789 H 0.01398 0.4667 0.29381 0.0
H1790 H 0.01848 0.50443 0.34323 0.0
C1791 C 0.94785 0.52832 0.33806 0.0
C1792 C 0.97022 0.48042 0.32541 0.0
C1793 C 0.93554 0.54302 0.33089 0.0
C1794 C 0.04404 0.45877 0.2968 0.0
C1795 C 0.02612 0.46523 0.30393 0.0
C1796 C 0.00499 0.49733 0.33885 0.0
C1797 C 0.95428 0.51328 0.32562 0.0
C1798 C 0.97035 0.50005 0.33148 0.0
C1799 C 0.024 0.47025 0.32374 0.0
C1800 C 0.0053 0.47865 0.33036 0.0
H1801 H 0.93092 0.52701 0.28382 0.0
H1802 H 0.95244 0.50147 0.29616 0.0
H1803 H 0.98812 0.52313 0.34412 0.0
H1804 H 0.07038 0.46062 0.33921 0.0
H1805 H 0.03887 0.4728 0.35162 0.0
C1806 C 0.48924 0.93117 0.3093 0.0
C1807 C 0.47405 0.92427 0.32117 0.0
C1808 C 0.50273 0.94446 0.31669 0.0
C1809 C 0.50318 0.98536 0.34869 0.0
H1810 H 0.55626 0.98874 0.3289 0.0
C1811 C 0.54649 0.05804 0.33517 0.0
C1812 C 0.55022 0.05936 0.31498 0.0
C1813 C 0.54013 0.04035 0.34332 0.0
C1814 C 0.54164 0.98789 0.33499 0.0
H1815 H 0.46145 0.92475 0.35026 0.0
H1816 H 0.4849 0.94878 0.36313 0.0
H1817 H 0.54035 0.95683 0.33134 0.0
H1818 H 0.55015 0.04362 0.28746 0.0
H1819 H 0.5393 0.01279 0.30169 0.0
H1820 H 0.50402 0.01666 0.35078 0.0
C1821 C 0.48645 0.94367 0.34821 0.0
C1822 C 0.53256 0.9697 0.33638 0.0
C1823 C 0.47307 0.93003 0.34086 0.0
C1824 C 0.5473 0.04297 0.30304 0.0
C1825 C 0.54134 0.02531 0.3112 0.0
C1826 C 0.51234 1.00358 0.34741 0.0
C1827 C 0.50114 0.95129 0.33602 0.0
C1828 C 0.5128 0.96848 0.34189 0.0
C1829 C 0.53793 0.02381 0.3314 0.0
C1830 C 0.53113 0.005 0.33931 0.0
H1831 H 0.49034 0.92676 0.29411 0.0
H1832 H 0.51368 0.95033 0.30683 0.0
H1833 H 0.48792 0.98482 0.35294 0.0
H1834 H 0.54871 0.07056 0.34463 0.0
H1835 H 0.53729 0.03948 0.35889 0.0
C1836 C 0.93675 0.47268 0.68385 0.0
C1837 C 0.93166 0.46994 0.70355 0.0
C1838 C 0.9496 0.48768 0.67858 0.0
C1839 C 0.97329 0.53269 0.69707 0.0
H1840 H 0.02018 0.51212 0.67253 0.0
C1841 C 0.04936 0.55624 0.71934 0.0
C1842 C 0.06383 0.55891 0.70509 0.0
C1843 C 0.03099 0.54923 0.71406 0.0
C1844 C 0.00704 0.5183 0.67892 0.0
H1845 H 0.93485 0.48109 0.73305 0.0
H1846 H 0.95728 0.50716 0.72395 0.0
H1847 H 0.99004 0.49306 0.67168 0.0
H1848 H 0.07075 0.55643 0.67422 0.0
H1849 H 0.03852 0.54365 0.665 0.0
H1850 H 0.99069 0.55729 0.70549 0.0
C1851 C 0.95136 0.49792 0.71252 0.0
C1852 C 0.98979 0.50743 0.67839 0.0
C1853 C 0.93874 0.48286 0.71778 0.0
C1854 C 0.05976 0.55438 0.68547 0.0
C1855 C 0.04139 0.54718 0.68018 0.0
C1856 C 0.99053 0.54353 0.69762 0.0
C1857 C 0.95721 0.50023 0.69295 0.0
C1858 C 0.97311 0.51407 0.68839 0.0
C1859 C 0.02683 0.54467 0.69445 0.0
C1860 C 0.00778 0.53591 0.68946 0.0
H1861 H 0.93126 0.46292 0.67263 0.0
H1862 H 0.95395 0.4892 0.66341 0.0
H1863 H 0.96048 0.53823 0.7046 0.0
H1864 H 0.05217 0.55971 0.73456 0.0
H1865 H 0.02014 0.547 0.72541 0.0
C1866 C 0.52933 0.9329 0.71725 0.0
C1867 C 0.53978 0.92454 0.70175 0.0
C1868 C 0.51444 0.94626 0.71346 0.0
C1869 C 0.50271 0.98403 0.6793 0.0
H1870 H 0.45591 0.98815 0.71114 0.0
C1871 C 0.45831 0.05576 0.68667 0.0
C1872 C 0.45484 0.06079 0.70627 0.0
C1873 C 0.46508 0.03707 0.68194 0.0
C1874 C 0.46884 0.98711 0.70202 0.0
H1875 H 0.54251 0.92261 0.67019 0.0
H1876 H 0.51659 0.94656 0.66355 0.0
H1877 H 0.47375 0.95719 0.7099 0.0
H1878 H 0.45577 0.05062 0.73632 0.0
H1879 H 0.46786 0.01813 0.72814 0.0
H1880 H 0.49856 0.01431 0.67246 0.0
C1881 C 0.5199 0.94266 0.67856 0.0
C1882 C 0.47895 0.96943 0.70126 0.0
C1883 C 0.5347 0.92909 0.68237 0.0
C1884 C 0.45836 0.04705 0.72109 0.0
C1885 C 0.46502 0.02841 0.71638 0.0
C1886 C 0.49261 1.00174 0.6801 0.0
C1887 C 0.50988 0.95156 0.69412 0.0
C1888 C 0.49647 0.96806 0.69065 0.0
C1889 C 0.46829 0.0232 0.69677 0.0
C1890 C 0.47615 1.00364 0.69224 0.0
H1891 H 0.53294 0.92946 0.73231 0.0
H1892 H 0.50714 0.95317 0.72572 0.0
H1893 H 0.51627 0.98334 0.67112 0.0
H1894 H 0.45558 0.06618 0.67501 0.0
H1895 H 0.46759 0.03339 0.66673 0.0
C1896 C 0.33231 0.94647 0.55083 0.0
C1897 C 0.31232 0.94589 0.55563 0.0
C1898 C 0.34071 0.96382 0.5439 0.0
C1899 C 0.33364 0.01681 0.54409 0.0
H1900 H 0.35 0.01704 0.48978 0.0
C1901 C 0.30699 0.07116 0.48961 0.0
C1902 C 0.31866 0.07762 0.47408 0.0
C1903 C 0.31456 0.05827 0.50343 0.0
C1904 C 0.3462 0.01728 0.50517 0.0
H1905 H 0.28543 0.96266 0.55713 0.0
H1906 H 0.30007 0.99291 0.54527 0.0
H1907 H 0.34779 0.98603 0.50745 0.0
H1908 H 0.34757 0.07666 0.46108 0.0
H1909 H 0.36074 0.05323 0.48509 0.0
H1910 H 0.3304 0.04783 0.54135 0.0
C1911 C 0.30927 0.98007 0.54691 0.0
C1912 C 0.34489 0.99953 0.51524 0.0
C1913 C 0.30085 0.96274 0.55343 0.0
C1914 C 0.33832 0.07173 0.47298 0.0
C1915 C 0.34585 0.05845 0.48667 0.0
C1916 C 0.33503 0.03452 0.53408 0.0
C1917 C 0.32926 0.9808 0.54221 0.0
C1918 C 0.33732 0.99914 0.5343 0.0
C1919 C 0.33388 0.05138 0.50181 0.0
C1920 C 0.33994 0.03471 0.51414 0.0
H1921 H 0.34142 0.93358 0.55249 0.0
H1922 H 0.3561 0.96407 0.54009 0.0
H1923 H 0.328 0.01678 0.55891 0.0
H1924 H 0.29182 0.07566 0.4908 0.0
H1925 H 0.30487 0.0528 0.51473 0.0
C1926 C 0.93568 0.33363 0.46584 0.0
C1927 C 0.92875 0.31432 0.46465 0.0
C1928 C 0.94986 0.33857 0.47976 0.0
C1929 C 0.97322 0.32104 0.52523 0.0
H1930 H 0.02196 0.33904 0.50235 0.0
C1931 C 0.0468 0.29246 0.54947 0.0
C1932 C 0.0623 0.30551 0.55247 0.0
C1933 C 0.02923 0.29909 0.54159 0.0
C1934 C 0.00835 0.3345 0.5091 0.0
H1935 H 0.93022 0.2853 0.47739 0.0
H1936 H 0.95473 0.29385 0.50167 0.0
H1937 H 0.99158 0.34158 0.48357 0.0
H1938 H 0.07198 0.33558 0.54939 0.0
H1939 H 0.04112 0.34716 0.53491 0.0
H1940 H 0.9902 0.31262 0.55016 0.0
C1941 C 0.94931 0.30522 0.492 0.0
C1942 C 0.99098 0.336 0.4984 0.0
C1943 C 0.93546 0.30026 0.47798 0.0
C1944 C 0.06015 0.32527 0.54716 0.0
C1945 C 0.04258 0.33189 0.53897 0.0
C1946 C 0.99054 0.31949 0.53587 0.0
C1947 C 0.95688 0.32431 0.49284 0.0
C1948 C 0.97351 0.32829 0.50601 0.0
C1949 C 0.02692 0.31886 0.5364 0.0
C1950 C 0.00836 0.32526 0.52745 0.0
H1951 H 0.93059 0.34471 0.45568 0.0
H1952 H 0.95557 0.35336 0.48012 0.0
H1953 H 0.95984 0.31527 0.53149 0.0
H1954 H 0.04812 0.27716 0.55349 0.0
H1955 H 0.01748 0.28868 0.53934 0.0
C1956 C 0.68137 0.9429 0.45741 0.0
C1957 C 0.7012 0.94133 0.45219 0.0
C1958 C 0.67366 0.96094 0.46329 0.0
C1959 C 0.68289 0.01383 0.46026 0.0
H1960 H 0.66345 0.01672 0.51345 0.0
C1961 C 0.70684 0.07042 0.51382 0.0
C1962 C 0.6948 0.07638 0.52926 0.0
C1963 C 0.69975 0.05764 0.49968 0.0
C1964 C 0.66816 0.01626 0.49832 0.0
H1965 H 0.72852 0.9571 0.44891 0.0
H1966 H 0.71511 0.9885 0.4591 0.0
H1967 H 0.66595 0.985 0.49736 0.0
H1968 H 0.66553 0.0752 0.54139 0.0
H1969 H 0.65317 0.0521 0.51681 0.0
H1970 H 0.68648 0.0449 0.46173 0.0
C1971 C 0.70547 0.97592 0.45851 0.0
C1972 C 0.66966 0.99807 0.48915 0.0
C1973 C 0.71321 0.95792 0.45296 0.0
C1974 C 0.67512 0.07052 0.52967 0.0
C1975 C 0.66805 0.05743 0.51563 0.0
C1976 C 0.6813 0.032 0.46937 0.0
C1977 C 0.68563 0.97762 0.4636 0.0
C1978 C 0.67824 0.99666 0.47057 0.0
C1979 C 0.68053 0.05041 0.50087 0.0
C1980 C 0.67519 0.03319 0.48895 0.0
H1981 H 0.67183 0.93025 0.45682 0.0
H1982 H 0.65838 0.96191 0.46738 0.0
H1983 H 0.68922 0.01305 0.44575 0.0
H1984 H 0.722 0.07502 0.51309 0.0
H1985 H 0.70982 0.05233 0.48865 0.0
C1986 C 0.9385 0.68089 0.53778 0.0
C1987 C 0.9331 0.70061 0.53989 0.0
C1988 C 0.95154 0.67538 0.52303 0.0
C1989 C 0.97521 0.6929 0.47764 0.0
H1990 H 0.02283 0.67125 0.49981 0.0
C1991 C 0.05018 0.71937 0.45611 0.0
C1992 C 0.06554 0.70603 0.45358 0.0
C1993 C 0.03205 0.71293 0.46273 0.0
C1994 C 0.00952 0.67678 0.49319 0.0
H1995 H 0.93588 0.72982 0.52783 0.0
H1996 H 0.95856 0.7203 0.50216 0.0
H1997 H 0.99239 0.66951 0.51834 0.0
H1998 H 0.07432 0.67561 0.45599 0.0
H1999 H 0.04248 0.66435 0.46825 0.0
H2000 H 0.99268 0.70152 0.45316 0.0
C2001 C 0.95277 0.70904 0.51173 0.0
C2002 C 0.99209 0.67574 0.50376 0.0
C2003 C 0.94001 0.71456 0.52657 0.0
C2004 C 0.06263 0.68615 0.45795 0.0
C2005 C 0.04449 0.67971 0.46482 0.0
C2006 C 0.99261 0.69396 0.4671 0.0
C2007 C 0.95898 0.68949 0.51007 0.0
C2008 C 0.9751 0.68484 0.49654 0.0
C2009 C 0.02902 0.69305 0.46707 0.0
C2010 C 0.01008 0.68692 0.47533 0.0
H2011 H 0.93315 0.66988 0.54786 0.0
H2012 H 0.95618 0.66024 0.52203 0.0
H2013 H 0.96218 0.69973 0.47167 0.0
H2014 H 0.05207 0.73476 0.45276 0.0
H2015 H 0.02048 0.72359 0.4648 0.0
C2016 C 0.54306 0.27422 0.94469 0.0
C2017 C 0.54841 0.2919 0.93578 0.0
C2018 C 0.53098 0.27435 0.96102 0.0
C2019 C 0.51625 0.30425 1.00196 0.0
H2020 H 0.47161 0.26922 0.00407 0.0
C2021 C 0.45933 0.3059 0.06377 0.0
C2022 C 0.45291 0.28767 0.07065 0.0
C2023 C 0.47125 0.30691 0.04732 0.0
C2024 C 0.48415 0.27891 1.00374 0.0
H2025 H 0.5456 0.32352 0.93654 0.0
H2026 H 0.52438 0.32374 0.96539 0.0
H2027 H 0.49176 0.2703 0.97467 0.0
H2028 H 0.45412 0.25623 0.06652 0.0
H2029 H 0.47529 0.25795 0.03787 0.0
H2030 H 0.50887 0.31262 0.03116 0.0
C2031 C 0.52959 0.30986 0.95973 0.0
C2032 C 0.49558 0.27957 0.98695 0.0
C2033 C 0.54159 0.30973 0.94328 0.0
C2034 C 0.45882 0.27045 0.06127 0.0
C2035 C 0.47081 0.27144 0.04489 0.0
C2036 C 0.50488 0.30351 0.01882 0.0
C2037 C 0.52422 0.29216 0.96864 0.0
C2038 C 0.51173 0.29215 0.98602 0.0
C2039 C 0.47692 0.2897 0.03767 0.0
C2040 C 0.48883 0.29074 0.01985 0.0
H2041 H 0.54823 0.26031 0.93909 0.0
H2042 H 0.52713 0.26055 0.96785 0.0
H2043 H 0.52883 0.3139 1.00153 0.0
H2044 H 0.45492 0.31936 0.07091 0.0
H2045 H 0.47566 0.32116 0.04191 0.0
C2046 C 0.4718 0.68201 0.93901 0.0
C2047 C 0.46816 0.70158 0.93385 0.0
C2048 C 0.48578 0.67758 0.95326 0.0
C2049 C 0.52806 0.69808 0.97943 0.0
H2050 H 0.50824 0.67015 0.02475 0.0
C2051 C 0.55298 0.71552 0.05632 0.0
C2052 C 0.55664 0.70024 0.06951 0.0
C2053 C 0.545 0.71156 0.03804 0.0
C2054 C 0.51418 0.67755 0.01204 0.0
H2055 H 0.47646 0.73179 0.93876 0.0
H2056 H 0.50088 0.7241 0.96357 0.0
H2057 H 0.48938 0.67022 0.99435 0.0
H2058 H 0.55473 0.66892 0.07431 0.0
H2059 H 0.54032 0.66196 0.04216 0.0
H2060 H 0.55232 0.70629 0.99738 0.0
C2061 C 0.49308 0.71218 0.95661 0.0
C2062 C 0.50342 0.67757 0.99468 0.0
C2063 C 0.47899 0.7166 0.9426 0.0
C2064 C 0.55195 0.68093 0.06431 0.0
C2065 C 0.5438 0.67695 0.04599 0.0
C2066 C 0.53879 0.69804 0.99674 0.0
C2067 C 0.49644 0.69267 0.96221 0.0
C2068 C 0.50988 0.6886 0.97857 0.0
C2069 C 0.54048 0.69225 0.03265 0.0
C2070 C 0.53147 0.68854 0.01343 0.0
H2071 H 0.46361 0.6702 0.93232 0.0
H2072 H 0.48814 0.66245 0.95741 0.0
H2073 H 0.53343 0.70642 0.96706 0.0
H2074 H 0.55647 0.73054 0.06003 0.0
H2075 H 0.54215 0.72367 0.02818 0.0
C2076 C 0.29421 0.48197 0.9435 0.0
C2077 C 0.30704 0.46805 0.9357 0.0
C2078 C 0.30126 0.49652 0.95584 0.0
C2079 C 0.33618 0.50321 0.9933 0.0
H2080 H 0.31469 0.55578 0.99266 0.0
C2081 C 0.32671 0.55049 0.06305 0.0
C2082 C 0.30689 0.55555 0.06512 0.0
C2083 C 0.33364 0.54328 0.04521 0.0
C2084 C 0.32117 0.5413 0.9929 0.0
H2085 H 0.33726 0.45847 0.93399 0.0
H2086 H 0.34956 0.48369 0.95643 0.0
H2087 H 0.31484 0.53644 0.96264 0.0
H2088 H 0.27877 0.55722 0.0505 0.0
H2089 H 0.29078 0.54466 0.0195 0.0
H2090 H 0.34083 0.50742 0.02398 0.0
C2091 C 0.33416 0.48347 0.95267 0.0
C2092 C 0.32128 0.53029 0.97578 0.0
C2093 C 0.32712 0.46908 0.94 0.0
C2094 C 0.29411 0.55335 0.04926 0.0
C2095 C 0.30104 0.54644 0.03146 0.0
C2096 C 0.33602 0.51422 0.01048 0.0
C2097 C 0.32123 0.49721 0.96075 0.0
C2098 C 0.32759 0.51075 0.9762 0.0
C2099 C 0.32086 0.54146 0.02924 0.0
C2100 C 0.3273 0.53283 0.0106 0.0
H2101 H 0.27869 0.48151 0.94024 0.0
H2102 H 0.29094 0.50674 0.96221 0.0
H2103 H 0.34109 0.48813 0.99394 0.0
H2104 H 0.33682 0.55217 0.07515 0.0
H2105 H 0.34893 0.53928 0.04383 0.0
C2106 C 0.70867 0.55606 0.96775 0.0
C2107 C 0.69725 0.55594 0.95072 0.0
C2108 C 0.6999 0.55374 0.98597 0.0
C2109 C 0.66133 0.52942 0.01031 0.0
H2110 H 0.67988 0.5607 0.05389 0.0
C2111 C 0.67116 0.4919 0.08168 0.0
C2112 C 0.69135 0.49247 0.08537 0.0
C2113 C 0.6624 0.50659 0.07041 0.0
C2114 C 0.67414 0.55203 0.04192 0.0
H2115 H 0.66785 0.55295 0.93914 0.0
H2116 H 0.65254 0.54785 0.97129 0.0
H2117 H 0.68331 0.57301 0.02051 0.0
H2118 H 0.71767 0.50993 0.08308 0.0
H2119 H 0.7027 0.53532 0.06338 0.0
H2120 H 0.65421 0.50748 0.03129 0.0
C2121 C 0.66818 0.55025 0.97043 0.0
C2122 C 0.67613 0.55907 0.02286 0.0
C2123 C 0.67695 0.55294 0.95213 0.0
C2124 C 0.70213 0.50903 0.08001 0.0
C2125 C 0.69341 0.52373 0.06892 0.0
C2126 C 0.65952 0.52229 0.02936 0.0
C2127 C 0.67959 0.551 0.98749 0.0
C2128 C 0.67105 0.54715 0.00692 0.0
C2129 C 0.67379 0.52197 0.06285 0.0
C2130 C 0.66742 0.53286 0.04518 0.0
H2131 H 0.72432 0.55851 0.96706 0.0
H2132 H 0.70907 0.55383 0.99892 0.0
H2133 H 0.6572 0.52004 0.99822 0.0
H2134 H 0.66248 0.47938 0.0861 0.0
H2135 H 0.64719 0.50503 0.06624 0.0
C2136 C 0.2444 0.2029 0.36547 0.0
C2137 C 0.24495 0.18571 0.35419 0.0
C2138 C 0.22981 0.21692 0.36233 0.0
C2139 C 0.19936 0.23417 0.32187 0.0
H2140 H 0.17862 0.27006 0.3606 0.0
C2141 C 0.1578 0.30211 0.29695 0.0
C2142 C 0.16419 0.31964 0.30554 0.0
C2143 C 0.16234 0.2841 0.30553 0.0
C2144 C 0.18429 0.26015 0.34962 0.0
H2145 H 0.22973 0.16891 0.33204 0.0
H2146 H 0.20407 0.19326 0.32671 0.0
H2147 H 0.19636 0.24077 0.37122 0.0
H2148 H 0.17918 0.3322 0.33048 0.0
H2149 H 0.18745 0.30078 0.34533 0.0
H2150 H 0.18819 0.25375 0.30026 0.0
C2151 C 0.21517 0.19613 0.33766 0.0
C2152 C 0.19444 0.24338 0.3557 0.0
C2153 C 0.22981 0.18216 0.34074 0.0
C2154 C 0.17397 0.3189 0.32361 0.0
C2155 C 0.17868 0.30086 0.33213 0.0
C2156 C 0.1893 0.25088 0.31581 0.0
C2157 C 0.21544 0.214 0.34788 0.0
C2158 C 0.20241 0.23039 0.34186 0.0
C2159 C 0.17357 0.28324 0.32278 0.0
C2160 C 0.18194 0.26429 0.32958 0.0
H2161 H 0.25598 0.20613 0.37582 0.0
H2162 H 0.23058 0.23058 0.37033 0.0
H2163 H 0.20565 0.22475 0.31078 0.0
H2164 H 0.15002 0.30231 0.28313 0.0
H2165 H 0.15776 0.27082 0.2982 0.0
C2166 C 0.69288 0.1702 0.32477 0.0
C2167 C 0.69279 0.15912 0.30746 0.0
C2168 C 0.71058 0.17621 0.33309 0.0
C2169 C 0.75923 0.18902 0.31578 0.0
H2170 H 0.76943 0.20011 0.37047 0.0
C2171 C 0.8221 0.23974 0.33603 0.0
C2172 C 0.81701 0.2546 0.34925 0.0
C2173 C 0.81044 0.22304 0.33427 0.0
C2174 C 0.7668 0.1971 0.35514 0.0
H2175 H 0.71101 0.1439 0.28645 0.0
H2176 H 0.74193 0.15419 0.3011 0.0
H2177 H 0.74184 0.17913 0.36148 0.0
H2178 H 0.7965 0.26321 0.37182 0.0
H2179 H 0.77584 0.2344 0.36843 0.0
H2180 H 0.78327 0.20772 0.3092 0.0
C2181 C 0.72836 0.15863 0.30799 0.0
C2182 C 0.75103 0.18506 0.35 0.0
C2183 C 0.71069 0.15271 0.29963 0.0
C2184 C 0.80083 0.25188 0.36161 0.0
C2185 C 0.78902 0.2353 0.35968 0.0
C2186 C 0.77485 0.20109 0.32087 0.0
C2187 C 0.7285 0.17119 0.32428 0.0
C2188 C 0.74682 0.18126 0.33023 0.0
C2189 C 0.79326 0.22103 0.34546 0.0
C2190 C 0.77859 0.20569 0.34058 0.0
H2191 H 0.6793 0.17545 0.33105 0.0
H2192 H 0.71015 0.18598 0.34556 0.0
H2193 H 0.75621 0.18675 0.30039 0.0
H2194 H 0.83466 0.24141 0.3265 0.0
H2195 H 0.81443 0.21211 0.32351 0.0
C2196 C 0.84569 0.70561 0.31552 0.0
C2197 C 0.85315 0.70435 0.29639 0.0
C2198 C 0.84231 0.72382 0.32414 0.0
C2199 C 0.82876 0.7728 0.30824 0.0
H2200 H 0.82762 0.78316 0.364 0.0
C2201 C 0.78037 0.83389 0.33646 0.0
C2202 C 0.76749 0.82746 0.35112 0.0
C2203 C 0.79755 0.82351 0.33254 0.0
C2204 C 0.82794 0.78055 0.34838 0.0
H2205 H 0.86463 0.72112 0.27203 0.0
H2206 H 0.85881 0.753 0.28714 0.0
H2207 H 0.8464 0.75535 0.35156 0.0
H2208 H 0.76325 0.80624 0.37432 0.0
H2209 H 0.79292 0.7879 0.36731 0.0
H2210 H 0.80946 0.79709 0.305 0.0
C2211 C 0.85522 0.73989 0.29532 0.0
C2212 C 0.83869 0.76463 0.34125 0.0
C2213 C 0.85855 0.72166 0.28666 0.0
C2214 C 0.77298 0.8116 0.363 0.0
C2215 C 0.79006 0.80109 0.35897 0.0
C2216 C 0.81802 0.78863 0.31533 0.0
C2217 C 0.84634 0.74119 0.31384 0.0
C2218 C 0.83863 0.76017 0.32116 0.0
C2219 C 0.80203 0.80635 0.34306 0.0
C2220 C 0.81688 0.7923 0.33555 0.0
H2221 H 0.84117 0.69257 0.32334 0.0
H2222 H 0.83524 0.72424 0.33831 0.0
H2223 H 0.82811 0.76967 0.29271 0.0
H2224 H 0.77655 0.84625 0.32726 0.0
H2225 H 0.8067 0.82823 0.32049 0.0
C2226 C 0.18287 0.78013 0.33822 0.0
C2227 C 0.18791 0.76611 0.3524 0.0
C2228 C 0.19482 0.7964 0.33505 0.0
C2229 C 0.23897 0.82302 0.35345 0.0
H2230 H 0.25066 0.82711 0.29811 0.0
C2231 C 0.31479 0.84024 0.32251 0.0
C2232 C 0.3164 0.84846 0.30372 0.0
C2233 C 0.29642 0.8374 0.33099 0.0
C2234 C 0.24733 0.82669 0.3136 0.0
H2235 H 0.20871 0.75867 0.37519 0.0
H2236 H 0.22979 0.78679 0.36943 0.0
H2237 H 0.22248 0.80854 0.30861 0.0
H2238 H 0.30034 0.86219 0.28005 0.0
H2239 H 0.26821 0.85746 0.29497 0.0
H2240 H 0.26466 0.84036 0.35834 0.0
C2241 C 0.21645 0.78551 0.36098 0.0
C2242 C 0.23108 0.81596 0.31965 0.0
C2243 C 0.2044 0.76933 0.36425 0.0
C2244 C 0.29947 0.85549 0.29441 0.0
C2245 C 0.2811 0.85276 0.30293 0.0
C2246 C 0.2553 0.83378 0.34737 0.0
C2247 C 0.21217 0.79885 0.34586 0.0
C2248 C 0.22707 0.81343 0.33967 0.0
C2249 C 0.27931 0.84278 0.32086 0.0
C2250 C 0.26003 0.83516 0.32738 0.0
H2251 H 0.17005 0.77812 0.3291 0.0
H2252 H 0.1909 0.80661 0.32356 0.0
H2253 H 0.23609 0.82161 0.36898 0.0
H2254 H 0.32757 0.83457 0.33002 0.0
H2255 H 0.29562 0.82955 0.34475 0.0
C2256 C 0.16249 0.6972 0.70238 0.0
C2257 C 0.17544 0.68946 0.71647 0.0
C2258 C 0.16602 0.71563 0.694 0.0
C2259 C 0.19266 0.76142 0.70352 0.0
H2260 H 0.19681 0.7673 0.64725 0.0
C2261 C 0.24431 0.80634 0.64912 0.0
C2262 C 0.24562 0.82381 0.65984 0.0
C2263 C 0.22941 0.7929 0.65306 0.0
C2264 C 0.19556 0.76595 0.66299 0.0
H2265 H 0.20277 0.69466 0.73189 0.0
H2266 H 0.20849 0.72664 0.71783 0.0
H2267 H 0.183 0.7372 0.66102 0.0
H2268 H 0.23137 0.84198 0.68151 0.0
H2269 H 0.20491 0.81884 0.68798 0.0
H2270 H 0.20639 0.78927 0.70582 0.0
C2271 C 0.19541 0.71875 0.71356 0.0
C2272 C 0.18749 0.74881 0.67084 0.0
C2273 C 0.19205 0.7004 0.7217 0.0
C2274 C 0.23077 0.82847 0.67323 0.0
C2275 C 0.21571 0.81517 0.67698 0.0
C2276 C 0.2007 0.77846 0.69574 0.0
C2277 C 0.18242 0.72664 0.69973 0.0
C2278 C 0.18675 0.7461 0.6912 0.0
C2279 C 0.21544 0.79678 0.66769 0.0
C2280 C 0.20296 0.78066 0.67539 0.0
H2281 H 0.14959 0.68912 0.69799 0.0
H2282 H 0.15585 0.72138 0.68326 0.0
H2283 H 0.19203 0.75978 0.71928 0.0
H2284 H 0.25567 0.80234 0.63881 0.0
H2285 H 0.22983 0.77887 0.64572 0.0
C2286 C 0.30649 0.16643 0.70544 0.0
C2287 C 0.32494 0.16881 0.69669 0.0
C2288 C 0.28941 0.1688 0.69446 0.0
C2289 C 0.27339 0.19753 0.65273 0.0
H2290 H 0.2232 0.1736 0.664 0.0
C2291 C 0.20433 0.23796 0.63122 0.0
C2292 C 0.19147 0.24038 0.6471 0.0
C2293 C 0.21833 0.22304 0.63143 0.0
C2294 C 0.23711 0.18038 0.66059 0.0
H2295 H 0.3399 0.17403 0.66913 0.0
H2296 H 0.31009 0.17776 0.64994 0.0
H2297 H 0.25327 0.15803 0.67565 0.0
H2298 H 0.18155 0.22752 0.67437 0.0
H2299 H 0.20642 0.20212 0.67519 0.0
H2300 H 0.25748 0.22049 0.63886 0.0
C2301 C 0.30885 0.1744 0.66538 0.0
C2302 C 0.25432 0.17145 0.66725 0.0
C2303 C 0.32594 0.1721 0.67638 0.0
C2304 C 0.19159 0.22635 0.66216 0.0
C2305 C 0.20572 0.21157 0.66248 0.0
C2306 C 0.25626 0.20647 0.64617 0.0
C2307 C 0.29041 0.17353 0.67445 0.0
C2308 C 0.27259 0.18034 0.66401 0.0
C2309 C 0.2199 0.21037 0.64761 0.0
C2310 C 0.23785 0.19842 0.65066 0.0
H2311 H 0.30522 0.16349 0.72097 0.0
H2312 H 0.27545 0.16813 0.70194 0.0
H2313 H 0.28717 0.20494 0.65018 0.0
H2314 H 0.20465 0.24844 0.61933 0.0
H2315 H 0.22872 0.22222 0.6195 0.0
C2316 C 0.77706 0.17893 0.67314 0.0
C2317 C 0.76396 0.18272 0.65776 0.0
C2318 C 0.79224 0.19197 0.6772 0.0
C2319 C 0.81771 0.23715 0.65978 0.0
H2320 H 0.81733 0.24983 0.71506 0.0
C2321 C 0.83485 0.31352 0.69095 0.0
C2322 C 0.84249 0.31495 0.70998 0.0
C2323 C 0.83116 0.29519 0.68267 0.0
C2324 C 0.81808 0.24627 0.69964 0.0
H2325 H 0.75713 0.20236 0.6338 0.0
H2326 H 0.78335 0.22539 0.6411 0.0
H2327 H 0.80026 0.22101 0.7037 0.0
H2328 H 0.85399 0.29851 0.73455 0.0
H2329 H 0.84791 0.26646 0.71998 0.0
H2330 H 0.83487 0.26313 0.65577 0.0
C2331 C 0.7822 0.2122 0.64983 0.0
C2332 C 0.80825 0.22966 0.69309 0.0
C2333 C 0.76712 0.19904 0.64566 0.0
C2334 C 0.84781 0.29777 0.71996 0.0
C2335 C 0.84428 0.27946 0.71164 0.0
C2336 C 0.82758 0.25386 0.66636 0.0
C2337 C 0.79446 0.2092 0.66612 0.0
C2338 C 0.80754 0.22512 0.67304 0.0
C2339 C 0.83516 0.27795 0.69325 0.0
C2340 C 0.82748 0.25883 0.68633 0.0
H2341 H 0.77504 0.16629 0.68252 0.0
H2342 H 0.8017 0.18901 0.68959 0.0
H2343 H 0.81763 0.23393 0.64426 0.0
H2344 H 0.83048 0.32654 0.68299 0.0
H2345 H 0.82397 0.29458 0.66856 0.0
C2346 C 0.70177 0.81195 0.71714 0.0
C2347 C 0.69038 0.8286 0.71302 0.0
C2348 C 0.72029 0.80977 0.70901 0.0
C2349 C 0.75057 0.82094 0.66766 0.0
H2350 H 0.79137 0.80297 0.70284 0.0
C2351 C 0.83065 0.77874 0.67108 0.0
C2352 C 0.82591 0.76355 0.6581 0.0
C2353 C 0.81749 0.79407 0.67424 0.0
C2354 C 0.78047 0.80846 0.69272 0.0
H2355 H 0.68935 0.85571 0.69642 0.0
H2356 H 0.72186 0.85148 0.68162 0.0
H2357 H 0.76114 0.81582 0.71616 0.0
H2358 H 0.80462 0.75332 0.63696 0.0
H2359 H 0.78145 0.77964 0.64282 0.0
H2360 H 0.76965 0.81271 0.64415 0.0
C2361 C 0.71635 0.84039 0.69152 0.0
C2362 C 0.76303 0.81564 0.70041 0.0
C2363 C 0.69777 0.84273 0.69993 0.0
C2364 C 0.80868 0.7649 0.64699 0.0
C2365 C 0.7954 0.78009 0.65033 0.0
C2366 C 0.76811 0.8137 0.65989 0.0
C2367 C 0.72785 0.82401 0.6963 0.0
C2368 C 0.74761 0.82108 0.68798 0.0
C2369 C 0.7992 0.79428 0.66475 0.0
C2370 C 0.78292 0.80657 0.67237 0.0
H2371 H 0.69632 0.8004 0.72653 0.0
H2372 H 0.72865 0.79673 0.71249 0.0
H2373 H 0.73887 0.8251 0.65779 0.0
H2374 H 0.844 0.77812 0.67963 0.0
H2375 H 0.82109 0.80504 0.6851 0.0
C2376 C 0.33398 0.22827 0.18689 0.0
C2377 C 0.3481 0.24219 0.19224 0.0
C2378 C 0.33116 0.21153 0.19828 0.0
C2379 C 0.35013 0.18348 0.24136 0.0
H2380 H 0.29488 0.17907 0.25337 0.0
C2381 C 0.31977 0.16391 0.31682 0.0
C2382 C 0.30075 0.15628 0.31832 0.0
C2383 C 0.32823 0.16698 0.29847 0.0
C2384 C 0.31034 0.17955 0.24993 0.0
H2385 H 0.37119 0.24904 0.21284 0.0
H2386 H 0.36596 0.2201 0.23308 0.0
H2387 H 0.30511 0.19857 0.22577 0.0
H2388 H 0.27661 0.14366 0.30213 0.0
H2389 H 0.29156 0.14856 0.27004 0.0
H2390 H 0.35525 0.16521 0.26638 0.0
C2391 C 0.3573 0.22182 0.21991 0.0
C2392 C 0.31625 0.19083 0.23401 0.0
C2393 C 0.36026 0.23846 0.20838 0.0
C2394 C 0.29118 0.14986 0.30131 0.0
C2395 C 0.29972 0.15274 0.28297 0.0
C2396 C 0.34419 0.17214 0.25736 0.0
C2397 C 0.34222 0.20854 0.2154 0.0
C2398 C 0.33622 0.19348 0.2299 0.0
C2399 C 0.31785 0.16236 0.2813 0.0
C2400 C 0.32424 0.1706 0.26221 0.0
H2401 H 0.32464 0.2307 0.17431 0.0
H2402 H 0.31971 0.20138 0.19417 0.0
H2403 H 0.36562 0.18501 0.2384 0.0
H2404 H 0.32745 0.16907 0.3297 0.0
H2405 H 0.34215 0.17451 0.29779 0.0
C2406 C 0.7661 0.32824 0.17087 0.0
C2407 C 0.74884 0.33917 0.17289 0.0
C2408 C 0.78059 0.32906 0.18523 0.0
C2409 C 0.79629 0.35389 0.23133 0.0
H2410 H 0.81203 0.30117 0.24535 0.0
C2411 C 0.82073 0.32992 0.30877 0.0
C2412 C 0.83316 0.31363 0.31046 0.0
C2413 C 0.81521 0.33685 0.2903 0.0
C2414 C 0.80827 0.31608 0.24147 0.0
H2415 H 0.73357 0.36042 0.19074 0.0
H2416 H 0.75867 0.36148 0.21625 0.0
H2417 H 0.79354 0.30654 0.21573 0.0
H2418 H 0.85114 0.29302 0.29451 0.0
H2419 H 0.84216 0.30554 0.26225 0.0
H2420 H 0.81051 0.3632 0.25775 0.0
C2421 C 0.76125 0.35256 0.20341 0.0
C2422 C 0.79759 0.31918 0.22439 0.0
C2423 C 0.74684 0.35193 0.18886 0.0
C2424 C 0.84141 0.30552 0.29352 0.0
C2425 C 0.83613 0.3126 0.27509 0.0
C2426 C 0.80706 0.35078 0.24853 0.0
C2427 C 0.77795 0.34055 0.2021 0.0
C2428 C 0.79121 0.33805 0.2192 0.0
C2429 C 0.82217 0.32767 0.27323 0.0
C2430 C 0.81293 0.33176 0.25393 0.0
H2431 H 0.76801 0.31846 0.15854 0.0
H2432 H 0.79349 0.32 0.18353 0.0
H2433 H 0.79171 0.36864 0.22768 0.0
H2434 H 0.81408 0.33631 0.32167 0.0
H2435 H 0.80437 0.3484 0.28945 0.0
C2436 C 0.63594 0.75788 0.20794 0.0
C2437 C 0.64525 0.75828 0.18965 0.0
C2438 C 0.63754 0.77381 0.22066 0.0
C2439 C 0.64387 0.80886 0.24702 0.0
H2440 H 0.69892 0.82256 0.24639 0.0
C2441 C 0.68753 0.84544 0.31188 0.0
C2442 C 0.70381 0.8338 0.31697 0.0
C2443 C 0.67698 0.84161 0.29466 0.0
C2444 C 0.68343 0.81917 0.24662 0.0
H2445 H 0.66127 0.77635 0.16918 0.0
H2446 H 0.66341 0.80456 0.19101 0.0
H2447 H 0.68451 0.8071 0.21799 0.0
H2448 H 0.7208 0.80824 0.30858 0.0
H2449 H 0.70298 0.80213 0.2786 0.0
H2450 H 0.64357 0.81968 0.27655 0.0
C2451 C 0.65549 0.79173 0.19591 0.0
C2452 C 0.67504 0.81046 0.23023 0.0
C2453 C 0.65418 0.77566 0.18334 0.0
C2454 C 0.70889 0.81801 0.3048 0.0
C2455 C 0.6986 0.81441 0.28764 0.0
C2456 C 0.65235 0.81762 0.26351 0.0
C2457 C 0.64834 0.79049 0.2152 0.0
C2458 C 0.65538 0.80433 0.23051 0.0
C2459 C 0.68272 0.82626 0.28225 0.0
C2460 C 0.67243 0.82196 0.26371 0.0
H2461 H 0.62903 0.74459 0.21317 0.0
H2462 H 0.63189 0.7722 0.23537 0.0
H2463 H 0.62861 0.80463 0.24762 0.0
H2464 H 0.68317 0.85765 0.321 0.0
H2465 H 0.66464 0.85083 0.29085 0.0
C2466 C 0.22923 0.67025 0.18698 0.0
C2467 C 0.2429 0.65485 0.18773 0.0
C2468 C 0.21428 0.67154 0.20087 0.0
C2469 C 0.20749 0.65724 0.25184 0.0
H2470 H 0.1581 0.68468 0.24626 0.0
C2471 C 0.16954 0.68539 0.31981 0.0
C2472 C 0.16484 0.70545 0.31884 0.0
C2473 C 0.1727 0.67465 0.30274 0.0
C2474 C 0.17182 0.67692 0.24803 0.0
H2475 H 0.25027 0.6277 0.20268 0.0
H2476 H 0.22376 0.62951 0.22612 0.0
H2477 H 0.17553 0.67346 0.21706 0.0
H2478 H 0.15757 0.72924 0.29905 0.0
H2479 H 0.16413 0.7108 0.26935 0.0
H2480 H 0.2045 0.66146 0.28254 0.0
C2481 C 0.22498 0.64094 0.21519 0.0
C2482 C 0.18179 0.6705 0.23133 0.0
C2483 C 0.24007 0.63978 0.20151 0.0
C2484 C 0.16172 0.71399 0.30036 0.0
C2485 C 0.16517 0.7033 0.28328 0.0
C2486 C 0.19758 0.66361 0.26844 0.0
C2487 C 0.21254 0.65733 0.21567 0.0
C2488 C 0.20003 0.66108 0.23305 0.0
C2489 C 0.17157 0.68376 0.28432 0.0
C2490 C 0.1799 0.67402 0.26676 0.0
H2491 H 0.23065 0.68185 0.17626 0.0
H2492 H 0.20497 0.68439 0.20077 0.0
H2493 H 0.22168 0.65042 0.25379 0.0
H2494 H 0.1721 0.6782 0.3337 0.0
H2495 H 0.17717 0.65948 0.30404 0.0
C2496 C 0.32315 0.83882 0.69534 0.0
C2497 C 0.30452 0.84753 0.69484 0.0
C2498 C 0.3323 0.83493 0.71323 0.0
C2499 C 0.31716 0.82335 0.76313 0.0
H2500 H 0.37294 0.8176 0.77192 0.0
C2501 C 0.34342 0.77758 0.82733 0.0
C2502 C 0.35693 0.76306 0.82195 0.0
C2503 C 0.3404 0.79387 0.81532 0.0
C2504 C 0.35732 0.81919 0.76972 0.0
H2505 H 0.28175 0.86082 0.71242 0.0
H2506 H 0.29791 0.85446 0.74368 0.0
H2507 H 0.36122 0.83625 0.74364 0.0
H2508 H 0.37898 0.75486 0.80073 0.0
H2509 H 0.37348 0.78303 0.77953 0.0
H2510 H 0.31309 0.80559 0.78845 0.0
C2511 C 0.30522 0.85012 0.73031 0.0
C2512 C 0.35061 0.82987 0.75353 0.0
C2513 C 0.296 0.85384 0.71244 0.0
C2514 C 0.36856 0.76593 0.80526 0.0
C2515 C 0.3654 0.78212 0.79313 0.0
C2516 C 0.32383 0.81273 0.77924 0.0
C2517 C 0.32304 0.83978 0.73096 0.0
C2518 C 0.33043 0.8316 0.74976 0.0
C2519 C 0.35064 0.7958 0.79756 0.0
C2520 C 0.34398 0.81004 0.78246 0.0
H2521 H 0.32999 0.83366 0.68201 0.0
H2522 H 0.34593 0.82682 0.71314 0.0
H2523 H 0.30153 0.82399 0.76055 0.0
H2524 H 0.33444 0.77579 0.84027 0.0
H2525 H 0.32926 0.80439 0.81941 0.0
C2526 C 0.1601 0.30992 0.69625 0.0
C2527 C 0.17506 0.29817 0.6883 0.0
C2528 C 0.16265 0.319 0.7145 0.0
C2529 C 0.18953 0.31223 0.75989 0.0
H2530 H 0.18856 0.36846 0.76759 0.0
C2531 C 0.23646 0.36797 0.80691 0.0
C2532 C 0.23866 0.35629 0.82367 0.0
C2533 C 0.22146 0.3641 0.79355 0.0
C2534 C 0.18867 0.35271 0.76575 0.0
H2535 H 0.20489 0.288 0.69261 0.0
H2536 H 0.20899 0.30321 0.72439 0.0
H2537 H 0.17675 0.35453 0.73666 0.0
H2538 H 0.22577 0.33311 0.84096 0.0
H2539 H 0.199 0.32685 0.8181 0.0
H2540 H 0.20261 0.31014 0.78805 0.0
C2541 C 0.19521 0.30513 0.71675 0.0
C2542 C 0.18178 0.34477 0.74813 0.0
C2543 C 0.19279 0.29633 0.69858 0.0
C2544 C 0.22437 0.34222 0.82803 0.0
C2545 C 0.20918 0.33856 0.81486 0.0
C2546 C 0.19632 0.32008 0.77741 0.0
C2547 C 0.18009 0.31626 0.72504 0.0
C2548 C 0.18297 0.32453 0.74481 0.0
C2549 C 0.20832 0.34858 0.79686 0.0
C2550 C 0.19672 0.34047 0.7803 0.0
H2551 H 0.14631 0.31169 0.68863 0.0
H2552 H 0.15085 0.32765 0.72061 0.0
H2553 H 0.19045 0.29654 0.75769 0.0
H2554 H 0.24743 0.37881 0.80318 0.0
H2555 H 0.22136 0.37207 0.77985 0.0
C2556 C 0.70864 0.15848 0.70713 0.0
C2557 C 0.70152 0.16033 0.68791 0.0
C2558 C 0.69683 0.16338 0.72306 0.0
C2559 C 0.65729 0.19785 0.73243 0.0
H2560 H 0.66446 0.18063 0.78603 0.0
C2561 C 0.63319 0.24704 0.79528 0.0
C2562 C 0.64805 0.25037 0.80913 0.0
C2563 C 0.63433 0.23114 0.78251 0.0
C2564 C 0.66222 0.18554 0.77112 0.0
H2565 H 0.67557 0.16665 0.67057 0.0
H2566 H 0.65485 0.17436 0.69835 0.0
H2567 H 0.67586 0.15994 0.75916 0.0
H2568 H 0.67489 0.23871 0.82149 0.0
H2569 H 0.67725 0.21139 0.79878 0.0
H2570 H 0.64461 0.2238 0.74422 0.0
C2571 C 0.66979 0.16977 0.70107 0.0
C2572 C 0.66873 0.1737 0.75574 0.0
C2573 C 0.68166 0.1651 0.68512 0.0
C2574 C 0.66341 0.23676 0.81072 0.0
C2575 C 0.6646 0.22091 0.79789 0.0
C2576 C 0.65077 0.20961 0.74774 0.0
C2577 C 0.67756 0.17001 0.72013 0.0
C2578 C 0.66698 0.18007 0.73624 0.0
C2579 C 0.6504 0.21829 0.78322 0.0
C2580 C 0.65379 0.20394 0.76728 0.0
H2581 H 0.7237 0.15431 0.70984 0.0
H2582 H 0.70334 0.16335 0.73751 0.0
H2583 H 0.65595 0.20344 0.71765 0.0
H2584 H 0.62117 0.25725 0.79359 0.0
H2585 H 0.62303 0.22936 0.77153 0.0
C2586 C 0.83778 0.68696 0.69726 0.0
C2587 C 0.84677 0.70543 0.69618 0.0
C2588 C 0.83306 0.67877 0.7154 0.0
C2589 C 0.81913 0.6966 0.76357 0.0
H2590 H 0.81412 0.64141 0.7759 0.0
C2591 C 0.77317 0.67262 0.8291 0.0
C2592 C 0.75973 0.65761 0.82508 0.0
C2593 C 0.78883 0.67614 0.81645 0.0
C2594 C 0.81543 0.65688 0.77267 0.0
H2595 H 0.85978 0.72881 0.71317 0.0
H2596 H 0.85174 0.71442 0.74489 0.0
H2597 H 0.83363 0.65157 0.74766 0.0
H2598 H 0.7526 0.63393 0.80525 0.0
H2599 H 0.77963 0.6403 0.78292 0.0
H2600 H 0.80023 0.702 0.78778 0.0
C2601 C 0.84791 0.70649 0.73172 0.0
C2602 C 0.82663 0.66269 0.75653 0.0
C2603 C 0.85255 0.7147 0.71359 0.0
C2604 C 0.76284 0.6455 0.80878 0.0
C2605 C 0.7784 0.64913 0.79602 0.0
C2606 C 0.80792 0.69081 0.7796 0.0
C2607 C 0.8373 0.68889 0.73281 0.0
C2608 C 0.82823 0.68261 0.75155 0.0
C2609 C 0.79123 0.66488 0.79938 0.0
C2610 C 0.80553 0.67087 0.78409 0.0
H2611 H 0.83301 0.67952 0.6841 0.0
H2612 H 0.82478 0.66526 0.71569 0.0
H2613 H 0.81969 0.71204 0.75997 0.0
H2614 H 0.77123 0.68199 0.84173 0.0
H2615 H 0.79868 0.68812 0.8197 0.0
C2616 C 0.295 0.2947 0.16859 0.0
C2617 C 0.31352 0.30326 0.17124 0.0
C2618 C 0.27797 0.30563 0.17161 0.0
C2619 C 0.26295 0.34705 0.20171 0.0
H2620 H 0.2119 0.33668 0.17919 0.0
C2621 C 0.19591 0.37264 0.24246 0.0
C2622 C 0.18252 0.35742 0.24605 0.0
C2623 C 0.20938 0.37119 0.22721 0.0
C2624 C 0.22608 0.33982 0.18554 0.0
H2625 H 0.32853 0.3306 0.1776 0.0
H2626 H 0.29896 0.3497 0.18194 0.0
H2627 H 0.24132 0.32428 0.16295 0.0
H2628 H 0.1712 0.32995 0.23485 0.0
H2629 H 0.19535 0.32693 0.2089 0.0
H2630 H 0.24797 0.36161 0.22477 0.0
C2631 C 0.29758 0.33439 0.17809 0.0
C2632 C 0.24291 0.33271 0.17627 0.0
C2633 C 0.31458 0.32342 0.17535 0.0
C2634 C 0.18168 0.34167 0.23283 0.0
C2635 C 0.19536 0.34009 0.21773 0.0
C2636 C 0.24622 0.35413 0.21092 0.0
C2637 C 0.2791 0.32542 0.17713 0.0
C2638 C 0.26149 0.33575 0.1846 0.0
C2639 C 0.21 0.35436 0.21541 0.0
C2640 C 0.22754 0.35011 0.2033 0.0
H2641 H 0.29362 0.27933 0.16493 0.0
H2642 H 0.26399 0.29821 0.17078 0.0
H2643 H 0.27693 0.34938 0.2088 0.0
H2644 H 0.19706 0.38502 0.25228 0.0
H2645 H 0.22018 0.38267 0.2255 0.0
C2646 C 0.20582 0.63404 0.77259 0.0
C2647 C 0.18824 0.64464 0.77191 0.0
C2648 C 0.21855 0.63623 0.78844 0.0
C2649 C 0.24558 0.64454 0.82245 0.0
H2650 H 0.24818 0.70072 0.83006 0.0
C2651 C 0.31386 0.68869 0.85158 0.0
C2652 C 0.31936 0.70288 0.83762 0.0
C2653 C 0.29598 0.67874 0.84979 0.0
C2654 C 0.24749 0.68495 0.82843 0.0
H2655 H 0.16882 0.66364 0.78814 0.0
H2656 H 0.19058 0.66677 0.81633 0.0
H2657 H 0.21863 0.68634 0.81695 0.0
H2658 H 0.31088 0.71664 0.8102 0.0
H2659 H 0.27976 0.69998 0.80759 0.0
H2660 H 0.2754 0.64378 0.83248 0.0
C2661 C 0.19499 0.65737 0.80436 0.0
C2662 C 0.23044 0.67659 0.82106 0.0
C2663 C 0.18243 0.65549 0.78832 0.0
C2664 C 0.30686 0.70645 0.82166 0.0
C2665 C 0.28904 0.6968 0.82007 0.0
C2666 C 0.26275 0.65299 0.82984 0.0
C2667 C 0.21379 0.6489 0.80397 0.0
C2668 C 0.22958 0.65641 0.81701 0.0
C2669 C 0.2833 0.68306 0.83418 0.0
C2670 C 0.2641 0.67339 0.8319 0.0
H2671 H 0.21064 0.62565 0.76003 0.0
H2672 H 0.23287 0.6295 0.78749 0.0
H2673 H 0.2453 0.62891 0.81986 0.0
H2674 H 0.32319 0.68552 0.864 0.0
H2675 H 0.29188 0.66802 0.86074 0.0
C2676 C 0.34406 0.19442 0.76845 0.0
C2677 C 0.36009 0.19469 0.75557 0.0
C2678 C 0.34243 0.20842 0.78324 0.0
C2679 C 0.35669 0.25913 0.79033 0.0
H2680 H 0.32617 0.25363 0.83787 0.0
C2681 C 0.30159 0.31557 0.81459 0.0
C2682 C 0.30113 0.32182 0.83413 0.0
C2683 C 0.31369 0.30022 0.80897 0.0
C2684 C 0.33509 0.25536 0.82488 0.0
H2685 H 0.38779 0.20892 0.7492 0.0
H2686 H 0.38519 0.2329 0.77533 0.0
H2687 H 0.33967 0.22444 0.82198 0.0
H2688 H 0.3131 0.31722 0.86314 0.0
H2689 H 0.33416 0.28956 0.85326 0.0
H2690 H 0.35127 0.28988 0.79265 0.0
C2691 C 0.37368 0.22212 0.77374 0.0
C2692 C 0.34265 0.23869 0.81569 0.0
C2693 C 0.37524 0.20823 0.75885 0.0
C2694 C 0.31317 0.31251 0.848 0.0
C2695 C 0.32514 0.29679 0.84239 0.0
C2696 C 0.34911 0.2757 0.79946 0.0
C2697 C 0.35686 0.22291 0.78554 0.0
C2698 C 0.35283 0.24036 0.79786 0.0
C2699 C 0.32554 0.29066 0.82277 0.0
C2700 C 0.33753 0.27388 0.8163 0.0
H2701 H 0.33235 0.18391 0.76658 0.0
H2702 H 0.32921 0.20863 0.79198 0.0
H2703 H 0.36429 0.26102 0.77655 0.0
H2704 H 0.29268 0.32272 0.80356 0.0
H2705 H 0.31356 0.29561 0.7938 0.0
C2706 C 0.68422 0.32899 0.83219 0.0
C2707 C 0.68453 0.30857 0.835 0.0
C2708 C 0.70166 0.33949 0.83062 0.0
C2709 C 0.75604 0.33579 0.83419 0.0
H2710 H 0.75399 0.3649 0.78553 0.0
C2711 C 0.81956 0.34036 0.78009 0.0
C2712 C 0.82003 0.35562 0.76626 0.0
C2713 C 0.80522 0.34001 0.79464 0.0
C2714 C 0.75493 0.35738 0.79946 0.0
H2715 H 0.70338 0.28355 0.84032 0.0
H2716 H 0.7338 0.30172 0.83674 0.0
H2717 H 0.72394 0.35433 0.80067 0.0
H2718 H 0.80701 0.38362 0.75839 0.0
H2719 H 0.7829 0.38349 0.78432 0.0
H2720 H 0.78725 0.33813 0.83232 0.0
C2721 C 0.72009 0.30966 0.83595 0.0
C2722 C 0.73757 0.35126 0.80817 0.0
C2723 C 0.70265 0.29917 0.83766 0.0
C2724 C 0.8072 0.37156 0.76868 0.0
C2725 C 0.79312 0.37139 0.78345 0.0
C2726 C 0.77349 0.34203 0.82549 0.0
C2727 C 0.71978 0.32979 0.83165 0.0
C2728 C 0.73794 0.33975 0.82521 0.0
C2729 C 0.79123 0.35509 0.79587 0.0
C2730 C 0.77314 0.35224 0.8076 0.0
H2731 H 0.67056 0.33676 0.83005 0.0
H2732 H 0.70095 0.35505 0.82759 0.0
H2733 H 0.75674 0.32717 0.84748 0.0
H2734 H 0.82958 0.32811 0.77904 0.0
H2735 H 0.80428 0.3272 0.80394 0.0
C2736 C 0.70579 0.70723 0.85278 0.0
C2737 C 0.6983 0.68824 0.85019 0.0
C2738 C 0.69397 0.72361 0.84951 0.0
C2739 C 0.65302 0.73592 0.81786 0.0
H2740 H 0.66087 0.78794 0.83908 0.0
C2741 C 0.63083 0.80105 0.77194 0.0
C2742 C 0.6463 0.81438 0.76941 0.0
C2743 C 0.63073 0.78821 0.78786 0.0
C2744 C 0.65841 0.7735 0.83305 0.0
H2745 H 0.67184 0.67168 0.844 0.0
H2746 H 0.65119 0.70018 0.83901 0.0
H2747 H 0.67303 0.75942 0.85703 0.0
H2748 H 0.67234 0.82642 0.78296 0.0
H2749 H 0.67272 0.80349 0.81013 0.0
H2750 H 0.63962 0.74975 0.79336 0.0
C2751 C 0.66636 0.7024 0.84305 0.0
C2752 C 0.66537 0.75717 0.84334 0.0
C2753 C 0.67822 0.68603 0.84613 0.0
C2754 C 0.6605 0.81596 0.78422 0.0
C2755 C 0.66055 0.80295 0.79999 0.0
C2756 C 0.64615 0.75216 0.80759 0.0
C2757 C 0.67433 0.72135 0.84375 0.0
C2758 C 0.66339 0.73826 0.83547 0.0
C2759 C 0.64623 0.78823 0.80142 0.0
C2760 C 0.64942 0.77121 0.81466 0.0
H2761 H 0.72107 0.70947 0.85638 0.0
H2762 H 0.70063 0.73798 0.85016 0.0
H2763 H 0.65147 0.72164 0.81117 0.0
H2764 H 0.61958 0.79944 0.76088 0.0
H2765 H 0.61919 0.77738 0.7888 0.0
C2766 C 0.70517 0.7137 0.18688 0.0
C2767 C 0.69329 0.70745 0.17129 0.0
C2768 C 0.72442 0.70737 0.1885 0.0
C2769 C 0.75672 0.66734 0.17941 0.0
H2770 H 0.79517 0.70595 0.19522 0.0
C2771 C 0.83504 0.67776 0.22378 0.0
C2772 C 0.83057 0.66513 0.23936 0.0
C2773 C 0.82221 0.6796 0.20794 0.0
C2774 C 0.78499 0.69485 0.19033 0.0
H2775 H 0.69231 0.68901 0.14546 0.0
H2776 H 0.72625 0.67731 0.14878 0.0
H2777 H 0.76458 0.71659 0.18078 0.0
H2778 H 0.80995 0.64352 0.25001 0.0
H2779 H 0.78733 0.64711 0.22289 0.0
H2780 H 0.77683 0.64558 0.1898 0.0
C2781 C 0.72048 0.68755 0.15941 0.0
C2782 C 0.76733 0.70102 0.18219 0.0
C2783 C 0.7011 0.69417 0.15759 0.0
C2784 C 0.81383 0.65329 0.23813 0.0
C2785 C 0.80089 0.65529 0.22245 0.0
C2786 C 0.7745 0.66111 0.18752 0.0
C2787 C 0.73233 0.69434 0.17479 0.0
C2788 C 0.75264 0.68741 0.17768 0.0
C2789 C 0.80448 0.6691 0.20758 0.0
C2790 C 0.78839 0.67487 0.19405 0.0
H2791 H 0.69952 0.72325 0.19819 0.0
H2792 H 0.73302 0.71235 0.20086 0.0
H2793 H 0.74562 0.65655 0.17599 0.0
H2794 H 0.84803 0.68685 0.22427 0.0
H2795 H 0.82567 0.69004 0.19652 0.0
C2796 C 0.31946 0.69403 0.17339 0.0
C2797 C 0.30073 0.69299 0.16498 0.0
C2798 C 0.32816 0.71218 0.177 0.0
C2799 C 0.31211 0.76209 0.18791 0.0
H2800 H 0.36782 0.77171 0.1928 0.0
C2801 C 0.33875 0.8281 0.23106 0.0
C2802 C 0.35222 0.82311 0.2458 0.0
C2803 C 0.33542 0.81541 0.2154 0.0
C2804 C 0.35222 0.76928 0.19141 0.0
H2805 H 0.27722 0.70988 0.15201 0.0
H2806 H 0.29259 0.74161 0.15784 0.0
H2807 H 0.35633 0.74296 0.17485 0.0
H2808 H 0.37373 0.80161 0.25497 0.0
H2809 H 0.36782 0.77942 0.22779 0.0
H2810 H 0.3079 0.78779 0.20509 0.0
C2811 C 0.30034 0.72846 0.1622 0.0
C2812 C 0.34563 0.75281 0.18117 0.0
C2813 C 0.29156 0.71032 0.15878 0.0
C2814 C 0.36337 0.80594 0.24376 0.0
C2815 C 0.35999 0.79322 0.22814 0.0
C2816 C 0.31866 0.77852 0.19805 0.0
C2817 C 0.31834 0.72964 0.17214 0.0
C2818 C 0.32549 0.74872 0.1798 0.0
C2819 C 0.34541 0.79744 0.21422 0.0
C2820 C 0.33879 0.78201 0.20042 0.0
H2821 H 0.32681 0.68089 0.17844 0.0
H2822 H 0.34193 0.71248 0.18484 0.0
H2823 H 0.29651 0.75928 0.18753 0.0
H2824 H 0.33017 0.8414 0.23212 0.0
H2825 H 0.32435 0.81924 0.2047 0.0
C2826 C 0.67815 0.2913 0.15095 0.0
C2827 C 0.69854 0.29264 0.14844 0.0
C2828 C 0.66958 0.27367 0.15667 0.0
C2829 C 0.67883 0.22077 0.1668 0.0
H2830 H 0.64736 0.23162 0.21269 0.0
C2831 C 0.67252 0.16886 0.23286 0.0
C2832 C 0.65622 0.1705 0.24534 0.0
C2833 C 0.67389 0.18035 0.21598 0.0
C2834 C 0.65562 0.22811 0.19964 0.0
H2835 H 0.72557 0.27597 0.14784 0.0
H2836 H 0.71069 0.24536 0.15853 0.0
H2837 H 0.65662 0.25815 0.19133 0.0
H2838 H 0.62758 0.1841 0.24847 0.0
H2839 H 0.62947 0.20297 0.21858 0.0
H2840 H 0.67836 0.19067 0.17572 0.0
C2841 C 0.70131 0.2579 0.15595 0.0
C2842 C 0.66098 0.24344 0.18734 0.0
C2843 C 0.70988 0.27552 0.15007 0.0
C2844 C 0.64042 0.18233 0.23937 0.0
C2845 C 0.64162 0.19347 0.2223 0.0
C2846 C 0.67334 0.20532 0.17911 0.0
C2847 C 0.68119 0.25704 0.16019 0.0
C2848 C 0.67304 0.24007 0.17104 0.0
C2849 C 0.6588 0.19345 0.21099 0.0
C2850 C 0.66207 0.2089 0.19598 0.0
H2851 H 0.66892 0.30416 0.1499 0.0
H2852 H 0.65397 0.27336 0.15948 0.0
H2853 H 0.68801 0.2177 0.15425 0.0
H2854 H 0.68472 0.15946 0.23664 0.0
H2855 H 0.68734 0.17986 0.20763 0.0
C2856 C 0.92868 0.33018 0.35697 0.0
C2857 C 0.92817 0.31672 0.37261 0.0
C2858 C 0.94625 0.3349 0.34748 0.0
C2859 C 1.0001 0.33553 0.35594 0.0
H2860 H 1.00195 0.35067 0.30125 0.0
C2861 C 0.07287 0.36119 0.32118 0.0
C2862 C 0.07246 0.37729 0.3083 0.0
C2863 C 0.05562 0.35162 0.32684 0.0
C2864 C 1.00174 0.34669 0.31658 0.0
H2865 H 0.94602 0.29715 0.39 0.0
H2866 H 0.97685 0.30512 0.37323 0.0
H2867 H 0.97182 0.33724 0.31496 0.0
H2868 H 0.05336 0.39557 0.29086 0.0
H2869 H 0.02307 0.37887 0.30066 0.0
H2870 H 0.02984 0.34525 0.35771 0.0
C2871 C 0.96351 0.31223 0.36841 0.0
C2872 C 0.98436 0.3389 0.32451 0.0
C2873 C 0.94576 0.30737 0.37788 0.0
C2874 C 0.05429 0.38294 0.30041 0.0
C2875 C 0.03687 0.37339 0.30622 0.0
C2876 C 0.01744 0.34331 0.34803 0.0
C2877 C 0.96411 0.32642 0.35331 0.0
C2878 C 0.98316 0.33332 0.34439 0.0
C2879 C 0.0372 0.35795 0.32004 0.0
C2880 C 0.0186 0.34912 0.32821 0.0
H2881 H 0.91548 0.33778 0.3525 0.0
H2882 H 0.94589 0.346 0.33616 0.0
H2883 H 0.99983 0.33186 0.37135 0.0
H2884 H 0.08658 0.35651 0.32765 0.0
H2885 H 0.05674 0.33952 0.33703 0.0
C2886 C 0.7096 0.94442 0.3755 0.0
C2887 C 0.69921 0.92684 0.37296 0.0
C2888 C 0.70383 0.9616 0.36548 0.0
C2889 C 0.67135 0.98005 0.32449 0.0
H2890 H 0.67088 0.02805 0.35458 0.0
C2891 C 0.62431 0.04869 0.3029 0.0
C2892 C 0.63148 0.06732 0.30791 0.0
C2893 C 0.63462 0.03161 0.30836 0.0
C2894 C 0.67112 0.0149 0.34575 0.0
H2895 H 0.6752 0.91345 0.35713 0.0
H2896 H 0.66536 0.94287 0.33986 0.0
H2897 H 0.68577 0.99872 0.36836 0.0
H2898 H 0.65558 0.08257 0.32159 0.0
H2899 H 0.67372 0.05316 0.33057 0.0
H2900 H 0.6563 0.99619 0.30204 0.0
C2901 C 0.67801 0.94366 0.34938 0.0
C2902 C 0.67977 0.99797 0.35371 0.0
C2903 C 0.68366 0.92667 0.35941 0.0
C2904 C 0.64967 0.06846 0.31749 0.0
C2905 C 0.65997 0.05151 0.32287 0.0
C2906 C 0.66266 0.99699 0.31654 0.0
C2907 C 0.68763 0.96159 0.35257 0.0
C2908 C 0.67989 0.98016 0.34332 0.0
C2909 C 0.65234 0.03275 0.31902 0.0
C2910 C 0.66227 0.01469 0.32708 0.0
H2911 H 0.72143 0.94519 0.38603 0.0
H2912 H 0.71183 0.97501 0.36821 0.0
H2913 H 0.67135 0.96682 0.31579 0.0
H2914 H 0.6101 0.04728 0.296 0.0
H2915 H 0.62812 0.01752 0.30518 0.0
C2916 C 0.95906 0.62424 0.30767 0.0
C2917 C 0.94171 0.63483 0.30459 0.0
C2918 C 0.97626 0.63376 0.31388 0.0
C2919 C 0.99261 0.68101 0.33763 0.0
H2920 H 0.04403 0.65883 0.32914 0.0
C2921 C 0.06088 0.7074 0.38187 0.0
C2922 C 0.07967 0.7045 0.37409 0.0
C2923 C 0.04415 0.70083 0.37176 0.0
C2924 C 0.0299 0.6656 0.33148 0.0
H2925 H 0.92888 0.66375 0.30519 0.0
H2926 H 0.95894 0.68057 0.31452 0.0
H2927 H 0.01587 0.64419 0.31345 0.0
H2928 H 0.09563 0.69302 0.34933 0.0
H2929 H 0.06672 0.68302 0.33101 0.0
H2930 H 0.00674 0.70293 0.35498 0.0
C2931 C 0.9594 0.66483 0.31284 0.0
C2932 C 0.0135 0.65684 0.32267 0.0
C2933 C 0.94216 0.65524 0.30701 0.0
C2934 C 0.0813 0.69581 0.35554 0.0
C2935 C 0.06462 0.68964 0.34523 0.0
C2936 C 0.00906 0.68997 0.34618 0.0
C2937 C 0.97664 0.65422 0.31707 0.0
C2938 C 0.99446 0.66423 0.3257 0.0
C2939 C 0.04573 0.69134 0.35342 0.0
C2940 C 0.02806 0.68236 0.34345 0.0
H2941 H 0.95899 0.60841 0.30662 0.0
H2942 H 0.9889 0.6248 0.31718 0.0
H2943 H 0.97836 0.68714 0.34082 0.0
H2944 H 0.05918 0.71342 0.39644 0.0
H2945 H 0.03011 0.70229 0.37892 0.0
C2946 C 0.36556 0.9295 0.33035 0.0
C2947 C 0.38209 0.93005 0.31803 0.0
C2948 C 0.35609 0.94668 0.33636 0.0
C2949 C 0.3515 1.00076 0.32739 0.0
H2950 H 0.33401 1.00114 0.38138 0.0
C2951 C 0.30758 0.05465 0.38749 0.0
C2952 C 0.31638 0.07267 0.38273 0.0
C2953 C 0.31364 0.03714 0.37823 0.0
C2954 C 0.33844 1.00131 0.36617 0.0
H2955 H 0.40112 0.94951 0.30186 0.0
H2956 H 0.38457 0.97974 0.31235 0.0
H2957 H 0.34856 0.97165 0.36773 0.0
H2958 H 0.33787 0.08624 0.36369 0.0
H2959 H 0.34822 0.05628 0.34784 0.0
H2960 H 0.34154 0.03054 0.32594 0.0
C2961 C 0.3788 0.96582 0.31726 0.0
C2962 C 0.3469 0.98426 0.35826 0.0
C2963 C 0.38829 0.94845 0.31111 0.0
C2964 C 0.33068 0.07273 0.36785 0.0
C2965 C 0.33662 0.0554 0.35858 0.0
C2966 C 0.34301 0.01783 0.33531 0.0
C2967 C 0.36284 0.96524 0.33046 0.0
C2968 C 0.35364 0.98364 0.33872 0.0
C2969 C 0.32854 0.03718 0.36382 0.0
C2970 C 0.33642 0.01848 0.3549 0.0
H2971 H 0.36021 0.91564 0.33591 0.0
H2972 H 0.34357 0.94536 0.34599 0.0
H2973 H 0.35618 1.00095 0.31225 0.0
H2974 H 0.29668 0.05394 0.39897 0.0
H2975 H 0.30681 0.02352 0.38257 0.0
C2976 C 0.95373 0.70762 0.62812 0.0
C2977 C 0.9362 0.69814 0.63329 0.0
C2978 C 0.97148 0.70288 0.63767 0.0
C2979 C 0.9923 0.67667 0.68181 0.0
H2980 H 0.03796 0.67017 0.64893 0.0
C2981 C 0.06231 0.63333 0.70693 0.0
C2982 C 0.0805 0.63889 0.69906 0.0
C2983 C 0.04488 0.64271 0.70085 0.0
C2984 C 0.02552 0.67217 0.65853 0.0
H2985 H 0.92361 0.67697 0.65333 0.0
H2986 H 0.95403 0.66894 0.6698 0.0
H2987 H 0.00793 0.68328 0.63498 0.0
H2988 H 0.09463 0.65945 0.67949 0.0
H2989 H 0.06476 0.67615 0.66963 0.0
H2990 H 0.00986 0.66528 0.70531 0.0
C2991 C 0.95433 0.68004 0.65848 0.0
C2992 C 0.00816 0.67977 0.65043 0.0
C2993 C 0.93677 0.68463 0.6489 0.0
C2994 C 0.0809 0.65478 0.68591 0.0
C2995 C 0.06363 0.6642 0.67999 0.0
C2996 C 0.00969 0.66908 0.68992 0.0
C2997 C 0.97212 0.6887 0.65277 0.0
C2998 C 0.99117 0.68202 0.66187 0.0
C2999 C 0.04521 0.65793 0.68679 0.0
C3000 C 0.02661 0.66659 0.67841 0.0
H3001 H 0.95393 0.71792 0.61606 0.0
H3002 H 0.98477 0.7101 0.63296 0.0
H3003 H 0.9797 0.67837 0.69126 0.0
H3004 H 0.06138 0.62089 0.71673 0.0
H3005 H 0.03108 0.63729 0.70642 0.0
C3006 C 0.29874 0.95338 0.63092 0.0
C3007 C 0.3077 0.93558 0.63615 0.0
C3008 C 0.30421 0.97101 0.64019 0.0
C3009 C 0.33151 0.99158 0.68349 0.0
H3010 H 0.34104 0.03558 0.64904 0.0
C3011 C 0.37853 0.05955 0.70684 0.0
C3012 C 0.37452 0.07771 0.69797 0.0
C3013 C 0.36812 0.04259 0.70126 0.0
C3014 C 0.33818 0.02365 0.65908 0.0
H3015 H 0.32877 0.92234 0.65585 0.0
H3016 H 0.33792 0.95265 0.67209 0.0
H3017 H 0.32621 0.00597 0.63608 0.0
H3018 H 0.35569 0.09241 0.67713 0.0
H3019 H 0.33708 0.06344 0.66818 0.0
H3020 H 0.34364 0.00923 0.70648 0.0
C3021 C 0.32668 0.95321 0.66093 0.0
C3022 C 0.3296 0.00654 0.65155 0.0
C3023 C 0.3214 0.93574 0.65156 0.0
C3024 C 0.35915 0.07868 0.68429 0.0
C3025 C 0.34864 0.0619 0.67892 0.0
C3026 C 0.34 0.00876 0.69107 0.0
C3027 C 0.31862 0.97125 0.65506 0.0
C3028 C 0.32627 0.99013 0.66357 0.0
C3029 C 0.35336 0.04339 0.68674 0.0
C3030 C 0.34362 0.0251 0.67897 0.0
H3031 H 0.28842 0.95386 0.61889 0.0
H3032 H 0.2975 0.98455 0.63536 0.0
H3033 H 0.32903 0.97939 0.69333 0.0
H3034 H 0.39056 0.05819 0.71708 0.0
H3035 H 0.37239 0.02871 0.70761 0.0
C3036 C 0.93485 0.35981 0.68675 0.0
C3037 C 0.93516 0.37571 0.69989 0.0
C3038 C 0.952 0.34984 0.68158 0.0
C3039 C 0.00602 0.35672 0.67903 0.0
H3040 H 0.0056 0.30186 0.66437 0.0
C3041 C 0.07673 0.31894 0.65198 0.0
C3042 C 0.07547 0.30633 0.63573 0.0
C3043 C 0.05993 0.32526 0.66191 0.0
C3044 C 0.006 0.31723 0.66823 0.0
H3045 H 0.95407 0.39304 0.71842 0.0
H3046 H 0.98422 0.37536 0.70969 0.0
H3047 H 0.97643 0.31666 0.67873 0.0
H3048 H 0.05529 0.29 0.61764 0.0
H3049 H 0.02576 0.30091 0.63507 0.0
H3050 H 0.03549 0.35736 0.66836 0.0
C3051 C 0.97054 0.37076 0.70317 0.0
C3052 C 0.98918 0.32579 0.67653 0.0
C3053 C 0.95319 0.38076 0.70846 0.0
C3054 C 0.05687 0.29934 0.63035 0.0
C3055 C 0.03991 0.30578 0.64029 0.0
C3056 C 0.02283 0.34815 0.67079 0.0
C3057 C 0.97027 0.35536 0.68929 0.0
C3058 C 0.98881 0.34576 0.68193 0.0
C3059 C 0.04114 0.31938 0.65586 0.0
C3060 C 0.02312 0.32826 0.66513 0.0
H3061 H 0.92128 0.35548 0.67976 0.0
H3062 H 0.95096 0.33835 0.67073 0.0
H3063 H 0.00638 0.37217 0.68254 0.0
H3064 H 0.09079 0.32471 0.65651 0.0
H3065 H 0.0617 0.33526 0.67407 0.0
C3066 C 0.65072 0.92472 0.67654 0.0
C3067 C 0.63459 0.92526 0.6894 0.0
C3068 C 0.65987 0.94194 0.67012 0.0
C3069 C 0.66431 0.99605 0.67875 0.0
H3070 H 0.67996 0.99658 0.6242 0.0
C3071 C 0.70534 0.05059 0.61726 0.0
C3072 C 0.69631 0.06844 0.62225 0.0
C3073 C 0.69985 0.03296 0.62667 0.0
C3074 C 0.67603 0.99669 0.63955 0.0
H3075 H 0.616 0.94473 0.70608 0.0
H3076 H 0.63197 0.97495 0.69486 0.0
H3077 H 0.66627 0.96692 0.63843 0.0
H3078 H 0.675 0.08156 0.64181 0.0
H3079 H 0.66563 0.0514 0.65788 0.0
H3080 H 0.67388 0.02595 0.67976 0.0
C3081 C 0.63767 0.96104 0.68984 0.0
C3082 C 0.66808 0.97956 0.64779 0.0
C3083 C 0.62851 0.94367 0.6964 0.0
C3084 C 0.68233 0.06819 0.63744 0.0
C3085 C 0.67698 0.05076 0.64684 0.0
C3086 C 0.67227 0.0132 0.6705 0.0
C3087 C 0.6532 0.96048 0.67615 0.0
C3088 C 0.66199 0.97891 0.66754 0.0
C3089 C 0.68534 0.03272 0.64145 0.0
C3090 C 0.67815 0.0139 0.65069 0.0
H3091 H 0.656 0.91088 0.6709 0.0
H3092 H 0.67207 0.94065 0.66009 0.0
H3093 H 0.66014 0.99622 0.69404 0.0
H3094 H 0.71604 0.05011 0.60558 0.0
H3095 H 0.70686 0.01947 0.62218 0.0
C3096 C 0.32342 0.36197 0.93671 0.0
C3097 C 0.30831 0.37606 0.93633 0.0
C3098 C 0.32826 0.35186 0.95392 0.0
C3099 C 0.32513 0.35604 0.00813 0.0
H3100 H 0.34441 0.30262 0.00707 0.0
C3101 C 0.34937 0.31786 0.07981 0.0
C3102 C 0.36623 0.30597 0.0795 0.0
C3103 C 0.34039 0.32416 0.06244 0.0
C3104 C 0.33927 0.31761 0.0077 0.0
H3105 H 0.28609 0.39 0.95406 0.0
H3106 H 0.29441 0.3722 0.98425 0.0
H3107 H 0.3318 0.31763 0.97718 0.0
H3108 H 0.3865 0.29102 0.06036 0.0
H3109 H 0.37089 0.302 0.02989 0.0
H3110 H 0.33293 0.35624 0.03848 0.0
C3111 C 0.30266 0.36911 0.97109 0.0
C3112 C 0.33195 0.32627 0.99045 0.0
C3113 C 0.29768 0.37918 0.95369 0.0
C3114 C 0.37328 0.29974 0.06119 0.0
C3115 C 0.36435 0.30623 0.04367 0.0
C3116 C 0.33249 0.34741 0.02534 0.0
C3117 C 0.31827 0.35547 0.97155 0.0
C3118 C 0.32485 0.3457 0.99032 0.0
C3119 C 0.34809 0.31909 0.044 0.0
C3120 C 0.33977 0.32804 0.02548 0.0
H3121 H 0.33201 0.3591 0.92371 0.0
H3122 H 0.34047 0.34174 0.95352 0.0
H3123 H 0.32022 0.37111 0.00871 0.0
H3124 H 0.34359 0.32307 0.09362 0.0
H3125 H 0.32764 0.33352 0.06354 0.0
C3126 C 0.37041 0.672 0.93493 0.0
C3127 C 0.37818 0.69081 0.93124 0.0
C3128 C 0.36015 0.6677 0.95211 0.0
C3129 C 0.35066 0.68571 1.00323 0.0
H3130 H 0.3141 0.64233 1.0028 0.0
C3131 C 0.29858 0.63487 0.06008 0.0
C3132 C 0.31094 0.63549 0.07655 0.0
C3133 C 0.30397 0.64435 0.04243 0.0
C3134 C 0.32398 0.65469 1.00337 0.0
H3135 H 0.38051 0.72002 0.94328 0.0
H3136 H 0.3619 0.71274 0.97323 0.0
H3137 H 0.32768 0.65421 0.97231 0.0
H3138 H 0.33828 0.64759 0.08733 0.0
H3139 H 0.34772 0.66317 0.05722 0.0
H3140 H 0.3462 0.68682 0.0342 0.0
C3141 C 0.36422 0.70108 0.96277 0.0
C3142 C 0.3322 0.66136 0.98569 0.0
C3143 C 0.3748 0.70539 0.94543 0.0
C3144 C 0.32827 0.64661 0.07506 0.0
C3145 C 0.33369 0.65585 0.05758 0.0
C3146 C 0.34217 0.67926 0.02089 0.0
C3147 C 0.35677 0.68205 0.96648 0.0
C3148 C 0.34619 0.67662 0.98527 0.0
C3149 C 0.3219 0.65468 0.04071 0.0
C3150 C 0.32907 0.66322 0.02144 0.0
H3151 H 0.37257 0.66013 0.92466 0.0
H3152 H 0.35536 0.65276 0.95425 0.0
H3153 H 0.36126 0.69746 1.00386 0.0
H3154 H 0.28521 0.62637 0.06052 0.0
H3155 H 0.29416 0.64326 0.03004 0.0
C3156 C 0.64863 0.33183 0.92359 0.0
C3157 C 0.63286 0.3187 0.92515 0.0
C3158 C 0.65807 0.33919 0.94026 0.0
C3159 C 0.66252 0.33431 0.99518 0.0
H3160 H 0.67934 0.38835 0.99087 0.0
C3161 C 0.68479 0.38226 0.06283 0.0
C3162 C 0.70022 0.39577 0.06061 0.0
C3163 C 0.67768 0.37145 0.0468 0.0
C3164 C 0.67501 0.37317 0.99236 0.0
H3165 H 0.61495 0.30269 0.94575 0.0
H3166 H 0.63121 0.31569 0.97503 0.0
H3167 H 0.66512 0.37207 0.9627 0.0
H3168 H 0.72038 0.40815 0.03954 0.0
H3169 H 0.70811 0.38936 0.01166 0.0
H3170 H 0.67203 0.3358 0.02516 0.0
C3171 C 0.63664 0.32005 0.96081 0.0
C3172 C 0.66683 0.3637 0.97605 0.0
C3173 C 0.62732 0.31243 0.94398 0.0
C3174 C 0.70857 0.39785 0.0419 0.0
C3175 C 0.70137 0.38716 0.02582 0.0
C3176 C 0.6706 0.34388 0.01159 0.0
C3177 C 0.65182 0.33405 0.95925 0.0
C3178 C 0.66054 0.34403 0.97704 0.0
C3179 C 0.68562 0.37395 0.02792 0.0
C3180 C 0.67709 0.36347 0.01043 0.0
H3181 H 0.65326 0.33704 0.90934 0.0
H3182 H 0.67004 0.34935 0.93817 0.0
H3183 H 0.6581 0.31917 0.99669 0.0
H3184 H 0.67776 0.3804 0.07688 0.0
H3185 H 0.66545 0.36164 0.0491 0.0
C3186 C 0.71097 0.6265 0.9559 0.0
C3187 C 0.70117 0.63118 0.93839 0.0
C3188 C 0.70575 0.63569 0.97367 0.0
C3189 C 0.67719 0.67815 0.99477 0.0
H3190 H 0.6724 0.64449 0.04013 0.0
C3191 C 0.63285 0.70058 0.06498 0.0
C3192 C 0.63853 0.69256 0.08308 0.0
C3193 C 0.64258 0.69519 0.04754 0.0
C3194 C 0.67391 0.65433 0.02779 0.0
H3195 H 0.67876 0.64984 0.92587 0.0
H3196 H 0.66999 0.6659 0.95634 0.0
H3197 H 0.68617 0.63154 0.01 0.0
H3198 H 0.65953 0.67337 0.09707 0.0
H3199 H 0.67695 0.66481 0.06723 0.0
H3200 H 0.66472 0.7009 0.01253 0.0
C3201 C 0.68173 0.65525 0.95659 0.0
C3202 C 0.68189 0.6468 0.01037 0.0
C3203 C 0.68678 0.64596 0.939 0.0
C3204 C 0.65485 0.67997 0.08342 0.0
C3205 C 0.66466 0.67476 0.06615 0.0
C3206 C 0.66926 0.68571 0.01224 0.0
C3207 C 0.69073 0.64996 0.97437 0.0
C3208 C 0.68355 0.65851 0.99347 0.0
C3209 C 0.6583 0.68167 0.04777 0.0
C3210 C 0.66737 0.67392 0.02908 0.0
H3211 H 0.72184 0.61494 0.95609 0.0
H3212 H 0.71321 0.63131 0.98695 0.0
H3213 H 0.67839 0.6878 0.98225 0.0
H3214 H 0.62002 0.70988 0.06409 0.0
H3215 H 0.63705 0.70082 0.0338 0.0
loop_
_geom_bond_atom_site_label_1
_geom_bond_atom_site_label_2
_geom_bond_distance
_geom_bond_site_symmetry_2
_ccdc_geom_bond_type
O0 Tb1 2.292 . S
O0 C3 1.255 . S
Tb1 O0 2.292 . S
Tb1 O17 2.326 . S
Tb1 O19 2.500 . S
Tb1 O20 2.473 . S
Tb1 O23 2.324 . S
Eu2 O6 2.292 . S
Eu2 C7 2.852 . S
Eu2 O18 2.324 . S
Eu2 O22 2.326 . S
Eu2 O24 2.500 . S
Eu2 O25 2.473 . S
C3 O0 1.255 . S
C3 O4 1.247 . S
O4 C3 1.247 . S
C5 O17 1.242 . S
C5 O18 1.258 . S
O6 Eu2 2.292 . S
O6 C8 1.255 . S
C7 Eu2 2.852 . S
C7 C11 1.503 . S
C7 O24 1.273 . S
C7 O25 1.257 . S
C8 O6 1.255 . S
C8 O9 1.247 . S
O9 C8 1.247 . S
C10 O22 1.242 . S
C10 O23 1.258 . S
C11 C7 1.503 . S
C11 C12 1.379 . S
C11 C16 1.392 . S
C12 C11 1.379 . S
C12 C13 1.404 . S
C12 H26 0.929 . S
C13 C12 1.404 . S
C13 C14 1.389 . S
C14 C13 1.389 . S
C14 C15 1.399 . S
C14 H27 0.931 . S
C15 C14 1.399 . S
C15 C16 1.390 . S
C16 C11 1.392 . S
C16 C15 1.390 . S
C16 H28 0.929 . S
O17 Tb1 2.326 . S
O17 C5 1.242 . S
O18 Eu2 2.324 . S
O18 C5 1.258 . S
O19 Tb1 2.500 . S
O19 C21 1.273 . S
O20 Tb1 2.473 . S
O20 C21 1.257 . S
C21 O19 1.273 . S
C21 O20 1.257 . S
O22 Eu2 2.326 . S
O22 C10 1.242 . S
O23 Tb1 2.324 . S
O23 C10 1.258 . S
O24 Eu2 2.500 . S
O24 C7 1.273 . S
O25 Eu2 2.473 . S
O25 C7 1.257 . S
H26 C12 0.929 . S
H27 C14 0.931 . S
H28 C16 0.929 . S
O29 Tb30 2.292 . S
O29 C32 1.255 . S
Tb30 O29 2.292 . S
Tb30 O46 2.326 . S
Tb30 O48 2.500 . S
Tb30 O49 2.473 . S
Tb30 O52 2.324 . S
Eu31 O35 2.292 . S
Eu31 C36 2.852 . S
Eu31 O47 2.324 . S
Eu31 O51 2.326 . S
Eu31 O53 2.500 . S
Eu31 O54 2.473 . S
C32 O29 1.255 . S
C32 O33 1.247 . S
O33 C32 1.247 . S
C34 O46 1.242 . S
C34 O47 1.258 . S
O35 Eu31 2.292 . S
O35 C37 1.255 . S
C36 Eu31 2.852 . S
C36 C40 1.503 . S
C36 O53 1.273 . S
C36 O54 1.257 . S
C37 O35 1.255 . S
C37 O38 1.247 . S
O38 C37 1.247 . S
C39 O51 1.242 . S
C39 O52 1.258 . S
C40 C36 1.503 . S
C40 C41 1.379 . S
C40 C45 1.392 . S
C41 C40 1.379 . S
C41 C42 1.404 . S
C41 H55 0.929 . S
C42 C41 1.404 . S
C42 C43 1.389 . S
C43 C42 1.389 . S
C43 C44 1.399 . S
C43 H56 0.931 . S
C44 C43 1.399 . S
C44 C45 1.390 . S
C45 C40 1.392 . S
C45 C44 1.390 . S
C45 H57 0.929 . S
O46 Tb30 2.326 . S
O46 C34 1.242 . S
O47 Eu31 2.324 . S
O47 C34 1.258 . S
O48 Tb30 2.500 . S
O48 C50 1.273 . S
O49 Tb30 2.473 . S
O49 C50 1.257 . S
C50 O48 1.273 . S
C50 O49 1.257 . S
O51 Eu31 2.326 . S
O51 C39 1.242 . S
O52 Tb30 2.324 . S
O52 C39 1.258 . S
O53 Eu31 2.500 . S
O53 C36 1.273 . S
O54 Eu31 2.473 . S
O54 C36 1.257 . S
H55 C41 0.929 . S
H56 C43 0.931 . S
H57 C45 0.929 . S
O58 Tb59 2.292 . S
O58 C61 1.255 . S
Tb59 O58 2.292 . S
Tb59 O75 2.326 . S
Tb59 O77 2.500 . S
Tb59 O78 2.473 . S
Tb59 O81 2.324 . S
Eu60 O64 2.292 . S
Eu60 C65 2.852 . S
Eu60 O76 2.324 . S
Eu60 O80 2.326 . S
Eu60 O82 2.500 . S
Eu60 O83 2.473 . S
C61 O58 1.255 . S
C61 O62 1.247 . S
O62 C61 1.247 . S
C63 O75 1.242 . S
C63 O76 1.258 . S
O64 Eu60 2.292 . S
O64 C66 1.255 . S
C65 Eu60 2.852 . S
C65 C69 1.503 . S
C65 O82 1.273 . S
C65 O83 1.257 . S
C66 O64 1.255 . S
C66 O67 1.247 . S
O67 C66 1.247 . S
C68 O80 1.242 . S
C68 O81 1.258 . S
C69 C65 1.503 . S
C69 C70 1.379 . S
C69 C74 1.392 . S
C70 C69 1.379 . S
C70 C71 1.404 . S
C70 H84 0.929 . S
C71 C70 1.404 . S
C71 C72 1.389 . S
C72 C71 1.389 . S
C72 C73 1.399 . S
C72 H85 0.931 . S
C73 C72 1.399 . S
C73 C74 1.390 . S
C74 C69 1.392 . S
C74 C73 1.390 . S
C74 H86 0.929 . S
O75 Tb59 2.326 . S
O75 C63 1.242 . S
O76 Eu60 2.324 . S
O76 C63 1.258 . S
O77 Tb59 2.500 . S
O77 C79 1.273 . S
O78 Tb59 2.473 . S
O78 C79 1.257 . S
C79 O77 1.273 . S
C79 O78 1.257 . S
O80 Eu60 2.326 . S
O80 C68 1.242 . S
O81 Tb59 2.324 . S
O81 C68 1.258 . S
O82 Eu60 2.500 . S
O82 C65 1.273 . S
O83 Eu60 2.473 . S
O83 C65 1.257 . S
H84 C70 0.929 . S
H85 C72 0.931 . S
H86 C74 0.929 . S
O87 Tb88 2.292 . S
O87 C90 1.255 . S
Tb88 O87 2.292 . S
Tb88 O104 2.326 . S
Tb88 O106 2.500 . S
Tb88 O107 2.473 . S
Tb88 O110 2.324 . S
Eu89 O93 2.292 . S
Eu89 C94 2.852 . S
Eu89 O105 2.324 . S
Eu89 O109 2.326 . S
Eu89 O111 2.500 . S
Eu89 O112 2.473 . S
C90 O87 1.255 . S
C90 O91 1.247 . S
O91 C90 1.247 . S
C92 O104 1.242 . S
C92 O105 1.258 . S
O93 Eu89 2.292 . S
O93 C95 1.255 . S
C94 Eu89 2.852 . S
C94 C98 1.503 . S
C94 O111 1.273 . S
C94 O112 1.257 . S
C95 O93 1.255 . S
C95 O96 1.247 . S
O96 C95 1.247 . S
C97 O109 1.242 . S
C97 O110 1.258 . S
C98 C94 1.503 . S
C98 C99 1.379 . S
C98 C103 1.392 . S
C99 C98 1.379 . S
C99 C100 1.404 . S
C99 H113 0.929 . S
C100 C99 1.404 . S
C100 C101 1.389 . S
C101 C100 1.389 . S
C101 C102 1.399 . S
C101 H114 0.931 . S
C102 C101 1.399 . S
C102 C103 1.390 . S
C103 C98 1.392 . S
C103 C102 1.390 . S
C103 H115 0.929 . S
O104 Tb88 2.326 . S
O104 C92 1.242 . S
O105 Eu89 2.324 . S
O105 C92 1.258 . S
O106 Tb88 2.500 . S
O106 C108 1.273 . S
O107 Tb88 2.473 . S
O107 C108 1.257 . S
C108 O106 1.273 . S
C108 O107 1.257 . S
O109 Eu89 2.326 . S
O109 C97 1.242 . S
O110 Tb88 2.324 . S
O110 C97 1.258 . S
O111 Eu89 2.500 . S
O111 C94 1.273 . S
O112 Eu89 2.473 . S
O112 C94 1.257 . S
H113 C99 0.929 . S
H114 C101 0.931 . S
H115 C103 0.929 . S
O116 Tb117 2.292 . S
O116 C119 1.255 . S
Tb117 O116 2.292 . S
Tb117 O133 2.326 . S
Tb117 O135 2.500 . S
Tb117 O136 2.473 . S
Tb117 O139 2.324 . S
Eu118 O122 2.292 . S
Eu118 C123 2.852 . S
Eu118 O134 2.324 . S
Eu118 O138 2.326 . S
Eu118 O140 2.500 . S
Eu118 O141 2.473 . S
C119 O116 1.255 . S
C119 O120 1.247 . S
O120 C119 1.247 . S
C121 O133 1.242 . S
C121 O134 1.258 . S
O122 Eu118 2.292 . S
O122 C124 1.255 . S
C123 Eu118 2.852 . S
C123 C127 1.503 . S
C123 O140 1.273 . S
C123 O141 1.257 . S
C124 O122 1.255 . S
C124 O125 1.247 . S
O125 C124 1.247 . S
C126 O138 1.242 . S
C126 O139 1.258 . S
C127 C123 1.503 . S
C127 C128 1.379 . S
C127 C132 1.392 . S
C128 C127 1.379 . S
C128 C129 1.404 . S
C128 H142 0.929 . S
C129 C128 1.404 . S
C129 C130 1.389 . S
C130 C129 1.389 . S
C130 C131 1.399 . S
C130 H143 0.931 . S
C131 C130 1.399 . S
C131 C132 1.390 . S
C132 C127 1.392 . S
C132 C131 1.390 . S
C132 H144 0.929 . S
O133 Tb117 2.326 . S
O133 C121 1.242 . S
O134 Eu118 2.324 . S
O134 C121 1.258 . S
O135 Tb117 2.500 . S
O135 C137 1.273 . S
O136 Tb117 2.473 . S
O136 C137 1.257 . S
C137 O135 1.273 . S
C137 O136 1.257 . S
O138 Eu118 2.326 . S
O138 C126 1.242 . S
O139 Tb117 2.324 . S
O139 C126 1.258 . S
O140 Eu118 2.500 . S
O140 C123 1.273 . S
O141 Eu118 2.473 . S
O141 C123 1.257 . S
H142 C128 0.929 . S
H143 C130 0.931 . S
H144 C132 0.929 . S
O145 Tb146 2.292 . S
O145 C148 1.255 . S
Tb146 O145 2.292 . S
Tb146 O162 2.326 . S
Tb146 O164 2.500 . S
Tb146 O165 2.473 . S
Tb146 O168 2.324 . S
Eu147 O151 2.292 . S
Eu147 C152 2.852 . S
Eu147 O163 2.324 . S
Eu147 O167 2.326 . S
Eu147 O169 2.500 . S
Eu147 O170 2.473 . S
C148 O145 1.255 . S
C148 O149 1.247 . S
O149 C148 1.247 . S
C150 O162 1.242 . S
C150 O163 1.258 . S
O151 Eu147 2.292 . S
O151 C153 1.255 . S
C152 Eu147 2.852 . S
C152 C156 1.503 . S
C152 O169 1.273 . S
C152 O170 1.257 . S
C153 O151 1.255 . S
C153 O154 1.247 . S
O154 C153 1.247 . S
C155 O167 1.242 . S
C155 O168 1.258 . S
C156 C152 1.503 . S
C156 C157 1.379 . S
C156 C161 1.392 . S
C157 C156 1.379 . S
C157 C158 1.404 . S
C157 H171 0.929 . S
C158 C157 1.404 . S
C158 C159 1.389 . S
C159 C158 1.389 . S
C159 C160 1.399 . S
C159 H172 0.931 . S
C160 C159 1.399 . S
C160 C161 1.390 . S
C161 C156 1.392 . S
C161 C160 1.390 . S
C161 H173 0.929 . S
O162 Tb146 2.326 . S
O162 C150 1.242 . S
O163 Eu147 2.324 . S
O163 C150 1.258 . S
O164 Tb146 2.500 . S
O164 C166 1.273 . S
O165 Tb146 2.473 . S
O165 C166 1.257 . S
C166 O164 1.273 . S
C166 O165 1.257 . S
O167 Eu147 2.326 . S
O167 C155 1.242 . S
O168 Tb146 2.324 . S
O168 C155 1.258 . S
O169 Eu147 2.500 . S
O169 C152 1.273 . S
O170 Eu147 2.473 . S
O170 C152 1.257 . S
H171 C157 0.929 . S
H172 C159 0.931 . S
H173 C161 0.929 . S
O174 Tb175 2.292 . S
O174 C177 1.255 . S
Tb175 O174 2.292 . S
Tb175 O191 2.326 . S
Tb175 O193 2.500 . S
Tb175 O194 2.473 . S
Tb175 O197 2.324 . S
Eu176 O180 2.292 . S
Eu176 C181 2.852 . S
Eu176 O192 2.324 . S
Eu176 O196 2.326 . S
Eu176 O198 2.500 . S
Eu176 O199 2.473 . S
C177 O174 1.255 . S
C177 O178 1.247 . S
O178 C177 1.247 . S
C179 O191 1.242 . S
C179 O192 1.258 . S
O180 Eu176 2.292 . S
O180 C182 1.255 . S
C181 Eu176 2.852 . S
C181 C185 1.503 . S
C181 O198 1.273 . S
C181 O199 1.257 . S
C182 O180 1.255 . S
C182 O183 1.247 . S
O183 C182 1.247 . S
C184 O196 1.242 . S
C184 O197 1.258 . S
C185 C181 1.503 . S
C185 C186 1.379 . S
C185 C190 1.392 . S
C186 C185 1.379 . S
C186 C187 1.404 . S
C186 H200 0.929 . S
C187 C186 1.404 . S
C187 C188 1.389 . S
C188 C187 1.389 . S
C188 C189 1.399 . S
C188 H201 0.931 . S
C189 C188 1.399 . S
C189 C190 1.390 . S
C190 C185 1.392 . S
C190 C189 1.390 . S
C190 H202 0.929 . S
O191 Tb175 2.326 . S
O191 C179 1.242 . S
O192 Eu176 2.324 . S
O192 C179 1.258 . S
O193 Tb175 2.500 . S
O193 C195 1.273 . S
O194 Tb175 2.473 . S
O194 C195 1.257 . S
C195 O193 1.273 . S
C195 O194 1.257 . S
O196 Eu176 2.326 . S
O196 C184 1.242 . S
O197 Tb175 2.324 . S
O197 C184 1.258 . S
O198 Eu176 2.500 . S
O198 C181 1.273 . S
O199 Eu176 2.473 . S
O199 C181 1.257 . S
H200 C186 0.929 . S
H201 C188 0.931 . S
H202 C190 0.929 . S
O203 Tb204 2.292 . S
O203 C206 1.255 . S
Tb204 O203 2.292 . S
Tb204 O220 2.326 . S
Tb204 O222 2.500 . S
Tb204 O223 2.473 . S
Tb204 O226 2.324 . S
Eu205 O209 2.292 . S
Eu205 C210 2.852 . S
Eu205 O221 2.324 . S
Eu205 O225 2.326 . S
Eu205 O227 2.500 . S
Eu205 O228 2.473 . S
C206 O203 1.255 . S
C206 O207 1.247 . S
O207 C206 1.247 . S
C208 O220 1.242 . S
C208 O221 1.258 . S
O209 Eu205 2.292 . S
O209 C211 1.255 . S
C210 Eu205 2.852 . S
C210 C214 1.503 . S
C210 O227 1.273 . S
C210 O228 1.257 . S
C211 O209 1.255 . S
C211 O212 1.247 . S
O212 C211 1.247 . S
C213 O225 1.242 . S
C213 O226 1.258 . S
C214 C210 1.503 . S
C214 C215 1.379 . S
C214 C219 1.392 . S
C215 C214 1.379 . S
C215 C216 1.404 . S
C215 H229 0.929 . S
C216 C215 1.404 . S
C216 C217 1.389 . S
C217 C216 1.389 . S
C217 C218 1.399 . S
C217 H230 0.931 . S
C218 C217 1.399 . S
C218 C219 1.390 . S
C219 C214 1.392 . S
C219 C218 1.390 . S
C219 H231 0.929 . S
O220 Tb204 2.326 . S
O220 C208 1.242 . S
O221 Eu205 2.324 . S
O221 C208 1.258 . S
O222 Tb204 2.500 . S
O222 C224 1.273 . S
O223 Tb204 2.473 . S
O223 C224 1.257 . S
C224 O222 1.273 . S
C224 O223 1.257 . S
O225 Eu205 2.326 . S
O225 C213 1.242 . S
O226 Tb204 2.324 . S
O226 C213 1.258 . S
O227 Eu205 2.500 . S
O227 C210 1.273 . S
O228 Eu205 2.473 . S
O228 C210 1.257 . S
H229 C215 0.929 . S
H230 C217 0.931 . S
H231 C219 0.929 . S
O232 Tb233 2.292 . S
O232 C235 1.255 . S
Tb233 O232 2.292 . S
Tb233 O249 2.326 . S
Tb233 O251 2.500 . S
Tb233 O252 2.473 . S
Tb233 O255 2.324 . S
Eu234 O238 2.292 . S
Eu234 C239 2.852 . S
Eu234 O250 2.324 . S
Eu234 O254 2.326 . S
Eu234 O256 2.500 . S
Eu234 O257 2.473 . S
C235 O232 1.255 . S
C235 O236 1.247 . S
O236 C235 1.247 . S
C237 O249 1.242 . S
C237 O250 1.258 . S
O238 Eu234 2.292 . S
O238 C240 1.255 . S
C239 Eu234 2.852 . S
C239 C243 1.503 . S
C239 O256 1.273 . S
C239 O257 1.257 . S
C240 O238 1.255 . S
C240 O241 1.247 . S
O241 C240 1.247 . S
C242 O254 1.242 . S
C242 O255 1.258 . S
C243 C239 1.503 . S
C243 C244 1.379 . S
C243 C248 1.392 . S
C244 C243 1.379 . S
C244 C245 1.404 . S
C244 H258 0.929 . S
C245 C244 1.404 . S
C245 C246 1.389 . S
C246 C245 1.389 . S
C246 C247 1.399 . S
C246 H259 0.931 . S
C247 C246 1.399 . S
C247 C248 1.390 . S
C248 C243 1.392 . S
C248 C247 1.390 . S
C248 H260 0.929 . S
O249 Tb233 2.326 . S
O249 C237 1.242 . S
O250 Eu234 2.324 . S
O250 C237 1.258 . S
O251 Tb233 2.500 . S
O251 C253 1.273 . S
O252 Tb233 2.473 . S
O252 C253 1.257 . S
C253 O251 1.273 . S
C253 O252 1.257 . S
O254 Eu234 2.326 . S
O254 C242 1.242 . S
O255 Tb233 2.324 . S
O255 C242 1.258 . S
O256 Eu234 2.500 . S
O256 C239 1.273 . S
O257 Eu234 2.473 . S
O257 C239 1.257 . S
H258 C244 0.929 . S
H259 C246 0.931 . S
H260 C248 0.929 . S
O261 Tb262 2.292 . S
O261 C264 1.255 . S
Tb262 O261 2.292 . S
Tb262 O278 2.326 . S
Tb262 O280 2.500 . S
Tb262 O281 2.473 . S
Tb262 O284 2.324 . S
Eu263 O267 2.292 . S
Eu263 C268 2.852 . S
Eu263 O279 2.324 . S
Eu263 O283 2.326 . S
Eu263 O285 2.500 . S
Eu263 O286 2.473 . S
C264 O261 1.255 . S
C264 O265 1.247 . S
O265 C264 1.247 . S
C266 O278 1.242 . S
C266 O279 1.258 . S
O267 Eu263 2.292 . S
O267 C269 1.255 . S
C268 Eu263 2.852 . S
C268 C272 1.503 . S
C268 O285 1.273 . S
C268 O286 1.257 . S
C269 O267 1.255 . S
C269 O270 1.247 . S
O270 C269 1.247 . S
C271 O283 1.242 . S
C271 O284 1.258 . S
C272 C268 1.503 . S
C272 C273 1.379 . S
C272 C277 1.392 . S
C273 C272 1.379 . S
C273 C274 1.404 . S
C273 H287 0.929 . S
C274 C273 1.404 . S
C274 C275 1.389 . S
C275 C274 1.389 . S
C275 C276 1.399 . S
C275 H288 0.931 . S
C276 C275 1.399 . S
C276 C277 1.390 . S
C277 C272 1.392 . S
C277 C276 1.390 . S
C277 H289 0.929 . S
O278 Tb262 2.326 . S
O278 C266 1.242 . S
O279 Eu263 2.324 . S
O279 C266 1.258 . S
O280 Tb262 2.500 . S
O280 C282 1.273 . S
O281 Tb262 2.473 . S
O281 C282 1.257 . S
C282 O280 1.273 . S
C282 O281 1.257 . S
O283 Eu263 2.326 . S
O283 C271 1.242 . S
O284 Tb262 2.324 . S
O284 C271 1.258 . S
O285 Eu263 2.500 . S
O285 C268 1.273 . S
O286 Eu263 2.473 . S
O286 C268 1.257 . S
H287 C273 0.929 . S
H288 C275 0.931 . S
H289 C277 0.929 . S
O290 Tb291 2.292 . S
O290 C293 1.255 . S
Tb291 O290 2.292 . S
Tb291 O307 2.326 . S
Tb291 O309 2.500 . S
Tb291 O310 2.473 . S
Tb291 O313 2.324 . S
Eu292 O296 2.292 . S
Eu292 C297 2.852 . S
Eu292 O308 2.324 . S
Eu292 O312 2.326 . S
Eu292 O314 2.500 . S
Eu292 O315 2.473 . S
C293 O290 1.255 . S
C293 O294 1.247 . S
O294 C293 1.247 . S
C295 O307 1.242 . S
C295 O308 1.258 . S
O296 Eu292 2.292 . S
O296 C298 1.255 . S
C297 Eu292 2.852 . S
C297 C301 1.503 . S
C297 O314 1.273 . S
C297 O315 1.257 . S
C298 O296 1.255 . S
C298 O299 1.247 . S
O299 C298 1.247 . S
C300 O312 1.242 . S
C300 O313 1.258 . S
C301 C297 1.503 . S
C301 C302 1.379 . S
C301 C306 1.392 . S
C302 C301 1.379 . S
C302 C303 1.404 . S
C302 H316 0.929 . S
C303 C302 1.404 . S
C303 C304 1.389 . S
C304 C303 1.389 . S
C304 C305 1.399 . S
C304 H317 0.931 . S
C305 C304 1.399 . S
C305 C306 1.390 . S
C306 C301 1.392 . S
C306 C305 1.390 . S
C306 H318 0.929 . S
O307 Tb291 2.326 . S
O307 C295 1.242 . S
O308 Eu292 2.324 . S
O308 C295 1.258 . S
O309 Tb291 2.500 . S
O309 C311 1.273 . S
O310 Tb291 2.473 . S
O310 C311 1.257 . S
C311 O309 1.273 . S
C311 O310 1.257 . S
O312 Eu292 2.326 . S
O312 C300 1.242 . S
O313 Tb291 2.324 . S
O313 C300 1.258 . S
O314 Eu292 2.500 . S
O314 C297 1.273 . S
O315 Eu292 2.473 . S
O315 C297 1.257 . S
H316 C302 0.929 . S
H317 C304 0.931 . S
H318 C306 0.929 . S
O319 Tb320 2.292 . S
O319 C322 1.255 . S
Tb320 O319 2.292 . S
Tb320 O336 2.326 . S
Tb320 O338 2.500 . S
Tb320 O339 2.473 . S
Tb320 O342 2.324 . S
Eu321 O325 2.292 . S
Eu321 C326 2.852 . S
Eu321 O337 2.324 . S
Eu321 O341 2.326 . S
Eu321 O343 2.500 . S
Eu321 O344 2.473 . S
C322 O319 1.255 . S
C322 O323 1.247 . S
O323 C322 1.247 . S
C324 O336 1.242 . S
C324 O337 1.258 . S
O325 Eu321 2.292 . S
O325 C327 1.255 . S
C326 Eu321 2.852 . S
C326 C330 1.503 . S
C326 O343 1.273 . S
C326 O344 1.257 . S
C327 O325 1.255 . S
C327 O328 1.247 . S
O328 C327 1.247 . S
C329 O341 1.242 . S
C329 O342 1.258 . S
C330 C326 1.503 . S
C330 C331 1.379 . S
C330 C335 1.392 . S
C331 C330 1.379 . S
C331 C332 1.404 . S
C331 H345 0.929 . S
C332 C331 1.404 . S
C332 C333 1.389 . S
C333 C332 1.389 . S
C333 C334 1.399 . S
C333 H346 0.931 . S
C334 C333 1.399 . S
C334 C335 1.390 . S
C335 C330 1.392 . S
C335 C334 1.390 . S
C335 H347 0.929 . S
O336 Tb320 2.326 . S
O336 C324 1.242 . S
O337 Eu321 2.324 . S
O337 C324 1.258 . S
O338 Tb320 2.500 . S
O338 C340 1.273 . S
O339 Tb320 2.473 . S
O339 C340 1.257 . S
C340 O338 1.273 . S
C340 O339 1.257 . S
O341 Eu321 2.326 . S
O341 C329 1.242 . S
O342 Tb320 2.324 . S
O342 C329 1.258 . S
O343 Eu321 2.500 . S
O343 C326 1.273 . S
O344 Eu321 2.473 . S
O344 C326 1.257 . S
H345 C331 0.929 . S
H346 C333 0.931 . S
H347 C335 0.929 . S
O348 Tb349 2.292 . S
O348 C351 1.255 . S
Tb349 O348 2.292 . S
Tb349 O365 2.326 . S
Tb349 O367 2.500 . S
Tb349 O368 2.473 . S
Tb349 O371 2.324 . S
Eu350 O354 2.292 . S
Eu350 C355 2.852 . S
Eu350 O366 2.324 . S
Eu350 O370 2.326 . S
Eu350 O372 2.500 . S
Eu350 O373 2.473 . S
C351 O348 1.255 . S
C351 O352 1.247 . S
O352 C351 1.247 . S
C353 O365 1.242 . S
C353 O366 1.258 . S
O354 Eu350 2.292 . S
O354 C356 1.255 . S
C355 Eu350 2.852 . S
C355 C359 1.503 . S
C355 O372 1.273 . S
C355 O373 1.257 . S
C356 O354 1.255 . S
C356 O357 1.247 . S
O357 C356 1.247 . S
C358 O370 1.242 . S
C358 O371 1.258 . S
C359 C355 1.503 . S
C359 C360 1.379 . S
C359 C364 1.392 . S
C360 C359 1.379 . S
C360 C361 1.404 . S
C360 H374 0.929 . S
C361 C360 1.404 . S
C361 C362 1.389 . S
C362 C361 1.389 . S
C362 C363 1.399 . S
C362 H375 0.931 . S
C363 C362 1.399 . S
C363 C364 1.390 . S
C364 C359 1.392 . S
C364 C363 1.390 . S
C364 H376 0.929 . S
O365 Tb349 2.326 . S
O365 C353 1.242 . S
O366 Eu350 2.324 . S
O366 C353 1.258 . S
O367 Tb349 2.500 . S
O367 C369 1.273 . S
O368 Tb349 2.473 . S
O368 C369 1.257 . S
C369 O367 1.273 . S
C369 O368 1.257 . S
O370 Eu350 2.326 . S
O370 C358 1.242 . S
O371 Tb349 2.324 . S
O371 C358 1.258 . S
O372 Eu350 2.500 . S
O372 C355 1.273 . S
O373 Eu350 2.473 . S
O373 C355 1.257 . S
H374 C360 0.929 . S
H375 C362 0.931 . S
H376 C364 0.929 . S
O377 Tb378 2.292 . S
O377 C380 1.255 . S
Tb378 O377 2.292 . S
Tb378 O394 2.326 . S
Tb378 O396 2.500 . S
Tb378 O397 2.473 . S
Tb378 O400 2.324 . S
Eu379 O383 2.292 . S
Eu379 C384 2.852 . S
Eu379 O395 2.324 . S
Eu379 O399 2.326 . S
Eu379 O401 2.500 . S
Eu379 O402 2.473 . S
C380 O377 1.255 . S
C380 O381 1.247 . S
O381 C380 1.247 . S
C382 O394 1.242 . S
C382 O395 1.258 . S
O383 Eu379 2.292 . S
O383 C385 1.255 . S
C384 Eu379 2.852 . S
C384 C388 1.503 . S
C384 O401 1.273 . S
C384 O402 1.257 . S
C385 O383 1.255 . S
C385 O386 1.247 . S
O386 C385 1.247 . S
C387 O399 1.242 . S
C387 O400 1.258 . S
C388 C384 1.503 . S
C388 C389 1.379 . S
C388 C393 1.392 . S
C389 C388 1.379 . S
C389 C390 1.404 . S
C389 H403 0.929 . S
C390 C389 1.404 . S
C390 C391 1.389 . S
C391 C390 1.389 . S
C391 C392 1.399 . S
C391 H404 0.931 . S
C392 C391 1.399 . S
C392 C393 1.390 . S
C393 C388 1.392 . S
C393 C392 1.390 . S
C393 H405 0.929 . S
O394 Tb378 2.326 . S
O394 C382 1.242 . S
O395 Eu379 2.324 . S
O395 C382 1.258 . S
O396 Tb378 2.500 . S
O396 C398 1.273 . S
O397 Tb378 2.473 . S
O397 C398 1.257 . S
C398 O396 1.273 . S
C398 O397 1.257 . S
O399 Eu379 2.326 . S
O399 C387 1.242 . S
O400 Tb378 2.324 . S
O400 C387 1.258 . S
O401 Eu379 2.500 . S
O401 C384 1.273 . S
O402 Eu379 2.473 . S
O402 C384 1.257 . S
H403 C389 0.929 . S
H404 C391 0.931 . S
H405 C393 0.929 . S
O406 Tb407 2.292 . S
O406 C409 1.255 . S
Tb407 O406 2.292 . S
Tb407 O423 2.326 . S
Tb407 O425 2.500 . S
Tb407 O426 2.473 . S
Tb407 O429 2.324 . S
Eu408 O412 2.292 . S
Eu408 C413 2.852 . S
Eu408 O424 2.324 . S
Eu408 O428 2.326 . S
Eu408 O430 2.500 . S
Eu408 O431 2.473 . S
C409 O406 1.255 . S
C409 O410 1.247 . S
O410 C409 1.247 . S
C411 O423 1.242 . S
C411 O424 1.258 . S
O412 Eu408 2.292 . S
O412 C414 1.255 . S
C413 Eu408 2.852 . S
C413 C417 1.503 . S
C413 O430 1.273 . S
C413 O431 1.257 . S
C414 O412 1.255 . S
C414 O415 1.247 . S
O415 C414 1.247 . S
C416 O428 1.242 . S
C416 O429 1.258 . S
C417 C413 1.503 . S
C417 C418 1.379 . S
C417 C422 1.392 . S
C418 C417 1.379 . S
C418 C419 1.404 . S
C418 H432 0.929 . S
C419 C418 1.404 . S
C419 C420 1.389 . S
C420 C419 1.389 . S
C420 C421 1.399 . S
C420 H433 0.931 . S
C421 C420 1.399 . S
C421 C422 1.390 . S
C422 C417 1.392 . S
C422 C421 1.390 . S
C422 H434 0.929 . S
O423 Tb407 2.326 . S
O423 C411 1.242 . S
O424 Eu408 2.324 . S
O424 C411 1.258 . S
O425 Tb407 2.500 . S
O425 C427 1.273 . S
O426 Tb407 2.473 . S
O426 C427 1.257 . S
C427 O425 1.273 . S
C427 O426 1.257 . S
O428 Eu408 2.326 . S
O428 C416 1.242 . S
O429 Tb407 2.324 . S
O429 C416 1.258 . S
O430 Eu408 2.500 . S
O430 C413 1.273 . S
O431 Eu408 2.473 . S
O431 C413 1.257 . S
H432 C418 0.929 . S
H433 C420 0.931 . S
H434 C422 0.929 . S
O435 Tb436 2.292 . S
O435 C438 1.255 . S
Tb436 O435 2.292 . S
Tb436 O452 2.326 . S
Tb436 O454 2.500 . S
Tb436 O455 2.473 . S
Tb436 O458 2.324 . S
Eu437 O441 2.292 . S
Eu437 C442 2.852 . S
Eu437 O453 2.324 . S
Eu437 O457 2.326 . S
Eu437 O459 2.500 . S
Eu437 O460 2.473 . S
C438 O435 1.255 . S
C438 O439 1.247 . S
O439 C438 1.247 . S
C440 O452 1.242 . S
C440 O453 1.258 . S
O441 Eu437 2.292 . S
O441 C443 1.255 . S
C442 Eu437 2.852 . S
C442 C446 1.503 . S
C442 O459 1.273 . S
C442 O460 1.257 . S
C443 O441 1.255 . S
C443 O444 1.247 . S
O444 C443 1.247 . S
C445 O457 1.242 . S
C445 O458 1.258 . S
C446 C442 1.503 . S
C446 C447 1.379 . S
C446 C451 1.392 . S
C447 C446 1.379 . S
C447 C448 1.404 . S
C447 H461 0.929 . S
C448 C447 1.404 . S
C448 C449 1.389 . S
C449 C448 1.389 . S
C449 C450 1.399 . S
C449 H462 0.931 . S
C450 C449 1.399 . S
C450 C451 1.390 . S
C451 C446 1.392 . S
C451 C450 1.390 . S
C451 H463 0.929 . S
O452 Tb436 2.326 . S
O452 C440 1.242 . S
O453 Eu437 2.324 . S
O453 C440 1.258 . S
O454 Tb436 2.500 . S
O454 C456 1.273 . S
O455 Tb436 2.473 . S
O455 C456 1.257 . S
C456 O454 1.273 . S
C456 O455 1.257 . S
O457 Eu437 2.326 . S
O457 C445 1.242 . S
O458 Tb436 2.324 . S
O458 C445 1.258 . S
O459 Eu437 2.500 . S
O459 C442 1.273 . S
O460 Eu437 2.473 . S
O460 C442 1.257 . S
H461 C447 0.929 . S
H462 C449 0.931 . S
H463 C451 0.929 . S
O464 Tb465 2.292 . S
O464 C467 1.255 . S
Tb465 O464 2.292 . S
Tb465 O481 2.326 . S
Tb465 O483 2.500 . S
Tb465 O484 2.473 . S
Tb465 O487 2.324 . S
Eu466 O470 2.292 . S
Eu466 C471 2.852 . S
Eu466 O482 2.324 . S
Eu466 O486 2.326 . S
Eu466 O488 2.500 . S
Eu466 O489 2.473 . S
C467 O464 1.255 . S
C467 O468 1.247 . S
O468 C467 1.247 . S
C469 O481 1.242 . S
C469 O482 1.258 . S
O470 Eu466 2.292 . S
O470 C472 1.255 . S
C471 Eu466 2.852 . S
C471 C475 1.503 . S
C471 O488 1.273 . S
C471 O489 1.257 . S
C472 O470 1.255 . S
C472 O473 1.247 . S
O473 C472 1.247 . S
C474 O486 1.242 . S
C474 O487 1.258 . S
C475 C471 1.503 . S
C475 C476 1.379 . S
C475 C480 1.392 . S
C476 C475 1.379 . S
C476 C477 1.404 . S
C476 H490 0.929 . S
C477 C476 1.404 . S
C477 C478 1.389 . S
C478 C477 1.389 . S
C478 C479 1.399 . S
C478 H491 0.931 . S
C479 C478 1.399 . S
C479 C480 1.390 . S
C480 C475 1.392 . S
C480 C479 1.390 . S
C480 H492 0.929 . S
O481 Tb465 2.326 . S
O481 C469 1.242 . S
O482 Eu466 2.324 . S
O482 C469 1.258 . S
O483 Tb465 2.500 . S
O483 C485 1.273 . S
O484 Tb465 2.473 . S
O484 C485 1.257 . S
C485 O483 1.273 . S
C485 O484 1.257 . S
O486 Eu466 2.326 . S
O486 C474 1.242 . S
O487 Tb465 2.324 . S
O487 C474 1.258 . S
O488 Eu466 2.500 . S
O488 C471 1.273 . S
O489 Eu466 2.473 . S
O489 C471 1.257 . S
H490 C476 0.929 . S
H491 C478 0.931 . S
H492 C480 0.929 . S
O493 Tb494 2.292 . S
O493 C496 1.255 . S
Tb494 O493 2.292 . S
Tb494 O510 2.326 . S
Tb494 O512 2.500 . S
Tb494 O513 2.473 . S
Tb494 O516 2.324 . S
Eu495 O499 2.292 . S
Eu495 C500 2.852 . S
Eu495 O511 2.324 . S
Eu495 O515 2.326 . S
Eu495 O517 2.500 . S
Eu495 O518 2.473 . S
C496 O493 1.255 . S
C496 O497 1.247 . S
O497 C496 1.247 . S
C498 O510 1.242 . S
C498 O511 1.258 . S
O499 Eu495 2.292 . S
O499 C501 1.255 . S
C500 Eu495 2.852 . S
C500 C504 1.503 . S
C500 O517 1.273 . S
C500 O518 1.257 . S
C501 O499 1.255 . S
C501 O502 1.247 . S
O502 C501 1.247 . S
C503 O515 1.242 . S
C503 O516 1.258 . S
C504 C500 1.503 . S
C504 C505 1.379 . S
C504 C509 1.392 . S
C505 C504 1.379 . S
C505 C506 1.404 . S
C505 H519 0.929 . S
C506 C505 1.404 . S
C506 C507 1.389 . S
C507 C506 1.389 . S
C507 C508 1.399 . S
C507 H520 0.931 . S
C508 C507 1.399 . S
C508 C509 1.390 . S
C509 C504 1.392 . S
C509 C508 1.390 . S
C509 H521 0.929 . S
O510 Tb494 2.326 . S
O510 C498 1.242 . S
O511 Eu495 2.324 . S
O511 C498 1.258 . S
O512 Tb494 2.500 . S
O512 C514 1.273 . S
O513 Tb494 2.473 . S
O513 C514 1.257 . S
C514 O512 1.273 . S
C514 O513 1.257 . S
O515 Eu495 2.326 . S
O515 C503 1.242 . S
O516 Tb494 2.324 . S
O516 C503 1.258 . S
O517 Eu495 2.500 . S
O517 C500 1.273 . S
O518 Eu495 2.473 . S
O518 C500 1.257 . S
H519 C505 0.929 . S
H520 C507 0.931 . S
H521 C509 0.929 . S
O522 Tb523 2.292 . S
O522 C525 1.255 . S
Tb523 O522 2.292 . S
Tb523 O539 2.326 . S
Tb523 O541 2.500 . S
Tb523 O542 2.473 . S
Tb523 O545 2.324 . S
Eu524 O528 2.292 . S
Eu524 C529 2.852 . S
Eu524 O540 2.324 . S
Eu524 O544 2.326 . S
Eu524 O546 2.500 . S
Eu524 O547 2.473 . S
C525 O522 1.255 . S
C525 O526 1.247 . S
O526 C525 1.247 . S
C527 O539 1.242 . S
C527 O540 1.258 . S
O528 Eu524 2.292 . S
O528 C530 1.255 . S
C529 Eu524 2.852 . S
C529 C533 1.503 . S
C529 O546 1.273 . S
C529 O547 1.257 . S
C530 O528 1.255 . S
C530 O531 1.247 . S
O531 C530 1.247 . S
C532 O544 1.242 . S
C532 O545 1.258 . S
C533 C529 1.503 . S
C533 C534 1.379 . S
C533 C538 1.392 . S
C534 C533 1.379 . S
C534 C535 1.404 . S
C534 H548 0.929 . S
C535 C534 1.404 . S
C535 C536 1.389 . S
C536 C535 1.389 . S
C536 C537 1.399 . S
C536 H549 0.931 . S
C537 C536 1.399 . S
C537 C538 1.390 . S
C538 C533 1.392 . S
C538 C537 1.390 . S
C538 H550 0.929 . S
O539 Tb523 2.326 . S
O539 C527 1.242 . S
O540 Eu524 2.324 . S
O540 C527 1.258 . S
O541 Tb523 2.500 . S
O541 C543 1.273 . S
O542 Tb523 2.473 . S
O542 C543 1.257 . S
C543 O541 1.273 . S
C543 O542 1.257 . S
O544 Eu524 2.326 . S
O544 C532 1.242 . S
O545 Tb523 2.324 . S
O545 C532 1.258 . S
O546 Eu524 2.500 . S
O546 C529 1.273 . S
O547 Eu524 2.473 . S
O547 C529 1.257 . S
H548 C534 0.929 . S
H549 C536 0.931 . S
H550 C538 0.929 . S
O551 Tb552 2.292 . S
O551 C554 1.255 . S
Tb552 O551 2.292 . S
Tb552 O568 2.326 . S
Tb552 O570 2.500 . S
Tb552 O571 2.473 . S
Tb552 O574 2.324 . S
Eu553 O557 2.292 . S
Eu553 C558 2.852 . S
Eu553 O569 2.324 . S
Eu553 O573 2.326 . S
Eu553 O575 2.500 . S
Eu553 O576 2.473 . S
C554 O551 1.255 . S
C554 O555 1.247 . S
O555 C554 1.247 . S
C556 O568 1.242 . S
C556 O569 1.258 . S
O557 Eu553 2.292 . S
O557 C559 1.255 . S
C558 Eu553 2.852 . S
C558 C562 1.503 . S
C558 O575 1.273 . S
C558 O576 1.257 . S
C559 O557 1.255 . S
C559 O560 1.247 . S
O560 C559 1.247 . S
C561 O573 1.242 . S
C561 O574 1.258 . S
C562 C558 1.503 . S
C562 C563 1.379 . S
C562 C567 1.392 . S
C563 C562 1.379 . S
C563 C564 1.404 . S
C563 H577 0.929 . S
C564 C563 1.404 . S
C564 C565 1.389 . S
C565 C564 1.389 . S
C565 C566 1.399 . S
C565 H578 0.931 . S
C566 C565 1.399 . S
C566 C567 1.390 . S
C567 C562 1.392 . S
C567 C566 1.390 . S
C567 H579 0.929 . S
O568 Tb552 2.326 . S
O568 C556 1.242 . S
O569 Eu553 2.324 . S
O569 C556 1.258 . S
O570 Tb552 2.500 . S
O570 C572 1.273 . S
O571 Tb552 2.473 . S
O571 C572 1.257 . S
C572 O570 1.273 . S
C572 O571 1.257 . S
O573 Eu553 2.326 . S
O573 C561 1.242 . S
O574 Tb552 2.324 . S
O574 C561 1.258 . S
O575 Eu553 2.500 . S
O575 C558 1.273 . S
O576 Eu553 2.473 . S
O576 C558 1.257 . S
H577 C563 0.929 . S
H578 C565 0.931 . S
H579 C567 0.929 . S
O580 Tb581 2.292 . S
O580 C583 1.255 . S
Tb581 O580 2.292 . S
Tb581 O597 2.326 . S
Tb581 O599 2.500 . S
Tb581 O600 2.473 . S
Tb581 O603 2.324 . S
Eu582 O586 2.292 . S
Eu582 C587 2.852 . S
Eu582 O598 2.324 . S
Eu582 O602 2.326 . S
Eu582 O604 2.500 . S
Eu582 O605 2.473 . S
C583 O580 1.255 . S
C583 O584 1.247 . S
O584 C583 1.247 . S
C585 O597 1.242 . S
C585 O598 1.258 . S
O586 Eu582 2.292 . S
O586 C588 1.255 . S
C587 Eu582 2.852 . S
C587 C591 1.503 . S
C587 O604 1.273 . S
C587 O605 1.257 . S
C588 O586 1.255 . S
C588 O589 1.247 . S
O589 C588 1.247 . S
C590 O602 1.242 . S
C590 O603 1.258 . S
C591 C587 1.503 . S
C591 C592 1.379 . S
C591 C596 1.392 . S
C592 C591 1.379 . S
C592 C593 1.404 . S
C592 H606 0.929 . S
C593 C592 1.404 . S
C593 C594 1.389 . S
C594 C593 1.389 . S
C594 C595 1.399 . S
C594 H607 0.931 . S
C595 C594 1.399 . S
C595 C596 1.390 . S
C596 C591 1.392 . S
C596 C595 1.390 . S
C596 H608 0.929 . S
O597 Tb581 2.326 . S
O597 C585 1.242 . S
O598 Eu582 2.324 . S
O598 C585 1.258 . S
O599 Tb581 2.500 . S
O599 C601 1.273 . S
O600 Tb581 2.473 . S
O600 C601 1.257 . S
C601 O599 1.273 . S
C601 O600 1.257 . S
O602 Eu582 2.326 . S
O602 C590 1.242 . S
O603 Tb581 2.324 . S
O603 C590 1.258 . S
O604 Eu582 2.500 . S
O604 C587 1.273 . S
O605 Eu582 2.473 . S
O605 C587 1.257 . S
H606 C592 0.929 . S
H607 C594 0.931 . S
H608 C596 0.929 . S
O609 Tb610 2.292 . S
O609 C612 1.255 . S
Tb610 O609 2.292 . S
Tb610 O626 2.326 . S
Tb610 O628 2.500 . S
Tb610 O629 2.473 . S
Tb610 O632 2.324 . S
Eu611 O615 2.292 . S
Eu611 C616 2.852 . S
Eu611 O627 2.324 . S
Eu611 O631 2.326 . S
Eu611 O633 2.500 . S
Eu611 O634 2.473 . S
C612 O609 1.255 . S
C612 O613 1.247 . S
O613 C612 1.247 . S
C614 O626 1.242 . S
C614 O627 1.258 . S
O615 Eu611 2.292 . S
O615 C617 1.255 . S
C616 Eu611 2.852 . S
C616 C620 1.503 . S
C616 O633 1.273 . S
C616 O634 1.257 . S
C617 O615 1.255 . S
C617 O618 1.247 . S
O618 C617 1.247 . S
C619 O631 1.242 . S
C619 O632 1.258 . S
C620 C616 1.503 . S
C620 C621 1.379 . S
C620 C625 1.392 . S
C621 C620 1.379 . S
C621 C622 1.404 . S
C621 H635 0.929 . S
C622 C621 1.404 . S
C622 C623 1.389 . S
C623 C622 1.389 . S
C623 C624 1.399 . S
C623 H636 0.931 . S
C624 C623 1.399 . S
C624 C625 1.390 . S
C625 C620 1.392 . S
C625 C624 1.390 . S
C625 H637 0.929 . S
O626 Tb610 2.326 . S
O626 C614 1.242 . S
O627 Eu611 2.324 . S
O627 C614 1.258 . S
O628 Tb610 2.500 . S
O628 C630 1.273 . S
O629 Tb610 2.473 . S
O629 C630 1.257 . S
C630 O628 1.273 . S
C630 O629 1.257 . S
O631 Eu611 2.326 . S
O631 C619 1.242 . S
O632 Tb610 2.324 . S
O632 C619 1.258 . S
O633 Eu611 2.500 . S
O633 C616 1.273 . S
O634 Eu611 2.473 . S
O634 C616 1.257 . S
H635 C621 0.929 . S
H636 C623 0.931 . S
H637 C625 0.929 . S
O638 Tb639 2.292 . S
O638 C641 1.255 . S
Tb639 O638 2.292 . S
Tb639 O655 2.326 . S
Tb639 O657 2.500 . S
Tb639 O658 2.473 . S
Tb639 O661 2.324 . S
Eu640 O644 2.292 . S
Eu640 C645 2.852 . S
Eu640 O656 2.324 . S
Eu640 O660 2.326 . S
Eu640 O662 2.500 . S
Eu640 O663 2.473 . S
C641 O638 1.255 . S
C641 O642 1.247 . S
O642 C641 1.247 . S
C643 O655 1.242 . S
C643 O656 1.258 . S
O644 Eu640 2.292 . S
O644 C646 1.255 . S
C645 Eu640 2.852 . S
C645 C649 1.503 . S
C645 O662 1.273 . S
C645 O663 1.257 . S
C646 O644 1.255 . S
C646 O647 1.247 . S
O647 C646 1.247 . S
C648 O660 1.242 . S
C648 O661 1.258 . S
C649 C645 1.503 . S
C649 C650 1.379 . S
C649 C654 1.392 . S
C650 C649 1.379 . S
C650 C651 1.404 . S
C650 H664 0.929 . S
C651 C650 1.404 . S
C651 C652 1.389 . S
C652 C651 1.389 . S
C652 C653 1.399 . S
C652 H665 0.931 . S
C653 C652 1.399 . S
C653 C654 1.390 . S
C654 C649 1.392 . S
C654 C653 1.390 . S
C654 H666 0.929 . S
O655 Tb639 2.326 . S
O655 C643 1.242 . S
O656 Eu640 2.324 . S
O656 C643 1.258 . S
O657 Tb639 2.500 . S
O657 C659 1.273 . S
O658 Tb639 2.473 . S
O658 C659 1.257 . S
C659 O657 1.273 . S
C659 O658 1.257 . S
O660 Eu640 2.326 . S
O660 C648 1.242 . S
O661 Tb639 2.324 . S
O661 C648 1.258 . S
O662 Eu640 2.500 . S
O662 C645 1.273 . S
O663 Eu640 2.473 . S
O663 C645 1.257 . S
H664 C650 0.929 . S
H665 C652 0.931 . S
H666 C654 0.929 . S
O667 Tb668 2.292 . S
O667 C670 1.255 . S
Tb668 O667 2.292 . S
Tb668 O684 2.326 . S
Tb668 O686 2.500 . S
Tb668 O687 2.473 . S
Tb668 O690 2.324 . S
Eu669 O673 2.292 . S
Eu669 C674 2.852 . S
Eu669 O685 2.324 . S
Eu669 O689 2.326 . S
Eu669 O691 2.500 . S
Eu669 O692 2.473 . S
C670 O667 1.255 . S
C670 O671 1.247 . S
O671 C670 1.247 . S
C672 O684 1.242 . S
C672 O685 1.258 . S
O673 Eu669 2.292 . S
O673 C675 1.255 . S
C674 Eu669 2.852 . S
C674 C678 1.503 . S
C674 O691 1.273 . S
C674 O692 1.257 . S
C675 O673 1.255 . S
C675 O676 1.247 . S
O676 C675 1.247 . S
C677 O689 1.242 . S
C677 O690 1.258 . S
C678 C674 1.503 . S
C678 C679 1.379 . S
C678 C683 1.392 . S
C679 C678 1.379 . S
C679 C680 1.404 . S
C679 H693 0.929 . S
C680 C679 1.404 . S
C680 C681 1.389 . S
C681 C680 1.389 . S
C681 C682 1.399 . S
C681 H694 0.931 . S
C682 C681 1.399 . S
C682 C683 1.390 . S
C683 C678 1.392 . S
C683 C682 1.390 . S
C683 H695 0.929 . S
O684 Tb668 2.326 . S
O684 C672 1.242 . S
O685 Eu669 2.324 . S
O685 C672 1.258 . S
O686 Tb668 2.500 . S
O686 C688 1.273 . S
O687 Tb668 2.473 . S
O687 C688 1.257 . S
C688 O686 1.273 . S
C688 O687 1.257 . S
O689 Eu669 2.326 . S
O689 C677 1.242 . S
O690 Tb668 2.324 . S
O690 C677 1.258 . S
O691 Eu669 2.500 . S
O691 C674 1.273 . S
O692 Eu669 2.473 . S
O692 C674 1.257 . S
H693 C679 0.929 . S
H694 C681 0.931 . S
H695 C683 0.929 . S
C696 C697 1.349 . S
C696 C698 1.327 . S
C696 H721 0.950 . S
C697 C696 1.349 . S
C697 C713 1.349 . S
C698 C696 1.327 . S
C698 C717 1.429 . S
C698 H722 0.950 . S
C699 C716 1.574 . S
C699 C718 1.368 . S
C699 H723 0.949 . S
H700 C704 0.949 . S
C701 C702 1.349 . S
C701 C703 1.327 . S
C701 H724 0.950 . S
C702 C701 1.349 . S
C702 C714 1.349 . S
C703 C701 1.327 . S
C703 C719 1.429 . S
C703 H725 0.950 . S
C704 H700 0.949 . S
C704 C712 1.574 . S
C704 C720 1.368 . S
H705 C713 0.950 . S
H706 C711 0.950 . S
H707 C712 0.949 . S
H708 C714 0.950 . S
H709 C715 0.950 . S
H710 C716 0.949 . S
C711 H706 0.950 . S
C711 C713 1.327 . S
C711 C717 1.429 . S
C712 C704 1.574 . S
C712 H707 0.949 . S
C712 C718 1.368 . S
C713 C697 1.349 . S
C713 H705 0.950 . S
C713 C711 1.327 . S
C714 C702 1.349 . S
C714 H708 0.950 . S
C714 C715 1.327 . S
C715 H709 0.950 . S
C715 C714 1.327 . S
C715 C719 1.429 . S
C716 C699 1.574 . S
C716 H710 0.949 . S
C716 C720 1.368 . S
C717 C698 1.429 . S
C717 C711 1.429 . S
C717 C718 1.523 . S
C718 C699 1.368 . S
C718 C712 1.368 . S
C718 C717 1.523 . S
C719 C703 1.429 . S
C719 C715 1.429 . S
C719 C720 1.523 . S
C720 C704 1.368 . S
C720 C716 1.368 . S
C720 C719 1.523 . S
H721 C696 0.950 . S
H722 C698 0.950 . S
H723 C699 0.949 . S
H724 C701 0.950 . S
H725 C703 0.950 . S
C726 C727 1.349 . S
C726 C728 1.327 . S
C726 H751 0.950 . S
C727 C726 1.349 . S
C727 C743 1.349 . S
C728 C726 1.327 . S
C728 C747 1.429 . S
C728 H752 0.950 . S
C729 C746 1.574 . S
C729 C748 1.368 . S
C729 H753 0.949 . S
H730 C734 0.949 . S
C731 C732 1.349 . S
C731 C733 1.327 . S
C731 H754 0.950 . S
C732 C731 1.349 . S
C732 C744 1.349 . S
C733 C731 1.327 . S
C733 C749 1.429 . S
C733 H755 0.950 . S
C734 H730 0.949 . S
C734 C742 1.574 . S
C734 C750 1.368 . S
H735 C743 0.950 . S
H736 C741 0.950 . S
H737 C742 0.949 . S
H738 C744 0.950 . S
H739 C745 0.950 . S
H740 C746 0.949 . S
C741 H736 0.950 . S
C741 C743 1.327 . S
C741 C747 1.429 . S
C742 C734 1.574 . S
C742 H737 0.949 . S
C742 C748 1.368 . S
C743 C727 1.349 . S
C743 H735 0.950 . S
C743 C741 1.327 . S
C744 C732 1.349 . S
C744 H738 0.950 . S
C744 C745 1.327 . S
C745 H739 0.950 . S
C745 C744 1.327 . S
C745 C749 1.429 . S
C746 C729 1.574 . S
C746 H740 0.949 . S
C746 C750 1.368 . S
C747 C728 1.429 . S
C747 C741 1.429 . S
C747 C748 1.523 . S
C748 C729 1.368 . S
C748 C742 1.368 . S
C748 C747 1.523 . S
C749 C733 1.429 . S
C749 C745 1.429 . S
C749 C750 1.523 . S
C750 C734 1.368 . S
C750 C746 1.368 . S
C750 C749 1.523 . S
H751 C726 0.950 . S
H752 C728 0.950 . S
H753 C729 0.949 . S
H754 C731 0.950 . S
H755 C733 0.950 . S
C756 C757 1.349 . S
C756 C758 1.327 . S
C756 H781 0.950 . S
C757 C756 1.349 . S
C757 C773 1.349 . S
C758 C756 1.327 . S
C758 C777 1.429 . S
C758 H782 0.950 . S
C759 C776 1.574 . S
C759 C778 1.368 . S
C759 H783 0.949 . S
H760 C764 0.949 . S
C761 C762 1.349 . S
C761 C763 1.327 . S
C761 H784 0.950 . S
C762 C761 1.349 . S
C762 C774 1.349 . S
C763 C761 1.327 . S
C763 C779 1.429 . S
C763 H785 0.950 . S
C764 H760 0.949 . S
C764 C772 1.574 . S
C764 C780 1.368 . S
H765 C773 0.950 . S
H766 C771 0.950 . S
H767 C772 0.949 . S
H768 C774 0.950 . S
H769 C775 0.950 . S
H770 C776 0.949 . S
C771 H766 0.950 . S
C771 C773 1.327 . S
C771 C777 1.429 . S
C772 C764 1.574 . S
C772 H767 0.949 . S
C772 C778 1.368 . S
C773 C757 1.349 . S
C773 H765 0.950 . S
C773 C771 1.327 . S
C774 C762 1.349 . S
C774 H768 0.950 . S
C774 C775 1.327 . S
C775 H769 0.950 . S
C775 C774 1.327 . S
C775 C779 1.429 . S
C776 C759 1.574 . S
C776 H770 0.949 . S
C776 C780 1.368 . S
C777 C758 1.429 . S
C777 C771 1.429 . S
C777 C778 1.523 . S
C778 C759 1.368 . S
C778 C772 1.368 . S
C778 C777 1.523 . S
C779 C763 1.429 . S
C779 C775 1.429 . S
C779 C780 1.523 . S
C780 C764 1.368 . S
C780 C776 1.368 . S
C780 C779 1.523 . S
H781 C756 0.950 . S
H782 C758 0.950 . S
H783 C759 0.949 . S
H784 C761 0.950 . S
H785 C763 0.950 . S
C786 C787 1.349 . S
C786 C788 1.327 . S
C786 H811 0.950 . S
C787 C786 1.349 . S
C787 C803 1.349 . S
C788 C786 1.327 . S
C788 C807 1.429 . S
C788 H812 0.950 . S
C789 C806 1.574 . S
C789 C808 1.368 . S
C789 H813 0.949 . S
H790 C794 0.949 . S
C791 C792 1.349 . S
C791 C793 1.327 . S
C791 H814 0.950 . S
C792 C791 1.349 . S
C792 C804 1.349 . S
C793 C791 1.327 . S
C793 C809 1.429 . S
C793 H815 0.950 . S
C794 H790 0.949 . S
C794 C802 1.574 . S
C794 C810 1.368 . S
H795 C803 0.950 . S
H796 C801 0.950 . S
H797 C802 0.949 . S
H798 C804 0.950 . S
H799 C805 0.950 . S
H800 C806 0.949 . S
C801 H796 0.950 . S
C801 C803 1.327 . S
C801 C807 1.429 . S
C802 C794 1.574 . S
C802 H797 0.949 . S
C802 C808 1.368 . S
C803 C787 1.349 . S
C803 H795 0.950 . S
C803 C801 1.327 . S
C804 C792 1.349 . S
C804 H798 0.950 . S
C804 C805 1.327 . S
C805 H799 0.950 . S
C805 C804 1.327 . S
C805 C809 1.429 . S
C806 C789 1.574 . S
C806 H800 0.949 . S
C806 C810 1.368 . S
C807 C788 1.429 . S
C807 C801 1.429 . S
C807 C808 1.523 . S
C808 C789 1.368 . S
C808 C802 1.368 . S
C808 C807 1.523 . S
C809 C793 1.429 . S
C809 C805 1.429 . S
C809 C810 1.523 . S
C810 C794 1.368 . S
C810 C806 1.368 . S
C810 C809 1.523 . S
H811 C786 0.950 . S
H812 C788 0.950 . S
H813 C789 0.949 . S
H814 C791 0.950 . S
H815 C793 0.950 . S
C816 C817 1.349 . S
C816 C818 1.327 . S
C816 H841 0.950 . S
C817 C816 1.349 . S
C817 C833 1.349 . S
C818 C816 1.327 . S
C818 C837 1.429 . S
C818 H842 0.950 . S
C819 C836 1.574 . S
C819 C838 1.368 . S
C819 H843 0.949 . S
H820 C824 0.949 . S
C821 C822 1.349 . S
C821 C823 1.327 . S
C821 H844 0.950 . S
C822 C821 1.349 . S
C822 C834 1.349 . S
C823 C821 1.327 . S
C823 C839 1.429 . S
C823 H845 0.950 . S
C824 H820 0.949 . S
C824 C832 1.574 . S
C824 C840 1.368 . S
H825 C833 0.950 . S
H826 C831 0.950 . S
H827 C832 0.949 . S
H828 C834 0.950 . S
H829 C835 0.950 . S
H830 C836 0.949 . S
C831 H826 0.950 . S
C831 C833 1.327 . S
C831 C837 1.429 . S
C832 C824 1.574 . S
C832 H827 0.949 . S
C832 C838 1.368 . S
C833 C817 1.349 . S
C833 H825 0.950 . S
C833 C831 1.327 . S
C834 C822 1.349 . S
C834 H828 0.950 . S
C834 C835 1.327 . S
C835 H829 0.950 . S
C835 C834 1.327 . S
C835 C839 1.429 . S
C836 C819 1.574 . S
C836 H830 0.949 . S
C836 C840 1.368 . S
C837 C818 1.429 . S
C837 C831 1.429 . S
C837 C838 1.523 . S
C838 C819 1.368 . S
C838 C832 1.368 . S
C838 C837 1.523 . S
C839 C823 1.429 . S
C839 C835 1.429 . S
C839 C840 1.523 . S
C840 C824 1.368 . S
C840 C836 1.368 . S
C840 C839 1.523 . S
H841 C816 0.950 . S
H842 C818 0.950 . S
H843 C819 0.949 . S
H844 C821 0.950 . S
H845 C823 0.950 . S
C846 C847 1.349 . S
C846 C848 1.327 . S
C846 H871 0.950 . S
C847 C846 1.349 . S
C847 C863 1.349 . S
C848 C846 1.327 . S
C848 C867 1.429 . S
C848 H872 0.950 . S
C849 C866 1.574 . S
C849 C868 1.368 . S
C849 H873 0.949 . S
H850 C854 0.949 . S
C851 C852 1.349 . S
C851 C853 1.327 . S
C851 H874 0.950 . S
C852 C851 1.349 . S
C852 C864 1.349 . S
C853 C851 1.327 . S
C853 C869 1.429 . S
C853 H875 0.950 . S
C854 H850 0.949 . S
C854 C862 1.574 . S
C854 C870 1.368 . S
H855 C863 0.950 . S
H856 C861 0.950 . S
H857 C862 0.949 . S
H858 C864 0.950 . S
H859 C865 0.950 . S
H860 C866 0.949 . S
C861 H856 0.950 . S
C861 C863 1.327 . S
C861 C867 1.429 . S
C862 C854 1.574 . S
C862 H857 0.949 . S
C862 C868 1.368 . S
C863 C847 1.349 . S
C863 H855 0.950 . S
C863 C861 1.327 . S
C864 C852 1.349 . S
C864 H858 0.950 . S
C864 C865 1.327 . S
C865 H859 0.950 . S
C865 C864 1.327 . S
C865 C869 1.429 . S
C866 C849 1.574 . S
C866 H860 0.949 . S
C866 C870 1.368 . S
C867 C848 1.429 . S
C867 C861 1.429 . S
C867 C868 1.523 . S
C868 C849 1.368 . S
C868 C862 1.368 . S
C868 C867 1.523 . S
C869 C853 1.429 . S
C869 C865 1.429 . S
C869 C870 1.523 . S
C870 C854 1.368 . S
C870 C866 1.368 . S
C870 C869 1.523 . S
H871 C846 0.950 . S
H872 C848 0.950 . S
H873 C849 0.949 . S
H874 C851 0.950 . S
H875 C853 0.950 . S
C876 C877 1.349 . S
C876 C878 1.327 . S
C876 H901 0.950 . S
C877 C876 1.349 . S
C877 C893 1.349 . S
C878 C876 1.327 . S
C878 C897 1.429 . S
C878 H902 0.950 . S
C879 C896 1.574 . S
C879 C898 1.368 . S
C879 H903 0.949 . S
H880 C884 0.949 . S
C881 C882 1.349 . S
C881 C883 1.327 . S
C881 H904 0.950 . S
C882 C881 1.349 . S
C882 C894 1.349 . S
C883 C881 1.327 . S
C883 C899 1.429 . S
C883 H905 0.950 . S
C884 H880 0.949 . S
C884 C892 1.574 . S
C884 C900 1.368 . S
H885 C893 0.950 . S
H886 C891 0.950 . S
H887 C892 0.949 . S
H888 C894 0.950 . S
H889 C895 0.950 . S
H890 C896 0.949 . S
C891 H886 0.950 . S
C891 C893 1.327 . S
C891 C897 1.429 . S
C892 C884 1.574 . S
C892 H887 0.949 . S
C892 C898 1.368 . S
C893 C877 1.349 . S
C893 H885 0.950 . S
C893 C891 1.327 . S
C894 C882 1.349 . S
C894 H888 0.950 . S
C894 C895 1.327 . S
C895 H889 0.950 . S
C895 C894 1.327 . S
C895 C899 1.429 . S
C896 C879 1.574 . S
C896 H890 0.949 . S
C896 C900 1.368 . S
C897 C878 1.429 . S
C897 C891 1.429 . S
C897 C898 1.523 . S
C898 C879 1.368 . S
C898 C892 1.368 . S
C898 C897 1.523 . S
C899 C883 1.429 . S
C899 C895 1.429 . S
C899 C900 1.523 . S
C900 C884 1.368 . S
C900 C896 1.368 . S
C900 C899 1.523 . S
H901 C876 0.950 . S
H902 C878 0.950 . S
H903 C879 0.949 . S
H904 C881 0.950 . S
H905 C883 0.950 . S
C906 C907 1.349 . S
C906 C908 1.327 . S
C906 H931 0.950 . S
C907 C906 1.349 . S
C907 C923 1.349 . S
C908 C906 1.327 . S
C908 C927 1.429 . S
C908 H932 0.950 . S
C909 C926 1.574 . S
C909 C928 1.368 . S
C909 H933 0.949 . S
H910 C914 0.949 . S
C911 C912 1.349 . S
C911 C913 1.327 . S
C911 H934 0.950 . S
C912 C911 1.349 . S
C912 C924 1.349 . S
C913 C911 1.327 . S
C913 C929 1.429 . S
C913 H935 0.950 . S
C914 H910 0.949 . S
C914 C922 1.574 . S
C914 C930 1.368 . S
H915 C923 0.950 . S
H916 C921 0.950 . S
H917 C922 0.949 . S
H918 C924 0.950 . S
H919 C925 0.950 . S
H920 C926 0.949 . S
C921 H916 0.950 . S
C921 C923 1.327 . S
C921 C927 1.429 . S
C922 C914 1.574 . S
C922 H917 0.949 . S
C922 C928 1.368 . S
C923 C907 1.349 . S
C923 H915 0.950 . S
C923 C921 1.327 . S
C924 C912 1.349 . S
C924 H918 0.950 . S
C924 C925 1.327 . S
C925 H919 0.950 . S
C925 C924 1.327 . S
C925 C929 1.429 . S
C926 C909 1.574 . S
C926 H920 0.949 . S
C926 C930 1.368 . S
C927 C908 1.429 . S
C927 C921 1.429 . S
C927 C928 1.523 . S
C928 C909 1.368 . S
C928 C922 1.368 . S
C928 C927 1.523 . S
C929 C913 1.429 . S
C929 C925 1.429 . S
C929 C930 1.523 . S
C930 C914 1.368 . S
C930 C926 1.368 . S
C930 C929 1.523 . S
H931 C906 0.950 . S
H932 C908 0.950 . S
H933 C909 0.949 . S
H934 C911 0.950 . S
H935 C913 0.950 . S
C936 C937 1.349 . S
C936 C938 1.327 . S
C936 H961 0.950 . S
C937 C936 1.349 . S
C937 C953 1.349 . S
C938 C936 1.327 . S
C938 C957 1.429 . S
C938 H962 0.950 . S
C939 C956 1.574 . S
C939 C958 1.368 . S
C939 H963 0.949 . S
H940 C944 0.949 . S
C941 C942 1.349 . S
C941 C943 1.327 . S
C941 H964 0.950 . S
C942 C941 1.349 . S
C942 C954 1.349 . S
C943 C941 1.327 . S
C943 C959 1.429 . S
C943 H965 0.950 . S
C944 H940 0.949 . S
C944 C952 1.574 . S
C944 C960 1.368 . S
H945 C953 0.950 . S
H946 C951 0.950 . S
H947 C952 0.949 . S
H948 C954 0.950 . S
H949 C955 0.950 . S
H950 C956 0.949 . S
C951 H946 0.950 . S
C951 C953 1.327 . S
C951 C957 1.429 . S
C952 C944 1.574 . S
C952 H947 0.949 . S
C952 C958 1.368 . S
C953 C937 1.349 . S
C953 H945 0.950 . S
C953 C951 1.327 . S
C954 C942 1.349 . S
C954 H948 0.950 . S
C954 C955 1.327 . S
C955 H949 0.950 . S
C955 C954 1.327 . S
C955 C959 1.429 . S
C956 C939 1.574 . S
C956 H950 0.949 . S
C956 C960 1.368 . S
C957 C938 1.429 . S
C957 C951 1.429 . S
C957 C958 1.523 . S
C958 C939 1.368 . S
C958 C952 1.368 . S
C958 C957 1.523 . S
C959 C943 1.429 . S
C959 C955 1.429 . S
C959 C960 1.523 . S
C960 C944 1.368 . S
C960 C956 1.368 . S
C960 C959 1.523 . S
H961 C936 0.950 . S
H962 C938 0.950 . S
H963 C939 0.949 . S
H964 C941 0.950 . S
H965 C943 0.950 . S
C966 C967 1.349 . S
C966 C968 1.327 . S
C966 H991 0.950 . S
C967 C966 1.349 . S
C967 C983 1.349 . S
C968 C966 1.327 . S
C968 C987 1.429 . S
C968 H992 0.950 . S
C969 C986 1.574 . S
C969 C988 1.368 . S
C969 H993 0.949 . S
H970 C974 0.949 . S
C971 C972 1.349 . S
C971 C973 1.327 . S
C971 H994 0.950 . S
C972 C971 1.349 . S
C972 C984 1.349 . S
C973 C971 1.327 . S
C973 C989 1.429 . S
C973 H995 0.950 . S
C974 H970 0.949 . S
C974 C982 1.574 . S
C974 C990 1.368 . S
H975 C983 0.950 . S
H976 C981 0.950 . S
H977 C982 0.949 . S
H978 C984 0.950 . S
H979 C985 0.950 . S
H980 C986 0.949 . S
C981 H976 0.950 . S
C981 C983 1.327 . S
C981 C987 1.429 . S
C982 C974 1.574 . S
C982 H977 0.949 . S
C982 C988 1.368 . S
C983 C967 1.349 . S
C983 H975 0.950 . S
C983 C981 1.327 . S
C984 C972 1.349 . S
C984 H978 0.950 . S
C984 C985 1.327 . S
C985 H979 0.950 . S
C985 C984 1.327 . S
C985 C989 1.429 . S
C986 C969 1.574 . S
C986 H980 0.949 . S
C986 C990 1.368 . S
C987 C968 1.429 . S
C987 C981 1.429 . S
C987 C988 1.523 . S
C988 C969 1.368 . S
C988 C982 1.368 . S
C988 C987 1.523 . S
C989 C973 1.429 . S
C989 C985 1.429 . S
C989 C990 1.523 . S
C990 C974 1.368 . S
C990 C986 1.368 . S
C990 C989 1.523 . S
H991 C966 0.950 . S
H992 C968 0.950 . S
H993 C969 0.949 . S
H994 C971 0.950 . S
H995 C973 0.950 . S
C996 C997 1.349 . S
C996 C998 1.327 . S
C996 H1021 0.950 . S
C997 C996 1.349 . S
C997 C1013 1.349 . S
C998 C996 1.327 . S
C998 C1017 1.429 . S
C998 H1022 0.950 . S
C999 C1016 1.574 . S
C999 C1018 1.368 . S
C999 H1023 0.949 . S
H1000 C1004 0.949 . S
C1001 C1002 1.349 . S
C1001 C1003 1.327 . S
C1001 H1024 0.950 . S
C1002 C1001 1.349 . S
C1002 C1014 1.349 . S
C1003 C1001 1.327 . S
C1003 C1019 1.429 . S
C1003 H1025 0.950 . S
C1004 H1000 0.949 . S
C1004 C1012 1.574 . S
C1004 C1020 1.368 . S
H1005 C1013 0.950 . S
H1006 C1011 0.950 . S
H1007 C1012 0.949 . S
H1008 C1014 0.950 . S
H1009 C1015 0.950 . S
H1010 C1016 0.949 . S
C1011 H1006 0.950 . S
C1011 C1013 1.327 . S
C1011 C1017 1.429 . S
C1012 C1004 1.574 . S
C1012 H1007 0.949 . S
C1012 C1018 1.368 . S
C1013 C997 1.349 . S
C1013 H1005 0.950 . S
C1013 C1011 1.327 . S
C1014 C1002 1.349 . S
C1014 H1008 0.950 . S
C1014 C1015 1.327 . S
C1015 H1009 0.950 . S
C1015 C1014 1.327 . S
C1015 C1019 1.429 . S
C1016 C999 1.574 . S
C1016 H1010 0.949 . S
C1016 C1020 1.368 . S
C1017 C998 1.429 . S
C1017 C1011 1.429 . S
C1017 C1018 1.523 . S
C1018 C999 1.368 . S
C1018 C1012 1.368 . S
C1018 C1017 1.523 . S
C1019 C1003 1.429 . S
C1019 C1015 1.429 . S
C1019 C1020 1.523 . S
C1020 C1004 1.368 . S
C1020 C1016 1.368 . S
C1020 C1019 1.523 . S
H1021 C996 0.950 . S
H1022 C998 0.950 . S
H1023 C999 0.949 . S
H1024 C1001 0.950 . S
H1025 C1003 0.950 . S
C1026 C1027 1.349 . S
C1026 C1028 1.327 . S
C1026 H1051 0.950 . S
C1027 C1026 1.349 . S
C1027 C1043 1.349 . S
C1028 C1026 1.327 . S
C1028 C1047 1.429 . S
C1028 H1052 0.950 . S
C1029 C1046 1.574 . S
C1029 C1048 1.368 . S
C1029 H1053 0.949 . S
H1030 C1034 0.949 . S
C1031 C1032 1.349 . S
C1031 C1033 1.327 . S
C1031 H1054 0.950 . S
C1032 C1031 1.349 . S
C1032 C1044 1.349 . S
C1033 C1031 1.327 . S
C1033 C1049 1.429 . S
C1033 H1055 0.950 . S
C1034 H1030 0.949 . S
C1034 C1042 1.574 . S
C1034 C1050 1.368 . S
H1035 C1043 0.950 . S
H1036 C1041 0.950 . S
H1037 C1042 0.949 . S
H1038 C1044 0.950 . S
H1039 C1045 0.950 . S
H1040 C1046 0.949 . S
C1041 H1036 0.950 . S
C1041 C1043 1.327 . S
C1041 C1047 1.429 . S
C1042 C1034 1.574 . S
C1042 H1037 0.949 . S
C1042 C1048 1.368 . S
C1043 C1027 1.349 . S
C1043 H1035 0.950 . S
C1043 C1041 1.327 . S
C1044 C1032 1.349 . S
C1044 H1038 0.950 . S
C1044 C1045 1.327 . S
C1045 H1039 0.950 . S
C1045 C1044 1.327 . S
C1045 C1049 1.429 . S
C1046 C1029 1.574 . S
C1046 H1040 0.949 . S
C1046 C1050 1.368 . S
C1047 C1028 1.429 . S
C1047 C1041 1.429 . S
C1047 C1048 1.523 . S
C1048 C1029 1.368 . S
C1048 C1042 1.368 . S
C1048 C1047 1.523 . S
C1049 C1033 1.429 . S
C1049 C1045 1.429 . S
C1049 C1050 1.523 . S
C1050 C1034 1.368 . S
C1050 C1046 1.368 . S
C1050 C1049 1.523 . S
H1051 C1026 0.950 . S
H1052 C1028 0.950 . S
H1053 C1029 0.949 . S
H1054 C1031 0.950 . S
H1055 C1033 0.950 . S
C1056 C1057 1.349 . S
C1056 C1058 1.327 . S
C1056 H1081 0.950 . S
C1057 C1056 1.349 . S
C1057 C1073 1.349 . S
C1058 C1056 1.327 . S
C1058 C1077 1.429 . S
C1058 H1082 0.950 . S
C1059 C1076 1.574 . S
C1059 C1078 1.368 . S
C1059 H1083 0.949 . S
H1060 C1064 0.949 . S
C1061 C1062 1.349 . S
C1061 C1063 1.327 . S
C1061 H1084 0.950 . S
C1062 C1061 1.349 . S
C1062 C1074 1.349 . S
C1063 C1061 1.327 . S
C1063 C1079 1.429 . S
C1063 H1085 0.950 . S
C1064 H1060 0.949 . S
C1064 C1072 1.574 . S
C1064 C1080 1.368 . S
H1065 C1073 0.950 . S
H1066 C1071 0.950 . S
H1067 C1072 0.949 . S
H1068 C1074 0.950 . S
H1069 C1075 0.950 . S
H1070 C1076 0.949 . S
C1071 H1066 0.950 . S
C1071 C1073 1.327 . S
C1071 C1077 1.429 . S
C1072 C1064 1.574 . S
C1072 H1067 0.949 . S
C1072 C1078 1.368 . S
C1073 C1057 1.349 . S
C1073 H1065 0.950 . S
C1073 C1071 1.327 . S
C1074 C1062 1.349 . S
C1074 H1068 0.950 . S
C1074 C1075 1.327 . S
C1075 H1069 0.950 . S
C1075 C1074 1.327 . S
C1075 C1079 1.429 . S
C1076 C1059 1.574 . S
C1076 H1070 0.949 . S
C1076 C1080 1.368 . S
C1077 C1058 1.429 . S
C1077 C1071 1.429 . S
C1077 C1078 1.523 . S
C1078 C1059 1.368 . S
C1078 C1072 1.368 . S
C1078 C1077 1.523 . S
C1079 C1063 1.429 . S
C1079 C1075 1.429 . S
C1079 C1080 1.523 . S
C1080 C1064 1.368 . S
C1080 C1076 1.368 . S
C1080 C1079 1.523 . S
H1081 C1056 0.950 . S
H1082 C1058 0.950 . S
H1083 C1059 0.949 . S
H1084 C1061 0.950 . S
H1085 C1063 0.950 . S
C1086 C1087 1.349 . S
C1086 C1088 1.327 . S
C1086 H1111 0.950 . S
C1087 C1086 1.349 . S
C1087 C1103 1.349 . S
C1088 C1086 1.327 . S
C1088 C1107 1.429 . S
C1088 H1112 0.950 . S
C1089 C1106 1.574 . S
C1089 C1108 1.368 . S
C1089 H1113 0.949 . S
H1090 C1094 0.949 . S
C1091 C1092 1.349 . S
C1091 C1093 1.327 . S
C1091 H1114 0.950 . S
C1092 C1091 1.349 . S
C1092 C1104 1.349 . S
C1093 C1091 1.327 . S
C1093 C1109 1.429 . S
C1093 H1115 0.950 . S
C1094 H1090 0.949 . S
C1094 C1102 1.574 . S
C1094 C1110 1.368 . S
H1095 C1103 0.950 . S
H1096 C1101 0.950 . S
H1097 C1102 0.949 . S
H1098 C1104 0.950 . S
H1099 C1105 0.950 . S
H1100 C1106 0.949 . S
C1101 H1096 0.950 . S
C1101 C1103 1.327 . S
C1101 C1107 1.429 . S
C1102 C1094 1.574 . S
C1102 H1097 0.949 . S
C1102 C1108 1.368 . S
C1103 C1087 1.349 . S
C1103 H1095 0.950 . S
C1103 C1101 1.327 . S
C1104 C1092 1.349 . S
C1104 H1098 0.950 . S
C1104 C1105 1.327 . S
C1105 H1099 0.950 . S
C1105 C1104 1.327 . S
C1105 C1109 1.429 . S
C1106 C1089 1.574 . S
C1106 H1100 0.949 . S
C1106 C1110 1.368 . S
C1107 C1088 1.429 . S
C1107 C1101 1.429 . S
C1107 C1108 1.523 . S
C1108 C1089 1.368 . S
C1108 C1102 1.368 . S
C1108 C1107 1.523 . S
C1109 C1093 1.429 . S
C1109 C1105 1.429 . S
C1109 C1110 1.523 . S
C1110 C1094 1.368 . S
C1110 C1106 1.368 . S
C1110 C1109 1.523 . S
H1111 C1086 0.950 . S
H1112 C1088 0.950 . S
H1113 C1089 0.949 . S
H1114 C1091 0.950 . S
H1115 C1093 0.950 . S
C1116 C1117 1.349 . S
C1116 C1118 1.327 . S
C1116 H1141 0.950 . S
C1117 C1116 1.349 . S
C1117 C1133 1.349 . S
C1118 C1116 1.327 . S
C1118 C1137 1.429 . S
C1118 H1142 0.950 . S
C1119 C1136 1.574 . S
C1119 C1138 1.368 . S
C1119 H1143 0.949 . S
H1120 C1124 0.949 . S
C1121 C1122 1.349 . S
C1121 C1123 1.327 . S
C1121 H1144 0.950 . S
C1122 C1121 1.349 . S
C1122 C1134 1.349 . S
C1123 C1121 1.327 . S
C1123 C1139 1.429 . S
C1123 H1145 0.950 . S
C1124 H1120 0.949 . S
C1124 C1132 1.574 . S
C1124 C1140 1.368 . S
H1125 C1133 0.950 . S
H1126 C1131 0.950 . S
H1127 C1132 0.949 . S
H1128 C1134 0.950 . S
H1129 C1135 0.950 . S
H1130 C1136 0.949 . S
C1131 H1126 0.950 . S
C1131 C1133 1.327 . S
C1131 C1137 1.429 . S
C1132 C1124 1.574 . S
C1132 H1127 0.949 . S
C1132 C1138 1.368 . S
C1133 C1117 1.349 . S
C1133 H1125 0.950 . S
C1133 C1131 1.327 . S
C1134 C1122 1.349 . S
C1134 H1128 0.950 . S
C1134 C1135 1.327 . S
C1135 H1129 0.950 . S
C1135 C1134 1.327 . S
C1135 C1139 1.429 . S
C1136 C1119 1.574 . S
C1136 H1130 0.949 . S
C1136 C1140 1.368 . S
C1137 C1118 1.429 . S
C1137 C1131 1.429 . S
C1137 C1138 1.523 . S
C1138 C1119 1.368 . S
C1138 C1132 1.368 . S
C1138 C1137 1.523 . S
C1139 C1123 1.429 . S
C1139 C1135 1.429 . S
C1139 C1140 1.523 . S
C1140 C1124 1.368 . S
C1140 C1136 1.368 . S
C1140 C1139 1.523 . S
H1141 C1116 0.950 . S
H1142 C1118 0.950 . S
H1143 C1119 0.949 . S
H1144 C1121 0.950 . S
H1145 C1123 0.950 . S
C1146 C1147 1.349 . S
C1146 C1148 1.327 . S
C1146 H1171 0.950 . S
C1147 C1146 1.349 . S
C1147 C1163 1.349 . S
C1148 C1146 1.327 . S
C1148 C1167 1.429 . S
C1148 H1172 0.950 . S
C1149 C1166 1.574 . S
C1149 C1168 1.368 . S
C1149 H1173 0.949 . S
H1150 C1154 0.949 . S
C1151 C1152 1.349 . S
C1151 C1153 1.327 . S
C1151 H1174 0.950 . S
C1152 C1151 1.349 . S
C1152 C1164 1.349 . S
C1153 C1151 1.327 . S
C1153 C1169 1.429 . S
C1153 H1175 0.950 . S
C1154 H1150 0.949 . S
C1154 C1162 1.574 . S
C1154 C1170 1.368 . S
H1155 C1163 0.950 . S
H1156 C1161 0.950 . S
H1157 C1162 0.949 . S
H1158 C1164 0.950 . S
H1159 C1165 0.950 . S
H1160 C1166 0.949 . S
C1161 H1156 0.950 . S
C1161 C1163 1.327 . S
C1161 C1167 1.429 . S
C1162 C1154 1.574 . S
C1162 H1157 0.949 . S
C1162 C1168 1.368 . S
C1163 C1147 1.349 . S
C1163 H1155 0.950 . S
C1163 C1161 1.327 . S
C1164 C1152 1.349 . S
C1164 H1158 0.950 . S
C1164 C1165 1.327 . S
C1165 H1159 0.950 . S
C1165 C1164 1.327 . S
C1165 C1169 1.429 . S
C1166 C1149 1.574 . S
C1166 H1160 0.949 . S
C1166 C1170 1.368 . S
C1167 C1148 1.429 . S
C1167 C1161 1.429 . S
C1167 C1168 1.523 . S
C1168 C1149 1.368 . S
C1168 C1162 1.368 . S
C1168 C1167 1.523 . S
C1169 C1153 1.429 . S
C1169 C1165 1.429 . S
C1169 C1170 1.523 . S
C1170 C1154 1.368 . S
C1170 C1166 1.368 . S
C1170 C1169 1.523 . S
H1171 C1146 0.950 . S
H1172 C1148 0.950 . S
H1173 C1149 0.949 . S
H1174 C1151 0.950 . S
H1175 C1153 0.950 . S
C1176 C1177 1.349 . S
C1176 C1178 1.327 . S
C1176 H1201 0.950 . S
C1177 C1176 1.349 . S
C1177 C1193 1.349 . S
C1178 C1176 1.327 . S
C1178 C1197 1.429 . S
C1178 H1202 0.950 . S
C1179 C1196 1.574 . S
C1179 C1198 1.368 . S
C1179 H1203 0.949 . S
H1180 C1184 0.949 . S
C1181 C1182 1.349 . S
C1181 C1183 1.327 . S
C1181 H1204 0.950 . S
C1182 C1181 1.349 . S
C1182 C1194 1.349 . S
C1183 C1181 1.327 . S
C1183 C1199 1.429 . S
C1183 H1205 0.950 . S
C1184 H1180 0.949 . S
C1184 C1192 1.574 . S
C1184 C1200 1.368 . S
H1185 C1193 0.950 . S
H1186 C1191 0.950 . S
H1187 C1192 0.949 . S
H1188 C1194 0.950 . S
H1189 C1195 0.950 . S
H1190 C1196 0.949 . S
C1191 H1186 0.950 . S
C1191 C1193 1.327 . S
C1191 C1197 1.429 . S
C1192 C1184 1.574 . S
C1192 H1187 0.949 . S
C1192 C1198 1.368 . S
C1193 C1177 1.349 . S
C1193 H1185 0.950 . S
C1193 C1191 1.327 . S
C1194 C1182 1.349 . S
C1194 H1188 0.950 . S
C1194 C1195 1.327 . S
C1195 H1189 0.950 . S
C1195 C1194 1.327 . S
C1195 C1199 1.429 . S
C1196 C1179 1.574 . S
C1196 H1190 0.949 . S
C1196 C1200 1.368 . S
C1197 C1178 1.429 . S
C1197 C1191 1.429 . S
C1197 C1198 1.523 . S
C1198 C1179 1.368 . S
C1198 C1192 1.368 . S
C1198 C1197 1.523 . S
C1199 C1183 1.429 . S
C1199 C1195 1.429 . S
C1199 C1200 1.523 . S
C1200 C1184 1.368 . S
C1200 C1196 1.368 . S
C1200 C1199 1.523 . S
H1201 C1176 0.950 . S
H1202 C1178 0.950 . S
H1203 C1179 0.949 . S
H1204 C1181 0.950 . S
H1205 C1183 0.950 . S
C1206 C1207 1.349 . S
C1206 C1208 1.327 . S
C1206 H1231 0.950 . S
C1207 C1206 1.349 . S
C1207 C1223 1.349 . S
C1208 C1206 1.327 . S
C1208 C1227 1.429 . S
C1208 H1232 0.950 . S
C1209 C1226 1.574 . S
C1209 C1228 1.368 . S
C1209 H1233 0.949 . S
H1210 C1214 0.949 . S
C1211 C1212 1.349 . S
C1211 C1213 1.327 . S
C1211 H1234 0.950 . S
C1212 C1211 1.349 . S
C1212 C1224 1.349 . S
C1213 C1211 1.327 . S
C1213 C1229 1.429 . S
C1213 H1235 0.950 . S
C1214 H1210 0.949 . S
C1214 C1222 1.574 . S
C1214 C1230 1.368 . S
H1215 C1223 0.950 . S
H1216 C1221 0.950 . S
H1217 C1222 0.949 . S
H1218 C1224 0.950 . S
H1219 C1225 0.950 . S
H1220 C1226 0.949 . S
C1221 H1216 0.950 . S
C1221 C1223 1.327 . S
C1221 C1227 1.429 . S
C1222 C1214 1.574 . S
C1222 H1217 0.949 . S
C1222 C1228 1.368 . S
C1223 C1207 1.349 . S
C1223 H1215 0.950 . S
C1223 C1221 1.327 . S
C1224 C1212 1.349 . S
C1224 H1218 0.950 . S
C1224 C1225 1.327 . S
C1225 H1219 0.950 . S
C1225 C1224 1.327 . S
C1225 C1229 1.429 . S
C1226 C1209 1.574 . S
C1226 H1220 0.949 . S
C1226 C1230 1.368 . S
C1227 C1208 1.429 . S
C1227 C1221 1.429 . S
C1227 C1228 1.523 . S
C1228 C1209 1.368 . S
C1228 C1222 1.368 . S
C1228 C1227 1.523 . S
C1229 C1213 1.429 . S
C1229 C1225 1.429 . S
C1229 C1230 1.523 . S
C1230 C1214 1.368 . S
C1230 C1226 1.368 . S
C1230 C1229 1.523 . S
H1231 C1206 0.950 . S
H1232 C1208 0.950 . S
H1233 C1209 0.949 . S
H1234 C1211 0.950 . S
H1235 C1213 0.950 . S
C1236 C1237 1.349 . S
C1236 C1238 1.327 . S
C1236 H1261 0.950 . S
C1237 C1236 1.349 . S
C1237 C1253 1.349 . S
C1238 C1236 1.327 . S
C1238 C1257 1.429 . S
C1238 H1262 0.950 . S
C1239 C1256 1.574 . S
C1239 C1258 1.368 . S
C1239 H1263 0.949 . S
H1240 C1244 0.949 . S
C1241 C1242 1.349 . S
C1241 C1243 1.327 . S
C1241 H1264 0.950 . S
C1242 C1241 1.349 . S
C1242 C1254 1.349 . S
C1243 C1241 1.327 . S
C1243 C1259 1.429 . S
C1243 H1265 0.950 . S
C1244 H1240 0.949 . S
C1244 C1252 1.574 . S
C1244 C1260 1.368 . S
H1245 C1253 0.950 . S
H1246 C1251 0.950 . S
H1247 C1252 0.949 . S
H1248 C1254 0.950 . S
H1249 C1255 0.950 . S
H1250 C1256 0.949 . S
C1251 H1246 0.950 . S
C1251 C1253 1.327 . S
C1251 C1257 1.429 . S
C1252 C1244 1.574 . S
C1252 H1247 0.949 . S
C1252 C1258 1.368 . S
C1253 C1237 1.349 . S
C1253 H1245 0.950 . S
C1253 C1251 1.327 . S
C1254 C1242 1.349 . S
C1254 H1248 0.950 . S
C1254 C1255 1.327 . S
C1255 H1249 0.950 . S
C1255 C1254 1.327 . S
C1255 C1259 1.429 . S
C1256 C1239 1.574 . S
C1256 H1250 0.949 . S
C1256 C1260 1.368 . S
C1257 C1238 1.429 . S
C1257 C1251 1.429 . S
C1257 C1258 1.523 . S
C1258 C1239 1.368 . S
C1258 C1252 1.368 . S
C1258 C1257 1.523 . S
C1259 C1243 1.429 . S
C1259 C1255 1.429 . S
C1259 C1260 1.523 . S
C1260 C1244 1.368 . S
C1260 C1256 1.368 . S
C1260 C1259 1.523 . S
H1261 C1236 0.950 . S
H1262 C1238 0.950 . S
H1263 C1239 0.949 . S
H1264 C1241 0.950 . S
H1265 C1243 0.950 . S
C1266 C1267 1.349 . S
C1266 C1268 1.327 . S
C1266 H1291 0.950 . S
C1267 C1266 1.349 . S
C1267 C1283 1.349 . S
C1268 C1266 1.327 . S
C1268 C1287 1.429 . S
C1268 H1292 0.950 . S
C1269 C1286 1.574 . S
C1269 C1288 1.368 . S
C1269 H1293 0.949 . S
H1270 C1274 0.949 . S
C1271 C1272 1.349 . S
C1271 C1273 1.327 . S
C1271 H1294 0.950 . S
C1272 C1271 1.349 . S
C1272 C1284 1.349 . S
C1273 C1271 1.327 . S
C1273 C1289 1.429 . S
C1273 H1295 0.950 . S
C1274 H1270 0.949 . S
C1274 C1282 1.574 . S
C1274 C1290 1.368 . S
H1275 C1283 0.950 . S
H1276 C1281 0.950 . S
H1277 C1282 0.949 . S
H1278 C1284 0.950 . S
H1279 C1285 0.950 . S
H1280 C1286 0.949 . S
C1281 H1276 0.950 . S
C1281 C1283 1.327 . S
C1281 C1287 1.429 . S
C1282 C1274 1.574 . S
C1282 H1277 0.949 . S
C1282 C1288 1.368 . S
C1283 C1267 1.349 . S
C1283 H1275 0.950 . S
C1283 C1281 1.327 . S
C1284 C1272 1.349 . S
C1284 H1278 0.950 . S
C1284 C1285 1.327 . S
C1285 H1279 0.950 . S
C1285 C1284 1.327 . S
C1285 C1289 1.429 . S
C1286 C1269 1.574 . S
C1286 H1280 0.949 . S
C1286 C1290 1.368 . S
C1287 C1268 1.429 . S
C1287 C1281 1.429 . S
C1287 C1288 1.523 . S
C1288 C1269 1.368 . S
C1288 C1282 1.368 . S
C1288 C1287 1.523 . S
C1289 C1273 1.429 . S
C1289 C1285 1.429 . S
C1289 C1290 1.523 . S
C1290 C1274 1.368 . S
C1290 C1286 1.368 . S
C1290 C1289 1.523 . S
H1291 C1266 0.950 . S
H1292 C1268 0.950 . S
H1293 C1269 0.949 . S
H1294 C1271 0.950 . S
H1295 C1273 0.950 . S
C1296 C1297 1.349 . S
C1296 C1298 1.327 . S
C1296 H1321 0.950 . S
C1297 C1296 1.349 . S
C1297 C1313 1.349 . S
C1298 C1296 1.327 . S
C1298 C1317 1.429 . S
C1298 H1322 0.950 . S
C1299 C1316 1.574 . S
C1299 C1318 1.368 . S
C1299 H1323 0.949 . S
H1300 C1304 0.949 . S
C1301 C1302 1.349 . S
C1301 C1303 1.327 . S
C1301 H1324 0.950 . S
C1302 C1301 1.349 . S
C1302 C1314 1.349 . S
C1303 C1301 1.327 . S
C1303 C1319 1.429 . S
C1303 H1325 0.950 . S
C1304 H1300 0.949 . S
C1304 C1312 1.574 . S
C1304 C1320 1.368 . S
H1305 C1313 0.950 . S
H1306 C1311 0.950 . S
H1307 C1312 0.949 . S
H1308 C1314 0.950 . S
H1309 C1315 0.950 . S
H1310 C1316 0.949 . S
C1311 H1306 0.950 . S
C1311 C1313 1.327 . S
C1311 C1317 1.429 . S
C1312 C1304 1.574 . S
C1312 H1307 0.949 . S
C1312 C1318 1.368 . S
C1313 C1297 1.349 . S
C1313 H1305 0.950 . S
C1313 C1311 1.327 . S
C1314 C1302 1.349 . S
C1314 H1308 0.950 . S
C1314 C1315 1.327 . S
C1315 H1309 0.950 . S
C1315 C1314 1.327 . S
C1315 C1319 1.429 . S
C1316 C1299 1.574 . S
C1316 H1310 0.949 . S
C1316 C1320 1.368 . S
C1317 C1298 1.429 . S
C1317 C1311 1.429 . S
C1317 C1318 1.523 . S
C1318 C1299 1.368 . S
C1318 C1312 1.368 . S
C1318 C1317 1.523 . S
C1319 C1303 1.429 . S
C1319 C1315 1.429 . S
C1319 C1320 1.523 . S
C1320 C1304 1.368 . S
C1320 C1316 1.368 . S
C1320 C1319 1.523 . S
H1321 C1296 0.950 . S
H1322 C1298 0.950 . S
H1323 C1299 0.949 . S
H1324 C1301 0.950 . S
H1325 C1303 0.950 . S
C1326 C1327 1.349 . S
C1326 C1328 1.327 . S
C1326 H1351 0.950 . S
C1327 C1326 1.349 . S
C1327 C1343 1.349 . S
C1328 C1326 1.327 . S
C1328 C1347 1.429 . S
C1328 H1352 0.950 . S
C1329 C1346 1.574 . S
C1329 C1348 1.368 . S
C1329 H1353 0.949 . S
H1330 C1334 0.949 . S
C1331 C1332 1.349 . S
C1331 C1333 1.327 . S
C1331 H1354 0.950 . S
C1332 C1331 1.349 . S
C1332 C1344 1.349 . S
C1333 C1331 1.327 . S
C1333 C1349 1.429 . S
C1333 H1355 0.950 . S
C1334 H1330 0.949 . S
C1334 C1342 1.574 . S
C1334 C1350 1.368 . S
H1335 C1343 0.950 . S
H1336 C1341 0.950 . S
H1337 C1342 0.949 . S
H1338 C1344 0.950 . S
H1339 C1345 0.950 . S
H1340 C1346 0.949 . S
C1341 H1336 0.950 . S
C1341 C1343 1.327 . S
C1341 C1347 1.429 . S
C1342 C1334 1.574 . S
C1342 H1337 0.949 . S
C1342 C1348 1.368 . S
C1343 C1327 1.349 . S
C1343 H1335 0.950 . S
C1343 C1341 1.327 . S
C1344 C1332 1.349 . S
C1344 H1338 0.950 . S
C1344 C1345 1.327 . S
C1345 H1339 0.950 . S
C1345 C1344 1.327 . S
C1345 C1349 1.429 . S
C1346 C1329 1.574 . S
C1346 H1340 0.949 . S
C1346 C1350 1.368 . S
C1347 C1328 1.429 . S
C1347 C1341 1.429 . S
C1347 C1348 1.523 . S
C1348 C1329 1.368 . S
C1348 C1342 1.368 . S
C1348 C1347 1.523 . S
C1349 C1333 1.429 . S
C1349 C1345 1.429 . S
C1349 C1350 1.523 . S
C1350 C1334 1.368 . S
C1350 C1346 1.368 . S
C1350 C1349 1.523 . S
H1351 C1326 0.950 . S
H1352 C1328 0.950 . S
H1353 C1329 0.949 . S
H1354 C1331 0.950 . S
H1355 C1333 0.950 . S
C1356 C1357 1.349 . S
C1356 C1358 1.327 . S
C1356 H1381 0.950 . S
C1357 C1356 1.349 . S
C1357 C1373 1.349 . S
C1358 C1356 1.327 . S
C1358 C1377 1.429 . S
C1358 H1382 0.950 . S
C1359 C1376 1.574 . S
C1359 C1378 1.368 . S
C1359 H1383 0.949 . S
H1360 C1364 0.949 . S
C1361 C1362 1.349 . S
C1361 C1363 1.327 . S
C1361 H1384 0.950 . S
C1362 C1361 1.349 . S
C1362 C1374 1.349 . S
C1363 C1361 1.327 . S
C1363 C1379 1.429 . S
C1363 H1385 0.950 . S
C1364 H1360 0.949 . S
C1364 C1372 1.574 . S
C1364 C1380 1.368 . S
H1365 C1373 0.950 . S
H1366 C1371 0.950 . S
H1367 C1372 0.949 . S
H1368 C1374 0.950 . S
H1369 C1375 0.950 . S
H1370 C1376 0.949 . S
C1371 H1366 0.950 . S
C1371 C1373 1.327 . S
C1371 C1377 1.429 . S
C1372 C1364 1.574 . S
C1372 H1367 0.949 . S
C1372 C1378 1.368 . S
C1373 C1357 1.349 . S
C1373 H1365 0.950 . S
C1373 C1371 1.327 . S
C1374 C1362 1.349 . S
C1374 H1368 0.950 . S
C1374 C1375 1.327 . S
C1375 H1369 0.950 . S
C1375 C1374 1.327 . S
C1375 C1379 1.429 . S
C1376 C1359 1.574 . S
C1376 H1370 0.949 . S
C1376 C1380 1.368 . S
C1377 C1358 1.429 . S
C1377 C1371 1.429 . S
C1377 C1378 1.523 . S
C1378 C1359 1.368 . S
C1378 C1372 1.368 . S
C1378 C1377 1.523 . S
C1379 C1363 1.429 . S
C1379 C1375 1.429 . S
C1379 C1380 1.523 . S
C1380 C1364 1.368 . S
C1380 C1376 1.368 . S
C1380 C1379 1.523 . S
H1381 C1356 0.950 . S
H1382 C1358 0.950 . S
H1383 C1359 0.949 . S
H1384 C1361 0.950 . S
H1385 C1363 0.950 . S
C1386 C1387 1.349 . S
C1386 C1388 1.327 . S
C1386 H1411 0.950 . S
C1387 C1386 1.349 . S
C1387 C1403 1.349 . S
C1388 C1386 1.327 . S
C1388 C1407 1.429 . S
C1388 H1412 0.950 . S
C1389 C1406 1.574 . S
C1389 C1408 1.368 . S
C1389 H1413 0.949 . S
H1390 C1394 0.949 . S
C1391 C1392 1.349 . S
C1391 C1393 1.327 . S
C1391 H1414 0.950 . S
C1392 C1391 1.349 . S
C1392 C1404 1.349 . S
C1393 C1391 1.327 . S
C1393 C1409 1.429 . S
C1393 H1415 0.950 . S
C1394 H1390 0.949 . S
C1394 C1402 1.574 . S
C1394 C1410 1.368 . S
H1395 C1403 0.950 . S
H1396 C1401 0.950 . S
H1397 C1402 0.949 . S
H1398 C1404 0.950 . S
H1399 C1405 0.950 . S
H1400 C1406 0.949 . S
C1401 H1396 0.950 . S
C1401 C1403 1.327 . S
C1401 C1407 1.429 . S
C1402 C1394 1.574 . S
C1402 H1397 0.949 . S
C1402 C1408 1.368 . S
C1403 C1387 1.349 . S
C1403 H1395 0.950 . S
C1403 C1401 1.327 . S
C1404 C1392 1.349 . S
C1404 H1398 0.950 . S
C1404 C1405 1.327 . S
C1405 H1399 0.950 . S
C1405 C1404 1.327 . S
C1405 C1409 1.429 . S
C1406 C1389 1.574 . S
C1406 H1400 0.949 . S
C1406 C1410 1.368 . S
C1407 C1388 1.429 . S
C1407 C1401 1.429 . S
C1407 C1408 1.523 . S
C1408 C1389 1.368 . S
C1408 C1402 1.368 . S
C1408 C1407 1.523 . S
C1409 C1393 1.429 . S
C1409 C1405 1.429 . S
C1409 C1410 1.523 . S
C1410 C1394 1.368 . S
C1410 C1406 1.368 . S
C1410 C1409 1.523 . S
H1411 C1386 0.950 . S
H1412 C1388 0.950 . S
H1413 C1389 0.949 . S
H1414 C1391 0.950 . S
H1415 C1393 0.950 . S
C1416 C1417 1.349 . S
C1416 C1418 1.327 . S
C1416 H1441 0.950 . S
C1417 C1416 1.349 . S
C1417 C1433 1.349 . S
C1418 C1416 1.327 . S
C1418 C1437 1.429 . S
C1418 H1442 0.950 . S
C1419 C1436 1.574 . S
C1419 C1438 1.368 . S
C1419 H1443 0.949 . S
H1420 C1424 0.949 . S
C1421 C1422 1.349 . S
C1421 C1423 1.327 . S
C1421 H1444 0.950 . S
C1422 C1421 1.349 . S
C1422 C1434 1.349 . S
C1423 C1421 1.327 . S
C1423 C1439 1.429 . S
C1423 H1445 0.950 . S
C1424 H1420 0.949 . S
C1424 C1432 1.574 . S
C1424 C1440 1.368 . S
H1425 C1433 0.950 . S
H1426 C1431 0.950 . S
H1427 C1432 0.949 . S
H1428 C1434 0.950 . S
H1429 C1435 0.950 . S
H1430 C1436 0.949 . S
C1431 H1426 0.950 . S
C1431 C1433 1.327 . S
C1431 C1437 1.429 . S
C1432 C1424 1.574 . S
C1432 H1427 0.949 . S
C1432 C1438 1.368 . S
C1433 C1417 1.349 . S
C1433 H1425 0.950 . S
C1433 C1431 1.327 . S
C1434 C1422 1.349 . S
C1434 H1428 0.950 . S
C1434 C1435 1.327 . S
C1435 H1429 0.950 . S
C1435 C1434 1.327 . S
C1435 C1439 1.429 . S
C1436 C1419 1.574 . S
C1436 H1430 0.949 . S
C1436 C1440 1.368 . S
C1437 C1418 1.429 . S
C1437 C1431 1.429 . S
C1437 C1438 1.523 . S
C1438 C1419 1.368 . S
C1438 C1432 1.368 . S
C1438 C1437 1.523 . S
C1439 C1423 1.429 . S
C1439 C1435 1.429 . S
C1439 C1440 1.523 . S
C1440 C1424 1.368 . S
C1440 C1436 1.368 . S
C1440 C1439 1.523 . S
H1441 C1416 0.950 . S
H1442 C1418 0.950 . S
H1443 C1419 0.949 . S
H1444 C1421 0.950 . S
H1445 C1423 0.950 . S
C1446 C1447 1.349 . S
C1446 C1448 1.327 . S
C1446 H1471 0.950 . S
C1447 C1446 1.349 . S
C1447 C1463 1.349 . S
C1448 C1446 1.327 . S
C1448 C1467 1.429 . S
C1448 H1472 0.950 . S
C1449 C1466 1.574 . S
C1449 C1468 1.368 . S
C1449 H1473 0.949 . S
H1450 C1454 0.949 . S
C1451 C1452 1.349 . S
C1451 C1453 1.327 . S
C1451 H1474 0.950 . S
C1452 C1451 1.349 . S
C1452 C1464 1.349 . S
C1453 C1451 1.327 . S
C1453 C1469 1.429 . S
C1453 H1475 0.950 . S
C1454 H1450 0.949 . S
C1454 C1462 1.574 . S
C1454 C1470 1.368 . S
H1455 C1463 0.950 . S
H1456 C1461 0.950 . S
H1457 C1462 0.949 . S
H1458 C1464 0.950 . S
H1459 C1465 0.950 . S
H1460 C1466 0.949 . S
C1461 H1456 0.950 . S
C1461 C1463 1.327 . S
C1461 C1467 1.429 . S
C1462 C1454 1.574 . S
C1462 H1457 0.949 . S
C1462 C1468 1.368 . S
C1463 C1447 1.349 . S
C1463 H1455 0.950 . S
C1463 C1461 1.327 . S
C1464 C1452 1.349 . S
C1464 H1458 0.950 . S
C1464 C1465 1.327 . S
C1465 H1459 0.950 . S
C1465 C1464 1.327 . S
C1465 C1469 1.429 . S
C1466 C1449 1.574 . S
C1466 H1460 0.949 . S
C1466 C1470 1.368 . S
C1467 C1448 1.429 . S
C1467 C1461 1.429 . S
C1467 C1468 1.523 . S
C1468 C1449 1.368 . S
C1468 C1462 1.368 . S
C1468 C1467 1.523 . S
C1469 C1453 1.429 . S
C1469 C1465 1.429 . S
C1469 C1470 1.523 . S
C1470 C1454 1.368 . S
C1470 C1466 1.368 . S
C1470 C1469 1.523 . S
H1471 C1446 0.950 . S
H1472 C1448 0.950 . S
H1473 C1449 0.949 . S
H1474 C1451 0.950 . S
H1475 C1453 0.950 . S
C1476 C1477 1.349 . S
C1476 C1478 1.327 . S
C1476 H1501 0.950 . S
C1477 C1476 1.349 . S
C1477 C1493 1.349 . S
C1478 C1476 1.327 . S
C1478 C1497 1.429 . S
C1478 H1502 0.950 . S
C1479 C1496 1.574 . S
C1479 C1498 1.368 . S
C1479 H1503 0.949 . S
H1480 C1484 0.949 . S
C1481 C1482 1.349 . S
C1481 C1483 1.327 . S
C1481 H1504 0.950 . S
C1482 C1481 1.349 . S
C1482 C1494 1.349 . S
C1483 C1481 1.327 . S
C1483 C1499 1.429 . S
C1483 H1505 0.950 . S
C1484 H1480 0.949 . S
C1484 C1492 1.574 . S
C1484 C1500 1.368 . S
H1485 C1493 0.950 . S
H1486 C1491 0.950 . S
H1487 C1492 0.949 . S
H1488 C1494 0.950 . S
H1489 C1495 0.950 . S
H1490 C1496 0.949 . S
C1491 H1486 0.950 . S
C1491 C1493 1.327 . S
C1491 C1497 1.429 . S
C1492 C1484 1.574 . S
C1492 H1487 0.949 . S
C1492 C1498 1.368 . S
C1493 C1477 1.349 . S
C1493 H1485 0.950 . S
C1493 C1491 1.327 . S
C1494 C1482 1.349 . S
C1494 H1488 0.950 . S
C1494 C1495 1.327 . S
C1495 H1489 0.950 . S
C1495 C1494 1.327 . S
C1495 C1499 1.429 . S
C1496 C1479 1.574 . S
C1496 H1490 0.949 . S
C1496 C1500 1.368 . S
C1497 C1478 1.429 . S
C1497 C1491 1.429 . S
C1497 C1498 1.523 . S
C1498 C1479 1.368 . S
C1498 C1492 1.368 . S
C1498 C1497 1.523 . S
C1499 C1483 1.429 . S
C1499 C1495 1.429 . S
C1499 C1500 1.523 . S
C1500 C1484 1.368 . S
C1500 C1496 1.368 . S
C1500 C1499 1.523 . S
H1501 C1476 0.950 . S
H1502 C1478 0.950 . S
H1503 C1479 0.949 . S
H1504 C1481 0.950 . S
H1505 C1483 0.950 . S
C1506 C1507 1.349 . S
C1506 C1508 1.327 . S
C1506 H1531 0.950 . S
C1507 C1506 1.349 . S
C1507 C1523 1.349 . S
C1508 C1506 1.327 . S
C1508 C1527 1.429 . S
C1508 H1532 0.950 . S
C1509 C1526 1.574 . S
C1509 C1528 1.368 . S
C1509 H1533 0.949 . S
H1510 C1514 0.949 . S
C1511 C1512 1.349 . S
C1511 C1513 1.327 . S
C1511 H1534 0.950 . S
C1512 C1511 1.349 . S
C1512 C1524 1.349 . S
C1513 C1511 1.327 . S
C1513 C1529 1.429 . S
C1513 H1535 0.950 . S
C1514 H1510 0.949 . S
C1514 C1522 1.574 . S
C1514 C1530 1.368 . S
H1515 C1523 0.950 . S
H1516 C1521 0.950 . S
H1517 C1522 0.949 . S
H1518 C1524 0.950 . S
H1519 C1525 0.950 . S
H1520 C1526 0.949 . S
C1521 H1516 0.950 . S
C1521 C1523 1.327 . S
C1521 C1527 1.429 . S
C1522 C1514 1.574 . S
C1522 H1517 0.949 . S
C1522 C1528 1.368 . S
C1523 C1507 1.349 . S
C1523 H1515 0.950 . S
C1523 C1521 1.327 . S
C1524 C1512 1.349 . S
C1524 H1518 0.950 . S
C1524 C1525 1.327 . S
C1525 H1519 0.950 . S
C1525 C1524 1.327 . S
C1525 C1529 1.429 . S
C1526 C1509 1.574 . S
C1526 H1520 0.949 . S
C1526 C1530 1.368 . S
C1527 C1508 1.429 . S
C1527 C1521 1.429 . S
C1527 C1528 1.523 . S
C1528 C1509 1.368 . S
C1528 C1522 1.368 . S
C1528 C1527 1.523 . S
C1529 C1513 1.429 . S
C1529 C1525 1.429 . S
C1529 C1530 1.523 . S
C1530 C1514 1.368 . S
C1530 C1526 1.368 . S
C1530 C1529 1.523 . S
H1531 C1506 0.950 . S
H1532 C1508 0.950 . S
H1533 C1509 0.949 . S
H1534 C1511 0.950 . S
H1535 C1513 0.950 . S
C1536 C1537 1.349 . S
C1536 C1538 1.327 . S
C1536 H1561 0.950 . S
C1537 C1536 1.349 . S
C1537 C1553 1.349 . S
C1538 C1536 1.327 . S
C1538 C1557 1.429 . S
C1538 H1562 0.950 . S
C1539 C1556 1.574 . S
C1539 C1558 1.368 . S
C1539 H1563 0.949 . S
H1540 C1544 0.949 . S
C1541 C1542 1.349 . S
C1541 C1543 1.327 . S
C1541 H1564 0.950 . S
C1542 C1541 1.349 . S
C1542 C1554 1.349 . S
C1543 C1541 1.327 . S
C1543 C1559 1.429 . S
C1543 H1565 0.950 . S
C1544 H1540 0.949 . S
C1544 C1552 1.574 . S
C1544 C1560 1.368 . S
H1545 C1553 0.950 . S
H1546 C1551 0.950 . S
H1547 C1552 0.949 . S
H1548 C1554 0.950 . S
H1549 C1555 0.950 . S
H1550 C1556 0.949 . S
C1551 H1546 0.950 . S
C1551 C1553 1.327 . S
C1551 C1557 1.429 . S
C1552 C1544 1.574 . S
C1552 H1547 0.949 . S
C1552 C1558 1.368 . S
C1553 C1537 1.349 . S
C1553 H1545 0.950 . S
C1553 C1551 1.327 . S
C1554 C1542 1.349 . S
C1554 H1548 0.950 . S
C1554 C1555 1.327 . S
C1555 H1549 0.950 . S
C1555 C1554 1.327 . S
C1555 C1559 1.429 . S
C1556 C1539 1.574 . S
C1556 H1550 0.949 . S
C1556 C1560 1.368 . S
C1557 C1538 1.429 . S
C1557 C1551 1.429 . S
C1557 C1558 1.523 . S
C1558 C1539 1.368 . S
C1558 C1552 1.368 . S
C1558 C1557 1.523 . S
C1559 C1543 1.429 . S
C1559 C1555 1.429 . S
C1559 C1560 1.523 . S
C1560 C1544 1.368 . S
C1560 C1556 1.368 . S
C1560 C1559 1.523 . S
H1561 C1536 0.950 . S
H1562 C1538 0.950 . S
H1563 C1539 0.949 . S
H1564 C1541 0.950 . S
H1565 C1543 0.950 . S
C1566 C1567 1.349 . S
C1566 C1568 1.327 . S
C1566 H1591 0.950 . S
C1567 C1566 1.349 . S
C1567 C1583 1.349 . S
C1568 C1566 1.327 . S
C1568 C1587 1.429 . S
C1568 H1592 0.950 . S
C1569 C1586 1.574 . S
C1569 C1588 1.368 . S
C1569 H1593 0.949 . S
H1570 C1574 0.949 . S
C1571 C1572 1.349 . S
C1571 C1573 1.327 . S
C1571 H1594 0.950 . S
C1572 C1571 1.349 . S
C1572 C1584 1.349 . S
C1573 C1571 1.327 . S
C1573 C1589 1.429 . S
C1573 H1595 0.950 . S
C1574 H1570 0.949 . S
C1574 C1582 1.574 . S
C1574 C1590 1.368 . S
H1575 C1583 0.950 . S
H1576 C1581 0.950 . S
H1577 C1582 0.949 . S
H1578 C1584 0.950 . S
H1579 C1585 0.950 . S
H1580 C1586 0.949 . S
C1581 H1576 0.950 . S
C1581 C1583 1.327 . S
C1581 C1587 1.429 . S
C1582 C1574 1.574 . S
C1582 H1577 0.949 . S
C1582 C1588 1.368 . S
C1583 C1567 1.349 . S
C1583 H1575 0.950 . S
C1583 C1581 1.327 . S
C1584 C1572 1.349 . S
C1584 H1578 0.950 . S
C1584 C1585 1.327 . S
C1585 H1579 0.950 . S
C1585 C1584 1.327 . S
C1585 C1589 1.429 . S
C1586 C1569 1.574 . S
C1586 H1580 0.949 . S
C1586 C1590 1.368 . S
C1587 C1568 1.429 . S
C1587 C1581 1.429 . S
C1587 C1588 1.523 . S
C1588 C1569 1.368 . S
C1588 C1582 1.368 . S
C1588 C1587 1.523 . S
C1589 C1573 1.429 . S
C1589 C1585 1.429 . S
C1589 C1590 1.523 . S
C1590 C1574 1.368 . S
C1590 C1586 1.368 . S
C1590 C1589 1.523 . S
H1591 C1566 0.950 . S
H1592 C1568 0.950 . S
H1593 C1569 0.949 . S
H1594 C1571 0.950 . S
H1595 C1573 0.950 . S
C1596 C1597 1.349 . S
C1596 C1598 1.327 . S
C1596 H1621 0.950 . S
C1597 C1596 1.349 . S
C1597 C1613 1.349 . S
C1598 C1596 1.327 . S
C1598 C1617 1.429 . S
C1598 H1622 0.950 . S
C1599 C1616 1.574 . S
C1599 C1618 1.368 . S
C1599 H1623 0.949 . S
H1600 C1604 0.949 . S
C1601 C1602 1.349 . S
C1601 C1603 1.327 . S
C1601 H1624 0.950 . S
C1602 C1601 1.349 . S
C1602 C1614 1.349 . S
C1603 C1601 1.327 . S
C1603 C1619 1.429 . S
C1603 H1625 0.950 . S
C1604 H1600 0.949 . S
C1604 C1612 1.574 . S
C1604 C1620 1.368 . S
H1605 C1613 0.950 . S
H1606 C1611 0.950 . S
H1607 C1612 0.949 . S
H1608 C1614 0.950 . S
H1609 C1615 0.950 . S
H1610 C1616 0.949 . S
C1611 H1606 0.950 . S
C1611 C1613 1.327 . S
C1611 C1617 1.429 . S
C1612 C1604 1.574 . S
C1612 H1607 0.949 . S
C1612 C1618 1.368 . S
C1613 C1597 1.349 . S
C1613 H1605 0.950 . S
C1613 C1611 1.327 . S
C1614 C1602 1.349 . S
C1614 H1608 0.950 . S
C1614 C1615 1.327 . S
C1615 H1609 0.950 . S
C1615 C1614 1.327 . S
C1615 C1619 1.429 . S
C1616 C1599 1.574 . S
C1616 H1610 0.949 . S
C1616 C1620 1.368 . S
C1617 C1598 1.429 . S
C1617 C1611 1.429 . S
C1617 C1618 1.523 . S
C1618 C1599 1.368 . S
C1618 C1612 1.368 . S
C1618 C1617 1.523 . S
C1619 C1603 1.429 . S
C1619 C1615 1.429 . S
C1619 C1620 1.523 . S
C1620 C1604 1.368 . S
C1620 C1616 1.368 . S
C1620 C1619 1.523 . S
H1621 C1596 0.950 . S
H1622 C1598 0.950 . S
H1623 C1599 0.949 . S
H1624 C1601 0.950 . S
H1625 C1603 0.950 . S
C1626 C1627 1.349 . S
C1626 C1628 1.327 . S
C1626 H1651 0.950 . S
C1627 C1626 1.349 . S
C1627 C1643 1.349 . S
C1628 C1626 1.327 . S
C1628 C1647 1.429 . S
C1628 H1652 0.950 . S
C1629 C1646 1.574 . S
C1629 C1648 1.368 . S
C1629 H1653 0.949 . S
H1630 C1634 0.949 . S
C1631 C1632 1.349 . S
C1631 C1633 1.327 . S
C1631 H1654 0.950 . S
C1632 C1631 1.349 . S
C1632 C1644 1.349 . S
C1633 C1631 1.327 . S
C1633 C1649 1.429 . S
C1633 H1655 0.950 . S
C1634 H1630 0.949 . S
C1634 C1642 1.574 . S
C1634 C1650 1.368 . S
H1635 C1643 0.950 . S
H1636 C1641 0.950 . S
H1637 C1642 0.949 . S
H1638 C1644 0.950 . S
H1639 C1645 0.950 . S
H1640 C1646 0.949 . S
C1641 H1636 0.950 . S
C1641 C1643 1.327 . S
C1641 C1647 1.429 . S
C1642 C1634 1.574 . S
C1642 H1637 0.949 . S
C1642 C1648 1.368 . S
C1643 C1627 1.349 . S
C1643 H1635 0.950 . S
C1643 C1641 1.327 . S
C1644 C1632 1.349 . S
C1644 H1638 0.950 . S
C1644 C1645 1.327 . S
C1645 H1639 0.950 . S
C1645 C1644 1.327 . S
C1645 C1649 1.429 . S
C1646 C1629 1.574 . S
C1646 H1640 0.949 . S
C1646 C1650 1.368 . S
C1647 C1628 1.429 . S
C1647 C1641 1.429 . S
C1647 C1648 1.523 . S
C1648 C1629 1.368 . S
C1648 C1642 1.368 . S
C1648 C1647 1.523 . S
C1649 C1633 1.429 . S
C1649 C1645 1.429 . S
C1649 C1650 1.523 . S
C1650 C1634 1.368 . S
C1650 C1646 1.368 . S
C1650 C1649 1.523 . S
H1651 C1626 0.950 . S
H1652 C1628 0.950 . S
H1653 C1629 0.949 . S
H1654 C1631 0.950 . S
H1655 C1633 0.950 . S
C1656 C1657 1.349 . S
C1656 C1658 1.327 . S
C1656 H1681 0.950 . S
C1657 C1656 1.349 . S
C1657 C1673 1.349 . S
C1658 C1656 1.327 . S
C1658 C1677 1.429 . S
C1658 H1682 0.950 . S
C1659 C1676 1.574 . S
C1659 C1678 1.368 . S
C1659 H1683 0.949 . S
H1660 C1664 0.949 . S
C1661 C1662 1.349 . S
C1661 C1663 1.327 . S
C1661 H1684 0.950 . S
C1662 C1661 1.349 . S
C1662 C1674 1.349 . S
C1663 C1661 1.327 . S
C1663 C1679 1.429 . S
C1663 H1685 0.950 . S
C1664 H1660 0.949 . S
C1664 C1672 1.574 . S
C1664 C1680 1.368 . S
H1665 C1673 0.950 . S
H1666 C1671 0.950 . S
H1667 C1672 0.949 . S
H1668 C1674 0.950 . S
H1669 C1675 0.950 . S
H1670 C1676 0.949 . S
C1671 H1666 0.950 . S
C1671 C1673 1.327 . S
C1671 C1677 1.429 . S
C1672 C1664 1.574 . S
C1672 H1667 0.949 . S
C1672 C1678 1.368 . S
C1673 C1657 1.349 . S
C1673 H1665 0.950 . S
C1673 C1671 1.327 . S
C1674 C1662 1.349 . S
C1674 H1668 0.950 . S
C1674 C1675 1.327 . S
C1675 H1669 0.950 . S
C1675 C1674 1.327 . S
C1675 C1679 1.429 . S
C1676 C1659 1.574 . S
C1676 H1670 0.949 . S
C1676 C1680 1.368 . S
C1677 C1658 1.429 . S
C1677 C1671 1.429 . S
C1677 C1678 1.523 . S
C1678 C1659 1.368 . S
C1678 C1672 1.368 . S
C1678 C1677 1.523 . S
C1679 C1663 1.429 . S
C1679 C1675 1.429 . S
C1679 C1680 1.523 . S
C1680 C1664 1.368 . S
C1680 C1676 1.368 . S
C1680 C1679 1.523 . S
H1681 C1656 0.950 . S
H1682 C1658 0.950 . S
H1683 C1659 0.949 . S
H1684 C1661 0.950 . S
H1685 C1663 0.950 . S
C1686 C1687 1.349 . S
C1686 C1688 1.327 . S
C1686 H1711 0.950 . S
C1687 C1686 1.349 . S
C1687 C1703 1.349 . S
C1688 C1686 1.327 . S
C1688 C1707 1.429 . S
C1688 H1712 0.950 . S
C1689 C1706 1.574 . S
C1689 C1708 1.368 . S
C1689 H1713 0.949 . S
H1690 C1694 0.949 . S
C1691 C1692 1.349 . S
C1691 C1693 1.327 . S
C1691 H1714 0.950 . S
C1692 C1691 1.349 . S
C1692 C1704 1.349 . S
C1693 C1691 1.327 . S
C1693 C1709 1.429 . S
C1693 H1715 0.950 . S
C1694 H1690 0.949 . S
C1694 C1702 1.574 . S
C1694 C1710 1.368 . S
H1695 C1703 0.950 . S
H1696 C1701 0.950 . S
H1697 C1702 0.949 . S
H1698 C1704 0.950 . S
H1699 C1705 0.950 . S
H1700 C1706 0.949 . S
C1701 H1696 0.950 . S
C1701 C1703 1.327 . S
C1701 C1707 1.429 . S
C1702 C1694 1.574 . S
C1702 H1697 0.949 . S
C1702 C1708 1.368 . S
C1703 C1687 1.349 . S
C1703 H1695 0.950 . S
C1703 C1701 1.327 . S
C1704 C1692 1.349 . S
C1704 H1698 0.950 . S
C1704 C1705 1.327 . S
C1705 H1699 0.950 . S
C1705 C1704 1.327 . S
C1705 C1709 1.429 . S
C1706 C1689 1.574 . S
C1706 H1700 0.949 . S
C1706 C1710 1.368 . S
C1707 C1688 1.429 . S
C1707 C1701 1.429 . S
C1707 C1708 1.523 . S
C1708 C1689 1.368 . S
C1708 C1702 1.368 . S
C1708 C1707 1.523 . S
C1709 C1693 1.429 . S
C1709 C1705 1.429 . S
C1709 C1710 1.523 . S
C1710 C1694 1.368 . S
C1710 C1706 1.368 . S
C1710 C1709 1.523 . S
H1711 C1686 0.950 . S
H1712 C1688 0.950 . S
H1713 C1689 0.949 . S
H1714 C1691 0.950 . S
H1715 C1693 0.950 . S
C1716 C1717 1.349 . S
C1716 C1718 1.327 . S
C1716 H1741 0.950 . S
C1717 C1716 1.349 . S
C1717 C1733 1.349 . S
C1718 C1716 1.327 . S
C1718 C1737 1.429 . S
C1718 H1742 0.950 . S
C1719 C1736 1.574 . S
C1719 C1738 1.368 . S
C1719 H1743 0.949 . S
H1720 C1724 0.949 . S
C1721 C1722 1.349 . S
C1721 C1723 1.327 . S
C1721 H1744 0.950 . S
C1722 C1721 1.349 . S
C1722 C1734 1.349 . S
C1723 C1721 1.327 . S
C1723 C1739 1.429 . S
C1723 H1745 0.950 . S
C1724 H1720 0.949 . S
C1724 C1732 1.574 . S
C1724 C1740 1.368 . S
H1725 C1733 0.950 . S
H1726 C1731 0.950 . S
H1727 C1732 0.949 . S
H1728 C1734 0.950 . S
H1729 C1735 0.950 . S
H1730 C1736 0.949 . S
C1731 H1726 0.950 . S
C1731 C1733 1.327 . S
C1731 C1737 1.429 . S
C1732 C1724 1.574 . S
C1732 H1727 0.949 . S
C1732 C1738 1.368 . S
C1733 C1717 1.349 . S
C1733 H1725 0.950 . S
C1733 C1731 1.327 . S
C1734 C1722 1.349 . S
C1734 H1728 0.950 . S
C1734 C1735 1.327 . S
C1735 H1729 0.950 . S
C1735 C1734 1.327 . S
C1735 C1739 1.429 . S
C1736 C1719 1.574 . S
C1736 H1730 0.949 . S
C1736 C1740 1.368 . S
C1737 C1718 1.429 . S
C1737 C1731 1.429 . S
C1737 C1738 1.523 . S
C1738 C1719 1.368 . S
C1738 C1732 1.368 . S
C1738 C1737 1.523 . S
C1739 C1723 1.429 . S
C1739 C1735 1.429 . S
C1739 C1740 1.523 . S
C1740 C1724 1.368 . S
C1740 C1736 1.368 . S
C1740 C1739 1.523 . S
H1741 C1716 0.950 . S
H1742 C1718 0.950 . S
H1743 C1719 0.949 . S
H1744 C1721 0.950 . S
H1745 C1723 0.950 . S
C1746 C1747 1.349 . S
C1746 C1748 1.327 . S
C1746 H1771 0.950 . S
C1747 C1746 1.349 . S
C1747 C1763 1.349 . S
C1748 C1746 1.327 . S
C1748 C1767 1.429 . S
C1748 H1772 0.950 . S
C1749 C1766 1.574 . S
C1749 C1768 1.368 . S
C1749 H1773 0.949 . S
H1750 C1754 0.949 . S
C1751 C1752 1.349 . S
C1751 C1753 1.327 . S
C1751 H1774 0.950 . S
C1752 C1751 1.349 . S
C1752 C1764 1.349 . S
C1753 C1751 1.327 . S
C1753 C1769 1.429 . S
C1753 H1775 0.950 . S
C1754 H1750 0.949 . S
C1754 C1762 1.574 . S
C1754 C1770 1.368 . S
H1755 C1763 0.950 . S
H1756 C1761 0.950 . S
H1757 C1762 0.949 . S
H1758 C1764 0.950 . S
H1759 C1765 0.950 . S
H1760 C1766 0.949 . S
C1761 H1756 0.950 . S
C1761 C1763 1.327 . S
C1761 C1767 1.429 . S
C1762 C1754 1.574 . S
C1762 H1757 0.949 . S
C1762 C1768 1.368 . S
C1763 C1747 1.349 . S
C1763 H1755 0.950 . S
C1763 C1761 1.327 . S
C1764 C1752 1.349 . S
C1764 H1758 0.950 . S
C1764 C1765 1.327 . S
C1765 H1759 0.950 . S
C1765 C1764 1.327 . S
C1765 C1769 1.429 . S
C1766 C1749 1.574 . S
C1766 H1760 0.949 . S
C1766 C1770 1.368 . S
C1767 C1748 1.429 . S
C1767 C1761 1.429 . S
C1767 C1768 1.523 . S
C1768 C1749 1.368 . S
C1768 C1762 1.368 . S
C1768 C1767 1.523 . S
C1769 C1753 1.429 . S
C1769 C1765 1.429 . S
C1769 C1770 1.523 . S
C1770 C1754 1.368 . S
C1770 C1766 1.368 . S
C1770 C1769 1.523 . S
H1771 C1746 0.950 . S
H1772 C1748 0.950 . S
H1773 C1749 0.949 . S
H1774 C1751 0.950 . S
H1775 C1753 0.950 . S
C1776 C1777 1.349 . S
C1776 C1778 1.327 . S
C1776 H1801 0.950 . S
C1777 C1776 1.349 . S
C1777 C1793 1.349 . S
C1778 C1776 1.327 . S
C1778 C1797 1.429 . S
C1778 H1802 0.950 . S
C1779 C1796 1.574 . S
C1779 C1798 1.368 . S
C1779 H1803 0.949 . S
H1780 C1784 0.949 . S
C1781 C1782 1.349 . S
C1781 C1783 1.327 . S
C1781 H1804 0.950 . S
C1782 C1781 1.349 . S
C1782 C1794 1.349 . S
C1783 C1781 1.327 . S
C1783 C1799 1.429 . S
C1783 H1805 0.950 . S
C1784 H1780 0.949 . S
C1784 C1792 1.574 . S
C1784 C1800 1.368 . S
H1785 C1793 0.950 . S
H1786 C1791 0.950 . S
H1787 C1792 0.949 . S
H1788 C1794 0.950 . S
H1789 C1795 0.950 . S
H1790 C1796 0.949 . S
C1791 H1786 0.950 . S
C1791 C1793 1.327 . S
C1791 C1797 1.429 . S
C1792 C1784 1.574 . S
C1792 H1787 0.949 . S
C1792 C1798 1.368 1_455 S
C1793 C1777 1.349 . S
C1793 H1785 0.950 . S
C1793 C1791 1.327 . S
C1794 C1782 1.349 . S
C1794 H1788 0.950 . S
C1794 C1795 1.327 . S
C1795 H1789 0.950 . S
C1795 C1794 1.327 . S
C1795 C1799 1.429 . S
C1796 C1779 1.574 . S
C1796 H1790 0.949 . S
C1796 C1800 1.368 1_655 S
C1797 C1778 1.429 . S
C1797 C1791 1.429 . S
C1797 C1798 1.523 . S
C1798 C1779 1.368 . S
C1798 C1792 1.368 1_655 S
C1798 C1797 1.523 . S
C1799 C1783 1.429 . S
C1799 C1795 1.429 . S
C1799 C1800 1.523 . S
C1800 C1784 1.368 . S
C1800 C1796 1.368 1_455 S
C1800 C1799 1.523 . S
H1801 C1776 0.950 . S
H1802 C1778 0.950 . S
H1803 C1779 0.949 . S
H1804 C1781 0.950 . S
H1805 C1783 0.950 . S
C1806 C1807 1.349 . S
C1806 C1808 1.327 . S
C1806 H1831 0.950 . S
C1807 C1806 1.349 . S
C1807 C1823 1.349 . S
C1808 C1806 1.327 . S
C1808 C1827 1.429 . S
C1808 H1832 0.950 . S
C1809 C1826 1.574 . S
C1809 C1828 1.368 . S
C1809 H1833 0.949 . S
H1810 C1814 0.949 . S
C1811 C1812 1.349 . S
C1811 C1813 1.327 . S
C1811 H1834 0.950 . S
C1812 C1811 1.349 . S
C1812 C1824 1.349 . S
C1813 C1811 1.327 . S
C1813 C1829 1.429 . S
C1813 H1835 0.950 . S
C1814 H1810 0.949 . S
C1814 C1822 1.574 . S
C1814 C1830 1.368 . S
H1815 C1823 0.950 . S
H1816 C1821 0.950 . S
H1817 C1822 0.949 . S
H1818 C1824 0.950 . S
H1819 C1825 0.950 . S
H1820 C1826 0.949 . S
C1821 H1816 0.950 . S
C1821 C1823 1.327 . S
C1821 C1827 1.429 . S
C1822 C1814 1.574 . S
C1822 H1817 0.949 . S
C1822 C1828 1.368 1_545 S
C1823 C1807 1.349 . S
C1823 H1815 0.950 . S
C1823 C1821 1.327 . S
C1824 C1812 1.349 . S
C1824 H1818 0.950 . S
C1824 C1825 1.327 . S
C1825 H1819 0.950 . S
C1825 C1824 1.327 . S
C1825 C1829 1.429 . S
C1826 C1809 1.574 . S
C1826 H1820 0.949 . S
C1826 C1830 1.368 1_565 S
C1827 C1808 1.429 . S
C1827 C1821 1.429 . S
C1827 C1828 1.523 . S
C1828 C1809 1.368 . S
C1828 C1822 1.368 1_565 S
C1828 C1827 1.523 . S
C1829 C1813 1.429 . S
C1829 C1825 1.429 . S
C1829 C1830 1.523 . S
C1830 C1814 1.368 . S
C1830 C1826 1.368 1_545 S
C1830 C1829 1.523 . S
H1831 C1806 0.950 . S
H1832 C1808 0.950 . S
H1833 C1809 0.949 . S
H1834 C1811 0.950 . S
H1835 C1813 0.950 . S
C1836 C1837 1.349 . S
C1836 C1838 1.327 . S
C1836 H1861 0.950 . S
C1837 C1836 1.349 . S
C1837 C1853 1.349 . S
C1838 C1836 1.327 . S
C1838 C1857 1.429 . S
C1838 H1862 0.950 . S
C1839 C1856 1.574 . S
C1839 C1858 1.368 1_455 S
C1839 H1863 0.949 . S
H1840 C1844 0.949 . S
C1841 C1842 1.349 . S
C1841 C1843 1.327 . S
C1841 H1864 0.950 . S
C1842 C1841 1.349 . S
C1842 C1854 1.349 . S
C1843 C1841 1.327 . S
C1843 C1859 1.429 . S
C1843 H1865 0.950 . S
C1844 H1840 0.949 . S
C1844 C1852 1.574 . S
C1844 C1860 1.368 1_655 S
H1845 C1853 0.950 . S
H1846 C1851 0.950 . S
H1847 C1852 0.949 . S
H1848 C1854 0.950 . S
H1849 C1855 0.950 . S
H1850 C1856 0.949 . S
C1851 H1846 0.950 . S
C1851 C1853 1.327 . S
C1851 C1857 1.429 . S
C1852 C1844 1.574 . S
C1852 H1847 0.949 . S
C1852 C1858 1.368 . S
C1853 C1837 1.349 . S
C1853 H1845 0.950 . S
C1853 C1851 1.327 . S
C1854 C1842 1.349 . S
C1854 H1848 0.950 . S
C1854 C1855 1.327 . S
C1855 H1849 0.950 . S
C1855 C1854 1.327 . S
C1855 C1859 1.429 . S
C1856 C1839 1.574 . S
C1856 H1850 0.949 . S
C1856 C1860 1.368 . S
C1857 C1838 1.429 . S
C1857 C1851 1.429 . S
C1857 C1858 1.523 . S
C1858 C1839 1.368 1_655 S
C1858 C1852 1.368 . S
C1858 C1857 1.523 . S
C1859 C1843 1.429 . S
C1859 C1855 1.429 . S
C1859 C1860 1.523 . S
C1860 C1844 1.368 1_455 S
C1860 C1856 1.368 . S
C1860 C1859 1.523 . S
H1861 C1836 0.950 . S
H1862 C1838 0.950 . S
H1863 C1839 0.949 . S
H1864 C1841 0.950 . S
H1865 C1843 0.950 . S
C1866 C1867 1.349 . S
C1866 C1868 1.327 . S
C1866 H1891 0.950 . S
C1867 C1866 1.349 . S
C1867 C1883 1.349 . S
C1868 C1866 1.327 . S
C1868 C1887 1.429 . S
C1868 H1892 0.950 . S
C1869 C1886 1.574 . S
C1869 C1888 1.368 . S
C1869 H1893 0.949 . S
H1870 C1874 0.949 . S
C1871 C1872 1.349 . S
C1871 C1873 1.327 . S
C1871 H1894 0.950 . S
C1872 C1871 1.349 . S
C1872 C1884 1.349 . S
C1873 C1871 1.327 . S
C1873 C1889 1.429 . S
C1873 H1895 0.950 . S
C1874 H1870 0.949 . S
C1874 C1882 1.574 . S
C1874 C1890 1.368 . S
H1875 C1883 0.950 . S
H1876 C1881 0.950 . S
H1877 C1882 0.949 . S
H1878 C1884 0.950 . S
H1879 C1885 0.950 . S
H1880 C1886 0.949 . S
C1881 H1876 0.950 . S
C1881 C1883 1.327 . S
C1881 C1887 1.429 . S
C1882 C1874 1.574 . S
C1882 H1877 0.949 . S
C1882 C1888 1.368 1_545 S
C1883 C1867 1.349 . S
C1883 H1875 0.950 . S
C1883 C1881 1.327 . S
C1884 C1872 1.349 . S
C1884 H1878 0.950 . S
C1884 C1885 1.327 . S
C1885 H1879 0.950 . S
C1885 C1884 1.327 . S
C1885 C1889 1.429 . S
C1886 C1869 1.574 . S
C1886 H1880 0.949 . S
C1886 C1890 1.368 1_565 S
C1887 C1868 1.429 . S
C1887 C1881 1.429 . S
C1887 C1888 1.523 . S
C1888 C1869 1.368 . S
C1888 C1882 1.368 1_565 S
C1888 C1887 1.523 . S
C1889 C1873 1.429 . S
C1889 C1885 1.429 . S
C1889 C1890 1.523 . S
C1890 C1874 1.368 . S
C1890 C1886 1.368 1_545 S
C1890 C1889 1.523 . S
H1891 C1866 0.950 . S
H1892 C1868 0.950 . S
H1893 C1869 0.949 . S
H1894 C1871 0.950 . S
H1895 C1873 0.950 . S
C1896 C1897 1.349 . S
C1896 C1898 1.327 . S
C1896 H1921 0.950 . S
C1897 C1896 1.349 . S
C1897 C1913 1.349 . S
C1898 C1896 1.327 . S
C1898 C1917 1.429 . S
C1898 H1922 0.950 . S
C1899 C1916 1.574 . S
C1899 C1918 1.368 1_545 S
C1899 H1923 0.949 . S
H1900 C1904 0.949 . S
C1901 C1902 1.349 . S
C1901 C1903 1.327 . S
C1901 H1924 0.950 . S
C1902 C1901 1.349 . S
C1902 C1914 1.349 . S
C1903 C1901 1.327 . S
C1903 C1919 1.429 . S
C1903 H1925 0.950 . S
C1904 H1900 0.949 . S
C1904 C1912 1.574 . S
C1904 C1920 1.368 1_565 S
H1905 C1913 0.950 . S
H1906 C1911 0.950 . S
H1907 C1912 0.949 . S
H1908 C1914 0.950 . S
H1909 C1915 0.950 . S
H1910 C1916 0.949 . S
C1911 H1906 0.950 . S
C1911 C1913 1.327 . S
C1911 C1917 1.429 . S
C1912 C1904 1.574 . S
C1912 H1907 0.949 . S
C1912 C1918 1.368 . S
C1913 C1897 1.349 . S
C1913 H1905 0.950 . S
C1913 C1911 1.327 . S
C1914 C1902 1.349 . S
C1914 H1908 0.950 . S
C1914 C1915 1.327 . S
C1915 H1909 0.950 . S
C1915 C1914 1.327 . S
C1915 C1919 1.429 . S
C1916 C1899 1.574 . S
C1916 H1910 0.949 . S
C1916 C1920 1.368 . S
C1917 C1898 1.429 . S
C1917 C1911 1.429 . S
C1917 C1918 1.523 . S
C1918 C1899 1.368 1_565 S
C1918 C1912 1.368 . S
C1918 C1917 1.523 . S
C1919 C1903 1.429 . S
C1919 C1915 1.429 . S
C1919 C1920 1.523 . S
C1920 C1904 1.368 1_545 S
C1920 C1916 1.368 . S
C1920 C1919 1.523 . S
H1921 C1896 0.950 . S
H1922 C1898 0.950 . S
H1923 C1899 0.949 . S
H1924 C1901 0.950 . S
H1925 C1903 0.950 . S
C1926 C1927 1.349 . S
C1926 C1928 1.327 . S
C1926 H1951 0.950 . S
C1927 C1926 1.349 . S
C1927 C1943 1.349 . S
C1928 C1926 1.327 . S
C1928 C1947 1.429 . S
C1928 H1952 0.950 . S
C1929 C1946 1.574 . S
C1929 C1948 1.368 1_455 S
C1929 H1953 0.949 . S
H1930 C1934 0.949 . S
C1931 C1932 1.349 . S
C1931 C1933 1.327 . S
C1931 H1954 0.950 . S
C1932 C1931 1.349 . S
C1932 C1944 1.349 . S
C1933 C1931 1.327 . S
C1933 C1949 1.429 . S
C1933 H1955 0.950 . S
C1934 H1930 0.949 . S
C1934 C1942 1.574 . S
C1934 C1950 1.368 1_655 S
H1935 C1943 0.950 . S
H1936 C1941 0.950 . S
H1937 C1942 0.949 . S
H1938 C1944 0.950 . S
H1939 C1945 0.950 . S
H1940 C1946 0.949 . S
C1941 H1936 0.950 . S
C1941 C1943 1.327 . S
C1941 C1947 1.429 . S
C1942 C1934 1.574 . S
C1942 H1937 0.949 . S
C1942 C1948 1.368 . S
C1943 C1927 1.349 . S
C1943 H1935 0.950 . S
C1943 C1941 1.327 . S
C1944 C1932 1.349 . S
C1944 H1938 0.950 . S
C1944 C1945 1.327 . S
C1945 H1939 0.950 . S
C1945 C1944 1.327 . S
C1945 C1949 1.429 . S
C1946 C1929 1.574 . S
C1946 H1940 0.949 . S
C1946 C1950 1.368 . S
C1947 C1928 1.429 . S
C1947 C1941 1.429 . S
C1947 C1948 1.523 . S
C1948 C1929 1.368 1_655 S
C1948 C1942 1.368 . S
C1948 C1947 1.523 . S
C1949 C1933 1.429 . S
C1949 C1945 1.429 . S
C1949 C1950 1.523 . S
C1950 C1934 1.368 1_455 S
C1950 C1946 1.368 . S
C1950 C1949 1.523 . S
H1951 C1926 0.950 . S
H1952 C1928 0.950 . S
H1953 C1929 0.949 . S
H1954 C1931 0.950 . S
H1955 C1933 0.950 . S
C1956 C1957 1.349 . S
C1956 C1958 1.327 . S
C1956 H1981 0.950 . S
C1957 C1956 1.349 . S
C1957 C1973 1.349 . S
C1958 C1956 1.327 . S
C1958 C1977 1.429 . S
C1958 H1982 0.950 . S
C1959 C1976 1.572 . S
C1959 C1978 1.368 . S
C1959 H1983 0.949 . S
H1960 C1964 0.949 . S
C1961 C1962 1.349 . S
C1961 C1963 1.327 . S
C1961 H1984 0.950 . S
C1962 C1961 1.349 . S
C1962 C1974 1.349 . S
C1963 C1961 1.327 . S
C1963 C1979 1.429 . S
C1963 H1985 0.950 . S
C1964 H1960 0.949 . S
C1964 C1972 1.572 . S
C1964 C1980 1.368 . S
H1965 C1973 0.950 . S
H1966 C1971 0.950 . S
H1967 C1972 0.949 1_565 S
H1968 C1974 0.950 . S
H1969 C1975 0.950 . S
H1970 C1976 0.949 1_545 S
C1971 H1966 0.950 . S
C1971 C1973 1.327 . S
C1971 C1977 1.429 . S
C1972 C1964 1.572 . S
C1972 H1967 0.949 1_545 S
C1972 C1978 1.370 1_545 S
C1973 C1957 1.349 . S
C1973 H1965 0.950 . S
C1973 C1971 1.327 . S
C1974 C1962 1.349 . S
C1974 H1968 0.950 . S
C1974 C1975 1.327 . S
C1975 H1969 0.950 . S
C1975 C1974 1.327 . S
C1975 C1979 1.429 . S
C1976 C1959 1.572 . S
C1976 H1970 0.949 1_565 S
C1976 C1980 1.370 1_565 S
C1977 C1958 1.429 . S
C1977 C1971 1.429 . S
C1977 C1978 1.523 . S
C1978 C1959 1.368 . S
C1978 C1972 1.370 1_565 S
C1978 C1977 1.523 . S
C1979 C1963 1.429 . S
C1979 C1975 1.429 . S
C1979 C1980 1.523 . S
C1980 C1964 1.368 . S
C1980 C1976 1.370 1_545 S
C1980 C1979 1.523 . S
H1981 C1956 0.950 . S
H1982 C1958 0.950 . S
H1983 C1959 0.949 . S
H1984 C1961 0.950 . S
H1985 C1963 0.950 . S
C1986 C1987 1.349 . S
C1986 C1988 1.327 . S
C1986 H2011 0.950 . S
C1987 C1986 1.349 . S
C1987 C2003 1.349 . S
C1988 C1986 1.327 . S
C1988 C2007 1.429 . S
C1988 H2012 0.950 . S
C1989 C2006 1.574 . S
C1989 C2008 1.368 1_455 S
C1989 H2013 0.949 . S
H1990 C1994 0.949 . S
C1991 C1992 1.349 . S
C1991 C1993 1.327 . S
C1991 H2014 0.950 . S
C1992 C1991 1.349 . S
C1992 C2004 1.349 . S
C1993 C1991 1.327 . S
C1993 C2009 1.429 . S
C1993 H2015 0.950 . S
C1994 H1990 0.949 . S
C1994 C2002 1.574 . S
C1994 C2010 1.368 1_655 S
H1995 C2003 0.950 . S
H1996 C2001 0.950 . S
H1997 C2002 0.949 . S
H1998 C2004 0.950 . S
H1999 C2005 0.950 . S
H2000 C2006 0.949 . S
C2001 H1996 0.950 . S
C2001 C2003 1.327 . S
C2001 C2007 1.429 . S
C2002 C1994 1.574 . S
C2002 H1997 0.949 . S
C2002 C2008 1.368 . S
C2003 C1987 1.349 . S
C2003 H1995 0.950 . S
C2003 C2001 1.327 . S
C2004 C1992 1.349 . S
C2004 H1998 0.950 . S
C2004 C2005 1.327 . S
C2005 H1999 0.950 . S
C2005 C2004 1.327 . S
C2005 C2009 1.429 . S
C2006 C1989 1.574 . S
C2006 H2000 0.949 . S
C2006 C2010 1.368 . S
C2007 C1988 1.429 . S
C2007 C2001 1.429 . S
C2007 C2008 1.523 . S
C2008 C1989 1.368 1_655 S
C2008 C2002 1.368 . S
C2008 C2007 1.523 . S
C2009 C1993 1.429 . S
C2009 C2005 1.429 . S
C2009 C2010 1.523 . S
C2010 C1994 1.368 1_455 S
C2010 C2006 1.368 . S
C2010 C2009 1.523 . S
H2011 C1986 0.950 . S
H2012 C1988 0.950 . S
H2013 C1989 0.949 . S
H2014 C1991 0.950 . S
H2015 C1993 0.950 . S
C2016 C2017 1.349 . S
C2016 C2018 1.327 . S
C2016 H2041 0.950 . S
C2017 C2016 1.349 . S
C2017 C2033 1.349 . S
C2018 C2016 1.327 . S
C2018 C2037 1.429 . S
C2018 H2042 0.950 . S
C2019 C2036 1.574 . S
C2019 C2038 1.368 . S
C2019 H2043 0.949 . S
H2020 C2024 0.949 . S
C2021 C2022 1.349 . S
C2021 C2023 1.327 . S
C2021 H2044 0.950 . S
C2022 C2021 1.349 . S
C2022 C2034 1.349 . S
C2023 C2021 1.327 . S
C2023 C2039 1.429 . S
C2023 H2045 0.950 . S
C2024 H2020 0.949 . S
C2024 C2032 1.574 . S
C2024 C2040 1.368 . S
H2025 C2033 0.950 . S
H2026 C2031 0.950 . S
H2027 C2032 0.949 . S
H2028 C2034 0.950 . S
H2029 C2035 0.950 . S
H2030 C2036 0.949 . S
C2031 H2026 0.950 . S
C2031 C2033 1.327 . S
C2031 C2037 1.429 . S
C2032 C2024 1.574 . S
C2032 H2027 0.949 . S
C2032 C2038 1.368 1_554 S
C2033 C2017 1.349 . S
C2033 H2025 0.950 . S
C2033 C2031 1.327 . S
C2034 C2022 1.349 . S
C2034 H2028 0.950 . S
C2034 C2035 1.327 . S
C2035 H2029 0.950 . S
C2035 C2034 1.327 . S
C2035 C2039 1.429 . S
C2036 C2019 1.574 . S
C2036 H2030 0.949 . S
C2036 C2040 1.368 1_556 S
C2037 C2018 1.429 . S
C2037 C2031 1.429 . S
C2037 C2038 1.523 . S
C2038 C2019 1.368 . S
C2038 C2032 1.368 1_556 S
C2038 C2037 1.523 . S
C2039 C2023 1.429 . S
C2039 C2035 1.429 . S
C2039 C2040 1.523 . S
C2040 C2024 1.368 . S
C2040 C2036 1.368 1_554 S
C2040 C2039 1.523 . S
H2041 C2016 0.950 . S
H2042 C2018 0.950 . S
H2043 C2019 0.949 . S
H2044 C2021 0.950 . S
H2045 C2023 0.950 . S
C2046 C2047 1.349 . S
C2046 C2048 1.327 . S
C2046 H2071 0.950 . S
C2047 C2046 1.349 . S
C2047 C2063 1.349 . S
C2048 C2046 1.327 . S
C2048 C2067 1.429 . S
C2048 H2072 0.950 . S
C2049 C2066 1.574 . S
C2049 C2068 1.368 1_554 S
C2049 H2073 0.949 . S
H2050 C2054 0.949 . S
C2051 C2052 1.349 . S
C2051 C2053 1.327 . S
C2051 H2074 0.950 . S
C2052 C2051 1.349 . S
C2052 C2064 1.349 . S
C2053 C2051 1.327 . S
C2053 C2069 1.429 . S
C2053 H2075 0.950 . S
C2054 H2050 0.949 . S
C2054 C2062 1.574 . S
C2054 C2070 1.368 1_556 S
H2055 C2063 0.950 . S
H2056 C2061 0.950 . S
H2057 C2062 0.949 . S
H2058 C2064 0.950 . S
H2059 C2065 0.950 . S
H2060 C2066 0.949 . S
C2061 H2056 0.950 . S
C2061 C2063 1.327 . S
C2061 C2067 1.429 . S
C2062 C2054 1.574 . S
C2062 H2057 0.949 . S
C2062 C2068 1.368 . S
C2063 C2047 1.349 . S
C2063 H2055 0.950 . S
C2063 C2061 1.327 . S
C2064 C2052 1.349 . S
C2064 H2058 0.950 . S
C2064 C2065 1.327 . S
C2065 H2059 0.950 . S
C2065 C2064 1.327 . S
C2065 C2069 1.429 . S
C2066 C2049 1.574 . S
C2066 H2060 0.949 . S
C2066 C2070 1.368 . S
C2067 C2048 1.429 . S
C2067 C2061 1.429 . S
C2067 C2068 1.523 . S
C2068 C2049 1.368 1_556 S
C2068 C2062 1.368 . S
C2068 C2067 1.523 . S
C2069 C2053 1.429 . S
C2069 C2065 1.429 . S
C2069 C2070 1.523 . S
C2070 C2054 1.368 1_554 S
C2070 C2066 1.368 . S
C2070 C2069 1.523 . S
H2071 C2046 0.950 . S
H2072 C2048 0.950 . S
H2073 C2049 0.949 . S
H2074 C2051 0.950 . S
H2075 C2053 0.950 . S
C2076 C2077 1.349 . S
C2076 C2078 1.327 . S
C2076 H2101 0.950 . S
C2077 C2076 1.349 . S
C2077 C2093 1.349 . S
C2078 C2076 1.327 . S
C2078 C2097 1.429 . S
C2078 H2102 0.950 . S
C2079 C2096 1.574 . S
C2079 C2098 1.368 1_554 S
C2079 H2103 0.949 . S
H2080 C2084 0.949 . S
C2081 C2082 1.349 . S
C2081 C2083 1.327 . S
C2081 H2104 0.950 . S
C2082 C2081 1.349 . S
C2082 C2094 1.349 . S
C2083 C2081 1.327 . S
C2083 C2099 1.429 . S
C2083 H2105 0.950 . S
C2084 H2080 0.949 . S
C2084 C2092 1.574 . S
C2084 C2100 1.368 1_556 S
H2085 C2093 0.950 . S
H2086 C2091 0.950 . S
H2087 C2092 0.949 . S
H2088 C2094 0.950 . S
H2089 C2095 0.950 . S
H2090 C2096 0.949 . S
C2091 H2086 0.950 . S
C2091 C2093 1.327 . S
C2091 C2097 1.429 . S
C2092 C2084 1.574 . S
C2092 H2087 0.949 . S
C2092 C2098 1.368 . S
C2093 C2077 1.349 . S
C2093 H2085 0.950 . S
C2093 C2091 1.327 . S
C2094 C2082 1.349 . S
C2094 H2088 0.950 . S
C2094 C2095 1.327 . S
C2095 H2089 0.950 . S
C2095 C2094 1.327 . S
C2095 C2099 1.429 . S
C2096 C2079 1.574 . S
C2096 H2090 0.949 . S
C2096 C2100 1.368 . S
C2097 C2078 1.429 . S
C2097 C2091 1.429 . S
C2097 C2098 1.523 . S
C2098 C2079 1.368 1_556 S
C2098 C2092 1.368 . S
C2098 C2097 1.523 . S
C2099 C2083 1.429 . S
C2099 C2095 1.429 . S
C2099 C2100 1.523 . S
C2100 C2084 1.368 1_554 S
C2100 C2096 1.368 . S
C2100 C2099 1.523 . S
H2101 C2076 0.950 . S
H2102 C2078 0.950 . S
H2103 C2079 0.949 . S
H2104 C2081 0.950 . S
H2105 C2083 0.950 . S
C2106 C2107 1.349 . S
C2106 C2108 1.327 . S
C2106 H2131 0.950 . S
C2107 C2106 1.349 . S
C2107 C2123 1.349 . S
C2108 C2106 1.327 . S
C2108 C2127 1.429 . S
C2108 H2132 0.950 . S
C2109 C2126 1.574 . S
C2109 C2128 1.368 1_554 S
C2109 H2133 0.949 . S
H2110 C2114 0.949 . S
C2111 C2112 1.349 . S
C2111 C2113 1.327 . S
C2111 H2134 0.950 . S
C2112 C2111 1.349 . S
C2112 C2124 1.349 . S
C2113 C2111 1.327 . S
C2113 C2129 1.429 . S
C2113 H2135 0.950 . S
C2114 H2110 0.949 . S
C2114 C2122 1.574 . S
C2114 C2130 1.368 1_556 S
H2115 C2123 0.950 . S
H2116 C2121 0.950 . S
H2117 C2122 0.949 . S
H2118 C2124 0.950 . S
H2119 C2125 0.950 . S
H2120 C2126 0.949 . S
C2121 H2116 0.950 . S
C2121 C2123 1.327 . S
C2121 C2127 1.429 . S
C2122 C2114 1.574 . S
C2122 H2117 0.949 . S
C2122 C2128 1.368 . S
C2123 C2107 1.349 . S
C2123 H2115 0.950 . S
C2123 C2121 1.327 . S
C2124 C2112 1.349 . S
C2124 H2118 0.950 . S
C2124 C2125 1.327 . S
C2125 H2119 0.950 . S
C2125 C2124 1.327 . S
C2125 C2129 1.429 . S
C2126 C2109 1.574 . S
C2126 H2120 0.949 . S
C2126 C2130 1.368 . S
C2127 C2108 1.429 . S
C2127 C2121 1.429 . S
C2127 C2128 1.523 . S
C2128 C2109 1.368 1_556 S
C2128 C2122 1.368 . S
C2128 C2127 1.523 . S
C2129 C2113 1.429 . S
C2129 C2125 1.429 . S
C2129 C2130 1.523 . S
C2130 C2114 1.368 1_554 S
C2130 C2126 1.368 . S
C2130 C2129 1.523 . S
H2131 C2106 0.950 . S
H2132 C2108 0.950 . S
H2133 C2109 0.949 . S
H2134 C2111 0.950 . S
H2135 C2113 0.950 . S
C2136 C2137 1.349 . S
C2136 C2138 1.327 . S
C2136 H2161 0.950 . S
C2137 C2136 1.349 . S
C2137 C2153 1.349 . S
C2138 C2136 1.327 . S
C2138 C2157 1.429 . S
C2138 H2162 0.950 . S
C2139 C2156 1.574 . S
C2139 C2158 1.368 . S
C2139 H2163 0.949 . S
H2140 C2144 0.949 . S
C2141 C2142 1.349 . S
C2141 C2143 1.327 . S
C2141 H2164 0.950 . S
C2142 C2141 1.349 . S
C2142 C2154 1.349 . S
C2143 C2141 1.327 . S
C2143 C2159 1.429 . S
C2143 H2165 0.950 . S
C2144 H2140 0.949 . S
C2144 C2152 1.574 . S
C2144 C2160 1.368 . S
H2145 C2153 0.950 . S
H2146 C2151 0.950 . S
H2147 C2152 0.949 . S
H2148 C2154 0.950 . S
H2149 C2155 0.950 . S
H2150 C2156 0.949 . S
C2151 H2146 0.950 . S
C2151 C2153 1.327 . S
C2151 C2157 1.429 . S
C2152 C2144 1.574 . S
C2152 H2147 0.949 . S
C2152 C2158 1.368 . S
C2153 C2137 1.349 . S
C2153 H2145 0.950 . S
C2153 C2151 1.327 . S
C2154 C2142 1.349 . S
C2154 H2148 0.950 . S
C2154 C2155 1.327 . S
C2155 H2149 0.950 . S
C2155 C2154 1.327 . S
C2155 C2159 1.429 . S
C2156 C2139 1.574 . S
C2156 H2150 0.949 . S
C2156 C2160 1.368 . S
C2157 C2138 1.429 . S
C2157 C2151 1.429 . S
C2157 C2158 1.523 . S
C2158 C2139 1.368 . S
C2158 C2152 1.368 . S
C2158 C2157 1.523 . S
C2159 C2143 1.429 . S
C2159 C2155 1.429 . S
C2159 C2160 1.523 . S
C2160 C2144 1.368 . S
C2160 C2156 1.368 . S
C2160 C2159 1.523 . S
H2161 C2136 0.950 . S
H2162 C2138 0.950 . S
H2163 C2139 0.949 . S
H2164 C2141 0.950 . S
H2165 C2143 0.950 . S
C2166 C2167 1.349 . S
C2166 C2168 1.327 . S
C2166 H2191 0.950 . S
C2167 C2166 1.349 . S
C2167 C2183 1.349 . S
C2168 C2166 1.327 . S
C2168 C2187 1.429 . S
C2168 H2192 0.950 . S
C2169 C2186 1.574 . S
C2169 C2188 1.368 . S
C2169 H2193 0.949 . S
H2170 C2174 0.949 . S
C2171 C2172 1.349 . S
C2171 C2173 1.327 . S
C2171 H2194 0.950 . S
C2172 C2171 1.349 . S
C2172 C2184 1.349 . S
C2173 C2171 1.327 . S
C2173 C2189 1.429 . S
C2173 H2195 0.950 . S
C2174 H2170 0.949 . S
C2174 C2182 1.574 . S
C2174 C2190 1.368 . S
H2175 C2183 0.950 . S
H2176 C2181 0.950 . S
H2177 C2182 0.949 . S
H2178 C2184 0.950 . S
H2179 C2185 0.950 . S
H2180 C2186 0.949 . S
C2181 H2176 0.950 . S
C2181 C2183 1.327 . S
C2181 C2187 1.429 . S
C2182 C2174 1.574 . S
C2182 H2177 0.949 . S
C2182 C2188 1.368 . S
C2183 C2167 1.349 . S
C2183 H2175 0.950 . S
C2183 C2181 1.327 . S
C2184 C2172 1.349 . S
C2184 H2178 0.950 . S
C2184 C2185 1.327 . S
C2185 H2179 0.950 . S
C2185 C2184 1.327 . S
C2185 C2189 1.429 . S
C2186 C2169 1.574 . S
C2186 H2180 0.949 . S
C2186 C2190 1.368 . S
C2187 C2168 1.429 . S
C2187 C2181 1.429 . S
C2187 C2188 1.523 . S
C2188 C2169 1.368 . S
C2188 C2182 1.368 . S
C2188 C2187 1.523 . S
C2189 C2173 1.429 . S
C2189 C2185 1.429 . S
C2189 C2190 1.523 . S
C2190 C2174 1.368 . S
C2190 C2186 1.368 . S
C2190 C2189 1.523 . S
H2191 C2166 0.950 . S
H2192 C2168 0.950 . S
H2193 C2169 0.949 . S
H2194 C2171 0.950 . S
H2195 C2173 0.950 . S
C2196 C2197 1.349 . S
C2196 C2198 1.327 . S
C2196 H2221 0.950 . S
C2197 C2196 1.349 . S
C2197 C2213 1.349 . S
C2198 C2196 1.327 . S
C2198 C2217 1.429 . S
C2198 H2222 0.950 . S
C2199 C2216 1.574 . S
C2199 C2218 1.368 . S
C2199 H2223 0.949 . S
H2200 C2204 0.949 . S
C2201 C2202 1.349 . S
C2201 C2203 1.327 . S
C2201 H2224 0.950 . S
C2202 C2201 1.349 . S
C2202 C2214 1.349 . S
C2203 C2201 1.327 . S
C2203 C2219 1.429 . S
C2203 H2225 0.950 . S
C2204 H2200 0.949 . S
C2204 C2212 1.574 . S
C2204 C2220 1.368 . S
H2205 C2213 0.950 . S
H2206 C2211 0.950 . S
H2207 C2212 0.949 . S
H2208 C2214 0.950 . S
H2209 C2215 0.950 . S
H2210 C2216 0.949 . S
C2211 H2206 0.950 . S
C2211 C2213 1.327 . S
C2211 C2217 1.429 . S
C2212 C2204 1.574 . S
C2212 H2207 0.949 . S
C2212 C2218 1.368 . S
C2213 C2197 1.349 . S
C2213 H2205 0.950 . S
C2213 C2211 1.327 . S
C2214 C2202 1.349 . S
C2214 H2208 0.950 . S
C2214 C2215 1.327 . S
C2215 H2209 0.950 . S
C2215 C2214 1.327 . S
C2215 C2219 1.429 . S
C2216 C2199 1.574 . S
C2216 H2210 0.949 . S
C2216 C2220 1.368 . S
C2217 C2198 1.429 . S
C2217 C2211 1.429 . S
C2217 C2218 1.523 . S
C2218 C2199 1.368 . S
C2218 C2212 1.368 . S
C2218 C2217 1.523 . S
C2219 C2203 1.429 . S
C2219 C2215 1.429 . S
C2219 C2220 1.523 . S
C2220 C2204 1.368 . S
C2220 C2216 1.368 . S
C2220 C2219 1.523 . S
H2221 C2196 0.950 . S
H2222 C2198 0.950 . S
H2223 C2199 0.949 . S
H2224 C2201 0.950 . S
H2225 C2203 0.950 . S
C2226 C2227 1.349 . S
C2226 C2228 1.327 . S
C2226 H2251 0.950 . S
C2227 C2226 1.349 . S
C2227 C2243 1.349 . S
C2228 C2226 1.327 . S
C2228 C2247 1.429 . S
C2228 H2252 0.950 . S
C2229 C2246 1.574 . S
C2229 C2248 1.368 . S
C2229 H2253 0.949 . S
H2230 C2234 0.949 . S
C2231 C2232 1.349 . S
C2231 C2233 1.327 . S
C2231 H2254 0.950 . S
C2232 C2231 1.349 . S
C2232 C2244 1.349 . S
C2233 C2231 1.327 . S
C2233 C2249 1.429 . S
C2233 H2255 0.950 . S
C2234 H2230 0.949 . S
C2234 C2242 1.574 . S
C2234 C2250 1.368 . S
H2235 C2243 0.950 . S
H2236 C2241 0.950 . S
H2237 C2242 0.949 . S
H2238 C2244 0.950 . S
H2239 C2245 0.950 . S
H2240 C2246 0.949 . S
C2241 H2236 0.950 . S
C2241 C2243 1.327 . S
C2241 C2247 1.429 . S
C2242 C2234 1.574 . S
C2242 H2237 0.949 . S
C2242 C2248 1.368 . S
C2243 C2227 1.349 . S
C2243 H2235 0.950 . S
C2243 C2241 1.327 . S
C2244 C2232 1.349 . S
C2244 H2238 0.950 . S
C2244 C2245 1.327 . S
C2245 H2239 0.950 . S
C2245 C2244 1.327 . S
C2245 C2249 1.429 . S
C2246 C2229 1.574 . S
C2246 H2240 0.949 . S
C2246 C2250 1.368 . S
C2247 C2228 1.429 . S
C2247 C2241 1.429 . S
C2247 C2248 1.523 . S
C2248 C2229 1.368 . S
C2248 C2242 1.368 . S
C2248 C2247 1.523 . S
C2249 C2233 1.429 . S
C2249 C2245 1.429 . S
C2249 C2250 1.523 . S
C2250 C2234 1.368 . S
C2250 C2246 1.368 . S
C2250 C2249 1.523 . S
H2251 C2226 0.950 . S
H2252 C2228 0.950 . S
H2253 C2229 0.949 . S
H2254 C2231 0.950 . S
H2255 C2233 0.950 . S
C2256 C2257 1.349 . S
C2256 C2258 1.327 . S
C2256 H2281 0.950 . S
C2257 C2256 1.349 . S
C2257 C2273 1.349 . S
C2258 C2256 1.327 . S
C2258 C2277 1.429 . S
C2258 H2282 0.950 . S
C2259 C2276 1.574 . S
C2259 C2278 1.368 . S
C2259 H2283 0.949 . S
H2260 C2264 0.949 . S
C2261 C2262 1.349 . S
C2261 C2263 1.327 . S
C2261 H2284 0.950 . S
C2262 C2261 1.349 . S
C2262 C2274 1.349 . S
C2263 C2261 1.327 . S
C2263 C2279 1.429 . S
C2263 H2285 0.950 . S
C2264 H2260 0.949 . S
C2264 C2272 1.574 . S
C2264 C2280 1.368 . S
H2265 C2273 0.950 . S
H2266 C2271 0.950 . S
H2267 C2272 0.949 . S
H2268 C2274 0.950 . S
H2269 C2275 0.950 . S
H2270 C2276 0.949 . S
C2271 H2266 0.950 . S
C2271 C2273 1.327 . S
C2271 C2277 1.429 . S
C2272 C2264 1.574 . S
C2272 H2267 0.949 . S
C2272 C2278 1.368 . S
C2273 C2257 1.349 . S
C2273 H2265 0.950 . S
C2273 C2271 1.327 . S
C2274 C2262 1.349 . S
C2274 H2268 0.950 . S
C2274 C2275 1.327 . S
C2275 H2269 0.950 . S
C2275 C2274 1.327 . S
C2275 C2279 1.429 . S
C2276 C2259 1.574 . S
C2276 H2270 0.949 . S
C2276 C2280 1.368 . S
C2277 C2258 1.429 . S
C2277 C2271 1.429 . S
C2277 C2278 1.523 . S
C2278 C2259 1.368 . S
C2278 C2272 1.368 . S
C2278 C2277 1.523 . S
C2279 C2263 1.429 . S
C2279 C2275 1.429 . S
C2279 C2280 1.523 . S
C2280 C2264 1.368 . S
C2280 C2276 1.368 . S
C2280 C2279 1.523 . S
H2281 C2256 0.950 . S
H2282 C2258 0.950 . S
H2283 C2259 0.949 . S
H2284 C2261 0.950 . S
H2285 C2263 0.950 . S
C2286 C2287 1.349 . S
C2286 C2288 1.327 . S
C2286 H2311 0.950 . S
C2287 C2286 1.349 . S
C2287 C2303 1.349 . S
C2288 C2286 1.327 . S
C2288 C2307 1.429 . S
C2288 H2312 0.950 . S
C2289 C2306 1.574 . S
C2289 C2308 1.368 . S
C2289 H2313 0.949 . S
H2290 C2294 0.949 . S
C2291 C2292 1.349 . S
C2291 C2293 1.327 . S
C2291 H2314 0.950 . S
C2292 C2291 1.349 . S
C2292 C2304 1.349 . S
C2293 C2291 1.327 . S
C2293 C2309 1.429 . S
C2293 H2315 0.950 . S
C2294 H2290 0.949 . S
C2294 C2302 1.574 . S
C2294 C2310 1.368 . S
H2295 C2303 0.950 . S
H2296 C2301 0.950 . S
H2297 C2302 0.949 . S
H2298 C2304 0.950 . S
H2299 C2305 0.950 . S
H2300 C2306 0.949 . S
C2301 H2296 0.950 . S
C2301 C2303 1.327 . S
C2301 C2307 1.429 . S
C2302 C2294 1.574 . S
C2302 H2297 0.949 . S
C2302 C2308 1.368 . S
C2303 C2287 1.349 . S
C2303 H2295 0.950 . S
C2303 C2301 1.327 . S
C2304 C2292 1.349 . S
C2304 H2298 0.950 . S
C2304 C2305 1.327 . S
C2305 H2299 0.950 . S
C2305 C2304 1.327 . S
C2305 C2309 1.429 . S
C2306 C2289 1.574 . S
C2306 H2300 0.949 . S
C2306 C2310 1.368 . S
C2307 C2288 1.429 . S
C2307 C2301 1.429 . S
C2307 C2308 1.523 . S
C2308 C2289 1.368 . S
C2308 C2302 1.368 . S
C2308 C2307 1.523 . S
C2309 C2293 1.429 . S
C2309 C2305 1.429 . S
C2309 C2310 1.523 . S
C2310 C2294 1.368 . S
C2310 C2306 1.368 . S
C2310 C2309 1.523 . S
H2311 C2286 0.950 . S
H2312 C2288 0.950 . S
H2313 C2289 0.949 . S
H2314 C2291 0.950 . S
H2315 C2293 0.950 . S
C2316 C2317 1.349 . S
C2316 C2318 1.327 . S
C2316 H2341 0.950 . S
C2317 C2316 1.349 . S
C2317 C2333 1.349 . S
C2318 C2316 1.327 . S
C2318 C2337 1.429 . S
C2318 H2342 0.950 . S
C2319 C2336 1.574 . S
C2319 C2338 1.368 . S
C2319 H2343 0.949 . S
H2320 C2324 0.949 . S
C2321 C2322 1.349 . S
C2321 C2323 1.327 . S
C2321 H2344 0.950 . S
C2322 C2321 1.349 . S
C2322 C2334 1.349 . S
C2323 C2321 1.327 . S
C2323 C2339 1.429 . S
C2323 H2345 0.950 . S
C2324 H2320 0.949 . S
C2324 C2332 1.574 . S
C2324 C2340 1.368 . S
H2325 C2333 0.950 . S
H2326 C2331 0.950 . S
H2327 C2332 0.949 . S
H2328 C2334 0.950 . S
H2329 C2335 0.950 . S
H2330 C2336 0.949 . S
C2331 H2326 0.950 . S
C2331 C2333 1.327 . S
C2331 C2337 1.429 . S
C2332 C2324 1.574 . S
C2332 H2327 0.949 . S
C2332 C2338 1.368 . S
C2333 C2317 1.349 . S
C2333 H2325 0.950 . S
C2333 C2331 1.327 . S
C2334 C2322 1.349 . S
C2334 H2328 0.950 . S
C2334 C2335 1.327 . S
C2335 H2329 0.950 . S
C2335 C2334 1.327 . S
C2335 C2339 1.429 . S
C2336 C2319 1.574 . S
C2336 H2330 0.949 . S
C2336 C2340 1.368 . S
C2337 C2318 1.429 . S
C2337 C2331 1.429 . S
C2337 C2338 1.523 . S
C2338 C2319 1.368 . S
C2338 C2332 1.368 . S
C2338 C2337 1.523 . S
C2339 C2323 1.429 . S
C2339 C2335 1.429 . S
C2339 C2340 1.523 . S
C2340 C2324 1.368 . S
C2340 C2336 1.368 . S
C2340 C2339 1.523 . S
H2341 C2316 0.950 . S
H2342 C2318 0.950 . S
H2343 C2319 0.949 . S
H2344 C2321 0.950 . S
H2345 C2323 0.950 . S
C2346 C2347 1.349 . S
C2346 C2348 1.327 . S
C2346 H2371 0.950 . S
C2347 C2346 1.349 . S
C2347 C2363 1.349 . S
C2348 C2346 1.327 . S
C2348 C2367 1.429 . S
C2348 H2372 0.950 . S
C2349 C2366 1.574 . S
C2349 C2368 1.368 . S
C2349 H2373 0.949 . S
H2350 C2354 0.949 . S
C2351 C2352 1.349 . S
C2351 C2353 1.327 . S
C2351 H2374 0.950 . S
C2352 C2351 1.349 . S
C2352 C2364 1.349 . S
C2353 C2351 1.327 . S
C2353 C2369 1.429 . S
C2353 H2375 0.950 . S
C2354 H2350 0.949 . S
C2354 C2362 1.574 . S
C2354 C2370 1.368 . S
H2355 C2363 0.950 . S
H2356 C2361 0.950 . S
H2357 C2362 0.949 . S
H2358 C2364 0.950 . S
H2359 C2365 0.950 . S
H2360 C2366 0.949 . S
C2361 H2356 0.950 . S
C2361 C2363 1.327 . S
C2361 C2367 1.429 . S
C2362 C2354 1.574 . S
C2362 H2357 0.949 . S
C2362 C2368 1.368 . S
C2363 C2347 1.349 . S
C2363 H2355 0.950 . S
C2363 C2361 1.327 . S
C2364 C2352 1.349 . S
C2364 H2358 0.950 . S
C2364 C2365 1.327 . S
C2365 H2359 0.950 . S
C2365 C2364 1.327 . S
C2365 C2369 1.429 . S
C2366 C2349 1.574 . S
C2366 H2360 0.949 . S
C2366 C2370 1.368 . S
C2367 C2348 1.429 . S
C2367 C2361 1.429 . S
C2367 C2368 1.523 . S
C2368 C2349 1.368 . S
C2368 C2362 1.368 . S
C2368 C2367 1.523 . S
C2369 C2353 1.429 . S
C2369 C2365 1.429 . S
C2369 C2370 1.523 . S
C2370 C2354 1.368 . S
C2370 C2366 1.368 . S
C2370 C2369 1.523 . S
H2371 C2346 0.950 . S
H2372 C2348 0.950 . S
H2373 C2349 0.949 . S
H2374 C2351 0.950 . S
H2375 C2353 0.950 . S
C2376 C2377 1.349 . S
C2376 C2378 1.327 . S
C2376 H2401 0.950 . S
C2377 C2376 1.349 . S
C2377 C2393 1.349 . S
C2378 C2376 1.327 . S
C2378 C2397 1.429 . S
C2378 H2402 0.950 . S
C2379 C2396 1.574 . S
C2379 C2398 1.368 . S
C2379 H2403 0.949 . S
H2380 C2384 0.949 . S
C2381 C2382 1.349 . S
C2381 C2383 1.327 . S
C2381 H2404 0.950 . S
C2382 C2381 1.349 . S
C2382 C2394 1.349 . S
C2383 C2381 1.327 . S
C2383 C2399 1.429 . S
C2383 H2405 0.950 . S
C2384 H2380 0.949 . S
C2384 C2392 1.574 . S
C2384 C2400 1.368 . S
H2385 C2393 0.950 . S
H2386 C2391 0.950 . S
H2387 C2392 0.949 . S
H2388 C2394 0.950 . S
H2389 C2395 0.950 . S
H2390 C2396 0.949 . S
C2391 H2386 0.950 . S
C2391 C2393 1.327 . S
C2391 C2397 1.429 . S
C2392 C2384 1.574 . S
C2392 H2387 0.949 . S
C2392 C2398 1.368 . S
C2393 C2377 1.349 . S
C2393 H2385 0.950 . S
C2393 C2391 1.327 . S
C2394 C2382 1.349 . S
C2394 H2388 0.950 . S
C2394 C2395 1.327 . S
C2395 H2389 0.950 . S
C2395 C2394 1.327 . S
C2395 C2399 1.429 . S
C2396 C2379 1.574 . S
C2396 H2390 0.949 . S
C2396 C2400 1.368 . S
C2397 C2378 1.429 . S
C2397 C2391 1.429 . S
C2397 C2398 1.523 . S
C2398 C2379 1.368 . S
C2398 C2392 1.368 . S
C2398 C2397 1.523 . S
C2399 C2383 1.429 . S
C2399 C2395 1.429 . S
C2399 C2400 1.523 . S
C2400 C2384 1.368 . S
C2400 C2396 1.368 . S
C2400 C2399 1.523 . S
H2401 C2376 0.950 . S
H2402 C2378 0.950 . S
H2403 C2379 0.949 . S
H2404 C2381 0.950 . S
H2405 C2383 0.950 . S
C2406 C2407 1.349 . S
C2406 C2408 1.327 . S
C2406 H2431 0.950 . S
C2407 C2406 1.349 . S
C2407 C2423 1.349 . S
C2408 C2406 1.327 . S
C2408 C2427 1.429 . S
C2408 H2432 0.950 . S
C2409 C2426 1.574 . S
C2409 C2428 1.368 . S
C2409 H2433 0.949 . S
H2410 C2414 0.949 . S
C2411 C2412 1.349 . S
C2411 C2413 1.327 . S
C2411 H2434 0.950 . S
C2412 C2411 1.349 . S
C2412 C2424 1.349 . S
C2413 C2411 1.327 . S
C2413 C2429 1.429 . S
C2413 H2435 0.950 . S
C2414 H2410 0.949 . S
C2414 C2422 1.574 . S
C2414 C2430 1.368 . S
H2415 C2423 0.950 . S
H2416 C2421 0.950 . S
H2417 C2422 0.949 . S
H2418 C2424 0.950 . S
H2419 C2425 0.950 . S
H2420 C2426 0.949 . S
C2421 H2416 0.950 . S
C2421 C2423 1.327 . S
C2421 C2427 1.429 . S
C2422 C2414 1.574 . S
C2422 H2417 0.949 . S
C2422 C2428 1.368 . S
C2423 C2407 1.349 . S
C2423 H2415 0.950 . S
C2423 C2421 1.327 . S
C2424 C2412 1.349 . S
C2424 H2418 0.950 . S
C2424 C2425 1.327 . S
C2425 H2419 0.950 . S
C2425 C2424 1.327 . S
C2425 C2429 1.429 . S
C2426 C2409 1.574 . S
C2426 H2420 0.949 . S
C2426 C2430 1.368 . S
C2427 C2408 1.429 . S
C2427 C2421 1.429 . S
C2427 C2428 1.523 . S
C2428 C2409 1.368 . S
C2428 C2422 1.368 . S
C2428 C2427 1.523 . S
C2429 C2413 1.429 . S
C2429 C2425 1.429 . S
C2429 C2430 1.523 . S
C2430 C2414 1.368 . S
C2430 C2426 1.368 . S
C2430 C2429 1.523 . S
H2431 C2406 0.950 . S
H2432 C2408 0.950 . S
H2433 C2409 0.949 . S
H2434 C2411 0.950 . S
H2435 C2413 0.950 . S
C2436 C2437 1.349 . S
C2436 C2438 1.327 . S
C2436 H2461 0.950 . S
C2437 C2436 1.349 . S
C2437 C2453 1.349 . S
C2438 C2436 1.327 . S
C2438 C2457 1.429 . S
C2438 H2462 0.950 . S
C2439 C2456 1.574 . S
C2439 C2458 1.368 . S
C2439 H2463 0.949 . S
H2440 C2444 0.949 . S
C2441 C2442 1.349 . S
C2441 C2443 1.327 . S
C2441 H2464 0.950 . S
C2442 C2441 1.349 . S
C2442 C2454 1.349 . S
C2443 C2441 1.327 . S
C2443 C2459 1.429 . S
C2443 H2465 0.950 . S
C2444 H2440 0.949 . S
C2444 C2452 1.574 . S
C2444 C2460 1.368 . S
H2445 C2453 0.950 . S
H2446 C2451 0.950 . S
H2447 C2452 0.949 . S
H2448 C2454 0.950 . S
H2449 C2455 0.950 . S
H2450 C2456 0.949 . S
C2451 H2446 0.950 . S
C2451 C2453 1.327 . S
C2451 C2457 1.429 . S
C2452 C2444 1.574 . S
C2452 H2447 0.949 . S
C2452 C2458 1.368 . S
C2453 C2437 1.349 . S
C2453 H2445 0.950 . S
C2453 C2451 1.327 . S
C2454 C2442 1.349 . S
C2454 H2448 0.950 . S
C2454 C2455 1.327 . S
C2455 H2449 0.950 . S
C2455 C2454 1.327 . S
C2455 C2459 1.429 . S
C2456 C2439 1.574 . S
C2456 H2450 0.949 . S
C2456 C2460 1.368 . S
C2457 C2438 1.429 . S
C2457 C2451 1.429 . S
C2457 C2458 1.523 . S
C2458 C2439 1.368 . S
C2458 C2452 1.368 . S
C2458 C2457 1.523 . S
C2459 C2443 1.429 . S
C2459 C2455 1.429 . S
C2459 C2460 1.523 . S
C2460 C2444 1.368 . S
C2460 C2456 1.368 . S
C2460 C2459 1.523 . S
H2461 C2436 0.950 . S
H2462 C2438 0.950 . S
H2463 C2439 0.949 . S
H2464 C2441 0.950 . S
H2465 C2443 0.950 . S
C2466 C2467 1.349 . S
C2466 C2468 1.327 . S
C2466 H2491 0.950 . S
C2467 C2466 1.349 . S
C2467 C2483 1.349 . S
C2468 C2466 1.327 . S
C2468 C2487 1.429 . S
C2468 H2492 0.950 . S
C2469 C2486 1.574 . S
C2469 C2488 1.368 . S
C2469 H2493 0.949 . S
H2470 C2474 0.949 . S
C2471 C2472 1.349 . S
C2471 C2473 1.327 . S
C2471 H2494 0.950 . S
C2472 C2471 1.349 . S
C2472 C2484 1.349 . S
C2473 C2471 1.327 . S
C2473 C2489 1.429 . S
C2473 H2495 0.950 . S
C2474 H2470 0.949 . S
C2474 C2482 1.574 . S
C2474 C2490 1.368 . S
H2475 C2483 0.950 . S
H2476 C2481 0.950 . S
H2477 C2482 0.949 . S
H2478 C2484 0.950 . S
H2479 C2485 0.950 . S
H2480 C2486 0.949 . S
C2481 H2476 0.950 . S
C2481 C2483 1.327 . S
C2481 C2487 1.429 . S
C2482 C2474 1.574 . S
C2482 H2477 0.949 . S
C2482 C2488 1.368 . S
C2483 C2467 1.349 . S
C2483 H2475 0.950 . S
C2483 C2481 1.327 . S
C2484 C2472 1.349 . S
C2484 H2478 0.950 . S
C2484 C2485 1.327 . S
C2485 H2479 0.950 . S
C2485 C2484 1.327 . S
C2485 C2489 1.429 . S
C2486 C2469 1.574 . S
C2486 H2480 0.949 . S
C2486 C2490 1.368 . S
C2487 C2468 1.429 . S
C2487 C2481 1.429 . S
C2487 C2488 1.523 . S
C2488 C2469 1.368 . S
C2488 C2482 1.368 . S
C2488 C2487 1.523 . S
C2489 C2473 1.429 . S
C2489 C2485 1.429 . S
C2489 C2490 1.523 . S
C2490 C2474 1.368 . S
C2490 C2486 1.368 . S
C2490 C2489 1.523 . S
H2491 C2466 0.950 . S
H2492 C2468 0.950 . S
H2493 C2469 0.949 . S
H2494 C2471 0.950 . S
H2495 C2473 0.950 . S
C2496 C2497 1.349 . S
C2496 C2498 1.327 . S
C2496 H2521 0.950 . S
C2497 C2496 1.349 . S
C2497 C2513 1.349 . S
C2498 C2496 1.327 . S
C2498 C2517 1.429 . S
C2498 H2522 0.950 . S
C2499 C2516 1.574 . S
C2499 C2518 1.368 . S
C2499 H2523 0.949 . S
H2500 C2504 0.949 . S
C2501 C2502 1.349 . S
C2501 C2503 1.327 . S
C2501 H2524 0.950 . S
C2502 C2501 1.349 . S
C2502 C2514 1.349 . S
C2503 C2501 1.327 . S
C2503 C2519 1.429 . S
C2503 H2525 0.950 . S
C2504 H2500 0.949 . S
C2504 C2512 1.574 . S
C2504 C2520 1.368 . S
H2505 C2513 0.950 . S
H2506 C2511 0.950 . S
H2507 C2512 0.949 . S
H2508 C2514 0.950 . S
H2509 C2515 0.950 . S
H2510 C2516 0.949 . S
C2511 H2506 0.950 . S
C2511 C2513 1.327 . S
C2511 C2517 1.429 . S
C2512 C2504 1.574 . S
C2512 H2507 0.949 . S
C2512 C2518 1.368 . S
C2513 C2497 1.349 . S
C2513 H2505 0.950 . S
C2513 C2511 1.327 . S
C2514 C2502 1.349 . S
C2514 H2508 0.950 . S
C2514 C2515 1.327 . S
C2515 H2509 0.950 . S
C2515 C2514 1.327 . S
C2515 C2519 1.429 . S
C2516 C2499 1.574 . S
C2516 H2510 0.949 . S
C2516 C2520 1.368 . S
C2517 C2498 1.429 . S
C2517 C2511 1.429 . S
C2517 C2518 1.523 . S
C2518 C2499 1.368 . S
C2518 C2512 1.368 . S
C2518 C2517 1.523 . S
C2519 C2503 1.429 . S
C2519 C2515 1.429 . S
C2519 C2520 1.523 . S
C2520 C2504 1.368 . S
C2520 C2516 1.368 . S
C2520 C2519 1.523 . S
H2521 C2496 0.950 . S
H2522 C2498 0.950 . S
H2523 C2499 0.949 . S
H2524 C2501 0.950 . S
H2525 C2503 0.950 . S
C2526 C2527 1.349 . S
C2526 C2528 1.327 . S
C2526 H2551 0.950 . S
C2527 C2526 1.349 . S
C2527 C2543 1.349 . S
C2528 C2526 1.327 . S
C2528 C2547 1.429 . S
C2528 H2552 0.950 . S
C2529 C2546 1.574 . S
C2529 C2548 1.368 . S
C2529 H2553 0.949 . S
H2530 C2534 0.949 . S
C2531 C2532 1.349 . S
C2531 C2533 1.327 . S
C2531 H2554 0.950 . S
C2532 C2531 1.349 . S
C2532 C2544 1.349 . S
C2533 C2531 1.327 . S
C2533 C2549 1.429 . S
C2533 H2555 0.950 . S
C2534 H2530 0.949 . S
C2534 C2542 1.574 . S
C2534 C2550 1.368 . S
H2535 C2543 0.950 . S
H2536 C2541 0.950 . S
H2537 C2542 0.949 . S
H2538 C2544 0.950 . S
H2539 C2545 0.950 . S
H2540 C2546 0.949 . S
C2541 H2536 0.950 . S
C2541 C2543 1.327 . S
C2541 C2547 1.429 . S
C2542 C2534 1.574 . S
C2542 H2537 0.949 . S
C2542 C2548 1.368 . S
C2543 C2527 1.349 . S
C2543 H2535 0.950 . S
C2543 C2541 1.327 . S
C2544 C2532 1.349 . S
C2544 H2538 0.950 . S
C2544 C2545 1.327 . S
C2545 H2539 0.950 . S
C2545 C2544 1.327 . S
C2545 C2549 1.429 . S
C2546 C2529 1.574 . S
C2546 H2540 0.949 . S
C2546 C2550 1.368 . S
C2547 C2528 1.429 . S
C2547 C2541 1.429 . S
C2547 C2548 1.523 . S
C2548 C2529 1.368 . S
C2548 C2542 1.368 . S
C2548 C2547 1.523 . S
C2549 C2533 1.429 . S
C2549 C2545 1.429 . S
C2549 C2550 1.523 . S
C2550 C2534 1.368 . S
C2550 C2546 1.368 . S
C2550 C2549 1.523 . S
H2551 C2526 0.950 . S
H2552 C2528 0.950 . S
H2553 C2529 0.949 . S
H2554 C2531 0.950 . S
H2555 C2533 0.950 . S
C2556 C2557 1.349 . S
C2556 C2558 1.327 . S
C2556 H2581 0.950 . S
C2557 C2556 1.349 . S
C2557 C2573 1.349 . S
C2558 C2556 1.327 . S
C2558 C2577 1.429 . S
C2558 H2582 0.950 . S
C2559 C2576 1.574 . S
C2559 C2578 1.368 . S
C2559 H2583 0.949 . S
H2560 C2564 0.949 . S
C2561 C2562 1.349 . S
C2561 C2563 1.327 . S
C2561 H2584 0.950 . S
C2562 C2561 1.349 . S
C2562 C2574 1.349 . S
C2563 C2561 1.327 . S
C2563 C2579 1.429 . S
C2563 H2585 0.950 . S
C2564 H2560 0.949 . S
C2564 C2572 1.574 . S
C2564 C2580 1.368 . S
H2565 C2573 0.950 . S
H2566 C2571 0.950 . S
H2567 C2572 0.949 . S
H2568 C2574 0.950 . S
H2569 C2575 0.950 . S
H2570 C2576 0.949 . S
C2571 H2566 0.950 . S
C2571 C2573 1.327 . S
C2571 C2577 1.429 . S
C2572 C2564 1.574 . S
C2572 H2567 0.949 . S
C2572 C2578 1.368 . S
C2573 C2557 1.349 . S
C2573 H2565 0.950 . S
C2573 C2571 1.327 . S
C2574 C2562 1.349 . S
C2574 H2568 0.950 . S
C2574 C2575 1.327 . S
C2575 H2569 0.950 . S
C2575 C2574 1.327 . S
C2575 C2579 1.429 . S
C2576 C2559 1.574 . S
C2576 H2570 0.949 . S
C2576 C2580 1.368 . S
C2577 C2558 1.429 . S
C2577 C2571 1.429 . S
C2577 C2578 1.523 . S
C2578 C2559 1.368 . S
C2578 C2572 1.368 . S
C2578 C2577 1.523 . S
C2579 C2563 1.429 . S
C2579 C2575 1.429 . S
C2579 C2580 1.523 . S
C2580 C2564 1.368 . S
C2580 C2576 1.368 . S
C2580 C2579 1.523 . S
H2581 C2556 0.950 . S
H2582 C2558 0.950 . S
H2583 C2559 0.949 . S
H2584 C2561 0.950 . S
H2585 C2563 0.950 . S
C2586 C2587 1.349 . S
C2586 C2588 1.327 . S
C2586 H2611 0.950 . S
C2587 C2586 1.349 . S
C2587 C2603 1.349 . S
C2588 C2586 1.327 . S
C2588 C2607 1.429 . S
C2588 H2612 0.950 . S
C2589 C2606 1.574 . S
C2589 C2608 1.368 . S
C2589 H2613 0.949 . S
H2590 C2594 0.949 . S
C2591 C2592 1.349 . S
C2591 C2593 1.327 . S
C2591 H2614 0.950 . S
C2592 C2591 1.349 . S
C2592 C2604 1.349 . S
C2593 C2591 1.327 . S
C2593 C2609 1.429 . S
C2593 H2615 0.950 . S
C2594 H2590 0.949 . S
C2594 C2602 1.574 . S
C2594 C2610 1.368 . S
H2595 C2603 0.950 . S
H2596 C2601 0.950 . S
H2597 C2602 0.949 . S
H2598 C2604 0.950 . S
H2599 C2605 0.950 . S
H2600 C2606 0.949 . S
C2601 H2596 0.950 . S
C2601 C2603 1.327 . S
C2601 C2607 1.429 . S
C2602 C2594 1.574 . S
C2602 H2597 0.949 . S
C2602 C2608 1.368 . S
C2603 C2587 1.349 . S
C2603 H2595 0.950 . S
C2603 C2601 1.327 . S
C2604 C2592 1.349 . S
C2604 H2598 0.950 . S
C2604 C2605 1.327 . S
C2605 H2599 0.950 . S
C2605 C2604 1.327 . S
C2605 C2609 1.429 . S
C2606 C2589 1.574 . S
C2606 H2600 0.949 . S
C2606 C2610 1.368 . S
C2607 C2588 1.429 . S
C2607 C2601 1.429 . S
C2607 C2608 1.523 . S
C2608 C2589 1.368 . S
C2608 C2602 1.368 . S
C2608 C2607 1.523 . S
C2609 C2593 1.429 . S
C2609 C2605 1.429 . S
C2609 C2610 1.523 . S
C2610 C2594 1.368 . S
C2610 C2606 1.368 . S
C2610 C2609 1.523 . S
H2611 C2586 0.950 . S
H2612 C2588 0.950 . S
H2613 C2589 0.949 . S
H2614 C2591 0.950 . S
H2615 C2593 0.950 . S
C2616 C2617 1.349 . S
C2616 C2618 1.327 . S
C2616 H2641 0.950 . S
C2617 C2616 1.349 . S
C2617 C2633 1.349 . S
C2618 C2616 1.327 . S
C2618 C2637 1.429 . S
C2618 H2642 0.950 . S
C2619 C2636 1.574 . S
C2619 C2638 1.368 . S
C2619 H2643 0.949 . S
H2620 C2624 0.949 . S
C2621 C2622 1.349 . S
C2621 C2623 1.327 . S
C2621 H2644 0.950 . S
C2622 C2621 1.349 . S
C2622 C2634 1.349 . S
C2623 C2621 1.327 . S
C2623 C2639 1.429 . S
C2623 H2645 0.950 . S
C2624 H2620 0.949 . S
C2624 C2632 1.574 . S
C2624 C2640 1.368 . S
H2625 C2633 0.950 . S
H2626 C2631 0.950 . S
H2627 C2632 0.949 . S
H2628 C2634 0.950 . S
H2629 C2635 0.950 . S
H2630 C2636 0.949 . S
C2631 H2626 0.950 . S
C2631 C2633 1.327 . S
C2631 C2637 1.429 . S
C2632 C2624 1.574 . S
C2632 H2627 0.949 . S
C2632 C2638 1.368 . S
C2633 C2617 1.349 . S
C2633 H2625 0.950 . S
C2633 C2631 1.327 . S
C2634 C2622 1.349 . S
C2634 H2628 0.950 . S
C2634 C2635 1.327 . S
C2635 H2629 0.950 . S
C2635 C2634 1.327 . S
C2635 C2639 1.429 . S
C2636 C2619 1.574 . S
C2636 H2630 0.949 . S
C2636 C2640 1.368 . S
C2637 C2618 1.429 . S
C2637 C2631 1.429 . S
C2637 C2638 1.523 . S
C2638 C2619 1.368 . S
C2638 C2632 1.368 . S
C2638 C2637 1.523 . S
C2639 C2623 1.429 . S
C2639 C2635 1.429 . S
C2639 C2640 1.523 . S
C2640 C2624 1.368 . S
C2640 C2636 1.368 . S
C2640 C2639 1.523 . S
H2641 C2616 0.950 . S
H2642 C2618 0.950 . S
H2643 C2619 0.949 . S
H2644 C2621 0.950 . S
H2645 C2623 0.950 . S
C2646 C2647 1.349 . S
C2646 C2648 1.327 . S
C2646 H2671 0.950 . S
C2647 C2646 1.349 . S
C2647 C2663 1.349 . S
C2648 C2646 1.327 . S
C2648 C2667 1.429 . S
C2648 H2672 0.950 . S
C2649 C2666 1.574 . S
C2649 C2668 1.368 . S
C2649 H2673 0.949 . S
H2650 C2654 0.949 . S
C2651 C2652 1.349 . S
C2651 C2653 1.327 . S
C2651 H2674 0.950 . S
C2652 C2651 1.349 . S
C2652 C2664 1.349 . S
C2653 C2651 1.327 . S
C2653 C2669 1.429 . S
C2653 H2675 0.950 . S
C2654 H2650 0.949 . S
C2654 C2662 1.574 . S
C2654 C2670 1.368 . S
H2655 C2663 0.950 . S
H2656 C2661 0.950 . S
H2657 C2662 0.949 . S
H2658 C2664 0.950 . S
H2659 C2665 0.950 . S
H2660 C2666 0.949 . S
C2661 H2656 0.950 . S
C2661 C2663 1.327 . S
C2661 C2667 1.429 . S
C2662 C2654 1.574 . S
C2662 H2657 0.949 . S
C2662 C2668 1.368 . S
C2663 C2647 1.349 . S
C2663 H2655 0.950 . S
C2663 C2661 1.327 . S
C2664 C2652 1.349 . S
C2664 H2658 0.950 . S
C2664 C2665 1.327 . S
C2665 H2659 0.950 . S
C2665 C2664 1.327 . S
C2665 C2669 1.429 . S
C2666 C2649 1.574 . S
C2666 H2660 0.949 . S
C2666 C2670 1.368 . S
C2667 C2648 1.429 . S
C2667 C2661 1.429 . S
C2667 C2668 1.523 . S
C2668 C2649 1.368 . S
C2668 C2662 1.368 . S
C2668 C2667 1.523 . S
C2669 C2653 1.429 . S
C2669 C2665 1.429 . S
C2669 C2670 1.523 . S
C2670 C2654 1.368 . S
C2670 C2666 1.368 . S
C2670 C2669 1.523 . S
H2671 C2646 0.950 . S
H2672 C2648 0.950 . S
H2673 C2649 0.949 . S
H2674 C2651 0.950 . S
H2675 C2653 0.950 . S
C2676 C2677 1.349 . S
C2676 C2678 1.327 . S
C2676 H2701 0.950 . S
C2677 C2676 1.349 . S
C2677 C2693 1.349 . S
C2678 C2676 1.327 . S
C2678 C2697 1.429 . S
C2678 H2702 0.950 . S
C2679 C2696 1.574 . S
C2679 C2698 1.368 . S
C2679 H2703 0.949 . S
H2680 C2684 0.949 . S
C2681 C2682 1.349 . S
C2681 C2683 1.327 . S
C2681 H2704 0.950 . S
C2682 C2681 1.349 . S
C2682 C2694 1.349 . S
C2683 C2681 1.327 . S
C2683 C2699 1.429 . S
C2683 H2705 0.950 . S
C2684 H2680 0.949 . S
C2684 C2692 1.574 . S
C2684 C2700 1.368 . S
H2685 C2693 0.950 . S
H2686 C2691 0.950 . S
H2687 C2692 0.949 . S
H2688 C2694 0.950 . S
H2689 C2695 0.950 . S
H2690 C2696 0.949 . S
C2691 H2686 0.950 . S
C2691 C2693 1.327 . S
C2691 C2697 1.429 . S
C2692 C2684 1.574 . S
C2692 H2687 0.949 . S
C2692 C2698 1.368 . S
C2693 C2677 1.349 . S
C2693 H2685 0.950 . S
C2693 C2691 1.327 . S
C2694 C2682 1.349 . S
C2694 H2688 0.950 . S
C2694 C2695 1.327 . S
C2695 H2689 0.950 . S
C2695 C2694 1.327 . S
C2695 C2699 1.429 . S
C2696 C2679 1.574 . S
C2696 H2690 0.949 . S
C2696 C2700 1.368 . S
C2697 C2678 1.429 . S
C2697 C2691 1.429 . S
C2697 C2698 1.523 . S
C2698 C2679 1.368 . S
C2698 C2692 1.368 . S
C2698 C2697 1.523 . S
C2699 C2683 1.429 . S
C2699 C2695 1.429 . S
C2699 C2700 1.523 . S
C2700 C2684 1.368 . S
C2700 C2696 1.368 . S
C2700 C2699 1.523 . S
H2701 C2676 0.950 . S
H2702 C2678 0.950 . S
H2703 C2679 0.949 . S
H2704 C2681 0.950 . S
H2705 C2683 0.950 . S
C2706 C2707 1.349 . S
C2706 C2708 1.327 . S
C2706 H2731 0.950 . S
C2707 C2706 1.349 . S
C2707 C2723 1.349 . S
C2708 C2706 1.327 . S
C2708 C2727 1.429 . S
C2708 H2732 0.950 . S
C2709 C2726 1.574 . S
C2709 C2728 1.368 . S
C2709 H2733 0.949 . S
H2710 C2714 0.949 . S
C2711 C2712 1.349 . S
C2711 C2713 1.327 . S
C2711 H2734 0.950 . S
C2712 C2711 1.349 . S
C2712 C2724 1.349 . S
C2713 C2711 1.327 . S
C2713 C2729 1.429 . S
C2713 H2735 0.950 . S
C2714 H2710 0.949 . S
C2714 C2722 1.574 . S
C2714 C2730 1.368 . S
H2715 C2723 0.950 . S
H2716 C2721 0.950 . S
H2717 C2722 0.949 . S
H2718 C2724 0.950 . S
H2719 C2725 0.950 . S
H2720 C2726 0.949 . S
C2721 H2716 0.950 . S
C2721 C2723 1.327 . S
C2721 C2727 1.429 . S
C2722 C2714 1.574 . S
C2722 H2717 0.949 . S
C2722 C2728 1.368 . S
C2723 C2707 1.349 . S
C2723 H2715 0.950 . S
C2723 C2721 1.327 . S
C2724 C2712 1.349 . S
C2724 H2718 0.950 . S
C2724 C2725 1.327 . S
C2725 H2719 0.950 . S
C2725 C2724 1.327 . S
C2725 C2729 1.429 . S
C2726 C2709 1.574 . S
C2726 H2720 0.949 . S
C2726 C2730 1.368 . S
C2727 C2708 1.429 . S
C2727 C2721 1.429 . S
C2727 C2728 1.523 . S
C2728 C2709 1.368 . S
C2728 C2722 1.368 . S
C2728 C2727 1.523 . S
C2729 C2713 1.429 . S
C2729 C2725 1.429 . S
C2729 C2730 1.523 . S
C2730 C2714 1.368 . S
C2730 C2726 1.368 . S
C2730 C2729 1.523 . S
H2731 C2706 0.950 . S
H2732 C2708 0.950 . S
H2733 C2709 0.949 . S
H2734 C2711 0.950 . S
H2735 C2713 0.950 . S
C2736 C2737 1.349 . S
C2736 C2738 1.327 . S
C2736 H2761 0.950 . S
C2737 C2736 1.349 . S
C2737 C2753 1.349 . S
C2738 C2736 1.327 . S
C2738 C2757 1.429 . S
C2738 H2762 0.950 . S
C2739 C2756 1.574 . S
C2739 C2758 1.368 . S
C2739 H2763 0.949 . S
H2740 C2744 0.949 . S
C2741 C2742 1.349 . S
C2741 C2743 1.327 . S
C2741 H2764 0.950 . S
C2742 C2741 1.349 . S
C2742 C2754 1.349 . S
C2743 C2741 1.327 . S
C2743 C2759 1.429 . S
C2743 H2765 0.950 . S
C2744 H2740 0.949 . S
C2744 C2752 1.574 . S
C2744 C2760 1.368 . S
H2745 C2753 0.950 . S
H2746 C2751 0.950 . S
H2747 C2752 0.949 . S
H2748 C2754 0.950 . S
H2749 C2755 0.950 . S
H2750 C2756 0.949 . S
C2751 H2746 0.950 . S
C2751 C2753 1.327 . S
C2751 C2757 1.429 . S
C2752 C2744 1.574 . S
C2752 H2747 0.949 . S
C2752 C2758 1.368 . S
C2753 C2737 1.349 . S
C2753 H2745 0.950 . S
C2753 C2751 1.327 . S
C2754 C2742 1.349 . S
C2754 H2748 0.950 . S
C2754 C2755 1.327 . S
C2755 H2749 0.950 . S
C2755 C2754 1.327 . S
C2755 C2759 1.429 . S
C2756 C2739 1.574 . S
C2756 H2750 0.949 . S
C2756 C2760 1.368 . S
C2757 C2738 1.429 . S
C2757 C2751 1.429 . S
C2757 C2758 1.523 . S
C2758 C2739 1.368 . S
C2758 C2752 1.368 . S
C2758 C2757 1.523 . S
C2759 C2743 1.429 . S
C2759 C2755 1.429 . S
C2759 C2760 1.523 . S
C2760 C2744 1.368 . S
C2760 C2756 1.368 . S
C2760 C2759 1.523 . S
H2761 C2736 0.950 . S
H2762 C2738 0.950 . S
H2763 C2739 0.949 . S
H2764 C2741 0.950 . S
H2765 C2743 0.950 . S
C2766 C2767 1.349 . S
C2766 C2768 1.327 . S
C2766 H2791 0.950 . S
C2767 C2766 1.349 . S
C2767 C2783 1.349 . S
C2768 C2766 1.327 . S
C2768 C2787 1.429 . S
C2768 H2792 0.950 . S
C2769 C2786 1.574 . S
C2769 C2788 1.368 . S
C2769 H2793 0.949 . S
H2770 C2774 0.949 . S
C2771 C2772 1.349 . S
C2771 C2773 1.327 . S
C2771 H2794 0.950 . S
C2772 C2771 1.349 . S
C2772 C2784 1.349 . S
C2773 C2771 1.327 . S
C2773 C2789 1.429 . S
C2773 H2795 0.950 . S
C2774 H2770 0.949 . S
C2774 C2782 1.574 . S
C2774 C2790 1.368 . S
H2775 C2783 0.950 . S
H2776 C2781 0.950 . S
H2777 C2782 0.949 . S
H2778 C2784 0.950 . S
H2779 C2785 0.950 . S
H2780 C2786 0.949 . S
C2781 H2776 0.950 . S
C2781 C2783 1.327 . S
C2781 C2787 1.429 . S
C2782 C2774 1.574 . S
C2782 H2777 0.949 . S
C2782 C2788 1.368 . S
C2783 C2767 1.349 . S
C2783 H2775 0.950 . S
C2783 C2781 1.327 . S
C2784 C2772 1.349 . S
C2784 H2778 0.950 . S
C2784 C2785 1.327 . S
C2785 H2779 0.950 . S
C2785 C2784 1.327 . S
C2785 C2789 1.429 . S
C2786 C2769 1.574 . S
C2786 H2780 0.949 . S
C2786 C2790 1.368 . S
C2787 C2768 1.429 . S
C2787 C2781 1.429 . S
C2787 C2788 1.523 . S
C2788 C2769 1.368 . S
C2788 C2782 1.368 . S
C2788 C2787 1.523 . S
C2789 C2773 1.429 . S
C2789 C2785 1.429 . S
C2789 C2790 1.523 . S
C2790 C2774 1.368 . S
C2790 C2786 1.368 . S
C2790 C2789 1.523 . S
H2791 C2766 0.950 . S
H2792 C2768 0.950 . S
H2793 C2769 0.949 . S
H2794 C2771 0.950 . S
H2795 C2773 0.950 . S
C2796 C2797 1.349 . S
C2796 C2798 1.327 . S
C2796 H2821 0.950 . S
C2797 C2796 1.349 . S
C2797 C2813 1.349 . S
C2798 C2796 1.327 . S
C2798 C2817 1.429 . S
C2798 H2822 0.950 . S
C2799 C2816 1.574 . S
C2799 C2818 1.368 . S
C2799 H2823 0.949 . S
H2800 C2804 0.949 . S
C2801 C2802 1.349 . S
C2801 C2803 1.327 . S
C2801 H2824 0.950 . S
C2802 C2801 1.349 . S
C2802 C2814 1.349 . S
C2803 C2801 1.327 . S
C2803 C2819 1.429 . S
C2803 H2825 0.950 . S
C2804 H2800 0.949 . S
C2804 C2812 1.574 . S
C2804 C2820 1.368 . S
H2805 C2813 0.950 . S
H2806 C2811 0.950 . S
H2807 C2812 0.949 . S
H2808 C2814 0.950 . S
H2809 C2815 0.950 . S
H2810 C2816 0.949 . S
C2811 H2806 0.950 . S
C2811 C2813 1.327 . S
C2811 C2817 1.429 . S
C2812 C2804 1.574 . S
C2812 H2807 0.949 . S
C2812 C2818 1.368 . S
C2813 C2797 1.349 . S
C2813 H2805 0.950 . S
C2813 C2811 1.327 . S
C2814 C2802 1.349 . S
C2814 H2808 0.950 . S
C2814 C2815 1.327 . S
C2815 H2809 0.950 . S
C2815 C2814 1.327 . S
C2815 C2819 1.429 . S
C2816 C2799 1.574 . S
C2816 H2810 0.949 . S
C2816 C2820 1.368 . S
C2817 C2798 1.429 . S
C2817 C2811 1.429 . S
C2817 C2818 1.523 . S
C2818 C2799 1.368 . S
C2818 C2812 1.368 . S
C2818 C2817 1.523 . S
C2819 C2803 1.429 . S
C2819 C2815 1.429 . S
C2819 C2820 1.523 . S
C2820 C2804 1.368 . S
C2820 C2816 1.368 . S
C2820 C2819 1.523 . S
H2821 C2796 0.950 . S
H2822 C2798 0.950 . S
H2823 C2799 0.949 . S
H2824 C2801 0.950 . S
H2825 C2803 0.950 . S
C2826 C2827 1.349 . S
C2826 C2828 1.327 . S
C2826 H2851 0.950 . S
C2827 C2826 1.349 . S
C2827 C2843 1.349 . S
C2828 C2826 1.327 . S
C2828 C2847 1.429 . S
C2828 H2852 0.950 . S
C2829 C2846 1.574 . S
C2829 C2848 1.368 . S
C2829 H2853 0.949 . S
H2830 C2834 0.949 . S
C2831 C2832 1.349 . S
C2831 C2833 1.327 . S
C2831 H2854 0.950 . S
C2832 C2831 1.349 . S
C2832 C2844 1.349 . S
C2833 C2831 1.327 . S
C2833 C2849 1.429 . S
C2833 H2855 0.950 . S
C2834 H2830 0.949 . S
C2834 C2842 1.574 . S
C2834 C2850 1.368 . S
H2835 C2843 0.950 . S
H2836 C2841 0.950 . S
H2837 C2842 0.949 . S
H2838 C2844 0.950 . S
H2839 C2845 0.950 . S
H2840 C2846 0.949 . S
C2841 H2836 0.950 . S
C2841 C2843 1.327 . S
C2841 C2847 1.429 . S
C2842 C2834 1.574 . S
C2842 H2837 0.949 . S
C2842 C2848 1.368 . S
C2843 C2827 1.349 . S
C2843 H2835 0.950 . S
C2843 C2841 1.327 . S
C2844 C2832 1.349 . S
C2844 H2838 0.950 . S
C2844 C2845 1.327 . S
C2845 H2839 0.950 . S
C2845 C2844 1.327 . S
C2845 C2849 1.429 . S
C2846 C2829 1.574 . S
C2846 H2840 0.949 . S
C2846 C2850 1.368 . S
C2847 C2828 1.429 . S
C2847 C2841 1.429 . S
C2847 C2848 1.523 . S
C2848 C2829 1.368 . S
C2848 C2842 1.368 . S
C2848 C2847 1.523 . S
C2849 C2833 1.429 . S
C2849 C2845 1.429 . S
C2849 C2850 1.523 . S
C2850 C2834 1.368 . S
C2850 C2846 1.368 . S
C2850 C2849 1.523 . S
H2851 C2826 0.950 . S
H2852 C2828 0.950 . S
H2853 C2829 0.949 . S
H2854 C2831 0.950 . S
H2855 C2833 0.950 . S
C2856 C2857 1.349 . S
C2856 C2858 1.327 . S
C2856 H2881 0.950 . S
C2857 C2856 1.349 . S
C2857 C2873 1.349 . S
C2858 C2856 1.327 . S
C2858 C2877 1.429 . S
C2858 H2882 0.950 . S
C2859 C2876 1.573 . S
C2859 C2878 1.369 1_455 S
C2859 H2883 0.949 1_455 S
H2860 C2864 0.949 1_455 S
C2861 C2862 1.349 . S
C2861 C2863 1.327 . S
C2861 H2884 0.950 . S
C2862 C2861 1.349 . S
C2862 C2874 1.349 . S
C2863 C2861 1.327 . S
C2863 C2879 1.429 . S
C2863 H2885 0.950 . S
C2864 H2860 0.949 1_655 S
C2864 C2872 1.573 . S
C2864 C2880 1.369 1_655 S
H2865 C2873 0.950 . S
H2866 C2871 0.950 . S
H2867 C2872 0.949 . S
H2868 C2874 0.950 . S
H2869 C2875 0.950 . S
H2870 C2876 0.949 . S
C2871 H2866 0.950 . S
C2871 C2873 1.327 . S
C2871 C2877 1.429 . S
C2872 C2864 1.573 . S
C2872 H2867 0.949 . S
C2872 C2878 1.368 . S
C2873 C2857 1.349 . S
C2873 H2865 0.950 . S
C2873 C2871 1.327 . S
C2874 C2862 1.349 . S
C2874 H2868 0.950 . S
C2874 C2875 1.327 . S
C2875 H2869 0.950 . S
C2875 C2874 1.327 . S
C2875 C2879 1.429 . S
C2876 C2859 1.573 . S
C2876 H2870 0.949 . S
C2876 C2880 1.368 . S
C2877 C2858 1.429 . S
C2877 C2871 1.429 . S
C2877 C2878 1.523 . S
C2878 C2859 1.369 1_655 S
C2878 C2872 1.368 . S
C2878 C2877 1.523 . S
C2879 C2863 1.429 . S
C2879 C2875 1.429 . S
C2879 C2880 1.523 . S
C2880 C2864 1.369 1_455 S
C2880 C2876 1.368 . S
C2880 C2879 1.523 . S
H2881 C2856 0.950 . S
H2882 C2858 0.950 . S
H2883 C2859 0.949 1_655 S
H2884 C2861 0.950 . S
H2885 C2863 0.950 . S
C2886 C2887 1.349 . S
C2886 C2888 1.327 . S
C2886 H2911 0.950 . S
C2887 C2886 1.349 . S
C2887 C2903 1.349 . S
C2888 C2886 1.327 . S
C2888 C2907 1.429 . S
C2888 H2912 0.950 . S
C2889 C2906 1.574 1_565 S
C2889 C2908 1.368 . S
C2889 H2913 0.949 . S
H2890 C2894 0.949 . S
C2891 C2892 1.349 . S
C2891 C2893 1.327 . S
C2891 H2914 0.950 . S
C2892 C2891 1.349 . S
C2892 C2904 1.349 . S
C2893 C2891 1.327 . S
C2893 C2909 1.429 . S
C2893 H2915 0.950 . S
C2894 H2890 0.949 . S
C2894 C2902 1.574 1_545 S
C2894 C2910 1.368 . S
H2895 C2903 0.950 . S
H2896 C2901 0.950 . S
H2897 C2902 0.949 . S
H2898 C2904 0.950 . S
H2899 C2905 0.950 . S
H2900 C2906 0.949 . S
C2901 H2896 0.950 . S
C2901 C2903 1.327 . S
C2901 C2907 1.429 . S
C2902 C2894 1.574 1_565 S
C2902 H2897 0.949 . S
C2902 C2908 1.368 . S
C2903 C2887 1.349 . S
C2903 H2895 0.950 . S
C2903 C2901 1.327 . S
C2904 C2892 1.349 . S
C2904 H2898 0.950 . S
C2904 C2905 1.327 . S
C2905 H2899 0.950 . S
C2905 C2904 1.327 . S
C2905 C2909 1.429 . S
C2906 C2889 1.574 1_545 S
C2906 H2900 0.949 . S
C2906 C2910 1.368 . S
C2907 C2888 1.429 . S
C2907 C2901 1.429 . S
C2907 C2908 1.523 . S
C2908 C2889 1.368 . S
C2908 C2902 1.368 . S
C2908 C2907 1.523 . S
C2909 C2893 1.429 . S
C2909 C2905 1.429 . S
C2909 C2910 1.523 . S
C2910 C2894 1.368 . S
C2910 C2906 1.368 . S
C2910 C2909 1.523 . S
H2911 C2886 0.950 . S
H2912 C2888 0.950 . S
H2913 C2889 0.949 . S
H2914 C2891 0.950 . S
H2915 C2893 0.950 . S
C2916 C2917 1.349 . S
C2916 C2918 1.327 . S
C2916 H2941 0.950 . S
C2917 C2916 1.349 . S
C2917 C2933 1.349 . S
C2918 C2916 1.327 . S
C2918 C2937 1.429 . S
C2918 H2942 0.950 . S
C2919 C2936 1.574 1_655 S
C2919 C2938 1.368 . S
C2919 H2943 0.949 . S
H2920 C2924 0.949 . S
C2921 C2922 1.349 . S
C2921 C2923 1.327 . S
C2921 H2944 0.950 . S
C2922 C2921 1.349 . S
C2922 C2934 1.349 . S
C2923 C2921 1.327 . S
C2923 C2939 1.429 . S
C2923 H2945 0.950 . S
C2924 H2920 0.949 . S
C2924 C2932 1.574 1_455 S
C2924 C2940 1.368 . S
H2925 C2933 0.950 . S
H2926 C2931 0.950 . S
H2927 C2932 0.949 . S
H2928 C2934 0.950 . S
H2929 C2935 0.950 . S
H2930 C2936 0.949 . S
C2931 H2926 0.950 . S
C2931 C2933 1.327 . S
C2931 C2937 1.429 . S
C2932 C2924 1.574 1_655 S
C2932 H2927 0.949 . S
C2932 C2938 1.368 . S
C2933 C2917 1.349 . S
C2933 H2925 0.950 . S
C2933 C2931 1.327 . S
C2934 C2922 1.349 . S
C2934 H2928 0.950 . S
C2934 C2935 1.327 . S
C2935 H2929 0.950 . S
C2935 C2934 1.327 . S
C2935 C2939 1.429 . S
C2936 C2919 1.574 1_455 S
C2936 H2930 0.949 . S
C2936 C2940 1.368 . S
C2937 C2918 1.429 . S
C2937 C2931 1.429 . S
C2937 C2938 1.523 . S
C2938 C2919 1.368 . S
C2938 C2932 1.368 . S
C2938 C2937 1.523 . S
C2939 C2923 1.429 . S
C2939 C2935 1.429 . S
C2939 C2940 1.523 . S
C2940 C2924 1.368 . S
C2940 C2936 1.368 . S
C2940 C2939 1.523 . S
H2941 C2916 0.950 . S
H2942 C2918 0.950 . S
H2943 C2919 0.949 . S
H2944 C2921 0.950 . S
H2945 C2923 0.950 . S
C2946 C2947 1.349 . S
C2946 C2948 1.327 . S
C2946 H2971 0.950 . S
C2947 C2946 1.349 . S
C2947 C2963 1.349 . S
C2948 C2946 1.327 . S
C2948 C2967 1.429 . S
C2948 H2972 0.950 . S
C2949 C2966 1.574 1_565 S
C2949 C2968 1.368 . S
C2949 H2973 0.949 . S
H2950 C2954 0.949 . S
C2951 C2952 1.349 . S
C2951 C2953 1.327 . S
C2951 H2974 0.950 . S
C2952 C2951 1.349 . S
C2952 C2964 1.349 . S
C2953 C2951 1.327 . S
C2953 C2969 1.429 . S
C2953 H2975 0.950 . S
C2954 H2950 0.949 . S
C2954 C2962 1.574 1_545 S
C2954 C2970 1.368 . S
H2955 C2963 0.950 . S
H2956 C2961 0.950 . S
H2957 C2962 0.949 . S
H2958 C2964 0.950 . S
H2959 C2965 0.950 . S
H2960 C2966 0.949 . S
C2961 H2956 0.950 . S
C2961 C2963 1.327 . S
C2961 C2967 1.429 . S
C2962 C2954 1.574 1_565 S
C2962 H2957 0.949 . S
C2962 C2968 1.368 . S
C2963 C2947 1.349 . S
C2963 H2955 0.950 . S
C2963 C2961 1.327 . S
C2964 C2952 1.349 . S
C2964 H2958 0.950 . S
C2964 C2965 1.327 . S
C2965 H2959 0.950 . S
C2965 C2964 1.327 . S
C2965 C2969 1.429 . S
C2966 C2949 1.574 1_545 S
C2966 H2960 0.949 . S
C2966 C2970 1.368 . S
C2967 C2948 1.429 . S
C2967 C2961 1.429 . S
C2967 C2968 1.523 . S
C2968 C2949 1.368 . S
C2968 C2962 1.368 . S
C2968 C2967 1.523 . S
C2969 C2953 1.429 . S
C2969 C2965 1.429 . S
C2969 C2970 1.523 . S
C2970 C2954 1.368 . S
C2970 C2966 1.368 . S
C2970 C2969 1.523 . S
H2971 C2946 0.950 . S
H2972 C2948 0.950 . S
H2973 C2949 0.949 . S
H2974 C2951 0.950 . S
H2975 C2953 0.950 . S
C2976 C2977 1.349 . S
C2976 C2978 1.327 . S
C2976 H3001 0.950 . S
C2977 C2976 1.349 . S
C2977 C2993 1.349 . S
C2978 C2976 1.327 . S
C2978 C2997 1.429 . S
C2978 H3002 0.950 . S
C2979 C2996 1.573 . S
C2979 C2998 1.368 . S
C2979 H3003 0.949 . S
H2980 C2984 0.949 . S
C2981 C2982 1.349 . S
C2981 C2983 1.327 . S
C2981 H3004 0.950 . S
C2982 C2981 1.349 . S
C2982 C2994 1.349 . S
C2983 C2981 1.327 . S
C2983 C2999 1.429 . S
C2983 H3005 0.950 . S
C2984 H2980 0.949 . S
C2984 C2992 1.573 . S
C2984 C3000 1.368 . S
H2985 C2993 0.950 . S
H2986 C2991 0.950 . S
H2987 C2992 0.949 1_655 S
H2988 C2994 0.950 . S
H2989 C2995 0.950 . S
H2990 C2996 0.949 1_455 S
C2991 H2986 0.950 . S
C2991 C2993 1.327 . S
C2991 C2997 1.429 . S
C2992 C2984 1.573 . S
C2992 H2987 0.949 1_455 S
C2992 C2998 1.369 1_455 S
C2993 C2977 1.349 . S
C2993 H2985 0.950 . S
C2993 C2991 1.327 . S
C2994 C2982 1.349 . S
C2994 H2988 0.950 . S
C2994 C2995 1.327 . S
C2995 H2989 0.950 . S
C2995 C2994 1.327 . S
C2995 C2999 1.429 . S
C2996 C2979 1.573 . S
C2996 H2990 0.949 1_655 S
C2996 C3000 1.369 1_655 S
C2997 C2978 1.429 . S
C2997 C2991 1.429 . S
C2997 C2998 1.523 . S
C2998 C2979 1.368 . S
C2998 C2992 1.369 1_655 S
C2998 C2997 1.523 . S
C2999 C2983 1.429 . S
C2999 C2995 1.429 . S
C2999 C3000 1.523 . S
C3000 C2984 1.368 . S
C3000 C2996 1.369 1_455 S
C3000 C2999 1.523 . S
H3001 C2976 0.950 . S
H3002 C2978 0.950 . S
H3003 C2979 0.949 . S
H3004 C2981 0.950 . S
H3005 C2983 0.950 . S
C3006 C3007 1.349 . S
C3006 C3008 1.327 . S
C3006 H3031 0.950 . S
C3007 C3006 1.349 . S
C3007 C3023 1.349 . S
C3008 C3006 1.327 . S
C3008 C3027 1.429 . S
C3008 H3032 0.950 . S
C3009 C3026 1.574 1_565 S
C3009 C3028 1.368 . S
C3009 H3033 0.949 . S
H3010 C3014 0.949 . S
C3011 C3012 1.349 . S
C3011 C3013 1.327 . S
C3011 H3034 0.950 . S
C3012 C3011 1.349 . S
C3012 C3024 1.349 . S
C3013 C3011 1.327 . S
C3013 C3029 1.429 . S
C3013 H3035 0.950 . S
C3014 H3010 0.949 . S
C3014 C3022 1.574 1_545 S
C3014 C3030 1.368 . S
H3015 C3023 0.950 . S
H3016 C3021 0.950 . S
H3017 C3022 0.949 . S
H3018 C3024 0.950 . S
H3019 C3025 0.950 . S
H3020 C3026 0.949 . S
C3021 H3016 0.950 . S
C3021 C3023 1.327 . S
C3021 C3027 1.429 . S
C3022 C3014 1.574 1_565 S
C3022 H3017 0.949 . S
C3022 C3028 1.368 . S
C3023 C3007 1.349 . S
C3023 H3015 0.950 . S
C3023 C3021 1.327 . S
C3024 C3012 1.349 . S
C3024 H3018 0.950 . S
C3024 C3025 1.327 . S
C3025 H3019 0.950 . S
C3025 C3024 1.327 . S
C3025 C3029 1.429 . S
C3026 C3009 1.574 1_545 S
C3026 H3020 0.949 . S
C3026 C3030 1.368 . S
C3027 C3008 1.429 . S
C3027 C3021 1.429 . S
C3027 C3028 1.523 . S
C3028 C3009 1.368 . S
C3028 C3022 1.368 . S
C3028 C3027 1.523 . S
C3029 C3013 1.429 . S
C3029 C3025 1.429 . S
C3029 C3030 1.523 . S
C3030 C3014 1.368 . S
C3030 C3026 1.368 . S
C3030 C3029 1.523 . S
H3031 C3006 0.950 . S
H3032 C3008 0.950 . S
H3033 C3009 0.949 . S
H3034 C3011 0.950 . S
H3035 C3013 0.950 . S
C3036 C3037 1.349 . S
C3036 C3038 1.327 . S
C3036 H3061 0.950 . S
C3037 C3036 1.349 . S
C3037 C3053 1.349 . S
C3038 C3036 1.327 . S
C3038 C3057 1.429 . S
C3038 H3062 0.950 . S
C3039 C3056 1.574 1_655 S
C3039 C3058 1.368 . S
C3039 H3063 0.949 . S
H3040 C3044 0.949 . S
C3041 C3042 1.349 . S
C3041 C3043 1.327 . S
C3041 H3064 0.950 . S
C3042 C3041 1.349 . S
C3042 C3054 1.349 . S
C3043 C3041 1.327 . S
C3043 C3059 1.429 . S
C3043 H3065 0.950 . S
C3044 H3040 0.949 . S
C3044 C3052 1.574 1_455 S
C3044 C3060 1.368 . S
H3045 C3053 0.950 . S
H3046 C3051 0.950 . S
H3047 C3052 0.949 . S
H3048 C3054 0.950 . S
H3049 C3055 0.950 . S
H3050 C3056 0.949 . S
C3051 H3046 0.950 . S
C3051 C3053 1.327 . S
C3051 C3057 1.429 . S
C3052 C3044 1.574 1_655 S
C3052 H3047 0.949 . S
C3052 C3058 1.368 . S
C3053 C3037 1.349 . S
C3053 H3045 0.950 . S
C3053 C3051 1.327 . S
C3054 C3042 1.349 . S
C3054 H3048 0.950 . S
C3054 C3055 1.327 . S
C3055 H3049 0.950 . S
C3055 C3054 1.327 . S
C3055 C3059 1.429 . S
C3056 C3039 1.574 1_455 S
C3056 H3050 0.949 . S
C3056 C3060 1.368 . S
C3057 C3038 1.429 . S
C3057 C3051 1.429 . S
C3057 C3058 1.523 . S
C3058 C3039 1.368 . S
C3058 C3052 1.368 . S
C3058 C3057 1.523 . S
C3059 C3043 1.429 . S
C3059 C3055 1.429 . S
C3059 C3060 1.523 . S
C3060 C3044 1.368 . S
C3060 C3056 1.368 . S
C3060 C3059 1.523 . S
H3061 C3036 0.950 . S
H3062 C3038 0.950 . S
H3063 C3039 0.949 . S
H3064 C3041 0.950 . S
H3065 C3043 0.950 . S
C3066 C3067 1.349 . S
C3066 C3068 1.327 . S
C3066 H3091 0.950 . S
C3067 C3066 1.349 . S
C3067 C3083 1.349 . S
C3068 C3066 1.327 . S
C3068 C3087 1.429 . S
C3068 H3092 0.950 . S
C3069 C3086 1.574 1_565 S
C3069 C3088 1.368 . S
C3069 H3093 0.949 . S
H3070 C3074 0.949 . S
C3071 C3072 1.349 . S
C3071 C3073 1.327 . S
C3071 H3094 0.950 . S
C3072 C3071 1.349 . S
C3072 C3084 1.349 . S
C3073 C3071 1.327 . S
C3073 C3089 1.429 . S
C3073 H3095 0.950 . S
C3074 H3070 0.949 . S
C3074 C3082 1.574 1_545 S
C3074 C3090 1.368 . S
H3075 C3083 0.950 . S
H3076 C3081 0.950 . S
H3077 C3082 0.949 . S
H3078 C3084 0.950 . S
H3079 C3085 0.950 . S
H3080 C3086 0.949 . S
C3081 H3076 0.950 . S
C3081 C3083 1.327 . S
C3081 C3087 1.429 . S
C3082 C3074 1.574 1_565 S
C3082 H3077 0.949 . S
C3082 C3088 1.368 . S
C3083 C3067 1.349 . S
C3083 H3075 0.950 . S
C3083 C3081 1.327 . S
C3084 C3072 1.349 . S
C3084 H3078 0.950 . S
C3084 C3085 1.327 . S
C3085 H3079 0.950 . S
C3085 C3084 1.327 . S
C3085 C3089 1.429 . S
C3086 C3069 1.574 1_545 S
C3086 H3080 0.949 . S
C3086 C3090 1.368 . S
C3087 C3068 1.429 . S
C3087 C3081 1.429 . S
C3087 C3088 1.523 . S
C3088 C3069 1.368 . S
C3088 C3082 1.368 . S
C3088 C3087 1.523 . S
C3089 C3073 1.429 . S
C3089 C3085 1.429 . S
C3089 C3090 1.523 . S
C3090 C3074 1.368 . S
C3090 C3086 1.368 . S
C3090 C3089 1.523 . S
H3091 C3066 0.950 . S
H3092 C3068 0.950 . S
H3093 C3069 0.949 . S
H3094 C3071 0.950 . S
H3095 C3073 0.950 . S
C3096 C3097 1.349 . S
C3096 C3098 1.327 . S
C3096 H3121 0.950 . S
C3097 C3096 1.349 . S
C3097 C3113 1.349 . S
C3098 C3096 1.327 . S
C3098 C3117 1.429 . S
C3098 H3122 0.950 . S
C3099 C3116 1.573 1_556 S
C3099 C3118 1.369 . S
C3099 H3123 0.949 . S
H3100 C3104 0.949 . S
C3101 C3102 1.349 . S
C3101 C3103 1.327 . S
C3101 H3124 0.950 . S
C3102 C3101 1.349 . S
C3102 C3114 1.349 . S
C3103 C3101 1.327 . S
C3103 C3119 1.429 . S
C3103 H3125 0.950 . S
C3104 H3100 0.949 . S
C3104 C3112 1.573 1_554 S
C3104 C3120 1.369 . S
H3105 C3113 0.950 . S
H3106 C3111 0.950 . S
H3107 C3112 0.949 . S
H3108 C3114 0.950 . S
H3109 C3115 0.950 . S
H3110 C3116 0.949 . S
C3111 H3106 0.950 . S
C3111 C3113 1.327 . S
C3111 C3117 1.429 . S
C3112 C3104 1.573 1_556 S
C3112 H3107 0.949 . S
C3112 C3118 1.368 . S
C3113 C3097 1.349 . S
C3113 H3105 0.950 . S
C3113 C3111 1.327 . S
C3114 C3102 1.349 . S
C3114 H3108 0.950 . S
C3114 C3115 1.327 . S
C3115 H3109 0.950 . S
C3115 C3114 1.327 . S
C3115 C3119 1.429 . S
C3116 C3099 1.573 1_554 S
C3116 H3110 0.949 . S
C3116 C3120 1.368 . S
C3117 C3098 1.429 . S
C3117 C3111 1.429 . S
C3117 C3118 1.523 . S
C3118 C3099 1.369 . S
C3118 C3112 1.368 . S
C3118 C3117 1.523 . S
C3119 C3103 1.429 . S
C3119 C3115 1.429 . S
C3119 C3120 1.523 . S
C3120 C3104 1.369 . S
C3120 C3116 1.368 . S
C3120 C3119 1.523 . S
H3121 C3096 0.950 . S
H3122 C3098 0.950 . S
H3123 C3099 0.949 . S
H3124 C3101 0.950 . S
H3125 C3103 0.950 . S
C3126 C3127 1.349 . S
C3126 C3128 1.327 . S
C3126 H3151 0.950 . S
C3127 C3126 1.349 . S
C3127 C3143 1.349 . S
C3128 C3126 1.327 . S
C3128 C3147 1.429 . S
C3128 H3152 0.950 . S
C3129 C3146 1.574 1_556 S
C3129 C3148 1.368 . S
C3129 H3153 0.949 . S
H3130 C3134 0.949 . S
C3131 C3132 1.349 . S
C3131 C3133 1.327 . S
C3131 H3154 0.950 . S
C3132 C3131 1.349 . S
C3132 C3144 1.349 . S
C3133 C3131 1.327 . S
C3133 C3149 1.429 . S
C3133 H3155 0.950 . S
C3134 H3130 0.949 . S
C3134 C3142 1.574 1_554 S
C3134 C3150 1.368 . S
H3135 C3143 0.950 . S
H3136 C3141 0.950 . S
H3137 C3142 0.949 . S
H3138 C3144 0.950 . S
H3139 C3145 0.950 . S
H3140 C3146 0.949 . S
C3141 H3136 0.950 . S
C3141 C3143 1.327 . S
C3141 C3147 1.429 . S
C3142 C3134 1.574 1_556 S
C3142 H3137 0.949 . S
C3142 C3148 1.368 . S
C3143 C3127 1.349 . S
C3143 H3135 0.950 . S
C3143 C3141 1.327 . S
C3144 C3132 1.349 . S
C3144 H3138 0.950 . S
C3144 C3145 1.327 . S
C3145 H3139 0.950 . S
C3145 C3144 1.327 . S
C3145 C3149 1.429 . S
C3146 C3129 1.574 1_554 S
C3146 H3140 0.949 . S
C3146 C3150 1.368 . S
C3147 C3128 1.429 . S
C3147 C3141 1.429 . S
C3147 C3148 1.523 . S
C3148 C3129 1.368 . S
C3148 C3142 1.368 . S
C3148 C3147 1.523 . S
C3149 C3133 1.429 . S
C3149 C3145 1.429 . S
C3149 C3150 1.523 . S
C3150 C3134 1.368 . S
C3150 C3146 1.368 . S
C3150 C3149 1.523 . S
H3151 C3126 0.950 . S
H3152 C3128 0.950 . S
H3153 C3129 0.949 . S
H3154 C3131 0.950 . S
H3155 C3133 0.950 . S
C3156 C3157 1.349 . S
C3156 C3158 1.327 . S
C3156 H3181 0.950 . S
C3157 C3156 1.349 . S
C3157 C3173 1.349 . S
C3158 C3156 1.327 . S
C3158 C3177 1.429 . S
C3158 H3182 0.950 . S
C3159 C3176 1.573 . S
C3159 C3178 1.369 1_554 S
C3159 H3183 0.949 1_554 S
H3160 C3164 0.949 1_554 S
C3161 C3162 1.349 . S
C3161 C3163 1.327 . S
C3161 H3184 0.950 . S
C3162 C3161 1.349 . S
C3162 C3174 1.349 . S
C3163 C3161 1.327 . S
C3163 C3179 1.429 . S
C3163 H3185 0.950 . S
C3164 H3160 0.949 1_556 S
C3164 C3172 1.573 . S
C3164 C3180 1.369 1_556 S
H3165 C3173 0.950 . S
H3166 C3171 0.950 . S
H3167 C3172 0.949 . S
H3168 C3174 0.950 . S
H3169 C3175 0.950 . S
H3170 C3176 0.949 . S
C3171 H3166 0.950 . S
C3171 C3173 1.327 . S
C3171 C3177 1.429 . S
C3172 C3164 1.573 . S
C3172 H3167 0.949 . S
C3172 C3178 1.368 . S
C3173 C3157 1.349 . S
C3173 H3165 0.950 . S
C3173 C3171 1.327 . S
C3174 C3162 1.349 . S
C3174 H3168 0.950 . S
C3174 C3175 1.327 . S
C3175 H3169 0.950 . S
C3175 C3174 1.327 . S
C3175 C3179 1.429 . S
C3176 C3159 1.573 . S
C3176 H3170 0.949 . S
C3176 C3180 1.368 . S
C3177 C3158 1.429 . S
C3177 C3171 1.429 . S
C3177 C3178 1.523 . S
C3178 C3159 1.369 1_556 S
C3178 C3172 1.368 . S
C3178 C3177 1.523 . S
C3179 C3163 1.429 . S
C3179 C3175 1.429 . S
C3179 C3180 1.523 . S
C3180 C3164 1.369 1_554 S
C3180 C3176 1.368 . S
C3180 C3179 1.523 . S
H3181 C3156 0.950 . S
H3182 C3158 0.950 . S
H3183 C3159 0.949 1_556 S
H3184 C3161 0.950 . S
H3185 C3163 0.950 . S
C3186 C3187 1.349 . S
C3186 C3188 1.327 . S
C3186 H3211 0.950 . S
C3187 C3186 1.349 . S
C3187 C3203 1.349 . S
C3188 C3186 1.327 . S
C3188 C3207 1.429 . S
C3188 H3212 0.950 . S
C3189 C3206 1.574 1_556 S
C3189 C3208 1.368 . S
C3189 H3213 0.949 . S
H3190 C3194 0.949 . S
C3191 C3192 1.349 . S
C3191 C3193 1.327 . S
C3191 H3214 0.950 . S
C3192 C3191 1.349 . S
C3192 C3204 1.349 . S
C3193 C3191 1.327 . S
C3193 C3209 1.429 . S
C3193 H3215 0.950 . S
C3194 H3190 0.949 . S
C3194 C3202 1.574 1_554 S
C3194 C3210 1.368 . S
H3195 C3203 0.950 . S
H3196 C3201 0.950 . S
H3197 C3202 0.949 . S
H3198 C3204 0.950 . S
H3199 C3205 0.950 . S
H3200 C3206 0.949 . S
C3201 H3196 0.950 . S
C3201 C3203 1.327 . S
C3201 C3207 1.429 . S
C3202 C3194 1.574 1_556 S
C3202 H3197 0.949 . S
C3202 C3208 1.368 . S
C3203 C3187 1.349 . S
C3203 H3195 0.950 . S
C3203 C3201 1.327 . S
C3204 C3192 1.349 . S
C3204 H3198 0.950 . S
C3204 C3205 1.327 . S
C3205 H3199 0.950 . S
C3205 C3204 1.327 . S
C3205 C3209 1.429 . S
C3206 C3189 1.574 1_554 S
C3206 H3200 0.949 . S
C3206 C3210 1.368 . S
C3207 C3188 1.429 . S
C3207 C3201 1.429 . S
C3207 C3208 1.523 . S
C3208 C3189 1.368 . S
C3208 C3202 1.368 . S
C3208 C3207 1.523 . S
C3209 C3193 1.429 . S
C3209 C3205 1.429 . S
C3209 C3210 1.523 . S
C3210 C3194 1.368 . S
C3210 C3206 1.368 . S
C3210 C3209 1.523 . S
H3211 C3186 0.950 . S
H3212 C3188 0.950 . S
H3213 C3189 0.949 . S
H3214 C3191 0.950 . S
H3215 C3193 0.950 . S
C697 C8 2.793 . S
C702 C382 2.763 . S
C727 C37 2.793 . S
C732 C411 2.763 . S
C757 C66 2.793 . S
C762 C440 2.763 . S
C787 C95 2.793 . S
C792 C353 2.763 . S
C817 C124 2.793 . S
C822 C324 2.763 . S
C847 C153 2.793 . S
C852 C237 2.763 . S
C877 C182 2.793 . S
C882 C266 2.763 . S
C907 C211 2.793 . S
C912 C295 2.763 . S
C937 C240 2.793 . S
C942 C34 2.763 . S
C967 C269 2.793 . S
C972 C63 2.763 . S
C997 C298 2.793 . S
C1002 C92 2.763 . S
C1027 C327 2.793 . S
C1032 C5 2.763 . S
C1057 C208 2.763 . S
C1062 C356 2.793 . S
C1087 C385 2.793 . S
C1092 C121 2.763 . S
C1117 C414 2.793 . S
C1122 C150 2.763 . S
C1147 C443 2.793 . S
C1152 C179 2.763 . S
C1177 C472 2.793 . S
C1182 C643 2.763 . S
C1207 C501 2.793 . S
C1212 C527 2.763 . S
C1237 C530 2.793 . S
C1242 C556 2.763 . S
C1267 C559 2.793 . S
C1272 C585 2.763 . S
C1297 C588 2.793 . S
C1302 C498 2.763 . S
C1327 C617 2.793 . S
C1332 C672 2.763 . S
C1357 C646 2.793 . S
C1362 C614 2.763 . S
C1387 C675 2.793 . S
C1392 C469 2.763 . S
C1417 C3 2.180 . S
C1422 C641 2.180 . S
C1447 C32 2.180 . S
C1452 C467 2.180 . S
C1477 C670 2.180 . S
C1482 C61 2.180 . S
C1507 C612 2.180 . S
C1512 C90 2.180 . S
C1537 C119 2.180 . S
C1542 C525 2.180 . S
C1567 C148 2.180 . S
C1572 C554 2.180 . S
C1597 C583 2.180 . S
C1602 C177 2.180 . S
C1627 C496 2.180 . S
C1632 C206 2.180 . S
C1657 C380 2.180 . S
C1662 C235 2.180 . S
C1687 C409 2.180 . S
C1692 C264 2.180 . S
C1717 C438 2.180 . S
C1722 C293 2.180 . S
C1747 C322 2.180 . S
C1752 C351 2.180 . S
C1777 C79 0.714 . S
C1782 C21 0.714 . S
C1807 C108 0.714 . S
C1812 C50 0.714 . S
C1837 C195 0.714 . S
C1842 C137 0.714 . S
C1867 C224 0.714 . S
C1872 C166 0.714 . S
C1897 C369 0.714 . S
C1902 C253 0.714 . S
C1927 C282 0.714 . S
C1932 C398 0.714 . S
C1957 C311 0.714 . S
C1962 C427 0.714 . S
C1987 C456 0.714 . S
C1992 C340 0.714 . S
C2017 C572 0.714 . S
C2022 C485 0.714 . S
C2047 C514 0.714 . S
C2052 C630 0.714 . S
C2077 C543 0.714 . S
C2082 C659 0.714 . S
C2107 C601 0.714 . S
C2112 C688 0.714 . S
C2137 C245 0.865 . S
C2142 C15 0.896 . S
C2167 C44 0.896 . S
C2172 C274 0.865 . S
C2197 C73 0.896 . S
C2202 C303 0.865 . S
C2227 C332 0.865 . S
C2232 C102 0.896 . S
C2257 C131 0.896 . S
C2262 C361 0.865 . S
C2287 C160 0.896 . S
C2292 C390 0.865 . S
C2317 C419 0.865 . S
C2322 C189 0.896 . S
C2347 C218 0.896 . S
C2352 C448 0.865 . S
C2377 C477 0.865 . S
C2382 C247 0.896 . S
C2407 C680 0.865 . S
C2412 C276 0.896 . S
C2437 C622 0.865 . S
C2442 C305 0.896 . S
C2467 C651 0.865 . S
C2472 C334 0.896 . S
C2497 C363 0.896 . S
C2502 C506 0.865 . S
C2527 C392 0.896 . S
C2532 C535 0.865 . S
C2557 C421 0.896 . S
C2562 C564 0.865 . S
C2587 C450 0.896 . S
C2592 C593 0.865 . S
C2617 C479 0.896 . S
C2622 C13 0.865 . S
C2647 C129 0.865 . S
C2652 C508 0.896 . S
C2677 C158 0.865 . S
C2682 C537 0.896 . S
C2707 C566 0.896 . S
C2712 C187 0.865 . S
C2737 C595 0.896 . S
C2742 C216 0.865 . S
C2767 C624 0.896 . S
C2772 C71 0.865 . S
C2797 C653 0.896 . S
C2802 C100 0.865 . S
C2827 C682 0.896 . S
C2832 C42 0.865 . S
C2857 C271 1.024 . S
C2862 C10 1.024 . S
C2887 C300 1.024 . S
C2892 C39 1.024 . S
C2917 C68 1.024 . S
C2922 C329 1.024 . S
C2947 C97 1.024 . S
C2952 C242 1.024 . S
C2977 C445 1.024 . S
C2982 C126 1.024 . S
C3007 C358 1.024 . S
C3012 C155 1.024 . S
C3037 C184 1.024 . S
C3042 C387 1.024 . S
C3067 C213 1.024 . S
C3072 C416 1.024 . S
C3097 C532 1.024 . S
C3102 C474 1.024 . S
C3127 C503 1.024 . S
C3132 C648 1.024 . S
C3157 C561 1.024 . S
C3162 C677 1.024 . S
C3187 C590 1.024 . S
C3192 C619 1.024 . S
