# Generated by pormake.
# Topology snp, (6)-cn, num edge types: 1
# Building blocks:
#     Node 0, Type 0, BuildingBlock: CUWYAW_clean_sbu_0, # of connection points: 6
#     Node 1, Type 0, BuildingBlock: CUWYAW_clean_sbu_0, # of connection points: 6
#     Node 2, Type 0, BuildingBlock: CUWYAW_clean_sbu_0, # of connection points: 6
#     Node 3, Type 0, BuildingBlock: CUWYAW_clean_sbu_0, # of connection points: 6
#     Edge 4, Type (0, 0), BuildingBlock: FUNLAD_clean_linker_0, # of connection points: 2
#     Edge 5, Type (0, 0), BuildingBlock: FUNLAD_clean_linker_0, # of connection points: 2
#     Edge 6, Type (0, 0), BuildingBlock: FUNLAD_clean_linker_0, # of connection points: 2
#     Edge 7, Type (0, 0), BuildingBlock: FUNLAD_clean_linker_0, # of connection points: 2
#     Edge 8, Type (0, 0), BuildingBlock: FUNLAD_clean_linker_0, # of connection points: 2
#     Edge 9, Type (0, 0), BuildingBlock: FUNLAD_clean_linker_0, # of connection points: 2
#     Edge 10, Type (0, 0), BuildingBlock: FUNLAD_clean_linker_0, # of connection points: 2
#     Edge 11, Type (0, 0), BuildingBlock: FUNLAD_clean_linker_0, # of connection points: 2
#     Edge 12, Type (0, 0), BuildingBlock: FUNLAD_clean_linker_0, # of connection points: 2
#     Edge 13, Type (0, 0), BuildingBlock: FUNLAD_clean_linker_0, # of connection points: 2
#     Edge 14, Type (0, 0), BuildingBlock: FUNLAD_clean_linker_0, # of connection points: 2
#     Edge 15, Type (0, 0), BuildingBlock: FUNLAD_clean_linker_0, # of connection points: 2
# Relax obj value: 0.314
# Max RMSD: 0.219
# Mean RMSD: 0.204
data_MOF--net-snp--node1-CUWYAW_clean_sbu_0--edge1-FUNLAD_clean_linker_0
_symmetry_space_group_name_H-M    P1
_symmetry_Int_Tables_number       1
_symmetry_cell_setting            triclinic
loop_
_symmetry_equiv_pos_as_xyz
'x, y, z'
_cell_length_a     28.809774
_cell_length_b     28.64101
_cell_length_c     39.098632
_cell_angle_alpha  93.36513
_cell_angle_beta   80.493889
_cell_angle_gamma 123.38647
loop_
_atom_site_label
_atom_site_type_symbol
_atom_site_fract_x
_atom_site_fract_y
_atom_site_fract_z
_atom_type_partial_charge
C0 C 0.23119 0.9387 0.1707 0.0
Eu1 Eu 0.26787 0.04097 0.18634 0.0
C2 C 0.22097 0.91466 0.1367 0.0
C3 C 0.1977 0.93128 0.11511 0.0
C4 C 0.2015 0.92127 0.07994 0.0
C5 C 0.22917 0.89514 0.06582 0.0
C6 C 0.24948 0.87556 0.0877 0.0
C7 C 0.24536 0.88529 0.12304 0.0
C8 C 0.20782 0.0868 0.20522 0.0
C9 C 0.29632 0.12986 0.12584 0.0
C10 C 0.39277 0.2619 0.22218 0.0
Eu11 Eu 0.33846 0.15889 0.20286 0.0
C12 C 0.39182 0.28322 0.25734 0.0
C13 C 0.44154 0.3128 0.27186 0.0
C14 C 0.43993 0.32635 0.30675 0.0
C15 C 0.38857 0.31083 0.32759 0.0
C16 C 0.33901 0.28249 0.31286 0.0
C17 C 0.34053 0.26857 0.27812 0.0
C18 C 0.3953 0.10757 0.18789 0.0
C19 C 0.27955 0.06791 0.2673 0.0
O20 O 0.28428 0.9763 0.17215 0.0
O21 O 0.19784 0.95428 0.18539 0.0
O22 O 0.19547 0.04926 0.1819 0.0
O23 O 0.24881 0.0963 0.2186 0.0
O24 O 0.27792 0.07715 0.13316 0.0
O25 O 0.32094 0.16906 0.1487 0.0
O26 O 0.34657 0.2392 0.20899 0.0
O27 O 0.41519 0.23256 0.21693 0.0
O28 O 0.39969 0.1387 0.21394 0.0
O29 O 0.3596 0.10328 0.17067 0.0
O30 O 0.29663 0.11939 0.25769 0.0
O31 O 0.27285 0.03123 0.24321 0.0
H32 H 0.17966 0.95507 0.12489 0.0
H33 H 0.18488 0.93604 0.06355 0.0
H34 H 0.2715 0.85578 0.07722 0.0
H35 H 0.26462 0.87338 0.13922 0.0
H36 H 0.48138 0.32385 0.25647 0.0
H37 H 0.47872 0.34843 0.31754 0.0
H38 H 0.29873 0.26926 0.32852 0.0
H39 H 0.30121 0.24475 0.26794 0.0
C40 C 0.16118 0.28741 0.74755 0.0
Eu41 Eu 0.1374 0.3054 0.68885 0.0
C42 C 0.17478 0.27698 0.78134 0.0
C43 C 0.22805 0.31331 0.79155 0.0
C44 C 0.24102 0.30317 0.82267 0.0
C45 C 0.20144 0.25598 0.84515 0.0
C46 C 0.14825 0.21936 0.83457 0.0
C47 C 0.13524 0.22971 0.8035 0.0
C48 C 0.1406 0.39783 0.66741 0.0
C49 C 0.00502 0.25525 0.68407 0.0
C50 C 0.08294 0.30372 0.55102 0.0
Eu51 Eu 0.09515 0.29509 0.61522 0.0
C52 C 0.05613 0.27551 0.51957 0.0
C53 C 0.0571 0.22992 0.50462 0.0
C54 C 0.03814 0.20939 0.47252 0.0
C55 C 0.0181 0.23409 0.45397 0.0
C56 C 0.01686 0.27935 0.4695 0.0
C57 C 0.03513 0.29928 0.50161 0.0
C58 C 0.07699 0.19962 0.6417 0.0
C59 C 0.22287 0.35044 0.61936 0.0
O60 O 0.11022 0.26034 0.7398 0.0
O61 O 0.1989 0.32566 0.72383 0.0
O62 O 0.17193 0.39933 0.68847 0.0
O63 O 0.106 0.34737 0.66179 0.0
O64 O 0.04196 0.25634 0.70108 0.0
O65 O 0.01759 0.27601 0.65198 0.0
O66 O 0.12078 0.29636 0.55934 0.0
O67 O 0.05328 0.30935 0.57835 0.0
O68 O 0.05013 0.20149 0.61891 0.0
O69 O 0.11859 0.24871 0.6447 0.0
O70 O 0.18764 0.36083 0.6098 0.0
O71 O 0.20769 0.31744 0.64684 0.0
H72 H 0.26015 0.34996 0.77539 0.0
H73 H 0.28287 0.33239 0.8287 0.0
H74 H 0.11579 0.18277 0.8506 0.0
H75 H 0.09385 0.20029 0.79681 0.0
H76 H 0.07341 0.21063 0.51742 0.0
H77 H 0.03941 0.1741 0.46234 0.0
H78 H 0.00345 0.30116 0.45644 0.0
H79 H 0.03463 0.33499 0.51189 0.0
C80 C 0.87395 0.14751 0.06153 0.0
Eu81 Eu 0.86467 0.05582 0.07749 0.0
C82 C 0.87057 0.16773 1.02938 0.0
C83 C 0.9002 0.22525 1.0219 0.0
C84 C 0.90061 0.24454 0.98988 0.0
C85 C 0.87135 0.20631 0.96513 0.0
C86 C 0.84148 0.14861 0.97292 0.0
C87 C 0.84121 0.12945 1.00481 0.0
C88 C 0.95077 0.04253 0.07329 0.0
C89 C 0.85362 0.96458 1.02189 0.0
C90 C 0.79808 0.85208 0.12993 0.0
Eu91 Eu 0.82587 0.94853 0.10661 0.0
C92 C 0.79296 0.83489 0.16565 0.0
C93 C 0.74709 0.78269 0.17962 0.0
C94 C 0.73839 0.76941 0.21489 0.0
C95 C 0.77524 0.80851 0.23655 0.0
C96 C 0.82174 0.86025 0.22229 0.0
C97 C 0.83051 0.87331 0.18719 0.0
C98 C 0.74555 0.97265 0.11229 0.0
C99 C 0.87481 0.04668 0.16005 0.0
O100 O 0.82697 0.10371 0.07668 0.0
O101 O 0.91715 0.14347 0.0602 0.0
O102 O 0.94274 0.06426 0.04848 0.0
O103 O 0.91102 0.02658 0.09867 0.0
O104 O 0.85512 0.01175 1.0257 0.0
O105 O 0.84515 0.93488 0.04953 0.0
O106 O 0.84898 0.88991 0.11497 0.0
O107 O 0.76101 0.86265 0.1249 0.0
O108 O 0.75502 0.95361 0.13765 0.0
O109 O 0.77969 0.97954 0.0852 0.0
O110 O 0.86342 -0.00384 0.15314 0.0
O111 O 0.87278 0.07617 0.1359 0.0
H112 H 0.92371 0.25509 1.04056 0.0
H113 H 0.92393 0.28922 0.98439 0.0
H114 H 0.81967 0.11829 0.954 0.0
H115 H 0.81905 0.08477 1.01003 0.0
H116 H 0.71726 0.75293 0.16347 0.0
H117 H 0.70203 0.72934 0.2254 0.0
H118 H 0.85131 0.8908 0.2383 0.0
H119 H 0.86616 0.91396 0.17708 0.0
C120 C 0.19022 0.87802 0.66495 0.0
Eu121 Eu 0.09899 0.87107 0.65761 0.0
C122 C 0.20952 0.87067 0.69543 0.0
C123 C 0.23981 0.91645 0.71591 0.0
C124 C 0.25033 0.90814 0.74767 0.0
C125 C 0.23123 0.85405 0.75921 0.0
C126 C 0.20359 0.8087 0.73801 0.0
C127 C 0.19303 0.81696 0.70623 0.0
C128 C 0.07397 0.94841 0.6651 0.0
C129 C 0.00062 0.84808 0.72179 0.0
C130 C 0.8847 0.78986 0.62767 0.0
Eu131 Eu -0.01528 0.82496 0.64015 0.0
C132 C 0.86192 0.77303 0.59517 0.0
C133 C 0.8068 0.75697 0.59394 0.0
C134 C 0.78705 0.74503 0.56219 0.0
C135 C 0.82252 0.74962 0.5313 0.0
C136 C 0.8776 0.76508 0.53291 0.0
C137 C 0.89696 0.77632 0.56461 0.0
C138 C 0.01771 0.75144 0.63823 0.0
C139 C 0.08691 0.88172 0.57663 0.0
O140 O 0.14682 0.83287 0.65492 0.0
O141 O 0.18674 0.92164 0.66453 0.0
O142 O 0.11213 0.94986 0.67967 0.0
O143 O 0.05847 0.91155 0.64205 0.0
O144 O 0.05096 0.85503 0.71358 0.0
O145 O 0.96956 0.83833 0.69756 0.0
O146 O 0.92479 0.84262 0.628 0.0
O147 O 0.89688 0.75722 0.64013 0.0
O148 O -0.00494 0.75709 0.6141 0.0
O149 O 0.02315 0.78563 0.66155 0.0
O150 O 0.03428 0.86603 0.5875 0.0
O151 O 0.11769 0.88169 0.59829 0.0
H152 H 0.25327 0.95834 0.70816 0.0
H153 H 0.27118 0.94369 0.76384 0.0
H154 H 0.18908 0.76673 0.74635 0.0
H155 H 0.17016 0.78096 0.69078 0.0
H156 H 0.7794 0.75443 0.61737 0.0
H157 H 0.7442 0.73258 0.56181 0.0
H158 H 0.90639 0.77013 0.50961 0.0
H159 H 0.93977 0.78884 0.56517 0.0
C160 C 0.01437 0.05265 0.11185 0.0
C161 C 0.00796 0.06953 0.08106 0.0
C162 C 0.05643 0.09154 0.13006 0.0
C163 C 0.09268 0.14742 0.11745 0.0
C164 C 0.09287 0.16147 0.08379 0.0
C165 C 0.05051 0.12241 0.06545 0.0
C166 C 0.12974 0.19046 0.13979 0.0
C167 C 0.10935 0.18934 0.1736 0.0
C168 C 0.13456 0.17749 0.19883 0.0
C169 C 0.10121 0.1242 0.2156 0.0
C170 C 0.12576 0.09508 0.22057 0.0
C171 C 0.18377 0.12053 0.21045 0.0
H172 H 0.2197 0.24745 0.18229 0.0
C173 C 0.21747 0.1769 0.19947 0.0
C174 C 0.19325 0.20617 0.19491 0.0
H175 H 0.26126 0.19604 0.18966 0.0
H176 H -0.01717 0.0117 0.12396 0.0
H177 H 0.05803 0.0787 0.15506 0.0
H178 H 0.12252 0.20369 0.073 0.0
H179 H 0.04728 0.13607 1.0412 0.0
H180 H 0.17441 0.20847 0.13125 0.0
H181 H 0.06444 0.17196 0.1805 0.0
H182 H 0.05568 0.1016 0.21937 0.0
H183 H 0.09908 0.05145 0.22924 0.0
C184 C -0.01269 0.95213 0.67717 0.0
C185 C 0.03922 0.96685 0.68535 0.0
C186 C 0.95013 0.95925 0.70135 0.0
C187 C 0.96519 0.98187 0.73361 0.0
C188 C 0.01821 -0.00044 0.74087 0.0
C189 C 0.05509 -0.00727 0.71688 0.0
C190 C 0.92958 -0.00514 0.75821 0.0
C191 C 0.93782 0.04563 0.7573 0.0
C192 C 0.97517 0.08564 0.72805 0.0
C193 C 0.95334 0.08061 0.69774 0.0
C194 C -0.01203 0.11538 0.66888 0.0
C195 C 0.04525 0.15608 0.6698 0.0
H196 H 0.05094 0.12566 0.75132 0.0
C197 C 0.06816 0.1582 0.69926 0.0
C198 C 0.03306 0.12339 0.72851 0.0
H199 H 0.11262 0.18759 0.69991 0.0
H200 H 0.97528 0.93448 0.65257 0.0
H201 H 0.91001 0.94756 0.69488 0.0
H202 H 0.03116 0.01892 0.76514 0.0
H203 H 0.09529 0.00569 0.72387 0.0
H204 H 0.89961 0.96465 0.77887 0.0
H205 H 0.91294 0.05555 0.77647 0.0
H206 H 0.9092 0.05007 0.69656 0.0
H207 H 0.96904 0.11174 0.6463 0.0
C208 C 0.66912 0.9797 0.14815 0.0
C209 C 0.70212 0.98654 0.11572 0.0
C210 C 0.62823 -0.00728 0.15218 0.0
C211 C 0.61933 0.01364 0.12386 0.0
C212 C 0.65199 0.01979 0.09127 0.0
C213 C 0.69295 0.00658 0.08724 0.0
C214 C 0.57587 0.02824 0.12724 0.0
C215 C 0.55523 0.04 0.15782 0.0
C216 C 0.51309 0.05624 0.16321 0.0
C217 C 0.50674 0.07881 0.19515 0.0
C218 C 0.4681 0.09437 0.20265 0.0
C219 C 0.43382 0.08768 0.17859 0.0
H220 H 0.48118 0.03081 0.11417 0.0
C221 C 0.43906 0.06439 0.14659 0.0
C222 C 0.47847 0.04888 0.13889 0.0
H223 H 0.4132 0.05863 0.1275 0.0
H224 H 0.67472 0.96398 0.17062 0.0
H225 H 0.60322 0.98527 0.17755 0.0
H226 H 0.64611 0.03529 0.06883 0.0
H227 H 0.71745 0.01212 0.06184 0.0
H228 H 0.5626 0.03166 0.10361 0.0
H229 H 0.57207 0.04041 0.18076 0.0
H230 H 0.53217 0.08486 0.21461 0.0
H231 H 0.46529 0.11196 0.22761 0.0
C232 C 0.08823 0.43503 0.646 0.0
C233 C 0.13195 0.44386 0.66279 0.0
C234 C 0.07723 0.47701 0.64429 0.0
C235 C 0.10991 0.52923 0.65929 0.0
C236 C 0.15408 0.53795 0.67556 0.0
C237 C 0.16507 0.49611 0.67719 0.0
C238 C 0.09863 0.57492 0.65998 0.0
C239 C 0.06579 0.57764 0.64005 0.0
C240 C 0.05529 0.62382 0.64054 0.0
C241 C 0.03398 0.63013 0.61246 0.0
C242 C 0.02236 0.67163 0.61172 0.0
C243 C 0.03116 0.70803 0.63922 0.0
H244 H 0.07887 0.6564 0.6909 0.0
C245 C 0.05189 0.70166 0.6676 0.0
C246 C 0.06392 0.66023 0.66828 0.0
H247 H 0.05849 0.72851 0.68946 0.0
H248 H 0.06161 0.39513 0.63481 0.0
H249 H 0.04218 0.46751 0.632 0.0
H250 H 0.18008 0.57733 0.68747 0.0
H251 H 0.19895 0.5044 0.6904 0.0
H252 H 0.12023 0.60884 0.67713 0.0
H253 H 0.0471 0.54576 0.62123 0.0
H254 H 0.02634 0.60279 0.59078 0.0
H255 H 0.00617 0.67502 0.58952 0.0
C256 C 0.28157 0.32245 0.58259 0.0
C257 C 0.27193 0.36431 0.59339 0.0
C258 C 0.31301 0.32762 0.55007 0.0
C259 C 0.33588 0.37533 0.52821 0.0
C260 C 0.33078 0.41942 0.54085 0.0
C261 C 0.29889 0.41389 0.57308 0.0
C262 C 0.35737 0.37761 0.49075 0.0
C263 C 0.3663 0.33954 0.47519 0.0
C264 C 0.3752 0.33653 0.43699 0.0
C265 C 0.4074 0.31576 0.42145 0.0
C266 C 0.41319 0.30897 0.38568 0.0
C267 C 0.38598 0.32196 0.36498 0.0
H268 H 0.32152 0.36426 0.42747 0.0
C269 C 0.35379 0.34283 0.38053 0.0
C270 C 0.34833 0.34998 0.41619 0.0
H271 H 0.33229 0.35304 0.36513 0.0
H272 H 0.26012 0.28334 0.59755 0.0
H273 H 0.31517 0.29224 0.54146 0.0
H274 H 0.34793 0.45662 0.5247 0.0
H275 H 0.29148 0.4465 0.58086 0.0
H276 H 0.36266 0.41055 0.47477 0.0
H277 H 0.3663 0.30905 0.49036 0.0
H278 H 0.42769 0.3043 0.43706 0.0
H279 H 0.43749 0.29191 0.37437 0.0
C280 C 0.91746 0.1884 0.72221 0.0
C281 C 0.95214 0.24102 0.70515 0.0
C282 C 0.88065 0.18103 0.75245 0.0
C283 C 0.87961 0.2268 0.76624 0.0
C284 C 0.90939 0.27769 0.74682 0.0
C285 C 0.9456 0.28473 0.71627 0.0
C286 C 0.85723 0.22346 0.8033 0.0
C287 C 0.888 0.26461 0.8241 0.0
C288 C 0.88086 0.25468 0.86172 0.0
C289 C 0.92886 0.28283 0.87797 0.0
C290 C 0.92548 0.26849 0.91212 0.0
C291 C 0.87385 0.22608 0.93058 0.0
H292 H 0.79056 0.19319 0.86935 0.0
C293 C 0.82524 0.20017 0.91498 0.0
C294 C 0.82862 0.21448 0.88085 0.0
H295 H 0.78475 0.16805 0.92898 0.0
H296 H 0.92254 0.1546 0.71401 0.0
H297 H 0.85791 0.14141 0.767 0.0
H298 H 0.90855 0.31335 0.75681 0.0
H299 H 0.97297 0.32596 0.70363 0.0
H300 H 0.82297 0.18257 0.81437 0.0
H301 H 0.92594 0.30322 0.81269 0.0
H302 H 0.96962 0.31393 0.86368 0.0
H303 H 0.96368 0.28874 0.92349 0.0
C304 C 0.77075 0.7609 0.49049 0.0
C305 C 0.80341 0.74098 0.49728 0.0
C306 C 0.75631 0.75667 0.45767 0.0
C307 C 0.77544 0.73361 0.43067 0.0
C308 C 0.80606 0.71165 0.43783 0.0
C309 C 0.81987 0.71519 0.4708 0.0
C310 C 0.76628 0.73357 0.39455 0.0
C311 C 0.75657 0.7698 0.38225 0.0
C312 C 0.75623 0.77621 0.3451 0.0
C313 C 0.7675 0.82718 0.33309 0.0
C314 C 0.77221 0.83708 0.29789 0.0
C315 C 0.76555 0.79604 0.27404 0.0
H316 H 0.73593 0.69339 0.32975 0.0
C317 C 0.7517 0.74404 0.28612 0.0
C318 C 0.74675 0.73401 0.3214 0.0
H319 H 0.74622 0.71168 0.26821 0.0
H320 H 0.75763 0.78126 0.51024 0.0
H321 H 0.7307 0.77211 0.45371 0.0
H322 H 0.82068 0.69302 0.41761 0.0
H323 H 0.84406 0.69835 0.47542 0.0
H324 H 0.77353 0.7067 0.37694 0.0
H325 H 0.75442 0.80012 0.39923 0.0
H326 H 0.77422 0.86008 0.35085 0.0
H327 H 0.78174 0.87715 0.28928 0.0
C328 C 0.28711 0.88153 0.80716 0.0
C329 C 0.23672 0.8448 0.79437 0.0
C330 C 0.29006 0.8772 0.84179 0.0
C331 C 0.24228 0.83649 0.86414 0.0
C332 C 0.19304 0.79756 0.85088 0.0
C333 C 0.19012 0.8018 0.81617 0.0
C334 C 0.24117 0.83643 0.90175 0.0
C335 C 0.26964 0.88439 0.91812 0.0
C336 C 0.26159 0.88671 0.95607 0.0
C337 C 0.27055 0.93625 0.97077 0.0
C338 C 0.25999 0.93896 1.00655 0.0
C339 C 0.24039 0.89207 1.02808 0.0
H340 H 0.23843 0.80221 0.96721 0.0
C341 C 0.23298 0.84304 1.01346 0.0
C342 C 0.24388 0.84044 0.97769 0.0
H343 H 0.2182 0.80654 1.02964 0.0
H344 H 0.3238 0.91438 0.79057 0.0
H345 H 0.32928 0.90659 0.85113 0.0
H346 H 0.1559 0.76574 0.86775 0.0
H347 H 0.15062 0.77326 0.80686 0.0
H348 H 0.21083 0.79732 0.9164 0.0
H349 H 0.295 0.92409 0.9034 0.0
H350 H 0.28475 0.97256 0.95454 0.0
H351 H 0.26739 0.97779 1.01736 0.0
C352 C 0.87485 0.97274 0.9552 0.0
C353 C 0.86882 0.94704 0.98678 0.0
C354 C 0.89305 0.9576 0.92302 0.0
C355 C 0.90671 0.91694 0.92156 0.0
C356 C 0.90045 0.89144 0.95313 0.0
C357 C 0.88144 0.90569 0.98495 0.0
C358 C 0.93022 0.90164 0.88842 0.0
C359 C 0.92016 0.90493 0.85622 0.0
C360 C 0.94082 0.88639 0.82341 0.0
C361 C 0.90959 0.86916 0.79596 0.0
C362 C 0.92807 0.85462 0.76411 0.0
C363 C 0.97935 0.85752 0.75792 0.0
H364 H 0.01736 0.90164 0.8381 0.0
C365 C 0.01059 0.87403 0.78554 0.0
C366 C -0.00854 0.88793 0.8179 0.0
H367 H 0.05045 0.87747 0.78193 0.0
H368 H 0.86616 0.00504 0.95534 0.0
H369 H 0.89802 0.97906 0.89949 0.0
H370 H 0.91063 0.86025 0.95329 0.0
H371 H 0.87814 0.88497 1.00837 0.0
H372 H 0.95418 0.88356 0.89114 0.0
H373 H 0.89235 0.91864 0.85384 0.0
H374 H 0.87056 0.86735 0.799 0.0
H375 H 0.90246 0.84268 0.74385 0.0
C376 C 0.24451 -0.00371 0.31655 0.0
C377 C 0.25851 0.04887 0.30482 0.0
C378 C 0.2217 0.9777 0.35155 0.0
C379 C 0.21149 0.01091 0.37567 0.0
C380 C 0.22519 0.06311 0.36379 0.0
C381 C 0.24882 0.08205 0.32911 0.0
C382 C 0.18401 -0.00819 0.41275 0.0
C383 C 0.18819 0.9563 0.43148 0.0
C384 C 0.16206 0.93904 0.46895 0.0
C385 C 0.18669 0.92325 0.49008 0.0
C386 C 0.16284 0.9054 0.52494 0.0
C387 C 0.1127 0.90146 0.53958 0.0
H388 H 0.09112 0.9464 0.46828 0.0
C389 C 0.08773 0.9169 0.51842 0.0
C390 C 0.11218 0.93573 0.48369 0.0
H391 H 0.04923 0.91465 0.52874 0.0
H392 H 0.25066 0.96919 0.2986 0.0
H393 H 0.21062 0.9367 0.35936 0.0
H394 H 0.21748 0.08955 0.38147 0.0
H395 H 0.25821 0.12237 0.32118 0.0
H396 H 0.16205 0.01054 0.42567 0.0
H397 H 0.21436 0.94146 0.41957 0.0
H398 H 0.22487 0.92497 0.47962 0.0
H399 H 0.18337 0.89391 0.54028 0.0
C400 C 0.19009 0.1913 0.89418 0.0
C401 C 0.21543 0.24569 0.87926 0.0
C402 C 0.20323 0.18237 0.92572 0.0
C403 C 0.24244 0.22752 0.94397 0.0
C404 C 0.26743 0.28162 0.9291 0.0
C405 C 0.25442 0.29052 0.8977 0.0
C406 C 0.2584 0.22137 0.97835 0.0
C407 C 0.24284 0.17239 0.99433 0.0
C408 C 0.25937 0.16531 1.02818 0.0
C409 C 0.24478 0.11155 1.03786 0.0
C410 C 0.25766 0.10102 0.06869 0.0
C411 C 0.28579 0.1437 0.09183 0.0
H412 H 0.29944 0.25056 0.04564 0.0
C413 C 0.30042 0.19783 0.0825 0.0
C414 C 0.28763 0.20853 0.05126 0.0
H415 H 0.32137 0.23205 0.09952 0.0
H416 H 0.16028 0.15501 0.8813 0.0
H417 H 0.18211 0.13981 0.93564 0.0
H418 H 0.29751 0.31784 0.94196 0.0
H419 H 0.27464 0.33326 0.88829 0.0
H420 H 0.28564 0.26001 0.9906 0.0
H421 H 0.21688 0.13395 0.98152 0.0
H422 H 0.22287 0.07679 1.02136 0.0
H423 H 0.24481 0.05862 0.07448 0.0
C424 C 0.89782 0.11833 0.20805 0.0
C425 C 0.89583 0.07094 0.19378 0.0
C426 C 0.91661 0.13829 0.24036 0.0
C427 C 0.93459 0.1117 0.25908 0.0
C428 C 0.93372 0.06542 0.24413 0.0
C429 C 0.91461 0.04537 0.21239 0.0
C430 C 0.9557 0.13026 0.29359 0.0
C431 C 0.94751 0.16443 0.31569 0.0
C432 C 0.96606 0.18003 0.35112 0.0
C433 C 0.94429 0.20565 0.37408 0.0
C434 C 0.96008 0.22174 0.40711 0.0
C435 C -0.00059 0.21397 0.41869 0.0
H436 H 0.02376 0.15258 0.34602 0.0
C437 C 0.02123 0.18803 0.39568 0.0
C438 C 0.00484 0.17128 0.3626 0.0
H439 H 0.05215 0.18162 0.40272 0.0
H440 H 0.88429 0.13961 0.19447 0.0
H441 H 0.91746 0.17475 0.2503 0.0
H442 H 0.94766 0.04404 0.25724 0.0
H443 H 0.91504 0.00956 0.20234 0.0
H444 H 0.97676 0.11201 0.30177 0.0
H445 H 0.92382 0.18031 0.30833 0.0
H446 H 0.91431 0.21311 0.36651 0.0
H447 H 0.94057 0.23996 0.42364 0.0
loop_
_geom_bond_atom_site_label_1
_geom_bond_atom_site_label_2
_geom_bond_distance
_geom_bond_site_symmetry_2
_ccdc_geom_bond_type
C0 Eu1 2.835 . S
C0 C2 1.500 . S
C0 O20 1.257 . S
C0 O21 1.260 . S
Eu1 C0 2.835 . S
Eu1 O20 2.473 . S
Eu1 O21 2.480 . S
Eu1 O22 2.430 . S
Eu1 O23 2.670 . S
Eu1 O24 2.394 . S
Eu1 O29 2.355 . S
Eu1 O31 2.374 . S
C2 C0 1.500 . S
C2 C3 1.377 1_545 S
C2 C7 1.377 . S
C3 C2 1.377 1_565 S
C3 C4 1.395 1_554 S
C3 H32 0.931 . S
C4 C3 1.395 1_556 S
C4 C5 1.383 . S
C4 H33 0.931 . S
C5 C4 1.383 . S
C5 C6 1.394 1_565 S
C6 C5 1.394 1_545 S
C6 C7 1.378 1_556 S
C6 H34 0.931 . S
C7 C2 1.377 . S
C7 C6 1.378 1_554 S
C7 H35 0.931 . S
C8 O22 1.259 . S
C8 O23 1.270 . S
C9 O24 1.251 . S
C9 O25 1.251 . S
C10 Eu11 2.835 . S
C10 C12 1.500 . S
C10 O26 1.257 . S
C10 O27 1.260 . S
Eu11 C10 2.835 . S
Eu11 O23 2.355 . S
Eu11 O25 2.374 . S
Eu11 O26 2.473 . S
Eu11 O27 2.480 . S
Eu11 O28 2.430 . S
Eu11 O29 2.670 . S
Eu11 O30 2.394 . S
C12 C10 1.500 . S
C12 C13 1.377 . S
C12 C17 1.377 . S
C13 C12 1.377 . S
C13 C14 1.395 . S
C13 H36 0.931 . S
C14 C13 1.395 . S
C14 C15 1.383 . S
C14 H37 0.931 . S
C15 C14 1.383 . S
C15 C16 1.394 . S
C16 C15 1.394 . S
C16 C17 1.378 . S
C16 H38 0.931 . S
C17 C12 1.377 . S
C17 C16 1.378 . S
C17 H39 0.931 . S
C18 O28 1.259 . S
C18 O29 1.270 . S
C19 O30 1.251 . S
C19 O31 1.251 . S
O20 C0 1.257 . S
O20 Eu1 2.473 . S
O21 C0 1.260 . S
O21 Eu1 2.480 . S
O22 Eu1 2.430 . S
O22 C8 1.259 . S
O23 Eu1 2.670 . S
O23 C8 1.270 . S
O23 Eu11 2.355 . S
O24 Eu1 2.394 . S
O24 C9 1.251 . S
O25 C9 1.251 . S
O25 Eu11 2.374 . S
O26 C10 1.257 . S
O26 Eu11 2.473 . S
O27 C10 1.260 . S
O27 Eu11 2.480 . S
O28 Eu11 2.430 . S
O28 C18 1.259 . S
O29 Eu1 2.355 . S
O29 Eu11 2.670 . S
O29 C18 1.270 . S
O30 Eu11 2.394 . S
O30 C19 1.251 . S
O31 Eu1 2.374 . S
O31 C19 1.251 . S
H32 C3 0.931 . S
H33 C4 0.931 . S
H34 C6 0.931 . S
H35 C7 0.931 . S
H36 C13 0.931 . S
H37 C14 0.931 . S
H38 C16 0.931 . S
H39 C17 0.931 . S
C40 Eu41 2.835 . S
C40 C42 1.500 . S
C40 O60 1.257 . S
C40 O61 1.260 . S
Eu41 C40 2.835 . S
Eu41 O60 2.473 . S
Eu41 O61 2.480 . S
Eu41 O62 2.430 . S
Eu41 O63 2.670 . S
Eu41 O64 2.394 . S
Eu41 O69 2.355 . S
Eu41 O71 2.374 . S
C42 C40 1.500 . S
C42 C43 1.377 . S
C42 C47 1.377 . S
C43 C42 1.377 . S
C43 C44 1.395 . S
C43 H72 0.931 . S
C44 C43 1.395 . S
C44 C45 1.383 . S
C44 H73 0.931 . S
C45 C44 1.383 . S
C45 C46 1.394 . S
C46 C45 1.394 . S
C46 C47 1.378 . S
C46 H74 0.931 . S
C47 C42 1.377 . S
C47 C46 1.378 . S
C47 H75 0.931 . S
C48 O62 1.259 . S
C48 O63 1.270 . S
C49 O64 1.251 . S
C49 O65 1.251 . S
C50 Eu51 2.835 . S
C50 C52 1.500 . S
C50 O66 1.257 . S
C50 O67 1.260 . S
Eu51 C50 2.835 . S
Eu51 O63 2.355 . S
Eu51 O65 2.374 . S
Eu51 O66 2.473 . S
Eu51 O67 2.480 . S
Eu51 O68 2.430 . S
Eu51 O69 2.670 . S
Eu51 O70 2.394 . S
C52 C50 1.500 . S
C52 C53 1.377 . S
C52 C57 1.377 . S
C53 C52 1.377 . S
C53 C54 1.395 1_455 S
C53 H76 0.931 . S
C54 C53 1.395 1_655 S
C54 C55 1.383 1_655 S
C54 H77 0.931 . S
C55 C54 1.383 1_455 S
C55 C56 1.394 . S
C56 C55 1.394 . S
C56 C57 1.378 . S
C56 H78 0.931 . S
C57 C52 1.377 . S
C57 C56 1.378 . S
C57 H79 0.931 . S
C58 O68 1.259 . S
C58 O69 1.270 . S
C59 O70 1.251 . S
C59 O71 1.251 . S
O60 C40 1.257 . S
O60 Eu41 2.473 . S
O61 C40 1.260 . S
O61 Eu41 2.480 . S
O62 Eu41 2.430 . S
O62 C48 1.259 . S
O63 Eu41 2.670 . S
O63 C48 1.270 . S
O63 Eu51 2.355 . S
O64 Eu41 2.394 . S
O64 C49 1.251 . S
O65 C49 1.251 . S
O65 Eu51 2.374 . S
O66 C50 1.257 . S
O66 Eu51 2.473 . S
O67 C50 1.260 . S
O67 Eu51 2.480 . S
O68 Eu51 2.430 . S
O68 C58 1.259 . S
O69 Eu41 2.355 . S
O69 Eu51 2.670 . S
O69 C58 1.270 . S
O70 Eu51 2.394 . S
O70 C59 1.251 . S
O71 Eu41 2.374 . S
O71 C59 1.251 . S
H72 C43 0.931 . S
H73 C44 0.931 . S
H74 C46 0.931 . S
H75 C47 0.931 . S
H76 C53 0.931 . S
H77 C54 0.931 . S
H78 C56 0.931 . S
H79 C57 0.931 . S
C80 Eu81 2.835 1_556 S
C80 C82 1.500 . S
C80 O100 1.257 1_556 S
C80 O101 1.248 1_556 S
Eu81 C80 2.835 1_554 S
Eu81 O100 2.473 . S
Eu81 O101 2.500 . S
Eu81 O102 2.430 . S
Eu81 O103 2.670 . S
Eu81 O104 2.384 1_545 S
Eu81 O109 2.355 . S
Eu81 O111 2.374 . S
C82 C80 1.500 . S
C82 C83 1.377 . S
C82 C87 1.377 . S
C83 C82 1.377 . S
C83 C84 1.395 . S
C83 H112 0.931 . S
C84 C83 1.395 . S
C84 C85 1.383 . S
C84 H113 0.931 . S
C85 C84 1.383 . S
C85 C86 1.394 . S
C86 C85 1.394 . S
C86 C87 1.378 . S
C86 H114 0.931 . S
C87 C82 1.377 . S
C87 C86 1.378 . S
C87 H115 0.931 . S
C88 O102 1.259 . S
C88 O103 1.270 . S
C89 O104 1.260 . S
C89 O105 1.251 . S
C90 Eu91 2.835 . S
C90 C92 1.500 . S
C90 O106 1.257 . S
C90 O107 1.260 . S
Eu91 C90 2.835 . S
Eu91 O103 2.355 1_565 S
Eu91 O105 2.374 . S
Eu91 O106 2.473 . S
Eu91 O107 2.480 . S
Eu91 O108 2.430 . S
Eu91 O109 2.670 1_565 S
Eu91 O110 2.394 1_565 S
C92 C90 1.500 . S
C92 C93 1.377 . S
C92 C97 1.377 . S
C93 C92 1.377 . S
C93 C94 1.395 . S
C93 H116 0.931 . S
C94 C93 1.395 . S
C94 C95 1.383 . S
C94 H117 0.931 . S
C95 C94 1.383 . S
C95 C96 1.394 . S
C96 C95 1.394 . S
C96 C97 1.378 . S
C96 H118 0.931 . S
C97 C92 1.377 . S
C97 C96 1.378 . S
C97 H119 0.931 . S
C98 O108 1.259 . S
C98 O109 1.270 1_565 S
C99 O110 1.251 . S
C99 O111 1.251 . S
O100 C80 1.257 1_554 S
O100 Eu81 2.473 . S
O101 C80 1.248 1_554 S
O101 Eu81 2.500 . S
O102 Eu81 2.430 . S
O102 C88 1.259 . S
O103 Eu81 2.670 . S
O103 C88 1.270 . S
O103 Eu91 2.355 1_545 S
O104 Eu81 2.384 1_565 S
O104 C89 1.260 . S
O105 C89 1.251 . S
O105 Eu91 2.374 . S
O106 C90 1.257 . S
O106 Eu91 2.473 . S
O107 C90 1.260 . S
O107 Eu91 2.480 . S
O108 Eu91 2.430 . S
O108 C98 1.259 . S
O109 Eu81 2.355 . S
O109 Eu91 2.670 1_545 S
O109 C98 1.270 1_545 S
O110 Eu91 2.394 1_545 S
O110 C99 1.251 . S
O111 Eu81 2.374 . S
O111 C99 1.251 . S
H112 C83 0.931 . S
H113 C84 0.931 . S
H114 C86 0.931 . S
H115 C87 0.931 . S
H116 C93 0.931 . S
H117 C94 0.931 . S
H118 C96 0.931 . S
H119 C97 0.931 . S
C120 Eu121 2.835 . S
C120 C122 1.500 . S
C120 O140 1.257 . S
C120 O141 1.260 . S
Eu121 C120 2.835 . S
Eu121 O140 2.473 . S
Eu121 O141 2.480 . S
Eu121 O142 2.430 . S
Eu121 O143 2.670 . S
Eu121 O144 2.394 1_455 S
Eu121 O149 2.355 . S
Eu121 O151 2.374 . S
C122 C120 1.500 . S
C122 C123 1.377 . S
C122 C127 1.377 . S
C123 C122 1.377 . S
C123 C124 1.395 . S
C123 H152 0.931 . S
C124 C123 1.395 . S
C124 C125 1.383 . S
C124 H153 0.931 . S
C125 C124 1.383 . S
C125 C126 1.394 . S
C126 C125 1.394 . S
C126 C127 1.378 . S
C126 H154 0.931 . S
C127 C122 1.377 . S
C127 C126 1.378 . S
C127 H155 0.931 . S
C128 O142 1.259 . S
C128 O143 1.270 . S
C129 O144 1.251 . S
C129 O145 1.251 . S
C130 Eu131 2.835 . S
C130 C132 1.500 . S
C130 O146 1.257 . S
C130 O147 1.260 . S
Eu131 C130 2.835 . S
Eu131 O143 2.355 1_655 S
Eu131 O145 2.374 . S
Eu131 O146 2.473 . S
Eu131 O147 2.480 . S
Eu131 O148 2.430 . S
Eu131 O149 2.670 1_655 S
Eu131 O150 2.394 1_655 S
C132 C130 1.500 . S
C132 C133 1.377 . S
C132 C137 1.377 . S
C133 C132 1.377 . S
C133 C134 1.395 . S
C133 H156 0.931 . S
C134 C133 1.395 . S
C134 C135 1.383 . S
C134 H157 0.931 . S
C135 C134 1.383 . S
C135 C136 1.394 . S
C136 C135 1.394 . S
C136 C137 1.378 . S
C136 H158 0.931 . S
C137 C132 1.377 . S
C137 C136 1.378 . S
C137 H159 0.931 . S
C138 O148 1.259 . S
C138 O149 1.270 1_655 S
C139 O150 1.251 . S
C139 O151 1.251 . S
O140 C120 1.257 . S
O140 Eu121 2.473 . S
O141 C120 1.260 . S
O141 Eu121 2.480 . S
O142 Eu121 2.430 . S
O142 C128 1.259 . S
O143 Eu121 2.670 . S
O143 C128 1.270 . S
O143 Eu131 2.355 1_455 S
O144 Eu121 2.394 1_655 S
O144 C129 1.251 . S
O145 C129 1.251 . S
O145 Eu131 2.374 . S
O146 C130 1.257 . S
O146 Eu131 2.473 . S
O147 C130 1.260 . S
O147 Eu131 2.480 . S
O148 Eu131 2.430 . S
O148 C138 1.259 . S
O149 Eu121 2.355 . S
O149 Eu131 2.670 1_455 S
O149 C138 1.270 1_455 S
O150 Eu131 2.394 1_455 S
O150 C139 1.251 . S
O151 Eu121 2.374 . S
O151 C139 1.251 . S
H152 C123 0.931 . S
H153 C124 0.931 . S
H154 C126 0.931 . S
H155 C127 0.931 . S
H156 C133 0.931 . S
H157 C134 0.931 . S
H158 C136 0.931 . S
H159 C137 0.931 . S
C160 C161 1.386 1_565 S
C160 C162 1.381 . S
C160 H176 0.951 . S
C161 C160 1.386 1_545 S
C161 C165 1.383 . S
C162 C160 1.381 . S
C162 C163 1.386 1_665 S
C162 H177 0.968 1_655 S
C163 C162 1.386 1_445 S
C163 C164 1.375 . S
C163 C166 1.481 . S
C164 C163 1.375 . S
C164 C165 1.367 1_455 S
C164 H178 0.951 . S
C165 C161 1.383 . S
C165 C164 1.367 1_655 S
C165 H179 0.950 . S
C166 C163 1.481 . S
C166 C167 1.297 . S
C166 H180 0.950 . S
C167 C166 1.297 . S
C167 C168 1.479 . S
C167 H181 0.950 . S
C168 C167 1.479 . S
C168 C169 1.375 . S
C168 C174 1.404 . S
C169 C168 1.375 . S
C169 C170 1.369 . S
C169 H182 0.950 . S
C170 C169 1.369 . S
C170 C171 1.392 . S
C170 H183 0.951 . S
C171 C170 1.392 . S
C171 C173 1.384 . S
H172 C174 0.949 . S
C173 C171 1.384 . S
C173 C174 1.385 . S
C173 H175 0.950 . S
C174 C168 1.404 . S
C174 H172 0.949 . S
C174 C173 1.385 . S
H175 C173 0.950 . S
H176 C160 0.951 . S
H177 C162 0.968 1_455 S
H178 C164 0.951 . S
H179 C165 0.950 . S
H180 C166 0.950 . S
H181 C167 0.950 . S
H182 C169 0.950 . S
H183 C170 0.951 . S
C184 C185 1.386 . S
C184 C186 1.383 1_655 S
C184 H200 0.951 . S
C185 C184 1.386 . S
C185 C189 1.383 1_655 S
C186 C184 1.383 1_455 S
C186 C187 1.402 . S
C186 H201 0.951 1_455 S
C187 C186 1.402 . S
C187 C188 1.375 . S
C187 C190 1.481 1_565 S
C188 C187 1.375 . S
C188 C189 1.367 . S
C188 H202 0.951 . S
C189 C185 1.383 1_455 S
C189 C188 1.367 . S
C189 H203 0.950 . S
C190 C187 1.481 1_545 S
C190 C191 1.297 . S
C190 H204 0.950 . S
C191 C190 1.297 . S
C191 C192 1.479 . S
C191 H205 0.950 . S
C192 C191 1.479 . S
C192 C193 1.375 . S
C192 C198 1.404 . S
C193 C192 1.375 . S
C193 C194 1.369 . S
C193 H206 0.950 . S
C194 C193 1.369 . S
C194 C195 1.392 . S
C194 H207 0.951 . S
C195 C194 1.392 . S
C195 C197 1.384 . S
H196 C198 0.949 . S
C197 C195 1.384 . S
C197 C198 1.385 . S
C197 H199 0.950 . S
C198 C192 1.404 . S
C198 H196 0.949 . S
C198 C197 1.385 . S
H199 C197 0.950 . S
H200 C184 0.951 . S
H201 C186 0.951 1_655 S
H202 C188 0.951 . S
H203 C189 0.950 . S
H204 C190 0.950 . S
H205 C191 0.950 . S
H206 C193 0.950 . S
H207 C194 0.951 . S
C208 C209 1.386 1_565 S
C208 C210 1.383 1_565 S
C208 H224 0.951 . S
C209 C208 1.386 1_545 S
C209 C213 1.383 . S
C210 C208 1.383 1_545 S
C210 C211 1.402 . S
C210 H225 0.951 . S
C211 C210 1.402 . S
C211 C212 1.375 . S
C211 C214 1.481 . S
C212 C211 1.375 . S
C212 C213 1.367 . S
C212 H226 0.951 . S
C213 C209 1.383 . S
C213 C212 1.367 . S
C213 H227 0.950 . S
C214 C211 1.481 . S
C214 C215 1.297 . S
C214 H228 0.950 . S
C215 C214 1.297 . S
C215 C216 1.479 . S
C215 H229 0.950 . S
C216 C215 1.479 . S
C216 C217 1.375 . S
C216 C222 1.404 . S
C217 C216 1.375 . S
C217 C218 1.369 . S
C217 H230 0.950 . S
C218 C217 1.369 . S
C218 C219 1.392 . S
C218 H231 0.951 . S
C219 C218 1.392 . S
C219 C221 1.384 . S
H220 C222 0.949 . S
C221 C219 1.384 . S
C221 C222 1.385 . S
C221 H223 0.950 . S
C222 C216 1.404 . S
C222 H220 0.949 . S
C222 C221 1.385 . S
H223 C221 0.950 . S
H224 C208 0.951 . S
H225 C210 0.951 . S
H226 C212 0.951 . S
H227 C213 0.950 . S
H228 C214 0.950 . S
H229 C215 0.950 . S
H230 C217 0.950 . S
H231 C218 0.951 . S
C232 C233 1.386 . S
C232 C234 1.383 . S
C232 H248 0.951 . S
C233 C232 1.386 . S
C233 C237 1.383 . S
C234 C232 1.383 . S
C234 C235 1.402 . S
C234 H249 0.951 . S
C235 C234 1.402 . S
C235 C236 1.375 . S
C235 C238 1.481 . S
C236 C235 1.375 . S
C236 C237 1.367 . S
C236 H250 0.951 . S
C237 C233 1.383 . S
C237 C236 1.367 . S
C237 H251 0.950 . S
C238 C235 1.481 . S
C238 C239 1.297 . S
C238 H252 0.950 . S
C239 C238 1.297 . S
C239 C240 1.479 . S
C239 H253 0.950 . S
C240 C239 1.479 . S
C240 C241 1.375 1_455 S
C240 C246 1.404 . S
C241 C240 1.375 1_655 S
C241 C242 1.369 . S
C241 H254 0.950 . S
C242 C241 1.369 . S
C242 C243 1.392 . S
C242 H255 0.951 . S
C243 C242 1.392 . S
C243 C245 1.384 1_655 S
H244 C246 0.949 . S
C245 C243 1.384 1_455 S
C245 C246 1.385 . S
C245 H247 0.950 . S
C246 C240 1.404 . S
C246 H244 0.949 . S
C246 C245 1.385 . S
H247 C245 0.950 . S
H248 C232 0.951 . S
H249 C234 0.951 . S
H250 C236 0.951 . S
H251 C237 0.950 . S
H252 C238 0.950 . S
H253 C239 0.950 . S
H254 C241 0.950 . S
H255 C242 0.951 . S
C256 C257 1.386 . S
C256 C258 1.383 . S
C256 H272 0.951 . S
C257 C256 1.386 . S
C257 C261 1.383 . S
C258 C256 1.383 . S
C258 C259 1.402 . S
C258 H273 0.951 . S
C259 C258 1.402 . S
C259 C260 1.375 . S
C259 C262 1.481 . S
C260 C259 1.375 . S
C260 C261 1.367 . S
C260 H274 0.951 . S
C261 C257 1.383 . S
C261 C260 1.367 . S
C261 H275 0.950 . S
C262 C259 1.481 . S
C262 C263 1.297 . S
C262 H276 0.950 . S
C263 C262 1.297 . S
C263 C264 1.479 . S
C263 H277 0.950 . S
C264 C263 1.479 . S
C264 C265 1.375 . S
C264 C270 1.404 . S
C265 C264 1.375 . S
C265 C266 1.369 . S
C265 H278 0.950 . S
C266 C265 1.369 . S
C266 C267 1.392 . S
C266 H279 0.951 . S
C267 C266 1.392 . S
C267 C269 1.384 . S
H268 C270 0.949 . S
C269 C267 1.384 . S
C269 C270 1.385 . S
C269 H271 0.950 . S
C270 C264 1.404 . S
C270 H268 0.949 . S
C270 C269 1.385 . S
H271 C269 0.950 . S
H272 C256 0.951 . S
H273 C258 0.951 . S
H274 C260 0.951 . S
H275 C261 0.950 . S
H276 C262 0.950 . S
H277 C263 0.950 . S
H278 C265 0.950 . S
H279 C266 0.951 . S
C280 C281 1.386 . S
C280 C282 1.383 . S
C280 H296 0.951 . S
C281 C280 1.386 . S
C281 C285 1.383 . S
C282 C280 1.383 . S
C282 C283 1.402 . S
C282 H297 0.951 . S
C283 C282 1.402 . S
C283 C284 1.375 . S
C283 C286 1.481 1_455 S
C284 C283 1.375 . S
C284 C285 1.367 . S
C284 H298 0.951 1_455 S
C285 C281 1.383 . S
C285 C284 1.367 . S
C285 H299 0.950 . S
C286 C283 1.481 1_655 S
C286 C287 1.297 1_655 S
C286 H300 0.950 . S
C287 C286 1.297 1_455 S
C287 C288 1.479 1_455 S
C287 H301 0.950 . S
C288 C287 1.479 1_655 S
C288 C289 1.375 . S
C288 C294 1.404 . S
C289 C288 1.375 . S
C289 C290 1.369 . S
C289 H302 0.950 1_655 S
C290 C289 1.369 . S
C290 C291 1.392 . S
C290 H303 0.951 . S
C291 C290 1.392 . S
C291 C293 1.384 . S
H292 C294 0.949 . S
C293 C291 1.384 . S
C293 C294 1.385 . S
C293 H295 0.950 . S
C294 C288 1.404 . S
C294 H292 0.949 . S
C294 C293 1.385 . S
H295 C293 0.950 . S
H296 C280 0.951 . S
H297 C282 0.951 . S
H298 C284 0.951 1_655 S
H299 C285 0.950 . S
H300 C286 0.950 . S
H301 C287 0.950 . S
H302 C289 0.950 1_455 S
H303 C290 0.951 . S
C304 C305 1.386 . S
C304 C306 1.383 . S
C304 H320 0.951 . S
C305 C304 1.386 . S
C305 C309 1.383 . S
C306 C304 1.383 . S
C306 C307 1.402 . S
C306 H321 0.951 . S
C307 C306 1.402 . S
C307 C308 1.375 . S
C307 C310 1.481 . S
C308 C307 1.375 . S
C308 C309 1.367 . S
C308 H322 0.951 . S
C309 C305 1.383 . S
C309 C308 1.367 . S
C309 H323 0.950 . S
C310 C307 1.481 . S
C310 C311 1.297 . S
C310 H324 0.950 . S
C311 C310 1.297 . S
C311 C312 1.479 . S
C311 H325 0.950 . S
C312 C311 1.479 . S
C312 C313 1.375 . S
C312 C318 1.404 . S
C313 C312 1.375 . S
C313 C314 1.369 . S
C313 H326 0.950 . S
C314 C313 1.369 . S
C314 C315 1.392 . S
C314 H327 0.951 . S
C315 C314 1.392 . S
C315 C317 1.384 . S
H316 C318 0.949 . S
C317 C315 1.384 . S
C317 C318 1.385 . S
C317 H319 0.950 . S
C318 C312 1.404 . S
C318 H316 0.949 . S
C318 C317 1.385 . S
H319 C317 0.950 . S
H320 C304 0.951 . S
H321 C306 0.951 . S
H322 C308 0.951 . S
H323 C309 0.950 . S
H324 C310 0.950 . S
H325 C311 0.950 . S
H326 C313 0.950 . S
H327 C314 0.951 . S
C328 C329 1.386 . S
C328 C330 1.383 . S
C328 H344 0.951 . S
C329 C328 1.386 . S
C329 C333 1.383 . S
C330 C328 1.383 . S
C330 C331 1.402 . S
C330 H345 0.951 . S
C331 C330 1.402 . S
C331 C332 1.375 . S
C331 C334 1.481 . S
C332 C331 1.375 . S
C332 C333 1.367 . S
C332 H346 0.951 . S
C333 C329 1.383 . S
C333 C332 1.367 . S
C333 H347 0.950 . S
C334 C331 1.481 . S
C334 C335 1.297 . S
C334 H348 0.950 . S
C335 C334 1.297 . S
C335 C336 1.479 . S
C335 H349 0.950 . S
C336 C335 1.479 . S
C336 C337 1.375 . S
C336 C342 1.404 . S
C337 C336 1.375 . S
C337 C338 1.369 1_565 S
C337 H350 0.950 1_565 S
C338 C337 1.369 1_545 S
C338 C339 1.392 1_545 S
C338 H351 0.951 . S
C339 C338 1.392 1_565 S
C339 C341 1.384 . S
H340 C342 0.949 . S
C341 C339 1.384 . S
C341 C342 1.385 . S
C341 H343 0.950 . S
C342 C336 1.404 . S
C342 H340 0.949 . S
C342 C341 1.385 . S
H343 C341 0.950 . S
H344 C328 0.951 . S
H345 C330 0.951 . S
H346 C332 0.951 . S
H347 C333 0.950 . S
H348 C334 0.950 . S
H349 C335 0.950 . S
H350 C337 0.950 1_545 S
H351 C338 0.951 . S
C352 C353 1.386 . S
C352 C354 1.383 . S
C352 H368 0.951 . S
C353 C352 1.386 . S
C353 C357 1.383 . S
C354 C352 1.383 . S
C354 C355 1.402 . S
C354 H369 0.951 . S
C355 C354 1.402 . S
C355 C356 1.375 . S
C355 C358 1.481 . S
C356 C355 1.375 . S
C356 C357 1.367 . S
C356 H370 0.951 . S
C357 C353 1.383 . S
C357 C356 1.367 . S
C357 H371 0.950 . S
C358 C355 1.481 . S
C358 C359 1.297 . S
C358 H372 0.950 . S
C359 C358 1.297 . S
C359 C360 1.479 . S
C359 H373 0.950 . S
C360 C359 1.479 . S
C360 C361 1.375 . S
C360 C366 1.404 . S
C361 C360 1.375 . S
C361 C362 1.369 . S
C361 H374 0.950 . S
C362 C361 1.369 . S
C362 C363 1.392 . S
C362 H375 0.951 . S
C363 C362 1.392 . S
C363 C365 1.384 . S
H364 C366 0.949 . S
C365 C363 1.384 . S
C365 C366 1.385 . S
C365 H367 0.950 . S
C366 C360 1.404 . S
C366 H364 0.949 . S
C366 C365 1.385 . S
H367 C365 0.950 . S
H368 C352 0.951 . S
H369 C354 0.951 . S
H370 C356 0.951 . S
H371 C357 0.950 . S
H372 C358 0.950 . S
H373 C359 0.950 . S
H374 C361 0.950 . S
H375 C362 0.951 . S
C376 C377 1.386 . S
C376 C378 1.383 1_545 S
C376 H392 0.951 . S
C377 C376 1.386 . S
C377 C381 1.383 . S
C378 C376 1.383 1_565 S
C378 C379 1.402 . S
C378 H393 0.951 . S
C379 C378 1.402 . S
C379 C380 1.375 1_565 S
C379 C382 1.481 . S
C380 C379 1.375 1_545 S
C380 C381 1.367 . S
C380 H394 0.951 . S
C381 C377 1.383 . S
C381 C380 1.367 . S
C381 H395 0.950 . S
C382 C379 1.481 . S
C382 C383 1.297 . S
C382 H396 0.950 . S
C383 C382 1.297 . S
C383 C384 1.479 . S
C383 H397 0.950 . S
C384 C383 1.479 . S
C384 C385 1.375 . S
C384 C390 1.404 . S
C385 C384 1.375 . S
C385 C386 1.369 . S
C385 H398 0.950 . S
C386 C385 1.369 . S
C386 C387 1.392 . S
C386 H399 0.951 . S
C387 C386 1.392 . S
C387 C389 1.384 . S
H388 C390 0.949 . S
C389 C387 1.384 . S
C389 C390 1.385 . S
C389 H391 0.950 . S
C390 C384 1.404 . S
C390 H388 0.949 . S
C390 C389 1.385 . S
H391 C389 0.950 . S
H392 C376 0.951 . S
H393 C378 0.951 . S
H394 C380 0.951 . S
H395 C381 0.950 . S
H396 C382 0.950 . S
H397 C383 0.950 . S
H398 C385 0.950 . S
H399 C386 0.951 . S
C400 C401 1.386 . S
C400 C402 1.383 . S
C400 H416 0.951 . S
C401 C400 1.386 . S
C401 C405 1.383 . S
C402 C400 1.383 . S
C402 C403 1.402 . S
C402 H417 0.951 . S
C403 C402 1.402 . S
C403 C404 1.375 . S
C403 C406 1.481 . S
C404 C403 1.375 . S
C404 C405 1.367 . S
C404 H418 0.951 . S
C405 C401 1.383 . S
C405 C404 1.367 . S
C405 H419 0.950 . S
C406 C403 1.481 . S
C406 C407 1.297 . S
C406 H420 0.950 . S
C407 C406 1.297 . S
C407 C408 1.479 . S
C407 H421 0.950 . S
C408 C407 1.479 . S
C408 C409 1.375 . S
C408 C414 1.404 . S
C409 C408 1.375 . S
C409 C410 1.369 . S
C409 H422 0.950 . S
C410 C409 1.369 . S
C410 C411 1.392 1_556 S
C410 H423 0.951 1_556 S
C411 C410 1.392 1_554 S
C411 C413 1.384 . S
H412 C414 0.949 . S
C413 C411 1.384 . S
C413 C414 1.385 1_554 S
C413 H415 0.950 . S
C414 C408 1.404 . S
C414 H412 0.949 . S
C414 C413 1.385 1_556 S
H415 C413 0.950 . S
H416 C400 0.951 . S
H417 C402 0.951 . S
H418 C404 0.951 . S
H419 C405 0.950 . S
H420 C406 0.950 . S
H421 C407 0.950 . S
H422 C409 0.950 . S
H423 C410 0.951 1_554 S
C424 C425 1.386 . S
C424 C426 1.383 . S
C424 H440 0.951 . S
C425 C424 1.386 . S
C425 C429 1.383 . S
C426 C424 1.383 . S
C426 C427 1.402 . S
C426 H441 0.951 . S
C427 C426 1.402 . S
C427 C428 1.375 . S
C427 C430 1.481 . S
C428 C427 1.375 . S
C428 C429 1.367 . S
C428 H442 0.951 . S
C429 C425 1.383 . S
C429 C428 1.367 . S
C429 H443 0.950 . S
C430 C427 1.481 . S
C430 C431 1.297 . S
C430 H444 0.950 . S
C431 C430 1.297 . S
C431 C432 1.479 . S
C431 H445 0.950 . S
C432 C431 1.479 . S
C432 C433 1.375 . S
C432 C438 1.404 . S
C433 C432 1.375 . S
C433 C434 1.369 . S
C433 H446 0.950 . S
C434 C433 1.369 . S
C434 C435 1.392 . S
C434 H447 0.951 . S
C435 C434 1.392 . S
C435 C437 1.384 1_655 S
H436 C438 0.949 1_455 S
C437 C435 1.384 1_455 S
C437 C438 1.385 1_455 S
C437 H439 0.950 . S
C438 C432 1.404 . S
C438 H436 0.949 1_655 S
C438 C437 1.385 1_655 S
H439 C437 0.950 . S
H440 C424 0.951 . S
H441 C426 0.951 . S
H442 C428 0.951 . S
H443 C429 0.950 . S
H444 C430 0.950 . S
H445 C431 0.950 . S
H446 C433 0.950 . S
H447 C434 0.951 . S
C161 C88 0.564 . S
C171 C8 0.604 . S
C185 C128 0.731 1_655 S
C195 C58 0.758 . S
C209 C98 1.166 1_545 S
C219 C18 1.154 . S
C233 C48 1.139 . S
C243 C138 1.155 . S
C257 C59 0.605 . S
C267 C15 0.500 . S
C281 C49 0.505 . S
C291 C85 0.616 . S
C305 C135 0.360 . S
C315 C95 0.180 . S
C329 C125 0.337 . S
C339 C5 0.338 . S
C353 C89 3.323 1_556 S
C363 C129 3.272 . S
C377 C19 3.370 . S
C387 C139 3.351 . S
C401 C45 2.856 . S
C411 C9 2.832 . S
C425 C99 2.496 . S
C435 C55 2.415 1_655 S
