# Generated by pormake.
# Topology upc, (4)-cn, num edge types: 1
# Building blocks:
#     Node 0, Type 0, BuildingBlock: GALJAG_clean_sbu_0, # of connection points: 4
#     Node 1, Type 0, BuildingBlock: GALJAG_clean_sbu_0, # of connection points: 4
#     Node 2, Type 0, BuildingBlock: GALJAG_clean_sbu_0, # of connection points: 4
#     Node 3, Type 0, BuildingBlock: GALJAG_clean_sbu_0, # of connection points: 4
#     Node 4, Type 0, BuildingBlock: GALJAG_clean_sbu_0, # of connection points: 4
#     Node 5, Type 0, BuildingBlock: GALJAG_clean_sbu_0, # of connection points: 4
#     Node 6, Type 0, BuildingBlock: GALJAG_clean_sbu_0, # of connection points: 4
#     Node 7, Type 0, BuildingBlock: GALJAG_clean_sbu_0, # of connection points: 4
#     Node 8, Type 0, BuildingBlock: GALJAG_clean_sbu_0, # of connection points: 4
#     Node 9, Type 0, BuildingBlock: GALJAG_clean_sbu_0, # of connection points: 4
#     Node 10, Type 0, BuildingBlock: GALJAG_clean_sbu_0, # of connection points: 4
#     Node 11, Type 0, BuildingBlock: GALJAG_clean_sbu_0, # of connection points: 4
#     Node 12, Type 0, BuildingBlock: GALJAG_clean_sbu_0, # of connection points: 4
#     Node 13, Type 0, BuildingBlock: GALJAG_clean_sbu_0, # of connection points: 4
#     Node 14, Type 0, BuildingBlock: GALJAG_clean_sbu_0, # of connection points: 4
#     Node 15, Type 0, BuildingBlock: GALJAG_clean_sbu_0, # of connection points: 4
#     Edge 16, Type (0, 0), BuildingBlock: XIVTED_clean_linker_0, # of connection points: 2
#     Edge 17, Type (0, 0), BuildingBlock: XIVTED_clean_linker_0, # of connection points: 2
#     Edge 18, Type (0, 0), BuildingBlock: XIVTED_clean_linker_0, # of connection points: 2
#     Edge 19, Type (0, 0), BuildingBlock: XIVTED_clean_linker_0, # of connection points: 2
#     Edge 20, Type (0, 0), BuildingBlock: XIVTED_clean_linker_0, # of connection points: 2
#     Edge 21, Type (0, 0), BuildingBlock: XIVTED_clean_linker_0, # of connection points: 2
#     Edge 22, Type (0, 0), BuildingBlock: XIVTED_clean_linker_0, # of connection points: 2
#     Edge 23, Type (0, 0), BuildingBlock: XIVTED_clean_linker_0, # of connection points: 2
#     Edge 24, Type (0, 0), BuildingBlock: XIVTED_clean_linker_0, # of connection points: 2
#     Edge 25, Type (0, 0), BuildingBlock: XIVTED_clean_linker_0, # of connection points: 2
#     Edge 26, Type (0, 0), BuildingBlock: XIVTED_clean_linker_0, # of connection points: 2
#     Edge 27, Type (0, 0), BuildingBlock: XIVTED_clean_linker_0, # of connection points: 2
#     Edge 28, Type (0, 0), BuildingBlock: XIVTED_clean_linker_0, # of connection points: 2
#     Edge 29, Type (0, 0), BuildingBlock: XIVTED_clean_linker_0, # of connection points: 2
#     Edge 30, Type (0, 0), BuildingBlock: XIVTED_clean_linker_0, # of connection points: 2
#     Edge 31, Type (0, 0), BuildingBlock: XIVTED_clean_linker_0, # of connection points: 2
#     Edge 32, Type (0, 0), BuildingBlock: XIVTED_clean_linker_0, # of connection points: 2
#     Edge 33, Type (0, 0), BuildingBlock: XIVTED_clean_linker_0, # of connection points: 2
#     Edge 34, Type (0, 0), BuildingBlock: XIVTED_clean_linker_0, # of connection points: 2
#     Edge 35, Type (0, 0), BuildingBlock: XIVTED_clean_linker_0, # of connection points: 2
#     Edge 36, Type (0, 0), BuildingBlock: XIVTED_clean_linker_0, # of connection points: 2
#     Edge 37, Type (0, 0), BuildingBlock: XIVTED_clean_linker_0, # of connection points: 2
#     Edge 38, Type (0, 0), BuildingBlock: XIVTED_clean_linker_0, # of connection points: 2
#     Edge 39, Type (0, 0), BuildingBlock: XIVTED_clean_linker_0, # of connection points: 2
#     Edge 40, Type (0, 0), BuildingBlock: XIVTED_clean_linker_0, # of connection points: 2
#     Edge 41, Type (0, 0), BuildingBlock: XIVTED_clean_linker_0, # of connection points: 2
#     Edge 42, Type (0, 0), BuildingBlock: XIVTED_clean_linker_0, # of connection points: 2
#     Edge 43, Type (0, 0), BuildingBlock: XIVTED_clean_linker_0, # of connection points: 2
#     Edge 44, Type (0, 0), BuildingBlock: XIVTED_clean_linker_0, # of connection points: 2
#     Edge 45, Type (0, 0), BuildingBlock: XIVTED_clean_linker_0, # of connection points: 2
#     Edge 46, Type (0, 0), BuildingBlock: XIVTED_clean_linker_0, # of connection points: 2
#     Edge 47, Type (0, 0), BuildingBlock: XIVTED_clean_linker_0, # of connection points: 2
# Relax obj value: 0.220
# Max RMSD: 0.228
# Mean RMSD: 0.228
data_MOF--net-upc--node1-GALJAG_clean_sbu_0--edge1-XIVTED_clean_linker_0
_symmetry_space_group_name_H-M    P1
_symmetry_Int_Tables_number       1
_symmetry_cell_setting            triclinic
loop_
_symmetry_equiv_pos_as_xyz
'x, y, z'
_cell_length_a     35.690613
_cell_length_b     35.696142
_cell_length_c     40.326497
_cell_angle_alpha  89.982951
_cell_angle_beta   90.043919
_cell_angle_gamma 90.181834
loop_
_atom_site_label
_atom_site_type_symbol
_atom_site_fract_x
_atom_site_fract_y
_atom_site_fract_z
_atom_type_partial_charge
In0 In 0.09915 0.59477 0.1415 0.0
O1 O 0.12506 0.5488 0.17469 0.0
O2 O 0.07473 0.53684 0.14869 0.0
C3 C 0.16329 0.63531 0.13585 0.0
C4 C 0.0714 0.57558 0.08219 0.0
C5 C 0.05475 0.63981 0.17845 0.0
O6 O 0.15444 0.61802 0.16195 0.0
O7 O 0.14104 0.6303 0.11201 0.0
O8 O 0.06398 0.64761 0.14911 0.0
O9 O 0.06704 0.60895 0.18877 0.0
C10 C 0.09935 0.52538 0.16854 0.0
O11 O 0.05352 0.59554 0.10265 0.0
O12 O 0.10418 0.56654 0.09116 0.0
In13 In 0.88705 0.09294 0.12638 0.0
O14 O 0.88675 0.05045 0.0849 0.0
O15 O 0.92111 0.09899 0.07896 0.0
C16 C 0.83512 0.05032 0.15726 0.0
C17 C 0.9534 0.08654 0.1579 0.0
C18 C 0.84953 0.15859 0.1234 0.0
O19 O 0.83178 0.06052 0.12749 0.0
O20 O 0.86497 0.06089 0.17112 0.0
O21 O 0.86307 0.14582 0.14997 0.0
O22 O 0.85706 0.13953 0.09795 0.0
C23 C 0.91054 0.06773 0.06744 0.0
O24 O 0.93607 0.11738 0.15709 0.0
O25 O 0.93716 0.05992 0.14325 0.0
In26 In 0.41031 0.89127 0.13784 0.0
O27 O 0.38034 0.93525 0.17039 0.0
O28 O 0.43156 0.9501 0.14716 0.0
C29 C 0.34859 0.84692 0.13419 0.0
C30 C 0.43653 0.91208 0.0784 0.0
C31 C 0.45829 0.84809 0.17284 0.0
O32 O 0.36041 0.86076 0.16097 0.0
O33 O 0.36655 0.85718 0.10884 0.0
O34 O 0.44767 0.8398 0.14395 0.0
O35 O 0.44569 0.87867 0.18357 0.0
C36 C 0.40514 0.96002 0.16576 0.0
O37 O 0.4554 0.89256 0.09851 0.0
O38 O 0.4035 0.91953 0.08767 0.0
In39 In 0.60018 0.40964 0.13287 0.0
O40 O 0.55908 0.38179 0.16949 0.0
O41 O 0.54218 0.43145 0.14488 0.0
C42 C 0.64172 0.34649 0.12837 0.0
C43 C 0.5763 0.43457 0.07394 0.0
C44 C 0.64799 0.45677 0.16427 0.0
O45 O 0.6278 0.35787 0.15522 0.0
O46 O 0.63276 0.36562 0.10332 0.0
O47 O 0.65458 0.44341 0.13599 0.0
O48 O 0.61673 0.44748 0.17617 0.0
C49 C 0.53405 0.40633 0.16555 0.0
O50 O 0.5966 0.45397 0.09309 0.0
O51 O 0.56911 0.40174 0.08402 0.0
In52 In 0.0998 0.89946 0.35285 0.0
O53 O 0.04718 0.91308 0.38204 0.0
O54 O 0.09911 0.93462 0.39995 0.0
C55 C 0.05324 0.84761 0.32653 0.0
C56 C 0.10952 0.95771 0.31087 0.0
C57 C 0.16377 0.86062 0.36415 0.0
O58 O 0.0716 0.84194 0.35277 0.0
O59 O 0.05719 0.87992 0.31442 0.0
O60 O 0.15791 0.87876 0.33787 0.0
O61 O 0.13849 0.86406 0.38571 0.0
C62 C 0.06395 0.93284 0.40339 0.0
O63 O 0.10934 0.92402 0.30144 0.0
O64 O 0.10713 0.96198 0.34183 0.0
In65 In 0.59448 0.09961 0.35247 0.0
O66 O 0.58287 0.04744 0.38276 0.0
O67 O 0.56985 0.10022 0.40455 0.0
C68 C 0.63193 0.05574 0.30939 0.0
C69 C 0.52971 0.1114 0.31918 0.0
C70 C 0.64391 0.1547 0.36846 0.0
O71 O 0.63529 0.05229 0.34038 0.0
O72 O 0.60921 0.08066 0.30032 0.0
O73 O 0.61011 0.16171 0.36164 0.0
O74 O 0.65197 0.12047 0.36805 0.0
C75 C 0.56951 0.06491 0.40723 0.0
O76 O 0.56043 0.12581 0.31011 0.0
O77 O 0.53153 0.09312 0.34583 0.0
In78 In 0.40971 0.60578 0.36218 0.0
O79 O 0.38021 0.56451 0.32666 0.0
O80 O 0.43043 0.54738 0.35027 0.0
C81 C 0.34788 0.6495 0.36554 0.0
C82 C 0.43436 0.58208 0.4213 0.0
C83 C 0.45857 0.6509 0.32981 0.0
O84 O 0.36012 0.63599 0.33883 0.0
O85 O 0.36547 0.63917 0.39107 0.0
O86 O 0.44593 0.65861 0.35815 0.0
O87 O 0.44764 0.61991 0.31843 0.0
C88 C 0.40459 0.53927 0.33028 0.0
O89 O 0.45372 0.60261 0.40232 0.0
O90 O 0.40158 0.57486 0.41108 0.0
In91 In 0.89281 0.4065 0.35519 0.0
O92 O 0.92104 0.38501 0.30808 0.0
O93 O 0.95587 0.39997 0.34871 0.0
C94 C 0.84593 0.34932 0.37182 0.0
C95 C 0.92443 0.44423 0.40581 0.0
C96 C 0.85124 0.45223 0.31658 0.0
O97 O 0.87709 0.34383 0.35798 0.0
O98 O 0.83937 0.38307 0.37838 0.0
O99 O 0.84494 0.44796 0.34711 0.0
O100 O 0.87901 0.43427 0.30584 0.0
C101 C 0.954 0.38917 0.31899 0.0
O102 O 0.91104 0.46038 0.38064 0.0
O103 O 0.92062 0.40902 0.40603 0.0
In104 In 0.89939 0.40501 0.85253 0.0
O105 O 0.95298 0.41763 0.88093 0.0
O106 O 0.90138 0.43626 0.90164 0.0
C107 C 0.94565 0.3562 0.82202 0.0
C108 C 0.88709 0.46648 0.81491 0.0
C109 C 0.83645 0.36415 0.86379 0.0
O110 O 0.92906 0.34859 0.84879 0.0
O111 O 0.94007 0.38891 0.8114 0.0
O112 O 0.84135 0.38337 0.83796 0.0
O113 O 0.86221 0.36736 0.88498 0.0
C114 C 0.93668 0.43505 0.904 0.0
O115 O 0.88662 0.43368 0.8033 0.0
O116 O 0.89154 0.46817 0.84588 0.0
In117 In 0.09724 0.89364 0.85071 0.0
O118 O 0.08325 0.94694 0.87852 0.0
O119 O 0.06259 0.89543 0.8981 0.0
C120 C 0.15224 0.93905 0.82852 0.0
C121 C 0.03931 0.88491 0.80832 0.0
C122 C 0.13443 0.82841 0.85943 0.0
O123 O 0.12069 0.93675 0.81454 0.0
O124 O 0.15553 0.91944 0.85438 0.0
O125 O 0.11819 0.83701 0.83278 0.0
O126 O 0.1297 0.85152 0.88268 0.0
C127 C 0.06403 0.93072 0.90052 0.0
O128 O 0.03509 0.88397 0.83935 0.0
O129 O 0.0728 0.88852 0.79886 0.0
In130 In 0.59933 0.10161 0.85555 0.0
O131 O 0.54662 0.08418 0.88305 0.0
O132 O 0.5992 0.06913 0.90418 0.0
C133 C 0.54935 0.14895 0.82806 0.0
C134 C 0.61572 0.04234 0.81648 0.0
C135 C 0.65996 0.14617 0.8656 0.0
O136 O 0.55628 0.11706 0.81617 0.0
O137 O 0.56654 0.15637 0.85462 0.0
O138 O 0.65411 0.12866 0.83899 0.0
O139 O 0.63649 0.13939 0.88817 0.0
C140 C 0.56387 0.06747 0.90601 0.0
O141 O 0.61372 0.03975 0.8476 0.0
O142 O 0.61139 0.07507 0.80538 0.0
In143 In 0.39663 0.59222 0.84237 0.0
O144 O 0.42845 0.60355 0.79433 0.0
O145 O 0.45786 0.61096 0.83953 0.0
C146 C 0.3506 0.6515 0.85159 0.0
C147 C 0.42805 0.55593 0.89365 0.0
C148 C 0.35072 0.54237 0.81258 0.0
O149 O 0.36856 0.64621 0.82514 0.0
O150 O 0.35743 0.62808 0.87415 0.0
O151 O 0.343 0.55749 0.84 0.0
O152 O 0.38227 0.55131 0.80088 0.0
C153 C 0.45921 0.6109 0.80832 0.0
O154 O 0.4149 0.53894 0.86876 0.0
O155 O 0.42427 0.5911 0.89308 0.0
In156 In 0.90502 0.10553 0.63333 0.0
O157 O 0.94961 0.10651 0.59346 0.0
O158 O 0.89881 0.0769 0.58329 0.0
C159 C 0.94954 0.15191 0.66904 0.0
C160 C 0.90483 0.03628 0.66032 0.0
C161 C 0.84056 0.14511 0.63011 0.0
O162 O 0.93888 0.15956 0.64003 0.0
O163 O 0.93886 0.12041 0.67949 0.0
O164 O 0.852 0.12974 0.65633 0.0
O165 O 0.86043 0.13869 0.60492 0.0
C166 C 0.93136 0.08592 0.57365 0.0
O167 O 0.87812 0.05877 0.66511 0.0
O168 O 0.93072 0.04876 0.64227 0.0
In169 In 0.40605 0.9015 0.64298 0.0
O170 O 0.41033 0.94907 0.60636 0.0
O171 O 0.43325 0.89623 0.59214 0.0
C172 C 0.3648 0.94229 0.68611 0.0
C173 C 0.47554 0.8994 0.66938 0.0
C174 C 0.36096 0.84181 0.63094 0.0
O175 O 0.35993 0.94379 0.65522 0.0
O176 O 0.39081 0.92089 0.69511 0.0
O177 O 0.38795 0.84032 0.65111 0.0
O178 O 0.35804 0.87252 0.61586 0.0
C179 C 0.4279 0.93032 0.58484 0.0
O180 O 0.45199 0.87357 0.67481 0.0
O181 O 0.46402 0.92523 0.6508 0.0
In182 In 0.59515 0.39972 0.6492 0.0
O183 O 0.54133 0.41633 0.62265 0.0
O184 O 0.59323 0.42664 0.59821 0.0
C185 C 0.5465 0.35441 0.6812 0.0
C186 C 0.6125 0.46359 0.68188 0.0
C187 C 0.65528 0.35473 0.63988 0.0
O188 O 0.56045 0.34614 0.65342 0.0
O189 O 0.556 0.38612 0.69215 0.0
O190 O 0.65084 0.3742 0.66561 0.0
O191 O 0.63047 0.35938 0.61807 0.0
C192 C 0.55798 0.42967 0.59766 0.0
O193 O 0.60689 0.43283 0.69648 0.0
O194 O 0.61165 0.46162 0.6507 0.0
In195 In 0.10314 0.59721 0.63561 0.0
O196 O 0.06312 0.62318 0.67437 0.0
O197 O 0.04207 0.58128 0.64223 0.0
C198 C 0.14777 0.65882 0.63441 0.0
C199 C 0.08267 0.57211 0.57569 0.0
C200 C 0.14644 0.54551 0.66585 0.0
O201 O 0.13875 0.64202 0.66065 0.0
O202 O 0.13247 0.64602 0.60858 0.0
O203 O 0.11526 0.55573 0.67731 0.0
O204 O 0.15506 0.56031 0.6385 0.0
C205 C 0.03556 0.60311 0.66593 0.0
O206 O 0.10183 0.55281 0.59574 0.0
O207 O 0.0755 0.60512 0.58521 0.0
H208 H 0.20728 0.65958 0.18706 0.0
H209 H 0.31683 0.81361 0.07968 0.0
H210 H 0.1882 0.67554 0.08234 0.0
H211 H 0.31476 0.81236 0.18665 0.0
H212 H 0.27329 0.76034 0.07921 0.0
H213 H 0.25198 0.7116 0.18629 0.0
C214 C 0.21288 0.6737 0.1638 0.0
C215 C 0.19397 0.66324 0.13472 0.0
C216 C 0.28221 0.77189 0.10276 0.0
C217 C 0.2448 0.72314 0.13373 0.0
C218 C 0.30692 0.80237 0.10304 0.0
C219 C 0.31932 0.81751 0.13325 0.0
C220 C 0.27018 0.75619 0.13291 0.0
C221 C 0.30578 0.8017 0.16279 0.0
C222 C 0.23818 0.70362 0.16343 0.0
C223 C 0.20217 0.6827 0.10533 0.0
N224 N 0.28215 0.77179 0.16188 0.0
N225 N 0.22692 0.71177 0.10558 0.0
H226 H 0.81569 0.19074 0.0695 0.0
H227 H 0.67136 0.30751 0.18031 0.0
H228 H 0.82041 0.19629 0.1763 0.0
H229 H 0.6778 0.31823 0.07388 0.0
H230 H 0.72361 0.26356 0.1788 0.0
H231 H 0.76425 0.23599 0.07004 0.0
C232 C 0.80624 0.20187 0.09302 0.0
C233 C 0.82235 0.18975 0.1229 0.0
C234 C 0.71355 0.27539 0.15573 0.0
C235 C 0.76306 0.24089 0.12375 0.0
C236 C 0.68349 0.30026 0.15656 0.0
C237 C 0.67017 0.31651 0.12717 0.0
C238 C 0.73041 0.26653 0.12527 0.0
C239 C 0.68714 0.30627 0.09712 0.0
C240 C 0.77676 0.22754 0.09333 0.0
C241 C 0.80889 0.20493 0.15268 0.0
N242 N 0.71643 0.28197 0.09694 0.0
N243 N 0.77985 0.22946 0.15235 0.0
H244 H 0.18333 0.81861 0.41844 0.0
H245 H 0.31487 0.68357 0.31265 0.0
H246 H 0.21268 0.83849 0.31614 0.0
H247 H 0.31529 0.6829 0.41966 0.0
H248 H 0.27198 0.73664 0.31353 0.0
H249 H 0.22795 0.76646 0.41985 0.0
C250 C 0.19954 0.81235 0.39644 0.0
C251 C 0.19432 0.83292 0.36713 0.0
C252 C 0.28135 0.72486 0.33685 0.0
C253 C 0.24459 0.7729 0.36835 0.0
C254 C 0.30559 0.69432 0.33637 0.0
C255 C 0.31865 0.67877 0.36614 0.0
C256 C 0.26973 0.73988 0.36732 0.0
C257 C 0.30583 0.69404 0.39614 0.0
C258 C 0.22485 0.78252 0.39723 0.0
C259 C 0.21588 0.82348 0.3393 0.0
N260 N 0.28202 0.72378 0.39598 0.0
N261 N 0.23975 0.79395 0.3405 0.0
H262 H 0.85409 0.27353 0.36367 0.0
H263 H 0.63488 0.23099 0.37361 0.0
H264 H 0.77298 0.35756 0.39057 0.0
H265 H 0.71902 0.14448 0.37552 0.0
H266 H 0.68467 0.27827 0.37867 0.0
H267 H 0.80476 0.2258 0.36681 0.0
C268 C 0.826 0.28186 0.37056 0.0
C269 C 0.81761 0.31953 0.37683 0.0
C270 C 0.69215 0.24889 0.37827 0.0
C271 C 0.76092 0.26528 0.37997 0.0
C272 C 0.66375 0.22196 0.37535 0.0
C273 C 0.67283 0.1838 0.37405 0.0
C274 C 0.72984 0.23753 0.37945 0.0
C275 C 0.71073 0.17361 0.37639 0.0
C276 C 0.79783 0.25464 0.37235 0.0
C277 C 0.78069 0.3288 0.38558 0.0
N278 N 0.73781 0.20028 0.37868 0.0
N279 N 0.75363 0.30194 0.38657 0.0
H280 H 0.78833 0.34118 0.81541 0.0
H281 H 0.68322 0.18451 0.9211 0.0
H282 H 0.81728 0.32136 0.91783 0.0
H283 H 0.69994 0.1775 0.81531 0.0
H284 H 0.7247 0.2397 0.92255 0.0
H285 H 0.74575 0.28753 0.81729 0.0
C286 C 0.78527 0.32592 0.83848 0.0
C287 C 0.80647 0.33565 0.86649 0.0
C288 C 0.71941 0.2258 0.89913 0.0
C289 C 0.75798 0.27404 0.8687 0.0
C290 C 0.69593 0.19431 0.89829 0.0
C291 C 0.68827 0.17635 0.86805 0.0
C292 C 0.73453 0.23974 0.86943 0.0
C293 C 0.70523 0.19032 0.83919 0.0
C294 C 0.76124 0.29508 0.83943 0.0
C295 C 0.80148 0.31471 0.89567 0.0
N296 N 0.72721 0.22138 0.84055 0.0
N297 N 0.77772 0.28478 0.89604 0.0
H298 H 0.32041 0.69335 0.8019 0.0
H299 H 0.17393 0.80353 0.91358 0.0
H300 H 0.31129 0.67238 0.90699 0.0
H301 H 0.15924 0.78492 0.80862 0.0
H302 H 0.22724 0.76017 0.91303 0.0
H303 H 0.26564 0.73398 0.80509 0.0
C304 C 0.30715 0.69768 0.82575 0.0
C305 C 0.32039 0.6795 0.85424 0.0
C306 C 0.21199 0.76532 0.89026 0.0
C307 C 0.25749 0.72574 0.858 0.0
C308 C 0.18152 0.78987 0.89058 0.0
C309 C 0.16218 0.79784 0.86109 0.0
C310 C 0.22348 0.74928 0.86015 0.0
C311 C 0.17331 0.77957 0.83194 0.0
C312 C 0.27567 0.72058 0.82748 0.0
C313 C 0.30194 0.68593 0.88445 0.0
N314 N 0.20348 0.75653 0.83213 0.0
N315 N 0.27139 0.70863 0.88558 0.0
H316 H 0.70217 0.32997 0.68854 0.0
H317 H 0.80771 0.17937 0.57665 0.0
H318 H 0.67385 0.31242 0.58565 0.0
H319 H 0.80447 0.17466 0.68354 0.0
H320 H 0.76261 0.23109 0.57804 0.0
H321 H 0.74553 0.27724 0.68565 0.0
C322 C 0.70541 0.31528 0.66522 0.0
C323 C 0.68442 0.32558 0.63728 0.0
C324 C 0.77156 0.21846 0.60113 0.0
C325 C 0.73379 0.26503 0.63387 0.0
C326 C 0.79715 0.18891 0.60036 0.0
C327 C 0.8098 0.17271 0.63003 0.0
C328 C 0.75907 0.23223 0.63181 0.0
C329 C 0.79538 0.18624 0.66007 0.0
C330 C 0.72991 0.28498 0.66367 0.0
C331 C 0.68954 0.30538 0.60776 0.0
N332 N 0.77108 0.21545 0.6602 0.0
N333 N 0.71378 0.27606 0.60679 0.0
H334 H 0.19322 0.68013 0.68533 0.0
H335 H 0.30636 0.83478 0.58381 0.0
H336 H 0.17085 0.70237 0.58202 0.0
H337 H 0.34904 0.78243 0.6725 0.0
H338 H 0.25379 0.79047 0.58384 0.0
H339 H 0.24662 0.72295 0.68299 0.0
C340 C 0.19929 0.69437 0.66221 0.0
C341 C 0.17752 0.68773 0.63381 0.0
C342 C 0.27486 0.78847 0.60309 0.0
C343 C 0.23886 0.73661 0.63093 0.0
C344 C 0.3049 0.81365 0.60305 0.0
C345 C 0.3321 0.81221 0.62818 0.0
C346 C 0.27168 0.76211 0.62876 0.0
C347 C 0.32879 0.78439 0.65258 0.0
C348 C 0.23 0.71854 0.66084 0.0
C349 C 0.18689 0.70676 0.60449 0.0
N350 N 0.29889 0.76069 0.65246 0.0
N351 N 0.21686 0.73045 0.60381 0.0
H352 H 0.02617 0.40794 0.33487 0.0
H353 H 0.0601 0.46425 0.14849 0.0
H354 H 0.95675 0.37346 0.25266 0.0
H355 H 0.12511 0.50679 0.23045 0.0
H356 H 0.03567 0.41476 0.18419 0.0
H357 H 0.07474 0.42734 0.29574 0.0
C358 C 0.02157 0.40341 0.30861 0.0
C359 C 0.98699 0.38997 0.29691 0.0
C360 C 0.05594 0.43432 0.19428 0.0
C361 C 0.04221 0.41259 0.25206 0.0
C362 C 0.06999 0.46251 0.17385 0.0
C363 C 0.094 0.49002 0.18681 0.0
C364 C 0.06535 0.43413 0.2281 0.0
C365 C 0.10633 0.48628 0.21964 0.0
C366 C 0.04929 0.41466 0.28627 0.0
C367 C 0.98273 0.38435 0.26272 0.0
N368 N 0.09109 0.4594 0.23947 0.0
N369 N 0.00968 0.39642 0.24145 0.0
H370 H 0.98299 0.12734 0.20974 0.0
H371 H 0.08755 0.02946 0.32445 0.0
H372 H 0.0036 0.03119 0.14779 0.0
H373 H 0.11733 0.95634 0.24363 0.0
H374 H 0.06003 0.07296 0.28502 0.0
H375 H 0.03474 0.10805 0.24578 0.0
C376 C 0.99883 0.10249 0.20351 0.0
C377 C 0.9885 0.08025 0.17633 0.0
C378 C 0.07359 0.04818 0.27552 0.0
C379 C 0.04701 0.05731 0.21768 0.0
C380 C 0.08948 0.02322 0.29822 0.0
C381 C 0.10398 0.98886 0.28732 0.0
C382 C 0.0723 0.03853 0.24169 0.0
C383 C 0.10581 0.98222 0.25314 0.0
C384 C 0.02818 0.09116 0.2243 0.0
C385 C 0.0101 0.04863 0.16902 0.0
N386 N 0.08946 0.00644 0.23164 0.0
N387 N 0.03794 0.03791 0.18975 0.0
H388 H 0.46083 0.08219 0.33362 0.0
H389 H 0.4416 0.02348 0.14732 0.0
H390 H 0.52476 0.13091 0.25369 0.0
H391 H 0.37392 0.97731 0.22592 0.0
H392 H 0.4589 0.07559 0.18332 0.0
H393 H 0.4161 0.05757 0.29327 0.0
C394 C 0.46484 0.08869 0.30761 0.0
C395 C 0.49708 0.10777 0.29687 0.0
C396 C 0.43958 0.05461 0.19258 0.0
C397 C 0.44646 0.07898 0.25053 0.0
C398 C 0.42966 0.02486 0.17198 0.0
C399 C 0.40695 0.99576 0.18397 0.0
C400 C 0.42742 0.05476 0.2257 0.0
C401 C 0.39183 0.99907 0.21589 0.0
C402 C 0.43934 0.07447 0.28454 0.0
C403 C 0.50062 0.1158 0.26299 0.0
N404 N 0.40311 0.02757 0.236 0.0
N405 N 0.47614 0.10055 0.24093 0.0
H406 H 0.47032 0.44555 0.15329 0.0
H407 H 0.44265 0.47492 0.34271 0.0
H408 H 0.5231 0.37619 0.22723 0.0
H409 H 0.37362 0.52836 0.2689 0.0
H410 H 0.46157 0.42846 0.30174 0.0
H411 H 0.42444 0.46554 0.19439 0.0
C412 C 0.47163 0.43379 0.17804 0.0
C413 C 0.50094 0.40982 0.18714 0.0
C414 C 0.44154 0.44971 0.29459 0.0
C415 C 0.44916 0.43329 0.23457 0.0
C416 C 0.43071 0.47624 0.31803 0.0
C417 C 0.40717 0.50588 0.30891 0.0
C418 C 0.42946 0.45345 0.2616 0.0
C419 C 0.39215 0.50612 0.27679 0.0
C420 C 0.44542 0.44522 0.20154 0.0
C421 C 0.50114 0.39505 0.21934 0.0
N422 N 0.40433 0.48087 0.254 0.0
N423 N 0.47622 0.40778 0.24218 0.0
H424 H 0.96954 0.57262 0.64581 0.0
H425 H 0.91041 0.53691 0.83215 0.0
H426 H 0.02236 0.62543 0.72998 0.0
H427 H 0.87411 0.47106 0.74832 0.0
H428 H 0.93475 0.5844 0.79399 0.0
H429 H 0.91858 0.55165 0.6816 0.0
C430 C 0.96991 0.5806 0.67174 0.0
C431 C 0.00057 0.60001 0.68518 0.0
C432 C 0.92056 0.56004 0.78398 0.0
C433 C 0.94276 0.57542 0.72641 0.0
C434 C 0.90646 0.533 0.80573 0.0
C435 C 0.89102 0.49962 0.79329 0.0
C436 C 0.91908 0.55355 0.74965 0.0
C437 C 0.88646 0.49609 0.75892 0.0
C438 C 0.94084 0.56853 0.69218 0.0
C439 C 0.99941 0.6101 0.71876 0.0
N440 N 0.90106 0.52239 0.73827 0.0
N441 N 0.97138 0.59689 0.73847 0.0
H442 H 0.96679 0.90354 0.82269 0.0
H443 H 0.94304 0.97564 0.63878 0.0
H444 H 0.04028 0.87723 0.74116 0.0
H445 H 0.87695 0.0153 0.72094 0.0
H446 H 0.96436 0.9233 0.67263 0.0
H447 H 0.92077 0.92786 0.78315 0.0
C448 C 0.97273 0.90178 0.7964 0.0
C449 C 0.00768 0.88917 0.78512 0.0
C450 C 0.94457 0.94292 0.68315 0.0
C451 C 0.95549 0.91715 0.73997 0.0
C452 C 0.93233 0.97274 0.66379 0.0
C453 C 0.90887 0.0001 0.67741 0.0
C454 C 0.934 0.94097 0.71664 0.0
C455 C 0.89536 0.99487 0.70971 0.0
C456 C 0.94653 0.91584 0.77387 0.0
C457 C 0.01393 0.88738 0.75088 0.0
N458 N 0.90891 0.96635 0.72861 0.0
N459 N 0.98837 0.90184 0.72955 0.0
H460 H 0.59975 0.96968 0.83299 0.0
H461 H 0.53779 0.93542 0.64779 0.0
H462 H 0.62809 0.04024 0.74982 0.0
H463 H 0.49437 0.8735 0.73117 0.0
H464 H 0.58885 0.95853 0.68246 0.0
H465 H 0.5795 0.92073 0.79435 0.0
C466 C 0.60289 0.9744 0.8066 0.0
C467 C 0.61473 0.00935 0.79449 0.0
C468 C 0.56875 0.93918 0.69308 0.0
C469 C 0.59136 0.95378 0.75033 0.0
C470 C 0.53967 0.92587 0.67325 0.0
C471 C 0.51152 0.90322 0.68693 0.0
C472 C 0.56911 0.93048 0.72704 0.0
C473 C 0.51542 0.89126 0.71985 0.0
C474 C 0.59114 0.94651 0.78457 0.0
C475 C 0.61841 0.01394 0.76015 0.0
N476 N 0.54316 0.90588 0.73913 0.0
N477 N 0.60611 0.98675 0.73926 0.0
H478 H 0.59691 0.53245 0.656 0.0
H479 H 0.52931 0.59947 0.83337 0.0
H480 H 0.62151 0.4764 0.74824 0.0
H481 H 0.47024 0.61887 0.74162 0.0
H482 H 0.58331 0.57725 0.80169 0.0
H483 H 0.57223 0.58566 0.68726 0.0
C484 C 0.59849 0.53192 0.68283 0.0
C485 C 0.61034 0.49962 0.69965 0.0
C486 C 0.55897 0.58758 0.78852 0.0
C487 C 0.58221 0.5602 0.73531 0.0
C488 C 0.5282 0.60042 0.80653 0.0
C489 C 0.49496 0.61008 0.79002 0.0
C490 C 0.55644 0.58477 0.75389 0.0
C491 C 0.49512 0.61093 0.75527 0.0
C492 C 0.58422 0.56224 0.7006 0.0
C493 C 0.6119 0.50052 0.73437 0.0
N494 N 0.52515 0.59769 0.73831 0.0
N495 N 0.59725 0.53004 0.75112 0.0
H496 H 0.03796 0.63139 0.24408 0.0
H497 H 0.01912 0.85129 0.26597 0.0
H498 H 0.03023 0.71024 0.16326 0.0
H499 H 0.04548 0.77435 0.34511 0.0
H500 H 0.00311 0.79816 0.23046 0.0
H501 H 0.02092 0.68121 0.28271 0.0
C502 C 0.03187 0.65901 0.23438 0.0
C503 C 0.03634 0.66699 0.20055 0.0
C504 C 0.01162 0.79292 0.25582 0.0
C505 C 0.01721 0.72408 0.24457 0.0
C506 C 0.02064 0.82324 0.27615 0.0
C507 C 0.03448 0.81709 0.30825 0.0
C508 C 0.01667 0.75629 0.26769 0.0
C509 C 0.03553 0.78026 0.3203 0.0
C510 C 0.02221 0.68745 0.25645 0.0
C511 C 0.0277 0.70309 0.18925 0.0
N512 N 0.02746 0.75117 0.29978 0.0
N513 N 0.01918 0.73051 0.21131 0.0
H514 H 0.76334 0.03742 0.13648 0.0
H515 H 0.69462 0.01454 0.32269 0.0
H516 H 0.83669 0.02377 0.2207 0.0
H517 H 0.62583 0.05419 0.24203 0.0
H518 H 0.74278 0.99656 0.28263 0.0
H519 H 0.7098 0.02217 0.17185 0.0
C520 C 0.76827 0.03032 0.16223 0.0
C521 C 0.80431 0.03271 0.17594 0.0
C522 C 0.71679 0.00843 0.27366 0.0
C523 C 0.74336 0.01557 0.21646 0.0
C524 C 0.68926 0.01857 0.29649 0.0
C525 C 0.65667 0.03666 0.28562 0.0
C526 C 0.71152 0.01647 0.23988 0.0
C527 C 0.65095 0.04098 0.25144 0.0
C528 C 0.73771 0.02172 0.18241 0.0
C529 C 0.80921 0.02292 0.20934 0.0
N530 N 0.67842 0.03154 0.22978 0.0
N531 N 0.77896 0.0154 0.22863 0.0
H532 H 0.47934 0.72227 0.34646 0.0
H533 H 0.48291 0.7778 0.15726 0.0
H534 H 0.48247 0.64278 0.26593 0.0
H535 H 0.47812 0.85725 0.23775 0.0
H536 H 0.50087 0.72907 0.19666 0.0
H537 H 0.49706 0.77194 0.30781 0.0
C538 C 0.48466 0.71512 0.32079 0.0
C539 C 0.47852 0.6786 0.30917 0.0
C540 C 0.49669 0.75733 0.20565 0.0
C541 C 0.49813 0.73528 0.26474 0.0
C542 C 0.48651 0.78518 0.18312 0.0
C543 C 0.47811 0.82133 0.19443 0.0
C544 C 0.49802 0.76569 0.23969 0.0
C545 C 0.48365 0.82951 0.2281 0.0
C546 C 0.49468 0.74351 0.29869 0.0
C547 C 0.48622 0.67076 0.27578 0.0
N548 N 0.4925 0.8017 0.24967 0.0
N549 N 0.49485 0.69904 0.25457 0.0
H550 H 0.64183 0.48394 0.22738 0.0
H551 H 0.86037 0.4672 0.25073 0.0
H552 H 0.72047 0.47173 0.14692 0.0
H553 H 0.78221 0.48067 0.33137 0.0
H554 H 0.81141 0.48559 0.21179 0.0
H555 H 0.69367 0.49974 0.26441 0.0
C556 C 0.66993 0.48548 0.21732 0.0
C557 C 0.67704 0.47563 0.18426 0.0
C558 C 0.80509 0.48528 0.23805 0.0
C559 C 0.7365 0.49305 0.22654 0.0
C560 C 0.83308 0.47481 0.26029 0.0
C561 C 0.82501 0.47159 0.29419 0.0
C562 C 0.76868 0.49202 0.24979 0.0
C563 C 0.7894 0.48225 0.30533 0.0
C564 C 0.69956 0.49442 0.2385 0.0
C565 C 0.71386 0.4785 0.17242 0.0
N566 N 0.76226 0.49123 0.28309 0.0
N567 N 0.74234 0.48619 0.19372 0.0
H568 H 0.97 0.14333 0.73385 0.0
H569 H 0.97512 0.36365 0.75984 0.0
H570 H 0.96875 0.22427 0.65436 0.0
H571 H 0.95834 0.28298 0.83819 0.0
H572 H 0.99218 0.31267 0.7224 0.0
H573 H 0.98517 0.19347 0.77286 0.0
C574 C 0.97376 0.17154 0.72448 0.0
C575 C 0.96731 0.17986 0.69097 0.0
C576 C 0.98552 0.30619 0.74796 0.0
C577 C 0.98421 0.23734 0.73547 0.0
C578 C 0.9759 0.33529 0.76939 0.0
C579 C 0.96453 0.32737 0.80194 0.0
C580 C 0.9836 0.26899 0.75921 0.0
C581 C 0.96635 0.29022 0.8131 0.0
C582 C 0.98232 0.20017 0.74678 0.0
C583 C 0.97293 0.21677 0.68011 0.0
N584 N 0.97503 0.2623 0.79159 0.0
N585 N 0.9804 0.24431 0.70242 0.0
H586 H 0.3707 0.94371 0.75355 0.0
H587 H 0.15338 0.97879 0.7706 0.0
H588 H 0.29946 0.97924 0.67306 0.0
H589 H 0.22461 0.94138 0.85043 0.0
H590 H 0.20904 0.9957 0.73868 0.0
H591 H 0.32102 0.95921 0.79271 0.0
C592 C 0.34484 0.95551 0.74419 0.0
C593 C 0.33876 0.95939 0.71001 0.0
C594 C 0.21253 0.98453 0.76346 0.0
C595 C 0.28163 0.97663 0.75456 0.0
C596 C 0.18074 0.97496 0.78172 0.0
C597 C 0.1845 0.95784 0.81284 0.0
C598 C 0.24821 0.97653 0.77633 0.0
C599 C 0.22052 0.95391 0.82625 0.0
C600 C 0.31645 0.96433 0.76655 0.0
C601 C 0.30501 0.97526 0.69922 0.0
N602 N 0.25105 0.96247 0.80764 0.0
N603 N 0.27737 0.98261 0.72139 0.0
H604 H 0.51739 0.14219 0.76676 0.0
H605 H 0.5223 0.36255 0.74505 0.0
H606 H 0.53462 0.22113 0.84638 0.0
H607 H 0.52589 0.28304 0.66454 0.0
H608 H 0.50474 0.31191 0.78279 0.0
H609 H 0.4984 0.19375 0.73068 0.0
C610 C 0.51625 0.17026 0.77691 0.0
C611 C 0.52852 0.17761 0.80932 0.0
C612 C 0.50853 0.30568 0.75672 0.0
C613 C 0.50727 0.23664 0.76814 0.0
C614 C 0.51844 0.33459 0.73514 0.0
C615 C 0.52649 0.32672 0.70182 0.0
C616 C 0.50685 0.26873 0.74486 0.0
C617 C 0.52065 0.29015 0.69022 0.0
C618 C 0.5055 0.1997 0.75627 0.0
C619 C 0.52605 0.21438 0.82132 0.0
N620 N 0.51189 0.26232 0.71186 0.0
N621 N 0.51641 0.24268 0.80051 0.0
H622 H 0.35788 0.51438 0.74983 0.0
H623 H 0.13792 0.51863 0.72888 0.0
H624 H 0.27911 0.52417 0.83045 0.0
H625 H 0.21706 0.52404 0.64818 0.0
H626 H 0.18838 0.49892 0.76587 0.0
H627 H 0.30653 0.49618 0.71308 0.0
C628 C 0.32992 0.51175 0.76001 0.0
C629 C 0.32251 0.52176 0.79298 0.0
C630 C 0.19456 0.50356 0.7399 0.0
C631 C 0.26366 0.50149 0.75104 0.0
C632 C 0.16573 0.51471 0.71874 0.0
C633 C 0.1736 0.52395 0.68566 0.0
C634 C 0.23145 0.50195 0.72786 0.0
C635 C 0.20997 0.51793 0.67372 0.0
C636 C 0.30058 0.50146 0.73899 0.0
C637 C 0.28589 0.51741 0.80499 0.0
N638 N 0.23776 0.50806 0.69498 0.0
N639 N 0.25766 0.50835 0.78384 0.0
H640 H -0.00013 0.58684 0.06077 0.0
H641 H 0.01221 0.4351 0.91523 0.0
H642 H 0.10131 0.52726 0.03668 0.0
H643 H 0.90858 0.48176 0.95135 0.0
H644 H 0.04651 0.47222 0.95633 0.0
H645 H 0.96745 0.55345 0.01639 0.0
C646 C 0.01546 0.56707 0.04583 0.0
C647 C 0.05329 0.55965 0.05249 0.0
C648 C 0.01627 0.47424 0.95531 0.0
C649 C 0.01623 0.52098 0.00193 0.0
C650 C 0.99668 0.45299 0.93196 0.0
C651 C 0.95751 0.45528 0.93003 0.0
C652 C 0.99652 0.49811 0.97669 0.0
C653 C 0.93877 0.47903 0.95213 0.0
C654 C 0.99686 0.54783 0.02064 0.0
C655 C 0.0721 0.53375 0.03239 0.0
N656 N 0.95846 0.4996 0.9745 0.0
N657 N 0.0533 0.51515 0.00809 0.0
H658 H 0.06626 0.00587 0.91281 0.0
H659 H 0.89668 0.99837 0.04201 0.0
H660 H 0.01137 0.90369 0.94348 0.0
H661 H 0.96639 0.09616 0.02822 0.0
H662 H 0.93351 0.96541 0.00033 0.0
H663 H 0.02623 0.04109 0.95078 0.0
C664 C 0.04593 0.99084 0.92772 0.0
C665 C 0.04216 0.95182 0.92515 0.0
C666 C 0.9406 0.99416 0.00624 0.0
C667 C 0.996 0.99192 0.96815 0.0
C668 C 0.91941 0.0131 0.02984 0.0
C669 C 0.92866 0.04998 0.03867 0.0
C670 C 0.97121 0.01226 0.99131 0.0
C671 C 0.9584 0.0677 0.02215 0.0
C672 C 0.02305 0.01096 0.94927 0.0
C673 C 0.01532 0.93373 0.94487 0.0
N674 N 0.97881 0.04857 -0.00065 0.0
N675 N 0.99314 0.95397 0.96547 0.0
H676 H 0.50863 0.90527 0.05698 0.0
H677 H 0.48843 0.06189 0.91621 0.0
H678 H 0.40408 0.95978 0.03375 0.0
H679 H 0.5945 0.02083 0.95232 0.0
H680 H 0.45614 0.0208 0.95551 0.0
H681 H 0.5394 0.94215 0.01385 0.0
C682 C 0.49202 0.92462 0.04245 0.0
C683 C 0.45379 0.92964 0.04904 0.0
C684 C 0.48647 0.02086 0.95489 0.0
C685 C 0.48892 0.97231 -3e-05 0.0
C686 C 0.50491 0.04439 0.93257 0.0
C687 C 0.54418 0.04486 0.93117 0.0
C688 C 0.50747 0.99745 0.97577 0.0
C689 C 0.56418 0.02149 0.95276 0.0
C690 C 0.50967 0.94587 0.018 0.0
C691 C 0.43364 0.95511 0.02949 0.0
N692 N 0.54558 0.99864 0.97412 0.0
N693 N 0.45152 0.97571 0.00595 0.0
H694 H 0.43655 0.48044 0.90269 0.0
H695 H 0.58234 0.50625 0.05149 0.0
H696 H 0.46826 0.58756 0.94385 0.0
H697 H 0.52939 0.40026 0.02937 0.0
H698 H 0.54684 0.53515 0.00665 0.0
H699 H 0.47526 0.44937 0.94467 0.0
C700 C 0.45148 0.49738 0.92068 0.0
C701 C 0.44913 0.53659 0.91995 0.0
C702 C 0.5431 0.50553 0.01147 0.0
C703 C 0.49373 0.50139 0.96748 0.0
C704 C 0.56354 0.48894 0.03692 0.0
C705 C 0.55862 0.45085 0.04424 0.0
C706 C 0.51763 0.48385 0.99309 0.0
C707 C 0.5339 0.42977 0.02456 0.0
C708 C 0.47359 0.47965 0.94453 0.0
C709 C 0.46914 0.55724 0.94366 0.0
N710 N 0.51415 0.44661 -0.0001 0.0
N711 N 0.49073 0.53939 0.96638 0.0
H712 H 0.98876 0.93276 0.41598 0.0
H713 H 0.00272 0.09629 0.55119 0.0
H714 H 0.09271 0.98411 0.44685 0.0
H715 H 0.90074 0.03539 0.53034 0.0
H716 H 0.03476 0.05987 0.50862 0.0
H717 H 0.955 0.97317 0.45465 0.0
C718 C 0.00449 0.95238 0.43108 0.0
C719 C 0.04359 0.95502 0.42835 0.0
C720 C 0.0053 0.05466 0.51315 0.0
C721 C 0.00516 0.00165 0.47224 0.0
C722 C 0.98692 0.07565 0.53728 0.0
C723 C 0.94907 0.06871 0.54439 0.0
C724 C 0.98569 0.02652 0.49601 0.0
C725 C 0.92997 0.04158 0.52565 0.0
C726 C 0.9852 0.97554 0.45303 0.0
C727 C 0.06257 0.98104 0.44832 0.0
N728 N 0.94857 0.02127 0.50245 0.0
N729 N 0.04315 0.00342 0.46938 0.0
H730 H 0.53032 0.09572 0.45853 0.0
H731 H 0.47179 0.89812 0.53707 0.0
H732 H 0.56534 0.98953 0.41805 0.0
H733 H 0.42508 0.00402 0.56763 0.0
H734 H 0.50731 0.93073 0.49384 0.0
H735 H 0.49405 0.06234 0.50063 0.0
C736 C 0.53067 0.06537 0.45873 0.0
C737 C 0.55081 0.04533 0.43482 0.0
C738 C 0.48906 0.94676 0.50986 0.0
C739 C 0.50909 0.00695 0.48258 0.0
C740 C 0.46865 0.92814 0.53439 0.0
C741 C 0.44553 0.94843 0.55594 0.0
C742 C 0.48646 0.98591 0.50709 0.0
C743 C 0.4426 0.9873 0.55153 0.0
C744 C 0.50975 0.04632 0.4826 0.0
C745 C 0.55017 0.00604 0.43608 0.0
N746 N 0.46303 0.0048 0.52775 0.0
N747 N 0.52956 0.98811 0.45954 0.0
H748 H 0.48229 0.43753 0.58904 0.0
H749 H 0.50608 0.58793 0.44373 0.0
H750 H 0.58882 0.47054 0.54753 0.0
H751 H 0.40046 0.53384 0.46499 0.0
H752 H 0.53549 0.55096 0.48735 0.0
H753 H 0.45059 0.47706 0.54803 0.0
C754 C 0.49896 0.45287 0.57114 0.0
C755 C 0.53821 0.45071 0.57156 0.0
C756 C 0.50583 0.54729 0.48262 0.0
C757 C 0.50229 0.49631 0.52517 0.0
C758 C 0.48895 0.5686 0.45789 0.0
C759 C 0.45081 0.56379 0.45065 0.0
C760 C 0.48442 0.52106 0.50038 0.0
C761 C 0.42998 0.53833 0.46977 0.0
C762 C 0.48088 0.47547 0.54786 0.0
C763 C 0.5585 0.47127 0.54797 0.0
N764 N 0.44711 0.51774 0.49374 0.0
N765 N 0.54031 0.49336 0.52586 0.0
H766 H 0.9331 0.51995 0.41269 0.0
H767 H 0.0888 0.50011 0.55409 0.0
H768 H 0.96741 0.41447 0.45511 0.0
H769 H 0.03481 0.60505 0.5313 0.0
H770 H 0.0508 0.46948 0.51168 0.0
H771 H 0.97488 0.55262 0.45134 0.0
C772 C 0.94921 0.50371 0.43032 0.0
C773 C 0.94672 0.46447 0.43086 0.0
C774 C 0.04744 0.49927 0.51577 0.0
C775 C 0.99494 0.50153 0.47455 0.0
C776 C 0.06935 0.51684 0.53978 0.0
C777 C 0.06476 0.55513 0.54634 0.0
C778 C 0.0208 0.52013 0.4981 0.0
C779 C 0.03915 0.57544 0.52705 0.0
C780 C 0.97311 0.52235 0.45225 0.0
C781 C 0.96832 0.44476 0.45403 0.0
N782 N 0.0179 0.55762 0.50389 0.0
N783 N 0.99167 0.4635 0.47485 0.0
loop_
_geom_bond_atom_site_label_1
_geom_bond_atom_site_label_2
_geom_bond_distance
_geom_bond_site_symmetry_2
_ccdc_geom_bond_type
In0 O1 2.294 . S
In0 O2 2.326 . S
In0 O6 2.266 . S
In0 O7 2.326 . S
In0 O8 2.266 . S
In0 O9 2.326 . S
In0 O11 2.294 . S
In0 O12 2.326 . S
O1 In0 2.294 . S
O1 C10 1.240 . S
O2 In0 2.326 . S
O2 C10 1.252 . S
C3 O6 1.252 . S
C3 O7 1.260 . S
C4 O11 1.240 . S
C4 O12 1.252 . S
C5 O8 1.252 . S
C5 O9 1.260 . S
O6 In0 2.266 . S
O6 C3 1.252 . S
O7 In0 2.326 . S
O7 C3 1.260 . S
O8 In0 2.266 . S
O8 C5 1.252 . S
O9 In0 2.326 . S
O9 C5 1.260 . S
C10 O1 1.240 . S
C10 O2 1.252 . S
O11 In0 2.294 . S
O11 C4 1.240 . S
O12 In0 2.326 . S
O12 C4 1.252 . S
In13 O14 2.294 . S
In13 O15 2.326 . S
In13 O19 2.266 . S
In13 O20 2.326 . S
In13 O21 2.266 . S
In13 O22 2.326 . S
In13 O24 2.294 . S
In13 O25 2.326 . S
O14 In13 2.294 . S
O14 C23 1.240 . S
O15 In13 2.326 . S
O15 C23 1.252 . S
C16 O19 1.252 . S
C16 O20 1.260 . S
C17 O24 1.240 . S
C17 O25 1.252 . S
C18 O21 1.252 . S
C18 O22 1.260 . S
O19 In13 2.266 . S
O19 C16 1.252 . S
O20 In13 2.326 . S
O20 C16 1.260 . S
O21 In13 2.266 . S
O21 C18 1.252 . S
O22 In13 2.326 . S
O22 C18 1.260 . S
C23 O14 1.240 . S
C23 O15 1.252 . S
O24 In13 2.294 . S
O24 C17 1.240 . S
O25 In13 2.326 . S
O25 C17 1.252 . S
In26 O27 2.294 . S
In26 O28 2.326 . S
In26 O32 2.266 . S
In26 O33 2.326 . S
In26 O34 2.266 . S
In26 O35 2.326 . S
In26 O37 2.294 . S
In26 O38 2.326 . S
O27 In26 2.294 . S
O27 C36 1.240 . S
O28 In26 2.326 . S
O28 C36 1.252 . S
C29 O32 1.252 . S
C29 O33 1.260 . S
C30 O37 1.240 . S
C30 O38 1.252 . S
C31 O34 1.252 . S
C31 O35 1.260 . S
O32 In26 2.266 . S
O32 C29 1.252 . S
O33 In26 2.326 . S
O33 C29 1.260 . S
O34 In26 2.266 . S
O34 C31 1.252 . S
O35 In26 2.326 . S
O35 C31 1.260 . S
C36 O27 1.240 . S
C36 O28 1.252 . S
O37 In26 2.294 . S
O37 C30 1.240 . S
O38 In26 2.326 . S
O38 C30 1.252 . S
In39 O40 2.294 . S
In39 O41 2.326 . S
In39 O45 2.266 . S
In39 O46 2.326 . S
In39 O47 2.266 . S
In39 O48 2.326 . S
In39 O50 2.294 . S
In39 O51 2.326 . S
O40 In39 2.294 . S
O40 C49 1.240 . S
O41 In39 2.326 . S
O41 C49 1.252 . S
C42 O45 1.252 . S
C42 O46 1.260 . S
C43 O50 1.240 . S
C43 O51 1.252 . S
C44 O47 1.252 . S
C44 O48 1.260 . S
O45 In39 2.266 . S
O45 C42 1.252 . S
O46 In39 2.326 . S
O46 C42 1.260 . S
O47 In39 2.266 . S
O47 C44 1.252 . S
O48 In39 2.326 . S
O48 C44 1.260 . S
C49 O40 1.240 . S
C49 O41 1.252 . S
O50 In39 2.294 . S
O50 C43 1.240 . S
O51 In39 2.326 . S
O51 C43 1.252 . S
In52 O53 2.294 . S
In52 O54 2.326 . S
In52 O58 2.266 . S
In52 O59 2.326 . S
In52 O60 2.266 . S
In52 O61 2.326 . S
In52 O63 2.294 . S
In52 O64 2.326 . S
O53 In52 2.294 . S
O53 C62 1.240 . S
O54 In52 2.326 . S
O54 C62 1.252 . S
C55 O58 1.252 . S
C55 O59 1.260 . S
C56 O63 1.240 . S
C56 O64 1.252 . S
C57 O60 1.252 . S
C57 O61 1.260 . S
O58 In52 2.266 . S
O58 C55 1.252 . S
O59 In52 2.326 . S
O59 C55 1.260 . S
O60 In52 2.266 . S
O60 C57 1.252 . S
O61 In52 2.326 . S
O61 C57 1.260 . S
C62 O53 1.240 . S
C62 O54 1.252 . S
O63 In52 2.294 . S
O63 C56 1.240 . S
O64 In52 2.326 . S
O64 C56 1.252 . S
In65 O66 2.294 . S
In65 O67 2.326 . S
In65 O71 2.266 . S
In65 O72 2.326 . S
In65 O73 2.266 . S
In65 O74 2.326 . S
In65 O76 2.294 . S
In65 O77 2.326 . S
O66 In65 2.294 . S
O66 C75 1.240 . S
O67 In65 2.326 . S
O67 C75 1.252 . S
C68 O71 1.252 . S
C68 O72 1.260 . S
C69 O76 1.240 . S
C69 O77 1.252 . S
C70 O73 1.252 . S
C70 O74 1.260 . S
O71 In65 2.266 . S
O71 C68 1.252 . S
O72 In65 2.326 . S
O72 C68 1.260 . S
O73 In65 2.266 . S
O73 C70 1.252 . S
O74 In65 2.326 . S
O74 C70 1.260 . S
C75 O66 1.240 . S
C75 O67 1.252 . S
O76 In65 2.294 . S
O76 C69 1.240 . S
O77 In65 2.326 . S
O77 C69 1.252 . S
In78 O79 2.294 . S
In78 O80 2.326 . S
In78 O84 2.266 . S
In78 O85 2.326 . S
In78 O86 2.266 . S
In78 O87 2.326 . S
In78 O89 2.294 . S
In78 O90 2.326 . S
O79 In78 2.294 . S
O79 C88 1.240 . S
O80 In78 2.326 . S
O80 C88 1.252 . S
C81 O84 1.252 . S
C81 O85 1.260 . S
C82 O89 1.240 . S
C82 O90 1.252 . S
C83 O86 1.252 . S
C83 O87 1.260 . S
O84 In78 2.266 . S
O84 C81 1.252 . S
O85 In78 2.326 . S
O85 C81 1.260 . S
O86 In78 2.266 . S
O86 C83 1.252 . S
O87 In78 2.326 . S
O87 C83 1.260 . S
C88 O79 1.240 . S
C88 O80 1.252 . S
O89 In78 2.294 . S
O89 C82 1.240 . S
O90 In78 2.326 . S
O90 C82 1.252 . S
In91 O92 2.294 . S
In91 O93 2.326 . S
In91 O97 2.266 . S
In91 O98 2.326 . S
In91 O99 2.266 . S
In91 O100 2.326 . S
In91 O102 2.294 . S
In91 O103 2.326 . S
O92 In91 2.294 . S
O92 C101 1.240 . S
O93 In91 2.326 . S
O93 C101 1.252 . S
C94 O97 1.252 . S
C94 O98 1.260 . S
C95 O102 1.240 . S
C95 O103 1.252 . S
C96 O99 1.252 . S
C96 O100 1.260 . S
O97 In91 2.266 . S
O97 C94 1.252 . S
O98 In91 2.326 . S
O98 C94 1.260 . S
O99 In91 2.266 . S
O99 C96 1.252 . S
O100 In91 2.326 . S
O100 C96 1.260 . S
C101 O92 1.240 . S
C101 O93 1.252 . S
O102 In91 2.294 . S
O102 C95 1.240 . S
O103 In91 2.326 . S
O103 C95 1.252 . S
In104 O105 2.294 . S
In104 O106 2.326 . S
In104 O110 2.266 . S
In104 O111 2.326 . S
In104 O112 2.266 . S
In104 O113 2.326 . S
In104 O115 2.294 . S
In104 O116 2.326 . S
O105 In104 2.294 . S
O105 C114 1.240 . S
O106 In104 2.326 . S
O106 C114 1.252 . S
C107 O110 1.252 . S
C107 O111 1.260 . S
C108 O115 1.240 . S
C108 O116 1.252 . S
C109 O112 1.252 . S
C109 O113 1.260 . S
O110 In104 2.266 . S
O110 C107 1.252 . S
O111 In104 2.326 . S
O111 C107 1.260 . S
O112 In104 2.266 . S
O112 C109 1.252 . S
O113 In104 2.326 . S
O113 C109 1.260 . S
C114 O105 1.240 . S
C114 O106 1.252 . S
O115 In104 2.294 . S
O115 C108 1.240 . S
O116 In104 2.326 . S
O116 C108 1.252 . S
In117 O118 2.294 . S
In117 O119 2.326 . S
In117 O123 2.266 . S
In117 O124 2.326 . S
In117 O125 2.266 . S
In117 O126 2.326 . S
In117 O128 2.294 . S
In117 O129 2.326 . S
O118 In117 2.294 . S
O118 C127 1.240 . S
O119 In117 2.326 . S
O119 C127 1.252 . S
C120 O123 1.252 . S
C120 O124 1.260 . S
C121 O128 1.240 . S
C121 O129 1.252 . S
C122 O125 1.252 . S
C122 O126 1.260 . S
O123 In117 2.266 . S
O123 C120 1.252 . S
O124 In117 2.326 . S
O124 C120 1.260 . S
O125 In117 2.266 . S
O125 C122 1.252 . S
O126 In117 2.326 . S
O126 C122 1.260 . S
C127 O118 1.240 . S
C127 O119 1.252 . S
O128 In117 2.294 . S
O128 C121 1.240 . S
O129 In117 2.326 . S
O129 C121 1.252 . S
In130 O131 2.294 . S
In130 O132 2.326 . S
In130 O136 2.266 . S
In130 O137 2.326 . S
In130 O138 2.266 . S
In130 O139 2.326 . S
In130 O141 2.294 . S
In130 O142 2.326 . S
O131 In130 2.294 . S
O131 C140 1.240 . S
O132 In130 2.326 . S
O132 C140 1.252 . S
C133 O136 1.252 . S
C133 O137 1.260 . S
C134 O141 1.240 . S
C134 O142 1.252 . S
C135 O138 1.252 . S
C135 O139 1.260 . S
O136 In130 2.266 . S
O136 C133 1.252 . S
O137 In130 2.326 . S
O137 C133 1.260 . S
O138 In130 2.266 . S
O138 C135 1.252 . S
O139 In130 2.326 . S
O139 C135 1.260 . S
C140 O131 1.240 . S
C140 O132 1.252 . S
O141 In130 2.294 . S
O141 C134 1.240 . S
O142 In130 2.326 . S
O142 C134 1.252 . S
In143 O144 2.294 . S
In143 O145 2.326 . S
In143 O149 2.266 . S
In143 O150 2.326 . S
In143 O151 2.266 . S
In143 O152 2.326 . S
In143 O154 2.294 . S
In143 O155 2.326 . S
O144 In143 2.294 . S
O144 C153 1.240 . S
O145 In143 2.326 . S
O145 C153 1.252 . S
C146 O149 1.252 . S
C146 O150 1.260 . S
C147 O154 1.240 . S
C147 O155 1.252 . S
C148 O151 1.252 . S
C148 O152 1.260 . S
O149 In143 2.266 . S
O149 C146 1.252 . S
O150 In143 2.326 . S
O150 C146 1.260 . S
O151 In143 2.266 . S
O151 C148 1.252 . S
O152 In143 2.326 . S
O152 C148 1.260 . S
C153 O144 1.240 . S
C153 O145 1.252 . S
O154 In143 2.294 . S
O154 C147 1.240 . S
O155 In143 2.326 . S
O155 C147 1.252 . S
In156 O157 2.294 . S
In156 O158 2.326 . S
In156 O162 2.266 . S
In156 O163 2.326 . S
In156 O164 2.266 . S
In156 O165 2.326 . S
In156 O167 2.294 . S
In156 O168 2.326 . S
O157 In156 2.294 . S
O157 C166 1.240 . S
O158 In156 2.326 . S
O158 C166 1.252 . S
C159 O162 1.252 . S
C159 O163 1.260 . S
C160 O167 1.240 . S
C160 O168 1.252 . S
C161 O164 1.252 . S
C161 O165 1.260 . S
O162 In156 2.266 . S
O162 C159 1.252 . S
O163 In156 2.326 . S
O163 C159 1.260 . S
O164 In156 2.266 . S
O164 C161 1.252 . S
O165 In156 2.326 . S
O165 C161 1.260 . S
C166 O157 1.240 . S
C166 O158 1.252 . S
O167 In156 2.294 . S
O167 C160 1.240 . S
O168 In156 2.326 . S
O168 C160 1.252 . S
In169 O170 2.294 . S
In169 O171 2.326 . S
In169 O175 2.266 . S
In169 O176 2.326 . S
In169 O177 2.266 . S
In169 O178 2.326 . S
In169 O180 2.294 . S
In169 O181 2.326 . S
O170 In169 2.294 . S
O170 C179 1.240 . S
O171 In169 2.326 . S
O171 C179 1.252 . S
C172 O175 1.252 . S
C172 O176 1.260 . S
C173 O180 1.240 . S
C173 O181 1.252 . S
C174 O177 1.252 . S
C174 O178 1.260 . S
O175 In169 2.266 . S
O175 C172 1.252 . S
O176 In169 2.326 . S
O176 C172 1.260 . S
O177 In169 2.266 . S
O177 C174 1.252 . S
O178 In169 2.326 . S
O178 C174 1.260 . S
C179 O170 1.240 . S
C179 O171 1.252 . S
O180 In169 2.294 . S
O180 C173 1.240 . S
O181 In169 2.326 . S
O181 C173 1.252 . S
In182 O183 2.294 . S
In182 O184 2.326 . S
In182 O188 2.266 . S
In182 O189 2.326 . S
In182 O190 2.266 . S
In182 O191 2.326 . S
In182 O193 2.294 . S
In182 O194 2.326 . S
O183 In182 2.294 . S
O183 C192 1.240 . S
O184 In182 2.326 . S
O184 C192 1.252 . S
C185 O188 1.252 . S
C185 O189 1.260 . S
C186 O193 1.240 . S
C186 O194 1.252 . S
C187 O190 1.252 . S
C187 O191 1.260 . S
O188 In182 2.266 . S
O188 C185 1.252 . S
O189 In182 2.326 . S
O189 C185 1.260 . S
O190 In182 2.266 . S
O190 C187 1.252 . S
O191 In182 2.326 . S
O191 C187 1.260 . S
C192 O183 1.240 . S
C192 O184 1.252 . S
O193 In182 2.294 . S
O193 C186 1.240 . S
O194 In182 2.326 . S
O194 C186 1.252 . S
In195 O196 2.294 . S
In195 O197 2.326 . S
In195 O201 2.266 . S
In195 O202 2.326 . S
In195 O203 2.266 . S
In195 O204 2.326 . S
In195 O206 2.294 . S
In195 O207 2.326 . S
O196 In195 2.294 . S
O196 C205 1.240 . S
O197 In195 2.326 . S
O197 C205 1.252 . S
C198 O201 1.252 . S
C198 O202 1.260 . S
C199 O206 1.240 . S
C199 O207 1.252 . S
C200 O203 1.252 . S
C200 O204 1.260 . S
O201 In195 2.266 . S
O201 C198 1.252 . S
O202 In195 2.326 . S
O202 C198 1.260 . S
O203 In195 2.266 . S
O203 C200 1.252 . S
O204 In195 2.326 . S
O204 C200 1.260 . S
C205 O196 1.240 . S
C205 O197 1.252 . S
O206 In195 2.294 . S
O206 C199 1.240 . S
O207 In195 2.326 . S
O207 C199 1.252 . S
H208 C214 0.930 . S
H209 C218 0.930 . S
H210 C223 0.929 . S
H211 C221 0.929 . S
H212 C216 0.929 . S
H213 C222 0.929 . S
C214 H208 0.930 . S
C214 C215 1.367 . S
C214 C222 1.378 . S
C215 C214 1.367 . S
C215 C223 1.433 . S
C216 H212 0.929 . S
C216 C218 1.378 . S
C216 C220 1.350 . S
C217 C220 1.463 . S
C217 C222 1.350 . S
C217 N225 1.427 . S
C218 H209 0.930 . S
C218 C216 1.378 . S
C218 C219 1.367 . S
C219 C218 1.367 . S
C219 C221 1.433 . S
C220 C216 1.350 . S
C220 C217 1.463 . S
C220 N224 1.427 . S
C221 H211 0.929 . S
C221 C219 1.433 . S
C221 N224 1.384 . S
C222 H213 0.929 . S
C222 C214 1.378 . S
C222 C217 1.350 . S
C223 H210 0.929 . S
C223 C215 1.433 . S
C223 N225 1.384 . S
N224 C220 1.427 . S
N224 C221 1.384 . S
N225 C217 1.427 . S
N225 C223 1.384 . S
H226 C232 0.930 . S
H227 C236 0.930 . S
H228 C241 0.929 . S
H229 C239 0.929 . S
H230 C234 0.929 . S
H231 C240 0.929 . S
C232 H226 0.930 . S
C232 C233 1.367 . S
C232 C240 1.378 . S
C233 C232 1.367 . S
C233 C241 1.433 . S
C234 H230 0.929 . S
C234 C236 1.378 . S
C234 C238 1.350 . S
C235 C238 1.463 . S
C235 C240 1.350 . S
C235 N243 1.427 . S
C236 H227 0.930 . S
C236 C234 1.378 . S
C236 C237 1.367 . S
C237 C236 1.367 . S
C237 C239 1.433 . S
C238 C234 1.350 . S
C238 C235 1.463 . S
C238 N242 1.427 . S
C239 H229 0.929 . S
C239 C237 1.433 . S
C239 N242 1.384 . S
C240 H231 0.929 . S
C240 C232 1.378 . S
C240 C235 1.350 . S
C241 H228 0.929 . S
C241 C233 1.433 . S
C241 N243 1.384 . S
N242 C238 1.427 . S
N242 C239 1.384 . S
N243 C235 1.427 . S
N243 C241 1.384 . S
H244 C250 0.930 . S
H245 C254 0.930 . S
H246 C259 0.929 . S
H247 C257 0.929 . S
H248 C252 0.929 . S
H249 C258 0.929 . S
C250 H244 0.930 . S
C250 C251 1.367 . S
C250 C258 1.378 . S
C251 C250 1.367 . S
C251 C259 1.433 . S
C252 H248 0.929 . S
C252 C254 1.378 . S
C252 C256 1.350 . S
C253 C256 1.463 . S
C253 C258 1.350 . S
C253 N261 1.427 . S
C254 H245 0.930 . S
C254 C252 1.378 . S
C254 C255 1.367 . S
C255 C254 1.367 . S
C255 C257 1.433 . S
C256 C252 1.350 . S
C256 C253 1.463 . S
C256 N260 1.427 . S
C257 H247 0.929 . S
C257 C255 1.433 . S
C257 N260 1.384 . S
C258 H249 0.929 . S
C258 C250 1.378 . S
C258 C253 1.350 . S
C259 H246 0.929 . S
C259 C251 1.433 . S
C259 N261 1.384 . S
N260 C256 1.427 . S
N260 C257 1.384 . S
N261 C253 1.427 . S
N261 C259 1.384 . S
H262 C268 0.930 . S
H263 C272 0.930 . S
H264 C277 0.929 . S
H265 C275 0.929 . S
H266 C270 0.929 . S
H267 C276 0.929 . S
C268 H262 0.930 . S
C268 C269 1.367 . S
C268 C276 1.378 . S
C269 C268 1.367 . S
C269 C277 1.433 . S
C270 H266 0.929 . S
C270 C272 1.378 . S
C270 C274 1.350 . S
C271 C274 1.463 . S
C271 C276 1.350 . S
C271 N279 1.427 . S
C272 H263 0.930 . S
C272 C270 1.378 . S
C272 C273 1.367 . S
C273 C272 1.367 . S
C273 C275 1.433 . S
C274 C270 1.350 . S
C274 C271 1.463 . S
C274 N278 1.427 . S
C275 H265 0.929 . S
C275 C273 1.433 . S
C275 N278 1.384 . S
C276 H267 0.929 . S
C276 C268 1.378 . S
C276 C271 1.350 . S
C277 H264 0.929 . S
C277 C269 1.433 . S
C277 N279 1.384 . S
N278 C274 1.427 . S
N278 C275 1.384 . S
N279 C271 1.427 . S
N279 C277 1.384 . S
H280 C286 0.930 . S
H281 C290 0.930 . S
H282 C295 0.929 . S
H283 C293 0.929 . S
H284 C288 0.929 . S
H285 C294 0.929 . S
C286 H280 0.930 . S
C286 C287 1.367 . S
C286 C294 1.378 . S
C287 C286 1.367 . S
C287 C295 1.433 . S
C288 H284 0.929 . S
C288 C290 1.378 . S
C288 C292 1.350 . S
C289 C292 1.463 . S
C289 C294 1.350 . S
C289 N297 1.427 . S
C290 H281 0.930 . S
C290 C288 1.378 . S
C290 C291 1.367 . S
C291 C290 1.367 . S
C291 C293 1.433 . S
C292 C288 1.350 . S
C292 C289 1.463 . S
C292 N296 1.427 . S
C293 H283 0.929 . S
C293 C291 1.433 . S
C293 N296 1.384 . S
C294 H285 0.929 . S
C294 C286 1.378 . S
C294 C289 1.350 . S
C295 H282 0.929 . S
C295 C287 1.433 . S
C295 N297 1.384 . S
N296 C292 1.427 . S
N296 C293 1.384 . S
N297 C289 1.427 . S
N297 C295 1.384 . S
H298 C304 0.930 . S
H299 C308 0.930 . S
H300 C313 0.929 . S
H301 C311 0.929 . S
H302 C306 0.929 . S
H303 C312 0.929 . S
C304 H298 0.930 . S
C304 C305 1.367 . S
C304 C312 1.378 . S
C305 C304 1.367 . S
C305 C313 1.433 . S
C306 H302 0.929 . S
C306 C308 1.378 . S
C306 C310 1.350 . S
C307 C310 1.463 . S
C307 C312 1.350 . S
C307 N315 1.427 . S
C308 H299 0.930 . S
C308 C306 1.378 . S
C308 C309 1.367 . S
C309 C308 1.367 . S
C309 C311 1.433 . S
C310 C306 1.350 . S
C310 C307 1.463 . S
C310 N314 1.427 . S
C311 H301 0.929 . S
C311 C309 1.433 . S
C311 N314 1.384 . S
C312 H303 0.929 . S
C312 C304 1.378 . S
C312 C307 1.350 . S
C313 H300 0.929 . S
C313 C305 1.433 . S
C313 N315 1.384 . S
N314 C310 1.427 . S
N314 C311 1.384 . S
N315 C307 1.427 . S
N315 C313 1.384 . S
H316 C322 0.930 . S
H317 C326 0.930 . S
H318 C331 0.929 . S
H319 C329 0.929 . S
H320 C324 0.929 . S
H321 C330 0.929 . S
C322 H316 0.930 . S
C322 C323 1.367 . S
C322 C330 1.378 . S
C323 C322 1.367 . S
C323 C331 1.433 . S
C324 H320 0.929 . S
C324 C326 1.378 . S
C324 C328 1.350 . S
C325 C328 1.463 . S
C325 C330 1.350 . S
C325 N333 1.427 . S
C326 H317 0.930 . S
C326 C324 1.378 . S
C326 C327 1.367 . S
C327 C326 1.367 . S
C327 C329 1.433 . S
C328 C324 1.350 . S
C328 C325 1.463 . S
C328 N332 1.427 . S
C329 H319 0.929 . S
C329 C327 1.433 . S
C329 N332 1.384 . S
C330 H321 0.929 . S
C330 C322 1.378 . S
C330 C325 1.350 . S
C331 H318 0.929 . S
C331 C323 1.433 . S
C331 N333 1.384 . S
N332 C328 1.427 . S
N332 C329 1.384 . S
N333 C325 1.427 . S
N333 C331 1.384 . S
H334 C340 0.930 . S
H335 C344 0.930 . S
H336 C349 0.929 . S
H337 C347 0.929 . S
H338 C342 0.929 . S
H339 C348 0.929 . S
C340 H334 0.930 . S
C340 C341 1.367 . S
C340 C348 1.378 . S
C341 C340 1.367 . S
C341 C349 1.433 . S
C342 H338 0.929 . S
C342 C344 1.378 . S
C342 C346 1.350 . S
C343 C346 1.463 . S
C343 C348 1.350 . S
C343 N351 1.427 . S
C344 H335 0.930 . S
C344 C342 1.378 . S
C344 C345 1.367 . S
C345 C344 1.367 . S
C345 C347 1.433 . S
C346 C342 1.350 . S
C346 C343 1.463 . S
C346 N350 1.427 . S
C347 H337 0.929 . S
C347 C345 1.433 . S
C347 N350 1.384 . S
C348 H339 0.929 . S
C348 C340 1.378 . S
C348 C343 1.350 . S
C349 H336 0.929 . S
C349 C341 1.433 . S
C349 N351 1.384 . S
N350 C346 1.427 . S
N350 C347 1.384 . S
N351 C343 1.427 . S
N351 C349 1.384 . S
H352 C358 0.930 1_455 S
H353 C362 0.930 1_655 S
H354 C367 0.929 . S
H355 C365 0.929 . S
H356 C360 0.929 . S
H357 C366 0.929 . S
C358 H352 0.930 1_655 S
C358 C359 1.367 . S
C358 C366 1.378 1_655 S
C359 C358 1.367 . S
C359 C367 1.433 . S
C360 H356 0.929 . S
C360 C362 1.378 1_655 S
C360 C364 1.350 1_655 S
C361 C364 1.463 1_655 S
C361 C366 1.350 1_655 S
C361 N369 1.427 . S
C362 H353 0.930 1_455 S
C362 C360 1.378 1_455 S
C362 C363 1.367 . S
C363 C362 1.367 . S
C363 C365 1.433 . S
C364 C360 1.350 1_455 S
C364 C361 1.463 1_455 S
C364 N368 1.427 . S
C365 H355 0.929 . S
C365 C363 1.433 . S
C365 N368 1.384 . S
C366 H357 0.929 . S
C366 C358 1.378 1_455 S
C366 C361 1.350 1_455 S
C367 H354 0.929 . S
C367 C359 1.433 . S
C367 N369 1.384 . S
N368 C364 1.427 . S
N368 C365 1.384 . S
N369 C361 1.427 . S
N369 C367 1.384 . S
H370 C376 0.930 . S
H371 C380 0.930 . S
H372 C385 0.929 1_565 S
H373 C383 0.929 1_545 S
H374 C378 0.929 . S
H375 C384 0.929 1_455 S
C376 H370 0.930 . S
C376 C377 1.367 . S
C376 C384 1.378 . S
C377 C376 1.367 . S
C377 C385 1.433 . S
C378 H374 0.929 . S
C378 C380 1.378 . S
C378 C382 1.350 . S
C379 C382 1.463 1_645 S
C379 C384 1.350 . S
C379 N387 1.427 1_545 S
C380 H371 0.930 . S
C380 C378 1.378 . S
C380 C381 1.367 . S
C381 C380 1.367 . S
C381 C383 1.433 . S
C382 C378 1.350 . S
C382 C379 1.463 1_465 S
C382 N386 1.427 1_565 S
C383 H373 0.929 1_565 S
C383 C381 1.433 . S
C383 N386 1.384 1_565 S
C384 H375 0.929 1_655 S
C384 C376 1.378 . S
C384 C379 1.350 . S
C385 H372 0.929 1_545 S
C385 C377 1.433 . S
C385 N387 1.384 1_545 S
N386 C382 1.427 1_545 S
N386 C383 1.384 1_545 S
N387 C379 1.427 1_565 S
N387 C385 1.384 1_565 S
H388 C394 0.930 . S
H389 C398 0.930 . S
H390 C403 0.929 . S
H391 C401 0.929 . S
H392 C396 0.929 . S
H393 C402 0.929 . S
C394 H388 0.930 . S
C394 C395 1.367 . S
C394 C402 1.378 1_545 S
C395 C394 1.367 . S
C395 C403 1.433 . S
C396 H392 0.929 . S
C396 C398 1.378 1_545 S
C396 C400 1.350 1_545 S
C397 C400 1.463 1_545 S
C397 C402 1.350 1_545 S
C397 N405 1.427 . S
C398 H389 0.930 . S
C398 C396 1.378 1_565 S
C398 C399 1.367 . S
C399 C398 1.367 . S
C399 C401 1.433 . S
C400 C396 1.350 1_565 S
C400 C397 1.463 1_565 S
C400 N404 1.427 . S
C401 H391 0.929 . S
C401 C399 1.433 . S
C401 N404 1.384 . S
C402 H393 0.929 . S
C402 C394 1.378 1_565 S
C402 C397 1.350 1_565 S
C403 H390 0.929 . S
C403 C395 1.433 . S
C403 N405 1.384 . S
N404 C400 1.427 . S
N404 C401 1.384 . S
N405 C397 1.427 . S
N405 C403 1.384 . S
H406 C412 0.930 . S
H407 C416 0.930 . S
H408 C421 0.929 . S
H409 C419 0.929 . S
H410 C414 0.929 . S
H411 C420 0.929 . S
C412 H406 0.930 . S
C412 C413 1.367 . S
C412 C420 1.378 . S
C413 C412 1.367 . S
C413 C421 1.433 . S
C414 H410 0.929 . S
C414 C416 1.378 . S
C414 C418 1.350 . S
C415 C418 1.463 . S
C415 C420 1.350 . S
C415 N423 1.427 . S
C416 H407 0.930 . S
C416 C414 1.378 . S
C416 C417 1.367 . S
C417 C416 1.367 . S
C417 C419 1.433 . S
C418 C414 1.350 . S
C418 C415 1.463 . S
C418 N422 1.427 . S
C419 H409 0.929 . S
C419 C417 1.433 . S
C419 N422 1.384 . S
C420 H411 0.929 . S
C420 C412 1.378 . S
C420 C415 1.350 . S
C421 H408 0.929 . S
C421 C413 1.433 . S
C421 N423 1.384 . S
N422 C418 1.427 . S
N422 C419 1.384 . S
N423 C415 1.427 . S
N423 C421 1.384 . S
H424 C430 0.930 . S
H425 C434 0.930 . S
H426 C439 0.929 . S
H427 C437 0.929 . S
H428 C432 0.929 . S
H429 C438 0.929 . S
C430 H424 0.930 . S
C430 C431 1.367 . S
C430 C438 1.378 . S
C431 C430 1.367 . S
C431 C439 1.433 . S
C432 H428 0.929 . S
C432 C434 1.378 . S
C432 C436 1.350 . S
C433 C436 1.463 1_455 S
C433 C438 1.350 . S
C433 N441 1.427 . S
C434 H425 0.930 . S
C434 C432 1.378 . S
C434 C435 1.367 . S
C435 C434 1.367 . S
C435 C437 1.433 . S
C436 C432 1.350 . S
C436 C433 1.463 1_655 S
C436 N440 1.427 . S
C437 H427 0.929 . S
C437 C435 1.433 . S
C437 N440 1.384 . S
C438 H429 0.929 . S
C438 C430 1.378 . S
C438 C433 1.350 . S
C439 H426 0.929 . S
C439 C431 1.433 . S
C439 N441 1.384 . S
N440 C436 1.427 . S
N440 C437 1.384 . S
N441 C433 1.427 . S
N441 C439 1.384 . S
H442 C448 0.930 . S
H443 C452 0.930 . S
H444 C457 0.929 . S
H445 C455 0.929 1_565 S
H446 C450 0.929 . S
H447 C456 0.929 . S
C448 H442 0.930 . S
C448 C449 1.367 . S
C448 C456 1.378 1_455 S
C449 C448 1.367 . S
C449 C457 1.433 . S
C450 H446 0.929 . S
C450 C452 1.378 1_455 S
C450 C454 1.350 1_455 S
C451 C454 1.463 1_465 S
C451 C456 1.350 1_455 S
C451 N459 1.427 1_565 S
C452 H443 0.930 . S
C452 C450 1.378 1_655 S
C452 C453 1.367 . S
C453 C452 1.367 . S
C453 C455 1.433 . S
C454 C450 1.350 1_655 S
C454 C451 1.463 1_645 S
C454 N458 1.427 1_545 S
C455 H445 0.929 1_545 S
C455 C453 1.433 . S
C455 N458 1.384 1_545 S
C456 H447 0.929 . S
C456 C448 1.378 1_655 S
C456 C451 1.350 1_655 S
C457 H444 0.929 . S
C457 C449 1.433 . S
C457 N459 1.384 1_565 S
N458 C454 1.427 1_565 S
N458 C455 1.384 1_565 S
N459 C451 1.427 1_545 S
N459 C457 1.384 1_545 S
H460 C466 0.930 1_565 S
H461 C470 0.920 1_545 S
H462 C475 0.929 . S
H463 C473 0.929 . S
H464 C468 0.929 . S
H465 C474 0.929 . S
C466 H460 0.930 1_545 S
C466 C467 1.367 . S
C466 C474 1.378 1_545 S
C467 C466 1.367 . S
C467 C475 1.433 . S
C468 H464 0.929 . S
C468 C470 1.378 1_545 S
C468 C472 1.350 1_545 S
C469 C472 1.463 1_545 S
C469 C474 1.350 1_545 S
C469 N477 1.427 . S
C470 H461 0.920 1_565 S
C470 C468 1.378 1_565 S
C470 C471 1.367 . S
C471 C470 1.367 . S
C471 C473 1.433 . S
C472 C468 1.350 1_565 S
C472 C469 1.463 1_565 S
C472 N476 1.427 . S
C473 H463 0.929 . S
C473 C471 1.433 . S
C473 N476 1.384 . S
C474 H465 0.929 . S
C474 C466 1.378 1_565 S
C474 C469 1.350 1_565 S
C475 H462 0.929 . S
C475 C467 1.433 . S
C475 N477 1.384 . S
N476 C472 1.427 . S
N476 C473 1.384 . S
N477 C469 1.427 . S
N477 C475 1.384 . S
H478 C484 0.930 . S
H479 C488 0.930 . S
H480 C493 0.929 . S
H481 C491 0.929 . S
H482 C486 0.929 . S
H483 C492 0.929 . S
C484 H478 0.930 . S
C484 C485 1.367 . S
C484 C492 1.378 . S
C485 C484 1.367 . S
C485 C493 1.433 . S
C486 H482 0.929 . S
C486 C488 1.378 . S
C486 C490 1.350 . S
C487 C490 1.463 . S
C487 C492 1.350 . S
C487 N495 1.427 . S
C488 H479 0.930 . S
C488 C486 1.378 . S
C488 C489 1.367 . S
C489 C488 1.367 . S
C489 C491 1.433 . S
C490 C486 1.350 . S
C490 C487 1.463 . S
C490 N494 1.427 . S
C491 H481 0.929 . S
C491 C489 1.433 . S
C491 N494 1.384 . S
C492 H483 0.929 . S
C492 C484 1.378 . S
C492 C487 1.350 . S
C493 H480 0.929 . S
C493 C485 1.433 . S
C493 N495 1.384 . S
N494 C490 1.427 . S
N494 C491 1.384 . S
N495 C487 1.427 . S
N495 C493 1.384 . S
H496 C502 0.930 . S
H497 C506 0.930 . S
H498 C511 0.929 . S
H499 C509 0.929 . S
H500 C504 0.929 . S
H501 C510 0.929 . S
C502 H496 0.930 . S
C502 C503 1.367 . S
C502 C510 1.378 . S
C503 C502 1.367 . S
C503 C511 1.433 . S
C504 H500 0.929 . S
C504 C506 1.378 . S
C504 C508 1.350 . S
C505 C508 1.463 . S
C505 C510 1.350 . S
C505 N513 1.427 . S
C506 H497 0.930 . S
C506 C504 1.378 . S
C506 C507 1.367 . S
C507 C506 1.367 . S
C507 C509 1.433 . S
C508 C504 1.350 . S
C508 C505 1.463 . S
C508 N512 1.427 . S
C509 H499 0.929 . S
C509 C507 1.433 . S
C509 N512 1.384 . S
C510 H501 0.929 . S
C510 C502 1.378 . S
C510 C505 1.350 . S
C511 H498 0.929 . S
C511 C503 1.433 . S
C511 N513 1.384 . S
N512 C508 1.427 . S
N512 C509 1.384 . S
N513 C505 1.427 . S
N513 C511 1.384 . S
H514 C520 0.930 . S
H515 C524 0.930 . S
H516 C529 0.929 . S
H517 C527 0.929 . S
H518 C522 0.929 . S
H519 C528 0.929 . S
C520 H514 0.930 . S
C520 C521 1.367 . S
C520 C528 1.378 . S
C521 C520 1.367 . S
C521 C529 1.433 . S
C522 H518 0.929 . S
C522 C524 1.378 . S
C522 C526 1.350 . S
C523 C526 1.463 . S
C523 C528 1.350 . S
C523 N531 1.427 . S
C524 H515 0.930 . S
C524 C522 1.378 . S
C524 C525 1.367 . S
C525 C524 1.367 . S
C525 C527 1.433 . S
C526 C522 1.350 . S
C526 C523 1.463 . S
C526 N530 1.427 . S
C527 H517 0.929 . S
C527 C525 1.433 . S
C527 N530 1.384 . S
C528 H519 0.929 . S
C528 C520 1.378 . S
C528 C523 1.350 . S
C529 H516 0.929 . S
C529 C521 1.433 . S
C529 N531 1.384 . S
N530 C526 1.427 . S
N530 C527 1.384 . S
N531 C523 1.427 . S
N531 C529 1.384 . S
H532 C538 0.930 . S
H533 C542 0.930 . S
H534 C547 0.929 . S
H535 C545 0.929 . S
H536 C540 0.929 . S
H537 C546 0.929 . S
C538 H532 0.930 . S
C538 C539 1.367 . S
C538 C546 1.378 . S
C539 C538 1.367 . S
C539 C547 1.433 . S
C540 H536 0.929 . S
C540 C542 1.378 . S
C540 C544 1.350 . S
C541 C544 1.463 . S
C541 C546 1.350 . S
C541 N549 1.427 . S
C542 H533 0.930 . S
C542 C540 1.378 . S
C542 C543 1.367 . S
C543 C542 1.367 . S
C543 C545 1.433 . S
C544 C540 1.350 . S
C544 C541 1.463 . S
C544 N548 1.427 . S
C545 H535 0.929 . S
C545 C543 1.433 . S
C545 N548 1.384 . S
C546 H537 0.929 . S
C546 C538 1.378 . S
C546 C541 1.350 . S
C547 H534 0.929 . S
C547 C539 1.433 . S
C547 N549 1.384 . S
N548 C544 1.427 . S
N548 C545 1.384 . S
N549 C541 1.427 . S
N549 C547 1.384 . S
H550 C556 0.930 . S
H551 C560 0.930 . S
H552 C565 0.929 . S
H553 C563 0.929 . S
H554 C558 0.929 . S
H555 C564 0.929 . S
C556 H550 0.930 . S
C556 C557 1.367 . S
C556 C564 1.378 . S
C557 C556 1.367 . S
C557 C565 1.433 . S
C558 H554 0.929 . S
C558 C560 1.378 . S
C558 C562 1.350 . S
C559 C562 1.463 . S
C559 C564 1.350 . S
C559 N567 1.427 . S
C560 H551 0.930 . S
C560 C558 1.378 . S
C560 C561 1.367 . S
C561 C560 1.367 . S
C561 C563 1.433 . S
C562 C558 1.350 . S
C562 C559 1.463 . S
C562 N566 1.427 . S
C563 H553 0.929 . S
C563 C561 1.433 . S
C563 N566 1.384 . S
C564 H555 0.929 . S
C564 C556 1.378 . S
C564 C559 1.350 . S
C565 H552 0.929 . S
C565 C557 1.433 . S
C565 N567 1.384 . S
N566 C562 1.427 . S
N566 C563 1.384 . S
N567 C559 1.427 . S
N567 C565 1.384 . S
H568 C574 0.930 . S
H569 C578 0.930 . S
H570 C583 0.929 . S
H571 C581 0.929 . S
H572 C576 0.929 . S
H573 C582 0.929 . S
C574 H568 0.930 . S
C574 C575 1.367 . S
C574 C582 1.378 . S
C575 C574 1.367 . S
C575 C583 1.433 . S
C576 H572 0.929 . S
C576 C578 1.378 . S
C576 C580 1.350 . S
C577 C580 1.463 . S
C577 C582 1.350 . S
C577 N585 1.427 . S
C578 H569 0.930 . S
C578 C576 1.378 . S
C578 C579 1.367 . S
C579 C578 1.367 . S
C579 C581 1.433 . S
C580 C576 1.350 . S
C580 C577 1.463 . S
C580 N584 1.427 . S
C581 H571 0.929 . S
C581 C579 1.433 . S
C581 N584 1.384 . S
C582 H573 0.929 . S
C582 C574 1.378 . S
C582 C577 1.350 . S
C583 H570 0.929 . S
C583 C575 1.433 . S
C583 N585 1.384 . S
N584 C580 1.427 . S
N584 C581 1.384 . S
N585 C577 1.427 . S
N585 C583 1.384 . S
H586 C592 0.930 . S
H587 C596 0.930 . S
H588 C601 0.929 . S
H589 C599 0.929 . S
H590 C594 0.929 . S
H591 C600 0.929 . S
C592 H586 0.930 . S
C592 C593 1.367 . S
C592 C600 1.378 . S
C593 C592 1.367 . S
C593 C601 1.433 . S
C594 H590 0.929 . S
C594 C596 1.378 . S
C594 C598 1.350 . S
C595 C598 1.463 . S
C595 C600 1.350 . S
C595 N603 1.427 . S
C596 H587 0.930 . S
C596 C594 1.378 . S
C596 C597 1.367 . S
C597 C596 1.367 . S
C597 C599 1.433 . S
C598 C594 1.350 . S
C598 C595 1.463 . S
C598 N602 1.427 . S
C599 H589 0.929 . S
C599 C597 1.433 . S
C599 N602 1.384 . S
C600 H591 0.929 . S
C600 C592 1.378 . S
C600 C595 1.350 . S
C601 H588 0.929 . S
C601 C593 1.433 . S
C601 N603 1.384 . S
N602 C598 1.427 . S
N602 C599 1.384 . S
N603 C595 1.427 . S
N603 C601 1.384 . S
H604 C610 0.930 . S
H605 C614 0.930 . S
H606 C619 0.929 . S
H607 C617 0.929 . S
H608 C612 0.929 . S
H609 C618 0.929 . S
C610 H604 0.930 . S
C610 C611 1.367 . S
C610 C618 1.378 . S
C611 C610 1.367 . S
C611 C619 1.433 . S
C612 H608 0.929 . S
C612 C614 1.378 . S
C612 C616 1.350 . S
C613 C616 1.463 . S
C613 C618 1.350 . S
C613 N621 1.427 . S
C614 H605 0.930 . S
C614 C612 1.378 . S
C614 C615 1.367 . S
C615 C614 1.367 . S
C615 C617 1.433 . S
C616 C612 1.350 . S
C616 C613 1.463 . S
C616 N620 1.427 . S
C617 H607 0.929 . S
C617 C615 1.433 . S
C617 N620 1.384 . S
C618 H609 0.929 . S
C618 C610 1.378 . S
C618 C613 1.350 . S
C619 H606 0.929 . S
C619 C611 1.433 . S
C619 N621 1.384 . S
N620 C616 1.427 . S
N620 C617 1.384 . S
N621 C613 1.427 . S
N621 C619 1.384 . S
H622 C628 0.930 . S
H623 C632 0.930 . S
H624 C637 0.929 . S
H625 C635 0.929 . S
H626 C630 0.929 . S
H627 C636 0.929 . S
C628 H622 0.930 . S
C628 C629 1.367 . S
C628 C636 1.378 . S
C629 C628 1.367 . S
C629 C637 1.433 . S
C630 H626 0.929 . S
C630 C632 1.378 . S
C630 C634 1.350 . S
C631 C634 1.463 . S
C631 C636 1.350 . S
C631 N639 1.427 . S
C632 H623 0.930 . S
C632 C630 1.378 . S
C632 C633 1.367 . S
C633 C632 1.367 . S
C633 C635 1.433 . S
C634 C630 1.350 . S
C634 C631 1.463 . S
C634 N638 1.427 . S
C635 H625 0.929 . S
C635 C633 1.433 . S
C635 N638 1.384 . S
C636 H627 0.929 . S
C636 C628 1.378 . S
C636 C631 1.350 . S
C637 H624 0.929 . S
C637 C629 1.433 . S
C637 N639 1.384 . S
N638 C634 1.427 . S
N638 C635 1.384 . S
N639 C631 1.427 . S
N639 C637 1.384 . S
H640 C646 0.931 . S
H641 C650 0.931 . S
H642 C655 0.929 . S
H643 C653 0.929 . S
H644 C648 0.929 . S
H645 C654 0.929 . S
C646 H640 0.931 . S
C646 C647 1.367 . S
C646 C654 1.378 1_455 S
C647 C646 1.367 . S
C647 C655 1.433 . S
C648 H644 0.929 . S
C648 C650 1.378 1_455 S
C648 C652 1.350 1_455 S
C649 C652 1.463 1_454 S
C649 C654 1.350 1_455 S
C649 N657 1.419 1_554 S
C650 H641 0.931 . S
C650 C648 1.378 1_655 S
C650 C651 1.367 . S
C651 C650 1.367 . S
C651 C653 1.433 . S
C652 C648 1.350 1_655 S
C652 C649 1.463 1_656 S
C652 N656 1.419 1_556 S
C653 H643 0.929 . S
C653 C651 1.433 . S
C653 N656 1.369 1_556 S
C654 H645 0.929 . S
C654 C646 1.378 1_655 S
C654 C649 1.350 1_655 S
C655 H642 0.929 . S
C655 C647 1.433 . S
C655 N657 1.369 1_554 S
N656 C652 1.419 1_554 S
N656 C653 1.369 1_554 S
N657 C649 1.419 1_556 S
N657 C655 1.369 1_556 S
H658 C664 0.930 . S
H659 C668 0.930 . S
H660 C673 0.929 . S
H661 C671 0.929 . S
H662 C666 0.929 . S
H663 C672 0.929 . S
C664 H658 0.930 . S
C664 C665 1.367 . S
C664 C672 1.378 1_556 S
C665 C664 1.367 . S
C665 C673 1.433 . S
C666 H662 0.929 . S
C666 C668 1.378 1_556 S
C666 C670 1.350 1_556 S
C667 C670 1.463 1_466 S
C667 C672 1.350 1_556 S
C667 N675 1.427 . S
C668 H659 0.930 . S
C668 C666 1.378 1_554 S
C668 C669 1.367 . S
C669 C668 1.367 . S
C669 C671 1.433 . S
C670 C666 1.350 1_554 S
C670 C667 1.463 1_644 S
C670 N674 1.427 . S
C671 H661 0.929 . S
C671 C669 1.433 . S
C671 N674 1.384 . S
C672 H663 0.929 . S
C672 C664 1.378 1_554 S
C672 C667 1.350 1_554 S
C673 H660 0.929 . S
C673 C665 1.433 . S
C673 N675 1.384 . S
N674 C670 1.427 . S
N674 C671 1.384 . S
N675 C667 1.427 . S
N675 C673 1.384 . S
H676 C682 0.930 . S
H677 C686 0.930 . S
H678 C691 0.929 . S
H679 C689 0.929 . S
H680 C684 0.929 . S
H681 C690 0.929 . S
C682 H676 0.930 . S
C682 C683 1.367 . S
C682 C690 1.378 1_554 S
C683 C682 1.367 . S
C683 C691 1.433 . S
C684 H680 0.929 . S
C684 C686 1.378 1_554 S
C684 C688 1.350 1_554 S
C685 C688 1.463 1_564 S
C685 C690 1.350 1_554 S
C685 N693 1.427 . S
C686 H677 0.930 . S
C686 C684 1.378 1_556 S
C686 C687 1.367 . S
C687 C686 1.367 . S
C687 C689 1.433 . S
C688 C684 1.350 1_556 S
C688 C685 1.463 1_546 S
C688 N692 1.427 . S
C689 H679 0.929 . S
C689 C687 1.433 . S
C689 N692 1.384 . S
C690 H681 0.929 . S
C690 C682 1.378 1_556 S
C690 C685 1.350 1_556 S
C691 H678 0.929 . S
C691 C683 1.433 . S
C691 N693 1.384 . S
N692 C688 1.427 . S
N692 C689 1.384 . S
N693 C685 1.427 . S
N693 C691 1.384 . S
H694 C700 0.930 . S
H695 C704 0.930 . S
H696 C709 0.929 . S
H697 C707 0.929 . S
H698 C702 0.929 . S
H699 C708 0.929 . S
C700 H694 0.930 . S
C700 C701 1.367 . S
C700 C708 1.378 . S
C701 C700 1.367 . S
C701 C709 1.433 . S
C702 H698 0.929 . S
C702 C704 1.378 . S
C702 C706 1.350 . S
C703 C706 1.463 1_556 S
C703 C708 1.350 . S
C703 N711 1.427 1_556 S
C704 H695 0.930 . S
C704 C702 1.378 . S
C704 C705 1.367 . S
C705 C704 1.367 . S
C705 C707 1.433 . S
C706 C702 1.350 . S
C706 C703 1.463 1_554 S
C706 N710 1.427 1_554 S
C707 H697 0.929 . S
C707 C705 1.433 . S
C707 N710 1.384 1_554 S
C708 H699 0.929 . S
C708 C700 1.378 . S
C708 C703 1.350 . S
C709 H696 0.929 . S
C709 C701 1.433 . S
C709 N711 1.384 1_556 S
N710 C706 1.427 1_556 S
N710 C707 1.384 1_556 S
N711 C703 1.427 1_554 S
N711 C709 1.384 1_554 S
H712 C718 0.930 . S
H713 C722 0.930 . S
H714 C727 0.929 . S
H715 C725 0.929 . S
H716 C720 0.929 . S
H717 C726 0.929 . S
C718 H712 0.930 . S
C718 C719 1.367 . S
C718 C726 1.378 1_455 S
C719 C718 1.367 . S
C719 C727 1.433 . S
C720 H716 0.929 . S
C720 C722 1.378 1_455 S
C720 C724 1.350 1_455 S
C721 C724 1.463 1_465 S
C721 C726 1.350 1_455 S
C721 N729 1.427 . S
C722 H713 0.930 . S
C722 C720 1.378 1_655 S
C722 C723 1.367 . S
C723 C722 1.367 . S
C723 C725 1.433 . S
C724 C720 1.350 1_655 S
C724 C721 1.463 1_645 S
C724 N728 1.427 . S
C725 H715 0.929 . S
C725 C723 1.433 . S
C725 N728 1.384 . S
C726 H717 0.929 . S
C726 C718 1.378 1_655 S
C726 C721 1.350 1_655 S
C727 H714 0.929 . S
C727 C719 1.433 . S
C727 N729 1.384 . S
N728 C724 1.427 . S
N728 C725 1.384 . S
N729 C721 1.427 . S
N729 C727 1.384 . S
H730 C736 0.930 . S
H731 C740 0.930 . S
H732 C745 0.929 1_565 S
H733 C743 0.929 1_545 S
H734 C738 0.929 . S
H735 C744 0.929 . S
C736 H730 0.930 . S
C736 C737 1.367 . S
C736 C744 1.378 . S
C737 C736 1.367 . S
C737 C745 1.433 . S
C738 H734 0.929 . S
C738 C740 1.378 . S
C738 C742 1.350 . S
C739 C742 1.463 1_545 S
C739 C744 1.350 . S
C739 N747 1.427 1_545 S
C740 H731 0.930 . S
C740 C738 1.378 . S
C740 C741 1.367 . S
C741 C740 1.367 . S
C741 C743 1.433 . S
C742 C738 1.350 . S
C742 C739 1.463 1_565 S
C742 N746 1.427 1_565 S
C743 H733 0.929 1_565 S
C743 C741 1.433 . S
C743 N746 1.384 1_565 S
C744 H735 0.929 . S
C744 C736 1.378 . S
C744 C739 1.350 . S
C745 H732 0.929 1_545 S
C745 C737 1.433 . S
C745 N747 1.384 1_545 S
N746 C742 1.427 1_545 S
N746 C743 1.384 1_545 S
N747 C739 1.427 1_565 S
N747 C745 1.384 1_565 S
H748 C754 0.930 . S
H749 C758 0.930 . S
H750 C763 0.929 . S
H751 C761 0.929 . S
H752 C756 0.929 . S
H753 C762 0.929 . S
C754 H748 0.930 . S
C754 C755 1.367 . S
C754 C762 1.378 . S
C755 C754 1.367 . S
C755 C763 1.433 . S
C756 H752 0.929 . S
C756 C758 1.378 . S
C756 C760 1.350 . S
C757 C760 1.463 . S
C757 C762 1.350 . S
C757 N765 1.427 . S
C758 H749 0.930 . S
C758 C756 1.378 . S
C758 C759 1.367 . S
C759 C758 1.367 . S
C759 C761 1.433 . S
C760 C756 1.350 . S
C760 C757 1.463 . S
C760 N764 1.427 . S
C761 H751 0.929 . S
C761 C759 1.433 . S
C761 N764 1.384 . S
C762 H753 0.929 . S
C762 C754 1.378 . S
C762 C757 1.350 . S
C763 H750 0.929 . S
C763 C755 1.433 . S
C763 N765 1.384 . S
N764 C760 1.427 . S
N764 C761 1.384 . S
N765 C757 1.427 . S
N765 C763 1.384 . S
H766 C772 0.930 . S
H767 C776 0.930 . S
H768 C781 0.929 . S
H769 C779 0.929 . S
H770 C774 0.929 . S
H771 C780 0.929 . S
C772 H766 0.930 . S
C772 C773 1.367 . S
C772 C780 1.378 . S
C773 C772 1.367 . S
C773 C781 1.433 . S
C774 H770 0.929 . S
C774 C776 1.378 . S
C774 C778 1.350 . S
C775 C778 1.463 1_655 S
C775 C780 1.350 . S
C775 N783 1.427 . S
C776 H767 0.930 . S
C776 C774 1.378 . S
C776 C777 1.367 . S
C777 C776 1.367 . S
C777 C779 1.433 . S
C778 C774 1.350 . S
C778 C775 1.463 1_455 S
C778 N782 1.427 . S
C779 H769 0.929 . S
C779 C777 1.433 . S
C779 N782 1.384 . S
C780 H771 0.929 . S
C780 C772 1.378 . S
C780 C775 1.350 . S
C781 H768 0.929 . S
C781 C773 1.433 . S
C781 N783 1.384 . S
N782 C778 1.427 . S
N782 C779 1.384 . S
N783 C775 1.427 . S
N783 C781 1.384 . S
C215 C3 1.507 . S
C219 C29 1.513 . S
C233 C18 1.513 . S
C237 C42 1.507 . S
C251 C57 1.513 . S
C255 C81 1.507 . S
C269 C94 1.520 . S
C273 C70 1.517 . S
C287 C109 1.505 . S
C291 C135 1.509 . S
C305 C146 1.505 . S
C309 C122 1.510 . S
C323 C187 1.507 . S
C327 C161 1.512 . S
C341 C198 1.512 . S
C345 C174 1.517 . S
C359 C101 1.145 . S
C363 C10 1.137 . S
C377 C17 1.141 . S
C381 C56 1.133 . S
C395 C69 1.141 . S
C399 C36 1.143 . S
C413 C49 1.142 . S
C417 C88 1.143 . S
C431 C205 1.138 . S
C435 C108 1.145 . S
C449 C121 1.144 . S
C453 C160 1.134 . S
C467 C134 1.144 . S
C471 C173 1.139 . S
C485 C186 1.143 . S
C489 C153 1.142 . S
C503 C5 0.666 . S
C507 C55 0.670 . S
C521 C16 0.678 . S
C525 C68 0.690 . S
C539 C83 0.675 . S
C543 C31 0.686 . S
C557 C44 0.682 . S
C561 C96 0.671 . S
C575 C159 0.676 . S
C579 C107 0.668 . S
C593 C172 0.668 . S
C597 C120 0.678 . S
C611 C133 0.674 . S
C615 C185 0.666 . S
C629 C148 0.670 . S
C633 C200 0.680 . S
C647 C4 1.564 . S
C651 C114 1.564 . S
C665 C127 1.573 . S
C669 C23 1.573 . S
C683 C30 1.573 . S
C687 C140 1.573 . S
C701 C147 1.563 . S
C705 C43 1.563 . S
C719 C62 1.571 . S
C723 C166 1.571 . S
C737 C75 1.567 . S
C741 C179 1.567 . S
C755 C192 1.566 . S
C759 C82 1.566 . S
C773 C95 1.571 . S
C777 C199 1.571 . S
