# Generated by pormake.
# Topology uoa, (4)-cn, num edge types: 1
# Building blocks:
#     Node 0, Type 0, BuildingBlock: CEKHIL_clean_sbu_0, # of connection points: 4
#     Node 1, Type 0, BuildingBlock: CEKHIL_clean_sbu_0, # of connection points: 4
#     Node 2, Type 0, BuildingBlock: CEKHIL_clean_sbu_0, # of connection points: 4
#     Node 3, Type 0, BuildingBlock: CEKHIL_clean_sbu_0, # of connection points: 4
#     Node 4, Type 0, BuildingBlock: CEKHIL_clean_sbu_0, # of connection points: 4
#     Node 5, Type 0, BuildingBlock: CEKHIL_clean_sbu_0, # of connection points: 4
#     Node 6, Type 0, BuildingBlock: CEKHIL_clean_sbu_0, # of connection points: 4
#     Node 7, Type 0, BuildingBlock: CEKHIL_clean_sbu_0, # of connection points: 4
#     Node 8, Type 0, BuildingBlock: CEKHIL_clean_sbu_0, # of connection points: 4
#     Node 9, Type 0, BuildingBlock: CEKHIL_clean_sbu_0, # of connection points: 4
#     Node 10, Type 0, BuildingBlock: CEKHIL_clean_sbu_0, # of connection points: 4
#     Node 11, Type 0, BuildingBlock: CEKHIL_clean_sbu_0, # of connection points: 4
#     Node 12, Type 0, BuildingBlock: CEKHIL_clean_sbu_0, # of connection points: 4
#     Node 13, Type 0, BuildingBlock: CEKHIL_clean_sbu_0, # of connection points: 4
#     Node 14, Type 0, BuildingBlock: CEKHIL_clean_sbu_0, # of connection points: 4
#     Node 15, Type 0, BuildingBlock: CEKHIL_clean_sbu_0, # of connection points: 4
#     Node 16, Type 0, BuildingBlock: CEKHIL_clean_sbu_0, # of connection points: 4
#     Node 17, Type 0, BuildingBlock: CEKHIL_clean_sbu_0, # of connection points: 4
#     Node 18, Type 0, BuildingBlock: CEKHIL_clean_sbu_0, # of connection points: 4
#     Node 19, Type 0, BuildingBlock: CEKHIL_clean_sbu_0, # of connection points: 4
#     Node 20, Type 0, BuildingBlock: CEKHIL_clean_sbu_0, # of connection points: 4
#     Node 21, Type 0, BuildingBlock: CEKHIL_clean_sbu_0, # of connection points: 4
#     Node 22, Type 0, BuildingBlock: CEKHIL_clean_sbu_0, # of connection points: 4
#     Node 23, Type 0, BuildingBlock: CEKHIL_clean_sbu_0, # of connection points: 4
#     Node 24, Type 0, BuildingBlock: CEKHIL_clean_sbu_0, # of connection points: 4
#     Node 25, Type 0, BuildingBlock: CEKHIL_clean_sbu_0, # of connection points: 4
#     Node 26, Type 0, BuildingBlock: CEKHIL_clean_sbu_0, # of connection points: 4
#     Node 27, Type 0, BuildingBlock: CEKHIL_clean_sbu_0, # of connection points: 4
#     Node 28, Type 0, BuildingBlock: CEKHIL_clean_sbu_0, # of connection points: 4
#     Node 29, Type 0, BuildingBlock: CEKHIL_clean_sbu_0, # of connection points: 4
#     Node 30, Type 0, BuildingBlock: CEKHIL_clean_sbu_0, # of connection points: 4
#     Node 31, Type 0, BuildingBlock: CEKHIL_clean_sbu_0, # of connection points: 4
#     Edge 32, Type (0, 0), BuildingBlock: OJICUG_clean_linker_0, # of connection points: 2
#     Edge 33, Type (0, 0), BuildingBlock: OJICUG_clean_linker_0, # of connection points: 2
#     Edge 34, Type (0, 0), BuildingBlock: OJICUG_clean_linker_0, # of connection points: 2
#     Edge 35, Type (0, 0), BuildingBlock: OJICUG_clean_linker_0, # of connection points: 2
#     Edge 36, Type (0, 0), BuildingBlock: OJICUG_clean_linker_0, # of connection points: 2
#     Edge 37, Type (0, 0), BuildingBlock: OJICUG_clean_linker_0, # of connection points: 2
#     Edge 38, Type (0, 0), BuildingBlock: OJICUG_clean_linker_0, # of connection points: 2
#     Edge 39, Type (0, 0), BuildingBlock: OJICUG_clean_linker_0, # of connection points: 2
#     Edge 40, Type (0, 0), BuildingBlock: OJICUG_clean_linker_0, # of connection points: 2
#     Edge 41, Type (0, 0), BuildingBlock: OJICUG_clean_linker_0, # of connection points: 2
#     Edge 42, Type (0, 0), BuildingBlock: OJICUG_clean_linker_0, # of connection points: 2
#     Edge 43, Type (0, 0), BuildingBlock: OJICUG_clean_linker_0, # of connection points: 2
#     Edge 44, Type (0, 0), BuildingBlock: OJICUG_clean_linker_0, # of connection points: 2
#     Edge 45, Type (0, 0), BuildingBlock: OJICUG_clean_linker_0, # of connection points: 2
#     Edge 46, Type (0, 0), BuildingBlock: OJICUG_clean_linker_0, # of connection points: 2
#     Edge 47, Type (0, 0), BuildingBlock: OJICUG_clean_linker_0, # of connection points: 2
#     Edge 48, Type (0, 0), BuildingBlock: OJICUG_clean_linker_0, # of connection points: 2
#     Edge 49, Type (0, 0), BuildingBlock: OJICUG_clean_linker_0, # of connection points: 2
#     Edge 50, Type (0, 0), BuildingBlock: OJICUG_clean_linker_0, # of connection points: 2
#     Edge 51, Type (0, 0), BuildingBlock: OJICUG_clean_linker_0, # of connection points: 2
#     Edge 52, Type (0, 0), BuildingBlock: OJICUG_clean_linker_0, # of connection points: 2
#     Edge 53, Type (0, 0), BuildingBlock: OJICUG_clean_linker_0, # of connection points: 2
#     Edge 54, Type (0, 0), BuildingBlock: OJICUG_clean_linker_0, # of connection points: 2
#     Edge 55, Type (0, 0), BuildingBlock: OJICUG_clean_linker_0, # of connection points: 2
#     Edge 56, Type (0, 0), BuildingBlock: OJICUG_clean_linker_0, # of connection points: 2
#     Edge 57, Type (0, 0), BuildingBlock: OJICUG_clean_linker_0, # of connection points: 2
#     Edge 58, Type (0, 0), BuildingBlock: OJICUG_clean_linker_0, # of connection points: 2
#     Edge 59, Type (0, 0), BuildingBlock: OJICUG_clean_linker_0, # of connection points: 2
#     Edge 60, Type (0, 0), BuildingBlock: OJICUG_clean_linker_0, # of connection points: 2
#     Edge 61, Type (0, 0), BuildingBlock: OJICUG_clean_linker_0, # of connection points: 2
#     Edge 62, Type (0, 0), BuildingBlock: OJICUG_clean_linker_0, # of connection points: 2
#     Edge 63, Type (0, 0), BuildingBlock: OJICUG_clean_linker_0, # of connection points: 2
#     Edge 64, Type (0, 0), BuildingBlock: OJICUG_clean_linker_0, # of connection points: 2
#     Edge 65, Type (0, 0), BuildingBlock: OJICUG_clean_linker_0, # of connection points: 2
#     Edge 66, Type (0, 0), BuildingBlock: OJICUG_clean_linker_0, # of connection points: 2
#     Edge 67, Type (0, 0), BuildingBlock: OJICUG_clean_linker_0, # of connection points: 2
#     Edge 68, Type (0, 0), BuildingBlock: OJICUG_clean_linker_0, # of connection points: 2
#     Edge 69, Type (0, 0), BuildingBlock: OJICUG_clean_linker_0, # of connection points: 2
#     Edge 70, Type (0, 0), BuildingBlock: OJICUG_clean_linker_0, # of connection points: 2
#     Edge 71, Type (0, 0), BuildingBlock: OJICUG_clean_linker_0, # of connection points: 2
#     Edge 72, Type (0, 0), BuildingBlock: OJICUG_clean_linker_0, # of connection points: 2
#     Edge 73, Type (0, 0), BuildingBlock: OJICUG_clean_linker_0, # of connection points: 2
#     Edge 74, Type (0, 0), BuildingBlock: OJICUG_clean_linker_0, # of connection points: 2
#     Edge 75, Type (0, 0), BuildingBlock: OJICUG_clean_linker_0, # of connection points: 2
#     Edge 76, Type (0, 0), BuildingBlock: OJICUG_clean_linker_0, # of connection points: 2
#     Edge 77, Type (0, 0), BuildingBlock: OJICUG_clean_linker_0, # of connection points: 2
#     Edge 78, Type (0, 0), BuildingBlock: OJICUG_clean_linker_0, # of connection points: 2
#     Edge 79, Type (0, 0), BuildingBlock: OJICUG_clean_linker_0, # of connection points: 2
#     Edge 80, Type (0, 0), BuildingBlock: OJICUG_clean_linker_0, # of connection points: 2
#     Edge 81, Type (0, 0), BuildingBlock: OJICUG_clean_linker_0, # of connection points: 2
#     Edge 82, Type (0, 0), BuildingBlock: OJICUG_clean_linker_0, # of connection points: 2
#     Edge 83, Type (0, 0), BuildingBlock: OJICUG_clean_linker_0, # of connection points: 2
#     Edge 84, Type (0, 0), BuildingBlock: OJICUG_clean_linker_0, # of connection points: 2
#     Edge 85, Type (0, 0), BuildingBlock: OJICUG_clean_linker_0, # of connection points: 2
#     Edge 86, Type (0, 0), BuildingBlock: OJICUG_clean_linker_0, # of connection points: 2
#     Edge 87, Type (0, 0), BuildingBlock: OJICUG_clean_linker_0, # of connection points: 2
#     Edge 88, Type (0, 0), BuildingBlock: OJICUG_clean_linker_0, # of connection points: 2
#     Edge 89, Type (0, 0), BuildingBlock: OJICUG_clean_linker_0, # of connection points: 2
#     Edge 90, Type (0, 0), BuildingBlock: OJICUG_clean_linker_0, # of connection points: 2
#     Edge 91, Type (0, 0), BuildingBlock: OJICUG_clean_linker_0, # of connection points: 2
#     Edge 92, Type (0, 0), BuildingBlock: OJICUG_clean_linker_0, # of connection points: 2
#     Edge 93, Type (0, 0), BuildingBlock: OJICUG_clean_linker_0, # of connection points: 2
#     Edge 94, Type (0, 0), BuildingBlock: OJICUG_clean_linker_0, # of connection points: 2
#     Edge 95, Type (0, 0), BuildingBlock: OJICUG_clean_linker_0, # of connection points: 2
# Relax obj value: 0.136
# Max RMSD: 0.207
# Mean RMSD: 0.207
data_MOF--net-uoa--node1-CEKHIL_clean_sbu_0--edge1-OJICUG_clean_linker_0
_symmetry_space_group_name_H-M    P1
_symmetry_Int_Tables_number       1
_symmetry_cell_setting            triclinic
loop_
_symmetry_equiv_pos_as_xyz
'x, y, z'
_cell_length_a     55.545385
_cell_length_b     55.455172
_cell_length_c     19.610187
_cell_angle_alpha  90.008332
_cell_angle_beta   90.004695
_cell_angle_gamma 89.970531
loop_
_atom_site_label
_atom_site_type_symbol
_atom_site_fract_x
_atom_site_fract_y
_atom_site_fract_z
_atom_type_partial_charge
Co0 Co 0.04178 0.10495 0.00453 0.0
O1 O 0.05831 0.13505 0.01463 0.0
O2 O 0.07142 0.1004 0.05648 0.0
C3 C 0.03419 0.10977 0.89262 0.0
O4 O 0.02922 0.07014 0.00097 0.0
Co5 Co 0.98775 0.1054 0.9633 0.0
O6 O 0.99236 0.07021 0.95304 0.0
C7 C 1.00127 0.11365 0.10693 0.0
C8 C 0.0748 0.12345 0.04777 0.0
C9 C 0.01044 0.05907 0.9777 0.0
O10 O 0.02354 0.11053 0.09156 0.0
O11 O 0.98434 0.11366 0.0626 0.0
O12 O 0.05487 0.10155 0.91299 0.0
O13 O 0.01967 0.11667 0.94026 0.0
Co14 Co 0.15946 0.79337 0.26102 0.0
O15 O 0.12991 0.81061 0.27599 0.0
O16 O 0.16563 0.82248 0.31355 0.0
C17 C 0.15322 0.78616 0.1493 0.0
O18 O 0.19386 0.78017 0.25342 0.0
Co19 Co 0.15766 0.73941 0.21896 0.0
O20 O 0.19283 0.74312 0.20656 0.0
C21 C 0.15096 0.75261 0.36337 0.0
C22 C 0.14257 0.82636 0.30898 0.0
C23 C 0.20443 0.76114 0.22987 0.0
O24 O 0.15465 0.77484 0.34817 0.0
O25 O 0.15007 0.73579 0.31869 0.0
O26 O 0.16185 0.80674 0.16943 0.0
O27 O 0.14658 0.77163 0.19727 0.0
Co28 Co 0.4701 0.9101 0.5055 0.0
O29 O 0.45359 0.88025 0.52156 0.0
O30 O 0.44084 0.9159 0.55774 0.0
C31 C 0.47733 0.90345 0.39405 0.0
O32 O 0.48273 0.94475 0.4968 0.0
Co33 Co 0.52399 0.9089 0.46355 0.0
O34 O 0.51979 0.94403 0.4503 0.0
C35 C 0.51087 0.90238 0.60803 0.0
C36 C 0.43757 0.89268 0.55415 0.0
C37 C 0.50162 0.9555 0.47317 0.0
O38 O 0.48867 0.90593 0.59272 0.0
O39 O 0.52769 0.90147 0.56341 0.0
O40 O 0.45667 0.91188 0.41396 0.0
O41 O 0.492 0.89727 0.44219 0.0
Co42 Co 0.35282 0.22131 0.76153 0.0
O43 O 0.38274 0.20493 0.77742 0.0
O44 O 0.34723 0.1919 0.8134 0.0
C45 C 0.35934 0.22873 0.65006 0.0
O46 O 0.31815 0.23373 0.75294 0.0
Co47 Co 0.3537 0.27536 0.71987 0.0
O48 O 0.31866 0.27091 0.70676 0.0
C49 C 0.36045 0.26213 0.86422 0.0
C50 C 0.37042 0.18875 0.80975 0.0
C51 C 0.30731 0.25262 0.72943 0.0
O52 O 0.35691 0.23988 0.84894 0.0
O53 O 0.36132 0.27897 0.81959 0.0
O54 O 0.35111 0.20795 0.66982 0.0
O55 O 0.36545 0.24338 0.69833 0.0
Co56 Co 0.04225 0.90864 0.47709 0.0
O57 O 0.05886 0.87855 0.46691 0.0
O58 O 0.07185 0.91323 0.42503 0.0
C59 C 0.03466 0.90382 0.58903 0.0
O60 O 0.02961 0.94343 0.48073 0.0
Co61 Co 0.98822 0.90811 0.51835 0.0
O62 O 0.99277 0.9433 0.52881 0.0
C63 C 1.00173 0.89988 0.37472 0.0
C64 C 0.07529 0.89018 0.43365 0.0
C65 C 0.01082 0.95448 0.50414 0.0
O66 O 0.02399 0.90304 0.39006 0.0
O67 O 0.9848 0.89983 0.41907 0.0
O68 O 0.05534 0.91204 0.56866 0.0
O69 O 0.02017 0.8969 0.54138 0.0
Co70 Co 0.35504 0.79176 0.72098 0.0
O71 O 0.3854 0.80766 0.71048 0.0
O72 O 0.35107 0.82163 0.66927 0.0
C73 C 0.35979 0.78407 0.833 0.0
O74 O 0.32006 0.77984 0.7253 0.0
Co75 Co 0.35487 0.7376 0.76208 0.0
O76 O 0.31994 0.74308 0.77429 0.0
C77 C 0.36315 0.75099 0.61841 0.0
C78 C 0.37417 0.82451 0.67775 0.0
C79 C 0.3089 0.76127 0.74977 0.0
O80 O 0.36015 0.77334 0.63372 0.0
O81 O 0.36313 0.73407 0.66285 0.0
O82 O 0.35204 0.80496 0.81263 0.0
O83 O 0.36641 0.76944 0.78526 0.0
Co84 Co 0.47108 0.10517 0.97437 0.0
O85 O 0.45546 0.13569 0.96376 0.0
O86 O 0.4411 0.10142 0.92313 0.0
C87 C 0.47888 0.11025 0.08608 0.0
O88 O 0.48285 0.07004 0.97887 0.0
Co89 Co 0.52519 0.10473 0.01516 0.0
O90 O 0.5197 0.06975 0.02699 0.0
C91 C 0.51164 0.11292 0.87155 0.0
C92 C 0.43845 0.1246 0.93148 0.0
C93 C 0.50145 0.05878 0.00276 0.0
O94 O 0.48935 0.11003 0.88703 0.0
O95 O 0.5286 0.11287 0.91581 0.0
O96 O 0.45801 0.10244 0.0661 0.0
O97 O 0.4935 0.1166 0.03811 0.0
Co98 Co 0.1592 0.22003 0.21983 0.0
O99 O 0.12962 0.20294 0.20449 0.0
O100 O 0.16537 0.19088 0.16748 0.0
C101 C 0.15282 0.22728 0.33145 0.0
O102 O 0.19363 0.23307 0.228 0.0
Co103 Co 0.15747 0.274 0.26168 0.0
O104 O 0.19257 0.27007 0.27517 0.0
C105 C 0.15064 0.26078 0.11737 0.0
C106 C 0.14228 0.18712 0.17174 0.0
C107 C 0.20419 0.25201 0.25208 0.0
O108 O 0.15454 0.23857 0.13255 0.0
O109 O 0.14963 0.27758 0.16209 0.0
O110 O 0.16141 0.20666 0.31145 0.0
O111 O 0.14629 0.24183 0.28337 0.0
Co112 Co 0.96993 0.90943 0.97728 0.0
O113 O 0.95306 0.87954 0.96616 0.0
O114 O 0.94037 0.91452 0.92549 0.0
C115 C 0.97752 0.9041 0.08905 0.0
O116 O 0.98278 0.94411 0.98182 0.0
Co117 Co 0.02394 0.90861 0.01857 0.0
O118 O 0.01965 0.94381 0.02961 0.0
C119 C 0.01038 0.90069 0.87478 0.0
C120 C 0.93672 0.89148 0.93334 0.0
C121 C 1.0016 0.95507 0.00522 0.0
O122 O 0.98813 0.90397 0.8901 0.0
O123 O 0.0273 0.90047 0.91916 0.0
O124 O 0.95691 0.91258 0.06897 0.0
O125 O 0.99199 0.89729 0.04118 0.0
Co126 Co 0.85254 0.21811 0.72236 0.0
O127 O 0.88197 0.20069 0.70726 0.0
O128 O 0.84613 0.18902 0.67002 0.0
C129 C 0.85905 0.22539 0.83383 0.0
O130 O 0.81821 0.23149 0.73025 0.0
Co131 Co 0.85459 0.27209 0.76414 0.0
O132 O 0.81942 0.26855 0.77695 0.0
C133 C 0.86128 0.2587 0.61987 0.0
C134 C 0.86917 0.18501 0.67443 0.0
C135 C 0.80773 0.25056 0.75384 0.0
O136 O 0.85735 0.23652 0.63514 0.0
O137 O 0.86235 0.27554 0.66447 0.0
O138 O 0.85022 0.20485 0.81405 0.0
O139 O 0.86564 0.23985 0.78565 0.0
Co140 Co 0.54331 0.10499 0.47379 0.0
O141 O 0.5603 0.13489 0.46436 0.0
O142 O 0.57279 0.10014 0.42147 0.0
C143 C 0.53577 0.10959 0.58577 0.0
O144 O 0.53024 0.07036 0.47653 0.0
Co145 Co 0.48928 0.10612 0.51502 0.0
O146 O 0.49333 0.07082 0.52412 0.0
C147 C 0.50293 0.11454 0.37163 0.0
C148 C 0.57651 0.12311 0.43061 0.0
C149 C 0.51128 0.05949 0.49932 0.0
O150 O 0.52515 0.11107 0.38697 0.0
O151 O 0.48599 0.1147 0.41592 0.0
O152 O 0.55636 0.10115 0.56526 0.0
O153 O 0.52137 0.11684 0.53829 0.0
Co154 Co 0.65632 0.79136 0.22172 0.0
O155 O 0.62682 0.80905 0.21009 0.0
O156 O 0.66215 0.82052 0.16899 0.0
C157 C 0.65099 0.78407 0.33363 0.0
O158 O 0.6907 0.77787 0.2265 0.0
Co159 Co 0.65502 0.73742 0.26362 0.0
O160 O 0.69026 0.74101 0.27458 0.0
C161 C 0.64738 0.75074 0.11951 0.0
C162 C 0.63926 0.82482 0.17646 0.0
C163 C 0.70158 0.75898 0.24995 0.0
O164 O 0.65057 0.77304 0.13478 0.0
O165 O 0.64721 0.73384 0.164 0.0
O166 O 0.65972 0.80455 0.31313 0.0
O167 O 0.64388 0.76958 0.28608 0.0
Co168 Co 0.96974 0.10401 0.5044 0.0
O169 O 0.95267 0.13384 0.51513 0.0
O170 O 0.94027 0.09883 0.55643 0.0
C171 C 0.97726 0.10923 0.39261 0.0
O172 O 0.98279 0.0694 0.50024 0.0
Co173 Co 0.02373 0.10504 0.46315 0.0
O174 O 0.01966 0.0698 0.45248 0.0
C175 C 0.01013 0.11309 0.60682 0.0
C176 C 0.93647 0.12184 0.54828 0.0
C177 C 1.00167 0.05849 0.47695 0.0
O178 O 0.98791 0.10969 0.59147 0.0
O179 O 0.02706 0.11332 0.56248 0.0
O180 O 0.95671 0.10066 0.4128 0.0
O181 O 0.9917 0.11619 0.44039 0.0
Co182 Co 0.65955 0.22102 0.26003 0.0
O183 O 0.6301 0.20361 0.27495 0.0
O184 O 0.66594 0.19191 0.31219 0.0
C185 C 0.65313 0.2283 0.14851 0.0
O186 O 0.69391 0.23421 0.25219 0.0
Co187 Co 0.65802 0.27495 0.21824 0.0
O188 O 0.69317 0.27123 0.20516 0.0
C189 C 0.65118 0.26171 0.36262 0.0
C190 C 0.64292 0.18786 0.30751 0.0
C191 C 0.70463 0.25311 0.22842 0.0
O192 O 0.65476 0.23946 0.34736 0.0
O193 O 0.65042 0.27856 0.31799 0.0
O194 O 0.66188 0.20774 0.16841 0.0
O195 O 0.64656 0.24284 0.19659 0.0
Co196 Co 0.54227 0.9093 0.00644 0.0
O197 O 0.55975 0.87964 0.01793 0.0
O198 O 0.57127 0.9149 0.05985 0.0
C199 C 0.53512 0.90435 0.89427 0.0
O200 O 0.52888 0.94378 0.00202 0.0
Co201 Co 0.48843 0.90784 0.96436 0.0
O202 O 0.49206 0.94316 0.95403 0.0
C203 C 0.50164 0.89976 0.10817 0.0
C204 C 0.57539 0.89194 0.05235 0.0
C205 C 0.50996 0.95459 0.97862 0.0
O206 O 0.52385 0.90337 0.09307 0.0
O207 O 0.4848 0.89944 0.06357 0.0
O208 O 0.55561 0.91291 0.91519 0.0
O209 O 0.52063 0.89706 0.94156 0.0
Co210 Co 0.85097 0.79715 0.75701 0.0
O211 O 0.88059 0.81419 0.77185 0.0
O212 O 0.84502 0.82617 0.81029 0.0
C213 C 0.85693 0.79013 0.64517 0.0
O214 O 0.81656 0.78393 0.74969 0.0
Co215 Co 0.85306 0.74321 0.71461 0.0
O216 O 0.81786 0.74688 0.70274 0.0
C217 C 0.85984 0.75631 0.85889 0.0
C218 C 0.86811 0.82987 0.80563 0.0
C219 C 0.80613 0.76482 0.72617 0.0
O220 O 0.8559 0.7785 0.84372 0.0
O221 O 0.8609 0.73951 0.81418 0.0
O222 O 0.84839 0.81071 0.66569 0.0
O223 O 0.86373 0.77554 0.69285 0.0
Co224 Co 0.54316 0.60397 0.50525 0.0
O225 O 0.56041 0.63368 0.5165 0.0
O226 O 0.57247 0.59848 0.55755 0.0
C227 C 0.53569 0.60932 0.39346 0.0
O228 O 0.53004 0.5694 0.50061 0.0
Co229 Co 0.4892 0.60518 0.4638 0.0
O230 O 0.49323 0.56995 0.45257 0.0
C231 C 0.50269 0.61289 0.60769 0.0
C232 C 0.57642 0.62147 0.5498 0.0
C233 C 0.51119 0.55856 0.47701 0.0
O234 O 0.52493 0.60958 0.59234 0.0
O235 O 0.48578 0.61318 0.56329 0.0
O236 O 0.55623 0.60068 0.41366 0.0
O237 O 0.52125 0.61629 0.44124 0.0
Co238 Co 0.65908 0.29355 0.76064 0.0
O239 O 0.62966 0.31118 0.77401 0.0
O240 O 0.66527 0.32254 0.8136 0.0
C241 C 0.65342 0.28639 0.64867 0.0
O242 O 0.69338 0.27998 0.7546 0.0
Co243 Co 0.65695 0.23961 0.71858 0.0
O244 O 0.69221 0.24298 0.70743 0.0
C245 C 0.64972 0.25289 0.8627 0.0
C246 C 0.64231 0.32675 0.8077 0.0
C247 C 0.70388 0.26087 0.73127 0.0
O248 O 0.65358 0.2751 0.84757 0.0
O249 O 0.64893 0.23606 0.81804 0.0
O250 O 0.66217 0.30687 0.66917 0.0
O251 O 0.64634 0.27194 0.69634 0.0
Co252 Co 0.96873 0.41049 0.00379 0.0
O253 O 0.95255 0.38051 0.01986 0.0
O254 O 0.93947 0.41598 0.05644 0.0
C255 C 0.97588 0.40389 0.89237 0.0
O256 O 0.98128 0.4452 -0.00475 0.0
Co257 Co 0.02264 0.40922 0.96173 0.0
O258 O 0.01841 0.44436 0.94901 0.0
C259 C 0.00952 0.40268 0.10608 0.0
C260 C 0.93651 0.39271 0.05301 0.0
C261 C 1.00027 0.45589 0.97189 0.0
O262 O 0.98735 0.40635 0.09073 0.0
O263 O 0.02635 0.40169 0.06154 0.0
O264 O 0.9552 0.41225 0.91239 0.0
O265 O 0.9906 0.39776 0.9404 0.0
Co266 Co 0.85319 0.7241 0.25695 0.0
O267 O 0.8846 0.71091 0.26946 0.0
O268 O 0.85148 0.694 0.30934 0.0
C269 C 0.85791 0.73181 0.14488 0.0
O270 O 0.81751 0.73384 0.25101 0.0
Co271 Co 0.85056 0.77825 0.21541 0.0
O272 O 0.81605 0.77073 0.20264 0.0
C273 C 0.85909 0.76545 0.35916 0.0
C274 C 0.87487 0.69348 0.30343 0.0
C275 C 0.8057 0.75203 0.22649 0.0
O276 O 0.85665 0.74304 0.34397 0.0
O277 O 0.85878 0.78232 0.31456 0.0
O278 O 0.85159 0.71047 0.16539 0.0
O279 O 0.86335 0.74689 0.19266 0.0
Co280 Co 0.54189 0.40837 0.976 0.0
O281 O 0.55883 0.37846 0.96486 0.0
O282 O 0.57133 0.41349 0.92393 0.0
C283 C 0.53434 0.40311 0.0878 0.0
O284 O 0.52911 0.44308 0.9806 0.0
Co285 Co 0.48791 0.40775 0.01738 0.0
O286 O 0.49228 0.44294 0.02858 0.0
C287 C 0.50135 0.39993 0.87347 0.0
C288 C 0.57505 0.39046 0.93181 0.0
C289 C 0.51036 0.45412 0.00415 0.0
O290 O 0.52363 0.40297 0.88884 0.0
O291 O 0.48444 0.39984 0.91785 0.0
O292 O 0.55496 0.41151 0.06763 0.0
O293 O 0.51984 0.39629 0.03999 0.0
Co294 Co 0.85497 0.29109 0.22193 0.0
O295 O 0.88538 0.30687 0.21149 0.0
O296 O 0.85112 0.32101 0.17037 0.0
C297 C 0.85962 0.28335 0.334 0.0
O298 O 0.81996 0.2793 0.226 0.0
Co299 Co 0.85461 0.23692 0.26303 0.0
O300 O 0.81964 0.24242 0.27425 0.0
C301 C 0.86298 0.2503 0.11937 0.0
C302 C 0.87424 0.32379 0.17878 0.0
C303 C 0.80871 0.2607 0.24983 0.0
O304 O 0.86004 0.27266 0.13466 0.0
O305 O 0.8629 0.23338 0.16383 0.0
O306 O 0.85197 0.30427 0.31362 0.0
O307 O 0.86622 0.26871 0.28627 0.0
Co308 Co 0.97249 0.60598 0.47745 0.0
O309 O 0.95885 0.63721 0.46421 0.0
O310 O 0.94249 0.60365 0.42498 0.0
C311 C 0.98006 0.61119 0.58932 0.0
O312 O 0.98274 0.5704 0.48388 0.0
Co313 Co 0.02652 0.604 0.51924 0.0
O314 O 0.01969 0.56928 0.53163 0.0
C315 C 0.01366 0.61194 0.37526 0.0
C316 C 0.94166 0.62709 0.43025 0.0
C317 C 1.0011 0.55874 0.50789 0.0
O318 O 0.99132 0.60948 0.39056 0.0
O319 O 0.03054 0.61179 0.41976 0.0
O320 O 0.95889 0.6044 0.56887 0.0
O321 O 0.99509 0.61669 0.54153 0.0
Co322 Co 0.65828 0.71959 0.72187 0.0
O323 O 0.62927 0.70132 0.70861 0.0
O324 O 0.66514 0.6907 0.66913 0.0
C325 C 0.6522 0.72668 0.83362 0.0
O326 O 0.69228 0.73385 0.72792 0.0
Co327 Co 0.65523 0.77347 0.76378 0.0
O328 O 0.69055 0.77085 0.77485 0.0
C329 C 0.64827 0.75998 0.61966 0.0
C330 C 0.64228 0.68599 0.6751 0.0
C331 C 0.70249 0.75314 0.75101 0.0
O332 O 0.65243 0.73783 0.63488 0.0
O333 O 0.64726 0.77684 0.66421 0.0
O334 O 0.66154 0.70642 0.8134 0.0
O335 O 0.64497 0.741 0.7858 0.0
Co336 Co 0.46962 0.40924 0.47583 0.0
O337 O 0.45219 0.37959 0.46519 0.0
O338 O 0.44033 0.41477 0.42351 0.0
C339 C 0.4771 0.40409 0.58771 0.0
O340 O 0.48293 0.44373 0.47977 0.0
Co341 Co 0.52358 0.40784 0.51719 0.0
O342 O 0.51978 0.44313 0.52757 0.0
C343 C 0.51001 0.39976 0.37352 0.0
C344 C 0.43624 0.39183 0.4317 0.0
C345 C 0.50185 0.45454 0.50301 0.0
O346 O 0.48779 0.4033 0.3888 0.0
O347 O 0.52692 0.39947 0.41793 0.0
O348 O 0.45661 0.41281 0.56742 0.0
O349 O 0.49148 0.39693 0.54001 0.0
Co350 Co 0.35325 0.71886 0.22125 0.0
O351 O 0.38279 0.70163 0.20626 0.0
O352 O 0.34705 0.68972 0.16888 0.0
C353 C 0.35962 0.72615 0.33277 0.0
O354 O 0.31887 0.7321 0.22891 0.0
Co355 Co 0.3551 0.77286 0.26309 0.0
O356 O 0.31993 0.76921 0.27542 0.0
C357 C 0.36188 0.7595 0.11884 0.0
C358 C 0.37012 0.68587 0.17336 0.0
C359 C 0.30831 0.75117 0.25228 0.0
O360 O 0.35803 0.73731 0.13409 0.0
O361 O 0.36288 0.77635 0.16344 0.0
O362 O 0.35093 0.70556 0.31288 0.0
O363 O 0.3662 0.74065 0.28467 0.0
Co364 Co 0.04445 0.60461 0.97662 0.0
O365 O 0.06207 0.63419 0.96729 0.0
O366 O 0.07356 0.59926 0.92321 0.0
C367 C 0.03732 0.609 0.08894 0.0
O368 O 0.03069 0.57023 0.97886 0.0
Co369 Co 0.99059 0.60656 0.01889 0.0
O370 O 0.99389 0.57116 0.02705 0.0
C371 C 1.00394 0.61482 0.87523 0.0
C372 C 0.0778 0.62214 0.93249 0.0
C373 C 0.01157 0.5596 0.00161 0.0
O374 O 0.02616 0.61126 0.89032 0.0
O375 O 0.98706 0.61499 0.9197 0.0
O376 O 0.05768 0.60024 0.06771 0.0
O377 O 0.02292 0.61669 0.04196 0.0
Co378 Co 0.15801 0.29301 0.71961 0.0
O379 O 0.12829 0.30999 0.70486 0.0
O380 O 0.16386 0.32218 0.66705 0.0
C381 C 0.15204 0.28575 0.83142 0.0
O382 O 0.19252 0.2801 0.72697 0.0
Co383 Co 0.1567 0.23903 0.76163 0.0
O384 O 0.19185 0.24303 0.77376 0.0
C385 C 0.14972 0.25216 0.61729 0.0
C386 C 0.14078 0.32586 0.6718 0.0
C387 C 0.20328 0.26115 0.75044 0.0
O388 O 0.15327 0.27442 0.63247 0.0
O389 O 0.14898 0.23534 0.66199 0.0
O390 O 0.1604 0.30642 0.81116 0.0
O391 O 0.14542 0.27116 0.78352 0.0
Co392 Co 0.47083 0.60415 0.00536 0.0
O393 O 0.45415 0.6342 0.01576 0.0
O394 O 0.44124 0.59943 0.05727 0.0
C395 C 0.47845 0.6091 0.89346 0.0
O396 O 0.48342 0.56936 0.00151 0.0
Co397 Co 0.52484 0.60454 0.96417 0.0
O398 O 0.52029 0.56936 0.95368 0.0
C399 C 0.51133 0.61289 0.10778 0.0
C400 C 0.43774 0.62247 0.04884 0.0
C401 C 0.50218 0.55824 0.97819 0.0
O402 O 0.48907 0.60969 0.09248 0.0
O403 O 0.52825 0.61292 0.06339 0.0
O404 O 0.45778 0.60084 0.91371 0.0
O405 O 0.49295 0.61596 0.94121 0.0
Co406 Co 0.15989 0.72071 0.76105 0.0
O407 O 0.13054 0.70295 0.77464 0.0
O408 O 0.16627 0.69169 0.81367 0.0
C409 C 0.15395 0.72793 0.64928 0.0
O410 O 0.19417 0.73424 0.7544 0.0
Co411 Co 0.15802 0.77462 0.71917 0.0
O412 O 0.19321 0.77109 0.70638 0.0
C413 C 0.15077 0.76135 0.86337 0.0
C414 C 0.14334 0.68735 0.80785 0.0
C415 C 0.20478 0.75315 0.73028 0.0
O416 O 0.15452 0.73911 0.8482 0.0
O417 O 0.15008 0.77819 0.81872 0.0
O418 O 0.1628 0.70745 0.6695 0.0
O419 O 0.147 0.7424 0.69711 0.0
Co420 Co 0.04044 0.40871 0.50479 0.0
O421 O 0.05705 0.37857 0.51374 0.0
O422 O 0.06995 0.41297 0.55756 0.0
C423 C 0.03309 0.40465 0.39249 0.0
O424 O 0.02769 0.4435 0.50262 0.0
Co425 Co 0.98649 0.40835 0.46308 0.0
O426 O 0.9909 0.44361 0.45419 0.0
C427 C 0.99981 0.39944 0.60652 0.0
C428 C 0.07341 0.38997 0.54791 0.0
C429 C 0.0089 0.45466 0.47956 0.0
O430 O 0.02208 0.40259 0.59133 0.0
O431 O 0.9829 0.39967 0.5621 0.0
O432 O 0.05372 0.41272 0.41367 0.0
O433 O 0.0185 0.39736 0.43951 0.0
Co434 Co 0.35293 0.29415 0.26213 0.0
O435 O 0.3823 0.3119 0.27492 0.0
O436 O 0.34671 0.32316 0.31498 0.0
C437 C 0.35847 0.28693 0.15018 0.0
O438 O 0.31867 0.28055 0.25637 0.0
Co439 Co 0.35507 0.2402 0.22028 0.0
O440 O 0.31983 0.24364 0.20863 0.0
C441 C 0.36245 0.25356 0.36432 0.0
C442 C 0.36963 0.32748 0.30856 0.0
C443 C 0.30816 0.26152 0.23265 0.0
O444 O 0.35859 0.27577 0.34914 0.0
O445 O 0.36319 0.23671 0.31969 0.0
O446 O 0.34969 0.30741 0.17065 0.0
O447 O 0.36565 0.27252 0.19784 0.0
C448 C 0.99871 0.11807 0.72972 0.0
C449 C 0.0166 0.11453 0.67988 0.0
H450 H 0.99028 0.11939 0.83627 0.0
C451 C 0.04041 0.11022 0.70091 0.0
H452 H 0.98018 0.12142 0.71524 0.0
C453 C 0.04606 0.1087 0.7701 0.0
C454 C 0.0281 0.11177 0.81972 0.0
H455 H 0.05459 0.10724 0.66396 0.0
H456 H 0.0645 0.10497 0.78467 0.0
C457 C 1.00445 0.11684 0.79901 0.0
C458 C 0.15316 0.7919 0.9572 0.0
C459 C 0.14922 0.76796 0.93645 0.0
H460 H 0.15783 0.81631 0.04069 0.0
C461 C 0.1457 0.75015 0.9866 0.0
H462 H 0.1561 0.80605 0.92004 0.0
C463 C 0.14656 0.7561 0.05587 0.0
C464 C 0.15128 0.7799 0.07634 0.0
H465 H 0.1426 0.73153 0.97238 0.0
H466 H 0.14405 0.74197 0.09332 0.0
C467 C 0.15434 0.79777 0.02638 0.0
C468 C 0.47121 0.90221 0.20214 0.0
C469 C 0.49509 0.89819 0.18126 0.0
H470 H 0.447 0.90735 0.28573 0.0
C471 C 0.51296 0.89487 0.23131 0.0
H472 H 0.45703 0.905 0.16506 0.0
C473 C 0.50715 0.89612 0.3006 0.0
C474 C 0.48344 0.90101 0.32116 0.0
H475 H 0.53153 0.89171 0.217 0.0
H476 H 0.52133 0.89382 0.33796 0.0
C477 C 0.46549 0.90376 0.27133 0.0
C478 C 0.36027 0.22297 0.45803 0.0
C479 C 0.36397 0.24696 0.43741 0.0
H480 H 0.35559 0.19852 0.54135 0.0
C481 C 0.36708 0.26482 0.48765 0.0
H482 H 0.35764 0.20878 0.42081 0.0
C483 C 0.36602 0.25887 0.55689 0.0
C484 C 0.36151 0.23502 0.57721 0.0
H485 H 0.36998 0.28348 0.47352 0.0
H486 H 0.3682 0.27304 0.59442 0.0
C487 C 0.3589 0.2171 0.52716 0.0
C488 C 0.99907 0.89567 0.75179 0.0
C489 C 0.0169 0.8993 0.80173 0.0
H490 H 0.99074 0.89418 0.6452 0.0
C491 C 0.0407 0.90368 0.78083 0.0
H492 H 0.98055 0.89226 0.76617 0.0
C493 C 0.04641 0.90513 0.71166 0.0
C494 C 0.02852 0.90193 0.66193 0.0
H495 H 0.05485 0.90674 0.81786 0.0
H496 H 0.06486 0.9089 0.69719 0.0
C497 C 1.00487 0.89683 0.68252 0.0
C498 C 0.36569 0.75397 0.9265 0.0
C499 C 0.36134 0.77782 0.90592 0.0
H500 H 0.36935 0.72945 0.01009 0.0
C501 C 0.35852 0.79579 0.95572 0.0
H502 H 0.36801 0.73977 0.88915 0.0
C503 C 0.35965 0.79 0.02492 0.0
C504 C 0.36331 0.76602 0.04577 0.0
H505 H 0.35532 0.81438 0.94128 0.0
H506 H 0.35694 0.80422 0.062 0.0
C507 C 0.3665 0.7481 -0.00423 0.0
C508 C 0.50869 0.11746 0.17939 0.0
C509 C 0.48498 0.1126 0.15886 0.0
H510 H 0.53299 0.12211 0.26302 0.0
C511 C 0.46696 0.11012 0.20854 0.0
H512 H 0.52291 0.11958 0.14207 0.0
C513 C 0.47261 0.11192 0.27766 0.0
C514 C 0.49648 0.11595 0.29857 0.0
H515 H 0.44847 0.10659 0.19408 0.0
H516 H 0.45837 0.10934 0.31467 0.0
C517 C 0.51442 0.11899 0.24864 0.0
C518 C 0.15249 0.22158 0.52357 0.0
C519 C 0.14842 0.24552 0.54419 0.0
H520 H 0.15739 0.19716 0.4402 0.0
C521 C 0.14496 0.26331 0.49395 0.0
H522 H 0.15539 0.20745 0.56081 0.0
C523 C 0.14597 0.25734 0.42471 0.0
C524 C 0.15078 0.23355 0.40437 0.0
H525 H 0.14178 0.28192 0.50806 0.0
H526 H 0.14348 0.27146 0.38721 0.0
C527 C 0.15382 0.2157 0.45442 0.0
C528 C 0.01304 0.89509 0.25163 0.0
C529 C 0.99521 0.89858 0.30164 0.0
H530 H 0.02141 0.89404 0.14501 0.0
C531 C 0.9714 0.90304 0.28081 0.0
H532 H 0.03157 0.89163 0.26594 0.0
C533 C 0.96571 0.90479 0.21167 0.0
C534 C 0.98363 0.9018 0.16189 0.0
H535 H 0.95725 0.90598 0.31788 0.0
H536 H 0.94728 0.90864 0.19727 0.0
C537 C 0.00727 0.89655 0.18238 0.0
C538 C 0.85986 0.21974 0.02581 0.0
C539 C 0.86427 0.24364 0.04631 0.0
H540 H 0.85444 0.19537 0.94265 0.0
C541 C 0.86787 0.26136 -0.00401 0.0
H542 H 0.85685 0.20565 0.06309 0.0
C543 C 0.86659 0.25539 0.92679 0.0
C544 C 0.86139 0.23166 0.90663 0.0
H545 H 0.87131 0.27994 0.01 0.0
H546 H 0.86916 0.26945 0.88919 0.0
C547 C 0.85829 0.21386 0.95674 0.0
C548 C 0.50031 0.118 0.74862 0.0
C549 C 0.51812 0.11418 0.79848 0.0
H550 H 0.49195 0.11961 0.64206 0.0
C551 C 0.54188 0.10954 0.77751 0.0
H552 H 0.48182 0.12161 0.76305 0.0
C553 C 0.54755 0.10805 0.70832 0.0
C554 C 0.52967 0.11146 0.65867 0.0
H555 H 0.55601 0.10634 0.81448 0.0
H556 H 0.56595 0.1041 0.69378 0.0
C557 C 0.50607 0.11679 0.67934 0.0
C558 C 0.64314 0.74854 0.49679 0.0
C559 C 0.64671 0.76646 0.54659 0.0
H560 H 0.64157 0.74009 0.39026 0.0
C561 C 0.65083 0.79032 0.5255 0.0
H562 H 0.63991 0.72997 0.51134 0.0
C563 C 0.65215 0.796 0.45624 0.0
C564 C 0.64905 0.77801 0.40663 0.0
H565 H 0.65383 0.80453 0.56245 0.0
H566 H 0.65577 0.81448 0.4416 0.0
C567 C 0.64414 0.7543 0.42746 0.0
C568 C 0.96538 0.10848 0.27007 0.0
C569 C 0.9833 0.11157 0.31977 0.0
H570 H 0.95686 0.10726 0.16389 0.0
C571 C 0.00689 0.11698 0.29919 0.0
H572 H 0.94698 0.10451 0.28454 0.0
C573 C 0.01262 0.11849 0.22993 0.0
C574 C 0.99478 0.11491 0.18 0.0
H575 H 0.02103 0.11957 0.33651 0.0
H576 H 0.0311 0.12208 0.21555 0.0
C577 C 0.97101 0.11029 0.20091 0.0
C578 C 0.65373 0.21657 0.02568 0.0
C579 C 0.65087 0.23449 0.07562 0.0
H580 H 0.65512 0.2082 0.91935 0.0
C581 C 0.64602 0.25826 0.05518 0.0
H582 H 0.6573 0.19804 0.03999 0.0
C583 C 0.64489 0.26415 0.98591 0.0
C584 C 0.64826 0.2463 0.93578 0.0
H585 H 0.64364 0.27242 0.09262 0.0
H586 H 0.64174 0.28276 0.97169 0.0
C587 C 0.65228 0.22237 0.95651 0.0
C588 C 0.49955 0.89725 0.73097 0.0
C589 C 0.51738 0.90106 0.68116 0.0
H590 H 0.49121 0.89515 0.83747 0.0
C591 C 0.54119 0.9053 0.70226 0.0
H592 H 0.48103 0.89394 0.71646 0.0
C593 C 0.54691 0.90636 0.77157 0.0
C594 C 0.52902 0.90287 0.82119 0.0
H595 H 0.55533 0.90848 0.66532 0.0
H596 H 0.56535 0.91001 0.78624 0.0
C597 C 0.50535 0.89798 0.80029 0.0
C598 C 0.85484 0.80172 0.52234 0.0
C599 C 0.85865 0.78394 0.57216 0.0
H600 H 0.8524 0.80997 0.41608 0.0
C601 C 0.86395 0.76029 0.5515 0.0
H602 H 0.85087 0.82016 0.5368 0.0
C603 C 0.86473 0.75438 0.48222 0.0
C604 C 0.86049 0.77209 0.43223 0.0
H605 H 0.86706 0.74623 0.58882 0.0
H606 H 0.86838 0.73587 0.4679 0.0
C607 C 0.85588 0.7959 0.45312 0.0
C608 C 0.5417 0.60989 0.20165 0.0
C609 C 0.51788 0.6143 0.18083 0.0
H610 H 0.56587 0.60451 0.2852 0.0
C611 C 0.50008 0.61792 0.23084 0.0
H612 H 0.55583 0.60686 0.16457 0.0
C613 C 0.5059 0.61666 0.3001 0.0
C614 C 0.52955 0.61146 0.3206 0.0
H615 H 0.48155 0.62136 0.21654 0.0
H616 H 0.49178 0.61927 0.33748 0.0
C617 C 0.54743 0.60833 0.2708 0.0
C618 C 0.65401 0.29218 0.45658 0.0
C619 C 0.64978 0.2683 0.43573 0.0
H620 H 0.6588 0.3165 0.54023 0.0
C621 C 0.64598 0.25051 0.48576 0.0
H622 H 0.65717 0.3063 0.41949 0.0
C623 C 0.64678 0.25643 0.55505 0.0
C624 C 0.65171 0.28017 0.57566 0.0
H625 H 0.64267 0.23194 0.47144 0.0
H626 H 0.644 0.24232 0.59241 0.0
C627 C 0.65513 0.29801 0.5258 0.0
C628 C 0.01118 0.39448 0.72953 0.0
C629 C 0.9933 0.39793 0.67961 0.0
H630 H 0.01967 0.39359 0.83609 0.0
C631 C 0.96949 0.4023 0.70062 0.0
H632 H 0.0297 0.39107 0.71511 0.0
C633 C 0.96387 0.40408 0.76982 0.0
C634 C 0.98186 0.40124 0.81949 0.0
H635 H 0.9553 0.40521 0.66364 0.0
H636 H 0.94545 0.40794 0.78433 0.0
C637 C 1.00548 0.39599 0.79883 0.0
C638 C 0.86292 0.762 0.05128 0.0
C639 C 0.85937 0.73804 0.07191 0.0
H640 H 0.86598 0.78658 0.96775 0.0
C641 C 0.8573 0.71995 0.02212 0.0
H642 H 0.86467 0.7763 0.08859 0.0
C643 C 0.8584 0.72574 0.95289 0.0
C644 C 0.8613 0.74981 0.93201 0.0
H645 H 0.85471 0.70127 0.03659 0.0
H646 H 0.85629 0.71142 0.91581 0.0
C647 C 0.86375 0.76785 0.98203 0.0
C648 C 0.54612 0.4039 0.21045 0.0
C649 C 0.52819 0.40101 0.16067 0.0
H650 H 0.55456 0.40524 0.31667 0.0
C651 C 0.50449 0.39608 0.1812 0.0
H652 H 0.5646 0.4075 0.19604 0.0
C653 C 0.49867 0.39487 0.25047 0.0
C654 C 0.51653 0.39826 0.30046 0.0
H655 H 0.49034 0.39366 0.14383 0.0
H656 H 0.48011 0.39166 0.26479 0.0
C657 C 0.54039 0.40238 0.27961 0.0
C658 C 0.85823 0.29504 0.45676 0.0
C659 C 0.86104 0.27706 0.40694 0.0
H660 H 0.85657 0.30344 0.56303 0.0
C661 C 0.86523 0.25319 0.42751 0.0
H662 H 0.85515 0.31364 0.44233 0.0
C663 C 0.86593 0.24729 0.49678 0.0
C664 C 0.86276 0.26522 0.54679 0.0
H665 H 0.86754 0.23899 0.39015 0.0
H666 H 0.86868 0.22863 0.5111 0.0
C667 C 0.85924 0.28921 0.52596 0.0
C668 C 0.97372 0.61168 0.78109 0.0
C669 C 0.99745 0.61634 0.8022 0.0
H670 H 0.94976 0.60602 0.69726 0.0
C671 C 0.01531 0.6201 0.75243 0.0
H672 H 0.95958 0.60846 0.818 0.0
C673 C 0.00964 0.6187 0.6831 0.0
C674 C 0.98608 0.6133 0.66228 0.0
H675 H 0.03377 0.62372 0.76699 0.0
H676 H 0.0238 0.62144 0.64593 0.0
C677 C 0.96813 0.61005 0.71186 0.0
C678 C 0.64231 0.76197 -0.00358 0.0
C679 C 0.6462 0.74418 0.0464 0.0
H680 H 0.64105 0.77034 0.88981 0.0
C681 C 0.65119 0.72045 0.02549 0.0
H682 H 0.63844 0.78043 0.01079 0.0
C683 C 0.65307 0.7148 0.9563 0.0
C684 C 0.64966 0.73268 0.90654 0.0
H685 H 0.65447 0.70634 0.06256 0.0
H686 H 0.65736 0.69644 0.94185 0.0
C687 C 0.64387 0.75623 0.92714 0.0
C688 C 0.51259 0.39502 0.75036 0.0
C689 C 0.49481 0.39876 0.80038 0.0
H690 H 0.52089 0.3937 0.64373 0.0
C691 C 0.47106 0.40352 0.77955 0.0
H692 H 0.53107 0.39134 0.76466 0.0
C693 C 0.46536 0.40523 0.7104 0.0
C694 C 0.48321 0.40192 0.6606 0.0
H695 H 0.45695 0.40668 0.81664 0.0
H696 H 0.44697 0.40929 0.696 0.0
C697 C 0.5068 0.39644 0.68111 0.0
C698 C 0.35873 0.71459 0.45565 0.0
C699 C 0.36184 0.73241 0.40561 0.0
H700 H 0.35719 0.70635 0.56197 0.0
C701 C 0.36693 0.75615 0.42587 0.0
H702 H 0.35496 0.69609 0.44148 0.0
C703 C 0.3681 0.76211 0.49509 0.0
C704 C 0.36451 0.74436 0.54534 0.0
H705 H 0.3695 0.77024 0.38832 0.0
H706 H 0.37147 0.7807 0.50917 0.0
C707 C 0.3602 0.72045 0.52475 0.0
C708 C 0.00803 0.61666 0.18324 0.0
C709 C 0.03141 0.61067 0.16206 0.0
H710 H 0.98408 0.62192 0.26736 0.0
C711 C 0.04924 0.60644 0.21142 0.0
H712 H 0.99396 0.62013 0.14625 0.0
C713 C 0.0437 0.60778 0.28077 0.0
C714 C 0.02014 0.6131 0.30215 0.0
H715 H 0.06748 0.60197 0.1965 0.0
H716 H 0.05775 0.60397 0.31753 0.0
C717 C 1.0024 0.61773 0.25261 0.0
C718 C 0.15342 0.29731 0.95438 0.0
C719 C 0.15047 0.27942 0.90439 0.0
H720 H 0.15534 0.30557 0.06073 0.0
C721 C 0.14624 0.25553 0.92486 0.0
H722 H 0.15655 0.31591 0.94008 0.0
C723 C 0.1457 0.24954 -0.00588 0.0
C724 C 0.14904 0.26738 0.04428 0.0
H725 H 0.14384 0.24138 0.88741 0.0
H726 H 0.14295 0.23087 0.00829 0.0
C727 C 0.15255 0.29139 0.02357 0.0
C728 C 0.47237 0.60974 0.70163 0.0
C729 C 0.49618 0.61417 0.68078 0.0
H730 H 0.44824 0.60431 0.78522 0.0
C731 C 0.51401 0.61768 0.73077 0.0
H732 H 0.45822 0.60677 0.66457 0.0
C733 C 0.50823 0.61634 0.80003 0.0
C734 C 0.48458 0.61118 0.82057 0.0
H735 H 0.53253 0.62111 0.71643 0.0
H736 H 0.52236 0.61889 0.83739 0.0
C737 C 0.46667 0.60811 0.7708 0.0
C738 C 0.14607 0.76381 0.48659 0.0
C739 C 0.14967 0.74601 0.43646 0.0
H740 H 0.14444 0.77202 0.59328 0.0
C741 C 0.15388 0.72211 0.45719 0.0
H742 H 0.14279 0.78239 0.47237 0.0
C743 C 0.15519 0.71628 0.52638 0.0
C744 C 0.15199 0.73415 0.57632 0.0
H745 H 0.1569 0.70798 0.42002 0.0
H746 H 0.15886 0.69777 0.54072 0.0
C747 C 0.14705 0.7579 0.55585 0.0
C748 C 0.99791 0.39761 0.22869 0.0
C749 C 0.01589 0.40132 0.17922 0.0
H750 H 0.98928 0.39565 0.33499 0.0
C751 C 0.03966 0.40551 0.20071 0.0
H752 H 0.97941 0.39435 0.21385 0.0
C753 C 0.04519 0.40661 0.27011 0.0
C754 C 0.02715 0.40324 0.31937 0.0
H755 H 0.05389 0.40861 0.16401 0.0
H756 H 0.06361 0.41019 0.28512 0.0
C757 C 1.00352 0.3984 0.29808 0.0
C758 C 0.36488 0.25689 0.05665 0.0
C759 C 0.36006 0.28066 0.0772 0.0
H760 H 0.36882 0.23235 0.97311 0.0
C761 C 0.35664 0.29849 0.02731 0.0
H762 H 0.36765 0.24279 0.09404 0.0
C763 C 0.35767 0.29263 0.95811 0.0
C764 C 0.36181 0.26872 0.93732 0.0
H765 H 0.35306 0.31701 0.0417 0.0
H766 H 0.35454 0.30675 0.92099 0.0
C767 C 0.36558 0.25094 0.98738 0.0
C768 C 0.02642 0.0189 0.01711 0.0
C769 C 0.00863 0.03237 0.98342 0.0
H770 H 0.03804 0.98421 0.05128 0.0
C771 C 0.98821 0.02019 0.95804 0.0
H772 H 0.04227 0.02762 0.03776 0.0
C773 C 0.98565 0.99525 0.96615 0.0
C774 C 1.00345 0.98177 -0.00022 0.0
H775 H 0.97403 0.02991 0.93193 0.0
H776 H 0.96979 0.98655 0.94548 0.0
C777 C 0.02386 0.99395 0.02521 0.0
C778 C 0.24287 0.73834 0.20863 0.0
C779 C 0.2311 0.75902 0.23401 0.0
H780 H 0.27618 0.71946 0.195 0.0
C781 C 0.24495 0.77681 0.2665 0.0
H782 H 0.23284 0.72416 0.18345 0.0
C783 C 0.26987 0.77398 0.27349 0.0
C784 C 0.28164 0.7533 0.24813 0.0
H785 H 0.23656 0.79286 0.28712 0.0
H786 H 0.27991 0.78816 0.29867 0.0
C787 C 0.26779 0.73551 0.21563 0.0
C788 C 0.52681 0.01915 0.45963 0.0
C789 C 0.50913 0.03282 0.49319 0.0
H790 H 0.53817 0.9843 0.426 0.0
C791 C 0.48855 0.02085 0.51833 0.0
H792 H 0.54277 0.0277 0.43911 0.0
C793 C 0.48578 0.99593 0.51044 0.0
C794 C 0.50352 0.98224 0.47727 0.0
H795 H 0.47443 0.03073 0.54428 0.0
H796 H 0.46985 0.98739 0.53118 0.0
C797 C 0.52404 0.99421 0.45175 0.0
C798 C 0.26692 0.23622 0.76473 0.0
C799 C 0.2806 0.2543 0.73295 0.0
H800 H 0.23206 0.22432 0.79605 0.0
C801 C 0.2686 0.27489 0.70785 0.0
H802 H 0.2755 0.22023 0.78512 0.0
C803 C 0.24364 0.27737 0.71451 0.0
C804 C 0.22997 0.25931 0.74638 0.0
H805 H 0.27849 0.28929 0.68322 0.0
H806 H 0.23508 0.29338 0.6942 0.0
C807 C 0.24195 0.2387 0.77138 0.0
C808 C 0.98847 0.99332 0.52387 0.0
C809 C 0.00895 0.98119 0.49859 0.0
H810 H 0.96994 0.02691 0.53642 0.0
C811 C 0.02675 0.99472 0.46519 0.0
H812 H 0.97429 0.98355 0.54977 0.0
C813 C 0.02413 0.01967 0.45722 0.0
C814 C 1.00364 0.03179 0.48247 0.0
H815 H 0.04265 0.98605 0.44465 0.0
H816 H 0.0383 0.02946 0.43134 0.0
C817 C 0.98585 0.01825 0.51588 0.0
C818 C 0.24512 0.73719 0.76686 0.0
C819 C 0.23148 0.75503 0.73394 0.0
H820 H 0.2799 0.72532 0.79856 0.0
C821 C 0.24352 0.77534 0.70721 0.0
H822 H 0.23654 0.72142 0.7885 0.0
C823 C 0.26855 0.77769 0.71318 0.0
C824 C 0.28218 0.7598 0.74607 0.0
H825 H 0.23362 0.78953 0.68164 0.0
H826 H 0.2772 0.79342 0.69153 0.0
C827 C 0.27008 0.73955 0.77292 0.0
C828 C 0.48746 0.99342 0.95856 0.0
C829 C 0.50796 0.9813 0.9838 0.0
H830 H 0.46913 0.02714 0.9451 0.0
C831 C 0.52587 0.99487 0.01655 0.0
H832 H 0.47319 0.98359 0.9332 0.0
C833 C 0.5234 0.01984 0.02377 0.0
C834 C 0.50297 0.03201 -0.0017 0.0
H835 H 0.54179 0.98623 0.03705 0.0
H836 H 0.53771 0.0296 0.04911 0.0
C837 C 0.485 0.01844 0.9657 0.0
C838 C 0.24263 0.27461 0.27454 0.0
C839 C 0.23088 0.25396 0.24899 0.0
H840 H 0.27595 0.29336 0.28899 0.0
C841 C 0.24481 0.236 0.21745 0.0
H842 H 0.23254 0.28891 0.29905 0.0
C843 C 0.26977 0.23867 0.21137 0.0
C844 C 0.2815 0.25936 0.23672 0.0
H845 H 0.23644 0.21994 0.1968 0.0
H846 H 0.27986 0.22439 0.18678 0.0
C847 C 0.26759 0.27728 0.26845 0.0
C848 C 0.76936 0.27351 0.77498 0.0
C849 C 0.78106 0.25274 0.74995 0.0
H850 H 0.73612 0.29255 0.78826 0.0
C851 C 0.76712 0.23489 0.718 0.0
H852 H 0.77946 0.28773 0.79976 0.0
C853 C 0.74221 0.23777 0.71105 0.0
C854 C 0.73053 0.25857 0.73593 0.0
H855 H 0.77545 0.21875 0.6977 0.0
H856 H 0.73212 0.22356 0.68621 0.0
C857 C 0.74445 0.2764 0.76803 0.0
C858 C 0.74068 0.73713 0.27172 0.0
C859 C 0.72824 0.75715 0.24457 0.0
H860 H 0.77472 0.71957 0.287 0.0
C861 C 0.74145 0.7748 0.20961 0.0
H862 H 0.73111 0.72307 0.29876 0.0
C863 C 0.76637 0.77262 0.20231 0.0
C864 C 0.77892 0.75278 0.23005 0.0
H865 H 0.73256 0.79032 0.18744 0.0
H866 H 0.77581 0.78678 0.17528 0.0
C867 C 0.76572 0.73498 0.2646 0.0
C868 C 0.74485 0.23667 0.26423 0.0
C869 C 0.73133 0.2548 0.23217 0.0
H870 H 0.77951 0.22445 0.29582 0.0
C871 C 0.74349 0.27524 0.20674 0.0
H872 H 0.73617 0.22077 0.28484 0.0
C873 C 0.76851 0.27746 0.21327 0.0
C874 C 0.782 0.25931 0.24543 0.0
H875 H 0.73369 0.28965 0.18189 0.0
H876 H 0.77725 0.29332 0.19271 0.0
C877 C 0.7698 0.2389 0.27084 0.0
C878 C 0.74056 0.77677 0.77075 0.0
C879 C 0.72909 0.75585 0.74585 0.0
H880 H 0.7736 0.79619 0.7836 0.0
C881 C 0.74316 0.73829 0.71309 0.0
H882 H 0.73033 0.79078 0.79608 0.0
C883 C 0.76799 0.74152 0.70551 0.0
C884 C 0.77949 0.7624 0.73059 0.0
H885 H 0.73501 0.72207 0.69279 0.0
H886 H 0.77819 0.72748 0.68022 0.0
C887 C 0.76542 0.77999 0.76321 0.0
C888 C 0.48867 0.51985 0.4571 0.0
C889 C 0.50924 0.53185 0.48212 0.0
H890 H 0.47003 0.48632 0.44449 0.0
C891 C 0.52712 0.51819 0.51484 0.0
H892 H 0.47443 0.52972 0.43173 0.0
C893 C 0.52448 0.49324 0.52247 0.0
C894 C 0.50389 0.48124 0.49754 0.0
H895 H 0.5431 0.52677 0.53512 0.0
H896 H 0.53872 0.48336 0.54786 0.0
C897 C 0.48603 0.49489 0.46474 0.0
C898 C 0.98506 0.49639 0.011 0.0
C899 C 1.00244 0.4826 0.9766 0.0
H900 H 0.97444 0.5312 0.04674 0.0
C901 C 0.02301 0.4944 0.95079 0.0
H902 H 0.96912 0.48797 0.03205 0.0
C903 C 0.02622 0.51925 0.95964 0.0
C904 C 0.00893 0.533 -0.00553 0.0
H905 H 0.03688 0.48443 0.92409 0.0
H906 H 0.04221 0.52765 0.93887 0.0
C907 C 0.98826 0.52123 0.01984 0.0
C908 C 0.52667 0.49429 0.96623 0.0
C909 C 0.50866 0.48085 -0.001 0.0
H910 H 0.53864 0.52896 0.93317 0.0
C911 C 0.48822 0.4931 0.02402 0.0
H912 H 0.54256 0.48553 0.94594 0.0
C913 C 0.48585 0.51809 0.01638 0.0
C914 C 0.50385 0.53152 0.98356 0.0
H915 H 0.47388 0.4834 0.04942 0.0
H916 H 0.46996 0.52686 0.03667 0.0
C917 C 0.5243 0.51926 0.95859 0.0
C918 C 0.02447 0.49448 0.52224 0.0
C919 C 0.00705 0.48133 0.48623 0.0
H920 H 0.03602 0.52883 0.55854 0.0
C921 C 0.98703 0.49382 0.45929 0.0
H922 H 0.03997 0.48553 0.54426 0.0
C923 C 0.98462 0.5188 0.46773 0.0
C924 C 1.00216 0.53195 0.50335 0.0
H925 H 0.97313 0.48432 0.43141 0.0
H926 H 0.96921 0.52781 0.44544 0.0
C927 C 0.02205 0.51939 0.53079 0.0
C928 C 0.10334 0.15778 0.04066 0.0
C929 C 0.09589 0.1367 0.0744 0.0
H930 H 0.12463 0.18993 0.04498 0.0
C931 C 0.10684 0.13045 0.13655 0.0
H932 H 0.09528 0.16298 -0.00745 0.0
C933 C 0.12362 0.14611 0.16681 0.0
C934 C 0.12999 0.16778 0.13431 0.0
H935 H 0.10126 0.11441 0.16379 0.0
H936 H 0.13059 0.14198 0.21706 0.0
C937 C 0.12027 0.17312 0.07025 0.0
C938 C 0.12346 0.86719 0.31304 0.0
C939 C 0.1303 0.84579 0.34623 0.0
H940 H 0.10083 0.89872 0.31584 0.0
C941 C 0.12111 0.84078 0.41112 0.0
H942 H 0.13001 0.87107 0.26219 0.0
C943 C 0.10424 0.85615 0.44093 0.0
C944 C 0.09635 0.87697 0.40663 0.0
H945 H 0.12584 0.82416 0.43696 0.0
H946 H 0.09656 0.85118 0.48973 0.0
C947 C 0.10677 0.88291 0.34355 0.0
C948 C 0.41018 0.85097 0.68169 0.0
C949 C 0.38785 0.84548 0.65169 0.0
H950 H 0.44312 0.87082 0.67445 0.0
C951 C 0.38041 0.85859 0.59404 0.0
H952 H 0.41636 0.84134 0.72648 0.0
C953 C 0.39591 0.87565 0.56424 0.0
C954 C 0.41874 0.87999 0.59262 0.0
H955 H 0.36335 0.85464 0.56975 0.0
H956 H 0.39066 0.8844 0.51715 0.0
C957 C 0.42545 0.868 0.65241 0.0
C958 C 0.40385 0.13104 0.84956 0.0
C959 C 0.41757 0.13856 0.90596 0.0
H960 H 0.37755 0.14139 0.77412 0.0
C961 C 0.41277 0.1612 0.93528 0.0
H962 H 0.40725 0.11374 0.82583 0.0
C963 C 0.39584 0.17668 0.90644 0.0
C964 C 0.3832 0.16987 0.84786 0.0
H965 H 0.42285 0.16746 0.97916 0.0
H966 H 0.39353 0.19455 0.9279 0.0
C967 C 0.38683 0.14675 0.82027 0.0
C968 C 0.8907 0.84247 0.90754 0.0
C969 C 0.8807 0.84869 0.84445 0.0
H970 H 0.91617 0.85137 0.98519 0.0
C971 C 0.88718 0.87065 0.81377 0.0
H972 H 0.88629 0.8254 0.93133 0.0
C973 C 0.90429 0.88574 0.84486 0.0
C974 C 0.91548 0.87864 0.90596 0.0
H975 H 0.88004 0.87546 0.76421 0.0
H976 H 0.90991 0.90205 0.81897 0.0
C977 C 0.90795 0.85725 0.93791 0.0
C978 C 0.90624 0.15472 0.54058 0.0
C979 C 0.91527 0.13461 0.57594 0.0
H980 H 0.88368 0.18605 0.54403 0.0
C981 C 0.90597 0.12913 0.64071 0.0
H982 H 0.91312 0.15932 0.49053 0.0
C983 C 0.8893 0.14472 0.67169 0.0
C984 C 0.88128 0.16546 0.63731 0.0
H985 H 0.91285 0.11389 0.66923 0.0
H986 H 0.88368 0.14131 0.7237 0.0
C987 C 0.88929 0.16991 0.57084 0.0
C988 C 0.6237 0.17125 0.41077 0.0
C989 C 0.63095 0.16789 0.34308 0.0
H990 H 0.60067 0.15941 0.49156 0.0
C991 C 0.62249 0.14776 0.3067 0.0
H992 H 0.62967 0.18691 0.43918 0.0
C993 C 0.60614 0.13171 0.33702 0.0
C994 C 0.59758 0.13612 0.40323 0.0
H995 H 0.62755 0.14519 0.25384 0.0
H996 H 0.59889 0.11699 0.30709 0.0
C997 C 0.60703 0.15561 0.44043 0.0
C998 C 0.61211 0.86627 0.04516 0.0
C999 C 0.59571 0.87943 0.08508 0.0
H1000 H 0.63974 0.8391 0.04372 0.0
C1001 C 0.59603 0.87671 0.15613 0.0
H1002 H 0.61179 0.86781 0.99009 0.0
C1003 C 0.61138 0.85978 0.18641 0.0
C1004 C 0.62712 0.8459 0.14628 0.0
H1005 H 0.58318 0.8863 0.18765 0.0
H1006 H 0.61021 0.85675 0.2409 0.0
C1007 C 0.62805 0.84991 0.07571 0.0
C1008 C 0.60377 0.63099 0.64754 0.0
C1009 C 0.59749 0.63398 0.57874 0.0
H1010 H 0.62314 0.64573 0.73286 0.0
C1011 C 0.60904 0.6519 0.5401 0.0
H1012 H 0.5948 0.61754 0.67851 0.0
C1013 C 0.62569 0.66743 0.57049 0.0
C1014 C 0.6306 0.66565 0.64036 0.0
H1015 H 0.60433 0.65461 0.48702 0.0
H1016 H 0.63333 0.68197 0.54058 0.0
C1017 C 0.61993 0.64705 0.67849 0.0
C1018 C 0.60631 0.35861 0.94131 0.0
C1019 C 0.59622 0.37773 0.90396 0.0
H1020 H 0.62979 0.3279 0.94006 0.0
C1021 C 0.60435 0.38211 0.83731 0.0
H1022 H 0.60028 0.35485 -0.00724 0.0
C1023 C 0.62093 0.36634 0.80677 0.0
C1024 C 0.63012 0.34659 0.84338 0.0
H1025 H 0.59659 0.39655 0.8073 0.0
H1026 H 0.62563 0.36883 0.75362 0.0
C1027 C 0.62329 0.3433 0.91146 0.0
C1028 C 0.87943 0.35938 0.09927 0.0
C1029 C 0.88802 0.34469 0.15249 0.0
H1030 H 0.88832 0.3868 0.02543 0.0
C1031 C 0.91132 0.34878 0.17805 0.0
H1032 H 0.86158 0.35659 0.07852 0.0
C1033 C 0.92628 0.36597 0.14842 0.0
C1034 C 0.91831 0.37965 0.0929 0.0
H1035 H 0.91844 0.33799 0.21946 0.0
H1036 H 0.94462 0.36771 0.16673 0.0
C1037 C 0.89461 0.37672 0.06928 0.0
C1038 C 0.93078 0.66609 0.37852 0.0
C1039 C 0.92367 0.64262 0.39586 0.0
H1040 H 0.92111 0.70005 0.33672 0.0
C1041 C 0.89978 0.63547 0.38275 0.0
H1042 H 0.94904 0.6722 0.38752 0.0
C1043 C 0.88326 0.65194 0.35386 0.0
C1044 C 0.89073 0.67543 0.33652 0.0
H1045 H 0.89382 0.61749 0.39603 0.0
H1046 H 0.86491 0.64628 0.34433 0.0
C1047 C 0.91468 0.68212 0.34909 0.0
C1048 C 0.38637 0.34642 0.41254 0.0
C1049 C 0.38169 0.34778 0.34247 0.0
H1050 H 0.4077 0.35953 0.49575 0.0
C1051 C 0.39275 0.36593 0.30352 0.0
H1052 H 0.37841 0.33223 0.4431 0.0
C1053 C 0.40906 0.38196 0.33392 0.0
C1054 C 0.41509 0.3794 0.40303 0.0
H1055 H 0.3897 0.36692 0.24903 0.0
H1056 H 0.41831 0.39506 0.3024 0.0
C1057 C 0.40318 0.36192 0.44242 0.0
C1058 C 0.3895 0.64519 0.16951 0.0
C1059 C 0.3824 0.66646 0.1361 0.0
H1060 H 0.41243 0.61389 0.16693 0.0
C1061 C 0.39145 0.67145 0.07103 0.0
H1062 H 0.38307 0.64134 0.22051 0.0
C1063 C 0.40846 0.65621 0.04129 0.0
C1064 C 0.4166 0.63554 0.07582 0.0
H1065 H 0.38654 0.68798 0.04504 0.0
H1066 H 0.41605 0.66118 -0.00763 0.0
C1067 C 0.4063 0.62959 0.13906 0.0
C1068 C 0.10443 0.63246 0.83382 0.0
C1069 C 0.09873 0.63479 0.90323 0.0
H1070 H 0.12321 0.64789 0.74842 0.0
C1071 C 0.11064 0.65235 0.9424 0.0
H1072 H 0.09516 0.61933 0.80243 0.0
C1073 C 0.1271 0.66811 0.9121 0.0
C1074 C 0.13145 0.66695 0.84184 0.0
H1075 H 0.10635 0.65459 -0.00406 0.0
H1076 H 0.13507 0.68232 0.9426 0.0
C1077 C 0.12039 0.64875 0.80304 0.0
C1078 C 0.10508 0.38254 0.63752 0.0
C1079 C 0.09437 0.37655 0.57484 0.0
H1080 H 0.12859 0.37074 0.71831 0.0
C1081 C 0.10195 0.35557 0.54074 0.0
H1082 H 0.0994 0.39849 0.66508 0.0
C1083 C 0.1188 0.34012 0.57035 0.0
C1084 C 0.12832 0.34524 0.63479 0.0
H1085 H 0.09406 0.35054 0.49224 0.0
H1086 H 0.1233 0.32341 0.54466 0.0
C1087 C 0.12178 0.36677 0.66778 0.0
loop_
_geom_bond_atom_site_label_1
_geom_bond_atom_site_label_2
_geom_bond_distance
_geom_bond_site_symmetry_2
_ccdc_geom_bond_type
Co0 O1 2.216 . S
Co0 O2 2.091 . S
Co0 O4 2.004 . S
Co0 O10 2.021 . S
Co0 O12 2.137 1_554 S
Co0 O13 2.244 1_454 S
O1 Co0 2.216 . S
O1 C8 1.247 . S
O2 Co0 2.091 . S
O2 C8 1.261 . S
C3 O12 1.247 . S
C3 O13 1.272 1_455 S
O4 Co0 2.004 . S
O4 C9 1.259 . S
Co5 O6 2.061 . S
Co5 O11 2.052 . S
Co5 O13 2.135 1_554 S
O6 Co5 2.061 . S
O6 C9 1.235 1_655 S
C7 O10 1.238 1_655 S
C7 O11 1.241 . S
C8 O1 1.247 . S
C8 O2 1.261 . S
C9 O4 1.259 . S
C9 O6 1.235 1_455 S
O10 Co0 2.021 . S
O10 C7 1.238 1_455 S
O11 Co5 2.052 . S
O11 C7 1.241 . S
O12 Co0 2.137 1_556 S
O12 C3 1.247 . S
O13 Co0 2.244 1_656 S
O13 C3 1.272 1_655 S
O13 Co5 2.135 1_556 S
Co14 O15 2.216 . S
Co14 O16 2.091 . S
Co14 O18 2.004 . S
Co14 O24 2.021 . S
Co14 O26 2.137 . S
Co14 O27 2.244 . S
O15 Co14 2.216 . S
O15 C22 1.247 . S
O16 Co14 2.091 . S
O16 C22 1.261 . S
C17 O26 1.247 . S
C17 O27 1.272 . S
O18 Co14 2.004 . S
O18 C23 1.259 . S
Co19 O20 2.061 . S
Co19 O25 2.052 . S
Co19 O27 2.135 . S
O20 Co19 2.061 . S
O20 C23 1.235 . S
C21 O24 1.238 . S
C21 O25 1.241 . S
C22 O15 1.247 . S
C22 O16 1.261 . S
C23 O18 1.259 . S
C23 O20 1.235 . S
O24 Co14 2.021 . S
O24 C21 1.238 . S
O25 Co19 2.052 . S
O25 C21 1.241 . S
O26 Co14 2.137 . S
O26 C17 1.247 . S
O27 Co14 2.244 . S
O27 C17 1.272 . S
O27 Co19 2.135 . S
Co28 O29 2.216 . S
Co28 O30 2.091 . S
Co28 O32 2.004 . S
Co28 O38 2.021 . S
Co28 O40 2.137 . S
Co28 O41 2.244 . S
O29 Co28 2.216 . S
O29 C36 1.247 . S
O30 Co28 2.091 . S
O30 C36 1.261 . S
C31 O40 1.247 . S
C31 O41 1.272 . S
O32 Co28 2.004 . S
O32 C37 1.259 . S
Co33 O34 2.061 . S
Co33 O39 2.052 . S
Co33 O41 2.135 . S
O34 Co33 2.061 . S
O34 C37 1.235 . S
C35 O38 1.238 . S
C35 O39 1.241 . S
C36 O29 1.247 . S
C36 O30 1.261 . S
C37 O32 1.259 . S
C37 O34 1.235 . S
O38 Co28 2.021 . S
O38 C35 1.238 . S
O39 Co33 2.052 . S
O39 C35 1.241 . S
O40 Co28 2.137 . S
O40 C31 1.247 . S
O41 Co28 2.244 . S
O41 C31 1.272 . S
O41 Co33 2.135 . S
Co42 O43 2.216 . S
Co42 O44 2.091 . S
Co42 O46 2.004 . S
Co42 O52 2.021 . S
Co42 O54 2.137 . S
Co42 O55 2.244 . S
O43 Co42 2.216 . S
O43 C50 1.247 . S
O44 Co42 2.091 . S
O44 C50 1.261 . S
C45 O54 1.247 . S
C45 O55 1.272 . S
O46 Co42 2.004 . S
O46 C51 1.259 . S
Co47 O48 2.061 . S
Co47 O53 2.052 . S
Co47 O55 2.135 . S
O48 Co47 2.061 . S
O48 C51 1.235 . S
C49 O52 1.238 . S
C49 O53 1.241 . S
C50 O43 1.247 . S
C50 O44 1.261 . S
C51 O46 1.259 . S
C51 O48 1.235 . S
O52 Co42 2.021 . S
O52 C49 1.238 . S
O53 Co47 2.052 . S
O53 C49 1.241 . S
O54 Co42 2.137 . S
O54 C45 1.247 . S
O55 Co42 2.244 . S
O55 C45 1.272 . S
O55 Co47 2.135 . S
Co56 O57 2.216 . S
Co56 O58 2.091 . S
Co56 O60 2.004 . S
Co56 O66 2.021 . S
Co56 O68 2.137 . S
Co56 O69 2.244 1_455 S
O57 Co56 2.216 . S
O57 C64 1.247 . S
O58 Co56 2.091 . S
O58 C64 1.261 . S
C59 O68 1.247 . S
C59 O69 1.272 1_455 S
O60 Co56 2.004 . S
O60 C65 1.259 . S
Co61 O62 2.061 . S
Co61 O67 2.052 . S
Co61 O69 2.135 . S
O62 Co61 2.061 . S
O62 C65 1.235 1_655 S
C63 O66 1.238 1_655 S
C63 O67 1.241 . S
C64 O57 1.247 . S
C64 O58 1.261 . S
C65 O60 1.259 . S
C65 O62 1.235 1_455 S
O66 Co56 2.021 . S
O66 C63 1.238 1_455 S
O67 Co61 2.052 . S
O67 C63 1.241 . S
O68 Co56 2.137 . S
O68 C59 1.247 . S
O69 Co56 2.244 1_655 S
O69 C59 1.272 1_655 S
O69 Co61 2.135 . S
Co70 O71 2.216 . S
Co70 O72 2.091 . S
Co70 O74 2.004 . S
Co70 O80 2.021 . S
Co70 O82 2.137 . S
Co70 O83 2.244 . S
O71 Co70 2.216 . S
O71 C78 1.247 . S
O72 Co70 2.091 . S
O72 C78 1.261 . S
C73 O82 1.247 . S
C73 O83 1.272 . S
O74 Co70 2.004 . S
O74 C79 1.259 . S
Co75 O76 2.061 . S
Co75 O81 2.052 . S
Co75 O83 2.135 . S
O76 Co75 2.061 . S
O76 C79 1.235 . S
C77 O80 1.238 . S
C77 O81 1.241 . S
C78 O71 1.247 . S
C78 O72 1.261 . S
C79 O74 1.259 . S
C79 O76 1.235 . S
O80 Co70 2.021 . S
O80 C77 1.238 . S
O81 Co75 2.052 . S
O81 C77 1.241 . S
O82 Co70 2.137 . S
O82 C73 1.247 . S
O83 Co70 2.244 . S
O83 C73 1.272 . S
O83 Co75 2.135 . S
Co84 O85 2.216 . S
Co84 O86 2.091 . S
Co84 O88 2.004 . S
Co84 O94 2.021 . S
Co84 O96 2.137 1_556 S
Co84 O97 2.244 1_556 S
O85 Co84 2.216 . S
O85 C92 1.247 . S
O86 Co84 2.091 . S
O86 C92 1.261 . S
C87 O96 1.247 . S
C87 O97 1.272 . S
O88 Co84 2.004 . S
O88 C93 1.259 . S
Co89 O90 2.061 . S
Co89 O95 2.052 . S
Co89 O97 2.135 1_556 S
O90 Co89 2.061 . S
O90 C93 1.235 . S
C91 O94 1.238 . S
C91 O95 1.241 . S
C92 O85 1.247 . S
C92 O86 1.261 . S
C93 O88 1.259 . S
C93 O90 1.235 . S
O94 Co84 2.021 . S
O94 C91 1.238 . S
O95 Co89 2.052 . S
O95 C91 1.241 . S
O96 Co84 2.137 1_554 S
O96 C87 1.247 . S
O97 Co84 2.244 1_554 S
O97 C87 1.272 . S
O97 Co89 2.135 1_554 S
Co98 O99 2.216 . S
Co98 O100 2.091 . S
Co98 O102 2.004 . S
Co98 O108 2.021 . S
Co98 O110 2.137 . S
Co98 O111 2.244 . S
O99 Co98 2.216 . S
O99 C106 1.247 . S
O100 Co98 2.091 . S
O100 C106 1.261 . S
C101 O110 1.247 . S
C101 O111 1.272 . S
O102 Co98 2.004 . S
O102 C107 1.259 . S
Co103 O104 2.061 . S
Co103 O109 2.052 . S
Co103 O111 2.135 . S
O104 Co103 2.061 . S
O104 C107 1.235 . S
C105 O108 1.238 . S
C105 O109 1.241 . S
C106 O99 1.247 . S
C106 O100 1.261 . S
C107 O102 1.259 . S
C107 O104 1.235 . S
O108 Co98 2.021 . S
O108 C105 1.238 . S
O109 Co103 2.052 . S
O109 C105 1.241 . S
O110 Co98 2.137 . S
O110 C101 1.247 . S
O111 Co98 2.244 . S
O111 C101 1.272 . S
O111 Co103 2.135 . S
Co112 O113 2.216 . S
Co112 O114 2.091 . S
Co112 O116 2.004 . S
Co112 O122 2.021 . S
Co112 O124 2.137 1_556 S
Co112 O125 2.244 1_656 S
O113 Co112 2.216 . S
O113 C120 1.247 . S
O114 Co112 2.091 . S
O114 C120 1.261 . S
C115 O124 1.247 . S
C115 O125 1.272 1_655 S
O116 Co112 2.004 . S
O116 C121 1.259 . S
Co117 O118 2.061 . S
Co117 O123 2.052 . S
Co117 O125 2.135 1_556 S
O118 Co117 2.061 . S
O118 C121 1.235 1_455 S
C119 O122 1.238 1_455 S
C119 O123 1.241 . S
C120 O113 1.247 . S
C120 O114 1.261 . S
C121 O116 1.259 . S
C121 O118 1.235 1_655 S
O122 Co112 2.021 . S
O122 C119 1.238 1_655 S
O123 Co117 2.052 . S
O123 C119 1.241 . S
O124 Co112 2.137 1_554 S
O124 C115 1.247 . S
O125 Co112 2.244 1_454 S
O125 C115 1.272 1_455 S
O125 Co117 2.135 1_554 S
Co126 O127 2.216 . S
Co126 O128 2.091 . S
Co126 O130 2.004 . S
Co126 O136 2.021 . S
Co126 O138 2.137 . S
Co126 O139 2.244 . S
O127 Co126 2.216 . S
O127 C134 1.247 . S
O128 Co126 2.091 . S
O128 C134 1.261 . S
C129 O138 1.247 . S
C129 O139 1.272 . S
O130 Co126 2.004 . S
O130 C135 1.259 . S
Co131 O132 2.061 . S
Co131 O137 2.052 . S
Co131 O139 2.135 . S
O132 Co131 2.061 . S
O132 C135 1.235 . S
C133 O136 1.238 . S
C133 O137 1.241 . S
C134 O127 1.247 . S
C134 O128 1.261 . S
C135 O130 1.259 . S
C135 O132 1.235 . S
O136 Co126 2.021 . S
O136 C133 1.238 . S
O137 Co131 2.052 . S
O137 C133 1.241 . S
O138 Co126 2.137 . S
O138 C129 1.247 . S
O139 Co126 2.244 . S
O139 C129 1.272 . S
O139 Co131 2.135 . S
Co140 O141 2.216 . S
Co140 O142 2.091 . S
Co140 O144 2.004 . S
Co140 O150 2.021 . S
Co140 O152 2.137 . S
Co140 O153 2.244 . S
O141 Co140 2.216 . S
O141 C148 1.247 . S
O142 Co140 2.091 . S
O142 C148 1.261 . S
C143 O152 1.247 . S
C143 O153 1.272 . S
O144 Co140 2.004 . S
O144 C149 1.259 . S
Co145 O146 2.061 . S
Co145 O151 2.052 . S
Co145 O153 2.135 . S
O146 Co145 2.061 . S
O146 C149 1.235 . S
C147 O150 1.238 . S
C147 O151 1.241 . S
C148 O141 1.247 . S
C148 O142 1.261 . S
C149 O144 1.259 . S
C149 O146 1.235 . S
O150 Co140 2.021 . S
O150 C147 1.238 . S
O151 Co145 2.052 . S
O151 C147 1.241 . S
O152 Co140 2.137 . S
O152 C143 1.247 . S
O153 Co140 2.244 . S
O153 C143 1.272 . S
O153 Co145 2.135 . S
Co154 O155 2.216 . S
Co154 O156 2.091 . S
Co154 O158 2.004 . S
Co154 O164 2.021 . S
Co154 O166 2.137 . S
Co154 O167 2.244 . S
O155 Co154 2.216 . S
O155 C162 1.247 . S
O156 Co154 2.091 . S
O156 C162 1.261 . S
C157 O166 1.247 . S
C157 O167 1.272 . S
O158 Co154 2.004 . S
O158 C163 1.259 . S
Co159 O160 2.061 . S
Co159 O165 2.052 . S
Co159 O167 2.135 . S
O160 Co159 2.061 . S
O160 C163 1.235 . S
C161 O164 1.238 . S
C161 O165 1.241 . S
C162 O155 1.247 . S
C162 O156 1.261 . S
C163 O158 1.259 . S
C163 O160 1.235 . S
O164 Co154 2.021 . S
O164 C161 1.238 . S
O165 Co159 2.052 . S
O165 C161 1.241 . S
O166 Co154 2.137 . S
O166 C157 1.247 . S
O167 Co154 2.244 . S
O167 C157 1.272 . S
O167 Co159 2.135 . S
Co168 O169 2.216 . S
Co168 O170 2.091 . S
Co168 O172 2.004 . S
Co168 O178 2.021 . S
Co168 O180 2.137 . S
Co168 O181 2.244 1_655 S
O169 Co168 2.216 . S
O169 C176 1.247 . S
O170 Co168 2.091 . S
O170 C176 1.261 . S
C171 O180 1.247 . S
C171 O181 1.272 1_655 S
O172 Co168 2.004 . S
O172 C177 1.259 . S
Co173 O174 2.061 . S
Co173 O179 2.052 . S
Co173 O181 2.135 . S
O174 Co173 2.061 . S
O174 C177 1.235 1_455 S
C175 O178 1.238 1_455 S
C175 O179 1.241 . S
C176 O169 1.247 . S
C176 O170 1.261 . S
C177 O172 1.259 . S
C177 O174 1.235 1_655 S
O178 Co168 2.021 . S
O178 C175 1.238 1_655 S
O179 Co173 2.052 . S
O179 C175 1.241 . S
O180 Co168 2.137 . S
O180 C171 1.247 . S
O181 Co168 2.244 1_455 S
O181 C171 1.272 1_455 S
O181 Co173 2.135 . S
Co182 O183 2.216 . S
Co182 O184 2.091 . S
Co182 O186 2.004 . S
Co182 O192 2.021 . S
Co182 O194 2.137 . S
Co182 O195 2.244 . S
O183 Co182 2.216 . S
O183 C190 1.247 . S
O184 Co182 2.091 . S
O184 C190 1.261 . S
C185 O194 1.247 . S
C185 O195 1.272 . S
O186 Co182 2.004 . S
O186 C191 1.259 . S
Co187 O188 2.061 . S
Co187 O193 2.052 . S
Co187 O195 2.135 . S
O188 Co187 2.061 . S
O188 C191 1.235 . S
C189 O192 1.238 . S
C189 O193 1.241 . S
C190 O183 1.247 . S
C190 O184 1.261 . S
C191 O186 1.259 . S
C191 O188 1.235 . S
O192 Co182 2.021 . S
O192 C189 1.238 . S
O193 Co187 2.052 . S
O193 C189 1.241 . S
O194 Co182 2.137 . S
O194 C185 1.247 . S
O195 Co182 2.244 . S
O195 C185 1.272 . S
O195 Co187 2.135 . S
Co196 O197 2.216 . S
Co196 O198 2.091 . S
Co196 O200 2.004 . S
Co196 O206 2.021 . S
Co196 O208 2.137 1_554 S
Co196 O209 2.244 1_554 S
O197 Co196 2.216 . S
O197 C204 1.247 . S
O198 Co196 2.091 . S
O198 C204 1.261 . S
C199 O208 1.247 . S
C199 O209 1.272 . S
O200 Co196 2.004 . S
O200 C205 1.259 . S
Co201 O202 2.061 . S
Co201 O207 2.052 . S
Co201 O209 2.135 1_554 S
O202 Co201 2.061 . S
O202 C205 1.235 . S
C203 O206 1.238 . S
C203 O207 1.241 . S
C204 O197 1.247 . S
C204 O198 1.261 . S
C205 O200 1.259 . S
C205 O202 1.235 . S
O206 Co196 2.021 . S
O206 C203 1.238 . S
O207 Co201 2.052 . S
O207 C203 1.241 . S
O208 Co196 2.137 1_556 S
O208 C199 1.247 . S
O209 Co196 2.244 1_556 S
O209 C199 1.272 . S
O209 Co201 2.135 1_556 S
Co210 O211 2.216 . S
Co210 O212 2.091 . S
Co210 O214 2.004 . S
Co210 O220 2.021 . S
Co210 O222 2.137 . S
Co210 O223 2.244 . S
O211 Co210 2.216 . S
O211 C218 1.247 . S
O212 Co210 2.091 . S
O212 C218 1.261 . S
C213 O222 1.247 . S
C213 O223 1.272 . S
O214 Co210 2.004 . S
O214 C219 1.259 . S
Co215 O216 2.061 . S
Co215 O221 2.052 . S
Co215 O223 2.135 . S
O216 Co215 2.061 . S
O216 C219 1.235 . S
C217 O220 1.238 . S
C217 O221 1.241 . S
C218 O211 1.247 . S
C218 O212 1.261 . S
C219 O214 1.259 . S
C219 O216 1.235 . S
O220 Co210 2.021 . S
O220 C217 1.238 . S
O221 Co215 2.052 . S
O221 C217 1.241 . S
O222 Co210 2.137 . S
O222 C213 1.247 . S
O223 Co210 2.244 . S
O223 C213 1.272 . S
O223 Co215 2.135 . S
Co224 O225 2.216 . S
Co224 O226 2.091 . S
Co224 O228 2.004 . S
Co224 O234 2.021 . S
Co224 O236 2.137 . S
Co224 O237 2.244 . S
O225 Co224 2.216 . S
O225 C232 1.247 . S
O226 Co224 2.091 . S
O226 C232 1.261 . S
C227 O236 1.247 . S
C227 O237 1.272 . S
O228 Co224 2.004 . S
O228 C233 1.259 . S
Co229 O230 2.061 . S
Co229 O235 2.052 . S
Co229 O237 2.135 . S
O230 Co229 2.061 . S
O230 C233 1.235 . S
C231 O234 1.238 . S
C231 O235 1.241 . S
C232 O225 1.247 . S
C232 O226 1.261 . S
C233 O228 1.259 . S
C233 O230 1.235 . S
O234 Co224 2.021 . S
O234 C231 1.238 . S
O235 Co229 2.052 . S
O235 C231 1.241 . S
O236 Co224 2.137 . S
O236 C227 1.247 . S
O237 Co224 2.244 . S
O237 C227 1.272 . S
O237 Co229 2.135 . S
Co238 O239 2.216 . S
Co238 O240 2.091 . S
Co238 O242 2.004 . S
Co238 O248 2.021 . S
Co238 O250 2.137 . S
Co238 O251 2.244 . S
O239 Co238 2.216 . S
O239 C246 1.247 . S
O240 Co238 2.091 . S
O240 C246 1.261 . S
C241 O250 1.247 . S
C241 O251 1.272 . S
O242 Co238 2.004 . S
O242 C247 1.259 . S
Co243 O244 2.061 . S
Co243 O249 2.052 . S
Co243 O251 2.135 . S
O244 Co243 2.061 . S
O244 C247 1.235 . S
C245 O248 1.238 . S
C245 O249 1.241 . S
C246 O239 1.247 . S
C246 O240 1.261 . S
C247 O242 1.259 . S
C247 O244 1.235 . S
O248 Co238 2.021 . S
O248 C245 1.238 . S
O249 Co243 2.052 . S
O249 C245 1.241 . S
O250 Co238 2.137 . S
O250 C241 1.247 . S
O251 Co238 2.244 . S
O251 C241 1.272 . S
O251 Co243 2.135 . S
Co252 O253 2.216 . S
Co252 O254 2.091 . S
Co252 O256 2.004 . S
Co252 O262 2.021 . S
Co252 O264 2.137 1_554 S
Co252 O265 2.244 1_654 S
O253 Co252 2.216 . S
O253 C260 1.247 . S
O254 Co252 2.091 . S
O254 C260 1.261 . S
C255 O264 1.247 . S
C255 O265 1.272 1_655 S
O256 Co252 2.004 . S
O256 C261 1.259 . S
Co257 O258 2.061 . S
Co257 O263 2.052 . S
Co257 O265 2.135 1_554 S
O258 Co257 2.061 . S
O258 C261 1.235 1_455 S
C259 O262 1.238 1_455 S
C259 O263 1.241 . S
C260 O253 1.247 . S
C260 O254 1.261 . S
C261 O256 1.259 . S
C261 O258 1.235 1_655 S
O262 Co252 2.021 . S
O262 C259 1.238 1_655 S
O263 Co257 2.052 . S
O263 C259 1.241 . S
O264 Co252 2.137 1_556 S
O264 C255 1.247 . S
O265 Co252 2.244 1_456 S
O265 C255 1.272 1_455 S
O265 Co257 2.135 1_556 S
Co266 O267 2.216 . S
Co266 O268 2.091 . S
Co266 O270 2.004 . S
Co266 O276 2.021 . S
Co266 O278 2.137 . S
Co266 O279 2.244 . S
O267 Co266 2.216 . S
O267 C274 1.247 . S
O268 Co266 2.091 . S
O268 C274 1.261 . S
C269 O278 1.247 . S
C269 O279 1.272 . S
O270 Co266 2.004 . S
O270 C275 1.259 . S
Co271 O272 2.061 . S
Co271 O277 2.052 . S
Co271 O279 2.135 . S
O272 Co271 2.061 . S
O272 C275 1.235 . S
C273 O276 1.238 . S
C273 O277 1.241 . S
C274 O267 1.247 . S
C274 O268 1.261 . S
C275 O270 1.259 . S
C275 O272 1.235 . S
O276 Co266 2.021 . S
O276 C273 1.238 . S
O277 Co271 2.052 . S
O277 C273 1.241 . S
O278 Co266 2.137 . S
O278 C269 1.247 . S
O279 Co266 2.244 . S
O279 C269 1.272 . S
O279 Co271 2.135 . S
Co280 O281 2.216 . S
Co280 O282 2.091 . S
Co280 O284 2.004 . S
Co280 O290 2.021 . S
Co280 O292 2.137 1_556 S
Co280 O293 2.244 1_556 S
O281 Co280 2.216 . S
O281 C288 1.247 . S
O282 Co280 2.091 . S
O282 C288 1.261 . S
C283 O292 1.247 . S
C283 O293 1.272 . S
O284 Co280 2.004 . S
O284 C289 1.259 . S
Co285 O286 2.061 . S
Co285 O291 2.052 . S
Co285 O293 2.135 1_556 S
O286 Co285 2.061 . S
O286 C289 1.235 . S
C287 O290 1.238 . S
C287 O291 1.241 . S
C288 O281 1.247 . S
C288 O282 1.261 . S
C289 O284 1.259 . S
C289 O286 1.235 . S
O290 Co280 2.021 . S
O290 C287 1.238 . S
O291 Co285 2.052 . S
O291 C287 1.241 . S
O292 Co280 2.137 1_554 S
O292 C283 1.247 . S
O293 Co280 2.244 1_554 S
O293 C283 1.272 . S
O293 Co285 2.135 1_554 S
Co294 O295 2.216 . S
Co294 O296 2.091 . S
Co294 O298 2.004 . S
Co294 O304 2.021 . S
Co294 O306 2.137 . S
Co294 O307 2.244 . S
O295 Co294 2.216 . S
O295 C302 1.247 . S
O296 Co294 2.091 . S
O296 C302 1.261 . S
C297 O306 1.247 . S
C297 O307 1.272 . S
O298 Co294 2.004 . S
O298 C303 1.259 . S
Co299 O300 2.061 . S
Co299 O305 2.052 . S
Co299 O307 2.135 . S
O300 Co299 2.061 . S
O300 C303 1.235 . S
C301 O304 1.238 . S
C301 O305 1.241 . S
C302 O295 1.247 . S
C302 O296 1.261 . S
C303 O298 1.259 . S
C303 O300 1.235 . S
O304 Co294 2.021 . S
O304 C301 1.238 . S
O305 Co299 2.052 . S
O305 C301 1.241 . S
O306 Co294 2.137 . S
O306 C297 1.247 . S
O307 Co294 2.244 . S
O307 C297 1.272 . S
O307 Co299 2.135 . S
Co308 O309 2.216 . S
Co308 O310 2.091 . S
Co308 O312 2.004 . S
Co308 O318 2.021 . S
Co308 O320 2.137 . S
Co308 O321 2.244 1_655 S
O309 Co308 2.216 . S
O309 C316 1.247 . S
O310 Co308 2.091 . S
O310 C316 1.261 . S
C311 O320 1.247 . S
C311 O321 1.272 1_655 S
O312 Co308 2.004 . S
O312 C317 1.259 . S
Co313 O314 2.061 . S
Co313 O319 2.052 . S
Co313 O321 2.135 . S
O314 Co313 2.061 . S
O314 C317 1.235 1_455 S
C315 O318 1.238 1_455 S
C315 O319 1.241 . S
C316 O309 1.247 . S
C316 O310 1.261 . S
C317 O312 1.259 . S
C317 O314 1.235 1_655 S
O318 Co308 2.021 . S
O318 C315 1.238 1_655 S
O319 Co313 2.052 . S
O319 C315 1.241 . S
O320 Co308 2.137 . S
O320 C311 1.247 . S
O321 Co308 2.244 1_455 S
O321 C311 1.272 1_455 S
O321 Co313 2.135 . S
Co322 O323 2.216 . S
Co322 O324 2.091 . S
Co322 O326 2.004 . S
Co322 O332 2.021 . S
Co322 O334 2.137 . S
Co322 O335 2.244 . S
O323 Co322 2.216 . S
O323 C330 1.247 . S
O324 Co322 2.091 . S
O324 C330 1.261 . S
C325 O334 1.247 . S
C325 O335 1.272 . S
O326 Co322 2.004 . S
O326 C331 1.259 . S
Co327 O328 2.061 . S
Co327 O333 2.052 . S
Co327 O335 2.135 . S
O328 Co327 2.061 . S
O328 C331 1.235 . S
C329 O332 1.238 . S
C329 O333 1.241 . S
C330 O323 1.247 . S
C330 O324 1.261 . S
C331 O326 1.259 . S
C331 O328 1.235 . S
O332 Co322 2.021 . S
O332 C329 1.238 . S
O333 Co327 2.052 . S
O333 C329 1.241 . S
O334 Co322 2.137 . S
O334 C325 1.247 . S
O335 Co322 2.244 . S
O335 C325 1.272 . S
O335 Co327 2.135 . S
Co336 O337 2.216 . S
Co336 O338 2.091 . S
Co336 O340 2.004 . S
Co336 O346 2.021 . S
Co336 O348 2.137 . S
Co336 O349 2.244 . S
O337 Co336 2.216 . S
O337 C344 1.247 . S
O338 Co336 2.091 . S
O338 C344 1.261 . S
C339 O348 1.247 . S
C339 O349 1.272 . S
O340 Co336 2.004 . S
O340 C345 1.259 . S
Co341 O342 2.061 . S
Co341 O347 2.052 . S
Co341 O349 2.135 . S
O342 Co341 2.061 . S
O342 C345 1.235 . S
C343 O346 1.238 . S
C343 O347 1.241 . S
C344 O337 1.247 . S
C344 O338 1.261 . S
C345 O340 1.259 . S
C345 O342 1.235 . S
O346 Co336 2.021 . S
O346 C343 1.238 . S
O347 Co341 2.052 . S
O347 C343 1.241 . S
O348 Co336 2.137 . S
O348 C339 1.247 . S
O349 Co336 2.244 . S
O349 C339 1.272 . S
O349 Co341 2.135 . S
Co350 O351 2.216 . S
Co350 O352 2.091 . S
Co350 O354 2.004 . S
Co350 O360 2.021 . S
Co350 O362 2.137 . S
Co350 O363 2.244 . S
O351 Co350 2.216 . S
O351 C358 1.247 . S
O352 Co350 2.091 . S
O352 C358 1.261 . S
C353 O362 1.247 . S
C353 O363 1.272 . S
O354 Co350 2.004 . S
O354 C359 1.259 . S
Co355 O356 2.061 . S
Co355 O361 2.052 . S
Co355 O363 2.135 . S
O356 Co355 2.061 . S
O356 C359 1.235 . S
C357 O360 1.238 . S
C357 O361 1.241 . S
C358 O351 1.247 . S
C358 O352 1.261 . S
C359 O354 1.259 . S
C359 O356 1.235 . S
O360 Co350 2.021 . S
O360 C357 1.238 . S
O361 Co355 2.052 . S
O361 C357 1.241 . S
O362 Co350 2.137 . S
O362 C353 1.247 . S
O363 Co350 2.244 . S
O363 C353 1.272 . S
O363 Co355 2.135 . S
Co364 O365 2.216 . S
Co364 O366 2.091 . S
Co364 O368 2.004 . S
Co364 O374 2.021 . S
Co364 O376 2.137 1_556 S
Co364 O377 2.244 1_456 S
O365 Co364 2.216 . S
O365 C372 1.247 . S
O366 Co364 2.091 . S
O366 C372 1.261 . S
C367 O376 1.247 . S
C367 O377 1.272 1_455 S
O368 Co364 2.004 . S
O368 C373 1.259 . S
Co369 O370 2.061 . S
Co369 O375 2.052 . S
Co369 O377 2.135 1_556 S
O370 Co369 2.061 . S
O370 C373 1.235 1_655 S
C371 O374 1.238 1_655 S
C371 O375 1.241 . S
C372 O365 1.247 . S
C372 O366 1.261 . S
C373 O368 1.259 . S
C373 O370 1.235 1_455 S
O374 Co364 2.021 . S
O374 C371 1.238 1_455 S
O375 Co369 2.052 . S
O375 C371 1.241 . S
O376 Co364 2.137 1_554 S
O376 C367 1.247 . S
O377 Co364 2.244 1_654 S
O377 C367 1.272 1_655 S
O377 Co369 2.135 1_554 S
Co378 O379 2.216 . S
Co378 O380 2.091 . S
Co378 O382 2.004 . S
Co378 O388 2.021 . S
Co378 O390 2.137 . S
Co378 O391 2.244 . S
O379 Co378 2.216 . S
O379 C386 1.247 . S
O380 Co378 2.091 . S
O380 C386 1.261 . S
C381 O390 1.247 . S
C381 O391 1.272 . S
O382 Co378 2.004 . S
O382 C387 1.259 . S
Co383 O384 2.061 . S
Co383 O389 2.052 . S
Co383 O391 2.135 . S
O384 Co383 2.061 . S
O384 C387 1.235 . S
C385 O388 1.238 . S
C385 O389 1.241 . S
C386 O379 1.247 . S
C386 O380 1.261 . S
C387 O382 1.259 . S
C387 O384 1.235 . S
O388 Co378 2.021 . S
O388 C385 1.238 . S
O389 Co383 2.052 . S
O389 C385 1.241 . S
O390 Co378 2.137 . S
O390 C381 1.247 . S
O391 Co378 2.244 . S
O391 C381 1.272 . S
O391 Co383 2.135 . S
Co392 O393 2.216 . S
Co392 O394 2.091 . S
Co392 O396 2.004 . S
Co392 O402 2.021 . S
Co392 O404 2.137 1_554 S
Co392 O405 2.244 1_554 S
O393 Co392 2.216 . S
O393 C400 1.247 . S
O394 Co392 2.091 . S
O394 C400 1.261 . S
C395 O404 1.247 . S
C395 O405 1.272 . S
O396 Co392 2.004 . S
O396 C401 1.259 . S
Co397 O398 2.061 . S
Co397 O403 2.052 . S
Co397 O405 2.135 1_554 S
O398 Co397 2.061 . S
O398 C401 1.235 . S
C399 O402 1.238 . S
C399 O403 1.241 . S
C400 O393 1.247 . S
C400 O394 1.261 . S
C401 O396 1.259 . S
C401 O398 1.235 . S
O402 Co392 2.021 . S
O402 C399 1.238 . S
O403 Co397 2.052 . S
O403 C399 1.241 . S
O404 Co392 2.137 1_556 S
O404 C395 1.247 . S
O405 Co392 2.244 1_556 S
O405 C395 1.272 . S
O405 Co397 2.135 1_556 S
Co406 O407 2.216 . S
Co406 O408 2.091 . S
Co406 O410 2.004 . S
Co406 O416 2.021 . S
Co406 O418 2.137 . S
Co406 O419 2.244 . S
O407 Co406 2.216 . S
O407 C414 1.247 . S
O408 Co406 2.091 . S
O408 C414 1.261 . S
C409 O418 1.247 . S
C409 O419 1.272 . S
O410 Co406 2.004 . S
O410 C415 1.259 . S
Co411 O412 2.061 . S
Co411 O417 2.052 . S
Co411 O419 2.135 . S
O412 Co411 2.061 . S
O412 C415 1.235 . S
C413 O416 1.238 . S
C413 O417 1.241 . S
C414 O407 1.247 . S
C414 O408 1.261 . S
C415 O410 1.259 . S
C415 O412 1.235 . S
O416 Co406 2.021 . S
O416 C413 1.238 . S
O417 Co411 2.052 . S
O417 C413 1.241 . S
O418 Co406 2.137 . S
O418 C409 1.247 . S
O419 Co406 2.244 . S
O419 C409 1.272 . S
O419 Co411 2.135 . S
Co420 O421 2.216 . S
Co420 O422 2.091 . S
Co420 O424 2.004 . S
Co420 O430 2.021 . S
Co420 O432 2.137 . S
Co420 O433 2.244 1_455 S
O421 Co420 2.216 . S
O421 C428 1.247 . S
O422 Co420 2.091 . S
O422 C428 1.261 . S
C423 O432 1.247 . S
C423 O433 1.272 1_455 S
O424 Co420 2.004 . S
O424 C429 1.259 . S
Co425 O426 2.061 . S
Co425 O431 2.052 . S
Co425 O433 2.135 . S
O426 Co425 2.061 . S
O426 C429 1.235 1_655 S
C427 O430 1.238 1_655 S
C427 O431 1.241 . S
C428 O421 1.247 . S
C428 O422 1.261 . S
C429 O424 1.259 . S
C429 O426 1.235 1_455 S
O430 Co420 2.021 . S
O430 C427 1.238 1_455 S
O431 Co425 2.052 . S
O431 C427 1.241 . S
O432 Co420 2.137 . S
O432 C423 1.247 . S
O433 Co420 2.244 1_655 S
O433 C423 1.272 1_655 S
O433 Co425 2.135 . S
Co434 O435 2.216 . S
Co434 O436 2.091 . S
Co434 O438 2.004 . S
Co434 O444 2.021 . S
Co434 O446 2.137 . S
Co434 O447 2.244 . S
O435 Co434 2.216 . S
O435 C442 1.247 . S
O436 Co434 2.091 . S
O436 C442 1.261 . S
C437 O446 1.247 . S
C437 O447 1.272 . S
O438 Co434 2.004 . S
O438 C443 1.259 . S
Co439 O440 2.061 . S
Co439 O445 2.052 . S
Co439 O447 2.135 . S
O440 Co439 2.061 . S
O440 C443 1.235 . S
C441 O444 1.238 . S
C441 O445 1.241 . S
C442 O435 1.247 . S
C442 O436 1.261 . S
C443 O438 1.259 . S
C443 O440 1.235 . S
O444 Co434 2.021 . S
O444 C441 1.238 . S
O445 Co439 2.052 . S
O445 C441 1.241 . S
O446 Co434 2.137 . S
O446 C437 1.247 . S
O447 Co434 2.244 . S
O447 C437 1.272 . S
O447 Co439 2.135 . S
C448 C449 1.387 1_655 S
C448 H452 0.950 . S
C448 C457 1.390 . S
C449 C448 1.387 1_455 S
C449 C451 1.387 . S
H450 C457 0.950 . S
C451 C449 1.387 . S
C451 C453 1.390 . S
C451 H455 0.950 . S
H452 C448 0.950 . S
C453 C451 1.390 . S
C453 C454 1.394 . S
C453 H456 0.950 . S
C454 C453 1.394 . S
C454 C457 1.382 1_455 S
H455 C451 0.950 . S
H456 C453 0.950 . S
C457 C448 1.390 . S
C457 H450 0.950 . S
C457 C454 1.382 1_655 S
C458 C459 1.387 1_554 S
C458 H462 0.950 . S
C458 C467 1.390 . S
C459 C458 1.387 1_556 S
C459 C461 1.387 1_556 S
H460 C467 0.950 . S
C461 C459 1.387 1_554 S
C461 C463 1.390 . S
C461 H465 0.950 1_554 S
H462 C458 0.950 . S
C463 C461 1.390 . S
C463 C464 1.387 . S
C463 H466 0.950 . S
C464 C463 1.387 . S
C464 C467 1.387 . S
H465 C461 0.950 1_556 S
H466 C463 0.950 . S
C467 C458 1.390 . S
C467 H460 0.950 . S
C467 C464 1.387 . S
C468 C469 1.387 . S
C468 H472 0.950 . S
C468 C477 1.390 . S
C469 C468 1.387 . S
C469 C471 1.387 . S
H470 C477 0.950 . S
C471 C469 1.387 . S
C471 C473 1.390 . S
C471 H475 0.950 . S
H472 C468 0.950 . S
C473 C471 1.390 . S
C473 C474 1.387 . S
C473 H476 0.950 . S
C474 C473 1.387 . S
C474 C477 1.387 . S
H475 C471 0.950 . S
H476 C473 0.950 . S
C477 C468 1.390 . S
C477 H470 0.950 . S
C477 C474 1.387 . S
C478 C479 1.387 . S
C478 H482 0.950 . S
C478 C487 1.390 . S
C479 C478 1.387 . S
C479 C481 1.387 . S
H480 C487 0.950 . S
C481 C479 1.387 . S
C481 C483 1.390 . S
C481 H485 0.950 . S
H482 C478 0.950 . S
C483 C481 1.390 . S
C483 C484 1.387 . S
C483 H486 0.950 . S
C484 C483 1.387 . S
C484 C487 1.387 . S
H485 C481 0.950 . S
H486 C483 0.950 . S
C487 C478 1.390 . S
C487 H480 0.950 . S
C487 C484 1.387 . S
C488 C489 1.387 1_655 S
C488 H492 0.950 . S
C488 C497 1.390 . S
C489 C488 1.387 1_455 S
C489 C491 1.387 . S
H490 C497 0.950 . S
C491 C489 1.387 . S
C491 C493 1.390 . S
C491 H495 0.950 . S
H492 C488 0.950 . S
C493 C491 1.390 . S
C493 C494 1.390 . S
C493 H496 0.950 . S
C494 C493 1.390 . S
C494 C497 1.385 1_455 S
H495 C491 0.950 . S
H496 C493 0.950 . S
C497 C488 1.390 . S
C497 H490 0.950 . S
C497 C494 1.385 1_655 S
C498 C499 1.387 . S
C498 H502 0.950 . S
C498 C507 1.390 . S
C499 C498 1.387 . S
C499 C501 1.387 . S
H500 C507 0.950 1_554 S
C501 C499 1.387 . S
C501 C503 1.390 . S
C501 H505 0.950 . S
H502 C498 0.950 . S
C503 C501 1.390 . S
C503 C504 1.387 1_556 S
C503 H506 0.950 . S
C504 C503 1.387 1_554 S
C504 C507 1.387 1_554 S
H505 C501 0.950 . S
H506 C503 0.950 . S
C507 C498 1.390 . S
C507 H500 0.950 1_556 S
C507 C504 1.387 1_556 S
C508 C509 1.387 . S
C508 H512 0.950 . S
C508 C517 1.390 . S
C509 C508 1.387 . S
C509 C511 1.387 . S
H510 C517 0.950 . S
C511 C509 1.387 . S
C511 C513 1.390 . S
C511 H515 0.950 . S
H512 C508 0.950 . S
C513 C511 1.390 . S
C513 C514 1.387 . S
C513 H516 0.950 . S
C514 C513 1.387 . S
C514 C517 1.387 . S
H515 C511 0.950 . S
H516 C513 0.950 . S
C517 C508 1.390 . S
C517 H510 0.950 . S
C517 C514 1.387 . S
C518 C519 1.387 . S
C518 H522 0.950 . S
C518 C527 1.390 . S
C519 C518 1.387 . S
C519 C521 1.387 . S
H520 C527 0.950 . S
C521 C519 1.387 . S
C521 C523 1.390 . S
C521 H525 0.950 . S
H522 C518 0.950 . S
C523 C521 1.390 . S
C523 C524 1.387 . S
C523 H526 0.950 . S
C524 C523 1.387 . S
C524 C527 1.387 . S
H525 C521 0.950 . S
H526 C523 0.950 . S
C527 C518 1.390 . S
C527 H520 0.950 . S
C527 C524 1.387 . S
C528 C529 1.387 1_455 S
C528 H532 0.950 . S
C528 C537 1.390 . S
C529 C528 1.387 1_655 S
C529 C531 1.387 . S
H530 C537 0.950 . S
C531 C529 1.387 . S
C531 C533 1.390 . S
C531 H535 0.950 . S
H532 C528 0.950 . S
C533 C531 1.390 . S
C533 C534 1.387 . S
C533 H536 0.950 . S
C534 C533 1.387 . S
C534 C537 1.388 1_655 S
H535 C531 0.950 . S
H536 C533 0.950 . S
C537 C528 1.390 . S
C537 H530 0.950 . S
C537 C534 1.388 1_455 S
C538 C539 1.387 1_556 S
C538 H542 0.950 . S
C538 C547 1.390 . S
C539 C538 1.387 1_554 S
C539 C541 1.387 1_554 S
H540 C547 0.950 . S
C541 C539 1.387 1_556 S
C541 C543 1.390 . S
C541 H545 0.950 1_556 S
H542 C538 0.950 . S
C543 C541 1.390 . S
C543 C544 1.387 . S
C543 H546 0.950 . S
C544 C543 1.387 . S
C544 C547 1.387 . S
H545 C541 0.950 1_554 S
H546 C543 0.950 . S
C547 C538 1.390 . S
C547 H540 0.950 . S
C547 C544 1.387 . S
C548 C549 1.387 . S
C548 H552 0.950 . S
C548 C557 1.390 . S
C549 C548 1.387 . S
C549 C551 1.387 . S
H550 C557 0.950 . S
C551 C549 1.387 . S
C551 C553 1.390 . S
C551 H555 0.950 . S
H552 C548 0.950 . S
C553 C551 1.390 . S
C553 C554 1.387 . S
C553 H556 0.950 . S
C554 C553 1.387 . S
C554 C557 1.387 . S
H555 C551 0.950 . S
H556 C553 0.950 . S
C557 C548 1.390 . S
C557 H550 0.950 . S
C557 C554 1.387 . S
C558 C559 1.387 . S
C558 H562 0.950 . S
C558 C567 1.390 . S
C559 C558 1.387 . S
C559 C561 1.387 . S
H560 C567 0.950 . S
C561 C559 1.387 . S
C561 C563 1.390 . S
C561 H565 0.950 . S
H562 C558 0.950 . S
C563 C561 1.390 . S
C563 C564 1.387 . S
C563 H566 0.950 . S
C564 C563 1.387 . S
C564 C567 1.387 . S
H565 C561 0.950 . S
H566 C563 0.950 . S
C567 C558 1.390 . S
C567 H560 0.950 . S
C567 C564 1.387 . S
C568 C569 1.393 . S
C568 H572 0.950 . S
C568 C577 1.390 . S
C569 C568 1.393 . S
C569 C571 1.383 1_655 S
H570 C577 0.950 . S
C571 C569 1.383 1_455 S
C571 C573 1.390 . S
C571 H575 0.950 . S
H572 C568 0.950 . S
C573 C571 1.390 . S
C573 C574 1.387 1_455 S
C573 H576 0.950 . S
C574 C573 1.387 1_655 S
C574 C577 1.387 . S
H575 C571 0.950 . S
H576 C573 0.950 . S
C577 C568 1.390 . S
C577 H570 0.950 . S
C577 C574 1.387 . S
C578 C579 1.387 . S
C578 H582 0.950 . S
C578 C587 1.390 . S
C579 C578 1.387 . S
C579 C581 1.387 . S
H580 C587 0.950 . S
C581 C579 1.387 . S
C581 C583 1.390 . S
C581 H585 0.950 . S
H582 C578 0.950 . S
C583 C581 1.390 . S
C583 C584 1.387 1_554 S
C583 H586 0.950 1_554 S
C584 C583 1.387 1_556 S
C584 C587 1.387 1_556 S
H585 C581 0.950 . S
H586 C583 0.950 1_556 S
C587 C578 1.390 . S
C587 H580 0.950 . S
C587 C584 1.387 1_554 S
C588 C589 1.387 . S
C588 H592 0.950 . S
C588 C597 1.390 . S
C589 C588 1.387 . S
C589 C591 1.387 . S
H590 C597 0.950 . S
C591 C589 1.387 . S
C591 C593 1.390 . S
C591 H595 0.950 . S
H592 C588 0.950 . S
C593 C591 1.390 . S
C593 C594 1.387 . S
C593 H596 0.950 . S
C594 C593 1.387 . S
C594 C597 1.387 . S
H595 C591 0.950 . S
H596 C593 0.950 . S
C597 C588 1.390 . S
C597 H590 0.950 . S
C597 C594 1.387 . S
C598 C599 1.387 . S
C598 H602 0.950 . S
C598 C607 1.390 . S
C599 C598 1.387 . S
C599 C601 1.387 . S
H600 C607 0.950 . S
C601 C599 1.387 . S
C601 C603 1.390 . S
C601 H605 0.950 . S
H602 C598 0.950 . S
C603 C601 1.390 . S
C603 C604 1.387 . S
C603 H606 0.950 . S
C604 C603 1.387 . S
C604 C607 1.387 . S
H605 C601 0.950 . S
H606 C603 0.950 . S
C607 C598 1.390 . S
C607 H600 0.950 . S
C607 C604 1.387 . S
C608 C609 1.387 . S
C608 H612 0.950 . S
C608 C617 1.390 . S
C609 C608 1.387 . S
C609 C611 1.387 . S
H610 C617 0.950 . S
C611 C609 1.387 . S
C611 C613 1.390 . S
C611 H615 0.950 . S
H612 C608 0.950 . S
C613 C611 1.390 . S
C613 C614 1.387 . S
C613 H616 0.950 . S
C614 C613 1.387 . S
C614 C617 1.387 . S
H615 C611 0.950 . S
H616 C613 0.950 . S
C617 C608 1.390 . S
C617 H610 0.950 . S
C617 C614 1.387 . S
C618 C619 1.387 . S
C618 H622 0.950 . S
C618 C627 1.390 . S
C619 C618 1.387 . S
C619 C621 1.387 . S
H620 C627 0.950 . S
C621 C619 1.387 . S
C621 C623 1.390 . S
C621 H625 0.950 . S
H622 C618 0.950 . S
C623 C621 1.390 . S
C623 C624 1.387 . S
C623 H626 0.950 . S
C624 C623 1.387 . S
C624 C627 1.387 . S
H625 C621 0.950 . S
H626 C623 0.950 . S
C627 C618 1.390 . S
C627 H620 0.950 . S
C627 C624 1.387 . S
C628 C629 1.387 1_455 S
C628 H632 0.950 . S
C628 C637 1.390 . S
C629 C628 1.387 1_655 S
C629 C631 1.387 . S
H630 C637 0.950 . S
C631 C629 1.387 . S
C631 C633 1.390 . S
C631 H635 0.950 . S
H632 C628 0.950 . S
C633 C631 1.390 . S
C633 C634 1.389 . S
C633 H636 0.950 . S
C634 C633 1.389 . S
C634 C637 1.386 1_655 S
H635 C631 0.950 . S
H636 C633 0.950 . S
C637 C628 1.390 . S
C637 H630 0.950 . S
C637 C634 1.386 1_455 S
C638 C639 1.387 . S
C638 H642 0.950 . S
C638 C647 1.390 . S
C639 C638 1.387 . S
C639 C641 1.387 . S
H640 C647 0.950 1_556 S
C641 C639 1.387 . S
C641 C643 1.390 . S
C641 H645 0.950 . S
H642 C638 0.950 . S
C643 C641 1.390 . S
C643 C644 1.387 1_554 S
C643 H646 0.950 . S
C644 C643 1.387 1_556 S
C644 C647 1.387 1_556 S
H645 C641 0.950 . S
H646 C643 0.950 . S
C647 C638 1.390 . S
C647 H640 0.950 1_554 S
C647 C644 1.387 1_554 S
C648 C649 1.387 . S
C648 H652 0.950 . S
C648 C657 1.390 . S
C649 C648 1.387 . S
C649 C651 1.387 . S
H650 C657 0.950 . S
C651 C649 1.387 . S
C651 C653 1.390 . S
C651 H655 0.950 . S
H652 C648 0.950 . S
C653 C651 1.390 . S
C653 C654 1.387 . S
C653 H656 0.950 . S
C654 C653 1.387 . S
C654 C657 1.387 . S
H655 C651 0.950 . S
H656 C653 0.950 . S
C657 C648 1.390 . S
C657 H650 0.950 . S
C657 C654 1.387 . S
C658 C659 1.387 . S
C658 H662 0.950 . S
C658 C667 1.390 . S
C659 C658 1.387 . S
C659 C661 1.387 . S
H660 C667 0.950 . S
C661 C659 1.387 . S
C661 C663 1.390 . S
C661 H665 0.950 . S
H662 C658 0.950 . S
C663 C661 1.390 . S
C663 C664 1.387 . S
C663 H666 0.950 . S
C664 C663 1.387 . S
C664 C667 1.387 . S
H665 C661 0.950 . S
H666 C663 0.950 . S
C667 C658 1.390 . S
C667 H660 0.950 . S
C667 C664 1.387 . S
C668 C669 1.387 . S
C668 H672 0.950 . S
C668 C677 1.390 . S
C669 C668 1.387 . S
C669 C671 1.387 . S
H670 C677 0.950 . S
C671 C669 1.387 . S
C671 C673 1.389 1_655 S
C671 H675 0.951 . S
H672 C668 0.950 . S
C673 C671 1.389 1_455 S
C673 C674 1.387 1_455 S
C673 H676 0.953 . S
C674 C673 1.387 1_655 S
C674 C677 1.389 . S
H675 C671 0.951 . S
H676 C673 0.953 . S
C677 C668 1.390 . S
C677 H670 0.950 . S
C677 C674 1.389 . S
C678 C679 1.387 1_556 S
C678 H682 0.950 1_556 S
C678 C687 1.390 . S
C679 C678 1.387 1_554 S
C679 C681 1.387 1_554 S
H680 C687 0.950 . S
C681 C679 1.387 1_556 S
C681 C683 1.390 . S
C681 H685 0.950 . S
H682 C678 0.950 1_554 S
C683 C681 1.390 . S
C683 C684 1.387 . S
C683 H686 0.950 . S
C684 C683 1.387 . S
C684 C687 1.387 . S
H685 C681 0.950 . S
H686 C683 0.950 . S
C687 C678 1.390 . S
C687 H680 0.950 . S
C687 C684 1.387 . S
C688 C689 1.387 . S
C688 H692 0.950 . S
C688 C697 1.390 . S
C689 C688 1.387 . S
C689 C691 1.387 . S
H690 C697 0.950 . S
C691 C689 1.387 . S
C691 C693 1.390 . S
C691 H695 0.950 . S
H692 C688 0.950 . S
C693 C691 1.390 . S
C693 C694 1.387 . S
C693 H696 0.950 . S
C694 C693 1.387 . S
C694 C697 1.387 . S
H695 C691 0.950 . S
H696 C693 0.950 . S
C697 C688 1.390 . S
C697 H690 0.950 . S
C697 C694 1.387 . S
C698 C699 1.387 . S
C698 H702 0.950 . S
C698 C707 1.390 . S
C699 C698 1.387 . S
C699 C701 1.387 . S
H700 C707 0.950 . S
C701 C699 1.387 . S
C701 C703 1.390 . S
C701 H705 0.950 . S
H702 C698 0.950 . S
C703 C701 1.390 . S
C703 C704 1.387 . S
C703 H706 0.950 . S
C704 C703 1.387 . S
C704 C707 1.387 . S
H705 C701 0.950 . S
H706 C703 0.950 . S
C707 C698 1.390 . S
C707 H700 0.950 . S
C707 C704 1.387 . S
C708 C709 1.386 1_655 S
C708 H712 0.950 . S
C708 C717 1.390 . S
C709 C708 1.386 1_455 S
C709 C711 1.389 . S
H710 C717 0.950 . S
C711 C709 1.389 . S
C711 C713 1.390 . S
C711 H715 0.950 . S
H712 C708 0.950 . S
C713 C711 1.390 . S
C713 C714 1.387 . S
C713 H716 0.950 . S
C714 C713 1.387 . S
C714 C717 1.387 1_455 S
H715 C711 0.950 . S
H716 C713 0.950 . S
C717 C708 1.390 . S
C717 H710 0.950 . S
C717 C714 1.387 1_655 S
C718 C719 1.387 . S
C718 H722 0.950 . S
C718 C727 1.390 . S
C719 C718 1.387 . S
C719 C721 1.387 . S
H720 C727 0.950 . S
C721 C719 1.387 . S
C721 C723 1.390 . S
C721 H725 0.950 . S
H722 C718 0.950 . S
C723 C721 1.390 . S
C723 C724 1.387 1_556 S
C723 H726 0.950 . S
C724 C723 1.387 1_554 S
C724 C727 1.387 1_554 S
H725 C721 0.950 . S
H726 C723 0.950 . S
C727 C718 1.390 . S
C727 H720 0.950 . S
C727 C724 1.387 1_556 S
C728 C729 1.387 . S
C728 H732 0.950 . S
C728 C737 1.390 . S
C729 C728 1.387 . S
C729 C731 1.387 . S
H730 C737 0.950 . S
C731 C729 1.387 . S
C731 C733 1.390 . S
C731 H735 0.950 . S
H732 C728 0.950 . S
C733 C731 1.390 . S
C733 C734 1.387 . S
C733 H736 0.950 . S
C734 C733 1.387 . S
C734 C737 1.387 . S
H735 C731 0.950 . S
H736 C733 0.950 . S
C737 C728 1.390 . S
C737 H730 0.950 . S
C737 C734 1.387 . S
C738 C739 1.387 . S
C738 H742 0.950 . S
C738 C747 1.390 . S
C739 C738 1.387 . S
C739 C741 1.387 . S
H740 C747 0.950 . S
C741 C739 1.387 . S
C741 C743 1.390 . S
C741 H745 0.950 . S
H742 C738 0.950 . S
C743 C741 1.390 . S
C743 C744 1.387 . S
C743 H746 0.950 . S
C744 C743 1.387 . S
C744 C747 1.387 . S
H745 C741 0.950 . S
H746 C743 0.950 . S
C747 C738 1.390 . S
C747 H740 0.950 . S
C747 C744 1.387 . S
C748 C749 1.387 1_655 S
C748 H752 0.950 . S
C748 C757 1.390 . S
C749 C748 1.387 1_455 S
C749 C751 1.387 . S
H750 C757 0.950 . S
C751 C749 1.387 . S
C751 C753 1.390 . S
C751 H755 0.950 . S
H752 C748 0.950 . S
C753 C751 1.390 . S
C753 C754 1.394 . S
C753 H756 0.950 . S
C754 C753 1.394 . S
C754 C757 1.382 1_455 S
H755 C751 0.950 . S
H756 C753 0.950 . S
C757 C748 1.390 . S
C757 H750 0.950 . S
C757 C754 1.382 1_655 S
C758 C759 1.387 . S
C758 H762 0.950 . S
C758 C767 1.390 . S
C759 C758 1.387 . S
C759 C761 1.387 . S
H760 C767 0.950 1_556 S
C761 C759 1.387 . S
C761 C763 1.390 . S
C761 H765 0.950 . S
H762 C758 0.950 . S
C763 C761 1.390 . S
C763 C764 1.387 1_554 S
C763 H766 0.950 . S
C764 C763 1.387 1_556 S
C764 C767 1.387 1_556 S
H765 C761 0.950 . S
H766 C763 0.950 . S
C767 C758 1.390 . S
C767 H760 0.950 1_554 S
C767 C764 1.387 1_554 S
C768 C769 1.392 . S
C768 H772 0.950 . S
C768 C777 1.386 1_544 S
C769 C768 1.392 . S
C769 C771 1.387 1_455 S
H770 C777 0.950 . S
C771 C769 1.387 1_655 S
C771 C773 1.386 1_544 S
C771 H775 0.950 . S
H772 C768 0.950 . S
C773 C771 1.386 1_566 S
C773 C774 1.392 . S
C773 H776 0.950 . S
C774 C773 1.392 . S
C774 C777 1.387 1_655 S
H775 C771 0.950 . S
H776 C773 0.950 . S
C777 C768 1.386 1_566 S
C777 H770 0.950 . S
C777 C774 1.387 1_455 S
C778 C779 1.387 . S
C778 H782 0.950 . S
C778 C787 1.390 . S
C779 C778 1.387 . S
C779 C781 1.387 . S
H780 C787 0.950 . S
C781 C779 1.387 . S
C781 C783 1.390 . S
C781 H785 0.950 . S
H782 C778 0.950 . S
C783 C781 1.390 . S
C783 C784 1.387 . S
C783 H786 0.950 . S
C784 C783 1.387 . S
C784 C787 1.387 . S
H785 C781 0.950 . S
H786 C783 0.950 . S
C787 C778 1.390 . S
C787 H780 0.950 . S
C787 C784 1.387 . S
C788 C789 1.387 . S
C788 H792 0.950 . S
C788 C797 1.390 1_545 S
C789 C788 1.387 . S
C789 C791 1.387 . S
H790 C797 0.950 . S
C791 C789 1.387 . S
C791 C793 1.390 1_545 S
C791 H795 0.950 . S
H792 C788 0.950 . S
C793 C791 1.390 1_565 S
C793 C794 1.387 . S
C793 H796 0.950 . S
C794 C793 1.387 . S
C794 C797 1.387 . S
H795 C791 0.950 . S
H796 C793 0.950 . S
C797 C788 1.390 1_565 S
C797 H790 0.950 . S
C797 C794 1.387 . S
C798 C799 1.387 . S
C798 H802 0.950 . S
C798 C807 1.390 . S
C799 C798 1.387 . S
C799 C801 1.387 . S
H800 C807 0.950 . S
C801 C799 1.387 . S
C801 C803 1.390 . S
C801 H805 0.950 . S
H802 C798 0.950 . S
C803 C801 1.390 . S
C803 C804 1.387 . S
C803 H806 0.950 . S
C804 C803 1.387 . S
C804 C807 1.387 . S
H805 C801 0.950 . S
H806 C803 0.950 . S
C807 C798 1.390 . S
C807 H800 0.950 . S
C807 C804 1.387 . S
C808 C809 1.387 1_655 S
C808 H812 0.950 . S
C808 C817 1.390 1_565 S
C809 C808 1.387 1_455 S
C809 C811 1.387 . S
H810 C817 0.950 . S
C811 C809 1.387 . S
C811 C813 1.390 1_565 S
C811 H815 0.950 . S
H812 C808 0.950 . S
C813 C811 1.390 1_545 S
C813 C814 1.387 1_455 S
C813 H816 0.950 . S
C814 C813 1.387 1_655 S
C814 C817 1.387 . S
H815 C811 0.950 . S
H816 C813 0.950 . S
C817 C808 1.390 1_545 S
C817 H810 0.950 . S
C817 C814 1.387 . S
C818 C819 1.387 . S
C818 H822 0.950 . S
C818 C827 1.390 . S
C819 C818 1.387 . S
C819 C821 1.387 . S
H820 C827 0.950 . S
C821 C819 1.387 . S
C821 C823 1.390 . S
C821 H825 0.950 . S
H822 C818 0.950 . S
C823 C821 1.390 . S
C823 C824 1.387 . S
C823 H826 0.950 . S
C824 C823 1.387 . S
C824 C827 1.387 . S
H825 C821 0.950 . S
H826 C823 0.950 . S
C827 C818 1.390 . S
C827 H820 0.950 . S
C827 C824 1.387 . S
C828 C829 1.387 . S
C828 H832 0.950 . S
C828 C837 1.390 1_565 S
C829 C828 1.387 . S
C829 C831 1.387 1_554 S
H830 C837 0.950 . S
C831 C829 1.387 1_556 S
C831 C833 1.390 1_565 S
C831 H835 0.950 . S
H832 C828 0.950 . S
C833 C831 1.390 1_545 S
C833 C834 1.387 . S
C833 H836 0.950 . S
C834 C833 1.387 . S
C834 C837 1.387 1_556 S
H835 C831 0.950 . S
H836 C833 0.950 . S
C837 C828 1.390 1_545 S
C837 H830 0.950 . S
C837 C834 1.387 1_554 S
C838 C839 1.387 . S
C838 H842 0.950 . S
C838 C847 1.390 . S
C839 C838 1.387 . S
C839 C841 1.387 . S
H840 C847 0.950 . S
C841 C839 1.387 . S
C841 C843 1.390 . S
C841 H845 0.950 . S
H842 C838 0.950 . S
C843 C841 1.390 . S
C843 C844 1.387 . S
C843 H846 0.950 . S
C844 C843 1.387 . S
C844 C847 1.387 . S
H845 C841 0.950 . S
H846 C843 0.950 . S
C847 C838 1.390 . S
C847 H840 0.950 . S
C847 C844 1.387 . S
C848 C849 1.387 . S
C848 H852 0.950 . S
C848 C857 1.390 . S
C849 C848 1.387 . S
C849 C851 1.387 . S
H850 C857 0.950 . S
C851 C849 1.387 . S
C851 C853 1.390 . S
C851 H855 0.950 . S
H852 C848 0.950 . S
C853 C851 1.390 . S
C853 C854 1.387 . S
C853 H856 0.950 . S
C854 C853 1.387 . S
C854 C857 1.387 . S
H855 C851 0.950 . S
H856 C853 0.950 . S
C857 C848 1.390 . S
C857 H850 0.950 . S
C857 C854 1.387 . S
C858 C859 1.387 . S
C858 H862 0.950 . S
C858 C867 1.390 . S
C859 C858 1.387 . S
C859 C861 1.387 . S
H860 C867 0.950 . S
C861 C859 1.387 . S
C861 C863 1.390 . S
C861 H865 0.950 . S
H862 C858 0.950 . S
C863 C861 1.390 . S
C863 C864 1.387 . S
C863 H866 0.950 . S
C864 C863 1.387 . S
C864 C867 1.387 . S
H865 C861 0.950 . S
H866 C863 0.950 . S
C867 C858 1.390 . S
C867 H860 0.950 . S
C867 C864 1.387 . S
C868 C869 1.387 . S
C868 H872 0.950 . S
C868 C877 1.390 . S
C869 C868 1.387 . S
C869 C871 1.387 . S
H870 C877 0.950 . S
C871 C869 1.387 . S
C871 C873 1.390 . S
C871 H875 0.950 . S
H872 C868 0.950 . S
C873 C871 1.390 . S
C873 C874 1.387 . S
C873 H876 0.950 . S
C874 C873 1.387 . S
C874 C877 1.387 . S
H875 C871 0.950 . S
H876 C873 0.950 . S
C877 C868 1.390 . S
C877 H870 0.950 . S
C877 C874 1.387 . S
C878 C879 1.387 . S
C878 H882 0.950 . S
C878 C887 1.390 . S
C879 C878 1.387 . S
C879 C881 1.387 . S
H880 C887 0.950 . S
C881 C879 1.387 . S
C881 C883 1.390 . S
C881 H885 0.950 . S
H882 C878 0.950 . S
C883 C881 1.390 . S
C883 C884 1.387 . S
C883 H886 0.950 . S
C884 C883 1.387 . S
C884 C887 1.387 . S
H885 C881 0.950 . S
H886 C883 0.950 . S
C887 C878 1.390 . S
C887 H880 0.950 . S
C887 C884 1.387 . S
C888 C889 1.387 . S
C888 H892 0.950 . S
C888 C897 1.390 . S
C889 C888 1.387 . S
C889 C891 1.387 . S
H890 C897 0.950 . S
C891 C889 1.387 . S
C891 C893 1.390 . S
C891 H895 0.950 . S
H892 C888 0.950 . S
C893 C891 1.390 . S
C893 C894 1.387 . S
C893 H896 0.950 . S
C894 C893 1.387 . S
C894 C897 1.387 . S
H895 C891 0.950 . S
H896 C893 0.950 . S
C897 C888 1.390 . S
C897 H890 0.950 . S
C897 C894 1.387 . S
C898 C899 1.387 . S
C898 H902 0.950 . S
C898 C907 1.390 1_655 S
C899 C898 1.387 . S
C899 C901 1.387 1_554 S
H900 C907 0.950 . S
C901 C899 1.387 1_556 S
C901 C903 1.390 1_655 S
C901 H905 0.950 . S
H902 C898 0.950 . S
C903 C901 1.390 1_455 S
C903 C904 1.387 . S
C903 H906 0.950 . S
C904 C903 1.387 . S
C904 C907 1.387 1_556 S
H905 C901 0.950 . S
H906 C903 0.950 . S
C907 C898 1.390 1_455 S
C907 H900 0.950 . S
C907 C904 1.387 1_554 S
C908 C909 1.387 1_554 S
C908 H912 0.950 . S
C908 C917 1.390 . S
C909 C908 1.387 1_556 S
C909 C911 1.387 . S
H910 C917 0.950 . S
C911 C909 1.387 . S
C911 C913 1.390 . S
C911 H915 0.950 . S
H912 C908 0.950 . S
C913 C911 1.390 . S
C913 C914 1.387 1_556 S
C913 H916 0.950 . S
C914 C913 1.387 1_554 S
C914 C917 1.387 . S
H915 C911 0.950 . S
H916 C913 0.950 . S
C917 C908 1.390 . S
C917 H910 0.950 . S
C917 C914 1.387 . S
C918 C919 1.387 . S
C918 H922 0.950 . S
C918 C927 1.390 1_455 S
C919 C918 1.387 . S
C919 C921 1.387 . S
H920 C927 0.950 . S
C921 C919 1.387 . S
C921 C923 1.390 1_455 S
C921 H925 0.950 . S
H922 C918 0.950 . S
C923 C921 1.390 1_655 S
C923 C924 1.387 . S
C923 H926 0.950 . S
C924 C923 1.387 . S
C924 C927 1.387 . S
H925 C921 0.950 . S
H926 C923 0.950 . S
C927 C918 1.390 1_655 S
C927 H920 0.950 . S
C927 C924 1.387 . S
C928 C929 1.387 . S
C928 H932 0.950 . S
C928 C937 1.390 . S
C929 C928 1.387 . S
C929 C931 1.387 . S
H930 C937 0.950 . S
C931 C929 1.387 . S
C931 C933 1.390 . S
C931 H935 0.950 . S
H932 C928 0.950 . S
C933 C931 1.390 . S
C933 C934 1.387 . S
C933 H936 0.950 . S
C934 C933 1.387 . S
C934 C937 1.387 . S
H935 C931 0.950 . S
H936 C933 0.950 . S
C937 C928 1.390 . S
C937 H930 0.950 . S
C937 C934 1.387 . S
C938 C939 1.387 . S
C938 H942 0.950 . S
C938 C947 1.390 . S
C939 C938 1.387 . S
C939 C941 1.387 . S
H940 C947 0.950 . S
C941 C939 1.387 . S
C941 C943 1.390 . S
C941 H945 0.950 . S
H942 C938 0.950 . S
C943 C941 1.390 . S
C943 C944 1.387 . S
C943 H946 0.950 . S
C944 C943 1.387 . S
C944 C947 1.387 . S
H945 C941 0.950 . S
H946 C943 0.950 . S
C947 C938 1.390 . S
C947 H940 0.950 . S
C947 C944 1.387 . S
C948 C949 1.387 . S
C948 H952 0.950 . S
C948 C957 1.390 . S
C949 C948 1.387 . S
C949 C951 1.387 . S
H950 C957 0.950 . S
C951 C949 1.387 . S
C951 C953 1.390 . S
C951 H955 0.950 . S
H952 C948 0.950 . S
C953 C951 1.390 . S
C953 C954 1.387 . S
C953 H956 0.950 . S
C954 C953 1.387 . S
C954 C957 1.387 . S
H955 C951 0.950 . S
H956 C953 0.950 . S
C957 C948 1.390 . S
C957 H950 0.950 . S
C957 C954 1.387 . S
C958 C959 1.387 . S
C958 H962 0.950 . S
C958 C967 1.390 . S
C959 C958 1.387 . S
C959 C961 1.387 . S
H960 C967 0.950 . S
C961 C959 1.387 . S
C961 C963 1.390 . S
C961 H965 0.950 . S
H962 C958 0.950 . S
C963 C961 1.390 . S
C963 C964 1.387 . S
C963 H966 0.950 . S
C964 C963 1.387 . S
C964 C967 1.387 . S
H965 C961 0.950 . S
H966 C963 0.950 . S
C967 C958 1.390 . S
C967 H960 0.950 . S
C967 C964 1.387 . S
C968 C969 1.387 . S
C968 H972 0.950 . S
C968 C977 1.390 . S
C969 C968 1.387 . S
C969 C971 1.387 . S
H970 C977 0.950 . S
C971 C969 1.387 . S
C971 C973 1.390 . S
C971 H975 0.950 . S
H972 C968 0.950 . S
C973 C971 1.390 . S
C973 C974 1.387 . S
C973 H976 0.950 . S
C974 C973 1.387 . S
C974 C977 1.387 . S
H975 C971 0.950 . S
H976 C973 0.950 . S
C977 C968 1.390 . S
C977 H970 0.950 . S
C977 C974 1.387 . S
C978 C979 1.387 . S
C978 H982 0.950 . S
C978 C987 1.390 . S
C979 C978 1.387 . S
C979 C981 1.387 . S
H980 C987 0.950 . S
C981 C979 1.387 . S
C981 C983 1.390 . S
C981 H985 0.950 . S
H982 C978 0.950 . S
C983 C981 1.390 . S
C983 C984 1.387 . S
C983 H986 0.950 . S
C984 C983 1.387 . S
C984 C987 1.387 . S
H985 C981 0.950 . S
H986 C983 0.950 . S
C987 C978 1.390 . S
C987 H980 0.950 . S
C987 C984 1.387 . S
C988 C989 1.387 . S
C988 H992 0.950 . S
C988 C997 1.390 . S
C989 C988 1.387 . S
C989 C991 1.387 . S
H990 C997 0.950 . S
C991 C989 1.387 . S
C991 C993 1.390 . S
C991 H995 0.950 . S
H992 C988 0.950 . S
C993 C991 1.390 . S
C993 C994 1.387 . S
C993 H996 0.950 . S
C994 C993 1.387 . S
C994 C997 1.387 . S
H995 C991 0.950 . S
H996 C993 0.950 . S
C997 C988 1.390 . S
C997 H990 0.950 . S
C997 C994 1.387 . S
C998 C999 1.387 . S
C998 H1002 0.950 . S
C998 C1007 1.390 . S
C999 C998 1.387 . S
C999 C1001 1.387 . S
H1000 C1007 0.950 . S
C1001 C999 1.387 . S
C1001 C1003 1.390 . S
C1001 H1005 0.950 . S
H1002 C998 0.950 . S
C1003 C1001 1.390 . S
C1003 C1004 1.387 . S
C1003 H1006 0.950 . S
C1004 C1003 1.387 . S
C1004 C1007 1.387 . S
H1005 C1001 0.950 . S
H1006 C1003 0.950 . S
C1007 C998 1.390 . S
C1007 H1000 0.950 . S
C1007 C1004 1.387 . S
C1008 C1009 1.387 . S
C1008 H1012 0.950 . S
C1008 C1017 1.390 . S
C1009 C1008 1.387 . S
C1009 C1011 1.387 . S
H1010 C1017 0.950 . S
C1011 C1009 1.387 . S
C1011 C1013 1.390 . S
C1011 H1015 0.950 . S
H1012 C1008 0.950 . S
C1013 C1011 1.390 . S
C1013 C1014 1.387 . S
C1013 H1016 0.950 . S
C1014 C1013 1.387 . S
C1014 C1017 1.387 . S
H1015 C1011 0.950 . S
H1016 C1013 0.950 . S
C1017 C1008 1.390 . S
C1017 H1010 0.950 . S
C1017 C1014 1.387 . S
C1018 C1019 1.387 . S
C1018 H1022 0.950 . S
C1018 C1027 1.390 . S
C1019 C1018 1.387 . S
C1019 C1021 1.387 . S
H1020 C1027 0.950 . S
C1021 C1019 1.387 . S
C1021 C1023 1.390 . S
C1021 H1025 0.950 . S
H1022 C1018 0.950 . S
C1023 C1021 1.390 . S
C1023 C1024 1.387 . S
C1023 H1026 0.950 . S
C1024 C1023 1.387 . S
C1024 C1027 1.387 . S
H1025 C1021 0.950 . S
H1026 C1023 0.950 . S
C1027 C1018 1.390 . S
C1027 H1020 0.950 . S
C1027 C1024 1.387 . S
C1028 C1029 1.387 . S
C1028 H1032 0.950 . S
C1028 C1037 1.390 . S
C1029 C1028 1.387 . S
C1029 C1031 1.387 . S
H1030 C1037 0.950 . S
C1031 C1029 1.387 . S
C1031 C1033 1.390 . S
C1031 H1035 0.950 . S
H1032 C1028 0.950 . S
C1033 C1031 1.390 . S
C1033 C1034 1.387 . S
C1033 H1036 0.950 . S
C1034 C1033 1.387 . S
C1034 C1037 1.387 . S
H1035 C1031 0.950 . S
H1036 C1033 0.950 . S
C1037 C1028 1.390 . S
C1037 H1030 0.950 . S
C1037 C1034 1.387 . S
C1038 C1039 1.387 . S
C1038 H1042 0.950 . S
C1038 C1047 1.390 . S
C1039 C1038 1.387 . S
C1039 C1041 1.387 . S
H1040 C1047 0.950 . S
C1041 C1039 1.387 . S
C1041 C1043 1.390 . S
C1041 H1045 0.950 . S
H1042 C1038 0.950 . S
C1043 C1041 1.390 . S
C1043 C1044 1.387 . S
C1043 H1046 0.950 . S
C1044 C1043 1.387 . S
C1044 C1047 1.387 . S
H1045 C1041 0.950 . S
H1046 C1043 0.950 . S
C1047 C1038 1.390 . S
C1047 H1040 0.950 . S
C1047 C1044 1.387 . S
C1048 C1049 1.387 . S
C1048 H1052 0.950 . S
C1048 C1057 1.390 . S
C1049 C1048 1.387 . S
C1049 C1051 1.387 . S
H1050 C1057 0.950 . S
C1051 C1049 1.387 . S
C1051 C1053 1.390 . S
C1051 H1055 0.950 . S
H1052 C1048 0.950 . S
C1053 C1051 1.390 . S
C1053 C1054 1.387 . S
C1053 H1056 0.950 . S
C1054 C1053 1.387 . S
C1054 C1057 1.387 . S
H1055 C1051 0.950 . S
H1056 C1053 0.950 . S
C1057 C1048 1.390 . S
C1057 H1050 0.950 . S
C1057 C1054 1.387 . S
C1058 C1059 1.387 . S
C1058 H1062 0.950 . S
C1058 C1067 1.390 . S
C1059 C1058 1.387 . S
C1059 C1061 1.387 . S
H1060 C1067 0.950 . S
C1061 C1059 1.387 . S
C1061 C1063 1.390 . S
C1061 H1065 0.950 . S
H1062 C1058 0.950 . S
C1063 C1061 1.390 . S
C1063 C1064 1.387 . S
C1063 H1066 0.950 . S
C1064 C1063 1.387 . S
C1064 C1067 1.387 . S
H1065 C1061 0.950 . S
H1066 C1063 0.950 . S
C1067 C1058 1.390 . S
C1067 H1060 0.950 . S
C1067 C1064 1.387 . S
C1068 C1069 1.387 . S
C1068 H1072 0.950 . S
C1068 C1077 1.390 . S
C1069 C1068 1.387 . S
C1069 C1071 1.387 . S
H1070 C1077 0.950 . S
C1071 C1069 1.387 . S
C1071 C1073 1.390 . S
C1071 H1075 0.950 . S
H1072 C1068 0.950 . S
C1073 C1071 1.390 . S
C1073 C1074 1.387 . S
C1073 H1076 0.950 . S
C1074 C1073 1.387 . S
C1074 C1077 1.387 . S
H1075 C1071 0.950 . S
H1076 C1073 0.950 . S
C1077 C1068 1.390 . S
C1077 H1070 0.950 . S
C1077 C1074 1.387 . S
C1078 C1079 1.387 . S
C1078 H1082 0.950 . S
C1078 C1087 1.390 . S
C1079 C1078 1.387 . S
C1079 C1081 1.387 . S
H1080 C1087 0.950 . S
C1081 C1079 1.387 . S
C1081 C1083 1.390 . S
C1081 H1085 0.950 . S
H1082 C1078 0.950 . S
C1083 C1081 1.390 . S
C1083 C1084 1.387 . S
C1083 H1086 0.950 . S
C1084 C1083 1.387 . S
C1084 C1087 1.387 . S
H1085 C1081 0.950 . S
H1086 C1083 0.950 . S
C1087 C1078 1.390 . S
C1087 H1080 0.950 . S
C1087 C1084 1.387 . S
C449 C175 1.289 . S
C454 C3 1.217 . S
C459 C413 1.289 . S
C464 C17 1.219 . S
C469 C203 1.289 . S
C474 C31 1.219 . S
C479 C441 1.288 . S
C484 C45 1.217 . S
C489 C119 1.289 . S
C494 C59 1.217 . S
C499 C73 1.216 . S
C504 C357 1.289 . S
C509 C87 1.216 . S
C514 C147 1.288 . S
C519 C385 1.288 . S
C524 C101 1.218 . S
C529 C63 1.289 . S
C534 C115 1.219 . S
C539 C301 1.289 . S
C544 C129 1.216 . S
C549 C91 1.289 . S
C554 C143 1.220 . S
C559 C329 1.289 . S
C564 C157 1.219 . S
C569 C171 1.217 . S
C574 C7 1.289 . S
C579 C185 1.216 . S
C584 C245 1.289 . S
C589 C35 1.288 . S
C594 C199 1.216 . S
C599 C213 1.215 . S
C604 C273 1.289 . S
C609 C399 1.289 . S
C614 C227 1.219 . S
C619 C189 1.289 . S
C624 C241 1.219 . S
C629 C427 1.289 . S
C634 C255 1.218 . S
C639 C269 1.216 . S
C644 C217 1.289 . S
C649 C283 1.220 . S
C654 C343 1.289 . S
C659 C297 1.219 . S
C664 C133 1.289 . S
C669 C371 1.288 . S
C674 C311 1.218 . S
C679 C161 1.289 . S
C684 C325 1.215 . S
C689 C287 1.289 . S
C694 C339 1.220 . S
C699 C353 1.215 . S
C704 C77 1.288 . S
C709 C367 1.220 . S
C714 C315 1.289 . S
C719 C381 1.215 . S
C724 C105 1.289 . S
C729 C231 1.290 . S
C734 C395 1.218 . S
C739 C21 1.288 . S
C744 C409 1.218 . S
C749 C259 1.288 . S
C754 C423 1.220 . S
C759 C437 1.219 . S
C764 C49 1.288 . S
C769 C9 1.412 . S
C774 C121 1.412 . S
C779 C23 1.411 . S
C784 C359 1.411 . S
C789 C149 1.411 . S
C794 C37 1.411 . S
C799 C51 1.410 . S
C804 C387 1.410 . S
C809 C65 1.414 . S
C814 C177 1.414 . S
C819 C415 1.411 . S
C824 C79 1.411 . S
C829 C205 1.411 . S
C834 C93 1.411 . S
C839 C107 1.414 . S
C844 C443 1.414 . S
C849 C135 1.411 . S
C854 C247 1.411 . S
C859 C163 1.411 . S
C864 C275 1.411 . S
C869 C191 1.415 . S
C874 C303 1.415 . S
C879 C331 1.414 . S
C884 C219 1.414 . S
C889 C233 1.415 . S
C894 C345 1.415 . S
C899 C261 1.414 . S
C904 C373 1.414 . S
C909 C289 1.410 . S
C914 C401 1.410 . S
C919 C429 1.411 . S
C924 C317 1.411 . S
C929 C8 1.430 . S
C934 C106 1.430 . S
C939 C22 1.429 . S
C944 C64 1.429 . S
C949 C78 1.430 . S
C954 C36 1.429 . S
C959 C92 1.429 . S
C964 C50 1.429 . S
C969 C218 1.429 . S
C974 C120 1.429 . S
C979 C176 1.429 . S
C984 C134 1.429 . S
C989 C190 1.429 . S
C994 C148 1.429 . S
C999 C204 1.429 . S
C1004 C162 1.429 . S
C1009 C232 1.429 . S
C1014 C330 1.429 . S
C1019 C288 1.430 . S
C1024 C246 1.429 . S
C1029 C302 1.429 . S
C1034 C260 1.429 . S
C1039 C316 1.430 . S
C1044 C274 1.430 . S
C1049 C442 1.429 . S
C1054 C344 1.429 . S
C1059 C358 1.430 . S
C1064 C400 1.430 . S
C1069 C372 1.430 . S
C1074 C414 1.429 . S
C1079 C428 1.430 . S
C1084 C386 1.429 . S
