# Generated by pormake.
# Topology irl, (4)-cn, num edge types: 1
# Building blocks:
#     Node 0, Type 0, BuildingBlock: NAHDIM_clean_sbu_0, # of connection points: 4
#     Node 1, Type 0, BuildingBlock: NAHDIM_clean_sbu_0, # of connection points: 4
#     Node 2, Type 0, BuildingBlock: NAHDIM_clean_sbu_0, # of connection points: 4
#     Node 3, Type 0, BuildingBlock: NAHDIM_clean_sbu_0, # of connection points: 4
#     Node 4, Type 0, BuildingBlock: NAHDIM_clean_sbu_0, # of connection points: 4
#     Node 5, Type 0, BuildingBlock: NAHDIM_clean_sbu_0, # of connection points: 4
#     Node 6, Type 0, BuildingBlock: NAHDIM_clean_sbu_0, # of connection points: 4
#     Node 7, Type 0, BuildingBlock: NAHDIM_clean_sbu_0, # of connection points: 4
#     Edge 8, Type (0, 0), BuildingBlock: KIFKEQ_clean_linker_1, # of connection points: 2
#     Edge 9, Type (0, 0), BuildingBlock: KIFKEQ_clean_linker_1, # of connection points: 2
#     Edge 10, Type (0, 0), BuildingBlock: KIFKEQ_clean_linker_1, # of connection points: 2
#     Edge 11, Type (0, 0), BuildingBlock: KIFKEQ_clean_linker_1, # of connection points: 2
#     Edge 12, Type (0, 0), BuildingBlock: KIFKEQ_clean_linker_1, # of connection points: 2
#     Edge 13, Type (0, 0), BuildingBlock: KIFKEQ_clean_linker_1, # of connection points: 2
#     Edge 14, Type (0, 0), BuildingBlock: KIFKEQ_clean_linker_1, # of connection points: 2
#     Edge 15, Type (0, 0), BuildingBlock: KIFKEQ_clean_linker_1, # of connection points: 2
#     Edge 16, Type (0, 0), BuildingBlock: KIFKEQ_clean_linker_1, # of connection points: 2
#     Edge 17, Type (0, 0), BuildingBlock: KIFKEQ_clean_linker_1, # of connection points: 2
#     Edge 18, Type (0, 0), BuildingBlock: KIFKEQ_clean_linker_1, # of connection points: 2
#     Edge 19, Type (0, 0), BuildingBlock: KIFKEQ_clean_linker_1, # of connection points: 2
#     Edge 20, Type (0, 0), BuildingBlock: KIFKEQ_clean_linker_1, # of connection points: 2
#     Edge 21, Type (0, 0), BuildingBlock: KIFKEQ_clean_linker_1, # of connection points: 2
#     Edge 22, Type (0, 0), BuildingBlock: KIFKEQ_clean_linker_1, # of connection points: 2
#     Edge 23, Type (0, 0), BuildingBlock: KIFKEQ_clean_linker_1, # of connection points: 2
# Relax obj value: 0.190
# Max RMSD: 0.180
# Mean RMSD: 0.180
data_MOF--net-irl--node1-NAHDIM_clean_sbu_0--edge1-KIFKEQ_clean_linker_1
_symmetry_space_group_name_H-M    P1
_symmetry_Int_Tables_number       1
_symmetry_cell_setting            triclinic
loop_
_symmetry_equiv_pos_as_xyz
'x, y, z'
_cell_length_a     41.405193
_cell_length_b     36.476187
_cell_length_c     27.041238
_cell_angle_alpha  90.07168
_cell_angle_beta   90.051813
_cell_angle_gamma 90.2858
loop_
_atom_site_label
_atom_site_type_symbol
_atom_site_fract_x
_atom_site_fract_y
_atom_site_fract_z
_atom_type_partial_charge
C0 C 0.11734 0.23233 0.01117 0.0
O1 O 0.09707 0.25933 0.01897 0.0
O2 O 0.04395 0.22133 0.06901 0.0
Zn3 Zn 0.0579 0.1962 0.00651 0.0
O4 O 0.04119 0.22062 0.94528 0.0
C5 C 0.01853 0.13376 0.0323 0.0
O6 O 0.00302 0.15886 0.05764 0.0
O7 O 0.10618 0.20021 0.00417 0.0
C8 C 0.01262 0.21615 0.9292 0.0
O9 O -0.00795 0.19652 0.95512 0.0
C10 C 0.02346 0.24687 0.07394 0.0
O11 O 0.00811 0.25938 0.03499 0.0
O12 O 0.04332 0.1431 0.00746 0.0
C13 C 0.85858 0.76625 0.98036 0.0
O14 O 0.87633 0.74205 0.95692 0.0
O15 O 0.94487 0.77709 0.03951 0.0
Zn16 Zn 0.91954 0.80221 0.98579 0.0
O17 O 0.93098 0.78263 0.91893 0.0
C18 C 0.93493 0.87295 0.02768 0.0
O19 O 0.9295 0.85549 0.06935 0.0
O20 O 0.87187 0.79535 -0.00339 0.0
C21 C 0.96015 0.78024 0.90505 0.0
O22 O 0.98329 0.78934 0.93608 0.0
C23 C 0.93204 0.75661 0.07213 0.0
O24 O 0.90102 0.74922 0.06958 0.0
O25 O 0.93136 0.8559 0.987 0.0
C26 C 0.12084 0.77643 0.48789 0.0
O27 O 0.09983 0.74994 0.49559 0.0
O28 O 0.04575 0.79751 0.41331 0.0
Zn29 Zn 0.0628 0.81596 0.47793 0.0
O30 O 0.04342 0.78967 0.5357 0.0
C31 C 0.05277 0.8901 0.44583 0.0
O32 O 0.06204 0.87631 0.40327 0.0
O33 O 0.11063 0.80857 0.47926 0.0
C34 C 0.01439 0.79522 0.54857 0.0
O35 O -0.00374 0.81679 0.52143 0.0
C36 C 0.03417 0.76596 0.40392 0.0
O37 O 0.03194 0.74148 0.43936 0.0
O38 O 0.05201 0.86951 0.48369 0.0
C39 C 0.862 0.23697 0.48597 0.0
O40 O 0.87984 0.26635 0.47861 0.0
O41 O 0.93672 0.23457 0.42894 0.0
Zn42 Zn 0.9241 0.20713 0.49034 0.0
O43 O 0.93955 0.2307 0.55322 0.0
C44 C 0.96664 0.14833 0.46212 0.0
O45 O 0.98176 0.17513 0.43929 0.0
O46 O 0.87583 0.20636 0.49253 0.0
C47 C 0.96812 0.22666 0.56934 0.0
O48 O -0.01079 0.20896 0.54216 0.0
C49 C 0.95925 0.25792 0.42328 0.0
O50 O 0.97754 0.26703 0.4611 0.0
O51 O 0.9411 0.15536 0.48638 0.0
C52 C 0.62065 0.72274 0.0333 0.0
O53 O 0.60688 0.72931 0.07613 0.0
O54 O 0.53988 0.74232 0.05865 0.0
Zn55 Zn 0.55473 0.71457 -0.00165 0.0
O56 O 0.5393 0.73608 0.93428 0.0
C57 C 0.53334 0.64641 0.04317 0.0
O58 O 0.53896 0.66425 0.08455 0.0
O59 O 0.60314 0.71514 -0.00397 0.0
C60 C 0.51087 0.73045 0.91824 0.0
O61 O 0.49015 0.71234 0.94586 0.0
C62 C 0.51404 0.7606 0.06348 0.0
O63 O 0.4945 0.7642 0.02556 0.0
O64 O 0.5387 0.6623 0.00214 0.0
C65 C 0.35698 0.28334 0.01278 0.0
O66 O 0.37743 0.2562 0.01816 0.0
O67 O 0.43162 0.29129 0.06819 0.0
Zn68 Zn 0.41614 0.32079 0.01008 0.0
O69 O 0.43264 0.30031 0.94621 0.0
C70 C 0.44941 0.38569 0.04838 0.0
O71 O 0.46109 0.36243 0.08072 0.0
O72 O 0.36792 0.31579 0.00834 0.0
C73 C 0.45967 0.3098 0.92805 0.0
O74 O 0.47825 0.3327 0.95274 0.0
C75 C 0.45989 0.27864 0.07384 0.0
O76 O 0.48195 0.28488 0.03997 0.0
O77 O 0.42952 0.37426 0.01586 0.0
C78 C 0.61946 0.25916 0.48452 0.0
O79 O 0.60094 0.23114 0.47265 0.0
O80 O 0.54283 0.26666 0.43144 0.0
Zn81 Zn 0.55851 0.29468 0.49096 0.0
O82 O 0.54035 0.27609 0.55496 0.0
C83 C 0.5258 0.36046 0.45556 0.0
O84 O 0.51013 0.33733 0.42694 0.0
O85 O 0.60653 0.28985 0.49415 0.0
C86 C 0.51326 0.2874 0.57063 0.0
O87 O 0.49595 0.30911 0.5425 0.0
C88 C 0.51453 0.25392 0.42508 0.0
O89 O 0.49291 0.2576 0.46022 0.0
O90 O 0.54745 0.34846 0.48467 0.0
C91 C 0.35976 0.72476 0.49237 0.0
O92 O 0.38029 0.75069 0.5051 0.0
O93 O 0.43512 0.71362 0.41863 0.0
Zn94 Zn 0.41858 0.68796 0.4792 0.0
O95 O 0.43481 0.70682 0.54452 0.0
C96 C 0.45977 0.62623 0.47083 0.0
O97 O 0.48157 0.65254 0.47117 0.0
O98 O 0.37056 0.69368 0.47934 0.0
C99 C 0.46083 0.72305 0.55672 0.0
O100 O 0.48259 0.73074 0.52294 0.0
C101 C 0.44476 0.74632 0.4116 0.0
O102 O 0.44657 0.76944 0.44876 0.0
O103 O 0.4301 0.63466 0.47388 0.0
H104 H 0.94342 0.91774 0.10784 0.0
H105 H 0.95295 0.91525 0.94872 0.0
H106 H 0.96411 0.98043 0.10901 0.0
H107 H 0.97327 0.97814 0.94994 0.0
H108 H 0.04164 0.0758 0.97849 0.0
H109 H 0.02132 0.01283 0.97746 0.0
H110 H 0.94788 0.04216 0.08352 0.0
H111 H 0.96835 0.10486 0.08507 0.0
C112 C 0.94976 0.9306 0.07308 0.0
C113 C 0.9465 0.91146 0.02819 0.0
C114 C 0.9615 0.9666 0.07375 0.0
C115 C 0.97037 0.98426 0.02957 0.0
C116 C 0.96702 0.96516 0.98466 0.0
C117 C 0.95515 0.9292 0.98396 0.0
C118 C 0.02122 0.06878 0.00167 0.0
C119 C 0.00665 0.09537 0.03189 0.0
C120 C 0.00945 0.03276 0.00084 0.0
C121 C 0.98297 0.0225 0.03038 0.0
C122 C 0.96854 0.04906 0.06075 0.0
C123 C 0.9802 0.08507 0.06143 0.0
H124 H 0.05013 0.94082 0.37167 0.0
H125 H 0.02982 0.92623 0.52719 0.0
H126 H 0.0294 1.00312 0.37599 0.0
H127 H 0.00963 0.98883 0.53164 0.0
H128 H 0.9421 0.08658 0.506 0.0
H129 H 0.96361 0.0245 0.50239 0.0
H130 H 0.0424 0.06288 0.41118 0.0
H131 H 0.02064 0.12475 0.41398 0.0
C132 C 0.04149 0.95098 0.40687 0.0
C133 C 0.0416 0.92852 0.44906 0.0
C134 C 0.02973 0.98677 0.40939 0.0
C135 C 0.01781 1.00092 0.45414 0.0
C136 C 0.01823 0.97858 0.49646 0.0
C137 C 0.03002 0.94279 0.49396 0.0
C138 C 0.96399 0.08177 0.48514 0.0
C139 C 0.9796 0.11061 0.4602 0.0
C140 C 0.97644 0.04623 0.48334 0.0
C141 C 0.00474 0.03875 0.45652 0.0
C142 C 0.02034 0.06763 0.43165 0.0
C143 C 0.00793 0.10314 0.43348 0.0
H144 H 0.51847 0.60493 0.12427 0.0
H145 H 0.519 0.60192 0.9645 0.0
H146 H 0.49692 0.54266 0.12607 0.0
H147 H 0.4981 0.53936 0.96635 0.0
H148 H 0.43033 0.44137 0.98716 0.0
H149 H 0.44972 0.50465 0.98657 0.0
H150 H 0.51356 0.4805 0.10861 0.0
H151 H 0.49371 0.41759 0.10994 0.0
C152 C 0.51412 0.59095 0.08952 0.0
C153 C 0.52051 0.60842 0.04425 0.0
C154 C 0.5019 0.55516 0.09056 0.0
C155 C 0.49579 0.53597 0.04636 0.0
C156 C 0.50211 0.5535 0.00108 0.0
C157 C 0.51432 0.5893 3e-05 0.0
C158 C 0.44839 0.44961 0.01401 0.0
C159 C 0.46044 0.4244 0.04861 0.0
C160 C 0.45967 0.48583 0.01346 0.0
C161 C 0.48326 0.49766 0.04748 0.0
C162 C 0.49508 0.47248 0.08231 0.0
C163 C 0.4838 0.43631 0.08289 0.0
H164 H 0.55332 0.41572 0.5099 0.0
H165 H 0.47856 0.39416 0.40188 0.0
H166 H 0.5375 0.47998 0.51265 0.0
H167 H 0.46309 0.45853 0.40418 0.0
H168 H 0.42097 0.56535 0.4669 0.0
H169 H 0.43756 0.5014 0.46209 0.0
H170 H 0.53766 0.53532 0.46113 0.0
H171 H 0.52115 0.59925 0.46667 0.0
C172 C 0.53366 0.42472 0.4865 0.0
C173 C 0.51716 0.39978 0.45575 0.0
C174 C 0.5247 0.46159 0.48791 0.0
C175 C 0.49899 0.47432 0.45871 0.0
C176 C 0.48272 0.44946 0.4276 0.0
C177 C 0.49174 0.41262 0.42607 0.0
C178 C 0.44652 0.55919 0.46563 0.0
C179 C 0.46974 0.58741 0.46725 0.0
C180 C 0.45601 0.52254 0.46257 0.0
C181 C 0.48892 0.5133 0.4612 0.0
C182 C 0.51213 0.54153 0.4627 0.0
C183 C 0.50264 0.57818 0.46562 0.0
H184 H 0.05831 0.2364 0.1579 0.0
H185 H 0.97138 0.28758 0.10341 0.0
H186 H 0.04274 0.25094 0.24216 0.0
H187 H 0.95585 0.30254 0.18838 0.0
H188 H 0.92137 0.25317 0.34131 0.0
H189 H 0.93783 0.26161 0.25586 0.0
H190 H 0.03186 0.29861 0.30476 0.0
H191 H 0.01546 0.28968 0.39078 0.0
C192 C 0.03609 0.25132 0.16388 0.0
C193 C 0.01579 0.26032 0.12409 0.0
C194 C 0.02735 0.26003 0.21222 0.0
C195 C -0.00198 0.2778 0.22193 0.0
C196 C 0.9785 0.28858 0.18196 0.0
C197 C 0.9874 0.28008 0.13338 0.0
C198 C 0.94537 0.2638 0.33394 0.0
C199 C 0.96735 0.2701 0.37271 0.0
C200 C 0.95469 0.26897 0.28491 0.0
C201 C 0.98625 0.28041 0.27358 0.0
C202 C 0.00749 0.28933 0.31246 0.0
C203 C -0.00193 0.28436 0.36167 0.0
H204 H 0.00167 0.70479 0.37074 0.0
H205 H 0.04116 0.80866 0.32235 0.0
H206 H 0.98069 0.69378 0.28726 0.0
H207 H 0.01997 0.79798 0.24011 0.0
H208 H -0.00331 0.76577 0.08823 0.0
H209 H 0.02519 0.76019 0.16668 0.0
H210 H 0.93771 0.72078 0.23598 0.0
H211 H 0.90938 0.72545 0.15729 0.0
C212 C 0.00608 0.72509 0.34231 0.0
C213 C 0.02288 0.75769 0.35324 0.0
C214 C -0.00598 0.71882 0.29461 0.0
C215 C -0.0012 0.74492 0.25704 0.0
C216 C 0.01636 0.77698 0.26787 0.0
C217 C 0.02823 0.78329 0.31531 0.0
C218 C 0.9837 0.75519 0.11995 0.0
C219 C 0.95062 0.74673 0.11679 0.0
C220 C -1e-05 0.75212 0.16492 0.0
C221 C 0.98352 0.74073 0.20771 0.0
C222 C 0.95111 0.72953 0.20367 0.0
C223 C 0.93482 0.73243 0.15858 0.0
H224 H 0.0459 0.75028 0.61318 0.0
H225 H 0.95765 0.81162 0.59489 0.0
H226 H 0.03142 0.73747 0.69879 0.0
H227 H 0.94356 0.79949 0.68066 0.0
H228 H 0.91781 0.76076 0.83187 0.0
H229 H 0.929 0.75509 0.74372 0.0
H230 H 0.03016 0.77622 0.77179 0.0
H231 H 0.01913 0.78112 0.85988 0.0
C232 C 0.0232 0.76062 0.62721 0.0
C233 C 0.00312 0.78243 0.59747 0.0
C234 C 0.015 0.75341 0.67633 0.0
C235 C 0.98658 0.76786 0.69672 0.0
C236 C 0.96552 0.78769 0.66602 0.0
C237 C 0.97368 0.79484 0.61686 0.0
C238 C 0.94253 0.76363 0.81931 0.0
C239 C 0.96755 0.77187 0.85279 0.0
C240 C 0.94889 0.76051 0.76878 0.0
C241 C 0.98039 0.76556 0.75068 0.0
C242 C 0.00566 0.77181 0.78452 0.0
C243 C -0.00069 0.77487 0.83505 0.0
H244 H 0.95571 0.20601 0.87959 0.0
H245 H 0.05094 0.25378 0.86427 0.0
H246 H 0.94525 0.21761 0.7924 0.0
H247 H 0.04022 0.26582 0.77717 0.0
H248 H 0.02552 0.21807 0.61769 0.0
H249 H 0.03542 0.22431 0.70602 0.0
H250 H 0.93809 0.26351 0.72683 0.0
H251 H 0.92795 0.25682 0.63842 0.0
C252 C 0.97416 0.21966 0.8579 0.0
C253 C 0.00431 0.22847 0.87871 0.0
C254 C 0.96809 0.22652 0.80795 0.0
C255 C -0.00795 0.24233 0.77781 0.0
C256 C 0.02149 0.2531 0.79932 0.0
C257 C 0.02755 0.24631 0.84927 0.0
C258 C 0.0064 0.22865 0.64091 0.0
C259 C 0.97582 0.23644 0.62112 0.0
C260 C 0.01213 0.23244 0.69155 0.0
C261 C 0.98741 0.24408 0.72346 0.0
C262 C 0.95744 0.25396 0.70324 0.0
C263 C 0.95172 0.25028 0.65255 0.0
H264 H 0.55142 0.76645 0.1463 0.0
H265 H 0.45353 0.77987 0.09397 0.0
H266 H 0.53279 0.77299 0.23141 0.0
H267 H 0.43499 0.78621 0.17929 0.0
H268 H 0.41998 0.71875 0.32674 0.0
H269 H 0.43547 0.73342 0.24234 0.0
H270 H 0.50343 0.81419 0.29655 0.0
H271 H 0.48737 0.79981 0.38195 0.0
C272 C 0.52605 0.77165 0.1529 0.0
C273 C 0.50384 0.77203 0.11351 0.0
C274 C 0.51545 0.77567 0.20162 0.0
C275 C 0.48244 0.77976 0.21181 0.0
C276 C 0.46056 0.78282 0.1723 0.0
C277 C 0.4712 0.77926 0.12351 0.0
C278 C 0.43795 0.73997 0.32073 0.0
C279 C 0.45271 0.75794 0.36083 0.0
C280 C 0.44657 0.74862 0.27238 0.0
C281 C 0.47052 0.77505 0.26298 0.0
C282 C 0.48483 0.79376 0.30295 0.0
C283 C 0.47566 0.78558 0.35161 0.0
H284 H 0.45479 0.25895 0.38377 0.0
H285 H 0.55241 0.22493 0.35285 0.0
H286 H 0.44168 0.25472 0.29652 0.0
H287 H 0.53895 0.21844 0.26549 0.0
H288 H 0.51924 0.27717 0.11716 0.0
H289 H 0.53163 0.26025 0.20183 0.0
H290 H 0.43285 0.22407 0.22249 0.0
H291 H 0.42022 0.2432 0.13839 0.0
C292 C 0.47312 0.24924 0.35844 0.0
C293 C 0.50472 0.24281 0.37485 0.0
C294 C 0.46561 0.24662 0.30822 0.0
C295 C 0.48941 0.23682 0.27348 0.0
C296 C 0.52026 0.22713 0.29084 0.0
C297 C 0.52793 0.2305 0.34094 0.0
C298 C 0.50036 0.26498 0.13956 0.0
C299 C 0.46869 0.26203 0.12159 0.0
C300 C 0.50746 0.25498 0.18818 0.0
C301 C 0.48314 0.24114 0.21955 0.0
C302 C 0.452 0.23554 0.19999 0.0
C303 C 0.44477 0.24627 0.1517 0.0
H304 H 0.51704 0.32065 0.88034 0.0
H305 H 0.4221 0.27274 0.8614 0.0
H306 H 0.52937 0.30734 0.794 0.0
H307 H 0.43456 0.25945 0.77507 0.0
H308 H 0.45557 0.30321 0.61421 0.0
H309 H 0.44288 0.30137 0.70218 0.0
H310 H 0.53687 0.25583 0.73268 0.0
H311 H 0.54971 0.25765 0.64462 0.0
C312 C 0.49898 0.30685 0.85797 0.0
C313 C 0.46851 0.29808 0.87756 0.0
C314 C 0.50612 0.29901 0.80863 0.0
C315 C 0.48284 0.2825 0.77786 0.0
C316 C 0.45282 0.27247 0.79792 0.0
C317 C 0.44578 0.28 0.84737 0.0
C318 C 0.47333 0.29221 0.63954 0.0
C319 C 0.50375 0.28094 0.62253 0.0
C320 C 0.46599 0.29098 0.68989 0.0
C321 C 0.48901 0.27872 0.72421 0.0
C322 C 0.51884 0.26577 0.70699 0.0
C323 C 0.52608 0.26666 0.65657 0.0
H324 H 0.45099 0.73794 0.87757 0.0
H325 H 0.55256 0.74223 0.84186 0.0
H326 H 0.43766 0.74416 0.79022 0.0
H327 H 0.53947 0.74627 0.75444 0.0
H328 H 0.50791 0.76693 0.59767 0.0
H329 H 0.51846 0.77725 0.68557 0.0
H330 H 0.43882 0.70509 0.72233 0.0
H331 H 0.42751 0.69642 0.63544 0.0
C332 C 0.47045 0.74042 0.851 0.0
C333 C 0.50277 0.7392 0.86643 0.0
C334 C 0.46287 0.7437 0.80087 0.0
C335 C 0.48747 0.74496 0.76494 0.0
C336 C 0.51983 0.7457 0.78083 0.0
C337 C 0.52738 0.74316 0.83106 0.0
C338 C 0.49254 0.75364 0.6247 0.0
C339 C 0.46695 0.73081 0.60959 0.0
C340 C 0.49863 0.7594 0.67509 0.0
C341 C 0.4795 0.74206 0.71133 0.0
C342 C 0.45366 0.71967 0.69583 0.0
C343 C 0.44733 0.71436 0.64574 0.0
H344 H 0.32616 0.21941 0.03563 0.0
H345 H 0.30852 0.33056 0.98798 0.0
H346 H 0.26838 0.20708 0.03521 0.0
H347 H 0.25069 0.31788 0.98582 0.0
H348 H 0.14842 0.29493 0.03935 0.0
H349 H 0.2062 0.30706 0.03973 0.0
H350 H 0.2235 0.19865 0.98095 0.0
H351 H 0.16561 0.18607 0.98226 0.0
C352 C 0.30994 0.24115 0.02469 0.0
C353 C 0.32188 0.27599 0.01195 0.0
C354 C 0.27679 0.234 0.02412 0.0
C355 C 0.25484 0.26145 0.0104 0.0
C356 C 0.26686 0.29626 -0.00266 0.0
C357 C 0.30002 0.3035 -0.00168 0.0
C358 C 0.16455 0.27367 0.0265 0.0
C359 C 0.15247 0.23952 0.01083 0.0
C360 C 0.1977 0.28072 0.02641 0.0
C361 C 0.21954 0.25389 0.01023 0.0
C362 C 0.2074 0.21975 -0.00566 0.0
C363 C 0.17422 0.21258 -0.00516 0.0
H364 H 0.65635 0.70976 0.95038 0.0
H365 H 0.66487 0.74463 0.10272 0.0
H366 H 0.71403 0.71956 0.93893 0.0
H367 H 0.72282 0.7539 0.09132 0.0
H368 H 0.8157 0.80868 0.03146 0.0
H369 H 0.75849 0.79645 0.04582 0.0
H370 H 0.76619 0.6947 0.96485 0.0
H371 H 0.82319 0.70712 0.94979 0.0
C372 C 0.67057 0.71921 0.98157 0.0
C373 C 0.65599 0.72652 0.02744 0.0
C374 C 0.70366 0.72465 0.97504 0.0
C375 C 0.72294 0.73758 0.01419 0.0
C376 C 0.70849 0.74436 0.0603 0.0
C377 C 0.67535 0.73881 0.06689 0.0
C378 C 0.80518 0.78371 0.0167 0.0
C379 C 0.82394 0.75894 -0.01069 0.0
C380 C 0.77248 0.77659 0.02525 0.0
C381 C 0.75787 0.7446 0.00648 0.0
C382 C 0.77669 0.71978 0.9793 0.0
C383 C 0.80938 0.72685 0.97085 0.0
H384 H 0.15037 0.71224 0.51242 0.0
H385 H 0.1704 0.82341 0.46606 0.0
H386 H 0.20807 0.69967 0.51471 0.0
H387 H 0.22806 0.81054 0.46709 0.0
H388 H 0.3291 0.78632 0.52459 0.0
H389 H 0.27136 0.79852 0.52459 0.0
H390 H 0.25341 0.69207 0.45947 0.0
H391 H 0.31115 0.67946 0.46067 0.0
C392 C 0.16708 0.73395 0.50249 0.0
C393 C 0.15583 0.76883 0.4891 0.0
C394 C 0.20014 0.72667 0.50353 0.0
C395 C 0.22266 0.75408 0.49103 0.0
C396 C 0.21137 0.78897 0.47761 0.0
C397 C 0.17831 0.7963 0.47675 0.0
C398 C 0.31284 0.76548 0.51035 0.0
C399 C 0.32469 0.73193 0.49262 0.0
C400 C 0.27975 0.77257 0.51008 0.0
C401 C 0.25779 0.74632 0.49189 0.0
C402 C 0.26966 0.71269 0.47432 0.0
C403 C 0.30276 0.70554 0.47477 0.0
H404 H 0.65526 0.20027 0.45532 0.0
H405 H 0.66381 0.30919 0.51726 0.0
H406 H 0.71388 0.19459 0.45579 0.0
H407 H 0.72228 0.30309 0.5191 0.0
H408 H 0.82552 0.29653 0.46295 0.0
H409 H 0.76696 0.3012 0.46278 0.0
H410 H 0.75939 0.18853 0.51091 0.0
H411 H 0.8181 0.18353 0.50967 0.0
C412 C 0.66964 0.22289 0.46939 0.0
C413 C 0.65492 0.25524 0.48605 0.0
C414 C 0.70323 0.21954 0.46992 0.0
C415 C 0.72277 0.24842 0.48737 0.0
C416 C 0.70796 0.28058 0.50462 0.0
C417 C 0.67442 0.284 0.50382 0.0
C418 C 0.81139 0.27274 0.47351 0.0
C419 C 0.82643 0.23966 0.48634 0.0
C420 C 0.7778 0.27549 0.4737 0.0
C421 C 0.75849 0.24528 0.48702 0.0
C422 C 0.77356 0.21217 0.49987 0.0
C423 C 0.8072 0.20936 0.49941 0.0
loop_
_geom_bond_atom_site_label_1
_geom_bond_atom_site_label_2
_geom_bond_distance
_geom_bond_site_symmetry_2
_ccdc_geom_bond_type
C0 O1 1.160 . S
C0 O7 1.185 1_554 S
O1 C0 1.160 . S
O2 Zn3 1.899 . S
O2 C10 1.284 . S
Zn3 O2 1.899 . S
Zn3 O4 2.032 1_554 S
Zn3 O7 2.086 1_554 S
Zn3 O12 1.977 1_554 S
O4 Zn3 2.032 1_556 S
O4 C8 1.278 . S
C5 O6 1.203 . S
C5 O12 1.267 1_554 S
O6 C5 1.203 . S
O7 C0 1.185 1_556 S
O7 Zn3 2.086 1_556 S
C8 O4 1.278 . S
C8 O9 1.211 . S
O9 C8 1.211 . S
C10 O2 1.284 . S
C10 O11 1.273 . S
O11 C10 1.273 . S
O12 Zn3 1.977 1_556 S
O12 C5 1.267 1_556 S
C13 O14 1.160 . S
C13 O20 1.185 1_554 S
O14 C13 1.160 . S
O15 Zn16 1.899 . S
O15 C23 1.284 . S
Zn16 O15 1.899 . S
Zn16 O17 2.032 1_554 S
Zn16 O20 2.086 1_554 S
Zn16 O25 1.977 1_554 S
O17 Zn16 2.032 1_556 S
O17 C21 1.278 . S
C18 O19 1.203 . S
C18 O25 1.267 1_554 S
O19 C18 1.203 . S
O20 C13 1.185 1_556 S
O20 Zn16 2.086 1_556 S
C21 O17 1.278 . S
C21 O22 1.211 . S
O22 C21 1.211 . S
C23 O15 1.284 . S
C23 O24 1.273 . S
O24 C23 1.273 . S
O25 Zn16 1.977 1_556 S
O25 C18 1.267 1_556 S
C26 O27 1.160 . S
C26 O33 1.185 . S
O27 C26 1.160 . S
O28 Zn29 1.899 . S
O28 C36 1.284 . S
Zn29 O28 1.899 . S
Zn29 O30 2.032 . S
Zn29 O33 2.086 . S
Zn29 O38 1.977 . S
O30 Zn29 2.032 . S
O30 C34 1.278 . S
C31 O32 1.203 . S
C31 O38 1.267 . S
O32 C31 1.203 . S
O33 C26 1.185 . S
O33 Zn29 2.086 . S
C34 O30 1.278 . S
C34 O35 1.211 . S
O35 C34 1.211 . S
C36 O28 1.284 . S
C36 O37 1.273 . S
O37 C36 1.273 . S
O38 Zn29 1.977 . S
O38 C31 1.267 . S
C39 O40 1.160 . S
C39 O46 1.185 . S
O40 C39 1.160 . S
O41 Zn42 1.899 . S
O41 C49 1.284 . S
Zn42 O41 1.899 . S
Zn42 O43 2.032 . S
Zn42 O46 2.086 . S
Zn42 O51 1.977 . S
O43 Zn42 2.032 . S
O43 C47 1.278 . S
C44 O45 1.203 . S
C44 O51 1.267 . S
O45 C44 1.203 . S
O46 C39 1.185 . S
O46 Zn42 2.086 . S
C47 O43 1.278 . S
C47 O48 1.211 . S
O48 C47 1.211 . S
C49 O41 1.284 . S
C49 O50 1.273 . S
O50 C49 1.273 . S
O51 Zn42 1.977 . S
O51 C44 1.267 . S
C52 O53 1.160 . S
C52 O59 1.185 1_554 S
O53 C52 1.160 . S
O54 Zn55 1.899 . S
O54 C62 1.284 . S
Zn55 O54 1.899 . S
Zn55 O56 2.032 1_554 S
Zn55 O59 2.086 1_554 S
Zn55 O64 1.977 1_554 S
O56 Zn55 2.032 1_556 S
O56 C60 1.278 . S
C57 O58 1.203 . S
C57 O64 1.267 1_554 S
O58 C57 1.203 . S
O59 C52 1.185 1_556 S
O59 Zn55 2.086 1_556 S
C60 O56 1.278 . S
C60 O61 1.211 . S
O61 C60 1.211 . S
C62 O54 1.284 . S
C62 O63 1.273 . S
O63 C62 1.273 . S
O64 Zn55 1.977 1_556 S
O64 C57 1.267 1_556 S
C65 O66 1.160 . S
C65 O72 1.185 1_554 S
O66 C65 1.160 . S
O67 Zn68 1.899 . S
O67 C75 1.284 . S
Zn68 O67 1.899 . S
Zn68 O69 2.032 1_554 S
Zn68 O72 2.086 1_554 S
Zn68 O77 1.977 1_554 S
O69 Zn68 2.032 1_556 S
O69 C73 1.278 . S
C70 O71 1.203 . S
C70 O77 1.267 1_554 S
O71 C70 1.203 . S
O72 C65 1.185 1_556 S
O72 Zn68 2.086 1_556 S
C73 O69 1.278 . S
C73 O74 1.211 . S
O74 C73 1.211 . S
C75 O67 1.284 . S
C75 O76 1.273 . S
O76 C75 1.273 . S
O77 Zn68 1.977 1_556 S
O77 C70 1.267 1_556 S
C78 O79 1.160 . S
C78 O85 1.185 . S
O79 C78 1.160 . S
O80 Zn81 1.899 . S
O80 C88 1.284 . S
Zn81 O80 1.899 . S
Zn81 O82 2.032 . S
Zn81 O85 2.086 . S
Zn81 O90 1.977 . S
O82 Zn81 2.032 . S
O82 C86 1.278 . S
C83 O84 1.203 . S
C83 O90 1.267 . S
O84 C83 1.203 . S
O85 C78 1.185 . S
O85 Zn81 2.086 . S
C86 O82 1.278 . S
C86 O87 1.211 . S
O87 C86 1.211 . S
C88 O80 1.284 . S
C88 O89 1.273 . S
O89 C88 1.273 . S
O90 Zn81 1.977 . S
O90 C83 1.267 . S
C91 O92 1.160 . S
C91 O98 1.185 . S
O92 C91 1.160 . S
O93 Zn94 1.899 . S
O93 C101 1.284 . S
Zn94 O93 1.899 . S
Zn94 O95 2.032 . S
Zn94 O98 2.086 . S
Zn94 O103 1.977 . S
O95 Zn94 2.032 . S
O95 C99 1.278 . S
C96 O97 1.203 . S
C96 O103 1.267 . S
O97 C96 1.203 . S
O98 C91 1.185 . S
O98 Zn94 2.086 . S
C99 O95 1.278 . S
C99 O100 1.211 . S
O100 C99 1.211 . S
C101 O93 1.284 . S
C101 O102 1.273 . S
O102 C101 1.273 . S
O103 Zn94 1.977 . S
O103 C96 1.267 . S
H104 C112 0.950 . S
H105 C117 0.950 . S
H106 C114 0.950 . S
H107 C116 0.950 . S
H108 C118 0.950 . S
H109 C120 0.950 . S
H110 C122 0.950 . S
H111 C123 0.950 . S
C112 H104 0.950 . S
C112 C113 1.386 . S
C112 C114 1.391 . S
C113 C112 1.386 . S
C113 C117 1.393 1_554 S
C114 H106 0.950 . S
C114 C112 1.391 . S
C114 C115 1.400 . S
C115 C114 1.400 . S
C115 C116 1.398 1_554 S
C115 C121 1.491 1_665 S
C116 H107 0.950 . S
C116 C115 1.398 1_556 S
C116 C117 1.391 . S
C117 H105 0.950 . S
C117 C113 1.393 1_556 S
C117 C116 1.391 . S
C118 H108 0.950 . S
C118 C119 1.386 1_556 S
C118 C120 1.391 . S
C119 C118 1.386 1_554 S
C119 C123 1.393 . S
C120 H109 0.950 . S
C120 C118 1.391 . S
C120 C121 1.400 1_556 S
C121 C115 1.491 1_445 S
C121 C120 1.400 1_554 S
C121 C122 1.398 . S
C122 H110 0.950 . S
C122 C121 1.398 . S
C122 C123 1.391 . S
C123 H111 0.950 . S
C123 C119 1.393 . S
C123 C122 1.391 . S
H124 C132 0.950 . S
H125 C137 0.948 1_655 S
H126 C134 0.950 . S
H127 C136 0.950 . S
H128 C138 0.950 . S
H129 C140 0.950 . S
H130 C142 0.950 . S
H131 C143 0.948 1_455 S
C132 H124 0.950 . S
C132 C133 1.386 . S
C132 C134 1.391 . S
C133 C132 1.386 . S
C133 C137 1.393 . S
C134 H126 0.950 . S
C134 C132 1.391 . S
C134 C135 1.400 . S
C135 C134 1.400 . S
C135 C136 1.398 1_455 S
C135 C141 1.491 1_465 S
C136 H127 0.950 . S
C136 C135 1.398 1_655 S
C136 C137 1.391 1_655 S
C137 H125 0.948 1_455 S
C137 C133 1.393 . S
C137 C136 1.391 1_455 S
C138 H128 0.950 . S
C138 C139 1.386 . S
C138 C140 1.391 . S
C139 C138 1.386 . S
C139 C143 1.393 . S
C140 H129 0.950 . S
C140 C138 1.391 . S
C140 C141 1.400 . S
C141 C135 1.491 1_645 S
C141 C140 1.400 . S
C141 C142 1.398 1_655 S
C142 H130 0.950 . S
C142 C141 1.398 1_455 S
C142 C143 1.391 1_455 S
C143 H131 0.948 1_655 S
C143 C139 1.393 . S
C143 C142 1.391 1_655 S
H144 C152 0.950 . S
H145 C157 0.950 . S
H146 C154 0.950 . S
H147 C156 0.950 . S
H148 C158 0.950 . S
H149 C160 0.950 . S
H150 C162 0.950 . S
H151 C163 0.950 . S
C152 H144 0.950 . S
C152 C153 1.386 . S
C152 C154 1.391 . S
C153 C152 1.386 . S
C153 C157 1.393 1_554 S
C154 H146 0.950 . S
C154 C152 1.391 . S
C154 C155 1.400 . S
C155 C154 1.400 . S
C155 C156 1.398 1_554 S
C155 C161 1.491 . S
C156 H147 0.950 . S
C156 C155 1.398 1_556 S
C156 C157 1.391 . S
C157 H145 0.950 . S
C157 C153 1.393 1_556 S
C157 C156 1.391 . S
C158 H148 0.950 . S
C158 C159 1.386 1_556 S
C158 C160 1.391 . S
C159 C158 1.386 1_554 S
C159 C163 1.393 . S
C160 H149 0.950 . S
C160 C158 1.391 . S
C160 C161 1.400 1_556 S
C161 C155 1.491 . S
C161 C160 1.400 1_554 S
C161 C162 1.398 . S
C162 H150 0.950 . S
C162 C161 1.398 . S
C162 C163 1.391 . S
C163 H151 0.950 . S
C163 C159 1.393 . S
C163 C162 1.391 . S
H164 C172 0.950 . S
H165 C177 0.950 . S
H166 C174 0.950 . S
H167 C176 0.950 . S
H168 C178 0.950 . S
H169 C180 0.950 . S
H170 C182 0.950 . S
H171 C183 0.950 . S
C172 H164 0.950 . S
C172 C173 1.386 . S
C172 C174 1.391 . S
C173 C172 1.386 . S
C173 C177 1.393 . S
C174 H166 0.950 . S
C174 C172 1.391 . S
C174 C175 1.400 . S
C175 C174 1.400 . S
C175 C176 1.398 . S
C175 C181 1.491 . S
C176 H167 0.950 . S
C176 C175 1.398 . S
C176 C177 1.391 . S
C177 H165 0.950 . S
C177 C173 1.393 . S
C177 C176 1.391 . S
C178 H168 0.950 . S
C178 C179 1.386 . S
C178 C180 1.391 . S
C179 C178 1.386 . S
C179 C183 1.393 . S
C180 H169 0.950 . S
C180 C178 1.391 . S
C180 C181 1.400 . S
C181 C175 1.491 . S
C181 C180 1.400 . S
C181 C182 1.398 . S
C182 H170 0.950 . S
C182 C181 1.398 . S
C182 C183 1.391 . S
C183 H171 0.950 . S
C183 C179 1.393 . S
C183 C182 1.391 . S
H184 C192 0.950 . S
H185 C197 0.950 . S
H186 C194 0.950 . S
H187 C196 0.950 . S
H188 C198 0.950 . S
H189 C200 0.950 . S
H190 C202 0.950 . S
H191 C203 0.950 . S
C192 H184 0.950 . S
C192 C193 1.386 . S
C192 C194 1.391 . S
C193 C192 1.386 . S
C193 C197 1.393 1_455 S
C194 H186 0.950 . S
C194 C192 1.391 . S
C194 C195 1.400 . S
C195 C194 1.400 . S
C195 C196 1.398 1_455 S
C195 C201 1.491 1_455 S
C196 H187 0.950 . S
C196 C195 1.398 1_655 S
C196 C197 1.391 . S
C197 H185 0.950 . S
C197 C193 1.393 1_655 S
C197 C196 1.391 . S
C198 H188 0.950 . S
C198 C199 1.386 . S
C198 C200 1.391 . S
C199 C198 1.386 . S
C199 C203 1.393 1_655 S
C200 H189 0.950 . S
C200 C198 1.391 . S
C200 C201 1.400 . S
C201 C195 1.491 1_655 S
C201 C200 1.400 . S
C201 C202 1.398 1_655 S
C202 H190 0.950 . S
C202 C201 1.398 1_455 S
C202 C203 1.391 . S
C203 H191 0.950 . S
C203 C199 1.393 1_455 S
C203 C202 1.391 . S
H204 C212 0.950 . S
H205 C217 0.950 . S
H206 C214 0.950 . S
H207 C216 0.950 . S
H208 C218 0.950 . S
H209 C220 0.950 . S
H210 C222 0.950 . S
H211 C223 0.950 . S
C212 H204 0.950 . S
C212 C213 1.386 1_655 S
C212 C214 1.391 . S
C213 C212 1.386 1_455 S
C213 C217 1.393 . S
C214 H206 0.950 . S
C214 C212 1.391 . S
C214 C215 1.400 1_655 S
C215 C214 1.400 1_455 S
C215 C216 1.398 . S
C215 C221 1.491 1_455 S
C216 H207 0.950 . S
C216 C215 1.398 . S
C216 C217 1.391 . S
C217 H205 0.950 . S
C217 C213 1.393 . S
C217 C216 1.391 . S
C218 H208 0.950 . S
C218 C219 1.386 1_455 S
C218 C220 1.391 . S
C219 C218 1.386 1_655 S
C219 C223 1.393 . S
C220 H209 0.950 . S
C220 C218 1.391 . S
C220 C221 1.400 1_455 S
C221 C215 1.491 1_655 S
C221 C220 1.400 1_655 S
C221 C222 1.398 . S
C222 H210 0.950 . S
C222 C221 1.398 . S
C222 C223 1.391 . S
C223 H211 0.950 . S
C223 C219 1.393 . S
C223 C222 1.391 . S
H224 C232 0.950 . S
H225 C237 0.950 1_655 S
H226 C234 0.950 . S
H227 C236 0.950 . S
H228 C238 0.950 . S
H229 C240 0.950 . S
H230 C242 0.950 . S
H231 C243 0.950 1_455 S
C232 H224 0.950 . S
C232 C233 1.386 . S
C232 C234 1.391 . S
C233 C232 1.386 . S
C233 C237 1.393 . S
C234 H226 0.950 . S
C234 C232 1.391 . S
C234 C235 1.400 . S
C235 C234 1.400 . S
C235 C236 1.398 1_455 S
C235 C241 1.491 1_455 S
C236 H227 0.950 . S
C236 C235 1.398 1_655 S
C236 C237 1.391 1_655 S
C237 H225 0.950 1_455 S
C237 C233 1.393 . S
C237 C236 1.391 1_455 S
C238 H228 0.950 . S
C238 C239 1.386 . S
C238 C240 1.391 . S
C239 C238 1.386 . S
C239 C243 1.393 . S
C240 H229 0.950 . S
C240 C238 1.391 . S
C240 C241 1.400 . S
C241 C235 1.491 1_655 S
C241 C240 1.400 . S
C241 C242 1.398 1_655 S
C242 H230 0.950 . S
C242 C241 1.398 1_455 S
C242 C243 1.391 1_455 S
C243 H231 0.950 1_655 S
C243 C239 1.393 . S
C243 C242 1.391 1_655 S
H244 C252 0.950 . S
H245 C257 0.950 . S
H246 C254 0.950 1_655 S
H247 C256 0.950 . S
H248 C258 0.950 . S
H249 C260 0.950 1_455 S
H250 C262 0.950 . S
H251 C263 0.950 . S
C252 H244 0.950 . S
C252 C253 1.386 . S
C252 C254 1.391 . S
C253 C252 1.386 . S
C253 C257 1.393 . S
C254 H246 0.950 1_455 S
C254 C252 1.391 . S
C254 C255 1.400 . S
C255 C254 1.400 . S
C255 C256 1.398 . S
C255 C261 1.491 1_455 S
C256 H247 0.950 . S
C256 C255 1.398 . S
C256 C257 1.391 . S
C257 H245 0.950 . S
C257 C253 1.393 . S
C257 C256 1.391 . S
C258 H248 0.950 . S
C258 C259 1.386 . S
C258 C260 1.391 . S
C259 C258 1.386 . S
C259 C263 1.393 . S
C260 H249 0.950 1_655 S
C260 C258 1.391 . S
C260 C261 1.400 . S
C261 C255 1.491 1_655 S
C261 C260 1.400 . S
C261 C262 1.398 . S
C262 H250 0.950 . S
C262 C261 1.398 . S
C262 C263 1.391 . S
C263 H251 0.950 . S
C263 C259 1.393 . S
C263 C262 1.391 . S
H264 C272 0.950 . S
H265 C277 0.950 . S
H266 C274 0.950 . S
H267 C276 0.950 . S
H268 C278 0.950 . S
H269 C280 0.950 . S
H270 C282 0.950 . S
H271 C283 0.950 . S
C272 H264 0.950 . S
C272 C273 1.386 . S
C272 C274 1.391 . S
C273 C272 1.386 . S
C273 C277 1.393 . S
C274 H266 0.950 . S
C274 C272 1.391 . S
C274 C275 1.400 . S
C275 C274 1.400 . S
C275 C276 1.398 . S
C275 C281 1.491 . S
C276 H267 0.950 . S
C276 C275 1.398 . S
C276 C277 1.391 . S
C277 H265 0.950 . S
C277 C273 1.393 . S
C277 C276 1.391 . S
C278 H268 0.950 . S
C278 C279 1.386 . S
C278 C280 1.391 . S
C279 C278 1.386 . S
C279 C283 1.393 . S
C280 H269 0.950 . S
C280 C278 1.391 . S
C280 C281 1.400 . S
C281 C275 1.491 . S
C281 C280 1.400 . S
C281 C282 1.398 . S
C282 H270 0.950 . S
C282 C281 1.398 . S
C282 C283 1.391 . S
C283 H271 0.950 . S
C283 C279 1.393 . S
C283 C282 1.391 . S
H284 C292 0.950 . S
H285 C297 0.950 . S
H286 C294 0.950 . S
H287 C296 0.950 . S
H288 C298 0.950 . S
H289 C300 0.950 . S
H290 C302 0.950 . S
H291 C303 0.950 . S
C292 H284 0.950 . S
C292 C293 1.386 . S
C292 C294 1.391 . S
C293 C292 1.386 . S
C293 C297 1.393 . S
C294 H286 0.950 . S
C294 C292 1.391 . S
C294 C295 1.400 . S
C295 C294 1.400 . S
C295 C296 1.398 . S
C295 C301 1.491 . S
C296 H287 0.950 . S
C296 C295 1.398 . S
C296 C297 1.391 . S
C297 H285 0.950 . S
C297 C293 1.393 . S
C297 C296 1.391 . S
C298 H288 0.950 . S
C298 C299 1.386 . S
C298 C300 1.391 . S
C299 C298 1.386 . S
C299 C303 1.393 . S
C300 H289 0.950 . S
C300 C298 1.391 . S
C300 C301 1.400 . S
C301 C295 1.491 . S
C301 C300 1.400 . S
C301 C302 1.398 . S
C302 H290 0.950 . S
C302 C301 1.398 . S
C302 C303 1.391 . S
C303 H291 0.950 . S
C303 C299 1.393 . S
C303 C302 1.391 . S
H304 C312 0.950 . S
H305 C317 0.950 . S
H306 C314 0.950 . S
H307 C316 0.950 . S
H308 C318 0.950 . S
H309 C320 0.950 . S
H310 C322 0.950 . S
H311 C323 0.950 . S
C312 H304 0.950 . S
C312 C313 1.386 . S
C312 C314 1.391 . S
C313 C312 1.386 . S
C313 C317 1.393 . S
C314 H306 0.950 . S
C314 C312 1.391 . S
C314 C315 1.400 . S
C315 C314 1.400 . S
C315 C316 1.398 . S
C315 C321 1.491 . S
C316 H307 0.950 . S
C316 C315 1.398 . S
C316 C317 1.391 . S
C317 H305 0.950 . S
C317 C313 1.393 . S
C317 C316 1.391 . S
C318 H308 0.950 . S
C318 C319 1.386 . S
C318 C320 1.391 . S
C319 C318 1.386 . S
C319 C323 1.393 . S
C320 H309 0.950 . S
C320 C318 1.391 . S
C320 C321 1.400 . S
C321 C315 1.491 . S
C321 C320 1.400 . S
C321 C322 1.398 . S
C322 H310 0.950 . S
C322 C321 1.398 . S
C322 C323 1.391 . S
C323 H311 0.950 . S
C323 C319 1.393 . S
C323 C322 1.391 . S
H324 C332 0.950 . S
H325 C337 0.950 . S
H326 C334 0.950 . S
H327 C336 0.950 . S
H328 C338 0.950 . S
H329 C340 0.950 . S
H330 C342 0.950 . S
H331 C343 0.950 . S
C332 H324 0.950 . S
C332 C333 1.386 . S
C332 C334 1.391 . S
C333 C332 1.386 . S
C333 C337 1.393 . S
C334 H326 0.950 . S
C334 C332 1.391 . S
C334 C335 1.400 . S
C335 C334 1.400 . S
C335 C336 1.398 . S
C335 C341 1.491 . S
C336 H327 0.950 . S
C336 C335 1.398 . S
C336 C337 1.391 . S
C337 H325 0.950 . S
C337 C333 1.393 . S
C337 C336 1.391 . S
C338 H328 0.950 . S
C338 C339 1.386 . S
C338 C340 1.391 . S
C339 C338 1.386 . S
C339 C343 1.393 . S
C340 H329 0.950 . S
C340 C338 1.391 . S
C340 C341 1.400 . S
C341 C335 1.491 . S
C341 C340 1.400 . S
C341 C342 1.398 . S
C342 H330 0.950 . S
C342 C341 1.398 . S
C342 C343 1.391 . S
C343 H331 0.950 . S
C343 C339 1.393 . S
C343 C342 1.391 . S
H344 C352 0.950 . S
H345 C357 0.950 . S
H346 C354 0.950 . S
H347 C356 0.950 . S
H348 C358 0.950 . S
H349 C360 0.950 . S
H350 C362 0.950 . S
H351 C363 0.950 . S
C352 H344 0.950 . S
C352 C353 1.386 . S
C352 C354 1.391 . S
C353 C352 1.386 . S
C353 C357 1.393 . S
C354 H346 0.950 . S
C354 C352 1.391 . S
C354 C355 1.401 . S
C355 C354 1.401 . S
C355 C356 1.399 . S
C355 C361 1.490 1_554 S
C356 H347 0.950 . S
C356 C355 1.399 . S
C356 C357 1.391 . S
C357 H345 0.950 . S
C357 C353 1.393 . S
C357 C356 1.391 . S
C358 H348 0.950 . S
C358 C359 1.386 . S
C358 C360 1.391 . S
C359 C358 1.386 . S
C359 C363 1.393 . S
C360 H349 0.950 . S
C360 C358 1.391 . S
C360 C361 1.400 . S
C361 C355 1.490 1_556 S
C361 C360 1.400 . S
C361 C362 1.398 . S
C362 H350 0.950 . S
C362 C361 1.398 . S
C362 C363 1.391 . S
C363 H351 0.950 . S
C363 C359 1.393 . S
C363 C362 1.391 . S
H364 C372 0.950 . S
H365 C377 0.950 . S
H366 C374 0.950 . S
H367 C376 0.950 . S
H368 C378 0.950 . S
H369 C380 0.950 . S
H370 C382 0.950 . S
H371 C383 0.950 . S
C372 H364 0.950 . S
C372 C373 1.386 . S
C372 C374 1.391 . S
C373 C372 1.386 . S
C373 C377 1.393 1_556 S
C374 H366 0.950 . S
C374 C372 1.391 . S
C374 C375 1.409 . S
C375 C374 1.409 . S
C375 C376 1.390 1_556 S
C375 C381 1.490 1_556 S
C376 H367 0.950 . S
C376 C375 1.390 1_554 S
C376 C377 1.391 . S
C377 H365 0.950 . S
C377 C373 1.393 1_554 S
C377 C376 1.391 . S
C378 H368 0.950 . S
C378 C379 1.386 . S
C378 C380 1.391 . S
C379 C378 1.386 . S
C379 C383 1.393 1_554 S
C380 H369 0.950 . S
C380 C378 1.391 . S
C380 C381 1.408 . S
C381 C375 1.490 1_554 S
C381 C380 1.408 . S
C381 C382 1.391 1_554 S
C382 H370 0.950 . S
C382 C381 1.391 1_556 S
C382 C383 1.391 . S
C383 H371 0.950 . S
C383 C379 1.393 1_556 S
C383 C382 1.391 . S
H384 C392 0.950 . S
H385 C397 0.950 . S
H386 C394 0.950 . S
H387 C396 0.950 . S
H388 C398 0.950 . S
H389 C400 0.950 . S
H390 C402 0.950 . S
H391 C403 0.950 . S
C392 H384 0.950 . S
C392 C393 1.386 . S
C392 C394 1.391 . S
C393 C392 1.386 . S
C393 C397 1.393 . S
C394 H386 0.950 . S
C394 C392 1.391 . S
C394 C395 1.400 . S
C395 C394 1.400 . S
C395 C396 1.398 . S
C395 C401 1.491 . S
C396 H387 0.950 . S
C396 C395 1.398 . S
C396 C397 1.391 . S
C397 H385 0.950 . S
C397 C393 1.393 . S
C397 C396 1.391 . S
C398 H388 0.950 . S
C398 C399 1.386 . S
C398 C400 1.391 . S
C399 C398 1.386 . S
C399 C403 1.393 . S
C400 H389 0.950 . S
C400 C398 1.391 . S
C400 C401 1.400 . S
C401 C395 1.491 . S
C401 C400 1.400 . S
C401 C402 1.398 . S
C402 H390 0.950 . S
C402 C401 1.398 . S
C402 C403 1.391 . S
C403 H391 0.950 . S
C403 C399 1.393 . S
C403 C402 1.391 . S
H404 C412 0.950 . S
H405 C417 0.950 . S
H406 C414 0.950 . S
H407 C416 0.950 . S
H408 C418 0.950 . S
H409 C420 0.950 . S
H410 C422 0.950 . S
H411 C423 0.950 . S
C412 H404 0.950 . S
C412 C413 1.386 . S
C412 C414 1.391 . S
C413 C412 1.386 . S
C413 C417 1.393 . S
C414 H406 0.950 . S
C414 C412 1.391 . S
C414 C415 1.400 . S
C415 C414 1.400 . S
C415 C416 1.398 . S
C415 C421 1.491 . S
C416 H407 0.950 . S
C416 C415 1.398 . S
C416 C417 1.391 . S
C417 H405 0.950 . S
C417 C413 1.393 . S
C417 C416 1.391 . S
C418 H408 0.950 . S
C418 C419 1.386 . S
C418 C420 1.391 . S
C419 C418 1.386 . S
C419 C423 1.393 . S
C420 H409 0.950 . S
C420 C418 1.391 . S
C420 C421 1.400 . S
C421 C415 1.491 . S
C421 C420 1.400 . S
C421 C422 1.398 . S
C422 H410 0.950 . S
C422 C421 1.398 . S
C422 C423 1.391 . S
C423 H411 0.950 . S
C423 C419 1.393 . S
C423 C422 1.391 . S
C113 C18 1.464 . S
C119 C5 1.463 . S
C133 C31 1.463 . S
C139 C44 1.466 . S
C153 C57 1.463 . S
C159 C70 1.464 . S
C173 C83 1.469 . S
C179 C96 1.476 . S
C193 C10 1.183 . S
C199 C49 1.171 . S
C213 C36 1.173 . S
C219 C23 1.183 . S
C233 C34 1.079 . S
C239 C21 1.106 . S
C253 C8 1.096 . S
C259 C47 1.089 . S
C273 C62 1.182 . S
C279 C101 1.175 . S
C293 C88 1.170 . S
C299 C75 1.183 . S
C313 C73 1.115 . S
C319 C86 1.072 . S
C333 C60 1.115 . S
C339 C99 1.073 . S
C353 C65 1.515 . S
C359 C0 1.532 1_556 S
C373 C52 1.529 1_556 S
C379 C13 1.516 . S
C393 C26 1.517 . S
C399 C91 1.529 . S
C413 C78 1.521 . S
C419 C39 1.528 . S
