# Generated by pormake.
# Topology cha, (4)-cn, num edge types: 1
# Building blocks:
#     Node 0, Type 0, BuildingBlock: CEKHIL_clean_sbu_0, # of connection points: 4
#     Node 1, Type 0, BuildingBlock: CEKHIL_clean_sbu_0, # of connection points: 4
#     Node 2, Type 0, BuildingBlock: CEKHIL_clean_sbu_0, # of connection points: 4
#     Node 3, Type 0, BuildingBlock: CEKHIL_clean_sbu_0, # of connection points: 4
#     Node 4, Type 0, BuildingBlock: CEKHIL_clean_sbu_0, # of connection points: 4
#     Node 5, Type 0, BuildingBlock: CEKHIL_clean_sbu_0, # of connection points: 4
#     Node 6, Type 0, BuildingBlock: CEKHIL_clean_sbu_0, # of connection points: 4
#     Node 7, Type 0, BuildingBlock: CEKHIL_clean_sbu_0, # of connection points: 4
#     Node 8, Type 0, BuildingBlock: CEKHIL_clean_sbu_0, # of connection points: 4
#     Node 9, Type 0, BuildingBlock: CEKHIL_clean_sbu_0, # of connection points: 4
#     Node 10, Type 0, BuildingBlock: CEKHIL_clean_sbu_0, # of connection points: 4
#     Node 11, Type 0, BuildingBlock: CEKHIL_clean_sbu_0, # of connection points: 4
#     Node 12, Type 0, BuildingBlock: CEKHIL_clean_sbu_0, # of connection points: 4
#     Node 13, Type 0, BuildingBlock: CEKHIL_clean_sbu_0, # of connection points: 4
#     Node 14, Type 0, BuildingBlock: CEKHIL_clean_sbu_0, # of connection points: 4
#     Node 15, Type 0, BuildingBlock: CEKHIL_clean_sbu_0, # of connection points: 4
#     Node 16, Type 0, BuildingBlock: CEKHIL_clean_sbu_0, # of connection points: 4
#     Node 17, Type 0, BuildingBlock: CEKHIL_clean_sbu_0, # of connection points: 4
#     Node 18, Type 0, BuildingBlock: CEKHIL_clean_sbu_0, # of connection points: 4
#     Node 19, Type 0, BuildingBlock: CEKHIL_clean_sbu_0, # of connection points: 4
#     Node 20, Type 0, BuildingBlock: CEKHIL_clean_sbu_0, # of connection points: 4
#     Node 21, Type 0, BuildingBlock: CEKHIL_clean_sbu_0, # of connection points: 4
#     Node 22, Type 0, BuildingBlock: CEKHIL_clean_sbu_0, # of connection points: 4
#     Node 23, Type 0, BuildingBlock: CEKHIL_clean_sbu_0, # of connection points: 4
#     Node 24, Type 0, BuildingBlock: CEKHIL_clean_sbu_0, # of connection points: 4
#     Node 25, Type 0, BuildingBlock: CEKHIL_clean_sbu_0, # of connection points: 4
#     Node 26, Type 0, BuildingBlock: CEKHIL_clean_sbu_0, # of connection points: 4
#     Node 27, Type 0, BuildingBlock: CEKHIL_clean_sbu_0, # of connection points: 4
#     Node 28, Type 0, BuildingBlock: CEKHIL_clean_sbu_0, # of connection points: 4
#     Node 29, Type 0, BuildingBlock: CEKHIL_clean_sbu_0, # of connection points: 4
#     Node 30, Type 0, BuildingBlock: CEKHIL_clean_sbu_0, # of connection points: 4
#     Node 31, Type 0, BuildingBlock: CEKHIL_clean_sbu_0, # of connection points: 4
#     Node 32, Type 0, BuildingBlock: CEKHIL_clean_sbu_0, # of connection points: 4
#     Node 33, Type 0, BuildingBlock: CEKHIL_clean_sbu_0, # of connection points: 4
#     Node 34, Type 0, BuildingBlock: CEKHIL_clean_sbu_0, # of connection points: 4
#     Node 35, Type 0, BuildingBlock: CEKHIL_clean_sbu_0, # of connection points: 4
#     Edge 36, Type (0, 0), BuildingBlock: TEMPAE_clean_linker_10, # of connection points: 2
#     Edge 37, Type (0, 0), BuildingBlock: TEMPAE_clean_linker_10, # of connection points: 2
#     Edge 38, Type (0, 0), BuildingBlock: TEMPAE_clean_linker_10, # of connection points: 2
#     Edge 39, Type (0, 0), BuildingBlock: TEMPAE_clean_linker_10, # of connection points: 2
#     Edge 40, Type (0, 0), BuildingBlock: TEMPAE_clean_linker_10, # of connection points: 2
#     Edge 41, Type (0, 0), BuildingBlock: TEMPAE_clean_linker_10, # of connection points: 2
#     Edge 42, Type (0, 0), BuildingBlock: TEMPAE_clean_linker_10, # of connection points: 2
#     Edge 43, Type (0, 0), BuildingBlock: TEMPAE_clean_linker_10, # of connection points: 2
#     Edge 44, Type (0, 0), BuildingBlock: TEMPAE_clean_linker_10, # of connection points: 2
#     Edge 45, Type (0, 0), BuildingBlock: TEMPAE_clean_linker_10, # of connection points: 2
#     Edge 46, Type (0, 0), BuildingBlock: TEMPAE_clean_linker_10, # of connection points: 2
#     Edge 47, Type (0, 0), BuildingBlock: TEMPAE_clean_linker_10, # of connection points: 2
#     Edge 48, Type (0, 0), BuildingBlock: TEMPAE_clean_linker_10, # of connection points: 2
#     Edge 49, Type (0, 0), BuildingBlock: TEMPAE_clean_linker_10, # of connection points: 2
#     Edge 50, Type (0, 0), BuildingBlock: TEMPAE_clean_linker_10, # of connection points: 2
#     Edge 51, Type (0, 0), BuildingBlock: TEMPAE_clean_linker_10, # of connection points: 2
#     Edge 52, Type (0, 0), BuildingBlock: TEMPAE_clean_linker_10, # of connection points: 2
#     Edge 53, Type (0, 0), BuildingBlock: TEMPAE_clean_linker_10, # of connection points: 2
#     Edge 54, Type (0, 0), BuildingBlock: TEMPAE_clean_linker_10, # of connection points: 2
#     Edge 55, Type (0, 0), BuildingBlock: TEMPAE_clean_linker_10, # of connection points: 2
#     Edge 56, Type (0, 0), BuildingBlock: TEMPAE_clean_linker_10, # of connection points: 2
#     Edge 57, Type (0, 0), BuildingBlock: TEMPAE_clean_linker_10, # of connection points: 2
#     Edge 58, Type (0, 0), BuildingBlock: TEMPAE_clean_linker_10, # of connection points: 2
#     Edge 59, Type (0, 0), BuildingBlock: TEMPAE_clean_linker_10, # of connection points: 2
#     Edge 60, Type (0, 0), BuildingBlock: TEMPAE_clean_linker_10, # of connection points: 2
#     Edge 61, Type (0, 0), BuildingBlock: TEMPAE_clean_linker_10, # of connection points: 2
#     Edge 62, Type (0, 0), BuildingBlock: TEMPAE_clean_linker_10, # of connection points: 2
#     Edge 63, Type (0, 0), BuildingBlock: TEMPAE_clean_linker_10, # of connection points: 2
#     Edge 64, Type (0, 0), BuildingBlock: TEMPAE_clean_linker_10, # of connection points: 2
#     Edge 65, Type (0, 0), BuildingBlock: TEMPAE_clean_linker_10, # of connection points: 2
#     Edge 66, Type (0, 0), BuildingBlock: TEMPAE_clean_linker_10, # of connection points: 2
#     Edge 67, Type (0, 0), BuildingBlock: TEMPAE_clean_linker_10, # of connection points: 2
#     Edge 68, Type (0, 0), BuildingBlock: TEMPAE_clean_linker_10, # of connection points: 2
#     Edge 69, Type (0, 0), BuildingBlock: TEMPAE_clean_linker_10, # of connection points: 2
#     Edge 70, Type (0, 0), BuildingBlock: TEMPAE_clean_linker_10, # of connection points: 2
#     Edge 71, Type (0, 0), BuildingBlock: TEMPAE_clean_linker_10, # of connection points: 2
#     Edge 72, Type (0, 0), BuildingBlock: TEMPAE_clean_linker_10, # of connection points: 2
#     Edge 73, Type (0, 0), BuildingBlock: TEMPAE_clean_linker_10, # of connection points: 2
#     Edge 74, Type (0, 0), BuildingBlock: TEMPAE_clean_linker_10, # of connection points: 2
#     Edge 75, Type (0, 0), BuildingBlock: TEMPAE_clean_linker_10, # of connection points: 2
#     Edge 76, Type (0, 0), BuildingBlock: TEMPAE_clean_linker_10, # of connection points: 2
#     Edge 77, Type (0, 0), BuildingBlock: TEMPAE_clean_linker_10, # of connection points: 2
#     Edge 78, Type (0, 0), BuildingBlock: TEMPAE_clean_linker_10, # of connection points: 2
#     Edge 79, Type (0, 0), BuildingBlock: TEMPAE_clean_linker_10, # of connection points: 2
#     Edge 80, Type (0, 0), BuildingBlock: TEMPAE_clean_linker_10, # of connection points: 2
#     Edge 81, Type (0, 0), BuildingBlock: TEMPAE_clean_linker_10, # of connection points: 2
#     Edge 82, Type (0, 0), BuildingBlock: TEMPAE_clean_linker_10, # of connection points: 2
#     Edge 83, Type (0, 0), BuildingBlock: TEMPAE_clean_linker_10, # of connection points: 2
#     Edge 84, Type (0, 0), BuildingBlock: TEMPAE_clean_linker_10, # of connection points: 2
#     Edge 85, Type (0, 0), BuildingBlock: TEMPAE_clean_linker_10, # of connection points: 2
#     Edge 86, Type (0, 0), BuildingBlock: TEMPAE_clean_linker_10, # of connection points: 2
#     Edge 87, Type (0, 0), BuildingBlock: TEMPAE_clean_linker_10, # of connection points: 2
#     Edge 88, Type (0, 0), BuildingBlock: TEMPAE_clean_linker_10, # of connection points: 2
#     Edge 89, Type (0, 0), BuildingBlock: TEMPAE_clean_linker_10, # of connection points: 2
#     Edge 90, Type (0, 0), BuildingBlock: TEMPAE_clean_linker_10, # of connection points: 2
#     Edge 91, Type (0, 0), BuildingBlock: TEMPAE_clean_linker_10, # of connection points: 2
#     Edge 92, Type (0, 0), BuildingBlock: TEMPAE_clean_linker_10, # of connection points: 2
#     Edge 93, Type (0, 0), BuildingBlock: TEMPAE_clean_linker_10, # of connection points: 2
#     Edge 94, Type (0, 0), BuildingBlock: TEMPAE_clean_linker_10, # of connection points: 2
#     Edge 95, Type (0, 0), BuildingBlock: TEMPAE_clean_linker_10, # of connection points: 2
#     Edge 96, Type (0, 0), BuildingBlock: TEMPAE_clean_linker_10, # of connection points: 2
#     Edge 97, Type (0, 0), BuildingBlock: TEMPAE_clean_linker_10, # of connection points: 2
#     Edge 98, Type (0, 0), BuildingBlock: TEMPAE_clean_linker_10, # of connection points: 2
#     Edge 99, Type (0, 0), BuildingBlock: TEMPAE_clean_linker_10, # of connection points: 2
#     Edge 100, Type (0, 0), BuildingBlock: TEMPAE_clean_linker_10, # of connection points: 2
#     Edge 101, Type (0, 0), BuildingBlock: TEMPAE_clean_linker_10, # of connection points: 2
#     Edge 102, Type (0, 0), BuildingBlock: TEMPAE_clean_linker_10, # of connection points: 2
#     Edge 103, Type (0, 0), BuildingBlock: TEMPAE_clean_linker_10, # of connection points: 2
#     Edge 104, Type (0, 0), BuildingBlock: TEMPAE_clean_linker_10, # of connection points: 2
#     Edge 105, Type (0, 0), BuildingBlock: TEMPAE_clean_linker_10, # of connection points: 2
#     Edge 106, Type (0, 0), BuildingBlock: TEMPAE_clean_linker_10, # of connection points: 2
#     Edge 107, Type (0, 0), BuildingBlock: TEMPAE_clean_linker_10, # of connection points: 2
# Relax obj value: 0.071
# Max RMSD: 0.095
# Mean RMSD: 0.095
data_MOF--net-cha--node1-CEKHIL_clean_sbu_0--edge1-TEMPAE_clean_linker_10
_symmetry_space_group_name_H-M    P1
_symmetry_Int_Tables_number       1
_symmetry_cell_setting            triclinic
loop_
_symmetry_equiv_pos_as_xyz
'x, y, z'
_cell_length_a     54.416351
_cell_length_b     54.396748
_cell_length_c     85.97279
_cell_angle_alpha  90.003151
_cell_angle_beta   90.000201
_cell_angle_gamma 119.97807
loop_
_atom_site_label
_atom_site_type_symbol
_atom_site_fract_x
_atom_site_fract_y
_atom_site_fract_z
_atom_type_partial_charge
Co0 Co 0.03858 0.31099 0.09457 0.0
O1 O 0.03906 0.31336 0.11679 0.0
O2 O 0.01965 0.33157 0.10129 0.0
C3 C 0.08434 0.32257 0.09258 0.0
O4 O 0.03578 0.31322 0.07087 0.0
Co5 Co 0.05042 0.26579 0.07964 0.0
O6 O 0.05282 0.28683 0.06032 0.0
C7 C 0.99558 0.24802 0.09473 0.0
C8 C 0.02567 0.32726 0.11535 0.0
C9 C 0.04366 0.30423 0.05902 0.0
O10 O 0.00137 0.27401 0.09533 0.0
O11 O 0.0135 0.24064 0.09043 0.0
O12 O 0.07791 0.34253 0.09363 0.0
O13 O 0.0635 0.29705 0.09396 0.0
Co14 Co 0.7482 0.75801 0.09371 0.0
O15 O 0.7524 0.75959 0.11587 0.0
O16 O 0.72987 0.71975 0.10227 0.0
C17 C 0.73505 0.79111 0.092 0.0
O18 O 0.73994 0.74959 0.07038 0.0
Co19 Co 0.78931 0.81343 0.07555 0.0
O20 O 0.76401 0.79171 0.05804 0.0
C21 C 0.81092 0.77936 0.09035 0.0
C22 C 0.73841 0.73216 0.11575 0.0
C23 C 0.74626 0.76511 0.058 0.0
O24 O 0.78542 0.75846 0.0917 0.0
O25 O 0.81676 0.80413 0.08584 0.0
O26 O 0.71625 0.76511 0.0954 0.0
O27 O 0.7609 0.79646 0.09148 0.0
Co28 Co 0.30347 0.02309 0.09229 0.0
O29 O 0.29495 0.02318 0.1139 0.0
O30 O 0.33841 0.04309 0.10434 0.0
C31 C 0.27232 0.97669 0.08862 0.0
O32 O 0.31915 0.02551 0.07025 0.0
Co33 Co 0.25448 0.00849 0.06861 0.0
O34 O 0.28067 0.0033 0.05475 0.0
C35 C 0.28268 0.06401 0.0843 0.0
C36 C 0.32198 0.03683 0.11649 0.0
C37 C 0.30724 0.01417 0.05714 0.0
O38 O 0.30245 0.05942 0.08912 0.0
O39 O 0.26035 0.04529 0.07729 0.0
O40 O 0.2972 0.98443 0.09438 0.0
O41 O 0.26644 0.99669 0.08679 0.0
Co42 Co 0.30735 0.03734 0.91474 0.0
O43 O 0.30159 0.03506 0.89269 0.0
O44 O 0.32513 0.0176 0.90512 0.0
C45 C 0.32077 0.08355 0.91685 0.0
O46 O 0.31718 0.037 0.93789 0.0
Co47 Co 0.26794 0.05184 0.93448 0.0
O48 O 0.2965 0.05824 0.95051 0.0
C49 C 0.24568 0.99389 0.92237 0.0
C50 C 0.31565 0.02173 0.89201 0.0
C51 C 0.31285 0.04773 0.95033 0.0
O52 O 0.2704 0.00041 0.91719 0.0
O53 O 0.24002 0.0117 0.92881 0.0
O54 O 0.3392 0.07621 0.91284 0.0
O55 O 0.29486 0.06317 0.91773 0.0
Co56 Co 0.02137 0.29953 0.91402 0.0
O57 O 0.02242 0.29318 0.89214 0.0
O58 O 0.03967 0.33557 0.90293 0.0
C59 C 0.97563 0.26617 0.91723 0.0
O60 O 0.02303 0.3132 0.93656 0.0
Co61 Co 0.00922 0.25023 0.93689 0.0
O62 O 0.00087 0.2736 0.95117 0.0
C63 C 0.0659 0.28352 0.9226 0.0
C64 C 0.035 0.32042 0.89037 0.0
C65 C 0.0115 0.30027 0.94943 0.0
O66 O 0.05877 0.30068 0.91654 0.0
O67 O 0.04883 0.26141 0.93039 0.0
O68 O 0.9821 0.29121 0.91223 0.0
O69 O 0.99653 0.2615 0.91873 0.0
Co70 Co 0.75482 0.74457 0.9132 0.0
O71 O 0.75743 0.75008 0.89113 0.0
O72 O 0.71696 0.72777 0.90416 0.0
C73 C 0.78662 0.72976 0.91478 0.0
O74 O 0.74554 0.73528 0.93639 0.0
Co75 Co 0.81022 0.78367 0.9319 0.0
O76 O 0.78756 0.75776 0.94898 0.0
C77 C 0.77713 0.80743 0.91824 0.0
C78 C 0.73002 0.7368 0.89088 0.0
C79 C 0.76083 0.74061 0.94881 0.0
O80 O 0.75633 0.78218 0.91586 0.0
O81 O 0.80158 0.81259 0.92296 0.0
O82 O 0.76056 0.71184 0.91103 0.0
O83 O 0.79295 0.75591 0.91566 0.0
Co84 Co 0.01875 0.75154 0.91189 0.0
O85 O 0.02154 0.75594 0.88977 0.0
O86 O 0.03808 0.73256 0.90314 0.0
C87 C 0.97271 0.73944 0.91298 0.0
O88 O 0.01849 0.74314 0.93525 0.0
Co89 Co 0.00465 0.79255 0.93012 0.0
O90 O -0.00186 0.76542 0.94719 0.0
C91 C 0.06134 0.81384 0.91645 0.0
C92 C 0.03452 0.74154 0.88972 0.0
C93 C 0.00781 0.74833 0.94741 0.0
O94 O 0.05586 0.78824 0.91408 0.0
O95 O 0.04283 0.82007 0.92125 0.0
O96 O 0.97951 0.72013 0.9102 0.0
O97 O 0.99361 0.76508 0.91368 0.0
Co98 Co 0.30693 0.29696 0.91118 0.0
O99 O 0.30779 0.29634 0.88899 0.0
O100 O 0.32656 0.33568 0.9031 0.0
C101 C 0.31972 0.26385 0.91396 0.0
O102 O 0.31043 0.30419 0.93472 0.0
Co103 Co 0.26323 0.24093 0.92751 0.0
O104 O 0.28528 0.26142 0.94621 0.0
C105 C 0.24374 0.27645 0.91225 0.0
C106 C 0.32163 0.32371 0.88943 0.0
C107 C 0.30226 0.28816 0.94692 0.0
O108 O 0.26961 0.2965 0.91066 0.0
O109 O 0.23684 0.25164 0.91722 0.0
O110 O 0.33911 0.29026 0.91215 0.0
O111 O 0.29388 0.25835 0.9128 0.0
Co112 Co 0.76237 0.03557 0.91495 0.0
O113 O 0.76449 0.03246 0.89285 0.0
O114 O 0.72442 0.01752 0.90591 0.0
C115 C 0.79721 0.08109 0.91596 0.0
O116 O 0.7532 0.03632 0.93814 0.0
Co117 Co 0.81519 0.04858 0.93479 0.0
O118 O 0.7952 0.05861 0.95053 0.0
C119 C 0.77768 0.99038 0.92316 0.0
C120 C 0.73717 0.02068 0.8926 0.0
C121 C 0.7684 0.04834 0.95035 0.0
O122 O 0.76041 0.99772 0.91747 0.0
O123 O 0.80109 0.00769 0.92983 0.0
O124 O 0.77139 0.07501 0.91299 0.0
O125 O 0.80139 0.05983 0.9171 0.0
Co126 Co 0.75281 0.02197 0.09522 0.0
O127 O 0.75674 0.02534 0.11737 0.0
O128 O 0.73315 0.04096 0.10338 0.0
C129 C 0.74143 0.97616 0.0946 0.0
O130 O 0.7445 0.02117 0.07179 0.0
Co131 Co 0.79362 0.00815 0.07691 0.0
O132 O 0.76553 -0.00058 0.06017 0.0
C133 C 0.81427 0.06635 0.08843 0.0
C134 C 0.74198 0.03797 0.11697 0.0
C135 C 0.74895 0.00963 0.05976 0.0
O136 O 0.78917 0.05943 0.09309 0.0
O137 O 0.82066 0.04871 0.08244 0.0
O138 O 0.72182 0.98269 0.09698 0.0
O139 O 0.76706 0.99716 0.09388 0.0
Co140 Co 0.04064 0.76802 0.09305 0.0
O141 O 0.04111 0.76985 0.11529 0.0
O142 O 0.02139 0.72977 0.10191 0.0
C143 C 0.08676 0.80113 0.09071 0.0
O144 O 0.03795 0.75937 0.06954 0.0
Co145 Co 0.05416 0.82262 0.07474 0.0
O146 O 0.06006 0.80186 0.05763 0.0
C147 C 0.99672 0.78641 0.0876 0.0
C148 C 0.02783 0.74247 0.1154 0.0
C149 C 0.04876 0.77493 0.05728 0.0
O150 O 0.00368 0.76836 0.09252 0.0
O151 O 0.01409 0.80981 0.08095 0.0
O152 O 0.07955 0.7748 0.09307 0.0
O153 O 0.06635 0.80669 0.09093 0.0
Co154 Co 0.29704 0.30675 0.09055 0.0
O155 O 0.28981 0.2985 0.11233 0.0
O156 O 0.33263 0.32311 0.10201 0.0
C157 C 0.26478 0.32071 0.0874 0.0
O158 O 0.31173 0.31963 0.06827 0.0
Co159 Co 0.24867 0.27218 0.06686 0.0
O160 O 0.27277 0.30515 0.05348 0.0
C161 C 0.28081 0.24675 0.0803 0.0
C162 C 0.31699 0.31258 0.11439 0.0
C163 C 0.29949 0.32 0.05545 0.0
O164 O 0.29724 0.27005 0.0875 0.0
O165 O 0.25963 0.24296 0.07202 0.0
O166 O 0.28988 0.33839 0.09269 0.0
O167 O 0.25931 0.2949 0.08552 0.0
Co168 Co 0.70452 0.63999 0.42799 0.0
O169 O 0.70224 0.63852 0.45017 0.0
O170 O 0.68467 0.65935 0.43531 0.0
C171 C 0.75059 0.65259 0.42691 0.0
O172 O 0.70394 0.64524 0.40438 0.0
Co173 Co 0.71859 0.59703 0.41209 0.0
O174 O 0.72108 0.61929 0.3933 0.0
C175 C 0.66239 0.57703 0.42591 0.0
C176 C 0.68854 0.65218 0.44919 0.0
C177 C 0.71203 0.63684 0.39236 0.0
O178 O 0.66766 0.6028 0.42697 0.0
O179 O 0.681 0.57042 0.42188 0.0
O180 O 0.74357 0.672 0.42867 0.0
O181 O 0.73004 0.62677 0.42727 0.0
Co182 Co 0.40999 0.09008 0.42565 0.0
O183 O 0.41789 0.09837 0.44736 0.0
O184 O 0.39341 0.05503 0.43759 0.0
C185 C 0.39644 0.12237 0.4215 0.0
O186 O 0.39756 0.07435 0.40349 0.0
Co187 Co 0.44546 0.13743 0.40154 0.0
O188 O 0.41311 0.11261 0.38796 0.0
C189 C 0.47067 0.10675 0.41697 0.0
C190 C 0.40395 0.07127 0.44977 0.0
C191 C 0.39784 0.08603 0.39035 0.0
O192 O 0.4467 0.08975 0.42338 0.0
O193 O 0.47489 0.12789 0.4085 0.0
O194 O 0.37846 0.09756 0.42705 0.0
O195 O 0.42218 0.12754 0.41996 0.0
Co196 Co 0.96436 0.35323 0.42639 0.0
O197 O 0.95995 0.35272 0.4485 0.0
O198 O 0.00144 0.37283 0.43645 0.0
C199 C 0.93273 0.30709 0.42257 0.0
O200 O 0.97536 0.3567 0.40331 0.0
Co201 Co 0.91005 0.33996 0.40725 0.0
O202 O 0.93455 0.34125 0.38986 0.0
C203 C 0.94275 0.39485 0.42298 0.0
C204 C 0.98731 0.36678 0.44948 0.0
C205 C 0.9612 0.35039 0.39043 0.0
O206 O 0.96313 0.38972 0.42529 0.0
O207 O 0.9185 0.37641 0.41759 0.0
O208 O 0.95843 0.31452 0.42679 0.0
O209 O 0.92656 0.32704 0.42267 0.0
Co210 Co 0.97884 0.37317 0.2489 0.0
O211 O 0.97046 0.37544 0.22743 0.0
O212 O 0.99315 0.35379 0.23589 0.0
C213 C 0.99467 0.41932 0.25387 0.0
O214 O 0.9921 0.36801 0.27045 0.0
Co215 Co 0.94738 0.38636 0.27485 0.0
O216 O 0.98106 0.39305 0.28699 0.0
C217 C 0.91867 0.33042 0.25927 0.0
C218 C 0.98341 0.36157 0.22417 0.0
C219 C 0.99452 0.38016 0.28371 0.0
O220 O 0.94124 0.33698 0.25139 0.0
O221 O 0.91652 0.34747 0.26871 0.0
O222 O 0.0115 0.4116 0.24763 0.0
O223 O 0.96871 0.39947 0.25577 0.0
Co224 Co 0.68637 0.63179 0.24803 0.0
O225 O 0.68631 0.62474 0.22615 0.0
O226 O 0.70558 0.66751 0.23669 0.0
C227 C 0.64021 0.59989 0.25167 0.0
O228 O 0.6895 0.64637 0.27045 0.0
Co229 Co 0.67299 0.58297 0.27135 0.0
O230 O 0.66576 0.60746 0.2854 0.0
C231 C 0.72941 0.61365 0.25648 0.0
C232 C 0.69983 0.65198 0.22421 0.0
C233 C 0.67771 0.6342 0.28343 0.0
O234 O 0.72298 0.63118 0.25022 0.0
O235 O 0.71204 0.59229 0.26466 0.0
O236 O 0.64766 0.62515 0.24661 0.0
O237 O 0.66042 0.59414 0.25307 0.0
Co238 Co 0.42573 0.0822 0.24714 0.0
O239 O 0.42588 0.08321 0.22485 0.0
O240 O 0.38698 0.06428 0.23937 0.0
C241 C 0.45787 0.06795 0.24884 0.0
O242 O 0.4182 0.0767 0.27067 0.0
Co243 Co 0.4815 0.12212 0.26482 0.0
O244 O 0.46063 0.09769 0.28267 0.0
C245 C 0.44678 0.14516 0.25208 0.0
C246 C 0.39851 0.07029 0.22559 0.0
C247 C 0.43369 0.08224 0.283 0.0
O248 O 0.42755 0.12018 0.24779 0.0
O249 O 0.47032 0.1505 0.25829 0.0
O250 O 0.43128 0.04927 0.24681 0.0
O251 O 0.46426 0.09415 0.24859 0.0
Co252 Co 0.68852 0.08992 0.24813 0.0
O253 O 0.68878 0.09586 0.22614 0.0
O254 O 0.70802 0.07296 0.23743 0.0
C255 C 0.64221 0.07553 0.25151 0.0
O256 O 0.69117 0.07981 0.27087 0.0
Co257 Co 0.67461 0.12751 0.26968 0.0
O258 O 0.66938 0.0982 0.28515 0.0
C259 C 0.73032 0.15223 0.25425 0.0
C260 C 0.70238 0.08214 0.22467 0.0
C261 C 0.68036 0.08238 0.28373 0.0
O262 O 0.72507 0.12727 0.25023 0.0
O263 O 0.71197 0.15705 0.26077 0.0
O264 O 0.64982 0.05757 0.24691 0.0
O265 O 0.66236 0.10157 0.25239 0.0
Co266 Co 0.97028 0.62614 0.24382 0.0
O267 O 0.9709 0.62518 0.22158 0.0
O268 O 0.98893 0.66471 0.23543 0.0
C269 C 0.98429 0.5939 0.24691 0.0
O270 O 0.97391 0.63379 0.26737 0.0
Co271 Co 0.9276 0.5699 0.26044 0.0
O272 O 0.94975 0.59103 0.27899 0.0
C273 C 0.90671 0.60438 0.24534 0.0
C274 C 0.9841 0.65257 0.22181 0.0
C275 C 0.96622 0.61787 0.27963 0.0
O276 O 0.93241 0.62464 0.2434 0.0
O277 O 0.90038 0.57981 0.25046 0.0
O278 O 0.00312 0.62042 0.24481 0.0
O279 O 0.95824 0.58774 0.24574 0.0
Co280 Co 0.42833 0.37067 0.24315 0.0
O281 O 0.42702 0.36824 0.22094 0.0
O282 O 0.38899 0.35073 0.23607 0.0
C283 C 0.46168 0.41685 0.2441 0.0
O284 O 0.42299 0.3703 0.26681 0.0
Co285 Co 0.4856 0.38515 0.25883 0.0
O286 O 0.46655 0.38939 0.27748 0.0
C287 C 0.44945 0.32874 0.24515 0.0
C288 C 0.3997 0.35461 0.22211 0.0
C289 C 0.43989 0.37983 0.27864 0.0
O290 O 0.42886 0.33388 0.24412 0.0
O291 O 0.47464 0.34745 0.24916 0.0
O292 O 0.4352 0.40968 0.24247 0.0
O293 O 0.46705 0.39634 0.24368 0.0
Co294 Co 0.41697 0.35376 0.42499 0.0
O295 O 0.4199 0.3568 0.4472 0.0
O296 O 0.39775 0.37345 0.43273 0.0
C297 C 0.40468 0.30774 0.42433 0.0
O298 O 0.40983 0.35352 0.40144 0.0
Co299 Co 0.45741 0.33874 0.40712 0.0
O300 O 0.42958 0.33015 0.39024 0.0
C301 C 0.47888 0.3971 0.41868 0.0
C302 C 0.4057 0.36999 0.44647 0.0
C303 C 0.41385 0.34132 0.38958 0.0
O304 O 0.45388 0.39072 0.42326 0.0
O305 O 0.48485 0.37918 0.41267 0.0
O306 O 0.38533 0.31474 0.42642 0.0
O307 O 0.43051 0.32838 0.42388 0.0
Co308 Co 0.70136 0.10016 0.43004 0.0
O309 O 0.70409 0.10136 0.45222 0.0
O310 O 0.6826 0.06164 0.43856 0.0
C311 C 0.74719 0.13298 0.42635 0.0
O312 O 0.69632 0.09256 0.40651 0.0
Co313 Co 0.71297 0.15637 0.414 0.0
O314 O 0.71238 0.13527 0.39508 0.0
C315 C 0.65841 0.12061 0.42958 0.0
C316 C 0.69046 0.07398 0.45211 0.0
C317 C 0.70285 0.10857 0.39431 0.0
O318 O 0.6646 0.10079 0.43117 0.0
O319 O 0.67601 0.14543 0.4245 0.0
O320 O 0.74008 0.10658 0.42836 0.0
O321 O 0.72705 0.13867 0.428 0.0
Co322 Co 0.96551 0.64101 0.42431 0.0
O323 O 0.95975 0.63404 0.44627 0.0
O324 O 0.00188 0.65837 0.43514 0.0
C325 C 0.93265 0.65424 0.42141 0.0
O326 O 0.97853 0.65242 0.4016 0.0
Co327 Co 0.91534 0.60429 0.40189 0.0
O328 O 0.93841 0.63598 0.38754 0.0
C329 C 0.9485 0.58019 0.41556 0.0
C330 C 0.98703 0.64831 0.44783 0.0
C331 C 0.96523 0.65134 0.38891 0.0
O332 O 0.96582 0.60427 0.42179 0.0
O333 O 0.92647 0.57555 0.40784 0.0
O334 O 0.95801 0.67251 0.42612 0.0
O335 O 0.92745 0.62846 0.41998 0.0
Co336 Co 0.37066 0.97609 0.75988 0.0
O337 O 0.36924 0.97003 0.78189 0.0
O338 O 0.35006 0.99249 0.77002 0.0
C339 C 0.41722 0.99123 0.75728 0.0
O340 O 0.36914 0.9859 0.73691 0.0
Co341 Co 0.38622 0.93796 0.73969 0.0
O342 O 0.39003 0.96558 0.72348 0.0
C343 C 0.32985 0.91342 0.75413 0.0
C344 C 0.35511 0.98325 0.78296 0.0
C345 C 0.37953 0.98193 0.72425 0.0
O346 O 0.33454 0.93848 0.75741 0.0
O347 O 0.34878 0.90851 0.74852 0.0
O348 O 0.40909 0.00889 0.76166 0.0
O349 O 0.39746 0.96506 0.75634 0.0
Co350 Co 0.07804 0.42378 0.75927 0.0
O351 O 0.08283 0.42622 0.7814 0.0
O352 O 0.06178 0.38587 0.76819 0.0
C353 C 0.06237 0.4548 0.75767 0.0
O354 O 0.06947 0.41431 0.736 0.0
Co355 Co 0.11514 0.47864 0.73996 0.0
O356 O 0.08756 0.45625 0.72351 0.0
C357 C 0.14078 0.44632 0.75277 0.0
C358 C 0.07016 0.39882 0.78154 0.0
C359 C 0.0725 0.42925 0.72369 0.0
O360 O 0.11617 0.42639 0.75708 0.0
O361 O 0.14504 0.46962 0.74669 0.0
O362 O 0.04471 0.42847 0.76105 0.0
O363 O 0.08873 0.46187 0.75691 0.0
Co364 Co 0.62763 0.68769 0.75916 0.0
O365 O 0.62254 0.6874 0.78123 0.0
O366 O 0.66438 0.70724 0.76954 0.0
C367 C 0.59605 0.64152 0.75543 0.0
O368 O 0.63967 0.69108 0.73619 0.0
Co369 Co 0.57447 0.67374 0.73871 0.0
O370 O 0.5992 0.67286 0.7222 0.0
C371 C 0.60827 0.73063 0.75256 0.0
C372 C 0.64988 0.70133 0.78244 0.0
C373 C 0.62599 0.68332 0.72315 0.0
O374 O 0.62657 0.72422 0.75772 0.0
O375 O 0.58537 0.71303 0.74557 0.0
O376 O 0.62164 0.64903 0.75989 0.0
O377 O 0.58982 0.66145 0.75511 0.0
Co378 Co 0.64517 0.70454 0.58196 0.0
O379 O 0.63557 0.70392 0.56042 0.0
O380 O 0.66055 0.68526 0.56977 0.0
C381 C 0.65966 0.75073 0.5857 0.0
O382 O 0.65942 0.70222 0.60372 0.0
Co383 Co 0.61212 0.71852 0.60674 0.0
O384 O 0.64486 0.72509 0.61983 0.0
C385 C 0.58438 0.66261 0.5912 0.0
C386 C 0.64941 0.69072 0.55778 0.0
C387 C 0.66005 0.71385 0.61691 0.0
O388 O 0.60835 0.66786 0.58539 0.0
O389 O 0.58112 0.68095 0.59891 0.0
O390 O 0.67692 0.74338 0.57967 0.0
O391 O 0.63401 0.73044 0.58785 0.0
Co392 Co 0.35047 0.96304 0.57901 0.0
O393 O 0.35312 0.96422 0.55682 0.0
O394 O 0.37074 0.00235 0.5719 0.0
C395 C 0.30419 0.92996 0.57967 0.0
O396 O 0.35064 0.9686 0.60265 0.0
Co397 Co 0.33518 0.9058 0.59494 0.0
O398 O 0.33153 0.92524 0.61357 0.0
C399 C 0.39151 0.94097 0.58093 0.0
C400 C 0.36688 0.99155 0.55796 0.0
C401 C 0.34122 0.95193 0.61458 0.0
O402 O 0.387 0.962 0.58008 0.0
O403 O 0.37243 0.91595 0.58498 0.0
O404 O 0.31162 0.95653 0.5781 0.0
O405 O 0.32455 0.92437 0.5795 0.0
Co406 Co 0.09966 0.42495 0.57864 0.0
O407 O 0.10048 0.42764 0.55644 0.0
O408 O 0.06116 0.40408 0.57033 0.0
C409 C 0.13481 0.41463 0.58032 0.0
O410 O 0.09221 0.41804 0.6021 0.0
Co411 Co 0.15441 0.46901 0.59598 0.0
O412 O 0.13446 0.44414 0.61397 0.0
C413 C 0.11676 0.48701 0.58184 0.0
C414 C 0.07315 0.41237 0.55673 0.0
C415 C 0.10806 0.42573 0.61439 0.0
O416 O 0.0975 0.46088 0.57996 0.0
O417 O 0.14194 0.49471 0.5865 0.0
O418 O 0.10895 0.39448 0.57781 0.0
O419 O 0.13865 0.43999 0.58028 0.0
Co420 Co 0.35791 0.41804 0.57976 0.0
O421 O 0.35866 0.42724 0.55812 0.0
O422 O 0.376 0.40125 0.5676 0.0
C423 C 0.31216 0.40543 0.58335 0.0
O424 O 0.35984 0.40385 0.6017 0.0
Co425 Co 0.34577 0.4521 0.60466 0.0
O426 O 0.33656 0.41839 0.61746 0.0
C427 C 0.40295 0.47685 0.59077 0.0
C428 C 0.37091 0.41248 0.5555 0.0
C429 C 0.34775 0.40312 0.61477 0.0
O430 O 0.39543 0.45401 0.58294 0.0
O431 O 0.38618 0.48064 0.59959 0.0
O432 O 0.31867 0.38737 0.57758 0.0
O433 O 0.33304 0.43081 0.58554 0.0
Co434 Co 0.6353 0.95822 0.58055 0.0
O435 O 0.63569 0.95729 0.55831 0.0
O436 O 0.65393 0.99681 0.57217 0.0
C437 C 0.64932 0.92592 0.58317 0.0
O438 O 0.63916 0.96592 0.60417 0.0
Co439 Co 0.5938 0.90228 0.59774 0.0
O440 O 0.61785 0.92304 0.61572 0.0
C441 C 0.57233 0.93812 0.58461 0.0
C442 C 0.64896 0.98467 0.55855 0.0
C443 C 0.63295 0.95 0.6164 0.0
O444 O 0.59747 0.95676 0.58022 0.0
O445 O 0.56635 0.9146 0.5911 0.0
O446 O 0.66811 0.95251 0.58129 0.0
O447 O 0.62321 0.91971 0.58232 0.0
Co448 Co 0.08618 0.70545 0.58046 0.0
O449 O 0.09072 0.70254 0.55851 0.0
O450 O 0.04924 0.68613 0.57026 0.0
C451 C 0.11961 0.75155 0.58241 0.0
O452 O 0.07446 0.70568 0.60328 0.0
Co453 Co 0.13786 0.71972 0.60198 0.0
O454 O 0.11528 0.72799 0.61686 0.0
C455 C 0.10335 0.66183 0.5894 0.0
C456 C 0.06338 0.68972 0.55741 0.0
C457 C 0.0885 0.71751 0.61586 0.0
O458 O 0.08549 0.6683 0.58361 0.0
O459 O 0.12621 0.67966 0.59634 0.0
O460 O 0.09417 0.74458 0.57792 0.0
O461 O 0.12449 0.73083 0.58407 0.0
Co462 Co 0.08529 0.68729 0.75843 0.0
O463 O 0.09218 0.6897 0.7804 0.0
O464 O 0.0668 0.70578 0.76868 0.0
C465 C 0.07353 0.6414 0.75646 0.0
O466 O 0.07371 0.68727 0.73558 0.0
Co467 Co 0.12341 0.67402 0.73706 0.0
O468 O 0.09263 0.66533 0.72206 0.0
C469 C 0.14566 0.73193 0.74947 0.0
C470 C 0.07716 0.70198 0.78155 0.0
C471 C 0.07622 0.67571 0.72296 0.0
O472 O 0.12142 0.72485 0.75559 0.0
O473 O 0.15105 0.71453 0.74231 0.0
O474 O 0.05456 0.64798 0.76054 0.0
O475 O 0.099 0.66246 0.75501 0.0
Co476 Co 0.36778 0.42939 0.75884 0.0
O477 O 0.37092 0.43276 0.78093 0.0
O478 O 0.35093 0.39177 0.76838 0.0
C479 C 0.41295 0.46351 0.75467 0.0
O480 O 0.3627 0.41959 0.73557 0.0
Co481 Co 0.37622 0.48299 0.74111 0.0
O482 O 0.37642 0.46076 0.72288 0.0
C483 C 0.32354 0.44772 0.75829 0.0
C484 C 0.3586 0.40545 0.78158 0.0
C485 C 0.36831 0.43431 0.72292 0.0
O486 O 0.3301 0.42815 0.75967 0.0
O487 O 0.34042 0.47243 0.75285 0.0
O488 O 0.40715 0.43766 0.75736 0.0
O489 O 0.39193 0.46799 0.75585 0.0
Co490 Co 0.63036 0.97621 0.76188 0.0
O491 O 0.62674 0.9711 0.78393 0.0
O492 O 0.66782 0.99426 0.77162 0.0
C493 C 0.59704 0.98897 0.75994 0.0
O494 O 0.64076 0.98536 0.73878 0.0
Co495 Co 0.57713 0.93717 0.74191 0.0
O496 O 0.59934 0.96561 0.72565 0.0
C497 C 0.60983 0.91394 0.75697 0.0
C498 C 0.65409 0.98503 0.78472 0.0
C499 C 0.62619 0.98182 0.72626 0.0
O500 O 0.63018 0.9392 0.75986 0.0
O501 O 0.58588 0.9086 0.75132 0.0
O502 O 0.62301 0.008 0.76323 0.0
O503 O 0.59198 0.96324 0.75908 0.0
C504 C 0.13353 0.35012 0.08174 0.0
C505 C 0.11352 0.32805 0.09104 0.0
C506 C 0.1607 0.35356 0.07952 0.0
C507 C 0.16796 0.33499 0.0872 0.0
C508 C 0.14802 0.31344 0.09709 0.0
C509 C 0.12092 0.30997 0.09867 0.0
C510 C 0.18116 0.37621 0.06856 0.0
C511 C 0.15508 0.29363 0.10582 0.0
C512 C 0.22095 0.3138 0.07444 0.0
C513 C 0.24289 0.32868 0.08512 0.0
C514 C 0.1976 0.31804 0.07383 0.0
C515 C 0.19576 0.33678 0.08458 0.0
C516 C 0.21878 0.35322 0.0947 0.0
C517 C 0.24235 0.34924 0.09468 0.0
C518 C 0.17391 0.30079 0.06252 0.0
C519 C 0.2174 0.37295 0.10656 0.0
H520 H 0.12758 0.36392 0.07576 0.0
H521 H 0.10543 0.29307 0.10598 0.0
H522 H 0.20202 0.38939 0.07427 0.0
H523 H 0.18478 0.36606 0.0583 0.0
H524 H 0.17313 0.39028 0.06446 0.0
H525 H 0.13796 0.27959 0.114 0.0
H526 H 0.15849 0.28008 0.09746 0.0
H527 H 0.17501 0.30598 0.11252 0.0
H528 H 0.22157 0.29817 0.06689 0.0
H529 H 0.25937 0.36073 0.10295 0.0
H530 H 0.16596 0.31403 0.05714 0.0
H531 H 0.15595 0.28317 0.06881 0.0
H532 H 0.18082 0.29152 0.05314 0.0
H533 H 0.20905 0.38591 0.10129 0.0
H534 H 0.23851 0.38739 0.11177 0.0
H535 H 0.20267 0.3602 0.11604 0.0
C536 C 0.71165 0.92597 0.08576 0.0
C537 C 0.73544 0.94674 0.09372 0.0
C538 C 0.70705 0.89823 0.08428 0.0
C539 C 0.72617 0.89118 0.09144 0.0
C540 C 0.74959 0.91199 0.1 0.0
C541 C 0.75423 0.93966 0.10076 0.0
C542 C 0.68247 0.87687 0.07461 0.0
C543 C 0.77007 0.90518 0.10817 0.0
C544 C 0.70966 0.81626 0.10027 0.0
C545 C 0.72806 0.81369 0.0899 0.0
C546 C 0.70733 0.84084 0.10034 0.0
C547 C 0.72306 0.86266 0.08942 0.0
C548 C 0.73954 0.85878 0.078 0.0
C549 C 0.74236 0.83459 0.07861 0.0
C550 C 0.69015 0.84449 0.11297 0.0
C551 C 0.75585 0.88106 0.06581 0.0
H552 H 0.69729 0.93168 0.08023 0.0
H553 H 0.77247 0.95579 0.10704 0.0
H554 H 0.69069 0.87107 0.06426 0.0
H555 H 0.66948 0.85712 0.08133 0.0
H556 H 0.66861 0.88519 0.0706 0.0
H557 H 0.78553 0.92304 0.11552 0.0
H558 H 0.75832 0.88614 0.11563 0.0
H559 H 0.78206 0.9003 0.09946 0.0
H560 H 0.69877 0.80008 0.10906 0.0
H561 H 0.75644 0.83244 0.07052 0.0
H562 H 0.67701 0.85301 0.10814 0.0
H563 H 0.70477 0.86006 0.12164 0.0
H564 H 0.67606 0.82422 0.11907 0.0
H565 H 0.74256 0.8893 0.06081 0.0
H566 H 0.76325 0.87266 0.05622 0.0
H567 H 0.77469 0.8992 0.07122 0.0
C568 C 0.13686 0.81921 0.08218 0.0
C569 C 0.11641 0.82391 0.08928 0.0
C570 C 0.165 0.84149 0.08057 0.0
C571 C 0.17274 0.86859 0.08668 0.0
C572 C 0.15218 0.87303 0.09426 0.0
C573 C 0.12417 0.85076 0.09521 0.0
C574 C 0.18617 0.83631 0.07197 0.0
C575 C 0.15965 0.90141 0.1013 0.0
C576 C 0.24694 0.92622 0.09691 0.0
C577 C 0.25076 0.9469 0.08599 0.0
C578 C 0.2224 0.89934 0.09661 0.0
C579 C 0.2019 0.893 0.08481 0.0
C580 C 0.20739 0.91286 0.07278 0.0
C581 C 0.2315 0.93987 0.07372 0.0
C582 C 0.21709 0.87903 0.10984 0.0
C583 C 0.18658 0.90657 0.05969 0.0
H584 H 0.13067 0.79838 0.07753 0.0
H585 H 0.10835 0.85424 0.10086 0.0
H586 H 0.19317 0.84947 0.06127 0.0
H587 H 0.20531 0.84281 0.07922 0.0
H588 H 0.17716 0.81368 0.06864 0.0
H589 H 0.14166 0.9006 0.10785 0.0
H590 H 0.17798 0.90864 0.10931 0.0
H591 H 0.16593 0.91756 0.09198 0.0
H592 H 0.26187 0.93182 0.10644 0.0
H593 H 0.23464 0.95585 0.06519 0.0
H594 H 0.20805 0.85698 0.10552 0.0
H595 H 0.2014 0.8794 0.11794 0.0
H596 H 0.23679 0.88485 0.11646 0.0
H597 H 0.17803 0.88455 0.0554 0.0
H598 H 0.19647 0.92149 0.0498 0.0
H599 H 0.16845 0.90859 0.06399 0.0
C600 C 0.31183 0.11931 0.92951 0.0
C601 C 0.32842 0.11319 0.91956 0.0
C602 C 0.31599 0.1468 0.93047 0.0
C603 C 0.3365 0.16832 0.9208 0.0
C604 C 0.35465 0.1627 0.91154 0.0
C605 C 0.35062 0.13512 0.91119 0.0
C606 C 0.29677 0.15215 0.94087 0.0
C607 C 0.37645 0.18496 0.90088 0.0
C608 C 0.31038 0.21648 0.90617 0.0
C609 C 0.32624 0.24088 0.9151 0.0
C610 C 0.3148 0.19339 0.90735 0.0
C611 C 0.33489 0.19439 0.91817 0.0
C612 C 0.35139 0.21927 0.92707 0.0
C613 C 0.34715 0.24257 0.92523 0.0
C614 C 0.29726 0.16756 0.89733 0.0
C615 C 0.3724 0.22074 0.93901 0.0
H616 H 0.29492 0.10241 0.93616 0.0
H617 H 0.36347 0.13032 0.90352 0.0
H618 H 0.30897 0.17274 0.94701 0.0
H619 H 0.28039 0.15322 0.93369 0.0
H620 H 0.28584 0.13505 0.94964 0.0
H621 H 0.392 0.17894 0.89663 0.0
H622 H 0.36553 0.18763 0.89067 0.0
H623 H 0.38807 0.20579 0.90683 0.0
H624 H 0.29444 0.21548 0.8982 0.0
H625 H 0.35924 0.26156 0.93216 0.0
H626 H 0.28232 0.14955 0.90474 0.0
H627 H 0.31115 0.16106 0.89132 0.0
H628 H 0.28476 0.17141 0.88843 0.0
H629 H 0.36075 0.20657 0.94891 0.0
H630 H 0.38593 0.24261 0.94356 0.0
H631 H 0.38623 0.21317 0.93402 0.0
C632 C 0.92503 0.24021 0.90923 0.0
C633 C 0.94623 0.24348 0.91964 0.0
C634 C 0.89825 0.21556 0.90949 0.0
C635 C 0.89249 0.1944 0.92079 0.0
C636 C 0.91306 0.19902 0.93224 0.0
C637 C 0.93997 0.22325 0.9313 0.0
C638 C 0.87721 0.21109 0.89682 0.0
C639 C 0.90737 0.17745 0.94482 0.0
C640 C 0.81782 0.13133 0.92468 0.0
C641 C 0.82084 0.11033 0.91697 0.0
C642 C 0.84101 0.159 0.92611 0.0
C643 C 0.86723 0.16574 0.91914 0.0
C644 C 0.8699 0.14465 0.9109 0.0
C645 C 0.8468 0.11704 0.9102 0.0
C646 C 0.83776 0.18069 0.93546 0.0
C647 C 0.89724 0.15115 0.9029 0.0
H648 H 0.93005 0.25587 0.90016 0.0
H649 H 0.95636 0.22595 0.93942 0.0
H650 H 0.87621 0.19503 0.88848 0.0
H651 H 0.85563 0.2028 0.90169 0.0
H652 H 0.88322 0.23096 0.89033 0.0
H653 H 0.92324 0.18649 0.95436 0.0
H654 H 0.88587 0.1693 0.94981 0.0
H655 H 0.90826 0.15914 0.93978 0.0
H656 H 0.79765 0.12586 0.92999 0.0
H657 H 0.84889 0.10071 0.90412 0.0
H658 H 0.84409 0.20002 0.92842 0.0
H659 H 0.85209 0.1872 0.9457 0.0
H660 H 0.81567 0.17237 0.93961 0.0
H661 H 0.90447 0.16981 0.89514 0.0
H662 H 0.89496 0.13297 0.89589 0.0
H663 H 0.91409 0.15653 0.9117 0.0
C664 C 0.82455 0.72836 0.92999 0.0
C665 C 0.80841 0.72166 0.91638 0.0
C666 C 0.84879 0.72563 0.93068 0.0
C667 C 0.85761 0.71724 0.91718 0.0
C668 C 0.84032 0.70881 0.90369 0.0
C669 C 0.81556 0.71075 0.90355 0.0
C670 C 0.8661 0.73387 0.94545 0.0
C671 C 0.84934 0.70046 0.88894 0.0
C672 C 0.93703 0.75485 0.91145 0.0
C673 C 0.94319 0.73319 0.91437 0.0
C674 C 0.90918 0.74967 0.91213 0.0
C675 C 0.887 0.72231 0.91628 0.0
C676 C 0.89312 0.7004 0.91953 0.0
C677 C 0.92124 0.70602 0.91831 0.0
C678 C 0.90353 0.77353 0.90829 0.0
C679 C 0.87008 0.67125 0.92443 0.0
H680 H 0.81877 0.73662 0.93993 0.0
H681 H 0.80303 0.70582 0.89301 0.0
H682 H 0.8738 0.71886 0.94796 0.0
H683 H 0.88497 0.75529 0.94404 0.0
H684 H 0.85372 0.73439 0.95559 0.0
H685 H 0.83186 0.6908 0.88028 0.0
H686 H 0.86735 0.71962 0.88365 0.0
H687 H 0.85678 0.68526 0.89144 0.0
H688 H 0.95399 0.77584 0.90829 0.0
H689 H 0.9261 0.68933 0.92066 0.0
H690 H 0.89476 0.7787 0.91862 0.0
H691 H 0.88752 0.76688 0.89887 0.0
H692 H 0.923 0.79312 0.90454 0.0
H693 H 0.85937 0.6729 0.93504 0.0
H694 H 0.87846 0.65674 0.92686 0.0
H695 H 0.85372 0.66171 0.9152 0.0
C696 C 0.79925 0.68012 0.41559 0.0
C697 C 0.78005 0.65896 0.42562 0.0
C698 C 0.82658 0.68402 0.41338 0.0
C699 C 0.83485 0.66694 0.42181 0.0
C700 C 0.81578 0.6465 0.43251 0.0
C701 C 0.78843 0.64243 0.43405 0.0
C702 C 0.84604 0.70537 0.40155 0.0
C703 C 0.82396 0.62835 0.44205 0.0
C704 C 0.88748 0.64515 0.40925 0.0
C705 C 0.91031 0.6616 0.41915 0.0
C706 C 0.86377 0.64879 0.40883 0.0
C707 C 0.86256 0.66868 0.41895 0.0
C708 C 0.8864 0.68667 0.42821 0.0
C709 C 0.91025 0.68313 0.42805 0.0
C710 C 0.83913 0.62978 0.39843 0.0
C711 C 0.88577 0.70779 0.43935 0.0
H712 H 0.79246 0.69266 0.409 0.0
H713 H 0.77348 0.62621 0.44189 0.0
H714 H 0.86737 0.71922 0.4066 0.0
H715 H 0.84876 0.69402 0.39156 0.0
H716 H 0.83758 0.71888 0.39713 0.0
H717 H 0.80762 0.61544 0.45086 0.0
H718 H 0.82695 0.61375 0.43429 0.0
H719 H 0.84438 0.64187 0.44812 0.0
H720 H 0.8877 0.62874 0.4022 0.0
H721 H 0.92796 0.69585 0.43571 0.0
H722 H 0.8305 0.64206 0.3926 0.0
H723 H 0.82186 0.61307 0.40555 0.0
H724 H 0.84529 0.61926 0.3894 0.0
H725 H 0.87663 0.71976 0.43371 0.0
H726 H 0.90726 0.72312 0.4438 0.0
H727 H 0.87202 0.69625 0.4494 0.0
C728 C 0.37418 0.25785 0.41513 0.0
C729 C 0.39819 0.27819 0.42313 0.0
C730 C 0.3692 0.23003 0.41331 0.0
C731 C 0.38819 0.22248 0.42014 0.0
C732 C 0.41192 0.24288 0.42868 0.0
C733 C 0.41688 0.27062 0.42981 0.0
C734 C 0.34429 0.20908 0.40369 0.0
C735 C 0.43231 0.23554 0.43651 0.0
C736 C 0.37103 0.14765 0.42935 0.0
C737 C 0.38917 0.14466 0.41897 0.0
C738 C 0.36877 0.17224 0.4292 0.0
C739 C 0.38435 0.19369 0.41808 0.0
C740 C 0.40036 0.18927 0.40658 0.0
C741 C 0.40308 0.16503 0.40737 0.0
C742 C 0.35205 0.17643 0.4419 0.0
C743 C 0.41648 0.21117 0.39418 0.0
H744 H 0.35993 0.26396 0.40985 0.0
H745 H 0.43533 0.28642 0.4361 0.0
H746 H 0.35211 0.20306 0.39326 0.0
H747 H 0.33105 0.18938 0.41041 0.0
H748 H 0.33075 0.21787 0.39981 0.0
H749 H 0.4483 0.25325 0.44374 0.0
H750 H 0.42053 0.21658 0.44403 0.0
H751 H 0.44369 0.23027 0.42759 0.0
H752 H 0.36039 0.13188 0.43837 0.0
H753 H 0.4169 0.16251 0.39925 0.0
H754 H 0.33914 0.18525 0.43713 0.0
H755 H 0.36698 0.19193 0.45049 0.0
H756 H 0.3378 0.15631 0.44809 0.0
H757 H 0.40338 0.21977 0.38936 0.0
H758 H 0.42314 0.20225 0.38451 0.0
H759 H 0.43578 0.22914 0.39936 0.0
C760 C 0.89106 0.27167 0.40769 0.0
C761 C 0.91103 0.27761 0.41944 0.0
C762 C 0.86683 0.2448 0.40654 0.0
C763 C 0.86199 0.224 0.41788 0.0
C764 C 0.88326 0.22926 0.42903 0.0
C765 C 0.90789 0.25603 0.4295 0.0
C766 C 0.84519 0.23965 0.3941 0.0
C767 C 0.87868 0.20791 0.44153 0.0
C768 C 0.78539 0.18234 0.43046 0.0
C769 C 0.77664 0.15562 0.42403 0.0
C770 C 0.81335 0.20441 0.42887 0.0
C771 C 0.8328 0.1999 0.42012 0.0
C772 C 0.82401 0.17298 0.4134 0.0
C773 C 0.79598 0.15087 0.41568 0.0
C774 C 0.822 0.23259 0.43655 0.0
C775 C 0.84392 0.1678 0.40354 0.0
H776 H 0.89378 0.28838 0.39979 0.0
H777 H 0.92343 0.26082 0.43861 0.0
H778 H 0.83591 0.21785 0.38933 0.0
H779 H 0.82766 0.24184 0.39921 0.0
H780 H 0.85461 0.25511 0.3844 0.0
H781 H 0.89882 0.21302 0.44747 0.0
H782 H 0.8638 0.20791 0.45036 0.0
H783 H 0.86902 0.18617 0.43667 0.0
H784 H 0.77042 0.18585 0.43705 0.0
H785 H 0.789 0.13014 0.41064 0.0
H786 H 0.82768 0.24919 0.42756 0.0
H787 H 0.841 0.23917 0.44394 0.0
H788 H 0.80483 0.23183 0.4439 0.0
H789 H 0.85014 0.18158 0.39309 0.0
H790 H 0.83415 0.14534 0.39972 0.0
H791 H 0.86364 0.17351 0.41006 0.0
C792 C 0.98908 0.45607 0.26788 0.0
C793 C 0.00308 0.44919 0.25653 0.0
C794 C 0.9919 0.4831 0.26833 0.0
C795 C 0.0083 0.50324 0.25679 0.0
C796 C 0.02446 0.49717 0.24616 0.0
C797 C 0.02191 0.47019 0.24629 0.0
C798 C 0.97508 0.48905 0.2802 0.0
C799 C 0.04191 0.51788 0.23355 0.0
C800 C 0.97414 0.54485 0.24269 0.0
C801 C 0.99167 0.57161 0.24919 0.0
C802 C 0.98008 0.52285 0.24466 0.0
C803 C 0.00363 0.52747 0.25384 0.0
C804 C 0.02148 0.55454 0.26047 0.0
C805 C 0.01552 0.57656 0.25784 0.0
C806 C 0.96087 0.49454 0.23703 0.0
C807 C 0.04619 0.55993 0.27072 0.0
H808 H 0.97479 0.43989 0.27594 0.0
H809 H 0.03273 0.4648 0.2375 0.0
H810 H 0.98767 0.51099 0.28477 0.0
H811 H 0.95579 0.48706 0.27461 0.0
H812 H 0.96833 0.47393 0.2901 0.0
H813 H 0.0571 0.51236 0.22819 0.0
H814 H 0.02752 0.5176 0.22432 0.0
H815 H 0.05388 0.53983 0.23816 0.0
H816 H 0.95585 0.5412 0.23586 0.0
H817 H 0.02891 0.59731 0.26294 0.0
H818 H 0.94951 0.47815 0.24607 0.0
H819 H 0.97358 0.48774 0.23005 0.0
H820 H 0.94486 0.49521 0.2293 0.0
H821 H 0.03813 0.54728 0.28155 0.0
H822 H 0.05937 0.58268 0.27391 0.0
H823 H 0.05983 0.55297 0.26484 0.0
C824 C 0.6034 0.55568 0.2643 0.0
C825 C 0.61039 0.57781 0.25377 0.0
C826 C 0.57615 0.53178 0.26445 0.0
C827 C 0.55589 0.52963 0.25339 0.0
C828 C 0.56227 0.55287 0.24348 0.0
C829 C 0.58946 0.57696 0.24395 0.0
C830 C 0.56987 0.50788 0.27559 0.0
C831 C 0.54147 0.55123 0.23134 0.0
C832 C 0.51059 0.45476 0.23855 0.0
C833 C 0.48461 0.44635 0.24582 0.0
C834 C 0.53349 0.48225 0.24043 0.0
C835 C 0.53059 0.50149 0.25031 0.0
C836 C 0.50424 0.49316 0.25763 0.0
C837 C 0.48127 0.46566 0.25508 0.0
C838 C 0.56097 0.49047 0.23207 0.0
C839 C 0.50068 0.5128 0.26861 0.0
H840 H 0.61955 0.55655 0.27204 0.0
H841 H 0.59495 0.59413 0.23578 0.0
H842 H 0.54832 0.4991 0.28062 0.0
H843 H 0.57053 0.49047 0.26922 0.0
H844 H 0.58556 0.5149 0.28522 0.0
H845 H 0.54769 0.57242 0.22638 0.0
H846 H 0.5406 0.53718 0.22173 0.0
H847 H 0.51981 0.54194 0.23626 0.0
H848 H 0.51297 0.43976 0.2313 0.0
H849 H 0.46113 0.45889 0.2608 0.0
H850 H 0.57769 0.49413 0.24065 0.0
H851 H 0.56827 0.51057 0.22556 0.0
H852 H 0.55885 0.47386 0.22377 0.0
H853 H 0.51375 0.51621 0.27916 0.0
H854 H 0.47824 0.50411 0.27223 0.0
H855 H 0.50831 0.53386 0.26314 0.0
C856 C 0.5018 0.07217 0.23841 0.0
C857 C 0.48025 0.06056 0.24953 0.0
C858 C 0.52577 0.06919 0.23976 0.0
C859 C 0.52853 0.05495 0.25285 0.0
C860 C 0.50617 0.04213 0.26383 0.0
C861 C 0.48199 0.04491 0.26195 0.0
C862 C 0.54884 0.08272 0.22762 0.0
C863 C 0.50856 0.02716 0.27803 0.0
C864 C 0.59025 0.04189 0.24854 0.0
C865 C 0.61242 0.06738 0.25445 0.0
C866 C 0.56212 0.0363 0.249 0.0
C867 C 0.55622 0.05659 0.25567 0.0
C868 C 0.57827 0.08116 0.26285 0.0
C869 C 0.60616 0.08636 0.26204 0.0
C870 C 0.53918 0.00987 0.24125 0.0
C871 C 0.5728 0.10311 0.27033 0.0
H872 H 0.50019 0.08425 0.22881 0.0
H873 H 0.46527 0.03627 0.27061 0.0
H874 H 0.56784 0.10107 0.23279 0.0
H875 H 0.55524 0.06738 0.22355 0.0
H876 H 0.54205 0.09034 0.2174 0.0
H877 H 0.48785 0.01461 0.28404 0.0
H878 H 0.5168 0.01284 0.27487 0.0
H879 H 0.52384 0.04312 0.28631 0.0
H880 H 0.59504 0.02707 0.24274 0.0
H881 H 0.62321 0.10589 0.26684 0.0
H882 H 0.53372 0.01565 0.2299 0.0
H883 H 0.51962 -0.00013 0.24842 0.0
H884 H 0.54604 0.99406 0.23911 0.0
H885 H 0.56849 0.11481 0.26115 0.0
H886 H 0.5912 0.11872 0.27731 0.0
H887 H 0.55387 0.0928 0.27797 0.0
C888 C 0.4547 0.98703 0.74317 0.0
C889 C 0.44714 -0.00026 0.75494 0.0
C890 C 0.48225 0.99125 0.74235 0.0
C891 C 0.50213 0.00739 0.75405 0.0
C892 C 0.49507 0.02175 0.76538 0.0
C893 C 0.46766 0.01813 0.76551 0.0
C894 C 0.48927 0.97647 0.72971 0.0
C895 C 0.51535 0.03852 0.7783 0.0
C896 C 0.54759 0.97593 0.76538 0.0
C897 C 0.57384 0.99526 0.75892 0.0
C898 C 0.52452 0.98042 0.76438 0.0
C899 C 0.52753 0.00436 0.7562 0.0
C900 C 0.55411 0.02411 0.74967 0.0
C901 C 0.57725 0.01955 0.75135 0.0
C902 C 0.49677 0.95918 0.77188 0.0
C903 C 0.55778 0.04932 0.74045 0.0
H904 H 0.43885 0.97303 0.7349 0.0
H905 H 0.46164 0.02784 0.77465 0.0
H906 H 0.51098 0.99048 0.72515 0.0
H907 H 0.48857 0.95723 0.73457 0.0
H908 H 0.47396 0.96983 0.7199 0.0
H909 H 0.50862 0.05204 0.78457 0.0
H910 H 0.51624 0.0236 0.78679 0.0
H911 H 0.53712 0.05217 0.77375 0.0
H912 H 0.54515 0.95728 0.77136 0.0
H913 H 0.59763 0.03432 0.74627 0.0
H914 H 0.48055 0.94777 0.76277 0.0
H915 H 0.48884 0.97024 0.77945 0.0
H916 H 0.49882 0.94324 0.77899 0.0
H917 H 0.54492 0.0418 0.72966 0.0
H918 H 0.58027 0.06384 0.73719 0.0
H919 H 0.54995 0.06144 0.74716 0.0
C920 C 0.05107 0.48608 0.742 0.0
C921 C 0.05385 0.47628 0.75655 0.0
C922 C 0.04909 0.51075 0.74077 0.0
C923 C 0.05054 0.526 0.75442 0.0
C924 C 0.05145 0.51495 0.7692 0.0
C925 C 0.05306 0.49009 0.77007 0.0
C926 C 0.04764 0.5216 0.72484 0.0
C927 C 0.05326 0.53066 0.78403 0.0
C928 C 0.08926 0.60611 0.75279 0.0
C929 C 0.06701 0.61184 0.75445 0.0
C930 C 0.08399 0.57818 0.75231 0.0
C931 C 0.05571 0.55541 0.75328 0.0
C932 C 0.03301 0.56103 0.75422 0.0
C933 C 0.03895 0.58928 0.75492 0.0
C934 C 0.10885 0.57311 0.75141 0.0
C935 C 0.00259 0.53724 0.75495 0.0
H936 H 0.05173 0.47522 0.73158 0.0
H937 H 0.05551 0.48241 0.78129 0.0
H938 H 0.03211 0.52916 0.72469 0.0
H939 H 0.06868 0.53988 0.72179 0.0
H940 H 0.04166 0.50503 0.71575 0.0
H941 H 0.05049 0.51764 0.79454 0.0
H942 H 0.07431 0.55026 0.7847 0.0
H943 H 0.03692 0.53716 0.78415 0.0
H944 H 0.11098 0.62348 0.75238 0.0
H945 H 0.02169 0.59368 0.75609 0.0
H946 H 0.10634 0.55926 0.74136 0.0
H947 H 0.10959 0.56198 0.76207 0.0
H948 H 0.12945 0.59316 0.75024 0.0
H949 H -0.0017 0.52158 0.74557 0.0
H950 H 0.98735 0.5451 0.75385 0.0
H951 H -0.00129 0.52589 0.76619 0.0
C952 C 0.44916 0.51332 0.75959 0.0
C953 C 0.44206 0.48714 0.75295 0.0
C954 C 0.47686 0.53616 0.75883 0.0
C955 C 0.49773 0.53301 0.75068 0.0
C956 C 0.49059 0.50668 0.7437 0.0
C957 C 0.46278 0.48373 0.74519 0.0
C958 C 0.48372 0.56366 0.76678 0.0
C959 C 0.51208 0.50298 0.73445 0.0
C960 C 0.55548 0.60611 0.73984 0.0
C961 C 0.57469 0.61204 0.75201 0.0
C962 C 0.53181 0.579 0.73811 0.0
C963 C 0.52666 0.5579 0.74931 0.0
C964 C 0.5471 0.56327 0.761 0.0
C965 C 0.57127 0.59031 0.76203 0.0
C966 C 0.51108 0.57379 0.72513 0.0
C967 C 0.54205 0.54161 0.77341 0.0
H968 H 0.43312 0.51576 0.76576 0.0
H969 H 0.45707 0.46339 0.74001 0.0
H970 H 0.5021 0.5705 0.77471 0.0
H971 H 0.48966 0.58062 0.75799 0.0
H972 H 0.46555 0.56179 0.77363 0.0
H973 H 0.50326 0.48098 0.73 0.0
H974 H 0.51945 0.51781 0.72442 0.0
H975 H 0.53096 0.50834 0.74169 0.0
H976 H 0.55835 0.62292 0.732 0.0
H977 H 0.5862 0.59509 0.77148 0.0
H978 H 0.4927 0.57501 0.72979 0.0
H979 H 0.50288 0.5523 0.72009 0.0
H980 H 0.5209 0.58978 0.7157 0.0
H981 H 0.526 0.54061 0.78175 0.0
H982 H 0.56174 0.54711 0.77996 0.0
H983 H 0.53355 0.52016 0.76831 0.0
C984 C 0.65371 0.78686 0.60016 0.0
C985 C 0.66762 0.78043 0.58854 0.0
C986 C 0.65666 0.81389 0.6011 0.0
C987 C 0.67308 0.83453 0.58979 0.0
C988 C 0.689 0.82882 0.57881 0.0
C989 C 0.68635 0.8018 0.57845 0.0
C990 C 0.64007 0.81942 0.61331 0.0
C991 C 0.70641 0.85008 0.5664 0.0
C992 C 0.63916 0.87731 0.57751 0.0
C993 C 0.65675 0.90353 0.58456 0.0
C994 C 0.64509 0.85519 0.57863 0.0
C995 C 0.6687 0.8591 0.5875 0.0
C996 C 0.68672 0.88566 0.59462 0.0
C997 C 0.68075 0.90786 0.59284 0.0
C998 C 0.62572 0.82745 0.5705 0.0
C999 C 0.71155 0.89026 0.60453 0.0
H1000 H 0.63952 0.77039 0.60811 0.0
H1001 H 0.69711 0.79675 0.56946 0.0
H1002 H 0.65291 0.84104 0.61826 0.0
H1003 H 0.6209 0.81807 0.60792 0.0
H1004 H 0.63311 0.8037 0.62293 0.0
H1005 H 0.7214 0.84465 0.56069 0.0
H1006 H 0.69198 0.85041 0.55738 0.0
H1007 H 0.7186 0.87178 0.57132 0.0
H1008 H 0.6208 0.87418 0.57093 0.0
H1009 H 0.69422 0.92821 0.59834 0.0
H1010 H 0.61425 0.8105 0.57925 0.0
H1011 H 0.63831 0.82098 0.56317 0.0
H1012 H 0.60979 0.82879 0.56301 0.0
H1013 H 0.70359 0.8771 0.6152 0.0
H1014 H 0.72499 0.91282 0.60802 0.0
H1015 H 0.72489 0.88339 0.59824 0.0
C1016 C 0.14384 0.80245 0.57472 0.0
C1017 C 0.14218 0.78117 0.58456 0.0
C1018 C 0.16809 0.82957 0.5747 0.0
C1019 C 0.19059 0.83552 0.5851 0.0
C1020 C 0.18766 0.8148 0.59605 0.0
C1021 C 0.16371 0.78765 0.59543 0.0
C1022 C 0.17066 0.85086 0.56262 0.0
C1023 C 0.21076 0.82058 0.60766 0.0
C1024 C 0.26677 0.88164 0.57261 0.0
C1025 C 0.27452 0.90707 0.58037 0.0
C1026 C 0.23907 0.85877 0.57346 0.0
C1027 C 0.21888 0.86107 0.5828 0.0
C1028 C 0.2265 0.8869 0.59055 0.0
C1029 C 0.25429 0.9099 0.58903 0.0
C1030 C 0.23166 0.83188 0.56466 0.0
C1031 C 0.20577 0.88979 0.60097 0.0
H1032 H 0.12716 0.79733 0.56628 0.0
H1033 H 0.16227 0.77124 0.60315 0.0
H1034 H 0.17947 0.87231 0.56778 0.0
H1035 H 0.18554 0.85222 0.55338 0.0
H1036 H 0.14991 0.8448 0.55713 0.0
H1037 H 0.20314 0.80436 0.61704 0.0
H1038 H 0.2287 0.82041 0.60163 0.0
H1039 H 0.21902 0.84182 0.61302 0.0
H1040 H 0.28247 0.87968 0.56578 0.0
H1041 H 0.26052 0.92963 0.5951 0.0
H1042 H 0.21214 0.82495 0.55767 0.0
H1043 H 0.22736 0.81461 0.57299 0.0
H1044 H 0.24899 0.8346 0.55675 0.0
H1045 H 0.18534 0.88259 0.59486 0.0
H1046 H 0.2141 0.91198 0.60497 0.0
H1047 H 0.20124 0.876 0.61133 0.0
C1048 C 0.26327 0.38544 0.5732 0.0
C1049 C 0.2827 0.39881 0.58528 0.0
C1050 C 0.23688 0.38415 0.57335 0.0
C1051 C 0.22953 0.3955 0.5862 0.0
C1052 C 0.24813 0.40657 0.59908 0.0
C1053 C 0.2749 0.4088 0.59828 0.0
C1054 C 0.21811 0.37307 0.55916 0.0
C1055 C 0.24058 0.41778 0.61327 0.0
C1056 C 0.18604 0.4308 0.57827 0.0
C1057 C 0.15867 0.4094 0.58224 0.0
C1058 C 0.20913 0.42631 0.57937 0.0
C1059 C 0.20487 0.40004 0.58507 0.0
C1060 C 0.17734 0.37853 0.58948 0.0
C1061 C 0.15437 0.3833 0.58775 0.0
C1062 C 0.23804 0.44961 0.57421 0.0
C1063 C 0.17225 0.35068 0.59611 0.0
H1064 H 0.26957 0.37798 0.5631 0.0
H1065 H 0.28997 0.41901 0.60764 0.0
H1066 H 0.19584 0.35813 0.56252 0.0
H1067 H 0.21833 0.39108 0.55295 0.0
H1068 H 0.22531 0.36214 0.55097 0.0
H1069 H 0.25451 0.42032 0.62331 0.0
H1070 H 0.24293 0.4388 0.61059 0.0
H1071 H 0.21818 0.40338 0.61668 0.0
H1072 H 0.18932 0.45093 0.57391 0.0
H1073 H 0.13317 0.36685 0.59094 0.0
H1074 H 0.24681 0.44139 0.56526 0.0
H1075 H 0.25292 0.45696 0.5842 0.0
H1076 H 0.2374 0.46817 0.56931 0.0
H1077 H 0.17798 0.33933 0.58742 0.0
H1078 H 0.14978 0.33666 0.59961 0.0
H1079 H 0.18602 0.35463 0.60642 0.0
C1080 C 0.03936 0.35448 0.13987 0.0
C1081 C 0.0179 0.33707 0.12945 0.0
C1082 C 0.03286 0.35942 0.15492 0.0
C1083 C 0.00419 0.34579 0.15982 0.0
C1084 C 0.98234 0.32878 0.14914 0.0
C1085 C 0.98948 0.32481 0.13397 0.0
C1086 C 0.05677 0.37833 0.16575 0.0
C1087 C 0.95158 0.31352 0.154 0.0
C1088 C 0.99343 0.3349 0.20362 0.0
C1089 C 0.98789 0.35656 0.20776 0.0
C1090 C 0.99779 0.33051 0.18796 0.0
C1091 C 0.99736 0.34872 0.17627 0.0
C1092 C 0.99182 0.37063 0.18044 0.0
C1093 C 0.98682 0.37405 0.19609 0.0
C1094 C 0.00308 0.30654 0.18393 0.0
C1095 C 0.99196 0.39099 0.16845 0.0
H1096 H 0.06135 0.36354 0.13637 0.0
H1097 H 0.97299 0.31073 0.12599 0.0
H1098 H 0.05268 0.39457 0.17101 0.0
H1099 H 0.05811 0.3655 0.17539 0.0
H1100 H 0.0776 0.38929 0.15971 0.0
H1101 H 0.93708 0.3024 0.14411 0.0
H1102 H 0.94813 0.29767 0.16312 0.0
H1103 H 0.94583 0.32869 0.15912 0.0
H1104 H 0.9941 0.32125 0.21259 0.0
H1105 H 0.98276 0.391 0.19923 0.0
H1106 H 0.02483 0.31525 0.1792 0.0
H1107 H 0.98806 0.29297 0.17477 0.0
H1108 H 0.00076 0.2931 0.19418 0.0
H1109 H 0.01323 0.40282 0.16296 0.0
H1110 H 0.98666 0.40654 0.17354 0.0
H1111 H 0.97652 0.37915 0.15907 0.0
C1112 C 0.75572 0.72466 0.14092 0.0
C1113 C 0.73318 0.7166 0.13051 0.0
C1114 C 0.7511 0.71335 0.15599 0.0
C1115 C 0.72306 0.69432 0.16096 0.0
C1116 C 0.70021 0.68574 0.15036 0.0
C1117 C 0.70562 0.6967 0.13512 0.0
C1118 C 0.77616 0.72227 0.1667 0.0
C1119 C 0.66997 0.66597 0.15532 0.0
C1120 C 0.7111 0.64824 0.19656 0.0
C1121 C 0.70753 0.66401 0.20836 0.0
C1122 C 0.71655 0.65802 0.18116 0.0
C1123 C 0.71771 0.68389 0.17734 0.0
C1124 C 0.71422 0.69998 0.18923 0.0
C1125 C 0.70955 0.69002 0.20467 0.0
C1126 C 0.72105 0.64067 0.16896 0.0
C1127 C 0.71485 0.72744 0.18559 0.0
H1128 H 0.77704 0.74018 0.13729 0.0
H1129 H 0.68818 0.69093 0.12712 0.0
H1130 H 0.77486 0.73475 0.17654 0.0
H1131 H 0.77585 0.70331 0.17169 0.0
H1132 H 0.79672 0.73537 0.16063 0.0
H1133 H 0.65468 0.66098 0.14563 0.0
H1134 H 0.6677 0.64584 0.15983 0.0
H1135 H 0.66425 0.67581 0.16493 0.0
H1136 H 0.70973 0.62817 0.19941 0.0
H1137 H 0.70652 0.70209 0.21375 0.0
H1138 H 0.74184 0.6538 0.16316 0.0
H1139 H 0.70445 0.63379 0.15986 0.0
H1140 H 0.72044 0.62153 0.17394 0.0
H1141 H 0.73573 0.74296 0.18059 0.0
H1142 H 0.71099 0.73702 0.19605 0.0
H1143 H 0.6985 0.72365 0.17673 0.0
C1144 C 0.31335 0.03139 0.14507 0.0
C1145 C 0.33268 0.04328 0.1327 0.0
C1146 C 0.32251 0.03572 0.16058 0.0
C1147 C 0.35175 0.05266 0.16391 0.0
C1148 C 0.37138 0.06531 0.15152 0.0
C1149 C 0.36162 0.0603 0.13603 0.0
C1150 C 0.30091 0.02155 0.17339 0.0
C1151 C 0.40272 0.0838 0.15464 0.0
C1152 C 0.37377 0.08165 0.20502 0.0
C1153 C 0.38208 0.06307 0.21112 0.0
C1154 C 0.36362 0.07843 0.18968 0.0
C1155 C 0.36177 0.05608 0.18033 0.0
C1156 C 0.36942 0.03681 0.1867 0.0
C1157 C 0.37978 0.04075 0.20199 0.0
C1158 C 0.35586 0.09951 0.1833 0.0
C1159 C 0.36742 0.0125 0.17723 0.0
H1160 H 0.29091 0.0181 0.14265 0.0
H1161 H 0.37664 0.0696 0.12655 0.0
H1162 H 0.30544 0.0066 0.17985 0.0
H1163 H 0.30234 0.03763 0.18184 0.0
H1164 H 0.27886 0.00963 0.16887 0.0
H1165 H 0.41502 0.09329 0.14382 0.0
H1166 H 0.4064 0.10116 0.16277 0.0
H1167 H 0.411 0.07108 0.16031 0.0
H1168 H 0.37642 0.0994 0.21201 0.0
H1169 H 0.38694 0.02688 0.20667 0.0
H1170 H 0.33374 0.08829 0.1789 0.0
H1171 H 0.36983 0.11102 0.17332 0.0
H1172 H 0.35788 0.11527 0.19218 0.0
H1173 H 0.34557 -0.00072 0.17265 0.0
H1174 H 0.37306 -0.00126 0.18411 0.0
H1175 H 0.38187 0.02088 0.16707 0.0
C1176 C 0.34689 0.0166 0.87243 0.0
C1177 C 0.32021 0.0122 0.87677 0.0
C1178 C 0.35212 0.01172 0.857 0.0
C1179 C 0.32988 0.00145 0.84587 0.0
C1180 C 0.30258 0.99578 0.85048 0.0
C1181 C 0.29822 0.00167 0.86579 0.0
C1182 C 0.38165 0.0185 0.85247 0.0
C1183 C 0.27803 0.98388 0.83919 0.0
C1184 C 0.34735 0.01291 0.80253 0.0
C1185 C 0.34585 0.9873 0.79843 0.0
C1186 C 0.34242 0.01794 0.81799 0.0
C1187 C 0.33504 0.99652 0.82941 0.0
C1188 C 0.33238 0.9702 0.82509 0.0
C1189 C 0.33824 0.96611 0.80972 0.0
C1190 C 0.34597 0.04647 0.82221 0.0
C1191 C 0.32361 0.94644 0.83672 0.0
H1192 H 0.36398 0.02517 0.88087 0.0
H1193 H 0.27755 0.99825 0.86918 0.0
H1194 H 0.38117 -0.00066 0.84767 0.0
H1195 H 0.38992 0.03487 0.84319 0.0
H1196 H 0.39659 0.0264 0.86246 0.0
H1197 H 0.25775 0.97899 0.84488 0.0
H1198 H 0.2824 -0.00067 0.82969 0.0
H1199 H 0.27539 0.96419 0.83377 0.0
H1200 H 0.35363 0.02943 0.79385 0.0
H1201 H 0.33702 0.94623 0.80653 0.0
H1202 H 0.3625 0.05664 0.83132 0.0
H1203 H 0.32592 0.04377 0.82712 0.0
H1204 H 0.35209 0.06096 0.81204 0.0
H1205 H 0.33974 0.9531 0.84607 0.0
H1206 H 0.32105 0.92677 0.83128 0.0
H1207 H 0.30326 0.94152 0.8423 0.0
C1208 C 0.0887 0.39417 0.80699 0.0
C1209 C 0.06607 0.38394 0.79645 0.0
C1210 C 0.08481 0.38341 0.82217 0.0
C1211 C 0.05736 0.36261 0.82711 0.0
C1212 C 0.03447 0.35183 0.81639 0.0
C1213 C 0.03921 0.36237 0.80106 0.0
C1214 C 0.10998 0.39477 0.83301 0.0
C1215 C 0.00478 0.33006 0.82129 0.0
C1216 C 0.04873 0.31828 0.86303 0.0
C1217 C 0.04286 0.3328 0.87461 0.0
C1218 C 0.05401 0.32803 0.84762 0.0
C1219 C 0.05261 0.3525 0.84356 0.0
C1220 C 0.0469 0.36742 0.85524 0.0
C1221 C 0.04248 0.35758 0.8707 0.0
C1222 C 0.06095 0.31206 0.83567 0.0
C1223 C 0.04477 0.39334 0.85132 0.0
H1224 H 0.10948 0.41095 0.80338 0.0
H1225 H 0.02165 0.35487 0.79295 0.0
H1226 H 0.10713 0.40661 0.84268 0.0
H1227 H 0.11162 0.37699 0.83825 0.0
H1228 H 0.13025 0.40917 0.82699 0.0
H1229 H 0.9894 0.3236 0.81153 0.0
H1230 H 0.00449 0.3109 0.82594 0.0
H1231 H 0.99763 0.33885 0.83078 0.0
H1232 H 0.0492 0.29916 0.86605 0.0
H1233 H 0.03766 0.36865 0.87961 0.0
H1234 H 0.08138 0.32666 0.82989 0.0
H1235 H 0.04438 0.30346 0.82652 0.0
H1236 H 0.0625 0.29419 0.84087 0.0
H1237 H 0.06507 0.41005 0.8463 0.0
H1238 H 0.03966 0.4022 0.86166 0.0
H1239 H 0.02809 0.38787 0.8424 0.0
C1240 C 0.68735 0.70824 0.80173 0.0
C1241 C 0.66301 0.70957 0.79799 0.0
C1242 C 0.69748 0.71257 0.81714 0.0
C1243 C 0.68339 0.71921 0.82889 0.0
C1244 C 0.65945 0.72164 0.82496 0.0
C1245 C 0.64932 0.71635 0.80962 0.0
C1246 C 0.72277 0.70928 0.82093 0.0
C1247 C 0.64441 0.72965 0.83696 0.0
C1248 C 0.69305 0.70609 0.87147 0.0
C1249 C 0.7153 0.73272 0.8759 0.0
C1250 C 0.68243 0.7013 0.85616 0.0
C1251 C 0.69383 0.72394 0.84526 0.0
C1252 C 0.71539 0.7512 0.85 0.0
C1253 C 0.72619 0.7551 0.86517 0.0
C1254 C 0.65982 0.67181 0.85147 0.0
C1255 C 0.72743 0.77614 0.83897 0.0
H1256 H 0.6977 0.70264 0.79277 0.0
H1257 H 0.63052 0.71749 0.8067 0.0
H1258 H 0.74009 0.72933 0.82585 0.0
H1259 H 0.71684 0.69258 0.8299 0.0
H1260 H 0.731 0.70353 0.81055 0.0
H1261 H 0.62696 0.73201 0.83183 0.0
H1262 H 0.6354 0.71322 0.84618 0.0
H1263 H 0.65971 0.74994 0.84265 0.0
H1264 H 0.685 0.6887 0.87972 0.0
H1265 H 0.74347 0.77572 0.86863 0.0
H1266 H 0.66789 0.66397 0.84195 0.0
H1267 H 0.64093 0.67219 0.84694 0.0
H1268 H 0.65311 0.65656 0.86131 0.0
H1269 H 0.7385 0.77236 0.82923 0.0
H1270 H 0.74268 0.79632 0.8448 0.0
H1271 H 0.71007 0.77861 0.83386 0.0
C1272 C 0.04101 0.70992 0.87091 0.0
C1273 C 0.04464 0.73653 0.87477 0.0
C1274 C 0.04645 0.7043 0.85567 0.0
C1275 C 0.05639 0.72605 0.84425 0.0
C1276 C 0.06129 0.7533 0.84839 0.0
C1277 C 0.05498 0.75805 0.86351 0.0
C1278 C 0.04057 0.67485 0.85163 0.0
C1279 C 0.07272 0.77735 0.83677 0.0
C1280 C 0.09327 0.71867 0.80849 0.0
C1281 C 0.07222 0.71044 0.79705 0.0
C1282 C 0.08852 0.72414 0.82382 0.0
C1283 C 0.06173 0.72049 0.82794 0.0
C1284 C 0.0404 0.71235 0.81639 0.0
C1285 C 0.04605 0.70779 0.80099 0.0
C1286 C 0.11216 0.73374 0.83559 0.0
C1287 C 0.01142 0.70783 0.82039 0.0
H1288 H 0.03262 0.69318 0.87956 0.0
H1289 H 0.05783 0.77869 0.86652 0.0
H1290 H 0.02415 0.66572 0.8424 0.0
H1291 H 0.05999 0.67576 0.84695 0.0
H1292 H 0.03313 0.66039 0.86184 0.0
H1293 H 0.07694 0.79769 0.84212 0.0
H1294 H 0.09271 0.78038 0.83157 0.0
H1295 H 0.0573 0.77212 0.82715 0.0
H1296 H 0.11358 0.72081 0.80544 0.0
H1297 H 0.02965 0.70105 0.7922 0.0
H1298 H 0.10564 0.71804 0.84516 0.0
H1299 H 0.11665 0.75421 0.84084 0.0
H1300 H 0.13205 0.73647 0.83037 0.0
H1301 H 0.0017 0.69164 0.82971 0.0
H1302 H 0.99694 0.70077 0.8102 0.0
H1303 H 0.01331 0.72778 0.82494 0.0
C1304 C 0.37476 0.40651 0.80857 0.0
C1305 C 0.35462 0.39179 0.79692 0.0
C1306 C 0.37069 0.39632 0.82384 0.0
C1307 C 0.34551 0.37103 0.8277 0.0
C1308 C 0.32521 0.35575 0.81593 0.0
C1309 C 0.33017 0.36619 0.80056 0.0
C1310 C 0.39326 0.41281 0.83588 0.0
C1311 C 0.29796 0.32883 0.81967 0.0
C1312 C 0.34448 0.33052 0.86381 0.0
C1313 C 0.33139 0.3394 0.8747 0.0
C1314 C 0.34972 0.34109 0.84859 0.0
C1315 C 0.34085 0.36042 0.84401 0.0
C1316 C 0.32805 0.3699 0.85508 0.0
C1317 C 0.32373 0.35946 0.87042 0.0
C1318 C 0.36425 0.33114 0.83733 0.0
C1319 C 0.318 0.39023 0.85057 0.0
H1320 H 0.3938 0.42629 0.80573 0.0
H1321 H 0.31446 0.35501 0.7916 0.0
H1322 H 0.38444 0.4202 0.84523 0.0
H1323 H 0.40029 0.39891 0.84139 0.0
H1324 H 0.41209 0.43157 0.83084 0.0
H1325 H 0.28426 0.3196 0.80926 0.0
H1326 H 0.30269 0.31281 0.8246 0.0
H1327 H 0.28596 0.33322 0.82862 0.0
H1328 H 0.35016 0.31477 0.86717 0.0
H1329 H 0.31302 0.36577 0.8788 0.0
H1330 H 0.38315 0.34964 0.8322 0.0
H1331 H 0.34967 0.31929 0.82763 0.0
H1332 H 0.37109 0.31717 0.84298 0.0
H1333 H 0.33595 0.41015 0.84592 0.0
H1334 H 0.3085 0.39556 0.86052 0.0
H1335 H 0.30194 0.38075 0.84117 0.0
C1336 C 0.70174 0.01925 0.87353 0.0
C1337 C 0.72226 0.01204 0.87755 0.0
C1338 C 0.69117 0.01525 0.85823 0.0
C1339 C 0.70081 0.00302 0.8469 0.0
C1340 C 0.72067 0.99464 0.85117 0.0
C1341 C 0.73148 -0.0003 0.86636 0.0
C1342 C 0.67038 0.0249 0.85405 0.0
C1343 C 0.73074 0.9806 0.83966 0.0
C1344 C 0.65374 0.96893 0.81173 0.0
C1345 C 0.6679 0.98923 0.80006 0.0
C1346 C 0.66445 0.97299 0.82691 0.0
C1347 C 0.68969 0.99832 0.83067 0.0
C1348 C 0.70434 0.01884 0.81889 0.0
C1349 C 0.69343 0.01388 0.80362 0.0
C1350 C 0.64861 0.95019 0.83894 0.0
C1351 C 0.73112 0.04629 0.82252 0.0
H1352 H 0.69504 0.02928 0.88213 0.0
H1353 H 0.74744 0.99419 0.86951 0.0
H1354 H 0.67927 0.04088 0.84459 0.0
H1355 H 0.65039 0.00673 0.84963 0.0
H1356 H 0.6653 0.03437 0.86413 0.0
H1357 H 0.74522 0.97416 0.84505 0.0
H1358 H 0.71231 0.9615 0.83462 0.0
H1359 H 0.74204 0.99533 0.82991 0.0
H1360 H 0.63406 0.94973 0.80898 0.0
H1361 H 0.70422 0.0297 0.79466 0.0
H1362 H 0.64124 0.95868 0.84847 0.0
H1363 H 0.66294 0.94346 0.84419 0.0
H1364 H 0.6299 0.93123 0.83396 0.0
H1365 H 0.7268 0.05799 0.83169 0.0
H1366 H 0.7398 0.06018 0.81213 0.0
H1367 H 0.74755 0.04185 0.82712 0.0
C1368 C 0.75875 0.06248 0.14224 0.0
C1369 C 0.7365 0.04855 0.13158 0.0
C1370 C 0.75388 0.06926 0.15723 0.0
C1371 C 0.72587 0.06106 0.16187 0.0
C1372 C 0.70332 0.04745 0.15101 0.0
C1373 C 0.70899 0.04168 0.13587 0.0
C1374 C 0.77867 0.08465 0.1682 0.0
C1375 C 0.6731 0.03794 0.1556 0.0
C1376 C 0.71122 0.0526 0.20551 0.0
C1377 C 0.71027 0.07724 0.20899 0.0
C1378 C 0.71579 0.04679 0.19015 0.0
C1379 C 0.72028 0.0665 0.17813 0.0
C1380 C 0.72016 0.09181 0.18174 0.0
C1381 C 0.71478 0.09667 0.19706 0.0
C1382 C 0.71528 0.01932 0.18671 0.0
C1383 C 0.72576 0.11381 0.16942 0.0
H1384 H 0.78005 0.06773 0.13887 0.0
H1385 H 0.69176 0.03047 0.12768 0.0
H1386 H 0.77896 0.10369 0.17307 0.0
H1387 H 0.77645 0.07063 0.17811 0.0
H1388 H 0.79933 0.09142 0.1624 0.0
H1389 H 0.65809 0.02812 0.14574 0.0
H1390 H 0.66653 0.02225 0.16519 0.0
H1391 H 0.67142 0.0562 0.15999 0.0
H1392 H 0.7074 0.03741 0.21468 0.0
H1393 H 0.71416 0.11583 0.19973 0.0
H1394 H 0.73606 0.02382 0.18195 0.0
H1395 H 0.69901 0.0072 0.17773 0.0
H1396 H 0.71056 0.00581 0.19723 0.0
H1397 H 0.74663 0.12081 0.16386 0.0
H1398 H 0.72568 0.13272 0.17423 0.0
H1399 H 0.70943 0.10447 0.16016 0.0
C1400 C 0.99568 0.70346 0.13367 0.0
C1401 C 0.02189 0.72753 0.13047 0.0
C1402 C 0.9893 0.69183 0.14878 0.0
C1403 C 0.00996 0.70414 0.16075 0.0
C1404 C 0.03677 0.72789 0.15734 0.0
C1405 C 0.04221 0.73951 0.14233 0.0
C1406 C 0.96028 0.66682 0.15205 0.0
C1407 C 0.05977 0.74108 0.16953 0.0
C1408 C 0.98887 0.69085 0.20364 0.0
C1409 C 0.99327 0.66815 0.20694 0.0
C1410 C 0.99379 0.70256 0.18855 0.0
C1411 C 0.00405 0.69176 0.17673 0.0
C1412 C 0.00948 0.66953 0.18028 0.0
C1413 C 0.0036 0.65774 0.19525 0.0
C1414 C 0.98727 0.72592 0.18514 0.0
C1415 C 0.02136 0.65804 0.16825 0.0
H1416 H 0.97983 0.69449 0.12456 0.0
H1417 H 0.06254 0.75813 0.13984 0.0
H1418 H 0.96222 0.64851 0.15611 0.0
H1419 H 0.94993 0.67224 0.16151 0.0
H1420 H 0.94635 0.66022 0.14163 0.0
H1421 H 0.07977 0.75893 0.16484 0.0
H1422 H 0.05253 0.74912 0.17934 0.0
H1423 H 0.06434 0.72484 0.17432 0.0
H1424 H 0.98042 0.69854 0.21261 0.0
H1425 H 0.00698 0.64013 0.19783 0.0
H1426 H 0.9714 0.7192 0.17563 0.0
H1427 H 0.00668 0.74518 0.18108 0.0
H1428 H 0.97888 0.73157 0.19549 0.0
H1429 H 0.00636 0.64879 0.15838 0.0
H1430 H 0.02541 0.64144 0.17308 0.0
H1431 H 0.04155 0.6755 0.16352 0.0
C1432 C 0.31257 0.29786 0.14216 0.0
C1433 C 0.32882 0.31678 0.1303 0.0
C1434 C 0.3222 0.30215 0.1576 0.0
C1435 C 0.34848 0.32633 0.16137 0.0
C1436 C 0.36505 0.34552 0.14944 0.0
C1437 C 0.35515 0.34032 0.13399 0.0
C1438 C 0.30428 0.28077 0.16985 0.0
C1439 C 0.39303 0.37174 0.15304 0.0
C1440 C 0.36341 0.35222 0.20342 0.0
C1441 C 0.38256 0.34348 0.2079 0.0
C1442 C 0.35176 0.34646 0.18833 0.0
C1443 C 0.35905 0.33111 0.17773 0.0
C1444 C 0.37721 0.32096 0.18262 0.0
C1445 C 0.38909 0.32768 0.19755 0.0
C1446 C 0.33282 0.35801 0.18347 0.0
C1447 C 0.38489 0.30384 0.1719 0.0
H1448 H 0.29222 0.27952 0.13934 0.0
H1449 H 0.36762 0.35513 0.12489 0.0
H1450 H 0.31666 0.27215 0.17558 0.0
H1451 H 0.29832 0.2912 0.179 0.0
H1452 H 0.28459 0.26281 0.16495 0.0
H1453 H 0.40289 0.38503 0.14256 0.0
H1454 H 0.3899 0.38475 0.16192 0.0
H1455 H 0.40802 0.36563 0.15801 0.0
H1456 H 0.35889 0.36494 0.21135 0.0
H1457 H 0.40412 0.32115 0.20106 0.0
H1458 H 0.31246 0.34072 0.17883 0.0
H1459 H 0.34318 0.37371 0.17398 0.0
H1460 H 0.32824 0.36846 0.19325 0.0
H1461 H 0.36543 0.28571 0.16695 0.0
H1462 H 0.39727 0.2955 0.17793 0.0
H1463 H 0.39769 0.31726 0.16202 0.0
C1464 C 0.67736 0.68298 0.5372 0.0
C1465 C 0.6529 0.68351 0.54167 0.0
C1466 C 0.68188 0.67881 0.52155 0.0
C1467 C 0.66104 0.67425 0.51024 0.0
C1468 C 0.63598 0.67409 0.51481 0.0
C1469 C 0.63242 0.67913 0.53043 0.0
C1470 C 0.70911 0.67961 0.51709 0.0
C1471 C 0.61285 0.66837 0.50323 0.0
C1472 C 0.68376 0.68509 0.46765 0.0
C1473 C 0.67723 0.65762 0.4635 0.0
C1474 C 0.67803 0.69084 0.48279 0.0
C1475 C 0.66497 0.66842 0.49376 0.0
C1476 C 0.65681 0.64038 0.48919 0.0
C1477 C 0.66342 0.63543 0.4742 0.0
C1478 C 0.68738 0.72107 0.48729 0.0
C1479 C 0.64213 0.61574 0.50033 0.0
H1480 H 0.69337 0.68674 0.54585 0.0
H1481 H 0.61342 0.67946 0.53389 0.0
H1482 H 0.70434 0.65874 0.51233 0.0
H1483 H 0.72009 0.69563 0.50782 0.0
H1484 H 0.72377 0.68482 0.52712 0.0
H1485 H 0.59454 0.66875 0.5087 0.0
H1486 H 0.62134 0.68443 0.4938 0.0
H1487 H 0.60514 0.64731 0.49774 0.0
H1488 H 0.69486 0.70227 0.45942 0.0
H1489 H 0.65846 0.61417 0.47093 0.0
H1490 H 0.70435 0.72833 0.49621 0.0
H1491 H 0.66949 0.72244 0.49255 0.0
H1492 H 0.69559 0.73574 0.4772 0.0
H1493 H 0.65692 0.61793 0.50981 0.0
H1494 H 0.63473 0.59498 0.4945 0.0
H1495 H 0.62362 0.61567 0.50579 0.0
C1496 C 0.42041 0.07653 0.4772 0.0
C1497 C 0.40042 0.06015 0.4658 0.0
C1498 C 0.41704 0.06747 0.49272 0.0
C1499 C 0.39272 0.0417 0.49704 0.0
C1500 C 0.37242 0.02506 0.48557 0.0
C1501 C 0.37671 0.03432 0.47001 0.0
C1502 C 0.43961 0.08537 0.50447 0.0
C1503 C 0.346 0.99764 0.48977 0.0
C1504 C 0.39249 0.00129 0.53302 0.0
C1505 C 0.37781 0.0086 0.54372 0.0
C1506 C 0.3986 0.01292 0.51803 0.0
C1507 C 0.38897 0.03166 0.51346 0.0
C1508 C 0.3749 0.03986 0.52443 0.0
C1509 C 0.36973 0.02841 0.53956 0.0
C1510 C 0.41441 0.00427 0.50689 0.0
C1511 C 0.36395 0.05946 0.51993 0.0
H1512 H 0.43889 0.09646 0.47395 0.0
H1513 H 0.36113 0.02178 0.46124 0.0
H1514 H 0.43028 0.09201 0.51391 0.0
H1515 H 0.44817 0.07271 0.50991 0.0
H1516 H 0.45746 0.10467 0.49917 0.0
H1517 H 0.33174 0.98779 0.47963 0.0
H1518 H 0.35188 0.9823 0.49449 0.0
H1519 H 0.33412 0.00155 0.49901 0.0
H1520 H 0.39854 0.98577 0.53629 0.0
H1521 H 0.35788 0.03356 0.54778 0.0
H1522 H 0.43241 0.02332 0.50153 0.0
H1523 H 0.40006 0.99131 0.49735 0.0
H1524 H 0.42276 0.9917 0.51271 0.0
H1525 H 0.38126 0.07936 0.51487 0.0
H1526 H 0.35476 0.06492 0.52999 0.0
H1527 H 0.34735 0.04919 0.51086 0.0
C1528 C 0.98662 0.38098 0.47682 0.0
C1529 C 0.00081 0.37536 0.46494 0.0
C1530 C 0.99739 0.38706 0.49201 0.0
C1531 C 0.02261 0.38675 0.49555 0.0
C1532 C 0.03711 0.38112 0.48359 0.0
C1533 C 0.02622 0.37588 0.46833 0.0
C1534 C 0.9818 0.39392 0.50425 0.0
C1535 C 0.06379 0.3801 0.48698 0.0
C1536 C 0.06604 0.42731 0.53076 0.0
C1537 C 0.05734 0.40585 0.54196 0.0
C1538 C 0.05441 0.42148 0.51575 0.0
C1539 C 0.03422 0.39325 0.51168 0.0
C1540 C 0.02504 0.37148 0.52305 0.0
C1541 C 0.03647 0.37814 0.53819 0.0
C1542 C 0.06407 0.44549 0.50421 0.0
C1543 C 0.00393 0.34105 0.51907 0.0
H1544 H 0.967 0.38071 0.4742 0.0
H1545 H 0.03699 0.37119 0.45919 0.0
H1546 H 0.97485 0.37816 0.51381 0.0
H1547 H 0.99619 0.41505 0.5094 0.0
H1548 H 0.96286 0.394 0.49948 0.0
H1549 H 0.07198 0.37447 0.47654 0.0
H1550 H 0.08056 0.401 0.49136 0.0
H1551 H 0.05961 0.36427 0.49625 0.0
H1552 H 0.08226 0.44877 0.53372 0.0
H1553 H 0.03016 0.3615 0.5468 0.0
H1554 H 0.04547 0.44611 0.49938 0.0
H1555 H 0.07507 0.442 0.49432 0.0
H1556 H 0.07872 0.46645 0.5095 0.0
H1557 H 0.98391 0.33935 0.51478 0.0
H1558 H -0.00101 0.32664 0.52919 0.0
H1559 H 0.01248 0.33369 0.50955 0.0
C1560 C 0.38274 0.38611 0.53561 0.0
C1561 C 0.37745 0.40812 0.53933 0.0
C1562 C 0.38681 0.38081 0.52006 0.0
C1563 C 0.38601 0.39823 0.50801 0.0
C1564 C 0.38125 0.42082 0.51178 0.0
C1565 C 0.37683 0.42534 0.52735 0.0
C1566 C 0.39157 0.35634 0.51649 0.0
C1567 C 0.3808 0.44022 0.49935 0.0
C1568 C 0.42293 0.399 0.47034 0.0
C1569 C 0.40002 0.38082 0.46089 0.0
C1570 C 0.41859 0.40572 0.48548 0.0
C1571 C 0.39067 0.39314 0.49149 0.0
C1572 C 0.36736 0.37522 0.48181 0.0
C1573 C 0.37233 0.36949 0.46652 0.0
C1574 C 0.44398 0.42552 0.4952 0.0
C1575 C 0.33732 0.36105 0.48785 0.0
H1576 H 0.38303 0.37261 0.54479 0.0
H1577 H 0.37286 0.44249 0.53014 0.0
H1578 H 0.37509 0.34146 0.50829 0.0
H1579 H 0.41243 0.36426 0.51073 0.0
H1580 H 0.39101 0.34444 0.52712 0.0
H1581 H 0.37731 0.45714 0.50424 0.0
H1582 H 0.40117 0.45036 0.49288 0.0
H1583 H 0.36373 0.42776 0.49083 0.0
H1584 H 0.44437 0.40746 0.46598 0.0
H1585 H 0.35471 0.35489 0.45928 0.0
H1586 H 0.44623 0.4137 0.50509 0.0
H1587 H 0.44098 0.44267 0.50016 0.0
H1588 H 0.464 0.43533 0.48838 0.0
H1589 H 0.33493 0.3466 0.49758 0.0
H1590 H 0.32152 0.34857 0.47871 0.0
H1591 H 0.33245 0.37714 0.49253 0.0
C1592 C 0.66898 0.99009 0.53212 0.0
C1593 C 0.65812 0.00022 0.54368 0.0
C1594 C 0.67463 0.0016 0.5171 0.0
C1595 C 0.66844 0.02326 0.51335 0.0
C1596 C 0.65768 0.0338 0.52505 0.0
C1597 C 0.65298 0.02237 0.54019 0.0
C1598 C 0.68702 0.99042 0.50519 0.0
C1599 C 0.65042 0.05658 0.52144 0.0
C1600 C 0.70564 0.07099 0.47883 0.0
C1601 C 0.6852 0.05873 0.46704 0.0
C1602 C 0.70058 0.05943 0.49384 0.0
C1603 C 0.67407 0.03534 0.49731 0.0
C1604 C 0.65339 0.02257 0.48539 0.0
C1605 C 0.65935 0.03425 0.47029 0.0
C1606 C 0.72358 0.0732 0.506 0.0
C1607 C 0.62473 0.99706 0.48872 0.0
H1608 H 0.67289 0.97287 0.53485 0.0
H1609 H 0.64409 0.02981 0.54906 0.0
H1610 H 0.67209 0.98072 0.49533 0.0
H1611 H 0.707 0.00812 0.50042 0.0
H1612 H 0.6916 0.97427 0.51016 0.0
H1613 H 0.64179 0.06213 0.53171 0.0
H1614 H 0.66957 0.07602 0.51729 0.0
H1615 H 0.63451 0.04933 0.51193 0.0
H1616 H 0.72572 0.08992 0.47631 0.0
H1617 H 0.6434 0.02502 0.46124 0.0
H1618 H 0.72856 0.05733 0.51092 0.0
H1619 H 0.71611 0.08119 0.51572 0.0
H1620 H 0.7434 0.09119 0.50123 0.0
H1621 H 0.6273 0.97925 0.49301 0.0
H1622 H 0.61087 0.98984 0.47827 0.0
H1623 H 0.61395 0.00227 0.49803 0.0
C1624 C 0.02424 0.6783 0.46744 0.0
C1625 C -0.00026 0.65288 0.46352 0.0
C1626 C 0.03413 0.6838 0.48291 0.0
C1627 C 0.01961 0.66303 0.49458 0.0
C1628 C 0.99549 0.6369 0.49048 0.0
C1629 C 0.98564 0.63234 0.47508 0.0
C1630 C 0.05961 0.71214 0.48685 0.0
C1631 C 0.97994 0.61379 0.50239 0.0
C1632 C 0.06096 0.66881 0.53139 0.0
C1633 C 0.04981 0.68022 0.54202 0.0
C1634 C 0.05078 0.66239 0.51607 0.0
C1635 C 0.02963 0.66852 0.51106 0.0
C1636 C 0.0181 0.67984 0.52183 0.0
C1637 C 0.02803 0.68514 0.53729 0.0
C1638 C 0.06291 0.64934 0.5052 0.0
C1639 C 0.99597 0.68724 0.51688 0.0
H1640 H 0.03496 0.69432 0.45856 0.0
H1641 H 0.96673 0.61258 0.47206 0.0
H1642 H 0.0537 0.72308 0.49573 0.0
H1643 H 0.07658 0.70903 0.49195 0.0
H1644 H 0.0683 0.72614 0.47651 0.0
H1645 H 0.9625 0.59413 0.49715 0.0
H1646 H 0.99493 0.60854 0.50823 0.0
H1647 H 0.97083 0.62131 0.51151 0.0
H1648 H 0.07781 0.66497 0.53508 0.0
H1649 H 0.01974 0.69437 0.54545 0.0
H1650 H 0.07431 0.66418 0.49551 0.0
H1651 H 0.04555 0.62962 0.49999 0.0
H1652 H 0.07786 0.64419 0.51119 0.0
H1653 H 0.00444 0.70303 0.50731 0.0
H1654 H 0.98934 0.69611 0.52659 0.0
H1655 H 0.97696 0.66812 0.51232 0.0
C1656 C 0.04467 0.29895 0.03021 0.0
C1657 C 0.04078 0.31282 0.04295 0.0
C1658 C 0.04033 0.30473 0.01492 0.0
C1659 C 0.03229 0.32539 0.01205 0.0
C1660 C 0.02958 0.34054 0.02473 0.0
C1661 C 0.03352 0.33384 0.04007 0.0
C1662 C 0.0433 0.28774 1.00186 0.0
C1663 C 0.02168 0.36317 0.02227 0.0
C1664 C 0.04045 0.33799 0.96881 0.0
C1665 C 0.01393 0.31609 0.96387 0.0
C1666 C 0.04588 0.34454 0.98475 0.0
C1667 C 0.02439 0.32853 0.99582 0.0
C1668 C 0.99652 0.30963 0.99057 0.0
C1669 C 0.99163 0.30369 0.97464 0.0
C1670 C 0.0755 0.36599 0.98983 0.0
C1671 C 0.97273 0.29254 1.00185 0.0
H1672 H 0.05036 0.28273 0.03216 0.0
H1673 H 0.03067 0.3449 0.04977 0.0
H1674 H 0.02275 0.27545 0.99568 0.0
H1675 H 0.05917 0.30218 0.99327 0.0
H1676 H 0.04998 0.27267 0.00607 0.0
H1677 H 0.02974 0.37892 0.03189 0.0
H1678 H 0.03005 0.37448 0.01108 0.0
H1679 H -0.00176 0.35317 0.02206 0.0
H1680 H 0.05775 0.34775 0.96052 0.0
H1681 H 0.97098 0.28698 0.9708 0.0
H1682 H 0.08712 0.35482 0.9931 0.0
H1683 H 0.07498 0.37795 1.00017 0.0
H1684 H 0.08744 0.38121 0.98035 0.0
H1685 H 0.97586 0.27562 0.00705 0.0
H1686 H 0.95166 0.28235 0.99605 0.0
H1687 H 0.9727 0.30612 0.01145 0.0
C1688 C 0.7651 0.72904 0.97626 0.0
C1689 C 0.74767 0.729 0.9642 0.0
C1690 C 0.7569 0.72686 0.99185 0.0
C1691 C 0.7301 0.72365 0.99556 0.0
C1692 C 0.71073 0.7193 0.98338 0.0
C1693 C 0.71988 0.72245 0.96776 0.0
C1694 C 0.77833 0.73134 0.00432 0.0
C1695 C 0.68117 0.71361 0.98678 0.0
C1696 C 0.72331 0.72308 0.03961 0.0
C1697 C 0.73483 0.75221 0.04249 0.0
C1698 C 0.71833 0.71252 0.02424 0.0
C1699 C 0.72583 0.73165 0.01155 0.0
C1700 C 0.73485 0.76054 0.01453 0.0
C1701 C 0.73875 0.77026 0.02989 0.0
C1702 C 0.70684 0.68123 0.02169 0.0
C1703 C 0.74315 0.78195 1.00151 0.0
H1704 H 0.78629 0.73311 0.97358 0.0
H1705 H 0.70599 0.72177 0.95853 0.0
H1706 H 0.78492 0.75168 0.01044 0.0
H1707 H 0.76881 0.71412 0.01306 0.0
H1708 H 0.7976 0.732 0.9995 0.0
H1709 H 0.66633 0.70104 0.97729 0.0
H1710 H 0.6731 0.70206 0.99795 0.0
H1711 H 0.68133 0.73403 0.98763 0.0
H1712 H 0.7196 0.70877 0.04924 0.0
H1713 H 0.74675 0.79266 0.03195 0.0
H1714 H 0.72455 0.67667 0.02197 0.0
H1715 H 0.69585 0.67407 0.01031 0.0
H1716 H 0.69181 0.66864 0.03111 0.0
H1717 H 0.76161 0.78353 0.9951 0.0
H1718 H 0.74892 0.80343 0.00581 0.0
H1719 H 0.72548 0.77507 0.99311 0.0
C1720 C 0.34314 0.03538 0.96766 0.0
C1721 C 0.32428 0.04571 0.96577 0.0
C1722 C 0.35092 0.03104 0.98268 0.0
C1723 C 0.33872 0.03619 0.99602 0.0
C1724 C 0.3206 0.04767 0.99407 0.0
C1725 C 0.3142 0.05276 0.97912 0.0
C1726 C 0.37142 0.02014 0.98402 0.0
C1727 C 0.30632 0.05305 0.00774 0.0
C1728 C 0.31195 0.99401 0.0323 0.0
C1729 C 0.32423 0.01594 0.0433 0.0
C1730 C 0.32003 -0.00104 0.01663 0.0
C1731 C 0.34104 0.0265 0.01193 0.0
C1732 C 0.35726 0.04685 0.02347 0.0
C1733 C 0.34837 0.04153 0.03913 0.0
C1734 C 0.30297 0.97607 0.00488 0.0
C1735 C 0.38158 0.07554 0.01903 0.0
H1736 H 0.35145 0.03022 0.95749 0.0
H1737 H 0.29988 0.06109 0.978 0.0
H1738 H 0.38062 0.02304 0.99586 0.0
H1739 H 0.36032 0.99722 0.98106 0.0
H1740 H 0.38897 0.03116 0.97552 0.0
H1741 H 0.29178 0.06078 0.00408 0.0
H1742 H 0.29382 0.03325 0.01453 0.0
H1743 H 0.32248 0.06914 0.0156 0.0
H1744 H 0.2938 0.97385 0.03562 0.0
H1745 H 0.35839 0.0584 0.04764 0.0
H1746 H 0.31722 0.97437 0.99628 0.0
H1747 H 0.28867 0.9816 0.99848 0.0
H1748 H 0.28983 0.95502 0.01047 0.0
H1749 H 0.39294 0.07389 0.00871 0.0
H1750 H 0.3968 0.08523 0.02881 0.0
H1751 H 0.37334 0.08993 0.01604 0.0
C1752 C 0.03075 0.73128 0.96693 0.0
C1753 C 0.00912 0.73707 0.96299 0.0
C1754 C 0.03653 0.72862 0.98267 0.0
C1755 C 0.02077 0.73252 0.9946 0.0
C1756 C 0.9968 0.73482 0.99051 0.0
C1757 C 0.99115 0.73677 0.9748 0.0
C1758 C 0.06097 0.72404 0.98652 0.0
C1759 C 0.97894 0.73852 1.00273 0.0
C1760 C 0.02833 0.73282 0.03878 0.0
C1761 C 0.0458 0.76201 0.04157 0.0
C1762 C 0.02202 0.72211 0.02343 0.0
C1763 C 0.03272 0.74115 0.01064 0.0
C1764 C 0.05199 0.77023 0.01347 0.0
C1765 C 0.05863 0.78008 0.02878 0.0
C1766 C 0.00269 0.6907 0.02107 0.0
C1767 C 0.06385 0.79162 1.00036 0.0
H1768 H 0.04447 0.73093 0.9579 0.0
H1769 H 0.9738 0.74033 0.97184 0.0
H1770 H 0.08027 0.7448 0.98875 0.0
H1771 H 0.05641 0.71087 0.99715 0.0
H1772 H 0.06561 0.7136 0.97675 0.0
H1773 H 0.9598 0.73783 0.99769 0.0
H1774 H 0.97203 0.72169 0.01168 0.0
H1775 H 0.99178 0.75927 0.00865 0.0
H1776 H 0.01864 0.71848 0.04851 0.0
H1777 H 0.07278 0.80258 0.03066 0.0
H1778 H 0.0059 0.68357 0.00953 0.0
H1779 H 0.9803 0.68561 0.02193 0.0
H1780 H 0.00621 0.67846 0.03028 0.0
H1781 H 0.07497 0.78539 0.99179 0.0
H1782 H 0.07899 0.81338 0.00453 0.0
H1783 H 0.04627 0.79225 0.99417 0.0
C1784 C 0.30483 0.34458 0.03044 0.0
C1785 C 0.31605 0.33347 0.04123 0.0
C1786 C 0.31101 0.34561 0.01454 0.0
C1787 C 0.32886 0.33527 0.00937 0.0
C1788 C 0.34402 0.32878 0.0205 0.0
C1789 C 0.33729 0.32776 0.0364 0.0
C1790 C 0.29501 0.35359 0.0032 0.0
C1791 C 0.36446 0.31922 0.01549 0.0
C1792 C 0.29675 0.28402 0.97575 0.0
C1793 C 0.31114 0.30069 0.96276 0.0
C1794 C 0.30303 0.29498 0.99085 0.0
C1795 C 0.32475 0.32342 0.99329 0.0
C1796 C 0.34025 0.3402 0.98035 0.0
C1797 C 0.33301 0.32875 0.96518 0.0
C1798 C 0.28558 0.27615 0.00417 0.0
C1799 C 0.36395 0.3704 0.98234 0.0
H1800 H 0.2887 0.34944 0.03421 0.0
H1801 H 0.34622 0.31937 0.0447 0.0
H1802 H 0.30902 0.36656 0.99356 0.0
H1803 H 0.27729 0.334 0.99806 0.0
H1804 H 0.28598 0.36563 0.00893 0.0
H1805 H 0.37945 0.3219 0.02499 0.0
H1806 H 0.35241 0.2964 0.01232 0.0
H1807 H 0.37672 0.33125 0.00512 0.0
H1808 H 0.27978 0.26234 0.97413 0.0
H1809 H 0.34443 0.3418 0.95528 0.0
H1810 H 0.27444 0.2858 0.01023 0.0
H1811 H 0.29958 0.27402 0.01278 0.0
H1812 H 0.26945 0.25454 1.00026 0.0
H1813 H 0.35506 0.38481 0.98188 0.0
H1814 H 0.37978 0.37663 0.97282 0.0
H1815 H 0.37494 0.3736 0.99366 0.0
C1816 C 0.72683 0.02663 0.96897 0.0
C1817 C 0.75501 0.04721 0.96564 0.0
C1818 C 0.71709 0.02081 0.98449 0.0
C1819 C 0.73622 0.03528 0.99686 0.0
C1820 C 0.76354 0.05823 0.99338 0.0
C1821 C 0.77235 0.06417 0.97785 0.0
C1822 C 0.68703 0.99772 0.98762 0.0
C1823 C 0.78475 0.07461 0.00605 0.0
C1824 C 0.72759 0.02956 0.04085 0.0
C1825 C 0.73784 0.011 0.04412 0.0
C1826 C 0.72356 0.03536 0.02533 0.0
C1827 C 0.73081 0.02301 0.0129 0.0
C1828 C 0.73847 0.00223 0.01624 0.0
C1829 C 0.74133 0.99616 0.03173 0.0
C1830 C 0.71337 0.05611 0.02239 0.0
C1831 C 0.7465 0.98836 0.0035 0.0
H1832 H 0.71298 0.01377 0.95963 0.0
H1833 H 0.79387 0.0808 0.97539 0.0
H1834 H 0.68626 0.97701 0.98853 0.0
H1835 H 0.67889 0.00155 0.99866 0.0
H1836 H 0.67277 0.99613 0.97794 0.0
H1837 H 0.80465 0.09265 1.00139 0.0
H1838 H 0.7755 0.08306 0.01452 0.0
H1839 H 0.79021 0.06024 0.01245 0.0
H1840 H 0.72421 0.04076 0.05028 0.0
H1841 H 0.74837 0.98107 0.03408 0.0
H1842 H 0.70306 0.05275 0.01083 0.0
H1843 H 0.73164 0.07806 0.02286 0.0
H1844 H 0.69809 0.05425 0.03152 0.0
H1845 H 0.72909 0.97808 0.99491 0.0
H1846 H 0.75124 0.97207 0.00807 0.0
H1847 H 0.76554 0.00472 0.99726 0.0
C1848 C 0.70903 0.67112 0.30253 0.0
C1849 C 0.68166 0.65087 0.29773 0.0
C1850 C 0.71504 0.67771 0.31843 0.0
C1851 C 0.69318 0.66354 0.32959 0.0
C1852 C 0.66482 0.64668 0.32443 0.0
C1853 C 0.65943 0.6405 0.30854 0.0
C1854 C 0.7454 0.69673 0.32337 0.0
C1855 C 0.64065 0.6315 0.33578 0.0
C1856 C 0.71004 0.63032 0.36361 0.0
C1857 C 0.70903 0.6458 0.37642 0.0
C1858 C 0.70564 0.63652 0.34843 0.0
C1859 C 0.70046 0.65922 0.34574 0.0
C1860 C 0.70025 0.67565 0.3585 0.0
C1861 C 0.70435 0.66862 0.37374 0.0
C1862 C 0.70562 0.61795 0.33531 0.0
C1863 C 0.69579 0.7006 0.35606 0.0
H1864 H 0.7263 0.67925 0.29421 0.0
H1865 H 0.63817 0.62504 0.3048 0.0
H1866 H 0.7466 0.70943 0.33375 0.0
H1867 H 0.75492 0.68351 0.32651 0.0
H1868 H 0.75824 0.71133 0.31385 0.0
H1869 H 0.61977 0.6243 0.33014 0.0
H1870 H 0.64089 0.61257 0.3404 0.0
H1871 H 0.64285 0.64534 0.34578 0.0
H1872 H 0.71348 0.61255 0.36543 0.0
H1873 H 0.70384 0.68092 0.38353 0.0
H1874 H 0.7218 0.63105 0.3265 0.0
H1875 H 0.68465 0.60744 0.32944 0.0
H1876 H 0.71012 0.60123 0.3394 0.0
H1877 H 0.71439 0.71766 0.34986 0.0
H1878 H 0.69312 0.70929 0.36722 0.0
H1879 H 0.67692 0.69456 0.34865 0.0
C1880 C 0.39013 0.04743 0.37189 0.0
C1881 C 0.38436 0.06883 0.3763 0.0
C1882 C 0.38946 0.04027 0.35608 0.0
C1883 C 0.38333 0.05521 0.34463 0.0
C1884 C 0.37285 0.07318 0.34939 0.0
C1885 C 0.37344 0.07972 0.3652 0.0
C1886 C 0.39923 0.01976 0.35154 0.0
C1887 C 0.36548 0.08921 0.33771 0.0
C1888 C 0.43635 0.0873 0.31181 0.0
C1889 C 0.42035 0.07304 0.29862 0.0
C1890 C 0.42461 0.081 0.32673 0.0
C1891 C 0.39602 0.05934 0.32877 0.0
C1892 C 0.37984 0.04404 0.31562 0.0
C1893 C 0.39214 0.05124 0.30064 0.0
C1894 C 0.44275 0.09841 0.34027 0.0
C1895 C 0.34974 0.02001 0.31737 0.0
H1896 H 0.39838 0.03876 0.38044 0.0
H1897 H 0.36857 0.09599 0.36865 0.0
H1898 H 0.38775 0.00745 0.34107 0.0
H1899 H 0.4222 0.03177 0.34873 0.0
H1900 H 0.39603 0.00483 0.36117 0.0
H1901 H 0.35248 0.09753 0.34303 0.0
H1902 H 0.38535 0.10748 0.33321 0.0
H1903 H 0.35375 0.07557 0.32768 0.0
H1904 H 0.45811 0.10427 0.31047 0.0
H1905 H 0.37973 0.03985 0.29055 0.0
H1906 H 0.44456 0.08439 0.34899 0.0
H1907 H 0.43276 0.10944 0.34608 0.0
H1908 H 0.4645 0.11464 0.33663 0.0
H1909 H 0.34997 0.00166 0.32285 0.0
H1910 H 0.33871 0.01307 0.30599 0.0
H1911 H 0.33736 0.02611 0.3251 0.0
C1912 C 0.96293 0.35975 0.36213 0.0
C1913 C 0.97571 0.35523 0.37515 0.0
C1914 C 0.97442 0.36311 0.34725 0.0
C1915 C -0.00035 0.36197 0.3451 0.0
C1916 C 0.01316 0.35795 0.35819 0.0
C1917 C 0.00102 0.35466 0.37314 0.0
C1918 C 0.95928 0.36786 0.33381 0.0
C1919 C 0.03986 0.3563 0.35643 0.0
C1920 C 0.99751 0.34735 0.30259 0.0
C1921 C 0.00846 0.37508 0.29704 0.0
C1922 C -0.0012 0.34235 0.31856 0.0
C1923 C 0.01121 0.36566 0.32898 0.0
C1924 C 0.02695 0.39349 0.32289 0.0
C1925 C 0.02513 0.39791 0.30695 0.0
C1926 C 0.98284 0.31228 0.32449 0.0
C1927 C 0.04155 0.41896 0.33345 0.0
H1928 H 0.94364 0.36075 0.36355 0.0
H1929 H 0.01096 0.35105 0.38312 0.0
H1930 H 0.97363 0.38837 0.32804 0.0
H1931 H 0.953 0.3508 0.32502 0.0
H1932 H 0.93989 0.36816 0.33754 0.0
H1933 H 0.05152 0.36057 0.36762 0.0
H1934 H 0.03412 0.33462 0.35255 0.0
H1935 H 0.05421 0.37146 0.34754 0.0
H1936 H 0.98469 0.32963 0.29494 0.0
H1937 H 0.03387 0.41941 0.30262 0.0
H1938 H 0.96136 0.30733 0.3283 0.0
H1939 H 0.99382 0.30953 0.33465 0.0
H1940 H 0.9804 0.29686 0.3153 0.0
H1941 H 0.02566 0.4243 0.33795 0.0
H1942 H 0.05817 0.43776 0.32714 0.0
H1943 H 0.05134 0.41445 0.34356 0.0
C1944 C 0.69512 0.11129 0.36602 0.0
C1945 C 0.6983 0.09627 0.37839 0.0
C1946 C 0.69225 0.10183 0.35065 0.0
C1947 C 0.69256 0.07649 0.34733 0.0
C1948 C 0.6952 0.06073 0.35974 0.0
C1949 C 0.69799 0.0708 0.37518 0.0
C1950 C 0.68901 0.11924 0.33794 0.0
C1951 C 0.69575 0.03371 0.35671 0.0
C1952 C 0.65969 0.05467 0.30779 0.0
C1953 C 0.68359 0.07006 0.29834 0.0
C1954 C 0.66248 0.05268 0.32391 0.0
C1955 C 0.6898 0.0672 0.33075 0.0
C1956 C 0.71406 0.07949 0.32097 0.0
C1957 C 0.71064 0.0807 0.3048 0.0
C1958 C 0.63603 0.03849 0.33376 0.0
C1959 C 0.74359 0.09485 0.3277 0.0
H1960 H 0.69484 0.13074 0.36833 0.0
H1961 H 0.70056 0.05911 0.38465 0.0
H1962 H 0.70638 0.12599 0.32932 0.0
H1963 H 0.66866 0.10625 0.3317 0.0
H1964 H 0.68936 0.13852 0.34251 0.0
H1965 H 0.69259 0.02135 0.36755 0.0
H1966 H 0.67921 0.02016 0.34816 0.0
H1967 H 0.71661 0.03903 0.35168 0.0
H1968 H 0.63873 0.04646 0.30278 0.0
H1969 H 0.72915 0.09284 0.29753 0.0
H1970 H 0.6314 0.05483 0.33834 0.0
H1971 H 0.63892 0.02746 0.34384 0.0
H1972 H 0.61739 0.02292 0.3269 0.0
H1973 H 0.74825 0.11603 0.33193 0.0
H1974 H 0.75983 0.09796 0.31889 0.0
H1975 H 0.74539 0.08306 0.33775 0.0
C1976 C 0.96795 0.6737 0.36343 0.0
C1977 C 0.98059 0.66407 0.37423 0.0
C1978 C 0.97344 0.67423 0.34745 0.0
C1979 C 0.99214 0.66501 0.34217 0.0
C1980 C 0.00841 0.65983 0.35322 0.0
C1981 C 0.0023 0.65921 0.36921 0.0
C1982 C 0.95607 0.68061 0.33621 0.0
C1983 C 0.02971 0.65147 0.34809 0.0
C1984 C 0.96154 0.61349 0.30852 0.0
C1985 C 0.97505 0.63052 0.29548 0.0
C1986 C 0.96769 0.62443 0.32364 0.0
C1987 C 0.98839 0.65326 0.32606 0.0
C1988 C 0.00307 0.67046 0.31306 0.0
C1989 C 0.99596 0.65899 0.29789 0.0
C1990 C 0.95112 0.60513 0.33701 0.0
C1991 C 0.02569 0.70111 0.31503 0.0
H1992 H 0.95142 0.67788 0.36731 0.0
H1993 H 0.01228 0.65191 0.37749 0.0
H1994 H 0.9694 0.69389 0.32646 0.0
H1995 H 0.93899 0.66042 0.33123 0.0
H1996 H 0.94607 0.69172 0.34198 0.0
H1997 H 0.04519 0.65504 0.35747 0.0
H1998 H 0.01847 0.62859 0.34504 0.0
H1999 H 0.04138 0.66362 0.33761 0.0
H2000 H 0.94534 0.59148 0.30695 0.0
H2001 H 0.00671 0.67235 0.28795 0.0
H2002 H 0.93918 0.61379 0.34318 0.0
H2003 H 0.96582 0.60394 0.34551 0.0
H2004 H 0.93579 0.58322 0.33312 0.0
H2005 H 0.01567 0.71455 0.31489 0.0
H2006 H 0.04127 0.70821 0.30534 0.0
H2007 H 0.03719 0.70474 0.32621 0.0
C2008 C 0.40289 0.3248 0.36214 0.0
C2009 C 0.40359 0.34318 0.37383 0.0
C2010 C 0.40184 0.33066 0.34637 0.0
C2011 C 0.40082 0.35525 0.34208 0.0
C2012 C 0.39764 0.37178 0.35383 0.0
C2013 C 0.39934 0.36572 0.36963 0.0
C2014 C 0.40505 0.31219 0.33435 0.0
C2015 C 0.39489 0.39725 0.34975 0.0
C2016 C 0.44756 0.38988 0.30712 0.0
C2017 C 0.42847 0.37775 0.29467 0.0
C2018 C 0.43843 0.38423 0.3226 0.0
C2019 C 0.40924 0.36643 0.3259 0.0
C2020 C 0.38946 0.3563 0.31347 0.0
C2021 C 0.39932 0.36182 0.29796 0.0
C2022 C 0.46048 0.39556 0.33538 0.0
C2023 C 0.35804 0.33828 0.31642 0.0
H2024 H 0.4054 0.30687 0.36528 0.0
H2025 H 0.39945 0.37985 0.37856 0.0
H2026 H 0.38898 0.30627 0.32503 0.0
H2027 H 0.4263 0.3242 0.32885 0.0
H2028 H 0.40285 0.29245 0.33948 0.0
H2029 H 0.38512 0.40296 0.35942 0.0
H2030 H 0.41624 0.4157 0.34747 0.0
H2031 H 0.38193 0.39326 0.33909 0.0
H2032 H 0.47009 0.40279 0.30481 0.0
H2033 H 0.38427 0.35263 0.28848 0.0
H2034 H 0.4608 0.37764 0.34136 0.0
H2035 H 0.45513 0.40702 0.34419 0.0
H2036 H 0.48213 0.41024 0.3309 0.0
H2037 H 0.35233 0.3157 0.31733 0.0
H2038 H 0.34556 0.34009 0.30671 0.0
H2039 H 0.35183 0.34433 0.32744 0.0
C2040 C 0.35206 0.99353 0.70497 0.0
C2041 C 0.37705 0.99372 0.70916 0.0
C2042 C 0.34572 0.99477 0.68917 0.0
C2043 C 0.36453 0.99561 0.67747 0.0
C2044 C 0.39141 -0.00024 0.68187 0.0
C2045 C 0.39739 -0.00101 0.69765 0.0
C2046 C 0.31767 0.99226 0.68497 0.0
C2047 C 0.41246 0.00129 0.66991 0.0
C2048 C 0.33511 0.94527 0.64336 0.0
C2049 C 0.34348 0.96375 0.63053 0.0
C2050 C 0.34045 0.95547 0.65864 0.0
C2051 C 0.35396 0.98506 0.66142 0.0
C2052 C 0.36043 0.00382 0.64863 0.0
C2053 C 0.35546 0.99298 0.63331 0.0
C2054 C 0.33329 0.93446 0.67179 0.0
C2055 C 0.37377 0.03541 0.65096 0.0
H2056 H 0.33636 0.9898 0.71381 0.0
H2057 H 0.41706 -0.00019 0.70089 0.0
H2058 H 0.31977 0.00503 0.67446 0.0
H2059 H 0.30203 0.96978 0.68234 0.0
H2060 H 0.3092 -0.0007 0.69469 0.0
H2061 H 0.43347 0.00761 0.67514 0.0
H2062 H 0.40421 0.98017 0.66436 0.0
H2063 H 0.41541 0.01667 0.66064 0.0
H2064 H 0.32543 0.9226 0.6415 0.0
H2065 H 0.36169 0.00752 0.62356 0.0
H2066 H 0.31945 0.9368 0.68041 0.0
H2067 H 0.353 0.9387 0.67789 0.0
H2068 H 0.32229 0.91211 0.66767 0.0
H2069 H 0.36802 0.04063 0.66239 0.0
H2070 H 0.36724 0.04503 0.6416 0.0
H2071 H 0.39719 0.04531 0.65043 0.0
C2072 C 0.06232 0.39107 0.70402 0.0
C2073 C 0.06175 0.41565 0.70833 0.0
C2074 C 0.06182 0.38403 0.68818 0.0
C2075 C 0.06136 0.40231 0.67656 0.0
C2076 C 0.05682 0.42479 0.68101 0.0
C2077 C 0.05685 0.43101 0.69682 0.0
C2078 C 0.06471 0.35872 0.6839 0.0
C2079 C 0.05565 0.44461 0.66912 0.0
C2080 C 0.11334 0.42467 0.64319 0.0
C2081 C 0.09551 0.41507 0.63009 0.0
C2082 C 0.10241 0.41919 0.65832 0.0
C2083 C 0.07271 0.40291 0.66064 0.0
C2084 C 0.05462 0.39101 0.64757 0.0
C2085 C 0.06619 0.39753 0.63241 0.0
C2086 C 0.12273 0.43263 0.67178 0.0
C2087 C 0.02296 0.37253 0.64941 0.0
H2088 H 0.0657 0.37882 0.71284 0.0
H2089 H 0.05565 0.44963 0.70013 0.0
H2090 H 0.05243 0.34835 0.6732 0.0
H2091 H 0.08732 0.36576 0.68154 0.0
H2092 H 0.05735 0.3429 0.69347 0.0
H2093 H 0.04895 0.45903 0.67433 0.0
H2094 H 0.07696 0.45775 0.66385 0.0
H2095 H 0.04071 0.4324 0.65963 0.0
H2096 H 0.13608 0.43779 0.64168 0.0
H2097 H 0.05215 0.38962 0.62244 0.0
H2098 H 0.12011 0.41619 0.68029 0.0
H2099 H 0.11806 0.4478 0.6779 0.0
H2100 H 0.14526 0.44425 0.66799 0.0
H2101 H 0.01724 0.36121 0.66073 0.0
H2102 H 0.01392 0.35667 0.63988 0.0
H2103 H 0.01293 0.38593 0.64877 0.0
C2104 C 0.62768 0.69133 0.69474 0.0
C2105 C 0.64111 0.68863 0.70804 0.0
C2106 C 0.63984 0.69548 0.68001 0.0
C2107 C 0.66649 0.69709 0.67828 0.0
C2108 C 0.68061 0.69483 0.69163 0.0
C2109 C 0.66773 0.69066 0.70644 0.0
C2110 C 0.62389 0.69823 0.6663 0.0
C2111 C 0.70883 0.69608 0.69031 0.0
C2112 C 0.66661 0.6833 0.63591 0.0
C2113 C 0.67487 0.71058 0.63042 0.0
C2114 C 0.66855 0.67869 0.65186 0.0
C2115 C 0.67885 0.70192 0.66232 0.0
C2116 C 0.69227 0.72985 0.65627 0.0
C2117 C 0.68978 0.73386 0.64035 0.0
C2118 C 0.65519 0.64864 0.65776 0.0
C2119 C 0.70473 0.75535 0.66687 0.0
H2120 H 0.60737 0.69039 0.69581 0.0
H2121 H 0.67821 0.68851 0.71664 0.0
H2122 H 0.63685 0.71914 0.6606 0.0
H2123 H 0.61957 0.68155 0.65755 0.0
H2124 H 0.6033 0.69627 0.66972 0.0
H2125 H 0.72031 0.70169 0.7016 0.0
H2126 H 0.7052 0.67491 0.68676 0.0
H2127 H 0.72251 0.71162 0.68137 0.0
H2128 H 0.65522 0.66525 0.62823 0.0
H2129 H 0.69654 0.75505 0.63604 0.0
H2130 H 0.63307 0.64145 0.66145 0.0
H2131 H 0.66691 0.64732 0.66799 0.0
H2132 H 0.6546 0.63398 0.64858 0.0
H2133 H 0.68743 0.75867 0.67128 0.0
H2134 H 0.72024 0.77487 0.6606 0.0
H2135 H 0.71536 0.75211 0.67703 0.0
C2136 C 0.36154 0.43428 0.69432 0.0
C2137 C 0.36457 0.42065 0.70743 0.0
C2138 C 0.3592 0.42334 0.67934 0.0
C2139 C 0.3599 0.39787 0.67718 0.0
C2140 C 0.3625 0.38357 0.69034 0.0
C2141 C 0.36478 0.39514 0.70536 0.0
C2142 C 0.35601 0.43929 0.66578 0.0
C2143 C 0.3636 0.35656 0.68858 0.0
C2144 C 0.32729 0.37307 0.63801 0.0
C2145 C 0.35111 0.38901 0.62859 0.0
C2146 C 0.33013 0.37156 0.65416 0.0
C2147 C 0.3574 0.38688 0.66098 0.0
C2148 C 0.38165 0.39886 0.65121 0.0
C2149 C 0.37821 0.39977 0.63503 0.0
C2150 C 0.30368 0.35752 0.66402 0.0
C2151 C 0.41115 0.41461 0.65795 0.0
H2152 H 0.36094 0.45377 0.69573 0.0
H2153 H 0.36727 0.38453 0.7154 0.0
H2154 H 0.37368 0.4455 0.65742 0.0
H2155 H 0.3359 0.42548 0.65952 0.0
H2156 H 0.35591 0.4588 0.6695 0.0
H2157 H 0.35913 0.34482 0.69975 0.0
H2158 H 0.34827 0.34242 0.67969 0.0
H2159 H 0.38513 0.36189 0.68466 0.0
H2160 H 0.30628 0.36465 0.63302 0.0
H2161 H 0.39669 0.41221 0.62779 0.0
H2162 H 0.29855 0.37383 0.66806 0.0
H2163 H 0.30687 0.34741 0.67444 0.0
H2164 H 0.28525 0.34123 0.65732 0.0
H2165 H 0.41592 0.43614 0.66158 0.0
H2166 H 0.42735 0.41696 0.64929 0.0
H2167 H 0.41286 0.40354 0.66837 0.0
C2168 C 0.62656 0.00141 0.70014 0.0
C2169 C 0.6404 0.99359 0.71116 0.0
C2170 C 0.63291 0.0027 0.68424 0.0
C2171 C 0.65349 0.99575 0.67922 0.0
C2172 C 0.67031 0.99188 0.6905 0.0
C2173 C 0.66351 0.99077 0.70642 0.0
C2174 C 0.61467 0.00744 0.67278 0.0
C2175 C 0.69308 0.98533 0.68572 0.0
C2176 C 0.62748 0.94487 0.64519 0.0
C2177 C 0.64085 0.96253 0.63233 0.0
C2178 C 0.63221 0.95545 0.66037 0.0
C2179 C 0.65131 0.98461 0.66307 0.0
C2180 C 0.66583 0.00258 0.65028 0.0
C2181 C 0.66026 0.99137 0.635 0.0
C2182 C 0.61573 0.93536 0.67349 0.0
C2183 C 0.68712 0.03354 0.65275 0.0
H2184 H 0.60892 0.00403 0.70381 0.0
H2185 H 0.67438 0.98483 0.71489 0.0
H2186 H 0.62742 0.02046 0.66279 0.0
H2187 H 0.59809 0.98663 0.66816 0.0
H2188 H 0.60397 0.01806 0.6783 0.0
H2189 H 0.70852 0.98987 0.69527 0.0
H2190 H 0.68315 0.96249 0.68271 0.0
H2191 H 0.70461 0.99778 0.67529 0.0
H2192 H 0.61236 0.92257 0.64343 0.0
H2193 H 0.67095 0.00515 0.62521 0.0
H2194 H 0.60216 0.94249 0.6793 0.0
H2195 H 0.6305 0.9353 0.68235 0.0
H2196 H 0.6019 0.91322 0.66941 0.0
H2197 H 0.67764 0.04394 0.65965 0.0
H2198 H 0.69514 0.04514 0.64159 0.0
H2199 H 0.70539 0.03549 0.6595 0.0
C2200 C 0.05151 0.69508 0.70604 0.0
C2201 C 0.06302 0.67724 0.70805 0.0
C2202 C 0.04534 0.70106 0.69101 0.0
C2203 C 0.05189 0.68983 0.67774 0.0
C2204 C 0.06088 0.66971 0.6799 0.0
C2205 C 0.06557 0.66319 0.69496 0.0
C2206 C 0.03332 0.72062 0.68952 0.0
C2207 C 0.06826 0.65691 0.6663 0.0
C2208 C 0.04642 0.69391 0.63406 0.0
C2209 C 0.07392 0.71604 0.63077 0.0
C2210 C 0.03676 0.68753 0.64958 0.0
C2211 C 0.0555 0.70285 0.66196 0.0
C2212 C 0.08167 0.72747 0.65848 0.0
C2213 C 0.09018 0.73406 0.64295 0.0
C2214 C 0.0074 0.66302 0.65262 0.0
C2215 C 0.10233 0.74508 0.67112 0.0
H2216 H 0.04864 0.7055 0.71605 0.0
H2217 H 0.07338 0.64848 0.69633 0.0
H2218 H 0.04987 0.74256 0.69258 0.0
H2219 H 0.02531 0.72056 0.67764 0.0
H2220 H 0.01567 0.71427 0.69793 0.0
H2221 H 0.07654 0.64287 0.67006 0.0
H2222 H 0.04919 0.64418 0.65906 0.0
H2223 H 0.08455 0.67394 0.65886 0.0
H2224 H 0.03326 0.68029 0.62473 0.0
H2225 H 0.11102 0.75197 0.64046 0.0
H2226 H 4e-05 0.66345 0.66461 0.0
H2227 H 0.00718 0.64272 0.65083 0.0
H2228 H 0.99213 0.66344 0.64419 0.0
H2229 H 0.09231 0.75357 0.67904 0.0
H2230 H 0.12205 0.76326 0.66638 0.0
H2231 H 0.10828 0.7317 0.67813 0.0
C2232 C 0.85903 0.10775 0.0791 0.0
C2233 C 0.83724 0.09603 0.09014 0.0
C2234 C 0.88246 0.13493 0.08111 0.0
C2235 C 0.8845 0.15052 0.09472 0.0
C2236 C 0.86204 0.13924 0.10567 0.0
C2237 C 0.83843 0.11214 0.10315 0.0
C2238 C 0.90562 0.14645 0.06895 0.0
C2239 C 0.86364 0.15504 0.12041 0.0
C2240 C 0.96163 0.19953 0.10427 0.0
C2241 C 0.96631 0.22511 0.09776 0.0
C2242 C 0.93439 0.17565 0.10464 0.0
C2243 C 0.91144 0.17723 0.09795 0.0
C2244 C 0.91571 0.20356 0.09233 0.0
C2245 C 0.94316 0.22737 0.09245 0.0
C2246 C 0.93063 0.14817 0.11113 0.0
C2247 C 0.89188 0.20606 0.08497 0.0
H2248 H 0.85792 0.09544 0.06892 0.0
H2249 H 0.82158 0.10302 0.11173 0.0
H2250 H 0.91101 0.16824 0.06552 0.0
H2251 H 0.92508 0.14771 0.07385 0.0
H2252 H 0.89945 0.13296 0.05836 0.0
H2253 H 0.84307 0.14512 0.12671 0.0
H2254 H 0.87996 0.15519 0.12822 0.0
H2255 H 0.87018 0.17746 0.11782 0.0
H2256 H 0.9795 0.19789 0.10855 0.0
H2257 H 0.94679 0.24715 0.08737 0.0
H2258 H 0.92736 0.13339 0.10143 0.0
H2259 H 0.91161 0.13779 0.11871 0.0
H2260 H 0.9494 0.15148 0.11794 0.0
H2261 H 0.88733 0.19613 0.07327 0.0
H2262 H 0.89735 0.22855 0.08364 0.0
H2263 H 0.87217 0.19466 0.09195 0.0
C2264 C 0.95532 0.78906 0.07763 0.0
C2265 C 0.967 0.77973 0.08913 0.0
C2266 C 0.92778 0.78457 0.07904 0.0
C2267 C 0.91168 0.77102 0.0925 0.0
C2268 C 0.923 0.76076 0.10398 0.0
C2269 C 0.95053 0.76496 0.10206 0.0
C2270 C 0.9163 0.79528 0.06634 0.0
C2271 C 0.90663 0.7466 0.11858 0.0
C2272 C 0.85982 0.7965 0.10004 0.0
C2273 C 0.83495 0.77471 0.09339 0.0
C2274 C 0.88435 0.79435 0.1011 0.0
C2275 C 0.88422 0.77015 0.09494 0.0
C2276 C 0.85865 0.74731 0.08904 0.0
C2277 C 0.83413 0.74973 0.08851 0.0
C2278 C 0.91095 0.81888 0.10785 0.0
C2279 C 0.85773 0.72132 0.08219 0.0
H2280 H 0.96786 0.80004 0.06748 0.0
H2281 H 0.95956 0.75773 0.11096 0.0
H2282 H 0.89501 0.77824 0.06261 0.0
H2283 H 0.9139 0.81309 0.07084 0.0
H2284 H 0.93042 0.80287 0.056 0.0
H2285 H 0.91688 0.73685 0.12543 0.0
H2286 H 0.90521 0.76256 0.12597 0.0
H2287 H 0.88463 0.72997 0.11571 0.0
H2288 H 0.8603 0.81565 0.10404 0.0
H2289 H 0.81486 0.73287 0.08335 0.0
H2290 H 0.92616 0.83052 0.09833 0.0
H2291 H 0.92141 0.81106 0.11594 0.0
H2292 H 0.90649 0.83403 0.11418 0.0
H2293 H 0.86867 0.72686 0.07076 0.0
H2294 H 0.83562 0.70377 0.08041 0.0
H2295 H 0.86902 0.71369 0.08977 0.0
C2296 C 0.31244 0.11699 0.08443 0.0
C2297 C 0.28597 0.09244 0.08637 0.0
C2298 C 0.31488 0.14398 0.08442 0.0
C2299 C 0.29037 0.14634 0.08681 0.0
C2300 C 0.26394 0.12164 0.08971 0.0
C2301 C 0.26199 0.09498 0.08923 0.0
C2302 C 0.3433 0.16974 0.08096 0.0
C2303 C 0.23743 0.12326 0.09272 0.0
C2304 C 0.29479 0.21688 0.09591 0.0
C2305 C 0.28626 0.22285 0.0817 0.0
C2306 C 0.29708 0.19241 0.0977 0.0
C2307 C 0.29149 0.17406 0.08484 0.0
C2308 C 0.28446 0.18098 0.07025 0.0
C2309 C 0.28149 0.20504 0.06892 0.0
C2310 C 0.30399 0.18543 0.11352 0.0
C2311 C 0.27908 0.16242 0.05613 0.0
H2312 H 0.33097 0.11501 0.08214 0.0
H2313 H 0.24156 0.076 0.0909 0.0
H2314 H 0.34254 0.17833 0.06938 0.0
H2315 H 0.34829 0.18672 0.08962 0.0
H2316 H 0.36074 0.16472 0.08094 0.0
H2317 H 0.21936 0.10254 0.0965 0.0
H2318 H 0.24146 0.13935 0.1018 0.0
H2319 H 0.23115 0.12996 0.08195 0.0
H2320 H 0.29835 0.23062 0.10582 0.0
H2321 H 0.27524 0.20987 0.05787 0.0
H2322 H 0.32135 0.18043 0.11266 0.0
H2323 H 0.28511 0.16629 0.11819 0.0
H2324 H 0.31031 0.2031 0.12193 0.0
H2325 H 0.29665 0.15785 0.05456 0.0
H2326 H 0.27692 0.17238 0.04533 0.0
H2327 H 0.25929 0.14182 0.05782 0.0
C2328 C 0.20226 0.95243 0.93281 0.0
C2329 C 0.2223 0.96441 0.92086 0.0
C2330 C 0.17822 0.92557 0.93111 0.0
C2331 C 0.1737 0.91068 0.91692 0.0
C2332 C 0.19444 0.9222 0.90502 0.0
C2333 C 0.21879 0.9489 0.90721 0.0
C2334 C 0.15698 0.91374 0.94425 0.0
C2335 C 0.19015 0.90718 0.88965 0.0
C2336 C 0.11385 0.83414 0.9182 0.0
C2337 C 0.09062 0.8374 0.9143 0.0
C2338 C 0.14149 0.85764 0.91834 0.0
C2339 C 0.14587 0.88472 0.91416 0.0
C2340 C 0.12266 0.88759 0.90911 0.0
C2341 C 0.09527 0.86396 0.90944 0.0
C2342 C 0.16562 0.85381 0.924 0.0
C2343 C 0.1265 0.91596 0.9042 0.0
H2344 H 0.20522 0.96432 0.94344 0.0
H2345 H 0.2343 0.95827 0.89795 0.0
H2346 H 0.13725 0.91357 0.94082 0.0
H2347 H 0.15128 0.8915 0.94677 0.0
H2348 H 0.16519 0.92642 0.95509 0.0
H2349 H 0.20967 0.9171 0.88241 0.0
H2350 H 0.18345 0.8845 0.89149 0.0
H2351 H 0.17295 0.9079 0.88309 0.0
H2352 H 0.11024 0.81359 0.92199 0.0
H2353 H 0.07734 0.8664 0.90621 0.0
H2354 H 0.17212 0.86321 0.93578 0.0
H2355 H 0.18435 0.86503 0.91629 0.0
H2356 H 0.15955 0.83107 0.92465 0.0
H2357 H 0.13178 0.92997 0.91451 0.0
H2358 H 0.10707 0.9139 0.89872 0.0
H2359 H 0.14436 0.92656 0.89586 0.0
C2360 C 0.19389 0.26114 0.90495 0.0
C2361 C 0.22063 0.28276 0.90975 0.0
C2362 C 0.17036 0.26512 0.90513 0.0
C2363 C 0.17357 0.2911 0.91064 0.0
C2364 C 0.20089 0.31364 0.91456 0.0
C2365 C 0.22423 0.30929 0.91391 0.0
C2366 C 0.14172 0.24078 0.90046 0.0
C2367 C 0.20513 0.34153 0.92064 0.0
C2368 C 0.10941 0.30076 0.90619 0.0
C2369 C 0.09501 0.28888 0.92015 0.0
C2370 C 0.13564 0.30264 0.90305 0.0
C2371 C 0.14786 0.29294 0.9143 0.0
C2372 C 0.13412 0.28252 0.92878 0.0
C2373 C 0.10771 0.28031 0.93145 0.0
C2374 C 0.14946 0.3135 0.88742 0.0
C2375 C 0.14675 0.27258 0.94124 0.0
H2376 H 0.19116 0.24073 0.90155 0.0
H2377 H 0.2449 0.32601 0.91769 0.0
H2378 H 0.12838 0.23164 0.91098 0.0
H2379 H 0.1306 0.24834 0.89269 0.0
H2380 H 0.14347 0.22365 0.89443 0.0
H2381 H 0.2279 0.35821 0.92083 0.0
H2382 H 0.19328 0.34911 0.91349 0.0
H2383 H 0.19675 0.33852 0.93268 0.0
H2384 H 0.09952 0.30729 0.89741 0.0
H2385 H 0.09676 0.27146 0.94233 0.0
H2386 H 0.14809 0.29563 0.88051 0.0
H2387 H 0.17229 0.32933 0.88882 0.0
H2388 H 0.13911 0.32334 0.88073 0.0
H2389 H 0.14666 0.25314 0.93725 0.0
H2390 H 0.1348 0.26772 0.95236 0.0
H2391 H 0.16914 0.28899 0.94347 0.0
C2392 C 0.7461 0.82918 0.91958 0.0
C2393 C 0.77251 0.83177 0.91622 0.0
C2394 C 0.74269 0.85314 0.91963 0.0
C2395 C 0.76609 0.88006 0.91591 0.0
C2396 C 0.79222 0.88236 0.91148 0.0
C2397 C 0.79521 0.85825 0.91188 0.0
C2398 C 0.71463 0.8499 0.92463 0.0
C2399 C 0.81751 0.91057 0.90707 0.0
C2400 C 0.75947 0.94529 0.90808 0.0
C2401 C 0.77071 0.96058 0.92188 0.0
C2402 C 0.75666 0.91834 0.90611 0.0
C2403 C 0.76463 0.90635 0.91837 0.0
C2404 C 0.77414 0.92101 0.93268 0.0
C2405 C 0.77745 0.94813 0.93417 0.0
C2406 C 0.74688 0.90357 0.8906 0.0
C2407 C 0.78215 0.90868 0.94619 0.0
H2408 H 0.72852 0.8087 0.92296 0.0
H2409 H 0.81554 0.86022 0.90906 0.0
H2410 H 0.71696 0.85938 0.93635 0.0
H2411 H 0.70795 0.86141 0.91659 0.0
H2412 H 0.69761 0.82729 0.92515 0.0
H2413 H 0.83508 0.90819 0.90214 0.0
H2414 H 0.81129 0.92162 0.89842 0.0
H2415 H 0.82556 0.92435 0.91751 0.0
H2416 H 0.75437 0.95504 0.89856 0.0
H2417 H 0.78581 0.95986 0.94491 0.0
H2418 H 0.73052 0.88097 0.89222 0.0
H2419 H 0.7651 0.90405 0.88452 0.0
H2420 H 0.73809 0.91387 0.88303 0.0
H2421 H 0.76518 0.88651 0.94844 0.0
H2422 H 0.78596 0.92123 0.95702 0.0
H2423 H 0.80178 0.90817 0.94332 0.0
C2424 C 0.52318 0.43848 0.40903 0.0
C2425 C 0.50221 0.42649 0.42051 0.0
C2426 C 0.54707 0.46533 0.4111 0.0
C2427 C 0.55044 0.48017 0.42519 0.0
C2428 C 0.5288 0.46861 0.43661 0.0
C2429 C 0.50465 0.44193 0.43404 0.0
C2430 C 0.5693 0.47724 0.39844 0.0
C2431 C 0.53186 0.48357 0.45188 0.0
C2432 C 0.62832 0.52738 0.43378 0.0
C2433 C 0.63309 0.55367 0.42833 0.0
C2434 C 0.60094 0.50371 0.43404 0.0
C2435 C 0.57791 0.50629 0.42835 0.0
C2436 C 0.58234 0.53319 0.42372 0.0
C2437 C 0.60995 0.55671 0.42392 0.0
C2438 C 0.59699 0.47555 0.43945 0.0
C2439 C 0.5584 0.53673 0.41743 0.0
H2440 H 0.52105 0.42663 0.39849 0.0
H2441 H 0.48841 0.43253 0.44293 0.0
H2442 H 0.57499 0.49939 0.3957 0.0
H2443 H 0.58885 0.47765 0.40251 0.0
H2444 H 0.56204 0.46447 0.38759 0.0
H2445 H 0.51175 0.47365 0.45863 0.0
H2446 H 0.54846 0.48276 0.45899 0.0
H2447 H 0.53877 0.50627 0.44993 0.0
H2448 H 0.64616 0.52511 0.43742 0.0
H2449 H 0.61361 0.57706 0.4197 0.0
H2450 H 0.59262 0.46139 0.42928 0.0
H2451 H 0.57855 0.46495 0.44742 0.0
H2452 H 0.61609 0.47792 0.44552 0.0
H2453 H 0.55274 0.52738 0.4056 0.0
H2454 H 0.56429 0.55941 0.41668 0.0
H2455 H 0.5392 0.52532 0.4248 0.0
C2456 C 0.60623 0.08658 0.42871 0.0
C2457 C 0.6288 0.11384 0.43202 0.0
C2458 C 0.57826 0.08141 0.42782 0.0
C2459 C 0.57284 0.10393 0.43057 0.0
C2460 C 0.59527 0.13082 0.43523 0.0
C2461 C 0.62303 0.13552 0.43573 0.0
C2462 C 0.55498 0.05252 0.42271 0.0
C2463 C 0.59028 0.15522 0.43864 0.0
C2464 C 0.51601 0.11015 0.40856 0.0
C2465 C 0.49501 0.10251 0.41993 0.0
C2466 C 0.54071 0.10904 0.41165 0.0
C2467 C 0.54483 0.10081 0.42662 0.0
C2468 C 0.52322 0.09208 0.43798 0.0
C2469 C 0.49834 0.09274 0.43443 0.0
C2470 C 0.56292 0.11782 0.39907 0.0
C2471 C 0.527 0.08356 0.45412 0.0
H2472 H 0.61061 0.06976 0.42577 0.0
H2473 H 0.64041 0.15654 0.43848 0.0
H2474 H 0.53564 0.04547 0.42986 0.0
H2475 H 0.54923 0.05373 0.41046 0.0
H2476 H 0.56163 0.03628 0.42345 0.0
H2477 H 0.60907 0.17342 0.44411 0.0
H2478 H 0.58546 0.16264 0.42765 0.0
H2479 H 0.57177 0.14828 0.44648 0.0
H2480 H 0.51328 0.11737 0.39728 0.0
H2481 H 0.48214 0.08696 0.44327 0.0
H2482 H 0.56941 0.10157 0.3977 0.0
H2483 H 0.58209 0.13801 0.40239 0.0
H2484 H 0.55526 0.1209 0.38766 0.0
H2485 H 0.53452 0.06802 0.45356 0.0
H2486 H 0.50704 0.0742 0.46098 0.0
H2487 H 0.54342 0.10252 0.46039 0.0
C2488 C 0.97475 0.4475 0.42251 0.0
C2489 C 0.94793 0.42394 0.42542 0.0
C2490 C 0.97865 0.47507 0.42227 0.0
C2491 C 0.95529 0.47904 0.42533 0.0
C2492 C 0.92873 0.45548 0.42943 0.0
C2493 C 0.92529 0.42818 0.42924 0.0
C2494 C 0.00719 0.49958 0.41766 0.0
C2495 C 0.90346 0.45888 0.43315 0.0
C2496 C 0.96351 0.55192 0.43186 0.0
C2497 C 0.9537 0.55626 0.41762 0.0
C2498 C 0.9651 0.52724 0.43446 0.0
C2499 C 0.95736 0.50695 0.4224 0.0
C2500 C 0.94908 0.51219 0.40771 0.0
C2501 C 0.94696 0.53658 0.40558 0.0
C2502 C 0.97351 0.52216 0.45035 0.0
C2503 C 0.94136 0.49146 0.39441 0.0
H2504 H 0.99228 0.44428 0.4195 0.0
H2505 H 0.90462 0.41001 0.4317 0.0
H2506 H 0.0058 0.50662 0.40574 0.0
H2507 H 0.01354 0.51792 0.42554 0.0
H2508 H 0.02402 0.49369 0.41778 0.0
H2509 H 0.88551 0.43916 0.43804 0.0
H2510 H 0.90944 0.4764 0.44159 0.0
H2511 H 0.89606 0.46446 0.4224 0.0
H2512 H 0.96858 0.56712 0.4412 0.0
H2513 H 0.93968 0.54012 0.39451 0.0
H2514 H 0.98979 0.51565 0.44936 0.0
H2515 H 0.95473 0.50455 0.45614 0.0
H2516 H 0.98191 0.54128 0.45788 0.0
H2517 H 0.95819 0.48588 0.39266 0.0
H2518 H 0.93825 0.50007 0.38333 0.0
H2519 H 0.92144 0.47157 0.3972 0.0
C2520 C 0.76321 0.20376 0.24957 0.0
C2521 C 0.75925 0.17654 0.252 0.0
C2522 C 0.7905 0.22759 0.24898 0.0
C2523 C 0.81441 0.2242 0.25129 0.0
C2524 C 0.8106 0.19663 0.25312 0.0
C2525 C 0.78301 0.17304 0.25328 0.0
C2526 C 0.79366 0.25654 0.24659 0.0
C2527 C 0.8355 0.19218 0.25587 0.0
C2528 C 0.88671 0.28845 0.24281 0.0
C2529 C 0.89363 0.30187 0.25736 0.0
C2530 C 0.86128 0.26264 0.24066 0.0
C2531 C 0.84285 0.24976 0.25347 0.0
C2532 C 0.8506 0.26255 0.26835 0.0
C2533 C 0.87569 0.28863 0.27006 0.0
C2534 C 0.8535 0.24994 0.22457 0.0
C2535 C 0.83192 0.24918 0.2824 0.0
H2536 H 0.74488 0.20649 0.24836 0.0
H2537 H 0.78 0.15201 0.2552 0.0
H2538 H 0.8011 0.26893 0.25754 0.0
H2539 H 0.8098 0.26843 0.23752 0.0
H2540 H 0.77336 0.25522 0.24313 0.0
H2541 H 0.82933 0.16941 0.25529 0.0
H2542 H 0.85247 0.20412 0.2472 0.0
H2543 H 0.84461 0.20045 0.26754 0.0
H2544 H 0.90054 0.29876 0.23296 0.0
H2545 H 0.8812 0.29882 0.28137 0.0
H2546 H 0.83504 0.25137 0.22024 0.0
H2547 H 0.84709 0.22712 0.22486 0.0
H2548 H 0.87126 0.26099 0.21619 0.0
H2549 H 0.81186 0.24958 0.28102 0.0
H2550 H 0.8423 0.26037 0.29336 0.0
H2551 H 0.82628 0.22663 0.28347 0.0
C2552 C 0.85626 0.58816 0.23886 0.0
C2553 C 0.88319 0.61022 0.24309 0.0
C2554 C 0.83258 0.59191 0.23922 0.0
C2555 C 0.83583 0.61812 0.24432 0.0
C2556 C 0.86325 0.64099 0.24776 0.0
C2557 C 0.88672 0.63684 0.24693 0.0
C2558 C 0.80382 0.56721 0.23506 0.0
C2559 C 0.86755 0.66913 0.25344 0.0
C2560 C 0.77206 0.62847 0.23964 0.0
C2561 C 0.75803 0.61773 0.25383 0.0
C2562 C 0.7979 0.62951 0.23645 0.0
C2563 C 0.81017 0.62019 0.24787 0.0
C2564 C 0.79675 0.61075 0.26251 0.0
C2565 C 0.77067 0.60928 0.26523 0.0
C2566 C 0.8113 0.63924 0.22062 0.0
C2567 C 0.80947 0.60128 0.27516 0.0
H2568 H 0.85354 0.56764 0.23573 0.0
H2569 H 0.90751 0.6539 0.2503 0.0
H2570 H 0.79087 0.55873 0.24576 0.0
H2571 H 0.79236 0.5742 0.22717 0.0
H2572 H 0.80542 0.54974 0.22935 0.0
H2573 H 0.89032 0.68581 0.25354 0.0
H2574 H 0.8557 0.67643 0.24608 0.0
H2575 H 0.85916 0.66661 0.26545 0.0
H2576 H 0.76221 0.63487 0.23077 0.0
H2577 H 0.76001 0.60128 0.27628 0.0
H2578 H 0.8101 0.62096 0.21421 0.0
H2579 H 0.83408 0.6554 0.22176 0.0
H2580 H 0.8006 0.6483 0.21359 0.0
H2581 H 0.80919 0.58158 0.27148 0.0
H2582 H 0.79775 0.59704 0.28632 0.0
H2583 H 0.83194 0.61769 0.27717 0.0
C2584 C 0.46488 0.29496 0.23646 0.0
C2585 C 0.4437 0.29951 0.24268 0.0
C2586 C 0.46154 0.26771 0.23606 0.0
C2587 C 0.43677 0.24463 0.24246 0.0
C2588 C 0.4146 0.24885 0.24794 0.0
C2589 C 0.41821 0.27629 0.24782 0.0
C2590 C 0.48537 0.264 0.22973 0.0
C2591 C 0.38807 0.2249 0.25507 0.0
C2592 C 0.42739 0.17101 0.23693 0.0
C2593 C 0.44159 0.16909 0.25007 0.0
C2594 C 0.42487 0.1952 0.23439 0.0
C2595 C 0.43619 0.21746 0.24548 0.0
C2596 C 0.44917 0.21478 0.25916 0.0
C2597 C 0.45203 0.19082 0.26117 0.0
C2598 C 0.41136 0.19753 0.21956 0.0
C2599 C 0.46089 0.23768 0.27147 0.0
H2600 H 0.48445 0.31288 0.23228 0.0
H2601 H 0.40184 0.27982 0.25267 0.0
H2602 H 0.4965 0.26033 0.23949 0.0
H2603 H 0.4769 0.2452 0.22198 0.0
H2604 H 0.50112 0.28294 0.22314 0.0
H2605 H 0.37122 0.23056 0.25659 0.0
H2606 H 0.37962 0.20549 0.24781 0.0
H2607 H 0.39325 0.21968 0.26666 0.0
H2608 H 0.41936 0.15419 0.22832 0.0
H2609 H 0.46264 0.18912 0.27146 0.0
H2610 H 0.42788 0.21412 0.21202 0.0
H2611 H 0.39549 0.20411 0.22208 0.0
H2612 H 0.40084 0.17722 0.21299 0.0
H2613 H 0.47933 0.25712 0.26674 0.0
H2614 H 0.46786 0.2311 0.28205 0.0
H2615 H 0.44465 0.24331 0.27489 0.0
C2616 C 0.2771 0.89208 0.75368 0.0
C2617 C 0.30092 0.88905 0.75617 0.0
C2618 C 0.24964 0.8683 0.75368 0.0
C2619 C 0.24603 0.84106 0.75661 0.0
C2620 C 0.26992 0.83824 0.76013 0.0
C2621 C 0.2971 0.86222 0.75966 0.0
C2622 C 0.22476 0.8721 0.74962 0.0
C2623 C 0.26693 0.80967 0.76368 0.0
C2624 C 0.17417 0.77623 0.76494 0.0
C2625 C 0.16893 0.76151 0.75085 0.0
C2626 C 0.19875 0.80284 0.7669 0.0
C2627 C 0.21795 0.8151 0.75433 0.0
C2628 C 0.21162 0.80104 0.73978 0.0
C2629 C 0.1874 0.77422 0.73829 0.0
C2630 C 0.20502 0.81693 0.78266 0.0
C2631 C 0.23111 0.81371 0.72595 0.0
H2632 H 0.28003 0.91283 0.75093 0.0
H2633 H 0.31548 0.85989 0.7618 0.0
H2634 H 0.21674 0.86307 0.73791 0.0
H2635 H 0.20711 0.8605 0.75796 0.0
H2636 H 0.23061 0.89481 0.74953 0.0
H2637 H 0.28707 0.81156 0.76796 0.0
H2638 H 0.25021 0.79833 0.77257 0.0
H2639 H 0.26039 0.79643 0.75301 0.0
H2640 H 0.15989 0.76627 0.77467 0.0
H2641 H 0.18313 0.76291 0.72734 0.0
H2642 H 0.21136 0.83965 0.78154 0.0
H2643 H 0.22309 0.81601 0.78802 0.0
H2644 H 0.18652 0.80645 0.79063 0.0
H2645 H 0.23653 0.83608 0.7242 0.0
H2646 H 0.2215 0.8017 0.71507 0.0
H2647 H 0.25121 0.81372 0.72812 0.0
C2648 C 0.28911 0.45892 0.77067 0.0
C2649 C 0.29426 0.44081 0.76144 0.0
C2650 C 0.26201 0.45592 0.77133 0.0
C2651 C 0.23999 0.4351 0.76199 0.0
C2652 C 0.24476 0.4157 0.75335 0.0
C2653 C 0.27187 0.41856 0.75336 0.0
C2654 C 0.25753 0.47641 0.78111 0.0
C2655 C 0.22209 0.39365 0.74296 0.0
C2656 C 0.16523 0.42337 0.76606 0.0
C2657 C 0.16552 0.44229 0.75486 0.0
C2658 C 0.18925 0.42055 0.76852 0.0
C2659 C 0.21382 0.43666 0.75937 0.0
C2660 C 0.21391 0.45523 0.7478 0.0
C2661 C 0.18987 0.45799 0.74579 0.0
C2662 C 0.18859 0.40092 0.78113 0.0
C2663 C 0.23955 0.4725 0.73762 0.0
H2664 H 0.30655 0.47607 0.77694 0.0
H2665 H 0.27608 0.40478 0.74609 0.0
H2666 H 0.25659 0.49234 0.77345 0.0
H2667 H 0.23711 0.4651 0.78749 0.0
H2668 H 0.27496 0.48782 0.78964 0.0
H2669 H 0.22779 0.37782 0.73875 0.0
H2670 H 0.20148 0.38234 0.74914 0.0
H2671 H 0.21912 0.40429 0.73271 0.0
H2672 H 0.1465 0.41131 0.77318 0.0
H2673 H 0.19015 0.47243 0.73701 0.0
H2674 H 0.20491 0.41332 0.79004 0.0
H2675 H 0.19384 0.38526 0.77621 0.0
H2676 H 0.16756 0.38928 0.78693 0.0
H2677 H 0.2577 0.48765 0.74487 0.0
H2678 H 0.23557 0.48471 0.7286 0.0
H2679 H 0.24593 0.45838 0.73175 0.0
C2680 C 0.6261 0.77537 0.76799 0.0
C2681 C 0.61401 0.75996 0.75433 0.0
C2682 C 0.62903 0.80234 0.77015 0.0
C2683 C 0.62033 0.81423 0.75818 0.0
C2684 C 0.6096 0.79929 0.74404 0.0
C2685 C 0.60621 0.77219 0.74239 0.0
C2686 C 0.64006 0.8174 0.78548 0.0
C2687 C 0.60072 0.81149 0.73084 0.0
C2688 C 0.59171 0.86384 0.76476 0.0
C2689 C 0.61433 0.88973 0.75964 0.0
C2690 C 0.59428 0.83952 0.76557 0.0
C2691 C 0.61983 0.84099 0.76071 0.0
C2692 C 0.64327 0.86743 0.75629 0.0
C2693 C 0.64033 0.89167 0.756 0.0
C2694 C 0.56902 0.81189 0.77075 0.0
C2695 C 0.67069 0.86976 0.75078 0.0
H2696 H 0.63208 0.76582 0.77724 0.0
H2697 H 0.59726 0.76041 0.73172 0.0
H2698 H 0.65683 0.83976 0.78357 0.0
H2699 H 0.62255 0.81779 0.79188 0.0
H2700 H 0.64877 0.80682 0.79289 0.0
H2701 H 0.59553 0.79845 0.7201 0.0
H2702 H 0.58174 0.81275 0.73431 0.0
H2703 H 0.61786 0.83337 0.72812 0.0
H2704 H 0.57172 0.86247 0.7678 0.0
H2705 H 0.65782 0.91173 0.75201 0.0
H2706 H 0.57565 0.80087 0.77918 0.0
H2707 H 0.55962 0.79769 0.76056 0.0
H2708 H 0.55235 0.81512 0.77621 0.0
H2709 H 0.67747 0.85818 0.75871 0.0
H2710 H 0.68804 0.89219 0.74993 0.0
H2711 H 0.6674 0.85986 0.73912 0.0
C2712 C 0.53193 0.63019 0.5909 0.0
C2713 C 0.55925 0.63399 0.58917 0.0
C2714 C 0.50778 0.60321 0.58982 0.0
C2715 C 0.51095 0.57925 0.58719 0.0
C2716 C 0.5384 0.58293 0.58507 0.0
C2717 C 0.56226 0.61033 0.58595 0.0
C2718 C 0.47886 0.6003 0.59188 0.0
C2719 C 0.5426 0.55784 0.58243 0.0
C2720 C 0.44828 0.51231 0.60294 0.0
C2721 C 0.43232 0.50036 0.58946 0.0
C2722 C 0.47501 0.5369 0.60218 0.0
C2723 C 0.48545 0.55039 0.58765 0.0
C2724 C 0.46976 0.53776 0.57391 0.0
C2725 C 0.44346 0.51255 0.57497 0.0
C2726 C 0.49142 0.54919 0.61705 0.0
C2727 C 0.47978 0.55184 0.55826 0.0
H2728 H 0.52936 0.64838 0.59318 0.0
H2729 H 0.5833 0.61309 0.58461 0.0
H2730 H 0.46482 0.58822 0.58203 0.0
H2731 H 0.46885 0.58824 0.60267 0.0
H2732 H 0.47994 0.62121 0.59264 0.0
H2733 H 0.56509 0.56442 0.57992 0.0
H2734 H 0.53579 0.54416 0.59294 0.0
H2735 H 0.52925 0.54473 0.57262 0.0
H2736 H 0.43957 0.50265 0.61413 0.0
H2737 H 0.43086 0.50329 0.56458 0.0
H2738 H 0.4913 0.56897 0.62001 0.0
H2739 H 0.51388 0.55478 0.61554 0.0
H2740 H 0.48225 0.53422 0.62698 0.0
H2741 H 0.47838 0.57151 0.55793 0.0
H2742 H 0.46684 0.53784 0.54856 0.0
H2743 H 0.50231 0.55811 0.55632 0.0
C2744 C 0.44435 0.97167 0.58189 0.0
C2745 C 0.42031 0.94582 0.57794 0.0
C2746 C 0.47155 0.97471 0.58136 0.0
C2747 C 0.47464 0.95152 0.57648 0.0
C2748 C 0.45063 0.92624 0.57127 0.0
C2749 C 0.42373 0.92358 0.57223 0.0
C2750 C 0.49658 0.0019 0.58715 0.0
C2751 C 0.45307 0.90123 0.56565 0.0
C2752 C 0.54635 0.95726 0.56934 0.0
C2753 C 0.54907 0.94435 0.58282 0.0
C2754 C 0.52261 0.96073 0.56722 0.0
C2755 C 0.50174 0.95172 0.57905 0.0
C2756 C 0.50543 0.94023 0.59305 0.0
C2757 C 0.52882 0.93633 0.59466 0.0
C2758 C 0.51917 0.97265 0.55205 0.0
C2759 C 0.48408 0.93102 0.60613 0.0
H2760 H 0.44176 0.98892 0.58628 0.0
H2761 H 0.40519 0.90373 0.56892 0.0
H2762 H 0.50281 0.99823 0.59883 0.0
H2763 H 0.51514 0.00882 0.57936 0.0
H2764 H 0.49158 0.01931 0.58807 0.0
H2765 H 0.43326 0.88485 0.55997 0.0
H2766 H 0.47086 0.90826 0.55729 0.0
H2767 H 0.45765 0.89128 0.57567 0.0
H2768 H 0.56208 0.96348 0.5602 0.0
H2769 H 0.53124 0.9268 0.6052 0.0
H2770 H 0.51332 0.98918 0.55418 0.0
H2771 H 0.50168 0.95546 0.54526 0.0
H2772 H 0.5388 0.98192 0.5449 0.0
H2773 H 0.47957 0.94824 0.60907 0.0
H2774 H 0.49156 0.92522 0.6168 0.0
H2775 H 0.46382 0.91235 0.60241 0.0
C2776 C 0.08605 0.61712 0.57401 0.0
C2777 C 0.09796 0.63256 0.58769 0.0
C2778 C 0.08481 0.59099 0.57147 0.0
C2779 C 0.0952 0.57997 0.58304 0.0
C2780 C 0.10545 0.59466 0.59729 0.0
C2781 C 0.10701 0.62093 0.59936 0.0
C2782 C 0.07407 0.57613 0.55606 0.0
C2783 C 0.11614 0.58337 0.61008 0.0
C2784 C 0.0824 0.50471 0.58377 0.0
C2785 C 0.1093 0.50938 0.57959 0.0
C2786 C 0.07677 0.52727 0.58411 0.0
C2787 C 0.0984 0.55485 0.57986 0.0
C2788 C 0.12481 0.55909 0.57444 0.0
C2789 C 0.13006 0.53637 0.57456 0.0
C2790 C 0.04847 0.52195 0.59012 0.0
C2791 C 0.14822 0.58802 0.56942 0.0
H2792 H 0.07915 0.62619 0.56495 0.0
H2793 H 0.1159 0.63271 0.61003 0.0
H2794 H 0.0922 0.57815 0.54914 0.0
H2795 H 0.05916 0.55315 0.55782 0.0
H2796 H 0.06322 0.58527 0.54922 0.0
H2797 H 0.12046 0.59573 0.62103 0.0
H2798 H 0.10044 0.56083 0.61256 0.0
H2799 H 0.13606 0.58425 0.6063 0.0
H2800 H 0.06633 0.48384 0.58769 0.0
H2801 H 0.15075 0.53991 0.57111 0.0
H2802 H 0.03998 0.53268 0.5827 0.0
H2803 H 0.05124 0.53093 0.60201 0.0
H2804 H 0.0326 0.49894 0.59066 0.0
H2805 H 0.13985 0.59801 0.56135 0.0
H2806 H 0.1659 0.58698 0.5636 0.0
H2807 H 0.15685 0.60202 0.57975 0.0
loop_
_geom_bond_atom_site_label_1
_geom_bond_atom_site_label_2
_geom_bond_distance
_geom_bond_site_symmetry_2
_ccdc_geom_bond_type
Co0 O1 2.216 . S
Co0 O2 2.091 . S
Co0 O4 2.004 . S
Co0 O10 2.021 1_455 S
Co0 O12 2.137 . S
Co0 O13 2.244 . S
O1 Co0 2.216 . S
O1 C8 1.247 . S
O2 Co0 2.091 . S
O2 C8 1.261 . S
C3 O12 1.247 . S
C3 O13 1.272 . S
O4 Co0 2.004 . S
O4 C9 1.259 . S
Co5 O6 2.061 . S
Co5 O11 2.052 1_455 S
Co5 O13 2.135 . S
O6 Co5 2.061 . S
O6 C9 1.235 . S
C7 O10 1.238 . S
C7 O11 1.241 . S
C8 O1 1.247 . S
C8 O2 1.261 . S
C9 O4 1.259 . S
C9 O6 1.235 . S
O10 Co0 2.021 1_655 S
O10 C7 1.238 . S
O11 Co5 2.052 1_655 S
O11 C7 1.241 . S
O12 Co0 2.137 . S
O12 C3 1.247 . S
O13 Co0 2.244 . S
O13 C3 1.272 . S
O13 Co5 2.135 . S
Co14 O15 2.216 . S
Co14 O16 2.091 . S
Co14 O18 2.004 . S
Co14 O24 2.021 . S
Co14 O26 2.137 . S
Co14 O27 2.244 . S
O15 Co14 2.216 . S
O15 C22 1.247 . S
O16 Co14 2.091 . S
O16 C22 1.261 . S
C17 O26 1.247 . S
C17 O27 1.272 . S
O18 Co14 2.004 . S
O18 C23 1.259 . S
Co19 O20 2.061 . S
Co19 O25 2.052 . S
Co19 O27 2.135 . S
O20 Co19 2.061 . S
O20 C23 1.235 . S
C21 O24 1.238 . S
C21 O25 1.241 . S
C22 O15 1.247 . S
C22 O16 1.261 . S
C23 O18 1.259 . S
C23 O20 1.235 . S
O24 Co14 2.021 . S
O24 C21 1.238 . S
O25 Co19 2.052 . S
O25 C21 1.241 . S
O26 Co14 2.137 . S
O26 C17 1.247 . S
O27 Co14 2.244 . S
O27 C17 1.272 . S
O27 Co19 2.135 . S
Co28 O29 2.216 . S
Co28 O30 2.091 . S
Co28 O32 2.004 . S
Co28 O38 2.021 . S
Co28 O40 2.137 1_545 S
Co28 O41 2.244 . S
O29 Co28 2.216 . S
O29 C36 1.247 . S
O30 Co28 2.091 . S
O30 C36 1.261 . S
C31 O40 1.247 . S
C31 O41 1.272 1_565 S
O32 Co28 2.004 . S
O32 C37 1.259 . S
Co33 O34 2.061 . S
Co33 O39 2.052 . S
Co33 O41 2.135 . S
O34 Co33 2.061 . S
O34 C37 1.235 . S
C35 O38 1.238 . S
C35 O39 1.241 . S
C36 O29 1.247 . S
C36 O30 1.261 . S
C37 O32 1.259 . S
C37 O34 1.235 . S
O38 Co28 2.021 . S
O38 C35 1.238 . S
O39 Co33 2.052 . S
O39 C35 1.241 . S
O40 Co28 2.137 1_565 S
O40 C31 1.247 . S
O41 Co28 2.244 . S
O41 C31 1.272 1_545 S
O41 Co33 2.135 . S
Co42 O43 2.216 . S
Co42 O44 2.091 . S
Co42 O46 2.004 . S
Co42 O52 2.021 1_545 S
Co42 O54 2.137 . S
Co42 O55 2.244 . S
O43 Co42 2.216 . S
O43 C50 1.247 . S
O44 Co42 2.091 . S
O44 C50 1.261 . S
C45 O54 1.247 . S
C45 O55 1.272 . S
O46 Co42 2.004 . S
O46 C51 1.259 . S
Co47 O48 2.061 . S
Co47 O53 2.052 1_545 S
Co47 O55 2.135 . S
O48 Co47 2.061 . S
O48 C51 1.235 . S
C49 O52 1.238 . S
C49 O53 1.241 . S
C50 O43 1.247 . S
C50 O44 1.261 . S
C51 O46 1.259 . S
C51 O48 1.235 . S
O52 Co42 2.021 1_565 S
O52 C49 1.238 . S
O53 Co47 2.052 1_565 S
O53 C49 1.241 . S
O54 Co42 2.137 . S
O54 C45 1.247 . S
O55 Co42 2.244 . S
O55 C45 1.272 . S
O55 Co47 2.135 . S
Co56 O57 2.216 . S
Co56 O58 2.091 . S
Co56 O60 2.004 . S
Co56 O66 2.021 . S
Co56 O68 2.137 1_455 S
Co56 O69 2.244 . S
O57 Co56 2.216 . S
O57 C64 1.247 . S
O58 Co56 2.091 . S
O58 C64 1.261 . S
C59 O68 1.247 . S
C59 O69 1.272 1_655 S
O60 Co56 2.004 . S
O60 C65 1.259 . S
Co61 O62 2.061 . S
Co61 O67 2.052 . S
Co61 O69 2.135 . S
O62 Co61 2.061 . S
O62 C65 1.235 . S
C63 O66 1.238 . S
C63 O67 1.241 . S
C64 O57 1.247 . S
C64 O58 1.261 . S
C65 O60 1.259 . S
C65 O62 1.235 . S
O66 Co56 2.021 . S
O66 C63 1.238 . S
O67 Co61 2.052 . S
O67 C63 1.241 . S
O68 Co56 2.137 1_655 S
O68 C59 1.247 . S
O69 Co56 2.244 . S
O69 C59 1.272 1_455 S
O69 Co61 2.135 . S
Co70 O71 2.216 . S
Co70 O72 2.091 . S
Co70 O74 2.004 . S
Co70 O80 2.021 . S
Co70 O82 2.137 . S
Co70 O83 2.244 . S
O71 Co70 2.216 . S
O71 C78 1.247 . S
O72 Co70 2.091 . S
O72 C78 1.261 . S
C73 O82 1.247 . S
C73 O83 1.272 . S
O74 Co70 2.004 . S
O74 C79 1.259 . S
Co75 O76 2.061 . S
Co75 O81 2.052 . S
Co75 O83 2.135 . S
O76 Co75 2.061 . S
O76 C79 1.235 . S
C77 O80 1.238 . S
C77 O81 1.241 . S
C78 O71 1.247 . S
C78 O72 1.261 . S
C79 O74 1.259 . S
C79 O76 1.235 . S
O80 Co70 2.021 . S
O80 C77 1.238 . S
O81 Co75 2.052 . S
O81 C77 1.241 . S
O82 Co70 2.137 . S
O82 C73 1.247 . S
O83 Co70 2.244 . S
O83 C73 1.272 . S
O83 Co75 2.135 . S
Co84 O85 2.216 . S
Co84 O86 2.091 . S
Co84 O88 2.004 . S
Co84 O94 2.021 . S
Co84 O96 2.137 1_455 S
Co84 O97 2.244 . S
O85 Co84 2.216 . S
O85 C92 1.247 . S
O86 Co84 2.091 . S
O86 C92 1.261 . S
C87 O96 1.247 . S
C87 O97 1.272 1_655 S
O88 Co84 2.004 . S
O88 C93 1.259 . S
Co89 O90 2.061 . S
Co89 O95 2.052 . S
Co89 O97 2.135 . S
O90 Co89 2.061 . S
O90 C93 1.235 . S
C91 O94 1.238 . S
C91 O95 1.241 . S
C92 O85 1.247 . S
C92 O86 1.261 . S
C93 O88 1.259 . S
C93 O90 1.235 . S
O94 Co84 2.021 . S
O94 C91 1.238 . S
O95 Co89 2.052 . S
O95 C91 1.241 . S
O96 Co84 2.137 1_655 S
O96 C87 1.247 . S
O97 Co84 2.244 . S
O97 C87 1.272 1_455 S
O97 Co89 2.135 . S
Co98 O99 2.216 . S
Co98 O100 2.091 . S
Co98 O102 2.004 . S
Co98 O108 2.021 . S
Co98 O110 2.137 . S
Co98 O111 2.244 . S
O99 Co98 2.216 . S
O99 C106 1.247 . S
O100 Co98 2.091 . S
O100 C106 1.261 . S
C101 O110 1.247 . S
C101 O111 1.272 . S
O102 Co98 2.004 . S
O102 C107 1.259 . S
Co103 O104 2.061 . S
Co103 O109 2.052 . S
Co103 O111 2.135 . S
O104 Co103 2.061 . S
O104 C107 1.235 . S
C105 O108 1.238 . S
C105 O109 1.241 . S
C106 O99 1.247 . S
C106 O100 1.261 . S
C107 O102 1.259 . S
C107 O104 1.235 . S
O108 Co98 2.021 . S
O108 C105 1.238 . S
O109 Co103 2.052 . S
O109 C105 1.241 . S
O110 Co98 2.137 . S
O110 C101 1.247 . S
O111 Co98 2.244 . S
O111 C101 1.272 . S
O111 Co103 2.135 . S
Co112 O113 2.216 . S
Co112 O114 2.091 . S
Co112 O116 2.004 . S
Co112 O122 2.021 1_545 S
Co112 O124 2.137 . S
Co112 O125 2.244 . S
O113 Co112 2.216 . S
O113 C120 1.247 . S
O114 Co112 2.091 . S
O114 C120 1.261 . S
C115 O124 1.247 . S
C115 O125 1.272 . S
O116 Co112 2.004 . S
O116 C121 1.259 . S
Co117 O118 2.061 . S
Co117 O123 2.052 1_545 S
Co117 O125 2.135 . S
O118 Co117 2.061 . S
O118 C121 1.235 . S
C119 O122 1.238 . S
C119 O123 1.241 . S
C120 O113 1.247 . S
C120 O114 1.261 . S
C121 O116 1.259 . S
C121 O118 1.235 . S
O122 Co112 2.021 1_565 S
O122 C119 1.238 . S
O123 Co117 2.052 1_565 S
O123 C119 1.241 . S
O124 Co112 2.137 . S
O124 C115 1.247 . S
O125 Co112 2.244 . S
O125 C115 1.272 . S
O125 Co117 2.135 . S
Co126 O127 2.216 . S
Co126 O128 2.091 . S
Co126 O130 2.004 . S
Co126 O136 2.021 . S
Co126 O138 2.137 1_545 S
Co126 O139 2.244 . S
O127 Co126 2.216 . S
O127 C134 1.247 . S
O128 Co126 2.091 . S
O128 C134 1.261 . S
C129 O138 1.247 . S
C129 O139 1.272 1_565 S
O130 Co126 2.004 . S
O130 C135 1.259 . S
Co131 O132 2.061 . S
Co131 O137 2.052 . S
Co131 O139 2.135 . S
O132 Co131 2.061 . S
O132 C135 1.235 . S
C133 O136 1.238 . S
C133 O137 1.241 . S
C134 O127 1.247 . S
C134 O128 1.261 . S
C135 O130 1.259 . S
C135 O132 1.235 . S
O136 Co126 2.021 . S
O136 C133 1.238 . S
O137 Co131 2.052 . S
O137 C133 1.241 . S
O138 Co126 2.137 1_565 S
O138 C129 1.247 . S
O139 Co126 2.244 . S
O139 C129 1.272 1_545 S
O139 Co131 2.135 . S
Co140 O141 2.216 . S
Co140 O142 2.091 . S
Co140 O144 2.004 . S
Co140 O150 2.021 1_455 S
Co140 O152 2.137 . S
Co140 O153 2.244 . S
O141 Co140 2.216 . S
O141 C148 1.247 . S
O142 Co140 2.091 . S
O142 C148 1.261 . S
C143 O152 1.247 . S
C143 O153 1.272 . S
O144 Co140 2.004 . S
O144 C149 1.259 . S
Co145 O146 2.061 . S
Co145 O151 2.052 1_455 S
Co145 O153 2.135 . S
O146 Co145 2.061 . S
O146 C149 1.235 . S
C147 O150 1.238 . S
C147 O151 1.241 . S
C148 O141 1.247 . S
C148 O142 1.261 . S
C149 O144 1.259 . S
C149 O146 1.235 . S
O150 Co140 2.021 1_655 S
O150 C147 1.238 . S
O151 Co145 2.052 1_655 S
O151 C147 1.241 . S
O152 Co140 2.137 . S
O152 C143 1.247 . S
O153 Co140 2.244 . S
O153 C143 1.272 . S
O153 Co145 2.135 . S
Co154 O155 2.216 . S
Co154 O156 2.091 . S
Co154 O158 2.004 . S
Co154 O164 2.021 . S
Co154 O166 2.137 . S
Co154 O167 2.244 . S
O155 Co154 2.216 . S
O155 C162 1.247 . S
O156 Co154 2.091 . S
O156 C162 1.261 . S
C157 O166 1.247 . S
C157 O167 1.272 . S
O158 Co154 2.004 . S
O158 C163 1.259 . S
Co159 O160 2.061 . S
Co159 O165 2.052 . S
Co159 O167 2.135 . S
O160 Co159 2.061 . S
O160 C163 1.235 . S
C161 O164 1.238 . S
C161 O165 1.241 . S
C162 O155 1.247 . S
C162 O156 1.261 . S
C163 O158 1.259 . S
C163 O160 1.235 . S
O164 Co154 2.021 . S
O164 C161 1.238 . S
O165 Co159 2.052 . S
O165 C161 1.241 . S
O166 Co154 2.137 . S
O166 C157 1.247 . S
O167 Co154 2.244 . S
O167 C157 1.272 . S
O167 Co159 2.135 . S
Co168 O169 2.216 . S
Co168 O170 2.091 . S
Co168 O172 2.004 . S
Co168 O178 2.021 . S
Co168 O180 2.137 . S
Co168 O181 2.244 . S
O169 Co168 2.216 . S
O169 C176 1.247 . S
O170 Co168 2.091 . S
O170 C176 1.261 . S
C171 O180 1.247 . S
C171 O181 1.272 . S
O172 Co168 2.004 . S
O172 C177 1.259 . S
Co173 O174 2.061 . S
Co173 O179 2.052 . S
Co173 O181 2.135 . S
O174 Co173 2.061 . S
O174 C177 1.235 . S
C175 O178 1.238 . S
C175 O179 1.241 . S
C176 O169 1.247 . S
C176 O170 1.261 . S
C177 O172 1.259 . S
C177 O174 1.235 . S
O178 Co168 2.021 . S
O178 C175 1.238 . S
O179 Co173 2.052 . S
O179 C175 1.241 . S
O180 Co168 2.137 . S
O180 C171 1.247 . S
O181 Co168 2.244 . S
O181 C171 1.272 . S
O181 Co173 2.135 . S
Co182 O183 2.216 . S
Co182 O184 2.091 . S
Co182 O186 2.004 . S
Co182 O192 2.021 . S
Co182 O194 2.137 . S
Co182 O195 2.244 . S
O183 Co182 2.216 . S
O183 C190 1.247 . S
O184 Co182 2.091 . S
O184 C190 1.261 . S
C185 O194 1.247 . S
C185 O195 1.272 . S
O186 Co182 2.004 . S
O186 C191 1.259 . S
Co187 O188 2.061 . S
Co187 O193 2.052 . S
Co187 O195 2.135 . S
O188 Co187 2.061 . S
O188 C191 1.235 . S
C189 O192 1.238 . S
C189 O193 1.241 . S
C190 O183 1.247 . S
C190 O184 1.261 . S
C191 O186 1.259 . S
C191 O188 1.235 . S
O192 Co182 2.021 . S
O192 C189 1.238 . S
O193 Co187 2.052 . S
O193 C189 1.241 . S
O194 Co182 2.137 . S
O194 C185 1.247 . S
O195 Co182 2.244 . S
O195 C185 1.272 . S
O195 Co187 2.135 . S
Co196 O197 2.216 . S
Co196 O198 2.091 1_655 S
Co196 O200 2.004 . S
Co196 O206 2.021 . S
Co196 O208 2.137 . S
Co196 O209 2.244 . S
O197 Co196 2.216 . S
O197 C204 1.247 1_655 S
O198 Co196 2.091 1_455 S
O198 C204 1.261 . S
C199 O208 1.247 . S
C199 O209 1.272 . S
O200 Co196 2.004 . S
O200 C205 1.259 . S
Co201 O202 2.061 . S
Co201 O207 2.052 . S
Co201 O209 2.135 . S
O202 Co201 2.061 . S
O202 C205 1.235 . S
C203 O206 1.238 . S
C203 O207 1.241 . S
C204 O197 1.247 1_455 S
C204 O198 1.261 . S
C205 O200 1.259 . S
C205 O202 1.235 . S
O206 Co196 2.021 . S
O206 C203 1.238 . S
O207 Co201 2.052 . S
O207 C203 1.241 . S
O208 Co196 2.137 . S
O208 C199 1.247 . S
O209 Co196 2.244 . S
O209 C199 1.272 . S
O209 Co201 2.135 . S
Co210 O211 2.216 . S
Co210 O212 2.091 1_655 S
Co210 O214 2.004 1_655 S
Co210 O220 2.021 . S
Co210 O222 2.137 1_655 S
Co210 O223 2.244 . S
O211 Co210 2.216 . S
O211 C218 1.247 1_655 S
O212 Co210 2.091 1_455 S
O212 C218 1.261 . S
C213 O222 1.247 1_655 S
C213 O223 1.272 . S
O214 Co210 2.004 1_455 S
O214 C219 1.259 1_455 S
Co215 O216 2.061 . S
Co215 O221 2.052 . S
Co215 O223 2.135 . S
O216 Co215 2.061 . S
O216 C219 1.235 . S
C217 O220 1.238 . S
C217 O221 1.241 . S
C218 O211 1.247 1_455 S
C218 O212 1.261 . S
C219 O214 1.259 1_655 S
C219 O216 1.235 . S
O220 Co210 2.021 . S
O220 C217 1.238 . S
O221 Co215 2.052 . S
O221 C217 1.241 . S
O222 Co210 2.137 1_455 S
O222 C213 1.247 1_455 S
O223 Co210 2.244 . S
O223 C213 1.272 . S
O223 Co215 2.135 . S
Co224 O225 2.216 . S
Co224 O226 2.091 . S
Co224 O228 2.004 . S
Co224 O234 2.021 . S
Co224 O236 2.137 . S
Co224 O237 2.244 . S
O225 Co224 2.216 . S
O225 C232 1.247 . S
O226 Co224 2.091 . S
O226 C232 1.261 . S
C227 O236 1.247 . S
C227 O237 1.272 . S
O228 Co224 2.004 . S
O228 C233 1.259 . S
Co229 O230 2.061 . S
Co229 O235 2.052 . S
Co229 O237 2.135 . S
O230 Co229 2.061 . S
O230 C233 1.235 . S
C231 O234 1.238 . S
C231 O235 1.241 . S
C232 O225 1.247 . S
C232 O226 1.261 . S
C233 O228 1.259 . S
C233 O230 1.235 . S
O234 Co224 2.021 . S
O234 C231 1.238 . S
O235 Co229 2.052 . S
O235 C231 1.241 . S
O236 Co224 2.137 . S
O236 C227 1.247 . S
O237 Co224 2.244 . S
O237 C227 1.272 . S
O237 Co229 2.135 . S
Co238 O239 2.216 . S
Co238 O240 2.091 . S
Co238 O242 2.004 . S
Co238 O248 2.021 . S
Co238 O250 2.137 . S
Co238 O251 2.244 . S
O239 Co238 2.216 . S
O239 C246 1.247 . S
O240 Co238 2.091 . S
O240 C246 1.261 . S
C241 O250 1.247 . S
C241 O251 1.272 . S
O242 Co238 2.004 . S
O242 C247 1.259 . S
Co243 O244 2.061 . S
Co243 O249 2.052 . S
Co243 O251 2.135 . S
O244 Co243 2.061 . S
O244 C247 1.235 . S
C245 O248 1.238 . S
C245 O249 1.241 . S
C246 O239 1.247 . S
C246 O240 1.261 . S
C247 O242 1.259 . S
C247 O244 1.235 . S
O248 Co238 2.021 . S
O248 C245 1.238 . S
O249 Co243 2.052 . S
O249 C245 1.241 . S
O250 Co238 2.137 . S
O250 C241 1.247 . S
O251 Co238 2.244 . S
O251 C241 1.272 . S
O251 Co243 2.135 . S
Co252 O253 2.216 . S
Co252 O254 2.091 . S
Co252 O256 2.004 . S
Co252 O262 2.021 . S
Co252 O264 2.137 . S
Co252 O265 2.244 . S
O253 Co252 2.216 . S
O253 C260 1.247 . S
O254 Co252 2.091 . S
O254 C260 1.261 . S
C255 O264 1.247 . S
C255 O265 1.272 . S
O256 Co252 2.004 . S
O256 C261 1.259 . S
Co257 O258 2.061 . S
Co257 O263 2.052 . S
Co257 O265 2.135 . S
O258 Co257 2.061 . S
O258 C261 1.235 . S
C259 O262 1.238 . S
C259 O263 1.241 . S
C260 O253 1.247 . S
C260 O254 1.261 . S
C261 O256 1.259 . S
C261 O258 1.235 . S
O262 Co252 2.021 . S
O262 C259 1.238 . S
O263 Co257 2.052 . S
O263 C259 1.241 . S
O264 Co252 2.137 . S
O264 C255 1.247 . S
O265 Co252 2.244 . S
O265 C255 1.272 . S
O265 Co257 2.135 . S
Co266 O267 2.216 . S
Co266 O268 2.091 1_655 S
Co266 O270 2.004 1_655 S
Co266 O276 2.021 . S
Co266 O278 2.137 1_655 S
Co266 O279 2.244 . S
O267 Co266 2.216 . S
O267 C274 1.247 1_655 S
O268 Co266 2.091 1_455 S
O268 C274 1.261 . S
C269 O278 1.247 1_655 S
C269 O279 1.272 . S
O270 Co266 2.004 1_455 S
O270 C275 1.259 1_455 S
Co271 O272 2.061 . S
Co271 O277 2.052 . S
Co271 O279 2.135 . S
O272 Co271 2.061 . S
O272 C275 1.235 . S
C273 O276 1.238 . S
C273 O277 1.241 . S
C274 O267 1.247 1_455 S
C274 O268 1.261 . S
C275 O270 1.259 1_655 S
C275 O272 1.235 . S
O276 Co266 2.021 . S
O276 C273 1.238 . S
O277 Co271 2.052 . S
O277 C273 1.241 . S
O278 Co266 2.137 1_455 S
O278 C269 1.247 1_455 S
O279 Co266 2.244 . S
O279 C269 1.272 . S
O279 Co271 2.135 . S
Co280 O281 2.216 . S
Co280 O282 2.091 . S
Co280 O284 2.004 . S
Co280 O290 2.021 . S
Co280 O292 2.137 . S
Co280 O293 2.244 . S
O281 Co280 2.216 . S
O281 C288 1.247 . S
O282 Co280 2.091 . S
O282 C288 1.261 . S
C283 O292 1.247 . S
C283 O293 1.272 . S
O284 Co280 2.004 . S
O284 C289 1.259 . S
Co285 O286 2.061 . S
Co285 O291 2.052 . S
Co285 O293 2.135 . S
O286 Co285 2.061 . S
O286 C289 1.235 . S
C287 O290 1.238 . S
C287 O291 1.241 . S
C288 O281 1.247 . S
C288 O282 1.261 . S
C289 O284 1.259 . S
C289 O286 1.235 . S
O290 Co280 2.021 . S
O290 C287 1.238 . S
O291 Co285 2.052 . S
O291 C287 1.241 . S
O292 Co280 2.137 . S
O292 C283 1.247 . S
O293 Co280 2.244 . S
O293 C283 1.272 . S
O293 Co285 2.135 . S
Co294 O295 2.216 . S
Co294 O296 2.091 . S
Co294 O298 2.004 . S
Co294 O304 2.021 . S
Co294 O306 2.137 . S
Co294 O307 2.244 . S
O295 Co294 2.216 . S
O295 C302 1.247 . S
O296 Co294 2.091 . S
O296 C302 1.261 . S
C297 O306 1.247 . S
C297 O307 1.272 . S
O298 Co294 2.004 . S
O298 C303 1.259 . S
Co299 O300 2.061 . S
Co299 O305 2.052 . S
Co299 O307 2.135 . S
O300 Co299 2.061 . S
O300 C303 1.235 . S
C301 O304 1.238 . S
C301 O305 1.241 . S
C302 O295 1.247 . S
C302 O296 1.261 . S
C303 O298 1.259 . S
C303 O300 1.235 . S
O304 Co294 2.021 . S
O304 C301 1.238 . S
O305 Co299 2.052 . S
O305 C301 1.241 . S
O306 Co294 2.137 . S
O306 C297 1.247 . S
O307 Co294 2.244 . S
O307 C297 1.272 . S
O307 Co299 2.135 . S
Co308 O309 2.216 . S
Co308 O310 2.091 . S
Co308 O312 2.004 . S
Co308 O318 2.021 . S
Co308 O320 2.137 . S
Co308 O321 2.244 . S
O309 Co308 2.216 . S
O309 C316 1.247 . S
O310 Co308 2.091 . S
O310 C316 1.261 . S
C311 O320 1.247 . S
C311 O321 1.272 . S
O312 Co308 2.004 . S
O312 C317 1.259 . S
Co313 O314 2.061 . S
Co313 O319 2.052 . S
Co313 O321 2.135 . S
O314 Co313 2.061 . S
O314 C317 1.235 . S
C315 O318 1.238 . S
C315 O319 1.241 . S
C316 O309 1.247 . S
C316 O310 1.261 . S
C317 O312 1.259 . S
C317 O314 1.235 . S
O318 Co308 2.021 . S
O318 C315 1.238 . S
O319 Co313 2.052 . S
O319 C315 1.241 . S
O320 Co308 2.137 . S
O320 C311 1.247 . S
O321 Co308 2.244 . S
O321 C311 1.272 . S
O321 Co313 2.135 . S
Co322 O323 2.216 . S
Co322 O324 2.091 1_655 S
Co322 O326 2.004 . S
Co322 O332 2.021 . S
Co322 O334 2.137 . S
Co322 O335 2.244 . S
O323 Co322 2.216 . S
O323 C330 1.247 1_655 S
O324 Co322 2.091 1_455 S
O324 C330 1.261 . S
C325 O334 1.247 . S
C325 O335 1.272 . S
O326 Co322 2.004 . S
O326 C331 1.259 . S
Co327 O328 2.061 . S
Co327 O333 2.052 . S
Co327 O335 2.135 . S
O328 Co327 2.061 . S
O328 C331 1.235 . S
C329 O332 1.238 . S
C329 O333 1.241 . S
C330 O323 1.247 1_455 S
C330 O324 1.261 . S
C331 O326 1.259 . S
C331 O328 1.235 . S
O332 Co322 2.021 . S
O332 C329 1.238 . S
O333 Co327 2.052 . S
O333 C329 1.241 . S
O334 Co322 2.137 . S
O334 C325 1.247 . S
O335 Co322 2.244 . S
O335 C325 1.272 . S
O335 Co327 2.135 . S
Co336 O337 2.216 . S
Co336 O338 2.091 1_565 S
Co336 O340 2.004 1_565 S
Co336 O346 2.021 . S
Co336 O348 2.137 1_565 S
Co336 O349 2.244 . S
O337 Co336 2.216 . S
O337 C344 1.247 1_565 S
O338 Co336 2.091 1_545 S
O338 C344 1.261 . S
C339 O348 1.247 1_565 S
C339 O349 1.272 . S
O340 Co336 2.004 1_545 S
O340 C345 1.259 1_545 S
Co341 O342 2.061 . S
Co341 O347 2.052 . S
Co341 O349 2.135 . S
O342 Co341 2.061 . S
O342 C345 1.235 . S
C343 O346 1.238 . S
C343 O347 1.241 . S
C344 O337 1.247 1_545 S
C344 O338 1.261 . S
C345 O340 1.259 1_565 S
C345 O342 1.235 . S
O346 Co336 2.021 . S
O346 C343 1.238 . S
O347 Co341 2.052 . S
O347 C343 1.241 . S
O348 Co336 2.137 1_545 S
O348 C339 1.247 1_545 S
O349 Co336 2.244 . S
O349 C339 1.272 . S
O349 Co341 2.135 . S
Co350 O351 2.216 . S
Co350 O352 2.091 . S
Co350 O354 2.004 . S
Co350 O360 2.021 . S
Co350 O362 2.137 . S
Co350 O363 2.244 . S
O351 Co350 2.216 . S
O351 C358 1.247 . S
O352 Co350 2.091 . S
O352 C358 1.261 . S
C353 O362 1.247 . S
C353 O363 1.272 . S
O354 Co350 2.004 . S
O354 C359 1.259 . S
Co355 O356 2.061 . S
Co355 O361 2.052 . S
Co355 O363 2.135 . S
O356 Co355 2.061 . S
O356 C359 1.235 . S
C357 O360 1.238 . S
C357 O361 1.241 . S
C358 O351 1.247 . S
C358 O352 1.261 . S
C359 O354 1.259 . S
C359 O356 1.235 . S
O360 Co350 2.021 . S
O360 C357 1.238 . S
O361 Co355 2.052 . S
O361 C357 1.241 . S
O362 Co350 2.137 . S
O362 C353 1.247 . S
O363 Co350 2.244 . S
O363 C353 1.272 . S
O363 Co355 2.135 . S
Co364 O365 2.216 . S
Co364 O366 2.091 . S
Co364 O368 2.004 . S
Co364 O374 2.021 . S
Co364 O376 2.137 . S
Co364 O377 2.244 . S
O365 Co364 2.216 . S
O365 C372 1.247 . S
O366 Co364 2.091 . S
O366 C372 1.261 . S
C367 O376 1.247 . S
C367 O377 1.272 . S
O368 Co364 2.004 . S
O368 C373 1.259 . S
Co369 O370 2.061 . S
Co369 O375 2.052 . S
Co369 O377 2.135 . S
O370 Co369 2.061 . S
O370 C373 1.235 . S
C371 O374 1.238 . S
C371 O375 1.241 . S
C372 O365 1.247 . S
C372 O366 1.261 . S
C373 O368 1.259 . S
C373 O370 1.235 . S
O374 Co364 2.021 . S
O374 C371 1.238 . S
O375 Co369 2.052 . S
O375 C371 1.241 . S
O376 Co364 2.137 . S
O376 C367 1.247 . S
O377 Co364 2.244 . S
O377 C367 1.272 . S
O377 Co369 2.135 . S
Co378 O379 2.216 . S
Co378 O380 2.091 . S
Co378 O382 2.004 . S
Co378 O388 2.021 . S
Co378 O390 2.137 . S
Co378 O391 2.244 . S
O379 Co378 2.216 . S
O379 C386 1.247 . S
O380 Co378 2.091 . S
O380 C386 1.261 . S
C381 O390 1.247 . S
C381 O391 1.272 . S
O382 Co378 2.004 . S
O382 C387 1.259 . S
Co383 O384 2.061 . S
Co383 O389 2.052 . S
Co383 O391 2.135 . S
O384 Co383 2.061 . S
O384 C387 1.235 . S
C385 O388 1.238 . S
C385 O389 1.241 . S
C386 O379 1.247 . S
C386 O380 1.261 . S
C387 O382 1.259 . S
C387 O384 1.235 . S
O388 Co378 2.021 . S
O388 C385 1.238 . S
O389 Co383 2.052 . S
O389 C385 1.241 . S
O390 Co378 2.137 . S
O390 C381 1.247 . S
O391 Co378 2.244 . S
O391 C381 1.272 . S
O391 Co383 2.135 . S
Co392 O393 2.216 . S
Co392 O394 2.091 1_565 S
Co392 O396 2.004 . S
Co392 O402 2.021 . S
Co392 O404 2.137 . S
Co392 O405 2.244 . S
O393 Co392 2.216 . S
O393 C400 1.247 1_565 S
O394 Co392 2.091 1_545 S
O394 C400 1.261 . S
C395 O404 1.247 . S
C395 O405 1.272 . S
O396 Co392 2.004 . S
O396 C401 1.259 . S
Co397 O398 2.061 . S
Co397 O403 2.052 . S
Co397 O405 2.135 . S
O398 Co397 2.061 . S
O398 C401 1.235 . S
C399 O402 1.238 . S
C399 O403 1.241 . S
C400 O393 1.247 1_545 S
C400 O394 1.261 . S
C401 O396 1.259 . S
C401 O398 1.235 . S
O402 Co392 2.021 . S
O402 C399 1.238 . S
O403 Co397 2.052 . S
O403 C399 1.241 . S
O404 Co392 2.137 . S
O404 C395 1.247 . S
O405 Co392 2.244 . S
O405 C395 1.272 . S
O405 Co397 2.135 . S
Co406 O407 2.216 . S
Co406 O408 2.091 . S
Co406 O410 2.004 . S
Co406 O416 2.021 . S
Co406 O418 2.137 . S
Co406 O419 2.244 . S
O407 Co406 2.216 . S
O407 C414 1.247 . S
O408 Co406 2.091 . S
O408 C414 1.261 . S
C409 O418 1.247 . S
C409 O419 1.272 . S
O410 Co406 2.004 . S
O410 C415 1.259 . S
Co411 O412 2.061 . S
Co411 O417 2.052 . S
Co411 O419 2.135 . S
O412 Co411 2.061 . S
O412 C415 1.235 . S
C413 O416 1.238 . S
C413 O417 1.241 . S
C414 O407 1.247 . S
C414 O408 1.261 . S
C415 O410 1.259 . S
C415 O412 1.235 . S
O416 Co406 2.021 . S
O416 C413 1.238 . S
O417 Co411 2.052 . S
O417 C413 1.241 . S
O418 Co406 2.137 . S
O418 C409 1.247 . S
O419 Co406 2.244 . S
O419 C409 1.272 . S
O419 Co411 2.135 . S
Co420 O421 2.216 . S
Co420 O422 2.091 . S
Co420 O424 2.004 . S
Co420 O430 2.021 . S
Co420 O432 2.137 . S
Co420 O433 2.244 . S
O421 Co420 2.216 . S
O421 C428 1.247 . S
O422 Co420 2.091 . S
O422 C428 1.261 . S
C423 O432 1.247 . S
C423 O433 1.272 . S
O424 Co420 2.004 . S
O424 C429 1.259 . S
Co425 O426 2.061 . S
Co425 O431 2.052 . S
Co425 O433 2.135 . S
O426 Co425 2.061 . S
O426 C429 1.235 . S
C427 O430 1.238 . S
C427 O431 1.241 . S
C428 O421 1.247 . S
C428 O422 1.261 . S
C429 O424 1.259 . S
C429 O426 1.235 . S
O430 Co420 2.021 . S
O430 C427 1.238 . S
O431 Co425 2.052 . S
O431 C427 1.241 . S
O432 Co420 2.137 . S
O432 C423 1.247 . S
O433 Co420 2.244 . S
O433 C423 1.272 . S
O433 Co425 2.135 . S
Co434 O435 2.216 . S
Co434 O436 2.091 1_565 S
Co434 O438 2.004 . S
Co434 O444 2.021 . S
Co434 O446 2.137 . S
Co434 O447 2.244 . S
O435 Co434 2.216 . S
O435 C442 1.247 1_565 S
O436 Co434 2.091 1_545 S
O436 C442 1.261 . S
C437 O446 1.247 . S
C437 O447 1.272 . S
O438 Co434 2.004 . S
O438 C443 1.259 . S
Co439 O440 2.061 . S
Co439 O445 2.052 . S
Co439 O447 2.135 . S
O440 Co439 2.061 . S
O440 C443 1.235 . S
C441 O444 1.238 . S
C441 O445 1.241 . S
C442 O435 1.247 1_545 S
C442 O436 1.261 . S
C443 O438 1.259 . S
C443 O440 1.235 . S
O444 Co434 2.021 . S
O444 C441 1.238 . S
O445 Co439 2.052 . S
O445 C441 1.241 . S
O446 Co434 2.137 . S
O446 C437 1.247 . S
O447 Co434 2.244 . S
O447 C437 1.272 . S
O447 Co439 2.135 . S
Co448 O449 2.216 . S
Co448 O450 2.091 . S
Co448 O452 2.004 . S
Co448 O458 2.021 . S
Co448 O460 2.137 . S
Co448 O461 2.244 . S
O449 Co448 2.216 . S
O449 C456 1.247 . S
O450 Co448 2.091 . S
O450 C456 1.261 . S
C451 O460 1.247 . S
C451 O461 1.272 . S
O452 Co448 2.004 . S
O452 C457 1.259 . S
Co453 O454 2.061 . S
Co453 O459 2.052 . S
Co453 O461 2.135 . S
O454 Co453 2.061 . S
O454 C457 1.235 . S
C455 O458 1.238 . S
C455 O459 1.241 . S
C456 O449 1.247 . S
C456 O450 1.261 . S
C457 O452 1.259 . S
C457 O454 1.235 . S
O458 Co448 2.021 . S
O458 C455 1.238 . S
O459 Co453 2.052 . S
O459 C455 1.241 . S
O460 Co448 2.137 . S
O460 C451 1.247 . S
O461 Co448 2.244 . S
O461 C451 1.272 . S
O461 Co453 2.135 . S
Co462 O463 2.216 . S
Co462 O464 2.091 . S
Co462 O466 2.004 . S
Co462 O472 2.021 . S
Co462 O474 2.137 . S
Co462 O475 2.244 . S
O463 Co462 2.216 . S
O463 C470 1.247 . S
O464 Co462 2.091 . S
O464 C470 1.261 . S
C465 O474 1.247 . S
C465 O475 1.272 . S
O466 Co462 2.004 . S
O466 C471 1.259 . S
Co467 O468 2.061 . S
Co467 O473 2.052 . S
Co467 O475 2.135 . S
O468 Co467 2.061 . S
O468 C471 1.235 . S
C469 O472 1.238 . S
C469 O473 1.241 . S
C470 O463 1.247 . S
C470 O464 1.261 . S
C471 O466 1.259 . S
C471 O468 1.235 . S
O472 Co462 2.021 . S
O472 C469 1.238 . S
O473 Co467 2.052 . S
O473 C469 1.241 . S
O474 Co462 2.137 . S
O474 C465 1.247 . S
O475 Co462 2.244 . S
O475 C465 1.272 . S
O475 Co467 2.135 . S
Co476 O477 2.216 . S
Co476 O478 2.091 . S
Co476 O480 2.004 . S
Co476 O486 2.021 . S
Co476 O488 2.137 . S
Co476 O489 2.244 . S
O477 Co476 2.216 . S
O477 C484 1.247 . S
O478 Co476 2.091 . S
O478 C484 1.261 . S
C479 O488 1.247 . S
C479 O489 1.272 . S
O480 Co476 2.004 . S
O480 C485 1.259 . S
Co481 O482 2.061 . S
Co481 O487 2.052 . S
Co481 O489 2.135 . S
O482 Co481 2.061 . S
O482 C485 1.235 . S
C483 O486 1.238 . S
C483 O487 1.241 . S
C484 O477 1.247 . S
C484 O478 1.261 . S
C485 O480 1.259 . S
C485 O482 1.235 . S
O486 Co476 2.021 . S
O486 C483 1.238 . S
O487 Co481 2.052 . S
O487 C483 1.241 . S
O488 Co476 2.137 . S
O488 C479 1.247 . S
O489 Co476 2.244 . S
O489 C479 1.272 . S
O489 Co481 2.135 . S
Co490 O491 2.216 . S
Co490 O492 2.091 1_565 S
Co490 O494 2.004 1_565 S
Co490 O500 2.021 . S
Co490 O502 2.137 1_565 S
Co490 O503 2.244 . S
O491 Co490 2.216 . S
O491 C498 1.247 1_565 S
O492 Co490 2.091 1_545 S
O492 C498 1.261 . S
C493 O502 1.247 1_565 S
C493 O503 1.272 . S
O494 Co490 2.004 1_545 S
O494 C499 1.259 1_545 S
Co495 O496 2.061 . S
Co495 O501 2.052 . S
Co495 O503 2.135 . S
O496 Co495 2.061 . S
O496 C499 1.235 . S
C497 O500 1.238 . S
C497 O501 1.241 . S
C498 O491 1.247 1_545 S
C498 O492 1.261 . S
C499 O494 1.259 1_565 S
C499 O496 1.235 . S
O500 Co490 2.021 . S
O500 C497 1.238 . S
O501 Co495 2.052 . S
O501 C497 1.241 . S
O502 Co490 2.137 1_545 S
O502 C493 1.247 1_545 S
O503 Co490 2.244 . S
O503 C493 1.272 . S
O503 Co495 2.135 . S
C504 C505 1.391 . S
C504 C506 1.394 . S
C504 H520 0.931 . S
C505 C504 1.391 . S
C505 C509 1.376 . S
C506 C504 1.394 . S
C506 C507 1.369 . S
C506 C510 1.531 . S
C507 C506 1.369 . S
C507 C508 1.410 . S
C507 C515 1.503 . S
C508 C507 1.410 . S
C508 C509 1.392 . S
C508 C511 1.511 . S
C509 C505 1.376 . S
C509 C508 1.392 . S
C509 H521 0.929 . S
C510 C506 1.531 . S
C510 H522 0.960 . S
C510 H523 0.962 . S
C510 H524 0.960 . S
C511 C508 1.511 . S
C511 H525 0.961 . S
C511 H526 0.961 . S
C511 H527 0.961 . S
C512 C513 1.370 . S
C512 C514 1.363 . S
C512 H528 0.931 . S
C513 C512 1.370 . S
C513 C517 1.408 . S
C514 C512 1.363 . S
C514 C515 1.370 . S
C514 C518 1.524 . S
C515 C507 1.503 . S
C515 C514 1.370 . S
C515 C516 1.403 . S
C516 C515 1.403 . S
C516 C517 1.404 . S
C516 C519 1.539 . S
C517 C513 1.408 . S
C517 C516 1.404 . S
C517 H529 0.930 . S
C518 C514 1.524 . S
C518 H530 0.956 . S
C518 H531 0.961 . S
C518 H532 0.961 . S
C519 C516 1.539 . S
C519 H533 0.958 . S
C519 H534 0.961 . S
C519 H535 0.960 . S
H520 C504 0.931 . S
H521 C509 0.929 . S
H522 C510 0.960 . S
H523 C510 0.962 . S
H524 C510 0.960 . S
H525 C511 0.961 . S
H526 C511 0.961 . S
H527 C511 0.961 . S
H528 C512 0.931 . S
H529 C517 0.930 . S
H530 C518 0.956 . S
H531 C518 0.961 . S
H532 C518 0.961 . S
H533 C519 0.958 . S
H534 C519 0.961 . S
H535 C519 0.960 . S
C536 C537 1.391 . S
C536 C538 1.394 . S
C536 H552 0.931 . S
C537 C536 1.391 . S
C537 C541 1.376 . S
C538 C536 1.394 . S
C538 C539 1.369 . S
C538 C542 1.531 . S
C539 C538 1.369 . S
C539 C540 1.410 . S
C539 C547 1.503 . S
C540 C539 1.410 . S
C540 C541 1.392 . S
C540 C543 1.511 . S
C541 C537 1.376 . S
C541 C540 1.392 . S
C541 H553 0.929 . S
C542 C538 1.531 . S
C542 H554 0.960 . S
C542 H555 0.962 . S
C542 H556 0.960 . S
C543 C540 1.511 . S
C543 H557 0.961 . S
C543 H558 0.961 . S
C543 H559 0.961 . S
C544 C545 1.370 . S
C544 C546 1.363 . S
C544 H560 0.931 . S
C545 C544 1.370 . S
C545 C549 1.408 . S
C546 C544 1.363 . S
C546 C547 1.370 . S
C546 C550 1.524 . S
C547 C539 1.503 . S
C547 C546 1.370 . S
C547 C548 1.403 . S
C548 C547 1.403 . S
C548 C549 1.404 . S
C548 C551 1.539 . S
C549 C545 1.408 . S
C549 C548 1.404 . S
C549 H561 0.930 . S
C550 C546 1.524 . S
C550 H562 0.956 . S
C550 H563 0.961 . S
C550 H564 0.961 . S
C551 C548 1.539 . S
C551 H565 0.958 . S
C551 H566 0.961 . S
C551 H567 0.960 . S
H552 C536 0.931 . S
H553 C541 0.929 . S
H554 C542 0.960 . S
H555 C542 0.962 . S
H556 C542 0.960 . S
H557 C543 0.961 . S
H558 C543 0.961 . S
H559 C543 0.961 . S
H560 C544 0.931 . S
H561 C549 0.930 . S
H562 C550 0.956 . S
H563 C550 0.961 . S
H564 C550 0.961 . S
H565 C551 0.958 . S
H566 C551 0.961 . S
H567 C551 0.960 . S
C568 C569 1.391 . S
C568 C570 1.394 . S
C568 H584 0.931 . S
C569 C568 1.391 . S
C569 C573 1.376 . S
C570 C568 1.394 . S
C570 C571 1.369 . S
C570 C574 1.531 . S
C571 C570 1.369 . S
C571 C572 1.410 . S
C571 C579 1.503 . S
C572 C571 1.410 . S
C572 C573 1.392 . S
C572 C575 1.511 . S
C573 C569 1.376 . S
C573 C572 1.392 . S
C573 H585 0.929 . S
C574 C570 1.531 . S
C574 H586 0.960 . S
C574 H587 0.962 . S
C574 H588 0.960 . S
C575 C572 1.511 . S
C575 H589 0.961 . S
C575 H590 0.961 . S
C575 H591 0.961 . S
C576 C577 1.370 . S
C576 C578 1.363 . S
C576 H592 0.931 . S
C577 C576 1.370 . S
C577 C581 1.408 . S
C578 C576 1.363 . S
C578 C579 1.370 . S
C578 C582 1.524 . S
C579 C571 1.503 . S
C579 C578 1.370 . S
C579 C580 1.403 . S
C580 C579 1.403 . S
C580 C581 1.404 . S
C580 C583 1.539 . S
C581 C577 1.408 . S
C581 C580 1.404 . S
C581 H593 0.930 . S
C582 C578 1.524 . S
C582 H594 0.956 . S
C582 H595 0.961 . S
C582 H596 0.961 . S
C583 C580 1.539 . S
C583 H597 0.958 . S
C583 H598 0.961 . S
C583 H599 0.960 . S
H584 C568 0.931 . S
H585 C573 0.929 . S
H586 C574 0.960 . S
H587 C574 0.962 . S
H588 C574 0.960 . S
H589 C575 0.961 . S
H590 C575 0.961 . S
H591 C575 0.961 . S
H592 C576 0.931 . S
H593 C581 0.930 . S
H594 C582 0.956 . S
H595 C582 0.961 . S
H596 C582 0.961 . S
H597 C583 0.958 . S
H598 C583 0.961 . S
H599 C583 0.960 . S
C600 C601 1.391 . S
C600 C602 1.394 . S
C600 H616 0.931 . S
C601 C600 1.391 . S
C601 C605 1.376 . S
C602 C600 1.394 . S
C602 C603 1.369 . S
C602 C606 1.531 . S
C603 C602 1.369 . S
C603 C604 1.410 . S
C603 C611 1.503 . S
C604 C603 1.410 . S
C604 C605 1.392 . S
C604 C607 1.511 . S
C605 C601 1.376 . S
C605 C604 1.392 . S
C605 H617 0.929 . S
C606 C602 1.531 . S
C606 H618 0.960 . S
C606 H619 0.962 . S
C606 H620 0.960 . S
C607 C604 1.511 . S
C607 H621 0.961 . S
C607 H622 0.961 . S
C607 H623 0.961 . S
C608 C609 1.370 . S
C608 C610 1.363 . S
C608 H624 0.931 . S
C609 C608 1.370 . S
C609 C613 1.408 . S
C610 C608 1.363 . S
C610 C611 1.370 . S
C610 C614 1.524 . S
C611 C603 1.503 . S
C611 C610 1.370 . S
C611 C612 1.403 . S
C612 C611 1.403 . S
C612 C613 1.404 . S
C612 C615 1.539 . S
C613 C609 1.408 . S
C613 C612 1.404 . S
C613 H625 0.930 . S
C614 C610 1.524 . S
C614 H626 0.956 . S
C614 H627 0.961 . S
C614 H628 0.961 . S
C615 C612 1.539 . S
C615 H629 0.958 . S
C615 H630 0.961 . S
C615 H631 0.960 . S
H616 C600 0.931 . S
H617 C605 0.929 . S
H618 C606 0.960 . S
H619 C606 0.962 . S
H620 C606 0.960 . S
H621 C607 0.961 . S
H622 C607 0.961 . S
H623 C607 0.961 . S
H624 C608 0.931 . S
H625 C613 0.930 . S
H626 C614 0.956 . S
H627 C614 0.961 . S
H628 C614 0.961 . S
H629 C615 0.958 . S
H630 C615 0.961 . S
H631 C615 0.960 . S
C632 C633 1.391 . S
C632 C634 1.394 . S
C632 H648 0.931 . S
C633 C632 1.391 . S
C633 C637 1.376 . S
C634 C632 1.394 . S
C634 C635 1.369 . S
C634 C638 1.531 . S
C635 C634 1.369 . S
C635 C636 1.410 . S
C635 C643 1.503 . S
C636 C635 1.410 . S
C636 C637 1.392 . S
C636 C639 1.511 . S
C637 C633 1.376 . S
C637 C636 1.392 . S
C637 H649 0.929 . S
C638 C634 1.531 . S
C638 H650 0.960 . S
C638 H651 0.962 . S
C638 H652 0.960 . S
C639 C636 1.511 . S
C639 H653 0.961 . S
C639 H654 0.961 . S
C639 H655 0.961 . S
C640 C641 1.370 . S
C640 C642 1.363 . S
C640 H656 0.931 . S
C641 C640 1.370 . S
C641 C645 1.408 . S
C642 C640 1.363 . S
C642 C643 1.370 . S
C642 C646 1.524 . S
C643 C635 1.503 . S
C643 C642 1.370 . S
C643 C644 1.403 . S
C644 C643 1.403 . S
C644 C645 1.404 . S
C644 C647 1.539 . S
C645 C641 1.408 . S
C645 C644 1.404 . S
C645 H657 0.930 . S
C646 C642 1.524 . S
C646 H658 0.956 . S
C646 H659 0.961 . S
C646 H660 0.961 . S
C647 C644 1.539 . S
C647 H661 0.958 . S
C647 H662 0.961 . S
C647 H663 0.960 . S
H648 C632 0.931 . S
H649 C637 0.929 . S
H650 C638 0.960 . S
H651 C638 0.962 . S
H652 C638 0.960 . S
H653 C639 0.961 . S
H654 C639 0.961 . S
H655 C639 0.961 . S
H656 C640 0.931 . S
H657 C645 0.930 . S
H658 C646 0.956 . S
H659 C646 0.961 . S
H660 C646 0.961 . S
H661 C647 0.958 . S
H662 C647 0.961 . S
H663 C647 0.960 . S
C664 C665 1.391 . S
C664 C666 1.394 . S
C664 H680 0.931 . S
C665 C664 1.391 . S
C665 C669 1.376 . S
C666 C664 1.394 . S
C666 C667 1.369 . S
C666 C670 1.531 . S
C667 C666 1.369 . S
C667 C668 1.410 . S
C667 C675 1.503 . S
C668 C667 1.410 . S
C668 C669 1.392 . S
C668 C671 1.511 . S
C669 C665 1.376 . S
C669 C668 1.392 . S
C669 H681 0.929 . S
C670 C666 1.531 . S
C670 H682 0.960 . S
C670 H683 0.962 . S
C670 H684 0.960 . S
C671 C668 1.511 . S
C671 H685 0.961 . S
C671 H686 0.961 . S
C671 H687 0.961 . S
C672 C673 1.370 . S
C672 C674 1.363 . S
C672 H688 0.931 . S
C673 C672 1.370 . S
C673 C677 1.408 . S
C674 C672 1.363 . S
C674 C675 1.370 . S
C674 C678 1.524 . S
C675 C667 1.503 . S
C675 C674 1.370 . S
C675 C676 1.403 . S
C676 C675 1.403 . S
C676 C677 1.404 . S
C676 C679 1.539 . S
C677 C673 1.408 . S
C677 C676 1.404 . S
C677 H689 0.930 . S
C678 C674 1.524 . S
C678 H690 0.956 . S
C678 H691 0.961 . S
C678 H692 0.961 . S
C679 C676 1.539 . S
C679 H693 0.958 . S
C679 H694 0.961 . S
C679 H695 0.960 . S
H680 C664 0.931 . S
H681 C669 0.929 . S
H682 C670 0.960 . S
H683 C670 0.962 . S
H684 C670 0.960 . S
H685 C671 0.961 . S
H686 C671 0.961 . S
H687 C671 0.961 . S
H688 C672 0.931 . S
H689 C677 0.930 . S
H690 C678 0.956 . S
H691 C678 0.961 . S
H692 C678 0.961 . S
H693 C679 0.958 . S
H694 C679 0.961 . S
H695 C679 0.960 . S
C696 C697 1.391 . S
C696 C698 1.394 . S
C696 H712 0.931 . S
C697 C696 1.391 . S
C697 C701 1.376 . S
C698 C696 1.394 . S
C698 C699 1.369 . S
C698 C702 1.531 . S
C699 C698 1.369 . S
C699 C700 1.410 . S
C699 C707 1.503 . S
C700 C699 1.410 . S
C700 C701 1.392 . S
C700 C703 1.511 . S
C701 C697 1.376 . S
C701 C700 1.392 . S
C701 H713 0.929 . S
C702 C698 1.531 . S
C702 H714 0.960 . S
C702 H715 0.962 . S
C702 H716 0.960 . S
C703 C700 1.511 . S
C703 H717 0.961 . S
C703 H718 0.961 . S
C703 H719 0.961 . S
C704 C705 1.370 . S
C704 C706 1.363 . S
C704 H720 0.931 . S
C705 C704 1.370 . S
C705 C709 1.408 . S
C706 C704 1.363 . S
C706 C707 1.370 . S
C706 C710 1.524 . S
C707 C699 1.503 . S
C707 C706 1.370 . S
C707 C708 1.403 . S
C708 C707 1.403 . S
C708 C709 1.404 . S
C708 C711 1.539 . S
C709 C705 1.408 . S
C709 C708 1.404 . S
C709 H721 0.930 . S
C710 C706 1.524 . S
C710 H722 0.956 . S
C710 H723 0.961 . S
C710 H724 0.961 . S
C711 C708 1.539 . S
C711 H725 0.958 . S
C711 H726 0.961 . S
C711 H727 0.960 . S
H712 C696 0.931 . S
H713 C701 0.929 . S
H714 C702 0.960 . S
H715 C702 0.962 . S
H716 C702 0.960 . S
H717 C703 0.961 . S
H718 C703 0.961 . S
H719 C703 0.961 . S
H720 C704 0.931 . S
H721 C709 0.930 . S
H722 C710 0.956 . S
H723 C710 0.961 . S
H724 C710 0.961 . S
H725 C711 0.958 . S
H726 C711 0.961 . S
H727 C711 0.960 . S
C728 C729 1.391 . S
C728 C730 1.394 . S
C728 H744 0.931 . S
C729 C728 1.391 . S
C729 C733 1.376 . S
C730 C728 1.394 . S
C730 C731 1.369 . S
C730 C734 1.531 . S
C731 C730 1.369 . S
C731 C732 1.410 . S
C731 C739 1.503 . S
C732 C731 1.410 . S
C732 C733 1.392 . S
C732 C735 1.511 . S
C733 C729 1.376 . S
C733 C732 1.392 . S
C733 H745 0.929 . S
C734 C730 1.531 . S
C734 H746 0.960 . S
C734 H747 0.962 . S
C734 H748 0.960 . S
C735 C732 1.511 . S
C735 H749 0.961 . S
C735 H750 0.961 . S
C735 H751 0.961 . S
C736 C737 1.370 . S
C736 C738 1.363 . S
C736 H752 0.931 . S
C737 C736 1.370 . S
C737 C741 1.408 . S
C738 C736 1.363 . S
C738 C739 1.370 . S
C738 C742 1.524 . S
C739 C731 1.503 . S
C739 C738 1.370 . S
C739 C740 1.403 . S
C740 C739 1.403 . S
C740 C741 1.404 . S
C740 C743 1.539 . S
C741 C737 1.408 . S
C741 C740 1.404 . S
C741 H753 0.930 . S
C742 C738 1.524 . S
C742 H754 0.956 . S
C742 H755 0.961 . S
C742 H756 0.961 . S
C743 C740 1.539 . S
C743 H757 0.958 . S
C743 H758 0.961 . S
C743 H759 0.960 . S
H744 C728 0.931 . S
H745 C733 0.929 . S
H746 C734 0.960 . S
H747 C734 0.962 . S
H748 C734 0.960 . S
H749 C735 0.961 . S
H750 C735 0.961 . S
H751 C735 0.961 . S
H752 C736 0.931 . S
H753 C741 0.930 . S
H754 C742 0.956 . S
H755 C742 0.961 . S
H756 C742 0.961 . S
H757 C743 0.958 . S
H758 C743 0.961 . S
H759 C743 0.960 . S
C760 C761 1.391 . S
C760 C762 1.394 . S
C760 H776 0.931 . S
C761 C760 1.391 . S
C761 C765 1.376 . S
C762 C760 1.394 . S
C762 C763 1.369 . S
C762 C766 1.531 . S
C763 C762 1.369 . S
C763 C764 1.410 . S
C763 C771 1.503 . S
C764 C763 1.410 . S
C764 C765 1.392 . S
C764 C767 1.511 . S
C765 C761 1.376 . S
C765 C764 1.392 . S
C765 H777 0.929 . S
C766 C762 1.531 . S
C766 H778 0.960 . S
C766 H779 0.962 . S
C766 H780 0.960 . S
C767 C764 1.511 . S
C767 H781 0.961 . S
C767 H782 0.961 . S
C767 H783 0.961 . S
C768 C769 1.370 . S
C768 C770 1.363 . S
C768 H784 0.931 . S
C769 C768 1.370 . S
C769 C773 1.408 . S
C770 C768 1.363 . S
C770 C771 1.370 . S
C770 C774 1.524 . S
C771 C763 1.503 . S
C771 C770 1.370 . S
C771 C772 1.403 . S
C772 C771 1.403 . S
C772 C773 1.404 . S
C772 C775 1.539 . S
C773 C769 1.408 . S
C773 C772 1.404 . S
C773 H785 0.930 . S
C774 C770 1.524 . S
C774 H786 0.956 . S
C774 H787 0.961 . S
C774 H788 0.961 . S
C775 C772 1.539 . S
C775 H789 0.958 . S
C775 H790 0.961 . S
C775 H791 0.960 . S
H776 C760 0.931 . S
H777 C765 0.929 . S
H778 C766 0.960 . S
H779 C766 0.962 . S
H780 C766 0.960 . S
H781 C767 0.961 . S
H782 C767 0.961 . S
H783 C767 0.961 . S
H784 C768 0.931 . S
H785 C773 0.930 . S
H786 C774 0.956 . S
H787 C774 0.961 . S
H788 C774 0.961 . S
H789 C775 0.958 . S
H790 C775 0.961 . S
H791 C775 0.960 . S
C792 C793 1.391 . S
C792 C794 1.394 . S
C792 H808 0.931 . S
C793 C792 1.391 . S
C793 C797 1.376 1_655 S
C794 C792 1.394 . S
C794 C795 1.369 . S
C794 C798 1.531 . S
C795 C794 1.369 . S
C795 C796 1.410 1_655 S
C795 C803 1.503 . S
C796 C795 1.410 1_455 S
C796 C797 1.392 . S
C796 C799 1.511 . S
C797 C793 1.376 1_455 S
C797 C796 1.392 . S
C797 H809 0.929 . S
C798 C794 1.531 . S
C798 H810 0.960 . S
C798 H811 0.962 . S
C798 H812 0.960 . S
C799 C796 1.511 . S
C799 H813 0.961 . S
C799 H814 0.961 . S
C799 H815 0.961 . S
C800 C801 1.370 . S
C800 C802 1.363 . S
C800 H816 0.931 . S
C801 C800 1.370 . S
C801 C805 1.408 . S
C802 C800 1.363 . S
C802 C803 1.370 . S
C802 C806 1.524 . S
C803 C795 1.503 . S
C803 C802 1.370 . S
C803 C804 1.403 . S
C804 C803 1.403 . S
C804 C805 1.404 . S
C804 C807 1.539 . S
C805 C801 1.408 . S
C805 C804 1.404 . S
C805 H817 0.930 . S
C806 C802 1.524 . S
C806 H818 0.956 . S
C806 H819 0.961 . S
C806 H820 0.961 . S
C807 C804 1.539 . S
C807 H821 0.958 . S
C807 H822 0.961 1_655 S
C807 H823 0.960 1_655 S
H808 C792 0.931 . S
H809 C797 0.929 . S
H810 C798 0.960 . S
H811 C798 0.962 . S
H812 C798 0.960 . S
H813 C799 0.961 . S
H814 C799 0.961 . S
H815 C799 0.961 . S
H816 C800 0.931 . S
H817 C805 0.930 . S
H818 C806 0.956 . S
H819 C806 0.961 . S
H820 C806 0.961 . S
H821 C807 0.958 . S
H822 C807 0.961 1_455 S
H823 C807 0.960 1_455 S
C824 C825 1.391 . S
C824 C826 1.394 . S
C824 H840 0.931 . S
C825 C824 1.391 . S
C825 C829 1.376 . S
C826 C824 1.394 . S
C826 C827 1.369 . S
C826 C830 1.531 . S
C827 C826 1.369 . S
C827 C828 1.410 . S
C827 C835 1.503 . S
C828 C827 1.410 . S
C828 C829 1.392 . S
C828 C831 1.511 . S
C829 C825 1.376 . S
C829 C828 1.392 . S
C829 H841 0.929 . S
C830 C826 1.531 . S
C830 H842 0.960 . S
C830 H843 0.962 . S
C830 H844 0.960 . S
C831 C828 1.511 . S
C831 H845 0.961 . S
C831 H846 0.961 . S
C831 H847 0.961 . S
C832 C833 1.370 . S
C832 C834 1.363 . S
C832 H848 0.931 . S
C833 C832 1.370 . S
C833 C837 1.408 . S
C834 C832 1.363 . S
C834 C835 1.370 . S
C834 C838 1.524 . S
C835 C827 1.503 . S
C835 C834 1.370 . S
C835 C836 1.403 . S
C836 C835 1.403 . S
C836 C837 1.404 . S
C836 C839 1.539 . S
C837 C833 1.408 . S
C837 C836 1.404 . S
C837 H849 0.930 . S
C838 C834 1.524 . S
C838 H850 0.956 . S
C838 H851 0.961 . S
C838 H852 0.961 . S
C839 C836 1.539 . S
C839 H853 0.958 . S
C839 H854 0.961 . S
C839 H855 0.960 . S
H840 C824 0.931 . S
H841 C829 0.929 . S
H842 C830 0.960 . S
H843 C830 0.962 . S
H844 C830 0.960 . S
H845 C831 0.961 . S
H846 C831 0.961 . S
H847 C831 0.961 . S
H848 C832 0.931 . S
H849 C837 0.930 . S
H850 C838 0.956 . S
H851 C838 0.961 . S
H852 C838 0.961 . S
H853 C839 0.958 . S
H854 C839 0.961 . S
H855 C839 0.960 . S
C856 C857 1.391 . S
C856 C858 1.394 . S
C856 H872 0.931 . S
C857 C856 1.391 . S
C857 C861 1.376 . S
C858 C856 1.394 . S
C858 C859 1.369 . S
C858 C862 1.531 . S
C859 C858 1.369 . S
C859 C860 1.410 . S
C859 C867 1.503 . S
C860 C859 1.410 . S
C860 C861 1.392 . S
C860 C863 1.511 . S
C861 C857 1.376 . S
C861 C860 1.392 . S
C861 H873 0.929 . S
C862 C858 1.531 . S
C862 H874 0.960 . S
C862 H875 0.962 . S
C862 H876 0.960 . S
C863 C860 1.511 . S
C863 H877 0.961 . S
C863 H878 0.961 . S
C863 H879 0.961 . S
C864 C865 1.370 . S
C864 C866 1.363 . S
C864 H880 0.931 . S
C865 C864 1.370 . S
C865 C869 1.408 . S
C866 C864 1.363 . S
C866 C867 1.370 . S
C866 C870 1.524 . S
C867 C859 1.503 . S
C867 C866 1.370 . S
C867 C868 1.403 . S
C868 C867 1.403 . S
C868 C869 1.404 . S
C868 C871 1.539 . S
C869 C865 1.408 . S
C869 C868 1.404 . S
C869 H881 0.930 . S
C870 C866 1.524 . S
C870 H882 0.956 . S
C870 H883 0.961 . S
C870 H884 0.961 . S
C871 C868 1.539 . S
C871 H885 0.958 . S
C871 H886 0.961 . S
C871 H887 0.960 . S
H872 C856 0.931 . S
H873 C861 0.929 . S
H874 C862 0.960 . S
H875 C862 0.962 . S
H876 C862 0.960 . S
H877 C863 0.961 . S
H878 C863 0.961 . S
H879 C863 0.961 . S
H880 C864 0.931 . S
H881 C869 0.930 . S
H882 C870 0.956 . S
H883 C870 0.961 . S
H884 C870 0.961 . S
H885 C871 0.958 . S
H886 C871 0.961 . S
H887 C871 0.960 . S
C888 C889 1.391 . S
C888 C890 1.394 . S
C888 H904 0.931 . S
C889 C888 1.391 . S
C889 C893 1.376 . S
C890 C888 1.394 . S
C890 C891 1.369 . S
C890 C894 1.531 . S
C891 C890 1.369 . S
C891 C892 1.410 . S
C891 C899 1.503 . S
C892 C891 1.410 . S
C892 C893 1.392 . S
C892 C895 1.511 1_565 S
C893 C889 1.376 . S
C893 C892 1.392 . S
C893 H905 0.929 . S
C894 C890 1.531 . S
C894 H906 0.960 . S
C894 H907 0.962 . S
C894 H908 0.960 . S
C895 C892 1.511 1_545 S
C895 H909 0.961 1_545 S
C895 H910 0.961 1_545 S
C895 H911 0.961 . S
C896 C897 1.370 . S
C896 C898 1.363 . S
C896 H912 0.931 . S
C897 C896 1.370 . S
C897 C901 1.408 1_565 S
C898 C896 1.363 . S
C898 C899 1.370 . S
C898 C902 1.524 . S
C899 C891 1.503 . S
C899 C898 1.370 . S
C899 C900 1.403 1_565 S
C900 C899 1.403 1_545 S
C900 C901 1.404 . S
C900 C903 1.539 . S
C901 C897 1.408 1_545 S
C901 C900 1.404 . S
C901 H913 0.930 . S
C902 C898 1.524 . S
C902 H914 0.956 . S
C902 H915 0.961 . S
C902 H916 0.961 . S
C903 C900 1.539 . S
C903 H917 0.958 . S
C903 H918 0.961 . S
C903 H919 0.960 . S
H904 C888 0.931 . S
H905 C893 0.929 . S
H906 C894 0.960 . S
H907 C894 0.962 . S
H908 C894 0.960 . S
H909 C895 0.961 1_565 S
H910 C895 0.961 1_565 S
H911 C895 0.961 . S
H912 C896 0.931 . S
H913 C901 0.930 . S
H914 C902 0.956 . S
H915 C902 0.961 . S
H916 C902 0.961 . S
H917 C903 0.958 . S
H918 C903 0.961 . S
H919 C903 0.960 . S
C920 C921 1.391 . S
C920 C922 1.394 . S
C920 H936 0.931 . S
C921 C920 1.391 . S
C921 C925 1.376 . S
C922 C920 1.394 . S
C922 C923 1.369 . S
C922 C926 1.531 . S
C923 C922 1.369 . S
C923 C924 1.410 . S
C923 C931 1.503 . S
C924 C923 1.410 . S
C924 C925 1.392 . S
C924 C927 1.511 . S
C925 C921 1.376 . S
C925 C924 1.392 . S
C925 H937 0.929 . S
C926 C922 1.531 . S
C926 H938 0.960 . S
C926 H939 0.962 . S
C926 H940 0.960 . S
C927 C924 1.511 . S
C927 H941 0.961 . S
C927 H942 0.961 . S
C927 H943 0.961 . S
C928 C929 1.370 . S
C928 C930 1.363 . S
C928 H944 0.931 . S
C929 C928 1.370 . S
C929 C933 1.408 . S
C930 C928 1.363 . S
C930 C931 1.370 . S
C930 C934 1.524 . S
C931 C923 1.503 . S
C931 C930 1.370 . S
C931 C932 1.403 . S
C932 C931 1.403 . S
C932 C933 1.404 . S
C932 C935 1.539 . S
C933 C929 1.408 . S
C933 C932 1.404 . S
C933 H945 0.930 . S
C934 C930 1.524 . S
C934 H946 0.956 . S
C934 H947 0.961 . S
C934 H948 0.961 . S
C935 C932 1.539 . S
C935 H949 0.958 . S
C935 H950 0.961 . S
C935 H951 0.960 . S
H936 C920 0.931 . S
H937 C925 0.929 . S
H938 C926 0.960 . S
H939 C926 0.962 . S
H940 C926 0.960 . S
H941 C927 0.961 . S
H942 C927 0.961 . S
H943 C927 0.961 . S
H944 C928 0.931 . S
H945 C933 0.930 . S
H946 C934 0.956 . S
H947 C934 0.961 . S
H948 C934 0.961 . S
H949 C935 0.958 . S
H950 C935 0.961 . S
H951 C935 0.960 . S
C952 C953 1.391 . S
C952 C954 1.394 . S
C952 H968 0.931 . S
C953 C952 1.391 . S
C953 C957 1.376 . S
C954 C952 1.394 . S
C954 C955 1.369 . S
C954 C958 1.531 . S
C955 C954 1.369 . S
C955 C956 1.410 . S
C955 C963 1.503 . S
C956 C955 1.410 . S
C956 C957 1.392 . S
C956 C959 1.511 . S
C957 C953 1.376 . S
C957 C956 1.392 . S
C957 H969 0.929 . S
C958 C954 1.531 . S
C958 H970 0.960 . S
C958 H971 0.962 . S
C958 H972 0.960 . S
C959 C956 1.511 . S
C959 H973 0.961 . S
C959 H974 0.961 . S
C959 H975 0.961 . S
C960 C961 1.370 . S
C960 C962 1.363 . S
C960 H976 0.931 . S
C961 C960 1.370 . S
C961 C965 1.408 . S
C962 C960 1.363 . S
C962 C963 1.370 . S
C962 C966 1.524 . S
C963 C955 1.503 . S
C963 C962 1.370 . S
C963 C964 1.403 . S
C964 C963 1.403 . S
C964 C965 1.404 . S
C964 C967 1.539 . S
C965 C961 1.408 . S
C965 C964 1.404 . S
C965 H977 0.930 . S
C966 C962 1.524 . S
C966 H978 0.956 . S
C966 H979 0.961 . S
C966 H980 0.961 . S
C967 C964 1.539 . S
C967 H981 0.958 . S
C967 H982 0.961 . S
C967 H983 0.960 . S
H968 C952 0.931 . S
H969 C957 0.929 . S
H970 C958 0.960 . S
H971 C958 0.962 . S
H972 C958 0.960 . S
H973 C959 0.961 . S
H974 C959 0.961 . S
H975 C959 0.961 . S
H976 C960 0.931 . S
H977 C965 0.930 . S
H978 C966 0.956 . S
H979 C966 0.961 . S
H980 C966 0.961 . S
H981 C967 0.958 . S
H982 C967 0.961 . S
H983 C967 0.960 . S
C984 C985 1.391 . S
C984 C986 1.394 . S
C984 H1000 0.931 . S
C985 C984 1.391 . S
C985 C989 1.376 . S
C986 C984 1.394 . S
C986 C987 1.369 . S
C986 C990 1.531 . S
C987 C986 1.369 . S
C987 C988 1.410 . S
C987 C995 1.503 . S
C988 C987 1.410 . S
C988 C989 1.392 . S
C988 C991 1.511 . S
C989 C985 1.376 . S
C989 C988 1.392 . S
C989 H1001 0.929 . S
C990 C986 1.531 . S
C990 H1002 0.960 . S
C990 H1003 0.962 . S
C990 H1004 0.960 . S
C991 C988 1.511 . S
C991 H1005 0.961 . S
C991 H1006 0.961 . S
C991 H1007 0.961 . S
C992 C993 1.370 . S
C992 C994 1.363 . S
C992 H1008 0.931 . S
C993 C992 1.370 . S
C993 C997 1.408 . S
C994 C992 1.363 . S
C994 C995 1.370 . S
C994 C998 1.524 . S
C995 C987 1.503 . S
C995 C994 1.370 . S
C995 C996 1.403 . S
C996 C995 1.403 . S
C996 C997 1.404 . S
C996 C999 1.539 . S
C997 C993 1.408 . S
C997 C996 1.404 . S
C997 H1009 0.930 . S
C998 C994 1.524 . S
C998 H1010 0.956 . S
C998 H1011 0.961 . S
C998 H1012 0.961 . S
C999 C996 1.539 . S
C999 H1013 0.958 . S
C999 H1014 0.961 . S
C999 H1015 0.960 . S
H1000 C984 0.931 . S
H1001 C989 0.929 . S
H1002 C990 0.960 . S
H1003 C990 0.962 . S
H1004 C990 0.960 . S
H1005 C991 0.961 . S
H1006 C991 0.961 . S
H1007 C991 0.961 . S
H1008 C992 0.931 . S
H1009 C997 0.930 . S
H1010 C998 0.956 . S
H1011 C998 0.961 . S
H1012 C998 0.961 . S
H1013 C999 0.958 . S
H1014 C999 0.961 . S
H1015 C999 0.960 . S
C1016 C1017 1.391 . S
C1016 C1018 1.394 . S
C1016 H1032 0.931 . S
C1017 C1016 1.391 . S
C1017 C1021 1.376 . S
C1018 C1016 1.394 . S
C1018 C1019 1.369 . S
C1018 C1022 1.531 . S
C1019 C1018 1.369 . S
C1019 C1020 1.410 . S
C1019 C1027 1.503 . S
C1020 C1019 1.410 . S
C1020 C1021 1.392 . S
C1020 C1023 1.511 . S
C1021 C1017 1.376 . S
C1021 C1020 1.392 . S
C1021 H1033 0.929 . S
C1022 C1018 1.531 . S
C1022 H1034 0.960 . S
C1022 H1035 0.962 . S
C1022 H1036 0.960 . S
C1023 C1020 1.511 . S
C1023 H1037 0.961 . S
C1023 H1038 0.961 . S
C1023 H1039 0.961 . S
C1024 C1025 1.370 . S
C1024 C1026 1.363 . S
C1024 H1040 0.931 . S
C1025 C1024 1.370 . S
C1025 C1029 1.408 . S
C1026 C1024 1.363 . S
C1026 C1027 1.370 . S
C1026 C1030 1.524 . S
C1027 C1019 1.503 . S
C1027 C1026 1.370 . S
C1027 C1028 1.403 . S
C1028 C1027 1.403 . S
C1028 C1029 1.404 . S
C1028 C1031 1.539 . S
C1029 C1025 1.408 . S
C1029 C1028 1.404 . S
C1029 H1041 0.930 . S
C1030 C1026 1.524 . S
C1030 H1042 0.956 . S
C1030 H1043 0.961 . S
C1030 H1044 0.961 . S
C1031 C1028 1.539 . S
C1031 H1045 0.958 . S
C1031 H1046 0.961 . S
C1031 H1047 0.960 . S
H1032 C1016 0.931 . S
H1033 C1021 0.929 . S
H1034 C1022 0.960 . S
H1035 C1022 0.962 . S
H1036 C1022 0.960 . S
H1037 C1023 0.961 . S
H1038 C1023 0.961 . S
H1039 C1023 0.961 . S
H1040 C1024 0.931 . S
H1041 C1029 0.930 . S
H1042 C1030 0.956 . S
H1043 C1030 0.961 . S
H1044 C1030 0.961 . S
H1045 C1031 0.958 . S
H1046 C1031 0.961 . S
H1047 C1031 0.960 . S
C1048 C1049 1.391 . S
C1048 C1050 1.394 . S
C1048 H1064 0.931 . S
C1049 C1048 1.391 . S
C1049 C1053 1.376 . S
C1050 C1048 1.394 . S
C1050 C1051 1.369 . S
C1050 C1054 1.531 . S
C1051 C1050 1.369 . S
C1051 C1052 1.410 . S
C1051 C1059 1.503 . S
C1052 C1051 1.410 . S
C1052 C1053 1.392 . S
C1052 C1055 1.511 . S
C1053 C1049 1.376 . S
C1053 C1052 1.392 . S
C1053 H1065 0.929 . S
C1054 C1050 1.531 . S
C1054 H1066 0.960 . S
C1054 H1067 0.962 . S
C1054 H1068 0.960 . S
C1055 C1052 1.511 . S
C1055 H1069 0.961 . S
C1055 H1070 0.961 . S
C1055 H1071 0.961 . S
C1056 C1057 1.370 . S
C1056 C1058 1.363 . S
C1056 H1072 0.931 . S
C1057 C1056 1.370 . S
C1057 C1061 1.408 . S
C1058 C1056 1.363 . S
C1058 C1059 1.370 . S
C1058 C1062 1.524 . S
C1059 C1051 1.503 . S
C1059 C1058 1.370 . S
C1059 C1060 1.403 . S
C1060 C1059 1.403 . S
C1060 C1061 1.404 . S
C1060 C1063 1.539 . S
C1061 C1057 1.408 . S
C1061 C1060 1.404 . S
C1061 H1073 0.930 . S
C1062 C1058 1.524 . S
C1062 H1074 0.956 . S
C1062 H1075 0.961 . S
C1062 H1076 0.961 . S
C1063 C1060 1.539 . S
C1063 H1077 0.958 . S
C1063 H1078 0.961 . S
C1063 H1079 0.960 . S
H1064 C1048 0.931 . S
H1065 C1053 0.929 . S
H1066 C1054 0.960 . S
H1067 C1054 0.962 . S
H1068 C1054 0.960 . S
H1069 C1055 0.961 . S
H1070 C1055 0.961 . S
H1071 C1055 0.961 . S
H1072 C1056 0.931 . S
H1073 C1061 0.930 . S
H1074 C1062 0.956 . S
H1075 C1062 0.961 . S
H1076 C1062 0.961 . S
H1077 C1063 0.958 . S
H1078 C1063 0.961 . S
H1079 C1063 0.960 . S
C1080 C1081 1.391 . S
C1080 C1082 1.394 . S
C1080 H1096 0.931 . S
C1081 C1080 1.391 . S
C1081 C1085 1.342 1_455 S
C1082 C1080 1.394 . S
C1082 C1083 1.369 . S
C1082 C1086 1.531 . S
C1083 C1082 1.369 . S
C1083 C1084 1.410 1_455 S
C1083 C1091 1.503 . S
C1084 C1083 1.410 1_655 S
C1084 C1085 1.401 . S
C1084 C1087 1.511 . S
C1085 C1081 1.342 1_655 S
C1085 C1084 1.401 . S
C1085 H1097 0.956 . S
C1086 C1082 1.531 . S
C1086 H1098 0.960 . S
C1086 H1099 0.962 . S
C1086 H1100 0.960 . S
C1087 C1084 1.511 . S
C1087 H1101 0.961 . S
C1087 H1102 0.961 . S
C1087 H1103 0.961 . S
C1088 C1089 1.370 . S
C1088 C1090 1.363 . S
C1088 H1104 0.927 . S
C1089 C1088 1.370 . S
C1089 C1093 1.408 . S
C1090 C1088 1.363 . S
C1090 C1091 1.370 . S
C1090 C1094 1.524 . S
C1091 C1083 1.503 . S
C1091 C1090 1.370 . S
C1091 C1092 1.403 . S
C1092 C1091 1.403 . S
C1092 C1093 1.404 . S
C1092 C1095 1.539 . S
C1093 C1089 1.408 . S
C1093 C1092 1.404 . S
C1093 H1105 0.930 . S
C1094 C1090 1.524 . S
C1094 H1106 0.956 . S
C1094 H1107 0.961 1_455 S
C1094 H1108 0.961 1_455 S
C1095 C1092 1.539 . S
C1095 H1109 0.958 . S
C1095 H1110 0.961 . S
C1095 H1111 0.960 . S
H1096 C1080 0.931 . S
H1097 C1085 0.956 . S
H1098 C1086 0.960 . S
H1099 C1086 0.962 . S
H1100 C1086 0.960 . S
H1101 C1087 0.961 . S
H1102 C1087 0.961 . S
H1103 C1087 0.961 . S
H1104 C1088 0.927 . S
H1105 C1093 0.930 . S
H1106 C1094 0.956 . S
H1107 C1094 0.961 1_655 S
H1108 C1094 0.961 1_655 S
H1109 C1095 0.958 . S
H1110 C1095 0.961 . S
H1111 C1095 0.960 . S
C1112 C1113 1.391 . S
C1112 C1114 1.394 . S
C1112 H1128 0.931 . S
C1113 C1112 1.391 . S
C1113 C1117 1.376 . S
C1114 C1112 1.394 . S
C1114 C1115 1.369 . S
C1114 C1118 1.531 . S
C1115 C1114 1.369 . S
C1115 C1116 1.410 . S
C1115 C1123 1.503 . S
C1116 C1115 1.410 . S
C1116 C1117 1.392 . S
C1116 C1119 1.511 . S
C1117 C1113 1.376 . S
C1117 C1116 1.392 . S
C1117 H1129 0.929 . S
C1118 C1114 1.531 . S
C1118 H1130 0.960 . S
C1118 H1131 0.962 . S
C1118 H1132 0.960 . S
C1119 C1116 1.511 . S
C1119 H1133 0.961 . S
C1119 H1134 0.961 . S
C1119 H1135 0.961 . S
C1120 C1121 1.370 . S
C1120 C1122 1.363 . S
C1120 H1136 0.931 . S
C1121 C1120 1.370 . S
C1121 C1125 1.408 . S
C1122 C1120 1.363 . S
C1122 C1123 1.370 . S
C1122 C1126 1.524 . S
C1123 C1115 1.503 . S
C1123 C1122 1.370 . S
C1123 C1124 1.403 . S
C1124 C1123 1.403 . S
C1124 C1125 1.404 . S
C1124 C1127 1.539 . S
C1125 C1121 1.408 . S
C1125 C1124 1.404 . S
C1125 H1137 0.930 . S
C1126 C1122 1.524 . S
C1126 H1138 0.956 . S
C1126 H1139 0.961 . S
C1126 H1140 0.961 . S
C1127 C1124 1.539 . S
C1127 H1141 0.958 . S
C1127 H1142 0.961 . S
C1127 H1143 0.960 . S
H1128 C1112 0.931 . S
H1129 C1117 0.929 . S
H1130 C1118 0.960 . S
H1131 C1118 0.962 . S
H1132 C1118 0.960 . S
H1133 C1119 0.961 . S
H1134 C1119 0.961 . S
H1135 C1119 0.961 . S
H1136 C1120 0.931 . S
H1137 C1125 0.930 . S
H1138 C1126 0.956 . S
H1139 C1126 0.961 . S
H1140 C1126 0.961 . S
H1141 C1127 0.958 . S
H1142 C1127 0.961 . S
H1143 C1127 0.960 . S
C1144 C1145 1.391 . S
C1144 C1146 1.394 . S
C1144 H1160 0.931 . S
C1145 C1144 1.391 . S
C1145 C1149 1.376 . S
C1146 C1144 1.394 . S
C1146 C1147 1.369 . S
C1146 C1150 1.537 . S
C1147 C1146 1.369 . S
C1147 C1148 1.410 . S
C1147 C1155 1.503 . S
C1148 C1147 1.410 . S
C1148 C1149 1.392 . S
C1148 C1151 1.511 . S
C1149 C1145 1.376 . S
C1149 C1148 1.392 . S
C1149 H1161 0.929 . S
C1150 C1146 1.537 . S
C1150 H1162 0.948 1_545 S
C1150 H1163 0.983 . S
C1150 H1164 0.946 1_545 S
C1151 C1148 1.511 . S
C1151 H1165 0.961 . S
C1151 H1166 0.961 . S
C1151 H1167 0.961 . S
C1152 C1153 1.370 . S
C1152 C1154 1.363 . S
C1152 H1168 0.931 . S
C1153 C1152 1.370 . S
C1153 C1157 1.408 . S
C1154 C1152 1.363 . S
C1154 C1155 1.370 . S
C1154 C1158 1.524 . S
C1155 C1147 1.503 . S
C1155 C1154 1.370 . S
C1155 C1156 1.403 . S
C1156 C1155 1.403 . S
C1156 C1157 1.404 . S
C1156 C1159 1.539 . S
C1157 C1153 1.408 . S
C1157 C1156 1.404 . S
C1157 H1169 0.930 . S
C1158 C1154 1.524 . S
C1158 H1170 0.956 . S
C1158 H1171 0.961 . S
C1158 H1172 0.961 . S
C1159 C1156 1.539 . S
C1159 H1173 0.958 1_545 S
C1159 H1174 0.961 . S
C1159 H1175 0.960 . S
H1160 C1144 0.931 . S
H1161 C1149 0.929 . S
H1162 C1150 0.948 1_565 S
H1163 C1150 0.983 . S
H1164 C1150 0.946 1_565 S
H1165 C1151 0.961 . S
H1166 C1151 0.961 . S
H1167 C1151 0.961 . S
H1168 C1152 0.931 . S
H1169 C1157 0.930 . S
H1170 C1158 0.956 . S
H1171 C1158 0.961 . S
H1172 C1158 0.961 . S
H1173 C1159 0.958 1_565 S
H1174 C1159 0.961 . S
H1175 C1159 0.960 . S
C1176 C1177 1.391 . S
C1176 C1178 1.394 . S
C1176 H1192 0.931 . S
C1177 C1176 1.391 . S
C1177 C1181 1.376 . S
C1178 C1176 1.394 . S
C1178 C1179 1.369 . S
C1178 C1182 1.531 . S
C1179 C1178 1.369 . S
C1179 C1180 1.410 . S
C1179 C1187 1.503 . S
C1180 C1179 1.410 . S
C1180 C1181 1.392 . S
C1180 C1183 1.511 . S
C1181 C1177 1.376 . S
C1181 C1180 1.392 . S
C1181 H1193 0.929 . S
C1182 C1178 1.531 . S
C1182 H1194 0.960 . S
C1182 H1195 0.962 . S
C1182 H1196 0.960 . S
C1183 C1180 1.511 . S
C1183 H1197 0.961 . S
C1183 H1198 0.961 . S
C1183 H1199 0.961 1_545 S
C1184 C1185 1.370 . S
C1184 C1186 1.363 . S
C1184 H1200 0.931 . S
C1185 C1184 1.370 . S
C1185 C1189 1.408 1_545 S
C1186 C1184 1.363 . S
C1186 C1187 1.370 . S
C1186 C1190 1.524 . S
C1187 C1179 1.503 . S
C1187 C1186 1.370 . S
C1187 C1188 1.403 1_545 S
C1188 C1187 1.403 1_565 S
C1188 C1189 1.404 . S
C1188 C1191 1.539 . S
C1189 C1185 1.408 1_565 S
C1189 C1188 1.404 . S
C1189 H1201 0.930 . S
C1190 C1186 1.524 . S
C1190 H1202 0.956 . S
C1190 H1203 0.961 . S
C1190 H1204 0.961 . S
C1191 C1188 1.539 . S
C1191 H1205 0.958 . S
C1191 H1206 0.961 . S
C1191 H1207 0.960 . S
H1192 C1176 0.931 . S
H1193 C1181 0.929 . S
H1194 C1182 0.960 . S
H1195 C1182 0.962 . S
H1196 C1182 0.960 . S
H1197 C1183 0.961 . S
H1198 C1183 0.961 . S
H1199 C1183 0.961 1_565 S
H1200 C1184 0.931 . S
H1201 C1189 0.930 . S
H1202 C1190 0.956 . S
H1203 C1190 0.961 . S
H1204 C1190 0.961 . S
H1205 C1191 0.958 . S
H1206 C1191 0.961 . S
H1207 C1191 0.960 . S
C1208 C1209 1.391 . S
C1208 C1210 1.394 . S
C1208 H1224 0.931 . S
C1209 C1208 1.391 . S
C1209 C1213 1.376 . S
C1210 C1208 1.394 . S
C1210 C1211 1.369 . S
C1210 C1214 1.531 . S
C1211 C1210 1.369 . S
C1211 C1212 1.410 . S
C1211 C1219 1.503 . S
C1212 C1211 1.410 . S
C1212 C1213 1.392 . S
C1212 C1215 1.511 . S
C1213 C1209 1.376 . S
C1213 C1212 1.392 . S
C1213 H1225 0.929 . S
C1214 C1210 1.531 . S
C1214 H1226 0.960 . S
C1214 H1227 0.962 . S
C1214 H1228 0.960 . S
C1215 C1212 1.511 . S
C1215 H1229 0.961 1_455 S
C1215 H1230 0.961 1_455 S
C1215 H1231 0.961 . S
C1216 C1217 1.370 . S
C1216 C1218 1.363 . S
C1216 H1232 0.931 . S
C1217 C1216 1.370 . S
C1217 C1221 1.408 . S
C1218 C1216 1.363 . S
C1218 C1219 1.370 . S
C1218 C1222 1.524 . S
C1219 C1211 1.503 . S
C1219 C1218 1.370 . S
C1219 C1220 1.403 . S
C1220 C1219 1.403 . S
C1220 C1221 1.404 . S
C1220 C1223 1.539 . S
C1221 C1217 1.408 . S
C1221 C1220 1.404 . S
C1221 H1233 0.930 . S
C1222 C1218 1.524 . S
C1222 H1234 0.956 . S
C1222 H1235 0.961 . S
C1222 H1236 0.961 . S
C1223 C1220 1.539 . S
C1223 H1237 0.958 . S
C1223 H1238 0.961 . S
C1223 H1239 0.960 . S
H1224 C1208 0.931 . S
H1225 C1213 0.929 . S
H1226 C1214 0.960 . S
H1227 C1214 0.962 . S
H1228 C1214 0.960 . S
H1229 C1215 0.961 1_655 S
H1230 C1215 0.961 1_655 S
H1231 C1215 0.961 . S
H1232 C1216 0.931 . S
H1233 C1221 0.930 . S
H1234 C1222 0.956 . S
H1235 C1222 0.961 . S
H1236 C1222 0.961 . S
H1237 C1223 0.958 . S
H1238 C1223 0.961 . S
H1239 C1223 0.960 . S
C1240 C1241 1.391 . S
C1240 C1242 1.394 . S
C1240 H1256 0.931 . S
C1241 C1240 1.391 . S
C1241 C1245 1.376 . S
C1242 C1240 1.394 . S
C1242 C1243 1.369 . S
C1242 C1246 1.531 . S
C1243 C1242 1.369 . S
C1243 C1244 1.410 . S
C1243 C1251 1.503 . S
C1244 C1243 1.410 . S
C1244 C1245 1.392 . S
C1244 C1247 1.511 . S
C1245 C1241 1.376 . S
C1245 C1244 1.392 . S
C1245 H1257 0.929 . S
C1246 C1242 1.531 . S
C1246 H1258 0.960 . S
C1246 H1259 0.962 . S
C1246 H1260 0.960 . S
C1247 C1244 1.511 . S
C1247 H1261 0.961 . S
C1247 H1262 0.961 . S
C1247 H1263 0.961 . S
C1248 C1249 1.370 . S
C1248 C1250 1.363 . S
C1248 H1264 0.931 . S
C1249 C1248 1.370 . S
C1249 C1253 1.408 . S
C1250 C1248 1.363 . S
C1250 C1251 1.370 . S
C1250 C1254 1.524 . S
C1251 C1243 1.503 . S
C1251 C1250 1.370 . S
C1251 C1252 1.403 . S
C1252 C1251 1.403 . S
C1252 C1253 1.404 . S
C1252 C1255 1.539 . S
C1253 C1249 1.408 . S
C1253 C1252 1.404 . S
C1253 H1265 0.930 . S
C1254 C1250 1.524 . S
C1254 H1266 0.956 . S
C1254 H1267 0.961 . S
C1254 H1268 0.961 . S
C1255 C1252 1.539 . S
C1255 H1269 0.958 . S
C1255 H1270 0.961 . S
C1255 H1271 0.960 . S
H1256 C1240 0.931 . S
H1257 C1245 0.929 . S
H1258 C1246 0.960 . S
H1259 C1246 0.962 . S
H1260 C1246 0.960 . S
H1261 C1247 0.961 . S
H1262 C1247 0.961 . S
H1263 C1247 0.961 . S
H1264 C1248 0.931 . S
H1265 C1253 0.930 . S
H1266 C1254 0.956 . S
H1267 C1254 0.961 . S
H1268 C1254 0.961 . S
H1269 C1255 0.958 . S
H1270 C1255 0.961 . S
H1271 C1255 0.960 . S
C1272 C1273 1.391 . S
C1272 C1274 1.394 . S
C1272 H1288 0.931 . S
C1273 C1272 1.391 . S
C1273 C1277 1.376 . S
C1274 C1272 1.394 . S
C1274 C1275 1.369 . S
C1274 C1278 1.531 . S
C1275 C1274 1.369 . S
C1275 C1276 1.410 . S
C1275 C1283 1.503 . S
C1276 C1275 1.410 . S
C1276 C1277 1.392 . S
C1276 C1279 1.511 . S
C1277 C1273 1.376 . S
C1277 C1276 1.392 . S
C1277 H1289 0.929 . S
C1278 C1274 1.531 . S
C1278 H1290 0.960 . S
C1278 H1291 0.962 . S
C1278 H1292 0.960 . S
C1279 C1276 1.511 . S
C1279 H1293 0.961 . S
C1279 H1294 0.961 . S
C1279 H1295 0.961 . S
C1280 C1281 1.370 . S
C1280 C1282 1.363 . S
C1280 H1296 0.931 . S
C1281 C1280 1.370 . S
C1281 C1285 1.408 . S
C1282 C1280 1.363 . S
C1282 C1283 1.370 . S
C1282 C1286 1.524 . S
C1283 C1275 1.503 . S
C1283 C1282 1.370 . S
C1283 C1284 1.403 . S
C1284 C1283 1.403 . S
C1284 C1285 1.404 . S
C1284 C1287 1.539 1_455 S
C1285 C1281 1.408 . S
C1285 C1284 1.404 . S
C1285 H1297 0.930 . S
C1286 C1282 1.524 . S
C1286 H1298 0.956 . S
C1286 H1299 0.961 . S
C1286 H1300 0.961 . S
C1287 C1284 1.539 1_655 S
C1287 H1301 0.958 . S
C1287 H1302 0.961 . S
C1287 H1303 0.960 . S
H1288 C1272 0.931 . S
H1289 C1277 0.929 . S
H1290 C1278 0.960 . S
H1291 C1278 0.962 . S
H1292 C1278 0.960 . S
H1293 C1279 0.961 . S
H1294 C1279 0.961 . S
H1295 C1279 0.961 . S
H1296 C1280 0.931 . S
H1297 C1285 0.930 . S
H1298 C1286 0.956 . S
H1299 C1286 0.961 . S
H1300 C1286 0.961 . S
H1301 C1287 0.958 . S
H1302 C1287 0.961 . S
H1303 C1287 0.960 . S
C1304 C1305 1.391 . S
C1304 C1306 1.394 . S
C1304 H1320 0.931 . S
C1305 C1304 1.391 . S
C1305 C1309 1.376 . S
C1306 C1304 1.394 . S
C1306 C1307 1.369 . S
C1306 C1310 1.531 . S
C1307 C1306 1.369 . S
C1307 C1308 1.410 . S
C1307 C1315 1.503 . S
C1308 C1307 1.410 . S
C1308 C1309 1.392 . S
C1308 C1311 1.511 . S
C1309 C1305 1.376 . S
C1309 C1308 1.392 . S
C1309 H1321 0.929 . S
C1310 C1306 1.531 . S
C1310 H1322 0.960 . S
C1310 H1323 0.962 . S
C1310 H1324 0.960 . S
C1311 C1308 1.511 . S
C1311 H1325 0.961 . S
C1311 H1326 0.961 . S
C1311 H1327 0.961 . S
C1312 C1313 1.370 . S
C1312 C1314 1.363 . S
C1312 H1328 0.931 . S
C1313 C1312 1.370 . S
C1313 C1317 1.408 . S
C1314 C1312 1.363 . S
C1314 C1315 1.370 . S
C1314 C1318 1.524 . S
C1315 C1307 1.503 . S
C1315 C1314 1.370 . S
C1315 C1316 1.403 . S
C1316 C1315 1.403 . S
C1316 C1317 1.404 . S
C1316 C1319 1.539 . S
C1317 C1313 1.408 . S
C1317 C1316 1.404 . S
C1317 H1329 0.930 . S
C1318 C1314 1.524 . S
C1318 H1330 0.956 . S
C1318 H1331 0.961 . S
C1318 H1332 0.961 . S
C1319 C1316 1.539 . S
C1319 H1333 0.958 . S
C1319 H1334 0.961 . S
C1319 H1335 0.960 . S
H1320 C1304 0.931 . S
H1321 C1309 0.929 . S
H1322 C1310 0.960 . S
H1323 C1310 0.962 . S
H1324 C1310 0.960 . S
H1325 C1311 0.961 . S
H1326 C1311 0.961 . S
H1327 C1311 0.961 . S
H1328 C1312 0.931 . S
H1329 C1317 0.930 . S
H1330 C1318 0.956 . S
H1331 C1318 0.961 . S
H1332 C1318 0.961 . S
H1333 C1319 0.958 . S
H1334 C1319 0.961 . S
H1335 C1319 0.960 . S
C1336 C1337 1.391 . S
C1336 C1338 1.394 . S
C1336 H1352 0.931 . S
C1337 C1336 1.391 . S
C1337 C1341 1.376 . S
C1338 C1336 1.394 . S
C1338 C1339 1.369 . S
C1338 C1342 1.531 . S
C1339 C1338 1.369 . S
C1339 C1340 1.410 . S
C1339 C1347 1.503 . S
C1340 C1339 1.410 . S
C1340 C1341 1.392 . S
C1340 C1343 1.511 1_545 S
C1341 C1337 1.376 . S
C1341 C1340 1.392 . S
C1341 H1353 0.929 1_545 S
C1342 C1338 1.531 . S
C1342 H1354 0.960 . S
C1342 H1355 0.962 . S
C1342 H1356 0.960 . S
C1343 C1340 1.511 1_565 S
C1343 H1357 0.961 . S
C1343 H1358 0.961 . S
C1343 H1359 0.961 . S
C1344 C1345 1.370 1_565 S
C1344 C1346 1.363 1_565 S
C1344 H1360 0.931 . S
C1345 C1344 1.370 1_545 S
C1345 C1349 1.408 . S
C1346 C1344 1.363 1_545 S
C1346 C1347 1.370 . S
C1346 C1350 1.524 1_545 S
C1347 C1339 1.503 . S
C1347 C1346 1.370 . S
C1347 C1348 1.403 . S
C1348 C1347 1.403 . S
C1348 C1349 1.404 . S
C1348 C1351 1.539 . S
C1349 C1345 1.408 . S
C1349 C1348 1.404 . S
C1349 H1361 0.930 . S
C1350 C1346 1.524 1_565 S
C1350 H1362 0.956 1_565 S
C1350 H1363 0.961 . S
C1350 H1364 0.961 . S
C1351 C1348 1.539 . S
C1351 H1365 0.958 . S
C1351 H1366 0.961 . S
C1351 H1367 0.960 . S
H1352 C1336 0.931 . S
H1353 C1341 0.929 1_565 S
H1354 C1342 0.960 . S
H1355 C1342 0.962 . S
H1356 C1342 0.960 . S
H1357 C1343 0.961 . S
H1358 C1343 0.961 . S
H1359 C1343 0.961 . S
H1360 C1344 0.931 . S
H1361 C1349 0.930 . S
H1362 C1350 0.956 1_545 S
H1363 C1350 0.961 . S
H1364 C1350 0.961 . S
H1365 C1351 0.958 . S
H1366 C1351 0.961 . S
H1367 C1351 0.960 . S
C1368 C1369 1.391 . S
C1368 C1370 1.394 . S
C1368 H1384 0.931 . S
C1369 C1368 1.391 . S
C1369 C1373 1.376 . S
C1370 C1368 1.394 . S
C1370 C1371 1.369 . S
C1370 C1374 1.531 . S
C1371 C1370 1.369 . S
C1371 C1372 1.410 . S
C1371 C1379 1.503 . S
C1372 C1371 1.410 . S
C1372 C1373 1.392 . S
C1372 C1375 1.511 . S
C1373 C1369 1.376 . S
C1373 C1372 1.392 . S
C1373 H1385 0.929 . S
C1374 C1370 1.531 . S
C1374 H1386 0.960 . S
C1374 H1387 0.962 . S
C1374 H1388 0.960 . S
C1375 C1372 1.511 . S
C1375 H1389 0.961 . S
C1375 H1390 0.961 . S
C1375 H1391 0.961 . S
C1376 C1377 1.370 . S
C1376 C1378 1.363 . S
C1376 H1392 0.931 . S
C1377 C1376 1.370 . S
C1377 C1381 1.408 . S
C1378 C1376 1.363 . S
C1378 C1379 1.370 . S
C1378 C1382 1.524 1_545 S
C1379 C1371 1.503 . S
C1379 C1378 1.370 . S
C1379 C1380 1.403 . S
C1380 C1379 1.403 . S
C1380 C1381 1.404 . S
C1380 C1383 1.539 . S
C1381 C1377 1.408 . S
C1381 C1380 1.404 . S
C1381 H1393 0.930 . S
C1382 C1378 1.524 1_565 S
C1382 H1394 0.943 . S
C1382 H1395 0.961 . S
C1382 H1396 0.961 . S
C1383 C1380 1.539 . S
C1383 H1397 0.958 . S
C1383 H1398 0.961 . S
C1383 H1399 0.960 . S
H1384 C1368 0.931 . S
H1385 C1373 0.929 . S
H1386 C1374 0.960 . S
H1387 C1374 0.962 . S
H1388 C1374 0.960 . S
H1389 C1375 0.961 . S
H1390 C1375 0.961 . S
H1391 C1375 0.961 . S
H1392 C1376 0.931 . S
H1393 C1381 0.930 . S
H1394 C1382 0.943 . S
H1395 C1382 0.961 . S
H1396 C1382 0.961 . S
H1397 C1383 0.958 . S
H1398 C1383 0.961 . S
H1399 C1383 0.960 . S
C1400 C1401 1.411 . S
C1400 C1402 1.397 1_455 S
C1400 H1416 0.909 1_455 S
C1401 C1400 1.411 . S
C1401 C1405 1.376 . S
C1402 C1400 1.397 1_655 S
C1402 C1403 1.369 1_655 S
C1402 C1406 1.531 . S
C1403 C1402 1.369 1_455 S
C1403 C1404 1.410 . S
C1403 C1411 1.503 . S
C1404 C1403 1.410 . S
C1404 C1405 1.392 . S
C1404 C1407 1.511 . S
C1405 C1401 1.376 . S
C1405 C1404 1.392 . S
C1405 H1417 0.929 . S
C1406 C1402 1.531 . S
C1406 H1418 0.960 . S
C1406 H1419 0.962 . S
C1406 H1420 0.960 . S
C1407 C1404 1.511 . S
C1407 H1421 0.961 . S
C1407 H1422 0.961 . S
C1407 H1423 0.961 . S
C1408 C1409 1.387 . S
C1408 C1410 1.365 . S
C1408 H1424 0.912 1_455 S
C1409 C1408 1.387 . S
C1409 C1413 1.408 . S
C1410 C1408 1.365 . S
C1410 C1411 1.370 . S
C1410 C1414 1.524 1_455 S
C1411 C1403 1.503 . S
C1411 C1410 1.370 . S
C1411 C1412 1.403 . S
C1412 C1411 1.403 . S
C1412 C1413 1.404 . S
C1412 C1415 1.539 . S
C1413 C1409 1.408 . S
C1413 C1412 1.404 . S
C1413 H1425 0.930 . S
C1414 C1410 1.524 1_655 S
C1414 H1426 0.956 . S
C1414 H1427 0.961 1_655 S
C1414 H1428 0.961 . S
C1415 C1412 1.539 . S
C1415 H1429 0.958 . S
C1415 H1430 0.961 . S
C1415 H1431 0.960 . S
H1416 C1400 0.909 1_655 S
H1417 C1405 0.929 . S
H1418 C1406 0.960 . S
H1419 C1406 0.962 . S
H1420 C1406 0.960 . S
H1421 C1407 0.961 . S
H1422 C1407 0.961 . S
H1423 C1407 0.961 . S
H1424 C1408 0.912 1_655 S
H1425 C1413 0.930 . S
H1426 C1414 0.956 . S
H1427 C1414 0.961 1_455 S
H1428 C1414 0.961 . S
H1429 C1415 0.958 . S
H1430 C1415 0.961 . S
H1431 C1415 0.960 . S
C1432 C1433 1.391 . S
C1432 C1434 1.394 . S
C1432 H1448 0.931 . S
C1433 C1432 1.391 . S
C1433 C1437 1.376 . S
C1434 C1432 1.394 . S
C1434 C1435 1.369 . S
C1434 C1438 1.531 . S
C1435 C1434 1.369 . S
C1435 C1436 1.410 . S
C1435 C1443 1.503 . S
C1436 C1435 1.410 . S
C1436 C1437 1.392 . S
C1436 C1439 1.511 . S
C1437 C1433 1.376 . S
C1437 C1436 1.392 . S
C1437 H1449 0.929 . S
C1438 C1434 1.531 . S
C1438 H1450 0.960 . S
C1438 H1451 0.962 . S
C1438 H1452 0.960 . S
C1439 C1436 1.511 . S
C1439 H1453 0.961 . S
C1439 H1454 0.961 . S
C1439 H1455 0.961 . S
C1440 C1441 1.370 . S
C1440 C1442 1.363 . S
C1440 H1456 0.931 . S
C1441 C1440 1.370 . S
C1441 C1445 1.408 . S
C1442 C1440 1.363 . S
C1442 C1443 1.370 . S
C1442 C1446 1.524 . S
C1443 C1435 1.503 . S
C1443 C1442 1.370 . S
C1443 C1444 1.403 . S
C1444 C1443 1.403 . S
C1444 C1445 1.404 . S
C1444 C1447 1.539 . S
C1445 C1441 1.408 . S
C1445 C1444 1.404 . S
C1445 H1457 0.930 . S
C1446 C1442 1.524 . S
C1446 H1458 0.956 . S
C1446 H1459 0.961 . S
C1446 H1460 0.961 . S
C1447 C1444 1.539 . S
C1447 H1461 0.958 . S
C1447 H1462 0.961 . S
C1447 H1463 0.960 . S
H1448 C1432 0.931 . S
H1449 C1437 0.929 . S
H1450 C1438 0.960 . S
H1451 C1438 0.962 . S
H1452 C1438 0.960 . S
H1453 C1439 0.961 . S
H1454 C1439 0.961 . S
H1455 C1439 0.961 . S
H1456 C1440 0.931 . S
H1457 C1445 0.930 . S
H1458 C1446 0.956 . S
H1459 C1446 0.961 . S
H1460 C1446 0.961 . S
H1461 C1447 0.958 . S
H1462 C1447 0.961 . S
H1463 C1447 0.960 . S
C1464 C1465 1.391 . S
C1464 C1466 1.394 . S
C1464 H1480 0.931 . S
C1465 C1464 1.391 . S
C1465 C1469 1.376 . S
C1466 C1464 1.394 . S
C1466 C1467 1.369 . S
C1466 C1470 1.531 . S
C1467 C1466 1.369 . S
C1467 C1468 1.410 . S
C1467 C1475 1.503 . S
C1468 C1467 1.410 . S
C1468 C1469 1.392 . S
C1468 C1471 1.511 . S
C1469 C1465 1.376 . S
C1469 C1468 1.392 . S
C1469 H1481 0.929 . S
C1470 C1466 1.531 . S
C1470 H1482 0.960 . S
C1470 H1483 0.962 . S
C1470 H1484 0.960 . S
C1471 C1468 1.511 . S
C1471 H1485 0.961 . S
C1471 H1486 0.961 . S
C1471 H1487 0.961 . S
C1472 C1473 1.370 . S
C1472 C1474 1.363 . S
C1472 H1488 0.931 . S
C1473 C1472 1.370 . S
C1473 C1477 1.408 . S
C1474 C1472 1.363 . S
C1474 C1475 1.370 . S
C1474 C1478 1.524 . S
C1475 C1467 1.503 . S
C1475 C1474 1.370 . S
C1475 C1476 1.403 . S
C1476 C1475 1.403 . S
C1476 C1477 1.404 . S
C1476 C1479 1.539 . S
C1477 C1473 1.408 . S
C1477 C1476 1.404 . S
C1477 H1489 0.930 . S
C1478 C1474 1.524 . S
C1478 H1490 0.956 . S
C1478 H1491 0.961 . S
C1478 H1492 0.961 . S
C1479 C1476 1.539 . S
C1479 H1493 0.958 . S
C1479 H1494 0.961 . S
C1479 H1495 0.960 . S
H1480 C1464 0.931 . S
H1481 C1469 0.929 . S
H1482 C1470 0.960 . S
H1483 C1470 0.962 . S
H1484 C1470 0.960 . S
H1485 C1471 0.961 . S
H1486 C1471 0.961 . S
H1487 C1471 0.961 . S
H1488 C1472 0.931 . S
H1489 C1477 0.930 . S
H1490 C1478 0.956 . S
H1491 C1478 0.961 . S
H1492 C1478 0.961 . S
H1493 C1479 0.958 . S
H1494 C1479 0.961 . S
H1495 C1479 0.960 . S
C1496 C1497 1.391 . S
C1496 C1498 1.394 . S
C1496 H1512 0.931 . S
C1497 C1496 1.391 . S
C1497 C1501 1.376 . S
C1498 C1496 1.394 . S
C1498 C1499 1.369 . S
C1498 C1502 1.531 . S
C1499 C1498 1.369 . S
C1499 C1500 1.410 . S
C1499 C1507 1.503 . S
C1500 C1499 1.410 . S
C1500 C1501 1.392 . S
C1500 C1503 1.515 . S
C1501 C1497 1.376 . S
C1501 C1500 1.392 . S
C1501 H1513 0.929 . S
C1502 C1498 1.531 . S
C1502 H1514 0.960 . S
C1502 H1515 0.962 . S
C1502 H1516 0.960 . S
C1503 C1500 1.515 . S
C1503 H1517 0.954 1_545 S
C1503 H1518 0.954 1_545 S
C1503 H1519 0.971 . S
C1504 C1505 1.370 . S
C1504 C1506 1.363 . S
C1504 H1520 0.931 1_545 S
C1505 C1504 1.370 . S
C1505 C1509 1.408 . S
C1506 C1504 1.363 . S
C1506 C1507 1.370 . S
C1506 C1510 1.524 1_545 S
C1507 C1499 1.503 . S
C1507 C1506 1.370 . S
C1507 C1508 1.403 . S
C1508 C1507 1.403 . S
C1508 C1509 1.404 . S
C1508 C1511 1.539 . S
C1509 C1505 1.408 . S
C1509 C1508 1.404 . S
C1509 H1521 0.930 . S
C1510 C1506 1.524 1_565 S
C1510 H1522 0.956 1_565 S
C1510 H1523 0.961 . S
C1510 H1524 0.961 . S
C1511 C1508 1.539 . S
C1511 H1525 0.958 . S
C1511 H1526 0.961 . S
C1511 H1527 0.960 . S
H1512 C1496 0.931 . S
H1513 C1501 0.929 . S
H1514 C1502 0.960 . S
H1515 C1502 0.962 . S
H1516 C1502 0.960 . S
H1517 C1503 0.954 1_565 S
H1518 C1503 0.954 1_565 S
H1519 C1503 0.971 . S
H1520 C1504 0.931 1_565 S
H1521 C1509 0.930 . S
H1522 C1510 0.956 1_545 S
H1523 C1510 0.961 . S
H1524 C1510 0.961 . S
H1525 C1511 0.958 . S
H1526 C1511 0.961 . S
H1527 C1511 0.960 . S
C1528 C1529 1.391 1_655 S
C1528 C1530 1.394 1_655 S
C1528 H1544 0.931 . S
C1529 C1528 1.391 1_455 S
C1529 C1533 1.376 . S
C1530 C1528 1.394 1_455 S
C1530 C1531 1.369 . S
C1530 C1534 1.531 1_455 S
C1531 C1530 1.369 . S
C1531 C1532 1.410 . S
C1531 C1539 1.503 . S
C1532 C1531 1.410 . S
C1532 C1533 1.392 . S
C1532 C1535 1.511 . S
C1533 C1529 1.376 . S
C1533 C1532 1.392 . S
C1533 H1545 0.929 . S
C1534 C1530 1.531 1_655 S
C1534 H1546 0.960 . S
C1534 H1547 0.962 . S
C1534 H1548 0.960 . S
C1535 C1532 1.511 . S
C1535 H1549 0.961 . S
C1535 H1550 0.961 . S
C1535 H1551 0.961 . S
C1536 C1537 1.370 . S
C1536 C1538 1.363 . S
C1536 H1552 0.931 . S
C1537 C1536 1.370 . S
C1537 C1541 1.408 . S
C1538 C1536 1.363 . S
C1538 C1539 1.370 . S
C1538 C1542 1.524 . S
C1539 C1531 1.503 . S
C1539 C1538 1.370 . S
C1539 C1540 1.403 . S
C1540 C1539 1.403 . S
C1540 C1541 1.404 . S
C1540 C1543 1.539 1_455 S
C1541 C1537 1.408 . S
C1541 C1540 1.404 . S
C1541 H1553 0.930 . S
C1542 C1538 1.524 . S
C1542 H1554 0.956 . S
C1542 H1555 0.961 . S
C1542 H1556 0.961 . S
C1543 C1540 1.539 1_655 S
C1543 H1557 0.958 . S
C1543 H1558 0.961 . S
C1543 H1559 0.960 . S
H1544 C1528 0.931 . S
H1545 C1533 0.929 . S
H1546 C1534 0.960 . S
H1547 C1534 0.962 . S
H1548 C1534 0.960 . S
H1549 C1535 0.961 . S
H1550 C1535 0.961 . S
H1551 C1535 0.961 . S
H1552 C1536 0.931 . S
H1553 C1541 0.930 . S
H1554 C1542 0.956 . S
H1555 C1542 0.961 . S
H1556 C1542 0.961 . S
H1557 C1543 0.958 . S
H1558 C1543 0.961 . S
H1559 C1543 0.960 . S
C1560 C1561 1.391 . S
C1560 C1562 1.394 . S
C1560 H1576 0.931 . S
C1561 C1560 1.391 . S
C1561 C1565 1.376 . S
C1562 C1560 1.394 . S
C1562 C1563 1.369 . S
C1562 C1566 1.531 . S
C1563 C1562 1.369 . S
C1563 C1564 1.410 . S
C1563 C1571 1.503 . S
C1564 C1563 1.410 . S
C1564 C1565 1.392 . S
C1564 C1567 1.511 . S
C1565 C1561 1.376 . S
C1565 C1564 1.392 . S
C1565 H1577 0.929 . S
C1566 C1562 1.531 . S
C1566 H1578 0.960 . S
C1566 H1579 0.962 . S
C1566 H1580 0.960 . S
C1567 C1564 1.511 . S
C1567 H1581 0.961 . S
C1567 H1582 0.961 . S
C1567 H1583 0.961 . S
C1568 C1569 1.370 . S
C1568 C1570 1.363 . S
C1568 H1584 0.931 . S
C1569 C1568 1.370 . S
C1569 C1573 1.408 . S
C1570 C1568 1.363 . S
C1570 C1571 1.370 . S
C1570 C1574 1.524 . S
C1571 C1563 1.503 . S
C1571 C1570 1.370 . S
C1571 C1572 1.403 . S
C1572 C1571 1.403 . S
C1572 C1573 1.404 . S
C1572 C1575 1.539 . S
C1573 C1569 1.408 . S
C1573 C1572 1.404 . S
C1573 H1585 0.930 . S
C1574 C1570 1.524 . S
C1574 H1586 0.956 . S
C1574 H1587 0.961 . S
C1574 H1588 0.961 . S
C1575 C1572 1.539 . S
C1575 H1589 0.958 . S
C1575 H1590 0.961 . S
C1575 H1591 0.960 . S
H1576 C1560 0.931 . S
H1577 C1565 0.929 . S
H1578 C1566 0.960 . S
H1579 C1566 0.962 . S
H1580 C1566 0.960 . S
H1581 C1567 0.961 . S
H1582 C1567 0.961 . S
H1583 C1567 0.961 . S
H1584 C1568 0.931 . S
H1585 C1573 0.930 . S
H1586 C1574 0.956 . S
H1587 C1574 0.961 . S
H1588 C1574 0.961 . S
H1589 C1575 0.958 . S
H1590 C1575 0.961 . S
H1591 C1575 0.960 . S
C1592 C1593 1.391 . S
C1592 C1594 1.394 . S
C1592 H1608 0.931 1_545 S
C1593 C1592 1.391 . S
C1593 C1597 1.376 . S
C1594 C1592 1.394 . S
C1594 C1595 1.369 . S
C1594 C1598 1.541 . S
C1595 C1594 1.369 . S
C1595 C1596 1.410 . S
C1595 C1603 1.503 . S
C1596 C1595 1.410 . S
C1596 C1597 1.392 . S
C1596 C1599 1.511 . S
C1597 C1593 1.376 . S
C1597 C1596 1.392 . S
C1597 H1609 0.929 . S
C1598 C1594 1.541 . S
C1598 H1610 0.959 1_545 S
C1598 H1611 0.968 . S
C1598 H1612 0.945 1_545 S
C1599 C1596 1.511 . S
C1599 H1613 0.961 . S
C1599 H1614 0.961 . S
C1599 H1615 0.961 . S
C1600 C1601 1.370 . S
C1600 C1602 1.363 . S
C1600 H1616 0.931 . S
C1601 C1600 1.370 . S
C1601 C1605 1.408 . S
C1602 C1600 1.363 . S
C1602 C1603 1.370 . S
C1602 C1606 1.524 . S
C1603 C1595 1.503 . S
C1603 C1602 1.370 . S
C1603 C1604 1.403 . S
C1604 C1603 1.403 . S
C1604 C1605 1.404 . S
C1604 C1607 1.539 1_545 S
C1605 C1601 1.408 . S
C1605 C1604 1.404 . S
C1605 H1617 0.930 . S
C1606 C1602 1.524 . S
C1606 H1618 0.956 . S
C1606 H1619 0.961 . S
C1606 H1620 0.961 . S
C1607 C1604 1.539 1_565 S
C1607 H1621 0.958 . S
C1607 H1622 0.961 . S
C1607 H1623 0.960 . S
H1608 C1592 0.931 1_565 S
H1609 C1597 0.929 . S
H1610 C1598 0.959 1_565 S
H1611 C1598 0.968 . S
H1612 C1598 0.945 1_565 S
H1613 C1599 0.961 . S
H1614 C1599 0.961 . S
H1615 C1599 0.961 . S
H1616 C1600 0.931 . S
H1617 C1605 0.930 . S
H1618 C1606 0.956 . S
H1619 C1606 0.961 . S
H1620 C1606 0.961 . S
H1621 C1607 0.958 . S
H1622 C1607 0.961 . S
H1623 C1607 0.960 . S
C1624 C1625 1.391 . S
C1624 C1626 1.394 . S
C1624 H1640 0.931 . S
C1625 C1624 1.391 . S
C1625 C1629 1.376 1_455 S
C1626 C1624 1.394 . S
C1626 C1627 1.369 . S
C1626 C1630 1.531 . S
C1627 C1626 1.369 . S
C1627 C1628 1.410 1_455 S
C1627 C1635 1.503 . S
C1628 C1627 1.410 1_655 S
C1628 C1629 1.392 . S
C1628 C1631 1.511 . S
C1629 C1625 1.376 1_655 S
C1629 C1628 1.392 . S
C1629 H1641 0.929 . S
C1630 C1626 1.531 . S
C1630 H1642 0.960 . S
C1630 H1643 0.962 . S
C1630 H1644 0.960 . S
C1631 C1628 1.511 . S
C1631 H1645 0.961 . S
C1631 H1646 0.961 . S
C1631 H1647 0.961 . S
C1632 C1633 1.370 . S
C1632 C1634 1.363 . S
C1632 H1648 0.931 . S
C1633 C1632 1.370 . S
C1633 C1637 1.408 . S
C1634 C1632 1.363 . S
C1634 C1635 1.370 . S
C1634 C1638 1.524 . S
C1635 C1627 1.503 . S
C1635 C1634 1.370 . S
C1635 C1636 1.403 . S
C1636 C1635 1.403 . S
C1636 C1637 1.404 . S
C1636 C1639 1.539 . S
C1637 C1633 1.408 . S
C1637 C1636 1.404 . S
C1637 H1649 0.930 . S
C1638 C1634 1.524 . S
C1638 H1650 0.956 . S
C1638 H1651 0.961 . S
C1638 H1652 0.961 . S
C1639 C1636 1.539 . S
C1639 H1653 0.958 . S
C1639 H1654 0.961 . S
C1639 H1655 0.960 . S
H1640 C1624 0.931 . S
H1641 C1629 0.929 . S
H1642 C1630 0.960 . S
H1643 C1630 0.962 . S
H1644 C1630 0.960 . S
H1645 C1631 0.961 . S
H1646 C1631 0.961 . S
H1647 C1631 0.961 . S
H1648 C1632 0.931 . S
H1649 C1637 0.930 . S
H1650 C1638 0.956 . S
H1651 C1638 0.961 . S
H1652 C1638 0.961 . S
H1653 C1639 0.958 . S
H1654 C1639 0.961 . S
H1655 C1639 0.960 . S
C1656 C1657 1.391 . S
C1656 C1658 1.394 . S
C1656 H1672 0.931 . S
C1657 C1656 1.391 . S
C1657 C1661 1.376 . S
C1658 C1656 1.394 . S
C1658 C1659 1.369 . S
C1658 C1662 1.531 . S
C1659 C1658 1.369 . S
C1659 C1660 1.410 . S
C1659 C1667 1.503 1_554 S
C1660 C1659 1.410 . S
C1660 C1661 1.392 . S
C1660 C1663 1.511 1_455 S
C1661 C1657 1.376 . S
C1661 C1660 1.392 . S
C1661 H1673 0.929 . S
C1662 C1658 1.531 . S
C1662 H1674 0.960 1_554 S
C1662 H1675 0.962 . S
C1662 H1676 0.960 . S
C1663 C1660 1.511 1_655 S
C1663 H1677 0.949 . S
C1663 H1678 0.961 1_654 S
C1663 H1679 0.961 . S
C1664 C1665 1.370 . S
C1664 C1666 1.363 . S
C1664 H1680 0.931 . S
C1665 C1664 1.370 . S
C1665 C1669 1.408 . S
C1666 C1664 1.363 . S
C1666 C1667 1.370 . S
C1666 C1670 1.524 . S
C1667 C1659 1.503 1_556 S
C1667 C1666 1.370 . S
C1667 C1668 1.403 . S
C1668 C1667 1.403 . S
C1668 C1669 1.404 . S
C1668 C1671 1.539 1_455 S
C1669 C1665 1.408 . S
C1669 C1668 1.404 . S
C1669 H1681 0.930 1_455 S
C1670 C1666 1.524 . S
C1670 H1682 0.956 . S
C1670 H1683 0.953 1_556 S
C1670 H1684 0.961 . S
C1671 C1668 1.539 1_655 S
C1671 H1685 0.958 . S
C1671 H1686 0.961 . S
C1671 H1687 0.902 1_556 S
H1672 C1656 0.931 . S
H1673 C1661 0.929 . S
H1674 C1662 0.960 1_556 S
H1675 C1662 0.962 . S
H1676 C1662 0.960 . S
H1677 C1663 0.949 . S
H1678 C1663 0.961 1_456 S
H1679 C1663 0.961 . S
H1680 C1664 0.931 . S
H1681 C1669 0.930 1_655 S
H1682 C1670 0.956 . S
H1683 C1670 0.953 1_554 S
H1684 C1670 0.961 . S
H1685 C1671 0.958 . S
H1686 C1671 0.961 . S
H1687 C1671 0.902 1_554 S
C1688 C1689 1.391 . S
C1688 C1690 1.394 . S
C1688 H1704 0.931 . S
C1689 C1688 1.391 . S
C1689 C1693 1.376 . S
C1690 C1688 1.394 . S
C1690 C1691 1.369 . S
C1690 C1694 1.531 . S
C1691 C1690 1.369 . S
C1691 C1692 1.410 . S
C1691 C1699 1.503 1_556 S
C1692 C1691 1.410 . S
C1692 C1693 1.392 . S
C1692 C1695 1.511 . S
C1693 C1689 1.376 . S
C1693 C1692 1.392 . S
C1693 H1705 0.929 . S
C1694 C1690 1.531 . S
C1694 H1706 0.960 1_556 S
C1694 H1707 0.962 . S
C1694 H1708 0.960 . S
C1695 C1692 1.511 . S
C1695 H1709 0.961 . S
C1695 H1710 0.961 1_556 S
C1695 H1711 0.961 . S
C1696 C1697 1.370 . S
C1696 C1698 1.363 . S
C1696 H1712 0.931 . S
C1697 C1696 1.370 . S
C1697 C1701 1.408 . S
C1698 C1696 1.363 . S
C1698 C1699 1.370 . S
C1698 C1702 1.524 . S
C1699 C1691 1.503 1_554 S
C1699 C1698 1.370 . S
C1699 C1700 1.403 . S
C1700 C1699 1.403 . S
C1700 C1701 1.404 . S
C1700 C1703 1.539 . S
C1701 C1697 1.408 . S
C1701 C1700 1.404 . S
C1701 H1713 0.930 . S
C1702 C1698 1.524 . S
C1702 H1714 0.956 . S
C1702 H1715 0.956 1_554 S
C1702 H1716 0.961 . S
C1703 C1700 1.539 . S
C1703 H1717 0.958 . S
C1703 H1718 0.961 . S
C1703 H1719 0.900 1_554 S
H1704 C1688 0.931 . S
H1705 C1693 0.929 . S
H1706 C1694 0.960 1_554 S
H1707 C1694 0.962 . S
H1708 C1694 0.960 . S
H1709 C1695 0.961 . S
H1710 C1695 0.961 1_554 S
H1711 C1695 0.961 . S
H1712 C1696 0.931 . S
H1713 C1701 0.930 . S
H1714 C1702 0.956 . S
H1715 C1702 0.956 1_556 S
H1716 C1702 0.961 . S
H1717 C1703 0.958 . S
H1718 C1703 0.961 . S
H1719 C1703 0.900 1_556 S
C1720 C1721 1.391 . S
C1720 C1722 1.394 . S
C1720 H1736 0.931 . S
C1721 C1720 1.391 . S
C1721 C1725 1.376 . S
C1722 C1720 1.394 . S
C1722 C1723 1.369 . S
C1722 C1726 1.531 . S
C1723 C1722 1.369 . S
C1723 C1724 1.410 . S
C1723 C1731 1.503 1_556 S
C1724 C1723 1.410 . S
C1724 C1725 1.392 . S
C1724 C1727 1.511 . S
C1725 C1721 1.376 . S
C1725 C1724 1.392 . S
C1725 H1737 0.929 . S
C1726 C1722 1.531 . S
C1726 H1738 0.960 1_556 S
C1726 H1739 0.962 . S
C1726 H1740 0.960 . S
C1727 C1724 1.511 . S
C1727 H1741 0.961 . S
C1727 H1742 0.961 1_556 S
C1727 H1743 0.961 . S
C1728 C1729 1.370 . S
C1728 C1730 1.363 . S
C1728 H1744 0.931 1_545 S
C1729 C1728 1.370 . S
C1729 C1733 1.408 . S
C1730 C1728 1.363 . S
C1730 C1731 1.370 . S
C1730 C1734 1.524 1_545 S
C1731 C1723 1.503 1_554 S
C1731 C1730 1.370 . S
C1731 C1732 1.403 . S
C1732 C1731 1.403 . S
C1732 C1733 1.404 . S
C1732 C1735 1.539 . S
C1733 C1729 1.408 . S
C1733 C1732 1.404 . S
C1733 H1745 0.930 . S
C1734 C1730 1.524 1_565 S
C1734 H1746 0.952 1_554 S
C1734 H1747 0.961 1_554 S
C1734 H1748 0.961 . S
C1735 C1732 1.539 . S
C1735 H1749 0.958 . S
C1735 H1750 0.961 . S
C1735 H1751 0.960 . S
H1736 C1720 0.931 . S
H1737 C1725 0.929 . S
H1738 C1726 0.960 1_554 S
H1739 C1726 0.962 . S
H1740 C1726 0.960 . S
H1741 C1727 0.961 . S
H1742 C1727 0.961 1_554 S
H1743 C1727 0.961 . S
H1744 C1728 0.931 1_565 S
H1745 C1733 0.930 . S
H1746 C1734 0.952 1_556 S
H1747 C1734 0.961 1_556 S
H1748 C1734 0.961 . S
H1749 C1735 0.958 . S
H1750 C1735 0.961 . S
H1751 C1735 0.960 . S
C1752 C1753 1.391 . S
C1752 C1754 1.394 . S
C1752 H1768 0.931 . S
C1753 C1752 1.391 . S
C1753 C1757 1.376 . S
C1754 C1752 1.394 . S
C1754 C1755 1.369 . S
C1754 C1758 1.531 . S
C1755 C1754 1.369 . S
C1755 C1756 1.410 . S
C1755 C1763 1.503 1_556 S
C1756 C1755 1.410 . S
C1756 C1757 1.392 . S
C1756 C1759 1.511 1_455 S
C1757 C1753 1.376 . S
C1757 C1756 1.392 . S
C1757 H1769 0.929 1_455 S
C1758 C1754 1.531 . S
C1758 H1770 0.939 1_556 S
C1758 H1771 0.962 . S
C1758 H1772 0.960 . S
C1759 C1756 1.511 1_655 S
C1759 H1773 0.961 . S
C1759 H1774 0.961 1_556 S
C1759 H1775 0.961 . S
C1760 C1761 1.370 . S
C1760 C1762 1.363 . S
C1760 H1776 0.931 . S
C1761 C1760 1.370 . S
C1761 C1765 1.408 . S
C1762 C1760 1.363 . S
C1762 C1763 1.370 . S
C1762 C1766 1.524 . S
C1763 C1755 1.503 1_554 S
C1763 C1762 1.370 . S
C1763 C1764 1.403 . S
C1764 C1763 1.403 . S
C1764 C1765 1.404 . S
C1764 C1767 1.539 . S
C1765 C1761 1.408 . S
C1765 C1764 1.404 . S
C1765 H1777 0.930 . S
C1766 C1762 1.524 . S
C1766 H1778 0.968 . S
C1766 H1779 0.935 1_554 S
C1766 H1780 0.961 . S
C1767 C1764 1.539 . S
C1767 H1781 0.958 . S
C1767 H1782 0.961 . S
C1767 H1783 0.983 . S
H1768 C1752 0.931 . S
H1769 C1757 0.929 1_655 S
H1770 C1758 0.939 1_554 S
H1771 C1758 0.962 . S
H1772 C1758 0.960 . S
H1773 C1759 0.961 . S
H1774 C1759 0.961 1_554 S
H1775 C1759 0.961 . S
H1776 C1760 0.931 . S
H1777 C1765 0.930 . S
H1778 C1766 0.968 . S
H1779 C1766 0.935 1_556 S
H1780 C1766 0.961 . S
H1781 C1767 0.958 . S
H1782 C1767 0.961 . S
H1783 C1767 0.983 . S
C1784 C1785 1.391 . S
C1784 C1786 1.394 . S
C1784 H1800 0.931 . S
C1785 C1784 1.391 . S
C1785 C1789 1.376 . S
C1786 C1784 1.394 . S
C1786 C1787 1.369 . S
C1786 C1790 1.531 . S
C1787 C1786 1.369 . S
C1787 C1788 1.410 . S
C1787 C1795 1.503 1_554 S
C1788 C1787 1.410 . S
C1788 C1789 1.392 . S
C1788 C1791 1.511 . S
C1789 C1785 1.376 . S
C1789 C1788 1.392 . S
C1789 H1801 0.929 . S
C1790 C1786 1.531 . S
C1790 H1802 0.960 1_554 S
C1790 H1803 0.962 . S
C1790 H1804 0.960 . S
C1791 C1788 1.511 . S
C1791 H1805 0.961 . S
C1791 H1806 0.918 1_554 S
C1791 H1807 0.961 . S
C1792 C1793 1.370 . S
C1792 C1794 1.363 . S
C1792 H1808 0.931 . S
C1793 C1792 1.370 . S
C1793 C1797 1.408 . S
C1794 C1792 1.363 . S
C1794 C1795 1.370 . S
C1794 C1798 1.524 . S
C1795 C1787 1.503 1_556 S
C1795 C1794 1.370 . S
C1795 C1796 1.403 . S
C1796 C1795 1.403 . S
C1796 C1797 1.404 . S
C1796 C1799 1.539 . S
C1797 C1793 1.408 . S
C1797 C1796 1.404 . S
C1797 H1809 0.930 . S
C1798 C1794 1.524 . S
C1798 H1810 0.956 . S
C1798 H1811 0.961 1_556 S
C1798 H1812 0.961 . S
C1799 C1796 1.539 . S
C1799 H1813 0.958 . S
C1799 H1814 0.961 . S
C1799 H1815 0.960 1_556 S
H1800 C1784 0.931 . S
H1801 C1789 0.929 . S
H1802 C1790 0.960 1_556 S
H1803 C1790 0.962 . S
H1804 C1790 0.960 . S
H1805 C1791 0.961 . S
H1806 C1791 0.918 1_556 S
H1807 C1791 0.961 . S
H1808 C1792 0.931 . S
H1809 C1797 0.930 . S
H1810 C1798 0.956 . S
H1811 C1798 0.961 1_554 S
H1812 C1798 0.961 . S
H1813 C1799 0.958 . S
H1814 C1799 0.961 . S
H1815 C1799 0.960 1_554 S
C1816 C1817 1.391 . S
C1816 C1818 1.394 . S
C1816 H1832 0.931 1_545 S
C1817 C1816 1.391 . S
C1817 C1821 1.376 . S
C1818 C1816 1.394 . S
C1818 C1819 1.369 . S
C1818 C1822 1.531 1_545 S
C1819 C1818 1.369 . S
C1819 C1820 1.410 . S
C1819 C1827 1.503 1_556 S
C1820 C1819 1.410 . S
C1820 C1821 1.392 . S
C1820 C1823 1.511 . S
C1821 C1817 1.376 . S
C1821 C1820 1.392 . S
C1821 H1833 0.929 . S
C1822 C1818 1.531 1_565 S
C1822 H1834 0.943 1_556 S
C1822 H1835 0.962 . S
C1822 H1836 0.960 . S
C1823 C1820 1.511 . S
C1823 H1837 0.961 . S
C1823 H1838 0.961 1_556 S
C1823 H1839 0.961 . S
C1824 C1825 1.370 . S
C1824 C1826 1.363 . S
C1824 H1840 0.931 . S
C1825 C1824 1.370 . S
C1825 C1829 1.408 . S
C1826 C1824 1.363 . S
C1826 C1827 1.370 . S
C1826 C1830 1.524 . S
C1827 C1819 1.503 1_554 S
C1827 C1826 1.370 . S
C1827 C1828 1.403 . S
C1828 C1827 1.403 . S
C1828 C1829 1.404 . S
C1828 C1831 1.539 . S
C1829 C1825 1.408 . S
C1829 C1828 1.404 . S
C1829 H1841 0.930 . S
C1830 C1826 1.524 . S
C1830 H1842 0.990 . S
C1830 H1843 0.954 1_554 S
C1830 H1844 0.961 . S
C1831 C1828 1.539 . S
C1831 H1845 0.958 1_545 S
C1831 H1846 0.961 . S
C1831 H1847 0.960 1_554 S
H1832 C1816 0.931 1_565 S
H1833 C1821 0.929 . S
H1834 C1822 0.943 1_554 S
H1835 C1822 0.962 . S
H1836 C1822 0.960 . S
H1837 C1823 0.961 . S
H1838 C1823 0.961 1_554 S
H1839 C1823 0.961 . S
H1840 C1824 0.931 . S
H1841 C1829 0.930 . S
H1842 C1830 0.990 . S
H1843 C1830 0.954 1_556 S
H1844 C1830 0.961 . S
H1845 C1831 0.958 1_565 S
H1846 C1831 0.961 . S
H1847 C1831 0.960 1_556 S
C1848 C1849 1.391 . S
C1848 C1850 1.394 . S
C1848 H1864 0.931 . S
C1849 C1848 1.391 . S
C1849 C1853 1.376 . S
C1850 C1848 1.394 . S
C1850 C1851 1.369 . S
C1850 C1854 1.531 . S
C1851 C1850 1.369 . S
C1851 C1852 1.410 . S
C1851 C1859 1.503 . S
C1852 C1851 1.410 . S
C1852 C1853 1.392 . S
C1852 C1855 1.511 . S
C1853 C1849 1.376 . S
C1853 C1852 1.392 . S
C1853 H1865 0.929 . S
C1854 C1850 1.531 . S
C1854 H1866 0.960 . S
C1854 H1867 0.962 . S
C1854 H1868 0.960 . S
C1855 C1852 1.511 . S
C1855 H1869 0.961 . S
C1855 H1870 0.961 . S
C1855 H1871 0.961 . S
C1856 C1857 1.370 . S
C1856 C1858 1.363 . S
C1856 H1872 0.931 . S
C1857 C1856 1.370 . S
C1857 C1861 1.408 . S
C1858 C1856 1.363 . S
C1858 C1859 1.370 . S
C1858 C1862 1.524 . S
C1859 C1851 1.503 . S
C1859 C1858 1.370 . S
C1859 C1860 1.403 . S
C1860 C1859 1.403 . S
C1860 C1861 1.404 . S
C1860 C1863 1.539 . S
C1861 C1857 1.408 . S
C1861 C1860 1.404 . S
C1861 H1873 0.930 . S
C1862 C1858 1.524 . S
C1862 H1874 0.956 . S
C1862 H1875 0.961 . S
C1862 H1876 0.961 . S
C1863 C1860 1.539 . S
C1863 H1877 0.958 . S
C1863 H1878 0.961 . S
C1863 H1879 0.960 . S
H1864 C1848 0.931 . S
H1865 C1853 0.929 . S
H1866 C1854 0.960 . S
H1867 C1854 0.962 . S
H1868 C1854 0.960 . S
H1869 C1855 0.961 . S
H1870 C1855 0.961 . S
H1871 C1855 0.961 . S
H1872 C1856 0.931 . S
H1873 C1861 0.930 . S
H1874 C1862 0.956 . S
H1875 C1862 0.961 . S
H1876 C1862 0.961 . S
H1877 C1863 0.958 . S
H1878 C1863 0.961 . S
H1879 C1863 0.960 . S
C1880 C1881 1.391 . S
C1880 C1882 1.394 . S
C1880 H1896 0.931 . S
C1881 C1880 1.391 . S
C1881 C1885 1.376 . S
C1882 C1880 1.394 . S
C1882 C1883 1.369 . S
C1882 C1886 1.531 . S
C1883 C1882 1.369 . S
C1883 C1884 1.410 . S
C1883 C1891 1.503 . S
C1884 C1883 1.410 . S
C1884 C1885 1.392 . S
C1884 C1887 1.511 . S
C1885 C1881 1.376 . S
C1885 C1884 1.392 . S
C1885 H1897 0.929 . S
C1886 C1882 1.531 . S
C1886 H1898 0.960 . S
C1886 H1899 0.962 . S
C1886 H1900 0.960 . S
C1887 C1884 1.511 . S
C1887 H1901 0.961 . S
C1887 H1902 0.961 . S
C1887 H1903 0.961 . S
C1888 C1889 1.370 . S
C1888 C1890 1.363 . S
C1888 H1904 0.931 . S
C1889 C1888 1.370 . S
C1889 C1893 1.408 . S
C1890 C1888 1.363 . S
C1890 C1891 1.370 . S
C1890 C1894 1.524 . S
C1891 C1883 1.503 . S
C1891 C1890 1.370 . S
C1891 C1892 1.403 . S
C1892 C1891 1.403 . S
C1892 C1893 1.404 . S
C1892 C1895 1.539 . S
C1893 C1889 1.408 . S
C1893 C1892 1.404 . S
C1893 H1905 0.930 . S
C1894 C1890 1.524 . S
C1894 H1906 0.956 . S
C1894 H1907 0.961 . S
C1894 H1908 0.961 . S
C1895 C1892 1.539 . S
C1895 H1909 0.958 1_545 S
C1895 H1910 0.961 1_545 S
C1895 H1911 0.960 . S
H1896 C1880 0.931 . S
H1897 C1885 0.929 . S
H1898 C1886 0.960 . S
H1899 C1886 0.962 . S
H1900 C1886 0.960 . S
H1901 C1887 0.961 . S
H1902 C1887 0.961 . S
H1903 C1887 0.961 . S
H1904 C1888 0.931 . S
H1905 C1893 0.930 . S
H1906 C1894 0.956 . S
H1907 C1894 0.961 . S
H1908 C1894 0.961 . S
H1909 C1895 0.958 1_565 S
H1910 C1895 0.961 1_565 S
H1911 C1895 0.960 . S
C1912 C1913 1.391 . S
C1912 C1914 1.394 . S
C1912 H1928 0.931 . S
C1913 C1912 1.391 . S
C1913 C1917 1.376 1_655 S
C1914 C1912 1.394 . S
C1914 C1915 1.369 . S
C1914 C1918 1.531 . S
C1915 C1914 1.369 . S
C1915 C1916 1.410 1_655 S
C1915 C1923 1.503 . S
C1916 C1915 1.410 1_455 S
C1916 C1917 1.392 . S
C1916 C1919 1.511 . S
C1917 C1913 1.376 1_455 S
C1917 C1916 1.392 . S
C1917 H1929 0.929 . S
C1918 C1914 1.531 . S
C1918 H1930 0.960 . S
C1918 H1931 0.962 . S
C1918 H1932 0.960 . S
C1919 C1916 1.511 . S
C1919 H1933 0.961 . S
C1919 H1934 0.961 . S
C1919 H1935 0.961 . S
C1920 C1921 1.370 . S
C1920 C1922 1.363 . S
C1920 H1936 0.931 . S
C1921 C1920 1.370 . S
C1921 C1925 1.408 1_655 S
C1922 C1920 1.363 . S
C1922 C1923 1.370 . S
C1922 C1926 1.524 . S
C1923 C1915 1.503 . S
C1923 C1922 1.370 . S
C1923 C1924 1.403 1_655 S
C1924 C1923 1.403 1_455 S
C1924 C1925 1.404 . S
C1924 C1927 1.539 . S
C1925 C1921 1.408 1_455 S
C1925 C1924 1.404 . S
C1925 H1937 0.930 . S
C1926 C1922 1.524 . S
C1926 H1938 0.956 . S
C1926 H1939 0.961 . S
C1926 H1940 0.961 . S
C1927 C1924 1.539 . S
C1927 H1941 0.958 . S
C1927 H1942 0.961 . S
C1927 H1943 0.960 . S
H1928 C1912 0.931 . S
H1929 C1917 0.929 . S
H1930 C1918 0.960 . S
H1931 C1918 0.962 . S
H1932 C1918 0.960 . S
H1933 C1919 0.961 . S
H1934 C1919 0.961 . S
H1935 C1919 0.961 . S
H1936 C1920 0.931 . S
H1937 C1925 0.930 . S
H1938 C1926 0.956 . S
H1939 C1926 0.961 . S
H1940 C1926 0.961 . S
H1941 C1927 0.958 . S
H1942 C1927 0.961 . S
H1943 C1927 0.960 . S
C1944 C1945 1.391 . S
C1944 C1946 1.394 . S
C1944 H1960 0.931 . S
C1945 C1944 1.391 . S
C1945 C1949 1.376 . S
C1946 C1944 1.394 . S
C1946 C1947 1.369 . S
C1946 C1950 1.531 . S
C1947 C1946 1.369 . S
C1947 C1948 1.410 . S
C1947 C1955 1.503 . S
C1948 C1947 1.410 . S
C1948 C1949 1.392 . S
C1948 C1951 1.511 . S
C1949 C1945 1.376 . S
C1949 C1948 1.392 . S
C1949 H1961 0.929 . S
C1950 C1946 1.531 . S
C1950 H1962 0.960 . S
C1950 H1963 0.962 . S
C1950 H1964 0.960 . S
C1951 C1948 1.511 . S
C1951 H1965 0.961 . S
C1951 H1966 0.961 . S
C1951 H1967 0.961 . S
C1952 C1953 1.370 . S
C1952 C1954 1.363 . S
C1952 H1968 0.931 . S
C1953 C1952 1.370 . S
C1953 C1957 1.408 . S
C1954 C1952 1.363 . S
C1954 C1955 1.370 . S
C1954 C1958 1.524 . S
C1955 C1947 1.503 . S
C1955 C1954 1.370 . S
C1955 C1956 1.403 . S
C1956 C1955 1.403 . S
C1956 C1957 1.404 . S
C1956 C1959 1.539 . S
C1957 C1953 1.408 . S
C1957 C1956 1.404 . S
C1957 H1969 0.930 . S
C1958 C1954 1.524 . S
C1958 H1970 0.956 . S
C1958 H1971 0.961 . S
C1958 H1972 0.961 . S
C1959 C1956 1.539 . S
C1959 H1973 0.958 . S
C1959 H1974 0.961 . S
C1959 H1975 0.960 . S
H1960 C1944 0.931 . S
H1961 C1949 0.929 . S
H1962 C1950 0.960 . S
H1963 C1950 0.962 . S
H1964 C1950 0.960 . S
H1965 C1951 0.961 . S
H1966 C1951 0.961 . S
H1967 C1951 0.961 . S
H1968 C1952 0.931 . S
H1969 C1957 0.930 . S
H1970 C1958 0.956 . S
H1971 C1958 0.961 . S
H1972 C1958 0.961 . S
H1973 C1959 0.958 . S
H1974 C1959 0.961 . S
H1975 C1959 0.960 . S
C1976 C1977 1.391 . S
C1976 C1978 1.394 . S
C1976 H1992 0.931 . S
C1977 C1976 1.391 . S
C1977 C1981 1.376 1_655 S
C1978 C1976 1.394 . S
C1978 C1979 1.369 . S
C1978 C1982 1.531 . S
C1979 C1978 1.369 . S
C1979 C1980 1.410 1_655 S
C1979 C1987 1.503 . S
C1980 C1979 1.410 1_455 S
C1980 C1981 1.392 . S
C1980 C1983 1.511 . S
C1981 C1977 1.376 1_455 S
C1981 C1980 1.392 . S
C1981 H1993 0.929 . S
C1982 C1978 1.531 . S
C1982 H1994 0.960 . S
C1982 H1995 0.962 . S
C1982 H1996 0.960 . S
C1983 C1980 1.511 . S
C1983 H1997 0.961 . S
C1983 H1998 0.961 . S
C1983 H1999 0.961 . S
C1984 C1985 1.370 . S
C1984 C1986 1.363 . S
C1984 H2000 0.931 . S
C1985 C1984 1.370 . S
C1985 C1989 1.408 1_655 S
C1986 C1984 1.363 . S
C1986 C1987 1.370 . S
C1986 C1990 1.524 . S
C1987 C1979 1.503 . S
C1987 C1986 1.370 . S
C1987 C1988 1.403 1_655 S
C1988 C1987 1.403 1_455 S
C1988 C1989 1.404 . S
C1988 C1991 1.539 . S
C1989 C1985 1.408 1_455 S
C1989 C1988 1.404 . S
C1989 H2001 0.930 . S
C1990 C1986 1.524 . S
C1990 H2002 0.956 . S
C1990 H2003 0.961 . S
C1990 H2004 0.961 . S
C1991 C1988 1.539 . S
C1991 H2005 0.958 . S
C1991 H2006 0.961 . S
C1991 H2007 0.960 . S
H1992 C1976 0.931 . S
H1993 C1981 0.929 . S
H1994 C1982 0.960 . S
H1995 C1982 0.962 . S
H1996 C1982 0.960 . S
H1997 C1983 0.961 . S
H1998 C1983 0.961 . S
H1999 C1983 0.961 . S
H2000 C1984 0.931 . S
H2001 C1989 0.930 . S
H2002 C1990 0.956 . S
H2003 C1990 0.961 . S
H2004 C1990 0.961 . S
H2005 C1991 0.958 . S
H2006 C1991 0.961 . S
H2007 C1991 0.960 . S
C2008 C2009 1.391 . S
C2008 C2010 1.394 . S
C2008 H2024 0.931 . S
C2009 C2008 1.391 . S
C2009 C2013 1.376 . S
C2010 C2008 1.394 . S
C2010 C2011 1.369 . S
C2010 C2014 1.531 . S
C2011 C2010 1.369 . S
C2011 C2012 1.410 . S
C2011 C2019 1.503 . S
C2012 C2011 1.410 . S
C2012 C2013 1.392 . S
C2012 C2015 1.511 . S
C2013 C2009 1.376 . S
C2013 C2012 1.392 . S
C2013 H2025 0.929 . S
C2014 C2010 1.531 . S
C2014 H2026 0.960 . S
C2014 H2027 0.962 . S
C2014 H2028 0.960 . S
C2015 C2012 1.511 . S
C2015 H2029 0.961 . S
C2015 H2030 0.961 . S
C2015 H2031 0.961 . S
C2016 C2017 1.370 . S
C2016 C2018 1.363 . S
C2016 H2032 0.931 . S
C2017 C2016 1.370 . S
C2017 C2021 1.408 . S
C2018 C2016 1.363 . S
C2018 C2019 1.370 . S
C2018 C2022 1.524 . S
C2019 C2011 1.503 . S
C2019 C2018 1.370 . S
C2019 C2020 1.403 . S
C2020 C2019 1.403 . S
C2020 C2021 1.404 . S
C2020 C2023 1.539 . S
C2021 C2017 1.408 . S
C2021 C2020 1.404 . S
C2021 H2033 0.930 . S
C2022 C2018 1.524 . S
C2022 H2034 0.956 . S
C2022 H2035 0.961 . S
C2022 H2036 0.961 . S
C2023 C2020 1.539 . S
C2023 H2037 0.958 . S
C2023 H2038 0.961 . S
C2023 H2039 0.960 . S
H2024 C2008 0.931 . S
H2025 C2013 0.929 . S
H2026 C2014 0.960 . S
H2027 C2014 0.962 . S
H2028 C2014 0.960 . S
H2029 C2015 0.961 . S
H2030 C2015 0.961 . S
H2031 C2015 0.961 . S
H2032 C2016 0.931 . S
H2033 C2021 0.930 . S
H2034 C2022 0.956 . S
H2035 C2022 0.961 . S
H2036 C2022 0.961 . S
H2037 C2023 0.958 . S
H2038 C2023 0.961 . S
H2039 C2023 0.960 . S
C2040 C2041 1.391 1_545 S
C2040 C2042 1.394 . S
C2040 H2056 0.931 . S
C2041 C2040 1.391 1_565 S
C2041 C2045 1.376 . S
C2042 C2040 1.394 . S
C2042 C2043 1.383 . S
C2042 C2046 1.531 . S
C2043 C2042 1.383 . S
C2043 C2044 1.394 1_545 S
C2043 C2051 1.502 1_545 S
C2044 C2043 1.394 1_565 S
C2044 C2045 1.392 . S
C2044 C2047 1.511 . S
C2045 C2041 1.376 . S
C2045 C2044 1.392 . S
C2045 H2057 0.929 . S
C2046 C2042 1.531 . S
C2046 H2058 0.960 . S
C2046 H2059 0.962 1_545 S
C2046 H2060 0.960 . S
C2047 C2044 1.511 . S
C2047 H2061 0.961 . S
C2047 H2062 0.961 . S
C2047 H2063 0.961 1_565 S
C2048 C2049 1.370 . S
C2048 C2050 1.363 . S
C2048 H2064 0.931 . S
C2049 C2048 1.370 . S
C2049 C2053 1.408 1_565 S
C2050 C2048 1.363 . S
C2050 C2051 1.370 . S
C2050 C2054 1.524 . S
C2051 C2043 1.502 1_565 S
C2051 C2050 1.370 . S
C2051 C2052 1.403 1_565 S
C2052 C2051 1.403 1_545 S
C2052 C2053 1.404 . S
C2052 C2055 1.539 . S
C2053 C2049 1.408 1_545 S
C2053 C2052 1.404 . S
C2053 H2065 0.930 . S
C2054 C2050 1.524 . S
C2054 H2066 0.956 . S
C2054 H2067 0.961 . S
C2054 H2068 0.961 . S
C2055 C2052 1.539 . S
C2055 H2069 0.958 . S
C2055 H2070 0.961 . S
C2055 H2071 0.960 . S
H2056 C2040 0.931 . S
H2057 C2045 0.929 . S
H2058 C2046 0.960 . S
H2059 C2046 0.962 1_565 S
H2060 C2046 0.960 . S
H2061 C2047 0.961 . S
H2062 C2047 0.961 . S
H2063 C2047 0.961 1_545 S
H2064 C2048 0.931 . S
H2065 C2053 0.930 . S
H2066 C2054 0.956 . S
H2067 C2054 0.961 . S
H2068 C2054 0.961 . S
H2069 C2055 0.958 . S
H2070 C2055 0.961 . S
H2071 C2055 0.960 . S
C2072 C2073 1.391 . S
C2072 C2074 1.394 . S
C2072 H2088 0.931 . S
C2073 C2072 1.391 . S
C2073 C2077 1.376 . S
C2074 C2072 1.394 . S
C2074 C2075 1.369 . S
C2074 C2078 1.531 . S
C2075 C2074 1.369 . S
C2075 C2076 1.410 . S
C2075 C2083 1.503 . S
C2076 C2075 1.410 . S
C2076 C2077 1.392 . S
C2076 C2079 1.511 . S
C2077 C2073 1.376 . S
C2077 C2076 1.392 . S
C2077 H2089 0.929 . S
C2078 C2074 1.531 . S
C2078 H2090 0.960 . S
C2078 H2091 0.962 . S
C2078 H2092 0.960 . S
C2079 C2076 1.511 . S
C2079 H2093 0.961 . S
C2079 H2094 0.961 . S
C2079 H2095 0.961 . S
C2080 C2081 1.370 . S
C2080 C2082 1.363 . S
C2080 H2096 0.931 . S
C2081 C2080 1.370 . S
C2081 C2085 1.408 . S
C2082 C2080 1.363 . S
C2082 C2083 1.370 . S
C2082 C2086 1.524 . S
C2083 C2075 1.503 . S
C2083 C2082 1.370 . S
C2083 C2084 1.403 . S
C2084 C2083 1.403 . S
C2084 C2085 1.404 . S
C2084 C2087 1.539 . S
C2085 C2081 1.408 . S
C2085 C2084 1.404 . S
C2085 H2097 0.930 . S
C2086 C2082 1.524 . S
C2086 H2098 0.956 . S
C2086 H2099 0.961 . S
C2086 H2100 0.961 . S
C2087 C2084 1.539 . S
C2087 H2101 0.958 . S
C2087 H2102 0.967 . S
C2087 H2103 0.960 . S
H2088 C2072 0.931 . S
H2089 C2077 0.929 . S
H2090 C2078 0.960 . S
H2091 C2078 0.962 . S
H2092 C2078 0.960 . S
H2093 C2079 0.961 . S
H2094 C2079 0.961 . S
H2095 C2079 0.961 . S
H2096 C2080 0.931 . S
H2097 C2085 0.930 . S
H2098 C2086 0.956 . S
H2099 C2086 0.961 . S
H2100 C2086 0.961 . S
H2101 C2087 0.958 . S
H2102 C2087 0.967 . S
H2103 C2087 0.960 . S
C2104 C2105 1.391 . S
C2104 C2106 1.394 . S
C2104 H2120 0.931 . S
C2105 C2104 1.391 . S
C2105 C2109 1.376 . S
C2106 C2104 1.394 . S
C2106 C2107 1.369 . S
C2106 C2110 1.531 . S
C2107 C2106 1.369 . S
C2107 C2108 1.410 . S
C2107 C2115 1.503 . S
C2108 C2107 1.410 . S
C2108 C2109 1.392 . S
C2108 C2111 1.511 . S
C2109 C2105 1.376 . S
C2109 C2108 1.392 . S
C2109 H2121 0.929 . S
C2110 C2106 1.531 . S
C2110 H2122 0.960 . S
C2110 H2123 0.962 . S
C2110 H2124 0.960 . S
C2111 C2108 1.511 . S
C2111 H2125 0.961 . S
C2111 H2126 0.961 . S
C2111 H2127 0.961 . S
C2112 C2113 1.370 . S
C2112 C2114 1.363 . S
C2112 H2128 0.931 . S
C2113 C2112 1.370 . S
C2113 C2117 1.408 . S
C2114 C2112 1.363 . S
C2114 C2115 1.370 . S
C2114 C2118 1.524 . S
C2115 C2107 1.503 . S
C2115 C2114 1.370 . S
C2115 C2116 1.403 . S
C2116 C2115 1.403 . S
C2116 C2117 1.404 . S
C2116 C2119 1.539 . S
C2117 C2113 1.408 . S
C2117 C2116 1.404 . S
C2117 H2129 0.930 . S
C2118 C2114 1.524 . S
C2118 H2130 0.956 . S
C2118 H2131 0.961 . S
C2118 H2132 0.961 . S
C2119 C2116 1.539 . S
C2119 H2133 0.958 . S
C2119 H2134 0.961 . S
C2119 H2135 0.960 . S
H2120 C2104 0.931 . S
H2121 C2109 0.929 . S
H2122 C2110 0.960 . S
H2123 C2110 0.962 . S
H2124 C2110 0.960 . S
H2125 C2111 0.961 . S
H2126 C2111 0.961 . S
H2127 C2111 0.961 . S
H2128 C2112 0.931 . S
H2129 C2117 0.930 . S
H2130 C2118 0.956 . S
H2131 C2118 0.961 . S
H2132 C2118 0.961 . S
H2133 C2119 0.958 . S
H2134 C2119 0.961 . S
H2135 C2119 0.960 . S
C2136 C2137 1.391 . S
C2136 C2138 1.394 . S
C2136 H2152 0.931 . S
C2137 C2136 1.391 . S
C2137 C2141 1.376 . S
C2138 C2136 1.394 . S
C2138 C2139 1.369 . S
C2138 C2142 1.531 . S
C2139 C2138 1.369 . S
C2139 C2140 1.410 . S
C2139 C2147 1.503 . S
C2140 C2139 1.410 . S
C2140 C2141 1.392 . S
C2140 C2143 1.511 . S
C2141 C2137 1.376 . S
C2141 C2140 1.392 . S
C2141 H2153 0.929 . S
C2142 C2138 1.531 . S
C2142 H2154 0.960 . S
C2142 H2155 0.962 . S
C2142 H2156 0.960 . S
C2143 C2140 1.511 . S
C2143 H2157 0.961 . S
C2143 H2158 0.961 . S
C2143 H2159 0.961 . S
C2144 C2145 1.370 . S
C2144 C2146 1.363 . S
C2144 H2160 0.931 . S
C2145 C2144 1.370 . S
C2145 C2149 1.408 . S
C2146 C2144 1.363 . S
C2146 C2147 1.370 . S
C2146 C2150 1.524 . S
C2147 C2139 1.503 . S
C2147 C2146 1.370 . S
C2147 C2148 1.403 . S
C2148 C2147 1.403 . S
C2148 C2149 1.404 . S
C2148 C2151 1.539 . S
C2149 C2145 1.408 . S
C2149 C2148 1.404 . S
C2149 H2161 0.930 . S
C2150 C2146 1.524 . S
C2150 H2162 0.956 . S
C2150 H2163 0.961 . S
C2150 H2164 0.961 . S
C2151 C2148 1.539 . S
C2151 H2165 0.958 . S
C2151 H2166 0.961 . S
C2151 H2167 0.960 . S
H2152 C2136 0.931 . S
H2153 C2141 0.929 . S
H2154 C2142 0.960 . S
H2155 C2142 0.962 . S
H2156 C2142 0.960 . S
H2157 C2143 0.961 . S
H2158 C2143 0.961 . S
H2159 C2143 0.961 . S
H2160 C2144 0.931 . S
H2161 C2149 0.930 . S
H2162 C2150 0.956 . S
H2163 C2150 0.961 . S
H2164 C2150 0.961 . S
H2165 C2151 0.958 . S
H2166 C2151 0.961 . S
H2167 C2151 0.960 . S
C2168 C2169 1.391 1_545 S
C2168 C2170 1.394 . S
C2168 H2184 0.931 . S
C2169 C2168 1.391 1_565 S
C2169 C2173 1.376 . S
C2170 C2168 1.394 . S
C2170 C2171 1.369 1_545 S
C2170 C2174 1.531 . S
C2171 C2170 1.369 1_565 S
C2171 C2172 1.410 . S
C2171 C2179 1.503 . S
C2172 C2171 1.410 . S
C2172 C2173 1.392 . S
C2172 C2175 1.511 . S
C2173 C2169 1.376 . S
C2173 C2172 1.392 . S
C2173 H2185 0.929 . S
C2174 C2170 1.531 . S
C2174 H2186 0.960 . S
C2174 H2187 0.962 . S
C2174 H2188 0.960 . S
C2175 C2172 1.511 . S
C2175 H2189 0.961 . S
C2175 H2190 0.961 . S
C2175 H2191 0.961 . S
C2176 C2177 1.370 . S
C2176 C2178 1.363 . S
C2176 H2192 0.931 . S
C2177 C2176 1.370 . S
C2177 C2181 1.408 1_565 S
C2178 C2176 1.363 . S
C2178 C2179 1.370 . S
C2178 C2182 1.524 . S
C2179 C2171 1.503 . S
C2179 C2178 1.370 . S
C2179 C2180 1.403 1_565 S
C2180 C2179 1.403 1_545 S
C2180 C2181 1.404 . S
C2180 C2183 1.539 . S
C2181 C2177 1.408 1_545 S
C2181 C2180 1.404 . S
C2181 H2193 0.930 . S
C2182 C2178 1.524 . S
C2182 H2194 0.956 . S
C2182 H2195 0.961 . S
C2182 H2196 0.961 . S
C2183 C2180 1.539 . S
C2183 H2197 0.958 . S
C2183 H2198 0.961 . S
C2183 H2199 0.960 . S
H2184 C2168 0.931 . S
H2185 C2173 0.929 . S
H2186 C2174 0.960 . S
H2187 C2174 0.962 . S
H2188 C2174 0.960 . S
H2189 C2175 0.961 . S
H2190 C2175 0.961 . S
H2191 C2175 0.961 . S
H2192 C2176 0.931 . S
H2193 C2181 0.930 . S
H2194 C2182 0.956 . S
H2195 C2182 0.961 . S
H2196 C2182 0.961 . S
H2197 C2183 0.958 . S
H2198 C2183 0.961 . S
H2199 C2183 0.960 . S
C2200 C2201 1.391 . S
C2200 C2202 1.394 . S
C2200 H2216 0.931 . S
C2201 C2200 1.391 . S
C2201 C2205 1.376 . S
C2202 C2200 1.394 . S
C2202 C2203 1.369 . S
C2202 C2206 1.531 . S
C2203 C2202 1.369 . S
C2203 C2204 1.410 . S
C2203 C2211 1.503 . S
C2204 C2203 1.410 . S
C2204 C2205 1.392 . S
C2204 C2207 1.511 . S
C2205 C2201 1.376 . S
C2205 C2204 1.392 . S
C2205 H2217 0.929 . S
C2206 C2202 1.531 . S
C2206 H2218 0.960 . S
C2206 H2219 0.962 . S
C2206 H2220 0.960 . S
C2207 C2204 1.511 . S
C2207 H2221 0.961 . S
C2207 H2222 0.961 . S
C2207 H2223 0.961 . S
C2208 C2209 1.370 . S
C2208 C2210 1.363 . S
C2208 H2224 0.931 . S
C2209 C2208 1.370 . S
C2209 C2213 1.408 . S
C2210 C2208 1.363 . S
C2210 C2211 1.370 . S
C2210 C2214 1.524 . S
C2211 C2203 1.503 . S
C2211 C2210 1.370 . S
C2211 C2212 1.403 . S
C2212 C2211 1.403 . S
C2212 C2213 1.404 . S
C2212 C2215 1.539 . S
C2213 C2209 1.408 . S
C2213 C2212 1.404 . S
C2213 H2225 0.930 . S
C2214 C2210 1.524 . S
C2214 H2226 0.956 . S
C2214 H2227 0.961 . S
C2214 H2228 0.961 . S
C2215 C2212 1.539 . S
C2215 H2229 0.958 . S
C2215 H2230 0.961 . S
C2215 H2231 0.960 . S
H2216 C2200 0.931 . S
H2217 C2205 0.929 . S
H2218 C2206 0.960 . S
H2219 C2206 0.962 . S
H2220 C2206 0.960 . S
H2221 C2207 0.961 . S
H2222 C2207 0.961 . S
H2223 C2207 0.961 . S
H2224 C2208 0.931 . S
H2225 C2213 0.930 . S
H2226 C2214 0.956 . S
H2227 C2214 0.961 . S
H2228 C2214 0.961 . S
H2229 C2215 0.958 . S
H2230 C2215 0.961 . S
H2231 C2215 0.960 . S
C2232 C2233 1.391 . S
C2232 C2234 1.394 . S
C2232 H2248 0.931 . S
C2233 C2232 1.391 . S
C2233 C2237 1.376 . S
C2234 C2232 1.394 . S
C2234 C2235 1.369 . S
C2234 C2238 1.531 . S
C2235 C2234 1.369 . S
C2235 C2236 1.410 . S
C2235 C2243 1.503 . S
C2236 C2235 1.410 . S
C2236 C2237 1.392 . S
C2236 C2239 1.511 . S
C2237 C2233 1.376 . S
C2237 C2236 1.392 . S
C2237 H2249 0.929 . S
C2238 C2234 1.531 . S
C2238 H2250 0.960 . S
C2238 H2251 0.962 . S
C2238 H2252 0.960 . S
C2239 C2236 1.511 . S
C2239 H2253 0.961 . S
C2239 H2254 0.961 . S
C2239 H2255 0.961 . S
C2240 C2241 1.370 . S
C2240 C2242 1.363 . S
C2240 H2256 0.931 . S
C2241 C2240 1.370 . S
C2241 C2245 1.408 . S
C2242 C2240 1.363 . S
C2242 C2243 1.370 . S
C2242 C2246 1.524 . S
C2243 C2235 1.503 . S
C2243 C2242 1.370 . S
C2243 C2244 1.403 . S
C2244 C2243 1.403 . S
C2244 C2245 1.404 . S
C2244 C2247 1.539 . S
C2245 C2241 1.408 . S
C2245 C2244 1.404 . S
C2245 H2257 0.930 . S
C2246 C2242 1.524 . S
C2246 H2258 0.956 . S
C2246 H2259 0.961 . S
C2246 H2260 0.961 . S
C2247 C2244 1.539 . S
C2247 H2261 0.958 . S
C2247 H2262 0.961 . S
C2247 H2263 0.960 . S
H2248 C2232 0.931 . S
H2249 C2237 0.929 . S
H2250 C2238 0.960 . S
H2251 C2238 0.962 . S
H2252 C2238 0.960 . S
H2253 C2239 0.961 . S
H2254 C2239 0.961 . S
H2255 C2239 0.961 . S
H2256 C2240 0.931 . S
H2257 C2245 0.930 . S
H2258 C2246 0.956 . S
H2259 C2246 0.961 . S
H2260 C2246 0.961 . S
H2261 C2247 0.958 . S
H2262 C2247 0.961 . S
H2263 C2247 0.960 . S
C2264 C2265 1.391 . S
C2264 C2266 1.394 . S
C2264 H2280 0.931 . S
C2265 C2264 1.391 . S
C2265 C2269 1.376 . S
C2266 C2264 1.394 . S
C2266 C2267 1.369 . S
C2266 C2270 1.531 . S
C2267 C2266 1.369 . S
C2267 C2268 1.410 . S
C2267 C2275 1.503 . S
C2268 C2267 1.410 . S
C2268 C2269 1.392 . S
C2268 C2271 1.511 . S
C2269 C2265 1.376 . S
C2269 C2268 1.392 . S
C2269 H2281 0.929 . S
C2270 C2266 1.531 . S
C2270 H2282 0.960 . S
C2270 H2283 0.962 . S
C2270 H2284 0.960 . S
C2271 C2268 1.511 . S
C2271 H2285 0.961 . S
C2271 H2286 0.961 . S
C2271 H2287 0.961 . S
C2272 C2273 1.370 . S
C2272 C2274 1.363 . S
C2272 H2288 0.931 . S
C2273 C2272 1.370 . S
C2273 C2277 1.408 . S
C2274 C2272 1.363 . S
C2274 C2275 1.370 . S
C2274 C2278 1.524 . S
C2275 C2267 1.503 . S
C2275 C2274 1.370 . S
C2275 C2276 1.403 . S
C2276 C2275 1.403 . S
C2276 C2277 1.404 . S
C2276 C2279 1.539 . S
C2277 C2273 1.408 . S
C2277 C2276 1.404 . S
C2277 H2289 0.930 . S
C2278 C2274 1.524 . S
C2278 H2290 0.956 . S
C2278 H2291 0.961 . S
C2278 H2292 0.961 . S
C2279 C2276 1.539 . S
C2279 H2293 0.958 . S
C2279 H2294 0.961 . S
C2279 H2295 0.960 . S
H2280 C2264 0.931 . S
H2281 C2269 0.929 . S
H2282 C2270 0.960 . S
H2283 C2270 0.962 . S
H2284 C2270 0.960 . S
H2285 C2271 0.961 . S
H2286 C2271 0.961 . S
H2287 C2271 0.961 . S
H2288 C2272 0.931 . S
H2289 C2277 0.930 . S
H2290 C2278 0.956 . S
H2291 C2278 0.961 . S
H2292 C2278 0.961 . S
H2293 C2279 0.958 . S
H2294 C2279 0.961 . S
H2295 C2279 0.960 . S
C2296 C2297 1.391 . S
C2296 C2298 1.394 . S
C2296 H2312 0.931 . S
C2297 C2296 1.391 . S
C2297 C2301 1.376 . S
C2298 C2296 1.394 . S
C2298 C2299 1.369 . S
C2298 C2302 1.531 . S
C2299 C2298 1.369 . S
C2299 C2300 1.410 . S
C2299 C2307 1.503 . S
C2300 C2299 1.410 . S
C2300 C2301 1.392 . S
C2300 C2303 1.511 . S
C2301 C2297 1.376 . S
C2301 C2300 1.392 . S
C2301 H2313 0.929 . S
C2302 C2298 1.531 . S
C2302 H2314 0.960 . S
C2302 H2315 0.962 . S
C2302 H2316 0.960 . S
C2303 C2300 1.511 . S
C2303 H2317 0.961 . S
C2303 H2318 0.961 . S
C2303 H2319 0.961 . S
C2304 C2305 1.370 . S
C2304 C2306 1.363 . S
C2304 H2320 0.931 . S
C2305 C2304 1.370 . S
C2305 C2309 1.408 . S
C2306 C2304 1.363 . S
C2306 C2307 1.370 . S
C2306 C2310 1.524 . S
C2307 C2299 1.503 . S
C2307 C2306 1.370 . S
C2307 C2308 1.403 . S
C2308 C2307 1.403 . S
C2308 C2309 1.404 . S
C2308 C2311 1.539 . S
C2309 C2305 1.408 . S
C2309 C2308 1.404 . S
C2309 H2321 0.930 . S
C2310 C2306 1.524 . S
C2310 H2322 0.956 . S
C2310 H2323 0.961 . S
C2310 H2324 0.961 . S
C2311 C2308 1.539 . S
C2311 H2325 0.958 . S
C2311 H2326 0.961 . S
C2311 H2327 0.960 . S
H2312 C2296 0.931 . S
H2313 C2301 0.929 . S
H2314 C2302 0.960 . S
H2315 C2302 0.962 . S
H2316 C2302 0.960 . S
H2317 C2303 0.961 . S
H2318 C2303 0.961 . S
H2319 C2303 0.961 . S
H2320 C2304 0.931 . S
H2321 C2309 0.930 . S
H2322 C2310 0.956 . S
H2323 C2310 0.961 . S
H2324 C2310 0.961 . S
H2325 C2311 0.958 . S
H2326 C2311 0.961 . S
H2327 C2311 0.960 . S
C2328 C2329 1.391 . S
C2328 C2330 1.394 . S
C2328 H2344 0.931 . S
C2329 C2328 1.391 . S
C2329 C2333 1.376 . S
C2330 C2328 1.394 . S
C2330 C2331 1.369 . S
C2330 C2334 1.531 . S
C2331 C2330 1.369 . S
C2331 C2332 1.410 . S
C2331 C2339 1.503 . S
C2332 C2331 1.410 . S
C2332 C2333 1.392 . S
C2332 C2335 1.511 . S
C2333 C2329 1.376 . S
C2333 C2332 1.392 . S
C2333 H2345 0.929 . S
C2334 C2330 1.531 . S
C2334 H2346 0.960 . S
C2334 H2347 0.962 . S
C2334 H2348 0.960 . S
C2335 C2332 1.511 . S
C2335 H2349 0.961 . S
C2335 H2350 0.961 . S
C2335 H2351 0.961 . S
C2336 C2337 1.370 . S
C2336 C2338 1.363 . S
C2336 H2352 0.931 . S
C2337 C2336 1.370 . S
C2337 C2341 1.408 . S
C2338 C2336 1.363 . S
C2338 C2339 1.370 . S
C2338 C2342 1.524 . S
C2339 C2331 1.503 . S
C2339 C2338 1.370 . S
C2339 C2340 1.403 . S
C2340 C2339 1.403 . S
C2340 C2341 1.404 . S
C2340 C2343 1.539 . S
C2341 C2337 1.408 . S
C2341 C2340 1.404 . S
C2341 H2353 0.930 . S
C2342 C2338 1.524 . S
C2342 H2354 0.956 . S
C2342 H2355 0.961 . S
C2342 H2356 0.961 . S
C2343 C2340 1.539 . S
C2343 H2357 0.958 . S
C2343 H2358 0.961 . S
C2343 H2359 0.960 . S
H2344 C2328 0.931 . S
H2345 C2333 0.929 . S
H2346 C2334 0.960 . S
H2347 C2334 0.962 . S
H2348 C2334 0.960 . S
H2349 C2335 0.961 . S
H2350 C2335 0.961 . S
H2351 C2335 0.961 . S
H2352 C2336 0.931 . S
H2353 C2341 0.930 . S
H2354 C2342 0.956 . S
H2355 C2342 0.961 . S
H2356 C2342 0.961 . S
H2357 C2343 0.958 . S
H2358 C2343 0.961 . S
H2359 C2343 0.960 . S
C2360 C2361 1.391 . S
C2360 C2362 1.394 . S
C2360 H2376 0.931 . S
C2361 C2360 1.391 . S
C2361 C2365 1.376 . S
C2362 C2360 1.394 . S
C2362 C2363 1.369 . S
C2362 C2366 1.531 . S
C2363 C2362 1.369 . S
C2363 C2364 1.410 . S
C2363 C2371 1.503 . S
C2364 C2363 1.410 . S
C2364 C2365 1.392 . S
C2364 C2367 1.511 . S
C2365 C2361 1.376 . S
C2365 C2364 1.392 . S
C2365 H2377 0.929 . S
C2366 C2362 1.531 . S
C2366 H2378 0.960 . S
C2366 H2379 0.962 . S
C2366 H2380 0.960 . S
C2367 C2364 1.511 . S
C2367 H2381 0.961 . S
C2367 H2382 0.961 . S
C2367 H2383 0.961 . S
C2368 C2369 1.370 . S
C2368 C2370 1.363 . S
C2368 H2384 0.931 . S
C2369 C2368 1.370 . S
C2369 C2373 1.408 . S
C2370 C2368 1.363 . S
C2370 C2371 1.370 . S
C2370 C2374 1.524 . S
C2371 C2363 1.503 . S
C2371 C2370 1.370 . S
C2371 C2372 1.403 . S
C2372 C2371 1.403 . S
C2372 C2373 1.404 . S
C2372 C2375 1.539 . S
C2373 C2369 1.408 . S
C2373 C2372 1.404 . S
C2373 H2385 0.930 . S
C2374 C2370 1.524 . S
C2374 H2386 0.956 . S
C2374 H2387 0.961 . S
C2374 H2388 0.961 . S
C2375 C2372 1.539 . S
C2375 H2389 0.958 . S
C2375 H2390 0.961 . S
C2375 H2391 0.960 . S
H2376 C2360 0.931 . S
H2377 C2365 0.929 . S
H2378 C2366 0.960 . S
H2379 C2366 0.962 . S
H2380 C2366 0.960 . S
H2381 C2367 0.961 . S
H2382 C2367 0.961 . S
H2383 C2367 0.961 . S
H2384 C2368 0.931 . S
H2385 C2373 0.930 . S
H2386 C2374 0.956 . S
H2387 C2374 0.961 . S
H2388 C2374 0.961 . S
H2389 C2375 0.958 . S
H2390 C2375 0.961 . S
H2391 C2375 0.960 . S
C2392 C2393 1.391 . S
C2392 C2394 1.394 . S
C2392 H2408 0.931 . S
C2393 C2392 1.391 . S
C2393 C2397 1.376 . S
C2394 C2392 1.394 . S
C2394 C2395 1.369 . S
C2394 C2398 1.531 . S
C2395 C2394 1.369 . S
C2395 C2396 1.410 . S
C2395 C2403 1.503 . S
C2396 C2395 1.410 . S
C2396 C2397 1.392 . S
C2396 C2399 1.511 . S
C2397 C2393 1.376 . S
C2397 C2396 1.392 . S
C2397 H2409 0.929 . S
C2398 C2394 1.531 . S
C2398 H2410 0.960 . S
C2398 H2411 0.962 . S
C2398 H2412 0.960 . S
C2399 C2396 1.511 . S
C2399 H2413 0.961 . S
C2399 H2414 0.961 . S
C2399 H2415 0.961 . S
C2400 C2401 1.370 . S
C2400 C2402 1.363 . S
C2400 H2416 0.931 . S
C2401 C2400 1.370 . S
C2401 C2405 1.408 . S
C2402 C2400 1.363 . S
C2402 C2403 1.370 . S
C2402 C2406 1.524 . S
C2403 C2395 1.503 . S
C2403 C2402 1.370 . S
C2403 C2404 1.403 . S
C2404 C2403 1.403 . S
C2404 C2405 1.404 . S
C2404 C2407 1.539 . S
C2405 C2401 1.408 . S
C2405 C2404 1.404 . S
C2405 H2417 0.930 . S
C2406 C2402 1.524 . S
C2406 H2418 0.956 . S
C2406 H2419 0.961 . S
C2406 H2420 0.961 . S
C2407 C2404 1.539 . S
C2407 H2421 0.958 . S
C2407 H2422 0.961 . S
C2407 H2423 0.960 . S
H2408 C2392 0.931 . S
H2409 C2397 0.929 . S
H2410 C2398 0.960 . S
H2411 C2398 0.962 . S
H2412 C2398 0.960 . S
H2413 C2399 0.961 . S
H2414 C2399 0.961 . S
H2415 C2399 0.961 . S
H2416 C2400 0.931 . S
H2417 C2405 0.930 . S
H2418 C2406 0.956 . S
H2419 C2406 0.961 . S
H2420 C2406 0.961 . S
H2421 C2407 0.958 . S
H2422 C2407 0.961 . S
H2423 C2407 0.960 . S
C2424 C2425 1.391 . S
C2424 C2426 1.394 . S
C2424 H2440 0.931 . S
C2425 C2424 1.391 . S
C2425 C2429 1.376 . S
C2426 C2424 1.394 . S
C2426 C2427 1.369 . S
C2426 C2430 1.531 . S
C2427 C2426 1.369 . S
C2427 C2428 1.410 . S
C2427 C2435 1.503 . S
C2428 C2427 1.410 . S
C2428 C2429 1.392 . S
C2428 C2431 1.511 . S
C2429 C2425 1.376 . S
C2429 C2428 1.392 . S
C2429 H2441 0.929 . S
C2430 C2426 1.531 . S
C2430 H2442 0.960 . S
C2430 H2443 0.962 . S
C2430 H2444 0.960 . S
C2431 C2428 1.511 . S
C2431 H2445 0.961 . S
C2431 H2446 0.961 . S
C2431 H2447 0.961 . S
C2432 C2433 1.370 . S
C2432 C2434 1.363 . S
C2432 H2448 0.931 . S
C2433 C2432 1.370 . S
C2433 C2437 1.408 . S
C2434 C2432 1.363 . S
C2434 C2435 1.370 . S
C2434 C2438 1.524 . S
C2435 C2427 1.503 . S
C2435 C2434 1.370 . S
C2435 C2436 1.403 . S
C2436 C2435 1.403 . S
C2436 C2437 1.404 . S
C2436 C2439 1.539 . S
C2437 C2433 1.408 . S
C2437 C2436 1.404 . S
C2437 H2449 0.930 . S
C2438 C2434 1.524 . S
C2438 H2450 0.956 . S
C2438 H2451 0.961 . S
C2438 H2452 0.961 . S
C2439 C2436 1.539 . S
C2439 H2453 0.958 . S
C2439 H2454 0.961 . S
C2439 H2455 0.960 . S
H2440 C2424 0.931 . S
H2441 C2429 0.929 . S
H2442 C2430 0.960 . S
H2443 C2430 0.962 . S
H2444 C2430 0.960 . S
H2445 C2431 0.961 . S
H2446 C2431 0.961 . S
H2447 C2431 0.961 . S
H2448 C2432 0.931 . S
H2449 C2437 0.930 . S
H2450 C2438 0.956 . S
H2451 C2438 0.961 . S
H2452 C2438 0.961 . S
H2453 C2439 0.958 . S
H2454 C2439 0.961 . S
H2455 C2439 0.960 . S
C2456 C2457 1.391 . S
C2456 C2458 1.394 . S
C2456 H2472 0.931 . S
C2457 C2456 1.391 . S
C2457 C2461 1.376 . S
C2458 C2456 1.394 . S
C2458 C2459 1.369 . S
C2458 C2462 1.531 . S
C2459 C2458 1.369 . S
C2459 C2460 1.410 . S
C2459 C2467 1.503 . S
C2460 C2459 1.410 . S
C2460 C2461 1.392 . S
C2460 C2463 1.511 . S
C2461 C2457 1.376 . S
C2461 C2460 1.392 . S
C2461 H2473 0.929 . S
C2462 C2458 1.531 . S
C2462 H2474 0.960 . S
C2462 H2475 0.962 . S
C2462 H2476 0.960 . S
C2463 C2460 1.511 . S
C2463 H2477 0.961 . S
C2463 H2478 0.961 . S
C2463 H2479 0.961 . S
C2464 C2465 1.370 . S
C2464 C2466 1.363 . S
C2464 H2480 0.931 . S
C2465 C2464 1.370 . S
C2465 C2469 1.408 . S
C2466 C2464 1.363 . S
C2466 C2467 1.370 . S
C2466 C2470 1.524 . S
C2467 C2459 1.503 . S
C2467 C2466 1.370 . S
C2467 C2468 1.403 . S
C2468 C2467 1.403 . S
C2468 C2469 1.404 . S
C2468 C2471 1.539 . S
C2469 C2465 1.408 . S
C2469 C2468 1.404 . S
C2469 H2481 0.930 . S
C2470 C2466 1.524 . S
C2470 H2482 0.956 . S
C2470 H2483 0.961 . S
C2470 H2484 0.961 . S
C2471 C2468 1.539 . S
C2471 H2485 0.958 . S
C2471 H2486 0.961 . S
C2471 H2487 0.960 . S
H2472 C2456 0.931 . S
H2473 C2461 0.929 . S
H2474 C2462 0.960 . S
H2475 C2462 0.962 . S
H2476 C2462 0.960 . S
H2477 C2463 0.961 . S
H2478 C2463 0.961 . S
H2479 C2463 0.961 . S
H2480 C2464 0.931 . S
H2481 C2469 0.930 . S
H2482 C2470 0.956 . S
H2483 C2470 0.961 . S
H2484 C2470 0.961 . S
H2485 C2471 0.958 . S
H2486 C2471 0.961 . S
H2487 C2471 0.960 . S
C2488 C2489 1.391 1_455 S
C2488 C2490 1.394 . S
C2488 H2504 0.931 . S
C2489 C2488 1.391 1_655 S
C2489 C2493 1.376 . S
C2490 C2488 1.394 . S
C2490 C2491 1.369 1_455 S
C2490 C2494 1.531 . S
C2491 C2490 1.369 1_655 S
C2491 C2492 1.410 . S
C2491 C2499 1.503 . S
C2492 C2491 1.410 . S
C2492 C2493 1.392 . S
C2492 C2495 1.511 . S
C2493 C2489 1.376 . S
C2493 C2492 1.392 . S
C2493 H2505 0.929 . S
C2494 C2490 1.531 . S
C2494 H2506 0.960 . S
C2494 H2507 0.962 . S
C2494 H2508 0.960 . S
C2495 C2492 1.511 . S
C2495 H2509 0.961 . S
C2495 H2510 0.961 . S
C2495 H2511 0.961 . S
C2496 C2497 1.370 . S
C2496 C2498 1.363 . S
C2496 H2512 0.931 . S
C2497 C2496 1.370 . S
C2497 C2501 1.408 . S
C2498 C2496 1.363 . S
C2498 C2499 1.370 . S
C2498 C2502 1.524 . S
C2499 C2491 1.503 . S
C2499 C2498 1.370 . S
C2499 C2500 1.403 . S
C2500 C2499 1.403 . S
C2500 C2501 1.404 . S
C2500 C2503 1.539 1_655 S
C2501 C2497 1.408 . S
C2501 C2500 1.404 . S
C2501 H2513 0.930 . S
C2502 C2498 1.524 . S
C2502 H2514 0.956 . S
C2502 H2515 0.961 . S
C2502 H2516 0.961 . S
C2503 C2500 1.539 1_455 S
C2503 H2517 0.958 . S
C2503 H2518 0.960 . S
C2503 H2519 0.960 1_455 S
H2504 C2488 0.931 . S
H2505 C2493 0.929 . S
H2506 C2494 0.960 . S
H2507 C2494 0.962 . S
H2508 C2494 0.960 . S
H2509 C2495 0.961 . S
H2510 C2495 0.961 . S
H2511 C2495 0.961 . S
H2512 C2496 0.931 . S
H2513 C2501 0.930 . S
H2514 C2502 0.956 . S
H2515 C2502 0.961 . S
H2516 C2502 0.961 . S
H2517 C2503 0.958 . S
H2518 C2503 0.960 . S
H2519 C2503 0.960 1_655 S
C2520 C2521 1.391 . S
C2520 C2522 1.394 . S
C2520 H2536 0.931 . S
C2521 C2520 1.391 . S
C2521 C2525 1.376 . S
C2522 C2520 1.394 . S
C2522 C2523 1.369 . S
C2522 C2526 1.531 . S
C2523 C2522 1.369 . S
C2523 C2524 1.410 . S
C2523 C2531 1.503 . S
C2524 C2523 1.410 . S
C2524 C2525 1.392 . S
C2524 C2527 1.511 . S
C2525 C2521 1.376 . S
C2525 C2524 1.392 . S
C2525 H2537 0.929 . S
C2526 C2522 1.531 . S
C2526 H2538 0.960 . S
C2526 H2539 0.962 . S
C2526 H2540 0.960 . S
C2527 C2524 1.511 . S
C2527 H2541 0.961 . S
C2527 H2542 0.961 . S
C2527 H2543 0.961 . S
C2528 C2529 1.370 . S
C2528 C2530 1.363 . S
C2528 H2544 0.931 . S
C2529 C2528 1.370 . S
C2529 C2533 1.408 . S
C2530 C2528 1.363 . S
C2530 C2531 1.370 . S
C2530 C2534 1.524 . S
C2531 C2523 1.503 . S
C2531 C2530 1.370 . S
C2531 C2532 1.403 . S
C2532 C2531 1.403 . S
C2532 C2533 1.404 . S
C2532 C2535 1.539 . S
C2533 C2529 1.408 . S
C2533 C2532 1.404 . S
C2533 H2545 0.930 . S
C2534 C2530 1.524 . S
C2534 H2546 0.956 . S
C2534 H2547 0.961 . S
C2534 H2548 0.961 . S
C2535 C2532 1.539 . S
C2535 H2549 0.958 . S
C2535 H2550 0.961 . S
C2535 H2551 0.960 . S
H2536 C2520 0.931 . S
H2537 C2525 0.929 . S
H2538 C2526 0.960 . S
H2539 C2526 0.962 . S
H2540 C2526 0.960 . S
H2541 C2527 0.961 . S
H2542 C2527 0.961 . S
H2543 C2527 0.961 . S
H2544 C2528 0.931 . S
H2545 C2533 0.930 . S
H2546 C2534 0.956 . S
H2547 C2534 0.961 . S
H2548 C2534 0.961 . S
H2549 C2535 0.958 . S
H2550 C2535 0.961 . S
H2551 C2535 0.960 . S
C2552 C2553 1.391 . S
C2552 C2554 1.394 . S
C2552 H2568 0.931 . S
C2553 C2552 1.391 . S
C2553 C2557 1.376 . S
C2554 C2552 1.394 . S
C2554 C2555 1.369 . S
C2554 C2558 1.531 . S
C2555 C2554 1.369 . S
C2555 C2556 1.410 . S
C2555 C2563 1.503 . S
C2556 C2555 1.410 . S
C2556 C2557 1.392 . S
C2556 C2559 1.511 . S
C2557 C2553 1.376 . S
C2557 C2556 1.392 . S
C2557 H2569 0.929 . S
C2558 C2554 1.531 . S
C2558 H2570 0.960 . S
C2558 H2571 0.962 . S
C2558 H2572 0.960 . S
C2559 C2556 1.511 . S
C2559 H2573 0.961 . S
C2559 H2574 0.961 . S
C2559 H2575 0.961 . S
C2560 C2561 1.370 . S
C2560 C2562 1.363 . S
C2560 H2576 0.931 . S
C2561 C2560 1.370 . S
C2561 C2565 1.408 . S
C2562 C2560 1.363 . S
C2562 C2563 1.370 . S
C2562 C2566 1.524 . S
C2563 C2555 1.503 . S
C2563 C2562 1.370 . S
C2563 C2564 1.403 . S
C2564 C2563 1.403 . S
C2564 C2565 1.404 . S
C2564 C2567 1.539 . S
C2565 C2561 1.408 . S
C2565 C2564 1.404 . S
C2565 H2577 0.930 . S
C2566 C2562 1.524 . S
C2566 H2578 0.956 . S
C2566 H2579 0.961 . S
C2566 H2580 0.961 . S
C2567 C2564 1.539 . S
C2567 H2581 0.958 . S
C2567 H2582 0.961 . S
C2567 H2583 0.960 . S
H2568 C2552 0.931 . S
H2569 C2557 0.929 . S
H2570 C2558 0.960 . S
H2571 C2558 0.962 . S
H2572 C2558 0.960 . S
H2573 C2559 0.961 . S
H2574 C2559 0.961 . S
H2575 C2559 0.961 . S
H2576 C2560 0.931 . S
H2577 C2565 0.930 . S
H2578 C2566 0.956 . S
H2579 C2566 0.961 . S
H2580 C2566 0.961 . S
H2581 C2567 0.958 . S
H2582 C2567 0.961 . S
H2583 C2567 0.960 . S
C2584 C2585 1.391 . S
C2584 C2586 1.394 . S
C2584 H2600 0.931 . S
C2585 C2584 1.391 . S
C2585 C2589 1.376 . S
C2586 C2584 1.394 . S
C2586 C2587 1.369 . S
C2586 C2590 1.531 . S
C2587 C2586 1.369 . S
C2587 C2588 1.410 . S
C2587 C2595 1.503 . S
C2588 C2587 1.410 . S
C2588 C2589 1.392 . S
C2588 C2591 1.511 . S
C2589 C2585 1.376 . S
C2589 C2588 1.392 . S
C2589 H2601 0.929 . S
C2590 C2586 1.531 . S
C2590 H2602 0.960 . S
C2590 H2603 0.962 . S
C2590 H2604 0.960 . S
C2591 C2588 1.511 . S
C2591 H2605 0.961 . S
C2591 H2606 0.961 . S
C2591 H2607 0.961 . S
C2592 C2593 1.370 . S
C2592 C2594 1.363 . S
C2592 H2608 0.931 . S
C2593 C2592 1.370 . S
C2593 C2597 1.408 . S
C2594 C2592 1.363 . S
C2594 C2595 1.370 . S
C2594 C2598 1.524 . S
C2595 C2587 1.503 . S
C2595 C2594 1.370 . S
C2595 C2596 1.403 . S
C2596 C2595 1.403 . S
C2596 C2597 1.404 . S
C2596 C2599 1.539 . S
C2597 C2593 1.408 . S
C2597 C2596 1.404 . S
C2597 H2609 0.930 . S
C2598 C2594 1.524 . S
C2598 H2610 0.956 . S
C2598 H2611 0.961 . S
C2598 H2612 0.961 . S
C2599 C2596 1.539 . S
C2599 H2613 0.958 . S
C2599 H2614 0.961 . S
C2599 H2615 0.960 . S
H2600 C2584 0.931 . S
H2601 C2589 0.929 . S
H2602 C2590 0.960 . S
H2603 C2590 0.962 . S
H2604 C2590 0.960 . S
H2605 C2591 0.961 . S
H2606 C2591 0.961 . S
H2607 C2591 0.961 . S
H2608 C2592 0.931 . S
H2609 C2597 0.930 . S
H2610 C2598 0.956 . S
H2611 C2598 0.961 . S
H2612 C2598 0.961 . S
H2613 C2599 0.958 . S
H2614 C2599 0.961 . S
H2615 C2599 0.960 . S
C2616 C2617 1.391 . S
C2616 C2618 1.394 . S
C2616 H2632 0.931 . S
C2617 C2616 1.391 . S
C2617 C2621 1.376 . S
C2618 C2616 1.394 . S
C2618 C2619 1.369 . S
C2618 C2622 1.531 . S
C2619 C2618 1.369 . S
C2619 C2620 1.410 . S
C2619 C2627 1.503 . S
C2620 C2619 1.410 . S
C2620 C2621 1.392 . S
C2620 C2623 1.511 . S
C2621 C2617 1.376 . S
C2621 C2620 1.392 . S
C2621 H2633 0.929 . S
C2622 C2618 1.531 . S
C2622 H2634 0.960 . S
C2622 H2635 0.962 . S
C2622 H2636 0.960 . S
C2623 C2620 1.511 . S
C2623 H2637 0.961 . S
C2623 H2638 0.961 . S
C2623 H2639 0.961 . S
C2624 C2625 1.370 . S
C2624 C2626 1.363 . S
C2624 H2640 0.931 . S
C2625 C2624 1.370 . S
C2625 C2629 1.408 . S
C2626 C2624 1.363 . S
C2626 C2627 1.370 . S
C2626 C2630 1.524 . S
C2627 C2619 1.503 . S
C2627 C2626 1.370 . S
C2627 C2628 1.403 . S
C2628 C2627 1.403 . S
C2628 C2629 1.404 . S
C2628 C2631 1.539 . S
C2629 C2625 1.408 . S
C2629 C2628 1.404 . S
C2629 H2641 0.930 . S
C2630 C2626 1.524 . S
C2630 H2642 0.956 . S
C2630 H2643 0.961 . S
C2630 H2644 0.961 . S
C2631 C2628 1.539 . S
C2631 H2645 0.958 . S
C2631 H2646 0.961 . S
C2631 H2647 0.960 . S
H2632 C2616 0.931 . S
H2633 C2621 0.929 . S
H2634 C2622 0.960 . S
H2635 C2622 0.962 . S
H2636 C2622 0.960 . S
H2637 C2623 0.961 . S
H2638 C2623 0.961 . S
H2639 C2623 0.961 . S
H2640 C2624 0.931 . S
H2641 C2629 0.930 . S
H2642 C2630 0.956 . S
H2643 C2630 0.961 . S
H2644 C2630 0.961 . S
H2645 C2631 0.958 . S
H2646 C2631 0.961 . S
H2647 C2631 0.960 . S
C2648 C2649 1.391 . S
C2648 C2650 1.394 . S
C2648 H2664 0.931 . S
C2649 C2648 1.391 . S
C2649 C2653 1.376 . S
C2650 C2648 1.394 . S
C2650 C2651 1.369 . S
C2650 C2654 1.531 . S
C2651 C2650 1.369 . S
C2651 C2652 1.410 . S
C2651 C2659 1.503 . S
C2652 C2651 1.410 . S
C2652 C2653 1.392 . S
C2652 C2655 1.511 . S
C2653 C2649 1.376 . S
C2653 C2652 1.392 . S
C2653 H2665 0.929 . S
C2654 C2650 1.531 . S
C2654 H2666 0.960 . S
C2654 H2667 0.962 . S
C2654 H2668 0.960 . S
C2655 C2652 1.511 . S
C2655 H2669 0.961 . S
C2655 H2670 0.961 . S
C2655 H2671 0.961 . S
C2656 C2657 1.370 . S
C2656 C2658 1.363 . S
C2656 H2672 0.931 . S
C2657 C2656 1.370 . S
C2657 C2661 1.408 . S
C2658 C2656 1.363 . S
C2658 C2659 1.370 . S
C2658 C2662 1.524 . S
C2659 C2651 1.503 . S
C2659 C2658 1.370 . S
C2659 C2660 1.403 . S
C2660 C2659 1.403 . S
C2660 C2661 1.404 . S
C2660 C2663 1.539 . S
C2661 C2657 1.408 . S
C2661 C2660 1.404 . S
C2661 H2673 0.930 . S
C2662 C2658 1.524 . S
C2662 H2674 0.956 . S
C2662 H2675 0.961 . S
C2662 H2676 0.961 . S
C2663 C2660 1.539 . S
C2663 H2677 0.958 . S
C2663 H2678 0.961 . S
C2663 H2679 0.960 . S
H2664 C2648 0.931 . S
H2665 C2653 0.929 . S
H2666 C2654 0.960 . S
H2667 C2654 0.962 . S
H2668 C2654 0.960 . S
H2669 C2655 0.961 . S
H2670 C2655 0.961 . S
H2671 C2655 0.961 . S
H2672 C2656 0.931 . S
H2673 C2661 0.930 . S
H2674 C2662 0.956 . S
H2675 C2662 0.961 . S
H2676 C2662 0.961 . S
H2677 C2663 0.958 . S
H2678 C2663 0.961 . S
H2679 C2663 0.960 . S
C2680 C2681 1.391 . S
C2680 C2682 1.394 . S
C2680 H2696 0.931 . S
C2681 C2680 1.391 . S
C2681 C2685 1.376 . S
C2682 C2680 1.394 . S
C2682 C2683 1.369 . S
C2682 C2686 1.531 . S
C2683 C2682 1.369 . S
C2683 C2684 1.410 . S
C2683 C2691 1.503 . S
C2684 C2683 1.410 . S
C2684 C2685 1.392 . S
C2684 C2687 1.511 . S
C2685 C2681 1.376 . S
C2685 C2684 1.392 . S
C2685 H2697 0.929 . S
C2686 C2682 1.531 . S
C2686 H2698 0.960 . S
C2686 H2699 0.962 . S
C2686 H2700 0.960 . S
C2687 C2684 1.511 . S
C2687 H2701 0.961 . S
C2687 H2702 0.961 . S
C2687 H2703 0.961 . S
C2688 C2689 1.370 . S
C2688 C2690 1.363 . S
C2688 H2704 0.931 . S
C2689 C2688 1.370 . S
C2689 C2693 1.408 . S
C2690 C2688 1.363 . S
C2690 C2691 1.370 . S
C2690 C2694 1.524 . S
C2691 C2683 1.503 . S
C2691 C2690 1.370 . S
C2691 C2692 1.403 . S
C2692 C2691 1.403 . S
C2692 C2693 1.404 . S
C2692 C2695 1.539 . S
C2693 C2689 1.408 . S
C2693 C2692 1.404 . S
C2693 H2705 0.930 . S
C2694 C2690 1.524 . S
C2694 H2706 0.956 . S
C2694 H2707 0.961 . S
C2694 H2708 0.961 . S
C2695 C2692 1.539 . S
C2695 H2709 0.958 . S
C2695 H2710 0.961 . S
C2695 H2711 0.960 . S
H2696 C2680 0.931 . S
H2697 C2685 0.929 . S
H2698 C2686 0.960 . S
H2699 C2686 0.962 . S
H2700 C2686 0.960 . S
H2701 C2687 0.961 . S
H2702 C2687 0.961 . S
H2703 C2687 0.961 . S
H2704 C2688 0.931 . S
H2705 C2693 0.930 . S
H2706 C2694 0.956 . S
H2707 C2694 0.961 . S
H2708 C2694 0.961 . S
H2709 C2695 0.958 . S
H2710 C2695 0.961 . S
H2711 C2695 0.960 . S
C2712 C2713 1.391 . S
C2712 C2714 1.394 . S
C2712 H2728 0.931 . S
C2713 C2712 1.391 . S
C2713 C2717 1.376 . S
C2714 C2712 1.394 . S
C2714 C2715 1.369 . S
C2714 C2718 1.531 . S
C2715 C2714 1.369 . S
C2715 C2716 1.410 . S
C2715 C2723 1.503 . S
C2716 C2715 1.410 . S
C2716 C2717 1.392 . S
C2716 C2719 1.511 . S
C2717 C2713 1.376 . S
C2717 C2716 1.392 . S
C2717 H2729 0.929 . S
C2718 C2714 1.531 . S
C2718 H2730 0.960 . S
C2718 H2731 0.962 . S
C2718 H2732 0.960 . S
C2719 C2716 1.511 . S
C2719 H2733 0.961 . S
C2719 H2734 0.961 . S
C2719 H2735 0.961 . S
C2720 C2721 1.370 . S
C2720 C2722 1.363 . S
C2720 H2736 0.931 . S
C2721 C2720 1.370 . S
C2721 C2725 1.408 . S
C2722 C2720 1.363 . S
C2722 C2723 1.370 . S
C2722 C2726 1.524 . S
C2723 C2715 1.503 . S
C2723 C2722 1.370 . S
C2723 C2724 1.403 . S
C2724 C2723 1.403 . S
C2724 C2725 1.404 . S
C2724 C2727 1.539 . S
C2725 C2721 1.408 . S
C2725 C2724 1.404 . S
C2725 H2737 0.930 . S
C2726 C2722 1.524 . S
C2726 H2738 0.956 . S
C2726 H2739 0.961 . S
C2726 H2740 0.961 . S
C2727 C2724 1.539 . S
C2727 H2741 0.958 . S
C2727 H2742 0.961 . S
C2727 H2743 0.960 . S
H2728 C2712 0.931 . S
H2729 C2717 0.929 . S
H2730 C2718 0.960 . S
H2731 C2718 0.962 . S
H2732 C2718 0.960 . S
H2733 C2719 0.961 . S
H2734 C2719 0.961 . S
H2735 C2719 0.961 . S
H2736 C2720 0.931 . S
H2737 C2725 0.930 . S
H2738 C2726 0.956 . S
H2739 C2726 0.961 . S
H2740 C2726 0.961 . S
H2741 C2727 0.958 . S
H2742 C2727 0.961 . S
H2743 C2727 0.960 . S
C2744 C2745 1.391 1_545 S
C2744 C2746 1.394 . S
C2744 H2760 0.931 . S
C2745 C2744 1.391 1_565 S
C2745 C2749 1.376 . S
C2746 C2744 1.394 . S
C2746 C2747 1.369 1_545 S
C2746 C2750 1.531 . S
C2747 C2746 1.369 1_565 S
C2747 C2748 1.410 . S
C2747 C2755 1.503 . S
C2748 C2747 1.410 . S
C2748 C2749 1.392 . S
C2748 C2751 1.511 . S
C2749 C2745 1.376 . S
C2749 C2748 1.392 . S
C2749 H2761 0.929 . S
C2750 C2746 1.531 . S
C2750 H2762 0.960 . S
C2750 H2763 0.962 . S
C2750 H2764 0.960 . S
C2751 C2748 1.511 . S
C2751 H2765 0.961 . S
C2751 H2766 0.961 . S
C2751 H2767 0.961 . S
C2752 C2753 1.370 . S
C2752 C2754 1.363 . S
C2752 H2768 0.931 . S
C2753 C2752 1.370 . S
C2753 C2757 1.408 . S
C2754 C2752 1.363 . S
C2754 C2755 1.370 . S
C2754 C2758 1.524 . S
C2755 C2747 1.503 . S
C2755 C2754 1.370 . S
C2755 C2756 1.403 . S
C2756 C2755 1.403 . S
C2756 C2757 1.404 . S
C2756 C2759 1.539 . S
C2757 C2753 1.408 . S
C2757 C2756 1.404 . S
C2757 H2769 0.930 . S
C2758 C2754 1.524 . S
C2758 H2770 0.956 . S
C2758 H2771 0.961 . S
C2758 H2772 0.961 . S
C2759 C2756 1.539 . S
C2759 H2773 0.958 1_565 S
C2759 H2774 0.961 . S
C2759 H2775 0.960 . S
H2760 C2744 0.931 . S
H2761 C2749 0.929 . S
H2762 C2750 0.960 . S
H2763 C2750 0.962 . S
H2764 C2750 0.960 . S
H2765 C2751 0.961 . S
H2766 C2751 0.961 . S
H2767 C2751 0.961 . S
H2768 C2752 0.931 . S
H2769 C2757 0.930 . S
H2770 C2758 0.956 . S
H2771 C2758 0.961 . S
H2772 C2758 0.961 . S
H2773 C2759 0.958 1_545 S
H2774 C2759 0.961 . S
H2775 C2759 0.960 . S
C2776 C2777 1.391 . S
C2776 C2778 1.394 . S
C2776 H2792 0.931 . S
C2777 C2776 1.391 . S
C2777 C2781 1.376 . S
C2778 C2776 1.394 . S
C2778 C2779 1.369 . S
C2778 C2782 1.531 . S
C2779 C2778 1.369 . S
C2779 C2780 1.410 . S
C2779 C2787 1.503 . S
C2780 C2779 1.410 . S
C2780 C2781 1.392 . S
C2780 C2783 1.511 . S
C2781 C2777 1.376 . S
C2781 C2780 1.392 . S
C2781 H2793 0.929 . S
C2782 C2778 1.531 . S
C2782 H2794 0.960 . S
C2782 H2795 0.962 . S
C2782 H2796 0.960 . S
C2783 C2780 1.511 . S
C2783 H2797 0.961 . S
C2783 H2798 0.961 . S
C2783 H2799 0.961 . S
C2784 C2785 1.370 . S
C2784 C2786 1.363 . S
C2784 H2800 0.931 . S
C2785 C2784 1.370 . S
C2785 C2789 1.408 . S
C2786 C2784 1.363 . S
C2786 C2787 1.370 . S
C2786 C2790 1.524 . S
C2787 C2779 1.503 . S
C2787 C2786 1.370 . S
C2787 C2788 1.403 . S
C2788 C2787 1.403 . S
C2788 C2789 1.404 . S
C2788 C2791 1.539 . S
C2789 C2785 1.408 . S
C2789 C2788 1.404 . S
C2789 H2801 0.930 . S
C2790 C2786 1.524 . S
C2790 H2802 0.956 . S
C2790 H2803 0.961 . S
C2790 H2804 0.961 . S
C2791 C2788 1.539 . S
C2791 H2805 0.958 . S
C2791 H2806 0.961 . S
C2791 H2807 0.960 . S
H2792 C2776 0.931 . S
H2793 C2781 0.929 . S
H2794 C2782 0.960 . S
H2795 C2782 0.962 . S
H2796 C2782 0.960 . S
H2797 C2783 0.961 . S
H2798 C2783 0.961 . S
H2799 C2783 0.961 . S
H2800 C2784 0.931 . S
H2801 C2789 0.930 . S
H2802 C2790 0.956 . S
H2803 C2790 0.961 . S
H2804 C2790 0.961 . S
H2805 C2791 0.958 . S
H2806 C2791 0.961 . S
H2807 C2791 0.960 . S
C505 C3 1.596 . S
C513 C157 1.599 . S
C537 C129 1.593 . S
C545 C17 1.598 . S
C569 C143 1.592 . S
C577 C31 1.598 . S
C601 C45 1.592 . S
C609 C101 1.598 . S
C633 C59 1.596 . S
C641 C115 1.599 . S
C665 C73 1.594 . S
C673 C87 1.598 . S
C697 C171 1.595 . S
C705 C325 1.599 . S
C729 C297 1.592 . S
C737 C185 1.598 . S
C761 C199 1.593 . S
C769 C311 1.598 . S
C793 C213 1.592 . S
C801 C269 1.597 . S
C825 C227 1.592 . S
C833 C283 1.597 . S
C857 C241 1.594 . S
C865 C255 1.598 . S
C889 C339 1.593 . S
C897 C493 1.598 . S
C921 C353 1.595 . S
C929 C465 1.599 . S
C953 C479 1.596 . S
C961 C367 1.599 . S
C985 C381 1.592 . S
C993 C437 1.598 . S
C1017 C451 1.593 . S
C1025 C395 1.597 . S
C1049 C423 1.595 . S
C1057 C409 1.598 . S
C1081 C8 1.298 . S
C1089 C218 1.277 . S
C1113 C22 1.259 . S
C1121 C232 1.289 . S
C1145 C36 1.291 . S
C1153 C246 1.281 . S
C1177 C50 1.283 . S
C1185 C344 1.275 . S
C1209 C358 1.259 . S
C1217 C64 1.290 . S
C1241 C372 1.280 . S
C1249 C78 1.275 . S
C1273 C92 1.270 . S
C1281 C470 1.290 . S
C1305 C484 1.262 . S
C1313 C106 1.280 . S
C1337 C120 1.259 . S
C1345 C498 1.288 . S
C1369 C134 1.285 . S
C1377 C260 1.273 . S
C1401 C148 1.296 . S
C1409 C274 1.281 . S
C1433 C162 1.273 . S
C1441 C288 1.275 . S
C1465 C386 1.295 . S
C1473 C176 1.273 . S
C1497 C190 1.271 . S
C1505 C400 1.288 . S
C1529 C204 1.270 . S
C1537 C414 1.289 . S
C1561 C428 1.288 . S
C1569 C302 1.286 . S
C1593 C442 1.257 . S
C1601 C316 1.286 . S
C1625 C330 1.286 . S
C1633 C456 1.286 . S
C1657 C9 1.237 . S
C1665 C65 1.253 . S
C1689 C79 1.239 . S
C1697 C23 1.254 . S
C1721 C51 1.248 . S
C1729 C37 1.252 . S
C1753 C93 1.217 . S
C1761 C149 1.242 . S
C1785 C163 1.292 . S
C1793 C107 1.273 . S
C1817 C121 1.221 . S
C1825 C135 1.243 . S
C1849 C233 1.281 . S
C1857 C177 1.271 . S
C1881 C191 1.288 . S
C1889 C247 1.273 . S
C1913 C205 1.271 . S
C1921 C219 1.267 . S
C1945 C317 1.228 . S
C1953 C261 1.248 . S
C1977 C331 1.288 . S
C1985 C275 1.273 . S
C2009 C303 1.273 . S
C2017 C289 1.267 . S
C2041 C345 1.285 . S
C2049 C401 1.269 . S
C2073 C359 1.292 . S
C2081 C415 1.273 . S
C2105 C373 1.268 . S
C2113 C387 1.266 . S
C2137 C485 1.232 . S
C2145 C429 1.250 . S
C2169 C499 1.287 . S
C2177 C443 1.270 . S
C2201 C471 1.231 . S
C2209 C457 1.246 . S
C2233 C133 1.566 . S
C2241 C7 1.570 . S
C2265 C147 1.565 . S
C2273 C21 1.570 . S
C2297 C35 1.550 . S
C2305 C161 1.560 . S
C2329 C49 1.545 . S
C2337 C91 1.561 . S
C2361 C105 1.540 . S
C2369 C63 1.558 . S
C2393 C77 1.546 . S
C2401 C119 1.559 . S
C2425 C301 1.582 . S
C2433 C175 1.576 . S
C2457 C315 1.567 . S
C2465 C189 1.567 . S
C2489 C203 1.556 . S
C2497 C329 1.563 . S
C2521 C259 1.552 . S
C2529 C217 1.564 . S
C2553 C273 1.542 . S
C2561 C231 1.559 . S
C2585 C287 1.540 . S
C2593 C245 1.558 . S
C2617 C343 1.549 . S
C2625 C469 1.560 . S
C2649 C483 1.541 . S
C2657 C357 1.558 . S
C2681 C371 1.574 . S
C2689 C497 1.570 . S
C2713 C385 1.569 . S
C2721 C427 1.571 . S
C2745 C399 1.551 . S
C2753 C441 1.561 . S
C2777 C455 1.566 . S
C2785 C413 1.567 . S
