# Generated by pormake.
# Topology lcy-e, (6)-cn, num edge types: 1
# Building blocks:
#     Node 0, Type 0, BuildingBlock: PAMTOO_clean_sbu_0, # of connection points: 6
#     Node 1, Type 0, BuildingBlock: PAMTOO_clean_sbu_0, # of connection points: 6
#     Node 2, Type 0, BuildingBlock: PAMTOO_clean_sbu_0, # of connection points: 6
#     Node 3, Type 0, BuildingBlock: PAMTOO_clean_sbu_0, # of connection points: 6
#     Node 4, Type 0, BuildingBlock: PAMTOO_clean_sbu_0, # of connection points: 6
#     Node 5, Type 0, BuildingBlock: PAMTOO_clean_sbu_0, # of connection points: 6
#     Node 6, Type 0, BuildingBlock: PAMTOO_clean_sbu_0, # of connection points: 6
#     Node 7, Type 0, BuildingBlock: PAMTOO_clean_sbu_0, # of connection points: 6
#     Node 8, Type 0, BuildingBlock: PAMTOO_clean_sbu_0, # of connection points: 6
#     Node 9, Type 0, BuildingBlock: PAMTOO_clean_sbu_0, # of connection points: 6
#     Node 10, Type 0, BuildingBlock: PAMTOO_clean_sbu_0, # of connection points: 6
#     Node 11, Type 0, BuildingBlock: PAMTOO_clean_sbu_0, # of connection points: 6
#     Edge 12, Type (0, 0), BuildingBlock: XIVTED_clean_linker_0, # of connection points: 2
#     Edge 13, Type (0, 0), BuildingBlock: XIVTED_clean_linker_0, # of connection points: 2
#     Edge 14, Type (0, 0), BuildingBlock: XIVTED_clean_linker_0, # of connection points: 2
#     Edge 15, Type (0, 0), BuildingBlock: XIVTED_clean_linker_0, # of connection points: 2
#     Edge 16, Type (0, 0), BuildingBlock: XIVTED_clean_linker_0, # of connection points: 2
#     Edge 17, Type (0, 0), BuildingBlock: XIVTED_clean_linker_0, # of connection points: 2
#     Edge 18, Type (0, 0), BuildingBlock: XIVTED_clean_linker_0, # of connection points: 2
#     Edge 19, Type (0, 0), BuildingBlock: XIVTED_clean_linker_0, # of connection points: 2
#     Edge 20, Type (0, 0), BuildingBlock: XIVTED_clean_linker_0, # of connection points: 2
#     Edge 21, Type (0, 0), BuildingBlock: XIVTED_clean_linker_0, # of connection points: 2
#     Edge 22, Type (0, 0), BuildingBlock: XIVTED_clean_linker_0, # of connection points: 2
#     Edge 23, Type (0, 0), BuildingBlock: XIVTED_clean_linker_0, # of connection points: 2
#     Edge 24, Type (0, 0), BuildingBlock: XIVTED_clean_linker_0, # of connection points: 2
#     Edge 25, Type (0, 0), BuildingBlock: XIVTED_clean_linker_0, # of connection points: 2
#     Edge 26, Type (0, 0), BuildingBlock: XIVTED_clean_linker_0, # of connection points: 2
#     Edge 27, Type (0, 0), BuildingBlock: XIVTED_clean_linker_0, # of connection points: 2
#     Edge 28, Type (0, 0), BuildingBlock: XIVTED_clean_linker_0, # of connection points: 2
#     Edge 29, Type (0, 0), BuildingBlock: XIVTED_clean_linker_0, # of connection points: 2
#     Edge 30, Type (0, 0), BuildingBlock: XIVTED_clean_linker_0, # of connection points: 2
#     Edge 31, Type (0, 0), BuildingBlock: XIVTED_clean_linker_0, # of connection points: 2
#     Edge 32, Type (0, 0), BuildingBlock: XIVTED_clean_linker_0, # of connection points: 2
#     Edge 33, Type (0, 0), BuildingBlock: XIVTED_clean_linker_0, # of connection points: 2
#     Edge 34, Type (0, 0), BuildingBlock: XIVTED_clean_linker_0, # of connection points: 2
#     Edge 35, Type (0, 0), BuildingBlock: XIVTED_clean_linker_0, # of connection points: 2
#     Edge 36, Type (0, 0), BuildingBlock: XIVTED_clean_linker_0, # of connection points: 2
#     Edge 37, Type (0, 0), BuildingBlock: XIVTED_clean_linker_0, # of connection points: 2
#     Edge 38, Type (0, 0), BuildingBlock: XIVTED_clean_linker_0, # of connection points: 2
#     Edge 39, Type (0, 0), BuildingBlock: XIVTED_clean_linker_0, # of connection points: 2
#     Edge 40, Type (0, 0), BuildingBlock: XIVTED_clean_linker_0, # of connection points: 2
#     Edge 41, Type (0, 0), BuildingBlock: XIVTED_clean_linker_0, # of connection points: 2
#     Edge 42, Type (0, 0), BuildingBlock: XIVTED_clean_linker_0, # of connection points: 2
#     Edge 43, Type (0, 0), BuildingBlock: XIVTED_clean_linker_0, # of connection points: 2
#     Edge 44, Type (0, 0), BuildingBlock: XIVTED_clean_linker_0, # of connection points: 2
#     Edge 45, Type (0, 0), BuildingBlock: XIVTED_clean_linker_0, # of connection points: 2
#     Edge 46, Type (0, 0), BuildingBlock: XIVTED_clean_linker_0, # of connection points: 2
#     Edge 47, Type (0, 0), BuildingBlock: XIVTED_clean_linker_0, # of connection points: 2
# Relax obj value: 0.150
# Max RMSD: 0.303
# Mean RMSD: 0.285
data_MOF--net-lcy-e--node1-PAMTOO_clean_sbu_0--edge1-XIVTED_clean_linker_0
_symmetry_space_group_name_H-M    P1
_symmetry_Int_Tables_number       1
_symmetry_cell_setting            triclinic
loop_
_symmetry_equiv_pos_as_xyz
'x, y, z'
_cell_length_a     44.923951
_cell_length_b     44.354021
_cell_length_c     45.308854
_cell_angle_alpha  89.968995
_cell_angle_beta   90.076697
_cell_angle_gamma 89.84037
loop_
_atom_site_label
_atom_site_type_symbol
_atom_site_fract_x
_atom_site_fract_y
_atom_site_fract_z
_atom_type_partial_charge
Dy0 Dy 0.1206 0.26293 0.44964 0.0
Dy1 Dy 0.14132 0.21554 0.50084 0.0
C2 C 0.17588 0.21873 0.44071 0.0
O3 O 0.08275 0.23182 0.45572 0.0
O4 O 0.10894 0.19062 0.47146 0.0
O5 O 0.10159 0.27015 0.40637 0.0
O6 O 0.11467 0.3083 0.43333 0.0
O7 O 0.09757 0.23277 0.51583 0.0
O8 O 0.10088 0.27877 0.49305 0.0
O9 O 0.15913 0.26153 0.51321 0.0
O10 O 0.16378 0.27962 0.46634 0.0
O11 O 0.14794 0.20304 0.54648 0.0
O12 O 0.16193 0.17297 0.51135 0.0
C13 C 0.08482 0.20268 0.45976 0.0
O14 O 0.15155 0.22927 0.4282 0.0
O15 O 0.1788 0.21915 0.4694 0.0
C16 C 0.1212 0.3122 0.38158 0.0
C17 C 0.15 0.33571 0.33134 0.0
C18 C 0.16562 0.33202 0.35804 0.0
C19 C 0.1514 0.3202 0.3829 0.0
C20 C 0.1056 0.31572 0.35498 0.0
C21 C 0.11988 0.32729 0.33004 0.0
C22 C 0.10592 0.29919 0.40733 0.0
C23 C 0.09038 0.26132 0.51424 0.0
C24 C 0.16918 0.282 0.49462 0.0
C25 C 0.14471 0.15085 0.55511 0.0
C26 C 0.11949 0.10158 0.58504 0.0
C27 C 0.1041 0.11546 0.56161 0.0
C28 C 0.11661 0.14002 0.5468 0.0
C29 C 0.16023 0.13694 0.57819 0.0
C30 C 0.14774 0.11251 0.59307 0.0
C31 C 0.15824 0.1764 0.5397 0.0
H32 H 0.18893 0.33801 0.35961 0.0
H33 H 0.16401 0.31725 0.4031 0.0
H34 H 0.08234 0.30949 0.3535 0.0
H35 H 0.10719 0.33017 0.30989 0.0
H36 H 0.0822 0.10772 0.55514 0.0
H37 H 0.10435 0.15061 0.52895 0.0
H38 H 0.18203 0.14497 0.58471 0.0
H39 H 0.16029 0.10202 0.61075 0.0
Dy40 Dy 0.04597 0.89293 0.76048 0.0
Dy41 Dy 0.99788 0.86956 0.71142 0.0
C42 C 0.06008 0.83789 0.71834 0.0
O43 O 0.03899 0.93087 0.72952 0.0
O44 O 0.02803 0.90271 0.68886 0.0
O45 O 0.08741 0.91548 0.76951 0.0
O46 O 0.06077 0.8982 0.80558 0.0
O47 O 0.97936 0.9126 0.7286 0.0
O48 O 1.00101 0.91022 0.77441 0.0
O49 O 0.98425 0.85033 0.75534 0.0
O50 O 0.03074 0.84804 0.77586 0.0
O51 O 0.9531 0.86113 0.69623 0.0
O52 O 0.99083 0.84875 0.66892 0.0
C53 C 0.03764 0.92785 0.70084 0.0
O54 O 0.07049 0.86359 0.72826 0.0
O55 O 0.03139 0.83312 0.71694 0.0
C56 C 0.11275 0.89495 0.81004 0.0
C57 C 0.16325 0.86658 0.83433 0.0
C58 C 0.14817 0.85348 0.81037 0.0
C59 C 0.12303 0.86752 0.79838 0.0
C60 C 0.12787 0.90827 0.83365 0.0
C61 C 0.15293 0.89421 0.84574 0.0
C62 C 0.08627 0.90965 0.7977 0.0
C63 C 0.9796 0.91959 0.75672 0.0
C64 C 0.00258 0.84051 0.77593 0.0
C65 C 0.94801 0.86601 0.64444 0.0
C66 C 0.92267 0.89267 0.59382 0.0
C67 C 0.92604 0.90944 0.61994 0.0
C68 C 0.93879 0.89629 0.64499 0.0
C69 C 0.94485 0.8493 0.61839 0.0
C70 C 0.93237 0.86252 0.59324 0.0
C71 C 0.96201 0.85189 0.67034 0.0
H72 H 0.15539 0.83208 0.80134 0.0
H73 H 0.11148 0.8569 0.78014 0.0
H74 H 0.12024 0.9295 0.8428 0.0
H75 H 0.1643 0.90502 0.86396 0.0
H76 H 0.91901 0.9328 0.62091 0.0
H77 H 0.94147 0.90977 0.66475 0.0
H78 H 0.95206 0.82598 0.61751 0.0
H79 H 0.92974 0.84896 0.57354 0.0
Dy80 Dy 0.3931 0.72622 0.94144 0.0
Dy81 Dy 0.37694 0.77472 0.99422 0.0
C82 C 0.33779 0.77089 0.93648 0.0
O83 O 0.43105 0.75791 0.94449 0.0
O84 O 0.40581 0.7991 0.96164 0.0
O85 O 0.41048 0.7184 0.89774 0.0
O86 O 0.39709 0.68063 0.92501 0.0
O87 O 0.42164 0.75649 1.00484 0.0
O88 O 0.41477 0.71027 0.9836 0.0
O89 O 0.35874 0.72933 1.00759 0.0
O90 O 0.35083 0.71021 0.96125 0.0
O91 O 0.37496 0.78752 0.04017 0.0
O92 O 0.35839 0.81796 1.00639 0.0
C93 C 0.42894 0.78711 0.94829 0.0
O94 O 0.36069 0.75955 0.92219 0.0
O95 O 0.33728 0.77167 0.96535 0.0
C96 C 0.39293 0.67517 0.87325 0.0
C97 C 0.36827 0.64807 0.82251 0.0
C98 C 0.35037 0.6656 0.84144 0.0
C99 C 0.36263 0.67905 0.86665 0.0
C100 C 0.41083 0.65799 0.85439 0.0
C101 C 0.39868 0.6446 0.82926 0.0
C102 C 0.40663 0.68932 0.89919 0.0
C103 C 0.42744 0.7276 1.00358 0.0
C104 C 0.34659 0.70923 0.98985 0.0
C105 C 0.38012 0.84031 0.0485 0.0
C106 C 0.40726 0.89014 0.07648 0.0
C107 C 0.42205 0.86217 0.07489 0.0
C108 C 0.40869 0.83752 0.06092 0.0
C109 C 0.36549 0.86827 0.04977 0.0
C110 C 0.37893 0.89296 0.06351 0.0
C111 C 0.36506 0.81457 0.03422 0.0
H112 H 0.32685 0.66853 0.83702 0.0
H113 H 0.34853 0.69242 0.88099 0.0
H114 H 0.43434 0.65502 0.85902 0.0
H115 H 0.41325 0.63178 0.81494 0.0
H116 H 0.44402 0.85937 0.0844 0.0
H117 H 0.42064 0.8163 0.06 0.0
H118 H 0.34347 0.87094 0.04033 0.0
H119 H 0.36679 0.91406 0.06466 0.0
Dy120 Dy 0.46534 0.09893 0.25813 0.0
Dy121 Dy 0.51271 0.1263 0.21008 0.0
C122 C 0.45056 0.15634 0.21926 0.0
O123 O 0.47354 0.06235 0.22579 0.0
O124 O 0.48357 0.0928 0.18642 0.0
O125 O 0.42343 0.07657 0.26566 0.0
O126 O 0.45023 0.09102 0.30279 0.0
O127 O 0.53314 0.08376 0.22561 0.0
O128 O 0.51072 0.08097 0.27108 0.0
O129 O 0.52658 0.14348 0.25483 0.0
O130 O 0.48057 0.14271 0.27656 0.0
O131 O 0.55707 0.13683 0.1949 0.0
O132 O 0.51865 0.14902 0.16842 0.0
C133 C 0.4754 0.06657 0.19725 0.0
O134 O 0.44068 0.12965 0.22695 0.0
O135 O 0.4791 0.16179 0.21862 0.0
C136 C 0.3981 0.09477 0.30748 0.0
C137 C 0.34788 0.12202 0.33395 0.0
C138 C 0.36231 0.136 0.31005 0.0
C139 C 0.38728 0.12254 0.297 0.0
C140 C 0.3836 0.08059 0.331 0.0
C141 C 0.35874 0.09406 0.34413 0.0
C142 C 0.42453 0.0806 0.29416 0.0
C143 C 0.53326 0.07505 0.25326 0.0
C144 C 0.50849 0.1512 0.27642 0.0
C145 C 0.56242 0.13568 0.14319 0.0
C146 C 0.5916 0.1139 0.0924 0.0
C147 C 0.57194 0.09526 0.1082 0.0
C148 C 0.55749 0.10606 0.13346 0.0
C149 C 0.5816 0.15443 0.12731 0.0
C150 C 0.59606 0.14368 0.10215 0.0
C151 C 0.54761 0.14739 0.16969 0.0
H152 H 0.35475 0.15766 0.30189 0.0
H153 H 0.39828 0.1339 0.27888 0.0
H154 H 0.39158 0.05911 0.3393 0.0
H155 H 0.34794 0.0825 0.36224 0.0
H156 H 0.56824 0.07215 0.10143 0.0
H157 H 0.54265 0.09129 0.14551 0.0
H158 H 0.58546 0.17742 0.13443 0.0
H159 H 0.61068 0.15877 0.09025 0.0
Dy160 Dy 0.63594 0.27925 0.47677 0.0
Dy161 Dy 0.61863 0.23255 0.53029 0.0
C162 C 0.58378 0.29414 0.52208 0.0
O163 O 0.67475 0.27787 0.50706 0.0
O164 O 0.65055 0.26595 0.54983 0.0
O165 O 0.65755 0.32003 0.46279 0.0
O166 O 0.63698 0.29075 0.43032 0.0
O167 O 0.66178 0.21653 0.51237 0.0
O168 O 0.65418 0.23341 0.46527 0.0
O169 O 0.59795 0.21537 0.48813 0.0
O170 O 0.59136 0.26102 0.46571 0.0
O171 O 0.61444 0.18727 0.54752 0.0
O172 O 0.60039 0.22563 0.57371 0.0
C173 C 0.67347 0.2776 0.53593 0.0
O174 O 0.60643 0.30546 0.50748 0.0
O175 O 0.58131 0.26509 0.52661 0.0
C176 C 0.63633 0.34315 0.42084 0.0
C177 C 0.61451 0.39556 0.39288 0.0
C178 C 0.60901 0.39049 0.42304 0.0
C179 C 0.61974 0.36445 0.43689 0.0
C180 C 0.64115 0.34771 0.39067 0.0
C181 C 0.63025 0.37356 0.37677 0.0
C182 C 0.64967 0.31668 0.43527 0.0
C183 C 0.66634 0.2142 0.48392 0.0
C184 C 0.58576 0.23213 0.46734 0.0
C185 C 0.61954 0.18365 0.5992 0.0
C186 C 0.64646 0.15835 0.64968 0.0
C187 C 0.65976 0.1829 0.63514 0.0
C188 C 0.64643 0.1954 0.60998 0.0
C189 C 0.60613 0.15942 0.61374 0.0
C190 C 0.61945 0.14686 0.63874 0.0
C191 C 0.60491 0.19659 0.57312 0.0
H192 H 0.59713 0.40699 0.43615 0.0
H193 H 0.61557 0.36126 0.46023 0.0
H194 H 0.65369 0.3314 0.37789 0.0
H195 H 0.63428 0.37634 0.35337 0.0
H196 H 0.68068 0.19205 0.6429 0.0
H197 H 0.65709 0.21415 0.59893 0.0
H198 H 0.58529 0.15023 0.60578 0.0
H199 H 0.60843 0.12826 0.64968 0.0
Dy200 Dy 0.96369 0.39207 0.72149 0.0
Dy201 Dy 0.01695 0.36929 0.76714 0.0
C202 C 0.95271 0.34049 0.76813 0.0
O203 O 0.95679 0.4147 0.76456 0.0
O204 O 0.00466 0.41616 0.78122 0.0
O205 O 0.91882 0.40873 0.7173 0.0
O206 O 0.94683 0.40534 0.67858 0.0
O207 O 0.03824 0.3861 0.72662 0.0
O208 O 0.00367 0.42197 0.71464 0.0
O209 O 0.01983 0.33599 0.72956 0.0
O210 O 0.98517 0.35514 0.69634 0.0
O211 O 0.05988 0.37679 0.78664 0.0
O212 O 0.03361 0.33828 0.80046 0.0
C213 C 0.9775 0.42705 0.7808 0.0
O214 O 0.94887 0.34812 0.74042 0.0
O215 O 0.97331 0.35335 0.78427 0.0
C216 C 0.89554 0.39551 0.67287 0.0
C217 C 0.84676 0.36825 0.64436 0.0
C218 C 0.86392 0.3519 0.66487 0.0
C219 C 0.88819 0.3654 0.67894 0.0
C220 C 0.87864 0.41185 0.65238 0.0
C221 C 0.85447 0.39834 0.63819 0.0
C222 C 0.92006 0.41032 0.68861 0.0
C223 C 0.03089 0.41104 0.71313 0.0
C224 C 0.00625 0.33595 0.70361 0.0
C225 C 0.06512 0.36138 0.83611 0.0
C226 C 0.08832 0.37709 0.89198 0.0
C227 C 0.07045 0.39759 0.87612 0.0
C228 C 0.05892 0.38978 0.84844 0.0
C229 C 0.08143 0.34032 0.85256 0.0
C230 C 0.09282 0.34802 0.88027 0.0
C231 C 0.05739 0.35448 0.80522 0.0
H232 H 0.85878 0.3286 0.66981 0.0
H233 H 0.90108 0.35242 0.69472 0.0
H234 H 0.88394 0.43516 0.64758 0.0
H235 H 0.8415 0.41163 0.62274 0.0
H236 H 0.06664 0.42019 0.88434 0.0
H237 H 0.04624 0.40639 0.83614 0.0
H238 H 0.08631 0.31825 0.84351 0.0
H239 H 0.10592 0.33144 0.89215 0.0
Dy240 Dy 0.87832 0.71746 0.98169 0.0
Dy241 Dy 0.89884 0.76496 0.03318 0.0
C242 C 0.93284 0.70352 0.02436 0.0
O243 O 0.84032 0.72149 0.01265 0.0
O244 O 0.86718 0.73224 0.05413 0.0
O245 O 0.85927 0.67446 0.97001 0.0
O246 O 0.87229 0.70598 0.9358 0.0
O247 O 0.85575 0.78255 0.0164 0.0
O248 O 0.86004 0.76328 0.9697 0.0
O249 O 0.9179 0.78112 0.99003 0.0
O250 O 0.9223 0.73501 0.96784 0.0
O251 O 0.90458 0.81001 0.05038 0.0
O252 O 0.91953 0.7713 0.07565 0.0
C253 C 0.84274 0.72246 0.04142 0.0
O254 O 0.9087 0.69206 0.01244 0.0
O255 O 0.93595 0.73268 0.02714 0.0
C256 C 0.87737 0.65417 0.92561 0.0
C257 C 0.90411 0.60665 0.89387 0.0
C258 C 0.92158 0.62605 0.91128 0.0
C259 C 0.90829 0.64966 0.92705 0.0
C260 C 0.85988 0.6347 0.90868 0.0
C261 C 0.87307 0.61113 0.893 0.0
C262 C 0.86296 0.67883 0.94179 0.0
C263 C 0.84947 0.7836 0.98817 0.0
C264 C 0.92869 0.76377 0.96899 0.0
C265 C 0.90207 0.81307 0.10223 0.0
C266 C 0.87748 0.83777 0.15401 0.0
C267 C 0.86052 0.81839 0.13612 0.0
C268 C 0.87273 0.80615 0.11035 0.0
C269 C 0.91917 0.83192 0.12021 0.0
C270 C 0.90702 0.84417 0.14588 0.0
C271 C 0.91535 0.80039 0.07544 0.0
H272 H 0.94552 0.62334 0.9123 0.0
H273 H 0.92209 0.66449 0.94021 0.0
H274 H 0.83595 0.63772 0.90758 0.0
H275 H 0.85887 0.59626 0.88033 0.0
H276 H 0.83764 0.81326 0.14166 0.0
H277 H 0.85929 0.79145 0.09669 0.0
H278 H 0.94196 0.83721 0.11436 0.0
H279 H 0.9208 0.85864 0.15942 0.0
Dy280 Dy 0.49415 0.62587 0.26314 0.0
Dy281 Dy 0.54693 0.60656 0.21681 0.0
C282 C 0.5399 0.57286 0.27782 0.0
O283 O 0.52506 0.66466 0.26077 0.0
O284 O 0.5675 0.63881 0.2491 0.0
O285 O 0.48138 0.64766 0.30365 0.0
O286 O 0.44762 0.62851 0.27506 0.0
O287 O 0.52881 0.6502 0.2009 0.0
O288 O 0.48161 0.64322 0.21816 0.0
O289 O 0.50407 0.58533 0.20138 0.0
O290 O 0.48241 0.58029 0.24669 0.0
O291 O 0.56323 0.60098 0.17234 0.0
O292 O 0.59091 0.58826 0.20958 0.0
C293 C 0.55412 0.66247 0.26052 0.0
O294 O 0.52563 0.59631 0.28856 0.0
O295 O 0.54392 0.56944 0.24939 0.0
C296 C 0.43989 0.62561 0.32628 0.0
C297 C 0.41351 0.59756 0.37536 0.0
C298 C 0.441 0.58721 0.36455 0.0
C299 C 0.45403 0.60106 0.34005 0.0
C300 C 0.41264 0.6361 0.33711 0.0
C301 C 0.39952 0.62219 0.36143 0.0
C302 C 0.45341 0.64045 0.30073 0.0
C303 C 0.5001 0.65478 0.19873 0.0
C304 C 0.48346 0.57367 0.21856 0.0
C305 C 0.61515 0.60875 0.16841 0.0
C306 C 0.66502 0.63922 0.14562 0.0
C307 C 0.638 0.65465 0.1501 0.0
C308 C 0.61331 0.63958 0.16158 0.0
C309 C 0.64206 0.59335 0.16411 0.0
C310 C 0.66684 0.60846 0.15288 0.0
C311 C 0.58968 0.59265 0.18116 0.0
H312 H 0.45213 0.56814 0.37468 0.0
H313 H 0.47508 0.59261 0.33181 0.0
H314 H 0.40152 0.65507 0.32675 0.0
H315 H 0.3785 0.63087 0.36952 0.0
H316 H 0.63606 0.67843 0.14497 0.0
H317 H 0.59285 0.65203 0.16519 0.0
H318 H 0.64392 0.5696 0.16948 0.0
H319 H 0.68726 0.59593 0.14937 0.0
Dy320 Dy 0.27038 0.44747 0.09522 0.0
Dy321 Dy 0.22341 0.49963 0.11589 0.0
C322 C 0.23043 0.43977 0.15228 0.0
O323 O 0.23776 0.45242 0.05882 0.0
O324 O 0.19813 0.46762 0.08657 0.0
O325 O 0.27666 0.40289 0.07713 0.0
O326 O 0.31486 0.43029 0.08843 0.0
O327 O 0.23992 0.51439 0.07204 0.0
O328 O 0.28546 0.49118 0.07476 0.0
O329 O 0.26883 0.51348 0.1321 0.0
O330 O 0.28912 0.46629 0.13669 0.0
O331 O 0.20984 0.5461 0.12083 0.0
O332 O 0.18214 0.5101 0.13785 0.0
C333 C 0.20899 0.45506 0.06258 0.0
O334 O 0.23891 0.42651 0.12779 0.0
O335 O 0.22999 0.46917 0.15422 0.0
C336 C 0.31778 0.3781 0.09771 0.0
C337 C 0.33965 0.3284 0.1299 0.0
C338 C 0.32982 0.3545 0.1446 0.0
C339 C 0.31883 0.37908 0.12865 0.0
C340 C 0.32731 0.35209 0.08293 0.0
C341 C 0.33813 0.32738 0.09889 0.0
C342 C 0.30541 0.40355 0.08095 0.0
C343 C 0.26815 0.51303 0.06487 0.0
C344 C 0.28984 0.49532 0.14204 0.0
C345 C 0.15794 0.55382 0.12108 0.0
C346 C 0.1069 0.58321 0.09912 0.0
C347 C 0.12227 0.56217 0.08155 0.0
C348 C 0.14768 0.54759 0.09246 0.0
C349 C 0.14241 0.57429 0.13881 0.0
C350 C 0.11711 0.58885 0.12797 0.0
C351 C 0.18451 0.53897 0.133 0.0
H352 H 0.3304 0.35581 0.16847 0.0
H353 H 0.31106 0.39883 0.14046 0.0
H354 H 0.32636 0.35089 0.05906 0.0
H355 H 0.34582 0.3077 0.08696 0.0
H356 H 0.11507 0.55753 0.05918 0.0
H357 H 0.15944 0.53165 0.07856 0.0
H358 H 0.14991 0.57909 0.16105 0.0
H359 H 0.10548 0.60454 0.14222 0.0
Dy360 Dy 0.72198 0.99223 0.86594 0.0
Dy361 Dy 0.76949 0.04501 0.88436 0.0
C362 C 0.7088 0.03737 0.91884 0.0
O363 O 0.72647 0.02246 0.82731 0.0
O364 O 0.73798 0.06595 0.85157 0.0
O365 O 0.68022 0.98069 0.84549 0.0
O366 O 0.70955 0.94539 0.86167 0.0
O367 O 0.78678 0.02597 0.84243 0.0
O368 O 0.76694 0.9788 0.84827 0.0
O369 O 0.78523 0.00127 0.90445 0.0
O370 O 0.73987 0.97854 0.90961 0.0
O371 O 0.81429 0.06126 0.89062 0.0
O372 O 0.77661 0.08942 0.90247 0.0
C373 C 0.72756 0.05191 0.82822 0.0
O374 O 0.69717 0.02425 0.89552 0.0
O375 O 0.73764 0.0406 0.92144 0.0
C376 C 0.65794 0.9359 0.8621 0.0
C377 C 0.60782 0.90493 0.88356 0.0
C378 C 0.62002 0.92906 0.89966 0.0
C379 C 0.645 0.94442 0.88901 0.0
C380 C 0.64577 0.91206 0.84595 0.0
C381 C 0.62094 0.89671 0.85654 0.0
C382 C 0.68372 0.95187 0.85007 0.0
C383 C 0.78727 0.99692 0.83719 0.0
C384 C 0.76836 0.97987 0.91563 0.0
C385 C 0.81944 0.11397 0.88518 0.0
C386 C 0.8461 0.16489 0.85912 0.0
C387 C 0.83716 0.1403 0.84161 0.0
C388 C 0.82385 0.11506 0.85454 0.0
C389 C 0.82797 0.13849 0.90264 0.0
C390 C 0.84112 0.16375 0.88976 0.0
C391 C 0.80541 0.08785 0.89932 0.0
H392 H 0.61056 0.93575 0.92064 0.0
H393 H 0.6542 0.96289 0.90171 0.0
H394 H 0.65542 0.90539 0.82503 0.0
H395 H 0.6118 0.87858 0.84337 0.0
H396 H 0.84089 0.14031 0.81801 0.0
H397 H 0.81714 0.09636 0.84068 0.0
H398 H 0.82439 0.13814 0.92629 0.0
H399 H 0.84717 0.18248 0.90383 0.0
Dy400 Dy 0.7451 0.95053 0.3843 0.0
Dy401 Dy 0.79145 0.00408 0.36409 0.0
C402 C 0.78832 0.94312 0.32905 0.0
O403 O 0.77599 0.95755 0.42177 0.0
O404 O 0.81605 0.97269 0.39464 0.0
O405 O 0.73854 0.90588 0.40204 0.0
O406 O 0.70047 0.93388 0.39103 0.0
O407 O 0.77309 0.01849 0.40723 0.0
O408 O 0.72825 0.9944 0.40312 0.0
O409 O 0.74638 0.01608 0.34503 0.0
O410 O 0.72768 0.96812 0.342 0.0
O411 O 0.80466 0.05083 0.36021 0.0
O412 O 0.83326 0.01523 0.34362 0.0
C413 C 0.80469 0.96162 0.41905 0.0
O414 O 0.77807 0.92976 0.35286 0.0
O415 O 0.78781 0.97249 0.32658 0.0
C416 C 0.69545 0.88129 0.38319 0.0
C417 C 0.66708 0.83219 0.35507 0.0
C418 C 0.69795 0.83167 0.36025 0.0
C419 C 0.712 0.85595 0.37415 0.0
C420 C 0.66467 0.88185 0.37795 0.0
C421 C 0.65067 0.8577 0.36392 0.0
C422 C 0.70971 0.90699 0.39844 0.0
C423 C 0.74474 0.01649 0.41357 0.0
C424 C 0.72582 0.99696 0.33597 0.0
C425 C 0.85666 0.05841 0.36281 0.0
C426 C 0.90729 0.08627 0.38759 0.0
C427 C 0.89501 0.06041 0.40076 0.0
C428 C 0.86981 0.04664 0.38851 0.0
C429 C 0.86895 0.08399 0.34952 0.0
C430 C 0.89399 0.0978 0.36176 0.0
C431 C 0.83062 0.04397 0.34916 0.0
H432 H 0.71124 0.81227 0.35408 0.0
H433 H 0.73578 0.8547 0.37795 0.0
H434 H 0.65135 0.90103 0.38472 0.0
H435 H 0.62695 0.85917 0.35986 0.0
H436 H 0.90455 0.05114 0.42078 0.0
H437 H 0.86058 0.02683 0.39908 0.0
H438 H 0.85922 0.09324 0.32957 0.0
H439 H 0.90313 0.11741 0.3508 0.0
Dy440 Dy 0.23754 0.54749 0.58485 0.0
Dy441 Dy 0.28425 0.48383 0.60554 0.0
C442 C 0.28851 0.54525 0.64104 0.0
O443 O 0.27318 0.53961 0.55111 0.0
O444 O 0.31087 0.51122 0.57353 0.0
O445 O 0.24163 0.59499 0.57507 0.0
O446 O 0.19802 0.5742 0.57795 0.0
O447 O 0.24768 0.496 0.57875 0.0
O448 O 0.212 0.51396 0.55573 0.0
O449 O 0.24162 0.47887 0.63097 0.0
O450 O 0.2161 0.52459 0.62329 0.0
O451 O 0.29491 0.44316 0.5819 0.0
O452 O 0.30737 0.44812 0.62835 0.0
C453 C 0.30034 0.52812 0.55182 0.0
O454 O 0.26648 0.55742 0.6252 0.0
O455 O 0.30001 0.51825 0.63646 0.0
C456 C 0.20253 0.62422 0.59447 0.0
C457 C 0.17988 0.67153 0.62928 0.0
C458 C 0.18688 0.67636 0.59941 0.0
C459 C 0.19806 0.65283 0.58213 0.0
C460 C 0.19658 0.61952 0.62451 0.0
C461 C 0.18521 0.64296 0.64176 0.0
C462 C 0.21289 0.59935 0.57575 0.0
C463 C 0.22611 0.48932 0.56151 0.0
C464 C 0.21905 0.4977 0.63563 0.0
C465 C 0.3398 0.42086 0.5974 0.0
C466 C 0.39721 0.39899 0.58415 0.0
C467 C 0.37473 0.37929 0.59388 0.0
C468 C 0.34629 0.39016 0.60045 0.0
C469 C 0.362 0.44068 0.5876 0.0
C470 C 0.39049 0.42983 0.58097 0.0
C471 C 0.3098 0.43191 0.60426 0.0
H472 H 0.18273 0.69802 0.58912 0.0
H473 H 0.20268 0.65682 0.55899 0.0
H474 H 0.20025 0.5976 0.63447 0.0
H475 H 0.18033 0.63869 0.66479 0.0
H476 H 0.37898 0.35535 0.59607 0.0
H477 H 0.32933 0.37456 0.60782 0.0
H478 H 0.35728 0.46452 0.58513 0.0
H479 H 0.40735 0.4456 0.57377 0.0
H480 H 0.18339 0.29855 0.55171 0.0
H481 H 0.19644 0.47281 0.51152 0.0
H482 H 0.18284 0.33182 0.46208 0.0
H483 H 0.23681 0.43627 0.59015 0.0
H484 H 0.18465 0.42133 0.49543 0.0
H485 H 0.19798 0.34909 0.56864 0.0
C486 C 0.18669 0.31626 0.53558 0.0
C487 C 0.18189 0.31081 0.50542 0.0
C488 C 0.19621 0.42462 0.51617 0.0
C489 C 0.1977 0.36865 0.52469 0.0
C490 C 0.20276 0.45393 0.52537 0.0
C491 C 0.21798 0.45865 0.55193 0.0
C492 C 0.20436 0.39997 0.53401 0.0
C493 C 0.22559 0.43349 0.56922 0.0
C494 C 0.1949 0.34508 0.54527 0.0
C495 C 0.18629 0.33478 0.48555 0.0
N496 N 0.21857 0.40519 0.56005 0.0
N497 N 0.19358 0.36263 0.49555 0.0
H498 H 0.81307 0.942 0.84662 0.0
H499 H 0.9425 0.95969 0.72943 0.0
H500 H 0.82244 0.02366 0.79571 0.0
H501 H 0.95545 0.91181 0.81137 0.0
H502 H 0.89464 0.97858 0.74797 0.0
H503 H 0.86114 0.92446 0.82746 0.0
C504 C 0.82496 0.95595 0.83096 0.0
C505 C 0.81379 0.98425 0.82258 0.0
C506 C 0.90815 0.96417 0.76193 0.0
C507 C 0.86857 0.96443 0.80083 0.0
C508 C 0.93541 0.95349 0.75145 0.0
C509 C 0.95298 0.93441 0.76904 0.0
C510 C 0.89809 0.95498 0.78981 0.0
C511 C 0.94272 0.92681 0.7973 0.0
C512 C 0.85249 0.94611 0.82037 0.0
C513 C 0.83033 0.00168 0.80265 0.0
N514 N 0.91571 0.9368 0.80669 0.0
N515 N 0.85687 0.99142 0.79229 0.0
H516 H 0.30272 0.67574 0.96444 0.0
H517 H 0.32401 0.53601 0.07225 0.0
H518 H 0.35823 0.68048 0.04203 0.0
H519 H 0.24144 0.55151 0.02588 0.0
H520 H 0.34209 0.58503 0.05476 0.0
H521 H 0.28394 0.62682 0.98127 0.0
C522 C 0.31063 0.66664 0.98522 0.0
C523 C 0.33184 0.68225 1.00202 0.0
C524 C 0.32013 0.5775 0.04823 0.0
C525 C 0.3113 0.62597 0.02079 0.0
C526 C 0.30998 0.5494 0.05782 0.0
C527 C 0.28127 0.53965 0.0503 0.0
C528 C 0.30165 0.59566 0.03056 0.0
C529 C 0.26375 0.55818 0.03207 0.0
C530 C 0.30001 0.63874 0.99472 0.0
C531 C 0.34158 0.66936 0.02864 0.0
N532 N 0.27426 0.58527 0.02272 0.0
N533 N 0.33152 0.64174 0.03704 0.0
H534 H 0.58884 0.08294 0.23115 0.0
H535 H 0.67179 0.96961 0.33739 0.0
H536 H 0.54202 0.03884 0.30218 0.0
H537 H 0.71555 0.04954 0.30491 0.0
H538 H 0.6246 0.98846 0.31794 0.0
H539 H 0.63588 0.06454 0.25127 0.0
C540 C 0.58837 0.06906 0.25083 0.0
C541 C 0.56135 0.06217 0.2649 0.0
C542 C 0.64454 0.00181 0.31504 0.0
C543 C 0.61533 0.04106 0.28789 0.0
C544 C 0.67159 0.99101 0.32584 0.0
C545 C 0.69779 0.00796 0.32252 0.0
C546 C 0.64367 0.02946 0.3002 0.0
C547 C 0.69594 0.03573 0.30783 0.0
C548 C 0.61531 0.05886 0.26239 0.0
C549 C 0.5623 0.04456 0.2906 0.0
N550 N 0.66934 0.04552 0.2969 0.0
N551 N 0.5889 0.03431 0.30115 0.0
H552 H 0.70831 0.17995 0.51176 0.0
H553 H 0.68923 0.03973 0.404 0.0
H554 H 0.6557 0.18459 0.43214 0.0
H555 H 0.76937 0.05357 0.45471 0.0
H556 H 0.67062 0.08881 0.42106 0.0
H557 H 0.72636 0.13008 0.49672 0.0
C558 C 0.70088 0.17061 0.49093 0.0
C559 C 0.68072 0.18645 0.47302 0.0
C560 C 0.69213 0.08087 0.42867 0.0
C561 C 0.70041 0.12921 0.45627 0.0
C562 C 0.70254 0.05275 0.41932 0.0
C563 C 0.73079 0.04263 0.42811 0.0
C564 C 0.70992 0.09863 0.44728 0.0
C565 C 0.74744 0.06062 0.44748 0.0
C566 C 0.71106 0.14217 0.48246 0.0
C567 C 0.67156 0.17327 0.44638 0.0
N568 N 0.73675 0.08777 0.45646 0.0
N569 N 0.68122 0.1452 0.43895 0.0
H570 H 0.0727 0.38436 0.67986 0.0
H571 H 0.17307 0.53069 0.65907 0.0
H572 H 0.04444 0.47161 0.71113 0.0
H573 H 0.20441 0.43925 0.64794 0.0
H574 H 0.12516 0.51119 0.67604 0.0
H575 H 0.11916 0.40622 0.66295 0.0
C576 C 0.07616 0.40834 0.68267 0.0
C577 C 0.05487 0.42624 0.69696 0.0
C578 C 0.14266 0.49546 0.67019 0.0
C579 C 0.10845 0.4514 0.67832 0.0
C580 C 0.17009 0.50651 0.66067 0.0
C581 C 0.19282 0.48654 0.65193 0.0
C582 C 0.13785 0.46426 0.67067 0.0
C583 C 0.18768 0.45551 0.65454 0.0
C584 C 0.10283 0.42077 0.67329 0.0
C585 C 0.0603 0.45718 0.69997 0.0
N586 N 0.16064 0.44536 0.66335 0.0
N587 N 0.08684 0.46884 0.69095 0.0
H588 H 0.82379 0.95649 0.90621 0.0
H589 H 0.80786 0.81806 0.01619 0.0
H590 H 0.7435 0.9423 0.95641 0.0
H591 H 0.85817 0.81191 0.93537 0.0
H592 H 0.78856 0.86722 1.00019 0.0
H593 H 0.8426 0.90761 0.92352 0.0
C594 C 0.81044 0.94342 0.92143 0.0
C595 C 0.78212 0.95345 0.93005 0.0
C596 C 0.80361 0.85494 0.98588 0.0
C597 C 0.80334 0.89763 0.9496 0.0
C598 C 0.81451 0.82691 0.99491 0.0
C599 C 0.83438 0.81085 0.97691 0.0
C600 C 0.81331 0.86731 0.95908 0.0
C601 C 0.84254 0.8234 0.94968 0.0
C602 C 0.821 0.9154 0.93093 0.0
C603 C 0.76548 0.93535 0.94933 0.0
N604 N 0.83226 0.85112 0.94173 0.0
N605 N 0.77637 0.90832 0.95855 0.0
H606 H 0.44948 0.53006 0.24411 0.0
H607 H 0.31485 0.55057 0.13255 0.0
H608 H 0.45763 0.58309 0.16473 0.0
H609 H 0.32743 0.46782 0.18114 0.0
H610 H 0.36368 0.56789 0.14991 0.0
H611 H 0.40171 0.51067 0.22608 0.0
C612 C 0.44142 0.5372 0.22266 0.0
C613 C 0.45761 0.55793 0.20572 0.0
C614 C 0.3556 0.54603 0.15687 0.0
C615 C 0.40264 0.53682 0.18558 0.0
C616 C 0.32763 0.53632 0.14732 0.0
C617 C 0.31706 0.50781 0.1556 0.0
C618 C 0.37279 0.52735 0.17528 0.0
C619 C 0.33477 0.48999 0.17432 0.0
C620 C 0.41417 0.52626 0.21248 0.0
C621 C 0.44604 0.56677 0.17825 0.0
N622 N 0.36171 0.50012 0.18368 0.0
N623 N 0.41901 0.5565 0.16919 0.0
H624 H 0.47931 0.19035 0.31271 0.0
H625 H 0.5965 0.17667 0.44337 0.0
H626 H 0.56338 0.14459 0.30162 0.0
H627 H 0.54224 0.2563 0.4325 0.0
H628 H 0.57796 0.15782 0.39583 0.0
H629 H 0.4965 0.20937 0.36063 0.0
C630 C 0.50153 0.18465 0.32023 0.0
C631 C 0.52012 0.16619 0.30311 0.0
C632 C 0.56993 0.17926 0.40408 0.0
C633 C 0.53937 0.18685 0.35818 0.0
C634 C 0.58014 0.18982 0.43133 0.0
C635 C 0.57073 0.218 0.44189 0.0
C636 C 0.54972 0.19674 0.38766 0.0
C637 C 0.54997 0.23442 0.42513 0.0
C638 C 0.51124 0.19539 0.34755 0.0
C639 C 0.54858 0.15918 0.31397 0.0
N640 N 0.54005 0.22351 0.39887 0.0
N641 N 0.55722 0.16921 0.34103 0.0
H642 H 0.10442 0.31206 0.54516 0.0
H643 H 0.97517 0.3046 0.66212 0.0
H644 H 0.04226 0.23824 0.54271 0.0
H645 H 0.06434 0.3285 0.68814 0.0
H646 H 0.99462 0.28605 0.6148 0.0
H647 H 0.08438 0.32684 0.59361 0.0
C648 C 0.08598 0.29954 0.55445 0.0
C649 C 0.07462 0.27418 0.53986 0.0
C650 C 0.00994 0.29491 0.63111 0.0
C651 C 0.05202 0.29063 0.59506 0.0
C652 C 0.99894 0.30517 0.65814 0.0
C653 C 0.01827 0.31765 0.67917 0.0
C654 C 0.04028 0.29824 0.62467 0.0
C655 C 0.04879 0.31856 0.67269 0.0
C656 C 0.07496 0.30763 0.58222 0.0
C657 C 0.05135 0.25813 0.5532 0.0
N658 N 0.05882 0.30956 0.64574 0.0
N659 N 0.04063 0.26673 0.57998 0.0
H660 H 0.03091 0.79938 0.81076 0.0
H661 H 0.91907 0.8193 0.94479 0.0
H662 H 0.94876 0.84924 0.80236 0.0
H663 H 0.97029 0.73771 0.93348 0.0
H664 H 0.93667 0.83689 0.8965 0.0
H665 H 0.0146 0.78124 0.85926 0.0
C666 C 0.00924 0.80609 0.81897 0.0
C667 C 0.99097 0.82552 0.8025 0.0
C668 C 0.94424 0.81528 0.90481 0.0
C669 C 0.97282 0.80592 0.85816 0.0
C670 C 0.9346 0.80546 0.93247 0.0
C671 C 0.94341 0.7771 0.94309 0.0
C672 C 0.96323 0.79685 0.88804 0.0
C673 C 0.96306 0.75975 0.92602 0.0
C674 C 1.00005 0.79589 0.84662 0.0
C675 C 0.96326 0.83388 0.81421 0.0
N676 N 0.97241 0.76993 0.89933 0.0
N677 N 0.95516 0.82435 0.84156 0.0
H678 H 0.44634 0.64451 0.17243 0.0
H679 H 0.47205 0.7527 0.03583 0.0
H680 H 0.52844 0.69354 0.16142 0.0
H681 H 0.41712 0.67332 0.02995 0.0
H682 H 0.49039 0.73535 0.08388 0.0
H683 H 0.43105 0.66028 0.12281 0.0
C684 C 0.46088 0.65907 0.1598 0.0
C685 C 0.48862 0.66791 0.17105 0.0
C686 C 0.47467 0.72152 0.07185 0.0
C687 C 0.47145 0.68563 0.11438 0.0
C688 C 0.46435 0.7313 0.04442 0.0
C689 C 0.44323 0.71427 0.02891 0.0
C690 C 0.46316 0.69497 0.08413 0.0
C691 C 0.43369 0.68689 0.04108 0.0
C692 C 0.45234 0.66767 0.13138 0.0
C693 C 0.50683 0.68632 0.15355 0.0
N694 N 0.44337 0.67829 0.06827 0.0
N695 N 0.49787 0.6947 0.12609 0.0
H696 H 0.18634 0.38497 0.32959 0.0
H697 H 0.21354 0.38015 0.15495 0.0
H698 H 0.14725 0.31709 0.27357 0.0
H699 H 0.22706 0.45894 0.20917 0.0
H700 H 0.19612 0.35273 0.19884 0.0
H701 H 0.20876 0.40826 0.28616 0.0
C702 C 0.18272 0.37479 0.30816 0.0
C703 C 0.1648 0.34913 0.30518 0.0
C704 C 0.20303 0.37599 0.20102 0.0
C705 C 0.19028 0.37579 0.25528 0.0
C706 C 0.21305 0.39158 0.17606 0.0
C707 C 0.22151 0.42193 0.17838 0.0
C708 C 0.20194 0.39079 0.22844 0.0
C709 C 0.22045 0.43567 0.20626 0.0
C710 C 0.19536 0.3882 0.28335 0.0
C711 C 0.16061 0.33709 0.27679 0.0
N712 N 0.21087 0.42002 0.23014 0.0
N713 N 0.17326 0.35053 0.2529 0.0
H714 H 0.9399 0.88941 0.53578 0.0
H715 H 0.78771 0.95744 0.47631 0.0
H716 H 0.87175 0.92627 0.59235 0.0
H717 H 0.86504 0.95008 0.4203 0.0
H718 H 0.81811 0.94368 0.51864 0.0
H719 H 0.91298 0.90917 0.4927 0.0
C720 C 0.91935 0.90176 0.53911 0.0
C721 C 0.90794 0.90613 0.56764 0.0
C722 C 0.82856 0.94522 0.49717 0.0
C723 C 0.87714 0.9286 0.51866 0.0
C724 C 0.81117 0.95292 0.47291 0.0
C725 C 0.82384 0.95465 0.44468 0.0
C726 C 0.85887 0.93874 0.49327 0.0
C727 C 0.85443 0.94893 0.4417 0.0
C728 C 0.90414 0.91316 0.51458 0.0
C729 C 0.88143 0.92256 0.57078 0.0
N730 N 0.87092 0.94086 0.46572 0.0
N731 N 0.8668 0.93293 0.54659 0.0
H732 H 0.27038 0.60063 0.66267 0.0
H733 H 0.38048 0.59155 0.80163 0.0
H734 H 0.33372 0.52883 0.67827 0.0
H735 H 0.32687 0.67019 0.78292 0.0
H736 H 0.36147 0.56783 0.7571 0.0
H737 H 0.28907 0.62635 0.70689 0.0
C738 C 0.28827 0.59032 0.67519 0.0
C739 C 0.30039 0.5624 0.66662 0.0
C740 C 0.35383 0.59031 0.76262 0.0
C741 C 0.32163 0.59162 0.71734 0.0
C742 C 0.36481 0.60395 0.78806 0.0
C743 C 0.35553 0.63308 0.79597 0.0
C744 C 0.33322 0.60574 0.74478 0.0
C745 C 0.33453 0.64764 0.7778 0.0
C746 C 0.29887 0.60501 0.70047 0.0
C747 C 0.3235 0.5502 0.68386 0.0
N748 N 0.32412 0.63385 0.753 0.0
N749 N 0.33322 0.5648 0.70832 0.0
H750 H 0.64998 0.12323 0.07873 0.0
H751 H 0.64842 0.0289 0.92774 0.0
H752 H 0.57135 0.0778 0.04705 0.0
H753 H 0.72602 0.07089 0.96602 0.0
H754 H 0.61878 0.04719 0.96977 0.0
H755 H 0.67724 0.10494 0.03604 0.0
C756 C 0.63836 0.10955 0.06265 0.0
C757 C 0.60825 0.10225 0.06643 0.0
C758 C 0.64231 0.05233 0.96884 0.0
C759 C 0.6396 0.08072 0.01732 0.0
C760 C 0.6592 0.04198 0.94485 0.0
C761 C 0.68979 0.04829 0.94333 0.0
C762 C 0.65616 0.06918 0.99127 0.0
C763 C 0.70259 0.06527 0.96619 0.0
C764 C 0.65402 0.0989 0.03829 0.0
C765 C 0.5946 0.08383 0.04511 0.0
N766 N 0.68577 0.07505 0.98906 0.0
N767 N 0.61036 0.07374 0.02139 0.0
H768 H 0.67298 0.18589 0.69746 0.0
H769 H 0.70721 0.02833 0.77671 0.0
H770 H 0.65274 0.09837 0.66119 0.0
H771 H 0.72482 0.11367 0.81909 0.0
H772 H 0.68967 0.05481 0.73342 0.0
H773 H 0.69464 0.16112 0.74107 0.0
C774 C 0.67327 0.1615 0.69858 0.0
C775 C 0.6608 0.14415 0.67577 0.0
C776 C 0.69734 0.06792 0.75208 0.0
C777 C 0.68533 0.1158 0.72545 0.0
C778 C 0.70743 0.05275 0.77698 0.0
C779 C 0.71744 0.06876 0.80179 0.0
C780 C 0.69707 0.09953 0.75167 0.0
C781 C 0.71721 0.10042 0.80052 0.0
C782 C 0.68547 0.14742 0.72351 0.0
C783 C 0.66159 0.11267 0.67844 0.0
N784 N 0.70709 0.11483 0.77584 0.0
N785 N 0.67356 0.09959 0.70277 0.0
H786 H 0.14814 0.4628 0.05565 0.0
H787 H 0.14545 0.36351 0.9078 0.0
H788 H 0.22473 0.42019 0.01583 0.0
H789 H 0.06855 0.41341 0.93768 0.0
H790 H 0.17303 0.3812 0.95043 0.0
H791 H 0.11705 0.44276 0.01538 0.0
C792 C 0.1584 0.44923 0.03857 0.0
C793 C 0.18914 0.44329 0.0391 0.0
C794 C 0.15009 0.38827 0.94785 0.0
C795 C 0.15382 0.42029 0.99328 0.0
C796 C 0.13415 0.37787 0.92356 0.0
C797 C 0.10449 0.38677 0.91911 0.0
C798 C 0.13647 0.40792 0.96808 0.0
C799 C 0.09144 0.40613 0.94007 0.0
C800 C 0.14067 0.43786 0.01561 0.0
C801 C 0.20123 0.42561 0.01637 0.0
N802 N 0.10753 0.4161 0.96366 0.0
N803 N 0.1836 0.4148 0.99454 0.0
H804 H 0.7869 0.88148 0.31926 0.0
H805 H 0.88327 0.89626 0.17128 0.0
H806 H 0.81896 0.96506 0.28223 0.0
H807 H 0.84139 0.81273 0.19666 0.0
H808 H 0.86206 0.92043 0.21451 0.0
H809 H 0.80855 0.85441 0.27689 0.0
C810 C 0.79847 0.8941 0.30234 0.0
C811 C 0.80102 0.92559 0.30428 0.0
C812 C 0.85742 0.8968 0.21075 0.0
C813 C 0.82578 0.89495 0.25614 0.0
C814 C 0.86974 0.88291 0.18611 0.0
C815 C 0.86425 0.85238 0.18041 0.0
C816 C 0.83937 0.88013 0.23006 0.0
C817 C 0.84601 0.8364 0.20015 0.0
C818 C 0.81073 0.87868 0.27818 0.0
C819 C 0.8162 0.94083 0.28171 0.0
N820 N 0.83425 0.85045 0.2242 0.0
N821 N 0.82797 0.92539 0.25875 0.0
H822 H 0.28041 0.5386 0.4965 0.0
H823 H 0.4387 0.57924 0.42783 0.0
H824 H 0.36176 0.52938 0.54657 0.0
H825 H 0.35532 0.58165 0.38052 0.0
H826 H 0.41276 0.55771 0.47064 0.0
H827 H 0.3091 0.55104 0.45312 0.0
C828 C 0.30445 0.53926 0.49839 0.0
C829 C 0.31871 0.53348 0.52536 0.0
C830 C 0.40026 0.56277 0.45079 0.0
C831 C 0.35201 0.54789 0.47532 0.0
C832 C 0.41502 0.57495 0.42637 0.0
C833 C 0.39901 0.58261 0.40076 0.0
C834 C 0.36937 0.5582 0.44942 0.0
C835 C 0.36841 0.5767 0.40001 0.0
C836 C 0.3209 0.54626 0.47346 0.0
C837 C 0.34994 0.53394 0.52621 0.0
N838 N 0.35463 0.56502 0.42398 0.0
N839 N 0.36564 0.54143 0.50153 0.0
H840 H 0.18147 0.21385 0.37987 0.0
H841 H 0.33737 0.12601 0.39316 0.0
H842 H 0.22721 0.194 0.46154 0.0
H843 H 0.3002 0.15224 0.30908 0.0
H844 H 0.29549 0.1499 0.41788 0.0
H845 H 0.22328 0.1909 0.3527 0.0
C846 C 0.20021 0.20478 0.39207 0.0
C847 C 0.20071 0.20587 0.42307 0.0
C848 C 0.29637 0.15051 0.394 0.0
C849 C 0.24837 0.17958 0.39225 0.0
C850 C 0.32025 0.13664 0.37985 0.0
C851 C 0.32227 0.1369 0.34896 0.0
C852 C 0.27405 0.16483 0.37729 0.0
C853 C 0.29964 0.15164 0.33296 0.0
C854 C 0.22405 0.19171 0.37657 0.0
C855 C 0.22563 0.19376 0.4377 0.0
N856 N 0.27638 0.16493 0.34729 0.0
N857 N 0.24824 0.18116 0.42222 0.0
H858 H 0.11869 0.09337 0.64462 0.0
H859 H 0.03816 0.9326 0.64004 0.0
H860 H 0.08944 0.05236 0.5633 0.0
H861 H 0.06017 0.98136 0.7196 0.0
H862 H 0.05684 0.97526 0.61085 0.0
H863 H 0.09772 0.0513 0.67194 0.0
C864 C 0.10794 0.07539 0.6325 0.0
C865 C 0.10599 0.07627 0.60164 0.0
C866 C 0.05742 0.97653 0.63471 0.0
C867 C 0.08155 0.02794 0.63286 0.0
C868 C 0.0468 0.95222 0.65136 0.0
C869 C 0.04768 0.95332 0.68232 0.0
C870 C 0.06905 0.00194 0.64921 0.0
C871 C 0.05906 0.97935 0.69582 0.0
C872 C 0.09577 0.05141 0.64812 0.0
C873 C 0.09127 0.05261 0.58712 0.0
N874 N 0.06934 0.00246 0.67922 0.0
N875 N 0.07971 0.02927 0.60286 0.0
H876 H 0.21019 0.83802 0.80699 0.0
H877 H 0.28669 0.79298 0.96029 0.0
H878 H 0.17494 0.85965 0.893 0.0
H879 H 0.32911 0.77657 0.87628 0.0
H880 H 0.24438 0.81471 0.93488 0.0
H881 H 0.25263 0.81288 0.83084 0.0
C882 C 0.21133 0.83738 0.83086 0.0
C883 C 0.1891 0.85112 0.84806 0.0
C884 C 0.26286 0.80639 0.92187 0.0
C885 C 0.23744 0.82255 0.87536 0.0
C886 C 0.28716 0.79389 0.9364 0.0
C887 C 0.31169 0.78304 0.92042 0.0
C888 C 0.26283 0.80821 0.89097 0.0
C889 C 0.31072 0.78475 0.88948 0.0
C890 C 0.23559 0.82316 0.84442 0.0
C891 C 0.19178 0.84983 0.87886 0.0
N892 N 0.28667 0.79723 0.8757 0.0
N893 N 0.21545 0.83582 0.89146 0.0
H894 H 0.46489 0.06726 0.13722 0.0
H895 H 0.43582 0.88912 0.12981 0.0
H896 H 0.46947 0.00743 0.21229 0.0
H897 H 0.40895 0.94991 0.06026 0.0
H898 H 0.45515 0.93193 0.15763 0.0
H899 H 0.45073 0.02417 0.10614 0.0
C900 C 0.46308 0.04511 0.14713 0.0
C901 C 0.46814 0.04102 0.17746 0.0
C902 C 0.44514 0.93594 0.13623 0.0
C903 C 0.45223 0.99177 0.14211 0.0
C904 C 0.43429 0.91145 0.12022 0.0
C905 C 0.42065 0.91592 0.09269 0.0
C906 C 0.44254 0.96522 0.12462 0.0
C907 C 0.41897 0.94549 0.08157 0.0
C908 C 0.45493 0.02058 0.12942 0.0
C909 C 0.46552 0.01179 0.18911 0.0
N910 N 0.42975 0.96903 0.09758 0.0
N911 N 0.45777 0.98838 0.17145 0.0
H912 H 0.80367 0.33169 0.66819 0.0
H913 H 0.72067 0.30845 0.51362 0.0
H914 H 0.83122 0.37235 0.58614 0.0
H915 H 0.68438 0.27613 0.59597 0.0
H916 H 0.76248 0.32973 0.54024 0.0
H917 H 0.76122 0.30888 0.64253 0.0
C918 C 0.80087 0.3357 0.64476 0.0
C919 C 0.821 0.35402 0.62928 0.0
C920 C 0.74543 0.31803 0.5526 0.0
C921 C 0.77249 0.32815 0.59991 0.0
C922 C 0.72147 0.30574 0.53737 0.0
C923 C 0.69887 0.29042 0.55256 0.0
C924 C 0.7471 0.31499 0.58337 0.0
C925 C 0.70124 0.28783 0.58337 0.0
C926 C 0.77656 0.32283 0.6302 0.0
C927 C 0.8161 0.35873 0.59905 0.0
N928 N 0.725 0.29997 0.5978 0.0
N929 N 0.79242 0.34586 0.58539 0.0
H930 H 0.0078 0.45391 0.82706 0.0
H931 H 0.88982 0.58899 0.83792 0.0
H932 H 0.92885 0.46253 0.77319 0.0
H933 H 0.95009 0.56835 0.90947 0.0
H934 H 0.90979 0.5465 0.81038 0.0
H935 H 0.99238 0.49934 0.8545 0.0
C936 C 0.98734 0.46532 0.82098 0.0
C937 C 0.9695 0.45429 0.79794 0.0
C938 C 0.91871 0.5512 0.83211 0.0
C939 C 0.95207 0.5061 0.82876 0.0
C940 C 0.9072 0.57543 0.84793 0.0
C941 C 0.91789 0.58199 0.8763 0.0
C942 C 0.94127 0.53327 0.84456 0.0
C943 C 0.94117 0.56412 0.88767 0.0
C944 C 0.97856 0.49114 0.83664 0.0
C945 C 0.94322 0.46995 0.79095 0.0
N946 N 0.95201 0.54042 0.87181 0.0
N947 N 0.93541 0.49499 0.8062 0.0
H948 H 0.84127 0.70584 0.09999 0.0
H949 H 0.66543 0.67713 0.09816 0.0
H950 H 0.7852 0.71814 0.02344 0.0
H951 H 0.72351 0.63677 0.1631 0.0
H952 H 0.70861 0.70054 0.07494 0.0
H953 H 0.79762 0.68811 0.1277 0.0
C954 C 0.81981 0.705 0.08911 0.0
C955 C 0.81689 0.71317 0.05932 0.0
C956 C 0.71191 0.68666 0.09435 0.0
C957 C 0.76714 0.69334 0.09077 0.0
C958 C 0.68726 0.67347 0.10772 0.0
C959 C 0.69093 0.65487 0.13249 0.0
C960 C 0.74048 0.68143 0.10593 0.0
C961 C 0.71979 0.65065 0.14378 0.0
C962 C 0.795 0.69482 0.10486 0.0
C963 C 0.78858 0.71172 0.04626 0.0
N964 N 0.74352 0.66382 0.13039 0.0
N965 N 0.76486 0.70202 0.06205 0.0
H966 H 0.64439 0.4287 0.35157 0.0
H967 H 0.52122 0.55771 0.33381 0.0
H968 H 0.56238 0.4275 0.40122 0.0
H969 H 0.58539 0.53429 0.26674 0.0
H970 H 0.54023 0.51597 0.36442 0.0
H971 H 0.62716 0.47367 0.32586 0.0
C972 C 0.62266 0.43775 0.35698 0.0
C973 C 0.60461 0.42389 0.37827 0.0
C974 C 0.55011 0.52016 0.34302 0.0
C975 C 0.58502 0.47596 0.34924 0.0
C976 C 0.53941 0.54398 0.32566 0.0
C977 C 0.55163 0.54926 0.29765 0.0
C978 C 0.57348 0.50207 0.3324 0.0
C979 C 0.57509 0.53081 0.28806 0.0
C980 C 0.61294 0.46358 0.3424 0.0
C981 C 0.57709 0.43741 0.38501 0.0
N982 N 0.58527 0.50812 0.30541 0.0
N983 N 0.56805 0.46268 0.37045 0.0
H984 H 0.37925 0.33087 0.17554 0.0
H985 H 0.39419 0.15206 0.19571 0.0
H986 H 0.32939 0.26779 0.12262 0.0
H987 H 0.46052 0.21639 0.22325 0.0
H988 H 0.36358 0.19402 0.17679 0.0
H989 H 0.40249 0.28864 0.20143 0.0
C990 C 0.37293 0.30811 0.1696 0.0
C991 C 0.3525 0.30282 0.14678 0.0
C992 C 0.38475 0.19882 0.18721 0.0
C993 C 0.37918 0.25434 0.1762 0.0
C994 C 0.40208 0.17498 0.19812 0.0
C995 C 0.43001 0.18082 0.21072 0.0
C996 C 0.39533 0.22854 0.18948 0.0
C997 C 0.43929 0.21087 0.21331 0.0
C998 C 0.38633 0.28402 0.18427 0.0
C999 C 0.34538 0.27282 0.13981 0.0
N1000 N 0.42204 0.23356 0.20274 0.0
N1001 N 0.35876 0.24965 0.15443 0.0
H1002 H 0.90755 0.30771 0.74258 0.0
H1003 H 0.89276 0.19728 0.88141 0.0
H1004 H 0.95683 0.3176 0.82391 0.0
H1005 H 0.8338 0.19299 0.80619 0.0
H1006 H 0.91683 0.24105 0.85974 0.0
H1007 H 0.88041 0.26543 0.76461 0.0
C1008 C 0.91256 0.30114 0.76508 0.0
C1009 C 0.93459 0.31619 0.78137 0.0
C1010 C 0.89857 0.23064 0.84795 0.0
C1011 C 0.90382 0.26781 0.80656 0.0
C1012 C 0.88468 0.20568 0.86042 0.0
C1013 C 0.86105 0.19145 0.84572 0.0
C1014 C 0.88899 0.24153 0.82042 0.0
C1015 C 0.85211 0.20301 0.81819 0.0
C1016 C 0.89707 0.277 0.77762 0.0
C1017 C 0.94011 0.3067 0.81043 0.0
N1018 N 0.8661 0.22738 0.80641 0.0
N1019 N 0.92495 0.28309 0.82199 0.0
H1020 H 0.0951 0.64307 0.10552 0.0
H1021 H 0.94012 0.64187 0.01767 0.0
H1022 H 0.06001 0.5623 0.06557 0.0
H1023 H 0.98209 0.72088 0.05454 0.0
H1024 H 0.98246 0.61134 0.03524 0.0
H1025 H 0.05238 0.67108 0.08731 0.0
C1026 C 0.07825 0.63116 0.09303 0.0
C1027 C 0.08103 0.60024 0.08729 0.0
C1028 C 0.98226 0.63538 0.03938 0.0
C1029 C 0.03189 0.6324 0.06587 0.0
C1030 C 0.95812 0.65277 0.02944 0.0
C1031 C 0.95754 0.68399 0.03458 0.0
C1032 C 0.00575 0.64941 0.05461 0.0
C1033 C 0.98149 0.69695 0.04988 0.0
C1034 C 0.05387 0.64723 0.08244 0.0
C1035 C 0.05878 0.58617 0.07037 0.0
N1036 N 0.00446 0.67965 0.05931 0.0
N1037 N 0.03503 0.60236 0.06031 0.0
H1038 H 0.68701 0.79582 0.30976 0.0
H1039 H 0.53354 0.70717 0.29617 0.0
H1040 H 0.61234 0.80876 0.36839 0.0
H1041 H 0.61431 0.67402 0.25589 0.0
H1042 H 0.5617 0.74757 0.31905 0.0
H1043 H 0.66066 0.7536 0.28671 0.0
C1044 C 0.66521 0.78973 0.31794 0.0
C1045 C 0.65183 0.80612 0.34098 0.0
C1046 C 0.57336 0.73148 0.30526 0.0
C1047 C 0.62147 0.75817 0.31435 0.0
C1048 C 0.55725 0.70842 0.29201 0.0
C1049 C 0.57157 0.68714 0.27401 0.0
C1050 C 0.6041 0.73363 0.30036 0.0
C1051 C 0.6024 0.68991 0.26967 0.0
C1052 C 0.65017 0.7657 0.30468 0.0
C1053 C 0.62335 0.79735 0.35032 0.0
N1054 N 0.61768 0.71286 0.28268 0.0
N1055 N 0.60913 0.77413 0.33691 0.0
H1056 H 0.56628 0.35034 0.50217 0.0
H1057 H 0.42922 0.35708 0.6151 0.0
H1058 H 0.54624 0.28232 0.56728 0.0
H1059 H 0.43427 0.41414 0.53807 0.0
H1060 H 0.47705 0.33493 0.60201 0.0
H1061 H 0.52277 0.37945 0.51917 0.0
C1062 C 0.55297 0.34173 0.5202 0.0
C1063 C 0.55965 0.31376 0.53315 0.0
C1064 C 0.46779 0.35237 0.58797 0.0
C1065 C 0.5103 0.34676 0.55267 0.0
C1066 C 0.44037 0.36493 0.59537 0.0
C1067 C 0.42744 0.38717 0.57742 0.0
C1068 C 0.48259 0.36203 0.56239 0.0
C1069 C 0.44342 0.39705 0.55257 0.0
C1070 C 0.52813 0.35824 0.52978 0.0
C1071 C 0.54169 0.30357 0.55639 0.0
N1072 N 0.47009 0.38424 0.54563 0.0
N1073 N 0.51789 0.32 0.56532 0.0
H1074 H 0.13207 0.66603 0.6659 0.0
H1075 H 0.11947 0.8418 0.70399 0.0
H1076 H 0.1939 0.73176 0.63202 0.0
H1077 H 0.04702 0.77851 0.71141 0.0
H1078 H 0.15141 0.80085 0.68555 0.0
H1079 H 0.10532 0.70628 0.69131 0.0
C1080 C 0.14027 0.6889 0.66416 0.0
C1081 C 0.16517 0.69558 0.64673 0.0
C1082 C 0.12854 0.79603 0.69137 0.0
C1083 C 0.13444 0.74186 0.67551 0.0
C1084 C 0.11037 0.81931 0.70195 0.0
C1085 C 0.08048 0.81359 0.70893 0.0
C1086 C 0.11677 0.76688 0.68825 0.0
C1087 C 0.06982 0.78404 0.70595 0.0
C1088 C 0.12486 0.7119 0.67848 0.0
C1089 C 0.17457 0.72572 0.64496 0.0
N1090 N 0.08792 0.76185 0.69584 0.0
N1091 N 0.15913 0.74781 0.65912 0.0
H1092 H 0.43684 0.84843 0.95552 0.0
H1093 H 0.5993 0.84408 0.88286 0.0
H1094 H 0.47908 0.76888 0.91973 0.0
H1095 H 0.55702 0.92706 0.90989 0.0
H1096 H 0.55554 0.81638 0.89869 0.0
H1097 H 0.48056 0.87805 0.94089 0.0
C1098 C 0.45517 0.83722 0.94453 0.0
C1099 C 0.45426 0.8061 0.93889 0.0
C1100 C 0.5557 0.84065 0.9012 0.0
C1101 C 0.50422 0.83968 0.92235 0.0
C1102 C 0.58071 0.85651 0.89204 0.0
C1103 C 0.58172 0.88798 0.89475 0.0
C1104 C 0.53136 0.85626 0.91329 0.0
C1105 C 0.55721 0.90278 0.90751 0.0
C1106 C 0.48012 0.85411 0.93625 0.0
C1107 C 0.47869 0.79275 0.92465 0.0
N1108 N 0.53292 0.8868 0.91621 0.0
N1109 N 0.50258 0.80958 0.91696 0.0
H1110 H 0.95841 0.06122 0.41124 0.0
H1111 H 0.03077 0.22294 0.44154 0.0
H1112 H 0.91571 0.14677 0.39431 0.0
H1113 H 0.07871 0.14029 0.45908 0.0
H1114 H 0.98804 0.194 0.42633 0.0
H1115 H 1.00185 0.08821 0.43102 0.0
C1116 C 0.95808 0.08563 0.41185 0.0
C1117 C 0.93346 0.10177 0.40082 0.0
C1118 C 0.00778 0.18198 0.43348 0.0
C1119 C 0.983 0.13266 0.42324 0.0
C1120 C 0.03242 0.19858 0.44222 0.0
C1121 C 0.05866 0.1841 0.45146 0.0
C1122 C 0.00903 0.15039 0.43377 0.0
C1123 C 0.05901 0.15241 0.45201 0.0
C1124 C 0.98292 0.10098 0.423 0.0
C1125 C 0.93433 0.13334 0.402 0.0
N1126 N 0.03455 0.13654 0.44313 0.0
N1127 N 0.95862 0.14764 0.4129 0.0
loop_
_geom_bond_atom_site_label_1
_geom_bond_atom_site_label_2
_geom_bond_distance
_geom_bond_site_symmetry_2
_ccdc_geom_bond_type
Dy0 O3 2.307 . S
Dy0 O5 2.395 . S
Dy0 O6 2.379 . S
Dy0 O8 2.339 . S
Dy0 O10 2.298 . S
Dy0 O14 2.275 . S
Dy0 C22 2.738 . S
Dy1 O4 2.298 . S
Dy1 O7 2.275 . S
Dy1 O9 2.307 . S
Dy1 O11 2.395 . S
Dy1 O12 2.379 . S
Dy1 O15 2.339 . S
Dy1 C31 2.738 . S
C2 O14 1.254 . S
C2 O15 1.257 . S
O3 Dy0 2.307 . S
O3 C13 1.266 . S
O4 Dy1 2.298 . S
O4 C13 1.236 . S
O5 Dy0 2.395 . S
O5 C22 1.255 . S
O6 Dy0 2.379 . S
O6 C22 1.249 . S
O7 Dy1 2.275 . S
O7 C23 1.254 . S
O8 Dy0 2.339 . S
O8 C23 1.257 . S
O9 Dy1 2.307 . S
O9 C24 1.266 . S
O10 Dy0 2.298 . S
O10 C24 1.236 . S
O11 Dy1 2.395 . S
O11 C31 1.255 . S
O12 Dy1 2.379 . S
O12 C31 1.249 . S
C13 O3 1.266 . S
C13 O4 1.236 . S
O14 Dy0 2.275 . S
O14 C2 1.254 . S
O15 Dy1 2.339 . S
O15 C2 1.257 . S
C16 C19 1.344 . S
C16 C20 1.328 . S
C16 C22 1.516 . S
C17 C18 1.304 . S
C17 C21 1.323 . S
C18 C17 1.304 . S
C18 C19 1.371 . S
C18 H32 0.930 . S
C19 C16 1.344 . S
C19 C18 1.371 . S
C19 H33 0.931 . S
C20 C16 1.328 . S
C20 C21 1.433 . S
C20 H34 0.931 . S
C21 C17 1.323 . S
C21 C20 1.433 . S
C21 H35 0.933 . S
C22 Dy0 2.738 . S
C22 O5 1.255 . S
C22 O6 1.249 . S
C22 C16 1.516 . S
C23 O7 1.254 . S
C23 O8 1.257 . S
C24 O9 1.266 . S
C24 O10 1.236 . S
C25 C28 1.344 . S
C25 C29 1.328 . S
C25 C31 1.516 . S
C26 C27 1.304 . S
C26 C30 1.323 . S
C27 C26 1.304 . S
C27 C28 1.371 . S
C27 H36 0.930 . S
C28 C25 1.344 . S
C28 C27 1.371 . S
C28 H37 0.931 . S
C29 C25 1.328 . S
C29 C30 1.433 . S
C29 H38 0.931 . S
C30 C26 1.323 . S
C30 C29 1.433 . S
C30 H39 0.933 . S
C31 Dy1 2.738 . S
C31 O11 1.255 . S
C31 O12 1.249 . S
C31 C25 1.516 . S
H32 C18 0.930 . S
H33 C19 0.931 . S
H34 C20 0.931 . S
H35 C21 0.933 . S
H36 C27 0.930 . S
H37 C28 0.931 . S
H38 C29 0.931 . S
H39 C30 0.933 . S
Dy40 O43 2.307 . S
Dy40 O45 2.395 . S
Dy40 O46 2.379 . S
Dy40 O48 2.339 . S
Dy40 O50 2.298 . S
Dy40 O54 2.275 . S
Dy40 C62 2.738 . S
Dy41 O44 2.298 1_655 S
Dy41 O47 2.275 . S
Dy41 O49 2.307 . S
Dy41 O51 2.395 . S
Dy41 O52 2.379 . S
Dy41 O55 2.339 1_655 S
Dy41 C71 2.738 . S
C42 O54 1.254 . S
C42 O55 1.257 . S
O43 Dy40 2.307 . S
O43 C53 1.266 . S
O44 Dy41 2.298 1_455 S
O44 C53 1.236 . S
O45 Dy40 2.395 . S
O45 C62 1.255 . S
O46 Dy40 2.379 . S
O46 C62 1.249 . S
O47 Dy41 2.275 . S
O47 C63 1.254 . S
O48 Dy40 2.339 . S
O48 C63 1.257 1_455 S
O49 Dy41 2.307 . S
O49 C64 1.266 1_655 S
O50 Dy40 2.298 . S
O50 C64 1.236 . S
O51 Dy41 2.395 . S
O51 C71 1.255 . S
O52 Dy41 2.379 . S
O52 C71 1.249 . S
C53 O43 1.266 . S
C53 O44 1.236 . S
O54 Dy40 2.275 . S
O54 C42 1.254 . S
O55 Dy41 2.339 1_455 S
O55 C42 1.257 . S
C56 C59 1.344 . S
C56 C60 1.328 . S
C56 C62 1.516 . S
C57 C58 1.304 . S
C57 C61 1.323 . S
C58 C57 1.304 . S
C58 C59 1.371 . S
C58 H72 0.930 . S
C59 C56 1.344 . S
C59 C58 1.371 . S
C59 H73 0.931 . S
C60 C56 1.328 . S
C60 C61 1.433 . S
C60 H74 0.931 . S
C61 C57 1.323 . S
C61 C60 1.433 . S
C61 H75 0.933 . S
C62 Dy40 2.738 . S
C62 O45 1.255 . S
C62 O46 1.249 . S
C62 C56 1.516 . S
C63 O47 1.254 . S
C63 O48 1.257 1_655 S
C64 O49 1.266 1_455 S
C64 O50 1.236 . S
C65 C68 1.344 . S
C65 C69 1.328 . S
C65 C71 1.516 . S
C66 C67 1.304 . S
C66 C70 1.323 . S
C67 C66 1.304 . S
C67 C68 1.371 . S
C67 H76 0.930 . S
C68 C65 1.344 . S
C68 C67 1.371 . S
C68 H77 0.931 . S
C69 C65 1.328 . S
C69 C70 1.433 . S
C69 H78 0.931 . S
C70 C66 1.323 . S
C70 C69 1.433 . S
C70 H79 0.933 . S
C71 Dy41 2.738 . S
C71 O51 1.255 . S
C71 O52 1.249 . S
C71 C65 1.516 . S
H72 C58 0.930 . S
H73 C59 0.931 . S
H74 C60 0.931 . S
H75 C61 0.933 . S
H76 C67 0.930 . S
H77 C68 0.931 . S
H78 C69 0.931 . S
H79 C70 0.933 . S
Dy80 O83 2.307 . S
Dy80 O85 2.395 . S
Dy80 O86 2.379 . S
Dy80 O88 2.339 . S
Dy80 O90 2.298 . S
Dy80 O94 2.275 . S
Dy80 C102 2.738 . S
Dy81 O84 2.298 . S
Dy81 O87 2.275 . S
Dy81 O89 2.307 . S
Dy81 O91 2.395 1_556 S
Dy81 O92 2.379 1_556 S
Dy81 O95 2.339 . S
Dy81 C111 2.738 1_556 S
C82 O94 1.254 . S
C82 O95 1.257 . S
O83 Dy80 2.307 . S
O83 C93 1.266 . S
O84 Dy81 2.298 . S
O84 C93 1.236 . S
O85 Dy80 2.395 . S
O85 C102 1.255 . S
O86 Dy80 2.379 . S
O86 C102 1.249 . S
O87 Dy81 2.275 . S
O87 C103 1.254 . S
O88 Dy80 2.339 . S
O88 C103 1.257 . S
O89 Dy81 2.307 . S
O89 C104 1.266 . S
O90 Dy80 2.298 . S
O90 C104 1.236 . S
O91 Dy81 2.395 1_554 S
O91 C111 1.255 . S
O92 Dy81 2.379 1_554 S
O92 C111 1.249 . S
C93 O83 1.266 . S
C93 O84 1.236 . S
O94 Dy80 2.275 . S
O94 C82 1.254 . S
O95 Dy81 2.339 . S
O95 C82 1.257 . S
C96 C99 1.344 . S
C96 C100 1.328 . S
C96 C102 1.516 . S
C97 C98 1.304 . S
C97 C101 1.323 . S
C98 C97 1.304 . S
C98 C99 1.371 . S
C98 H112 0.930 . S
C99 C96 1.344 . S
C99 C98 1.371 . S
C99 H113 0.931 . S
C100 C96 1.328 . S
C100 C101 1.433 . S
C100 H114 0.931 . S
C101 C97 1.323 . S
C101 C100 1.433 . S
C101 H115 0.933 . S
C102 Dy80 2.738 . S
C102 O85 1.255 . S
C102 O86 1.249 . S
C102 C96 1.516 . S
C103 O87 1.254 . S
C103 O88 1.257 . S
C104 O89 1.266 . S
C104 O90 1.236 . S
C105 C108 1.344 . S
C105 C109 1.328 . S
C105 C111 1.516 . S
C106 C107 1.304 . S
C106 C110 1.323 . S
C107 C106 1.304 . S
C107 C108 1.371 . S
C107 H116 0.930 . S
C108 C105 1.344 . S
C108 C107 1.371 . S
C108 H117 0.931 . S
C109 C105 1.328 . S
C109 C110 1.433 . S
C109 H118 0.931 . S
C110 C106 1.323 . S
C110 C109 1.433 . S
C110 H119 0.933 . S
C111 Dy81 2.738 1_554 S
C111 O91 1.255 . S
C111 O92 1.249 . S
C111 C105 1.516 . S
H112 C98 0.930 . S
H113 C99 0.931 . S
H114 C100 0.931 . S
H115 C101 0.933 . S
H116 C107 0.930 . S
H117 C108 0.931 . S
H118 C109 0.931 . S
H119 C110 0.933 . S
Dy120 O123 2.307 . S
Dy120 O125 2.395 . S
Dy120 O126 2.379 . S
Dy120 O128 2.339 . S
Dy120 O130 2.298 . S
Dy120 O134 2.275 . S
Dy120 C142 2.738 . S
Dy121 O124 2.298 . S
Dy121 O127 2.275 . S
Dy121 O129 2.307 . S
Dy121 O131 2.395 . S
Dy121 O132 2.379 . S
Dy121 O135 2.339 . S
Dy121 C151 2.738 . S
C122 O134 1.254 . S
C122 O135 1.257 . S
O123 Dy120 2.307 . S
O123 C133 1.266 . S
O124 Dy121 2.298 . S
O124 C133 1.236 . S
O125 Dy120 2.395 . S
O125 C142 1.255 . S
O126 Dy120 2.379 . S
O126 C142 1.249 . S
O127 Dy121 2.275 . S
O127 C143 1.254 . S
O128 Dy120 2.339 . S
O128 C143 1.257 . S
O129 Dy121 2.307 . S
O129 C144 1.266 . S
O130 Dy120 2.298 . S
O130 C144 1.236 . S
O131 Dy121 2.395 . S
O131 C151 1.255 . S
O132 Dy121 2.379 . S
O132 C151 1.249 . S
C133 O123 1.266 . S
C133 O124 1.236 . S
O134 Dy120 2.275 . S
O134 C122 1.254 . S
O135 Dy121 2.339 . S
O135 C122 1.257 . S
C136 C139 1.344 . S
C136 C140 1.328 . S
C136 C142 1.516 . S
C137 C138 1.304 . S
C137 C141 1.323 . S
C138 C137 1.304 . S
C138 C139 1.371 . S
C138 H152 0.930 . S
C139 C136 1.344 . S
C139 C138 1.371 . S
C139 H153 0.931 . S
C140 C136 1.328 . S
C140 C141 1.433 . S
C140 H154 0.931 . S
C141 C137 1.323 . S
C141 C140 1.433 . S
C141 H155 0.933 . S
C142 Dy120 2.738 . S
C142 O125 1.255 . S
C142 O126 1.249 . S
C142 C136 1.516 . S
C143 O127 1.254 . S
C143 O128 1.257 . S
C144 O129 1.266 . S
C144 O130 1.236 . S
C145 C148 1.344 . S
C145 C149 1.328 . S
C145 C151 1.516 . S
C146 C147 1.304 . S
C146 C150 1.323 . S
C147 C146 1.304 . S
C147 C148 1.371 . S
C147 H156 0.930 . S
C148 C145 1.344 . S
C148 C147 1.371 . S
C148 H157 0.931 . S
C149 C145 1.328 . S
C149 C150 1.433 . S
C149 H158 0.931 . S
C150 C146 1.323 . S
C150 C149 1.433 . S
C150 H159 0.933 . S
C151 Dy121 2.738 . S
C151 O131 1.255 . S
C151 O132 1.249 . S
C151 C145 1.516 . S
H152 C138 0.930 . S
H153 C139 0.931 . S
H154 C140 0.931 . S
H155 C141 0.933 . S
H156 C147 0.930 . S
H157 C148 0.931 . S
H158 C149 0.931 . S
H159 C150 0.933 . S
Dy160 O163 2.307 . S
Dy160 O165 2.395 . S
Dy160 O166 2.379 . S
Dy160 O168 2.339 . S
Dy160 O170 2.298 . S
Dy160 O174 2.275 . S
Dy160 C182 2.738 . S
Dy161 O164 2.298 . S
Dy161 O167 2.275 . S
Dy161 O169 2.307 . S
Dy161 O171 2.395 . S
Dy161 O172 2.379 . S
Dy161 O175 2.339 . S
Dy161 C191 2.738 . S
C162 O174 1.254 . S
C162 O175 1.257 . S
O163 Dy160 2.307 . S
O163 C173 1.266 . S
O164 Dy161 2.298 . S
O164 C173 1.236 . S
O165 Dy160 2.395 . S
O165 C182 1.255 . S
O166 Dy160 2.379 . S
O166 C182 1.249 . S
O167 Dy161 2.275 . S
O167 C183 1.254 . S
O168 Dy160 2.339 . S
O168 C183 1.257 . S
O169 Dy161 2.307 . S
O169 C184 1.266 . S
O170 Dy160 2.298 . S
O170 C184 1.236 . S
O171 Dy161 2.395 . S
O171 C191 1.255 . S
O172 Dy161 2.379 . S
O172 C191 1.249 . S
C173 O163 1.266 . S
C173 O164 1.236 . S
O174 Dy160 2.275 . S
O174 C162 1.254 . S
O175 Dy161 2.339 . S
O175 C162 1.257 . S
C176 C179 1.344 . S
C176 C180 1.328 . S
C176 C182 1.516 . S
C177 C178 1.304 . S
C177 C181 1.323 . S
C178 C177 1.304 . S
C178 C179 1.371 . S
C178 H192 0.930 . S
C179 C176 1.344 . S
C179 C178 1.371 . S
C179 H193 0.931 . S
C180 C176 1.328 . S
C180 C181 1.433 . S
C180 H194 0.931 . S
C181 C177 1.323 . S
C181 C180 1.433 . S
C181 H195 0.933 . S
C182 Dy160 2.738 . S
C182 O165 1.255 . S
C182 O166 1.249 . S
C182 C176 1.516 . S
C183 O167 1.254 . S
C183 O168 1.257 . S
C184 O169 1.266 . S
C184 O170 1.236 . S
C185 C188 1.344 . S
C185 C189 1.328 . S
C185 C191 1.516 . S
C186 C187 1.304 . S
C186 C190 1.323 . S
C187 C186 1.304 . S
C187 C188 1.371 . S
C187 H196 0.930 . S
C188 C185 1.344 . S
C188 C187 1.371 . S
C188 H197 0.931 . S
C189 C185 1.328 . S
C189 C190 1.433 . S
C189 H198 0.931 . S
C190 C186 1.323 . S
C190 C189 1.433 . S
C190 H199 0.933 . S
C191 Dy161 2.738 . S
C191 O171 1.255 . S
C191 O172 1.249 . S
C191 C185 1.516 . S
H192 C178 0.930 . S
H193 C179 0.931 . S
H194 C180 0.931 . S
H195 C181 0.933 . S
H196 C187 0.930 . S
H197 C188 0.931 . S
H198 C189 0.931 . S
H199 C190 0.933 . S
Dy200 O203 2.307 . S
Dy200 O205 2.395 . S
Dy200 O206 2.379 . S
Dy200 O208 2.339 . S
Dy200 O210 2.298 . S
Dy200 O214 2.275 . S
Dy200 C222 2.738 . S
Dy201 O204 2.298 1_455 S
Dy201 O207 2.275 . S
Dy201 O209 2.307 . S
Dy201 O211 2.395 . S
Dy201 O212 2.379 . S
Dy201 O215 2.339 1_455 S
Dy201 C231 2.738 . S
C202 O214 1.254 . S
C202 O215 1.257 . S
O203 Dy200 2.307 . S
O203 C213 1.266 . S
O204 Dy201 2.298 1_655 S
O204 C213 1.236 . S
O205 Dy200 2.395 . S
O205 C222 1.255 . S
O206 Dy200 2.379 . S
O206 C222 1.249 . S
O207 Dy201 2.275 . S
O207 C223 1.254 . S
O208 Dy200 2.339 . S
O208 C223 1.257 1_655 S
O209 Dy201 2.307 . S
O209 C224 1.266 1_455 S
O210 Dy200 2.298 . S
O210 C224 1.236 . S
O211 Dy201 2.395 . S
O211 C231 1.255 . S
O212 Dy201 2.379 . S
O212 C231 1.249 . S
C213 O203 1.266 . S
C213 O204 1.236 . S
O214 Dy200 2.275 . S
O214 C202 1.254 . S
O215 Dy201 2.339 1_655 S
O215 C202 1.257 . S
C216 C219 1.344 . S
C216 C220 1.328 . S
C216 C222 1.516 . S
C217 C218 1.304 . S
C217 C221 1.323 . S
C218 C217 1.304 . S
C218 C219 1.371 . S
C218 H232 0.930 . S
C219 C216 1.344 . S
C219 C218 1.371 . S
C219 H233 0.931 . S
C220 C216 1.328 . S
C220 C221 1.433 . S
C220 H234 0.931 . S
C221 C217 1.323 . S
C221 C220 1.433 . S
C221 H235 0.933 . S
C222 Dy200 2.738 . S
C222 O205 1.255 . S
C222 O206 1.249 . S
C222 C216 1.516 . S
C223 O207 1.254 . S
C223 O208 1.257 1_455 S
C224 O209 1.266 1_655 S
C224 O210 1.236 . S
C225 C228 1.344 . S
C225 C229 1.328 . S
C225 C231 1.516 . S
C226 C227 1.304 . S
C226 C230 1.323 . S
C227 C226 1.304 . S
C227 C228 1.371 . S
C227 H236 0.930 . S
C228 C225 1.344 . S
C228 C227 1.371 . S
C228 H237 0.931 . S
C229 C225 1.328 . S
C229 C230 1.433 . S
C229 H238 0.931 . S
C230 C226 1.323 . S
C230 C229 1.433 . S
C230 H239 0.933 . S
C231 Dy201 2.738 . S
C231 O211 1.255 . S
C231 O212 1.249 . S
C231 C225 1.516 . S
H232 C218 0.930 . S
H233 C219 0.931 . S
H234 C220 0.931 . S
H235 C221 0.933 . S
H236 C227 0.930 . S
H237 C228 0.931 . S
H238 C229 0.931 . S
H239 C230 0.933 . S
Dy240 O243 2.307 1_556 S
Dy240 O245 2.395 . S
Dy240 O246 2.379 . S
Dy240 O248 2.339 . S
Dy240 O250 2.298 . S
Dy240 O254 2.275 1_556 S
Dy240 C262 2.738 . S
Dy241 O244 2.298 . S
Dy241 O247 2.304 . S
Dy241 O249 2.307 1_554 S
Dy241 O251 2.395 . S
Dy241 O252 2.379 . S
Dy241 O255 2.339 . S
Dy241 C271 2.738 . S
C242 O254 1.254 . S
C242 O255 1.257 . S
O243 Dy240 2.307 1_554 S
O243 C253 1.266 . S
O244 Dy241 2.298 . S
O244 C253 1.236 . S
O245 Dy240 2.395 . S
O245 C262 1.255 . S
O246 Dy240 2.379 . S
O246 C262 1.249 . S
O247 Dy241 2.304 . S
O247 C263 1.227 1_554 S
O248 Dy240 2.339 . S
O248 C263 1.257 . S
O249 Dy241 2.307 1_556 S
O249 C264 1.266 . S
O250 Dy240 2.298 . S
O250 C264 1.236 . S
O251 Dy241 2.395 . S
O251 C271 1.255 . S
O252 Dy241 2.379 . S
O252 C271 1.249 . S
C253 O243 1.266 . S
C253 O244 1.236 . S
O254 Dy240 2.275 1_554 S
O254 C242 1.254 . S
O255 Dy241 2.339 . S
O255 C242 1.257 . S
C256 C259 1.344 . S
C256 C260 1.328 . S
C256 C262 1.516 . S
C257 C258 1.304 . S
C257 C261 1.323 . S
C258 C257 1.304 . S
C258 C259 1.371 . S
C258 H272 0.930 . S
C259 C256 1.344 . S
C259 C258 1.371 . S
C259 H273 0.931 . S
C260 C256 1.328 . S
C260 C261 1.433 . S
C260 H274 0.931 . S
C261 C257 1.323 . S
C261 C260 1.433 . S
C261 H275 0.933 . S
C262 Dy240 2.738 . S
C262 O245 1.255 . S
C262 O246 1.249 . S
C262 C256 1.516 . S
C263 O247 1.227 1_556 S
C263 O248 1.257 . S
C264 O249 1.266 . S
C264 O250 1.236 . S
C265 C268 1.344 . S
C265 C269 1.328 . S
C265 C271 1.516 . S
C266 C267 1.304 . S
C266 C270 1.323 . S
C267 C266 1.304 . S
C267 C268 1.371 . S
C267 H276 0.930 . S
C268 C265 1.344 . S
C268 C267 1.371 . S
C268 H277 0.931 . S
C269 C265 1.328 . S
C269 C270 1.433 . S
C269 H278 0.931 . S
C270 C266 1.323 . S
C270 C269 1.433 . S
C270 H279 0.933 . S
C271 Dy241 2.738 . S
C271 O251 1.255 . S
C271 O252 1.249 . S
C271 C265 1.516 . S
H272 C258 0.930 . S
H273 C259 0.931 . S
H274 C260 0.931 . S
H275 C261 0.933 . S
H276 C267 0.930 . S
H277 C268 0.931 . S
H278 C269 0.931 . S
H279 C270 0.933 . S
Dy280 O283 2.307 . S
Dy280 O285 2.395 . S
Dy280 O286 2.379 . S
Dy280 O288 2.339 . S
Dy280 O290 2.298 . S
Dy280 O294 2.275 . S
Dy280 C302 2.738 . S
Dy281 O284 2.298 . S
Dy281 O287 2.275 . S
Dy281 O289 2.307 . S
Dy281 O291 2.395 . S
Dy281 O292 2.379 . S
Dy281 O295 2.339 . S
Dy281 C311 2.738 . S
C282 O294 1.254 . S
C282 O295 1.257 . S
O283 Dy280 2.307 . S
O283 C293 1.266 . S
O284 Dy281 2.298 . S
O284 C293 1.236 . S
O285 Dy280 2.395 . S
O285 C302 1.255 . S
O286 Dy280 2.379 . S
O286 C302 1.249 . S
O287 Dy281 2.275 . S
O287 C303 1.254 . S
O288 Dy280 2.339 . S
O288 C303 1.257 . S
O289 Dy281 2.307 . S
O289 C304 1.266 . S
O290 Dy280 2.298 . S
O290 C304 1.236 . S
O291 Dy281 2.395 . S
O291 C311 1.255 . S
O292 Dy281 2.379 . S
O292 C311 1.249 . S
C293 O283 1.266 . S
C293 O284 1.236 . S
O294 Dy280 2.275 . S
O294 C282 1.254 . S
O295 Dy281 2.339 . S
O295 C282 1.257 . S
C296 C299 1.344 . S
C296 C300 1.328 . S
C296 C302 1.516 . S
C297 C298 1.304 . S
C297 C301 1.323 . S
C298 C297 1.304 . S
C298 C299 1.371 . S
C298 H312 0.930 . S
C299 C296 1.344 . S
C299 C298 1.371 . S
C299 H313 0.931 . S
C300 C296 1.328 . S
C300 C301 1.433 . S
C300 H314 0.931 . S
C301 C297 1.323 . S
C301 C300 1.433 . S
C301 H315 0.933 . S
C302 Dy280 2.738 . S
C302 O285 1.255 . S
C302 O286 1.249 . S
C302 C296 1.516 . S
C303 O287 1.254 . S
C303 O288 1.257 . S
C304 O289 1.266 . S
C304 O290 1.236 . S
C305 C308 1.344 . S
C305 C309 1.328 . S
C305 C311 1.516 . S
C306 C307 1.304 . S
C306 C310 1.323 . S
C307 C306 1.304 . S
C307 C308 1.371 . S
C307 H316 0.930 . S
C308 C305 1.344 . S
C308 C307 1.371 . S
C308 H317 0.931 . S
C309 C305 1.328 . S
C309 C310 1.433 . S
C309 H318 0.931 . S
C310 C306 1.323 . S
C310 C309 1.433 . S
C310 H319 0.933 . S
C311 Dy281 2.738 . S
C311 O291 1.255 . S
C311 O292 1.249 . S
C311 C305 1.516 . S
H312 C298 0.930 . S
H313 C299 0.931 . S
H314 C300 0.931 . S
H315 C301 0.933 . S
H316 C307 0.930 . S
H317 C308 0.931 . S
H318 C309 0.931 . S
H319 C310 0.933 . S
Dy320 O323 2.307 . S
Dy320 O325 2.395 . S
Dy320 O326 2.379 . S
Dy320 O328 2.339 . S
Dy320 O330 2.298 . S
Dy320 O334 2.275 . S
Dy320 C342 2.738 . S
Dy321 O324 2.298 . S
Dy321 O327 2.275 . S
Dy321 O329 2.307 . S
Dy321 O331 2.395 . S
Dy321 O332 2.379 . S
Dy321 O335 2.339 . S
Dy321 C351 2.738 . S
C322 O334 1.254 . S
C322 O335 1.257 . S
O323 Dy320 2.307 . S
O323 C333 1.266 . S
O324 Dy321 2.298 . S
O324 C333 1.236 . S
O325 Dy320 2.395 . S
O325 C342 1.255 . S
O326 Dy320 2.379 . S
O326 C342 1.249 . S
O327 Dy321 2.275 . S
O327 C343 1.254 . S
O328 Dy320 2.339 . S
O328 C343 1.257 . S
O329 Dy321 2.307 . S
O329 C344 1.266 . S
O330 Dy320 2.298 . S
O330 C344 1.236 . S
O331 Dy321 2.395 . S
O331 C351 1.255 . S
O332 Dy321 2.379 . S
O332 C351 1.249 . S
C333 O323 1.266 . S
C333 O324 1.236 . S
O334 Dy320 2.275 . S
O334 C322 1.254 . S
O335 Dy321 2.339 . S
O335 C322 1.257 . S
C336 C339 1.344 . S
C336 C340 1.328 . S
C336 C342 1.516 . S
C337 C338 1.304 . S
C337 C341 1.323 . S
C338 C337 1.304 . S
C338 C339 1.371 . S
C338 H352 0.930 . S
C339 C336 1.344 . S
C339 C338 1.371 . S
C339 H353 0.931 . S
C340 C336 1.328 . S
C340 C341 1.433 . S
C340 H354 0.931 . S
C341 C337 1.323 . S
C341 C340 1.433 . S
C341 H355 0.933 . S
C342 Dy320 2.738 . S
C342 O325 1.255 . S
C342 O326 1.249 . S
C342 C336 1.516 . S
C343 O327 1.254 . S
C343 O328 1.257 . S
C344 O329 1.266 . S
C344 O330 1.236 . S
C345 C348 1.344 . S
C345 C349 1.328 . S
C345 C351 1.516 . S
C346 C347 1.304 . S
C346 C350 1.323 . S
C347 C346 1.304 . S
C347 C348 1.371 . S
C347 H356 0.930 . S
C348 C345 1.344 . S
C348 C347 1.371 . S
C348 H357 0.931 . S
C349 C345 1.328 . S
C349 C350 1.433 . S
C349 H358 0.931 . S
C350 C346 1.323 . S
C350 C349 1.433 . S
C350 H359 0.933 . S
C351 Dy321 2.738 . S
C351 O331 1.255 . S
C351 O332 1.249 . S
C351 C345 1.516 . S
H352 C338 0.930 . S
H353 C339 0.931 . S
H354 C340 0.931 . S
H355 C341 0.933 . S
H356 C347 0.930 . S
H357 C348 0.931 . S
H358 C349 0.931 . S
H359 C350 0.933 . S
Dy360 O363 2.307 1_565 S
Dy360 O365 2.395 . S
Dy360 O366 2.379 . S
Dy360 O368 2.339 . S
Dy360 O370 2.298 . S
Dy360 O374 2.275 1_565 S
Dy360 C382 2.738 . S
Dy361 O364 2.298 . S
Dy361 O367 2.275 . S
Dy361 O369 2.307 . S
Dy361 O371 2.395 . S
Dy361 O372 2.379 . S
Dy361 O375 2.339 . S
Dy361 C391 2.738 . S
C362 O374 1.254 . S
C362 O375 1.257 . S
O363 Dy360 2.307 1_545 S
O363 C373 1.266 . S
O364 Dy361 2.298 . S
O364 C373 1.236 . S
O365 Dy360 2.395 . S
O365 C382 1.255 . S
O366 Dy360 2.379 . S
O366 C382 1.249 . S
O367 Dy361 2.275 . S
O367 C383 1.254 1_545 S
O368 Dy360 2.339 . S
O368 C383 1.257 . S
O369 Dy361 2.307 . S
O369 C384 1.266 1_545 S
O370 Dy360 2.298 . S
O370 C384 1.236 . S
O371 Dy361 2.395 . S
O371 C391 1.255 . S
O372 Dy361 2.379 . S
O372 C391 1.249 . S
C373 O363 1.266 . S
C373 O364 1.236 . S
O374 Dy360 2.275 1_545 S
O374 C362 1.254 . S
O375 Dy361 2.339 . S
O375 C362 1.257 . S
C376 C379 1.344 . S
C376 C380 1.328 . S
C376 C382 1.516 . S
C377 C378 1.304 . S
C377 C381 1.323 . S
C378 C377 1.304 . S
C378 C379 1.371 . S
C378 H392 0.930 . S
C379 C376 1.344 . S
C379 C378 1.371 . S
C379 H393 0.931 . S
C380 C376 1.328 . S
C380 C381 1.433 . S
C380 H394 0.931 . S
C381 C377 1.323 . S
C381 C380 1.433 . S
C381 H395 0.933 . S
C382 Dy360 2.738 . S
C382 O365 1.255 . S
C382 O366 1.249 . S
C382 C376 1.516 . S
C383 O367 1.254 1_565 S
C383 O368 1.257 . S
C384 O369 1.266 1_565 S
C384 O370 1.236 . S
C385 C388 1.344 . S
C385 C389 1.328 . S
C385 C391 1.516 . S
C386 C387 1.304 . S
C386 C390 1.323 . S
C387 C386 1.304 . S
C387 C388 1.371 . S
C387 H396 0.930 . S
C388 C385 1.344 . S
C388 C387 1.371 . S
C388 H397 0.931 . S
C389 C385 1.328 . S
C389 C390 1.433 . S
C389 H398 0.931 . S
C390 C386 1.323 . S
C390 C389 1.433 . S
C390 H399 0.933 . S
C391 Dy361 2.738 . S
C391 O371 1.255 . S
C391 O372 1.249 . S
C391 C385 1.516 . S
H392 C378 0.930 . S
H393 C379 0.931 . S
H394 C380 0.931 . S
H395 C381 0.933 . S
H396 C387 0.930 . S
H397 C388 0.931 . S
H398 C389 0.931 . S
H399 C390 0.933 . S
Dy400 O403 2.307 . S
Dy400 O405 2.395 . S
Dy400 O406 2.379 . S
Dy400 O408 2.339 . S
Dy400 O410 2.298 . S
Dy400 O414 2.275 . S
Dy400 C422 2.738 . S
Dy401 O404 2.298 1_545 S
Dy401 O407 2.275 . S
Dy401 O409 2.307 . S
Dy401 O411 2.395 . S
Dy401 O412 2.379 . S
Dy401 O415 2.339 1_545 S
Dy401 C431 2.738 . S
C402 O414 1.254 . S
C402 O415 1.257 . S
O403 Dy400 2.307 . S
O403 C413 1.266 . S
O404 Dy401 2.298 1_565 S
O404 C413 1.236 . S
O405 Dy400 2.395 . S
O405 C422 1.255 . S
O406 Dy400 2.379 . S
O406 C422 1.249 . S
O407 Dy401 2.275 . S
O407 C423 1.254 . S
O408 Dy400 2.339 . S
O408 C423 1.257 1_565 S
O409 Dy401 2.307 . S
O409 C424 1.266 1_545 S
O410 Dy400 2.298 . S
O410 C424 1.236 . S
O411 Dy401 2.395 . S
O411 C431 1.255 . S
O412 Dy401 2.379 . S
O412 C431 1.249 . S
C413 O403 1.266 . S
C413 O404 1.236 . S
O414 Dy400 2.275 . S
O414 C402 1.254 . S
O415 Dy401 2.339 1_565 S
O415 C402 1.257 . S
C416 C419 1.344 . S
C416 C420 1.328 . S
C416 C422 1.516 . S
C417 C418 1.304 . S
C417 C421 1.323 . S
C418 C417 1.304 . S
C418 C419 1.371 . S
C418 H432 0.930 . S
C419 C416 1.344 . S
C419 C418 1.371 . S
C419 H433 0.931 . S
C420 C416 1.328 . S
C420 C421 1.433 . S
C420 H434 0.931 . S
C421 C417 1.323 . S
C421 C420 1.433 . S
C421 H435 0.933 . S
C422 Dy400 2.738 . S
C422 O405 1.255 . S
C422 O406 1.249 . S
C422 C416 1.516 . S
C423 O407 1.254 . S
C423 O408 1.257 1_545 S
C424 O409 1.266 1_565 S
C424 O410 1.236 . S
C425 C428 1.344 . S
C425 C429 1.328 . S
C425 C431 1.516 . S
C426 C427 1.304 . S
C426 C430 1.323 . S
C427 C426 1.304 . S
C427 C428 1.371 . S
C427 H436 0.930 . S
C428 C425 1.344 . S
C428 C427 1.371 . S
C428 H437 0.931 . S
C429 C425 1.328 . S
C429 C430 1.433 . S
C429 H438 0.931 . S
C430 C426 1.323 . S
C430 C429 1.433 . S
C430 H439 0.933 . S
C431 Dy401 2.738 . S
C431 O411 1.255 . S
C431 O412 1.249 . S
C431 C425 1.516 . S
H432 C418 0.930 . S
H433 C419 0.931 . S
H434 C420 0.931 . S
H435 C421 0.933 . S
H436 C427 0.930 . S
H437 C428 0.931 . S
H438 C429 0.931 . S
H439 C430 0.933 . S
Dy440 O443 2.307 . S
Dy440 O445 2.395 . S
Dy440 O446 2.379 . S
Dy440 O448 2.339 . S
Dy440 O450 2.298 . S
Dy440 O454 2.275 . S
Dy440 C462 2.738 . S
Dy441 O444 2.298 . S
Dy441 O447 2.275 . S
Dy441 O449 2.307 . S
Dy441 O451 2.395 . S
Dy441 O452 2.379 . S
Dy441 O455 2.339 . S
Dy441 C471 2.738 . S
C442 O454 1.254 . S
C442 O455 1.257 . S
O443 Dy440 2.307 . S
O443 C453 1.266 . S
O444 Dy441 2.298 . S
O444 C453 1.236 . S
O445 Dy440 2.395 . S
O445 C462 1.255 . S
O446 Dy440 2.379 . S
O446 C462 1.249 . S
O447 Dy441 2.275 . S
O447 C463 1.254 . S
O448 Dy440 2.339 . S
O448 C463 1.257 . S
O449 Dy441 2.307 . S
O449 C464 1.266 . S
O450 Dy440 2.298 . S
O450 C464 1.236 . S
O451 Dy441 2.395 . S
O451 C471 1.255 . S
O452 Dy441 2.379 . S
O452 C471 1.249 . S
C453 O443 1.266 . S
C453 O444 1.236 . S
O454 Dy440 2.275 . S
O454 C442 1.254 . S
O455 Dy441 2.339 . S
O455 C442 1.257 . S
C456 C459 1.344 . S
C456 C460 1.328 . S
C456 C462 1.516 . S
C457 C458 1.304 . S
C457 C461 1.323 . S
C458 C457 1.304 . S
C458 C459 1.371 . S
C458 H472 0.930 . S
C459 C456 1.344 . S
C459 C458 1.371 . S
C459 H473 0.931 . S
C460 C456 1.328 . S
C460 C461 1.433 . S
C460 H474 0.931 . S
C461 C457 1.323 . S
C461 C460 1.433 . S
C461 H475 0.933 . S
C462 Dy440 2.738 . S
C462 O445 1.255 . S
C462 O446 1.249 . S
C462 C456 1.516 . S
C463 O447 1.254 . S
C463 O448 1.257 . S
C464 O449 1.266 . S
C464 O450 1.236 . S
C465 C468 1.344 . S
C465 C469 1.328 . S
C465 C471 1.516 . S
C466 C467 1.304 . S
C466 C470 1.323 . S
C467 C466 1.304 . S
C467 C468 1.371 . S
C467 H476 0.930 . S
C468 C465 1.344 . S
C468 C467 1.371 . S
C468 H477 0.931 . S
C469 C465 1.328 . S
C469 C470 1.433 . S
C469 H478 0.931 . S
C470 C466 1.323 . S
C470 C469 1.433 . S
C470 H479 0.933 . S
C471 Dy441 2.738 . S
C471 O451 1.255 . S
C471 O452 1.249 . S
C471 C465 1.516 . S
H472 C458 0.930 . S
H473 C459 0.931 . S
H474 C460 0.931 . S
H475 C461 0.933 . S
H476 C467 0.930 . S
H477 C468 0.931 . S
H478 C469 0.931 . S
H479 C470 0.933 . S
H480 C486 0.930 . S
H481 C490 0.930 . S
H482 C495 0.929 . S
H483 C493 0.929 . S
H484 C488 0.929 . S
H485 C494 0.929 . S
C486 H480 0.930 . S
C486 C487 1.367 . S
C486 C494 1.378 . S
C487 C486 1.367 . S
C487 C495 1.433 . S
C488 H484 0.929 . S
C488 C490 1.378 . S
C488 C492 1.350 . S
C489 C492 1.463 . S
C489 C494 1.350 . S
C489 N497 1.427 . S
C490 H481 0.930 . S
C490 C488 1.378 . S
C490 C491 1.367 . S
C491 C490 1.367 . S
C491 C493 1.433 . S
C492 C488 1.350 . S
C492 C489 1.463 . S
C492 N496 1.427 . S
C493 H483 0.929 . S
C493 C491 1.433 . S
C493 N496 1.384 . S
C494 H485 0.929 . S
C494 C486 1.378 . S
C494 C489 1.350 . S
C495 H482 0.929 . S
C495 C487 1.433 . S
C495 N497 1.384 . S
N496 C492 1.427 . S
N496 C493 1.384 . S
N497 C489 1.427 . S
N497 C495 1.384 . S
H498 C504 0.930 . S
H499 C508 0.930 . S
H500 C513 0.914 1_545 S
H501 C511 0.929 . S
H502 C506 0.929 . S
H503 C512 0.929 . S
C504 H498 0.930 . S
C504 C505 1.367 . S
C504 C512 1.378 . S
C505 C504 1.367 . S
C505 C513 1.444 . S
C506 H502 0.929 . S
C506 C508 1.378 . S
C506 C510 1.350 . S
C507 C510 1.463 . S
C507 C512 1.350 . S
C507 N515 1.427 . S
C508 H499 0.930 . S
C508 C506 1.378 . S
C508 C509 1.367 . S
C509 C508 1.367 . S
C509 C511 1.433 . S
C510 C506 1.350 . S
C510 C507 1.463 . S
C510 N514 1.427 . S
C511 H501 0.929 . S
C511 C509 1.433 . S
C511 N514 1.384 . S
C512 H503 0.929 . S
C512 C504 1.378 . S
C512 C507 1.350 . S
C513 H500 0.914 1_565 S
C513 C505 1.444 . S
C513 N515 1.389 . S
N514 C510 1.427 . S
N514 C511 1.384 . S
N515 C507 1.427 . S
N515 C513 1.389 . S
H516 C522 0.930 . S
H517 C526 0.930 . S
H518 C531 0.929 . S
H519 C529 0.929 . S
H520 C524 0.929 . S
H521 C530 0.929 . S
C522 H516 0.930 . S
C522 C523 1.367 . S
C522 C530 1.378 . S
C523 C522 1.367 . S
C523 C531 1.433 1_556 S
C524 H520 0.929 . S
C524 C526 1.378 . S
C524 C528 1.350 . S
C525 C528 1.463 . S
C525 C530 1.350 1_554 S
C525 N533 1.427 . S
C526 H517 0.930 . S
C526 C524 1.378 . S
C526 C527 1.367 . S
C527 C526 1.367 . S
C527 C529 1.433 . S
C528 C524 1.350 . S
C528 C525 1.463 . S
C528 N532 1.427 . S
C529 H519 0.929 . S
C529 C527 1.433 . S
C529 N532 1.384 . S
C530 H521 0.929 . S
C530 C522 1.378 . S
C530 C525 1.350 1_556 S
C531 H518 0.929 . S
C531 C523 1.433 1_554 S
C531 N533 1.384 . S
N532 C528 1.427 . S
N532 C529 1.384 . S
N533 C525 1.427 . S
N533 C531 1.384 . S
H534 C540 0.930 . S
H535 C544 0.930 . S
H536 C549 0.929 . S
H537 C547 0.929 . S
H538 C542 0.905 1_565 S
H539 C548 0.929 . S
C540 H534 0.930 . S
C540 C541 1.367 . S
C540 C548 1.378 . S
C541 C540 1.367 . S
C541 C549 1.433 . S
C542 H538 0.905 1_545 S
C542 C544 1.365 1_545 S
C542 C546 1.387 . S
C543 C546 1.463 . S
C543 C548 1.350 . S
C543 N551 1.427 . S
C544 H535 0.930 . S
C544 C542 1.365 1_565 S
C544 C545 1.367 1_565 S
C545 C544 1.367 1_545 S
C545 C547 1.433 . S
C546 C542 1.387 . S
C546 C543 1.463 . S
C546 N550 1.427 . S
C547 H537 0.929 . S
C547 C545 1.433 . S
C547 N550 1.384 . S
C548 H539 0.929 . S
C548 C540 1.378 . S
C548 C543 1.350 . S
C549 H536 0.929 . S
C549 C541 1.433 . S
C549 N551 1.384 . S
N550 C546 1.427 . S
N550 C547 1.384 . S
N551 C543 1.427 . S
N551 C549 1.384 . S
H552 C558 0.930 . S
H553 C562 0.930 . S
H554 C567 0.929 . S
H555 C565 0.929 . S
H556 C560 0.929 . S
H557 C566 0.929 . S
C558 H552 0.930 . S
C558 C559 1.367 . S
C558 C566 1.378 . S
C559 C558 1.367 . S
C559 C567 1.433 . S
C560 H556 0.929 . S
C560 C562 1.378 . S
C560 C564 1.350 . S
C561 C564 1.463 . S
C561 C566 1.350 . S
C561 N569 1.427 . S
C562 H553 0.930 . S
C562 C560 1.378 . S
C562 C563 1.367 . S
C563 C562 1.367 . S
C563 C565 1.433 . S
C564 C560 1.350 . S
C564 C561 1.463 . S
C564 N568 1.427 . S
C565 H555 0.929 . S
C565 C563 1.433 . S
C565 N568 1.384 . S
C566 H557 0.929 . S
C566 C558 1.378 . S
C566 C561 1.350 . S
C567 H554 0.929 . S
C567 C559 1.433 . S
C567 N569 1.384 . S
N568 C564 1.427 . S
N568 C565 1.384 . S
N569 C561 1.427 . S
N569 C567 1.384 . S
H570 C576 0.930 . S
H571 C580 0.930 . S
H572 C585 0.929 . S
H573 C583 0.929 . S
H574 C578 0.929 . S
H575 C584 0.929 . S
C576 H570 0.930 . S
C576 C577 1.367 . S
C576 C584 1.378 . S
C577 C576 1.367 . S
C577 C585 1.433 . S
C578 H574 0.929 . S
C578 C580 1.378 . S
C578 C582 1.350 . S
C579 C582 1.463 . S
C579 C584 1.350 . S
C579 N587 1.427 . S
C580 H571 0.930 . S
C580 C578 1.378 . S
C580 C581 1.367 . S
C581 C580 1.367 . S
C581 C583 1.433 . S
C582 C578 1.350 . S
C582 C579 1.463 . S
C582 N586 1.427 . S
C583 H573 0.929 . S
C583 C581 1.433 . S
C583 N586 1.384 . S
C584 H575 0.929 . S
C584 C576 1.378 . S
C584 C579 1.350 . S
C585 H572 0.929 . S
C585 C577 1.433 . S
C585 N587 1.384 . S
N586 C582 1.427 . S
N586 C583 1.384 . S
N587 C579 1.427 . S
N587 C585 1.384 . S
H588 C594 0.930 . S
H589 C598 0.930 . S
H590 C603 0.929 . S
H591 C601 0.929 . S
H592 C596 0.929 . S
H593 C602 0.929 . S
C594 H588 0.930 . S
C594 C595 1.367 . S
C594 C602 1.378 . S
C595 C594 1.367 . S
C595 C603 1.433 . S
C596 H592 0.929 . S
C596 C598 1.378 . S
C596 C600 1.350 . S
C597 C600 1.463 . S
C597 C602 1.350 . S
C597 N605 1.427 . S
C598 H589 0.930 . S
C598 C596 1.378 . S
C598 C599 1.367 . S
C599 C598 1.367 . S
C599 C601 1.433 . S
C600 C596 1.350 . S
C600 C597 1.463 . S
C600 N604 1.427 . S
C601 H591 0.929 . S
C601 C599 1.433 . S
C601 N604 1.384 . S
C602 H593 0.929 . S
C602 C594 1.378 . S
C602 C597 1.350 . S
C603 H590 0.929 . S
C603 C595 1.433 . S
C603 N605 1.384 . S
N604 C600 1.427 . S
N604 C601 1.384 . S
N605 C597 1.427 . S
N605 C603 1.384 . S
H606 C612 0.930 . S
H607 C616 0.930 . S
H608 C621 0.929 . S
H609 C619 0.929 . S
H610 C614 0.929 . S
H611 C620 0.929 . S
C612 H606 0.930 . S
C612 C613 1.367 . S
C612 C620 1.378 . S
C613 C612 1.367 . S
C613 C621 1.433 . S
C614 H610 0.929 . S
C614 C616 1.378 . S
C614 C618 1.350 . S
C615 C618 1.463 . S
C615 C620 1.350 . S
C615 N623 1.427 . S
C616 H607 0.930 . S
C616 C614 1.378 . S
C616 C617 1.367 . S
C617 C616 1.367 . S
C617 C619 1.433 . S
C618 C614 1.350 . S
C618 C615 1.463 . S
C618 N622 1.427 . S
C619 H609 0.929 . S
C619 C617 1.433 . S
C619 N622 1.384 . S
C620 H611 0.929 . S
C620 C612 1.378 . S
C620 C615 1.350 . S
C621 H608 0.929 . S
C621 C613 1.433 . S
C621 N623 1.384 . S
N622 C618 1.427 . S
N622 C619 1.384 . S
N623 C615 1.427 . S
N623 C621 1.384 . S
H624 C630 0.930 . S
H625 C634 0.930 . S
H626 C639 0.929 . S
H627 C637 0.929 . S
H628 C632 0.929 . S
H629 C638 0.929 . S
C630 H624 0.930 . S
C630 C631 1.367 . S
C630 C638 1.378 . S
C631 C630 1.367 . S
C631 C639 1.433 . S
C632 H628 0.929 . S
C632 C634 1.378 . S
C632 C636 1.350 . S
C633 C636 1.463 . S
C633 C638 1.350 . S
C633 N641 1.427 . S
C634 H625 0.930 . S
C634 C632 1.378 . S
C634 C635 1.367 . S
C635 C634 1.367 . S
C635 C637 1.433 . S
C636 C632 1.350 . S
C636 C633 1.463 . S
C636 N640 1.427 . S
C637 H627 0.929 . S
C637 C635 1.433 . S
C637 N640 1.384 . S
C638 H629 0.929 . S
C638 C630 1.378 . S
C638 C633 1.350 . S
C639 H626 0.929 . S
C639 C631 1.433 . S
C639 N641 1.384 . S
N640 C636 1.427 . S
N640 C637 1.384 . S
N641 C633 1.427 . S
N641 C639 1.384 . S
H642 C648 0.930 . S
H643 C652 0.930 . S
H644 C657 0.929 . S
H645 C655 0.929 . S
H646 C650 0.929 . S
H647 C656 0.929 . S
C648 H642 0.930 . S
C648 C649 1.367 . S
C648 C656 1.378 . S
C649 C648 1.367 . S
C649 C657 1.433 . S
C650 H646 0.929 . S
C650 C652 1.378 . S
C650 C654 1.350 1_655 S
C651 C654 1.463 . S
C651 C656 1.350 . S
C651 N659 1.427 . S
C652 H643 0.930 . S
C652 C650 1.378 . S
C652 C653 1.367 1_655 S
C653 C652 1.367 1_455 S
C653 C655 1.433 . S
C654 C650 1.350 1_455 S
C654 C651 1.463 . S
C654 N658 1.427 . S
C655 H645 0.929 . S
C655 C653 1.433 . S
C655 N658 1.384 . S
C656 H647 0.929 . S
C656 C648 1.378 . S
C656 C651 1.350 . S
C657 H644 0.929 . S
C657 C649 1.433 . S
C657 N659 1.384 . S
N658 C654 1.427 . S
N658 C655 1.384 . S
N659 C651 1.427 . S
N659 C657 1.384 . S
H660 C666 0.930 . S
H661 C670 0.930 . S
H662 C675 0.930 1_455 S
H663 C673 0.929 . S
H664 C668 0.929 . S
H665 C674 0.929 . S
C666 H660 0.930 . S
C666 C667 1.367 . S
C666 C674 1.378 . S
C667 C666 1.367 . S
C667 C675 1.433 . S
C668 H664 0.929 . S
C668 C670 1.378 . S
C668 C672 1.350 . S
C669 C672 1.463 . S
C669 C674 1.350 . S
C669 N677 1.427 . S
C670 H661 0.930 . S
C670 C668 1.378 . S
C670 C671 1.367 . S
C671 C670 1.367 . S
C671 C673 1.433 . S
C672 C668 1.350 . S
C672 C669 1.463 . S
C672 N676 1.427 . S
C673 H663 0.929 . S
C673 C671 1.433 . S
C673 N676 1.384 . S
C674 H665 0.929 . S
C674 C666 1.378 . S
C674 C669 1.350 . S
C675 H662 0.930 1_655 S
C675 C667 1.433 . S
C675 N677 1.383 . S
N676 C672 1.427 . S
N676 C673 1.384 . S
N677 C669 1.427 . S
N677 C675 1.383 . S
H678 C684 0.930 . S
H679 C688 0.930 . S
H680 C693 0.929 . S
H681 C691 0.929 . S
H682 C686 0.929 . S
H683 C692 0.929 . S
C684 H678 0.930 . S
C684 C685 1.367 . S
C684 C692 1.378 . S
C685 C684 1.367 . S
C685 C693 1.433 . S
C686 H682 0.929 . S
C686 C688 1.378 . S
C686 C690 1.350 . S
C687 C690 1.463 . S
C687 C692 1.350 . S
C687 N695 1.427 . S
C688 H679 0.930 . S
C688 C686 1.378 . S
C688 C689 1.367 . S
C689 C688 1.367 . S
C689 C691 1.433 . S
C690 C686 1.350 . S
C690 C687 1.463 . S
C690 N694 1.427 . S
C691 H681 0.929 . S
C691 C689 1.433 . S
C691 N694 1.384 . S
C692 H683 0.929 . S
C692 C684 1.378 . S
C692 C687 1.350 . S
C693 H680 0.929 . S
C693 C685 1.433 . S
C693 N695 1.384 . S
N694 C690 1.427 . S
N694 C691 1.384 . S
N695 C687 1.427 . S
N695 C693 1.384 . S
H696 C702 0.930 . S
H697 C706 0.930 . S
H698 C711 0.929 . S
H699 C709 0.929 . S
H700 C704 0.929 . S
H701 C710 0.929 . S
C702 H696 0.930 . S
C702 C703 1.367 . S
C702 C710 1.378 . S
C703 C702 1.367 . S
C703 C711 1.433 . S
C704 H700 0.929 . S
C704 C706 1.378 . S
C704 C708 1.350 . S
C705 C708 1.463 . S
C705 C710 1.350 . S
C705 N713 1.427 . S
C706 H697 0.930 . S
C706 C704 1.378 . S
C706 C707 1.367 . S
C707 C706 1.367 . S
C707 C709 1.433 . S
C708 C704 1.350 . S
C708 C705 1.463 . S
C708 N712 1.427 . S
C709 H699 0.929 . S
C709 C707 1.433 . S
C709 N712 1.384 . S
C710 H701 0.929 . S
C710 C702 1.378 . S
C710 C705 1.350 . S
C711 H698 0.929 . S
C711 C703 1.433 . S
C711 N713 1.384 . S
N712 C708 1.427 . S
N712 C709 1.384 . S
N713 C705 1.427 . S
N713 C711 1.384 . S
H714 C720 0.930 . S
H715 C724 0.930 . S
H716 C729 0.929 . S
H717 C727 0.929 . S
H718 C722 0.929 . S
H719 C728 0.929 . S
C720 H714 0.930 . S
C720 C721 1.367 . S
C720 C728 1.378 . S
C721 C720 1.367 . S
C721 C729 1.433 . S
C722 H718 0.929 . S
C722 C724 1.378 . S
C722 C726 1.350 . S
C723 C726 1.463 . S
C723 C728 1.350 . S
C723 N731 1.427 . S
C724 H715 0.930 . S
C724 C722 1.378 . S
C724 C725 1.367 . S
C725 C724 1.367 . S
C725 C727 1.433 . S
C726 C722 1.350 . S
C726 C723 1.463 . S
C726 N730 1.427 . S
C727 H717 0.929 . S
C727 C725 1.433 . S
C727 N730 1.384 . S
C728 H719 0.929 . S
C728 C720 1.378 . S
C728 C723 1.350 . S
C729 H716 0.929 . S
C729 C721 1.433 . S
C729 N731 1.384 . S
N730 C726 1.427 . S
N730 C727 1.384 . S
N731 C723 1.427 . S
N731 C729 1.384 . S
H732 C738 0.930 . S
H733 C742 0.930 . S
H734 C747 0.929 . S
H735 C745 0.929 . S
H736 C740 0.929 . S
H737 C746 0.929 . S
C738 H732 0.930 . S
C738 C739 1.367 . S
C738 C746 1.378 . S
C739 C738 1.367 . S
C739 C747 1.433 . S
C740 H736 0.929 . S
C740 C742 1.378 . S
C740 C744 1.350 . S
C741 C744 1.463 . S
C741 C746 1.350 . S
C741 N749 1.427 . S
C742 H733 0.930 . S
C742 C740 1.378 . S
C742 C743 1.367 . S
C743 C742 1.367 . S
C743 C745 1.433 . S
C744 C740 1.350 . S
C744 C741 1.463 . S
C744 N748 1.427 . S
C745 H735 0.929 . S
C745 C743 1.433 . S
C745 N748 1.384 . S
C746 H737 0.929 . S
C746 C738 1.378 . S
C746 C741 1.350 . S
C747 H734 0.929 . S
C747 C739 1.433 . S
C747 N749 1.384 . S
N748 C744 1.427 . S
N748 C745 1.384 . S
N749 C741 1.427 . S
N749 C747 1.384 . S
H750 C756 0.930 . S
H751 C760 0.930 . S
H752 C765 0.929 . S
H753 C763 0.929 . S
H754 C758 0.929 . S
H755 C764 0.929 . S
C756 H750 0.930 . S
C756 C757 1.367 . S
C756 C764 1.378 . S
C757 C756 1.367 . S
C757 C765 1.433 . S
C758 H754 0.929 . S
C758 C760 1.378 . S
C758 C762 1.350 . S
C759 C762 1.463 1_554 S
C759 C764 1.350 . S
C759 N767 1.427 . S
C760 H751 0.930 . S
C760 C758 1.378 . S
C760 C761 1.367 . S
C761 C760 1.367 . S
C761 C763 1.433 . S
C762 C758 1.350 . S
C762 C759 1.463 1_556 S
C762 N766 1.427 . S
C763 H753 0.929 . S
C763 C761 1.433 . S
C763 N766 1.384 . S
C764 H755 0.929 . S
C764 C756 1.378 . S
C764 C759 1.350 . S
C765 H752 0.929 . S
C765 C757 1.433 . S
C765 N767 1.384 . S
N766 C762 1.427 . S
N766 C763 1.384 . S
N767 C759 1.427 . S
N767 C765 1.384 . S
H768 C774 0.930 . S
H769 C778 0.930 . S
H770 C783 0.929 . S
H771 C781 0.929 . S
H772 C776 0.929 . S
H773 C782 0.929 . S
C774 H768 0.930 . S
C774 C775 1.367 . S
C774 C782 1.378 . S
C775 C774 1.367 . S
C775 C783 1.433 . S
C776 H772 0.929 . S
C776 C778 1.378 . S
C776 C780 1.350 . S
C777 C780 1.463 . S
C777 C782 1.350 . S
C777 N785 1.427 . S
C778 H769 0.930 . S
C778 C776 1.378 . S
C778 C779 1.367 . S
C779 C778 1.367 . S
C779 C781 1.433 . S
C780 C776 1.350 . S
C780 C777 1.463 . S
C780 N784 1.427 . S
C781 H771 0.929 . S
C781 C779 1.433 . S
C781 N784 1.384 . S
C782 H773 0.929 . S
C782 C774 1.378 . S
C782 C777 1.350 . S
C783 H770 0.929 . S
C783 C775 1.433 . S
C783 N785 1.384 . S
N784 C780 1.427 . S
N784 C781 1.384 . S
N785 C777 1.427 . S
N785 C783 1.384 . S
H786 C792 0.930 . S
H787 C796 0.930 . S
H788 C801 0.929 . S
H789 C799 0.929 . S
H790 C794 0.929 . S
H791 C800 0.929 1_556 S
C792 H786 0.930 . S
C792 C793 1.367 . S
C792 C800 1.378 . S
C793 C792 1.367 . S
C793 C801 1.433 . S
C794 H790 0.929 . S
C794 C796 1.378 . S
C794 C798 1.350 . S
C795 C798 1.463 . S
C795 C800 1.350 1_556 S
C795 N803 1.427 . S
C796 H787 0.930 . S
C796 C794 1.378 . S
C796 C797 1.367 . S
C797 C796 1.367 . S
C797 C799 1.433 . S
C798 C794 1.350 . S
C798 C795 1.463 . S
C798 N802 1.427 . S
C799 H789 0.929 . S
C799 C797 1.433 . S
C799 N802 1.384 . S
C800 H791 0.929 1_554 S
C800 C792 1.378 . S
C800 C795 1.350 1_554 S
C801 H788 0.929 . S
C801 C793 1.433 . S
C801 N803 1.384 1_554 S
N802 C798 1.427 . S
N802 C799 1.384 . S
N803 C795 1.427 . S
N803 C801 1.384 1_556 S
H804 C810 0.930 . S
H805 C814 0.930 . S
H806 C819 0.929 . S
H807 C817 0.929 . S
H808 C812 0.929 . S
H809 C818 0.929 . S
C810 H804 0.930 . S
C810 C811 1.367 . S
C810 C818 1.378 . S
C811 C810 1.367 . S
C811 C819 1.433 . S
C812 H808 0.929 . S
C812 C814 1.378 . S
C812 C816 1.350 . S
C813 C816 1.463 . S
C813 C818 1.350 . S
C813 N821 1.427 . S
C814 H805 0.930 . S
C814 C812 1.378 . S
C814 C815 1.367 . S
C815 C814 1.367 . S
C815 C817 1.433 . S
C816 C812 1.350 . S
C816 C813 1.463 . S
C816 N820 1.427 . S
C817 H807 0.929 . S
C817 C815 1.433 . S
C817 N820 1.384 . S
C818 H809 0.929 . S
C818 C810 1.378 . S
C818 C813 1.350 . S
C819 H806 0.929 . S
C819 C811 1.433 . S
C819 N821 1.384 . S
N820 C816 1.427 . S
N820 C817 1.384 . S
N821 C813 1.427 . S
N821 C819 1.384 . S
H822 C828 0.930 . S
H823 C832 0.930 . S
H824 C837 0.929 . S
H825 C835 0.929 . S
H826 C830 0.929 . S
H827 C836 0.929 . S
C828 H822 0.930 . S
C828 C829 1.367 . S
C828 C836 1.378 . S
C829 C828 1.367 . S
C829 C837 1.433 . S
C830 H826 0.929 . S
C830 C832 1.378 . S
C830 C834 1.350 . S
C831 C834 1.463 . S
C831 C836 1.350 . S
C831 N839 1.427 . S
C832 H823 0.930 . S
C832 C830 1.378 . S
C832 C833 1.367 . S
C833 C832 1.367 . S
C833 C835 1.433 . S
C834 C830 1.350 . S
C834 C831 1.463 . S
C834 N838 1.427 . S
C835 H825 0.929 . S
C835 C833 1.433 . S
C835 N838 1.384 . S
C836 H827 0.929 . S
C836 C828 1.378 . S
C836 C831 1.350 . S
C837 H824 0.929 . S
C837 C829 1.433 . S
C837 N839 1.384 . S
N838 C834 1.427 . S
N838 C835 1.384 . S
N839 C831 1.427 . S
N839 C837 1.384 . S
H840 C846 0.930 . S
H841 C850 0.930 . S
H842 C855 0.929 . S
H843 C853 0.929 . S
H844 C848 0.929 . S
H845 C854 0.929 . S
C846 H840 0.930 . S
C846 C847 1.367 . S
C846 C854 1.378 . S
C847 C846 1.367 . S
C847 C855 1.433 . S
C848 H844 0.929 . S
C848 C850 1.378 . S
C848 C852 1.350 . S
C849 C852 1.463 . S
C849 C854 1.350 . S
C849 N857 1.427 . S
C850 H841 0.930 . S
C850 C848 1.378 . S
C850 C851 1.367 . S
C851 C850 1.367 . S
C851 C853 1.433 . S
C852 C848 1.350 . S
C852 C849 1.463 . S
C852 N856 1.427 . S
C853 H843 0.929 . S
C853 C851 1.433 . S
C853 N856 1.384 . S
C854 H845 0.929 . S
C854 C846 1.378 . S
C854 C849 1.350 . S
C855 H842 0.929 . S
C855 C847 1.433 . S
C855 N857 1.384 . S
N856 C852 1.427 . S
N856 C853 1.384 . S
N857 C849 1.427 . S
N857 C855 1.384 . S
H858 C864 0.930 . S
H859 C868 0.928 . S
H860 C873 0.929 . S
H861 C871 0.929 . S
H862 C866 0.929 1_545 S
H863 C872 0.929 . S
C864 H858 0.930 . S
C864 C865 1.367 . S
C864 C872 1.378 . S
C865 C864 1.367 . S
C865 C873 1.433 . S
C866 H862 0.929 1_565 S
C866 C868 1.378 . S
C866 C870 1.350 . S
C867 C870 1.463 1_545 S
C867 C872 1.350 . S
C867 N875 1.427 . S
C868 H859 0.928 . S
C868 C866 1.378 . S
C868 C869 1.367 . S
C869 C868 1.367 . S
C869 C871 1.433 . S
C870 C866 1.350 . S
C870 C867 1.463 1_565 S
C870 N874 1.427 . S
C871 H861 0.929 . S
C871 C869 1.433 . S
C871 N874 1.384 . S
C872 H863 0.929 . S
C872 C864 1.378 . S
C872 C867 1.350 . S
C873 H860 0.929 . S
C873 C865 1.433 . S
C873 N875 1.384 . S
N874 C870 1.427 . S
N874 C871 1.384 . S
N875 C867 1.427 . S
N875 C873 1.384 . S
H876 C882 0.930 . S
H877 C886 0.930 . S
H878 C891 0.929 . S
H879 C889 0.929 . S
H880 C884 0.929 . S
H881 C890 0.929 . S
C882 H876 0.930 . S
C882 C883 1.367 . S
C882 C890 1.378 . S
C883 C882 1.367 . S
C883 C891 1.433 . S
C884 H880 0.929 . S
C884 C886 1.378 . S
C884 C888 1.350 . S
C885 C888 1.463 . S
C885 C890 1.350 . S
C885 N893 1.427 . S
C886 H877 0.930 . S
C886 C884 1.378 . S
C886 C887 1.367 . S
C887 C886 1.367 . S
C887 C889 1.433 . S
C888 C884 1.350 . S
C888 C885 1.463 . S
C888 N892 1.427 . S
C889 H879 0.929 . S
C889 C887 1.433 . S
C889 N892 1.384 . S
C890 H881 0.929 . S
C890 C882 1.378 . S
C890 C885 1.350 . S
C891 H878 0.929 . S
C891 C883 1.433 . S
C891 N893 1.384 . S
N892 C888 1.427 . S
N892 C889 1.384 . S
N893 C885 1.427 . S
N893 C891 1.384 . S
H894 C900 0.930 . S
H895 C904 0.930 . S
H896 C909 0.929 . S
H897 C907 0.929 . S
H898 C902 0.929 . S
H899 C908 0.929 . S
C900 H894 0.930 . S
C900 C901 1.367 . S
C900 C908 1.378 . S
C901 C900 1.367 . S
C901 C909 1.433 . S
C902 H898 0.929 . S
C902 C904 1.378 . S
C902 C906 1.350 . S
C903 C906 1.463 . S
C903 C908 1.350 1_565 S
C903 N911 1.427 1_565 S
C904 H895 0.930 . S
C904 C902 1.378 . S
C904 C905 1.367 . S
C905 C904 1.367 . S
C905 C907 1.433 . S
C906 C902 1.350 . S
C906 C903 1.463 . S
C906 N910 1.427 . S
C907 H897 0.929 . S
C907 C905 1.433 . S
C907 N910 1.384 . S
C908 H899 0.929 . S
C908 C900 1.378 . S
C908 C903 1.350 1_545 S
C909 H896 0.929 . S
C909 C901 1.433 . S
C909 N911 1.384 . S
N910 C906 1.427 . S
N910 C907 1.384 . S
N911 C903 1.427 1_545 S
N911 C909 1.384 . S
H912 C918 0.930 . S
H913 C922 0.930 . S
H914 C927 0.929 . S
H915 C925 0.929 . S
H916 C920 0.929 . S
H917 C926 0.929 . S
C918 H912 0.930 . S
C918 C919 1.367 . S
C918 C926 1.378 . S
C919 C918 1.367 . S
C919 C927 1.433 . S
C920 H916 0.929 . S
C920 C922 1.378 . S
C920 C924 1.350 . S
C921 C924 1.463 . S
C921 C926 1.350 . S
C921 N929 1.427 . S
C922 H913 0.930 . S
C922 C920 1.378 . S
C922 C923 1.367 . S
C923 C922 1.367 . S
C923 C925 1.433 . S
C924 C920 1.350 . S
C924 C921 1.463 . S
C924 N928 1.427 . S
C925 H915 0.929 . S
C925 C923 1.433 . S
C925 N928 1.384 . S
C926 H917 0.929 . S
C926 C918 1.378 . S
C926 C921 1.350 . S
C927 H914 0.929 . S
C927 C919 1.433 . S
C927 N929 1.384 . S
N928 C924 1.427 . S
N928 C925 1.384 . S
N929 C921 1.427 . S
N929 C927 1.384 . S
H930 C936 0.930 . S
H931 C940 0.930 . S
H932 C945 0.929 . S
H933 C943 0.929 . S
H934 C938 0.929 . S
H935 C944 0.929 . S
C936 H930 0.930 . S
C936 C937 1.367 . S
C936 C944 1.378 . S
C937 C936 1.367 . S
C937 C945 1.433 . S
C938 H934 0.929 . S
C938 C940 1.378 . S
C938 C942 1.350 . S
C939 C942 1.463 . S
C939 C944 1.350 . S
C939 N947 1.427 . S
C940 H931 0.930 . S
C940 C938 1.378 . S
C940 C941 1.367 . S
C941 C940 1.367 . S
C941 C943 1.433 . S
C942 C938 1.350 . S
C942 C939 1.463 . S
C942 N946 1.427 . S
C943 H933 0.929 . S
C943 C941 1.433 . S
C943 N946 1.384 . S
C944 H935 0.929 . S
C944 C936 1.378 . S
C944 C939 1.350 . S
C945 H932 0.929 . S
C945 C937 1.433 . S
C945 N947 1.384 . S
N946 C942 1.427 . S
N946 C943 1.384 . S
N947 C939 1.427 . S
N947 C945 1.384 . S
H948 C954 0.930 . S
H949 C958 0.930 . S
H950 C963 0.929 . S
H951 C961 0.929 . S
H952 C956 0.929 . S
H953 C962 0.929 . S
C954 H948 0.930 . S
C954 C955 1.367 . S
C954 C962 1.378 . S
C955 C954 1.367 . S
C955 C963 1.433 . S
C956 H952 0.929 . S
C956 C958 1.378 . S
C956 C960 1.350 . S
C957 C960 1.463 . S
C957 C962 1.350 . S
C957 N965 1.427 . S
C958 H949 0.930 . S
C958 C956 1.378 . S
C958 C959 1.367 . S
C959 C958 1.367 . S
C959 C961 1.433 . S
C960 C956 1.350 . S
C960 C957 1.463 . S
C960 N964 1.427 . S
C961 H951 0.929 . S
C961 C959 1.433 . S
C961 N964 1.384 . S
C962 H953 0.929 . S
C962 C954 1.378 . S
C962 C957 1.350 . S
C963 H950 0.929 . S
C963 C955 1.433 . S
C963 N965 1.384 . S
N964 C960 1.427 . S
N964 C961 1.384 . S
N965 C957 1.427 . S
N965 C963 1.384 . S
H966 C972 0.930 . S
H967 C976 0.930 . S
H968 C981 0.929 . S
H969 C979 0.929 . S
H970 C974 0.929 . S
H971 C980 0.929 . S
C972 H966 0.930 . S
C972 C973 1.367 . S
C972 C980 1.378 . S
C973 C972 1.367 . S
C973 C981 1.433 . S
C974 H970 0.929 . S
C974 C976 1.378 . S
C974 C978 1.350 . S
C975 C978 1.463 . S
C975 C980 1.350 . S
C975 N983 1.427 . S
C976 H967 0.930 . S
C976 C974 1.378 . S
C976 C977 1.367 . S
C977 C976 1.367 . S
C977 C979 1.433 . S
C978 C974 1.350 . S
C978 C975 1.463 . S
C978 N982 1.427 . S
C979 H969 0.929 . S
C979 C977 1.433 . S
C979 N982 1.384 . S
C980 H971 0.929 . S
C980 C972 1.378 . S
C980 C975 1.350 . S
C981 H968 0.929 . S
C981 C973 1.433 . S
C981 N983 1.384 . S
N982 C978 1.427 . S
N982 C979 1.384 . S
N983 C975 1.427 . S
N983 C981 1.384 . S
H984 C990 0.930 . S
H985 C994 0.930 . S
H986 C999 0.929 . S
H987 C997 0.929 . S
H988 C992 0.929 . S
H989 C998 0.929 . S
C990 H984 0.930 . S
C990 C991 1.367 . S
C990 C998 1.378 . S
C991 C990 1.367 . S
C991 C999 1.433 . S
C992 H988 0.929 . S
C992 C994 1.378 . S
C992 C996 1.350 . S
C993 C996 1.463 . S
C993 C998 1.350 . S
C993 N1001 1.427 . S
C994 H985 0.930 . S
C994 C992 1.378 . S
C994 C995 1.367 . S
C995 C994 1.367 . S
C995 C997 1.433 . S
C996 C992 1.350 . S
C996 C993 1.463 . S
C996 N1000 1.427 . S
C997 H987 0.929 . S
C997 C995 1.433 . S
C997 N1000 1.384 . S
C998 H989 0.929 . S
C998 C990 1.378 . S
C998 C993 1.350 . S
C999 H986 0.929 . S
C999 C991 1.433 . S
C999 N1001 1.384 . S
N1000 C996 1.427 . S
N1000 C997 1.384 . S
N1001 C993 1.427 . S
N1001 C999 1.384 . S
H1002 C1008 0.930 . S
H1003 C1012 0.930 . S
H1004 C1017 0.929 . S
H1005 C1015 0.929 . S
H1006 C1010 0.929 . S
H1007 C1016 0.929 . S
C1008 H1002 0.930 . S
C1008 C1009 1.367 . S
C1008 C1016 1.378 . S
C1009 C1008 1.367 . S
C1009 C1017 1.433 . S
C1010 H1006 0.929 . S
C1010 C1012 1.378 . S
C1010 C1014 1.350 . S
C1011 C1014 1.463 . S
C1011 C1016 1.350 . S
C1011 N1019 1.427 . S
C1012 H1003 0.930 . S
C1012 C1010 1.378 . S
C1012 C1013 1.367 . S
C1013 C1012 1.367 . S
C1013 C1015 1.433 . S
C1014 C1010 1.350 . S
C1014 C1011 1.463 . S
C1014 N1018 1.427 . S
C1015 H1005 0.929 . S
C1015 C1013 1.433 . S
C1015 N1018 1.384 . S
C1016 H1007 0.929 . S
C1016 C1008 1.378 . S
C1016 C1011 1.350 . S
C1017 H1004 0.929 . S
C1017 C1009 1.433 . S
C1017 N1019 1.384 . S
N1018 C1014 1.427 . S
N1018 C1015 1.384 . S
N1019 C1011 1.427 . S
N1019 C1017 1.384 . S
H1020 C1026 0.930 . S
H1021 C1030 0.932 . S
H1022 C1035 0.929 . S
H1023 C1033 0.929 . S
H1024 C1028 0.929 . S
H1025 C1034 0.929 . S
C1026 H1020 0.930 . S
C1026 C1027 1.367 . S
C1026 C1034 1.378 . S
C1027 C1026 1.367 . S
C1027 C1035 1.433 . S
C1028 H1024 0.929 . S
C1028 C1030 1.378 . S
C1028 C1032 1.356 . S
C1029 C1032 1.452 1_455 S
C1029 C1034 1.350 . S
C1029 N1037 1.427 . S
C1030 H1021 0.932 . S
C1030 C1028 1.378 . S
C1030 C1031 1.367 . S
C1031 C1030 1.367 . S
C1031 C1033 1.433 . S
C1032 C1028 1.356 . S
C1032 C1029 1.452 1_655 S
C1032 N1036 1.431 . S
C1033 H1023 0.929 . S
C1033 C1031 1.433 . S
C1033 N1036 1.384 . S
C1034 H1025 0.929 . S
C1034 C1026 1.378 . S
C1034 C1029 1.350 . S
C1035 H1022 0.929 . S
C1035 C1027 1.433 . S
C1035 N1037 1.384 . S
N1036 C1032 1.431 . S
N1036 C1033 1.384 . S
N1037 C1029 1.427 . S
N1037 C1035 1.384 . S
H1038 C1044 0.930 . S
H1039 C1048 0.930 . S
H1040 C1053 0.929 . S
H1041 C1051 0.929 . S
H1042 C1046 0.929 . S
H1043 C1052 0.929 . S
C1044 H1038 0.930 . S
C1044 C1045 1.367 . S
C1044 C1052 1.378 . S
C1045 C1044 1.367 . S
C1045 C1053 1.433 . S
C1046 H1042 0.929 . S
C1046 C1048 1.378 . S
C1046 C1050 1.350 . S
C1047 C1050 1.463 . S
C1047 C1052 1.350 . S
C1047 N1055 1.427 . S
C1048 H1039 0.930 . S
C1048 C1046 1.378 . S
C1048 C1049 1.367 . S
C1049 C1048 1.367 . S
C1049 C1051 1.433 . S
C1050 C1046 1.350 . S
C1050 C1047 1.463 . S
C1050 N1054 1.427 . S
C1051 H1041 0.929 . S
C1051 C1049 1.433 . S
C1051 N1054 1.384 . S
C1052 H1043 0.929 . S
C1052 C1044 1.378 . S
C1052 C1047 1.350 . S
C1053 H1040 0.929 . S
C1053 C1045 1.433 . S
C1053 N1055 1.384 . S
N1054 C1050 1.427 . S
N1054 C1051 1.384 . S
N1055 C1047 1.427 . S
N1055 C1053 1.384 . S
H1056 C1062 0.930 . S
H1057 C1066 0.930 . S
H1058 C1071 0.929 . S
H1059 C1069 0.929 . S
H1060 C1064 0.929 . S
H1061 C1070 0.929 . S
C1062 H1056 0.930 . S
C1062 C1063 1.367 . S
C1062 C1070 1.378 . S
C1063 C1062 1.367 . S
C1063 C1071 1.433 . S
C1064 H1060 0.929 . S
C1064 C1066 1.378 . S
C1064 C1068 1.350 . S
C1065 C1068 1.463 . S
C1065 C1070 1.350 . S
C1065 N1073 1.427 . S
C1066 H1057 0.930 . S
C1066 C1064 1.378 . S
C1066 C1067 1.367 . S
C1067 C1066 1.367 . S
C1067 C1069 1.433 . S
C1068 C1064 1.350 . S
C1068 C1065 1.463 . S
C1068 N1072 1.427 . S
C1069 H1059 0.929 . S
C1069 C1067 1.433 . S
C1069 N1072 1.384 . S
C1070 H1061 0.929 . S
C1070 C1062 1.378 . S
C1070 C1065 1.350 . S
C1071 H1058 0.929 . S
C1071 C1063 1.433 . S
C1071 N1073 1.384 . S
N1072 C1068 1.427 . S
N1072 C1069 1.384 . S
N1073 C1065 1.427 . S
N1073 C1071 1.384 . S
H1074 C1080 0.930 . S
H1075 C1084 0.930 . S
H1076 C1089 0.929 . S
H1077 C1087 0.929 . S
H1078 C1082 0.929 . S
H1079 C1088 0.929 . S
C1080 H1074 0.930 . S
C1080 C1081 1.367 . S
C1080 C1088 1.378 . S
C1081 C1080 1.367 . S
C1081 C1089 1.433 . S
C1082 H1078 0.929 . S
C1082 C1084 1.378 . S
C1082 C1086 1.350 . S
C1083 C1086 1.463 . S
C1083 C1088 1.350 . S
C1083 N1091 1.427 . S
C1084 H1075 0.930 . S
C1084 C1082 1.378 . S
C1084 C1085 1.367 . S
C1085 C1084 1.367 . S
C1085 C1087 1.433 . S
C1086 C1082 1.350 . S
C1086 C1083 1.463 . S
C1086 N1090 1.427 . S
C1087 H1077 0.929 . S
C1087 C1085 1.433 . S
C1087 N1090 1.384 . S
C1088 H1079 0.929 . S
C1088 C1080 1.378 . S
C1088 C1083 1.350 . S
C1089 H1076 0.929 . S
C1089 C1081 1.433 . S
C1089 N1091 1.384 . S
N1090 C1086 1.427 . S
N1090 C1087 1.384 . S
N1091 C1083 1.427 . S
N1091 C1089 1.384 . S
H1092 C1098 0.930 . S
H1093 C1102 0.930 . S
H1094 C1107 0.929 . S
H1095 C1105 0.929 . S
H1096 C1100 0.929 . S
H1097 C1106 0.929 . S
C1098 H1092 0.930 . S
C1098 C1099 1.367 . S
C1098 C1106 1.378 . S
C1099 C1098 1.367 . S
C1099 C1107 1.433 . S
C1100 H1096 0.929 . S
C1100 C1102 1.378 . S
C1100 C1104 1.350 . S
C1101 C1104 1.463 . S
C1101 C1106 1.350 . S
C1101 N1109 1.427 . S
C1102 H1093 0.930 . S
C1102 C1100 1.378 . S
C1102 C1103 1.367 . S
C1103 C1102 1.367 . S
C1103 C1105 1.433 . S
C1104 C1100 1.350 . S
C1104 C1101 1.463 . S
C1104 N1108 1.427 . S
C1105 H1095 0.929 . S
C1105 C1103 1.433 . S
C1105 N1108 1.384 . S
C1106 H1097 0.929 . S
C1106 C1098 1.378 . S
C1106 C1101 1.350 . S
C1107 H1094 0.929 . S
C1107 C1099 1.433 . S
C1107 N1109 1.384 . S
N1108 C1104 1.427 . S
N1108 C1105 1.384 . S
N1109 C1101 1.427 . S
N1109 C1107 1.384 . S
H1110 C1116 0.930 . S
H1111 C1120 0.930 . S
H1112 C1125 0.929 . S
H1113 C1123 0.929 . S
H1114 C1118 0.929 . S
H1115 C1124 0.929 . S
C1116 H1110 0.930 . S
C1116 C1117 1.367 . S
C1116 C1124 1.378 . S
C1117 C1116 1.367 . S
C1117 C1125 1.433 . S
C1118 H1114 0.929 . S
C1118 C1120 1.378 . S
C1118 C1122 1.350 . S
C1119 C1122 1.463 1_655 S
C1119 C1124 1.350 . S
C1119 N1127 1.427 . S
C1120 H1111 0.930 . S
C1120 C1118 1.378 . S
C1120 C1121 1.367 . S
C1121 C1120 1.367 . S
C1121 C1123 1.433 . S
C1122 C1118 1.350 . S
C1122 C1119 1.463 1_455 S
C1122 N1126 1.427 . S
C1123 H1113 0.929 . S
C1123 C1121 1.433 . S
C1123 N1126 1.384 . S
C1124 H1115 0.929 . S
C1124 C1116 1.378 . S
C1124 C1119 1.350 . S
C1125 H1112 0.929 . S
C1125 C1117 1.433 . S
C1125 N1127 1.384 . S
N1126 C1122 1.427 . S
N1126 C1123 1.384 . S
N1127 C1119 1.427 . S
N1127 C1125 1.384 . S
C487 C24 1.339 . S
C491 C463 1.384 . S
C505 C383 1.697 . S
C509 C63 1.709 . S
C523 C104 1.429 . S
C527 C343 1.453 . S
C541 C143 1.698 . S
C545 C424 1.662 1_545 S
C559 C183 1.719 . S
C563 C423 1.723 . S
C577 C223 1.525 . S
C581 C464 1.511 . S
C595 C384 1.648 . S
C599 C263 1.700 . S
C613 C304 1.474 . S
C617 C344 1.469 . S
C631 C144 1.561 . S
C635 C184 1.571 . S
C649 C23 1.773 . S
C653 C224 1.738 1_455 S
C667 C64 1.691 1_655 S
C671 C264 1.680 . S
C685 C303 1.627 . S
C689 C103 1.633 1_554 S
C703 C17 1.621 . S
C707 C322 1.630 . S
C721 C66 1.561 . S
C725 C413 1.569 . S
C739 C442 2.111 . S
C743 C97 2.093 . S
C757 C146 1.264 . S
C761 C362 1.244 . S
C775 C186 1.779 . S
C779 C373 1.786 . S
C793 C333 1.723 . S
C797 C226 1.720 . S
C811 C402 1.199 . S
C815 C266 1.224 . S
C829 C453 1.945 . S
C833 C297 1.846 . S
C847 C2 1.945 . S
C851 C137 1.937 . S
C865 C26 1.524 . S
C869 C53 1.526 . S
C883 C57 1.964 . S
C887 C82 1.962 . S
C901 C133 1.697 . S
C905 C106 1.694 . S
C919 C217 1.532 . S
C923 C173 1.606 . S
C937 C213 1.405 . S
C941 C257 1.359 . S
C955 C253 1.583 . S
C959 C306 1.573 . S
C973 C177 1.404 . S
C977 C282 1.410 . S
C991 C337 1.383 . S
C995 C122 1.379 . S
C1009 C202 1.460 . S
C1013 C386 1.505 . S
C1027 C346 0.964 . S
C1031 C242 0.953 . S
C1045 C417 1.801 . S
C1049 C293 1.885 . S
C1063 C162 1.518 . S
C1067 C466 1.561 . S
C1081 C457 1.530 . S
C1085 C42 1.532 . S
C1099 C93 1.865 . S
C1103 C377 1.793 . S
C1117 C426 1.283 . S
C1121 C13 1.287 . S
