# Generated by pormake.
# Topology pcl, (4)-cn, num edge types: 1
# Building blocks:
#     Node 0, Type 0, BuildingBlock: TATPOV_clean_sbu_0, # of connection points: 4
#     Node 1, Type 0, BuildingBlock: TATPOV_clean_sbu_0, # of connection points: 4
#     Node 2, Type 0, BuildingBlock: TATPOV_clean_sbu_0, # of connection points: 4
#     Node 3, Type 0, BuildingBlock: TATPOV_clean_sbu_0, # of connection points: 4
#     Node 4, Type 0, BuildingBlock: TATPOV_clean_sbu_0, # of connection points: 4
#     Node 5, Type 0, BuildingBlock: TATPOV_clean_sbu_0, # of connection points: 4
#     Node 6, Type 0, BuildingBlock: TATPOV_clean_sbu_0, # of connection points: 4
#     Node 7, Type 0, BuildingBlock: TATPOV_clean_sbu_0, # of connection points: 4
#     Node 8, Type 0, BuildingBlock: TATPOV_clean_sbu_0, # of connection points: 4
#     Node 9, Type 0, BuildingBlock: TATPOV_clean_sbu_0, # of connection points: 4
#     Node 10, Type 0, BuildingBlock: TATPOV_clean_sbu_0, # of connection points: 4
#     Node 11, Type 0, BuildingBlock: TATPOV_clean_sbu_0, # of connection points: 4
#     Node 12, Type 0, BuildingBlock: TATPOV_clean_sbu_0, # of connection points: 4
#     Node 13, Type 0, BuildingBlock: TATPOV_clean_sbu_0, # of connection points: 4
#     Node 14, Type 0, BuildingBlock: TATPOV_clean_sbu_0, # of connection points: 4
#     Node 15, Type 0, BuildingBlock: TATPOV_clean_sbu_0, # of connection points: 4
#     Edge 16, Type (0, 0), BuildingBlock: MIFKUJ_clean_linker_0, # of connection points: 2
#     Edge 17, Type (0, 0), BuildingBlock: MIFKUJ_clean_linker_0, # of connection points: 2
#     Edge 18, Type (0, 0), BuildingBlock: MIFKUJ_clean_linker_0, # of connection points: 2
#     Edge 19, Type (0, 0), BuildingBlock: MIFKUJ_clean_linker_0, # of connection points: 2
#     Edge 20, Type (0, 0), BuildingBlock: MIFKUJ_clean_linker_0, # of connection points: 2
#     Edge 21, Type (0, 0), BuildingBlock: MIFKUJ_clean_linker_0, # of connection points: 2
#     Edge 22, Type (0, 0), BuildingBlock: MIFKUJ_clean_linker_0, # of connection points: 2
#     Edge 23, Type (0, 0), BuildingBlock: MIFKUJ_clean_linker_0, # of connection points: 2
#     Edge 24, Type (0, 0), BuildingBlock: MIFKUJ_clean_linker_0, # of connection points: 2
#     Edge 25, Type (0, 0), BuildingBlock: MIFKUJ_clean_linker_0, # of connection points: 2
#     Edge 26, Type (0, 0), BuildingBlock: MIFKUJ_clean_linker_0, # of connection points: 2
#     Edge 27, Type (0, 0), BuildingBlock: MIFKUJ_clean_linker_0, # of connection points: 2
#     Edge 28, Type (0, 0), BuildingBlock: MIFKUJ_clean_linker_0, # of connection points: 2
#     Edge 29, Type (0, 0), BuildingBlock: MIFKUJ_clean_linker_0, # of connection points: 2
#     Edge 30, Type (0, 0), BuildingBlock: MIFKUJ_clean_linker_0, # of connection points: 2
#     Edge 31, Type (0, 0), BuildingBlock: MIFKUJ_clean_linker_0, # of connection points: 2
#     Edge 32, Type (0, 0), BuildingBlock: MIFKUJ_clean_linker_0, # of connection points: 2
#     Edge 33, Type (0, 0), BuildingBlock: MIFKUJ_clean_linker_0, # of connection points: 2
#     Edge 34, Type (0, 0), BuildingBlock: MIFKUJ_clean_linker_0, # of connection points: 2
#     Edge 35, Type (0, 0), BuildingBlock: MIFKUJ_clean_linker_0, # of connection points: 2
#     Edge 36, Type (0, 0), BuildingBlock: MIFKUJ_clean_linker_0, # of connection points: 2
#     Edge 37, Type (0, 0), BuildingBlock: MIFKUJ_clean_linker_0, # of connection points: 2
#     Edge 38, Type (0, 0), BuildingBlock: MIFKUJ_clean_linker_0, # of connection points: 2
#     Edge 39, Type (0, 0), BuildingBlock: MIFKUJ_clean_linker_0, # of connection points: 2
#     Edge 40, Type (0, 0), BuildingBlock: MIFKUJ_clean_linker_0, # of connection points: 2
#     Edge 41, Type (0, 0), BuildingBlock: MIFKUJ_clean_linker_0, # of connection points: 2
#     Edge 42, Type (0, 0), BuildingBlock: MIFKUJ_clean_linker_0, # of connection points: 2
#     Edge 43, Type (0, 0), BuildingBlock: MIFKUJ_clean_linker_0, # of connection points: 2
#     Edge 44, Type (0, 0), BuildingBlock: MIFKUJ_clean_linker_0, # of connection points: 2
#     Edge 45, Type (0, 0), BuildingBlock: MIFKUJ_clean_linker_0, # of connection points: 2
#     Edge 46, Type (0, 0), BuildingBlock: MIFKUJ_clean_linker_0, # of connection points: 2
#     Edge 47, Type (0, 0), BuildingBlock: MIFKUJ_clean_linker_0, # of connection points: 2
# Relax obj value: 0.054
# Max RMSD: 0.062
# Mean RMSD: 0.053
data_MOF--net-pcl--node1-TATPOV_clean_sbu_0--edge1-MIFKUJ_clean_linker_0
_symmetry_space_group_name_H-M    P1
_symmetry_Int_Tables_number       1
_symmetry_cell_setting            triclinic
loop_
_symmetry_equiv_pos_as_xyz
'x, y, z'
_cell_length_a     57.135348
_cell_length_b     63.508839
_cell_length_c     57.403654
_cell_angle_alpha  89.979036
_cell_angle_beta   89.997421
_cell_angle_gamma 90.005281
loop_
_atom_site_label
_atom_site_type_symbol
_atom_site_fract_x
_atom_site_fract_y
_atom_site_fract_z
_atom_type_partial_charge
Zn0 Zn 0.12292 0.38441 0.1088 0.0
Zn1 Zn 0.14947 0.35969 0.0824 0.0
O2 O 0.15805 0.38947 0.07033 0.0
O3 O 0.13611 0.40983 0.09239 0.0
O4 O 0.17006 0.33995 0.06387 0.0
O5 O 0.13732 0.37297 0.13787 0.0
O6 O 0.16033 0.35322 0.11619 0.0
C7 C 0.15103 0.40779 0.07622 0.0
C8 C 0.09553 0.35593 0.08186 0.0
O9 O 0.11551 0.35015 0.07426 0.0
O10 O 0.09404 0.37043 0.09689 0.0
C11 C 0.16431 0.33202 0.04435 0.0
O12 O 0.1442 0.3373 0.03491 0.0
C13 C 0.15347 0.35945 0.13616 0.0
Zn14 Zn 0.86081 0.60892 0.6176 0.0
Zn15 Zn 0.84372 0.63863 0.58953 0.0
O16 O 0.8343 0.61072 0.57306 0.0
O17 O 0.84864 0.58639 0.59641 0.0
O18 O 0.82974 0.66174 0.56962 0.0
O19 O 0.84049 0.61847 0.6438 0.0
O20 O 0.82781 0.64432 0.62154 0.0
C21 C 0.83757 0.59137 0.57813 0.0
C22 C 0.8965 0.63629 0.59913 0.0
O23 O 0.87927 0.64456 0.58837 0.0
O24 O 0.89311 0.62113 0.61308 0.0
C25 C 0.82509 0.66001 0.54804 0.0
O26 O 0.82978 0.64225 0.53728 0.0
C27 C 0.8279 0.63465 0.64102 0.0
Zn28 Zn 0.13438 0.60949 0.89765 0.0
Zn29 Zn 0.15665 0.63661 0.92449 0.0
O30 O 0.16363 0.60804 0.94081 0.0
O31 O 0.14165 0.58638 0.92038 0.0
O32 O 0.17388 0.65869 0.94319 0.0
O33 O 0.15621 0.61495 0.8711 0.0
O34 O 0.17187 0.64041 0.89188 0.0
C35 C 0.15544 0.58962 0.93726 0.0
C36 C 0.1038 0.64085 0.91567 0.0
O37 O 0.12201 0.64607 0.92713 0.0
O38 O 0.10467 0.62623 0.90075 0.0
C39 C 0.18065 0.65681 0.96419 0.0
O40 O 0.17637 0.63923 0.97549 0.0
C41 C 0.17048 0.63009 0.87289 0.0
Zn42 Zn 0.86086 0.40178 0.38241 0.0
Zn43 Zn 0.847 0.37208 0.41147 0.0
O44 O 0.83664 0.4002 0.42693 0.0
O45 O 0.84822 0.42479 0.40251 0.0
O46 O 0.8337 0.35033 0.43349 0.0
O47 O 0.84094 0.39021 0.35691 0.0
O48 O 0.83101 0.3641 0.38009 0.0
C49 C 0.83835 0.41962 0.42138 0.0
C50 C 0.89914 0.37693 0.40083 0.0
O51 O 0.88296 0.36756 0.41212 0.0
O52 O 0.89399 0.39168 0.38686 0.0
C53 C 0.83614 0.33069 0.42999 0.0
O54 O 0.8485 0.32431 0.41202 0.0
C55 C 0.82992 0.37322 0.36032 0.0
Zn56 Zn 0.82558 0.60058 0.8944 0.0
Zn57 Zn 0.80888 0.63268 0.91893 0.0
O58 O 0.79707 0.63889 0.88549 0.0
O59 O 0.8101 0.61169 0.86556 0.0
O60 O 0.79363 0.65562 0.93784 0.0
O61 O 0.80881 0.57929 0.91384 0.0
O62 O 0.79647 0.60569 0.93539 0.0
C63 C 0.79892 0.62887 0.86633 0.0
C64 C 0.86165 0.62668 0.91539 0.0
O65 O 0.84437 0.63758 0.92263 0.0
O66 O 0.85811 0.6102 0.90344 0.0
C67 C 0.7981 0.67506 0.93502 0.0
O68 O 0.81378 0.6807 0.91948 0.0
C69 C 0.79751 0.58596 0.93128 0.0
Zn70 Zn 0.18659 0.40091 0.38644 0.0
Zn71 Zn 0.198 0.3694 0.41411 0.0
O72 O 0.21094 0.36052 0.38174 0.0
O73 O 0.20481 0.38859 0.36009 0.0
O74 O 0.21038 0.34645 0.4351 0.0
O75 O 0.20172 0.42251 0.40657 0.0
O76 O 0.21145 0.39641 0.42982 0.0
C77 C 0.213 0.37021 0.3624 0.0
C78 C 0.14648 0.37817 0.40534 0.0
O79 O 0.16197 0.36737 0.41599 0.0
O80 O 0.15266 0.39286 0.3917 0.0
C81 C 0.20646 0.32702 0.43148 0.0
O82 O 0.19297 0.32151 0.41397 0.0
C83 C 0.21153 0.41603 0.42496 0.0
Zn84 Zn 0.84003 0.39252 0.10087 0.0
Zn85 Zn 0.81483 0.36421 0.07934 0.0
O86 O 0.80994 0.35627 0.11412 0.0
O87 O 0.83445 0.37798 0.13131 0.0
O88 O 0.79467 0.3433 0.06225 0.0
O89 O 0.81905 0.4161 0.09072 0.0
O90 O 0.80122 0.39292 0.06845 0.0
C91 C 0.82001 0.36291 0.13253 0.0
C92 C 0.86725 0.36807 0.06899 0.0
O93 O 0.84815 0.35783 0.06706 0.0
O94 O 0.86804 0.38444 0.08155 0.0
C95 C 0.79831 0.32363 0.06411 0.0
O96 O 0.81546 0.317 0.07748 0.0
C97 C 0.80402 0.41188 0.07525 0.0
Zn98 Zn 0.16953 0.59852 0.61427 0.0
Zn99 Zn 0.18961 0.63025 0.59189 0.0
O100 O 0.19973 0.63528 0.62615 0.0
O101 O 0.18224 0.60921 0.64451 0.0
O102 O 0.20561 0.65387 0.57456 0.0
O103 O 0.18832 0.57739 0.59669 0.0
O104 O 0.20305 0.60337 0.57591 0.0
C105 C 0.19518 0.62537 0.64494 0.0
C106 C 0.13622 0.62493 0.59077 0.0
O107 O 0.15443 0.63565 0.58588 0.0
O108 O 0.13804 0.60796 0.60224 0.0
C109 C 0.19943 0.6729 0.57762 0.0
O110 O 0.18235 0.67704 0.59225 0.0
C111 C 0.20135 0.58372 0.58032 0.0
Zn112 Zn 0.64439 0.90218 0.11157 0.0
Zn113 Zn 0.65933 0.87179 0.08385 0.0
O114 O 0.67088 0.89938 0.06858 0.0
O115 O 0.662 0.92433 0.09362 0.0
O116 O 0.67322 0.84967 0.06281 0.0
O117 O 0.65829 0.88782 0.13935 0.0
O118 O 0.67341 0.86388 0.11602 0.0
C119 C 0.67118 0.91873 0.07454 0.0
C120 C 0.60682 0.87917 0.08941 0.0
O121 O 0.62338 0.86786 0.08128 0.0
O122 O 0.61149 0.89491 0.10213 0.0
C123 C 0.66844 0.83022 0.06495 0.0
O124 O 0.65331 0.82429 0.0809 0.0
C125 C 0.67061 0.8715 0.13636 0.0
Zn126 Zn 0.36469 0.10219 0.60871 0.0
Zn127 Zn 0.34757 0.13109 0.58056 0.0
O128 O 0.33548 0.10277 0.56722 0.0
O129 O 0.34644 0.07917 0.59305 0.0
O130 O 0.33232 0.15255 0.55951 0.0
O131 O 0.35199 0.11714 0.63663 0.0
O132 O 0.33494 0.13977 0.61308 0.0
C133 C 0.3359 0.08374 0.57434 0.0
C134 C 0.40052 0.12457 0.58349 0.0
O135 O 0.38331 0.13539 0.57589 0.0
O136 O 0.3969 0.10925 0.59715 0.0
C137 C 0.33552 0.17216 0.56259 0.0
O138 O 0.3497 0.17839 0.57924 0.0
C139 C 0.33898 0.13302 0.63361 0.0
Zn140 Zn 0.63772 0.10741 0.87713 0.0
Zn141 Zn 0.65396 0.13619 0.907 0.0
O142 O 0.66327 0.1077 0.92183 0.0
O143 O 0.6496 0.08393 0.89747 0.0
O144 O 0.66811 0.15708 0.92931 0.0
O145 O 0.65878 0.11866 0.85212 0.0
O146 O 0.67024 0.1439 0.87583 0.0
C147 C 0.66033 0.08848 0.91608 0.0
C148 C 0.60152 0.13412 0.89663 0.0
O149 O 0.61848 0.14204 0.90811 0.0
O150 O 0.60529 0.11958 0.88199 0.0
C151 C 0.66386 0.1767 0.92813 0.0
O152 O 0.64921 0.18364 0.91224 0.0
C153 C 0.67081 0.13502 0.85592 0.0
Zn154 Zn 0.36097 0.88745 0.38718 0.0
Zn155 Zn 0.34341 0.85907 0.41662 0.0
O156 O 0.33471 0.8877 0.43187 0.0
O157 O 0.34948 0.91094 0.40748 0.0
O158 O 0.32942 0.83715 0.43806 0.0
O159 O 0.34001 0.87722 0.36175 0.0
O160 O 0.32698 0.85234 0.38517 0.0
C161 C 0.33835 0.9068 0.42598 0.0
C162 C 0.39623 0.86022 0.40659 0.0
O163 O 0.37885 0.85266 0.41775 0.0
O164 O 0.3931 0.8749 0.39197 0.0
C165 C 0.31004 0.84009 0.44847 0.0
O166 O 0.29901 0.85806 0.44565 0.0
C167 C 0.3271 0.86137 0.36532 0.0
Zn168 Zn 0.32475 0.0983 0.88447 0.0
Zn169 Zn 0.3068 0.13031 0.9082 0.0
O170 O 0.2962 0.1357 0.87417 0.0
O171 O 0.31136 0.10923 0.8546 0.0
O172 O 0.29092 0.15434 0.92503 0.0
O173 O 0.30631 0.07747 0.9029 0.0
O174 O 0.29367 0.10356 0.92482 0.0
C175 C 0.29942 0.126 0.855 0.0
C176 C 0.35983 0.12403 0.90709 0.0
O177 O 0.34223 0.13514 0.91307 0.0
O178 O 0.35689 0.10733 0.89538 0.0
C179 C 0.29875 0.16339 0.94318 0.0
O180 O 0.31855 0.15691 0.95235 0.0
C181 C 0.29458 0.08391 0.92016 0.0
Zn182 Zn 0.66633 0.89741 0.39194 0.0
Zn183 Zn 0.68833 0.86814 0.41535 0.0
O184 O 0.69771 0.86166 0.38116 0.0
O185 O 0.67458 0.88322 0.36187 0.0
O186 O 0.70543 0.84565 0.43361 0.0
O187 O 0.68685 0.92002 0.40519 0.0
O188 O 0.70115 0.89618 0.42911 0.0
C189 C 0.68945 0.86846 0.36196 0.0
C190 C 0.63491 0.87291 0.41914 0.0
O191 O 0.65338 0.86206 0.42263 0.0
O192 O 0.63604 0.88992 0.4077 0.0
C193 C 0.70562 0.82676 0.42625 0.0
O194 O 0.69444 0.8222 0.40689 0.0
C195 C 0.69968 0.9153 0.42237 0.0
Zn196 Zn 0.32478 0.90332 0.11591 0.0
Zn197 Zn 0.31 0.87136 0.08993 0.0
O198 O 0.29804 0.86434 0.12318 0.0
O199 O 0.30933 0.8914 0.14429 0.0
O200 O 0.29715 0.84718 0.07094 0.0
O201 O 0.3075 0.92409 0.09621 0.0
O202 O 0.296 0.89793 0.07382 0.0
C203 C 0.29896 0.87386 0.1427 0.0
C204 C 0.36247 0.87989 0.09435 0.0
O205 O 0.34583 0.86877 0.08613 0.0
O206 O 0.35796 0.89538 0.10751 0.0
C207 C 0.29844 0.8285 0.07885 0.0
O208 O 0.30874 0.82527 0.099 0.0
C209 C 0.29647 0.91759 0.07851 0.0
Zn210 Zn 0.68129 0.10428 0.60712 0.0
Zn211 Zn 0.69629 0.13578 0.58102 0.0
O212 O 0.70792 0.14346 0.61434 0.0
O213 O 0.69686 0.11618 0.63531 0.0
O214 O 0.71082 0.15852 0.5611 0.0
O215 O 0.69796 0.08258 0.58826 0.0
O216 O 0.7093 0.10851 0.56549 0.0
C217 C 0.70702 0.13382 0.63382 0.0
C218 C 0.64387 0.12824 0.58521 0.0
O219 O 0.66058 0.13921 0.57683 0.0
O220 O 0.64832 0.11277 0.59846 0.0
C221 C 0.70795 0.17805 0.56504 0.0
O222 O 0.6944 0.18391 0.58236 0.0
C223 C 0.70874 0.08889 0.57033 0.0
H224 H 0.05505 0.35214 0.10567 0.0
H225 H 0.0171 0.34142 0.09095 0.0
H226 H 0.04774 0.32751 0.02398 0.0
H227 H 0.08637 0.33838 0.0389 0.0
H228 H 0.01038 0.35296 0.01975 0.0
H229 H 0.02242 0.28727 0.05375 0.0
H230 H 0.03548 0.26112 0.0827 0.0
H231 H 0.98623 0.28549 0.13232 0.0
H232 H 0.97311 0.31201 0.10385 0.0
H233 H 0.87703 0.32852 0.05197 0.0
H234 H 0.91545 0.31518 0.03959 0.0
H235 H 0.94506 0.37702 0.04978 0.0
H236 H 0.90713 0.39032 0.06171 0.0
H237 H 0.95244 0.31264 0.06617 0.0
H238 H 0.99001 0.38715 0.0179 0.0
H239 H 0.97692 0.41205 0.98768 0.0
H240 H 0.92701 0.36679 0.96282 0.0
H241 H 0.94003 0.34145 0.99265 0.0
C242 C 0.05388 0.34642 0.08792 0.0
C243 C 0.07363 0.34624 0.07337 0.0
C244 C 0.03215 0.34008 0.07957 0.0
C245 C 0.02955 0.33341 0.05642 0.0
C246 C 0.04941 0.33243 0.04197 0.0
C247 C 0.07141 0.33858 0.05049 0.0
C248 C 0.00552 0.3303 0.04722 0.0
C249 C 0.9977 0.34383 0.02953 0.0
C250 C 0.98908 0.31765 0.05926 0.0
C251 C 0.99672 0.30164 0.07656 0.0
C252 C 0.01443 0.28713 0.07087 0.0
C253 C 0.02185 0.27222 0.0872 0.0
C254 C 0.01167 0.27163 0.10932 0.0
C255 C 0.99405 0.28593 0.11515 0.0
C256 C 0.98656 0.30087 0.09888 0.0
C257 C 0.89165 0.33934 0.05095 0.0
C258 C 0.88911 0.36043 0.05801 0.0
C259 C 0.91358 0.3317 0.04392 0.0
C260 C 0.93315 0.34512 0.04349 0.0
C261 C 0.93022 0.3664 0.04941 0.0
C262 C 0.90849 0.37397 0.05651 0.0
C263 C 0.95726 0.33682 0.0403 0.0
C264 C 0.96508 0.32113 0.05566 0.0
C265 C 0.97368 0.3472 0.02581 0.0
C266 C 0.96605 0.36234 0.00756 0.0
C267 C 0.97641 0.38239 0.00586 0.0
C268 C 0.96895 0.39662 0.98882 0.0
C269 C 0.95115 0.39101 0.97334 0.0
C270 C 0.94078 0.37113 0.97485 0.0
C271 C 0.94818 0.35683 0.99184 0.0
H272 H 0.94538 0.40206 0.96018 0.0
H273 H 0.01746 0.26008 0.12195 0.0
H274 H 0.9346 0.62909 0.62631 0.0
H275 H 0.97522 0.63785 0.61812 0.0
H276 H 0.95447 0.66846 0.55429 0.0
H277 H 0.91336 0.65969 0.56245 0.0
H278 H 0.99022 0.64033 0.5477 0.0
H279 H 0.97603 0.69851 0.59669 0.0
H280 H 0.96092 0.7176 0.63092 0.0
H281 H 0.00567 0.68141 0.67572 0.0
H282 H 0.02081 0.66187 0.64183 0.0
H283 H 0.1218 0.6654 0.58194 0.0
H284 H 0.08143 0.67741 0.57514 0.0
H285 H 0.05747 0.61304 0.57744 0.0
H286 H 0.09735 0.60106 0.58449 0.0
H287 H 0.04454 0.67101 0.60599 0.0
H288 H 0.01275 0.60676 0.54023 0.0
H289 H 0.02785 0.58847 0.50547 0.0
H290 H 0.07513 0.63965 0.49229 0.0
H291 H 0.06009 0.65842 0.52675 0.0
C292 C 0.93856 0.63792 0.61065 0.0
C293 C 0.92075 0.64362 0.59498 0.0
C294 C 0.96181 0.64306 0.60607 0.0
C295 C 0.96787 0.65399 0.58571 0.0
C296 C 0.95013 0.66012 0.57018 0.0
C297 C 0.92669 0.65515 0.57489 0.0
C298 C 0.99297 0.65719 0.58012 0.0
C299 C 0.00211 0.64734 0.56022 0.0
C300 C 0.00841 0.66688 0.59615 0.0
C301 C 0.99954 0.67869 0.61666 0.0
C302 C 0.98257 0.69454 0.61385 0.0
C303 C 0.974 0.70545 0.6332 0.0
C304 C 0.98233 0.70072 0.65548 0.0
C305 C 0.99926 0.68508 0.65845 0.0
C306 C 0.00788 0.67411 0.63916 0.0
C307 C 0.10793 0.65384 0.58058 0.0
C308 C 0.11267 0.63231 0.58389 0.0
C309 C 0.08493 0.66071 0.57675 0.0
C310 C 0.06651 0.6461 0.5756 0.0
C311 C 0.07144 0.62457 0.57794 0.0
C312 C 0.09424 0.61775 0.58214 0.0
C313 C 0.04175 0.653 0.57436 0.0
C314 C 0.03266 0.66464 0.59304 0.0
C315 C 0.02638 0.64513 0.55711 0.0
C316 C 0.03532 0.63398 0.53617 0.0
C317 C 0.02625 0.6142 0.52984 0.0
C318 C 0.03483 0.60372 0.5102 0.0
C319 C 0.05246 0.61288 0.4967 0.0
C320 C 0.06152 0.63255 0.50279 0.0
C321 C 0.05299 0.6431 0.5224 0.0
H322 H 0.05909 0.60473 0.48151 0.0
H323 H 0.97566 0.70918 0.67044 0.0
H324 H 0.87781 0.66568 0.92886 0.0
H325 H 0.9189 0.67694 0.93181 0.0
H326 H 0.94135 0.61374 0.91578 0.0
H327 H 0.90077 0.60258 0.91234 0.0
H328 H 0.95792 0.66548 0.95735 0.0
H329 H 0.98381 0.61459 0.87705 0.0
H330 H 0.96581 0.60194 0.8406 0.0
H331 H 0.91771 0.65387 0.84157 0.0
H332 H 0.93564 0.66701 0.87783 0.0
H333 H 0.0769 0.63542 0.95397 0.0
H334 H 0.03502 0.64289 0.95699 0.0
H335 H 0.03745 0.67524 0.89081 0.0
H336 H 0.07904 0.6665 0.88727 0.0
H337 H 0.00628 0.64853 0.88808 0.0
H338 H 0.02144 0.70019 0.94501 0.0
H339 H 0.03876 0.71626 0.98009 0.0
H340 H 0.00458 0.67027 0.0231 0.0
H341 H 0.98732 0.65371 0.98826 0.0
C342 C 0.89155 0.65418 0.92623 0.0
C343 C 0.88606 0.63332 0.92 0.0
C344 C 0.91498 0.66062 0.92796 0.0
C345 C 0.93315 0.64627 0.92354 0.0
C346 C 0.92761 0.62519 0.91875 0.0
C347 C 0.90437 0.61883 0.9168 0.0
C348 C 0.95795 0.65316 0.92244 0.0
C349 C 0.96858 0.66197 0.94221 0.0
C350 C 0.97161 0.64932 0.90234 0.0
C351 C 0.96101 0.64171 0.88025 0.0
C352 C 0.9695 0.62339 0.86941 0.0
C353 C 0.95928 0.61611 0.8488 0.0
C354 C 0.9406 0.62707 0.8388 0.0
C355 C 0.93214 0.64537 0.84937 0.0
C356 C 0.94231 0.65273 0.86996 0.0
C357 C 0.06857 0.64477 0.94053 0.0
C358 C 0.08101 0.65054 0.92048 0.0
C359 C 0.04463 0.64913 0.94227 0.0
C360 C 0.03291 0.65973 0.92416 0.0
C361 C 0.04597 0.66696 0.90497 0.0
C362 C 0.06974 0.66213 0.903 0.0
C363 C 0.00683 0.66015 0.92341 0.0
C364 C 0.99582 0.65257 0.9032 0.0
C365 C 0.99287 0.66574 0.94289 0.0
C366 C 0.00317 0.67564 0.96396 0.0
C367 C 0.01774 0.6934 0.96193 0.0
C368 C 0.02753 0.70261 0.98178 0.0
C369 C 0.0228 0.69427 0.0038 0.0
C370 C 0.00823 0.67672 0.00602 0.0
C371 C 0.9984 0.66743 0.98623 0.0
H372 H 0.0304 0.70143 0.01915 0.0
H373 H 0.9327 0.6214 0.82286 0.0
H374 H 0.1253 0.34852 0.43359 0.0
H375 H 0.08307 0.34325 0.43958 0.0
H376 H 0.06846 0.39336 0.39097 0.0
H377 H 0.11009 0.39878 0.38505 0.0
H378 H 0.04336 0.39762 0.43059 0.0
H379 H 0.0632 0.3415 0.37584 0.0
H380 H 0.08411 0.30926 0.36401 0.0
H381 H 0.05508 0.27607 0.42245 0.0
H382 H 0.03422 0.30823 0.43478 0.0
H383 H 0.93642 0.39283 0.37727 0.0
H384 H 0.97774 0.38754 0.38516 0.0
H385 H 0.9608 0.3441 0.44036 0.0
H386 H 0.91879 0.34938 0.43262 0.0
H387 H 0.00099 0.33231 0.4088 0.0
H388 H 0.97532 0.38751 0.45898 0.0
H389 H 0.95359 0.41978 0.46909 0.0
H390 H 0.99357 0.45482 0.419 0.0
H391 H 0.01528 0.42268 0.4083 0.0
C392 C 0.11304 0.35837 0.42416 0.0
C393 C 0.12113 0.37413 0.40889 0.0
C394 C 0.08894 0.3553 0.42758 0.0
C395 C 0.07261 0.36795 0.41575 0.0
C396 C 0.08072 0.38352 0.40043 0.0
C397 C 0.10461 0.38656 0.39699 0.0
C398 C 0.04697 0.3655 0.41912 0.0
C399 C 0.03413 0.3833 0.42594 0.0
C400 C 0.03492 0.3466 0.41386 0.0
C401 C 0.04742 0.32732 0.4064 0.0
C402 C 0.06145 0.32738 0.38628 0.0
C403 C 0.07325 0.30911 0.37946 0.0
C404 C 0.071 0.29065 0.39252 0.0
C405 C 0.05686 0.2904 0.41239 0.0
C406 C 0.04504 0.30863 0.41929 0.0
C407 C 0.9413 0.38198 0.39101 0.0
C408 C 0.9242 0.37171 0.4045 0.0
C409 C 0.965 0.37897 0.39546 0.0
C410 C 0.97229 0.36564 0.4135 0.0
C411 C 0.95546 0.35451 0.42639 0.0
C412 C 0.93151 0.35758 0.42197 0.0
C413 C 0.99756 0.36471 0.41927 0.0
C414 C 0.01028 0.34639 0.41419 0.0
C415 C 0.00961 0.38314 0.42615 0.0
C416 C 0.99687 0.40264 0.43278 0.0
C417 C 0.97939 0.40206 0.45002 0.0
C418 C 0.96708 0.42034 0.45587 0.0
C419 C 0.97218 0.43933 0.44468 0.0
C420 C 0.98964 0.4401 0.42766 0.0
C421 C 0.00199 0.42186 0.42172 0.0
H422 H 0.96262 0.45346 0.44922 0.0
H423 H 0.08015 0.27652 0.38721 0.0
H424 H 0.38072 0.84494 0.07231 0.0
H425 H 0.42209 0.83818 0.06293 0.0
H426 H 0.44101 0.89788 0.09336 0.0
H427 H 0.40026 0.90468 0.10278 0.0
H428 H 0.46159 0.89115 0.05016 0.0
H429 H 0.44787 0.85329 0.12351 0.0
H430 H 0.42853 0.82595 0.14722 0.0
H431 H 0.45282 0.77821 0.1001 0.0
H432 H 0.47207 0.80534 0.07595 0.0
H433 H 0.56921 0.90352 0.09971 0.0
H434 H 0.52828 0.89677 0.09156 0.0
H435 H 0.54624 0.83774 0.05906 0.0
H436 H 0.58795 0.84441 0.06725 0.0
H437 H 0.50711 0.8358 0.09105 0.0
H438 H 0.52959 0.874 0.02383 0.0
H439 H 0.54961 0.90184 0.00149 0.0
H440 H 0.50904 0.94902 0.03667 0.0
H441 H 0.48902 0.92151 0.05949 0.0
C442 C 0.39374 0.8566 0.07694 0.0
C443 C 0.38719 0.87533 0.08834 0.0
C444 C 0.41732 0.85271 0.07159 0.0
C445 C 0.43457 0.86757 0.07741 0.0
C446 C 0.42797 0.88626 0.08858 0.0
C447 C 0.40462 0.89007 0.09408 0.0
C448 C 0.45974 0.86399 0.07251 0.0
C449 C 0.47156 0.87894 0.05891 0.0
C450 C 0.47259 0.84758 0.08321 0.0
C451 C 0.46111 0.83134 0.09777 0.0
C452 C 0.44891 0.83698 0.11811 0.0
C453 C 0.438 0.82152 0.13164 0.0
C454 C 0.43937 0.80036 0.12512 0.0
C455 C 0.45172 0.79461 0.10509 0.0
C456 C 0.46263 0.81002 0.09148 0.0
C457 C 0.56466 0.88905 0.0908 0.0
C458 C 0.58195 0.87452 0.08407 0.0
C459 C 0.54116 0.88527 0.08607 0.0
C460 C 0.53425 0.8669 0.07444 0.0
C461 C 0.55129 0.85209 0.06793 0.0
C462 C 0.57506 0.85595 0.07256 0.0
C463 C 0.50901 0.86366 0.06971 0.0
C464 C 0.49714 0.84749 0.08149 0.0
C465 C 0.49603 0.87896 0.05729 0.0
C466 C 0.5078 0.89564 0.0434 0.0
C467 C 0.52501 0.89032 0.02689 0.0
C468 C 0.53636 0.90605 0.01414 0.0
C469 C 0.5306 0.92719 0.01766 0.0
C470 C 0.51346 0.93264 0.03393 0.0
C471 C 0.50206 0.91697 0.04675 0.0
H472 H 0.53942 0.93935 0.00778 0.0
H473 H 0.43093 0.78842 0.13562 0.0
H474 H 0.60592 0.10409 0.59509 0.0
H475 H 0.56525 0.11054 0.58518 0.0
H476 H 0.58429 0.16901 0.55202 0.0
H477 H 0.62567 0.1626 0.56187 0.0
H478 H 0.54343 0.1707 0.58322 0.0
H479 H 0.56993 0.13317 0.51674 0.0
H480 H 0.59149 0.10554 0.49554 0.0
H481 H 0.54975 0.05792 0.52861 0.0
H482 H 0.52817 0.08522 0.55029 0.0
H483 H 0.418 0.16025 0.56202 0.0
H484 H 0.45927 0.16779 0.55274 0.0
H485 H 0.47903 0.10716 0.58037 0.0
H486 H 0.43848 0.09958 0.5895 0.0
H487 H 0.50089 0.11538 0.53926 0.0
H488 H 0.48368 0.15187 0.61284 0.0
H489 H 0.46292 0.17849 0.63634 0.0
H490 H 0.4874 0.22734 0.59068 0.0
H491 H 0.5081 0.20092 0.56676 0.0
C492 C 0.60163 0.11838 0.58571 0.0
C493 C 0.61913 0.13281 0.57922 0.0
C494 C 0.57832 0.12199 0.57998 0.0
C495 C 0.57181 0.14012 0.56765 0.0
C496 C 0.58903 0.15487 0.56145 0.0
C497 C 0.61261 0.15115 0.56704 0.0
C498 C 0.54681 0.14313 0.56165 0.0
C499 C 0.53412 0.15903 0.57299 0.0
C500 C 0.53472 0.12782 0.5484 0.0
C501 C 0.54744 0.11128 0.53517 0.0
C502 C 0.56542 0.1168 0.51958 0.0
C503 C 0.57765 0.10119 0.50747 0.0
C504 C 0.572 0.07999 0.51072 0.0
C505 C 0.55408 0.07435 0.52608 0.0
C506 C 0.54181 0.0899 0.53825 0.0
C507 C 0.43118 0.14852 0.56592 0.0
C508 C 0.42495 0.12937 0.57662 0.0
C509 C 0.45472 0.15286 0.56066 0.0
C510 C 0.47222 0.13802 0.56588 0.0
C511 C 0.46584 0.1188 0.57605 0.0
C512 C 0.44258 0.11455 0.58141 0.0
C513 C 0.49745 0.14223 0.56187 0.0
C514 C 0.51019 0.12762 0.54865 0.0
C515 C 0.50952 0.15863 0.57347 0.0
C516 C 0.49714 0.17443 0.58786 0.0
C517 C 0.48447 0.16827 0.60772 0.0
C518 C 0.47275 0.18332 0.62113 0.0
C519 C 0.47377 0.20459 0.61495 0.0
C520 C 0.48657 0.21085 0.5954 0.0
C521 C 0.4983 0.19586 0.58192 0.0
H522 H 0.46469 0.21621 0.62536 0.0
H523 H 0.5815 0.06793 0.50134 0.0
H524 H 0.5638 0.12794 0.86856 0.0
H525 H 0.52296 0.13602 0.87678 0.0
H526 H 0.54273 0.16368 0.94251 0.0
H527 H 0.584 0.15567 0.93432 0.0
H528 H 0.50731 0.13463 0.94693 0.0
H529 H 0.52162 0.1955 0.90188 0.0
H530 H 0.53674 0.21637 0.86893 0.0
H531 H 0.49198 0.18262 0.82188 0.0
H532 H 0.47684 0.16131 0.85447 0.0
H533 H 0.3759 0.16373 0.91753 0.0
H534 H 0.41686 0.17448 0.92336 0.0
H535 H 0.43882 0.10987 0.91584 0.0
H536 H 0.39834 0.09913 0.90977 0.0
H537 H 0.45309 0.16887 0.89101 0.0
H538 H 0.48418 0.10066 0.95172 0.0
H539 H 0.46906 0.08043 0.98515 0.0
H540 H 0.42303 0.13142 0.00283 0.0
H541 H 0.43812 0.1521 0.96973 0.0
C542 C 0.55957 0.13599 0.88466 0.0
C543 C 0.57714 0.14108 0.90084 0.0
C544 C 0.53619 0.14073 0.88926 0.0
C545 C 0.52981 0.15061 0.91017 0.0
C546 C 0.54732 0.15615 0.92621 0.0
C547 C 0.57086 0.15161 0.92148 0.0
C548 C 0.50463 0.15332 0.91575 0.0
C549 C 0.49545 0.14239 0.93493 0.0
C550 C 0.48922 0.16389 0.90038 0.0
C551 C 0.49813 0.17675 0.88066 0.0
C552 C 0.51509 0.19243 0.88449 0.0
C553 C 0.52366 0.20436 0.86587 0.0
C554 C 0.51533 0.20081 0.84333 0.0
C555 C 0.4984 0.18536 0.83936 0.0
C556 C 0.48978 0.17338 0.85791 0.0
C557 C 0.38947 0.15182 0.91747 0.0
C558 C 0.38394 0.13061 0.91307 0.0
C559 C 0.41282 0.15799 0.92073 0.0
C560 C 0.43083 0.14294 0.9202 0.0
C561 C 0.42518 0.1217 0.91661 0.0
C562 C 0.40203 0.11561 0.913 0.0
C563 C 0.45581 0.14919 0.92142 0.0
C564 C 0.46495 0.16168 0.90343 0.0
C565 C 0.47118 0.14019 0.93799 0.0
C566 C 0.46224 0.12792 0.95815 0.0
C567 C 0.47096 0.10764 0.96283 0.0
C568 C 0.46236 0.09607 0.9817 0.0
C569 C 0.44507 0.10462 0.99608 0.0
C570 C 0.43638 0.12479 0.99164 0.0
C571 C 0.44493 0.13643 0.9728 0.0
H572 H 0.43843 0.09563 0.01068 0.0
H573 H 0.52199 0.21006 0.82894 0.0
H574 H 0.43487 0.86668 0.37985 0.0
H575 H 0.4753 0.85806 0.38908 0.0
H576 H 0.45318 0.82866 0.45315 0.0
H577 H 0.4123 0.83734 0.44399 0.0
H578 H 0.48837 0.85656 0.46026 0.0
H579 H 0.47618 0.79804 0.41135 0.0
H580 H 0.4624 0.77848 0.37689 0.0
H581 H 0.50827 0.81457 0.33311 0.0
H582 H 0.52209 0.83459 0.36723 0.0
H583 H 0.62095 0.83223 0.42763 0.0
H584 H 0.58067 0.81991 0.43424 0.0
H585 H 0.55644 0.88424 0.434 0.0
H586 H 0.59624 0.89652 0.42736 0.0
H587 H 0.54471 0.82597 0.40386 0.0
H588 H 0.51032 0.89024 0.46835 0.0
H589 H 0.52417 0.90876 0.50346 0.0
H590 H 0.57151 0.85799 0.51828 0.0
H591 H 0.55771 0.83899 0.48345 0.0
C592 C 0.43848 0.85813 0.39578 0.0
C593 C 0.42035 0.85279 0.41125 0.0
C594 C 0.46164 0.85306 0.40095 0.0
C595 C 0.46727 0.84253 0.4217 0.0
C596 C 0.4492 0.83669 0.43698 0.0
C597 C 0.42587 0.84161 0.43169 0.0
C598 C 0.49225 0.83958 0.42802 0.0
C599 C 0.50069 0.84958 0.44814 0.0
C600 C 0.50827 0.82992 0.41255 0.0
C601 C 0.50015 0.81785 0.3919 0.0
C602 C 0.48325 0.8019 0.39436 0.0
C603 C 0.47543 0.79072 0.37488 0.0
C604 C 0.48445 0.79528 0.35283 0.0
C605 C 0.50132 0.81103 0.35021 0.0
C606 C 0.50919 0.82227 0.36963 0.0
C607 C 0.60706 0.84371 0.42956 0.0
C608 C 0.61169 0.86533 0.42685 0.0
C609 C 0.5841 0.83666 0.43324 0.0
C610 C 0.56558 0.85116 0.43478 0.0
C611 C 0.57045 0.87276 0.43324 0.0
C612 C 0.59322 0.87977 0.42928 0.0
C613 C 0.54082 0.84412 0.4353 0.0
C614 C 0.53239 0.83233 0.4164 0.0
C615 C 0.52483 0.85194 0.45202 0.0
C616 C 0.53299 0.8632 0.4732 0.0
C617 C 0.52355 0.88293 0.47918 0.0
C618 C 0.53143 0.89354 0.49902 0.0
C619 C 0.54873 0.88457 0.51307 0.0
C620 C 0.55815 0.86495 0.50734 0.0
C621 C 0.55032 0.85426 0.48753 0.0
H622 H 0.55482 0.89282 0.52842 0.0
H623 H 0.47837 0.78661 0.33777 0.0
H624 H 0.19958 0.35026 0.14491 0.0
H625 H 0.21697 0.34297 0.18328 0.0
H626 H 0.14795 0.34213 0.21386 0.0
H627 H 0.13083 0.35029 0.17607 0.0
H628 H 0.17346 0.36911 0.23514 0.0
H629 H 0.18385 0.29754 0.21069 0.0
H630 H 0.19748 0.26888 0.18511 0.0
H631 H 0.26876 0.28797 0.19587 0.0
H632 H 0.25553 0.31695 0.22127 0.0
H633 H 0.20405 0.32991 0.34868 0.0
H634 H 0.20375 0.31821 0.308 0.0
H635 H 0.23997 0.37488 0.28777 0.0
H636 H 0.23975 0.38684 0.32813 0.0
H637 H 0.23255 0.31708 0.26178 0.0
H638 H 0.19936 0.40115 0.25966 0.0
H639 H 0.18446 0.42827 0.28672 0.0
H640 H 0.15398 0.38015 0.32968 0.0
H641 H 0.16835 0.35285 0.30266 0.0
C642 C 0.18821 0.34804 0.15981 0.0
C643 C 0.16395 0.35114 0.15773 0.0
C644 C 0.19811 0.34379 0.18167 0.0
C645 C 0.18377 0.34213 0.20151 0.0
C646 C 0.15939 0.34357 0.19889 0.0
C647 C 0.14962 0.34825 0.1773 0.0
C648 C 0.19384 0.34188 0.22536 0.0
C649 C 0.18626 0.35757 0.24082 0.0
C650 C 0.21067 0.32697 0.23294 0.0
C651 C 0.21867 0.30955 0.21771 0.0
C652 C 0.20242 0.29575 0.20744 0.0
C653 C 0.21007 0.27942 0.19301 0.0
C654 C 0.23396 0.27664 0.18882 0.0
C655 C 0.25025 0.29016 0.19911 0.0
C656 C 0.24269 0.30653 0.21355 0.0
C657 C 0.2131 0.33928 0.33573 0.0
C658 C 0.2215 0.35944 0.34133 0.0
C659 C 0.21301 0.33253 0.3125 0.0
C660 C 0.22149 0.34587 0.29491 0.0
C661 C 0.23329 0.36441 0.30112 0.0
C662 C 0.23303 0.37129 0.32417 0.0
C663 C 0.21191 0.34415 0.27106 0.0
C664 C 0.21965 0.32838 0.25579 0.0
C665 C 0.19473 0.35865 0.26355 0.0
C666 C 0.18511 0.37501 0.2793 0.0
C667 C 0.18934 0.39641 0.27481 0.0
C668 C 0.18101 0.4118 0.29014 0.0
C669 C 0.16834 0.40593 0.30994 0.0
C670 C 0.16383 0.38468 0.31436 0.0
C671 C 0.17206 0.36925 0.29905 0.0
H672 H 0.162 0.41785 0.32184 0.0
H673 H 0.23986 0.26398 0.17764 0.0
H674 H 0.81626 0.67529 0.65292 0.0
H675 H 0.7981 0.68679 0.68973 0.0
H676 H 0.78964 0.62185 0.71022 0.0
H677 H 0.80782 0.61046 0.67405 0.0
H678 H 0.7518 0.64701 0.72376 0.0
H679 H 0.83879 0.64783 0.72479 0.0
H680 H 0.87671 0.6615 0.71079 0.0
H681 H 0.85524 0.72452 0.7275 0.0
H682 H 0.81708 0.71117 0.74138 0.0
H683 H 0.78458 0.60679 0.82869 0.0
H684 H 0.77574 0.62028 0.79008 0.0
H685 H 0.78361 0.68395 0.81511 0.0
H686 H 0.79249 0.67034 0.85428 0.0
H687 H 0.81134 0.676 0.77785 0.0
H688 H 0.731 0.66982 0.79253 0.0
H689 H 0.6944 0.65445 0.80759 0.0
H690 H 0.70257 0.6013 0.76213 0.0
H691 H 0.73941 0.61614 0.74703 0.0
C692 C 0.80998 0.66355 0.66511 0.0
C693 C 0.81366 0.64201 0.66085 0.0
C694 C 0.79964 0.67012 0.68606 0.0
C695 C 0.7926 0.65516 0.70271 0.0
C696 C 0.79482 0.63367 0.6976 0.0
C697 C 0.8054 0.62717 0.677 0.0
C698 C 0.78587 0.66116 0.72673 0.0
C699 C 0.76457 0.65366 0.73564 0.0
C700 C 0.80217 0.67061 0.74204 0.0
C701 C 0.82506 0.67857 0.73381 0.0
C702 C 0.84214 0.66461 0.72533 0.0
C703 C 0.86366 0.67229 0.71744 0.0
C704 C 0.86835 0.69388 0.71818 0.0
C705 C 0.85155 0.70782 0.72688 0.0
C706 C 0.82999 0.70021 0.73474 0.0
C707 C 0.78387 0.62369 0.82616 0.0
C708 C 0.78937 0.63751 0.84442 0.0
C709 C 0.77859 0.63142 0.80409 0.0
C710 C 0.77877 0.65316 0.7997 0.0
C711 C 0.78317 0.66713 0.81817 0.0
C712 C 0.78818 0.65935 0.8405 0.0
C713 C 0.77788 0.66048 0.77516 0.0
C714 C 0.79783 0.67043 0.76608 0.0
C715 C 0.7603 0.65324 0.75974 0.0
C716 C 0.73802 0.64417 0.76859 0.0
C717 C 0.72507 0.65481 0.7858 0.0
C718 C 0.70426 0.64619 0.79435 0.0
C719 C 0.69615 0.62693 0.7858 0.0
C720 C 0.70884 0.61625 0.76868 0.0
C721 C 0.72967 0.6248 0.76007 0.0
H722 H 0.68004 0.62027 0.79246 0.0
H723 H 0.88502 0.6998 0.71208 0.0
H724 H 0.1887 0.6688 0.86129 0.0
H725 H 0.20732 0.67848 0.8241 0.0
H726 H 0.2028 0.61382 0.8015 0.0
H727 H 0.18425 0.60421 0.83812 0.0
H728 H 0.24439 0.63305 0.78764 0.0
H729 H 0.15895 0.64805 0.78933 0.0
H730 H 0.12486 0.66738 0.80481 0.0
H731 H 0.15836 0.7262 0.78888 0.0
H732 H 0.19276 0.70714 0.77353 0.0
H733 H 0.20299 0.60119 0.68285 0.0
H734 H 0.21357 0.6125 0.72181 0.0
H735 H 0.21888 0.67678 0.69797 0.0
H736 H 0.20817 0.66535 0.65834 0.0
H737 H 0.1904 0.67268 0.73608 0.0
H738 H 0.26789 0.65409 0.71903 0.0
H739 H 0.30036 0.63342 0.70243 0.0
H740 H 0.28258 0.58118 0.74649 0.0
H741 H 0.24978 0.60136 0.76312 0.0
C742 C 0.19218 0.65664 0.84853 0.0
C743 C 0.1848 0.63581 0.85242 0.0
C744 C 0.20278 0.66219 0.82734 0.0
C745 C 0.20636 0.64687 0.81003 0.0
C746 C 0.20033 0.62588 0.81464 0.0
C747 C 0.18954 0.62043 0.83551 0.0
C748 C 0.21359 0.65245 0.78603 0.0
C749 C 0.23289 0.64198 0.77632 0.0
C750 C 0.19912 0.66485 0.77147 0.0
C751 C 0.17847 0.67622 0.78059 0.0
C752 C 0.15907 0.6651 0.78928 0.0
C753 C 0.13971 0.676 0.79801 0.0
C754 C 0.13948 0.69801 0.79791 0.0
C755 C 0.15859 0.70916 0.78901 0.0
C756 C 0.17802 0.69832 0.7803 0.0
C757 C 0.20677 0.61771 0.68573 0.0
C758 C 0.20459 0.63242 0.6676 0.0
C759 C 0.21308 0.62414 0.708 0.0
C760 C 0.21735 0.64546 0.71278 0.0
C761 C 0.2159 0.66022 0.69458 0.0
C762 C 0.20982 0.65369 0.67201 0.0
C763 C 0.22026 0.65197 0.73742 0.0
C764 C 0.20282 0.6647 0.74732 0.0
C765 C 0.23648 0.64161 0.75213 0.0
C766 C 0.25636 0.62933 0.7424 0.0
C767 C 0.27083 0.63817 0.72514 0.0
C768 C 0.28931 0.62653 0.71571 0.0
C769 C 0.29354 0.60601 0.72342 0.0
C770 C 0.27932 0.5971 0.74058 0.0
C771 C 0.26081 0.60867 0.75007 0.0
H772 H 0.30785 0.59702 0.71608 0.0
H773 H 0.12447 0.70642 0.80466 0.0
H774 H 0.78287 0.33781 0.14598 0.0
H775 H 0.7742 0.32532 0.1857 0.0
H776 H 0.83782 0.35438 0.21036 0.0
H777 H 0.84653 0.36658 0.17134 0.0
H778 H 0.8312 0.31695 0.23125 0.0
H779 H 0.78433 0.38059 0.21186 0.0
H780 H 0.75357 0.39871 0.18925 0.0
H781 H 0.70389 0.35118 0.20901 0.0
H782 H 0.73447 0.33272 0.23157 0.0
H783 H 0.81241 0.39376 0.32294 0.0
H784 H 0.79853 0.37856 0.28675 0.0
H785 H 0.80409 0.31624 0.31627 0.0
H786 H 0.81849 0.33159 0.35292 0.0
H787 H 0.76502 0.354 0.26921 0.0
H788 H 0.82694 0.28552 0.27304 0.0
H789 H 0.86098 0.27231 0.29521 0.0
H790 H 0.88468 0.33574 0.30604 0.0
H791 H 0.85089 0.34924 0.28377 0.0
C792 C 0.79512 0.3412 0.15988 0.0
C793 C 0.81523 0.35341 0.15559 0.0
C794 C 0.79016 0.33406 0.18251 0.0
C795 C 0.80536 0.33893 0.20101 0.0
C796 C 0.82591 0.35026 0.19639 0.0
C797 C 0.83075 0.35744 0.17403 0.0
C798 C 0.79944 0.33452 0.2257 0.0
C799 C 0.8163 0.32443 0.23956 0.0
C800 C 0.77996 0.3441 0.23659 0.0
C801 C 0.76167 0.35518 0.2231 0.0
C802 C 0.76686 0.37397 0.21125 0.0
C803 C 0.74947 0.3843 0.19847 0.0
C804 C 0.7268 0.37606 0.19763 0.0
C805 C 0.72147 0.35751 0.20962 0.0
C806 C 0.73881 0.34711 0.22239 0.0
C807 C 0.81026 0.37683 0.32197 0.0
C808 C 0.81699 0.36383 0.34059 0.0
C809 C 0.80205 0.36814 0.30129 0.0
C810 C 0.8005 0.34623 0.29864 0.0
C811 C 0.80532 0.33319 0.31788 0.0
C812 C 0.81351 0.34196 0.33879 0.0
C813 C 0.79767 0.33774 0.2747 0.0
C814 C 0.7791 0.34527 0.26098 0.0
C815 C 0.81589 0.32625 0.26388 0.0
C816 C 0.83632 0.31834 0.27705 0.0
C817 C 0.83945 0.2966 0.28016 0.0
C818 C 0.85869 0.28907 0.29272 0.0
C819 C 0.87494 0.30318 0.3021 0.0
C820 C 0.87205 0.32483 0.29883 0.0
C821 C 0.85288 0.33243 0.28625 0.0
H822 H 0.88979 0.29732 0.31185 0.0
H823 H 0.71336 0.38408 0.18774 0.0
H824 H 0.66129 0.8625 0.32501 0.0
H825 H 0.67175 0.84954 0.28654 0.0
H826 H 0.74304 0.84029 0.30907 0.0
H827 H 0.73234 0.85289 0.34838 0.0
H828 H 0.73586 0.86601 0.26672 0.0
H829 H 0.71999 0.79795 0.29347 0.0
H830 H 0.70007 0.76994 0.31562 0.0
H831 H 0.63725 0.78009 0.27615 0.0
H832 H 0.65662 0.8084 0.25401 0.0
H833 H 0.71451 0.85452 0.14225 0.0
H834 H 0.73126 0.84117 0.1791 0.0
H835 H 0.66487 0.85124 0.21314 0.0
H836 H 0.64855 0.86505 0.17703 0.0
H837 H 0.68864 0.81205 0.22553 0.0
H838 H 0.70191 0.88944 0.21585 0.0
H839 H 0.72004 0.91917 0.19483 0.0
H840 H 0.78776 0.8907 0.20276 0.0
H841 H 0.76991 0.86069 0.22363 0.0
C842 C 0.67914 0.85744 0.32193 0.0
C843 C 0.69605 0.85879 0.33957 0.0
C844 C 0.68506 0.84989 0.29999 0.0
C845 C 0.70811 0.84379 0.29504 0.0
C846 C 0.72511 0.84475 0.31268 0.0
C847 C 0.719 0.85191 0.33502 0.0
C848 C 0.71401 0.83858 0.27061 0.0
C849 C 0.72645 0.85362 0.25768 0.0
C850 C 0.70176 0.82241 0.25887 0.0
C851 C 0.68985 0.8053 0.27199 0.0
C852 C 0.7019 0.79429 0.28956 0.0
C853 C 0.69069 0.77835 0.30212 0.0
C854 C 0.66742 0.77322 0.29727 0.0
C855 C 0.65531 0.78404 0.27984 0.0
C856 C 0.66642 0.8 0.26723 0.0
C857 C 0.70352 0.85348 0.15758 0.0
C858 C 0.68035 0.86092 0.15701 0.0
C859 C 0.71304 0.84586 0.17851 0.0
C860 C 0.69922 0.84513 0.19874 0.0
C861 C 0.67575 0.85149 0.19767 0.0
C862 C 0.6665 0.85952 0.17711 0.0
C863 C 0.70912 0.84027 0.22193 0.0
C864 C 0.69944 0.82349 0.23455 0.0
C865 C 0.72393 0.85477 0.23341 0.0
C866 C 0.73459 0.87277 0.22099 0.0
C867 C 0.72064 0.88949 0.21295 0.0
C868 C 0.73086 0.90638 0.2011 0.0
C869 C 0.75503 0.90679 0.19739 0.0
C870 C 0.76903 0.89033 0.20559 0.0
C871 C 0.75888 0.87338 0.21742 0.0
H872 H 0.76292 0.91989 0.18822 0.0
H873 H 0.65878 0.76088 0.30702 0.0
H874 H 0.28779 0.16696 0.84466 0.0
H875 H 0.28021 0.18158 0.80573 0.0
H876 H 0.28456 0.1191 0.77647 0.0
H877 H 0.29186 0.1046 0.81488 0.0
H878 H 0.31083 0.18086 0.77186 0.0
H879 H 0.25572 0.11252 0.72912 0.0
H880 H 0.22041 0.092 0.73862 0.0
H881 H 0.19755 0.14069 0.78523 0.0
H882 H 0.23254 0.16171 0.77575 0.0
H883 H 0.35628 0.13278 0.6774 0.0
H884 H 0.33807 0.14616 0.71261 0.0
H885 H 0.27991 0.16973 0.67236 0.0
H886 H 0.29842 0.15632 0.63652 0.0
H887 H 0.26579 0.14545 0.70924 0.0
H888 H 0.31146 0.20558 0.70071 0.0
H889 H 0.34588 0.22729 0.6911 0.0
H890 H 0.38461 0.19832 0.74661 0.0
H891 H 0.35059 0.17618 0.75635 0.0
C892 C 0.28643 0.15634 0.82996 0.0
C893 C 0.29067 0.13467 0.83274 0.0
C894 C 0.28212 0.16471 0.80775 0.0
C895 C 0.28157 0.15145 0.78816 0.0
C896 C 0.28435 0.12966 0.79129 0.0
C897 C 0.28883 0.12138 0.81329 0.0
C898 C 0.28211 0.16004 0.7641 0.0
C899 C 0.30063 0.17353 0.75816 0.0
C900 C 0.26811 0.15128 0.74619 0.0
C901 C 0.24682 0.13876 0.75166 0.0
C902 C 0.24307 0.119 0.7412 0.0
C903 C 0.22313 0.10723 0.74665 0.0
C904 C 0.20674 0.11504 0.76251 0.0
C905 C 0.21027 0.13464 0.77296 0.0
C906 C 0.23018 0.14648 0.76758 0.0
C907 C 0.33978 0.14108 0.67591 0.0
C908 C 0.32868 0.14338 0.65424 0.0
C909 C 0.32947 0.14893 0.69606 0.0
C910 C 0.30776 0.15919 0.6951 0.0
C911 C 0.29679 0.16204 0.67342 0.0
C912 C 0.30736 0.1544 0.65302 0.0
C913 C 0.29591 0.16442 0.71733 0.0
C914 C 0.27528 0.15357 0.72291 0.0
C915 C 0.30771 0.17589 0.73489 0.0
C916 C 0.32835 0.18924 0.72931 0.0
C917 C 0.32733 0.20377 0.71083 0.0
C918 C 0.3468 0.21616 0.70535 0.0
C919 C 0.36741 0.21421 0.71826 0.0
C920 C 0.36861 0.19986 0.73667 0.0
C921 C 0.3492 0.18742 0.74222 0.0
H922 H 0.38246 0.2238 0.71398 0.0
H923 H 0.19133 0.10589 0.76671 0.0
H924 H 0.68068 0.1764 0.84588 0.0
H925 H 0.69949 0.18982 0.81019 0.0
H926 H 0.71207 0.12602 0.78765 0.0
H927 H 0.69309 0.1127 0.82267 0.0
H928 H 0.74949 0.15422 0.77701 0.0
H929 H 0.66255 0.14921 0.7719 0.0
H930 H 0.62317 0.16018 0.78476 0.0
H931 H 0.64059 0.22481 0.77111 0.0
H932 H 0.68017 0.21417 0.75841 0.0
H933 H 0.72482 0.11321 0.67093 0.0
H934 H 0.73207 0.12728 0.70956 0.0
H935 H 0.71672 0.18996 0.68481 0.0
H936 H 0.70933 0.1757 0.64562 0.0
H937 H 0.68993 0.18006 0.72101 0.0
H938 H 0.77077 0.18018 0.70948 0.0
H939 H 0.80945 0.16829 0.69581 0.0
H940 H 0.80515 0.114 0.74018 0.0
H941 H 0.76629 0.12533 0.75387 0.0
C942 C 0.68797 0.16534 0.83349 0.0
C943 C 0.68525 0.14354 0.83682 0.0
C944 C 0.69869 0.173 0.81319 0.0
C945 C 0.70715 0.15889 0.79631 0.0
C946 C 0.70582 0.13717 0.80051 0.0
C947 C 0.69479 0.12958 0.82043 0.0
C948 C 0.71445 0.16595 0.77281 0.0
C949 C 0.73671 0.1602 0.7647 0.0
C950 C 0.69808 0.17463 0.75704 0.0
C951 C 0.67432 0.18095 0.76451 0.0
C952 C 0.65799 0.16576 0.77179 0.0
C953 C 0.63565 0.17191 0.77903 0.0
C954 C 0.62941 0.19319 0.77882 0.0
C955 C 0.64547 0.20835 0.77132 0.0
C956 C 0.66785 0.20227 0.76411 0.0
C957 C 0.72364 0.13008 0.67351 0.0
C958 C 0.71634 0.14335 0.65536 0.0
C959 C 0.72802 0.13818 0.69561 0.0
C960 C 0.72516 0.15975 0.70013 0.0
C961 C 0.71922 0.1733 0.68167 0.0
C962 C 0.71507 0.16516 0.65931 0.0
C963 C 0.72452 0.16687 0.72478 0.0
C964 C 0.70341 0.17523 0.73321 0.0
C965 C 0.74206 0.16069 0.74081 0.0
C966 C 0.76555 0.15369 0.73277 0.0
C967 C 0.778 0.16565 0.71626 0.0
C968 C 0.79998 0.159 0.7085 0.0
C969 C 0.80976 0.14041 0.71713 0.0
C970 C 0.79758 0.12843 0.73355 0.0
C971 C 0.77558 0.135 0.74138 0.0
H972 H 0.82677 0.13529 0.71109 0.0
H973 H 0.6121 0.19793 0.78442 0.0
H974 H 0.28454 0.89415 0.18159 0.0
H975 H 0.27566 0.87879 0.21937 0.0
H976 H 0.28305 0.81643 0.19047 0.0
H977 H 0.29203 0.83189 0.1522 0.0
H978 H 0.24451 0.85093 0.23914 0.0
H979 H 0.31399 0.78869 0.23248 0.0
H980 H 0.34779 0.77845 0.20813 0.0
H981 H 0.3626 0.84358 0.19434 0.0
H982 H 0.32905 0.85414 0.21878 0.0
H983 H 0.31749 0.82053 0.35275 0.0
H984 H 0.29881 0.80897 0.31619 0.0
H985 H 0.28542 0.87384 0.29819 0.0
H986 H 0.30419 0.88526 0.33403 0.0
H987 H 0.31674 0.82046 0.27323 0.0
H988 H 0.23778 0.87935 0.26771 0.0
H989 H 0.20581 0.89158 0.29312 0.0
H990 H 0.21111 0.83506 0.33382 0.0
H991 H 0.24288 0.82229 0.30846 0.0
C992 C 0.2838 0.87715 0.18311 0.0
C993 C 0.28932 0.86422 0.16406 0.0
C994 C 0.27851 0.86837 0.20469 0.0
C995 C 0.27888 0.84647 0.2078 0.0
C996 C 0.28276 0.83338 0.18844 0.0
C997 C 0.28786 0.84222 0.16662 0.0
C998 C 0.27863 0.83818 0.23195 0.0
C999 C 0.26009 0.84393 0.24667 0.0
C1000 C 0.29857 0.82826 0.24161 0.0
C1001 C 0.31891 0.82214 0.22716 0.0
C1002 C 0.32451 0.80079 0.22425 0.0
C1003 C 0.34361 0.79494 0.21045 0.0
C1004 C 0.35728 0.81035 0.19962 0.0
C1005 C 0.35196 0.83165 0.20267 0.0
C1006 C 0.33291 0.83758 0.21648 0.0
C1007 C 0.30995 0.83218 0.3412 0.0
C1008 C 0.31236 0.85376 0.34602 0.0
C1009 C 0.29934 0.82559 0.32038 0.0
C1010 C 0.29049 0.84053 0.30459 0.0
C1011 C 0.29169 0.86199 0.31026 0.0
C1012 C 0.30261 0.86853 0.33067 0.0
C1013 C 0.2833 0.83466 0.28064 0.0
C1014 C 0.3005 0.82629 0.26585 0.0
C1015 C 0.26216 0.8423 0.27098 0.0
C1016 C 0.24275 0.84983 0.2861 0.0
C1017 C 0.232 0.8694 0.28192 0.0
C1018 C 0.21394 0.87647 0.29637 0.0
C1019 C 0.20643 0.86411 0.31507 0.0
C1020 C 0.21696 0.84464 0.31935 0.0
C1021 C 0.23502 0.83749 0.30496 0.0
H1022 H 0.19245 0.86962 0.32624 0.0
H1023 H 0.37203 0.80579 0.18892 0.0
H1024 H 0.31105 0.18729 0.981 0.0
H1025 H 0.28949 0.21683 0.99793 0.0
H1026 H 0.23538 0.20928 0.9462 0.0
H1027 H 0.25696 0.17999 0.92895 0.0
H1028 H 0.24628 0.24995 0.95156 0.0
H1029 H 0.2279 0.19191 0.0023 0.0
H1030 H 0.23679 0.16216 0.02847 0.0
H1031 H 0.27317 0.20385 0.07489 0.0
H1032 H 0.26476 0.23382 0.04883 0.0
H1033 H 0.15561 0.30947 0.00466 0.0
H1034 H 0.17984 0.28194 0.98731 0.0
H1035 H 0.23172 0.29102 0.04098 0.0
H1036 H 0.20738 0.31831 0.0587 0.0
H1037 H 0.22331 0.25031 0.0349 0.0
H1038 H 0.24059 0.30863 0.98485 0.0
H1039 H 0.23161 0.3384 0.95876 0.0
H1040 H 0.19737 0.29639 0.91109 0.0
H1041 H 0.20588 0.26639 0.93706 0.0
C1042 C 0.29455 0.19189 0.97323 0.0
C1043 C 0.2857 0.18121 0.95366 0.0
C1044 C 0.2822 0.20875 0.98298 0.0
C1045 C 0.26068 0.21515 0.97348 0.0
C1046 C 0.25193 0.20463 0.95383 0.0
C1047 C 0.26428 0.18782 0.94404 0.0
C1048 C 0.24725 0.23282 0.98394 0.0
C1049 C 0.24102 0.24992 0.96972 0.0
C1050 C 0.24089 0.23305 0.00777 0.0
C1051 C 0.24591 0.21506 0.02349 0.0
C1052 C 0.23796 0.1947 0.01799 0.0
C1053 C 0.24288 0.1778 0.03282 0.0
C1054 C 0.25559 0.1811 0.05329 0.0
C1055 C 0.26336 0.20131 0.05901 0.0
C1056 C 0.2585 0.21826 0.04423 0.0
C1057 C 0.17224 0.30573 0.0127 0.0
C1058 C 0.17955 0.31612 0.03307 0.0
C1059 C 0.18614 0.29002 0.0027 0.0
C1060 C 0.20773 0.28453 0.0127 0.0
C1061 C 0.21514 0.29498 0.03294 0.0
C1062 C 0.20122 0.31064 0.04301 0.0
C1063 C 0.22222 0.26742 0.0025 0.0
C1064 C 0.22865 0.25041 0.01676 0.0
C1065 C 0.22877 0.26728 0.97871 0.0
C1066 C 0.22369 0.28529 0.96301 0.0
C1067 C 0.23099 0.30576 0.96889 0.0
C1068 C 0.22601 0.32267 0.95411 0.0
C1069 C 0.21388 0.3193 0.93331 0.0
C1070 C 0.20675 0.29898 0.92722 0.0
C1071 C 0.21166 0.28201 0.94195 0.0
H1072 H 0.21004 0.33241 0.92189 0.0
H1073 H 0.25938 0.168 0.06475 0.0
H1074 H 0.81614 0.69976 0.56412 0.0
H1075 H 0.79678 0.72856 0.54355 0.0
H1076 H 0.78874 0.68903 0.48297 0.0
H1077 H 0.80859 0.66027 0.50326 0.0
H1078 H 0.80191 0.72731 0.47029 0.0
H1079 H 0.74268 0.69891 0.52044 0.0
H1080 H 0.72557 0.68721 0.5577 0.0
H1081 H 0.733 0.74962 0.58549 0.0
H1082 H 0.75045 0.76163 0.54848 0.0
H1083 H 0.71381 0.78629 0.41235 0.0
H1084 H 0.73509 0.75883 0.43331 0.0
H1085 H 0.74771 0.80183 0.49006 0.0
H1086 H 0.7264 0.82949 0.46919 0.0
H1087 H 0.73269 0.76257 0.50499 0.0
H1088 H 0.79107 0.79085 0.45366 0.0
H1089 H 0.8073 0.80206 0.41584 0.0
H1090 H 0.80034 0.73906 0.38961 0.0
H1091 H 0.78374 0.72753 0.42719 0.0
C1092 C 0.8103 0.69718 0.54641 0.0
C1093 C 0.81382 0.67766 0.53538 0.0
C1094 C 0.79913 0.71366 0.53469 0.0
C1095 C 0.79096 0.71089 0.51182 0.0
C1096 C 0.79483 0.69154 0.50062 0.0
C1097 C 0.80614 0.67508 0.51228 0.0
C1098 C 0.77835 0.72813 0.49958 0.0
C1099 C 0.7866 0.73483 0.47777 0.0
C1100 C 0.75864 0.73828 0.50952 0.0
C1101 C 0.74809 0.73112 0.53177 0.0
C1102 C 0.74083 0.7101 0.53456 0.0
C1103 C 0.73104 0.70342 0.55562 0.0
C1104 C 0.72826 0.71765 0.57397 0.0
C1105 C 0.7352 0.73861 0.57127 0.0
C1106 C 0.74502 0.74537 0.55025 0.0
C1107 C 0.7211 0.78995 0.42929 0.0
C1108 C 0.71845 0.81011 0.43908 0.0
C1109 C 0.73334 0.77424 0.44121 0.0
C1110 C 0.74316 0.77834 0.46315 0.0
C1111 C 0.74031 0.79836 0.47312 0.0
C1112 C 0.72819 0.81415 0.46114 0.0
C1113 C 0.75623 0.76165 0.47573 0.0
C1114 C 0.74804 0.75506 0.49758 0.0
C1115 C 0.77588 0.75151 0.46576 0.0
C1116 C 0.78595 0.75838 0.44318 0.0
C1117 C 0.79282 0.77942 0.43977 0.0
C1118 C 0.80212 0.78583 0.41838 0.0
C1119 C 0.80479 0.7713 0.40031 0.0
C1120 C 0.79823 0.75031 0.40361 0.0
C1121 C 0.78889 0.74383 0.42496 0.0
H1122 H 0.812 0.77629 0.38377 0.0
H1123 H 0.72067 0.71245 0.59027 0.0
H1124 H 0.29294 0.78798 0.09384 0.0
H1125 H 0.27384 0.75894 0.07355 0.0
H1126 H 0.26061 0.79942 0.01462 0.0
H1127 H 0.27919 0.82877 0.03511 0.0
H1128 H 0.22293 0.77746 0.02432 0.0
H1129 H 0.30386 0.76077 0.01369 0.0
H1130 H 0.34468 0.75426 0.02565 0.0
H1131 H 0.32234 0.7022 0.06791 0.0
H1132 H 0.28133 0.70858 0.05646 0.0
H1133 H 0.19058 0.69571 0.94626 0.0
H1134 H 0.21129 0.72466 0.96521 0.0
H1135 H 0.22 0.68682 0.027 0.0
H1136 H 0.19944 0.65764 0.00811 0.0
H1137 H 0.26033 0.70746 0.01501 0.0
H1138 H 0.17904 0.72497 0.02547 0.0
H1139 H 0.13852 0.73162 0.01262 0.0
H1140 H 0.16228 0.78243 0.96928 0.0
H1141 H 0.203 0.7759 0.98164 0.0
C1142 C 0.28609 0.79071 0.07651 0.0
C1143 C 0.28764 0.8107 0.06608 0.0
C1144 C 0.27525 0.77403 0.06487 0.0
C1145 C 0.26604 0.77688 0.0424 0.0
C1146 C 0.26761 0.79682 0.03192 0.0
C1147 C 0.2783 0.81357 0.04364 0.0
C1148 C 0.25419 0.75921 0.03016 0.0
C1149 C 0.23128 0.76226 0.02196 0.0
C1150 C 0.26484 0.73921 0.0275 0.0
C1151 C 0.28949 0.73528 0.03438 0.0
C1152 C 0.30763 0.74804 0.02568 0.0
C1153 C 0.3308 0.74435 0.03234 0.0
C1154 C 0.33609 0.72786 0.04758 0.0
C1155 C 0.31822 0.71499 0.05613 0.0
C1156 C 0.29501 0.71862 0.04954 0.0
C1157 C 0.19688 0.6935 0.96389 0.0
C1158 C 0.19326 0.67436 0.9757 0.0
C1159 C 0.20865 0.71012 0.97472 0.0
C1160 C 0.21698 0.70798 0.9976 0.0
C1161 C 0.21368 0.68881 0.00934 0.0
C1162 C 0.20185 0.67218 0.99854 0.0
C1163 C 0.22914 0.72575 0.00926 0.0
C1164 C 0.25207 0.72269 0.01733 0.0
C1165 C 0.21858 0.74579 0.01167 0.0
C1166 C 0.19409 0.74981 0.00431 0.0
C1167 C 0.17564 0.73746 0.01306 0.0
C1168 C 0.15264 0.74122 0.00589 0.0
C1169 C 0.14784 0.7574 0.9901 0.0
C1170 C 0.16603 0.76989 0.98149 0.0
C1171 C 0.18907 0.76617 0.98859 0.0
H1172 H 0.13001 0.76029 0.98457 0.0
H1173 H 0.35405 0.72503 0.05271 0.0
H1174 H 0.70492 0.22102 0.56788 0.0
H1175 H 0.72675 0.24712 0.54529 0.0
H1176 H 0.76139 0.1973 0.50766 0.0
H1177 H 0.73979 0.17109 0.53026 0.0
H1178 H 0.79216 0.22708 0.52184 0.0
H1179 H 0.7183 0.22545 0.48216 0.0
H1180 H 0.67534 0.22736 0.47871 0.0
H1181 H 0.67635 0.29082 0.50447 0.0
H1182 H 0.71932 0.28919 0.50839 0.0
H1183 H 0.8391 0.28769 0.42854 0.0
H1184 H 0.81769 0.26223 0.45236 0.0
H1185 H 0.78425 0.31306 0.48942 0.0
H1186 H 0.8055 0.33865 0.4656 0.0
H1187 H 0.75291 0.2832 0.47612 0.0
H1188 H 0.82687 0.28501 0.51525 0.0
H1189 H 0.86983 0.28308 0.51866 0.0
H1190 H 0.86867 0.21929 0.49393 0.0
H1191 H 0.8257 0.22093 0.49005 0.0
C1192 C 0.71711 0.2156 0.55474 0.0
C1193 C 0.72057 0.19395 0.55086 0.0
C1194 C 0.72953 0.23055 0.54179 0.0
C1195 C 0.7456 0.22417 0.52467 0.0
C1196 C 0.7491 0.20258 0.52079 0.0
C1197 C 0.73665 0.18762 0.53367 0.0
C1198 C 0.75903 0.23997 0.51103 0.0
C1199 C 0.78358 0.23919 0.5116 0.0
C1200 C 0.74784 0.25609 0.49813 0.0
C1201 C 0.72201 0.25712 0.4958 0.0
C1202 C 0.70935 0.23975 0.48728 0.0
C1203 C 0.685 0.2408 0.4852 0.0
C1204 C 0.67311 0.25918 0.49143 0.0
C1205 C 0.68557 0.27658 0.49969 0.0
C1206 C 0.70993 0.27561 0.50183 0.0
C1207 C 0.8273 0.29348 0.44184 0.0
C1208 C 0.82404 0.31523 0.44516 0.0
C1209 C 0.81512 0.27889 0.4555 0.0
C1210 C 0.79947 0.28574 0.47278 0.0
C1211 C 0.79624 0.30743 0.47619 0.0
C1212 C 0.80848 0.32203 0.46261 0.0
C1213 C 0.78605 0.27027 0.48688 0.0
C1214 C 0.7615 0.27112 0.4864 0.0
C1215 C 0.79724 0.25421 0.49985 0.0
C1216 C 0.82308 0.25317 0.50213 0.0
C1217 C 0.83579 0.27063 0.51034 0.0
C1218 C 0.86014 0.26957 0.51239 0.0
C1219 C 0.87198 0.25109 0.50645 0.0
C1220 C 0.85948 0.2336 0.49849 0.0
C1221 C 0.83512 0.23458 0.49638 0.0
H1222 H 0.89083 0.2503 0.50807 0.0
H1223 H 0.65426 0.25996 0.4898 0.0
H1224 H 0.66144 0.78758 0.06391 0.0
H1225 H 0.68308 0.7614 0.04132 0.0
H1226 H 0.72533 0.81069 0.01119 0.0
H1227 H 0.70348 0.837 0.03333 0.0
H1228 H 0.71329 0.7827 0.97882 0.0
H1229 H 0.74596 0.77968 0.05591 0.0
H1230 H 0.74486 0.77601 0.09867 0.0
H1231 H 0.71549 0.71408 0.09184 0.0
H1232 H 0.71612 0.7175 0.04902 0.0
H1233 H 0.80445 0.71781 0.93488 0.0
H1234 H 0.78233 0.74424 0.95668 0.0
H1235 H 0.74002 0.69519 0.98721 0.0
H1236 H 0.76233 0.66867 0.96588 0.0
H1237 H 0.75216 0.72318 0.01931 0.0
H1238 H 0.71957 0.72618 0.94216 0.0
H1239 H 0.72073 0.72986 0.89941 0.0
H1240 H 0.75006 0.79179 0.90631 0.0
H1241 H 0.74936 0.78837 0.94912 0.0
C1242 C 0.67527 0.79287 0.0524 0.0
C1243 C 0.68081 0.81438 0.05053 0.0
C1244 C 0.6877 0.77787 0.03958 0.0
C1245 C 0.70609 0.78404 0.02483 0.0
C1246 C 0.71127 0.80554 0.0225 0.0
C1247 C 0.69877 0.82056 0.03522 0.0
C1248 C 0.72011 0.76811 0.01201 0.0
C1249 C 0.72204 0.76983 0.9877 0.0
C1250 C 0.73114 0.75106 0.02353 0.0
C1251 C 0.73088 0.74893 0.04927 0.0
C1252 C 0.73911 0.76534 0.06353 0.0
C1253 C 0.7386 0.7633 0.08778 0.0
C1254 C 0.73005 0.74485 0.09796 0.0
C1255 C 0.72207 0.72838 0.08392 0.0
C1256 C 0.72252 0.73035 0.05967 0.0
C1257 C 0.79047 0.71264 0.94626 0.0
C1258 C 0.78511 0.69113 0.94856 0.0
C1259 C 0.77776 0.72778 0.95863 0.0
C1260 C 0.75929 0.72173 0.97334 0.0
C1261 C 0.75416 0.70024 0.97594 0.0
C1262 C 0.76692 0.6851 0.96368 0.0
C1263 C 0.74531 0.73773 0.9861 0.0
C1264 C 0.74341 0.73603 0.01041 0.0
C1265 C 0.73431 0.75479 0.97458 0.0
C1266 C 0.73462 0.75693 0.94884 0.0
C1267 C 0.72642 0.74052 0.93456 0.0
C1268 C 0.72697 0.74257 0.91032 0.0
C1269 C 0.73552 0.76103 0.90015 0.0
C1270 C 0.74348 0.7775 0.91421 0.0
C1271 C 0.74299 0.77552 0.93846 0.0
H1272 H 0.73594 0.76258 0.88138 0.0
H1273 H 0.72967 0.7433 0.11674 0.0
H1274 H 0.30185 0.16467 0.52966 0.0
H1275 H 0.27932 0.19056 0.50755 0.0
H1276 H 0.31725 0.24086 0.54109 0.0
H1277 H 0.33953 0.21507 0.56362 0.0
H1278 H 0.27167 0.24922 0.54047 0.0
H1279 H 0.32847 0.2262 0.48411 0.0
H1280 H 0.35012 0.2002 0.46061 0.0
H1281 H 0.28589 0.17963 0.42914 0.0
H1282 H 0.26381 0.20534 0.45269 0.0
H1283 H 0.2391 0.33306 0.4657 0.0
H1284 H 0.25998 0.3063 0.48802 0.0
H1285 H 0.22135 0.25751 0.45259 0.0
H1286 H 0.20071 0.28423 0.42976 0.0
H1287 H 0.26633 0.24775 0.45423 0.0
H1288 H 0.20955 0.27121 0.50991 0.0
H1289 H 0.18781 0.29714 0.53342 0.0
H1290 H 0.25173 0.31676 0.56621 0.0
H1291 H 0.27392 0.29113 0.54267 0.0
C1292 C 0.3055 0.18123 0.53225 0.0
C1293 C 0.32254 0.18779 0.54839 0.0
C1294 C 0.29265 0.19603 0.51953 0.0
C1295 C 0.29674 0.21768 0.52247 0.0
C1296 C 0.31377 0.22425 0.53852 0.0
C1297 C 0.32656 0.20947 0.55134 0.0
C1298 C 0.28295 0.23349 0.50918 0.0
C1299 C 0.27075 0.24907 0.52159 0.0
C1300 C 0.2812 0.23296 0.48458 0.0
C1301 C 0.29446 0.21755 0.47034 0.0
C1302 C 0.31894 0.21602 0.47231 0.0
C1303 C 0.3313 0.20136 0.45895 0.0
C1304 C 0.31938 0.18823 0.44343 0.0
C1305 C 0.29509 0.18979 0.44119 0.0
C1306 C 0.28265 0.20442 0.45452 0.0
C1307 C 0.23489 0.31665 0.46274 0.0
C1308 C 0.21819 0.3108 0.44595 0.0
C1309 C 0.24681 0.30134 0.4756 0.0
C1310 C 0.24207 0.27986 0.4722 0.0
C1311 C 0.2253 0.27398 0.45554 0.0
C1312 C 0.21345 0.28928 0.44255 0.0
C1313 C 0.25513 0.26356 0.48551 0.0
C1314 C 0.26719 0.24788 0.47311 0.0
C1315 C 0.25673 0.26399 0.51012 0.0
C1316 C 0.24342 0.27937 0.52437 0.0
C1317 C 0.219 0.28116 0.52201 0.0
C1318 C 0.20659 0.29579 0.53537 0.0
C1319 C 0.21839 0.30863 0.55126 0.0
C1320 C 0.24262 0.30682 0.55388 0.0
C1321 C 0.25511 0.29223 0.54055 0.0
H1322 H 0.20875 0.31995 0.56158 0.0
H1323 H 0.32898 0.17688 0.43311 0.0
H1324 H 0.80197 0.28068 0.06356 0.0
H1325 H 0.77817 0.25568 0.04153 0.0
H1326 H 0.73782 0.307 0.01305 0.0
H1327 H 0.76135 0.33212 0.03524 0.0
H1328 H 0.70988 0.27478 0.02628 0.0
H1329 H 0.77959 0.28323 0.98064 0.0
H1330 H 0.82212 0.28372 0.97334 0.0
H1331 H 0.82671 0.21844 0.99232 0.0
H1332 H 0.78423 0.21765 5e-05 0.0
H1333 H 0.65809 0.21941 0.93121 0.0
H1334 H 0.67987 0.24406 0.95573 0.0
H1335 H 0.7194 0.19247 0.98472 0.0
H1336 H 0.69784 0.16773 0.96019 0.0
H1337 H 0.74754 0.22469 0.97157 0.0
H1338 H 0.67747 0.21619 0.01654 0.0
H1339 H 0.63491 0.21587 0.0236 0.0
H1340 H 0.63088 0.28137 0.00548 0.0
H1341 H 0.6734 0.28201 0.998 0.0
C1342 C 0.78802 0.28667 0.05265 0.0
C1343 C 0.78364 0.30842 0.05108 0.0
C1344 C 0.77447 0.27235 0.04 0.0
C1345 C 0.75639 0.27949 0.02544 0.0
C1346 C 0.7517 0.30115 0.02416 0.0
C1347 C 0.76524 0.31549 0.0368 0.0
C1348 C 0.74249 0.26438 0.01138 0.0
C1349 C 0.71807 0.264 0.0141 0.0
C1350 C 0.75324 0.25003 0.99585 0.0
C1351 C 0.77877 0.25044 0.99116 0.0
C1352 C 0.7897 0.26903 0.98344 0.0
C1353 C 0.81379 0.26935 0.97919 0.0
C1354 C 0.82712 0.25114 0.98242 0.0
C1355 C 0.81637 0.23255 0.98986 0.0
C1356 C 0.79228 0.23215 0.99416 0.0
C1357 C 0.67131 0.21328 0.94289 0.0
C1358 C 0.67622 0.19159 0.94372 0.0
C1359 C 0.68369 0.22739 0.95696 0.0
C1360 C 0.70116 0.22008 0.97215 0.0
C1361 C 0.706 0.19844 0.97311 0.0
C1362 C 0.69359 0.18432 0.95912 0.0
C1363 C 0.71493 0.23505 0.9865 0.0
C1364 C 0.73934 0.23543 0.9838 0.0
C1365 C 0.70416 0.24942 0.00199 0.0
C1366 C 0.67859 0.24909 0.00648 0.0
C1367 C 0.66748 0.23048 0.01387 0.0
C1368 C 0.64337 0.23025 0.01798 0.0
C1369 C 0.63019 0.24858 0.01493 0.0
C1370 C 0.64111 0.26718 0.00781 0.0
C1371 C 0.66522 0.26749 0.00364 0.0
H1372 H 0.61152 0.24837 0.01813 0.0
H1373 H 0.84577 0.25142 0.97912 0.0
H1374 H 0.18882 0.71489 0.57833 0.0
H1375 H 0.20815 0.74331 0.55701 0.0
H1376 H 0.25599 0.69856 0.52658 0.0
H1377 H 0.23686 0.67002 0.54797 0.0
H1378 H 0.27848 0.73399 0.54196 0.0
H1379 H 0.21125 0.71756 0.49492 0.0
H1380 H 0.16926 0.71181 0.48728 0.0
H1381 H 0.15425 0.77527 0.50832 0.0
H1382 H 0.19614 0.78131 0.51638 0.0
H1383 H 0.32424 0.79907 0.45227 0.0
H1384 H 0.30596 0.77096 0.47491 0.0
H1385 H 0.25418 0.81477 0.50032 0.0
H1386 H 0.27199 0.84283 0.47718 0.0
H1387 H 0.23372 0.77976 0.48791 0.0
H1388 H 0.30044 0.79666 0.53491 0.0
H1389 H 0.34224 0.80276 0.54323 0.0
H1390 H 0.35809 0.73916 0.52336 0.0
H1391 H 0.31641 0.73277 0.51462 0.0
C1392 C 0.20346 0.71106 0.56712 0.0
C1393 C 0.21123 0.69016 0.5648 0.0
C1394 C 0.21444 0.72733 0.55488 0.0
C1395 C 0.23337 0.72302 0.54003 0.0
C1396 C 0.24139 0.70223 0.53793 0.0
C1397 C 0.23038 0.68593 0.55011 0.0
C1398 C 0.24478 0.74021 0.52667 0.0
C1399 C 0.26878 0.74385 0.52991 0.0
C1400 C 0.23198 0.75339 0.51141 0.0
C1401 C 0.2068 0.74982 0.50647 0.0
C1402 C 0.19897 0.73024 0.49809 0.0
C1403 C 0.17519 0.72693 0.49365 0.0
C1404 C 0.15909 0.74315 0.49737 0.0
C1405 C 0.16674 0.76272 0.50547 0.0
C1406 C 0.1905 0.76609 0.50996 0.0
C1407 C 0.30904 0.80276 0.46277 0.0
C1408 C 0.29959 0.82321 0.46294 0.0
C1409 C 0.29865 0.78668 0.47581 0.0
C1410 C 0.27884 0.79077 0.48958 0.0
C1411 C 0.26945 0.81121 0.48984 0.0
C1412 C 0.27969 0.82725 0.47663 0.0
C1413 C 0.2675 0.77365 0.5032 0.0
C1414 C 0.24347 0.76998 0.49999 0.0
C1415 C 0.28026 0.76052 0.51859 0.0
C1416 C 0.30533 0.7643 0.5239 0.0
C1417 C 0.31286 0.78403 0.53215 0.0
C1418 C 0.33653 0.78752 0.53697 0.0
C1419 C 0.35282 0.77137 0.53377 0.0
C1420 C 0.34546 0.75167 0.5258 0.0
C1421 C 0.32182 0.74809 0.52094 0.0
H1422 H 0.37114 0.77411 0.53751 0.0
H1423 H 0.14069 0.74056 0.49393 0.0
H1424 H 0.19078 0.587 0.96989 0.0
H1425 H 0.20094 0.55635 0.99405 0.0
H1426 H 0.1434 0.52172 0.96398 0.0
H1427 H 0.13376 0.55165 0.93956 0.0
H1428 H 0.17951 0.53589 0.02679 0.0
H1429 H 0.1533 0.47159 0.95818 0.0
H1430 H 0.15626 0.46627 0.91574 0.0
H1431 H 0.21347 0.51002 0.91254 0.0
H1432 H 0.21111 0.51538 0.95501 0.0
H1433 H 0.1326 0.44721 0.0785 0.0
H1434 H 0.14394 0.4782 0.05655 0.0
H1435 H 0.19981 0.44316 0.02401 0.0
H1436 H 0.18778 0.41152 0.04544 0.0
H1437 H 0.17953 0.4641 0.99269 0.0
H1438 H 0.21061 0.48431 0.06473 0.0
H1439 H 0.21292 0.48974 0.10718 0.0
H1440 H 0.15623 0.53401 0.1037 0.0
H1441 H 0.15333 0.52862 0.06128 0.0
C1442 C 0.18042 0.57278 0.96841 0.0
C1443 C 0.16162 0.5717 0.95263 0.0
C1444 C 0.18624 0.55529 0.9822 0.0
C1445 C 0.1733 0.53651 0.98044 0.0
C1446 C 0.15417 0.53573 0.96514 0.0
C1447 C 0.14855 0.55298 0.95127 0.0
C1448 C 0.17878 0.51781 0.99508 0.0
C1449 C 0.17978 0.52019 0.01936 0.0
C1450 C 0.18023 0.49734 0.98538 0.0
C1451 C 0.18195 0.49394 0.95982 0.0
C1452 C 0.16663 0.47996 0.94847 0.0
C1453 C 0.16818 0.47697 0.92439 0.0
C1454 C 0.18502 0.48783 0.91145 0.0
C1455 C 0.20039 0.50166 0.92257 0.0
C1456 C 0.19894 0.5047 0.94665 0.0
C1457 C 0.14748 0.44606 0.06688 0.0
C1458 C 0.15928 0.42684 0.06375 0.0
C1459 C 0.15412 0.46394 0.05445 0.0
C1460 C 0.17309 0.46327 0.03893 0.0
C1461 C 0.18519 0.44416 0.03597 0.0
C1462 C 0.17831 0.42608 0.04822 0.0
C1463 C 0.17868 0.4821 0.02449 0.0
C1464 C 0.17983 0.47976 0.0002 0.0
C1465 C 0.18007 0.50259 0.03421 0.0
C1466 C 0.18172 0.50599 0.05977 0.0
C1467 C 0.19854 0.49511 0.07302 0.0
C1468 C 0.19996 0.4982 0.09709 0.0
C1469 C 0.18472 0.5122 0.10813 0.0
C1470 C 0.16804 0.52318 0.09512 0.0
C1471 C 0.16653 0.52015 0.07104 0.0
H1472 H 0.18585 0.51456 0.12677 0.0
H1473 H 0.18617 0.4855 0.89281 0.0
H1474 H 0.82983 0.59318 0.53099 0.0
H1475 H 0.82244 0.56337 0.50488 0.0
H1476 H 0.8194 0.52156 0.56411 0.0
H1477 H 0.82759 0.55103 0.59003 0.0
H1478 H 0.848 0.50648 0.53389 0.0
H1479 H 0.7701 0.53418 0.52967 0.0
H1480 H 0.73985 0.56129 0.52343 0.0
H1481 H 0.76272 0.56919 0.45271 0.0
H1482 H 0.79332 0.54232 0.45861 0.0
H1483 H 0.82428 0.4158 0.46695 0.0
H1484 H 0.81623 0.44446 0.4944 0.0
H1485 H 0.82667 0.48993 0.43955 0.0
H1486 H 0.83446 0.46155 0.41207 0.0
H1487 H 0.79114 0.50179 0.46881 0.0
H1488 H 0.87123 0.47753 0.47453 0.0
H1489 H 0.90207 0.45086 0.48033 0.0
H1490 H 0.87497 0.4371 0.54843 0.0
H1491 H 0.84377 0.46352 0.5429 0.0
C1492 C 0.82714 0.57768 0.53841 0.0
C1493 C 0.82952 0.57438 0.56249 0.0
C1494 C 0.82283 0.56066 0.5235 0.0
C1495 C 0.82031 0.54017 0.53252 0.0
C1496 C 0.82143 0.53715 0.5567 0.0
C1497 C 0.82609 0.55403 0.5715 0.0
C1498 C 0.81883 0.52158 0.51684 0.0
C1499 C 0.83518 0.50531 0.52 0.0
C1500 C 0.80257 0.52022 0.49827 0.0
C1501 C 0.78414 0.53635 0.49465 0.0
C1502 C 0.7688 0.5418 0.51283 0.0
C1503 C 0.75156 0.55711 0.50935 0.0
C1504 C 0.7494 0.56699 0.4877 0.0
C1505 C 0.76443 0.56154 0.46947 0.0
C1506 C 0.7817 0.54625 0.47287 0.0
C1507 C 0.82444 0.43187 0.46065 0.0
C1508 C 0.83033 0.4364 0.43741 0.0
C1509 C 0.81988 0.44823 0.47635 0.0
C1510 C 0.82117 0.46932 0.46905 0.0
C1511 C 0.82561 0.47378 0.44556 0.0
C1512 C 0.83022 0.4575 0.42991 0.0
C1513 C 0.82015 0.48682 0.4861 0.0
C1514 C 0.80357 0.5029 0.48305 0.0
C1515 C 0.8362 0.4881 0.5048 0.0
C1516 C 0.85503 0.47231 0.5082 0.0
C1517 C 0.87175 0.4687 0.49067 0.0
C1518 C 0.88931 0.45365 0.49392 0.0
C1519 C 0.89043 0.44224 0.51471 0.0
C1520 C 0.87405 0.44592 0.53232 0.0
C1521 C 0.85643 0.46093 0.52914 0.0
H1522 H 0.90404 0.4306 0.51719 0.0
H1523 H 0.73605 0.57884 0.48504 0.0
H1524 H 0.7885 0.41383 0.03028 0.0
H1525 H 0.77665 0.44561 0.00918 0.0
H1526 H 0.77948 0.48121 0.07314 0.0
H1527 H 0.79234 0.44974 0.09403 0.0
H1528 H 0.74411 0.47564 0.00856 0.0
H1529 H 0.80514 0.52792 0.06363 0.0
H1530 H 0.83984 0.5246 0.089 0.0
H1531 H 0.86115 0.46913 0.05188 0.0
H1532 H 0.82677 0.47229 0.02613 0.0
H1533 H 0.78484 0.59187 0.97692 0.0
H1534 H 0.77415 0.56447 0.00514 0.0
H1535 H 0.77681 0.51776 0.95068 0.0
H1536 H 0.78741 0.54485 0.92256 0.0
H1537 H 0.80373 0.53216 0.01508 0.0
H1538 H 0.74136 0.47668 0.96367 0.0
H1539 H 0.70864 0.4795 0.93584 0.0
H1540 H 0.69236 0.54118 0.9618 0.0
H1541 H 0.72475 0.53863 0.99002 0.0
C1542 C 0.78606 0.42833 0.0399 0.0
C1543 C 0.79173 0.42945 0.06368 0.0
C1544 C 0.77925 0.44649 0.02785 0.0
C1545 C 0.77776 0.46592 0.03947 0.0
C1546 C 0.7811 0.46651 0.06369 0.0
C1547 C 0.78838 0.44852 0.07562 0.0
C1548 C 0.77557 0.48576 0.02591 0.0
C1549 C 0.75714 0.48801 0.00993 0.0
C1550 C 0.79233 0.50211 0.02801 0.0
C1551 C 0.81324 0.5002 0.04319 0.0
C1552 C 0.81728 0.51506 0.06087 0.0
C1553 C 0.83688 0.5132 0.07531 0.0
C1554 C 0.85264 0.49662 0.07212 0.0
C1555 C 0.84889 0.48192 0.0544 0.0
C1556 C 0.82934 0.48373 0.03989 0.0
C1557 C 0.78256 0.57584 0.97088 0.0
C1558 C 0.78719 0.57047 0.94758 0.0
C1559 C 0.77649 0.56022 0.98701 0.0
C1560 C 0.77457 0.53909 0.97999 0.0
C1561 C 0.77784 0.53397 0.95645 0.0
C1562 C 0.7841 0.54948 0.94042 0.0
C1563 C 0.77246 0.52197 0.99744 0.0
C1564 C 0.79028 0.52012 0.0141 0.0
C1565 C 0.75536 0.50592 0.99562 0.0
C1566 C 0.73562 0.50749 0.97889 0.0
C1567 C 0.73072 0.4908 0.96355 0.0
C1568 C 0.71224 0.49236 0.94768 0.0
C1569 C 0.69846 0.51053 0.94702 0.0
C1570 C 0.7031 0.52715 0.96227 0.0
C1571 C 0.72155 0.52566 0.97819 0.0
H1572 H 0.68417 0.51171 0.93471 0.0
H1573 H 0.86778 0.49519 0.08333 0.0
H1574 H 0.22067 0.45742 0.41655 0.0
H1575 H 0.22975 0.48465 0.44495 0.0
H1576 H 0.23305 0.43777 0.49925 0.0
H1577 H 0.22366 0.41026 0.4708 0.0
H1578 H 0.20278 0.46852 0.50946 0.0
H1579 H 0.28191 0.46583 0.48374 0.0
H1580 H 0.31424 0.46526 0.45532 0.0
H1581 H 0.29462 0.52673 0.43104 0.0
H1582 H 0.26194 0.52756 0.45909 0.0
H1583 H 0.21657 0.54527 0.59401 0.0
H1584 H 0.22902 0.51622 0.56915 0.0
H1585 H 0.22433 0.55658 0.50886 0.0
H1586 H 0.21252 0.58607 0.53393 0.0
H1587 H 0.25978 0.52732 0.50433 0.0
H1588 H 0.17791 0.5276 0.52464 0.0
H1589 H 0.14432 0.5286 0.5516 0.0
H1590 H 0.16809 0.47159 0.58414 0.0
H1591 H 0.20203 0.47043 0.55756 0.0
C1592 C 0.22379 0.45278 0.43445 0.0
C1593 C 0.22116 0.43169 0.44148 0.0
C1594 C 0.22919 0.4684 0.45065 0.0
C1595 C 0.23219 0.46326 0.47422 0.0
C1596 C 0.23087 0.44205 0.48111 0.0
C1597 C 0.22554 0.42635 0.46484 0.0
C1598 C 0.23338 0.48031 0.49184 0.0
C1599 C 0.21566 0.48106 0.50871 0.0
C1600 C 0.24966 0.49708 0.49032 0.0
C1601 C 0.26936 0.49669 0.47345 0.0
C1602 C 0.28436 0.47917 0.47223 0.0
C1603 C 0.30278 0.47881 0.4562 0.0
C1604 C 0.30646 0.49593 0.44136 0.0
C1605 C 0.29175 0.51347 0.44255 0.0
C1606 C 0.2733 0.51391 0.45854 0.0
C1607 C 0.21871 0.5481 0.57552 0.0
C1608 C 0.21322 0.5678 0.5658 0.0
C1609 C 0.22583 0.53149 0.56134 0.0
C1610 C 0.22703 0.5341 0.53711 0.0
C1611 C 0.2234 0.55421 0.52753 0.0
C1612 C 0.21662 0.57102 0.54183 0.0
C1613 C 0.22918 0.5154 0.52178 0.0
C1614 C 0.24729 0.51448 0.50531 0.0
C1615 C 0.21311 0.49848 0.52342 0.0
C1616 C 0.19263 0.49906 0.5393 0.0
C1617 C 0.17606 0.51537 0.53766 0.0
C1618 C 0.15695 0.51595 0.55285 0.0
C1619 C 0.15411 0.5002 0.56962 0.0
C1620 C 0.17034 0.4838 0.57118 0.0
C1621 C 0.18951 0.48316 0.55605 0.0
H1622 H 0.1393 0.50068 0.58137 0.0
H1623 H 0.32073 0.49562 0.42896 0.0
H1624 H 0.66786 0.04755 0.90421 0.0
H1625 H 0.6775 0.01827 0.92999 0.0
H1626 H 0.68022 0.06085 0.98848 0.0
H1627 H 0.67133 0.09045 0.96253 0.0
H1628 H 0.71309 0.0311 0.9928 0.0
H1629 H 0.6307 0.0322 0.97654 0.0
H1630 H 0.59543 0.03283 0.95179 0.0
H1631 H 0.61557 0.97401 0.92086 0.0
H1632 H 0.65115 0.97317 0.94522 0.0
H1633 H 0.67888 0.96041 0.08348 0.0
H1634 H 0.68542 0.98837 0.05506 0.0
H1635 H 0.68845 0.9423 -3e-05 0.0
H1636 H 0.68185 0.91414 0.02832 0.0
H1637 H 0.65548 0.97264 0.99244 0.0
H1638 H 0.73644 0.97045 0.01335 0.0
H1639 H 0.77018 0.9704 0.04011 0.0
H1640 H 0.75101 0.03181 0.06486 0.0
H1641 H 0.71693 0.03211 0.03849 0.0
C1642 C 0.67076 0.05074 0.92252 0.0
C1643 C 0.66851 0.07127 0.93141 0.0
C1644 C 0.67623 0.03398 0.93725 0.0
C1645 C 0.67905 0.03728 0.96126 0.0
C1646 C 0.67802 0.05792 0.97002 0.0
C1647 C 0.67287 0.0748 0.9552 0.0
C1648 C 0.68147 0.01907 0.97731 0.0
C1649 C 0.70042 0.01839 0.99287 0.0
C1650 C 0.66512 0.0023 0.97715 0.0
C1651 C 0.64371 0.00274 0.96251 0.0
C1652 C 0.6277 0.01948 0.96433 0.0
C1653 C 0.60764 0.01986 0.95039 0.0
C1654 C 0.6033 0.0035 0.93471 0.0
C1655 C 0.61898 0.98669 0.93298 0.0
C1656 C 0.63909 0.98625 0.94686 0.0
C1657 C 0.68146 0.95614 0.06539 0.0
C1658 C 0.6796 0.93505 0.05813 0.0
C1659 C 0.68533 0.97217 0.04918 0.0
C1660 C 0.68742 0.96741 0.02541 0.0
C1661 C 0.68689 0.94628 0.01826 0.0
C1662 C 0.68318 0.93021 0.0345 0.0
C1663 C 0.68714 0.98459 0.00791 0.0
C1664 C 0.6684 0.98517 0.99216 0.0
C1665 C 0.70348 0.00133 0.0082 0.0
C1666 C 0.724 0.00123 0.02405 0.0
C1667 C 0.73929 0.98387 0.02463 0.0
C1668 C 0.75851 0.98381 0.03971 0.0
C1669 C 0.76271 0.00107 0.05421 0.0
C1670 C 0.74772 0.01844 0.05363 0.0
C1671 C 0.72847 0.01858 0.03859 0.0
H1672 H 0.7776 0.00099 0.06587 0.0
H1673 H 0.58776 0.00382 0.92394 0.0
H1674 H 0.32732 0.90623 0.47257 0.0
H1675 H 0.31904 0.93673 0.49743 0.0
H1676 H 0.32258 0.97752 0.43738 0.0
H1677 H 0.33155 0.94738 0.41275 0.0
H1678 H 0.34912 0.99225 0.46976 0.0
H1679 H 0.27025 0.96697 0.46716 0.0
H1680 H 0.23848 0.94092 0.47104 0.0
H1681 H 0.25394 0.93395 0.54384 0.0
H1682 H 0.28603 0.95976 0.54033 0.0
H1683 H 0.32202 0.0856 0.52868 0.0
H1684 H 0.31392 0.05575 0.50293 0.0
H1685 H 0.32093 0.01307 0.56095 0.0
H1686 H 0.32892 0.04272 0.5868 0.0
H1687 H 0.28639 1.00022 0.52887 0.0
H1688 H 0.36738 0.02267 0.52996 0.0
H1689 H 0.3992 0.0487 0.52618 0.0
H1690 H 0.37909 0.06069 0.45532 0.0
H1691 H 0.34692 0.03494 0.45882 0.0
C1692 C 0.32598 0.92168 0.46467 0.0
C1693 C 0.33036 0.92445 0.44078 0.0
C1694 C 0.32113 0.9391 0.47886 0.0
C1695 C 0.32015 0.95947 0.46927 0.0
C1696 C 0.3234 0.96202 0.44522 0.0
C1697 C 0.32854 0.94475 0.43115 0.0
C1698 C 0.31793 0.97838 0.48437 0.0
C1699 C 0.33508 0.99411 0.48233 0.0
C1700 C 0.30001 0.98065 0.50124 0.0
C1701 C 0.28069 0.96516 0.50343 0.0
C1702 C 0.267 0.95976 0.48396 0.0
C1703 C 0.24891 0.94506 0.4861 0.0
C1704 C 0.24423 0.93575 0.50766 0.0
C1705 C 0.2576 0.94116 0.52714 0.0
C1706 C 0.27572 0.95584 0.52509 0.0
C1707 C 0.32125 0.06992 0.53608 0.0
C1708 C 0.32649 0.0665 0.55971 0.0
C1709 C 0.31665 0.05289 0.52134 0.0
C1710 C 0.31717 0.0322 0.53001 0.0
C1711 C 0.32049 0.0289 0.55392 0.0
C1712 C 0.3252 0.04588 0.56863 0.0
C1713 C 0.31736 0.01398 0.51389 0.0
C1714 C 0.3001 0.99837 0.51596 0.0
C1715 C 0.33513 0.01174 0.49693 0.0
C1716 C 0.3546 0.02707 0.49474 0.0
C1717 C 0.36964 0.03098 0.51364 0.0
C1718 C 0.38775 0.04566 0.51154 0.0
C1719 C 0.39112 0.05639 0.49055 0.0
C1720 C 0.37643 0.0524 0.47159 0.0
C1721 C 0.35826 0.03776 0.47362 0.0
H1722 H 0.40515 0.06775 0.48895 0.0
H1723 H 0.23022 0.92437 0.50928 0.0
H1724 H 0.27889 0.91142 0.03441 0.0
H1725 H 0.26774 0.93873 0.00632 0.0
H1726 H 0.2799 0.98655 0.05828 0.0
H1727 H 0.29054 0.95954 0.08641 0.0
H1728 H 0.2437 0.9975 0.03073 0.0
H1729 H 0.32314 0.97208 0.02092 0.0
H1730 H 0.35319 0.94488 0.01409 0.0
H1731 H 0.32134 0.92938 0.94854 0.0
H1732 H 0.29091 0.95634 0.95515 0.0
H1733 H 0.28642 0.08651 0.96715 0.0
H1734 H 0.27625 0.0573 0.99316 0.0
H1735 H 0.26789 0.01638 0.93371 0.0
H1736 H 0.27876 0.04525 0.90786 0.0
H1737 H 0.29708 0.9998 0.96266 0.0
H1738 H 0.22107 0.03034 0.9702 0.0
H1739 H 0.1923 0.0585 0.97753 0.0
H1740 H 0.2182 0.06557 0.04731 0.0
H1741 H 0.24736 0.03764 0.0403 0.0
C1742 C 0.27867 0.92771 0.03999 0.0
C1743 C 0.28599 0.93331 0.06253 0.0
C1744 C 0.27235 0.94331 0.02391 0.0
C1745 C 0.27339 0.96471 0.0301 0.0
C1746 C 0.27902 0.97017 0.05308 0.0
C1747 C 0.28528 0.95466 0.06911 0.0
C1748 C 0.27133 0.98156 0.01229 0.0
C1749 C 0.25532 0.99806 0.01581 0.0
C1750 C 0.2863 0.98214 0.99267 0.0
C1751 C 0.30461 0.96601 0.98866 0.0
C1752 C 0.32246 0.96276 0.00513 0.0
C1753 C 0.33957 0.94741 0.0013 0.0
C1754 C 0.33913 0.93536 0.98093 0.0
C1755 C 0.32162 0.93869 0.96433 0.0
C1756 C 0.30445 0.954 0.96811 0.0
C1757 C 0.28179 0.07143 0.95965 0.0
C1758 C 0.28363 0.06807 0.93554 0.0
C1759 C 0.27591 0.05473 0.97451 0.0
C1760 C 0.27133 0.03457 0.9654 0.0
C1761 C 0.2715 0.03171 0.94117 0.0
C1762 C 0.2777 0.04824 0.92641 0.0
C1763 C 0.26943 0.01594 0.98098 0.0
C1764 C 0.28495 0.99913 0.97719 0.0
C1765 C 0.25409 0.01522 0.00034 0.0
C1766 C 0.23652 0.03198 0.00466 0.0
C1767 C 0.22075 0.038 0.98705 0.0
C1768 C 0.20435 0.0539 0.99116 0.0
C1769 C 0.20345 0.06384 0.01285 0.0
C1770 C 0.21892 0.05786 0.03051 0.0
C1771 C 0.23537 0.04197 0.02649 0.0
H1772 H 0.19074 0.07616 0.016 0.0
H1773 H 0.35239 0.92349 0.97799 0.0
H1774 H 0.71896 0.04792 0.57982 0.0
H1775 H 0.72795 0.02011 0.55202 0.0
H1776 H 0.72921 0.06571 0.49632 0.0
H1777 H 0.72006 0.09379 0.5242 0.0
H1778 H 0.69881 0.03386 0.48815 0.0
H1779 H 0.77874 0.03928 0.51081 0.0
H1780 H 0.81201 0.04144 0.53804 0.0
H1781 H 0.79518 0.98022 0.56502 0.0
H1782 H 0.76159 0.9778 0.53818 0.0
H1783 H 0.71165 0.95406 0.4062 0.0
H1784 H 0.72341 0.98464 0.42908 0.0
H1785 H 0.72408 0.94653 0.49131 0.0
H1786 H 0.71295 0.91559 0.46827 0.0
H1787 H 0.75788 0.97674 0.49305 0.0
H1788 H 0.67539 0.97366 0.47623 0.0
H1789 H 0.64058 0.97101 0.45098 0.0
H1790 H 0.66081 0.02767 0.41544 0.0
H1791 H 0.69593 0.03049 0.44028 0.0
C1792 C 0.72165 0.05215 0.56174 0.0
C1793 C 0.71856 0.07303 0.55416 0.0
C1794 C 0.72698 0.03622 0.54587 0.0
C1795 C 0.72933 0.04082 0.52209 0.0
C1796 C 0.72753 0.06184 0.51462 0.0
C1797 C 0.72237 0.07787 0.53057 0.0
C1798 C 0.73042 0.02336 0.50495 0.0
C1799 C 0.71211 0.02168 0.48881 0.0
C1800 C 0.74729 0.00707 0.5064 0.0
C1801 C 0.76753 0.00842 0.52255 0.0
C1802 C 0.78201 0.02634 0.52267 0.0
C1803 C 0.80096 0.0276 0.53801 0.0
C1804 C 0.80568 0.01099 0.55328 0.0
C1805 C 0.7915 0.99307 0.55318 0.0
C1806 C 0.77252 0.99174 0.53788 0.0
C1807 C 0.71478 0.95207 0.42468 0.0
C1808 C 0.71103 0.93251 0.43552 0.0
C1809 C 0.72148 0.96958 0.43774 0.0
C1810 C 0.72405 0.96799 0.46198 0.0
C1811 C 0.72207 0.94813 0.47262 0.0
C1812 C 0.71569 0.93047 0.45946 0.0
C1813 C 0.72623 0.98731 0.47639 0.0
C1814 C 0.74494 0.98922 0.49209 0.0
C1815 C 0.70956 0.00377 0.47482 0.0
C1816 C 0.68842 0.00214 0.45991 0.0
C1817 C 0.6725 0.98546 0.4629 0.0
C1818 C 0.65271 0.98395 0.44869 0.0
C1819 C 0.64853 0.99913 0.43157 0.0
C1820 C 0.6641 0.0159 0.42867 0.0
C1821 C 0.68395 0.01747 0.44281 0.0
H1822 H 0.63319 0.99793 0.42059 0.0
H1823 H 0.82036 0.012 0.56515 0.0
loop_
_geom_bond_atom_site_label_1
_geom_bond_atom_site_label_2
_geom_bond_distance
_geom_bond_site_symmetry_2
_ccdc_geom_bond_type
Zn0 O3 2.031 . S
Zn0 O5 2.049 . S
Zn0 O10 2.067 . S
Zn1 O2 1.962 . S
Zn1 O4 1.986 . S
Zn1 O6 1.996 . S
Zn1 O9 1.943 . S
O2 Zn1 1.962 . S
O2 C7 1.254 . S
O3 Zn0 2.031 . S
O3 C7 1.269 . S
O4 Zn1 1.986 . S
O4 C11 1.262 . S
O5 Zn0 2.049 . S
O5 C13 1.260 . S
O6 Zn1 1.996 . S
O6 C13 1.257 . S
C7 O2 1.254 . S
C7 O3 1.269 . S
C8 O9 1.249 . S
C8 O10 1.270 . S
O9 Zn1 1.943 . S
O9 C8 1.249 . S
O10 Zn0 2.067 . S
O10 C8 1.270 . S
C11 O4 1.262 . S
C11 O12 1.232 . S
O12 C11 1.232 . S
C13 O5 1.260 . S
C13 O6 1.257 . S
Zn14 O17 2.031 . S
Zn14 O19 2.049 . S
Zn14 O24 2.067 . S
Zn15 O16 1.962 . S
Zn15 O18 1.986 . S
Zn15 O20 1.996 . S
Zn15 O23 1.943 . S
O16 Zn15 1.962 . S
O16 C21 1.254 . S
O17 Zn14 2.031 . S
O17 C21 1.269 . S
O18 Zn15 1.986 . S
O18 C25 1.262 . S
O19 Zn14 2.049 . S
O19 C27 1.260 . S
O20 Zn15 1.996 . S
O20 C27 1.257 . S
C21 O16 1.254 . S
C21 O17 1.269 . S
C22 O23 1.249 . S
C22 O24 1.270 . S
O23 Zn15 1.943 . S
O23 C22 1.249 . S
O24 Zn14 2.067 . S
O24 C22 1.270 . S
C25 O18 1.262 . S
C25 O26 1.232 . S
O26 C25 1.232 . S
C27 O19 1.260 . S
C27 O20 1.257 . S
Zn28 O31 2.031 . S
Zn28 O33 2.049 . S
Zn28 O38 2.067 . S
Zn29 O30 1.962 . S
Zn29 O32 1.986 . S
Zn29 O34 1.996 . S
Zn29 O37 1.943 . S
O30 Zn29 1.962 . S
O30 C35 1.254 . S
O31 Zn28 2.031 . S
O31 C35 1.269 . S
O32 Zn29 1.986 . S
O32 C39 1.262 . S
O33 Zn28 2.049 . S
O33 C41 1.260 . S
O34 Zn29 1.996 . S
O34 C41 1.257 . S
C35 O30 1.254 . S
C35 O31 1.269 . S
C36 O37 1.249 . S
C36 O38 1.270 . S
O37 Zn29 1.943 . S
O37 C36 1.249 . S
O38 Zn28 2.067 . S
O38 C36 1.270 . S
C39 O32 1.262 . S
C39 O40 1.232 . S
O40 C39 1.232 . S
C41 O33 1.260 . S
C41 O34 1.257 . S
Zn42 O45 2.031 . S
Zn42 O47 2.049 . S
Zn42 O52 2.067 . S
Zn43 O44 1.962 . S
Zn43 O46 1.986 . S
Zn43 O48 1.996 . S
Zn43 O51 1.943 . S
O44 Zn43 1.962 . S
O44 C49 1.254 . S
O45 Zn42 2.031 . S
O45 C49 1.269 . S
O46 Zn43 1.986 . S
O46 C53 1.262 . S
O47 Zn42 2.049 . S
O47 C55 1.260 . S
O48 Zn43 1.996 . S
O48 C55 1.257 . S
C49 O44 1.254 . S
C49 O45 1.269 . S
C50 O51 1.249 . S
C50 O52 1.270 . S
O51 Zn43 1.943 . S
O51 C50 1.249 . S
O52 Zn42 2.067 . S
O52 C50 1.270 . S
C53 O46 1.262 . S
C53 O54 1.232 . S
O54 C53 1.232 . S
C55 O47 1.260 . S
C55 O48 1.257 . S
Zn56 O59 2.031 . S
Zn56 O61 2.049 . S
Zn56 O66 2.067 . S
Zn57 O58 1.962 . S
Zn57 O60 1.986 . S
Zn57 O62 1.996 . S
Zn57 O65 1.943 . S
O58 Zn57 1.962 . S
O58 C63 1.254 . S
O59 Zn56 2.031 . S
O59 C63 1.269 . S
O60 Zn57 1.986 . S
O60 C67 1.262 . S
O61 Zn56 2.049 . S
O61 C69 1.260 . S
O62 Zn57 1.996 . S
O62 C69 1.257 . S
C63 O58 1.254 . S
C63 O59 1.269 . S
C64 O65 1.249 . S
C64 O66 1.270 . S
O65 Zn57 1.943 . S
O65 C64 1.249 . S
O66 Zn56 2.067 . S
O66 C64 1.270 . S
C67 O60 1.262 . S
C67 O68 1.232 . S
O68 C67 1.232 . S
C69 O61 1.260 . S
C69 O62 1.257 . S
Zn70 O73 2.031 . S
Zn70 O75 2.049 . S
Zn70 O80 2.067 . S
Zn71 O72 1.962 . S
Zn71 O74 1.986 . S
Zn71 O76 1.996 . S
Zn71 O79 1.943 . S
O72 Zn71 1.962 . S
O72 C77 1.254 . S
O73 Zn70 2.031 . S
O73 C77 1.269 . S
O74 Zn71 1.986 . S
O74 C81 1.262 . S
O75 Zn70 2.049 . S
O75 C83 1.260 . S
O76 Zn71 1.996 . S
O76 C83 1.257 . S
C77 O72 1.254 . S
C77 O73 1.269 . S
C78 O79 1.249 . S
C78 O80 1.270 . S
O79 Zn71 1.943 . S
O79 C78 1.249 . S
O80 Zn70 2.067 . S
O80 C78 1.270 . S
C81 O74 1.262 . S
C81 O82 1.232 . S
O82 C81 1.232 . S
C83 O75 1.260 . S
C83 O76 1.257 . S
Zn84 O87 2.031 . S
Zn84 O89 2.049 . S
Zn84 O94 2.067 . S
Zn85 O86 1.962 . S
Zn85 O88 1.986 . S
Zn85 O90 1.996 . S
Zn85 O93 1.943 . S
O86 Zn85 1.962 . S
O86 C91 1.254 . S
O87 Zn84 2.031 . S
O87 C91 1.269 . S
O88 Zn85 1.986 . S
O88 C95 1.262 . S
O89 Zn84 2.049 . S
O89 C97 1.260 . S
O90 Zn85 1.996 . S
O90 C97 1.257 . S
C91 O86 1.254 . S
C91 O87 1.269 . S
C92 O93 1.249 . S
C92 O94 1.270 . S
O93 Zn85 1.943 . S
O93 C92 1.249 . S
O94 Zn84 2.067 . S
O94 C92 1.270 . S
C95 O88 1.262 . S
C95 O96 1.232 . S
O96 C95 1.232 . S
C97 O89 1.260 . S
C97 O90 1.257 . S
Zn98 O101 2.031 . S
Zn98 O103 2.049 . S
Zn98 O108 2.067 . S
Zn99 O100 1.962 . S
Zn99 O102 1.986 . S
Zn99 O104 1.996 . S
Zn99 O107 1.943 . S
O100 Zn99 1.962 . S
O100 C105 1.254 . S
O101 Zn98 2.031 . S
O101 C105 1.269 . S
O102 Zn99 1.986 . S
O102 C109 1.262 . S
O103 Zn98 2.049 . S
O103 C111 1.260 . S
O104 Zn99 1.996 . S
O104 C111 1.257 . S
C105 O100 1.254 . S
C105 O101 1.269 . S
C106 O107 1.249 . S
C106 O108 1.270 . S
O107 Zn99 1.943 . S
O107 C106 1.249 . S
O108 Zn98 2.067 . S
O108 C106 1.270 . S
C109 O102 1.262 . S
C109 O110 1.232 . S
O110 C109 1.232 . S
C111 O103 1.260 . S
C111 O104 1.257 . S
Zn112 O115 2.031 . S
Zn112 O117 2.049 . S
Zn112 O122 2.067 . S
Zn113 O114 1.962 . S
Zn113 O116 1.986 . S
Zn113 O118 1.996 . S
Zn113 O121 1.943 . S
O114 Zn113 1.962 . S
O114 C119 1.254 . S
O115 Zn112 2.031 . S
O115 C119 1.269 . S
O116 Zn113 1.986 . S
O116 C123 1.262 . S
O117 Zn112 2.049 . S
O117 C125 1.260 . S
O118 Zn113 1.996 . S
O118 C125 1.257 . S
C119 O114 1.254 . S
C119 O115 1.269 . S
C120 O121 1.249 . S
C120 O122 1.270 . S
O121 Zn113 1.943 . S
O121 C120 1.249 . S
O122 Zn112 2.067 . S
O122 C120 1.270 . S
C123 O116 1.262 . S
C123 O124 1.232 . S
O124 C123 1.232 . S
C125 O117 1.260 . S
C125 O118 1.257 . S
Zn126 O129 2.031 . S
Zn126 O131 2.049 . S
Zn126 O136 2.067 . S
Zn127 O128 1.962 . S
Zn127 O130 1.986 . S
Zn127 O132 1.996 . S
Zn127 O135 1.943 . S
O128 Zn127 1.962 . S
O128 C133 1.254 . S
O129 Zn126 2.031 . S
O129 C133 1.269 . S
O130 Zn127 1.986 . S
O130 C137 1.262 . S
O131 Zn126 2.049 . S
O131 C139 1.260 . S
O132 Zn127 1.996 . S
O132 C139 1.257 . S
C133 O128 1.254 . S
C133 O129 1.269 . S
C134 O135 1.249 . S
C134 O136 1.270 . S
O135 Zn127 1.943 . S
O135 C134 1.249 . S
O136 Zn126 2.067 . S
O136 C134 1.270 . S
C137 O130 1.262 . S
C137 O138 1.232 . S
O138 C137 1.232 . S
C139 O131 1.260 . S
C139 O132 1.257 . S
Zn140 O143 2.031 . S
Zn140 O145 2.049 . S
Zn140 O150 2.067 . S
Zn141 O142 1.962 . S
Zn141 O144 1.986 . S
Zn141 O146 1.996 . S
Zn141 O149 1.943 . S
O142 Zn141 1.962 . S
O142 C147 1.254 . S
O143 Zn140 2.031 . S
O143 C147 1.269 . S
O144 Zn141 1.986 . S
O144 C151 1.262 . S
O145 Zn140 2.049 . S
O145 C153 1.260 . S
O146 Zn141 1.996 . S
O146 C153 1.257 . S
C147 O142 1.254 . S
C147 O143 1.269 . S
C148 O149 1.249 . S
C148 O150 1.270 . S
O149 Zn141 1.943 . S
O149 C148 1.249 . S
O150 Zn140 2.067 . S
O150 C148 1.270 . S
C151 O144 1.262 . S
C151 O152 1.232 . S
O152 C151 1.232 . S
C153 O145 1.260 . S
C153 O146 1.257 . S
Zn154 O157 2.031 . S
Zn154 O159 2.049 . S
Zn154 O164 2.067 . S
Zn155 O156 1.962 . S
Zn155 O158 1.986 . S
Zn155 O160 1.996 . S
Zn155 O163 1.943 . S
O156 Zn155 1.962 . S
O156 C161 1.254 . S
O157 Zn154 2.031 . S
O157 C161 1.269 . S
O158 Zn155 1.986 . S
O158 C165 1.262 . S
O159 Zn154 2.049 . S
O159 C167 1.260 . S
O160 Zn155 1.996 . S
O160 C167 1.257 . S
C161 O156 1.254 . S
C161 O157 1.269 . S
C162 O163 1.249 . S
C162 O164 1.270 . S
O163 Zn155 1.943 . S
O163 C162 1.249 . S
O164 Zn154 2.067 . S
O164 C162 1.270 . S
C165 O158 1.262 . S
C165 O166 1.232 . S
O166 C165 1.232 . S
C167 O159 1.260 . S
C167 O160 1.257 . S
Zn168 O171 2.031 . S
Zn168 O173 2.049 . S
Zn168 O178 2.067 . S
Zn169 O170 1.962 . S
Zn169 O172 1.986 . S
Zn169 O174 1.996 . S
Zn169 O177 1.943 . S
O170 Zn169 1.962 . S
O170 C175 1.254 . S
O171 Zn168 2.031 . S
O171 C175 1.269 . S
O172 Zn169 1.986 . S
O172 C179 1.262 . S
O173 Zn168 2.049 . S
O173 C181 1.260 . S
O174 Zn169 1.996 . S
O174 C181 1.257 . S
C175 O170 1.254 . S
C175 O171 1.269 . S
C176 O177 1.249 . S
C176 O178 1.270 . S
O177 Zn169 1.943 . S
O177 C176 1.249 . S
O178 Zn168 2.067 . S
O178 C176 1.270 . S
C179 O172 1.262 . S
C179 O180 1.232 . S
O180 C179 1.232 . S
C181 O173 1.260 . S
C181 O174 1.257 . S
Zn182 O185 2.031 . S
Zn182 O187 2.049 . S
Zn182 O192 2.067 . S
Zn183 O184 1.962 . S
Zn183 O186 1.986 . S
Zn183 O188 1.996 . S
Zn183 O191 1.943 . S
O184 Zn183 1.962 . S
O184 C189 1.254 . S
O185 Zn182 2.031 . S
O185 C189 1.269 . S
O186 Zn183 1.986 . S
O186 C193 1.262 . S
O187 Zn182 2.049 . S
O187 C195 1.260 . S
O188 Zn183 1.996 . S
O188 C195 1.257 . S
C189 O184 1.254 . S
C189 O185 1.269 . S
C190 O191 1.249 . S
C190 O192 1.270 . S
O191 Zn183 1.943 . S
O191 C190 1.249 . S
O192 Zn182 2.067 . S
O192 C190 1.270 . S
C193 O186 1.262 . S
C193 O194 1.232 . S
O194 C193 1.232 . S
C195 O187 1.260 . S
C195 O188 1.257 . S
Zn196 O199 2.031 . S
Zn196 O201 2.049 . S
Zn196 O206 2.067 . S
Zn197 O198 1.962 . S
Zn197 O200 1.986 . S
Zn197 O202 1.996 . S
Zn197 O205 1.943 . S
O198 Zn197 1.962 . S
O198 C203 1.254 . S
O199 Zn196 2.031 . S
O199 C203 1.269 . S
O200 Zn197 1.986 . S
O200 C207 1.262 . S
O201 Zn196 2.049 . S
O201 C209 1.260 . S
O202 Zn197 1.996 . S
O202 C209 1.257 . S
C203 O198 1.254 . S
C203 O199 1.269 . S
C204 O205 1.249 . S
C204 O206 1.270 . S
O205 Zn197 1.943 . S
O205 C204 1.249 . S
O206 Zn196 2.067 . S
O206 C204 1.270 . S
C207 O200 1.262 . S
C207 O208 1.232 . S
O208 C207 1.232 . S
C209 O201 1.260 . S
C209 O202 1.257 . S
Zn210 O213 2.031 . S
Zn210 O215 2.049 . S
Zn210 O220 2.067 . S
Zn211 O212 1.962 . S
Zn211 O214 1.986 . S
Zn211 O216 1.996 . S
Zn211 O219 1.943 . S
O212 Zn211 1.962 . S
O212 C217 1.254 . S
O213 Zn210 2.031 . S
O213 C217 1.269 . S
O214 Zn211 1.986 . S
O214 C221 1.262 . S
O215 Zn210 2.049 . S
O215 C223 1.260 . S
O216 Zn211 1.996 . S
O216 C223 1.257 . S
C217 O212 1.254 . S
C217 O213 1.269 . S
C218 O219 1.249 . S
C218 O220 1.270 . S
O219 Zn211 1.943 . S
O219 C218 1.249 . S
O220 Zn210 2.067 . S
O220 C218 1.270 . S
C221 O214 1.262 . S
C221 O222 1.232 . S
O222 C221 1.232 . S
C223 O215 1.260 . S
C223 O216 1.257 . S
H224 C242 0.951 . S
H225 C244 0.951 . S
H226 C246 0.950 . S
H227 C247 0.950 . S
H228 C249 0.950 1_455 S
H229 C252 0.950 . S
H230 C253 0.950 . S
H231 C255 0.950 . S
H232 C256 0.950 1_655 S
H233 C257 0.951 . S
H234 C259 0.951 . S
H235 C261 0.950 . S
H236 C262 0.950 . S
H237 C264 0.950 . S
H238 C267 0.950 . S
H239 C268 0.950 . S
H240 C270 0.950 1_556 S
H241 C271 0.950 . S
C242 H224 0.951 . S
C242 C243 1.366 . S
C242 C244 1.388 . S
C243 C242 1.366 . S
C243 C247 1.385 . S
C244 H225 0.951 . S
C244 C242 1.388 . S
C244 C245 1.366 . S
C245 C244 1.366 . S
C245 C246 1.414 . S
C245 C248 1.499 . S
C246 H226 0.950 . S
C246 C245 1.414 . S
C246 C247 1.374 . S
C247 H227 0.950 . S
C247 C243 1.385 . S
C247 C246 1.374 . S
C248 C245 1.499 . S
C248 C249 1.373 1_455 S
C248 C250 1.389 1_455 S
C249 H228 0.950 1_655 S
C249 C248 1.373 1_655 S
C249 C265 1.377 . S
C250 C248 1.389 1_655 S
C250 C251 1.524 1_655 S
C250 C264 1.377 . S
C251 C250 1.524 1_455 S
C251 C252 1.397 . S
C251 C256 1.363 . S
C252 H229 0.950 . S
C252 C251 1.397 . S
C252 C253 1.334 . S
C253 H230 0.950 . S
C253 C252 1.334 . S
C253 C254 1.287 . S
C254 C253 1.287 . S
C254 C255 1.524 . S
C254 H273 0.913 . S
C255 H231 0.950 . S
C255 C254 1.524 . S
C255 C256 1.415 . S
C256 H232 0.950 1_455 S
C256 C251 1.363 . S
C256 C255 1.415 . S
C257 H233 0.951 . S
C257 C258 1.366 . S
C257 C259 1.388 . S
C258 C257 1.366 . S
C258 C262 1.385 . S
C259 H234 0.951 . S
C259 C257 1.388 . S
C259 C260 1.366 . S
C260 C259 1.366 . S
C260 C261 1.414 . S
C260 C263 1.499 . S
C261 H235 0.950 . S
C261 C260 1.414 . S
C261 C262 1.374 . S
C262 H236 0.950 . S
C262 C258 1.385 . S
C262 C261 1.374 . S
C263 C260 1.499 . S
C263 C264 1.373 . S
C263 C265 1.389 . S
C264 H237 0.950 . S
C264 C250 1.377 . S
C264 C263 1.373 . S
C265 C249 1.377 . S
C265 C263 1.389 . S
C265 C266 1.524 . S
C266 C265 1.524 . S
C266 C267 1.397 . S
C266 C271 1.363 . S
C267 H238 0.950 . S
C267 C266 1.397 . S
C267 C268 1.334 . S
C268 H239 0.950 . S
C268 C267 1.334 . S
C268 C269 1.287 . S
C269 C268 1.287 . S
C269 C270 1.524 . S
C269 H272 0.999 . S
C270 H240 0.950 1_554 S
C270 C269 1.524 . S
C270 C271 1.415 . S
C271 H241 0.950 . S
C271 C266 1.363 . S
C271 C270 1.415 . S
H272 C269 0.999 . S
H273 C254 0.913 . S
H274 C292 0.951 . S
H275 C294 0.951 . S
H276 C296 0.950 . S
H277 C297 0.950 . S
H278 C299 0.950 1_655 S
H279 C302 0.950 . S
H280 C303 0.950 . S
H281 C305 0.950 . S
H282 C306 0.950 1_455 S
H283 C307 0.951 . S
H284 C309 0.951 . S
H285 C311 0.950 . S
H286 C312 0.950 . S
H287 C314 0.950 . S
H288 C317 0.950 . S
H289 C318 0.950 . S
H290 C320 0.950 . S
H291 C321 0.950 . S
C292 H274 0.951 . S
C292 C293 1.366 . S
C292 C294 1.388 . S
C293 C292 1.366 . S
C293 C297 1.385 . S
C294 H275 0.951 . S
C294 C292 1.388 . S
C294 C295 1.366 . S
C295 C294 1.366 . S
C295 C296 1.414 . S
C295 C298 1.499 . S
C296 H276 0.950 . S
C296 C295 1.414 . S
C296 C297 1.374 . S
C297 H277 0.950 . S
C297 C293 1.385 . S
C297 C296 1.374 . S
C298 C295 1.499 . S
C298 C299 1.373 1_655 S
C298 C300 1.389 1_655 S
C299 H278 0.950 1_455 S
C299 C298 1.373 1_455 S
C299 C315 1.377 . S
C300 C298 1.389 1_455 S
C300 C301 1.524 1_455 S
C300 C314 1.377 . S
C301 C300 1.524 1_655 S
C301 C302 1.397 . S
C301 C306 1.363 . S
C302 H279 0.950 . S
C302 C301 1.397 . S
C302 C303 1.334 . S
C303 H280 0.950 . S
C303 C302 1.334 . S
C303 C304 1.287 . S
C304 C303 1.287 . S
C304 C305 1.524 . S
C304 H323 0.913 . S
C305 H281 0.950 . S
C305 C304 1.524 . S
C305 C306 1.415 . S
C306 H282 0.950 1_655 S
C306 C301 1.363 . S
C306 C305 1.415 . S
C307 H283 0.951 . S
C307 C308 1.366 . S
C307 C309 1.388 . S
C308 C307 1.366 . S
C308 C312 1.385 . S
C309 H284 0.951 . S
C309 C307 1.388 . S
C309 C310 1.366 . S
C310 C309 1.366 . S
C310 C311 1.414 . S
C310 C313 1.499 . S
C311 H285 0.950 . S
C311 C310 1.414 . S
C311 C312 1.374 . S
C312 H286 0.950 . S
C312 C308 1.385 . S
C312 C311 1.374 . S
C313 C310 1.499 . S
C313 C314 1.373 . S
C313 C315 1.389 . S
C314 H287 0.950 . S
C314 C300 1.377 . S
C314 C313 1.373 . S
C315 C299 1.377 . S
C315 C313 1.389 . S
C315 C316 1.524 . S
C316 C315 1.524 . S
C316 C317 1.397 . S
C316 C321 1.363 . S
C317 H288 0.950 . S
C317 C316 1.397 . S
C317 C318 1.334 . S
C318 H289 0.950 . S
C318 C317 1.334 . S
C318 C319 1.287 . S
C319 C318 1.287 . S
C319 C320 1.524 . S
C319 H322 0.999 . S
C320 H290 0.950 . S
C320 C319 1.524 . S
C320 C321 1.415 . S
C321 H291 0.950 . S
C321 C316 1.363 . S
C321 C320 1.415 . S
H322 C319 0.999 . S
H323 C304 0.913 . S
H324 C342 0.951 . S
H325 C344 0.951 . S
H326 C346 0.950 . S
H327 C347 0.950 . S
H328 C349 0.950 . S
H329 C352 0.950 . S
H330 C353 0.950 . S
H331 C355 0.950 . S
H332 C356 0.950 . S
H333 C357 0.951 . S
H334 C359 0.951 . S
H335 C361 0.950 . S
H336 C362 0.950 . S
H337 C364 0.950 1_455 S
H338 C367 0.950 . S
H339 C368 0.950 . S
H340 C370 0.950 1_554 S
H341 C371 0.950 1_655 S
C342 H324 0.951 . S
C342 C343 1.366 . S
C342 C344 1.388 . S
C343 C342 1.366 . S
C343 C347 1.385 . S
C344 H325 0.951 . S
C344 C342 1.388 . S
C344 C345 1.366 . S
C345 C344 1.366 . S
C345 C346 1.414 . S
C345 C348 1.499 . S
C346 H326 0.950 . S
C346 C345 1.414 . S
C346 C347 1.374 . S
C347 H327 0.950 . S
C347 C343 1.385 . S
C347 C346 1.374 . S
C348 C345 1.499 . S
C348 C349 1.373 . S
C348 C350 1.389 . S
C349 H328 0.950 . S
C349 C348 1.373 . S
C349 C365 1.377 . S
C350 C348 1.389 . S
C350 C351 1.524 . S
C350 C364 1.377 . S
C351 C350 1.524 . S
C351 C352 1.397 . S
C351 C356 1.363 . S
C352 H329 0.950 . S
C352 C351 1.397 . S
C352 C353 1.334 . S
C353 H330 0.950 . S
C353 C352 1.334 . S
C353 C354 1.287 . S
C354 C353 1.287 . S
C354 C355 1.524 . S
C354 H373 0.913 . S
C355 H331 0.950 . S
C355 C354 1.524 . S
C355 C356 1.415 . S
C356 H332 0.950 . S
C356 C351 1.363 . S
C356 C355 1.415 . S
C357 H333 0.951 . S
C357 C358 1.366 . S
C357 C359 1.388 . S
C358 C357 1.366 . S
C358 C362 1.385 . S
C359 H334 0.951 . S
C359 C357 1.388 . S
C359 C360 1.366 . S
C360 C359 1.366 . S
C360 C361 1.414 . S
C360 C363 1.499 . S
C361 H335 0.950 . S
C361 C360 1.414 . S
C361 C362 1.374 . S
C362 H336 0.950 . S
C362 C358 1.385 . S
C362 C361 1.374 . S
C363 C360 1.499 . S
C363 C364 1.373 1_455 S
C363 C365 1.389 1_455 S
C364 H337 0.950 1_655 S
C364 C350 1.377 . S
C364 C363 1.373 1_655 S
C365 C349 1.377 . S
C365 C363 1.389 1_655 S
C365 C366 1.524 1_655 S
C366 C365 1.524 1_455 S
C366 C367 1.397 . S
C366 C371 1.363 . S
C367 H338 0.950 . S
C367 C366 1.397 . S
C367 C368 1.334 . S
C368 H339 0.950 . S
C368 C367 1.334 . S
C368 C369 1.287 . S
C369 C368 1.287 . S
C369 C370 1.524 . S
C369 H372 0.999 . S
C370 H340 0.950 1_556 S
C370 C369 1.524 . S
C370 C371 1.415 . S
C371 H341 0.950 1_455 S
C371 C366 1.363 . S
C371 C370 1.415 . S
H372 C369 0.999 . S
H373 C354 0.913 . S
H374 C392 0.951 . S
H375 C394 0.951 . S
H376 C396 0.950 . S
H377 C397 0.950 . S
H378 C399 0.950 . S
H379 C402 0.950 . S
H380 C403 0.950 . S
H381 C405 0.950 . S
H382 C406 0.950 . S
H383 C407 0.951 . S
H384 C409 0.951 . S
H385 C411 0.950 . S
H386 C412 0.950 . S
H387 C414 0.950 1_655 S
H388 C417 0.950 . S
H389 C418 0.950 . S
H390 C420 0.950 . S
H391 C421 0.950 1_455 S
C392 H374 0.951 . S
C392 C393 1.366 . S
C392 C394 1.388 . S
C393 C392 1.366 . S
C393 C397 1.385 . S
C394 H375 0.951 . S
C394 C392 1.388 . S
C394 C395 1.366 . S
C395 C394 1.366 . S
C395 C396 1.414 . S
C395 C398 1.499 . S
C396 H376 0.950 . S
C396 C395 1.414 . S
C396 C397 1.374 . S
C397 H377 0.950 . S
C397 C393 1.385 . S
C397 C396 1.374 . S
C398 C395 1.499 . S
C398 C399 1.373 . S
C398 C400 1.389 . S
C399 H378 0.950 . S
C399 C398 1.373 . S
C399 C415 1.377 . S
C400 C398 1.389 . S
C400 C401 1.524 . S
C400 C414 1.377 . S
C401 C400 1.524 . S
C401 C402 1.397 . S
C401 C406 1.363 . S
C402 H379 0.950 . S
C402 C401 1.397 . S
C402 C403 1.334 . S
C403 H380 0.950 . S
C403 C402 1.334 . S
C403 C404 1.287 . S
C404 C403 1.287 . S
C404 C405 1.524 . S
C404 H423 0.913 . S
C405 H381 0.950 . S
C405 C404 1.524 . S
C405 C406 1.415 . S
C406 H382 0.950 . S
C406 C401 1.363 . S
C406 C405 1.415 . S
C407 H383 0.951 . S
C407 C408 1.366 . S
C407 C409 1.388 . S
C408 C407 1.366 . S
C408 C412 1.385 . S
C409 H384 0.951 . S
C409 C407 1.388 . S
C409 C410 1.366 . S
C410 C409 1.366 . S
C410 C411 1.414 . S
C410 C413 1.499 . S
C411 H385 0.950 . S
C411 C410 1.414 . S
C411 C412 1.374 . S
C412 H386 0.950 . S
C412 C408 1.385 . S
C412 C411 1.374 . S
C413 C410 1.499 . S
C413 C414 1.373 1_655 S
C413 C415 1.389 1_655 S
C414 H387 0.950 1_455 S
C414 C400 1.377 . S
C414 C413 1.373 1_455 S
C415 C399 1.377 . S
C415 C413 1.389 1_455 S
C415 C416 1.524 1_455 S
C416 C415 1.524 1_655 S
C416 C417 1.397 . S
C416 C421 1.363 . S
C417 H388 0.950 . S
C417 C416 1.397 . S
C417 C418 1.334 . S
C418 H389 0.950 . S
C418 C417 1.334 . S
C418 C419 1.287 . S
C419 C418 1.287 . S
C419 C420 1.524 . S
C419 H422 0.999 . S
C420 H390 0.950 . S
C420 C419 1.524 . S
C420 C421 1.415 . S
C421 H391 0.950 1_655 S
C421 C416 1.363 . S
C421 C420 1.415 . S
H422 C419 0.999 . S
H423 C404 0.913 . S
H424 C442 0.951 . S
H425 C444 0.951 . S
H426 C446 0.950 . S
H427 C447 0.950 . S
H428 C449 0.950 . S
H429 C452 0.950 . S
H430 C453 0.950 . S
H431 C455 0.950 . S
H432 C456 0.950 . S
H433 C457 0.951 . S
H434 C459 0.951 . S
H435 C461 0.950 . S
H436 C462 0.950 . S
H437 C464 0.950 . S
H438 C467 0.950 . S
H439 C468 0.950 . S
H440 C470 0.950 . S
H441 C471 0.950 . S
C442 H424 0.951 . S
C442 C443 1.366 . S
C442 C444 1.388 . S
C443 C442 1.366 . S
C443 C447 1.385 . S
C444 H425 0.951 . S
C444 C442 1.388 . S
C444 C445 1.366 . S
C445 C444 1.366 . S
C445 C446 1.414 . S
C445 C448 1.499 . S
C446 H426 0.950 . S
C446 C445 1.414 . S
C446 C447 1.374 . S
C447 H427 0.950 . S
C447 C443 1.385 . S
C447 C446 1.374 . S
C448 C445 1.499 . S
C448 C449 1.373 . S
C448 C450 1.389 . S
C449 H428 0.950 . S
C449 C448 1.373 . S
C449 C465 1.377 . S
C450 C448 1.389 . S
C450 C451 1.524 . S
C450 C464 1.377 . S
C451 C450 1.524 . S
C451 C452 1.397 . S
C451 C456 1.363 . S
C452 H429 0.950 . S
C452 C451 1.397 . S
C452 C453 1.334 . S
C453 H430 0.950 . S
C453 C452 1.334 . S
C453 C454 1.287 . S
C454 C453 1.287 . S
C454 C455 1.524 . S
C454 H473 0.913 . S
C455 H431 0.950 . S
C455 C454 1.524 . S
C455 C456 1.415 . S
C456 H432 0.950 . S
C456 C451 1.363 . S
C456 C455 1.415 . S
C457 H433 0.951 . S
C457 C458 1.366 . S
C457 C459 1.388 . S
C458 C457 1.366 . S
C458 C462 1.385 . S
C459 H434 0.951 . S
C459 C457 1.388 . S
C459 C460 1.366 . S
C460 C459 1.366 . S
C460 C461 1.414 . S
C460 C463 1.499 . S
C461 H435 0.950 . S
C461 C460 1.414 . S
C461 C462 1.374 . S
C462 H436 0.950 . S
C462 C458 1.385 . S
C462 C461 1.374 . S
C463 C460 1.499 . S
C463 C464 1.373 . S
C463 C465 1.389 . S
C464 H437 0.950 . S
C464 C450 1.377 . S
C464 C463 1.373 . S
C465 C449 1.377 . S
C465 C463 1.389 . S
C465 C466 1.524 . S
C466 C465 1.524 . S
C466 C467 1.397 . S
C466 C471 1.363 . S
C467 H438 0.950 . S
C467 C466 1.397 . S
C467 C468 1.334 . S
C468 H439 0.950 . S
C468 C467 1.334 . S
C468 C469 1.287 . S
C469 C468 1.287 . S
C469 C470 1.524 . S
C469 H472 0.999 . S
C470 H440 0.950 . S
C470 C469 1.524 . S
C470 C471 1.415 . S
C471 H441 0.950 . S
C471 C466 1.363 . S
C471 C470 1.415 . S
H472 C469 0.999 . S
H473 C454 0.913 . S
H474 C492 0.951 . S
H475 C494 0.951 . S
H476 C496 0.950 . S
H477 C497 0.950 . S
H478 C499 0.950 . S
H479 C502 0.950 . S
H480 C503 0.950 . S
H481 C505 0.950 . S
H482 C506 0.950 . S
H483 C507 0.951 . S
H484 C509 0.951 . S
H485 C511 0.950 . S
H486 C512 0.950 . S
H487 C514 0.950 . S
H488 C517 0.950 . S
H489 C518 0.950 . S
H490 C520 0.950 . S
H491 C521 0.950 . S
C492 H474 0.951 . S
C492 C493 1.366 . S
C492 C494 1.388 . S
C493 C492 1.366 . S
C493 C497 1.385 . S
C494 H475 0.951 . S
C494 C492 1.388 . S
C494 C495 1.366 . S
C495 C494 1.366 . S
C495 C496 1.414 . S
C495 C498 1.499 . S
C496 H476 0.950 . S
C496 C495 1.414 . S
C496 C497 1.374 . S
C497 H477 0.950 . S
C497 C493 1.385 . S
C497 C496 1.374 . S
C498 C495 1.499 . S
C498 C499 1.373 . S
C498 C500 1.389 . S
C499 H478 0.950 . S
C499 C498 1.373 . S
C499 C515 1.377 . S
C500 C498 1.389 . S
C500 C501 1.524 . S
C500 C514 1.377 . S
C501 C500 1.524 . S
C501 C502 1.397 . S
C501 C506 1.363 . S
C502 H479 0.950 . S
C502 C501 1.397 . S
C502 C503 1.334 . S
C503 H480 0.950 . S
C503 C502 1.334 . S
C503 C504 1.287 . S
C504 C503 1.287 . S
C504 C505 1.524 . S
C504 H523 0.913 . S
C505 H481 0.950 . S
C505 C504 1.524 . S
C505 C506 1.415 . S
C506 H482 0.950 . S
C506 C501 1.363 . S
C506 C505 1.415 . S
C507 H483 0.951 . S
C507 C508 1.366 . S
C507 C509 1.388 . S
C508 C507 1.366 . S
C508 C512 1.385 . S
C509 H484 0.951 . S
C509 C507 1.388 . S
C509 C510 1.366 . S
C510 C509 1.366 . S
C510 C511 1.414 . S
C510 C513 1.499 . S
C511 H485 0.950 . S
C511 C510 1.414 . S
C511 C512 1.374 . S
C512 H486 0.950 . S
C512 C508 1.385 . S
C512 C511 1.374 . S
C513 C510 1.499 . S
C513 C514 1.373 . S
C513 C515 1.389 . S
C514 H487 0.950 . S
C514 C500 1.377 . S
C514 C513 1.373 . S
C515 C499 1.377 . S
C515 C513 1.389 . S
C515 C516 1.524 . S
C516 C515 1.524 . S
C516 C517 1.397 . S
C516 C521 1.363 . S
C517 H488 0.950 . S
C517 C516 1.397 . S
C517 C518 1.334 . S
C518 H489 0.950 . S
C518 C517 1.334 . S
C518 C519 1.287 . S
C519 C518 1.287 . S
C519 C520 1.524 . S
C519 H522 0.999 . S
C520 H490 0.950 . S
C520 C519 1.524 . S
C520 C521 1.415 . S
C521 H491 0.950 . S
C521 C516 1.363 . S
C521 C520 1.415 . S
H522 C519 0.999 . S
H523 C504 0.913 . S
H524 C542 0.951 . S
H525 C544 0.951 . S
H526 C546 0.950 . S
H527 C547 0.950 . S
H528 C549 0.950 . S
H529 C552 0.950 . S
H530 C553 0.950 . S
H531 C555 0.950 . S
H532 C556 0.950 . S
H533 C557 0.951 . S
H534 C559 0.951 . S
H535 C561 0.950 . S
H536 C562 0.950 . S
H537 C564 0.950 . S
H538 C567 0.950 . S
H539 C568 0.950 . S
H540 C570 0.950 . S
H541 C571 0.950 . S
C542 H524 0.951 . S
C542 C543 1.366 . S
C542 C544 1.388 . S
C543 C542 1.366 . S
C543 C547 1.385 . S
C544 H525 0.951 . S
C544 C542 1.388 . S
C544 C545 1.366 . S
C545 C544 1.366 . S
C545 C546 1.414 . S
C545 C548 1.499 . S
C546 H526 0.950 . S
C546 C545 1.414 . S
C546 C547 1.374 . S
C547 H527 0.950 . S
C547 C543 1.385 . S
C547 C546 1.374 . S
C548 C545 1.499 . S
C548 C549 1.373 . S
C548 C550 1.389 . S
C549 H528 0.950 . S
C549 C548 1.373 . S
C549 C565 1.377 . S
C550 C548 1.389 . S
C550 C551 1.524 . S
C550 C564 1.377 . S
C551 C550 1.524 . S
C551 C552 1.397 . S
C551 C556 1.363 . S
C552 H529 0.950 . S
C552 C551 1.397 . S
C552 C553 1.334 . S
C553 H530 0.950 . S
C553 C552 1.334 . S
C553 C554 1.287 . S
C554 C553 1.287 . S
C554 C555 1.524 . S
C554 H573 0.913 . S
C555 H531 0.950 . S
C555 C554 1.524 . S
C555 C556 1.415 . S
C556 H532 0.950 . S
C556 C551 1.363 . S
C556 C555 1.415 . S
C557 H533 0.951 . S
C557 C558 1.366 . S
C557 C559 1.388 . S
C558 C557 1.366 . S
C558 C562 1.385 . S
C559 H534 0.951 . S
C559 C557 1.388 . S
C559 C560 1.366 . S
C560 C559 1.366 . S
C560 C561 1.414 . S
C560 C563 1.499 . S
C561 H535 0.950 . S
C561 C560 1.414 . S
C561 C562 1.374 . S
C562 H536 0.950 . S
C562 C558 1.385 . S
C562 C561 1.374 . S
C563 C560 1.499 . S
C563 C564 1.373 . S
C563 C565 1.389 . S
C564 H537 0.950 . S
C564 C550 1.377 . S
C564 C563 1.373 . S
C565 C549 1.377 . S
C565 C563 1.389 . S
C565 C566 1.524 . S
C566 C565 1.524 . S
C566 C567 1.397 . S
C566 C571 1.363 . S
C567 H538 0.950 . S
C567 C566 1.397 . S
C567 C568 1.334 . S
C568 H539 0.950 . S
C568 C567 1.334 . S
C568 C569 1.287 1_556 S
C569 C568 1.287 1_554 S
C569 C570 1.524 . S
C569 H572 0.999 . S
C570 H540 0.950 . S
C570 C569 1.524 . S
C570 C571 1.415 1_554 S
C571 H541 0.950 . S
C571 C566 1.363 . S
C571 C570 1.415 1_556 S
H572 C569 0.999 . S
H573 C554 0.913 . S
H574 C592 0.951 . S
H575 C594 0.951 . S
H576 C596 0.950 . S
H577 C597 0.950 . S
H578 C599 0.950 . S
H579 C602 0.950 . S
H580 C603 0.950 . S
H581 C605 0.950 . S
H582 C606 0.950 . S
H583 C607 0.951 . S
H584 C609 0.951 . S
H585 C611 0.950 . S
H586 C612 0.950 . S
H587 C614 0.950 . S
H588 C617 0.950 . S
H589 C618 0.950 . S
H590 C620 0.950 . S
H591 C621 0.950 . S
C592 H574 0.951 . S
C592 C593 1.366 . S
C592 C594 1.388 . S
C593 C592 1.366 . S
C593 C597 1.385 . S
C594 H575 0.951 . S
C594 C592 1.388 . S
C594 C595 1.366 . S
C595 C594 1.366 . S
C595 C596 1.414 . S
C595 C598 1.499 . S
C596 H576 0.950 . S
C596 C595 1.414 . S
C596 C597 1.374 . S
C597 H577 0.950 . S
C597 C593 1.385 . S
C597 C596 1.374 . S
C598 C595 1.499 . S
C598 C599 1.373 . S
C598 C600 1.389 . S
C599 H578 0.950 . S
C599 C598 1.373 . S
C599 C615 1.377 . S
C600 C598 1.389 . S
C600 C601 1.524 . S
C600 C614 1.377 . S
C601 C600 1.524 . S
C601 C602 1.397 . S
C601 C606 1.363 . S
C602 H579 0.950 . S
C602 C601 1.397 . S
C602 C603 1.334 . S
C603 H580 0.950 . S
C603 C602 1.334 . S
C603 C604 1.287 . S
C604 C603 1.287 . S
C604 C605 1.524 . S
C604 H623 0.913 . S
C605 H581 0.950 . S
C605 C604 1.524 . S
C605 C606 1.415 . S
C606 H582 0.950 . S
C606 C601 1.363 . S
C606 C605 1.415 . S
C607 H583 0.951 . S
C607 C608 1.366 . S
C607 C609 1.388 . S
C608 C607 1.366 . S
C608 C612 1.385 . S
C609 H584 0.951 . S
C609 C607 1.388 . S
C609 C610 1.366 . S
C610 C609 1.366 . S
C610 C611 1.414 . S
C610 C613 1.499 . S
C611 H585 0.950 . S
C611 C610 1.414 . S
C611 C612 1.374 . S
C612 H586 0.950 . S
C612 C608 1.385 . S
C612 C611 1.374 . S
C613 C610 1.499 . S
C613 C614 1.373 . S
C613 C615 1.389 . S
C614 H587 0.950 . S
C614 C600 1.377 . S
C614 C613 1.373 . S
C615 C599 1.377 . S
C615 C613 1.389 . S
C615 C616 1.524 . S
C616 C615 1.524 . S
C616 C617 1.397 . S
C616 C621 1.363 . S
C617 H588 0.950 . S
C617 C616 1.397 . S
C617 C618 1.334 . S
C618 H589 0.950 . S
C618 C617 1.334 . S
C618 C619 1.287 . S
C619 C618 1.287 . S
C619 C620 1.524 . S
C619 H622 0.999 . S
C620 H590 0.950 . S
C620 C619 1.524 . S
C620 C621 1.415 . S
C621 H591 0.950 . S
C621 C616 1.363 . S
C621 C620 1.415 . S
H622 C619 0.999 . S
H623 C604 0.913 . S
H624 C642 0.951 . S
H625 C644 0.951 . S
H626 C646 0.950 . S
H627 C647 0.950 . S
H628 C649 0.950 . S
H629 C652 0.950 . S
H630 C653 0.950 . S
H631 C655 0.950 . S
H632 C656 0.950 . S
H633 C657 0.951 . S
H634 C659 0.951 . S
H635 C661 0.950 . S
H636 C662 0.950 . S
H637 C664 0.950 . S
H638 C667 0.950 . S
H639 C668 0.950 . S
H640 C670 0.950 . S
H641 C671 0.950 . S
C642 H624 0.951 . S
C642 C643 1.366 . S
C642 C644 1.388 . S
C643 C642 1.366 . S
C643 C647 1.385 . S
C644 H625 0.951 . S
C644 C642 1.388 . S
C644 C645 1.366 . S
C645 C644 1.366 . S
C645 C646 1.414 . S
C645 C648 1.499 . S
C646 H626 0.950 . S
C646 C645 1.414 . S
C646 C647 1.374 . S
C647 H627 0.950 . S
C647 C643 1.385 . S
C647 C646 1.374 . S
C648 C645 1.499 . S
C648 C649 1.373 . S
C648 C650 1.389 . S
C649 H628 0.950 . S
C649 C648 1.373 . S
C649 C665 1.377 . S
C650 C648 1.389 . S
C650 C651 1.524 . S
C650 C664 1.377 . S
C651 C650 1.524 . S
C651 C652 1.397 . S
C651 C656 1.363 . S
C652 H629 0.950 . S
C652 C651 1.397 . S
C652 C653 1.334 . S
C653 H630 0.950 . S
C653 C652 1.334 . S
C653 C654 1.287 . S
C654 C653 1.287 . S
C654 C655 1.524 . S
C654 H673 0.913 . S
C655 H631 0.950 . S
C655 C654 1.524 . S
C655 C656 1.415 . S
C656 H632 0.950 . S
C656 C651 1.363 . S
C656 C655 1.415 . S
C657 H633 0.951 . S
C657 C658 1.366 . S
C657 C659 1.388 . S
C658 C657 1.366 . S
C658 C662 1.385 . S
C659 H634 0.951 . S
C659 C657 1.388 . S
C659 C660 1.366 . S
C660 C659 1.366 . S
C660 C661 1.414 . S
C660 C663 1.499 . S
C661 H635 0.950 . S
C661 C660 1.414 . S
C661 C662 1.374 . S
C662 H636 0.950 . S
C662 C658 1.385 . S
C662 C661 1.374 . S
C663 C660 1.499 . S
C663 C664 1.373 . S
C663 C665 1.389 . S
C664 H637 0.950 . S
C664 C650 1.377 . S
C664 C663 1.373 . S
C665 C649 1.377 . S
C665 C663 1.389 . S
C665 C666 1.524 . S
C666 C665 1.524 . S
C666 C667 1.397 . S
C666 C671 1.363 . S
C667 H638 0.950 . S
C667 C666 1.397 . S
C667 C668 1.334 . S
C668 H639 0.950 . S
C668 C667 1.334 . S
C668 C669 1.287 . S
C669 C668 1.287 . S
C669 C670 1.524 . S
C669 H672 0.999 . S
C670 H640 0.950 . S
C670 C669 1.524 . S
C670 C671 1.415 . S
C671 H641 0.950 . S
C671 C666 1.363 . S
C671 C670 1.415 . S
H672 C669 0.999 . S
H673 C654 0.913 . S
H674 C692 0.951 . S
H675 C694 0.951 . S
H676 C696 0.950 . S
H677 C697 0.950 . S
H678 C699 0.950 . S
H679 C702 0.950 . S
H680 C703 0.950 . S
H681 C705 0.950 . S
H682 C706 0.950 . S
H683 C707 0.951 . S
H684 C709 0.951 . S
H685 C711 0.950 . S
H686 C712 0.950 . S
H687 C714 0.950 . S
H688 C717 0.950 . S
H689 C718 0.950 . S
H690 C720 0.950 . S
H691 C721 0.950 . S
C692 H674 0.951 . S
C692 C693 1.366 . S
C692 C694 1.388 . S
C693 C692 1.366 . S
C693 C697 1.385 . S
C694 H675 0.951 . S
C694 C692 1.388 . S
C694 C695 1.366 . S
C695 C694 1.366 . S
C695 C696 1.414 . S
C695 C698 1.499 . S
C696 H676 0.950 . S
C696 C695 1.414 . S
C696 C697 1.374 . S
C697 H677 0.950 . S
C697 C693 1.385 . S
C697 C696 1.374 . S
C698 C695 1.499 . S
C698 C699 1.373 . S
C698 C700 1.389 . S
C699 H678 0.950 . S
C699 C698 1.373 . S
C699 C715 1.377 . S
C700 C698 1.389 . S
C700 C701 1.524 . S
C700 C714 1.377 . S
C701 C700 1.524 . S
C701 C702 1.397 . S
C701 C706 1.363 . S
C702 H679 0.950 . S
C702 C701 1.397 . S
C702 C703 1.334 . S
C703 H680 0.950 . S
C703 C702 1.334 . S
C703 C704 1.287 . S
C704 C703 1.287 . S
C704 C705 1.524 . S
C704 H723 0.913 . S
C705 H681 0.950 . S
C705 C704 1.524 . S
C705 C706 1.415 . S
C706 H682 0.950 . S
C706 C701 1.363 . S
C706 C705 1.415 . S
C707 H683 0.951 . S
C707 C708 1.366 . S
C707 C709 1.388 . S
C708 C707 1.366 . S
C708 C712 1.385 . S
C709 H684 0.951 . S
C709 C707 1.388 . S
C709 C710 1.366 . S
C710 C709 1.366 . S
C710 C711 1.414 . S
C710 C713 1.499 . S
C711 H685 0.950 . S
C711 C710 1.414 . S
C711 C712 1.374 . S
C712 H686 0.950 . S
C712 C708 1.385 . S
C712 C711 1.374 . S
C713 C710 1.499 . S
C713 C714 1.373 . S
C713 C715 1.389 . S
C714 H687 0.950 . S
C714 C700 1.377 . S
C714 C713 1.373 . S
C715 C699 1.377 . S
C715 C713 1.389 . S
C715 C716 1.524 . S
C716 C715 1.524 . S
C716 C717 1.397 . S
C716 C721 1.363 . S
C717 H688 0.950 . S
C717 C716 1.397 . S
C717 C718 1.334 . S
C718 H689 0.950 . S
C718 C717 1.334 . S
C718 C719 1.287 . S
C719 C718 1.287 . S
C719 C720 1.524 . S
C719 H722 0.999 . S
C720 H690 0.950 . S
C720 C719 1.524 . S
C720 C721 1.415 . S
C721 H691 0.950 . S
C721 C716 1.363 . S
C721 C720 1.415 . S
H722 C719 0.999 . S
H723 C704 0.913 . S
H724 C742 0.951 . S
H725 C744 0.951 . S
H726 C746 0.950 . S
H727 C747 0.950 . S
H728 C749 0.950 . S
H729 C752 0.950 . S
H730 C753 0.950 . S
H731 C755 0.950 . S
H732 C756 0.950 . S
H733 C757 0.951 . S
H734 C759 0.951 . S
H735 C761 0.950 . S
H736 C762 0.950 . S
H737 C764 0.950 . S
H738 C767 0.950 . S
H739 C768 0.950 . S
H740 C770 0.950 . S
H741 C771 0.950 . S
C742 H724 0.951 . S
C742 C743 1.366 . S
C742 C744 1.388 . S
C743 C742 1.366 . S
C743 C747 1.385 . S
C744 H725 0.951 . S
C744 C742 1.388 . S
C744 C745 1.366 . S
C745 C744 1.366 . S
C745 C746 1.414 . S
C745 C748 1.499 . S
C746 H726 0.950 . S
C746 C745 1.414 . S
C746 C747 1.374 . S
C747 H727 0.950 . S
C747 C743 1.385 . S
C747 C746 1.374 . S
C748 C745 1.499 . S
C748 C749 1.373 . S
C748 C750 1.389 . S
C749 H728 0.950 . S
C749 C748 1.373 . S
C749 C765 1.377 . S
C750 C748 1.389 . S
C750 C751 1.524 . S
C750 C764 1.377 . S
C751 C750 1.524 . S
C751 C752 1.397 . S
C751 C756 1.363 . S
C752 H729 0.950 . S
C752 C751 1.397 . S
C752 C753 1.334 . S
C753 H730 0.950 . S
C753 C752 1.334 . S
C753 C754 1.287 . S
C754 C753 1.287 . S
C754 C755 1.524 . S
C754 H773 0.913 . S
C755 H731 0.950 . S
C755 C754 1.524 . S
C755 C756 1.415 . S
C756 H732 0.950 . S
C756 C751 1.363 . S
C756 C755 1.415 . S
C757 H733 0.951 . S
C757 C758 1.366 . S
C757 C759 1.388 . S
C758 C757 1.366 . S
C758 C762 1.385 . S
C759 H734 0.951 . S
C759 C757 1.388 . S
C759 C760 1.366 . S
C760 C759 1.366 . S
C760 C761 1.414 . S
C760 C763 1.499 . S
C761 H735 0.950 . S
C761 C760 1.414 . S
C761 C762 1.374 . S
C762 H736 0.950 . S
C762 C758 1.385 . S
C762 C761 1.374 . S
C763 C760 1.499 . S
C763 C764 1.373 . S
C763 C765 1.389 . S
C764 H737 0.950 . S
C764 C750 1.377 . S
C764 C763 1.373 . S
C765 C749 1.377 . S
C765 C763 1.389 . S
C765 C766 1.524 . S
C766 C765 1.524 . S
C766 C767 1.397 . S
C766 C771 1.363 . S
C767 H738 0.950 . S
C767 C766 1.397 . S
C767 C768 1.334 . S
C768 H739 0.950 . S
C768 C767 1.334 . S
C768 C769 1.287 . S
C769 C768 1.287 . S
C769 C770 1.524 . S
C769 H772 0.999 . S
C770 H740 0.950 . S
C770 C769 1.524 . S
C770 C771 1.415 . S
C771 H741 0.950 . S
C771 C766 1.363 . S
C771 C770 1.415 . S
H772 C769 0.999 . S
H773 C754 0.913 . S
H774 C792 0.951 . S
H775 C794 0.951 . S
H776 C796 0.950 . S
H777 C797 0.950 . S
H778 C799 0.950 . S
H779 C802 0.950 . S
H780 C803 0.950 . S
H781 C805 0.950 . S
H782 C806 0.950 . S
H783 C807 0.951 . S
H784 C809 0.951 . S
H785 C811 0.950 . S
H786 C812 0.950 . S
H787 C814 0.950 . S
H788 C817 0.950 . S
H789 C818 0.950 . S
H790 C820 0.950 . S
H791 C821 0.950 . S
C792 H774 0.951 . S
C792 C793 1.366 . S
C792 C794 1.388 . S
C793 C792 1.366 . S
C793 C797 1.385 . S
C794 H775 0.951 . S
C794 C792 1.388 . S
C794 C795 1.366 . S
C795 C794 1.366 . S
C795 C796 1.414 . S
C795 C798 1.499 . S
C796 H776 0.950 . S
C796 C795 1.414 . S
C796 C797 1.374 . S
C797 H777 0.950 . S
C797 C793 1.385 . S
C797 C796 1.374 . S
C798 C795 1.499 . S
C798 C799 1.373 . S
C798 C800 1.389 . S
C799 H778 0.950 . S
C799 C798 1.373 . S
C799 C815 1.377 . S
C800 C798 1.389 . S
C800 C801 1.524 . S
C800 C814 1.377 . S
C801 C800 1.524 . S
C801 C802 1.397 . S
C801 C806 1.363 . S
C802 H779 0.950 . S
C802 C801 1.397 . S
C802 C803 1.334 . S
C803 H780 0.950 . S
C803 C802 1.334 . S
C803 C804 1.287 . S
C804 C803 1.287 . S
C804 C805 1.524 . S
C804 H823 0.913 . S
C805 H781 0.950 . S
C805 C804 1.524 . S
C805 C806 1.415 . S
C806 H782 0.950 . S
C806 C801 1.363 . S
C806 C805 1.415 . S
C807 H783 0.951 . S
C807 C808 1.366 . S
C807 C809 1.388 . S
C808 C807 1.366 . S
C808 C812 1.385 . S
C809 H784 0.951 . S
C809 C807 1.388 . S
C809 C810 1.366 . S
C810 C809 1.366 . S
C810 C811 1.414 . S
C810 C813 1.499 . S
C811 H785 0.950 . S
C811 C810 1.414 . S
C811 C812 1.374 . S
C812 H786 0.950 . S
C812 C808 1.385 . S
C812 C811 1.374 . S
C813 C810 1.499 . S
C813 C814 1.373 . S
C813 C815 1.389 . S
C814 H787 0.950 . S
C814 C800 1.377 . S
C814 C813 1.373 . S
C815 C799 1.377 . S
C815 C813 1.389 . S
C815 C816 1.524 . S
C816 C815 1.524 . S
C816 C817 1.397 . S
C816 C821 1.363 . S
C817 H788 0.950 . S
C817 C816 1.397 . S
C817 C818 1.334 . S
C818 H789 0.950 . S
C818 C817 1.334 . S
C818 C819 1.287 . S
C819 C818 1.287 . S
C819 C820 1.524 . S
C819 H822 0.999 . S
C820 H790 0.950 . S
C820 C819 1.524 . S
C820 C821 1.415 . S
C821 H791 0.950 . S
C821 C816 1.363 . S
C821 C820 1.415 . S
H822 C819 0.999 . S
H823 C804 0.913 . S
H824 C842 0.951 . S
H825 C844 0.951 . S
H826 C846 0.950 . S
H827 C847 0.950 . S
H828 C849 0.950 . S
H829 C852 0.950 . S
H830 C853 0.950 . S
H831 C855 0.950 . S
H832 C856 0.950 . S
H833 C857 0.951 . S
H834 C859 0.951 . S
H835 C861 0.950 . S
H836 C862 0.950 . S
H837 C864 0.950 . S
H838 C867 0.950 . S
H839 C868 0.950 . S
H840 C870 0.950 . S
H841 C871 0.950 . S
C842 H824 0.951 . S
C842 C843 1.366 . S
C842 C844 1.388 . S
C843 C842 1.366 . S
C843 C847 1.385 . S
C844 H825 0.951 . S
C844 C842 1.388 . S
C844 C845 1.366 . S
C845 C844 1.366 . S
C845 C846 1.414 . S
C845 C848 1.499 . S
C846 H826 0.950 . S
C846 C845 1.414 . S
C846 C847 1.374 . S
C847 H827 0.950 . S
C847 C843 1.385 . S
C847 C846 1.374 . S
C848 C845 1.499 . S
C848 C849 1.373 . S
C848 C850 1.389 . S
C849 H828 0.950 . S
C849 C848 1.373 . S
C849 C865 1.377 . S
C850 C848 1.389 . S
C850 C851 1.524 . S
C850 C864 1.377 . S
C851 C850 1.524 . S
C851 C852 1.397 . S
C851 C856 1.363 . S
C852 H829 0.950 . S
C852 C851 1.397 . S
C852 C853 1.334 . S
C853 H830 0.950 . S
C853 C852 1.334 . S
C853 C854 1.287 . S
C854 C853 1.287 . S
C854 C855 1.524 . S
C854 H873 0.913 . S
C855 H831 0.950 . S
C855 C854 1.524 . S
C855 C856 1.415 . S
C856 H832 0.950 . S
C856 C851 1.363 . S
C856 C855 1.415 . S
C857 H833 0.951 . S
C857 C858 1.366 . S
C857 C859 1.388 . S
C858 C857 1.366 . S
C858 C862 1.385 . S
C859 H834 0.951 . S
C859 C857 1.388 . S
C859 C860 1.366 . S
C860 C859 1.366 . S
C860 C861 1.414 . S
C860 C863 1.499 . S
C861 H835 0.950 . S
C861 C860 1.414 . S
C861 C862 1.374 . S
C862 H836 0.950 . S
C862 C858 1.385 . S
C862 C861 1.374 . S
C863 C860 1.499 . S
C863 C864 1.373 . S
C863 C865 1.389 . S
C864 H837 0.950 . S
C864 C850 1.377 . S
C864 C863 1.373 . S
C865 C849 1.377 . S
C865 C863 1.389 . S
C865 C866 1.524 . S
C866 C865 1.524 . S
C866 C867 1.397 . S
C866 C871 1.363 . S
C867 H838 0.950 . S
C867 C866 1.397 . S
C867 C868 1.334 . S
C868 H839 0.950 . S
C868 C867 1.334 . S
C868 C869 1.287 . S
C869 C868 1.287 . S
C869 C870 1.524 . S
C869 H872 0.999 . S
C870 H840 0.950 . S
C870 C869 1.524 . S
C870 C871 1.415 . S
C871 H841 0.950 . S
C871 C866 1.363 . S
C871 C870 1.415 . S
H872 C869 0.999 . S
H873 C854 0.913 . S
H874 C892 0.951 . S
H875 C894 0.951 . S
H876 C896 0.950 . S
H877 C897 0.950 . S
H878 C899 0.950 . S
H879 C902 0.950 . S
H880 C903 0.950 . S
H881 C905 0.950 . S
H882 C906 0.950 . S
H883 C907 0.951 . S
H884 C909 0.951 . S
H885 C911 0.950 . S
H886 C912 0.950 . S
H887 C914 0.950 . S
H888 C917 0.950 . S
H889 C918 0.950 . S
H890 C920 0.950 . S
H891 C921 0.950 . S
C892 H874 0.951 . S
C892 C893 1.366 . S
C892 C894 1.388 . S
C893 C892 1.366 . S
C893 C897 1.385 . S
C894 H875 0.951 . S
C894 C892 1.388 . S
C894 C895 1.366 . S
C895 C894 1.366 . S
C895 C896 1.414 . S
C895 C898 1.499 . S
C896 H876 0.950 . S
C896 C895 1.414 . S
C896 C897 1.374 . S
C897 H877 0.950 . S
C897 C893 1.385 . S
C897 C896 1.374 . S
C898 C895 1.499 . S
C898 C899 1.373 . S
C898 C900 1.389 . S
C899 H878 0.950 . S
C899 C898 1.373 . S
C899 C915 1.377 . S
C900 C898 1.389 . S
C900 C901 1.524 . S
C900 C914 1.377 . S
C901 C900 1.524 . S
C901 C902 1.397 . S
C901 C906 1.363 . S
C902 H879 0.950 . S
C902 C901 1.397 . S
C902 C903 1.334 . S
C903 H880 0.950 . S
C903 C902 1.334 . S
C903 C904 1.287 . S
C904 C903 1.287 . S
C904 C905 1.524 . S
C904 H923 0.913 . S
C905 H881 0.950 . S
C905 C904 1.524 . S
C905 C906 1.415 . S
C906 H882 0.950 . S
C906 C901 1.363 . S
C906 C905 1.415 . S
C907 H883 0.951 . S
C907 C908 1.366 . S
C907 C909 1.388 . S
C908 C907 1.366 . S
C908 C912 1.385 . S
C909 H884 0.951 . S
C909 C907 1.388 . S
C909 C910 1.366 . S
C910 C909 1.366 . S
C910 C911 1.414 . S
C910 C913 1.499 . S
C911 H885 0.950 . S
C911 C910 1.414 . S
C911 C912 1.374 . S
C912 H886 0.950 . S
C912 C908 1.385 . S
C912 C911 1.374 . S
C913 C910 1.499 . S
C913 C914 1.373 . S
C913 C915 1.389 . S
C914 H887 0.950 . S
C914 C900 1.377 . S
C914 C913 1.373 . S
C915 C899 1.377 . S
C915 C913 1.389 . S
C915 C916 1.524 . S
C916 C915 1.524 . S
C916 C917 1.397 . S
C916 C921 1.363 . S
C917 H888 0.950 . S
C917 C916 1.397 . S
C917 C918 1.334 . S
C918 H889 0.950 . S
C918 C917 1.334 . S
C918 C919 1.287 . S
C919 C918 1.287 . S
C919 C920 1.524 . S
C919 H922 0.999 . S
C920 H890 0.950 . S
C920 C919 1.524 . S
C920 C921 1.415 . S
C921 H891 0.950 . S
C921 C916 1.363 . S
C921 C920 1.415 . S
H922 C919 0.999 . S
H923 C904 0.913 . S
H924 C942 0.951 . S
H925 C944 0.951 . S
H926 C946 0.950 . S
H927 C947 0.950 . S
H928 C949 0.950 . S
H929 C952 0.950 . S
H930 C953 0.950 . S
H931 C955 0.950 . S
H932 C956 0.950 . S
H933 C957 0.951 . S
H934 C959 0.951 . S
H935 C961 0.950 . S
H936 C962 0.950 . S
H937 C964 0.950 . S
H938 C967 0.950 . S
H939 C968 0.950 . S
H940 C970 0.950 . S
H941 C971 0.950 . S
C942 H924 0.951 . S
C942 C943 1.366 . S
C942 C944 1.388 . S
C943 C942 1.366 . S
C943 C947 1.385 . S
C944 H925 0.951 . S
C944 C942 1.388 . S
C944 C945 1.366 . S
C945 C944 1.366 . S
C945 C946 1.414 . S
C945 C948 1.499 . S
C946 H926 0.950 . S
C946 C945 1.414 . S
C946 C947 1.374 . S
C947 H927 0.950 . S
C947 C943 1.385 . S
C947 C946 1.374 . S
C948 C945 1.499 . S
C948 C949 1.373 . S
C948 C950 1.389 . S
C949 H928 0.950 . S
C949 C948 1.373 . S
C949 C965 1.377 . S
C950 C948 1.389 . S
C950 C951 1.524 . S
C950 C964 1.377 . S
C951 C950 1.524 . S
C951 C952 1.397 . S
C951 C956 1.363 . S
C952 H929 0.950 . S
C952 C951 1.397 . S
C952 C953 1.334 . S
C953 H930 0.950 . S
C953 C952 1.334 . S
C953 C954 1.287 . S
C954 C953 1.287 . S
C954 C955 1.524 . S
C954 H973 0.913 . S
C955 H931 0.950 . S
C955 C954 1.524 . S
C955 C956 1.415 . S
C956 H932 0.950 . S
C956 C951 1.363 . S
C956 C955 1.415 . S
C957 H933 0.951 . S
C957 C958 1.366 . S
C957 C959 1.388 . S
C958 C957 1.366 . S
C958 C962 1.385 . S
C959 H934 0.951 . S
C959 C957 1.388 . S
C959 C960 1.366 . S
C960 C959 1.366 . S
C960 C961 1.414 . S
C960 C963 1.499 . S
C961 H935 0.950 . S
C961 C960 1.414 . S
C961 C962 1.374 . S
C962 H936 0.950 . S
C962 C958 1.385 . S
C962 C961 1.374 . S
C963 C960 1.499 . S
C963 C964 1.373 . S
C963 C965 1.389 . S
C964 H937 0.950 . S
C964 C950 1.377 . S
C964 C963 1.373 . S
C965 C949 1.377 . S
C965 C963 1.389 . S
C965 C966 1.524 . S
C966 C965 1.524 . S
C966 C967 1.397 . S
C966 C971 1.363 . S
C967 H938 0.950 . S
C967 C966 1.397 . S
C967 C968 1.334 . S
C968 H939 0.950 . S
C968 C967 1.334 . S
C968 C969 1.287 . S
C969 C968 1.287 . S
C969 C970 1.524 . S
C969 H972 0.999 . S
C970 H940 0.950 . S
C970 C969 1.524 . S
C970 C971 1.415 . S
C971 H941 0.950 . S
C971 C966 1.363 . S
C971 C970 1.415 . S
H972 C969 0.999 . S
H973 C954 0.913 . S
H974 C992 0.951 . S
H975 C994 0.951 . S
H976 C996 0.950 . S
H977 C997 0.950 . S
H978 C999 0.950 . S
H979 C1002 0.950 . S
H980 C1003 0.950 . S
H981 C1005 0.950 . S
H982 C1006 0.950 . S
H983 C1007 0.951 . S
H984 C1009 0.951 . S
H985 C1011 0.950 . S
H986 C1012 0.950 . S
H987 C1014 0.950 . S
H988 C1017 0.950 . S
H989 C1018 0.950 . S
H990 C1020 0.950 . S
H991 C1021 0.950 . S
C992 H974 0.951 . S
C992 C993 1.366 . S
C992 C994 1.388 . S
C993 C992 1.366 . S
C993 C997 1.385 . S
C994 H975 0.951 . S
C994 C992 1.388 . S
C994 C995 1.366 . S
C995 C994 1.366 . S
C995 C996 1.414 . S
C995 C998 1.499 . S
C996 H976 0.950 . S
C996 C995 1.414 . S
C996 C997 1.374 . S
C997 H977 0.950 . S
C997 C993 1.385 . S
C997 C996 1.374 . S
C998 C995 1.499 . S
C998 C999 1.373 . S
C998 C1000 1.389 . S
C999 H978 0.950 . S
C999 C998 1.373 . S
C999 C1015 1.377 . S
C1000 C998 1.389 . S
C1000 C1001 1.524 . S
C1000 C1014 1.377 . S
C1001 C1000 1.524 . S
C1001 C1002 1.397 . S
C1001 C1006 1.363 . S
C1002 H979 0.950 . S
C1002 C1001 1.397 . S
C1002 C1003 1.334 . S
C1003 H980 0.950 . S
C1003 C1002 1.334 . S
C1003 C1004 1.287 . S
C1004 C1003 1.287 . S
C1004 C1005 1.524 . S
C1004 H1023 0.913 . S
C1005 H981 0.950 . S
C1005 C1004 1.524 . S
C1005 C1006 1.415 . S
C1006 H982 0.950 . S
C1006 C1001 1.363 . S
C1006 C1005 1.415 . S
C1007 H983 0.951 . S
C1007 C1008 1.366 . S
C1007 C1009 1.388 . S
C1008 C1007 1.366 . S
C1008 C1012 1.385 . S
C1009 H984 0.951 . S
C1009 C1007 1.388 . S
C1009 C1010 1.366 . S
C1010 C1009 1.366 . S
C1010 C1011 1.414 . S
C1010 C1013 1.499 . S
C1011 H985 0.950 . S
C1011 C1010 1.414 . S
C1011 C1012 1.374 . S
C1012 H986 0.950 . S
C1012 C1008 1.385 . S
C1012 C1011 1.374 . S
C1013 C1010 1.499 . S
C1013 C1014 1.373 . S
C1013 C1015 1.389 . S
C1014 H987 0.950 . S
C1014 C1000 1.377 . S
C1014 C1013 1.373 . S
C1015 C999 1.377 . S
C1015 C1013 1.389 . S
C1015 C1016 1.524 . S
C1016 C1015 1.524 . S
C1016 C1017 1.397 . S
C1016 C1021 1.363 . S
C1017 H988 0.950 . S
C1017 C1016 1.397 . S
C1017 C1018 1.334 . S
C1018 H989 0.950 . S
C1018 C1017 1.334 . S
C1018 C1019 1.287 . S
C1019 C1018 1.287 . S
C1019 C1020 1.524 . S
C1019 H1022 0.999 . S
C1020 H990 0.950 . S
C1020 C1019 1.524 . S
C1020 C1021 1.415 . S
C1021 H991 0.950 . S
C1021 C1016 1.363 . S
C1021 C1020 1.415 . S
H1022 C1019 0.999 . S
H1023 C1004 0.913 . S
H1024 C1042 0.951 . S
H1025 C1044 0.951 . S
H1026 C1046 0.950 . S
H1027 C1047 0.950 . S
H1028 C1049 0.950 . S
H1029 C1052 0.950 . S
H1030 C1053 0.950 . S
H1031 C1055 0.950 . S
H1032 C1056 0.950 . S
H1033 C1057 0.951 . S
H1034 C1059 0.951 . S
H1035 C1061 0.950 . S
H1036 C1062 0.950 . S
H1037 C1064 0.950 . S
H1038 C1067 0.950 . S
H1039 C1068 0.950 . S
H1040 C1070 0.950 . S
H1041 C1071 0.950 . S
C1042 H1024 0.951 . S
C1042 C1043 1.366 . S
C1042 C1044 1.388 . S
C1043 C1042 1.366 . S
C1043 C1047 1.385 . S
C1044 H1025 0.951 . S
C1044 C1042 1.388 . S
C1044 C1045 1.366 . S
C1045 C1044 1.366 . S
C1045 C1046 1.414 . S
C1045 C1048 1.499 . S
C1046 H1026 0.950 . S
C1046 C1045 1.414 . S
C1046 C1047 1.374 . S
C1047 H1027 0.950 . S
C1047 C1043 1.385 . S
C1047 C1046 1.374 . S
C1048 C1045 1.499 . S
C1048 C1049 1.373 . S
C1048 C1050 1.389 1_556 S
C1049 H1028 0.950 . S
C1049 C1048 1.373 . S
C1049 C1065 1.377 . S
C1050 C1048 1.389 1_554 S
C1050 C1051 1.524 . S
C1050 C1064 1.377 . S
C1051 C1050 1.524 . S
C1051 C1052 1.397 . S
C1051 C1056 1.363 . S
C1052 H1029 0.950 . S
C1052 C1051 1.397 . S
C1052 C1053 1.334 . S
C1053 H1030 0.950 . S
C1053 C1052 1.334 . S
C1053 C1054 1.287 . S
C1054 C1053 1.287 . S
C1054 C1055 1.524 . S
C1054 H1073 0.913 . S
C1055 H1031 0.950 . S
C1055 C1054 1.524 . S
C1055 C1056 1.415 . S
C1056 H1032 0.950 . S
C1056 C1051 1.363 . S
C1056 C1055 1.415 . S
C1057 H1033 0.951 . S
C1057 C1058 1.366 . S
C1057 C1059 1.388 . S
C1058 C1057 1.366 . S
C1058 C1062 1.385 . S
C1059 H1034 0.951 . S
C1059 C1057 1.388 . S
C1059 C1060 1.366 . S
C1060 C1059 1.366 . S
C1060 C1061 1.414 . S
C1060 C1063 1.499 . S
C1061 H1035 0.950 . S
C1061 C1060 1.414 . S
C1061 C1062 1.374 . S
C1062 H1036 0.950 . S
C1062 C1058 1.385 . S
C1062 C1061 1.374 . S
C1063 C1060 1.499 . S
C1063 C1064 1.373 . S
C1063 C1065 1.389 1_554 S
C1064 H1037 0.950 . S
C1064 C1050 1.377 . S
C1064 C1063 1.373 . S
C1065 C1049 1.377 . S
C1065 C1063 1.389 1_556 S
C1065 C1066 1.524 . S
C1066 C1065 1.524 . S
C1066 C1067 1.397 . S
C1066 C1071 1.363 . S
C1067 H1038 0.950 . S
C1067 C1066 1.397 . S
C1067 C1068 1.334 . S
C1068 H1039 0.950 . S
C1068 C1067 1.334 . S
C1068 C1069 1.287 . S
C1069 C1068 1.287 . S
C1069 C1070 1.524 . S
C1069 H1072 0.999 . S
C1070 H1040 0.950 . S
C1070 C1069 1.524 . S
C1070 C1071 1.415 . S
C1071 H1041 0.950 . S
C1071 C1066 1.363 . S
C1071 C1070 1.415 . S
H1072 C1069 0.999 . S
H1073 C1054 0.913 . S
H1074 C1092 0.951 . S
H1075 C1094 0.951 . S
H1076 C1096 0.950 . S
H1077 C1097 0.950 . S
H1078 C1099 0.950 . S
H1079 C1102 0.950 . S
H1080 C1103 0.950 . S
H1081 C1105 0.950 . S
H1082 C1106 0.950 . S
H1083 C1107 0.951 . S
H1084 C1109 0.951 . S
H1085 C1111 0.950 . S
H1086 C1112 0.950 . S
H1087 C1114 0.950 . S
H1088 C1117 0.950 . S
H1089 C1118 0.950 . S
H1090 C1120 0.950 . S
H1091 C1121 0.950 . S
C1092 H1074 0.951 . S
C1092 C1093 1.366 . S
C1092 C1094 1.388 . S
C1093 C1092 1.366 . S
C1093 C1097 1.385 . S
C1094 H1075 0.951 . S
C1094 C1092 1.388 . S
C1094 C1095 1.366 . S
C1095 C1094 1.366 . S
C1095 C1096 1.414 . S
C1095 C1098 1.499 . S
C1096 H1076 0.950 . S
C1096 C1095 1.414 . S
C1096 C1097 1.374 . S
C1097 H1077 0.950 . S
C1097 C1093 1.385 . S
C1097 C1096 1.374 . S
C1098 C1095 1.499 . S
C1098 C1099 1.373 . S
C1098 C1100 1.389 . S
C1099 H1078 0.950 . S
C1099 C1098 1.373 . S
C1099 C1115 1.377 . S
C1100 C1098 1.389 . S
C1100 C1101 1.524 . S
C1100 C1114 1.377 . S
C1101 C1100 1.524 . S
C1101 C1102 1.397 . S
C1101 C1106 1.363 . S
C1102 H1079 0.950 . S
C1102 C1101 1.397 . S
C1102 C1103 1.334 . S
C1103 H1080 0.950 . S
C1103 C1102 1.334 . S
C1103 C1104 1.287 . S
C1104 C1103 1.287 . S
C1104 C1105 1.524 . S
C1104 H1123 0.913 . S
C1105 H1081 0.950 . S
C1105 C1104 1.524 . S
C1105 C1106 1.415 . S
C1106 H1082 0.950 . S
C1106 C1101 1.363 . S
C1106 C1105 1.415 . S
C1107 H1083 0.951 . S
C1107 C1108 1.366 . S
C1107 C1109 1.388 . S
C1108 C1107 1.366 . S
C1108 C1112 1.385 . S
C1109 H1084 0.951 . S
C1109 C1107 1.388 . S
C1109 C1110 1.366 . S
C1110 C1109 1.366 . S
C1110 C1111 1.414 . S
C1110 C1113 1.499 . S
C1111 H1085 0.950 . S
C1111 C1110 1.414 . S
C1111 C1112 1.374 . S
C1112 H1086 0.950 . S
C1112 C1108 1.385 . S
C1112 C1111 1.374 . S
C1113 C1110 1.499 . S
C1113 C1114 1.373 . S
C1113 C1115 1.389 . S
C1114 H1087 0.950 . S
C1114 C1100 1.377 . S
C1114 C1113 1.373 . S
C1115 C1099 1.377 . S
C1115 C1113 1.389 . S
C1115 C1116 1.524 . S
C1116 C1115 1.524 . S
C1116 C1117 1.397 . S
C1116 C1121 1.363 . S
C1117 H1088 0.950 . S
C1117 C1116 1.397 . S
C1117 C1118 1.334 . S
C1118 H1089 0.950 . S
C1118 C1117 1.334 . S
C1118 C1119 1.287 . S
C1119 C1118 1.287 . S
C1119 C1120 1.524 . S
C1119 H1122 0.999 . S
C1120 H1090 0.950 . S
C1120 C1119 1.524 . S
C1120 C1121 1.415 . S
C1121 H1091 0.950 . S
C1121 C1116 1.363 . S
C1121 C1120 1.415 . S
H1122 C1119 0.999 . S
H1123 C1104 0.913 . S
H1124 C1142 0.951 . S
H1125 C1144 0.951 . S
H1126 C1146 0.950 1_556 S
H1127 C1147 0.950 . S
H1128 C1149 0.950 . S
H1129 C1152 0.950 . S
H1130 C1153 0.950 . S
H1131 C1155 0.950 . S
H1132 C1156 0.950 . S
H1133 C1157 0.951 . S
H1134 C1159 0.951 . S
H1135 C1161 0.950 1_554 S
H1136 C1162 0.950 . S
H1137 C1164 0.950 . S
H1138 C1167 0.950 . S
H1139 C1168 0.950 . S
H1140 C1170 0.950 . S
H1141 C1171 0.950 . S
C1142 H1124 0.951 . S
C1142 C1143 1.366 . S
C1142 C1144 1.388 . S
C1143 C1142 1.366 . S
C1143 C1147 1.385 . S
C1144 H1125 0.951 . S
C1144 C1142 1.388 . S
C1144 C1145 1.366 . S
C1145 C1144 1.366 . S
C1145 C1146 1.414 . S
C1145 C1148 1.499 . S
C1146 H1126 0.950 1_554 S
C1146 C1145 1.414 . S
C1146 C1147 1.374 . S
C1147 H1127 0.950 . S
C1147 C1143 1.385 . S
C1147 C1146 1.374 . S
C1148 C1145 1.499 . S
C1148 C1149 1.373 1_554 S
C1148 C1150 1.389 . S
C1149 H1128 0.950 . S
C1149 C1148 1.373 1_556 S
C1149 C1165 1.377 . S
C1150 C1148 1.389 . S
C1150 C1151 1.524 . S
C1150 C1164 1.377 . S
C1151 C1150 1.524 . S
C1151 C1152 1.397 . S
C1151 C1156 1.363 . S
C1152 H1129 0.950 . S
C1152 C1151 1.397 . S
C1152 C1153 1.334 . S
C1153 H1130 0.950 . S
C1153 C1152 1.334 . S
C1153 C1154 1.287 . S
C1154 C1153 1.287 . S
C1154 C1155 1.524 . S
C1154 H1173 0.913 . S
C1155 H1131 0.950 . S
C1155 C1154 1.524 . S
C1155 C1156 1.415 . S
C1156 H1132 0.950 . S
C1156 C1151 1.363 . S
C1156 C1155 1.415 . S
C1157 H1133 0.951 . S
C1157 C1158 1.366 . S
C1157 C1159 1.388 . S
C1158 C1157 1.366 . S
C1158 C1162 1.385 . S
C1159 H1134 0.951 . S
C1159 C1157 1.388 . S
C1159 C1160 1.366 . S
C1160 C1159 1.366 . S
C1160 C1161 1.414 . S
C1160 C1163 1.499 . S
C1161 H1135 0.950 1_556 S
C1161 C1160 1.414 . S
C1161 C1162 1.374 . S
C1162 H1136 0.950 . S
C1162 C1158 1.385 . S
C1162 C1161 1.374 . S
C1163 C1160 1.499 . S
C1163 C1164 1.373 1_556 S
C1163 C1165 1.389 . S
C1164 H1137 0.950 . S
C1164 C1150 1.377 . S
C1164 C1163 1.373 1_554 S
C1165 C1149 1.377 . S
C1165 C1163 1.389 . S
C1165 C1166 1.524 . S
C1166 C1165 1.524 . S
C1166 C1167 1.397 . S
C1166 C1171 1.363 . S
C1167 H1138 0.950 . S
C1167 C1166 1.397 . S
C1167 C1168 1.334 . S
C1168 H1139 0.950 . S
C1168 C1167 1.334 . S
C1168 C1169 1.287 . S
C1169 C1168 1.287 . S
C1169 C1170 1.524 . S
C1169 H1172 0.999 . S
C1170 H1140 0.950 . S
C1170 C1169 1.524 . S
C1170 C1171 1.415 . S
C1171 H1141 0.950 . S
C1171 C1166 1.363 . S
C1171 C1170 1.415 . S
H1172 C1169 0.999 . S
H1173 C1154 0.913 . S
H1174 C1192 0.951 . S
H1175 C1194 0.951 . S
H1176 C1196 0.950 . S
H1177 C1197 0.950 . S
H1178 C1199 0.950 . S
H1179 C1202 0.950 . S
H1180 C1203 0.950 . S
H1181 C1205 0.950 . S
H1182 C1206 0.950 . S
H1183 C1207 0.951 . S
H1184 C1209 0.951 . S
H1185 C1211 0.950 . S
H1186 C1212 0.950 . S
H1187 C1214 0.950 . S
H1188 C1217 0.950 . S
H1189 C1218 0.950 . S
H1190 C1220 0.950 . S
H1191 C1221 0.950 . S
C1192 H1174 0.951 . S
C1192 C1193 1.366 . S
C1192 C1194 1.388 . S
C1193 C1192 1.366 . S
C1193 C1197 1.385 . S
C1194 H1175 0.951 . S
C1194 C1192 1.388 . S
C1194 C1195 1.366 . S
C1195 C1194 1.366 . S
C1195 C1196 1.414 . S
C1195 C1198 1.499 . S
C1196 H1176 0.950 . S
C1196 C1195 1.414 . S
C1196 C1197 1.374 . S
C1197 H1177 0.950 . S
C1197 C1193 1.385 . S
C1197 C1196 1.374 . S
C1198 C1195 1.499 . S
C1198 C1199 1.373 . S
C1198 C1200 1.389 . S
C1199 H1178 0.950 . S
C1199 C1198 1.373 . S
C1199 C1215 1.377 . S
C1200 C1198 1.389 . S
C1200 C1201 1.524 . S
C1200 C1214 1.377 . S
C1201 C1200 1.524 . S
C1201 C1202 1.397 . S
C1201 C1206 1.363 . S
C1202 H1179 0.950 . S
C1202 C1201 1.397 . S
C1202 C1203 1.334 . S
C1203 H1180 0.950 . S
C1203 C1202 1.334 . S
C1203 C1204 1.287 . S
C1204 C1203 1.287 . S
C1204 C1205 1.524 . S
C1204 H1223 0.913 . S
C1205 H1181 0.950 . S
C1205 C1204 1.524 . S
C1205 C1206 1.415 . S
C1206 H1182 0.950 . S
C1206 C1201 1.363 . S
C1206 C1205 1.415 . S
C1207 H1183 0.951 . S
C1207 C1208 1.366 . S
C1207 C1209 1.388 . S
C1208 C1207 1.366 . S
C1208 C1212 1.385 . S
C1209 H1184 0.951 . S
C1209 C1207 1.388 . S
C1209 C1210 1.366 . S
C1210 C1209 1.366 . S
C1210 C1211 1.414 . S
C1210 C1213 1.499 . S
C1211 H1185 0.950 . S
C1211 C1210 1.414 . S
C1211 C1212 1.374 . S
C1212 H1186 0.950 . S
C1212 C1208 1.385 . S
C1212 C1211 1.374 . S
C1213 C1210 1.499 . S
C1213 C1214 1.373 . S
C1213 C1215 1.389 . S
C1214 H1187 0.950 . S
C1214 C1200 1.377 . S
C1214 C1213 1.373 . S
C1215 C1199 1.377 . S
C1215 C1213 1.389 . S
C1215 C1216 1.524 . S
C1216 C1215 1.524 . S
C1216 C1217 1.397 . S
C1216 C1221 1.363 . S
C1217 H1188 0.950 . S
C1217 C1216 1.397 . S
C1217 C1218 1.334 . S
C1218 H1189 0.950 . S
C1218 C1217 1.334 . S
C1218 C1219 1.287 . S
C1219 C1218 1.287 . S
C1219 C1220 1.524 . S
C1219 H1222 0.999 . S
C1220 H1190 0.950 . S
C1220 C1219 1.524 . S
C1220 C1221 1.415 . S
C1221 H1191 0.950 . S
C1221 C1216 1.363 . S
C1221 C1220 1.415 . S
H1222 C1219 0.999 . S
H1223 C1204 0.913 . S
H1224 C1242 0.951 . S
H1225 C1244 0.951 . S
H1226 C1246 0.950 . S
H1227 C1247 0.950 . S
H1228 C1249 0.950 . S
H1229 C1252 0.950 . S
H1230 C1253 0.950 . S
H1231 C1255 0.950 . S
H1232 C1256 0.950 . S
H1233 C1257 0.951 . S
H1234 C1259 0.951 . S
H1235 C1261 0.950 . S
H1236 C1262 0.950 . S
H1237 C1264 0.950 . S
H1238 C1267 0.950 . S
H1239 C1268 0.950 . S
H1240 C1270 0.950 . S
H1241 C1271 0.950 . S
C1242 H1224 0.951 . S
C1242 C1243 1.366 . S
C1242 C1244 1.388 . S
C1243 C1242 1.366 . S
C1243 C1247 1.385 . S
C1244 H1225 0.951 . S
C1244 C1242 1.388 . S
C1244 C1245 1.366 . S
C1245 C1244 1.366 . S
C1245 C1246 1.414 . S
C1245 C1248 1.499 . S
C1246 H1226 0.950 . S
C1246 C1245 1.414 . S
C1246 C1247 1.374 . S
C1247 H1227 0.950 . S
C1247 C1243 1.385 . S
C1247 C1246 1.374 . S
C1248 C1245 1.499 . S
C1248 C1249 1.373 1_554 S
C1248 C1250 1.389 . S
C1249 H1228 0.950 . S
C1249 C1248 1.373 1_556 S
C1249 C1265 1.377 . S
C1250 C1248 1.389 . S
C1250 C1251 1.524 . S
C1250 C1264 1.377 . S
C1251 C1250 1.524 . S
C1251 C1252 1.397 . S
C1251 C1256 1.363 . S
C1252 H1229 0.950 . S
C1252 C1251 1.397 . S
C1252 C1253 1.334 . S
C1253 H1230 0.950 . S
C1253 C1252 1.334 . S
C1253 C1254 1.287 . S
C1254 C1253 1.287 . S
C1254 C1255 1.524 . S
C1254 H1273 0.913 . S
C1255 H1231 0.950 . S
C1255 C1254 1.524 . S
C1255 C1256 1.415 . S
C1256 H1232 0.950 . S
C1256 C1251 1.363 . S
C1256 C1255 1.415 . S
C1257 H1233 0.951 . S
C1257 C1258 1.366 . S
C1257 C1259 1.388 . S
C1258 C1257 1.366 . S
C1258 C1262 1.385 . S
C1259 H1234 0.951 . S
C1259 C1257 1.388 . S
C1259 C1260 1.366 . S
C1260 C1259 1.366 . S
C1260 C1261 1.414 . S
C1260 C1263 1.499 . S
C1261 H1235 0.950 . S
C1261 C1260 1.414 . S
C1261 C1262 1.374 . S
C1262 H1236 0.950 . S
C1262 C1258 1.385 . S
C1262 C1261 1.374 . S
C1263 C1260 1.499 . S
C1263 C1264 1.373 1_556 S
C1263 C1265 1.389 . S
C1264 H1237 0.950 . S
C1264 C1250 1.377 . S
C1264 C1263 1.373 1_554 S
C1265 C1249 1.377 . S
C1265 C1263 1.389 . S
C1265 C1266 1.524 . S
C1266 C1265 1.524 . S
C1266 C1267 1.397 . S
C1266 C1271 1.363 . S
C1267 H1238 0.950 . S
C1267 C1266 1.397 . S
C1267 C1268 1.334 . S
C1268 H1239 0.950 . S
C1268 C1267 1.334 . S
C1268 C1269 1.287 . S
C1269 C1268 1.287 . S
C1269 C1270 1.524 . S
C1269 H1272 0.999 . S
C1270 H1240 0.950 . S
C1270 C1269 1.524 . S
C1270 C1271 1.415 . S
C1271 H1241 0.950 . S
C1271 C1266 1.363 . S
C1271 C1270 1.415 . S
H1272 C1269 0.999 . S
H1273 C1254 0.913 . S
H1274 C1292 0.951 . S
H1275 C1294 0.951 . S
H1276 C1296 0.950 . S
H1277 C1297 0.950 . S
H1278 C1299 0.950 . S
H1279 C1302 0.950 . S
H1280 C1303 0.950 . S
H1281 C1305 0.950 . S
H1282 C1306 0.950 . S
H1283 C1307 0.951 . S
H1284 C1309 0.951 . S
H1285 C1311 0.950 . S
H1286 C1312 0.950 . S
H1287 C1314 0.950 . S
H1288 C1317 0.950 . S
H1289 C1318 0.950 . S
H1290 C1320 0.950 . S
H1291 C1321 0.950 . S
C1292 H1274 0.951 . S
C1292 C1293 1.366 . S
C1292 C1294 1.388 . S
C1293 C1292 1.366 . S
C1293 C1297 1.385 . S
C1294 H1275 0.951 . S
C1294 C1292 1.388 . S
C1294 C1295 1.366 . S
C1295 C1294 1.366 . S
C1295 C1296 1.414 . S
C1295 C1298 1.499 . S
C1296 H1276 0.950 . S
C1296 C1295 1.414 . S
C1296 C1297 1.374 . S
C1297 H1277 0.950 . S
C1297 C1293 1.385 . S
C1297 C1296 1.374 . S
C1298 C1295 1.499 . S
C1298 C1299 1.373 . S
C1298 C1300 1.389 . S
C1299 H1278 0.950 . S
C1299 C1298 1.373 . S
C1299 C1315 1.377 . S
C1300 C1298 1.389 . S
C1300 C1301 1.524 . S
C1300 C1314 1.377 . S
C1301 C1300 1.524 . S
C1301 C1302 1.397 . S
C1301 C1306 1.363 . S
C1302 H1279 0.950 . S
C1302 C1301 1.397 . S
C1302 C1303 1.334 . S
C1303 H1280 0.950 . S
C1303 C1302 1.334 . S
C1303 C1304 1.287 . S
C1304 C1303 1.287 . S
C1304 C1305 1.524 . S
C1304 H1323 0.913 . S
C1305 H1281 0.950 . S
C1305 C1304 1.524 . S
C1305 C1306 1.415 . S
C1306 H1282 0.950 . S
C1306 C1301 1.363 . S
C1306 C1305 1.415 . S
C1307 H1283 0.951 . S
C1307 C1308 1.366 . S
C1307 C1309 1.388 . S
C1308 C1307 1.366 . S
C1308 C1312 1.385 . S
C1309 H1284 0.951 . S
C1309 C1307 1.388 . S
C1309 C1310 1.366 . S
C1310 C1309 1.366 . S
C1310 C1311 1.414 . S
C1310 C1313 1.499 . S
C1311 H1285 0.950 . S
C1311 C1310 1.414 . S
C1311 C1312 1.374 . S
C1312 H1286 0.950 . S
C1312 C1308 1.385 . S
C1312 C1311 1.374 . S
C1313 C1310 1.499 . S
C1313 C1314 1.373 . S
C1313 C1315 1.389 . S
C1314 H1287 0.950 . S
C1314 C1300 1.377 . S
C1314 C1313 1.373 . S
C1315 C1299 1.377 . S
C1315 C1313 1.389 . S
C1315 C1316 1.524 . S
C1316 C1315 1.524 . S
C1316 C1317 1.397 . S
C1316 C1321 1.363 . S
C1317 H1288 0.950 . S
C1317 C1316 1.397 . S
C1317 C1318 1.334 . S
C1318 H1289 0.950 . S
C1318 C1317 1.334 . S
C1318 C1319 1.287 . S
C1319 C1318 1.287 . S
C1319 C1320 1.524 . S
C1319 H1322 0.999 . S
C1320 H1290 0.950 . S
C1320 C1319 1.524 . S
C1320 C1321 1.415 . S
C1321 H1291 0.950 . S
C1321 C1316 1.363 . S
C1321 C1320 1.415 . S
H1322 C1319 0.999 . S
H1323 C1304 0.913 . S
H1324 C1342 0.951 . S
H1325 C1344 0.951 . S
H1326 C1346 0.950 . S
H1327 C1347 0.950 . S
H1328 C1349 0.950 . S
H1329 C1352 0.950 . S
H1330 C1353 0.950 . S
H1331 C1355 0.950 . S
H1332 C1356 0.950 . S
H1333 C1357 0.951 . S
H1334 C1359 0.951 . S
H1335 C1361 0.950 . S
H1336 C1362 0.950 . S
H1337 C1364 0.950 . S
H1338 C1367 0.950 . S
H1339 C1368 0.950 . S
H1340 C1370 0.950 . S
H1341 C1371 0.950 . S
C1342 H1324 0.951 . S
C1342 C1343 1.366 . S
C1342 C1344 1.388 . S
C1343 C1342 1.366 . S
C1343 C1347 1.385 . S
C1344 H1325 0.951 . S
C1344 C1342 1.388 . S
C1344 C1345 1.366 . S
C1345 C1344 1.366 . S
C1345 C1346 1.414 . S
C1345 C1348 1.499 . S
C1346 H1326 0.950 . S
C1346 C1345 1.414 . S
C1346 C1347 1.374 . S
C1347 H1327 0.950 . S
C1347 C1343 1.385 . S
C1347 C1346 1.374 . S
C1348 C1345 1.499 . S
C1348 C1349 1.373 . S
C1348 C1350 1.389 1_554 S
C1349 H1328 0.950 . S
C1349 C1348 1.373 . S
C1349 C1365 1.377 . S
C1350 C1348 1.389 1_556 S
C1350 C1351 1.524 . S
C1350 C1364 1.377 . S
C1351 C1350 1.524 . S
C1351 C1352 1.397 . S
C1351 C1356 1.363 . S
C1352 H1329 0.950 . S
C1352 C1351 1.397 . S
C1352 C1353 1.334 . S
C1353 H1330 0.950 . S
C1353 C1352 1.334 . S
C1353 C1354 1.287 . S
C1354 C1353 1.287 . S
C1354 C1355 1.524 . S
C1354 H1373 0.913 . S
C1355 H1331 0.950 . S
C1355 C1354 1.524 . S
C1355 C1356 1.415 . S
C1356 H1332 0.950 . S
C1356 C1351 1.363 . S
C1356 C1355 1.415 . S
C1357 H1333 0.951 . S
C1357 C1358 1.366 . S
C1357 C1359 1.388 . S
C1358 C1357 1.366 . S
C1358 C1362 1.385 . S
C1359 H1334 0.951 . S
C1359 C1357 1.388 . S
C1359 C1360 1.366 . S
C1360 C1359 1.366 . S
C1360 C1361 1.414 . S
C1360 C1363 1.499 . S
C1361 H1335 0.950 . S
C1361 C1360 1.414 . S
C1361 C1362 1.374 . S
C1362 H1336 0.950 . S
C1362 C1358 1.385 . S
C1362 C1361 1.374 . S
C1363 C1360 1.499 . S
C1363 C1364 1.373 . S
C1363 C1365 1.389 1_556 S
C1364 H1337 0.950 . S
C1364 C1350 1.377 . S
C1364 C1363 1.373 . S
C1365 C1349 1.377 . S
C1365 C1363 1.389 1_554 S
C1365 C1366 1.524 . S
C1366 C1365 1.524 . S
C1366 C1367 1.397 . S
C1366 C1371 1.363 . S
C1367 H1338 0.950 . S
C1367 C1366 1.397 . S
C1367 C1368 1.334 . S
C1368 H1339 0.950 . S
C1368 C1367 1.334 . S
C1368 C1369 1.287 . S
C1369 C1368 1.287 . S
C1369 C1370 1.524 . S
C1369 H1372 0.999 . S
C1370 H1340 0.950 . S
C1370 C1369 1.524 . S
C1370 C1371 1.415 . S
C1371 H1341 0.950 . S
C1371 C1366 1.363 . S
C1371 C1370 1.415 . S
H1372 C1369 0.999 . S
H1373 C1354 0.913 . S
H1374 C1392 0.951 . S
H1375 C1394 0.951 . S
H1376 C1396 0.950 . S
H1377 C1397 0.950 . S
H1378 C1399 0.950 . S
H1379 C1402 0.950 . S
H1380 C1403 0.950 . S
H1381 C1405 0.950 . S
H1382 C1406 0.950 . S
H1383 C1407 0.951 . S
H1384 C1409 0.951 . S
H1385 C1411 0.950 . S
H1386 C1412 0.950 . S
H1387 C1414 0.950 . S
H1388 C1417 0.950 . S
H1389 C1418 0.950 . S
H1390 C1420 0.950 . S
H1391 C1421 0.950 . S
C1392 H1374 0.951 . S
C1392 C1393 1.366 . S
C1392 C1394 1.388 . S
C1393 C1392 1.366 . S
C1393 C1397 1.385 . S
C1394 H1375 0.951 . S
C1394 C1392 1.388 . S
C1394 C1395 1.366 . S
C1395 C1394 1.366 . S
C1395 C1396 1.414 . S
C1395 C1398 1.499 . S
C1396 H1376 0.950 . S
C1396 C1395 1.414 . S
C1396 C1397 1.374 . S
C1397 H1377 0.950 . S
C1397 C1393 1.385 . S
C1397 C1396 1.374 . S
C1398 C1395 1.499 . S
C1398 C1399 1.373 . S
C1398 C1400 1.389 . S
C1399 H1378 0.950 . S
C1399 C1398 1.373 . S
C1399 C1415 1.377 . S
C1400 C1398 1.389 . S
C1400 C1401 1.524 . S
C1400 C1414 1.377 . S
C1401 C1400 1.524 . S
C1401 C1402 1.397 . S
C1401 C1406 1.363 . S
C1402 H1379 0.950 . S
C1402 C1401 1.397 . S
C1402 C1403 1.334 . S
C1403 H1380 0.950 . S
C1403 C1402 1.334 . S
C1403 C1404 1.287 . S
C1404 C1403 1.287 . S
C1404 C1405 1.524 . S
C1404 H1423 0.913 . S
C1405 H1381 0.950 . S
C1405 C1404 1.524 . S
C1405 C1406 1.415 . S
C1406 H1382 0.950 . S
C1406 C1401 1.363 . S
C1406 C1405 1.415 . S
C1407 H1383 0.951 . S
C1407 C1408 1.366 . S
C1407 C1409 1.388 . S
C1408 C1407 1.366 . S
C1408 C1412 1.385 . S
C1409 H1384 0.951 . S
C1409 C1407 1.388 . S
C1409 C1410 1.366 . S
C1410 C1409 1.366 . S
C1410 C1411 1.414 . S
C1410 C1413 1.499 . S
C1411 H1385 0.950 . S
C1411 C1410 1.414 . S
C1411 C1412 1.374 . S
C1412 H1386 0.950 . S
C1412 C1408 1.385 . S
C1412 C1411 1.374 . S
C1413 C1410 1.499 . S
C1413 C1414 1.373 . S
C1413 C1415 1.389 . S
C1414 H1387 0.950 . S
C1414 C1400 1.377 . S
C1414 C1413 1.373 . S
C1415 C1399 1.377 . S
C1415 C1413 1.389 . S
C1415 C1416 1.524 . S
C1416 C1415 1.524 . S
C1416 C1417 1.397 . S
C1416 C1421 1.363 . S
C1417 H1388 0.950 . S
C1417 C1416 1.397 . S
C1417 C1418 1.334 . S
C1418 H1389 0.950 . S
C1418 C1417 1.334 . S
C1418 C1419 1.287 . S
C1419 C1418 1.287 . S
C1419 C1420 1.524 . S
C1419 H1422 0.999 . S
C1420 H1390 0.950 . S
C1420 C1419 1.524 . S
C1420 C1421 1.415 . S
C1421 H1391 0.950 . S
C1421 C1416 1.363 . S
C1421 C1420 1.415 . S
H1422 C1419 0.999 . S
H1423 C1404 0.913 . S
H1424 C1442 0.951 . S
H1425 C1444 0.951 . S
H1426 C1446 0.950 . S
H1427 C1447 0.950 . S
H1428 C1449 0.950 . S
H1429 C1452 0.950 . S
H1430 C1453 0.950 . S
H1431 C1455 0.950 . S
H1432 C1456 0.950 . S
H1433 C1457 0.951 . S
H1434 C1459 0.951 . S
H1435 C1461 0.950 . S
H1436 C1462 0.950 . S
H1437 C1464 0.950 . S
H1438 C1467 0.950 . S
H1439 C1468 0.950 . S
H1440 C1470 0.950 . S
H1441 C1471 0.950 . S
C1442 H1424 0.951 . S
C1442 C1443 1.366 . S
C1442 C1444 1.388 . S
C1443 C1442 1.366 . S
C1443 C1447 1.385 . S
C1444 H1425 0.951 . S
C1444 C1442 1.388 . S
C1444 C1445 1.366 . S
C1445 C1444 1.366 . S
C1445 C1446 1.414 . S
C1445 C1448 1.499 . S
C1446 H1426 0.950 . S
C1446 C1445 1.414 . S
C1446 C1447 1.374 . S
C1447 H1427 0.950 . S
C1447 C1443 1.385 . S
C1447 C1446 1.374 . S
C1448 C1445 1.499 . S
C1448 C1449 1.373 1_556 S
C1448 C1450 1.389 . S
C1449 H1428 0.950 . S
C1449 C1448 1.373 1_554 S
C1449 C1465 1.377 . S
C1450 C1448 1.389 . S
C1450 C1451 1.524 . S
C1450 C1464 1.377 . S
C1451 C1450 1.524 . S
C1451 C1452 1.397 . S
C1451 C1456 1.363 . S
C1452 H1429 0.950 . S
C1452 C1451 1.397 . S
C1452 C1453 1.334 . S
C1453 H1430 0.950 . S
C1453 C1452 1.334 . S
C1453 C1454 1.287 . S
C1454 C1453 1.287 . S
C1454 C1455 1.524 . S
C1454 H1473 0.913 . S
C1455 H1431 0.950 . S
C1455 C1454 1.524 . S
C1455 C1456 1.415 . S
C1456 H1432 0.950 . S
C1456 C1451 1.363 . S
C1456 C1455 1.415 . S
C1457 H1433 0.951 . S
C1457 C1458 1.366 . S
C1457 C1459 1.388 . S
C1458 C1457 1.366 . S
C1458 C1462 1.385 . S
C1459 H1434 0.951 . S
C1459 C1457 1.388 . S
C1459 C1460 1.366 . S
C1460 C1459 1.366 . S
C1460 C1461 1.414 . S
C1460 C1463 1.499 . S
C1461 H1435 0.950 . S
C1461 C1460 1.414 . S
C1461 C1462 1.374 . S
C1462 H1436 0.950 . S
C1462 C1458 1.385 . S
C1462 C1461 1.374 . S
C1463 C1460 1.499 . S
C1463 C1464 1.373 1_554 S
C1463 C1465 1.389 . S
C1464 H1437 0.950 . S
C1464 C1450 1.377 . S
C1464 C1463 1.373 1_556 S
C1465 C1449 1.377 . S
C1465 C1463 1.389 . S
C1465 C1466 1.524 . S
C1466 C1465 1.524 . S
C1466 C1467 1.397 . S
C1466 C1471 1.363 . S
C1467 H1438 0.950 . S
C1467 C1466 1.397 . S
C1467 C1468 1.334 . S
C1468 H1439 0.950 . S
C1468 C1467 1.334 . S
C1468 C1469 1.287 . S
C1469 C1468 1.287 . S
C1469 C1470 1.524 . S
C1469 H1472 0.999 . S
C1470 H1440 0.950 . S
C1470 C1469 1.524 . S
C1470 C1471 1.415 . S
C1471 H1441 0.950 . S
C1471 C1466 1.363 . S
C1471 C1470 1.415 . S
H1472 C1469 0.999 . S
H1473 C1454 0.913 . S
H1474 C1492 0.951 . S
H1475 C1494 0.951 . S
H1476 C1496 0.950 . S
H1477 C1497 0.950 . S
H1478 C1499 0.950 . S
H1479 C1502 0.950 . S
H1480 C1503 0.950 . S
H1481 C1505 0.950 . S
H1482 C1506 0.950 . S
H1483 C1507 0.951 . S
H1484 C1509 0.951 . S
H1485 C1511 0.950 . S
H1486 C1512 0.950 . S
H1487 C1514 0.950 . S
H1488 C1517 0.950 . S
H1489 C1518 0.950 . S
H1490 C1520 0.950 . S
H1491 C1521 0.950 . S
C1492 H1474 0.951 . S
C1492 C1493 1.366 . S
C1492 C1494 1.388 . S
C1493 C1492 1.366 . S
C1493 C1497 1.385 . S
C1494 H1475 0.951 . S
C1494 C1492 1.388 . S
C1494 C1495 1.366 . S
C1495 C1494 1.366 . S
C1495 C1496 1.414 . S
C1495 C1498 1.499 . S
C1496 H1476 0.950 . S
C1496 C1495 1.414 . S
C1496 C1497 1.374 . S
C1497 H1477 0.950 . S
C1497 C1493 1.385 . S
C1497 C1496 1.374 . S
C1498 C1495 1.499 . S
C1498 C1499 1.373 . S
C1498 C1500 1.389 . S
C1499 H1478 0.950 . S
C1499 C1498 1.373 . S
C1499 C1515 1.377 . S
C1500 C1498 1.389 . S
C1500 C1501 1.524 . S
C1500 C1514 1.377 . S
C1501 C1500 1.524 . S
C1501 C1502 1.397 . S
C1501 C1506 1.363 . S
C1502 H1479 0.950 . S
C1502 C1501 1.397 . S
C1502 C1503 1.334 . S
C1503 H1480 0.950 . S
C1503 C1502 1.334 . S
C1503 C1504 1.287 . S
C1504 C1503 1.287 . S
C1504 C1505 1.524 . S
C1504 H1523 0.913 . S
C1505 H1481 0.950 . S
C1505 C1504 1.524 . S
C1505 C1506 1.415 . S
C1506 H1482 0.950 . S
C1506 C1501 1.363 . S
C1506 C1505 1.415 . S
C1507 H1483 0.951 . S
C1507 C1508 1.366 . S
C1507 C1509 1.388 . S
C1508 C1507 1.366 . S
C1508 C1512 1.385 . S
C1509 H1484 0.951 . S
C1509 C1507 1.388 . S
C1509 C1510 1.366 . S
C1510 C1509 1.366 . S
C1510 C1511 1.414 . S
C1510 C1513 1.499 . S
C1511 H1485 0.950 . S
C1511 C1510 1.414 . S
C1511 C1512 1.374 . S
C1512 H1486 0.950 . S
C1512 C1508 1.385 . S
C1512 C1511 1.374 . S
C1513 C1510 1.499 . S
C1513 C1514 1.373 . S
C1513 C1515 1.389 . S
C1514 H1487 0.950 . S
C1514 C1500 1.377 . S
C1514 C1513 1.373 . S
C1515 C1499 1.377 . S
C1515 C1513 1.389 . S
C1515 C1516 1.524 . S
C1516 C1515 1.524 . S
C1516 C1517 1.397 . S
C1516 C1521 1.363 . S
C1517 H1488 0.950 . S
C1517 C1516 1.397 . S
C1517 C1518 1.334 . S
C1518 H1489 0.950 . S
C1518 C1517 1.334 . S
C1518 C1519 1.287 . S
C1519 C1518 1.287 . S
C1519 C1520 1.524 . S
C1519 H1522 0.999 . S
C1520 H1490 0.950 . S
C1520 C1519 1.524 . S
C1520 C1521 1.415 . S
C1521 H1491 0.950 . S
C1521 C1516 1.363 . S
C1521 C1520 1.415 . S
H1522 C1519 0.999 . S
H1523 C1504 0.913 . S
H1524 C1542 0.951 . S
H1525 C1544 0.951 . S
H1526 C1546 0.950 . S
H1527 C1547 0.950 . S
H1528 C1549 0.950 . S
H1529 C1552 0.950 . S
H1530 C1553 0.950 . S
H1531 C1555 0.950 . S
H1532 C1556 0.950 . S
H1533 C1557 0.951 . S
H1534 C1559 0.951 . S
H1535 C1561 0.950 . S
H1536 C1562 0.950 . S
H1537 C1564 0.950 . S
H1538 C1567 0.950 . S
H1539 C1568 0.950 . S
H1540 C1570 0.950 . S
H1541 C1571 0.950 . S
C1542 H1524 0.951 . S
C1542 C1543 1.366 . S
C1542 C1544 1.388 . S
C1543 C1542 1.366 . S
C1543 C1547 1.385 . S
C1544 H1525 0.951 . S
C1544 C1542 1.388 . S
C1544 C1545 1.366 . S
C1545 C1544 1.366 . S
C1545 C1546 1.414 . S
C1545 C1548 1.499 . S
C1546 H1526 0.950 . S
C1546 C1545 1.414 . S
C1546 C1547 1.374 . S
C1547 H1527 0.950 . S
C1547 C1543 1.385 . S
C1547 C1546 1.374 . S
C1548 C1545 1.499 . S
C1548 C1549 1.373 1_554 S
C1548 C1550 1.389 . S
C1549 H1528 0.950 . S
C1549 C1548 1.373 1_556 S
C1549 C1565 1.377 . S
C1550 C1548 1.389 . S
C1550 C1551 1.524 . S
C1550 C1564 1.377 . S
C1551 C1550 1.524 . S
C1551 C1552 1.397 . S
C1551 C1556 1.363 . S
C1552 H1529 0.950 . S
C1552 C1551 1.397 . S
C1552 C1553 1.334 . S
C1553 H1530 0.950 . S
C1553 C1552 1.334 . S
C1553 C1554 1.287 . S
C1554 C1553 1.287 . S
C1554 C1555 1.524 . S
C1554 H1573 0.913 . S
C1555 H1531 0.950 . S
C1555 C1554 1.524 . S
C1555 C1556 1.415 . S
C1556 H1532 0.950 . S
C1556 C1551 1.363 . S
C1556 C1555 1.415 . S
C1557 H1533 0.951 . S
C1557 C1558 1.366 . S
C1557 C1559 1.388 . S
C1558 C1557 1.366 . S
C1558 C1562 1.385 . S
C1559 H1534 0.951 . S
C1559 C1557 1.388 . S
C1559 C1560 1.366 . S
C1560 C1559 1.366 . S
C1560 C1561 1.414 . S
C1560 C1563 1.499 . S
C1561 H1535 0.950 . S
C1561 C1560 1.414 . S
C1561 C1562 1.374 . S
C1562 H1536 0.950 . S
C1562 C1558 1.385 . S
C1562 C1561 1.374 . S
C1563 C1560 1.499 . S
C1563 C1564 1.373 1_556 S
C1563 C1565 1.389 . S
C1564 H1537 0.950 . S
C1564 C1550 1.377 . S
C1564 C1563 1.373 1_554 S
C1565 C1549 1.377 . S
C1565 C1563 1.389 . S
C1565 C1566 1.524 . S
C1566 C1565 1.524 . S
C1566 C1567 1.397 . S
C1566 C1571 1.363 . S
C1567 H1538 0.950 . S
C1567 C1566 1.397 . S
C1567 C1568 1.334 . S
C1568 H1539 0.950 . S
C1568 C1567 1.334 . S
C1568 C1569 1.287 . S
C1569 C1568 1.287 . S
C1569 C1570 1.524 . S
C1569 H1572 0.999 . S
C1570 H1540 0.950 . S
C1570 C1569 1.524 . S
C1570 C1571 1.415 . S
C1571 H1541 0.950 . S
C1571 C1566 1.363 . S
C1571 C1570 1.415 . S
H1572 C1569 0.999 . S
H1573 C1554 0.913 . S
H1574 C1592 0.951 . S
H1575 C1594 0.951 . S
H1576 C1596 0.950 . S
H1577 C1597 0.950 . S
H1578 C1599 0.950 . S
H1579 C1602 0.950 . S
H1580 C1603 0.950 . S
H1581 C1605 0.950 . S
H1582 C1606 0.950 . S
H1583 C1607 0.951 . S
H1584 C1609 0.951 . S
H1585 C1611 0.950 . S
H1586 C1612 0.950 . S
H1587 C1614 0.950 . S
H1588 C1617 0.950 . S
H1589 C1618 0.950 . S
H1590 C1620 0.950 . S
H1591 C1621 0.950 . S
C1592 H1574 0.951 . S
C1592 C1593 1.366 . S
C1592 C1594 1.388 . S
C1593 C1592 1.366 . S
C1593 C1597 1.385 . S
C1594 H1575 0.951 . S
C1594 C1592 1.388 . S
C1594 C1595 1.366 . S
C1595 C1594 1.366 . S
C1595 C1596 1.414 . S
C1595 C1598 1.499 . S
C1596 H1576 0.950 . S
C1596 C1595 1.414 . S
C1596 C1597 1.374 . S
C1597 H1577 0.950 . S
C1597 C1593 1.385 . S
C1597 C1596 1.374 . S
C1598 C1595 1.499 . S
C1598 C1599 1.373 . S
C1598 C1600 1.389 . S
C1599 H1578 0.950 . S
C1599 C1598 1.373 . S
C1599 C1615 1.377 . S
C1600 C1598 1.389 . S
C1600 C1601 1.524 . S
C1600 C1614 1.377 . S
C1601 C1600 1.524 . S
C1601 C1602 1.397 . S
C1601 C1606 1.363 . S
C1602 H1579 0.950 . S
C1602 C1601 1.397 . S
C1602 C1603 1.334 . S
C1603 H1580 0.950 . S
C1603 C1602 1.334 . S
C1603 C1604 1.287 . S
C1604 C1603 1.287 . S
C1604 C1605 1.524 . S
C1604 H1623 0.913 . S
C1605 H1581 0.950 . S
C1605 C1604 1.524 . S
C1605 C1606 1.415 . S
C1606 H1582 0.950 . S
C1606 C1601 1.363 . S
C1606 C1605 1.415 . S
C1607 H1583 0.951 . S
C1607 C1608 1.366 . S
C1607 C1609 1.388 . S
C1608 C1607 1.366 . S
C1608 C1612 1.385 . S
C1609 H1584 0.951 . S
C1609 C1607 1.388 . S
C1609 C1610 1.366 . S
C1610 C1609 1.366 . S
C1610 C1611 1.414 . S
C1610 C1613 1.499 . S
C1611 H1585 0.950 . S
C1611 C1610 1.414 . S
C1611 C1612 1.374 . S
C1612 H1586 0.950 . S
C1612 C1608 1.385 . S
C1612 C1611 1.374 . S
C1613 C1610 1.499 . S
C1613 C1614 1.373 . S
C1613 C1615 1.389 . S
C1614 H1587 0.950 . S
C1614 C1600 1.377 . S
C1614 C1613 1.373 . S
C1615 C1599 1.377 . S
C1615 C1613 1.389 . S
C1615 C1616 1.524 . S
C1616 C1615 1.524 . S
C1616 C1617 1.397 . S
C1616 C1621 1.363 . S
C1617 H1588 0.950 . S
C1617 C1616 1.397 . S
C1617 C1618 1.334 . S
C1618 H1589 0.950 . S
C1618 C1617 1.334 . S
C1618 C1619 1.287 . S
C1619 C1618 1.287 . S
C1619 C1620 1.524 . S
C1619 H1622 0.999 . S
C1620 H1590 0.950 . S
C1620 C1619 1.524 . S
C1620 C1621 1.415 . S
C1621 H1591 0.950 . S
C1621 C1616 1.363 . S
C1621 C1620 1.415 . S
H1622 C1619 0.999 . S
H1623 C1604 0.913 . S
H1624 C1642 0.951 . S
H1625 C1644 0.951 . S
H1626 C1646 0.950 1_554 S
H1627 C1647 0.950 . S
H1628 C1649 0.950 . S
H1629 C1652 0.950 . S
H1630 C1653 0.950 . S
H1631 C1655 0.950 . S
H1632 C1656 0.950 . S
H1633 C1657 0.951 . S
H1634 C1659 0.951 . S
H1635 C1661 0.950 1_556 S
H1636 C1662 0.950 . S
H1637 C1664 0.950 . S
H1638 C1667 0.950 . S
H1639 C1668 0.950 . S
H1640 C1670 0.950 . S
H1641 C1671 0.950 . S
C1642 H1624 0.951 . S
C1642 C1643 1.366 . S
C1642 C1644 1.388 . S
C1643 C1642 1.366 . S
C1643 C1647 1.385 . S
C1644 H1625 0.951 . S
C1644 C1642 1.388 . S
C1644 C1645 1.366 . S
C1645 C1644 1.366 . S
C1645 C1646 1.414 . S
C1645 C1648 1.499 . S
C1646 H1626 0.950 1_556 S
C1646 C1645 1.414 . S
C1646 C1647 1.374 . S
C1647 H1627 0.950 . S
C1647 C1643 1.385 . S
C1647 C1646 1.374 . S
C1648 C1645 1.499 . S
C1648 C1649 1.373 1_556 S
C1648 C1650 1.389 . S
C1649 H1628 0.950 . S
C1649 C1648 1.373 1_554 S
C1649 C1665 1.377 1_545 S
C1650 C1648 1.389 . S
C1650 C1651 1.524 . S
C1650 C1664 1.377 1_545 S
C1651 C1650 1.524 . S
C1651 C1652 1.397 . S
C1651 C1656 1.363 1_545 S
C1652 H1629 0.950 . S
C1652 C1651 1.397 . S
C1652 C1653 1.334 . S
C1653 H1630 0.950 . S
C1653 C1652 1.334 . S
C1653 C1654 1.287 . S
C1654 C1653 1.287 . S
C1654 C1655 1.524 1_545 S
C1654 H1673 0.913 . S
C1655 H1631 0.950 . S
C1655 C1654 1.524 1_565 S
C1655 C1656 1.415 . S
C1656 H1632 0.950 . S
C1656 C1651 1.363 1_565 S
C1656 C1655 1.415 . S
C1657 H1633 0.951 . S
C1657 C1658 1.366 . S
C1657 C1659 1.388 . S
C1658 C1657 1.366 . S
C1658 C1662 1.385 . S
C1659 H1634 0.951 . S
C1659 C1657 1.388 . S
C1659 C1660 1.366 . S
C1660 C1659 1.366 . S
C1660 C1661 1.414 . S
C1660 C1663 1.499 . S
C1661 H1635 0.950 1_554 S
C1661 C1660 1.414 . S
C1661 C1662 1.374 . S
C1662 H1636 0.950 . S
C1662 C1658 1.385 . S
C1662 C1661 1.374 . S
C1663 C1660 1.499 . S
C1663 C1664 1.373 1_554 S
C1663 C1665 1.389 . S
C1664 H1637 0.950 . S
C1664 C1650 1.377 1_565 S
C1664 C1663 1.373 1_556 S
C1665 C1649 1.377 1_565 S
C1665 C1663 1.389 . S
C1665 C1666 1.524 . S
C1666 C1665 1.524 . S
C1666 C1667 1.397 . S
C1666 C1671 1.363 1_565 S
C1667 H1638 0.950 . S
C1667 C1666 1.397 . S
C1667 C1668 1.334 . S
C1668 H1639 0.950 . S
C1668 C1667 1.334 . S
C1668 C1669 1.287 . S
C1669 C1668 1.287 . S
C1669 C1670 1.524 1_565 S
C1669 H1672 0.999 . S
C1670 H1640 0.950 . S
C1670 C1669 1.524 1_545 S
C1670 C1671 1.415 . S
C1671 H1641 0.950 . S
C1671 C1666 1.363 1_545 S
C1671 C1670 1.415 . S
H1672 C1669 0.999 . S
H1673 C1654 0.913 . S
H1674 C1692 0.951 . S
H1675 C1694 0.951 . S
H1676 C1696 0.950 . S
H1677 C1697 0.950 . S
H1678 C1699 0.950 . S
H1679 C1702 0.950 . S
H1680 C1703 0.950 . S
H1681 C1705 0.950 . S
H1682 C1706 0.950 . S
H1683 C1707 0.951 . S
H1684 C1709 0.951 . S
H1685 C1711 0.950 . S
H1686 C1712 0.950 . S
H1687 C1714 0.950 . S
H1688 C1717 0.950 . S
H1689 C1718 0.950 . S
H1690 C1720 0.950 . S
H1691 C1721 0.950 . S
C1692 H1674 0.951 . S
C1692 C1693 1.366 . S
C1692 C1694 1.388 . S
C1693 C1692 1.366 . S
C1693 C1697 1.385 . S
C1694 H1675 0.951 . S
C1694 C1692 1.388 . S
C1694 C1695 1.366 . S
C1695 C1694 1.366 . S
C1695 C1696 1.414 . S
C1695 C1698 1.499 . S
C1696 H1676 0.950 . S
C1696 C1695 1.414 . S
C1696 C1697 1.374 . S
C1697 H1677 0.950 . S
C1697 C1693 1.385 . S
C1697 C1696 1.374 . S
C1698 C1695 1.499 . S
C1698 C1699 1.373 . S
C1698 C1700 1.389 . S
C1699 H1678 0.950 . S
C1699 C1698 1.373 . S
C1699 C1715 1.377 1_565 S
C1700 C1698 1.389 . S
C1700 C1701 1.524 . S
C1700 C1714 1.377 1_565 S
C1701 C1700 1.524 . S
C1701 C1702 1.397 . S
C1701 C1706 1.363 . S
C1702 H1679 0.950 . S
C1702 C1701 1.397 . S
C1702 C1703 1.334 . S
C1703 H1680 0.950 . S
C1703 C1702 1.334 . S
C1703 C1704 1.287 . S
C1704 C1703 1.287 . S
C1704 C1705 1.524 . S
C1704 H1723 0.913 . S
C1705 H1681 0.950 . S
C1705 C1704 1.524 . S
C1705 C1706 1.415 . S
C1706 H1682 0.950 . S
C1706 C1701 1.363 . S
C1706 C1705 1.415 . S
C1707 H1683 0.951 . S
C1707 C1708 1.366 . S
C1707 C1709 1.388 . S
C1708 C1707 1.366 . S
C1708 C1712 1.385 . S
C1709 H1684 0.951 . S
C1709 C1707 1.388 . S
C1709 C1710 1.366 . S
C1710 C1709 1.366 . S
C1710 C1711 1.414 . S
C1710 C1713 1.499 . S
C1711 H1685 0.950 . S
C1711 C1710 1.414 . S
C1711 C1712 1.374 . S
C1712 H1686 0.950 . S
C1712 C1708 1.385 . S
C1712 C1711 1.374 . S
C1713 C1710 1.499 . S
C1713 C1714 1.373 . S
C1713 C1715 1.389 . S
C1714 H1687 0.950 . S
C1714 C1700 1.377 1_545 S
C1714 C1713 1.373 . S
C1715 C1699 1.377 1_545 S
C1715 C1713 1.389 . S
C1715 C1716 1.524 . S
C1716 C1715 1.524 . S
C1716 C1717 1.397 . S
C1716 C1721 1.363 . S
C1717 H1688 0.950 . S
C1717 C1716 1.397 . S
C1717 C1718 1.334 . S
C1718 H1689 0.950 . S
C1718 C1717 1.334 . S
C1718 C1719 1.287 . S
C1719 C1718 1.287 . S
C1719 C1720 1.524 . S
C1719 H1722 0.999 . S
C1720 H1690 0.950 . S
C1720 C1719 1.524 . S
C1720 C1721 1.415 . S
C1721 H1691 0.950 . S
C1721 C1716 1.363 . S
C1721 C1720 1.415 . S
H1722 C1719 0.999 . S
H1723 C1704 0.913 . S
H1724 C1742 0.951 . S
H1725 C1744 0.951 . S
H1726 C1746 0.950 . S
H1727 C1747 0.950 . S
H1728 C1749 0.950 . S
H1729 C1752 0.950 . S
H1730 C1753 0.950 . S
H1731 C1755 0.950 . S
H1732 C1756 0.950 . S
H1733 C1757 0.951 . S
H1734 C1759 0.951 . S
H1735 C1761 0.950 . S
H1736 C1762 0.950 . S
H1737 C1764 0.950 . S
H1738 C1767 0.950 . S
H1739 C1768 0.950 . S
H1740 C1770 0.950 . S
H1741 C1771 0.950 . S
C1742 H1724 0.951 . S
C1742 C1743 1.366 . S
C1742 C1744 1.388 . S
C1743 C1742 1.366 . S
C1743 C1747 1.385 . S
C1744 H1725 0.951 . S
C1744 C1742 1.388 . S
C1744 C1745 1.366 . S
C1745 C1744 1.366 . S
C1745 C1746 1.414 . S
C1745 C1748 1.499 . S
C1746 H1726 0.950 . S
C1746 C1745 1.414 . S
C1746 C1747 1.374 . S
C1747 H1727 0.950 . S
C1747 C1743 1.385 . S
C1747 C1746 1.374 . S
C1748 C1745 1.499 . S
C1748 C1749 1.373 . S
C1748 C1750 1.389 1_554 S
C1749 H1728 0.950 . S
C1749 C1748 1.373 . S
C1749 C1765 1.377 1_565 S
C1750 C1748 1.389 1_556 S
C1750 C1751 1.524 . S
C1750 C1764 1.377 1_565 S
C1751 C1750 1.524 . S
C1751 C1752 1.397 . S
C1751 C1756 1.363 . S
C1752 H1729 0.950 . S
C1752 C1751 1.397 . S
C1752 C1753 1.334 . S
C1753 H1730 0.950 . S
C1753 C1752 1.334 . S
C1753 C1754 1.287 . S
C1754 C1753 1.287 . S
C1754 C1755 1.524 . S
C1754 H1773 0.913 . S
C1755 H1731 0.950 . S
C1755 C1754 1.524 . S
C1755 C1756 1.415 . S
C1756 H1732 0.950 . S
C1756 C1751 1.363 . S
C1756 C1755 1.415 . S
C1757 H1733 0.951 . S
C1757 C1758 1.366 . S
C1757 C1759 1.388 . S
C1758 C1757 1.366 . S
C1758 C1762 1.385 . S
C1759 H1734 0.951 . S
C1759 C1757 1.388 . S
C1759 C1760 1.366 . S
C1760 C1759 1.366 . S
C1760 C1761 1.414 . S
C1760 C1763 1.499 . S
C1761 H1735 0.950 . S
C1761 C1760 1.414 . S
C1761 C1762 1.374 . S
C1762 H1736 0.950 . S
C1762 C1758 1.385 . S
C1762 C1761 1.374 . S
C1763 C1760 1.499 . S
C1763 C1764 1.373 . S
C1763 C1765 1.389 1_556 S
C1764 H1737 0.950 . S
C1764 C1750 1.377 1_545 S
C1764 C1763 1.373 . S
C1765 C1749 1.377 1_545 S
C1765 C1763 1.389 1_554 S
C1765 C1766 1.524 . S
C1766 C1765 1.524 . S
C1766 C1767 1.397 . S
C1766 C1771 1.363 . S
C1767 H1738 0.950 . S
C1767 C1766 1.397 . S
C1767 C1768 1.334 . S
C1768 H1739 0.950 . S
C1768 C1767 1.334 . S
C1768 C1769 1.287 . S
C1769 C1768 1.287 . S
C1769 C1770 1.524 . S
C1769 H1772 0.999 . S
C1770 H1740 0.950 . S
C1770 C1769 1.524 . S
C1770 C1771 1.415 . S
C1771 H1741 0.950 . S
C1771 C1766 1.363 . S
C1771 C1770 1.415 . S
H1772 C1769 0.999 . S
H1773 C1754 0.913 . S
H1774 C1792 0.951 . S
H1775 C1794 0.951 . S
H1776 C1796 0.950 . S
H1777 C1797 0.950 . S
H1778 C1799 0.950 . S
H1779 C1802 0.950 . S
H1780 C1803 0.950 . S
H1781 C1805 0.950 . S
H1782 C1806 0.950 1_565 S
H1783 C1807 0.951 . S
H1784 C1809 0.951 . S
H1785 C1811 0.950 . S
H1786 C1812 0.950 . S
H1787 C1814 0.950 . S
H1788 C1817 0.950 . S
H1789 C1818 0.950 . S
H1790 C1820 0.950 . S
H1791 C1821 0.950 1_545 S
C1792 H1774 0.951 . S
C1792 C1793 1.366 . S
C1792 C1794 1.388 . S
C1793 C1792 1.366 . S
C1793 C1797 1.385 . S
C1794 H1775 0.951 . S
C1794 C1792 1.388 . S
C1794 C1795 1.366 . S
C1795 C1794 1.366 . S
C1795 C1796 1.414 . S
C1795 C1798 1.499 . S
C1796 H1776 0.950 . S
C1796 C1795 1.414 . S
C1796 C1797 1.374 . S
C1797 H1777 0.950 . S
C1797 C1793 1.385 . S
C1797 C1796 1.374 . S
C1798 C1795 1.499 . S
C1798 C1799 1.373 . S
C1798 C1800 1.389 . S
C1799 H1778 0.950 . S
C1799 C1798 1.373 . S
C1799 C1815 1.377 1_545 S
C1800 C1798 1.389 . S
C1800 C1801 1.524 . S
C1800 C1814 1.377 1_545 S
C1801 C1800 1.524 . S
C1801 C1802 1.397 . S
C1801 C1806 1.363 . S
C1802 H1779 0.950 . S
C1802 C1801 1.397 . S
C1802 C1803 1.334 . S
C1803 H1780 0.950 . S
C1803 C1802 1.334 . S
C1803 C1804 1.287 . S
C1804 C1803 1.287 . S
C1804 C1805 1.524 . S
C1804 H1823 0.913 . S
C1805 H1781 0.950 . S
C1805 C1804 1.524 . S
C1805 C1806 1.415 . S
C1806 H1782 0.950 1_545 S
C1806 C1801 1.363 . S
C1806 C1805 1.415 . S
C1807 H1783 0.951 . S
C1807 C1808 1.366 . S
C1807 C1809 1.388 . S
C1808 C1807 1.366 . S
C1808 C1812 1.385 . S
C1809 H1784 0.951 . S
C1809 C1807 1.388 . S
C1809 C1810 1.366 . S
C1810 C1809 1.366 . S
C1810 C1811 1.414 . S
C1810 C1813 1.499 . S
C1811 H1785 0.950 . S
C1811 C1810 1.414 . S
C1811 C1812 1.374 . S
C1812 H1786 0.950 . S
C1812 C1808 1.385 . S
C1812 C1811 1.374 . S
C1813 C1810 1.499 . S
C1813 C1814 1.373 . S
C1813 C1815 1.389 . S
C1814 H1787 0.950 . S
C1814 C1800 1.377 1_565 S
C1814 C1813 1.373 . S
C1815 C1799 1.377 1_565 S
C1815 C1813 1.389 . S
C1815 C1816 1.524 . S
C1816 C1815 1.524 . S
C1816 C1817 1.397 . S
C1816 C1821 1.363 . S
C1817 H1788 0.950 . S
C1817 C1816 1.397 . S
C1817 C1818 1.334 . S
C1818 H1789 0.950 . S
C1818 C1817 1.334 . S
C1818 C1819 1.287 . S
C1819 C1818 1.287 . S
C1819 C1820 1.524 . S
C1819 H1822 0.999 . S
C1820 H1790 0.950 . S
C1820 C1819 1.524 . S
C1820 C1821 1.415 . S
C1821 H1791 0.950 1_565 S
C1821 C1816 1.363 . S
C1821 C1820 1.415 . S
H1822 C1819 0.999 . S
H1823 C1804 0.913 . S
C243 C8 1.412 . S
C258 C92 1.409 . S
C293 C22 1.413 . S
C308 C106 1.408 . S
C343 C64 1.409 . S
C358 C36 1.412 . S
C393 C78 1.408 . S
C408 C50 1.412 . S
C443 C204 1.408 . S
C458 C120 1.412 . S
C493 C218 1.409 . S
C508 C134 1.412 . S
C543 C148 1.412 . S
C558 C176 1.408 . S
C593 C162 1.413 . S
C608 C190 1.408 . S
C643 C13 1.280 . S
C658 C77 1.376 . S
C693 C27 1.281 . S
C708 C63 1.376 . S
C743 C41 1.280 . S
C758 C105 1.376 . S
C793 C91 1.376 . S
C808 C55 1.281 . S
C843 C189 1.376 . S
C858 C125 1.281 . S
C893 C175 1.376 . S
C908 C139 1.280 . S
C943 C153 1.281 . S
C958 C217 1.376 . S
C993 C203 1.376 . S
C1008 C167 1.280 . S
C1043 C179 1.317 . S
C1058 C11 1.315 . S
C1093 C25 1.315 . S
C1108 C193 1.318 . S
C1143 C207 1.318 . S
C1158 C39 1.315 . S
C1193 C221 1.317 . S
C1208 C53 1.315 . S
C1243 C123 1.315 . S
C1258 C67 1.318 . S
C1293 C137 1.315 . S
C1308 C81 1.317 . S
C1343 C95 1.318 . S
C1358 C151 1.315 . S
C1393 C109 1.318 . S
C1408 C165 1.315 . S
C1443 C35 1.494 . S
C1458 C7 1.494 . S
C1493 C21 1.493 . S
C1508 C49 1.493 . S
C1543 C97 1.197 . S
C1558 C69 1.196 . S
C1593 C83 1.196 . S
C1608 C111 1.197 . S
C1643 C147 1.494 . S
C1658 C119 1.493 . S
C1693 C161 1.493 . S
C1708 C133 1.494 . S
C1743 C209 1.195 . S
C1758 C181 1.195 . S
C1793 C223 1.195 . S
C1808 C195 1.196 . S
