# Generated by pormake.
# Topology wjd, (6)-cn, num edge types: 1
# Building blocks:
#     Node 0, Type 0, BuildingBlock: GEDQOX_clean_sbu_0, # of connection points: 6
#     Node 1, Type 0, BuildingBlock: GEDQOX_clean_sbu_0, # of connection points: 6
#     Node 2, Type 0, BuildingBlock: GEDQOX_clean_sbu_0, # of connection points: 6
#     Node 3, Type 0, BuildingBlock: GEDQOX_clean_sbu_0, # of connection points: 6
#     Node 4, Type 0, BuildingBlock: GEDQOX_clean_sbu_0, # of connection points: 6
#     Node 5, Type 0, BuildingBlock: GEDQOX_clean_sbu_0, # of connection points: 6
#     Node 6, Type 0, BuildingBlock: GEDQOX_clean_sbu_0, # of connection points: 6
#     Node 7, Type 0, BuildingBlock: GEDQOX_clean_sbu_0, # of connection points: 6
#     Node 8, Type 0, BuildingBlock: GEDQOX_clean_sbu_0, # of connection points: 6
#     Node 9, Type 0, BuildingBlock: GEDQOX_clean_sbu_0, # of connection points: 6
#     Node 10, Type 0, BuildingBlock: GEDQOX_clean_sbu_0, # of connection points: 6
#     Node 11, Type 0, BuildingBlock: GEDQOX_clean_sbu_0, # of connection points: 6
#     Edge 12, Type (0, 0), BuildingBlock: AJUNOK_clean_linker_0, # of connection points: 2
#     Edge 13, Type (0, 0), BuildingBlock: AJUNOK_clean_linker_0, # of connection points: 2
#     Edge 14, Type (0, 0), BuildingBlock: AJUNOK_clean_linker_0, # of connection points: 2
#     Edge 15, Type (0, 0), BuildingBlock: AJUNOK_clean_linker_0, # of connection points: 2
#     Edge 16, Type (0, 0), BuildingBlock: AJUNOK_clean_linker_0, # of connection points: 2
#     Edge 17, Type (0, 0), BuildingBlock: AJUNOK_clean_linker_0, # of connection points: 2
#     Edge 18, Type (0, 0), BuildingBlock: AJUNOK_clean_linker_0, # of connection points: 2
#     Edge 19, Type (0, 0), BuildingBlock: AJUNOK_clean_linker_0, # of connection points: 2
#     Edge 20, Type (0, 0), BuildingBlock: AJUNOK_clean_linker_0, # of connection points: 2
#     Edge 21, Type (0, 0), BuildingBlock: AJUNOK_clean_linker_0, # of connection points: 2
#     Edge 22, Type (0, 0), BuildingBlock: AJUNOK_clean_linker_0, # of connection points: 2
#     Edge 23, Type (0, 0), BuildingBlock: AJUNOK_clean_linker_0, # of connection points: 2
#     Edge 24, Type (0, 0), BuildingBlock: AJUNOK_clean_linker_0, # of connection points: 2
#     Edge 25, Type (0, 0), BuildingBlock: AJUNOK_clean_linker_0, # of connection points: 2
#     Edge 26, Type (0, 0), BuildingBlock: AJUNOK_clean_linker_0, # of connection points: 2
#     Edge 27, Type (0, 0), BuildingBlock: AJUNOK_clean_linker_0, # of connection points: 2
#     Edge 28, Type (0, 0), BuildingBlock: AJUNOK_clean_linker_0, # of connection points: 2
#     Edge 29, Type (0, 0), BuildingBlock: AJUNOK_clean_linker_0, # of connection points: 2
#     Edge 30, Type (0, 0), BuildingBlock: AJUNOK_clean_linker_0, # of connection points: 2
#     Edge 31, Type (0, 0), BuildingBlock: AJUNOK_clean_linker_0, # of connection points: 2
#     Edge 32, Type (0, 0), BuildingBlock: AJUNOK_clean_linker_0, # of connection points: 2
#     Edge 33, Type (0, 0), BuildingBlock: AJUNOK_clean_linker_0, # of connection points: 2
#     Edge 34, Type (0, 0), BuildingBlock: AJUNOK_clean_linker_0, # of connection points: 2
#     Edge 35, Type (0, 0), BuildingBlock: AJUNOK_clean_linker_0, # of connection points: 2
#     Edge 36, Type (0, 0), BuildingBlock: AJUNOK_clean_linker_0, # of connection points: 2
#     Edge 37, Type (0, 0), BuildingBlock: AJUNOK_clean_linker_0, # of connection points: 2
#     Edge 38, Type (0, 0), BuildingBlock: AJUNOK_clean_linker_0, # of connection points: 2
#     Edge 39, Type (0, 0), BuildingBlock: AJUNOK_clean_linker_0, # of connection points: 2
#     Edge 40, Type (0, 0), BuildingBlock: AJUNOK_clean_linker_0, # of connection points: 2
#     Edge 41, Type (0, 0), BuildingBlock: AJUNOK_clean_linker_0, # of connection points: 2
#     Edge 42, Type (0, 0), BuildingBlock: AJUNOK_clean_linker_0, # of connection points: 2
#     Edge 43, Type (0, 0), BuildingBlock: AJUNOK_clean_linker_0, # of connection points: 2
#     Edge 44, Type (0, 0), BuildingBlock: AJUNOK_clean_linker_0, # of connection points: 2
#     Edge 45, Type (0, 0), BuildingBlock: AJUNOK_clean_linker_0, # of connection points: 2
#     Edge 46, Type (0, 0), BuildingBlock: AJUNOK_clean_linker_0, # of connection points: 2
#     Edge 47, Type (0, 0), BuildingBlock: AJUNOK_clean_linker_0, # of connection points: 2
# Relax obj value: 0.107
# Max RMSD: 0.239
# Mean RMSD: 0.239
data_MOF--net-wjd--node1-GEDQOX_clean_sbu_0--edge1-AJUNOK_clean_linker_0
_symmetry_space_group_name_H-M    P1
_symmetry_Int_Tables_number       1
_symmetry_cell_setting            triclinic
loop_
_symmetry_equiv_pos_as_xyz
'x, y, z'
_cell_length_a     32.335524
_cell_length_b     32.293842
_cell_length_c     38.07452
_cell_angle_alpha  90.529977
_cell_angle_beta   89.720546
_cell_angle_gamma 119.80387
loop_
_atom_site_label
_atom_site_type_symbol
_atom_site_fract_x
_atom_site_fract_y
_atom_site_fract_z
_atom_type_partial_charge
Nd0 Nd 0.40513 0.13451 0.13367 0.0
Nd1 Nd 0.34185 0.1762 0.12527 0.0
C2 C 0.46753 0.10664 0.14877 0.0
C3 C 0.52036 0.12936 0.1429 0.0
C4 C 0.55365 0.16245 0.16698 0.0
C5 C 0.60301 0.18175 0.1617 0.0
C6 C 0.62055 0.16897 0.132 0.0
C7 C 0.58731 0.13707 0.10748 0.0
C8 C 0.53812 0.11759 0.11284 0.0
C9 C 0.36508 0.11194 0.06808 0.0
C10 C 0.45236 0.24924 0.11546 0.0
C11 C 0.27155 0.18659 0.10027 0.0
C12 C 0.22602 0.18046 0.11382 0.0
C13 C 0.18619 0.16295 0.09158 0.0
C14 C 0.14502 0.16342 0.10265 0.0
C15 C 0.14361 0.18175 0.13601 0.0
C16 C 0.18191 0.19558 0.1591 0.0
C17 C 0.22269 0.19461 0.14823 0.0
C18 C 0.37227 0.19271 0.19517 0.0
C19 C 0.28909 0.07684 0.15731 0.0
O20 O 0.45205 0.12564 0.17219 0.0
O21 O 0.44071 0.09257 0.1208 0.0
O22 O 0.41087 0.13463 0.07338 0.0
O23 O 0.34439 0.11335 0.09626 0.0
O24 O 0.45859 0.21582 0.13006 0.0
O25 O 0.41008 0.23885 0.10375 0.0
O26 O 0.27396 0.14768 0.0956 0.0
O27 O 0.31063 0.22187 0.11365 0.0
O28 O 0.34487 0.20694 0.18139 0.0
O29 O 0.38346 0.17201 0.17185 0.0
O30 O 0.2927 0.11848 0.16042 0.0
O31 O 0.32676 0.07259 0.14764 0.0
H32 H 0.54161 0.17298 0.19022 0.0
H33 H 0.62753 0.20647 0.18104 0.0
H34 H 0.59924 0.12573 0.0846 0.0
H35 H 0.51386 0.09248 0.09357 0.0
H36 H 0.18772 0.15091 0.06519 0.0
H37 H 0.11546 0.15199 0.08457 0.0
H38 H 0.18091 0.20887 0.18514 0.0
H39 H 0.2524 0.20695 0.16624 0.0
Nd40 Nd 0.88983 0.72754 0.41674 0.0
Nd41 Nd 0.78756 0.66616 0.4098 0.0
C42 C 0.97019 0.79618 0.44305 0.0
C43 C 1.0103 0.8415 0.43053 0.0
C44 C 1.0198 0.88491 0.44609 0.0
C45 C 0.06001 0.92758 0.43615 0.0
C46 C 0.09295 0.92725 0.41177 0.0
C47 C 0.0814 0.88377 0.39504 0.0
C48 C 1.04031 0.84176 0.40379 0.0
C49 C 0.87737 0.69884 0.34688 0.0
C50 C 0.84269 0.78141 0.38692 0.0
C51 C 0.69769 0.60482 0.39416 0.0
C52 C 0.66806 0.55208 0.39942 0.0
C53 C 0.66431 0.5191 0.37337 0.0
C54 C 0.63375 0.46977 0.37796 0.0
C55 C 0.60667 0.45209 0.40897 0.0
C56 C 0.61274 0.4851 0.43566 0.0
C57 C 0.64257 0.53416 0.43089 0.0
C58 C 0.80785 0.70712 0.47583 0.0
C59 C 0.85353 0.61701 0.42559 0.0
O60 O 0.9294 0.79486 0.44714 0.0
O61 O 0.96581 0.75665 0.42968 0.0
O62 O 0.91815 0.72763 0.36134 0.0
O63 O 0.84408 0.68654 0.36912 0.0
O64 O 0.87964 0.77634 0.38203 0.0
O65 O 0.80141 0.74402 0.39707 0.0
O66 O 0.73181 0.6203 0.37078 0.0
O67 O 0.71064 0.63127 0.42246 0.0
O68 O 0.78366 0.66127 0.47027 0.0
O69 O 0.82772 0.72699 0.44722 0.0
O70 O 0.8124 0.61049 0.41411 0.0
O71 O 0.88767 0.65955 0.43474 0.0
H72 H 0.99643 0.88575 0.46624 0.0
H73 H 0.065 0.96026 0.44803 0.0
H74 H 0.10515 0.88113 0.37623 0.0
H75 H 1.03335 0.80911 0.39055 0.0
H76 H 0.68396 0.53143 0.34899 0.0
H77 H 0.62997 0.44589 0.35653 0.0
H78 H 0.59356 0.47308 0.46024 0.0
H79 H 0.64496 0.55814 0.45186 0.0
Nd80 Nd 0.93646 0.28275 0.13166 0.0
Nd81 Nd 0.89132 0.17935 0.12193 0.0
C82 C 0.96565 0.37343 0.14641 0.0
C83 C 0.94237 0.40317 0.14159 0.0
C84 C 0.90961 0.40314 0.16623 0.0
C85 C 0.89014 0.43326 0.16195 0.0
C86 C 0.90236 0.46336 0.13267 0.0
C87 C 0.93338 0.462 0.10743 0.0
C88 C 0.95322 0.43244 0.11185 0.0
C89 C 0.95871 0.26229 0.06567 0.0
C90 C 0.82113 0.22041 0.11532 0.0
C91 C 0.87549 0.09772 0.09406 0.0
C92 C 0.87886 0.05605 0.10555 0.0
C93 C 0.90895 0.04321 0.08777 0.0
C94 C 0.91059 1.00239 0.0975 0.0
C95 C 0.8802 0.97216 0.12409 0.0
C96 C 0.85161 0.98662 0.14252 0.0
C97 C 0.85161 1.02833 0.13384 0.0
C98 C 0.87588 0.19278 0.19246 0.0
C99 C 0.99042 0.22273 0.15867 0.0
O100 O 0.94841 0.3401 0.17025 0.0
O101 O 0.97762 0.35942 0.11783 0.0
O102 O 0.93747 0.28706 0.07081 0.0
O103 O 0.95669 0.24127 0.0942 0.0
O104 O 0.85558 0.25821 0.13109 0.0
O105 O 0.82962 0.18799 0.10161 0.0
O106 O 0.91577 0.13758 0.09026 0.0
O107 O 0.84191 0.10388 0.10824 0.0
O108 O 0.86147 0.15136 0.17777 0.0
O109 O 0.89764 0.2249 0.1699 0.0
O110 O 0.94871 0.18477 0.1561 0.0
O111 O 0.99648 0.26591 0.15092 0.0
H112 H 0.8998 0.38067 0.18921 0.0
H113 H 0.86643 0.4339 0.18188 0.0
H114 H 0.94372 0.48526 0.08486 0.0
H115 H 0.97795 0.43329 0.09219 0.0
H116 H 0.93129 0.06482 0.0664 0.0
H117 H 0.93598 0.99529 0.08415 0.0
H118 H 0.82736 0.96484 0.16293 0.0
H119 H 0.82882 0.03784 0.14864 0.0
Nd120 Nd 0.34449 0.18216 0.41903 0.0
Nd121 Nd 0.40401 0.13594 0.40948 0.0
C122 C 0.28156 0.20354 0.44418 0.0
C123 C 0.23385 0.1923 0.43204 0.0
C124 C 0.19352 0.16499 0.45272 0.0
C125 C 0.14907 0.15831 0.44262 0.0
C126 C 0.14465 0.18195 0.41289 0.0
C127 C 0.18492 0.20545 0.39084 0.0
C128 C 0.22835 0.20962 0.39989 0.0
C129 C 0.37008 0.19172 0.34817 0.0
C130 C 0.2874 0.07868 0.38909 0.0
C131 C 0.46515 0.1079 0.3904 0.0
C132 C 0.51739 0.12846 0.39713 0.0
C133 C 0.55239 0.17119 0.38156 0.0
C134 C 0.60123 0.18905 0.38832 0.0
C135 C 0.61658 0.16456 0.4106 0.0
C136 C 0.58118 0.12194 0.42598 0.0
C137 C 0.53263 0.10471 0.41978 0.0
C138 C 0.36377 0.11486 0.47564 0.0
C139 C 0.45572 0.252 0.42599 0.0
O140 O 0.28578 0.16804 0.45607 0.0
O141 O 0.3177 0.23277 0.42474 0.0
O142 O 0.34411 0.20783 0.36203 0.0
O143 O 0.38149 0.17211 0.37171 0.0
O144 O 0.28851 0.11949 0.39052 0.0
O145 O 0.32618 0.07467 0.39471 0.0
O146 O 0.45193 0.13106 0.36949 0.0
O147 O 0.43681 0.09036 0.41743 0.0
O148 O 0.40939 0.13432 0.46975 0.0
O149 O 0.34377 0.11794 0.44776 0.0
O150 O 0.45992 0.21643 0.4128 0.0
O151 O 0.41456 0.24434 0.43813 0.0
H152 H 0.1965 0.14955 0.47706 0.0
H153 H 0.11928 0.13508 0.45885 0.0
H154 H 0.18499 0.22392 0.36739 0.0
H155 H 0.25831 0.22902 0.3824 0.0
H156 H 0.54219 0.1908 0.36403 0.0
H157 H 0.6269 0.22204 0.37595 0.0
H158 H 0.5906 0.10043 0.44199 0.0
H159 H 0.50681 0.07187 0.43227 0.0
Nd160 Nd 0.79019 0.6644 0.13046 0.0
Nd161 Nd 0.89777 0.72949 0.12477 0.0
C162 C 0.70064 0.60187 0.14652 0.0
C163 C 0.66986 0.5493 0.14013 0.0
C164 C 0.65856 0.51636 0.16753 0.0
C165 C 0.62648 0.46743 0.16212 0.0
C166 C 0.60489 0.45003 0.12909 0.0
C167 C 0.619 0.48263 0.10118 0.0
C168 C 0.65049 0.53145 0.10666 0.0
C169 C 0.81459 0.71087 0.0658 0.0
C170 C 0.85839 0.61676 0.11527 0.0
C171 C 0.98112 0.7959 0.10097 0.0
C172 C 1.01641 0.84548 0.11067 0.0
C173 C 1.03316 0.88128 0.08507 0.0
C174 C 0.07221 0.9264 0.09222 0.0
C175 C 0.09435 0.93632 0.12528 0.0
C176 C 0.07498 0.90187 0.15172 0.0
C177 C 1.03639 0.8568 0.14452 0.0
C178 C 0.87909 0.70122 0.19429 0.0
C179 C 0.84247 0.78042 0.15302 0.0
O180 O 0.73563 0.61589 0.169 0.0
O181 O 0.7128 0.62957 0.11914 0.0
O182 O 0.78632 0.66514 0.06969 0.0
O183 O 0.83415 0.72703 0.09541 0.0
O184 O 0.81623 0.60974 0.12489 0.0
O185 O 0.89354 0.65952 0.10754 0.0
O186 O 0.94074 0.78852 0.08777 0.0
O187 O 0.97605 0.76243 0.12259 0.0
O188 O 0.92114 0.72993 0.18184 0.0
O189 O 0.8486 0.68885 0.1699 0.0
O190 O 0.88389 0.78258 0.15228 0.0
O191 O 0.80156 0.73994 0.14685 0.0
H192 H 0.67354 0.52859 0.19347 0.0
H193 H 0.61724 0.44353 0.1842 0.0
H194 H 0.60525 0.4706 0.07494 0.0
H195 H 0.65903 0.55526 0.08459 0.0
H196 H 1.01772 0.87353 0.05899 0.0
H197 H 0.08664 0.9526 0.07148 0.0
H198 H 0.09196 0.90858 0.17723 0.0
H199 H 1.02391 0.83019 0.16499 0.0
Nd200 Nd 0.89055 0.1774 0.41603 0.0
Nd201 Nd 0.93293 0.28295 0.40927 0.0
C202 C 0.87384 0.09389 0.43954 0.0
C203 C 0.88932 0.05911 0.43047 0.0
C204 C 0.90541 0.04073 0.45711 0.0
C205 C 0.90996 1.00045 0.45064 0.0
C206 C 0.89895 0.97876 0.41734 0.0
C207 C 0.88827 1.00032 0.38979 0.0
C208 C 0.88346 0.04026 0.39624 0.0
C209 C 0.88014 0.19383 0.34568 0.0
C210 C 0.99526 0.22871 0.3881 0.0
C211 C 0.96011 0.37265 0.39355 0.0
C212 C 0.93721 0.40277 0.39877 0.0
C213 C 0.90405 0.40242 0.3746 0.0
C214 C 0.88519 0.43314 0.37926 0.0
C215 C 0.89872 0.46435 0.40832 0.0
C216 C 0.93021 0.46342 0.43303 0.0
C217 C 0.94922 0.43313 0.42833 0.0
C218 C 0.95555 0.26272 0.47441 0.0
C219 C 0.81782 0.21628 0.4251 0.0
O220 O 0.90548 0.13426 0.45374 0.0
O221 O 0.84619 0.09884 0.41703 0.0
O222 O 0.86607 0.15205 0.35881 0.0
O223 O 0.89879 0.22496 0.3697 0.0
O224 O 0.95532 0.18836 0.3878 0.0
O225 O 0.9971 0.2703 0.39517 0.0
O226 O 0.94167 0.33803 0.37034 0.0
O227 O 0.97366 0.36027 0.42187 0.0
O228 O 0.9342 0.28751 0.46997 0.0
O229 O 0.95333 0.24137 0.44561 0.0
O230 O 0.85188 0.25596 0.41134 0.0
O231 O 0.82688 0.18329 0.43635 0.0
H232 H 0.91106 0.05537 0.48351 0.0
H233 H 0.91815 0.98405 0.4722 0.0
H234 H 0.87937 0.98364 0.364 0.0
H235 H 0.87196 0.05421 0.37497 0.0
H236 H 0.89342 0.3792 0.35174 0.0
H237 H 0.86096 0.43334 0.3598 0.0
H238 H 0.94126 0.48731 0.45553 0.0
H239 H 0.97425 0.43426 0.44764 0.0
Nd240 Nd 0.19262 0.32964 0.62378 0.0
Nd241 Nd 0.15154 0.38809 0.63029 0.0
C242 C 0.20917 0.26019 0.60462 0.0
C243 C 0.19665 0.21068 0.61248 0.0
C244 C 0.17811 0.17584 0.58568 0.0
C245 C 0.17771 0.13258 0.5896 0.0
C246 C 0.1956 0.12406 0.62046 0.0
C247 C 0.20967 0.15668 0.64841 0.0
C248 C 0.21018 0.1997 0.64454 0.0
C249 C 0.20709 0.3677 0.69165 0.0
C250 C 0.08822 0.2732 0.64986 0.0
C251 C 0.12311 0.45068 0.64521 0.0
C252 C 0.14546 0.50348 0.64001 0.0
C253 C 0.17723 0.53661 0.66484 0.0
C254 C 0.1956 0.58596 0.66045 0.0
C255 C 0.18317 0.60329 0.63093 0.0
C256 C 0.15305 0.57055 0.60554 0.0
C257 C 0.13432 0.52135 0.61005 0.0
C258 C 0.13312 0.34978 0.56249 0.0
C259 C 0.26601 0.43838 0.61571 0.0
O260 O 0.17741 0.2675 0.58926 0.0
O261 O 0.23448 0.29299 0.62784 0.0
O262 O 0.2377 0.36114 0.67384 0.0
O263 O 0.16923 0.35275 0.67395 0.0
O264 O 0.1298 0.27673 0.65436 0.0
O265 O 0.08535 0.31134 0.64012 0.0
O266 O 0.14169 0.43536 0.66855 0.0
O267 O 0.11051 0.42422 0.61699 0.0
O268 O 0.15436 0.39524 0.56964 0.0
O269 O 0.1325 0.32882 0.59063 0.0
O270 O 0.23263 0.44206 0.63272 0.0
O271 O 0.25546 0.39739 0.6011 0.0
H272 H 0.16692 0.18334 0.56091 0.0
H273 H 0.16588 0.1071 0.56805 0.0
H274 H 0.22291 0.14998 0.67256 0.0
H275 H 0.22406 0.22545 0.66588 0.0
H276 H 0.18716 0.52441 0.68803 0.0
H277 H 0.21882 0.61054 0.68041 0.0
H278 H 0.14275 0.58302 0.58267 0.0
H279 H 0.11026 0.49719 0.59026 0.0
Nd280 Nd 0.29757 0.92166 0.91096 0.0
Nd281 Nd 0.19563 0.8816 0.91735 0.0
C282 C 0.38854 0.95084 0.89734 0.0
C283 C 0.41909 0.92834 0.90128 0.0
C284 C 0.41607 0.89256 0.87817 0.0
C285 C 0.44634 0.87318 0.88224 0.0
C286 C 0.48073 0.88935 0.90932 0.0
C287 C 0.48236 0.92393 0.93292 0.0
C288 C 0.45208 0.94299 0.929 0.0
C289 C 0.27588 0.9378 0.97782 0.0
C290 C 0.23061 0.80653 0.92582 0.0
C291 C 0.11546 0.87257 0.94251 0.0
C292 C 0.0778 0.8825 0.93125 0.0
C293 C 0.05931 0.90213 0.95551 0.0
C294 C 1.01711 0.90235 0.94805 0.0
C295 C 0.99362 0.88322 0.91614 0.0
C296 C 1.015 0.86883 0.89038 0.0
C297 C 0.05697 0.86849 0.89783 0.0
C298 C 0.20797 0.86564 0.84749 0.0
C299 C 0.24513 0.98453 0.88938 0.0
O300 O 0.35564 0.93451 0.87303 0.0
O301 O 0.37379 0.96086 0.92638 0.0
O302 O 0.29877 0.91496 0.97123 0.0
O303 O 0.25726 0.94078 0.9494 0.0
O304 O 0.27033 0.84011 0.91154 0.0
O305 O 0.19927 0.8175 0.93816 0.0
O306 O 0.15711 0.90956 0.94923 0.0
O307 O 0.11802 0.83793 0.92634 0.0
O308 O 0.16708 0.85063 0.86275 0.0
O309 O 0.24187 0.88647 0.86935 0.0
O310 O 0.20765 0.94298 0.88445 0.0
O311 O 0.28573 0.98751 0.90035 0.0
H312 H 0.39052 0.87964 0.85685 0.0
H313 H 0.44266 0.8455 0.86414 0.0
H314 H 0.50817 0.93755 0.95404 0.0
H315 H 0.45511 0.97 0.94753 0.0
H316 H 0.07566 0.91421 0.9811 0.0
H317 H 1.00111 0.914 0.96806 0.0
H318 H 0.99721 0.85436 0.86553 0.0
H319 H 0.07125 0.85437 0.87831 0.0
Nd320 Nd 0.7433 0.87731 0.62473 0.0
Nd321 Nd 0.68041 0.77268 0.63085 0.0
C322 C 0.81325 0.9577 0.59975 0.0
C323 C 0.86159 0.99432 0.61052 0.0
C324 C 0.89906 1.01017 0.58614 0.0
C325 C 0.94294 0.05067 0.59345 0.0
C326 C 0.94975 0.07514 0.62543 0.0
C327 C 0.91404 0.05648 0.65113 0.0
C328 C 0.87013 1.01633 0.64375 0.0
C329 C 0.7143 0.8619 0.69451 0.0
C330 C 0.79578 0.82644 0.6542 0.0
C331 C 0.61788 0.68242 0.64498 0.0
C332 C 0.56496 0.65244 0.6402 0.0
C333 C 0.53261 0.6504 0.66605 0.0
C334 C 0.48324 0.61952 0.66204 0.0
C335 C 0.46494 0.59023 0.63196 0.0
C336 C 0.49699 0.594 0.60549 0.0
C337 C 0.54621 0.6244 0.60961 0.0
C338 C 0.7196 0.79501 0.56453 0.0
C339 C 0.63329 0.84134 0.6164 0.0
O340 O 0.80748 0.91587 0.59123 0.0
O341 O 0.77735 0.95534 0.61753 0.0
O342 O 0.74047 0.90372 0.68076 0.0
O343 O 0.70221 0.82984 0.67115 0.0
O344 O 0.79346 0.86542 0.65668 0.0
O345 O 0.7577 0.78527 0.64417 0.0
O346 O 0.634 0.71617 0.6689 0.0
O347 O 0.64369 0.69583 0.61647 0.0
O348 O 0.67394 0.77055 0.57029 0.0
O349 O 0.7401 0.81417 0.59336 0.0
O350 O 0.62679 0.80077 0.62937 0.0
O351 O 0.67534 0.87336 0.60466 0.0
H352 H 0.89339 0.99306 0.56062 0.0
H353 H 0.9702 0.06479 0.57329 0.0
H354 H 0.91869 0.07537 0.67577 0.0
H355 H 0.84213 1.00434 0.66328 0.0
H356 H 0.54545 0.6719 0.68973 0.0
H357 H 0.45939 0.61797 0.68271 0.0
H358 H 0.48411 0.57189 0.58209 0.0
H359 H 0.56973 0.62509 0.58899 0.0
Nd360 Nd 0.14976 0.38984 0.9062 0.0
Nd361 Nd 0.19094 0.33028 0.91295 0.0
C362 C 0.12341 0.45318 0.89054 0.0
C363 C 0.14585 0.50569 0.89802 0.0
C364 C 0.17141 0.53957 0.87184 0.0
C365 C 0.18916 0.58861 0.878 0.0
C366 C 0.18189 0.60516 0.91054 0.0
C367 C 0.15959 0.57155 0.93749 0.0
C368 C 0.1415 0.52263 0.93127 0.0
C369 C 0.13109 0.35213 0.97338 0.0
C370 C 0.2638 0.4388 0.92362 0.0
C371 C 0.20275 0.25825 0.93196 0.0
C372 C 0.18653 0.20804 0.9228 0.0
C373 C 0.16626 0.17291 0.94885 0.0
C374 C 0.16194 0.12803 0.94331 0.0
C375 C 0.17748 0.11801 0.91151 0.0
C376 C 0.1926 0.15118 0.88423 0.0
C377 C 0.19726 0.19593 0.88981 0.0
C378 C 0.20748 0.36936 0.84597 0.0
C379 C 0.08706 0.27551 0.88619 0.0
O380 O 0.14516 0.43953 0.86825 0.0
O381 O 0.106 0.42416 0.91708 0.0
O382 O 0.15054 0.39745 0.96675 0.0
O383 O 0.13098 0.33108 0.94521 0.0
O384 O 0.23064 0.44319 0.90714 0.0
O385 O 0.25315 0.39733 0.93685 0.0
O386 O 0.17228 0.2679 0.94724 0.0
O387 O 0.23013 0.29069 0.90943 0.0
O388 O 0.23799 0.36301 0.86391 0.0
O389 O 0.16909 0.35398 0.8632 0.0
O390 O 0.12893 0.2804 0.87988 0.0
O391 O 0.08374 0.31336 0.89641 0.0
H392 H 0.17657 0.52807 0.84618 0.0
H393 H 0.20683 0.61332 0.85674 0.0
H394 H 0.15524 0.58292 0.96341 0.0
H395 H 0.12331 0.49805 0.9525 0.0
H396 H 0.15725 0.18134 0.97437 0.0
H397 H 0.15032 0.10281 0.96472 0.0
H398 H 0.20538 0.14426 0.85974 0.0
H399 H 0.21258 0.22207 0.86909 0.0
Nd400 Nd 0.19235 0.87605 0.62413 0.0
Nd401 Nd 0.29509 0.91639 0.62953 0.0
C402 C 0.11115 0.86521 0.59971 0.0
C403 C 0.07325 0.87527 0.61077 0.0
C404 C 0.05747 0.89793 0.5874 0.0
C405 C 1.01669 0.90098 0.5951 0.0
C406 C 0.99204 0.88219 0.62663 0.0
C407 C 1.00998 0.86305 0.65112 0.0
C408 C 0.05019 0.85942 0.64328 0.0
C409 C 0.20616 0.86174 0.69375 0.0
C410 C 0.24356 0.97898 0.65307 0.0
C411 C 0.38531 0.94494 0.64503 0.0
C412 C 0.41622 0.92314 0.64011 0.0
C413 C 0.4157 0.88927 0.66349 0.0
C414 C 0.44746 0.87168 0.6589 0.0
C415 C 0.48027 0.88776 0.63093 0.0
C416 C 0.47872 0.91936 0.6066 0.0
C417 C 0.4474 0.93696 0.6112 0.0
C418 C 0.27365 0.93765 0.56389 0.0
C419 C 0.22818 0.80103 0.61464 0.0
O420 O 0.15256 0.90195 0.59222 0.0
O421 O 0.11447 0.83181 0.6165 0.0
O422 O 0.16493 0.84739 0.67927 0.0
O423 O 0.23934 0.88187 0.67124 0.0
O424 O 0.20648 0.93749 0.6586 0.0
O425 O 0.28415 0.98185 0.6422 0.0
O426 O 0.35134 0.92712 0.66848 0.0
O427 O 0.37157 0.95589 0.61634 0.0
O428 O 0.29844 0.91642 0.56886 0.0
O429 O 0.2539 0.93717 0.59298 0.0
O430 O 0.26976 0.83578 0.62533 0.0
O431 O 0.19393 0.80948 0.60584 0.0
H432 H 0.07519 0.91092 0.56238 0.0
H433 H 1.00306 0.91562 0.57581 0.0
H434 H 0.99088 0.84787 0.67536 0.0
H435 H 0.06184 0.8423 0.662 0.0
H436 H 0.39161 0.87719 0.68572 0.0
H437 H 0.44772 0.8471 0.67795 0.0
H438 H 0.50291 0.93163 0.58441 0.0
H439 H 0.44838 0.96234 0.59234 0.0
Nd440 Nd 0.68128 0.77275 0.91148 0.0
Nd441 Nd 0.74395 0.88058 0.91726 0.0
C442 C 0.6146 0.6862 0.89134 0.0
C443 C 0.56243 0.65561 0.89869 0.0
C444 C 0.52789 0.65493 0.8759 0.0
C445 C 0.47906 0.62301 0.88124 0.0
C446 C 0.46342 0.59105 0.90965 0.0
C447 C 0.49788 0.59334 0.93324 0.0
C448 C 0.54655 0.62503 0.92786 0.0
C449 C 0.71924 0.78711 0.97793 0.0
C450 C 0.63251 0.84193 0.92626 0.0
C451 C 0.81516 0.96007 0.94246 0.0
C452 C 0.86275 0.99763 0.93167 0.0
C453 C 0.90053 1.01404 0.95576 0.0
C454 C 0.94365 0.05546 0.94883 0.0
C455 C 0.9492 0.08008 0.9175 0.0
C456 C 0.91327 0.06105 0.89198 0.0
C457 C 0.87017 1.01997 0.89897 0.0
C458 C 0.7177 0.86186 0.84733 0.0
C459 C 0.79586 0.82598 0.89082 0.0
O460 O 0.62823 0.72408 0.87203 0.0
O461 O 0.64399 0.69401 0.9172 0.0
O462 O 0.6828 0.74807 0.96718 0.0
O463 O 0.72817 0.82071 0.95617 0.0
O464 O 0.62658 0.79901 0.91964 0.0
O465 O 0.6749 0.87945 0.93104 0.0
O466 O 0.81047 0.91808 0.94818 0.0
O467 O 0.77824 0.9583 0.92677 0.0
O468 O 0.7428 0.90439 0.86077 0.0
O469 O 0.70528 0.83069 0.87135 0.0
O470 O 0.79217 0.86383 0.88644 0.0
O471 O 0.75791 0.78438 0.89923 0.0
H472 H 0.53864 0.67813 0.8533 0.0
H473 H 0.45382 0.62212 0.86225 0.0
H474 H 0.48722 0.56991 0.95571 0.0
H475 H 0.57182 0.62472 0.94627 0.0
H476 H 0.89562 0.99654 0.98082 0.0
H477 H 0.97122 0.06989 0.96875 0.0
H478 H 0.91729 0.08005 0.86774 0.0
H479 H 0.84188 1.00741 0.87967 0.0
C480 C 0.07798 0.24855 0.15905 0.0
C481 C 1.03034 0.21208 0.16095 0.0
C482 C 0.11455 0.23811 0.15174 0.0
C483 C 0.10466 0.19099 0.14577 0.0
H484 H 0.08685 0.28551 0.16127 0.0
H485 H 0.15072 0.26739 0.14915 0.0
S486 S 0.9885 0.08119 0.15694 0.0
N487 N 0.97715 0.12512 0.16349 0.0
N488 N 0.04586 0.10709 0.14779 0.0
C489 C 0.05806 0.15385 0.15024 0.0
C490 C 1.02099 0.16402 0.15864 0.0
C491 C 0.21282 1.0076 0.36815 0.0
C492 C 0.23913 0.03886 0.39522 0.0
C493 C 0.16437 0.97448 0.37286 0.0
C494 C 0.141 0.96978 0.40541 0.0
H495 H 0.22932 1.00971 0.34291 0.0
H496 H 0.14533 0.95198 0.35068 0.0
S497 S 0.19291 0.05268 0.48176 0.0
N498 N 0.23588 0.07195 0.45228 0.0
N499 N 0.14805 1.00498 0.46377 0.0
C500 C 0.1667 1.00344 0.43199 0.0
C501 C 0.21495 0.03896 0.42621 0.0
C502 C 0.86073 0.90422 0.16545 0.0
C503 C 0.87452 0.92416 0.13149 0.0
C504 C 0.84668 0.85635 0.17203 0.0
C505 C 0.84688 0.82681 0.14513 0.0
H506 H 0.86074 0.92573 0.1874 0.0
H507 H 0.83712 0.84285 0.19851 0.0
S508 S 0.89362 0.86384 0.05446 0.0
N509 N 0.89447 0.91107 0.07198 0.0
N510 N 0.87241 0.82323 0.08551 0.0
C511 C 0.8649 0.8472 0.112 0.0
C512 C 0.87796 0.89537 0.10492 0.0
C513 C 0.09609 0.20438 0.37321 0.0
C514 C 0.10197 0.18813 0.4064 0.0
C515 C 0.06469 0.22188 0.36817 0.0
C516 C 1.03561 0.22134 0.39541 0.0
H517 H 0.11557 0.2037 0.35034 0.0
H518 H 0.06166 0.23389 0.34234 0.0
S519 S 1.02065 0.16488 0.48289 0.0
N520 N 0.06657 0.1638 0.46499 0.0
N521 N 1.00347 0.18991 0.45319 0.0
C522 C 1.03566 0.19896 0.42707 0.0
C523 C 0.06944 0.1837 0.43311 0.0
C524 C 0.22721 1.01386 0.11887 0.0
C525 C 0.23923 0.03878 0.15106 0.0
C526 C 0.1799 0.98265 0.10936 0.0
C527 C 0.14237 0.97764 0.13077 0.0
H528 H 0.25393 1.02087 0.09963 0.0
H529 H 0.17276 0.96193 0.08534 0.0
S530 S 0.15321 0.05242 0.20817 0.0
N531 N 0.20873 0.06736 0.19841 0.0
N532 N 0.11933 1.01056 0.17953 0.0
C533 C 0.1532 1.0076 0.1602 0.0
C534 C 0.20159 0.03809 0.17046 0.0
C535 C 0.90383 0.86828 0.39178 0.0
C536 C 0.855 0.83198 0.39309 0.0
C537 C 0.91888 0.91558 0.40147 0.0
C538 C 0.88581 0.92847 0.41303 0.0
H539 H 0.93129 0.86041 0.38345 0.0
H540 H 0.95626 0.94224 0.39924 0.0
S541 S 0.75579 0.85043 0.42197 0.0
N542 N 0.77466 0.8144 0.40717 0.0
N543 N 0.80361 0.90339 0.42628 0.0
C544 C 0.83773 0.89334 0.41538 0.0
C545 C 0.82213 0.84518 0.40514 0.0
C546 C 0.26295 0.05721 0.62593 0.0
C547 C 0.23209 1.01737 0.64617 0.0
C548 C 0.24931 0.09014 0.61512 0.0
C549 C 0.20414 0.08374 0.62356 0.0
H550 H 0.29767 0.06292 0.61819 0.0
H551 H 0.27475 0.12163 0.601 0.0
S552 S 0.10723 0.98305 0.67135 0.0
N553 N 0.15194 0.97212 0.67165 0.0
N554 N 0.12702 0.03354 0.64987 0.0
C555 C 0.17196 0.04316 0.64182 0.0
C556 C 0.1858 1.01015 0.65356 0.0
C557 C 0.9304 0.90072 0.8977 0.0
C558 C 0.94326 0.86907 0.9118 0.0
C559 C 0.88297 0.88499 0.88896 0.0
C560 C 0.84624 0.83692 0.89412 0.0
H561 H 0.95716 0.93754 0.89292 0.0
H562 H 0.87529 0.91159 0.87861 0.0
S563 S 0.86421 0.74095 0.93044 0.0
N564 N 0.91777 0.78872 0.9311 0.0
N565 N 0.82813 0.75829 0.91393 0.0
C566 C 0.85944 0.80511 0.90808 0.0
C567 C 0.90794 0.82151 0.91734 0.0
C568 C 1.02271 0.13861 0.65508 0.0
C569 C 0.98764 0.12509 0.62922 0.0
C570 C 0.05298 0.18691 0.66316 0.0
C571 C 0.04863 0.2234 0.6462 0.0
H572 H 1.02637 0.11172 0.66933 0.0
H573 H 0.08065 0.1958 0.68253 0.0
S574 S 0.96265 0.2045 0.57528 0.0
N575 N 0.95072 0.1503 0.5857 0.0
N576 N 1.00698 0.24121 0.60112 0.0
C577 C 1.01374 0.20971 0.61996 0.0
C578 C 0.98359 0.16056 0.61133 0.0
C579 C 0.17194 0.04597 0.8825 0.0
C580 C 0.19059 0.0805 0.90919 0.0
C581 C 0.19267 1.01785 0.87461 0.0
C582 C 0.23351 1.02368 0.89258 0.0
H583 H 0.14172 0.04134 0.86722 0.0
H584 H 0.17587 0.99052 0.85452 0.0
S585 S 0.29556 0.11142 0.96434 0.0
N586 N 0.25081 0.1195 0.95389 0.0
N587 N 0.29143 0.06842 0.93815 0.0
C588 C 0.25229 0.05865 0.91927 0.0
C589 C 0.23023 0.08631 0.92793 0.0
C590 C 0.90614 0.83182 0.61547 0.0
C591 C 0.94298 0.8726 0.6316 0.0
C592 C 0.85882 0.8129 0.62651 0.0
C593 C 0.84578 0.83601 0.652 0.0
H594 H 0.91436 0.81263 0.59568 0.0
H595 H 0.83295 0.77947 0.61547 0.0
S596 S 0.9303 0.94485 0.70224 0.0
N597 N 0.96477 0.93481 0.67546 0.0
N598 N 0.87519 0.90235 0.69381 0.0
C599 C 0.88293 0.8775 0.66809 0.0
C600 C 0.93144 0.89539 0.6581 0.0
C601 C 0.05849 0.18821 0.8842 0.0
C602 C 0.04918 0.22565 0.89287 0.0
C603 C 1.02778 0.14115 0.89436 0.0
C604 C 0.98683 0.12982 0.91376 0.0
H605 H 0.09003 0.19511 0.8695 0.0
H606 H 1.03539 0.11337 0.88623 0.0
S607 S 0.94656 0.21245 0.94546 0.0
N608 N 0.99618 0.2469 0.92366 0.0
N609 N 0.93882 0.15803 0.94303 0.0
C610 C 0.97766 0.16632 0.92381 0.0
C611 C 1.0086 0.21429 0.91319 0.0
C612 C 0.34337 0.14906 0.28981 0.0
C613 C 0.37653 0.18895 0.30952 0.0
C614 C 0.34391 0.14941 0.25265 0.0
C615 C 0.37759 0.18966 0.23385 0.0
H616 H 0.31555 0.11822 0.30317 0.0
H617 H 0.31651 0.11878 0.23858 0.0
S618 S 0.47429 0.30112 0.27299 0.0
N619 N 0.44562 0.26822 0.30732 0.0
N620 N 0.44661 0.26886 0.23788 0.0
C621 C 0.41206 0.22867 0.25327 0.0
C622 C 0.41152 0.22831 0.29099 0.0
C623 C 0.89145 0.73988 0.28948 0.0
C624 C 0.87061 0.69682 0.30815 0.0
C625 C 0.89084 0.74037 0.25265 0.0
C626 C 0.8695 0.69783 0.23275 0.0
H627 H 0.90941 0.77367 0.30349 0.0
H628 H 0.90878 0.77455 0.23954 0.0
S629 S 0.80837 0.57542 0.26899 0.0
N630 N 0.826 0.61037 0.30419 0.0
N631 N 0.82549 0.61121 0.23464 0.0
C632 C 0.84656 0.65439 0.25104 0.0
C633 C 0.84697 0.65391 0.28884 0.0
C634 C 0.9133 0.19146 0.24982 0.0
C635 C 0.88114 0.20072 0.23134 0.0
C636 C 0.91484 0.1924 0.28688 0.0
C637 C 0.88442 0.20283 0.30704 0.0
H638 H 0.93643 0.18189 0.23553 0.0
H639 H 0.93887 0.1832 0.29992 0.0
S640 S 0.79524 0.23158 0.27156 0.0
N641 N 0.81961 0.22257 0.23614 0.0
N642 N 0.82249 0.2243 0.30559 0.0
C643 C 0.85367 0.21422 0.2889 0.0
C644 C 0.85205 0.21319 0.25111 0.0
C645 C 0.21441 0.33591 0.7502 0.0
C646 C 0.20745 0.36904 0.73094 0.0
C647 C 0.21468 0.33639 0.78731 0.0
C648 C 0.20812 0.37012 0.80669 0.0
H649 H 0.21915 0.30902 0.73647 0.0
H650 H 0.2195 0.30978 0.80094 0.0
S651 S 0.19118 0.46604 0.769 0.0
N652 N 0.19533 0.43728 0.73424 0.0
N653 N 0.19589 0.4382 0.80363 0.0
C654 C 0.20117 0.40332 0.78774 0.0
C655 C 0.20085 0.4028 0.75 0.0
C656 C 0.17198 0.8298 0.78939 0.0
C657 C 0.21258 0.86218 0.80854 0.0
C658 C 0.1716 0.8288 0.75253 0.0
C659 C 0.2118 0.86012 0.7327 0.0
H660 H 0.13941 0.80559 0.80303 0.0
H661 H 0.13874 0.80388 0.73943 0.0
S662 S 0.32835 0.95133 0.76969 0.0
N663 N 0.29515 0.9258 0.80469 0.0
N664 N 0.2944 0.92399 0.73524 0.0
C665 C 0.25353 0.89172 0.75135 0.0
C666 C 0.25393 0.89273 0.78925 0.0
C667 C 0.7091 0.81896 0.75165 0.0
C668 C 0.70487 0.85443 0.73312 0.0
C669 C 0.70974 0.81873 0.78899 0.0
C670 C 0.70609 0.85392 0.8089 0.0
H671 H 0.71489 0.79315 0.73732 0.0
H672 H 0.7161 0.79283 0.80217 0.0
S673 S 0.68611 0.94892 0.77284 0.0
N674 N 0.69104 0.92137 0.73771 0.0
N675 N 0.69231 0.92116 0.80686 0.0
C676 C 0.69849 0.88709 0.79042 0.0
C677 C 0.69786 0.8873 0.75286 0.0
C678 C 0.32899 1.0268 0.98787 0.0
C679 C 0.29921 0.98095 1.00187 0.0
C680 C 0.35021 0.06862 1.00916 0.0
C681 C 0.34412 0.06657 0.0458 0.0
H682 H 0.33673 0.03023 0.96006 0.0
H683 H 0.37191 0.10287 0.99681 0.0
S684 S 0.29095 0.95324 0.09643 0.0
N685 N 0.2761 0.93521 0.05536 0.0
N686 N 0.32272 1.01214 0.09518 0.0
C687 C 0.3215 1.02006 0.06038 0.0
C688 C 0.2974 0.97777 0.03858 0.0
C689 C 0.79513 0.73903 0.53397 0.0
C690 C 0.78502 0.72951 0.49801 0.0
C691 C 0.77294 0.75929 0.55455 0.0
C692 C 0.74177 0.77355 0.5405 0.0
H693 H 0.81913 0.72944 0.54657 0.0
H694 H 0.77717 0.76099 0.58235 0.0
S695 S 0.68868 0.73844 0.45187 0.0
N696 N 0.73078 0.72362 0.45177 0.0
N697 N 0.69225 0.76411 0.49033 0.0
C698 C 0.72824 0.76046 0.50537 0.0
C699 C 0.74952 0.73845 0.4843 0.0
C700 C 0.04267 0.32115 0.98588 0.0
C701 C 0.08763 0.32882 0.99706 0.0
C702 C 1.00146 0.29896 1.00769 0.0
C703 C 1.00256 0.28228 0.04167 0.0
H704 H 1.03939 0.33295 0.96005 0.0
H705 H 0.96834 0.29505 0.99782 0.0
S706 S 0.11322 0.29868 0.08421 0.0
N707 N 0.13136 0.32097 0.04483 0.0
N708 N 0.05531 0.27918 0.08572 0.0
C709 C 0.04781 0.29038 0.05305 0.0
C710 C 0.08968 0.31348 0.03088 0.0
C711 C 0.29439 0.03061 0.49153 0.0
C712 C 0.3395 0.07079 0.4995 0.0
C713 C 0.27237 0.98875 0.51261 0.0
C714 C 0.29573 0.98307 0.54179 0.0
H715 H 0.27705 0.02983 0.46748 0.0
H716 H 0.23758 0.95987 0.50507 0.0
S717 S 0.41783 0.07274 0.57121 0.0
N718 N 0.40809 0.09877 0.53769 0.0
N719 N 0.36883 1.02067 0.57563 0.0
C720 C 0.3417 1.02189 0.54913 0.0
C721 C 0.36321 0.06501 0.5284 0.0
C722 C 0.81383 0.75924 1.01244 0.0
C723 C 0.79539 0.73831 0.04539 0.0
C724 C 0.79305 0.7815 0.9925 0.0
C725 C 0.75254 0.78359 1.00417 0.0
H726 H 0.84402 0.75762 1.00176 0.0
H727 H 0.80707 0.79496 0.96684 0.0
S728 S 0.6961 0.74307 0.09147 0.0
N729 N 0.73829 0.72841 0.09085 0.0
N730 N 0.69919 0.76816 0.05323 0.0
C731 C 0.73629 0.76614 0.03815 0.0
C732 C 0.75762 0.74417 0.05865 0.0
C733 C 0.08659 0.30914 0.50588 0.0
C734 C 0.0883 0.32811 0.53969 0.0
C735 C 0.04439 0.28898 0.48504 0.0
C736 C 1.00053 0.28389 0.49737 0.0
H737 H 0.11842 0.31084 0.49501 0.0
H738 H 0.04704 0.2793 0.45835 0.0
S739 S 0.98653 0.33157 0.58289 0.0
N740 N 1.04253 0.34374 0.58315 0.0
N741 N 0.96405 0.30431 0.54507 0.0
C742 C 1.00247 0.30416 0.53065 0.0
C743 C 0.04565 0.32591 0.5515 0.0
C744 C 0.74727 0.19423 0.15149 0.0
C745 C 0.77094 0.20997 0.11905 0.0
C746 C 0.69931 0.18253 0.15574 0.0
C747 C 0.67289 0.18598 0.12767 0.0
H748 H 0.76572 0.18999 0.17362 0.0
H749 H 0.6824 0.16934 0.18096 0.0
S750 S 0.72027 0.23006 0.03836 0.0
N751 N 0.76548 0.23096 0.05909 0.0
N752 N 0.67598 0.21017 0.06694 0.0
C753 C 0.69685 0.20312 0.09538 0.0
C754 C 0.7456 0.21472 0.0911 0.0
C755 C 0.52539 0.3883 0.42878 0.0
C756 C 0.56958 0.40033 0.41314 0.0
C757 C 0.48969 0.34065 0.4337 0.0
C758 C 0.4961 0.3023 0.42306 0.0
H759 H 0.51776 0.41606 0.43688 0.0
H760 H 0.4564 0.33403 0.44545 0.0
S761 S 0.60416 0.31344 0.37933 0.0
N762 N 0.61728 0.36915 0.38659 0.0
N763 N 0.54975 0.27983 0.39475 0.0
C764 C 0.53977 0.31362 0.40683 0.0
C765 C 0.57643 0.36236 0.40204 0.0
C766 C 0.85298 0.49609 0.10619 0.0
C767 C 0.88804 0.50051 0.13019 0.0
C768 C 0.84297 0.53358 0.10147 0.0
C769 C 0.86898 0.57726 0.1196 0.0
H770 H 0.83345 0.46362 0.09087 0.0
H771 H 0.81548 0.52876 0.08304 0.0
S772 S 0.96188 0.60516 0.18709 0.0
N773 N 0.94627 0.55048 0.17383 0.0
N774 N 0.92913 0.62135 0.16405 0.0
C775 C 0.90346 0.58157 0.14405 0.0
C776 C 0.9126 0.54311 0.14952 0.0
C777 C 0.702 0.20275 0.38852 0.0
C778 C 0.66895 0.18148 0.4162 0.0
C779 C 0.7502 0.21524 0.39215 0.0
C780 C 0.76751 0.20608 0.42329 0.0
H781 H 0.69047 0.20858 0.36332 0.0
H782 H 0.77376 0.23065 0.36985 0.0
S783 S 0.69868 0.15671 0.50513 0.0
N784 N 0.65986 0.15774 0.47766 0.0
N785 N 0.74894 0.17703 0.4829 0.0
C786 C 0.73555 0.18576 0.45132 0.0
C787 C 0.68685 0.17466 0.4482 0.0
C788 C 0.53384 0.31324 0.13591 0.0
C789 C 0.49216 0.30024 0.11624 0.0
C790 C 0.57005 0.36126 0.13978 0.0
C791 C 0.56647 0.39876 0.12409 0.0
H792 H 0.53833 0.28616 0.14911 0.0
H793 H 0.60117 0.36897 0.15517 0.0
S794 S 0.46396 0.38484 0.07111 0.0
N795 N 0.4495 0.32972 0.08133 0.0
N796 N 0.5165 0.41931 0.08924 0.0
C797 C 0.52489 0.3863 0.10449 0.0
C798 C 0.48812 0.33743 0.10045 0.0
C799 C 0.90323 0.5838 0.40168 0.0
C800 C 0.86426 0.57754 0.4223 0.0
C801 C 0.91289 0.5463 0.39625 0.0
C802 C 0.88429 0.50136 0.41155 0.0
H803 H 0.92604 0.61779 0.38923 0.0
H804 H 0.94339 0.55268 0.38039 0.0
S805 S 0.77885 0.46715 0.4683 0.0
N806 N 0.79698 0.52316 0.45785 0.0
N807 N 0.81589 0.453 0.4486 0.0
C808 C 0.8453 0.49467 0.43221 0.0
C809 C 0.83505 0.53268 0.43727 0.0
C810 C 0.18204 0.72006 0.64158 0.0
C811 C 0.21754 0.7509 0.61798 0.0
C812 C 0.17255 0.67298 0.64659 0.0
C813 C 0.19765 0.65474 0.62778 0.0
H814 H 0.16181 0.73263 0.65659 0.0
H815 H 0.14473 0.65033 0.6648 0.0
S816 S 0.2944 0.72133 0.56343 0.0
N817 N 0.27874 0.76047 0.57665 0.0
N818 N 0.2598 0.67151 0.58491 0.0
C819 C 0.23339 0.68534 0.60433 0.0
C820 C 0.24368 0.73357 0.59981 0.0
C821 C 0.52999 0.86499 0.94639 0.0
C822 C 0.51626 0.87227 0.91278 0.0
C823 C 0.567 0.85439 0.95078 0.0
C824 C 0.59132 0.8498 0.92176 0.0
H825 H 0.5124 0.86815 0.96968 0.0
H826 H 0.57697 0.85025 0.97708 0.0
S827 S 0.56988 0.8642 0.82818 0.0
N828 N 0.53093 0.87363 0.84987 0.0
N829 N 0.59917 0.85247 0.85828 0.0
C830 C 0.57744 0.85562 0.88803 0.0
C831 C 0.54014 0.86689 0.88348 0.0
C832 C 0.38671 0.54972 0.59865 0.0
C833 C 0.41328 0.55313 0.62896 0.0
C834 C 0.33918 0.51249 0.59428 0.0
C835 C 0.31665 0.47689 0.61979 0.0
H836 H 0.40286 0.57606 0.57814 0.0
H837 H 0.31998 0.51153 0.57078 0.0
S838 S 0.37054 0.46881 0.70357 0.0
N839 N 0.41312 0.51724 0.68474 0.0
N840 N 0.32465 0.4476 0.67646 0.0
C841 C 0.34272 0.48007 0.65023 0.0
C842 C 0.39075 0.51808 0.65484 0.0
C843 C 0.24998 0.74244 0.90737 0.0
C844 C 0.21891 0.75522 0.92433 0.0
C845 C 0.23821 0.6943 0.90317 0.0
C846 C 0.19481 0.65654 0.91581 0.0
H847 H 0.28355 0.76983 0.89672 0.0
H848 H 0.26345 0.68668 0.88997 0.0
S849 S 0.09919 0.66972 0.95996 0.0
N850 N 0.14169 0.72507 0.95272 0.0
N851 N 0.11954 0.63549 0.94427 0.0
C852 C 0.16325 0.66877 0.93245 0.0
C853 C 0.17522 0.71767 0.93682 0.0
C854 C 0.50932 0.828 0.62697 0.0
C855 C 0.51909 0.87561 0.62828 0.0
C856 C 0.54627 0.81713 0.62255 0.0
C857 C 0.59429 0.8534 0.61911 0.0
H858 H 0.47289 0.79903 0.62885 0.0
H859 H 0.53708 0.77999 0.62167 0.0
S860 S 0.63869 0.98384 0.62608 0.0
N861 N 0.58029 0.95906 0.62944 0.0
N862 N 0.64936 0.93918 0.62086 0.0
C863 C 0.60437 0.90117 0.62154 0.0
C864 C 0.56691 0.91207 0.62622 0.0
C865 C 0.40007 0.50611 0.92187 0.0
C866 C 0.41201 0.55336 0.91385 0.0
C867 C 0.35241 0.4697 0.92605 0.0
C868 C 0.31432 0.47877 0.92229 0.0
H869 H 0.42786 0.49686 0.92435 0.0
H870 H 0.34544 0.43391 0.9314 0.0
S871 S 0.32557 0.5963 0.90212 0.0
N872 N 0.38116 0.60714 0.90311 0.0
N873 N 0.29194 0.53883 0.91027 0.0
C874 C 0.32565 0.52579 0.91422 0.0
C875 C 0.37423 0.56295 0.91013 0.0
loop_
_geom_bond_atom_site_label_1
_geom_bond_atom_site_label_2
_geom_bond_distance
_geom_bond_site_symmetry_2
_ccdc_geom_bond_type
Nd0 C2 2.836 . S
Nd0 O20 2.500 . S
Nd0 O21 2.492 . S
Nd0 O22 2.487 . S
Nd0 O23 2.682 . S
Nd0 O24 2.410 . S
Nd0 O29 2.414 . S
Nd0 O31 2.424 . S
Nd1 C11 2.836 . S
Nd1 O23 2.414 . S
Nd1 O25 2.424 . S
Nd1 O26 2.500 . S
Nd1 O27 2.492 . S
Nd1 O28 2.487 . S
Nd1 O29 2.682 . S
Nd1 O30 2.410 . S
C2 Nd0 2.836 . S
C2 C3 1.498 . S
C2 O20 1.258 . S
C2 O21 1.239 . S
C3 C2 1.498 . S
C3 C4 1.366 . S
C3 C8 1.407 . S
C4 C3 1.366 . S
C4 C5 1.392 . S
C4 H32 0.930 . S
C5 C4 1.392 . S
C5 C6 1.398 . S
C5 H33 0.929 . S
C6 C5 1.398 . S
C6 C7 1.352 . S
C7 C6 1.352 . S
C7 C8 1.384 . S
C7 H34 0.930 . S
C8 C3 1.407 . S
C8 C7 1.384 . S
C8 H35 0.929 . S
C9 O22 1.241 . S
C9 O23 1.273 . S
C10 O24 1.251 . S
C10 O25 1.268 . S
C11 Nd1 2.836 . S
C11 C12 1.498 . S
C11 O26 1.258 . S
C11 O27 1.239 . S
C12 C11 1.498 . S
C12 C13 1.366 . S
C12 C17 1.407 . S
C13 C12 1.366 . S
C13 C14 1.392 . S
C13 H36 0.930 . S
C14 C13 1.392 . S
C14 C15 1.398 . S
C14 H37 0.929 . S
C15 C14 1.398 . S
C15 C16 1.352 . S
C16 C15 1.352 . S
C16 C17 1.384 . S
C16 H38 0.930 . S
C17 C12 1.407 . S
C17 C16 1.384 . S
C17 H39 0.929 . S
C18 O28 1.241 . S
C18 O29 1.273 . S
C19 O30 1.251 . S
C19 O31 1.268 . S
O20 Nd0 2.500 . S
O20 C2 1.258 . S
O21 Nd0 2.492 . S
O21 C2 1.239 . S
O22 Nd0 2.487 . S
O22 C9 1.241 . S
O23 Nd0 2.682 . S
O23 Nd1 2.414 . S
O23 C9 1.273 . S
O24 Nd0 2.410 . S
O24 C10 1.251 . S
O25 Nd1 2.424 . S
O25 C10 1.268 . S
O26 Nd1 2.500 . S
O26 C11 1.258 . S
O27 Nd1 2.492 . S
O27 C11 1.239 . S
O28 Nd1 2.487 . S
O28 C18 1.241 . S
O29 Nd0 2.414 . S
O29 Nd1 2.682 . S
O29 C18 1.273 . S
O30 Nd1 2.410 . S
O30 C19 1.251 . S
O31 Nd0 2.424 . S
O31 C19 1.268 . S
H32 C4 0.930 . S
H33 C5 0.929 . S
H34 C7 0.930 . S
H35 C8 0.929 . S
H36 C13 0.930 . S
H37 C14 0.929 . S
H38 C16 0.930 . S
H39 C17 0.929 . S
Nd40 C42 2.836 . S
Nd40 O60 2.500 . S
Nd40 O61 2.492 . S
Nd40 O62 2.487 . S
Nd40 O63 2.682 . S
Nd40 O64 2.410 . S
Nd40 O69 2.414 . S
Nd40 O71 2.424 . S
Nd41 C51 2.836 . S
Nd41 O63 2.414 . S
Nd41 O65 2.424 . S
Nd41 O66 2.500 . S
Nd41 O67 2.492 . S
Nd41 O68 2.487 . S
Nd41 O69 2.682 . S
Nd41 O70 2.410 . S
C42 Nd40 2.836 . S
C42 C43 1.498 . S
C42 O60 1.258 . S
C42 O61 1.239 . S
C43 C42 1.498 . S
C43 C44 1.366 . S
C43 C48 1.407 1_655 S
C44 C43 1.366 . S
C44 C45 1.392 1_655 S
C44 H72 0.930 . S
C45 C44 1.392 1_455 S
C45 C46 1.398 . S
C45 H73 0.929 . S
C46 C45 1.398 . S
C46 C47 1.352 . S
C47 C46 1.352 . S
C47 C48 1.384 . S
C47 H74 0.930 . S
C48 C43 1.407 1_455 S
C48 C47 1.384 . S
C48 H75 0.929 . S
C49 O62 1.241 . S
C49 O63 1.273 . S
C50 O64 1.251 . S
C50 O65 1.268 . S
C51 Nd41 2.836 . S
C51 C52 1.498 . S
C51 O66 1.258 . S
C51 O67 1.239 . S
C52 C51 1.498 . S
C52 C53 1.366 . S
C52 C57 1.407 . S
C53 C52 1.366 . S
C53 C54 1.392 . S
C53 H76 0.930 . S
C54 C53 1.392 . S
C54 C55 1.398 . S
C54 H77 0.929 . S
C55 C54 1.398 . S
C55 C56 1.352 . S
C56 C55 1.352 . S
C56 C57 1.384 . S
C56 H78 0.930 . S
C57 C52 1.407 . S
C57 C56 1.384 . S
C57 H79 0.929 . S
C58 O68 1.241 . S
C58 O69 1.273 . S
C59 O70 1.251 . S
C59 O71 1.268 . S
O60 Nd40 2.500 . S
O60 C42 1.258 . S
O61 Nd40 2.492 . S
O61 C42 1.239 . S
O62 Nd40 2.487 . S
O62 C49 1.241 . S
O63 Nd40 2.682 . S
O63 Nd41 2.414 . S
O63 C49 1.273 . S
O64 Nd40 2.410 . S
O64 C50 1.251 . S
O65 Nd41 2.424 . S
O65 C50 1.268 . S
O66 Nd41 2.500 . S
O66 C51 1.258 . S
O67 Nd41 2.492 . S
O67 C51 1.239 . S
O68 Nd41 2.487 . S
O68 C58 1.241 . S
O69 Nd40 2.414 . S
O69 Nd41 2.682 . S
O69 C58 1.273 . S
O70 Nd41 2.410 . S
O70 C59 1.251 . S
O71 Nd40 2.424 . S
O71 C59 1.268 . S
H72 C44 0.930 . S
H73 C45 0.929 . S
H74 C47 0.930 . S
H75 C48 0.929 . S
H76 C53 0.930 . S
H77 C54 0.929 . S
H78 C56 0.930 . S
H79 C57 0.929 . S
Nd80 C82 2.836 . S
Nd80 O100 2.500 . S
Nd80 O101 2.492 . S
Nd80 O102 2.487 . S
Nd80 O103 2.682 . S
Nd80 O104 2.410 . S
Nd80 O109 2.414 . S
Nd80 O111 2.424 . S
Nd81 C91 2.836 . S
Nd81 O103 2.414 . S
Nd81 O105 2.424 . S
Nd81 O106 2.500 . S
Nd81 O107 2.492 . S
Nd81 O108 2.487 . S
Nd81 O109 2.682 . S
Nd81 O110 2.410 . S
C82 Nd80 2.836 . S
C82 C83 1.498 . S
C82 O100 1.258 . S
C82 O101 1.239 . S
C83 C82 1.498 . S
C83 C84 1.366 . S
C83 C88 1.407 . S
C84 C83 1.366 . S
C84 C85 1.392 . S
C84 H112 0.930 . S
C85 C84 1.392 . S
C85 C86 1.398 . S
C85 H113 0.929 . S
C86 C85 1.398 . S
C86 C87 1.352 . S
C87 C86 1.352 . S
C87 C88 1.384 . S
C87 H114 0.930 . S
C88 C83 1.407 . S
C88 C87 1.384 . S
C88 H115 0.929 . S
C89 O102 1.241 . S
C89 O103 1.273 . S
C90 O104 1.251 . S
C90 O105 1.268 . S
C91 Nd81 2.836 . S
C91 C92 1.498 . S
C91 O106 1.258 . S
C91 O107 1.239 . S
C92 C91 1.498 . S
C92 C93 1.366 . S
C92 C97 1.407 1_545 S
C93 C92 1.366 . S
C93 C94 1.392 1_545 S
C93 H116 0.930 . S
C94 C93 1.392 1_565 S
C94 C95 1.398 . S
C94 H117 0.929 . S
C95 C94 1.398 . S
C95 C96 1.352 . S
C96 C95 1.352 . S
C96 C97 1.384 . S
C96 H118 0.930 . S
C97 C92 1.407 1_565 S
C97 C96 1.384 . S
C97 H119 0.929 . S
C98 O108 1.241 . S
C98 O109 1.273 . S
C99 O110 1.251 . S
C99 O111 1.268 . S
O100 Nd80 2.500 . S
O100 C82 1.258 . S
O101 Nd80 2.492 . S
O101 C82 1.239 . S
O102 Nd80 2.487 . S
O102 C89 1.241 . S
O103 Nd80 2.682 . S
O103 Nd81 2.414 . S
O103 C89 1.273 . S
O104 Nd80 2.410 . S
O104 C90 1.251 . S
O105 Nd81 2.424 . S
O105 C90 1.268 . S
O106 Nd81 2.500 . S
O106 C91 1.258 . S
O107 Nd81 2.492 . S
O107 C91 1.239 . S
O108 Nd81 2.487 . S
O108 C98 1.241 . S
O109 Nd80 2.414 . S
O109 Nd81 2.682 . S
O109 C98 1.273 . S
O110 Nd81 2.410 . S
O110 C99 1.251 . S
O111 Nd80 2.424 . S
O111 C99 1.268 . S
H112 C84 0.930 . S
H113 C85 0.929 . S
H114 C87 0.930 . S
H115 C88 0.929 . S
H116 C93 0.930 . S
H117 C94 0.929 . S
H118 C96 0.930 . S
H119 C97 0.929 . S
Nd120 C122 2.836 . S
Nd120 O140 2.500 . S
Nd120 O141 2.492 . S
Nd120 O142 2.487 . S
Nd120 O143 2.682 . S
Nd120 O144 2.410 . S
Nd120 O149 2.414 . S
Nd120 O151 2.424 . S
Nd121 C131 2.836 . S
Nd121 O143 2.414 . S
Nd121 O145 2.424 . S
Nd121 O146 2.500 . S
Nd121 O147 2.492 . S
Nd121 O148 2.487 . S
Nd121 O149 2.682 . S
Nd121 O150 2.410 . S
C122 Nd120 2.836 . S
C122 C123 1.498 . S
C122 O140 1.258 . S
C122 O141 1.239 . S
C123 C122 1.498 . S
C123 C124 1.366 . S
C123 C128 1.407 . S
C124 C123 1.366 . S
C124 C125 1.392 . S
C124 H152 0.930 . S
C125 C124 1.392 . S
C125 C126 1.398 . S
C125 H153 0.929 . S
C126 C125 1.398 . S
C126 C127 1.352 . S
C127 C126 1.352 . S
C127 C128 1.384 . S
C127 H154 0.930 . S
C128 C123 1.407 . S
C128 C127 1.384 . S
C128 H155 0.929 . S
C129 O142 1.241 . S
C129 O143 1.273 . S
C130 O144 1.251 . S
C130 O145 1.268 . S
C131 Nd121 2.836 . S
C131 C132 1.498 . S
C131 O146 1.258 . S
C131 O147 1.239 . S
C132 C131 1.498 . S
C132 C133 1.366 . S
C132 C137 1.407 . S
C133 C132 1.366 . S
C133 C134 1.392 . S
C133 H156 0.930 . S
C134 C133 1.392 . S
C134 C135 1.398 . S
C134 H157 0.929 . S
C135 C134 1.398 . S
C135 C136 1.352 . S
C136 C135 1.352 . S
C136 C137 1.384 . S
C136 H158 0.930 . S
C137 C132 1.407 . S
C137 C136 1.384 . S
C137 H159 0.929 . S
C138 O148 1.241 . S
C138 O149 1.273 . S
C139 O150 1.251 . S
C139 O151 1.268 . S
O140 Nd120 2.500 . S
O140 C122 1.258 . S
O141 Nd120 2.492 . S
O141 C122 1.239 . S
O142 Nd120 2.487 . S
O142 C129 1.241 . S
O143 Nd120 2.682 . S
O143 Nd121 2.414 . S
O143 C129 1.273 . S
O144 Nd120 2.410 . S
O144 C130 1.251 . S
O145 Nd121 2.424 . S
O145 C130 1.268 . S
O146 Nd121 2.500 . S
O146 C131 1.258 . S
O147 Nd121 2.492 . S
O147 C131 1.239 . S
O148 Nd121 2.487 . S
O148 C138 1.241 . S
O149 Nd120 2.414 . S
O149 Nd121 2.682 . S
O149 C138 1.273 . S
O150 Nd121 2.410 . S
O150 C139 1.251 . S
O151 Nd120 2.424 . S
O151 C139 1.268 . S
H152 C124 0.930 . S
H153 C125 0.929 . S
H154 C127 0.930 . S
H155 C128 0.929 . S
H156 C133 0.930 . S
H157 C134 0.929 . S
H158 C136 0.930 . S
H159 C137 0.929 . S
Nd160 C162 2.836 . S
Nd160 O180 2.500 . S
Nd160 O181 2.492 . S
Nd160 O182 2.487 . S
Nd160 O183 2.682 . S
Nd160 O184 2.410 . S
Nd160 O189 2.414 . S
Nd160 O191 2.424 . S
Nd161 C171 2.836 . S
Nd161 O183 2.414 . S
Nd161 O185 2.424 . S
Nd161 O186 2.500 . S
Nd161 O187 2.492 . S
Nd161 O188 2.487 . S
Nd161 O189 2.682 . S
Nd161 O190 2.410 . S
C162 Nd160 2.836 . S
C162 C163 1.498 . S
C162 O180 1.258 . S
C162 O181 1.239 . S
C163 C162 1.498 . S
C163 C164 1.366 . S
C163 C168 1.407 . S
C164 C163 1.366 . S
C164 C165 1.392 . S
C164 H192 0.930 . S
C165 C164 1.392 . S
C165 C166 1.398 . S
C165 H193 0.929 . S
C166 C165 1.398 . S
C166 C167 1.352 . S
C167 C166 1.352 . S
C167 C168 1.384 . S
C167 H194 0.930 . S
C168 C163 1.407 . S
C168 C167 1.384 . S
C168 H195 0.929 . S
C169 O182 1.241 . S
C169 O183 1.273 . S
C170 O184 1.251 . S
C170 O185 1.268 . S
C171 Nd161 2.836 . S
C171 C172 1.498 . S
C171 O186 1.258 . S
C171 O187 1.239 . S
C172 C171 1.498 . S
C172 C173 1.366 . S
C172 C177 1.407 1_655 S
C173 C172 1.366 . S
C173 C174 1.392 1_655 S
C173 H196 0.930 . S
C174 C173 1.392 1_455 S
C174 C175 1.398 . S
C174 H197 0.929 . S
C175 C174 1.398 . S
C175 C176 1.352 . S
C176 C175 1.352 . S
C176 C177 1.384 . S
C176 H198 0.930 . S
C177 C172 1.407 1_455 S
C177 C176 1.384 . S
C177 H199 0.929 . S
C178 O188 1.241 . S
C178 O189 1.273 . S
C179 O190 1.251 . S
C179 O191 1.268 . S
O180 Nd160 2.500 . S
O180 C162 1.258 . S
O181 Nd160 2.492 . S
O181 C162 1.239 . S
O182 Nd160 2.487 . S
O182 C169 1.241 . S
O183 Nd160 2.682 . S
O183 Nd161 2.414 . S
O183 C169 1.273 . S
O184 Nd160 2.410 . S
O184 C170 1.251 . S
O185 Nd161 2.424 . S
O185 C170 1.268 . S
O186 Nd161 2.500 . S
O186 C171 1.258 . S
O187 Nd161 2.492 . S
O187 C171 1.239 . S
O188 Nd161 2.487 . S
O188 C178 1.241 . S
O189 Nd160 2.414 . S
O189 Nd161 2.682 . S
O189 C178 1.273 . S
O190 Nd161 2.410 . S
O190 C179 1.251 . S
O191 Nd160 2.424 . S
O191 C179 1.268 . S
H192 C164 0.930 . S
H193 C165 0.929 . S
H194 C167 0.930 . S
H195 C168 0.929 . S
H196 C173 0.930 . S
H197 C174 0.929 . S
H198 C176 0.930 . S
H199 C177 0.929 . S
Nd200 C202 2.836 . S
Nd200 O220 2.500 . S
Nd200 O221 2.492 . S
Nd200 O222 2.487 . S
Nd200 O223 2.682 . S
Nd200 O224 2.410 . S
Nd200 O229 2.414 . S
Nd200 O231 2.424 . S
Nd201 C211 2.836 . S
Nd201 O223 2.414 . S
Nd201 O225 2.424 . S
Nd201 O226 2.500 . S
Nd201 O227 2.492 . S
Nd201 O228 2.487 . S
Nd201 O229 2.682 . S
Nd201 O230 2.410 . S
C202 Nd200 2.836 . S
C202 C203 1.498 . S
C202 O220 1.258 . S
C202 O221 1.239 . S
C203 C202 1.498 . S
C203 C204 1.366 . S
C203 C208 1.407 1_545 S
C204 C203 1.366 . S
C204 C205 1.392 1_545 S
C204 H232 0.930 . S
C205 C204 1.392 1_565 S
C205 C206 1.398 . S
C205 H233 0.929 . S
C206 C205 1.398 . S
C206 C207 1.352 . S
C207 C206 1.352 . S
C207 C208 1.384 . S
C207 H234 0.930 . S
C208 C203 1.407 1_565 S
C208 C207 1.384 . S
C208 H235 0.929 . S
C209 O222 1.241 . S
C209 O223 1.273 . S
C210 O224 1.251 . S
C210 O225 1.268 . S
C211 Nd201 2.836 . S
C211 C212 1.498 . S
C211 O226 1.258 . S
C211 O227 1.239 . S
C212 C211 1.498 . S
C212 C213 1.366 . S
C212 C217 1.407 . S
C213 C212 1.366 . S
C213 C214 1.392 . S
C213 H236 0.930 . S
C214 C213 1.392 . S
C214 C215 1.398 . S
C214 H237 0.929 . S
C215 C214 1.398 . S
C215 C216 1.352 . S
C216 C215 1.352 . S
C216 C217 1.384 . S
C216 H238 0.930 . S
C217 C212 1.407 . S
C217 C216 1.384 . S
C217 H239 0.929 . S
C218 O228 1.241 . S
C218 O229 1.273 . S
C219 O230 1.251 . S
C219 O231 1.268 . S
O220 Nd200 2.500 . S
O220 C202 1.258 . S
O221 Nd200 2.492 . S
O221 C202 1.239 . S
O222 Nd200 2.487 . S
O222 C209 1.241 . S
O223 Nd200 2.682 . S
O223 Nd201 2.414 . S
O223 C209 1.273 . S
O224 Nd200 2.410 . S
O224 C210 1.251 . S
O225 Nd201 2.424 . S
O225 C210 1.268 . S
O226 Nd201 2.500 . S
O226 C211 1.258 . S
O227 Nd201 2.492 . S
O227 C211 1.239 . S
O228 Nd201 2.487 . S
O228 C218 1.241 . S
O229 Nd200 2.414 . S
O229 Nd201 2.682 . S
O229 C218 1.273 . S
O230 Nd201 2.410 . S
O230 C219 1.251 . S
O231 Nd200 2.424 . S
O231 C219 1.268 . S
H232 C204 0.930 . S
H233 C205 0.929 . S
H234 C207 0.930 . S
H235 C208 0.929 . S
H236 C213 0.930 . S
H237 C214 0.929 . S
H238 C216 0.930 . S
H239 C217 0.929 . S
Nd240 C242 2.836 . S
Nd240 O260 2.500 . S
Nd240 O261 2.492 . S
Nd240 O262 2.487 . S
Nd240 O263 2.682 . S
Nd240 O264 2.410 . S
Nd240 O269 2.414 . S
Nd240 O271 2.424 . S
Nd241 C251 2.836 . S
Nd241 O263 2.414 . S
Nd241 O265 2.424 . S
Nd241 O266 2.500 . S
Nd241 O267 2.492 . S
Nd241 O268 2.487 . S
Nd241 O269 2.682 . S
Nd241 O270 2.410 . S
C242 Nd240 2.836 . S
C242 C243 1.498 . S
C242 O260 1.258 . S
C242 O261 1.239 . S
C243 C242 1.498 . S
C243 C244 1.366 . S
C243 C248 1.407 . S
C244 C243 1.366 . S
C244 C245 1.392 . S
C244 H272 0.930 . S
C245 C244 1.392 . S
C245 C246 1.398 . S
C245 H273 0.929 . S
C246 C245 1.398 . S
C246 C247 1.352 . S
C247 C246 1.352 . S
C247 C248 1.384 . S
C247 H274 0.930 . S
C248 C243 1.407 . S
C248 C247 1.384 . S
C248 H275 0.929 . S
C249 O262 1.241 . S
C249 O263 1.273 . S
C250 O264 1.251 . S
C250 O265 1.268 . S
C251 Nd241 2.836 . S
C251 C252 1.498 . S
C251 O266 1.258 . S
C251 O267 1.239 . S
C252 C251 1.498 . S
C252 C253 1.366 . S
C252 C257 1.407 . S
C253 C252 1.366 . S
C253 C254 1.392 . S
C253 H276 0.930 . S
C254 C253 1.392 . S
C254 C255 1.398 . S
C254 H277 0.929 . S
C255 C254 1.398 . S
C255 C256 1.352 . S
C256 C255 1.352 . S
C256 C257 1.384 . S
C256 H278 0.930 . S
C257 C252 1.407 . S
C257 C256 1.384 . S
C257 H279 0.929 . S
C258 O268 1.241 . S
C258 O269 1.273 . S
C259 O270 1.251 . S
C259 O271 1.268 . S
O260 Nd240 2.500 . S
O260 C242 1.258 . S
O261 Nd240 2.492 . S
O261 C242 1.239 . S
O262 Nd240 2.487 . S
O262 C249 1.241 . S
O263 Nd240 2.682 . S
O263 Nd241 2.414 . S
O263 C249 1.273 . S
O264 Nd240 2.410 . S
O264 C250 1.251 . S
O265 Nd241 2.424 . S
O265 C250 1.268 . S
O266 Nd241 2.500 . S
O266 C251 1.258 . S
O267 Nd241 2.492 . S
O267 C251 1.239 . S
O268 Nd241 2.487 . S
O268 C258 1.241 . S
O269 Nd240 2.414 . S
O269 Nd241 2.682 . S
O269 C258 1.273 . S
O270 Nd241 2.410 . S
O270 C259 1.251 . S
O271 Nd240 2.424 . S
O271 C259 1.268 . S
H272 C244 0.930 . S
H273 C245 0.929 . S
H274 C247 0.930 . S
H275 C248 0.929 . S
H276 C253 0.930 . S
H277 C254 0.929 . S
H278 C256 0.930 . S
H279 C257 0.929 . S
Nd280 C282 2.836 . S
Nd280 O300 2.500 . S
Nd280 O301 2.492 . S
Nd280 O302 2.487 . S
Nd280 O303 2.682 . S
Nd280 O304 2.410 . S
Nd280 O309 2.414 . S
Nd280 O311 2.424 . S
Nd281 C291 2.836 . S
Nd281 O303 2.414 . S
Nd281 O305 2.424 . S
Nd281 O306 2.500 . S
Nd281 O307 2.492 . S
Nd281 O308 2.487 . S
Nd281 O309 2.682 . S
Nd281 O310 2.410 . S
C282 Nd280 2.836 . S
C282 C283 1.498 . S
C282 O300 1.258 . S
C282 O301 1.239 . S
C283 C282 1.498 . S
C283 C284 1.366 . S
C283 C288 1.407 . S
C284 C283 1.366 . S
C284 C285 1.392 . S
C284 H312 0.930 . S
C285 C284 1.392 . S
C285 C286 1.398 . S
C285 H313 0.929 . S
C286 C285 1.398 . S
C286 C287 1.352 . S
C287 C286 1.352 . S
C287 C288 1.384 . S
C287 H314 0.930 . S
C288 C283 1.407 . S
C288 C287 1.384 . S
C288 H315 0.929 . S
C289 O302 1.241 . S
C289 O303 1.273 . S
C290 O304 1.251 . S
C290 O305 1.268 . S
C291 Nd281 2.836 . S
C291 C292 1.498 . S
C291 O306 1.258 . S
C291 O307 1.239 . S
C292 C291 1.498 . S
C292 C293 1.366 . S
C292 C297 1.407 1_455 S
C293 C292 1.366 . S
C293 C294 1.392 1_455 S
C293 H316 0.930 . S
C294 C293 1.392 1_655 S
C294 C295 1.398 . S
C294 H317 0.929 . S
C295 C294 1.398 . S
C295 C296 1.352 . S
C296 C295 1.352 . S
C296 C297 1.384 . S
C296 H318 0.930 . S
C297 C292 1.407 1_655 S
C297 C296 1.384 . S
C297 H319 0.929 . S
C298 O308 1.241 . S
C298 O309 1.273 . S
C299 O310 1.251 . S
C299 O311 1.268 . S
O300 Nd280 2.500 . S
O300 C282 1.258 . S
O301 Nd280 2.492 . S
O301 C282 1.239 . S
O302 Nd280 2.487 . S
O302 C289 1.241 . S
O303 Nd280 2.682 . S
O303 Nd281 2.414 . S
O303 C289 1.273 . S
O304 Nd280 2.410 . S
O304 C290 1.251 . S
O305 Nd281 2.424 . S
O305 C290 1.268 . S
O306 Nd281 2.500 . S
O306 C291 1.258 . S
O307 Nd281 2.492 . S
O307 C291 1.239 . S
O308 Nd281 2.487 . S
O308 C298 1.241 . S
O309 Nd280 2.414 . S
O309 Nd281 2.682 . S
O309 C298 1.273 . S
O310 Nd281 2.410 . S
O310 C299 1.251 . S
O311 Nd280 2.424 . S
O311 C299 1.268 . S
H312 C284 0.930 . S
H313 C285 0.929 . S
H314 C287 0.930 . S
H315 C288 0.929 . S
H316 C293 0.930 . S
H317 C294 0.929 . S
H318 C296 0.930 . S
H319 C297 0.929 . S
Nd320 C322 2.836 . S
Nd320 O340 2.500 . S
Nd320 O341 2.492 . S
Nd320 O342 2.487 . S
Nd320 O343 2.682 . S
Nd320 O344 2.410 . S
Nd320 O349 2.414 . S
Nd320 O351 2.424 . S
Nd321 C331 2.836 . S
Nd321 O343 2.414 . S
Nd321 O345 2.424 . S
Nd321 O346 2.500 . S
Nd321 O347 2.492 . S
Nd321 O348 2.487 . S
Nd321 O349 2.682 . S
Nd321 O350 2.410 . S
C322 Nd320 2.836 . S
C322 C323 1.498 . S
C322 O340 1.258 . S
C322 O341 1.239 . S
C323 C322 1.498 . S
C323 C324 1.366 . S
C323 C328 1.407 1_565 S
C324 C323 1.366 . S
C324 C325 1.392 1_565 S
C324 H352 0.930 . S
C325 C324 1.392 1_545 S
C325 C326 1.398 . S
C325 H353 0.929 . S
C326 C325 1.398 . S
C326 C327 1.352 . S
C327 C326 1.352 . S
C327 C328 1.384 . S
C327 H354 0.930 . S
C328 C323 1.407 1_545 S
C328 C327 1.384 . S
C328 H355 0.929 . S
C329 O342 1.241 . S
C329 O343 1.273 . S
C330 O344 1.251 . S
C330 O345 1.268 . S
C331 Nd321 2.836 . S
C331 C332 1.498 . S
C331 O346 1.258 . S
C331 O347 1.239 . S
C332 C331 1.498 . S
C332 C333 1.366 . S
C332 C337 1.407 . S
C333 C332 1.366 . S
C333 C334 1.392 . S
C333 H356 0.930 . S
C334 C333 1.392 . S
C334 C335 1.398 . S
C334 H357 0.929 . S
C335 C334 1.398 . S
C335 C336 1.352 . S
C336 C335 1.352 . S
C336 C337 1.384 . S
C336 H358 0.930 . S
C337 C332 1.407 . S
C337 C336 1.384 . S
C337 H359 0.929 . S
C338 O348 1.241 . S
C338 O349 1.273 . S
C339 O350 1.251 . S
C339 O351 1.268 . S
O340 Nd320 2.500 . S
O340 C322 1.258 . S
O341 Nd320 2.492 . S
O341 C322 1.239 . S
O342 Nd320 2.487 . S
O342 C329 1.241 . S
O343 Nd320 2.682 . S
O343 Nd321 2.414 . S
O343 C329 1.273 . S
O344 Nd320 2.410 . S
O344 C330 1.251 . S
O345 Nd321 2.424 . S
O345 C330 1.268 . S
O346 Nd321 2.500 . S
O346 C331 1.258 . S
O347 Nd321 2.492 . S
O347 C331 1.239 . S
O348 Nd321 2.487 . S
O348 C338 1.241 . S
O349 Nd320 2.414 . S
O349 Nd321 2.682 . S
O349 C338 1.273 . S
O350 Nd321 2.410 . S
O350 C339 1.251 . S
O351 Nd320 2.424 . S
O351 C339 1.268 . S
H352 C324 0.930 . S
H353 C325 0.929 . S
H354 C327 0.930 . S
H355 C328 0.929 . S
H356 C333 0.930 . S
H357 C334 0.929 . S
H358 C336 0.930 . S
H359 C337 0.929 . S
Nd360 C362 2.836 . S
Nd360 O380 2.500 . S
Nd360 O381 2.492 . S
Nd360 O382 2.487 . S
Nd360 O383 2.682 . S
Nd360 O384 2.410 . S
Nd360 O389 2.414 . S
Nd360 O391 2.424 . S
Nd361 C371 2.836 . S
Nd361 O383 2.414 . S
Nd361 O385 2.424 . S
Nd361 O386 2.500 . S
Nd361 O387 2.492 . S
Nd361 O388 2.487 . S
Nd361 O389 2.682 . S
Nd361 O390 2.410 . S
C362 Nd360 2.836 . S
C362 C363 1.498 . S
C362 O380 1.258 . S
C362 O381 1.239 . S
C363 C362 1.498 . S
C363 C364 1.366 . S
C363 C368 1.407 . S
C364 C363 1.366 . S
C364 C365 1.392 . S
C364 H392 0.930 . S
C365 C364 1.392 . S
C365 C366 1.398 . S
C365 H393 0.929 . S
C366 C365 1.398 . S
C366 C367 1.352 . S
C367 C366 1.352 . S
C367 C368 1.384 . S
C367 H394 0.930 . S
C368 C363 1.407 . S
C368 C367 1.384 . S
C368 H395 0.929 . S
C369 O382 1.241 . S
C369 O383 1.273 . S
C370 O384 1.251 . S
C370 O385 1.268 . S
C371 Nd361 2.836 . S
C371 C372 1.498 . S
C371 O386 1.258 . S
C371 O387 1.239 . S
C372 C371 1.498 . S
C372 C373 1.366 . S
C372 C377 1.407 . S
C373 C372 1.366 . S
C373 C374 1.392 . S
C373 H396 0.930 . S
C374 C373 1.392 . S
C374 C375 1.398 . S
C374 H397 0.929 . S
C375 C374 1.398 . S
C375 C376 1.352 . S
C376 C375 1.352 . S
C376 C377 1.384 . S
C376 H398 0.930 . S
C377 C372 1.407 . S
C377 C376 1.384 . S
C377 H399 0.929 . S
C378 O388 1.241 . S
C378 O389 1.273 . S
C379 O390 1.251 . S
C379 O391 1.268 . S
O380 Nd360 2.500 . S
O380 C362 1.258 . S
O381 Nd360 2.492 . S
O381 C362 1.239 . S
O382 Nd360 2.487 . S
O382 C369 1.241 . S
O383 Nd360 2.682 . S
O383 Nd361 2.414 . S
O383 C369 1.273 . S
O384 Nd360 2.410 . S
O384 C370 1.251 . S
O385 Nd361 2.424 . S
O385 C370 1.268 . S
O386 Nd361 2.500 . S
O386 C371 1.258 . S
O387 Nd361 2.492 . S
O387 C371 1.239 . S
O388 Nd361 2.487 . S
O388 C378 1.241 . S
O389 Nd360 2.414 . S
O389 Nd361 2.682 . S
O389 C378 1.273 . S
O390 Nd361 2.410 . S
O390 C379 1.251 . S
O391 Nd360 2.424 . S
O391 C379 1.268 . S
H392 C364 0.930 . S
H393 C365 0.929 . S
H394 C367 0.930 . S
H395 C368 0.929 . S
H396 C373 0.930 . S
H397 C374 0.929 . S
H398 C376 0.930 . S
H399 C377 0.929 . S
Nd400 C402 2.836 . S
Nd400 O420 2.500 . S
Nd400 O421 2.492 . S
Nd400 O422 2.487 . S
Nd400 O423 2.682 . S
Nd400 O424 2.410 . S
Nd400 O429 2.414 . S
Nd400 O431 2.424 . S
Nd401 C411 2.836 . S
Nd401 O423 2.414 . S
Nd401 O425 2.424 . S
Nd401 O426 2.500 . S
Nd401 O427 2.492 . S
Nd401 O428 2.487 . S
Nd401 O429 2.682 . S
Nd401 O430 2.410 . S
C402 Nd400 2.836 . S
C402 C403 1.498 . S
C402 O420 1.258 . S
C402 O421 1.239 . S
C403 C402 1.498 . S
C403 C404 1.366 . S
C403 C408 1.407 1_455 S
C404 C403 1.366 . S
C404 C405 1.392 1_455 S
C404 H432 0.930 . S
C405 C404 1.392 1_655 S
C405 C406 1.398 . S
C405 H433 0.929 . S
C406 C405 1.398 . S
C406 C407 1.352 . S
C407 C406 1.352 . S
C407 C408 1.384 . S
C407 H434 0.930 . S
C408 C403 1.407 1_655 S
C408 C407 1.384 . S
C408 H435 0.929 . S
C409 O422 1.241 . S
C409 O423 1.273 . S
C410 O424 1.251 . S
C410 O425 1.268 . S
C411 Nd401 2.836 . S
C411 C412 1.498 . S
C411 O426 1.258 . S
C411 O427 1.239 . S
C412 C411 1.498 . S
C412 C413 1.366 . S
C412 C417 1.407 . S
C413 C412 1.366 . S
C413 C414 1.392 . S
C413 H436 0.930 . S
C414 C413 1.392 . S
C414 C415 1.398 . S
C414 H437 0.929 . S
C415 C414 1.398 . S
C415 C416 1.352 . S
C416 C415 1.352 . S
C416 C417 1.384 . S
C416 H438 0.930 . S
C417 C412 1.407 . S
C417 C416 1.384 . S
C417 H439 0.929 . S
C418 O428 1.241 . S
C418 O429 1.273 . S
C419 O430 1.251 . S
C419 O431 1.268 . S
O420 Nd400 2.500 . S
O420 C402 1.258 . S
O421 Nd400 2.492 . S
O421 C402 1.239 . S
O422 Nd400 2.487 . S
O422 C409 1.241 . S
O423 Nd400 2.682 . S
O423 Nd401 2.414 . S
O423 C409 1.273 . S
O424 Nd400 2.410 . S
O424 C410 1.251 . S
O425 Nd401 2.424 . S
O425 C410 1.268 . S
O426 Nd401 2.500 . S
O426 C411 1.258 . S
O427 Nd401 2.492 . S
O427 C411 1.239 . S
O428 Nd401 2.487 . S
O428 C418 1.241 . S
O429 Nd400 2.414 . S
O429 Nd401 2.682 . S
O429 C418 1.273 . S
O430 Nd401 2.410 . S
O430 C419 1.251 . S
O431 Nd400 2.424 . S
O431 C419 1.268 . S
H432 C404 0.930 . S
H433 C405 0.929 . S
H434 C407 0.930 . S
H435 C408 0.929 . S
H436 C413 0.930 . S
H437 C414 0.929 . S
H438 C416 0.930 . S
H439 C417 0.929 . S
Nd440 C442 2.836 . S
Nd440 O460 2.500 . S
Nd440 O461 2.492 . S
Nd440 O462 2.487 . S
Nd440 O463 2.682 . S
Nd440 O464 2.410 . S
Nd440 O469 2.414 . S
Nd440 O471 2.424 . S
Nd441 C451 2.836 . S
Nd441 O463 2.414 . S
Nd441 O465 2.424 . S
Nd441 O466 2.500 . S
Nd441 O467 2.492 . S
Nd441 O468 2.487 . S
Nd441 O469 2.682 . S
Nd441 O470 2.410 . S
C442 Nd440 2.836 . S
C442 C443 1.498 . S
C442 O460 1.258 . S
C442 O461 1.239 . S
C443 C442 1.498 . S
C443 C444 1.366 . S
C443 C448 1.407 . S
C444 C443 1.366 . S
C444 C445 1.392 . S
C444 H472 0.930 . S
C445 C444 1.392 . S
C445 C446 1.398 . S
C445 H473 0.929 . S
C446 C445 1.398 . S
C446 C447 1.352 . S
C447 C446 1.352 . S
C447 C448 1.384 . S
C447 H474 0.930 . S
C448 C443 1.407 . S
C448 C447 1.384 . S
C448 H475 0.929 . S
C449 O462 1.241 . S
C449 O463 1.273 . S
C450 O464 1.251 . S
C450 O465 1.268 . S
C451 Nd441 2.836 . S
C451 C452 1.498 . S
C451 O466 1.258 . S
C451 O467 1.239 . S
C452 C451 1.498 . S
C452 C453 1.366 . S
C452 C457 1.407 1_565 S
C453 C452 1.366 . S
C453 C454 1.392 1_565 S
C453 H476 0.930 . S
C454 C453 1.392 1_545 S
C454 C455 1.398 . S
C454 H477 0.929 . S
C455 C454 1.398 . S
C455 C456 1.352 . S
C456 C455 1.352 . S
C456 C457 1.384 . S
C456 H478 0.930 . S
C457 C452 1.407 1_545 S
C457 C456 1.384 . S
C457 H479 0.929 . S
C458 O468 1.241 . S
C458 O469 1.273 . S
C459 O470 1.251 . S
C459 O471 1.268 . S
O460 Nd440 2.500 . S
O460 C442 1.258 . S
O461 Nd440 2.492 . S
O461 C442 1.239 . S
O462 Nd440 2.487 . S
O462 C449 1.241 . S
O463 Nd440 2.682 . S
O463 Nd441 2.414 . S
O463 C449 1.273 . S
O464 Nd440 2.410 . S
O464 C450 1.251 . S
O465 Nd441 2.424 . S
O465 C450 1.268 . S
O466 Nd441 2.500 . S
O466 C451 1.258 . S
O467 Nd441 2.492 . S
O467 C451 1.239 . S
O468 Nd441 2.487 . S
O468 C458 1.241 . S
O469 Nd440 2.414 . S
O469 Nd441 2.682 . S
O469 C458 1.273 . S
O470 Nd441 2.410 . S
O470 C459 1.251 . S
O471 Nd440 2.424 . S
O471 C459 1.268 . S
H472 C444 0.930 . S
H473 C445 0.929 . S
H474 C447 0.930 . S
H475 C448 0.929 . S
H476 C453 0.930 . S
H477 C454 0.929 . S
H478 C456 0.930 . S
H479 C457 0.929 . S
C480 C481 1.369 1_455 S
C480 C482 1.419 . S
C480 H484 0.930 . S
C481 C480 1.369 1_655 S
C481 C490 1.429 . S
C482 C480 1.419 . S
C482 C483 1.363 . S
C482 H485 0.929 . S
C483 C482 1.363 . S
C483 C489 1.428 1_455 S
H484 C480 0.930 . S
H485 C482 0.929 . S
S486 N487 1.613 . S
S486 N488 1.610 . S
N487 S486 1.613 . S
N487 C490 1.350 . S
N488 S486 1.610 . S
N488 C489 1.351 . S
C489 C483 1.428 1_655 S
C489 N488 1.351 . S
C489 C490 1.434 . S
C490 C481 1.429 . S
C490 N487 1.350 . S
C490 C489 1.434 . S
C491 C492 1.369 1_565 S
C491 C493 1.419 . S
C491 H495 0.930 . S
C492 C491 1.369 1_545 S
C492 C501 1.429 . S
C493 C491 1.419 . S
C493 C494 1.363 . S
C493 H496 0.929 . S
C494 C493 1.363 . S
C494 C500 1.428 1_565 S
H495 C491 0.930 . S
H496 C493 0.929 . S
S497 N498 1.613 . S
S497 N499 1.610 . S
N498 S497 1.613 . S
N498 C501 1.350 . S
N499 S497 1.610 . S
N499 C500 1.351 . S
C500 C494 1.428 1_545 S
C500 N499 1.351 . S
C500 C501 1.434 . S
C501 C492 1.429 . S
C501 N498 1.350 . S
C501 C500 1.434 . S
C502 C503 1.369 . S
C502 C504 1.419 . S
C502 H506 0.930 . S
C503 C502 1.369 . S
C503 C512 1.429 . S
C504 C502 1.419 . S
C504 C505 1.363 . S
C504 H507 0.929 . S
C505 C504 1.363 . S
C505 C511 1.428 . S
H506 C502 0.930 . S
H507 C504 0.929 . S
S508 N509 1.613 . S
S508 N510 1.610 . S
N509 S508 1.613 . S
N509 C512 1.350 . S
N510 S508 1.610 . S
N510 C511 1.351 . S
C511 C505 1.428 . S
C511 N510 1.351 . S
C511 C512 1.434 . S
C512 C503 1.429 . S
C512 N509 1.350 . S
C512 C511 1.434 . S
C513 C514 1.369 . S
C513 C515 1.419 . S
C513 H517 0.930 . S
C514 C513 1.369 . S
C514 C523 1.429 1_455 S
C515 C513 1.419 . S
C515 C516 1.363 1_455 S
C515 H518 0.929 . S
C516 C515 1.363 1_655 S
C516 C522 1.428 . S
H517 C513 0.930 . S
H518 C515 0.929 . S
S519 N520 1.613 . S
S519 N521 1.610 . S
N520 S519 1.613 . S
N520 C523 1.350 . S
N521 S519 1.610 . S
N521 C522 1.351 . S
C522 C516 1.428 . S
C522 N521 1.351 . S
C522 C523 1.434 . S
C523 C514 1.429 1_655 S
C523 N520 1.350 . S
C523 C522 1.434 . S
C524 C525 1.369 1_565 S
C524 C526 1.419 . S
C524 H528 0.930 . S
C525 C524 1.369 1_545 S
C525 C534 1.429 . S
C526 C524 1.419 . S
C526 C527 1.363 . S
C526 H529 0.929 . S
C527 C526 1.363 . S
C527 C533 1.428 1_565 S
H528 C524 0.930 . S
H529 C526 0.929 . S
S530 N531 1.613 . S
S530 N532 1.610 . S
N531 S530 1.613 . S
N531 C534 1.350 . S
N532 S530 1.610 . S
N532 C533 1.351 . S
C533 C527 1.428 1_545 S
C533 N532 1.351 . S
C533 C534 1.434 . S
C534 C525 1.429 . S
C534 N531 1.350 . S
C534 C533 1.434 . S
C535 C536 1.369 . S
C535 C537 1.419 . S
C535 H539 0.930 . S
C536 C535 1.369 . S
C536 C545 1.429 . S
C537 C535 1.419 . S
C537 C538 1.363 . S
C537 H540 0.929 . S
C538 C537 1.363 . S
C538 C544 1.428 . S
H539 C535 0.930 . S
H540 C537 0.929 . S
S541 N542 1.613 . S
S541 N543 1.610 . S
N542 S541 1.613 . S
N542 C545 1.350 . S
N543 S541 1.610 . S
N543 C544 1.351 . S
C544 C538 1.428 . S
C544 N543 1.351 . S
C544 C545 1.434 . S
C545 C536 1.429 . S
C545 N542 1.350 . S
C545 C544 1.434 . S
C546 C547 1.369 1_545 S
C546 C548 1.419 . S
C546 H550 0.930 . S
C547 C546 1.369 1_565 S
C547 C556 1.429 . S
C548 C546 1.419 . S
C548 C549 1.363 . S
C548 H551 0.929 . S
C549 C548 1.363 . S
C549 C555 1.428 1_545 S
H550 C546 0.930 . S
H551 C548 0.929 . S
S552 N553 1.613 . S
S552 N554 1.610 . S
N553 S552 1.613 . S
N553 C556 1.350 . S
N554 S552 1.610 . S
N554 C555 1.351 . S
C555 C549 1.428 1_565 S
C555 N554 1.351 . S
C555 C556 1.434 . S
C556 C547 1.429 . S
C556 N553 1.350 . S
C556 C555 1.434 . S
C557 C558 1.369 . S
C557 C559 1.419 . S
C557 H561 0.930 . S
C558 C557 1.369 . S
C558 C567 1.429 . S
C559 C557 1.419 . S
C559 C560 1.363 . S
C559 H562 0.929 . S
C560 C559 1.363 . S
C560 C566 1.428 . S
H561 C557 0.930 . S
H562 C559 0.929 . S
S563 N564 1.613 . S
S563 N565 1.610 . S
N564 S563 1.613 . S
N564 C567 1.350 . S
N565 S563 1.610 . S
N565 C566 1.351 . S
C566 C560 1.428 . S
C566 N565 1.351 . S
C566 C567 1.434 . S
C567 C558 1.429 . S
C567 N564 1.350 . S
C567 C566 1.434 . S
C568 C569 1.369 1_455 S
C568 C570 1.419 . S
C568 H572 0.930 . S
C569 C568 1.369 1_655 S
C569 C578 1.429 . S
C570 C568 1.419 . S
C570 C571 1.363 . S
C570 H573 0.929 . S
C571 C570 1.363 . S
C571 C577 1.428 1_455 S
H572 C568 0.930 . S
H573 C570 0.929 . S
S574 N575 1.613 . S
S574 N576 1.610 . S
N575 S574 1.613 . S
N575 C578 1.350 . S
N576 S574 1.610 . S
N576 C577 1.351 . S
C577 C571 1.428 1_655 S
C577 N576 1.351 . S
C577 C578 1.434 . S
C578 C569 1.429 . S
C578 N575 1.350 . S
C578 C577 1.434 . S
C579 C580 1.369 1_565 S
C579 C581 1.419 . S
C579 H583 0.930 . S
C580 C579 1.369 1_545 S
C580 C589 1.429 . S
C581 C579 1.419 . S
C581 C582 1.363 . S
C581 H584 0.929 . S
C582 C581 1.363 . S
C582 C588 1.428 1_565 S
H583 C579 0.930 . S
H584 C581 0.929 . S
S585 N586 1.613 . S
S585 N587 1.610 . S
N586 S585 1.613 . S
N586 C589 1.350 . S
N587 S585 1.610 . S
N587 C588 1.351 . S
C588 C582 1.428 1_545 S
C588 N587 1.351 . S
C588 C589 1.434 . S
C589 C580 1.429 . S
C589 N586 1.350 . S
C589 C588 1.434 . S
C590 C591 1.369 . S
C590 C592 1.419 . S
C590 H594 0.930 . S
C591 C590 1.369 . S
C591 C600 1.429 . S
C592 C590 1.419 . S
C592 C593 1.363 . S
C592 H595 0.929 . S
C593 C592 1.363 . S
C593 C599 1.428 . S
H594 C590 0.930 . S
H595 C592 0.929 . S
S596 N597 1.613 . S
S596 N598 1.610 . S
N597 S596 1.613 . S
N597 C600 1.350 . S
N598 S596 1.610 . S
N598 C599 1.351 . S
C599 C593 1.428 . S
C599 N598 1.351 . S
C599 C600 1.434 . S
C600 C591 1.429 . S
C600 N597 1.350 . S
C600 C599 1.434 . S
C601 C602 1.369 . S
C601 C603 1.419 . S
C601 H605 0.930 . S
C602 C601 1.369 . S
C602 C611 1.429 1_455 S
C603 C601 1.419 . S
C603 C604 1.363 1_455 S
C603 H606 0.929 . S
C604 C603 1.363 1_655 S
C604 C610 1.428 . S
H605 C601 0.930 . S
H606 C603 0.929 . S
S607 N608 1.613 . S
S607 N609 1.610 . S
N608 S607 1.613 . S
N608 C611 1.350 . S
N609 S607 1.610 . S
N609 C610 1.351 . S
C610 C604 1.428 . S
C610 N609 1.351 . S
C610 C611 1.434 . S
C611 C602 1.429 1_655 S
C611 N608 1.350 . S
C611 C610 1.434 . S
C612 C613 1.369 . S
C612 C614 1.419 . S
C612 H616 0.930 . S
C613 C612 1.369 . S
C613 C622 1.429 . S
C614 C612 1.419 . S
C614 C615 1.363 . S
C614 H617 0.929 . S
C615 C614 1.363 . S
C615 C621 1.428 . S
H616 C612 0.930 . S
H617 C614 0.929 . S
S618 N619 1.613 . S
S618 N620 1.610 . S
N619 S618 1.613 . S
N619 C622 1.350 . S
N620 S618 1.610 . S
N620 C621 1.351 . S
C621 C615 1.428 . S
C621 N620 1.351 . S
C621 C622 1.434 . S
C622 C613 1.429 . S
C622 N619 1.350 . S
C622 C621 1.434 . S
C623 C624 1.369 . S
C623 C625 1.419 . S
C623 H627 0.930 . S
C624 C623 1.369 . S
C624 C633 1.429 . S
C625 C623 1.419 . S
C625 C626 1.363 . S
C625 H628 0.929 . S
C626 C625 1.363 . S
C626 C632 1.428 . S
H627 C623 0.930 . S
H628 C625 0.929 . S
S629 N630 1.613 . S
S629 N631 1.610 . S
N630 S629 1.613 . S
N630 C633 1.350 . S
N631 S629 1.610 . S
N631 C632 1.351 . S
C632 C626 1.428 . S
C632 N631 1.351 . S
C632 C633 1.434 . S
C633 C624 1.429 . S
C633 N630 1.350 . S
C633 C632 1.434 . S
C634 C635 1.369 . S
C634 C636 1.419 . S
C634 H638 0.930 . S
C635 C634 1.369 . S
C635 C644 1.429 . S
C636 C634 1.419 . S
C636 C637 1.363 . S
C636 H639 0.929 . S
C637 C636 1.363 . S
C637 C643 1.428 . S
H638 C634 0.930 . S
H639 C636 0.929 . S
S640 N641 1.613 . S
S640 N642 1.610 . S
N641 S640 1.613 . S
N641 C644 1.350 . S
N642 S640 1.610 . S
N642 C643 1.351 . S
C643 C637 1.428 . S
C643 N642 1.351 . S
C643 C644 1.434 . S
C644 C635 1.429 . S
C644 N641 1.350 . S
C644 C643 1.434 . S
C645 C646 1.369 . S
C645 C647 1.419 . S
C645 H649 0.930 . S
C646 C645 1.369 . S
C646 C655 1.429 . S
C647 C645 1.419 . S
C647 C648 1.363 . S
C647 H650 0.929 . S
C648 C647 1.363 . S
C648 C654 1.428 . S
H649 C645 0.930 . S
H650 C647 0.929 . S
S651 N652 1.613 . S
S651 N653 1.610 . S
N652 S651 1.613 . S
N652 C655 1.350 . S
N653 S651 1.610 . S
N653 C654 1.351 . S
C654 C648 1.428 . S
C654 N653 1.351 . S
C654 C655 1.434 . S
C655 C646 1.429 . S
C655 N652 1.350 . S
C655 C654 1.434 . S
C656 C657 1.369 . S
C656 C658 1.419 . S
C656 H660 0.930 . S
C657 C656 1.369 . S
C657 C666 1.429 . S
C658 C656 1.419 . S
C658 C659 1.363 . S
C658 H661 0.929 . S
C659 C658 1.363 . S
C659 C665 1.428 . S
H660 C656 0.930 . S
H661 C658 0.929 . S
S662 N663 1.613 . S
S662 N664 1.610 . S
N663 S662 1.613 . S
N663 C666 1.350 . S
N664 S662 1.610 . S
N664 C665 1.351 . S
C665 C659 1.428 . S
C665 N664 1.351 . S
C665 C666 1.434 . S
C666 C657 1.429 . S
C666 N663 1.350 . S
C666 C665 1.434 . S
C667 C668 1.369 . S
C667 C669 1.419 . S
C667 H671 0.930 . S
C668 C667 1.369 . S
C668 C677 1.429 . S
C669 C667 1.419 . S
C669 C670 1.363 . S
C669 H672 0.929 . S
C670 C669 1.363 . S
C670 C676 1.428 . S
H671 C667 0.930 . S
H672 C669 0.929 . S
S673 N674 1.613 . S
S673 N675 1.610 . S
N674 S673 1.613 . S
N674 C677 1.350 . S
N675 S673 1.610 . S
N675 C676 1.351 . S
C676 C670 1.428 . S
C676 N675 1.351 . S
C676 C677 1.434 . S
C677 C668 1.429 . S
C677 N674 1.350 . S
C677 C676 1.434 . S
C678 C679 1.369 . S
C678 C680 1.419 1_565 S
C678 H682 0.930 . S
C679 C678 1.369 . S
C679 C688 1.429 1_556 S
C680 C678 1.419 1_545 S
C680 C681 1.363 1_556 S
C680 H683 0.929 . S
C681 C680 1.363 1_554 S
C681 C687 1.428 . S
H682 C678 0.930 . S
H683 C680 0.929 . S
S684 N685 1.613 . S
S684 N686 1.610 1_565 S
N685 S684 1.613 . S
N685 C688 1.350 . S
N686 S684 1.610 1_545 S
N686 C687 1.351 . S
C687 C681 1.428 . S
C687 N686 1.351 . S
C687 C688 1.434 1_545 S
C688 C679 1.429 1_554 S
C688 N685 1.350 . S
C688 C687 1.434 1_565 S
C689 C690 1.369 . S
C689 C691 1.419 . S
C689 H693 0.930 . S
C690 C689 1.369 . S
C690 C699 1.429 . S
C691 C689 1.419 . S
C691 C692 1.363 . S
C691 H694 0.929 . S
C692 C691 1.363 . S
C692 C698 1.428 . S
H693 C689 0.930 . S
H694 C691 0.929 . S
S695 N696 1.613 . S
S695 N697 1.610 . S
N696 S695 1.613 . S
N696 C699 1.350 . S
N697 S695 1.610 . S
N697 C698 1.351 . S
C698 C692 1.428 . S
C698 N697 1.351 . S
C698 C699 1.434 . S
C699 C690 1.429 . S
C699 N696 1.350 . S
C699 C698 1.434 . S
C700 C701 1.369 . S
C700 C702 1.419 1_455 S
C700 H704 0.930 . S
C701 C700 1.369 . S
C701 C710 1.429 1_556 S
C702 C700 1.419 1_655 S
C702 C703 1.363 1_556 S
C702 H705 0.929 . S
C703 C702 1.363 1_554 S
C703 C709 1.428 . S
H704 C700 0.930 . S
H705 C702 0.929 . S
S706 N707 1.613 . S
S706 N708 1.610 1_455 S
N707 S706 1.613 . S
N707 C710 1.350 . S
N708 S706 1.610 1_655 S
N708 C709 1.351 . S
C709 C703 1.428 . S
C709 N708 1.351 . S
C709 C710 1.434 1_655 S
C710 C701 1.429 1_554 S
C710 N707 1.350 . S
C710 C709 1.434 1_455 S
C711 C712 1.369 . S
C711 C713 1.419 1_545 S
C711 H715 0.930 . S
C712 C711 1.369 . S
C712 C721 1.429 . S
C713 C711 1.419 1_565 S
C713 C714 1.363 . S
C713 H716 0.929 . S
C714 C713 1.363 . S
C714 C720 1.428 . S
H715 C711 0.930 . S
H716 C713 0.929 . S
S717 N718 1.613 . S
S717 N719 1.610 1_545 S
N718 S717 1.613 . S
N718 C721 1.350 . S
N719 S717 1.610 1_565 S
N719 C720 1.351 . S
C720 C714 1.428 . S
C720 N719 1.351 . S
C720 C721 1.434 1_565 S
C721 C712 1.429 . S
C721 N718 1.350 . S
C721 C720 1.434 1_545 S
C722 C723 1.369 1_556 S
C722 C724 1.419 . S
C722 H726 0.930 . S
C723 C722 1.369 1_554 S
C723 C732 1.429 . S
C724 C722 1.419 . S
C724 C725 1.363 . S
C724 H727 0.929 . S
C725 C724 1.363 . S
C725 C731 1.428 1_556 S
H726 C722 0.930 . S
H727 C724 0.929 . S
S728 N729 1.613 . S
S728 N730 1.610 . S
N729 S728 1.613 . S
N729 C732 1.350 . S
N730 S728 1.610 . S
N730 C731 1.351 . S
C731 C725 1.428 1_554 S
C731 N730 1.351 . S
C731 C732 1.434 . S
C732 C723 1.429 . S
C732 N729 1.350 . S
C732 C731 1.434 . S
C733 C734 1.369 . S
C733 C735 1.419 1_455 S
C733 H737 0.930 . S
C734 C733 1.369 . S
C734 C743 1.429 . S
C735 C733 1.419 1_655 S
C735 C736 1.363 . S
C735 H738 0.929 . S
C736 C735 1.363 . S
C736 C742 1.428 . S
H737 C733 0.930 . S
H738 C735 0.929 . S
S739 N740 1.613 1_655 S
S739 N741 1.610 . S
N740 S739 1.613 1_455 S
N740 C743 1.350 . S
N741 S739 1.610 . S
N741 C742 1.351 . S
C742 C736 1.428 . S
C742 N741 1.351 . S
C742 C743 1.434 1_655 S
C743 C734 1.429 . S
C743 N740 1.350 . S
C743 C742 1.434 1_455 S
C744 C745 1.369 . S
C744 C746 1.419 . S
C744 H748 0.930 . S
C745 C744 1.369 . S
C745 C754 1.429 . S
C746 C744 1.419 . S
C746 C747 1.363 . S
C746 H749 0.929 . S
C747 C746 1.363 . S
C747 C753 1.428 . S
H748 C744 0.930 . S
H749 C746 0.929 . S
S750 N751 1.613 . S
S750 N752 1.610 . S
N751 S750 1.613 . S
N751 C754 1.350 . S
N752 S750 1.610 . S
N752 C753 1.351 . S
C753 C747 1.428 . S
C753 N752 1.351 . S
C753 C754 1.434 . S
C754 C745 1.429 . S
C754 N751 1.350 . S
C754 C753 1.434 . S
C755 C756 1.369 . S
C755 C757 1.419 . S
C755 H759 0.930 . S
C756 C755 1.369 . S
C756 C765 1.429 . S
C757 C755 1.419 . S
C757 C758 1.363 . S
C757 H760 0.929 . S
C758 C757 1.363 . S
C758 C764 1.428 . S
H759 C755 0.930 . S
H760 C757 0.929 . S
S761 N762 1.613 . S
S761 N763 1.610 . S
N762 S761 1.613 . S
N762 C765 1.350 . S
N763 S761 1.610 . S
N763 C764 1.351 . S
C764 C758 1.428 . S
C764 N763 1.351 . S
C764 C765 1.434 . S
C765 C756 1.429 . S
C765 N762 1.350 . S
C765 C764 1.434 . S
C766 C767 1.369 . S
C766 C768 1.419 . S
C766 H770 0.930 . S
C767 C766 1.369 . S
C767 C776 1.429 . S
C768 C766 1.419 . S
C768 C769 1.363 . S
C768 H771 0.929 . S
C769 C768 1.363 . S
C769 C775 1.428 . S
H770 C766 0.930 . S
H771 C768 0.929 . S
S772 N773 1.613 . S
S772 N774 1.610 . S
N773 S772 1.613 . S
N773 C776 1.350 . S
N774 S772 1.610 . S
N774 C775 1.351 . S
C775 C769 1.428 . S
C775 N774 1.351 . S
C775 C776 1.434 . S
C776 C767 1.429 . S
C776 N773 1.350 . S
C776 C775 1.434 . S
C777 C778 1.369 . S
C777 C779 1.419 . S
C777 H781 0.930 . S
C778 C777 1.369 . S
C778 C787 1.429 . S
C779 C777 1.419 . S
C779 C780 1.363 . S
C779 H782 0.929 . S
C780 C779 1.363 . S
C780 C786 1.428 . S
H781 C777 0.930 . S
H782 C779 0.929 . S
S783 N784 1.613 . S
S783 N785 1.610 . S
N784 S783 1.613 . S
N784 C787 1.350 . S
N785 S783 1.610 . S
N785 C786 1.351 . S
C786 C780 1.428 . S
C786 N785 1.351 . S
C786 C787 1.434 . S
C787 C778 1.429 . S
C787 N784 1.350 . S
C787 C786 1.434 . S
C788 C789 1.369 . S
C788 C790 1.419 . S
C788 H792 0.930 . S
C789 C788 1.369 . S
C789 C798 1.429 . S
C790 C788 1.419 . S
C790 C791 1.363 . S
C790 H793 0.929 . S
C791 C790 1.363 . S
C791 C797 1.428 . S
H792 C788 0.930 . S
H793 C790 0.929 . S
S794 N795 1.613 . S
S794 N796 1.610 . S
N795 S794 1.613 . S
N795 C798 1.350 . S
N796 S794 1.610 . S
N796 C797 1.351 . S
C797 C791 1.428 . S
C797 N796 1.351 . S
C797 C798 1.434 . S
C798 C789 1.429 . S
C798 N795 1.350 . S
C798 C797 1.434 . S
C799 C800 1.369 . S
C799 C801 1.419 . S
C799 H803 0.930 . S
C800 C799 1.369 . S
C800 C809 1.429 . S
C801 C799 1.419 . S
C801 C802 1.363 . S
C801 H804 0.929 . S
C802 C801 1.363 . S
C802 C808 1.428 . S
H803 C799 0.930 . S
H804 C801 0.929 . S
S805 N806 1.613 . S
S805 N807 1.610 . S
N806 S805 1.613 . S
N806 C809 1.350 . S
N807 S805 1.610 . S
N807 C808 1.351 . S
C808 C802 1.428 . S
C808 N807 1.351 . S
C808 C809 1.434 . S
C809 C800 1.429 . S
C809 N806 1.350 . S
C809 C808 1.434 . S
C810 C811 1.369 . S
C810 C812 1.419 . S
C810 H814 0.930 . S
C811 C810 1.369 . S
C811 C820 1.429 . S
C812 C810 1.419 . S
C812 C813 1.363 . S
C812 H815 0.929 . S
C813 C812 1.363 . S
C813 C819 1.428 . S
H814 C810 0.930 . S
H815 C812 0.929 . S
S816 N817 1.613 . S
S816 N818 1.610 . S
N817 S816 1.613 . S
N817 C820 1.350 . S
N818 S816 1.610 . S
N818 C819 1.351 . S
C819 C813 1.428 . S
C819 N818 1.351 . S
C819 C820 1.434 . S
C820 C811 1.429 . S
C820 N817 1.350 . S
C820 C819 1.434 . S
C821 C822 1.369 . S
C821 C823 1.419 . S
C821 H825 0.930 . S
C822 C821 1.369 . S
C822 C831 1.429 . S
C823 C821 1.419 . S
C823 C824 1.363 . S
C823 H826 0.929 . S
C824 C823 1.363 . S
C824 C830 1.428 . S
H825 C821 0.930 . S
H826 C823 0.929 . S
S827 N828 1.613 . S
S827 N829 1.610 . S
N828 S827 1.613 . S
N828 C831 1.350 . S
N829 S827 1.610 . S
N829 C830 1.351 . S
C830 C824 1.428 . S
C830 N829 1.351 . S
C830 C831 1.434 . S
C831 C822 1.429 . S
C831 N828 1.350 . S
C831 C830 1.434 . S
C832 C833 1.369 . S
C832 C834 1.419 . S
C832 H836 0.930 . S
C833 C832 1.369 . S
C833 C842 1.429 . S
C834 C832 1.419 . S
C834 C835 1.363 . S
C834 H837 0.929 . S
C835 C834 1.363 . S
C835 C841 1.428 . S
H836 C832 0.930 . S
H837 C834 0.929 . S
S838 N839 1.613 . S
S838 N840 1.610 . S
N839 S838 1.613 . S
N839 C842 1.350 . S
N840 S838 1.610 . S
N840 C841 1.351 . S
C841 C835 1.428 . S
C841 N840 1.351 . S
C841 C842 1.434 . S
C842 C833 1.429 . S
C842 N839 1.350 . S
C842 C841 1.434 . S
C843 C844 1.369 . S
C843 C845 1.419 . S
C843 H847 0.930 . S
C844 C843 1.369 . S
C844 C853 1.429 . S
C845 C843 1.419 . S
C845 C846 1.363 . S
C845 H848 0.929 . S
C846 C845 1.363 . S
C846 C852 1.428 . S
H847 C843 0.930 . S
H848 C845 0.929 . S
S849 N850 1.613 . S
S849 N851 1.610 . S
N850 S849 1.613 . S
N850 C853 1.350 . S
N851 S849 1.610 . S
N851 C852 1.351 . S
C852 C846 1.428 . S
C852 N851 1.351 . S
C852 C853 1.434 . S
C853 C844 1.429 . S
C853 N850 1.350 . S
C853 C852 1.434 . S
C854 C855 1.369 . S
C854 C856 1.419 . S
C854 H858 0.930 . S
C855 C854 1.369 . S
C855 C864 1.429 . S
C856 C854 1.419 . S
C856 C857 1.363 . S
C856 H859 0.929 . S
C857 C856 1.363 . S
C857 C863 1.428 . S
H858 C854 0.930 . S
H859 C856 0.929 . S
S860 N861 1.613 . S
S860 N862 1.610 . S
N861 S860 1.613 . S
N861 C864 1.350 . S
N862 S860 1.610 . S
N862 C863 1.351 . S
C863 C857 1.428 . S
C863 N862 1.351 . S
C863 C864 1.434 . S
C864 C855 1.429 . S
C864 N861 1.350 . S
C864 C863 1.434 . S
C865 C866 1.369 . S
C865 C867 1.419 . S
C865 H869 0.930 . S
C866 C865 1.369 . S
C866 C875 1.429 . S
C867 C865 1.419 . S
C867 C868 1.363 . S
C867 H870 0.929 . S
C868 C867 1.363 . S
C868 C874 1.428 . S
H869 C865 0.930 . S
H870 C867 0.929 . S
S871 N872 1.613 . S
S871 N873 1.610 . S
N872 S871 1.613 . S
N872 C875 1.350 . S
N873 S871 1.610 . S
N873 C874 1.351 . S
C874 C868 1.428 . S
C874 N873 1.351 . S
C874 C875 1.434 . S
C875 C866 1.429 . S
C875 N872 1.350 . S
C875 C874 1.434 . S
C481 C99 1.544 . S
C483 C15 1.478 . S
C492 C130 1.545 . S
C494 C46 1.478 . S
C503 C95 1.479 . S
C505 C179 1.545 . S
C514 C126 1.481 . S
C516 C210 1.544 . S
C525 C19 1.547 . S
C527 C175 1.475 . S
C536 C50 1.549 . S
C538 C206 1.471 . S
C547 C410 1.543 . S
C549 C246 1.480 . S
C558 C295 1.471 . S
C560 C459 1.548 . S
C569 C326 1.475 . S
C571 C250 1.547 . S
C580 C375 1.472 . S
C582 C299 1.548 . S
C591 C406 1.474 . S
C593 C330 1.547 . S
C602 C379 1.547 . S
C604 C455 1.474 . S
C613 C129 1.773 . S
C615 C18 1.773 . S
C624 C49 1.775 . S
C626 C178 1.774 . S
C635 C98 1.776 . S
C637 C209 1.775 . S
C646 C249 1.776 . S
C648 C378 1.775 . S
C657 C298 1.774 . S
C659 C409 1.774 . S
C668 C329 1.771 . S
C670 C458 1.771 . S
C679 C289 2.227 . S
C681 C9 2.218 . S
C690 C58 2.217 . S
C692 C338 2.225 . S
C701 C369 2.226 . S
C703 C89 2.220 . S
C712 C138 2.219 . S
C714 C418 2.219 . S
C723 C169 2.216 . S
C725 C449 2.223 . S
C734 C258 2.216 . S
C736 C218 2.225 . S
C745 C90 1.701 . S
C747 C6 1.715 . S
C756 C55 1.718 . S
C758 C139 1.700 . S
C767 C86 1.719 . S
C769 C170 1.697 . S
C778 C135 1.715 . S
C780 C219 1.699 . S
C789 C10 1.698 . S
C791 C166 1.716 . S
C800 C59 1.701 . S
C802 C215 1.715 . S
C811 C419 1.701 . S
C813 C255 1.715 . S
C822 C286 1.719 . S
C824 C450 1.699 . S
C833 C335 1.719 . S
C835 C259 1.697 . S
C844 C290 1.698 . S
C846 C366 1.716 . S
C855 C415 1.717 . S
C857 C339 1.697 . S
C866 C446 1.715 . S
C868 C370 1.701 . S
