# Generated by pormake.
# Topology eci, (8)-cn, num edge types: 1
# Building blocks:
#     Node 0, Type 0, BuildingBlock: AJUNOK_clean_sbu_0, # of connection points: 8
#     Node 1, Type 0, BuildingBlock: AJUNOK_clean_sbu_0, # of connection points: 8
#     Node 2, Type 0, BuildingBlock: AJUNOK_clean_sbu_0, # of connection points: 8
#     Node 3, Type 0, BuildingBlock: AJUNOK_clean_sbu_0, # of connection points: 8
#     Edge 4, Type (0, 0), BuildingBlock: KIFKEQ_clean_linker_1, # of connection points: 2
#     Edge 5, Type (0, 0), BuildingBlock: KIFKEQ_clean_linker_1, # of connection points: 2
#     Edge 6, Type (0, 0), BuildingBlock: KIFKEQ_clean_linker_1, # of connection points: 2
#     Edge 7, Type (0, 0), BuildingBlock: KIFKEQ_clean_linker_1, # of connection points: 2
#     Edge 8, Type (0, 0), BuildingBlock: KIFKEQ_clean_linker_1, # of connection points: 2
#     Edge 9, Type (0, 0), BuildingBlock: KIFKEQ_clean_linker_1, # of connection points: 2
#     Edge 10, Type (0, 0), BuildingBlock: KIFKEQ_clean_linker_1, # of connection points: 2
#     Edge 11, Type (0, 0), BuildingBlock: KIFKEQ_clean_linker_1, # of connection points: 2
#     Edge 12, Type (0, 0), BuildingBlock: KIFKEQ_clean_linker_1, # of connection points: 2
#     Edge 13, Type (0, 0), BuildingBlock: KIFKEQ_clean_linker_1, # of connection points: 2
#     Edge 14, Type (0, 0), BuildingBlock: KIFKEQ_clean_linker_1, # of connection points: 2
#     Edge 15, Type (0, 0), BuildingBlock: KIFKEQ_clean_linker_1, # of connection points: 2
#     Edge 16, Type (0, 0), BuildingBlock: KIFKEQ_clean_linker_1, # of connection points: 2
#     Edge 17, Type (0, 0), BuildingBlock: KIFKEQ_clean_linker_1, # of connection points: 2
#     Edge 18, Type (0, 0), BuildingBlock: KIFKEQ_clean_linker_1, # of connection points: 2
#     Edge 19, Type (0, 0), BuildingBlock: KIFKEQ_clean_linker_1, # of connection points: 2
# Relax obj value: 0.365
# Max RMSD: 0.286
# Mean RMSD: 0.286
data_MOF--net-eci--node1-AJUNOK_clean_sbu_0--edge1-KIFKEQ_clean_linker_1
_symmetry_space_group_name_H-M    P1
_symmetry_Int_Tables_number       1
_symmetry_cell_setting            triclinic
loop_
_symmetry_equiv_pos_as_xyz
'x, y, z'
_cell_length_a     34.192865
_cell_length_b     33.973922
_cell_length_c     19.138765
_cell_angle_alpha  90.545967
_cell_angle_beta   90.076322
_cell_angle_gamma 90.240696
loop_
_atom_site_label
_atom_site_type_symbol
_atom_site_fract_x
_atom_site_fract_y
_atom_site_fract_z
_atom_type_partial_charge
Cd0 Cd 0.82376 0.80002 0.06495 0.0
Cd1 Cd 0.79618 0.81884 0.8625 0.0
C2 C 0.83495 0.70806 0.06827 0.0
N3 N 0.80464 0.73367 0.0631 0.0
C4 C 0.7587 0.68039 0.06867 0.0
C5 C 0.78967 0.65335 0.07368 0.0
C6 C 0.82815 0.66772 0.07269 0.0
C7 C 0.76692 0.72076 0.06307 0.0
H8 H 0.86462 0.71908 0.07095 0.0
H9 H 0.74329 0.74178 0.06039 0.0
C10 C 0.77305 0.87452 0.00575 0.0
C11 C 0.83369 0.9038 0.83227 0.0
C12 C 0.8613 0.93318 0.81986 0.0
C13 C 0.90107 0.92361 0.81999 0.0
C14 C 0.91241 0.885 0.83412 0.0
C15 C 0.88386 0.85673 0.84749 0.0
N16 N 0.84527 0.86641 0.84638 0.0
H17 H 0.80289 0.91077 0.82996 0.0
H18 H 0.89284 0.8271 0.85719 0.0
C19 C 0.70768 0.82313 0.91205 0.0
N20 N 0.73637 0.79572 0.90561 0.0
C21 C 0.68872 0.74391 0.90445 0.0
C22 C 0.65845 0.77184 0.90729 0.0
C23 C 0.66848 0.81176 0.91434 0.0
C24 C 0.72779 0.7566 0.90365 0.0
H25 H 0.71483 0.85406 0.90893 0.0
H26 H 0.75099 0.73548 0.89556 0.0
C27 C 0.87332 0.76091 0.91576 0.0
C28 C 0.81866 0.81076 0.21116 0.0
N29 N 0.88037 0.83781 0.05575 0.0
C30 C 0.91341 0.82178 0.08257 0.0
C31 C 0.94749 0.84418 0.08839 0.0
C32 C 0.94737 0.88375 0.0677 0.0
C33 C 0.91339 0.89889 0.03662 0.0
C34 C 0.87996 0.87525 0.03132 0.0
C35 C 0.77107 0.81912 0.72158 0.0
O36 O 0.76774 0.84291 0.03922 0.0
O37 O 0.78653 0.87286 0.94432 0.0
O38 O 0.84752 0.76895 0.87035 0.0
O39 O 0.86955 0.77235 -0.02127 0.0
O40 O 0.80266 0.83352 0.16792 0.0
O41 O 0.83906 0.78274 0.18633 0.0
O42 O 0.78467 0.78858 0.75003 0.0
O43 O 0.76815 0.84974 0.75946 0.0
H44 H 0.91283 0.79191 0.10165 0.0
H45 H 0.85334 0.88744 0.01061 0.0
H46 H 0.72858 0.67044 0.0696 0.0
H47 H 0.85281 0.64806 0.07808 0.0
H48 H 0.85168 0.96273 0.80801 0.0
H49 H 0.94299 0.87676 0.83419 0.0
H50 H 0.6822 0.71282 0.89868 0.0
H51 H 0.6462 0.83433 0.91492 0.0
H52 H 0.97323 0.83105 0.11133 0.0
H53 H 0.91185 0.92928 0.02034 0.0
Cd54 Cd 0.70191 0.31822 0.33673 0.0
Cd55 Cd 0.68546 0.29212 0.13609 0.0
C56 C 0.79349 0.32641 0.34839 0.0
N57 N 0.76647 0.29708 0.34303 0.0
C58 C 0.81629 0.24841 0.35542 0.0
C59 C 0.84479 0.27829 0.36008 0.0
C60 C 0.83294 0.31765 0.35613 0.0
C61 C 0.77691 0.25856 0.34665 0.0
H62 H 0.78429 0.35681 0.34827 0.0
H63 H 0.75467 0.23585 0.34383 0.0
C64 C 0.6341 0.25696 0.27724 0.0
C65 C 0.5995 0.32893 0.12381 0.0
C66 C 0.56947 0.35625 0.11696 0.0
C67 C 0.57806 0.39657 0.12162 0.0
C68 C 0.61663 0.40838 0.13582 0.0
C69 C 0.64573 0.38004 0.14266 0.0
N70 N 0.63688 0.34107 0.13625 0.0
H71 H 0.59307 0.29795 0.11694 0.0
H72 H 0.67534 0.38953 0.15116 0.0
C73 C 0.68021 0.20164 0.16168 0.0
N74 N 0.70768 0.23022 0.17131 0.0
C75 C 0.75673 0.18145 0.19127 0.0
C76 C 0.72891 0.15131 0.1796 0.0
C77 C 0.69004 0.16207 0.16657 0.0
C78 C 0.74541 0.22105 0.18661 0.0
H79 H 0.6509 0.20952 0.14603 0.0
H80 H 0.76705 0.24424 0.19146 0.0
C81 C 0.74482 0.36804 0.19061 0.0
C82 C 0.68829 0.32316 0.48162 0.0
N83 N 0.65921 0.37012 0.31756 0.0
C84 C 0.67368 0.40722 0.32533 0.0
C85 C 0.64867 0.43932 0.32707 0.0
C86 C 0.60803 0.43321 0.32531 0.0
C87 C 0.59383 0.39465 0.31518 0.0
C88 C 0.62014 0.36334 0.31143 0.0
C89 C 0.68132 0.27381 -0.00804 0.0
O90 O 0.66434 0.25758 0.31558 0.0
O91 O 0.63503 0.27197 0.21704 0.0
O92 O 0.73582 0.34344 0.14298 0.0
O93 O 0.73329 0.36277 0.25279 0.0
O94 O 0.66702 0.30336 0.44016 0.0
O95 O 0.71676 0.34207 0.45533 0.0
O96 O 0.71341 0.28194 0.02188 0.0
O97 O 0.65108 0.27259 0.02994 0.0
H98 H 0.70456 0.41186 0.33411 0.0
H99 H 0.60921 0.33354 0.30795 0.0
H100 H 0.82436 0.21768 0.35862 0.0
H101 H 0.85387 0.34154 0.36124 0.0
H102 H 0.54024 0.34593 0.10454 0.0
H103 H 0.62441 0.43926 0.13997 0.0
H104 H 0.7871 0.1745 0.20117 0.0
H105 H 0.66779 0.14015 0.15519 0.0
H106 H 0.66112 0.46848 0.3336 0.0
H107 H 0.56278 0.38831 0.31454 0.0
Cd108 Cd 0.20985 0.1924 0.38835 0.0
Cd109 Cd 0.20139 0.22581 0.60115 0.0
C110 C 0.29948 0.17558 0.4359 0.0
N111 N 0.27452 0.20568 0.42223 0.0
C112 C 0.32816 0.25078 0.41447 0.0
C113 C 0.35473 0.21995 0.42536 0.0
C114 C 0.3398 0.18219 0.4386 0.0
C115 C 0.28811 0.2428 0.4119 0.0
H116 H 0.28865 0.14577 0.43916 0.0
H117 H 0.26809 0.26572 0.39688 0.0
C118 C 0.12885 0.23959 0.48203 0.0
C119 C 0.13504 0.18575 0.69278 0.0
C120 C 0.10628 0.15941 0.71406 0.0
C121 C 0.09315 0.12986 0.66778 0.0
C122 C 0.10842 0.12883 0.59956 0.0
C123 C 0.13665 0.15636 0.58006 0.0
N124 N 0.14987 0.18358 0.62708 0.0
H125 H 0.1459 0.20757 0.72931 0.0
H126 H 0.14853 0.15552 0.52781 0.0
C127 C 0.21502 0.29717 0.4889 0.0
N128 N 0.23334 0.27452 0.53712 0.0
C129 C 0.27935 0.32593 0.56122 0.0
C130 C 0.25855 0.3515 0.5174 0.0
C131 C 0.2277 0.33568 0.47719 0.0
C132 C 0.26622 0.28738 0.57011 0.0
H133 H 0.18887 0.28697 0.46328 0.0
H134 H 0.27969 0.26922 0.60941 0.0
C135 C 0.22808 0.13265 0.53591 0.0
C136 C 0.22515 0.22475 0.25369 0.0
N137 N 0.17809 0.13989 0.33425 0.0
C138 C 0.19781 0.10838 0.30811 0.0
C139 C 0.1778 0.07907 0.27053 0.0
C140 C 0.13723 0.08241 0.25994 0.0
C141 C 0.11773 0.11501 0.2889 0.0
C142 C 0.13884 0.14356 0.3258 0.0
C143 C 0.21964 0.25305 0.741 0.0
O144 O 0.1513 0.22332 0.43755 0.0
O145 O 0.14036 0.24574 0.54442 0.0
O146 O 0.23124 0.16023 0.58123 0.0
O147 O 0.21821 0.13934 0.47294 0.0
O148 O 0.20662 0.24476 0.29947 0.0
O149 O 0.23626 0.19059 0.2713 0.0
O150 O 0.2409 0.22848 0.70862 0.0
O151 O 0.1901 0.26578 0.70821 0.0
H152 H 0.22913 0.10648 0.31521 0.0
H153 H 0.124 0.16902 0.34698 0.0
H154 H 0.33828 0.2804 0.40412 0.0
H155 H 0.35909 0.15731 0.44537 0.0
H156 H 0.09475 0.1621 0.76652 0.0
H157 H 0.09955 0.10643 0.56213 0.0
H158 H 0.30311 0.33638 0.59395 0.0
H159 H 0.2115 0.35371 0.44099 0.0
H160 H 0.19404 0.05457 0.24877 0.0
H161 H 0.0864 0.11842 0.2834 0.0
Cd162 Cd 0.31757 0.72788 0.60186 0.0
Cd163 Cd 0.30118 0.69321 0.8209 0.0
C164 C 0.30029 0.80086 0.70906 0.0
N165 N 0.2821 0.77345 0.66788 0.0
C166 C 0.2297 0.8177 0.64519 0.0
C167 C 0.25038 0.84802 0.67957 0.0
C168 C 0.28452 0.83854 0.71634 0.0
C169 C 0.2463 0.78036 0.63977 0.0
H170 H 0.32915 0.79563 0.72925 0.0
H171 H 0.23303 0.75849 0.6057 0.0
C172 C 0.28739 0.63355 0.67186 0.0
C173 C 0.31716 0.61744 0.92038 0.0
C174 C 0.33937 0.58768 0.95095 0.0
C175 C 0.37841 0.58232 0.93016 0.0
C176 C 0.39409 0.60708 0.87882 0.0
C177 C 0.37098 0.63632 0.84994 0.0
N178 N 0.33346 0.64108 0.8713 0.0
H179 H 0.28713 0.62189 0.93615 0.0
H180 H 0.38307 0.65567 0.81092 0.0
C181 C 0.21241 0.67018 0.78209 0.0
N182 N 0.23543 0.70276 0.78914 0.0
C183 C 0.17877 0.74401 0.79186 0.0
C184 C 0.15436 0.71061 0.78766 0.0
C185 C 0.17181 0.6735 0.78013 0.0
C186 C 0.21948 0.73934 0.79312 0.0
H187 H 0.22518 0.64118 0.78293 0.0
H188 H 0.23821 0.76464 0.80193 0.0
C189 C 0.38323 0.74003 0.7246 0.0
C190 C 0.29417 0.75204 0.46405 0.0
N191 N 0.37069 0.69043 0.5662 0.0
C192 C 0.38692 0.69848 0.50313 0.0
C193 C 0.41458 0.67318 0.47416 0.0
C194 C 0.42508 0.63907 0.51014 0.0
C195 C 0.40907 0.63221 0.5764 0.0
C196 C 0.38196 0.65869 0.60397 0.0
C197 C 0.28928 0.73234 0.95152 0.0
O198 O 0.29291 0.66122 0.62847 0.0
O199 O 0.2921 0.63881 0.7373 0.0
O200 O 0.35522 0.72402 0.75761 0.0
O201 O 0.37785 0.74919 0.66112 0.0
O202 O 0.27854 0.72307 0.49483 0.0
O203 O 0.32032 0.7708 0.49793 0.0
O204 O 0.31368 0.74601 0.90765 0.0
O205 O 0.27112 0.70102 0.93435 0.0
H206 H 0.37743 0.72379 0.47406 0.0
H207 H 0.36898 0.65322 0.65444 0.0
H208 H 0.20312 0.82387 0.61654 0.0
H209 H 0.30144 0.86115 0.74302 0.0
H210 H 0.32615 0.56903 -0.00998 0.0
H211 H 0.42422 0.60446 0.86211 0.0
H212 H 0.16661 0.77315 0.7989 0.0
H213 H 0.15419 0.64699 0.77636 0.0
H214 H 0.42633 0.67929 0.42284 0.0
H215 H 0.41699 0.60639 0.60595 0.0
H216 H 0.84387 0.76399 0.31717 0.0
H217 H 0.77428 0.86696 0.27411 0.0
H218 H 0.82416 0.76753 0.43942 0.0
H219 H 0.75375 0.86979 0.39573 0.0
H220 H 0.77148 0.88352 0.63826 0.0
H221 H 0.77989 0.88316 0.51182 0.0
H222 H 0.76485 0.75675 0.50783 0.0
H223 H 0.75772 0.75705 0.63451 0.0
C224 C 0.82452 0.7874 0.33389 0.0
C225 C 0.81046 0.81501 0.28619 0.0
C226 C 0.81279 0.78915 0.40356 0.0
C227 C 0.78673 0.81846 0.42664 0.0
C228 C 0.77374 0.84685 0.37936 0.0
C229 C 0.78555 0.84518 0.30978 0.0
C230 C 0.76891 0.85583 0.61004 0.0
C231 C 0.7649 0.82019 0.64586 0.0
C232 C 0.77378 0.8556 0.5377 0.0
C233 C 0.77425 0.81975 0.50045 0.0
C234 C 0.76598 0.78463 0.5357 0.0
C235 C 0.76154 0.78482 0.60796 0.0
H236 H 0.73489 0.35223 0.58607 0.0
H237 H 0.62795 0.2871 0.54742 0.0
H238 H 0.73014 0.33686 0.71005 0.0
H239 H 0.62389 0.27085 0.67058 0.0
H240 H 0.6162 0.28316 0.91239 0.0
H241 H 0.61471 0.29744 0.78787 0.0
H242 H 0.73898 0.2756 0.77517 0.0
H243 H 0.74066 0.26249 0.90003 0.0
C244 C 0.71019 0.33508 0.6042 0.0
C245 C 0.6822 0.32029 0.55721 0.0
C246 C 0.7077 0.32588 0.67484 0.0
C247 C 0.67722 0.30176 0.69933 0.0
C248 C 0.6478 0.28927 0.65303 0.0
C249 C 0.65023 0.29854 0.58254 0.0
C250 C 0.64299 0.28055 0.88258 0.0
C251 C 0.67867 0.2724 0.91565 0.0
C252 C 0.64216 0.28888 0.81145 0.0
C253 C 0.67696 0.28876 0.77256 0.0
C254 C 0.71199 0.27724 0.80463 0.0
C255 C 0.71288 0.26927 0.87573 0.0
H256 H 0.28741 0.24472 0.81473 0.0
H257 H 0.16786 0.28328 0.83571 0.0
H258 H 0.29575 0.24922 0.94118 0.0
H259 H 0.17555 0.2863 0.96227 0.0
H260 H 0.19831 0.29272 0.19298 0.0
H261 H 0.20359 0.31116 0.06983 0.0
H262 H 0.27203 0.20674 0.02936 0.0
H263 H 0.26749 0.18908 0.15127 0.0
C264 C 0.26305 0.25463 0.84638 0.0
C265 C 0.22676 0.26287 0.8155 0.0
C266 C 0.26774 0.25707 0.9189 0.0
C267 C 0.23603 0.26714 0.96233 0.0
C268 C 0.20067 0.27851 0.93076 0.0
C269 C 0.19615 0.27657 0.85806 0.0
C270 C 0.215 0.27414 0.15779 0.0
C271 C 0.23196 0.23911 0.18171 0.0
C272 C 0.21791 0.28461 0.08719 0.0
C273 C 0.23798 0.26033 0.03923 0.0
C274 C 0.25673 0.22653 0.06447 0.0
C275 C 0.25377 0.2161 0.13461 0.0
H276 H 0.34352 0.77063 0.03223 0.0
H277 H 0.22288 0.73308 0.02912 0.0
H278 H 0.33831 0.78578 0.15668 0.0
H279 H 0.21667 0.75034 0.15251 0.0
H280 H 0.24488 0.71165 0.37736 0.0
H281 H 0.23821 0.71808 0.25216 0.0
H282 H 0.31507 0.8195 0.25688 0.0
H283 H 0.32289 0.81191 0.38305 0.0
C284 C 0.31552 0.76689 0.05781 0.0
C285 C 0.28388 0.74986 0.02171 0.0
C286 C 0.31237 0.77576 0.12922 0.0
C287 C 0.27727 0.76838 0.16553 0.0
C288 C 0.24455 0.75512 0.12712 0.0
C289 C 0.24798 0.74544 0.05628 0.0
C290 C 0.25991 0.73573 0.35202 0.0
C291 C 0.285 0.76079 0.39006 0.0
C292 C 0.25582 0.73971 0.27985 0.0
C293 C 0.27645 0.76911 0.24363 0.0
C294 C 0.29941 0.79597 0.28259 0.0
C295 C 0.30373 0.79178 0.35502 0.0
H296 H 0.40393 0.7322 0.86282 0.0
H297 H 0.4519 0.75739 0.65926 0.0
H298 H 0.46981 0.73617 0.91344 0.0
H299 H 0.51725 0.76108 0.70966 0.0
H300 H 0.63201 0.72311 0.80351 0.0
H301 H 0.56472 0.71379 0.76403 0.0
H302 H 0.52399 0.78775 0.93326 0.0
H303 H 0.59158 0.79696 0.97319 0.0
C304 C 0.42842 0.73881 0.82898 0.0
C305 C 0.42256 0.74467 0.757 0.0
C306 C 0.46611 0.74108 0.858 0.0
C307 C 0.49877 0.74858 0.81544 0.0
C308 C 0.49279 0.75469 0.74369 0.0
C309 C 0.45521 0.75295 0.71493 0.0
C310 C 0.60867 0.73654 0.83348 0.0
C311 C 0.61716 0.76072 0.8916 0.0
C312 C 0.57014 0.73161 0.8103 0.0
C313 C 0.53907 0.75042 0.84502 0.0
C314 C 0.54727 0.77283 0.90547 0.0
C315 C 0.58595 0.77817 0.92821 0.0
H316 H 0.79348 0.12166 0.11366 0.0
H317 H 0.68974 0.08551 0.22487 0.0
H318 H 0.80567 0.05351 0.08025 0.0
H319 H 0.70107 0.01737 0.18887 0.0
H320 H 0.74879 0.89236 0.14025 0.0
H321 H 0.74195 0.95795 0.19336 0.0
H322 H 0.77348 0.01073 -0.00322 0.0
H323 H 0.78102 0.94607 0.94468 0.0
C324 C 0.77372 0.09912 0.13237 0.0
C325 C 0.74041 0.10922 0.17142 0.0
C326 C 0.78037 0.06002 0.11227 0.0
C327 C 0.75386 0.03 0.13051 0.0
C328 C 0.72205 0.03967 0.17373 0.0
C329 C 0.71541 0.07882 0.19395 0.0
C330 C 0.75418 0.91801 0.10847 0.0
C331 C 0.76564 0.91377 0.03818 0.0
C332 C 0.75023 0.9556 0.13888 0.0
C333 C 0.7578 0.98969 0.09969 0.0
C334 C 0.76843 0.98525 0.02918 0.0
C335 C 0.77233 0.94796 -0.00102 0.0
H336 H 0.38869 0.26404 0.32382 0.0
H337 H 0.41723 0.18807 0.49627 0.0
H338 H 0.45732 0.26914 0.29431 0.0
H339 H 0.48658 0.19197 0.46445 0.0
H340 H 0.61115 0.24783 0.41423 0.0
H341 H 0.54418 0.23776 0.4562 0.0
H342 H 0.5044 0.22428 0.24298 0.0
H343 H 0.57051 0.23526 0.20133 0.0
C344 C 0.40964 0.24887 0.35626 0.0
C345 C 0.39731 0.22577 0.41269 0.0
C346 C 0.44906 0.25123 0.33848 0.0
C347 C 0.47738 0.23034 0.37618 0.0
C348 C 0.46544 0.20832 0.43427 0.0
C349 C 0.42574 0.20592 0.4522 0.0
C350 C 0.58817 0.24203 0.37652 0.0
C351 C 0.59601 0.24299 0.30438 0.0
C352 C 0.54983 0.23628 0.40057 0.0
C353 C 0.51884 0.23122 0.35281 0.0
C354 C 0.52739 0.2293 0.28107 0.0
C355 C 0.56539 0.23528 0.25719 0.0
H356 H 0.23883 0.87859 0.55165 0.0
H357 H 0.24592 0.91172 0.76949 0.0
H358 H 0.23384 0.94695 0.51955 0.0
H359 H 0.23883 0.98109 0.73779 0.0
H360 H 0.26806 0.10343 0.64879 0.0
H361 H 0.27102 0.03502 0.68694 0.0
H362 H 0.19429 1.00112 0.51661 0.0
H363 H 0.19354 0.06849 0.4766 0.0
C364 C 0.23797 0.90058 0.593 0.0
C365 C 0.24196 0.88972 0.66322 0.0
C366 C 0.23511 0.94003 0.57458 0.0
C367 C 0.2355 0.96996 0.62591 0.0
C368 C 0.23887 0.95903 0.6966 0.0
C369 C 0.24246 0.91931 0.71499 0.0
C370 C 0.25228 0.08113 0.61921 0.0
C371 C 0.23131 0.09124 0.5588 0.0
C372 C 0.25353 0.04194 0.64153 0.0
C373 C 0.23317 0.01213 0.60468 0.0
C374 C 0.21138 0.02275 0.54534 0.0
C375 C 0.21086 0.06158 0.52229 0.0
H376 H 0.93272 0.73271 -0.0032 0.0
H377 H 0.90143 0.75471 0.78188 0.0
H378 H 0.99931 0.71746 0.96058 0.0
H379 H 0.96819 0.73941 0.74581 0.0
H380 H 0.10323 0.76519 0.7348 0.0
H381 H 0.03354 0.77223 0.76147 0.0
H382 H 0.03898 0.66999 0.89336 0.0
H383 H 0.10839 0.66348 0.86817 0.0
C384 C 0.9398 0.73355 0.94168 0.0
C385 C 0.91162 0.74494 0.8924 0.0
C386 C 0.97802 0.72478 0.92087 0.0
C387 C 0.98915 0.72754 0.85034 0.0
C388 C 0.96065 0.73748 0.80063 0.0
C389 C 0.92226 0.7458 0.82132 0.0
C390 C 0.08945 0.74418 0.76924 0.0
C391 C 0.1114 0.71374 0.79913 0.0
C392 C 0.04948 0.74797 0.78404 0.0
C393 C 0.03072 0.72167 0.82967 0.0
C394 C 0.05257 0.69089 0.85846 0.0
C395 C 0.09232 0.68695 0.84335 0.0
H396 H 0.76619 0.42904 0.27735 0.0
H397 H 0.75704 0.39717 0.05875 0.0
H398 H 0.77693 0.4975 0.24549 0.0
H399 H 0.76838 0.46577 0.02715 0.0
H400 H 0.82445 0.59136 0.00643 0.0
H401 H 0.81805 0.52125 0.0328 0.0
H402 H 0.73315 0.54888 0.19248 0.0
H403 H 0.73967 0.61893 0.16625 0.0
C404 C 0.76704 0.43643 0.22248 0.0
C405 C 0.76025 0.40746 0.1708 0.0
C406 C 0.77293 0.47578 0.20427 0.0
C407 C 0.77273 0.48717 0.13387 0.0
C408 C 0.7686 0.45793 0.08188 0.0
C409 C 0.7623 0.41853 0.1001 0.0
C410 C 0.80421 0.58235 0.04681 0.0
C411 C 0.78255 0.61062 0.08432 0.0
C412 C 0.80049 0.54224 0.06175 0.0
C413 C 0.77546 0.52957 0.11527 0.0
C414 C 0.75314 0.55779 0.15165 0.0
C415 C 0.75647 0.59784 0.13608 0.0
H416 H 0.87587 0.22876 0.45691 0.0
H417 H 0.90788 0.30833 0.29183 0.0
H418 H 0.94509 0.21968 0.48515 0.0
H419 H 0.97691 0.29969 0.32042 0.0
H420 H 0.09762 0.24195 0.3506 0.0
H421 H 0.02895 0.24893 0.31848 0.0
H422 H 0.99836 0.2618 0.53632 0.0
H423 H 0.06702 0.25444 0.56872 0.0
C424 C 0.89775 0.24382 0.42608 0.0
C425 C 0.88659 0.26927 0.37228 0.0
C426 C 0.93729 0.23903 0.44274 0.0
C427 C 0.96639 0.25926 0.40538 0.0
C428 C 0.9552 0.2836 0.34997 0.0
C429 C 0.91572 0.28868 0.33381 0.0
C430 C 0.0763 0.24655 0.39167 0.0
C431 C 0.08782 0.24775 0.46225 0.0
C432 C 0.03698 0.25061 0.3732 0.0
C433 C 0.00825 0.25563 0.4249 0.0
C434 C 0.0198 0.25742 0.49539 0.0
C435 C 0.05918 0.25369 0.51386 0.0
H436 H 0.32734 0.39217 0.54228 0.0
H437 H 0.20356 0.41006 0.5076 0.0
H438 H 0.33414 0.46132 0.57611 0.0
H439 H 0.21133 0.47935 0.53723 0.0
H440 H 0.25684 0.611 0.54518 0.0
H441 H 0.25145 0.54395 0.49726 0.0
H442 H 0.30131 0.498 0.68675 0.0
H443 H 0.30591 0.56458 0.73545 0.0
C444 C 0.3017 0.41072 0.54074 0.0
C445 C 0.26479 0.39498 0.52293 0.0
C446 C 0.30571 0.45037 0.55986 0.0
C447 C 0.27316 0.47541 0.55986 0.0
C448 C 0.2369 0.46062 0.53735 0.0
C449 C 0.23265 0.42081 0.51969 0.0
C450 C 0.2663 0.58653 0.57681 0.0
C451 C 0.28144 0.59305 0.64436 0.0
C452 C 0.26332 0.54829 0.5493 0.0
C453 C 0.27634 0.51602 0.58814 0.0
C454 C 0.29148 0.52249 0.65551 0.0
C455 C 0.29367 0.56055 0.68362 0.0
H456 H 0.07772 0.09356 0.16637 0.0
H457 H 0.14643 1.0024 0.26279 0.0
H458 H 0.03631 0.04364 0.11148 0.0
H459 H 0.10625 0.95245 0.20497 0.0
H460 H 0.99004 0.88416 0.1878 0.0
H461 H 0.04046 0.93018 0.2239 0.0
H462 H 0.0304 0.99026 0.0267 0.0
H463 H 0.97941 0.94366 -0.00994 0.0
C464 C 0.08423 0.06284 0.1753 0.0
C465 C 0.11499 0.05198 0.21998 0.0
C466 C 0.06084 0.03421 0.14293 0.0
C467 C 0.06776 0.99404 0.15427 0.0
C468 C 0.09977 0.98318 0.19603 0.0
C469 C 0.12306 0.01181 0.22864 0.0
C470 C 0.99917 0.90647 0.15116 0.0
C471 C 0.98077 0.91002 0.08581 0.0
C472 C 0.02819 0.93297 0.17199 0.0
C473 C 0.03963 0.96385 0.12816 0.0
C474 C 0.02197 0.96698 0.06197 0.0
C475 C 0.99279 0.94032 0.04099 0.0
H476 H 0.62053 0.49335 0.41853 0.0
H477 H 0.53387 0.44697 0.27428 0.0
H478 H 0.57577 0.54482 0.45377 0.0
H479 H 0.48812 0.49799 0.31317 0.0
H480 H 0.41277 0.56033 0.49459 0.0
H481 H 0.45625 0.51208 0.43932 0.0
H482 H 0.53954 0.60446 0.39575 0.0
H483 H 0.49595 0.65276 0.45041 0.0
C484 C 0.5923 0.4945 0.39301 0.0
C485 C 0.58109 0.46608 0.34273 0.0
C486 C 0.56656 0.52393 0.41382 0.0
C487 C 0.52871 0.52528 0.38601 0.0
C488 C 0.51725 0.49731 0.33544 0.0
C489 C 0.54336 0.4681 0.3135 0.0
C490 C 0.44039 0.5702 0.47312 0.0
C491 C 0.45134 0.61005 0.47713 0.0
C492 C 0.46492 0.54279 0.44086 0.0
C493 C 0.50098 0.55477 0.41318 0.0
C494 C 0.51178 0.59466 0.41672 0.0
C495 C 0.48698 0.62216 0.44793 0.0
H496 H 0.08721 0.0968 0.79753 0.0
H497 H 0.03439 0.09434 0.59178 0.0
H498 H 0.04021 0.04771 0.83656 0.0
H499 H 0.98891 0.04357 0.63056 0.0
H500 H 0.95226 0.91972 0.71262 0.0
H501 H 0.99884 0.9705 0.67614 0.0
H502 H 0.96244 0.04453 0.84861 0.0
H503 H 0.91526 0.99387 0.88434 0.0
C504 C 0.06546 0.08617 0.7607 0.0
C505 C 0.06457 0.09979 0.69142 0.0
C506 C 0.03877 0.05787 0.78312 0.0
C507 C 0.01123 0.04202 0.7364 0.0
C508 C 0.01027 0.05525 0.66723 0.0
C509 C 0.03647 0.08412 0.64505 0.0
C510 C 0.95449 0.94681 0.74274 0.0
C511 C 0.93043 0.95326 0.80098 0.0
C512 C 0.98079 0.97579 0.72174 0.0
C513 C 0.98385 0.01127 0.75948 0.0
C514 C 0.96047 0.0173 0.81887 0.0
C515 C 0.93359 0.98858 0.8391 0.0
H516 H 0.50169 0.39915 0.16495 0.0
H517 H 0.58623 0.45954 0.03656 0.0
H518 H 0.45027 0.44306 0.12238 0.0
H519 H 0.53529 0.50336 -0.00489 0.0
H520 H 0.42968 0.53352 0.86411 0.0
H521 H 0.47674 0.48928 0.91707 0.0
H522 H 0.43064 0.517 0.12149 0.0
H523 H 0.38362 0.56213 0.06847 0.0
C524 C 0.50929 0.42205 0.12831 0.0
C525 C 0.54787 0.42589 0.10383 0.0
C526 C 0.48 0.4472 0.10433 0.0
C527 C 0.48882 0.47613 0.05479 0.0
C528 C 0.52765 0.48088 0.03254 0.0
C529 C 0.55688 0.4561 0.05691 0.0
C530 C 0.42954 0.53027 0.92036 0.0
C531 C 0.4034 0.55182 0.96221 0.0
C532 C 0.45646 0.50494 0.95062 0.0
C533 C 0.45771 0.50035 0.02339 0.0
C534 C 0.43024 0.52014 0.06522 0.0
C535 C 0.40332 0.5458 0.03486 0.0
loop_
_geom_bond_atom_site_label_1
_geom_bond_atom_site_label_2
_geom_bond_distance
_geom_bond_site_symmetry_2
_ccdc_geom_bond_type
Cd0 N3 2.334 . S
Cd0 N29 2.304 . S
Cd0 O36 2.268 . S
Cd0 O39 2.273 . S
Cd0 O40 2.417 . S
Cd0 O41 2.330 . S
Cd1 N16 2.304 . S
Cd1 N20 2.334 . S
Cd1 O37 2.273 . S
Cd1 O38 2.268 . S
Cd1 O42 2.417 . S
Cd1 O43 2.330 . S
C2 N3 1.332 . S
C2 C6 1.381 . S
C2 H8 0.931 . S
N3 Cd0 2.334 . S
N3 C2 1.332 . S
N3 C7 1.328 . S
C4 C5 1.396 . S
C4 C7 1.378 . S
C4 H46 0.931 . S
C5 C4 1.396 . S
C5 C6 1.382 . S
C6 C2 1.381 . S
C6 C5 1.382 . S
C6 H47 0.930 . S
C7 N3 1.328 . S
C7 C4 1.378 . S
C7 H9 0.930 . S
H8 C2 0.931 . S
H9 C7 0.930 . S
C10 O36 1.238 . S
C10 O37 1.253 1_554 S
C11 C12 1.379 . S
C11 N16 1.337 . S
C11 H17 0.929 . S
C12 C11 1.379 . S
C12 C13 1.380 . S
C12 H48 0.929 . S
C13 C12 1.380 . S
C13 C14 1.399 . S
C14 C13 1.399 . S
C14 C15 1.376 . S
C14 H49 0.931 . S
C15 C14 1.376 . S
C15 N16 1.338 . S
C15 H18 0.930 . S
N16 Cd1 2.304 . S
N16 C11 1.337 . S
N16 C15 1.338 . S
H17 C11 0.929 . S
H18 C15 0.930 . S
C19 N20 1.332 . S
C19 C23 1.381 . S
C19 H25 0.931 . S
N20 Cd1 2.334 . S
N20 C19 1.332 . S
N20 C24 1.328 . S
C21 C22 1.396 . S
C21 C24 1.378 . S
C21 H50 0.931 . S
C22 C21 1.396 . S
C22 C23 1.382 . S
C23 C19 1.381 . S
C23 C22 1.382 . S
C23 H51 0.930 . S
C24 N20 1.328 . S
C24 C21 1.378 . S
C24 H26 0.930 . S
H25 C19 0.931 . S
H26 C24 0.930 . S
C27 O38 1.238 . S
C27 O39 1.253 1_556 S
C28 O40 1.239 . S
C28 O41 1.230 . S
N29 Cd0 2.304 . S
N29 C30 1.337 . S
N29 C34 1.338 . S
C30 N29 1.337 . S
C30 C31 1.379 . S
C30 H44 0.929 . S
C31 C30 1.379 . S
C31 C32 1.380 . S
C31 H52 0.929 . S
C32 C31 1.380 . S
C32 C33 1.399 . S
C33 C32 1.399 . S
C33 C34 1.376 . S
C33 H53 0.931 . S
C34 N29 1.338 . S
C34 C33 1.376 . S
C34 H45 0.930 . S
C35 O42 1.239 . S
C35 O43 1.230 . S
O36 Cd0 2.268 . S
O36 C10 1.238 . S
O37 Cd1 2.273 . S
O37 C10 1.253 1_556 S
O38 Cd1 2.268 . S
O38 C27 1.238 . S
O39 Cd0 2.273 . S
O39 C27 1.253 1_554 S
O40 Cd0 2.417 . S
O40 C28 1.239 . S
O41 Cd0 2.330 . S
O41 C28 1.230 . S
O42 Cd1 2.417 . S
O42 C35 1.239 . S
O43 Cd1 2.330 . S
O43 C35 1.230 . S
H44 C30 0.929 . S
H45 C34 0.930 . S
H46 C4 0.931 . S
H47 C6 0.930 . S
H48 C12 0.929 . S
H49 C14 0.931 . S
H50 C21 0.931 . S
H51 C23 0.930 . S
H52 C31 0.929 . S
H53 C33 0.931 . S
Cd54 N57 2.334 . S
Cd54 N83 2.304 . S
Cd54 O90 2.268 . S
Cd54 O93 2.273 . S
Cd54 O94 2.417 . S
Cd54 O95 2.330 . S
Cd55 N70 2.304 . S
Cd55 N74 2.334 . S
Cd55 O91 2.273 . S
Cd55 O92 2.268 . S
Cd55 O96 2.417 . S
Cd55 O97 2.330 . S
C56 N57 1.332 . S
C56 C60 1.381 . S
C56 H62 0.931 . S
N57 Cd54 2.334 . S
N57 C56 1.332 . S
N57 C61 1.328 . S
C58 C59 1.396 . S
C58 C61 1.378 . S
C58 H100 0.931 . S
C59 C58 1.396 . S
C59 C60 1.382 . S
C60 C56 1.381 . S
C60 C59 1.382 . S
C60 H101 0.930 . S
C61 N57 1.328 . S
C61 C58 1.378 . S
C61 H63 0.930 . S
H62 C56 0.931 . S
H63 C61 0.930 . S
C64 O90 1.238 . S
C64 O91 1.253 . S
C65 C66 1.379 . S
C65 N70 1.337 . S
C65 H71 0.929 . S
C66 C65 1.379 . S
C66 C67 1.380 . S
C66 H102 0.929 . S
C67 C66 1.380 . S
C67 C68 1.399 . S
C68 C67 1.399 . S
C68 C69 1.376 . S
C68 H103 0.931 . S
C69 C68 1.376 . S
C69 N70 1.338 . S
C69 H72 0.930 . S
N70 Cd55 2.304 . S
N70 C65 1.337 . S
N70 C69 1.338 . S
H71 C65 0.929 . S
H72 C69 0.930 . S
C73 N74 1.332 . S
C73 C77 1.381 . S
C73 H79 0.931 . S
N74 Cd55 2.334 . S
N74 C73 1.332 . S
N74 C78 1.328 . S
C75 C76 1.396 . S
C75 C78 1.378 . S
C75 H104 0.931 . S
C76 C75 1.396 . S
C76 C77 1.382 . S
C77 C73 1.381 . S
C77 C76 1.382 . S
C77 H105 0.930 . S
C78 N74 1.328 . S
C78 C75 1.378 . S
C78 H80 0.930 . S
H79 C73 0.931 . S
H80 C78 0.930 . S
C81 O92 1.238 . S
C81 O93 1.253 . S
C82 O94 1.239 . S
C82 O95 1.230 . S
N83 Cd54 2.304 . S
N83 C84 1.337 . S
N83 C88 1.338 . S
C84 N83 1.337 . S
C84 C85 1.379 . S
C84 H98 0.929 . S
C85 C84 1.379 . S
C85 C86 1.380 . S
C85 H106 0.929 . S
C86 C85 1.380 . S
C86 C87 1.399 . S
C87 C86 1.399 . S
C87 C88 1.376 . S
C87 H107 0.931 . S
C88 N83 1.338 . S
C88 C87 1.376 . S
C88 H99 0.930 . S
C89 O96 1.239 1_556 S
C89 O97 1.230 1_556 S
O90 Cd54 2.268 . S
O90 C64 1.238 . S
O91 Cd55 2.273 . S
O91 C64 1.253 . S
O92 Cd55 2.268 . S
O92 C81 1.238 . S
O93 Cd54 2.273 . S
O93 C81 1.253 . S
O94 Cd54 2.417 . S
O94 C82 1.239 . S
O95 Cd54 2.330 . S
O95 C82 1.230 . S
O96 Cd55 2.417 . S
O96 C89 1.239 1_554 S
O97 Cd55 2.330 . S
O97 C89 1.230 1_554 S
H98 C84 0.929 . S
H99 C88 0.930 . S
H100 C58 0.931 . S
H101 C60 0.930 . S
H102 C66 0.929 . S
H103 C68 0.931 . S
H104 C75 0.931 . S
H105 C77 0.930 . S
H106 C85 0.929 . S
H107 C87 0.931 . S
Cd108 N111 2.334 . S
Cd108 N137 2.304 . S
Cd108 O144 2.268 . S
Cd108 O147 2.273 . S
Cd108 O148 2.417 . S
Cd108 O149 2.330 . S
Cd109 N124 2.304 . S
Cd109 N128 2.334 . S
Cd109 O145 2.273 . S
Cd109 O146 2.268 . S
Cd109 O150 2.417 . S
Cd109 O151 2.330 . S
C110 N111 1.332 . S
C110 C114 1.381 . S
C110 H116 0.931 . S
N111 Cd108 2.334 . S
N111 C110 1.332 . S
N111 C115 1.328 . S
C112 C113 1.396 . S
C112 C115 1.378 . S
C112 H154 0.931 . S
C113 C112 1.396 . S
C113 C114 1.382 . S
C114 C110 1.381 . S
C114 C113 1.382 . S
C114 H155 0.930 . S
C115 N111 1.328 . S
C115 C112 1.378 . S
C115 H117 0.930 . S
H116 C110 0.931 . S
H117 C115 0.930 . S
C118 O144 1.238 . S
C118 O145 1.253 . S
C119 C120 1.379 . S
C119 N124 1.337 . S
C119 H125 0.929 . S
C120 C119 1.379 . S
C120 C121 1.380 . S
C120 H156 0.929 . S
C121 C120 1.380 . S
C121 C122 1.399 . S
C122 C121 1.399 . S
C122 C123 1.376 . S
C122 H157 0.931 . S
C123 C122 1.376 . S
C123 N124 1.338 . S
C123 H126 0.930 . S
N124 Cd109 2.304 . S
N124 C119 1.337 . S
N124 C123 1.338 . S
H125 C119 0.929 . S
H126 C123 0.930 . S
C127 N128 1.332 . S
C127 C131 1.381 . S
C127 H133 0.931 . S
N128 Cd109 2.334 . S
N128 C127 1.332 . S
N128 C132 1.328 . S
C129 C130 1.396 . S
C129 C132 1.378 . S
C129 H158 0.931 . S
C130 C129 1.396 . S
C130 C131 1.382 . S
C131 C127 1.381 . S
C131 C130 1.382 . S
C131 H159 0.930 . S
C132 N128 1.328 . S
C132 C129 1.378 . S
C132 H134 0.930 . S
H133 C127 0.931 . S
H134 C132 0.930 . S
C135 O146 1.238 . S
C135 O147 1.253 . S
C136 O148 1.239 . S
C136 O149 1.230 . S
N137 Cd108 2.304 . S
N137 C138 1.337 . S
N137 C142 1.338 . S
C138 N137 1.337 . S
C138 C139 1.379 . S
C138 H152 0.929 . S
C139 C138 1.379 . S
C139 C140 1.380 . S
C139 H160 0.929 . S
C140 C139 1.380 . S
C140 C141 1.399 . S
C141 C140 1.399 . S
C141 C142 1.376 . S
C141 H161 0.931 . S
C142 N137 1.338 . S
C142 C141 1.376 . S
C142 H153 0.930 . S
C143 O150 1.239 . S
C143 O151 1.230 . S
O144 Cd108 2.268 . S
O144 C118 1.238 . S
O145 Cd109 2.273 . S
O145 C118 1.253 . S
O146 Cd109 2.268 . S
O146 C135 1.238 . S
O147 Cd108 2.273 . S
O147 C135 1.253 . S
O148 Cd108 2.417 . S
O148 C136 1.239 . S
O149 Cd108 2.330 . S
O149 C136 1.230 . S
O150 Cd109 2.417 . S
O150 C143 1.239 . S
O151 Cd109 2.330 . S
O151 C143 1.230 . S
H152 C138 0.929 . S
H153 C142 0.930 . S
H154 C112 0.931 . S
H155 C114 0.930 . S
H156 C120 0.929 . S
H157 C122 0.931 . S
H158 C129 0.931 . S
H159 C131 0.930 . S
H160 C139 0.929 . S
H161 C141 0.931 . S
Cd162 N165 2.334 . S
Cd162 N191 2.304 . S
Cd162 O198 2.268 . S
Cd162 O201 2.273 . S
Cd162 O202 2.417 . S
Cd162 O203 2.330 . S
Cd163 N178 2.304 . S
Cd163 N182 2.334 . S
Cd163 O199 2.273 . S
Cd163 O200 2.268 . S
Cd163 O204 2.417 . S
Cd163 O205 2.330 . S
C164 N165 1.332 . S
C164 C168 1.381 . S
C164 H170 0.931 . S
N165 Cd162 2.334 . S
N165 C164 1.332 . S
N165 C169 1.328 . S
C166 C167 1.396 . S
C166 C169 1.378 . S
C166 H208 0.931 . S
C167 C166 1.396 . S
C167 C168 1.382 . S
C168 C164 1.381 . S
C168 C167 1.382 . S
C168 H209 0.930 . S
C169 N165 1.328 . S
C169 C166 1.378 . S
C169 H171 0.930 . S
H170 C164 0.931 . S
H171 C169 0.930 . S
C172 O198 1.238 . S
C172 O199 1.253 . S
C173 C174 1.379 . S
C173 N178 1.337 . S
C173 H179 0.929 . S
C174 C173 1.379 . S
C174 C175 1.380 . S
C174 H210 0.929 . S
C175 C174 1.380 . S
C175 C176 1.399 . S
C176 C175 1.399 . S
C176 C177 1.376 . S
C176 H211 0.931 . S
C177 C176 1.376 . S
C177 N178 1.338 . S
C177 H180 0.930 . S
N178 Cd163 2.304 . S
N178 C173 1.337 . S
N178 C177 1.338 . S
H179 C173 0.929 . S
H180 C177 0.930 . S
C181 N182 1.332 . S
C181 C185 1.381 . S
C181 H187 0.931 . S
N182 Cd163 2.334 . S
N182 C181 1.332 . S
N182 C186 1.328 . S
C183 C184 1.396 . S
C183 C186 1.378 . S
C183 H212 0.931 . S
C184 C183 1.396 . S
C184 C185 1.382 . S
C185 C181 1.381 . S
C185 C184 1.382 . S
C185 H213 0.930 . S
C186 N182 1.328 . S
C186 C183 1.378 . S
C186 H188 0.930 . S
H187 C181 0.931 . S
H188 C186 0.930 . S
C189 O200 1.238 . S
C189 O201 1.253 . S
C190 O202 1.239 . S
C190 O203 1.230 . S
N191 Cd162 2.304 . S
N191 C192 1.337 . S
N191 C196 1.338 . S
C192 N191 1.337 . S
C192 C193 1.379 . S
C192 H206 0.929 . S
C193 C192 1.379 . S
C193 C194 1.380 . S
C193 H214 0.929 . S
C194 C193 1.380 . S
C194 C195 1.399 . S
C195 C194 1.399 . S
C195 C196 1.376 . S
C195 H215 0.931 . S
C196 N191 1.338 . S
C196 C195 1.376 . S
C196 H207 0.930 . S
C197 O204 1.239 1_554 S
C197 O205 1.230 1_554 S
O198 Cd162 2.268 . S
O198 C172 1.238 . S
O199 Cd163 2.273 . S
O199 C172 1.253 . S
O200 Cd163 2.268 . S
O200 C189 1.238 . S
O201 Cd162 2.273 . S
O201 C189 1.253 . S
O202 Cd162 2.417 . S
O202 C190 1.239 . S
O203 Cd162 2.330 . S
O203 C190 1.230 . S
O204 Cd163 2.417 . S
O204 C197 1.239 1_556 S
O205 Cd163 2.330 . S
O205 C197 1.230 1_556 S
H206 C192 0.929 . S
H207 C196 0.930 . S
H208 C166 0.931 . S
H209 C168 0.930 . S
H210 C174 0.929 . S
H211 C176 0.931 . S
H212 C183 0.931 . S
H213 C185 0.930 . S
H214 C193 0.929 . S
H215 C195 0.931 . S
H216 C224 0.950 . S
H217 C229 0.950 . S
H218 C226 0.950 . S
H219 C228 0.950 . S
H220 C230 0.950 . S
H221 C232 0.950 . S
H222 C234 0.950 . S
H223 C235 0.950 . S
C224 H216 0.950 . S
C224 C225 1.386 . S
C224 C226 1.391 . S
C225 C224 1.386 . S
C225 C229 1.393 . S
C226 H218 0.950 . S
C226 C224 1.391 . S
C226 C227 1.400 . S
C227 C226 1.400 . S
C227 C228 1.398 . S
C227 C233 1.491 . S
C228 H219 0.950 . S
C228 C227 1.398 . S
C228 C229 1.391 . S
C229 H217 0.950 . S
C229 C225 1.393 . S
C229 C228 1.391 . S
C230 H220 0.950 . S
C230 C231 1.386 . S
C230 C232 1.391 . S
C231 C230 1.386 . S
C231 C235 1.393 . S
C232 H221 0.950 . S
C232 C230 1.391 . S
C232 C233 1.400 . S
C233 C227 1.491 . S
C233 C232 1.400 . S
C233 C234 1.398 . S
C234 H222 0.950 . S
C234 C233 1.398 . S
C234 C235 1.391 . S
C235 H223 0.950 . S
C235 C231 1.393 . S
C235 C234 1.391 . S
H236 C244 0.950 . S
H237 C249 0.950 . S
H238 C246 0.950 . S
H239 C248 0.950 . S
H240 C250 0.950 . S
H241 C252 0.950 . S
H242 C254 0.950 . S
H243 C255 0.950 . S
C244 H236 0.950 . S
C244 C245 1.386 . S
C244 C246 1.391 . S
C245 C244 1.386 . S
C245 C249 1.393 . S
C246 H238 0.950 . S
C246 C244 1.391 . S
C246 C247 1.400 . S
C247 C246 1.400 . S
C247 C248 1.398 . S
C247 C253 1.491 . S
C248 H239 0.950 . S
C248 C247 1.398 . S
C248 C249 1.391 . S
C249 H237 0.950 . S
C249 C245 1.393 . S
C249 C248 1.391 . S
C250 H240 0.950 . S
C250 C251 1.386 . S
C250 C252 1.391 . S
C251 C250 1.386 . S
C251 C255 1.393 . S
C252 H241 0.950 . S
C252 C250 1.391 . S
C252 C253 1.400 . S
C253 C247 1.491 . S
C253 C252 1.400 . S
C253 C254 1.398 . S
C254 H242 0.950 . S
C254 C253 1.398 . S
C254 C255 1.391 . S
C255 H243 0.950 . S
C255 C251 1.393 . S
C255 C254 1.391 . S
H256 C264 0.950 . S
H257 C269 0.950 . S
H258 C266 0.950 . S
H259 C268 0.950 . S
H260 C270 0.950 . S
H261 C272 0.950 . S
H262 C274 0.950 . S
H263 C275 0.950 . S
C264 H256 0.950 . S
C264 C265 1.386 . S
C264 C266 1.391 . S
C265 C264 1.386 . S
C265 C269 1.393 . S
C266 H258 0.950 . S
C266 C264 1.391 . S
C266 C267 1.400 . S
C267 C266 1.400 . S
C267 C268 1.398 . S
C267 C273 1.491 1_556 S
C268 H259 0.950 . S
C268 C267 1.398 . S
C268 C269 1.391 . S
C269 H257 0.950 . S
C269 C265 1.393 . S
C269 C268 1.391 . S
C270 H260 0.950 . S
C270 C271 1.386 . S
C270 C272 1.391 . S
C271 C270 1.386 . S
C271 C275 1.393 . S
C272 H261 0.950 . S
C272 C270 1.391 . S
C272 C273 1.400 . S
C273 C267 1.491 1_554 S
C273 C272 1.400 . S
C273 C274 1.398 . S
C274 H262 0.950 . S
C274 C273 1.398 . S
C274 C275 1.391 . S
C275 H263 0.950 . S
C275 C271 1.393 . S
C275 C274 1.391 . S
H276 C284 0.950 . S
H277 C289 0.950 . S
H278 C286 0.950 . S
H279 C288 0.950 . S
H280 C290 0.950 . S
H281 C292 0.950 . S
H282 C294 0.950 . S
H283 C295 0.950 . S
C284 H276 0.950 . S
C284 C285 1.386 . S
C284 C286 1.391 . S
C285 C284 1.386 . S
C285 C289 1.393 . S
C286 H278 0.950 . S
C286 C284 1.391 . S
C286 C287 1.400 . S
C287 C286 1.400 . S
C287 C288 1.398 . S
C287 C293 1.491 . S
C288 H279 0.950 . S
C288 C287 1.398 . S
C288 C289 1.391 . S
C289 H277 0.950 . S
C289 C285 1.393 . S
C289 C288 1.391 . S
C290 H280 0.950 . S
C290 C291 1.386 . S
C290 C292 1.391 . S
C291 C290 1.386 . S
C291 C295 1.393 . S
C292 H281 0.950 . S
C292 C290 1.391 . S
C292 C293 1.400 . S
C293 C287 1.491 . S
C293 C292 1.400 . S
C293 C294 1.398 . S
C294 H282 0.950 . S
C294 C293 1.398 . S
C294 C295 1.391 . S
C295 H283 0.950 . S
C295 C291 1.393 . S
C295 C294 1.391 . S
H296 C304 0.950 . S
H297 C309 0.950 . S
H298 C306 0.950 . S
H299 C308 0.950 . S
H300 C310 0.950 . S
H301 C312 0.950 . S
H302 C314 0.950 . S
H303 C315 0.950 . S
C304 H296 0.950 . S
C304 C305 1.386 . S
C304 C306 1.391 . S
C305 C304 1.386 . S
C305 C309 1.393 . S
C306 H298 0.950 . S
C306 C304 1.391 . S
C306 C307 1.400 . S
C307 C306 1.400 . S
C307 C308 1.398 . S
C307 C313 1.491 . S
C308 H299 0.950 . S
C308 C307 1.398 . S
C308 C309 1.391 . S
C309 H297 0.950 . S
C309 C305 1.393 . S
C309 C308 1.391 . S
C310 H300 0.950 . S
C310 C311 1.386 . S
C310 C312 1.391 . S
C311 C310 1.386 . S
C311 C315 1.393 . S
C312 H301 0.950 . S
C312 C310 1.391 . S
C312 C313 1.400 . S
C313 C307 1.491 . S
C313 C312 1.400 . S
C313 C314 1.398 . S
C314 H302 0.950 . S
C314 C313 1.398 . S
C314 C315 1.391 . S
C315 H303 0.950 . S
C315 C311 1.393 . S
C315 C314 1.391 . S
H316 C324 0.950 . S
H317 C329 0.950 . S
H318 C326 0.950 . S
H319 C328 0.950 . S
H320 C330 0.950 . S
H321 C332 0.950 . S
H322 C334 0.950 1_556 S
H323 C335 0.950 1_556 S
C324 H316 0.950 . S
C324 C325 1.386 . S
C324 C326 1.391 . S
C325 C324 1.386 . S
C325 C329 1.393 . S
C326 H318 0.950 . S
C326 C324 1.391 . S
C326 C327 1.400 . S
C327 C326 1.400 . S
C327 C328 1.398 . S
C327 C333 1.491 . S
C328 H319 0.950 . S
C328 C327 1.398 . S
C328 C329 1.391 . S
C329 H317 0.950 . S
C329 C325 1.393 . S
C329 C328 1.391 . S
C330 H320 0.950 . S
C330 C331 1.386 . S
C330 C332 1.391 1_565 S
C331 C330 1.386 . S
C331 C335 1.393 . S
C332 H321 0.950 . S
C332 C330 1.391 1_545 S
C332 C333 1.400 . S
C333 C327 1.491 . S
C333 C332 1.400 . S
C333 C334 1.398 . S
C334 H322 0.950 1_554 S
C334 C333 1.398 . S
C334 C335 1.391 1_545 S
C335 H323 0.950 1_554 S
C335 C331 1.393 . S
C335 C334 1.391 1_565 S
H336 C344 0.950 . S
H337 C349 0.950 . S
H338 C346 0.950 . S
H339 C348 0.950 . S
H340 C350 0.950 . S
H341 C352 0.950 . S
H342 C354 0.950 . S
H343 C355 0.950 . S
C344 H336 0.950 . S
C344 C345 1.386 . S
C344 C346 1.391 . S
C345 C344 1.386 . S
C345 C349 1.393 . S
C346 H338 0.950 . S
C346 C344 1.391 . S
C346 C347 1.400 . S
C347 C346 1.400 . S
C347 C348 1.398 . S
C347 C353 1.491 . S
C348 H339 0.950 . S
C348 C347 1.398 . S
C348 C349 1.391 . S
C349 H337 0.950 . S
C349 C345 1.393 . S
C349 C348 1.391 . S
C350 H340 0.950 . S
C350 C351 1.386 . S
C350 C352 1.391 . S
C351 C350 1.386 . S
C351 C355 1.393 . S
C352 H341 0.950 . S
C352 C350 1.391 . S
C352 C353 1.400 . S
C353 C347 1.491 . S
C353 C352 1.400 . S
C353 C354 1.398 . S
C354 H342 0.950 . S
C354 C353 1.398 . S
C354 C355 1.391 . S
C355 H343 0.950 . S
C355 C351 1.393 . S
C355 C354 1.391 . S
H356 C364 0.950 . S
H357 C369 0.950 . S
H358 C366 0.950 . S
H359 C368 0.950 . S
H360 C370 0.950 . S
H361 C372 0.950 . S
H362 C374 0.950 . S
H363 C375 0.950 . S
C364 H356 0.950 . S
C364 C365 1.386 . S
C364 C366 1.391 . S
C365 C364 1.386 . S
C365 C369 1.393 . S
C366 H358 0.950 . S
C366 C364 1.391 . S
C366 C367 1.400 . S
C367 C366 1.400 . S
C367 C368 1.398 . S
C367 C373 1.491 . S
C368 H359 0.950 . S
C368 C367 1.398 . S
C368 C369 1.391 . S
C369 H357 0.950 . S
C369 C365 1.393 . S
C369 C368 1.391 . S
C370 H360 0.950 . S
C370 C371 1.386 . S
C370 C372 1.391 1_545 S
C371 C370 1.386 . S
C371 C375 1.393 . S
C372 H361 0.950 . S
C372 C370 1.391 1_565 S
C372 C373 1.400 . S
C373 C367 1.491 . S
C373 C372 1.400 . S
C373 C374 1.398 . S
C374 H362 0.950 . S
C374 C373 1.398 . S
C374 C375 1.391 1_565 S
C375 H363 0.950 . S
C375 C371 1.393 . S
C375 C374 1.391 1_545 S
H376 C384 0.950 1_554 S
H377 C389 0.950 . S
H378 C386 0.950 . S
H379 C388 0.950 . S
H380 C390 0.950 . S
H381 C392 0.950 . S
H382 C394 0.950 . S
H383 C395 0.950 . S
C384 H376 0.950 1_556 S
C384 C385 1.386 . S
C384 C386 1.391 1_655 S
C385 C384 1.386 . S
C385 C389 1.393 . S
C386 H378 0.950 . S
C386 C384 1.391 1_455 S
C386 C387 1.400 . S
C387 C386 1.400 . S
C387 C388 1.398 . S
C387 C393 1.491 . S
C388 H379 0.950 . S
C388 C387 1.398 . S
C388 C389 1.391 1_455 S
C389 H377 0.950 . S
C389 C385 1.393 . S
C389 C388 1.391 1_655 S
C390 H380 0.950 . S
C390 C391 1.386 . S
C390 C392 1.391 . S
C391 C390 1.386 . S
C391 C395 1.393 . S
C392 H381 0.950 . S
C392 C390 1.391 . S
C392 C393 1.400 . S
C393 C387 1.491 . S
C393 C392 1.400 . S
C393 C394 1.398 . S
C394 H382 0.950 . S
C394 C393 1.398 . S
C394 C395 1.391 . S
C395 H383 0.950 . S
C395 C391 1.393 . S
C395 C394 1.391 . S
H396 C404 0.950 . S
H397 C409 0.950 . S
H398 C406 0.950 . S
H399 C408 0.950 . S
H400 C410 0.950 . S
H401 C412 0.950 . S
H402 C414 0.950 . S
H403 C415 0.950 . S
C404 H396 0.950 . S
C404 C405 1.386 . S
C404 C406 1.391 . S
C405 C404 1.386 . S
C405 C409 1.393 . S
C406 H398 0.950 . S
C406 C404 1.391 . S
C406 C407 1.400 . S
C407 C406 1.400 . S
C407 C408 1.398 . S
C407 C413 1.491 . S
C408 H399 0.950 . S
C408 C407 1.398 . S
C408 C409 1.391 . S
C409 H397 0.950 . S
C409 C405 1.393 . S
C409 C408 1.391 . S
C410 H400 0.950 . S
C410 C411 1.386 . S
C410 C412 1.391 . S
C411 C410 1.386 . S
C411 C415 1.393 . S
C412 H401 0.950 . S
C412 C410 1.391 . S
C412 C413 1.400 . S
C413 C407 1.491 . S
C413 C412 1.400 . S
C413 C414 1.398 . S
C414 H402 0.950 . S
C414 C413 1.398 . S
C414 C415 1.391 . S
C415 H403 0.950 . S
C415 C411 1.393 . S
C415 C414 1.391 . S
H416 C424 0.950 . S
H417 C429 0.950 . S
H418 C426 0.950 . S
H419 C428 0.950 . S
H420 C430 0.950 . S
H421 C432 0.950 . S
H422 C434 0.950 . S
H423 C435 0.950 . S
C424 H416 0.950 . S
C424 C425 1.386 . S
C424 C426 1.391 . S
C425 C424 1.386 . S
C425 C429 1.393 . S
C426 H418 0.950 . S
C426 C424 1.391 . S
C426 C427 1.400 . S
C427 C426 1.400 . S
C427 C428 1.398 . S
C427 C433 1.491 . S
C428 H419 0.950 . S
C428 C427 1.398 . S
C428 C429 1.391 . S
C429 H417 0.950 . S
C429 C425 1.393 . S
C429 C428 1.391 . S
C430 H420 0.950 . S
C430 C431 1.386 . S
C430 C432 1.391 1_455 S
C431 C430 1.386 . S
C431 C435 1.393 . S
C432 H421 0.950 . S
C432 C430 1.391 1_655 S
C432 C433 1.400 . S
C433 C427 1.491 . S
C433 C432 1.400 . S
C433 C434 1.398 . S
C434 H422 0.950 . S
C434 C433 1.398 . S
C434 C435 1.391 1_655 S
C435 H423 0.950 . S
C435 C431 1.393 . S
C435 C434 1.391 1_455 S
H436 C444 0.950 . S
H437 C449 0.950 . S
H438 C446 0.950 . S
H439 C448 0.950 . S
H440 C450 0.950 . S
H441 C452 0.950 . S
H442 C454 0.950 . S
H443 C455 0.950 . S
C444 H436 0.950 . S
C444 C445 1.386 . S
C444 C446 1.391 . S
C445 C444 1.386 . S
C445 C449 1.393 . S
C446 H438 0.950 . S
C446 C444 1.391 . S
C446 C447 1.400 . S
C447 C446 1.400 . S
C447 C448 1.398 . S
C447 C453 1.491 . S
C448 H439 0.950 . S
C448 C447 1.398 . S
C448 C449 1.391 . S
C449 H437 0.950 . S
C449 C445 1.393 . S
C449 C448 1.391 . S
C450 H440 0.950 . S
C450 C451 1.386 . S
C450 C452 1.391 . S
C451 C450 1.386 . S
C451 C455 1.393 . S
C452 H441 0.950 . S
C452 C450 1.391 . S
C452 C453 1.400 . S
C453 C447 1.491 . S
C453 C452 1.400 . S
C453 C454 1.398 . S
C454 H442 0.950 . S
C454 C453 1.398 . S
C454 C455 1.391 . S
C455 H443 0.950 . S
C455 C451 1.393 . S
C455 C454 1.391 . S
H456 C464 0.950 . S
H457 C469 0.950 1_565 S
H458 C466 0.950 . S
H459 C468 0.950 1_655 S
H460 C470 0.950 . S
H461 C472 0.950 . S
H462 C474 0.950 1_545 S
H463 C475 0.950 . S
C464 H456 0.950 . S
C464 C465 1.386 . S
C464 C466 1.391 . S
C465 C464 1.386 . S
C465 C469 1.393 . S
C466 H458 0.950 . S
C466 C464 1.391 . S
C466 C467 1.400 1_545 S
C467 C466 1.400 1_565 S
C467 C468 1.398 . S
C467 C473 1.501 . S
C468 H459 0.950 1_455 S
C468 C467 1.398 . S
C468 C469 1.391 1_565 S
C469 H457 0.950 1_545 S
C469 C465 1.393 . S
C469 C468 1.391 1_545 S
C470 H460 0.950 . S
C470 C471 1.386 . S
C470 C472 1.391 . S
C471 C470 1.386 . S
C471 C475 1.393 . S
C472 H461 0.950 . S
C472 C470 1.391 . S
C472 C473 1.385 1_655 S
C473 C467 1.501 . S
C473 C472 1.385 1_455 S
C473 C474 1.403 . S
C474 H462 0.950 1_565 S
C474 C473 1.403 . S
C474 C475 1.391 1_455 S
C475 H463 0.950 . S
C475 C471 1.393 . S
C475 C474 1.391 1_655 S
H476 C484 0.950 . S
H477 C489 0.950 . S
H478 C486 0.950 . S
H479 C488 0.950 . S
H480 C490 0.950 . S
H481 C492 0.950 . S
H482 C494 0.950 . S
H483 C495 0.950 . S
C484 H476 0.950 . S
C484 C485 1.386 . S
C484 C486 1.391 . S
C485 C484 1.386 . S
C485 C489 1.393 . S
C486 H478 0.950 . S
C486 C484 1.391 . S
C486 C487 1.400 . S
C487 C486 1.400 . S
C487 C488 1.398 . S
C487 C493 1.491 . S
C488 H479 0.950 . S
C488 C487 1.398 . S
C488 C489 1.391 . S
C489 H477 0.950 . S
C489 C485 1.393 . S
C489 C488 1.391 . S
C490 H480 0.950 . S
C490 C491 1.386 . S
C490 C492 1.391 . S
C491 C490 1.386 . S
C491 C495 1.393 . S
C492 H481 0.950 . S
C492 C490 1.391 . S
C492 C493 1.400 . S
C493 C487 1.491 . S
C493 C492 1.400 . S
C493 C494 1.398 . S
C494 H482 0.950 . S
C494 C493 1.398 . S
C494 C495 1.391 . S
C495 H483 0.950 . S
C495 C491 1.393 . S
C495 C494 1.391 . S
H496 C504 0.950 . S
H497 C509 0.950 1_655 S
H498 C506 0.950 . S
H499 C508 0.950 1_565 S
H500 C510 0.950 . S
H501 C512 0.950 . S
H502 C514 0.950 1_455 S
H503 C515 0.950 1_545 S
C504 H496 0.950 . S
C504 C505 1.386 . S
C504 C506 1.391 . S
C505 C504 1.386 . S
C505 C509 1.393 . S
C506 H498 0.950 . S
C506 C504 1.391 . S
C506 C507 1.400 1_455 S
C507 C506 1.400 1_655 S
C507 C508 1.398 . S
C507 C513 1.502 . S
C508 H499 0.950 1_545 S
C508 C507 1.398 . S
C508 C509 1.391 1_655 S
C509 H497 0.950 1_455 S
C509 C505 1.393 . S
C509 C508 1.391 1_455 S
C510 H500 0.950 . S
C510 C511 1.386 . S
C510 C512 1.391 . S
C511 C510 1.386 . S
C511 C515 1.393 . S
C512 H501 0.950 . S
C512 C510 1.391 . S
C512 C513 1.382 1_565 S
C513 C507 1.502 . S
C513 C512 1.382 1_545 S
C513 C514 1.405 . S
C514 H502 0.950 1_655 S
C514 C513 1.405 . S
C514 C515 1.391 1_545 S
C515 H503 0.950 1_565 S
C515 C511 1.393 . S
C515 C514 1.391 1_565 S
H516 C524 0.950 . S
H517 C529 0.950 . S
H518 C526 0.950 . S
H519 C528 0.950 1_556 S
H520 C530 0.950 . S
H521 C532 0.950 . S
H522 C534 0.950 1_554 S
H523 C535 0.950 . S
C524 H516 0.950 . S
C524 C525 1.386 . S
C524 C526 1.391 . S
C525 C524 1.386 . S
C525 C529 1.393 . S
C526 H518 0.950 . S
C526 C524 1.391 . S
C526 C527 1.400 . S
C527 C526 1.400 . S
C527 C528 1.398 . S
C527 C533 1.491 1_554 S
C528 H519 0.950 1_554 S
C528 C527 1.398 . S
C528 C529 1.391 . S
C529 H517 0.950 . S
C529 C525 1.393 . S
C529 C528 1.391 . S
C530 H520 0.950 . S
C530 C531 1.386 . S
C530 C532 1.391 . S
C531 C530 1.386 . S
C531 C535 1.393 . S
C532 H521 0.950 . S
C532 C530 1.391 . S
C532 C533 1.400 . S
C533 C527 1.491 1_556 S
C533 C532 1.400 . S
C533 C534 1.398 . S
C534 H522 0.950 1_556 S
C534 C533 1.398 . S
C534 C535 1.391 . S
C535 H523 0.950 . S
C535 C531 1.393 . S
C535 C534 1.391 . S
C225 C28 0.957 . S
C231 C35 0.956 . S
C245 C82 0.957 . S
C251 C89 0.956 . S
C265 C143 0.951 . S
C271 C136 0.952 . S
C285 C197 0.956 . S
C291 C190 0.957 . S
C305 C189 2.353 . S
C311 C22 2.340 . S
C325 C76 2.361 . S
C331 C10 2.372 . S
C345 C113 2.362 . S
C351 C64 2.366 . S
C365 C167 2.354 . S
C371 C135 2.357 . S
C385 C27 2.372 . S
C391 C184 2.356 . S
C405 C81 2.373 . S
C411 C5 2.360 . S
C425 C59 2.360 . S
C431 C118 2.364 . S
C445 C130 2.352 . S
C451 C172 2.355 . S
C465 C140 0.724 . S
C471 C32 0.722 . S
C485 C86 0.740 . S
C491 C194 0.738 . S
C505 C121 0.730 . S
C511 C13 0.728 . S
C525 C67 0.733 . S
C531 C175 0.736 . S
