# Generated by pormake.
# Topology sne, (6)-cn, num edge types: 1
# Building blocks:
#     Node 0, Type 0, BuildingBlock: IZENUY_clean_sbu_0, # of connection points: 6
#     Node 1, Type 0, BuildingBlock: IZENUY_clean_sbu_0, # of connection points: 6
#     Node 2, Type 0, BuildingBlock: IZENUY_clean_sbu_0, # of connection points: 6
#     Node 3, Type 0, BuildingBlock: IZENUY_clean_sbu_0, # of connection points: 6
#     Node 4, Type 0, BuildingBlock: IZENUY_clean_sbu_0, # of connection points: 6
#     Node 5, Type 0, BuildingBlock: IZENUY_clean_sbu_0, # of connection points: 6
#     Node 6, Type 0, BuildingBlock: IZENUY_clean_sbu_0, # of connection points: 6
#     Node 7, Type 0, BuildingBlock: IZENUY_clean_sbu_0, # of connection points: 6
#     Edge 8, Type (0, 0), BuildingBlock: AJUNOK_clean_linker_0, # of connection points: 2
#     Edge 9, Type (0, 0), BuildingBlock: AJUNOK_clean_linker_0, # of connection points: 2
#     Edge 10, Type (0, 0), BuildingBlock: AJUNOK_clean_linker_0, # of connection points: 2
#     Edge 11, Type (0, 0), BuildingBlock: AJUNOK_clean_linker_0, # of connection points: 2
#     Edge 12, Type (0, 0), BuildingBlock: AJUNOK_clean_linker_0, # of connection points: 2
#     Edge 13, Type (0, 0), BuildingBlock: AJUNOK_clean_linker_0, # of connection points: 2
#     Edge 14, Type (0, 0), BuildingBlock: AJUNOK_clean_linker_0, # of connection points: 2
#     Edge 15, Type (0, 0), BuildingBlock: AJUNOK_clean_linker_0, # of connection points: 2
#     Edge 16, Type (0, 0), BuildingBlock: AJUNOK_clean_linker_0, # of connection points: 2
#     Edge 17, Type (0, 0), BuildingBlock: AJUNOK_clean_linker_0, # of connection points: 2
#     Edge 18, Type (0, 0), BuildingBlock: AJUNOK_clean_linker_0, # of connection points: 2
#     Edge 19, Type (0, 0), BuildingBlock: AJUNOK_clean_linker_0, # of connection points: 2
#     Edge 20, Type (0, 0), BuildingBlock: AJUNOK_clean_linker_0, # of connection points: 2
#     Edge 21, Type (0, 0), BuildingBlock: AJUNOK_clean_linker_0, # of connection points: 2
#     Edge 22, Type (0, 0), BuildingBlock: AJUNOK_clean_linker_0, # of connection points: 2
#     Edge 23, Type (0, 0), BuildingBlock: AJUNOK_clean_linker_0, # of connection points: 2
#     Edge 24, Type (0, 0), BuildingBlock: AJUNOK_clean_linker_0, # of connection points: 2
#     Edge 25, Type (0, 0), BuildingBlock: AJUNOK_clean_linker_0, # of connection points: 2
#     Edge 26, Type (0, 0), BuildingBlock: AJUNOK_clean_linker_0, # of connection points: 2
#     Edge 27, Type (0, 0), BuildingBlock: AJUNOK_clean_linker_0, # of connection points: 2
#     Edge 28, Type (0, 0), BuildingBlock: AJUNOK_clean_linker_0, # of connection points: 2
#     Edge 29, Type (0, 0), BuildingBlock: AJUNOK_clean_linker_0, # of connection points: 2
#     Edge 30, Type (0, 0), BuildingBlock: AJUNOK_clean_linker_0, # of connection points: 2
#     Edge 31, Type (0, 0), BuildingBlock: AJUNOK_clean_linker_0, # of connection points: 2
# Relax obj value: 0.265
# Max RMSD: 0.254
# Mean RMSD: 0.252
data_MOF--net-sne--node1-IZENUY_clean_sbu_0--edge1-AJUNOK_clean_linker_0
_symmetry_space_group_name_H-M    P1
_symmetry_Int_Tables_number       1
_symmetry_cell_setting            triclinic
loop_
_symmetry_equiv_pos_as_xyz
'x, y, z'
_cell_length_a     26.122245
_cell_length_b     25.947952
_cell_length_c     19.574251
_cell_angle_alpha  90.0201
_cell_angle_beta   90.326057
_cell_angle_gamma 89.962997
loop_
_atom_site_label
_atom_site_type_symbol
_atom_site_fract_x
_atom_site_fract_y
_atom_site_fract_z
_atom_type_partial_charge
Fe0 Fe 0.2637 0.22497 0.36795 0.0
Fe1 Fe 0.21388 0.1214 0.32967 0.0
O2 O 0.26408 0.15669 0.36932 0.0
Fe3 Fe 0.31469 0.1227 0.41029 0.0
O4 O 0.32893 0.17265 0.47567 0.0
O5 O 0.26846 0.22969 0.45866 0.0
O6 O 0.19291 0.22974 0.38059 0.0
C7 C 0.1608 0.19544 0.39925 0.0
C8 C 0.36677 0.19566 0.33748 0.0
O9 O 0.16797 0.1486 0.38631 0.0
C10 C 0.29332 0.06206 0.29164 0.0
O11 O 0.25887 0.22765 0.27706 0.0
O12 O 0.199 0.16962 0.26259 0.0
O13 O 0.36032 0.14911 0.35261 0.0
O14 O 0.33441 0.23009 0.35507 0.0
C15 C 0.23587 0.06328 0.45026 0.0
O16 O 0.25762 0.09091 0.27086 0.0
O17 O 0.31119 0.06693 0.35184 0.0
C18 C 0.22365 0.20854 0.24198 0.0
O19 O 0.21806 0.06693 0.38991 0.0
O20 O 0.27127 0.09283 0.4702 0.0
C21 C 0.30388 0.21192 0.49468 0.0
Fe22 Fe 0.22015 0.76839 0.62025 0.0
Fe23 Fe 0.11788 0.81779 0.66213 0.0
O24 O 0.15235 0.76826 0.62024 0.0
Fe25 Fe 0.11811 0.71824 0.57799 0.0
O26 O 0.14423 0.67165 0.63511 0.0
O27 O 0.22484 0.69709 0.63045 0.0
O28 O 0.22458 0.77093 0.7111 0.0
C29 C 0.20589 0.8049 0.74863 0.0
C30 C 0.20561 0.7302 0.49342 0.0
O31 O 0.16638 0.82993 0.73027 0.0
C32 C 0.05973 0.79872 0.53997 0.0
O33 O 0.22532 0.83963 0.61037 0.0
O34 O 0.1449 0.86562 0.60807 0.0
O35 O 0.16749 0.70417 0.51299 0.0
O36 O 0.22296 0.76599 0.52927 0.0
C37 C 0.05724 0.73825 0.69551 0.0
O38 O 0.06383 0.81583 0.60075 0.0
O39 O 0.08886 0.76328 0.51907 0.0
C40 C 0.19116 0.87258 0.594 0.0
O41 O 0.08716 0.77227 0.71851 0.0
O42 O 0.06248 0.72122 0.63523 0.0
C43 C 0.19072 0.66494 0.64923 0.0
Fe44 Fe 0.76456 0.81264 0.37259 0.0
Fe45 Fe 0.71495 0.91472 0.41423 0.0
O46 O 0.76426 0.88061 0.37223 0.0
Fe47 Fe 0.81327 0.91514 0.32993 0.0
O48 O 0.82615 0.86486 0.26366 0.0
O49 O 0.76475 0.80962 0.2818 0.0
O50 O 0.69347 0.8072 0.36435 0.0
C51 C 0.6611 0.84133 0.34559 0.0
C52 C 0.8679 0.84237 0.39917 0.0
O53 O 0.66806 0.88812 0.35853 0.0
C54 C 0.79358 0.97519 0.45009 0.0
O55 O 0.76423 0.80964 0.46349 0.0
O56 O 0.7025 0.8648 0.48063 0.0
O57 O 0.86047 0.88903 0.38575 0.0
O58 O 0.83575 0.80788 0.38091 0.0
C59 C 0.73344 0.97462 0.2938 0.0
O60 O 0.76017 0.9444 0.47184 0.0
O61 O 0.81071 0.97085 0.38949 0.0
C62 C 0.72899 0.82638 0.50007 0.0
O63 O 0.71696 0.97021 0.35465 0.0
O64 O 0.76782 0.94475 0.27205 0.0
C65 C 0.80035 0.82558 0.24544 0.0
Fe66 Fe 0.9106 0.32268 0.57699 0.0
Fe67 Fe 0.90992 0.22158 0.6577 0.0
O68 O 0.87594 0.2725 0.61747 0.0
Fe69 Fe 0.80816 0.27315 0.61794 0.0
O70 O 0.80399 0.27699 0.52702 0.0
O71 O 0.8615 0.33707 0.51054 0.0
O72 O 0.94043 0.27821 0.51784 0.0
C73 C 0.96948 0.24253 0.53857 0.0
C74 C 0.83814 0.37708 0.64661 0.0
O75 O 0.96483 0.22471 0.59872 0.0
C76 C 0.82279 0.23344 0.74434 0.0
O77 O 0.96527 0.31871 0.63665 0.0
O78 O 0.94014 0.2654 0.71714 0.0
O79 O 0.80399 0.34432 0.62933 0.0
O80 O 0.88459 0.36952 0.63398 0.0
C81 C 0.83604 0.16909 0.58785 0.0
O82 O 0.86098 0.20759 0.72392 0.0
O83 O 0.80505 0.26943 0.70907 0.0
C84 C 0.96919 0.301 0.69697 0.0
O85 O 0.8828 0.17579 0.60005 0.0
O86 O 0.80253 0.202 0.60647 0.0
C87 C 0.82205 0.31242 0.49135 0.0
Fe88 Fe 0.31563 0.41416 0.83256 0.0
Fe89 Fe 0.26305 0.31112 0.86484 0.0
O90 O 0.26445 0.37927 0.86957 0.0
Fe91 Fe 0.21497 0.41344 0.91125 0.0
O92 O 0.21941 0.47001 0.8543 0.0
O93 O 0.27293 0.44649 0.77365 0.0
O94 O 0.32986 0.36645 0.76443 0.0
C95 C 0.30352 0.32947 0.74081 0.0
C96 C 0.29407 0.47113 0.95399 0.0
O97 O 0.26686 0.31139 0.77372 0.0
C98 C 0.22484 0.32256 0.99255 0.0
O99 O 0.35993 0.38472 0.8899 0.0
O100 O 0.33356 0.30436 0.87643 0.0
O101 O 0.25919 0.44084 0.9724 0.0
O102 O 0.31245 0.46809 0.89415 0.0
C103 C 0.16074 0.34315 0.83673 0.0
O104 O 0.259 0.304 0.95541 0.0
O105 O 0.20045 0.36268 0.97484 0.0
C106 C 0.36603 0.33716 0.89844 0.0
O107 O 0.19246 0.30778 0.85277 0.0
O108 O 0.1685 0.38928 0.85277 0.0
C109 C 0.23738 0.47533 0.79443 0.0
Fe110 Fe 0.31011 0.76597 0.12534 0.0
Fe111 Fe 0.41223 0.81506 0.08277 0.0
O112 O 0.37788 0.76575 0.12481 0.0
Fe113 Fe 0.4123 0.71561 0.16668 0.0
O114 O 0.38631 0.66924 0.10859 0.0
O115 O 0.3056 0.69465 0.11535 0.0
O116 O 0.30509 0.76872 0.03441 0.0
C117 C 0.32374 0.80277 -0.00303 0.0
C118 C 0.32507 0.7273 0.25151 0.0
O119 O 0.36388 0.82698 0.01455 0.0
C120 C 0.46966 0.79652 0.20565 0.0
O121 O 0.30485 0.83715 0.1353 0.0
O122 O 0.38517 0.86332 0.13623 0.0
O123 O 0.36276 0.70095 0.23119 0.0
O124 O 0.30786 0.76354 0.21639 0.0
C125 C 0.47463 0.73694 0.05098 0.0
O126 O 0.46582 0.81345 0.14475 0.0
O127 O 0.44097 0.76061 0.22622 0.0
C128 C 0.33901 0.87027 0.15083 0.0
O129 O 0.44303 0.76897 0.02688 0.0
O130 O 0.4687 0.7193 0.11072 0.0
C131 C 0.33944 0.66201 0.09684 0.0
Fe132 Fe 0.81892 0.62766 0.90471 0.0
Fe133 Fe 0.76658 0.73079 0.87278 0.0
O134 O 0.76543 0.66214 0.87259 0.0
Fe135 Fe 0.71073 0.62963 0.84051 0.0
O136 O 0.70123 0.59366 0.92028 0.0
O137 O 0.78216 0.57564 0.94136 0.0
O138 O 0.81441 0.6606 0.98762 0.0
C139 C 0.8167 0.70895 0.995 0.0
C140 C 0.79205 0.56672 0.79365 0.0
O141 O 0.81047 0.73782 0.94433 0.0
C142 C 0.71466 0.71059 0.75063 0.0
O143 O 0.86531 0.67371 0.87185 0.0
O144 O 0.82031 0.73108 0.81328 0.0
O145 O 0.74551 0.57593 0.80442 0.0
O146 O 0.82689 0.59111 0.82538 0.0
C147 C 0.67019 0.711 0.91911 0.0
O148 O 0.72311 0.73935 0.80095 0.0
O149 O 0.71649 0.66215 0.75748 0.0
C150 C 0.86146 0.70624 0.82398 0.0
O151 O 0.71276 0.73255 0.93235 0.0
O152 O 0.66596 0.67783 0.87207 0.0
C153 C 0.73531 0.56803 0.95202 0.0
Fe154 Fe 0.71934 0.27053 0.12028 0.0
Fe155 Fe 0.6162 0.32001 0.15741 0.0
O156 O 0.65163 0.26978 0.11818 0.0
Fe157 Fe 0.6184 0.21893 0.07686 0.0
O158 O 0.64478 0.17284 0.13441 0.0
O159 O 0.72503 0.19928 0.13249 0.0
O160 O 0.72141 0.27436 0.21123 0.0
C161 C 0.70312 0.31022 0.2459 0.0
C162 C 0.70681 0.23148 0.99263 0.0
O163 O 0.66453 0.33534 0.22467 0.0
C164 C 0.55807 0.29697 0.03705 0.0
O165 O 0.72329 0.342 0.10865 0.0
O166 O 0.64252 0.3665 0.1003 0.0
O167 O 0.66817 0.2056 0.01149 0.0
O168 O 0.72451 0.26663 0.02943 0.0
C169 C 0.55758 0.23981 0.19537 0.0
O170 O 0.56186 0.31528 0.09712 0.0
O171 O 0.58888 0.26291 0.01708 0.0
C172 C 0.6892 0.37451 0.08975 0.0
O173 O 0.58639 0.27559 0.21633 0.0
O174 O 0.56284 0.22167 0.13532 0.0
C175 C 0.69099 0.1666 0.15006 0.0
C176 C 0.2699 0.992 0.20836 0.0
C177 C 0.30627 0.01514 0.25231 0.0
C178 C 0.27974 0.9444 0.17655 0.0
C179 C 0.32658 0.91887 0.18685 0.0
H180 H 0.23305 1.01011 0.19979 0.0
H181 H 0.25088 0.92789 0.14317 0.0
S182 S 0.43454 0.9634 0.29682 0.0
N183 N 0.3908 1.00893 0.30394 0.0
N184 N 0.4095 0.92012 0.24475 0.0
C185 C 0.36328 0.94192 0.2304 0.0
C186 C 0.35312 0.98988 0.26287 0.0
C187 C 0.9836 0.76959 0.76549 0.0
C188 C 1.00799 0.72921 0.72998 0.0
C189 C 0.93423 0.76335 0.79232 0.0
C190 C 0.9081 0.71646 0.78486 0.0
H191 H 1.00241 0.8065 0.77167 0.0
H192 H 0.91714 0.79468 0.82082 0.0
S193 S 0.95504 0.59901 0.69721 0.0
N194 N 1.00195 0.6411 0.68874 0.0
N195 N 0.90984 0.62912 0.74034 0.0
C196 C 0.932 0.67598 0.74961 0.0
C197 C 0.98178 0.68243 0.72178 0.0
C198 C 0.75774 0.04377 0.2098 0.0
C199 C 0.72151 0.02225 0.25492 0.0
C200 C 0.74898 0.09147 0.17746 0.0
C201 C 0.70338 0.11885 0.18842 0.0
H202 H 0.79361 0.02413 0.20035 0.0
H203 H 0.77752 0.10641 0.14277 0.0
S204 S 0.59645 0.07944 0.30189 0.0
N205 N 0.63859 0.0323 0.30871 0.0
N206 N 0.62192 0.12131 0.24859 0.0
C207 C 0.66699 0.09767 0.23356 0.0
C208 C 0.67606 0.04957 0.26653 0.0
C209 C 0.087 0.28449 0.8092 0.0
C210 C 0.11211 0.33189 0.80091 0.0
C211 C 0.03932 0.27544 0.77795 0.0
C212 C 0.0157 0.31327 0.73674 0.0
H213 H 0.10396 0.25451 0.84051 0.0
H214 H 0.02158 0.23806 0.78457 0.0
S215 S 0.0658 0.44368 0.69868 0.0
N216 N 0.10982 0.41703 0.74806 0.0
N217 N 0.02051 0.39982 0.69015 0.0
C218 C 0.04035 0.36077 0.72839 0.0
C219 C 0.0885 0.37009 0.76017 0.0
C220 C 0.36124 0.59088 0.01745 0.0
C221 C 0.32556 0.61329 0.06228 0.0
C222 C 0.35118 0.54423 0.98445 0.0
C223 C 0.30527 0.51754 0.99546 0.0
H224 H 0.39725 0.60993 0.00691 0.0
H225 H 0.37956 0.52916 0.94954 0.0
S226 S 0.19953 0.55896 0.10947 0.0
N227 N 0.24276 0.60507 0.11693 0.0
N228 N 0.22364 0.51666 0.05535 0.0
C229 C 0.26938 0.53901 0.04108 0.0
C230 C 0.27947 0.58716 0.07413 0.0
C231 C 0.57688 0.72818 0.91548 0.0
C232 C 0.6226 0.72575 0.95393 0.0
C233 C 0.52918 0.73214 0.94721 0.0
C234 C 0.52539 0.7325 0.01861 0.0
H235 H 0.57793 0.72577 0.86022 0.0
H236 H 0.49498 0.73357 0.91568 0.0
S237 S 0.63409 0.73127 0.14231 0.0
N238 N 0.66157 0.72742 0.06668 0.0
N239 N 0.57186 0.734 0.12712 0.0
C240 C 0.57102 0.73181 0.05775 0.0
C241 C 0.6197 0.72881 0.02518 0.0
C242 C 0.66535 0.44932 0.01567 0.0
C243 C 0.7023 0.42452 0.05727 0.0
C244 C 0.67501 0.49705 0.98471 0.0
C245 C 0.72204 0.52221 0.99414 0.0
H246 H 0.6287 0.4312 0.00571 0.0
H247 H 0.64606 0.51333 0.95125 0.0
S248 S 0.82957 0.47667 0.10447 0.0
N249 N 0.78627 0.43057 0.11007 0.0
N250 N 0.80466 0.52057 0.05305 0.0
C251 C 0.75865 0.49878 0.03788 0.0
C252 C 0.74886 0.44987 0.06888 0.0
C253 C 0.476 0.34397 0.02194 0.0
C254 C 0.51023 0.30635 -0.002 0.0
C255 C 0.42858 0.35156 0.99066 0.0
C256 C 0.4131 0.32179 0.93428 0.0
H257 H 0.48571 0.36793 0.06546 0.0
H258 H 0.40387 0.38159 0.01048 0.0
S259 S 0.48801 0.21908 0.84989 0.0
N260 N 0.52521 0.23906 0.91312 0.0
N261 N 0.43522 0.254 0.85439 0.0
C262 C 0.44632 0.28386 0.90952 0.0
C263 C 0.49521 0.27617 0.94116 0.0
C264 C 0.85305 0.49875 0.75298 0.0
C265 C 0.80426 0.52134 0.75013 0.0
C266 C 0.86326 0.45236 0.71901 0.0
C267 C 0.82508 0.42632 0.68096 0.0
H268 H 0.88328 0.51609 0.78329 0.0
H269 H 0.90137 0.43622 0.72396 0.0
S270 S 0.69224 0.47139 0.65169 0.0
N271 N 0.71808 0.51578 0.7015 0.0
N272 N 0.73759 0.4282 0.63895 0.0
C273 C 0.77656 0.44903 0.67604 0.0
C274 C 0.76615 0.49662 0.71007 0.0
C275 C 0.48838 0.26384 0.27891 0.0
C276 C 0.51036 0.22741 0.23409 0.0
C277 C 0.44106 0.25457 0.3109 0.0
C278 C 0.41449 0.2082 0.29997 0.0
H279 H 0.50732 0.3003 0.28836 0.0
H280 H 0.42573 0.28339 0.34521 0.0
S281 S 0.45544 0.10032 0.18739 0.0
N282 N 0.50163 0.14333 0.1808 0.0
N283 N 0.41342 0.12576 0.24023 0.0
C284 C 0.43621 0.17154 0.25529 0.0
C285 C 0.48392 0.18112 0.22264 0.0
C286 C 0.24954 0.59067 0.67549 0.0
C287 C 0.20369 0.61741 0.68714 0.0
C288 C 0.25953 0.54363 0.70859 0.0
C289 C 0.22433 0.5223 0.75518 0.0
H290 H 0.27738 0.60568 0.63985 0.0
H291 H 0.29554 0.52441 0.69858 0.0
S292 S 0.09912 0.57825 0.80439 0.0
N293 N 0.12314 0.61969 0.74934 0.0
N294 N 0.14201 0.53181 0.81104 0.0
C295 C 0.17854 0.54898 0.76736 0.0
C296 C 0.16825 0.59641 0.73356 0.0
C297 C 0.58592 0.78291 0.32252 0.0
C298 C 0.61305 0.82846 0.30914 0.0
C299 C 0.5381 0.77373 0.29137 0.0
C300 C 0.51633 0.80952 0.24524 0.0
H301 H 0.60128 0.7547 0.3579 0.0
H302 H 0.51878 0.73775 0.30214 0.0
S303 S 0.57285 0.93428 0.19227 0.0
N304 N 0.61509 0.9093 0.24573 0.0
N305 N 0.52573 0.89211 0.18822 0.0
C306 C 0.54329 0.85507 0.23162 0.0
C307 C 0.59154 0.86444 0.26314 0.0
C308 C 0.85864 0.09745 0.50941 0.0
C309 C 0.82224 0.12044 0.55287 0.0
C310 C 0.84936 0.05012 0.47762 0.0
C311 C 0.80358 0.02329 0.48862 0.0
H312 H 0.89481 0.11637 0.49942 0.0
H313 H 0.87838 0.03439 0.44418 0.0
S314 S 0.69548 0.06668 0.59743 0.0
N315 N 0.73846 0.11303 0.60488 0.0
N316 N 0.72074 0.02346 0.54559 0.0
C317 C 0.7667 0.04565 0.53213 0.0
C318 C 0.776 0.09445 0.5639 0.0
C319 C 0.08713 0.2557 0.42487 0.0
C320 C 0.11246 0.20848 0.43524 0.0
C321 C 0.03966 0.26584 0.4561 0.0
C322 C 0.01626 0.22938 0.49944 0.0
H323 H 0.10369 0.28464 0.39184 0.0
H324 H 0.02182 0.30299 0.44754 0.0
S325 S 0.06711 0.1001 0.54386 0.0
N326 N 0.11054 0.12517 0.49288 0.0
N327 N 0.02194 0.14424 0.55031 0.0
C328 C 0.04126 0.18215 0.51 0.0
C329 C 0.08916 0.17176 0.47835 0.0
C330 C 0.24967 0.94744 0.56868 0.0
C331 C 0.20357 0.92085 0.55729 0.0
C332 C 0.25915 0.9949 0.53626 0.0
C333 C 0.22314 0.01681 0.49068 0.0
H334 H 0.27819 0.93189 0.60338 0.0
H335 H 0.29546 0.01384 0.54564 0.0
S336 S 0.09685 0.96183 0.44284 0.0
N337 N 0.12184 0.91968 0.49654 0.0
N338 N 0.13968 1.00823 0.43644 0.0
C339 C 0.177 0.99047 0.47913 0.0
C340 C 0.16727 0.94265 0.51209 0.0
C341 C 0.99078 0.77491 0.45538 0.0
C342 C 0.01283 0.81129 0.50047 0.0
C343 C 0.94305 0.78399 0.42382 0.0
C344 C 0.91624 0.83004 0.43564 0.0
H345 H 1.00988 0.7386 0.44566 0.0
H346 H 0.9275 0.75524 0.38936 0.0
S347 S 0.95748 0.93765 0.54909 0.0
N348 N 1.00414 0.89498 0.55475 0.0
N349 N 0.91506 0.91217 0.49629 0.0
C350 C 0.93812 0.86668 0.48047 0.0
C351 C 0.98625 0.85734 0.51253 0.0
C352 C 0.2156 0.23947 0.05482 0.0
C353 C 0.21223 0.29381 0.0553 0.0
C354 C 0.2141 0.21088 0.11554 0.0
C355 C 0.20989 0.23586 0.17865 0.0
H356 H 0.22193 0.21905 0.00731 0.0
H357 H 0.22018 0.16959 0.11343 0.0
S358 S 0.19397 0.37635 0.20736 0.0
N359 N 0.1993 0.37069 0.12363 0.0
N360 N 0.19747 0.31716 0.23819 0.0
C361 C 0.20288 0.28971 0.17951 0.0
C362 C 0.20367 0.31871 0.11763 0.0
C363 C 0.3183 0.81564 0.87054 0.0
C364 C 0.29452 0.81593 0.93446 0.0
C365 C 0.28886 0.81569 0.8103 0.0
C366 C 0.23476 0.81688 0.81193 0.0
H367 H 0.3595 0.81168 0.86705 0.0
H368 H 0.30857 0.81227 0.76194 0.0
S369 S 0.15481 0.82532 0.96681 0.0
N370 N 0.21417 0.82277 0.99623 0.0
N371 N 0.15921 0.82367 0.88267 0.0
C372 C 0.21085 0.82151 0.87537 0.0
C373 C 0.2407 0.82071 0.93676 0.0
C374 C 0.83352 0.81576 0.12574 0.0
C375 C 0.81356 0.79357 0.18511 0.0
C376 C 0.8379 0.78672 0.06546 0.0
C377 C 0.82297 0.73432 0.0625 0.0
H378 H 0.84308 0.85637 0.12469 0.0
H379 H 0.85096 0.80625 0.01987 0.0
S380 S 0.77596 0.6561 0.20727 0.0
N381 N 0.78473 0.71418 0.23971 0.0
N382 N 0.79264 0.66041 0.1263 0.0
C383 C 0.80682 0.71073 0.12293 0.0
C384 C 0.80211 0.7402 0.18417 0.0
C385 C 0.81854 0.22127 0.87083 0.0
C386 C 0.7943 0.21971 0.80684 0.0
C387 C 0.78959 0.22154 0.93112 0.0
C388 C 0.73553 0.21936 0.92954 0.0
H389 H 0.85967 0.22606 0.87425 0.0
H390 H 0.80961 0.22595 0.97941 0.0
S391 S 0.65451 0.20828 0.7746 0.0
N392 N 0.7136 0.21135 0.74517 0.0
N393 N 0.65956 0.21073 0.85873 0.0
C394 C 0.71122 0.21364 0.86607 0.0
C395 C 0.74057 0.21423 0.80463 0.0
C396 C 0.73263 0.74361 0.565 0.0
C397 C 0.71646 0.79563 0.5617 0.0
C398 C 0.7277 0.71436 0.62472 0.0
C399 C 0.70673 0.73607 0.68375 0.0
H400 H 0.75099 0.72558 0.52162 0.0
H401 H 0.74353 0.67575 0.62589 0.0
S402 S 0.65144 0.86765 0.69951 0.0
N403 N 0.67325 0.86536 0.62054 0.0
N404 N 0.66392 0.81064 0.73328 0.0
C405 C 0.68686 0.78671 0.67978 0.0
C406 C 0.69167 0.81641 0.61865 0.0
C407 C 0.81614 0.3254 0.36528 0.0
C408 C 0.79276 0.32659 0.42944 0.0
C409 C 0.78629 0.32426 0.30546 0.0
C410 C 0.73223 0.32499 0.30784 0.0
H411 H 0.85729 0.3212 0.36142 0.0
H412 H 0.80564 0.31982 0.25697 0.0
S413 S 0.65334 0.3361 0.46337 0.0
N414 N 0.71292 0.33439 0.49209 0.0
N415 N 0.65713 0.33293 0.37923 0.0
C416 C 0.70872 0.33097 0.37135 0.0
C417 C 0.739 0.33148 0.43233 0.0
C418 C 0.31461 0.32533 0.61484 0.0
C419 C 0.31846 0.30138 0.67869 0.0
C420 C 0.31381 0.29578 0.55484 0.0
C421 C 0.31739 0.24145 0.55677 0.0
H422 H 0.30816 0.36651 0.61148 0.0
H423 H 0.30753 0.31544 0.50667 0.0
S424 S 0.33539 0.16151 0.71146 0.0
N425 N 0.33122 0.22112 0.74064 0.0
N426 N 0.33051 0.16578 0.62743 0.0
C427 C 0.32582 0.21761 0.61995 0.0
C428 C 0.326 0.24761 0.68111 0.0
C429 C 0.31922 0.71624 0.37712 0.0
C430 C 0.296 0.71325 0.31268 0.0
C431 C 0.28923 0.71797 0.43617 0.0
C432 C 0.23527 0.71607 0.43249 0.0
H433 H 0.36027 0.72138 0.38163 0.0
H434 H 0.3083 0.72361 0.48492 0.0
S435 S 0.15707 0.70052 0.27581 0.0
N436 N 0.21672 0.70289 0.24833 0.0
N437 N 0.16049 0.70525 0.35991 0.0
C438 C 0.21201 0.70837 0.36879 0.0
C439 C 0.24245 0.70731 0.30859 0.0
loop_
_geom_bond_atom_site_label_1
_geom_bond_atom_site_label_2
_geom_bond_distance
_geom_bond_site_symmetry_2
_ccdc_geom_bond_type
Fe0 O2 1.918 . S
Fe0 O5 1.997 . S
Fe0 O6 2.002 . S
Fe0 O11 1.976 . S
Fe0 O14 1.996 . S
Fe1 O2 1.918 . S
Fe1 O9 1.997 . S
Fe1 O12 1.996 . S
Fe1 O16 1.976 . S
Fe1 O19 2.002 . S
O2 Fe0 1.918 . S
O2 Fe1 1.918 . S
O2 Fe3 1.918 . S
Fe3 O2 1.918 . S
Fe3 O4 2.002 . S
Fe3 O13 1.976 . S
Fe3 O17 1.996 . S
Fe3 O20 1.997 . S
O4 Fe3 2.002 . S
O4 C21 1.295 . S
O5 Fe0 1.997 . S
O5 C21 1.235 . S
O6 Fe0 2.002 . S
O6 C7 1.295 . S
C7 O6 1.295 . S
C7 O9 1.235 . S
C8 O13 1.287 . S
C8 O14 1.255 . S
O9 Fe1 1.997 . S
O9 C7 1.235 . S
C10 O16 1.287 . S
C10 O17 1.255 . S
O11 Fe0 1.976 . S
O11 C18 1.287 . S
O12 Fe1 1.996 . S
O12 C18 1.255 . S
O13 Fe3 1.976 . S
O13 C8 1.287 . S
O14 Fe0 1.996 . S
O14 C8 1.255 . S
C15 O19 1.295 . S
C15 O20 1.235 . S
O16 Fe1 1.976 . S
O16 C10 1.287 . S
O17 Fe3 1.996 . S
O17 C10 1.255 . S
C18 O11 1.287 . S
C18 O12 1.255 . S
O19 Fe1 2.002 . S
O19 C15 1.295 . S
O20 Fe3 1.997 . S
O20 C15 1.235 . S
C21 O4 1.295 . S
C21 O5 1.235 . S
Fe22 O24 1.918 . S
Fe22 O27 1.997 . S
Fe22 O28 2.002 . S
Fe22 O33 1.976 . S
Fe22 O36 1.996 . S
Fe23 O24 1.918 . S
Fe23 O31 1.997 . S
Fe23 O34 1.996 . S
Fe23 O38 1.976 . S
Fe23 O41 2.002 . S
O24 Fe22 1.918 . S
O24 Fe23 1.918 . S
O24 Fe25 1.918 . S
Fe25 O24 1.918 . S
Fe25 O26 2.002 . S
Fe25 O35 1.976 . S
Fe25 O39 1.996 . S
Fe25 O42 1.997 . S
O26 Fe25 2.002 . S
O26 C43 1.295 . S
O27 Fe22 1.997 . S
O27 C43 1.235 . S
O28 Fe22 2.002 . S
O28 C29 1.295 . S
C29 O28 1.295 . S
C29 O31 1.235 . S
C30 O35 1.287 . S
C30 O36 1.255 . S
O31 Fe23 1.997 . S
O31 C29 1.235 . S
C32 O38 1.287 . S
C32 O39 1.255 . S
O33 Fe22 1.976 . S
O33 C40 1.287 . S
O34 Fe23 1.996 . S
O34 C40 1.255 . S
O35 Fe25 1.976 . S
O35 C30 1.287 . S
O36 Fe22 1.996 . S
O36 C30 1.255 . S
C37 O41 1.295 . S
C37 O42 1.235 . S
O38 Fe23 1.976 . S
O38 C32 1.287 . S
O39 Fe25 1.996 . S
O39 C32 1.255 . S
C40 O33 1.287 . S
C40 O34 1.255 . S
O41 Fe23 2.002 . S
O41 C37 1.295 . S
O42 Fe25 1.997 . S
O42 C37 1.235 . S
C43 O26 1.295 . S
C43 O27 1.235 . S
Fe44 O46 1.918 . S
Fe44 O49 1.997 . S
Fe44 O50 2.002 . S
Fe44 O55 1.976 . S
Fe44 O58 1.996 . S
Fe45 O46 1.918 . S
Fe45 O53 1.997 . S
Fe45 O56 1.996 . S
Fe45 O60 1.976 . S
Fe45 O63 2.002 . S
O46 Fe44 1.918 . S
O46 Fe45 1.918 . S
O46 Fe47 1.918 . S
Fe47 O46 1.918 . S
Fe47 O48 2.002 . S
Fe47 O57 1.976 . S
Fe47 O61 1.996 . S
Fe47 O64 1.997 . S
O48 Fe47 2.002 . S
O48 C65 1.295 . S
O49 Fe44 1.997 . S
O49 C65 1.235 . S
O50 Fe44 2.002 . S
O50 C51 1.295 . S
C51 O50 1.295 . S
C51 O53 1.235 . S
C52 O57 1.287 . S
C52 O58 1.255 . S
O53 Fe45 1.997 . S
O53 C51 1.235 . S
C54 O60 1.287 . S
C54 O61 1.255 . S
O55 Fe44 1.976 . S
O55 C62 1.287 . S
O56 Fe45 1.996 . S
O56 C62 1.255 . S
O57 Fe47 1.976 . S
O57 C52 1.287 . S
O58 Fe44 1.996 . S
O58 C52 1.255 . S
C59 O63 1.295 . S
C59 O64 1.235 . S
O60 Fe45 1.976 . S
O60 C54 1.287 . S
O61 Fe47 1.996 . S
O61 C54 1.255 . S
C62 O55 1.287 . S
C62 O56 1.255 . S
O63 Fe45 2.002 . S
O63 C59 1.295 . S
O64 Fe47 1.997 . S
O64 C59 1.235 . S
C65 O48 1.295 . S
C65 O49 1.235 . S
Fe66 O68 1.918 . S
Fe66 O71 1.997 . S
Fe66 O72 2.002 . S
Fe66 O77 1.976 . S
Fe66 O80 1.996 . S
Fe67 O68 1.918 . S
Fe67 O75 1.997 . S
Fe67 O78 1.996 . S
Fe67 O82 1.976 . S
Fe67 O85 2.002 . S
O68 Fe66 1.918 . S
O68 Fe67 1.918 . S
O68 Fe69 1.918 . S
Fe69 O68 1.918 . S
Fe69 O70 2.002 . S
Fe69 O79 1.976 . S
Fe69 O83 1.996 . S
Fe69 O86 1.997 . S
O70 Fe69 2.002 . S
O70 C87 1.295 . S
O71 Fe66 1.997 . S
O71 C87 1.235 . S
O72 Fe66 2.002 . S
O72 C73 1.295 . S
C73 O72 1.295 . S
C73 O75 1.235 . S
C74 O79 1.287 . S
C74 O80 1.255 . S
O75 Fe67 1.997 . S
O75 C73 1.235 . S
C76 O82 1.287 . S
C76 O83 1.255 . S
O77 Fe66 1.976 . S
O77 C84 1.287 . S
O78 Fe67 1.996 . S
O78 C84 1.255 . S
O79 Fe69 1.976 . S
O79 C74 1.287 . S
O80 Fe66 1.996 . S
O80 C74 1.255 . S
C81 O85 1.295 . S
C81 O86 1.235 . S
O82 Fe67 1.976 . S
O82 C76 1.287 . S
O83 Fe69 1.996 . S
O83 C76 1.255 . S
C84 O77 1.287 . S
C84 O78 1.255 . S
O85 Fe67 2.002 . S
O85 C81 1.295 . S
O86 Fe69 1.997 . S
O86 C81 1.235 . S
C87 O70 1.295 . S
C87 O71 1.235 . S
Fe88 O90 1.918 . S
Fe88 O93 1.997 . S
Fe88 O94 2.002 . S
Fe88 O99 1.976 . S
Fe88 O102 1.996 . S
Fe89 O90 1.918 . S
Fe89 O97 1.997 . S
Fe89 O100 1.996 . S
Fe89 O104 1.976 . S
Fe89 O107 2.002 . S
O90 Fe88 1.918 . S
O90 Fe89 1.918 . S
O90 Fe91 1.918 . S
Fe91 O90 1.918 . S
Fe91 O92 2.002 . S
Fe91 O101 1.976 . S
Fe91 O105 1.996 1_556 S
Fe91 O108 1.997 . S
O92 Fe91 2.002 . S
O92 C109 1.295 . S
O93 Fe88 1.997 . S
O93 C109 1.235 . S
O94 Fe88 2.002 . S
O94 C95 1.295 . S
C95 O94 1.295 . S
C95 O97 1.235 . S
C96 O101 1.287 . S
C96 O102 1.255 . S
O97 Fe89 1.997 . S
O97 C95 1.235 . S
C98 O104 1.287 1_554 S
C98 O105 1.255 . S
O99 Fe88 1.976 . S
O99 C106 1.287 . S
O100 Fe89 1.996 . S
O100 C106 1.255 . S
O101 Fe91 1.976 . S
O101 C96 1.287 . S
O102 Fe88 1.996 . S
O102 C96 1.255 . S
C103 O107 1.295 . S
C103 O108 1.235 . S
O104 Fe89 1.976 . S
O104 C98 1.287 1_556 S
O105 Fe91 1.996 1_554 S
O105 C98 1.255 . S
C106 O99 1.287 . S
C106 O100 1.255 . S
O107 Fe89 2.002 . S
O107 C103 1.295 . S
O108 Fe91 1.997 . S
O108 C103 1.235 . S
C109 O92 1.295 . S
C109 O93 1.235 . S
Fe110 O112 1.918 . S
Fe110 O115 1.997 . S
Fe110 O116 2.002 . S
Fe110 O121 1.976 . S
Fe110 O124 1.996 . S
Fe111 O112 1.918 . S
Fe111 O119 1.997 . S
Fe111 O122 1.996 . S
Fe111 O126 1.976 . S
Fe111 O129 2.002 . S
O112 Fe110 1.918 . S
O112 Fe111 1.918 . S
O112 Fe113 1.918 . S
Fe113 O112 1.918 . S
Fe113 O114 2.002 . S
Fe113 O123 1.976 . S
Fe113 O127 1.996 . S
Fe113 O130 1.997 . S
O114 Fe113 2.002 . S
O114 C131 1.295 . S
O115 Fe110 1.997 . S
O115 C131 1.235 . S
O116 Fe110 2.002 . S
O116 C117 1.295 1_554 S
C117 O116 1.295 1_556 S
C117 O119 1.235 1_556 S
C118 O123 1.287 . S
C118 O124 1.255 . S
O119 Fe111 1.997 . S
O119 C117 1.235 1_554 S
C120 O126 1.287 . S
C120 O127 1.255 . S
O121 Fe110 1.976 . S
O121 C128 1.287 . S
O122 Fe111 1.996 . S
O122 C128 1.255 . S
O123 Fe113 1.976 . S
O123 C118 1.287 . S
O124 Fe110 1.996 . S
O124 C118 1.255 . S
C125 O129 1.295 . S
C125 O130 1.235 . S
O126 Fe111 1.976 . S
O126 C120 1.287 . S
O127 Fe113 1.996 . S
O127 C120 1.255 . S
C128 O121 1.287 . S
C128 O122 1.255 . S
O129 Fe111 2.002 . S
O129 C125 1.295 . S
O130 Fe113 1.997 . S
O130 C125 1.235 . S
C131 O114 1.295 . S
C131 O115 1.235 . S
Fe132 O134 1.918 . S
Fe132 O137 1.997 . S
Fe132 O138 2.002 1_556 S
Fe132 O143 1.976 . S
Fe132 O146 1.996 . S
Fe133 O134 1.918 . S
Fe133 O141 1.997 . S
Fe133 O144 1.996 . S
Fe133 O148 1.976 . S
Fe133 O151 2.002 . S
O134 Fe132 1.918 . S
O134 Fe133 1.918 . S
O134 Fe135 1.918 . S
Fe135 O134 1.918 . S
Fe135 O136 2.002 . S
Fe135 O145 1.976 . S
Fe135 O149 1.996 . S
Fe135 O152 1.997 . S
O136 Fe135 2.002 . S
O136 C153 1.295 . S
O137 Fe132 1.997 . S
O137 C153 1.235 . S
O138 Fe132 2.002 1_554 S
O138 C139 1.295 . S
C139 O138 1.295 . S
C139 O141 1.235 1_554 S
C140 O145 1.287 . S
C140 O146 1.255 . S
O141 Fe133 1.997 . S
O141 C139 1.235 1_556 S
C142 O148 1.287 . S
C142 O149 1.255 . S
O143 Fe132 1.976 . S
O143 C150 1.287 . S
O144 Fe133 1.996 . S
O144 C150 1.255 . S
O145 Fe135 1.976 . S
O145 C140 1.287 . S
O146 Fe132 1.996 . S
O146 C140 1.255 . S
C147 O151 1.295 . S
C147 O152 1.235 . S
O148 Fe133 1.976 . S
O148 C142 1.287 . S
O149 Fe135 1.996 . S
O149 C142 1.255 . S
C150 O143 1.287 . S
C150 O144 1.255 . S
O151 Fe133 2.002 . S
O151 C147 1.295 . S
O152 Fe135 1.997 . S
O152 C147 1.235 . S
C153 O136 1.295 . S
C153 O137 1.235 . S
Fe154 O156 1.918 . S
Fe154 O159 1.997 . S
Fe154 O160 2.002 . S
Fe154 O165 1.976 . S
Fe154 O168 1.996 . S
Fe155 O156 1.918 . S
Fe155 O163 1.997 . S
Fe155 O166 1.996 . S
Fe155 O170 1.976 . S
Fe155 O173 2.002 . S
O156 Fe154 1.918 . S
O156 Fe155 1.918 . S
O156 Fe157 1.918 . S
Fe157 O156 1.918 . S
Fe157 O158 2.002 . S
Fe157 O167 1.976 1_554 S
Fe157 O171 1.996 . S
Fe157 O174 1.997 . S
O158 Fe157 2.002 . S
O158 C175 1.295 . S
O159 Fe154 1.997 . S
O159 C175 1.235 . S
O160 Fe154 2.002 . S
O160 C161 1.295 . S
C161 O160 1.295 . S
C161 O163 1.235 . S
C162 O167 1.287 . S
C162 O168 1.255 1_556 S
O163 Fe155 1.997 . S
O163 C161 1.235 . S
C164 O170 1.287 . S
C164 O171 1.255 . S
O165 Fe154 1.976 . S
O165 C172 1.287 . S
O166 Fe155 1.996 . S
O166 C172 1.255 . S
O167 Fe157 1.976 1_556 S
O167 C162 1.287 . S
O168 Fe154 1.996 . S
O168 C162 1.255 1_554 S
C169 O173 1.295 . S
C169 O174 1.235 . S
O170 Fe155 1.976 . S
O170 C164 1.287 . S
O171 Fe157 1.996 . S
O171 C164 1.255 . S
C172 O165 1.287 . S
C172 O166 1.255 . S
O173 Fe155 2.002 . S
O173 C169 1.295 . S
O174 Fe157 1.997 . S
O174 C169 1.235 . S
C175 O158 1.295 . S
C175 O159 1.235 . S
C176 C177 1.369 1_565 S
C176 C178 1.419 . S
C176 H180 0.930 . S
C177 C176 1.369 1_545 S
C177 C186 1.429 1_545 S
C178 C176 1.419 . S
C178 C179 1.363 . S
C178 H181 0.929 . S
C179 C178 1.363 . S
C179 C185 1.428 . S
H180 C176 0.930 . S
H181 C178 0.929 . S
S182 N183 1.613 1_565 S
S182 N184 1.610 . S
N183 S182 1.613 1_545 S
N183 C186 1.350 1_545 S
N184 S182 1.610 . S
N184 C185 1.351 . S
C185 C179 1.428 . S
C185 N184 1.351 . S
C185 C186 1.434 . S
C186 C177 1.429 1_565 S
C186 N183 1.350 1_565 S
C186 C185 1.434 . S
C187 C188 1.369 1_655 S
C187 C189 1.419 . S
C187 H191 0.930 . S
C188 C187 1.369 1_455 S
C188 C197 1.429 1_455 S
C189 C187 1.419 . S
C189 C190 1.363 . S
C189 H192 0.929 . S
C190 C189 1.363 . S
C190 C196 1.428 . S
H191 C187 0.930 . S
H192 C189 0.929 . S
S193 N194 1.613 . S
S193 N195 1.610 . S
N194 S193 1.613 . S
N194 C197 1.350 . S
N195 S193 1.610 . S
N195 C196 1.351 . S
C196 C190 1.428 . S
C196 N195 1.351 . S
C196 C197 1.434 . S
C197 C188 1.429 1_655 S
C197 N194 1.350 . S
C197 C196 1.434 . S
C198 C199 1.369 . S
C198 C200 1.419 . S
C198 H202 0.930 . S
C199 C198 1.369 . S
C199 C208 1.429 . S
C200 C198 1.419 . S
C200 C201 1.363 . S
C200 H203 0.929 . S
C201 C200 1.363 . S
C201 C207 1.428 . S
H202 C198 0.930 . S
H203 C200 0.929 . S
S204 N205 1.613 1_545 S
S204 N206 1.610 . S
N205 S204 1.613 1_565 S
N205 C208 1.350 1_565 S
N206 S204 1.610 . S
N206 C207 1.351 . S
C207 C201 1.428 . S
C207 N206 1.351 . S
C207 C208 1.434 . S
C208 C199 1.429 . S
C208 N205 1.350 1_545 S
C208 C207 1.434 . S
C209 C210 1.369 . S
C209 C211 1.419 . S
C209 H213 0.930 . S
C210 C209 1.369 . S
C210 C219 1.429 . S
C211 C209 1.419 . S
C211 C212 1.363 . S
C211 H214 0.929 . S
C212 C211 1.363 . S
C212 C218 1.428 . S
H213 C209 0.930 . S
H214 C211 0.929 . S
S215 N216 1.613 . S
S215 N217 1.610 . S
N216 S215 1.613 . S
N216 C219 1.350 . S
N217 S215 1.610 . S
N217 C218 1.351 . S
C218 C212 1.428 . S
C218 N217 1.351 . S
C218 C219 1.434 . S
C219 C210 1.429 . S
C219 N216 1.350 . S
C219 C218 1.434 . S
C220 C221 1.369 . S
C220 C222 1.419 1_554 S
C220 H224 0.930 1_554 S
C221 C220 1.369 . S
C221 C230 1.429 . S
C222 C220 1.419 1_556 S
C222 C223 1.363 . S
C222 H225 0.929 . S
C223 C222 1.363 . S
C223 C229 1.428 1_556 S
H224 C220 0.930 1_556 S
H225 C222 0.929 . S
S226 N227 1.613 . S
S226 N228 1.610 . S
N227 S226 1.613 . S
N227 C230 1.350 . S
N228 S226 1.610 . S
N228 C229 1.351 . S
C229 C223 1.428 1_554 S
C229 N228 1.351 . S
C229 C230 1.434 . S
C230 C221 1.429 . S
C230 N227 1.350 . S
C230 C229 1.434 . S
C231 C232 1.369 . S
C231 C233 1.419 . S
C231 H235 0.930 . S
C232 C231 1.369 . S
C232 C241 1.429 . S
C233 C231 1.419 . S
C233 C234 1.363 1_556 S
C233 H236 0.929 . S
C234 C233 1.363 1_554 S
C234 C240 1.428 . S
H235 C231 0.930 . S
H236 C233 0.929 . S
S237 N238 1.613 . S
S237 N239 1.610 . S
N238 S237 1.613 . S
N238 C241 1.350 1_554 S
N239 S237 1.610 . S
N239 C240 1.351 . S
C240 C234 1.428 . S
C240 N239 1.351 . S
C240 C241 1.434 1_554 S
C241 C232 1.429 . S
C241 N238 1.350 1_556 S
C241 C240 1.434 1_556 S
C242 C243 1.369 . S
C242 C244 1.419 1_554 S
C242 H246 0.930 . S
C243 C242 1.369 . S
C243 C252 1.429 . S
C244 C242 1.419 1_556 S
C244 C245 1.366 . S
C244 H247 0.929 . S
C245 C244 1.366 . S
C245 C251 1.416 1_556 S
H246 C242 0.930 . S
H247 C244 0.929 . S
S248 N249 1.613 . S
S248 N250 1.610 . S
N249 S248 1.613 . S
N249 C252 1.350 . S
N250 S248 1.610 . S
N250 C251 1.351 . S
C251 C245 1.416 1_554 S
C251 N250 1.351 . S
C251 C252 1.434 . S
C252 C243 1.429 . S
C252 N249 1.350 . S
C252 C251 1.434 . S
C253 C254 1.369 . S
C253 C255 1.419 1_554 S
C253 H257 0.930 . S
C254 C253 1.369 . S
C254 C263 1.429 1_554 S
C255 C253 1.419 1_556 S
C255 C256 1.363 . S
C255 H258 0.929 1_556 S
C256 C255 1.363 . S
C256 C262 1.428 . S
H257 C253 0.930 . S
H258 C255 0.929 1_554 S
S259 N260 1.613 . S
S259 N261 1.610 . S
N260 S259 1.613 . S
N260 C263 1.350 . S
N261 S259 1.610 . S
N261 C262 1.351 . S
C262 C256 1.428 . S
C262 N261 1.351 . S
C262 C263 1.434 . S
C263 C254 1.429 1_556 S
C263 N260 1.350 . S
C263 C262 1.434 . S
C264 C265 1.369 . S
C264 C266 1.419 . S
C264 H268 0.930 . S
C265 C264 1.369 . S
C265 C274 1.429 . S
C266 C264 1.419 . S
C266 C267 1.363 . S
C266 H269 0.929 . S
C267 C266 1.363 . S
C267 C273 1.428 . S
H268 C264 0.930 . S
H269 C266 0.929 . S
S270 N271 1.613 . S
S270 N272 1.610 . S
N271 S270 1.613 . S
N271 C274 1.350 . S
N272 S270 1.610 . S
N272 C273 1.351 . S
C273 C267 1.428 . S
C273 N272 1.351 . S
C273 C274 1.434 . S
C274 C265 1.429 . S
C274 N271 1.350 . S
C274 C273 1.434 . S
C275 C276 1.369 . S
C275 C277 1.419 . S
C275 H279 0.930 . S
C276 C275 1.369 . S
C276 C285 1.429 . S
C277 C275 1.419 . S
C277 C278 1.363 . S
C277 H280 0.929 . S
C278 C277 1.363 . S
C278 C284 1.428 . S
H279 C275 0.930 . S
H280 C277 0.929 . S
S281 N282 1.613 . S
S281 N283 1.610 . S
N282 S281 1.613 . S
N282 C285 1.350 . S
N283 S281 1.610 . S
N283 C284 1.351 . S
C284 C278 1.428 . S
C284 N283 1.351 . S
C284 C285 1.434 . S
C285 C276 1.429 . S
C285 N282 1.350 . S
C285 C284 1.434 . S
C286 C287 1.369 . S
C286 C288 1.419 . S
C286 H290 0.930 . S
C287 C286 1.369 . S
C287 C296 1.429 . S
C288 C286 1.419 . S
C288 C289 1.363 . S
C288 H291 0.929 . S
C289 C288 1.363 . S
C289 C295 1.428 . S
H290 C286 0.930 . S
H291 C288 0.929 . S
S292 N293 1.613 . S
S292 N294 1.610 . S
N293 S292 1.613 . S
N293 C296 1.350 . S
N294 S292 1.610 . S
N294 C295 1.351 . S
C295 C289 1.428 . S
C295 N294 1.351 . S
C295 C296 1.434 . S
C296 C287 1.429 . S
C296 N293 1.350 . S
C296 C295 1.434 . S
C297 C298 1.369 . S
C297 C299 1.419 . S
C297 H301 0.930 . S
C298 C297 1.369 . S
C298 C307 1.429 . S
C299 C297 1.419 . S
C299 C300 1.363 . S
C299 H302 0.929 . S
C300 C299 1.363 . S
C300 C306 1.428 . S
H301 C297 0.930 . S
H302 C299 0.929 . S
S303 N304 1.613 . S
S303 N305 1.610 . S
N304 S303 1.613 . S
N304 C307 1.350 . S
N305 S303 1.610 . S
N305 C306 1.351 . S
C306 C300 1.428 . S
C306 N305 1.351 . S
C306 C307 1.434 . S
C307 C298 1.429 . S
C307 N304 1.350 . S
C307 C306 1.434 . S
C308 C309 1.369 . S
C308 C310 1.419 . S
C308 H312 0.930 . S
C309 C308 1.369 . S
C309 C318 1.429 . S
C310 C308 1.419 . S
C310 C311 1.363 . S
C310 H313 0.929 . S
C311 C310 1.363 . S
C311 C317 1.428 . S
H312 C308 0.930 . S
H313 C310 0.929 . S
S314 N315 1.613 . S
S314 N316 1.610 . S
N315 S314 1.613 . S
N315 C318 1.350 . S
N316 S314 1.610 . S
N316 C317 1.351 . S
C317 C311 1.428 . S
C317 N316 1.351 . S
C317 C318 1.434 . S
C318 C309 1.429 . S
C318 N315 1.350 . S
C318 C317 1.434 . S
C319 C320 1.369 . S
C319 C321 1.419 . S
C319 H323 0.930 . S
C320 C319 1.369 . S
C320 C329 1.429 . S
C321 C319 1.419 . S
C321 C322 1.363 . S
C321 H324 0.929 . S
C322 C321 1.363 . S
C322 C328 1.428 . S
H323 C319 0.930 . S
H324 C321 0.929 . S
S325 N326 1.613 . S
S325 N327 1.610 1_455 S
N326 S325 1.613 . S
N326 C329 1.350 . S
N327 S325 1.610 1_655 S
N327 C328 1.351 1_655 S
C328 C322 1.428 . S
C328 N327 1.351 1_455 S
C328 C329 1.434 . S
C329 C320 1.429 . S
C329 N326 1.350 . S
C329 C328 1.434 . S
C330 C331 1.369 . S
C330 C332 1.419 . S
C330 H334 0.930 . S
C331 C330 1.369 . S
C331 C340 1.429 . S
C332 C330 1.419 . S
C332 C333 1.363 1_565 S
C332 H335 0.929 1_565 S
C333 C332 1.363 1_545 S
C333 C339 1.428 1_545 S
H334 C330 0.930 . S
H335 C332 0.929 1_545 S
S336 N337 1.613 . S
S336 N338 1.610 . S
N337 S336 1.613 . S
N337 C340 1.350 . S
N338 S336 1.610 . S
N338 C339 1.351 . S
C339 C333 1.428 1_565 S
C339 N338 1.351 . S
C339 C340 1.434 . S
C340 C331 1.429 . S
C340 N337 1.350 . S
C340 C339 1.434 . S
C341 C342 1.369 . S
C341 C343 1.419 . S
C341 H345 0.930 1_655 S
C342 C341 1.369 . S
C342 C351 1.429 . S
C343 C341 1.419 . S
C343 C344 1.363 . S
C343 H346 0.929 . S
C344 C343 1.363 . S
C344 C350 1.428 . S
H345 C341 0.930 1_455 S
H346 C343 0.929 . S
S347 N348 1.613 . S
S347 N349 1.610 . S
N348 S347 1.613 . S
N348 C351 1.350 . S
N349 S347 1.610 . S
N349 C350 1.351 . S
C350 C344 1.428 . S
C350 N349 1.351 . S
C350 C351 1.434 . S
C351 C342 1.429 . S
C351 N348 1.350 . S
C351 C350 1.434 . S
C352 C353 1.369 . S
C352 C354 1.419 . S
C352 H356 0.930 . S
C353 C352 1.369 . S
C353 C362 1.429 . S
C354 C352 1.419 . S
C354 C355 1.363 . S
C354 H357 0.929 . S
C355 C354 1.363 . S
C355 C361 1.428 . S
H356 C352 0.930 . S
H357 C354 0.929 . S
S358 N359 1.613 . S
S358 N360 1.610 . S
N359 S358 1.613 . S
N359 C362 1.350 . S
N360 S358 1.610 . S
N360 C361 1.351 . S
C361 C355 1.428 . S
C361 N360 1.351 . S
C361 C362 1.434 . S
C362 C353 1.429 . S
C362 N359 1.350 . S
C362 C361 1.434 . S
C363 C364 1.369 . S
C363 C365 1.419 . S
C363 H367 0.930 . S
C364 C363 1.369 . S
C364 C373 1.429 . S
C365 C363 1.419 . S
C365 C366 1.363 . S
C365 H368 0.929 . S
C366 C365 1.363 . S
C366 C372 1.428 . S
H367 C363 0.930 . S
H368 C365 0.929 . S
S369 N370 1.613 . S
S369 N371 1.610 1_554 S
N370 S369 1.613 . S
N370 C373 1.350 1_554 S
N371 S369 1.610 1_556 S
N371 C372 1.351 . S
C372 C366 1.428 . S
C372 N371 1.351 . S
C372 C373 1.434 . S
C373 C364 1.429 . S
C373 N370 1.350 1_556 S
C373 C372 1.434 . S
C374 C375 1.369 . S
C374 C376 1.419 . S
C374 H378 0.930 . S
C375 C374 1.369 . S
C375 C384 1.429 . S
C376 C374 1.419 . S
C376 C377 1.363 . S
C376 H379 0.929 . S
C377 C376 1.363 . S
C377 C383 1.428 . S
H378 C374 0.930 . S
H379 C376 0.929 . S
S380 N381 1.613 . S
S380 N382 1.610 . S
N381 S380 1.613 . S
N381 C384 1.350 . S
N382 S380 1.610 . S
N382 C383 1.351 . S
C383 C377 1.428 . S
C383 N382 1.351 . S
C383 C384 1.434 . S
C384 C375 1.429 . S
C384 N381 1.350 . S
C384 C383 1.434 . S
C385 C386 1.369 . S
C385 C387 1.419 . S
C385 H389 0.930 . S
C386 C385 1.369 . S
C386 C395 1.429 . S
C387 C385 1.419 . S
C387 C388 1.363 . S
C387 H390 0.929 . S
C388 C387 1.363 . S
C388 C394 1.428 . S
H389 C385 0.930 . S
H390 C387 0.929 . S
S391 N392 1.613 . S
S391 N393 1.610 . S
N392 S391 1.613 . S
N392 C395 1.350 . S
N393 S391 1.610 . S
N393 C394 1.351 . S
C394 C388 1.428 . S
C394 N393 1.351 . S
C394 C395 1.434 . S
C395 C386 1.429 . S
C395 N392 1.350 . S
C395 C394 1.434 . S
C396 C397 1.369 . S
C396 C398 1.419 . S
C396 H400 0.930 . S
C397 C396 1.369 . S
C397 C406 1.429 . S
C398 C396 1.419 . S
C398 C399 1.363 . S
C398 H401 0.929 . S
C399 C398 1.363 . S
C399 C405 1.428 . S
H400 C396 0.930 . S
H401 C398 0.929 . S
S402 N403 1.613 . S
S402 N404 1.610 . S
N403 S402 1.613 . S
N403 C406 1.350 . S
N404 S402 1.610 . S
N404 C405 1.351 . S
C405 C399 1.428 . S
C405 N404 1.351 . S
C405 C406 1.434 . S
C406 C397 1.429 . S
C406 N403 1.350 . S
C406 C405 1.434 . S
C407 C408 1.369 . S
C407 C409 1.419 . S
C407 H411 0.930 . S
C408 C407 1.369 . S
C408 C417 1.429 . S
C409 C407 1.419 . S
C409 C410 1.363 . S
C409 H412 0.929 . S
C410 C409 1.363 . S
C410 C416 1.428 . S
H411 C407 0.930 . S
H412 C409 0.929 . S
S413 N414 1.613 . S
S413 N415 1.610 . S
N414 S413 1.613 . S
N414 C417 1.350 . S
N415 S413 1.610 . S
N415 C416 1.351 . S
C416 C410 1.428 . S
C416 N415 1.351 . S
C416 C417 1.434 . S
C417 C408 1.429 . S
C417 N414 1.350 . S
C417 C416 1.434 . S
C418 C419 1.369 . S
C418 C420 1.419 . S
C418 H422 0.930 . S
C419 C418 1.369 . S
C419 C428 1.429 . S
C420 C418 1.419 . S
C420 C421 1.363 . S
C420 H423 0.929 . S
C421 C420 1.363 . S
C421 C427 1.428 . S
H422 C418 0.930 . S
H423 C420 0.929 . S
S424 N425 1.613 . S
S424 N426 1.610 . S
N425 S424 1.613 . S
N425 C428 1.350 . S
N426 S424 1.610 . S
N426 C427 1.351 . S
C427 C421 1.428 . S
C427 N426 1.351 . S
C427 C428 1.434 . S
C428 C419 1.429 . S
C428 N425 1.350 . S
C428 C427 1.434 . S
C429 C430 1.369 . S
C429 C431 1.419 . S
C429 H433 0.930 . S
C430 C429 1.369 . S
C430 C439 1.429 . S
C431 C429 1.419 . S
C431 C432 1.363 . S
C431 H434 0.929 . S
C432 C431 1.363 . S
C432 C438 1.428 . S
H433 C429 0.930 . S
H434 C431 0.929 . S
S435 N436 1.613 . S
S435 N437 1.610 . S
N436 S435 1.613 . S
N436 C439 1.350 . S
N437 S435 1.610 . S
N437 C438 1.351 . S
C438 C432 1.428 . S
C438 N437 1.351 . S
C438 C439 1.434 . S
C439 C430 1.429 . S
C439 N436 1.350 . S
C439 C438 1.434 . S
C177 C10 1.320 . S
C179 C128 1.299 . S
C188 C37 1.357 . S
C190 C150 1.363 . S
C199 C59 1.367 1_545 S
C201 C175 1.383 . S
C210 C103 1.314 . S
C212 C84 1.310 1_455 S
C221 C131 1.318 . S
C223 C96 1.318 . S
C232 C147 1.381 . S
C234 C125 1.355 . S
C243 C172 1.369 . S
C245 C153 1.375 . S
C254 C164 1.311 . S
C256 C106 1.300 . S
C265 C140 1.315 . S
C267 C74 1.303 . S
C276 C169 1.351 . S
C278 C8 1.364 . S
C287 C43 1.381 . S
C289 C109 1.364 . S
C298 C51 1.314 . S
C300 C120 1.309 . S
C309 C81 1.320 . S
C311 C54 1.315 1_545 S
C320 C7 1.383 . S
C322 C73 1.357 1_455 S
C331 C40 1.362 . S
C333 C15 1.363 . S
C342 C32 1.306 1_655 S
C344 C52 1.298 . S
C353 C98 1.304 . S
C355 C18 1.297 . S
C364 C117 1.340 . S
C366 C29 1.349 . S
C375 C65 1.348 . S
C377 C139 1.356 . S
C386 C76 1.287 . S
C388 C162 1.294 . S
C397 C62 1.300 . S
C399 C142 1.298 . S
C408 C87 1.341 . S
C410 C161 1.348 . S
C419 C95 1.348 . S
C421 C21 1.356 . S
C430 C118 1.287 . S
C432 C30 1.294 . S
