# Generated by pormake.
# Topology svf, (7)-cn, num edge types: 1
# Building blocks:
#     Node 0, Type 0, BuildingBlock: NUHQUE_clean_sbu_2, # of connection points: 7
#     Node 1, Type 0, BuildingBlock: NUHQUE_clean_sbu_2, # of connection points: 7
#     Node 2, Type 0, BuildingBlock: NUHQUE_clean_sbu_2, # of connection points: 7
#     Node 3, Type 0, BuildingBlock: NUHQUE_clean_sbu_2, # of connection points: 7
#     Node 4, Type 0, BuildingBlock: NUHQUE_clean_sbu_2, # of connection points: 7
#     Node 5, Type 0, BuildingBlock: NUHQUE_clean_sbu_2, # of connection points: 7
#     Node 6, Type 0, BuildingBlock: NUHQUE_clean_sbu_2, # of connection points: 7
#     Node 7, Type 0, BuildingBlock: NUHQUE_clean_sbu_2, # of connection points: 7
#     Edge 8, Type (0, 0), BuildingBlock: EYOCIG_clean_linker_4, # of connection points: 2
#     Edge 9, Type (0, 0), BuildingBlock: EYOCIG_clean_linker_4, # of connection points: 2
#     Edge 10, Type (0, 0), BuildingBlock: EYOCIG_clean_linker_4, # of connection points: 2
#     Edge 11, Type (0, 0), BuildingBlock: EYOCIG_clean_linker_4, # of connection points: 2
#     Edge 12, Type (0, 0), BuildingBlock: EYOCIG_clean_linker_4, # of connection points: 2
#     Edge 13, Type (0, 0), BuildingBlock: EYOCIG_clean_linker_4, # of connection points: 2
#     Edge 14, Type (0, 0), BuildingBlock: EYOCIG_clean_linker_4, # of connection points: 2
#     Edge 15, Type (0, 0), BuildingBlock: EYOCIG_clean_linker_4, # of connection points: 2
#     Edge 16, Type (0, 0), BuildingBlock: EYOCIG_clean_linker_4, # of connection points: 2
#     Edge 17, Type (0, 0), BuildingBlock: EYOCIG_clean_linker_4, # of connection points: 2
#     Edge 18, Type (0, 0), BuildingBlock: EYOCIG_clean_linker_4, # of connection points: 2
#     Edge 19, Type (0, 0), BuildingBlock: EYOCIG_clean_linker_4, # of connection points: 2
#     Edge 20, Type (0, 0), BuildingBlock: EYOCIG_clean_linker_4, # of connection points: 2
#     Edge 21, Type (0, 0), BuildingBlock: EYOCIG_clean_linker_4, # of connection points: 2
#     Edge 22, Type (0, 0), BuildingBlock: EYOCIG_clean_linker_4, # of connection points: 2
#     Edge 23, Type (0, 0), BuildingBlock: EYOCIG_clean_linker_4, # of connection points: 2
#     Edge 24, Type (0, 0), BuildingBlock: EYOCIG_clean_linker_4, # of connection points: 2
#     Edge 25, Type (0, 0), BuildingBlock: EYOCIG_clean_linker_4, # of connection points: 2
#     Edge 26, Type (0, 0), BuildingBlock: EYOCIG_clean_linker_4, # of connection points: 2
#     Edge 27, Type (0, 0), BuildingBlock: EYOCIG_clean_linker_4, # of connection points: 2
#     Edge 28, Type (0, 0), BuildingBlock: EYOCIG_clean_linker_4, # of connection points: 2
#     Edge 29, Type (0, 0), BuildingBlock: EYOCIG_clean_linker_4, # of connection points: 2
#     Edge 30, Type (0, 0), BuildingBlock: EYOCIG_clean_linker_4, # of connection points: 2
#     Edge 31, Type (0, 0), BuildingBlock: EYOCIG_clean_linker_4, # of connection points: 2
#     Edge 32, Type (0, 0), BuildingBlock: EYOCIG_clean_linker_4, # of connection points: 2
#     Edge 33, Type (0, 0), BuildingBlock: EYOCIG_clean_linker_4, # of connection points: 2
#     Edge 34, Type (0, 0), BuildingBlock: EYOCIG_clean_linker_4, # of connection points: 2
#     Edge 35, Type (0, 0), BuildingBlock: EYOCIG_clean_linker_4, # of connection points: 2
# Relax obj value: 0.254
# Max RMSD: 0.222
# Mean RMSD: 0.215
data_MOF--net-svf--node1-NUHQUE_clean_sbu_2--edge1-EYOCIG_clean_linker_4
_symmetry_space_group_name_H-M    P1
_symmetry_Int_Tables_number       1
_symmetry_cell_setting            triclinic
loop_
_symmetry_equiv_pos_as_xyz
'x, y, z'
_cell_length_a     41.872372
_cell_length_b     41.550929
_cell_length_c     16.723732
_cell_angle_alpha  94.643948
_cell_angle_beta   90.048196
_cell_angle_gamma 90.00403
loop_
_atom_site_label
_atom_site_type_symbol
_atom_site_fract_x
_atom_site_fract_y
_atom_site_fract_z
_atom_type_partial_charge
O0 O 0.06324 0.34364 0.94052 0.0
Tb1 Tb 0.07133 0.3878 1.01251 0.0
Eu2 Eu 0.12515 0.39328 0.1158 0.0
C3 C 0.07777 0.33778 0.87182 0.0
O4 O 0.10525 0.35159 0.85911 0.0
C5 C 0.1189 0.43792 0.96288 0.0
O6 O 0.15005 0.42238 0.21119 0.0
C7 C 0.16738 0.34828 0.0812 0.0
C8 C 0.13569 0.43496 0.27491 0.0
O9 O 0.10504 0.43078 0.28625 0.0
C10 C 0.05603 0.37201 0.18894 0.0
C11 C 0.18416 0.31699 0.08997 0.0
C12 C 0.19322 0.29914 1.01891 0.0
C13 C 0.21283 0.27191 1.02009 0.0
C14 C 0.22315 0.26162 0.09408 0.0
C15 C 0.21457 0.27887 0.16711 0.0
C16 C 0.19517 0.30687 0.16455 0.0
O17 O 0.10305 0.41253 0.93328 0.0
O18 O 0.12741 0.43827 1.03936 0.0
O19 O 0.03059 0.41229 0.96577 0.0
O20 O 0.05715 0.43343 0.06911 0.0
C21 C 0.03379 0.43689 1.01918 0.0
O22 O 0.08591 0.38024 0.20475 0.0
O23 O 0.04623 0.36915 0.11424 0.0
O24 O 0.17119 0.37178 0.13756 0.0
O25 O 0.14004 0.34951 1.04183 0.0
H26 H 0.18599 0.30735 0.9616 0.0
H27 H 0.23848 0.2406 0.0947 0.0
H28 H 0.1892 0.32095 0.21991 0.0
O29 O 0.5693 0.16392 0.23987 0.0
Tb30 Tb 0.57169 0.11781 0.1722 0.0
Eu31 Eu 0.62502 0.11066 0.06687 0.0
C32 C 0.58075 0.16711 0.31274 0.0
O33 O 0.60767 0.15281 0.32861 0.0
C34 C 0.61853 0.0664 0.22024 0.0
O35 O 0.64974 0.08144 0.97124 0.0
C36 C 0.66714 0.15581 0.10162 0.0
C37 C 0.63568 0.06991 0.9059 0.0
O38 O 0.60515 0.07447 0.89364 0.0
C39 C 0.55599 0.13272 0.99523 0.0
C40 C 0.68394 0.18712 0.09306 0.0
C41 C 0.69303 0.20491 0.16424 0.0
C42 C 0.71265 0.23214 0.16328 0.0
C43 C 0.72295 0.24251 0.08937 0.0
C44 C 0.71432 0.22534 1.01621 0.0
C45 C 0.69491 0.19732 1.01856 0.0
O46 O 0.60302 0.09194 0.25017 0.0
O47 O 0.62693 0.06588 0.14372 0.0
O48 O 0.52969 0.09614 0.22103 0.0
O49 O 0.55509 0.0725 0.11869 0.0
C50 C 0.53142 0.07094 0.16868 0.0
O51 O 0.58552 0.12357 0.97871 0.0
O52 O 0.54669 0.13651 0.07024 0.0
O53 O 0.67106 0.13225 1.04548 0.0
O54 O 0.63975 0.15455 0.14066 0.0
H55 H 0.68582 0.19664 0.22147 0.0
H56 H 0.73828 0.26353 0.08891 0.0
H57 H 0.68891 0.18331 0.96313 0.0
O58 O 0.84231 0.57291 0.23374 0.0
Tb59 Tb 0.88397 0.58286 0.16639 0.0
Eu60 Eu 0.89069 0.63499 1.06007 0.0
C61 C 0.84272 0.57574 0.31187 0.0
O62 O 0.86252 0.59602 0.35023 0.0
C63 C 0.9337 0.6322 0.22127 0.0
O64 O 0.92314 0.656 0.9747 0.0
C65 C 0.84586 0.67734 0.09492 0.0
C66 C 0.943 0.63681 0.93436 0.0
O67 O 0.9393 0.60538 0.93222 0.0
C68 C 0.86516 0.56491 0.98665 0.0
C69 C 0.81372 0.69242 0.08594 0.0
C70 C 0.79615 0.70036 0.15627 0.0
C71 C 0.76815 0.71879 0.15515 0.0
C72 C 0.75688 0.729 0.0819 0.0
C73 C 0.77381 0.72145 1.00983 0.0
C74 C 0.80241 0.70319 1.01245 0.0
O75 O 0.90755 0.61926 0.24703 0.0
O76 O 0.93493 0.63719 0.1444 0.0
O77 O 0.91079 0.54268 0.20779 0.0
O78 O 0.92724 0.56765 0.10648 0.0
C79 C 0.93298 0.54495 0.15358 0.0
O80 O 0.87769 0.59261 0.97008 0.0
O81 O 0.85981 0.55908 1.0614 0.0
O82 O 0.86726 0.68007 1.0385 0.0
O83 O 0.84924 0.65106 0.13386 0.0
H84 H 0.80514 0.69333 0.21322 0.0
H85 H 0.73538 0.74352 0.08132 0.0
H86 H 0.81613 0.69809 0.95801 0.0
O87 O 0.34007 0.92264 0.94533 0.0
Tb88 Tb 0.38266 0.92179 1.01682 0.0
Eu89 Eu 0.39066 0.87014 0.12382 0.0
C90 C 0.34309 0.92498 0.86846 0.0
O91 O 0.36098 0.90399 0.82634 0.0
C92 C 0.43415 0.87351 0.96342 0.0
O93 O 0.42353 0.84923 0.20864 0.0
C94 C 0.34591 0.82762 0.08926 0.0
C95 C 0.44333 0.86858 0.24887 0.0
O96 O 0.4393 0.89997 0.25131 0.0
C97 C 0.36422 0.94008 0.19591 0.0
C98 C 0.31374 0.81253 0.09773 0.0
C99 C 0.29622 0.80464 1.02719 0.0
C100 C 0.2682 0.78622 1.02795 0.0
C101 C 0.25685 0.77597 0.10105 0.0
C102 C 0.27373 0.78344 0.1733 0.0
C103 C 0.30235 0.80169 0.17104 0.0
O104 O 0.40839 0.88686 0.93676 0.0
O105 O 0.4349 0.86791 1.03994 0.0
O106 O 0.40704 0.96406 0.97883 0.0
O107 O 0.426 0.93766 0.07547 0.0
C108 C 0.42994 0.96185 1.03166 0.0
O109 O 0.3778 0.9129 0.21274 0.0
O110 O 0.35783 0.94523 0.12112 0.0
O111 O 0.36709 0.82525 0.14648 0.0
O112 O 0.34945 0.85365 1.04946 0.0
H113 H 0.30528 0.8117 0.97037 0.0
H114 H 0.23533 0.76146 0.10136 0.0
H115 H 0.31602 0.80674 0.22564 0.0
O116 O 0.06157 0.65974 0.74769 0.0
Tb117 Tb 0.07179 0.61707 0.67218 0.0
Eu118 Eu 0.12537 0.61098 0.56713 0.0
C119 C 0.07708 0.66683 0.8146 0.0
O120 O 0.10481 0.65343 0.82686 0.0
C121 C 0.11943 0.56679 0.72052 0.0
O122 O 0.14977 0.58221 0.47033 0.0
C123 C 0.16762 0.65601 0.60181 0.0
C124 C 0.13516 0.57004 0.40644 0.0
O125 O 0.10442 0.57407 0.39611 0.0
C126 C 0.0563 0.6334 0.49624 0.0
C127 C 0.18445 0.68728 0.59294 0.0
C128 C 0.19353 0.70516 0.66399 0.0
C129 C 0.21314 0.73239 0.6628 0.0
C130 C 0.22342 0.74267 0.5888 0.0
C131 C 0.2148 0.7254 0.51576 0.0
C132 C 0.19542 0.69738 0.51834 0.0
O133 O 0.10422 0.59256 0.75035 0.0
O134 O 0.1274 0.56608 0.64368 0.0
O135 O 0.03109 0.59185 0.71669 0.0
O136 O 0.05773 0.57176 0.61287 0.0
C137 C 0.03424 0.56778 0.66193 0.0
O138 O 0.08574 0.62402 0.47934 0.0
O139 O 0.04722 0.63721 0.57144 0.0
O140 O 0.17151 0.63238 0.54583 0.0
O141 O 0.14021 0.65487 0.64078 0.0
H142 H 0.18633 0.69696 0.72131 0.0
H143 H 0.23874 0.76369 0.58816 0.0
H144 H 0.18941 0.6833 0.46301 0.0
O145 O 0.34078 0.07714 0.73924 0.0
Tb146 Tb 0.38244 0.08288 0.66738 0.0
Eu147 Eu 0.39012 0.13439 0.56016 0.0
C148 C 0.34362 0.07877 0.8171 0.0
O149 O 0.36156 0.10131 0.85351 0.0
C150 C 0.43356 0.13144 0.72057 0.0
O151 O 0.42288 0.15366 0.47263 0.0
C152 C 0.34583 0.17732 0.595 0.0
C153 C 0.44197 0.13334 0.43313 0.0
O154 O 0.43743 0.10213 0.43417 0.0
C155 C 0.36343 0.06441 0.4885 0.0
C156 C 0.31365 0.19231 0.586 0.0
C157 C 0.29601 0.20011 0.65631 0.0
C158 C 0.26789 0.21834 0.65518 0.0
C159 C 0.25656 0.22849 0.58192 0.0
C160 C 0.27356 0.2211 0.5099 0.0
C161 C 0.30228 0.20304 0.51252 0.0
O162 O 0.40755 0.11853 0.74707 0.0
O163 O 0.43451 0.1366 0.6438 0.0
O164 O 0.40858 0.04167 0.70564 0.0
O165 O 0.42552 0.06774 0.60651 0.0
C166 C 0.43079 0.04419 0.65142 0.0
O167 O 0.37636 0.09186 0.47148 0.0
O168 O 0.35769 0.059 0.56339 0.0
O169 O 0.36714 0.17971 0.53815 0.0
O170 O 0.34911 0.15116 0.63437 0.0
H171 H 0.30504 0.19311 0.71326 0.0
H172 H 0.23495 0.24286 0.58132 0.0
H173 H 0.31604 0.19804 0.4581 0.0
O174 O 0.84098 0.42957 0.44714 0.0
Tb175 Tb 0.88292 0.42189 0.51607 0.0
Eu176 Eu 0.8902 0.37003 0.62387 0.0
C177 C 0.84204 0.42694 0.369 0.0
O178 O 0.86225 0.40685 0.33164 0.0
C179 C 0.93366 0.37301 0.4636 0.0
O180 O 0.92271 0.34997 0.71079 0.0
C181 C 0.84561 0.32735 0.58904 0.0
C182 C 0.94234 0.36972 0.75035 0.0
O183 O 0.93833 0.40106 0.75059 0.0
C184 C 0.86422 0.44014 0.69565 0.0
C185 C 0.81346 0.31225 0.59787 0.0
C186 C 0.79589 0.3043 0.52743 0.0
C187 C 0.76785 0.28592 0.52842 0.0
C188 C 0.75652 0.27579 0.60166 0.0
C189 C 0.77344 0.28333 0.67383 0.0
C190 C 0.80208 0.30154 0.67134 0.0
O191 O 0.90754 0.38574 0.43694 0.0
O192 O 0.93463 0.36799 0.54047 0.0
O193 O 0.9084 0.46273 0.47359 0.0
O194 O 0.92604 0.43842 0.57489 0.0
C195 C 0.93086 0.46123 0.52751 0.0
O196 O 0.87692 0.4126 0.71278 0.0
O197 O 0.85861 0.44565 0.62077 0.0
O198 O 0.86697 0.32485 0.64578 0.0
O199 O 0.84895 0.35354 0.54976 0.0
H200 H 0.80492 0.31128 0.47051 0.0
H201 H 0.73498 0.26131 0.60215 0.0
H202 H 0.81579 0.30666 0.72586 0.0
O203 O 0.56319 0.84355 0.43912 0.0
Tb204 Tb 0.57076 0.88773 0.5115 0.0
Eu205 Eu 0.62521 0.89369 0.6163 0.0
C206 C 0.57825 0.83761 0.37114 0.0
O207 O 0.60573 0.8516 0.35943 0.0
C208 C 0.61858 0.93807 0.46342 0.0
O209 O 0.65015 0.92309 0.71118 0.0
C210 C 0.66751 0.84876 0.58156 0.0
C211 C 0.63608 0.93517 0.77587 0.0
O212 O 0.60557 0.93057 0.78833 0.0
C213 C 0.55621 0.87213 0.68887 0.0
C214 C 0.68436 0.81749 0.59015 0.0
C215 C 0.69346 0.79972 0.51902 0.0
C216 C 0.71315 0.77254 0.52009 0.0
C217 C 0.7235 0.76222 0.59402 0.0
C218 C 0.71487 0.77939 0.66712 0.0
C219 C 0.6954 0.80734 0.66468 0.0
O220 O 0.60298 0.91256 0.43368 0.0
O221 O 0.62703 0.93859 0.53991 0.0
O222 O 0.52954 0.91081 0.46261 0.0
O223 O 0.55514 0.93335 0.56562 0.0
C224 C 0.53182 0.93582 0.51506 0.0
O225 O 0.58597 0.88068 0.70487 0.0
O226 O 0.54641 0.86895 0.61417 0.0
O227 O 0.67127 0.87222 0.63805 0.0
O228 O 0.64017 0.84998 0.54216 0.0
H229 H 0.68621 0.80795 0.46176 0.0
H230 H 0.73888 0.74124 0.59456 0.0
H231 H 0.68938 0.82136 0.72009 0.0
C232 C -0.00249 0.48499 1.06042 0.0
C233 C 0.01185 0.46221 1.03221 0.0
C234 C 0.97834 0.50644 0.10597 0.0
C235 C 0.9572 0.52215 0.13591 0.0
C236 C 0.47259 0.00325 0.08394 0.0
C237 C 0.45249 0.98618 1.05316 0.0
C238 C 0.49196 0.02509 0.12847 0.0
C239 C 0.50773 0.04708 0.15603 0.0
C240 C -0.00371 0.52123 0.617 0.0
C241 C 0.01164 0.54322 0.64579 0.0
C242 C 0.97614 0.50036 0.57248 0.0
C243 C 0.95489 0.48441 0.54367 0.0
C244 C 0.49393 0.98291 0.55415 0.0
C245 C 0.509 0.96045 0.52679 0.0
C246 C 0.47472 0.0045 0.59943 0.0
C247 C 0.45418 0.02076 0.6306 0.0
C248 C 0.16404 0.5193 0.34666 0.0
C249 C 0.14965 0.54237 0.37147 0.0
C250 C 0.16423 0.48648 0.33144 0.0
C251 C 0.15012 0.46304 0.30779 0.0
C252 C 0.49871 0.15592 0.40812 0.0
C253 C 0.47298 0.14479 0.41888 0.0
C254 C 0.53008 0.16568 0.39712 0.0
C255 C 0.55652 0.16746 0.37148 0.0
C256 C 0.82956 0.48458 0.33447 0.0
C257 C 0.83541 0.45646 0.33583 0.0
C258 C 0.82954 0.51828 0.34608 0.0
C259 C 0.83554 0.54639 0.34516 0.0
C260 C 0.53094 0.83325 0.27766 0.0
C261 C 0.55715 0.83245 0.30546 0.0
C262 C 0.4997 0.84384 0.26791 0.0
C263 C 0.47423 0.85611 0.26013 0.0
C264 C 0.85789 0.48914 0.81077 0.0
C265 C 0.86083 0.46674 0.75878 0.0
C266 C 0.85814 0.51622 0.87094 0.0
C267 C 0.86144 0.53856 0.92297 0.0
C268 C 0.51164 0.86789 0.80588 0.0
C269 C 0.53255 0.86999 0.75445 0.0
C270 C 0.4856 0.86798 0.86401 0.0
C271 C 0.46293 0.87 0.91144 0.0
C272 C 0.12445 0.48907 0.86878 0.0
C273 C 0.12259 0.46661 0.91389 0.0
C274 C 0.12454 0.51563 0.81473 0.0
C275 C 0.12282 0.53811 0.76964 0.0
C276 C 0.48502 0.13677 0.82039 0.0
C277 C 0.46232 0.1348 0.77288 0.0
C278 C 0.51109 0.13686 0.87864 0.0
C279 C 0.53205 0.13481 0.93009 0.0
C280 C 0.66499 0.98649 0.83222 0.0
C281 C 0.65048 0.96315 0.80956 0.0
C282 C 0.66494 0.01939 0.84624 0.0
C283 C 0.65021 0.04238 0.87017 0.0
C284 C 0.03013 0.67344 0.90743 0.0
C285 C 0.05649 0.67383 0.88048 0.0
C286 C -0.00104 0.66245 0.91592 0.0
C287 C 0.97375 0.64962 0.92323 0.0
C288 C 0.34144 0.01963 0.85293 0.0
C289 C 0.3433 0.04808 0.84793 0.0
C290 C 0.34164 0.98594 0.84608 0.0
C291 C 0.3433 0.95727 0.84725 0.0
C292 C -0.00137 0.34519 0.77106 0.0
C293 C 0.97324 0.35748 0.76259 0.0
C294 C 0.02979 0.33436 0.78039 0.0
C295 C 0.05614 0.33318 0.80716 0.0
C296 C 0.35741 0.98882 0.31165 0.0
C297 C 0.36053 0.96663 0.25912 0.0
C298 C 0.3572 0.01563 0.37263 0.0
C299 C 0.36005 0.03784 0.42523 0.0
C300 C 0.01137 0.36784 0.30605 0.0
C301 C 0.03235 0.3699 0.25464 0.0
C302 C 0.98524 0.36789 0.36414 0.0
C303 C 0.96248 0.36978 0.41145 0.0
C304 C 0.624 0.01544 0.31465 0.0
C305 C 0.62218 0.03779 0.26932 0.0
C306 C 0.624 0.98903 0.36899 0.0
C307 C 0.6222 0.96667 0.4143 0.0
C308 C 0.01118 0.63758 0.37996 0.0
C309 C 0.0322 0.63552 0.43136 0.0
C310 C 0.98507 0.63744 0.32169 0.0
C311 C 0.96237 0.63547 0.27409 0.0
C312 C 0.25096 0.24419 0.37436 0.0
C313 C 0.26189 0.23334 0.43478 0.0
C314 C 0.23768 0.2573 0.30396 0.0
C315 C 0.22668 0.26794 0.24333 0.0
C316 C 0.73132 0.25841 0.30648 0.0
C317 C 0.72368 0.24762 0.2395 0.0
C318 C 0.74159 0.26844 0.38601 0.0
C319 C 0.75247 0.27568 0.45243 0.0
C320 C 0.73173 0.74625 0.37697 0.0
C321 C 0.72414 0.75704 0.44393 0.0
C322 C 0.74194 0.73624 0.29746 0.0
C323 C 0.75279 0.72903 0.23106 0.0
C324 C 0.25112 0.76019 0.30862 0.0
C325 C 0.26204 0.77111 0.2483 0.0
C326 C 0.23786 0.74701 0.37894 0.0
C327 C 0.22688 0.73635 0.43953 0.0
C328 C 0.738 0.75777 0.80391 0.0
C329 C 0.72699 0.76842 0.7433 0.0
C330 C 0.75128 0.74462 0.87429 0.0
C331 C 0.76218 0.73373 0.93469 0.0
C332 C 0.23176 0.75881 0.80587 0.0
C333 C 0.22416 0.74796 0.73892 0.0
C334 C 0.24201 0.76884 0.88541 0.0
C335 C 0.25287 0.77603 0.95186 0.0
C336 C 0.23136 0.24555 0.87702 0.0
C337 C 0.2238 0.25636 0.94398 0.0
C338 C 0.24158 0.23558 0.79749 0.0
C339 C 0.25246 0.22846 0.73108 0.0
C340 C 0.75077 0.26023 0.80928 0.0
C341 C 0.76174 0.2711 0.74895 0.0
C342 C 0.73745 0.24706 0.87956 0.0
C343 C 0.72643 0.23635 0.94009 0.0
loop_
_geom_bond_atom_site_label_1
_geom_bond_atom_site_label_2
_geom_bond_distance
_geom_bond_site_symmetry_2
_ccdc_geom_bond_type
O0 Tb1 2.292 . S
O0 C3 1.255 . S
Tb1 O0 2.292 . S
Tb1 O17 2.326 . S
Tb1 O19 2.500 . S
Tb1 O20 2.473 1_556 S
Tb1 O23 2.324 1_556 S
Eu2 O6 2.292 . S
Eu2 C7 2.852 . S
Eu2 O18 2.324 1_554 S
Eu2 O22 2.326 . S
Eu2 O24 2.500 . S
Eu2 O25 2.468 1_554 S
C3 O0 1.255 . S
C3 O4 1.247 . S
O4 C3 1.247 . S
C5 O17 1.242 . S
C5 O18 1.258 . S
O6 Eu2 2.292 . S
O6 C8 1.255 . S
C7 Eu2 2.852 . S
C7 C11 1.503 . S
C7 O24 1.273 . S
C7 O25 1.247 1_554 S
C8 O6 1.255 . S
C8 O9 1.247 . S
O9 C8 1.247 . S
C10 O22 1.242 . S
C10 O23 1.258 . S
C11 C7 1.503 . S
C11 C12 1.379 1_554 S
C11 C16 1.392 . S
C12 C11 1.379 1_556 S
C12 C13 1.404 . S
C12 H26 0.929 . S
C13 C12 1.404 . S
C13 C14 1.389 1_556 S
C14 C13 1.389 1_554 S
C14 C15 1.399 . S
C14 H27 0.931 . S
C15 C14 1.399 . S
C15 C16 1.390 . S
C16 C11 1.392 . S
C16 C15 1.390 . S
C16 H28 0.929 . S
O17 Tb1 2.326 . S
O17 C5 1.242 . S
O18 Eu2 2.324 1_556 S
O18 C5 1.258 . S
O19 Tb1 2.500 . S
O19 C21 1.273 . S
O20 Tb1 2.473 1_554 S
O20 C21 1.257 1_554 S
C21 O19 1.273 . S
C21 O20 1.257 1_556 S
O22 Eu2 2.326 . S
O22 C10 1.242 . S
O23 Tb1 2.324 1_554 S
O23 C10 1.258 . S
O24 Eu2 2.500 . S
O24 C7 1.273 . S
O25 Eu2 2.468 1_556 S
O25 C7 1.247 1_556 S
H26 C12 0.929 . S
H27 C14 0.931 . S
H28 C16 0.929 . S
O29 Tb30 2.292 . S
O29 C32 1.255 . S
Tb30 O29 2.292 . S
Tb30 O46 2.326 . S
Tb30 O48 2.500 . S
Tb30 O49 2.473 . S
Tb30 O52 2.324 1_554 S
Eu31 O35 2.292 . S
Eu31 C36 2.852 1_556 S
Eu31 O47 2.324 1_556 S
Eu31 O51 2.326 . S
Eu31 O53 2.500 . S
Eu31 O54 2.473 1_556 S
C32 O29 1.255 . S
C32 O33 1.247 . S
O33 C32 1.247 . S
C34 O46 1.242 . S
C34 O47 1.258 . S
O35 Eu31 2.292 . S
O35 C37 1.255 . S
C36 Eu31 2.852 1_554 S
C36 C40 1.503 . S
C36 O53 1.273 1_554 S
C36 O54 1.257 . S
C37 O35 1.255 . S
C37 O38 1.247 . S
O38 C37 1.247 . S
C39 O51 1.242 . S
C39 O52 1.258 . S
C40 C36 1.503 . S
C40 C41 1.379 . S
C40 C45 1.392 1_554 S
C41 C40 1.379 . S
C41 C42 1.404 . S
C41 H55 0.929 . S
C42 C41 1.404 . S
C42 C43 1.389 . S
C43 C42 1.389 . S
C43 C44 1.399 1_554 S
C43 H56 0.931 . S
C44 C43 1.399 1_556 S
C44 C45 1.390 . S
C45 C40 1.392 1_556 S
C45 C44 1.390 . S
C45 H57 0.929 . S
O46 Tb30 2.326 . S
O46 C34 1.242 . S
O47 Eu31 2.324 1_554 S
O47 C34 1.258 . S
O48 Tb30 2.500 . S
O48 C50 1.273 . S
O49 Tb30 2.473 . S
O49 C50 1.257 . S
C50 O48 1.273 . S
C50 O49 1.257 . S
O51 Eu31 2.326 . S
O51 C39 1.242 . S
O52 Tb30 2.324 1_556 S
O52 C39 1.258 . S
O53 Eu31 2.500 . S
O53 C36 1.273 1_556 S
O54 Eu31 2.473 1_554 S
O54 C36 1.257 . S
H55 C41 0.929 . S
H56 C43 0.931 . S
H57 C45 0.929 . S
O58 Tb59 2.292 . S
O58 C61 1.255 . S
Tb59 O58 2.292 . S
Tb59 O75 2.326 . S
Tb59 O77 2.500 . S
Tb59 O78 2.473 . S
Tb59 O81 2.324 1_554 S
Eu60 O64 2.276 1_554 S
Eu60 C65 2.852 . S
Eu60 O76 2.340 . S
Eu60 O80 2.323 1_554 S
Eu60 O82 2.493 1_554 S
Eu60 O83 2.481 . S
C61 O58 1.255 . S
C61 O62 1.247 . S
O62 C61 1.247 . S
C63 O75 1.242 . S
C63 O76 1.258 . S
O64 Eu60 2.276 1_556 S
O64 C66 1.255 . S
C65 Eu60 2.852 . S
C65 C69 1.503 . S
C65 O82 1.273 1_554 S
C65 O83 1.257 . S
C66 O64 1.255 . S
C66 O67 1.247 . S
O67 C66 1.247 . S
C68 O80 1.242 . S
C68 O81 1.258 . S
C69 C65 1.503 . S
C69 C70 1.379 . S
C69 C74 1.392 1_554 S
C70 C69 1.379 . S
C70 C71 1.404 . S
C70 H84 0.929 . S
C71 C70 1.404 . S
C71 C72 1.389 . S
C72 C71 1.389 . S
C72 C73 1.399 1_554 S
C72 H85 0.931 . S
C73 C72 1.399 1_556 S
C73 C74 1.390 . S
C74 C69 1.392 1_556 S
C74 C73 1.390 . S
C74 H86 0.929 . S
O75 Tb59 2.326 . S
O75 C63 1.242 . S
O76 Eu60 2.340 . S
O76 C63 1.258 . S
O77 Tb59 2.500 . S
O77 C79 1.273 . S
O78 Tb59 2.473 . S
O78 C79 1.257 . S
C79 O77 1.273 . S
C79 O78 1.257 . S
O80 Eu60 2.323 1_556 S
O80 C68 1.242 . S
O81 Tb59 2.324 1_556 S
O81 C68 1.258 . S
O82 Eu60 2.493 1_556 S
O82 C65 1.273 1_556 S
O83 Eu60 2.481 . S
O83 C65 1.257 . S
H84 C70 0.929 . S
H85 C72 0.931 . S
H86 C74 0.929 . S
O87 Tb88 2.292 . S
O87 C90 1.255 . S
Tb88 O87 2.292 . S
Tb88 O104 2.326 . S
Tb88 O106 2.500 . S
Tb88 O107 2.473 1_556 S
Tb88 O110 2.324 1_556 S
Eu89 O93 2.292 . S
Eu89 C94 2.852 . S
Eu89 O105 2.324 1_554 S
Eu89 O109 2.326 . S
Eu89 O111 2.500 . S
Eu89 O112 2.473 1_554 S
C90 O87 1.255 . S
C90 O91 1.247 . S
O91 C90 1.247 . S
C92 O104 1.242 . S
C92 O105 1.258 . S
O93 Eu89 2.292 . S
O93 C95 1.255 . S
C94 Eu89 2.852 . S
C94 C98 1.503 . S
C94 O111 1.273 . S
C94 O112 1.257 1_554 S
C95 O93 1.255 . S
C95 O96 1.247 . S
O96 C95 1.247 . S
C97 O109 1.242 . S
C97 O110 1.258 . S
C98 C94 1.503 . S
C98 C99 1.379 1_554 S
C98 C103 1.392 . S
C99 C98 1.379 1_556 S
C99 C100 1.404 . S
C99 H113 0.929 . S
C100 C99 1.404 . S
C100 C101 1.389 1_556 S
C101 C100 1.389 1_554 S
C101 C102 1.399 . S
C101 H114 0.931 . S
C102 C101 1.399 . S
C102 C103 1.390 . S
C103 C98 1.392 . S
C103 C102 1.390 . S
C103 H115 0.929 . S
O104 Tb88 2.326 . S
O104 C92 1.242 . S
O105 Eu89 2.324 1_556 S
O105 C92 1.258 . S
O106 Tb88 2.500 . S
O106 C108 1.273 . S
O107 Tb88 2.473 1_554 S
O107 C108 1.257 1_554 S
C108 O106 1.273 . S
C108 O107 1.257 1_556 S
O109 Eu89 2.326 . S
O109 C97 1.242 . S
O110 Tb88 2.324 1_554 S
O110 C97 1.258 . S
O111 Eu89 2.500 . S
O111 C94 1.273 . S
O112 Eu89 2.473 1_556 S
O112 C94 1.257 1_556 S
H113 C99 0.929 . S
H114 C101 0.931 . S
H115 C103 0.929 . S
O116 Tb117 2.292 . S
O116 C119 1.255 . S
Tb117 O116 2.292 . S
Tb117 O133 2.326 . S
Tb117 O135 2.500 . S
Tb117 O136 2.473 . S
Tb117 O139 2.324 . S
Eu118 O122 2.292 . S
Eu118 C123 2.852 . S
Eu118 O134 2.324 . S
Eu118 O138 2.326 . S
Eu118 O140 2.500 . S
Eu118 O141 2.473 . S
C119 O116 1.255 . S
C119 O120 1.247 . S
O120 C119 1.247 . S
C121 O133 1.242 . S
C121 O134 1.258 . S
O122 Eu118 2.292 . S
O122 C124 1.255 . S
C123 Eu118 2.852 . S
C123 C127 1.503 . S
C123 O140 1.273 . S
C123 O141 1.257 . S
C124 O122 1.255 . S
C124 O125 1.247 . S
O125 C124 1.247 . S
C126 O138 1.242 . S
C126 O139 1.258 . S
C127 C123 1.503 . S
C127 C128 1.379 . S
C127 C132 1.392 . S
C128 C127 1.379 . S
C128 C129 1.404 . S
C128 H142 0.929 . S
C129 C128 1.404 . S
C129 C130 1.389 . S
C130 C129 1.389 . S
C130 C131 1.399 . S
C130 H143 0.931 . S
C131 C130 1.399 . S
C131 C132 1.390 . S
C132 C127 1.392 . S
C132 C131 1.390 . S
C132 H144 0.929 . S
O133 Tb117 2.326 . S
O133 C121 1.242 . S
O134 Eu118 2.324 . S
O134 C121 1.258 . S
O135 Tb117 2.500 . S
O135 C137 1.273 . S
O136 Tb117 2.473 . S
O136 C137 1.257 . S
C137 O135 1.273 . S
C137 O136 1.257 . S
O138 Eu118 2.326 . S
O138 C126 1.242 . S
O139 Tb117 2.324 . S
O139 C126 1.258 . S
O140 Eu118 2.500 . S
O140 C123 1.273 . S
O141 Eu118 2.473 . S
O141 C123 1.257 . S
H142 C128 0.929 . S
H143 C130 0.931 . S
H144 C132 0.929 . S
O145 Tb146 2.292 . S
O145 C148 1.255 . S
Tb146 O145 2.292 . S
Tb146 O162 2.326 . S
Tb146 O164 2.500 . S
Tb146 O165 2.473 . S
Tb146 O168 2.324 . S
Eu147 O151 2.292 . S
Eu147 C152 2.852 . S
Eu147 O163 2.324 . S
Eu147 O167 2.326 . S
Eu147 O169 2.500 . S
Eu147 O170 2.473 . S
C148 O145 1.255 . S
C148 O149 1.247 . S
O149 C148 1.247 . S
C150 O162 1.242 . S
C150 O163 1.258 . S
O151 Eu147 2.292 . S
O151 C153 1.255 . S
C152 Eu147 2.852 . S
C152 C156 1.503 . S
C152 O169 1.273 . S
C152 O170 1.257 . S
C153 O151 1.255 . S
C153 O154 1.247 . S
O154 C153 1.247 . S
C155 O167 1.242 . S
C155 O168 1.258 . S
C156 C152 1.503 . S
C156 C157 1.379 . S
C156 C161 1.392 . S
C157 C156 1.379 . S
C157 C158 1.404 . S
C157 H171 0.929 . S
C158 C157 1.404 . S
C158 C159 1.389 . S
C159 C158 1.389 . S
C159 C160 1.399 . S
C159 H172 0.931 . S
C160 C159 1.399 . S
C160 C161 1.390 . S
C161 C156 1.392 . S
C161 C160 1.390 . S
C161 H173 0.929 . S
O162 Tb146 2.326 . S
O162 C150 1.242 . S
O163 Eu147 2.324 . S
O163 C150 1.258 . S
O164 Tb146 2.500 . S
O164 C166 1.273 . S
O165 Tb146 2.473 . S
O165 C166 1.257 . S
C166 O164 1.273 . S
C166 O165 1.257 . S
O167 Eu147 2.326 . S
O167 C155 1.242 . S
O168 Tb146 2.324 . S
O168 C155 1.258 . S
O169 Eu147 2.500 . S
O169 C152 1.273 . S
O170 Eu147 2.473 . S
O170 C152 1.257 . S
H171 C157 0.929 . S
H172 C159 0.931 . S
H173 C161 0.929 . S
O174 Tb175 2.292 . S
O174 C177 1.255 . S
Tb175 O174 2.292 . S
Tb175 O191 2.326 . S
Tb175 O193 2.500 . S
Tb175 O194 2.473 . S
Tb175 O197 2.324 . S
Eu176 O180 2.292 . S
Eu176 C181 2.852 . S
Eu176 O192 2.324 . S
Eu176 O196 2.326 . S
Eu176 O198 2.500 . S
Eu176 O199 2.473 . S
C177 O174 1.255 . S
C177 O178 1.247 . S
O178 C177 1.247 . S
C179 O191 1.242 . S
C179 O192 1.258 . S
O180 Eu176 2.292 . S
O180 C182 1.255 . S
C181 Eu176 2.852 . S
C181 C185 1.503 . S
C181 O198 1.273 . S
C181 O199 1.257 . S
C182 O180 1.255 . S
C182 O183 1.247 . S
O183 C182 1.247 . S
C184 O196 1.242 . S
C184 O197 1.258 . S
C185 C181 1.503 . S
C185 C186 1.379 . S
C185 C190 1.392 . S
C186 C185 1.379 . S
C186 C187 1.404 . S
C186 H200 0.929 . S
C187 C186 1.404 . S
C187 C188 1.389 . S
C188 C187 1.389 . S
C188 C189 1.399 . S
C188 H201 0.931 . S
C189 C188 1.399 . S
C189 C190 1.390 . S
C190 C185 1.392 . S
C190 C189 1.390 . S
C190 H202 0.929 . S
O191 Tb175 2.326 . S
O191 C179 1.242 . S
O192 Eu176 2.324 . S
O192 C179 1.258 . S
O193 Tb175 2.500 . S
O193 C195 1.273 . S
O194 Tb175 2.473 . S
O194 C195 1.257 . S
C195 O193 1.273 . S
C195 O194 1.257 . S
O196 Eu176 2.326 . S
O196 C184 1.242 . S
O197 Tb175 2.324 . S
O197 C184 1.258 . S
O198 Eu176 2.500 . S
O198 C181 1.273 . S
O199 Eu176 2.473 . S
O199 C181 1.257 . S
H200 C186 0.929 . S
H201 C188 0.931 . S
H202 C190 0.929 . S
O203 Tb204 2.292 . S
O203 C206 1.255 . S
Tb204 O203 2.292 . S
Tb204 O220 2.326 . S
Tb204 O222 2.500 . S
Tb204 O223 2.473 . S
Tb204 O226 2.324 . S
Eu205 O209 2.292 . S
Eu205 C210 2.852 . S
Eu205 O221 2.324 . S
Eu205 O225 2.326 . S
Eu205 O227 2.500 . S
Eu205 O228 2.473 . S
C206 O203 1.255 . S
C206 O207 1.247 . S
O207 C206 1.247 . S
C208 O220 1.242 . S
C208 O221 1.258 . S
O209 Eu205 2.292 . S
O209 C211 1.255 . S
C210 Eu205 2.852 . S
C210 C214 1.503 . S
C210 O227 1.273 . S
C210 O228 1.257 . S
C211 O209 1.255 . S
C211 O212 1.247 . S
O212 C211 1.247 . S
C213 O225 1.242 . S
C213 O226 1.258 . S
C214 C210 1.503 . S
C214 C215 1.379 . S
C214 C219 1.392 . S
C215 C214 1.379 . S
C215 C216 1.404 . S
C215 H229 0.929 . S
C216 C215 1.404 . S
C216 C217 1.389 . S
C217 C216 1.389 . S
C217 C218 1.399 . S
C217 H230 0.931 . S
C218 C217 1.399 . S
C218 C219 1.390 . S
C219 C214 1.392 . S
C219 C218 1.390 . S
C219 H231 0.929 . S
O220 Tb204 2.326 . S
O220 C208 1.242 . S
O221 Eu205 2.324 . S
O221 C208 1.258 . S
O222 Tb204 2.500 . S
O222 C224 1.273 . S
O223 Tb204 2.473 . S
O223 C224 1.257 . S
C224 O222 1.273 . S
C224 O223 1.257 . S
O225 Eu205 2.326 . S
O225 C213 1.242 . S
O226 Tb204 2.324 . S
O226 C213 1.258 . S
O227 Eu205 2.500 . S
O227 C210 1.273 . S
O228 Eu205 2.473 . S
O228 C210 1.257 . S
H229 C215 0.929 . S
H230 C217 0.931 . S
H231 C219 0.929 . S
C232 C233 1.170 1_554 S
C232 C234 1.380 1_455 S
C233 C232 1.170 1_556 S
C234 C232 1.380 1_655 S
C234 C235 1.170 . S
C235 C234 1.170 . S
C236 C237 1.170 1_544 S
C236 C238 1.380 . S
C237 C236 1.170 1_566 S
C238 C236 1.380 . S
C238 C239 1.170 . S
C239 C238 1.170 . S
C240 C241 1.170 . S
C240 C242 1.380 1_455 S
C241 C240 1.170 . S
C242 C240 1.380 1_655 S
C242 C243 1.170 . S
C243 C242 1.170 . S
C244 C245 1.170 . S
C244 C246 1.385 . S
C245 C244 1.170 . S
C246 C244 1.385 . S
C246 C247 1.165 1_565 S
C247 C246 1.165 1_545 S
C248 C249 1.170 . S
C248 C250 1.380 . S
C249 C248 1.170 . S
C250 C248 1.380 . S
C250 C251 1.170 . S
C251 C250 1.170 . S
C252 C253 1.170 . S
C252 C254 1.380 . S
C253 C252 1.170 . S
C254 C252 1.380 . S
C254 C255 1.170 . S
C255 C254 1.170 . S
C256 C257 1.170 . S
C256 C258 1.380 . S
C257 C256 1.170 . S
C258 C256 1.380 . S
C258 C259 1.170 . S
C259 C258 1.170 . S
C260 C261 1.170 . S
C260 C262 1.380 . S
C261 C260 1.170 . S
C262 C260 1.380 . S
C262 C263 1.170 . S
C263 C262 1.170 . S
C264 C265 1.170 . S
C264 C266 1.380 . S
C265 C264 1.170 . S
C266 C264 1.380 . S
C266 C267 1.170 . S
C267 C266 1.170 . S
C268 C269 1.170 . S
C268 C270 1.380 . S
C269 C268 1.170 . S
C270 C268 1.380 . S
C270 C271 1.170 . S
C271 C270 1.170 . S
C272 C273 1.170 . S
C272 C274 1.380 . S
C273 C272 1.170 . S
C274 C272 1.380 . S
C274 C275 1.170 . S
C275 C274 1.170 . S
C276 C277 1.170 . S
C276 C278 1.380 . S
C277 C276 1.170 . S
C278 C276 1.380 . S
C278 C279 1.170 . S
C279 C278 1.170 . S
C280 C281 1.170 . S
C280 C282 1.380 1_565 S
C281 C280 1.170 . S
C282 C280 1.380 1_545 S
C282 C283 1.170 . S
C283 C282 1.170 . S
C284 C285 1.170 . S
C284 C286 1.380 1_455 S
C285 C284 1.170 . S
C286 C284 1.380 1_655 S
C286 C287 1.170 . S
C287 C286 1.170 . S
C288 C289 1.170 . S
C288 C290 1.380 1_545 S
C289 C288 1.170 . S
C290 C288 1.380 1_565 S
C290 C291 1.170 . S
C291 C290 1.170 . S
C292 C293 1.170 . S
C292 C294 1.380 1_655 S
C293 C292 1.170 . S
C294 C292 1.380 1_455 S
C294 C295 1.170 . S
C295 C294 1.170 . S
C296 C297 1.170 . S
C296 C298 1.380 1_565 S
C297 C296 1.170 . S
C298 C296 1.380 1_545 S
C298 C299 1.170 . S
C299 C298 1.170 . S
C300 C301 1.170 . S
C300 C302 1.380 . S
C301 C300 1.170 . S
C302 C300 1.380 . S
C302 C303 1.170 1_455 S
C303 C302 1.170 1_655 S
C304 C305 1.170 . S
C304 C306 1.380 1_545 S
C305 C304 1.170 . S
C306 C304 1.380 1_565 S
C306 C307 1.170 . S
C307 C306 1.170 . S
C308 C309 1.170 . S
C308 C310 1.380 . S
C309 C308 1.170 . S
C310 C308 1.380 . S
C310 C311 1.170 1_455 S
C311 C310 1.170 1_655 S
C312 C313 1.170 . S
C312 C314 1.380 . S
C313 C312 1.170 . S
C314 C312 1.380 . S
C314 C315 1.170 . S
C315 C314 1.170 . S
C316 C317 1.170 . S
C316 C318 1.380 . S
C317 C316 1.170 . S
C318 C316 1.380 . S
C318 C319 1.170 . S
C319 C318 1.170 . S
C320 C321 1.170 . S
C320 C322 1.380 . S
C321 C320 1.170 . S
C322 C320 1.380 . S
C322 C323 1.170 . S
C323 C322 1.170 . S
C324 C325 1.170 . S
C324 C326 1.380 . S
C325 C324 1.170 . S
C326 C324 1.380 . S
C326 C327 1.170 . S
C327 C326 1.170 . S
C328 C329 1.170 . S
C328 C330 1.380 . S
C329 C328 1.170 . S
C330 C328 1.380 . S
C330 C331 1.170 . S
C331 C330 1.170 . S
C332 C333 1.170 . S
C332 C334 1.380 . S
C333 C332 1.170 . S
C334 C332 1.380 . S
C334 C335 1.170 . S
C335 C334 1.170 . S
C336 C337 1.170 . S
C336 C338 1.380 . S
C337 C336 1.170 . S
C338 C336 1.380 . S
C338 C339 1.170 . S
C339 C338 1.170 . S
C340 C341 1.170 . S
C340 C342 1.380 . S
C341 C340 1.170 . S
C342 C340 1.380 . S
C342 C343 1.170 . S
C343 C342 1.170 . S
C233 C21 0.506 . S
C235 C79 0.538 . S
C237 C108 0.400 . S
C239 C50 0.423 . S
C241 C137 0.409 . S
C243 C195 0.477 . S
C245 C224 0.466 . S
C247 C166 0.429 . S
C249 C124 0.811 . S
C251 C8 0.708 . S
C253 C153 0.859 . S
C255 C32 0.830 . S
C257 C177 1.211 . S
C259 C61 1.143 . S
C261 C206 0.912 . S
C263 C95 0.749 . S
C265 C184 2.088 . S
C267 C68 2.115 . S
C269 C213 2.165 . S
C271 C92 2.295 . S
C273 C5 2.409 . S
C275 C121 2.391 . S
C277 C150 2.313 . S
C279 C39 2.151 . S
C281 C211 0.695 . S
C283 C37 0.826 . S
C285 C119 0.857 . S
C287 C66 0.814 . S
C289 C148 1.220 . S
C291 C90 1.166 . S
C293 C182 0.869 . S
C295 C3 0.815 . S
C297 C97 2.097 . S
C299 C155 2.096 . S
C301 C10 2.154 . S
C303 C179 2.302 . S
C305 C34 2.397 . S
C307 C208 2.394 . S
C309 C126 2.167 . S
C311 C63 2.317 . S
C313 C160 2.756 . S
C315 C15 2.760 . S
C317 C42 2.386 . S
C319 C187 2.411 . S
C321 C216 2.381 . S
C323 C71 2.407 . S
C325 C102 2.756 . S
C327 C131 2.760 . S
C329 C218 2.760 . S
C331 C73 2.756 . S
C333 C129 2.391 . S
C335 C100 2.423 . S
C337 C13 2.404 . S
C339 C158 2.430 . S
C341 C189 2.759 . S
C343 C44 2.756 . S
