# Generated by pormake.
# Topology wiu, (6)-cn, num edge types: 1
# Building blocks:
#     Node 0, Type 0, BuildingBlock: KUMJIN_clean_sbu_1, # of connection points: 6
#     Node 1, Type 0, BuildingBlock: KUMJIN_clean_sbu_1, # of connection points: 6
#     Node 2, Type 0, BuildingBlock: KUMJIN_clean_sbu_1, # of connection points: 6
#     Node 3, Type 0, BuildingBlock: KUMJIN_clean_sbu_1, # of connection points: 6
#     Node 4, Type 0, BuildingBlock: KUMJIN_clean_sbu_1, # of connection points: 6
#     Node 5, Type 0, BuildingBlock: KUMJIN_clean_sbu_1, # of connection points: 6
#     Node 6, Type 0, BuildingBlock: KUMJIN_clean_sbu_1, # of connection points: 6
#     Node 7, Type 0, BuildingBlock: KUMJIN_clean_sbu_1, # of connection points: 6
#     Node 8, Type 0, BuildingBlock: KUMJIN_clean_sbu_1, # of connection points: 6
#     Node 9, Type 0, BuildingBlock: KUMJIN_clean_sbu_1, # of connection points: 6
#     Node 10, Type 0, BuildingBlock: KUMJIN_clean_sbu_1, # of connection points: 6
#     Node 11, Type 0, BuildingBlock: KUMJIN_clean_sbu_1, # of connection points: 6
#     Node 12, Type 0, BuildingBlock: KUMJIN_clean_sbu_1, # of connection points: 6
#     Node 13, Type 0, BuildingBlock: KUMJIN_clean_sbu_1, # of connection points: 6
#     Node 14, Type 0, BuildingBlock: KUMJIN_clean_sbu_1, # of connection points: 6
#     Node 15, Type 0, BuildingBlock: KUMJIN_clean_sbu_1, # of connection points: 6
#     Edge 16, Type (0, 0), BuildingBlock: KIFKEQ_clean_linker_1, # of connection points: 2
#     Edge 17, Type (0, 0), BuildingBlock: KIFKEQ_clean_linker_1, # of connection points: 2
#     Edge 18, Type (0, 0), BuildingBlock: KIFKEQ_clean_linker_1, # of connection points: 2
#     Edge 19, Type (0, 0), BuildingBlock: KIFKEQ_clean_linker_1, # of connection points: 2
#     Edge 20, Type (0, 0), BuildingBlock: KIFKEQ_clean_linker_1, # of connection points: 2
#     Edge 21, Type (0, 0), BuildingBlock: KIFKEQ_clean_linker_1, # of connection points: 2
#     Edge 22, Type (0, 0), BuildingBlock: KIFKEQ_clean_linker_1, # of connection points: 2
#     Edge 23, Type (0, 0), BuildingBlock: KIFKEQ_clean_linker_1, # of connection points: 2
#     Edge 24, Type (0, 0), BuildingBlock: KIFKEQ_clean_linker_1, # of connection points: 2
#     Edge 25, Type (0, 0), BuildingBlock: KIFKEQ_clean_linker_1, # of connection points: 2
#     Edge 26, Type (0, 0), BuildingBlock: KIFKEQ_clean_linker_1, # of connection points: 2
#     Edge 27, Type (0, 0), BuildingBlock: KIFKEQ_clean_linker_1, # of connection points: 2
#     Edge 28, Type (0, 0), BuildingBlock: KIFKEQ_clean_linker_1, # of connection points: 2
#     Edge 29, Type (0, 0), BuildingBlock: KIFKEQ_clean_linker_1, # of connection points: 2
#     Edge 30, Type (0, 0), BuildingBlock: KIFKEQ_clean_linker_1, # of connection points: 2
#     Edge 31, Type (0, 0), BuildingBlock: KIFKEQ_clean_linker_1, # of connection points: 2
#     Edge 32, Type (0, 0), BuildingBlock: KIFKEQ_clean_linker_1, # of connection points: 2
#     Edge 33, Type (0, 0), BuildingBlock: KIFKEQ_clean_linker_1, # of connection points: 2
#     Edge 34, Type (0, 0), BuildingBlock: KIFKEQ_clean_linker_1, # of connection points: 2
#     Edge 35, Type (0, 0), BuildingBlock: KIFKEQ_clean_linker_1, # of connection points: 2
#     Edge 36, Type (0, 0), BuildingBlock: KIFKEQ_clean_linker_1, # of connection points: 2
#     Edge 37, Type (0, 0), BuildingBlock: KIFKEQ_clean_linker_1, # of connection points: 2
#     Edge 38, Type (0, 0), BuildingBlock: KIFKEQ_clean_linker_1, # of connection points: 2
#     Edge 39, Type (0, 0), BuildingBlock: KIFKEQ_clean_linker_1, # of connection points: 2
#     Edge 40, Type (0, 0), BuildingBlock: KIFKEQ_clean_linker_1, # of connection points: 2
#     Edge 41, Type (0, 0), BuildingBlock: KIFKEQ_clean_linker_1, # of connection points: 2
#     Edge 42, Type (0, 0), BuildingBlock: KIFKEQ_clean_linker_1, # of connection points: 2
#     Edge 43, Type (0, 0), BuildingBlock: KIFKEQ_clean_linker_1, # of connection points: 2
#     Edge 44, Type (0, 0), BuildingBlock: KIFKEQ_clean_linker_1, # of connection points: 2
#     Edge 45, Type (0, 0), BuildingBlock: KIFKEQ_clean_linker_1, # of connection points: 2
#     Edge 46, Type (0, 0), BuildingBlock: KIFKEQ_clean_linker_1, # of connection points: 2
#     Edge 47, Type (0, 0), BuildingBlock: KIFKEQ_clean_linker_1, # of connection points: 2
#     Edge 48, Type (0, 0), BuildingBlock: KIFKEQ_clean_linker_1, # of connection points: 2
#     Edge 49, Type (0, 0), BuildingBlock: KIFKEQ_clean_linker_1, # of connection points: 2
#     Edge 50, Type (0, 0), BuildingBlock: KIFKEQ_clean_linker_1, # of connection points: 2
#     Edge 51, Type (0, 0), BuildingBlock: KIFKEQ_clean_linker_1, # of connection points: 2
#     Edge 52, Type (0, 0), BuildingBlock: KIFKEQ_clean_linker_1, # of connection points: 2
#     Edge 53, Type (0, 0), BuildingBlock: KIFKEQ_clean_linker_1, # of connection points: 2
#     Edge 54, Type (0, 0), BuildingBlock: KIFKEQ_clean_linker_1, # of connection points: 2
#     Edge 55, Type (0, 0), BuildingBlock: KIFKEQ_clean_linker_1, # of connection points: 2
#     Edge 56, Type (0, 0), BuildingBlock: KIFKEQ_clean_linker_1, # of connection points: 2
#     Edge 57, Type (0, 0), BuildingBlock: KIFKEQ_clean_linker_1, # of connection points: 2
#     Edge 58, Type (0, 0), BuildingBlock: KIFKEQ_clean_linker_1, # of connection points: 2
#     Edge 59, Type (0, 0), BuildingBlock: KIFKEQ_clean_linker_1, # of connection points: 2
#     Edge 60, Type (0, 0), BuildingBlock: KIFKEQ_clean_linker_1, # of connection points: 2
#     Edge 61, Type (0, 0), BuildingBlock: KIFKEQ_clean_linker_1, # of connection points: 2
#     Edge 62, Type (0, 0), BuildingBlock: KIFKEQ_clean_linker_1, # of connection points: 2
#     Edge 63, Type (0, 0), BuildingBlock: KIFKEQ_clean_linker_1, # of connection points: 2
# Relax obj value: 0.341
# Max RMSD: 0.281
# Mean RMSD: 0.281
data_MOF--net-wiu--node1-KUMJIN_clean_sbu_1--edge1-KIFKEQ_clean_linker_1
_symmetry_space_group_name_H-M    P1
_symmetry_Int_Tables_number       1
_symmetry_cell_setting            triclinic
loop_
_symmetry_equiv_pos_as_xyz
'x, y, z'
_cell_length_a     38.144206
_cell_length_b     38.037748
_cell_length_c     54.872505
_cell_angle_alpha  90.28632
_cell_angle_beta   89.912259
_cell_angle_gamma 90.058821
loop_
_atom_site_label
_atom_site_type_symbol
_atom_site_fract_x
_atom_site_fract_y
_atom_site_fract_z
_atom_type_partial_charge
Eu0 Eu 0.3879 0.11301 0.2235 0.0
C1 C 0.31373 0.23702 0.19774 0.0
N2 N 0.34162 0.21806 0.20619 0.0
C3 C 0.37785 0.24114 0.1743 0.0
C4 C 0.3172 0.2589 0.17721 0.0
C5 C 0.37322 0.21959 0.1946 0.0
C6 C 0.3499 0.26122 0.16576 0.0
C7 C 0.25066 0.24744 0.19792 0.0
C8 C 0.28058 0.23152 0.20805 0.0
C9 C 0.25457 0.27089 0.17844 0.0
C10 C 0.28771 0.27662 0.16814 0.0
Eu11 Eu 0.33024 0.1898 0.2438 0.0
N12 N 0.27725 0.20721 0.22601 0.0
C13 C 0.21755 0.23784 0.20681 0.0
C14 C 0.24514 0.19673 0.23418 0.0
C15 C 0.21478 0.21202 0.22476 0.0
H16 H 0.39506 0.20448 0.20072 0.0
H17 H 0.18928 0.20405 0.23144 0.0
H18 H 0.33894 0.05388 0.19281 0.0
H19 H 0.50607 0.08818 0.27652 0.0
H20 H 0.24313 0.17732 0.24843 0.0
H21 H 0.19394 0.24943 0.19942 0.0
H22 H 0.46422 0.12332 0.25275 0.0
H23 H 0.40307 0.24229 0.16526 0.0
H24 H 0.23191 0.28369 0.17057 0.0
H25 H 0.29004 0.29383 0.15254 0.0
H26 H 0.32684 0.99037 0.19301 0.0
H27 H 0.35361 0.27771 0.14992 0.0
H28 H 0.49605 0.0244 0.28197 0.0
N29 N 0.37778 0.05148 0.2205 0.0
C30 C 0.3978 0.03024 0.23445 0.0
C31 C 0.34667 1.00123 0.20497 0.0
C32 C 0.39262 0.99353 0.23465 0.0
C33 C 0.35352 0.03735 0.20499 0.0
C34 C 0.36611 0.97919 0.22006 0.0
N35 N 0.43033 0.08019 0.24515 0.0
C36 C 0.45954 0.09556 0.25491 0.0
C37 C 0.44844 0.0239 0.26051 0.0
C38 C 0.42514 0.04513 0.24718 0.0
C39 C 0.47751 0.03977 0.27156 0.0
C40 C 0.48333 0.07571 0.26845 0.0
H41 H 0.36124 0.95113 0.2197 0.0
H42 H 0.41106 0.94406 0.24928 0.0
H43 H 0.46008 0.97073 0.27198 0.0
O44 O 0.39983 0.14113 0.18987 0.0
O45 O 0.39283 0.12358 0.26446 0.0
O46 O 0.34191 0.15138 0.27585 0.0
O47 O 0.42849 0.09369 0.19945 0.0
O48 O 0.42136 0.16165 0.23297 0.0
O49 O 0.38707 0.20592 0.24888 0.0
O50 O 0.29409 0.21302 0.27056 0.0
O51 O 0.30996 0.16688 0.20719 0.0
O52 O 0.34174 0.11766 0.19653 0.0
O53 O 0.33722 0.24372 0.25605 0.0
O54 O 0.30566 0.13939 0.25562 0.0
O55 O 0.33073 0.09726 0.23045 0.0
C56 C 0.36831 0.12982 0.28082 0.0
C57 C 0.40901 0.09802 0.15902 0.0
C58 C 0.40213 0.04273 0.13679 0.0
C59 C 0.3798 0.05938 1.12017 0.0
C60 C 0.38645 0.11444 0.14235 0.0
C61 C 0.37226 0.09521 1.12289 0.0
C62 C 0.41754 0.06256 0.15546 0.0
C63 C 0.41783 0.19323 0.24275 0.0
C64 C 0.41969 0.11531 0.18201 0.0
C65 C 0.41472 0.9723 0.24877 0.0
C66 C 0.44262 0.98747 0.26169 0.0
C67 C 0.31664 0.14065 0.19203 0.0
C68 C 0.30698 0.26819 0.28954 0.0
C69 C 0.295 0.32837 0.30213 0.0
C70 C 0.30661 0.32003 0.32575 0.0
C71 C 0.31876 0.26003 0.31295 0.0
C72 C 0.29476 0.30187 0.28433 0.0
C73 C 0.31824 0.28597 0.3311 0.0
C74 C 0.30481 0.10902 0.24422 0.0
C75 C 0.30894 0.24366 0.26922 0.0
H76 H 0.36792 0.04467 1.10539 0.0
H77 H 0.37902 0.14173 0.14473 0.0
H78 H 0.35465 0.10791 1.11024 0.0
H79 H 0.43562 0.04981 0.16782 0.0
H80 H 0.30736 0.33988 0.33995 0.0
H81 H 0.32858 0.234 0.31703 0.0
H82 H 0.28525 0.30741 0.26612 0.0
H83 H 0.32739 0.27986 0.34924 0.0
Eu84 Eu 0.68067 0.64838 0.4754 0.0
C85 C 0.5718 0.54284 0.45276 0.0
N86 N 0.58235 0.57628 0.45833 0.0
C87 C 0.55202 0.59811 0.42319 0.0
C88 C 0.55093 0.53602 0.43206 0.0
C89 C 0.57308 0.60372 0.44365 0.0
C90 C 0.54056 0.56424 0.41752 0.0
C91 C 0.57792 0.47992 0.45939 0.0
C92 C 0.58503 0.51492 0.46637 0.0
C93 C 0.55573 0.47326 0.43951 0.0
C94 C 0.5422 0.50121 0.42594 0.0
Eu95 Eu 0.61343 0.58168 0.49583 0.0
N96 N 0.60735 0.522 0.48509 0.0
C97 C 0.59437 0.45263 0.47203 0.0
C98 C 0.62415 0.49561 0.49709 0.0
C99 C 0.61787 0.46053 0.49078 0.0
H100 H 0.58196 0.63007 0.4472 0.0
H101 H 0.63094 0.43962 0.5005 0.0
H102 H 0.72794 0.60491 0.43201 0.0
H103 H 0.7223 0.75845 0.53199 0.0
H104 H 0.64147 0.5017 0.51207 0.0
H105 H 0.58965 0.42541 0.46714 0.0
H106 H 0.68023 0.71913 0.51113 0.0
H107 H 0.54476 0.61999 0.41172 0.0
H108 H 0.54968 0.44653 0.43404 0.0
H109 H 0.52594 0.49556 0.41023 0.0
H110 H 0.78946 0.59624 0.42054 0.0
H111 H 0.52453 0.56003 0.40148 0.0
H112 H 0.78607 0.75024 0.52572 0.0
N113 N 0.73909 0.64157 0.46052 0.0
C114 C 0.76444 0.66029 0.47206 0.0
C115 C 0.78282 0.6143 0.43513 0.0
C116 C 0.80015 0.65633 0.46591 0.0
C117 C 0.74776 0.61941 0.44175 0.0
C118 C 0.8092 0.63257 0.44743 0.0
N119 N 0.71975 0.68883 0.49363 0.0
C120 C 0.70798 0.71549 0.50823 0.0
C121 C 0.77943 0.70658 0.50064 0.0
C122 C 0.75438 0.68484 0.48918 0.0
C123 C 0.76769 0.73296 0.51655 0.0
C124 C 0.73173 0.73776 0.52007 0.0
H125 H 0.83633 0.62869 0.44219 0.0
H126 H 0.85309 0.67391 0.47369 0.0
H127 H 0.83486 0.7181 0.50411 0.0
O128 O 0.63824 0.66579 0.45167 0.0
O129 O 0.68452 0.64512 0.51664 0.0
O130 O 0.64867 0.59919 0.52911 0.0
O131 O 0.68631 0.697 0.45571 0.0
O132 O 0.63794 0.66993 0.50134 0.0
O133 O 0.59259 0.63696 0.48859 0.0
O134 O 0.58683 0.54678 0.52161 0.0
O135 O 0.63893 0.56272 0.45994 0.0
O136 O 0.66791 0.61027 0.44344 0.0
O137 O 0.56205 0.59573 0.51068 0.0
O138 O 0.66805 0.56566 0.507 0.0
O139 O 0.70122 0.59202 0.47716 0.0
C140 C 0.67287 0.62391 0.53375 0.0
C141 C 0.65124 0.70938 0.42145 0.0
C142 C 0.65807 0.76154 0.39632 0.0
C143 C 0.64125 0.74386 0.37702 0.0
C144 C 0.63421 0.69195 0.40227 0.0
C145 C 0.62943 0.70922 0.38005 0.0
C146 C 0.66315 0.74374 0.41828 0.0
C147 C 0.60417 0.66707 0.49692 0.0
C148 C 0.65524 0.69447 0.44578 0.0
C149 C 0.82551 0.67677 0.47801 0.0
C150 C 0.81515 0.7019 0.49534 0.0
C151 C 0.6549 0.57805 0.44147 0.0
C152 C 0.53332 0.56245 0.54173 0.0
C153 C 0.47382 0.54677 0.55384 0.0
C154 C 0.48227 0.55604 0.57802 0.0
C155 C 0.54144 0.57154 0.56577 0.0
C156 C 0.49981 0.54999 0.53583 0.0
C157 C 0.51588 0.56824 0.58389 0.0
C158 C 0.69545 0.56601 0.49248 0.0
C159 C 0.55875 0.56598 0.52205 0.0
H160 H 0.63709 0.75679 0.35974 0.0
H161 H 0.62455 0.66535 0.40446 0.0
H162 H 0.61637 0.69581 0.36518 0.0
H163 H 0.67689 0.75658 0.43317 0.0
H164 H 0.46283 0.55435 0.59236 0.0
H165 H 0.5673 0.58123 0.57045 0.0
H166 H 0.49419 0.54248 0.51714 0.0
H167 H 0.52204 0.57536 0.60251 0.0
Eu168 Eu 0.15158 0.93774 0.72173 0.0
C169 C 0.23915 0.82562 0.6939 0.0
N170 N 0.20826 0.83821 0.70329 0.0
C171 C 0.17681 0.81228 0.6698 0.0
C172 C 0.23963 0.8058 0.67209 0.0
C173 C 0.17739 0.83179 0.69142 0.0
C174 C 0.20795 0.79899 0.6602 0.0
C175 C 0.30311 0.82443 0.69479 0.0
C176 C 0.27088 0.83478 0.70513 0.0
C177 C 0.30331 0.80344 0.6737 0.0
C178 C 0.27172 0.79419 0.6624 0.0
Eu179 Eu 0.21481 0.867 0.74178 0.0
N180 N 0.27021 0.85659 0.72489 0.0
C181 C 0.33425 0.83648 0.7055 0.0
C182 C 0.3003 0.86884 0.73525 0.0
C183 C 0.33282 0.85899 0.72569 0.0
H184 H 0.15281 0.84106 0.69833 0.0
H185 H 0.35675 0.86863 0.73393 0.0
H186 H 0.19071 0.98202 0.6759 0.0
H187 H 0.05475 0.98564 0.78719 0.0
H188 H 0.29908 0.88582 0.75109 0.0
H189 H 0.35952 0.82909 0.69804 0.0
H190 H 0.08676 0.94108 0.76313 0.0
H191 H 0.1522 0.80736 0.66059 0.0
H192 H 0.32784 0.79499 0.6656 0.0
H193 H 0.27244 0.77871 0.64577 0.0
H194 H 0.20183 0.04342 0.66417 0.0
H195 H 0.20729 0.78394 0.64339 0.0
H196 H 0.06643 0.0489 0.78059 0.0
N197 N 0.15962 0.99553 0.70679 0.0
C198 C 0.14466 1.02187 0.71992 0.0
C199 C 0.18573 0.03773 0.67992 0.0
C200 C 0.15015 0.05741 0.71379 0.0
C201 C 0.17929 1.00288 0.68663 0.0
C202 C 0.17138 0.06515 0.6937 0.0
N203 N 0.11678 0.97866 0.74346 0.0
C204 C 0.09199 0.96858 0.76003 0.0
C205 C 0.10473 0.03954 0.75211 0.0
C206 C 0.12245 1.01314 0.73884 0.0
C207 C 0.08058 0.02943 0.76999 0.0
C208 C 0.07385 0.99376 0.77373 0.0
H209 H 0.17633 0.09212 0.68842 0.0
H210 H 0.13787 0.11143 0.72327 0.0
H211 H 0.09795 0.09573 0.75682 0.0
O212 O 0.12676 0.89829 0.69885 0.0
O213 O 0.16048 0.94411 0.7622 0.0
O214 O 0.19439 0.89791 0.77627 0.0
O215 O 0.104 0.95116 0.70235 0.0
O216 O 0.12597 0.89546 0.74609 0.0
O217 O 0.15887 0.84619 0.7404 0.0
O218 O 0.24787 0.84756 0.77173 0.0
O219 O 0.23679 0.89585 0.70807 0.0
O220 O 0.1889 0.92153 0.68996 0.0
O221 O 0.21903 0.81118 0.74918 0.0
O222 O 0.23524 0.92137 0.75169 0.0
O223 O 0.20779 0.95724 0.72363 0.0
C224 C 0.17623 0.92751 0.78003 0.0
C225 C 0.08406 0.91586 0.66941 0.0
C226 C 0.03005 0.92394 0.64659 0.0
C227 C 0.04495 0.90546 0.62687 0.0
C228 C 0.09876 0.89725 0.64982 0.0
C229 C 0.0792 0.89232 0.62851 0.0
C230 C 0.05022 0.92936 0.66756 0.0
C231 C 0.1283 0.86093 0.74424 0.0
C232 C 0.10113 0.91952 0.69305 0.0
C233 C 0.13375 0.08396 0.72757 0.0
C234 C 0.11105 0.07503 0.74669 0.0
C235 C 0.22173 0.91008 0.68887 0.0
C236 C 0.2394 0.78868 0.78617 0.0
C237 C 0.24847 0.72757 0.79816 0.0
C238 C 0.235 0.73587 0.82139 0.0
C239 C 0.22588 0.79651 0.80928 0.0
C240 C 0.25071 0.75442 0.78075 0.0
C241 C 0.22386 0.7701 0.82686 0.0
C242 C 0.234 0.95026 0.73851 0.0
C243 C 0.24144 0.81475 0.7667 0.0
H244 H 0.03014 0.90095 0.61033 0.0
H245 H 0.12494 0.88638 0.65105 0.0
H246 H 0.09046 0.87797 0.61333 0.0
H247 H 0.0396 0.94432 0.68275 0.0
H248 H 0.23253 0.71584 0.83523 0.0
H249 H 0.21679 0.82278 0.81364 0.0
H250 H 0.26152 0.74883 0.76284 0.0
H251 H 0.21337 0.7761 0.84473 0.0
Eu252 Eu 0.8621 0.40303 0.97293 0.0
C253 C 0.97181 0.50198 0.94893 0.0
N254 N 0.96198 0.46913 0.95644 0.0
C255 C 0.99405 0.44344 0.92311 0.0
C256 C 0.99253 0.50652 0.92785 0.0
C257 C 0.9735 0.44005 0.94406 0.0
C258 C 1.00365 0.47673 0.91498 0.0
C259 C 0.96634 0.5656 0.9529 0.0
C260 C 0.95906 0.53146 0.96143 0.0
C261 C 0.98789 0.56998 0.9324 0.0
C262 C 1.00096 0.54056 0.91994 0.0
Eu263 Eu 0.93069 0.46837 0.99411 0.0
N264 N 0.93701 0.52659 0.98066 0.0
C265 C 0.95078 0.59433 0.96477 0.0
C266 C 0.92145 0.55437 0.99213 0.0
C267 C 0.92806 0.58866 0.98435 0.0
H268 H 0.96781 0.41393 0.95018 0.0
H269 H 0.91578 0.61069 0.99354 0.0
H270 H 0.81434 0.44818 0.93088 0.0
H271 H 0.82259 0.28963 1.02659 0.0
H272 H 0.90456 0.55003 1.00764 0.0
H273 H 0.95571 0.62095 0.95871 0.0
H274 H 0.86349 0.33232 1.00873 0.0
H275 H 1.0028 0.42023 0.91336 0.0
H276 H 0.99397 0.59602 0.92569 0.0
H277 H 1.01701 0.54443 0.90387 0.0
H278 H 0.7537 0.45278 0.91713 0.0
H279 H 1.01956 0.47916 0.8987 0.0
H280 H 0.75948 0.29216 1.01641 0.0
N281 N 0.8044 0.40683 0.9562 0.0
C282 C 0.77967 0.38516 0.96564 0.0
C283 C 0.76062 0.43356 0.93078 0.0
C284 C 0.74431 0.38697 0.95817 0.0
C285 C 0.79532 0.43065 0.93869 0.0
C286 C 0.73493 0.41175 0.94064 0.0
N287 N 0.82422 0.35927 0.98864 0.0
C288 C 0.83615 0.33381 1.004 0.0
C289 C 0.76551 0.33658 0.99221 0.0
C290 C 0.78996 0.36052 0.98241 0.0
C291 C 0.77741 0.31103 1.00847 0.0
C292 C 0.81298 0.30948 1.01423 0.0
H293 H 0.70806 0.41405 0.93447 0.0
H294 H 0.69229 0.36493 0.96285 0.0
H295 H 0.71094 0.32062 0.99268 0.0
O296 O 0.90839 0.3929 0.95116 0.0
O297 O 0.85624 0.408 1.01399 0.0
O298 O 0.89711 0.44911 1.02754 0.0
O299 O 0.86436 0.35565 0.95098 0.0
O300 O 0.90288 0.37965 0.99928 0.0
O301 O 0.95128 0.41221 0.99111 0.0
O302 O 0.95156 0.50257 1.02304 0.0
O303 O 0.90344 0.48859 0.95922 0.0
O304 O 0.8732 0.44236 0.94186 0.0
O305 O 0.98561 0.46567 1.00444 0.0
O306 O 0.87657 0.48583 1.00528 0.0
O307 O 0.84118 0.45885 0.97659 0.0
C308 C 0.87043 0.42695 1.03159 0.0
C309 C 0.90387 0.35265 0.91783 0.0
C310 C 0.90614 0.30433 0.88871 0.0
C311 C 0.91984 0.32731 0.8711 0.0
C312 C 0.91793 0.37551 0.90037 0.0
C313 C 0.92588 0.36273 0.87703 0.0
C314 C 0.89829 0.31748 0.91192 0.0
C315 C 0.93721 0.38196 0.99697 0.0
C316 C 0.89584 0.36314 0.94284 0.0
C317 C 0.71957 0.36382 0.96827 0.0
C318 C 0.73017 0.33862 0.98525 0.0
C319 C 0.887 0.47423 0.94051 0.0
C320 C 1.00824 0.49187 1.04013 0.0
C321 C 0.06826 0.50342 1.05307 0.0
C322 C 0.059 0.49311 1.07684 0.0
C323 C 0.99927 0.48146 1.06375 0.0
C324 C 0.04243 0.5029 1.03493 0.0
C325 C 0.0247 0.48224 1.08208 0.0
C326 C 0.8481 0.48483 0.99185 0.0
C327 C 0.98342 0.4914 1.01996 0.0
H328 H 0.92562 0.31799 0.85286 0.0
H329 H 0.92267 0.40293 0.9047 0.0
H330 H 0.93653 0.38034 0.86347 0.0
H331 H 0.88667 0.30039 0.92551 0.0
H332 H 0.07831 0.49298 1.09128 0.0
H333 H 0.9729 0.47274 1.06792 0.0
H334 H 0.04874 0.51147 1.01661 0.0
H335 H 1.01789 0.47421 1.10038 0.0
Eu336 Eu 0.70627 0.86715 1.00853 0.0
C337 C 0.62354 1.0172 1.04794 0.0
N338 N 0.64128 0.98933 1.05681 0.0
C339 C 0.65326 1.02135 1.09369 0.0
C340 C 0.62076 0.04887 1.06125 0.0
C341 C 0.65491 0.99044 1.0798 0.0
C342 C 0.63658 0.05094 1.0842 0.0
C343 C 0.5851 0.04025 1.01698 0.0
C344 C 0.60606 1.01294 1.02631 0.0
C345 C 0.58349 0.07257 1.02945 0.0
C346 C 0.60133 0.07688 1.05159 0.0
Eu347 Eu 0.64821 0.93938 1.03121 0.0
N348 N 0.6078 0.98115 1.01521 0.0
C349 C 0.56563 0.0339 0.99584 0.0
C350 C 0.58755 0.97436 0.99516 0.0
C351 C 0.56656 1.00062 0.98505 0.0
H352 H 0.66695 0.96745 1.08764 0.0
H353 H 0.55115 0.99517 0.96892 0.0
H354 H 0.66301 0.82341 1.05368 0.0
H355 H 0.84677 0.87802 0.99046 0.0
H356 H 0.58799 0.94894 0.98638 0.0
H357 H 0.54921 0.05416 0.98806 0.0
H358 H 0.78382 0.88852 0.98301 0.0
H359 H 0.66462 1.02223 1.11174 0.0
H360 H 0.5678 0.094 1.02247 0.0
H361 H 0.59912 0.10157 1.0614 0.0
H362 H 0.67731 0.7821 1.0865 0.0
H363 H 0.63507 0.07478 1.09504 0.0
H364 H 0.86511 0.83895 1.02398 0.0
N365 N 0.71617 0.83077 1.04279 0.0
C366 C 0.75033 0.82125 1.04627 0.0
C367 C 0.69805 0.79301 1.07537 0.0
C368 C 0.75952 0.79772 1.06499 0.0
C369 C 0.69006 0.81661 1.05678 0.0
C370 C 0.73286 0.78349 1.07949 0.0
N371 N 0.76701 0.85841 1.01338 0.0
C372 C 0.79168 0.87286 0.99841 0.0
C373 C 0.812 0.82858 1.03602 0.0
C374 C 0.7764 0.83643 1.03179 0.0
C375 C 0.83749 0.84422 1.0212 0.0
C376 C 0.82727 0.86638 1.00229 0.0
H377 H 0.73891 0.76534 1.09404 0.0
H378 H 0.80245 0.77181 1.08341 0.0
H379 H 0.8483 0.79889 1.05819 0.0
O380 O 0.73568 0.82631 0.98857 0.0
O381 O 0.71666 0.88304 1.04927 0.0
O382 O 0.69834 0.94013 1.05464 0.0
O383 O 0.67991 0.83055 0.98389 0.0
O384 O 0.73169 0.91948 0.99938 0.0
O385 O 0.70398 0.95917 1.02538 0.0
O386 O 0.64926 0.89008 1.05085 0.0
O387 O 0.65463 0.94701 0.99031 0.0
O388 O 0.69482 0.90574 0.97631 0.0
O389 O 0.60465 0.92523 1.05484 0.0
O390 O 0.61904 0.90118 1.00543 0.0
O391 O 0.64884 0.85122 1.01456 0.0
C392 C 0.71724 0.91294 1.06185 0.0
C393 C 0.70276 0.77377 0.99017 0.0
C394 C 0.7193 0.71195 0.99059 0.0
C395 C 0.69328 0.70541 1.00811 0.0
C396 C 0.67765 0.76652 1.0083 0.0
C397 C 0.67275 0.73266 1.01702 0.0
C398 C 0.72428 0.74628 0.98167 0.0
C399 C 0.73077 0.9495 1.01151 0.0
C400 C 0.70731 0.81034 0.9816 0.0
C401 C 0.79495 0.78973 1.06905 0.0
C402 C 0.82108 0.80524 1.05472 0.0
C403 C 0.67356 0.93311 0.97261 0.0
C404 C 0.61499 0.88498 1.08675 0.0
C405 C 0.5743 0.87443 1.12 0.0
C406 C 0.6024 0.86433 0.13493 0.0
C407 C 0.64302 0.87434 1.10153 0.0
C408 C 0.58101 0.8845 1.09598 0.0
C409 C 0.63661 0.86399 1.12557 0.0
C410 C 0.61961 0.86661 1.00762 0.0
C411 C 0.61916 0.89554 1.06133 0.0
H412 H 0.68942 0.67922 1.01534 0.0
H413 H 0.66185 0.78705 1.01612 0.0
H414 H 0.65321 0.72763 1.0309 0.0
H415 H 0.74456 0.75148 0.96831 0.0
H416 H 0.59791 0.85708 0.15373 0.0
H417 H 0.66961 0.87406 1.09464 0.0
H418 H 0.55965 0.89333 1.08447 0.0
H419 H 0.65823 0.85604 0.13704 0.0
Eu420 Eu 0.4267 0.46861 0.75554 0.0
C421 C 0.27625 0.38669 0.78531 0.0
N422 N 0.3017 0.40688 0.79548 0.0
C423 C 0.2595 0.4316 0.82326 0.0
C424 C 0.24124 0.38833 0.7936 0.0
C425 C 0.29383 0.42894 0.81446 0.0
C426 C 0.23302 0.41133 0.81271 0.0
C427 C 0.26012 0.34138 0.75626 0.0
C428 C 0.28544 0.36371 0.76691 0.0
C429 C 0.22511 0.34333 0.76408 0.0
C430 C 0.21567 0.3668 0.78271 0.0
Eu431 Eu 0.35845 0.40386 0.77742 0.0
N432 N 0.31943 0.36246 0.75987 0.0
C433 C 0.27085 0.31746 0.7383 0.0
C434 C 0.33022 0.33851 0.7428 0.0
C435 C 0.30614 0.31585 0.73168 0.0
H436 H 0.31359 0.44515 0.82282 0.0
H437 H 0.31483 0.29721 0.71799 0.0
H438 H 0.46318 0.41226 0.79855 0.0
H439 H 0.41521 0.61098 0.75779 0.0
H440 H 0.35734 0.33698 0.73739 0.0
H441 H 0.25222 0.29985 0.72968 0.0
H442 H 0.40288 0.55074 0.74276 0.0
H443 H 0.25347 0.4494 0.83813 0.0
H444 H 0.20525 0.32654 0.75604 0.0
H445 H 0.18863 0.36781 0.78875 0.0
H446 H 0.49744 0.41742 0.83569 0.0
H447 H 0.20645 0.41344 0.81957 0.0
H448 H 0.45421 0.61979 0.79329 0.0
N449 N 0.45773 0.46765 0.79328 0.0
C450 C 0.46765 0.50028 0.80148 0.0
C451 C 0.48903 0.44092 0.82633 0.0
C452 C 0.48811 0.50411 0.82274 0.0
C453 C 0.46884 0.43819 0.80518 0.0
C454 C 0.49872 0.47393 0.83514 0.0
N455 N 0.43372 0.52626 0.76995 0.0
C456 C 0.41939 0.55452 0.75853 0.0
C457 C 0.46338 0.56413 0.79847 0.0
C458 C 0.45555 0.5303 0.7894 0.0
C459 C 0.44882 0.59338 0.78682 0.0
C460 C 0.42661 0.58853 0.76685 0.0
H461 H 0.51439 0.47582 0.85154 0.0
H462 H 0.51274 0.54115 0.8475 0.0
H463 H 0.49105 0.59353 0.82634 0.0
O464 O 0.4461 0.5001 0.72459 0.0
O465 O 0.39881 0.48984 0.79014 0.0
O466 O 0.37165 0.44285 0.8085 0.0
O467 O 0.4823 0.47295 0.74806 0.0
O468 O 0.37203 0.48768 0.74623 0.0
O469 O 0.33709 0.45964 0.77474 0.0
O470 O 0.40427 0.39071 0.79861 0.0
O471 O 0.34985 0.41182 0.73711 0.0
O472 O 0.39476 0.44671 0.72184 0.0
O473 O 0.3583 0.35585 0.79847 0.0
O474 O 0.39917 0.37963 0.75104 0.0
O475 O 0.44791 0.4127 0.75752 0.0
C476 C 0.38421 0.47523 0.80943 0.0
C477 C 0.506 0.49315 0.71132 0.0
C478 C 0.56766 0.50311 0.70114 0.0
C479 C 0.56114 0.48926 0.67771 0.0
C480 C 0.49996 0.47939 0.68802 0.0
C481 C 0.52753 0.47764 0.67125 0.0
C482 C 0.53962 0.50509 0.71772 0.0
C483 C 0.34356 0.48607 0.75984 0.0
C484 C 0.47879 0.49461 0.73012 0.0
C485 C 0.49689 0.53786 0.83128 0.0
C486 C 0.48458 0.56772 0.8192 0.0
C487 C 0.36544 0.42772 0.71882 0.0
C488 C 0.39754 0.35068 0.83156 0.0
C489 C 0.39772 0.30228 0.86034 0.0
C490 C 0.41269 0.32456 0.878 0.0
C491 C 0.41278 0.37282 0.84911 0.0
C492 C 0.39025 0.31582 0.83727 0.0
C493 C 0.4203 0.35966 0.87231 0.0
C494 C 0.43361 0.38212 0.75265 0.0
C495 C 0.39015 0.36157 0.80662 0.0
H496 H 0.58207 0.48686 0.66447 0.0
H497 H 0.47421 0.46984 0.68292 0.0
H498 H 0.52294 0.46691 0.65323 0.0
H499 H 0.54376 0.51615 0.73575 0.0
H500 H 0.41832 0.31494 0.89611 0.0
H501 H 0.41883 0.39998 0.84496 0.0
H502 H 0.37772 0.29933 0.82363 0.0
H503 H 0.43191 0.37673 0.88593 0.0
Eu504 Eu 0.82976 0.18518 0.50914 0.0
C505 C 0.92303 0.03547 0.54067 0.0
N506 N 0.89501 0.05551 0.5468 0.0
C507 C 0.8716 1.00734 0.57009 0.0
C508 C 0.92695 1.00086 0.54958 0.0
C509 C 0.86947 0.04174 0.56147 0.0
C510 C 0.90076 0.98694 0.56449 0.0
C511 C 0.97651 0.0289 0.51748 0.0
C512 C 0.94727 0.04918 0.52485 0.0
C513 C 0.98117 0.99497 0.52685 0.0
C514 C 0.95639 0.98095 0.54289 0.0
Eu515 Eu 0.89172 0.11393 0.53083 0.0
N516 N 0.94171 0.08191 0.516 0.0
C517 C 0.99993 0.04302 0.50058 0.0
C518 C 0.96433 0.09526 0.49892 0.0
C519 C 0.99359 0.07624 0.4911 0.0
H520 H 0.84705 0.05672 0.56678 0.0
H521 H 1.01114 0.08721 0.4776 0.0
H522 H 0.87868 0.23159 0.55138 0.0
H523 H 0.68775 0.16533 0.50625 0.0
H524 H 0.96011 0.12028 0.49049 0.0
H525 H 0.02259 0.02827 0.49441 0.0
H526 H 0.74902 0.1565 0.49342 0.0
H527 H 0.85071 0.99669 0.58119 0.0
H528 H 1.00354 0.97917 0.5215 0.0
H529 H 0.95995 0.95451 0.54972 0.0
H530 H 0.86843 0.27483 0.58346 0.0
H531 H 0.9026 0.96042 0.5715 0.0
H532 H 0.67385 0.20839 0.53873 0.0
N533 N 0.82432 0.22369 0.54331 0.0
C534 C 0.79074 0.23303 0.54912 0.0
C535 C 0.84638 0.26336 0.5739 0.0
C536 C 0.78397 0.25757 0.56793 0.0
C537 C 0.85201 0.23867 0.55539 0.0
C538 C 0.81229 0.27299 0.58012 0.0
N539 N 0.77003 0.19164 0.51984 0.0
C540 C 0.7435 0.17388 0.50848 0.0
C541 C 0.72813 0.22259 0.54486 0.0
C542 C 0.76299 0.21575 0.53762 0.0
C543 C 0.70092 0.20395 0.53357 0.0
C544 C 0.70866 0.17948 0.51533 0.0
H545 H 0.80811 0.29187 0.59468 0.0
H546 H 0.74363 0.28384 0.58903 0.0
H547 H 0.69483 0.25318 0.56893 0.0
O548 O 0.79381 0.21717 0.48722 0.0
O549 O 0.82213 0.17017 0.54986 0.0
O550 O 0.8405 0.11317 0.55359 0.0
O551 O 0.85034 0.22734 0.48601 0.0
O552 O 0.80743 0.13146 0.49929 0.0
O553 O 0.8368 0.09199 0.52417 0.0
O554 O 0.89114 0.16233 0.55238 0.0
O555 O 0.88982 0.10997 0.48958 0.0
O556 O 0.84337 0.14525 0.47749 0.0
O557 O 0.92826 0.12091 0.56086 0.0
O558 O 0.91918 0.15608 0.50751 0.0
O559 O 0.88607 0.20483 0.51395 0.0
C560 C 0.82126 0.13983 0.56147 0.0
C561 C 0.81309 0.26573 0.46224 0.0
C562 C 0.79283 0.3254 0.45376 0.0
C563 C 0.80329 0.32068 0.42931 0.0
C564 C 0.82323 0.26174 0.4379 0.0
C565 C 0.81818 0.28907 0.4215 0.0
C566 C 0.79779 0.29745 0.47023 0.0
C567 C 0.8096 0.10106 0.51064 0.0
C568 C 0.81908 0.23675 0.47915 0.0
C569 C 0.74925 0.26505 0.57464 0.0
C570 C 0.72145 0.24751 0.56323 0.0
C571 C 0.86772 0.12079 0.47279 0.0
C572 C 0.89812 0.148 0.5936 0.0
C573 C 0.87864 0.11278 0.62809 0.0
C574 C 0.86662 0.14323 0.63988 0.0
C575 C 0.88558 0.17834 0.60536 0.0
C576 C 0.89401 0.11539 0.605 0.0
C577 C 0.86973 0.17587 0.62835 0.0
C578 C 0.91674 0.1905 0.50958 0.0
C579 C 0.91236 0.1494 0.56863 0.0
H580 H 0.80055 0.34167 0.4162 0.0
H581 H 0.835 0.23741 0.4316 0.0
H582 H 0.82611 0.28586 0.40267 0.0
H583 H 0.78982 0.30024 0.48912 0.0
H584 H 0.85522 0.14175 0.65793 0.0
H585 H 0.88784 0.20375 0.59672 0.0
H586 H 0.90361 0.0917 0.59619 0.0
H587 H 0.86013 0.19935 0.63734 0.0
Eu588 Eu 0.11354 0.58469 0.25574 0.0
C589 C 0.26644 0.66095 0.26872 0.0
N590 N 0.24544 0.64207 0.28371 0.0
C591 C 0.29576 0.61671 0.30292 0.0
C592 C 0.30322 0.65771 0.26979 0.0
C593 C 0.25946 0.62126 0.30134 0.0
C594 C 0.31776 0.63464 0.28682 0.0
C595 C 0.2721 0.70652 0.23825 0.0
C596 C 0.25111 0.68504 0.25321 0.0
C597 C 0.30871 0.70259 0.23862 0.0
C598 C 0.32424 0.67824 0.25436 0.0
Eu599 Eu 0.1844 0.64816 0.27813 0.0
N600 N 0.21567 0.68838 0.25346 0.0
C601 C 0.25569 0.73175 0.22371 0.0
C602 C 0.19962 0.7139 0.24005 0.0
C603 C 0.21932 0.73566 0.22479 0.0
H604 H 0.24259 0.60786 0.31404 0.0
H605 H 0.20643 0.75537 0.21385 0.0
H606 H 0.09807 0.64857 0.29994 0.0
H607 H 0.10137 0.44307 0.26573 0.0
H608 H 0.17151 0.71687 0.24052 0.0
H609 H 0.27089 0.74874 0.21193 0.0
H610 H 0.12755 0.49802 0.24965 0.0
H611 H 0.30673 0.59965 0.31666 0.0
H612 H 0.32527 0.71873 0.22715 0.0
H613 H 0.35255 0.67603 0.25483 0.0
H614 H 0.0601 0.65495 0.33567 0.0
H615 H 0.3459 0.63141 0.28824 0.0
H616 H 0.05607 0.44611 0.29802 0.0
N617 N 0.08486 0.59513 0.29345 0.0
C618 C 0.06685 0.56641 0.30174 0.0
C619 C 0.06157 0.62999 0.32617 0.0
C620 C 0.04492 0.56891 0.32238 0.0
C621 C 0.08309 0.62635 0.30568 0.0
C622 C 0.04198 0.60135 0.33432 0.0
N623 N 0.09746 0.53098 0.27293 0.0
C624 C 0.10814 0.49926 0.26402 0.0
C625 C 0.05744 0.50295 0.30058 0.0
C626 C 0.07304 0.53348 0.29097 0.0
C627 C 0.06741 0.47018 0.29105 0.0
C628 C 0.09319 0.46831 0.27293 0.0
H629 H 0.02546 0.60431 0.35028 0.0
H630 H 1.01045 0.54036 0.3467 0.0
H631 H 0.0214 0.48279 0.32766 0.0
O632 O 0.09515 0.5498 0.22611 0.0
O633 O 0.1378 0.563 0.29147 0.0
O634 O 0.17627 0.60445 0.30685 0.0
O635 O 0.05851 0.58196 0.24638 0.0
O636 O 0.1671 0.56286 0.24682 0.0
O637 O 0.20353 0.59193 0.27412 0.0
O638 O 0.15836 0.66467 0.31183 0.0
O639 O 0.18853 0.64249 0.23712 0.0
O640 O 0.14651 0.60393 0.22233 0.0
O641 O 0.20447 0.6924 0.29872 0.0
O642 O 0.1353 0.67822 0.26586 0.0
O643 O 0.09222 0.6402 0.25269 0.0
C644 C 0.15832 0.57481 0.30915 0.0
C645 C 0.03672 0.5572 0.21036 0.0
C646 C 0.97549 0.5478 0.19912 0.0
C647 C 0.9835 0.55936 0.1754 0.0
C648 C 0.04434 0.5688 0.1868 0.0
C649 C 1.01771 0.5696 0.16932 0.0
C650 C 1.00263 0.54645 0.21633 0.0
C651 C 0.19591 0.56488 0.25992 0.0
C652 C 0.06241 0.55757 0.23006 0.0
C653 C 0.02771 0.53876 0.33104 0.0
C654 C 0.03391 0.50593 0.32016 0.0
C655 C 0.17409 0.62493 0.21907 0.0
C656 C 0.20363 0.6784 0.34017 0.0
C657 C 0.26071 0.67868 0.36017 0.0
C658 C 0.24834 0.65394 0.37704 0.0
C659 C 0.19153 0.65363 0.35716 0.0
C660 C 0.23765 0.69184 0.34262 0.0
C661 C 0.21372 0.6419 0.3757 0.0
C662 C 0.10355 0.67213 0.25735 0.0
C663 C 0.18437 0.68577 0.31744 0.0
H664 H 0.96328 0.56112 0.16164 0.0
H665 H 0.07052 0.57749 0.18206 0.0
H666 H 0.02348 0.57864 0.15108 0.0
H667 H 0.99735 0.53706 0.23461 0.0
H668 H 0.26553 0.64349 0.39092 0.0
H669 H 0.1655 0.64243 0.35564 0.0
H670 H 0.24683 0.71161 0.32995 0.0
H671 H 0.20442 0.62249 0.38854 0.0
Eu672 Eu 0.88868 0.61595 0.7231 0.0
C673 C 0.76813 0.72579 0.71695 0.0
N674 N 0.80372 0.72448 0.71803 0.0
C675 C 0.80798 0.76806 0.6867 0.0
C676 C 0.75108 0.74739 0.69986 0.0
C677 C 0.82375 0.74626 0.70393 0.0
C678 C 0.77152 0.76831 0.68444 0.0
C679 C 0.71183 0.70876 0.73388 0.0
C680 C 0.74873 0.70681 0.73384 0.0
C681 C 0.69471 0.72878 0.71605 0.0
C682 C 0.71429 0.74812 0.69913 0.0
Eu683 Eu 0.82745 0.68608 0.74752 0.0
N684 N 0.76598 0.6885 0.7513 0.0
C685 C 0.69328 0.69156 0.75237 0.0
C686 C 0.74825 0.67379 0.7703 0.0
C687 C 0.71161 0.67444 0.77086 0.0
H688 H 0.85194 0.74624 0.70548 0.0
H689 H 0.69755 0.66196 0.78563 0.0
H690 H 0.84502 0.55952 0.68647 0.0
H691 H 1.00887 0.59226 0.77498 0.0
H692 H 0.76247 0.66115 0.78486 0.0
H693 H 0.6649 0.69233 0.75298 0.0
H694 H 0.95854 0.62563 0.7605 0.0
H695 H 0.82396 0.78464 0.67517 0.0
H696 H 0.66636 0.73035 0.71566 0.0
H697 H 0.70073 0.76426 0.68595 0.0
H698 H 0.84701 0.49808 0.67335 0.0
H699 H 0.75939 0.78529 0.67109 0.0
H700 H 1.01747 0.53074 0.76159 0.0
N701 N 0.89076 0.55681 0.7084 0.0
C702 C 0.91769 0.53622 0.71567 0.0
C703 C 0.86724 0.50845 0.68519 0.0
C704 C 0.92077 0.50097 0.70771 0.0
C705 C 0.86595 0.54346 0.693 0.0
C706 C 0.89498 0.48716 0.69236 0.0
N707 N 0.93804 0.58435 0.73832 0.0
C708 C 0.9617 0.59922 0.754 0.0
C709 C 0.97088 0.53015 0.73911 0.0
C710 C 0.94222 0.55051 0.73108 0.0
C711 C 0.99515 0.54547 0.75498 0.0
C712 C 0.99043 0.58016 0.76252 0.0
H713 H 0.89626 0.4602 0.68595 0.0
H714 H 0.9522 0.4536 0.70941 0.0
H715 H 0.99623 0.47925 0.73701 0.0
O716 O 0.89089 0.66148 0.6991 0.0
O717 O 0.88727 0.61037 0.76425 0.0
O718 O 0.83998 0.64398 0.77747 0.0
O719 O 0.92692 0.6182 0.69361 0.0
O720 O 0.91295 0.66046 0.74657 0.0
O721 O 0.88047 0.70565 0.73328 0.0
O722 O 0.80548 0.7306 0.768 0.0
O723 O 0.82104 0.67482 0.70585 0.0
O724 O 0.83768 0.6174 0.70063 0.0
O725 O 0.85805 0.71271 0.77555 0.0
O726 O 0.8036 0.63211 0.75431 0.0
O727 O 0.83338 0.59376 0.72851 0.0
C728 C 0.86472 0.61974 0.78131 0.0
C729 C 0.89983 0.64324 0.65891 0.0
C730 C 0.8831 0.60586 0.62467 0.0
C731 C 0.86938 0.63506 0.61253 0.0
C732 C 0.88548 0.67235 0.64684 0.0
C733 C 0.87029 0.66819 0.62377 0.0
C734 C 0.89821 0.61016 0.64772 0.0
C735 C 0.91092 0.694 0.74087 0.0
C736 C 0.91267 0.64633 0.68416 0.0
C737 C 0.94932 0.48063 0.71542 0.0
C738 C 0.97436 0.49521 0.73111 0.0
C739 C 0.81915 0.64482 0.6935 0.0
C740 C 0.84857 0.7744 0.7761 0.0
C741 C 0.8388 0.83768 0.77087 0.0
C742 C 0.87536 0.84252 0.76961 0.0
C743 C 0.88492 0.78057 0.7759 0.0
C744 C 0.82551 0.80325 0.77372 0.0
C745 C 0.89811 0.81425 0.7723 0.0
C746 C 0.80589 0.60226 0.74211 0.0
C747 C 0.83519 0.7379 0.77853 0.0
H748 H 0.85814 0.63222 0.59452 0.0
H749 H 0.8855 0.69807 0.65542 0.0
H750 H 0.85924 0.6907 0.61457 0.0
H751 H 0.90912 0.5874 0.65679 0.0
H752 H 0.88654 0.86833 0.76664 0.0
H753 H 0.90337 0.75928 0.77831 0.0
H754 H 0.79745 0.79897 0.77455 0.0
H755 H 0.92617 0.8185 0.77168 0.0
Eu756 Eu 0.18259 0.14223 0.97427 0.0
C757 C 0.06826 0.04472 0.95008 0.0
N758 N 0.08027 0.07726 0.95681 0.0
C759 C 0.04933 0.10304 0.92322 0.0
C760 C 0.04683 0.04033 0.92935 0.0
C761 C 0.07066 0.10627 0.94377 0.0
C762 C 0.03724 0.07003 0.91603 0.0
C763 C 0.07106 0.98114 0.95474 0.0
C764 C 0.08002 1.01524 0.96278 0.0
C765 C 0.04853 0.97696 0.93473 0.0
C766 C 0.03642 1.00644 0.92212 0.0
Eu767 Eu 0.11125 0.07834 0.99455 0.0
N768 N 0.10295 1.0199 0.98151 0.0
C769 C 0.08617 0.95222 0.96641 0.0
C770 C 0.11858 0.9919 0.9925 0.0
C771 C 0.11032 0.95765 0.98518 0.0
H772 H 0.07857 0.13229 0.94901 0.0
H773 H 0.12244 0.93545 0.99409 0.0
H774 H 0.23725 0.09183 0.93915 0.0
H775 H 0.21364 0.26365 1.0227 0.0
H776 H 0.13668 0.99605 1.00737 0.0
H777 H 0.07998 0.92562 0.9607 0.0
H778 H 0.17588 0.21832 1.0046 0.0
H779 H 0.04199 0.12618 0.91302 0.0
H780 H 0.0411 0.95096 0.92844 0.0
H781 H 1.01974 1.00269 0.90635 0.0
H782 H 0.29988 0.08439 0.93177 0.0
H783 H 0.02081 0.06771 0.90001 0.0
H784 H 0.27803 0.25994 1.01791 0.0
N785 N 0.24302 0.13605 0.96297 0.0
C786 C 0.26612 0.15922 0.97275 0.0
C787 C 0.29082 0.1055 0.94347 0.0
C788 C 0.30253 0.15637 0.96844 0.0
C789 C 0.25496 0.10983 0.94792 0.0
C790 C 0.31475 0.12885 0.9538 0.0
N791 N 0.21802 0.18858 0.98964 0.0
C792 C 0.20378 0.21616 1.00223 0.0
C793 C 0.2759 0.21195 0.99657 0.0
C794 C 0.25313 0.18646 0.98654 0.0
C795 C 0.26147 0.23984 1.00989 0.0
C796 C 0.22518 0.24205 1.01259 0.0
H797 H 0.34248 0.1257 0.95008 0.0
H798 H 0.35351 0.17939 0.97567 0.0
H799 H 0.3301 0.22821 1.00039 0.0
O800 O 0.13971 0.14858 0.94858 0.0
O801 O 0.18274 0.14178 1.01561 0.0
O802 O 0.14692 0.09545 1.02755 0.0
O803 O 0.18299 0.18608 0.94916 0.0
O804 O 0.1397 0.16828 0.99778 0.0
O805 O 0.09163 0.13465 0.99031 0.0
O806 O 0.08581 0.04338 1.02097 0.0
O807 O 0.13618 0.05861 0.95866 0.0
O808 O 0.17699 0.09874 0.94495 0.0
O809 O 0.05844 0.08949 1.00768 0.0
O810 O 0.16406 0.0589 1.00696 0.0
O811 O 0.20175 0.08599 0.97981 0.0
C812 C 0.171 0.12012 1.0324 0.0
C813 C 0.16324 0.16614 0.91082 0.0
C814 C 0.20579 0.15609 0.87823 0.0
C815 C 0.17836 0.14762 0.86224 0.0
C816 C 0.13604 0.15702 0.89482 0.0
C817 C 0.14364 0.14784 0.87062 0.0
C818 C 0.19792 0.16535 0.90235 0.0
C819 C 0.10551 0.1654 0.99515 0.0
C820 C 0.15637 0.17339 0.93681 0.0
C821 C 0.32549 0.18122 0.9787 0.0
C822 C 0.31218 0.20899 0.99276 0.0
C823 C 0.15841 0.06962 0.94194 0.0
C824 C 0.03075 0.05772 1.03955 0.0
C825 C 0.97032 0.04448 1.05079 0.0
C826 C 0.9779 0.05541 1.07479 0.0
C827 C 0.03801 0.06849 1.0634 0.0
C828 C 0.99729 0.04547 1.03338 0.0
C829 C 1.01156 0.06711 1.08102 0.0
C830 C 0.19326 0.05968 0.99425 0.0
C831 C 0.05646 0.06053 1.02004 0.0
H832 H 0.1838 0.14072 0.84344 0.0
H833 H 0.1091 0.15668 0.90109 0.0
H834 H 0.12257 0.14084 0.85834 0.0
H835 H 0.21918 0.17235 0.91454 0.0
H836 H 0.95774 0.05555 1.0887 0.0
H837 H 0.06379 0.0782 1.06825 0.0
H838 H 0.99242 0.03672 1.01484 0.0
H839 H 1.01701 0.07558 1.09948 0.0
Eu840 Eu 0.65548 0.43614 0.22167 0.0
C841 C 0.76845 0.32437 0.21202 0.0
N842 N 0.73326 0.3298 0.21441 0.0
C843 C 0.72186 0.28832 0.1823 0.0
C844 C 0.78161 0.30131 0.19401 0.0
C845 C 0.70991 0.31151 0.2003 0.0
C846 C 0.75782 0.28329 0.17906 0.0
C847 C 0.82793 0.33743 0.22517 0.0
C848 C 0.79144 0.3422 0.22754 0.0
C849 C 0.84104 0.31512 0.20685 0.0
C850 C 0.81797 0.29703 0.19139 0.0
Eu851 Eu 0.71684 0.36867 0.24625 0.0
N852 N 0.77815 0.36307 0.24554 0.0
C853 C 0.85019 0.35474 0.24161 0.0
C854 C 0.79954 0.37863 0.26231 0.0
C855 C 0.83591 0.37519 0.26036 0.0
H856 H 0.68209 0.31525 0.2024 0.0
H857 H 0.85288 0.388 0.27347 0.0
H858 H 0.67479 0.46318 0.16534 0.0
H859 H 0.55295 0.48799 0.28172 0.0
H860 H 0.78844 0.39346 0.27729 0.0
H861 H 0.87839 0.35186 0.2403 0.0
H862 H 0.5937 0.44371 0.26544 0.0
H863 H 0.7033 0.27437 0.17089 0.0
H864 H 0.86902 0.31126 0.20471 0.0
H865 H 0.82853 0.27961 0.17753 0.0
H866 H 0.66857 0.51594 0.13989 0.0
H867 H 0.76693 0.26538 0.16501 0.0
H868 H 0.54718 0.54566 0.26146 0.0
N869 N 0.64661 0.48475 0.19541 0.0
C870 C 0.62636 0.51157 0.2034 0.0
C871 C 0.65691 0.51531 0.15788 0.0
C872 C 0.62135 0.54205 0.1893 0.0
C873 C 0.66078 0.48558 0.17255 0.0
C874 C 0.63755 0.54396 0.16646 0.0
N875 N 0.6122 0.47611 0.23653 0.0
C876 C 0.59176 0.46873 0.25637 0.0
C877 C 0.58507 0.53313 0.23331 0.0
C878 C 0.60849 0.50711 0.22484 0.0
C879 C 0.56542 0.52637 0.25431 0.0
C880 C 0.56852 0.49383 0.26573 0.0
H881 H 0.63428 0.56683 0.155 0.0
H882 H 0.59532 0.59264 0.18763 0.0
H883 H 0.56356 0.58487 0.22638 0.0
O884 O 0.65927 0.38769 0.20044 0.0
O885 O 0.66026 0.44599 0.26253 0.0
O886 O 0.70459 0.40992 0.27696 0.0
O887 O 0.61185 0.41865 0.19934 0.0
O888 O 0.63057 0.39668 0.24832 0.0
O889 O 0.66187 0.34949 0.23624 0.0
O890 O 0.74246 0.32544 0.26591 0.0
O891 O 0.72671 0.38181 0.20515 0.0
O892 O 0.70623 0.43786 0.19882 0.0
O893 O 0.68957 0.34041 0.27501 0.0
O894 O 0.74047 0.42264 0.25314 0.0
O895 O 0.70991 0.46004 0.22728 0.0
C896 C 0.68098 0.43542 0.28025 0.0
C897 C 0.62816 0.38883 0.16333 0.0
C898 C 0.59802 0.40409 1.12598 0.0
C899 C 0.62738 0.39375 1.11232 0.0
C900 C 0.6572 0.37733 0.14962 0.0
C901 C 0.65658 0.37954 1.12415 0.0
C902 C 0.5983 0.40053 0.15127 0.0
C903 C 0.63198 0.36264 0.24389 0.0
C904 C 0.62906 0.39202 0.19003 0.0
C905 C 0.59932 0.56888 0.19807 0.0
C906 C 0.58122 0.56444 0.2201 0.0
C907 C 0.72655 0.41125 0.19225 0.0
C908 C 0.70134 0.27942 0.27213 0.0
C909 C 0.71283 0.21653 0.267 0.0
C910 C 0.67753 0.21149 0.2605 0.0
C911 C 0.66583 0.27304 0.26666 0.0
C912 C 0.72492 0.25083 0.27225 0.0
C913 C 0.65425 0.23953 0.26043 0.0
C914 C 0.73745 0.45233 0.24098 0.0
C915 C 0.71346 0.31601 0.27653 0.0
H916 H 0.62791 0.39729 1.09276 0.0
H917 H 0.68058 0.36759 0.15847 0.0
H918 H 0.67926 0.37143 1.11367 0.0
H919 H 0.57599 0.40978 0.16181 0.0
H920 H 0.66776 0.18561 0.25569 0.0
H921 H 0.64681 0.29398 0.26708 0.0
H922 H 0.75222 0.25514 0.27684 0.0
H923 H 0.62701 0.23522 0.25577 0.0
Eu924 Eu 0.36247 0.9113 0.47022 0.0
C925 C 0.481 1.00146 0.45156 0.0
N926 N 0.47059 0.96906 0.45954 0.0
C927 C 0.51181 0.94152 0.43238 0.0
C928 C 0.50628 1.00471 0.43289 0.0
C929 C 0.48668 0.93941 0.45085 0.0
C930 C 0.52151 0.97424 0.42325 0.0
C931 C 0.47345 0.0651 0.45191 0.0
C932 C 0.46493 0.03162 0.46116 0.0
C933 C 0.49892 0.06819 0.43357 0.0
C934 C 0.51531 0.03815 0.42414 0.0
Eu935 Eu 0.43163 0.97062 0.4934 0.0
N936 N 0.43942 0.028 0.4784 0.0
C937 C 0.45559 0.09452 0.46101 0.0
C938 C 0.42219 0.05662 0.48752 0.0
C939 C 0.42984 0.09024 0.47886 0.0
H940 H 0.48061 0.91381 0.45794 0.0
H941 H 0.41611 0.11287 0.48612 0.0
H942 H 0.34253 0.92469 0.41166 0.0
H943 H 0.30269 0.81512 0.53174 0.0
H944 H 0.40318 0.05381 0.50194 0.0
H945 H 0.4614 0.12064 0.45432 0.0
H946 H 0.3491 0.8538 0.51646 0.0
H947 H 0.52387 0.91783 0.42529 0.0
H948 H 0.50585 0.09372 0.42633 0.0
H949 H 0.53468 0.04103 0.40983 0.0
H950 H 0.29224 0.91709 0.38393 0.0
H951 H 0.54094 0.97569 0.40887 0.0
H952 H 0.24761 0.80786 0.50852 0.0
N953 N 0.31751 0.89943 0.44155 0.0
C954 C 0.28958 0.88039 0.44901 0.0
C955 C 0.29095 0.90692 0.40229 0.0
C956 C 0.26047 0.87472 0.43368 0.0
C957 C 0.31926 0.91149 0.41818 0.0
C958 C 0.26113 0.88893 0.41021 0.0
N959 N 0.321 0.86913 0.4846 0.0
C960 C 0.32551 0.85091 0.50582 0.0
C961 C 0.26403 0.84255 0.47948 0.0
C962 C 0.29141 0.86458 0.47138 0.0
C963 C 0.268 0.82501 0.50163 0.0
C964 C 0.29909 0.82892 0.51472 0.0
H965 H 0.2393 0.8852 0.39785 0.0
H966 H 0.20952 0.84976 0.43063 0.0
H967 H 0.21263 0.82154 0.47089 0.0
O968 O 0.41416 0.91834 0.4545 0.0
O969 O 0.35115 0.91936 0.51027 0.0
O970 O 0.39771 0.95068 0.52655 0.0
O971 O 0.38443 0.87057 0.44719 0.0
O972 O 0.3988 0.87922 0.49555 0.0
O973 O 0.4487 0.91291 0.49471 0.0
O974 O 0.45231 1.0065 0.52158 0.0
O975 O 0.41159 0.98585 0.45431 0.0
O976 O 0.3577 0.96085 0.44653 0.0
O977 O 0.4854 0.9659 0.50582 0.0
O978 O 0.37925 0.9942 0.50338 0.0
O979 O 0.33977 0.96593 0.47769 0.0
C980 C 0.3674 0.93334 0.52907 0.0
C981 C 0.42424 0.8881 0.4169 0.0
C982 C 0.43263 0.85245 0.38045 0.0
C983 C 0.44137 0.88281 0.36729 0.0
C984 C 0.43328 0.91837 0.40376 0.0
C985 C 0.44219 0.91557 0.37907 0.0
C986 C 0.42488 0.85545 0.40528 0.0
C987 C 0.43337 0.88212 0.49739 0.0
C988 C 0.41277 0.88875 0.44241 0.0
C989 C 0.23231 0.85416 0.442 0.0
C990 C 0.23409 0.83808 0.4649 0.0
C991 C 0.38307 0.98301 0.44057 0.0
C992 C 0.50904 0.99666 0.53947 0.0
C993 C 0.56986 1.00837 0.5506 0.0
C994 C 0.56189 0.99828 0.57467 0.0
C995 C 0.50143 0.9866 0.56335 0.0
C996 C 0.54288 1.00782 0.53325 0.0
C997 C 0.52786 0.9877 0.58096 0.0
C998 C 0.34894 0.99245 0.49206 0.0
C999 C 0.48373 0.9935 0.51973 0.0
H1000 H 0.44689 0.88124 0.34796 0.0
H1001 H 0.4332 0.94401 0.41236 0.0
H1002 H 0.4489 0.93896 0.36892 0.0
H1003 H 0.41701 0.83233 0.41545 0.0
H1004 H 0.582 0.99789 0.58856 0.0
H1005 H 0.47542 0.97754 0.56823 0.0
H1006 H 0.54809 1.0159 0.51466 0.0
H1007 H 0.52213 0.97979 0.59946 0.0
Eu1008 Eu 0.21678 0.36567 0.5029 0.0
C1009 C 0.14057 0.51957 0.52579 0.0
N1010 N 0.15822 0.49498 0.53865 0.0
C1011 C 0.18339 0.54041 0.56373 0.0
C1012 C 0.14418 0.55574 0.53099 0.0
C1013 C 0.17851 0.50484 0.55805 0.0
C1014 C 0.16649 0.56603 0.54994 0.0
C1015 C 0.09584 0.53247 0.49595 0.0
C1016 C 0.11699 0.50824 0.50852 0.0
C1017 C 0.10036 0.56864 0.50017 0.0
C1018 C 0.12456 0.58027 0.51766 0.0
Eu1019 Eu 0.15191 0.43535 0.52588 0.0
N1020 N 0.11298 0.47323 0.50529 0.0
C1021 C 0.06998 0.51951 0.48019 0.0
C1022 C 0.08657 0.46036 0.49103 0.0
C1023 C 0.06497 0.48324 0.47803 0.0
H1024 H 0.19146 0.48546 0.56911 0.0
H1025 H 0.04456 0.4729 0.46633 0.0
H1026 H 0.197 0.30534 0.54561 0.0
H1027 H 0.34295 0.39734 0.4619 0.0
H1028 H 0.08275 0.43232 0.48929 0.0
H1029 H 0.05314 0.53723 0.47019 0.0
H1030 H 0.27816 0.39568 0.46469 0.0
H1031 H 0.20006 0.54801 0.57881 0.0
H1032 H 0.08462 0.58773 0.49053 0.0
H1033 H 0.12716 0.60819 0.52124 0.0
H1034 H 0.22821 0.26812 0.57528 0.0
H1035 H 0.17005 0.59355 0.5545 0.0
H1036 H 0.37881 0.36632 0.49259 0.0
N1037 N 0.24373 0.32778 0.53122 0.0
C1038 C 0.27936 0.32737 0.531 0.0
C1039 C 0.24288 0.28484 0.56303 0.0
C1040 C 0.29822 0.30661 0.54763 0.0
C1041 C 0.22528 0.30589 0.54621 0.0
C1042 C 0.27949 0.28552 0.56397 0.0
N1043 N 0.27786 0.36546 0.49712 0.0
C1044 C 0.29376 0.38241 0.47827 0.0
C1045 C 0.33382 0.34693 0.51259 0.0
C1046 C 0.29691 0.34722 0.51366 0.0
C1047 C 0.35048 0.36577 0.494 0.0
C1048 C 0.33034 0.38327 0.4766 0.0
H1049 H 0.29303 0.26918 0.57703 0.0
H1050 H 0.35003 0.29158 0.55991 0.0
H1051 H 0.38119 0.32694 0.52928 0.0
O1052 O 0.23786 0.32208 0.4812 0.0
O1053 O 0.22821 0.3777 0.5434 0.0
O1054 O 0.19429 0.42532 0.55524 0.0
O1055 O 0.18415 0.3384 0.47616 0.0
O1056 O 0.23621 0.42133 0.49712 0.0
O1057 O 0.20849 0.4539 0.52696 0.0
O1058 O 0.13487 0.39613 0.55246 0.0
O1059 O 0.15438 0.43492 0.48413 0.0
O1060 O 0.20724 0.40909 0.47364 0.0
O1061 O 0.10358 0.44314 0.54581 0.0
O1062 O 0.13232 0.38949 0.50228 0.0
O1063 O 0.16455 0.34815 0.5201 0.0
C1064 C 0.21942 0.40205 0.55955 0.0
C1065 C 0.19537 0.27698 0.47568 0.0
C1066 C 0.2076 0.21516 0.48444 0.0
C1067 C 0.17143 0.20857 0.48557 0.0
C1068 C 0.15928 0.26932 0.47614 0.0
C1069 C 0.14748 0.23545 0.48126 0.0
C1070 C 0.21954 0.24944 0.47945 0.0
C1071 C 0.23578 0.44726 0.51302 0.0
C1072 C 0.20734 0.31379 0.47223 0.0
C1073 C 0.33504 0.30713 0.54714 0.0
C1074 C 0.35279 0.32729 0.5297 0.0
C1075 C 0.17986 0.42938 0.4683 0.0
C1076 C 0.09182 0.41248 0.58221 0.0
C1077 C 0.03991 0.42109 0.60741 0.0
C1078 C 0.05782 0.40625 0.62725 0.0
C1079 C 0.10951 0.39756 0.60199 0.0
C1080 C 0.05751 0.42441 0.58514 0.0
C1081 C 0.09249 0.39468 0.6245 0.0
C1082 C 0.13434 0.35727 0.51057 0.0
C1083 C 0.10628 0.41352 0.55756 0.0
H1084 H 0.16168 0.18235 0.48924 0.0
H1085 H 0.14002 0.28961 0.47282 0.0
H1086 H 0.11964 0.23 0.48185 0.0
H1087 H 0.24748 0.25464 0.47888 0.0
H1088 H 0.04505 0.40341 0.64476 0.0
H1089 H 0.13609 0.38794 0.60001 0.0
H1090 H 0.0445 0.43657 0.56977 0.0
H1091 H 0.10608 0.38317 0.6398 0.0
Eu1092 Eu 0.92578 0.96419 0.25891 0.0
C1093 C 0.77325 0.87629 0.28966 0.0
N1094 N 0.7934 0.90475 0.29474 0.0
C1095 C 0.7444 0.93157 0.31545 0.0
C1096 C 0.73801 0.87411 0.29755 0.0
C1097 C 0.77924 0.93225 0.30758 0.0
C1098 C 0.72372 0.90223 0.31061 0.0
C1099 C 0.76814 0.81885 0.271 0.0
C1100 C 0.788 0.84918 0.27666 0.0
C1101 C 0.73318 0.81642 0.27883 0.0
C1102 C 0.71815 0.844 0.29215 0.0
Eu1103 Eu 0.85323 0.90418 0.28108 0.0
N1104 N 0.82197 0.8522 0.26978 0.0
C1105 C 0.78408 0.79169 0.25784 0.0
C1106 C 0.83775 0.82525 0.25731 0.0
C1107 C 0.81909 0.79493 0.25099 0.0
H1108 H 0.79427 0.95511 0.31206 0.0
H1109 H 0.83188 0.77392 0.24102 0.0
H1110 H 0.97546 0.9287 0.30376 0.0
H1111 H 0.90724 0.10166 0.23359 0.0
H1112 H 0.8649 0.82632 0.2522 0.0
H1113 H 0.76973 0.76804 0.25309 0.0
H1114 H 0.90182 0.03732 0.22876 0.0
H1115 H 0.73367 0.95361 0.32554 0.0
H1116 H 0.71761 0.79329 0.27475 0.0
H1117 H 0.69117 0.84181 0.29817 0.0
H1118 H 1.01592 0.94917 0.33575 0.0
H1119 H 0.69684 0.90157 0.31702 0.0
H1120 H 0.94231 0.1264 0.26745 0.0
N1121 N 0.96187 0.98034 0.29222 0.0
C1122 C 0.96775 1.01552 0.29488 0.0
C1123 C 1.00244 0.96806 0.32445 0.0
C1124 C 0.99049 0.02826 0.31316 0.0
C1125 C 0.97949 0.95655 0.30626 0.0
C1126 C 1.00788 1.00403 0.32798 0.0
N1127 N 0.9305 0.02595 0.26096 0.0
C1128 C 0.91579 0.04791 0.24425 0.0
C1129 C 0.95576 0.07544 0.28217 0.0
C1130 C 0.95074 0.0389 0.27937 0.0
C1131 C 0.93921 0.09817 0.26582 0.0
C1132 C 0.91935 0.08432 0.24669 0.0
H1133 H 0.0256 1.01282 0.34218 0.0
H1134 H 1.01229 0.07489 0.33018 0.0
H1135 H 0.98176 0.11614 0.30321 0.0
O1136 O 0.96801 0.99177 0.23942 0.0
O1137 O 0.91095 0.97254 0.29987 0.0
O1138 O 0.85382 0.95485 0.30446 0.0
O1139 O 0.96111 0.9361 0.2343 0.0
O1140 O 0.87328 0.98685 0.24832 0.0
O1141 O 0.83362 0.9603 0.27459 0.0
O1142 O 0.90025 0.90397 0.3038 0.0
O1143 O 0.85045 0.90468 0.23962 0.0
O1144 O 0.88578 0.95144 0.22733 0.0
O1145 O 0.85904 0.86617 0.31035 0.0
O1146 O 0.89411 0.87887 0.2556 0.0
O1147 O 0.94184 0.90826 0.26859 0.0
C1148 C 0.88092 0.97366 0.31202 0.0
C1149 C 1.01866 0.95637 0.24214 0.0
C1150 C 0.07859 0.97606 0.24919 0.0
C1151 C 0.08435 0.9469 0.26424 0.0
C1152 C 0.02492 0.92827 0.25822 0.0
C1153 C 0.05757 0.92321 0.26874 0.0
C1154 C 0.04591 0.98046 0.23768 0.0
C1155 C 0.84361 0.9867 0.26054 0.0
C1156 C 0.98277 0.9625 0.23271 0.0
C1157 C 0.99513 0.06464 0.31612 0.0
C1158 C 0.97767 0.08815 0.30078 0.0
C1159 C 0.86136 0.92688 0.22274 0.0
C1160 C 0.88402 0.89504 0.34432 0.0
C1161 C 0.84654 0.9139 0.37791 0.0
C1162 C 0.87606 0.92571 0.39074 0.0
C1163 C 0.91345 0.9076 0.35699 0.0
C1164 C 0.85078 0.89883 0.35481 0.0
C1165 C 0.9094 0.92292 0.38011 0.0
C1166 C 0.92797 0.87932 0.2599 0.0
C1167 C 0.88689 0.88181 0.31915 0.0
H1168 H 0.1095 0.94288 0.27295 0.0
H1169 H 1.00448 0.91056 0.26353 0.0
H1170 H 0.06183 0.90133 0.28092 0.0
H1171 H 0.04129 1.0032 0.2263 0.0
H1172 H 0.87333 0.93688 0.40883 0.0
H1173 H 0.93932 0.906 0.34889 0.0
H1174 H 0.8278 0.88945 0.34513 0.0
H1175 H 0.93215 0.93252 0.38985 0.0
Eu1176 Eu 0.32236 0.68756 1.0026 0.0
C1177 C 0.41026 0.53907 1.03099 0.0
N1178 N 0.38795 0.56211 1.04174 0.0
C1179 C 0.36634 0.51604 1.06761 0.0
C1180 C 0.41132 0.50342 1.03792 0.0
C1181 C 0.36673 0.55124 1.06036 0.0
C1182 C 0.38867 0.49195 1.0563 0.0
C1183 C 0.45784 0.52913 1.00261 0.0
C1184 C 0.43308 0.55163 1.01368 0.0
C1185 C 0.45852 0.4934 1.00892 0.0
C1186 C 0.43529 0.48056 1.02658 0.0
Eu1187 Eu 0.38738 0.62079 1.02662 0.0
N1188 N 0.43196 0.58627 1.00835 0.0
C1189 C 0.48157 0.5434 0.98588 0.0
C1190 C 0.45583 0.60059 0.99269 0.0
C1191 C 0.48072 0.57939 0.98105 0.0
H1192 H 0.3498 0.56937 1.0698 0.0
H1193 H 0.49921 0.59083 0.96838 0.0
H1194 H 0.33827 0.75038 1.04469 0.0
H1195 H 0.19923 0.65286 0.95835 0.0
H1196 H 0.45532 0.62834 0.98881 0.0
H1197 H 0.50098 0.52702 0.97693 0.0
H1198 H 0.26379 0.65636 0.96256 0.0
H1199 H 0.34913 0.50762 1.08216 0.0
H1200 H 0.47724 0.47565 1.00055 0.0
H1201 H 0.43642 0.45306 1.03159 0.0
H1202 H 0.30461 0.78714 1.07368 0.0
H1203 H 0.38866 0.4648 1.06216 0.0
H1204 H 0.16101 0.68244 0.98863 0.0
N1205 N 0.29296 0.72557 1.02993 0.0
C1206 C 0.25738 0.7245 1.02922 0.0
C1207 C 0.29104 0.76947 1.06138 0.0
C1208 C 0.23714 0.74499 1.04541 0.0
C1209 C 0.31001 0.74871 1.04493 0.0
C1210 C 0.25446 0.76726 1.06186 0.0
N1211 N 0.26162 0.68615 0.99535 0.0
C1212 C 0.24714 0.66907 0.97592 0.0
C1213 C 0.20443 0.70304 1.00974 0.0
C1214 C 0.24125 0.70383 1.01159 0.0
C1215 C 0.18922 0.68381 0.99064 0.0
C1216 C 0.21071 0.66714 0.97347 0.0
H1217 H 0.23984 0.78342 1.07461 0.0
H1218 H 0.18437 0.75844 1.05674 0.0
H1219 H 0.15572 0.72167 1.02554 0.0
O1220 O 0.30242 0.73217 0.9817 0.0
O1221 O 0.3121 0.67718 1.04364 0.0
O1222 O 0.34063 0.62553 1.05318 0.0
O1223 O 0.35481 0.71274 0.97499 0.0
O1224 O 0.3024 0.63182 0.99726 0.0
O1225 O 0.33234 0.59815 1.02545 0.0
O1226 O 0.39325 0.66241 1.05411 0.0
O1227 O 0.38383 0.61427 0.98546 0.0
O1228 O 0.33475 0.64513 0.97274 0.0
O1229 O 0.43456 0.62409 1.04833 0.0
O1230 O 0.40625 0.66614 1.00264 0.0
O1231 O 0.37334 0.7074 1.02016 0.0
C1232 C 0.31753 0.65041 1.05847 0.0
C1233 C 0.34701 0.77459 0.97434 0.0
C1234 C 0.33863 0.83783 0.9809 0.0
C1235 C 0.3753 0.842 0.98163 0.0
C1236 C 0.38348 0.78003 0.974 0.0
C1237 C 0.39743 0.81337 0.978 0.0
C1238 C 0.32463 0.80378 0.9776 0.0
C1239 C 0.30468 0.60452 1.01179 0.0
C1240 C 0.33275 0.73848 0.97167 0.0
C1241 C 0.2004 0.74316 1.04429 0.0
C1242 C 0.18408 0.72219 1.02653 0.0
C1243 C 0.36051 0.6221 0.96866 0.0
C1244 C 0.42098 0.63949 1.08884 0.0
C1245 C 0.43092 0.59655 1.12075 0.0
C1246 C 0.41903 0.62065 0.13828 0.0
C1247 C 0.40839 0.66338 1.10635 0.0
C1248 C 0.43158 0.60603 1.09625 0.0
C1249 C 0.40729 0.65385 0.13098 0.0
C1250 C 0.40385 0.69839 1.01099 0.0
C1251 C 0.42174 0.6483 1.06277 0.0
H1252 H 0.38703 0.86752 0.98489 0.0
H1253 H 0.40139 0.75844 0.97086 0.0
H1254 H 0.42557 0.81707 0.97821 0.0
H1255 H 0.29647 0.80005 0.97711 0.0
H1256 H 0.41907 0.61388 0.15743 0.0
H1257 H 0.39942 0.68922 1.10099 0.0
H1258 H 0.4415 0.58722 1.083 0.0
H1259 H 0.39775 0.67239 0.14445 0.0
Eu1260 Eu 0.61202 0.07894 0.75684 0.0
C1261 C 0.76597 0.15585 0.77688 0.0
N1262 N 0.74242 0.13489 0.78828 0.0
C1263 C 0.78948 0.1039 0.80775 0.0
C1264 C 0.80237 0.15147 0.78025 0.0
C1265 C 0.75365 0.11 0.80435 0.0
C1266 C 0.81399 0.12471 0.79562 0.0
C1267 C 0.77684 0.20644 0.75141 0.0
C1268 C 0.75348 0.18279 0.76269 0.0
C1269 C 0.81313 0.20172 0.7541 0.0
C1270 C 0.82589 0.17426 0.76851 0.0
Eu1271 Eu 0.68218 0.14316 0.77854 0.0
N1272 N 0.71834 0.1868 0.76079 0.0
C1273 C 0.76298 0.23453 0.73818 0.0
C1274 C 0.70468 0.21485 0.74861 0.0
C1275 C 0.72671 0.23892 0.73698 0.0
H1276 H 0.73509 0.09434 0.81441 0.0
H1277 H 0.71568 0.2608 0.72706 0.0
H1278 H 0.58315 0.14224 0.79807 0.0
H1279 H 0.6127 0.93669 0.76555 0.0
H1280 H 0.67675 0.2186 0.74744 0.0
H1281 H 0.78001 0.25326 0.72921 0.0
H1282 H 0.63098 0.99409 0.74848 0.0
H1283 H 0.79814 0.08357 0.82008 0.0
H1284 H 0.8315 0.2195 0.74547 0.0
H1285 H 0.85393 0.17123 0.77078 0.0
H1286 H 0.54863 0.14405 0.83543 0.0
H1287 H 0.84172 0.12037 0.79863 0.0
H1288 H 0.5721 0.93485 0.80074 0.0
N1289 N 0.58283 0.08634 0.79491 0.0
C1290 C 0.56984 0.05565 0.80434 0.0
C1291 C 0.55461 0.119 0.82695 0.0
C1292 C 0.54919 0.0558 0.82569 0.0
C1293 C 0.57484 0.11776 0.80572 0.0
C1294 C 0.54168 0.08798 0.83695 0.0
N1295 N 0.60111 0.02373 0.77396 0.0
C1296 C 0.61345 0.99328 0.76398 0.0
C1297 C 0.56792 0.99152 0.8037 0.0
C1298 C 0.57887 0.02356 0.79339 0.0
C1299 C 0.57994 0.96 0.79331 0.0
C1300 C 0.60303 0.96091 0.77351 0.0
H1301 H 0.52595 0.08915 0.85339 0.0
H1302 H 0.52101 0.02365 0.85169 0.0
H1303 H 0.53752 0.96753 0.83253 0.0
O1304 O 0.5931 0.04463 0.72715 0.0
O1305 O 0.63985 0.05654 0.79098 0.0
O1306 O 0.67203 0.10151 0.80811 0.0
O1307 O 0.55671 0.07605 0.74795 0.0
O1308 O 0.665 0.05843 0.74543 0.0
O1309 O 0.70195 0.0869 0.77256 0.0
O1310 O 0.64353 0.15578 0.80637 0.0
O1311 O 0.68122 0.14406 0.73718 0.0
O1312 O 0.64768 0.09661 0.72428 0.0
O1313 O 0.69178 0.18638 0.80357 0.0
O1314 O 0.6374 0.17277 0.75967 0.0
O1315 O 0.59063 0.13508 0.75518 0.0
C1316 C 0.65729 0.07016 0.80954 0.0
C1317 C 0.53518 0.05308 0.71126 0.0
C1318 C 0.47452 0.04359 0.6988 0.0
C1319 C 0.48328 0.05572 0.67536 0.0
C1320 C 0.54358 0.0653 0.68797 0.0
C1321 C 0.51761 0.0664 0.67003 0.0
C1322 C 0.50095 0.04208 0.7165 0.0
C1323 C 0.69438 0.06037 0.75783 0.0
C1324 C 0.56044 0.05226 0.73121 0.0
C1325 C 0.5371 0.0239 0.8354 0.0
C1326 C 0.54642 0.9919 0.82445 0.0
C1327 C 0.67126 0.12183 0.72007 0.0
C1328 C 0.67239 0.17067 0.84298 0.0
C1329 C 0.71563 0.15922 0.87471 0.0
C1330 C 0.68847 0.15223 0.89126 0.0
C1331 C 0.64541 0.16317 0.85958 0.0
C1332 C 0.70729 0.1685 0.85074 0.0
C1333 C 0.6535 0.15399 0.88361 0.0
C1334 C 0.60379 0.16708 0.75566 0.0
C1335 C 0.66471 0.17805 0.81717 0.0
H1336 H 0.46355 0.05753 0.66126 0.0
H1337 H 0.56991 0.07412 0.68376 0.0
H1338 H 0.52399 0.07587 0.652 0.0
H1339 H 0.49504 0.03218 0.73456 0.0
H1340 H 0.6943 0.14544 0.90996 0.0
H1341 H 0.61824 0.16406 0.85389 0.0
H1342 H 0.72835 0.1746 0.83816 0.0
H1343 H 0.6326 0.14821 0.89634 0.0
H1344 H 0.48832 0.17908 0.23381 0.0
H1345 H 0.41966 0.2641 0.25439 0.0
H1346 H 0.53815 0.21913 0.23475 0.0
H1347 H 0.46888 0.30467 0.2541 0.0
H1348 H 0.62148 0.30107 0.21859 0.0
H1349 H 0.57148 0.26177 0.2184 0.0
H1350 H 0.51792 0.33061 0.26905 0.0
H1351 H 0.56801 0.37088 0.26816 0.0
C1352 C 0.48368 0.20633 0.23858 0.0
C1353 C 0.44943 0.21773 0.24427 0.0
C1354 C 0.51255 0.22984 0.23882 0.0
C1355 C 0.50856 0.26611 0.24439 0.0
C1356 C 0.47413 0.27731 0.25011 0.0
C1357 C 0.44539 0.25372 0.25017 0.0
C1358 C 0.59903 0.30807 0.22968 0.0
C1359 C 0.59943 0.33944 0.24356 0.0
C1360 C 0.57 0.28499 0.22979 0.0
C1361 C 0.53975 0.29185 0.24397 0.0
C1362 C 0.53996 0.32375 0.25757 0.0
C1363 C 0.56904 0.34713 0.25722 0.0
H1364 H 0.61646 0.73626 0.51242 0.0
H1365 H 0.5342 0.67033 0.48398 0.0
H1366 H 0.57596 0.78588 0.51393 0.0
H1367 H 0.49399 0.71988 0.48445 0.0
H1368 H 0.41671 0.81014 0.5004 0.0
H1369 H 0.45651 0.75965 0.50125 0.0
H1370 H 0.5451 0.83022 0.49751 0.0
H1371 H 0.50563 0.87993 0.49784 0.0
C1372 C 0.58976 0.73218 0.50638 0.0
C1373 C 0.57917 0.69857 0.49821 0.0
C1374 C 0.56613 0.76111 0.50701 0.0
C1375 C 0.53066 0.75808 0.49929 0.0
C1376 C 0.52032 0.72427 0.49107 0.0
C1377 C 0.54385 0.69538 0.49062 0.0
C1378 C 0.4447 0.81495 0.50014 0.0
C1379 C 0.4573 0.84986 0.49939 0.0
C1380 C 0.46796 0.78562 0.50032 0.0
C1381 C 0.50505 0.78969 0.49954 0.0
C1382 C 0.51733 0.82479 0.49873 0.0
C1383 C 0.4942 0.8539 0.49877 0.0
H1384 H 0.05707 0.87879 0.74635 0.0
H1385 H 0.12495 0.7884 0.74368 0.0
H1386 H 1.00578 0.83984 0.74592 0.0
H1387 H 0.07426 0.7497 0.7426 0.0
H1388 H 0.97781 0.68241 0.75985 0.0
H1389 H 0.02801 0.72192 0.76151 0.0
H1390 H 0.96766 0.80195 0.72522 0.0
H1391 H 0.91734 0.76226 0.72388 0.0
C1392 C 0.06127 0.85064 0.74587 0.0
C1393 C 0.09583 0.83727 0.7454 0.0
C1394 C 0.03153 0.82798 0.74532 0.0
C1395 C 0.0349 0.79082 0.74429 0.0
C1396 C 0.0696 0.7777 0.74388 0.0
C1397 C 0.09917 0.80026 0.7444 0.0
C1398 C 0.97506 0.70826 0.75206 0.0
C1399 C 0.94281 0.71848 0.7417 0.0
C1400 C 1.00432 0.73133 0.75293 0.0
C1401 C 1.00292 0.76594 0.74348 0.0
C1402 C 0.97054 0.77609 0.73308 0.0
C1403 C 0.94133 0.75293 0.73214 0.0
H1404 H 0.03407 0.16737 1.00377 0.0
H1405 H 0.12085 0.23662 0.98946 0.0
H1406 H 0.99448 0.2173 1.00535 0.0
H1407 H 0.08139 0.28674 0.98979 0.0
H1408 H 1.00878 0.37954 1.00371 0.0
H1409 H 0.04806 0.32948 1.00437 0.0
H1410 H 0.95992 0.2601 0.99205 0.0
H1411 H 0.92065 0.31059 0.99274 0.0
C1412 C 0.04492 0.19337 1.00096 0.0
C1413 C 0.08132 0.19737 0.99696 0.0
C1414 C 0.02179 0.22256 1.0016 0.0
C1415 C 0.03362 0.25747 0.99778 0.0
C1416 C 0.07022 0.26122 0.99352 0.0
C1417 C 0.09342 0.232 0.99329 0.0
C1418 C 0.99759 0.35355 1.00142 0.0
C1419 C 0.96098 0.34972 0.99857 0.0
C1420 C 0.02053 0.32426 1.00149 0.0
C1421 C 1.0083 0.28934 0.99818 0.0
C1422 C 0.97142 0.28568 0.99521 0.0
C1423 C 0.94838 0.31507 0.99556 0.0
H1424 H 0.5493 0.88462 1.01632 0.0
H1425 H 0.61353 0.79701 0.99488 0.0
H1426 H 0.4977 0.84597 1.01672 0.0
H1427 H 0.56392 0.75794 0.99754 0.0
H1428 H 0.46664 0.69209 0.98614 0.0
H1429 H 0.51543 0.73284 0.98377 0.0
H1430 H 0.46137 0.80399 1.0326 0.0
H1431 H 0.41169 0.76338 1.03383 0.0
C1432 C 0.55264 0.8571 1.01173 0.0
C1433 C 0.5864 0.84423 1.00596 0.0
C1434 C 0.52284 0.83445 1.01233 0.0
C1435 C 0.52546 0.79782 1.00728 0.0
C1436 C 0.55939 0.78548 1.00125 0.0
C1437 C 0.58873 0.80811 1.00031 0.0
C1438 C 0.46507 0.71633 0.99649 0.0
C1439 C 0.43477 0.72384 1.01029 0.0
C1440 C 0.49361 0.74011 0.99531 0.0
C1441 C 0.49372 0.77257 1.00819 0.0
C1442 C 0.46316 0.77997 1.02206 0.0
C1443 C 0.43437 0.75625 1.02299 0.0
H1444 H 0.61685 0.23797 0.76415 0.0
H1445 H 0.53308 0.16831 0.74304 0.0
H1446 H 0.57667 0.28744 0.76356 0.0
H1447 H 0.49282 0.21799 0.74129 0.0
H1448 H 0.41703 0.31053 0.75569 0.0
H1449 H 0.45665 0.26002 0.75643 0.0
H1450 H 0.54484 0.32987 0.74645 0.0
H1451 H 0.5054 0.37982 0.74693 0.0
C1452 C 0.58994 0.2331 0.75886 0.0
C1453 C 0.57893 0.1985 0.75334 0.0
C1454 C 0.56641 0.26198 0.75841 0.0
C1455 C 0.5305 0.258 0.75216 0.0
C1456 C 0.51964 0.22321 0.74653 0.0
C1457 C 0.54315 0.19426 0.74725 0.0
C1458 C 0.44487 0.31511 0.75344 0.0
C1459 C 0.45746 0.34986 0.75103 0.0
C1460 C 0.46803 0.28576 0.75381 0.0
C1461 C 0.50498 0.28964 0.75156 0.0
C1462 C 0.5172 0.3246 0.74881 0.0
C1463 C 0.49417 0.3538 0.74876 0.0
H1464 H 0.12823 0.28945 0.52888 0.0
H1465 H 0.06765 0.3683 0.49195 0.0
H1466 H 0.07765 0.24983 0.5284 0.0
H1467 H 1.01726 0.32881 0.49105 0.0
H1468 H 0.92014 0.26311 0.51002 0.0
H1469 H 0.97097 0.3018 0.51072 0.0
H1470 H 0.03928 0.2115 0.50811 0.0
H1471 H 0.98802 0.17271 0.50809 0.0
C1472 C 0.10414 0.29851 0.5206 0.0
C1473 C 0.10265 0.33257 0.51045 0.0
C1474 C 0.07481 0.27543 0.52014 0.0
C1475 C 0.04235 0.28535 0.50969 0.0
C1476 C 0.04099 0.31961 0.49967 0.0
C1477 C 0.07035 0.34257 0.50005 0.0
C1478 C 0.94592 0.25124 0.50944 0.0
C1479 C 0.94921 0.21422 0.50868 0.0
C1480 C 0.97556 0.27377 0.50971 0.0
C1481 C 1.01026 0.26058 0.50932 0.0
C1482 C 1.01355 0.22342 0.50865 0.0
C1483 C 0.98378 0.20083 0.50833 0.0
H1484 H 0.03143 0.66905 0.25229 0.0
H1485 H 0.11537 0.74424 0.26022 0.0
H1486 H 0.98869 0.71689 0.25233 0.0
H1487 H 0.07255 0.79219 0.26006 0.0
H1488 H 0.98939 0.87219 0.23386 0.0
H1489 H 0.03147 0.82401 0.23407 0.0
H1490 H 0.96005 0.76242 0.27743 0.0
H1491 H 0.91876 0.81211 0.27851 0.0
C1492 C 0.04101 0.69578 0.25381 0.0
C1493 C 0.0774 0.70229 0.25596 0.0
C1494 C 1.0162 0.72344 0.25407 0.0
C1495 C 0.02663 0.75895 0.25615 0.0
C1496 C 0.06307 0.76548 0.25812 0.0
C1497 C 0.08787 0.73776 0.25823 0.0
C1498 C 0.9829 0.84885 0.24406 0.0
C1499 C 0.95087 0.84695 0.25685 0.0
C1500 C 1.00711 0.82078 0.24397 0.0
C1501 C 0.99993 0.78892 0.25605 0.0
C1502 C 0.96696 0.78626 0.26786 0.0
C1503 C 0.94299 0.81482 0.26837 0.0
H1504 H 0.4225 1.00591 1.09645 0.0
H1505 H 0.40302 0.99504 0.17351 0.0
H1506 H 0.4533 0.94976 1.09637 0.0
H1507 H 0.4335 0.93889 0.1735 0.0
H1508 H 0.51274 0.85379 1.09907 0.0
H1509 H 0.45676 0.88375 1.10493 0.0
H1510 H 0.49938 0.93803 0.16756 0.0
H1511 H 0.55535 0.90893 0.16132 0.0
C1512 C 0.42332 0.99073 1.11309 0.0
C1513 C 0.41082 1.00495 0.13503 0.0
C1514 C 0.44086 0.95852 1.11309 0.0
C1515 C 0.44602 0.94021 0.13503 0.0
C1516 C 0.43004 0.9526 0.1564 0.0
C1517 C 0.41256 0.98469 0.15638 0.0
C1518 C 0.50954 0.87097 1.11473 0.0
C1519 C 0.53847 0.87968 0.12949 0.0
C1520 C 0.4776 0.88812 1.118 0.0
C1521 C 0.47401 0.91355 0.1364 0.0
C1522 C 0.50136 0.91837 0.15328 0.0
C1523 C 0.53346 0.90158 0.1498 0.0
H1524 H 0.6918 0.78969 0.3569 0.0
H1525 H 0.65832 0.81461 0.43033 0.0
H1526 H 0.72845 0.84225 0.35678 0.0
H1527 H 0.69699 0.86577 0.43062 0.0
H1528 H 0.82747 0.87997 0.41903 0.0
H1529 H 0.76955 0.85426 0.42546 0.0
H1530 H 0.7285 0.91525 0.36599 0.0
H1531 H 0.78644 0.94199 0.36008 0.0
C1532 C 0.69129 0.8069 0.37268 0.0
C1533 C 0.67276 0.79749 0.39379 0.0
C1534 C 0.71234 0.83694 0.37264 0.0
C1535 C 0.71554 0.85768 0.3938 0.0
C1536 C 0.69486 0.85004 0.41417 0.0
C1537 C 0.6731 0.82058 0.41399 0.0
C1538 C 0.8056 0.88962 0.40842 0.0
C1539 C 0.81128 0.91243 0.38884 0.0
C1540 C 0.77253 0.87472 0.41194 0.0
C1541 C 0.74506 0.88244 0.39581 0.0
C1542 C 0.74958 0.9088 0.37837 0.0
C1543 C 0.78249 0.92413 0.37513 0.0
H1544 H 0.98101 0.92798 0.68315 0.0
H1545 H 0.9987 0.95605 0.60781 0.0
H1546 H 0.93041 0.96719 0.6846 0.0
H1547 H 0.94684 0.99334 0.60904 0.0
H1548 H 0.91488 0.09716 0.66882 0.0
H1549 H 0.94069 0.03962 0.67664 0.0
H1550 H 0.87503 0.99339 0.62131 0.0
H1551 H 0.84881 0.05121 0.61351 0.0
C1552 C 0.97362 0.94175 0.66671 0.0
C1553 C 0.99447 0.93961 0.64549 0.0
C1554 C 0.94445 0.9638 0.66757 0.0
C1555 C 0.9349 0.98301 0.64696 0.0
C1556 C 0.95351 0.97825 0.62507 0.0
C1557 C 0.9832 0.95686 0.62436 0.0
C1558 C 0.90439 0.07437 0.6594 0.0
C1559 C 0.88039 0.07847 0.64031 0.0
C1560 C 0.91929 0.0415 0.66376 0.0
C1561 C 0.91024 1.01261 0.64902 0.0
C1562 C 0.88262 1.0157 0.63242 0.0
C1563 C 0.86756 0.04852 0.62816 0.0
H1564 H 0.91541 0.24582 0.91669 0.0
H1565 H 0.8712 0.28081 0.84854 0.0
H1566 H 0.87691 0.1945 0.91595 0.0
H1567 H 0.83456 0.22831 0.84712 0.0
H1568 H 0.74339 0.19347 0.91387 0.0
H1569 H 0.80375 0.21446 0.91666 0.0
H1570 H 0.83151 0.15271 0.85336 0.0
H1571 H 0.77152 0.12971 0.85184 0.0
C1572 C 0.89877 0.24164 0.90095 0.0
C1573 C 0.89549 0.26779 0.88299 0.0
C1574 C 0.87697 0.21221 0.90054 0.0
C1575 C 0.85282 0.20787 0.88162 0.0
C1576 C 0.85331 0.23116 0.86182 0.0
C1577 C 0.8744 0.26114 0.86256 0.0
C1578 C 0.76283 0.1827 0.90151 0.0
C1579 C 0.75282 0.16073 0.88216 0.0
C1580 C 0.79732 0.19479 0.90302 0.0
C1581 C 0.82189 0.18537 0.88502 0.0
C1582 C 0.81292 0.16026 0.86739 0.0
C1583 C 0.77872 0.1474 0.86639 0.0
H1584 H 0.36346 0.27968 0.90101 0.0
H1585 H 0.40361 0.24366 0.83154 0.0
H1586 H 0.32607 0.22777 0.90317 0.0
H1587 H 0.36433 0.19298 0.8331 0.0
H1588 H 0.26316 0.12837 0.90009 0.0
H1589 H 0.3227 0.1523 0.89714 0.0
H1590 H 0.29129 0.21244 0.83441 0.0
H1591 H 0.23138 0.19051 0.8386 0.0
C1592 C 0.36554 0.25996 0.88677 0.0
C1593 C 0.38579 0.26614 0.86586 0.0
C1594 C 0.34402 0.23032 0.88794 0.0
C1595 C 0.34224 0.20688 0.86811 0.0
C1596 C 0.36538 0.21084 0.84853 0.0
C1597 C 0.38759 0.23992 0.84765 0.0
C1598 C 0.26943 0.14599 0.88538 0.0
C1599 C 0.24268 0.15854 0.87013 0.0
C1600 C 0.30337 0.15937 0.88357 0.0
C1601 C 0.3112 0.18424 0.86568 0.0
C1602 C 0.28572 0.19299 0.84825 0.0
C1603 C 0.2515 0.18036 0.85056 0.0
H1604 H 0.45328 0.78719 0.39508 0.0
H1605 H 0.39333 0.84102 0.34001 0.0
H1606 H 0.42062 0.73321 0.38682 0.0
H1607 H 0.36152 0.78703 0.3313 0.0
H1608 H 0.30054 0.69736 0.3995 0.0
H1609 H 0.35559 0.72993 0.39876 0.0
H1610 H 0.35839 0.72198 0.32024 0.0
H1611 H 0.30344 0.6894 0.32098 0.0
C1612 C 0.43439 0.78697 0.38035 0.0
C1613 C 0.42531 0.81837 0.36847 0.0
C1614 C 0.41565 0.75617 0.37574 0.0
C1615 C 0.38823 0.75622 0.35877 0.0
C1616 C 0.38268 0.78625 0.34444 0.0
C1617 C 0.40106 0.8172 0.3493 0.0
C1618 C 0.31357 0.70139 0.38218 0.0
C1619 C 0.29743 0.6913 0.3603 0.0
C1620 C 0.34517 0.71991 0.38173 0.0
C1621 C 0.36106 0.72858 0.35938 0.0
C1622 C 0.34653 0.71578 0.33766 0.0
C1623 C 0.31506 0.69723 0.33813 0.0
H1624 H 1.01121 0.45691 0.64593 0.0
H1625 H 0.98702 0.41828 0.57357 0.0
H1626 H 0.95797 0.49228 0.64536 0.0
H1627 H 0.93528 0.45594 0.5725 0.0
H1628 H 0.85453 0.54481 0.64035 0.0
H1629 H 0.88308 0.48743 0.63469 0.0
H1630 H 0.94761 0.53148 0.57796 0.0
H1631 H 0.92034 0.58887 0.58441 0.0
C1632 C 0.99409 0.45502 0.63025 0.0
C1633 C 1.00385 0.4354 0.60961 0.0
C1634 C 0.96367 0.47536 0.6299 0.0
C1635 C 0.94294 0.47676 0.60879 0.0
C1636 C 0.951 0.45511 0.58891 0.0
C1637 C 0.98083 0.434 0.58951 0.0
C1638 C 0.87372 0.54158 0.62597 0.0
C1639 C 0.88593 0.57102 0.61315 0.0
C1640 C 0.88996 0.50902 0.62281 0.0
C1641 C 0.91765 0.50557 0.60622 0.0
C1642 C 0.92608 0.53368 0.59078 0.0
C1643 C 0.91032 0.56641 0.59431 0.0
H1644 H 0.60419 0.46752 1.10499 0.0
H1645 H 0.52842 0.3895 0.12689 0.0
H1646 H 0.55842 0.51228 1.10529 0.0
H1647 H 0.48252 0.43434 0.12748 0.0
H1648 H 0.41005 0.53136 1.10697 0.0
H1649 H 0.44877 0.48032 1.10317 0.0
H1650 H 0.52871 0.53633 0.14342 0.0
H1651 H 0.49016 0.5874 0.14661 0.0
C1652 C 0.57736 0.45964 1.10856 0.0
C1653 C 0.56957 0.4252 1.1157 0.0
C1654 C 0.55138 0.48532 1.10933 0.0
C1655 C 0.51733 0.47676 1.11712 0.0
C1656 C 0.50866 0.44154 1.12156 0.0
C1657 C 0.53471 0.41586 1.12088 0.0
C1658 C 0.4354 0.532 1.11576 0.0
C1659 C 0.44728 0.56296 0.12712 0.0
C1660 C 0.45761 0.50309 1.11339 0.0
C1661 C 0.49195 0.50496 1.12238 0.0
C1662 C 0.50257 0.53472 0.13577 0.0
C1663 C 0.48033 0.56356 0.13814 0.0
H1664 H 0.30662 0.36364 0.25936 0.0
H1665 H 0.25703 0.37476 0.32993 0.0
H1666 H 0.28454 0.42119 0.24767 0.0
H1667 H 0.23629 0.43305 0.31842 0.0
H1668 H 0.23889 0.54894 0.2979 0.0
H1669 H 0.26454 0.49244 0.30758 0.0
H1670 H 0.22282 0.44881 0.2409 0.0
H1671 H 0.19684 0.50582 0.231 0.0
C1672 C 0.29093 0.37823 0.27239 0.0
C1673 C 0.2834 0.3644 0.29561 0.0
C1674 C 0.27845 0.41123 0.26565 0.0
C1675 C 0.25877 0.43141 0.28213 0.0
C1676 C 0.25175 0.41804 0.30547 0.0
C1677 C 0.26378 0.38478 0.3121 0.0
C1678 C 0.23588 0.52777 0.28488 0.0
C1679 C 0.21613 0.53215 0.26347 0.0
C1680 C 0.2502 0.49521 0.29067 0.0
C1681 C 0.24546 0.46634 0.27506 0.0
C1682 C 0.22697 0.47083 0.25316 0.0
C1683 C 0.21219 0.50342 0.24749 0.0
H1684 H 0.43132 0.50293 0.58017 0.0
H1685 H 0.43554 0.56074 0.51258 0.0
H1686 H 0.37301 0.48167 0.56963 0.0
H1687 H 0.37748 0.53877 0.50188 0.0
H1688 H 0.29041 0.45787 0.48152 0.0
H1689 H 0.34802 0.4824 0.49116 0.0
H1690 H 0.31299 0.50513 0.56446 0.0
H1691 H 0.25593 0.47974 0.55506 0.0
C1692 C 0.41974 0.51141 0.56319 0.0
C1693 C 0.43817 0.53373 0.54734 0.0
C1694 C 0.38632 0.49914 0.55712 0.0
C1695 C 0.37059 0.50869 0.53498 0.0
C1696 C 0.38905 0.53071 0.51898 0.0
C1697 C 0.42239 0.54321 0.52512 0.0
C1698 C 0.29504 0.46821 0.49965 0.0
C1699 C 0.26872 0.46667 0.51754 0.0
C1700 C 0.32791 0.4825 0.50512 0.0
C1701 C 0.3351 0.49547 0.52863 0.0
C1702 C 0.30838 0.49493 0.54628 0.0
C1703 C 0.27552 0.48081 0.54078 0.0
H1704 H 0.23977 0.69156 0.75502 0.0
H1705 H 0.28387 0.68106 0.82713 0.0
H1706 H 0.25981 0.63247 0.74474 0.0
H1707 H 0.30336 0.62177 0.81691 0.0
H1708 H 0.30357 0.50531 0.79905 0.0
H1709 H 0.279 0.56302 0.80786 0.0
H1710 H 0.31544 0.60038 0.73807 0.0
H1711 H 0.33956 0.54231 0.72901 0.0
C1712 C 0.25388 0.67678 0.76867 0.0
C1713 C 0.26013 0.69117 0.79197 0.0
C1714 C 0.26529 0.64285 0.76276 0.0
C1715 C 0.28301 0.62235 0.78003 0.0
C1716 C 0.2892 0.63664 0.80332 0.0
C1717 C 0.27798 0.67064 0.8092 0.0
C1718 C 0.30559 0.52548 0.78527 0.0
C1719 C 0.32342 0.51907 0.76323 0.0
C1720 C 0.29194 0.55877 0.79051 0.0
C1721 C 0.29549 0.58638 0.77375 0.0
C1722 C 0.31203 0.5796 0.75129 0.0
C1723 C 0.32589 0.54634 0.74611 0.0
H1724 H 0.10603 0.48918 1.01158 0.0
H1725 H 0.11239 0.54434 1.08052 0.0
H1726 H 0.16411 0.51081 1.00066 0.0
H1727 H 0.17082 0.56529 1.06973 0.0
H1728 H 0.28718 0.56827 1.0527 0.0
H1729 H 0.23088 0.54164 1.06247 0.0
H1730 H 0.19235 0.56852 0.99098 0.0
H1731 H 0.24918 0.59444 0.98093 0.0
C1732 C 0.11974 0.50598 1.02441 0.0
C1733 C 0.10447 0.51506 1.04697 0.0
C1734 C 0.15305 0.51829 1.01813 0.0
C1735 C 0.17201 0.53965 1.03435 0.0
C1736 C 0.15702 0.5484 1.057 0.0
C1737 C 0.12358 0.53631 1.06322 0.0
C1738 C 0.26705 0.56779 1.03882 0.0
C1739 C 0.27262 0.58356 1.01602 0.0
C1740 C 0.23462 0.55295 1.04457 0.0
C1741 C 0.20712 0.55329 1.02759 0.0
C1742 C 0.21311 0.56774 1.00441 0.0
C1743 C 0.24555 0.58278 0.99871 0.0
H1744 H 0.80646 0.50605 0.95426 0.0
H1745 H 0.84422 0.5381 1.02519 0.0
H1746 H 0.77897 0.5633 0.9491 0.0
H1747 H 0.81669 0.59536 1.02003 0.0
H1748 H 0.78944 0.70455 0.99756 0.0
H1749 H 0.82226 0.64921 0.99548 0.0
H1750 H 0.73055 0.59686 0.96657 0.0
H1751 H 0.69835 0.65213 0.96833 0.0
C1752 C 0.80835 0.52504 0.96895 0.0
C1753 C 0.82735 0.51747 0.99021 0.0
C1754 C 0.79287 0.55798 0.96588 0.0
C1755 C 0.79608 0.584 0.984 0.0
C1756 C 0.81446 0.57615 1.00547 0.0
C1757 C 0.82984 0.54321 1.00856 0.0
C1758 C 0.77694 0.68142 0.9899 0.0
C1759 C 0.74159 0.68233 0.98299 0.0
C1760 C 0.79542 0.64971 0.98906 0.0
C1761 C 0.77876 0.6186 0.98123 0.0
C1762 C 0.74418 0.62034 0.97257 0.0
C1763 C 0.72575 0.65192 0.97351 0.0
H1764 H 0.61624 0.53759 0.67309 0.0
H1765 H 0.6003 0.49692 0.74571 0.0
H1766 H 0.6746 0.55749 0.68471 0.0
H1767 H 0.65841 0.51784 0.75742 0.0
H1768 H 0.74852 0.59992 0.77255 0.0
H1769 H 0.69092 0.57502 0.76325 0.0
H1770 H 0.73214 0.53115 0.69641 0.0
H1771 H 0.78921 0.55634 0.7055 0.0
C1772 C 0.62521 0.53255 0.69145 0.0
C1773 C 0.60342 0.51542 0.70835 0.0
C1774 C 0.65868 0.54408 0.69814 0.0
C1775 C 0.6712 0.53908 0.72196 0.0
C1776 C 0.6494 0.52232 0.73899 0.0
C1777 C 0.61601 0.51045 0.73224 0.0
C1778 C 0.74533 0.58484 0.75595 0.0
C1779 C 0.77342 0.5809 0.73952 0.0
C1780 C 0.71238 0.57033 0.7507 0.0
C1781 C 0.70682 0.55161 0.72887 0.0
C1782 C 0.73539 0.54601 0.71315 0.0
C1783 C 0.7683 0.56022 0.71851 0.0
H1784 H 0.74664 0.36684 0.42892 0.0
H1785 H 0.80406 0.36182 0.49664 0.0
H1786 H 0.72622 0.42549 0.43954 0.0
H1787 H 0.78286 0.42059 0.50749 0.0
H1788 H 0.70438 0.51286 0.52539 0.0
H1789 H 0.7277 0.45398 0.51737 0.0
H1790 H 0.75308 0.48461 0.44375 0.0
H1791 H 0.72942 0.54299 0.45161 0.0
C1792 C 0.75504 0.37826 0.44607 0.0
C1793 C 0.77753 0.35971 0.46171 0.0
C1794 C 0.7433 0.41195 0.45215 0.0
C1795 C 0.75341 0.42797 0.47416 0.0
C1796 C 0.77464 0.40895 0.49037 0.0
C1797 C 0.78666 0.3752 0.48419 0.0
C1798 C 0.71546 0.50713 0.50762 0.0
C1799 C 0.71502 0.53264 0.48916 0.0
C1800 C 0.72885 0.47344 0.50305 0.0
C1801 C 0.74192 0.46451 0.47986 0.0
C1802 C 0.74276 0.4905 0.46172 0.0
C1803 C 0.72962 0.52418 0.46634 0.0
H1804 H 0.79488 0.45545 0.27104 0.0
H1805 H 0.75264 0.49862 0.20463 0.0
H1806 H 0.85208 0.48081 0.26132 0.0
H1807 H 0.80969 0.52381 0.19497 0.0
H1808 H 0.92669 0.51269 0.17148 0.0
H1809 H 0.86769 0.49474 0.18326 0.0
H1810 H 0.88324 0.53968 0.2548 0.0
H1811 H 0.94175 0.55895 0.24288 0.0
C1812 C 0.79765 0.47064 0.25454 0.0
C1813 C 0.76935 0.4743 0.23837 0.0
C1814 C 0.83036 0.48531 0.24903 0.0
C1815 C 0.83542 0.50378 0.22719 0.0
C1816 C 0.80665 0.50919 0.21174 0.0
C1817 C 0.77389 0.49496 0.21741 0.0
C1818 C 0.9174 0.51938 0.18957 0.0
C1819 C 0.93916 0.53732 0.20614 0.0
C1820 C 0.88362 0.50897 0.19634 0.0
C1821 C 0.87089 0.51591 0.21993 0.0
C1822 C 0.8925 0.53375 0.23656 0.0
C1823 C 0.92612 0.5446 0.2297 0.0
H1824 H 0.84947 0.90179 0.79195 0.0
H1825 H 0.7748 0.84474 0.74773 0.0
H1826 H 0.81533 0.95476 0.78762 0.0
H1827 H 0.7387 0.89772 0.74492 0.0
H1828 H 0.70236 1.00885 0.72312 0.0
H1829 H 0.73538 0.954 0.72662 0.0
H1830 H 0.76493 0.98295 0.80009 0.0
H1831 H 0.73334 0.03769 0.79611 0.0
C1832 C 0.82559 0.90048 0.78133 0.0
C1833 C 0.81532 0.86901 0.76983 0.0
C1834 C 0.80556 0.93092 0.77918 0.0
C1835 C 0.77406 0.93082 0.76591 0.0
C1836 C 0.76308 0.89905 0.75496 0.0
C1837 C 0.78352 0.86849 0.75686 0.0
C1838 C 0.71648 1.00361 0.73983 0.0
C1839 C 0.71623 0.02823 0.75902 0.0
C1840 C 0.73503 0.97195 0.74199 0.0
C1841 C 0.75328 0.96396 0.76357 0.0
C1842 C 0.75226 0.98844 0.78288 0.0
C1843 C 0.73423 1.02015 0.78057 0.0
H1844 H 0.78756 0.95026 0.98051 0.0
H1845 H 0.74886 0.99475 1.04796 0.0
H1846 H 0.8458 0.97436 0.98929 0.0
H1847 H 0.80672 1.01851 1.05664 0.0
H1848 H 0.92362 1.00628 1.07801 0.0
H1849 H 0.86482 0.98725 1.06671 0.0
H1850 H 0.87737 0.03445 0.9959 0.0
H1851 H 0.93564 0.05503 1.0074 0.0
C1852 C 0.79136 0.96534 0.99707 0.0
C1853 C 0.76374 0.96986 1.01377 0.0
C1854 C 0.82461 0.97928 1.00202 0.0
C1855 C 0.8308 0.99776 1.02384 0.0
C1856 C 0.80277 1.00386 1.03988 0.0
C1857 C 0.76954 0.99041 1.03477 0.0
C1858 C 0.91376 1.01319 1.06018 0.0
C1859 C 0.93451 0.03241 1.04374 0.0
C1860 C 0.88012 1.0021 1.05367 0.0
C1861 C 0.86658 1.00952 1.03047 0.0
C1862 C 0.88733 0.0282 1.01384 0.0
C1863 C 0.9208 0.0398 1.02046 0.0
H1864 H 0.83816 0.0368 0.22504 0.0
H1865 H 0.8049 1.01226 0.29816 0.0
H1866 H 0.81041 0.09452 0.22852 0.0
H1867 H 0.77821 0.06975 0.30205 0.0
H1868 H 0.69775 0.1555 0.28975 0.0
H1869 H 0.72968 0.10067 0.28801 0.0
H1870 H 0.81294 0.15162 0.24785 0.0
H1871 H 0.77945 0.20673 0.24854 0.0
C1872 C 0.82486 0.04372 0.24184 0.0
C1873 C 0.82332 1.01978 0.26123 0.0
C1874 C 0.8093 0.07693 0.24395 0.0
C1875 C 0.79202 0.08693 0.26558 0.0
C1876 C 0.79062 0.06283 0.28493 0.0
C1877 C 0.80579 0.02964 0.28268 0.0
C1878 C 0.72292 0.15507 0.28057 0.0
C1879 C 0.73581 0.18522 0.26892 0.0
C1880 C 0.7415 0.12364 0.2798 0.0
C1881 C 0.77387 0.12149 0.26764 0.0
C1882 C 0.78775 0.15217 0.25698 0.0
C1883 C 0.76887 0.18383 0.25764 0.0
H1884 H 0.75359 0.09794 0.47906 0.0
H1885 H 0.79209 0.0554 0.54669 0.0
H1886 H 0.69543 0.07361 0.48792 0.0
H1887 H 0.73446 0.03141 0.55549 0.0
H1888 H 0.60419 0.99557 0.50719 0.0
H1889 H 0.66281 1.01456 0.49524 0.0
H1890 H 0.67693 0.06324 0.56574 0.0
H1891 H 0.61783 0.04576 0.57748 0.0
C1892 C 0.74981 0.0831 0.49564 0.0
C1893 C 0.77728 0.07949 0.5125 0.0
C1894 C 0.71659 0.06908 0.50066 0.0
C1895 C 0.71033 0.05128 0.52264 0.0
C1896 C 0.73838 0.04562 0.53863 0.0
C1897 C 0.77153 0.0592 0.53347 0.0
C1898 C 0.61948 1.01077 0.5201 0.0
C1899 C 0.60606 1.01911 0.5434 0.0
C1900 C 0.65316 1.02145 0.51322 0.0
C1901 C 0.67444 0.04014 0.5296 0.0
C1902 C 0.66124 0.04836 0.55287 0.0
C1903 C 0.62741 0.03817 0.55963 0.0
H1904 H 0.21206 0.17094 0.52314 0.0
H1905 H 0.25774 0.19215 0.45276 0.0
H1906 H 0.24675 0.11695 0.52608 0.0
H1907 H 0.29211 0.13779 0.45549 0.0
H1908 H 0.30401 1.01564 0.4571 0.0
H1909 H 0.27277 0.07167 0.45612 0.0
H1910 H 0.3122 0.09719 0.52774 0.0
H1911 H 0.34398 0.04129 0.52862 0.0
C1912 C 0.22993 0.1642 0.50848 0.0
C1913 C 0.2323 0.18556 0.48773 0.0
C1914 C 0.24973 0.13341 0.51016 0.0
C1915 C 0.27179 0.12307 0.49091 0.0
C1916 C 0.275 0.14502 0.47047 0.0
C1917 C 0.25566 0.1762 0.469 0.0
C1918 C 0.30561 0.03293 0.4728 0.0
C1919 C 0.32625 0.02395 0.49302 0.0
C1920 C 0.28809 0.06519 0.47209 0.0
C1921 C 0.29034 0.08884 0.49178 0.0
C1922 C 0.31004 0.07941 0.51233 0.0
C1923 C 0.3281 0.04741 0.51286 0.0
H1924 H 0.11063 1.01001 0.28604 0.0
H1925 H 0.11061 0.99948 0.20772 0.0
H1926 H 0.16514 0.04269 0.28429 0.0
H1927 H 0.16501 0.03393 0.20563 0.0
H1928 H 0.28354 0.05319 0.21585 0.0
H1929 H 0.22615 0.02499 0.21572 0.0
H1930 H 0.19191 0.09551 0.273 0.0
H1931 H 0.24957 0.12175 0.27435 0.0
C1932 C 0.12203 1.0156 0.26837 0.0
C1933 C 0.10684 1.00216 0.24702 0.0
C1934 C 0.15318 0.03446 0.26731 0.0
C1935 C 0.16963 0.0407 0.24482 0.0
C1936 C 0.15326 0.02898 0.22326 0.0
C1937 C 0.12196 1.00981 0.22437 0.0
C1938 C 0.26408 0.06204 0.2288 0.0
C1939 C 0.27145 0.08937 0.24534 0.0
C1940 C 0.2309 0.0464 0.22837 0.0
C1941 C 0.20439 0.05808 0.2443 0.0
C1942 C 0.21184 0.08547 0.26073 0.0
C1943 C 0.245 0.10062 0.26143 0.0
H1944 H 0.23191 0.0359 0.95609 0.0
H1945 H 0.2013 1.00925 1.02944 0.0
H1946 H 0.26423 0.98151 0.95257 0.0
H1947 H 0.23499 0.95461 1.02634 0.0
H1948 H 0.27501 0.84489 1.00466 0.0
H1949 H 0.2387 0.8977 1.00786 0.0
H1950 H 0.31547 0.95522 0.96585 0.0
H1951 H 0.34989 0.90242 0.9611 0.0
C1952 C 0.23295 1.01887 0.97178 0.0
C1953 C 0.21489 0.02744 0.99329 0.0
C1954 C 0.25142 0.98741 0.96974 0.0
C1955 C 0.2528 0.96368 0.9893 0.0
C1956 C 0.23438 0.97207 1.01083 0.0
C1957 C 0.21541 1.00354 1.01274 0.0
C1958 C 0.28378 0.86872 0.9958 0.0
C1959 C 0.3156 0.86939 0.98279 0.0
C1960 C 0.2632 0.89915 0.99793 0.0
C1961 C 0.27409 0.93091 0.98717 0.0
C1962 C 0.3058 0.9313 0.9741 0.0
C1963 C 0.32599 0.90098 0.97172 0.0
H1964 H 0.43872 0.05454 0.74166 0.0
H1965 H 0.42779 1.0073 0.67022 0.0
H1966 H 0.38008 0.03432 0.75241 0.0
H1967 H 0.36871 0.98805 0.68086 0.0
H1968 H 0.25252 0.99117 0.69984 0.0
H1969 H 0.31006 1.01526 0.69064 0.0
H1970 H 0.34936 0.9759 0.759 0.0
H1971 H 0.29147 0.95174 0.76839 0.0
C1972 C 0.42394 0.03974 0.72825 0.0
C1973 C 0.43812 0.0325 0.70502 0.0
C1974 C 0.39029 0.02828 0.73443 0.0
C1975 C 0.36984 1.00972 0.71747 0.0
C1976 C 0.38374 1.00277 0.6942 0.0
C1977 C 0.41754 1.01391 0.68808 0.0
C1978 C 0.27308 0.98834 0.71325 0.0
C1979 C 0.26724 0.96976 0.735 0.0
C1980 C 0.30621 1.00175 0.70778 0.0
C1981 C 0.33421 0.99728 0.72403 0.0
C1982 C 0.32816 0.97994 0.74621 0.0
C1983 C 0.29503 0.96614 0.75159 0.0
H1984 H 0.3078 0.08206 0.16153 0.0
H1985 H 0.27347 0.18918 0.16948 0.0
H1986 H 0.27194 0.07612 1.12467 0.0
H1987 H 0.23789 0.18351 0.13309 0.0
H1988 H 0.20717 0.17593 1.05222 0.0
H1989 H 0.24108 0.17943 1.08966 0.0
H1990 H 0.2124 0.07268 1.10676 0.0
H1991 H 0.17812 0.06918 1.06881 0.0
C1992 C 0.29258 0.10444 0.15571 0.0
C1993 C 0.29388 0.1362 0.16923 0.0
C1994 C 0.27166 0.10095 0.13439 0.0
C1995 C 0.25151 0.12927 1.12535 0.0
C1996 C 0.25294 0.16094 0.13888 0.0
C1997 C 0.2734 0.16419 0.16025 0.0
C1998 C 0.2075 0.15317 1.06399 0.0
C1999 C 0.18893 0.12244 1.05723 0.0
C2000 C 0.22716 0.15523 1.08577 0.0
C2001 C 0.22981 0.12649 1.10187 0.0
C2002 C 0.21142 0.09554 1.09511 0.0
C2003 C 0.19121 0.09363 1.07334 0.0
H2004 H 0.70366 0.41673 0.32699 0.0
H2005 H 0.65284 0.50111 0.28865 0.0
H2006 H 0.69797 0.45015 0.36532 0.0
H2007 H 0.64746 0.53431 0.32653 0.0
H2008 H 0.67189 0.60162 0.39502 0.0
H2009 H 0.67904 0.5676 0.35728 0.0
H2010 H 0.65645 0.47212 0.39633 0.0
H2011 H 0.64927 0.50613 0.43397 0.0
C2012 C 0.6914 0.44238 0.32658 0.0
C2013 C 0.67871 0.45573 0.3043 0.0
C2014 C 0.6879 0.46165 0.34875 0.0
C2015 C 0.67224 0.49545 0.34951 0.0
C2016 C 0.66002 0.50882 0.32712 0.0
C2017 C 0.66294 0.48939 0.30516 0.0
C2018 C 0.66846 0.57337 0.39567 0.0
C2019 C 0.65979 0.55706 0.41793 0.0
C2020 C 0.67239 0.55366 0.37381 0.0
C2021 C 0.66841 0.51662 0.37325 0.0
C2022 C 0.66015 0.50032 0.39564 0.0
C2023 C 0.6557 0.52008 0.4174 0.0
H2024 H 0.29364 0.90362 0.68264 0.0
H2025 H 0.20023 0.92829 0.64217 0.0
H2026 H 0.32885 0.90976 0.64569 0.0
H2027 H 0.23546 0.93543 0.60527 0.0
H2028 H 0.2997 0.91144 0.53706 0.0
H2029 H 0.26659 0.90663 0.57446 0.0
H2030 H 0.35517 0.94613 0.61501 0.0
H2031 H 0.38914 0.95045 0.5769 0.0
C2032 C 0.28038 0.9103 0.66587 0.0
C2033 C 0.24357 0.91499 0.66577 0.0
C2034 C 0.3009 0.91427 0.64448 0.0
C2035 C 0.28561 0.92304 0.62186 0.0
C2036 C 0.24876 0.92809 0.62188 0.0
C2037 C 0.22828 0.92424 0.64331 0.0
C2038 C 0.31266 0.91907 0.55381 0.0
C2039 C 0.34781 0.93117 0.5534 0.0
C2040 C 0.29312 0.91662 0.5756 0.0
C2041 C 0.30747 0.92609 0.59838 0.0
C2042 C 0.34274 0.93818 0.59814 0.0
C2043 C 0.36243 0.94088 0.5761 0.0
H2044 H 0.89323 0.5544 0.78938 0.0
H2045 H 0.83989 0.63764 0.82795 0.0
H2046 H 0.89728 0.52062 0.82686 0.0
H2047 H 0.84449 0.60371 0.86595 0.0
H2048 H 0.89234 0.54648 0.93445 0.0
H2049 H 0.88597 0.58135 0.89731 0.0
H2050 H 0.8639 0.48676 0.85651 0.0
H2051 H 0.87033 0.45195 0.89368 0.0
C2052 C 0.88236 0.56578 0.80587 0.0
C2053 C 0.8663 0.5993 0.8052 0.0
C2054 C 0.88451 0.54601 0.82759 0.0
C2055 C 0.87128 0.55893 0.84994 0.0
C2056 C 0.85532 0.59258 0.84938 0.0
C2057 C 0.85249 0.61216 0.82742 0.0
C2058 C 0.88624 0.53293 0.91759 0.0
C2059 C 0.88214 0.49595 0.91744 0.0
C2060 C 0.88222 0.55318 0.89613 0.0
C2061 C 0.87439 0.53735 0.8734 0.0
C2062 C 0.87026 0.50034 0.87332 0.0
C2063 C 0.87377 0.48017 0.89485 0.0
H2064 H 0.86096 0.97516 0.18425 0.0
H2065 H 0.81716 0.87527 0.20524 0.0
H2066 H 0.82752 0.9726 0.14603 0.0
H2067 H 0.78357 0.87299 0.16774 0.0
H2068 H 0.74687 0.85989 1.08937 0.0
H2069 H 0.78266 0.86355 1.12589 0.0
H2070 H 0.77226 0.97647 1.12564 0.0
H2071 H 0.73705 0.97248 1.08845 0.0
C2072 C 0.84454 0.95246 0.18075 0.0
C2073 C 0.84255 0.92527 0.19817 0.0
C2074 C 0.82484 0.95111 0.15874 0.0
C2075 C 0.80243 0.92242 0.15309 0.0
C2076 C 0.80067 0.89533 0.17061 0.0
C2077 C 0.8201 0.89677 0.19252 0.0
C2078 C 0.75259 0.88558 1.09668 0.0
C2079 C 0.73918 0.91574 1.08511 0.0
C2080 C 0.77295 0.88779 1.11819 0.0
C2081 C 0.78098 0.92041 0.1294 0.0
C2082 C 0.76752 0.95073 1.11782 0.0
C2083 C 0.74693 0.94842 1.0963 0.0
H2084 H 0.3927 0.55847 0.96011 0.0
H2085 H 0.33304 0.6377 0.92263 0.0
H2086 H 0.39735 0.52436 0.92256 0.0
H2087 H 0.33816 0.60345 0.88457 0.0
H2088 H 0.38638 0.54776 0.81516 0.0
H2089 H 0.37974 0.58299 0.8524 0.0
H2090 H 0.36439 0.48818 0.89382 0.0
H2091 H 0.37101 0.45304 0.85659 0.0
C2092 C 0.38056 0.56888 0.94385 0.0
C2093 C 0.36252 0.60136 0.94482 0.0
C2094 C 0.38306 0.54893 0.92211 0.0
C2095 C 0.36819 0.56066 0.90006 0.0
C2096 C 0.35029 0.59329 0.90091 0.0
C2097 C 0.34715 0.61302 0.9229 0.0
C2098 C 0.3817 0.53427 0.83218 0.0
C2099 C 0.3795 0.49715 0.83252 0.0
C2100 C 0.37754 0.55468 0.85369 0.0
C2101 C 0.37151 0.53888 0.87659 0.0
C2102 C 0.36933 0.50173 0.87686 0.0
C2103 C 0.37295 0.48137 0.8553 0.0
H2104 H 0.67281 0.07472 0.68044 0.0
H2105 H 0.716 0.17388 0.70407 0.0
H2106 H 0.70799 0.0781 0.64294 0.0
H2107 H 0.75134 0.17691 0.66744 0.0
H2108 H 0.79199 0.19209 0.59025 0.0
H2109 H 0.75486 0.18757 0.62608 0.0
H2110 H 0.76359 0.07458 0.62313 0.0
H2111 H 0.79955 0.07943 0.58647 0.0
C2112 C 0.68935 0.09751 0.67766 0.0
C2113 C 0.69052 0.1243 0.69561 0.0
C2114 C 0.71012 0.0993 0.65609 0.0
C2115 C 0.73294 0.12801 0.65142 0.0
C2116 C 0.73394 0.15463 0.66948 0.0
C2117 C 0.7134 0.15278 0.69091 0.0
C2118 C 0.78565 0.16619 0.5968 0.0
C2119 C 0.79893 0.13628 0.58458 0.0
C2120 C 0.7645 0.16348 0.61795 0.0
C2121 C 0.75552 0.13058 0.6282 0.0
C2122 C 0.76899 0.10054 0.61606 0.0
C2123 C 0.79022 0.10335 0.59485 0.0
H2124 H 0.12208 0.4578 0.44564 0.0
H2125 H 0.23357 0.44669 0.43573 0.0
H2126 H 0.11839 0.49204 0.40835 0.0
H2127 H 0.22989 0.48117 0.39795 0.0
H2128 H 0.21191 0.57647 0.34384 0.0
H2129 H 0.21851 0.54129 0.38088 0.0
H2130 H 0.12219 0.48707 0.36418 0.0
H2131 H 0.11632 0.5214 0.32727 0.0
C2132 C 0.14597 0.46252 0.43555 0.0
C2133 C 0.17811 0.44895 0.44411 0.0
C2134 C 0.14379 0.48219 0.41381 0.0
C2135 C 0.17376 0.48972 0.39961 0.0
C2136 C 0.20609 0.47636 0.40819 0.0
C2137 C 0.20819 0.45615 0.42988 0.0
C2138 C 0.19209 0.55706 0.34792 0.0
C2139 C 0.16323 0.55251 0.33204 0.0
C2140 C 0.19601 0.53653 0.36932 0.0
C2141 C 0.17083 0.51103 0.37608 0.0
C2142 C 0.14212 0.50649 0.36016 0.0
C2143 C 0.1387 0.52641 0.3386 0.0
H2144 H 0.67547 0.57618 0.57271 0.0
H2145 H 0.71388 0.67793 0.55125 0.0
H2146 H 0.70934 0.5808 0.61071 0.0
H2147 H 0.74792 0.68229 0.58831 0.0
H2148 H 0.78634 0.69725 0.66666 0.0
H2149 H 0.74992 0.6921 0.63027 0.0
H2150 H 0.76508 0.57975 0.6302 0.0
H2151 H 0.80043 0.58509 0.66688 0.0
C2152 C 0.69069 0.59976 0.57606 0.0
C2153 C 0.6911 0.62681 0.55851 0.0
C2154 C 0.71069 0.60232 0.59792 0.0
C2155 C 0.73182 0.63216 0.60328 0.0
C2156 C 0.73187 0.65911 0.58569 0.0
C2157 C 0.71217 0.65646 0.56398 0.0
C2158 C 0.78173 0.67138 0.65915 0.0
C2159 C 0.7967 0.64172 0.67044 0.0
C2160 C 0.76089 0.66832 0.63782 0.0
C2161 C 0.75388 0.63535 0.62665 0.0
C2162 C 0.76892 0.60568 0.63797 0.0
C2163 C 0.78982 0.60883 0.65923 0.0
H2164 H 0.18877 0.90208 0.82753 0.0
H2165 H 0.16135 0.99685 0.78921 0.0
H2166 H 0.18547 0.93482 0.86644 0.0
H2167 H 0.15833 0.02897 0.82741 0.0
H2168 H 0.18857 0.08799 0.89781 0.0
H2169 H 0.19355 0.05357 0.86017 0.0
H2170 H 0.14511 0.96515 0.89579 0.0
H2171 H 0.14004 0.99984 0.93334 0.0
C2172 C 0.1821 0.92973 0.82723 0.0
C2173 C 0.17513 0.94624 0.80476 0.0
C2174 C 0.18002 0.94866 0.84969 0.0
C2175 C 0.17172 0.98503 0.85053 0.0
C2176 C 0.1652 1.00137 0.82798 0.0
C2177 C 0.16667 0.9825 0.80579 0.0
C2178 C 0.17885 0.0613 0.8977 0.0
C2179 C 0.1633 0.0474 0.91892 0.0
C2180 C 0.18162 0.04132 0.8759 0.0
C2181 C 0.16964 1.00611 0.8744 0.0
C2182 C 0.15491 0.99187 0.89585 0.0
C2183 C 0.15163 1.01211 0.91753 0.0
H2184 H 0.82675 0.37502 1.04867 0.0
H2185 H 0.87137 0.47415 1.07102 0.0
H2186 H 0.79331 0.37219 1.08627 0.0
H2187 H 0.83776 0.47121 1.10929 0.0
H2188 H 0.74463 0.47062 0.16544 0.0
H2189 H 0.78035 0.47489 0.12845 0.0
H2190 H 0.79436 0.3624 0.12872 0.0
H2191 H 0.75848 0.35838 0.16538 0.0
C2192 C 0.82995 0.39618 1.06173 0.0
C2193 C 0.85262 0.42461 1.05646 0.0
C2194 C 0.81058 0.39446 1.08365 0.0
C2195 C 0.81248 0.42127 1.10149 0.0
C2196 C 0.8351 0.44991 1.09627 0.0
C2197 C 0.8549 0.45145 1.07429 0.0
C2198 C 0.75547 0.44673 0.15779 0.0
C2199 C 0.74872 0.41408 0.16912 0.0
C2200 C 0.7763 0.44921 0.13639 0.0
C2201 C 0.79088 0.41908 1.12507 0.0
C2202 C 0.78378 0.38645 0.13636 0.0
C2203 C 0.76332 0.38407 0.15784 0.0
H2204 H 0.32389 0.99876 0.41274 0.0
H2205 H 0.43493 1.01825 0.4151 0.0
H2206 H 0.3196 0.03429 0.37565 0.0
H2207 H 0.43085 0.05424 0.37885 0.0
H2208 H 0.42211 0.08934 0.29952 0.0
H2209 H 0.42443 0.05497 0.33665 0.0
H2210 H 0.32053 0.09035 0.35577 0.0
H2211 H 0.31805 0.12442 0.3179 0.0
C2212 C 0.34749 1.01077 0.4056 0.0
C2213 C 0.3798 1.00556 0.41765 0.0
C2214 C 0.345 0.03156 0.38417 0.0
C2215 C 0.37482 0.04775 0.37358 0.0
C2216 C 0.40705 0.04234 0.38573 0.0
C2217 C 0.40942 1.02183 0.40712 0.0
C2218 C 0.39968 0.09018 0.31154 0.0
C2219 C 0.37005 0.11046 0.30523 0.0
C2220 C 0.40108 0.07032 0.33327 0.0
C2221 C 0.37282 0.06946 0.34999 0.0
C2222 C 0.34298 0.08968 0.34369 0.0
C2223 C 0.34167 0.10976 0.32187 0.0
H2224 H 0.38899 0.43893 0.67053 0.0
H2225 H 0.29638 0.41103 0.71129 0.0
H2226 H 0.35514 0.43307 0.63234 0.0
H2227 H 0.26314 0.40576 0.67383 0.0
H2228 H 0.20152 0.4325 0.60394 0.0
H2229 H 0.23719 0.43984 0.64073 0.0
H2230 H 0.32425 0.38949 0.60464 0.0
H2231 H 0.28839 0.38188 0.56793 0.0
C2232 C 0.36157 0.4317 0.67152 0.0
C2233 C 0.34599 0.42539 0.69447 0.0
C2234 C 0.342 0.42814 0.64949 0.0
C2235 C 0.30589 0.41899 0.64955 0.0
C2236 C 0.29049 0.4132 0.67256 0.0
C2237 C 0.31 0.41605 0.69432 0.0
C2238 C 0.22818 0.42275 0.60378 0.0
C2239 C 0.24141 0.40594 0.58269 0.0
C2240 C 0.24886 0.42693 0.62508 0.0
C2241 C 0.28408 0.41524 0.62617 0.0
C2242 C 0.29754 0.39909 0.60487 0.0
C2243 C 0.27662 0.39428 0.58372 0.0
H2244 H 0.91868 0.07565 0.45561 0.0
H2245 H 0.81947 0.11972 0.43406 0.0
H2246 H 0.92065 0.04096 0.41846 0.0
H2247 H 0.82173 0.08507 0.39611 0.0
H2248 H 0.82153 0.99368 0.33876 0.0
H2249 H 0.81763 0.02907 0.37595 0.0
H2250 H 0.93028 0.0389 0.3767 0.0
H2251 H 0.93384 1.00267 0.34018 0.0
C2252 C 0.89727 0.07846 0.44284 0.0
C2253 C 0.86907 0.10137 0.44827 0.0
C2254 C 0.89853 0.05835 0.42111 0.0
C2255 C 0.87158 0.05979 0.4035 0.0
C2256 C 0.84314 0.08261 0.40891 0.0
C2257 C 0.84197 0.10302 0.43075 0.0
C2258 C 0.84557 1.00337 0.34668 0.0
C2259 C 0.87812 0.99542 0.33554 0.0
C2260 C 0.8433 0.02415 0.36824 0.0
C2261 C 0.87355 0.0377 0.37993 0.0
C2262 C 0.90607 0.02925 0.36889 0.0
C2263 C 0.90822 1.00865 0.34736 0.0
H2264 H 0.14938 0.61583 0.17093 0.0
H2265 H 0.24365 0.639 0.21111 0.0
H2266 H 0.18249 0.622 0.13244 0.0
H2267 H 0.27625 0.64486 0.17329 0.0
H2268 H 0.33496 0.61791 1.1018 0.0
H2269 H 0.30002 0.61083 0.13891 0.0
H2270 H 0.21426 0.66605 1.10536 0.0
H2271 H 0.24956 0.67347 1.06822 0.0
C2272 C 0.17703 0.62217 0.17172 0.0
C2273 C 0.19328 0.62726 0.1946 0.0
C2274 C 0.19617 0.62594 0.14951 0.0
C2275 C 0.23252 0.63402 0.14928 0.0
C2276 C 0.24863 0.63841 0.17222 0.0
C2277 C 0.22954 0.63535 0.19419 0.0
C2278 C 0.3087 0.62871 1.10222 0.0
C2279 C 0.29566 0.64675 1.08169 0.0
C2280 C 0.28848 0.62472 1.12374 0.0
C2281 C 0.25385 0.63783 1.12565 0.0
C2282 C 0.24053 0.65531 1.10493 0.0
C2283 C 0.2611 0.65997 1.08354 0.0
H2284 H 0.65312 1.00108 0.96314 0.0
H2285 H 0.69181 0.90887 0.92594 0.0
H2286 H 0.65026 0.03241 0.92461 0.0
H2287 H 0.6885 0.94042 0.88691 0.0
H2288 H 0.64366 0.99915 0.81798 0.0
H2289 H 0.64812 0.96609 0.85609 0.0
H2290 H 0.68559 0.05929 0.89276 0.0
H2291 H 0.68118 0.09207 0.8547 0.0
C2292 C 0.66103 0.98722 0.94674 0.0
C2293 C 0.67269 0.95198 0.94811 0.0
C2294 C 0.65957 1.00553 0.92441 0.0
C2295 C 0.66914 0.98942 0.90213 0.0
C2296 C 0.68061 0.95403 0.9034 0.0
C2297 C 0.68273 0.93582 0.92595 0.0
C2298 C 0.65272 1.01278 0.83413 0.0
C2299 C 0.6615 0.04887 0.83289 0.0
C2300 C 0.65562 0.99355 0.85615 0.0
C2301 C 0.6671 1.00961 0.87804 0.0
C2302 C 0.67616 0.04564 0.87669 0.0
C2303 C 0.67372 0.06466 0.85463 0.0
loop_
_geom_bond_atom_site_label_1
_geom_bond_atom_site_label_2
_geom_bond_distance
_geom_bond_site_symmetry_2
_ccdc_geom_bond_type
Eu0 N29 2.600 . S
Eu0 N35 2.562 . S
Eu0 O44 2.462 . S
Eu0 O45 2.373 . S
Eu0 O47 2.432 . S
Eu0 O48 2.291 . S
Eu0 O52 2.335 . S
Eu0 O55 2.372 . S
Eu0 C64 2.787 . S
C1 N2 1.365 . S
C1 C4 1.405 . S
C1 C8 1.448 . S
N2 C1 1.365 . S
N2 C5 1.319 . S
N2 Eu11 2.600 . S
C3 C5 1.397 . S
C3 C6 1.367 . S
C3 H23 0.931 . S
C4 C1 1.405 . S
C4 C6 1.403 . S
C4 C10 1.439 . S
C5 N2 1.319 . S
C5 C3 1.397 . S
C5 H16 0.930 . S
C6 C3 1.367 . S
C6 C4 1.403 . S
C6 H27 0.929 . S
C7 C8 1.430 . S
C7 C9 1.387 . S
C7 C13 1.404 . S
C8 C1 1.448 . S
C8 C7 1.430 . S
C8 N12 1.351 . S
C9 C7 1.387 . S
C9 C10 1.374 . S
C9 H24 0.931 . S
C10 C4 1.439 . S
C10 C9 1.374 . S
C10 H25 0.931 . S
Eu11 N2 2.600 . S
Eu11 N12 2.562 . S
Eu11 O46 2.335 . S
Eu11 O49 2.372 . S
Eu11 O50 2.462 . S
Eu11 O51 2.373 . S
Eu11 O53 2.432 . S
Eu11 O54 2.291 . S
Eu11 C75 2.787 . S
N12 C8 1.351 . S
N12 Eu11 2.562 . S
N12 C14 1.325 . S
C13 C7 1.404 . S
C13 C15 1.366 . S
C13 H21 0.930 . S
C14 N12 1.325 . S
C14 C15 1.416 . S
C14 H20 0.929 . S
C15 C13 1.366 . S
C15 C14 1.416 . S
C15 H17 0.930 . S
H16 C5 0.930 . S
H17 C15 0.930 . S
H18 C33 0.930 . S
H19 C40 0.930 . S
H20 C14 0.929 . S
H21 C13 0.930 . S
H22 C36 0.929 . S
H23 C3 0.931 . S
H24 C9 0.931 . S
H25 C10 0.931 . S
H26 C31 0.931 1_565 S
H27 C6 0.929 . S
H28 C39 0.930 . S
N29 Eu0 2.600 . S
N29 C30 1.365 . S
N29 C33 1.319 . S
C30 N29 1.365 . S
C30 C32 1.405 . S
C30 C38 1.448 . S
C31 H26 0.931 1_545 S
C31 C33 1.397 . S
C31 C34 1.367 1_545 S
C32 C30 1.405 . S
C32 C34 1.403 1_545 S
C32 C65 1.439 . S
C33 H18 0.930 . S
C33 N29 1.319 . S
C33 C31 1.397 . S
C34 C31 1.367 1_565 S
C34 C32 1.403 1_565 S
C34 H41 0.929 . S
N35 Eu0 2.562 . S
N35 C36 1.325 . S
N35 C38 1.351 . S
C36 H22 0.929 . S
C36 N35 1.325 . S
C36 C40 1.416 . S
C37 C38 1.430 . S
C37 C39 1.404 . S
C37 C66 1.387 . S
C38 C30 1.448 . S
C38 N35 1.351 . S
C38 C37 1.430 . S
C39 H28 0.930 . S
C39 C37 1.404 . S
C39 C40 1.366 . S
C40 H19 0.930 . S
C40 C36 1.416 . S
C40 C39 1.366 . S
H41 C34 0.929 . S
H42 C65 0.931 1_565 S
H43 C66 0.931 . S
O44 Eu0 2.462 . S
O44 C64 1.252 . S
O45 Eu0 2.373 . S
O45 C56 1.249 . S
O46 Eu11 2.335 . S
O46 C56 1.264 . S
O47 Eu0 2.432 . S
O47 C64 1.268 . S
O48 Eu0 2.291 . S
O48 C63 1.255 . S
O49 Eu11 2.372 . S
O49 C63 1.257 . S
O50 Eu11 2.462 . S
O50 C75 1.252 . S
O51 Eu11 2.373 . S
O51 C67 1.249 . S
O52 Eu0 2.335 . S
O52 C67 1.264 . S
O53 Eu11 2.432 . S
O53 C75 1.268 . S
O54 Eu11 2.291 . S
O54 C74 1.255 . S
O55 Eu0 2.372 . S
O55 C74 1.257 . S
C56 O45 1.249 . S
C56 O46 1.264 . S
C57 C60 1.382 . S
C57 C62 1.390 . S
C57 C64 1.506 . S
C58 C59 1.398 1_545 S
C58 C62 1.392 . S
C59 C58 1.398 1_565 S
C59 C61 1.372 . S
C59 H76 0.929 1_554 S
C60 C57 1.382 . S
C60 C61 1.390 1_545 S
C60 H77 0.931 1_545 S
C61 C59 1.372 . S
C61 C60 1.390 1_565 S
C61 H78 0.929 . S
C62 C57 1.390 . S
C62 C58 1.392 . S
C62 H79 0.930 . S
C63 O48 1.255 . S
C63 O49 1.257 . S
C64 Eu0 2.787 . S
C64 O44 1.252 . S
C64 O47 1.268 . S
C64 C57 1.506 . S
C65 C32 1.439 . S
C65 H42 0.931 1_545 S
C65 C66 1.374 . S
C66 C37 1.387 . S
C66 H43 0.931 . S
C66 C65 1.374 . S
C67 O51 1.249 . S
C67 O52 1.264 . S
C68 C71 1.382 . S
C68 C72 1.390 . S
C68 C75 1.506 . S
C69 C70 1.398 . S
C69 C72 1.392 . S
C70 C69 1.398 . S
C70 C73 1.372 . S
C70 H80 0.931 . S
C71 C68 1.382 . S
C71 C73 1.390 . S
C71 H81 0.931 . S
C72 C68 1.390 . S
C72 C69 1.392 . S
C72 H82 0.930 . S
C73 C70 1.372 . S
C73 C71 1.390 . S
C73 H83 0.929 . S
C74 O54 1.255 . S
C74 O55 1.257 . S
C75 Eu11 2.787 . S
C75 O50 1.252 . S
C75 O53 1.268 . S
C75 C68 1.506 . S
H76 C59 0.929 1_556 S
H77 C60 0.931 1_565 S
H78 C61 0.929 . S
H79 C62 0.930 . S
H80 C70 0.931 . S
H81 C71 0.931 . S
H82 C72 0.930 . S
H83 C73 0.929 . S
Eu84 N113 2.600 . S
Eu84 N119 2.562 . S
Eu84 O128 2.462 . S
Eu84 O129 2.373 . S
Eu84 O131 2.432 . S
Eu84 O132 2.291 . S
Eu84 O136 2.335 . S
Eu84 O139 2.372 . S
Eu84 C148 2.787 . S
C85 N86 1.365 . S
C85 C88 1.405 . S
C85 C92 1.448 . S
N86 C85 1.365 . S
N86 C89 1.319 . S
N86 Eu95 2.600 . S
C87 C89 1.397 . S
C87 C90 1.367 . S
C87 H107 0.931 . S
C88 C85 1.405 . S
C88 C90 1.403 . S
C88 C94 1.439 . S
C89 N86 1.319 . S
C89 C87 1.397 . S
C89 H100 0.930 . S
C90 C87 1.367 . S
C90 C88 1.403 . S
C90 H111 0.929 . S
C91 C92 1.430 . S
C91 C93 1.387 . S
C91 C97 1.404 . S
C92 C85 1.448 . S
C92 C91 1.430 . S
C92 N96 1.351 . S
C93 C91 1.387 . S
C93 C94 1.374 . S
C93 H108 0.931 . S
C94 C88 1.439 . S
C94 C93 1.374 . S
C94 H109 0.931 . S
Eu95 N86 2.600 . S
Eu95 N96 2.562 . S
Eu95 O130 2.335 . S
Eu95 O133 2.372 . S
Eu95 O134 2.462 . S
Eu95 O135 2.373 . S
Eu95 O137 2.432 . S
Eu95 O138 2.291 . S
Eu95 C159 2.787 . S
N96 C92 1.351 . S
N96 Eu95 2.562 . S
N96 C98 1.325 . S
C97 C91 1.404 . S
C97 C99 1.366 . S
C97 H105 0.930 . S
C98 N96 1.325 . S
C98 C99 1.416 . S
C98 H104 0.929 . S
C99 C97 1.366 . S
C99 C98 1.416 . S
C99 H101 0.930 . S
H100 C89 0.930 . S
H101 C99 0.930 . S
H102 C117 0.930 . S
H103 C124 0.930 . S
H104 C98 0.929 . S
H105 C97 0.930 . S
H106 C120 0.929 . S
H107 C87 0.931 . S
H108 C93 0.931 . S
H109 C94 0.931 . S
H110 C115 0.931 . S
H111 C90 0.929 . S
H112 C123 0.930 . S
N113 Eu84 2.600 . S
N113 C114 1.365 . S
N113 C117 1.319 . S
C114 N113 1.365 . S
C114 C116 1.405 . S
C114 C122 1.448 . S
C115 H110 0.931 . S
C115 C117 1.397 . S
C115 C118 1.367 . S
C116 C114 1.405 . S
C116 C118 1.403 . S
C116 C149 1.439 . S
C117 H102 0.930 . S
C117 N113 1.319 . S
C117 C115 1.397 . S
C118 C115 1.367 . S
C118 C116 1.403 . S
C118 H125 0.929 . S
N119 Eu84 2.562 . S
N119 C120 1.325 . S
N119 C122 1.351 . S
C120 H106 0.929 . S
C120 N119 1.325 . S
C120 C124 1.416 . S
C121 C122 1.430 . S
C121 C123 1.404 . S
C121 C150 1.387 . S
C122 C114 1.448 . S
C122 N119 1.351 . S
C122 C121 1.430 . S
C123 H112 0.930 . S
C123 C121 1.404 . S
C123 C124 1.366 . S
C124 H103 0.930 . S
C124 C120 1.416 . S
C124 C123 1.366 . S
H125 C118 0.929 . S
H126 C149 0.931 . S
H127 C150 0.931 . S
O128 Eu84 2.462 . S
O128 C148 1.252 . S
O129 Eu84 2.373 . S
O129 C140 1.249 . S
O130 Eu95 2.335 . S
O130 C140 1.264 . S
O131 Eu84 2.432 . S
O131 C148 1.268 . S
O132 Eu84 2.291 . S
O132 C147 1.255 . S
O133 Eu95 2.372 . S
O133 C147 1.257 . S
O134 Eu95 2.462 . S
O134 C159 1.252 . S
O135 Eu95 2.373 . S
O135 C151 1.249 . S
O136 Eu84 2.335 . S
O136 C151 1.264 . S
O137 Eu95 2.432 . S
O137 C159 1.268 . S
O138 Eu95 2.291 . S
O138 C158 1.255 . S
O139 Eu84 2.372 . S
O139 C158 1.257 . S
C140 O129 1.249 . S
C140 O130 1.264 . S
C141 C144 1.382 . S
C141 C146 1.390 . S
C141 C148 1.506 . S
C142 C143 1.398 . S
C142 C146 1.392 . S
C143 C142 1.398 . S
C143 C145 1.372 . S
C143 H160 0.931 . S
C144 C141 1.382 . S
C144 C145 1.390 . S
C144 H161 0.931 . S
C145 C143 1.372 . S
C145 C144 1.390 . S
C145 H162 0.929 . S
C146 C141 1.390 . S
C146 C142 1.392 . S
C146 H163 0.930 . S
C147 O132 1.255 . S
C147 O133 1.257 . S
C148 Eu84 2.787 . S
C148 O128 1.252 . S
C148 O131 1.268 . S
C148 C141 1.506 . S
C149 C116 1.439 . S
C149 H126 0.931 . S
C149 C150 1.374 . S
C150 C121 1.387 . S
C150 H127 0.931 . S
C150 C149 1.374 . S
C151 O135 1.249 . S
C151 O136 1.264 . S
C152 C155 1.382 . S
C152 C156 1.390 . S
C152 C159 1.506 . S
C153 C154 1.398 . S
C153 C156 1.392 . S
C154 C153 1.398 . S
C154 C157 1.372 . S
C154 H164 0.931 . S
C155 C152 1.382 . S
C155 C157 1.390 . S
C155 H165 0.931 . S
C156 C152 1.390 . S
C156 C153 1.392 . S
C156 H166 0.930 . S
C157 C154 1.372 . S
C157 C155 1.390 . S
C157 H167 0.929 . S
C158 O138 1.255 . S
C158 O139 1.257 . S
C159 Eu95 2.787 . S
C159 O134 1.252 . S
C159 O137 1.268 . S
C159 C152 1.506 . S
H160 C143 0.931 . S
H161 C144 0.931 . S
H162 C145 0.929 . S
H163 C146 0.930 . S
H164 C154 0.931 . S
H165 C155 0.931 . S
H166 C156 0.930 . S
H167 C157 0.929 . S
Eu168 N197 2.600 . S
Eu168 N203 2.562 . S
Eu168 O212 2.462 . S
Eu168 O213 2.373 . S
Eu168 O215 2.432 . S
Eu168 O216 2.291 . S
Eu168 O220 2.335 . S
Eu168 O223 2.372 . S
Eu168 C232 2.787 . S
C169 N170 1.365 . S
C169 C172 1.405 . S
C169 C176 1.448 . S
N170 C169 1.365 . S
N170 C173 1.319 . S
N170 Eu179 2.600 . S
C171 C173 1.397 . S
C171 C174 1.367 . S
C171 H191 0.931 . S
C172 C169 1.405 . S
C172 C174 1.403 . S
C172 C178 1.439 . S
C173 N170 1.319 . S
C173 C171 1.397 . S
C173 H184 0.930 . S
C174 C171 1.367 . S
C174 C172 1.403 . S
C174 H195 0.929 . S
C175 C176 1.430 . S
C175 C177 1.387 . S
C175 C181 1.404 . S
C176 C169 1.448 . S
C176 C175 1.430 . S
C176 N180 1.351 . S
C177 C175 1.387 . S
C177 C178 1.374 . S
C177 H192 0.931 . S
C178 C172 1.439 . S
C178 C177 1.374 . S
C178 H193 0.931 . S
Eu179 N170 2.600 . S
Eu179 N180 2.562 . S
Eu179 O214 2.335 . S
Eu179 O217 2.372 . S
Eu179 O218 2.462 . S
Eu179 O219 2.373 . S
Eu179 O221 2.432 . S
Eu179 O222 2.291 . S
Eu179 C243 2.787 . S
N180 C176 1.351 . S
N180 Eu179 2.562 . S
N180 C182 1.325 . S
C181 C175 1.404 . S
C181 C183 1.366 . S
C181 H189 0.930 . S
C182 N180 1.325 . S
C182 C183 1.416 . S
C182 H188 0.929 . S
C183 C181 1.366 . S
C183 C182 1.416 . S
C183 H185 0.930 . S
H184 C173 0.930 . S
H185 C183 0.930 . S
H186 C201 0.930 . S
H187 C208 0.930 . S
H188 C182 0.929 . S
H189 C181 0.930 . S
H190 C204 0.929 . S
H191 C171 0.931 . S
H192 C177 0.931 . S
H193 C178 0.931 . S
H194 C199 0.931 1_545 S
H195 C174 0.929 . S
H196 C207 0.930 . S
N197 Eu168 2.600 . S
N197 C198 1.365 . S
N197 C201 1.319 . S
C198 N197 1.365 . S
C198 C200 1.405 . S
C198 C206 1.448 . S
C199 H194 0.931 1_565 S
C199 C201 1.397 . S
C199 C202 1.367 1_565 S
C200 C198 1.405 . S
C200 C202 1.403 1_565 S
C200 C233 1.439 . S
C201 H186 0.930 . S
C201 N197 1.319 . S
C201 C199 1.397 . S
C202 C199 1.367 1_545 S
C202 C200 1.403 1_545 S
C202 H209 0.929 . S
N203 Eu168 2.562 . S
N203 C204 1.325 . S
N203 C206 1.351 . S
C204 H190 0.929 . S
C204 N203 1.325 . S
C204 C208 1.416 . S
C205 C206 1.430 . S
C205 C207 1.404 . S
C205 C234 1.387 . S
C206 C198 1.448 . S
C206 N203 1.351 . S
C206 C205 1.430 . S
C207 H196 0.930 . S
C207 C205 1.404 . S
C207 C208 1.366 . S
C208 H187 0.930 . S
C208 C204 1.416 . S
C208 C207 1.366 . S
H209 C202 0.929 . S
H210 C233 0.931 1_545 S
H211 C234 0.931 . S
O212 Eu168 2.462 . S
O212 C232 1.252 . S
O213 Eu168 2.373 . S
O213 C224 1.249 . S
O214 Eu179 2.335 . S
O214 C224 1.264 . S
O215 Eu168 2.432 . S
O215 C232 1.268 . S
O216 Eu168 2.291 . S
O216 C231 1.255 . S
O217 Eu179 2.372 . S
O217 C231 1.257 . S
O218 Eu179 2.462 . S
O218 C243 1.252 . S
O219 Eu179 2.373 . S
O219 C235 1.249 . S
O220 Eu168 2.335 . S
O220 C235 1.264 . S
O221 Eu179 2.432 . S
O221 C243 1.268 . S
O222 Eu179 2.291 . S
O222 C242 1.255 . S
O223 Eu168 2.372 . S
O223 C242 1.257 . S
C224 O213 1.249 . S
C224 O214 1.264 . S
C225 C228 1.382 . S
C225 C230 1.390 . S
C225 C232 1.506 . S
C226 C227 1.398 1_565 S
C226 C230 1.392 . S
C227 C226 1.398 1_545 S
C227 C229 1.372 . S
C227 H244 0.931 . S
C228 C225 1.382 . S
C228 C229 1.390 1_565 S
C228 H245 0.931 1_565 S
C229 C227 1.372 . S
C229 C228 1.390 1_545 S
C229 H246 0.929 . S
C230 C225 1.390 . S
C230 C226 1.392 . S
C230 H247 0.930 . S
C231 O216 1.255 . S
C231 O217 1.257 . S
C232 Eu168 2.787 . S
C232 O212 1.252 . S
C232 O215 1.268 . S
C232 C225 1.506 . S
C233 C200 1.439 . S
C233 H210 0.931 1_565 S
C233 C234 1.374 . S
C234 C205 1.387 . S
C234 H211 0.931 . S
C234 C233 1.374 . S
C235 O219 1.249 . S
C235 O220 1.264 . S
C236 C239 1.382 . S
C236 C240 1.390 . S
C236 C243 1.506 . S
C237 C238 1.398 . S
C237 C240 1.392 . S
C238 C237 1.398 . S
C238 C241 1.372 . S
C238 H248 0.931 . S
C239 C236 1.382 . S
C239 C241 1.390 . S
C239 H249 0.931 . S
C240 C236 1.390 . S
C240 C237 1.392 . S
C240 H250 0.930 . S
C241 C238 1.372 . S
C241 C239 1.390 . S
C241 H251 0.929 . S
C242 O222 1.255 . S
C242 O223 1.257 . S
C243 Eu179 2.787 . S
C243 O218 1.252 . S
C243 O221 1.268 . S
C243 C236 1.506 . S
H244 C227 0.931 . S
H245 C228 0.931 1_545 S
H246 C229 0.929 . S
H247 C230 0.930 . S
H248 C238 0.931 . S
H249 C239 0.931 . S
H250 C240 0.930 . S
H251 C241 0.929 . S
Eu252 N281 2.600 . S
Eu252 N287 2.562 . S
Eu252 O296 2.462 . S
Eu252 O297 2.373 . S
Eu252 O299 2.432 . S
Eu252 O300 2.291 . S
Eu252 O304 2.335 . S
Eu252 O307 2.372 . S
Eu252 C316 2.787 . S
C253 N254 1.365 . S
C253 C256 1.405 . S
C253 C260 1.448 1_455 S
N254 C253 1.365 . S
N254 C257 1.319 . S
N254 Eu263 2.600 1_455 S
C255 C257 1.397 . S
C255 C258 1.367 . S
C255 H275 0.931 . S
C256 C253 1.405 . S
C256 C258 1.403 . S
C256 C262 1.439 . S
C257 N254 1.319 . S
C257 C255 1.397 . S
C257 H268 0.930 . S
C258 C255 1.367 . S
C258 C256 1.403 . S
C258 H279 0.929 . S
C259 C260 1.430 1_455 S
C259 C261 1.387 . S
C259 C265 1.404 1_455 S
C260 C253 1.448 1_655 S
C260 C259 1.430 1_655 S
C260 N264 1.351 . S
C261 C259 1.387 . S
C261 C262 1.374 . S
C261 H276 0.931 . S
C262 C256 1.439 . S
C262 C261 1.374 . S
C262 H277 0.931 . S
Eu263 N254 2.600 1_655 S
Eu263 N264 2.562 . S
Eu263 O298 2.335 . S
Eu263 O301 2.372 . S
Eu263 O302 2.462 . S
Eu263 O303 2.373 . S
Eu263 O305 2.433 . S
Eu263 O306 2.291 . S
Eu263 C327 2.787 . S
N264 C260 1.351 . S
N264 Eu263 2.562 . S
N264 C266 1.325 . S
C265 C259 1.404 1_655 S
C265 C267 1.366 . S
C265 H273 0.930 . S
C266 N264 1.325 . S
C266 C267 1.416 . S
C266 H272 0.929 . S
C267 C265 1.366 . S
C267 C266 1.416 . S
C267 H269 0.930 . S
H268 C257 0.930 . S
H269 C267 0.930 . S
H270 C285 0.930 . S
H271 C292 0.930 . S
H272 C266 0.929 . S
H273 C265 0.930 . S
H274 C288 0.929 . S
H275 C255 0.931 . S
H276 C261 0.931 . S
H277 C262 0.931 . S
H278 C283 0.931 . S
H279 C258 0.929 . S
H280 C291 0.930 . S
N281 Eu252 2.600 . S
N281 C282 1.365 . S
N281 C285 1.319 . S
C282 N281 1.365 . S
C282 C284 1.405 . S
C282 C290 1.448 . S
C283 H278 0.931 . S
C283 C285 1.397 . S
C283 C286 1.367 . S
C284 C282 1.405 . S
C284 C286 1.403 . S
C284 C317 1.439 . S
C285 H270 0.930 . S
C285 N281 1.319 . S
C285 C283 1.397 . S
C286 C283 1.367 . S
C286 C284 1.403 . S
C286 H293 0.929 . S
N287 Eu252 2.562 . S
N287 C288 1.325 . S
N287 C290 1.351 . S
C288 H274 0.929 . S
C288 N287 1.325 . S
C288 C292 1.416 . S
C289 C290 1.430 . S
C289 C291 1.404 . S
C289 C318 1.387 . S
C290 C282 1.448 . S
C290 N287 1.351 . S
C290 C289 1.430 . S
C291 H280 0.930 . S
C291 C289 1.404 . S
C291 C292 1.366 . S
C292 H271 0.930 . S
C292 C288 1.416 . S
C292 C291 1.366 . S
H293 C286 0.929 . S
H294 C317 0.931 . S
H295 C318 0.931 . S
O296 Eu252 2.462 . S
O296 C316 1.252 . S
O297 Eu252 2.373 . S
O297 C308 1.249 . S
O298 Eu263 2.335 . S
O298 C308 1.264 . S
O299 Eu252 2.432 . S
O299 C316 1.268 . S
O300 Eu252 2.291 . S
O300 C315 1.255 . S
O301 Eu263 2.372 . S
O301 C315 1.257 . S
O302 Eu263 2.462 . S
O302 C327 1.252 . S
O303 Eu263 2.373 . S
O303 C319 1.249 . S
O304 Eu252 2.335 . S
O304 C319 1.264 . S
O305 Eu263 2.433 . S
O305 C327 1.269 . S
O306 Eu263 2.291 . S
O306 C326 1.255 . S
O307 Eu252 2.372 . S
O307 C326 1.257 . S
C308 O297 1.249 . S
C308 O298 1.264 . S
C309 C312 1.382 . S
C309 C314 1.390 . S
C309 C316 1.506 . S
C310 C311 1.398 . S
C310 C314 1.392 . S
C311 C310 1.398 . S
C311 C313 1.372 . S
C311 H328 0.931 . S
C312 C309 1.382 . S
C312 C313 1.390 . S
C312 H329 0.931 . S
C313 C311 1.372 . S
C313 C312 1.390 . S
C313 H330 0.929 . S
C314 C309 1.390 . S
C314 C310 1.392 . S
C314 H331 0.930 . S
C315 O300 1.255 . S
C315 O301 1.257 . S
C316 Eu252 2.787 . S
C316 O296 1.252 . S
C316 O299 1.268 . S
C316 C309 1.506 . S
C317 C284 1.439 . S
C317 H294 0.931 . S
C317 C318 1.374 . S
C318 C289 1.387 . S
C318 H295 0.931 . S
C318 C317 1.374 . S
C319 O303 1.249 . S
C319 O304 1.264 . S
C320 C323 1.382 . S
C320 C324 1.390 . S
C320 C327 1.506 1_455 S
C321 C322 1.398 . S
C321 C324 1.392 . S
C322 C321 1.398 . S
C322 C325 1.372 . S
C322 H332 0.931 . S
C323 C320 1.382 . S
C323 C325 1.390 . S
C323 H333 0.931 . S
C324 C320 1.390 . S
C324 C321 1.392 . S
C324 H334 0.930 1_455 S
C325 C322 1.372 . S
C325 C323 1.390 . S
C325 H335 0.929 . S
C326 O306 1.255 . S
C326 O307 1.257 . S
C327 Eu263 2.787 . S
C327 O302 1.252 . S
C327 O305 1.269 . S
C327 C320 1.506 1_655 S
H328 C311 0.931 . S
H329 C312 0.931 . S
H330 C313 0.929 . S
H331 C314 0.930 . S
H332 C322 0.931 . S
H333 C323 0.931 . S
H334 C324 0.930 1_655 S
H335 C325 0.929 . S
Eu336 N365 2.600 . S
Eu336 N371 2.562 . S
Eu336 O380 2.462 . S
Eu336 O381 2.373 . S
Eu336 O383 2.432 . S
Eu336 O384 2.291 . S
Eu336 O388 2.335 . S
Eu336 O391 2.372 . S
Eu336 C400 2.787 . S
C337 N338 1.365 . S
C337 C340 1.405 . S
C337 C344 1.448 . S
N338 C337 1.365 . S
N338 C341 1.319 . S
N338 Eu347 2.600 . S
C339 C341 1.397 . S
C339 C342 1.367 1_565 S
C339 H359 0.931 1_565 S
C340 C337 1.405 . S
C340 C342 1.403 1_565 S
C340 C346 1.439 . S
C341 N338 1.319 . S
C341 C339 1.397 . S
C341 H352 0.930 . S
C342 C339 1.367 1_545 S
C342 C340 1.403 1_545 S
C342 H363 0.929 . S
C343 C344 1.430 . S
C343 C345 1.387 . S
C343 C349 1.404 . S
C344 C337 1.448 . S
C344 C343 1.430 . S
C344 N348 1.351 . S
C345 C343 1.387 . S
C345 C346 1.374 . S
C345 H360 0.931 . S
C346 C340 1.439 . S
C346 C345 1.374 . S
C346 H361 0.931 1_565 S
Eu347 N338 2.600 . S
Eu347 N348 2.562 . S
Eu347 O382 2.335 . S
Eu347 O385 2.372 . S
Eu347 O386 2.462 . S
Eu347 O387 2.373 . S
Eu347 O389 2.432 . S
Eu347 O390 2.291 . S
Eu347 C411 2.787 . S
N348 C344 1.351 . S
N348 Eu347 2.562 . S
N348 C350 1.325 . S
C349 C343 1.404 . S
C349 C351 1.366 . S
C349 H357 0.930 . S
C350 N348 1.325 . S
C350 C351 1.416 . S
C350 H356 0.929 . S
C351 C349 1.366 . S
C351 C350 1.416 . S
C351 H353 0.930 . S
H352 C341 0.930 . S
H353 C351 0.930 . S
H354 C369 0.930 . S
H355 C376 0.930 . S
H356 C350 0.929 . S
H357 C349 0.930 . S
H358 C372 0.929 . S
H359 C339 0.931 1_545 S
H360 C345 0.931 . S
H361 C346 0.931 1_545 S
H362 C367 0.931 . S
H363 C342 0.929 . S
H364 C375 0.930 . S
N365 Eu336 2.600 . S
N365 C366 1.365 . S
N365 C369 1.319 . S
C366 N365 1.365 . S
C366 C368 1.405 . S
C366 C374 1.448 . S
C367 H362 0.931 . S
C367 C369 1.397 . S
C367 C370 1.367 . S
C368 C366 1.405 . S
C368 C370 1.403 . S
C368 C401 1.439 . S
C369 H354 0.930 . S
C369 N365 1.319 . S
C369 C367 1.397 . S
C370 C367 1.367 . S
C370 C368 1.403 . S
C370 H377 0.929 . S
N371 Eu336 2.562 . S
N371 C372 1.325 . S
N371 C374 1.351 . S
C372 H358 0.929 . S
C372 N371 1.325 . S
C372 C376 1.416 . S
C373 C374 1.430 . S
C373 C375 1.404 . S
C373 C402 1.387 . S
C374 C366 1.448 . S
C374 N371 1.351 . S
C374 C373 1.430 . S
C375 H364 0.930 . S
C375 C373 1.404 . S
C375 C376 1.366 . S
C376 H355 0.930 . S
C376 C372 1.416 . S
C376 C375 1.366 . S
H377 C370 0.929 . S
H378 C401 0.931 . S
H379 C402 0.931 . S
O380 Eu336 2.462 . S
O380 C400 1.252 . S
O381 Eu336 2.373 . S
O381 C392 1.249 . S
O382 Eu347 2.335 . S
O382 C392 1.264 . S
O383 Eu336 2.432 . S
O383 C400 1.268 . S
O384 Eu336 2.291 . S
O384 C399 1.255 . S
O385 Eu347 2.372 . S
O385 C399 1.257 . S
O386 Eu347 2.462 . S
O386 C411 1.252 . S
O387 Eu347 2.373 . S
O387 C403 1.249 . S
O388 Eu336 2.335 . S
O388 C403 1.264 . S
O389 Eu347 2.432 . S
O389 C411 1.268 . S
O390 Eu347 2.291 . S
O390 C410 1.255 . S
O391 Eu336 2.372 . S
O391 C410 1.257 . S
C392 O381 1.249 . S
C392 O382 1.264 . S
C393 C396 1.382 . S
C393 C398 1.390 . S
C393 C400 1.506 . S
C394 C395 1.398 . S
C394 C398 1.392 . S
C395 C394 1.398 . S
C395 C397 1.372 . S
C395 H412 0.931 . S
C396 C393 1.382 . S
C396 C397 1.390 . S
C396 H413 0.931 . S
C397 C395 1.372 . S
C397 C396 1.390 . S
C397 H414 0.929 . S
C398 C393 1.390 . S
C398 C394 1.392 . S
C398 H415 0.930 . S
C399 O384 1.255 . S
C399 O385 1.257 . S
C400 Eu336 2.787 . S
C400 O380 1.252 . S
C400 O383 1.268 . S
C400 C393 1.506 . S
C401 C368 1.439 . S
C401 H378 0.931 . S
C401 C402 1.374 . S
C402 C373 1.387 . S
C402 H379 0.931 . S
C402 C401 1.374 . S
C403 O387 1.249 . S
C403 O388 1.264 . S
C404 C407 1.382 . S
C404 C408 1.390 . S
C404 C411 1.506 . S
C405 C406 1.398 1_565 S
C405 C408 1.392 . S
C406 C405 1.398 1_545 S
C406 C409 1.372 . S
C406 H416 0.929 1_556 S
C407 C404 1.382 . S
C407 C409 1.390 1_565 S
C407 H417 0.931 1_565 S
C408 C404 1.390 . S
C408 C405 1.392 . S
C408 H418 0.930 . S
C409 C406 1.372 . S
C409 C407 1.390 1_545 S
C409 H419 0.929 . S
C410 O390 1.255 . S
C410 O391 1.257 . S
C411 Eu347 2.787 . S
C411 O386 1.252 . S
C411 O389 1.268 . S
C411 C404 1.506 . S
H412 C395 0.931 . S
H413 C396 0.931 . S
H414 C397 0.929 . S
H415 C398 0.930 . S
H416 C406 0.929 1_554 S
H417 C407 0.931 1_545 S
H418 C408 0.930 . S
H419 C409 0.929 . S
Eu420 N449 2.600 . S
Eu420 N455 2.562 . S
Eu420 O464 2.462 . S
Eu420 O465 2.373 . S
Eu420 O467 2.432 . S
Eu420 O468 2.291 . S
Eu420 O472 2.335 . S
Eu420 O475 2.372 . S
Eu420 C484 2.787 . S
C421 N422 1.365 . S
C421 C424 1.405 . S
C421 C428 1.448 . S
N422 C421 1.365 . S
N422 C425 1.319 . S
N422 Eu431 2.600 . S
C423 C425 1.397 . S
C423 C426 1.367 . S
C423 H443 0.931 . S
C424 C421 1.405 . S
C424 C426 1.403 . S
C424 C430 1.439 . S
C425 N422 1.319 . S
C425 C423 1.397 . S
C425 H436 0.930 . S
C426 C423 1.367 . S
C426 C424 1.403 . S
C426 H447 0.929 . S
C427 C428 1.430 . S
C427 C429 1.387 . S
C427 C433 1.404 . S
C428 C421 1.448 . S
C428 C427 1.430 . S
C428 N432 1.351 . S
C429 C427 1.387 . S
C429 C430 1.374 . S
C429 H444 0.931 . S
C430 C424 1.439 . S
C430 C429 1.374 . S
C430 H445 0.931 . S
Eu431 N422 2.600 . S
Eu431 N432 2.562 . S
Eu431 O466 2.335 . S
Eu431 O469 2.372 . S
Eu431 O470 2.462 . S
Eu431 O471 2.373 . S
Eu431 O473 2.432 . S
Eu431 O474 2.291 . S
Eu431 C495 2.787 . S
N432 C428 1.351 . S
N432 Eu431 2.562 . S
N432 C434 1.325 . S
C433 C427 1.404 . S
C433 C435 1.366 . S
C433 H441 0.930 . S
C434 N432 1.325 . S
C434 C435 1.416 . S
C434 H440 0.929 . S
C435 C433 1.366 . S
C435 C434 1.416 . S
C435 H437 0.930 . S
H436 C425 0.930 . S
H437 C435 0.930 . S
H438 C453 0.930 . S
H439 C460 0.930 . S
H440 C434 0.929 . S
H441 C433 0.930 . S
H442 C456 0.929 . S
H443 C423 0.931 . S
H444 C429 0.931 . S
H445 C430 0.931 . S
H446 C451 0.931 . S
H447 C426 0.929 . S
H448 C459 0.930 . S
N449 Eu420 2.600 . S
N449 C450 1.365 . S
N449 C453 1.319 . S
C450 N449 1.365 . S
C450 C452 1.405 . S
C450 C458 1.448 . S
C451 H446 0.931 . S
C451 C453 1.397 . S
C451 C454 1.367 . S
C452 C450 1.405 . S
C452 C454 1.403 . S
C452 C485 1.439 . S
C453 H438 0.930 . S
C453 N449 1.319 . S
C453 C451 1.397 . S
C454 C451 1.367 . S
C454 C452 1.403 . S
C454 H461 0.929 . S
N455 Eu420 2.562 . S
N455 C456 1.325 . S
N455 C458 1.351 . S
C456 H442 0.929 . S
C456 N455 1.325 . S
C456 C460 1.416 . S
C457 C458 1.430 . S
C457 C459 1.404 . S
C457 C486 1.387 . S
C458 C450 1.448 . S
C458 N455 1.351 . S
C458 C457 1.430 . S
C459 H448 0.930 . S
C459 C457 1.404 . S
C459 C460 1.366 . S
C460 H439 0.930 . S
C460 C456 1.416 . S
C460 C459 1.366 . S
H461 C454 0.929 . S
H462 C485 0.931 . S
H463 C486 0.931 . S
O464 Eu420 2.462 . S
O464 C484 1.252 . S
O465 Eu420 2.373 . S
O465 C476 1.249 . S
O466 Eu431 2.335 . S
O466 C476 1.264 . S
O467 Eu420 2.432 . S
O467 C484 1.268 . S
O468 Eu420 2.291 . S
O468 C483 1.255 . S
O469 Eu431 2.372 . S
O469 C483 1.257 . S
O470 Eu431 2.462 . S
O470 C495 1.252 . S
O471 Eu431 2.373 . S
O471 C487 1.249 . S
O472 Eu420 2.335 . S
O472 C487 1.264 . S
O473 Eu431 2.432 . S
O473 C495 1.268 . S
O474 Eu431 2.291 . S
O474 C494 1.255 . S
O475 Eu420 2.372 . S
O475 C494 1.257 . S
C476 O465 1.249 . S
C476 O466 1.264 . S
C477 C480 1.382 . S
C477 C482 1.390 . S
C477 C484 1.506 . S
C478 C479 1.398 . S
C478 C482 1.392 . S
C479 C478 1.398 . S
C479 C481 1.372 . S
C479 H496 0.931 . S
C480 C477 1.382 . S
C480 C481 1.390 . S
C480 H497 0.931 . S
C481 C479 1.372 . S
C481 C480 1.390 . S
C481 H498 0.929 . S
C482 C477 1.390 . S
C482 C478 1.392 . S
C482 H499 0.930 . S
C483 O468 1.255 . S
C483 O469 1.257 . S
C484 Eu420 2.787 . S
C484 O464 1.252 . S
C484 O467 1.268 . S
C484 C477 1.506 . S
C485 C452 1.439 . S
C485 H462 0.931 . S
C485 C486 1.374 . S
C486 C457 1.387 . S
C486 H463 0.931 . S
C486 C485 1.374 . S
C487 O471 1.249 . S
C487 O472 1.264 . S
C488 C491 1.382 . S
C488 C492 1.390 . S
C488 C495 1.506 . S
C489 C490 1.398 . S
C489 C492 1.392 . S
C490 C489 1.398 . S
C490 C493 1.372 . S
C490 H500 0.931 . S
C491 C488 1.382 . S
C491 C493 1.390 . S
C491 H501 0.931 . S
C492 C488 1.390 . S
C492 C489 1.392 . S
C492 H502 0.930 . S
C493 C490 1.372 . S
C493 C491 1.390 . S
C493 H503 0.929 . S
C494 O474 1.255 . S
C494 O475 1.257 . S
C495 Eu431 2.787 . S
C495 O470 1.252 . S
C495 O473 1.268 . S
C495 C488 1.506 . S
H496 C479 0.931 . S
H497 C480 0.931 . S
H498 C481 0.929 . S
H499 C482 0.930 . S
H500 C490 0.931 . S
H501 C491 0.931 . S
H502 C492 0.930 . S
H503 C493 0.929 . S
Eu504 N533 2.600 . S
Eu504 N539 2.562 . S
Eu504 O548 2.462 . S
Eu504 O549 2.373 . S
Eu504 O551 2.432 . S
Eu504 O552 2.291 . S
Eu504 O556 2.335 . S
Eu504 O559 2.372 . S
Eu504 C568 2.787 . S
C505 N506 1.365 . S
C505 C508 1.405 . S
C505 C512 1.448 . S
N506 C505 1.365 . S
N506 C509 1.319 . S
N506 Eu515 2.600 . S
C507 C509 1.397 . S
C507 C510 1.367 1_545 S
C507 H527 0.931 1_545 S
C508 C505 1.405 . S
C508 C510 1.403 1_545 S
C508 C514 1.439 . S
C509 N506 1.319 . S
C509 C507 1.397 . S
C509 H520 0.930 . S
C510 C507 1.367 1_565 S
C510 C508 1.403 1_565 S
C510 H531 0.929 . S
C511 C512 1.430 . S
C511 C513 1.387 . S
C511 C517 1.404 . S
C512 C505 1.448 . S
C512 C511 1.430 . S
C512 N516 1.351 . S
C513 C511 1.387 . S
C513 C514 1.374 . S
C513 H528 0.931 . S
C514 C508 1.439 . S
C514 C513 1.374 . S
C514 H529 0.931 1_545 S
Eu515 N506 2.600 . S
Eu515 N516 2.562 . S
Eu515 O550 2.335 . S
Eu515 O553 2.372 . S
Eu515 O554 2.462 . S
Eu515 O555 2.373 . S
Eu515 O557 2.432 . S
Eu515 O558 2.291 . S
Eu515 C579 2.787 . S
N516 C512 1.351 . S
N516 Eu515 2.562 . S
N516 C518 1.325 . S
C517 C511 1.404 . S
C517 C519 1.366 . S
C517 H525 0.930 . S
C518 N516 1.325 . S
C518 C519 1.416 . S
C518 H524 0.929 . S
C519 C517 1.366 . S
C519 C518 1.416 . S
C519 H521 0.930 . S
H520 C509 0.930 . S
H521 C519 0.930 . S
H522 C537 0.930 . S
H523 C544 0.930 . S
H524 C518 0.929 . S
H525 C517 0.930 . S
H526 C540 0.929 . S
H527 C507 0.931 1_565 S
H528 C513 0.931 . S
H529 C514 0.931 1_565 S
H530 C535 0.931 . S
H531 C510 0.929 . S
H532 C543 0.930 . S
N533 Eu504 2.600 . S
N533 C534 1.365 . S
N533 C537 1.319 . S
C534 N533 1.365 . S
C534 C536 1.405 . S
C534 C542 1.448 . S
C535 H530 0.931 . S
C535 C537 1.397 . S
C535 C538 1.367 . S
C536 C534 1.405 . S
C536 C538 1.403 . S
C536 C569 1.439 . S
C537 H522 0.930 . S
C537 N533 1.319 . S
C537 C535 1.397 . S
C538 C535 1.367 . S
C538 C536 1.403 . S
C538 H545 0.929 . S
N539 Eu504 2.562 . S
N539 C540 1.325 . S
N539 C542 1.351 . S
C540 H526 0.929 . S
C540 N539 1.325 . S
C540 C544 1.416 . S
C541 C542 1.430 . S
C541 C543 1.404 . S
C541 C570 1.387 . S
C542 C534 1.448 . S
C542 N539 1.351 . S
C542 C541 1.430 . S
C543 H532 0.930 . S
C543 C541 1.404 . S
C543 C544 1.366 . S
C544 H523 0.930 . S
C544 C540 1.416 . S
C544 C543 1.366 . S
H545 C538 0.929 . S
H546 C569 0.931 . S
H547 C570 0.931 . S
O548 Eu504 2.462 . S
O548 C568 1.252 . S
O549 Eu504 2.373 . S
O549 C560 1.249 . S
O550 Eu515 2.335 . S
O550 C560 1.264 . S
O551 Eu504 2.432 . S
O551 C568 1.268 . S
O552 Eu504 2.291 . S
O552 C567 1.255 . S
O553 Eu515 2.372 . S
O553 C567 1.257 . S
O554 Eu515 2.462 . S
O554 C579 1.252 . S
O555 Eu515 2.373 . S
O555 C571 1.249 . S
O556 Eu504 2.335 . S
O556 C571 1.264 . S
O557 Eu515 2.432 . S
O557 C579 1.268 . S
O558 Eu515 2.291 . S
O558 C578 1.255 . S
O559 Eu504 2.372 . S
O559 C578 1.257 . S
C560 O549 1.249 . S
C560 O550 1.264 . S
C561 C564 1.382 . S
C561 C566 1.390 . S
C561 C568 1.506 . S
C562 C563 1.398 . S
C562 C566 1.392 . S
C563 C562 1.398 . S
C563 C565 1.372 . S
C563 H580 0.931 . S
C564 C561 1.382 . S
C564 C565 1.390 . S
C564 H581 0.931 . S
C565 C563 1.372 . S
C565 C564 1.390 . S
C565 H582 0.929 . S
C566 C561 1.390 . S
C566 C562 1.392 . S
C566 H583 0.930 . S
C567 O552 1.255 . S
C567 O553 1.257 . S
C568 Eu504 2.787 . S
C568 O548 1.252 . S
C568 O551 1.268 . S
C568 C561 1.506 . S
C569 C536 1.439 . S
C569 H546 0.931 . S
C569 C570 1.374 . S
C570 C541 1.387 . S
C570 H547 0.931 . S
C570 C569 1.374 . S
C571 O555 1.249 . S
C571 O556 1.264 . S
C572 C575 1.382 . S
C572 C576 1.390 . S
C572 C579 1.506 . S
C573 C574 1.398 1_545 S
C573 C576 1.392 . S
C574 C573 1.398 1_565 S
C574 C577 1.372 . S
C574 H584 0.931 . S
C575 C572 1.382 . S
C575 C577 1.390 1_545 S
C575 H585 0.931 1_545 S
C576 C572 1.390 . S
C576 C573 1.392 . S
C576 H586 0.930 . S
C577 C574 1.372 . S
C577 C575 1.390 1_565 S
C577 H587 0.929 . S
C578 O558 1.255 . S
C578 O559 1.257 . S
C579 Eu515 2.787 . S
C579 O554 1.252 . S
C579 O557 1.268 . S
C579 C572 1.506 . S
H580 C563 0.931 . S
H581 C564 0.931 . S
H582 C565 0.929 . S
H583 C566 0.930 . S
H584 C574 0.931 . S
H585 C575 0.931 1_565 S
H586 C576 0.930 . S
H587 C577 0.929 . S
Eu588 N617 2.600 1_455 S
Eu588 N623 2.562 . S
Eu588 O632 2.462 . S
Eu588 O633 2.373 . S
Eu588 O635 2.433 . S
Eu588 O636 2.291 . S
Eu588 O640 2.335 . S
Eu588 O643 2.372 . S
Eu588 C652 2.787 . S
C589 N590 1.365 . S
C589 C592 1.405 . S
C589 C596 1.448 . S
N590 C589 1.365 . S
N590 C593 1.319 . S
N590 Eu599 2.600 . S
C591 C593 1.397 . S
C591 C594 1.367 . S
C591 H611 0.931 . S
C592 C589 1.405 . S
C592 C594 1.403 . S
C592 C598 1.439 . S
C593 N590 1.319 . S
C593 C591 1.397 . S
C593 H604 0.930 . S
C594 C591 1.367 . S
C594 C592 1.403 . S
C594 H615 0.929 . S
C595 C596 1.430 . S
C595 C597 1.387 . S
C595 C601 1.404 . S
C596 C589 1.448 . S
C596 C595 1.430 . S
C596 N600 1.351 . S
C597 C595 1.387 . S
C597 C598 1.374 . S
C597 H612 0.931 . S
C598 C592 1.439 . S
C598 C597 1.374 . S
C598 H613 0.931 . S
Eu599 N590 2.600 . S
Eu599 N600 2.562 . S
Eu599 O634 2.335 . S
Eu599 O637 2.372 . S
Eu599 O638 2.462 . S
Eu599 O639 2.373 . S
Eu599 O641 2.432 . S
Eu599 O642 2.291 . S
Eu599 C663 2.787 . S
N600 C596 1.351 . S
N600 Eu599 2.562 . S
N600 C602 1.325 . S
C601 C595 1.404 . S
C601 C603 1.366 . S
C601 H609 0.930 . S
C602 N600 1.325 . S
C602 C603 1.416 . S
C602 H608 0.929 . S
C603 C601 1.366 . S
C603 C602 1.416 . S
C603 H605 0.930 . S
H604 C593 0.930 . S
H605 C603 0.930 . S
H606 C621 0.930 . S
H607 C628 0.930 . S
H608 C602 0.929 . S
H609 C601 0.930 . S
H610 C624 0.929 . S
H611 C591 0.931 . S
H612 C597 0.931 . S
H613 C598 0.931 . S
H614 C619 0.931 . S
H615 C594 0.929 . S
H616 C627 0.930 . S
N617 Eu588 2.600 1_655 S
N617 C618 1.365 . S
N617 C621 1.319 . S
C618 N617 1.365 . S
C618 C620 1.405 . S
C618 C626 1.448 1_655 S
C619 H614 0.931 . S
C619 C621 1.397 . S
C619 C622 1.367 . S
C620 C618 1.405 . S
C620 C622 1.403 . S
C620 C653 1.439 . S
C621 H606 0.930 . S
C621 N617 1.319 . S
C621 C619 1.397 . S
C622 C619 1.367 . S
C622 C620 1.403 . S
C622 H629 0.929 . S
N623 Eu588 2.562 . S
N623 C624 1.325 . S
N623 C626 1.351 . S
C624 H610 0.929 . S
C624 N623 1.325 . S
C624 C628 1.416 . S
C625 C626 1.430 1_655 S
C625 C627 1.404 1_655 S
C625 C654 1.387 . S
C626 C618 1.448 1_455 S
C626 N623 1.351 . S
C626 C625 1.430 1_455 S
C627 H616 0.930 . S
C627 C625 1.404 1_455 S
C627 C628 1.366 . S
C628 H607 0.930 . S
C628 C624 1.416 . S
C628 C627 1.366 . S
H629 C622 0.929 . S
H630 C653 0.931 . S
H631 C654 0.931 . S
O632 Eu588 2.462 . S
O632 C652 1.252 . S
O633 Eu588 2.373 . S
O633 C644 1.249 . S
O634 Eu599 2.335 . S
O634 C644 1.264 . S
O635 Eu588 2.433 . S
O635 C652 1.269 . S
O636 Eu588 2.291 . S
O636 C651 1.255 . S
O637 Eu599 2.372 . S
O637 C651 1.257 . S
O638 Eu599 2.462 . S
O638 C663 1.252 . S
O639 Eu599 2.373 . S
O639 C655 1.249 . S
O640 Eu588 2.335 . S
O640 C655 1.264 . S
O641 Eu599 2.432 . S
O641 C663 1.268 . S
O642 Eu599 2.291 . S
O642 C662 1.255 . S
O643 Eu588 2.372 . S
O643 C662 1.257 . S
C644 O633 1.249 . S
C644 O634 1.264 . S
C645 C648 1.382 . S
C645 C650 1.390 . S
C645 C652 1.506 1_655 S
C646 C647 1.398 . S
C646 C650 1.392 . S
C647 C646 1.398 . S
C647 C649 1.372 . S
C647 H664 0.931 . S
C648 C645 1.382 . S
C648 C649 1.390 . S
C648 H665 0.931 . S
C649 C647 1.372 . S
C649 C648 1.390 . S
C649 H666 0.929 . S
C650 C645 1.390 . S
C650 C646 1.392 . S
C650 H667 0.930 1_655 S
C651 O636 1.255 . S
C651 O637 1.257 . S
C652 Eu588 2.787 . S
C652 O632 1.252 . S
C652 O635 1.269 . S
C652 C645 1.506 1_455 S
C653 C620 1.439 . S
C653 H630 0.931 . S
C653 C654 1.374 . S
C654 C625 1.387 . S
C654 H631 0.931 . S
C654 C653 1.374 . S
C655 O639 1.249 . S
C655 O640 1.264 . S
C656 C659 1.382 . S
C656 C660 1.390 . S
C656 C663 1.506 . S
C657 C658 1.398 . S
C657 C660 1.392 . S
C658 C657 1.398 . S
C658 C661 1.372 . S
C658 H668 0.931 . S
C659 C656 1.382 . S
C659 C661 1.390 . S
C659 H669 0.931 . S
C660 C656 1.390 . S
C660 C657 1.392 . S
C660 H670 0.930 . S
C661 C658 1.372 . S
C661 C659 1.390 . S
C661 H671 0.929 . S
C662 O642 1.255 . S
C662 O643 1.257 . S
C663 Eu599 2.787 . S
C663 O638 1.252 . S
C663 O641 1.268 . S
C663 C656 1.506 . S
H664 C647 0.931 . S
H665 C648 0.931 . S
H666 C649 0.929 . S
H667 C650 0.930 1_455 S
H668 C658 0.931 . S
H669 C659 0.931 . S
H670 C660 0.930 . S
H671 C661 0.929 . S
Eu672 N701 2.600 . S
Eu672 N707 2.562 . S
Eu672 O716 2.462 . S
Eu672 O717 2.373 . S
Eu672 O719 2.432 . S
Eu672 O720 2.291 . S
Eu672 O724 2.335 . S
Eu672 O727 2.372 . S
Eu672 C736 2.787 . S
C673 N674 1.365 . S
C673 C676 1.405 . S
C673 C680 1.448 . S
N674 C673 1.365 . S
N674 C677 1.319 . S
N674 Eu683 2.600 . S
C675 C677 1.397 . S
C675 C678 1.367 . S
C675 H695 0.931 . S
C676 C673 1.405 . S
C676 C678 1.403 . S
C676 C682 1.439 . S
C677 N674 1.319 . S
C677 C675 1.397 . S
C677 H688 0.930 . S
C678 C675 1.367 . S
C678 C676 1.403 . S
C678 H699 0.929 . S
C679 C680 1.430 . S
C679 C681 1.387 . S
C679 C685 1.404 . S
C680 C673 1.448 . S
C680 C679 1.430 . S
C680 N684 1.351 . S
C681 C679 1.387 . S
C681 C682 1.374 . S
C681 H696 0.931 . S
C682 C676 1.439 . S
C682 C681 1.374 . S
C682 H697 0.931 . S
Eu683 N674 2.600 . S
Eu683 N684 2.562 . S
Eu683 O718 2.335 . S
Eu683 O721 2.372 . S
Eu683 O722 2.462 . S
Eu683 O723 2.373 . S
Eu683 O725 2.432 . S
Eu683 O726 2.291 . S
Eu683 C747 2.787 . S
N684 C680 1.351 . S
N684 Eu683 2.562 . S
N684 C686 1.325 . S
C685 C679 1.404 . S
C685 C687 1.366 . S
C685 H693 0.930 . S
C686 N684 1.325 . S
C686 C687 1.416 . S
C686 H692 0.929 . S
C687 C685 1.366 . S
C687 C686 1.416 . S
C687 H689 0.930 . S
H688 C677 0.930 . S
H689 C687 0.930 . S
H690 C705 0.930 . S
H691 C712 0.930 . S
H692 C686 0.929 . S
H693 C685 0.930 . S
H694 C708 0.929 . S
H695 C675 0.931 . S
H696 C681 0.931 . S
H697 C682 0.931 . S
H698 C703 0.931 . S
H699 C678 0.929 . S
H700 C711 0.930 . S
N701 Eu672 2.600 . S
N701 C702 1.365 . S
N701 C705 1.319 . S
C702 N701 1.365 . S
C702 C704 1.405 . S
C702 C710 1.448 . S
C703 H698 0.931 . S
C703 C705 1.397 . S
C703 C706 1.367 . S
C704 C702 1.405 . S
C704 C706 1.403 . S
C704 C737 1.439 . S
C705 H690 0.930 . S
C705 N701 1.319 . S
C705 C703 1.397 . S
C706 C703 1.367 . S
C706 C704 1.403 . S
C706 H713 0.929 . S
N707 Eu672 2.562 . S
N707 C708 1.325 . S
N707 C710 1.351 . S
C708 H694 0.929 . S
C708 N707 1.325 . S
C708 C712 1.416 . S
C709 C710 1.430 . S
C709 C711 1.404 . S
C709 C738 1.387 . S
C710 C702 1.448 . S
C710 N707 1.351 . S
C710 C709 1.430 . S
C711 H700 0.930 . S
C711 C709 1.404 . S
C711 C712 1.366 . S
C712 H691 0.930 . S
C712 C708 1.416 . S
C712 C711 1.366 . S
H713 C706 0.929 . S
H714 C737 0.931 . S
H715 C738 0.931 . S
O716 Eu672 2.462 . S
O716 C736 1.252 . S
O717 Eu672 2.373 . S
O717 C728 1.249 . S
O718 Eu683 2.335 . S
O718 C728 1.264 . S
O719 Eu672 2.432 . S
O719 C736 1.268 . S
O720 Eu672 2.291 . S
O720 C735 1.255 . S
O721 Eu683 2.372 . S
O721 C735 1.257 . S
O722 Eu683 2.462 . S
O722 C747 1.252 . S
O723 Eu683 2.373 . S
O723 C739 1.249 . S
O724 Eu672 2.335 . S
O724 C739 1.264 . S
O725 Eu683 2.432 . S
O725 C747 1.268 . S
O726 Eu683 2.291 . S
O726 C746 1.255 . S
O727 Eu672 2.372 . S
O727 C746 1.257 . S
C728 O717 1.249 . S
C728 O718 1.264 . S
C729 C732 1.382 . S
C729 C734 1.390 . S
C729 C736 1.506 . S
C730 C731 1.398 . S
C730 C734 1.392 . S
C731 C730 1.398 . S
C731 C733 1.372 . S
C731 H748 0.931 . S
C732 C729 1.382 . S
C732 C733 1.390 . S
C732 H749 0.931 . S
C733 C731 1.372 . S
C733 C732 1.390 . S
C733 H750 0.929 . S
C734 C729 1.390 . S
C734 C730 1.392 . S
C734 H751 0.930 . S
C735 O720 1.255 . S
C735 O721 1.257 . S
C736 Eu672 2.787 . S
C736 O716 1.252 . S
C736 O719 1.268 . S
C736 C729 1.506 . S
C737 C704 1.439 . S
C737 H714 0.931 . S
C737 C738 1.374 . S
C738 C709 1.387 . S
C738 H715 0.931 . S
C738 C737 1.374 . S
C739 O723 1.249 . S
C739 O724 1.264 . S
C740 C743 1.382 . S
C740 C744 1.390 . S
C740 C747 1.506 . S
C741 C742 1.398 . S
C741 C744 1.392 . S
C742 C741 1.398 . S
C742 C745 1.372 . S
C742 H752 0.931 . S
C743 C740 1.382 . S
C743 C745 1.390 . S
C743 H753 0.931 . S
C744 C740 1.390 . S
C744 C741 1.392 . S
C744 H754 0.930 . S
C745 C742 1.372 . S
C745 C743 1.390 . S
C745 H755 0.929 . S
C746 O726 1.255 . S
C746 O727 1.257 . S
C747 Eu683 2.787 . S
C747 O722 1.252 . S
C747 O725 1.268 . S
C747 C740 1.506 . S
H748 C731 0.931 . S
H749 C732 0.931 . S
H750 C733 0.929 . S
H751 C734 0.930 . S
H752 C742 0.931 . S
H753 C743 0.931 . S
H754 C744 0.930 . S
H755 C745 0.929 . S
Eu756 N785 2.600 . S
Eu756 N791 2.562 . S
Eu756 O800 2.462 . S
Eu756 O801 2.373 . S
Eu756 O803 2.432 . S
Eu756 O804 2.291 . S
Eu756 O808 2.335 . S
Eu756 O811 2.372 . S
Eu756 C820 2.787 . S
C757 N758 1.365 . S
C757 C760 1.405 . S
C757 C764 1.448 1_645 S
N758 C757 1.365 . S
N758 C761 1.319 . S
N758 Eu767 2.600 1_655 S
C759 C761 1.397 . S
C759 C762 1.367 . S
C759 H779 0.931 . S
C760 C757 1.405 . S
C760 C762 1.403 . S
C760 C766 1.439 1_545 S
C761 N758 1.319 . S
C761 C759 1.397 . S
C761 H772 0.930 . S
C762 C759 1.367 . S
C762 C760 1.403 . S
C762 H783 0.929 . S
C763 C764 1.430 1_655 S
C763 C765 1.387 . S
C763 C769 1.404 1_655 S
C764 C757 1.448 1_465 S
C764 C763 1.430 1_455 S
C764 N768 1.351 . S
C765 C763 1.387 . S
C765 C766 1.374 . S
C765 H780 0.931 . S
C766 C760 1.439 1_565 S
C766 C765 1.374 . S
C766 H781 0.931 . S
Eu767 N758 2.600 1_455 S
Eu767 N768 2.562 1_545 S
Eu767 O802 2.335 . S
Eu767 O805 2.372 . S
Eu767 O806 2.462 1_545 S
Eu767 O807 2.373 . S
Eu767 O809 2.432 . S
Eu767 O810 2.291 1_545 S
Eu767 C831 2.787 1_545 S
N768 C764 1.351 . S
N768 Eu767 2.562 1_565 S
N768 C770 1.325 . S
C769 C763 1.404 1_455 S
C769 C771 1.366 . S
C769 H777 0.930 . S
C770 N768 1.325 . S
C770 C771 1.416 . S
C770 H776 0.929 . S
C771 C769 1.366 . S
C771 C770 1.416 . S
C771 H773 0.930 . S
H772 C761 0.930 . S
H773 C771 0.930 . S
H774 C789 0.930 . S
H775 C796 0.930 . S
H776 C770 0.929 . S
H777 C769 0.930 . S
H778 C792 0.929 . S
H779 C759 0.931 . S
H780 C765 0.931 . S
H781 C766 0.931 . S
H782 C787 0.931 1_565 S
H783 C762 0.929 . S
H784 C795 0.930 . S
N785 Eu756 2.600 . S
N785 C786 1.365 . S
N785 C789 1.319 . S
C786 N785 1.365 . S
C786 C788 1.405 . S
C786 C794 1.448 . S
C787 H782 0.931 1_545 S
C787 C789 1.397 . S
C787 C790 1.367 . S
C788 C786 1.405 . S
C788 C790 1.403 . S
C788 C821 1.439 . S
C789 H774 0.930 . S
C789 N785 1.319 . S
C789 C787 1.397 . S
C790 C787 1.367 . S
C790 C788 1.403 . S
C790 H797 0.929 . S
N791 Eu756 2.562 . S
N791 C792 1.325 . S
N791 C794 1.351 . S
C792 H778 0.929 . S
C792 N791 1.325 . S
C792 C796 1.416 . S
C793 C794 1.430 . S
C793 C795 1.404 . S
C793 C822 1.387 . S
C794 C786 1.448 . S
C794 N791 1.351 . S
C794 C793 1.430 . S
C795 H784 0.930 . S
C795 C793 1.404 . S
C795 C796 1.366 . S
C796 H775 0.930 . S
C796 C792 1.416 . S
C796 C795 1.366 . S
H797 C790 0.929 . S
H798 C821 0.931 . S
H799 C822 0.931 . S
O800 Eu756 2.462 . S
O800 C820 1.252 . S
O801 Eu756 2.373 . S
O801 C812 1.249 . S
O802 Eu767 2.335 . S
O802 C812 1.264 . S
O803 Eu756 2.432 . S
O803 C820 1.268 . S
O804 Eu756 2.291 . S
O804 C819 1.255 . S
O805 Eu767 2.372 . S
O805 C819 1.257 . S
O806 Eu767 2.462 1_565 S
O806 C831 1.252 . S
O807 Eu767 2.373 . S
O807 C823 1.249 . S
O808 Eu756 2.335 . S
O808 C823 1.264 . S
O809 Eu767 2.432 . S
O809 C831 1.268 1_545 S
O810 Eu767 2.291 1_565 S
O810 C830 1.255 . S
O811 Eu756 2.372 . S
O811 C830 1.257 1_545 S
C812 O801 1.249 . S
C812 O802 1.264 . S
C813 C816 1.382 . S
C813 C818 1.390 . S
C813 C820 1.506 . S
C814 C815 1.398 . S
C814 C818 1.392 . S
C815 C814 1.398 . S
C815 C817 1.372 . S
C815 H832 0.931 . S
C816 C813 1.382 . S
C816 C817 1.390 . S
C816 H833 0.931 . S
C817 C815 1.372 . S
C817 C816 1.390 . S
C817 H834 0.929 . S
C818 C813 1.390 . S
C818 C814 1.392 . S
C818 H835 0.930 . S
C819 O804 1.255 . S
C819 O805 1.257 . S
C820 Eu756 2.787 . S
C820 O800 1.252 . S
C820 O803 1.268 . S
C820 C813 1.506 . S
C821 C788 1.439 . S
C821 H798 0.931 . S
C821 C822 1.374 . S
C822 C793 1.387 . S
C822 H799 0.931 . S
C822 C821 1.374 . S
C823 O807 1.249 . S
C823 O808 1.264 . S
C824 C827 1.382 . S
C824 C828 1.390 . S
C824 C831 1.506 1_655 S
C825 C826 1.398 . S
C825 C828 1.392 . S
C826 C825 1.398 . S
C826 C829 1.372 . S
C826 H836 0.931 . S
C827 C824 1.382 . S
C827 C829 1.390 . S
C827 H837 0.931 1_565 S
C828 C824 1.390 . S
C828 C825 1.392 . S
C828 H838 0.930 1_655 S
C829 C826 1.372 . S
C829 C827 1.390 . S
C829 H839 0.929 . S
C830 O810 1.255 . S
C830 O811 1.257 1_565 S
C831 Eu767 2.787 1_565 S
C831 O806 1.252 . S
C831 O809 1.268 1_565 S
C831 C824 1.506 1_455 S
H832 C815 0.931 . S
H833 C816 0.931 . S
H834 C817 0.929 . S
H835 C818 0.930 . S
H836 C826 0.931 . S
H837 C827 0.931 1_545 S
H838 C828 0.930 1_455 S
H839 C829 0.929 . S
Eu840 N869 2.600 . S
Eu840 N875 2.562 . S
Eu840 O884 2.462 . S
Eu840 O885 2.373 . S
Eu840 O887 2.432 . S
Eu840 O888 2.291 . S
Eu840 O892 2.335 . S
Eu840 O895 2.372 . S
Eu840 C904 2.787 . S
C841 N842 1.365 . S
C841 C844 1.405 . S
C841 C848 1.448 . S
N842 C841 1.365 . S
N842 C845 1.319 . S
N842 Eu851 2.600 . S
C843 C845 1.397 . S
C843 C846 1.367 . S
C843 H863 0.931 . S
C844 C841 1.405 . S
C844 C846 1.403 . S
C844 C850 1.439 . S
C845 N842 1.319 . S
C845 C843 1.397 . S
C845 H856 0.930 . S
C846 C843 1.367 . S
C846 C844 1.403 . S
C846 H867 0.929 . S
C847 C848 1.430 . S
C847 C849 1.387 . S
C847 C853 1.404 . S
C848 C841 1.448 . S
C848 C847 1.430 . S
C848 N852 1.351 . S
C849 C847 1.387 . S
C849 C850 1.374 . S
C849 H864 0.931 . S
C850 C844 1.439 . S
C850 C849 1.374 . S
C850 H865 0.931 . S
Eu851 N842 2.600 . S
Eu851 N852 2.562 . S
Eu851 O886 2.335 . S
Eu851 O889 2.372 . S
Eu851 O890 2.462 . S
Eu851 O891 2.373 . S
Eu851 O893 2.432 . S
Eu851 O894 2.291 . S
Eu851 C915 2.787 . S
N852 C848 1.351 . S
N852 Eu851 2.562 . S
N852 C854 1.325 . S
C853 C847 1.404 . S
C853 C855 1.366 . S
C853 H861 0.930 . S
C854 N852 1.325 . S
C854 C855 1.416 . S
C854 H860 0.929 . S
C855 C853 1.366 . S
C855 C854 1.416 . S
C855 H857 0.930 . S
H856 C845 0.930 . S
H857 C855 0.930 . S
H858 C873 0.930 . S
H859 C880 0.930 . S
H860 C854 0.929 . S
H861 C853 0.930 . S
H862 C876 0.929 . S
H863 C843 0.931 . S
H864 C849 0.931 . S
H865 C850 0.931 . S
H866 C871 0.931 . S
H867 C846 0.929 . S
H868 C879 0.930 . S
N869 Eu840 2.600 . S
N869 C870 1.365 . S
N869 C873 1.319 . S
C870 N869 1.365 . S
C870 C872 1.405 . S
C870 C878 1.448 . S
C871 H866 0.931 . S
C871 C873 1.397 . S
C871 C874 1.367 . S
C872 C870 1.405 . S
C872 C874 1.403 . S
C872 C905 1.439 . S
C873 H858 0.930 . S
C873 N869 1.319 . S
C873 C871 1.397 . S
C874 C871 1.367 . S
C874 C872 1.403 . S
C874 H881 0.929 . S
N875 Eu840 2.562 . S
N875 C876 1.325 . S
N875 C878 1.351 . S
C876 H862 0.929 . S
C876 N875 1.325 . S
C876 C880 1.416 . S
C877 C878 1.430 . S
C877 C879 1.404 . S
C877 C906 1.387 . S
C878 C870 1.448 . S
C878 N875 1.351 . S
C878 C877 1.430 . S
C879 H868 0.930 . S
C879 C877 1.404 . S
C879 C880 1.366 . S
C880 H859 0.930 . S
C880 C876 1.416 . S
C880 C879 1.366 . S
H881 C874 0.929 . S
H882 C905 0.931 . S
H883 C906 0.931 . S
O884 Eu840 2.462 . S
O884 C904 1.252 . S
O885 Eu840 2.373 . S
O885 C896 1.249 . S
O886 Eu851 2.335 . S
O886 C896 1.264 . S
O887 Eu840 2.432 . S
O887 C904 1.268 . S
O888 Eu840 2.291 . S
O888 C903 1.255 . S
O889 Eu851 2.372 . S
O889 C903 1.257 . S
O890 Eu851 2.462 . S
O890 C915 1.252 . S
O891 Eu851 2.373 . S
O891 C907 1.249 . S
O892 Eu840 2.335 . S
O892 C907 1.264 . S
O893 Eu851 2.432 . S
O893 C915 1.268 . S
O894 Eu851 2.291 . S
O894 C914 1.255 . S
O895 Eu840 2.372 . S
O895 C914 1.257 . S
C896 O885 1.249 . S
C896 O886 1.264 . S
C897 C900 1.382 . S
C897 C902 1.390 . S
C897 C904 1.506 . S
C898 C899 1.398 . S
C898 C902 1.392 . S
C899 C898 1.398 . S
C899 C901 1.372 . S
C899 H916 0.929 1_554 S
C900 C897 1.382 . S
C900 C901 1.390 . S
C900 H917 0.931 . S
C901 C899 1.372 . S
C901 C900 1.390 . S
C901 H918 0.929 . S
C902 C897 1.390 . S
C902 C898 1.392 . S
C902 H919 0.930 . S
C903 O888 1.255 . S
C903 O889 1.257 . S
C904 Eu840 2.787 . S
C904 O884 1.252 . S
C904 O887 1.268 . S
C904 C897 1.506 . S
C905 C872 1.439 . S
C905 H882 0.931 . S
C905 C906 1.374 . S
C906 C877 1.387 . S
C906 H883 0.931 . S
C906 C905 1.374 . S
C907 O891 1.249 . S
C907 O892 1.264 . S
C908 C911 1.382 . S
C908 C912 1.390 . S
C908 C915 1.506 . S
C909 C910 1.398 . S
C909 C912 1.392 . S
C910 C909 1.398 . S
C910 C913 1.372 . S
C910 H920 0.931 . S
C911 C908 1.382 . S
C911 C913 1.390 . S
C911 H921 0.931 . S
C912 C908 1.390 . S
C912 C909 1.392 . S
C912 H922 0.930 . S
C913 C910 1.372 . S
C913 C911 1.390 . S
C913 H923 0.929 . S
C914 O894 1.255 . S
C914 O895 1.257 . S
C915 Eu851 2.787 . S
C915 O890 1.252 . S
C915 O893 1.268 . S
C915 C908 1.506 . S
H916 C899 0.929 1_556 S
H917 C900 0.931 . S
H918 C901 0.929 . S
H919 C902 0.930 . S
H920 C910 0.931 . S
H921 C911 0.931 . S
H922 C912 0.930 . S
H923 C913 0.929 . S
Eu924 N953 2.600 . S
Eu924 N959 2.562 . S
Eu924 O968 2.462 . S
Eu924 O969 2.373 . S
Eu924 O971 2.432 . S
Eu924 O972 2.291 . S
Eu924 O976 2.335 . S
Eu924 O979 2.372 . S
Eu924 C988 2.787 . S
C925 N926 1.365 . S
C925 C928 1.405 . S
C925 C932 1.448 1_565 S
N926 C925 1.365 . S
N926 C929 1.319 . S
N926 Eu935 2.600 . S
C927 C929 1.397 . S
C927 C930 1.367 . S
C927 H947 0.931 . S
C928 C925 1.405 . S
C928 C930 1.403 . S
C928 C934 1.439 1_565 S
C929 N926 1.319 . S
C929 C927 1.397 . S
C929 H940 0.930 . S
C930 C927 1.367 . S
C930 C928 1.403 . S
C930 H951 0.929 . S
C931 C932 1.430 . S
C931 C933 1.387 . S
C931 C937 1.404 . S
C932 C925 1.448 1_545 S
C932 C931 1.430 . S
C932 N936 1.351 . S
C933 C931 1.387 . S
C933 C934 1.374 . S
C933 H948 0.931 . S
C934 C928 1.439 1_545 S
C934 C933 1.374 . S
C934 H949 0.931 . S
Eu935 N926 2.600 . S
Eu935 N936 2.562 1_565 S
Eu935 O970 2.335 . S
Eu935 O973 2.372 . S
Eu935 O974 2.462 1_565 S
Eu935 O975 2.373 . S
Eu935 O977 2.432 . S
Eu935 O978 2.291 1_565 S
Eu935 C999 2.787 1_565 S
N936 C932 1.351 . S
N936 Eu935 2.562 1_545 S
N936 C938 1.325 . S
C937 C931 1.404 . S
C937 C939 1.366 . S
C937 H945 0.930 . S
C938 N936 1.325 . S
C938 C939 1.416 . S
C938 H944 0.929 . S
C939 C937 1.366 . S
C939 C938 1.416 . S
C939 H941 0.930 . S
H940 C929 0.930 . S
H941 C939 0.930 . S
H942 C957 0.930 . S
H943 C964 0.930 . S
H944 C938 0.929 . S
H945 C937 0.930 . S
H946 C960 0.929 . S
H947 C927 0.931 . S
H948 C933 0.931 . S
H949 C934 0.931 . S
H950 C955 0.931 1_545 S
H951 C930 0.929 . S
H952 C963 0.930 . S
N953 Eu924 2.600 . S
N953 C954 1.365 . S
N953 C957 1.319 . S
C954 N953 1.365 . S
C954 C956 1.405 . S
C954 C962 1.448 . S
C955 H950 0.931 1_565 S
C955 C957 1.397 . S
C955 C958 1.367 . S
C956 C954 1.405 . S
C956 C958 1.403 . S
C956 C989 1.439 . S
C957 H942 0.930 . S
C957 N953 1.319 . S
C957 C955 1.397 . S
C958 C955 1.367 . S
C958 C956 1.403 . S
C958 H965 0.929 . S
N959 Eu924 2.562 . S
N959 C960 1.325 . S
N959 C962 1.351 . S
C960 H946 0.929 . S
C960 N959 1.325 . S
C960 C964 1.416 . S
C961 C962 1.430 . S
C961 C963 1.404 . S
C961 C990 1.387 . S
C962 C954 1.448 . S
C962 N959 1.351 . S
C962 C961 1.430 . S
C963 H952 0.930 . S
C963 C961 1.404 . S
C963 C964 1.366 . S
C964 H943 0.930 . S
C964 C960 1.416 . S
C964 C963 1.366 . S
H965 C958 0.929 . S
H966 C989 0.931 . S
H967 C990 0.931 . S
O968 Eu924 2.462 . S
O968 C988 1.252 . S
O969 Eu924 2.373 . S
O969 C980 1.249 . S
O970 Eu935 2.335 . S
O970 C980 1.264 . S
O971 Eu924 2.432 . S
O971 C988 1.268 . S
O972 Eu924 2.291 . S
O972 C987 1.255 . S
O973 Eu935 2.372 . S
O973 C987 1.257 . S
O974 Eu935 2.462 1_545 S
O974 C999 1.252 . S
O975 Eu935 2.373 . S
O975 C991 1.249 . S
O976 Eu924 2.335 . S
O976 C991 1.264 . S
O977 Eu935 2.432 . S
O977 C999 1.268 1_565 S
O978 Eu935 2.291 1_545 S
O978 C998 1.255 . S
O979 Eu924 2.372 . S
O979 C998 1.257 1_565 S
C980 O969 1.249 . S
C980 O970 1.264 . S
C981 C984 1.382 . S
C981 C986 1.390 . S
C981 C988 1.506 . S
C982 C983 1.398 . S
C982 C986 1.392 . S
C983 C982 1.398 . S
C983 C985 1.372 . S
C983 H1000 0.931 . S
C984 C981 1.382 . S
C984 C985 1.390 . S
C984 H1001 0.931 . S
C985 C983 1.372 . S
C985 C984 1.390 . S
C985 H1002 0.929 . S
C986 C981 1.390 . S
C986 C982 1.392 . S
C986 H1003 0.930 . S
C987 O972 1.255 . S
C987 O973 1.257 . S
C988 Eu924 2.787 . S
C988 O968 1.252 . S
C988 O971 1.268 . S
C988 C981 1.506 . S
C989 C956 1.439 . S
C989 H966 0.931 . S
C989 C990 1.374 . S
C990 C961 1.387 . S
C990 H967 0.931 . S
C990 C989 1.374 . S
C991 O975 1.249 . S
C991 O976 1.264 . S
C992 C995 1.382 . S
C992 C996 1.390 . S
C992 C999 1.506 . S
C993 C994 1.398 . S
C993 C996 1.392 . S
C994 C993 1.398 . S
C994 C997 1.372 . S
C994 H1004 0.931 . S
C995 C992 1.382 . S
C995 C997 1.390 . S
C995 H1005 0.931 1_545 S
C996 C992 1.390 . S
C996 C993 1.392 . S
C996 H1006 0.930 . S
C997 C994 1.372 . S
C997 C995 1.390 . S
C997 H1007 0.929 . S
C998 O978 1.255 . S
C998 O979 1.257 1_545 S
C999 Eu935 2.787 1_545 S
C999 O974 1.252 . S
C999 O977 1.268 1_545 S
C999 C992 1.506 . S
H1000 C983 0.931 . S
H1001 C984 0.931 . S
H1002 C985 0.929 . S
H1003 C986 0.930 . S
H1004 C994 0.931 . S
H1005 C995 0.931 1_565 S
H1006 C996 0.930 . S
H1007 C997 0.929 . S
Eu1008 N1037 2.600 . S
Eu1008 N1043 2.562 . S
Eu1008 O1052 2.462 . S
Eu1008 O1053 2.373 . S
Eu1008 O1055 2.432 . S
Eu1008 O1056 2.291 . S
Eu1008 O1060 2.335 . S
Eu1008 O1063 2.372 . S
Eu1008 C1072 2.787 . S
C1009 N1010 1.365 . S
C1009 C1012 1.405 . S
C1009 C1016 1.448 . S
N1010 C1009 1.365 . S
N1010 C1013 1.319 . S
N1010 Eu1019 2.600 . S
C1011 C1013 1.397 . S
C1011 C1014 1.367 . S
C1011 H1031 0.931 . S
C1012 C1009 1.405 . S
C1012 C1014 1.403 . S
C1012 C1018 1.439 . S
C1013 N1010 1.319 . S
C1013 C1011 1.397 . S
C1013 H1024 0.930 . S
C1014 C1011 1.367 . S
C1014 C1012 1.403 . S
C1014 H1035 0.929 . S
C1015 C1016 1.430 . S
C1015 C1017 1.387 . S
C1015 C1021 1.404 . S
C1016 C1009 1.448 . S
C1016 C1015 1.430 . S
C1016 N1020 1.351 . S
C1017 C1015 1.387 . S
C1017 C1018 1.374 . S
C1017 H1032 0.931 . S
C1018 C1012 1.439 . S
C1018 C1017 1.374 . S
C1018 H1033 0.931 . S
Eu1019 N1010 2.600 . S
Eu1019 N1020 2.562 . S
Eu1019 O1054 2.335 . S
Eu1019 O1057 2.372 . S
Eu1019 O1058 2.462 . S
Eu1019 O1059 2.373 . S
Eu1019 O1061 2.432 . S
Eu1019 O1062 2.291 . S
Eu1019 C1083 2.787 . S
N1020 C1016 1.351 . S
N1020 Eu1019 2.562 . S
N1020 C1022 1.325 . S
C1021 C1015 1.404 . S
C1021 C1023 1.366 . S
C1021 H1029 0.930 . S
C1022 N1020 1.325 . S
C1022 C1023 1.416 . S
C1022 H1028 0.929 . S
C1023 C1021 1.366 . S
C1023 C1022 1.416 . S
C1023 H1025 0.930 . S
H1024 C1013 0.930 . S
H1025 C1023 0.930 . S
H1026 C1041 0.930 . S
H1027 C1048 0.930 . S
H1028 C1022 0.929 . S
H1029 C1021 0.930 . S
H1030 C1044 0.929 . S
H1031 C1011 0.931 . S
H1032 C1017 0.931 . S
H1033 C1018 0.931 . S
H1034 C1039 0.931 . S
H1035 C1014 0.929 . S
H1036 C1047 0.930 . S
N1037 Eu1008 2.600 . S
N1037 C1038 1.365 . S
N1037 C1041 1.319 . S
C1038 N1037 1.365 . S
C1038 C1040 1.405 . S
C1038 C1046 1.448 . S
C1039 H1034 0.931 . S
C1039 C1041 1.397 . S
C1039 C1042 1.367 . S
C1040 C1038 1.405 . S
C1040 C1042 1.403 . S
C1040 C1073 1.439 . S
C1041 H1026 0.930 . S
C1041 N1037 1.319 . S
C1041 C1039 1.397 . S
C1042 C1039 1.367 . S
C1042 C1040 1.403 . S
C1042 H1049 0.929 . S
N1043 Eu1008 2.562 . S
N1043 C1044 1.325 . S
N1043 C1046 1.351 . S
C1044 H1030 0.929 . S
C1044 N1043 1.325 . S
C1044 C1048 1.416 . S
C1045 C1046 1.430 . S
C1045 C1047 1.404 . S
C1045 C1074 1.387 . S
C1046 C1038 1.448 . S
C1046 N1043 1.351 . S
C1046 C1045 1.430 . S
C1047 H1036 0.930 . S
C1047 C1045 1.404 . S
C1047 C1048 1.366 . S
C1048 H1027 0.930 . S
C1048 C1044 1.416 . S
C1048 C1047 1.366 . S
H1049 C1042 0.929 . S
H1050 C1073 0.931 . S
H1051 C1074 0.931 . S
O1052 Eu1008 2.462 . S
O1052 C1072 1.252 . S
O1053 Eu1008 2.373 . S
O1053 C1064 1.249 . S
O1054 Eu1019 2.335 . S
O1054 C1064 1.264 . S
O1055 Eu1008 2.432 . S
O1055 C1072 1.268 . S
O1056 Eu1008 2.291 . S
O1056 C1071 1.255 . S
O1057 Eu1019 2.372 . S
O1057 C1071 1.257 . S
O1058 Eu1019 2.462 . S
O1058 C1083 1.252 . S
O1059 Eu1019 2.373 . S
O1059 C1075 1.249 . S
O1060 Eu1008 2.335 . S
O1060 C1075 1.264 . S
O1061 Eu1019 2.432 . S
O1061 C1083 1.268 . S
O1062 Eu1019 2.291 . S
O1062 C1082 1.255 . S
O1063 Eu1008 2.372 . S
O1063 C1082 1.257 . S
C1064 O1053 1.249 . S
C1064 O1054 1.264 . S
C1065 C1068 1.382 . S
C1065 C1070 1.390 . S
C1065 C1072 1.506 . S
C1066 C1067 1.398 . S
C1066 C1070 1.392 . S
C1067 C1066 1.398 . S
C1067 C1069 1.372 . S
C1067 H1084 0.931 . S
C1068 C1065 1.382 . S
C1068 C1069 1.390 . S
C1068 H1085 0.931 . S
C1069 C1067 1.372 . S
C1069 C1068 1.390 . S
C1069 H1086 0.929 . S
C1070 C1065 1.390 . S
C1070 C1066 1.392 . S
C1070 H1087 0.930 . S
C1071 O1056 1.255 . S
C1071 O1057 1.257 . S
C1072 Eu1008 2.787 . S
C1072 O1052 1.252 . S
C1072 O1055 1.268 . S
C1072 C1065 1.506 . S
C1073 C1040 1.439 . S
C1073 H1050 0.931 . S
C1073 C1074 1.374 . S
C1074 C1045 1.387 . S
C1074 H1051 0.931 . S
C1074 C1073 1.374 . S
C1075 O1059 1.249 . S
C1075 O1060 1.264 . S
C1076 C1079 1.382 . S
C1076 C1080 1.390 . S
C1076 C1083 1.506 . S
C1077 C1078 1.398 . S
C1077 C1080 1.392 . S
C1078 C1077 1.398 . S
C1078 C1081 1.372 . S
C1078 H1088 0.931 . S
C1079 C1076 1.382 . S
C1079 C1081 1.390 . S
C1079 H1089 0.931 . S
C1080 C1076 1.390 . S
C1080 C1077 1.392 . S
C1080 H1090 0.930 . S
C1081 C1078 1.372 . S
C1081 C1079 1.390 . S
C1081 H1091 0.929 . S
C1082 O1062 1.255 . S
C1082 O1063 1.257 . S
C1083 Eu1019 2.787 . S
C1083 O1058 1.252 . S
C1083 O1061 1.268 . S
C1083 C1076 1.506 . S
H1084 C1067 0.931 . S
H1085 C1068 0.931 . S
H1086 C1069 0.929 . S
H1087 C1070 0.930 . S
H1088 C1078 0.931 . S
H1089 C1079 0.931 . S
H1090 C1080 0.930 . S
H1091 C1081 0.929 . S
Eu1092 N1121 2.600 1_655 S
Eu1092 N1127 2.562 1_565 S
Eu1092 O1136 2.462 1_565 S
Eu1092 O1137 2.373 . S
Eu1092 O1139 2.432 . S
Eu1092 O1140 2.291 1_565 S
Eu1092 O1144 2.335 . S
Eu1092 O1147 2.372 . S
Eu1092 C1156 2.787 1_565 S
C1093 N1094 1.365 . S
C1093 C1096 1.405 . S
C1093 C1100 1.448 . S
N1094 C1093 1.365 . S
N1094 C1097 1.319 . S
N1094 Eu1103 2.600 . S
C1095 C1097 1.397 . S
C1095 C1098 1.367 . S
C1095 H1115 0.931 1_565 S
C1096 C1093 1.405 . S
C1096 C1098 1.403 . S
C1096 C1102 1.439 . S
C1097 N1094 1.319 . S
C1097 C1095 1.397 . S
C1097 H1108 0.930 . S
C1098 C1095 1.367 . S
C1098 C1096 1.403 . S
C1098 H1119 0.929 . S
C1099 C1100 1.430 . S
C1099 C1101 1.387 . S
C1099 C1105 1.404 . S
C1100 C1093 1.448 . S
C1100 C1099 1.430 . S
C1100 N1104 1.351 . S
C1101 C1099 1.387 . S
C1101 C1102 1.374 . S
C1101 H1116 0.931 . S
C1102 C1096 1.439 . S
C1102 C1101 1.374 . S
C1102 H1117 0.931 . S
Eu1103 N1094 2.600 . S
Eu1103 N1104 2.562 . S
Eu1103 O1138 2.335 . S
Eu1103 O1141 2.372 . S
Eu1103 O1142 2.462 . S
Eu1103 O1143 2.373 . S
Eu1103 O1145 2.432 . S
Eu1103 O1146 2.291 . S
Eu1103 C1167 2.787 . S
N1104 C1100 1.351 . S
N1104 Eu1103 2.562 . S
N1104 C1106 1.325 . S
C1105 C1099 1.404 . S
C1105 C1107 1.366 . S
C1105 H1113 0.930 . S
C1106 N1104 1.325 . S
C1106 C1107 1.416 . S
C1106 H1112 0.929 . S
C1107 C1105 1.366 . S
C1107 C1106 1.416 . S
C1107 H1109 0.930 . S
H1108 C1097 0.930 . S
H1109 C1107 0.930 . S
H1110 C1125 0.930 . S
H1111 C1132 0.930 . S
H1112 C1106 0.929 . S
H1113 C1105 0.930 . S
H1114 C1128 0.929 . S
H1115 C1095 0.931 1_545 S
H1116 C1101 0.931 . S
H1117 C1102 0.931 . S
H1118 C1123 0.931 . S
H1119 C1098 0.929 . S
H1120 C1131 0.930 . S
N1121 Eu1092 2.600 1_455 S
N1121 C1122 1.365 . S
N1121 C1125 1.319 . S
C1122 N1121 1.365 . S
C1122 C1124 1.405 . S
C1122 C1130 1.448 1_465 S
C1123 H1118 0.931 . S
C1123 C1125 1.397 . S
C1123 C1126 1.367 . S
C1124 C1122 1.405 . S
C1124 C1126 1.403 . S
C1124 C1157 1.439 1_565 S
C1125 H1110 0.930 . S
C1125 N1121 1.319 . S
C1125 C1123 1.397 . S
C1126 C1123 1.367 . S
C1126 C1124 1.403 . S
C1126 H1133 0.929 . S
N1127 Eu1092 2.562 1_545 S
N1127 C1128 1.325 . S
N1127 C1130 1.351 . S
C1128 H1114 0.929 . S
C1128 N1127 1.325 . S
C1128 C1132 1.416 . S
C1129 C1130 1.430 1_455 S
C1129 C1131 1.404 1_455 S
C1129 C1158 1.387 . S
C1130 C1122 1.448 1_645 S
C1130 N1127 1.351 . S
C1130 C1129 1.430 1_655 S
C1131 H1120 0.930 . S
C1131 C1129 1.404 1_655 S
C1131 C1132 1.366 . S
C1132 H1111 0.930 . S
C1132 C1128 1.416 . S
C1132 C1131 1.366 . S
H1133 C1126 0.929 . S
H1134 C1157 0.931 . S
H1135 C1158 0.931 . S
O1136 Eu1092 2.462 1_545 S
O1136 C1156 1.252 . S
O1137 Eu1092 2.373 . S
O1137 C1148 1.249 . S
O1138 Eu1103 2.335 . S
O1138 C1148 1.264 . S
O1139 Eu1092 2.432 . S
O1139 C1156 1.268 1_565 S
O1140 Eu1092 2.291 1_545 S
O1140 C1155 1.255 . S
O1141 Eu1103 2.372 . S
O1141 C1155 1.257 1_565 S
O1142 Eu1103 2.462 . S
O1142 C1167 1.252 . S
O1143 Eu1103 2.373 . S
O1143 C1159 1.249 . S
O1144 Eu1092 2.335 . S
O1144 C1159 1.264 . S
O1145 Eu1103 2.432 . S
O1145 C1167 1.268 . S
O1146 Eu1103 2.291 . S
O1146 C1166 1.255 . S
O1147 Eu1092 2.372 . S
O1147 C1166 1.257 . S
C1148 O1137 1.249 . S
C1148 O1138 1.264 . S
C1149 C1152 1.382 . S
C1149 C1154 1.390 . S
C1149 C1156 1.506 1_455 S
C1150 C1151 1.398 . S
C1150 C1154 1.392 . S
C1151 C1150 1.398 . S
C1151 C1153 1.372 . S
C1151 H1168 0.931 . S
C1152 C1149 1.382 . S
C1152 C1153 1.390 . S
C1152 H1169 0.931 1_545 S
C1153 C1151 1.372 . S
C1153 C1152 1.390 . S
C1153 H1170 0.929 . S
C1154 C1149 1.390 . S
C1154 C1150 1.392 . S
C1154 H1171 0.930 1_455 S
C1155 O1140 1.255 . S
C1155 O1141 1.257 1_545 S
C1156 Eu1092 2.787 1_545 S
C1156 O1136 1.252 . S
C1156 O1139 1.268 1_545 S
C1156 C1149 1.506 1_655 S
C1157 C1124 1.439 1_545 S
C1157 H1134 0.931 . S
C1157 C1158 1.374 . S
C1158 C1129 1.387 . S
C1158 H1135 0.931 . S
C1158 C1157 1.374 . S
C1159 O1143 1.249 . S
C1159 O1144 1.264 . S
C1160 C1163 1.382 . S
C1160 C1164 1.390 . S
C1160 C1167 1.506 . S
C1161 C1162 1.398 . S
C1161 C1164 1.392 . S
C1162 C1161 1.398 . S
C1162 C1165 1.372 . S
C1162 H1172 0.931 . S
C1163 C1160 1.382 . S
C1163 C1165 1.390 . S
C1163 H1173 0.931 . S
C1164 C1160 1.390 . S
C1164 C1161 1.392 . S
C1164 H1174 0.930 . S
C1165 C1162 1.372 . S
C1165 C1163 1.390 . S
C1165 H1175 0.929 . S
C1166 O1146 1.255 . S
C1166 O1147 1.257 . S
C1167 Eu1103 2.787 . S
C1167 O1142 1.252 . S
C1167 O1145 1.268 . S
C1167 C1160 1.506 . S
H1168 C1151 0.931 . S
H1169 C1152 0.931 1_565 S
H1170 C1153 0.929 . S
H1171 C1154 0.930 1_655 S
H1172 C1162 0.931 . S
H1173 C1163 0.931 . S
H1174 C1164 0.930 . S
H1175 C1165 0.929 . S
Eu1176 N1205 2.600 . S
Eu1176 N1211 2.562 . S
Eu1176 O1220 2.462 . S
Eu1176 O1221 2.373 . S
Eu1176 O1223 2.432 . S
Eu1176 O1224 2.291 . S
Eu1176 O1228 2.335 . S
Eu1176 O1231 2.372 . S
Eu1176 C1240 2.787 . S
C1177 N1178 1.365 . S
C1177 C1180 1.405 . S
C1177 C1184 1.448 . S
N1178 C1177 1.365 . S
N1178 C1181 1.319 . S
N1178 Eu1187 2.600 . S
C1179 C1181 1.397 . S
C1179 C1182 1.367 . S
C1179 H1199 0.931 . S
C1180 C1177 1.405 . S
C1180 C1182 1.403 . S
C1180 C1186 1.439 . S
C1181 N1178 1.319 . S
C1181 C1179 1.397 . S
C1181 H1192 0.930 . S
C1182 C1179 1.367 . S
C1182 C1180 1.403 . S
C1182 H1203 0.929 . S
C1183 C1184 1.430 . S
C1183 C1185 1.387 . S
C1183 C1189 1.404 . S
C1184 C1177 1.448 . S
C1184 C1183 1.430 . S
C1184 N1188 1.351 . S
C1185 C1183 1.387 . S
C1185 C1186 1.374 . S
C1185 H1200 0.931 . S
C1186 C1180 1.439 . S
C1186 C1185 1.374 . S
C1186 H1201 0.931 . S
Eu1187 N1178 2.600 . S
Eu1187 N1188 2.562 . S
Eu1187 O1222 2.335 . S
Eu1187 O1225 2.372 . S
Eu1187 O1226 2.462 . S
Eu1187 O1227 2.373 . S
Eu1187 O1229 2.432 . S
Eu1187 O1230 2.291 . S
Eu1187 C1251 2.787 . S
N1188 C1184 1.351 . S
N1188 Eu1187 2.562 . S
N1188 C1190 1.325 . S
C1189 C1183 1.404 . S
C1189 C1191 1.366 . S
C1189 H1197 0.930 . S
C1190 N1188 1.325 . S
C1190 C1191 1.416 . S
C1190 H1196 0.929 . S
C1191 C1189 1.366 . S
C1191 C1190 1.416 . S
C1191 H1193 0.930 . S
H1192 C1181 0.930 . S
H1193 C1191 0.930 . S
H1194 C1209 0.930 . S
H1195 C1216 0.930 . S
H1196 C1190 0.929 . S
H1197 C1189 0.930 . S
H1198 C1212 0.929 . S
H1199 C1179 0.931 . S
H1200 C1185 0.931 . S
H1201 C1186 0.931 . S
H1202 C1207 0.931 . S
H1203 C1182 0.929 . S
H1204 C1215 0.930 . S
N1205 Eu1176 2.600 . S
N1205 C1206 1.365 . S
N1205 C1209 1.319 . S
C1206 N1205 1.365 . S
C1206 C1208 1.405 . S
C1206 C1214 1.448 . S
C1207 H1202 0.931 . S
C1207 C1209 1.397 . S
C1207 C1210 1.367 . S
C1208 C1206 1.405 . S
C1208 C1210 1.403 . S
C1208 C1241 1.439 . S
C1209 H1194 0.930 . S
C1209 N1205 1.319 . S
C1209 C1207 1.397 . S
C1210 C1207 1.367 . S
C1210 C1208 1.403 . S
C1210 H1217 0.929 . S
N1211 Eu1176 2.562 . S
N1211 C1212 1.325 . S
N1211 C1214 1.351 . S
C1212 H1198 0.929 . S
C1212 N1211 1.325 . S
C1212 C1216 1.416 . S
C1213 C1214 1.430 . S
C1213 C1215 1.404 . S
C1213 C1242 1.387 . S
C1214 C1206 1.448 . S
C1214 N1211 1.351 . S
C1214 C1213 1.430 . S
C1215 H1204 0.930 . S
C1215 C1213 1.404 . S
C1215 C1216 1.366 . S
C1216 H1195 0.930 . S
C1216 C1212 1.416 . S
C1216 C1215 1.366 . S
H1217 C1210 0.929 . S
H1218 C1241 0.931 . S
H1219 C1242 0.931 . S
O1220 Eu1176 2.462 . S
O1220 C1240 1.252 . S
O1221 Eu1176 2.373 . S
O1221 C1232 1.249 . S
O1222 Eu1187 2.335 . S
O1222 C1232 1.264 . S
O1223 Eu1176 2.432 . S
O1223 C1240 1.268 . S
O1224 Eu1176 2.291 . S
O1224 C1239 1.255 . S
O1225 Eu1187 2.372 . S
O1225 C1239 1.257 . S
O1226 Eu1187 2.462 . S
O1226 C1251 1.252 . S
O1227 Eu1187 2.373 . S
O1227 C1243 1.249 . S
O1228 Eu1176 2.335 . S
O1228 C1243 1.264 . S
O1229 Eu1187 2.432 . S
O1229 C1251 1.268 . S
O1230 Eu1187 2.291 . S
O1230 C1250 1.255 . S
O1231 Eu1176 2.372 . S
O1231 C1250 1.257 . S
C1232 O1221 1.249 . S
C1232 O1222 1.264 . S
C1233 C1236 1.382 . S
C1233 C1238 1.390 . S
C1233 C1240 1.506 . S
C1234 C1235 1.398 . S
C1234 C1238 1.392 . S
C1235 C1234 1.398 . S
C1235 C1237 1.372 . S
C1235 H1252 0.931 . S
C1236 C1233 1.382 . S
C1236 C1237 1.390 . S
C1236 H1253 0.931 . S
C1237 C1235 1.372 . S
C1237 C1236 1.390 . S
C1237 H1254 0.929 . S
C1238 C1233 1.390 . S
C1238 C1234 1.392 . S
C1238 H1255 0.930 . S
C1239 O1224 1.255 . S
C1239 O1225 1.257 . S
C1240 Eu1176 2.787 . S
C1240 O1220 1.252 . S
C1240 O1223 1.268 . S
C1240 C1233 1.506 . S
C1241 C1208 1.439 . S
C1241 H1218 0.931 . S
C1241 C1242 1.374 . S
C1242 C1213 1.387 . S
C1242 H1219 0.931 . S
C1242 C1241 1.374 . S
C1243 O1227 1.249 . S
C1243 O1228 1.264 . S
C1244 C1247 1.382 . S
C1244 C1248 1.390 . S
C1244 C1251 1.506 . S
C1245 C1246 1.398 . S
C1245 C1248 1.392 . S
C1246 C1245 1.398 . S
C1246 C1249 1.372 . S
C1246 H1256 0.929 1_556 S
C1247 C1244 1.382 . S
C1247 C1249 1.390 . S
C1247 H1257 0.931 . S
C1248 C1244 1.390 . S
C1248 C1245 1.392 . S
C1248 H1258 0.930 . S
C1249 C1246 1.372 . S
C1249 C1247 1.390 . S
C1249 H1259 0.929 . S
C1250 O1230 1.255 . S
C1250 O1231 1.257 . S
C1251 Eu1187 2.787 . S
C1251 O1226 1.252 . S
C1251 O1229 1.268 . S
C1251 C1244 1.506 . S
H1252 C1235 0.931 . S
H1253 C1236 0.931 . S
H1254 C1237 0.929 . S
H1255 C1238 0.930 . S
H1256 C1246 0.929 1_554 S
H1257 C1247 0.931 . S
H1258 C1248 0.930 . S
H1259 C1249 0.929 . S
Eu1260 N1289 2.600 . S
Eu1260 N1295 2.562 1_545 S
Eu1260 O1304 2.462 1_545 S
Eu1260 O1305 2.373 . S
Eu1260 O1307 2.432 . S
Eu1260 O1308 2.291 1_545 S
Eu1260 O1312 2.335 . S
Eu1260 O1315 2.372 . S
Eu1260 C1324 2.787 1_545 S
C1261 N1262 1.365 . S
C1261 C1264 1.405 . S
C1261 C1268 1.448 . S
N1262 C1261 1.365 . S
N1262 C1265 1.319 . S
N1262 Eu1271 2.600 . S
C1263 C1265 1.397 . S
C1263 C1266 1.367 . S
C1263 H1283 0.931 1_545 S
C1264 C1261 1.405 . S
C1264 C1266 1.403 . S
C1264 C1270 1.439 . S
C1265 N1262 1.319 . S
C1265 C1263 1.397 . S
C1265 H1276 0.930 . S
C1266 C1263 1.367 . S
C1266 C1264 1.403 . S
C1266 H1287 0.929 . S
C1267 C1268 1.430 . S
C1267 C1269 1.387 . S
C1267 C1273 1.404 . S
C1268 C1261 1.448 . S
C1268 C1267 1.430 . S
C1268 N1272 1.351 . S
C1269 C1267 1.387 . S
C1269 C1270 1.374 . S
C1269 H1284 0.931 . S
C1270 C1264 1.439 . S
C1270 C1269 1.374 . S
C1270 H1285 0.931 . S
Eu1271 N1262 2.600 . S
Eu1271 N1272 2.562 . S
Eu1271 O1306 2.335 . S
Eu1271 O1309 2.372 . S
Eu1271 O1310 2.462 . S
Eu1271 O1311 2.373 . S
Eu1271 O1313 2.432 . S
Eu1271 O1314 2.291 . S
Eu1271 C1335 2.787 . S
N1272 C1268 1.351 . S
N1272 Eu1271 2.562 . S
N1272 C1274 1.325 . S
C1273 C1267 1.404 . S
C1273 C1275 1.366 . S
C1273 H1281 0.930 . S
C1274 N1272 1.325 . S
C1274 C1275 1.416 . S
C1274 H1280 0.929 . S
C1275 C1273 1.366 . S
C1275 C1274 1.416 . S
C1275 H1277 0.930 . S
H1276 C1265 0.930 . S
H1277 C1275 0.930 . S
H1278 C1293 0.930 . S
H1279 C1300 0.930 . S
H1280 C1274 0.929 . S
H1281 C1273 0.930 . S
H1282 C1296 0.929 . S
H1283 C1263 0.931 1_565 S
H1284 C1269 0.931 . S
H1285 C1270 0.931 . S
H1286 C1291 0.931 . S
H1287 C1266 0.929 . S
H1288 C1299 0.930 . S
N1289 Eu1260 2.600 . S
N1289 C1290 1.365 . S
N1289 C1293 1.319 . S
C1290 N1289 1.365 . S
C1290 C1292 1.405 . S
C1290 C1298 1.448 1_545 S
C1291 H1286 0.931 . S
C1291 C1293 1.397 . S
C1291 C1294 1.367 . S
C1292 C1290 1.405 . S
C1292 C1294 1.403 . S
C1292 C1325 1.439 1_545 S
C1293 H1278 0.930 . S
C1293 N1289 1.319 . S
C1293 C1291 1.397 . S
C1294 C1291 1.367 . S
C1294 C1292 1.403 . S
C1294 H1301 0.929 . S
N1295 Eu1260 2.562 1_565 S
N1295 C1296 1.325 . S
N1295 C1298 1.351 . S
C1296 H1282 0.929 . S
C1296 N1295 1.325 . S
C1296 C1300 1.416 . S
C1297 C1298 1.430 . S
C1297 C1299 1.404 . S
C1297 C1326 1.387 . S
C1298 C1290 1.448 1_565 S
C1298 N1295 1.351 . S
C1298 C1297 1.430 . S
C1299 H1288 0.930 . S
C1299 C1297 1.404 . S
C1299 C1300 1.366 . S
C1300 H1279 0.930 . S
C1300 C1296 1.416 . S
C1300 C1299 1.366 . S
H1301 C1294 0.929 . S
H1302 C1325 0.931 . S
H1303 C1326 0.931 . S
O1304 Eu1260 2.462 1_565 S
O1304 C1324 1.252 . S
O1305 Eu1260 2.373 . S
O1305 C1316 1.249 . S
O1306 Eu1271 2.335 . S
O1306 C1316 1.264 . S
O1307 Eu1260 2.432 . S
O1307 C1324 1.268 1_545 S
O1308 Eu1260 2.291 1_565 S
O1308 C1323 1.255 . S
O1309 Eu1271 2.372 . S
O1309 C1323 1.257 1_545 S
O1310 Eu1271 2.462 . S
O1310 C1335 1.252 . S
O1311 Eu1271 2.373 . S
O1311 C1327 1.249 . S
O1312 Eu1260 2.335 . S
O1312 C1327 1.264 . S
O1313 Eu1271 2.432 . S
O1313 C1335 1.268 . S
O1314 Eu1271 2.291 . S
O1314 C1334 1.255 . S
O1315 Eu1260 2.372 . S
O1315 C1334 1.257 . S
C1316 O1305 1.249 . S
C1316 O1306 1.264 . S
C1317 C1320 1.382 . S
C1317 C1322 1.390 . S
C1317 C1324 1.506 . S
C1318 C1319 1.398 . S
C1318 C1322 1.392 . S
C1319 C1318 1.398 . S
C1319 C1321 1.372 . S
C1319 H1336 0.931 . S
C1320 C1317 1.382 . S
C1320 C1321 1.390 . S
C1320 H1337 0.931 1_565 S
C1321 C1319 1.372 . S
C1321 C1320 1.390 . S
C1321 H1338 0.929 . S
C1322 C1317 1.390 . S
C1322 C1318 1.392 . S
C1322 H1339 0.930 . S
C1323 O1308 1.255 . S
C1323 O1309 1.257 1_565 S
C1324 Eu1260 2.787 1_565 S
C1324 O1304 1.252 . S
C1324 O1307 1.268 1_565 S
C1324 C1317 1.506 . S
C1325 C1292 1.439 1_565 S
C1325 H1302 0.931 . S
C1325 C1326 1.374 . S
C1326 C1297 1.387 . S
C1326 H1303 0.931 . S
C1326 C1325 1.374 . S
C1327 O1311 1.249 . S
C1327 O1312 1.264 . S
C1328 C1331 1.382 . S
C1328 C1332 1.390 . S
C1328 C1335 1.506 . S
C1329 C1330 1.398 . S
C1329 C1332 1.392 . S
C1330 C1329 1.398 . S
C1330 C1333 1.372 . S
C1330 H1340 0.931 . S
C1331 C1328 1.382 . S
C1331 C1333 1.390 . S
C1331 H1341 0.931 . S
C1332 C1328 1.390 . S
C1332 C1329 1.392 . S
C1332 H1342 0.930 . S
C1333 C1330 1.372 . S
C1333 C1331 1.390 . S
C1333 H1343 0.929 . S
C1334 O1314 1.255 . S
C1334 O1315 1.257 . S
C1335 Eu1271 2.787 . S
C1335 O1310 1.252 . S
C1335 O1313 1.268 . S
C1335 C1328 1.506 . S
H1336 C1319 0.931 . S
H1337 C1320 0.931 1_545 S
H1338 C1321 0.929 . S
H1339 C1322 0.930 . S
H1340 C1330 0.931 . S
H1341 C1331 0.931 . S
H1342 C1332 0.930 . S
H1343 C1333 0.929 . S
H1344 C1352 0.950 . S
H1345 C1357 0.950 . S
H1346 C1354 0.950 . S
H1347 C1356 0.950 . S
H1348 C1358 0.950 . S
H1349 C1360 0.950 . S
H1350 C1362 0.950 . S
H1351 C1363 0.950 . S
C1352 H1344 0.950 . S
C1352 C1353 1.386 . S
C1352 C1354 1.391 . S
C1353 C1352 1.386 . S
C1353 C1357 1.393 . S
C1354 H1346 0.950 . S
C1354 C1352 1.391 . S
C1354 C1355 1.400 . S
C1355 C1354 1.400 . S
C1355 C1356 1.398 . S
C1355 C1361 1.491 . S
C1356 H1347 0.950 . S
C1356 C1355 1.398 . S
C1356 C1357 1.391 . S
C1357 H1345 0.950 . S
C1357 C1353 1.393 . S
C1357 C1356 1.391 . S
C1358 H1348 0.950 . S
C1358 C1359 1.386 . S
C1358 C1360 1.391 . S
C1359 C1358 1.386 . S
C1359 C1363 1.393 . S
C1360 H1349 0.950 . S
C1360 C1358 1.391 . S
C1360 C1361 1.400 . S
C1361 C1355 1.491 . S
C1361 C1360 1.400 . S
C1361 C1362 1.398 . S
C1362 H1350 0.950 . S
C1362 C1361 1.398 . S
C1362 C1363 1.391 . S
C1363 H1351 0.950 . S
C1363 C1359 1.393 . S
C1363 C1362 1.391 . S
H1364 C1372 0.950 . S
H1365 C1377 0.950 . S
H1366 C1374 0.950 . S
H1367 C1376 0.950 . S
H1368 C1378 0.950 . S
H1369 C1380 0.950 . S
H1370 C1382 0.950 . S
H1371 C1383 0.950 . S
C1372 H1364 0.950 . S
C1372 C1373 1.386 . S
C1372 C1374 1.391 . S
C1373 C1372 1.386 . S
C1373 C1377 1.393 . S
C1374 H1366 0.950 . S
C1374 C1372 1.391 . S
C1374 C1375 1.400 . S
C1375 C1374 1.400 . S
C1375 C1376 1.398 . S
C1375 C1381 1.491 . S
C1376 H1367 0.950 . S
C1376 C1375 1.398 . S
C1376 C1377 1.391 . S
C1377 H1365 0.950 . S
C1377 C1373 1.393 . S
C1377 C1376 1.391 . S
C1378 H1368 0.950 . S
C1378 C1379 1.386 . S
C1378 C1380 1.391 . S
C1379 C1378 1.386 . S
C1379 C1383 1.393 . S
C1380 H1369 0.950 . S
C1380 C1378 1.391 . S
C1380 C1381 1.400 . S
C1381 C1375 1.491 . S
C1381 C1380 1.400 . S
C1381 C1382 1.398 . S
C1382 H1370 0.950 . S
C1382 C1381 1.398 . S
C1382 C1383 1.391 . S
C1383 H1371 0.950 . S
C1383 C1379 1.393 . S
C1383 C1382 1.391 . S
H1384 C1392 0.950 . S
H1385 C1397 0.950 . S
H1386 C1394 0.950 . S
H1387 C1396 0.950 . S
H1388 C1398 0.950 . S
H1389 C1400 0.950 . S
H1390 C1402 0.950 . S
H1391 C1403 0.950 . S
C1392 H1384 0.950 . S
C1392 C1393 1.386 . S
C1392 C1394 1.391 . S
C1393 C1392 1.386 . S
C1393 C1397 1.393 . S
C1394 H1386 0.950 . S
C1394 C1392 1.391 . S
C1394 C1395 1.400 . S
C1395 C1394 1.400 . S
C1395 C1396 1.398 . S
C1395 C1401 1.491 1_455 S
C1396 H1387 0.950 . S
C1396 C1395 1.398 . S
C1396 C1397 1.391 . S
C1397 H1385 0.950 . S
C1397 C1393 1.393 . S
C1397 C1396 1.391 . S
C1398 H1388 0.950 . S
C1398 C1399 1.386 . S
C1398 C1400 1.391 . S
C1399 C1398 1.386 . S
C1399 C1403 1.393 . S
C1400 H1389 0.950 . S
C1400 C1398 1.391 . S
C1400 C1401 1.400 . S
C1401 C1395 1.491 1_655 S
C1401 C1400 1.400 . S
C1401 C1402 1.398 . S
C1402 H1390 0.950 . S
C1402 C1401 1.398 . S
C1402 C1403 1.391 . S
C1403 H1391 0.950 . S
C1403 C1399 1.393 . S
C1403 C1402 1.391 . S
H1404 C1412 0.950 1_655 S
H1405 C1417 0.950 . S
H1406 C1414 0.950 . S
H1407 C1416 0.950 . S
H1408 C1418 0.950 1_455 S
H1409 C1420 0.950 . S
H1410 C1422 0.950 . S
H1411 C1423 0.950 . S
C1412 H1404 0.950 1_455 S
C1412 C1413 1.386 . S
C1412 C1414 1.391 1_455 S
C1413 C1412 1.386 . S
C1413 C1417 1.393 . S
C1414 H1406 0.950 . S
C1414 C1412 1.391 1_655 S
C1414 C1415 1.400 1_655 S
C1415 C1414 1.400 1_455 S
C1415 C1416 1.398 . S
C1415 C1421 1.491 1_455 S
C1416 H1407 0.950 . S
C1416 C1415 1.398 . S
C1416 C1417 1.391 . S
C1417 H1405 0.950 . S
C1417 C1413 1.393 . S
C1417 C1416 1.391 . S
C1418 H1408 0.950 1_655 S
C1418 C1419 1.386 . S
C1418 C1420 1.391 1_655 S
C1419 C1418 1.386 . S
C1419 C1423 1.393 . S
C1420 H1409 0.950 . S
C1420 C1418 1.391 1_455 S
C1420 C1421 1.400 1_455 S
C1421 C1415 1.491 1_655 S
C1421 C1420 1.400 1_655 S
C1421 C1422 1.398 . S
C1422 H1410 0.950 . S
C1422 C1421 1.398 . S
C1422 C1423 1.391 . S
C1423 H1411 0.950 . S
C1423 C1419 1.393 . S
C1423 C1422 1.391 . S
H1424 C1432 0.950 . S
H1425 C1437 0.950 . S
H1426 C1434 0.950 . S
H1427 C1436 0.950 . S
H1428 C1438 0.950 . S
H1429 C1440 0.950 . S
H1430 C1442 0.950 . S
H1431 C1443 0.950 . S
C1432 H1424 0.950 . S
C1432 C1433 1.386 . S
C1432 C1434 1.391 . S
C1433 C1432 1.386 . S
C1433 C1437 1.393 . S
C1434 H1426 0.950 . S
C1434 C1432 1.391 . S
C1434 C1435 1.400 . S
C1435 C1434 1.400 . S
C1435 C1436 1.398 . S
C1435 C1441 1.491 . S
C1436 H1427 0.950 . S
C1436 C1435 1.398 . S
C1436 C1437 1.391 . S
C1437 H1425 0.950 . S
C1437 C1433 1.393 . S
C1437 C1436 1.391 . S
C1438 H1428 0.950 . S
C1438 C1439 1.386 . S
C1438 C1440 1.391 . S
C1439 C1438 1.386 . S
C1439 C1443 1.393 . S
C1440 H1429 0.950 . S
C1440 C1438 1.391 . S
C1440 C1441 1.400 . S
C1441 C1435 1.491 . S
C1441 C1440 1.400 . S
C1441 C1442 1.398 . S
C1442 H1430 0.950 . S
C1442 C1441 1.398 . S
C1442 C1443 1.391 . S
C1443 H1431 0.950 . S
C1443 C1439 1.393 . S
C1443 C1442 1.391 . S
H1444 C1452 0.950 . S
H1445 C1457 0.950 . S
H1446 C1454 0.950 . S
H1447 C1456 0.950 . S
H1448 C1458 0.950 . S
H1449 C1460 0.950 . S
H1450 C1462 0.950 . S
H1451 C1463 0.950 . S
C1452 H1444 0.950 . S
C1452 C1453 1.386 . S
C1452 C1454 1.391 . S
C1453 C1452 1.386 . S
C1453 C1457 1.393 . S
C1454 H1446 0.950 . S
C1454 C1452 1.391 . S
C1454 C1455 1.400 . S
C1455 C1454 1.400 . S
C1455 C1456 1.398 . S
C1455 C1461 1.491 . S
C1456 H1447 0.950 . S
C1456 C1455 1.398 . S
C1456 C1457 1.391 . S
C1457 H1445 0.950 . S
C1457 C1453 1.393 . S
C1457 C1456 1.391 . S
C1458 H1448 0.950 . S
C1458 C1459 1.386 . S
C1458 C1460 1.391 . S
C1459 C1458 1.386 . S
C1459 C1463 1.393 . S
C1460 H1449 0.950 . S
C1460 C1458 1.391 . S
C1460 C1461 1.400 . S
C1461 C1455 1.491 . S
C1461 C1460 1.400 . S
C1461 C1462 1.398 . S
C1462 H1450 0.950 . S
C1462 C1461 1.398 . S
C1462 C1463 1.391 . S
C1463 H1451 0.950 . S
C1463 C1459 1.393 . S
C1463 C1462 1.391 . S
H1464 C1472 0.950 . S
H1465 C1477 0.950 . S
H1466 C1474 0.950 . S
H1467 C1476 0.924 1_655 S
H1468 C1478 0.950 . S
H1469 C1480 0.950 . S
H1470 C1482 0.924 1_455 S
H1471 C1483 0.950 . S
C1472 H1464 0.950 . S
C1472 C1473 1.386 . S
C1472 C1474 1.391 . S
C1473 C1472 1.386 . S
C1473 C1477 1.393 . S
C1474 H1466 0.950 . S
C1474 C1472 1.391 . S
C1474 C1475 1.400 . S
C1475 C1474 1.400 . S
C1475 C1476 1.398 . S
C1475 C1481 1.491 1_455 S
C1476 H1467 0.924 1_455 S
C1476 C1475 1.398 . S
C1476 C1477 1.391 . S
C1477 H1465 0.950 . S
C1477 C1473 1.393 . S
C1477 C1476 1.391 . S
C1478 H1468 0.950 . S
C1478 C1479 1.386 . S
C1478 C1480 1.391 . S
C1479 C1478 1.386 . S
C1479 C1483 1.393 . S
C1480 H1469 0.950 . S
C1480 C1478 1.391 . S
C1480 C1481 1.400 . S
C1481 C1475 1.491 1_655 S
C1481 C1480 1.400 . S
C1481 C1482 1.398 . S
C1482 H1470 0.924 1_655 S
C1482 C1481 1.398 . S
C1482 C1483 1.391 . S
C1483 H1471 0.950 . S
C1483 C1479 1.393 . S
C1483 C1482 1.391 . S
H1484 C1492 0.950 1_655 S
H1485 C1497 0.950 . S
H1486 C1494 0.950 . S
H1487 C1496 0.950 . S
H1488 C1498 0.950 1_455 S
H1489 C1500 0.950 . S
H1490 C1502 0.950 . S
H1491 C1503 0.950 . S
C1492 H1484 0.950 1_455 S
C1492 C1493 1.386 . S
C1492 C1494 1.391 1_455 S
C1493 C1492 1.386 . S
C1493 C1497 1.393 . S
C1494 H1486 0.950 . S
C1494 C1492 1.391 1_655 S
C1494 C1495 1.400 1_655 S
C1495 C1494 1.400 1_455 S
C1495 C1496 1.398 . S
C1495 C1501 1.491 1_455 S
C1496 H1487 0.950 . S
C1496 C1495 1.398 . S
C1496 C1497 1.391 . S
C1497 H1485 0.950 . S
C1497 C1493 1.393 . S
C1497 C1496 1.391 . S
C1498 H1488 0.950 1_655 S
C1498 C1499 1.386 . S
C1498 C1500 1.391 1_655 S
C1499 C1498 1.386 . S
C1499 C1503 1.393 . S
C1500 H1489 0.950 . S
C1500 C1498 1.391 1_455 S
C1500 C1501 1.400 1_455 S
C1501 C1495 1.491 1_655 S
C1501 C1500 1.400 1_655 S
C1501 C1502 1.398 . S
C1502 H1490 0.950 . S
C1502 C1501 1.398 . S
C1502 C1503 1.391 . S
C1503 H1491 0.950 . S
C1503 C1499 1.393 . S
C1503 C1502 1.391 . S
H1504 C1512 0.950 1_565 S
H1505 C1517 0.950 . S
H1506 C1514 0.950 . S
H1507 C1516 0.950 . S
H1508 C1518 0.950 1_545 S
H1509 C1520 0.950 . S
H1510 C1522 0.950 . S
H1511 C1523 0.950 . S
C1512 H1504 0.950 1_545 S
C1512 C1513 1.386 1_556 S
C1512 C1514 1.391 1_545 S
C1513 C1512 1.386 1_554 S
C1513 C1517 1.393 . S
C1514 H1506 0.950 . S
C1514 C1512 1.391 1_565 S
C1514 C1515 1.400 1_566 S
C1515 C1514 1.400 1_544 S
C1515 C1516 1.398 . S
C1515 C1521 1.491 1_544 S
C1516 H1507 0.950 . S
C1516 C1515 1.398 . S
C1516 C1517 1.391 . S
C1517 H1505 0.950 . S
C1517 C1513 1.393 . S
C1517 C1516 1.391 . S
C1518 H1508 0.950 1_565 S
C1518 C1519 1.386 1_554 S
C1518 C1520 1.391 1_565 S
C1519 C1518 1.386 1_556 S
C1519 C1523 1.393 . S
C1520 H1509 0.950 . S
C1520 C1518 1.391 1_545 S
C1520 C1521 1.400 1_544 S
C1521 C1515 1.491 1_566 S
C1521 C1520 1.400 1_566 S
C1521 C1522 1.398 . S
C1522 H1510 0.950 . S
C1522 C1521 1.398 . S
C1522 C1523 1.391 . S
C1523 H1511 0.950 . S
C1523 C1519 1.393 . S
C1523 C1522 1.391 . S
H1524 C1532 0.950 . S
H1525 C1537 0.950 . S
H1526 C1534 0.950 . S
H1527 C1536 0.950 . S
H1528 C1538 0.950 . S
H1529 C1540 0.950 . S
H1530 C1542 0.950 . S
H1531 C1543 0.950 . S
C1532 H1524 0.950 . S
C1532 C1533 1.386 . S
C1532 C1534 1.391 . S
C1533 C1532 1.386 . S
C1533 C1537 1.393 . S
C1534 H1526 0.950 . S
C1534 C1532 1.391 . S
C1534 C1535 1.400 . S
C1535 C1534 1.400 . S
C1535 C1536 1.398 . S
C1535 C1541 1.491 . S
C1536 H1527 0.950 . S
C1536 C1535 1.398 . S
C1536 C1537 1.391 . S
C1537 H1525 0.950 . S
C1537 C1533 1.393 . S
C1537 C1536 1.391 . S
C1538 H1528 0.950 . S
C1538 C1539 1.386 . S
C1538 C1540 1.391 . S
C1539 C1538 1.386 . S
C1539 C1543 1.393 . S
C1540 H1529 0.950 . S
C1540 C1538 1.391 . S
C1540 C1541 1.400 . S
C1541 C1535 1.491 . S
C1541 C1540 1.400 . S
C1541 C1542 1.398 . S
C1542 H1530 0.950 . S
C1542 C1541 1.398 . S
C1542 C1543 1.391 . S
C1543 H1531 0.950 . S
C1543 C1539 1.393 . S
C1543 C1542 1.391 . S
H1544 C1552 0.950 . S
H1545 C1557 0.950 . S
H1546 C1554 0.950 . S
H1547 C1556 0.950 . S
H1548 C1558 0.950 . S
H1549 C1560 0.950 . S
H1550 C1562 0.950 . S
H1551 C1563 0.950 . S
C1552 H1544 0.950 . S
C1552 C1553 1.386 . S
C1552 C1554 1.391 . S
C1553 C1552 1.386 . S
C1553 C1557 1.393 . S
C1554 H1546 0.950 . S
C1554 C1552 1.391 . S
C1554 C1555 1.400 . S
C1555 C1554 1.400 . S
C1555 C1556 1.398 1_565 S
C1555 C1561 1.491 1_465 S
C1556 H1547 0.950 . S
C1556 C1555 1.398 1_545 S
C1556 C1557 1.391 1_545 S
C1557 H1545 0.950 . S
C1557 C1553 1.393 . S
C1557 C1556 1.391 1_565 S
C1558 H1548 0.950 . S
C1558 C1559 1.386 . S
C1558 C1560 1.391 . S
C1559 C1558 1.386 . S
C1559 C1563 1.393 . S
C1560 H1549 0.950 . S
C1560 C1558 1.391 . S
C1560 C1561 1.400 . S
C1561 C1555 1.491 1_645 S
C1561 C1560 1.400 . S
C1561 C1562 1.398 1_545 S
C1562 H1550 0.950 . S
C1562 C1561 1.398 1_565 S
C1562 C1563 1.391 1_565 S
C1563 H1551 0.950 . S
C1563 C1559 1.393 . S
C1563 C1562 1.391 1_545 S
H1564 C1572 0.950 . S
H1565 C1577 0.950 . S
H1566 C1574 0.950 . S
H1567 C1576 0.950 . S
H1568 C1578 0.950 . S
H1569 C1580 0.950 . S
H1570 C1582 0.950 . S
H1571 C1583 0.950 . S
C1572 H1564 0.950 . S
C1572 C1573 1.386 . S
C1572 C1574 1.391 . S
C1573 C1572 1.386 . S
C1573 C1577 1.393 . S
C1574 H1566 0.950 . S
C1574 C1572 1.391 . S
C1574 C1575 1.400 . S
C1575 C1574 1.400 . S
C1575 C1576 1.398 . S
C1575 C1581 1.491 . S
C1576 H1567 0.950 . S
C1576 C1575 1.398 . S
C1576 C1577 1.391 . S
C1577 H1565 0.950 . S
C1577 C1573 1.393 . S
C1577 C1576 1.391 . S
C1578 H1568 0.950 . S
C1578 C1579 1.386 . S
C1578 C1580 1.391 . S
C1579 C1578 1.386 . S
C1579 C1583 1.393 . S
C1580 H1569 0.950 . S
C1580 C1578 1.391 . S
C1580 C1581 1.400 . S
C1581 C1575 1.491 . S
C1581 C1580 1.400 . S
C1581 C1582 1.398 . S
C1582 H1570 0.950 . S
C1582 C1581 1.398 . S
C1582 C1583 1.391 . S
C1583 H1571 0.950 . S
C1583 C1579 1.393 . S
C1583 C1582 1.391 . S
H1584 C1592 0.950 . S
H1585 C1597 0.950 . S
H1586 C1594 0.950 . S
H1587 C1596 0.950 . S
H1588 C1598 0.950 . S
H1589 C1600 0.950 . S
H1590 C1602 0.950 . S
H1591 C1603 0.950 . S
C1592 H1584 0.950 . S
C1592 C1593 1.386 . S
C1592 C1594 1.391 . S
C1593 C1592 1.386 . S
C1593 C1597 1.393 . S
C1594 H1586 0.950 . S
C1594 C1592 1.391 . S
C1594 C1595 1.400 . S
C1595 C1594 1.400 . S
C1595 C1596 1.398 . S
C1595 C1601 1.491 . S
C1596 H1587 0.950 . S
C1596 C1595 1.398 . S
C1596 C1597 1.391 . S
C1597 H1585 0.950 . S
C1597 C1593 1.393 . S
C1597 C1596 1.391 . S
C1598 H1588 0.950 . S
C1598 C1599 1.386 . S
C1598 C1600 1.391 . S
C1599 C1598 1.386 . S
C1599 C1603 1.393 . S
C1600 H1589 0.950 . S
C1600 C1598 1.391 . S
C1600 C1601 1.400 . S
C1601 C1595 1.491 . S
C1601 C1600 1.400 . S
C1601 C1602 1.398 . S
C1602 H1590 0.950 . S
C1602 C1601 1.398 . S
C1602 C1603 1.391 . S
C1603 H1591 0.950 . S
C1603 C1599 1.393 . S
C1603 C1602 1.391 . S
H1604 C1612 0.950 . S
H1605 C1617 0.950 . S
H1606 C1614 0.950 . S
H1607 C1616 0.950 . S
H1608 C1618 0.950 . S
H1609 C1620 0.950 . S
H1610 C1622 0.950 . S
H1611 C1623 0.950 . S
C1612 H1604 0.950 . S
C1612 C1613 1.386 . S
C1612 C1614 1.391 . S
C1613 C1612 1.386 . S
C1613 C1617 1.393 . S
C1614 H1606 0.950 . S
C1614 C1612 1.391 . S
C1614 C1615 1.400 . S
C1615 C1614 1.400 . S
C1615 C1616 1.398 . S
C1615 C1621 1.491 . S
C1616 H1607 0.950 . S
C1616 C1615 1.398 . S
C1616 C1617 1.391 . S
C1617 H1605 0.950 . S
C1617 C1613 1.393 . S
C1617 C1616 1.391 . S
C1618 H1608 0.950 . S
C1618 C1619 1.386 . S
C1618 C1620 1.391 . S
C1619 C1618 1.386 . S
C1619 C1623 1.393 . S
C1620 H1609 0.950 . S
C1620 C1618 1.391 . S
C1620 C1621 1.400 . S
C1621 C1615 1.491 . S
C1621 C1620 1.400 . S
C1621 C1622 1.398 . S
C1622 H1610 0.950 . S
C1622 C1621 1.398 . S
C1622 C1623 1.391 . S
C1623 H1611 0.950 . S
C1623 C1619 1.393 . S
C1623 C1622 1.391 . S
H1624 C1632 0.950 . S
H1625 C1637 0.950 . S
H1626 C1634 0.950 . S
H1627 C1636 0.950 . S
H1628 C1638 0.950 . S
H1629 C1640 0.950 . S
H1630 C1642 0.950 . S
H1631 C1643 0.950 . S
C1632 H1624 0.950 . S
C1632 C1633 1.386 . S
C1632 C1634 1.391 . S
C1633 C1632 1.386 . S
C1633 C1637 1.393 . S
C1634 H1626 0.950 . S
C1634 C1632 1.391 . S
C1634 C1635 1.400 . S
C1635 C1634 1.400 . S
C1635 C1636 1.398 . S
C1635 C1641 1.491 1_455 S
C1636 H1627 0.950 . S
C1636 C1635 1.398 . S
C1636 C1637 1.391 . S
C1637 H1625 0.950 . S
C1637 C1633 1.393 . S
C1637 C1636 1.391 . S
C1638 H1628 0.950 . S
C1638 C1639 1.386 . S
C1638 C1640 1.391 . S
C1639 C1638 1.386 . S
C1639 C1643 1.393 . S
C1640 H1629 0.950 . S
C1640 C1638 1.391 . S
C1640 C1641 1.400 . S
C1641 C1635 1.491 1_655 S
C1641 C1640 1.400 . S
C1641 C1642 1.398 . S
C1642 H1630 0.950 . S
C1642 C1641 1.398 . S
C1642 C1643 1.391 . S
C1643 H1631 0.950 . S
C1643 C1639 1.393 . S
C1643 C1642 1.391 . S
H1644 C1652 0.950 . S
H1645 C1657 0.950 . S
H1646 C1654 0.950 . S
H1647 C1656 0.950 . S
H1648 C1658 0.950 . S
H1649 C1660 0.950 . S
H1650 C1662 0.950 . S
H1651 C1663 0.950 . S
C1652 H1644 0.950 . S
C1652 C1653 1.386 . S
C1652 C1654 1.391 . S
C1653 C1652 1.386 . S
C1653 C1657 1.393 1_554 S
C1654 H1646 0.950 . S
C1654 C1652 1.391 . S
C1654 C1655 1.400 . S
C1655 C1654 1.400 . S
C1655 C1656 1.398 1_554 S
C1655 C1661 1.491 1_554 S
C1656 H1647 0.950 . S
C1656 C1655 1.398 1_556 S
C1656 C1657 1.391 . S
C1657 H1645 0.950 . S
C1657 C1653 1.393 1_556 S
C1657 C1656 1.391 . S
C1658 H1648 0.950 . S
C1658 C1659 1.386 . S
C1658 C1660 1.391 . S
C1659 C1658 1.386 . S
C1659 C1663 1.393 1_556 S
C1660 H1649 0.950 . S
C1660 C1658 1.391 . S
C1660 C1661 1.400 . S
C1661 C1655 1.491 1_556 S
C1661 C1660 1.400 . S
C1661 C1662 1.398 1_556 S
C1662 H1650 0.950 . S
C1662 C1661 1.398 1_554 S
C1662 C1663 1.391 . S
C1663 H1651 0.950 . S
C1663 C1659 1.393 1_554 S
C1663 C1662 1.391 . S
H1664 C1672 0.950 . S
H1665 C1677 0.950 . S
H1666 C1674 0.950 . S
H1667 C1676 0.950 . S
H1668 C1678 0.950 . S
H1669 C1680 0.950 . S
H1670 C1682 0.950 . S
H1671 C1683 0.950 . S
C1672 H1664 0.950 . S
C1672 C1673 1.386 . S
C1672 C1674 1.391 . S
C1673 C1672 1.386 . S
C1673 C1677 1.393 . S
C1674 H1666 0.950 . S
C1674 C1672 1.391 . S
C1674 C1675 1.400 . S
C1675 C1674 1.400 . S
C1675 C1676 1.398 . S
C1675 C1681 1.491 . S
C1676 H1667 0.950 . S
C1676 C1675 1.398 . S
C1676 C1677 1.391 . S
C1677 H1665 0.950 . S
C1677 C1673 1.393 . S
C1677 C1676 1.391 . S
C1678 H1668 0.950 . S
C1678 C1679 1.386 . S
C1678 C1680 1.391 . S
C1679 C1678 1.386 . S
C1679 C1683 1.393 . S
C1680 H1669 0.950 . S
C1680 C1678 1.391 . S
C1680 C1681 1.400 . S
C1681 C1675 1.491 . S
C1681 C1680 1.400 . S
C1681 C1682 1.398 . S
C1682 H1670 0.950 . S
C1682 C1681 1.398 . S
C1682 C1683 1.391 . S
C1683 H1671 0.950 . S
C1683 C1679 1.393 . S
C1683 C1682 1.391 . S
H1684 C1692 0.950 . S
H1685 C1697 0.950 . S
H1686 C1694 0.950 . S
H1687 C1696 0.950 . S
H1688 C1698 0.950 . S
H1689 C1700 0.950 . S
H1690 C1702 0.950 . S
H1691 C1703 0.950 . S
C1692 H1684 0.950 . S
C1692 C1693 1.386 . S
C1692 C1694 1.391 . S
C1693 C1692 1.386 . S
C1693 C1697 1.393 . S
C1694 H1686 0.950 . S
C1694 C1692 1.391 . S
C1694 C1695 1.400 . S
C1695 C1694 1.400 . S
C1695 C1696 1.398 . S
C1695 C1701 1.491 . S
C1696 H1687 0.950 . S
C1696 C1695 1.398 . S
C1696 C1697 1.391 . S
C1697 H1685 0.950 . S
C1697 C1693 1.393 . S
C1697 C1696 1.391 . S
C1698 H1688 0.950 . S
C1698 C1699 1.386 . S
C1698 C1700 1.391 . S
C1699 C1698 1.386 . S
C1699 C1703 1.393 . S
C1700 H1689 0.950 . S
C1700 C1698 1.391 . S
C1700 C1701 1.400 . S
C1701 C1695 1.491 . S
C1701 C1700 1.400 . S
C1701 C1702 1.398 . S
C1702 H1690 0.950 . S
C1702 C1701 1.398 . S
C1702 C1703 1.391 . S
C1703 H1691 0.950 . S
C1703 C1699 1.393 . S
C1703 C1702 1.391 . S
H1704 C1712 0.950 . S
H1705 C1717 0.950 . S
H1706 C1714 0.950 . S
H1707 C1716 0.950 . S
H1708 C1718 0.950 . S
H1709 C1720 0.950 . S
H1710 C1722 0.950 . S
H1711 C1723 0.950 . S
C1712 H1704 0.950 . S
C1712 C1713 1.386 . S
C1712 C1714 1.391 . S
C1713 C1712 1.386 . S
C1713 C1717 1.393 . S
C1714 H1706 0.950 . S
C1714 C1712 1.391 . S
C1714 C1715 1.400 . S
C1715 C1714 1.400 . S
C1715 C1716 1.398 . S
C1715 C1721 1.491 . S
C1716 H1707 0.950 . S
C1716 C1715 1.398 . S
C1716 C1717 1.391 . S
C1717 H1705 0.950 . S
C1717 C1713 1.393 . S
C1717 C1716 1.391 . S
C1718 H1708 0.950 . S
C1718 C1719 1.386 . S
C1718 C1720 1.391 . S
C1719 C1718 1.386 . S
C1719 C1723 1.393 . S
C1720 H1709 0.950 . S
C1720 C1718 1.391 . S
C1720 C1721 1.400 . S
C1721 C1715 1.491 . S
C1721 C1720 1.400 . S
C1721 C1722 1.398 . S
C1722 H1710 0.950 . S
C1722 C1721 1.398 . S
C1722 C1723 1.391 . S
C1723 H1711 0.950 . S
C1723 C1719 1.393 . S
C1723 C1722 1.391 . S
H1724 C1732 0.950 . S
H1725 C1737 0.950 . S
H1726 C1734 0.950 . S
H1727 C1736 0.950 . S
H1728 C1738 0.950 . S
H1729 C1740 0.950 . S
H1730 C1742 0.950 . S
H1731 C1743 0.950 . S
C1732 H1724 0.950 . S
C1732 C1733 1.386 . S
C1732 C1734 1.391 . S
C1733 C1732 1.386 . S
C1733 C1737 1.393 . S
C1734 H1726 0.950 . S
C1734 C1732 1.391 . S
C1734 C1735 1.400 . S
C1735 C1734 1.400 . S
C1735 C1736 1.398 . S
C1735 C1741 1.491 . S
C1736 H1727 0.950 . S
C1736 C1735 1.398 . S
C1736 C1737 1.391 . S
C1737 H1725 0.950 . S
C1737 C1733 1.393 . S
C1737 C1736 1.391 . S
C1738 H1728 0.950 . S
C1738 C1739 1.386 . S
C1738 C1740 1.391 . S
C1739 C1738 1.386 . S
C1739 C1743 1.393 . S
C1740 H1729 0.950 . S
C1740 C1738 1.391 . S
C1740 C1741 1.400 . S
C1741 C1735 1.491 . S
C1741 C1740 1.400 . S
C1741 C1742 1.398 . S
C1742 H1730 0.950 . S
C1742 C1741 1.398 . S
C1742 C1743 1.391 . S
C1743 H1731 0.950 . S
C1743 C1739 1.393 . S
C1743 C1742 1.391 . S
H1744 C1752 0.950 . S
H1745 C1757 0.950 . S
H1746 C1754 0.950 . S
H1747 C1756 0.950 . S
H1748 C1758 0.950 . S
H1749 C1760 0.950 . S
H1750 C1762 0.950 . S
H1751 C1763 0.950 . S
C1752 H1744 0.950 . S
C1752 C1753 1.386 . S
C1752 C1754 1.391 . S
C1753 C1752 1.386 . S
C1753 C1757 1.393 . S
C1754 H1746 0.950 . S
C1754 C1752 1.391 . S
C1754 C1755 1.400 . S
C1755 C1754 1.400 . S
C1755 C1756 1.398 . S
C1755 C1761 1.491 . S
C1756 H1747 0.950 . S
C1756 C1755 1.398 . S
C1756 C1757 1.391 . S
C1757 H1745 0.950 . S
C1757 C1753 1.393 . S
C1757 C1756 1.391 . S
C1758 H1748 0.950 . S
C1758 C1759 1.386 . S
C1758 C1760 1.391 . S
C1759 C1758 1.386 . S
C1759 C1763 1.393 . S
C1760 H1749 0.950 . S
C1760 C1758 1.391 . S
C1760 C1761 1.400 . S
C1761 C1755 1.491 . S
C1761 C1760 1.400 . S
C1761 C1762 1.398 . S
C1762 H1750 0.950 . S
C1762 C1761 1.398 . S
C1762 C1763 1.391 . S
C1763 H1751 0.950 . S
C1763 C1759 1.393 . S
C1763 C1762 1.391 . S
H1764 C1772 0.950 . S
H1765 C1777 0.950 . S
H1766 C1774 0.950 . S
H1767 C1776 0.950 . S
H1768 C1778 0.950 . S
H1769 C1780 0.950 . S
H1770 C1782 0.950 . S
H1771 C1783 0.950 . S
C1772 H1764 0.950 . S
C1772 C1773 1.386 . S
C1772 C1774 1.391 . S
C1773 C1772 1.386 . S
C1773 C1777 1.393 . S
C1774 H1766 0.950 . S
C1774 C1772 1.391 . S
C1774 C1775 1.400 . S
C1775 C1774 1.400 . S
C1775 C1776 1.398 . S
C1775 C1781 1.491 . S
C1776 H1767 0.950 . S
C1776 C1775 1.398 . S
C1776 C1777 1.391 . S
C1777 H1765 0.950 . S
C1777 C1773 1.393 . S
C1777 C1776 1.391 . S
C1778 H1768 0.950 . S
C1778 C1779 1.386 . S
C1778 C1780 1.391 . S
C1779 C1778 1.386 . S
C1779 C1783 1.393 . S
C1780 H1769 0.950 . S
C1780 C1778 1.391 . S
C1780 C1781 1.400 . S
C1781 C1775 1.491 . S
C1781 C1780 1.400 . S
C1781 C1782 1.398 . S
C1782 H1770 0.950 . S
C1782 C1781 1.398 . S
C1782 C1783 1.391 . S
C1783 H1771 0.950 . S
C1783 C1779 1.393 . S
C1783 C1782 1.391 . S
H1784 C1792 0.950 . S
H1785 C1797 0.950 . S
H1786 C1794 0.950 . S
H1787 C1796 0.950 . S
H1788 C1798 0.950 . S
H1789 C1800 0.950 . S
H1790 C1802 0.950 . S
H1791 C1803 0.950 . S
C1792 H1784 0.950 . S
C1792 C1793 1.386 . S
C1792 C1794 1.391 . S
C1793 C1792 1.386 . S
C1793 C1797 1.393 . S
C1794 H1786 0.950 . S
C1794 C1792 1.391 . S
C1794 C1795 1.400 . S
C1795 C1794 1.400 . S
C1795 C1796 1.398 . S
C1795 C1801 1.491 . S
C1796 H1787 0.950 . S
C1796 C1795 1.398 . S
C1796 C1797 1.391 . S
C1797 H1785 0.950 . S
C1797 C1793 1.393 . S
C1797 C1796 1.391 . S
C1798 H1788 0.950 . S
C1798 C1799 1.386 . S
C1798 C1800 1.391 . S
C1799 C1798 1.386 . S
C1799 C1803 1.393 . S
C1800 H1789 0.950 . S
C1800 C1798 1.391 . S
C1800 C1801 1.400 . S
C1801 C1795 1.491 . S
C1801 C1800 1.400 . S
C1801 C1802 1.398 . S
C1802 H1790 0.950 . S
C1802 C1801 1.398 . S
C1802 C1803 1.391 . S
C1803 H1791 0.950 . S
C1803 C1799 1.393 . S
C1803 C1802 1.391 . S
H1804 C1812 0.950 . S
H1805 C1817 0.950 . S
H1806 C1814 0.950 . S
H1807 C1816 0.950 . S
H1808 C1818 0.950 . S
H1809 C1820 0.950 . S
H1810 C1822 0.950 . S
H1811 C1823 0.950 . S
C1812 H1804 0.950 . S
C1812 C1813 1.386 . S
C1812 C1814 1.391 . S
C1813 C1812 1.386 . S
C1813 C1817 1.393 . S
C1814 H1806 0.950 . S
C1814 C1812 1.391 . S
C1814 C1815 1.400 . S
C1815 C1814 1.400 . S
C1815 C1816 1.398 . S
C1815 C1821 1.491 . S
C1816 H1807 0.950 . S
C1816 C1815 1.398 . S
C1816 C1817 1.391 . S
C1817 H1805 0.950 . S
C1817 C1813 1.393 . S
C1817 C1816 1.391 . S
C1818 H1808 0.950 . S
C1818 C1819 1.386 . S
C1818 C1820 1.391 . S
C1819 C1818 1.386 . S
C1819 C1823 1.393 . S
C1820 H1809 0.950 . S
C1820 C1818 1.391 . S
C1820 C1821 1.400 . S
C1821 C1815 1.491 . S
C1821 C1820 1.400 . S
C1821 C1822 1.398 . S
C1822 H1810 0.950 . S
C1822 C1821 1.398 . S
C1822 C1823 1.391 . S
C1823 H1811 0.950 . S
C1823 C1819 1.393 . S
C1823 C1822 1.391 . S
H1824 C1832 0.950 . S
H1825 C1837 0.950 . S
H1826 C1834 0.950 . S
H1827 C1836 0.950 . S
H1828 C1838 0.950 . S
H1829 C1840 0.950 . S
H1830 C1842 0.950 . S
H1831 C1843 0.950 . S
C1832 H1824 0.950 . S
C1832 C1833 1.386 . S
C1832 C1834 1.391 . S
C1833 C1832 1.386 . S
C1833 C1837 1.393 . S
C1834 H1826 0.950 . S
C1834 C1832 1.391 . S
C1834 C1835 1.400 . S
C1835 C1834 1.400 . S
C1835 C1836 1.398 . S
C1835 C1841 1.491 . S
C1836 H1827 0.950 . S
C1836 C1835 1.398 . S
C1836 C1837 1.391 . S
C1837 H1825 0.950 . S
C1837 C1833 1.393 . S
C1837 C1836 1.391 . S
C1838 H1828 0.950 . S
C1838 C1839 1.386 . S
C1838 C1840 1.391 . S
C1839 C1838 1.386 . S
C1839 C1843 1.393 . S
C1840 H1829 0.950 . S
C1840 C1838 1.391 . S
C1840 C1841 1.400 . S
C1841 C1835 1.491 . S
C1841 C1840 1.400 . S
C1841 C1842 1.398 . S
C1842 H1830 0.950 . S
C1842 C1841 1.398 . S
C1842 C1843 1.391 . S
C1843 H1831 0.950 . S
C1843 C1839 1.393 . S
C1843 C1842 1.391 . S
H1844 C1852 0.950 . S
H1845 C1857 0.950 . S
H1846 C1854 0.950 . S
H1847 C1856 0.950 . S
H1848 C1858 0.950 . S
H1849 C1860 0.950 . S
H1850 C1862 0.950 . S
H1851 C1863 0.950 . S
C1852 H1844 0.950 . S
C1852 C1853 1.386 . S
C1852 C1854 1.391 . S
C1853 C1852 1.386 . S
C1853 C1857 1.393 . S
C1854 H1846 0.950 . S
C1854 C1852 1.391 . S
C1854 C1855 1.400 . S
C1855 C1854 1.400 . S
C1855 C1856 1.398 . S
C1855 C1861 1.491 . S
C1856 H1847 0.950 . S
C1856 C1855 1.398 . S
C1856 C1857 1.391 . S
C1857 H1845 0.950 . S
C1857 C1853 1.393 . S
C1857 C1856 1.391 . S
C1858 H1848 0.950 . S
C1858 C1859 1.386 . S
C1858 C1860 1.391 . S
C1859 C1858 1.386 . S
C1859 C1863 1.393 . S
C1860 H1849 0.950 . S
C1860 C1858 1.391 . S
C1860 C1861 1.400 . S
C1861 C1855 1.491 . S
C1861 C1860 1.400 . S
C1861 C1862 1.398 . S
C1862 H1850 0.950 . S
C1862 C1861 1.398 . S
C1862 C1863 1.391 . S
C1863 H1851 0.950 . S
C1863 C1859 1.393 . S
C1863 C1862 1.391 . S
H1864 C1872 0.950 . S
H1865 C1877 0.950 . S
H1866 C1874 0.950 . S
H1867 C1876 0.950 . S
H1868 C1878 0.950 . S
H1869 C1880 0.950 . S
H1870 C1882 0.950 . S
H1871 C1883 0.950 . S
C1872 H1864 0.950 . S
C1872 C1873 1.386 . S
C1872 C1874 1.391 . S
C1873 C1872 1.386 . S
C1873 C1877 1.393 . S
C1874 H1866 0.950 . S
C1874 C1872 1.391 . S
C1874 C1875 1.400 . S
C1875 C1874 1.400 . S
C1875 C1876 1.398 . S
C1875 C1881 1.491 . S
C1876 H1867 0.950 . S
C1876 C1875 1.398 . S
C1876 C1877 1.391 . S
C1877 H1865 0.950 . S
C1877 C1873 1.393 . S
C1877 C1876 1.391 . S
C1878 H1868 0.950 . S
C1878 C1879 1.386 . S
C1878 C1880 1.391 . S
C1879 C1878 1.386 . S
C1879 C1883 1.393 . S
C1880 H1869 0.950 . S
C1880 C1878 1.391 . S
C1880 C1881 1.400 . S
C1881 C1875 1.491 . S
C1881 C1880 1.400 . S
C1881 C1882 1.398 . S
C1882 H1870 0.950 . S
C1882 C1881 1.398 . S
C1882 C1883 1.391 . S
C1883 H1871 0.950 . S
C1883 C1879 1.393 . S
C1883 C1882 1.391 . S
H1884 C1892 0.950 . S
H1885 C1897 0.950 . S
H1886 C1894 0.950 . S
H1887 C1896 0.950 . S
H1888 C1898 0.950 . S
H1889 C1900 0.950 . S
H1890 C1902 0.950 . S
H1891 C1903 0.950 . S
C1892 H1884 0.950 . S
C1892 C1893 1.386 . S
C1892 C1894 1.391 . S
C1893 C1892 1.386 . S
C1893 C1897 1.393 . S
C1894 H1886 0.950 . S
C1894 C1892 1.391 . S
C1894 C1895 1.400 . S
C1895 C1894 1.400 . S
C1895 C1896 1.398 . S
C1895 C1901 1.491 . S
C1896 H1887 0.950 . S
C1896 C1895 1.398 . S
C1896 C1897 1.391 . S
C1897 H1885 0.950 . S
C1897 C1893 1.393 . S
C1897 C1896 1.391 . S
C1898 H1888 0.950 . S
C1898 C1899 1.386 . S
C1898 C1900 1.391 . S
C1899 C1898 1.386 . S
C1899 C1903 1.393 . S
C1900 H1889 0.950 . S
C1900 C1898 1.391 . S
C1900 C1901 1.400 . S
C1901 C1895 1.491 . S
C1901 C1900 1.400 . S
C1901 C1902 1.398 . S
C1902 H1890 0.950 . S
C1902 C1901 1.398 . S
C1902 C1903 1.391 . S
C1903 H1891 0.950 . S
C1903 C1899 1.393 . S
C1903 C1902 1.391 . S
H1904 C1912 0.950 . S
H1905 C1917 0.950 . S
H1906 C1914 0.950 . S
H1907 C1916 0.950 . S
H1908 C1918 0.950 . S
H1909 C1920 0.950 . S
H1910 C1922 0.950 . S
H1911 C1923 0.950 . S
C1912 H1904 0.950 . S
C1912 C1913 1.386 . S
C1912 C1914 1.391 . S
C1913 C1912 1.386 . S
C1913 C1917 1.393 . S
C1914 H1906 0.950 . S
C1914 C1912 1.391 . S
C1914 C1915 1.400 . S
C1915 C1914 1.400 . S
C1915 C1916 1.398 . S
C1915 C1921 1.491 . S
C1916 H1907 0.950 . S
C1916 C1915 1.398 . S
C1916 C1917 1.391 . S
C1917 H1905 0.950 . S
C1917 C1913 1.393 . S
C1917 C1916 1.391 . S
C1918 H1908 0.950 . S
C1918 C1919 1.386 . S
C1918 C1920 1.391 . S
C1919 C1918 1.386 . S
C1919 C1923 1.393 . S
C1920 H1909 0.950 . S
C1920 C1918 1.391 . S
C1920 C1921 1.400 . S
C1921 C1915 1.491 . S
C1921 C1920 1.400 . S
C1921 C1922 1.398 . S
C1922 H1910 0.950 . S
C1922 C1921 1.398 . S
C1922 C1923 1.391 . S
C1923 H1911 0.950 . S
C1923 C1919 1.393 . S
C1923 C1922 1.391 . S
H1924 C1932 0.950 . S
H1925 C1937 0.950 . S
H1926 C1934 0.950 . S
H1927 C1936 0.950 . S
H1928 C1938 0.950 . S
H1929 C1940 0.950 . S
H1930 C1942 0.950 . S
H1931 C1943 0.950 . S
C1932 H1924 0.950 . S
C1932 C1933 1.386 . S
C1932 C1934 1.391 . S
C1933 C1932 1.386 . S
C1933 C1937 1.393 . S
C1934 H1926 0.950 . S
C1934 C1932 1.391 . S
C1934 C1935 1.400 . S
C1935 C1934 1.400 . S
C1935 C1936 1.398 . S
C1935 C1941 1.491 . S
C1936 H1927 0.950 . S
C1936 C1935 1.398 . S
C1936 C1937 1.391 . S
C1937 H1925 0.950 . S
C1937 C1933 1.393 . S
C1937 C1936 1.391 . S
C1938 H1928 0.950 . S
C1938 C1939 1.386 . S
C1938 C1940 1.391 . S
C1939 C1938 1.386 . S
C1939 C1943 1.393 . S
C1940 H1929 0.950 . S
C1940 C1938 1.391 . S
C1940 C1941 1.400 . S
C1941 C1935 1.491 . S
C1941 C1940 1.400 . S
C1941 C1942 1.398 . S
C1942 H1930 0.950 . S
C1942 C1941 1.398 . S
C1942 C1943 1.391 . S
C1943 H1931 0.950 . S
C1943 C1939 1.393 . S
C1943 C1942 1.391 . S
H1944 C1952 0.950 . S
H1945 C1957 0.950 . S
H1946 C1954 0.950 . S
H1947 C1956 0.950 . S
H1948 C1958 0.950 . S
H1949 C1960 0.950 . S
H1950 C1962 0.950 . S
H1951 C1963 0.950 . S
C1952 H1944 0.950 . S
C1952 C1953 1.386 . S
C1952 C1954 1.391 . S
C1953 C1952 1.386 . S
C1953 C1957 1.393 . S
C1954 H1946 0.950 . S
C1954 C1952 1.391 . S
C1954 C1955 1.400 . S
C1955 C1954 1.400 . S
C1955 C1956 1.398 . S
C1955 C1961 1.491 . S
C1956 H1947 0.950 . S
C1956 C1955 1.398 . S
C1956 C1957 1.391 . S
C1957 H1945 0.950 . S
C1957 C1953 1.393 . S
C1957 C1956 1.391 . S
C1958 H1948 0.950 . S
C1958 C1959 1.386 . S
C1958 C1960 1.391 . S
C1959 C1958 1.386 . S
C1959 C1963 1.393 . S
C1960 H1949 0.950 . S
C1960 C1958 1.391 . S
C1960 C1961 1.400 . S
C1961 C1955 1.491 . S
C1961 C1960 1.400 . S
C1961 C1962 1.398 . S
C1962 H1950 0.950 . S
C1962 C1961 1.398 . S
C1962 C1963 1.391 . S
C1963 H1951 0.950 . S
C1963 C1959 1.393 . S
C1963 C1962 1.391 . S
H1964 C1972 0.950 . S
H1965 C1977 0.950 . S
H1966 C1974 0.950 . S
H1967 C1976 0.950 . S
H1968 C1978 0.950 . S
H1969 C1980 0.950 . S
H1970 C1982 0.950 . S
H1971 C1983 0.950 . S
C1972 H1964 0.950 . S
C1972 C1973 1.386 . S
C1972 C1974 1.391 . S
C1973 C1972 1.386 . S
C1973 C1977 1.393 . S
C1974 H1966 0.950 . S
C1974 C1972 1.391 . S
C1974 C1975 1.400 . S
C1975 C1974 1.400 . S
C1975 C1976 1.398 . S
C1975 C1981 1.491 . S
C1976 H1967 0.950 . S
C1976 C1975 1.398 . S
C1976 C1977 1.391 . S
C1977 H1965 0.950 . S
C1977 C1973 1.393 . S
C1977 C1976 1.391 . S
C1978 H1968 0.950 . S
C1978 C1979 1.386 . S
C1978 C1980 1.391 . S
C1979 C1978 1.386 . S
C1979 C1983 1.393 . S
C1980 H1969 0.950 . S
C1980 C1978 1.391 . S
C1980 C1981 1.400 . S
C1981 C1975 1.491 . S
C1981 C1980 1.400 . S
C1981 C1982 1.398 . S
C1982 H1970 0.950 . S
C1982 C1981 1.398 . S
C1982 C1983 1.391 . S
C1983 H1971 0.950 . S
C1983 C1979 1.393 . S
C1983 C1982 1.391 . S
H1984 C1992 0.952 1_554 S
H1985 C1997 0.950 . S
H1986 C1994 0.950 . S
H1987 C1996 0.950 . S
H1988 C1998 0.950 . S
H1989 C2000 0.950 . S
H1990 C2002 0.950 . S
H1991 C2003 0.950 . S
C1992 H1984 0.952 1_556 S
C1992 C1993 1.386 . S
C1992 C1994 1.391 . S
C1993 C1992 1.386 . S
C1993 C1997 1.393 . S
C1994 H1986 0.950 . S
C1994 C1992 1.391 . S
C1994 C1995 1.400 . S
C1995 C1994 1.400 . S
C1995 C1996 1.398 . S
C1995 C2001 1.491 . S
C1996 H1987 0.950 . S
C1996 C1995 1.398 . S
C1996 C1997 1.391 . S
C1997 H1985 0.950 . S
C1997 C1993 1.393 . S
C1997 C1996 1.391 . S
C1998 H1988 0.950 . S
C1998 C1999 1.386 . S
C1998 C2000 1.391 . S
C1999 C1998 1.386 . S
C1999 C2003 1.393 . S
C2000 H1989 0.950 . S
C2000 C1998 1.391 . S
C2000 C2001 1.400 . S
C2001 C1995 1.491 . S
C2001 C2000 1.400 . S
C2001 C2002 1.398 . S
C2002 H1990 0.950 . S
C2002 C2001 1.398 . S
C2002 C2003 1.391 . S
C2003 H1991 0.950 . S
C2003 C1999 1.393 . S
C2003 C2002 1.391 . S
H2004 C2012 0.950 . S
H2005 C2017 0.950 . S
H2006 C2014 0.950 . S
H2007 C2016 0.950 . S
H2008 C2018 0.950 . S
H2009 C2020 0.950 . S
H2010 C2022 0.950 . S
H2011 C2023 0.950 . S
C2012 H2004 0.950 . S
C2012 C2013 1.386 . S
C2012 C2014 1.391 . S
C2013 C2012 1.386 . S
C2013 C2017 1.393 . S
C2014 H2006 0.950 . S
C2014 C2012 1.391 . S
C2014 C2015 1.400 . S
C2015 C2014 1.400 . S
C2015 C2016 1.398 . S
C2015 C2021 1.491 . S
C2016 H2007 0.950 . S
C2016 C2015 1.398 . S
C2016 C2017 1.391 . S
C2017 H2005 0.950 . S
C2017 C2013 1.393 . S
C2017 C2016 1.391 . S
C2018 H2008 0.950 . S
C2018 C2019 1.386 . S
C2018 C2020 1.391 . S
C2019 C2018 1.386 . S
C2019 C2023 1.393 . S
C2020 H2009 0.950 . S
C2020 C2018 1.391 . S
C2020 C2021 1.400 . S
C2021 C2015 1.491 . S
C2021 C2020 1.400 . S
C2021 C2022 1.398 . S
C2022 H2010 0.950 . S
C2022 C2021 1.398 . S
C2022 C2023 1.391 . S
C2023 H2011 0.950 . S
C2023 C2019 1.393 . S
C2023 C2022 1.391 . S
H2024 C2032 0.950 . S
H2025 C2037 0.950 . S
H2026 C2034 0.950 . S
H2027 C2036 0.950 . S
H2028 C2038 0.950 . S
H2029 C2040 0.950 . S
H2030 C2042 0.950 . S
H2031 C2043 0.950 . S
C2032 H2024 0.950 . S
C2032 C2033 1.386 . S
C2032 C2034 1.391 . S
C2033 C2032 1.386 . S
C2033 C2037 1.393 . S
C2034 H2026 0.950 . S
C2034 C2032 1.391 . S
C2034 C2035 1.400 . S
C2035 C2034 1.400 . S
C2035 C2036 1.398 . S
C2035 C2041 1.491 . S
C2036 H2027 0.950 . S
C2036 C2035 1.398 . S
C2036 C2037 1.391 . S
C2037 H2025 0.950 . S
C2037 C2033 1.393 . S
C2037 C2036 1.391 . S
C2038 H2028 0.950 . S
C2038 C2039 1.386 . S
C2038 C2040 1.391 . S
C2039 C2038 1.386 . S
C2039 C2043 1.393 . S
C2040 H2029 0.950 . S
C2040 C2038 1.391 . S
C2040 C2041 1.400 . S
C2041 C2035 1.491 . S
C2041 C2040 1.400 . S
C2041 C2042 1.398 . S
C2042 H2030 0.950 . S
C2042 C2041 1.398 . S
C2042 C2043 1.391 . S
C2043 H2031 0.950 . S
C2043 C2039 1.393 . S
C2043 C2042 1.391 . S
H2044 C2052 0.950 . S
H2045 C2057 0.950 . S
H2046 C2054 0.950 . S
H2047 C2056 0.950 . S
H2048 C2058 0.950 . S
H2049 C2060 0.950 . S
H2050 C2062 0.950 . S
H2051 C2063 0.950 . S
C2052 H2044 0.950 . S
C2052 C2053 1.386 . S
C2052 C2054 1.391 . S
C2053 C2052 1.386 . S
C2053 C2057 1.393 . S
C2054 H2046 0.950 . S
C2054 C2052 1.391 . S
C2054 C2055 1.400 . S
C2055 C2054 1.400 . S
C2055 C2056 1.398 . S
C2055 C2061 1.491 . S
C2056 H2047 0.950 . S
C2056 C2055 1.398 . S
C2056 C2057 1.391 . S
C2057 H2045 0.950 . S
C2057 C2053 1.393 . S
C2057 C2056 1.391 . S
C2058 H2048 0.950 . S
C2058 C2059 1.386 . S
C2058 C2060 1.391 . S
C2059 C2058 1.386 . S
C2059 C2063 1.393 . S
C2060 H2049 0.950 . S
C2060 C2058 1.391 . S
C2060 C2061 1.400 . S
C2061 C2055 1.491 . S
C2061 C2060 1.400 . S
C2061 C2062 1.398 . S
C2062 H2050 0.950 . S
C2062 C2061 1.398 . S
C2062 C2063 1.391 . S
C2063 H2051 0.950 . S
C2063 C2059 1.393 . S
C2063 C2062 1.391 . S
H2064 C2072 0.950 . S
H2065 C2077 0.950 . S
H2066 C2074 0.950 . S
H2067 C2076 0.950 . S
H2068 C2078 0.950 . S
H2069 C2080 0.950 . S
H2070 C2082 0.950 . S
H2071 C2083 0.950 1_556 S
C2072 H2064 0.950 . S
C2072 C2073 1.386 . S
C2072 C2074 1.391 . S
C2073 C2072 1.386 . S
C2073 C2077 1.393 . S
C2074 H2066 0.950 . S
C2074 C2072 1.391 . S
C2074 C2075 1.400 . S
C2075 C2074 1.400 . S
C2075 C2076 1.398 . S
C2075 C2081 1.491 . S
C2076 H2067 0.950 . S
C2076 C2075 1.398 . S
C2076 C2077 1.391 . S
C2077 H2065 0.950 . S
C2077 C2073 1.393 . S
C2077 C2076 1.391 . S
C2078 H2068 0.950 . S
C2078 C2079 1.386 . S
C2078 C2080 1.391 . S
C2079 C2078 1.386 . S
C2079 C2083 1.393 . S
C2080 H2069 0.950 . S
C2080 C2078 1.391 . S
C2080 C2081 1.400 . S
C2081 C2075 1.491 . S
C2081 C2080 1.400 . S
C2081 C2082 1.398 . S
C2082 H2070 0.950 . S
C2082 C2081 1.398 . S
C2082 C2083 1.391 . S
C2083 H2071 0.950 1_554 S
C2083 C2079 1.393 . S
C2083 C2082 1.391 . S
H2084 C2092 0.950 . S
H2085 C2097 0.950 . S
H2086 C2094 0.950 . S
H2087 C2096 0.950 . S
H2088 C2098 0.950 . S
H2089 C2100 0.950 . S
H2090 C2102 0.950 . S
H2091 C2103 0.950 . S
C2092 H2084 0.950 . S
C2092 C2093 1.386 . S
C2092 C2094 1.391 . S
C2093 C2092 1.386 . S
C2093 C2097 1.393 . S
C2094 H2086 0.950 . S
C2094 C2092 1.391 . S
C2094 C2095 1.400 . S
C2095 C2094 1.400 . S
C2095 C2096 1.398 . S
C2095 C2101 1.491 . S
C2096 H2087 0.950 . S
C2096 C2095 1.398 . S
C2096 C2097 1.391 . S
C2097 H2085 0.950 . S
C2097 C2093 1.393 . S
C2097 C2096 1.391 . S
C2098 H2088 0.950 . S
C2098 C2099 1.386 . S
C2098 C2100 1.391 . S
C2099 C2098 1.386 . S
C2099 C2103 1.393 . S
C2100 H2089 0.950 . S
C2100 C2098 1.391 . S
C2100 C2101 1.400 . S
C2101 C2095 1.491 . S
C2101 C2100 1.400 . S
C2101 C2102 1.398 . S
C2102 H2090 0.950 . S
C2102 C2101 1.398 . S
C2102 C2103 1.391 . S
C2103 H2091 0.950 . S
C2103 C2099 1.393 . S
C2103 C2102 1.391 . S
H2104 C2112 0.950 . S
H2105 C2117 0.950 . S
H2106 C2114 0.950 . S
H2107 C2116 0.950 . S
H2108 C2118 0.950 . S
H2109 C2120 0.950 . S
H2110 C2122 0.950 . S
H2111 C2123 0.950 . S
C2112 H2104 0.950 . S
C2112 C2113 1.386 . S
C2112 C2114 1.391 . S
C2113 C2112 1.386 . S
C2113 C2117 1.393 . S
C2114 H2106 0.950 . S
C2114 C2112 1.391 . S
C2114 C2115 1.400 . S
C2115 C2114 1.400 . S
C2115 C2116 1.398 . S
C2115 C2121 1.491 . S
C2116 H2107 0.950 . S
C2116 C2115 1.398 . S
C2116 C2117 1.391 . S
C2117 H2105 0.950 . S
C2117 C2113 1.393 . S
C2117 C2116 1.391 . S
C2118 H2108 0.950 . S
C2118 C2119 1.386 . S
C2118 C2120 1.391 . S
C2119 C2118 1.386 . S
C2119 C2123 1.393 . S
C2120 H2109 0.950 . S
C2120 C2118 1.391 . S
C2120 C2121 1.400 . S
C2121 C2115 1.491 . S
C2121 C2120 1.400 . S
C2121 C2122 1.398 . S
C2122 H2110 0.950 . S
C2122 C2121 1.398 . S
C2122 C2123 1.391 . S
C2123 H2111 0.950 . S
C2123 C2119 1.393 . S
C2123 C2122 1.391 . S
H2124 C2132 0.950 . S
H2125 C2137 0.950 . S
H2126 C2134 0.950 . S
H2127 C2136 0.950 . S
H2128 C2138 0.950 . S
H2129 C2140 0.950 . S
H2130 C2142 0.950 . S
H2131 C2143 0.950 . S
C2132 H2124 0.950 . S
C2132 C2133 1.386 . S
C2132 C2134 1.391 . S
C2133 C2132 1.386 . S
C2133 C2137 1.393 . S
C2134 H2126 0.950 . S
C2134 C2132 1.391 . S
C2134 C2135 1.400 . S
C2135 C2134 1.400 . S
C2135 C2136 1.398 . S
C2135 C2141 1.491 . S
C2136 H2127 0.950 . S
C2136 C2135 1.398 . S
C2136 C2137 1.391 . S
C2137 H2125 0.950 . S
C2137 C2133 1.393 . S
C2137 C2136 1.391 . S
C2138 H2128 0.950 . S
C2138 C2139 1.386 . S
C2138 C2140 1.391 . S
C2139 C2138 1.386 . S
C2139 C2143 1.393 . S
C2140 H2129 0.950 . S
C2140 C2138 1.391 . S
C2140 C2141 1.400 . S
C2141 C2135 1.491 . S
C2141 C2140 1.400 . S
C2141 C2142 1.398 . S
C2142 H2130 0.950 . S
C2142 C2141 1.398 . S
C2142 C2143 1.391 . S
C2143 H2131 0.950 . S
C2143 C2139 1.393 . S
C2143 C2142 1.391 . S
H2144 C2152 0.950 . S
H2145 C2157 0.950 . S
H2146 C2154 0.950 . S
H2147 C2156 0.950 . S
H2148 C2158 0.950 . S
H2149 C2160 0.950 . S
H2150 C2162 0.950 . S
H2151 C2163 0.950 . S
C2152 H2144 0.950 . S
C2152 C2153 1.386 . S
C2152 C2154 1.391 . S
C2153 C2152 1.386 . S
C2153 C2157 1.393 . S
C2154 H2146 0.950 . S
C2154 C2152 1.391 . S
C2154 C2155 1.400 . S
C2155 C2154 1.400 . S
C2155 C2156 1.398 . S
C2155 C2161 1.491 . S
C2156 H2147 0.950 . S
C2156 C2155 1.398 . S
C2156 C2157 1.391 . S
C2157 H2145 0.950 . S
C2157 C2153 1.393 . S
C2157 C2156 1.391 . S
C2158 H2148 0.950 . S
C2158 C2159 1.386 . S
C2158 C2160 1.391 . S
C2159 C2158 1.386 . S
C2159 C2163 1.393 . S
C2160 H2149 0.950 . S
C2160 C2158 1.391 . S
C2160 C2161 1.400 . S
C2161 C2155 1.491 . S
C2161 C2160 1.400 . S
C2161 C2162 1.398 . S
C2162 H2150 0.950 . S
C2162 C2161 1.398 . S
C2162 C2163 1.391 . S
C2163 H2151 0.950 . S
C2163 C2159 1.393 . S
C2163 C2162 1.391 . S
H2164 C2172 0.950 . S
H2165 C2177 0.950 . S
H2166 C2174 0.950 . S
H2167 C2176 0.950 . S
H2168 C2178 0.950 1_545 S
H2169 C2180 0.950 . S
H2170 C2182 0.950 . S
H2171 C2183 0.950 . S
C2172 H2164 0.950 . S
C2172 C2173 1.386 . S
C2172 C2174 1.391 . S
C2173 C2172 1.386 . S
C2173 C2177 1.393 . S
C2174 H2166 0.950 . S
C2174 C2172 1.391 . S
C2174 C2175 1.400 . S
C2175 C2174 1.400 . S
C2175 C2176 1.398 . S
C2175 C2181 1.491 . S
C2176 H2167 0.950 . S
C2176 C2175 1.398 . S
C2176 C2177 1.391 . S
C2177 H2165 0.950 . S
C2177 C2173 1.393 . S
C2177 C2176 1.391 . S
C2178 H2168 0.950 1_565 S
C2178 C2179 1.386 . S
C2178 C2180 1.391 . S
C2179 C2178 1.386 . S
C2179 C2183 1.393 . S
C2180 H2169 0.950 . S
C2180 C2178 1.391 . S
C2180 C2181 1.400 . S
C2181 C2175 1.491 . S
C2181 C2180 1.400 . S
C2181 C2182 1.398 . S
C2182 H2170 0.950 . S
C2182 C2181 1.398 . S
C2182 C2183 1.391 . S
C2183 H2171 0.950 . S
C2183 C2179 1.393 . S
C2183 C2182 1.391 . S
H2184 C2192 0.950 . S
H2185 C2197 0.950 . S
H2186 C2194 0.950 . S
H2187 C2196 0.950 . S
H2188 C2198 0.950 1_554 S
H2189 C2200 0.950 . S
H2190 C2202 0.950 . S
H2191 C2203 0.950 . S
C2192 H2184 0.950 . S
C2192 C2193 1.386 . S
C2192 C2194 1.391 . S
C2193 C2192 1.386 . S
C2193 C2197 1.393 . S
C2194 H2186 0.950 . S
C2194 C2192 1.391 . S
C2194 C2195 1.400 . S
C2195 C2194 1.400 . S
C2195 C2196 1.398 . S
C2195 C2201 1.491 . S
C2196 H2187 0.950 . S
C2196 C2195 1.398 . S
C2196 C2197 1.391 . S
C2197 H2185 0.950 . S
C2197 C2193 1.393 . S
C2197 C2196 1.391 . S
C2198 H2188 0.950 1_556 S
C2198 C2199 1.386 . S
C2198 C2200 1.391 . S
C2199 C2198 1.386 . S
C2199 C2203 1.393 . S
C2200 H2189 0.950 . S
C2200 C2198 1.391 . S
C2200 C2201 1.400 . S
C2201 C2195 1.491 . S
C2201 C2200 1.400 . S
C2201 C2202 1.398 . S
C2202 H2190 0.950 . S
C2202 C2201 1.398 . S
C2202 C2203 1.391 . S
C2203 H2191 0.950 . S
C2203 C2199 1.393 . S
C2203 C2202 1.391 . S
H2204 C2212 0.950 . S
H2205 C2217 0.950 1_565 S
H2206 C2214 0.950 . S
H2207 C2216 0.950 . S
H2208 C2218 0.950 . S
H2209 C2220 0.950 . S
H2210 C2222 0.950 . S
H2211 C2223 0.950 . S
C2212 H2204 0.950 . S
C2212 C2213 1.386 . S
C2212 C2214 1.391 . S
C2213 C2212 1.386 . S
C2213 C2217 1.393 . S
C2214 H2206 0.950 . S
C2214 C2212 1.391 . S
C2214 C2215 1.400 . S
C2215 C2214 1.400 . S
C2215 C2216 1.398 . S
C2215 C2221 1.491 . S
C2216 H2207 0.950 . S
C2216 C2215 1.398 . S
C2216 C2217 1.391 . S
C2217 H2205 0.950 1_545 S
C2217 C2213 1.393 . S
C2217 C2216 1.391 . S
C2218 H2208 0.950 . S
C2218 C2219 1.386 . S
C2218 C2220 1.391 . S
C2219 C2218 1.386 . S
C2219 C2223 1.393 . S
C2220 H2209 0.950 . S
C2220 C2218 1.391 . S
C2220 C2221 1.400 . S
C2221 C2215 1.491 . S
C2221 C2220 1.400 . S
C2221 C2222 1.398 . S
C2222 H2210 0.950 . S
C2222 C2221 1.398 . S
C2222 C2223 1.391 . S
C2223 H2211 0.950 . S
C2223 C2219 1.393 . S
C2223 C2222 1.391 . S
H2224 C2232 0.950 . S
H2225 C2237 0.950 . S
H2226 C2234 0.950 . S
H2227 C2236 0.950 . S
H2228 C2238 0.950 . S
H2229 C2240 0.950 . S
H2230 C2242 0.950 . S
H2231 C2243 0.950 . S
C2232 H2224 0.950 . S
C2232 C2233 1.386 . S
C2232 C2234 1.391 . S
C2233 C2232 1.386 . S
C2233 C2237 1.393 . S
C2234 H2226 0.950 . S
C2234 C2232 1.391 . S
C2234 C2235 1.400 . S
C2235 C2234 1.400 . S
C2235 C2236 1.398 . S
C2235 C2241 1.491 . S
C2236 H2227 0.950 . S
C2236 C2235 1.398 . S
C2236 C2237 1.391 . S
C2237 H2225 0.950 . S
C2237 C2233 1.393 . S
C2237 C2236 1.391 . S
C2238 H2228 0.950 . S
C2238 C2239 1.386 . S
C2238 C2240 1.391 . S
C2239 C2238 1.386 . S
C2239 C2243 1.393 . S
C2240 H2229 0.950 . S
C2240 C2238 1.391 . S
C2240 C2241 1.400 . S
C2241 C2235 1.491 . S
C2241 C2240 1.400 . S
C2241 C2242 1.398 . S
C2242 H2230 0.950 . S
C2242 C2241 1.398 . S
C2242 C2243 1.391 . S
C2243 H2231 0.950 . S
C2243 C2239 1.393 . S
C2243 C2242 1.391 . S
H2244 C2252 0.950 . S
H2245 C2257 0.950 . S
H2246 C2254 0.950 . S
H2247 C2256 0.950 . S
H2248 C2258 0.950 . S
H2249 C2260 0.950 . S
H2250 C2262 0.950 . S
H2251 C2263 0.950 1_565 S
C2252 H2244 0.950 . S
C2252 C2253 1.386 . S
C2252 C2254 1.391 . S
C2253 C2252 1.386 . S
C2253 C2257 1.393 . S
C2254 H2246 0.950 . S
C2254 C2252 1.391 . S
C2254 C2255 1.400 . S
C2255 C2254 1.400 . S
C2255 C2256 1.398 . S
C2255 C2261 1.491 . S
C2256 H2247 0.950 . S
C2256 C2255 1.398 . S
C2256 C2257 1.391 . S
C2257 H2245 0.950 . S
C2257 C2253 1.393 . S
C2257 C2256 1.391 . S
C2258 H2248 0.950 . S
C2258 C2259 1.386 . S
C2258 C2260 1.391 . S
C2259 C2258 1.386 . S
C2259 C2263 1.393 . S
C2260 H2249 0.950 . S
C2260 C2258 1.391 . S
C2260 C2261 1.400 . S
C2261 C2255 1.491 . S
C2261 C2260 1.400 . S
C2261 C2262 1.398 . S
C2262 H2250 0.950 . S
C2262 C2261 1.398 . S
C2262 C2263 1.391 . S
C2263 H2251 0.950 1_545 S
C2263 C2259 1.393 . S
C2263 C2262 1.391 . S
H2264 C2272 0.950 . S
H2265 C2277 0.950 . S
H2266 C2274 0.950 . S
H2267 C2276 0.950 . S
H2268 C2278 0.950 . S
H2269 C2280 0.950 . S
H2270 C2282 0.950 . S
H2271 C2283 0.950 1_556 S
C2272 H2264 0.950 . S
C2272 C2273 1.386 . S
C2272 C2274 1.391 . S
C2273 C2272 1.386 . S
C2273 C2277 1.393 . S
C2274 H2266 0.950 . S
C2274 C2272 1.391 . S
C2274 C2275 1.400 . S
C2275 C2274 1.400 . S
C2275 C2276 1.398 . S
C2275 C2281 1.491 . S
C2276 H2267 0.950 . S
C2276 C2275 1.398 . S
C2276 C2277 1.391 . S
C2277 H2265 0.950 . S
C2277 C2273 1.393 . S
C2277 C2276 1.391 . S
C2278 H2268 0.950 . S
C2278 C2279 1.386 . S
C2278 C2280 1.391 . S
C2279 C2278 1.386 . S
C2279 C2283 1.393 . S
C2280 H2269 0.950 . S
C2280 C2278 1.391 . S
C2280 C2281 1.400 . S
C2281 C2275 1.491 . S
C2281 C2280 1.400 . S
C2281 C2282 1.398 . S
C2282 H2270 0.950 . S
C2282 C2281 1.398 . S
C2282 C2283 1.391 . S
C2283 H2271 0.950 1_554 S
C2283 C2279 1.393 . S
C2283 C2282 1.391 . S
H2284 C2292 0.950 . S
H2285 C2297 0.950 . S
H2286 C2294 0.950 . S
H2287 C2296 0.950 . S
H2288 C2298 0.950 . S
H2289 C2300 0.950 . S
H2290 C2302 0.950 . S
H2291 C2303 0.933 1_545 S
C2292 H2284 0.950 . S
C2292 C2293 1.386 . S
C2292 C2294 1.391 . S
C2293 C2292 1.386 . S
C2293 C2297 1.393 . S
C2294 H2286 0.950 . S
C2294 C2292 1.391 . S
C2294 C2295 1.400 . S
C2295 C2294 1.400 . S
C2295 C2296 1.398 . S
C2295 C2301 1.491 . S
C2296 H2287 0.950 . S
C2296 C2295 1.398 . S
C2296 C2297 1.391 . S
C2297 H2285 0.950 . S
C2297 C2293 1.393 . S
C2297 C2296 1.391 . S
C2298 H2288 0.950 . S
C2298 C2299 1.386 . S
C2298 C2300 1.391 . S
C2299 C2298 1.386 . S
C2299 C2303 1.400 . S
C2300 H2289 0.950 . S
C2300 C2298 1.391 . S
C2300 C2301 1.400 . S
C2301 C2295 1.491 . S
C2301 C2300 1.400 . S
C2301 C2302 1.398 . S
C2302 H2290 0.950 . S
C2302 C2301 1.398 . S
C2302 C2303 1.400 . S
C2303 H2291 0.933 1_565 S
C2303 C2299 1.400 . S
C2303 C2302 1.400 . S
C1353 C63 3.028 . S
C1359 C903 3.027 . S
C1373 C147 3.029 . S
C1379 C987 3.026 . S
C1393 C231 3.029 . S
C1399 C735 3.026 . S
C1413 C819 3.028 . S
C1419 C315 3.038 . S
C1433 C410 3.027 . S
C1439 C1250 3.028 . S
C1453 C1334 3.025 . S
C1459 C494 3.034 . S
C1473 C1082 3.036 . S
C1479 C578 3.025 . S
C1493 C662 3.036 . S
C1499 C1166 3.025 . S
C1513 C58 0.686 . S
C1519 C405 0.686 . S
C1533 C142 0.686 . S
C1539 C1161 0.686 . S
C1553 C226 0.667 . S
C1559 C573 0.667 . S
C1573 C310 0.655 . S
C1579 C1329 0.655 . S
C1593 C489 0.686 . S
C1599 C814 0.686 . S
C1613 C982 0.685 . S
C1619 C657 0.685 . S
C1633 C1077 0.635 . S
C1639 C730 0.635 . S
C1653 C898 0.633 . S
C1659 C1245 0.633 . S
C1673 C69 0.834 . S
C1679 C651 1.034 . S
C1693 C153 0.779 . S
C1699 C1071 1.042 . S
C1713 C237 0.849 . S
C1719 C483 1.037 . S
C1733 C321 0.852 . S
C1739 C1239 1.038 . S
C1753 C326 1.053 . S
C1759 C394 0.856 . S
C1773 C478 0.866 . S
C1779 C746 1.046 . S
C1793 C562 0.835 . S
C1799 C158 1.034 . S
C1813 C914 1.051 . S
C1819 C646 0.803 . S
C1833 C741 0.785 . S
C1839 C1323 1.034 . S
C1853 C399 1.037 . S
C1859 C825 0.851 . S
C1873 C1155 1.052 . S
C1879 C909 0.860 . S
C1893 C567 1.054 . S
C1899 C993 0.835 . S
C1913 C1066 0.778 . S
C1919 C998 1.036 . S
C1933 C1150 0.798 . S
C1939 C74 1.032 . S
C1953 C830 1.052 . S
C1959 C1234 0.859 . S
C1973 C1318 0.820 . S
C1979 C242 1.053 . S
C1993 C67 3.704 1_556 S
C1999 C812 3.606 . S
C2013 C896 3.611 . S
C2019 C151 3.707 . S
C2033 C235 3.708 . S
C2039 C980 3.612 . S
C2053 C728 3.610 . S
C2059 C319 3.703 . S
C2073 C1159 3.616 . S
C2079 C392 3.705 1_554 S
C2093 C1243 3.616 . S
C2099 C476 3.708 . S
C2113 C1327 3.615 . S
C2119 C560 3.704 . S
C2133 C1075 3.607 . S
C2139 C644 3.705 . S
C2153 C140 3.606 . S
C2159 C739 3.705 . S
C2173 C224 3.608 . S
C2179 C823 3.706 1_565 S
C2193 C308 3.617 . S
C2199 C907 3.706 1_556 S
C2213 C991 3.707 1_545 S
C2219 C56 3.609 . S
C2233 C487 3.612 . S
C2239 C1064 3.703 . S
C2253 C571 3.608 . S
C2259 C1148 3.706 1_545 S
C2273 C655 3.612 . S
C2279 C1232 3.703 1_554 S
C2293 C403 3.615 . S
C2299 C1316 3.708 1_565 S
