# Generated by pormake.
# Topology rkf, (6)-cn, num edge types: 1
# Building blocks:
#     Node 0, Type 0, BuildingBlock: PAMTOO_clean_sbu_0, # of connection points: 6
#     Node 1, Type 0, BuildingBlock: PAMTOO_clean_sbu_0, # of connection points: 6
#     Node 2, Type 0, BuildingBlock: PAMTOO_clean_sbu_0, # of connection points: 6
#     Node 3, Type 0, BuildingBlock: PAMTOO_clean_sbu_0, # of connection points: 6
#     Node 4, Type 0, BuildingBlock: PAMTOO_clean_sbu_0, # of connection points: 6
#     Node 5, Type 0, BuildingBlock: PAMTOO_clean_sbu_0, # of connection points: 6
#     Edge 6, Type (0, 0), BuildingBlock: XUDNAN_clean_linker_2, # of connection points: 2
#     Edge 7, Type (0, 0), BuildingBlock: XUDNAN_clean_linker_2, # of connection points: 2
#     Edge 8, Type (0, 0), BuildingBlock: XUDNAN_clean_linker_2, # of connection points: 2
#     Edge 9, Type (0, 0), BuildingBlock: XUDNAN_clean_linker_2, # of connection points: 2
#     Edge 10, Type (0, 0), BuildingBlock: XUDNAN_clean_linker_2, # of connection points: 2
#     Edge 11, Type (0, 0), BuildingBlock: XUDNAN_clean_linker_2, # of connection points: 2
#     Edge 12, Type (0, 0), BuildingBlock: XUDNAN_clean_linker_2, # of connection points: 2
#     Edge 13, Type (0, 0), BuildingBlock: XUDNAN_clean_linker_2, # of connection points: 2
#     Edge 14, Type (0, 0), BuildingBlock: XUDNAN_clean_linker_2, # of connection points: 2
#     Edge 15, Type (0, 0), BuildingBlock: XUDNAN_clean_linker_2, # of connection points: 2
#     Edge 16, Type (0, 0), BuildingBlock: XUDNAN_clean_linker_2, # of connection points: 2
#     Edge 17, Type (0, 0), BuildingBlock: XUDNAN_clean_linker_2, # of connection points: 2
#     Edge 18, Type (0, 0), BuildingBlock: XUDNAN_clean_linker_2, # of connection points: 2
#     Edge 19, Type (0, 0), BuildingBlock: XUDNAN_clean_linker_2, # of connection points: 2
#     Edge 20, Type (0, 0), BuildingBlock: XUDNAN_clean_linker_2, # of connection points: 2
#     Edge 21, Type (0, 0), BuildingBlock: XUDNAN_clean_linker_2, # of connection points: 2
#     Edge 22, Type (0, 0), BuildingBlock: XUDNAN_clean_linker_2, # of connection points: 2
#     Edge 23, Type (0, 0), BuildingBlock: XUDNAN_clean_linker_2, # of connection points: 2
# Relax obj value: 0.805
# Max RMSD: 0.267
# Mean RMSD: 0.267
data_MOF--net-rkf--node1-PAMTOO_clean_sbu_0--edge1-XUDNAN_clean_linker_2
_symmetry_space_group_name_H-M    P1
_symmetry_Int_Tables_number       1
_symmetry_cell_setting            triclinic
loop_
_symmetry_equiv_pos_as_xyz
'x, y, z'
_cell_length_a     25.918633
_cell_length_b     25.488255
_cell_length_c     45.263924
_cell_angle_alpha  90.003492
_cell_angle_beta   90.283177
_cell_angle_gamma 120.06429
loop_
_atom_site_label
_atom_site_type_symbol
_atom_site_fract_x
_atom_site_fract_y
_atom_site_fract_z
_atom_type_partial_charge
Dy0 Dy 0.22631 0.05162 0.16776 0.0
Dy1 Dy 0.28939 0.19192 0.14881 0.0
C2 C 0.15321 0.10338 0.1399 0.0
O3 O 0.21791 0.04281 1.11778 0.0
O4 O 0.27206 0.14192 1.1026 0.0
O5 O 0.15955 0.95855 0.16163 0.0
O6 O 0.22614 0.98302 0.19634 0.0
O7 O 0.35591 0.17187 0.17032 0.0
O8 O 0.31662 0.07767 0.15208 0.0
O9 O 0.25639 0.19456 0.1959 0.0
O10 O 0.24515 0.10409 0.21179 0.0
O11 O 0.37423 0.26648 0.13626 0.0
O12 O 0.29904 0.28065 0.14279 0.0
C13 C 0.23905 0.08262 1.09595 0.0
O14 O 0.1591 0.08069 0.16478 0.0
O15 O 0.19945 0.15099 0.12895 0.0
C16 C 0.13375 0.89053 0.20155 0.0
C17 C 0.04376 0.78422 0.22839 0.0
C18 C 0.0303 0.82625 0.21539 0.0
C19 C 0.07512 0.87946 0.20269 0.0
C20 C 0.14778 0.8497 0.21487 0.0
C21 C 0.1035 0.79753 0.22852 0.0
C22 C 0.17894 0.93947 0.18337 0.0
C23 C 0.36271 0.12678 0.16183 0.0
C24 C 0.24862 0.15693 0.21796 0.0
C25 C 0.36955 0.33679 1.1059 0.0
C26 C 0.4108 0.38864 1.05019 0.0
C27 C 0.44393 0.41779 1.07567 0.0
C28 C 0.42348 0.39171 1.10342 0.0
C29 C 0.33532 0.30888 1.08066 0.0
C30 C 0.35559 0.33479 1.05305 0.0
C31 C 0.35418 0.3041 0.13385 0.0
H32 H -0.01491 0.81796 0.21455 0.0
H33 H 0.06374 0.91123 0.19308 0.0
H34 H 0.19292 0.85759 0.21424 0.0
H35 H 0.1165 0.76792 0.23922 0.0
H36 H 0.48633 0.45949 1.07403 0.0
H37 H 0.45076 0.41316 1.12279 0.0
H38 H 0.29395 0.26603 1.0822 0.0
H39 H 0.32821 0.31223 1.03386 0.0
Dy40 Dy 0.1869 0.36574 0.48013 0.0
Dy41 Dy 0.1927 0.24832 0.49856 0.0
C42 C 0.08553 0.24052 0.45807 0.0
O43 O 0.16888 0.35347 0.5312 0.0
O44 O 0.13058 0.25174 0.53305 0.0
O45 O 0.15245 0.42524 0.49003 0.0
O46 O 0.21813 0.44939 0.45588 0.0
O47 O 0.27443 0.32701 0.51894 0.0
O48 O 0.28309 0.39712 0.48521 0.0
O49 O 0.23142 0.26811 0.45225 0.0
O50 O 0.19648 0.32811 0.43415 0.0
O51 O 0.23039 0.19126 0.49112 0.0
O52 O 0.1642 0.16741 0.52516 0.0
C53 C 0.13728 0.3014 0.54573 0.0
O54 O 0.09678 0.29338 0.46756 0.0
O55 O 0.11834 0.21653 0.46554 0.0
C56 C 0.14167 0.47146 0.44781 0.0
C57 C 0.07034 0.48867 0.40628 0.0
C58 C 0.06121 0.43032 0.41201 0.0
C59 C 0.09648 0.4219 0.4325 0.0
C60 C 0.15028 0.52965 0.44296 0.0
C61 C 0.1149 0.53829 0.4222 0.0
C62 C 0.18008 0.46165 0.46819 0.0
C63 C 0.30663 0.37885 0.50532 0.0
C64 C 0.21967 0.29237 0.42919 0.0
C65 C 0.23792 0.13916 0.5323 0.0
C66 C 0.30591 0.10244 0.56616 0.0
C67 C 0.33359 0.15916 0.55207 0.0
C68 C 0.29988 0.17745 0.53534 0.0
C69 C 0.21015 0.08299 0.54657 0.0
C70 C 0.24367 0.06489 0.56345 0.0
C71 C 0.20215 0.15495 0.51285 0.0
H72 H 0.02875 0.39121 0.39957 0.0
H73 H 0.0895 0.37673 0.43581 0.0
H74 H 0.18505 0.56838 0.45471 0.0
H75 H 0.12321 0.58374 0.41812 0.0
H76 H 0.38135 0.18914 0.5537 0.0
H77 H 0.32239 0.22113 0.52448 0.0
H78 H 0.16245 0.05285 0.54448 0.0
H79 H 0.22051 0.02169 0.57469 0.0
Dy80 Dy -0.00683 0.2987 0.82525 0.0
Dy81 Dy 0.85389 0.21726 0.80501 0.0
C82 C 0.94285 0.17072 0.80288 0.0
O83 O 0.0002 0.29554 0.77422 0.0
O84 O 0.90167 0.24758 0.75978 0.0
O85 O 0.08312 0.32179 0.81517 0.0
O86 O 0.06578 0.36617 0.85189 0.0
O87 O 0.86529 0.30629 0.82099 0.0
O88 O 0.96599 0.36704 0.8173 0.0
O89 O 0.85435 0.18918 0.85328 0.0
O90 O 0.94773 0.25855 0.87076 0.0
O91 O 0.77557 0.21661 0.78853 0.0
O92 O 0.76985 0.13285 0.80384 0.0
C93 C 0.95948 0.27455 0.75275 0.0
O94 O 0.95566 0.19986 0.82783 0.0
O95 O 0.90007 0.16986 0.78723 0.0
C96 C 0.1619 0.37542 0.84905 0.0
C97 C 0.27217 0.40373 0.87386 0.0
C98 C 0.21917 0.3529 0.88377 0.0
C99 C 0.16419 0.33889 0.87145 0.0
C100 C 0.21461 0.42477 0.83848 0.0
C101 C 0.26942 0.43901 0.85083 0.0
C102 C 0.10586 0.36338 0.8356 0.0
C103 C 0.91305 0.36027 0.82056 0.0
C104 C 0.89268 0.21226 0.87577 0.0
C105 C 0.69489 0.12573 0.77038 0.0
C106 C 0.60664 0.06871 0.72658 0.0
C107 C 0.60609 0.11238 0.74518 0.0
C108 C 0.64974 0.14042 0.767 0.0
C109 C 0.69478 0.08098 0.75237 0.0
C110 C 0.65083 0.05255 0.73066 0.0
C111 C 0.74124 0.15852 0.79276 0.0
H112 H 0.21993 0.32548 0.90186 0.0
H113 H 0.12368 0.30037 0.8796 0.0
H114 H 0.21327 0.4529 0.82087 0.0
H115 H 0.30951 0.4782 0.8428 0.0
H116 H 0.57268 0.1257 0.74239 0.0
H117 H 0.64898 0.17463 0.78092 0.0
H118 H 0.72925 0.06901 0.7546 0.0
H119 H 0.65303 0.01989 0.71618 0.0
Dy120 Dy 0.71123 0.93895 0.14175 0.0
Dy121 Dy 0.82674 0.06823 0.15778 0.0
C122 C 0.83546 0.9627 1.12157 0.0
O123 O 0.72752 0.93021 0.19153 0.0
O124 O 0.81957 0.01375 0.19997 0.0
O125 O 0.66598 0.84535 0.12807 0.0
O126 O 0.61466 0.8863 0.14199 0.0
O127 O 0.74679 0.07054 0.17449 0.0
O128 O 0.68504 0.00926 0.13876 0.0
O129 O 0.81592 0.0792 1.10791 0.0
O130 O 0.74116 0.98339 1.09539 0.0
O131 O 0.86803 0.16418 0.15117 0.0
O132 O 0.91165 0.12835 0.17898 0.0
C133 C 0.77415 0.96171 0.20943 0.0
O134 O 0.78363 0.92132 0.13108 0.0
O135 O 0.85915 0.02054 0.1282 0.0
C136 C 0.57884 0.8178 1.10192 0.0
C137 C 0.53798 0.77136 1.04476 0.0
C138 C 0.57484 0.83423 1.0495 0.0
C139 C 0.59472 0.85712 1.07779 0.0
C140 C 0.53804 0.75599 1.09794 0.0
C141 C 0.51715 0.73295 1.06957 0.0
C142 C 0.61325 0.83957 0.12943 0.0
C143 C 0.69807 0.05072 0.15882 0.0
C144 C 0.782 0.03962 1.08733 0.0
C145 C 0.92237 0.2249 0.19101 0.0
C146 C 0.93467 0.3167 0.23016 0.0
C147 C 0.9411 0.32718 0.19958 0.0
C148 C 0.93529 0.28184 0.18026 0.0
C149 C 0.91581 0.21402 0.22151 0.0
C150 C 0.92231 0.25965 0.24092 0.0
C151 C 0.91146 0.17687 0.16962 0.0
H152 H 0.59302 0.86567 1.03127 0.0
H153 H 0.62633 0.90501 1.08047 0.0
H154 H 0.52533 0.72502 1.11642 0.0
H155 H 0.48785 0.68458 1.06692 0.0
H156 H 0.9501 0.37025 0.19051 0.0
H157 H 0.93986 0.29092 0.15674 0.0
H158 H 0.90532 0.1703 0.23036 0.0
H159 H 0.91847 0.25036 0.26439 0.0
Dy160 Dy 0.79441 0.866 0.49374 0.0
Dy161 Dy 0.84731 0.7785 0.47862 0.0
C162 C 0.91689 0.91524 0.46514 0.0
O163 O 0.79252 0.86329 0.44252 0.0
O164 O 0.81763 0.79092 0.43173 0.0
O165 O 0.79781 0.9443 0.5144 0.0
O166 O 0.73049 0.89235 0.4812 0.0
O167 O 0.7476 0.71922 0.47893 0.0
O168 O 0.72429 0.77541 0.50938 0.0
O169 O 0.88059 0.81273 0.52684 0.0
O170 O 0.8235 0.85471 0.53986 0.0
O171 O 0.8349 0.68993 0.48778 0.0
O172 O 0.91083 0.75407 0.46226 0.0
C173 C 0.80171 0.83075 0.42254 0.0
O174 O 0.89265 0.91443 0.49036 0.0
O175 O 0.90975 0.86396 0.45541 0.0
C176 C 0.7031 0.93746 0.51808 0.0
C177 C 0.61152 0.93968 0.55028 0.0
C178 C 0.64912 0.9214 0.56378 0.0
C179 C 0.69421 0.9199 0.54778 0.0
C180 C 0.66518 0.95456 0.50432 0.0
C181 C 0.61964 0.95554 0.52024 0.0
C182 C 0.7498 0.93592 0.50062 0.0
C183 C 0.71092 0.72361 0.49724 0.0
C184 C 0.86203 0.83696 0.54744 0.0
C185 C 0.86435 0.65179 0.44806 0.0
C186 C 0.84627 0.58679 0.39535 0.0
C187 C 0.79915 0.5911 0.40802 0.0
C188 C 0.8083 0.62393 0.43405 0.0
C189 C 0.909 0.64127 0.43744 0.0
C190 C 0.9 0.60875 0.41126 0.0
C191 C 0.8789 0.69798 0.47096 0.0
H192 H 0.64533 0.91035 0.58706 0.0
H193 H 0.72254 0.90582 0.55872 0.0
H194 H 0.67102 0.96745 0.48123 0.0
H195 H 0.5914 0.96954 0.50916 0.0
H196 H 0.7573 0.57443 0.39623 0.0
H197 H 0.77299 0.63125 0.44195 0.0
H198 H 0.95238 0.66221 0.44808 0.0
H199 H 0.93736 0.60668 0.40193 0.0
Dy200 Dy 0.11774 0.88418 0.81441 0.0
Dy201 Dy 0.01392 0.91054 0.82923 0.0
C202 C 0.13656 0.00985 0.79907 0.0
O203 O 0.14535 0.93639 0.85981 0.0
O204 O 0.05219 0.91148 0.87476 0.0
O205 O 0.21012 0.9077 0.81532 0.0
O206 O 0.14185 0.81812 0.80083 0.0
O207 O 0.9712 0.80871 0.82569 0.0
O208 O 0.0532 0.80998 0.84301 0.0
O209 O 0.01482 0.91511 0.77956 0.0
O210 O 0.06219 0.86221 0.76965 0.0
O211 O 0.93568 0.9135 0.81557 0.0
O212 O 0.97091 0.94229 0.8596 0.0
C213 C 0.10917 0.93425 0.88132 0.0
O214 O 0.14439 0.96672 0.78902 0.0
O215 O 0.09725 -0.0003 0.81994 0.0
C216 C 0.23541 0.8632 0.77701 0.0
C217 C 0.31014 0.89847 0.7273 0.0
C218 C 0.24801 0.87242 0.72392 0.0
C219 C 0.21107 0.85524 0.74853 0.0
C220 C 0.29667 0.88487 0.78044 0.0
C221 C 0.33388 0.90251 0.75575 0.0
C222 C 0.199 0.85672 0.80303 0.0
C223 C -0.00328 0.77947 0.83636 0.0
C224 C 0.02855 0.88545 0.76024 0.0
C225 C 0.86659 0.89408 0.85345 0.0
C226 C 0.75192 0.82661 0.87814 0.0
C227 C 0.77376 0.7987 0.85908 0.0
C228 C 0.83071 0.83206 0.84696 0.0
C229 C 0.84463 0.92236 0.8719 0.0
C230 C 0.78799 0.88898 0.88424 0.0
C231 C 0.92707 0.92973 0.84146 0.0
H232 H 0.22821 0.8698 0.70245 0.0
H233 H 0.16402 0.83919 0.7453 0.0
H234 H 0.3162 0.8914 0.80231 0.0
H235 H 0.3815 0.92241 0.759 0.0
H236 H 0.74711 0.75094 0.85376 0.0
H237 H 0.84688 0.80925 0.83275 0.0
H238 H 0.87178 0.97012 0.87722 0.0
H239 H 0.77345 0.91181 0.89938 0.0
H240 H 0.86725 0.87828 0.12761 0.0
H241 H 0.869 0.00848 1.06676 0.0
H242 H 0.95101 0.01085 1.0398 0.0
H243 H 0.9654 0.92019 0.15435 0.0
H244 H 0.00479 0.87864 0.15181 0.0
H245 H 0.92648 0.84032 0.1451 0.0
H246 H 0.94753 0.80544 1.0954 0.0
H247 H 0.0266 0.84799 1.10283 0.0
H248 H -0.00275 0.86015 1.06909 0.0
H249 H 0.05311 0.06588 1.05041 0.0
H250 H 0.12949 0.13298 1.08564 0.0
H251 H 0.07844 0.98206 0.1449 0.0
C252 C 0.88385 0.90404 1.10744 0.0
C253 C 0.86542 0.9453 1.09985 0.0
C254 C 0.88493 0.97831 1.07346 0.0
C255 C 0.93115 0.97895 1.05775 0.0
C256 C 0.96051 0.95105 1.07044 0.0
C257 C 0.93375 0.90827 1.09309 0.0
C258 C 0.98056 0.89964 1.10887 0.0
C259 C 0.9685 0.88411 0.14205 0.0
C260 C -0.01155 0.8505 1.09307 0.0
C261 C 0.03357 0.9613 1.10279 0.0
C262 C 0.02406 0.9855 1.0772 0.0
C263 C 0.06079 0.04672 1.07013 0.0
C264 C 0.1029 0.08518 1.09077 0.0
C265 C 0.10819 0.06264 1.11837 0.0
C266 C 0.07485 -6e-05 1.12385 0.0
H267 H 0.86283 0.98159 0.46724 0.0
H268 H 0.9778 0.94558 0.41275 0.0
H269 H -0.00687 0.02894 0.37984 0.0
H270 H 0.83466 0.07439 0.39387 0.0
H271 H 0.82327 0.11784 0.4217 0.0
H272 H 0.7885 0.03661 0.42522 0.0
H273 H 0.83338 0.05233 0.47675 0.0
H274 H 0.87079 0.13271 0.47311 0.0
H275 H 0.91307 0.09596 0.48215 0.0
H276 H 0.03668 0.13412 0.37242 0.0
H277 H 0.10791 0.21754 0.40296 0.0
H278 H 0.96819 0.20048 0.4597 0.0
C279 C 0.88947 0.9902 0.4477 0.0
C280 C 0.92129 0.95956 0.44308 0.0
C281 C 0.95452 0.97012 0.4171 0.0
C282 C 0.96194 0.01636 0.39788 0.0
C283 C 0.93487 0.0507 0.40472 0.0
C284 C 0.89563 0.03512 0.42816 0.0
C285 C 0.88409 0.08606 0.4355 0.0
C286 C 0.8295 0.07826 0.418 0.0
C287 C 0.87512 0.09215 0.46888 0.0
C288 C 0.94057 0.13771 0.42276 0.0
C289 C 0.96205 0.11582 0.40029 0.0
C290 C 0.02035 0.15039 0.39011 0.0
C291 C 0.06117 0.19755 0.40788 0.0
C292 C 0.04237 0.21206 0.43414 0.0
C293 C 0.98163 0.18798 0.43954 0.0
H294 H 0.19351 0.12375 0.81905 0.0
H295 H 0.12379 0.01607 0.74028 0.0
H296 H 0.09926 0.08941 0.71978 0.0
H297 H 0.1071 0.1398 0.84025 0.0
H298 H 0.13228 0.21791 0.84928 0.0
H299 H 0.18526 0.19341 0.8467 0.0
H300 H 0.24424 0.27608 0.80833 0.0
H301 H 0.19046 0.30104 0.81064 0.0
H302 H 0.20814 0.28175 0.77535 0.0
H303 H 0.02697 0.12103 0.72444 0.0
H304 H 0.94353 0.12676 0.74717 0.0
H305 H 0.05264 0.21001 0.82472 0.0
C306 C 0.17792 0.11961 0.79648 0.0
C307 C 0.15839 0.06483 0.78157 0.0
C308 C 0.13834 0.05822 0.75211 0.0
C309 C 0.1243 0.10006 0.74026 0.0
C310 C 0.13161 0.14797 0.75817 0.0
C311 C 0.16306 0.16124 0.78491 0.0
C312 C 0.15142 0.20345 0.80353 0.0
C313 C 0.1433 0.18737 0.83683 0.0
C314 C 0.2015 0.26944 0.79916 0.0
C315 C 0.09502 0.19323 0.78858 0.0
C316 C 0.08769 0.16716 0.76092 0.0
C317 C 0.03351 0.14368 0.74549 0.0
C318 C -0.01432 0.14542 0.75886 0.0
C319 C -0.0082 0.1684 0.7878 0.0
C320 C 0.04727 0.19321 0.80234 0.0
H321 H 0.40907 0.32721 1.00118 0.0
H322 H 0.45682 0.50638 1.03246 0.0
H323 H 0.46166 0.54029 0.98117 0.0
H324 H 0.48094 0.37703 0.92102 0.0
H325 H 0.41787 0.30965 0.90617 0.0
H326 H 0.44777 0.30766 0.94196 0.0
H327 H 0.3432 0.26631 0.96465 0.0
H328 H 0.31324 0.26875 0.92946 0.0
H329 H 0.3051 0.30881 0.96029 0.0
H330 H 0.42577 0.54441 0.93239 0.0
H331 H 0.35029 0.51768 0.89347 0.0
H332 H 0.31843 0.33402 0.89202 0.0
C333 C 0.42322 0.37431 0.99692 0.0
C334 C 0.43193 0.41406 1.02049 0.0
C335 C 0.45044 0.47536 1.0146 0.0
C336 C 0.45353 0.49501 0.98544 0.0
C337 C 0.43839 0.45287 0.96256 0.0
C338 C 0.42465 0.39372 0.96798 0.0
C339 C 0.3953 0.35326 0.94141 0.0
C340 C 0.43805 0.33592 0.92677 0.0
C341 C 0.33571 0.2961 0.94946 0.0
C342 C 0.38626 0.39637 0.92207 0.0
C343 C 0.41499 0.45461 0.93369 0.0
C344 C 0.40486 0.49968 0.92252 0.0
C345 C 0.36172 0.48406 0.90038 0.0
C346 C 0.32864 0.42364 0.89001 0.0
C347 C 0.34367 0.38049 0.89967 0.0
H348 H 0.95375 0.41787 0.39046 0.0
H349 H 0.11823 0.57579 0.36355 0.0
H350 H 0.07965 0.56399 0.31296 0.0
H351 H 0.95279 0.33262 0.34146 0.0
H352 H 0.87457 0.28774 0.33251 0.0
H353 H 0.89695 0.32365 0.36784 0.0
H354 H 0.8386 0.38072 0.35932 0.0
H355 H 0.81339 0.34155 0.32441 0.0
H356 H 0.84981 0.42298 0.32573 0.0
H357 H 0.04593 0.5147 0.26532 0.0
H358 H 0.01779 0.43774 0.22651 0.0
H359 H 0.87454 0.30657 0.28142 0.0
C360 C 0.98008 0.45167 0.3741 0.0
C361 C 0.03911 0.49705 0.38073 0.0
C362 C 0.07267 0.54082 0.35908 0.0
C363 C 0.051 0.53425 0.33012 0.0
C364 C -0.0043 0.48395 0.32326 0.0
C365 C 0.95964 0.44414 0.34491 0.0
C366 C 0.90982 0.38627 0.33139 0.0
C367 C 0.90862 0.32935 0.34403 0.0
C368 C 0.84934 0.38272 0.33546 0.0
C369 C 0.92826 0.39635 0.2993 0.0
C370 C 0.97599 0.45408 0.29482 0.0
C371 C 0.00715 0.47028 0.26825 0.0
C372 C -0.00914 0.426 0.24625 0.0
C373 C 0.944 0.3659 0.25096 0.0
C374 C 0.9107 0.35207 0.27727 0.0
H375 H 0.5425 0.95216 0.70745 0.0
H376 H 0.58547 0.135 0.68636 0.0
H377 H 0.54844 0.10322 0.63579 0.0
H378 H 0.60322 0.93 0.65497 0.0
H379 H 0.55145 0.8522 0.6452 0.0
H380 H 0.55053 0.87849 0.68158 0.0
H381 H 0.43888 0.84513 0.67578 0.0
H382 H 0.43927 0.81779 0.63903 0.0
H383 H 0.41429 0.8714 0.6448 0.0
H384 H 0.54864 0.06719 0.58697 0.0
H385 H 0.58872 0.03346 0.54716 0.0
H386 H 0.54243 0.86943 0.5957 0.0
C387 C 0.54075 0.98427 0.69242 0.0
C388 C 0.56676 0.0457 0.70054 0.0
C389 C 0.56507 0.08744 0.68061 0.0
C390 C 0.54397 0.06962 0.65176 0.0
C391 C 0.52374 0.0097 0.64335 0.0
C392 C 0.52031 0.96694 0.66342 0.0
C393 C 0.51121 0.91036 0.64776 0.0
C394 C 0.5569 0.89189 0.65796 0.0
C395 C 0.4471 0.85808 0.65209 0.0
C396 C 0.52093 0.93228 0.61609 0.0
C397 C 0.52392 0.98796 0.6138 0.0
C398 C 0.54438 0.02279 0.58821 0.0
C399 C 0.5672 0.00316 0.56553 0.0
C400 C 0.5695 0.94914 0.56862 0.0
C401 C 0.54154 0.91116 0.59306 0.0
H402 H 0.53076 0.82134 0.99212 0.0
H403 H 0.53578 0.66637 1.02837 0.0
H404 H 0.56313 0.64578 0.98001 0.0
H405 H 0.5001 0.76691 0.90942 0.0
H406 H 0.55129 0.84338 0.89784 0.0
H407 H 0.50544 0.83006 0.92996 0.0
H408 H 0.60031 0.89817 0.96091 0.0
H409 H 0.64632 0.9108 0.92935 0.0
H410 H 0.65909 0.87992 0.96259 0.0
H411 H 0.62333 0.66239 0.9362 0.0
H412 H 0.706 0.71243 0.90121 0.0
H413 H 0.66943 0.86008 0.89189 0.0
C414 C 0.53534 0.78166 0.98958 0.0
C415 C 0.53189 0.74627 1.01434 0.0
C416 C 0.53733 0.69417 1.00995 0.0
C417 C 0.55323 0.68208 0.98233 0.0
C418 C 0.56336 0.72221 0.95923 0.0
C419 C 0.55344 0.77049 0.96238 0.0
C420 C 0.58044 0.81479 0.93701 0.0
C421 C 0.53138 0.81368 0.91739 0.0
C422 C 0.62411 0.87963 0.94815 0.0
C423 C 0.6126 0.78746 0.92103 0.0
C424 C 0.60007 0.73272 0.9334 0.0
C425 C 0.63179 0.70397 0.92557 0.0
C426 C 0.6789 0.73287 0.90558 0.0
C427 C 0.69432 0.79034 0.89376 0.0
C428 C 0.65871 0.81622 0.90057 0.0
H429 H 0.81503 0.64033 0.35372 0.0
H430 H 0.88544 0.51937 0.3651 0.0
H431 H 0.92022 0.53797 0.31344 0.0
H432 H 0.79012 0.62432 0.268 0.0
H433 H 0.81705 0.7046 0.26616 0.0
H434 H 0.77411 0.66144 0.29751 0.0
H435 H 0.85897 0.73576 0.33234 0.0
H436 H 0.90206 0.77816 0.30138 0.0
H437 H 0.93313 0.74773 0.3274 0.0
H438 H 0.97123 0.59022 0.26764 0.0
H439 H 0.03666 0.67263 0.23417 0.0
H440 H 0.94441 0.76967 0.2571 0.0
C441 C 0.83399 0.61441 0.34469 0.0
C442 C 0.84663 0.57764 0.36312 0.0
C443 C 0.87447 0.54693 0.3511 0.0
C444 C 0.89424 0.55721 0.32175 0.0
C445 C 0.88604 0.59843 0.30492 0.0
C446 C 0.85588 0.62619 0.31596 0.0
C447 C 0.8661 0.67978 0.29727 0.0
C448 C 0.80841 0.66671 0.28127 0.0
C449 C 0.89165 0.73872 0.3157 0.0
C450 C 0.91123 0.68151 0.27574 0.0
C451 C 0.91977 0.63252 0.27943 0.0
C452 C 0.96411 0.62817 0.26424 0.0
C453 C 0.0019 0.67597 0.24565 0.0
C454 C -0.00327 0.72869 0.24328 0.0
C455 C 0.94919 0.72993 0.25773 0.0
H456 H 0.29778 0.8618 0.66974 0.0
H457 H 0.40704 0.01227 0.72804 0.0
H458 H 0.44329 0.08076 0.68563 0.0
H459 H 0.39727 0.93064 0.59788 0.0
H460 H 0.33005 0.90036 0.57604 0.0
H461 H 0.33351 0.85881 0.60751 0.0
H462 H 0.23932 0.8551 0.62874 0.0
H463 H 0.23584 0.89716 0.59796 0.0
H464 H 0.23933 0.92503 0.63495 0.0
H465 H 0.43923 0.13648 0.64301 0.0
H466 H 0.3974 0.17247 0.60446 0.0
H467 H 0.29108 0.98875 0.5714 0.0
C468 C 0.33206 0.90856 0.67317 0.0
C469 C 0.34922 0.93175 0.70208 0.0
C470 C 0.39365 0.99315 0.70608 0.0
C471 C 0.41445 0.03264 0.68199 0.0
C472 C 0.39179 0.00977 0.65395 0.0
C473 C 0.35269 0.94856 0.64925 0.0
C474 C 0.32456 0.93734 0.61876 0.0
C475 C 0.34778 0.90489 0.59888 0.0
C476 C 0.25578 0.90167 0.62025 0.0
C477 C 0.34805 0.00197 0.6087 0.0
C478 C 0.38897 0.04304 0.62864 0.0
C479 C 0.40904 0.10495 0.62665 0.0
C480 C 0.38488 0.12507 0.60463 0.0
C481 C 0.34068 0.08331 0.58499 0.0
C482 C 0.32463 0.02161 0.58621 0.0
H483 H 0.39201 0.04674 0.13865 0.0
H484 H 0.46448 0.2117 0.19083 0.0
H485 H 0.55967 0.21144 0.19617 0.0
H486 H 0.45794 0.97591 0.1792 0.0
H487 H 0.47155 0.94323 0.14695 0.0
H488 H 0.41027 0.95759 0.14718 0.0
H489 H 0.451 0.02262 1.09982 0.0
H490 H 0.5123 0.00827 1.09939 0.0
H491 H 0.52659 0.08514 1.09944 0.0
H492 H 0.64648 0.18957 0.19688 0.0
H493 H 0.71702 0.1513 0.19073 0.0
H494 H 0.58531 0.00275 0.13716 0.0
C495 C 0.4278 0.08298 0.15121 0.0
C496 C 0.42075 0.12911 0.16446 0.0
C497 C 0.46896 0.17589 0.18049 0.0
C498 C 0.52308 0.17602 0.18368 0.0
C499 C 0.52823 0.12933 0.1705 0.0
C500 C 0.48184 0.084 0.1544 0.0
C501 C 0.49804 0.03903 0.14219 0.0
C502 C 0.45702 0.97518 0.15464 0.0
C503 C 0.49693 0.0388 1.1082 0.0
C504 C 0.5608 0.06573 0.15403 0.0
C505 C 0.57768 0.11764 0.17042 0.0
C506 C 0.63371 0.14913 0.18395 0.0
C507 C 0.6734 0.12702 0.18042 0.0
C508 C 0.65681 0.07424 0.16336 0.0
C509 C 0.59969 0.04351 0.15014 0.0
H510 H 0.39694 0.42798 0.466 0.0
H511 H 0.3587 0.42329 0.55928 0.0
H512 H 0.46172 0.50815 0.56815 0.0
H513 H 0.55635 0.46682 0.47584 0.0
H514 H 0.57916 0.51367 0.44328 0.0
H515 H 0.50519 0.44863 0.4453 0.0
H516 H 0.46063 0.5176 0.43416 0.0
H517 H 0.53421 0.58294 0.43261 0.0
H518 H 0.47993 0.58205 0.45766 0.0
H519 H 0.56236 0.60453 0.56477 0.0
H520 H 0.65823 0.69465 0.55119 0.0
H521 H 0.63434 0.63055 0.46073 0.0
C522 C 0.41106 0.44363 0.48843 0.0
C523 C 0.37045 0.41905 0.51207 0.0
C524 C 0.3897 0.44097 0.54105 0.0
C525 C 0.4479 0.48936 0.54618 0.0
C526 C 0.4864 0.51403 0.52216 0.0
C527 C 0.46924 0.49069 0.49396 0.0
C528 C 0.51818 0.52629 0.47176 0.0
C529 C 0.54108 0.48648 0.45825 0.0
C530 C 0.49694 0.55384 0.44764 0.0
C531 C 0.56485 0.57496 0.49159 0.0
C532 C 0.54554 0.56733 0.52056 0.0
C533 C 0.57851 0.60996 0.54234 0.0
C534 C 0.63266 0.66119 0.53439 0.0
C535 C 0.65388 0.66901 0.50503 0.0
C536 C 0.6197 0.62496 0.48346 0.0
H537 H -0.00024 0.47045 0.84052 0.0
H538 H 0.81671 0.37614 0.80927 0.0
H539 H 0.81396 0.47201 0.813 0.0
H540 H 0.98214 0.56853 0.89331 0.0
H541 H 0.05567 0.63137 0.88622 0.0
H542 H 0.04109 0.55478 0.8823 0.0
H543 H 0.07988 0.57751 0.82846 0.0
H544 H 0.09465 0.65406 0.83223 0.0
H545 H 0.04732 0.60677 0.80268 0.0
H546 H 0.83645 0.58361 0.81644 0.0
H547 H 0.88016 0.69519 0.82076 0.0
H548 H 0.04572 0.71078 0.85217 0.0
C549 C 0.95881 0.46963 0.83461 0.0
C550 C 0.90852 0.41579 0.82443 0.0
C551 C 0.85575 0.4168 0.81721 0.0
C552 C 0.85387 0.4711 0.81923 0.0
C553 C 0.90477 0.52369 0.82903 0.0
C554 C 0.95595 0.52282 0.83692 0.0
C555 C 0.00521 0.58486 0.84634 0.0
C556 C 0.02199 0.58486 0.87898 0.0
C557 C 0.05996 0.60708 0.82622 0.0
C558 C 0.97461 0.62152 0.84185 0.0
C559 C 0.91666 0.58592 0.83191 0.0
C560 C 0.8815 0.61154 0.82464 0.0
C561 C 0.90661 0.67498 0.82722 0.0
C562 C 0.96624 0.71201 0.83705 0.0
C563 C -0.00023 0.68416 0.84492 0.0
H564 H 0.21937 0.24217 0.24549 0.0
H565 H 0.27395 0.11117 0.26711 0.0
H566 H 0.27434 0.13419 0.31988 0.0
H567 H 0.30333 0.35239 0.30452 0.0
H568 H 0.2457 0.36965 0.31336 0.0
H569 H 0.25036 0.34522 0.27657 0.0
H570 H 0.1413 0.25803 0.27998 0.0
H571 H 0.13634 0.28242 0.31674 0.0
H572 H 0.11933 0.20557 0.31038 0.0
H573 H 0.27218 0.172 0.37142 0.0
H574 H 0.2606 0.21459 0.41745 0.0
H575 H 0.20045 0.32061 0.36822 0.0
C576 C 0.23163 0.21835 0.26127 0.0
C577 C 0.24717 0.17431 0.25093 0.0
C578 C 0.26187 0.14465 0.27328 0.0
C579 C 0.26237 0.15772 0.30379 0.0
C580 C 0.24711 0.20062 0.31307 0.0
C581 C 0.23118 0.23019 0.29258 0.0
C582 C 0.2146 0.27271 0.30949 0.0
C583 C 0.25595 0.33894 0.30043 0.0
C584 C 0.14899 0.25356 0.30379 0.0
C585 C 0.2246 0.26301 0.3424 0.0
C586 C 0.24371 0.2212 0.34345 0.0
C587 C 0.2569 0.20446 0.37059 0.0
C588 C 0.25011 0.2297 0.39713 0.0
C589 C 0.22946 0.27217 0.39794 0.0
C590 C 0.21668 0.28895 0.36943 0.0
H591 H 0.17533 0.36346 0.60263 0.0
H592 H 0.01997 0.22239 0.55729 0.0
H593 H 0.96071 0.2036 0.60261 0.0
H594 H 0.14243 0.28166 0.67359 0.0
H595 H 0.16914 0.34828 0.69645 0.0
H596 H 0.19983 0.35411 0.66013 0.0
H597 H 0.17299 0.43583 0.64628 0.0
H598 H 0.1422 0.43013 0.68256 0.0
H599 H 0.09716 0.41947 0.65019 0.0
H600 H 0.91453 0.1999 0.65407 0.0
H601 H 0.88932 0.20622 0.70591 0.0
H602 H 0.07326 0.34311 0.72299 0.0
C603 C 0.12861 0.32916 0.60201 0.0
C604 C 0.10292 0.29541 0.57504 0.0
C605 C 0.04169 0.24984 0.57663 0.0
C606 C 0.00718 0.23865 0.60269 0.0
C607 C 0.0334 0.27209 0.62854 0.0
C608 C 0.09313 0.31609 0.62861 0.0
C609 C 0.11037 0.34299 0.66024 0.0
C610 C 0.15832 0.33108 0.67338 0.0
C611 C 0.132 0.41118 0.65979 0.0
C612 C 0.05133 0.30802 0.67767 0.0
C613 C 0.00749 0.26775 0.65861 0.0
C614 C 0.94907 0.23132 0.66894 0.0
C615 C 0.93487 0.23547 0.6989 0.0
C616 C 0.9782 0.27521 0.71978 0.0
C617 C 0.03795 0.31193 0.7084 0.0
H618 H 0.94038 0.24675 0.93615 0.0
H619 H 0.79399 0.10197 0.88706 0.0
H620 H 0.75324 0.04585 0.93308 0.0
H621 H 0.95537 0.14752 0.99138 0.0
H622 H 0.97024 0.198 1.0222 0.0
H623 H -0.00961 0.22809 0.98534 0.0
H624 H 0.92859 0.28134 0.99125 0.0
H625 H 0.90825 0.25131 1.0281 0.0
H626 H 0.8511 0.23732 1.00128 0.0
H627 H 0.72526 0.00107 0.98582 0.0
H628 H 0.71322 0.97552 1.03889 0.0
H629 H 0.87313 0.14659 1.05813 0.0
C630 C 0.89982 0.2032 0.93492 0.0
C631 C 0.87128 0.18018 0.90656 0.0
C632 C 0.81788 0.12249 0.90737 0.0
C633 C 0.79386 0.08945 0.93388 0.0
C634 C 0.82233 0.11318 0.96098 0.0
C635 C 0.87423 0.169 0.96185 0.0
C636 C 0.89476 0.18373 0.99452 0.0
C637 C 0.95638 0.18972 0.9986 0.0
C638 C 0.89576 0.24191 1.00437 0.0
C639 C 0.8466 0.12803 1.0116 0.0
C640 C 0.80549 0.0878 0.99153 0.0
C641 C 0.75741 0.03282 1.0015 0.0
C642 C 0.75078 0.01843 1.03218 0.0
C643 C 0.79131 0.05827 1.05396 0.0
C644 C 0.84028 0.11436 1.04287 0.0
H645 H 0.79821 0.01104 0.26892 0.0
H646 H 0.75552 0.84736 0.2207 0.0
H647 H 0.76021 0.7991 0.26731 0.0
H648 H 0.89765 0.00338 0.32564 0.0
H649 H 0.86886 0.03003 0.35452 0.0
H650 H 0.86678 0.05118 0.31688 0.0
H651 H 0.75321 0.00853 0.32336 0.0
H652 H 0.75623 0.98451 0.36048 0.0
H653 H 0.7063 0.93028 0.3337 0.0
H654 H 0.77423 0.76784 0.32134 0.0
H655 H 0.78437 0.75441 0.37482 0.0
H656 H 0.80728 0.93226 0.39157 0.0
C657 C 0.79002 0.96506 0.26801 0.0
C658 C 0.77705 0.93399 0.2399 0.0
C659 C 0.76574 0.87326 0.241 0.0
C660 C 0.76847 0.84513 0.26779 0.0
C661 C 0.78117 0.87661 0.29479 0.0
C662 C 0.79066 0.9351 0.29516 0.0
C663 C 0.80018 0.95746 0.32759 0.0
C664 C 0.8621 0.01385 0.33136 0.0
C665 C 0.75107 0.97103 0.33683 0.0
C666 C 0.79547 0.90323 0.34533 0.0
C667 C 0.78525 0.85731 0.32575 0.0
C668 C 0.7814 0.80366 0.33656 0.0
C669 C 0.78735 0.79626 0.36747 0.0
C670 C 0.79605 0.84122 0.38875 0.0
C671 C 0.80005 0.89582 0.37679 0.0
H672 H 0.93754 0.801 0.5801 0.0
H673 H 0.84095 0.89811 0.59111 0.0
H674 H 0.8739 0.91905 0.64272 0.0
H675 H 0.90578 0.73334 0.65498 0.0
H676 H 0.9781 0.74104 0.66086 0.0
H677 H 0.94884 0.73311 0.62387 0.0
H678 H 0.04304 0.83228 0.60877 0.0
H679 H 0.07255 0.84054 0.64573 0.0
H680 H 0.06471 0.90073 0.62947 0.0
H681 H 0.91693 0.93265 0.69383 0.0
H682 H 0.96267 0.93494 0.74107 0.0
H683 H 0.03481 0.82765 0.70412 0.0
C684 C 0.92325 0.82676 0.59329 0.0
C685 C 0.88556 0.8476 0.58013 0.0
C686 C 0.86897 0.88094 0.5993 0.0
C687 C 0.88785 0.89342 0.6292 0.0
C688 C 0.92417 0.87259 0.64122 0.0
C689 C 0.94183 0.83967 0.62406 0.0
C690 C 0.98069 0.82258 0.64369 0.0
C691 C 0.95164 0.75339 0.64598 0.0
C692 C 0.04401 0.85067 0.63116 0.0
C693 C 0.98167 0.85077 0.67431 0.0
C694 C 0.94869 0.87959 0.67171 0.0
C695 C 0.94245 0.90979 0.6959 0.0
C696 C 0.96936 0.91065 0.72327 0.0
C697 C 0.00344 0.88133 0.72805 0.0
C698 C 0.00953 0.85079 0.7024 0.0
H699 H 0.20125 0.04406 0.91062 0.0
H700 H 0.05906 0.86131 0.92884 0.0
H701 H 0.07826 0.88057 0.98222 0.0
H702 H 0.30164 0.0571 0.97283 0.0
H703 H 0.32411 0.13456 0.98191 0.0
H704 H 0.30237 0.10734 0.94458 0.0
H705 H 0.22407 0.14122 0.94561 0.0
H706 H 0.2448 0.16777 0.98309 0.0
H707 H 0.16842 0.11334 0.97419 0.0
H708 H 0.11103 0.91743 1.03472 0.0
H709 H 0.15205 0.96785 1.08175 0.0
H710 H 0.27384 0.1337 1.03559 0.0
C711 C 0.17481 0.00763 0.92579 0.0
C712 C 0.12875 0.94968 0.91437 0.0
C713 C 0.09479 0.90526 0.93594 0.0
C714 C 0.10544 0.91605 0.96675 0.0
C715 C 0.15019 0.97266 0.97715 0.0
C716 C 0.18438 0.01823 0.95742 0.0
C717 C 0.228 0.07568 0.97549 0.0
C718 C 0.29291 0.09482 0.96826 0.0
C719 C 0.21561 0.1276 0.9692 0.0
C720 C 0.21357 0.05485 1.00817 0.0
C721 C 0.16831 -0.00509 1.00807 0.0
C722 C 0.14655 0.96426 1.03473 0.0
C723 C 0.17097 -0.00584 1.06191 0.0
C724 C 0.21761 0.05599 1.06398 0.0
C725 C 0.23873 0.08672 1.03593 0.0
loop_
_geom_bond_atom_site_label_1
_geom_bond_atom_site_label_2
_geom_bond_distance
_geom_bond_site_symmetry_2
_ccdc_geom_bond_type
Dy0 O3 2.307 1_554 S
Dy0 O5 2.395 . S
Dy0 O6 2.379 . S
Dy0 O8 2.339 . S
Dy0 O10 2.298 1_565 S
Dy0 O14 2.275 . S
Dy0 C22 2.738 . S
Dy1 O4 2.304 . S
Dy1 O7 2.272 1_556 S
Dy1 O9 2.296 1_556 S
Dy1 O11 2.404 . S
Dy1 O12 2.389 . S
Dy1 O15 2.337 1_556 S
Dy1 C31 2.749 . S
C2 O14 1.254 1_545 S
C2 O15 1.257 . S
O3 Dy0 2.307 1_556 S
O3 C13 1.266 . S
O4 Dy1 2.304 . S
O4 C13 1.236 1_545 S
O5 Dy0 2.395 . S
O5 C22 1.255 . S
O6 Dy0 2.379 . S
O6 C22 1.249 . S
O7 Dy1 2.272 1_554 S
O7 C23 1.254 . S
O8 Dy0 2.339 . S
O8 C23 1.257 1_565 S
O9 Dy1 2.296 1_554 S
O9 C24 1.266 . S
O10 Dy0 2.298 1_545 S
O10 C24 1.236 . S
O11 Dy1 2.404 . S
O11 C31 1.255 . S
O12 Dy1 2.389 . S
O12 C31 1.249 . S
C13 O3 1.266 . S
C13 O4 1.236 1_565 S
O14 Dy0 2.275 . S
O14 C2 1.254 1_565 S
O15 Dy1 2.337 1_554 S
O15 C2 1.257 . S
C16 C19 1.344 . S
C16 C20 1.328 . S
C16 C22 1.516 . S
C17 C18 1.304 . S
C17 C21 1.323 . S
C18 C17 1.304 . S
C18 C19 1.371 . S
C18 H32 0.930 . S
C19 C16 1.344 . S
C19 C18 1.371 . S
C19 H33 0.931 . S
C20 C16 1.328 . S
C20 C21 1.433 . S
C20 H34 0.931 . S
C21 C17 1.323 . S
C21 C20 1.433 . S
C21 H35 0.933 . S
C22 Dy0 2.738 . S
C22 O5 1.255 . S
C22 O6 1.249 . S
C22 C16 1.516 . S
C23 O7 1.254 . S
C23 O8 1.257 1_545 S
C24 O9 1.266 . S
C24 O10 1.236 . S
C25 C28 1.344 . S
C25 C29 1.328 . S
C25 C31 1.516 . S
C26 C27 1.304 . S
C26 C30 1.323 . S
C27 C26 1.304 . S
C27 C28 1.371 . S
C27 H36 0.930 . S
C28 C25 1.344 . S
C28 C27 1.371 . S
C28 H37 0.931 . S
C29 C25 1.328 . S
C29 C30 1.433 . S
C29 H38 0.931 . S
C30 C26 1.323 . S
C30 C29 1.433 . S
C30 H39 0.933 . S
C31 Dy1 2.749 . S
C31 O11 1.255 . S
C31 O12 1.249 . S
C31 C25 1.516 . S
H32 C18 0.930 . S
H33 C19 0.931 . S
H34 C20 0.931 . S
H35 C21 0.933 . S
H36 C27 0.930 . S
H37 C28 0.931 . S
H38 C29 0.931 . S
H39 C30 0.933 . S
Dy40 O43 2.307 . S
Dy40 O45 2.395 . S
Dy40 O46 2.379 . S
Dy40 O48 2.339 . S
Dy40 O50 2.298 . S
Dy40 O54 2.275 . S
Dy40 C62 2.738 . S
Dy41 O44 2.298 . S
Dy41 O47 2.275 . S
Dy41 O49 2.307 . S
Dy41 O51 2.395 . S
Dy41 O52 2.379 . S
Dy41 O55 2.339 . S
Dy41 C71 2.738 . S
C42 O54 1.254 . S
C42 O55 1.257 . S
O43 Dy40 2.307 . S
O43 C53 1.266 . S
O44 Dy41 2.298 . S
O44 C53 1.236 . S
O45 Dy40 2.395 . S
O45 C62 1.255 . S
O46 Dy40 2.379 . S
O46 C62 1.249 . S
O47 Dy41 2.275 . S
O47 C63 1.254 . S
O48 Dy40 2.339 . S
O48 C63 1.257 . S
O49 Dy41 2.307 . S
O49 C64 1.266 . S
O50 Dy40 2.298 . S
O50 C64 1.236 . S
O51 Dy41 2.395 . S
O51 C71 1.255 . S
O52 Dy41 2.379 . S
O52 C71 1.249 . S
C53 O43 1.266 . S
C53 O44 1.236 . S
O54 Dy40 2.275 . S
O54 C42 1.254 . S
O55 Dy41 2.339 . S
O55 C42 1.257 . S
C56 C59 1.344 . S
C56 C60 1.328 . S
C56 C62 1.516 . S
C57 C58 1.304 . S
C57 C61 1.323 . S
C58 C57 1.304 . S
C58 C59 1.371 . S
C58 H72 0.930 . S
C59 C56 1.344 . S
C59 C58 1.371 . S
C59 H73 0.931 . S
C60 C56 1.328 . S
C60 C61 1.433 . S
C60 H74 0.931 . S
C61 C57 1.323 . S
C61 C60 1.433 . S
C61 H75 0.933 . S
C62 Dy40 2.738 . S
C62 O45 1.255 . S
C62 O46 1.249 . S
C62 C56 1.516 . S
C63 O47 1.254 . S
C63 O48 1.257 . S
C64 O49 1.266 . S
C64 O50 1.236 . S
C65 C68 1.344 . S
C65 C69 1.328 . S
C65 C71 1.516 . S
C66 C67 1.304 . S
C66 C70 1.323 . S
C67 C66 1.304 . S
C67 C68 1.371 . S
C67 H76 0.930 . S
C68 C65 1.344 . S
C68 C67 1.371 . S
C68 H77 0.931 . S
C69 C65 1.328 . S
C69 C70 1.433 . S
C69 H78 0.931 . S
C70 C66 1.323 . S
C70 C69 1.433 . S
C70 H79 0.933 . S
C71 Dy41 2.738 . S
C71 O51 1.255 . S
C71 O52 1.249 . S
C71 C65 1.516 . S
H72 C58 0.930 . S
H73 C59 0.931 . S
H74 C60 0.931 . S
H75 C61 0.933 . S
H76 C67 0.930 . S
H77 C68 0.931 . S
H78 C69 0.931 . S
H79 C70 0.933 . S
Dy80 O83 2.307 . S
Dy80 O85 2.395 . S
Dy80 O86 2.379 . S
Dy80 O88 2.339 . S
Dy80 O90 2.298 . S
Dy80 O94 2.275 . S
Dy80 C102 2.738 . S
Dy81 O84 2.298 1_655 S
Dy81 O87 2.275 1_655 S
Dy81 O89 2.307 . S
Dy81 O91 2.395 . S
Dy81 O92 2.379 . S
Dy81 O95 2.339 1_655 S
Dy81 C111 2.738 . S
C82 O94 1.254 . S
C82 O95 1.257 . S
O83 Dy80 2.307 . S
O83 C93 1.266 . S
O84 Dy81 2.298 1_455 S
O84 C93 1.236 . S
O85 Dy80 2.395 . S
O85 C102 1.255 . S
O86 Dy80 2.379 . S
O86 C102 1.249 . S
O87 Dy81 2.275 1_455 S
O87 C103 1.254 . S
O88 Dy80 2.339 . S
O88 C103 1.257 . S
O89 Dy81 2.307 . S
O89 C104 1.266 . S
O90 Dy80 2.298 . S
O90 C104 1.236 1_455 S
O91 Dy81 2.395 . S
O91 C111 1.255 . S
O92 Dy81 2.379 . S
O92 C111 1.249 . S
C93 O83 1.266 . S
C93 O84 1.236 . S
O94 Dy80 2.275 . S
O94 C82 1.254 . S
O95 Dy81 2.339 1_455 S
O95 C82 1.257 . S
C96 C99 1.344 . S
C96 C100 1.328 . S
C96 C102 1.516 . S
C97 C98 1.304 . S
C97 C101 1.323 . S
C98 C97 1.304 . S
C98 C99 1.371 . S
C98 H112 0.930 . S
C99 C96 1.344 . S
C99 C98 1.371 . S
C99 H113 0.931 . S
C100 C96 1.328 . S
C100 C101 1.433 . S
C100 H114 0.931 . S
C101 C97 1.323 . S
C101 C100 1.433 . S
C101 H115 0.933 . S
C102 Dy80 2.738 . S
C102 O85 1.255 . S
C102 O86 1.249 . S
C102 C96 1.516 . S
C103 O87 1.254 . S
C103 O88 1.257 . S
C104 O89 1.266 . S
C104 O90 1.236 1_655 S
C105 C108 1.344 . S
C105 C109 1.328 . S
C105 C111 1.516 . S
C106 C107 1.304 . S
C106 C110 1.323 . S
C107 C106 1.304 . S
C107 C108 1.371 . S
C107 H116 0.930 . S
C108 C105 1.344 . S
C108 C107 1.371 . S
C108 H117 0.931 . S
C109 C105 1.328 . S
C109 C110 1.433 . S
C109 H118 0.931 . S
C110 C106 1.323 . S
C110 C109 1.433 . S
C110 H119 0.933 . S
C111 Dy81 2.738 . S
C111 O91 1.255 . S
C111 O92 1.249 . S
C111 C105 1.516 . S
H112 C98 0.930 . S
H113 C99 0.931 . S
H114 C100 0.931 . S
H115 C101 0.933 . S
H116 C107 0.930 . S
H117 C108 0.931 . S
H118 C109 0.931 . S
H119 C110 0.933 . S
Dy120 O123 2.307 1_556 S
Dy120 O125 2.395 . S
Dy120 O126 2.379 . S
Dy120 O128 2.339 1_556 S
Dy120 O130 2.298 1_565 S
Dy120 O134 2.275 1_556 S
Dy120 C142 2.738 . S
Dy121 O124 2.298 . S
Dy121 O127 2.275 . S
Dy121 O129 2.307 1_554 S
Dy121 O131 2.395 . S
Dy121 O132 2.379 . S
Dy121 O135 2.339 . S
Dy121 C151 2.738 . S
C122 O134 1.254 1_545 S
C122 O135 1.257 . S
O123 Dy120 2.307 1_554 S
O123 C133 1.266 . S
O124 Dy121 2.298 . S
O124 C133 1.236 1_545 S
O125 Dy120 2.395 . S
O125 C142 1.255 . S
O126 Dy120 2.379 . S
O126 C142 1.249 . S
O127 Dy121 2.275 . S
O127 C143 1.254 . S
O128 Dy120 2.339 1_554 S
O128 C143 1.257 1_565 S
O129 Dy121 2.307 1_556 S
O129 C144 1.266 . S
O130 Dy120 2.298 1_545 S
O130 C144 1.236 . S
O131 Dy121 2.395 . S
O131 C151 1.255 . S
O132 Dy121 2.379 . S
O132 C151 1.249 . S
C133 O123 1.266 . S
C133 O124 1.236 1_565 S
O134 Dy120 2.275 1_554 S
O134 C122 1.254 1_565 S
O135 Dy121 2.339 . S
O135 C122 1.257 . S
C136 C139 1.344 . S
C136 C140 1.328 . S
C136 C142 1.516 . S
C137 C138 1.304 . S
C137 C141 1.323 . S
C138 C137 1.304 . S
C138 C139 1.371 . S
C138 H152 0.930 . S
C139 C136 1.344 . S
C139 C138 1.371 . S
C139 H153 0.931 . S
C140 C136 1.328 . S
C140 C141 1.433 . S
C140 H154 0.931 . S
C141 C137 1.323 . S
C141 C140 1.433 . S
C141 H155 0.933 . S
C142 Dy120 2.738 . S
C142 O125 1.255 . S
C142 O126 1.249 . S
C142 C136 1.516 . S
C143 O127 1.254 . S
C143 O128 1.257 1_545 S
C144 O129 1.266 . S
C144 O130 1.236 . S
C145 C148 1.344 . S
C145 C149 1.328 . S
C145 C151 1.516 . S
C146 C147 1.304 . S
C146 C150 1.323 . S
C147 C146 1.304 . S
C147 C148 1.371 . S
C147 H156 0.930 . S
C148 C145 1.344 . S
C148 C147 1.371 . S
C148 H157 0.931 . S
C149 C145 1.328 . S
C149 C150 1.433 . S
C149 H158 0.931 . S
C150 C146 1.323 . S
C150 C149 1.433 . S
C150 H159 0.933 . S
C151 Dy121 2.738 . S
C151 O131 1.255 . S
C151 O132 1.249 . S
C151 C145 1.516 . S
H152 C138 0.930 . S
H153 C139 0.931 . S
H154 C140 0.931 . S
H155 C141 0.933 . S
H156 C147 0.930 . S
H157 C148 0.931 . S
H158 C149 0.931 . S
H159 C150 0.933 . S
Dy160 O163 2.307 . S
Dy160 O165 2.395 . S
Dy160 O166 2.379 . S
Dy160 O168 2.339 . S
Dy160 O170 2.298 . S
Dy160 O174 2.275 . S
Dy160 C182 2.738 . S
Dy161 O164 2.298 . S
Dy161 O167 2.275 . S
Dy161 O169 2.307 . S
Dy161 O171 2.395 . S
Dy161 O172 2.379 . S
Dy161 O175 2.339 . S
Dy161 C191 2.738 . S
C162 O174 1.254 . S
C162 O175 1.257 . S
O163 Dy160 2.307 . S
O163 C173 1.266 . S
O164 Dy161 2.298 . S
O164 C173 1.236 . S
O165 Dy160 2.395 . S
O165 C182 1.255 . S
O166 Dy160 2.379 . S
O166 C182 1.249 . S
O167 Dy161 2.275 . S
O167 C183 1.254 . S
O168 Dy160 2.339 . S
O168 C183 1.257 . S
O169 Dy161 2.307 . S
O169 C184 1.266 . S
O170 Dy160 2.298 . S
O170 C184 1.236 . S
O171 Dy161 2.395 . S
O171 C191 1.255 . S
O172 Dy161 2.379 . S
O172 C191 1.249 . S
C173 O163 1.266 . S
C173 O164 1.236 . S
O174 Dy160 2.275 . S
O174 C162 1.254 . S
O175 Dy161 2.339 . S
O175 C162 1.257 . S
C176 C179 1.344 . S
C176 C180 1.328 . S
C176 C182 1.516 . S
C177 C178 1.304 . S
C177 C181 1.323 . S
C178 C177 1.304 . S
C178 C179 1.371 . S
C178 H192 0.930 1_565 S
C179 C176 1.344 . S
C179 C178 1.371 . S
C179 H193 0.931 . S
C180 C176 1.328 . S
C180 C181 1.433 . S
C180 H194 0.931 . S
C181 C177 1.323 . S
C181 C180 1.433 . S
C181 H195 0.933 . S
C182 Dy160 2.738 . S
C182 O165 1.255 . S
C182 O166 1.249 . S
C182 C176 1.516 . S
C183 O167 1.254 . S
C183 O168 1.257 . S
C184 O169 1.266 . S
C184 O170 1.236 . S
C185 C188 1.344 . S
C185 C189 1.328 . S
C185 C191 1.516 . S
C186 C187 1.304 . S
C186 C190 1.323 . S
C187 C186 1.304 . S
C187 C188 1.371 . S
C187 H196 0.930 . S
C188 C185 1.344 . S
C188 C187 1.371 . S
C188 H197 0.931 . S
C189 C185 1.328 . S
C189 C190 1.433 . S
C189 H198 0.931 . S
C190 C186 1.323 . S
C190 C189 1.433 . S
C190 H199 0.933 . S
C191 Dy161 2.738 . S
C191 O171 1.255 . S
C191 O172 1.249 . S
C191 C185 1.516 . S
H192 C178 0.930 1_545 S
H193 C179 0.931 . S
H194 C180 0.931 . S
H195 C181 0.933 . S
H196 C187 0.930 . S
H197 C188 0.931 . S
H198 C189 0.931 . S
H199 C190 0.933 . S
Dy200 O203 2.307 . S
Dy200 O205 2.395 . S
Dy200 O206 2.379 . S
Dy200 O208 2.339 . S
Dy200 O210 2.298 . S
Dy200 O214 2.275 . S
Dy200 C222 2.738 . S
Dy201 O204 2.298 1_655 S
Dy201 O207 2.275 1_655 S
Dy201 O209 2.307 . S
Dy201 O211 2.395 . S
Dy201 O212 2.379 . S
Dy201 O215 2.339 1_655 S
Dy201 C231 2.738 . S
C202 O214 1.254 . S
C202 O215 1.257 . S
O203 Dy200 2.307 . S
O203 C213 1.266 . S
O204 Dy201 2.298 1_455 S
O204 C213 1.236 . S
O205 Dy200 2.395 . S
O205 C222 1.255 . S
O206 Dy200 2.379 . S
O206 C222 1.249 . S
O207 Dy201 2.275 1_455 S
O207 C223 1.254 . S
O208 Dy200 2.339 . S
O208 C223 1.257 . S
O209 Dy201 2.307 . S
O209 C224 1.266 . S
O210 Dy200 2.298 . S
O210 C224 1.236 1_455 S
O211 Dy201 2.395 . S
O211 C231 1.255 . S
O212 Dy201 2.379 . S
O212 C231 1.249 . S
C213 O203 1.266 . S
C213 O204 1.236 . S
O214 Dy200 2.275 . S
O214 C202 1.254 . S
O215 Dy201 2.339 1_455 S
O215 C202 1.257 . S
C216 C219 1.344 . S
C216 C220 1.328 . S
C216 C222 1.516 . S
C217 C218 1.304 . S
C217 C221 1.323 . S
C218 C217 1.304 . S
C218 C219 1.371 . S
C218 H232 0.930 1_565 S
C219 C216 1.344 . S
C219 C218 1.371 . S
C219 H233 0.931 . S
C220 C216 1.328 . S
C220 C221 1.433 . S
C220 H234 0.931 . S
C221 C217 1.323 . S
C221 C220 1.433 . S
C221 H235 0.933 . S
C222 Dy200 2.738 . S
C222 O205 1.255 . S
C222 O206 1.249 . S
C222 C216 1.516 . S
C223 O207 1.254 . S
C223 O208 1.257 . S
C224 O209 1.266 . S
C224 O210 1.236 1_655 S
C225 C228 1.344 . S
C225 C229 1.328 . S
C225 C231 1.516 . S
C226 C227 1.304 . S
C226 C230 1.323 . S
C227 C226 1.304 . S
C227 C228 1.371 . S
C227 H236 0.930 . S
C228 C225 1.344 . S
C228 C227 1.371 . S
C228 H237 0.931 . S
C229 C225 1.328 . S
C229 C230 1.433 . S
C229 H238 0.931 . S
C230 C226 1.323 . S
C230 C229 1.433 . S
C230 H239 0.933 . S
C231 Dy201 2.738 . S
C231 O211 1.255 . S
C231 O212 1.249 . S
C231 C225 1.516 . S
H232 C218 0.930 1_545 S
H233 C219 0.931 . S
H234 C220 0.931 . S
H235 C221 0.933 . S
H236 C227 0.930 . S
H237 C228 0.931 . S
H238 C229 0.931 . S
H239 C230 0.933 . S
H240 C252 0.930 . S
H241 C254 0.930 . S
H242 C255 0.930 . S
H243 C259 0.959 . S
H244 C259 0.959 . S
H245 C259 0.961 . S
H246 C260 0.960 . S
H247 C260 0.961 . S
H248 C260 0.955 . S
H249 C263 0.929 1_556 S
H250 C264 0.931 . S
H251 C266 0.930 . S
C252 H240 0.930 . S
C252 C253 1.399 1_565 S
C252 C257 1.399 . S
C253 C252 1.399 1_545 S
C253 C254 1.376 1_554 S
C254 H241 0.930 . S
C254 C253 1.376 1_556 S
C254 C255 1.388 . S
C255 H242 0.930 . S
C255 C254 1.388 . S
C255 C256 1.390 1_556 S
C256 C255 1.390 1_554 S
C256 C257 1.394 1_545 S
C256 C262 1.465 1_655 S
C257 C252 1.399 . S
C257 C256 1.394 1_565 S
C257 C258 1.516 . S
C258 C257 1.516 . S
C258 C259 1.502 . S
C258 C260 1.561 . S
C258 C261 1.526 1_655 S
C259 H243 0.959 . S
C259 H244 0.959 . S
C259 H245 0.961 . S
C259 C258 1.502 . S
C260 H246 0.960 . S
C260 H247 0.961 . S
C260 H248 0.955 . S
C260 C258 1.561 . S
C261 C258 1.526 1_455 S
C261 C262 1.396 1_565 S
C261 C266 1.390 . S
C262 C256 1.465 1_455 S
C262 C261 1.396 1_545 S
C262 C263 1.399 . S
C263 H249 0.929 1_554 S
C263 C262 1.399 . S
C263 C264 1.385 . S
C264 H250 0.931 . S
C264 C263 1.385 . S
C264 C265 1.389 . S
C265 C264 1.389 . S
C265 C266 1.387 1_545 S
C266 H251 0.930 . S
C266 C261 1.390 . S
C266 C265 1.387 1_565 S
H267 C279 0.930 . S
H268 C281 0.930 . S
H269 C282 0.930 . S
H270 C286 0.959 . S
H271 C286 0.959 . S
H272 C286 0.961 . S
H273 C287 0.960 . S
H274 C287 0.961 . S
H275 C287 0.959 . S
H276 C290 0.929 . S
H277 C291 0.931 . S
H278 C293 0.930 . S
C279 H267 0.930 . S
C279 C280 1.399 1_545 S
C279 C284 1.399 . S
C280 C279 1.399 1_565 S
C280 C281 1.376 . S
C281 H268 0.930 . S
C281 C280 1.376 . S
C281 C282 1.388 . S
C282 H269 0.930 . S
C282 C281 1.388 . S
C282 C283 1.390 1_565 S
C283 C282 1.390 1_545 S
C283 C284 1.394 . S
C283 C289 1.465 1_655 S
C284 C279 1.399 . S
C284 C283 1.394 . S
C284 C285 1.516 . S
C285 C284 1.516 . S
C285 C286 1.502 . S
C285 C287 1.561 . S
C285 C288 1.526 1_655 S
C286 H270 0.959 . S
C286 H271 0.959 . S
C286 H272 0.961 . S
C286 C285 1.502 . S
C287 H273 0.960 . S
C287 H274 0.961 . S
C287 H275 0.959 . S
C287 C285 1.561 . S
C288 C285 1.526 1_455 S
C288 C289 1.396 . S
C288 C293 1.390 . S
C289 C283 1.465 1_455 S
C289 C288 1.396 . S
C289 C290 1.399 . S
C290 H276 0.929 . S
C290 C289 1.399 . S
C290 C291 1.385 . S
C291 H277 0.931 . S
C291 C290 1.385 . S
C291 C292 1.389 . S
C292 C291 1.389 . S
C292 C293 1.387 . S
C293 H278 0.930 . S
C293 C288 1.390 . S
C293 C292 1.387 . S
H294 C306 0.930 . S
H295 C308 0.930 . S
H296 C309 0.930 . S
H297 C313 0.959 . S
H298 C313 0.959 . S
H299 C313 0.961 . S
H300 C314 0.960 . S
H301 C314 0.961 . S
H302 C314 0.959 . S
H303 C317 0.929 . S
H304 C318 0.931 . S
H305 C320 0.930 . S
C306 H294 0.930 . S
C306 C307 1.399 . S
C306 C311 1.399 1_565 S
C307 C306 1.399 . S
C307 C308 1.376 . S
C308 H295 0.930 . S
C308 C307 1.376 . S
C308 C309 1.388 1_565 S
C309 H296 0.930 . S
C309 C308 1.388 1_545 S
C309 C310 1.390 . S
C310 C309 1.390 . S
C310 C311 1.394 . S
C310 C316 1.465 . S
C311 C306 1.399 1_545 S
C311 C310 1.394 . S
C311 C312 1.516 . S
C312 C311 1.516 . S
C312 C313 1.502 1_455 S
C312 C314 1.561 . S
C312 C315 1.526 . S
C313 H297 0.959 . S
C313 H298 0.959 . S
C313 H299 0.961 . S
C313 C312 1.502 1_655 S
C314 H300 0.960 . S
C314 H301 0.961 . S
C314 H302 0.959 . S
C314 C312 1.561 . S
C315 C312 1.526 . S
C315 C316 1.396 . S
C315 C320 1.390 . S
C316 C310 1.465 . S
C316 C315 1.396 . S
C316 C317 1.399 . S
C317 H303 0.929 . S
C317 C316 1.399 . S
C317 C318 1.385 . S
C318 H304 0.931 . S
C318 C317 1.385 . S
C318 C319 1.389 . S
C319 C318 1.389 . S
C319 C320 1.387 . S
C320 H305 0.930 . S
C320 C315 1.390 . S
C320 C319 1.387 . S
H321 C333 0.930 . S
H322 C335 0.930 . S
H323 C336 0.930 . S
H324 C340 0.959 . S
H325 C340 0.959 . S
H326 C340 0.961 . S
H327 C341 0.960 . S
H328 C341 0.961 . S
H329 C341 0.959 . S
H330 C344 0.929 . S
H331 C345 0.931 . S
H332 C347 0.930 . S
C333 H321 0.930 . S
C333 C334 1.399 . S
C333 C338 1.399 . S
C334 C333 1.399 . S
C334 C335 1.376 . S
C335 H322 0.930 . S
C335 C334 1.376 . S
C335 C336 1.388 . S
C336 H323 0.930 . S
C336 C335 1.388 . S
C336 C337 1.390 . S
C337 C336 1.390 . S
C337 C338 1.394 . S
C337 C343 1.465 . S
C338 C333 1.399 . S
C338 C337 1.394 . S
C338 C339 1.516 . S
C339 C338 1.516 . S
C339 C340 1.502 . S
C339 C341 1.561 . S
C339 C342 1.526 . S
C340 H324 0.959 . S
C340 H325 0.959 . S
C340 H326 0.961 . S
C340 C339 1.502 . S
C341 H327 0.960 . S
C341 H328 0.961 . S
C341 H329 0.959 . S
C341 C339 1.561 . S
C342 C339 1.526 . S
C342 C343 1.396 . S
C342 C347 1.390 . S
C343 C337 1.465 . S
C343 C342 1.396 . S
C343 C344 1.399 . S
C344 H330 0.929 . S
C344 C343 1.399 . S
C344 C345 1.385 . S
C345 H331 0.931 . S
C345 C344 1.385 . S
C345 C346 1.389 . S
C346 C345 1.389 . S
C346 C347 1.387 . S
C347 H332 0.930 . S
C347 C342 1.390 . S
C347 C346 1.387 . S
H348 C360 0.930 . S
H349 C362 0.930 . S
H350 C363 0.930 . S
H351 C367 0.959 . S
H352 C367 0.959 . S
H353 C367 0.961 . S
H354 C368 0.960 . S
H355 C368 0.961 . S
H356 C368 0.959 . S
H357 C371 0.929 . S
H358 C372 0.931 . S
H359 C374 0.930 . S
C360 H348 0.930 . S
C360 C361 1.399 . S
C360 C365 1.399 1_455 S
C361 C360 1.399 . S
C361 C362 1.376 . S
C362 H349 0.930 . S
C362 C361 1.376 . S
C362 C363 1.388 . S
C363 H350 0.930 . S
C363 C362 1.388 . S
C363 C364 1.390 1_455 S
C364 C363 1.390 1_655 S
C364 C365 1.394 . S
C364 C370 1.465 . S
C365 C360 1.399 1_655 S
C365 C364 1.394 . S
C365 C366 1.516 . S
C366 C365 1.516 . S
C366 C367 1.502 . S
C366 C368 1.561 . S
C366 C369 1.526 . S
C367 H351 0.959 . S
C367 H352 0.959 . S
C367 H353 0.961 . S
C367 C366 1.502 . S
C368 H354 0.960 . S
C368 H355 0.961 . S
C368 H356 0.959 . S
C368 C366 1.561 . S
C369 C366 1.526 . S
C369 C370 1.396 . S
C369 C374 1.390 . S
C370 C364 1.465 . S
C370 C369 1.396 . S
C370 C371 1.399 . S
C371 H357 0.929 . S
C371 C370 1.399 . S
C371 C372 1.385 . S
C372 H358 0.931 . S
C372 C371 1.385 . S
C372 C373 1.389 . S
C373 C372 1.389 . S
C373 C374 1.387 . S
C374 H359 0.930 . S
C374 C369 1.390 . S
C374 C373 1.387 . S
H375 C387 0.930 . S
H376 C389 0.930 . S
H377 C390 0.930 . S
H378 C394 0.959 . S
H379 C394 0.959 . S
H380 C394 0.961 . S
H381 C395 0.960 . S
H382 C395 0.961 . S
H383 C395 0.959 . S
H384 C398 0.929 . S
H385 C399 0.931 . S
H386 C401 0.930 . S
C387 H375 0.930 . S
C387 C388 1.399 . S
C387 C392 1.399 . S
C388 C387 1.399 . S
C388 C389 1.376 . S
C389 H376 0.930 . S
C389 C388 1.376 . S
C389 C390 1.388 . S
C390 H377 0.930 . S
C390 C389 1.388 . S
C390 C391 1.390 . S
C391 C390 1.390 . S
C391 C392 1.394 . S
C391 C397 1.465 . S
C392 C387 1.399 . S
C392 C391 1.394 . S
C392 C393 1.516 . S
C393 C392 1.516 . S
C393 C394 1.502 . S
C393 C395 1.561 . S
C393 C396 1.526 . S
C394 H378 0.959 . S
C394 H379 0.959 . S
C394 H380 0.961 . S
C394 C393 1.502 . S
C395 H381 0.960 . S
C395 H382 0.961 . S
C395 H383 0.959 . S
C395 C393 1.561 . S
C396 C393 1.526 . S
C396 C397 1.396 . S
C396 C401 1.390 1_545 S
C397 C391 1.465 . S
C397 C396 1.396 . S
C397 C398 1.399 . S
C398 H384 0.929 . S
C398 C397 1.399 . S
C398 C399 1.385 . S
C399 H385 0.931 . S
C399 C398 1.385 . S
C399 C400 1.389 1_545 S
C400 C399 1.389 1_565 S
C400 C401 1.387 . S
C401 H386 0.930 . S
C401 C396 1.390 1_565 S
C401 C400 1.387 . S
H402 C414 0.930 . S
H403 C416 0.930 . S
H404 C417 0.930 . S
H405 C421 0.959 . S
H406 C421 0.959 . S
H407 C421 0.961 . S
H408 C422 0.960 . S
H409 C422 0.961 . S
H410 C422 0.959 . S
H411 C425 0.929 . S
H412 C426 0.931 . S
H413 C428 0.930 . S
C414 H402 0.930 . S
C414 C415 1.399 . S
C414 C419 1.399 . S
C415 C414 1.399 . S
C415 C416 1.376 . S
C416 H403 0.930 . S
C416 C415 1.376 . S
C416 C417 1.388 . S
C417 H404 0.930 . S
C417 C416 1.388 . S
C417 C418 1.390 . S
C418 C417 1.390 . S
C418 C419 1.394 . S
C418 C424 1.465 . S
C419 C414 1.399 . S
C419 C418 1.394 . S
C419 C420 1.516 . S
C420 C419 1.516 . S
C420 C421 1.502 . S
C420 C422 1.561 . S
C420 C423 1.526 . S
C421 H405 0.959 . S
C421 H406 0.959 . S
C421 H407 0.961 . S
C421 C420 1.502 . S
C422 H408 0.960 . S
C422 H409 0.961 . S
C422 H410 0.959 . S
C422 C420 1.561 . S
C423 C420 1.526 . S
C423 C424 1.396 . S
C423 C428 1.390 . S
C424 C418 1.465 . S
C424 C423 1.396 . S
C424 C425 1.399 . S
C425 H411 0.929 . S
C425 C424 1.399 . S
C425 C426 1.385 . S
C426 H412 0.931 . S
C426 C425 1.385 . S
C426 C427 1.389 . S
C427 C426 1.389 . S
C427 C428 1.387 . S
C428 H413 0.930 . S
C428 C423 1.390 . S
C428 C427 1.387 . S
H429 C441 0.930 . S
H430 C443 0.930 . S
H431 C444 0.930 . S
H432 C448 0.959 . S
H433 C448 0.959 1_455 S
H434 C448 0.961 . S
H435 C449 0.960 1_655 S
H436 C449 0.961 . S
H437 C449 0.959 . S
H438 C452 0.929 . S
H439 C453 0.931 . S
H440 C455 0.930 . S
C441 H429 0.930 . S
C441 C442 1.399 . S
C441 C446 1.399 . S
C442 C441 1.399 . S
C442 C443 1.376 . S
C443 H430 0.930 . S
C443 C442 1.376 . S
C443 C444 1.388 . S
C444 H431 0.930 . S
C444 C443 1.388 . S
C444 C445 1.390 . S
C445 C444 1.390 . S
C445 C446 1.394 . S
C445 C451 1.465 . S
C446 C441 1.399 . S
C446 C445 1.394 . S
C446 C447 1.516 . S
C447 C446 1.516 . S
C447 C448 1.502 . S
C447 C449 1.561 1_655 S
C447 C450 1.526 1_655 S
C448 H432 0.959 . S
C448 H433 0.959 1_655 S
C448 H434 0.961 . S
C448 C447 1.502 . S
C449 H435 0.960 1_455 S
C449 H436 0.961 . S
C449 H437 0.959 . S
C449 C447 1.561 1_455 S
C450 C447 1.526 1_455 S
C450 C451 1.396 1_455 S
C450 C455 1.390 . S
C451 C445 1.465 . S
C451 C450 1.396 1_655 S
C451 C452 1.399 . S
C452 H438 0.929 . S
C452 C451 1.399 . S
C452 C453 1.385 1_655 S
C453 H439 0.931 . S
C453 C452 1.385 1_455 S
C453 C454 1.389 . S
C454 C453 1.389 . S
C454 C455 1.387 . S
C455 H440 0.930 . S
C455 C450 1.390 . S
C455 C454 1.387 . S
H456 C468 0.930 . S
H457 C470 0.930 . S
H458 C471 0.930 . S
H459 C475 0.959 . S
H460 C475 0.959 . S
H461 C475 0.961 . S
H462 C476 0.960 . S
H463 C476 0.961 . S
H464 C476 0.959 . S
H465 C479 0.929 . S
H466 C480 0.931 . S
H467 C482 0.930 . S
C468 H456 0.930 . S
C468 C469 1.399 . S
C468 C473 1.399 1_565 S
C469 C468 1.399 . S
C469 C470 1.376 1_565 S
C470 H457 0.930 . S
C470 C469 1.376 1_545 S
C470 C471 1.388 . S
C471 H458 0.930 . S
C471 C470 1.388 . S
C471 C472 1.390 . S
C472 C471 1.390 . S
C472 C473 1.394 . S
C472 C478 1.465 . S
C473 C468 1.399 1_545 S
C473 C472 1.394 . S
C473 C474 1.516 . S
C474 C473 1.516 . S
C474 C475 1.502 . S
C474 C476 1.561 . S
C474 C477 1.526 . S
C475 H459 0.959 . S
C475 H460 0.959 . S
C475 H461 0.961 . S
C475 C474 1.502 . S
C476 H462 0.960 . S
C476 H463 0.961 . S
C476 H464 0.959 . S
C476 C474 1.561 . S
C477 C474 1.526 . S
C477 C478 1.396 . S
C477 C482 1.390 . S
C478 C472 1.465 . S
C478 C477 1.396 . S
C478 C479 1.399 . S
C479 H465 0.929 . S
C479 C478 1.399 . S
C479 C480 1.385 . S
C480 H466 0.931 . S
C480 C479 1.385 . S
C480 C481 1.389 . S
C481 C480 1.389 . S
C481 C482 1.387 . S
C482 H467 0.930 . S
C482 C477 1.390 . S
C482 C481 1.387 . S
H483 C495 0.930 1_565 S
H484 C497 0.930 . S
H485 C498 0.930 . S
H486 C502 0.959 . S
H487 C502 0.959 . S
H488 C502 0.961 . S
H489 C503 0.960 . S
H490 C503 0.961 . S
H491 C503 0.959 . S
H492 C506 0.929 . S
H493 C507 0.931 . S
H494 C509 0.931 . S
C495 H483 0.930 1_545 S
C495 C496 1.399 . S
C495 C500 1.399 . S
C496 C495 1.399 . S
C496 C497 1.376 1_554 S
C497 H484 0.930 . S
C497 C496 1.376 1_556 S
C497 C498 1.388 . S
C498 H485 0.930 . S
C498 C497 1.388 . S
C498 C499 1.390 1_556 S
C499 C498 1.390 1_554 S
C499 C500 1.394 . S
C499 C505 1.465 . S
C500 C495 1.399 . S
C500 C499 1.394 . S
C500 C501 1.516 1_545 S
C501 C500 1.516 1_565 S
C501 C502 1.502 1_565 S
C501 C503 1.561 . S
C501 C504 1.526 1_565 S
C502 H486 0.959 . S
C502 H487 0.959 . S
C502 H488 0.961 . S
C502 C501 1.502 1_545 S
C503 H489 0.960 . S
C503 H490 0.961 . S
C503 H491 0.959 . S
C503 C501 1.561 . S
C504 C501 1.526 1_545 S
C504 C505 1.396 . S
C504 C509 1.390 . S
C505 C499 1.465 . S
C505 C504 1.396 . S
C505 C506 1.399 1_554 S
C506 H492 0.929 . S
C506 C505 1.399 1_556 S
C506 C507 1.385 . S
C507 H493 0.931 . S
C507 C506 1.385 . S
C507 C508 1.389 1_556 S
C508 C507 1.389 1_554 S
C508 C509 1.387 . S
C509 H494 0.931 . S
C509 C504 1.390 . S
C509 C508 1.387 . S
H510 C522 0.930 . S
H511 C524 0.930 . S
H512 C525 0.930 . S
H513 C529 0.959 . S
H514 C529 0.959 . S
H515 C529 0.961 . S
H516 C530 0.960 . S
H517 C530 0.961 . S
H518 C530 0.959 . S
H519 C533 0.929 . S
H520 C534 0.931 . S
H521 C536 0.930 . S
C522 H510 0.930 . S
C522 C523 1.399 . S
C522 C527 1.399 . S
C523 C522 1.399 . S
C523 C524 1.376 . S
C524 H511 0.930 . S
C524 C523 1.376 . S
C524 C525 1.388 . S
C525 H512 0.930 . S
C525 C524 1.388 . S
C525 C526 1.390 . S
C526 C525 1.390 . S
C526 C527 1.394 . S
C526 C532 1.465 . S
C527 C522 1.399 . S
C527 C526 1.394 . S
C527 C528 1.516 . S
C528 C527 1.516 . S
C528 C529 1.502 . S
C528 C530 1.561 . S
C528 C531 1.526 . S
C529 H513 0.959 . S
C529 H514 0.959 . S
C529 H515 0.961 . S
C529 C528 1.502 . S
C530 H516 0.960 . S
C530 H517 0.961 . S
C530 H518 0.959 . S
C530 C528 1.561 . S
C531 C528 1.526 . S
C531 C532 1.396 . S
C531 C536 1.390 . S
C532 C526 1.465 . S
C532 C531 1.396 . S
C532 C533 1.399 . S
C533 H519 0.929 . S
C533 C532 1.399 . S
C533 C534 1.385 . S
C534 H520 0.931 . S
C534 C533 1.385 . S
C534 C535 1.389 . S
C535 C534 1.389 . S
C535 C536 1.387 . S
C536 H521 0.930 . S
C536 C531 1.390 . S
C536 C535 1.387 . S
H537 C549 0.930 . S
H538 C551 0.930 . S
H539 C552 0.930 . S
H540 C556 0.959 1_655 S
H541 C556 0.959 . S
H542 C556 0.961 . S
H543 C557 0.960 . S
H544 C557 0.961 . S
H545 C557 0.959 . S
H546 C560 0.929 . S
H547 C561 0.931 . S
H548 C563 0.930 . S
C549 H537 0.930 . S
C549 C550 1.399 . S
C549 C554 1.399 . S
C550 C549 1.399 . S
C550 C551 1.376 . S
C551 H538 0.930 . S
C551 C550 1.376 . S
C551 C552 1.388 . S
C552 H539 0.930 . S
C552 C551 1.388 . S
C552 C553 1.390 . S
C553 C552 1.390 . S
C553 C554 1.394 . S
C553 C559 1.465 . S
C554 C549 1.399 . S
C554 C553 1.394 . S
C554 C555 1.516 . S
C555 C554 1.516 . S
C555 C556 1.502 . S
C555 C557 1.561 . S
C555 C558 1.526 . S
C556 H540 0.959 1_455 S
C556 H541 0.959 . S
C556 H542 0.961 . S
C556 C555 1.502 . S
C557 H543 0.960 . S
C557 H544 0.961 . S
C557 H545 0.959 . S
C557 C555 1.561 . S
C558 C555 1.526 . S
C558 C559 1.396 . S
C558 C563 1.390 . S
C559 C553 1.465 . S
C559 C558 1.396 . S
C559 C560 1.399 . S
C560 H546 0.929 . S
C560 C559 1.399 . S
C560 C561 1.385 . S
C561 H547 0.931 . S
C561 C560 1.385 . S
C561 C562 1.389 . S
C562 C561 1.389 . S
C562 C563 1.387 . S
C563 H548 0.930 . S
C563 C558 1.390 . S
C563 C562 1.387 . S
H564 C576 0.930 . S
H565 C578 0.930 . S
H566 C579 0.930 . S
H567 C583 0.959 . S
H568 C583 0.959 . S
H569 C583 0.961 . S
H570 C584 0.960 . S
H571 C584 0.961 . S
H572 C584 0.959 . S
H573 C587 0.929 . S
H574 C588 0.931 . S
H575 C590 0.930 . S
C576 H564 0.930 . S
C576 C577 1.399 . S
C576 C581 1.399 . S
C577 C576 1.399 . S
C577 C578 1.376 . S
C578 H565 0.930 . S
C578 C577 1.376 . S
C578 C579 1.388 . S
C579 H566 0.930 . S
C579 C578 1.388 . S
C579 C580 1.390 . S
C580 C579 1.390 . S
C580 C581 1.394 . S
C580 C586 1.465 . S
C581 C576 1.399 . S
C581 C580 1.394 . S
C581 C582 1.516 . S
C582 C581 1.516 . S
C582 C583 1.502 . S
C582 C584 1.561 . S
C582 C585 1.526 . S
C583 H567 0.959 . S
C583 H568 0.959 . S
C583 H569 0.961 . S
C583 C582 1.502 . S
C584 H570 0.960 . S
C584 H571 0.961 . S
C584 H572 0.959 . S
C584 C582 1.561 . S
C585 C582 1.526 . S
C585 C586 1.396 . S
C585 C590 1.390 . S
C586 C580 1.465 . S
C586 C585 1.396 . S
C586 C587 1.399 . S
C587 H573 0.929 . S
C587 C586 1.399 . S
C587 C588 1.385 . S
C588 H574 0.931 . S
C588 C587 1.385 . S
C588 C589 1.389 . S
C589 C588 1.389 . S
C589 C590 1.387 . S
C590 H575 0.930 . S
C590 C585 1.390 . S
C590 C589 1.387 . S
H591 C603 0.930 . S
H592 C605 0.930 . S
H593 C606 0.930 . S
H594 C610 0.959 . S
H595 C610 0.959 . S
H596 C610 0.961 . S
H597 C611 0.960 . S
H598 C611 0.961 . S
H599 C611 0.959 . S
H600 C614 0.929 . S
H601 C615 0.931 . S
H602 C617 0.930 . S
C603 H591 0.930 . S
C603 C604 1.399 . S
C603 C608 1.399 . S
C604 C603 1.399 . S
C604 C605 1.376 . S
C605 H592 0.930 . S
C605 C604 1.376 . S
C605 C606 1.388 . S
C606 H593 0.930 . S
C606 C605 1.388 . S
C606 C607 1.390 . S
C607 C606 1.390 . S
C607 C608 1.394 . S
C607 C613 1.465 . S
C608 C603 1.399 . S
C608 C607 1.394 . S
C608 C609 1.516 . S
C609 C608 1.516 . S
C609 C610 1.502 . S
C609 C611 1.561 . S
C609 C612 1.526 . S
C610 H594 0.959 . S
C610 H595 0.959 . S
C610 H596 0.961 . S
C610 C609 1.502 . S
C611 H597 0.960 . S
C611 H598 0.961 . S
C611 H599 0.959 . S
C611 C609 1.561 . S
C612 C609 1.526 . S
C612 C613 1.396 . S
C612 C617 1.390 . S
C613 C607 1.465 . S
C613 C612 1.396 . S
C613 C614 1.399 . S
C614 H600 0.929 . S
C614 C613 1.399 . S
C614 C615 1.385 . S
C615 H601 0.931 . S
C615 C614 1.385 . S
C615 C616 1.389 . S
C616 C615 1.389 . S
C616 C617 1.387 . S
C617 H602 0.930 . S
C617 C612 1.390 . S
C617 C616 1.387 . S
H618 C630 0.930 1_455 S
H619 C632 0.930 . S
H620 C633 0.930 . S
H621 C637 0.959 . S
H622 C637 0.959 1_455 S
H623 C637 0.961 1_455 S
H624 C638 0.960 1_455 S
H625 C638 0.961 1_455 S
H626 C638 0.959 . S
H627 C641 0.929 . S
H628 C642 0.931 . S
H629 C644 0.930 . S
C630 H618 0.930 1_655 S
C630 C631 1.399 . S
C630 C635 1.399 . S
C631 C630 1.399 . S
C631 C632 1.376 . S
C632 H619 0.930 . S
C632 C631 1.376 . S
C632 C633 1.388 . S
C633 H620 0.930 . S
C633 C632 1.388 . S
C633 C634 1.390 . S
C634 C633 1.390 . S
C634 C635 1.394 . S
C634 C640 1.465 . S
C635 C630 1.399 . S
C635 C634 1.394 . S
C635 C636 1.516 . S
C636 C635 1.516 . S
C636 C637 1.502 . S
C636 C638 1.561 . S
C636 C639 1.526 . S
C637 H621 0.959 . S
C637 H622 0.959 1_655 S
C637 H623 0.961 1_655 S
C637 C636 1.502 . S
C638 H624 0.960 1_655 S
C638 H625 0.961 1_655 S
C638 H626 0.959 . S
C638 C636 1.561 . S
C639 C636 1.526 . S
C639 C640 1.396 . S
C639 C644 1.390 . S
C640 C634 1.465 . S
C640 C639 1.396 . S
C640 C641 1.399 . S
C641 H627 0.929 . S
C641 C640 1.399 . S
C641 C642 1.385 . S
C642 H628 0.931 . S
C642 C641 1.385 . S
C642 C643 1.389 . S
C643 C642 1.389 . S
C643 C644 1.387 . S
C644 H629 0.930 . S
C644 C639 1.390 . S
C644 C643 1.387 . S
H645 C657 0.930 . S
H646 C659 0.930 . S
H647 C660 0.930 . S
H648 C664 0.959 1_565 S
H649 C664 0.959 . S
H650 C664 0.961 . S
H651 C665 0.960 . S
H652 C665 0.961 . S
H653 C665 0.959 . S
H654 C668 0.929 . S
H655 C669 0.931 . S
H656 C671 0.930 . S
C657 H645 0.930 . S
C657 C658 1.399 . S
C657 C662 1.399 . S
C658 C657 1.399 . S
C658 C659 1.376 . S
C659 H646 0.930 . S
C659 C658 1.376 . S
C659 C660 1.388 . S
C660 H647 0.930 . S
C660 C659 1.388 . S
C660 C661 1.390 . S
C661 C660 1.390 . S
C661 C662 1.394 . S
C661 C667 1.465 . S
C662 C657 1.399 . S
C662 C661 1.394 . S
C662 C663 1.516 . S
C663 C662 1.516 . S
C663 C664 1.502 1_565 S
C663 C665 1.561 1_565 S
C663 C666 1.526 . S
C664 H648 0.959 1_545 S
C664 H649 0.959 . S
C664 H650 0.961 . S
C664 C663 1.502 1_545 S
C665 H651 0.960 . S
C665 H652 0.961 . S
C665 H653 0.959 . S
C665 C663 1.561 1_545 S
C666 C663 1.526 . S
C666 C667 1.396 . S
C666 C671 1.390 . S
C667 C661 1.465 . S
C667 C666 1.396 . S
C667 C668 1.399 . S
C668 H654 0.929 . S
C668 C667 1.399 . S
C668 C669 1.385 . S
C669 H655 0.931 . S
C669 C668 1.385 . S
C669 C670 1.389 . S
C670 C669 1.389 . S
C670 C671 1.387 . S
C671 H656 0.930 . S
C671 C666 1.390 . S
C671 C670 1.387 . S
H672 C684 0.930 . S
H673 C686 0.930 . S
H674 C687 0.930 . S
H675 C691 0.959 1_455 S
H676 C691 0.959 1_455 S
H677 C691 0.961 . S
H678 C692 0.960 . S
H679 C692 0.961 . S
H680 C692 0.959 . S
H681 C695 0.929 . S
H682 C696 0.931 . S
H683 C698 0.930 . S
C684 H672 0.930 . S
C684 C685 1.399 . S
C684 C689 1.399 . S
C685 C684 1.399 . S
C685 C686 1.376 . S
C686 H673 0.930 . S
C686 C685 1.376 . S
C686 C687 1.388 . S
C687 H674 0.930 . S
C687 C686 1.388 . S
C687 C688 1.390 . S
C688 C687 1.390 . S
C688 C689 1.394 . S
C688 C694 1.465 . S
C689 C684 1.399 . S
C689 C688 1.394 . S
C689 C690 1.516 . S
C690 C689 1.516 . S
C690 C691 1.502 . S
C690 C692 1.561 . S
C690 C693 1.526 . S
C691 H675 0.959 1_655 S
C691 H676 0.959 1_655 S
C691 H677 0.961 . S
C691 C690 1.502 . S
C692 H678 0.960 . S
C692 H679 0.961 . S
C692 H680 0.959 . S
C692 C690 1.561 . S
C693 C690 1.526 . S
C693 C694 1.396 . S
C693 C698 1.390 . S
C694 C688 1.465 . S
C694 C693 1.396 . S
C694 C695 1.399 . S
C695 H681 0.929 . S
C695 C694 1.399 . S
C695 C696 1.385 . S
C696 H682 0.931 . S
C696 C695 1.385 . S
C696 C697 1.389 . S
C697 C696 1.389 . S
C697 C698 1.387 . S
C698 H683 0.930 . S
C698 C693 1.390 . S
C698 C697 1.387 . S
H699 C711 0.930 . S
H700 C713 0.930 . S
H701 C714 0.930 . S
H702 C718 0.959 . S
H703 C718 0.959 1_545 S
H704 C718 0.961 1_545 S
H705 C719 0.960 . S
H706 C719 0.961 . S
H707 C719 0.959 . S
H708 C722 0.929 . S
H709 C723 0.931 . S
H710 C725 0.930 . S
C711 H699 0.930 . S
C711 C712 1.399 . S
C711 C716 1.399 . S
C712 C711 1.399 . S
C712 C713 1.376 . S
C713 H700 0.930 . S
C713 C712 1.376 . S
C713 C714 1.388 . S
C714 H701 0.930 . S
C714 C713 1.388 . S
C714 C715 1.390 . S
C715 C714 1.390 . S
C715 C716 1.394 . S
C715 C721 1.465 . S
C716 C711 1.399 . S
C716 C715 1.394 . S
C716 C717 1.516 . S
C717 C716 1.516 . S
C717 C718 1.502 . S
C717 C719 1.561 1_565 S
C717 C720 1.526 . S
C718 H702 0.959 . S
C718 H703 0.959 1_565 S
C718 H704 0.961 1_565 S
C718 C717 1.502 . S
C719 H705 0.960 . S
C719 H706 0.961 . S
C719 H707 0.959 . S
C719 C717 1.561 1_545 S
C720 C717 1.526 . S
C720 C721 1.396 . S
C720 C725 1.390 . S
C721 C715 1.465 . S
C721 C720 1.396 . S
C721 C722 1.399 . S
C722 H708 0.929 . S
C722 C721 1.399 . S
C722 C723 1.385 . S
C723 H709 0.931 . S
C723 C722 1.385 . S
C723 C724 1.389 . S
C724 C723 1.389 . S
C724 C725 1.387 . S
C725 H710 0.930 . S
C725 C720 1.390 . S
C725 C724 1.387 . S
C253 C122 0.535 . S
C265 C2 0.349 . S
C280 C162 0.439 . S
C292 C42 0.423 . S
C307 C202 0.594 . S
C319 C82 0.424 . S
C334 C26 0.609 . S
C346 C97 0.836 . S
C361 C57 0.834 . S
C373 C146 0.649 . S
C388 C106 0.803 . S
C400 C177 0.669 . S
C415 C137 0.590 . S
C427 C226 0.794 . S
C442 C186 0.779 . S
C454 C17 0.733 . S
C469 C217 0.583 . S
C481 C66 0.791 . S
C496 C23 0.562 . S
C508 C143 0.408 . S
C523 C63 0.512 . S
C535 C183 0.365 . S
C550 C103 0.536 . S
C562 C223 0.382 . S
C577 C24 4.130 . S
C589 C64 4.130 . S
C604 C53 3.862 . S
C616 C93 3.853 . S
C631 C104 4.135 . S
C643 C144 4.130 . S
C658 C133 3.879 . S
C670 C173 3.871 . S
C685 C184 4.129 . S
C697 C224 4.135 . S
C712 C213 3.856 . S
C724 C13 3.870 . S
