# Generated by pormake.
# Topology ukv, (4)-cn, num edge types: 1
# Building blocks:
#     Node 0, Type 0, BuildingBlock: QUQFOY_clean_sbu_1, # of connection points: 4
#     Node 1, Type 0, BuildingBlock: QUQFOY_clean_sbu_1, # of connection points: 4
#     Node 2, Type 0, BuildingBlock: QUQFOY_clean_sbu_1, # of connection points: 4
#     Node 3, Type 0, BuildingBlock: QUQFOY_clean_sbu_1, # of connection points: 4
#     Node 4, Type 0, BuildingBlock: QUQFOY_clean_sbu_1, # of connection points: 4
#     Node 5, Type 0, BuildingBlock: QUQFOY_clean_sbu_1, # of connection points: 4
#     Node 6, Type 0, BuildingBlock: QUQFOY_clean_sbu_1, # of connection points: 4
#     Node 7, Type 0, BuildingBlock: QUQFOY_clean_sbu_1, # of connection points: 4
#     Node 8, Type 0, BuildingBlock: QUQFOY_clean_sbu_1, # of connection points: 4
#     Node 9, Type 0, BuildingBlock: QUQFOY_clean_sbu_1, # of connection points: 4
#     Node 10, Type 0, BuildingBlock: QUQFOY_clean_sbu_1, # of connection points: 4
#     Node 11, Type 0, BuildingBlock: QUQFOY_clean_sbu_1, # of connection points: 4
#     Node 12, Type 0, BuildingBlock: QUQFOY_clean_sbu_1, # of connection points: 4
#     Node 13, Type 0, BuildingBlock: QUQFOY_clean_sbu_1, # of connection points: 4
#     Node 14, Type 0, BuildingBlock: QUQFOY_clean_sbu_1, # of connection points: 4
#     Node 15, Type 0, BuildingBlock: QUQFOY_clean_sbu_1, # of connection points: 4
#     Node 16, Type 0, BuildingBlock: QUQFOY_clean_sbu_1, # of connection points: 4
#     Node 17, Type 0, BuildingBlock: QUQFOY_clean_sbu_1, # of connection points: 4
#     Node 18, Type 0, BuildingBlock: QUQFOY_clean_sbu_1, # of connection points: 4
#     Node 19, Type 0, BuildingBlock: QUQFOY_clean_sbu_1, # of connection points: 4
#     Node 20, Type 0, BuildingBlock: QUQFOY_clean_sbu_1, # of connection points: 4
#     Node 21, Type 0, BuildingBlock: QUQFOY_clean_sbu_1, # of connection points: 4
#     Node 22, Type 0, BuildingBlock: QUQFOY_clean_sbu_1, # of connection points: 4
#     Node 23, Type 0, BuildingBlock: QUQFOY_clean_sbu_1, # of connection points: 4
#     Node 24, Type 0, BuildingBlock: QUQFOY_clean_sbu_1, # of connection points: 4
#     Node 25, Type 0, BuildingBlock: QUQFOY_clean_sbu_1, # of connection points: 4
#     Node 26, Type 0, BuildingBlock: QUQFOY_clean_sbu_1, # of connection points: 4
#     Node 27, Type 0, BuildingBlock: QUQFOY_clean_sbu_1, # of connection points: 4
#     Node 28, Type 0, BuildingBlock: QUQFOY_clean_sbu_1, # of connection points: 4
#     Node 29, Type 0, BuildingBlock: QUQFOY_clean_sbu_1, # of connection points: 4
#     Node 30, Type 0, BuildingBlock: QUQFOY_clean_sbu_1, # of connection points: 4
#     Node 31, Type 0, BuildingBlock: QUQFOY_clean_sbu_1, # of connection points: 4
#     Node 32, Type 0, BuildingBlock: QUQFOY_clean_sbu_1, # of connection points: 4
#     Node 33, Type 0, BuildingBlock: QUQFOY_clean_sbu_1, # of connection points: 4
#     Node 34, Type 0, BuildingBlock: QUQFOY_clean_sbu_1, # of connection points: 4
#     Node 35, Type 0, BuildingBlock: QUQFOY_clean_sbu_1, # of connection points: 4
#     Edge 36, Type (0, 0), BuildingBlock: CIFDUS_clean_linker_0, # of connection points: 2
#     Edge 37, Type (0, 0), BuildingBlock: CIFDUS_clean_linker_0, # of connection points: 2
#     Edge 38, Type (0, 0), BuildingBlock: CIFDUS_clean_linker_0, # of connection points: 2
#     Edge 39, Type (0, 0), BuildingBlock: CIFDUS_clean_linker_0, # of connection points: 2
#     Edge 40, Type (0, 0), BuildingBlock: CIFDUS_clean_linker_0, # of connection points: 2
#     Edge 41, Type (0, 0), BuildingBlock: CIFDUS_clean_linker_0, # of connection points: 2
#     Edge 42, Type (0, 0), BuildingBlock: CIFDUS_clean_linker_0, # of connection points: 2
#     Edge 43, Type (0, 0), BuildingBlock: CIFDUS_clean_linker_0, # of connection points: 2
#     Edge 44, Type (0, 0), BuildingBlock: CIFDUS_clean_linker_0, # of connection points: 2
#     Edge 45, Type (0, 0), BuildingBlock: CIFDUS_clean_linker_0, # of connection points: 2
#     Edge 46, Type (0, 0), BuildingBlock: CIFDUS_clean_linker_0, # of connection points: 2
#     Edge 47, Type (0, 0), BuildingBlock: CIFDUS_clean_linker_0, # of connection points: 2
#     Edge 48, Type (0, 0), BuildingBlock: CIFDUS_clean_linker_0, # of connection points: 2
#     Edge 49, Type (0, 0), BuildingBlock: CIFDUS_clean_linker_0, # of connection points: 2
#     Edge 50, Type (0, 0), BuildingBlock: CIFDUS_clean_linker_0, # of connection points: 2
#     Edge 51, Type (0, 0), BuildingBlock: CIFDUS_clean_linker_0, # of connection points: 2
#     Edge 52, Type (0, 0), BuildingBlock: CIFDUS_clean_linker_0, # of connection points: 2
#     Edge 53, Type (0, 0), BuildingBlock: CIFDUS_clean_linker_0, # of connection points: 2
#     Edge 54, Type (0, 0), BuildingBlock: CIFDUS_clean_linker_0, # of connection points: 2
#     Edge 55, Type (0, 0), BuildingBlock: CIFDUS_clean_linker_0, # of connection points: 2
#     Edge 56, Type (0, 0), BuildingBlock: CIFDUS_clean_linker_0, # of connection points: 2
#     Edge 57, Type (0, 0), BuildingBlock: CIFDUS_clean_linker_0, # of connection points: 2
#     Edge 58, Type (0, 0), BuildingBlock: CIFDUS_clean_linker_0, # of connection points: 2
#     Edge 59, Type (0, 0), BuildingBlock: CIFDUS_clean_linker_0, # of connection points: 2
#     Edge 60, Type (0, 0), BuildingBlock: CIFDUS_clean_linker_0, # of connection points: 2
#     Edge 61, Type (0, 0), BuildingBlock: CIFDUS_clean_linker_0, # of connection points: 2
#     Edge 62, Type (0, 0), BuildingBlock: CIFDUS_clean_linker_0, # of connection points: 2
#     Edge 63, Type (0, 0), BuildingBlock: CIFDUS_clean_linker_0, # of connection points: 2
#     Edge 64, Type (0, 0), BuildingBlock: CIFDUS_clean_linker_0, # of connection points: 2
#     Edge 65, Type (0, 0), BuildingBlock: CIFDUS_clean_linker_0, # of connection points: 2
#     Edge 66, Type (0, 0), BuildingBlock: CIFDUS_clean_linker_0, # of connection points: 2
#     Edge 67, Type (0, 0), BuildingBlock: CIFDUS_clean_linker_0, # of connection points: 2
#     Edge 68, Type (0, 0), BuildingBlock: CIFDUS_clean_linker_0, # of connection points: 2
#     Edge 69, Type (0, 0), BuildingBlock: CIFDUS_clean_linker_0, # of connection points: 2
#     Edge 70, Type (0, 0), BuildingBlock: CIFDUS_clean_linker_0, # of connection points: 2
#     Edge 71, Type (0, 0), BuildingBlock: CIFDUS_clean_linker_0, # of connection points: 2
#     Edge 72, Type (0, 0), BuildingBlock: CIFDUS_clean_linker_0, # of connection points: 2
#     Edge 73, Type (0, 0), BuildingBlock: CIFDUS_clean_linker_0, # of connection points: 2
#     Edge 74, Type (0, 0), BuildingBlock: CIFDUS_clean_linker_0, # of connection points: 2
#     Edge 75, Type (0, 0), BuildingBlock: CIFDUS_clean_linker_0, # of connection points: 2
#     Edge 76, Type (0, 0), BuildingBlock: CIFDUS_clean_linker_0, # of connection points: 2
#     Edge 77, Type (0, 0), BuildingBlock: CIFDUS_clean_linker_0, # of connection points: 2
#     Edge 78, Type (0, 0), BuildingBlock: CIFDUS_clean_linker_0, # of connection points: 2
#     Edge 79, Type (0, 0), BuildingBlock: CIFDUS_clean_linker_0, # of connection points: 2
#     Edge 80, Type (0, 0), BuildingBlock: CIFDUS_clean_linker_0, # of connection points: 2
#     Edge 81, Type (0, 0), BuildingBlock: CIFDUS_clean_linker_0, # of connection points: 2
#     Edge 82, Type (0, 0), BuildingBlock: CIFDUS_clean_linker_0, # of connection points: 2
#     Edge 83, Type (0, 0), BuildingBlock: CIFDUS_clean_linker_0, # of connection points: 2
#     Edge 84, Type (0, 0), BuildingBlock: CIFDUS_clean_linker_0, # of connection points: 2
#     Edge 85, Type (0, 0), BuildingBlock: CIFDUS_clean_linker_0, # of connection points: 2
#     Edge 86, Type (0, 0), BuildingBlock: CIFDUS_clean_linker_0, # of connection points: 2
#     Edge 87, Type (0, 0), BuildingBlock: CIFDUS_clean_linker_0, # of connection points: 2
#     Edge 88, Type (0, 0), BuildingBlock: CIFDUS_clean_linker_0, # of connection points: 2
#     Edge 89, Type (0, 0), BuildingBlock: CIFDUS_clean_linker_0, # of connection points: 2
#     Edge 90, Type (0, 0), BuildingBlock: CIFDUS_clean_linker_0, # of connection points: 2
#     Edge 91, Type (0, 0), BuildingBlock: CIFDUS_clean_linker_0, # of connection points: 2
#     Edge 92, Type (0, 0), BuildingBlock: CIFDUS_clean_linker_0, # of connection points: 2
#     Edge 93, Type (0, 0), BuildingBlock: CIFDUS_clean_linker_0, # of connection points: 2
#     Edge 94, Type (0, 0), BuildingBlock: CIFDUS_clean_linker_0, # of connection points: 2
#     Edge 95, Type (0, 0), BuildingBlock: CIFDUS_clean_linker_0, # of connection points: 2
#     Edge 96, Type (0, 0), BuildingBlock: CIFDUS_clean_linker_0, # of connection points: 2
#     Edge 97, Type (0, 0), BuildingBlock: CIFDUS_clean_linker_0, # of connection points: 2
#     Edge 98, Type (0, 0), BuildingBlock: CIFDUS_clean_linker_0, # of connection points: 2
#     Edge 99, Type (0, 0), BuildingBlock: CIFDUS_clean_linker_0, # of connection points: 2
#     Edge 100, Type (0, 0), BuildingBlock: CIFDUS_clean_linker_0, # of connection points: 2
#     Edge 101, Type (0, 0), BuildingBlock: CIFDUS_clean_linker_0, # of connection points: 2
#     Edge 102, Type (0, 0), BuildingBlock: CIFDUS_clean_linker_0, # of connection points: 2
#     Edge 103, Type (0, 0), BuildingBlock: CIFDUS_clean_linker_0, # of connection points: 2
#     Edge 104, Type (0, 0), BuildingBlock: CIFDUS_clean_linker_0, # of connection points: 2
#     Edge 105, Type (0, 0), BuildingBlock: CIFDUS_clean_linker_0, # of connection points: 2
#     Edge 106, Type (0, 0), BuildingBlock: CIFDUS_clean_linker_0, # of connection points: 2
#     Edge 107, Type (0, 0), BuildingBlock: CIFDUS_clean_linker_0, # of connection points: 2
# Relax obj value: 0.146
# Max RMSD: 0.518
# Mean RMSD: 0.434
data_MOF--net-ukv--node1-QUQFOY_clean_sbu_1--edge1-CIFDUS_clean_linker_0
_symmetry_space_group_name_H-M    P1
_symmetry_Int_Tables_number       1
_symmetry_cell_setting            triclinic
loop_
_symmetry_equiv_pos_as_xyz
'x, y, z'
_cell_length_a     65.730272
_cell_length_b     66.213894
_cell_length_c     19.807672
_cell_angle_alpha  89.601212
_cell_angle_beta   90.09379
_cell_angle_gamma 119.93742
loop_
_atom_site_label
_atom_site_type_symbol
_atom_site_fract_x
_atom_site_fract_y
_atom_site_fract_z
_atom_type_partial_charge
O0 O 0.32668 0.08412 0.10392 0.0
Cd1 Cd 0.31091 0.09906 0.15568 0.0
Cd2 Cd 0.35768 0.12755 0.17999 0.0
O3 O 0.36398 0.10327 0.1327 0.0
O4 O 0.27761 0.0726 0.15124 0.0
O5 O 0.29708 0.08506 0.24683 0.0
C6 C 0.27873 0.0696 0.21519 0.0
C7 C 0.36403 0.14132 0.28891 0.0
C8 C 0.34724 0.08705 0.09944 0.0
C9 C 0.33341 0.14578 0.08896 0.0
O10 O 0.35232 0.14803 0.11302 0.0
O11 O 0.31365 0.12791 0.10337 0.0
O12 O 0.38107 0.14982 0.24568 0.0
O13 O 0.34421 0.1235 0.2718 0.0
O14 O 0.94236 0.26904 0.18735 0.0
Cd15 Cd 0.94812 0.24495 0.14125 0.0
Cd16 Cd 0.8976 0.24457 0.20882 0.0
O17 O 0.9166 0.27975 0.18292 0.0
O18 O 0.98189 0.25532 0.12041 0.0
O19 O 0.96232 0.23169 0.20547 0.0
C20 C 0.98203 0.24409 0.17387 0.0
C21 C 0.88153 0.22689 0.31224 0.0
C22 C 0.93487 0.28103 0.15705 0.0
C23 C 0.89916 0.21752 0.07654 0.0
O24 O 0.89005 0.22353 0.12379 0.0
O25 O 0.92111 0.22406 0.07416 0.0
O26 O 0.8692 0.23113 0.2695 0.0
O27 O 0.90333 0.23431 0.29799 0.0
O28 O 0.75238 0.6684 0.13444 0.0
Cd29 Cd 0.77735 0.69626 0.08127 0.0
Cd30 Cd 0.77273 0.64454 0.1569 0.0
O31 O 0.73749 0.63142 0.13362 0.0
O32 O 0.76637 0.71678 0.04049 0.0
O33 O 0.78837 0.72648 0.13218 0.0
C34 C 0.77568 0.73072 0.09073 0.0
C35 C 0.78854 0.64227 0.25979 0.0
C36 C 0.73741 0.64907 0.10887 0.0
C37 C 0.8031 0.67132 0.02512 0.0
O38 O 0.79506 0.65592 0.07225 0.0
O39 O 0.79832 0.68788 0.02083 0.0
O40 O 0.78129 0.62549 0.21668 0.0
O41 O 0.78517 0.65951 0.24611 0.0
O42 O 0.11509 0.34819 0.43145 0.0
Cd43 Cd 0.13603 0.33847 0.38249 0.0
Cd44 Cd 0.15646 0.38654 0.35734 0.0
O45 O 0.12592 0.38398 0.39744 0.0
O46 O 0.11348 0.30365 0.37504 0.0
O47 O 0.12586 0.32766 0.28779 0.0
C48 C 0.11154 0.30728 0.31178 0.0
C49 C 0.16871 0.39121 0.2452 0.0
C50 C 0.11195 0.36561 0.43049 0.0
C51 C 0.18189 0.36979 0.45121 0.0
O52 O 0.17893 0.38628 0.42958 0.0
O53 O 0.16813 0.34873 0.43283 0.0
O54 O 0.17483 0.40939 0.2821 0.0
O55 O 0.15494 0.37102 0.27121 0.0
O56 O 0.68467 0.76297 0.42233 0.0
Cd57 Cd 0.6847 0.78448 0.34932 0.0
Cd58 Cd 0.63883 0.74755 0.3519 0.0
O59 O 0.65216 0.7293 0.40711 0.0
O60 O 0.71978 0.80379 0.33056 0.0
O61 O 0.69441 0.77847 0.25871 0.0
C62 C 0.71593 0.79204 0.27557 0.0
C63 C 0.62933 0.74872 0.23786 0.0
C64 C 0.67198 0.74148 0.43622 0.0
C65 C 0.64807 0.79296 0.41197 0.0
O66 O 0.63512 0.7709 0.41114 0.0
O67 O 0.66779 0.80289 0.38043 0.0
O68 O 0.61319 0.73495 0.27989 0.0
O69 O 0.65055 0.75979 0.25968 0.0
O70 O 0.24827 0.91017 0.37241 0.0
Cd71 Cd 0.21521 0.90523 0.37075 0.0
Cd72 Cd 0.24419 0.87162 0.37502 0.0
O73 O 0.27205 0.90132 0.41972 0.0
O74 O 0.2169 0.93585 0.39064 0.0
O75 O 0.20754 0.91939 0.29027 0.0
C76 C 0.21277 0.93729 0.32773 0.0
C77 C 0.23792 0.85578 0.26778 0.0
C78 C 0.26253 0.91391 0.4207 0.0
C79 C 0.1973 0.86012 0.45648 0.0
O80 O 0.21468 0.858 0.43702 0.0
O81 O 0.19372 0.87653 0.43517 0.0
O82 O 0.24511 0.84756 0.316 0.0
O83 O 0.23666 0.8743 0.27949 0.0
O84 O 0.68049 0.89903 0.93645 0.0
Cd85 Cd 0.68773 0.88024 0.87011 0.0
Cd86 Cd 0.64111 0.86279 0.85273 0.0
O87 O 0.64715 0.89425 0.89529 0.0
O88 O 0.72214 0.90288 0.84923 0.0
O89 O 0.69324 0.89426 0.7775 0.0
C90 C 0.71498 0.90747 0.79334 0.0
C91 C 0.63098 0.84779 0.74361 0.0
C92 C 0.66491 0.90499 0.93397 0.0
C93 C 0.6557 0.83315 0.92924 0.0
O94 O 0.64028 0.83919 0.92153 0.0
O95 O 0.67612 0.84538 0.9025 0.0
O96 O 0.61478 0.84501 0.78587 0.0
O97 O 0.65253 0.86034 0.76189 0.0
O98 O 0.08369 0.76233 0.96293 0.0
Cd99 Cd 0.10409 0.79026 0.90508 0.0
Cd100 Cd 0.12079 0.76069 0.87544 0.0
O101 O 0.08715 0.73513 0.90909 0.0
O102 O 0.08472 0.8063 0.90102 0.0
O103 O 0.08913 0.78759 0.81539 0.0
C104 C 0.07877 0.79793 0.84086 0.0
C105 C 0.1359 0.77363 0.76671 0.0
C106 C 0.07632 0.74102 0.95099 0.0
C107 C 0.15066 0.80088 0.96206 0.0
O108 O 0.14416 0.77962 0.95023 0.0
O109 O 0.13906 0.81017 0.93828 0.0
O110 O 0.13612 0.7557 0.79216 0.0
O111 O 0.12576 0.7826 0.80079 0.0
O112 O 0.27312 0.3377 0.93039 0.0
Cd113 Cd 0.24363 0.33337 0.88342 0.0
Cd114 Cd 0.27806 0.3802 0.85829 0.0
O115 O 0.30245 0.37111 0.89333 0.0
O116 O 0.22504 0.2981 0.87798 0.0
O117 O 0.24004 0.32129 0.78948 0.0
C118 C 0.23016 0.30051 0.81442 0.0
C119 C 0.26993 0.38651 0.74787 0.0
C120 C 0.29497 0.35213 0.92656 0.0
C121 C 0.23778 0.3701 0.95333 0.0
O122 O 0.25867 0.38405 0.93353 0.0
O123 O 0.22658 0.34908 0.93212 0.0
O124 O 0.28603 0.40372 0.78172 0.0
O125 O 0.2598 0.36615 0.77565 0.0
O126 O 0.9432 0.69467 0.58391 0.0
Cd127 Cd 0.92415 0.70574 0.637 0.0
Cd128 Cd 0.90153 0.6584 0.65546 0.0
O129 O 0.9317 0.65901 0.62028 0.0
O130 O 0.94736 0.74027 0.63977 0.0
O131 O 0.93686 0.71742 0.7298 0.0
C132 C 0.95056 0.73748 0.70269 0.0
C133 C 0.88404 0.65372 0.76045 0.0
C134 C 0.94568 0.67685 0.58524 0.0
C135 C 0.87894 0.67763 0.56482 0.0
O136 O 0.88201 0.66062 0.579 0.0
O137 O 0.89191 0.69764 0.5914 0.0
O138 O 0.87911 0.63557 0.72467 0.0
O139 O 0.90038 0.67379 0.73931 0.0
O140 O 0.34696 0.26642 0.6831 0.0
Cd141 Cd 0.32131 0.23677 0.63939 0.0
Cd142 Cd 0.37931 0.25603 0.68884 0.0
O143 O 0.38334 0.28843 0.66142 0.0
O144 O 0.29281 0.23832 0.61239 0.0
O145 O 0.29483 0.22084 0.70582 0.0
C146 C 0.28389 0.22892 0.6702 0.0
C147 C 0.37503 0.24088 0.79767 0.0
C148 C 0.36254 0.28428 0.65219 0.0
C149 C 0.35337 0.22017 0.57124 0.0
O150 O 0.37119 0.23323 0.60785 0.0
O151 O 0.33334 0.21896 0.57784 0.0
O152 O 0.39553 0.25142 0.76945 0.0
O153 O 0.35752 0.23976 0.76499 0.0
O154 O 0.75883 0.08215 0.68421 0.0
Cd155 Cd 0.78283 0.07511 0.64114 0.0
Cd156 Cd 0.78288 0.12677 0.7057 0.0
O157 O 0.74774 0.10752 0.67852 0.0
O158 O 0.77095 0.04162 0.61598 0.0
O159 O 0.7935 0.05811 0.70475 0.0
C160 C 0.78083 0.03948 0.6698 0.0
C161 C 0.7991 0.14598 0.8063 0.0
C162 C 0.74676 0.0895 0.65328 0.0
C163 C 0.81268 0.1242 0.57928 0.0
O164 O 0.80533 0.13298 0.62379 0.0
O165 O 0.80599 0.10237 0.57726 0.0
O166 O 0.79523 0.15668 0.75749 0.0
O167 O 0.79213 0.12408 0.79932 0.0
O168 O 0.0198 0.44082 0.51075 0.0
Cd169 Cd 0.9874 0.42821 0.46392 0.0
Cd170 Cd 0.03916 0.48635 0.54597 0.0
O171 O 0.05557 0.46969 0.50157 0.0
O172 O 0.96901 0.39441 0.43767 0.0
O173 O 0.96005 0.40867 0.52627 0.0
C174 C 0.95625 0.39071 0.49097 0.0
C175 C 0.04405 0.50384 0.65166 0.0
C176 C 0.03939 0.45014 0.47928 0.0
C177 C 1.00369 0.47515 0.43484 0.0
O178 O 1.00727 0.47412 0.4977 0.0
O179 O 0.98981 0.45593 0.40577 0.0
O180 O 0.05262 0.51631 0.59742 0.0
O181 O 0.03416 0.48144 0.64612 0.0
O182 O 0.59899 0.59921 0.49021 0.0
Cd183 Cd 0.60088 0.57305 0.44211 0.0
Cd184 Cd 0.55439 0.5814 0.50966 0.0
O185 O 0.57831 0.61582 0.48449 0.0
O186 O 0.63302 0.58095 0.41002 0.0
O187 O 0.61659 0.55996 0.50189 0.0
C188 C 0.63501 0.57102 0.46392 0.0
C189 C 0.53439 0.56769 0.61101 0.0
C190 C 0.59544 0.61434 0.46117 0.0
C191 C 0.55015 0.54899 0.38401 0.0
O192 O 0.5433 0.55836 0.42812 0.0
O193 O 0.57125 0.55255 0.38174 0.0
O194 O 0.52648 0.57572 0.56437 0.0
O195 O 0.55441 0.56885 0.60117 0.0
O196 O 0.41878 0.04391 0.40059 0.0
Cd197 Cd 0.44917 0.06605 0.44932 0.0
Cd198 Cd 0.43781 0.0256 0.50342 0.0
O199 O 0.40428 0.0125 0.46491 0.0
O200 O 0.45224 0.09707 0.42636 0.0
O201 O 0.4467 0.08322 0.53052 0.0
C202 C 0.44781 0.09884 0.48882 0.0
C203 C 0.45807 0.03112 0.60075 0.0
C204 C 0.40254 0.02332 0.41372 0.0
C205 C 0.47525 0.04255 0.40441 0.0
O206 O 0.4585 0.02474 0.43179 0.0
O207 O 0.47717 0.06267 0.41071 0.0
O208 O 0.44358 0.01014 0.58086 0.0
O209 O 0.45765 0.04853 0.57191 0.0
O210 O 0.76895 0.67227 0.72454 0.0
Cd211 Cd 0.79042 0.67018 0.65463 0.0
Cd212 Cd 0.80138 0.7164 0.65662 0.0
O213 O 0.76995 0.70577 0.70879 0.0
O214 O 0.77214 0.63534 0.63634 0.0
O215 O 0.77711 0.66198 0.5607 0.0
C216 C 0.76665 0.64036 0.57844 0.0
C217 C 0.81424 0.7273 0.54542 0.0
C218 C 0.76136 0.68601 0.73862 0.0
C219 C 0.83469 0.70348 0.72383 0.0
O220 O 0.82648 0.71722 0.71996 0.0
O221 O 0.82504 0.68419 0.69148 0.0
O222 O 0.81739 0.74306 0.58909 0.0
O223 O 0.80201 0.70581 0.5638 0.0
O224 O 0.33671 0.11657 0.77133 0.0
Cd225 Cd 0.34404 0.14496 0.71372 0.0
Cd226 Cd 0.29877 0.11349 0.68334 0.0
O227 O 0.30637 0.08823 0.719 0.0
O228 O 0.37936 0.16191 0.7221 0.0
O229 O 0.36054 0.14564 0.62792 0.0
C230 C 0.37985 0.15496 0.66166 0.0
C231 C 0.29576 0.12409 0.57334 0.0
C232 C 0.32314 0.09499 0.76121 0.0
C233 C 0.30731 0.15392 0.76877 0.0
O234 O 0.29355 0.1324 0.75679 0.0
O235 O 0.32816 0.16424 0.74462 0.0
O236 O 0.27741 0.10771 0.60341 0.0
O237 O 0.31562 0.13301 0.60426 0.0
O238 O 0.91876 0.24724 0.76371 0.0
Cd239 Cd 0.89784 0.23 0.6848 0.0
Cd240 Cd 0.93177 0.21778 0.67989 0.0
O241 O 0.95166 0.24731 0.74075 0.0
O242 O 0.88406 0.2508 0.65939 0.0
O243 O 0.90992 0.24744 0.59703 0.0
C244 C 0.89837 0.25805 0.60853 0.0
C245 C 0.93109 0.20526 0.56893 0.0
C246 C 0.94014 0.25421 0.77675 0.0
C247 C 0.88546 0.18322 0.74051 0.0
O248 O 0.90749 0.19145 0.73827 0.0
O249 O 0.87617 0.19399 0.71083 0.0
O250 O 0.94389 0.20268 0.61416 0.0
O251 O 0.92113 0.21701 0.5853 0.0
O252 O 0.35932 0.26887 0.26998 0.0
Cd253 Cd 0.36337 0.24926 0.19849 0.0
Cd254 Cd 0.31939 0.24116 0.18328 0.0
O255 O 0.32801 0.27081 0.24008 0.0
O256 O 0.39858 0.2655 0.20086 0.0
O257 O 0.37871 0.2673 0.11331 0.0
C258 C 0.3985 0.27525 0.14428 0.0
C259 C 0.31158 0.23282 0.06916 0.0
C260 C 0.34606 0.27751 0.2773 0.0
C261 C 0.32663 0.20405 0.2498 0.0
O262 O 0.31392 0.21339 0.24271 0.0
O263 O 0.34741 0.21388 0.2253 0.0
O264 O 0.29486 0.22946 0.11023 0.0
O265 O 0.33276 0.24257 0.09207 0.0
O266 O 0.78863 0.11203 0.27488 0.0
Cd267 Cd 0.8063 0.13519 0.20076 0.0
Cd268 Cd 0.81781 0.10197 0.18386 0.0
O269 O 0.78726 0.07989 0.23983 0.0
O270 O 0.78739 0.15177 0.19661 0.0
O271 O 0.78679 0.12841 0.11658 0.0
C272 C 0.77812 0.14039 0.14178 0.0
C273 C 0.82888 0.10694 0.06948 0.0
C274 C 0.78042 0.09027 0.2803 0.0
C275 C 0.8534 0.14599 0.24965 0.0
O276 O 0.84476 0.12406 0.24589 0.0
O277 O 0.84262 0.15568 0.22267 0.0
O278 O 0.83142 0.09223 0.10685 0.0
O279 O 0.8182 0.11687 0.09554 0.0
O280 O 0.90519 0.6664 0.25486 0.0
Cd281 Cd 0.88016 0.66219 0.18814 0.0
Cd282 Cd 0.91309 0.70619 0.16592 0.0
O283 O 0.9357 0.69448 0.20146 0.0
O284 O 0.86324 0.6272 0.17555 0.0
O285 O 0.88628 0.65259 0.09835 0.0
C286 C 0.87457 0.63128 0.11913 0.0
C287 C 0.90526 0.71483 0.05764 0.0
C288 C 0.92715 0.67783 0.24457 0.0
C289 C 0.87185 0.69911 0.24299 0.0
O290 O 0.89407 0.71159 0.23862 0.0
O291 O 0.86121 0.67905 0.2149 0.0
O292 O 0.92263 0.73066 0.09186 0.0
O293 O 0.89384 0.69413 0.08283 0.0
O294 O 0.61897 0.03864 0.91402 0.0
Cd295 Cd 0.6106 0.0557 0.98334 0.0
Cd296 Cd 0.58101 0.00942 0.01153 0.0
O297 O 0.60038 1.00133 0.94172 0.0
O298 O 0.63991 0.0872 0.9817 0.0
O299 O 0.62786 0.06474 0.07261 0.0
C300 C 0.64395 0.08329 0.04277 0.0
C301 C 0.55963 0.99936 0.12095 0.0
C302 C 0.61384 0.01789 0.90122 0.0
C303 C 0.56374 0.03753 0.93056 0.0
O304 O 0.56193 0.01862 0.95161 0.0
O305 O 0.58161 0.05707 0.94556 0.0
O306 O 0.55475 0.98497 0.06981 0.0
O307 O 0.58111 0.01693 0.1108 0.0
O308 O 1.00061 0.58057 0.98582 0.0
Cd309 Cd 0.96613 0.55367 0.97843 0.0
Cd310 Cd 0.03078 0.56683 0.03178 0.0
O311 O 0.03674 0.5925 0.95725 0.0
O312 O 0.94176 0.56203 0.95228 0.0
O313 O 0.94583 0.55167 0.05616 0.0
C314 C 0.93552 0.55908 0.01526 0.0
C315 C 0.04859 0.56099 0.12695 0.0
C316 C 0.01673 0.5901 0.9412 0.0
C317 C 0.98737 0.52713 0.96982 0.0
O318 O 0.9964 0.54108 0.01891 0.0
O319 O 0.96786 0.52428 0.94766 0.0
O320 O 0.05147 0.55491 0.06712 0.0
O321 O 0.03824 0.57327 0.13101 0.0
O322 O 0.42213 0.41811 0.94664 0.0
Cd323 Cd 0.45495 0.43482 0.98712 0.0
Cd324 Cd 0.43187 0.46053 0.01636 0.0
O325 O 0.40032 0.4322 0.98478 0.0
O326 O 0.46419 0.41226 0.95124 0.0
O327 O 0.45938 0.41551 0.05967 0.0
C328 C 0.46206 0.40404 0.01147 0.0
C329 C 0.4472 0.47513 0.1223 0.0
C330 C 0.40238 0.41706 0.95076 0.0
C331 C 0.47246 0.48148 0.92039 0.0
O332 O 0.4532 0.48002 0.93817 0.0
O333 O 0.47843 0.46701 0.94269 0.0
O334 O 0.43404 0.48179 0.09211 0.0
O335 O 0.44965 0.45882 0.0949 0.0
O336 O 0.68186 0.74173 0.84441 0.0
Cd337 Cd 0.65395 0.74286 0.80325 0.0
Cd338 Cd 0.71314 0.78472 0.85155 0.0
O339 O 0.7184 0.75754 0.82102 0.0
O340 O 0.6274 0.71218 0.77225 0.0
O341 O 0.62624 0.72889 0.86729 0.0
C342 C 0.61695 0.71077 0.82867 0.0
C343 C 0.7197 0.8023 0.95652 0.0
C344 C 0.69778 0.74096 0.81025 0.0
C345 C 0.68312 0.79222 0.737 0.0
O346 O 0.70096 0.79782 0.77476 0.0
O347 O 0.66409 0.77239 0.7413 0.0
O348 O 0.73624 0.81012 0.91158 0.0
O349 O 0.70019 0.78354 0.94294 0.0
O350 O 0.24397 0.90995 0.78866 0.0
Cd351 Cd 0.22305 0.88232 0.84921 0.0
Cd352 Cd 0.20787 0.91294 0.86982 0.0
O353 O 0.23923 0.93848 0.8273 0.0
O354 O 0.24032 0.86443 0.84257 0.0
O355 O 0.23977 0.88249 0.93498 0.0
C356 C 0.24858 0.87191 0.90204 0.0
C357 C 0.19526 0.90397 0.98169 0.0
C358 C 0.25016 0.9314 0.79002 0.0
C359 C 0.17658 0.87124 0.7891 0.0
O360 O 0.18332 0.89262 0.79856 0.0
O361 O 0.18802 0.86213 0.8152 0.0
O362 O 0.19146 0.9185 0.94756 0.0
O363 O 0.20776 0.89625 0.95392 0.0
O364 O 0.11791 0.35602 0.76505 0.0
Cd365 Cd 0.14732 0.36641 0.82148 0.0
Cd366 Cd 0.12238 0.31986 0.8391 0.0
O367 O 0.09299 0.32109 0.80506 0.0
O368 O 0.15825 0.40079 0.83018 0.0
O369 O 0.14404 0.37579 0.91521 0.0
C370 C 0.15046 0.39631 0.89149 0.0
C371 C 0.13396 0.31375 0.94489 0.0
C372 C 0.09723 0.33869 0.76843 0.0
C373 C 0.16456 0.33805 0.75151 0.0
O374 O 0.14393 0.3213 0.76226 0.0
O375 O 0.1717 0.3578 0.77992 0.0
O376 O 0.12054 0.29618 0.90718 0.0
O377 O 0.13892 0.33428 0.92486 0.0
O378 O 0.41923 0.98948 0.01217 0.0
Cd379 Cd 0.41719 0.9579 0.0304 0.0
Cd380 Cd 0.45642 0.02514 0.97507 0.0
O381 O 0.4293 0.02536 0.02986 0.0
O382 O 0.3888 0.93592 0.08421 0.0
O383 O 0.3921 0.93282 0.97373 0.0
C384 C 0.37914 0.92612 0.02759 0.0
C385 C 0.47812 0.0431 0.88183 0.0
C386 C 0.41673 1.00407 0.04738 0.0
C387 C 0.46783 0.98348 0.02431 0.0
O388 O 0.46105 0.99751 1.00529 0.0
O389 O 0.45171 0.96256 0.03826 0.0
O390 O 0.48579 0.05176 0.94114 0.0
O391 O 0.45649 0.02666 0.8756 0.0
O392 O 0.01739 0.42915 0.05264 0.0
Cd393 Cd 0.04943 0.45976 0.05871 0.0
Cd394 Cd 0.98186 0.43522 0.01692 0.0
O395 O 0.98101 0.41008 0.08433 0.0
O396 O 0.07677 0.45553 0.08165 0.0
O397 O 0.07054 0.46553 0.97959 0.0
C398 C 0.0826 0.45957 0.01844 0.0
C399 C 0.96766 0.43502 0.90911 0.0
C400 C 1.00246 0.41666 0.09782 0.0
C401 C 0.02146 0.47932 0.08099 0.0
O402 O 0.01322 0.46516 0.03227 0.0
O403 O 0.04251 0.48536 0.09758 0.0
O404 O 0.95861 0.43924 0.96142 0.0
O405 O 0.98251 0.42791 0.91939 0.0
O406 O 0.57761 0.57245 0.08864 0.0
Cd407 Cd 0.55339 0.55318 0.01829 0.0
Cd408 Cd 0.58603 0.53836 0.01626 0.0
O409 O 0.60881 0.56932 0.06656 0.0
O410 O 0.53878 0.57363 1.00156 0.0
O411 O 0.56042 0.56836 0.92665 0.0
C412 C 0.54999 0.57953 0.94477 0.0
C413 C 0.58232 0.52607 0.90409 0.0
C414 C 0.59905 0.57888 0.09876 0.0
C415 C 0.53942 0.50732 0.08325 0.0
O416 O 0.56122 0.51412 0.08048 0.0
O417 O 0.53104 0.51842 0.05104 0.0
O418 O 0.59484 0.52174 0.94595 0.0
O419 O 0.57395 0.53881 0.92491 0.0
O420 O 0.99392 0.57623 0.51984 0.0
Cd421 Cd 0.02199 0.57522 0.55816 0.0
Cd422 Cd 0.96995 0.53255 0.48492 0.0
O423 O 0.95715 0.55247 0.53058 0.0
O424 O 0.0467 0.60615 0.59364 0.0
O425 O 0.05042 0.59152 0.49737 0.0
C426 C 0.05812 0.60907 0.53804 0.0
C427 C 0.97131 0.52326 0.37193 0.0
C428 C 0.97543 0.56978 0.55445 0.0
C429 C 0.9946 0.52342 0.60791 0.0
O430 O 0.97989 0.51696 0.55939 0.0
O431 O 1.01122 0.54461 0.61526 0.0
O432 O 0.95338 0.50987 0.40936 0.0
O433 O 0.98754 0.54256 0.39755 0.0
O434 O 0.42969 0.44841 0.61418 0.0
Cd435 Cd 0.45109 0.47174 0.54441 0.0
Cd436 Cd 0.45863 0.43658 0.52664 0.0
O437 O 0.4244 0.41622 0.56631 0.0
O438 O 0.43427 0.49 0.53162 0.0
O439 O 0.43516 0.46643 0.45455 0.0
C440 C 0.4263 0.47875 0.47577 0.0
C441 C 0.47433 0.44154 0.41781 0.0
C442 C 0.41784 0.42646 0.60807 0.0
C443 C 0.49525 0.47736 0.60047 0.0
O444 O 0.48423 0.45523 0.59683 0.0
O445 O 0.48695 0.48907 0.57151 0.0
O446 O 0.47215 0.42457 0.45569 0.0
O447 O 0.46592 0.45416 0.43968 0.0
O448 O 0.60318 1.00128 0.47797 0.0
Cd449 Cd 0.57392 0.97781 0.52728 0.0
Cd450 Cd 0.58849 0.02641 0.41584 0.0
O451 O 0.62099 0.03816 0.46403 0.0
O452 O 0.57778 0.95468 0.58324 0.0
O453 O 0.56134 0.94666 0.48204 0.0
C454 C 0.57014 0.94085 0.53207 0.0
C455 C 0.57942 0.01824 0.29923 0.0
C456 C 0.61826 0.02107 0.50018 0.0
C457 C 0.552 0.01013 0.54077 0.0
O458 O 0.56258 0.02229 0.48789 0.0
O459 O 0.55412 0.99276 0.5611 0.0
O460 O 0.58622 0.03884 0.32258 0.0
O461 O 0.57872 1.00283 0.34126 0.0
O462 O 0.28936 0.36706 0.26226 0.0
Cd463 Cd 0.26823 0.37582 0.31456 0.0
Cd464 Cd 0.25031 0.33001 0.33663 0.0
O465 O 0.28223 0.33346 0.306 0.0
O466 O 0.28894 0.41067 0.30996 0.0
O467 O 0.28182 0.39029 0.40442 0.0
C468 C 0.294 0.40981 0.37253 0.0
C469 C 0.23144 0.32259 0.44059 0.0
C470 C 0.29472 0.3512 0.26882 0.0
C471 C 0.22327 0.34387 0.24674 0.0
O472 O 0.22929 0.32869 0.25823 0.0
O473 O 0.2345 0.364 0.27389 0.0
O474 O 0.22931 0.30557 0.40384 0.0
O475 O 0.24596 0.34366 0.42114 0.0
O476 O 0.6758 0.90914 0.273 0.0
Cd477 Cd 0.66483 0.88022 0.33052 0.0
Cd478 Cd 0.71255 0.90487 0.35103 0.0
O479 O 0.71108 0.93358 0.31189 0.0
O480 O 0.62981 0.8669 0.32598 0.0
O481 O 0.65041 0.88227 0.41828 0.0
C482 C 0.63071 0.87419 0.38675 0.0
C483 C 0.71354 0.8909 0.45837 0.0
C484 C 0.69362 0.92942 0.27438 0.0
C485 C 0.69463 0.86331 0.26426 0.0
O486 O 0.712 0.88331 0.27703 0.0
O487 O 0.67439 0.85684 0.28988 0.0
O488 O 0.73299 0.90603 0.42971 0.0
O489 O 0.69408 0.88598 0.42906 0.0
O490 O 0.0982 0.7504 0.28198 0.0
Cd491 Cd 0.12392 0.76905 0.34894 0.0
Cd492 Cd 0.09573 0.78594 0.36479 0.0
O493 O 0.06949 0.75324 0.33008 0.0
O494 O 0.13607 0.74706 0.37071 0.0
O495 O 0.11397 0.75411 0.43984 0.0
C496 C 0.12346 0.74168 0.42507 0.0
C497 C 0.1032 0.8055 0.46742 0.0
C498 C 0.07643 0.74301 0.28944 0.0
C499 C 0.13882 0.81451 0.28514 0.0
O500 O 0.11703 0.80747 0.29002 0.0
O501 O 0.14753 0.80366 0.31686 0.0
O502 O 0.08858 0.80616 0.42487 0.0
O503 O 0.11166 0.79206 0.45446 0.0
H504 H 0.2298 0.97864 0.39283 0.0
H505 H 0.20759 0.94747 0.19632 0.0
H506 H 0.22305 0.98618 0.14533 0.0
H507 H 0.24766 0.02885 0.15468 0.0
H508 H 0.27242 0.0597 0.3504 0.0
H509 H 0.25091 0.0212 0.40356 0.0
C510 C 0.22786 0.98021 0.33898 0.0
C511 C 0.21762 0.96006 0.29848 0.0
C512 C 0.23748 1.00257 0.30973 0.0
C513 C 0.21536 0.96258 0.22878 0.0
C514 C 0.22434 0.98477 0.19952 0.0
C515 C 0.24789 0.02725 0.20916 0.0
C516 C 0.26174 0.04722 0.24846 0.0
C517 C 0.23614 1.00491 0.23919 0.0
C518 C 0.26197 0.0447 0.31891 0.0
C519 C 0.24976 0.02264 0.34932 0.0
H520 H 0.02557 0.26697 0.11603 0.0
H521 H 0.98957 0.23055 0.29797 0.0
H522 H 0.02721 0.24384 0.35426 0.0
H523 H 0.07008 0.2707 0.35706 0.0
H524 H 0.10575 0.30787 0.17565 0.0
H525 H 0.06875 0.28904 0.1139 0.0
C526 C 0.02592 0.26151 0.16756 0.0
C527 C 1.00466 0.24798 0.20282 0.0
C528 C 0.04769 0.26951 0.20006 0.0
C529 C 1.00557 0.24099 0.26948 0.0
C530 C 0.02715 0.2487 0.30193 0.0
C531 C 0.0699 0.27412 0.3035 0.0
C532 C 0.09074 0.29087 0.27132 0.0
C533 C 0.04832 0.26366 0.26851 0.0
C534 C 0.09004 0.29516 0.2019 0.0
C535 C 0.0688 0.28451 0.16657 0.0
H536 H 0.71519 0.77732 0.14783 0.0
H537 H 0.75826 0.80054 0.3261 0.0
H538 H 0.78315 0.78604 0.28066 0.0
H539 H 0.78838 0.76088 0.19814 0.0
H540 H 0.74587 0.73964 0.01785 0.0
H541 H 0.72572 0.75999 0.05502 0.0
C542 C 0.73062 0.78019 0.17544 0.0
C543 C 0.73479 0.79005 0.24021 0.0
C544 C 0.74484 0.77182 0.14896 0.0
C545 C 0.75467 0.79318 0.27589 0.0
C546 C 0.7688 0.78464 0.25018 0.0
C547 C 0.77517 0.76123 0.16611 0.0
C548 C 0.76839 0.74824 0.10586 0.0
C549 C 0.76344 0.77303 0.18793 0.0
C550 C 0.75134 0.74915 0.06484 0.0
C551 C 0.73965 0.76073 0.0862 0.0
H552 H 0.75515 0.94706 0.83255 0.0
H553 H 0.70645 0.91761 0.66714 0.0
H554 H 0.72484 0.95529 0.61006 0.0
H555 H 0.75111 0.99751 0.61343 0.0
H556 H 0.79776 0.02826 0.78257 0.0
H557 H 0.78398 0.98947 0.83138 0.0
C558 C 0.74901 0.94876 0.78315 0.0
C559 C 0.72962 0.92927 0.75379 0.0
C560 C 0.75905 0.97095 0.7517 0.0
C561 C 0.72157 0.93207 0.69049 0.0
C562 C 0.73194 0.95375 0.65801 0.0
C563 C 0.75863 0.99578 0.66041 0.0
C564 C 0.77542 0.01592 0.69428 0.0
C565 C 0.75016 0.97346 0.68909 0.0
C566 C 0.78482 0.01317 0.75527 0.0
C567 C 0.77685 0.99093 0.78341 0.0
H568 H 0.03681 0.78578 0.89771 0.0
H569 H 0.07325 0.8035 0.70694 0.0
H570 H 0.03616 0.79021 0.64723 0.0
H571 H 0.99301 0.76759 0.64854 0.0
H572 H 0.95633 0.7449 0.83862 0.0
H573 H 0.99356 0.76627 0.89937 0.0
C574 C 0.03667 0.7875 0.84323 0.0
C575 C 0.05778 0.79591 0.80676 0.0
C576 C 0.01505 0.77852 0.80908 0.0
C577 C 0.05728 0.79733 0.73606 0.0
C578 C 0.03602 0.78954 0.70192 0.0
C579 C 0.9931 0.76796 0.70328 0.0
C580 C 0.97191 0.75479 0.73904 0.0
C581 C 0.01471 0.77925 0.73773 0.0
C582 C 0.97238 0.75498 0.80997 0.0
C583 C 0.99371 0.76708 0.84469 0.0
H584 H 0.26093 0.24935 0.61264 0.0
H585 H 0.26541 0.21709 0.79787 0.0
H586 H 0.24415 0.23305 0.85758 0.0
H587 H 0.23153 0.26244 0.86154 0.0
H588 H 0.22986 0.29677 0.67752 0.0
H589 H 0.24221 0.27345 0.61308 0.0
C590 C 0.25664 0.24518 0.66562 0.0
C591 C 0.26509 0.23225 0.70072 0.0
C592 C 0.24512 0.25511 0.70027 0.0
C593 C 0.25925 0.22703 0.76941 0.0
C594 C 0.24723 0.23634 0.80385 0.0
C595 C 0.23301 0.26419 0.80703 0.0
C596 C 0.22994 0.28149 0.77451 0.0
C597 C 0.2411 0.25133 0.77051 0.0
C598 C 0.2322 0.28368 0.70387 0.0
C599 C 0.23946 0.27045 0.66701 0.0
H600 H 0.89389 0.29539 0.6482 0.0
H601 H 0.91852 0.27059 0.48438 0.0
H602 H 0.93582 0.30854 0.42948 0.0
H603 H 0.94842 0.35007 0.43422 0.0
H604 H 0.92702 0.37649 0.60175 0.0
H605 H 0.9042 0.337 0.64845 0.0
C606 C 0.90246 0.29813 0.59957 0.0
C607 C 0.90444 0.27982 0.57005 0.0
C608 C 0.91347 0.32059 0.56938 0.0
C609 C 0.9162 0.284 0.50778 0.0
C610 C 0.92642 0.3059 0.47658 0.0
C611 C 0.93846 0.34722 0.48039 0.0
C612 C 0.9396 0.36639 0.51437 0.0
C613 C 0.92581 0.32452 0.50785 0.0
C614 C 0.92657 0.36217 0.57435 0.0
C615 C 0.91353 0.33953 0.60128 0.0
H616 H 0.67684 0.59604 0.39824 0.0
H617 H 0.64649 0.55708 0.58184 0.0
H618 H 0.68571 0.57207 0.62961 0.0
H619 H 0.72806 0.60124 0.62614 0.0
H620 H 0.75768 0.64194 0.44493 0.0
H621 H 0.71961 0.62098 0.38908 0.0
C622 C 0.67877 0.59035 0.44812 0.0
C623 C 0.6586 0.5756 0.48654 0.0
C624 C 0.70139 0.59955 0.47605 0.0
C625 C 0.66159 0.56844 0.55105 0.0
C626 C 0.68408 0.57714 0.57864 0.0
C627 C 0.72637 0.60495 0.57367 0.0
C628 C 0.74578 0.62319 0.5398 0.0
C629 C 0.70407 0.59341 0.54263 0.0
C630 C 0.74311 0.628 0.47214 0.0
C631 C 0.72124 0.61613 0.44033 0.0
H632 H 0.3927 0.15268 0.53198 0.0
H633 H 0.411 0.14956 0.73929 0.0
H634 H 0.43571 0.13363 0.70411 0.0
H635 H 0.44736 0.11509 0.61563 0.0
H636 H 0.4305 0.12002 0.4078 0.0
H637 H 0.41024 0.14073 0.44177 0.0
C638 C 0.40259 0.14911 0.56923 0.0
C639 C 0.39978 0.15216 0.63819 0.0
C640 C 0.4168 0.13987 0.5486 0.0
C641 C 0.41291 0.14758 0.68582 0.0
C642 C 0.42687 0.13817 0.66578 0.0
C643 C 0.43973 0.12118 0.57768 0.0
C644 C 0.44028 0.11573 0.50931 0.0
C645 C 0.42824 0.1334 0.59752 0.0
C646 C 0.43042 0.12394 0.46077 0.0
C647 C 0.41866 0.13571 0.48018 0.0
H648 H 0.4108 0.29522 0.01884 0.0
H649 H 0.43007 0.30799 0.22887 0.0
H650 H 0.45425 0.34962 0.20573 0.0
H651 H 0.46438 0.38303 0.12898 0.0
H652 H 0.44723 0.36993 0.91757 0.0
H653 H 0.42833 0.32811 0.93785 0.0
C654 C 0.42095 0.30703 0.05903 0.0
C655 C 0.41844 0.29848 0.12549 0.0
C656 C 0.43501 0.33107 0.04536 0.0
C657 C 0.43175 0.31402 0.17709 0.0
C658 C 0.44543 0.33795 0.16407 0.0
C659 C 0.45715 0.37104 0.08708 0.0
C660 C 0.45699 0.3797 0.02207 0.0
C661 C 0.44639 0.3468 0.09888 0.0
C662 C 0.44765 0.36387 0.96822 0.0
C663 C 0.43661 0.33984 0.97979 0.0
H664 H 0.738 0.12666 0.21162 0.0
H665 H 0.76753 0.14508 0.0117 0.0
H666 H 0.72842 0.13171 0.96427 0.0
H667 H 0.68545 0.11057 0.97839 0.0
H668 H 0.65553 0.08782 0.17696 0.0
H669 H 0.69492 0.10715 0.22637 0.0
C670 C 0.73588 0.12838 0.15793 0.0
C671 C 0.75565 0.13724 0.11518 0.0
C672 C 0.71314 0.11953 0.1308 0.0
C673 C 0.75261 0.13859 0.04549 0.0
C674 C 0.73022 0.1308 0.01844 0.0
C675 C 0.68751 0.11027 0.03266 0.0
C676 C 0.66749 0.09786 0.07396 0.0
C677 C 0.71028 0.12061 0.06036 0.0
C678 C 0.67057 0.09727 0.14403 0.0
C679 C 0.69313 0.10829 0.17228 0.0
H680 H 0.87903 0.59665 0.17922 0.0
H681 H 0.88052 0.62702 0.98523 0.0
H682 H 0.8971 0.60504 0.93366 0.0
H683 H 0.91624 0.58143 0.94691 0.0
H684 H 0.91731 0.55308 0.14283 0.0
H685 H 0.89467 0.56974 0.19017 0.0
C686 C 0.88223 0.59782 0.12525 0.0
C687 C 0.87837 0.61339 0.08588 0.0
C688 C 0.89274 0.58577 0.09653 0.0
C689 C 0.88322 0.61514 0.01641 0.0
C690 C 0.89289 0.60267 0.98705 0.0
C691 C 0.91116 0.5785 0.9997 0.0
C692 C 0.91869 0.56611 0.04121 0.0
C693 C 0.89855 0.5886 0.02707 0.0
C694 C 0.91192 0.56261 0.1096 0.0
C695 C 0.89897 0.57218 0.13684 0.0
H696 H 0.59766 0.66915 0.76383 0.0
H697 H 0.59303 0.70046 0.9492 0.0
H698 H 0.56783 0.66175 0.9982 0.0
H699 H 0.5524 0.61912 0.99439 0.0
H700 H 0.56044 0.58879 0.81183 0.0
H701 H 0.57836 0.62666 0.75545 0.0
C702 C 0.5907 0.66759 0.81441 0.0
C703 C 0.59746 0.68782 0.8528 0.0
C704 C 0.57682 0.64525 0.84305 0.0
C705 C 0.58822 0.68529 0.91835 0.0
C706 C 0.57388 0.66309 0.94662 0.0
C707 C 0.55734 0.62069 0.94159 0.0
C708 C 0.55482 0.60099 0.90711 0.0
C709 C 0.56878 0.64292 0.91035 0.0
C710 C 0.56185 0.6035 0.83917 0.0
C711 C 0.57238 0.62528 0.80713 0.0
H712 H 0.35385 0.89768 0.92324 0.0
H713 H 0.34595 0.92009 0.12062 0.0
H714 H 0.30367 0.90204 0.10346 0.0
H715 H 0.26991 0.88521 0.02547 0.0
H716 H 0.27776 0.8622 0.82888 0.0
H717 H 0.31867 0.87458 0.85337 0.0
C718 C 0.34282 0.89815 0.96314 0.0
C719 C 0.35322 0.91054 0.02276 0.0
C720 C 0.31839 0.88775 0.9529 0.0
C721 C 0.33855 0.91075 0.07412 0.0
C722 C 0.3143 0.90054 0.06419 0.0
C723 C 0.28038 0.88232 0.98866 0.0
C724 C 0.27075 0.8731 0.92495 0.0
C725 C 0.30414 0.88975 1.00278 0.0
C726 C 0.2846 0.86932 0.87823 0.0
C727 C 0.30816 0.87661 0.89196 0.0
H728 H 0.14375 0.43103 0.84077 0.0
H729 H 0.14238 0.39601 0.02616 0.0
H730 H 0.12424 0.4153 0.08474 0.0
H731 H 0.10364 0.43767 0.07943 0.0
H732 H 0.10184 0.47011 0.89159 0.0
H733 H 0.12628 0.4565 0.83818 0.0
C734 C 0.14013 0.42816 0.89445 0.0
C735 C 0.1447 0.41219 0.92923 0.0
C736 C 0.12863 0.43857 0.92715 0.0
C737 C 0.13938 0.40837 0.99845 0.0
C738 C 0.12875 0.41925 0.03182 0.0
C739 C 0.10898 0.44221 0.02719 0.0
C740 C 0.10074 0.45483 0.98962 0.0
C741 C 0.12251 0.43374 0.99615 0.0
C742 C 0.10779 0.46036 0.92179 0.0
C743 C 0.12175 0.45251 0.89107 0.0
H744 H 0.07069 0.65022 0.59983 0.0
H745 H 0.08715 0.62161 0.42715 0.0
H746 H 0.11215 0.66094 0.38165 0.0
H747 H 0.12501 0.70306 0.38358 0.0
H748 H 0.10471 0.73038 0.55117 0.0
H749 H 0.0861 0.6923 0.60637 0.0
C750 C 0.08016 0.65254 0.55298 0.0
C751 C 0.07693 0.63284 0.51704 0.0
C752 C 0.09382 0.67517 0.52589 0.0
C753 C 0.08925 0.63636 0.45604 0.0
C754 C 0.10348 0.6589 0.42977 0.0
C755 C 0.11711 0.70083 0.43307 0.0
C756 C 0.11667 0.71981 0.46368 0.0
C757 C 0.10532 0.67841 0.46316 0.0
C758 C 0.1058 0.71635 0.52709 0.0
C759 C 0.09487 0.69442 0.55837 0.0
H760 H 0.38605 0.46701 0.54194 0.0
H761 H 0.41618 0.47957 0.34259 0.0
H762 H 0.37699 0.46288 0.29256 0.0
H763 H 0.33415 0.43914 0.30603 0.0
H764 H 0.30408 0.42129 0.50575 0.0
H765 H 0.34297 0.44571 0.55532 0.0
C766 C 0.38403 0.46687 0.48754 0.0
C767 C 0.404 0.47495 0.44586 0.0
C768 C 0.36131 0.45588 0.45938 0.0
C769 C 0.40111 0.47383 0.37552 0.0
C770 C 0.37867 0.46408 0.34703 0.0
C771 C 0.33599 0.44121 0.36036 0.0
C772 C 0.31615 0.42859 0.40215 0.0
C773 C 0.3586 0.45425 0.38846 0.0
C774 C 0.31899 0.43093 0.47251 0.0
C775 C 0.34127 0.4448 0.50083 0.0
H776 H 0.56009 0.91047 0.4272 0.0
H777 H 0.59454 0.92928 0.62094 0.0
H778 H 0.61399 0.90697 0.59716 0.0
H779 H 0.62653 0.88795 0.51349 0.0
H780 H 0.59208 0.86909 0.31982 0.0
H781 H 0.56715 0.88503 0.35206 0.0
C782 C 0.5713 0.90915 0.46509 0.0
C783 C 0.57607 0.92195 0.52532 0.0
C784 C 0.58279 0.89647 0.45073 0.0
C785 C 0.59059 0.91982 0.57389 0.0
C786 C 0.60191 0.90715 0.56015 0.0
C787 C 0.61315 0.88676 0.47897 0.0
C788 C 0.61155 0.87768 0.41379 0.0
C789 C 0.59898 0.89629 0.4975 0.0
C790 C 0.59389 0.87608 0.37014 0.0
C791 C 0.57968 0.88538 0.38836 0.0
H792 H 0.36222 0.19603 0.8084 0.0
H793 H 0.37738 0.25588 0.92765 0.0
H794 H 0.36411 0.23134 0.03013 0.0
H795 H 0.34735 0.19225 0.08505 0.0
H796 H 0.32822 0.13222 0.96089 0.0
H797 H 0.34375 0.15712 0.86136 0.0
C798 C 0.36254 0.20357 0.857 0.0
C799 C 0.37068 0.22751 0.86095 0.0
C800 C 0.35369 0.18922 0.91443 0.0
C801 C 0.37139 0.23743 0.92387 0.0
C802 C 0.36351 0.22338 0.98212 0.0
C803 C 0.34572 0.18466 0.03558 0.0
C804 C 0.33598 0.16038 0.02972 0.0
C805 C 0.35418 0.19915 0.97783 0.0
C806 C 0.33479 0.15075 0.966 0.0
C807 C 0.34398 0.16504 0.9092 0.0
H808 H 0.84063 0.18664 0.80581 0.0
H809 H 0.79071 0.13282 0.93799 0.0
H810 H 0.81739 0.15079 0.03346 0.0
H811 H 0.85546 0.17981 0.07896 0.0
H812 H 0.9081 0.22972 0.94398 0.0
H813 H 0.88009 0.21496 0.85012 0.0
C814 C 0.83545 0.17911 0.85595 0.0
C815 C 0.81354 0.15874 0.8653 0.0
C816 C 0.85155 0.18838 0.9098 0.0
C817 C 0.80728 0.14871 0.92988 0.0
C818 C 0.82256 0.15875 0.98429 0.0
C819 C 0.86087 0.18717 0.02867 0.0
C820 C 0.88384 0.20564 0.01813 0.0
C821 C 0.84491 0.17814 0.97468 0.0
C822 C 0.89062 0.21519 0.95295 0.0
C823 C 0.8745 0.20697 0.89956 0.0
H824 H 0.84095 0.64929 0.75801 0.0
H825 H 0.89602 0.65787 0.89294 0.0
H826 H 0.87515 0.66292 0.98773 0.0
H827 H 0.84263 0.66775 0.03183 0.0
H828 H 0.79082 0.66514 0.89317 0.0
H829 H 0.80863 0.65469 0.80119 0.0
C830 C 0.84796 0.65158 0.80877 0.0
C831 C 0.8696 0.65246 0.81919 0.0
C832 C 0.83661 0.65598 0.86236 0.0
C833 C 0.87908 0.65646 0.88428 0.0
C834 C 0.86724 0.65954 0.93839 0.0
C835 C 0.83545 0.6651 0.98123 0.0
C836 C 0.81569 0.66756 0.96894 0.0
C837 C 0.84632 0.65995 0.92794 0.0
C838 C 0.80636 0.66388 0.90341 0.0
C839 C 0.81642 0.65769 0.85097 0.0
H840 H 0.23492 0.39568 0.73028 0.0
H841 H 0.28343 0.3824 0.62076 0.0
H842 H 0.26104 0.37688 0.51684 0.0
H843 H 0.22452 0.37099 0.45946 0.0
H844 H 0.17503 0.38168 0.57387 0.0
H845 H 0.20047 0.39266 0.6727 0.0
C846 C 0.24103 0.39244 0.68289 0.0
C847 C 0.26095 0.38981 0.68271 0.0
C848 C 0.22741 0.38816 0.62414 0.0
C849 C 0.26838 0.38495 0.6217 0.0
C850 C 0.25543 0.3816 0.56229 0.0
C851 C 0.2194 0.37567 0.5062 0.0
C852 C 0.19769 0.37503 0.51 0.0
C853 C 0.23432 0.38216 0.56333 0.0
C854 C 0.19147 0.38166 0.57026 0.0
C855 C 0.20612 0.38817 0.62661 0.0
H856 H 0.61726 0.77633 0.51809 0.0
H857 H 0.66416 0.83988 0.41209 0.0
H858 H 0.66134 0.86254 0.50584 0.0
H859 H 0.65014 0.86464 0.62109 0.0
H860 H 0.601 0.80153 0.7246 0.0
H861 H 0.59985 0.77843 0.62683 0.0
C862 C 0.62641 0.79518 0.51405 0.0
C863 C 0.6417 0.80646 0.45893 0.0
C864 C 0.62443 0.80822 0.56705 0.0
C865 C 0.65287 0.83081 0.45448 0.0
C866 C 0.65119 0.84379 0.50745 0.0
C867 C 0.63861 0.84588 0.62131 0.0
C868 C 0.62564 0.83478 0.67965 0.0
C869 C 0.63781 0.83276 0.56482 0.0
C870 C 0.61089 0.81047 0.67973 0.0
C871 C 0.61042 0.79725 0.62408 0.0
H872 H 0.16361 0.81396 0.46979 0.0
H873 H 0.20774 0.87628 0.5821 0.0
H874 H 0.19696 0.85387 0.68718 0.0
H875 H 0.1724 0.8171 0.74918 0.0
H876 H 0.12549 0.75522 0.64023 0.0
H877 H 0.13995 0.7766 0.53277 0.0
C878 C 0.17009 0.82268 0.5177 0.0
C879 C 0.18562 0.84694 0.51857 0.0
C880 C 0.16328 0.80969 0.57871 0.0
C881 C 0.19491 0.85784 0.58053 0.0
C882 C 0.18898 0.84496 0.6406 0.0
C883 C 0.16546 0.80828 0.70162 0.0
C884 C 0.14769 0.78473 0.7022 0.0
C885 C 0.17286 0.82098 0.64057 0.0
C886 C 0.1391 0.77335 0.64064 0.0
C887 C 0.14706 0.78566 0.57941 0.0
H888 H 0.62637 0.8188 0.03647 0.0
H889 H 0.66984 0.8004 0.9194 0.0
H890 H 0.65923 0.76691 0.99548 0.0
H891 H 0.64539 0.74915 0.10956 0.0
H892 H 0.6026 0.76864 0.22574 0.0
H893 H 0.60593 0.79593 0.13713 0.0
C894 C 0.63371 0.80757 0.02756 0.0
C895 C 0.64954 0.81258 0.97351 0.0
C896 C 0.62835 0.78907 0.0727 0.0
C897 C 0.65837 0.79749 0.96201 0.0
C898 C 0.65229 0.77837 1.00536 0.0
C899 C 0.63586 0.75855 0.1138 0.0
C900 C 0.62378 0.7569 0.17428 0.0
C901 C 0.63837 0.77478 0.06299 0.0
C902 C 0.61183 0.76944 0.17961 0.0
C903 C 0.61409 0.78539 0.12938 0.0
H904 H 0.16644 0.78408 0.06248 0.0
H905 H 0.18121 0.84782 0.96104 0.0
H906 H 0.21388 0.87 0.03911 0.0
H907 H 0.23377 0.87217 0.1453 0.0
H908 H 0.21704 0.80875 0.25187 0.0
H909 H 0.18971 0.78575 0.16246 0.0
C910 C 0.17687 0.80287 0.05713 0.0
C911 C 0.1712 0.81434 1.00657 0.0
C912 C 0.19498 0.81568 0.10358 0.0
C913 C 0.18493 0.83864 1.00019 0.0
C914 C 0.20355 0.85131 0.04458 0.0
C915 C 0.22452 0.85328 0.14817 0.0
C916 C 0.22718 0.84223 0.20563 0.0
C917 C 0.20814 0.84019 0.09791 0.0
C918 C 0.21534 0.81774 0.20821 0.0
C919 C 0.19945 0.80457 0.15748 0.0
H920 H 0.1936 0.36477 0.9666 0.0
H921 H 0.26104 0.39353 0.06397 0.0
H922 H 0.24681 0.4064 0.15864 0.0
H923 H 0.21425 0.40657 0.21875 0.0
H924 H 0.14635 0.37667 0.12508 0.0
H925 H 0.16206 0.36891 0.02251 0.0
C926 C 0.20516 0.37405 0.00831 0.0
C927 C 0.22827 0.37802 0.00856 0.0
C928 C 0.197 0.38195 0.0624 0.0
C929 C 0.24315 0.39023 0.06267 0.0
C930 C 0.23508 0.3977 0.11679 0.0
C931 C 0.20315 0.3991 0.17482 0.0
C932 C 0.17933 0.39262 0.17856 0.0
C933 C 0.21196 0.39342 0.1177 0.0
C934 C 0.16491 0.38236 0.12231 0.0
C935 C 0.17381 0.3776 0.0641 0.0
H936 H 0.7949 0.66506 0.37944 0.0
H937 H 0.81597 0.6225 0.26948 0.0
H938 H 0.84587 0.62992 0.35411 0.0
H939 H 0.8677 0.65045 0.4553 0.0
H940 H 0.84834 0.6946 0.56369 0.0
H941 H 0.81573 0.68398 0.48475 0.0
C942 C 0.80591 0.65726 0.37449 0.0
C943 C 0.80334 0.64344 0.31787 0.0
C944 C 0.82355 0.6621 0.42263 0.0
C945 C 0.81747 0.63311 0.31263 0.0
C946 C 0.83478 0.63758 0.36063 0.0
C947 C 0.85648 0.65802 0.46127 0.0
C948 C 0.86053 0.67347 0.51481 0.0
C949 C 0.83831 0.65246 0.41491 0.0
C950 C 0.84585 0.68302 0.5222 0.0
C951 C 0.82722 0.67696 0.47721 0.0
H952 H 0.37795 0.18688 0.30121 0.0
H953 H 0.35144 0.12304 0.41512 0.0
H954 H 0.34621 0.1418 0.5132 0.0
H955 H 0.34706 0.1763 0.5668 0.0
H956 H 0.36928 0.23849 0.44784 0.0
H957 H 0.37829 0.22083 0.35258 0.0
C958 C 0.37182 0.17741 0.3486 0.0
C959 C 0.3656 0.15378 0.35176 0.0
C960 C 0.36778 0.1881 0.40417 0.0
C961 C 0.3568 0.14138 0.41219 0.0
C962 C 0.3538 0.1522 0.46851 0.0
C963 C 0.35377 0.18579 0.51979 0.0
C964 C 0.35728 0.20847 0.51367 0.0
C965 C 0.35867 0.17539 0.46494 0.0
C966 C 0.36624 0.22089 0.45308 0.0
C967 C 0.37156 0.21087 0.39892 0.0
H968 H 0.85136 0.16747 0.58283 0.0
H969 H 0.8015 0.11596 0.44694 0.0
H970 H 0.8161 0.14461 0.3546 0.0
H971 H 0.84243 0.18454 0.31282 0.0
H972 H 0.89689 0.23372 0.4425 0.0
H973 H 0.88036 0.20626 0.53783 0.0
C974 C 0.84412 0.16239 0.5325 0.0
C975 C 0.82553 0.13958 0.52148 0.0
C976 C 0.85296 0.17876 0.47912 0.0
C977 C 0.81612 0.13325 0.45629 0.0
C978 C 0.82421 0.14969 0.40374 0.0
C979 C 0.85061 0.18922 0.36209 0.0
C980 C 0.87047 0.21134 0.37129 0.0
C981 C 0.84241 0.17257 0.41473 0.0
C982 C 0.88125 0.21707 0.43486 0.0
C983 C 0.8721 0.20123 0.48888 0.0
H984 H 0.02852 0.47955 0.32023 0.0
H985 H 0.01254 0.51936 0.45911 0.0
H986 H 0.03028 0.55294 0.38112 0.0
H987 H 0.04104 0.56657 0.26159 0.0
H988 H 0.06364 0.52932 0.13253 0.0
H989 H 0.05347 0.49963 0.22046 0.0
C990 C 0.02944 0.49575 0.33429 0.0
C991 C 0.01843 0.49665 0.39419 0.0
C992 C 0.0402 0.51518 0.29028 0.0
C993 C 0.02025 0.51797 0.41236 0.0
C994 C 0.03022 0.53711 0.36759 0.0
C995 C 0.04448 0.55239 0.25314 0.0
C996 C 0.05174 0.54947 0.18849 0.0
C997 C 0.03886 0.53534 0.30437 0.0
C998 C 0.05702 0.53149 0.18032 0.0
C999 C 0.05102 0.51433 0.23036 0.0
H1000 H 0.50464 0.5137 0.3933 0.0
H1001 H 0.55823 0.55754 0.25023 0.0
H1002 H 0.52985 0.54141 0.15817 0.0
H1003 H 0.49036 0.5127 0.11665 0.0
H1004 H 0.43774 0.46598 0.25718 0.0
H1005 H 0.46491 0.4851 0.35148 0.0
C1006 C 0.51013 0.51932 0.34167 0.0
C1007 C 0.53363 0.53643 0.32829 0.0
C1008 C 0.49383 0.50932 0.28846 0.0
C1009 C 0.54045 0.54391 0.26147 0.0
C1010 C 0.52415 0.5348 0.20887 0.0
C1011 C 0.48482 0.50695 0.16818 0.0
C1012 C 0.46209 0.48816 0.18032 0.0
C1013 C 0.5009 0.51725 0.22153 0.0
C1014 C 0.45508 0.48057 0.2469 0.0
C1015 C 0.47069 0.49135 0.30063 0.0
H1016 H 0.49747 1.00188 0.16478 0.0
H1017 H 0.52916 0.99425 0.25248 0.0
H1018 H 0.51749 0.99666 0.39897 0.0
H1019 H 0.49925 0.02025 0.42861 0.0
H1020 H 0.47795 0.05079 0.2714 0.0
H1021 H 0.48826 0.03086 0.18685 0.0
C1022 C 0.50641 1.00342 0.21091 0.0
C1023 C 0.527 0.99702 0.22214 0.0
C1024 C 0.50153 0.0154 0.25924 0.0
C1025 C 0.52654 0.99188 0.29935 0.0
C1026 C 0.51634 1.00013 0.346 0.0
C1027 C 0.49881 0.02402 0.37567 0.0
C1028 C 0.48918 0.038 0.35597 0.0
C1029 C 0.50623 0.01365 0.32712 0.0
C1030 C 0.48635 0.04104 0.28749 0.0
C1031 C 0.49174 0.0292 0.23954 0.0
H1032 H 0.83682 0.72011 0.84866 0.0
H1033 H 0.87425 0.69932 0.71359 0.0
H1034 H 0.90292 0.70629 0.80388 0.0
H1035 H 0.91325 0.71131 0.9242 0.0
H1036 H 0.87392 0.72946 0.05995 0.0
H1037 H 0.84982 0.72987 0.96625 0.0
C1038 C 0.85142 0.71728 0.83846 0.0
C1039 C 0.85325 0.70888 0.77482 0.0
C1040 C 0.86719 0.72027 0.89067 0.0
C1041 C 0.87226 0.70542 0.76234 0.0
C1042 C 0.8886 0.70934 0.81354 0.0
C1043 C 0.89993 0.71614 0.93253 0.0
C1044 C 0.89548 0.72063 0.99845 0.0
C1045 C 0.88571 0.71577 0.87852 0.0
C1046 C 0.87784 0.72632 0.00927 0.0
C1047 C 0.86394 0.72635 0.95583 0.0
H1048 H 0.31911 0.19993 0.77856 0.0
H1049 H 0.28008 0.13323 0.87818 0.0
H1050 H 0.27475 0.15174 0.97699 0.0
H1051 H 0.28607 0.18725 0.04175 0.0
H1052 H 0.32695 0.2544 0.94668 0.0
H1053 H 0.32504 0.23562 0.83889 0.0
C1054 C 0.30915 0.18955 0.82158 0.0
C1055 C 0.30049 0.16533 0.82146 0.0
C1056 C 0.30632 0.20042 0.87914 0.0
C1057 C 0.28707 0.15191 0.87686 0.0
C1058 C 0.28412 0.1625 0.93378 0.0
C1059 C 0.29417 0.19771 0.99688 0.0
C1060 C 0.30653 0.22211 1.00169 0.0
C1061 C 0.29439 0.18678 0.93646 0.0
C1062 C 0.3173 0.23556 0.94386 0.0
C1063 C 0.31654 0.22478 0.88251 0.0
H1064 H 0.90006 0.17876 0.86284 0.0
H1065 H 0.8421 0.14293 0.72574 0.0
H1066 H 0.82144 0.11196 0.81159 0.0
H1067 H 0.81574 0.10119 0.93495 0.0
H1068 H 0.87457 0.13792 0.06889 0.0
H1069 H 0.89793 0.16371 0.97681 0.0
C1070 C 0.88271 0.16431 0.85164 0.0
C1071 C 0.87222 0.16365 0.78893 0.0
C1072 C 0.87039 0.14761 0.90212 0.0
C1073 C 0.85011 0.14442 0.77462 0.0
C1074 C 0.8382 0.12694 0.8239 0.0
C1075 C 0.83393 0.11431 0.94309 0.0
C1076 C 0.84353 0.11758 0.00858 0.0
C1077 C 0.84746 0.1292 0.88934 0.0
C1078 C 0.86697 0.13489 0.01881 0.0
C1079 C 0.88027 0.14977 0.96627 0.0
H1080 H 0.30795 0.20153 0.37093 0.0
H1081 H 0.32632 0.16237 0.23599 0.0
H1082 H 0.3126 0.13066 0.32053 0.0
H1083 H 0.30204 0.11756 0.44003 0.0
H1084 H 0.28654 0.15894 0.57471 0.0
H1085 H 0.29302 0.18657 0.4837 0.0
C1086 C 0.30893 0.186 0.35987 0.0
C1087 C 0.31838 0.18434 0.29793 0.0
C1088 C 0.3021 0.16855 0.40926 0.0
C1089 C 0.3195 0.16418 0.28394 0.0
C1090 C 0.31174 0.14614 0.33216 0.0
C1091 C 0.29937 0.13225 0.44843 0.0
C1092 C 0.29372 0.13628 0.51357 0.0
C1093 C 0.3039 0.14855 0.39605 0.0
C1094 C 0.29064 0.15547 0.52464 0.0
C1095 C 0.29459 0.17138 0.47285 0.0
H1096 H 0.93544 0.21797 0.43502 0.0
H1097 H 0.90491 0.15873 0.56981 0.0
H1098 H 0.87907 0.13425 0.47996 0.0
H1099 H 0.86137 0.13122 0.36859 0.0
H1100 H 0.89208 0.18978 0.23133 0.0
H1101 H 0.92368 0.21188 0.31358 0.0
C1102 C 0.92387 0.19947 0.44365 0.0
C1103 C 0.92223 0.1901 0.50886 0.0
C1104 C 0.90909 0.18532 0.39124 0.0
C1105 C 0.90681 0.16622 0.5198 0.0
C1106 C 0.8918 0.15226 0.4686 0.0
C1107 C 0.87496 0.14888 0.35644 0.0
C1108 C 0.87393 0.15914 0.29485 0.0
C1109 C 0.89214 0.16189 0.40502 0.0
C1110 C 0.89198 0.18179 0.27934 0.0
C1111 C 0.90981 0.1945 0.32654 0.0
H1112 H 0.8001 0.7141 0.41515 0.0
H1113 H 0.86133 0.7511 0.54028 0.0
H1114 H 0.8856 0.7473 0.45378 0.0
H1115 H 0.88784 0.7273 0.35227 0.0
H1116 H 0.82755 0.69186 0.22332 0.0
H1117 H 0.80473 0.70231 0.29963 0.0
C1118 C 0.81894 0.72233 0.42186 0.0
C1119 C 0.82893 0.73289 0.48401 0.0
C1120 C 0.83286 0.71996 0.37173 0.0
C1121 C 0.85331 0.74316 0.49261 0.0
C1122 C 0.86715 0.74067 0.4435 0.0
C1123 C 0.86974 0.72201 0.34045 0.0
C1124 C 0.8589 0.70774 0.28412 0.0
C1125 C 0.85686 0.72804 0.3845 0.0
C1126 C 0.83575 0.70174 0.26841 0.0
C1127 C 0.82287 0.70796 0.31153 0.0
H1128 H 0.56656 0.07597 0.8348 0.0
H1129 H 0.5196 0.99275 0.91496 0.0
H1130 H 0.48142 0.97716 0.82734 0.0
H1131 H 0.45673 0.99435 0.69337 0.0
H1132 H 0.50179 0.07745 0.6171 0.0
H1133 H 0.54104 0.09297 0.70012 0.0
C1134 C 0.5507 0.05938 0.8283 0.0
C1135 C 0.54557 0.03507 0.8827 0.0
C1136 C 0.53041 0.05674 0.76358 0.0
C1137 C 0.52005 1.00548 0.87958 0.0
C1138 C 0.4954 0.99506 0.8229 0.0
C1139 C 0.47263 0.01095 0.69932 0.0
C1140 C 0.47674 0.03529 0.64899 0.0
C1141 C 0.49314 0.01324 0.76047 0.0
C1142 C 0.50202 0.06474 0.65123 0.0
C1143 C 0.52737 0.07492 0.70391 0.0
H1144 H 0.03098 0.48363 0.77734 0.0
H1145 H 0.05251 0.54816 0.67 0.0
H1146 H 0.03887 0.56219 0.76331 0.0
H1147 H 0.0148 0.55322 0.86591 0.0
H1148 H 0.99361 0.4895 0.97501 0.0
H1149 H 0.01428 0.47851 0.8925 0.0
C1150 C 0.03336 0.50104 0.77518 0.0
C1151 C 0.04217 0.51453 0.71566 0.0
C1152 C 0.02545 0.50909 0.82936 0.0
C1153 C 0.04547 0.53722 0.71448 0.0
C1154 C 0.03758 0.54526 0.76785 0.0
C1155 C 0.01499 0.53715 0.87216 0.0
C1156 C 1.00229 0.52195 0.92545 0.0
C1157 C 0.02649 0.53087 0.82393 0.0
C1158 C 1.00306 0.5013 0.93379 0.0
C1159 C 0.01478 0.49502 0.88651 0.0
H1160 H 0.54885 0.5586 0.72985 0.0
H1161 H 0.48684 0.54786 0.6246 0.0
H1162 H 0.46208 0.52099 0.7134 0.0
H1163 H 0.45813 0.49793 0.81614 0.0
H1164 H 0.52033 0.50632 0.91529 0.0
H1165 H 0.54474 0.53723 0.83461 0.0
C1166 C 0.52992 0.55053 0.7267 0.0
C1167 C 0.51975 0.555 0.67035 0.0
C1168 C 0.51579 0.53449 0.77662 0.0
C1169 C 0.49519 0.54474 0.66748 0.0
C1170 C 0.48099 0.52919 0.71793 0.0
C1171 C 0.4771 0.5065 0.81996 0.0
C1172 C 0.48745 0.49982 0.87138 0.0
C1173 C 0.49113 0.52346 0.7718 0.0
C1174 C 0.51197 0.51096 0.87577 0.0
C1175 C 0.52594 0.52853 0.82969 0.0
H1176 H 0.70064 0.84559 0.45917 0.0
H1177 H 0.72616 0.90492 0.58917 0.0
H1178 H 0.71853 0.8795 0.68879 0.0
H1179 H 0.70213 0.83964 0.73853 0.0
H1180 H 0.67329 0.78034 0.60599 0.0
H1181 H 0.68445 0.80623 0.50801 0.0
C1182 C 0.70422 0.85286 0.50955 0.0
C1183 C 0.71306 0.87688 0.51756 0.0
C1184 C 0.69868 0.83801 0.56598 0.0
C1185 C 0.71877 0.88637 0.58244 0.0
C1186 C 0.71421 0.87181 0.6391 0.0
C1187 C 0.69779 0.83244 0.6881 0.0
C1188 C 0.68644 0.80805 0.67953 0.0
C1189 C 0.70354 0.84748 0.6316 0.0
C1190 C 0.68132 0.79895 0.614 0.0
C1191 C 0.68784 0.81378 0.55785 0.0
H1192 H 0.16825 0.8852 0.66716 0.0
H1193 H 0.14048 0.82697 0.80524 0.0
H1194 H 0.11306 0.80191 0.71687 0.0
H1195 H 0.10118 0.79492 0.60016 0.0
H1196 H 0.12805 0.85272 0.46092 0.0
H1197 H 0.15159 0.87951 0.55114 0.0
C1198 C 0.1557 0.86714 0.67887 0.0
C1199 C 0.15683 0.85764 0.74196 0.0
C1200 C 0.14001 0.85271 0.62848 0.0
C1201 C 0.1403 0.8344 0.75659 0.0
C1202 C 0.12454 0.82018 0.70701 0.0
C1203 C 0.1116 0.81351 0.59025 0.0
C1204 C 0.11277 0.82189 0.52447 0.0
C1205 C 0.12493 0.8288 0.6423 0.0
C1206 C 0.1266 0.84595 0.51172 0.0
C1207 C 0.14018 0.86124 0.5632 0.0
H1208 H 0.15271 0.31967 0.62647 0.0
H1209 H 0.2093 0.3464 0.77038 0.0
H1210 H 0.2336 0.33964 0.68873 0.0
H1211 H 0.24088 0.33135 0.57436 0.0
H1212 H 0.18484 0.30578 0.42922 0.0
H1213 H 0.15838 0.30703 0.51405 0.0
C1214 C 0.17043 0.32405 0.64014 0.0
C1215 C 0.1795 0.33417 0.70347 0.0
C1216 C 0.1845 0.32059 0.5933 0.0
C1217 C 0.2022 0.33924 0.72124 0.0
C1218 C 0.21599 0.33522 0.67536 0.0
C1219 C 0.22271 0.32557 0.56201 0.0
C1220 C 0.21478 0.31855 0.49595 0.0
C1221 C 0.2077 0.32671 0.61072 0.0
C1222 C 0.19124 0.31108 0.48016 0.0
C1223 C 0.17619 0.31201 0.52844 0.0
H1224 H 0.56885 0.04791 0.19179 0.0
H1225 H 0.55337 0.96753 0.25275 0.0
H1226 H 0.51527 0.94807 0.15852 0.0
H1227 H 0.48811 0.95841 0.06824 0.0
H1228 H 0.50278 0.0284 0.01943 0.0
H1229 H 0.53966 0.04801 0.07906 0.0
C1230 C 0.56012 0.02939 0.18211 0.0
C1231 C 0.56729 0.0105 0.23264 0.0
C1232 C 0.53722 0.01672 0.11835 0.0
C1233 C 0.55041 0.97904 0.22039 0.0
C1234 C 0.52622 0.96679 0.16206 0.0
C1235 C 0.49994 0.97706 0.06979 0.0
C1236 C 0.49317 0.99257 0.04185 0.0
C1237 C 0.51982 0.98555 0.11041 0.0
C1238 C 0.50869 0.01734 0.04209 0.0
C1239 C 0.53009 0.02916 0.07786 0.0
H1240 H 0.96665 0.48143 0.33916 0.0
H1241 H 0.98471 0.54842 0.25467 0.0
H1242 H 0.99725 0.53849 0.14996 0.0
H1243 H 1.0108 0.51407 0.09136 0.0
H1244 H 0.99625 0.44905 0.1817 0.0
H1245 H 0.97532 0.45481 0.27429 0.0
C1246 C 0.97297 0.49367 0.2972 0.0
C1247 C 0.9748 0.51566 0.30466 0.0
C1248 C 0.98181 0.48853 0.23884 0.0
C1249 C 0.98325 0.53144 0.25028 0.0
C1250 C 0.9907 0.52586 0.19058 0.0
C1251 C 1.00281 0.50114 0.13108 0.0
C1252 C 1.00567 0.48144 0.13064 0.0
C1253 C 0.99135 0.50503 0.18566 0.0
C1254 C 0.99481 0.46454 0.18157 0.0
C1255 C 0.98278 0.46787 0.23467 0.0
H1256 H 0.46316 0.43426 0.28367 0.0
H1257 H 0.521 0.46907 0.42158 0.0
H1258 H 0.54722 0.49099 0.3281 0.0
H1259 H 0.55238 0.50364 0.20952 0.0
H1260 H 0.49468 0.46986 0.07075 0.0
H1261 H 0.47029 0.44284 0.16174 0.0
C1262 C 0.48169 0.44605 0.29262 0.0
C1263 C 0.49029 0.4499 0.35906 0.0
C1264 C 0.49669 0.45879 0.23847 0.0
C1265 C 0.51417 0.4656 0.37056 0.0
C1266 C 0.52911 0.47825 0.3172 0.0
C1267 C 0.53449 0.49021 0.19873 0.0
C1268 C 0.52508 0.4891 0.13398 0.0
C1269 C 0.52036 0.47553 0.25126 0.0
C1270 C 0.50204 0.47145 0.12062 0.0
C1271 C 0.48813 0.45614 0.17232 0.0
H1272 H 0.99135 0.48042 0.61905 0.0
H1273 H 0.97998 0.53016 0.72636 0.0
H1274 H 0.96279 0.50311 0.82098 0.0
H1275 H 0.95615 0.46794 0.87987 0.0
H1276 H 0.97662 0.42229 0.78571 0.0
H1277 H 0.98482 0.44448 0.67988 0.0
C1278 C 0.98549 0.48537 0.66382 0.0
C1279 C 0.98739 0.50747 0.66665 0.0
C1280 C 0.97718 0.47027 0.72045 0.0
C1281 C 0.97907 0.51345 0.72385 0.0
C1282 C 0.96912 0.4979 0.77774 0.0
C1283 C 0.9618 0.46241 0.83573 0.0
C1284 C 0.9658 0.44349 0.84092 0.0
C1285 C 0.96867 0.47654 0.7775 0.0
C1286 C 0.97339 0.43679 0.78321 0.0
C1287 C 0.97839 0.44968 0.7229 0.0
H1288 H 0.58443 0.54229 0.77532 0.0
H1289 H 0.55645 0.4795 0.8952 0.0
H1290 H 0.52766 0.45795 0.80755 0.0
H1291 H 0.50623 0.45874 0.70696 0.0
H1292 H 0.53349 0.52127 0.58607 0.0
H1293 H 0.56762 0.54069 0.66149 0.0
C1294 C 0.57276 0.52365 0.78057 0.0
C1295 C 0.57253 0.51248 0.84164 0.0
C1296 C 0.55584 0.51141 0.73023 0.0
C1297 C 0.55711 0.48841 0.84844 0.0
C1298 C 0.54037 0.47616 0.79873 0.0
C1299 C 0.51968 0.47662 0.69676 0.0
C1300 C 0.51691 0.48886 0.64225 0.0
C1301 C 0.5388 0.48779 0.74118 0.0
C1302 C 0.53479 0.51179 0.62906 0.0
C1303 C 0.55432 0.52281 0.67194 0.0
H1304 H 0.54963 0.00937 0.67603 0.0
H1305 H 0.52759 0.03122 0.50307 0.0
H1306 H 0.50584 0.04277 0.56292 0.0
H1307 H 0.48049 0.05332 0.75171 0.0
H1308 H 0.51024 0.03346 0.90704 0.0
H1309 H 0.54245 0.01618 0.78152 0.0
C1310 C 0.53968 0.01679 0.65404 0.0
C1311 C 0.53883 0.01815 0.58438 0.0
C1312 C 0.52863 0.02536 0.69658 0.0
C1313 C 0.52706 0.02877 0.55713 0.0
C1314 C 0.51428 0.03626 0.59652 0.0
C1315 C 0.49273 0.04655 0.75664 0.0
C1316 C 0.49502 0.04405 0.8318 0.0
C1317 C 0.51276 0.03565 0.67176 0.0
C1318 C 0.51074 0.03443 0.85175 0.0
C1319 C 0.53075 0.0234 0.77277 0.0
H1320 H 0.13521 0.32719 0.07495 0.0
H1321 H 0.16347 0.2966 0.9402 0.0
H1322 H 0.19356 0.30255 0.02324 0.0
H1323 H 0.21439 0.3205 0.12923 0.0
H1324 H 0.18667 0.3519 0.26324 0.0
H1325 H 0.15315 0.34038 0.1869 0.0
C1326 C 0.14754 0.32121 0.06491 0.0
C1327 C 0.14718 0.31146 1.00188 0.0
C1328 C 0.165 0.32498 0.11262 0.0
C1329 C 0.16328 0.30388 0.98887 0.0
C1330 C 0.18066 0.30756 0.03599 0.0
C1331 C 0.20103 0.32495 0.14159 0.0
C1332 C 0.20327 0.3376 0.20072 0.0
C1333 C 0.18219 0.31887 0.09703 0.0
C1334 C 0.18567 0.34281 0.21699 0.0
C1335 C 0.16648 0.33612 0.17386 0.0
H1336 H 0.69256 0.78739 0.06934 0.0
H1337 H 0.75159 0.84806 0.98195 0.0
H1338 H 0.75009 0.87216 0.07277 0.0
H1339 H 0.72928 0.87653 0.17036 0.0
H1340 H 0.66775 0.8161 0.25006 0.0
H1341 H 0.67332 0.79168 0.16929 0.0
C1342 C 0.70496 0.80592 0.06975 0.0
C1343 C 0.72173 0.81593 0.0179 0.0
C1344 C 0.70338 0.81982 0.12039 0.0
C1345 C 0.73841 0.83982 0.02106 0.0
C1346 C 0.73741 0.85368 0.07266 0.0
C1347 C 0.717 0.85793 0.17016 0.0
C1348 C 0.69808 0.84817 0.21637 0.0
C1349 C 0.71951 0.84394 0.12148 0.0
C1350 C 0.68234 0.82413 0.21502 0.0
C1351 C 0.68531 0.81012 0.16834 0.0
H1352 H 0.21099 0.9008 0.10747 0.0
H1353 H 0.14832 0.87911 0.99 0.0
H1354 H 0.12505 0.84978 0.07533 0.0
H1355 H 0.12338 0.82728 0.17575 0.0
H1356 H 0.18576 0.84785 0.29398 0.0
H1357 H 0.20788 0.88153 0.21783 0.0
C1358 C 0.19211 0.89013 0.10191 0.0
C1359 C 0.18134 0.89203 0.04257 0.0
C1360 C 0.17886 0.87287 0.15076 0.0
C1361 C 0.15693 0.87808 0.03554 0.0
C1362 C 0.14368 0.86107 0.08386 0.0
C1363 C 0.14192 0.83901 0.18493 0.0
C1364 C 0.15303 0.83472 0.23968 0.0
C1365 C 0.15464 0.85773 0.14024 0.0
C1366 C 0.17694 0.85032 0.25117 0.0
C1367 C 0.18957 0.86952 0.20784 0.0
H1368 H 0.36386 0.10076 0.8093 0.0
H1369 H 0.28917 0.05358 0.81638 0.0
H1370 H 0.29338 0.0383 0.92519 0.0
H1371 H 0.31584 0.04881 0.0305 0.0
H1372 H 0.38858 0.10273 0.02936 0.0
H1373 H 0.3883 0.10372 0.90638 0.0
C1374 C 0.34863 0.08645 0.83354 0.0
C1375 C 0.32613 0.07881 0.80637 0.0
C1376 C 0.35101 0.07919 0.8982 0.0
C1377 C 0.3066 0.05993 0.83683 0.0
C1378 C 0.30902 0.05142 0.89951 0.0
C1379 C 0.33194 0.06003 1.0031 0.0
C1380 C 0.35176 0.07679 0.03893 0.0
C1381 C 0.3308 0.06243 0.93297 0.0
C1382 C 0.37281 0.09025 1.00326 0.0
C1383 C 0.37249 0.09119 0.93269 0.0
H1384 H 0.96963 0.282 0.07839 0.0
H1385 H 0.90847 0.2898 0.06694 0.0
H1386 H 0.90904 0.28784 0.94438 0.0
H1387 H 0.92205 0.27685 0.84369 0.0
H1388 H 0.9779 0.26061 0.85527 0.0
H1389 H 0.9843 0.27262 0.97416 0.0
C1390 C 0.95614 0.28267 0.04915 0.0
C1391 C 0.93827 0.28464 0.08253 0.0
C1392 C 0.95561 0.2799 0.97857 0.0
C1393 C 0.92209 0.28763 0.04331 0.0
C1394 C 0.92235 0.28643 0.973 0.0
C1395 C 0.93595 0.27625 0.87163 0.0
C1396 C 0.94924 0.26745 0.84063 0.0
C1397 C 0.93832 0.28149 0.94055 0.0
C1398 C 0.96741 0.26728 0.87759 0.0
C1399 C 0.97085 0.27388 0.94585 0.0
H1400 H 0.73772 0.64368 0.79704 0.0
H1401 H 0.75064 0.71395 0.81784 0.0
H1402 H 0.73699 0.70543 0.9354 0.0
H1403 H 0.73034 0.68062 0.03858 0.0
H1404 H 0.72774 0.61473 0.0169 0.0
H1405 H 0.72758 0.61831 0.89471 0.0
C1406 C 0.73733 0.65718 0.8268 0.0
C1407 C 0.74597 0.6797 0.79915 0.0
C1408 C 0.73184 0.65294 0.89547 0.0
C1409 C 0.74444 0.69658 0.83792 0.0
C1410 C 0.737 0.6918 0.90558 0.0
C1411 C 0.7304 0.66749 1.00665 0.0
C1412 C 0.73082 0.64837 0.03676 0.0
C1413 C 0.73233 0.6706 0.93602 0.0
C1414 C 0.72822 0.63005 0.99542 0.0
C1415 C 0.72827 0.63215 0.92532 0.0
H1416 H 0.09473 0.37525 0.71806 0.0
H1417 H 0.06344 0.30081 0.7 0.0
H1418 H 0.05622 0.30349 0.58023 0.0
H1419 H 0.07335 0.32783 0.47957 0.0
H1420 H 0.11377 0.40254 0.49833 0.0
H1421 H 0.10225 0.39933 0.61674 0.0
C1422 C 0.08528 0.3595 0.6884 0.0
C1423 C 0.08064 0.338 0.71672 0.0
C1424 C 0.08364 0.36154 0.61838 0.0
C1425 C 0.06768 0.31762 0.67904 0.0
C1426 C 0.06398 0.31926 0.61006 0.0
C1427 C 0.07875 0.34347 0.50894 0.0
C1428 C 0.09533 0.36531 0.48142 0.0
C1429 C 0.07412 0.34127 0.57848 0.0
C1430 C 0.10149 0.38549 0.51871 0.0
C1431 C 0.0952 0.38359 0.58694 0.0
H1432 H 0.64692 0.70901 0.53634 0.0
H1433 H 0.71711 0.75528 0.46322 0.0
H1434 H 0.73301 0.75698 0.57502 0.0
H1435 H 0.72553 0.75339 0.69705 0.0
H1436 H 0.65775 0.70191 0.77131 0.0
H1437 H 0.64219 0.69387 0.65539 0.0
C1438 C 0.66575 0.71851 0.54412 0.0
C1439 C 0.68068 0.73281 0.49215 0.0
C1440 C 0.67505 0.71927 0.6091 0.0
C1441 C 0.70513 0.74467 0.50296 0.0
C1442 C 0.71431 0.74584 0.56712 0.0
C1443 C 0.70752 0.73993 0.68802 0.0
C1444 C 0.69189 0.72997 0.74252 0.0
C1445 C 0.69923 0.73454 0.62139 0.0
C1446 C 0.66919 0.71151 0.72963 0.0
C1447 C 0.6605 0.70663 0.6635 0.0
H1448 H 0.29502 0.93189 0.52363 0.0
H1449 H 0.22501 0.91572 0.47359 0.0
H1450 H 0.22154 0.9331 0.5735 0.0
H1451 H 0.23369 0.944 0.68747 0.0
H1452 H 0.29596 0.94524 0.75923 0.0
H1453 H 0.30787 0.94369 0.64288 0.0
C1454 C 0.27924 0.93266 0.53422 0.0
C1455 C 0.26107 0.92444 0.48585 0.0
C1456 C 0.2761 0.94005 0.59838 0.0
C1457 C 0.24043 0.92455 0.50294 0.0
C1458 C 0.23807 0.93381 0.56289 0.0
C1459 C 0.25054 0.9453 0.67722 0.0
C1460 C 0.26396 0.94491 0.73138 0.0
C1461 C 0.25541 0.94093 0.6119 0.0
C1462 C 0.28548 0.9459 0.71795 0.0
C1463 C 0.29191 0.9443 0.65147 0.0
H1464 H 0.70475 0.94105 0.98149 0.0
H1465 H 0.6295 0.9068 1.00221 0.0
H1466 H 0.63387 0.92242 0.11623 0.0
H1467 H 0.65822 0.93311 0.21804 0.0
H1468 H 0.73257 0.95932 0.20072 0.0
H1469 H 0.72994 0.96117 0.07818 0.0
C1470 C 0.68933 0.93781 0.01008 0.0
C1471 C 0.66682 0.92215 0.98467 0.0
C1472 C 0.69202 0.9453 0.0772 0.0
C1473 C 0.64697 0.91853 0.02103 0.0
C1474 C 0.64952 0.92725 0.08665 0.0
C1475 C 0.67404 0.94038 0.18743 0.0
C1476 C 0.69535 0.94493 0.21786 0.0
C1477 C 0.67185 0.93883 0.1169 0.0
C1478 C 0.71586 0.95515 0.17852 0.0
C1479 C 0.71422 0.95567 0.10811 0.0
H1480 H 0.04049 0.74057 0.21339 0.0
H1481 H 0.07804 0.70429 0.25811 0.0
H1482 H 0.07417 0.69151 0.1417 0.0
H1483 H 0.07472 0.70542 0.02524 0.0
H1484 H 0.03581 0.74024 0.98031 0.0
H1485 H 0.02447 0.73775 0.09821 0.0
C1486 C 0.04635 0.72854 0.19879 0.0
C1487 C 0.06069 0.72447 0.24274 0.0
C1488 C 0.04443 0.72156 0.13096 0.0
C1489 C 0.06763 0.70831 0.22394 0.0
C1490 C 0.0657 0.70122 0.15699 0.0
C1491 C 0.06234 0.71087 0.0403 0.0
C1492 C 0.05734 0.72432 0.99562 0.0
C1493 C 0.05636 0.7099 0.10893 0.0
C1494 C 0.0406 0.73057 0.01498 0.0
C1495 C 0.03445 0.72956 0.08283 0.0
H1496 H 0.29375 0.31615 0.19454 0.0
H1497 H 0.33551 0.38966 0.2335 0.0
H1498 H 0.34753 0.39722 0.11568 0.0
H1499 H 0.33214 0.38411 1.00069 0.0
H1500 H 0.29081 0.31055 0.96175 0.0
H1501 H 0.29365 0.30174 0.07962 0.0
C1502 C 0.30673 0.33358 0.17829 0.0
C1503 C 0.31263 0.35247 0.22128 0.0
C1504 C 0.31304 0.33791 0.10958 0.0
C1505 C 0.33004 0.3749 0.20024 0.0
C1506 C 0.33668 0.37932 0.13245 0.0
C1507 C 0.32509 0.36615 0.01698 0.0
C1508 C 0.30997 0.34804 0.97407 0.0
C1509 C 0.3262 0.36121 0.08572 0.0
C1510 C 0.30173 0.32485 0.99503 0.0
C1511 C 0.30304 0.31976 0.06285 0.0
H1512 H 0.96815 0.70728 0.31018 0.0
H1513 H 0.91783 0.63472 0.27958 0.0
H1514 H 0.92643 0.62493 0.39051 0.0
H1515 H 0.93656 0.63975 0.50634 0.0
H1516 H 0.98731 0.71199 0.53759 0.0
H1517 H 0.99141 0.71891 0.41624 0.0
C1518 C 0.96016 0.6892 0.32616 0.0
C1519 C 0.94161 0.6719 0.28854 0.0
C1520 C 0.96488 0.68367 0.39106 0.0
C1521 C 0.93168 0.64845 0.30907 0.0
C1522 C 0.93645 0.64281 0.37283 0.0
C1523 C 0.94971 0.65661 0.48667 0.0
C1524 C 0.9603 0.67571 0.53037 0.0
C1525 C 0.95129 0.66063 0.41653 0.0
C1526 C 0.97812 0.69719 0.5044 0.0
C1527 C 0.98013 0.70131 0.43477 0.0
H1528 H 0.39177 0.30928 0.54744 0.0
H1529 H 0.32035 0.27932 0.61468 0.0
H1530 H 0.30711 0.2777 0.4977 0.0
H1531 H 0.31616 0.2765 0.37553 0.0
H1532 H 0.38861 0.31238 0.31222 0.0
H1533 H 0.40139 0.32151 0.42884 0.0
C1534 C 0.37338 0.30296 0.53692 0.0
C1535 C 0.35653 0.29188 0.5881 0.0
C1536 C 0.36622 0.30345 0.4703 0.0
C1537 C 0.3331 0.28536 0.57427 0.0
C1538 C 0.32567 0.285 0.50778 0.0
C1539 C 0.33465 0.28748 0.38695 0.0
C1540 C 0.35145 0.29308 0.33572 0.0
C1541 C 0.342 0.29257 0.45474 0.0
C1542 C 0.37537 0.30753 0.35119 0.0
C1543 C 0.38275 0.31247 0.41804 0.0
H1544 H 0.7466 0.05554 0.57465 0.0
H1545 H 0.73676 0.11499 0.56334 0.0
H1546 H 0.73984 0.11532 0.44092 0.0
H1547 H 0.75358 0.1045 0.34144 0.0
H1548 H 0.77351 0.05163 0.35452 0.0
H1549 H 0.75875 0.0429 0.47128 0.0
C1550 C 0.74597 0.06896 0.54552 0.0
C1551 C 0.74321 0.08616 0.57891 0.0
C1552 C 0.74971 0.07023 0.47527 0.0
C1553 C 0.73971 0.10197 0.53972 0.0
C1554 C 0.74156 0.10223 0.4695 0.0
C1555 C 0.75433 0.0907 0.36927 0.0
C1556 C 0.76504 0.079 0.3397 0.0
C1557 C 0.74782 0.0873 0.43736 0.0
C1558 C 0.76537 0.06088 0.37595 0.0
C1559 C 0.75725 0.05617 0.44304 0.0
H1560 H 1.00998 0.40968 0.41499 0.0
H1561 H 0.07113 0.47679 0.38075 0.0
H1562 H 0.06704 0.47028 0.25917 0.0
H1563 H 0.0423 0.44905 0.16445 0.0
H1564 H 0.97769 0.38449 0.19585 0.0
H1565 H 0.98593 0.38693 0.31709 0.0
C1566 C 0.0219 0.42309 0.38071 0.0
C1567 C 0.03991 0.4442 0.40706 0.0
C1568 C 0.01848 0.4199 0.31053 0.0
C1569 C 0.05674 0.46056 0.3623 0.0
C1570 C 0.05429 0.45693 0.29253 0.0
C1571 C 0.03023 0.43511 0.19637 0.0
C1572 C 1.00939 0.41655 0.16977 0.0
C1573 C 0.03462 0.43718 0.26613 0.0
C1574 C 0.99383 0.39905 0.21447 0.0
C1575 C 0.99851 0.40048 0.28394 0.0
H1576 H 0.58554 0.60762 0.15061 0.0
H1577 H 0.63742 0.58644 0.17632 0.0
H1578 H 0.6458 0.60303 0.29032 0.0
H1579 H 0.63156 0.61546 0.39054 0.0
H1580 H 0.57255 0.62617 0.36676 0.0
H1581 H 0.57426 0.62296 0.24495 0.0
C1582 C 0.59898 0.60686 0.18066 0.0
C1583 C 0.61034 0.59515 0.15574 0.0
C1584 C 0.60194 0.61423 0.24766 0.0
C1585 C 0.62823 0.5951 0.19447 0.0
C1586 C 0.63271 0.60426 0.2601 0.0
C1587 C 0.61874 0.61634 0.35845 0.0
C1588 C 0.60088 0.61916 0.38807 0.0
C1589 C 0.61848 0.61234 0.28866 0.0
C1590 C 0.58599 0.62313 0.34585 0.0
C1591 C 0.58686 0.62115 0.27602 0.0
H1592 H 0.39135 0.02037 0.11192 0.0
H1593 H 0.42128 0.97593 0.13906 0.0
H1594 H 0.41061 0.97085 0.25795 0.0
H1595 H 0.40095 0.98597 0.3575 0.0
H1596 H 0.37573 0.03436 0.33359 0.0
H1597 H 0.37496 0.02998 0.21104 0.0
C1598 C 0.39492 0.00909 0.14371 0.0
C1599 C 0.40671 0.9982 0.11635 0.0
C1600 C 0.38939 1.00687 0.21307 0.0
C1601 C 0.4115 0.98384 0.15808 0.0
C1602 C 0.40563 0.98115 0.22654 0.0
C1603 C 0.39392 0.99445 0.32568 0.0
C1604 C 0.38851 0.01054 0.35454 0.0
C1605 C 0.39544 0.99332 0.25513 0.0
C1606 C 0.37982 0.02173 0.31258 0.0
C1607 C 0.37998 0.01969 0.24231 0.0
H1608 H 0.63592 0.0509 0.80487 0.0
H1609 H 0.60341 0.97648 0.83542 0.0
H1610 H 0.60574 0.97161 0.71291 0.0
H1611 H 0.61404 0.98889 0.59582 0.0
H1612 H 0.63772 0.06191 0.57076 0.0
H1613 H 0.64282 0.06724 0.69235 0.0
C1614 C 0.62941 0.03343 0.78574 0.0
C1615 C 0.61936 0.01402 0.83047 0.0
C1616 C 0.62911 0.03065 0.71554 0.0
C1617 C 0.61134 0.99177 0.80307 0.0
C1618 C 0.61245 0.989 0.73277 0.0
C1619 C 0.6192 1.00564 0.61733 0.0
C1620 C 0.62407 0.02458 0.57389 0.0
C1621 C 0.62053 1.00828 0.68832 0.0
C1622 C 0.63327 0.04683 0.60231 0.0
C1623 C 0.63613 0.04989 0.67213 0.0
H1624 H 1.01113 0.6049 0.625 0.0
H1625 H 0.94325 0.54401 0.65347 0.0
H1626 H 0.94907 0.54691 0.7756 0.0
H1627 H 0.97553 0.56291 0.8715 0.0
H1628 H 0.04581 0.62036 0.84429 0.0
H1629 H 0.03797 0.62148 0.72358 0.0
C1630 C 0.9981 0.59173 0.65779 0.0
C1631 C 0.97743 0.57352 0.62927 0.0
C1632 C 1.00227 0.59256 0.72797 0.0
C1633 C 0.95958 0.55797 0.67321 0.0
C1634 C 0.96296 0.55955 0.7433 0.0
C1635 C 0.98902 0.57616 0.8406 0.0
C1636 C 1.01118 0.5918 0.86846 0.0
C1637 C 0.98458 0.57619 0.771 0.0
C1638 C 0.02859 0.60813 0.82488 0.0
C1639 C 0.02409 0.60877 0.75571 0.0
H1640 H 0.40473 0.3868 0.68364 0.0
H1641 H 0.38617 0.43935 0.63918 0.0
H1642 H 0.36942 0.43486 0.75133 0.0
H1643 H 0.37483 0.42699 0.86982 0.0
H1644 H 0.39148 0.37323 0.91447 0.0
H1645 H 0.39279 0.36614 0.7946 0.0
C1646 C 0.39574 0.39619 0.69704 0.0
C1647 C 0.39767 0.41416 0.65467 0.0
C1648 C 0.38626 0.39371 0.76249 0.0
C1649 C 0.38554 0.4259 0.67213 0.0
C1650 C 0.37608 0.4235 0.7366 0.0
C1651 C 0.37706 0.41259 0.8536 0.0
C1652 C 0.38487 0.40191 0.90023 0.0
C1653 C 0.37846 0.40909 0.78409 0.0
C1654 C 0.3865 0.3825 0.87882 0.0
C1655 C 0.38779 0.37875 0.80996 0.0
loop_
_geom_bond_atom_site_label_1
_geom_bond_atom_site_label_2
_geom_bond_distance
_geom_bond_site_symmetry_2
_ccdc_geom_bond_type
O0 Cd1 2.223 . S
O0 C8 1.315 . S
Cd1 O0 2.223 . S
Cd1 O4 2.297 . S
Cd1 O5 2.439 . S
Cd1 O11 2.240 . S
Cd2 O3 2.240 . S
Cd2 O10 2.223 . S
Cd2 O12 2.297 . S
Cd2 O13 2.439 . S
O3 Cd2 2.240 . S
O3 C8 1.279 . S
O4 Cd1 2.297 . S
O4 C6 1.247 . S
O5 Cd1 2.439 . S
O5 C6 1.208 . S
C6 O4 1.247 . S
C6 O5 1.208 . S
C7 O12 1.247 . S
C7 O13 1.208 . S
C8 O0 1.315 . S
C8 O3 1.279 . S
C9 O10 1.315 . S
C9 O11 1.279 . S
O10 Cd2 2.223 . S
O10 C9 1.315 . S
O11 Cd1 2.240 . S
O11 C9 1.279 . S
O12 Cd2 2.297 . S
O12 C7 1.247 . S
O13 Cd2 2.439 . S
O13 C7 1.208 . S
O14 Cd15 2.223 . S
O14 C22 1.315 . S
Cd15 O14 2.223 . S
Cd15 O18 2.297 . S
Cd15 O19 2.439 . S
Cd15 O25 2.240 . S
Cd16 O17 2.240 . S
Cd16 O24 2.223 . S
Cd16 O26 2.297 . S
Cd16 O27 2.439 . S
O17 Cd16 2.240 . S
O17 C22 1.279 . S
O18 Cd15 2.297 . S
O18 C20 1.247 . S
O19 Cd15 2.439 . S
O19 C20 1.208 . S
C20 O18 1.247 . S
C20 O19 1.208 . S
C21 O26 1.247 . S
C21 O27 1.208 . S
C22 O14 1.315 . S
C22 O17 1.279 . S
C23 O24 1.315 . S
C23 O25 1.279 . S
O24 Cd16 2.223 . S
O24 C23 1.315 . S
O25 Cd15 2.240 . S
O25 C23 1.279 . S
O26 Cd16 2.297 . S
O26 C21 1.247 . S
O27 Cd16 2.439 . S
O27 C21 1.208 . S
O28 Cd29 2.223 . S
O28 C36 1.315 . S
Cd29 O28 2.223 . S
Cd29 O32 2.297 . S
Cd29 O33 2.439 . S
Cd29 O39 2.240 . S
Cd30 O31 2.240 . S
Cd30 O38 2.223 . S
Cd30 O40 2.297 . S
Cd30 O41 2.439 . S
O31 Cd30 2.240 . S
O31 C36 1.279 . S
O32 Cd29 2.297 . S
O32 C34 1.247 . S
O33 Cd29 2.439 . S
O33 C34 1.208 . S
C34 O32 1.247 . S
C34 O33 1.208 . S
C35 O40 1.247 . S
C35 O41 1.208 . S
C36 O28 1.315 . S
C36 O31 1.279 . S
C37 O38 1.315 . S
C37 O39 1.279 . S
O38 Cd30 2.223 . S
O38 C37 1.315 . S
O39 Cd29 2.240 . S
O39 C37 1.279 . S
O40 Cd30 2.297 . S
O40 C35 1.247 . S
O41 Cd30 2.439 . S
O41 C35 1.208 . S
O42 Cd43 2.223 . S
O42 C50 1.315 . S
Cd43 O42 2.223 . S
Cd43 O46 2.297 . S
Cd43 O47 2.439 . S
Cd43 O53 2.240 . S
Cd44 O45 2.240 . S
Cd44 O52 2.223 . S
Cd44 O54 2.297 . S
Cd44 O55 2.439 . S
O45 Cd44 2.240 . S
O45 C50 1.279 . S
O46 Cd43 2.297 . S
O46 C48 1.247 . S
O47 Cd43 2.439 . S
O47 C48 1.208 . S
C48 O46 1.247 . S
C48 O47 1.208 . S
C49 O54 1.247 . S
C49 O55 1.208 . S
C50 O42 1.315 . S
C50 O45 1.279 . S
C51 O52 1.315 . S
C51 O53 1.279 . S
O52 Cd44 2.223 . S
O52 C51 1.315 . S
O53 Cd43 2.240 . S
O53 C51 1.279 . S
O54 Cd44 2.297 . S
O54 C49 1.247 . S
O55 Cd44 2.439 . S
O55 C49 1.208 . S
O56 Cd57 2.223 . S
O56 C64 1.315 . S
Cd57 O56 2.223 . S
Cd57 O60 2.297 . S
Cd57 O61 2.439 . S
Cd57 O67 2.240 . S
Cd58 O59 2.240 . S
Cd58 O66 2.223 . S
Cd58 O68 2.297 . S
Cd58 O69 2.439 . S
O59 Cd58 2.240 . S
O59 C64 1.279 . S
O60 Cd57 2.297 . S
O60 C62 1.247 . S
O61 Cd57 2.439 . S
O61 C62 1.208 . S
C62 O60 1.247 . S
C62 O61 1.208 . S
C63 O68 1.247 . S
C63 O69 1.208 . S
C64 O56 1.315 . S
C64 O59 1.279 . S
C65 O66 1.315 . S
C65 O67 1.279 . S
O66 Cd58 2.223 . S
O66 C65 1.315 . S
O67 Cd57 2.240 . S
O67 C65 1.279 . S
O68 Cd58 2.297 . S
O68 C63 1.247 . S
O69 Cd58 2.439 . S
O69 C63 1.208 . S
O70 Cd71 2.223 . S
O70 C78 1.315 . S
Cd71 O70 2.223 . S
Cd71 O74 2.297 . S
Cd71 O75 2.439 . S
Cd71 O81 2.240 . S
Cd72 O73 2.240 . S
Cd72 O80 2.223 . S
Cd72 O82 2.297 . S
Cd72 O83 2.439 . S
O73 Cd72 2.240 . S
O73 C78 1.279 . S
O74 Cd71 2.297 . S
O74 C76 1.247 . S
O75 Cd71 2.439 . S
O75 C76 1.208 . S
C76 O74 1.247 . S
C76 O75 1.208 . S
C77 O82 1.247 . S
C77 O83 1.208 . S
C78 O70 1.315 . S
C78 O73 1.279 . S
C79 O80 1.315 . S
C79 O81 1.279 . S
O80 Cd72 2.223 . S
O80 C79 1.315 . S
O81 Cd71 2.240 . S
O81 C79 1.279 . S
O82 Cd72 2.297 . S
O82 C77 1.247 . S
O83 Cd72 2.439 . S
O83 C77 1.208 . S
O84 Cd85 2.223 . S
O84 C92 1.315 . S
Cd85 O84 2.223 . S
Cd85 O88 2.297 . S
Cd85 O89 2.439 . S
Cd85 O95 2.240 . S
Cd86 O87 2.240 . S
Cd86 O94 2.223 . S
Cd86 O96 2.297 . S
Cd86 O97 2.439 . S
O87 Cd86 2.240 . S
O87 C92 1.279 . S
O88 Cd85 2.297 . S
O88 C90 1.247 . S
O89 Cd85 2.439 . S
O89 C90 1.208 . S
C90 O88 1.247 . S
C90 O89 1.208 . S
C91 O96 1.247 . S
C91 O97 1.208 . S
C92 O84 1.315 . S
C92 O87 1.279 . S
C93 O94 1.315 . S
C93 O95 1.279 . S
O94 Cd86 2.223 . S
O94 C93 1.315 . S
O95 Cd85 2.240 . S
O95 C93 1.279 . S
O96 Cd86 2.297 . S
O96 C91 1.247 . S
O97 Cd86 2.439 . S
O97 C91 1.208 . S
O98 Cd99 2.223 . S
O98 C106 1.315 . S
Cd99 O98 2.223 . S
Cd99 O102 2.297 . S
Cd99 O103 2.439 . S
Cd99 O109 2.240 . S
Cd100 O101 2.240 . S
Cd100 O108 2.223 . S
Cd100 O110 2.297 . S
Cd100 O111 2.439 . S
O101 Cd100 2.240 . S
O101 C106 1.279 . S
O102 Cd99 2.297 . S
O102 C104 1.247 . S
O103 Cd99 2.439 . S
O103 C104 1.208 . S
C104 O102 1.247 . S
C104 O103 1.208 . S
C105 O110 1.247 . S
C105 O111 1.208 . S
C106 O98 1.315 . S
C106 O101 1.279 . S
C107 O108 1.315 . S
C107 O109 1.279 . S
O108 Cd100 2.223 . S
O108 C107 1.315 . S
O109 Cd99 2.240 . S
O109 C107 1.279 . S
O110 Cd100 2.297 . S
O110 C105 1.247 . S
O111 Cd100 2.439 . S
O111 C105 1.208 . S
O112 Cd113 2.223 . S
O112 C120 1.315 . S
Cd113 O112 2.223 . S
Cd113 O116 2.297 . S
Cd113 O117 2.439 . S
Cd113 O123 2.240 . S
Cd114 O115 2.240 . S
Cd114 O122 2.223 . S
Cd114 O124 2.297 . S
Cd114 O125 2.439 . S
O115 Cd114 2.240 . S
O115 C120 1.279 . S
O116 Cd113 2.297 . S
O116 C118 1.247 . S
O117 Cd113 2.439 . S
O117 C118 1.208 . S
C118 O116 1.247 . S
C118 O117 1.208 . S
C119 O124 1.247 . S
C119 O125 1.208 . S
C120 O112 1.315 . S
C120 O115 1.279 . S
C121 O122 1.315 . S
C121 O123 1.279 . S
O122 Cd114 2.223 . S
O122 C121 1.315 . S
O123 Cd113 2.240 . S
O123 C121 1.279 . S
O124 Cd114 2.297 . S
O124 C119 1.247 . S
O125 Cd114 2.439 . S
O125 C119 1.208 . S
O126 Cd127 2.223 . S
O126 C134 1.315 . S
Cd127 O126 2.223 . S
Cd127 O130 2.297 . S
Cd127 O131 2.439 . S
Cd127 O137 2.240 . S
Cd128 O129 2.240 . S
Cd128 O136 2.223 . S
Cd128 O138 2.297 . S
Cd128 O139 2.439 . S
O129 Cd128 2.240 . S
O129 C134 1.279 . S
O130 Cd127 2.297 . S
O130 C132 1.247 . S
O131 Cd127 2.439 . S
O131 C132 1.208 . S
C132 O130 1.247 . S
C132 O131 1.208 . S
C133 O138 1.247 . S
C133 O139 1.208 . S
C134 O126 1.315 . S
C134 O129 1.279 . S
C135 O136 1.315 . S
C135 O137 1.279 . S
O136 Cd128 2.223 . S
O136 C135 1.315 . S
O137 Cd127 2.240 . S
O137 C135 1.279 . S
O138 Cd128 2.297 . S
O138 C133 1.247 . S
O139 Cd128 2.439 . S
O139 C133 1.208 . S
O140 Cd141 2.223 . S
O140 C148 1.315 . S
Cd141 O140 2.223 . S
Cd141 O144 2.297 . S
Cd141 O145 2.439 . S
Cd141 O151 2.240 . S
Cd142 O143 2.240 . S
Cd142 O150 2.223 . S
Cd142 O152 2.297 . S
Cd142 O153 2.439 . S
O143 Cd142 2.240 . S
O143 C148 1.279 . S
O144 Cd141 2.297 . S
O144 C146 1.247 . S
O145 Cd141 2.439 . S
O145 C146 1.208 . S
C146 O144 1.247 . S
C146 O145 1.208 . S
C147 O152 1.247 . S
C147 O153 1.208 . S
C148 O140 1.315 . S
C148 O143 1.279 . S
C149 O150 1.315 . S
C149 O151 1.279 . S
O150 Cd142 2.223 . S
O150 C149 1.315 . S
O151 Cd141 2.240 . S
O151 C149 1.279 . S
O152 Cd142 2.297 . S
O152 C147 1.247 . S
O153 Cd142 2.439 . S
O153 C147 1.208 . S
O154 Cd155 2.223 . S
O154 C162 1.315 . S
Cd155 O154 2.223 . S
Cd155 O158 2.297 . S
Cd155 O159 2.439 . S
Cd155 O165 2.240 . S
Cd156 O157 2.240 . S
Cd156 O164 2.223 . S
Cd156 O166 2.297 . S
Cd156 O167 2.439 . S
O157 Cd156 2.240 . S
O157 C162 1.279 . S
O158 Cd155 2.297 . S
O158 C160 1.247 . S
O159 Cd155 2.439 . S
O159 C160 1.208 . S
C160 O158 1.247 . S
C160 O159 1.208 . S
C161 O166 1.247 . S
C161 O167 1.208 . S
C162 O154 1.315 . S
C162 O157 1.279 . S
C163 O164 1.315 . S
C163 O165 1.279 . S
O164 Cd156 2.223 . S
O164 C163 1.315 . S
O165 Cd155 2.240 . S
O165 C163 1.279 . S
O166 Cd156 2.297 . S
O166 C161 1.247 . S
O167 Cd156 2.439 . S
O167 C161 1.208 . S
O168 Cd169 2.223 . S
O168 C176 1.315 1_655 S
Cd169 O168 2.223 . S
Cd169 O172 2.297 . S
Cd169 O173 2.439 . S
Cd169 O179 2.240 . S
Cd170 O171 2.240 . S
Cd170 O178 2.223 . S
Cd170 O180 2.297 . S
Cd170 O181 2.439 . S
O171 Cd170 2.240 . S
O171 C176 1.279 . S
O172 Cd169 2.297 . S
O172 C174 1.247 . S
O173 Cd169 2.439 . S
O173 C174 1.208 . S
C174 O172 1.247 . S
C174 O173 1.208 . S
C175 O180 1.247 . S
C175 O181 1.208 . S
C176 O168 1.315 1_455 S
C176 O171 1.279 . S
C177 O178 1.315 1_655 S
C177 O179 1.279 . S
O178 Cd170 2.223 . S
O178 C177 1.315 1_455 S
O179 Cd169 2.240 . S
O179 C177 1.279 . S
O180 Cd170 2.297 . S
O180 C175 1.247 . S
O181 Cd170 2.439 . S
O181 C175 1.208 . S
O182 Cd183 2.223 . S
O182 C190 1.315 . S
Cd183 O182 2.223 . S
Cd183 O186 2.297 . S
Cd183 O187 2.439 . S
Cd183 O193 2.240 . S
Cd184 O185 2.240 . S
Cd184 O192 2.223 . S
Cd184 O194 2.297 . S
Cd184 O195 2.439 . S
O185 Cd184 2.240 . S
O185 C190 1.279 . S
O186 Cd183 2.297 . S
O186 C188 1.247 . S
O187 Cd183 2.439 . S
O187 C188 1.208 . S
C188 O186 1.247 . S
C188 O187 1.208 . S
C189 O194 1.247 . S
C189 O195 1.208 . S
C190 O182 1.315 . S
C190 O185 1.279 . S
C191 O192 1.315 . S
C191 O193 1.279 . S
O192 Cd184 2.223 . S
O192 C191 1.315 . S
O193 Cd183 2.240 . S
O193 C191 1.279 . S
O194 Cd184 2.297 . S
O194 C189 1.247 . S
O195 Cd184 2.439 . S
O195 C189 1.208 . S
O196 Cd197 2.223 . S
O196 C204 1.315 1_545 S
Cd197 O196 2.223 . S
Cd197 O200 2.297 . S
Cd197 O201 2.439 . S
Cd197 O207 2.240 . S
Cd198 O199 2.240 . S
Cd198 O206 2.223 . S
Cd198 O208 2.297 . S
Cd198 O209 2.439 . S
O199 Cd198 2.240 . S
O199 C204 1.279 . S
O200 Cd197 2.297 . S
O200 C202 1.247 . S
O201 Cd197 2.439 . S
O201 C202 1.208 . S
C202 O200 1.247 . S
C202 O201 1.208 . S
C203 O208 1.247 . S
C203 O209 1.208 . S
C204 O196 1.315 1_565 S
C204 O199 1.279 . S
C205 O206 1.315 1_545 S
C205 O207 1.279 . S
O206 Cd198 2.223 . S
O206 C205 1.315 1_565 S
O207 Cd197 2.240 . S
O207 C205 1.279 . S
O208 Cd198 2.297 . S
O208 C203 1.247 . S
O209 Cd198 2.439 . S
O209 C203 1.208 . S
O210 Cd211 2.223 . S
O210 C218 1.315 . S
Cd211 O210 2.223 . S
Cd211 O214 2.297 . S
Cd211 O215 2.439 . S
Cd211 O221 2.240 . S
Cd212 O213 2.240 . S
Cd212 O220 2.223 . S
Cd212 O222 2.297 . S
Cd212 O223 2.439 . S
O213 Cd212 2.240 . S
O213 C218 1.279 . S
O214 Cd211 2.297 . S
O214 C216 1.247 . S
O215 Cd211 2.439 . S
O215 C216 1.208 . S
C216 O214 1.247 . S
C216 O215 1.208 . S
C217 O222 1.247 . S
C217 O223 1.208 . S
C218 O210 1.315 . S
C218 O213 1.279 . S
C219 O220 1.315 . S
C219 O221 1.279 . S
O220 Cd212 2.223 . S
O220 C219 1.315 . S
O221 Cd211 2.240 . S
O221 C219 1.279 . S
O222 Cd212 2.297 . S
O222 C217 1.247 . S
O223 Cd212 2.439 . S
O223 C217 1.208 . S
O224 Cd225 2.223 . S
O224 C232 1.315 . S
Cd225 O224 2.223 . S
Cd225 O228 2.297 . S
Cd225 O229 2.439 . S
Cd225 O235 2.240 . S
Cd226 O227 2.240 . S
Cd226 O234 2.223 . S
Cd226 O236 2.297 . S
Cd226 O237 2.439 . S
O227 Cd226 2.240 . S
O227 C232 1.279 . S
O228 Cd225 2.297 . S
O228 C230 1.247 . S
O229 Cd225 2.439 . S
O229 C230 1.208 . S
C230 O228 1.247 . S
C230 O229 1.208 . S
C231 O236 1.247 . S
C231 O237 1.208 . S
C232 O224 1.315 . S
C232 O227 1.279 . S
C233 O234 1.315 . S
C233 O235 1.279 . S
O234 Cd226 2.223 . S
O234 C233 1.315 . S
O235 Cd225 2.240 . S
O235 C233 1.279 . S
O236 Cd226 2.297 . S
O236 C231 1.247 . S
O237 Cd226 2.439 . S
O237 C231 1.208 . S
O238 Cd239 2.223 . S
O238 C246 1.315 . S
Cd239 O238 2.223 . S
Cd239 O242 2.297 . S
Cd239 O243 2.439 . S
Cd239 O249 2.240 . S
Cd240 O241 2.240 . S
Cd240 O248 2.223 . S
Cd240 O250 2.297 . S
Cd240 O251 2.439 . S
O241 Cd240 2.240 . S
O241 C246 1.279 . S
O242 Cd239 2.297 . S
O242 C244 1.247 . S
O243 Cd239 2.439 . S
O243 C244 1.208 . S
C244 O242 1.247 . S
C244 O243 1.208 . S
C245 O250 1.247 . S
C245 O251 1.208 . S
C246 O238 1.315 . S
C246 O241 1.279 . S
C247 O248 1.315 . S
C247 O249 1.279 . S
O248 Cd240 2.223 . S
O248 C247 1.315 . S
O249 Cd239 2.240 . S
O249 C247 1.279 . S
O250 Cd240 2.297 . S
O250 C245 1.247 . S
O251 Cd240 2.439 . S
O251 C245 1.208 . S
O252 Cd253 2.223 . S
O252 C260 1.315 . S
Cd253 O252 2.223 . S
Cd253 O256 2.297 . S
Cd253 O257 2.439 . S
Cd253 O263 2.240 . S
Cd254 O255 2.240 . S
Cd254 O262 2.223 . S
Cd254 O264 2.297 . S
Cd254 O265 2.439 . S
O255 Cd254 2.240 . S
O255 C260 1.279 . S
O256 Cd253 2.297 . S
O256 C258 1.247 . S
O257 Cd253 2.439 . S
O257 C258 1.208 . S
C258 O256 1.247 . S
C258 O257 1.208 . S
C259 O264 1.247 . S
C259 O265 1.208 . S
C260 O252 1.315 . S
C260 O255 1.279 . S
C261 O262 1.315 . S
C261 O263 1.279 . S
O262 Cd254 2.223 . S
O262 C261 1.315 . S
O263 Cd253 2.240 . S
O263 C261 1.279 . S
O264 Cd254 2.297 . S
O264 C259 1.247 . S
O265 Cd254 2.439 . S
O265 C259 1.208 . S
O266 Cd267 2.223 . S
O266 C274 1.315 . S
Cd267 O266 2.223 . S
Cd267 O270 2.297 . S
Cd267 O271 2.439 . S
Cd267 O277 2.240 . S
Cd268 O269 2.240 . S
Cd268 O276 2.223 . S
Cd268 O278 2.297 . S
Cd268 O279 2.439 . S
O269 Cd268 2.240 . S
O269 C274 1.279 . S
O270 Cd267 2.297 . S
O270 C272 1.247 . S
O271 Cd267 2.439 . S
O271 C272 1.208 . S
C272 O270 1.247 . S
C272 O271 1.208 . S
C273 O278 1.247 . S
C273 O279 1.208 . S
C274 O266 1.315 . S
C274 O269 1.279 . S
C275 O276 1.315 . S
C275 O277 1.279 . S
O276 Cd268 2.223 . S
O276 C275 1.315 . S
O277 Cd267 2.240 . S
O277 C275 1.279 . S
O278 Cd268 2.297 . S
O278 C273 1.247 . S
O279 Cd268 2.439 . S
O279 C273 1.208 . S
O280 Cd281 2.223 . S
O280 C288 1.315 . S
Cd281 O280 2.223 . S
Cd281 O284 2.297 . S
Cd281 O285 2.439 . S
Cd281 O291 2.240 . S
Cd282 O283 2.240 . S
Cd282 O290 2.223 . S
Cd282 O292 2.297 . S
Cd282 O293 2.439 . S
O283 Cd282 2.240 . S
O283 C288 1.279 . S
O284 Cd281 2.297 . S
O284 C286 1.247 . S
O285 Cd281 2.439 . S
O285 C286 1.208 . S
C286 O284 1.247 . S
C286 O285 1.208 . S
C287 O292 1.247 . S
C287 O293 1.208 . S
C288 O280 1.315 . S
C288 O283 1.279 . S
C289 O290 1.315 . S
C289 O291 1.279 . S
O290 Cd282 2.223 . S
O290 C289 1.315 . S
O291 Cd281 2.240 . S
O291 C289 1.279 . S
O292 Cd282 2.297 . S
O292 C287 1.247 . S
O293 Cd282 2.439 . S
O293 C287 1.208 . S
O294 Cd295 2.223 . S
O294 C302 1.315 1_545 S
Cd295 O294 2.223 . S
Cd295 O298 2.297 . S
Cd295 O299 2.439 1_556 S
Cd295 O305 2.240 . S
Cd296 O297 2.240 1_554 S
Cd296 O304 2.223 1_554 S
Cd296 O306 2.297 . S
Cd296 O307 2.439 . S
O297 Cd296 2.240 1_556 S
O297 C302 1.279 . S
O298 Cd295 2.297 . S
O298 C300 1.247 1_556 S
O299 Cd295 2.439 1_554 S
O299 C300 1.208 . S
C300 O298 1.247 1_554 S
C300 O299 1.208 . S
C301 O306 1.247 . S
C301 O307 1.208 . S
C302 O294 1.315 1_565 S
C302 O297 1.279 . S
C303 O304 1.315 1_545 S
C303 O305 1.279 . S
O304 Cd296 2.223 1_556 S
O304 C303 1.315 1_565 S
O305 Cd295 2.240 . S
O305 C303 1.279 . S
O306 Cd296 2.297 . S
O306 C301 1.247 . S
O307 Cd296 2.439 . S
O307 C301 1.208 . S
O308 Cd309 2.223 . S
O308 C316 1.315 1_655 S
Cd309 O308 2.223 . S
Cd309 O312 2.297 . S
Cd309 O313 2.439 1_556 S
Cd309 O319 2.240 . S
Cd310 O311 2.240 1_554 S
Cd310 O318 2.223 1_554 S
Cd310 O320 2.297 . S
Cd310 O321 2.439 . S
O311 Cd310 2.240 1_556 S
O311 C316 1.279 . S
O312 Cd309 2.297 . S
O312 C314 1.247 1_556 S
O313 Cd309 2.439 1_554 S
O313 C314 1.208 . S
C314 O312 1.247 1_554 S
C314 O313 1.208 . S
C315 O320 1.247 . S
C315 O321 1.208 . S
C316 O308 1.315 1_455 S
C316 O311 1.279 . S
C317 O318 1.315 1_655 S
C317 O319 1.279 . S
O318 Cd310 2.223 1_556 S
O318 C317 1.315 1_455 S
O319 Cd309 2.240 . S
O319 C317 1.279 . S
O320 Cd310 2.297 . S
O320 C315 1.247 . S
O321 Cd310 2.439 . S
O321 C315 1.208 . S
O322 Cd323 2.223 . S
O322 C330 1.315 . S
Cd323 O322 2.223 . S
Cd323 O326 2.297 . S
Cd323 O327 2.439 1_556 S
Cd323 O333 2.240 . S
Cd324 O325 2.240 . S
Cd324 O332 2.223 . S
Cd324 O334 2.297 1_556 S
Cd324 O335 2.439 1_556 S
O325 Cd324 2.240 . S
O325 C330 1.279 . S
O326 Cd323 2.297 . S
O326 C328 1.247 1_556 S
O327 Cd323 2.439 1_554 S
O327 C328 1.208 . S
C328 O326 1.247 1_554 S
C328 O327 1.208 . S
C329 O334 1.247 . S
C329 O335 1.208 . S
C330 O322 1.315 . S
C330 O325 1.279 . S
C331 O332 1.315 . S
C331 O333 1.279 . S
O332 Cd324 2.223 . S
O332 C331 1.315 . S
O333 Cd323 2.240 . S
O333 C331 1.279 . S
O334 Cd324 2.297 1_554 S
O334 C329 1.247 . S
O335 Cd324 2.439 1_554 S
O335 C329 1.208 . S
O336 Cd337 2.223 . S
O336 C344 1.315 . S
Cd337 O336 2.223 . S
Cd337 O340 2.297 . S
Cd337 O341 2.439 . S
Cd337 O347 2.240 . S
Cd338 O339 2.240 . S
Cd338 O346 2.223 . S
Cd338 O348 2.297 . S
Cd338 O349 2.439 . S
O339 Cd338 2.240 . S
O339 C344 1.279 . S
O340 Cd337 2.297 . S
O340 C342 1.247 . S
O341 Cd337 2.439 . S
O341 C342 1.208 . S
C342 O340 1.247 . S
C342 O341 1.208 . S
C343 O348 1.247 . S
C343 O349 1.208 . S
C344 O336 1.315 . S
C344 O339 1.279 . S
C345 O346 1.315 . S
C345 O347 1.279 . S
O346 Cd338 2.223 . S
O346 C345 1.315 . S
O347 Cd337 2.240 . S
O347 C345 1.279 . S
O348 Cd338 2.297 . S
O348 C343 1.247 . S
O349 Cd338 2.439 . S
O349 C343 1.208 . S
O350 Cd351 2.223 . S
O350 C358 1.315 . S
Cd351 O350 2.223 . S
Cd351 O354 2.297 . S
Cd351 O355 2.439 . S
Cd351 O361 2.240 . S
Cd352 O353 2.240 . S
Cd352 O360 2.223 . S
Cd352 O362 2.297 . S
Cd352 O363 2.439 . S
O353 Cd352 2.240 . S
O353 C358 1.279 . S
O354 Cd351 2.297 . S
O354 C356 1.247 . S
O355 Cd351 2.439 . S
O355 C356 1.208 . S
C356 O354 1.247 . S
C356 O355 1.208 . S
C357 O362 1.247 . S
C357 O363 1.208 . S
C358 O350 1.315 . S
C358 O353 1.279 . S
C359 O360 1.315 . S
C359 O361 1.279 . S
O360 Cd352 2.223 . S
O360 C359 1.315 . S
O361 Cd351 2.240 . S
O361 C359 1.279 . S
O362 Cd352 2.297 . S
O362 C357 1.247 . S
O363 Cd352 2.439 . S
O363 C357 1.208 . S
O364 Cd365 2.223 . S
O364 C372 1.315 . S
Cd365 O364 2.223 . S
Cd365 O368 2.297 . S
Cd365 O369 2.439 . S
Cd365 O375 2.240 . S
Cd366 O367 2.240 . S
Cd366 O374 2.223 . S
Cd366 O376 2.297 . S
Cd366 O377 2.439 . S
O367 Cd366 2.240 . S
O367 C372 1.279 . S
O368 Cd365 2.297 . S
O368 C370 1.247 . S
O369 Cd365 2.439 . S
O369 C370 1.208 . S
C370 O368 1.247 . S
C370 O369 1.208 . S
C371 O376 1.247 . S
C371 O377 1.208 . S
C372 O364 1.315 . S
C372 O367 1.279 . S
C373 O374 1.315 . S
C373 O375 1.279 . S
O374 Cd366 2.223 . S
O374 C373 1.315 . S
O375 Cd365 2.240 . S
O375 C373 1.279 . S
O376 Cd366 2.297 . S
O376 C371 1.247 . S
O377 Cd366 2.439 . S
O377 C371 1.208 . S
O378 Cd379 2.223 . S
O378 C386 1.315 1_565 S
Cd379 O378 2.223 . S
Cd379 O382 2.297 . S
Cd379 O383 2.439 1_554 S
Cd379 O389 2.240 . S
Cd380 O381 2.240 1_556 S
Cd380 O388 2.223 1_556 S
Cd380 O390 2.297 . S
Cd380 O391 2.439 . S
O381 Cd380 2.240 1_554 S
O381 C386 1.279 . S
O382 Cd379 2.297 . S
O382 C384 1.247 1_554 S
O383 Cd379 2.439 1_556 S
O383 C384 1.208 . S
C384 O382 1.247 1_556 S
C384 O383 1.208 . S
C385 O390 1.247 . S
C385 O391 1.208 . S
C386 O378 1.315 1_545 S
C386 O381 1.279 . S
C387 O388 1.315 1_565 S
C387 O389 1.279 . S
O388 Cd380 2.223 1_554 S
O388 C387 1.315 1_545 S
O389 Cd379 2.240 . S
O389 C387 1.279 . S
O390 Cd380 2.297 . S
O390 C385 1.247 . S
O391 Cd380 2.439 . S
O391 C385 1.208 . S
O392 Cd393 2.223 . S
O392 C400 1.315 1_455 S
Cd393 O392 2.223 . S
Cd393 O396 2.297 . S
Cd393 O397 2.439 1_554 S
Cd393 O403 2.240 . S
Cd394 O395 2.240 1_556 S
Cd394 O402 2.223 1_556 S
Cd394 O404 2.297 . S
Cd394 O405 2.439 . S
O395 Cd394 2.240 1_554 S
O395 C400 1.279 . S
O396 Cd393 2.297 . S
O396 C398 1.247 1_554 S
O397 Cd393 2.439 1_556 S
O397 C398 1.208 . S
C398 O396 1.247 1_556 S
C398 O397 1.208 . S
C399 O404 1.247 . S
C399 O405 1.208 . S
C400 O392 1.315 1_655 S
C400 O395 1.279 . S
C401 O402 1.315 1_455 S
C401 O403 1.279 . S
O402 Cd394 2.223 1_554 S
O402 C401 1.315 1_655 S
O403 Cd393 2.240 . S
O403 C401 1.279 . S
O404 Cd394 2.297 . S
O404 C399 1.247 . S
O405 Cd394 2.439 . S
O405 C399 1.208 . S
O406 Cd407 2.223 . S
O406 C414 1.315 . S
Cd407 O406 2.223 . S
Cd407 O410 2.297 . S
Cd407 O411 2.439 1_554 S
Cd407 O417 2.240 . S
Cd408 O409 2.240 . S
Cd408 O416 2.223 . S
Cd408 O418 2.297 1_554 S
Cd408 O419 2.439 1_554 S
O409 Cd408 2.240 . S
O409 C414 1.279 . S
O410 Cd407 2.297 . S
O410 C412 1.247 1_554 S
O411 Cd407 2.439 1_556 S
O411 C412 1.208 . S
C412 O410 1.247 1_556 S
C412 O411 1.208 . S
C413 O418 1.247 . S
C413 O419 1.208 . S
C414 O406 1.315 . S
C414 O409 1.279 . S
C415 O416 1.315 . S
C415 O417 1.279 . S
O416 Cd408 2.223 . S
O416 C415 1.315 . S
O417 Cd407 2.240 . S
O417 C415 1.279 . S
O418 Cd408 2.297 1_556 S
O418 C413 1.247 . S
O419 Cd408 2.439 1_556 S
O419 C413 1.208 . S
O420 Cd421 2.223 . S
O420 C428 1.315 1_455 S
Cd421 O420 2.223 . S
Cd421 O424 2.297 . S
Cd421 O425 2.439 . S
Cd421 O431 2.240 . S
Cd422 O423 2.240 . S
Cd422 O430 2.223 . S
Cd422 O432 2.297 . S
Cd422 O433 2.439 . S
O423 Cd422 2.240 . S
O423 C428 1.279 . S
O424 Cd421 2.297 . S
O424 C426 1.247 . S
O425 Cd421 2.439 . S
O425 C426 1.208 . S
C426 O424 1.247 . S
C426 O425 1.208 . S
C427 O432 1.247 . S
C427 O433 1.208 . S
C428 O420 1.315 1_655 S
C428 O423 1.279 . S
C429 O430 1.315 1_455 S
C429 O431 1.279 . S
O430 Cd422 2.223 . S
O430 C429 1.315 1_655 S
O431 Cd421 2.240 . S
O431 C429 1.279 . S
O432 Cd422 2.297 . S
O432 C427 1.247 . S
O433 Cd422 2.439 . S
O433 C427 1.208 . S
O434 Cd435 2.223 . S
O434 C442 1.315 . S
Cd435 O434 2.223 . S
Cd435 O438 2.297 . S
Cd435 O439 2.439 . S
Cd435 O445 2.240 . S
Cd436 O437 2.240 . S
Cd436 O444 2.223 . S
Cd436 O446 2.297 . S
Cd436 O447 2.439 . S
O437 Cd436 2.240 . S
O437 C442 1.279 . S
O438 Cd435 2.297 . S
O438 C440 1.247 . S
O439 Cd435 2.439 . S
O439 C440 1.208 . S
C440 O438 1.247 . S
C440 O439 1.208 . S
C441 O446 1.247 . S
C441 O447 1.208 . S
C442 O434 1.315 . S
C442 O437 1.279 . S
C443 O444 1.315 . S
C443 O445 1.279 . S
O444 Cd436 2.223 . S
O444 C443 1.315 . S
O445 Cd435 2.240 . S
O445 C443 1.279 . S
O446 Cd436 2.297 . S
O446 C441 1.247 . S
O447 Cd436 2.439 . S
O447 C441 1.208 . S
O448 Cd449 2.223 . S
O448 C456 1.315 1_565 S
Cd449 O448 2.223 . S
Cd449 O452 2.297 . S
Cd449 O453 2.439 . S
Cd449 O459 2.240 . S
Cd450 O451 2.240 . S
Cd450 O458 2.223 . S
Cd450 O460 2.297 . S
Cd450 O461 2.439 . S
O451 Cd450 2.240 . S
O451 C456 1.279 . S
O452 Cd449 2.297 . S
O452 C454 1.247 . S
O453 Cd449 2.439 . S
O453 C454 1.208 . S
C454 O452 1.247 . S
C454 O453 1.208 . S
C455 O460 1.247 . S
C455 O461 1.208 . S
C456 O448 1.315 1_545 S
C456 O451 1.279 . S
C457 O458 1.315 1_565 S
C457 O459 1.279 . S
O458 Cd450 2.223 . S
O458 C457 1.315 1_545 S
O459 Cd449 2.240 . S
O459 C457 1.279 . S
O460 Cd450 2.297 . S
O460 C455 1.247 . S
O461 Cd450 2.439 . S
O461 C455 1.208 . S
O462 Cd463 2.223 . S
O462 C470 1.315 . S
Cd463 O462 2.223 . S
Cd463 O466 2.297 . S
Cd463 O467 2.439 . S
Cd463 O473 2.240 . S
Cd464 O465 2.240 . S
Cd464 O472 2.223 . S
Cd464 O474 2.297 . S
Cd464 O475 2.439 . S
O465 Cd464 2.240 . S
O465 C470 1.279 . S
O466 Cd463 2.297 . S
O466 C468 1.247 . S
O467 Cd463 2.439 . S
O467 C468 1.208 . S
C468 O466 1.247 . S
C468 O467 1.208 . S
C469 O474 1.247 . S
C469 O475 1.208 . S
C470 O462 1.315 . S
C470 O465 1.279 . S
C471 O472 1.315 . S
C471 O473 1.279 . S
O472 Cd464 2.223 . S
O472 C471 1.315 . S
O473 Cd463 2.240 . S
O473 C471 1.279 . S
O474 Cd464 2.297 . S
O474 C469 1.247 . S
O475 Cd464 2.439 . S
O475 C469 1.208 . S
O476 Cd477 2.223 . S
O476 C484 1.315 . S
Cd477 O476 2.223 . S
Cd477 O480 2.297 . S
Cd477 O481 2.439 . S
Cd477 O487 2.240 . S
Cd478 O479 2.240 . S
Cd478 O486 2.223 . S
Cd478 O488 2.297 . S
Cd478 O489 2.439 . S
O479 Cd478 2.240 . S
O479 C484 1.279 . S
O480 Cd477 2.297 . S
O480 C482 1.247 . S
O481 Cd477 2.439 . S
O481 C482 1.208 . S
C482 O480 1.247 . S
C482 O481 1.208 . S
C483 O488 1.247 . S
C483 O489 1.208 . S
C484 O476 1.315 . S
C484 O479 1.279 . S
C485 O486 1.315 . S
C485 O487 1.279 . S
O486 Cd478 2.223 . S
O486 C485 1.315 . S
O487 Cd477 2.240 . S
O487 C485 1.279 . S
O488 Cd478 2.297 . S
O488 C483 1.247 . S
O489 Cd478 2.439 . S
O489 C483 1.208 . S
O490 Cd491 2.223 . S
O490 C498 1.315 . S
Cd491 O490 2.223 . S
Cd491 O494 2.297 . S
Cd491 O495 2.439 . S
Cd491 O501 2.240 . S
Cd492 O493 2.240 . S
Cd492 O500 2.223 . S
Cd492 O502 2.297 . S
Cd492 O503 2.439 . S
O493 Cd492 2.240 . S
O493 C498 1.279 . S
O494 Cd491 2.297 . S
O494 C496 1.247 . S
O495 Cd491 2.439 . S
O495 C496 1.208 . S
C496 O494 1.247 . S
C496 O495 1.208 . S
C497 O502 1.247 . S
C497 O503 1.208 . S
C498 O490 1.315 . S
C498 O493 1.279 . S
C499 O500 1.315 . S
C499 O501 1.279 . S
O500 Cd492 2.223 . S
O500 C499 1.315 . S
O501 Cd491 2.240 . S
O501 C499 1.279 . S
O502 Cd492 2.297 . S
O502 C497 1.247 . S
O503 Cd492 2.439 . S
O503 C497 1.208 . S
H504 C510 0.930 . S
H505 C513 0.930 . S
H506 C514 0.930 1_545 S
H507 C515 0.930 . S
H508 C518 0.930 . S
H509 C519 0.930 . S
C510 H504 0.930 . S
C510 C511 1.355 . S
C510 C512 1.415 1_565 S
C511 C510 1.355 . S
C511 C513 1.419 . S
C512 C510 1.415 1_545 S
C512 C517 1.425 . S
C512 C519 1.409 . S
C513 H505 0.930 . S
C513 C511 1.419 . S
C513 C514 1.362 . S
C514 H506 0.930 1_565 S
C514 C513 1.362 . S
C514 C517 1.409 1_565 S
C515 H507 0.930 . S
C515 C516 1.355 . S
C515 C517 1.415 . S
C516 C515 1.355 . S
C516 C518 1.419 . S
C517 C512 1.425 . S
C517 C514 1.409 1_545 S
C517 C515 1.415 . S
C518 H508 0.930 . S
C518 C516 1.419 . S
C518 C519 1.362 . S
C519 H509 0.930 . S
C519 C512 1.409 . S
C519 C518 1.362 . S
H520 C526 0.930 . S
H521 C529 0.930 . S
H522 C530 0.930 1_455 S
H523 C531 0.930 . S
H524 C534 0.930 . S
H525 C535 0.930 . S
C526 H520 0.930 . S
C526 C527 1.355 . S
C526 C528 1.415 1_655 S
C527 C526 1.355 . S
C527 C529 1.419 . S
C528 C526 1.415 1_455 S
C528 C533 1.425 . S
C528 C535 1.409 . S
C529 H521 0.930 . S
C529 C527 1.419 . S
C529 C530 1.362 . S
C530 H522 0.930 1_655 S
C530 C529 1.362 . S
C530 C533 1.409 1_655 S
C531 H523 0.930 . S
C531 C532 1.355 . S
C531 C533 1.415 . S
C532 C531 1.355 . S
C532 C534 1.419 . S
C533 C528 1.425 . S
C533 C530 1.409 1_455 S
C533 C531 1.415 . S
C534 H524 0.930 . S
C534 C532 1.419 . S
C534 C535 1.362 . S
C535 H525 0.930 . S
C535 C528 1.409 . S
C535 C534 1.362 . S
H536 C542 0.930 . S
H537 C545 0.930 . S
H538 C546 0.930 . S
H539 C547 0.930 . S
H540 C550 0.930 . S
H541 C551 0.930 . S
C542 H536 0.930 . S
C542 C543 1.355 . S
C542 C544 1.415 . S
C543 C542 1.355 . S
C543 C545 1.419 . S
C544 C542 1.415 . S
C544 C549 1.425 . S
C544 C551 1.409 . S
C545 H537 0.930 . S
C545 C543 1.419 . S
C545 C546 1.362 . S
C546 H538 0.930 . S
C546 C545 1.362 . S
C546 C549 1.409 . S
C547 H539 0.930 . S
C547 C548 1.355 . S
C547 C549 1.415 . S
C548 C547 1.355 . S
C548 C550 1.419 . S
C549 C544 1.425 . S
C549 C546 1.409 . S
C549 C547 1.415 . S
C550 H540 0.930 . S
C550 C548 1.419 . S
C550 C551 1.362 . S
C551 H541 0.930 . S
C551 C544 1.409 . S
C551 C550 1.362 . S
H552 C558 0.930 . S
H553 C561 0.930 . S
H554 C562 0.930 . S
H555 C563 0.930 . S
H556 C566 0.930 . S
H557 C567 0.930 . S
C558 H552 0.930 . S
C558 C559 1.355 . S
C558 C560 1.415 . S
C559 C558 1.355 . S
C559 C561 1.419 . S
C560 C558 1.415 . S
C560 C565 1.425 . S
C560 C567 1.409 . S
C561 H553 0.930 . S
C561 C559 1.419 . S
C561 C562 1.362 . S
C562 H554 0.930 . S
C562 C561 1.362 . S
C562 C565 1.409 . S
C563 H555 0.930 . S
C563 C564 1.355 . S
C563 C565 1.415 1_545 S
C564 C563 1.355 . S
C564 C566 1.419 . S
C565 C560 1.425 . S
C565 C562 1.409 . S
C565 C563 1.415 1_565 S
C566 H556 0.930 . S
C566 C564 1.419 . S
C566 C567 1.362 1_545 S
C567 H557 0.930 . S
C567 C560 1.409 . S
C567 C566 1.362 1_565 S
H568 C574 0.930 . S
H569 C577 0.930 . S
H570 C578 0.930 1_655 S
H571 C579 0.930 . S
H572 C582 0.930 . S
H573 C583 0.930 . S
C574 H568 0.930 . S
C574 C575 1.355 . S
C574 C576 1.415 1_455 S
C575 C574 1.355 . S
C575 C577 1.419 . S
C576 C574 1.415 1_655 S
C576 C581 1.425 . S
C576 C583 1.409 . S
C577 H569 0.930 . S
C577 C575 1.419 . S
C577 C578 1.362 . S
C578 H570 0.930 1_455 S
C578 C577 1.362 . S
C578 C581 1.409 1_455 S
C579 H571 0.930 . S
C579 C580 1.355 . S
C579 C581 1.415 . S
C580 C579 1.355 . S
C580 C582 1.419 . S
C581 C576 1.425 . S
C581 C578 1.409 1_655 S
C581 C579 1.415 . S
C582 H572 0.930 . S
C582 C580 1.419 . S
C582 C583 1.362 . S
C583 H573 0.930 . S
C583 C576 1.409 . S
C583 C582 1.362 . S
H584 C590 0.930 . S
H585 C593 0.930 . S
H586 C594 0.930 . S
H587 C595 0.930 . S
H588 C598 0.930 . S
H589 C599 0.930 . S
C590 H584 0.930 . S
C590 C591 1.355 . S
C590 C592 1.415 . S
C591 C590 1.355 . S
C591 C593 1.419 . S
C592 C590 1.415 . S
C592 C597 1.425 . S
C592 C599 1.409 . S
C593 H585 0.930 . S
C593 C591 1.419 . S
C593 C594 1.362 . S
C594 H586 0.930 . S
C594 C593 1.362 . S
C594 C597 1.409 . S
C595 H587 0.930 . S
C595 C596 1.355 . S
C595 C597 1.415 . S
C596 C595 1.355 . S
C596 C598 1.419 . S
C597 C592 1.425 . S
C597 C594 1.409 . S
C597 C595 1.415 . S
C598 H588 0.930 . S
C598 C596 1.419 . S
C598 C599 1.362 . S
C599 H589 0.930 . S
C599 C592 1.409 . S
C599 C598 1.362 . S
H600 C606 0.930 . S
H601 C609 0.930 . S
H602 C610 0.930 . S
H603 C611 0.930 . S
H604 C614 0.930 1_455 S
H605 C615 0.930 1_455 S
C606 H600 0.930 . S
C606 C607 1.355 . S
C606 C608 1.415 . S
C607 C606 1.355 . S
C607 C609 1.419 . S
C608 C606 1.415 . S
C608 C613 1.425 . S
C608 C615 1.409 . S
C609 H601 0.930 . S
C609 C607 1.419 . S
C609 C610 1.362 . S
C610 H602 0.930 . S
C610 C609 1.362 . S
C610 C613 1.409 . S
C611 H603 0.930 . S
C611 C612 1.355 . S
C611 C613 1.415 . S
C612 C611 1.355 . S
C612 C614 1.419 . S
C613 C608 1.425 . S
C613 C610 1.409 . S
C613 C611 1.415 . S
C614 H604 0.930 1_655 S
C614 C612 1.419 . S
C614 C615 1.362 . S
C615 H605 0.930 1_655 S
C615 C608 1.409 . S
C615 C614 1.362 . S
H616 C622 0.930 . S
H617 C625 0.930 . S
H618 C626 0.930 . S
H619 C627 0.930 . S
H620 C630 0.930 . S
H621 C631 0.930 . S
C622 H616 0.930 . S
C622 C623 1.355 . S
C622 C624 1.415 . S
C623 C622 1.355 . S
C623 C625 1.419 . S
C624 C622 1.415 . S
C624 C629 1.425 . S
C624 C631 1.409 . S
C625 H617 0.930 . S
C625 C623 1.419 . S
C625 C626 1.362 . S
C626 H618 0.930 . S
C626 C625 1.362 . S
C626 C629 1.409 . S
C627 H619 0.930 . S
C627 C628 1.355 . S
C627 C629 1.415 . S
C628 C627 1.355 . S
C628 C630 1.419 . S
C629 C624 1.425 . S
C629 C626 1.409 . S
C629 C627 1.415 . S
C630 H620 0.930 . S
C630 C628 1.419 . S
C630 C631 1.362 . S
C631 H621 0.930 . S
C631 C624 1.409 . S
C631 C630 1.362 . S
H632 C638 0.930 . S
H633 C641 0.930 . S
H634 C642 0.930 . S
H635 C643 0.930 . S
H636 C646 0.930 . S
H637 C647 0.930 . S
C638 H632 0.930 . S
C638 C639 1.355 . S
C638 C640 1.415 . S
C639 C638 1.355 . S
C639 C641 1.419 . S
C640 C638 1.415 . S
C640 C645 1.425 . S
C640 C647 1.409 . S
C641 H633 0.930 . S
C641 C639 1.419 . S
C641 C642 1.362 . S
C642 H634 0.930 . S
C642 C641 1.362 . S
C642 C645 1.409 . S
C643 H635 0.930 . S
C643 C644 1.355 . S
C643 C645 1.415 . S
C644 C643 1.355 . S
C644 C646 1.419 . S
C645 C640 1.425 . S
C645 C642 1.409 . S
C645 C643 1.415 . S
C646 H636 0.930 . S
C646 C644 1.419 . S
C646 C647 1.362 . S
C647 H637 0.930 . S
C647 C640 1.409 . S
C647 C646 1.362 . S
H648 C654 0.930 . S
H649 C657 0.930 . S
H650 C658 0.930 . S
H651 C659 0.930 . S
H652 C662 0.930 . S
H653 C663 0.930 . S
C654 H648 0.930 . S
C654 C655 1.355 . S
C654 C656 1.415 . S
C655 C654 1.355 . S
C655 C657 1.419 . S
C656 C654 1.415 . S
C656 C661 1.425 . S
C656 C663 1.409 . S
C657 H649 0.930 . S
C657 C655 1.419 . S
C657 C658 1.362 . S
C658 H650 0.930 . S
C658 C657 1.362 . S
C658 C661 1.409 . S
C659 H651 0.930 . S
C659 C660 1.355 . S
C659 C661 1.415 . S
C660 C659 1.355 . S
C660 C662 1.419 . S
C661 C656 1.425 . S
C661 C658 1.409 . S
C661 C659 1.415 . S
C662 H652 0.930 . S
C662 C660 1.419 . S
C662 C663 1.362 . S
C663 H653 0.930 . S
C663 C656 1.409 . S
C663 C662 1.362 . S
H664 C670 0.930 . S
H665 C673 0.930 . S
H666 C674 0.930 1_556 S
H667 C675 0.930 1_556 S
H668 C678 0.930 . S
H669 C679 0.930 . S
C670 H664 0.930 . S
C670 C671 1.355 . S
C670 C672 1.415 . S
C671 C670 1.355 . S
C671 C673 1.419 . S
C672 C670 1.415 . S
C672 C677 1.425 . S
C672 C679 1.409 . S
C673 H665 0.930 . S
C673 C671 1.419 . S
C673 C674 1.362 . S
C674 H666 0.930 1_554 S
C674 C673 1.362 . S
C674 C677 1.409 . S
C675 H667 0.930 1_554 S
C675 C676 1.355 . S
C675 C677 1.415 . S
C676 C675 1.355 . S
C676 C678 1.419 . S
C677 C672 1.425 . S
C677 C674 1.409 . S
C677 C675 1.415 . S
C678 H668 0.930 . S
C678 C676 1.419 . S
C678 C679 1.362 . S
C679 H669 0.930 . S
C679 C672 1.409 . S
C679 C678 1.362 . S
H680 C686 0.930 . S
H681 C689 0.930 . S
H682 C690 0.930 . S
H683 C691 0.930 . S
H684 C694 0.930 . S
H685 C695 0.930 . S
C686 H680 0.930 . S
C686 C687 1.355 . S
C686 C688 1.415 . S
C687 C686 1.355 . S
C687 C689 1.419 . S
C688 C686 1.415 . S
C688 C693 1.425 . S
C688 C695 1.409 . S
C689 H681 0.930 . S
C689 C687 1.419 . S
C689 C690 1.362 . S
C690 H682 0.930 . S
C690 C689 1.362 . S
C690 C693 1.409 . S
C691 H683 0.930 . S
C691 C692 1.355 . S
C691 C693 1.415 . S
C692 C691 1.355 . S
C692 C694 1.419 . S
C693 C688 1.425 . S
C693 C690 1.409 . S
C693 C691 1.415 . S
C694 H684 0.930 . S
C694 C692 1.419 . S
C694 C695 1.362 . S
C695 H685 0.930 . S
C695 C688 1.409 . S
C695 C694 1.362 . S
H696 C702 0.930 . S
H697 C705 0.930 . S
H698 C706 0.930 . S
H699 C707 0.930 . S
H700 C710 0.930 . S
H701 C711 0.930 . S
C702 H696 0.930 . S
C702 C703 1.355 . S
C702 C704 1.415 . S
C703 C702 1.355 . S
C703 C705 1.419 . S
C704 C702 1.415 . S
C704 C709 1.425 . S
C704 C711 1.409 . S
C705 H697 0.930 . S
C705 C703 1.419 . S
C705 C706 1.362 . S
C706 H698 0.930 . S
C706 C705 1.362 . S
C706 C709 1.409 . S
C707 H699 0.930 . S
C707 C708 1.355 . S
C707 C709 1.415 . S
C708 C707 1.355 . S
C708 C710 1.419 . S
C709 C704 1.425 . S
C709 C706 1.409 . S
C709 C707 1.415 . S
C710 H700 0.930 . S
C710 C708 1.419 . S
C710 C711 1.362 . S
C711 H701 0.930 . S
C711 C704 1.409 . S
C711 C710 1.362 . S
H712 C718 0.930 . S
H713 C721 0.930 1_554 S
H714 C722 0.930 1_554 S
H715 C723 0.930 . S
H716 C726 0.930 . S
H717 C727 0.930 . S
C718 H712 0.930 . S
C718 C719 1.355 . S
C718 C720 1.415 . S
C719 C718 1.355 . S
C719 C721 1.419 . S
C720 C718 1.415 . S
C720 C725 1.425 . S
C720 C727 1.409 . S
C721 H713 0.930 1_556 S
C721 C719 1.419 . S
C721 C722 1.362 . S
C722 H714 0.930 1_556 S
C722 C721 1.362 . S
C722 C725 1.409 . S
C723 H715 0.930 . S
C723 C724 1.355 . S
C723 C725 1.415 . S
C724 C723 1.355 . S
C724 C726 1.419 . S
C725 C720 1.425 . S
C725 C722 1.409 . S
C725 C723 1.415 . S
C726 H716 0.930 . S
C726 C724 1.419 . S
C726 C727 1.362 . S
C727 H717 0.930 . S
C727 C720 1.409 . S
C727 C726 1.362 . S
H728 C734 0.930 . S
H729 C737 0.930 . S
H730 C738 0.930 . S
H731 C739 0.930 . S
H732 C742 0.935 . S
H733 C743 0.930 . S
C734 H728 0.930 . S
C734 C735 1.355 . S
C734 C736 1.415 . S
C735 C734 1.355 . S
C735 C737 1.419 . S
C736 C734 1.415 . S
C736 C741 1.425 . S
C736 C743 1.409 . S
C737 H729 0.930 . S
C737 C735 1.419 . S
C737 C738 1.362 . S
C738 H730 0.930 . S
C738 C737 1.362 . S
C738 C741 1.409 . S
C739 H731 0.930 . S
C739 C740 1.355 . S
C739 C741 1.415 . S
C740 C739 1.355 . S
C740 C742 1.419 . S
C741 C736 1.425 . S
C741 C738 1.409 . S
C741 C739 1.415 . S
C742 H732 0.935 . S
C742 C740 1.419 . S
C742 C743 1.362 . S
C743 H733 0.930 . S
C743 C736 1.409 . S
C743 C742 1.362 . S
H744 C750 0.930 . S
H745 C753 0.930 . S
H746 C754 0.930 . S
H747 C755 0.930 . S
H748 C758 0.930 . S
H749 C759 0.930 1_655 S
C750 H744 0.930 . S
C750 C751 1.355 . S
C750 C752 1.415 . S
C751 C750 1.355 . S
C751 C753 1.419 . S
C752 C750 1.415 . S
C752 C757 1.425 . S
C752 C759 1.409 . S
C753 H745 0.930 . S
C753 C751 1.419 . S
C753 C754 1.362 . S
C754 H746 0.930 . S
C754 C753 1.362 . S
C754 C757 1.409 . S
C755 H747 0.930 . S
C755 C756 1.355 . S
C755 C757 1.415 . S
C756 C755 1.355 . S
C756 C758 1.419 . S
C757 C752 1.425 . S
C757 C754 1.409 . S
C757 C755 1.415 . S
C758 H748 0.930 . S
C758 C756 1.419 . S
C758 C759 1.362 . S
C759 H749 0.930 1_455 S
C759 C752 1.409 . S
C759 C758 1.362 . S
H760 C766 0.930 . S
H761 C769 0.930 . S
H762 C770 0.930 . S
H763 C771 0.930 . S
H764 C774 0.930 . S
H765 C775 0.930 . S
C766 H760 0.930 . S
C766 C767 1.355 . S
C766 C768 1.415 . S
C767 C766 1.355 . S
C767 C769 1.419 . S
C768 C766 1.415 . S
C768 C773 1.425 . S
C768 C775 1.409 . S
C769 H761 0.930 . S
C769 C767 1.419 . S
C769 C770 1.362 . S
C770 H762 0.930 . S
C770 C769 1.362 . S
C770 C773 1.409 . S
C771 H763 0.930 . S
C771 C772 1.355 . S
C771 C773 1.415 . S
C772 C771 1.355 . S
C772 C774 1.419 . S
C773 C768 1.425 . S
C773 C770 1.409 . S
C773 C771 1.415 . S
C774 H764 0.930 . S
C774 C772 1.419 . S
C774 C775 1.362 . S
C775 H765 0.930 . S
C775 C768 1.409 . S
C775 C774 1.362 . S
H776 C782 0.930 . S
H777 C785 0.930 . S
H778 C786 0.930 . S
H779 C787 0.930 . S
H780 C790 0.930 . S
H781 C791 0.930 . S
C782 H776 0.930 . S
C782 C783 1.355 . S
C782 C784 1.415 . S
C783 C782 1.355 . S
C783 C785 1.419 . S
C784 C782 1.415 . S
C784 C789 1.425 . S
C784 C791 1.409 . S
C785 H777 0.930 . S
C785 C783 1.419 . S
C785 C786 1.362 . S
C786 H778 0.930 . S
C786 C785 1.362 . S
C786 C789 1.409 . S
C787 H779 0.930 . S
C787 C788 1.355 . S
C787 C789 1.415 . S
C788 C787 1.355 . S
C788 C790 1.419 . S
C789 C784 1.425 . S
C789 C786 1.409 . S
C789 C787 1.415 . S
C790 H780 0.930 . S
C790 C788 1.419 . S
C790 C791 1.362 . S
C791 H781 0.930 . S
C791 C784 1.409 . S
C791 C790 1.362 . S
H792 C798 0.930 . S
H793 C801 0.930 . S
H794 C802 0.930 . S
H795 C803 0.930 . S
H796 C806 0.930 . S
H797 C807 0.930 . S
C798 H792 0.930 . S
C798 C799 1.355 . S
C798 C800 1.415 . S
C799 C798 1.355 . S
C799 C801 1.419 . S
C800 C798 1.415 . S
C800 C805 1.425 . S
C800 C807 1.409 . S
C801 H793 0.930 . S
C801 C799 1.419 . S
C801 C802 1.362 . S
C802 H794 0.930 . S
C802 C801 1.362 . S
C802 C805 1.409 . S
C803 H795 0.930 . S
C803 C804 1.355 . S
C803 C805 1.415 1_554 S
C804 C803 1.355 . S
C804 C806 1.419 1_554 S
C805 C800 1.425 . S
C805 C802 1.409 . S
C805 C803 1.415 1_556 S
C806 H796 0.930 . S
C806 C804 1.419 1_556 S
C806 C807 1.362 . S
C807 H797 0.930 . S
C807 C800 1.409 . S
C807 C806 1.362 . S
H808 C814 0.930 . S
H809 C817 0.930 . S
H810 C818 0.930 1_554 S
H811 C819 0.930 . S
H812 C822 0.930 . S
H813 C823 0.930 . S
C814 H808 0.930 . S
C814 C815 1.355 . S
C814 C816 1.415 . S
C815 C814 1.355 . S
C815 C817 1.419 . S
C816 C814 1.415 . S
C816 C821 1.425 . S
C816 C823 1.409 . S
C817 H809 0.930 . S
C817 C815 1.419 . S
C817 C818 1.362 . S
C818 H810 0.930 1_556 S
C818 C817 1.362 . S
C818 C821 1.409 . S
C819 H811 0.930 . S
C819 C820 1.355 . S
C819 C821 1.415 1_554 S
C820 C819 1.355 . S
C820 C822 1.419 1_554 S
C821 C816 1.425 . S
C821 C818 1.409 . S
C821 C819 1.415 1_556 S
C822 H812 0.930 . S
C822 C820 1.419 1_556 S
C822 C823 1.362 . S
C823 H813 0.930 . S
C823 C816 1.409 . S
C823 C822 1.362 . S
H824 C830 0.930 . S
H825 C833 0.930 . S
H826 C834 0.930 . S
H827 C835 0.930 1_554 S
H828 C838 0.930 . S
H829 C839 0.930 . S
C830 H824 0.930 . S
C830 C831 1.355 . S
C830 C832 1.415 . S
C831 C830 1.355 . S
C831 C833 1.419 . S
C832 C830 1.415 . S
C832 C837 1.425 . S
C832 C839 1.409 . S
C833 H825 0.930 . S
C833 C831 1.419 . S
C833 C834 1.362 . S
C834 H826 0.930 . S
C834 C833 1.362 . S
C834 C837 1.409 . S
C835 H827 0.930 1_556 S
C835 C836 1.355 1_556 S
C835 C837 1.415 . S
C836 C835 1.355 1_554 S
C836 C838 1.419 1_554 S
C837 C832 1.425 . S
C837 C834 1.409 . S
C837 C835 1.415 . S
C838 H828 0.930 . S
C838 C836 1.419 1_556 S
C838 C839 1.362 . S
C839 H829 0.930 . S
C839 C832 1.409 . S
C839 C838 1.362 . S
H840 C846 0.930 . S
H841 C849 0.930 . S
H842 C850 0.930 . S
H843 C851 0.930 . S
H844 C854 0.930 . S
H845 C855 0.930 . S
C846 H840 0.930 . S
C846 C847 1.355 . S
C846 C848 1.415 . S
C847 C846 1.355 . S
C847 C849 1.419 . S
C848 C846 1.415 . S
C848 C853 1.425 . S
C848 C855 1.409 . S
C849 H841 0.930 . S
C849 C847 1.419 . S
C849 C850 1.362 . S
C850 H842 0.930 . S
C850 C849 1.362 . S
C850 C853 1.409 . S
C851 H843 0.930 . S
C851 C852 1.355 . S
C851 C853 1.415 . S
C852 C851 1.355 . S
C852 C854 1.419 . S
C853 C848 1.425 . S
C853 C850 1.409 . S
C853 C851 1.415 . S
C854 H844 0.930 . S
C854 C852 1.419 . S
C854 C855 1.362 . S
C855 H845 0.930 . S
C855 C848 1.409 . S
C855 C854 1.362 . S
H856 C862 0.930 . S
H857 C865 0.930 . S
H858 C866 0.930 . S
H859 C867 0.930 . S
H860 C870 0.930 . S
H861 C871 0.930 . S
C862 H856 0.930 . S
C862 C863 1.355 . S
C862 C864 1.415 . S
C863 C862 1.355 . S
C863 C865 1.419 . S
C864 C862 1.415 . S
C864 C869 1.425 . S
C864 C871 1.409 . S
C865 H857 0.930 . S
C865 C863 1.419 . S
C865 C866 1.362 . S
C866 H858 0.930 . S
C866 C865 1.362 . S
C866 C869 1.409 . S
C867 H859 0.930 . S
C867 C868 1.355 . S
C867 C869 1.415 . S
C868 C867 1.355 . S
C868 C870 1.419 . S
C869 C864 1.425 . S
C869 C866 1.409 . S
C869 C867 1.415 . S
C870 H860 0.930 . S
C870 C868 1.419 . S
C870 C871 1.362 . S
C871 H861 0.930 . S
C871 C864 1.409 . S
C871 C870 1.362 . S
H872 C878 0.930 . S
H873 C881 0.930 . S
H874 C882 0.930 . S
H875 C883 0.930 . S
H876 C886 0.930 . S
H877 C887 0.930 . S
C878 H872 0.930 . S
C878 C879 1.355 . S
C878 C880 1.415 . S
C879 C878 1.355 . S
C879 C881 1.419 . S
C880 C878 1.415 . S
C880 C885 1.425 . S
C880 C887 1.409 . S
C881 H873 0.930 . S
C881 C879 1.419 . S
C881 C882 1.362 . S
C882 H874 0.930 . S
C882 C881 1.362 . S
C882 C885 1.409 . S
C883 H875 0.930 . S
C883 C884 1.355 . S
C883 C885 1.415 . S
C884 C883 1.355 . S
C884 C886 1.419 . S
C885 C880 1.425 . S
C885 C882 1.409 . S
C885 C883 1.415 . S
C886 H876 0.930 . S
C886 C884 1.419 . S
C886 C887 1.362 . S
C887 H877 0.930 . S
C887 C880 1.409 . S
C887 C886 1.362 . S
H888 C894 0.930 . S
H889 C897 0.930 . S
H890 C898 0.930 . S
H891 C899 0.930 . S
H892 C902 0.930 . S
H893 C903 0.930 . S
C894 H888 0.930 . S
C894 C895 1.355 1_554 S
C894 C896 1.415 . S
C895 C894 1.355 1_556 S
C895 C897 1.419 . S
C896 C894 1.415 . S
C896 C901 1.425 . S
C896 C903 1.409 . S
C897 H889 0.930 . S
C897 C895 1.419 . S
C897 C898 1.362 . S
C898 H890 0.930 . S
C898 C897 1.362 . S
C898 C901 1.409 1_556 S
C899 H891 0.930 . S
C899 C900 1.355 . S
C899 C901 1.415 . S
C900 C899 1.355 . S
C900 C902 1.419 . S
C901 C896 1.425 . S
C901 C898 1.409 1_554 S
C901 C899 1.415 . S
C902 H892 0.930 . S
C902 C900 1.419 . S
C902 C903 1.362 . S
C903 H893 0.930 . S
C903 C896 1.409 . S
C903 C902 1.362 . S
H904 C910 0.930 . S
H905 C913 0.930 . S
H906 C914 0.930 . S
H907 C915 0.930 . S
H908 C918 0.930 . S
H909 C919 0.930 1_556 S
C910 H904 0.930 . S
C910 C911 1.355 . S
C910 C912 1.415 1_556 S
C911 C910 1.355 . S
C911 C913 1.419 1_556 S
C912 C910 1.415 1_554 S
C912 C917 1.425 . S
C912 C919 1.409 . S
C913 H905 0.930 . S
C913 C911 1.419 1_554 S
C913 C914 1.362 . S
C914 H906 0.930 . S
C914 C913 1.362 . S
C914 C917 1.409 . S
C915 H907 0.930 . S
C915 C916 1.355 . S
C915 C917 1.415 . S
C916 C915 1.355 . S
C916 C918 1.419 . S
C917 C912 1.425 . S
C917 C914 1.409 . S
C917 C915 1.415 . S
C918 H908 0.930 . S
C918 C916 1.419 . S
C918 C919 1.362 . S
C919 H909 0.930 1_554 S
C919 C912 1.409 . S
C919 C918 1.362 . S
H920 C926 0.930 1_556 S
H921 C929 0.930 . S
H922 C930 0.930 . S
H923 C931 0.930 . S
H924 C934 0.930 . S
H925 C935 0.930 . S
C926 H920 0.930 1_554 S
C926 C927 1.353 1_554 S
C926 C928 1.415 . S
C927 C926 1.353 1_556 S
C927 C929 1.410 1_556 S
C928 C926 1.415 . S
C928 C933 1.425 . S
C928 C935 1.409 . S
C929 H921 0.930 . S
C929 C927 1.410 1_554 S
C929 C930 1.362 . S
C930 H922 0.930 . S
C930 C929 1.362 . S
C930 C933 1.409 . S
C931 H923 0.930 . S
C931 C932 1.355 . S
C931 C933 1.415 . S
C932 C931 1.355 . S
C932 C934 1.419 . S
C933 C928 1.425 . S
C933 C930 1.409 . S
C933 C931 1.415 . S
C934 H924 0.930 . S
C934 C932 1.419 . S
C934 C935 1.362 . S
C935 H925 0.930 . S
C935 C928 1.409 . S
C935 C934 1.362 . S
H936 C942 0.930 . S
H937 C945 0.930 . S
H938 C946 0.930 . S
H939 C947 0.930 . S
H940 C950 0.930 . S
H941 C951 0.930 . S
C942 H936 0.930 . S
C942 C943 1.355 . S
C942 C944 1.415 . S
C943 C942 1.355 . S
C943 C945 1.419 . S
C944 C942 1.415 . S
C944 C949 1.425 . S
C944 C951 1.409 . S
C945 H937 0.930 . S
C945 C943 1.419 . S
C945 C946 1.362 . S
C946 H938 0.930 . S
C946 C945 1.362 . S
C946 C949 1.409 . S
C947 H939 0.930 . S
C947 C948 1.355 . S
C947 C949 1.415 . S
C948 C947 1.355 . S
C948 C950 1.419 . S
C949 C944 1.425 . S
C949 C946 1.409 . S
C949 C947 1.415 . S
C950 H940 0.930 . S
C950 C948 1.419 . S
C950 C951 1.362 . S
C951 H941 0.930 . S
C951 C944 1.409 . S
C951 C950 1.362 . S
H952 C958 0.930 . S
H953 C961 0.930 . S
H954 C962 0.930 . S
H955 C963 0.930 . S
H956 C966 0.930 . S
H957 C967 0.930 . S
C958 H952 0.930 . S
C958 C959 1.355 . S
C958 C960 1.415 . S
C959 C958 1.355 . S
C959 C961 1.419 . S
C960 C958 1.415 . S
C960 C965 1.425 . S
C960 C967 1.409 . S
C961 H953 0.930 . S
C961 C959 1.419 . S
C961 C962 1.362 . S
C962 H954 0.930 . S
C962 C961 1.362 . S
C962 C965 1.409 . S
C963 H955 0.930 . S
C963 C964 1.355 . S
C963 C965 1.415 . S
C964 C963 1.355 . S
C964 C966 1.419 . S
C965 C960 1.425 . S
C965 C962 1.409 . S
C965 C963 1.415 . S
C966 H956 0.930 . S
C966 C964 1.419 . S
C966 C967 1.362 . S
C967 H957 0.930 . S
C967 C960 1.409 . S
C967 C966 1.362 . S
H968 C974 0.930 . S
H969 C977 0.930 . S
H970 C978 0.930 . S
H971 C979 0.930 . S
H972 C982 0.930 . S
H973 C983 0.930 . S
C974 H968 0.930 . S
C974 C975 1.355 . S
C974 C976 1.415 . S
C975 C974 1.355 . S
C975 C977 1.419 . S
C976 C974 1.415 . S
C976 C981 1.425 . S
C976 C983 1.409 . S
C977 H969 0.930 . S
C977 C975 1.419 . S
C977 C978 1.362 . S
C978 H970 0.930 . S
C978 C977 1.362 . S
C978 C981 1.409 . S
C979 H971 0.930 . S
C979 C980 1.355 . S
C979 C981 1.415 . S
C980 C979 1.355 . S
C980 C982 1.419 . S
C981 C976 1.425 . S
C981 C978 1.409 . S
C981 C979 1.415 . S
C982 H972 0.930 . S
C982 C980 1.419 . S
C982 C983 1.362 . S
C983 H973 0.930 . S
C983 C976 1.409 . S
C983 C982 1.362 . S
H984 C990 0.954 . S
H985 C993 0.930 . S
H986 C994 0.930 . S
H987 C995 0.889 1_655 S
H988 C998 0.930 . S
H989 C999 0.930 . S
C990 H984 0.954 . S
C990 C991 1.338 1_455 S
C990 C992 1.409 . S
C991 C990 1.338 1_655 S
C991 C993 1.419 . S
C992 C990 1.409 . S
C992 C997 1.425 1_455 S
C992 C999 1.409 . S
C993 H985 0.930 . S
C993 C991 1.419 . S
C993 C994 1.362 . S
C994 H986 0.930 . S
C994 C993 1.362 . S
C994 C997 1.409 . S
C995 H987 0.889 1_455 S
C995 C996 1.385 . S
C995 C997 1.426 1_455 S
C996 C995 1.385 . S
C996 C998 1.419 . S
C997 C992 1.425 1_655 S
C997 C994 1.409 . S
C997 C995 1.426 1_655 S
C998 H988 0.930 . S
C998 C996 1.419 . S
C998 C999 1.362 . S
C999 H989 0.930 . S
C999 C992 1.409 . S
C999 C998 1.362 . S
H1000 C1006 0.930 . S
H1001 C1009 0.930 . S
H1002 C1010 0.930 . S
H1003 C1011 0.930 . S
H1004 C1014 0.930 . S
H1005 C1015 0.930 . S
C1006 H1000 0.930 . S
C1006 C1007 1.355 . S
C1006 C1008 1.415 . S
C1007 C1006 1.355 . S
C1007 C1009 1.419 . S
C1008 C1006 1.415 . S
C1008 C1013 1.425 . S
C1008 C1015 1.409 . S
C1009 H1001 0.930 . S
C1009 C1007 1.419 . S
C1009 C1010 1.362 . S
C1010 H1002 0.930 . S
C1010 C1009 1.362 . S
C1010 C1013 1.409 . S
C1011 H1003 0.930 . S
C1011 C1012 1.355 . S
C1011 C1013 1.415 . S
C1012 C1011 1.355 . S
C1012 C1014 1.419 . S
C1013 C1008 1.425 . S
C1013 C1010 1.409 . S
C1013 C1011 1.415 . S
C1014 H1004 0.930 . S
C1014 C1012 1.419 . S
C1014 C1015 1.362 . S
C1015 H1005 0.930 . S
C1015 C1008 1.409 . S
C1015 C1014 1.362 . S
H1016 C1022 0.930 . S
H1017 C1025 0.921 . S
H1018 C1026 0.930 . S
H1019 C1027 0.930 . S
H1020 C1030 0.930 . S
H1021 C1031 0.930 . S
C1022 H1016 0.930 . S
C1022 C1023 1.355 . S
C1022 C1024 1.415 . S
C1023 C1022 1.355 . S
C1023 C1025 1.419 . S
C1024 C1022 1.415 . S
C1024 C1029 1.425 1_565 S
C1024 C1031 1.409 . S
C1025 H1017 0.921 . S
C1025 C1023 1.419 . S
C1025 C1026 1.362 1_565 S
C1026 H1018 0.930 . S
C1026 C1025 1.362 1_545 S
C1026 C1029 1.409 . S
C1027 H1019 0.930 . S
C1027 C1028 1.355 . S
C1027 C1029 1.415 . S
C1028 C1027 1.355 . S
C1028 C1030 1.419 1_545 S
C1029 C1024 1.425 1_545 S
C1029 C1026 1.409 . S
C1029 C1027 1.415 . S
C1030 H1020 0.930 . S
C1030 C1028 1.419 1_565 S
C1030 C1031 1.362 . S
C1031 H1021 0.930 . S
C1031 C1024 1.409 . S
C1031 C1030 1.362 . S
H1032 C1038 0.930 . S
H1033 C1041 0.930 . S
H1034 C1042 0.930 . S
H1035 C1043 0.930 . S
H1036 C1046 0.930 . S
H1037 C1047 0.930 . S
C1038 H1032 0.930 . S
C1038 C1039 1.355 . S
C1038 C1040 1.415 . S
C1039 C1038 1.355 . S
C1039 C1041 1.419 . S
C1040 C1038 1.415 . S
C1040 C1045 1.425 . S
C1040 C1047 1.409 . S
C1041 H1033 0.930 . S
C1041 C1039 1.419 . S
C1041 C1042 1.362 . S
C1042 H1034 0.930 . S
C1042 C1041 1.362 . S
C1042 C1045 1.409 . S
C1043 H1035 0.930 . S
C1043 C1044 1.355 . S
C1043 C1045 1.415 . S
C1044 C1043 1.355 . S
C1044 C1046 1.419 1_556 S
C1045 C1040 1.425 . S
C1045 C1042 1.409 . S
C1045 C1043 1.415 . S
C1046 H1036 0.930 . S
C1046 C1044 1.419 1_554 S
C1046 C1047 1.362 1_554 S
C1047 H1037 0.930 . S
C1047 C1040 1.409 . S
C1047 C1046 1.362 1_556 S
H1048 C1054 0.930 . S
H1049 C1057 0.930 . S
H1050 C1058 0.930 . S
H1051 C1059 0.930 . S
H1052 C1062 0.930 . S
H1053 C1063 0.930 . S
C1054 H1048 0.930 . S
C1054 C1055 1.355 . S
C1054 C1056 1.415 . S
C1055 C1054 1.355 . S
C1055 C1057 1.419 . S
C1056 C1054 1.415 . S
C1056 C1061 1.425 . S
C1056 C1063 1.409 . S
C1057 H1049 0.930 . S
C1057 C1055 1.419 . S
C1057 C1058 1.362 . S
C1058 H1050 0.930 . S
C1058 C1057 1.362 . S
C1058 C1061 1.409 . S
C1059 H1051 0.930 . S
C1059 C1060 1.355 . S
C1059 C1061 1.415 . S
C1060 C1059 1.355 . S
C1060 C1062 1.419 . S
C1061 C1056 1.425 . S
C1061 C1058 1.409 . S
C1061 C1059 1.415 . S
C1062 H1052 0.930 . S
C1062 C1060 1.419 . S
C1062 C1063 1.362 . S
C1063 H1053 0.930 . S
C1063 C1056 1.409 . S
C1063 C1062 1.362 . S
H1064 C1070 0.930 . S
H1065 C1073 0.930 . S
H1066 C1074 0.930 . S
H1067 C1075 0.930 . S
H1068 C1078 0.930 . S
H1069 C1079 0.930 1_554 S
C1070 H1064 0.930 . S
C1070 C1071 1.355 . S
C1070 C1072 1.415 . S
C1071 C1070 1.355 . S
C1071 C1073 1.419 . S
C1072 C1070 1.415 . S
C1072 C1077 1.425 . S
C1072 C1079 1.409 . S
C1073 H1065 0.930 . S
C1073 C1071 1.419 . S
C1073 C1074 1.362 . S
C1074 H1066 0.930 . S
C1074 C1073 1.362 . S
C1074 C1077 1.409 . S
C1075 H1067 0.930 . S
C1075 C1076 1.342 1_556 S
C1075 C1077 1.415 . S
C1076 C1075 1.342 1_554 S
C1076 C1078 1.425 . S
C1077 C1072 1.425 . S
C1077 C1074 1.409 . S
C1077 C1075 1.415 . S
C1078 H1068 0.930 . S
C1078 C1076 1.425 . S
C1078 C1079 1.362 1_554 S
C1079 H1069 0.930 1_556 S
C1079 C1072 1.409 . S
C1079 C1078 1.362 1_556 S
H1080 C1086 0.930 . S
H1081 C1089 0.930 . S
H1082 C1090 0.930 . S
H1083 C1091 0.930 . S
H1084 C1094 0.930 . S
H1085 C1095 0.930 . S
C1086 H1080 0.930 . S
C1086 C1087 1.355 . S
C1086 C1088 1.415 . S
C1087 C1086 1.355 . S
C1087 C1089 1.419 . S
C1088 C1086 1.415 . S
C1088 C1093 1.425 . S
C1088 C1095 1.409 . S
C1089 H1081 0.930 . S
C1089 C1087 1.419 . S
C1089 C1090 1.362 . S
C1090 H1082 0.930 . S
C1090 C1089 1.362 . S
C1090 C1093 1.409 . S
C1091 H1083 0.930 . S
C1091 C1092 1.355 . S
C1091 C1093 1.415 . S
C1092 C1091 1.355 . S
C1092 C1094 1.419 . S
C1093 C1088 1.425 . S
C1093 C1090 1.409 . S
C1093 C1091 1.415 . S
C1094 H1084 0.930 . S
C1094 C1092 1.419 . S
C1094 C1095 1.362 . S
C1095 H1085 0.930 . S
C1095 C1088 1.409 . S
C1095 C1094 1.362 . S
H1096 C1102 0.930 . S
H1097 C1105 0.930 . S
H1098 C1106 0.930 . S
H1099 C1107 0.930 . S
H1100 C1110 0.930 . S
H1101 C1111 0.930 . S
C1102 H1096 0.930 . S
C1102 C1103 1.355 . S
C1102 C1104 1.415 . S
C1103 C1102 1.355 . S
C1103 C1105 1.419 . S
C1104 C1102 1.415 . S
C1104 C1109 1.425 . S
C1104 C1111 1.409 . S
C1105 H1097 0.930 . S
C1105 C1103 1.419 . S
C1105 C1106 1.362 . S
C1106 H1098 0.930 . S
C1106 C1105 1.362 . S
C1106 C1109 1.409 . S
C1107 H1099 0.930 . S
C1107 C1108 1.355 . S
C1107 C1109 1.415 . S
C1108 C1107 1.355 . S
C1108 C1110 1.419 . S
C1109 C1104 1.425 . S
C1109 C1106 1.409 . S
C1109 C1107 1.415 . S
C1110 H1100 0.930 . S
C1110 C1108 1.419 . S
C1110 C1111 1.362 . S
C1111 H1101 0.930 . S
C1111 C1104 1.409 . S
C1111 C1110 1.362 . S
H1112 C1118 0.930 . S
H1113 C1121 0.930 . S
H1114 C1122 0.930 . S
H1115 C1123 0.930 . S
H1116 C1126 0.930 . S
H1117 C1127 0.930 . S
C1118 H1112 0.930 . S
C1118 C1119 1.355 . S
C1118 C1120 1.415 . S
C1119 C1118 1.355 . S
C1119 C1121 1.419 . S
C1120 C1118 1.415 . S
C1120 C1125 1.425 . S
C1120 C1127 1.409 . S
C1121 H1113 0.930 . S
C1121 C1119 1.419 . S
C1121 C1122 1.362 . S
C1122 H1114 0.930 . S
C1122 C1121 1.362 . S
C1122 C1125 1.409 . S
C1123 H1115 0.930 . S
C1123 C1124 1.355 . S
C1123 C1125 1.415 . S
C1124 C1123 1.355 . S
C1124 C1126 1.419 . S
C1125 C1120 1.425 . S
C1125 C1122 1.409 . S
C1125 C1123 1.415 . S
C1126 H1116 0.930 . S
C1126 C1124 1.419 . S
C1126 C1127 1.362 . S
C1127 H1117 0.930 . S
C1127 C1120 1.409 . S
C1127 C1126 1.362 . S
H1128 C1134 0.930 . S
H1129 C1137 0.930 . S
H1130 C1138 0.930 . S
H1131 C1139 0.930 . S
H1132 C1142 0.930 . S
H1133 C1143 0.930 . S
C1134 H1128 0.930 . S
C1134 C1135 1.355 . S
C1134 C1136 1.415 . S
C1135 C1134 1.355 . S
C1135 C1137 1.419 1_545 S
C1136 C1134 1.415 . S
C1136 C1141 1.425 1_545 S
C1136 C1143 1.409 . S
C1137 H1129 0.930 . S
C1137 C1135 1.419 1_565 S
C1137 C1138 1.362 . S
C1138 H1130 0.930 . S
C1138 C1137 1.362 . S
C1138 C1141 1.409 . S
C1139 H1131 0.930 . S
C1139 C1140 1.355 . S
C1139 C1141 1.415 . S
C1140 C1139 1.355 . S
C1140 C1142 1.419 1_565 S
C1141 C1136 1.425 1_565 S
C1141 C1138 1.409 . S
C1141 C1139 1.415 . S
C1142 H1132 0.930 . S
C1142 C1140 1.419 1_545 S
C1142 C1143 1.362 . S
C1143 H1133 0.930 . S
C1143 C1136 1.409 . S
C1143 C1142 1.362 . S
H1144 C1150 0.931 . S
H1145 C1153 0.930 . S
H1146 C1154 0.930 . S
H1147 C1155 0.930 . S
H1148 C1158 0.930 . S
H1149 C1159 0.930 . S
C1150 H1144 0.931 . S
C1150 C1151 1.340 1_655 S
C1150 C1152 1.429 . S
C1151 C1150 1.340 1_455 S
C1151 C1153 1.419 . S
C1152 C1150 1.429 . S
C1152 C1157 1.425 1_655 S
C1152 C1159 1.409 . S
C1153 H1145 0.930 . S
C1153 C1151 1.419 . S
C1153 C1154 1.362 . S
C1154 H1146 0.930 . S
C1154 C1153 1.362 . S
C1154 C1157 1.409 . S
C1155 H1147 0.930 . S
C1155 C1156 1.355 1_455 S
C1155 C1157 1.415 . S
C1156 C1155 1.355 1_655 S
C1156 C1158 1.419 . S
C1157 C1152 1.425 1_455 S
C1157 C1154 1.409 . S
C1157 C1155 1.415 . S
C1158 H1148 0.930 . S
C1158 C1156 1.419 . S
C1158 C1159 1.362 . S
C1159 H1149 0.930 . S
C1159 C1152 1.409 . S
C1159 C1158 1.362 . S
H1160 C1166 0.930 . S
H1161 C1169 0.930 . S
H1162 C1170 0.930 . S
H1163 C1171 0.930 . S
H1164 C1174 0.930 . S
H1165 C1175 0.930 . S
C1166 H1160 0.930 . S
C1166 C1167 1.355 . S
C1166 C1168 1.415 . S
C1167 C1166 1.355 . S
C1167 C1169 1.419 . S
C1168 C1166 1.415 . S
C1168 C1173 1.425 . S
C1168 C1175 1.409 . S
C1169 H1161 0.930 . S
C1169 C1167 1.419 . S
C1169 C1170 1.362 . S
C1170 H1162 0.930 . S
C1170 C1169 1.362 . S
C1170 C1173 1.409 . S
C1171 H1163 0.930 . S
C1171 C1172 1.355 . S
C1171 C1173 1.415 . S
C1172 C1171 1.355 . S
C1172 C1174 1.419 . S
C1173 C1168 1.425 . S
C1173 C1170 1.409 . S
C1173 C1171 1.415 . S
C1174 H1164 0.930 . S
C1174 C1172 1.419 . S
C1174 C1175 1.362 . S
C1175 H1165 0.930 . S
C1175 C1168 1.409 . S
C1175 C1174 1.362 . S
H1176 C1182 0.930 . S
H1177 C1185 0.930 . S
H1178 C1186 0.930 . S
H1179 C1187 0.930 . S
H1180 C1190 0.930 . S
H1181 C1191 0.930 . S
C1182 H1176 0.930 . S
C1182 C1183 1.355 . S
C1182 C1184 1.415 . S
C1183 C1182 1.355 . S
C1183 C1185 1.419 . S
C1184 C1182 1.415 . S
C1184 C1189 1.425 . S
C1184 C1191 1.409 . S
C1185 H1177 0.930 . S
C1185 C1183 1.419 . S
C1185 C1186 1.362 . S
C1186 H1178 0.930 . S
C1186 C1185 1.362 . S
C1186 C1189 1.409 . S
C1187 H1179 0.930 . S
C1187 C1188 1.355 . S
C1187 C1189 1.415 . S
C1188 C1187 1.355 . S
C1188 C1190 1.419 . S
C1189 C1184 1.425 . S
C1189 C1186 1.409 . S
C1189 C1187 1.415 . S
C1190 H1180 0.930 . S
C1190 C1188 1.419 . S
C1190 C1191 1.362 . S
C1191 H1181 0.930 . S
C1191 C1184 1.409 . S
C1191 C1190 1.362 . S
H1192 C1198 0.930 . S
H1193 C1201 0.930 . S
H1194 C1202 0.930 . S
H1195 C1203 0.930 . S
H1196 C1206 0.930 . S
H1197 C1207 0.930 . S
C1198 H1192 0.930 . S
C1198 C1199 1.355 . S
C1198 C1200 1.415 . S
C1199 C1198 1.355 . S
C1199 C1201 1.419 . S
C1200 C1198 1.415 . S
C1200 C1205 1.425 . S
C1200 C1207 1.409 . S
C1201 H1193 0.930 . S
C1201 C1199 1.419 . S
C1201 C1202 1.362 . S
C1202 H1194 0.930 . S
C1202 C1201 1.362 . S
C1202 C1205 1.409 . S
C1203 H1195 0.930 . S
C1203 C1204 1.355 . S
C1203 C1205 1.415 . S
C1204 C1203 1.355 . S
C1204 C1206 1.419 . S
C1205 C1200 1.425 . S
C1205 C1202 1.409 . S
C1205 C1203 1.415 . S
C1206 H1196 0.930 . S
C1206 C1204 1.419 . S
C1206 C1207 1.362 . S
C1207 H1197 0.930 . S
C1207 C1200 1.409 . S
C1207 C1206 1.362 . S
H1208 C1214 0.930 . S
H1209 C1217 0.930 . S
H1210 C1218 0.930 . S
H1211 C1219 0.930 . S
H1212 C1222 0.930 . S
H1213 C1223 0.930 . S
C1214 H1208 0.930 . S
C1214 C1215 1.355 . S
C1214 C1216 1.415 . S
C1215 C1214 1.355 . S
C1215 C1217 1.419 . S
C1216 C1214 1.415 . S
C1216 C1221 1.425 . S
C1216 C1223 1.409 . S
C1217 H1209 0.930 . S
C1217 C1215 1.419 . S
C1217 C1218 1.362 . S
C1218 H1210 0.930 . S
C1218 C1217 1.362 . S
C1218 C1221 1.409 . S
C1219 H1211 0.930 . S
C1219 C1220 1.355 . S
C1219 C1221 1.415 . S
C1220 C1219 1.355 . S
C1220 C1222 1.419 . S
C1221 C1216 1.425 . S
C1221 C1218 1.409 . S
C1221 C1219 1.415 . S
C1222 H1212 0.930 . S
C1222 C1220 1.419 . S
C1222 C1223 1.362 . S
C1223 H1213 0.930 . S
C1223 C1216 1.409 . S
C1223 C1222 1.362 . S
H1224 C1230 0.930 . S
H1225 C1233 0.930 . S
H1226 C1234 0.930 . S
H1227 C1235 0.930 . S
H1228 C1238 0.930 . S
H1229 C1239 0.930 . S
C1230 H1224 0.930 . S
C1230 C1231 1.355 . S
C1230 C1232 1.415 . S
C1231 C1230 1.355 . S
C1231 C1233 1.419 1_545 S
C1232 C1230 1.415 . S
C1232 C1237 1.425 1_545 S
C1232 C1239 1.409 . S
C1233 H1225 0.930 . S
C1233 C1231 1.419 1_565 S
C1233 C1234 1.362 . S
C1234 H1226 0.930 . S
C1234 C1233 1.362 . S
C1234 C1237 1.409 . S
C1235 H1227 0.930 . S
C1235 C1236 1.355 . S
C1235 C1237 1.415 . S
C1236 C1235 1.355 . S
C1236 C1238 1.419 1_565 S
C1237 C1232 1.425 1_565 S
C1237 C1234 1.409 . S
C1237 C1235 1.415 . S
C1238 H1228 0.930 . S
C1238 C1236 1.419 1_545 S
C1238 C1239 1.362 . S
C1239 H1229 0.930 . S
C1239 C1232 1.409 . S
C1239 C1238 1.362 . S
H1240 C1246 0.930 . S
H1241 C1249 0.916 . S
H1242 C1250 0.930 . S
H1243 C1251 0.930 . S
H1244 C1254 0.930 . S
H1245 C1255 0.930 . S
C1246 H1240 0.930 . S
C1246 C1247 1.355 . S
C1246 C1248 1.415 . S
C1247 C1246 1.355 . S
C1247 C1249 1.409 1_655 S
C1248 C1246 1.415 . S
C1248 C1253 1.425 1_655 S
C1248 C1255 1.409 . S
C1249 H1241 0.916 . S
C1249 C1247 1.409 1_455 S
C1249 C1250 1.388 . S
C1250 H1242 0.930 . S
C1250 C1249 1.388 . S
C1250 C1253 1.409 . S
C1251 H1243 0.930 . S
C1251 C1252 1.355 . S
C1251 C1253 1.415 . S
C1252 C1251 1.355 . S
C1252 C1254 1.419 1_455 S
C1253 C1248 1.425 1_455 S
C1253 C1250 1.409 . S
C1253 C1251 1.415 . S
C1254 H1244 0.930 . S
C1254 C1252 1.419 1_655 S
C1254 C1255 1.362 . S
C1255 H1245 0.930 . S
C1255 C1248 1.409 . S
C1255 C1254 1.362 . S
H1256 C1262 0.930 . S
H1257 C1265 0.930 . S
H1258 C1266 0.930 . S
H1259 C1267 0.930 . S
H1260 C1270 0.930 . S
H1261 C1271 0.930 . S
C1262 H1256 0.930 . S
C1262 C1263 1.355 . S
C1262 C1264 1.415 . S
C1263 C1262 1.355 . S
C1263 C1265 1.419 . S
C1264 C1262 1.415 . S
C1264 C1269 1.425 . S
C1264 C1271 1.409 . S
C1265 H1257 0.930 . S
C1265 C1263 1.419 . S
C1265 C1266 1.362 . S
C1266 H1258 0.930 . S
C1266 C1265 1.362 . S
C1266 C1269 1.409 . S
C1267 H1259 0.930 . S
C1267 C1268 1.355 . S
C1267 C1269 1.415 . S
C1268 C1267 1.355 . S
C1268 C1270 1.419 . S
C1269 C1264 1.425 . S
C1269 C1266 1.409 . S
C1269 C1267 1.415 . S
C1270 H1260 0.930 . S
C1270 C1268 1.419 . S
C1270 C1271 1.362 . S
C1271 H1261 0.930 . S
C1271 C1264 1.409 . S
C1271 C1270 1.362 . S
H1272 C1278 0.930 . S
H1273 C1281 0.930 . S
H1274 C1282 0.930 . S
H1275 C1283 0.930 . S
H1276 C1286 0.930 . S
H1277 C1287 0.930 . S
C1278 H1272 0.930 . S
C1278 C1279 1.355 . S
C1278 C1280 1.415 . S
C1279 C1278 1.355 . S
C1279 C1281 1.419 1_455 S
C1280 C1278 1.415 . S
C1280 C1285 1.425 1_455 S
C1280 C1287 1.409 . S
C1281 H1273 0.930 . S
C1281 C1279 1.419 1_655 S
C1281 C1282 1.362 . S
C1282 H1274 0.930 . S
C1282 C1281 1.362 . S
C1282 C1285 1.409 . S
C1283 H1275 0.930 . S
C1283 C1284 1.355 . S
C1283 C1285 1.415 . S
C1284 C1283 1.355 . S
C1284 C1286 1.419 1_655 S
C1285 C1280 1.425 1_655 S
C1285 C1282 1.409 . S
C1285 C1283 1.415 . S
C1286 H1276 0.930 . S
C1286 C1284 1.419 1_455 S
C1286 C1287 1.362 . S
C1287 H1277 0.930 . S
C1287 C1280 1.409 . S
C1287 C1286 1.362 . S
H1288 C1294 0.930 . S
H1289 C1297 0.930 . S
H1290 C1298 0.930 . S
H1291 C1299 0.930 . S
H1292 C1302 0.930 . S
H1293 C1303 0.930 . S
C1294 H1288 0.930 . S
C1294 C1295 1.355 . S
C1294 C1296 1.415 . S
C1295 C1294 1.355 . S
C1295 C1297 1.419 . S
C1296 C1294 1.415 . S
C1296 C1301 1.425 . S
C1296 C1303 1.409 . S
C1297 H1289 0.930 . S
C1297 C1295 1.419 . S
C1297 C1298 1.362 . S
C1298 H1290 0.930 . S
C1298 C1297 1.362 . S
C1298 C1301 1.409 . S
C1299 H1291 0.930 . S
C1299 C1300 1.355 . S
C1299 C1301 1.415 . S
C1300 C1299 1.355 . S
C1300 C1302 1.419 . S
C1301 C1296 1.425 . S
C1301 C1298 1.409 . S
C1301 C1299 1.415 . S
C1302 H1292 0.930 . S
C1302 C1300 1.419 . S
C1302 C1303 1.362 . S
C1303 H1293 0.930 . S
C1303 C1296 1.409 . S
C1303 C1302 1.362 . S
H1304 C1310 0.930 . S
H1305 C1313 0.930 . S
H1306 C1314 0.930 . S
H1307 C1315 0.930 . S
H1308 C1318 0.930 . S
H1309 C1319 0.930 . S
C1310 H1304 0.930 . S
C1310 C1311 1.355 . S
C1310 C1312 1.415 . S
C1311 C1310 1.355 . S
C1311 C1313 1.419 1_565 S
C1312 C1310 1.415 . S
C1312 C1317 1.425 1_565 S
C1312 C1319 1.409 . S
C1313 H1305 0.930 . S
C1313 C1311 1.419 1_545 S
C1313 C1314 1.362 . S
C1314 H1306 0.930 . S
C1314 C1313 1.362 . S
C1314 C1317 1.409 . S
C1315 H1307 0.930 . S
C1315 C1316 1.355 . S
C1315 C1317 1.415 . S
C1316 C1315 1.355 . S
C1316 C1318 1.419 1_545 S
C1317 C1312 1.425 1_545 S
C1317 C1314 1.409 . S
C1317 C1315 1.415 . S
C1318 H1308 0.930 . S
C1318 C1316 1.419 1_565 S
C1318 C1319 1.362 . S
C1319 H1309 0.930 . S
C1319 C1312 1.409 . S
C1319 C1318 1.362 . S
H1320 C1326 0.930 . S
H1321 C1329 0.942 . S
H1322 C1330 0.930 . S
H1323 C1331 0.930 . S
H1324 C1334 0.930 . S
H1325 C1335 0.930 . S
C1326 H1320 0.930 . S
C1326 C1327 1.355 . S
C1326 C1328 1.415 . S
C1327 C1326 1.355 . S
C1327 C1329 1.415 1_554 S
C1328 C1326 1.415 . S
C1328 C1333 1.425 . S
C1328 C1335 1.409 . S
C1329 H1321 0.942 . S
C1329 C1327 1.415 1_556 S
C1329 C1330 1.355 1_556 S
C1330 H1322 0.930 . S
C1330 C1329 1.355 1_554 S
C1330 C1333 1.409 . S
C1331 H1323 0.930 . S
C1331 C1332 1.355 . S
C1331 C1333 1.415 . S
C1332 C1331 1.355 . S
C1332 C1334 1.419 . S
C1333 C1328 1.425 . S
C1333 C1330 1.409 . S
C1333 C1331 1.415 . S
C1334 H1324 0.930 . S
C1334 C1332 1.419 . S
C1334 C1335 1.362 . S
C1335 H1325 0.930 . S
C1335 C1328 1.409 . S
C1335 C1334 1.362 . S
H1336 C1342 0.930 . S
H1337 C1345 0.930 . S
H1338 C1346 0.930 . S
H1339 C1347 0.930 . S
H1340 C1350 0.930 . S
H1341 C1351 0.930 . S
C1342 H1336 0.930 . S
C1342 C1343 1.355 . S
C1342 C1344 1.415 . S
C1343 C1342 1.355 . S
C1343 C1345 1.419 1_554 S
C1344 C1342 1.415 . S
C1344 C1349 1.425 . S
C1344 C1351 1.409 . S
C1345 H1337 0.930 . S
C1345 C1343 1.419 1_556 S
C1345 C1346 1.362 1_556 S
C1346 H1338 0.930 . S
C1346 C1345 1.362 1_554 S
C1346 C1349 1.409 . S
C1347 H1339 0.930 . S
C1347 C1348 1.355 . S
C1347 C1349 1.415 . S
C1348 C1347 1.355 . S
C1348 C1350 1.419 . S
C1349 C1344 1.425 . S
C1349 C1346 1.409 . S
C1349 C1347 1.415 . S
C1350 H1340 0.930 . S
C1350 C1348 1.419 . S
C1350 C1351 1.362 . S
C1351 H1341 0.930 . S
C1351 C1344 1.409 . S
C1351 C1350 1.362 . S
H1352 C1358 0.930 . S
H1353 C1361 0.930 . S
H1354 C1362 0.930 . S
H1355 C1363 0.930 . S
H1356 C1366 0.930 . S
H1357 C1367 0.930 . S
C1358 H1352 0.930 . S
C1358 C1359 1.350 1_554 S
C1358 C1360 1.415 . S
C1359 C1358 1.350 1_556 S
C1359 C1361 1.421 . S
C1360 C1358 1.415 . S
C1360 C1365 1.425 . S
C1360 C1367 1.409 . S
C1361 H1353 0.930 . S
C1361 C1359 1.421 . S
C1361 C1362 1.362 1_556 S
C1362 H1354 0.930 . S
C1362 C1361 1.362 1_554 S
C1362 C1365 1.409 . S
C1363 H1355 0.930 . S
C1363 C1364 1.355 . S
C1363 C1365 1.415 . S
C1364 C1363 1.355 . S
C1364 C1366 1.419 . S
C1365 C1360 1.425 . S
C1365 C1362 1.409 . S
C1365 C1363 1.415 . S
C1366 H1356 0.930 . S
C1366 C1364 1.419 . S
C1366 C1367 1.362 . S
C1367 H1357 0.930 . S
C1367 C1360 1.409 . S
C1367 C1366 1.362 . S
H1368 C1374 0.930 . S
H1369 C1377 0.930 . S
H1370 C1378 0.930 . S
H1371 C1379 0.930 . S
H1372 C1382 0.930 . S
H1373 C1383 0.930 . S
C1374 H1368 0.930 . S
C1374 C1375 1.355 . S
C1374 C1376 1.415 . S
C1375 C1374 1.355 . S
C1375 C1377 1.419 . S
C1376 C1374 1.415 . S
C1376 C1381 1.425 . S
C1376 C1383 1.409 . S
C1377 H1369 0.930 . S
C1377 C1375 1.419 . S
C1377 C1378 1.362 . S
C1378 H1370 0.930 . S
C1378 C1377 1.362 . S
C1378 C1381 1.409 . S
C1379 H1371 0.930 . S
C1379 C1380 1.355 . S
C1379 C1381 1.415 . S
C1380 C1379 1.355 . S
C1380 C1382 1.419 . S
C1381 C1376 1.425 . S
C1381 C1378 1.409 . S
C1381 C1379 1.415 . S
C1382 H1372 0.930 . S
C1382 C1380 1.419 . S
C1382 C1383 1.362 . S
C1383 H1373 0.930 . S
C1383 C1376 1.409 . S
C1383 C1382 1.362 . S
H1384 C1390 0.930 . S
H1385 C1393 0.930 1_554 S
H1386 C1394 0.930 . S
H1387 C1395 0.930 . S
H1388 C1398 0.930 . S
H1389 C1399 0.930 . S
C1390 H1384 0.930 . S
C1390 C1391 1.355 . S
C1390 C1392 1.415 . S
C1391 C1390 1.355 . S
C1391 C1393 1.419 . S
C1392 C1390 1.415 . S
C1392 C1397 1.425 . S
C1392 C1399 1.409 . S
C1393 H1385 0.930 1_556 S
C1393 C1391 1.419 . S
C1393 C1394 1.362 . S
C1394 H1386 0.930 . S
C1394 C1393 1.362 . S
C1394 C1397 1.409 . S
C1395 H1387 0.930 . S
C1395 C1396 1.355 . S
C1395 C1397 1.415 . S
C1396 C1395 1.355 . S
C1396 C1398 1.419 . S
C1397 C1392 1.425 . S
C1397 C1394 1.409 . S
C1397 C1395 1.415 . S
C1398 H1388 0.930 . S
C1398 C1396 1.419 . S
C1398 C1399 1.362 . S
C1399 H1389 0.930 . S
C1399 C1392 1.409 . S
C1399 C1398 1.362 . S
H1400 C1406 0.930 . S
H1401 C1409 0.930 . S
H1402 C1410 0.930 . S
H1403 C1411 0.930 . S
H1404 C1414 0.921 1_554 S
H1405 C1415 0.930 . S
C1406 H1400 0.930 . S
C1406 C1407 1.355 . S
C1406 C1408 1.415 . S
C1407 C1406 1.355 . S
C1407 C1409 1.419 . S
C1408 C1406 1.415 . S
C1408 C1413 1.425 . S
C1408 C1415 1.409 . S
C1409 H1401 0.930 . S
C1409 C1407 1.419 . S
C1409 C1410 1.362 . S
C1410 H1402 0.930 . S
C1410 C1409 1.362 . S
C1410 C1413 1.409 . S
C1411 H1403 0.930 . S
C1411 C1412 1.355 . S
C1411 C1413 1.415 . S
C1412 C1411 1.355 . S
C1412 C1414 1.419 . S
C1413 C1408 1.425 . S
C1413 C1410 1.409 . S
C1413 C1411 1.415 . S
C1414 H1404 0.921 1_556 S
C1414 C1412 1.419 . S
C1414 C1415 1.362 . S
C1415 H1405 0.930 . S
C1415 C1408 1.409 . S
C1415 C1414 1.362 . S
H1416 C1422 0.930 . S
H1417 C1425 0.930 . S
H1418 C1426 0.930 . S
H1419 C1427 0.930 . S
H1420 C1430 0.930 . S
H1421 C1431 0.930 . S
C1422 H1416 0.930 . S
C1422 C1423 1.355 . S
C1422 C1424 1.415 . S
C1423 C1422 1.355 . S
C1423 C1425 1.419 . S
C1424 C1422 1.415 . S
C1424 C1429 1.425 . S
C1424 C1431 1.409 . S
C1425 H1417 0.930 . S
C1425 C1423 1.419 . S
C1425 C1426 1.362 . S
C1426 H1418 0.930 . S
C1426 C1425 1.362 . S
C1426 C1429 1.409 . S
C1427 H1419 0.930 . S
C1427 C1428 1.355 . S
C1427 C1429 1.415 . S
C1428 C1427 1.355 . S
C1428 C1430 1.419 . S
C1429 C1424 1.425 . S
C1429 C1426 1.409 . S
C1429 C1427 1.415 . S
C1430 H1420 0.930 . S
C1430 C1428 1.419 . S
C1430 C1431 1.362 . S
C1431 H1421 0.930 . S
C1431 C1424 1.409 . S
C1431 C1430 1.362 . S
H1432 C1438 0.930 . S
H1433 C1441 0.930 . S
H1434 C1442 0.930 . S
H1435 C1443 0.930 . S
H1436 C1446 0.930 . S
H1437 C1447 0.930 . S
C1438 H1432 0.930 . S
C1438 C1439 1.355 . S
C1438 C1440 1.415 . S
C1439 C1438 1.355 . S
C1439 C1441 1.419 . S
C1440 C1438 1.415 . S
C1440 C1445 1.425 . S
C1440 C1447 1.409 . S
C1441 H1433 0.930 . S
C1441 C1439 1.419 . S
C1441 C1442 1.362 . S
C1442 H1434 0.930 . S
C1442 C1441 1.362 . S
C1442 C1445 1.409 . S
C1443 H1435 0.930 . S
C1443 C1444 1.355 . S
C1443 C1445 1.415 . S
C1444 C1443 1.355 . S
C1444 C1446 1.419 . S
C1445 C1440 1.425 . S
C1445 C1442 1.409 . S
C1445 C1443 1.415 . S
C1446 H1436 0.930 . S
C1446 C1444 1.419 . S
C1446 C1447 1.362 . S
C1447 H1437 0.930 . S
C1447 C1440 1.409 . S
C1447 C1446 1.362 . S
H1448 C1454 0.930 . S
H1449 C1457 0.930 . S
H1450 C1458 0.930 . S
H1451 C1459 0.930 . S
H1452 C1462 0.930 . S
H1453 C1463 0.930 . S
C1454 H1448 0.930 . S
C1454 C1455 1.355 . S
C1454 C1456 1.415 . S
C1455 C1454 1.355 . S
C1455 C1457 1.419 . S
C1456 C1454 1.415 . S
C1456 C1461 1.425 . S
C1456 C1463 1.409 . S
C1457 H1449 0.930 . S
C1457 C1455 1.419 . S
C1457 C1458 1.362 . S
C1458 H1450 0.930 . S
C1458 C1457 1.362 . S
C1458 C1461 1.409 . S
C1459 H1451 0.930 . S
C1459 C1460 1.355 . S
C1459 C1461 1.415 . S
C1460 C1459 1.355 . S
C1460 C1462 1.419 . S
C1461 C1456 1.425 . S
C1461 C1458 1.409 . S
C1461 C1459 1.415 . S
C1462 H1452 0.930 . S
C1462 C1460 1.419 . S
C1462 C1463 1.362 . S
C1463 H1453 0.930 . S
C1463 C1456 1.409 . S
C1463 C1462 1.362 . S
H1464 C1470 0.930 1_556 S
H1465 C1473 0.930 . S
H1466 C1474 0.930 . S
H1467 C1475 0.930 . S
H1468 C1478 0.930 . S
H1469 C1479 0.930 . S
C1470 H1464 0.930 1_554 S
C1470 C1471 1.355 . S
C1470 C1472 1.415 . S
C1471 C1470 1.355 . S
C1471 C1473 1.419 . S
C1472 C1470 1.415 . S
C1472 C1477 1.425 . S
C1472 C1479 1.409 . S
C1473 H1465 0.930 . S
C1473 C1471 1.419 . S
C1473 C1474 1.362 . S
C1474 H1466 0.930 . S
C1474 C1473 1.362 . S
C1474 C1477 1.409 . S
C1475 H1467 0.930 . S
C1475 C1476 1.355 . S
C1475 C1477 1.415 . S
C1476 C1475 1.355 . S
C1476 C1478 1.419 . S
C1477 C1472 1.425 . S
C1477 C1474 1.409 . S
C1477 C1475 1.415 . S
C1478 H1468 0.930 . S
C1478 C1476 1.419 . S
C1478 C1479 1.362 . S
C1479 H1469 0.930 . S
C1479 C1472 1.409 . S
C1479 C1478 1.362 . S
H1480 C1486 0.930 . S
H1481 C1489 0.930 . S
H1482 C1490 0.930 . S
H1483 C1491 0.930 . S
H1484 C1494 0.930 . S
H1485 C1495 0.930 . S
C1486 H1480 0.930 . S
C1486 C1487 1.355 . S
C1486 C1488 1.415 . S
C1487 C1486 1.355 . S
C1487 C1489 1.419 . S
C1488 C1486 1.415 . S
C1488 C1493 1.425 . S
C1488 C1495 1.409 1_554 S
C1489 H1481 0.930 . S
C1489 C1487 1.419 . S
C1489 C1490 1.362 . S
C1490 H1482 0.930 . S
C1490 C1489 1.362 . S
C1490 C1493 1.409 . S
C1491 H1483 0.930 . S
C1491 C1492 1.355 . S
C1491 C1493 1.415 . S
C1492 C1491 1.355 . S
C1492 C1494 1.419 1_554 S
C1493 C1488 1.425 . S
C1493 C1490 1.409 . S
C1493 C1491 1.415 . S
C1494 H1484 0.930 . S
C1494 C1492 1.419 1_556 S
C1494 C1495 1.362 . S
C1495 H1485 0.930 . S
C1495 C1488 1.409 1_556 S
C1495 C1494 1.362 . S
H1496 C1502 0.930 . S
H1497 C1505 0.930 . S
H1498 C1506 0.930 . S
H1499 C1507 0.930 . S
H1500 C1510 0.930 . S
H1501 C1511 0.930 1_556 S
C1502 H1496 0.930 . S
C1502 C1503 1.355 . S
C1502 C1504 1.415 . S
C1503 C1502 1.355 . S
C1503 C1505 1.419 . S
C1504 C1502 1.415 . S
C1504 C1509 1.425 . S
C1504 C1511 1.409 . S
C1505 H1497 0.930 . S
C1505 C1503 1.419 . S
C1505 C1506 1.362 . S
C1506 H1498 0.930 . S
C1506 C1505 1.362 . S
C1506 C1509 1.409 . S
C1507 H1499 0.930 . S
C1507 C1508 1.355 . S
C1507 C1509 1.415 . S
C1508 C1507 1.355 . S
C1508 C1510 1.419 1_554 S
C1509 C1504 1.425 . S
C1509 C1506 1.409 . S
C1509 C1507 1.415 . S
C1510 H1500 0.930 . S
C1510 C1508 1.419 1_556 S
C1510 C1511 1.362 1_556 S
C1511 H1501 0.930 1_554 S
C1511 C1504 1.409 . S
C1511 C1510 1.362 1_554 S
H1512 C1518 0.930 . S
H1513 C1521 0.930 . S
H1514 C1522 0.930 . S
H1515 C1523 0.930 . S
H1516 C1526 0.930 . S
H1517 C1527 0.930 . S
C1518 H1512 0.930 . S
C1518 C1519 1.355 . S
C1518 C1520 1.415 . S
C1519 C1518 1.355 . S
C1519 C1521 1.419 . S
C1520 C1518 1.415 . S
C1520 C1525 1.425 . S
C1520 C1527 1.409 . S
C1521 H1513 0.930 . S
C1521 C1519 1.419 . S
C1521 C1522 1.362 . S
C1522 H1514 0.930 . S
C1522 C1521 1.362 . S
C1522 C1525 1.409 . S
C1523 H1515 0.930 . S
C1523 C1524 1.355 . S
C1523 C1525 1.415 . S
C1524 C1523 1.355 . S
C1524 C1526 1.419 . S
C1525 C1520 1.425 . S
C1525 C1522 1.409 . S
C1525 C1523 1.415 . S
C1526 H1516 0.930 . S
C1526 C1524 1.419 . S
C1526 C1527 1.362 . S
C1527 H1517 0.930 . S
C1527 C1520 1.409 . S
C1527 C1526 1.362 . S
H1528 C1534 0.930 . S
H1529 C1537 0.930 . S
H1530 C1538 0.930 . S
H1531 C1539 0.930 . S
H1532 C1542 0.930 . S
H1533 C1543 0.930 . S
C1534 H1528 0.930 . S
C1534 C1535 1.355 . S
C1534 C1536 1.415 . S
C1535 C1534 1.355 . S
C1535 C1537 1.419 . S
C1536 C1534 1.415 . S
C1536 C1541 1.425 . S
C1536 C1543 1.409 . S
C1537 H1529 0.930 . S
C1537 C1535 1.419 . S
C1537 C1538 1.362 . S
C1538 H1530 0.930 . S
C1538 C1537 1.362 . S
C1538 C1541 1.409 . S
C1539 H1531 0.930 . S
C1539 C1540 1.355 . S
C1539 C1541 1.415 . S
C1540 C1539 1.355 . S
C1540 C1542 1.419 . S
C1541 C1536 1.425 . S
C1541 C1538 1.409 . S
C1541 C1539 1.415 . S
C1542 H1532 0.930 . S
C1542 C1540 1.419 . S
C1542 C1543 1.362 . S
C1543 H1533 0.930 . S
C1543 C1536 1.409 . S
C1543 C1542 1.362 . S
H1544 C1550 0.930 . S
H1545 C1553 0.930 . S
H1546 C1554 0.930 . S
H1547 C1555 0.930 . S
H1548 C1558 0.930 . S
H1549 C1559 0.930 . S
C1550 H1544 0.930 . S
C1550 C1551 1.355 . S
C1550 C1552 1.415 . S
C1551 C1550 1.355 . S
C1551 C1553 1.419 . S
C1552 C1550 1.415 . S
C1552 C1557 1.425 . S
C1552 C1559 1.409 . S
C1553 H1545 0.930 . S
C1553 C1551 1.419 . S
C1553 C1554 1.362 . S
C1554 H1546 0.930 . S
C1554 C1553 1.362 . S
C1554 C1557 1.409 . S
C1555 H1547 0.930 . S
C1555 C1556 1.355 . S
C1555 C1557 1.415 . S
C1556 C1555 1.355 . S
C1556 C1558 1.419 . S
C1557 C1552 1.425 . S
C1557 C1554 1.409 . S
C1557 C1555 1.415 . S
C1558 H1548 0.930 . S
C1558 C1556 1.419 . S
C1558 C1559 1.362 . S
C1559 H1549 0.930 . S
C1559 C1552 1.409 . S
C1559 C1558 1.362 . S
H1560 C1566 0.930 1_655 S
H1561 C1569 0.930 . S
H1562 C1570 0.930 . S
H1563 C1571 0.930 1_455 S
H1564 C1574 0.930 . S
H1565 C1575 0.930 . S
C1566 H1560 0.930 1_455 S
C1566 C1567 1.355 . S
C1566 C1568 1.415 1_455 S
C1567 C1566 1.355 . S
C1567 C1569 1.419 . S
C1568 C1566 1.415 1_655 S
C1568 C1573 1.425 1_655 S
C1568 C1575 1.409 . S
C1569 H1561 0.930 . S
C1569 C1567 1.419 . S
C1569 C1570 1.362 . S
C1570 H1562 0.930 . S
C1570 C1569 1.362 . S
C1570 C1573 1.409 . S
C1571 H1563 0.930 1_655 S
C1571 C1572 1.355 . S
C1571 C1573 1.415 1_655 S
C1572 C1571 1.355 . S
C1572 C1574 1.419 . S
C1573 C1568 1.425 1_455 S
C1573 C1570 1.409 . S
C1573 C1571 1.415 1_455 S
C1574 H1564 0.930 . S
C1574 C1572 1.419 . S
C1574 C1575 1.362 . S
C1575 H1565 0.930 . S
C1575 C1568 1.409 . S
C1575 C1574 1.362 . S
H1576 C1582 0.930 . S
H1577 C1585 0.930 . S
H1578 C1586 0.930 . S
H1579 C1587 0.930 . S
H1580 C1590 0.930 . S
H1581 C1591 0.930 . S
C1582 H1576 0.930 . S
C1582 C1583 1.355 . S
C1582 C1584 1.415 . S
C1583 C1582 1.355 . S
C1583 C1585 1.419 . S
C1584 C1582 1.415 . S
C1584 C1589 1.425 . S
C1584 C1591 1.409 . S
C1585 H1577 0.930 . S
C1585 C1583 1.419 . S
C1585 C1586 1.362 . S
C1586 H1578 0.930 . S
C1586 C1585 1.362 . S
C1586 C1589 1.409 . S
C1587 H1579 0.930 . S
C1587 C1588 1.355 . S
C1587 C1589 1.415 . S
C1588 C1587 1.355 . S
C1588 C1590 1.419 . S
C1589 C1584 1.425 . S
C1589 C1586 1.409 . S
C1589 C1587 1.415 . S
C1590 H1580 0.930 . S
C1590 C1588 1.419 . S
C1590 C1591 1.362 . S
C1591 H1581 0.930 . S
C1591 C1584 1.409 . S
C1591 C1590 1.362 . S
H1592 C1598 0.930 . S
H1593 C1601 0.929 . S
H1594 C1602 0.930 . S
H1595 C1603 0.930 . S
H1596 C1606 0.948 . S
H1597 C1607 0.930 . S
C1598 H1592 0.930 . S
C1598 C1599 1.355 . S
C1598 C1600 1.415 . S
C1599 C1598 1.355 . S
C1599 C1601 1.419 . S
C1600 C1598 1.415 . S
C1600 C1605 1.425 1_545 S
C1600 C1607 1.409 . S
C1601 H1593 0.929 . S
C1601 C1599 1.419 . S
C1601 C1602 1.362 1_545 S
C1602 H1594 0.930 . S
C1602 C1601 1.362 1_565 S
C1602 C1605 1.409 . S
C1603 H1595 0.930 . S
C1603 C1604 1.355 . S
C1603 C1605 1.415 . S
C1604 C1603 1.355 . S
C1604 C1606 1.419 . S
C1605 C1600 1.425 1_565 S
C1605 C1602 1.409 . S
C1605 C1603 1.415 . S
C1606 H1596 0.948 . S
C1606 C1604 1.419 . S
C1606 C1607 1.362 1_565 S
C1607 H1597 0.930 . S
C1607 C1600 1.409 . S
C1607 C1606 1.362 1_545 S
H1608 C1614 0.930 . S
H1609 C1617 0.930 . S
H1610 C1618 0.930 . S
H1611 C1619 0.930 . S
H1612 C1622 0.930 . S
H1613 C1623 0.930 . S
C1614 H1608 0.930 . S
C1614 C1615 1.355 . S
C1614 C1616 1.415 . S
C1615 C1614 1.355 . S
C1615 C1617 1.419 . S
C1616 C1614 1.415 . S
C1616 C1621 1.425 1_565 S
C1616 C1623 1.409 1_565 S
C1617 H1609 0.930 . S
C1617 C1615 1.419 . S
C1617 C1618 1.362 . S
C1618 H1610 0.930 . S
C1618 C1617 1.362 . S
C1618 C1621 1.409 1_565 S
C1619 H1611 0.930 . S
C1619 C1620 1.355 . S
C1619 C1621 1.415 . S
C1620 C1619 1.355 . S
C1620 C1622 1.419 . S
C1621 C1616 1.425 1_545 S
C1621 C1618 1.409 1_545 S
C1621 C1619 1.415 . S
C1622 H1612 0.930 . S
C1622 C1620 1.419 . S
C1622 C1623 1.362 . S
C1623 H1613 0.930 . S
C1623 C1616 1.409 1_545 S
C1623 C1622 1.362 . S
H1624 C1630 0.930 1_455 S
H1625 C1633 0.930 . S
H1626 C1634 0.930 . S
H1627 C1635 0.930 1_655 S
H1628 C1638 0.930 . S
H1629 C1639 0.930 . S
C1630 H1624 0.930 1_655 S
C1630 C1631 1.355 . S
C1630 C1632 1.415 1_655 S
C1631 C1630 1.355 . S
C1631 C1633 1.419 . S
C1632 C1630 1.415 1_455 S
C1632 C1637 1.425 1_455 S
C1632 C1639 1.409 . S
C1633 H1625 0.930 . S
C1633 C1631 1.419 . S
C1633 C1634 1.362 . S
C1634 H1626 0.930 . S
C1634 C1633 1.362 . S
C1634 C1637 1.409 . S
C1635 H1627 0.930 1_455 S
C1635 C1636 1.355 . S
C1635 C1637 1.415 1_455 S
C1636 C1635 1.355 . S
C1636 C1638 1.419 . S
C1637 C1632 1.425 1_655 S
C1637 C1634 1.409 . S
C1637 C1635 1.415 1_655 S
C1638 H1628 0.930 . S
C1638 C1636 1.419 . S
C1638 C1639 1.362 . S
C1639 H1629 0.930 . S
C1639 C1632 1.409 . S
C1639 C1638 1.362 . S
H1640 C1646 0.930 . S
H1641 C1649 0.930 . S
H1642 C1650 0.930 . S
H1643 C1651 0.930 . S
H1644 C1654 0.930 . S
H1645 C1655 0.930 . S
C1646 H1640 0.930 . S
C1646 C1647 1.355 . S
C1646 C1648 1.415 . S
C1647 C1646 1.355 . S
C1647 C1649 1.419 . S
C1648 C1646 1.415 . S
C1648 C1653 1.425 . S
C1648 C1655 1.409 . S
C1649 H1641 0.930 . S
C1649 C1647 1.419 . S
C1649 C1650 1.362 . S
C1650 H1642 0.930 . S
C1650 C1649 1.362 . S
C1650 C1653 1.409 . S
C1651 H1643 0.930 . S
C1651 C1652 1.355 . S
C1651 C1653 1.415 . S
C1652 C1651 1.355 . S
C1652 C1654 1.419 . S
C1653 C1648 1.425 . S
C1653 C1650 1.409 . S
C1653 C1651 1.415 . S
C1654 H1644 0.930 . S
C1654 C1652 1.419 . S
C1654 C1655 1.362 . S
C1655 H1645 0.930 . S
C1655 C1648 1.409 . S
C1655 C1654 1.362 . S
C511 C76 1.613 . S
C516 C6 1.593 . S
C527 C20 1.582 . S
C532 C48 1.601 . S
C543 C62 1.399 . S
C548 C34 1.426 . S
C559 C90 1.581 . S
C564 C160 1.563 . S
C575 C104 1.564 . S
C580 C132 1.544 . S
C591 C146 1.392 . S
C596 C118 1.407 . S
C607 C244 1.331 . S
C612 C174 1.397 . S
C623 C188 1.484 . S
C628 C216 1.510 . S
C639 C230 1.341 . S
C644 C202 1.372 . S
C655 C258 1.499 . S
C660 C328 1.475 . S
C671 C272 1.393 . S
C676 C300 1.425 . S
C687 C286 1.369 . S
C692 C314 1.372 . S
C703 C342 1.533 . S
C708 C412 1.519 . S
C719 C384 1.386 . S
C724 C356 1.324 . S
C735 C370 1.370 . S
C740 C398 1.417 . S
C751 C426 1.419 . S
C756 C496 1.406 . S
C767 C440 1.502 . S
C772 C468 1.473 . S
C783 C454 1.369 . S
C788 C482 1.346 . S
C799 C147 2.187 . S
C804 C9 2.091 . S
C815 C161 2.137 . S
C820 C23 2.021 . S
C831 C133 2.098 . S
C836 C37 2.017 . S
C847 C119 2.205 . S
C852 C51 2.110 . S
C863 C65 2.029 . S
C868 C91 2.084 . S
C879 C79 2.001 . S
C884 C105 2.114 . S
C895 C93 2.121 . S
C900 C63 2.169 . S
C911 C107 2.034 . S
C916 C77 2.142 . S
C927 C121 2.030 . S
C932 C49 2.103 . S
C943 C35 2.171 . S
C948 C135 2.123 . S
C959 C7 2.147 . S
C964 C149 2.074 . S
C975 C163 1.950 . S
C980 C21 2.079 . S
C991 C177 1.649 . S
C996 C315 1.772 . S
C1007 C191 2.201 . S
C1012 C329 2.258 . S
C1023 C301 1.751 . S
C1028 C205 1.590 . S
C1039 C219 1.987 . S
C1044 C287 2.049 1_556 S
C1055 C233 2.140 . S
C1060 C259 2.171 1_556 S
C1071 C247 2.022 . S
C1076 C273 2.017 . S
C1087 C261 2.047 . S
C1092 C231 2.098 . S
C1103 C245 2.054 . S
C1108 C275 2.073 . S
C1119 C217 2.172 . S
C1124 C289 2.187 . S
C1135 C303 1.398 . S
C1140 C203 1.566 . S
C1151 C175 1.530 . S
C1156 C317 1.449 . S
C1167 C189 2.259 . S
C1172 C331 2.200 . S
C1183 C483 2.113 . S
C1188 C345 2.018 . S
C1199 C359 2.063 . S
C1204 C497 2.049 . S
C1215 C373 2.195 . S
C1220 C469 2.181 . S
C1231 C455 1.581 . S
C1236 C387 1.398 . S
C1247 C427 1.546 . S
C1252 C401 1.384 . S
C1263 C441 2.249 . S
C1268 C415 2.198 . S
C1279 C429 1.598 . S
C1284 C399 1.788 . S
C1295 C413 2.249 . S
C1300 C443 2.200 . S
C1311 C457 1.606 . S
C1316 C385 1.727 . S
C1327 C371 2.050 1_554 S
C1332 C471 1.972 . S
C1343 C343 2.166 1_554 S
C1348 C485 2.178 . S
C1359 C357 2.024 . S
C1364 C499 2.039 . S
C1375 C232 1.925 . S
C1380 C8 1.891 1_556 S
C1391 C22 1.874 1_556 S
C1396 C246 1.862 . S
C1407 C218 2.105 . S
C1412 C36 2.098 1_556 S
C1423 C372 1.933 . S
C1428 C50 1.900 . S
C1439 C64 2.096 . S
C1444 C344 2.074 . S
C1455 C78 1.879 . S
C1460 C358 1.876 . S
C1471 C92 1.910 1_554 S
C1476 C484 1.936 . S
C1487 C498 1.784 . S
C1492 C106 1.828 1_554 S
C1503 C470 2.081 . S
C1508 C120 2.096 1_554 S
C1519 C288 1.858 . S
C1524 C134 1.852 . S
C1535 C148 2.087 . S
C1540 C260 2.087 . S
C1551 C162 1.940 . S
C1556 C274 1.868 . S
C1567 C176 1.003 . S
C1572 C400 0.970 . S
C1583 C414 2.188 . S
C1588 C190 2.163 . S
C1599 C386 0.866 . S
C1604 C204 0.886 . S
C1615 C302 0.967 . S
C1620 C456 0.933 . S
C1631 C428 1.048 . S
C1636 C316 1.030 . S
C1647 C442 2.172 . S
C1652 C330 2.156 . S
