# Generated by pormake.
# Topology uop, (4)-cn, num edge types: 1
# Building blocks:
#     Node 0, Type 0, BuildingBlock: KOZSID_clean_sbu_0, # of connection points: 4
#     Node 1, Type 0, BuildingBlock: KOZSID_clean_sbu_0, # of connection points: 4
#     Node 2, Type 0, BuildingBlock: KOZSID_clean_sbu_0, # of connection points: 4
#     Node 3, Type 0, BuildingBlock: KOZSID_clean_sbu_0, # of connection points: 4
#     Node 4, Type 0, BuildingBlock: KOZSID_clean_sbu_0, # of connection points: 4
#     Node 5, Type 0, BuildingBlock: KOZSID_clean_sbu_0, # of connection points: 4
#     Node 6, Type 0, BuildingBlock: KOZSID_clean_sbu_0, # of connection points: 4
#     Node 7, Type 0, BuildingBlock: KOZSID_clean_sbu_0, # of connection points: 4
#     Node 8, Type 0, BuildingBlock: KOZSID_clean_sbu_0, # of connection points: 4
#     Node 9, Type 0, BuildingBlock: KOZSID_clean_sbu_0, # of connection points: 4
#     Node 10, Type 0, BuildingBlock: KOZSID_clean_sbu_0, # of connection points: 4
#     Node 11, Type 0, BuildingBlock: KOZSID_clean_sbu_0, # of connection points: 4
#     Edge 12, Type (0, 0), BuildingBlock: ZUJKAS_clean_linker_0, # of connection points: 2
#     Edge 13, Type (0, 0), BuildingBlock: ZUJKAS_clean_linker_0, # of connection points: 2
#     Edge 14, Type (0, 0), BuildingBlock: ZUJKAS_clean_linker_0, # of connection points: 2
#     Edge 15, Type (0, 0), BuildingBlock: ZUJKAS_clean_linker_0, # of connection points: 2
#     Edge 16, Type (0, 0), BuildingBlock: ZUJKAS_clean_linker_0, # of connection points: 2
#     Edge 17, Type (0, 0), BuildingBlock: ZUJKAS_clean_linker_0, # of connection points: 2
#     Edge 18, Type (0, 0), BuildingBlock: ZUJKAS_clean_linker_0, # of connection points: 2
#     Edge 19, Type (0, 0), BuildingBlock: ZUJKAS_clean_linker_0, # of connection points: 2
#     Edge 20, Type (0, 0), BuildingBlock: ZUJKAS_clean_linker_0, # of connection points: 2
#     Edge 21, Type (0, 0), BuildingBlock: ZUJKAS_clean_linker_0, # of connection points: 2
#     Edge 22, Type (0, 0), BuildingBlock: ZUJKAS_clean_linker_0, # of connection points: 2
#     Edge 23, Type (0, 0), BuildingBlock: ZUJKAS_clean_linker_0, # of connection points: 2
#     Edge 24, Type (0, 0), BuildingBlock: ZUJKAS_clean_linker_0, # of connection points: 2
#     Edge 25, Type (0, 0), BuildingBlock: ZUJKAS_clean_linker_0, # of connection points: 2
#     Edge 26, Type (0, 0), BuildingBlock: ZUJKAS_clean_linker_0, # of connection points: 2
#     Edge 27, Type (0, 0), BuildingBlock: ZUJKAS_clean_linker_0, # of connection points: 2
#     Edge 28, Type (0, 0), BuildingBlock: ZUJKAS_clean_linker_0, # of connection points: 2
#     Edge 29, Type (0, 0), BuildingBlock: ZUJKAS_clean_linker_0, # of connection points: 2
#     Edge 30, Type (0, 0), BuildingBlock: ZUJKAS_clean_linker_0, # of connection points: 2
#     Edge 31, Type (0, 0), BuildingBlock: ZUJKAS_clean_linker_0, # of connection points: 2
#     Edge 32, Type (0, 0), BuildingBlock: ZUJKAS_clean_linker_0, # of connection points: 2
#     Edge 33, Type (0, 0), BuildingBlock: ZUJKAS_clean_linker_0, # of connection points: 2
#     Edge 34, Type (0, 0), BuildingBlock: ZUJKAS_clean_linker_0, # of connection points: 2
#     Edge 35, Type (0, 0), BuildingBlock: ZUJKAS_clean_linker_0, # of connection points: 2
# Relax obj value: 0.066
# Max RMSD: 0.262
# Mean RMSD: 0.244
data_MOF--net-uop--node1-KOZSID_clean_sbu_0--edge1-ZUJKAS_clean_linker_0
_symmetry_space_group_name_H-M    P1
_symmetry_Int_Tables_number       1
_symmetry_cell_setting            triclinic
loop_
_symmetry_equiv_pos_as_xyz
'x, y, z'
_cell_length_a     49.752482
_cell_length_b     48.184713
_cell_length_c     81.550899
_cell_angle_alpha  90.060972
_cell_angle_beta   89.900346
_cell_angle_gamma 121.10386
loop_
_atom_site_label
_atom_site_type_symbol
_atom_site_fract_x
_atom_site_fract_y
_atom_site_fract_z
_atom_type_partial_charge
C0 C 0.33912 0.44062 0.21361 0.0
C1 C 0.3583 0.4346 0.20369 0.0
C2 C 0.34036 0.41658 0.19075 0.0
C3 C 0.31133 0.41244 0.19352 0.0
N4 N 0.30966 0.42666 0.20739 0.0
Co5 Co 0.27145 0.4254 0.21604 0.0
N6 N 0.24301 0.38902 0.20099 0.0
C7 C 0.25247 0.37812 0.18832 0.0
C8 C 0.22836 0.35374 0.17959 0.0
C9 C 0.20172 0.34917 0.18691 0.0
C10 C 0.21108 0.37116 0.19981 0.0
N11 N 0.23311 0.42468 0.22425 0.0
C12 C 0.20206 0.40457 0.22065 0.0
C13 C 0.18385 0.41489 0.22836 0.0
C14 C 0.20406 0.44288 0.23654 0.0
C15 C 0.23345 0.44809 0.2335 0.0
N16 N 0.30004 0.46122 0.23115 0.0
C17 C 0.29263 0.48032 0.23962 0.0
C18 C 0.31692 0.50282 0.24915 0.0
C19 C 0.34123 0.49761 0.2465 0.0
C20 C 0.33037 0.47213 0.23547 0.0
N21 N 0.27652 0.45782 0.19947 0.0
C22 C 0.27982 0.51107 0.18301 0.0
C23 C 0.3067 0.51331 0.18994 0.0
C24 C 0.30461 0.48644 0.19796 0.0
C25 C 0.25207 0.4806 0.18317 0.0
C26 C 0.25099 0.45444 0.19128 0.0
N27 N 0.26692 0.39425 0.23328 0.0
C28 C 0.26142 0.3815 0.26225 0.0
C29 C 0.27189 0.35977 0.2601 0.0
C30 C 0.27847 0.35459 0.24396 0.0
C31 C 0.27544 0.37169 0.23074 0.0
C32 C 0.25923 0.39835 0.24886 0.0
H33 H 0.28108 0.36746 0.21857 0.0
H34 H 0.25276 0.41598 0.25143 0.0
H35 H 0.32544 0.48951 0.20375 0.0
H36 H 0.22887 0.43204 0.19158 0.0
C37 C 0.28417 0.3906 0.1852 0.0
C38 C 0.35015 0.46059 0.22846 0.0
C39 C 0.18911 0.37775 0.20865 0.0
C40 C 0.26165 0.47346 0.23991 0.0
H41 H 0.38263 0.44206 0.20565 0.0
H42 H 0.34723 0.4063 0.18097 0.0
H43 H 0.22994 0.34116 0.16897 0.0
H44 H 0.17819 0.33256 0.18261 0.0
H45 H 0.15863 0.4039 0.22767 0.0
H46 H 0.19803 0.45774 0.24377 0.0
H47 H 0.31673 0.5203 0.25742 0.0
H48 H 0.36435 0.51112 0.25193 0.0
H49 H 0.32889 0.53611 0.18999 0.0
H50 H 0.23089 0.4771 0.17746 0.0
H51 H 0.25633 0.38679 0.27438 0.0
H52 H 0.28621 0.33769 0.24157 0.0
C53 C 0.9138 0.32801 0.55398 0.0
C54 C 0.93988 0.34782 0.54435 0.0
C55 C 0.94036 0.32889 0.53205 0.0
C56 C 0.91476 0.29868 0.53485 0.0
N57 N 0.89795 0.29711 0.54817 0.0
Co58 Co 0.85955 0.2572 0.55659 0.0
N59 N 0.86602 0.22799 0.54163 0.0
C60 C 0.88817 0.23784 0.52986 0.0
C61 C 0.88816 0.21298 0.5217 0.0
C62 C 0.86402 0.1854 0.52841 0.0
C63 C 0.85028 0.19504 0.54018 0.0
N64 N 0.8205 0.21699 0.5645 0.0
C65 C 0.80762 0.18497 0.56039 0.0
C66 C 0.77834 0.16608 0.5676 0.0
C67 C 0.77228 0.18669 0.57618 0.0
C68 C 0.79802 0.21703 0.57374 0.0
N69 N 0.85369 0.28651 0.57166 0.0
C70 C 0.82745 0.27812 0.58023 0.0
C71 C 0.82976 0.30309 0.58949 0.0
C72 C 0.85931 0.32901 0.58651 0.0
C73 C 0.87344 0.31839 0.57557 0.0
N74 N 0.83359 0.26244 0.53992 0.0
C75 C 0.78378 0.26608 0.52582 0.0
C76 C 0.81054 0.29386 0.53188 0.0
C77 C 0.83525 0.29162 0.53861 0.0
C78 C 0.78442 0.23732 0.52516 0.0
C79 C 0.80963 0.23614 0.53207 0.0
N80 N 0.88488 0.2529 0.57411 0.0
C81 C 0.891 0.24878 0.60332 0.0
C82 C 0.92339 0.26194 0.60165 0.0
C83 C 0.93573 0.26852 0.58563 0.0
C84 C 0.91607 0.26341 0.57206 0.0
C85 C 0.87242 0.24455 0.58958 0.0
H86 H 0.92653 0.26935 0.56003 0.0
H87 H 0.8482 0.23632 0.59183 0.0
H88 H 0.8546 0.31323 0.54384 0.0
H89 H 0.80841 0.21326 0.532 0.0
C90 C 0.90906 0.27057 0.52701 0.0
C91 C 0.90449 0.34003 0.56812 0.0
C92 C 0.82014 0.17205 0.54803 0.0
C93 C 0.80243 0.24595 0.58035 0.0
H94 H 0.95702 0.37327 0.5461 0.0
H95 H 0.95809 0.33596 0.52263 0.0
H96 H 0.90368 0.2147 0.51191 0.0
H97 H 0.85662 0.16094 0.52463 0.0
H98 H 0.76241 0.14025 0.56625 0.0
H99 H 0.75131 0.18035 0.58312 0.0
H100 H 0.81223 0.30244 0.59763 0.0
H101 H 0.86918 0.35311 0.59158 0.0
H102 H 0.81192 0.31704 0.53203 0.0
H103 H 0.76471 0.21525 0.5203 0.0
H104 H 0.8801 0.2434 0.61532 0.0
H105 H 0.9605 0.27808 0.58357 0.0
C106 C 0.6377 0.85066 0.94831 0.0
C107 C 0.63602 0.84066 0.96447 0.0
C108 C 0.61518 0.80792 0.96478 0.0
C109 C 0.60474 0.79966 0.94897 0.0
N110 N 0.61782 0.8252 0.93871 0.0
Co111 Co 0.6065 0.82461 0.91535 0.0
N112 N 0.56544 0.78389 0.9183 0.0
C113 C 0.55794 0.76284 0.93077 0.0
C114 C 0.5283 0.73617 0.92951 0.0
C115 C 0.5165 0.74045 0.91522 0.0
C116 C 0.53972 0.76968 0.90852 0.0
N117 N 0.59542 0.82385 0.89192 0.0
C118 C 0.56745 0.80578 0.8841 0.0
C119 C 0.57093 0.81212 0.86739 0.0
C120 C 0.60217 0.83441 0.86471 0.0
C121 C 0.6161 0.84056 0.87988 0.0
N122 N 0.64739 0.86551 0.91286 0.0
C123 C 0.66262 0.87791 0.89865 0.0
C124 C 0.68977 0.90745 0.90079 0.0
C125 C 0.69147 0.91385 0.91735 0.0
C126 C 0.66514 0.88789 0.92444 0.0
N127 N 0.62625 0.79911 0.90929 0.0
C128 C 0.65712 0.76878 0.89531 0.0
C129 C 0.67232 0.79432 0.90672 0.0
C130 C 0.65648 0.80891 0.91362 0.0
C131 C 0.62564 0.75813 0.89174 0.0
C132 C 0.61082 0.77333 0.8988 0.0
N133 N 0.58726 0.8505 0.92061 0.0
C134 C 0.5819 0.8961 0.91374 0.0
C135 C 0.56254 0.89052 0.92735 0.0
C136 C 0.55596 0.86429 0.93765 0.0
C137 C 0.56841 0.84446 0.93401 0.0
C138 C 0.5938 0.87603 0.91061 0.0
H139 H 0.56294 0.8244 0.94204 0.0
H140 H 0.60876 0.88162 0.90008 0.0
H141 H 0.66906 0.82884 0.92207 0.0
H142 H 0.5871 0.76489 0.89506 0.0
C143 C 0.57754 0.77095 0.94441 0.0
C144 C 0.65849 0.88406 0.94225 0.0
C145 C 0.53803 0.78063 0.89192 0.0
C146 C 0.64724 0.86471 0.88367 0.0
H147 H 0.64753 0.8552 0.97516 0.0
H148 H 0.60675 0.79254 0.97552 0.0
H149 H 0.51646 0.71626 0.93807 0.0
H150 H 0.49373 0.72341 0.91012 0.0
H151 H 0.55288 0.80139 0.85809 0.0
H152 H 0.61321 0.84531 0.85313 0.0
H153 H 0.70555 0.92331 0.89136 0.0
H154 H 0.70979 0.9352 0.92349 0.0
H155 H 0.6964 0.80324 0.91023 0.0
H156 H 0.61262 0.73892 0.88295 0.0
H157 H 0.58841 0.91635 0.90559 0.0
H158 H 0.54104 0.85887 0.94831 0.0
C159 C 0.6883 0.57874 0.21492 0.0
C160 C 0.66988 0.58639 0.20538 0.0
C161 C 0.6886 0.60591 0.19302 0.0
C162 C 0.71733 0.60931 0.19572 0.0
N163 N 0.71808 0.59316 0.20902 0.0
Co164 Co 0.75563 0.59291 0.21748 0.0
N165 N 0.78503 0.63059 0.20333 0.0
C166 C 0.77646 0.64358 0.19128 0.0
C167 C 0.80123 0.66897 0.18334 0.0
C168 C 0.82734 0.67201 0.19053 0.0
C169 C 0.81699 0.64808 0.20247 0.0
N170 N 0.79336 0.59211 0.22541 0.0
C171 C 0.82455 0.6118 0.22191 0.0
C172 C 0.84209 0.59998 0.22887 0.0
C173 C 0.82131 0.57158 0.23658 0.0
C174 C 0.79228 0.5676 0.23396 0.0
N175 N 0.72614 0.55586 0.23177 0.0
C176 C 0.73294 0.53581 0.23973 0.0
C177 C 0.70815 0.51261 0.24876 0.0
C178 C 0.68414 0.51832 0.2463 0.0
C179 C 0.69566 0.54479 0.23589 0.0
N180 N 0.75064 0.56185 0.20007 0.0
C181 C 0.7475 0.50908 0.18313 0.0
C182 C 0.72047 0.50679 0.18995 0.0
C183 C 0.72249 0.53346 0.19818 0.0
C184 C 0.77528 0.53952 0.1835 0.0
C185 C 0.77626 0.56548 0.19182 0.0
N186 N 0.75987 0.62248 0.23558 0.0
C187 C 0.76307 0.63123 0.26492 0.0
C188 C 0.75184 0.6525 0.26359 0.0
C189 C 0.74708 0.66033 0.24763 0.0
C190 C 0.75143 0.64528 0.23383 0.0
C191 C 0.76677 0.61661 0.25097 0.0
H192 H 0.74655 0.65104 0.22185 0.0
H193 H 0.77368 0.59915 0.25291 0.0
H194 H 0.70154 0.53027 0.2039 0.0
H195 H 0.79836 0.58784 0.1923 0.0
C196 C 0.745 0.632 0.18802 0.0
C197 C 0.6763 0.55702 0.22913 0.0
C198 C 0.83819 0.6397 0.21061 0.0
C199 C 0.76371 0.54207 0.23995 0.0
H200 H 0.64556 0.57907 0.20725 0.0
H201 H 0.68244 0.61765 0.1837 0.0
H202 H 0.8004 0.68326 0.17334 0.0
H203 H 0.85128 0.68896 0.18683 0.0
H204 H 0.86719 0.61027 0.22794 0.0
H205 H 0.82672 0.55557 0.24316 0.0
H206 H 0.70778 0.49422 0.25654 0.0
H207 H 0.66074 0.50444 0.25142 0.0
H208 H 0.69823 0.48407 0.18981 0.0
H209 H 0.79656 0.5431 0.17785 0.0
H210 H 0.76831 0.62509 0.27678 0.0
H211 H 0.73872 0.67684 0.24578 0.0
C212 C 0.1163 0.69957 0.55152 0.0
C213 C 0.09035 0.68002 0.54179 0.0
C214 C 0.09053 0.69904 0.52936 0.0
C215 C 0.11634 0.72908 0.53221 0.0
N216 N 0.1326 0.73046 0.54569 0.0
Co217 Co 0.17096 0.77012 0.55426 0.0
N218 N 0.16521 0.79965 0.5392 0.0
C219 C 0.14397 0.78997 0.527 0.0
C220 C 0.14517 0.81497 0.51837 0.0
C221 C 0.16909 0.84245 0.52527 0.0
C222 C 0.18131 0.83263 0.53774 0.0
N223 N 0.21004 0.81003 0.5623 0.0
C224 C 0.22312 0.84209 0.55831 0.0
C225 C 0.2522 0.86084 0.56567 0.0
C226 C 0.25803 0.84003 0.5742 0.0
C227 C 0.23228 0.80975 0.5716 0.0
N228 N 0.17616 0.74057 0.56941 0.0
C229 C 0.20218 0.74868 0.57809 0.0
C230 C 0.19936 0.72362 0.58745 0.0
C231 C 0.16972 0.69794 0.58441 0.0
C232 C 0.15603 0.70878 0.57334 0.0
N233 N 0.19708 0.76469 0.53772 0.0
C234 C 0.24689 0.76104 0.52355 0.0
C235 C 0.22009 0.7332 0.52956 0.0
C236 C 0.1954 0.73548 0.5364 0.0
C237 C 0.24633 0.78984 0.52302 0.0
C238 C 0.22111 0.791 0.52992 0.0
N239 N 0.14541 0.77463 0.57162 0.0
C240 C 0.13877 0.77823 0.6008 0.0
C241 C 0.1063 0.76454 0.59909 0.0
C242 C 0.09433 0.75875 0.583 0.0
C243 C 0.11427 0.76421 0.56946 0.0
C244 C 0.15763 0.78293 0.58711 0.0
H245 H 0.10405 0.7584 0.55739 0.0
H246 H 0.1819 0.79151 0.58941 0.0
H247 H 0.17608 0.71392 0.54171 0.0
H248 H 0.22233 0.81387 0.52984 0.0
C249 C 0.12288 0.75727 0.52414 0.0
C250 C 0.12509 0.68736 0.56577 0.0
C251 C 0.21071 0.8554 0.54619 0.0
C252 C 0.22744 0.78072 0.57826 0.0
H253 H 0.07286 0.65467 0.54353 0.0
H254 H 0.07313 0.69214 0.5198 0.0
H255 H 0.13065 0.81338 0.50811 0.0
H256 H 0.17743 0.86694 0.52115 0.0
H257 H 0.26802 0.88674 0.56451 0.0
H258 H 0.27876 0.84622 0.58129 0.0
H259 H 0.2166 0.72406 0.59569 0.0
H260 H 0.15951 0.67384 0.58952 0.0
H261 H 0.21897 0.71016 0.53001 0.0
H262 H 0.26582 0.81175 0.51788 0.0
H263 H 0.14969 0.78447 0.61277 0.0
H264 H 0.06951 0.74861 0.58085 0.0
C265 C 0.38746 0.15943 0.94719 0.0
C266 C 0.38416 0.16711 0.96317 0.0
C267 C 0.40315 0.20014 0.9646 0.0
C268 C 0.41685 0.2107 0.94945 0.0
N269 N 0.40746 0.18638 0.93862 0.0
Co270 Co 0.42188 0.1904 0.91565 0.0
N271 N 0.46083 0.23233 0.92027 0.0
C272 C 0.46524 0.25163 0.93323 0.0
C273 C 0.49389 0.27986 0.93304 0.0
C274 C 0.50827 0.27849 0.91899 0.0
C275 C 0.48752 0.24929 0.91132 0.0
N276 N 0.43604 0.19476 0.89255 0.0
C277 C 0.46454 0.21524 0.88569 0.0
C278 C 0.46345 0.2105 0.86886 0.0
C279 C 0.43314 0.18684 0.86511 0.0
C280 C 0.41733 0.17825 0.87981 0.0
N281 N 0.38303 0.14813 0.91159 0.0
C282 C 0.36995 0.13634 0.89689 0.0
C283 C 0.3443 0.10535 0.89801 0.0
C284 C 0.34136 0.09737 0.91443 0.0
C285 C 0.36542 0.12397 0.92244 0.0
N286 N 0.39995 0.21367 0.90957 0.0
C287 C 0.36699 0.24144 0.89548 0.0
C288 C 0.35175 0.214 0.90572 0.0
C289 C 0.36865 0.20081 0.91278 0.0
C290 C 0.39938 0.25528 0.89314 0.0
C291 C 0.41521 0.24115 0.90015 0.0
N292 N 0.44326 0.16665 0.92095 0.0
C293 C 0.45278 0.12398 0.91352 0.0
C294 C 0.46935 0.12806 0.92805 0.0
C295 C 0.47261 0.15217 0.93905 0.0
C296 C 0.4596 0.17139 0.93521 0.0
C297 C 0.4401 0.14326 0.91025 0.0
H298 H 0.46241 0.18978 0.9438 0.0
H299 H 0.42704 0.13856 0.89907 0.0
H300 H 0.35613 0.1795 0.9204 0.0
H301 H 0.43971 0.25191 0.89726 0.0
C302 C 0.4435 0.24092 0.94613 0.0
C303 C 0.37083 0.12662 0.94033 0.0
C304 C 0.49214 0.24095 0.89458 0.0
C305 C 0.38659 0.15194 0.8825 0.0
H306 H 0.36996 0.15053 0.97282 0.0
H307 H 0.40794 0.21439 0.97566 0.0
H308 H 0.50335 0.29904 0.9421 0.0
H309 H 0.53099 0.29745 0.91464 0.0
H310 H 0.48245 0.22305 0.86016 0.0
H311 H 0.42401 0.17656 0.85315 0.0
H312 H 0.33055 0.08963 0.88802 0.0
H313 H 0.3239 0.07455 0.91983 0.0
H314 H 0.32687 0.20261 0.90819 0.0
H315 H 0.4124 0.27624 0.8853 0.0
H316 H 0.4489 0.10535 0.90476 0.0
H317 H 0.4853 0.15635 0.95044 0.0
C318 C 0.60087 0.69772 0.4622 0.0
C319 C 0.60511 0.67757 0.47268 0.0
C320 C 0.62378 0.69657 0.48518 0.0
C321 C 0.62965 0.72704 0.48176 0.0
N322 N 0.6158 0.72866 0.46791 0.0
Co323 Co 0.61779 0.76843 0.4591 0.0
N324 N 0.6532 0.79775 0.47411 0.0
C325 C 0.66488 0.78796 0.48619 0.0
C326 C 0.68974 0.81287 0.49431 0.0
C327 C 0.69377 0.84041 0.48724 0.0
C328 C 0.67067 0.83072 0.47535 0.0
N329 N 0.6193 0.80857 0.45087 0.0
C330 C 0.63837 0.84062 0.45492 0.0
C331 C 0.62811 0.85943 0.44753 0.0
C332 C 0.60159 0.83873 0.43889 0.0
C333 C 0.59693 0.80842 0.44147 0.0
N334 N 0.58297 0.73897 0.44397 0.0
C335 C 0.56542 0.74727 0.43511 0.0
C336 C 0.54362 0.72241 0.42548 0.0
C337 C 0.54758 0.69672 0.42849 0.0
C338 C 0.57154 0.70729 0.4399 0.0
N339 N 0.58632 0.76362 0.47554 0.0
C340 C 0.53317 0.76056 0.48978 0.0
C341 C 0.5318 0.73259 0.48374 0.0
C342 C 0.5586 0.73458 0.47686 0.0
C343 C 0.56267 0.78922 0.49024 0.0
C344 C 0.58891 0.79009 0.48331 0.0
N345 N 0.6477 0.7722 0.44181 0.0
C346 C 0.65844 0.77591 0.41266 0.0
C347 C 0.67668 0.76166 0.41447 0.0
C348 C 0.68179 0.75479 0.43055 0.0
C349 C 0.66755 0.76071 0.44403 0.0
C350 C 0.64431 0.78085 0.42629 0.0
H351 H 0.67149 0.7545 0.45611 0.0
H352 H 0.62895 0.7898 0.42391 0.0
H353 H 0.55609 0.71291 0.47152 0.0
H354 H 0.61071 0.81283 0.48341 0.0
C355 C 0.65217 0.75522 0.48953 0.0
C356 C 0.58157 0.68613 0.44733 0.0
C357 C 0.6636 0.85366 0.46739 0.0
C358 C 0.57259 0.77943 0.43482 0.0
H359 H 0.59588 0.65183 0.47143 0.0
H360 H 0.63307 0.68928 0.49519 0.0
H361 H 0.70305 0.81122 0.50435 0.0
H362 H 0.71087 0.8649 0.49096 0.0
H363 H 0.63797 0.88526 0.4488 0.0
H364 H 0.58711 0.845 0.4318 0.0
H365 H 0.52735 0.7231 0.41694 0.0
H366 H 0.53425 0.67293 0.42299 0.0
H367 H 0.50976 0.70966 0.48331 0.0
H368 H 0.56532 0.81122 0.49539 0.0
H369 H 0.65347 0.78157 0.4006 0.0
H370 H 0.69623 0.74437 0.43271 0.0
C371 C 0.8988 0.56679 0.80392 0.0
C372 C 0.92315 0.57285 0.81453 0.0
C373 C 0.93106 0.60064 0.82285 0.0
C374 C 0.91128 0.61011 0.81698 0.0
N375 N 0.89077 0.58968 0.80571 0.0
Co376 Co 0.859 0.59585 0.79401 0.0
N377 N 0.86433 0.62997 0.8097 0.0
C378 C 0.88901 0.64712 0.81969 0.0
C379 C 0.88643 0.66926 0.82911 0.0
C380 C 0.85822 0.66571 0.82487 0.0
C381 C 0.84509 0.64137 0.81313 0.0
N382 N 0.82674 0.60207 0.78296 0.0
C383 C 0.80992 0.61501 0.78893 0.0
C384 C 0.78853 0.61287 0.77738 0.0
C385 C 0.79228 0.59831 0.76376 0.0
C386 C 0.81561 0.59222 0.76773 0.0
N387 N 0.85426 0.56231 0.77803 0.0
C388 C 0.84009 0.55695 0.76331 0.0
C389 C 0.84207 0.53413 0.75417 0.0
C390 C 0.85916 0.52509 0.76353 0.0
C391 C 0.86689 0.54307 0.7779 0.0
N392 N 0.82528 0.56187 0.80771 0.0
C393 C 0.77475 0.5126 0.82591 0.0
C394 C 0.77324 0.51434 0.80885 0.0
C395 C 0.79846 0.53875 0.80009 0.0
C396 C 0.80261 0.536 0.83371 0.0
C397 C 0.82753 0.56058 0.82439 0.0
N398 N 0.8922 0.62889 0.77938 0.0
C399 C 0.90688 0.66952 0.75813 0.0
C400 C 0.92819 0.66176 0.75125 0.0
C401 C 0.93326 0.63979 0.75989 0.0
C402 C 0.91534 0.6239 0.77374 0.0
C403 C 0.88938 0.65306 0.77227 0.0
H404 H 0.91917 0.60595 0.77907 0.0
H405 H 0.87228 0.65859 0.77681 0.0
H406 H 0.79594 0.53881 0.78703 0.0
H407 H 0.84848 0.57856 0.83066 0.0
C408 C 0.91024 0.63698 0.82243 0.0
C409 C 0.8889 0.54353 0.79022 0.0
C410 C 0.81481 0.63048 0.8052 0.0
C411 C 0.82331 0.57206 0.75906 0.0
H412 H 0.93535 0.55978 0.81559 0.0
H413 H 0.94937 0.61273 0.83194 0.0
H414 H 0.90227 0.68479 0.8386 0.0
H415 H 0.84827 0.67918 0.82999 0.0
H416 H 0.77178 0.62066 0.77868 0.0
H417 H 0.77845 0.59144 0.75264 0.0
H418 H 0.83226 0.5251 0.74214 0.0
H419 H 0.86599 0.50794 0.75998 0.0
H420 H 0.75265 0.4966 0.80216 0.0
H421 H 0.80493 0.53568 0.8469 0.0
H422 H 0.90247 0.68685 0.75218 0.0
H423 H 0.9503 0.63381 0.75562 0.0
C424 C 0.23459 0.85969 0.06717 0.0
C425 C 0.22303 0.8511 0.05134 0.0
C426 C 0.20905 0.818 0.05037 0.0
C427 C 0.21287 0.80831 0.0656 0.0
N428 N 0.22816 0.83326 0.07605 0.0
Co429 Co 0.24 0.8307 0.09891 0.0
N430 N 0.23714 0.78873 0.0947 0.0
C431 C 0.22173 0.76864 0.08209 0.0
C432 C 0.22274 0.74074 0.08248 0.0
C433 C 0.23948 0.74323 0.09629 0.0
C434 C 0.24783 0.77268 0.10363 0.0
N435 N 0.25122 0.82787 0.12191 0.0
C436 C 0.25995 0.80806 0.12882 0.0
C437 C 0.26429 0.81358 0.14558 0.0
C438 C 0.25746 0.83715 0.14922 0.0
C439 C 0.2494 0.84487 0.13454 0.0
N440 N 0.24337 0.873 0.10257 0.0
C441 C 0.24276 0.88559 0.11716 0.0
C442 C 0.24798 0.91648 0.11568 0.0
C443 C 0.25224 0.92353 0.09915 0.0
C444 C 0.24945 0.89654 0.09145 0.0
N445 N 0.19517 0.80743 0.10576 0.0
C446 C 0.13518 0.7799 0.12087 0.0
C447 C 0.14604 0.80591 0.10973 0.0
C448 C 0.17595 0.81924 0.10232 0.0
C449 C 0.15451 0.76702 0.12337 0.0
C450 C 0.18397 0.78089 0.11578 0.0
N451 N 0.2848 0.85438 0.09282 0.0
C452 C 0.33761 0.89672 0.09944 0.0
C453 C 0.34892 0.89236 0.08456 0.0
C454 C 0.32734 0.86835 0.07381 0.0
C455 C 0.29541 0.84928 0.07828 0.0
C456 C 0.30578 0.87789 0.10323 0.0
H457 H 0.27926 0.83075 0.06993 0.0
H458 H 0.29817 0.88297 0.11458 0.0
H459 H 0.184 0.83986 0.09428 0.0
H460 H 0.19817 0.77067 0.11867 0.0
C461 C 0.20983 0.77843 0.06922 0.0
C462 C 0.25122 0.89288 0.07358 0.0
C463 C 0.26187 0.78224 0.12008 0.0
C464 C 0.2446 0.87087 0.13169 0.0
H465 H 0.22508 0.86707 0.04147 0.0
H466 H 0.1993 0.80315 0.03952 0.0
H467 H 0.21286 0.72111 0.07367 0.0
H468 H 0.24407 0.7249 0.10071 0.0
H469 H 0.27129 0.80157 0.15429 0.0
H470 H 0.25903 0.84796 0.16109 0.0
H471 H 0.25036 0.93274 0.1255 0.0
H472 H 0.2572 0.94597 0.09344 0.0
H473 H 0.13212 0.81679 0.10722 0.0
H474 H 0.14717 0.74642 0.13139 0.0
H475 H 0.35323 0.91525 0.10801 0.0
H476 H 0.33512 0.86412 0.06217 0.0
C477 C 0.44427 0.3282 0.4642 0.0
C478 C 0.44352 0.34821 0.47625 0.0
C479 C 0.41837 0.32907 0.48609 0.0
C480 C 0.40544 0.29849 0.4797 0.0
N481 N 0.4212 0.29681 0.46665 0.0
Co482 Co 0.41079 0.25637 0.45449 0.0
N483 N 0.38 0.22806 0.47158 0.0
C484 C 0.36714 0.23775 0.48309 0.0
C485 C 0.34617 0.2131 0.49307 0.0
C486 C 0.34585 0.18609 0.48764 0.0
C487 C 0.36692 0.19586 0.47467 0.0
N488 N 0.40064 0.21534 0.44302 0.0
C489 C 0.38677 0.18426 0.44879 0.0
C490 C 0.38568 0.16357 0.43663 0.0
C491 C 0.39888 0.18216 0.42283 0.0
C492 C 0.4075 0.2132 0.42728 0.0
N493 N 0.44091 0.28478 0.43718 0.0
C494 C 0.44272 0.27463 0.42203 0.0
C495 C 0.46298 0.29947 0.4119 0.0
C496 C 0.47415 0.32714 0.42108 0.0
C497 C 0.46011 0.31769 0.4364 0.0
N498 N 0.44515 0.25537 0.46599 0.0
C499 C 0.4984 0.25882 0.48037 0.0
C500 C 0.49182 0.25214 0.46368 0.0
C501 C 0.46548 0.2506 0.45682 0.0
C502 C 0.4768 0.26241 0.48994 0.0
C503 C 0.45032 0.26064 0.4825 0.0
N504 N 0.37735 0.25805 0.44188 0.0
C505 C 0.33722 0.23332 0.42087 0.0
C506 C 0.34479 0.26391 0.41484 0.0
C507 C 0.36669 0.29107 0.42379 0.0
C508 C 0.38232 0.28764 0.43714 0.0
C509 C 0.35324 0.23091 0.43458 0.0
H510 H 0.40022 0.30964 0.44262 0.0
H511 H 0.34735 0.20707 0.43857 0.0
H512 H 0.46203 0.24604 0.4439 0.0
H513 H 0.43444 0.26412 0.49002 0.0
C514 C 0.37984 0.27062 0.48623 0.0
C515 C 0.46297 0.34098 0.4491 0.0
C516 C 0.37304 0.17353 0.46538 0.0
C517 C 0.42628 0.24144 0.41811 0.0
H518 H 0.4586 0.37424 0.47731 0.0
H519 H 0.41038 0.33661 0.4966 0.0
H520 H 0.33383 0.21485 0.50359 0.0
H521 H 0.33193 0.16202 0.49279 0.0
H522 H 0.37643 0.1378 0.43759 0.0
H523 H 0.40287 0.17417 0.41116 0.0
H524 H 0.46877 0.29774 0.39928 0.0
H525 H 0.49001 0.35159 0.41682 0.0
H526 H 0.5071 0.24822 0.45579 0.0
H527 H 0.48073 0.26744 0.50294 0.0
H528 H 0.31966 0.21138 0.41479 0.0
H529 H 0.37354 0.31533 0.41989 0.0
C530 C 0.11804 0.43671 0.80169 0.0
C531 C 0.09253 0.42953 0.81164 0.0
C532 C 0.09246 0.41062 0.82411 0.0
C533 C 0.11767 0.40715 0.82105 0.0
N534 N 0.13379 0.42268 0.80744 0.0
Co535 Co 0.17127 0.42283 0.7985 0.0
N536 N 0.16359 0.38549 0.81273 0.0
C537 C 0.14272 0.37305 0.82516 0.0
C538 C 0.14262 0.34815 0.83325 0.0
C539 C 0.16531 0.34483 0.82578 0.0
C540 C 0.17817 0.3681 0.81346 0.0
N541 N 0.20953 0.42357 0.7901 0.0
C542 C 0.22112 0.4039 0.79335 0.0
C543 C 0.25007 0.41549 0.78588 0.0
C544 C 0.25742 0.4438 0.77818 0.0
C545 C 0.23259 0.44794 0.78127 0.0
N546 N 0.17817 0.4595 0.78415 0.0
C547 C 0.20469 0.47947 0.77588 0.0
C548 C 0.20258 0.50232 0.76684 0.0
C549 C 0.17283 0.4964 0.76961 0.0
C550 C 0.15841 0.47019 0.78021 0.0
N551 N 0.198 0.45426 0.8156 0.0
C552 C 0.24844 0.5075 0.8318 0.0
C553 C 0.22341 0.50962 0.82533 0.0
C554 C 0.19835 0.48272 0.81747 0.0
C555 C 0.24571 0.47704 0.83151 0.0
C556 C 0.22034 0.45085 0.82355 0.0
N557 N 0.14528 0.39291 0.78066 0.0
C558 C 0.13904 0.38386 0.75136 0.0
C559 C 0.10648 0.36325 0.75289 0.0
C560 C 0.09415 0.35576 0.76893 0.0
C561 C 0.11394 0.37061 0.78261 0.0
C562 C 0.15773 0.39833 0.76519 0.0
H563 H 0.10352 0.36516 0.79467 0.0
H564 H 0.18214 0.41542 0.76305 0.0
H565 H 0.18034 0.48574 0.81197 0.0
H566 H 0.22009 0.42848 0.82307 0.0
C567 C 0.12307 0.3848 0.82872 0.0
C568 C 0.1269 0.45764 0.78721 0.0
C569 C 0.20738 0.37623 0.80484 0.0
C570 C 0.22925 0.4733 0.77535 0.0
H571 H 0.07543 0.43676 0.80999 0.0
H572 H 0.0751 0.3993 0.83374 0.0
H573 H 0.12816 0.33442 0.84358 0.0
H574 H 0.17252 0.32819 0.82963 0.0
H575 H 0.26484 0.4051 0.78643 0.0
H576 H 0.27847 0.45959 0.77124 0.0
H577 H 0.22022 0.52054 0.75883 0.0
H578 H 0.16293 0.50993 0.76454 0.0
H579 H 0.22394 0.53237 0.82544 0.0
H580 H 0.26364 0.4736 0.83692 0.0
H581 H 0.15022 0.38968 0.73943 0.0
H582 H 0.06923 0.33971 0.77093 0.0
C583 C 0.79308 0.16413 0.06477 0.0
C584 C 0.8024 0.17384 0.04866 0.0
C585 C 0.81533 0.20673 0.0482 0.0
C586 C 0.81271 0.21539 0.06387 0.0
N587 N 0.799 0.18995 0.07418 0.0
Co588 Co 0.78753 0.19133 0.09736 0.0
N589 N 0.78907 0.23294 0.09396 0.0
C590 C 0.80357 0.25362 0.08144 0.0
C591 C 0.80159 0.28092 0.08235 0.0
C592 C 0.78514 0.27745 0.09644 0.0
C593 C 0.77795 0.24803 0.10339 0.0
N594 N 0.77677 0.19308 0.12063 0.0
C595 C 0.76772 0.21219 0.12811 0.0
C596 C 0.76415 0.20621 0.14486 0.0
C597 C 0.77175 0.18302 0.1479 0.0
C598 C 0.77949 0.17602 0.13291 0.0
N599 N 0.78533 0.1494 0.10028 0.0
C600 C 0.78675 0.13667 0.11467 0.0
C601 C 0.78318 0.10655 0.11282 0.0
C602 C 0.7792 0.1001 0.09625 0.0
C603 C 0.78043 0.12663 0.08886 0.0
N604 N 0.83255 0.21524 0.10381 0.0
C605 C 0.89255 0.24289 0.11894 0.0
C606 C 0.88152 0.21659 0.10794 0.0
C607 C 0.8518 0.20345 0.10041 0.0
C608 C 0.87337 0.25609 0.12116 0.0
C609 C 0.84379 0.24197 0.11371 0.0
N610 N 0.74258 0.16698 0.09167 0.0
C611 C 0.69026 0.12373 0.09852 0.0
C612 C 0.67819 0.1287 0.0841 0.0
C613 C 0.69917 0.15343 0.07345 0.0
C614 C 0.73124 0.17259 0.07757 0.0
C615 C 0.72222 0.14275 0.10199 0.0
H616 H 0.74688 0.19168 0.06931 0.0
H617 H 0.73044 0.13735 0.11301 0.0
H618 H 0.84386 0.18282 0.09238 0.0
H619 H 0.82955 0.25213 0.11664 0.0
C620 C 0.81507 0.24466 0.06811 0.0
C621 C 0.77912 0.13062 0.07095 0.0
C622 C 0.7646 0.2377 0.11992 0.0
C623 C 0.78495 0.15067 0.12947 0.0
H624 H 0.79942 0.15906 0.03807 0.0
H625 H 0.82325 0.22202 0.03741 0.0
H626 H 0.81054 0.30074 0.07367 0.0
H627 H 0.77992 0.29508 0.10127 0.0
H628 H 0.75715 0.21766 0.15393 0.0
H629 H 0.77093 0.17201 0.1596 0.0
H630 H 0.782 0.09046 0.12242 0.0
H631 H 0.77571 0.0784 0.09029 0.0
H632 H 0.89508 0.20526 0.10556 0.0
H633 H 0.88073 0.27707 0.12889 0.0
H634 H 0.67514 0.10465 0.107 0.0
H635 H 0.69081 0.15817 0.06216 0.0
H636 H 0.31125 0.77291 0.11619 0.0
H637 H 0.31677 0.72878 0.12753 0.0
H638 H 0.23096 0.69411 0.15484 0.0
H639 H 0.22539 0.73805 0.14343 0.0
H640 H 0.31885 0.70859 0.16069 0.0
H641 H 0.21434 0.61545 0.12665 0.0
H642 H 0.23357 0.65811 0.12191 0.0
H643 H 0.20755 0.64189 0.13921 0.0
C644 C 0.29402 0.75626 0.12491 0.0
C645 C 0.26818 0.75917 0.12915 0.0
C646 C 0.29707 0.73097 0.13132 0.0
C647 C 0.27407 0.70777 0.14189 0.0
C648 C 0.24882 0.71139 0.14657 0.0
H649 H 0.23407 0.52641 0.18623 0.0
H650 H 0.23424 0.57422 0.17626 0.0
C651 C 0.24583 0.73672 0.14021 0.0
C652 C 0.27578 0.67915 0.14751 0.0
H653 H 0.23686 0.59631 0.14572 0.0
C654 C 0.30101 0.68404 0.15737 0.0
C655 C 0.25256 0.64704 0.14316 0.0
C656 C 0.22559 0.64016 0.13203 0.0
C657 C 0.30315 0.65777 0.16336 0.0
C658 C 0.27981 0.62559 0.15908 0.0
C659 C 0.25477 0.62082 0.14907 0.0
C660 C 0.2803 0.59646 0.16515 0.0
C661 C 0.32989 0.66474 0.17468 0.0
C662 C 0.30598 0.59247 0.16212 0.0
C663 C 0.30595 0.56491 0.16783 0.0
C664 C 0.28003 0.54038 0.17653 0.0
C665 C 0.25426 0.54436 0.17936 0.0
C666 C 0.25438 0.57191 0.17373 0.0
H667 H 0.34045 0.68918 0.18032 0.0
H668 H 0.32195 0.64643 0.18463 0.0
H669 H 0.3485 0.66393 0.16757 0.0
H670 H 0.32597 0.61051 0.15517 0.0
H671 H 0.32605 0.56261 0.16521 0.0
H672 H 0.75891 0.29813 0.54151 0.0
H673 H 0.71042 0.29718 0.5354 0.0
H674 H 0.69383 0.23423 0.49418 0.0
H675 H 0.74234 0.23488 0.50031 0.0
H676 H 0.69179 0.31664 0.50964 0.0
H677 H 0.61046 0.18461 0.51725 0.0
H678 H 0.65108 0.20465 0.52341 0.0
H679 H 0.6404 0.194 0.50225 0.0
C680 C 0.74519 0.28431 0.53103 0.0
C681 C 0.75476 0.26661 0.52141 0.0
C682 C 0.71723 0.28361 0.52761 0.0
C683 C 0.69792 0.26514 0.51451 0.0
C684 C 0.7077 0.24795 0.50465 0.0
H685 H 0.55678 0.28975 0.46637 0.0
H686 H 0.60406 0.29148 0.4757 0.0
C687 C 0.73563 0.24848 0.50812 0.0
C688 C 0.66807 0.2646 0.51101 0.0
H689 H 0.58898 0.21411 0.50524 0.0
C690 C 0.66932 0.29418 0.50877 0.0
C691 C 0.63845 0.23541 0.51019 0.0
C692 C 0.63486 0.20289 0.51357 0.0
C693 C 0.6422 0.29536 0.5053 0.0
C694 C 0.61285 0.26612 0.50363 0.0
C695 C 0.6114 0.23656 0.50635 0.0
C696 C 0.58379 0.26567 0.49836 0.0
C697 C 0.64528 0.32807 0.50363 0.0
C698 C 0.55607 0.25007 0.50779 0.0
C699 C 0.52855 0.24867 0.50234 0.0
C700 C 0.52805 0.26248 0.48721 0.0
C701 C 0.55603 0.27847 0.47798 0.0
C702 C 0.58335 0.27984 0.48341 0.0
H703 H 0.66601 0.34705 0.51044 0.0
H704 H 0.64855 0.33515 0.49051 0.0
H705 H 0.624 0.32756 0.50821 0.0
H706 H 0.55567 0.23878 0.51934 0.0
H707 H 0.50745 0.23594 0.50971 0.0
H708 H 0.53069 0.7357 0.86916 0.0
H709 H 0.48126 0.69207 0.85751 0.0
H710 H 0.43081 0.73066 0.88214 0.0
H711 H 0.48034 0.77443 0.89367 0.0
H712 H 0.43138 0.64622 0.87626 0.0
H713 H 0.39119 0.71103 0.83647 0.0
H714 H 0.43121 0.72951 0.84356 0.0
H715 H 0.40118 0.72652 0.85701 0.0
C716 C 0.50917 0.7355 0.87156 0.0
C717 C 0.50942 0.7589 0.88197 0.0
C718 C 0.48087 0.71037 0.86505 0.0
C719 C 0.45216 0.7081 0.86876 0.0
C720 C 0.45257 0.73214 0.87875 0.0
H721 H 0.25499 0.55985 0.84941 0.0
H722 H 0.30372 0.60813 0.85856 0.0
C723 C 0.48089 0.75724 0.88531 0.0
C724 C 0.42178 0.67913 0.8634 0.0
H725 H 0.3546 0.6553 0.84149 0.0
C726 C 0.4147 0.64825 0.86857 0.0
C727 C 0.3997 0.68161 0.85353 0.0
C728 C 0.4062 0.7139 0.84718 0.0
C729 C 0.38626 0.61999 0.86433 0.0
C730 C 0.36433 0.62237 0.85425 0.0
C731 C 0.37127 0.6533 0.84918 0.0
C732 C 0.33448 0.593 0.84859 0.0
C733 C 0.37971 0.58791 0.87104 0.0
C734 C 0.33529 0.56846 0.83969 0.0
C735 C 0.30748 0.54082 0.83447 0.0
C736 C 0.27793 0.53694 0.83786 0.0
C737 C 0.27718 0.56186 0.84652 0.0
C738 C 0.3051 0.58954 0.8518 0.0
H739 H 0.39367 0.59115 0.88227 0.0
H740 H 0.35445 0.57178 0.87401 0.0
H741 H 0.38632 0.57568 0.86172 0.0
H742 H 0.35754 0.57081 0.83658 0.0
H743 H 0.30925 0.52274 0.82745 0.0
H744 H 0.70145 0.4576 0.16523 0.0
H745 H 0.70104 0.40899 0.1558 0.0
H746 H 0.79279 0.44551 0.17672 0.0
H747 H 0.79314 0.49361 0.18648 0.0
H748 H 0.74322 0.40334 0.13467 0.0
H749 H 0.74236 0.35417 0.19622 0.0
H750 H 0.73329 0.38554 0.19308 0.0
H751 H 0.77343 0.39542 0.19325 0.0
C752 C 0.72148 0.45524 0.16793 0.0
C753 C 0.74734 0.47977 0.17665 0.0
C754 C 0.72126 0.42742 0.16246 0.0
C755 C 0.74667 0.42319 0.16575 0.0
C756 C 0.77263 0.44779 0.17425 0.0
H757 H 0.80157 0.28287 0.14278 0.0
H758 H 0.7953 0.32637 0.15425 0.0
C759 C 0.77295 0.47561 0.17964 0.0
C760 C 0.74642 0.39347 0.16007 0.0
H761 H 0.75182 0.32922 0.17357 0.0
C762 C 0.7448 0.38697 0.14319 0.0
C763 C 0.74865 0.37208 0.17114 0.0
C764 C 0.74925 0.37689 0.18944 0.0
C765 C 0.74629 0.36039 0.13706 0.0
C766 C 0.74865 0.33903 0.14813 0.0
C767 C 0.74996 0.34539 0.16504 0.0
C768 C 0.7508 0.31065 0.14237 0.0
C769 C 0.74652 0.35621 0.11873 0.0
C770 C 0.72738 0.28644 0.13236 0.0
C771 C 0.73094 0.26151 0.12586 0.0
C772 C 0.7577 0.25989 0.12947 0.0
C773 C 0.78041 0.28317 0.14009 0.0
C774 C 0.77692 0.30817 0.14653 0.0
H775 H 0.75323 0.37903 0.11209 0.0
H776 H 0.76305 0.34823 0.11518 0.0
H777 H 0.72263 0.33748 0.11463 0.0
H778 H 0.70664 0.28723 0.12924 0.0
H779 H 0.71333 0.24413 0.11753 0.0
H780 H 0.48088 0.71357 0.50638 0.0
H781 H 0.43171 0.71225 0.51186 0.0
H782 H 0.46968 0.80571 0.48892 0.0
H783 H 0.51857 0.80705 0.48317 0.0
H784 H 0.42085 0.75711 0.52973 0.0
H785 H 0.38579 0.74773 0.46444 0.0
H786 H 0.41555 0.73956 0.47128 0.0
H787 H 0.42474 0.78063 0.46893 0.0
C788 C 0.47879 0.73384 0.50247 0.0
C789 C 0.50386 0.76042 0.49432 0.0
C790 C 0.45066 0.7331 0.50567 0.0
C791 C 0.44674 0.75866 0.5006 0.0
C792 C 0.47189 0.78547 0.49275 0.0
H793 H 0.30801 0.80727 0.53027 0.0
H794 H 0.35547 0.80574 0.52458 0.0
C795 C 0.50006 0.78635 0.48965 0.0
C796 C 0.41647 0.75743 0.5035 0.0
H797 H 0.35557 0.75709 0.48378 0.0
C798 C 0.40653 0.757 0.51968 0.0
C799 C 0.3975 0.75689 0.4904 0.0
C800 C 0.40619 0.75593 0.47277 0.0
C801 C 0.37869 0.75688 0.5231 0.0
C802 C 0.36026 0.7574 0.51001 0.0
C803 C 0.36977 0.75698 0.49383 0.0
C804 C 0.33124 0.75869 0.51291 0.0
C805 C 0.36905 0.75592 0.54074 0.0
C806 C 0.30172 0.73316 0.50783 0.0
C807 C 0.27438 0.73402 0.51099 0.0
C808 C 0.27598 0.76067 0.51911 0.0
C809 C 0.30576 0.78653 0.5238 0.0
C810 C 0.33298 0.78553 0.52074 0.0
H811 H 0.38121 0.74768 0.54906 0.0
H812 H 0.37524 0.78063 0.54459 0.0
H813 H 0.3433 0.73957 0.54223 0.0
H814 H 0.29976 0.71228 0.50165 0.0
H815 H 0.25198 0.7138 0.50707 0.0
H816 H 0.55186 0.25362 0.89934 0.0
H817 H 0.60101 0.29935 0.88847 0.0
H818 H 0.54778 0.32899 0.85944 0.0
H819 H 0.49882 0.28386 0.87064 0.0
H820 H 0.62669 0.31948 0.85778 0.0
H821 H 0.60402 0.41074 0.88508 0.0
H822 H 0.58091 0.36828 0.89022 0.0
H823 H 0.57324 0.3831 0.87163 0.0
C824 C 0.55075 0.26958 0.89038 0.0
C825 C 0.52151 0.26491 0.88566 0.0
C826 C 0.57883 0.29582 0.88423 0.0
C827 C 0.57832 0.31819 0.87335 0.0
C828 C 0.549 0.31264 0.86808 0.0
H829 H 0.71268 0.49192 0.82154 0.0
H830 H 0.66689 0.44523 0.83389 0.0
C831 C 0.52096 0.2865 0.87427 0.0
C832 C 0.60829 0.34764 0.86783 0.0
H833 H 0.64679 0.43056 0.86634 0.0
C834 C 0.63116 0.34377 0.85977 0.0
C835 C 0.61446 0.37952 0.8705 0.0
C836 C 0.59203 0.38577 0.87998 0.0
C837 C 0.65928 0.37061 0.85382 0.0
C838 C 0.66509 0.40241 0.85618 0.0
C839 C 0.64246 0.4063 0.86448 0.0
C840 C 0.6936 0.43181 0.84938 0.0
C841 C 0.68208 0.36463 0.84455 0.0
C842 C 0.72418 0.44068 0.85425 0.0
C843 C 0.75064 0.46765 0.84719 0.0
C844 C 0.74709 0.48625 0.83503 0.0
C845 C 0.7164 0.47793 0.83067 0.0
C846 C 0.6901 0.45121 0.83777 0.0
H847 H 0.67123 0.3389 0.84071 0.0
H848 H 0.69102 0.38024 0.83348 0.0
H849 H 0.70241 0.37067 0.85255 0.0
H850 H 0.72762 0.42659 0.86343 0.0
H851 H 0.77384 0.47327 0.85083 0.0
H852 H 0.6253 0.50984 0.21276 0.0
H853 H 0.57026 0.49404 0.21633 0.0
H854 H 0.59543 0.55495 0.25923 0.0
H855 H 0.65086 0.57198 0.25507 0.0
H856 H 0.52589 0.46495 0.23755 0.0
H857 H 0.55257 0.5915 0.23433 0.0
H858 H 0.5819 0.581 0.23049 0.0
H859 H 0.57165 0.58494 0.25121 0.0
C860 C 0.61891 0.51939 0.22311 0.0
C861 C 0.64232 0.54218 0.23362 0.0
C862 C 0.58742 0.51049 0.22512 0.0
C863 C 0.57841 0.52394 0.23778 0.0
C864 C 0.60162 0.54501 0.249 0.0
H865 H 0.374 0.44118 0.25321 0.0
H866 H 0.42918 0.45761 0.25762 0.0
C867 C 0.63327 0.55433 0.24682 0.0
C868 C 0.54504 0.51644 0.2388 0.0
H869 H 0.49994 0.5513 0.24006 0.0
C870 C 0.52031 0.48391 0.23814 0.0
C871 C 0.53732 0.541 0.23927 0.0
C872 C 0.56222 0.57655 0.23869 0.0
C873 C 0.48853 0.47531 0.23777 0.0
C874 C 0.4808 0.49982 0.23874 0.0
C875 C 0.50552 0.53234 0.23955 0.0
C876 C 0.44749 0.49249 0.23774 0.0
C877 C 0.46373 0.44002 0.23555 0.0
C878 C 0.43923 0.50816 0.22597 0.0
C879 C 0.40784 0.49953 0.22386 0.0
C880 C 0.38381 0.47485 0.23338 0.0
C881 C 0.39207 0.46036 0.24575 0.0
C882 C 0.42361 0.46937 0.24805 0.0
H883 H 0.47372 0.426 0.23026 0.0
H884 H 0.45349 0.42929 0.24767 0.0
H885 H 0.4446 0.43711 0.2274 0.0
H886 H 0.45692 0.52619 0.21789 0.0
H887 H 0.40206 0.51085 0.21413 0.0
H888 H 0.12213 0.63717 0.5485 0.0
H889 H 0.08449 0.57892 0.55168 0.0
H890 H 0.04668 0.59837 0.59485 0.0
H891 H 0.08373 0.65686 0.59123 0.0
H892 H 0.07162 0.53371 0.57326 0.0
H893 H 0.96732 0.54629 0.5698 0.0
H894 H 1.00644 0.57972 0.56582 0.0
H895 H 0.99268 0.56843 0.58658 0.0
C896 C 0.10604 0.62891 0.5588 0.0
C897 C 0.1059 0.65162 0.56961 0.0
C898 C 0.08435 0.59552 0.5606 0.0
C899 C 0.06184 0.58378 0.57328 0.0
C900 C 0.0629 0.60647 0.58463 0.0
H901 H 0.94875 0.37144 0.59218 0.0
H902 H 0.98585 0.43008 0.595 0.0
C903 C 0.08447 0.63997 0.58273 0.0
C904 C 0.03725 0.54805 0.57431 0.0
H905 H 0.9578 0.4939 0.57581 0.0
C906 C 0.04675 0.52512 0.57386 0.0
C907 C 1.00452 0.53627 0.57479 0.0
C908 C 0.99205 0.55891 0.5741 0.0
C909 C 0.02488 0.49134 0.57388 0.0
C910 C 0.99218 0.47957 0.57486 0.0
C911 C 0.98268 0.5025 0.5753 0.0
C912 C 0.96752 0.44382 0.57449 0.0
C913 C 0.03718 0.46867 0.57215 0.0
C914 C 0.94327 0.43154 0.56276 0.0
C915 C 0.92155 0.39806 0.56145 0.0
C916 C 0.92335 0.3758 0.57186 0.0
C917 C 0.9466 0.388 0.58408 0.0
C918 C 0.96819 0.42158 0.58549 0.0
H919 H 0.06118 0.48113 0.5668 0.0
H920 H 0.03841 0.45956 0.58444 0.0
H921 H 0.02158 0.44759 0.56427 0.0
H922 H 0.94182 0.4478 0.55413 0.0
H923 H 0.90416 0.38936 0.55178 0.0
H924 H 0.49882 0.10897 0.90642 0.0
H925 H 0.51426 0.06901 0.91041 0.0
H926 H 0.48634 0.05903 0.96117 0.0
H927 H 0.46954 0.09838 0.95705 0.0
H928 H 0.55669 0.06673 0.92949 0.0
H929 H 0.43793 0.96541 0.94666 0.0
H930 H 0.44443 1.00317 0.93849 0.0
H931 H 0.45326 1.00054 0.95959 0.0
C932 C 0.49576 0.09823 0.91846 0.0
C933 C 0.48242 0.10666 0.93135 0.0
C934 C 0.50481 0.07541 0.92075 0.0
C935 C 0.5009 0.06026 0.936 0.0
C936 C 0.48891 0.06964 0.94915 0.0
H937 H 0.55617 0.91513 0.95684 0.0
H938 H 0.54073 0.95566 0.96101 0.0
C939 C 0.47972 0.09255 0.94685 0.0
C940 C 0.50929 0.03464 0.93778 0.0
H941 H 0.47855 0.95383 0.94574 0.0
C942 C 0.53961 0.04216 0.9332 0.0
C943 C 0.48709 1.00235 0.94256 0.0
C944 C 0.45377 0.99217 0.94698 0.0
C945 C 0.54805 0.0184 0.93295 0.0
C946 C 0.52571 0.98611 0.93736 0.0
C947 C 0.49572 0.97865 0.94245 0.0
C948 C 0.5325 0.95954 0.93531 0.0
C949 C 0.58069 0.02773 0.92757 0.0
C950 C 0.53223 0.94764 0.91958 0.0
C951 C 0.54071 0.92439 0.91718 0.0
C952 C 0.54997 0.91247 0.93045 0.0
C953 C 0.54906 0.92354 0.94634 0.0
C954 C 0.54039 0.94685 0.94874 0.0
H955 H 0.59674 0.05444 0.92701 0.0
H956 H 0.59068 0.01741 0.93608 0.0
H957 H 0.57956 0.01756 0.9152 0.0
H958 H 0.52595 0.95682 0.90906 0.0
H959 H 0.54042 0.91604 0.90481 0.0
H960 H 0.52036 0.63534 0.44964 0.0
H961 H 0.5009 0.57708 0.44683 0.0
H962 H 0.59349 0.59942 0.43275 0.0
H963 H 0.61281 0.65761 0.43531 0.0
H964 H 0.50506 0.53772 0.41882 0.0
H965 H 0.56957 0.54025 0.47494 0.0
H966 H 0.56097 0.57156 0.4704 0.0
H967 H 0.59176 0.57034 0.45957 0.0
C968 C 0.53629 0.62784 0.44542 0.0
C969 C 0.56803 0.65119 0.44241 0.0
C970 C 0.52523 0.59447 0.44397 0.0
C971 C 0.54574 0.58361 0.43975 0.0
C972 C 0.57717 0.60697 0.43615 0.0
H973 H 0.52485 0.39018 0.44573 0.0
H974 H 0.54545 0.44853 0.44195 0.0
C975 C 0.58815 0.64028 0.43745 0.0
C976 C 0.53471 0.54805 0.43987 0.0
H977 H 0.54202 0.49062 0.4608 0.0
C978 C 0.51314 0.52742 0.42801 0.0
C979 C 0.54535 0.53441 0.45173 0.0
C980 C 0.56803 0.5551 0.46499 0.0
C981 C 0.50225 0.49387 0.42757 0.0
C982 C 0.51231 0.47998 0.43969 0.0
C983 C 0.53414 0.50081 0.45147 0.0
C984 C 0.49984 0.44399 0.44074 0.0
C985 C 0.48069 0.47391 0.41378 0.0
C986 C 0.46732 0.42146 0.44126 0.0
C987 C 0.45563 0.38814 0.44313 0.0
C988 C 0.47603 0.37623 0.44491 0.0
C989 C 0.50853 0.39852 0.44424 0.0
C990 C 0.52029 0.43196 0.4422 0.0
H991 H 0.48427 0.48907 0.40279 0.0
H992 H 0.48438 0.45389 0.41019 0.0
H993 H 0.45597 0.46335 0.41779 0.0
H994 H 0.45079 0.42967 0.44071 0.0
H995 H 0.43046 0.37168 0.44377 0.0
H996 H 0.89427 0.49698 0.80671 0.0
H997 H 0.93499 0.4831 0.80327 0.0
H998 H 0.97023 0.54521 0.76079 0.0
H999 H 0.93074 0.5605 0.76488 0.0
H1000 H 0.95222 0.45574 0.78195 0.0
H1001 H 0.04926 0.58343 0.78595 0.0
H1002 H 1.009 0.57154 0.78968 0.0
H1003 H 0.02379 0.57694 0.76901 0.0
C1004 C 0.91049 0.50728 0.79652 0.0
C1005 C 0.90934 0.52989 0.78611 0.0
C1006 C 0.9339 0.49945 0.79457 0.0
C1007 C 0.95661 0.51381 0.78205 0.0
C1008 C 0.95396 0.53463 0.77093 0.0
H1009 H 0.08252 0.4378 0.76305 0.0
H1010 H 0.04233 0.45259 0.75991 0.0
C1011 C 0.93093 0.54292 0.77307 0.0
C1012 C 0.98323 0.5075 0.78094 0.0
H1013 H 0.06341 0.54496 0.7788 0.0
C1014 C 0.97652 0.47533 0.78126 0.0
C1015 C 0.01522 0.53288 0.78036 0.0
C1016 C 0.02481 0.5681 0.78141 0.0
C1017 C 1.00049 0.46786 0.78104 0.0
C1018 C 0.03242 0.4932 0.7798 0.0
C1019 C 0.03911 0.52537 0.77947 0.0
C1020 C 0.05922 0.48708 0.77997 0.0
C1021 C 0.99121 0.43284 0.78288 0.0
C1022 C 0.08382 0.50325 0.79135 0.0
C1023 C 0.10743 0.49564 0.7927 0.0
C1024 C 0.10697 0.47152 0.78278 0.0
C1025 C 0.08354 0.45664 0.77077 0.0
C1026 C 0.06018 0.46465 0.76922 0.0
H1027 H 0.9676 0.41808 0.78855 0.0
H1028 H 0.99029 0.4225 0.77059 0.0
H1029 H 1.00836 0.43047 0.79053 0.0
H1030 H 0.08404 0.52079 0.79975 0.0
H1031 H 0.125 0.50717 0.80221 0.0
H1032 H 0.37625 0.92876 0.05684 0.0
H1033 H 0.43233 0.96874 0.05233 0.0
H1034 H 0.45433 0.94419 0.09922 0.0
H1035 H 0.39866 0.90458 0.10377 0.0
H1036 H 0.47106 0.02346 0.07422 0.0
H1037 H 0.51849 0.94225 0.06694 0.0
H1038 H 0.4775 0.92857 0.0639 0.0
H1039 H 0.49291 0.93311 0.08429 0.0
C1040 C 0.39318 0.93145 0.066 0.0
C1041 C 0.38303 0.91341 0.08063 0.0
C1042 C 0.42518 0.95445 0.06347 0.0
C1043 C 0.44767 0.95935 0.07538 0.0
C1044 C 0.43759 0.94063 0.08975 0.0
H1045 H 0.62903 0.11391 0.10448 0.0
H1046 H 0.57326 0.0745 0.10013 0.0
C1047 C 0.40571 0.91804 0.09236 0.0
C1048 C 0.4814 0.98527 0.07344 0.0
H1049 H 0.55574 0.99799 0.07245 0.0
C1050 C 0.48955 0.01788 0.0736 0.0
C1051 C 0.50561 0.97811 0.07255 0.0
C1052 C 0.49831 0.94362 0.07176 0.0
C1053 C 0.52118 0.04336 0.07364 0.0
C1054 C 0.54541 0.03616 0.07352 0.0
C1055 C 0.53725 1.00359 0.07261 0.0
C1056 C 0.57918 0.06189 0.07548 0.0
C1057 C 0.5285 0.07787 0.07403 0.0
C1058 C 0.60128 0.06816 0.06305 0.0
C1059 C 0.63332 0.09103 0.06547 0.0
C1060 C 0.64394 0.10759 0.0805 0.0
C1061 C 0.62164 0.10158 0.09278 0.0
C1062 C 0.5897 0.07912 0.09028 0.0
H1063 H 0.50816 0.07969 0.06995 0.0
H1064 H 0.53438 0.08719 0.08678 0.0
H1065 H 0.54902 0.09366 0.06612 0.0
H1066 H 0.59378 0.05504 0.05156 0.0
H1067 H 0.64993 0.09481 0.05586 0.0
H1068 H 0.23472 0.33442 0.28754 0.0
H1069 H 0.24586 0.31473 0.31276 0.0
H1070 H 0.3317 0.32967 0.29151 0.0
H1071 H 0.32097 0.35001 0.26627 0.0
H1072 H 0.25582 0.2635 0.31949 0.0
H1073 H 0.3619 0.38218 0.33426 0.0
H1074 H 0.33403 0.37783 0.31881 0.0
H1075 H 0.36226 0.36619 0.3144 0.0
C1076 C 0.256 0.33353 0.28817 0.0
C1077 C 0.27704 0.34416 0.2748 0.0
C1078 C 0.26228 0.32207 0.30263 0.0
C1079 C 0.28991 0.32113 0.30427 0.0
C1080 C 0.31046 0.33061 0.29075 0.0
H1081 H 0.33301 0.22952 0.38593 0.0
H1082 H 0.31865 0.24133 0.3592 0.0
C1083 C 0.3041 0.34192 0.2762 0.0
C1084 C 0.29738 0.31102 0.32025 0.0
H1085 H 0.34998 0.33862 0.35201 0.0
C1086 C 0.2765 0.2799 0.32655 0.0
C1087 C 0.32411 0.33244 0.32969 0.0
C1088 C 0.34678 0.36663 0.32408 0.0
C1089 C 0.28169 0.26966 0.34184 0.0
C1090 C 0.30864 0.29095 0.35118 0.0
C1091 C 0.32942 0.3221 0.3449 0.0
C1092 C 0.31529 0.28198 0.36772 0.0
C1093 C 0.25779 0.23638 0.34809 0.0
C1094 C 0.31816 0.30065 0.38159 0.0
C1095 C 0.32618 0.29382 0.39694 0.0
C1096 C 0.33197 0.26826 0.39892 0.0
C1097 C 0.32829 0.24904 0.38507 0.0
C1098 C 0.32015 0.25586 0.36969 0.0
H1099 H 0.23507 0.22611 0.3415 0.0
H1100 H 0.26681 0.21982 0.34619 0.0
H1101 H 0.25354 0.23705 0.36141 0.0
H1102 H 0.31443 0.32082 0.38053 0.0
H1103 H 0.32827 0.30897 0.40726 0.0
H1104 H 0.91119 0.22699 0.63031 0.0
H1105 H 0.94161 0.24309 0.65575 0.0
H1106 H 1.01254 0.33145 0.63278 0.0
H1107 H 0.98188 0.31583 0.60735 0.0
H1108 H 1.00251 0.25788 0.66328 0.0
H1109 H 0.99114 0.36507 0.67387 0.0
H1110 H 0.96754 0.33418 0.65901 0.0
H1111 H 1.00743 0.36465 0.65427 0.0
C1112 C 0.93324 0.24991 0.63061 0.0
C1113 C 0.9438 0.27016 0.61667 0.0
C1114 C 0.95075 0.25904 0.64522 0.0
C1115 C 0.97921 0.28884 0.64642 0.0
C1116 C 0.99039 0.30863 0.63237 0.0
H1117 H 0.11414 0.39553 0.72383 0.0
H1118 H 0.0833 0.37602 0.6988 0.0
C1119 C 0.97296 0.29944 0.61771 0.0
C1120 C 0.99689 0.29921 0.66238 0.0
H1121 H 0.0248 0.3585 0.6918 0.0
C1122 C 1.00728 0.27983 0.66954 0.0
C1123 C 1.00315 0.3278 0.6707 0.0
C1124 C 0.99153 0.34903 0.66419 0.0
C1125 C 0.02439 0.28865 0.68439 0.0
C1126 C 0.03076 0.31734 0.6927 0.0
C1127 C 0.02008 0.33653 0.68558 0.0
C1128 C 0.04947 0.32868 0.70836 0.0
C1129 C 0.03638 0.26762 0.69071 0.0
C1130 C 0.04082 0.30898 0.72248 0.0
C1131 C 0.0589 0.32001 0.73694 0.0
C1132 C 0.08609 0.35116 0.73775 0.0
C1133 C 0.09404 0.37107 0.72371 0.0
C1134 C 0.07611 0.36002 0.70932 0.0
H1135 H 0.03725 0.25213 0.68087 0.0
H1136 H 0.06022 0.28253 0.69604 0.0
H1137 H 0.02035 0.2514 0.70043 0.0
H1138 H 0.01996 0.28504 0.72237 0.0
H1139 H 0.05179 0.30389 0.7474 0.0
H1140 H 0.65706 0.9402 0.94403 0.0
H1141 H 0.68082 0.98312 0.96485 0.0
H1142 H 0.71923 0.93147 0.98895 0.0
H1143 H 0.6995 0.89168 0.96695 0.0
H1144 H 0.67217 0.98782 0.99349 0.0
H1145 H 0.79336 0.01396 0.99458 0.0
H1146 H 0.76619 0.98828 0.97908 0.0
H1147 H 0.76798 0.97175 0.99871 0.0
C1148 C 0.67142 0.93866 0.95354 0.0
C1149 C 0.67569 0.91202 0.95402 0.0
C1150 C 0.68476 0.96307 0.96564 0.0
C1151 C 0.70241 0.96131 0.97874 0.0
C1152 C 0.70694 0.93474 0.97894 0.0
H1153 H 0.72114 0.07487 0.06873 0.0
H1154 H 0.70241 0.03219 0.04784 0.0
C1155 C 0.69484 0.91127 0.96647 0.0
C1156 C 0.71457 0.98608 0.99251 0.0
H1157 H 0.77601 0.02787 0.01906 0.0
C1158 C 0.69519 0.99695 0.99882 0.0
C1159 C 0.74484 0.99903 0.99961 0.0
C1160 C 0.76933 0.9929 0.99248 0.0
C1161 C 0.70486 0.01974 0.01175 0.0
C1162 C 0.73406 0.03055 0.01975 0.0
C1163 C 0.75343 0.01968 0.0134 0.0
C1164 C 0.74595 0.05441 0.03395 0.0
C1165 C 0.68396 0.03285 0.01602 0.0
C1166 C 0.77767 0.0797 0.03456 0.0
C1167 C 0.78886 0.10276 0.04721 0.0
C1168 C 0.76845 0.10257 0.05923 0.0
C1169 C 0.73729 0.07634 0.05936 0.0
C1170 C 0.72637 0.05225 0.0471 0.0
H1171 H 0.66932 0.03134 1.00539 0.0
H1172 H 0.66769 0.01806 0.02602 0.0
H1173 H 0.69781 0.05855 0.02 0.0
H1174 H 0.79391 0.08226 0.02499 0.0
H1175 H 0.81342 0.12169 0.0472 0.0
H1176 H 0.67819 0.70601 0.4088 0.0
H1177 H 0.69259 0.68932 0.38343 0.0
H1178 H 0.71482 0.77934 0.36058 0.0
H1179 H 0.70111 0.79641 0.38591 0.0
H1180 H 0.6653 0.68062 0.3524 0.0
H1181 H 0.79188 0.77422 0.34896 0.0
H1182 H 0.76916 0.76651 0.36749 0.0
H1183 H 0.76658 0.79028 0.35127 0.0
C1184 C 0.6868 0.7226 0.39851 0.0
C1185 C 0.68852 0.75269 0.39955 0.0
C1186 C 0.69479 0.71288 0.38391 0.0
C1187 C 0.70516 0.73311 0.37 0.0
C1188 C 0.70744 0.76338 0.37112 0.0
H1189 H 0.75854 0.71268 0.26933 0.0
H1190 H 0.74621 0.73206 0.29447 0.0
C1191 C 0.69929 0.77303 0.38565 0.0
C1192 C 0.71214 0.722 0.35415 0.0
H1193 H 0.76959 0.74103 0.32545 0.0
C1194 C 0.68818 0.69378 0.34658 0.0
C1195 C 0.74186 0.73921 0.34632 0.0
C1196 C 0.76896 0.76909 0.35396 0.0
C1197 C 0.69291 0.68261 0.33145 0.0
C1198 C 0.72277 0.69955 0.3237 0.0
C1199 C 0.74668 0.72792 0.33123 0.0
C1200 C 0.72989 0.68766 0.30813 0.0
C1201 C 0.66545 0.65313 0.32372 0.0
C1202 C 0.72518 0.65632 0.30726 0.0
C1203 C 0.73191 0.64508 0.29286 0.0
C1204 C 0.74412 0.66494 0.27883 0.0
C1205 C 0.74895 0.69645 0.27972 0.0
C1206 C 0.74209 0.70768 0.29419 0.0
H1207 H 0.64272 0.64959 0.32808 0.0
H1208 H 0.66619 0.655 0.31014 0.0
H1209 H 0.66619 0.63127 0.32719 0.0
H1210 H 0.71648 0.64045 0.31782 0.0
H1211 H 0.72725 0.62051 0.29275 0.0
H1212 H 0.05205 0.7667 0.6041 0.0
H1213 H 0.01979 0.75246 0.62906 0.0
H1214 H 0.08093 0.7267 0.65306 0.0
H1215 H 0.11273 0.74017 0.62832 0.0
H1216 H 0.98687 0.6943 0.6468 0.0
H1217 H 0.07916 0.78976 0.68594 0.0
H1218 H 0.08226 0.79016 0.66386 0.0
H1219 H 0.0916 0.76505 0.67595 0.0
C1220 C 0.05861 0.75788 0.61464 0.0
C1221 C 0.08558 0.75529 0.61411 0.0
C1222 C 0.04015 0.74986 0.62899 0.0
C1223 C 0.04823 0.7392 0.6432 0.0
C1224 C 0.07458 0.73577 0.64253 0.0
H1225 H 0.9387 0.62898 0.72702 0.0
H1226 H 0.96612 0.64928 0.70102 0.0
C1227 C 0.0929 0.74364 0.62826 0.0
C1228 C 0.02903 0.73094 0.65865 0.0
H1229 H 0.03445 0.74729 0.69986 0.0
C1230 C 0.99725 0.70614 0.65835 0.0
C1231 C 0.04219 0.74655 0.67381 0.0
C1232 C 0.07558 0.77458 0.67494 0.0
C1233 C 0.97881 0.69572 0.67277 0.0
C1234 C 0.99246 0.71016 0.68808 0.0
C1235 C 0.02387 0.73588 0.68826 0.0
C1236 C 0.97506 0.69793 0.70406 0.0
C1237 C 0.94476 0.66929 0.67143 0.0
C1238 C 0.97128 0.71852 0.71487 0.0
C1239 C 0.95568 0.70695 0.73003 0.0
C1240 C 0.94393 0.6746 0.73489 0.0
C1241 C 0.94775 0.65415 0.72395 0.0
C1242 C 0.96314 0.66565 0.70887 0.0
H1243 H 0.93552 0.66813 0.65889 0.0
H1244 H 0.94249 0.64557 0.67402 0.0
H1245 H 0.93002 0.67298 0.68037 0.0
H1246 H 0.98039 0.74361 0.71157 0.0
H1247 H 0.95343 0.72352 0.73808 0.0
H1248 H 0.2228 0.92244 0.05904 0.0
H1249 H 0.24282 0.96128 0.03615 0.0
H1250 H 0.33089 0.96427 0.03833 0.0
H1251 H 0.3104 0.92471 0.06085 0.0
H1252 H 0.29013 0.02196 0.03143 0.0
H1253 H 0.31045 0.94222 0.99101 0.0
H1254 H 0.28974 0.92833 0.01023 0.0
H1255 H 0.33201 0.95149 0.00982 0.0
C1256 C 0.24662 0.9319 0.05478 0.0
C1257 C 0.26516 0.92083 0.06182 0.0
C1258 C 0.25804 0.95397 0.04161 0.0
C1259 C 0.28823 0.96537 0.03508 0.0
C1260 C 0.30724 0.95533 0.04268 0.0
H1261 H 0.40116 0.10292 0.95777 0.0
H1262 H 0.38038 0.06311 0.9802 0.0
C1263 C 0.29572 0.93308 0.05576 0.0
C1264 C 0.29956 0.98734 0.02028 0.0
H1265 H 0.33038 0.99615 0.98161 0.0
C1266 C 0.29872 0.01611 0.02052 0.0
C1267 C 0.31076 0.97999 1.00586 0.0
C1268 C 0.31053 0.94868 1.0041 0.0
C1269 C 0.3093 0.03778 0.00709 0.0
C1270 C 0.32083 0.03058 0.9928 0.0
C1271 C 0.32164 1.00185 0.9925 0.0
C1272 C 0.33276 0.05291 0.97821 0.0
C1273 C 0.30878 0.06872 0.00847 0.0
C1274 C 0.31287 0.05991 0.96915 0.0
C1275 C 0.32469 0.08236 0.95613 0.0
C1276 C 0.35665 0.09824 0.95184 0.0
C1277 C 0.37632 0.0906 0.9606 0.0
C1278 C 0.36447 0.06799 0.9735 0.0
H1279 H 0.30592 0.07418 0.02138 0.0
H1280 H 0.33071 0.08954 1.00344 0.0
H1281 H 0.28878 0.06629 1.00126 0.0
H1282 H 0.28826 0.04843 0.97233 0.0
H1283 H 0.30913 0.08828 0.94985 0.0
H1284 H 0.94752 0.24431 0.11021 0.0
H1285 H 0.99587 0.26485 0.12606 0.0
H1286 H 0.95654 0.29404 0.16471 0.0
H1287 H 0.9076 0.27151 0.1497 0.0
H1288 H 0.0391 0.32151 0.13612 0.0
H1289 H 0.98732 0.24918 0.19219 0.0
H1290 H 0.96489 0.24156 0.17366 0.0
H1291 H 0.96995 0.27287 0.18769 0.0
C1292 C 0.94873 0.25448 0.12221 0.0
C1293 C 0.92299 0.25596 0.12845 0.0
C1294 C 0.97677 0.2666 0.13127 0.0
C1295 C 0.98012 0.28063 0.14689 0.0
C1296 C 0.95471 0.28262 0.15299 0.0
H1297 H 0.1653 0.40995 0.19208 0.0
H1298 H 0.11484 0.38708 0.17784 0.0
C1299 C 0.92662 0.27017 0.14409 0.0
C1300 C 1.01026 0.29392 0.15657 0.0
H1301 H 0.03963 0.2946 0.19473 0.0
C1302 C 0.03909 0.31538 0.14891 0.0
C1303 C 1.01091 0.28575 0.17326 0.0
C1304 C 0.98164 0.2608 0.18211 0.0
C1305 C 0.068 0.3292 0.15739 0.0
C1306 C 0.06845 0.32249 0.17433 0.0
C1307 C 0.03968 0.30048 0.18189 0.0
C1308 C 0.09841 0.33717 0.18427 0.0
C1309 C 0.09783 0.35011 0.14784 0.0
C1310 C 0.10567 0.31741 0.19373 0.0
C1311 C 0.13422 0.33072 0.20236 0.0
C1312 C 0.15646 0.36416 0.20173 0.0
C1313 C 0.14871 0.38412 0.19286 0.0
C1314 C 0.11997 0.37088 0.18444 0.0
H1315 H 0.09446 0.34426 0.13454 0.0
H1316 H 0.1049 0.37592 0.14922 0.0
H1317 H 0.11726 0.34711 0.1523 0.0
H1318 H 0.08964 0.29143 0.19406 0.0
H1319 H 0.13949 0.31468 0.20903 0.0
H1320 H 0.79752 0.11138 0.56198 0.0
H1321 H 0.76883 0.05782 0.5485 0.0
H1322 H 0.76919 0.10359 0.50313 0.0
H1323 H 0.79712 0.15685 0.51661 0.0
H1324 H 0.70532 0.02985 0.52548 0.0
H1325 H 0.81282 0.04404 0.49623 0.0
H1326 H 0.81447 0.06387 0.51535 0.0
H1327 H 0.80726 0.07818 0.49657 0.0
C1328 C 0.79104 0.10996 0.54921 0.0
C1329 C 0.79975 0.1386 0.54043 0.0
C1330 C 0.77473 0.07928 0.54145 0.0
C1331 C 0.7669 0.07636 0.52467 0.0
C1332 C 0.77496 0.1049 0.51601 0.0
H1333 H 0.70086 0.91466 0.45356 0.0
H1334 H 0.72398 0.96801 0.46697 0.0
C1335 C 0.79094 0.13543 0.52377 0.0
C1336 C 0.75094 0.04385 0.51605 0.0
H1337 H 0.76495 0.99663 0.49002 0.0
C1338 C 0.7184 0.02253 0.51779 0.0
C1339 C 0.76763 0.03423 0.50571 0.0
C1340 C 0.80252 0.05605 0.50328 0.0
C1341 C 0.70223 0.99232 0.50947 0.0
C1342 C 0.71904 0.98214 0.49942 0.0
C1343 C 0.75166 1.00377 0.49764 0.0
C1344 C 0.70352 0.9493 0.49087 0.0
C1345 C 0.667 0.97225 0.51116 0.0
C1346 C 0.68404 0.92031 0.49953 0.0
C1347 C 0.67031 0.88985 0.49174 0.0
C1348 C 0.6761 0.88697 0.47507 0.0
C1349 C 0.69557 0.91582 0.46634 0.0
C1350 C 0.70904 0.94645 0.47411 0.0
H1351 H 0.657 0.98765 0.51405 0.0
H1352 H 0.65576 0.95843 0.49979 0.0
H1353 H 0.66082 0.95488 0.52143 0.0
H1354 H 0.67989 0.92104 0.5125 0.0
H1355 H 0.65565 0.86826 0.49893 0.0
H1356 H 0.79994 0.67495 0.79372 0.0
H1357 H 0.77256 0.69773 0.80856 0.0
H1358 H 0.7561 0.63347 0.84908 0.0
H1359 H 0.78337 0.61076 0.83426 0.0
H1360 H 0.71222 0.67201 0.82193 0.0
H1361 H 0.80121 0.72207 0.87136 0.0
H1362 H 0.80737 0.70687 0.85236 0.0
H1363 H 0.78387 0.67923 0.86837 0.0
C1364 C 0.78966 0.66504 0.80559 0.0
C1365 C 0.79329 0.6405 0.81264 0.0
C1366 C 0.77427 0.67834 0.81418 0.0
C1367 C 0.76257 0.66787 0.83016 0.0
C1368 C 0.7653 0.64258 0.83695 0.0
H1369 H 0.63302 0.70505 0.88576 0.0
H1370 H 0.65843 0.68181 0.87 0.0
C1371 C 0.78056 0.62925 0.82837 0.0
C1372 C 0.7482 0.68373 0.83986 0.0
H1373 H 0.75515 0.7244 0.8757 0.0
C1374 C 0.72169 0.68348 0.83367 0.0
C1375 C 0.76064 0.69935 0.85512 0.0
C1376 C 0.79001 0.70226 0.86216 0.0
C1377 C 0.70699 0.69749 0.8424 0.0
C1378 C 0.71874 0.71205 0.85795 0.0
C1379 C 0.74573 0.71303 0.86394 0.0
C1380 C 0.70341 0.72637 0.86811 0.0
C1381 C 0.67922 0.69703 0.8347 0.0
C1382 C 0.72023 0.75911 0.87301 0.0
C1383 C 0.70562 0.77268 0.8821 0.0
C1384 C 0.67371 0.75387 0.88668 0.0
C1385 C 0.6573 0.72079 0.8822 0.0
C1386 C 0.67189 0.70731 0.87311 0.0
H1387 H 0.67858 0.69347 0.82121 0.0
H1388 H 0.65726 0.67665 0.83993 0.0
H1389 H 0.67966 0.71991 0.83723 0.0
H1390 H 0.74461 0.77448 0.86948 0.0
H1391 H 0.7192 0.79822 0.8851 0.0
H1392 H 0.85614 0.61125 0.18747 0.0
H1393 H 0.90615 0.63488 0.17268 0.0
H1394 H 0.94293 0.72165 0.20189 0.0
H1395 H 0.89233 0.69817 0.21636 0.0
H1396 H 0.95798 0.73782 0.17073 0.0
H1397 H 0.98817 0.64509 0.18513 0.0
H1398 H 0.95055 0.62788 0.17547 0.0
H1399 H 0.9567 0.64637 0.19539 0.0
C1400 C 0.87513 0.6351 0.19096 0.0
C1401 C 0.87043 0.65258 0.20332 0.0
C1402 C 0.90388 0.64867 0.18249 0.0
C1403 C 0.92899 0.68004 0.18623 0.0
C1404 C 0.92429 0.6974 0.19872 0.0
H1405 H 0.12272 0.7588 0.15289 0.0
H1406 H 0.07351 0.73584 0.16808 0.0
C1407 C 0.89542 0.68387 0.20713 0.0
C1408 C 0.9595 0.69516 0.17674 0.0
H1409 H 0.01818 0.68262 0.16401 0.0
C1410 C 0.97114 0.72571 0.16934 0.0
C1411 C 0.97728 0.67989 0.17494 0.0
C1412 C 0.96774 0.64817 0.18329 0.0
C1413 C 0.99938 0.74099 0.16017 0.0
C1414 C 0.01656 0.72518 0.15788 0.0
C1415 C 1.00512 0.69483 0.16546 0.0
C1416 C 0.04694 0.74003 0.14829 0.0
C1417 C 1.01093 0.77442 0.15339 0.0
C1418 C 0.04905 0.75024 0.13188 0.0
C1419 C 0.07751 0.76356 0.12304 0.0
C1420 C 0.10469 0.76666 0.13026 0.0
C1421 C 0.10241 0.75641 0.14669 0.0
C1422 C 0.0741 0.74329 0.15549 0.0
H1423 H 1.00056 0.78681 0.16005 0.0
H1424 H 0.0369 0.78978 0.15411 0.0
H1425 H 1.00394 0.77237 0.14032 0.0
H1426 H 0.0285 0.74741 0.12574 0.0
H1427 H 0.07798 0.7707 0.11041 0.0
H1428 H 0.21146 0.91155 0.55396 0.0
H1429 H 0.24051 0.96472 0.54039 0.0
H1430 H 0.28362 0.92816 0.50793 0.0
H1431 H 0.25518 0.87537 0.52186 0.0
H1432 H 0.32609 0.98818 0.51584 0.0
H1433 H 0.21983 0.9897 0.49784 0.0
H1434 H 0.2225 0.98675 0.51962 0.0
H1435 H 0.21782 0.95433 0.50659 0.0
C1436 C 0.22747 0.91505 0.54408 0.0
C1437 C 0.23114 0.8892 0.53913 0.0
C1438 C 0.24384 0.94544 0.5361 0.0
C1439 C 0.26403 0.95085 0.5227 0.0
C1440 C 0.26827 0.92512 0.51809 0.0
H1441 H 0.32507 0.11469 0.45331 0.0
H1442 H 0.30036 0.06106 0.46641 0.0
C1443 C 0.25203 0.8948 0.52612 0.0
C1444 C 0.28063 0.98298 0.51351 0.0
H1445 H 0.26863 0.03874 0.49378 0.0
C1446 C 0.31336 0.99908 0.51102 0.0
C1447 C 0.26447 0.99751 0.50674 0.0
C1448 C 0.2292 0.98105 0.50766 0.0
C1449 C 0.33013 0.02894 0.50244 0.0
C1450 C 0.31416 0.04417 0.49631 0.0
C1451 C 0.28134 0.02776 0.49851 0.0
C1452 C 0.33084 0.07689 0.48765 0.0
C1453 C 0.36485 0.04336 0.49969 0.0
C1454 C 0.35656 0.10436 0.49491 0.0
C1455 C 0.37109 0.135 0.48722 0.0
C1456 C 0.36041 0.13949 0.47201 0.0
C1457 C 0.33472 0.11212 0.46471 0.0
C1458 C 0.32024 0.08137 0.47237 0.0
H1459 H 0.37131 0.02448 0.50008 0.0
H1460 H 0.37243 0.05606 0.48771 0.0
H1461 H 0.37803 0.06108 0.50958 0.0
H1462 H 0.36491 0.10245 0.50685 0.0
H1463 H 0.39019 0.1556 0.49346 0.0
H1464 H 0.26125 0.40816 0.82315 0.0
H1465 H 0.28901 0.38543 0.8374 0.0
H1466 H 0.22339 0.29111 0.81758 0.0
H1467 H 0.19654 0.31424 0.80282 0.0
H1468 H 0.27054 0.34304 0.861 0.0
H1469 H 0.30151 0.29056 0.80928 0.0
H1470 H 0.28696 0.31752 0.80613 0.0
H1471 H 0.26015 0.27509 0.81015 0.0
C1472 C 0.25335 0.38276 0.82146 0.0
C1473 C 0.22694 0.36313 0.81163 0.0
C1474 C 0.26906 0.36962 0.82976 0.0
C1475 C 0.25883 0.33641 0.82853 0.0
C1476 C 0.23262 0.3169 0.81849 0.0
H1477 H 0.30905 0.20864 0.88028 0.0
H1478 H 0.28259 0.2312 0.8646 0.0
C1479 C 0.21711 0.33012 0.81005 0.0
C1480 C 0.27443 0.32206 0.83845 0.0
H1481 H 0.30663 0.27397 0.83609 0.0
C1482 C 0.27859 0.32817 0.85545 0.0
C1483 C 0.28511 0.30241 0.83145 0.0
C1484 C 0.28352 0.29627 0.81323 0.0
C1485 C 0.29246 0.31504 0.8655 0.0
C1486 C 0.30279 0.29519 0.85851 0.0
C1487 C 0.29859 0.28894 0.84156 0.0
C1488 C 0.31859 0.28135 0.86852 0.0
C1489 C 0.29544 0.32207 0.88364 0.0
C1490 C 0.34777 0.30178 0.87605 0.0
C1491 C 0.36302 0.28891 0.88499 0.0
C1492 C 0.34954 0.25514 0.88679 0.0
C1493 C 0.32008 0.23471 0.87941 0.0
C1494 C 0.30498 0.24762 0.8703 0.0
H1495 H 0.28004 0.33115 0.88772 0.0
H1496 H 0.28947 0.30002 0.89081 0.0
H1497 H 0.32008 0.34091 0.88648 0.0
H1498 H 0.35909 0.32783 0.87478 0.0
H1499 H 0.38553 0.30555 0.89052 0.0
loop_
_geom_bond_atom_site_label_1
_geom_bond_atom_site_label_2
_geom_bond_distance
_geom_bond_site_symmetry_2
_ccdc_geom_bond_type
C0 C1 1.443 . S
C0 N4 1.376 . S
C0 C38 1.389 . S
C1 C0 1.443 . S
C1 C2 1.340 . S
C1 H41 0.951 . S
C2 C1 1.340 . S
C2 C3 1.439 . S
C2 H42 0.950 . S
C3 C2 1.439 . S
C3 N4 1.374 . S
C3 C37 1.395 . S
N4 C0 1.376 . S
N4 C3 1.374 . S
N4 Co5 2.008 . S
Co5 N4 2.008 . S
Co5 N6 1.995 . S
Co5 N11 2.008 . S
Co5 N16 1.995 . S
Co5 N21 2.282 . S
Co5 N27 2.282 . S
N6 Co5 1.995 . S
N6 C7 1.376 . S
N6 C10 1.383 . S
C7 N6 1.376 . S
C7 C8 1.446 . S
C7 C37 1.391 . S
C8 C7 1.446 . S
C8 C9 1.339 . S
C8 H43 0.949 . S
C9 C8 1.339 . S
C9 C10 1.439 . S
C9 H44 0.950 . S
C10 N6 1.383 . S
C10 C9 1.439 . S
C10 C39 1.392 . S
N11 Co5 2.008 . S
N11 C12 1.376 . S
N11 C15 1.374 . S
C12 N11 1.376 . S
C12 C13 1.443 . S
C12 C39 1.389 . S
C13 C12 1.443 . S
C13 C14 1.340 . S
C13 H45 0.951 . S
C14 C13 1.340 . S
C14 C15 1.439 . S
C14 H46 0.950 . S
C15 N11 1.374 . S
C15 C14 1.439 . S
C15 C40 1.395 . S
N16 Co5 1.995 . S
N16 C17 1.376 . S
N16 C20 1.383 . S
C17 N16 1.376 . S
C17 C18 1.446 . S
C17 C40 1.391 . S
C18 C17 1.446 . S
C18 C19 1.339 . S
C18 H47 0.949 . S
C19 C18 1.339 . S
C19 C20 1.439 . S
C19 H48 0.950 . S
C20 N16 1.383 . S
C20 C19 1.439 . S
C20 C38 1.392 . S
N21 Co5 2.282 . S
N21 C24 1.332 . S
N21 C26 1.332 . S
C22 C23 1.386 . S
C22 C25 1.388 . S
C23 C22 1.386 . S
C23 C24 1.382 . S
C23 H49 0.950 . S
C24 N21 1.332 . S
C24 C23 1.382 . S
C24 H35 0.952 . S
C25 C22 1.388 . S
C25 C26 1.382 . S
C25 H50 0.950 . S
C26 N21 1.332 . S
C26 C25 1.382 . S
C26 H36 0.948 . S
N27 Co5 2.282 . S
N27 C31 1.332 . S
N27 C32 1.332 . S
C28 C29 1.388 . S
C28 C32 1.382 . S
C28 H51 0.950 . S
C29 C28 1.388 . S
C29 C30 1.386 . S
C30 C29 1.386 . S
C30 C31 1.382 . S
C30 H52 0.950 . S
C31 N27 1.332 . S
C31 C30 1.382 . S
C31 H33 0.952 . S
C32 N27 1.332 . S
C32 C28 1.382 . S
C32 H34 0.948 . S
H33 C31 0.952 . S
H34 C32 0.948 . S
H35 C24 0.952 . S
H36 C26 0.948 . S
C37 C3 1.395 . S
C37 C7 1.391 . S
C38 C0 1.389 . S
C38 C20 1.392 . S
C39 C10 1.392 . S
C39 C12 1.389 . S
C40 C15 1.395 . S
C40 C17 1.391 . S
H41 C1 0.951 . S
H42 C2 0.950 . S
H43 C8 0.949 . S
H44 C9 0.950 . S
H45 C13 0.951 . S
H46 C14 0.950 . S
H47 C18 0.949 . S
H48 C19 0.950 . S
H49 C23 0.950 . S
H50 C25 0.950 . S
H51 C28 0.950 . S
H52 C30 0.950 . S
C53 C54 1.443 . S
C53 N57 1.376 . S
C53 C91 1.389 . S
C54 C53 1.443 . S
C54 C55 1.340 . S
C54 H94 0.951 . S
C55 C54 1.340 . S
C55 C56 1.439 . S
C55 H95 0.950 . S
C56 C55 1.439 . S
C56 N57 1.374 . S
C56 C90 1.395 . S
N57 C53 1.376 . S
N57 C56 1.374 . S
N57 Co58 2.008 . S
Co58 N57 2.008 . S
Co58 N59 1.995 . S
Co58 N64 2.008 . S
Co58 N69 1.995 . S
Co58 N74 2.282 . S
Co58 N80 2.282 . S
N59 Co58 1.995 . S
N59 C60 1.376 . S
N59 C63 1.383 . S
C60 N59 1.376 . S
C60 C61 1.446 . S
C60 C90 1.391 . S
C61 C60 1.446 . S
C61 C62 1.339 . S
C61 H96 0.949 . S
C62 C61 1.339 . S
C62 C63 1.439 . S
C62 H97 0.950 . S
C63 N59 1.383 . S
C63 C62 1.439 . S
C63 C92 1.392 . S
N64 Co58 2.008 . S
N64 C65 1.376 . S
N64 C68 1.374 . S
C65 N64 1.376 . S
C65 C66 1.443 . S
C65 C92 1.389 . S
C66 C65 1.443 . S
C66 C67 1.340 . S
C66 H98 0.951 . S
C67 C66 1.340 . S
C67 C68 1.439 . S
C67 H99 0.950 . S
C68 N64 1.374 . S
C68 C67 1.439 . S
C68 C93 1.395 . S
N69 Co58 1.995 . S
N69 C70 1.376 . S
N69 C73 1.383 . S
C70 N69 1.376 . S
C70 C71 1.446 . S
C70 C93 1.391 . S
C71 C70 1.446 . S
C71 C72 1.339 . S
C71 H100 0.949 . S
C72 C71 1.339 . S
C72 C73 1.439 . S
C72 H101 0.950 . S
C73 N69 1.383 . S
C73 C72 1.439 . S
C73 C91 1.392 . S
N74 Co58 2.282 . S
N74 C77 1.332 . S
N74 C79 1.332 . S
C75 C76 1.386 . S
C75 C78 1.388 . S
C76 C75 1.386 . S
C76 C77 1.382 . S
C76 H102 0.950 . S
C77 N74 1.332 . S
C77 C76 1.382 . S
C77 H88 0.952 . S
C78 C75 1.388 . S
C78 C79 1.382 . S
C78 H103 0.950 . S
C79 N74 1.332 . S
C79 C78 1.382 . S
C79 H89 0.948 . S
N80 Co58 2.282 . S
N80 C84 1.332 . S
N80 C85 1.332 . S
C81 C82 1.388 . S
C81 C85 1.382 . S
C81 H104 0.950 . S
C82 C81 1.388 . S
C82 C83 1.386 . S
C83 C82 1.386 . S
C83 C84 1.382 . S
C83 H105 0.950 . S
C84 N80 1.332 . S
C84 C83 1.382 . S
C84 H86 0.952 . S
C85 N80 1.332 . S
C85 C81 1.382 . S
C85 H87 0.948 . S
H86 C84 0.952 . S
H87 C85 0.948 . S
H88 C77 0.952 . S
H89 C79 0.948 . S
C90 C56 1.395 . S
C90 C60 1.391 . S
C91 C53 1.389 . S
C91 C73 1.392 . S
C92 C63 1.392 . S
C92 C65 1.389 . S
C93 C68 1.395 . S
C93 C70 1.391 . S
H94 C54 0.951 . S
H95 C55 0.950 . S
H96 C61 0.949 . S
H97 C62 0.950 . S
H98 C66 0.951 . S
H99 C67 0.950 . S
H100 C71 0.949 . S
H101 C72 0.950 . S
H102 C76 0.950 . S
H103 C78 0.950 . S
H104 C81 0.950 . S
H105 C83 0.950 . S
C106 C107 1.443 . S
C106 N110 1.376 . S
C106 C144 1.389 . S
C107 C106 1.443 . S
C107 C108 1.340 . S
C107 H147 0.951 . S
C108 C107 1.340 . S
C108 C109 1.439 . S
C108 H148 0.950 . S
C109 C108 1.439 . S
C109 N110 1.374 . S
C109 C143 1.395 . S
N110 C106 1.376 . S
N110 C109 1.374 . S
N110 Co111 2.008 . S
Co111 N110 2.008 . S
Co111 N112 1.995 . S
Co111 N117 2.008 . S
Co111 N122 1.995 . S
Co111 N127 2.282 . S
Co111 N133 2.282 . S
N112 Co111 1.995 . S
N112 C113 1.376 . S
N112 C116 1.383 . S
C113 N112 1.376 . S
C113 C114 1.446 . S
C113 C143 1.391 . S
C114 C113 1.446 . S
C114 C115 1.339 . S
C114 H149 0.949 . S
C115 C114 1.339 . S
C115 C116 1.439 . S
C115 H150 0.950 . S
C116 N112 1.383 . S
C116 C115 1.439 . S
C116 C145 1.392 . S
N117 Co111 2.008 . S
N117 C118 1.376 . S
N117 C121 1.374 . S
C118 N117 1.376 . S
C118 C119 1.443 . S
C118 C145 1.389 . S
C119 C118 1.443 . S
C119 C120 1.340 . S
C119 H151 0.951 . S
C120 C119 1.340 . S
C120 C121 1.439 . S
C120 H152 0.950 . S
C121 N117 1.374 . S
C121 C120 1.439 . S
C121 C146 1.395 . S
N122 Co111 1.995 . S
N122 C123 1.376 . S
N122 C126 1.383 . S
C123 N122 1.376 . S
C123 C124 1.446 . S
C123 C146 1.391 . S
C124 C123 1.446 . S
C124 C125 1.339 . S
C124 H153 0.949 . S
C125 C124 1.339 . S
C125 C126 1.439 . S
C125 H154 0.950 . S
C126 N122 1.383 . S
C126 C125 1.439 . S
C126 C144 1.392 . S
N127 Co111 2.282 . S
N127 C130 1.332 . S
N127 C132 1.332 . S
C128 C129 1.386 . S
C128 C131 1.388 . S
C129 C128 1.386 . S
C129 C130 1.382 . S
C129 H155 0.950 . S
C130 N127 1.332 . S
C130 C129 1.382 . S
C130 H141 0.952 . S
C131 C128 1.388 . S
C131 C132 1.382 . S
C131 H156 0.950 . S
C132 N127 1.332 . S
C132 C131 1.382 . S
C132 H142 0.948 . S
N133 Co111 2.282 . S
N133 C137 1.332 . S
N133 C138 1.332 . S
C134 C135 1.388 . S
C134 C138 1.382 . S
C134 H157 0.950 . S
C135 C134 1.388 . S
C135 C136 1.386 . S
C136 C135 1.386 . S
C136 C137 1.382 . S
C136 H158 0.950 . S
C137 N133 1.332 . S
C137 C136 1.382 . S
C137 H139 0.952 . S
C138 N133 1.332 . S
C138 C134 1.382 . S
C138 H140 0.948 . S
H139 C137 0.952 . S
H140 C138 0.948 . S
H141 C130 0.952 . S
H142 C132 0.948 . S
C143 C109 1.395 . S
C143 C113 1.391 . S
C144 C106 1.389 . S
C144 C126 1.392 . S
C145 C116 1.392 . S
C145 C118 1.389 . S
C146 C121 1.395 . S
C146 C123 1.391 . S
H147 C107 0.951 . S
H148 C108 0.950 . S
H149 C114 0.949 . S
H150 C115 0.950 . S
H151 C119 0.951 . S
H152 C120 0.950 . S
H153 C124 0.949 . S
H154 C125 0.950 . S
H155 C129 0.950 . S
H156 C131 0.950 . S
H157 C134 0.950 . S
H158 C136 0.950 . S
C159 C160 1.443 . S
C159 N163 1.376 . S
C159 C197 1.389 . S
C160 C159 1.443 . S
C160 C161 1.340 . S
C160 H200 0.951 . S
C161 C160 1.340 . S
C161 C162 1.439 . S
C161 H201 0.950 . S
C162 C161 1.439 . S
C162 N163 1.374 . S
C162 C196 1.395 . S
N163 C159 1.376 . S
N163 C162 1.374 . S
N163 Co164 2.008 . S
Co164 N163 2.008 . S
Co164 N165 1.995 . S
Co164 N170 2.008 . S
Co164 N175 1.995 . S
Co164 N180 2.282 . S
Co164 N186 2.282 . S
N165 Co164 1.995 . S
N165 C166 1.376 . S
N165 C169 1.383 . S
C166 N165 1.376 . S
C166 C167 1.446 . S
C166 C196 1.391 . S
C167 C166 1.446 . S
C167 C168 1.339 . S
C167 H202 0.949 . S
C168 C167 1.339 . S
C168 C169 1.439 . S
C168 H203 0.950 . S
C169 N165 1.383 . S
C169 C168 1.439 . S
C169 C198 1.392 . S
N170 Co164 2.008 . S
N170 C171 1.376 . S
N170 C174 1.374 . S
C171 N170 1.376 . S
C171 C172 1.443 . S
C171 C198 1.389 . S
C172 C171 1.443 . S
C172 C173 1.340 . S
C172 H204 0.951 . S
C173 C172 1.340 . S
C173 C174 1.439 . S
C173 H205 0.950 . S
C174 N170 1.374 . S
C174 C173 1.439 . S
C174 C199 1.395 . S
N175 Co164 1.995 . S
N175 C176 1.376 . S
N175 C179 1.383 . S
C176 N175 1.376 . S
C176 C177 1.446 . S
C176 C199 1.391 . S
C177 C176 1.446 . S
C177 C178 1.339 . S
C177 H206 0.949 . S
C178 C177 1.339 . S
C178 C179 1.439 . S
C178 H207 0.950 . S
C179 N175 1.383 . S
C179 C178 1.439 . S
C179 C197 1.392 . S
N180 Co164 2.282 . S
N180 C183 1.332 . S
N180 C185 1.332 . S
C181 C182 1.386 . S
C181 C184 1.388 . S
C182 C181 1.386 . S
C182 C183 1.382 . S
C182 H208 0.950 . S
C183 N180 1.332 . S
C183 C182 1.382 . S
C183 H194 0.952 . S
C184 C181 1.388 . S
C184 C185 1.382 . S
C184 H209 0.950 . S
C185 N180 1.332 . S
C185 C184 1.382 . S
C185 H195 0.948 . S
N186 Co164 2.282 . S
N186 C190 1.332 . S
N186 C191 1.332 . S
C187 C188 1.388 . S
C187 C191 1.382 . S
C187 H210 0.950 . S
C188 C187 1.388 . S
C188 C189 1.386 . S
C189 C188 1.386 . S
C189 C190 1.382 . S
C189 H211 0.950 . S
C190 N186 1.332 . S
C190 C189 1.382 . S
C190 H192 0.952 . S
C191 N186 1.332 . S
C191 C187 1.382 . S
C191 H193 0.948 . S
H192 C190 0.952 . S
H193 C191 0.948 . S
H194 C183 0.952 . S
H195 C185 0.948 . S
C196 C162 1.395 . S
C196 C166 1.391 . S
C197 C159 1.389 . S
C197 C179 1.392 . S
C198 C169 1.392 . S
C198 C171 1.389 . S
C199 C174 1.395 . S
C199 C176 1.391 . S
H200 C160 0.951 . S
H201 C161 0.950 . S
H202 C167 0.949 . S
H203 C168 0.950 . S
H204 C172 0.951 . S
H205 C173 0.950 . S
H206 C177 0.949 . S
H207 C178 0.950 . S
H208 C182 0.950 . S
H209 C184 0.950 . S
H210 C187 0.950 . S
H211 C189 0.950 . S
C212 C213 1.443 . S
C212 N216 1.376 . S
C212 C250 1.389 . S
C213 C212 1.443 . S
C213 C214 1.340 . S
C213 H253 0.951 . S
C214 C213 1.340 . S
C214 C215 1.439 . S
C214 H254 0.950 . S
C215 C214 1.439 . S
C215 N216 1.374 . S
C215 C249 1.395 . S
N216 C212 1.376 . S
N216 C215 1.374 . S
N216 Co217 2.008 . S
Co217 N216 2.008 . S
Co217 N218 1.995 . S
Co217 N223 2.008 . S
Co217 N228 1.995 . S
Co217 N233 2.282 . S
Co217 N239 2.282 . S
N218 Co217 1.995 . S
N218 C219 1.376 . S
N218 C222 1.383 . S
C219 N218 1.376 . S
C219 C220 1.446 . S
C219 C249 1.391 . S
C220 C219 1.446 . S
C220 C221 1.339 . S
C220 H255 0.949 . S
C221 C220 1.339 . S
C221 C222 1.439 . S
C221 H256 0.950 . S
C222 N218 1.383 . S
C222 C221 1.439 . S
C222 C251 1.392 . S
N223 Co217 2.008 . S
N223 C224 1.376 . S
N223 C227 1.374 . S
C224 N223 1.376 . S
C224 C225 1.443 . S
C224 C251 1.389 . S
C225 C224 1.443 . S
C225 C226 1.340 . S
C225 H257 0.951 . S
C226 C225 1.340 . S
C226 C227 1.439 . S
C226 H258 0.950 . S
C227 N223 1.374 . S
C227 C226 1.439 . S
C227 C252 1.395 . S
N228 Co217 1.995 . S
N228 C229 1.376 . S
N228 C232 1.383 . S
C229 N228 1.376 . S
C229 C230 1.446 . S
C229 C252 1.391 . S
C230 C229 1.446 . S
C230 C231 1.339 . S
C230 H259 0.949 . S
C231 C230 1.339 . S
C231 C232 1.439 . S
C231 H260 0.950 . S
C232 N228 1.383 . S
C232 C231 1.439 . S
C232 C250 1.392 . S
N233 Co217 2.282 . S
N233 C236 1.332 . S
N233 C238 1.332 . S
C234 C235 1.386 . S
C234 C237 1.388 . S
C235 C234 1.386 . S
C235 C236 1.382 . S
C235 H261 0.950 . S
C236 N233 1.332 . S
C236 C235 1.382 . S
C236 H247 0.952 . S
C237 C234 1.388 . S
C237 C238 1.382 . S
C237 H262 0.950 . S
C238 N233 1.332 . S
C238 C237 1.382 . S
C238 H248 0.948 . S
N239 Co217 2.282 . S
N239 C243 1.332 . S
N239 C244 1.332 . S
C240 C241 1.388 . S
C240 C244 1.382 . S
C240 H263 0.950 . S
C241 C240 1.388 . S
C241 C242 1.386 . S
C242 C241 1.386 . S
C242 C243 1.382 . S
C242 H264 0.950 . S
C243 N239 1.332 . S
C243 C242 1.382 . S
C243 H245 0.952 . S
C244 N239 1.332 . S
C244 C240 1.382 . S
C244 H246 0.948 . S
H245 C243 0.952 . S
H246 C244 0.948 . S
H247 C236 0.952 . S
H248 C238 0.948 . S
C249 C215 1.395 . S
C249 C219 1.391 . S
C250 C212 1.389 . S
C250 C232 1.392 . S
C251 C222 1.392 . S
C251 C224 1.389 . S
C252 C227 1.395 . S
C252 C229 1.391 . S
H253 C213 0.951 . S
H254 C214 0.950 . S
H255 C220 0.949 . S
H256 C221 0.950 . S
H257 C225 0.951 . S
H258 C226 0.950 . S
H259 C230 0.949 . S
H260 C231 0.950 . S
H261 C235 0.950 . S
H262 C237 0.950 . S
H263 C240 0.950 . S
H264 C242 0.950 . S
C265 C266 1.443 . S
C265 N269 1.376 . S
C265 C303 1.389 . S
C266 C265 1.443 . S
C266 C267 1.340 . S
C266 H306 0.951 . S
C267 C266 1.340 . S
C267 C268 1.439 . S
C267 H307 0.950 . S
C268 C267 1.439 . S
C268 N269 1.374 . S
C268 C302 1.395 . S
N269 C265 1.376 . S
N269 C268 1.374 . S
N269 Co270 2.008 . S
Co270 N269 2.008 . S
Co270 N271 1.995 . S
Co270 N276 2.008 . S
Co270 N281 1.995 . S
Co270 N286 2.282 . S
Co270 N292 2.282 . S
N271 Co270 1.995 . S
N271 C272 1.376 . S
N271 C275 1.383 . S
C272 N271 1.376 . S
C272 C273 1.446 . S
C272 C302 1.391 . S
C273 C272 1.446 . S
C273 C274 1.339 . S
C273 H308 0.949 . S
C274 C273 1.339 . S
C274 C275 1.439 . S
C274 H309 0.950 . S
C275 N271 1.383 . S
C275 C274 1.439 . S
C275 C304 1.392 . S
N276 Co270 2.008 . S
N276 C277 1.376 . S
N276 C280 1.374 . S
C277 N276 1.376 . S
C277 C278 1.443 . S
C277 C304 1.389 . S
C278 C277 1.443 . S
C278 C279 1.340 . S
C278 H310 0.951 . S
C279 C278 1.340 . S
C279 C280 1.439 . S
C279 H311 0.950 . S
C280 N276 1.374 . S
C280 C279 1.439 . S
C280 C305 1.395 . S
N281 Co270 1.995 . S
N281 C282 1.376 . S
N281 C285 1.383 . S
C282 N281 1.376 . S
C282 C283 1.446 . S
C282 C305 1.391 . S
C283 C282 1.446 . S
C283 C284 1.339 . S
C283 H312 0.949 . S
C284 C283 1.339 . S
C284 C285 1.439 . S
C284 H313 0.950 . S
C285 N281 1.383 . S
C285 C284 1.439 . S
C285 C303 1.392 . S
N286 Co270 2.282 . S
N286 C289 1.332 . S
N286 C291 1.332 . S
C287 C288 1.386 . S
C287 C290 1.388 . S
C288 C287 1.386 . S
C288 C289 1.382 . S
C288 H314 0.950 . S
C289 N286 1.332 . S
C289 C288 1.382 . S
C289 H300 0.952 . S
C290 C287 1.388 . S
C290 C291 1.382 . S
C290 H315 0.950 . S
C291 N286 1.332 . S
C291 C290 1.382 . S
C291 H301 0.948 . S
N292 Co270 2.282 . S
N292 C296 1.332 . S
N292 C297 1.332 . S
C293 C294 1.388 . S
C293 C297 1.382 . S
C293 H316 0.950 . S
C294 C293 1.388 . S
C294 C295 1.386 . S
C295 C294 1.386 . S
C295 C296 1.382 . S
C295 H317 0.950 . S
C296 N292 1.332 . S
C296 C295 1.382 . S
C296 H298 0.952 . S
C297 N292 1.332 . S
C297 C293 1.382 . S
C297 H299 0.948 . S
H298 C296 0.952 . S
H299 C297 0.948 . S
H300 C289 0.952 . S
H301 C291 0.948 . S
C302 C268 1.395 . S
C302 C272 1.391 . S
C303 C265 1.389 . S
C303 C285 1.392 . S
C304 C275 1.392 . S
C304 C277 1.389 . S
C305 C280 1.395 . S
C305 C282 1.391 . S
H306 C266 0.951 . S
H307 C267 0.950 . S
H308 C273 0.949 . S
H309 C274 0.950 . S
H310 C278 0.951 . S
H311 C279 0.950 . S
H312 C283 0.949 . S
H313 C284 0.950 . S
H314 C288 0.950 . S
H315 C290 0.950 . S
H316 C293 0.950 . S
H317 C295 0.950 . S
C318 C319 1.443 . S
C318 N322 1.376 . S
C318 C356 1.389 . S
C319 C318 1.443 . S
C319 C320 1.340 . S
C319 H359 0.951 . S
C320 C319 1.340 . S
C320 C321 1.439 . S
C320 H360 0.950 . S
C321 C320 1.439 . S
C321 N322 1.374 . S
C321 C355 1.395 . S
N322 C318 1.376 . S
N322 C321 1.374 . S
N322 Co323 2.008 . S
Co323 N322 2.008 . S
Co323 N324 1.995 . S
Co323 N329 2.008 . S
Co323 N334 1.995 . S
Co323 N339 2.282 . S
Co323 N345 2.282 . S
N324 Co323 1.995 . S
N324 C325 1.376 . S
N324 C328 1.383 . S
C325 N324 1.376 . S
C325 C326 1.446 . S
C325 C355 1.391 . S
C326 C325 1.446 . S
C326 C327 1.339 . S
C326 H361 0.949 . S
C327 C326 1.339 . S
C327 C328 1.439 . S
C327 H362 0.950 . S
C328 N324 1.383 . S
C328 C327 1.439 . S
C328 C357 1.392 . S
N329 Co323 2.008 . S
N329 C330 1.376 . S
N329 C333 1.374 . S
C330 N329 1.376 . S
C330 C331 1.443 . S
C330 C357 1.389 . S
C331 C330 1.443 . S
C331 C332 1.340 . S
C331 H363 0.951 . S
C332 C331 1.340 . S
C332 C333 1.439 . S
C332 H364 0.950 . S
C333 N329 1.374 . S
C333 C332 1.439 . S
C333 C358 1.395 . S
N334 Co323 1.995 . S
N334 C335 1.376 . S
N334 C338 1.383 . S
C335 N334 1.376 . S
C335 C336 1.446 . S
C335 C358 1.391 . S
C336 C335 1.446 . S
C336 C337 1.339 . S
C336 H365 0.949 . S
C337 C336 1.339 . S
C337 C338 1.439 . S
C337 H366 0.950 . S
C338 N334 1.383 . S
C338 C337 1.439 . S
C338 C356 1.392 . S
N339 Co323 2.282 . S
N339 C342 1.332 . S
N339 C344 1.332 . S
C340 C341 1.386 . S
C340 C343 1.388 . S
C341 C340 1.386 . S
C341 C342 1.382 . S
C341 H367 0.950 . S
C342 N339 1.332 . S
C342 C341 1.382 . S
C342 H353 0.952 . S
C343 C340 1.388 . S
C343 C344 1.382 . S
C343 H368 0.950 . S
C344 N339 1.332 . S
C344 C343 1.382 . S
C344 H354 0.948 . S
N345 Co323 2.282 . S
N345 C349 1.332 . S
N345 C350 1.332 . S
C346 C347 1.388 . S
C346 C350 1.382 . S
C346 H369 0.950 . S
C347 C346 1.388 . S
C347 C348 1.386 . S
C348 C347 1.386 . S
C348 C349 1.382 . S
C348 H370 0.950 . S
C349 N345 1.332 . S
C349 C348 1.382 . S
C349 H351 0.952 . S
C350 N345 1.332 . S
C350 C346 1.382 . S
C350 H352 0.948 . S
H351 C349 0.952 . S
H352 C350 0.948 . S
H353 C342 0.952 . S
H354 C344 0.948 . S
C355 C321 1.395 . S
C355 C325 1.391 . S
C356 C318 1.389 . S
C356 C338 1.392 . S
C357 C328 1.392 . S
C357 C330 1.389 . S
C358 C333 1.395 . S
C358 C335 1.391 . S
H359 C319 0.951 . S
H360 C320 0.950 . S
H361 C326 0.949 . S
H362 C327 0.950 . S
H363 C331 0.951 . S
H364 C332 0.950 . S
H365 C336 0.949 . S
H366 C337 0.950 . S
H367 C341 0.950 . S
H368 C343 0.950 . S
H369 C346 0.950 . S
H370 C348 0.950 . S
C371 C372 1.443 . S
C371 N375 1.376 . S
C371 C409 1.389 . S
C372 C371 1.443 . S
C372 C373 1.340 . S
C372 H412 0.951 . S
C373 C372 1.340 . S
C373 C374 1.439 . S
C373 H413 0.950 . S
C374 C373 1.439 . S
C374 N375 1.374 . S
C374 C408 1.395 . S
N375 C371 1.376 . S
N375 C374 1.374 . S
N375 Co376 2.008 . S
Co376 N375 2.008 . S
Co376 N377 1.995 . S
Co376 N382 2.008 . S
Co376 N387 1.995 . S
Co376 N392 2.282 . S
Co376 N398 2.282 . S
N377 Co376 1.995 . S
N377 C378 1.376 . S
N377 C381 1.383 . S
C378 N377 1.376 . S
C378 C379 1.446 . S
C378 C408 1.391 . S
C379 C378 1.446 . S
C379 C380 1.339 . S
C379 H414 0.949 . S
C380 C379 1.339 . S
C380 C381 1.439 . S
C380 H415 0.950 . S
C381 N377 1.383 . S
C381 C380 1.439 . S
C381 C410 1.392 . S
N382 Co376 2.008 . S
N382 C383 1.376 . S
N382 C386 1.374 . S
C383 N382 1.376 . S
C383 C384 1.443 . S
C383 C410 1.389 . S
C384 C383 1.443 . S
C384 C385 1.340 . S
C384 H416 0.951 . S
C385 C384 1.340 . S
C385 C386 1.439 . S
C385 H417 0.950 . S
C386 N382 1.374 . S
C386 C385 1.439 . S
C386 C411 1.395 . S
N387 Co376 1.995 . S
N387 C388 1.376 . S
N387 C391 1.383 . S
C388 N387 1.376 . S
C388 C389 1.446 . S
C388 C411 1.391 . S
C389 C388 1.446 . S
C389 C390 1.339 . S
C389 H418 0.949 . S
C390 C389 1.339 . S
C390 C391 1.439 . S
C390 H419 0.950 . S
C391 N387 1.383 . S
C391 C390 1.439 . S
C391 C409 1.392 . S
N392 Co376 2.282 . S
N392 C395 1.332 . S
N392 C397 1.332 . S
C393 C394 1.386 . S
C393 C396 1.388 . S
C394 C393 1.386 . S
C394 C395 1.382 . S
C394 H420 0.950 . S
C395 N392 1.332 . S
C395 C394 1.382 . S
C395 H406 0.952 . S
C396 C393 1.388 . S
C396 C397 1.382 . S
C396 H421 0.950 . S
C397 N392 1.332 . S
C397 C396 1.382 . S
C397 H407 0.948 . S
N398 Co376 2.282 . S
N398 C402 1.332 . S
N398 C403 1.332 . S
C399 C400 1.388 . S
C399 C403 1.382 . S
C399 H422 0.950 . S
C400 C399 1.388 . S
C400 C401 1.386 . S
C401 C400 1.386 . S
C401 C402 1.382 . S
C401 H423 0.950 . S
C402 N398 1.332 . S
C402 C401 1.382 . S
C402 H404 0.952 . S
C403 N398 1.332 . S
C403 C399 1.382 . S
C403 H405 0.948 . S
H404 C402 0.952 . S
H405 C403 0.948 . S
H406 C395 0.952 . S
H407 C397 0.948 . S
C408 C374 1.395 . S
C408 C378 1.391 . S
C409 C371 1.389 . S
C409 C391 1.392 . S
C410 C381 1.392 . S
C410 C383 1.389 . S
C411 C386 1.395 . S
C411 C388 1.391 . S
H412 C372 0.951 . S
H413 C373 0.950 . S
H414 C379 0.949 . S
H415 C380 0.950 . S
H416 C384 0.951 . S
H417 C385 0.950 . S
H418 C389 0.949 . S
H419 C390 0.950 . S
H420 C394 0.950 . S
H421 C396 0.950 . S
H422 C399 0.950 . S
H423 C401 0.950 . S
C424 C425 1.443 . S
C424 N428 1.376 . S
C424 C462 1.389 . S
C425 C424 1.443 . S
C425 C426 1.340 . S
C425 H465 0.951 . S
C426 C425 1.340 . S
C426 C427 1.439 . S
C426 H466 0.950 . S
C427 C426 1.439 . S
C427 N428 1.374 . S
C427 C461 1.395 . S
N428 C424 1.376 . S
N428 C427 1.374 . S
N428 Co429 2.008 . S
Co429 N428 2.008 . S
Co429 N430 1.995 . S
Co429 N435 2.008 . S
Co429 N440 1.995 . S
Co429 N445 2.282 . S
Co429 N451 2.282 . S
N430 Co429 1.995 . S
N430 C431 1.376 . S
N430 C434 1.383 . S
C431 N430 1.376 . S
C431 C432 1.446 . S
C431 C461 1.391 . S
C432 C431 1.446 . S
C432 C433 1.339 . S
C432 H467 0.949 . S
C433 C432 1.339 . S
C433 C434 1.439 . S
C433 H468 0.950 . S
C434 N430 1.383 . S
C434 C433 1.439 . S
C434 C463 1.392 . S
N435 Co429 2.008 . S
N435 C436 1.376 . S
N435 C439 1.374 . S
C436 N435 1.376 . S
C436 C437 1.443 . S
C436 C463 1.389 . S
C437 C436 1.443 . S
C437 C438 1.340 . S
C437 H469 0.951 . S
C438 C437 1.340 . S
C438 C439 1.439 . S
C438 H470 0.950 . S
C439 N435 1.374 . S
C439 C438 1.439 . S
C439 C464 1.395 . S
N440 Co429 1.995 . S
N440 C441 1.376 . S
N440 C444 1.383 . S
C441 N440 1.376 . S
C441 C442 1.446 . S
C441 C464 1.391 . S
C442 C441 1.446 . S
C442 C443 1.339 . S
C442 H471 0.949 . S
C443 C442 1.339 . S
C443 C444 1.439 . S
C443 H472 0.950 . S
C444 N440 1.383 . S
C444 C443 1.439 . S
C444 C462 1.392 . S
N445 Co429 2.282 . S
N445 C448 1.332 . S
N445 C450 1.332 . S
C446 C447 1.386 . S
C446 C449 1.388 . S
C447 C446 1.386 . S
C447 C448 1.382 . S
C447 H473 0.950 . S
C448 N445 1.332 . S
C448 C447 1.382 . S
C448 H459 0.952 . S
C449 C446 1.388 . S
C449 C450 1.382 . S
C449 H474 0.950 . S
C450 N445 1.332 . S
C450 C449 1.382 . S
C450 H460 0.948 . S
N451 Co429 2.282 . S
N451 C455 1.332 . S
N451 C456 1.332 . S
C452 C453 1.388 . S
C452 C456 1.382 . S
C452 H475 0.950 . S
C453 C452 1.388 . S
C453 C454 1.386 . S
C454 C453 1.386 . S
C454 C455 1.382 . S
C454 H476 0.950 . S
C455 N451 1.332 . S
C455 C454 1.382 . S
C455 H457 0.952 . S
C456 N451 1.332 . S
C456 C452 1.382 . S
C456 H458 0.948 . S
H457 C455 0.952 . S
H458 C456 0.948 . S
H459 C448 0.952 . S
H460 C450 0.948 . S
C461 C427 1.395 . S
C461 C431 1.391 . S
C462 C424 1.389 . S
C462 C444 1.392 . S
C463 C434 1.392 . S
C463 C436 1.389 . S
C464 C439 1.395 . S
C464 C441 1.391 . S
H465 C425 0.951 . S
H466 C426 0.950 . S
H467 C432 0.949 . S
H468 C433 0.950 . S
H469 C437 0.951 . S
H470 C438 0.950 . S
H471 C442 0.949 . S
H472 C443 0.950 . S
H473 C447 0.950 . S
H474 C449 0.950 . S
H475 C452 0.950 . S
H476 C454 0.950 . S
C477 C478 1.443 . S
C477 N481 1.376 . S
C477 C515 1.389 . S
C478 C477 1.443 . S
C478 C479 1.340 . S
C478 H518 0.951 . S
C479 C478 1.340 . S
C479 C480 1.439 . S
C479 H519 0.950 . S
C480 C479 1.439 . S
C480 N481 1.374 . S
C480 C514 1.395 . S
N481 C477 1.376 . S
N481 C480 1.374 . S
N481 Co482 2.008 . S
Co482 N481 2.008 . S
Co482 N483 1.995 . S
Co482 N488 2.008 . S
Co482 N493 1.995 . S
Co482 N498 2.282 . S
Co482 N504 2.282 . S
N483 Co482 1.995 . S
N483 C484 1.376 . S
N483 C487 1.383 . S
C484 N483 1.376 . S
C484 C485 1.446 . S
C484 C514 1.391 . S
C485 C484 1.446 . S
C485 C486 1.339 . S
C485 H520 0.949 . S
C486 C485 1.339 . S
C486 C487 1.439 . S
C486 H521 0.950 . S
C487 N483 1.383 . S
C487 C486 1.439 . S
C487 C516 1.392 . S
N488 Co482 2.008 . S
N488 C489 1.376 . S
N488 C492 1.374 . S
C489 N488 1.376 . S
C489 C490 1.443 . S
C489 C516 1.389 . S
C490 C489 1.443 . S
C490 C491 1.340 . S
C490 H522 0.951 . S
C491 C490 1.340 . S
C491 C492 1.439 . S
C491 H523 0.950 . S
C492 N488 1.374 . S
C492 C491 1.439 . S
C492 C517 1.395 . S
N493 Co482 1.995 . S
N493 C494 1.376 . S
N493 C497 1.383 . S
C494 N493 1.376 . S
C494 C495 1.446 . S
C494 C517 1.391 . S
C495 C494 1.446 . S
C495 C496 1.339 . S
C495 H524 0.949 . S
C496 C495 1.339 . S
C496 C497 1.439 . S
C496 H525 0.950 . S
C497 N493 1.383 . S
C497 C496 1.439 . S
C497 C515 1.392 . S
N498 Co482 2.282 . S
N498 C501 1.332 . S
N498 C503 1.332 . S
C499 C500 1.386 . S
C499 C502 1.388 . S
C500 C499 1.386 . S
C500 C501 1.382 . S
C500 H526 0.950 . S
C501 N498 1.332 . S
C501 C500 1.382 . S
C501 H512 0.952 . S
C502 C499 1.388 . S
C502 C503 1.382 . S
C502 H527 0.950 . S
C503 N498 1.332 . S
C503 C502 1.382 . S
C503 H513 0.948 . S
N504 Co482 2.282 . S
N504 C508 1.332 . S
N504 C509 1.332 . S
C505 C506 1.388 . S
C505 C509 1.382 . S
C505 H528 0.950 . S
C506 C505 1.388 . S
C506 C507 1.386 . S
C507 C506 1.386 . S
C507 C508 1.382 . S
C507 H529 0.950 . S
C508 N504 1.332 . S
C508 C507 1.382 . S
C508 H510 0.952 . S
C509 N504 1.332 . S
C509 C505 1.382 . S
C509 H511 0.948 . S
H510 C508 0.952 . S
H511 C509 0.948 . S
H512 C501 0.952 . S
H513 C503 0.948 . S
C514 C480 1.395 . S
C514 C484 1.391 . S
C515 C477 1.389 . S
C515 C497 1.392 . S
C516 C487 1.392 . S
C516 C489 1.389 . S
C517 C492 1.395 . S
C517 C494 1.391 . S
H518 C478 0.951 . S
H519 C479 0.950 . S
H520 C485 0.949 . S
H521 C486 0.950 . S
H522 C490 0.951 . S
H523 C491 0.950 . S
H524 C495 0.949 . S
H525 C496 0.950 . S
H526 C500 0.950 . S
H527 C502 0.950 . S
H528 C505 0.950 . S
H529 C507 0.950 . S
C530 C531 1.443 . S
C530 N534 1.376 . S
C530 C568 1.389 . S
C531 C530 1.443 . S
C531 C532 1.340 . S
C531 H571 0.951 . S
C532 C531 1.340 . S
C532 C533 1.439 . S
C532 H572 0.950 . S
C533 C532 1.439 . S
C533 N534 1.374 . S
C533 C567 1.395 . S
N534 C530 1.376 . S
N534 C533 1.374 . S
N534 Co535 2.008 . S
Co535 N534 2.008 . S
Co535 N536 1.995 . S
Co535 N541 2.008 . S
Co535 N546 1.995 . S
Co535 N551 2.282 . S
Co535 N557 2.282 . S
N536 Co535 1.995 . S
N536 C537 1.376 . S
N536 C540 1.383 . S
C537 N536 1.376 . S
C537 C538 1.446 . S
C537 C567 1.391 . S
C538 C537 1.446 . S
C538 C539 1.339 . S
C538 H573 0.949 . S
C539 C538 1.339 . S
C539 C540 1.439 . S
C539 H574 0.950 . S
C540 N536 1.383 . S
C540 C539 1.439 . S
C540 C569 1.392 . S
N541 Co535 2.008 . S
N541 C542 1.376 . S
N541 C545 1.374 . S
C542 N541 1.376 . S
C542 C543 1.443 . S
C542 C569 1.389 . S
C543 C542 1.443 . S
C543 C544 1.340 . S
C543 H575 0.951 . S
C544 C543 1.340 . S
C544 C545 1.439 . S
C544 H576 0.950 . S
C545 N541 1.374 . S
C545 C544 1.439 . S
C545 C570 1.395 . S
N546 Co535 1.995 . S
N546 C547 1.376 . S
N546 C550 1.383 . S
C547 N546 1.376 . S
C547 C548 1.446 . S
C547 C570 1.391 . S
C548 C547 1.446 . S
C548 C549 1.339 . S
C548 H577 0.949 . S
C549 C548 1.339 . S
C549 C550 1.439 . S
C549 H578 0.950 . S
C550 N546 1.383 . S
C550 C549 1.439 . S
C550 C568 1.392 . S
N551 Co535 2.282 . S
N551 C554 1.332 . S
N551 C556 1.332 . S
C552 C553 1.386 . S
C552 C555 1.388 . S
C553 C552 1.386 . S
C553 C554 1.382 . S
C553 H579 0.950 . S
C554 N551 1.332 . S
C554 C553 1.382 . S
C554 H565 0.952 . S
C555 C552 1.388 . S
C555 C556 1.382 . S
C555 H580 0.950 . S
C556 N551 1.332 . S
C556 C555 1.382 . S
C556 H566 0.948 . S
N557 Co535 2.282 . S
N557 C561 1.332 . S
N557 C562 1.332 . S
C558 C559 1.388 . S
C558 C562 1.382 . S
C558 H581 0.950 . S
C559 C558 1.388 . S
C559 C560 1.386 . S
C560 C559 1.386 . S
C560 C561 1.382 . S
C560 H582 0.950 . S
C561 N557 1.332 . S
C561 C560 1.382 . S
C561 H563 0.952 . S
C562 N557 1.332 . S
C562 C558 1.382 . S
C562 H564 0.948 . S
H563 C561 0.952 . S
H564 C562 0.948 . S
H565 C554 0.952 . S
H566 C556 0.948 . S
C567 C533 1.395 . S
C567 C537 1.391 . S
C568 C530 1.389 . S
C568 C550 1.392 . S
C569 C540 1.392 . S
C569 C542 1.389 . S
C570 C545 1.395 . S
C570 C547 1.391 . S
H571 C531 0.951 . S
H572 C532 0.950 . S
H573 C538 0.949 . S
H574 C539 0.950 . S
H575 C543 0.951 . S
H576 C544 0.950 . S
H577 C548 0.949 . S
H578 C549 0.950 . S
H579 C553 0.950 . S
H580 C555 0.950 . S
H581 C558 0.950 . S
H582 C560 0.950 . S
C583 C584 1.443 . S
C583 N587 1.376 . S
C583 C621 1.389 . S
C584 C583 1.443 . S
C584 C585 1.340 . S
C584 H624 0.951 . S
C585 C584 1.340 . S
C585 C586 1.439 . S
C585 H625 0.950 . S
C586 C585 1.439 . S
C586 N587 1.374 . S
C586 C620 1.395 . S
N587 C583 1.376 . S
N587 C586 1.374 . S
N587 Co588 2.008 . S
Co588 N587 2.008 . S
Co588 N589 1.995 . S
Co588 N594 2.008 . S
Co588 N599 1.995 . S
Co588 N604 2.282 . S
Co588 N610 2.282 . S
N589 Co588 1.995 . S
N589 C590 1.376 . S
N589 C593 1.383 . S
C590 N589 1.376 . S
C590 C591 1.446 . S
C590 C620 1.391 . S
C591 C590 1.446 . S
C591 C592 1.339 . S
C591 H626 0.949 . S
C592 C591 1.339 . S
C592 C593 1.439 . S
C592 H627 0.950 . S
C593 N589 1.383 . S
C593 C592 1.439 . S
C593 C622 1.392 . S
N594 Co588 2.008 . S
N594 C595 1.376 . S
N594 C598 1.374 . S
C595 N594 1.376 . S
C595 C596 1.443 . S
C595 C622 1.389 . S
C596 C595 1.443 . S
C596 C597 1.340 . S
C596 H628 0.951 . S
C597 C596 1.340 . S
C597 C598 1.439 . S
C597 H629 0.950 . S
C598 N594 1.374 . S
C598 C597 1.439 . S
C598 C623 1.395 . S
N599 Co588 1.995 . S
N599 C600 1.376 . S
N599 C603 1.383 . S
C600 N599 1.376 . S
C600 C601 1.446 . S
C600 C623 1.391 . S
C601 C600 1.446 . S
C601 C602 1.339 . S
C601 H630 0.949 . S
C602 C601 1.339 . S
C602 C603 1.439 . S
C602 H631 0.950 . S
C603 N599 1.383 . S
C603 C602 1.439 . S
C603 C621 1.392 . S
N604 Co588 2.282 . S
N604 C607 1.332 . S
N604 C609 1.332 . S
C605 C606 1.386 . S
C605 C608 1.388 . S
C606 C605 1.386 . S
C606 C607 1.382 . S
C606 H632 0.950 . S
C607 N604 1.332 . S
C607 C606 1.382 . S
C607 H618 0.952 . S
C608 C605 1.388 . S
C608 C609 1.382 . S
C608 H633 0.950 . S
C609 N604 1.332 . S
C609 C608 1.382 . S
C609 H619 0.948 . S
N610 Co588 2.282 . S
N610 C614 1.332 . S
N610 C615 1.332 . S
C611 C612 1.388 . S
C611 C615 1.382 . S
C611 H634 0.950 . S
C612 C611 1.388 . S
C612 C613 1.386 . S
C613 C612 1.386 . S
C613 C614 1.382 . S
C613 H635 0.950 . S
C614 N610 1.332 . S
C614 C613 1.382 . S
C614 H616 0.952 . S
C615 N610 1.332 . S
C615 C611 1.382 . S
C615 H617 0.948 . S
H616 C614 0.952 . S
H617 C615 0.948 . S
H618 C607 0.952 . S
H619 C609 0.948 . S
C620 C586 1.395 . S
C620 C590 1.391 . S
C621 C583 1.389 . S
C621 C603 1.392 . S
C622 C593 1.392 . S
C622 C595 1.389 . S
C623 C598 1.395 . S
C623 C600 1.391 . S
H624 C584 0.951 . S
H625 C585 0.950 . S
H626 C591 0.949 . S
H627 C592 0.950 . S
H628 C596 0.951 . S
H629 C597 0.950 . S
H630 C601 0.949 . S
H631 C602 0.950 . S
H632 C606 0.950 . S
H633 C608 0.950 . S
H634 C611 0.950 . S
H635 C613 0.950 . S
H636 C644 0.929 . S
H637 C646 0.930 . S
H638 C648 0.930 . S
H639 C651 0.929 . S
H640 C654 0.930 . S
H641 C656 0.960 . S
H642 C656 0.960 . S
H643 C656 0.960 . S
C644 H636 0.929 . S
C644 C645 1.377 . S
C644 C646 1.384 . S
C645 C644 1.377 . S
C645 C651 1.390 . S
C646 H637 0.930 . S
C646 C644 1.384 . S
C646 C647 1.372 . S
C647 C646 1.372 . S
C647 C648 1.400 . S
C647 C652 1.490 . S
C648 H638 0.930 . S
C648 C647 1.400 . S
C648 C651 1.386 . S
H649 C665 0.930 . S
H650 C666 0.931 . S
C651 H639 0.929 . S
C651 C645 1.390 . S
C651 C648 1.386 . S
C652 C647 1.490 . S
C652 C654 1.395 . S
C652 C655 1.403 . S
H653 C659 0.930 . S
C654 H640 0.930 . S
C654 C652 1.395 . S
C654 C657 1.403 . S
C655 C652 1.403 . S
C655 C656 1.524 . S
C655 C659 1.400 . S
C656 H641 0.960 . S
C656 H642 0.960 . S
C656 H643 0.960 . S
C656 C655 1.524 . S
C657 C654 1.403 . S
C657 C658 1.392 . S
C657 C661 1.495 . S
C658 C657 1.392 . S
C658 C659 1.385 . S
C658 C660 1.478 . S
C659 H653 0.930 . S
C659 C655 1.400 . S
C659 C658 1.385 . S
C660 C658 1.478 . S
C660 C662 1.381 . S
C660 C666 1.383 . S
C661 C657 1.495 . S
C661 H667 0.959 . S
C661 H668 0.961 . S
C661 H669 0.960 . S
C662 C660 1.381 . S
C662 C663 1.394 . S
C662 H670 0.930 . S
C663 C662 1.394 . S
C663 C664 1.383 . S
C663 H671 0.929 . S
C664 C663 1.383 . S
C664 C665 1.377 . S
C665 H649 0.930 . S
C665 C664 1.377 . S
C665 C666 1.379 . S
C666 H650 0.931 . S
C666 C660 1.383 . S
C666 C665 1.379 . S
H667 C661 0.959 . S
H668 C661 0.961 . S
H669 C661 0.960 . S
H670 C662 0.930 . S
H671 C663 0.929 . S
H672 C680 0.929 . S
H673 C682 0.930 . S
H674 C684 0.930 . S
H675 C687 0.929 . S
H676 C690 0.930 . S
H677 C692 0.960 . S
H678 C692 0.960 . S
H679 C692 0.960 . S
C680 H672 0.929 . S
C680 C681 1.377 . S
C680 C682 1.384 . S
C681 C680 1.377 . S
C681 C687 1.390 . S
C682 H673 0.930 . S
C682 C680 1.384 . S
C682 C683 1.372 . S
C683 C682 1.372 . S
C683 C684 1.400 . S
C683 C688 1.490 . S
C684 H674 0.930 . S
C684 C683 1.400 . S
C684 C687 1.386 . S
H685 C701 0.930 . S
H686 C702 0.931 . S
C687 H675 0.929 . S
C687 C681 1.390 . S
C687 C684 1.386 . S
C688 C683 1.490 . S
C688 C690 1.395 . S
C688 C691 1.403 . S
H689 C695 0.930 . S
C690 H676 0.930 . S
C690 C688 1.395 . S
C690 C693 1.403 . S
C691 C688 1.403 . S
C691 C692 1.524 . S
C691 C695 1.400 . S
C692 H677 0.960 . S
C692 H678 0.960 . S
C692 H679 0.960 . S
C692 C691 1.524 . S
C693 C690 1.403 . S
C693 C694 1.392 . S
C693 C697 1.495 . S
C694 C693 1.392 . S
C694 C695 1.385 . S
C694 C696 1.478 . S
C695 H689 0.930 . S
C695 C691 1.400 . S
C695 C694 1.385 . S
C696 C694 1.478 . S
C696 C698 1.381 . S
C696 C702 1.383 . S
C697 C693 1.495 . S
C697 H703 0.959 . S
C697 H704 0.961 . S
C697 H705 0.960 . S
C698 C696 1.381 . S
C698 C699 1.394 . S
C698 H706 0.930 . S
C699 C698 1.394 . S
C699 C700 1.383 . S
C699 H707 0.929 . S
C700 C699 1.383 . S
C700 C701 1.377 . S
C701 H685 0.930 . S
C701 C700 1.377 . S
C701 C702 1.379 . S
C702 H686 0.931 . S
C702 C696 1.383 . S
C702 C701 1.379 . S
H703 C697 0.959 . S
H704 C697 0.961 . S
H705 C697 0.960 . S
H706 C698 0.930 . S
H707 C699 0.929 . S
H708 C716 0.929 . S
H709 C718 0.930 . S
H710 C720 0.930 . S
H711 C723 0.929 . S
H712 C726 0.930 . S
H713 C728 0.960 . S
H714 C728 0.960 . S
H715 C728 0.960 . S
C716 H708 0.929 . S
C716 C717 1.377 . S
C716 C718 1.384 . S
C717 C716 1.377 . S
C717 C723 1.390 . S
C718 H709 0.930 . S
C718 C716 1.384 . S
C718 C719 1.372 . S
C719 C718 1.372 . S
C719 C720 1.400 . S
C719 C724 1.490 . S
C720 H710 0.930 . S
C720 C719 1.400 . S
C720 C723 1.386 . S
H721 C737 0.930 . S
H722 C738 0.931 . S
C723 H711 0.929 . S
C723 C717 1.390 . S
C723 C720 1.386 . S
C724 C719 1.490 . S
C724 C726 1.395 . S
C724 C727 1.403 . S
H725 C731 0.930 . S
C726 H712 0.930 . S
C726 C724 1.395 . S
C726 C729 1.403 . S
C727 C724 1.403 . S
C727 C728 1.524 . S
C727 C731 1.400 . S
C728 H713 0.960 . S
C728 H714 0.960 . S
C728 H715 0.960 . S
C728 C727 1.524 . S
C729 C726 1.403 . S
C729 C730 1.392 . S
C729 C733 1.495 . S
C730 C729 1.392 . S
C730 C731 1.385 . S
C730 C732 1.478 . S
C731 H725 0.930 . S
C731 C727 1.400 . S
C731 C730 1.385 . S
C732 C730 1.478 . S
C732 C734 1.381 . S
C732 C738 1.383 . S
C733 C729 1.495 . S
C733 H739 0.959 . S
C733 H740 0.961 . S
C733 H741 0.960 . S
C734 C732 1.381 . S
C734 C735 1.394 . S
C734 H742 0.930 . S
C735 C734 1.394 . S
C735 C736 1.383 . S
C735 H743 0.929 . S
C736 C735 1.383 . S
C736 C737 1.377 . S
C737 H721 0.930 . S
C737 C736 1.377 . S
C737 C738 1.379 . S
C738 H722 0.931 . S
C738 C732 1.383 . S
C738 C737 1.379 . S
H739 C733 0.959 . S
H740 C733 0.961 . S
H741 C733 0.960 . S
H742 C734 0.930 . S
H743 C735 0.929 . S
H744 C752 0.929 . S
H745 C754 0.930 . S
H746 C756 0.930 . S
H747 C759 0.929 . S
H748 C762 0.930 . S
H749 C764 0.960 . S
H750 C764 0.960 . S
H751 C764 0.960 . S
C752 H744 0.929 . S
C752 C753 1.377 . S
C752 C754 1.384 . S
C753 C752 1.377 . S
C753 C759 1.390 . S
C754 H745 0.930 . S
C754 C752 1.384 . S
C754 C755 1.372 . S
C755 C754 1.372 . S
C755 C756 1.400 . S
C755 C760 1.490 . S
C756 H746 0.930 . S
C756 C755 1.400 . S
C756 C759 1.386 . S
H757 C773 0.930 . S
H758 C774 0.931 . S
C759 H747 0.929 . S
C759 C753 1.390 . S
C759 C756 1.386 . S
C760 C755 1.490 . S
C760 C762 1.395 . S
C760 C763 1.403 . S
H761 C767 0.930 . S
C762 H748 0.930 . S
C762 C760 1.395 . S
C762 C765 1.403 . S
C763 C760 1.403 . S
C763 C764 1.524 . S
C763 C767 1.400 . S
C764 H749 0.960 . S
C764 H750 0.960 . S
C764 H751 0.960 . S
C764 C763 1.524 . S
C765 C762 1.403 . S
C765 C766 1.392 . S
C765 C769 1.495 . S
C766 C765 1.392 . S
C766 C767 1.385 . S
C766 C768 1.478 . S
C767 H761 0.930 . S
C767 C763 1.400 . S
C767 C766 1.385 . S
C768 C766 1.478 . S
C768 C770 1.381 . S
C768 C774 1.383 . S
C769 C765 1.495 . S
C769 H775 0.959 . S
C769 H776 0.961 . S
C769 H777 0.960 . S
C770 C768 1.381 . S
C770 C771 1.394 . S
C770 H778 0.930 . S
C771 C770 1.394 . S
C771 C772 1.383 . S
C771 H779 0.929 . S
C772 C771 1.383 . S
C772 C773 1.377 . S
C773 H757 0.930 . S
C773 C772 1.377 . S
C773 C774 1.379 . S
C774 H758 0.931 . S
C774 C768 1.383 . S
C774 C773 1.379 . S
H775 C769 0.959 . S
H776 C769 0.961 . S
H777 C769 0.960 . S
H778 C770 0.930 . S
H779 C771 0.929 . S
H780 C788 0.929 . S
H781 C790 0.930 . S
H782 C792 0.930 . S
H783 C795 0.929 . S
H784 C798 0.930 . S
H785 C800 0.960 . S
H786 C800 0.960 . S
H787 C800 0.960 . S
C788 H780 0.929 . S
C788 C789 1.377 . S
C788 C790 1.384 . S
C789 C788 1.377 . S
C789 C795 1.390 . S
C790 H781 0.930 . S
C790 C788 1.384 . S
C790 C791 1.372 . S
C791 C790 1.372 . S
C791 C792 1.400 . S
C791 C796 1.490 . S
C792 H782 0.930 . S
C792 C791 1.400 . S
C792 C795 1.386 . S
H793 C809 0.930 . S
H794 C810 0.931 . S
C795 H783 0.929 . S
C795 C789 1.390 . S
C795 C792 1.386 . S
C796 C791 1.490 . S
C796 C798 1.395 . S
C796 C799 1.403 . S
H797 C803 0.930 . S
C798 H784 0.930 . S
C798 C796 1.395 . S
C798 C801 1.403 . S
C799 C796 1.403 . S
C799 C800 1.524 . S
C799 C803 1.400 . S
C800 H785 0.960 . S
C800 H786 0.960 . S
C800 H787 0.960 . S
C800 C799 1.524 . S
C801 C798 1.403 . S
C801 C802 1.392 . S
C801 C805 1.495 . S
C802 C801 1.392 . S
C802 C803 1.385 . S
C802 C804 1.478 . S
C803 H797 0.930 . S
C803 C799 1.400 . S
C803 C802 1.385 . S
C804 C802 1.478 . S
C804 C806 1.381 . S
C804 C810 1.383 . S
C805 C801 1.495 . S
C805 H811 0.959 . S
C805 H812 0.961 . S
C805 H813 0.960 . S
C806 C804 1.381 . S
C806 C807 1.394 . S
C806 H814 0.930 . S
C807 C806 1.394 . S
C807 C808 1.383 . S
C807 H815 0.929 . S
C808 C807 1.383 . S
C808 C809 1.377 . S
C809 H793 0.930 . S
C809 C808 1.377 . S
C809 C810 1.379 . S
C810 H794 0.931 . S
C810 C804 1.383 . S
C810 C809 1.379 . S
H811 C805 0.959 . S
H812 C805 0.961 . S
H813 C805 0.960 . S
H814 C806 0.930 . S
H815 C807 0.929 . S
H816 C824 0.929 . S
H817 C826 0.930 . S
H818 C828 0.930 . S
H819 C831 0.929 . S
H820 C834 0.930 . S
H821 C836 0.960 . S
H822 C836 0.960 . S
H823 C836 0.960 . S
C824 H816 0.929 . S
C824 C825 1.377 . S
C824 C826 1.384 . S
C825 C824 1.377 . S
C825 C831 1.390 . S
C826 H817 0.930 . S
C826 C824 1.384 . S
C826 C827 1.372 . S
C827 C826 1.372 . S
C827 C828 1.400 . S
C827 C832 1.490 . S
C828 H818 0.930 . S
C828 C827 1.400 . S
C828 C831 1.386 . S
H829 C845 0.930 . S
H830 C846 0.931 . S
C831 H819 0.929 . S
C831 C825 1.390 . S
C831 C828 1.386 . S
C832 C827 1.490 . S
C832 C834 1.395 . S
C832 C835 1.403 . S
H833 C839 0.930 . S
C834 H820 0.930 . S
C834 C832 1.395 . S
C834 C837 1.403 . S
C835 C832 1.403 . S
C835 C836 1.524 . S
C835 C839 1.400 . S
C836 H821 0.960 . S
C836 H822 0.960 . S
C836 H823 0.960 . S
C836 C835 1.524 . S
C837 C834 1.403 . S
C837 C838 1.392 . S
C837 C841 1.495 . S
C838 C837 1.392 . S
C838 C839 1.385 . S
C838 C840 1.478 . S
C839 H833 0.930 . S
C839 C835 1.400 . S
C839 C838 1.385 . S
C840 C838 1.478 . S
C840 C842 1.381 . S
C840 C846 1.383 . S
C841 C837 1.495 . S
C841 H847 0.959 . S
C841 H848 0.961 . S
C841 H849 0.960 . S
C842 C840 1.381 . S
C842 C843 1.394 . S
C842 H850 0.930 . S
C843 C842 1.394 . S
C843 C844 1.383 . S
C843 H851 0.929 . S
C844 C843 1.383 . S
C844 C845 1.377 . S
C845 H829 0.930 . S
C845 C844 1.377 . S
C845 C846 1.379 . S
C846 H830 0.931 . S
C846 C840 1.383 . S
C846 C845 1.379 . S
H847 C841 0.959 . S
H848 C841 0.961 . S
H849 C841 0.960 . S
H850 C842 0.930 . S
H851 C843 0.929 . S
H852 C860 0.929 . S
H853 C862 0.930 . S
H854 C864 0.930 . S
H855 C867 0.929 . S
H856 C870 0.930 . S
H857 C872 0.960 . S
H858 C872 0.960 . S
H859 C872 0.960 . S
C860 H852 0.929 . S
C860 C861 1.377 . S
C860 C862 1.384 . S
C861 C860 1.377 . S
C861 C867 1.390 . S
C862 H853 0.930 . S
C862 C860 1.384 . S
C862 C863 1.372 . S
C863 C862 1.372 . S
C863 C864 1.400 . S
C863 C868 1.490 . S
C864 H854 0.930 . S
C864 C863 1.400 . S
C864 C867 1.386 . S
H865 C881 0.930 . S
H866 C882 0.931 . S
C867 H855 0.929 . S
C867 C861 1.390 . S
C867 C864 1.386 . S
C868 C863 1.490 . S
C868 C870 1.395 . S
C868 C871 1.403 . S
H869 C875 0.930 . S
C870 H856 0.930 . S
C870 C868 1.395 . S
C870 C873 1.403 . S
C871 C868 1.403 . S
C871 C872 1.524 . S
C871 C875 1.400 . S
C872 H857 0.960 . S
C872 H858 0.960 . S
C872 H859 0.960 . S
C872 C871 1.524 . S
C873 C870 1.403 . S
C873 C874 1.392 . S
C873 C877 1.495 . S
C874 C873 1.392 . S
C874 C875 1.385 . S
C874 C876 1.478 . S
C875 H869 0.930 . S
C875 C871 1.400 . S
C875 C874 1.385 . S
C876 C874 1.478 . S
C876 C878 1.381 . S
C876 C882 1.383 . S
C877 C873 1.495 . S
C877 H883 0.959 . S
C877 H884 0.961 . S
C877 H885 0.960 . S
C878 C876 1.381 . S
C878 C879 1.394 . S
C878 H886 0.930 . S
C879 C878 1.394 . S
C879 C880 1.383 . S
C879 H887 0.929 . S
C880 C879 1.383 . S
C880 C881 1.377 . S
C881 H865 0.930 . S
C881 C880 1.377 . S
C881 C882 1.379 . S
C882 H866 0.931 . S
C882 C876 1.383 . S
C882 C881 1.379 . S
H883 C877 0.959 . S
H884 C877 0.961 . S
H885 C877 0.960 . S
H886 C878 0.930 . S
H887 C879 0.929 . S
H888 C896 0.929 . S
H889 C898 0.930 . S
H890 C900 0.930 . S
H891 C903 0.929 . S
H892 C906 0.930 . S
H893 C908 0.960 . S
H894 C908 0.960 . S
H895 C908 0.960 . S
C896 H888 0.929 . S
C896 C897 1.377 . S
C896 C898 1.384 . S
C897 C896 1.377 . S
C897 C903 1.390 . S
C898 H889 0.930 . S
C898 C896 1.384 . S
C898 C899 1.372 . S
C899 C898 1.372 . S
C899 C900 1.400 . S
C899 C904 1.490 . S
C900 H890 0.930 . S
C900 C899 1.400 . S
C900 C903 1.386 . S
H901 C917 0.930 . S
H902 C918 0.931 . S
C903 H891 0.929 . S
C903 C897 1.390 . S
C903 C900 1.386 . S
C904 C899 1.490 . S
C904 C906 1.395 . S
C904 C907 1.403 1_455 S
H905 C911 0.930 . S
C906 H892 0.930 . S
C906 C904 1.395 . S
C906 C909 1.403 . S
C907 C904 1.403 1_655 S
C907 C908 1.524 . S
C907 C911 1.400 . S
C908 H893 0.960 . S
C908 H894 0.960 . S
C908 H895 0.960 . S
C908 C907 1.524 . S
C909 C906 1.403 . S
C909 C910 1.392 1_455 S
C909 C913 1.495 . S
C910 C909 1.392 1_655 S
C910 C911 1.385 . S
C910 C912 1.478 . S
C911 H905 0.930 . S
C911 C907 1.400 . S
C911 C910 1.385 . S
C912 C910 1.478 . S
C912 C914 1.381 . S
C912 C918 1.383 . S
C913 C909 1.495 . S
C913 H919 0.959 . S
C913 H920 0.961 . S
C913 H921 0.960 . S
C914 C912 1.381 . S
C914 C915 1.394 . S
C914 H922 0.930 . S
C915 C914 1.394 . S
C915 C916 1.383 . S
C915 H923 0.929 . S
C916 C915 1.383 . S
C916 C917 1.377 . S
C917 H901 0.930 . S
C917 C916 1.377 . S
C917 C918 1.379 . S
C918 H902 0.931 . S
C918 C912 1.383 . S
C918 C917 1.379 . S
H919 C913 0.959 . S
H920 C913 0.961 . S
H921 C913 0.960 . S
H922 C914 0.930 . S
H923 C915 0.929 . S
H924 C932 0.929 . S
H925 C934 0.930 . S
H926 C936 0.930 . S
H927 C939 0.929 . S
H928 C942 0.930 . S
H929 C944 0.960 . S
H930 C944 0.960 . S
H931 C944 0.960 . S
C932 H924 0.929 . S
C932 C933 1.377 . S
C932 C934 1.384 . S
C933 C932 1.377 . S
C933 C939 1.390 . S
C934 H925 0.930 . S
C934 C932 1.384 . S
C934 C935 1.372 . S
C935 C934 1.372 . S
C935 C936 1.400 . S
C935 C940 1.490 . S
C936 H926 0.930 . S
C936 C935 1.400 . S
C936 C939 1.386 . S
H937 C953 0.930 . S
H938 C954 0.931 . S
C939 H927 0.929 . S
C939 C933 1.390 . S
C939 C936 1.386 . S
C940 C935 1.490 . S
C940 C942 1.395 . S
C940 C943 1.403 1_545 S
H941 C947 0.930 . S
C942 H928 0.930 . S
C942 C940 1.395 . S
C942 C945 1.403 . S
C943 C940 1.403 1_565 S
C943 C944 1.524 . S
C943 C947 1.400 . S
C944 H929 0.960 . S
C944 H930 0.960 . S
C944 H931 0.960 . S
C944 C943 1.524 . S
C945 C942 1.403 . S
C945 C946 1.392 1_545 S
C945 C949 1.495 . S
C946 C945 1.392 1_565 S
C946 C947 1.385 . S
C946 C948 1.478 . S
C947 H941 0.930 . S
C947 C943 1.400 . S
C947 C946 1.385 . S
C948 C946 1.478 . S
C948 C950 1.381 . S
C948 C954 1.383 . S
C949 C945 1.495 . S
C949 H955 0.959 . S
C949 H956 0.961 . S
C949 H957 0.960 . S
C950 C948 1.381 . S
C950 C951 1.394 . S
C950 H958 0.930 . S
C951 C950 1.394 . S
C951 C952 1.383 . S
C951 H959 0.929 . S
C952 C951 1.383 . S
C952 C953 1.377 . S
C953 H937 0.930 . S
C953 C952 1.377 . S
C953 C954 1.379 . S
C954 H938 0.931 . S
C954 C948 1.383 . S
C954 C953 1.379 . S
H955 C949 0.959 . S
H956 C949 0.961 . S
H957 C949 0.960 . S
H958 C950 0.930 . S
H959 C951 0.929 . S
H960 C968 0.929 . S
H961 C970 0.930 . S
H962 C972 0.930 . S
H963 C975 0.929 . S
H964 C978 0.930 . S
H965 C980 0.960 . S
H966 C980 0.960 . S
H967 C980 0.960 . S
C968 H960 0.929 . S
C968 C969 1.377 . S
C968 C970 1.384 . S
C969 C968 1.377 . S
C969 C975 1.390 . S
C970 H961 0.930 . S
C970 C968 1.384 . S
C970 C971 1.372 . S
C971 C970 1.372 . S
C971 C972 1.400 . S
C971 C976 1.490 . S
C972 H962 0.930 . S
C972 C971 1.400 . S
C972 C975 1.386 . S
H973 C989 0.930 . S
H974 C990 0.931 . S
C975 H963 0.929 . S
C975 C969 1.390 . S
C975 C972 1.386 . S
C976 C971 1.490 . S
C976 C978 1.395 . S
C976 C979 1.403 . S
H977 C983 0.930 . S
C978 H964 0.930 . S
C978 C976 1.395 . S
C978 C981 1.403 . S
C979 C976 1.403 . S
C979 C980 1.524 . S
C979 C983 1.400 . S
C980 H965 0.960 . S
C980 H966 0.960 . S
C980 H967 0.960 . S
C980 C979 1.524 . S
C981 C978 1.403 . S
C981 C982 1.392 . S
C981 C985 1.495 . S
C982 C981 1.392 . S
C982 C983 1.385 . S
C982 C984 1.478 . S
C983 H977 0.930 . S
C983 C979 1.400 . S
C983 C982 1.385 . S
C984 C982 1.478 . S
C984 C986 1.381 . S
C984 C990 1.383 . S
C985 C981 1.495 . S
C985 H991 0.959 . S
C985 H992 0.961 . S
C985 H993 0.960 . S
C986 C984 1.381 . S
C986 C987 1.394 . S
C986 H994 0.930 . S
C987 C986 1.394 . S
C987 C988 1.383 . S
C987 H995 0.929 . S
C988 C987 1.383 . S
C988 C989 1.377 . S
C989 H973 0.930 . S
C989 C988 1.377 . S
C989 C990 1.379 . S
C990 H974 0.931 . S
C990 C984 1.383 . S
C990 C989 1.379 . S
H991 C985 0.959 . S
H992 C985 0.961 . S
H993 C985 0.960 . S
H994 C986 0.930 . S
H995 C987 0.929 . S
H996 C1004 0.929 . S
H997 C1006 0.930 . S
H998 C1008 0.930 . S
H999 C1011 0.929 . S
H1000 C1014 0.930 . S
H1001 C1016 0.960 . S
H1002 C1016 0.960 . S
H1003 C1016 0.960 . S
C1004 H996 0.929 . S
C1004 C1005 1.377 . S
C1004 C1006 1.384 . S
C1005 C1004 1.377 . S
C1005 C1011 1.390 . S
C1006 H997 0.930 . S
C1006 C1004 1.384 . S
C1006 C1007 1.372 . S
C1007 C1006 1.372 . S
C1007 C1008 1.400 . S
C1007 C1012 1.490 . S
C1008 H998 0.930 . S
C1008 C1007 1.400 . S
C1008 C1011 1.386 . S
H1009 C1025 0.930 . S
H1010 C1026 0.931 . S
C1011 H999 0.929 . S
C1011 C1005 1.390 . S
C1011 C1008 1.386 . S
C1012 C1007 1.490 . S
C1012 C1014 1.395 . S
C1012 C1015 1.403 1_655 S
H1013 C1019 0.930 . S
C1014 H1000 0.930 . S
C1014 C1012 1.395 . S
C1014 C1017 1.403 . S
C1015 C1012 1.403 1_455 S
C1015 C1016 1.524 . S
C1015 C1019 1.400 . S
C1016 H1001 0.960 . S
C1016 H1002 0.960 . S
C1016 H1003 0.960 . S
C1016 C1015 1.524 . S
C1017 C1014 1.403 . S
C1017 C1018 1.392 1_655 S
C1017 C1021 1.495 . S
C1018 C1017 1.392 1_455 S
C1018 C1019 1.385 . S
C1018 C1020 1.478 . S
C1019 H1013 0.930 . S
C1019 C1015 1.400 . S
C1019 C1018 1.385 . S
C1020 C1018 1.478 . S
C1020 C1022 1.381 . S
C1020 C1026 1.383 . S
C1021 C1017 1.495 . S
C1021 H1027 0.959 . S
C1021 H1028 0.961 . S
C1021 H1029 0.960 . S
C1022 C1020 1.381 . S
C1022 C1023 1.394 . S
C1022 H1030 0.930 . S
C1023 C1022 1.394 . S
C1023 C1024 1.383 . S
C1023 H1031 0.929 . S
C1024 C1023 1.383 . S
C1024 C1025 1.377 . S
C1025 H1009 0.930 . S
C1025 C1024 1.377 . S
C1025 C1026 1.379 . S
C1026 H1010 0.931 . S
C1026 C1020 1.383 . S
C1026 C1025 1.379 . S
H1027 C1021 0.959 . S
H1028 C1021 0.961 . S
H1029 C1021 0.960 . S
H1030 C1022 0.930 . S
H1031 C1023 0.929 . S
H1032 C1040 0.929 . S
H1033 C1042 0.930 . S
H1034 C1044 0.930 . S
H1035 C1047 0.929 . S
H1036 C1050 0.930 . S
H1037 C1052 0.960 . S
H1038 C1052 0.960 . S
H1039 C1052 0.960 . S
C1040 H1032 0.929 . S
C1040 C1041 1.377 . S
C1040 C1042 1.384 . S
C1041 C1040 1.377 . S
C1041 C1047 1.390 . S
C1042 H1033 0.930 . S
C1042 C1040 1.384 . S
C1042 C1043 1.372 . S
C1043 C1042 1.372 . S
C1043 C1044 1.400 . S
C1043 C1048 1.490 . S
C1044 H1034 0.930 . S
C1044 C1043 1.400 . S
C1044 C1047 1.386 . S
H1045 C1061 0.930 . S
H1046 C1062 0.931 . S
C1047 H1035 0.929 . S
C1047 C1041 1.390 . S
C1047 C1044 1.386 . S
C1048 C1043 1.490 . S
C1048 C1050 1.395 1_565 S
C1048 C1051 1.403 . S
H1049 C1055 0.930 . S
C1050 H1036 0.930 . S
C1050 C1048 1.395 1_545 S
C1050 C1053 1.403 . S
C1051 C1048 1.403 . S
C1051 C1052 1.524 . S
C1051 C1055 1.400 . S
C1052 H1037 0.960 . S
C1052 H1038 0.960 . S
C1052 H1039 0.960 . S
C1052 C1051 1.524 . S
C1053 C1050 1.403 . S
C1053 C1054 1.392 . S
C1053 C1057 1.495 . S
C1054 C1053 1.392 . S
C1054 C1055 1.385 1_545 S
C1054 C1056 1.478 . S
C1055 H1049 0.930 . S
C1055 C1051 1.400 . S
C1055 C1054 1.385 1_565 S
C1056 C1054 1.478 . S
C1056 C1058 1.381 . S
C1056 C1062 1.383 . S
C1057 C1053 1.495 . S
C1057 H1063 0.959 . S
C1057 H1064 0.961 . S
C1057 H1065 0.960 . S
C1058 C1056 1.381 . S
C1058 C1059 1.394 . S
C1058 H1066 0.930 . S
C1059 C1058 1.394 . S
C1059 C1060 1.383 . S
C1059 H1067 0.929 . S
C1060 C1059 1.383 . S
C1060 C1061 1.377 . S
C1061 H1045 0.930 . S
C1061 C1060 1.377 . S
C1061 C1062 1.379 . S
C1062 H1046 0.931 . S
C1062 C1056 1.383 . S
C1062 C1061 1.379 . S
H1063 C1057 0.959 . S
H1064 C1057 0.961 . S
H1065 C1057 0.960 . S
H1066 C1058 0.930 . S
H1067 C1059 0.929 . S
H1068 C1076 0.929 . S
H1069 C1078 0.930 . S
H1070 C1080 0.930 . S
H1071 C1083 0.929 . S
H1072 C1086 0.930 . S
H1073 C1088 0.960 . S
H1074 C1088 0.960 . S
H1075 C1088 0.960 . S
C1076 H1068 0.929 . S
C1076 C1077 1.377 . S
C1076 C1078 1.384 . S
C1077 C1076 1.377 . S
C1077 C1083 1.390 . S
C1078 H1069 0.930 . S
C1078 C1076 1.384 . S
C1078 C1079 1.372 . S
C1079 C1078 1.372 . S
C1079 C1080 1.400 . S
C1079 C1084 1.490 . S
C1080 H1070 0.930 . S
C1080 C1079 1.400 . S
C1080 C1083 1.386 . S
H1081 C1097 0.930 . S
H1082 C1098 0.931 . S
C1083 H1071 0.929 . S
C1083 C1077 1.390 . S
C1083 C1080 1.386 . S
C1084 C1079 1.490 . S
C1084 C1086 1.395 . S
C1084 C1087 1.403 . S
H1085 C1091 0.930 . S
C1086 H1072 0.930 . S
C1086 C1084 1.395 . S
C1086 C1089 1.403 . S
C1087 C1084 1.403 . S
C1087 C1088 1.524 . S
C1087 C1091 1.400 . S
C1088 H1073 0.960 . S
C1088 H1074 0.960 . S
C1088 H1075 0.960 . S
C1088 C1087 1.524 . S
C1089 C1086 1.403 . S
C1089 C1090 1.392 . S
C1089 C1093 1.495 . S
C1090 C1089 1.392 . S
C1090 C1091 1.385 . S
C1090 C1092 1.478 . S
C1091 H1085 0.930 . S
C1091 C1087 1.400 . S
C1091 C1090 1.385 . S
C1092 C1090 1.478 . S
C1092 C1094 1.381 . S
C1092 C1098 1.383 . S
C1093 C1089 1.495 . S
C1093 H1099 0.959 . S
C1093 H1100 0.961 . S
C1093 H1101 0.960 . S
C1094 C1092 1.381 . S
C1094 C1095 1.394 . S
C1094 H1102 0.930 . S
C1095 C1094 1.394 . S
C1095 C1096 1.383 . S
C1095 H1103 0.929 . S
C1096 C1095 1.383 . S
C1096 C1097 1.377 . S
C1097 H1081 0.930 . S
C1097 C1096 1.377 . S
C1097 C1098 1.379 . S
C1098 H1082 0.931 . S
C1098 C1092 1.383 . S
C1098 C1097 1.379 . S
H1099 C1093 0.959 . S
H1100 C1093 0.961 . S
H1101 C1093 0.960 . S
H1102 C1094 0.930 . S
H1103 C1095 0.929 . S
H1104 C1112 0.929 . S
H1105 C1114 0.930 . S
H1106 C1116 0.930 . S
H1107 C1119 0.929 . S
H1108 C1122 0.930 . S
H1109 C1124 0.960 . S
H1110 C1124 0.960 . S
H1111 C1124 0.960 . S
C1112 H1104 0.929 . S
C1112 C1113 1.377 . S
C1112 C1114 1.384 . S
C1113 C1112 1.377 . S
C1113 C1119 1.390 . S
C1114 H1105 0.930 . S
C1114 C1112 1.384 . S
C1114 C1115 1.372 . S
C1115 C1114 1.372 . S
C1115 C1116 1.400 . S
C1115 C1120 1.490 . S
C1116 H1106 0.930 . S
C1116 C1115 1.400 . S
C1116 C1119 1.386 . S
H1117 C1133 0.930 . S
H1118 C1134 0.931 . S
C1119 H1107 0.929 . S
C1119 C1113 1.390 . S
C1119 C1116 1.386 . S
C1120 C1115 1.490 . S
C1120 C1122 1.395 1_655 S
C1120 C1123 1.403 . S
H1121 C1127 0.930 . S
C1122 H1108 0.930 . S
C1122 C1120 1.395 1_455 S
C1122 C1125 1.403 . S
C1123 C1120 1.403 . S
C1123 C1124 1.524 . S
C1123 C1127 1.400 . S
C1124 H1109 0.960 . S
C1124 H1110 0.960 . S
C1124 H1111 0.960 . S
C1124 C1123 1.524 . S
C1125 C1122 1.403 . S
C1125 C1126 1.392 . S
C1125 C1129 1.495 . S
C1126 C1125 1.392 . S
C1126 C1127 1.385 1_455 S
C1126 C1128 1.478 . S
C1127 H1121 0.930 . S
C1127 C1123 1.400 . S
C1127 C1126 1.385 1_655 S
C1128 C1126 1.478 . S
C1128 C1130 1.381 . S
C1128 C1134 1.383 . S
C1129 C1125 1.495 . S
C1129 H1135 0.959 . S
C1129 H1136 0.961 . S
C1129 H1137 0.960 . S
C1130 C1128 1.381 . S
C1130 C1131 1.394 . S
C1130 H1138 0.930 . S
C1131 C1130 1.394 . S
C1131 C1132 1.383 . S
C1131 H1139 0.929 . S
C1132 C1131 1.383 . S
C1132 C1133 1.377 . S
C1133 H1117 0.930 . S
C1133 C1132 1.377 . S
C1133 C1134 1.379 . S
C1134 H1118 0.931 . S
C1134 C1128 1.383 . S
C1134 C1133 1.379 . S
H1135 C1129 0.959 . S
H1136 C1129 0.961 . S
H1137 C1129 0.960 . S
H1138 C1130 0.930 . S
H1139 C1131 0.929 . S
H1140 C1148 0.929 . S
H1141 C1150 0.930 . S
H1142 C1152 0.930 . S
H1143 C1155 0.929 . S
H1144 C1158 0.930 . S
H1145 C1160 0.960 1_554 S
H1146 C1160 0.960 . S
H1147 C1160 0.960 . S
C1148 H1140 0.929 . S
C1148 C1149 1.377 . S
C1148 C1150 1.384 . S
C1149 C1148 1.377 . S
C1149 C1155 1.390 . S
C1150 H1141 0.930 . S
C1150 C1148 1.384 . S
C1150 C1151 1.372 . S
C1151 C1150 1.372 . S
C1151 C1152 1.400 . S
C1151 C1156 1.490 . S
C1152 H1142 0.930 . S
C1152 C1151 1.400 . S
C1152 C1155 1.386 . S
H1153 C1169 0.930 . S
H1154 C1170 0.931 . S
C1155 H1143 0.929 . S
C1155 C1149 1.390 . S
C1155 C1152 1.386 . S
C1156 C1151 1.490 . S
C1156 C1158 1.395 . S
C1156 C1159 1.403 . S
H1157 C1163 0.930 . S
C1158 H1144 0.930 . S
C1158 C1156 1.395 . S
C1158 C1161 1.403 1_566 S
C1159 C1156 1.403 . S
C1159 C1160 1.524 . S
C1159 C1163 1.400 1_566 S
C1160 H1145 0.960 1_556 S
C1160 H1146 0.960 . S
C1160 H1147 0.960 . S
C1160 C1159 1.524 . S
C1161 C1158 1.403 1_544 S
C1161 C1162 1.392 . S
C1161 C1165 1.495 . S
C1162 C1161 1.392 . S
C1162 C1163 1.385 . S
C1162 C1164 1.478 . S
C1163 H1157 0.930 . S
C1163 C1159 1.400 1_544 S
C1163 C1162 1.385 . S
C1164 C1162 1.478 . S
C1164 C1166 1.381 . S
C1164 C1170 1.383 . S
C1165 C1161 1.495 . S
C1165 H1171 0.959 1_554 S
C1165 H1172 0.961 . S
C1165 H1173 0.960 . S
C1166 C1164 1.381 . S
C1166 C1167 1.394 . S
C1166 H1174 0.930 . S
C1167 C1166 1.394 . S
C1167 C1168 1.383 . S
C1167 H1175 0.929 . S
C1168 C1167 1.383 . S
C1168 C1169 1.377 . S
C1169 H1153 0.930 . S
C1169 C1168 1.377 . S
C1169 C1170 1.379 . S
C1170 H1154 0.931 . S
C1170 C1164 1.383 . S
C1170 C1169 1.379 . S
H1171 C1165 0.959 1_556 S
H1172 C1165 0.961 . S
H1173 C1165 0.960 . S
H1174 C1166 0.930 . S
H1175 C1167 0.929 . S
H1176 C1184 0.929 . S
H1177 C1186 0.930 . S
H1178 C1188 0.930 . S
H1179 C1191 0.929 . S
H1180 C1194 0.930 . S
H1181 C1196 0.960 . S
H1182 C1196 0.960 . S
H1183 C1196 0.960 . S
C1184 H1176 0.929 . S
C1184 C1185 1.377 . S
C1184 C1186 1.384 . S
C1185 C1184 1.377 . S
C1185 C1191 1.390 . S
C1186 H1177 0.930 . S
C1186 C1184 1.384 . S
C1186 C1187 1.372 . S
C1187 C1186 1.372 . S
C1187 C1188 1.400 . S
C1187 C1192 1.490 . S
C1188 H1178 0.930 . S
C1188 C1187 1.400 . S
C1188 C1191 1.386 . S
H1189 C1205 0.930 . S
H1190 C1206 0.931 . S
C1191 H1179 0.929 . S
C1191 C1185 1.390 . S
C1191 C1188 1.386 . S
C1192 C1187 1.490 . S
C1192 C1194 1.395 . S
C1192 C1195 1.403 . S
H1193 C1199 0.930 . S
C1194 H1180 0.930 . S
C1194 C1192 1.395 . S
C1194 C1197 1.403 . S
C1195 C1192 1.403 . S
C1195 C1196 1.524 . S
C1195 C1199 1.400 . S
C1196 H1181 0.960 . S
C1196 H1182 0.960 . S
C1196 H1183 0.960 . S
C1196 C1195 1.524 . S
C1197 C1194 1.403 . S
C1197 C1198 1.392 . S
C1197 C1201 1.495 . S
C1198 C1197 1.392 . S
C1198 C1199 1.385 . S
C1198 C1200 1.478 . S
C1199 H1193 0.930 . S
C1199 C1195 1.400 . S
C1199 C1198 1.385 . S
C1200 C1198 1.478 . S
C1200 C1202 1.381 . S
C1200 C1206 1.383 . S
C1201 C1197 1.495 . S
C1201 H1207 0.959 . S
C1201 H1208 0.961 . S
C1201 H1209 0.960 . S
C1202 C1200 1.381 . S
C1202 C1203 1.394 . S
C1202 H1210 0.930 . S
C1203 C1202 1.394 . S
C1203 C1204 1.383 . S
C1203 H1211 0.929 . S
C1204 C1203 1.383 . S
C1204 C1205 1.377 . S
C1205 H1189 0.930 . S
C1205 C1204 1.377 . S
C1205 C1206 1.379 . S
C1206 H1190 0.931 . S
C1206 C1200 1.383 . S
C1206 C1205 1.379 . S
H1207 C1201 0.959 . S
H1208 C1201 0.961 . S
H1209 C1201 0.960 . S
H1210 C1202 0.930 . S
H1211 C1203 0.929 . S
H1212 C1220 0.929 . S
H1213 C1222 0.930 . S
H1214 C1224 0.930 . S
H1215 C1227 0.929 . S
H1216 C1230 0.930 . S
H1217 C1232 0.960 . S
H1218 C1232 0.960 . S
H1219 C1232 0.960 . S
C1220 H1212 0.929 . S
C1220 C1221 1.377 . S
C1220 C1222 1.384 . S
C1221 C1220 1.377 . S
C1221 C1227 1.390 . S
C1222 H1213 0.930 . S
C1222 C1220 1.384 . S
C1222 C1223 1.372 . S
C1223 C1222 1.372 . S
C1223 C1224 1.400 . S
C1223 C1228 1.490 . S
C1224 H1214 0.930 . S
C1224 C1223 1.400 . S
C1224 C1227 1.386 . S
H1225 C1241 0.930 . S
H1226 C1242 0.931 . S
C1227 H1215 0.929 . S
C1227 C1221 1.390 . S
C1227 C1224 1.386 . S
C1228 C1223 1.490 . S
C1228 C1230 1.395 1_455 S
C1228 C1231 1.403 . S
H1229 C1235 0.930 . S
C1230 H1216 0.930 . S
C1230 C1228 1.395 1_655 S
C1230 C1233 1.403 . S
C1231 C1228 1.403 . S
C1231 C1232 1.524 . S
C1231 C1235 1.400 . S
C1232 H1217 0.960 . S
C1232 H1218 0.960 . S
C1232 H1219 0.960 . S
C1232 C1231 1.524 . S
C1233 C1230 1.403 . S
C1233 C1234 1.392 . S
C1233 C1237 1.495 . S
C1234 C1233 1.392 . S
C1234 C1235 1.385 1_655 S
C1234 C1236 1.478 . S
C1235 H1229 0.930 . S
C1235 C1231 1.400 . S
C1235 C1234 1.385 1_455 S
C1236 C1234 1.478 . S
C1236 C1238 1.381 . S
C1236 C1242 1.383 . S
C1237 C1233 1.495 . S
C1237 H1243 0.959 . S
C1237 H1244 0.961 . S
C1237 H1245 0.960 . S
C1238 C1236 1.381 . S
C1238 C1239 1.394 . S
C1238 H1246 0.930 . S
C1239 C1238 1.394 . S
C1239 C1240 1.383 . S
C1239 H1247 0.929 . S
C1240 C1239 1.383 . S
C1240 C1241 1.377 . S
C1241 H1225 0.930 . S
C1241 C1240 1.377 . S
C1241 C1242 1.379 . S
C1242 H1226 0.931 . S
C1242 C1236 1.383 . S
C1242 C1241 1.379 . S
H1243 C1237 0.959 . S
H1244 C1237 0.961 . S
H1245 C1237 0.960 . S
H1246 C1238 0.930 . S
H1247 C1239 0.929 . S
H1248 C1256 0.929 . S
H1249 C1258 0.930 . S
H1250 C1260 0.930 . S
H1251 C1263 0.929 . S
H1252 C1266 0.930 . S
H1253 C1268 0.960 . S
H1254 C1268 0.960 . S
H1255 C1268 0.923 1_554 S
C1256 H1248 0.929 . S
C1256 C1257 1.377 . S
C1256 C1258 1.384 . S
C1257 C1256 1.377 . S
C1257 C1263 1.390 . S
C1258 H1249 0.930 . S
C1258 C1256 1.384 . S
C1258 C1259 1.372 . S
C1259 C1258 1.372 . S
C1259 C1260 1.400 . S
C1259 C1264 1.490 . S
C1260 H1250 0.930 . S
C1260 C1259 1.400 . S
C1260 C1263 1.386 . S
H1261 C1277 0.930 . S
H1262 C1278 0.931 . S
C1263 H1251 0.929 . S
C1263 C1257 1.390 . S
C1263 C1260 1.386 . S
C1264 C1259 1.490 . S
C1264 C1266 1.395 1_565 S
C1264 C1267 1.403 1_554 S
H1265 C1271 0.930 . S
C1266 H1252 0.930 . S
C1266 C1264 1.395 1_545 S
C1266 C1269 1.403 . S
C1267 C1264 1.403 1_556 S
C1267 C1268 1.524 . S
C1267 C1271 1.400 . S
C1268 H1253 0.960 . S
C1268 H1254 0.960 . S
C1268 H1255 0.923 1_556 S
C1268 C1267 1.524 . S
C1269 C1266 1.403 . S
C1269 C1270 1.392 1_554 S
C1269 C1273 1.495 . S
C1270 C1269 1.392 1_556 S
C1270 C1271 1.385 1_545 S
C1270 C1272 1.478 . S
C1271 H1265 0.930 . S
C1271 C1267 1.400 . S
C1271 C1270 1.385 1_565 S
C1272 C1270 1.478 . S
C1272 C1274 1.381 . S
C1272 C1278 1.383 . S
C1273 C1269 1.495 . S
C1273 H1279 0.959 . S
C1273 H1280 0.961 . S
C1273 H1281 0.964 1_554 S
C1274 C1272 1.381 . S
C1274 C1275 1.394 . S
C1274 H1282 0.930 . S
C1275 C1274 1.394 . S
C1275 C1276 1.383 . S
C1275 H1283 0.929 . S
C1276 C1275 1.383 . S
C1276 C1277 1.377 . S
C1277 H1261 0.930 . S
C1277 C1276 1.377 . S
C1277 C1278 1.379 . S
C1278 H1262 0.931 . S
C1278 C1272 1.383 . S
C1278 C1277 1.379 . S
H1279 C1273 0.959 . S
H1280 C1273 0.961 . S
H1281 C1273 0.964 1_556 S
H1282 C1274 0.930 . S
H1283 C1275 0.929 . S
H1284 C1292 0.929 . S
H1285 C1294 0.930 . S
H1286 C1296 0.930 . S
H1287 C1299 0.929 . S
H1288 C1302 0.930 . S
H1289 C1304 0.960 . S
H1290 C1304 0.960 . S
H1291 C1304 0.960 . S
C1292 H1284 0.929 . S
C1292 C1293 1.377 . S
C1292 C1294 1.384 . S
C1293 C1292 1.377 . S
C1293 C1299 1.390 . S
C1294 H1285 0.930 . S
C1294 C1292 1.384 . S
C1294 C1295 1.372 . S
C1295 C1294 1.372 . S
C1295 C1296 1.400 . S
C1295 C1300 1.490 1_655 S
C1296 H1286 0.930 . S
C1296 C1295 1.400 . S
C1296 C1299 1.386 . S
H1297 C1313 0.930 . S
H1298 C1314 0.931 . S
C1299 H1287 0.929 . S
C1299 C1293 1.390 . S
C1299 C1296 1.386 . S
C1300 C1295 1.490 1_455 S
C1300 C1302 1.395 . S
C1300 C1303 1.403 . S
H1301 C1307 0.930 . S
C1302 H1288 0.930 . S
C1302 C1300 1.395 . S
C1302 C1305 1.403 . S
C1303 C1300 1.403 . S
C1303 C1304 1.524 1_455 S
C1303 C1307 1.400 . S
C1304 H1289 0.960 . S
C1304 H1290 0.960 . S
C1304 H1291 0.960 . S
C1304 C1303 1.524 1_655 S
C1305 C1302 1.403 . S
C1305 C1306 1.392 . S
C1305 C1309 1.495 . S
C1306 C1305 1.392 . S
C1306 C1307 1.385 . S
C1306 C1308 1.478 . S
C1307 H1301 0.930 . S
C1307 C1303 1.400 . S
C1307 C1306 1.385 . S
C1308 C1306 1.478 . S
C1308 C1310 1.381 . S
C1308 C1314 1.383 . S
C1309 C1305 1.495 . S
C1309 H1315 0.959 . S
C1309 H1316 0.961 . S
C1309 H1317 0.960 . S
C1310 C1308 1.381 . S
C1310 C1311 1.394 . S
C1310 H1318 0.930 . S
C1311 C1310 1.394 . S
C1311 C1312 1.383 . S
C1311 H1319 0.929 . S
C1312 C1311 1.383 . S
C1312 C1313 1.377 . S
C1313 H1297 0.930 . S
C1313 C1312 1.377 . S
C1313 C1314 1.379 . S
C1314 H1298 0.931 . S
C1314 C1308 1.383 . S
C1314 C1313 1.379 . S
H1315 C1309 0.959 . S
H1316 C1309 0.961 . S
H1317 C1309 0.960 . S
H1318 C1310 0.930 . S
H1319 C1311 0.929 . S
H1320 C1328 0.929 . S
H1321 C1330 0.930 . S
H1322 C1332 0.930 . S
H1323 C1335 0.929 . S
H1324 C1338 0.930 . S
H1325 C1340 0.960 . S
H1326 C1340 0.960 . S
H1327 C1340 0.960 . S
C1328 H1320 0.929 . S
C1328 C1329 1.377 . S
C1328 C1330 1.384 . S
C1329 C1328 1.377 . S
C1329 C1335 1.390 . S
C1330 H1321 0.930 . S
C1330 C1328 1.384 . S
C1330 C1331 1.372 . S
C1331 C1330 1.372 . S
C1331 C1332 1.400 . S
C1331 C1336 1.490 . S
C1332 H1322 0.930 . S
C1332 C1331 1.400 . S
C1332 C1335 1.386 . S
H1333 C1349 0.930 . S
H1334 C1350 0.931 . S
C1335 H1323 0.929 . S
C1335 C1329 1.390 . S
C1335 C1332 1.386 . S
C1336 C1331 1.490 . S
C1336 C1338 1.394 . S
C1336 C1339 1.403 . S
H1337 C1343 0.930 . S
C1338 H1324 0.930 . S
C1338 C1336 1.394 . S
C1338 C1341 1.404 1_545 S
C1339 C1336 1.403 . S
C1339 C1340 1.524 . S
C1339 C1343 1.400 1_545 S
C1340 H1325 0.960 . S
C1340 H1326 0.960 . S
C1340 H1327 0.960 . S
C1340 C1339 1.524 . S
C1341 C1338 1.404 1_565 S
C1341 C1342 1.392 . S
C1341 C1345 1.495 . S
C1342 C1341 1.392 . S
C1342 C1343 1.385 . S
C1342 C1344 1.478 . S
C1343 H1337 0.930 . S
C1343 C1339 1.400 1_565 S
C1343 C1342 1.385 . S
C1344 C1342 1.478 . S
C1344 C1346 1.381 . S
C1344 C1350 1.383 . S
C1345 C1341 1.495 . S
C1345 H1351 0.959 . S
C1345 H1352 0.961 . S
C1345 H1353 0.960 . S
C1346 C1344 1.381 . S
C1346 C1347 1.394 . S
C1346 H1354 0.930 . S
C1347 C1346 1.394 . S
C1347 C1348 1.383 . S
C1347 H1355 0.929 . S
C1348 C1347 1.383 . S
C1348 C1349 1.377 . S
C1349 H1333 0.930 . S
C1349 C1348 1.377 . S
C1349 C1350 1.379 . S
C1350 H1334 0.931 . S
C1350 C1344 1.383 . S
C1350 C1349 1.379 . S
H1351 C1345 0.959 . S
H1352 C1345 0.961 . S
H1353 C1345 0.960 . S
H1354 C1346 0.930 . S
H1355 C1347 0.929 . S
H1356 C1364 0.929 . S
H1357 C1366 0.930 . S
H1358 C1368 0.930 . S
H1359 C1371 0.929 . S
H1360 C1374 0.930 . S
H1361 C1376 0.960 . S
H1362 C1376 0.960 . S
H1363 C1376 0.960 . S
C1364 H1356 0.929 . S
C1364 C1365 1.377 . S
C1364 C1366 1.384 . S
C1365 C1364 1.377 . S
C1365 C1371 1.390 . S
C1366 H1357 0.930 . S
C1366 C1364 1.384 . S
C1366 C1367 1.372 . S
C1367 C1366 1.372 . S
C1367 C1368 1.400 . S
C1367 C1372 1.490 . S
C1368 H1358 0.930 . S
C1368 C1367 1.400 . S
C1368 C1371 1.386 . S
H1369 C1385 0.930 . S
H1370 C1386 0.931 . S
C1371 H1359 0.929 . S
C1371 C1365 1.390 . S
C1371 C1368 1.386 . S
C1372 C1367 1.490 . S
C1372 C1374 1.395 . S
C1372 C1375 1.403 . S
H1373 C1379 0.930 . S
C1374 H1360 0.930 . S
C1374 C1372 1.395 . S
C1374 C1377 1.403 . S
C1375 C1372 1.403 . S
C1375 C1376 1.524 . S
C1375 C1379 1.400 . S
C1376 H1361 0.960 . S
C1376 H1362 0.960 . S
C1376 H1363 0.960 . S
C1376 C1375 1.524 . S
C1377 C1374 1.403 . S
C1377 C1378 1.392 . S
C1377 C1381 1.495 . S
C1378 C1377 1.392 . S
C1378 C1379 1.385 . S
C1378 C1380 1.478 . S
C1379 H1373 0.930 . S
C1379 C1375 1.400 . S
C1379 C1378 1.385 . S
C1380 C1378 1.478 . S
C1380 C1382 1.381 . S
C1380 C1386 1.383 . S
C1381 C1377 1.495 . S
C1381 H1387 0.959 . S
C1381 H1388 0.961 . S
C1381 H1389 0.960 . S
C1382 C1380 1.381 . S
C1382 C1383 1.394 . S
C1382 H1390 0.930 . S
C1383 C1382 1.394 . S
C1383 C1384 1.383 . S
C1383 H1391 0.929 . S
C1384 C1383 1.383 . S
C1384 C1385 1.377 . S
C1385 H1369 0.930 . S
C1385 C1384 1.377 . S
C1385 C1386 1.379 . S
C1386 H1370 0.931 . S
C1386 C1380 1.383 . S
C1386 C1385 1.379 . S
H1387 C1381 0.959 . S
H1388 C1381 0.961 . S
H1389 C1381 0.960 . S
H1390 C1382 0.930 . S
H1391 C1383 0.929 . S
H1392 C1400 0.929 . S
H1393 C1402 0.930 . S
H1394 C1404 0.930 . S
H1395 C1407 0.929 . S
H1396 C1410 0.930 . S
H1397 C1412 0.960 . S
H1398 C1412 0.960 . S
H1399 C1412 0.960 . S
C1400 H1392 0.929 . S
C1400 C1401 1.377 . S
C1400 C1402 1.384 . S
C1401 C1400 1.377 . S
C1401 C1407 1.390 . S
C1402 H1393 0.930 . S
C1402 C1400 1.384 . S
C1402 C1403 1.372 . S
C1403 C1402 1.372 . S
C1403 C1404 1.400 . S
C1403 C1408 1.490 . S
C1404 H1394 0.930 . S
C1404 C1403 1.400 . S
C1404 C1407 1.386 . S
H1405 C1421 0.930 . S
H1406 C1422 0.931 . S
C1407 H1395 0.929 . S
C1407 C1401 1.390 . S
C1407 C1404 1.386 . S
C1408 C1403 1.490 . S
C1408 C1410 1.395 . S
C1408 C1411 1.403 . S
H1409 C1415 0.930 1_455 S
C1410 H1396 0.930 . S
C1410 C1408 1.395 . S
C1410 C1413 1.403 . S
C1411 C1408 1.403 . S
C1411 C1412 1.524 . S
C1411 C1415 1.400 . S
C1412 H1397 0.960 . S
C1412 H1398 0.960 . S
C1412 H1399 0.960 . S
C1412 C1411 1.524 . S
C1413 C1410 1.403 . S
C1413 C1414 1.392 . S
C1413 C1417 1.495 . S
C1414 C1413 1.392 . S
C1414 C1415 1.385 . S
C1414 C1416 1.478 1_655 S
C1415 H1409 0.930 1_655 S
C1415 C1411 1.400 . S
C1415 C1414 1.385 . S
C1416 C1414 1.478 1_455 S
C1416 C1418 1.381 . S
C1416 C1422 1.383 . S
C1417 C1413 1.495 . S
C1417 H1423 0.959 . S
C1417 H1424 0.961 . S
C1417 H1425 0.960 . S
C1418 C1416 1.381 . S
C1418 C1419 1.394 . S
C1418 H1426 0.930 . S
C1419 C1418 1.394 . S
C1419 C1420 1.383 . S
C1419 H1427 0.929 . S
C1420 C1419 1.383 . S
C1420 C1421 1.377 . S
C1421 H1405 0.930 . S
C1421 C1420 1.377 . S
C1421 C1422 1.379 . S
C1422 H1406 0.931 . S
C1422 C1416 1.383 . S
C1422 C1421 1.379 . S
H1423 C1417 0.959 . S
H1424 C1417 0.961 . S
H1425 C1417 0.960 . S
H1426 C1418 0.930 . S
H1427 C1419 0.929 . S
H1428 C1436 0.929 . S
H1429 C1438 0.930 . S
H1430 C1440 0.930 . S
H1431 C1443 0.929 . S
H1432 C1446 0.930 . S
H1433 C1448 0.960 . S
H1434 C1448 0.960 . S
H1435 C1448 0.960 . S
C1436 H1428 0.929 . S
C1436 C1437 1.377 . S
C1436 C1438 1.384 . S
C1437 C1436 1.377 . S
C1437 C1443 1.390 . S
C1438 H1429 0.930 . S
C1438 C1436 1.384 . S
C1438 C1439 1.372 . S
C1439 C1438 1.372 . S
C1439 C1440 1.400 . S
C1439 C1444 1.490 . S
C1440 H1430 0.930 . S
C1440 C1439 1.400 . S
C1440 C1443 1.386 . S
H1441 C1457 0.930 . S
H1442 C1458 0.931 . S
C1443 H1431 0.929 . S
C1443 C1437 1.390 . S
C1443 C1440 1.386 . S
C1444 C1439 1.490 . S
C1444 C1446 1.395 . S
C1444 C1447 1.403 . S
H1445 C1451 0.930 . S
C1446 H1432 0.930 . S
C1446 C1444 1.395 . S
C1446 C1449 1.403 1_565 S
C1447 C1444 1.403 . S
C1447 C1448 1.524 . S
C1447 C1451 1.400 1_565 S
C1448 H1433 0.960 . S
C1448 H1434 0.960 . S
C1448 H1435 0.960 . S
C1448 C1447 1.524 . S
C1449 C1446 1.403 1_545 S
C1449 C1450 1.392 . S
C1449 C1453 1.495 . S
C1450 C1449 1.392 . S
C1450 C1451 1.385 . S
C1450 C1452 1.478 . S
C1451 H1445 0.930 . S
C1451 C1447 1.400 1_545 S
C1451 C1450 1.385 . S
C1452 C1450 1.478 . S
C1452 C1454 1.381 . S
C1452 C1458 1.383 . S
C1453 C1449 1.495 . S
C1453 H1459 0.959 . S
C1453 H1460 0.961 . S
C1453 H1461 0.960 . S
C1454 C1452 1.381 . S
C1454 C1455 1.394 . S
C1454 H1462 0.930 . S
C1455 C1454 1.394 . S
C1455 C1456 1.383 . S
C1455 H1463 0.929 . S
C1456 C1455 1.383 . S
C1456 C1457 1.377 . S
C1457 H1441 0.930 . S
C1457 C1456 1.377 . S
C1457 C1458 1.379 . S
C1458 H1442 0.931 . S
C1458 C1452 1.383 . S
C1458 C1457 1.379 . S
H1459 C1453 0.959 . S
H1460 C1453 0.961 . S
H1461 C1453 0.960 . S
H1462 C1454 0.930 . S
H1463 C1455 0.929 . S
H1464 C1472 0.929 . S
H1465 C1474 0.930 . S
H1466 C1476 0.930 . S
H1467 C1479 0.929 . S
H1468 C1482 0.930 . S
H1469 C1484 0.960 . S
H1470 C1484 0.960 . S
H1471 C1484 0.960 . S
C1472 H1464 0.929 . S
C1472 C1473 1.377 . S
C1472 C1474 1.384 . S
C1473 C1472 1.377 . S
C1473 C1479 1.390 . S
C1474 H1465 0.930 . S
C1474 C1472 1.384 . S
C1474 C1475 1.372 . S
C1475 C1474 1.372 . S
C1475 C1476 1.400 . S
C1475 C1480 1.490 . S
C1476 H1466 0.930 . S
C1476 C1475 1.400 . S
C1476 C1479 1.386 . S
H1477 C1493 0.930 . S
H1478 C1494 0.931 . S
C1479 H1467 0.929 . S
C1479 C1473 1.390 . S
C1479 C1476 1.386 . S
C1480 C1475 1.490 . S
C1480 C1482 1.395 . S
C1480 C1483 1.403 . S
H1481 C1487 0.930 . S
C1482 H1468 0.930 . S
C1482 C1480 1.395 . S
C1482 C1485 1.403 . S
C1483 C1480 1.403 . S
C1483 C1484 1.524 . S
C1483 C1487 1.400 . S
C1484 H1469 0.960 . S
C1484 H1470 0.960 . S
C1484 H1471 0.960 . S
C1484 C1483 1.524 . S
C1485 C1482 1.403 . S
C1485 C1486 1.392 . S
C1485 C1489 1.495 . S
C1486 C1485 1.392 . S
C1486 C1487 1.385 . S
C1486 C1488 1.478 . S
C1487 H1481 0.930 . S
C1487 C1483 1.400 . S
C1487 C1486 1.385 . S
C1488 C1486 1.478 . S
C1488 C1490 1.381 . S
C1488 C1494 1.383 . S
C1489 C1485 1.495 . S
C1489 H1495 0.959 . S
C1489 H1496 0.961 . S
C1489 H1497 0.960 . S
C1490 C1488 1.381 . S
C1490 C1491 1.394 . S
C1490 H1498 0.930 . S
C1491 C1490 1.394 . S
C1491 C1492 1.383 . S
C1491 H1499 0.929 . S
C1492 C1491 1.383 . S
C1492 C1493 1.377 . S
C1493 H1477 0.930 . S
C1493 C1492 1.377 . S
C1493 C1494 1.379 . S
C1494 H1478 0.931 . S
C1494 C1488 1.383 . S
C1494 C1493 1.379 . S
H1495 C1489 0.959 . S
H1496 C1489 0.961 . S
H1497 C1489 0.960 . S
H1498 C1490 0.930 . S
H1499 C1491 0.929 . S
C645 C463 1.902 . S
C664 C22 1.884 . S
C681 C75 1.972 . S
C700 C499 1.974 . S
C717 C145 1.910 . S
C736 C552 1.918 . S
C753 C181 1.903 . S
C772 C622 1.889 . S
C789 C340 1.971 . S
C808 C234 1.953 . S
C825 C304 1.904 . S
C844 C393 1.896 . S
C861 C197 2.209 . S
C880 C38 2.199 . S
C897 C250 2.155 . S
C916 C91 2.150 . S
C933 C294 1.330 . S
C952 C135 1.323 . S
C969 C356 2.156 . S
C988 C515 2.160 . S
C1005 C409 2.208 . S
C1024 C568 2.205 . S
C1041 C453 1.336 . S
C1060 C612 1.336 . S
C1077 C29 1.827 . S
C1096 C506 1.836 . S
C1113 C82 1.819 . S
C1132 C559 1.818 . S
C1149 C144 1.493 . S
C1168 C621 1.472 . S
C1185 C347 1.823 . S
C1204 C188 1.837 . S
C1221 C241 1.822 . S
C1240 C400 1.809 . S
C1257 C462 1.489 . S
C1276 C303 1.480 . S
C1293 C605 1.684 . S
C1312 C39 1.668 . S
C1329 C92 2.094 . S
C1348 C357 2.083 . S
C1365 C410 1.689 . S
C1384 C128 1.673 . S
C1401 C198 1.688 . S
C1420 C446 1.687 . S
C1437 C251 2.095 . S
C1456 C516 2.089 . S
C1473 C569 1.692 . S
C1492 C287 1.701 . S
