# Generated by pormake.
# Topology ukc, (4)-cn, num edge types: 1
# Building blocks:
#     Node 0, Type 0, BuildingBlock: AZAVOO_clean_sbu_0, # of connection points: 4
#     Node 1, Type 0, BuildingBlock: AZAVOO_clean_sbu_0, # of connection points: 4
#     Node 2, Type 0, BuildingBlock: AZAVOO_clean_sbu_0, # of connection points: 4
#     Node 3, Type 0, BuildingBlock: AZAVOO_clean_sbu_0, # of connection points: 4
#     Node 4, Type 0, BuildingBlock: AZAVOO_clean_sbu_0, # of connection points: 4
#     Node 5, Type 0, BuildingBlock: AZAVOO_clean_sbu_0, # of connection points: 4
#     Node 6, Type 0, BuildingBlock: AZAVOO_clean_sbu_0, # of connection points: 4
#     Node 7, Type 0, BuildingBlock: AZAVOO_clean_sbu_0, # of connection points: 4
#     Node 8, Type 0, BuildingBlock: AZAVOO_clean_sbu_0, # of connection points: 4
#     Node 9, Type 0, BuildingBlock: AZAVOO_clean_sbu_0, # of connection points: 4
#     Node 10, Type 0, BuildingBlock: AZAVOO_clean_sbu_0, # of connection points: 4
#     Node 11, Type 0, BuildingBlock: AZAVOO_clean_sbu_0, # of connection points: 4
#     Node 12, Type 0, BuildingBlock: AZAVOO_clean_sbu_0, # of connection points: 4
#     Node 13, Type 0, BuildingBlock: AZAVOO_clean_sbu_0, # of connection points: 4
#     Node 14, Type 0, BuildingBlock: AZAVOO_clean_sbu_0, # of connection points: 4
#     Node 15, Type 0, BuildingBlock: AZAVOO_clean_sbu_0, # of connection points: 4
#     Node 16, Type 0, BuildingBlock: AZAVOO_clean_sbu_0, # of connection points: 4
#     Node 17, Type 0, BuildingBlock: AZAVOO_clean_sbu_0, # of connection points: 4
#     Node 18, Type 0, BuildingBlock: AZAVOO_clean_sbu_0, # of connection points: 4
#     Node 19, Type 0, BuildingBlock: AZAVOO_clean_sbu_0, # of connection points: 4
#     Node 20, Type 0, BuildingBlock: AZAVOO_clean_sbu_0, # of connection points: 4
#     Node 21, Type 0, BuildingBlock: AZAVOO_clean_sbu_0, # of connection points: 4
#     Node 22, Type 0, BuildingBlock: AZAVOO_clean_sbu_0, # of connection points: 4
#     Node 23, Type 0, BuildingBlock: AZAVOO_clean_sbu_0, # of connection points: 4
#     Node 24, Type 0, BuildingBlock: AZAVOO_clean_sbu_0, # of connection points: 4
#     Node 25, Type 0, BuildingBlock: AZAVOO_clean_sbu_0, # of connection points: 4
#     Node 26, Type 0, BuildingBlock: AZAVOO_clean_sbu_0, # of connection points: 4
#     Node 27, Type 0, BuildingBlock: AZAVOO_clean_sbu_0, # of connection points: 4
#     Node 28, Type 0, BuildingBlock: AZAVOO_clean_sbu_0, # of connection points: 4
#     Node 29, Type 0, BuildingBlock: AZAVOO_clean_sbu_0, # of connection points: 4
#     Node 30, Type 0, BuildingBlock: AZAVOO_clean_sbu_0, # of connection points: 4
#     Node 31, Type 0, BuildingBlock: AZAVOO_clean_sbu_0, # of connection points: 4
#     Edge 32, Type (0, 0), BuildingBlock: KIFKEQ_clean_linker_1, # of connection points: 2
#     Edge 33, Type (0, 0), BuildingBlock: KIFKEQ_clean_linker_1, # of connection points: 2
#     Edge 34, Type (0, 0), BuildingBlock: KIFKEQ_clean_linker_1, # of connection points: 2
#     Edge 35, Type (0, 0), BuildingBlock: KIFKEQ_clean_linker_1, # of connection points: 2
#     Edge 36, Type (0, 0), BuildingBlock: KIFKEQ_clean_linker_1, # of connection points: 2
#     Edge 37, Type (0, 0), BuildingBlock: KIFKEQ_clean_linker_1, # of connection points: 2
#     Edge 38, Type (0, 0), BuildingBlock: KIFKEQ_clean_linker_1, # of connection points: 2
#     Edge 39, Type (0, 0), BuildingBlock: KIFKEQ_clean_linker_1, # of connection points: 2
#     Edge 40, Type (0, 0), BuildingBlock: KIFKEQ_clean_linker_1, # of connection points: 2
#     Edge 41, Type (0, 0), BuildingBlock: KIFKEQ_clean_linker_1, # of connection points: 2
#     Edge 42, Type (0, 0), BuildingBlock: KIFKEQ_clean_linker_1, # of connection points: 2
#     Edge 43, Type (0, 0), BuildingBlock: KIFKEQ_clean_linker_1, # of connection points: 2
#     Edge 44, Type (0, 0), BuildingBlock: KIFKEQ_clean_linker_1, # of connection points: 2
#     Edge 45, Type (0, 0), BuildingBlock: KIFKEQ_clean_linker_1, # of connection points: 2
#     Edge 46, Type (0, 0), BuildingBlock: KIFKEQ_clean_linker_1, # of connection points: 2
#     Edge 47, Type (0, 0), BuildingBlock: KIFKEQ_clean_linker_1, # of connection points: 2
#     Edge 48, Type (0, 0), BuildingBlock: KIFKEQ_clean_linker_1, # of connection points: 2
#     Edge 49, Type (0, 0), BuildingBlock: KIFKEQ_clean_linker_1, # of connection points: 2
#     Edge 50, Type (0, 0), BuildingBlock: KIFKEQ_clean_linker_1, # of connection points: 2
#     Edge 51, Type (0, 0), BuildingBlock: KIFKEQ_clean_linker_1, # of connection points: 2
#     Edge 52, Type (0, 0), BuildingBlock: KIFKEQ_clean_linker_1, # of connection points: 2
#     Edge 53, Type (0, 0), BuildingBlock: KIFKEQ_clean_linker_1, # of connection points: 2
#     Edge 54, Type (0, 0), BuildingBlock: KIFKEQ_clean_linker_1, # of connection points: 2
#     Edge 55, Type (0, 0), BuildingBlock: KIFKEQ_clean_linker_1, # of connection points: 2
#     Edge 56, Type (0, 0), BuildingBlock: KIFKEQ_clean_linker_1, # of connection points: 2
#     Edge 57, Type (0, 0), BuildingBlock: KIFKEQ_clean_linker_1, # of connection points: 2
#     Edge 58, Type (0, 0), BuildingBlock: KIFKEQ_clean_linker_1, # of connection points: 2
#     Edge 59, Type (0, 0), BuildingBlock: KIFKEQ_clean_linker_1, # of connection points: 2
#     Edge 60, Type (0, 0), BuildingBlock: KIFKEQ_clean_linker_1, # of connection points: 2
#     Edge 61, Type (0, 0), BuildingBlock: KIFKEQ_clean_linker_1, # of connection points: 2
#     Edge 62, Type (0, 0), BuildingBlock: KIFKEQ_clean_linker_1, # of connection points: 2
#     Edge 63, Type (0, 0), BuildingBlock: KIFKEQ_clean_linker_1, # of connection points: 2
#     Edge 64, Type (0, 0), BuildingBlock: KIFKEQ_clean_linker_1, # of connection points: 2
#     Edge 65, Type (0, 0), BuildingBlock: KIFKEQ_clean_linker_1, # of connection points: 2
#     Edge 66, Type (0, 0), BuildingBlock: KIFKEQ_clean_linker_1, # of connection points: 2
#     Edge 67, Type (0, 0), BuildingBlock: KIFKEQ_clean_linker_1, # of connection points: 2
#     Edge 68, Type (0, 0), BuildingBlock: KIFKEQ_clean_linker_1, # of connection points: 2
#     Edge 69, Type (0, 0), BuildingBlock: KIFKEQ_clean_linker_1, # of connection points: 2
#     Edge 70, Type (0, 0), BuildingBlock: KIFKEQ_clean_linker_1, # of connection points: 2
#     Edge 71, Type (0, 0), BuildingBlock: KIFKEQ_clean_linker_1, # of connection points: 2
#     Edge 72, Type (0, 0), BuildingBlock: KIFKEQ_clean_linker_1, # of connection points: 2
#     Edge 73, Type (0, 0), BuildingBlock: KIFKEQ_clean_linker_1, # of connection points: 2
#     Edge 74, Type (0, 0), BuildingBlock: KIFKEQ_clean_linker_1, # of connection points: 2
#     Edge 75, Type (0, 0), BuildingBlock: KIFKEQ_clean_linker_1, # of connection points: 2
#     Edge 76, Type (0, 0), BuildingBlock: KIFKEQ_clean_linker_1, # of connection points: 2
#     Edge 77, Type (0, 0), BuildingBlock: KIFKEQ_clean_linker_1, # of connection points: 2
#     Edge 78, Type (0, 0), BuildingBlock: KIFKEQ_clean_linker_1, # of connection points: 2
#     Edge 79, Type (0, 0), BuildingBlock: KIFKEQ_clean_linker_1, # of connection points: 2
#     Edge 80, Type (0, 0), BuildingBlock: KIFKEQ_clean_linker_1, # of connection points: 2
#     Edge 81, Type (0, 0), BuildingBlock: KIFKEQ_clean_linker_1, # of connection points: 2
#     Edge 82, Type (0, 0), BuildingBlock: KIFKEQ_clean_linker_1, # of connection points: 2
#     Edge 83, Type (0, 0), BuildingBlock: KIFKEQ_clean_linker_1, # of connection points: 2
#     Edge 84, Type (0, 0), BuildingBlock: KIFKEQ_clean_linker_1, # of connection points: 2
#     Edge 85, Type (0, 0), BuildingBlock: KIFKEQ_clean_linker_1, # of connection points: 2
#     Edge 86, Type (0, 0), BuildingBlock: KIFKEQ_clean_linker_1, # of connection points: 2
#     Edge 87, Type (0, 0), BuildingBlock: KIFKEQ_clean_linker_1, # of connection points: 2
#     Edge 88, Type (0, 0), BuildingBlock: KIFKEQ_clean_linker_1, # of connection points: 2
#     Edge 89, Type (0, 0), BuildingBlock: KIFKEQ_clean_linker_1, # of connection points: 2
#     Edge 90, Type (0, 0), BuildingBlock: KIFKEQ_clean_linker_1, # of connection points: 2
#     Edge 91, Type (0, 0), BuildingBlock: KIFKEQ_clean_linker_1, # of connection points: 2
#     Edge 92, Type (0, 0), BuildingBlock: KIFKEQ_clean_linker_1, # of connection points: 2
#     Edge 93, Type (0, 0), BuildingBlock: KIFKEQ_clean_linker_1, # of connection points: 2
#     Edge 94, Type (0, 0), BuildingBlock: KIFKEQ_clean_linker_1, # of connection points: 2
#     Edge 95, Type (0, 0), BuildingBlock: KIFKEQ_clean_linker_1, # of connection points: 2
# Relax obj value: 0.062
# Max RMSD: 0.101
# Mean RMSD: 0.101
data_MOF--net-ukc--node1-AZAVOO_clean_sbu_0--edge1-KIFKEQ_clean_linker_1
_symmetry_space_group_name_H-M    P1
_symmetry_Int_Tables_number       1
_symmetry_cell_setting            triclinic
loop_
_symmetry_equiv_pos_as_xyz
'x, y, z'
_cell_length_a     46.416433
_cell_length_b     46.436802
_cell_length_c     86.386317
_cell_angle_alpha  90.073834
_cell_angle_beta   90.026546
_cell_angle_gamma 90.003927
loop_
_atom_site_label
_atom_site_type_symbol
_atom_site_fract_x
_atom_site_fract_y
_atom_site_fract_z
_atom_type_partial_charge
Mg0 Mg 0.09376 0.37981 0.0335 0.0
O1 O 0.07212 0.33966 0.02309 0.0
O2 O 0.09532 0.30107 0.03217 0.0
Mg3 Mg 0.13215 0.31593 0.04761 0.0
C4 C 0.07542 0.31239 0.024 0.0
C5 C 0.05325 0.42796 0.02324 0.0
O6 O 0.053 0.4301 0.03841 0.0
O7 O 0.13192 0.37595 0.01706 0.0
O8 O 0.15387 0.33696 0.02678 0.0
O9 O 0.06534 0.37612 0.05422 0.0
O10 O 0.10819 0.35575 0.0522 0.0
C11 C 0.15228 0.35747 0.017 0.0
C12 C 0.08498 0.35959 0.06007 0.0
O13 O 0.06879 0.40865 0.01698 0.0
Mg14 Mg 0.87293 0.84912 0.28356 0.0
O15 O 0.91447 0.83357 0.27197 0.0
O16 O 0.95094 0.85885 0.282 0.0
Mg17 Mg 0.93303 0.89052 0.29985 0.0
C18 C 0.9413 0.83943 0.27288 0.0
C19 C 0.81961 0.82127 0.26922 0.0
O20 O 0.80962 0.83237 0.28215 0.0
O21 O 0.87311 0.89034 0.26927 0.0
O22 O 0.90789 0.915 0.28137 0.0
O23 O 0.87959 0.81707 0.30248 0.0
O24 O 0.89619 0.86164 0.30293 0.0
C25 C 0.88784 0.91327 0.2713 0.0
C26 C 0.89476 0.83671 0.30934 0.0
O27 O 0.84596 0.82507 0.26582 0.0
Mg28 Mg 0.39673 0.60427 0.53283 0.0
O29 O 0.42099 0.64423 0.52409 0.0
O30 O 0.40007 0.68298 0.53474 0.0
Mg31 Mg 0.36466 0.66808 0.5512 0.0
C32 C 0.41884 0.67147 0.52588 0.0
C33 C 0.42442 0.55093 0.51864 0.0
O34 O 0.41623 0.54207 0.53239 0.0
O35 O 0.35781 0.61463 0.51747 0.0
O36 O 0.33911 0.65188 0.53047 0.0
O37 O 0.42707 0.60112 0.55282 0.0
O38 O 0.38676 0.62658 0.55285 0.0
C39 C 0.33828 0.63373 0.51937 0.0
C40 C 0.41026 0.61929 0.5597 0.0
O41 O 0.41829 0.57648 0.51453 0.0
Mg42 Mg 0.62454 0.14999 0.77846 0.0
O43 O 0.58404 0.17063 0.76791 0.0
O44 O 0.5459 0.14842 0.77821 0.0
Mg45 Mg 0.56132 0.11344 0.79467 0.0
C46 C 0.55682 0.16744 0.76931 0.0
C47 C 0.6789 0.17706 0.76539 0.0
O48 O 0.68734 0.16618 0.77868 0.0
O49 O 0.61979 0.11014 0.76316 0.0
O50 O 0.58192 0.08929 0.77456 0.0
O51 O 0.62174 0.18097 0.79813 0.0
O52 O 0.60108 0.13809 0.79784 0.0
C53 C 0.60172 0.0895 0.76432 0.0
C54 C 0.60497 0.16237 0.8047 0.0
O55 O 0.65298 0.1732 0.76112 0.0
Mg56 Mg 0.09473 0.6182 0.44397 0.0
O57 O 0.07296 0.65789 0.45476 0.0
O58 O 0.09356 0.69681 0.44432 0.0
Mg59 Mg 0.12785 0.68263 0.42698 0.0
C60 C 0.07532 0.68521 0.45346 0.0
C61 C 0.0602 0.56773 0.45595 0.0
O62 O 0.06106 0.56396 0.44088 0.0
O63 O 0.13523 0.62502 0.45859 0.0
O64 O 0.15451 0.6629 0.44646 0.0
O65 O 0.06274 0.61868 0.42464 0.0
O66 O 0.10414 0.64223 0.4244 0.0
C67 C 0.1555 0.64336 0.45683 0.0
C68 C 0.07992 0.63656 0.41784 0.0
O69 O 0.07365 0.58898 0.46179 0.0
Mg70 Mg 0.64025 0.84216 0.69488 0.0
O71 O 0.59986 0.82071 0.70504 0.0
O72 O 0.56155 0.84036 0.69329 0.0
Mg73 Mg 0.57708 0.87179 0.6748 0.0
C74 C 0.57266 0.82318 0.70316 0.0
C75 C 0.69416 0.81969 0.71048 0.0
O76 O 0.70305 0.82782 0.69672 0.0
O77 O 0.63093 0.88419 0.7079 0.0
O78 O 0.59436 0.90107 0.69371 0.0
O79 O 0.64244 0.80785 0.6767 0.0
O80 O 0.61795 0.84856 0.67455 0.0
C81 C 0.61254 0.9038 0.7047 0.0
C82 C 0.62448 0.82369 0.66904 0.0
O83 O 0.66801 0.82402 0.71415 0.0
Mg84 Mg 0.39962 0.37917 0.9461 0.0
O85 O 0.42199 0.33974 0.95674 0.0
O86 O 0.39988 0.30044 0.94771 0.0
Mg87 Mg 0.36314 0.31423 0.93194 0.0
C88 C 0.41936 0.31239 0.95594 0.0
C89 C 0.42945 0.43365 0.95803 0.0
O90 O 0.42066 0.44147 0.9442 0.0
O91 O 0.36112 0.37466 0.96224 0.0
O92 O 0.34019 0.33514 0.95246 0.0
O93 O 0.42866 0.37603 0.92563 0.0
O94 O 0.38628 0.35458 0.92738 0.0
C95 C 0.34106 0.35586 0.96217 0.0
C96 C 0.4096 0.35888 0.91969 0.0
O97 O 0.42353 0.40846 0.96279 0.0
Mg98 Mg 0.86834 0.15404 0.19434 0.0
O99 O 0.90938 0.17187 0.20551 0.0
O100 O 0.9466 0.14732 0.19578 0.0
Mg101 Mg 0.92975 0.11438 0.17831 0.0
C102 C 0.93639 0.16686 0.20463 0.0
C103 C 0.81515 0.18329 0.2076 0.0
O104 O 0.80652 0.17429 0.19393 0.0
O105 O 0.87043 0.11346 0.20913 0.0
O106 O 0.90579 0.08962 0.19707 0.0
O107 O 0.87306 0.18545 0.17494 0.0
O108 O 0.89176 0.14172 0.175 0.0
C109 C 0.88589 0.09098 0.20724 0.0
C110 C 0.88892 0.1662 0.16823 0.0
O111 O 0.84071 0.17767 0.2119 0.0
Mg112 Mg 0.90632 0.61855 0.94579 0.0
O113 O 0.92719 0.65859 0.95684 0.0
O114 O 0.90508 0.69719 0.947 0.0
Mg115 Mg 0.87024 0.6825 0.93024 0.0
C116 C 0.92404 0.68587 0.9558 0.0
C117 C 0.93333 0.56384 0.95875 0.0
O118 O 0.92401 0.55574 0.94505 0.0
O119 O 0.86615 0.62283 0.9608 0.0
O120 O 0.84549 0.66158 0.9501 0.0
O121 O 0.93729 0.62146 0.92613 0.0
O122 O 0.89462 0.64255 0.9266 0.0
C123 C 0.8457 0.64115 0.95997 0.0
C124 C 0.91868 0.63827 0.91957 0.0
O125 O 0.92879 0.58956 0.96314 0.0
Mg126 Mg 0.13344 0.1491 0.69303 0.0
O127 O 0.09141 0.16751 0.70286 0.0
O128 O 0.05507 0.14216 0.69273 0.0
Mg129 Mg 0.07339 0.10799 0.6764 0.0
C130 C 0.06451 0.1623 0.70145 0.0
C131 C 0.17929 0.19041 0.70473 0.0
O132 O 0.18285 0.19015 0.68965 0.0
O133 O 0.13013 0.10969 0.70878 0.0
O134 O 0.09571 0.08497 0.6964 0.0
O135 O 0.12994 0.1787 0.67265 0.0
O136 O 0.11173 0.13485 0.67342 0.0
C137 C 0.11468 0.08713 0.70704 0.0
C138 C 0.11497 0.15864 0.66604 0.0
O139 O 0.15974 0.17465 0.71059 0.0
Mg140 Mg 0.59925 0.38029 0.44418 0.0
O141 O 0.58162 0.33861 0.45477 0.0
O142 O 0.60656 0.30206 0.4446 0.0
Mg143 Mg 0.63974 0.31987 0.42755 0.0
C144 C 0.58685 0.3117 0.45352 0.0
C145 C 0.55909 0.42695 0.45544 0.0
O146 O 0.56025 0.43023 0.44035 0.0
O147 O 0.63971 0.37797 0.45929 0.0
O148 O 0.66387 0.34323 0.44687 0.0
O149 O 0.5683 0.37574 0.42447 0.0
O150 O 0.61231 0.35779 0.42456 0.0
C151 C 0.66229 0.36264 0.45732 0.0
C152 C 0.58791 0.36055 0.41766 0.0
O153 O 0.57426 0.40729 0.46164 0.0
Mg154 Mg 0.37046 0.84724 0.19751 0.0
O155 O 0.41229 0.82635 0.20638 0.0
O156 O 0.44919 0.85125 0.19658 0.0
Mg157 Mg 0.43157 0.88823 0.18218 0.0
C158 C 0.43933 0.83057 0.20473 0.0
C159 C 0.31759 0.81807 0.21131 0.0
O160 O 0.30716 0.83135 0.19911 0.0
O161 O 0.37482 0.88472 0.21436 0.0
O162 O 0.41203 0.9085 0.2039 0.0
O163 O 0.37254 0.81979 0.17638 0.0
O164 O 0.39212 0.86305 0.17834 0.0
C165 C 0.39255 0.90572 0.21421 0.0
C166 C 0.38807 0.84003 0.17032 0.0
O167 O 0.34418 0.8208 0.21446 0.0
Mg168 Mg 0.90277 0.38855 0.53511 0.0
O169 O 0.9237 0.34795 0.52509 0.0
O170 O 0.90007 0.30982 0.53457 0.0
Mg171 Mg 0.86662 0.3259 0.55208 0.0
C172 C 0.91961 0.3208 0.526 0.0
C173 C 0.93093 0.44195 0.5211 0.0
O174 O 0.92205 0.4513 0.53464 0.0
O175 O 0.86262 0.38251 0.5201 0.0
O176 O 0.84026 0.34715 0.53291 0.0
O177 O 0.93398 0.38796 0.55475 0.0
O178 O 0.89198 0.3654 0.55468 0.0
C179 C 0.84082 0.3662 0.52228 0.0
C180 C 0.91611 0.37061 0.56146 0.0
O181 O 0.92524 0.4162 0.51716 0.0
Mg182 Mg 0.36505 0.15257 0.28546 0.0
O183 O 0.40299 0.17589 0.2739 0.0
O184 O 0.44374 0.15498 0.28203 0.0
Mg185 Mg 0.43226 0.12001 0.29945 0.0
C186 C 0.43042 0.1736 0.27386 0.0
C187 C 0.3139 0.18863 0.27478 0.0
O188 O 0.31189 0.18951 0.28994 0.0
O189 O 0.37084 0.11301 0.27011 0.0
O190 O 0.41128 0.09413 0.28 0.0
O191 O 0.36702 0.1834 0.30516 0.0
O192 O 0.39151 0.14256 0.30407 0.0
C193 C 0.39022 0.09351 0.2705 0.0
C194 C 0.38587 0.16626 0.31121 0.0
O195 O 0.33388 0.17376 0.26867 0.0
Mg196 Mg 0.59763 0.61451 0.03041 0.0
O197 O 0.57475 0.654 0.02019 0.0
O198 O 0.59909 0.6933 0.02755 0.0
Mg199 Mg 0.63662 0.67936 0.04279 0.0
C200 C 0.57839 0.68126 0.02029 0.0
C201 C 0.55524 0.5668 0.02113 0.0
O202 O 0.55456 0.56572 0.03633 0.0
O203 O 0.63465 0.6178 0.01315 0.0
O204 O 0.65734 0.6571 0.02204 0.0
O205 O 0.57069 0.61896 0.05161 0.0
O206 O 0.61317 0.63963 0.04849 0.0
C207 C 0.6551 0.63614 0.01255 0.0
C208 C 0.59052 0.63599 0.05684 0.0
O209 O 0.57166 0.58503 0.01462 0.0
Mg210 Mg 0.13499 0.84891 0.78645 0.0
O211 O 0.09367 0.83057 0.77578 0.0
O212 O 0.0565 0.85412 0.78631 0.0
Mg213 Mg 0.0737 0.88695 0.80384 0.0
C214 C 0.06662 0.83504 0.77713 0.0
C215 C 0.18234 0.81071 0.77385 0.0
O216 O 0.18595 0.8101 0.78893 0.0
O217 O 0.13094 0.88975 0.77201 0.0
O218 O 0.0958 0.9128 0.7847 0.0
O219 O 0.13229 0.81679 0.80563 0.0
O220 O 0.11198 0.85985 0.80615 0.0
C221 C 0.1151 0.91188 0.77418 0.0
C222 C 0.11581 0.83518 0.81256 0.0
O223 O 0.16228 0.82621 0.7683 0.0
Mg224 Mg 0.59436 0.87854 0.53614 0.0
O225 O 0.57085 0.83949 0.52576 0.0
O226 O 0.59473 0.79971 0.53282 0.0
Mg227 Mg 0.63229 0.8129 0.5483 0.0
C228 C 0.57417 0.81218 0.52566 0.0
C229 C 0.57888 0.92979 0.5134 0.0
O230 O 0.60679 0.93447 0.51386 0.0
O231 O 0.63118 0.87447 0.51865 0.0
O232 O 0.65324 0.83521 0.52781 0.0
O233 O 0.56715 0.87503 0.55723 0.0
O234 O 0.60872 0.85245 0.55408 0.0
C235 C 0.65155 0.856 0.51822 0.0
C236 C 0.58592 0.85667 0.56225 0.0
O237 O 0.56838 0.90859 0.52077 0.0
Mg238 Mg 0.36048 0.34769 0.78333 0.0
O239 O 0.4005 0.32685 0.77237 0.0
O240 O 0.43939 0.34908 0.78182 0.0
Mg241 Mg 0.42471 0.38468 0.79812 0.0
C242 C 0.42781 0.32993 0.77324 0.0
C243 C 0.30634 0.31787 0.77056 0.0
O244 O 0.29751 0.32677 0.7842 0.0
O245 O 0.36435 0.38703 0.76771 0.0
O246 O 0.4036 0.40797 0.77782 0.0
O247 O 0.36426 0.3177 0.80339 0.0
O248 O 0.38477 0.3606 0.80226 0.0
C249 C 0.38296 0.40726 0.76806 0.0
C250 C 0.38102 0.3368 0.80959 0.0
O251 O 0.33184 0.32382 0.76628 0.0
Mg252 Mg 0.89681 0.11312 0.03296 0.0
O253 O 0.9169 0.15404 0.02257 0.0
O254 O 0.89353 0.19187 0.03251 0.0
Mg255 Mg 0.85764 0.17575 0.04821 0.0
C256 C 0.91318 0.18121 0.02389 0.0
C257 C 0.93719 0.06558 0.02269 0.0
O258 O 0.93568 0.06276 0.0378 0.0
O259 O 0.85801 0.11655 0.01679 0.0
O260 O 0.83603 0.15458 0.02746 0.0
O261 O 0.92639 0.11759 0.05318 0.0
O262 O 0.88284 0.13664 0.052 0.0
C263 C 0.83727 0.13462 0.01732 0.0
C264 C 0.90683 0.13387 0.05929 0.0
O265 O 0.9223 0.08514 0.0162 0.0
Mg266 Mg 0.13397 0.65482 0.28354 0.0
O267 O 0.0963 0.67876 0.27197 0.0
O268 O 0.05556 0.65836 0.28031 0.0
Mg269 Mg 0.06657 0.62183 0.29683 0.0
C270 C 0.06882 0.67714 0.27222 0.0
C271 C 0.18711 0.68863 0.27351 0.0
O272 O 0.19024 0.6868 0.2886 0.0
O273 O 0.12845 0.61598 0.2677 0.0
O274 O 0.08766 0.59693 0.27702 0.0
O275 O 0.13167 0.68487 0.30358 0.0
O276 O 0.10725 0.64405 0.30193 0.0
C277 C 0.10893 0.59662 0.26766 0.0
C278 C 0.11268 0.66751 0.30933 0.0
O279 O 0.16555 0.67649 0.26721 0.0
Mg280 Mg 0.59689 0.11988 0.93888 0.0
O281 O 0.57891 0.15946 0.95152 0.0
O282 O 0.60112 0.19824 0.94198 0.0
Mg283 Mg 0.6336 0.18405 0.9237 0.0
C284 C 0.5828 0.18668 0.95107 0.0
C285 C 0.55612 0.07303 0.94952 0.0
O286 O 0.55353 0.07341 0.93438 0.0
O287 O 0.63862 0.12143 0.95308 0.0
O288 O 0.65923 0.15942 0.94173 0.0
O289 O 0.56418 0.12637 0.92012 0.0
O290 O 0.60769 0.14541 0.91993 0.0
C291 C 0.65993 0.13859 0.95134 0.0
C292 C 0.58284 0.14298 0.91352 0.0
O293 O 0.57406 0.09005 0.95588 0.0
Mg294 Mg 0.13407 0.34846 0.19712 0.0
O295 O 0.09411 0.32618 0.20719 0.0
O296 O 0.05516 0.34824 0.19774 0.0
Mg297 Mg 0.06983 0.38504 0.18225 0.0
C298 C 0.0668 0.32876 0.20606 0.0
C299 C 0.18716 0.31691 0.20964 0.0
O300 O 0.19582 0.32492 0.19582 0.0
O301 O 0.1289 0.38688 0.21329 0.0
O302 O 0.08973 0.40785 0.20314 0.0
O303 O 0.13175 0.31938 0.17666 0.0
O304 O 0.11039 0.36187 0.1781 0.0
C305 C 0.11005 0.40689 0.21309 0.0
C306 C 0.11486 0.33841 0.17053 0.0
O307 O 0.16216 0.32417 0.21416 0.0
Mg308 Mg 0.89575 0.87928 0.44417 0.0
O309 O 0.91525 0.83945 0.45595 0.0
O310 O 0.89426 0.80079 0.44544 0.0
Mg311 Mg 0.86159 0.8151 0.42731 0.0
C312 C 0.91223 0.81217 0.45482 0.0
C313 C 0.93156 0.92908 0.45566 0.0
O314 O 0.93117 0.93157 0.44051 0.0
O315 O 0.85368 0.8753 0.45802 0.0
O316 O 0.83456 0.83775 0.4455 0.0
O317 O 0.92902 0.8755 0.42547 0.0
O318 O 0.88629 0.85481 0.42459 0.0
C319 C 0.83288 0.85779 0.45557 0.0
C320 C 0.91117 0.8586 0.41841 0.0
O321 O 0.91725 0.90879 0.46185 0.0
Mg322 Mg 0.36226 0.65259 0.6951 0.0
O323 O 0.40148 0.67608 0.70524 0.0
O324 O 0.44115 0.65201 0.69819 0.0
Mg325 Mg 0.42761 0.61463 0.6827 0.0
C326 C 0.42878 0.67263 0.70535 0.0
C327 C 0.30773 0.6844 0.70669 0.0
O328 O 0.29876 0.6754 0.69308 0.0
O329 O 0.36642 0.61569 0.71231 0.0
O330 O 0.40577 0.59329 0.70335 0.0
O331 O 0.36512 0.67958 0.67393 0.0
O332 O 0.38768 0.63797 0.67697 0.0
C333 C 0.38486 0.59535 0.71286 0.0
C334 C 0.38298 0.66051 0.66867 0.0
O335 O 0.33298 0.67787 0.71113 0.0
Mg336 Mg 0.40665 0.11251 0.44592 0.0
O337 O 0.42911 0.1517 0.45702 0.0
O338 O 0.40724 0.19109 0.44791 0.0
Mg339 Mg 0.3711 0.17796 0.43155 0.0
C340 C 0.42651 0.17907 0.45625 0.0
C341 C 0.44595 0.06366 0.45567 0.0
O342 O 0.44618 0.06291 0.44047 0.0
O343 O 0.36716 0.11704 0.4616 0.0
O344 O 0.34692 0.15657 0.45148 0.0
O345 O 0.43671 0.11538 0.42588 0.0
O346 O 0.39489 0.13802 0.42711 0.0
C347 C 0.34706 0.13583 0.46116 0.0
C348 C 0.41862 0.1333 0.41985 0.0
O349 O 0.43004 0.0821 0.46243 0.0
Mg350 Mg 0.64367 0.65303 0.19367 0.0
O351 O 0.60272 0.67428 0.2035 0.0
O352 O 0.56484 0.65062 0.19382 0.0
Mg353 Mg 0.58087 0.61394 0.17865 0.0
C354 C 0.57553 0.67067 0.20216 0.0
C355 C 0.69201 0.69262 0.20446 0.0
O356 O 0.69585 0.69102 0.18941 0.0
O357 O 0.6394 0.6149 0.21013 0.0
O358 O 0.60103 0.59264 0.19985 0.0
O359 O 0.64064 0.68147 0.17294 0.0
O360 O 0.62058 0.63843 0.17463 0.0
C361 C 0.62104 0.59443 0.20994 0.0
C362 C 0.62442 0.66176 0.16689 0.0
O363 O 0.67149 0.67845 0.21053 0.0
Mg364 Mg 0.10046 0.88621 0.94733 0.0
O365 O 0.08053 0.84528 0.95788 0.0
O366 O 0.10286 0.80755 0.94714 0.0
Mg367 Mg 0.13668 0.82363 0.93013 0.0
C368 C 0.08407 0.81811 0.95633 0.0
C369 C 0.07246 0.93966 0.96106 0.0
O370 O 0.08128 0.94837 0.94739 0.0
O371 O 0.14125 0.88133 0.96182 0.0
O372 O 0.16217 0.84383 0.95001 0.0
O373 O 0.06852 0.88464 0.9281 0.0
O374 O 0.11099 0.86292 0.92768 0.0
C375 C 0.16206 0.86355 0.96032 0.0
C376 C 0.08644 0.86754 0.92121 0.0
O377 O 0.07821 0.9141 0.96529 0.0
Mg378 Mg 0.86433 0.34467 0.69684 0.0
O379 O 0.90368 0.3208 0.70688 0.0
O380 O 0.94294 0.34324 0.69799 0.0
Mg381 Mg 0.92958 0.3809 0.68279 0.0
C382 C 0.93106 0.32332 0.70591 0.0
C383 C 0.81334 0.30786 0.70637 0.0
O384 O 0.81049 0.31066 0.69131 0.0
O385 O 0.86993 0.38239 0.71355 0.0
O386 O 0.90932 0.40327 0.70366 0.0
O387 O 0.86593 0.31647 0.67599 0.0
O388 O 0.88928 0.35781 0.67815 0.0
C389 C 0.88893 0.40227 0.71354 0.0
C390 C 0.88397 0.33485 0.67029 0.0
O391 O 0.8342 0.32053 0.71307 0.0
Mg392 Mg 0.40864 0.89217 0.03328 0.0
O393 O 0.43003 0.85184 0.02312 0.0
O394 O 0.40464 0.81335 0.0306 0.0
Mg395 Mg 0.368 0.82877 0.04612 0.0
C396 C 0.42556 0.82471 0.02322 0.0
C397 C 0.42544 0.94248 0.01074 0.0
O398 O 0.39801 0.94874 0.01239 0.0
O399 O 0.37139 0.88935 0.01609 0.0
O400 O 0.34732 0.85126 0.02541 0.0
O401 O 0.4358 0.88764 0.05433 0.0
O402 O 0.39274 0.8679 0.05153 0.0
C403 C 0.35022 0.87182 0.01576 0.0
C404 C 0.41568 0.87114 0.05973 0.0
O405 O 0.43562 0.92038 0.01743 0.0
Mg406 Mg 0.87225 0.65125 0.78366 0.0
O407 O 0.91114 0.67376 0.77253 0.0
O408 O 0.95091 0.65167 0.78092 0.0
Mg409 Mg 0.93791 0.61448 0.79658 0.0
C410 C 0.93854 0.67129 0.773 0.0
C411 C 0.82311 0.69129 0.77421 0.0
O412 O 0.82147 0.69112 0.78939 0.0
O413 O 0.87557 0.61277 0.7673 0.0
O414 O 0.91564 0.59179 0.77635 0.0
O415 O 0.877 0.6802 0.80405 0.0
O416 O 0.8979 0.6376 0.80197 0.0
C417 C 0.89434 0.59267 0.76701 0.0
C418 C 0.89438 0.66108 0.80966 0.0
O419 O 0.84215 0.67585 0.76764 0.0
Mg420 Mg 0.09608 0.11264 0.52855 0.0
O421 O 0.07185 0.15185 0.51894 0.0
O422 O 0.09501 0.1916 0.52665 0.0
Mg423 Mg 0.13305 0.17809 0.54169 0.0
C424 C 0.07456 0.1792 0.51936 0.0
C425 C 0.06346 0.05866 0.5175 0.0
O426 O 0.07243 0.05068 0.53128 0.0
O427 O 0.13332 0.11756 0.51142 0.0
O428 O 0.15491 0.157 0.52087 0.0
O429 O 0.06899 0.11529 0.54972 0.0
O430 O 0.11089 0.13736 0.54697 0.0
C431 C 0.15346 0.13631 0.51117 0.0
C432 C 0.08825 0.13274 0.55519 0.0
O433 O 0.07051 0.08339 0.51248 0.0
Mg434 Mg 0.63385 0.3476 0.2818 0.0
O435 O 0.59506 0.32556 0.27033 0.0
O436 O 0.55514 0.34852 0.27795 0.0
Mg437 Mg 0.5681 0.38453 0.29449 0.0
C438 C 0.56774 0.3288 0.2702 0.0
C439 C 0.68328 0.30792 0.27202 0.0
O440 O 0.68464 0.30707 0.2872 0.0
O441 O 0.63094 0.38636 0.26572 0.0
O442 O 0.591 0.4077 0.2747 0.0
O443 O 0.62879 0.31819 0.3019 0.0
O444 O 0.60778 0.36077 0.30002 0.0
C445 C 0.61246 0.40671 0.26548 0.0
C446 C 0.61127 0.33715 0.30757 0.0
O447 O 0.66425 0.32364 0.26565 0.0
H448 H 0.9443 0.50701 0.95319 0.0
H449 H 0.96029 0.57506 0.98627 0.0
H450 H 0.97285 0.474 0.96881 0.0
H451 H 0.98947 0.54223 0.00169 0.0
H452 H 0.01487 0.46817 0.03343 0.0
H453 H 0.98526 0.50045 0.018 0.0
H454 H 0.02226 0.46518 0.97618 0.0
H455 H 0.0514 0.43226 -0.00836 0.0
C456 C 0.95395 0.51495 0.96379 0.0
C457 C 0.95001 0.54366 0.9685 0.0
C458 C 0.97049 0.49606 0.97268 0.0
C459 C 0.98355 0.50547 0.98648 0.0
C460 C 0.97942 0.53416 -0.00877 0.0
C461 C 0.96279 0.55303 0.98236 0.0
C462 C 0.01672 0.46727 0.02094 0.0
C463 C 0.03551 0.44765 0.01376 0.0
C464 C -0.00016 0.48592 0.0121 0.0
C465 C 0.00142 0.48547 -0.00415 0.0
C466 C 0.02023 0.46582 -0.01134 0.0
C467 C 0.03706 0.44707 -0.00248 0.0
H468 H 0.69192 0.6992 0.23598 0.0
H469 H 0.73476 0.72828 0.19443 0.0
H470 H 0.72298 0.73031 0.25148 0.0
H471 H 0.7652 0.75987 0.20984 0.0
H472 H 0.83479 0.78999 0.24363 0.0
H473 H 0.80419 0.75845 0.22817 0.0
H474 H 0.73119 0.78068 0.25683 0.0
H475 H 0.76193 0.8116 0.27252 0.0
C476 C 0.70789 0.71229 0.23015 0.0
C477 C 0.71089 0.71123 0.21398 0.0
C478 C 0.72557 0.73026 0.23902 0.0
C479 C 0.74656 0.74764 0.2319 0.0
C480 C 0.74955 0.74649 0.21572 0.0
C481 C 0.73196 0.72847 0.20687 0.0
C482 C 0.81219 0.78823 0.24659 0.0
C483 C 0.80081 0.80327 0.25932 0.0
C484 C 0.79461 0.77023 0.23769 0.0
C485 C 0.76523 0.76696 0.24128 0.0
C486 C 0.75381 0.78231 0.2539 0.0
C487 C 0.77141 0.80021 0.26283 0.0
H488 H 0.52019 0.46614 0.44483 0.0
H489 H 0.55343 0.42889 0.48703 0.0
H490 H 0.48683 0.49532 0.45978 0.0
H491 H 0.52053 0.45888 0.50209 0.0
H492 H 0.43793 0.49438 0.52323 0.0
H493 H 0.47018 0.46434 0.50793 0.0
H494 H 0.48554 0.53567 0.47692 0.0
H495 H 0.45261 0.56543 0.49196 0.0
C496 C 0.52056 0.46434 0.45733 0.0
C497 C 0.5395 0.44518 0.46475 0.0
C498 C 0.50149 0.48123 0.46591 0.0
C499 C 0.50098 0.47952 0.48215 0.0
C500 C 0.52005 0.46044 0.48959 0.0
C501 C 0.53906 0.44339 0.48098 0.0
C502 C 0.44804 0.50359 0.51308 0.0
C503 C 0.44268 0.53229 0.5088 0.0
C504 C 0.46674 0.48643 0.50438 0.0
C505 C 0.48063 0.49761 0.49124 0.0
C506 C 0.47495 0.52623 0.48686 0.0
C507 C 0.45612 0.54335 0.49551 0.0
H508 H 0.77083 0.27374 0.69465 0.0
H509 H 0.81054 0.29957 0.73774 0.0
H510 H 0.73879 0.24162 0.70864 0.0
H511 H 0.77777 0.26796 0.75184 0.0
H512 H 0.73625 0.18606 0.77037 0.0
H513 H 0.76855 0.21765 0.7561 0.0
H514 H 0.69841 0.24179 0.72584 0.0
H515 H 0.66631 0.20952 0.73986 0.0
C516 C 0.77256 0.27277 0.70714 0.0
C517 C 0.79327 0.28921 0.71508 0.0
C518 C 0.75405 0.25442 0.71517 0.0
C519 C 0.75566 0.25218 0.73137 0.0
C520 C 0.77623 0.26884 0.73934 0.0
C521 C 0.79488 0.28711 0.73128 0.0
C522 C 0.72775 0.19798 0.76062 0.0
C523 C 0.69871 0.19525 0.75624 0.0
C524 C 0.74622 0.21629 0.75251 0.0
C525 C 0.73607 0.23241 0.73987 0.0
C526 C 0.70706 0.22944 0.7354 0.0
C527 C 0.68861 0.211 0.74346 0.0
H528 H 0.94287 0.49909 0.52491 0.0
H529 H 0.96051 0.42652 0.49502 0.0
H530 H 0.97442 0.52914 0.50923 0.0
H531 H 0.99278 0.45629 0.47964 0.0
H532 H 0.0241 0.52521 0.44617 0.0
H533 H 0.99253 0.49524 0.46173 0.0
H534 H 0.02441 0.53634 0.50327 0.0
H535 H 0.05543 0.56712 0.48758 0.0
C536 C 0.95353 0.48953 0.515 0.0
C537 C 0.94913 0.46044 0.51118 0.0
C538 C 0.97182 0.5067 0.50609 0.0
C539 C 0.98629 0.49512 0.49321 0.0
C540 C 0.98171 0.46603 0.48935 0.0
C541 C 0.96326 0.44892 0.4982 0.0
C542 C 0.02449 0.52782 0.45863 0.0
C543 C 0.04226 0.54858 0.46564 0.0
C544 C 0.00646 0.51049 0.46757 0.0
C545 C 0.00588 0.51335 0.48377 0.0
C546 C 0.02397 0.53388 0.49081 0.0
C547 C 0.04192 0.55137 0.48184 0.0
H548 H 0.68064 0.79252 0.73763 0.0
H549 H 0.7514 0.80892 0.70636 0.0
H550 H 0.71164 0.76146 0.75311 0.0
H551 H 0.78255 0.77847 0.72204 0.0
H552 H 0.81957 0.69599 0.74268 0.0
H553 H 0.78844 0.72791 0.72778 0.0
H554 H 0.75274 0.76183 0.77024 0.0
H555 H 0.78327 0.72945 0.78511 0.0
C556 C 0.7029 0.78982 0.73418 0.0
C557 C 0.71352 0.80308 0.72073 0.0
C558 C 0.72071 0.77207 0.74308 0.0
C559 C 0.74953 0.76729 0.73874 0.0
C560 C 0.76031 0.78123 0.72553 0.0
C561 C 0.7425 0.79888 0.71661 0.0
C562 C 0.80501 0.71019 0.74883 0.0
C563 C 0.80389 0.71015 0.76507 0.0
C564 C 0.78731 0.72864 0.74029 0.0
C565 C 0.76818 0.74753 0.74782 0.0
C566 C 0.76697 0.74734 0.76407 0.0
C567 C 0.78459 0.72884 0.7726 0.0
H568 H 0.45555 0.42245 0.98577 0.0
H569 H 0.44344 0.48954 0.95175 0.0
H570 H 0.48623 0.4545 0.00087 0.0
H571 H 0.47348 0.52182 0.96705 0.0
H572 H 0.55369 0.56074 -0.01039 0.0
H573 H 0.52319 0.52846 0.97449 0.0
H574 H 0.48403 0.49722 0.01663 0.0
H575 H 0.51498 0.52886 0.03173 0.0
C576 C 0.45923 0.44411 0.98158 0.0
C577 C 0.44708 0.45343 0.96755 0.0
C578 C 0.47672 0.46254 -0.00973 0.0
C579 C 0.48236 0.49073 0.98516 0.0
C580 C 0.46996 0.5001 0.9712 0.0
C581 C 0.45256 0.48165 0.96248 0.0
C582 C 0.5386 0.54694 -0.00436 0.0
C583 C 0.5368 0.54733 0.01187 0.0
C584 C 0.52099 0.52856 0.98697 0.0
C585 C 0.50114 0.51026 -0.00565 0.0
C586 C 0.49937 0.51072 0.01059 0.0
C587 C 0.51703 0.529 0.01924 0.0
H588 H 0.82786 0.2101 0.23499 0.0
H589 H 0.75875 0.19649 0.20225 0.0
H590 H 0.79643 0.24084 0.25044 0.0
H591 H 0.72715 0.22657 0.21788 0.0
H592 H 0.68826 0.30637 0.24045 0.0
H593 H 0.72051 0.27638 0.22505 0.0
H594 H 0.75461 0.23861 0.26692 0.0
H595 H 0.72298 0.26908 0.2823 0.0
C596 C 0.8059 0.21347 0.23116 0.0
C597 C 0.79582 0.20089 0.21738 0.0
C598 C 0.78784 0.231 0.24005 0.0
C599 C 0.75928 0.23625 0.23537 0.0
C600 C 0.74916 0.22338 0.22168 0.0
C601 C 0.76723 0.20595 0.21277 0.0
C602 C 0.70271 0.29173 0.24636 0.0
C603 C 0.70307 0.29013 0.2626 0.0
C604 C 0.72106 0.2744 0.23753 0.0
C605 C 0.74009 0.25502 0.24475 0.0
C606 C 0.74051 0.25357 0.261 0.0
C607 C 0.72225 0.27095 0.26981 0.0
H608 H 0.24969 0.30463 0.77537 0.0
H609 H 0.32013 0.29028 0.74359 0.0
H610 H 0.21872 0.27412 0.75953 0.0
H611 H 0.28944 0.25913 0.728 0.0
H612 H 0.21893 0.22975 0.69513 0.0
H613 H 0.24889 0.26105 0.71093 0.0
H614 H 0.21172 0.22443 0.75232 0.0
H615 H 0.181 0.19357 0.73643 0.0
C616 C 0.25859 0.29491 0.76502 0.0
C617 C 0.28736 0.29994 0.76072 0.0
C618 C 0.24089 0.27724 0.756 0.0
C619 C 0.25158 0.2641 0.7425 0.0
C620 C 0.28035 0.26923 0.73819 0.0
C621 C 0.29801 0.28701 0.74717 0.0
C622 C 0.21711 0.22833 0.7076 0.0
C623 C 0.19759 0.20913 0.71452 0.0
C624 C 0.23445 0.24619 0.71667 0.0
C625 C 0.23283 0.24521 0.7329 0.0
C626 C 0.21326 0.22601 0.73985 0.0
C627 C 0.19578 0.20819 0.73075 0.0
H628 H 0.1871 0.69698 0.24215 0.0
H629 H 0.23288 0.72002 0.28395 0.0
H630 H 0.21934 0.7276 0.22715 0.0
H631 H 0.26457 0.75114 0.26903 0.0
H632 H 0.33332 0.7829 0.23527 0.0
H633 H 0.30262 0.75032 0.25 0.0
H634 H 0.22879 0.77833 0.2235 0.0
H635 H 0.25956 0.8103 0.20853 0.0
C636 C 0.20405 0.70855 0.24814 0.0
C637 C 0.20739 0.7061 0.26424 0.0
C638 C 0.22239 0.72626 0.23956 0.0
C639 C 0.24443 0.74196 0.24691 0.0
C640 C 0.24803 0.73911 0.26298 0.0
C641 C 0.22975 0.72136 0.27155 0.0
C642 C 0.31053 0.78214 0.23261 0.0
C643 C 0.29888 0.79916 0.22072 0.0
C644 C 0.29291 0.76354 0.24109 0.0
C645 C 0.26326 0.76163 0.23789 0.0
C646 C 0.25162 0.77888 0.22608 0.0
C647 C 0.26923 0.79739 0.21757 0.0
H648 H 0.30987 0.18986 0.24315 0.0
H649 H 0.27386 0.22743 0.28465 0.0
H650 H 0.27868 0.22036 0.22742 0.0
H651 H 0.24345 0.25846 0.26898 0.0
H652 H 0.17283 0.29009 0.2367 0.0
H653 H 0.20261 0.25788 0.25214 0.0
H654 H 0.27321 0.27002 0.22019 0.0
H655 H 0.24312 0.30152 0.2045 0.0
C656 C 0.29532 0.20463 0.24891 0.0
C657 C 0.29434 0.20622 0.26514 0.0
C658 C 0.2776 0.22226 0.2399 0.0
C659 C 0.25862 0.24195 0.24693 0.0
C660 C 0.25749 0.24328 0.26317 0.0
C661 C 0.27506 0.22556 0.27217 0.0
C662 C 0.19473 0.28594 0.233 0.0
C663 C 0.20562 0.29836 0.21938 0.0
C664 C 0.21185 0.26755 0.24188 0.0
C665 C 0.24031 0.26131 0.2374 0.0
C666 C 0.25124 0.27396 0.22384 0.0
C667 C 0.23406 0.29221 0.21491 0.0
H668 H 0.18356 0.80909 0.74211 0.0
H669 H 0.22255 0.77145 0.78278 0.0
H670 H 0.21399 0.77891 0.72569 0.0
H671 H 0.25217 0.74084 0.76646 0.0
H672 H 0.32229 0.71212 0.73345 0.0
H673 H 0.29221 0.74345 0.7492 0.0
H674 H 0.2208 0.72935 0.71796 0.0
H675 H 0.25123 0.69863 0.70191 0.0
C676 C 0.19854 0.79433 0.74754 0.0
C677 C 0.20073 0.79275 0.76374 0.0
C678 C 0.21584 0.77691 0.73814 0.0
C679 C 0.23557 0.75748 0.74476 0.0
C680 C 0.2376 0.7559 0.76096 0.0
C681 C 0.22047 0.77338 0.77033 0.0
C682 C 0.30016 0.71565 0.72994 0.0
C683 C 0.28913 0.70283 0.71644 0.0
C684 C 0.28286 0.73353 0.73901 0.0
C685 C 0.25404 0.73887 0.73488 0.0
C686 C 0.24301 0.72602 0.72137 0.0
C687 C 0.26039 0.70824 0.71223 0.0
H688 H 0.52028 0.93303 0.51539 0.0
H689 H 0.5936 0.9717 0.49262 0.0
H690 H 0.48818 0.96616 0.50188 0.0
H691 H 0.56131 0.00476 0.47905 0.0
H692 H 0.48985 0.03109 0.44437 0.0
H693 H 0.52216 0.99942 0.4586 0.0
H694 H 0.47807 0.02044 0.50113 0.0
H695 H 0.4456 0.05248 0.48687 0.0
C696 C 0.52956 0.94856 0.50748 0.0
C697 C 0.5595 0.94969 0.50503 0.0
C698 C 0.51116 0.96765 0.49985 0.0
C699 C 0.52228 0.98802 0.48946 0.0
C700 C 0.55218 0.98912 0.48695 0.0
C701 C 0.57064 0.97026 0.49474 0.0
C702 C 0.48696 0.02899 0.45675 0.0
C703 C 0.46511 0.04425 0.4645 0.0
C704 C 0.50562 0.01099 0.4649 0.0
C705 C 0.50266 0.00757 0.48096 0.0
C706 C 0.4807 0.02262 0.48873 0.0
C707 C 0.46221 0.04098 0.48059 0.0
H708 H 0.05953 0.99626 0.95618 0.0
H709 H 0.04341 0.92566 0.98755 0.0
H710 H 0.02713 0.02672 0.97114 0.0
H711 H 0.01034 0.95586 0.00225 0.0
H712 H 0.97549 0.02626 0.03381 0.0
H713 H 0.00899 0.99653 0.01925 0.0
H714 H 0.9766 0.03244 0.97651 0.0
H715 H 0.94355 0.06293 -0.00883 0.0
C716 C 0.04907 0.98723 0.96628 0.0
C717 C 0.05406 0.95854 0.97068 0.0
C718 C 0.0303 0.00464 0.97478 0.0
C719 C 0.01596 0.99371 0.98784 0.0
C720 C 0.02127 0.96509 -0.00764 0.0
C721 C 0.04017 0.94773 0.9839 0.0
C722 C 0.97544 0.02781 0.0213 0.0
C723 C 0.95684 0.04697 0.01364 0.0
C724 C 0.99459 0.01063 0.01294 0.0
C725 C 0.99551 0.01205 -0.0033 0.0
C726 C 0.97676 0.03111 -0.01098 0.0
C727 C 0.95767 0.04844 -0.00259 0.0
H728 H 0.50914 0.04328 0.93961 0.0
H729 H 0.56067 0.05968 0.98037 0.0
H730 H 0.47764 0.01211 0.95464 0.0
H731 H 0.52897 0.02816 -0.00456 0.0
H732 H 0.48428 0.94229 0.01019 0.0
H733 H 0.5161 0.97442 -0.00421 0.0
H734 H 0.44207 0.01814 0.97676 0.0
H735 H 0.41013 0.98613 -0.0088 0.0
C736 C 0.5138 0.04019 0.95178 0.0
C737 C 0.53743 0.05392 0.95881 0.0
C738 C 0.49562 0.02247 0.96039 0.0
C739 C 0.50083 0.01781 0.97619 0.0
C740 C 0.52459 0.0313 0.98324 0.0
C741 C 0.54263 0.04938 0.97464 0.0
C742 C 0.47476 0.95873 0.00292 0.0
C743 C 0.44467 0.96163 0.00179 0.0
C744 C 0.49301 0.97723 -0.00522 0.0
C745 C 0.48153 0.99875 0.98519 0.0
C746 C 0.45146 0.00159 0.984 0.0
C747 C 0.43321 0.98332 -0.00771 0.0
H748 H 0.04902 0.00272 0.52349 0.0
H749 H 0.03401 0.07185 0.49104 0.0
H750 H 0.01661 0.97177 0.50878 0.0
H751 H 0.00088 0.04127 0.47662 0.0
H752 H 0.96905 0.96959 0.44509 0.0
H753 H 0.00076 0.00047 0.46005 0.0
H754 H 0.96682 0.96449 0.50241 0.0
H755 H 0.9356 0.93271 0.48732 0.0
C756 C 0.03871 0.01135 0.51324 0.0
C757 C 0.0442 0.03971 0.50839 0.0
C758 C 0.01993 0.99367 0.50488 0.0
C759 C 0.00605 0.00399 0.49151 0.0
C760 C 0.01151 0.03242 0.48671 0.0
C761 C 0.03045 0.05002 0.49501 0.0
C762 C 0.96822 0.96828 0.4576 0.0
C763 C 0.94977 0.94866 0.46502 0.0
C764 C 0.98634 0.98616 0.4662 0.0
C765 C 0.98636 0.98508 0.48246 0.0
C766 C 0.96767 0.96563 0.4899 0.0
C767 C 0.94962 0.94754 0.48127 0.0
H768 H 0.96162 0.16761 0.00714 0.0
H769 H 0.91311 0.23999 0.02484 0.0
H770 H 0.0013 0.19985 0.00069 0.0
H771 H 0.95286 0.27179 0.01891 0.0
H772 H 0.02589 0.32737 0.00855 0.0
H773 H 0.98573 0.29573 0.00202 0.0
H774 H 0.03506 0.22236 0.01765 0.0
H775 H 0.07525 0.25361 0.02365 0.0
C776 C 0.95915 0.19043 0.00939 0.0
C777 C 0.93444 0.20109 0.01687 0.0
C778 C 0.98196 0.2089 0.00574 0.0
C779 C 0.98055 0.23834 0.00955 0.0
C780 C 0.95476 0.24931 0.01571 0.0
C781 C 0.93195 0.23093 0.01928 0.0
C782 C 0.02842 0.3044 0.0102 0.0
C783 C 0.05356 0.29313 0.01698 0.0
C784 C 0.00534 0.28627 0.00652 0.0
C785 C 0.00691 0.25655 0.00958 0.0
C786 C 0.03303 0.24507 0.01504 0.0
C787 C 0.05608 0.26312 0.01865 0.0
H788 H 0.0105 0.67866 0.26846 0.0
H789 H 0.0878 0.72739 0.2589 0.0
H790 H 0.98141 0.72017 0.26211 0.0
H791 H 0.05841 0.76903 0.25202 0.0
H792 H -0.0 0.83952 0.27555 0.0
H793 H 0.03231 0.80056 0.26884 0.0
H794 H 0.96275 0.7565 0.24544 0.0
H795 H 0.92997 0.79523 0.25265 0.0
C796 C 0.02131 0.69801 0.26456 0.0
C797 C 0.05152 0.6999 0.2646 0.0
C798 C 0.00453 0.72186 0.26074 0.0
C799 C 0.01755 0.74819 0.25679 0.0
C800 C 0.04773 0.74923 0.25533 0.0
C801 C 0.06457 0.7253 0.25919 0.0
C802 C 0.99166 0.82193 0.26863 0.0
C803 C 0.96216 0.82011 0.26506 0.0
C804 C 0.01035 0.79958 0.26465 0.0
C805 C 1e-05 0.77501 0.2569 0.0
C806 C 0.97124 0.77477 0.25177 0.0
C807 C 0.95246 0.79706 0.25586 0.0
H808 H 0.41128 0.72471 0.51335 0.0
H809 H 0.4761 0.66104 0.52363 0.0
H810 H 0.44874 0.7594 0.50684 0.0
H811 H 0.51363 0.69598 0.51852 0.0
H812 H 0.5803 0.76035 0.51112 0.0
H813 H 0.54215 0.72625 0.5048 0.0
H814 H 0.47875 0.78816 0.52055 0.0
H815 H 0.51674 0.8226 0.52552 0.0
C816 C 0.43364 0.71813 0.51404 0.0
C817 C 0.44091 0.69038 0.5191 0.0
C818 C 0.45518 0.73807 0.51049 0.0
C819 C 0.48448 0.73102 0.51252 0.0
C820 C 0.49154 0.70246 0.5166 0.0
C821 C 0.46997 0.68229 0.51964 0.0
C822 C 0.55807 0.76679 0.51275 0.0
C823 C 0.5514 0.79394 0.51893 0.0
C824 C 0.53614 0.74716 0.50931 0.0
C825 C 0.50714 0.75389 0.51252 0.0
C826 C 0.50058 0.78195 0.5177 0.0
C827 C 0.52245 0.80184 0.52067 0.0
H828 H 0.498 0.16738 0.76952 0.0
H829 H 0.57113 0.21647 0.75329 0.0
H830 H 0.46666 0.20782 0.76429 0.0
H831 H 0.53935 0.25688 0.74754 0.0
H832 H 0.48662 0.32899 0.7729 0.0
H833 H 0.51732 0.28917 0.76556 0.0
H834 H 0.44323 0.24268 0.74835 0.0
H835 H 0.41213 0.28243 0.7562 0.0
C836 C 0.50731 0.18651 0.76439 0.0
C837 C 0.53724 0.18894 0.76226 0.0
C838 C 0.48919 0.20973 0.76123 0.0
C839 C 0.50054 0.23588 0.75577 0.0
C840 C 0.53003 0.23725 0.75208 0.0
C841 C 0.54823 0.21401 0.7553 0.0
C842 C 0.47684 0.31057 0.76727 0.0
C843 C 0.44679 0.30863 0.76553 0.0
C844 C 0.49458 0.28774 0.76288 0.0
C845 C 0.48272 0.26245 0.75657 0.0
C846 C 0.45297 0.26162 0.75348 0.0
C847 C 0.43516 0.28447 0.75794 0.0
H848 H 0.91239 0.75336 0.45542 0.0
H849 H 0.95997 0.82745 0.47175 0.0
H850 H 0.95288 0.7226 0.46153 0.0
H851 H 0.00042 0.7963 0.47837 0.0
H852 H 0.07391 0.744 0.45377 0.0
H853 H 0.03358 0.77433 0.46076 0.0
H854 H 0.98765 0.70001 0.47796 0.0
H855 H 0.02795 0.66929 0.47049 0.0
C856 C 0.93116 0.76301 0.46078 0.0
C857 C 0.93322 0.79302 0.46265 0.0
C858 C 0.95441 0.74524 0.46444 0.0
C859 C 0.98022 0.75704 0.47014 0.0
C860 C 0.98108 0.78663 0.47365 0.0
C861 C 0.9578 0.80447 0.46993 0.0
C862 C 0.05552 0.7341 0.45935 0.0
C863 C 0.0539 0.70407 0.46117 0.0
C864 C 0.03239 0.75163 0.46353 0.0
C865 C 0.00709 0.73958 0.4697 0.0
C866 C 0.00659 0.7099 0.47294 0.0
C867 C 0.02977 0.6923 0.46871 0.0
H868 H 0.51954 0.83366 0.71533 0.0
H869 H 0.58191 0.76631 0.70777 0.0
H870 H 0.48372 0.79787 0.72273 0.0
H871 H 0.54591 0.73033 0.71369 0.0
H872 H 0.4795 0.66602 0.72087 0.0
H873 H 0.51411 0.70366 0.72727 0.0
H874 H 0.4547 0.76759 0.70952 0.0
H875 H 0.41965 0.73018 0.70455 0.0
C876 C 0.52561 0.81113 0.71548 0.0
C877 C 0.5533 0.80263 0.71088 0.0
C878 C 0.50501 0.79051 0.71951 0.0
C879 C 0.51135 0.76089 0.71839 0.0
C880 C 0.5399 0.75272 0.7149 0.0
C881 C 0.56071 0.7734 0.71139 0.0
C882 C 0.4737 0.6883 0.71883 0.0
C883 C 0.44711 0.69527 0.7121 0.0
C884 C 0.49363 0.70992 0.72232 0.0
C885 C 0.48783 0.73887 0.71854 0.0
C886 C 0.46022 0.74581 0.71281 0.0
C887 C 0.43998 0.72427 0.70983 0.0
H888 H 0.58213 0.24551 0.95155 0.0
H889 H 0.53753 0.17117 0.96976 0.0
H890 H 0.5425 0.27602 0.95937 0.0
H891 H 0.49806 0.20209 0.97813 0.0
H892 H 0.42087 0.25365 0.95673 0.0
H893 H 0.46219 0.22366 0.9622 0.0
H894 H 0.51015 0.29857 0.97705 0.0
H895 H 0.46879 0.32896 0.97104 0.0
C896 C 0.56427 0.23575 0.95767 0.0
C897 C 0.56265 0.20573 0.95958 0.0
C898 C 0.54153 0.25338 0.96232 0.0
C899 C 0.51672 0.24145 0.96909 0.0
C900 C 0.51655 0.21186 0.97258 0.0
C901 C 0.53926 0.19415 0.96784 0.0
C902 C 0.43996 0.26376 0.96149 0.0
C903 C 0.44175 0.29384 0.96301 0.0
C904 C 0.46369 0.24643 0.9648 0.0
C905 C 0.48977 0.25873 0.96981 0.0
C906 C 0.49059 0.28849 0.97287 0.0
C907 C 0.46681 0.3059 0.96949 0.0
H908 H 0.00801 0.32795 0.20693 0.0
H909 H 0.08284 0.27886 0.22077 0.0
H910 H 0.97739 0.28721 0.21276 0.0
H911 H 0.05186 0.23808 0.22705 0.0
H912 H 0.99524 0.16639 0.2033 0.0
H913 H 0.02732 0.20575 0.20976 0.0
H914 H 0.95615 0.25263 0.2299 0.0
H915 H 0.92367 0.21343 0.22299 0.0
C916 C 0.0179 0.30871 0.21162 0.0
C917 C 0.04798 0.30647 0.21301 0.0
C918 C 0.00022 0.28534 0.21514 0.0
C919 C 0.01219 0.25916 0.22018 0.0
C920 C 0.04203 0.25777 0.22291 0.0
C921 C 0.05977 0.28121 0.21937 0.0
C922 C 0.98646 0.18474 0.20945 0.0
C923 C 0.9567 0.18706 0.21222 0.0
C924 C 0.00499 0.20731 0.21329 0.0
C925 C 0.99421 0.23265 0.22008 0.0
C926 C 0.96499 0.23368 0.22434 0.0
C927 C 0.9464 0.21112 0.22043 0.0
H928 H 0.9731 0.67103 0.97174 0.0
H929 H 0.92333 0.74462 0.95679 0.0
H930 H 0.01281 0.70294 0.97871 0.0
H931 H 0.96307 0.77613 0.96322 0.0
H932 H 0.03597 0.83139 0.97346 0.0
H933 H 0.9967 0.79882 0.98016 0.0
H934 H 0.04561 0.7272 0.96195 0.0
H935 H 0.08495 0.75932 0.95578 0.0
C936 C 0.97035 0.69402 0.97024 0.0
C937 C 0.94529 0.70518 0.96334 0.0
C938 C 0.99319 0.71231 0.97417 0.0
C939 C 0.99142 0.74206 0.97123 0.0
C940 C 0.96527 0.7534 0.96573 0.0
C941 C 0.94247 0.73519 0.96187 0.0
C942 C 0.03866 0.80856 0.9713 0.0
C943 C 0.06334 0.7981 0.96371 0.0
C944 C 0.01607 0.7899 0.97508 0.0
C945 C 0.01768 0.76046 0.9713 0.0
C946 C 0.04353 0.74967 0.96511 0.0
C947 C 0.0661 0.76824 0.9614 0.0
H948 H 0.91511 0.271 0.71804 0.0
H949 H 0.98967 0.32359 0.7081 0.0
H950 H 0.94659 0.22992 0.72299 0.0
H951 H 0.0208 0.28265 0.71253 0.0
H952 H 0.07539 0.20797 0.7208 0.0
H953 H 0.04195 0.24607 0.72815 0.0
H954 H 0.9729 0.20064 0.70507 0.0
H955 H 0.00591 0.16231 0.6982 0.0
C956 C 0.9382 0.27401 0.71724 0.0
C957 C 0.94982 0.30044 0.71234 0.0
C958 C 0.95624 0.2504 0.71998 0.0
C959 C 0.98622 0.25278 0.71788 0.0
C960 C 0.99789 0.27993 0.71436 0.0
C961 C 0.97993 0.30346 0.71166 0.0
C962 C 0.05292 0.20578 0.71761 0.0
C963 C 0.0435 0.18236 0.7086 0.0
C964 C 0.03376 0.22769 0.72179 0.0
C965 C 0.00482 0.22673 0.71696 0.0
C966 C 0.99495 0.20211 0.7091 0.0
C967 C 0.01403 0.18014 0.70501 0.0
H968 H 0.58734 0.253 0.451 0.0
H969 H 0.54112 0.32301 0.47275 0.0
H970 H 0.54887 0.22018 0.45782 0.0
H971 H 0.50286 0.28975 0.48006 0.0
H972 H 0.42605 0.23763 0.4588 0.0
H973 H 0.46678 0.26861 0.46407 0.0
H974 H 0.51865 0.19422 0.47534 0.0
H975 H 0.47782 0.16291 0.46955 0.0
C976 C 0.56937 0.26128 0.45765 0.0
C977 C 0.56701 0.29084 0.46096 0.0
C978 C 0.54731 0.2423 0.4617 0.0
C979 C 0.52244 0.25238 0.46926 0.0
C980 C 0.52142 0.28141 0.47393 0.0
C981 C 0.54343 0.30046 0.46978 0.0
C982 C 0.44591 0.22782 0.46274 0.0
C983 C 0.44884 0.19771 0.46336 0.0
C984 C 0.46932 0.24569 0.46592 0.0
C985 C 0.49624 0.23392 0.46988 0.0
C986 C 0.49838 0.20395 0.472 0.0
C987 C 0.4749 0.186 0.46877 0.0
H988 H 0.4275 0.78033 0.22026 0.0
H989 H 0.49806 0.83187 0.20297 0.0
H990 H 0.46095 0.74107 0.22559 0.0
H991 H 0.53106 0.79256 0.2078 0.0
H992 H 0.58903 0.72057 0.21769 0.0
H993 H 0.55623 0.75976 0.22429 0.0
H994 H 0.48434 0.70883 0.20805 0.0
H995 H 0.51673 0.6696 0.20197 0.0
C996 C 0.45017 0.78352 0.21785 0.0
C997 C 0.45996 0.80905 0.21087 0.0
C998 C 0.46933 0.76095 0.22084 0.0
C999 C 0.49863 0.76342 0.21688 0.0
C1000 C 0.50873 0.78986 0.21111 0.0
C1001 C 0.48965 0.81241 0.20819 0.0
C1002 C 0.56614 0.71749 0.2159 0.0
C1003 C 0.5556 0.69215 0.20899 0.0
C1004 C 0.54735 0.74002 0.21961 0.0
C1005 C 0.51769 0.73768 0.21647 0.0
C1006 C 0.50698 0.71142 0.21076 0.0
C1007 C 0.52568 0.68892 0.2071 0.0
H1008 H 0.97665 0.33038 0.52172 0.0
H1009 H 0.91019 0.26695 0.51422 0.0
H1010 H 0.0131 0.29527 0.51524 0.0
H1011 H 0.94652 0.23199 0.50634 0.0
H1012 H 0.01735 0.16838 0.52119 0.0
H1013 H 0.97867 0.2028 0.5181 0.0
H1014 H 0.03955 0.26534 0.5004 0.0
H1015 H 0.07857 0.23128 0.50494 0.0
C1016 C 0.9698 0.30911 0.51809 0.0
C1017 C 0.94066 0.30125 0.51868 0.0
C1018 C 0.99079 0.28882 0.51423 0.0
C1019 C 0.9831 0.26028 0.51045 0.0
C1020 C 0.95356 0.25331 0.50969 0.0
C1021 C 0.93262 0.27342 0.51404 0.0
C1022 C 0.0223 0.18928 0.5163 0.0
C1023 C 0.05092 0.19735 0.5135 0.0
C1024 C 1e-05 0.20918 0.51443 0.0
C1025 C 0.00575 0.23742 0.50929 0.0
C1026 C 0.03422 0.24431 0.50496 0.0
C1027 C 0.05663 0.22469 0.50735 0.0
H1028 H 0.48135 0.16617 0.25869 0.0
H1029 H 0.41882 0.23059 0.2715 0.0
H1030 H 0.5146 0.20381 0.25053 0.0
H1031 H 0.4525 0.26828 0.26472 0.0
H1032 H 0.51519 0.33533 0.25644 0.0
H1033 H 0.48104 0.29717 0.25019 0.0
H1034 H 0.54484 0.23368 0.26337 0.0
H1035 H 0.57919 0.27169 0.26825 0.0
C1036 C 0.47465 0.18846 0.25955 0.0
C1037 C 0.44775 0.19558 0.26587 0.0
C1038 C 0.49379 0.21012 0.25505 0.0
C1039 C 0.48685 0.23936 0.25735 0.0
C1040 C 0.45887 0.24623 0.26256 0.0
C1041 C 0.43944 0.22456 0.26658 0.0
C1042 C 0.52203 0.3131 0.25746 0.0
C1043 C 0.54965 0.3064 0.263 0.0
C1044 C 0.50238 0.29117 0.25407 0.0
C1045 C 0.50961 0.26211 0.25671 0.0
C1046 C 0.53818 0.25556 0.26102 0.0
C1047 C 0.55805 0.27746 0.26393 0.0
H1048 H 0.41678 0.7721 0.0099 0.0
H1049 H 0.48321 0.83359 0.02126 0.0
H1050 H 0.45342 0.73692 0.00276 0.0
H1051 H 0.51981 0.79815 0.01541 0.0
H1052 H 0.58501 0.7334 0.00625 0.0
H1053 H 0.54727 0.76834 0.00065 0.0
H1054 H 0.48323 0.70677 0.01592 0.0
H1055 H 0.5208 0.67153 0.0202 0.0
C1056 C 0.43929 0.77812 0.01071 0.0
C1057 C 0.44722 0.8054 0.01627 0.0
C1058 C 0.46036 0.75789 0.00678 0.0
C1059 C 0.48981 0.76419 0.00882 0.0
C1060 C 0.49755 0.79229 0.01343 0.0
C1061 C 0.47649 0.81274 0.01692 0.0
C1062 C 0.56272 0.72721 0.00791 0.0
C1063 C 0.55577 0.69994 0.01379 0.0
C1064 C 0.54104 0.74732 0.00489 0.0
C1065 C 0.51202 0.74091 0.00823 0.0
C1066 C 0.5051 0.71273 0.01302 0.0
C1067 C 0.52672 0.69239 0.01559 0.0
H1068 H 0.9972 0.67254 0.77078 0.0
H1069 H 0.92112 0.72223 0.75985 0.0
H1070 H 0.02706 0.71425 0.76582 0.0
H1071 H 0.9513 0.76401 0.75443 0.0
H1072 H 0.0079 0.83377 0.77963 0.0
H1073 H 0.97621 0.79452 0.77246 0.0
H1074 H 0.0471 0.75124 0.74985 0.0
H1075 H 0.07921 0.79031 0.75746 0.0
C1076 C 0.98686 0.69214 0.76688 0.0
C1077 C 0.95668 0.6942 0.76611 0.0
C1078 C 0.00408 0.71611 0.76388 0.0
C1079 C 0.99156 0.7427 0.75998 0.0
C1080 C 0.96157 0.744 0.75772 0.0
C1081 C 0.94428 0.71997 0.76075 0.0
C1082 C 0.01669 0.81626 0.77282 0.0
C1083 C 0.0463 0.81488 0.76949 0.0
C1084 C 0.99837 0.79375 0.76857 0.0
C1085 C 0.00919 0.76942 0.76081 0.0
C1086 C 0.03821 0.76939 0.75613 0.0
C1087 C 0.0566 0.79186 0.76045 0.0
H1088 H 0.30995 0.40451 0.96725 0.0
H1089 H 0.31539 0.31457 0.97926 0.0
H1090 H 0.26225 0.40726 0.9791 0.0
H1091 H 0.26887 0.31749 -0.00792 0.0
H1092 H 0.17477 0.31727 -0.00203 0.0
H1093 H 0.22103 0.31932 0.9848 0.0
H1094 H 0.23293 0.40673 0.00109 0.0
H1095 H 0.18546 0.40502 0.01327 0.0
C1096 C 0.30128 0.38562 0.97294 0.0
C1097 C 0.31609 0.35932 0.97239 0.0
C1098 C 0.27392 0.38711 0.97968 0.0
C1099 C 0.26126 0.3624 0.98623 0.0
C1100 C 0.27732 0.33668 0.98662 0.0
C1101 C 0.30421 0.33506 0.97955 0.0
C1102 C 0.18702 0.33714 -0.00171 0.0
C1103 C 0.17673 0.36103 0.00648 0.0
C1104 C 0.21376 0.33822 -0.00898 0.0
C1105 C 0.23126 0.3629 -0.00772 0.0
C1106 C 0.22013 0.38739 -0.00018 0.0
C1107 C 0.19292 0.38651 0.00676 0.0
H1108 H 0.89924 0.03596 0.19961 0.0
H1109 H 0.85945 0.08709 0.23558 0.0
H1110 H 0.89296 0.99286 0.21515 0.0
H1111 H 0.85331 0.04351 0.25127 0.0
H1112 H 0.8991 0.96859 0.2793 0.0
H1113 H 0.89196 0.01168 0.26383 0.0
H1114 H 0.85458 0.96029 0.22729 0.0
H1115 H 0.86158 0.91675 0.2429 0.0
C1116 C 0.88899 0.03797 0.21082 0.0
C1117 C 0.88022 0.06496 0.21651 0.0
C1118 C 0.88507 0.0132 0.21961 0.0
C1119 C 0.8726 0.01491 0.23435 0.0
C1120 C 0.86302 0.04173 0.23991 0.0
C1121 C 0.86655 0.06658 0.23098 0.0
C1122 C 0.88913 0.96644 0.26801 0.0
C1123 C 0.8813 0.93926 0.26218 0.0
C1124 C 0.88472 0.99118 0.25926 0.0
C1125 C 0.87271 0.98925 0.24441 0.0
C1126 C 0.86394 0.96224 0.23873 0.0
C1127 C 0.86796 0.93741 0.24762 0.0
H1128 H 0.19824 0.68316 0.45908 0.0
H1129 H 0.17298 0.59912 0.47583 0.0
H1130 H 0.24329 0.67949 0.47313 0.0
H1131 H 0.21842 0.59574 0.49019 0.0
H1132 H 0.31745 0.5912 0.50017 0.0
H1133 H 0.27276 0.59252 0.48496 0.0
H1134 H 0.25717 0.6795 0.50063 0.0
H1135 H 0.30143 0.67842 0.51549 0.0
C1136 C 0.20219 0.66393 0.46584 0.0
C1137 C 0.18191 0.64146 0.46637 0.0
C1138 C 0.22805 0.66188 0.47391 0.0
C1139 C 0.23435 0.63734 0.48273 0.0
C1140 C 0.21418 0.61478 0.48333 0.0
C1141 C 0.18808 0.61688 0.47527 0.0
C1142 C 0.3046 0.61067 0.50017 0.0
C1143 C 0.31297 0.63469 0.50902 0.0
C1144 C 0.27893 0.61131 0.49163 0.0
C1145 C 0.26152 0.63609 0.49167 0.0
C1146 C 0.27026 0.66019 0.50027 0.0
C1147 C 0.29562 0.6595 0.50884 0.0
H1148 H 0.56004 0.05032 0.75814 0.0
H1149 H 0.64903 0.07052 0.7481 0.0
H1150 H 0.56445 0.00557 0.74387 0.0
H1151 H 0.6533 0.02529 0.7335 0.0
H1152 H 0.65223 0.92401 0.72586 0.0
H1153 H 0.65114 0.97044 0.73948 0.0
H1154 H 0.57146 0.99182 0.71638 0.0
H1155 H 0.57214 0.94596 0.70309 0.0
C1156 C 0.58052 0.04532 0.75276 0.0
C1157 C 0.60419 0.06397 0.75423 0.0
C1158 C 0.583 0.01968 0.74455 0.0
C1159 C 0.60922 0.012 0.73762 0.0
C1160 C 0.63292 0.03069 0.73888 0.0
C1161 C 0.63037 0.05664 0.74705 0.0
C1162 C 0.63445 0.93861 0.72378 0.0
C1163 C 0.6122 0.93117 0.71347 0.0
C1164 C 0.634 0.96524 0.73143 0.0
C1165 C 0.61119 0.98461 0.72896 0.0
C1166 C 0.58915 0.97717 0.71861 0.0
C1167 C 0.58962 0.95083 0.71098 0.0
H1168 H 0.69078 0.59013 0.01102 0.0
H1169 H 0.67427 0.67349 -0.00899 0.0
H1170 H 0.73833 0.58926 -0.00109 0.0
H1171 H 0.72073 0.67204 0.97795 0.0
H1172 H 0.8153 0.68302 0.97424 0.0
H1173 H 0.76793 0.67881 0.98595 0.0
H1174 H 0.76872 0.58702 0.9772 0.0
H1175 H 0.81718 0.59129 0.96635 0.0
C1176 C 0.69695 0.60767 0.00345 0.0
C1177 C 0.67911 0.63184 0.00183 0.0
C1178 C 0.72422 0.60729 -0.00344 0.0
C1179 C 0.73378 0.63094 0.98777 0.0
C1180 C 0.71461 0.65394 0.98512 0.0
C1181 C 0.68777 0.65461 -0.00768 0.0
C1182 C 0.80552 0.66189 0.97516 0.0
C1183 C 0.81975 0.63749 0.96947 0.0
C1184 C 0.77815 0.65947 0.98161 0.0
C1185 C 0.764 0.63267 0.9821 0.0
C1186 C 0.7789 0.60799 0.97703 0.0
C1187 C 0.80669 0.61037 0.97088 0.0
H1188 H 0.14186 0.91602 0.74597 0.0
H1189 H 0.09858 0.96664 0.78098 0.0
H1190 H 0.1468 0.95919 0.72992 0.0
H1191 H 0.10371 0.00948 0.76502 0.0
H1192 H 0.13744 0.08541 0.7364 0.0
H1193 H 0.14236 0.04284 0.75304 0.0
H1194 H 0.10783 0.98945 0.71652 0.0
H1195 H 0.10269 0.03153 0.70007 0.0
C1196 C 0.13366 0.93634 0.75029 0.0
C1197 C 0.1195 0.93786 0.76463 0.0
C1198 C 0.1365 0.96098 0.74113 0.0
C1199 C 0.12568 0.98759 0.74629 0.0
C1200 C 0.11251 0.98929 0.76086 0.0
C1201 C 0.10929 0.96467 0.7699 0.0
C1202 C 0.13115 0.06452 0.73194 0.0
C1203 C 0.11936 0.06182 0.71703 0.0
C1204 C 0.13394 0.04026 0.74142 0.0
C1205 C 0.12555 0.01294 0.73599 0.0
C1206 C 0.11476 0.01019 0.72091 0.0
C1207 C 0.11153 0.03437 0.71158 0.0
H1208 H 0.83579 0.39143 0.49366 0.0
H1209 H 0.78637 0.34985 0.52968 0.0
H1210 H 0.79198 0.39557 0.47792 0.0
H1211 H 0.74298 0.35423 0.51408 0.0
H1212 H 0.66581 0.38686 0.48631 0.0
H1213 H 0.70934 0.39253 0.50218 0.0
H1214 H 0.76062 0.35636 0.46528 0.0
H1215 H 0.71755 0.35047 0.44958 0.0
C1216 C 0.81562 0.38342 0.49825 0.0
C1217 C 0.81459 0.36999 0.5128 0.0
C1218 C 0.79062 0.38581 0.48928 0.0
C1219 C 0.76416 0.37531 0.49486 0.0
C1220 C 0.76301 0.3628 0.5096 0.0
C1221 C 0.78797 0.36 0.51843 0.0
C1222 C 0.68643 0.38038 0.48158 0.0
C1223 C 0.68824 0.36788 0.46681 0.0
C1224 C 0.71126 0.3836 0.49063 0.0
C1225 C 0.73827 0.37493 0.48489 0.0
C1226 C 0.74013 0.36349 0.46991 0.0
C1227 C 0.71539 0.35984 0.46101 0.0
H1228 H 0.43215 0.06868 0.25348 0.0
H1229 H 0.3427 0.06024 0.26612 0.0
H1230 H 0.4305 0.02218 0.24059 0.0
H1231 H 0.34127 0.01249 0.25423 0.0
H1232 H 0.3443 0.93718 0.21923 0.0
H1233 H 0.34177 0.98389 0.23215 0.0
H1234 H 0.43044 0.97412 0.24683 0.0
H1235 H 0.43325 0.92868 0.23284 0.0
C1236 C 0.41206 0.05678 0.25337 0.0
C1237 C 0.38753 0.0679 0.26066 0.0
C1238 C 0.41117 0.02988 0.24625 0.0
C1239 C 0.38596 0.01302 0.24672 0.0
C1240 C 0.36103 0.02479 0.25355 0.0
C1241 C 0.36176 0.05216 0.26033 0.0
C1242 C 0.36295 0.94492 0.22554 0.0
C1243 C 0.38896 0.9296 0.22512 0.0
C1244 C 0.36159 0.97171 0.23292 0.0
C1245 C 0.38612 0.98327 0.24026 0.0
C1246 C 0.41143 0.96656 0.2408 0.0
C1247 C 0.41298 0.94027 0.23306 0.0
H1248 H 0.81903 0.89446 0.47972 0.0
H1249 H 0.78339 0.82859 0.44983 0.0
H1250 H 0.77271 0.89725 0.49346 0.0
H1251 H 0.7379 0.83178 0.46327 0.0
H1252 H 0.68316 0.81283 0.50607 0.0
H1253 H 0.72623 0.81657 0.49033 0.0
H1254 H 0.7174 0.90914 0.48934 0.0
H1255 H 0.67369 0.90539 0.50536 0.0
C1256 C 0.80142 0.88078 0.47603 0.0
C1257 C 0.80516 0.86093 0.46388 0.0
C1258 C 0.77491 0.88258 0.48377 0.0
C1259 C 0.75191 0.86455 0.47945 0.0
C1260 C 0.75541 0.84563 0.46696 0.0
C1261 C 0.78163 0.84378 0.45931 0.0
C1262 C 0.69013 0.834 0.50236 0.0
C1263 C 0.67509 0.85882 0.5069 0.0
C1264 C 0.71478 0.83613 0.49333 0.0
C1265 C 0.72512 0.86315 0.48866 0.0
C1266 C 0.70988 0.88809 0.4929 0.0
C1267 C 0.68479 0.88592 0.50187 0.0
H1268 H 0.42451 0.57248 0.7321 0.0
H1269 H 0.33647 0.56346 0.71691 0.0
H1270 H 0.42142 0.52655 0.74551 0.0
H1271 H 0.33371 0.51633 0.72937 0.0
H1272 H 0.33479 0.43939 0.76337 0.0
H1273 H 0.3328 0.48718 0.75155 0.0
H1274 H 0.4222 0.47868 0.73803 0.0
H1275 H 0.42437 0.43209 0.75077 0.0
C1276 C 0.40435 0.5607 0.73186 0.0
C1277 C 0.38071 0.57133 0.7236 0.0
C1278 C 0.40267 0.53415 0.73928 0.0
C1279 C 0.37761 0.51719 0.73811 0.0
C1280 C 0.35334 0.52872 0.73055 0.0
C1281 C 0.35483 0.55575 0.72346 0.0
C1282 C 0.35373 0.44769 0.75757 0.0
C1283 C 0.37973 0.43233 0.75793 0.0
C1284 C 0.35269 0.47508 0.75085 0.0
C1285 C 0.37755 0.48722 0.74417 0.0
C1286 C 0.40292 0.47063 0.7436 0.0
C1287 C 0.40411 0.4437 0.75063 0.0
H1288 H 0.80287 0.17814 0.00805 0.0
H1289 H 0.81697 0.08681 0.00192 0.0
H1290 H 0.76058 0.17557 -0.00837 0.0
H1291 H 0.77398 0.08431 0.98524 0.0
H1292 H 0.67183 0.0988 0.97426 0.0
H1293 H 0.71674 0.09456 -0.01079 0.0
H1294 H 0.75369 0.16423 0.96283 0.0
H1295 H 0.70963 0.16875 0.94814 0.0
C1296 C 0.79699 0.15749 0.00311 0.0
C1297 C 0.81324 0.13267 0.00623 0.0
C1298 C 0.7728 0.15606 -0.00631 0.0
C1299 C 0.76413 0.12975 0.98722 0.0
C1300 C 0.78028 0.10479 -0.00979 0.0
C1301 C 0.80493 0.10629 -0.00043 0.0
C1302 C 0.68962 0.11306 0.97163 0.0
C1303 C 0.6869 0.13443 0.9602 0.0
C1304 C 0.71532 0.11045 0.98007 0.0
C1305 C 0.73843 0.12923 0.97717 0.0
C1306 C 0.73602 0.14973 0.96538 0.0
C1307 C 0.71063 0.15232 0.95701 0.0
H1308 H 0.15696 0.56418 0.26333 0.0
H1309 H 0.06751 0.57128 0.25039 0.0
H1310 H 0.15917 0.5164 0.25158 0.0
H1311 H 0.06996 0.52469 0.2376 0.0
H1312 H 0.06865 0.43056 0.23099 0.0
H1313 H 0.07053 0.47681 0.2442 0.0
H1314 H 0.15928 0.48712 0.22981 0.0
H1315 H 0.15767 0.43966 0.21767 0.0
C1316 C 0.13807 0.55582 0.25748 0.0
C1317 C 0.11206 0.57118 0.25773 0.0
C1318 C 0.13925 0.52842 0.25077 0.0
C1319 C 0.11455 0.51622 0.24391 0.0
C1320 C 0.08912 0.53274 0.24329 0.0
C1321 C 0.08777 0.55968 0.25035 0.0
C1322 C 0.08872 0.44249 0.23108 0.0
C1323 C 0.11305 0.4317 0.22346 0.0
C1324 C 0.08974 0.46924 0.23837 0.0
C1325 C 0.11482 0.48627 0.23771 0.0
C1326 C 0.13962 0.4747 0.23066 0.0
C1327 C 0.13879 0.44748 0.22373 0.0
H1328 H 0.17824 0.17652 0.49292 0.0
H1329 H 0.18555 0.08796 0.50729 0.0
H1330 H 0.22556 0.17387 0.4809 0.0
H1331 H 0.23395 0.08558 0.49627 0.0
H1332 H 0.31472 0.08749 0.46492 0.0
H1333 H 0.2658 0.08524 0.47531 0.0
H1334 H 0.27265 0.17445 0.48944 0.0
H1335 H 0.3205 0.17688 0.47809 0.0
C1336 C 0.18993 0.15632 0.49325 0.0
C1337 C 0.17835 0.13241 0.50089 0.0
C1338 C 0.2173 0.15489 0.48665 0.0
C1339 C 0.23415 0.12978 0.48804 0.0
C1340 C 0.22172 0.10527 0.49493 0.0
C1341 C 0.19393 0.10652 0.50119 0.0
C1342 C 0.30583 0.10633 0.47058 0.0
C1343 C 0.3212 0.13234 0.47076 0.0
C1344 C 0.27775 0.10515 0.47647 0.0
C1345 C 0.26481 0.12988 0.48288 0.0
C1346 C 0.28131 0.15526 0.48405 0.0
C1347 C 0.30897 0.15658 0.47783 0.0
H1348 H 0.57234 0.43395 0.24826 0.0
H1349 H 0.66231 0.43622 0.26069 0.0
H1350 H 0.57709 0.48024 0.23541 0.0
H1351 H 0.66693 0.48369 0.24874 0.0
H1352 H 0.66748 0.55976 0.2139 0.0
H1353 H 0.66755 0.51259 0.22645 0.0
H1354 H 0.58071 0.52808 0.24271 0.0
H1355 H 0.58028 0.57405 0.22922 0.0
C1356 C 0.59322 0.44439 0.24808 0.0
C1357 C 0.61696 0.43169 0.25538 0.0
C1358 C 0.59591 0.47115 0.24097 0.0
C1359 C 0.6222 0.48624 0.24144 0.0
C1360 C 0.64637 0.47276 0.24812 0.0
C1361 C 0.6438 0.44555 0.25492 0.0
C1362 C 0.64877 0.55317 0.2205 0.0
C1363 C 0.62389 0.57028 0.2207 0.0
C1364 C 0.6487 0.52614 0.22764 0.0
C1365 C 0.62386 0.5161 0.23527 0.0
C1366 C 0.59985 0.53452 0.23644 0.0
C1367 C 0.5997 0.5611 0.22899 0.0
H1368 H 0.18676 0.91358 0.97033 0.0
H1369 H 0.19687 0.82121 0.97092 0.0
H1370 H 0.23453 0.91912 0.98187 0.0
H1371 H 0.24363 0.82641 0.98321 0.0
H1372 H 0.33622 0.83899 -0.00893 0.0
H1373 H 0.29057 0.8396 0.97707 0.0
H1374 H 0.26338 0.91341 0.00401 0.0
H1375 H 0.30997 0.91363 0.01716 0.0
C1376 C 0.19894 0.89448 0.97332 0.0
C1377 C 0.18829 0.86698 0.96972 0.0
C1378 C 0.22634 0.8976 0.97988 0.0
C1379 C 0.24332 0.87323 0.98318 0.0
C1380 C 0.23175 0.84572 0.98031 0.0
C1381 C 0.20473 0.84267 0.97349 0.0
C1382 C 0.32077 0.85589 -0.00649 0.0
C1383 C 0.32646 0.87647 0.00495 0.0
C1384 C 0.29442 0.85599 0.98575 0.0
C1385 C 0.27288 0.8761 -0.01031 0.0
C1386 C 0.2794 0.8977 0.00059 0.0
C1387 C 0.30608 0.89794 0.0081 0.0
H1388 H 0.84157 0.43556 0.71805 0.0
H1389 H 0.93038 0.42543 0.7316 0.0
H1390 H 0.84069 0.48341 0.72984 0.0
H1391 H 0.92924 0.47212 0.74437 0.0
H1392 H 0.9344 0.56655 0.7492 0.0
H1393 H 0.93058 0.51971 0.73676 0.0
H1394 H 0.84166 0.51362 0.75149 0.0
H1395 H 0.84526 0.56161 0.76297 0.0
C1396 C 0.86054 0.44322 0.7241 0.0
C1397 C 0.88604 0.42703 0.72398 0.0
C1398 C 0.86013 0.47067 0.73081 0.0
C1399 C 0.88514 0.4821 0.73773 0.0
C1400 C 0.9099 0.46464 0.73862 0.0
C1401 C 0.91048 0.43764 0.73158 0.0
C1402 C 0.91387 0.55543 0.74937 0.0
C1403 C 0.89011 0.56756 0.75692 0.0
C1404 C 0.91174 0.52834 0.74251 0.0
C1405 C 0.88604 0.51232 0.74352 0.0
C1406 C 0.86178 0.52523 0.75044 0.0
C1407 C 0.86375 0.55277 0.75696 0.0
H1408 H 0.12398 0.32654 0.07549 0.0
H1409 H 0.03907 0.36389 0.07982 0.0
H1410 H 0.12322 0.31347 0.10256 0.0
H1411 H 0.03816 0.35035 0.10713 0.0
H1412 H 0.1192 0.29116 0.15166 0.0
H1413 H 0.10376 0.28759 0.12467 0.0
H1414 H 0.06599 0.37245 0.12784 0.0
H1415 H 0.08099 0.37588 0.15456 0.0
C1416 C 0.10473 0.33117 0.08209 0.0
C1417 C 0.08178 0.34669 0.07556 0.0
C1418 C 0.10421 0.32345 0.09765 0.0
C1419 C 0.08075 0.33114 0.10704 0.0
C1420 C 0.05671 0.3445 0.10021 0.0
C1421 C 0.05723 0.35224 0.08458 0.0
C1422 C 0.10702 0.30874 0.14666 0.0
C1423 C 0.10164 0.33395 0.15518 0.0
C1424 C 0.09818 0.30668 0.13123 0.0
C1425 C 0.08384 0.32981 0.12409 0.0
C1426 C 0.07662 0.35406 0.13301 0.0
C1427 C 0.08546 0.35612 0.14837 0.0
H1428 H 0.9608 0.86396 0.40146 0.0
H1429 H 0.87739 0.82258 0.40138 0.0
H1430 H 0.96786 0.84901 0.37456 0.0
H1431 H 0.88437 0.80785 0.37494 0.0
H1432 H 0.9273 0.87435 0.32606 0.0
H1433 H 0.9418 0.86994 0.35273 0.0
H1434 H 0.90884 0.78294 0.35382 0.0
H1435 H 0.89402 0.78743 0.32676 0.0
C1436 C 0.94436 0.85103 0.39589 0.0
C1437 C 0.91834 0.84486 0.40349 0.0
C1438 C 0.94844 0.84242 0.38052 0.0
C1439 C 0.92657 0.82748 0.37258 0.0
C1440 C 0.90184 0.81899 0.38072 0.0
C1441 C 0.89772 0.82771 0.39596 0.0
C1442 C 0.92396 0.85389 0.33172 0.0
C1443 C 0.90898 0.83144 0.32435 0.0
C1444 C 0.93256 0.85126 0.34708 0.0
C1445 C 0.92617 0.8262 0.35546 0.0
C1446 C 0.91373 0.80265 0.34767 0.0
C1447 C 0.90518 0.80526 0.33221 0.0
H1448 H 0.36074 0.68873 0.64398 0.0
H1449 H 0.43416 0.63845 0.6584 0.0
H1450 H 0.37578 0.68416 0.6172 0.0
H1451 H 0.45013 0.63482 0.63165 0.0
H1452 H 0.43209 0.59039 0.58421 0.0
H1453 H 0.43326 0.60686 0.61094 0.0
H1454 H 0.40657 0.6918 0.59616 0.0
H1455 H 0.40426 0.67463 0.56952 0.0
C1456 C 0.38064 0.67748 0.64145 0.0
C1457 C 0.39585 0.66327 0.65319 0.0
C1458 C 0.38944 0.67497 0.62607 0.0
C1459 C 0.41395 0.6586 0.62219 0.0
C1460 C 0.43069 0.64682 0.63417 0.0
C1461 C 0.42156 0.64892 0.64952 0.0
C1462 C 0.42712 0.61272 0.5867 0.0
C1463 C 0.41726 0.63105 0.575 0.0
C1464 C 0.42794 0.62231 0.60201 0.0
C1465 C 0.41941 0.65059 0.60579 0.0
C1466 C 0.41236 0.66966 0.59374 0.0
C1467 C 0.41101 0.65987 0.57849 0.0
H1468 H 0.60751 0.2118 0.82201 0.0
H1469 H 0.57122 0.12608 0.82147 0.0
H1470 H 0.59166 0.21768 0.84882 0.0
H1471 H 0.5557 0.13184 0.8479 0.0
H1472 H 0.53385 0.13963 0.89591 0.0
H1473 H 0.52889 0.15449 0.8689 0.0
H1474 H 0.61353 0.19313 0.87075 0.0
H1475 H 0.61837 0.1786 0.89736 0.0
C1476 C 0.59557 0.19452 0.82745 0.0
C1477 C 0.59104 0.1683 0.81971 0.0
C1478 C 0.58641 0.19793 0.84276 0.0
C1479 C 0.57265 0.17514 0.85052 0.0
C1480 C 0.56587 0.15 0.84225 0.0
C1481 C 0.57506 0.14658 0.82704 0.0
C1482 C 0.55098 0.15206 0.89065 0.0
C1483 C 0.57674 0.15742 0.89868 0.0
C1484 C 0.54812 0.1606 0.87521 0.0
C1485 C 0.57098 0.17461 0.86763 0.0
C1486 C 0.59537 0.18261 0.87622 0.0
C1487 C 0.59826 0.17401 0.89156 0.0
H1488 H 0.1362 0.69604 0.33356 0.0
H1489 H 0.0589 0.65195 0.31913 0.0
H1490 H 0.11942 0.69564 0.36013 0.0
H1491 H 0.04118 0.65262 0.34565 0.0
H1492 H 0.05398 0.60949 0.39388 0.0
H1493 H 0.05402 0.62487 0.36703 0.0
H1494 H 0.08936 0.7073 0.38078 0.0
H1495 H 0.09051 0.69102 0.40758 0.0
C1496 C 0.11513 0.68712 0.33603 0.0
C1497 C 0.09923 0.67324 0.32443 0.0
C1498 C 0.10531 0.68703 0.35129 0.0
C1499 C 0.07912 0.67351 0.35516 0.0
C1500 C 0.06187 0.66237 0.34318 0.0
C1501 C 0.07199 0.66197 0.32797 0.0
C1502 C 0.06105 0.63115 0.39116 0.0
C1503 C 0.07306 0.64877 0.40262 0.0
C1504 C 0.06094 0.64013 0.37576 0.0
C1505 C 0.07237 0.66717 0.37163 0.0
C1506 C 0.08134 0.68599 0.38346 0.0
C1507 C 0.08201 0.67671 0.39881 0.0
H1508 H 0.56858 0.82677 0.66003 0.0
H1509 H 0.65295 0.80021 0.64482 0.0
H1510 H 0.55098 0.8245 0.63346 0.0
H1511 H 0.636 0.79893 0.61817 0.0
H1512 H 0.60533 0.80335 0.57078 0.0
H1513 H 0.60744 0.784 0.59691 0.0
H1514 H 0.56021 0.85812 0.61358 0.0
H1515 H 0.5575 0.8768 0.5874 0.0
C1516 C 0.58318 0.81998 0.65097 0.0
C1517 C 0.61223 0.81441 0.65425 0.0
C1518 C 0.57316 0.81868 0.63578 0.0
C1519 C 0.59225 0.81239 0.62361 0.0
C1520 C 0.6206 0.8038 0.62721 0.0
C1521 C 0.63044 0.80461 0.64247 0.0
C1522 C 0.59513 0.81527 0.58001 0.0
C1523 C 0.58208 0.84202 0.57719 0.0
C1524 C 0.59621 0.80412 0.59498 0.0
C1525 C 0.58457 0.81975 0.60742 0.0
C1526 C 0.56926 0.84529 0.60431 0.0
C1527 C 0.56785 0.8562 0.5893 0.0
H1528 H 0.37784 0.28911 0.82818 0.0
H1529 H 0.41485 0.37437 0.82555 0.0
H1530 H 0.3936 0.28551 0.85512 0.0
H1531 H 0.43016 0.37093 0.85217 0.0
H1532 H 0.45595 0.36382 0.90026 0.0
H1533 H 0.45786 0.34969 0.87301 0.0
H1534 H 0.3736 0.31087 0.87719 0.0
H1535 H 0.37188 0.32447 0.90417 0.0
C1536 C 0.38986 0.30679 0.83321 0.0
C1537 C 0.39474 0.33218 0.82479 0.0
C1538 C 0.39889 0.30472 0.84862 0.0
C1539 C 0.41291 0.32803 0.85583 0.0
C1540 C 0.41977 0.35241 0.84697 0.0
C1541 C 0.41075 0.35447 0.83165 0.0
C1542 C 0.4382 0.35161 0.89542 0.0
C1543 C 0.41356 0.34569 0.90429 0.0
C1544 C 0.43929 0.34353 0.87984 0.0
C1545 C 0.41573 0.32948 0.8729 0.0
C1546 C 0.39226 0.32139 0.88217 0.0
C1547 C 0.39118 0.32944 0.89769 0.0
H1548 H 0.92593 0.13104 0.15265 0.0
H1549 H 0.88119 0.21235 0.14895 0.0
H1550 H 0.93865 0.13335 0.12569 0.0
H1551 H 0.8942 0.21473 0.12155 0.0
H1552 H 0.86798 0.16554 0.07559 0.0
H1553 H 0.87284 0.18375 0.10165 0.0
H1554 H 0.96122 0.15456 0.10294 0.0
H1555 H 0.95628 0.13601 0.07657 0.0
C1556 C 0.91959 0.14994 0.14624 0.0
C1557 C 0.90203 0.17121 0.15291 0.0
C1558 C 0.92716 0.15139 0.1307 0.0
C1559 C 0.91713 0.17405 0.12142 0.0
C1560 C 0.90192 0.19682 0.12841 0.0
C1561 C 0.89447 0.19544 0.14408 0.0
C1562 C 0.88876 0.16373 0.08118 0.0
C1563 C 0.91162 0.14893 0.0741 0.0
C1564 C 0.89163 0.17445 0.09614 0.0
C1565 C 0.91737 0.17045 0.1044 0.0
C1566 C 0.94103 0.1577 0.09688 0.0
C1567 C 0.93816 0.14698 0.08183 0.0
H1568 H 0.92761 0.62254 0.8253 0.0
H1569 H 0.89341 0.70895 0.82815 0.0
H1570 H 0.94269 0.62532 0.85207 0.0
H1571 H 0.90915 0.71198 0.85507 0.0
H1572 H 0.8831 0.67372 0.90336 0.0
H1573 H 0.88687 0.68711 0.87649 0.0
H1574 H 0.96982 0.64516 0.87365 0.0
H1575 H 0.96588 0.63137 0.90088 0.0
C1576 C 0.92412 0.64251 0.83149 0.0
C1577 C 0.90875 0.66529 0.82472 0.0
C1578 C 0.93304 0.64421 0.84686 0.0
C1579 C 0.92676 0.66874 0.85577 0.0
C1580 C 0.91384 0.6926 0.84855 0.0
C1581 C 0.90482 0.69086 0.83315 0.0
C1582 C 0.90258 0.66803 0.89723 0.0
C1583 C 0.92399 0.65109 0.90422 0.0
C1584 C 0.90486 0.67595 0.88176 0.0
C1585 C 0.92855 0.667 0.87287 0.0
C1586 C 0.95114 0.65206 0.88018 0.0
C1587 C 0.94888 0.64418 0.89575 0.0
H1588 H 0.04241 0.12887 0.57495 0.0
H1589 H 0.12718 0.16643 0.57037 0.0
H1590 H 0.04125 0.14348 0.60211 0.0
H1591 H 0.12619 0.18052 0.59739 0.0
H1592 H 0.08311 0.1198 0.64978 0.0
H1593 H 0.0694 0.12193 0.62289 0.0
H1594 H 0.10587 0.20729 0.61937 0.0
H1595 H 0.11977 0.20516 0.64669 0.0
C1596 C 0.06052 0.14074 0.57964 0.0
C1597 C 0.08509 0.14605 0.57061 0.0
C1598 C 0.05985 0.14911 0.59517 0.0
C1599 C 0.08377 0.16281 0.60193 0.0
C1600 C 0.10729 0.17024 0.59252 0.0
C1601 C 0.10794 0.16193 0.57702 0.0
C1602 C 0.08751 0.13943 0.64351 0.0
C1603 C 0.10272 0.16224 0.65039 0.0
C1604 C 0.07945 0.14071 0.62802 0.0
C1605 C 0.08659 0.16476 0.61897 0.0
C1606 C 0.10026 0.18838 0.62606 0.0
C1607 C 0.1082 0.18716 0.64167 0.0
H1608 H 0.62524 0.3275 0.40105 0.0
H1609 H 0.54013 0.3651 0.39918 0.0
H1610 H 0.62146 0.31372 0.3742 0.0
H1611 H 0.5363 0.35109 0.37195 0.0
H1612 H 0.57682 0.37484 0.32314 0.0
H1613 H 0.56243 0.37211 0.35004 0.0
H1614 H 0.59895 0.28673 0.35322 0.0
H1615 H 0.61386 0.28964 0.32618 0.0
C1616 C 0.60531 0.33207 0.39506 0.0
C1617 C 0.58313 0.34771 0.40224 0.0
C1618 C 0.60304 0.32393 0.37961 0.0
C1619 C 0.57862 0.33144 0.37091 0.0
C1620 C 0.55549 0.34524 0.37836 0.0
C1621 C 0.5577 0.35326 0.39393 0.0
C1622 C 0.58108 0.35512 0.3294 0.0
C1623 C 0.59705 0.33271 0.32264 0.0
C1624 C 0.57258 0.35346 0.34484 0.0
C1625 C 0.57993 0.32936 0.35382 0.0
C1626 C 0.59341 0.30576 0.34663 0.0
C1627 C 0.60196 0.30744 0.33116 0.0
H1628 H 0.46142 0.8732 0.07966 0.0
H1629 H 0.37559 0.83833 0.07453 0.0
H1630 H 0.462 0.85767 0.10666 0.0
H1631 H 0.37608 0.82321 0.10136 0.0
H1632 H 0.42062 0.87941 0.1549 0.0
H1633 H 0.4342 0.87881 0.12791 0.0
H1634 H 0.39611 0.79444 0.12269 0.0
H1635 H 0.38231 0.79503 0.15002 0.0
C1636 C 0.44295 0.86171 0.08418 0.0
C1637 C 0.41829 0.85738 0.07504 0.0
C1638 C 0.44329 0.85283 0.09962 0.0
C1639 C 0.41898 0.8395 0.10616 0.0
C1640 C 0.39528 0.83315 0.09664 0.0
C1641 C 0.39493 0.84204 0.08125 0.0
C1642 C 0.41579 0.86033 0.14819 0.0
C1643 C 0.40015 0.83737 0.15459 0.0
C1644 C 0.42378 0.85992 0.13267 0.0
C1645 C 0.41615 0.83661 0.12315 0.0
C1646 C 0.40207 0.8128 0.12975 0.0
C1647 C 0.39419 0.81315 0.14537 0.0
H1648 H 0.93723 0.35151 0.66022 0.0
H1649 H 0.85942 0.30845 0.64569 0.0
H1650 H 0.9541 0.35256 0.63355 0.0
H1651 H 0.87535 0.31057 0.61898 0.0
H1652 H 0.90432 0.3163 0.57142 0.0
H1653 H 0.90502 0.29942 0.59812 0.0
H1654 H 0.94116 0.38113 0.6125 0.0
H1655 H 0.94169 0.39708 0.58573 0.0
C1656 C 0.92381 0.34216 0.65131 0.0
C1657 C 0.89672 0.33058 0.6549 0.0
C1658 C 0.93345 0.34273 0.63602 0.0
C1659 C 0.91586 0.33227 0.624 0.0
C1660 C 0.88971 0.31864 0.62785 0.0
C1661 C 0.88039 0.31757 0.64318 0.0
C1662 C 0.91287 0.33032 0.58031 0.0
C1663 C 0.92228 0.35819 0.57669 0.0
C1664 C 0.91327 0.32072 0.5956 0.0
C1665 C 0.92241 0.33914 0.60757 0.0
C1666 C 0.93411 0.36617 0.60366 0.0
C1667 C 0.93429 0.37548 0.58831 0.0
H1668 H 0.36048 0.19332 0.33531 0.0
H1669 H 0.43996 0.15281 0.32134 0.0
H1670 H 0.37628 0.19282 0.36204 0.0
H1671 H 0.45688 0.15376 0.34803 0.0
H1672 H 0.4461 0.10891 0.39561 0.0
H1673 H 0.44544 0.12517 0.36897 0.0
H1674 H 0.40408 0.20441 0.38331 0.0
H1675 H 0.40339 0.18702 0.4099 0.0
C1676 C 0.38183 0.18525 0.33793 0.0
C1677 C 0.39868 0.17233 0.32641 0.0
C1678 C 0.39109 0.18511 0.35329 0.0
C1679 C 0.4177 0.1726 0.35734 0.0
C1680 C 0.43585 0.16261 0.34544 0.0
C1681 C 0.42623 0.16212 0.33014 0.0
C1682 C 0.43743 0.13006 0.39307 0.0
C1683 C 0.42402 0.14636 0.40465 0.0
C1684 C 0.43722 0.13959 0.37777 0.0
C1685 C 0.42411 0.16595 0.37384 0.0
C1686 C 0.41344 0.18356 0.3858 0.0
C1687 C 0.41305 0.17367 0.40105 0.0
H1688 H 0.62818 0.70824 0.14749 0.0
H1689 H 0.59107 0.62318 0.15133 0.0
H1690 H 0.61219 0.71066 0.12054 0.0
H1691 H 0.57535 0.62556 0.12472 0.0
H1692 H 0.5456 0.63275 0.07724 0.0
H1693 H 0.54607 0.64738 0.1044 0.0
H1694 H 0.63093 0.68389 0.09827 0.0
H1695 H 0.63032 0.66974 0.07129 0.0
C1696 C 0.61612 0.69035 0.14271 0.0
C1697 C 0.61112 0.66541 0.1515 0.0
C1698 C 0.60696 0.69175 0.12731 0.0
C1699 C 0.59259 0.66827 0.12049 0.0
C1700 C 0.58593 0.64423 0.12965 0.0
C1701 C 0.59516 0.64278 0.14496 0.0
C1702 C 0.56402 0.64455 0.08162 0.0
C1703 C 0.58813 0.64964 0.0722 0.0
C1704 C 0.56428 0.65291 0.09716 0.0
C1705 C 0.58869 0.66644 0.10351 0.0
C1706 C 0.61169 0.67374 0.09372 0.0
C1707 C 0.61142 0.66541 0.07823 0.0
H1708 H 0.14091 0.80706 0.83637 0.0
H1709 H 0.06218 0.84943 0.82284 0.0
H1710 H 0.12539 0.80756 0.86318 0.0
H1711 H 0.0456 0.8487 0.8496 0.0
H1712 H 0.05905 0.8932 0.89732 0.0
H1713 H 0.05852 0.8771 0.87059 0.0
H1714 H 0.09709 0.79623 0.88443 0.0
H1715 H 0.09887 0.81335 0.9111 0.0
C1716 C 0.11977 0.81555 0.83912 0.0
C1717 C 0.10309 0.82898 0.82773 0.0
C1718 C 0.11069 0.81571 0.85451 0.0
C1719 C 0.08443 0.82883 0.85869 0.0
C1720 C 0.06637 0.83935 0.8469 0.0
C1721 C 0.0758 0.83976 0.83157 0.0
C1722 C 0.06677 0.87174 0.89465 0.0
C1723 C 0.07979 0.85483 0.90608 0.0
C1724 C 0.06632 0.86232 0.87931 0.0
C1725 C 0.07839 0.83551 0.87522 0.0
C1726 C 0.08854 0.81738 0.88706 0.0
C1727 C 0.08956 0.82712 0.90233 0.0
loop_
_geom_bond_atom_site_label_1
_geom_bond_atom_site_label_2
_geom_bond_distance
_geom_bond_site_symmetry_2
_ccdc_geom_bond_type
Mg0 O1 2.028 . S
Mg0 O7 1.986 . S
Mg0 O9 2.114 . S
Mg0 O10 2.251 . S
Mg0 O13 2.010 . S
O1 Mg0 2.028 . S
O1 C4 1.250 . S
O2 Mg3 2.028 . S
O2 C4 1.248 . S
Mg3 O2 2.028 . S
Mg3 O8 2.032 . S
Mg3 O10 2.079 . S
C4 O1 1.250 . S
C4 O2 1.248 . S
C5 O6 1.264 . S
C5 O13 1.249 . S
O6 C5 1.264 . S
O7 Mg0 1.986 . S
O7 C11 1.246 . S
O8 Mg3 2.032 . S
O8 C11 1.259 . S
O9 Mg0 2.114 . S
O9 C12 1.252 . S
O10 Mg0 2.251 . S
O10 Mg3 2.079 . S
O10 C12 1.273 . S
C11 O7 1.246 . S
C11 O8 1.259 . S
C12 O9 1.252 . S
C12 O10 1.273 . S
O13 Mg0 2.010 . S
O13 C5 1.249 . S
Mg14 O15 2.028 . S
Mg14 O21 1.986 . S
Mg14 O23 2.114 . S
Mg14 O24 2.251 . S
Mg14 O27 2.010 . S
O15 Mg14 2.028 . S
O15 C18 1.250 . S
O16 Mg17 2.028 . S
O16 C18 1.248 . S
Mg17 O16 2.028 . S
Mg17 O22 2.032 . S
Mg17 O24 2.079 . S
C18 O15 1.250 . S
C18 O16 1.248 . S
C19 O20 1.264 . S
C19 O27 1.249 . S
O20 C19 1.264 . S
O21 Mg14 1.986 . S
O21 C25 1.246 . S
O22 Mg17 2.032 . S
O22 C25 1.259 . S
O23 Mg14 2.114 . S
O23 C26 1.252 . S
O24 Mg14 2.251 . S
O24 Mg17 2.079 . S
O24 C26 1.273 . S
C25 O21 1.246 . S
C25 O22 1.259 . S
C26 O23 1.252 . S
C26 O24 1.273 . S
O27 Mg14 2.010 . S
O27 C19 1.249 . S
Mg28 O29 2.028 . S
Mg28 O35 1.986 . S
Mg28 O37 2.114 . S
Mg28 O38 2.251 . S
Mg28 O41 2.010 . S
O29 Mg28 2.028 . S
O29 C32 1.250 . S
O30 Mg31 2.028 . S
O30 C32 1.248 . S
Mg31 O30 2.028 . S
Mg31 O36 2.032 . S
Mg31 O38 2.079 . S
C32 O29 1.250 . S
C32 O30 1.248 . S
C33 O34 1.264 . S
C33 O41 1.249 . S
O34 C33 1.264 . S
O35 Mg28 1.986 . S
O35 C39 1.246 . S
O36 Mg31 2.032 . S
O36 C39 1.259 . S
O37 Mg28 2.114 . S
O37 C40 1.252 . S
O38 Mg28 2.251 . S
O38 Mg31 2.079 . S
O38 C40 1.273 . S
C39 O35 1.246 . S
C39 O36 1.259 . S
C40 O37 1.252 . S
C40 O38 1.273 . S
O41 Mg28 2.010 . S
O41 C33 1.249 . S
Mg42 O43 2.028 . S
Mg42 O49 1.986 . S
Mg42 O51 2.114 . S
Mg42 O52 2.251 . S
Mg42 O55 2.010 . S
O43 Mg42 2.028 . S
O43 C46 1.250 . S
O44 Mg45 2.028 . S
O44 C46 1.248 . S
Mg45 O44 2.028 . S
Mg45 O50 2.032 . S
Mg45 O52 2.079 . S
C46 O43 1.250 . S
C46 O44 1.248 . S
C47 O48 1.264 . S
C47 O55 1.249 . S
O48 C47 1.264 . S
O49 Mg42 1.986 . S
O49 C53 1.246 . S
O50 Mg45 2.032 . S
O50 C53 1.259 . S
O51 Mg42 2.114 . S
O51 C54 1.252 . S
O52 Mg42 2.251 . S
O52 Mg45 2.079 . S
O52 C54 1.273 . S
C53 O49 1.246 . S
C53 O50 1.259 . S
C54 O51 1.252 . S
C54 O52 1.273 . S
O55 Mg42 2.010 . S
O55 C47 1.249 . S
Mg56 O57 2.028 . S
Mg56 O63 1.986 . S
Mg56 O65 2.114 . S
Mg56 O66 2.251 . S
Mg56 O69 2.010 . S
O57 Mg56 2.028 . S
O57 C60 1.250 . S
O58 Mg59 2.028 . S
O58 C60 1.248 . S
Mg59 O58 2.028 . S
Mg59 O64 2.032 . S
Mg59 O66 2.079 . S
C60 O57 1.250 . S
C60 O58 1.248 . S
C61 O62 1.264 . S
C61 O69 1.249 . S
O62 C61 1.264 . S
O63 Mg56 1.986 . S
O63 C67 1.246 . S
O64 Mg59 2.032 . S
O64 C67 1.259 . S
O65 Mg56 2.114 . S
O65 C68 1.252 . S
O66 Mg56 2.251 . S
O66 Mg59 2.079 . S
O66 C68 1.273 . S
C67 O63 1.246 . S
C67 O64 1.259 . S
C68 O65 1.252 . S
C68 O66 1.273 . S
O69 Mg56 2.010 . S
O69 C61 1.249 . S
Mg70 O71 2.028 . S
Mg70 O77 1.986 . S
Mg70 O79 2.114 . S
Mg70 O80 2.251 . S
Mg70 O83 2.010 . S
O71 Mg70 2.028 . S
O71 C74 1.250 . S
O72 Mg73 2.028 . S
O72 C74 1.248 . S
Mg73 O72 2.028 . S
Mg73 O78 2.032 . S
Mg73 O80 2.079 . S
C74 O71 1.250 . S
C74 O72 1.248 . S
C75 O76 1.264 . S
C75 O83 1.249 . S
O76 C75 1.264 . S
O77 Mg70 1.986 . S
O77 C81 1.246 . S
O78 Mg73 2.032 . S
O78 C81 1.259 . S
O79 Mg70 2.114 . S
O79 C82 1.252 . S
O80 Mg70 2.251 . S
O80 Mg73 2.079 . S
O80 C82 1.273 . S
C81 O77 1.246 . S
C81 O78 1.259 . S
C82 O79 1.252 . S
C82 O80 1.273 . S
O83 Mg70 2.010 . S
O83 C75 1.249 . S
Mg84 O85 2.028 . S
Mg84 O91 1.986 . S
Mg84 O93 2.114 . S
Mg84 O94 2.251 . S
Mg84 O97 2.010 . S
O85 Mg84 2.028 . S
O85 C88 1.250 . S
O86 Mg87 2.028 . S
O86 C88 1.248 . S
Mg87 O86 2.028 . S
Mg87 O92 2.032 . S
Mg87 O94 2.079 . S
C88 O85 1.250 . S
C88 O86 1.248 . S
C89 O90 1.264 . S
C89 O97 1.249 . S
O90 C89 1.264 . S
O91 Mg84 1.986 . S
O91 C95 1.246 . S
O92 Mg87 2.032 . S
O92 C95 1.259 . S
O93 Mg84 2.114 . S
O93 C96 1.252 . S
O94 Mg84 2.251 . S
O94 Mg87 2.079 . S
O94 C96 1.273 . S
C95 O91 1.246 . S
C95 O92 1.259 . S
C96 O93 1.252 . S
C96 O94 1.273 . S
O97 Mg84 2.010 . S
O97 C89 1.249 . S
Mg98 O99 2.028 . S
Mg98 O105 1.986 . S
Mg98 O107 2.114 . S
Mg98 O108 2.251 . S
Mg98 O111 2.010 . S
O99 Mg98 2.028 . S
O99 C102 1.250 . S
O100 Mg101 2.028 . S
O100 C102 1.248 . S
Mg101 O100 2.028 . S
Mg101 O106 2.032 . S
Mg101 O108 2.079 . S
C102 O99 1.250 . S
C102 O100 1.248 . S
C103 O104 1.264 . S
C103 O111 1.249 . S
O104 C103 1.264 . S
O105 Mg98 1.986 . S
O105 C109 1.246 . S
O106 Mg101 2.032 . S
O106 C109 1.259 . S
O107 Mg98 2.114 . S
O107 C110 1.252 . S
O108 Mg98 2.251 . S
O108 Mg101 2.079 . S
O108 C110 1.273 . S
C109 O105 1.246 . S
C109 O106 1.259 . S
C110 O107 1.252 . S
C110 O108 1.273 . S
O111 Mg98 2.010 . S
O111 C103 1.249 . S
Mg112 O113 2.028 . S
Mg112 O119 1.986 . S
Mg112 O121 2.114 . S
Mg112 O122 2.251 . S
Mg112 O125 2.010 . S
O113 Mg112 2.028 . S
O113 C116 1.250 . S
O114 Mg115 2.028 . S
O114 C116 1.248 . S
Mg115 O114 2.028 . S
Mg115 O120 2.032 . S
Mg115 O122 2.079 . S
C116 O113 1.250 . S
C116 O114 1.248 . S
C117 O118 1.264 . S
C117 O125 1.249 . S
O118 C117 1.264 . S
O119 Mg112 1.986 . S
O119 C123 1.246 . S
O120 Mg115 2.032 . S
O120 C123 1.259 . S
O121 Mg112 2.114 . S
O121 C124 1.252 . S
O122 Mg112 2.251 . S
O122 Mg115 2.079 . S
O122 C124 1.273 . S
C123 O119 1.246 . S
C123 O120 1.259 . S
C124 O121 1.252 . S
C124 O122 1.273 . S
O125 Mg112 2.010 . S
O125 C117 1.249 . S
Mg126 O127 2.028 . S
Mg126 O133 1.986 . S
Mg126 O135 2.114 . S
Mg126 O136 2.251 . S
Mg126 O139 2.010 . S
O127 Mg126 2.028 . S
O127 C130 1.250 . S
O128 Mg129 2.028 . S
O128 C130 1.248 . S
Mg129 O128 2.028 . S
Mg129 O134 2.032 . S
Mg129 O136 2.079 . S
C130 O127 1.250 . S
C130 O128 1.248 . S
C131 O132 1.264 . S
C131 O139 1.249 . S
O132 C131 1.264 . S
O133 Mg126 1.986 . S
O133 C137 1.246 . S
O134 Mg129 2.032 . S
O134 C137 1.259 . S
O135 Mg126 2.114 . S
O135 C138 1.252 . S
O136 Mg126 2.251 . S
O136 Mg129 2.079 . S
O136 C138 1.273 . S
C137 O133 1.246 . S
C137 O134 1.259 . S
C138 O135 1.252 . S
C138 O136 1.273 . S
O139 Mg126 2.010 . S
O139 C131 1.249 . S
Mg140 O141 2.028 . S
Mg140 O147 1.986 . S
Mg140 O149 2.114 . S
Mg140 O150 2.251 . S
Mg140 O153 2.010 . S
O141 Mg140 2.028 . S
O141 C144 1.250 . S
O142 Mg143 2.028 . S
O142 C144 1.248 . S
Mg143 O142 2.028 . S
Mg143 O148 2.032 . S
Mg143 O150 2.079 . S
C144 O141 1.250 . S
C144 O142 1.248 . S
C145 O146 1.264 . S
C145 O153 1.249 . S
O146 C145 1.264 . S
O147 Mg140 1.986 . S
O147 C151 1.246 . S
O148 Mg143 2.032 . S
O148 C151 1.259 . S
O149 Mg140 2.114 . S
O149 C152 1.252 . S
O150 Mg140 2.251 . S
O150 Mg143 2.079 . S
O150 C152 1.273 . S
C151 O147 1.246 . S
C151 O148 1.259 . S
C152 O149 1.252 . S
C152 O150 1.273 . S
O153 Mg140 2.010 . S
O153 C145 1.249 . S
Mg154 O155 2.028 . S
Mg154 O161 1.986 . S
Mg154 O163 2.114 . S
Mg154 O164 2.251 . S
Mg154 O167 2.010 . S
O155 Mg154 2.028 . S
O155 C158 1.250 . S
O156 Mg157 2.028 . S
O156 C158 1.248 . S
Mg157 O156 2.028 . S
Mg157 O162 2.032 . S
Mg157 O164 2.079 . S
C158 O155 1.250 . S
C158 O156 1.248 . S
C159 O160 1.264 . S
C159 O167 1.249 . S
O160 C159 1.264 . S
O161 Mg154 1.986 . S
O161 C165 1.246 . S
O162 Mg157 2.032 . S
O162 C165 1.259 . S
O163 Mg154 2.114 . S
O163 C166 1.252 . S
O164 Mg154 2.251 . S
O164 Mg157 2.079 . S
O164 C166 1.273 . S
C165 O161 1.246 . S
C165 O162 1.259 . S
C166 O163 1.252 . S
C166 O164 1.273 . S
O167 Mg154 2.010 . S
O167 C159 1.249 . S
Mg168 O169 2.028 . S
Mg168 O175 1.986 . S
Mg168 O177 2.114 . S
Mg168 O178 2.251 . S
Mg168 O181 2.010 . S
O169 Mg168 2.028 . S
O169 C172 1.250 . S
O170 Mg171 2.028 . S
O170 C172 1.248 . S
Mg171 O170 2.028 . S
Mg171 O176 2.032 . S
Mg171 O178 2.079 . S
C172 O169 1.250 . S
C172 O170 1.248 . S
C173 O174 1.264 . S
C173 O181 1.249 . S
O174 C173 1.264 . S
O175 Mg168 1.986 . S
O175 C179 1.246 . S
O176 Mg171 2.032 . S
O176 C179 1.259 . S
O177 Mg168 2.114 . S
O177 C180 1.252 . S
O178 Mg168 2.251 . S
O178 Mg171 2.079 . S
O178 C180 1.273 . S
C179 O175 1.246 . S
C179 O176 1.259 . S
C180 O177 1.252 . S
C180 O178 1.273 . S
O181 Mg168 2.010 . S
O181 C173 1.249 . S
Mg182 O183 2.028 . S
Mg182 O189 1.986 . S
Mg182 O191 2.114 . S
Mg182 O192 2.251 . S
Mg182 O195 2.010 . S
O183 Mg182 2.028 . S
O183 C186 1.250 . S
O184 Mg185 2.028 . S
O184 C186 1.248 . S
Mg185 O184 2.028 . S
Mg185 O190 2.032 . S
Mg185 O192 2.079 . S
C186 O183 1.250 . S
C186 O184 1.248 . S
C187 O188 1.264 . S
C187 O195 1.249 . S
O188 C187 1.264 . S
O189 Mg182 1.986 . S
O189 C193 1.246 . S
O190 Mg185 2.032 . S
O190 C193 1.259 . S
O191 Mg182 2.114 . S
O191 C194 1.252 . S
O192 Mg182 2.251 . S
O192 Mg185 2.079 . S
O192 C194 1.273 . S
C193 O189 1.246 . S
C193 O190 1.259 . S
C194 O191 1.252 . S
C194 O192 1.273 . S
O195 Mg182 2.010 . S
O195 C187 1.249 . S
Mg196 O197 2.028 . S
Mg196 O203 1.986 . S
Mg196 O205 2.114 . S
Mg196 O206 2.251 . S
Mg196 O209 2.010 . S
O197 Mg196 2.028 . S
O197 C200 1.250 . S
O198 Mg199 2.028 . S
O198 C200 1.248 . S
Mg199 O198 2.028 . S
Mg199 O204 2.032 . S
Mg199 O206 2.079 . S
C200 O197 1.250 . S
C200 O198 1.248 . S
C201 O202 1.264 . S
C201 O209 1.249 . S
O202 C201 1.264 . S
O203 Mg196 1.986 . S
O203 C207 1.246 . S
O204 Mg199 2.032 . S
O204 C207 1.259 . S
O205 Mg196 2.114 . S
O205 C208 1.252 . S
O206 Mg196 2.251 . S
O206 Mg199 2.079 . S
O206 C208 1.273 . S
C207 O203 1.246 . S
C207 O204 1.259 . S
C208 O205 1.252 . S
C208 O206 1.273 . S
O209 Mg196 2.010 . S
O209 C201 1.249 . S
Mg210 O211 2.028 . S
Mg210 O217 1.986 . S
Mg210 O219 2.114 . S
Mg210 O220 2.251 . S
Mg210 O223 2.010 . S
O211 Mg210 2.028 . S
O211 C214 1.250 . S
O212 Mg213 2.028 . S
O212 C214 1.248 . S
Mg213 O212 2.028 . S
Mg213 O218 2.032 . S
Mg213 O220 2.079 . S
C214 O211 1.250 . S
C214 O212 1.248 . S
C215 O216 1.264 . S
C215 O223 1.249 . S
O216 C215 1.264 . S
O217 Mg210 1.986 . S
O217 C221 1.246 . S
O218 Mg213 2.032 . S
O218 C221 1.259 . S
O219 Mg210 2.114 . S
O219 C222 1.252 . S
O220 Mg210 2.251 . S
O220 Mg213 2.079 . S
O220 C222 1.273 . S
C221 O217 1.246 . S
C221 O218 1.259 . S
C222 O219 1.252 . S
C222 O220 1.273 . S
O223 Mg210 2.010 . S
O223 C215 1.249 . S
Mg224 O225 2.028 . S
Mg224 O231 1.986 . S
Mg224 O233 2.114 . S
Mg224 O234 2.251 . S
Mg224 O237 2.010 . S
O225 Mg224 2.028 . S
O225 C228 1.250 . S
O226 Mg227 2.028 . S
O226 C228 1.248 . S
Mg227 O226 2.028 . S
Mg227 O232 2.032 . S
Mg227 O234 2.079 . S
C228 O225 1.250 . S
C228 O226 1.248 . S
C229 O230 1.264 . S
C229 O237 1.249 . S
O230 C229 1.264 . S
O231 Mg224 1.986 . S
O231 C235 1.246 . S
O232 Mg227 2.032 . S
O232 C235 1.259 . S
O233 Mg224 2.114 . S
O233 C236 1.252 . S
O234 Mg224 2.251 . S
O234 Mg227 2.079 . S
O234 C236 1.273 . S
C235 O231 1.246 . S
C235 O232 1.259 . S
C236 O233 1.252 . S
C236 O234 1.273 . S
O237 Mg224 2.010 . S
O237 C229 1.249 . S
Mg238 O239 2.028 . S
Mg238 O245 1.986 . S
Mg238 O247 2.114 . S
Mg238 O248 2.251 . S
Mg238 O251 2.010 . S
O239 Mg238 2.028 . S
O239 C242 1.250 . S
O240 Mg241 2.028 . S
O240 C242 1.248 . S
Mg241 O240 2.028 . S
Mg241 O246 2.032 . S
Mg241 O248 2.079 . S
C242 O239 1.250 . S
C242 O240 1.248 . S
C243 O244 1.264 . S
C243 O251 1.249 . S
O244 C243 1.264 . S
O245 Mg238 1.986 . S
O245 C249 1.246 . S
O246 Mg241 2.032 . S
O246 C249 1.259 . S
O247 Mg238 2.114 . S
O247 C250 1.252 . S
O248 Mg238 2.251 . S
O248 Mg241 2.079 . S
O248 C250 1.273 . S
C249 O245 1.246 . S
C249 O246 1.259 . S
C250 O247 1.252 . S
C250 O248 1.273 . S
O251 Mg238 2.010 . S
O251 C243 1.249 . S
Mg252 O253 2.028 . S
Mg252 O259 1.986 . S
Mg252 O261 2.114 . S
Mg252 O262 2.251 . S
Mg252 O265 2.010 . S
O253 Mg252 2.028 . S
O253 C256 1.250 . S
O254 Mg255 2.028 . S
O254 C256 1.248 . S
Mg255 O254 2.028 . S
Mg255 O260 2.032 . S
Mg255 O262 2.079 . S
C256 O253 1.250 . S
C256 O254 1.248 . S
C257 O258 1.264 . S
C257 O265 1.249 . S
O258 C257 1.264 . S
O259 Mg252 1.986 . S
O259 C263 1.246 . S
O260 Mg255 2.032 . S
O260 C263 1.259 . S
O261 Mg252 2.114 . S
O261 C264 1.252 . S
O262 Mg252 2.251 . S
O262 Mg255 2.079 . S
O262 C264 1.273 . S
C263 O259 1.246 . S
C263 O260 1.259 . S
C264 O261 1.252 . S
C264 O262 1.273 . S
O265 Mg252 2.010 . S
O265 C257 1.249 . S
Mg266 O267 2.028 . S
Mg266 O273 1.986 . S
Mg266 O275 2.114 . S
Mg266 O276 2.251 . S
Mg266 O279 2.010 . S
O267 Mg266 2.028 . S
O267 C270 1.250 . S
O268 Mg269 2.028 . S
O268 C270 1.248 . S
Mg269 O268 2.028 . S
Mg269 O274 2.032 . S
Mg269 O276 2.079 . S
C270 O267 1.250 . S
C270 O268 1.248 . S
C271 O272 1.264 . S
C271 O279 1.249 . S
O272 C271 1.264 . S
O273 Mg266 1.986 . S
O273 C277 1.246 . S
O274 Mg269 2.032 . S
O274 C277 1.259 . S
O275 Mg266 2.114 . S
O275 C278 1.252 . S
O276 Mg266 2.251 . S
O276 Mg269 2.079 . S
O276 C278 1.273 . S
C277 O273 1.246 . S
C277 O274 1.259 . S
C278 O275 1.252 . S
C278 O276 1.273 . S
O279 Mg266 2.010 . S
O279 C271 1.249 . S
Mg280 O281 2.028 . S
Mg280 O287 1.986 . S
Mg280 O289 2.114 . S
Mg280 O290 2.251 . S
Mg280 O293 2.010 . S
O281 Mg280 2.028 . S
O281 C284 1.250 . S
O282 Mg283 2.028 . S
O282 C284 1.248 . S
Mg283 O282 2.028 . S
Mg283 O288 2.032 . S
Mg283 O290 2.079 . S
C284 O281 1.250 . S
C284 O282 1.248 . S
C285 O286 1.264 . S
C285 O293 1.249 . S
O286 C285 1.264 . S
O287 Mg280 1.986 . S
O287 C291 1.246 . S
O288 Mg283 2.032 . S
O288 C291 1.259 . S
O289 Mg280 2.114 . S
O289 C292 1.252 . S
O290 Mg280 2.251 . S
O290 Mg283 2.079 . S
O290 C292 1.273 . S
C291 O287 1.246 . S
C291 O288 1.259 . S
C292 O289 1.252 . S
C292 O290 1.273 . S
O293 Mg280 2.010 . S
O293 C285 1.249 . S
Mg294 O295 2.028 . S
Mg294 O301 1.986 . S
Mg294 O303 2.114 . S
Mg294 O304 2.251 . S
Mg294 O307 2.010 . S
O295 Mg294 2.028 . S
O295 C298 1.250 . S
O296 Mg297 2.028 . S
O296 C298 1.248 . S
Mg297 O296 2.028 . S
Mg297 O302 2.032 . S
Mg297 O304 2.079 . S
C298 O295 1.250 . S
C298 O296 1.248 . S
C299 O300 1.264 . S
C299 O307 1.249 . S
O300 C299 1.264 . S
O301 Mg294 1.986 . S
O301 C305 1.246 . S
O302 Mg297 2.032 . S
O302 C305 1.259 . S
O303 Mg294 2.114 . S
O303 C306 1.252 . S
O304 Mg294 2.251 . S
O304 Mg297 2.079 . S
O304 C306 1.273 . S
C305 O301 1.246 . S
C305 O302 1.259 . S
C306 O303 1.252 . S
C306 O304 1.273 . S
O307 Mg294 2.010 . S
O307 C299 1.249 . S
Mg308 O309 2.028 . S
Mg308 O315 1.986 . S
Mg308 O317 2.114 . S
Mg308 O318 2.251 . S
Mg308 O321 2.010 . S
O309 Mg308 2.028 . S
O309 C312 1.250 . S
O310 Mg311 2.028 . S
O310 C312 1.248 . S
Mg311 O310 2.028 . S
Mg311 O316 2.032 . S
Mg311 O318 2.079 . S
C312 O309 1.250 . S
C312 O310 1.248 . S
C313 O314 1.264 . S
C313 O321 1.249 . S
O314 C313 1.264 . S
O315 Mg308 1.986 . S
O315 C319 1.246 . S
O316 Mg311 2.032 . S
O316 C319 1.259 . S
O317 Mg308 2.114 . S
O317 C320 1.252 . S
O318 Mg308 2.251 . S
O318 Mg311 2.079 . S
O318 C320 1.273 . S
C319 O315 1.246 . S
C319 O316 1.259 . S
C320 O317 1.252 . S
C320 O318 1.273 . S
O321 Mg308 2.010 . S
O321 C313 1.249 . S
Mg322 O323 2.028 . S
Mg322 O329 1.986 . S
Mg322 O331 2.114 . S
Mg322 O332 2.251 . S
Mg322 O335 2.010 . S
O323 Mg322 2.028 . S
O323 C326 1.250 . S
O324 Mg325 2.028 . S
O324 C326 1.248 . S
Mg325 O324 2.028 . S
Mg325 O330 2.032 . S
Mg325 O332 2.079 . S
C326 O323 1.250 . S
C326 O324 1.248 . S
C327 O328 1.264 . S
C327 O335 1.249 . S
O328 C327 1.264 . S
O329 Mg322 1.986 . S
O329 C333 1.246 . S
O330 Mg325 2.032 . S
O330 C333 1.259 . S
O331 Mg322 2.114 . S
O331 C334 1.252 . S
O332 Mg322 2.251 . S
O332 Mg325 2.079 . S
O332 C334 1.273 . S
C333 O329 1.246 . S
C333 O330 1.259 . S
C334 O331 1.252 . S
C334 O332 1.273 . S
O335 Mg322 2.010 . S
O335 C327 1.249 . S
Mg336 O337 2.028 . S
Mg336 O343 1.986 . S
Mg336 O345 2.114 . S
Mg336 O346 2.251 . S
Mg336 O349 2.010 . S
O337 Mg336 2.028 . S
O337 C340 1.250 . S
O338 Mg339 2.028 . S
O338 C340 1.248 . S
Mg339 O338 2.028 . S
Mg339 O344 2.032 . S
Mg339 O346 2.079 . S
C340 O337 1.250 . S
C340 O338 1.248 . S
C341 O342 1.264 . S
C341 O349 1.249 . S
O342 C341 1.264 . S
O343 Mg336 1.986 . S
O343 C347 1.246 . S
O344 Mg339 2.032 . S
O344 C347 1.259 . S
O345 Mg336 2.114 . S
O345 C348 1.252 . S
O346 Mg336 2.251 . S
O346 Mg339 2.079 . S
O346 C348 1.273 . S
C347 O343 1.246 . S
C347 O344 1.259 . S
C348 O345 1.252 . S
C348 O346 1.273 . S
O349 Mg336 2.010 . S
O349 C341 1.249 . S
Mg350 O351 2.028 . S
Mg350 O357 1.986 . S
Mg350 O359 2.114 . S
Mg350 O360 2.251 . S
Mg350 O363 2.010 . S
O351 Mg350 2.028 . S
O351 C354 1.250 . S
O352 Mg353 2.028 . S
O352 C354 1.248 . S
Mg353 O352 2.028 . S
Mg353 O358 2.032 . S
Mg353 O360 2.079 . S
C354 O351 1.250 . S
C354 O352 1.248 . S
C355 O356 1.264 . S
C355 O363 1.249 . S
O356 C355 1.264 . S
O357 Mg350 1.986 . S
O357 C361 1.246 . S
O358 Mg353 2.032 . S
O358 C361 1.259 . S
O359 Mg350 2.114 . S
O359 C362 1.252 . S
O360 Mg350 2.251 . S
O360 Mg353 2.079 . S
O360 C362 1.273 . S
C361 O357 1.246 . S
C361 O358 1.259 . S
C362 O359 1.252 . S
C362 O360 1.273 . S
O363 Mg350 2.010 . S
O363 C355 1.249 . S
Mg364 O365 2.028 . S
Mg364 O371 1.986 . S
Mg364 O373 2.114 . S
Mg364 O374 2.251 . S
Mg364 O377 2.010 . S
O365 Mg364 2.028 . S
O365 C368 1.250 . S
O366 Mg367 2.028 . S
O366 C368 1.248 . S
Mg367 O366 2.028 . S
Mg367 O372 2.032 . S
Mg367 O374 2.079 . S
C368 O365 1.250 . S
C368 O366 1.248 . S
C369 O370 1.264 . S
C369 O377 1.249 . S
O370 C369 1.264 . S
O371 Mg364 1.986 . S
O371 C375 1.246 . S
O372 Mg367 2.032 . S
O372 C375 1.259 . S
O373 Mg364 2.114 . S
O373 C376 1.252 . S
O374 Mg364 2.251 . S
O374 Mg367 2.079 . S
O374 C376 1.273 . S
C375 O371 1.246 . S
C375 O372 1.259 . S
C376 O373 1.252 . S
C376 O374 1.273 . S
O377 Mg364 2.010 . S
O377 C369 1.249 . S
Mg378 O379 2.028 . S
Mg378 O385 1.986 . S
Mg378 O387 2.114 . S
Mg378 O388 2.251 . S
Mg378 O391 2.010 . S
O379 Mg378 2.028 . S
O379 C382 1.250 . S
O380 Mg381 2.028 . S
O380 C382 1.248 . S
Mg381 O380 2.028 . S
Mg381 O386 2.032 . S
Mg381 O388 2.079 . S
C382 O379 1.250 . S
C382 O380 1.248 . S
C383 O384 1.264 . S
C383 O391 1.249 . S
O384 C383 1.264 . S
O385 Mg378 1.986 . S
O385 C389 1.246 . S
O386 Mg381 2.032 . S
O386 C389 1.259 . S
O387 Mg378 2.114 . S
O387 C390 1.252 . S
O388 Mg378 2.251 . S
O388 Mg381 2.079 . S
O388 C390 1.273 . S
C389 O385 1.246 . S
C389 O386 1.259 . S
C390 O387 1.252 . S
C390 O388 1.273 . S
O391 Mg378 2.010 . S
O391 C383 1.249 . S
Mg392 O393 2.028 . S
Mg392 O399 1.986 . S
Mg392 O401 2.114 . S
Mg392 O402 2.251 . S
Mg392 O405 2.010 . S
O393 Mg392 2.028 . S
O393 C396 1.250 . S
O394 Mg395 2.028 . S
O394 C396 1.248 . S
Mg395 O394 2.028 . S
Mg395 O400 2.032 . S
Mg395 O402 2.079 . S
C396 O393 1.250 . S
C396 O394 1.248 . S
C397 O398 1.264 . S
C397 O405 1.249 . S
O398 C397 1.264 . S
O399 Mg392 1.986 . S
O399 C403 1.246 . S
O400 Mg395 2.032 . S
O400 C403 1.259 . S
O401 Mg392 2.114 . S
O401 C404 1.252 . S
O402 Mg392 2.251 . S
O402 Mg395 2.079 . S
O402 C404 1.273 . S
C403 O399 1.246 . S
C403 O400 1.259 . S
C404 O401 1.252 . S
C404 O402 1.273 . S
O405 Mg392 2.010 . S
O405 C397 1.249 . S
Mg406 O407 2.028 . S
Mg406 O413 1.986 . S
Mg406 O415 2.114 . S
Mg406 O416 2.251 . S
Mg406 O419 2.010 . S
O407 Mg406 2.028 . S
O407 C410 1.250 . S
O408 Mg409 2.028 . S
O408 C410 1.248 . S
Mg409 O408 2.028 . S
Mg409 O414 2.032 . S
Mg409 O416 2.079 . S
C410 O407 1.250 . S
C410 O408 1.248 . S
C411 O412 1.264 . S
C411 O419 1.249 . S
O412 C411 1.264 . S
O413 Mg406 1.986 . S
O413 C417 1.246 . S
O414 Mg409 2.032 . S
O414 C417 1.259 . S
O415 Mg406 2.114 . S
O415 C418 1.252 . S
O416 Mg406 2.251 . S
O416 Mg409 2.079 . S
O416 C418 1.273 . S
C417 O413 1.246 . S
C417 O414 1.259 . S
C418 O415 1.252 . S
C418 O416 1.273 . S
O419 Mg406 2.010 . S
O419 C411 1.249 . S
Mg420 O421 2.028 . S
Mg420 O427 1.986 . S
Mg420 O429 2.114 . S
Mg420 O430 2.251 . S
Mg420 O433 2.010 . S
O421 Mg420 2.028 . S
O421 C424 1.250 . S
O422 Mg423 2.028 . S
O422 C424 1.248 . S
Mg423 O422 2.028 . S
Mg423 O428 2.032 . S
Mg423 O430 2.079 . S
C424 O421 1.250 . S
C424 O422 1.248 . S
C425 O426 1.264 . S
C425 O433 1.249 . S
O426 C425 1.264 . S
O427 Mg420 1.986 . S
O427 C431 1.246 . S
O428 Mg423 2.032 . S
O428 C431 1.259 . S
O429 Mg420 2.114 . S
O429 C432 1.252 . S
O430 Mg420 2.251 . S
O430 Mg423 2.079 . S
O430 C432 1.273 . S
C431 O427 1.246 . S
C431 O428 1.259 . S
C432 O429 1.252 . S
C432 O430 1.273 . S
O433 Mg420 2.010 . S
O433 C425 1.249 . S
Mg434 O435 2.028 . S
Mg434 O441 1.986 . S
Mg434 O443 2.114 . S
Mg434 O444 2.251 . S
Mg434 O447 2.010 . S
O435 Mg434 2.028 . S
O435 C438 1.250 . S
O436 Mg437 2.028 . S
O436 C438 1.248 . S
Mg437 O436 2.028 . S
Mg437 O442 2.032 . S
Mg437 O444 2.079 . S
C438 O435 1.250 . S
C438 O436 1.248 . S
C439 O440 1.264 . S
C439 O447 1.249 . S
O440 C439 1.264 . S
O441 Mg434 1.986 . S
O441 C445 1.246 . S
O442 Mg437 2.032 . S
O442 C445 1.259 . S
O443 Mg434 2.114 . S
O443 C446 1.252 . S
O444 Mg434 2.251 . S
O444 Mg437 2.079 . S
O444 C446 1.273 . S
C445 O441 1.246 . S
C445 O442 1.259 . S
C446 O443 1.252 . S
C446 O444 1.273 . S
O447 Mg434 2.010 . S
O447 C439 1.249 . S
H448 C456 0.950 . S
H449 C461 0.950 1_554 S
H450 C458 0.950 . S
H451 C460 0.950 . S
H452 C462 0.950 . S
H453 C464 0.950 . S
H454 C466 0.950 . S
H455 C467 0.950 1_556 S
C456 H448 0.950 . S
C456 C457 1.386 . S
C456 C458 1.391 1_655 S
C457 C456 1.386 . S
C457 C461 1.393 . S
C458 H450 0.950 . S
C458 C456 1.391 1_455 S
C458 C459 1.400 1_455 S
C459 C458 1.400 1_655 S
C459 C460 1.398 1_556 S
C459 C465 1.491 1_656 S
C460 H451 0.950 . S
C460 C459 1.398 1_554 S
C460 C461 1.391 1_554 S
C461 H449 0.950 1_556 S
C461 C457 1.393 . S
C461 C460 1.391 1_556 S
C462 H452 0.950 . S
C462 C463 1.386 . S
C462 C464 1.391 1_455 S
C463 C462 1.386 . S
C463 C467 1.393 . S
C464 H453 0.950 . S
C464 C462 1.391 1_655 S
C464 C465 1.400 1_655 S
C465 C459 1.491 1_454 S
C465 C464 1.400 1_455 S
C465 C466 1.398 1_554 S
C466 H454 0.950 . S
C466 C465 1.398 1_556 S
C466 C467 1.391 1_556 S
C467 H455 0.950 1_554 S
C467 C463 1.393 . S
C467 C466 1.391 1_554 S
H468 C476 0.950 . S
H469 C481 0.950 . S
H470 C478 0.950 . S
H471 C480 0.950 . S
H472 C482 0.950 . S
H473 C484 0.950 . S
H474 C486 0.950 . S
H475 C487 0.950 . S
C476 H468 0.950 . S
C476 C477 1.386 . S
C476 C478 1.391 . S
C477 C476 1.386 . S
C477 C481 1.393 . S
C478 H470 0.950 . S
C478 C476 1.391 . S
C478 C479 1.400 . S
C479 C478 1.400 . S
C479 C480 1.398 . S
C479 C485 1.491 . S
C480 H471 0.950 . S
C480 C479 1.398 . S
C480 C481 1.391 . S
C481 H469 0.950 . S
C481 C477 1.393 . S
C481 C480 1.391 . S
C482 H472 0.950 . S
C482 C483 1.386 . S
C482 C484 1.391 . S
C483 C482 1.386 . S
C483 C487 1.393 . S
C484 H473 0.950 . S
C484 C482 1.391 . S
C484 C485 1.400 . S
C485 C479 1.491 . S
C485 C484 1.400 . S
C485 C486 1.398 . S
C486 H474 0.950 . S
C486 C485 1.398 . S
C486 C487 1.391 . S
C487 H475 0.950 . S
C487 C483 1.393 . S
C487 C486 1.391 . S
H488 C496 0.950 . S
H489 C501 0.950 . S
H490 C498 0.950 . S
H491 C500 0.950 . S
H492 C502 0.950 . S
H493 C504 0.950 . S
H494 C506 0.950 . S
H495 C507 0.950 . S
C496 H488 0.950 . S
C496 C497 1.386 . S
C496 C498 1.391 . S
C497 C496 1.386 . S
C497 C501 1.393 . S
C498 H490 0.950 . S
C498 C496 1.391 . S
C498 C499 1.400 . S
C499 C498 1.400 . S
C499 C500 1.398 . S
C499 C505 1.491 . S
C500 H491 0.950 . S
C500 C499 1.398 . S
C500 C501 1.391 . S
C501 H489 0.950 . S
C501 C497 1.393 . S
C501 C500 1.391 . S
C502 H492 0.950 . S
C502 C503 1.386 . S
C502 C504 1.391 . S
C503 C502 1.386 . S
C503 C507 1.393 . S
C504 H493 0.950 . S
C504 C502 1.391 . S
C504 C505 1.400 . S
C505 C499 1.491 . S
C505 C504 1.400 . S
C505 C506 1.398 . S
C506 H494 0.950 . S
C506 C505 1.398 . S
C506 C507 1.391 . S
C507 H495 0.950 . S
C507 C503 1.393 . S
C507 C506 1.391 . S
H508 C516 0.950 . S
H509 C521 0.950 . S
H510 C518 0.950 . S
H511 C520 0.950 . S
H512 C522 0.950 . S
H513 C524 0.950 . S
H514 C526 0.950 . S
H515 C527 0.950 . S
C516 H508 0.950 . S
C516 C517 1.386 . S
C516 C518 1.391 . S
C517 C516 1.386 . S
C517 C521 1.393 . S
C518 H510 0.950 . S
C518 C516 1.391 . S
C518 C519 1.400 . S
C519 C518 1.400 . S
C519 C520 1.398 . S
C519 C525 1.491 . S
C520 H511 0.950 . S
C520 C519 1.398 . S
C520 C521 1.391 . S
C521 H509 0.950 . S
C521 C517 1.393 . S
C521 C520 1.391 . S
C522 H512 0.950 . S
C522 C523 1.386 . S
C522 C524 1.391 . S
C523 C522 1.386 . S
C523 C527 1.393 . S
C524 H513 0.950 . S
C524 C522 1.391 . S
C524 C525 1.400 . S
C525 C519 1.491 . S
C525 C524 1.400 . S
C525 C526 1.398 . S
C526 H514 0.950 . S
C526 C525 1.398 . S
C526 C527 1.391 . S
C527 H515 0.950 . S
C527 C523 1.393 . S
C527 C526 1.391 . S
H528 C536 0.950 . S
H529 C541 0.950 . S
H530 C538 0.950 . S
H531 C540 0.950 . S
H532 C542 0.950 . S
H533 C544 0.950 . S
H534 C546 0.950 . S
H535 C547 0.950 . S
C536 H528 0.950 . S
C536 C537 1.386 . S
C536 C538 1.391 . S
C537 C536 1.386 . S
C537 C541 1.393 . S
C538 H530 0.950 . S
C538 C536 1.391 . S
C538 C539 1.400 . S
C539 C538 1.400 . S
C539 C540 1.398 1_655 S
C539 C545 1.491 1_655 S
C540 H531 0.950 . S
C540 C539 1.398 1_455 S
C540 C541 1.391 1_455 S
C541 H529 0.950 . S
C541 C537 1.393 . S
C541 C540 1.391 1_655 S
C542 H532 0.950 . S
C542 C543 1.386 . S
C542 C544 1.391 . S
C543 C542 1.386 . S
C543 C547 1.393 . S
C544 H533 0.950 . S
C544 C542 1.391 . S
C544 C545 1.400 . S
C545 C539 1.491 1_455 S
C545 C544 1.400 . S
C545 C546 1.398 1_455 S
C546 H534 0.950 . S
C546 C545 1.398 1_655 S
C546 C547 1.391 1_655 S
C547 H535 0.950 . S
C547 C543 1.393 . S
C547 C546 1.391 1_455 S
H548 C556 0.950 . S
H549 C561 0.950 . S
H550 C558 0.950 . S
H551 C560 0.950 . S
H552 C562 0.950 . S
H553 C564 0.950 . S
H554 C566 0.950 . S
H555 C567 0.950 . S
C556 H548 0.950 . S
C556 C557 1.386 . S
C556 C558 1.391 . S
C557 C556 1.386 . S
C557 C561 1.393 . S
C558 H550 0.950 . S
C558 C556 1.391 . S
C558 C559 1.400 . S
C559 C558 1.400 . S
C559 C560 1.398 . S
C559 C565 1.491 . S
C560 H551 0.950 . S
C560 C559 1.398 . S
C560 C561 1.391 . S
C561 H549 0.950 . S
C561 C557 1.393 . S
C561 C560 1.391 . S
C562 H552 0.950 . S
C562 C563 1.386 . S
C562 C564 1.391 . S
C563 C562 1.386 . S
C563 C567 1.393 . S
C564 H553 0.950 . S
C564 C562 1.391 . S
C564 C565 1.400 . S
C565 C559 1.491 . S
C565 C564 1.400 . S
C565 C566 1.398 . S
C566 H554 0.950 . S
C566 C565 1.398 . S
C566 C567 1.391 . S
C567 H555 0.950 . S
C567 C563 1.393 . S
C567 C566 1.391 . S
H568 C576 0.950 . S
H569 C581 0.950 . S
H570 C578 0.950 . S
H571 C580 0.950 . S
H572 C582 0.950 . S
H573 C584 0.950 . S
H574 C586 0.950 . S
H575 C587 0.950 . S
C576 H568 0.950 . S
C576 C577 1.386 1_554 S
C576 C578 1.391 . S
C577 C576 1.386 1_556 S
C577 C581 1.393 . S
C578 H570 0.950 . S
C578 C576 1.391 . S
C578 C579 1.400 1_554 S
C579 C578 1.400 1_556 S
C579 C580 1.398 . S
C579 C585 1.491 1_556 S
C580 H571 0.950 . S
C580 C579 1.398 . S
C580 C581 1.391 . S
C581 H569 0.950 . S
C581 C577 1.393 . S
C581 C580 1.391 . S
C582 H572 0.950 . S
C582 C583 1.386 1_556 S
C582 C584 1.391 . S
C583 C582 1.386 1_554 S
C583 C587 1.393 . S
C584 H573 0.950 . S
C584 C582 1.391 . S
C584 C585 1.400 1_556 S
C585 C579 1.491 1_554 S
C585 C584 1.400 1_554 S
C585 C586 1.398 . S
C586 H574 0.950 . S
C586 C585 1.398 . S
C586 C587 1.391 . S
C587 H575 0.950 . S
C587 C583 1.393 . S
C587 C586 1.391 . S
H588 C596 0.950 . S
H589 C601 0.950 . S
H590 C598 0.950 . S
H591 C600 0.950 . S
H592 C602 0.950 . S
H593 C604 0.950 . S
H594 C606 0.950 . S
H595 C607 0.950 . S
C596 H588 0.950 . S
C596 C597 1.386 . S
C596 C598 1.391 . S
C597 C596 1.386 . S
C597 C601 1.393 . S
C598 H590 0.950 . S
C598 C596 1.391 . S
C598 C599 1.400 . S
C599 C598 1.400 . S
C599 C600 1.398 . S
C599 C605 1.491 . S
C600 H591 0.950 . S
C600 C599 1.398 . S
C600 C601 1.391 . S
C601 H589 0.950 . S
C601 C597 1.393 . S
C601 C600 1.391 . S
C602 H592 0.950 . S
C602 C603 1.386 . S
C602 C604 1.391 . S
C603 C602 1.386 . S
C603 C607 1.393 . S
C604 H593 0.950 . S
C604 C602 1.391 . S
C604 C605 1.400 . S
C605 C599 1.491 . S
C605 C604 1.400 . S
C605 C606 1.398 . S
C606 H594 0.950 . S
C606 C605 1.398 . S
C606 C607 1.391 . S
C607 H595 0.950 . S
C607 C603 1.393 . S
C607 C606 1.391 . S
H608 C616 0.950 . S
H609 C621 0.950 . S
H610 C618 0.950 . S
H611 C620 0.950 . S
H612 C622 0.950 . S
H613 C624 0.950 . S
H614 C626 0.950 . S
H615 C627 0.950 . S
C616 H608 0.950 . S
C616 C617 1.386 . S
C616 C618 1.391 . S
C617 C616 1.386 . S
C617 C621 1.393 . S
C618 H610 0.950 . S
C618 C616 1.391 . S
C618 C619 1.400 . S
C619 C618 1.400 . S
C619 C620 1.398 . S
C619 C625 1.491 . S
C620 H611 0.950 . S
C620 C619 1.398 . S
C620 C621 1.391 . S
C621 H609 0.950 . S
C621 C617 1.393 . S
C621 C620 1.391 . S
C622 H612 0.950 . S
C622 C623 1.386 . S
C622 C624 1.391 . S
C623 C622 1.386 . S
C623 C627 1.393 . S
C624 H613 0.950 . S
C624 C622 1.391 . S
C624 C625 1.400 . S
C625 C619 1.491 . S
C625 C624 1.400 . S
C625 C626 1.398 . S
C626 H614 0.950 . S
C626 C625 1.398 . S
C626 C627 1.391 . S
C627 H615 0.950 . S
C627 C623 1.393 . S
C627 C626 1.391 . S
H628 C636 0.950 . S
H629 C641 0.950 . S
H630 C638 0.950 . S
H631 C640 0.950 . S
H632 C642 0.950 . S
H633 C644 0.950 . S
H634 C646 0.950 . S
H635 C647 0.950 . S
C636 H628 0.950 . S
C636 C637 1.386 . S
C636 C638 1.391 . S
C637 C636 1.386 . S
C637 C641 1.393 . S
C638 H630 0.950 . S
C638 C636 1.391 . S
C638 C639 1.400 . S
C639 C638 1.400 . S
C639 C640 1.398 . S
C639 C645 1.491 . S
C640 H631 0.950 . S
C640 C639 1.398 . S
C640 C641 1.391 . S
C641 H629 0.950 . S
C641 C637 1.393 . S
C641 C640 1.391 . S
C642 H632 0.950 . S
C642 C643 1.386 . S
C642 C644 1.391 . S
C643 C642 1.386 . S
C643 C647 1.393 . S
C644 H633 0.950 . S
C644 C642 1.391 . S
C644 C645 1.400 . S
C645 C639 1.491 . S
C645 C644 1.400 . S
C645 C646 1.398 . S
C646 H634 0.950 . S
C646 C645 1.398 . S
C646 C647 1.391 . S
C647 H635 0.950 . S
C647 C643 1.393 . S
C647 C646 1.391 . S
H648 C656 0.950 . S
H649 C661 0.950 . S
H650 C658 0.950 . S
H651 C660 0.950 . S
H652 C662 0.950 . S
H653 C664 0.950 . S
H654 C666 0.950 . S
H655 C667 0.950 . S
C656 H648 0.950 . S
C656 C657 1.386 . S
C656 C658 1.391 . S
C657 C656 1.386 . S
C657 C661 1.393 . S
C658 H650 0.950 . S
C658 C656 1.391 . S
C658 C659 1.400 . S
C659 C658 1.400 . S
C659 C660 1.398 . S
C659 C665 1.491 . S
C660 H651 0.950 . S
C660 C659 1.398 . S
C660 C661 1.391 . S
C661 H649 0.950 . S
C661 C657 1.393 . S
C661 C660 1.391 . S
C662 H652 0.950 . S
C662 C663 1.386 . S
C662 C664 1.391 . S
C663 C662 1.386 . S
C663 C667 1.393 . S
C664 H653 0.950 . S
C664 C662 1.391 . S
C664 C665 1.400 . S
C665 C659 1.491 . S
C665 C664 1.400 . S
C665 C666 1.398 . S
C666 H654 0.950 . S
C666 C665 1.398 . S
C666 C667 1.391 . S
C667 H655 0.950 . S
C667 C663 1.393 . S
C667 C666 1.391 . S
H668 C676 0.950 . S
H669 C681 0.950 . S
H670 C678 0.950 . S
H671 C680 0.950 . S
H672 C682 0.950 . S
H673 C684 0.950 . S
H674 C686 0.950 . S
H675 C687 0.950 . S
C676 H668 0.950 . S
C676 C677 1.386 . S
C676 C678 1.391 . S
C677 C676 1.386 . S
C677 C681 1.393 . S
C678 H670 0.950 . S
C678 C676 1.391 . S
C678 C679 1.400 . S
C679 C678 1.400 . S
C679 C680 1.398 . S
C679 C685 1.491 . S
C680 H671 0.950 . S
C680 C679 1.398 . S
C680 C681 1.391 . S
C681 H669 0.950 . S
C681 C677 1.393 . S
C681 C680 1.391 . S
C682 H672 0.950 . S
C682 C683 1.386 . S
C682 C684 1.391 . S
C683 C682 1.386 . S
C683 C687 1.393 . S
C684 H673 0.950 . S
C684 C682 1.391 . S
C684 C685 1.400 . S
C685 C679 1.491 . S
C685 C684 1.400 . S
C685 C686 1.398 . S
C686 H674 0.950 . S
C686 C685 1.398 . S
C686 C687 1.391 . S
C687 H675 0.950 . S
C687 C683 1.393 . S
C687 C686 1.391 . S
H688 C696 0.950 . S
H689 C701 0.950 . S
H690 C698 0.950 . S
H691 C700 0.950 1_545 S
H692 C702 0.950 . S
H693 C704 0.950 . S
H694 C706 0.950 1_565 S
H695 C707 0.950 . S
C696 H688 0.950 . S
C696 C697 1.386 . S
C696 C698 1.391 . S
C697 C696 1.386 . S
C697 C701 1.393 . S
C698 H690 0.950 . S
C698 C696 1.391 . S
C698 C699 1.400 . S
C699 C698 1.400 . S
C699 C700 1.398 . S
C699 C705 1.491 1_565 S
C700 H691 0.950 1_565 S
C700 C699 1.398 . S
C700 C701 1.391 . S
C701 H689 0.950 . S
C701 C697 1.393 . S
C701 C700 1.391 . S
C702 H692 0.950 . S
C702 C703 1.386 . S
C702 C704 1.391 . S
C703 C702 1.386 . S
C703 C707 1.393 . S
C704 H693 0.950 . S
C704 C702 1.391 . S
C704 C705 1.400 . S
C705 C699 1.491 1_545 S
C705 C704 1.400 . S
C705 C706 1.398 . S
C706 H694 0.950 1_545 S
C706 C705 1.398 . S
C706 C707 1.391 . S
C707 H695 0.950 . S
C707 C703 1.393 . S
C707 C706 1.391 . S
H708 C716 0.950 . S
H709 C721 0.950 . S
H710 C718 0.950 1_545 S
H711 C720 0.950 . S
H712 C722 0.950 . S
H713 C724 0.950 1_565 S
H714 C726 0.950 . S
H715 C727 0.950 . S
C716 H708 0.950 . S
C716 C717 1.386 . S
C716 C718 1.391 . S
C717 C716 1.386 . S
C717 C721 1.393 . S
C718 H710 0.950 1_565 S
C718 C716 1.391 . S
C718 C719 1.400 . S
C719 C718 1.400 . S
C719 C720 1.398 1_455 S
C719 C725 1.491 1_466 S
C720 H711 0.950 . S
C720 C719 1.398 1_655 S
C720 C721 1.391 1_655 S
C721 H709 0.950 . S
C721 C717 1.393 . S
C721 C720 1.391 1_455 S
C722 H712 0.950 . S
C722 C723 1.386 . S
C722 C724 1.391 . S
C723 C722 1.386 . S
C723 C727 1.393 . S
C724 H713 0.950 1_545 S
C724 C722 1.391 . S
C724 C725 1.400 . S
C725 C719 1.491 1_644 S
C725 C724 1.400 . S
C725 C726 1.398 1_655 S
C726 H714 0.950 . S
C726 C725 1.398 1_455 S
C726 C727 1.391 1_455 S
C727 H715 0.950 . S
C727 C723 1.393 . S
C727 C726 1.391 1_655 S
H728 C736 0.950 . S
H729 C741 0.950 . S
H730 C738 0.950 . S
H731 C740 0.950 1_564 S
H732 C742 0.950 . S
H733 C744 0.950 . S
H734 C746 0.950 1_546 S
H735 C747 0.950 . S
C736 H728 0.950 . S
C736 C737 1.386 . S
C736 C738 1.391 . S
C737 C736 1.386 . S
C737 C741 1.393 . S
C738 H730 0.950 . S
C738 C736 1.391 . S
C738 C739 1.400 . S
C739 C738 1.400 . S
C739 C740 1.398 . S
C739 C745 1.491 1_546 S
C740 H731 0.950 1_546 S
C740 C739 1.398 . S
C740 C741 1.391 . S
C741 H729 0.950 . S
C741 C737 1.393 . S
C741 C740 1.391 . S
C742 H732 0.950 . S
C742 C743 1.386 . S
C742 C744 1.391 . S
C743 C742 1.386 . S
C743 C747 1.393 . S
C744 H733 0.950 . S
C744 C742 1.391 . S
C744 C745 1.400 . S
C745 C739 1.491 1_564 S
C745 C744 1.400 . S
C745 C746 1.398 . S
C746 H734 0.950 1_564 S
C746 C745 1.398 . S
C746 C747 1.391 . S
C747 H735 0.950 . S
C747 C743 1.393 . S
C747 C746 1.391 . S
H748 C756 0.950 . S
H749 C761 0.950 . S
H750 C758 0.950 1_565 S
H751 C760 0.950 . S
H752 C762 0.950 . S
H753 C764 0.950 1_545 S
H754 C766 0.950 . S
H755 C767 0.950 . S
C756 H748 0.950 . S
C756 C757 1.386 . S
C756 C758 1.391 . S
C757 C756 1.386 . S
C757 C761 1.393 . S
C758 H750 0.950 1_545 S
C758 C756 1.391 . S
C758 C759 1.400 . S
C759 C758 1.400 . S
C759 C760 1.398 1_455 S
C759 C765 1.491 1_445 S
C760 H751 0.950 . S
C760 C759 1.398 1_655 S
C760 C761 1.391 1_655 S
C761 H749 0.950 . S
C761 C757 1.393 . S
C761 C760 1.391 1_455 S
C762 H752 0.950 . S
C762 C763 1.386 . S
C762 C764 1.391 . S
C763 C762 1.386 . S
C763 C767 1.393 . S
C764 H753 0.950 1_565 S
C764 C762 1.391 . S
C764 C765 1.400 . S
C765 C759 1.491 1_665 S
C765 C764 1.400 . S
C765 C766 1.398 1_655 S
C766 H754 0.950 . S
C766 C765 1.398 1_455 S
C766 C767 1.391 1_455 S
C767 H755 0.950 . S
C767 C763 1.393 . S
C767 C766 1.391 1_655 S
H768 C776 0.950 . S
H769 C781 0.950 . S
H770 C778 0.950 1_455 S
H771 C780 0.950 . S
H772 C782 0.950 . S
H773 C784 0.950 1_655 S
H774 C786 0.950 . S
H775 C787 0.950 . S
C776 H768 0.950 . S
C776 C777 1.386 . S
C776 C778 1.391 . S
C777 C776 1.386 . S
C777 C781 1.393 . S
C778 H770 0.950 1_655 S
C778 C776 1.391 . S
C778 C779 1.400 . S
C779 C778 1.400 . S
C779 C780 1.398 . S
C779 C785 1.491 1_655 S
C780 H771 0.950 . S
C780 C779 1.398 . S
C780 C781 1.391 . S
C781 H769 0.950 . S
C781 C777 1.393 . S
C781 C780 1.391 . S
C782 H772 0.950 . S
C782 C783 1.386 . S
C782 C784 1.391 . S
C783 C782 1.386 . S
C783 C787 1.393 . S
C784 H773 0.950 1_455 S
C784 C782 1.391 . S
C784 C785 1.400 . S
C785 C779 1.491 1_455 S
C785 C784 1.400 . S
C785 C786 1.398 . S
C786 H774 0.950 . S
C786 C785 1.398 . S
C786 C787 1.391 . S
C787 H775 0.950 . S
C787 C783 1.393 . S
C787 C786 1.391 . S
H788 C796 0.950 . S
H789 C801 0.950 . S
H790 C798 0.950 . S
H791 C800 0.950 . S
H792 C802 0.950 . S
H793 C804 0.950 . S
H794 C806 0.950 . S
H795 C807 0.950 . S
C796 H788 0.950 . S
C796 C797 1.386 . S
C796 C798 1.391 . S
C797 C796 1.386 . S
C797 C801 1.393 . S
C798 H790 0.950 . S
C798 C796 1.391 . S
C798 C799 1.400 . S
C799 C798 1.400 . S
C799 C800 1.398 . S
C799 C805 1.491 1_455 S
C800 H791 0.950 . S
C800 C799 1.398 . S
C800 C801 1.391 . S
C801 H789 0.950 . S
C801 C797 1.393 . S
C801 C800 1.391 . S
C802 H792 0.950 . S
C802 C803 1.386 . S
C802 C804 1.391 . S
C803 C802 1.386 . S
C803 C807 1.393 . S
C804 H793 0.950 . S
C804 C802 1.391 . S
C804 C805 1.400 . S
C805 C799 1.491 1_655 S
C805 C804 1.400 . S
C805 C806 1.398 . S
C806 H794 0.950 . S
C806 C805 1.398 . S
C806 C807 1.391 . S
C807 H795 0.950 . S
C807 C803 1.393 . S
C807 C806 1.391 . S
H808 C816 0.950 . S
H809 C821 0.950 . S
H810 C818 0.950 . S
H811 C820 0.950 . S
H812 C822 0.950 . S
H813 C824 0.950 . S
H814 C826 0.950 . S
H815 C827 0.950 . S
C816 H808 0.950 . S
C816 C817 1.386 . S
C816 C818 1.391 . S
C817 C816 1.386 . S
C817 C821 1.393 . S
C818 H810 0.950 . S
C818 C816 1.391 . S
C818 C819 1.400 . S
C819 C818 1.400 . S
C819 C820 1.398 . S
C819 C825 1.491 . S
C820 H811 0.950 . S
C820 C819 1.398 . S
C820 C821 1.391 . S
C821 H809 0.950 . S
C821 C817 1.393 . S
C821 C820 1.391 . S
C822 H812 0.950 . S
C822 C823 1.386 . S
C822 C824 1.391 . S
C823 C822 1.386 . S
C823 C827 1.393 . S
C824 H813 0.950 . S
C824 C822 1.391 . S
C824 C825 1.400 . S
C825 C819 1.491 . S
C825 C824 1.400 . S
C825 C826 1.398 . S
C826 H814 0.950 . S
C826 C825 1.398 . S
C826 C827 1.391 . S
C827 H815 0.950 . S
C827 C823 1.393 . S
C827 C826 1.391 . S
H828 C836 0.950 . S
H829 C841 0.950 . S
H830 C838 0.950 . S
H831 C840 0.950 . S
H832 C842 0.950 . S
H833 C844 0.950 . S
H834 C846 0.950 . S
H835 C847 0.950 . S
C836 H828 0.950 . S
C836 C837 1.386 . S
C836 C838 1.391 . S
C837 C836 1.386 . S
C837 C841 1.393 . S
C838 H830 0.950 . S
C838 C836 1.391 . S
C838 C839 1.400 . S
C839 C838 1.400 . S
C839 C840 1.398 . S
C839 C845 1.491 . S
C840 H831 0.950 . S
C840 C839 1.398 . S
C840 C841 1.391 . S
C841 H829 0.950 . S
C841 C837 1.393 . S
C841 C840 1.391 . S
C842 H832 0.950 . S
C842 C843 1.386 . S
C842 C844 1.391 . S
C843 C842 1.386 . S
C843 C847 1.393 . S
C844 H833 0.950 . S
C844 C842 1.391 . S
C844 C845 1.400 . S
C845 C839 1.491 . S
C845 C844 1.400 . S
C845 C846 1.398 . S
C846 H834 0.950 . S
C846 C845 1.398 . S
C846 C847 1.391 . S
C847 H835 0.950 . S
C847 C843 1.393 . S
C847 C846 1.391 . S
H848 C856 0.950 . S
H849 C861 0.950 . S
H850 C858 0.950 . S
H851 C860 0.950 1_455 S
H852 C862 0.950 . S
H853 C864 0.950 . S
H854 C866 0.950 1_655 S
H855 C867 0.950 . S
C856 H848 0.950 . S
C856 C857 1.386 . S
C856 C858 1.391 . S
C857 C856 1.386 . S
C857 C861 1.393 . S
C858 H850 0.950 . S
C858 C856 1.391 . S
C858 C859 1.400 . S
C859 C858 1.400 . S
C859 C860 1.398 . S
C859 C865 1.491 1_655 S
C860 H851 0.950 1_655 S
C860 C859 1.398 . S
C860 C861 1.391 . S
C861 H849 0.950 . S
C861 C857 1.393 . S
C861 C860 1.391 . S
C862 H852 0.950 . S
C862 C863 1.386 . S
C862 C864 1.391 . S
C863 C862 1.386 . S
C863 C867 1.393 . S
C864 H853 0.950 . S
C864 C862 1.391 . S
C864 C865 1.400 . S
C865 C859 1.491 1_455 S
C865 C864 1.400 . S
C865 C866 1.398 . S
C866 H854 0.950 1_455 S
C866 C865 1.398 . S
C866 C867 1.391 . S
C867 H855 0.950 . S
C867 C863 1.393 . S
C867 C866 1.391 . S
H868 C876 0.950 . S
H869 C881 0.950 . S
H870 C878 0.950 . S
H871 C880 0.950 . S
H872 C882 0.950 . S
H873 C884 0.950 . S
H874 C886 0.950 . S
H875 C887 0.950 . S
C876 H868 0.950 . S
C876 C877 1.386 . S
C876 C878 1.391 . S
C877 C876 1.386 . S
C877 C881 1.393 . S
C878 H870 0.950 . S
C878 C876 1.391 . S
C878 C879 1.400 . S
C879 C878 1.400 . S
C879 C880 1.398 . S
C879 C885 1.491 . S
C880 H871 0.950 . S
C880 C879 1.398 . S
C880 C881 1.391 . S
C881 H869 0.950 . S
C881 C877 1.393 . S
C881 C880 1.391 . S
C882 H872 0.950 . S
C882 C883 1.386 . S
C882 C884 1.391 . S
C883 C882 1.386 . S
C883 C887 1.393 . S
C884 H873 0.950 . S
C884 C882 1.391 . S
C884 C885 1.400 . S
C885 C879 1.491 . S
C885 C884 1.400 . S
C885 C886 1.398 . S
C886 H874 0.950 . S
C886 C885 1.398 . S
C886 C887 1.391 . S
C887 H875 0.950 . S
C887 C883 1.393 . S
C887 C886 1.391 . S
H888 C896 0.950 . S
H889 C901 0.950 . S
H890 C898 0.950 . S
H891 C900 0.950 . S
H892 C902 0.950 . S
H893 C904 0.950 . S
H894 C906 0.950 . S
H895 C907 0.950 . S
C896 H888 0.950 . S
C896 C897 1.386 . S
C896 C898 1.391 . S
C897 C896 1.386 . S
C897 C901 1.393 . S
C898 H890 0.950 . S
C898 C896 1.391 . S
C898 C899 1.400 . S
C899 C898 1.400 . S
C899 C900 1.398 . S
C899 C905 1.491 . S
C900 H891 0.950 . S
C900 C899 1.398 . S
C900 C901 1.391 . S
C901 H889 0.950 . S
C901 C897 1.393 . S
C901 C900 1.391 . S
C902 H892 0.950 . S
C902 C903 1.386 . S
C902 C904 1.391 . S
C903 C902 1.386 . S
C903 C907 1.393 . S
C904 H893 0.950 . S
C904 C902 1.391 . S
C904 C905 1.400 . S
C905 C899 1.491 . S
C905 C904 1.400 . S
C905 C906 1.398 . S
C906 H894 0.950 . S
C906 C905 1.398 . S
C906 C907 1.391 . S
C907 H895 0.950 . S
C907 C903 1.393 . S
C907 C906 1.391 . S
H908 C916 0.950 . S
H909 C921 0.950 . S
H910 C918 0.950 . S
H911 C920 0.950 . S
H912 C922 0.950 . S
H913 C924 0.950 . S
H914 C926 0.950 . S
H915 C927 0.950 . S
C916 H908 0.950 . S
C916 C917 1.386 . S
C916 C918 1.391 . S
C917 C916 1.386 . S
C917 C921 1.393 . S
C918 H910 0.950 . S
C918 C916 1.391 . S
C918 C919 1.400 . S
C919 C918 1.400 . S
C919 C920 1.398 . S
C919 C925 1.491 1_455 S
C920 H911 0.950 . S
C920 C919 1.398 . S
C920 C921 1.391 . S
C921 H909 0.950 . S
C921 C917 1.393 . S
C921 C920 1.391 . S
C922 H912 0.950 . S
C922 C923 1.386 . S
C922 C924 1.391 . S
C923 C922 1.386 . S
C923 C927 1.393 . S
C924 H913 0.950 . S
C924 C922 1.391 . S
C924 C925 1.400 . S
C925 C919 1.491 1_655 S
C925 C924 1.400 . S
C925 C926 1.398 . S
C926 H914 0.950 . S
C926 C925 1.398 . S
C926 C927 1.391 . S
C927 H915 0.950 . S
C927 C923 1.393 . S
C927 C926 1.391 . S
H928 C936 0.950 . S
H929 C941 0.950 . S
H930 C938 0.950 1_455 S
H931 C940 0.950 . S
H932 C942 0.950 . S
H933 C944 0.950 1_655 S
H934 C946 0.950 . S
H935 C947 0.950 . S
C936 H928 0.950 . S
C936 C937 1.386 . S
C936 C938 1.391 . S
C937 C936 1.386 . S
C937 C941 1.393 . S
C938 H930 0.950 1_655 S
C938 C936 1.391 . S
C938 C939 1.400 . S
C939 C938 1.400 . S
C939 C940 1.398 . S
C939 C945 1.491 1_655 S
C940 H931 0.950 . S
C940 C939 1.398 . S
C940 C941 1.391 . S
C941 H929 0.950 . S
C941 C937 1.393 . S
C941 C940 1.391 . S
C942 H932 0.950 . S
C942 C943 1.386 . S
C942 C944 1.391 . S
C943 C942 1.386 . S
C943 C947 1.393 . S
C944 H933 0.950 1_455 S
C944 C942 1.391 . S
C944 C945 1.400 . S
C945 C939 1.491 1_455 S
C945 C944 1.400 . S
C945 C946 1.398 . S
C946 H934 0.950 . S
C946 C945 1.398 . S
C946 C947 1.391 . S
C947 H935 0.950 . S
C947 C943 1.393 . S
C947 C946 1.391 . S
H948 C956 0.950 . S
H949 C961 0.950 . S
H950 C958 0.950 . S
H951 C960 0.950 1_455 S
H952 C962 0.950 . S
H953 C964 0.950 . S
H954 C966 0.950 1_655 S
H955 C967 0.950 . S
C956 H948 0.950 . S
C956 C957 1.386 . S
C956 C958 1.391 . S
C957 C956 1.386 . S
C957 C961 1.393 . S
C958 H950 0.950 . S
C958 C956 1.391 . S
C958 C959 1.400 . S
C959 C958 1.400 . S
C959 C960 1.398 . S
C959 C965 1.491 1_655 S
C960 H951 0.950 1_655 S
C960 C959 1.398 . S
C960 C961 1.391 . S
C961 H949 0.950 . S
C961 C957 1.393 . S
C961 C960 1.391 . S
C962 H952 0.950 . S
C962 C963 1.386 . S
C962 C964 1.391 . S
C963 C962 1.386 . S
C963 C967 1.393 . S
C964 H953 0.950 . S
C964 C962 1.391 . S
C964 C965 1.400 . S
C965 C959 1.491 1_455 S
C965 C964 1.400 . S
C965 C966 1.398 . S
C966 H954 0.950 1_455 S
C966 C965 1.398 . S
C966 C967 1.391 . S
C967 H955 0.950 . S
C967 C963 1.393 . S
C967 C966 1.391 . S
H968 C976 0.950 . S
H969 C981 0.950 . S
H970 C978 0.950 . S
H971 C980 0.950 . S
H972 C982 0.950 . S
H973 C984 0.950 . S
H974 C986 0.950 . S
H975 C987 0.950 . S
C976 H968 0.950 . S
C976 C977 1.386 . S
C976 C978 1.391 . S
C977 C976 1.386 . S
C977 C981 1.393 . S
C978 H970 0.950 . S
C978 C976 1.391 . S
C978 C979 1.400 . S
C979 C978 1.400 . S
C979 C980 1.398 . S
C979 C985 1.491 . S
C980 H971 0.950 . S
C980 C979 1.398 . S
C980 C981 1.391 . S
C981 H969 0.950 . S
C981 C977 1.393 . S
C981 C980 1.391 . S
C982 H972 0.950 . S
C982 C983 1.386 . S
C982 C984 1.391 . S
C983 C982 1.386 . S
C983 C987 1.393 . S
C984 H973 0.950 . S
C984 C982 1.391 . S
C984 C985 1.400 . S
C985 C979 1.491 . S
C985 C984 1.400 . S
C985 C986 1.398 . S
C986 H974 0.950 . S
C986 C985 1.398 . S
C986 C987 1.391 . S
C987 H975 0.950 . S
C987 C983 1.393 . S
C987 C986 1.391 . S
H988 C996 0.950 . S
H989 C1001 0.950 . S
H990 C998 0.950 . S
H991 C1000 0.950 . S
H992 C1002 0.950 . S
H993 C1004 0.950 . S
H994 C1006 0.950 . S
H995 C1007 0.950 . S
C996 H988 0.950 . S
C996 C997 1.386 . S
C996 C998 1.391 . S
C997 C996 1.386 . S
C997 C1001 1.393 . S
C998 H990 0.950 . S
C998 C996 1.391 . S
C998 C999 1.400 . S
C999 C998 1.400 . S
C999 C1000 1.398 . S
C999 C1005 1.491 . S
C1000 H991 0.950 . S
C1000 C999 1.398 . S
C1000 C1001 1.391 . S
C1001 H989 0.950 . S
C1001 C997 1.393 . S
C1001 C1000 1.391 . S
C1002 H992 0.950 . S
C1002 C1003 1.386 . S
C1002 C1004 1.391 . S
C1003 C1002 1.386 . S
C1003 C1007 1.393 . S
C1004 H993 0.950 . S
C1004 C1002 1.391 . S
C1004 C1005 1.400 . S
C1005 C999 1.491 . S
C1005 C1004 1.400 . S
C1005 C1006 1.398 . S
C1006 H994 0.950 . S
C1006 C1005 1.398 . S
C1006 C1007 1.391 . S
C1007 H995 0.950 . S
C1007 C1003 1.393 . S
C1007 C1006 1.391 . S
H1008 C1016 0.950 . S
H1009 C1021 0.950 . S
H1010 C1018 0.950 1_455 S
H1011 C1020 0.950 . S
H1012 C1022 0.950 . S
H1013 C1024 0.950 1_655 S
H1014 C1026 0.950 . S
H1015 C1027 0.950 . S
C1016 H1008 0.950 . S
C1016 C1017 1.386 . S
C1016 C1018 1.391 . S
C1017 C1016 1.386 . S
C1017 C1021 1.393 . S
C1018 H1010 0.950 1_655 S
C1018 C1016 1.391 . S
C1018 C1019 1.400 . S
C1019 C1018 1.400 . S
C1019 C1020 1.398 . S
C1019 C1025 1.491 1_655 S
C1020 H1011 0.950 . S
C1020 C1019 1.398 . S
C1020 C1021 1.391 . S
C1021 H1009 0.950 . S
C1021 C1017 1.393 . S
C1021 C1020 1.391 . S
C1022 H1012 0.950 . S
C1022 C1023 1.386 . S
C1022 C1024 1.391 . S
C1023 C1022 1.386 . S
C1023 C1027 1.393 . S
C1024 H1013 0.950 1_455 S
C1024 C1022 1.391 . S
C1024 C1025 1.400 . S
C1025 C1019 1.491 1_455 S
C1025 C1024 1.400 . S
C1025 C1026 1.398 . S
C1026 H1014 0.950 . S
C1026 C1025 1.398 . S
C1026 C1027 1.391 . S
C1027 H1015 0.950 . S
C1027 C1023 1.393 . S
C1027 C1026 1.391 . S
H1028 C1036 0.950 . S
H1029 C1041 0.950 . S
H1030 C1038 0.950 . S
H1031 C1040 0.950 . S
H1032 C1042 0.950 . S
H1033 C1044 0.950 . S
H1034 C1046 0.950 . S
H1035 C1047 0.950 . S
C1036 H1028 0.950 . S
C1036 C1037 1.386 . S
C1036 C1038 1.391 . S
C1037 C1036 1.386 . S
C1037 C1041 1.393 . S
C1038 H1030 0.950 . S
C1038 C1036 1.391 . S
C1038 C1039 1.400 . S
C1039 C1038 1.400 . S
C1039 C1040 1.398 . S
C1039 C1045 1.491 . S
C1040 H1031 0.950 . S
C1040 C1039 1.398 . S
C1040 C1041 1.391 . S
C1041 H1029 0.950 . S
C1041 C1037 1.393 . S
C1041 C1040 1.391 . S
C1042 H1032 0.950 . S
C1042 C1043 1.386 . S
C1042 C1044 1.391 . S
C1043 C1042 1.386 . S
C1043 C1047 1.393 . S
C1044 H1033 0.950 . S
C1044 C1042 1.391 . S
C1044 C1045 1.400 . S
C1045 C1039 1.491 . S
C1045 C1044 1.400 . S
C1045 C1046 1.398 . S
C1046 H1034 0.950 . S
C1046 C1045 1.398 . S
C1046 C1047 1.391 . S
C1047 H1035 0.950 . S
C1047 C1043 1.393 . S
C1047 C1046 1.391 . S
H1048 C1056 0.950 . S
H1049 C1061 0.950 . S
H1050 C1058 0.950 . S
H1051 C1060 0.950 . S
H1052 C1062 0.950 . S
H1053 C1064 0.950 . S
H1054 C1066 0.950 . S
H1055 C1067 0.950 . S
C1056 H1048 0.950 . S
C1056 C1057 1.386 . S
C1056 C1058 1.391 . S
C1057 C1056 1.386 . S
C1057 C1061 1.393 . S
C1058 H1050 0.950 . S
C1058 C1056 1.391 . S
C1058 C1059 1.400 . S
C1059 C1058 1.400 . S
C1059 C1060 1.398 . S
C1059 C1065 1.491 . S
C1060 H1051 0.950 . S
C1060 C1059 1.398 . S
C1060 C1061 1.391 . S
C1061 H1049 0.950 . S
C1061 C1057 1.393 . S
C1061 C1060 1.391 . S
C1062 H1052 0.950 . S
C1062 C1063 1.386 . S
C1062 C1064 1.391 . S
C1063 C1062 1.386 . S
C1063 C1067 1.393 . S
C1064 H1053 0.950 . S
C1064 C1062 1.391 . S
C1064 C1065 1.400 . S
C1065 C1059 1.491 . S
C1065 C1064 1.400 . S
C1065 C1066 1.398 . S
C1066 H1054 0.950 . S
C1066 C1065 1.398 . S
C1066 C1067 1.391 . S
C1067 H1055 0.950 . S
C1067 C1063 1.393 . S
C1067 C1066 1.391 . S
H1068 C1076 0.950 . S
H1069 C1081 0.950 . S
H1070 C1078 0.950 1_455 S
H1071 C1080 0.950 . S
H1072 C1082 0.950 . S
H1073 C1084 0.950 1_655 S
H1074 C1086 0.950 . S
H1075 C1087 0.950 . S
C1076 H1068 0.950 . S
C1076 C1077 1.386 . S
C1076 C1078 1.391 . S
C1077 C1076 1.386 . S
C1077 C1081 1.393 . S
C1078 H1070 0.950 1_655 S
C1078 C1076 1.391 . S
C1078 C1079 1.400 . S
C1079 C1078 1.400 . S
C1079 C1080 1.398 . S
C1079 C1085 1.491 1_655 S
C1080 H1071 0.950 . S
C1080 C1079 1.398 . S
C1080 C1081 1.391 . S
C1081 H1069 0.950 . S
C1081 C1077 1.393 . S
C1081 C1080 1.391 . S
C1082 H1072 0.950 . S
C1082 C1083 1.386 . S
C1082 C1084 1.391 . S
C1083 C1082 1.386 . S
C1083 C1087 1.393 . S
C1084 H1073 0.950 1_455 S
C1084 C1082 1.391 . S
C1084 C1085 1.400 . S
C1085 C1079 1.491 1_455 S
C1085 C1084 1.400 . S
C1085 C1086 1.398 . S
C1086 H1074 0.950 . S
C1086 C1085 1.398 . S
C1086 C1087 1.391 . S
C1087 H1075 0.950 . S
C1087 C1083 1.393 . S
C1087 C1086 1.391 . S
H1088 C1096 0.950 . S
H1089 C1101 0.950 . S
H1090 C1098 0.971 . S
H1091 C1100 0.950 . S
H1092 C1102 0.950 . S
H1093 C1104 0.971 . S
H1094 C1106 0.950 . S
H1095 C1107 0.950 . S
C1096 H1088 0.950 . S
C1096 C1097 1.386 . S
C1096 C1098 1.379 1_556 S
C1097 C1096 1.386 . S
C1097 C1101 1.393 . S
C1098 H1090 0.971 . S
C1098 C1096 1.379 1_554 S
C1098 C1099 1.392 1_554 S
C1099 C1098 1.392 1_556 S
C1099 C1100 1.398 . S
C1099 C1105 1.491 1_556 S
C1100 H1091 0.950 . S
C1100 C1099 1.398 . S
C1100 C1101 1.391 . S
C1101 H1089 0.950 . S
C1101 C1097 1.393 . S
C1101 C1100 1.391 . S
C1102 H1092 0.950 . S
C1102 C1103 1.386 . S
C1102 C1104 1.379 1_554 S
C1103 C1102 1.386 . S
C1103 C1107 1.393 . S
C1104 H1093 0.971 . S
C1104 C1102 1.379 1_556 S
C1104 C1105 1.392 1_556 S
C1105 C1099 1.491 1_554 S
C1105 C1104 1.392 1_554 S
C1105 C1106 1.398 . S
C1106 H1094 0.950 . S
C1106 C1105 1.398 . S
C1106 C1107 1.391 . S
C1107 H1095 0.950 . S
C1107 C1103 1.393 . S
C1107 C1106 1.391 . S
H1108 C1116 0.950 . S
H1109 C1121 0.950 . S
H1110 C1118 0.950 . S
H1111 C1120 0.950 . S
H1112 C1122 0.950 . S
H1113 C1124 0.950 . S
H1114 C1126 0.950 . S
H1115 C1127 0.950 . S
C1116 H1108 0.950 . S
C1116 C1117 1.386 . S
C1116 C1118 1.391 . S
C1117 C1116 1.386 . S
C1117 C1121 1.393 . S
C1118 H1110 0.950 . S
C1118 C1116 1.391 . S
C1118 C1119 1.400 . S
C1119 C1118 1.400 . S
C1119 C1120 1.398 . S
C1119 C1125 1.491 1_545 S
C1120 H1111 0.950 . S
C1120 C1119 1.398 . S
C1120 C1121 1.391 . S
C1121 H1109 0.950 . S
C1121 C1117 1.393 . S
C1121 C1120 1.391 . S
C1122 H1112 0.950 . S
C1122 C1123 1.386 . S
C1122 C1124 1.391 . S
C1123 C1122 1.386 . S
C1123 C1127 1.393 . S
C1124 H1113 0.950 . S
C1124 C1122 1.391 . S
C1124 C1125 1.400 . S
C1125 C1119 1.491 1_565 S
C1125 C1124 1.400 . S
C1125 C1126 1.398 . S
C1126 H1114 0.950 . S
C1126 C1125 1.398 . S
C1126 C1127 1.391 . S
C1127 H1115 0.950 . S
C1127 C1123 1.393 . S
C1127 C1126 1.391 . S
H1128 C1136 0.950 . S
H1129 C1141 0.950 . S
H1130 C1138 0.950 . S
H1131 C1140 0.950 . S
H1132 C1142 0.950 . S
H1133 C1144 0.950 . S
H1134 C1146 0.950 . S
H1135 C1147 0.950 . S
C1136 H1128 0.950 . S
C1136 C1137 1.386 . S
C1136 C1138 1.391 . S
C1137 C1136 1.386 . S
C1137 C1141 1.393 . S
C1138 H1130 0.950 . S
C1138 C1136 1.391 . S
C1138 C1139 1.400 . S
C1139 C1138 1.400 . S
C1139 C1140 1.398 . S
C1139 C1145 1.491 . S
C1140 H1131 0.950 . S
C1140 C1139 1.398 . S
C1140 C1141 1.391 . S
C1141 H1129 0.950 . S
C1141 C1137 1.393 . S
C1141 C1140 1.391 . S
C1142 H1132 0.950 . S
C1142 C1143 1.386 . S
C1142 C1144 1.391 . S
C1143 C1142 1.386 . S
C1143 C1147 1.393 . S
C1144 H1133 0.950 . S
C1144 C1142 1.391 . S
C1144 C1145 1.400 . S
C1145 C1139 1.491 . S
C1145 C1144 1.400 . S
C1145 C1146 1.398 . S
C1146 H1134 0.950 . S
C1146 C1145 1.398 . S
C1146 C1147 1.391 . S
C1147 H1135 0.950 . S
C1147 C1143 1.393 . S
C1147 C1146 1.391 . S
H1148 C1156 0.950 . S
H1149 C1161 0.950 . S
H1150 C1158 0.950 . S
H1151 C1160 0.950 . S
H1152 C1162 0.950 . S
H1153 C1164 0.950 . S
H1154 C1166 0.950 . S
H1155 C1167 0.950 . S
C1156 H1148 0.950 . S
C1156 C1157 1.386 . S
C1156 C1158 1.391 . S
C1157 C1156 1.386 . S
C1157 C1161 1.393 . S
C1158 H1150 0.950 . S
C1158 C1156 1.391 . S
C1158 C1159 1.400 . S
C1159 C1158 1.400 . S
C1159 C1160 1.398 . S
C1159 C1165 1.491 1_545 S
C1160 H1151 0.950 . S
C1160 C1159 1.398 . S
C1160 C1161 1.391 . S
C1161 H1149 0.950 . S
C1161 C1157 1.393 . S
C1161 C1160 1.391 . S
C1162 H1152 0.950 . S
C1162 C1163 1.386 . S
C1162 C1164 1.391 . S
C1163 C1162 1.386 . S
C1163 C1167 1.393 . S
C1164 H1153 0.950 . S
C1164 C1162 1.391 . S
C1164 C1165 1.400 . S
C1165 C1159 1.491 1_565 S
C1165 C1164 1.400 . S
C1165 C1166 1.398 . S
C1166 H1154 0.950 . S
C1166 C1165 1.398 . S
C1166 C1167 1.391 . S
C1167 H1155 0.950 . S
C1167 C1163 1.393 . S
C1167 C1166 1.391 . S
H1168 C1176 0.950 . S
H1169 C1181 0.950 . S
H1170 C1178 0.950 . S
H1171 C1180 0.937 1_556 S
H1172 C1182 0.950 . S
H1173 C1184 0.950 . S
H1174 C1186 0.937 1_554 S
H1175 C1187 0.950 . S
C1176 H1168 0.950 . S
C1176 C1177 1.386 . S
C1176 C1178 1.391 . S
C1177 C1176 1.386 . S
C1177 C1181 1.393 . S
C1178 H1170 0.950 . S
C1178 C1176 1.391 . S
C1178 C1179 1.400 . S
C1179 C1178 1.400 . S
C1179 C1180 1.402 . S
C1179 C1185 1.491 1_554 S
C1180 H1171 0.937 1_554 S
C1180 C1179 1.402 . S
C1180 C1181 1.400 . S
C1181 H1169 0.950 . S
C1181 C1177 1.393 . S
C1181 C1180 1.400 . S
C1182 H1172 0.950 . S
C1182 C1183 1.386 . S
C1182 C1184 1.391 . S
C1183 C1182 1.386 . S
C1183 C1187 1.393 . S
C1184 H1173 0.950 . S
C1184 C1182 1.391 . S
C1184 C1185 1.400 . S
C1185 C1179 1.491 1_556 S
C1185 C1184 1.400 . S
C1185 C1186 1.402 . S
C1186 H1174 0.937 1_556 S
C1186 C1185 1.402 . S
C1186 C1187 1.400 . S
C1187 H1175 0.950 . S
C1187 C1183 1.393 . S
C1187 C1186 1.400 . S
H1188 C1196 0.950 . S
H1189 C1201 0.950 . S
H1190 C1198 0.950 . S
H1191 C1200 0.950 . S
H1192 C1202 0.950 . S
H1193 C1204 0.950 . S
H1194 C1206 0.950 . S
H1195 C1207 0.950 . S
C1196 H1188 0.950 . S
C1196 C1197 1.386 . S
C1196 C1198 1.391 . S
C1197 C1196 1.386 . S
C1197 C1201 1.393 . S
C1198 H1190 0.950 . S
C1198 C1196 1.391 . S
C1198 C1199 1.400 . S
C1199 C1198 1.400 . S
C1199 C1200 1.398 . S
C1199 C1205 1.491 1_565 S
C1200 H1191 0.950 . S
C1200 C1199 1.398 . S
C1200 C1201 1.391 . S
C1201 H1189 0.950 . S
C1201 C1197 1.393 . S
C1201 C1200 1.391 . S
C1202 H1192 0.950 . S
C1202 C1203 1.386 . S
C1202 C1204 1.391 . S
C1203 C1202 1.386 . S
C1203 C1207 1.393 . S
C1204 H1193 0.950 . S
C1204 C1202 1.391 . S
C1204 C1205 1.400 . S
C1205 C1199 1.491 1_545 S
C1205 C1204 1.400 . S
C1205 C1206 1.398 . S
C1206 H1194 0.950 . S
C1206 C1205 1.398 . S
C1206 C1207 1.391 . S
C1207 H1195 0.950 . S
C1207 C1203 1.393 . S
C1207 C1206 1.391 . S
H1208 C1216 0.950 . S
H1209 C1221 0.950 . S
H1210 C1218 0.950 . S
H1211 C1220 0.950 . S
H1212 C1222 0.950 . S
H1213 C1224 0.950 . S
H1214 C1226 0.950 . S
H1215 C1227 0.950 . S
C1216 H1208 0.950 . S
C1216 C1217 1.386 . S
C1216 C1218 1.391 . S
C1217 C1216 1.386 . S
C1217 C1221 1.393 . S
C1218 H1210 0.950 . S
C1218 C1216 1.391 . S
C1218 C1219 1.400 . S
C1219 C1218 1.400 . S
C1219 C1220 1.398 . S
C1219 C1225 1.491 . S
C1220 H1211 0.950 . S
C1220 C1219 1.398 . S
C1220 C1221 1.391 . S
C1221 H1209 0.950 . S
C1221 C1217 1.393 . S
C1221 C1220 1.391 . S
C1222 H1212 0.950 . S
C1222 C1223 1.386 . S
C1222 C1224 1.391 . S
C1223 C1222 1.386 . S
C1223 C1227 1.393 . S
C1224 H1213 0.950 . S
C1224 C1222 1.391 . S
C1224 C1225 1.400 . S
C1225 C1219 1.491 . S
C1225 C1224 1.400 . S
C1225 C1226 1.398 . S
C1226 H1214 0.950 . S
C1226 C1225 1.398 . S
C1226 C1227 1.391 . S
C1227 H1215 0.950 . S
C1227 C1223 1.393 . S
C1227 C1226 1.391 . S
H1228 C1236 0.950 . S
H1229 C1241 0.950 . S
H1230 C1238 0.950 . S
H1231 C1240 0.950 . S
H1232 C1242 0.950 . S
H1233 C1244 0.950 . S
H1234 C1246 0.950 . S
H1235 C1247 0.950 . S
C1236 H1228 0.950 . S
C1236 C1237 1.386 . S
C1236 C1238 1.391 . S
C1237 C1236 1.386 . S
C1237 C1241 1.393 . S
C1238 H1230 0.950 . S
C1238 C1236 1.391 . S
C1238 C1239 1.400 . S
C1239 C1238 1.400 . S
C1239 C1240 1.398 . S
C1239 C1245 1.491 1_545 S
C1240 H1231 0.950 . S
C1240 C1239 1.398 . S
C1240 C1241 1.391 . S
C1241 H1229 0.950 . S
C1241 C1237 1.393 . S
C1241 C1240 1.391 . S
C1242 H1232 0.950 . S
C1242 C1243 1.386 . S
C1242 C1244 1.391 . S
C1243 C1242 1.386 . S
C1243 C1247 1.393 . S
C1244 H1233 0.950 . S
C1244 C1242 1.391 . S
C1244 C1245 1.400 . S
C1245 C1239 1.491 1_565 S
C1245 C1244 1.400 . S
C1245 C1246 1.398 . S
C1246 H1234 0.950 . S
C1246 C1245 1.398 . S
C1246 C1247 1.391 . S
C1247 H1235 0.950 . S
C1247 C1243 1.393 . S
C1247 C1246 1.391 . S
H1248 C1256 0.950 . S
H1249 C1261 0.950 . S
H1250 C1258 0.950 . S
H1251 C1260 0.950 . S
H1252 C1262 0.950 . S
H1253 C1264 0.950 . S
H1254 C1266 0.950 . S
H1255 C1267 0.950 . S
C1256 H1248 0.950 . S
C1256 C1257 1.386 . S
C1256 C1258 1.391 . S
C1257 C1256 1.386 . S
C1257 C1261 1.393 . S
C1258 H1250 0.950 . S
C1258 C1256 1.391 . S
C1258 C1259 1.400 . S
C1259 C1258 1.400 . S
C1259 C1260 1.398 . S
C1259 C1265 1.491 . S
C1260 H1251 0.950 . S
C1260 C1259 1.398 . S
C1260 C1261 1.391 . S
C1261 H1249 0.950 . S
C1261 C1257 1.393 . S
C1261 C1260 1.391 . S
C1262 H1252 0.950 . S
C1262 C1263 1.386 . S
C1262 C1264 1.391 . S
C1263 C1262 1.386 . S
C1263 C1267 1.393 . S
C1264 H1253 0.950 . S
C1264 C1262 1.391 . S
C1264 C1265 1.400 . S
C1265 C1259 1.491 . S
C1265 C1264 1.400 . S
C1265 C1266 1.398 . S
C1266 H1254 0.950 . S
C1266 C1265 1.398 . S
C1266 C1267 1.391 . S
C1267 H1255 0.950 . S
C1267 C1263 1.393 . S
C1267 C1266 1.391 . S
H1268 C1276 0.950 . S
H1269 C1281 0.950 . S
H1270 C1278 0.950 . S
H1271 C1280 0.950 . S
H1272 C1282 0.950 . S
H1273 C1284 0.950 . S
H1274 C1286 0.950 . S
H1275 C1287 0.950 . S
C1276 H1268 0.950 . S
C1276 C1277 1.386 . S
C1276 C1278 1.391 . S
C1277 C1276 1.386 . S
C1277 C1281 1.393 . S
C1278 H1270 0.950 . S
C1278 C1276 1.391 . S
C1278 C1279 1.400 . S
C1279 C1278 1.400 . S
C1279 C1280 1.398 . S
C1279 C1285 1.491 . S
C1280 H1271 0.950 . S
C1280 C1279 1.398 . S
C1280 C1281 1.391 . S
C1281 H1269 0.950 . S
C1281 C1277 1.393 . S
C1281 C1280 1.391 . S
C1282 H1272 0.950 . S
C1282 C1283 1.386 . S
C1282 C1284 1.391 . S
C1283 C1282 1.386 . S
C1283 C1287 1.393 . S
C1284 H1273 0.950 . S
C1284 C1282 1.391 . S
C1284 C1285 1.400 . S
C1285 C1279 1.491 . S
C1285 C1284 1.400 . S
C1285 C1286 1.398 . S
C1286 H1274 0.950 . S
C1286 C1285 1.398 . S
C1286 C1287 1.391 . S
C1287 H1275 0.950 . S
C1287 C1283 1.393 . S
C1287 C1286 1.391 . S
H1288 C1296 0.950 . S
H1289 C1301 0.950 . S
H1290 C1298 0.950 . S
H1291 C1300 0.950 . S
H1292 C1302 0.950 . S
H1293 C1304 0.950 . S
H1294 C1306 0.950 . S
H1295 C1307 0.950 . S
C1296 H1288 0.950 . S
C1296 C1297 1.386 1_556 S
C1296 C1298 1.391 . S
C1297 C1296 1.386 1_554 S
C1297 C1301 1.393 . S
C1298 H1290 0.950 . S
C1298 C1296 1.391 . S
C1298 C1299 1.400 1_556 S
C1299 C1298 1.400 1_554 S
C1299 C1300 1.398 . S
C1299 C1305 1.491 1_554 S
C1300 H1291 0.950 . S
C1300 C1299 1.398 . S
C1300 C1301 1.391 . S
C1301 H1289 0.950 . S
C1301 C1297 1.393 . S
C1301 C1300 1.391 . S
C1302 H1292 0.950 . S
C1302 C1303 1.386 1_554 S
C1302 C1304 1.391 . S
C1303 C1302 1.386 1_556 S
C1303 C1307 1.393 . S
C1304 H1293 0.950 . S
C1304 C1302 1.391 . S
C1304 C1305 1.400 1_554 S
C1305 C1299 1.491 1_556 S
C1305 C1304 1.400 1_556 S
C1305 C1306 1.398 . S
C1306 H1294 0.950 . S
C1306 C1305 1.398 . S
C1306 C1307 1.391 . S
C1307 H1295 0.950 . S
C1307 C1303 1.393 . S
C1307 C1306 1.391 . S
H1308 C1316 0.950 . S
H1309 C1321 0.950 . S
H1310 C1318 0.950 . S
H1311 C1320 0.950 . S
H1312 C1322 0.950 . S
H1313 C1324 0.950 . S
H1314 C1326 0.950 . S
H1315 C1327 0.950 . S
C1316 H1308 0.950 . S
C1316 C1317 1.386 . S
C1316 C1318 1.391 . S
C1317 C1316 1.386 . S
C1317 C1321 1.393 . S
C1318 H1310 0.950 . S
C1318 C1316 1.391 . S
C1318 C1319 1.400 . S
C1319 C1318 1.400 . S
C1319 C1320 1.398 . S
C1319 C1325 1.491 . S
C1320 H1311 0.950 . S
C1320 C1319 1.398 . S
C1320 C1321 1.391 . S
C1321 H1309 0.950 . S
C1321 C1317 1.393 . S
C1321 C1320 1.391 . S
C1322 H1312 0.950 . S
C1322 C1323 1.386 . S
C1322 C1324 1.391 . S
C1323 C1322 1.386 . S
C1323 C1327 1.393 . S
C1324 H1313 0.950 . S
C1324 C1322 1.391 . S
C1324 C1325 1.400 . S
C1325 C1319 1.491 . S
C1325 C1324 1.400 . S
C1325 C1326 1.398 . S
C1326 H1314 0.950 . S
C1326 C1325 1.398 . S
C1326 C1327 1.391 . S
C1327 H1315 0.950 . S
C1327 C1323 1.393 . S
C1327 C1326 1.391 . S
H1328 C1336 0.950 . S
H1329 C1341 0.950 . S
H1330 C1338 0.950 . S
H1331 C1340 0.950 . S
H1332 C1342 0.950 . S
H1333 C1344 0.950 . S
H1334 C1346 0.950 . S
H1335 C1347 0.950 . S
C1336 H1328 0.950 . S
C1336 C1337 1.386 . S
C1336 C1338 1.391 . S
C1337 C1336 1.386 . S
C1337 C1341 1.393 . S
C1338 H1330 0.950 . S
C1338 C1336 1.391 . S
C1338 C1339 1.400 . S
C1339 C1338 1.400 . S
C1339 C1340 1.398 . S
C1339 C1345 1.491 . S
C1340 H1331 0.950 . S
C1340 C1339 1.398 . S
C1340 C1341 1.391 . S
C1341 H1329 0.950 . S
C1341 C1337 1.393 . S
C1341 C1340 1.391 . S
C1342 H1332 0.950 . S
C1342 C1343 1.386 . S
C1342 C1344 1.391 . S
C1343 C1342 1.386 . S
C1343 C1347 1.393 . S
C1344 H1333 0.950 . S
C1344 C1342 1.391 . S
C1344 C1345 1.400 . S
C1345 C1339 1.491 . S
C1345 C1344 1.400 . S
C1345 C1346 1.398 . S
C1346 H1334 0.950 . S
C1346 C1345 1.398 . S
C1346 C1347 1.391 . S
C1347 H1335 0.950 . S
C1347 C1343 1.393 . S
C1347 C1346 1.391 . S
H1348 C1356 0.950 . S
H1349 C1361 0.950 . S
H1350 C1358 0.950 . S
H1351 C1360 0.950 . S
H1352 C1362 0.950 . S
H1353 C1364 0.950 . S
H1354 C1366 0.950 . S
H1355 C1367 0.950 . S
C1356 H1348 0.950 . S
C1356 C1357 1.386 . S
C1356 C1358 1.391 . S
C1357 C1356 1.386 . S
C1357 C1361 1.393 . S
C1358 H1350 0.950 . S
C1358 C1356 1.391 . S
C1358 C1359 1.400 . S
C1359 C1358 1.400 . S
C1359 C1360 1.398 . S
C1359 C1365 1.491 . S
C1360 H1351 0.950 . S
C1360 C1359 1.398 . S
C1360 C1361 1.391 . S
C1361 H1349 0.950 . S
C1361 C1357 1.393 . S
C1361 C1360 1.391 . S
C1362 H1352 0.950 . S
C1362 C1363 1.386 . S
C1362 C1364 1.391 . S
C1363 C1362 1.386 . S
C1363 C1367 1.393 . S
C1364 H1353 0.950 . S
C1364 C1362 1.391 . S
C1364 C1365 1.400 . S
C1365 C1359 1.491 . S
C1365 C1364 1.400 . S
C1365 C1366 1.398 . S
C1366 H1354 0.950 . S
C1366 C1365 1.398 . S
C1366 C1367 1.391 . S
C1367 H1355 0.950 . S
C1367 C1363 1.393 . S
C1367 C1366 1.391 . S
H1368 C1376 0.950 . S
H1369 C1381 0.950 . S
H1370 C1378 0.950 . S
H1371 C1380 0.950 1_554 S
H1372 C1382 0.950 . S
H1373 C1384 0.950 . S
H1374 C1386 0.950 1_556 S
H1375 C1387 0.950 . S
C1376 H1368 0.950 . S
C1376 C1377 1.386 . S
C1376 C1378 1.391 . S
C1377 C1376 1.386 . S
C1377 C1381 1.393 . S
C1378 H1370 0.950 . S
C1378 C1376 1.391 . S
C1378 C1379 1.400 . S
C1379 C1378 1.400 . S
C1379 C1380 1.398 . S
C1379 C1385 1.491 1_556 S
C1380 H1371 0.950 1_556 S
C1380 C1379 1.398 . S
C1380 C1381 1.391 . S
C1381 H1369 0.950 . S
C1381 C1377 1.393 . S
C1381 C1380 1.391 . S
C1382 H1372 0.950 . S
C1382 C1383 1.386 . S
C1382 C1384 1.391 . S
C1383 C1382 1.386 . S
C1383 C1387 1.393 . S
C1384 H1373 0.950 . S
C1384 C1382 1.391 . S
C1384 C1385 1.400 . S
C1385 C1379 1.491 1_554 S
C1385 C1384 1.400 . S
C1385 C1386 1.398 . S
C1386 H1374 0.950 1_554 S
C1386 C1385 1.398 . S
C1386 C1387 1.391 . S
C1387 H1375 0.950 . S
C1387 C1383 1.393 . S
C1387 C1386 1.391 . S
H1388 C1396 0.950 . S
H1389 C1401 0.950 . S
H1390 C1398 0.950 . S
H1391 C1400 0.950 . S
H1392 C1402 0.950 . S
H1393 C1404 0.950 . S
H1394 C1406 0.950 . S
H1395 C1407 0.950 . S
C1396 H1388 0.950 . S
C1396 C1397 1.386 . S
C1396 C1398 1.391 . S
C1397 C1396 1.386 . S
C1397 C1401 1.393 . S
C1398 H1390 0.950 . S
C1398 C1396 1.391 . S
C1398 C1399 1.400 . S
C1399 C1398 1.400 . S
C1399 C1400 1.398 . S
C1399 C1405 1.491 . S
C1400 H1391 0.950 . S
C1400 C1399 1.398 . S
C1400 C1401 1.391 . S
C1401 H1389 0.950 . S
C1401 C1397 1.393 . S
C1401 C1400 1.391 . S
C1402 H1392 0.950 . S
C1402 C1403 1.386 . S
C1402 C1404 1.391 . S
C1403 C1402 1.386 . S
C1403 C1407 1.393 . S
C1404 H1393 0.950 . S
C1404 C1402 1.391 . S
C1404 C1405 1.400 . S
C1405 C1399 1.491 . S
C1405 C1404 1.400 . S
C1405 C1406 1.398 . S
C1406 H1394 0.950 . S
C1406 C1405 1.398 . S
C1406 C1407 1.391 . S
C1407 H1395 0.950 . S
C1407 C1403 1.393 . S
C1407 C1406 1.391 . S
H1408 C1416 0.950 . S
H1409 C1421 0.950 . S
H1410 C1418 0.950 . S
H1411 C1420 0.950 . S
H1412 C1422 0.950 . S
H1413 C1424 0.950 . S
H1414 C1426 0.950 . S
H1415 C1427 0.950 . S
C1416 H1408 0.950 . S
C1416 C1417 1.386 . S
C1416 C1418 1.391 . S
C1417 C1416 1.386 . S
C1417 C1421 1.393 . S
C1418 H1410 0.950 . S
C1418 C1416 1.391 . S
C1418 C1419 1.400 . S
C1419 C1418 1.400 . S
C1419 C1420 1.398 . S
C1419 C1425 1.491 . S
C1420 H1411 0.950 . S
C1420 C1419 1.398 . S
C1420 C1421 1.391 . S
C1421 H1409 0.950 . S
C1421 C1417 1.393 . S
C1421 C1420 1.391 . S
C1422 H1412 0.950 . S
C1422 C1423 1.386 . S
C1422 C1424 1.391 . S
C1423 C1422 1.386 . S
C1423 C1427 1.393 . S
C1424 H1413 0.950 . S
C1424 C1422 1.391 . S
C1424 C1425 1.400 . S
C1425 C1419 1.491 . S
C1425 C1424 1.400 . S
C1425 C1426 1.398 . S
C1426 H1414 0.950 . S
C1426 C1425 1.398 . S
C1426 C1427 1.391 . S
C1427 H1415 0.950 . S
C1427 C1423 1.393 . S
C1427 C1426 1.391 . S
H1428 C1436 0.950 . S
H1429 C1441 0.950 . S
H1430 C1438 0.950 . S
H1431 C1440 0.950 . S
H1432 C1442 0.950 . S
H1433 C1444 0.950 . S
H1434 C1446 0.950 . S
H1435 C1447 0.950 . S
C1436 H1428 0.950 . S
C1436 C1437 1.386 . S
C1436 C1438 1.391 . S
C1437 C1436 1.386 . S
C1437 C1441 1.393 . S
C1438 H1430 0.950 . S
C1438 C1436 1.391 . S
C1438 C1439 1.400 . S
C1439 C1438 1.400 . S
C1439 C1440 1.398 . S
C1439 C1445 1.491 . S
C1440 H1431 0.950 . S
C1440 C1439 1.398 . S
C1440 C1441 1.391 . S
C1441 H1429 0.950 . S
C1441 C1437 1.393 . S
C1441 C1440 1.391 . S
C1442 H1432 0.950 . S
C1442 C1443 1.386 . S
C1442 C1444 1.391 . S
C1443 C1442 1.386 . S
C1443 C1447 1.393 . S
C1444 H1433 0.950 . S
C1444 C1442 1.391 . S
C1444 C1445 1.400 . S
C1445 C1439 1.491 . S
C1445 C1444 1.400 . S
C1445 C1446 1.398 . S
C1446 H1434 0.950 . S
C1446 C1445 1.398 . S
C1446 C1447 1.391 . S
C1447 H1435 0.950 . S
C1447 C1443 1.393 . S
C1447 C1446 1.391 . S
H1448 C1456 0.950 . S
H1449 C1461 0.950 . S
H1450 C1458 0.950 . S
H1451 C1460 0.950 . S
H1452 C1462 0.950 . S
H1453 C1464 0.950 . S
H1454 C1466 0.950 . S
H1455 C1467 0.950 . S
C1456 H1448 0.950 . S
C1456 C1457 1.386 . S
C1456 C1458 1.391 . S
C1457 C1456 1.386 . S
C1457 C1461 1.393 . S
C1458 H1450 0.950 . S
C1458 C1456 1.391 . S
C1458 C1459 1.400 . S
C1459 C1458 1.400 . S
C1459 C1460 1.398 . S
C1459 C1465 1.491 . S
C1460 H1451 0.950 . S
C1460 C1459 1.398 . S
C1460 C1461 1.391 . S
C1461 H1449 0.950 . S
C1461 C1457 1.393 . S
C1461 C1460 1.391 . S
C1462 H1452 0.950 . S
C1462 C1463 1.386 . S
C1462 C1464 1.391 . S
C1463 C1462 1.386 . S
C1463 C1467 1.393 . S
C1464 H1453 0.950 . S
C1464 C1462 1.391 . S
C1464 C1465 1.400 . S
C1465 C1459 1.491 . S
C1465 C1464 1.400 . S
C1465 C1466 1.398 . S
C1466 H1454 0.950 . S
C1466 C1465 1.398 . S
C1466 C1467 1.391 . S
C1467 H1455 0.950 . S
C1467 C1463 1.393 . S
C1467 C1466 1.391 . S
H1468 C1476 0.950 . S
H1469 C1481 0.950 . S
H1470 C1478 0.950 . S
H1471 C1480 0.950 . S
H1472 C1482 0.950 . S
H1473 C1484 0.950 . S
H1474 C1486 0.950 . S
H1475 C1487 0.950 . S
C1476 H1468 0.950 . S
C1476 C1477 1.386 . S
C1476 C1478 1.391 . S
C1477 C1476 1.386 . S
C1477 C1481 1.393 . S
C1478 H1470 0.950 . S
C1478 C1476 1.391 . S
C1478 C1479 1.400 . S
C1479 C1478 1.400 . S
C1479 C1480 1.398 . S
C1479 C1485 1.491 . S
C1480 H1471 0.950 . S
C1480 C1479 1.398 . S
C1480 C1481 1.391 . S
C1481 H1469 0.950 . S
C1481 C1477 1.393 . S
C1481 C1480 1.391 . S
C1482 H1472 0.950 . S
C1482 C1483 1.386 . S
C1482 C1484 1.391 . S
C1483 C1482 1.386 . S
C1483 C1487 1.393 . S
C1484 H1473 0.950 . S
C1484 C1482 1.391 . S
C1484 C1485 1.400 . S
C1485 C1479 1.491 . S
C1485 C1484 1.400 . S
C1485 C1486 1.398 . S
C1486 H1474 0.950 . S
C1486 C1485 1.398 . S
C1486 C1487 1.391 . S
C1487 H1475 0.950 . S
C1487 C1483 1.393 . S
C1487 C1486 1.391 . S
H1488 C1496 0.950 . S
H1489 C1501 0.950 . S
H1490 C1498 0.950 . S
H1491 C1500 0.950 . S
H1492 C1502 0.950 . S
H1493 C1504 0.950 . S
H1494 C1506 0.950 . S
H1495 C1507 0.950 . S
C1496 H1488 0.950 . S
C1496 C1497 1.386 . S
C1496 C1498 1.391 . S
C1497 C1496 1.386 . S
C1497 C1501 1.393 . S
C1498 H1490 0.950 . S
C1498 C1496 1.391 . S
C1498 C1499 1.400 . S
C1499 C1498 1.400 . S
C1499 C1500 1.398 . S
C1499 C1505 1.491 . S
C1500 H1491 0.950 . S
C1500 C1499 1.398 . S
C1500 C1501 1.391 . S
C1501 H1489 0.950 . S
C1501 C1497 1.393 . S
C1501 C1500 1.391 . S
C1502 H1492 0.950 . S
C1502 C1503 1.386 . S
C1502 C1504 1.391 . S
C1503 C1502 1.386 . S
C1503 C1507 1.393 . S
C1504 H1493 0.950 . S
C1504 C1502 1.391 . S
C1504 C1505 1.400 . S
C1505 C1499 1.491 . S
C1505 C1504 1.400 . S
C1505 C1506 1.398 . S
C1506 H1494 0.950 . S
C1506 C1505 1.398 . S
C1506 C1507 1.391 . S
C1507 H1495 0.950 . S
C1507 C1503 1.393 . S
C1507 C1506 1.391 . S
H1508 C1516 0.950 . S
H1509 C1521 0.950 . S
H1510 C1518 0.950 . S
H1511 C1520 0.950 . S
H1512 C1522 0.950 . S
H1513 C1524 0.950 . S
H1514 C1526 0.950 . S
H1515 C1527 0.950 . S
C1516 H1508 0.950 . S
C1516 C1517 1.386 . S
C1516 C1518 1.391 . S
C1517 C1516 1.386 . S
C1517 C1521 1.393 . S
C1518 H1510 0.950 . S
C1518 C1516 1.391 . S
C1518 C1519 1.400 . S
C1519 C1518 1.400 . S
C1519 C1520 1.398 . S
C1519 C1525 1.491 . S
C1520 H1511 0.950 . S
C1520 C1519 1.398 . S
C1520 C1521 1.391 . S
C1521 H1509 0.950 . S
C1521 C1517 1.393 . S
C1521 C1520 1.391 . S
C1522 H1512 0.950 . S
C1522 C1523 1.386 . S
C1522 C1524 1.391 . S
C1523 C1522 1.386 . S
C1523 C1527 1.393 . S
C1524 H1513 0.950 . S
C1524 C1522 1.391 . S
C1524 C1525 1.400 . S
C1525 C1519 1.491 . S
C1525 C1524 1.400 . S
C1525 C1526 1.398 . S
C1526 H1514 0.950 . S
C1526 C1525 1.398 . S
C1526 C1527 1.391 . S
C1527 H1515 0.950 . S
C1527 C1523 1.393 . S
C1527 C1526 1.391 . S
H1528 C1536 0.950 . S
H1529 C1541 0.950 . S
H1530 C1538 0.950 . S
H1531 C1540 0.950 . S
H1532 C1542 0.950 . S
H1533 C1544 0.950 . S
H1534 C1546 0.950 . S
H1535 C1547 0.950 . S
C1536 H1528 0.950 . S
C1536 C1537 1.386 . S
C1536 C1538 1.391 . S
C1537 C1536 1.386 . S
C1537 C1541 1.393 . S
C1538 H1530 0.950 . S
C1538 C1536 1.391 . S
C1538 C1539 1.400 . S
C1539 C1538 1.400 . S
C1539 C1540 1.398 . S
C1539 C1545 1.491 . S
C1540 H1531 0.950 . S
C1540 C1539 1.398 . S
C1540 C1541 1.391 . S
C1541 H1529 0.950 . S
C1541 C1537 1.393 . S
C1541 C1540 1.391 . S
C1542 H1532 0.950 . S
C1542 C1543 1.386 . S
C1542 C1544 1.391 . S
C1543 C1542 1.386 . S
C1543 C1547 1.393 . S
C1544 H1533 0.950 . S
C1544 C1542 1.391 . S
C1544 C1545 1.400 . S
C1545 C1539 1.491 . S
C1545 C1544 1.400 . S
C1545 C1546 1.398 . S
C1546 H1534 0.950 . S
C1546 C1545 1.398 . S
C1546 C1547 1.391 . S
C1547 H1535 0.950 . S
C1547 C1543 1.393 . S
C1547 C1546 1.391 . S
H1548 C1556 0.950 . S
H1549 C1561 0.950 . S
H1550 C1558 0.950 . S
H1551 C1560 0.950 . S
H1552 C1562 0.950 . S
H1553 C1564 0.950 . S
H1554 C1566 0.950 . S
H1555 C1567 0.950 . S
C1556 H1548 0.950 . S
C1556 C1557 1.386 . S
C1556 C1558 1.391 . S
C1557 C1556 1.386 . S
C1557 C1561 1.393 . S
C1558 H1550 0.950 . S
C1558 C1556 1.391 . S
C1558 C1559 1.400 . S
C1559 C1558 1.400 . S
C1559 C1560 1.398 . S
C1559 C1565 1.491 . S
C1560 H1551 0.950 . S
C1560 C1559 1.398 . S
C1560 C1561 1.391 . S
C1561 H1549 0.950 . S
C1561 C1557 1.393 . S
C1561 C1560 1.391 . S
C1562 H1552 0.950 . S
C1562 C1563 1.386 . S
C1562 C1564 1.391 . S
C1563 C1562 1.386 . S
C1563 C1567 1.393 . S
C1564 H1553 0.950 . S
C1564 C1562 1.391 . S
C1564 C1565 1.400 . S
C1565 C1559 1.491 . S
C1565 C1564 1.400 . S
C1565 C1566 1.398 . S
C1566 H1554 0.950 . S
C1566 C1565 1.398 . S
C1566 C1567 1.391 . S
C1567 H1555 0.950 . S
C1567 C1563 1.393 . S
C1567 C1566 1.391 . S
H1568 C1576 0.950 . S
H1569 C1581 0.950 . S
H1570 C1578 0.950 . S
H1571 C1580 0.950 . S
H1572 C1582 0.950 . S
H1573 C1584 0.950 . S
H1574 C1586 0.950 . S
H1575 C1587 0.950 . S
C1576 H1568 0.950 . S
C1576 C1577 1.386 . S
C1576 C1578 1.391 . S
C1577 C1576 1.386 . S
C1577 C1581 1.393 . S
C1578 H1570 0.950 . S
C1578 C1576 1.391 . S
C1578 C1579 1.400 . S
C1579 C1578 1.400 . S
C1579 C1580 1.398 . S
C1579 C1585 1.491 . S
C1580 H1571 0.950 . S
C1580 C1579 1.398 . S
C1580 C1581 1.391 . S
C1581 H1569 0.950 . S
C1581 C1577 1.393 . S
C1581 C1580 1.391 . S
C1582 H1572 0.950 . S
C1582 C1583 1.386 . S
C1582 C1584 1.391 . S
C1583 C1582 1.386 . S
C1583 C1587 1.393 . S
C1584 H1573 0.950 . S
C1584 C1582 1.391 . S
C1584 C1585 1.400 . S
C1585 C1579 1.491 . S
C1585 C1584 1.400 . S
C1585 C1586 1.398 . S
C1586 H1574 0.950 . S
C1586 C1585 1.398 . S
C1586 C1587 1.391 . S
C1587 H1575 0.950 . S
C1587 C1583 1.393 . S
C1587 C1586 1.391 . S
H1588 C1596 0.950 . S
H1589 C1601 0.950 . S
H1590 C1598 0.950 . S
H1591 C1600 0.950 . S
H1592 C1602 0.950 . S
H1593 C1604 0.950 . S
H1594 C1606 0.950 . S
H1595 C1607 0.950 . S
C1596 H1588 0.950 . S
C1596 C1597 1.386 . S
C1596 C1598 1.391 . S
C1597 C1596 1.386 . S
C1597 C1601 1.393 . S
C1598 H1590 0.950 . S
C1598 C1596 1.391 . S
C1598 C1599 1.400 . S
C1599 C1598 1.400 . S
C1599 C1600 1.398 . S
C1599 C1605 1.491 . S
C1600 H1591 0.950 . S
C1600 C1599 1.398 . S
C1600 C1601 1.391 . S
C1601 H1589 0.950 . S
C1601 C1597 1.393 . S
C1601 C1600 1.391 . S
C1602 H1592 0.950 . S
C1602 C1603 1.386 . S
C1602 C1604 1.391 . S
C1603 C1602 1.386 . S
C1603 C1607 1.393 . S
C1604 H1593 0.950 . S
C1604 C1602 1.391 . S
C1604 C1605 1.400 . S
C1605 C1599 1.491 . S
C1605 C1604 1.400 . S
C1605 C1606 1.398 . S
C1606 H1594 0.950 . S
C1606 C1605 1.398 . S
C1606 C1607 1.391 . S
C1607 H1595 0.950 . S
C1607 C1603 1.393 . S
C1607 C1606 1.391 . S
H1608 C1616 0.950 . S
H1609 C1621 0.950 . S
H1610 C1618 0.950 . S
H1611 C1620 0.950 . S
H1612 C1622 0.950 . S
H1613 C1624 0.950 . S
H1614 C1626 0.950 . S
H1615 C1627 0.950 . S
C1616 H1608 0.950 . S
C1616 C1617 1.386 . S
C1616 C1618 1.391 . S
C1617 C1616 1.386 . S
C1617 C1621 1.393 . S
C1618 H1610 0.950 . S
C1618 C1616 1.391 . S
C1618 C1619 1.400 . S
C1619 C1618 1.400 . S
C1619 C1620 1.398 . S
C1619 C1625 1.491 . S
C1620 H1611 0.950 . S
C1620 C1619 1.398 . S
C1620 C1621 1.391 . S
C1621 H1609 0.950 . S
C1621 C1617 1.393 . S
C1621 C1620 1.391 . S
C1622 H1612 0.950 . S
C1622 C1623 1.386 . S
C1622 C1624 1.391 . S
C1623 C1622 1.386 . S
C1623 C1627 1.393 . S
C1624 H1613 0.950 . S
C1624 C1622 1.391 . S
C1624 C1625 1.400 . S
C1625 C1619 1.491 . S
C1625 C1624 1.400 . S
C1625 C1626 1.398 . S
C1626 H1614 0.950 . S
C1626 C1625 1.398 . S
C1626 C1627 1.391 . S
C1627 H1615 0.950 . S
C1627 C1623 1.393 . S
C1627 C1626 1.391 . S
H1628 C1636 0.950 . S
H1629 C1641 0.950 . S
H1630 C1638 0.950 . S
H1631 C1640 0.950 . S
H1632 C1642 0.950 . S
H1633 C1644 0.950 . S
H1634 C1646 0.950 . S
H1635 C1647 0.950 . S
C1636 H1628 0.950 . S
C1636 C1637 1.386 . S
C1636 C1638 1.391 . S
C1637 C1636 1.386 . S
C1637 C1641 1.393 . S
C1638 H1630 0.950 . S
C1638 C1636 1.391 . S
C1638 C1639 1.400 . S
C1639 C1638 1.400 . S
C1639 C1640 1.398 . S
C1639 C1645 1.491 . S
C1640 H1631 0.950 . S
C1640 C1639 1.398 . S
C1640 C1641 1.391 . S
C1641 H1629 0.950 . S
C1641 C1637 1.393 . S
C1641 C1640 1.391 . S
C1642 H1632 0.950 . S
C1642 C1643 1.386 . S
C1642 C1644 1.391 . S
C1643 C1642 1.386 . S
C1643 C1647 1.393 . S
C1644 H1633 0.950 . S
C1644 C1642 1.391 . S
C1644 C1645 1.400 . S
C1645 C1639 1.491 . S
C1645 C1644 1.400 . S
C1645 C1646 1.398 . S
C1646 H1634 0.950 . S
C1646 C1645 1.398 . S
C1646 C1647 1.391 . S
C1647 H1635 0.950 . S
C1647 C1643 1.393 . S
C1647 C1646 1.391 . S
H1648 C1656 0.950 . S
H1649 C1661 0.950 . S
H1650 C1658 0.950 . S
H1651 C1660 0.950 . S
H1652 C1662 0.950 . S
H1653 C1664 0.950 . S
H1654 C1666 0.950 . S
H1655 C1667 0.950 . S
C1656 H1648 0.950 . S
C1656 C1657 1.386 . S
C1656 C1658 1.391 . S
C1657 C1656 1.386 . S
C1657 C1661 1.393 . S
C1658 H1650 0.950 . S
C1658 C1656 1.391 . S
C1658 C1659 1.400 . S
C1659 C1658 1.400 . S
C1659 C1660 1.398 . S
C1659 C1665 1.491 . S
C1660 H1651 0.950 . S
C1660 C1659 1.398 . S
C1660 C1661 1.391 . S
C1661 H1649 0.950 . S
C1661 C1657 1.393 . S
C1661 C1660 1.391 . S
C1662 H1652 0.950 . S
C1662 C1663 1.386 . S
C1662 C1664 1.391 . S
C1663 C1662 1.386 . S
C1663 C1667 1.393 . S
C1664 H1653 0.950 . S
C1664 C1662 1.391 . S
C1664 C1665 1.400 . S
C1665 C1659 1.491 . S
C1665 C1664 1.400 . S
C1665 C1666 1.398 . S
C1666 H1654 0.950 . S
C1666 C1665 1.398 . S
C1666 C1667 1.391 . S
C1667 H1655 0.950 . S
C1667 C1663 1.393 . S
C1667 C1666 1.391 . S
H1668 C1676 0.950 . S
H1669 C1681 0.950 . S
H1670 C1678 0.950 . S
H1671 C1680 0.950 . S
H1672 C1682 0.950 . S
H1673 C1684 0.950 . S
H1674 C1686 0.950 . S
H1675 C1687 0.950 . S
C1676 H1668 0.950 . S
C1676 C1677 1.386 . S
C1676 C1678 1.391 . S
C1677 C1676 1.386 . S
C1677 C1681 1.393 . S
C1678 H1670 0.950 . S
C1678 C1676 1.391 . S
C1678 C1679 1.400 . S
C1679 C1678 1.400 . S
C1679 C1680 1.398 . S
C1679 C1685 1.491 . S
C1680 H1671 0.950 . S
C1680 C1679 1.398 . S
C1680 C1681 1.391 . S
C1681 H1669 0.950 . S
C1681 C1677 1.393 . S
C1681 C1680 1.391 . S
C1682 H1672 0.950 . S
C1682 C1683 1.386 . S
C1682 C1684 1.391 . S
C1683 C1682 1.386 . S
C1683 C1687 1.393 . S
C1684 H1673 0.950 . S
C1684 C1682 1.391 . S
C1684 C1685 1.400 . S
C1685 C1679 1.491 . S
C1685 C1684 1.400 . S
C1685 C1686 1.398 . S
C1686 H1674 0.950 . S
C1686 C1685 1.398 . S
C1686 C1687 1.391 . S
C1687 H1675 0.950 . S
C1687 C1683 1.393 . S
C1687 C1686 1.391 . S
H1688 C1696 0.950 . S
H1689 C1701 0.950 . S
H1690 C1698 0.950 . S
H1691 C1700 0.950 . S
H1692 C1702 0.950 . S
H1693 C1704 0.950 . S
H1694 C1706 0.950 . S
H1695 C1707 0.950 . S
C1696 H1688 0.950 . S
C1696 C1697 1.386 . S
C1696 C1698 1.391 . S
C1697 C1696 1.386 . S
C1697 C1701 1.393 . S
C1698 H1690 0.950 . S
C1698 C1696 1.391 . S
C1698 C1699 1.400 . S
C1699 C1698 1.400 . S
C1699 C1700 1.398 . S
C1699 C1705 1.491 . S
C1700 H1691 0.950 . S
C1700 C1699 1.398 . S
C1700 C1701 1.391 . S
C1701 H1689 0.950 . S
C1701 C1697 1.393 . S
C1701 C1700 1.391 . S
C1702 H1692 0.950 . S
C1702 C1703 1.386 . S
C1702 C1704 1.391 . S
C1703 C1702 1.386 . S
C1703 C1707 1.393 . S
C1704 H1693 0.950 . S
C1704 C1702 1.391 . S
C1704 C1705 1.400 . S
C1705 C1699 1.491 . S
C1705 C1704 1.400 . S
C1705 C1706 1.398 . S
C1706 H1694 0.950 . S
C1706 C1705 1.398 . S
C1706 C1707 1.391 . S
C1707 H1695 0.950 . S
C1707 C1703 1.393 . S
C1707 C1706 1.391 . S
H1708 C1716 0.950 . S
H1709 C1721 0.950 . S
H1710 C1718 0.950 . S
H1711 C1720 0.950 . S
H1712 C1722 0.950 . S
H1713 C1724 0.950 . S
H1714 C1726 0.950 . S
H1715 C1727 0.950 . S
C1716 H1708 0.950 . S
C1716 C1717 1.386 . S
C1716 C1718 1.391 . S
C1717 C1716 1.386 . S
C1717 C1721 1.393 . S
C1718 H1710 0.950 . S
C1718 C1716 1.391 . S
C1718 C1719 1.400 . S
C1719 C1718 1.400 . S
C1719 C1720 1.398 . S
C1719 C1725 1.491 . S
C1720 H1711 0.950 . S
C1720 C1719 1.398 . S
C1720 C1721 1.391 . S
C1721 H1709 0.950 . S
C1721 C1717 1.393 . S
C1721 C1720 1.391 . S
C1722 H1712 0.950 . S
C1722 C1723 1.386 . S
C1722 C1724 1.391 . S
C1723 C1722 1.386 . S
C1723 C1727 1.393 . S
C1724 H1713 0.950 . S
C1724 C1722 1.391 . S
C1724 C1725 1.400 . S
C1725 C1719 1.491 . S
C1725 C1724 1.400 . S
C1725 C1726 1.398 . S
C1726 H1714 0.950 . S
C1726 C1725 1.398 . S
C1726 C1727 1.391 . S
C1727 H1715 0.950 . S
C1727 C1723 1.393 . S
C1727 C1726 1.391 . S
C457 C117 1.237 . S
C463 C5 1.237 . S
C477 C355 1.199 . S
C483 C19 1.199 . S
C497 C145 1.215 . S
C503 C33 1.215 . S
C517 C383 1.238 . S
C523 C47 1.238 . S
C537 C173 1.213 . S
C543 C61 1.213 . S
C557 C75 1.223 . S
C563 C411 1.223 . S
C577 C89 1.239 . S
C583 C201 1.239 . S
C597 C103 1.240 . S
C603 C439 1.240 . S
C617 C243 1.218 . S
C623 C131 1.218 . S
C637 C271 1.193 . S
C643 C159 1.193 . S
C657 C187 1.187 . S
C663 C299 1.187 . S
C677 C215 1.218 . S
C683 C327 1.218 . S
C697 C229 1.191 . S
C703 C341 1.191 . S
C717 C369 1.210 . S
C723 C257 1.210 . S
C737 C285 1.192 . S
C743 C397 1.192 . S
C757 C425 1.208 . S
C763 C313 1.208 . S
C777 C256 1.282 . S
C783 C4 1.271 . S
C797 C270 1.273 . S
C803 C18 1.279 . S
C817 C32 1.274 . S
C823 C228 1.295 . S
C837 C46 1.279 . S
C843 C242 1.295 . S
C857 C312 1.283 . S
C863 C60 1.295 . S
C877 C74 1.277 . S
C883 C326 1.296 . S
C897 C284 1.270 . S
C903 C88 1.284 . S
C917 C298 1.289 . S
C923 C102 1.291 . S
C937 C116 1.270 . S
C943 C368 1.284 . S
C957 C382 1.271 . S
C963 C130 1.283 . S
C977 C144 1.285 . S
C983 C340 1.270 . S
C997 C158 1.287 . S
C1003 C354 1.292 . S
C1017 C172 1.271 . S
C1023 C424 1.292 . S
C1037 C186 1.290 . S
C1043 C438 1.270 . S
C1057 C396 1.294 . S
C1063 C200 1.272 . S
C1077 C410 1.295 . S
C1083 C214 1.280 . S
C1097 C95 1.370 . S
C1103 C11 1.367 . S
C1117 C109 1.378 . S
C1123 C25 1.386 . S
C1137 C67 1.374 . S
C1143 C39 1.384 . S
C1157 C53 1.381 . S
C1163 C81 1.371 . S
C1177 C207 1.386 . S
C1183 C123 1.384 . S
C1197 C221 1.376 . S
C1203 C137 1.385 . S
C1217 C179 1.367 . S
C1223 C151 1.374 . S
C1237 C193 1.369 . S
C1243 C165 1.367 . S
C1257 C319 1.377 . S
C1263 C235 1.368 . S
C1277 C333 1.386 . S
C1283 C249 1.384 . S
C1297 C263 1.382 . S
C1303 C291 1.372 . S
C1317 C277 1.371 . S
C1323 C305 1.367 . S
C1337 C431 1.366 . S
C1343 C347 1.373 . S
C1357 C445 1.376 . S
C1363 C361 1.368 . S
C1377 C375 1.385 . S
C1383 C403 1.385 . S
C1397 C389 1.385 . S
C1403 C417 1.386 . S
C1417 C12 1.516 . S
C1423 C306 1.517 . S
C1437 C320 1.516 . S
C1443 C26 1.515 . S
C1457 C334 1.514 . S
C1463 C40 1.517 . S
C1477 C54 1.514 . S
C1483 C292 1.517 . S
C1497 C278 1.514 . S
C1503 C68 1.517 . S
C1517 C82 1.517 . S
C1523 C236 1.514 . S
C1537 C250 1.515 . S
C1543 C96 1.518 . S
C1557 C110 1.517 . S
C1563 C264 1.514 . S
C1577 C418 1.514 . S
C1583 C124 1.518 . S
C1597 C432 1.517 . S
C1603 C138 1.517 . S
C1617 C152 1.515 . S
C1623 C446 1.518 . S
C1637 C404 1.517 . S
C1643 C166 1.516 . S
C1657 C390 1.515 . S
C1663 C180 1.517 . S
C1677 C194 1.517 . S
C1683 C348 1.514 . S
C1697 C362 1.517 . S
C1703 C208 1.514 . S
C1717 C222 1.517 . S
C1723 C376 1.514 . S
