# Generated by pormake.
# Topology wlh, (5)-cn, num edge types: 1
# Building blocks:
#     Node 0, Type 0, BuildingBlock: BEQFEK_clean_sbu_0, # of connection points: 5
#     Node 1, Type 0, BuildingBlock: BEQFEK_clean_sbu_0, # of connection points: 5
#     Node 2, Type 0, BuildingBlock: BEQFEK_clean_sbu_0, # of connection points: 5
#     Node 3, Type 0, BuildingBlock: BEQFEK_clean_sbu_0, # of connection points: 5
#     Node 4, Type 0, BuildingBlock: BEQFEK_clean_sbu_0, # of connection points: 5
#     Node 5, Type 0, BuildingBlock: BEQFEK_clean_sbu_0, # of connection points: 5
#     Node 6, Type 0, BuildingBlock: BEQFEK_clean_sbu_0, # of connection points: 5
#     Node 7, Type 0, BuildingBlock: BEQFEK_clean_sbu_0, # of connection points: 5
#     Node 8, Type 0, BuildingBlock: BEQFEK_clean_sbu_0, # of connection points: 5
#     Node 9, Type 0, BuildingBlock: BEQFEK_clean_sbu_0, # of connection points: 5
#     Node 10, Type 0, BuildingBlock: BEQFEK_clean_sbu_0, # of connection points: 5
#     Node 11, Type 0, BuildingBlock: BEQFEK_clean_sbu_0, # of connection points: 5
#     Node 12, Type 0, BuildingBlock: BEQFEK_clean_sbu_0, # of connection points: 5
#     Node 13, Type 0, BuildingBlock: BEQFEK_clean_sbu_0, # of connection points: 5
#     Node 14, Type 0, BuildingBlock: BEQFEK_clean_sbu_0, # of connection points: 5
#     Node 15, Type 0, BuildingBlock: BEQFEK_clean_sbu_0, # of connection points: 5
#     Node 16, Type 0, BuildingBlock: BEQFEK_clean_sbu_0, # of connection points: 5
#     Node 17, Type 0, BuildingBlock: BEQFEK_clean_sbu_0, # of connection points: 5
#     Node 18, Type 0, BuildingBlock: BEQFEK_clean_sbu_0, # of connection points: 5
#     Node 19, Type 0, BuildingBlock: BEQFEK_clean_sbu_0, # of connection points: 5
#     Node 20, Type 0, BuildingBlock: BEQFEK_clean_sbu_0, # of connection points: 5
#     Node 21, Type 0, BuildingBlock: BEQFEK_clean_sbu_0, # of connection points: 5
#     Node 22, Type 0, BuildingBlock: BEQFEK_clean_sbu_0, # of connection points: 5
#     Node 23, Type 0, BuildingBlock: BEQFEK_clean_sbu_0, # of connection points: 5
#     Node 24, Type 0, BuildingBlock: BEQFEK_clean_sbu_0, # of connection points: 5
#     Node 25, Type 0, BuildingBlock: BEQFEK_clean_sbu_0, # of connection points: 5
#     Node 26, Type 0, BuildingBlock: BEQFEK_clean_sbu_0, # of connection points: 5
#     Node 27, Type 0, BuildingBlock: BEQFEK_clean_sbu_0, # of connection points: 5
#     Node 28, Type 0, BuildingBlock: BEQFEK_clean_sbu_0, # of connection points: 5
#     Node 29, Type 0, BuildingBlock: BEQFEK_clean_sbu_0, # of connection points: 5
#     Node 30, Type 0, BuildingBlock: BEQFEK_clean_sbu_0, # of connection points: 5
#     Node 31, Type 0, BuildingBlock: BEQFEK_clean_sbu_0, # of connection points: 5
#     Node 32, Type 0, BuildingBlock: BEQFEK_clean_sbu_0, # of connection points: 5
#     Node 33, Type 0, BuildingBlock: BEQFEK_clean_sbu_0, # of connection points: 5
#     Node 34, Type 0, BuildingBlock: BEQFEK_clean_sbu_0, # of connection points: 5
#     Node 35, Type 0, BuildingBlock: BEQFEK_clean_sbu_0, # of connection points: 5
#     Edge 36, Type (0, 0), BuildingBlock: OJICUG_clean_linker_0, # of connection points: 2
#     Edge 37, Type (0, 0), BuildingBlock: OJICUG_clean_linker_0, # of connection points: 2
#     Edge 38, Type (0, 0), BuildingBlock: OJICUG_clean_linker_0, # of connection points: 2
#     Edge 39, Type (0, 0), BuildingBlock: OJICUG_clean_linker_0, # of connection points: 2
#     Edge 40, Type (0, 0), BuildingBlock: OJICUG_clean_linker_0, # of connection points: 2
#     Edge 41, Type (0, 0), BuildingBlock: OJICUG_clean_linker_0, # of connection points: 2
#     Edge 42, Type (0, 0), BuildingBlock: OJICUG_clean_linker_0, # of connection points: 2
#     Edge 43, Type (0, 0), BuildingBlock: OJICUG_clean_linker_0, # of connection points: 2
#     Edge 44, Type (0, 0), BuildingBlock: OJICUG_clean_linker_0, # of connection points: 2
#     Edge 45, Type (0, 0), BuildingBlock: OJICUG_clean_linker_0, # of connection points: 2
#     Edge 46, Type (0, 0), BuildingBlock: OJICUG_clean_linker_0, # of connection points: 2
#     Edge 47, Type (0, 0), BuildingBlock: OJICUG_clean_linker_0, # of connection points: 2
#     Edge 48, Type (0, 0), BuildingBlock: OJICUG_clean_linker_0, # of connection points: 2
#     Edge 49, Type (0, 0), BuildingBlock: OJICUG_clean_linker_0, # of connection points: 2
#     Edge 50, Type (0, 0), BuildingBlock: OJICUG_clean_linker_0, # of connection points: 2
#     Edge 51, Type (0, 0), BuildingBlock: OJICUG_clean_linker_0, # of connection points: 2
#     Edge 52, Type (0, 0), BuildingBlock: OJICUG_clean_linker_0, # of connection points: 2
#     Edge 53, Type (0, 0), BuildingBlock: OJICUG_clean_linker_0, # of connection points: 2
#     Edge 54, Type (0, 0), BuildingBlock: OJICUG_clean_linker_0, # of connection points: 2
#     Edge 55, Type (0, 0), BuildingBlock: OJICUG_clean_linker_0, # of connection points: 2
#     Edge 56, Type (0, 0), BuildingBlock: OJICUG_clean_linker_0, # of connection points: 2
#     Edge 57, Type (0, 0), BuildingBlock: OJICUG_clean_linker_0, # of connection points: 2
#     Edge 58, Type (0, 0), BuildingBlock: OJICUG_clean_linker_0, # of connection points: 2
#     Edge 59, Type (0, 0), BuildingBlock: OJICUG_clean_linker_0, # of connection points: 2
#     Edge 60, Type (0, 0), BuildingBlock: OJICUG_clean_linker_0, # of connection points: 2
#     Edge 61, Type (0, 0), BuildingBlock: OJICUG_clean_linker_0, # of connection points: 2
#     Edge 62, Type (0, 0), BuildingBlock: OJICUG_clean_linker_0, # of connection points: 2
#     Edge 63, Type (0, 0), BuildingBlock: OJICUG_clean_linker_0, # of connection points: 2
#     Edge 64, Type (0, 0), BuildingBlock: OJICUG_clean_linker_0, # of connection points: 2
#     Edge 65, Type (0, 0), BuildingBlock: OJICUG_clean_linker_0, # of connection points: 2
#     Edge 66, Type (0, 0), BuildingBlock: OJICUG_clean_linker_0, # of connection points: 2
#     Edge 67, Type (0, 0), BuildingBlock: OJICUG_clean_linker_0, # of connection points: 2
#     Edge 68, Type (0, 0), BuildingBlock: OJICUG_clean_linker_0, # of connection points: 2
#     Edge 69, Type (0, 0), BuildingBlock: OJICUG_clean_linker_0, # of connection points: 2
#     Edge 70, Type (0, 0), BuildingBlock: OJICUG_clean_linker_0, # of connection points: 2
#     Edge 71, Type (0, 0), BuildingBlock: OJICUG_clean_linker_0, # of connection points: 2
#     Edge 72, Type (0, 0), BuildingBlock: OJICUG_clean_linker_0, # of connection points: 2
#     Edge 73, Type (0, 0), BuildingBlock: OJICUG_clean_linker_0, # of connection points: 2
#     Edge 74, Type (0, 0), BuildingBlock: OJICUG_clean_linker_0, # of connection points: 2
#     Edge 75, Type (0, 0), BuildingBlock: OJICUG_clean_linker_0, # of connection points: 2
#     Edge 76, Type (0, 0), BuildingBlock: OJICUG_clean_linker_0, # of connection points: 2
#     Edge 77, Type (0, 0), BuildingBlock: OJICUG_clean_linker_0, # of connection points: 2
#     Edge 78, Type (0, 0), BuildingBlock: OJICUG_clean_linker_0, # of connection points: 2
#     Edge 79, Type (0, 0), BuildingBlock: OJICUG_clean_linker_0, # of connection points: 2
#     Edge 80, Type (0, 0), BuildingBlock: OJICUG_clean_linker_0, # of connection points: 2
#     Edge 81, Type (0, 0), BuildingBlock: OJICUG_clean_linker_0, # of connection points: 2
#     Edge 82, Type (0, 0), BuildingBlock: OJICUG_clean_linker_0, # of connection points: 2
#     Edge 83, Type (0, 0), BuildingBlock: OJICUG_clean_linker_0, # of connection points: 2
#     Edge 84, Type (0, 0), BuildingBlock: OJICUG_clean_linker_0, # of connection points: 2
#     Edge 85, Type (0, 0), BuildingBlock: OJICUG_clean_linker_0, # of connection points: 2
#     Edge 86, Type (0, 0), BuildingBlock: OJICUG_clean_linker_0, # of connection points: 2
#     Edge 87, Type (0, 0), BuildingBlock: OJICUG_clean_linker_0, # of connection points: 2
#     Edge 88, Type (0, 0), BuildingBlock: OJICUG_clean_linker_0, # of connection points: 2
#     Edge 89, Type (0, 0), BuildingBlock: OJICUG_clean_linker_0, # of connection points: 2
#     Edge 90, Type (0, 0), BuildingBlock: OJICUG_clean_linker_0, # of connection points: 2
#     Edge 91, Type (0, 0), BuildingBlock: OJICUG_clean_linker_0, # of connection points: 2
#     Edge 92, Type (0, 0), BuildingBlock: OJICUG_clean_linker_0, # of connection points: 2
#     Edge 93, Type (0, 0), BuildingBlock: OJICUG_clean_linker_0, # of connection points: 2
#     Edge 94, Type (0, 0), BuildingBlock: OJICUG_clean_linker_0, # of connection points: 2
#     Edge 95, Type (0, 0), BuildingBlock: OJICUG_clean_linker_0, # of connection points: 2
#     Edge 96, Type (0, 0), BuildingBlock: OJICUG_clean_linker_0, # of connection points: 2
#     Edge 97, Type (0, 0), BuildingBlock: OJICUG_clean_linker_0, # of connection points: 2
#     Edge 98, Type (0, 0), BuildingBlock: OJICUG_clean_linker_0, # of connection points: 2
#     Edge 99, Type (0, 0), BuildingBlock: OJICUG_clean_linker_0, # of connection points: 2
#     Edge 100, Type (0, 0), BuildingBlock: OJICUG_clean_linker_0, # of connection points: 2
#     Edge 101, Type (0, 0), BuildingBlock: OJICUG_clean_linker_0, # of connection points: 2
#     Edge 102, Type (0, 0), BuildingBlock: OJICUG_clean_linker_0, # of connection points: 2
#     Edge 103, Type (0, 0), BuildingBlock: OJICUG_clean_linker_0, # of connection points: 2
#     Edge 104, Type (0, 0), BuildingBlock: OJICUG_clean_linker_0, # of connection points: 2
#     Edge 105, Type (0, 0), BuildingBlock: OJICUG_clean_linker_0, # of connection points: 2
#     Edge 106, Type (0, 0), BuildingBlock: OJICUG_clean_linker_0, # of connection points: 2
#     Edge 107, Type (0, 0), BuildingBlock: OJICUG_clean_linker_0, # of connection points: 2
#     Edge 108, Type (0, 0), BuildingBlock: OJICUG_clean_linker_0, # of connection points: 2
#     Edge 109, Type (0, 0), BuildingBlock: OJICUG_clean_linker_0, # of connection points: 2
#     Edge 110, Type (0, 0), BuildingBlock: OJICUG_clean_linker_0, # of connection points: 2
#     Edge 111, Type (0, 0), BuildingBlock: OJICUG_clean_linker_0, # of connection points: 2
#     Edge 112, Type (0, 0), BuildingBlock: OJICUG_clean_linker_0, # of connection points: 2
#     Edge 113, Type (0, 0), BuildingBlock: OJICUG_clean_linker_0, # of connection points: 2
#     Edge 114, Type (0, 0), BuildingBlock: OJICUG_clean_linker_0, # of connection points: 2
#     Edge 115, Type (0, 0), BuildingBlock: OJICUG_clean_linker_0, # of connection points: 2
#     Edge 116, Type (0, 0), BuildingBlock: OJICUG_clean_linker_0, # of connection points: 2
#     Edge 117, Type (0, 0), BuildingBlock: OJICUG_clean_linker_0, # of connection points: 2
#     Edge 118, Type (0, 0), BuildingBlock: OJICUG_clean_linker_0, # of connection points: 2
#     Edge 119, Type (0, 0), BuildingBlock: OJICUG_clean_linker_0, # of connection points: 2
#     Edge 120, Type (0, 0), BuildingBlock: OJICUG_clean_linker_0, # of connection points: 2
#     Edge 121, Type (0, 0), BuildingBlock: OJICUG_clean_linker_0, # of connection points: 2
#     Edge 122, Type (0, 0), BuildingBlock: OJICUG_clean_linker_0, # of connection points: 2
#     Edge 123, Type (0, 0), BuildingBlock: OJICUG_clean_linker_0, # of connection points: 2
#     Edge 124, Type (0, 0), BuildingBlock: OJICUG_clean_linker_0, # of connection points: 2
#     Edge 125, Type (0, 0), BuildingBlock: OJICUG_clean_linker_0, # of connection points: 2
# Relax obj value: 0.222
# Max RMSD: 0.172
# Mean RMSD: 0.172
data_MOF--net-wlh--node1-BEQFEK_clean_sbu_0--edge1-OJICUG_clean_linker_0
_symmetry_space_group_name_H-M    P1
_symmetry_Int_Tables_number       1
_symmetry_cell_setting            triclinic
loop_
_symmetry_equiv_pos_as_xyz
'x, y, z'
_cell_length_a     33.889548
_cell_length_b     33.891726
_cell_length_c     99.927598
_cell_angle_alpha  89.996998
_cell_angle_beta   89.999623
_cell_angle_gamma 120.00621
loop_
_atom_site_label
_atom_site_type_symbol
_atom_site_fract_x
_atom_site_fract_y
_atom_site_fract_z
_atom_type_partial_charge
Co0 Co 0.09011 0.19055 0.20332 0.0
Co1 Co 0.05432 0.25923 0.19818 0.0
C2 C 0.00231 0.16449 0.18864 0.0
O3 O 0.03331 0.15773 0.19323 0.0
O4 O 0.00488 0.20317 0.18955 0.0
C5 C 0.1167 0.13513 0.19021 0.0
O6 O 0.09843 0.14591 0.18029 0.0
C7 C 0.02845 0.31994 0.18435 0.0
C8 C 0.0527 0.37726 0.19862 0.0
C9 C 0.03308 0.36276 0.18612 0.0
N10 N 0.04562 0.3102 0.19517 0.0
N11 N 0.05972 0.34446 0.2037 0.0
C12 C 0.00572 0.28743 0.173 0.0
H13 H 0.9815 0.25324 0.17702 0.0
H14 H 0.03167 0.28433 0.16705 0.0
H15 H 0.98663 0.29835 0.16641 0.0
C16 C 0.17296 0.26497 0.19121 0.0
N17 N 0.12999 0.24766 0.19573 0.0
N18 N 0.11434 0.27476 0.19231 0.0
C19 C 0.14668 0.30955 0.18501 0.0
C20 C 0.18483 0.30441 0.18409 0.0
C21 C 0.2008 0.24212 0.19274 0.0
H22 H 0.19206 0.22254 0.20221 0.0
H23 H 0.194 0.21881 0.18416 0.0
H24 H 0.23775 0.26711 0.19281 0.0
O25 O 0.06948 0.19507 0.22157 0.0
O26 O 0.04481 0.24393 0.21768 0.0
H27 H 0.13362 0.36482 0.18681 0.0
H28 H 0.17246 0.37177 0.17349 0.0
C29 C 0.1412 0.34677 0.17887 0.0
H30 H 0.11218 0.33181 0.17178 0.0
H31 H 0.07493 0.3458 0.2129 0.0
O32 O 0.11741 0.15067 0.20188 0.0
C33 C 0.0502 0.21719 0.22552 0.0
Co34 Co 0.80424 0.90127 0.20488 0.0
Co35 Co 0.73557 0.79666 0.19988 0.0
C36 C 0.82954 0.83891 0.19001 0.0
O37 O 0.83627 0.87665 0.19463 0.0
O38 O 0.79102 0.80261 0.19105 0.0
C39 C 0.8588 0.9828 0.19138 0.0
O40 O 0.84706 0.95326 0.18156 0.0
C41 C 0.67725 0.70751 0.18725 0.0
C42 C 0.61343 0.68131 0.19885 0.0
C43 C 0.63286 0.67152 0.18811 0.0
N44 N 0.68384 0.73744 0.19701 0.0
N45 N 0.64569 0.72136 0.20399 0.0
C46 C 0.71159 0.71546 0.17663 0.0
H47 H 0.7283 0.75143 0.17324 0.0
H48 H 0.69571 0.69255 0.16792 0.0
H49 H 0.73826 0.70933 0.18091 0.0
C50 C 0.72958 0.90922 0.19279 0.0
N51 N 0.74687 0.88378 0.1975 0.0
N52 N 0.72049 0.84114 0.19387 0.0
C53 C 0.6866 0.83861 0.18613 0.0
C54 C 0.69118 0.88166 0.18526 0.0
C55 C 0.75176 0.95982 0.19443 0.0
H56 H 0.77184 0.97082 0.20381 0.0
H57 H 0.77441 0.97682 0.18576 0.0
H58 H 0.72608 0.97091 0.19475 0.0
O59 O 0.80066 0.8764 0.2231 0.0
O60 O 0.75175 0.80276 0.21935 0.0
H61 H 0.63155 0.80352 0.17189 0.0
H62 H 0.66821 0.77936 0.17421 0.0
C63 C 0.65147 0.79622 0.17928 0.0
H64 H 0.62758 0.77243 0.18687 0.0
H65 H 0.64123 0.73846 0.21201 0.0
O66 O 0.8442 0.96851 0.20317 0.0
C67 C 0.77888 0.83501 0.22708 0.0
Co68 Co 0.09445 0.90532 0.20425 0.0
Co69 Co 0.19785 0.94004 0.19766 0.0
C70 C 0.15613 0.99256 0.18875 0.0
O71 O 0.11921 0.96232 0.19404 0.0
O72 O 0.19224 0.98976 0.18897 0.0
C73 C 0.01196 0.87897 0.1915 0.0
O74 O 0.04074 0.89704 0.18151 0.0
C75 C 0.28844 0.97123 0.18565 0.0
C76 C 0.30707 0.92341 0.19484 0.0
C77 C 0.32167 0.95867 0.18571 0.0
N78 N 0.25566 0.9446 0.19438 0.0
N79 N 0.26721 0.91634 0.1999 0.0
C80 C 0.28526 0.00451 0.1765 0.0
H81 H 0.2507 0.98853 0.17203 0.0
H82 H 0.31089 0.01597 0.16836 0.0
H83 H 0.29042 0.03446 0.1824 0.0
C84 C 0.08295 0.82366 0.19104 0.0
N85 N 0.11015 0.86524 0.19623 0.0
N86 N 0.15175 0.88138 0.19169 0.0
C87 C 0.15183 0.85121 0.18285 0.0
C88 C 0.108 0.81364 0.1821 0.0
C89 C 0.03402 0.79347 0.19486 0.0
H90 H 0.02788 0.80156 0.20514 0.0
H91 H 0.01172 0.79859 0.18782 0.0
H92 H 0.02475 0.75711 0.19434 0.0
O93 O 0.12106 0.92586 0.22224 0.0
O94 O 0.194 0.95112 0.21727 0.0
H95 H 0.21372 0.85059 0.1795 0.0
H96 H 0.18024 0.84145 0.16461 0.0
C97 C 0.19155 0.86079 0.17413 0.0
H98 H 0.21174 0.8977 0.17187 0.0
H99 H 0.24711 0.89123 0.20684 0.0
O100 O 0.02716 0.87829 0.20313 0.0
C101 C 0.16308 0.946 0.22557 0.0
Co102 Co 0.19581 0.09726 0.29589 0.0
Co103 Co 0.26426 0.06114 0.30113 0.0
C104 C 0.17027 0.00994 0.31101 0.0
O105 O 0.16368 0.0409 0.30627 0.0
O106 O 0.20873 0.01199 0.31004 0.0
C107 C 0.14143 0.1248 0.30922 0.0
O108 O 0.1533 0.10738 0.31911 0.0
C109 C 0.32275 0.03076 0.31397 0.0
C110 C 0.38627 0.06759 0.3022 0.0
C111 C 0.36708 0.03899 0.31307 0.0
N112 N 0.31596 0.05361 0.30408 0.0
N113 N 0.35395 0.07521 0.29701 0.0
C114 C 0.28864 0.00499 0.3247 0.0
H115 H 0.2716 0.02416 0.32786 0.0
H116 H 0.30484 0.99895 0.33351 0.0
H117 H 0.26219 0.9717 0.32062 0.0
C118 C 0.27056 0.18006 0.30787 0.0
N119 N 0.25322 0.13724 0.30324 0.0
N120 N 0.27949 0.12096 0.30696 0.0
C121 C 0.31336 0.15242 0.3147 0.0
C122 C 0.30886 0.19096 0.31547 0.0
C123 C 0.24847 0.20853 0.30613 0.0
H124 H 0.22833 0.19921 0.29676 0.0
H125 H 0.22591 0.2032 0.3148 0.0
H126 H 0.27422 0.24526 0.30572 0.0
O127 O 0.19923 0.07531 0.27775 0.0
O128 O 0.24792 0.05042 0.28166 0.0
H129 H 0.37196 0.14454 0.31408 0.0
H130 H 0.36858 0.17275 0.32889 0.0
C131 C 0.34834 0.14516 0.32163 0.0
H132 H 0.33142 0.11186 0.32687 0.0
H133 H 0.35825 0.09633 0.28888 0.0
O134 O 0.15591 0.12467 0.29745 0.0
C135 C 0.22081 0.05539 0.27387 0.0
Co136 Co 0.90944 0.10092 0.29768 0.0
Co137 Co 0.94512 0.20557 0.30249 0.0
C138 C 0.99772 0.16288 0.3119 0.0
O139 O 0.96631 0.12473 0.30769 0.0
O140 O 0.99522 0.19896 0.31072 0.0
C141 C 0.88295 0.01919 0.31088 0.0
O142 O 0.90136 0.04841 0.32076 0.0
C143 C 0.96922 0.29197 0.31649 0.0
C144 C 0.95092 0.32719 0.3012 0.0
C145 C 0.9668 0.33117 0.31418 0.0
N146 N 0.95444 0.2656 0.30547 0.0
N147 N 0.94378 0.28704 0.29637 0.0
C148 C 0.98752 0.28096 0.3287 0.0
H149 H 0.99962 0.25697 0.32631 0.0
H150 H 0.96027 0.26482 0.33633 0.0
H151 H 0.01597 0.31248 0.33308 0.0
C152 C 0.8267 0.09261 0.30983 0.0
N153 N 0.86966 0.11826 0.30529 0.0
N154 N 0.88509 0.16115 0.30851 0.0
C155 C 0.85249 0.1637 0.31565 0.0
C156 C 0.81456 0.12034 0.31674 0.0
C157 C 0.79902 0.04184 0.30846 0.0
H158 H 0.80755 0.03077 0.299 0.0
H159 H 0.8062 0.02572 0.31706 0.0
H160 H 0.76203 0.02966 0.30846 0.0
O161 O 0.92982 0.12579 0.27939 0.0
O162 O 0.95373 0.19936 0.28295 0.0
H163 H 0.86769 0.23268 0.31345 0.0
H164 H 0.82481 0.20074 0.32589 0.0
C165 C 0.85726 0.20658 0.32141 0.0
H166 H 0.88399 0.21964 0.32922 0.0
H167 H 0.93108 0.27396 0.28688 0.0
O168 O 0.88212 0.03382 0.29919 0.0
C169 C 0.94853 0.16698 0.27526 0.0
Co170 Co 0.90493 0.81199 0.29687 0.0
Co171 Co 0.80154 0.74316 0.3035 0.0
C172 C 0.84332 0.83733 0.31247 0.0
O173 O 0.88022 0.84409 0.30715 0.0
O174 O 0.80722 0.79842 0.31222 0.0
C175 C 0.98753 0.86819 0.30958 0.0
O176 O 0.95882 0.85756 0.31959 0.0
C177 C 0.71142 0.68396 0.31577 0.0
C178 C 0.69206 0.61748 0.30647 0.0
C179 C 0.67804 0.63822 0.31575 0.0
N180 N 0.74375 0.68999 0.30688 0.0
N181 N 0.73177 0.65018 0.30129 0.0
C182 C 0.71522 0.72043 0.32502 0.0
H183 H 0.75 0.7389 0.32935 0.0
H184 H 0.69002 0.70629 0.33328 0.0
H185 H 0.70983 0.7453 0.31924 0.0
C186 C 0.91656 0.74182 0.30996 0.0
N187 N 0.88928 0.75617 0.30483 0.0
N188 N 0.84772 0.73062 0.30939 0.0
C189 C 0.84777 0.70036 0.3182 0.0
C190 C 0.89165 0.70673 0.3189 0.0
C191 C 0.96547 0.76065 0.3061 0.0
H192 H 0.97152 0.77494 0.29583 0.0
H193 H 0.9878 0.78803 0.31314 0.0
H194 H 0.9748 0.73359 0.30658 0.0
O195 O 0.87816 0.80594 0.27891 0.0
O196 O 0.80523 0.75809 0.28388 0.0
H197 H 0.78573 0.63797 0.32151 0.0
H198 H 0.81954 0.66168 0.33638 0.0
C199 C 0.80816 0.67011 0.32694 0.0
H200 H 0.78821 0.68696 0.32936 0.0
H201 H 0.75147 0.64508 0.29423 0.0
O202 O 0.97224 0.85228 0.29797 0.0
C203 C 0.83614 0.78398 0.27559 0.0
Co204 Co 0.90527 0.80847 0.79599 0.0
Co205 Co 0.94068 0.74037 0.80236 0.0
C206 C 0.99353 0.83499 0.811 0.0
O207 O 0.96285 0.84137 0.8059 0.0
O208 O 0.99082 0.79614 0.81077 0.0
C209 C 0.87913 0.86402 0.80898 0.0
O210 O 0.89735 0.85294 0.81885 0.0
C211 C 0.97241 0.68194 0.81462 0.0
C212 C 0.92675 0.61556 0.80503 0.0
C213 C 0.96103 0.63648 0.81444 0.0
N214 N 0.9461 0.68766 0.80566 0.0
N215 N 0.91911 0.64792 0.79991 0.0
C216 C 0.00413 0.71831 0.82406 0.0
H217 H 0.98764 0.73712 0.82801 0.0
H218 H 0.0139 0.70398 0.83258 0.0
H219 H 0.03524 0.7429 0.81855 0.0
C220 C 0.82426 0.7383 0.80944 0.0
N221 N 0.86574 0.75284 0.80416 0.0
N222 N 0.88213 0.7275 0.80861 0.0
C223 C 0.85222 0.69716 0.81748 0.0
C224 C 0.81458 0.7033 0.81837 0.0
C225 C 0.79373 0.75669 0.80566 0.0
H226 H 0.80159 0.77089 0.79538 0.0
H227 H 0.79871 0.78405 0.8127 0.0
H228 H 0.75745 0.7294 0.80622 0.0
O229 O 0.9248 0.80207 0.77792 0.0
O230 O 0.95066 0.75473 0.78269 0.0
H231 H 0.85276 0.63509 0.82047 0.0
H232 H 0.84211 0.65774 0.83549 0.0
C233 C 0.86199 0.66685 0.82605 0.0
H234 H 0.89881 0.684 0.82848 0.0
H235 H 0.89449 0.64262 0.79276 0.0
O236 O 0.87815 0.84849 0.79729 0.0
C237 C 0.94493 0.78031 0.77446 0.0
Co238 Co 0.19324 0.09917 0.79656 0.0
Co239 Co 0.26145 0.203 0.80274 0.0
C240 C 0.16669 0.16045 0.81161 0.0
O241 O 0.16023 0.1234 0.80651 0.0
O242 O 0.20554 0.19659 0.81131 0.0
C243 C 0.13705 0.017 0.80937 0.0
O244 O 0.14773 0.04595 0.81931 0.0
C245 C 0.32127 0.29037 0.81635 0.0
C246 C 0.38284 0.31901 0.80361 0.0
C247 C 0.36545 0.32684 0.8152 0.0
N248 N 0.31333 0.2618 0.80604 0.0
N249 N 0.35016 0.27931 0.79843 0.0
C250 C 0.2861 0.28369 0.82656 0.0
H251 H 0.25451 0.27731 0.82139 0.0
H252 H 0.2776 0.25324 0.83273 0.0
H253 H 0.29767 0.31386 0.83312 0.0
C254 C 0.26406 0.08872 0.8098 0.0
N255 N 0.2491 0.1155 0.80465 0.0
N256 N 0.27535 0.15758 0.80875 0.0
C257 C 0.30707 0.15845 0.81716 0.0
C258 C 0.30053 0.11454 0.8182 0.0
C259 C 0.24446 0.03928 0.8065 0.0
H260 H 0.2292 0.03195 0.79634 0.0
H261 H 0.21776 0.01816 0.81388 0.0
H262 H 0.2713 0.02965 0.80696 0.0
O263 O 0.19944 0.12526 0.77849 0.0
O264 O 0.2468 0.1986 0.7831 0.0
H265 H 0.36618 0.22458 0.81827 0.0
H266 H 0.35635 0.19058 0.83315 0.0
C267 C 0.33968 0.1994 0.82507 0.0
H268 H 0.32127 0.21543 0.82957 0.0
H269 H 0.35329 0.26368 0.78982 0.0
O270 O 0.15314 0.03193 0.79775 0.0
C271 C 0.2211 0.16708 0.77494 0.0
Co272 Co 0.9031 0.09498 0.796 0.0
Co273 Co 0.79945 0.0603 0.80205 0.0
C274 C 0.84078 0.00727 0.81106 0.0
O275 O 0.8781 0.03775 0.80604 0.0
O276 O 0.80477 0.0102 0.81062 0.0
C277 C 0.98466 0.12093 0.80913 0.0
O278 O 0.95525 0.10282 0.81897 0.0
C279 C 0.70956 0.029 0.81433 0.0
C280 C 0.68809 0.07357 0.80442 0.0
C281 C 0.67523 0.03999 0.81404 0.0
N282 N 0.74128 0.05485 0.80525 0.0
N283 N 0.72808 0.08118 0.7993 0.0
C284 C 0.71472 0.99811 0.82399 0.0
H285 H 0.75005 0.01521 0.82793 0.0
H286 H 0.69061 0.98853 0.8325 0.0
H287 H 0.70859 0.96683 0.81865 0.0
C288 C 0.91403 0.17652 0.80915 0.0
N289 N 0.88709 0.13489 0.80395 0.0
N290 N 0.84516 0.11899 0.80819 0.0
C291 C 0.84457 0.14946 0.8168 0.0
C292 C 0.88844 0.18685 0.81776 0.0
C293 C 0.96331 0.20651 0.80568 0.0
H294 H 0.97034 0.19835 0.79551 0.0
H295 H 0.98485 0.20133 0.813 0.0
H296 H 0.97271 0.24292 0.80609 0.0
O297 O 0.87723 0.07486 0.77792 0.0
O298 O 0.80403 0.04987 0.78246 0.0
H299 H 0.78159 0.14872 0.81907 0.0
H300 H 0.81445 0.16176 0.83426 0.0
C301 C 0.80412 0.14056 0.82507 0.0
H302 H 0.78462 0.1041 0.82792 0.0
H303 H 0.7471 0.10536 0.79201 0.0
O304 O 0.97025 0.12185 0.7974 0.0
C305 C 0.83543 0.05502 0.77435 0.0
Co306 Co 0.80875 0.90532 0.70469 0.0
Co307 Co 0.7403 0.9403 0.69837 0.0
C308 C 0.83482 0.99358 0.68973 0.0
O309 O 0.84135 0.963 0.69482 0.0
O310 O 0.79585 0.99064 0.68993 0.0
C311 C 0.86434 0.87962 0.69153 0.0
O312 O 0.85313 0.89795 0.68173 0.0
C313 C 0.68135 0.97163 0.6863 0.0
C314 C 0.61514 0.92553 0.69592 0.0
C315 C 0.63581 0.95997 0.68654 0.0
N316 N 0.68736 0.94534 0.69519 0.0
N317 N 0.64772 0.9181 0.70096 0.0
C318 C 0.71753 0.00359 0.67685 0.0
H319 H 0.73638 0.98727 0.67281 0.0
H320 H 0.70302 0.01343 0.6684 0.0
H321 H 0.74214 0.03463 0.68239 0.0
C322 C 0.73864 0.8241 0.69132 0.0
N323 N 0.75312 0.86562 0.69656 0.0
N324 N 0.72761 0.88183 0.69213 0.0
C325 C 0.69719 0.85175 0.6833 0.0
C326 C 0.70346 0.81419 0.68243 0.0
C327 C 0.75722 0.79374 0.6951 0.0
H328 H 0.77154 0.80177 0.70537 0.0
H329 H 0.78454 0.79874 0.68804 0.0
H330 H 0.73001 0.75742 0.69459 0.0
O331 O 0.80244 0.92474 0.72278 0.0
O332 O 0.75499 0.95045 0.71801 0.0
H333 H 0.6348 0.85171 0.68037 0.0
H334 H 0.65762 0.84147 0.66532 0.0
C335 C 0.6666 0.86126 0.67477 0.0
H336 H 0.68347 0.89808 0.67237 0.0
H337 H 0.64265 0.89343 0.70807 0.0
O338 O 0.84896 0.87847 0.70326 0.0
C339 C 0.78068 0.94488 0.72624 0.0
Co340 Co 0.09445 0.90194 0.70443 0.0
Co341 Co 0.05885 0.7981 0.69836 0.0
C342 C 0.00704 0.84058 0.68918 0.0
O343 O 0.03749 0.87764 0.69432 0.0
O344 O 0.0097 0.80444 0.68957 0.0
C345 C 0.12079 0.98383 0.69142 0.0
O346 O 0.10265 0.95466 0.68152 0.0
C347 C 0.03098 0.7105 0.68498 0.0
C348 C 0.06399 0.68202 0.69775 0.0
C349 C 0.03853 0.67397 0.6862 0.0
N350 N 0.05191 0.73931 0.69521 0.0
N351 N 0.07129 0.72192 0.70284 0.0
C352 C 0.00235 0.71703 0.67478 0.0
H353 H 0.97684 0.72291 0.67998 0.0
H354 H 0.02412 0.74774 0.66869 0.0
H355 H 0.98403 0.687 0.66816 0.0
C356 C 0.17598 0.91212 0.69142 0.0
N357 N 0.13415 0.88544 0.69653 0.0
N358 N 0.11827 0.84334 0.69245 0.0
C359 C 0.14914 0.84235 0.68408 0.0
C360 C 0.18659 0.8862 0.68305 0.0
C361 C 0.20585 0.96158 0.69469 0.0
H362 H 0.19779 0.96904 0.70482 0.0
H363 H 0.20045 0.98267 0.68726 0.0
H364 H 0.24231 0.97112 0.69429 0.0
O365 O 0.07391 0.876 0.72251 0.0
O366 O 0.04806 0.80268 0.71792 0.0
H367 H 0.14215 0.77625 0.68293 0.0
H368 H 0.16593 0.81019 0.66802 0.0
C369 C 0.14063 0.80138 0.67615 0.0
H370 H 0.10607 0.78528 0.67173 0.0
H371 H 0.09026 0.73776 0.71141 0.0
O372 O 0.1217 0.96915 0.7031 0.0
C373 C 0.05361 0.83417 0.72605 0.0
Co374 Co 0.09876 0.19239 0.70477 0.0
Co375 Co 0.20238 0.2604 0.69829 0.0
C376 C 0.15974 0.1658 0.68947 0.0
O377 O 0.12291 0.15941 0.69472 0.0
O378 O 0.19589 0.20464 0.68965 0.0
C379 C 0.01673 0.13689 0.69188 0.0
O380 O 0.04584 0.14811 0.68196 0.0
C381 C 0.28973 0.32014 0.68466 0.0
C382 C 0.31787 0.3822 0.69717 0.0
C383 C 0.32599 0.36447 0.6857 0.0
N384 N 0.26102 0.31241 0.69491 0.0
N385 N 0.27822 0.34954 0.70238 0.0
C386 C 0.28339 0.28469 0.67459 0.0
H387 H 0.27732 0.25341 0.6799 0.0
H388 H 0.25287 0.27565 0.6684 0.0
H389 H 0.3136 0.29626 0.66804 0.0
C390 C 0.08798 0.26315 0.6917 0.0
N391 N 0.11496 0.24829 0.69674 0.0
N392 N 0.15677 0.27413 0.69239 0.0
C393 C 0.1572 0.30533 0.68384 0.0
C394 C 0.1133 0.29898 0.68303 0.0
C395 C 0.03894 0.24421 0.69542 0.0
H396 H 0.03248 0.22943 0.70563 0.0
H397 H 0.01685 0.2172 0.68824 0.0
H398 H 0.02967 0.27132 0.69502 0.0
O399 O 0.12511 0.19857 0.72278 0.0
O400 O 0.19833 0.24567 0.71795 0.0
H401 H 0.22273 0.36491 0.68205 0.0
H402 H 0.18808 0.35186 0.66717 0.0
C403 C 0.19762 0.337 0.67559 0.0
H404 H 0.21404 0.31838 0.67152 0.0
H405 H 0.26241 0.35288 0.71093 0.0
O406 O 0.0315 0.15238 0.70357 0.0
C407 C 0.16706 0.22015 0.7262 0.0
Co408 Co 0.76113 0.52224 0.53764 0.0
Co409 Co 0.72619 0.59083 0.53128 0.0
C410 C 0.67359 0.49664 0.52234 0.0
O411 O 0.70397 0.49 0.52753 0.0
O412 O 0.67638 0.53553 0.52263 0.0
C413 C 0.78768 0.46716 0.52447 0.0
O414 O 0.76956 0.47846 0.51463 0.0
C415 C 0.69535 0.64992 0.51898 0.0
C416 C 0.74127 0.7161 0.52863 0.0
C417 C 0.70726 0.69552 0.51912 0.0
N418 N 0.72116 0.64379 0.52802 0.0
N419 N 0.74828 0.68341 0.53382 0.0
C420 C 0.66368 0.61377 0.50947 0.0
H421 H 0.68032 0.59526 0.5054 0.0
H422 H 0.6537 0.62824 0.50104 0.0
H423 H 0.63269 0.58885 0.51497 0.0
C424 C 0.84275 0.59286 0.52461 0.0
N425 N 0.80104 0.57821 0.52973 0.0
N426 N 0.78489 0.60371 0.52524 0.0
C427 C 0.81521 0.63428 0.51649 0.0
C428 C 0.85284 0.62812 0.51575 0.0
C429 C 0.87306 0.5743 0.52846 0.0
H430 H 0.86468 0.55968 0.53869 0.0
H431 H 0.86844 0.54722 0.52135 0.0
H432 H 0.90937 0.60159 0.52807 0.0
O433 O 0.74089 0.52797 0.55569 0.0
O434 O 0.71548 0.57568 0.55089 0.0
H435 H 0.81489 0.69647 0.51353 0.0
H436 H 0.82619 0.67419 0.49854 0.0
C437 C 0.80587 0.66485 0.5079 0.0
H438 H 0.76917 0.64779 0.50533 0.0
H439 H 0.77264 0.68843 0.54102 0.0
O440 O 0.78829 0.4822 0.53621 0.0
C441 C 0.72076 0.54978 0.55912 0.0
Co442 Co 0.47594 0.23328 0.53753 0.0
Co443 Co 0.40803 0.1297 0.53122 0.0
C444 C 0.50245 0.17203 0.52231 0.0
O445 O 0.50886 0.2089 0.52754 0.0
O446 O 0.46359 0.13589 0.5225 0.0
C447 C 0.531 0.31486 0.52445 0.0
O448 O 0.51977 0.28551 0.5146 0.0
C449 C 0.34782 0.04172 0.51797 0.0
C450 C 0.28597 0.01461 0.53055 0.0
C451 C 0.30343 0.00569 0.51916 0.0
N452 N 0.35584 0.07108 0.52806 0.0
N453 N 0.31882 0.0545 0.53557 0.0
C454 C 0.38304 0.04727 0.50793 0.0
H455 H 0.4146 0.05416 0.51323 0.0
H456 H 0.39158 0.07702 0.50143 0.0
H457 H 0.37144 0.01639 0.50167 0.0
C458 C 0.40511 0.24388 0.52445 0.0
N459 N 0.41998 0.21697 0.52954 0.0
N460 N 0.39421 0.17514 0.52521 0.0
C461 C 0.36306 0.17461 0.51663 0.0
C462 C 0.36936 0.21848 0.51576 0.0
C463 C 0.42392 0.29292 0.52815 0.0
H464 H 0.43874 0.29946 0.53836 0.0
H465 H 0.45084 0.31505 0.52096 0.0
H466 H 0.3967 0.30204 0.52776 0.0
O467 O 0.47006 0.20752 0.5556 0.0
O468 O 0.42317 0.13422 0.55085 0.0
H469 H 0.30325 0.10927 0.51482 0.0
H470 H 0.31705 0.14365 0.49986 0.0
C471 C 0.33148 0.1341 0.50839 0.0
H472 H 0.35002 0.11735 0.50449 0.0
H473 H 0.31573 0.07089 0.54401 0.0
O474 O 0.51577 0.3004 0.53618 0.0
C475 C 0.44866 0.16563 0.55907 0.0
Co476 Co 0.76671 0.23874 0.53735 0.0
Co477 Co 0.87138 0.27486 0.53229 0.0
C478 C 0.82814 0.32548 0.52213 0.0
O479 O 0.79055 0.29471 0.52688 0.0
O480 O 0.86444 0.3233 0.52316 0.0
C481 C 0.68458 0.21135 0.52412 0.0
O482 O 0.71362 0.22913 0.51418 0.0
C483 C 0.95818 0.30096 0.51863 0.0
C484 C 0.99151 0.27735 0.53302 0.0
C485 C 0.99659 0.29678 0.52049 0.0
N486 N 0.93119 0.28375 0.52944 0.0
N487 N 0.95149 0.27003 0.53803 0.0
C488 C 0.94823 0.32345 0.50725 0.0
H489 H 0.94019 0.3491 0.51127 0.0
H490 H 0.91782 0.29771 0.50171 0.0
H491 H 0.97747 0.34095 0.50031 0.0
C492 C 0.75885 0.15552 0.52572 0.0
N493 N 0.78433 0.19861 0.53016 0.0
N494 N 0.8271 0.21438 0.52674 0.0
C495 C 0.82974 0.18202 0.51952 0.0
C496 C 0.78655 0.1437 0.51865 0.0
C497 C 0.70812 0.12761 0.52718 0.0
H498 H 0.69704 0.1367 0.53654 0.0
H499 H 0.69174 0.13395 0.51848 0.0
H500 H 0.69635 0.09071 0.52743 0.0
O501 O 0.79191 0.26109 0.55551 0.0
O502 O 0.86553 0.286 0.55166 0.0
H503 H 0.89832 0.19574 0.52119 0.0
H504 H 0.86635 0.1566 0.50793 0.0
C505 C 0.87246 0.18784 0.51329 0.0
H506 H 0.88614 0.21678 0.50618 0.0
H507 H 0.93762 0.2549 0.54724 0.0
O508 O 0.69944 0.21119 0.53583 0.0
C509 C 0.8334 0.28108 0.55941 0.0
Co510 Co 0.85862 0.42795 0.6303 0.0
Co511 Co 0.92747 0.39237 0.63561 0.0
C512 C 0.8332 0.34019 0.64517 0.0
O513 O 0.82644 0.37109 0.64047 0.0
O514 O 0.87187 0.34264 0.64432 0.0
C515 C 0.80256 0.45423 0.64336 0.0
O516 O 0.81312 0.4359 0.65331 0.0
C517 C 0.98624 0.36182 0.64819 0.0
C518 C 0.0501 0.40033 0.63666 0.0
C519 C 0.0308 0.37071 0.64732 0.0
N520 N 0.97945 0.38531 0.63851 0.0
N521 N 0.01763 0.4079 0.63157 0.0
C522 C 0.95186 0.33474 0.65873 0.0
H523 H 0.93459 0.35343 0.66215 0.0
H524 H 0.96783 0.32778 0.66742 0.0
H525 H 0.92561 0.3019 0.65435 0.0
C526 C 0.93258 0.51046 0.64272 0.0
N527 N 0.91559 0.46784 0.63794 0.0
N528 N 0.94204 0.45171 0.64162 0.0
C529 C 0.9757 0.48305 0.64943 0.0
C530 C 0.97089 0.52136 0.6503 0.0
C531 C 0.91015 0.53866 0.64109 0.0
H532 H 0.89083 0.53014 0.63158 0.0
H533 H 0.88667 0.53202 0.64962 0.0
H534 H 0.93556 0.57552 0.64108 0.0
O535 O 0.86306 0.40708 0.61208 0.0
O536 O 0.91193 0.38256 0.61614 0.0
H537 H 0.03045 0.50293 0.66378 0.0
H538 H 0.99431 0.44214 0.66124 0.0
C539 C 0.01091 0.47593 0.65629 0.0
H540 H 0.03515 0.47662 0.64873 0.0
H541 H 0.02195 0.42964 0.62361 0.0
O542 O 0.81844 0.45506 0.63173 0.0
C543 C 0.88519 0.38768 0.60824 0.0
Co544 Co 0.57153 0.43067 0.62972 0.0
Co545 Co 0.60718 0.53505 0.63486 0.0
C546 C 0.65902 0.49275 0.64467 0.0
O547 O 0.62808 0.45499 0.64003 0.0
O548 O 0.6567 0.529 0.64365 0.0
C549 C 0.54455 0.34848 0.64282 0.0
O550 O 0.56234 0.37744 0.65278 0.0
C551 C 0.6381 0.62415 0.64751 0.0
C552 C 0.60122 0.65082 0.63575 0.0
C553 C 0.63024 0.66046 0.64653 0.0
N554 N 0.61469 0.59421 0.63775 0.0
N555 N 0.59304 0.61055 0.63069 0.0
C556 C 0.66414 0.61599 0.65819 0.0
H557 H 0.64498 0.57986 0.66144 0.0
H558 H 0.67051 0.63845 0.66697 0.0
H559 H 0.69728 0.62265 0.65403 0.0
C560 C 0.48878 0.42225 0.64194 0.0
N561 N 0.53147 0.44782 0.6372 0.0
N562 N 0.54759 0.49044 0.64082 0.0
C563 C 0.51618 0.49287 0.64857 0.0
C564 C 0.47782 0.44973 0.64947 0.0
C565 C 0.46056 0.37161 0.64034 0.0
H566 H 0.46939 0.36068 0.6309 0.0
H567 H 0.46675 0.35479 0.64896 0.0
H568 H 0.42372 0.36022 0.64017 0.0
O569 O 0.59294 0.45596 0.61153 0.0
O570 O 0.61736 0.52944 0.6154 0.0
H571 H 0.49578 0.52808 0.66263 0.0
H572 H 0.55668 0.55209 0.66053 0.0
C573 C 0.52327 0.5353 0.65535 0.0
H574 H 0.52357 0.55913 0.6477 0.0
H575 H 0.57161 0.59355 0.62263 0.0
O576 O 0.54428 0.36344 0.63113 0.0
C577 C 0.61243 0.4974 0.60761 0.0
Co578 Co 0.56951 0.1415 0.62973 0.0
Co579 Co 0.46573 0.07217 0.63566 0.0
C580 C 0.50665 0.16681 0.6445 0.0
O581 O 0.54417 0.17377 0.6396 0.0
O582 O 0.47073 0.12778 0.64404 0.0
C583 C 0.65114 0.19759 0.64284 0.0
O584 O 0.62175 0.18661 0.65267 0.0
C585 C 0.37566 0.01314 0.6479 0.0
C586 C 0.35543 0.94688 0.63831 0.0
C587 C 0.34195 0.96754 0.64778 0.0
N588 N 0.40767 0.01919 0.63889 0.0
N589 N 0.39516 0.97952 0.63313 0.0
C590 C 0.38004 0.04938 0.65735 0.0
H591 H 0.41515 0.0679 0.66145 0.0
H592 H 0.35544 0.03499 0.66575 0.0
H593 H 0.37408 0.07426 0.65179 0.0
C594 C 0.58054 0.07128 0.6431 0.0
N595 N 0.55358 0.08582 0.63783 0.0
N596 N 0.51159 0.05966 0.642 0.0
C597 C 0.51097 0.02865 0.65064 0.0
C598 C 0.55487 0.0353 0.65168 0.0
C599 C 0.62988 0.09066 0.63969 0.0
H600 H 0.63702 0.1058 0.62952 0.0
H601 H 0.65127 0.11742 0.64703 0.0
H602 H 0.63935 0.0637 0.64015 0.0
O603 O 0.54386 0.13501 0.61159 0.0
O604 O 0.47061 0.08652 0.61599 0.0
H605 H 0.4483 0.96606 0.65287 0.0
H606 H 0.48074 0.98637 0.66811 0.0
C607 C 0.47044 0.99692 0.65885 0.0
H608 H 0.45057 0.0136 0.66159 0.0
H609 H 0.41455 0.97444 0.62595 0.0
O610 O 0.63668 0.18195 0.63114 0.0
C611 C 0.5022 0.11266 0.60791 0.0
Co612 Co 0.57397 0.14288 0.13072 0.0
Co613 Co 0.60839 0.07364 0.13676 0.0
C614 C 0.66113 0.16811 0.14593 0.0
O615 O 0.63088 0.17516 0.14086 0.0
O616 O 0.65798 0.12908 0.1455 0.0
C617 C 0.54778 0.19892 0.14357 0.0
O618 O 0.566 0.18826 0.15353 0.0
C619 C 0.63461 0.01279 0.15031 0.0
C620 C 0.60203 0.95184 0.13732 0.0
C621 C 0.62665 0.96857 0.14904 0.0
N622 N 0.61468 0.02138 0.13995 0.0
N623 N 0.59556 0.98492 0.13219 0.0
C624 C 0.66269 0.04741 0.1607 0.0
H625 H 0.68838 0.07914 0.15568 0.0
H626 H 0.64056 0.05588 0.16678 0.0
H627 H 0.68074 0.03536 0.16732 0.0
C628 C 0.49174 0.07177 0.14351 0.0
N629 N 0.53377 0.08679 0.13857 0.0
N630 N 0.54903 0.06 0.14261 0.0
C631 C 0.51749 0.02782 0.15077 0.0
C632 C 0.48029 0.03465 0.15171 0.0
C633 C 0.46235 0.09185 0.14017 0.0
H634 H 0.47092 0.10765 0.13009 0.0
H635 H 0.46772 0.1182 0.14765 0.0
H636 H 0.42579 0.06518 0.14043 0.0
O637 O 0.59442 0.13718 0.11267 0.0
O638 O 0.61927 0.08885 0.11719 0.0
H639 H 0.52374 0.96823 0.1516 0.0
H640 H 0.49889 0.97728 0.16645 0.0
C641 C 0.52493 0.99436 0.15853 0.0
H642 H 0.55909 0.01213 0.16323 0.0
H643 H 0.57731 0.98232 0.1235 0.0
O644 O 0.54701 0.18311 0.13193 0.0
C645 C 0.61418 0.11516 0.10909 0.0
Co646 Co 0.85834 0.43023 0.12931 0.0
Co647 Co 0.92608 0.53475 0.13442 0.0
C648 C 0.83169 0.4923 0.14382 0.0
O649 O 0.82539 0.45464 0.13926 0.0
O650 O 0.8702 0.52868 0.14295 0.0
C651 C 0.80457 0.34927 0.14298 0.0
O652 O 0.81637 0.3792 0.15269 0.0
C653 C 0.98362 0.62411 0.14693 0.0
C654 C 0.04759 0.6506 0.13539 0.0
C655 C 0.02782 0.66041 0.14603 0.0
N656 N 0.97744 0.59404 0.13726 0.0
N657 N 0.01568 0.61026 0.13032 0.0
C658 C 0.94913 0.61596 0.15753 0.0
H659 H 0.93191 0.5798 0.16074 0.0
H660 H 0.96502 0.63828 0.16634 0.0
H661 H 0.9229 0.62284 0.15329 0.0
C662 C 0.93292 0.42294 0.14179 0.0
N663 N 0.91546 0.44807 0.13696 0.0
N664 N 0.94128 0.49069 0.14068 0.0
C665 C 0.97486 0.49348 0.14862 0.0
C666 C 0.97075 0.45064 0.1495 0.0
C667 C 0.91158 0.37246 0.14005 0.0
H668 H 0.89175 0.36138 0.13062 0.0
H669 H 0.88884 0.35494 0.14866 0.0
H670 H 0.93784 0.36212 0.13977 0.0
O671 O 0.86258 0.45467 0.111 0.0
O672 O 0.91081 0.52834 0.11491 0.0
H673 H 0.02863 0.52858 0.16322 0.0
H674 H 0.99173 0.55231 0.16056 0.0
C675 C 0.00915 0.53585 0.15566 0.0
H676 H 0.03349 0.55998 0.14821 0.0
H677 H 0.02041 0.5931 0.12236 0.0
O678 O 0.81885 0.3631 0.13114 0.0
C679 C 0.88437 0.49611 0.10707 0.0
Co680 Co 0.56673 0.4277 0.12978 0.0
Co681 Co 0.46288 0.39151 0.13637 0.0
C682 C 0.50615 0.34011 0.14517 0.0
O683 O 0.5428 0.37066 0.13986 0.0
O684 O 0.4698 0.34247 0.14504 0.0
C685 C 0.64944 0.45401 0.1424 0.0
O686 O 0.62076 0.43582 0.15241 0.0
C687 C 0.37484 0.36383 0.14982 0.0
C688 C 0.34804 0.39904 0.13733 0.0
C689 C 0.33903 0.3726 0.14871 0.0
N690 N 0.40417 0.38504 0.1397 0.0
N691 N 0.38773 0.40572 0.13224 0.0
C692 C 0.38017 0.33399 0.15985 0.0
H693 H 0.38917 0.31073 0.15461 0.0
H694 H 0.40841 0.35533 0.1668 0.0
H695 H 0.34845 0.31323 0.16564 0.0
C696 C 0.57718 0.5088 0.14307 0.0
N697 N 0.55032 0.46712 0.1379 0.0
N698 N 0.50847 0.45089 0.14226 0.0
C699 C 0.50788 0.48129 0.15091 0.0
C700 C 0.55171 0.51891 0.15181 0.0
C701 C 0.62632 0.53898 0.13948 0.0
H702 H 0.63296 0.53123 0.12922 0.0
H703 H 0.64816 0.53349 0.1466 0.0
H704 H 0.63572 0.57537 0.14007 0.0
O705 O 0.54008 0.40734 0.11179 0.0
O706 O 0.46685 0.38078 0.11671 0.0
H707 H 0.44239 0.47531 0.15291 0.0
H708 H 0.47701 0.49579 0.16782 0.0
C709 C 0.46746 0.47199 0.15925 0.0
H710 H 0.45099 0.43666 0.1631 0.0
H711 H 0.40411 0.4252 0.1238 0.0
O712 O 0.63414 0.45508 0.13082 0.0
C713 C 0.49809 0.38673 0.10842 0.0
Co714 Co 0.4706 0.23692 0.03853 0.0
Co715 Co 0.40288 0.27289 0.03197 0.0
C716 C 0.49722 0.32388 0.02287 0.0
O717 O 0.50351 0.29354 0.02824 0.0
O718 O 0.45854 0.32154 0.0231 0.0
C719 C 0.52621 0.20996 0.02584 0.0
O720 O 0.51508 0.22756 0.01582 0.0
C721 C 0.34319 0.30076 0.01837 0.0
C722 C 0.28125 0.267 0.03093 0.0
C723 C 0.29892 0.29286 0.01946 0.0
N724 N 0.35093 0.27968 0.02859 0.0
N725 N 0.31386 0.25984 0.0361 0.0
C726 C 0.37859 0.32985 0.00828 0.0
H727 H 0.41008 0.35475 0.01357 0.0
H728 H 0.38719 0.30827 0.00198 0.0
H729 H 0.36715 0.34883 0.00184 0.0
C730 C 0.39954 0.15533 0.02555 0.0
N731 N 0.41447 0.19716 0.03061 0.0
N732 N 0.38878 0.21328 0.02622 0.0
C733 C 0.35764 0.18263 0.01765 0.0
C734 C 0.36384 0.14498 0.01683 0.0
C735 C 0.41849 0.12521 0.02922 0.0
H736 H 0.43317 0.13336 0.03944 0.0
H737 H 0.44558 0.13029 0.02205 0.0
H738 H 0.3914 0.08883 0.02877 0.0
O739 O 0.46497 0.25797 0.05647 0.0
O740 O 0.41808 0.2843 0.0516 0.0
H741 H 0.29837 0.18903 0.01569 0.0
H742 H 0.31162 0.1674 0.00086 0.0
C743 C 0.32638 0.1917 0.0093 0.0
H744 H 0.3453 0.22678 0.00526 0.0
H745 H 0.31054 0.24066 0.04463 0.0
O746 O 0.5105 0.20947 0.03747 0.0
C747 C 0.44368 0.27865 0.05985 0.0
Co748 Co 0.75943 0.23486 0.03853 0.0
Co749 Co 0.72409 0.13126 0.03252 0.0
C750 C 0.6703 0.17215 0.02405 0.0
O751 O 0.70117 0.20947 0.02896 0.0
O752 O 0.67328 0.13616 0.02429 0.0
C753 C 0.78496 0.31502 0.0249 0.0
O754 O 0.7664 0.28466 0.01531 0.0
C755 C 0.6922 0.04093 0.02047 0.0
C756 C 0.73783 0.02024 0.03008 0.0
C757 C 0.70348 0.0068 0.02069 0.0
N758 N 0.71861 0.07307 0.02938 0.0
N759 N 0.74558 0.06034 0.03515 0.0
C760 C 0.66054 0.04557 0.01099 0.0
H761 H 0.67706 0.08085 0.00702 0.0
H762 H 0.65079 0.02143 0.00249 0.0
H763 H 0.62941 0.03909 0.01648 0.0
C764 C 0.84011 0.24543 0.025 0.0
N765 N 0.79871 0.21856 0.03033 0.0
N766 N 0.78229 0.17672 0.02598 0.0
C767 C 0.81212 0.17614 0.0171 0.0
C768 C 0.8497 0.21996 0.01611 0.0
C769 C 0.87079 0.29434 0.02875 0.0
H770 H 0.86284 0.30085 0.039 0.0
H771 H 0.86613 0.31679 0.02165 0.0
H772 H 0.90702 0.30311 0.02826 0.0
O773 O 0.74117 0.21006 0.05676 0.0
O774 O 0.71516 0.13667 0.05222 0.0
H775 H 0.81179 0.11353 0.01439 0.0
H776 H 0.8223 0.14623 0.99924 0.0
C777 C 0.80244 0.13576 0.00869 0.0
H778 H 0.76562 0.11589 0.00628 0.0
H779 H 0.77029 0.07975 0.04227 0.0
O780 O 0.78632 0.30178 0.03675 0.0
C781 C 0.72128 0.16832 0.06037 0.0
Co782 Co 0.76209 0.52163 0.03673 0.0
Co783 Co 0.86586 0.5903 0.03067 0.0
C784 C 0.82362 0.49612 0.02139 0.0
O785 O 0.78649 0.48928 0.02653 0.0
O786 O 0.85967 0.53501 0.02181 0.0
C787 C 0.67976 0.46569 0.02388 0.0
O788 O 0.70854 0.4761 0.01391 0.0
C789 C 0.95326 0.65061 0.01724 0.0
C790 C 0.98178 0.71169 0.03017 0.0
C791 C 0.98972 0.69472 0.01851 0.0
N792 N 0.92459 0.64231 0.02754 0.0
N793 N 0.94202 0.67884 0.03527 0.0
C794 C 0.94666 0.6158 0.00691 0.0
H795 H 0.9407 0.58419 0.01198 0.0
H796 H 0.91599 0.60717 0.00083 0.0
H797 H 0.97671 0.62773 1.00027 0.0
C798 C 0.75162 0.5931 0.02394 0.0
N799 N 0.7784 0.5779 0.02893 0.0
N800 N 0.82048 0.60439 0.02487 0.0
C801 C 0.82139 0.63655 0.01665 0.0
C802 C 0.77749 0.63003 0.01569 0.0
C803 C 0.70212 0.5732 0.02721 0.0
H804 H 0.69472 0.55751 0.03731 0.0
H805 H 0.68117 0.54678 0.01974 0.0
H806 H 0.69235 0.59995 0.02687 0.0
O807 O 0.78803 0.52678 0.05479 0.0
O808 O 0.86128 0.57459 0.05019 0.0
H809 H 0.88744 0.69581 0.01568 0.0
H810 H 0.85351 0.68647 0.00082 0.0
C811 C 0.86235 0.66953 0.00881 0.0
H812 H 0.8785 0.65139 0.00421 0.0
H813 H 0.92628 0.68165 0.04391 0.0
O814 O 0.6949 0.48167 0.0355 0.0
C815 C 0.82987 0.54843 0.05831 0.0
Co816 Co 0.42849 0.8585 0.87118 0.0
Co817 Co 0.39367 0.92751 0.86511 0.0
C818 C 0.34107 0.83337 0.85594 0.0
O819 O 0.37147 0.82652 0.86102 0.0
O820 O 0.34387 0.87226 0.85639 0.0
C821 C 0.45462 0.80252 0.85819 0.0
O822 O 0.4364 0.81335 0.84827 0.0
C823 C 0.36251 0.98675 0.85302 0.0
C824 C 0.40877 0.0529 0.86263 0.0
C825 C 0.37449 0.03239 0.8532 0.0
N826 N 0.38855 0.98055 0.86196 0.0
N827 N 0.41584 0.02016 0.86774 0.0
C828 C 0.33048 0.95062 0.84357 0.0
H829 H 0.34717 0.93247 0.83928 0.0
H830 H 0.31977 0.96504 0.8353 0.0
H831 H 0.29994 0.9254 0.84918 0.0
C832 C 0.51001 0.92927 0.85805 0.0
N833 N 0.46843 0.91457 0.86328 0.0
N834 N 0.45243 0.9405 0.85904 0.0
C835 C 0.48279 0.9715 0.85038 0.0
C836 C 0.52023 0.96512 0.84943 0.0
C837 C 0.54 0.90993 0.86148 0.0
H838 H 0.532 0.89484 0.87165 0.0
H839 H 0.53461 0.88312 0.85417 0.0
H840 H 0.57642 0.9369 0.86101 0.0
O841 O 0.40799 0.8639 0.88926 0.0
O842 O 0.38282 0.91195 0.88469 0.0
H843 H 0.48248 0.03387 0.84788 0.0
H844 H 0.49426 0.01282 0.83273 0.0
C845 C 0.47365 0.00271 0.84203 0.0
H846 H 0.43703 0.98581 0.83937 0.0
H847 H 0.4404 0.02513 0.87488 0.0
O848 O 0.45549 0.81825 0.86985 0.0
C849 C 0.38794 0.88567 0.8928 0.0
Co850 Co 0.1432 0.56985 0.87102 0.0
Co851 Co 0.07412 0.4664 0.86485 0.0
C852 C 0.16852 0.50755 0.85591 0.0
O853 O 0.17544 0.54483 0.86097 0.0
O854 O 0.1295 0.47161 0.85628 0.0
C855 C 0.19874 0.6515 0.85797 0.0
O856 O 0.18752 0.62223 0.84809 0.0
C857 C 0.01506 0.37646 0.85262 0.0
C858 C 0.94911 0.35557 0.86252 0.0
C859 C 0.96962 0.34239 0.85292 0.0
N860 N 0.02119 0.40836 0.86167 0.0
N861 N 0.98171 0.39549 0.86761 0.0
C862 C 0.05102 0.38124 0.84298 0.0
H863 H 0.0695 0.41652 0.83902 0.0
H864 H 0.03634 0.35706 0.8345 0.0
H865 H 0.07599 0.3749 0.84835 0.0
C866 C 0.07271 0.58113 0.85788 0.0
N867 N 0.08737 0.55409 0.86302 0.0
N868 N 0.06131 0.51223 0.85875 0.0
C869 C 0.03023 0.51177 0.85016 0.0
C870 C 0.03672 0.55566 0.84928 0.0
C871 C 0.09197 0.63034 0.86143 0.0
H872 H 0.1072 0.63721 0.87159 0.0
H873 H 0.11865 0.65202 0.85412 0.0
H874 H 0.06493 0.6397 0.86109 0.0
O875 O 0.13723 0.54398 0.88911 0.0
O876 O 0.08902 0.47089 0.88445 0.0
H877 H 0.96775 0.44905 0.84785 0.0
H878 H 0.98796 0.48193 0.83267 0.0
C879 C 0.99858 0.47143 0.84188 0.0
H880 H 0.01535 0.45173 0.83906 0.0
H881 H 0.97674 0.41471 0.87488 0.0
O882 O 0.18346 0.63693 0.86968 0.0
C883 C 0.11513 0.50214 0.89262 0.0
Co884 Co 0.4317 0.572 0.87118 0.0
Co885 Co 0.53615 0.60781 0.86616 0.0
C886 C 0.49403 0.65976 0.85637 0.0
O887 O 0.45625 0.62873 0.86096 0.0
O888 O 0.53028 0.65745 0.85738 0.0
C889 C 0.35 0.54529 0.85785 0.0
O890 O 0.37929 0.56326 0.84798 0.0
C891 C 0.62528 0.63872 0.85355 0.0
C892 C 0.65194 0.60186 0.86532 0.0
C893 C 0.66158 0.63083 0.85453 0.0
N894 N 0.59537 0.61538 0.86332 0.0
N895 N 0.61169 0.59374 0.87039 0.0
C896 C 0.61709 0.66465 0.84284 0.0
H897 H 0.58093 0.64549 0.83962 0.0
H898 H 0.63947 0.67087 0.83405 0.0
H899 H 0.62383 0.69786 0.84696 0.0
C900 C 0.42352 0.48942 0.85896 0.0
N901 N 0.44901 0.53209 0.86371 0.0
N902 N 0.49167 0.54829 0.86011 0.0
C903 C 0.49419 0.51695 0.85236 0.0
C904 C 0.45109 0.47855 0.85144 0.0
C905 C 0.37288 0.46111 0.86054 0.0
H906 H 0.36187 0.46994 0.86996 0.0
H907 H 0.35605 0.4672 0.85191 0.0
H908 H 0.36159 0.42429 0.86073 0.0
O909 O 0.45655 0.5931 0.88941 0.0
O910 O 0.53013 0.61777 0.88562 0.0
H911 H 0.56051 0.52447 0.85323 0.0
H912 H 0.5295 0.4967 0.83829 0.0
C913 C 0.53667 0.52415 0.84558 0.0
H914 H 0.55343 0.55757 0.84041 0.0
H915 H 0.59469 0.57233 0.87845 0.0
O916 O 0.36454 0.54479 0.86958 0.0
C917 C 0.49794 0.61266 0.89338 0.0
Co918 Co 0.52108 0.75911 0.96379 0.0
Co919 Co 0.59035 0.72476 0.9698 0.0
C920 C 0.49606 0.67135 0.97881 0.0
O921 O 0.48904 0.70173 0.9738 0.0
O922 O 0.53508 0.67445 0.97838 0.0
C923 C 0.4649 0.78483 0.97682 0.0
O924 O 0.47548 0.76628 0.9867 0.0
C925 C 0.64985 0.69359 0.98163 0.0
C926 C 0.71594 0.74043 0.97207 0.0
C927 C 0.6955 0.70571 0.98137 0.0
N928 N 0.64354 0.71996 0.97284 0.0
N929 N 0.68311 0.74761 0.96709 0.0
C930 C 0.61375 0.661 0.99099 0.0
H931 H 0.59542 0.67733 0.9954 0.0
H932 H 0.62824 0.65004 0.99918 0.0
H933 H 0.58868 0.63066 0.98528 0.0
C934 C 0.59151 0.84061 0.97707 0.0
N935 N 0.57692 0.79907 0.97181 0.0
N936 N 0.60301 0.78321 0.97601 0.0
C937 C 0.63403 0.81359 0.98465 0.0
C938 C 0.62749 0.85091 0.98565 0.0
C939 C 0.57207 0.87053 0.97368 0.0
H940 H 0.55695 0.86256 0.96351 0.0
H941 H 0.54527 0.86505 0.98101 0.0
H942 H 0.59899 0.90697 0.97415 0.0
O943 O 0.52702 0.73943 0.94565 0.0
O944 O 0.57535 0.71464 0.95022 0.0
H945 H 0.69678 0.81394 0.98703 0.0
H946 H 0.67555 0.82506 0.00226 0.0
C947 C 0.66556 0.80465 0.99291 0.0
H948 H 0.64901 0.76799 0.99549 0.0
H949 H 0.68797 0.77243 0.96007 0.0
O950 O 0.48075 0.78593 0.96516 0.0
C951 C 0.54921 0.71984 0.94208 0.0
Co952 Co 0.23638 0.7634 0.96295 0.0
Co953 Co 0.27175 0.86778 0.96843 0.0
C954 C 0.323 0.82516 0.97836 0.0
O955 O 0.29239 0.78766 0.97349 0.0
O956 O 0.32075 0.86147 0.97744 0.0
C957 C 0.20921 0.6808 0.97597 0.0
O958 O 0.22662 0.70961 0.98598 0.0
C959 C 0.30185 0.9565 0.98133 0.0
C960 C 0.26413 0.98265 0.96976 0.0
C961 C 0.29317 0.99232 0.98054 0.0
N962 N 0.2788 0.92675 0.97149 0.0
N963 N 0.25669 0.94282 0.96453 0.0
C964 C 0.3283 0.94855 0.99193 0.0
H965 H 0.30907 0.91256 0.9953 0.0
H966 H 0.33533 0.9714 0.00065 0.0
H967 H 0.36109 0.95471 0.98762 0.0
C968 C 0.15316 0.75452 0.97491 0.0
N969 N 0.196 0.78032 0.97031 0.0
N970 N 0.21196 0.82277 0.97409 0.0
C971 C 0.18029 0.82481 0.98182 0.0
C972 C 0.14194 0.78164 0.98252 0.0
C973 C 0.12505 0.70394 0.97314 0.0
H974 H 0.13431 0.69337 0.96371 0.0
H975 H 0.13088 0.68682 0.98175 0.0
H976 H 0.08822 0.69259 0.97285 0.0
O977 O 0.25879 0.78955 0.94487 0.0
O978 O 0.283 0.86288 0.94899 0.0
H979 H 0.18716 0.89088 0.98133 0.0
H980 H 0.15978 0.85909 0.99619 0.0
C981 C 0.18721 0.86681 0.98883 0.0
H982 H 0.22069 0.88357 0.99396 0.0
H983 H 0.23534 0.92587 0.95646 0.0
O984 O 0.20922 0.69597 0.96429 0.0
C985 C 0.27847 0.83119 0.94111 0.0
Co986 Co 0.23294 0.47271 0.9635 0.0
Co987 Co 0.12853 0.40402 0.96856 0.0
C988 C 0.1704 0.49853 0.97802 0.0
O989 O 0.20824 0.5052 0.9735 0.0
O990 O 0.13421 0.45984 0.97712 0.0
C991 C 0.31455 0.52785 0.97681 0.0
O992 O 0.28519 0.51665 0.98666 0.0
C993 C 0.03921 0.34545 0.9811 0.0
C994 C 0.01324 0.28186 0.9694 0.0
C995 C 0.00317 0.30111 0.98012 0.0
N996 N 0.06939 0.35219 0.97139 0.0
N997 N 0.05346 0.31417 0.96436 0.0
C998 C 0.04692 0.37962 0.99174 0.0
H999 H 0.08312 0.3972 0.99494 0.0
H1000 H 0.02467 0.36336 0.00055 0.0
H1001 H 0.0396 0.40563 0.98757 0.0
C1002 C 0.2413 0.39867 0.97592 0.0
N1003 N 0.21576 0.41575 0.97114 0.0
N1004 N 0.17312 0.3893 0.97475 0.0
C1005 C 0.17065 0.35551 0.98254 0.0
C1006 C 0.21378 0.36028 0.98347 0.0
C1007 C 0.29192 0.42094 0.97429 0.0
H1008 H 0.30281 0.4406 0.96483 0.0
H1009 H 0.30887 0.44403 0.98288 0.0
H1010 H 0.30322 0.39543 0.97412 0.0
O1011 O 0.20818 0.46833 0.94523 0.0
O1012 O 0.13461 0.41947 0.94906 0.0
H1013 H 0.10458 0.29638 0.98162 0.0
H1014 H 0.13535 0.30008 0.99665 0.0
C1015 C 0.12815 0.32012 0.98928 0.0
H1016 H 0.11106 0.33663 0.99434 0.0
H1017 H 0.07073 0.30986 0.95636 0.0
O1018 O 0.30007 0.51272 0.96508 0.0
C1019 C 0.16679 0.44635 0.94127 0.0
Co1020 Co 0.23767 0.47098 0.4631 0.0
Co1021 Co 0.27501 0.40357 0.46826 0.0
C1022 C 0.32739 0.49853 0.47719 0.0
O1023 O 0.29567 0.50446 0.47273 0.0
O1024 O 0.32532 0.45999 0.47648 0.0
C1025 C 0.21083 0.52552 0.47659 0.0
O1026 O 0.22952 0.51449 0.48633 0.0
C1027 C 0.30682 0.3455 0.48069 0.0
C1028 C 0.2669 0.28097 0.46956 0.0
C1029 C 0.29754 0.30077 0.47997 0.0
N1030 N 0.2826 0.35189 0.47115 0.0
N1031 N 0.25917 0.3133 0.46445 0.0
C1032 C 0.33475 0.38038 0.49101 0.0
H1033 H 0.31682 0.3985 0.49434 0.0
H1034 H 0.3416 0.36466 0.49979 0.0
H1035 H 0.36765 0.40585 0.48647 0.0
C1036 C 0.15661 0.39699 0.47605 0.0
N1037 N 0.19897 0.41429 0.47105 0.0
N1038 N 0.21607 0.38876 0.47479 0.0
C1039 C 0.18574 0.35559 0.48294 0.0
C1040 C 0.14697 0.3596 0.4839 0.0
C1041 C 0.12721 0.41804 0.4743 0.0
H1042 H 0.13536 0.43724 0.46476 0.0
H1043 H 0.13287 0.44133 0.4828 0.0
H1044 H 0.09063 0.39166 0.47425 0.0
O1045 O 0.25682 0.46581 0.44475 0.0
O1046 O 0.28296 0.41816 0.44865 0.0
H1047 H 0.19267 0.29641 0.4828 0.0
H1048 H 0.1685 0.30346 0.498 0.0
C1049 C 0.19428 0.3218 0.49009 0.0
H1050 H 0.2288 0.33941 0.4946 0.0
H1051 H 0.23668 0.3086 0.45668 0.0
O1052 O 0.20993 0.51046 0.46483 0.0
C1053 C 0.27656 0.44415 0.44078 0.0
Co1054 Co 0.52681 0.76479 0.46293 0.0
Co1055 Co 0.59546 0.8684 0.46973 0.0
C1056 C 0.50106 0.82491 0.47899 0.0
O1057 O 0.49443 0.78833 0.4735 0.0
O1058 O 0.53981 0.86118 0.47871 0.0
C1059 C 0.4706 0.68148 0.47533 0.0
O1060 O 0.48176 0.70975 0.48547 0.0
C1061 C 0.65603 0.95535 0.48365 0.0
C1062 C 0.7179 0.98318 0.47107 0.0
C1063 C 0.7006 0.99127 0.48264 0.0
N1064 N 0.64781 0.92683 0.47331 0.0
N1065 N 0.68486 0.94389 0.46579 0.0
C1066 C 0.62092 0.94917 0.49382 0.0
H1067 H 0.58872 0.94088 0.48867 0.0
H1068 H 0.61386 0.92016 0.50047 0.0
H1069 H 0.63198 0.98029 0.49992 0.0
C1070 C 0.59788 0.75341 0.4756 0.0
N1071 N 0.58297 0.7806 0.47074 0.0
N1072 N 0.60915 0.82232 0.47514 0.0
C1073 C 0.64068 0.82248 0.48348 0.0
C1074 C 0.63419 0.77854 0.48413 0.0
C1075 C 0.57821 0.70422 0.47196 0.0
H1076 H 0.56292 0.69766 0.46182 0.0
H1077 H 0.55149 0.68258 0.47927 0.0
H1078 H 0.60502 0.69453 0.47224 0.0
O1079 O 0.53258 0.79272 0.44512 0.0
O1080 O 0.58048 0.86564 0.45013 0.0
H1081 H 0.70022 0.88803 0.4853 0.0
H1082 H 0.68805 0.85276 0.49999 0.0
C1083 C 0.67267 0.86258 0.49178 0.0
H1084 H 0.65413 0.87869 0.49614 0.0
H1085 H 0.68787 0.92819 0.45718 0.0
O1086 O 0.48645 0.69726 0.46374 0.0
C1087 C 0.55446 0.8348 0.44183 0.0
Co1088 Co 0.23691 0.75717 0.46437 0.0
Co1089 Co 0.13267 0.72251 0.46918 0.0
C1090 C 0.17353 0.66946 0.47904 0.0
O1091 O 0.21162 0.70024 0.47454 0.0
O1092 O 0.13761 0.67235 0.47796 0.0
C1093 C 0.3186 0.78329 0.47773 0.0
O1094 O 0.28939 0.76456 0.48759 0.0
C1095 C 0.04318 0.6923 0.48138 0.0
C1096 C 0.01769 0.72985 0.46944 0.0
C1097 C 0.00724 0.70062 0.4802 0.0
N1098 N 0.07371 0.71563 0.47176 0.0
N1099 N 0.0581 0.7377 0.46458 0.0
C1100 C 0.05045 0.66587 0.49214 0.0
H1101 H 0.08645 0.68463 0.49552 0.0
H1102 H 0.02766 0.6597 0.50083 0.0
H1103 H 0.04354 0.63263 0.48801 0.0
C1104 C 0.24568 0.84019 0.47649 0.0
N1105 N 0.22 0.79746 0.47181 0.0
N1106 N 0.17732 0.78171 0.47529 0.0
C1107 C 0.1749 0.81343 0.48288 0.0
C1108 C 0.21813 0.85159 0.48382 0.0
C1109 C 0.29638 0.8681 0.475 0.0
H1110 H 0.30736 0.85939 0.46555 0.0
H1111 H 0.31284 0.86136 0.4836 0.0
H1112 H 0.30815 0.90502 0.47494 0.0
O1113 O 0.21256 0.73661 0.44606 0.0
O1114 O 0.13916 0.71288 0.44978 0.0
H1115 H 0.1092 0.80726 0.48164 0.0
H1116 H 0.13954 0.83435 0.49672 0.0
C1117 C 0.13232 0.80691 0.48942 0.0
H1118 H 0.11472 0.77339 0.49453 0.0
H1119 H 0.07567 0.75918 0.45658 0.0
O1120 O 0.30394 0.78415 0.46605 0.0
C1121 C 0.17125 0.71768 0.44205 0.0
Co1122 Co 0.14412 0.57486 0.37031 0.0
Co1123 Co 0.07622 0.61153 0.36559 0.0
C1124 C 0.17048 0.6642 0.35621 0.0
O1125 O 0.17695 0.63271 0.36057 0.0
O1126 O 0.13188 0.66183 0.35715 0.0
C1127 C 0.1982 0.54814 0.35653 0.0
O1128 O 0.18748 0.56734 0.34686 0.0
C1129 C 0.0179 0.64323 0.35358 0.0
C1130 C 0.95421 0.60465 0.36519 0.0
C1131 C 0.97354 0.63476 0.35464 0.0
N1132 N 0.0246 0.61917 0.36308 0.0
N1133 N 0.98654 0.59651 0.37007 0.0
C1134 C 0.05203 0.67021 0.34297 0.0
H1135 H 0.06969 0.65183 0.33962 0.0
H1136 H 0.03572 0.6765 0.33423 0.0
H1137 H 0.07798 0.7034 0.34724 0.0
C1138 C 0.06952 0.49336 0.35769 0.0
N1139 N 0.08704 0.53583 0.36262 0.0
N1140 N 0.06113 0.55268 0.35906 0.0
C1141 C 0.0274 0.52207 0.35111 0.0
C1142 C 0.03152 0.48339 0.35009 0.0
C1143 C 0.0908 0.46412 0.35927 0.0
H1144 H 0.11028 0.47225 0.36876 0.0
H1145 H 0.11391 0.47001 0.3507 0.0
H1146 H 0.06454 0.42749 0.35931 0.0
O1147 O 0.14005 0.5941 0.38875 0.0
O1148 O 0.0918 0.61962 0.38505 0.0
H1149 H 0.96832 0.52914 0.35172 0.0
H1150 H 0.97384 0.50399 0.3365 0.0
C1151 C 0.99295 0.53024 0.34423 0.0
H1152 H 0.01014 0.56448 0.33954 0.0
H1153 H 0.98221 0.57432 0.3779 0.0
O1154 O 0.18333 0.5471 0.36832 0.0
C1155 C 0.11827 0.61359 0.39281 0.0
Co1156 Co 0.4254 0.56905 0.37069 0.0
Co1157 Co 0.3911 0.46557 0.36422 0.0
C1158 C 0.33987 0.50824 0.3546 0.0
O1159 O 0.3696 0.54507 0.36004 0.0
O1160 O 0.34268 0.47218 0.35503 0.0
C1161 C 0.45239 0.65212 0.35816 0.0
O1162 O 0.43495 0.62384 0.34804 0.0
C1163 C 0.36524 0.37875 0.35048 0.0
C1164 C 0.39747 0.35008 0.36349 0.0
C1165 C 0.37311 0.34241 0.35173 0.0
N1166 N 0.38495 0.40708 0.36089 0.0
N1167 N 0.40388 0.38956 0.36866 0.0
C1168 C 0.33738 0.38548 0.34006 0.0
H1169 H 0.31178 0.39173 0.34504 0.0
H1170 H 0.3597 0.416 0.33397 0.0
H1171 H 0.31923 0.35537 0.33344 0.0
C1172 C 0.50841 0.58055 0.35834 0.0
N1173 N 0.46615 0.55336 0.36309 0.0
N1174 N 0.45098 0.51153 0.35886 0.0
C1175 C 0.48281 0.51125 0.35075 0.0
C1176 C 0.52014 0.55527 0.35007 0.0
C1177 C 0.53759 0.62991 0.36185 0.0
H1178 H 0.52861 0.63672 0.37193 0.0
H1179 H 0.53241 0.65113 0.35441 0.0
H1180 H 0.57418 0.63989 0.36167 0.0
O1181 O 0.40318 0.54186 0.38856 0.0
O1182 O 0.37846 0.46891 0.38372 0.0
H1183 H 0.47656 0.44548 0.34949 0.0
H1184 H 0.50144 0.48029 0.33479 0.0
C1185 C 0.47538 0.47083 0.34273 0.0
H1186 H 0.44123 0.45473 0.33803 0.0
H1187 H 0.42192 0.40503 0.37739 0.0
O1188 O 0.45248 0.6364 0.36975 0.0
C1189 C 0.383 0.49987 0.39192 0.0
Co1190 Co 0.434 0.86346 0.37193 0.0
Co1191 Co 0.53786 0.93035 0.36524 0.0
C1192 C 0.49436 0.83543 0.35679 0.0
O1193 O 0.45788 0.82977 0.36211 0.0
O1194 O 0.53078 0.8741 0.35673 0.0
C1195 C 0.35219 0.80832 0.35895 0.0
O1196 O 0.38158 0.81966 0.3491 0.0
C1197 C 0.6258 0.99031 0.35165 0.0
C1198 C 0.65245 0.05293 0.36384 0.0
C1199 C 0.6614 0.03508 0.35254 0.0
N1200 N 0.59664 0.98248 0.36179 0.0
N1201 N 0.61302 0.01998 0.36908 0.0
C1202 C 0.62049 0.95477 0.34176 0.0
H1203 H 0.61115 0.92259 0.34709 0.0
H1204 H 0.59253 0.94789 0.3347 0.0
H1205 H 0.65235 0.96543 0.33606 0.0
C1206 C 0.42391 0.93402 0.35851 0.0
N1207 N 0.4507 0.91913 0.36369 0.0
N1208 N 0.49243 0.94423 0.35919 0.0
C1209 C 0.49294 0.97484 0.35039 0.0
C1210 C 0.44922 0.96897 0.34957 0.0
C1211 C 0.3751 0.91594 0.36235 0.0
H1212 H 0.36884 0.90176 0.37264 0.0
H1213 H 0.35247 0.88864 0.35533 0.0
H1214 H 0.36635 0.9434 0.36183 0.0
O1215 O 0.4602 0.8701 0.38995 0.0
O1216 O 0.5336 0.91574 0.38498 0.0
H1217 H 0.55839 0.03416 0.34804 0.0
H1218 H 0.52335 0.01886 0.33319 0.0
C1219 C 0.53315 0.00528 0.34188 0.0
H1220 H 0.54949 0.9861 0.3382 0.0
H1221 H 0.59669 0.0234 0.37748 0.0
O1222 O 0.36667 0.82372 0.37066 0.0
C1223 C 0.5022 0.89096 0.39331 0.0
C1224 C 0.11385 0.0697 0.178 0.0
C1225 C 0.13423 0.1038 0.18781 0.0
H1226 H 0.10566 0.00682 0.17045 0.0
C1227 C 0.16942 0.10584 0.19572 0.0
H1228 H 0.08671 0.06751 0.17175 0.0
C1229 C 0.1817 0.07227 0.1945 0.0
C1230 C 0.15809 0.03569 0.18563 0.0
H1231 H 0.18602 0.13219 0.20322 0.0
H1232 H 0.20634 0.07243 0.20145 0.0
C1233 C 0.12513 0.03541 0.17709 0.0
C1234 C 0.9578 0.08995 0.1774 0.0
C1235 C 0.95866 0.12327 0.18591 0.0
H1236 H 0.92473 0.01912 0.17237 0.0
C1237 C 0.92297 0.11099 0.19508 0.0
H1238 H 0.98565 0.09849 0.17052 0.0
C1239 C 0.8893 0.06528 0.19661 0.0
C1240 C 0.89026 0.03153 0.18872 0.0
H1241 H 0.92367 0.13594 0.20201 0.0
H1242 H 0.86372 0.05612 0.20434 0.0
C1243 C 0.92336 0.04451 0.17863 0.0
C1244 C 0.90331 0.86939 0.17831 0.0
C1245 C 0.87079 0.83689 0.18699 0.0
H1246 H 0.97373 0.9077 0.17285 0.0
C1247 C 0.88406 0.81395 0.19603 0.0
H1248 H 0.89399 0.88834 0.17152 0.0
C1249 C 0.93 0.8265 0.19726 0.0
C1250 C 0.96298 0.86128 0.18919 0.0
H1251 H 0.85974 0.78967 0.20308 0.0
H1252 H 0.93994 0.8104 0.20487 0.0
C1253 C 0.94896 0.88093 0.17924 0.0
C1254 C 0.07672 0.18817 0.30516 0.0
C1255 C 0.0415 0.16543 0.31452 0.0
H1256 H 0.13562 0.19203 0.29583 0.0
C1257 C 0.04286 0.13368 0.32322 0.0
H1258 H 0.07562 0.21186 0.29809 0.0
C1259 C 0.07731 0.12269 0.32202 0.0
C1260 C 0.10995 0.14212 0.31178 0.0
H1261 H 0.01537 0.11488 0.33026 0.0
H1262 H 0.07632 0.09647 0.32845 0.0
C1263 C 0.11041 0.17614 0.30367 0.0
C1264 C 0.8744 0.91116 0.32411 0.0
C1265 C 0.8413 0.87843 0.31561 0.0
H1266 H 0.91303 0.98173 0.32937 0.0
C1267 C 0.81756 0.89133 0.30677 0.0
H1268 H 0.89394 0.90207 0.33073 0.0
C1269 C 0.82992 0.93717 0.30551 0.0
C1270 C 0.86529 0.97037 0.31336 0.0
H1271 H 0.7928 0.86678 0.29986 0.0
H1272 H 0.81325 0.94688 0.29802 0.0
C1273 C 0.88575 0.95674 0.32316 0.0
C1274 C 0.09646 0.96709 0.32272 0.0
C1275 C 0.1289 0.96681 0.31407 0.0
H1276 H 0.02605 0.93537 0.32817 0.0
C1277 C 0.11543 0.93048 0.30506 0.0
H1278 H 0.10592 0.99546 0.32948 0.0
C1279 C 0.06942 0.89727 0.30384 0.0
C1280 C 0.03656 0.89936 0.31187 0.0
H1281 H 0.13968 0.9303 0.29802 0.0
H1282 H 0.05936 0.87113 0.29625 0.0
C1283 C 0.05073 0.93314 0.32179 0.0
C1284 C 0.81488 0.92775 0.80494 0.0
C1285 C 0.83839 0.96383 0.81399 0.0
H1286 H 0.81043 0.86814 0.79595 0.0
C1287 C 0.87099 0.96342 0.82253 0.0
H1288 H 0.79052 0.92813 0.79799 0.0
C1289 C 0.88205 0.92902 0.82146 0.0
C1290 C 0.86182 0.89548 0.8115 0.0
H1291 H 0.89037 0.99161 0.82931 0.0
H1292 H 0.90893 0.93071 0.82774 0.0
C1293 C 0.82695 0.89407 0.80357 0.0
C1294 C 0.10692 0.93487 0.80375 0.0
C1295 C 0.1053 0.96816 0.8117 0.0
H1296 H 0.07303 0.8645 0.79803 0.0
C1297 C 0.07131 0.95464 0.82154 0.0
H1298 H 0.13317 0.94446 0.79622 0.0
C1299 C 0.03682 0.90915 0.82248 0.0
C1300 C 0.03677 0.87633 0.81393 0.0
H1301 H 0.06941 0.97967 0.82783 0.0
H1302 H 0.0084 0.90019 0.82917 0.0
C1303 C 0.07314 0.8891 0.80499 0.0
C1304 C 0.09222 0.12958 0.8229 0.0
C1305 C 0.12534 0.16245 0.81443 0.0
H1306 H 0.02143 0.09116 0.82793 0.0
C1307 C 0.11277 0.18585 0.80535 0.0
H1308 H 0.10102 0.11025 0.82969 0.0
C1309 C 0.06697 0.17347 0.80387 0.0
C1310 C 0.03343 0.13839 0.81171 0.0
H1311 H 0.13762 0.21041 0.79846 0.0
H1312 H 0.0576 0.18996 0.79623 0.0
C1313 C 0.04667 0.1182 0.82171 0.0
C1314 C 0.92742 0.81462 0.69518 0.0
C1315 C 0.96375 0.83853 0.68624 0.0
H1316 H 0.86777 0.81 0.70419 0.0
C1317 C 0.96373 0.87171 0.67786 0.0
H1318 H 0.9275 0.78979 0.702 0.0
C1319 C 0.92946 0.88294 0.67902 0.0
C1320 C 0.89569 0.86227 0.68891 0.0
H1321 H 0.99211 0.89139 0.67118 0.0
H1322 H 0.93143 0.91023 0.67289 0.0
C1323 C 0.8939 0.82685 0.69664 0.0
C1324 C 0.11744 0.04596 0.67911 0.0
C1325 C 0.13802 0.03261 0.68896 0.0
H1326 H 0.10902 0.10032 0.67139 0.0
C1327 C 0.17319 0.06605 0.6968 0.0
H1328 H 0.09031 0.0208 0.6729 0.0
C1329 C 0.18533 0.11182 0.69546 0.0
C1330 C 0.16161 0.12446 0.68652 0.0
H1331 H 0.18993 0.05658 0.70434 0.0
H1332 H 0.21001 0.13656 0.70235 0.0
C1333 C 0.12859 0.09147 0.67807 0.0
C1334 C 0.88873 0.07285 0.69606 0.0
C1335 C 0.87608 0.03702 0.68692 0.0
H1336 H 0.94397 0.13228 0.70511 0.0
C1337 C 0.90904 0.03757 0.67833 0.0
H1338 H 0.86402 0.07231 0.70306 0.0
C1339 C 0.95453 0.07196 0.67941 0.0
C1340 C 0.96791 0.10533 0.68943 0.0
H1341 H 0.90018 0.00955 0.67148 0.0
H1342 H 0.97966 0.07041 0.67307 0.0
C1343 C 0.9345 0.1065 0.69744 0.0
C1344 C 0.7856 0.40279 0.51184 0.0
C1345 C 0.80556 0.43622 0.52185 0.0
H1346 H 0.77806 0.34065 0.50388 0.0
C1347 C 0.84083 0.4381 0.52967 0.0
H1348 H 0.75846 0.40078 0.50562 0.0
C1349 C 0.85355 0.40493 0.52819 0.0
C1350 C 0.83023 0.3688 0.51914 0.0
H1351 H 0.85718 0.464 0.53731 0.0
H1352 H 0.87818 0.40487 0.5351 0.0
C1353 C 0.7973 0.36885 0.51066 0.0
C1354 C 0.56049 0.39705 0.52972 0.0
C1355 C 0.56227 0.36362 0.52189 0.0
H1356 H 0.5941 0.46759 0.53522 0.0
C1357 C 0.59601 0.37694 0.51199 0.0
H1358 H 0.53438 0.38759 0.53729 0.0
C1359 C 0.63028 0.42247 0.51091 0.0
C1360 C 0.63031 0.45546 0.51937 0.0
H1361 H 0.59798 0.35176 0.50579 0.0
H1362 H 0.65865 0.43133 0.5042 0.0
C1363 C 0.59401 0.44284 0.52833 0.0
C1364 C 0.60247 0.15901 0.52965 0.0
C1365 C 0.63573 0.19393 0.5217 0.0
H1366 H 0.53207 0.1223 0.53532 0.0
C1367 C 0.62215 0.21414 0.5118 0.0
H1368 H 0.61212 0.14256 0.53724 0.0
C1369 C 0.5766 0.20291 0.51081 0.0
C1370 C 0.54379 0.17014 0.51936 0.0
H1371 H 0.64718 0.24109 0.50551 0.0
H1372 H 0.56758 0.22223 0.50408 0.0
C1373 C 0.55665 0.14676 0.52836 0.0
C1374 C 0.70235 0.46222 0.65636 0.0
C1375 C 0.70234 0.49489 0.64774 0.0
H1376 H 0.73485 0.42428 0.66181 0.0
C1377 C 0.73888 0.51845 0.63884 0.0
H1378 H 0.67387 0.44282 0.66303 0.0
C1379 C 0.77265 0.5064 0.63768 0.0
C1380 C 0.77091 0.4715 0.64567 0.0
H1381 H 0.73887 0.54289 0.63185 0.0
H1382 H 0.79895 0.52298 0.63016 0.0
C1383 C 0.73684 0.45118 0.65549 0.0
C1384 C 0.48105 0.22064 0.6383 0.0
C1385 C 0.50411 0.20781 0.64742 0.0
H1386 H 0.47683 0.27604 0.62938 0.0
C1387 C 0.53615 0.24053 0.65615 0.0
H1388 H 0.45715 0.19614 0.63121 0.0
C1389 C 0.54706 0.286 0.65521 0.0
C1390 C 0.52727 0.29961 0.64519 0.0
H1391 H 0.55521 0.23154 0.663 0.0
H1392 H 0.57351 0.31096 0.66164 0.0
C1393 C 0.49297 0.2664 0.63706 0.0
C1394 C 0.73344 0.22732 0.63752 0.0
C1395 C 0.69997 0.22887 0.6454 0.0
H1396 H 0.80402 0.26103 0.63204 0.0
C1397 C 0.71334 0.26227 0.65541 0.0
H1398 H 0.72399 0.20147 0.62987 0.0
C1399 C 0.75891 0.29643 0.65657 0.0
C1400 C 0.79195 0.29675 0.64805 0.0
H1401 H 0.68817 0.26406 0.66167 0.0
H1402 H 0.76777 0.32453 0.66338 0.0
C1403 C 0.77927 0.26074 0.63897 0.0
C1404 C 0.54982 0.26397 0.15578 0.0
C1405 C 0.52989 0.23 0.14593 0.0
H1406 H 0.55703 0.32635 0.16344 0.0
C1407 C 0.49462 0.22765 0.13799 0.0
H1408 H 0.577 0.2664 0.16207 0.0
C1409 C 0.48174 0.26076 0.13925 0.0
C1410 C 0.50482 0.29722 0.14821 0.0
H1411 H 0.47834 0.20137 0.13045 0.0
H1412 H 0.45702 0.26039 0.1323 0.0
C1413 C 0.53793 0.29783 0.15675 0.0
C1414 C 0.74011 0.28799 0.15585 0.0
C1415 C 0.77328 0.30066 0.14579 0.0
H1416 H 0.67767 0.23428 0.16397 0.0
C1417 C 0.77432 0.2667 0.13803 0.0
H1418 H 0.7387 0.31358 0.162 0.0
C1419 C 0.74062 0.22106 0.13964 0.0
C1420 C 0.70482 0.20908 0.14875 0.0
H1421 H 0.79996 0.27563 0.13034 0.0
H1422 H 0.73993 0.19592 0.13279 0.0
C1423 C 0.70564 0.24261 0.15715 0.0
C1424 C 0.71204 0.45072 0.15447 0.0
C1425 C 0.69835 0.47098 0.14461 0.0
H1426 H 0.76656 0.44236 0.16209 0.0
C1427 C 0.73154 0.5056 0.13655 0.0
H1428 H 0.68711 0.42401 0.16084 0.0
C1429 C 0.77733 0.51753 0.13773 0.0
C1430 C 0.79025 0.49415 0.14672 0.0
H1431 H 0.72186 0.52211 0.129 0.0
H1432 H 0.80182 0.54182 0.13071 0.0
C1433 C 0.75753 0.46164 0.15535 0.0
C1434 C 0.62598 0.20183 0.01255 0.0
C1435 C 0.6268 0.16991 0.02129 0.0
H1436 H 0.59271 0.23896 0.00704 0.0
C1437 C 0.59111 0.14703 0.0305 0.0
H1438 H 0.65389 0.22076 0.00565 0.0
C1439 C 0.55723 0.15889 0.03174 0.0
C1440 C 0.55807 0.19295 0.02356 0.0
H1441 H 0.59185 0.12324 0.0376 0.0
H1442 H 0.53152 0.14281 0.03945 0.0
C1443 C 0.59139 0.21268 0.01351 0.0
C1444 C 0.79263 0.42119 0.01041 0.0
C1445 C 0.82604 0.45502 0.01858 0.0
H1446 H 0.75388 0.34998 0.00593 0.0
C1447 C 0.85036 0.44332 0.02759 0.0
H1448 H 0.77267 0.42935 0.00367 0.0
C1449 C 0.83814 0.3977 0.02937 0.0
C1450 C 0.80238 0.36348 0.02189 0.0
H1451 H 0.87541 0.46874 0.03425 0.0
H1452 H 0.85524 0.389 0.037 0.0
C1453 C 0.78142 0.37579 0.01189 0.0
C1454 C 0.59793 0.4371 0.02946 0.0
C1455 C 0.63081 0.43441 0.0216 0.0
H1456 H 0.52768 0.40442 0.03526 0.0
C1457 C 0.61675 0.39979 0.01196 0.0
H1458 H 0.60796 0.46386 0.03684 0.0
C1459 C 0.57107 0.36569 0.01115 0.0
C1460 C 0.53863 0.36667 0.01964 0.0
H1461 H 0.6415 0.3971 0.00574 0.0
H1462 H 0.56166 0.33675 0.00463 0.0
C1463 C 0.55198 0.40372 0.02835 0.0
C1464 C 0.4636 0.70333 0.8448 0.0
C1465 C 0.49617 0.70313 0.85341 0.0
H1466 H 0.4254 0.73568 0.83948 0.0
C1467 C 0.51938 0.73929 0.86245 0.0
H1468 H 0.44445 0.67512 0.83801 0.0
C1469 C 0.50702 0.77278 0.86376 0.0
C1470 C 0.47216 0.77116 0.85578 0.0
H1471 H 0.54373 0.73911 0.86945 0.0
H1472 H 0.52331 0.79877 0.87138 0.0
C1473 C 0.45224 0.73756 0.84581 0.0
C1474 C 0.26159 0.77946 0.86197 0.0
C1475 C 0.29775 0.79226 0.85294 0.0
H1476 H 0.20219 0.72403 0.87096 0.0
C1477 C 0.29764 0.7594 0.84439 0.0
H1478 H 0.26175 0.8041 0.86891 0.0
C1479 C 0.26347 0.71382 0.84547 0.0
C1480 C 0.22991 0.70031 0.85544 0.0
H1481 H 0.3259 0.7684 0.83763 0.0
H1482 H 0.2654 0.68875 0.83921 0.0
C1483 C 0.22817 0.73362 0.86334 0.0
C1484 C 0.26774 0.49327 0.86327 0.0
C1485 C 0.30124 0.5281 0.85535 0.0
H1486 H 0.19728 0.45704 0.8689 0.0
C1487 C 0.28799 0.54853 0.84543 0.0
H1488 H 0.27712 0.47664 0.87086 0.0
C1489 C 0.24256 0.53768 0.8444 0.0
C1490 C 0.20953 0.50509 0.85295 0.0
H1491 H 0.3132 0.5754 0.83915 0.0
H1492 H 0.23382 0.5572 0.83766 0.0
C1493 C 0.22203 0.4814 0.86195 0.0
C1494 C 0.40279 0.85066 0.97267 0.0
C1495 C 0.36614 0.82714 0.98154 0.0
H1496 H 0.46245 0.85459 0.9639 0.0
C1497 C 0.36571 0.79405 0.99006 0.0
H1498 H 0.4031 0.87543 0.96575 0.0
C1499 C 0.39976 0.78243 0.98909 0.0
C1500 C 0.4338 0.80264 0.97926 0.0
H1501 H 0.33712 0.77467 0.99671 0.0
H1502 H 0.3974 0.75517 0.99532 0.0
C1503 C 0.4361 0.83805 0.97141 0.0
C1504 C 0.1578 0.59863 0.97015 0.0
C1505 C 0.19188 0.63186 0.97833 0.0
H1506 H 0.12181 0.52829 0.96437 0.0
C1507 C 0.21124 0.61818 0.98846 0.0
H1508 H 0.14197 0.6083 0.96238 0.0
C1509 C 0.20004 0.57263 0.98952 0.0
C1510 C 0.16813 0.53984 0.98077 0.0
H1511 H 0.23751 0.64313 0.99494 0.0
H1512 H 0.21876 0.56361 0.99648 0.0
C1513 C 0.14556 0.5528 0.97149 0.0
C1514 C 0.44253 0.59176 0.97273 0.0
C1515 C 0.45508 0.62783 0.98177 0.0
H1516 H 0.38738 0.53208 0.96376 0.0
C1517 C 0.4221 0.62733 0.99035 0.0
H1518 H 0.46725 0.59221 0.96575 0.0
C1519 C 0.37664 0.59282 0.98931 0.0
C1520 C 0.36333 0.55929 0.97934 0.0
H1521 H 0.43089 0.65551 0.99712 0.0
H1522 H 0.35146 0.59445 0.9956 0.0
C1523 C 0.3968 0.55799 0.97139 0.0
C1524 C 0.20293 0.62473 0.49047 0.0
C1525 C 0.17061 0.62568 0.48192 0.0
H1526 H 0.24047 0.59152 0.49558 0.0
C1527 C 0.14697 0.58981 0.47281 0.0
H1528 H 0.22237 0.65268 0.49731 0.0
C1529 C 0.15879 0.55596 0.47136 0.0
C1530 C 0.1935 0.55692 0.47925 0.0
H1531 H 0.12279 0.59053 0.46586 0.0
H1532 H 0.14227 0.53029 0.46366 0.0
C1533 C 0.21373 0.59014 0.48931 0.0
C1534 C 0.43953 0.59953 0.46911 0.0
C1535 C 0.43881 0.63244 0.47747 0.0
H1536 H 0.40522 0.52933 0.46317 0.0
C1537 C 0.40588 0.61836 0.48766 0.0
H1538 H 0.46491 0.60949 0.46129 0.0
C1539 C 0.37165 0.57275 0.48865 0.0
C1540 C 0.37077 0.54026 0.47978 0.0
H1541 H 0.40464 0.64305 0.49427 0.0
H1542 H 0.34408 0.5634 0.4957 0.0
C1543 C 0.40603 0.55362 0.47038 0.0
C1544 C 0.40046 0.83736 0.47246 0.0
C1545 C 0.36751 0.80139 0.4802 0.0
H1546 H 0.4708 0.87547 0.46681 0.0
C1547 C 0.38153 0.78082 0.48985 0.0
H1548 H 0.39045 0.85413 0.46509 0.0
C1549 C 0.42729 0.79271 0.49074 0.0
C1550 C 0.4598 0.82642 0.48233 0.0
H1551 H 0.35673 0.7531 0.49598 0.0
H1552 H 0.43671 0.77309 0.49722 0.0
C1553 C 0.44645 0.85024 0.47366 0.0
C1554 C 0.29757 0.53996 0.34303 0.0
C1555 C 0.2968 0.50612 0.35129 0.0
H1556 H 0.26609 0.57931 0.33812 0.0
C1557 C 0.25968 0.48158 0.35992 0.0
H1558 H 0.32653 0.56008 0.33658 0.0
C1559 C 0.22628 0.49401 0.3613 0.0
C1560 C 0.22899 0.53023 0.35377 0.0
H1561 H 0.25908 0.45619 0.36664 0.0
H1562 H 0.19962 0.47679 0.36868 0.0
C1563 C 0.26342 0.5514 0.3441 0.0
C1564 C 0.46297 0.76145 0.34516 0.0
C1565 C 0.49544 0.79363 0.35391 0.0
H1566 H 0.42444 0.69119 0.33955 0.0
C1567 C 0.51761 0.77984 0.36308 0.0
H1568 H 0.44451 0.77118 0.33831 0.0
C1569 C 0.50467 0.7338 0.36424 0.0
C1570 C 0.47019 0.7012 0.35602 0.0
H1571 H 0.54175 0.80393 0.3702 0.0
H1572 H 0.52031 0.72349 0.3719 0.0
C1573 C 0.45103 0.71568 0.34604 0.0
C1574 C 0.29053 0.74357 0.34627 0.0
C1575 C 0.30346 0.77658 0.35639 0.0
H1576 H 0.23667 0.6813 0.33812 0.0
C1577 C 0.2697 0.7772 0.36436 0.0
H1578 H 0.31592 0.74245 0.33995 0.0
C1579 C 0.22404 0.74337 0.36286 0.0
C1580 C 0.21184 0.70787 0.35361 0.0
H1581 H 0.27881 0.80269 0.37211 0.0
H1582 H 0.19907 0.74245 0.36982 0.0
C1583 C 0.24516 0.709 0.34505 0.0
C1584 C 0.30632 0.36248 0.17176 0.0
C1585 C 0.29996 0.35894 0.15783 0.0
H1586 H 0.2745 0.34923 0.19107 0.0
C1587 C 0.25598 0.34269 0.15264 0.0
H1588 H 0.34011 0.37651 0.17601 0.0
C1589 C 0.21855 0.32715 0.16125 0.0
C1590 C 0.22471 0.32829 0.17516 0.0
H1591 H 0.25033 0.34031 0.14193 0.0
H1592 H 0.18463 0.31242 0.15704 0.0
C1593 C 0.26897 0.34735 0.18035 0.0
C1594 C 0.67273 0.89483 0.16212 0.0
C1595 C 0.66842 0.89785 0.17599 0.0
H1596 H 0.66273 0.91516 0.14265 0.0
C1597 C 0.64734 0.92148 0.18093 0.0
H1598 H 0.68925 0.87704 0.15812 0.0
C1599 C 0.63293 0.94382 0.17215 0.0
C1600 C 0.63943 0.94286 0.1583 0.0
H1601 H 0.64329 0.92378 0.1916 0.0
H1602 H 0.61721 0.9623 0.17619 0.0
C1603 C 0.65797 0.91688 0.15332 0.0
C1604 C 0.0488 0.76429 0.16547 0.0
C1605 C 0.08944 0.7758 0.17229 0.0
H1606 H 0.99728 0.71832 0.15193 0.0
C1607 C 0.11123 0.75054 0.16981 0.0
H1608 H 0.03221 0.78425 0.16673 0.0
C1609 C 0.09182 0.71351 0.16096 0.0
C1610 C 0.05003 0.7009 0.1547 0.0
H1611 H 0.14264 0.75881 0.17491 0.0
H1612 H 0.10865 0.6939 0.15932 0.0
C1613 C 0.029 0.72688 0.1569 0.0
C1614 C 0.36683 0.31141 0.3286 0.0
C1615 C 0.36032 0.30394 0.34245 0.0
H1616 H 0.3566 0.28105 0.30914 0.0
C1617 C 0.34179 0.25941 0.34742 0.0
H1618 H 0.38254 0.34562 0.32456 0.0
C1619 C 0.3271 0.2226 0.33862 0.0
C1620 C 0.33146 0.22995 0.32474 0.0
H1621 H 0.33702 0.2529 0.35808 0.0
H1622 H 0.31062 0.1883 0.34262 0.0
C1623 C 0.35248 0.27467 0.31982 0.0
C1624 C 0.74414 0.08899 0.34833 0.0
C1625 C 0.70013 0.06033 0.34329 0.0
H1626 H 0.81527 0.13063 0.34372 0.0
C1627 C 0.6934 0.05646 0.32937 0.0
H1628 H 0.75007 0.09311 0.35902 0.0
C1629 C 0.73045 0.0785 0.32066 0.0
C1630 C 0.77481 0.10457 0.32573 0.0
H1631 H 0.65955 0.03601 0.32522 0.0
H1632 H 0.72464 0.07405 0.30997 0.0
C1633 C 0.78129 0.11072 0.33961 0.0
C1634 C 0.95094 0.7171 0.33553 0.0
C1635 C 0.91044 0.6877 0.3287 0.0
H1636 H 0.00283 0.72312 0.349 0.0
C1637 C 0.88915 0.64064 0.33111 0.0
H1638 H 0.96713 0.75365 0.33432 0.0
C1639 C 0.90901 0.62328 0.33988 0.0
C1640 C 0.95072 0.65276 0.34613 0.0
H1641 H 0.85784 0.61731 0.32599 0.0
H1642 H 0.89262 0.58682 0.34145 0.0
C1643 C 0.97118 0.69977 0.34403 0.0
C1644 C 0.75148 0.63705 0.83073 0.0
C1645 C 0.77697 0.6841 0.82826 0.0
H1646 H 0.69465 0.58313 0.84122 0.0
C1647 C 0.76573 0.71336 0.83512 0.0
H1648 H 0.75953 0.6138 0.8256 0.0
C1649 C 0.72832 0.69591 0.84369 0.0
C1650 C 0.70209 0.64891 0.84587 0.0
H1651 H 0.78585 0.74991 0.83386 0.0
H1652 H 0.71992 0.71917 0.84867 0.0
C1653 C 0.71447 0.61958 0.83959 0.0
C1654 C 0.36778 0.11537 0.82918 0.0
C1655 C 0.32046 0.09635 0.82791 0.0
H1656 H 0.42217 0.10984 0.83838 0.0
C1657 C 0.29138 0.05789 0.8356 0.0
H1658 H 0.39086 0.14496 0.82334 0.0
C1659 C 0.30905 0.0374 0.84389 0.0
C1660 C 0.35621 0.05543 0.84484 0.0
H1661 H 0.25478 0.04337 0.83515 0.0
H1662 H 0.28583 0.00737 0.84955 0.0
C1663 C 0.38558 0.09524 0.8377 0.0
C1664 C 0.94588 0.2351 0.83488 0.0
C1665 C 0.90661 0.22484 0.82749 0.0
H1666 H 0.99666 0.28058 0.84867 0.0
C1667 C 0.88635 0.2519 0.82917 0.0
H1668 H 0.96124 0.21383 0.83417 0.0
C1669 C 0.90619 0.28966 0.83775 0.0
C1670 C 0.94683 0.30111 0.84455 0.0
H1671 H 0.85599 0.24455 0.82361 0.0
H1672 H 0.89067 0.31076 0.83873 0.0
C1673 C 0.96601 0.27307 0.84324 0.0
C1674 C 0.61931 0.71365 0.66142 0.0
C1675 C 0.6485 0.70108 0.65515 0.0
H1676 H 0.61382 0.75905 0.67535 0.0
C1677 C 0.69554 0.72729 0.65726 0.0
H1678 H 0.58283 0.69386 0.65984 0.0
C1679 C 0.71317 0.76488 0.66576 0.0
C1680 C 0.68406 0.77635 0.67261 0.0
H1681 H 0.71869 0.71875 0.65228 0.0
H1682 H 0.74975 0.785 0.66696 0.0
C1683 C 0.63696 0.75086 0.67021 0.0
C1684 C 0.25276 0.88511 0.672 0.0
C1685 C 0.22459 0.90426 0.67331 0.0
H1686 H 0.31237 0.8903 0.66268 0.0
C1687 C 0.23387 0.94261 0.66558 0.0
H1688 H 0.24629 0.85557 0.67786 0.0
C1689 C 0.27183 0.96287 0.65721 0.0
C1690 C 0.30083 0.9447 0.65621 0.0
H1691 H 0.21186 0.95719 0.66605 0.0
H1692 H 0.27859 0.99282 0.65152 0.0
C1693 C 0.29047 0.905 0.6634 0.0
C1694 C 0.11464 0.36543 0.67128 0.0
C1695 C 0.09455 0.31823 0.67326 0.0
H1696 H 0.11011 0.41922 0.66127 0.0
C1697 C 0.05482 0.28871 0.6661 0.0
H1698 H 0.14519 0.38889 0.67669 0.0
C1699 C 0.03426 0.30592 0.65767 0.0
C1700 C 0.05367 0.35298 0.65593 0.0
H1701 H 0.03946 0.25213 0.66703 0.0
H1702 H 0.00324 0.28242 0.65245 0.0
C1703 C 0.09455 0.3827 0.66255 0.0
C1704 C 0.91664 0.6945 0.50366 0.0
C1705 C 0.89072 0.64738 0.50596 0.0
H1706 H 0.97424 0.74849 0.49345 0.0
C1707 C 0.90182 0.61808 0.49907 0.0
H1708 H 0.90867 0.71775 0.50882 0.0
C1709 C 0.93956 0.63554 0.49064 0.0
C1710 C 0.96627 0.68259 0.48865 0.0
H1711 H 0.88135 0.58151 0.5002 0.0
H1712 H 0.94789 0.61226 0.48564 0.0
C1713 C 0.95403 0.71199 0.49494 0.0
C1714 C 0.36241 0.29743 0.49036 0.0
C1715 C 0.31534 0.27798 0.48861 0.0
H1716 H 0.41621 0.29231 0.49975 0.0
C1717 C 0.28565 0.23704 0.49521 0.0
H1718 H 0.38591 0.32846 0.48515 0.0
C1719 C 0.30293 0.21697 0.50395 0.0
C1720 C 0.35012 0.23715 0.50595 0.0
H1721 H 0.24913 0.22142 0.49392 0.0
H1722 H 0.27948 0.18638 0.50935 0.0
C1723 C 0.37963 0.2769 0.49881 0.0
C1724 C 0.72314 0.02279 0.50583 0.0
C1725 C 0.72603 0.02983 0.49193 0.0
H1726 H 0.74151 0.05368 0.52527 0.0
C1727 C 0.75383 0.07406 0.48692 0.0
H1728 H 0.70336 0.9888 0.50994 0.0
C1729 C 0.7757 0.11105 0.49567 0.0
C1730 C 0.77058 0.10422 0.50956 0.0
H1731 H 0.75717 0.08025 0.47623 0.0
H1732 H 0.79494 0.14516 0.4916 0.0
C1733 C 0.74527 0.05972 0.51457 0.0
C1734 C 0.99015 0.55358 0.67337 0.0
C1735 C 0.99391 0.56053 0.65948 0.0
H1736 H 0.00153 0.58454 0.69278 0.0
C1737 C 0.01518 0.6051 0.65444 0.0
H1738 H 0.97351 0.51938 0.67745 0.0
C1739 C 0.03048 0.64214 0.66314 0.0
C1740 C 0.02466 0.63511 0.67702 0.0
H1741 H 0.01883 0.61114 0.64374 0.0
H1742 H 0.04642 0.67626 0.65902 0.0
C1743 C 0.00578 0.59068 0.6821 0.0
C1744 C 0.39406 0.40952 0.65376 0.0
C1745 C 0.43874 0.43355 0.65871 0.0
H1746 H 0.32307 0.36882 0.65849 0.0
C1747 C 0.44596 0.43734 0.67259 0.0
H1748 H 0.38777 0.40668 0.64308 0.0
C1749 C 0.40908 0.41575 0.68139 0.0
C1750 C 0.36459 0.38944 0.67642 0.0
H1751 H 0.48023 0.45546 0.67661 0.0
H1752 H 0.41546 0.41815 0.69207 0.0
C1753 C 0.35725 0.38759 0.66254 0.0
C1754 C 0.55265 0.96788 0.66292 0.0
C1755 C 0.5729 0.01524 0.66137 0.0
H1756 H 0.55696 0.91306 0.67229 0.0
C1757 C 0.61208 0.04405 0.66882 0.0
H1758 H 0.52235 0.94502 0.65732 0.0
C1759 C 0.63216 0.02598 0.67711 0.0
C1760 C 0.61304 0.97872 0.67828 0.0
H1761 H 0.62744 0.0807 0.6682 0.0
H1762 H 0.66274 0.04896 0.6826 0.0
C1763 C 0.57245 0.94971 0.67142 0.0
C1764 C 0.39293 0.02461 0.17698 0.0
C1765 C 0.36348 0.97742 0.17756 0.0
H1766 H 0.454 0.07934 0.16877 0.0
C1767 C 0.37421 0.94848 0.17031 0.0
H1768 H 0.38592 0.04748 0.18276 0.0
C1769 C 0.41277 0.96676 0.16204 0.0
C1770 C 0.44143 0.01414 0.16115 0.0
H1771 H 0.35199 0.91187 0.17071 0.0
H1772 H 0.41955 0.94405 0.15611 0.0
C1773 C 0.4317 0.04275 0.16894 0.0
C1774 C 0.98632 0.43566 0.17277 0.0
C1775 C 0.9931 0.43456 0.15896 0.0
H1776 H 0.99364 0.41338 0.19223 0.0
C1777 C 0.01612 0.41266 0.15418 0.0
H1778 H 0.96828 0.45211 0.17663 0.0
C1779 C 0.03022 0.39024 0.16304 0.0
C1780 C 0.02107 0.389 0.1768 0.0
H1781 H 0.02196 0.41177 0.14356 0.0
H1782 H 0.04771 0.37336 0.15911 0.0
C1783 C 0.00047 0.41327 0.18164 0.0
C1784 C 0.54975 0.58322 0.16383 0.0
C1785 C 0.57019 0.55651 0.16171 0.0
H1786 H 0.55365 0.64083 0.17412 0.0
C1787 C 0.60985 0.5666 0.16888 0.0
H1788 H 0.51922 0.57617 0.15842 0.0
C1789 C 0.63001 0.60393 0.17748 0.0
C1790 C 0.61026 0.63122 0.17937 0.0
H1791 H 0.62546 0.54565 0.16783 0.0
H1792 H 0.66102 0.61143 0.18271 0.0
C1793 C 0.56945 0.62013 0.17274 0.0
C1794 C 0.35765 0.06005 0.99121 0.0
C1795 C 0.31063 0.0325 0.98932 0.0
H1796 H 0.41116 0.11858 0.00082 0.0
C1797 C 0.28073 0.04336 0.99595 0.0
H1798 H 0.3813 0.05275 0.98598 0.0
C1799 C 0.29774 0.0803 0.00484 0.0
C1800 C 0.34488 0.1073 0.00695 0.0
H1801 H 0.24424 0.02247 0.99456 0.0
H1802 H 0.27413 0.08718 0.01025 0.0
C1803 C 0.37461 0.09741 0.99979 0.0
C1804 C 0.89834 0.2787 0.9993 0.0
C1805 C 0.88725 0.23829 0.00619 0.0
H1806 H 0.9442 0.33047 0.98579 0.0
C1807 C 0.91305 0.217 0.00381 0.0
H1808 H 0.87799 0.2949 0.00048 0.0
C1809 C 0.95025 0.23677 0.99501 0.0
C1810 C 0.96249 0.27843 0.98872 0.0
H1811 H 0.90514 0.1858 0.00898 0.0
H1812 H 0.97031 0.22036 0.99346 0.0
C1813 C 0.93592 0.29887 0.99079 0.0
C1814 C 0.72105 0.62176 0.99835 0.0
C1815 C 0.75938 0.65044 0.00614 0.0
H1816 H 0.67067 0.61695 0.98448 0.0
C1817 C 0.77836 0.69782 0.00513 0.0
H1818 H 0.70659 0.58515 0.99862 0.0
C1819 C 0.75828 0.71606 0.99676 0.0
C1820 C 0.71858 0.68705 0.98953 0.0
H1821 H 0.80787 0.72058 0.01104 0.0
H1822 H 0.77282 0.75267 0.99628 0.0
C1823 C 0.70062 0.63986 0.99022 0.0
C1824 C 0.60635 0.97409 0.82385 0.0
C1825 C 0.63406 0.02133 0.82246 0.0
H1826 H 0.54751 0.91946 0.83303 0.0
C1827 C 0.62245 0.05039 0.82926 0.0
H1828 H 0.614 0.95105 0.81841 0.0
C1829 C 0.58485 0.03233 0.83791 0.0
C1830 C 0.55813 0.98501 0.83966 0.0
H1831 H 0.64329 0.08702 0.82823 0.0
H1832 H 0.57735 0.05526 0.84345 0.0
C1833 C 0.56855 0.95611 0.83228 0.0
C1834 C 0.951 0.57316 0.82955 0.0
C1835 C 0.97992 0.61396 0.82277 0.0
H1836 H 0.94643 0.52288 0.84357 0.0
C1837 C 0.02719 0.6334 0.82403 0.0
H1838 H 0.91435 0.55741 0.82861 0.0
C1839 C 0.04535 0.61337 0.83231 0.0
C1840 C 0.01661 0.57389 0.83966 0.0
H1841 H 0.05013 0.66414 0.8186 0.0
H1842 H 0.08202 0.62893 0.83297 0.0
C1843 C 0.96925 0.5534 0.83804 0.0
C1844 C 0.43848 0.4468 0.8283 0.0
C1845 C 0.43497 0.43953 0.84218 0.0
H1846 H 0.41891 0.41636 0.80883 0.0
C1847 C 0.41113 0.39484 0.84713 0.0
H1848 H 0.45645 0.48108 0.82429 0.0
C1849 C 0.3891 0.35804 0.83834 0.0
C1850 C 0.39061 0.36542 0.82448 0.0
H1851 H 0.40848 0.38853 0.85781 0.0
H1852 H 0.3705 0.32386 0.8424 0.0
C1853 C 0.41675 0.40993 0.8195 0.0
C1854 C 0.69503 0.91576 0.99697 0.0
C1855 C 0.64766 0.889 0.99535 0.0
H1856 H 0.75003 0.97447 0.00644 0.0
C1857 C 0.61899 0.8996 0.00278 0.0
H1858 H 0.71779 0.90814 0.99138 0.0
C1859 C 0.63723 0.93761 0.01113 0.0
C1860 C 0.68452 0.96538 0.01237 0.0
H1861 H 0.58231 0.87855 0.00212 0.0
H1862 H 0.61435 0.94537 0.01661 0.0
C1863 C 0.71337 0.95359 0.00552 0.0
C1864 C 0.07288 0.74587 0.01436 0.0
C1865 C 0.02843 0.72013 0.00931 0.0
H1866 H 0.1441 0.78555 0.00967 0.0
C1867 C 0.02124 0.71921 0.99544 0.0
H1868 H 0.07915 0.74754 0.02503 0.0
C1869 C 0.05818 0.74146 0.98672 0.0
C1870 C 0.10279 0.76498 0.99173 0.0
H1871 H 0.9871 0.7009 0.99135 0.0
H1872 H 0.05203 0.73929 0.97603 0.0
C1873 C 0.10987 0.76785 0.00562 0.0
C1874 C 0.22622 0.34043 0.00655 0.0
C1875 C 0.22988 0.33714 0.99265 0.0
H1876 H 0.24549 0.32882 0.02597 0.0
C1877 C 0.25376 0.31644 0.98763 0.0
H1878 H 0.20821 0.35662 0.01062 0.0
C1879 C 0.27569 0.30137 0.99636 0.0
C1880 C 0.27397 0.30671 0.01024 0.0
H1881 H 0.2565 0.31308 0.97694 0.0
H1882 H 0.29436 0.28594 0.99224 0.0
C1883 C 0.2478 0.32494 0.01529 0.0
C1884 C 0.07991 0.33052 0.51605 0.0
C1885 C 0.03499 0.30897 0.51121 0.0
H1886 H 0.15101 0.36355 0.51103 0.0
C1887 C 0.02716 0.29905 0.49749 0.0
H1888 H 0.08679 0.33794 0.52662 0.0
C1889 C 0.06375 0.31331 0.48864 0.0
C1890 C 0.10866 0.33723 0.4934 0.0
H1891 H 0.99278 0.28083 0.49357 0.0
H1892 H 0.05704 0.3069 0.47803 0.0
C1893 C 0.11653 0.34481 0.50719 0.0
C1894 C 0.62448 0.72064 0.50116 0.0
C1895 C 0.65377 0.75965 0.49371 0.0
H1896 H 0.6186 0.66968 0.51499 0.0
C1897 C 0.70106 0.77899 0.49521 0.0
H1898 H 0.58788 0.70589 0.50056 0.0
C1899 C 0.71865 0.75873 0.50375 0.0
C1900 C 0.68912 0.71848 0.51068 0.0
H1901 H 0.72429 0.80906 0.48957 0.0
H1902 H 0.75523 0.77366 0.50463 0.0
C1903 C 0.64196 0.70004 0.50947 0.0
C1904 C 0.2303 0.88492 0.50673 0.0
C1905 C 0.23416 0.89123 0.49281 0.0
H1906 H 0.24952 0.91672 0.52604 0.0
C1907 C 0.25817 0.93554 0.48761 0.0
H1908 H 0.21217 0.85092 0.51094 0.0
C1909 C 0.28009 0.97293 0.49618 0.0
C1910 C 0.27826 0.96651 0.5101 0.0
H1911 H 0.26107 0.9411 0.47689 0.0
H1912 H 0.29891 0.00682 0.49193 0.0
C1913 C 0.2519 0.92238 0.51533 0.0
C1914 C 0.00063 0.41474 0.31826 0.0
C1915 C 0.97897 0.37003 0.3233 0.0
H1916 H 0.03428 0.4861 0.32296 0.0
C1917 C 0.96954 0.36303 0.33706 0.0
H1918 H 0.00784 0.4211 0.30767 0.0
C1919 C 0.98439 0.4001 0.34574 0.0
C1920 C 0.0084 0.4447 0.34078 0.0
H1921 H 0.9511 0.32899 0.34118 0.0
H1922 H 0.97839 0.39399 0.35639 0.0
C1923 C 0.01546 0.45184 0.32695 0.0
C1924 C 0.56884 0.61266 0.33298 0.0
C1925 C 0.55908 0.57404 0.34065 0.0
H1926 H 0.61437 0.66333 0.31916 0.0
C1927 C 0.58753 0.55514 0.33955 0.0
H1928 H 0.54667 0.62708 0.3333 0.0
C1929 C 0.62586 0.57543 0.33119 0.0
C1930 C 0.63657 0.6153 0.32404 0.0
H1931 H 0.5807 0.52541 0.34536 0.0
H1932 H 0.64787 0.56083 0.33061 0.0
C1933 C 0.60739 0.63329 0.32485 0.0
C1934 C 0.36984 0.9747 0.32407 0.0
C1935 C 0.38985 0.02162 0.32188 0.0
H1936 H 0.37443 0.92137 0.33396 0.0
C1937 C 0.43122 0.05154 0.32823 0.0
H1938 H 0.33843 0.951 0.31906 0.0
C1939 C 0.4512 0.0347 0.33717 0.0
C1940 C 0.43049 0.98769 0.3396 0.0
H1941 H 0.44727 0.08795 0.32661 0.0
H1942 H 0.48217 0.05838 0.34236 0.0
C1943 C 0.39027 0.95788 0.3327 0.0
C1944 C 0.98579 0.22145 0.25611 0.0
C1945 C 0.97197 0.1789 0.26208 0.0
H1946 H 0.02167 0.2672 0.23996 0.0
C1947 C 0.98583 0.15008 0.2562 0.0
H1948 H 0.97618 0.2447 0.26048 0.0
C1949 C 0.01309 0.16358 0.24471 0.0
C1950 C 0.02658 0.20592 0.23866 0.0
H1951 H 0.97658 0.11744 0.26065 0.0
H1952 H 0.02268 0.14026 0.2404 0.0
C1953 C 0.01234 0.23459 0.24445 0.0
C1954 C 0.7635 0.78021 0.24605 0.0
C1955 C 0.79166 0.82281 0.24001 0.0
H1956 H 0.75545 0.73425 0.26199 0.0
C1957 C 0.83507 0.85138 0.24549 0.0
H1958 H 0.73009 0.75715 0.24198 0.0
C1959 C 0.85018 0.83761 0.25661 0.0
C1960 C 0.82197 0.79524 0.26274 0.0
H1961 H 0.85804 0.88403 0.24096 0.0
H1962 H 0.88369 0.86079 0.2606 0.0
C1963 C 0.77826 0.76683 0.2574 0.0
C1964 C 0.14915 0.98588 0.24449 0.0
C1965 C 0.17727 0.97153 0.2384 0.0
H1966 H 0.1415 0.02488 0.26004 0.0
C1967 C 0.22099 0.98685 0.24375 0.0
H1968 H 0.11564 0.97553 0.2405 0.0
C1969 C 0.23587 0.01526 0.25504 0.0
C1970 C 0.20784 0.02996 0.26102 0.0
H1971 H 0.24373 0.97693 0.23919 0.0
H1972 H 0.2693 0.02565 0.2591 0.0
C1973 C 0.16439 0.01503 0.25556 0.0
C1974 C 0.98449 0.83479 0.7557 0.0
C1975 C 0.97012 0.79201 0.76158 0.0
H1976 H 0.02342 0.88222 0.74031 0.0
C1977 C 0.98524 0.76378 0.75598 0.0
H1978 H 0.97432 0.85784 0.75988 0.0
C1979 C 0.01348 0.77781 0.74464 0.0
C1980 C 0.02826 0.8209 0.7389 0.0
H1981 H 0.9753 0.73089 0.76038 0.0
H1982 H 0.02374 0.75494 0.74037 0.0
C1983 C 0.01352 0.84921 0.74462 0.0
C1984 C 0.16648 0.15167 0.75619 0.0
C1985 C 0.20935 0.1802 0.76199 0.0
H1986 H 0.11899 0.14266 0.74078 0.0
C1987 C 0.23772 0.22323 0.75622 0.0
H1988 H 0.14334 0.11869 0.7605 0.0
C1989 C 0.22373 0.23699 0.74478 0.0
C1990 C 0.18053 0.20857 0.73911 0.0
H1991 H 0.2707 0.24625 0.76056 0.0
H1992 H 0.24668 0.26987 0.74037 0.0
C1993 C 0.1521 0.16585 0.74501 0.0
C1994 C 0.77881 0.01449 0.75584 0.0
C1995 C 0.82198 0.0294 0.76154 0.0
H1996 H 0.73158 0.97579 0.74023 0.0
C1997 C 0.85013 0.01435 0.75588 0.0
H1998 H 0.75605 0.02494 0.76009 0.0
C1999 C 0.83546 0.98492 0.74489 0.0
C2000 C 0.79259 0.97041 0.73906 0.0
H2001 H 0.8832 0.02433 0.76015 0.0
H2002 H 0.8584 0.97455 0.74074 0.0
C2003 C 0.76453 0.98582 0.7446 0.0
C2004 C 0.65253 0.48164 0.58915 0.0
C2005 C 0.63745 0.50993 0.59469 0.0
H2006 H 0.69194 0.47277 0.57399 0.0
C2007 C 0.65174 0.55262 0.58873 0.0
H2008 H 0.64298 0.44894 0.59362 0.0
C2009 C 0.67993 0.56635 0.5774 0.0
C2010 C 0.69543 0.5382 0.57198 0.0
H2011 H 0.64122 0.57548 0.59286 0.0
H2012 H 0.68956 0.59898 0.57287 0.0
C2013 C 0.68146 0.49576 0.57804 0.0
C2014 C 0.51733 0.16704 0.58911 0.0
C2015 C 0.4891 0.1241 0.59492 0.0
H2016 H 0.52597 0.21435 0.57368 0.0
C2017 C 0.44622 0.09536 0.58911 0.0
H2018 H 0.55018 0.19047 0.59345 0.0
C2019 C 0.4323 0.1091 0.57764 0.0
C2020 C 0.46041 0.15238 0.57199 0.0
H2021 H 0.42342 0.06231 0.59344 0.0
H2022 H 0.39955 0.08588 0.57322 0.0
C2023 C 0.503 0.18116 0.57791 0.0
C2024 C 0.90232 0.34877 0.58957 0.0
C2025 C 0.87363 0.36319 0.59524 0.0
H2026 H 0.91203 0.31119 0.5739 0.0
C2027 C 0.83092 0.34875 0.5893 0.0
H2028 H 0.93521 0.35882 0.59399 0.0
C2029 C 0.81704 0.32026 0.57807 0.0
C2030 C 0.84582 0.3061 0.57233 0.0
H2031 H 0.80757 0.35845 0.59353 0.0
H2032 H 0.78409 0.31021 0.5737 0.0
C2033 C 0.88879 0.32099 0.57817 0.0
C2034 C 0.68292 0.18415 0.07928 0.0
C2035 C 0.69671 0.15534 0.07336 0.0
H2036 H 0.64478 0.19335 0.09476 0.0
C2037 C 0.68147 0.11205 0.07902 0.0
H2038 H 0.69321 0.21735 0.07506 0.0
C2039 C 0.65361 0.09824 0.09044 0.0
C2040 C 0.63933 0.12692 0.0962 0.0
H2041 H 0.69098 0.0888 0.0746 0.0
H2042 H 0.64319 0.06512 0.09474 0.0
C2043 C 0.65428 0.16997 0.09044 0.0
C2044 C 0.88666 0.56493 0.07675 0.0
C2045 C 0.84329 0.53665 0.07119 0.0
H2046 H 0.93396 0.57422 0.09239 0.0
C2047 C 0.81479 0.49403 0.07716 0.0
H2048 H 0.90968 0.5977 0.0723 0.0
C2049 C 0.8293 0.47994 0.08835 0.0
C2050 C 0.87236 0.50843 0.09404 0.0
H2051 H 0.78153 0.47095 0.07299 0.0
H2052 H 0.80612 0.44715 0.09276 0.0
C2053 C 0.90081 0.55122 0.08815 0.0
C2054 C 0.42731 0.31885 0.07844 0.0
C2055 C 0.45563 0.30407 0.0727 0.0
H2056 H 0.41841 0.35671 0.09425 0.0
C2057 C 0.49855 0.31856 0.07849 0.0
H2058 H 0.39429 0.30878 0.07411 0.0
C2059 C 0.513 0.34729 0.08963 0.0
C2060 C 0.48458 0.36161 0.09551 0.0
H2061 H 0.52167 0.30864 0.0742 0.0
H2062 H 0.54614 0.35727 0.09386 0.0
C2063 C 0.44136 0.34676 0.08985 0.0
C2064 C 0.31836 0.88726 0.92246 0.0
C2065 C 0.30398 0.84434 0.92827 0.0
H2066 H 0.35644 0.93426 0.90675 0.0
C2067 C 0.31928 0.81634 0.92265 0.0
H2068 H 0.30767 0.9099 0.92665 0.0
C2069 C 0.34844 0.83094 0.91158 0.0
C2070 C 0.36245 0.8736 0.90565 0.0
H2071 H 0.30967 0.78348 0.927 0.0
H2072 H 0.35905 0.80815 0.90745 0.0
C2073 C 0.34679 0.90148 0.91117 0.0
C2074 C 0.16908 0.51677 0.91155 0.0
C2075 C 0.12655 0.48846 0.90552 0.0
H2076 H 0.21578 0.52501 0.92716 0.0
C2077 C 0.09815 0.44495 0.911 0.0
H2078 H 0.19225 0.55012 0.90746 0.0
C2079 C 0.11172 0.43049 0.92236 0.0
C2080 C 0.15447 0.45874 0.9283 0.0
H2081 H 0.06545 0.42206 0.90649 0.0
H2082 H 0.08866 0.39723 0.92653 0.0
C2083 C 0.18302 0.50196 0.9227 0.0
C2084 C 0.49544 0.6808 0.92308 0.0
C2085 C 0.53792 0.69498 0.92914 0.0
H2086 H 0.44886 0.64238 0.90744 0.0
C2087 C 0.56641 0.68001 0.92366 0.0
H2088 H 0.47221 0.69089 0.92717 0.0
C2089 C 0.55296 0.65206 0.91228 0.0
C2090 C 0.51023 0.63751 0.90632 0.0
H2091 H 0.59909 0.68981 0.92818 0.0
H2092 H 0.57607 0.64191 0.90812 0.0
C2093 C 0.48161 0.65212 0.9119 0.0
C2094 C 0.34299 0.44258 0.41031 0.0
C2095 C 0.35741 0.48583 0.40474 0.0
H2096 H 0.30581 0.3952 0.42603 0.0
C2097 C 0.34266 0.51379 0.41071 0.0
H2098 H 0.35324 0.41996 0.40585 0.0
C2099 C 0.31424 0.49899 0.42194 0.0
C2100 C 0.30049 0.45616 0.42768 0.0
H2101 H 0.35229 0.54691 0.40654 0.0
H2102 H 0.3042 0.52183 0.42635 0.0
C2103 C 0.31533 0.42816 0.42176 0.0
C2104 C 0.55912 0.90597 0.41172 0.0
C2105 C 0.5153 0.87901 0.40625 0.0
H2106 H 0.6061 0.91325 0.4273 0.0
C2107 C 0.48555 0.83703 0.41235 0.0
H2108 H 0.58306 0.93822 0.40717 0.0
C2109 C 0.49932 0.82203 0.42348 0.0
C2110 C 0.5429 0.84898 0.42904 0.0
H2111 H 0.45183 0.81495 0.40831 0.0
H2112 H 0.47522 0.78963 0.42794 0.0
C2113 C 0.57252 0.89142 0.42313 0.0
C2114 C 0.11591 0.67955 0.4232 0.0
C2115 C 0.15871 0.69347 0.42901 0.0
H2116 H 0.06923 0.64291 0.40732 0.0
C2117 C 0.18695 0.67884 0.42316 0.0
H2118 H 0.09308 0.68972 0.42755 0.0
C2119 C 0.17268 0.65082 0.41183 0.0
C2120 C 0.13011 0.63733 0.40592 0.0
H2121 H 0.21974 0.68813 0.42751 0.0
H2122 H 0.19561 0.64075 0.4075 0.0
C2123 C 0.10198 0.65221 0.41172 0.0
loop_
_geom_bond_atom_site_label_1
_geom_bond_atom_site_label_2
_geom_bond_distance
_geom_bond_site_symmetry_2
_ccdc_geom_bond_type
Co0 O3 1.970 . S
Co0 N17 1.989 . S
Co0 O25 1.967 . S
Co0 O32 1.920 . S
Co1 O4 1.966 . S
Co1 N10 2.022 . S
Co1 N18 1.993 . S
Co1 O26 1.941 . S
C2 O3 1.258 . S
C2 O4 1.263 . S
O3 Co0 1.970 . S
O3 C2 1.258 . S
O4 Co1 1.966 . S
O4 C2 1.263 . S
C5 O6 1.235 . S
C5 O32 1.289 . S
O6 C5 1.235 . S
C7 C9 1.400 . S
C7 N10 1.351 . S
C7 C12 1.501 1_455 S
C8 C9 1.387 . S
C8 N11 1.341 . S
C9 C7 1.400 . S
C9 C8 1.387 . S
N10 Co1 2.022 . S
N10 C7 1.351 . S
N10 N11 1.365 . S
N11 C8 1.341 . S
N11 N10 1.365 . S
N11 H31 0.862 . S
C12 C7 1.501 1_655 S
C12 H13 0.961 . S
C12 H14 0.961 1_655 S
C12 H15 0.960 . S
H13 C12 0.961 . S
H14 C12 0.961 1_455 S
H15 C12 0.960 . S
C16 N17 1.342 . S
C16 C20 1.401 . S
C16 C21 1.499 . S
N17 Co0 1.989 . S
N17 C16 1.342 . S
N17 N18 1.388 . S
N18 Co1 1.993 . S
N18 N17 1.388 . S
N18 C19 1.346 . S
C19 N18 1.346 . S
C19 C20 1.396 . S
C19 C29 1.510 . S
C20 C16 1.401 . S
C20 C19 1.396 . S
C21 C16 1.499 . S
C21 H22 0.959 . S
C21 H23 0.960 . S
C21 H24 0.961 . S
H22 C21 0.959 . S
H23 C21 0.960 . S
H24 C21 0.961 . S
O25 Co0 1.967 . S
O25 C33 1.258 . S
O26 Co1 1.941 . S
O26 C33 1.266 . S
H27 C29 0.959 . S
H28 C29 0.961 . S
C29 C19 1.510 . S
C29 H27 0.959 . S
C29 H28 0.961 . S
C29 H30 0.960 . S
H30 C29 0.960 . S
H31 N11 0.862 . S
O32 Co0 1.920 . S
O32 C5 1.289 . S
C33 O25 1.258 . S
C33 O26 1.266 . S
Co34 O37 1.970 . S
Co34 N51 1.989 . S
Co34 O59 1.967 . S
Co34 O66 1.920 . S
Co35 O38 1.966 . S
Co35 N44 2.022 . S
Co35 N52 1.993 . S
Co35 O60 1.941 . S
C36 O37 1.258 . S
C36 O38 1.263 . S
O37 Co34 1.970 . S
O37 C36 1.258 . S
O38 Co35 1.966 . S
O38 C36 1.263 . S
C39 O40 1.235 1_545 S
C39 O66 1.289 1_545 S
O40 C39 1.235 1_565 S
C41 C43 1.400 . S
C41 N44 1.351 . S
C41 C46 1.501 . S
C42 C43 1.387 . S
C42 N45 1.341 . S
C43 C41 1.400 . S
C43 C42 1.387 . S
N44 Co35 2.022 . S
N44 C41 1.351 . S
N44 N45 1.365 . S
N45 C42 1.341 . S
N45 N44 1.365 . S
N45 H65 0.862 . S
C46 C41 1.501 . S
C46 H47 0.961 . S
C46 H48 0.961 . S
C46 H49 0.960 . S
H47 C46 0.961 . S
H48 C46 0.961 . S
H49 C46 0.960 . S
C50 N51 1.342 . S
C50 C54 1.401 . S
C50 C55 1.499 . S
N51 Co34 1.989 . S
N51 C50 1.342 . S
N51 N52 1.388 . S
N52 Co35 1.993 . S
N52 N51 1.388 . S
N52 C53 1.346 . S
C53 N52 1.346 . S
C53 C54 1.396 . S
C53 C63 1.510 . S
C54 C50 1.401 . S
C54 C53 1.396 . S
C55 C50 1.499 . S
C55 H56 0.959 . S
C55 H57 0.960 . S
C55 H58 0.961 . S
H56 C55 0.959 . S
H57 C55 0.960 . S
H58 C55 0.961 . S
O59 Co34 1.967 . S
O59 C67 1.258 . S
O60 Co35 1.941 . S
O60 C67 1.266 . S
H61 C63 0.959 . S
H62 C63 0.961 . S
C63 C53 1.510 . S
C63 H61 0.959 . S
C63 H62 0.961 . S
C63 H64 0.960 . S
H64 C63 0.960 . S
H65 N45 0.862 . S
O66 Co34 1.920 . S
O66 C39 1.289 1_565 S
C67 O59 1.258 . S
C67 O60 1.266 . S
Co68 O71 1.970 . S
Co68 N85 1.989 . S
Co68 O93 1.967 . S
Co68 O100 1.920 . S
Co69 O72 1.966 . S
Co69 N78 2.022 . S
Co69 N86 1.993 . S
Co69 O94 1.941 . S
C70 O71 1.258 . S
C70 O72 1.263 . S
O71 Co68 1.970 . S
O71 C70 1.258 . S
O72 Co69 1.966 . S
O72 C70 1.263 . S
C73 O74 1.235 1_655 S
C73 O100 1.289 1_655 S
O74 C73 1.235 1_455 S
C75 C77 1.400 . S
C75 N78 1.351 . S
C75 C80 1.501 1_565 S
C76 C77 1.387 . S
C76 N79 1.341 . S
C77 C75 1.400 . S
C77 C76 1.387 . S
N78 Co69 2.022 . S
N78 C75 1.351 . S
N78 N79 1.365 . S
N79 C76 1.341 . S
N79 N78 1.365 . S
N79 H99 0.862 . S
C80 C75 1.501 1_545 S
C80 H81 0.961 . S
C80 H82 0.961 1_545 S
C80 H83 0.960 . S
H81 C80 0.961 . S
H82 C80 0.961 1_565 S
H83 C80 0.960 . S
C84 N85 1.342 . S
C84 C88 1.401 . S
C84 C89 1.499 . S
N85 Co68 1.989 . S
N85 C84 1.342 . S
N85 N86 1.388 . S
N86 Co69 1.993 . S
N86 N85 1.388 . S
N86 C87 1.346 . S
C87 N86 1.346 . S
C87 C88 1.396 . S
C87 C97 1.510 . S
C88 C84 1.401 . S
C88 C87 1.396 . S
C89 C84 1.499 . S
C89 H90 0.959 . S
C89 H91 0.960 . S
C89 H92 0.961 . S
H90 C89 0.959 . S
H91 C89 0.960 . S
H92 C89 0.961 . S
O93 Co68 1.967 . S
O93 C101 1.258 . S
O94 Co69 1.941 . S
O94 C101 1.266 . S
H95 C97 0.959 . S
H96 C97 0.961 . S
C97 C87 1.510 . S
C97 H95 0.959 . S
C97 H96 0.961 . S
C97 H98 0.960 . S
H98 C97 0.960 . S
H99 N79 0.862 . S
O100 Co68 1.920 . S
O100 C73 1.289 1_455 S
C101 O93 1.258 . S
C101 O94 1.266 . S
Co102 O105 1.970 . S
Co102 N119 1.989 . S
Co102 O127 1.967 . S
Co102 O134 1.920 . S
Co103 O106 1.966 . S
Co103 N112 2.022 . S
Co103 N120 1.993 . S
Co103 O128 1.941 . S
C104 O105 1.258 . S
C104 O106 1.263 . S
O105 Co102 1.970 . S
O105 C104 1.258 . S
O106 Co103 1.966 . S
O106 C104 1.263 . S
C107 O108 1.235 . S
C107 O134 1.289 . S
O108 C107 1.235 . S
C109 C111 1.400 . S
C109 N112 1.351 . S
C109 C114 1.501 1_545 S
C110 C111 1.387 . S
C110 N113 1.341 . S
C111 C109 1.400 . S
C111 C110 1.387 . S
N112 Co103 2.022 . S
N112 C109 1.351 . S
N112 N113 1.365 . S
N113 C110 1.341 . S
N113 N112 1.365 . S
N113 H133 0.862 . S
C114 C109 1.501 1_565 S
C114 H115 0.961 . S
C114 H116 0.961 1_565 S
C114 H117 0.960 . S
H115 C114 0.961 . S
H116 C114 0.961 1_545 S
H117 C114 0.960 . S
C118 N119 1.342 . S
C118 C122 1.401 . S
C118 C123 1.499 . S
N119 Co102 1.989 . S
N119 C118 1.342 . S
N119 N120 1.388 . S
N120 Co103 1.993 . S
N120 N119 1.388 . S
N120 C121 1.346 . S
C121 N120 1.346 . S
C121 C122 1.396 . S
C121 C131 1.510 . S
C122 C118 1.401 . S
C122 C121 1.396 . S
C123 C118 1.499 . S
C123 H124 0.959 . S
C123 H125 0.960 . S
C123 H126 0.961 . S
H124 C123 0.959 . S
H125 C123 0.960 . S
H126 C123 0.961 . S
O127 Co102 1.967 . S
O127 C135 1.258 . S
O128 Co103 1.941 . S
O128 C135 1.266 . S
H129 C131 0.959 . S
H130 C131 0.961 . S
C131 C121 1.510 . S
C131 H129 0.959 . S
C131 H130 0.961 . S
C131 H132 0.960 . S
H132 C131 0.960 . S
H133 N113 0.862 . S
O134 Co102 1.920 . S
O134 C107 1.289 . S
C135 O127 1.258 . S
C135 O128 1.266 . S
Co136 O139 1.970 . S
Co136 N153 1.989 . S
Co136 O161 1.967 . S
Co136 O168 1.920 . S
Co137 O140 1.966 . S
Co137 N146 2.022 . S
Co137 N154 1.993 . S
Co137 O162 1.941 . S
C138 O139 1.258 . S
C138 O140 1.263 . S
O139 Co136 1.970 . S
O139 C138 1.258 . S
O140 Co137 1.966 . S
O140 C138 1.263 . S
C141 O142 1.235 1_565 S
C141 O168 1.289 1_565 S
O142 C141 1.235 1_545 S
C143 C145 1.400 . S
C143 N146 1.351 . S
C143 C148 1.501 1_655 S
C144 C145 1.387 . S
C144 N147 1.341 . S
C145 C143 1.400 . S
C145 C144 1.387 . S
N146 Co137 2.022 . S
N146 C143 1.351 . S
N146 N147 1.365 . S
N147 C144 1.341 . S
N147 N146 1.365 . S
N147 H167 0.862 . S
C148 C143 1.501 1_455 S
C148 H149 0.961 . S
C148 H150 0.961 1_455 S
C148 H151 0.960 . S
H149 C148 0.961 . S
H150 C148 0.961 1_655 S
H151 C148 0.960 . S
C152 N153 1.342 . S
C152 C156 1.401 . S
C152 C157 1.499 . S
N153 Co136 1.989 . S
N153 C152 1.342 . S
N153 N154 1.388 . S
N154 Co137 1.993 . S
N154 N153 1.388 . S
N154 C155 1.346 . S
C155 N154 1.346 . S
C155 C156 1.396 . S
C155 C165 1.510 . S
C156 C152 1.401 . S
C156 C155 1.396 . S
C157 C152 1.499 . S
C157 H158 0.959 . S
C157 H159 0.960 . S
C157 H160 0.961 . S
H158 C157 0.959 . S
H159 C157 0.960 . S
H160 C157 0.961 . S
O161 Co136 1.967 . S
O161 C169 1.258 . S
O162 Co137 1.941 . S
O162 C169 1.266 . S
H163 C165 0.959 . S
H164 C165 0.961 . S
C165 C155 1.510 . S
C165 H163 0.959 . S
C165 H164 0.961 . S
C165 H166 0.960 . S
H166 C165 0.960 . S
H167 N147 0.862 . S
O168 Co136 1.920 . S
O168 C141 1.289 1_545 S
C169 O161 1.258 . S
C169 O162 1.266 . S
Co170 O173 1.970 . S
Co170 N187 1.989 . S
Co170 O195 1.967 . S
Co170 O202 1.920 . S
Co171 O174 1.966 . S
Co171 N180 2.022 . S
Co171 N188 1.993 . S
Co171 O196 1.941 . S
C172 O173 1.258 . S
C172 O174 1.263 . S
O173 Co170 1.970 . S
O173 C172 1.258 . S
O174 Co171 1.966 . S
O174 C172 1.263 . S
C175 O176 1.235 1_455 S
C175 O202 1.289 1_455 S
O176 C175 1.235 1_655 S
C177 C179 1.400 . S
C177 N180 1.351 . S
C177 C182 1.501 . S
C178 C179 1.387 . S
C178 N181 1.341 . S
C179 C177 1.400 . S
C179 C178 1.387 . S
N180 Co171 2.022 . S
N180 C177 1.351 . S
N180 N181 1.365 . S
N181 C178 1.341 . S
N181 N180 1.365 . S
N181 H201 0.862 . S
C182 C177 1.501 . S
C182 H183 0.961 . S
C182 H184 0.961 . S
C182 H185 0.960 . S
H183 C182 0.961 . S
H184 C182 0.961 . S
H185 C182 0.960 . S
C186 N187 1.342 . S
C186 C190 1.401 . S
C186 C191 1.499 . S
N187 Co170 1.989 . S
N187 C186 1.342 . S
N187 N188 1.388 . S
N188 Co171 1.993 . S
N188 N187 1.388 . S
N188 C189 1.346 . S
C189 N188 1.346 . S
C189 C190 1.396 . S
C189 C199 1.510 . S
C190 C186 1.401 . S
C190 C189 1.396 . S
C191 C186 1.499 . S
C191 H192 0.959 . S
C191 H193 0.960 . S
C191 H194 0.961 . S
H192 C191 0.959 . S
H193 C191 0.960 . S
H194 C191 0.961 . S
O195 Co170 1.967 . S
O195 C203 1.258 . S
O196 Co171 1.941 . S
O196 C203 1.266 . S
H197 C199 0.959 . S
H198 C199 0.961 . S
C199 C189 1.510 . S
C199 H197 0.959 . S
C199 H198 0.961 . S
C199 H200 0.960 . S
H200 C199 0.960 . S
H201 N181 0.862 . S
O202 Co170 1.920 . S
O202 C175 1.289 1_655 S
C203 O195 1.258 . S
C203 O196 1.266 . S
Co204 O207 1.970 . S
Co204 N221 1.989 . S
Co204 O229 1.967 . S
Co204 O236 1.920 . S
Co205 O208 1.966 . S
Co205 N214 2.022 . S
Co205 N222 1.993 . S
Co205 O230 1.941 . S
C206 O207 1.258 . S
C206 O208 1.263 . S
O207 Co204 1.970 . S
O207 C206 1.258 . S
O208 Co205 1.966 . S
O208 C206 1.263 . S
C209 O210 1.235 . S
C209 O236 1.289 . S
O210 C209 1.235 . S
C211 C213 1.400 . S
C211 N214 1.351 . S
C211 C216 1.501 1_655 S
C212 C213 1.387 . S
C212 N215 1.341 . S
C213 C211 1.400 . S
C213 C212 1.387 . S
N214 Co205 2.022 . S
N214 C211 1.351 . S
N214 N215 1.365 . S
N215 C212 1.341 . S
N215 N214 1.365 . S
N215 H235 0.862 . S
C216 C211 1.501 1_455 S
C216 H217 0.961 . S
C216 H218 0.961 1_455 S
C216 H219 0.960 . S
H217 C216 0.961 . S
H218 C216 0.961 1_655 S
H219 C216 0.960 . S
C220 N221 1.342 . S
C220 C224 1.401 . S
C220 C225 1.499 . S
N221 Co204 1.989 . S
N221 C220 1.342 . S
N221 N222 1.388 . S
N222 Co205 1.993 . S
N222 N221 1.388 . S
N222 C223 1.346 . S
C223 N222 1.346 . S
C223 C224 1.396 . S
C223 C233 1.510 . S
C224 C220 1.401 . S
C224 C223 1.396 . S
C225 C220 1.499 . S
C225 H226 0.959 . S
C225 H227 0.960 . S
C225 H228 0.961 . S
H226 C225 0.959 . S
H227 C225 0.960 . S
H228 C225 0.961 . S
O229 Co204 1.967 . S
O229 C237 1.258 . S
O230 Co205 1.941 . S
O230 C237 1.266 . S
H231 C233 0.959 . S
H232 C233 0.961 . S
C233 C223 1.510 . S
C233 H231 0.959 . S
C233 H232 0.961 . S
C233 H234 0.960 . S
H234 C233 0.960 . S
H235 N215 0.862 . S
O236 Co204 1.920 . S
O236 C209 1.289 . S
C237 O229 1.258 . S
C237 O230 1.266 . S
Co238 O241 1.970 . S
Co238 N255 1.989 . S
Co238 O263 1.967 . S
Co238 O270 1.920 . S
Co239 O242 1.966 . S
Co239 N248 2.022 . S
Co239 N256 1.993 . S
Co239 O264 1.941 . S
C240 O241 1.258 . S
C240 O242 1.263 . S
O241 Co238 1.970 . S
O241 C240 1.258 . S
O242 Co239 1.966 . S
O242 C240 1.263 . S
C243 O244 1.235 1_565 S
C243 O270 1.289 1_565 S
O244 C243 1.235 1_545 S
C245 C247 1.400 . S
C245 N248 1.351 . S
C245 C250 1.501 . S
C246 C247 1.387 . S
C246 N249 1.341 . S
C247 C245 1.400 . S
C247 C246 1.387 . S
N248 Co239 2.022 . S
N248 C245 1.351 . S
N248 N249 1.365 . S
N249 C246 1.341 . S
N249 N248 1.365 . S
N249 H269 0.862 . S
C250 C245 1.501 . S
C250 H251 0.961 . S
C250 H252 0.961 . S
C250 H253 0.960 . S
H251 C250 0.961 . S
H252 C250 0.961 . S
H253 C250 0.960 . S
C254 N255 1.342 . S
C254 C258 1.401 . S
C254 C259 1.499 . S
N255 Co238 1.989 . S
N255 C254 1.342 . S
N255 N256 1.388 . S
N256 Co239 1.993 . S
N256 N255 1.388 . S
N256 C257 1.346 . S
C257 N256 1.346 . S
C257 C258 1.396 . S
C257 C267 1.510 . S
C258 C254 1.401 . S
C258 C257 1.396 . S
C259 C254 1.499 . S
C259 H260 0.959 . S
C259 H261 0.960 . S
C259 H262 0.961 . S
H260 C259 0.959 . S
H261 C259 0.960 . S
H262 C259 0.961 . S
O263 Co238 1.967 . S
O263 C271 1.258 . S
O264 Co239 1.941 . S
O264 C271 1.266 . S
H265 C267 0.959 . S
H266 C267 0.961 . S
C267 C257 1.510 . S
C267 H265 0.959 . S
C267 H266 0.961 . S
C267 H268 0.960 . S
H268 C267 0.960 . S
H269 N249 0.862 . S
O270 Co238 1.920 . S
O270 C243 1.289 1_545 S
C271 O263 1.258 . S
C271 O264 1.266 . S
Co272 O275 1.970 . S
Co272 N289 1.989 . S
Co272 O297 1.967 . S
Co272 O304 1.920 . S
Co273 O276 1.966 . S
Co273 N282 2.022 . S
Co273 N290 1.993 . S
Co273 O298 1.941 . S
C274 O275 1.258 . S
C274 O276 1.263 . S
O275 Co272 1.970 . S
O275 C274 1.258 . S
O276 Co273 1.966 . S
O276 C274 1.263 . S
C277 O278 1.235 1_455 S
C277 O304 1.289 1_455 S
O278 C277 1.235 1_655 S
C279 C281 1.400 . S
C279 N282 1.351 . S
C279 C284 1.501 1_545 S
C280 C281 1.387 . S
C280 N283 1.341 . S
C281 C279 1.400 . S
C281 C280 1.387 . S
N282 Co273 2.022 . S
N282 C279 1.351 . S
N282 N283 1.365 . S
N283 C280 1.341 . S
N283 N282 1.365 . S
N283 H303 0.862 . S
C284 C279 1.501 1_565 S
C284 H285 0.961 . S
C284 H286 0.961 1_565 S
C284 H287 0.960 . S
H285 C284 0.961 . S
H286 C284 0.961 1_545 S
H287 C284 0.960 . S
C288 N289 1.342 . S
C288 C292 1.401 . S
C288 C293 1.499 . S
N289 Co272 1.989 . S
N289 C288 1.342 . S
N289 N290 1.388 . S
N290 Co273 1.993 . S
N290 N289 1.388 . S
N290 C291 1.346 . S
C291 N290 1.346 . S
C291 C292 1.396 . S
C291 C301 1.510 . S
C292 C288 1.401 . S
C292 C291 1.396 . S
C293 C288 1.499 . S
C293 H294 0.959 . S
C293 H295 0.960 . S
C293 H296 0.961 . S
H294 C293 0.959 . S
H295 C293 0.960 . S
H296 C293 0.961 . S
O297 Co272 1.967 . S
O297 C305 1.258 . S
O298 Co273 1.941 . S
O298 C305 1.266 . S
H299 C301 0.959 . S
H300 C301 0.961 . S
C301 C291 1.510 . S
C301 H299 0.959 . S
C301 H300 0.961 . S
C301 H302 0.960 . S
H302 C301 0.960 . S
H303 N283 0.862 . S
O304 Co272 1.920 . S
O304 C277 1.289 1_655 S
C305 O297 1.258 . S
C305 O298 1.266 . S
Co306 O309 1.970 . S
Co306 N323 1.989 . S
Co306 O331 1.967 . S
Co306 O338 1.920 . S
Co307 O310 1.966 . S
Co307 N316 2.022 . S
Co307 N324 1.993 . S
Co307 O332 1.941 . S
C308 O309 1.258 . S
C308 O310 1.263 . S
O309 Co306 1.970 . S
O309 C308 1.258 . S
O310 Co307 1.966 . S
O310 C308 1.263 . S
C311 O312 1.235 . S
C311 O338 1.289 . S
O312 C311 1.235 . S
C313 C315 1.400 . S
C313 N316 1.351 . S
C313 C318 1.501 1_565 S
C314 C315 1.387 . S
C314 N317 1.341 . S
C315 C313 1.400 . S
C315 C314 1.387 . S
N316 Co307 2.022 . S
N316 C313 1.351 . S
N316 N317 1.365 . S
N317 C314 1.341 . S
N317 N316 1.365 . S
N317 H337 0.862 . S
C318 C313 1.501 1_545 S
C318 H319 0.961 . S
C318 H320 0.961 1_545 S
C318 H321 0.960 . S
H319 C318 0.961 . S
H320 C318 0.961 1_565 S
H321 C318 0.960 . S
C322 N323 1.342 . S
C322 C326 1.401 . S
C322 C327 1.499 . S
N323 Co306 1.989 . S
N323 C322 1.342 . S
N323 N324 1.388 . S
N324 Co307 1.993 . S
N324 N323 1.388 . S
N324 C325 1.346 . S
C325 N324 1.346 . S
C325 C326 1.396 . S
C325 C335 1.510 . S
C326 C322 1.401 . S
C326 C325 1.396 . S
C327 C322 1.499 . S
C327 H328 0.959 . S
C327 H329 0.960 . S
C327 H330 0.961 . S
H328 C327 0.959 . S
H329 C327 0.960 . S
H330 C327 0.961 . S
O331 Co306 1.967 . S
O331 C339 1.258 . S
O332 Co307 1.941 . S
O332 C339 1.266 . S
H333 C335 0.959 . S
H334 C335 0.961 . S
C335 C325 1.510 . S
C335 H333 0.959 . S
C335 H334 0.961 . S
C335 H336 0.960 . S
H336 C335 0.960 . S
H337 N317 0.862 . S
O338 Co306 1.920 . S
O338 C311 1.289 . S
C339 O331 1.258 . S
C339 O332 1.266 . S
Co340 O343 1.970 . S
Co340 N357 1.989 . S
Co340 O365 1.967 . S
Co340 O372 1.920 . S
Co341 O344 1.966 . S
Co341 N350 2.022 . S
Co341 N358 1.993 . S
Co341 O366 1.941 . S
C342 O343 1.258 . S
C342 O344 1.263 . S
O343 Co340 1.970 . S
O343 C342 1.258 . S
O344 Co341 1.966 . S
O344 C342 1.263 . S
C345 O346 1.235 1_545 S
C345 O372 1.289 1_545 S
O346 C345 1.235 1_565 S
C347 C349 1.400 . S
C347 N350 1.351 . S
C347 C352 1.501 1_455 S
C348 C349 1.387 . S
C348 N351 1.341 . S
C349 C347 1.400 . S
C349 C348 1.387 . S
N350 Co341 2.022 . S
N350 C347 1.351 . S
N350 N351 1.365 . S
N351 C348 1.341 . S
N351 N350 1.365 . S
N351 H371 0.862 . S
C352 C347 1.501 1_655 S
C352 H353 0.961 . S
C352 H354 0.961 1_655 S
C352 H355 0.960 . S
H353 C352 0.961 . S
H354 C352 0.961 1_455 S
H355 C352 0.960 . S
C356 N357 1.342 . S
C356 C360 1.401 . S
C356 C361 1.499 . S
N357 Co340 1.989 . S
N357 C356 1.342 . S
N357 N358 1.388 . S
N358 Co341 1.993 . S
N358 N357 1.388 . S
N358 C359 1.346 . S
C359 N358 1.346 . S
C359 C360 1.396 . S
C359 C369 1.510 . S
C360 C356 1.401 . S
C360 C359 1.396 . S
C361 C356 1.499 . S
C361 H362 0.959 . S
C361 H363 0.960 . S
C361 H364 0.961 . S
H362 C361 0.959 . S
H363 C361 0.960 . S
H364 C361 0.961 . S
O365 Co340 1.967 . S
O365 C373 1.258 . S
O366 Co341 1.941 . S
O366 C373 1.266 . S
H367 C369 0.959 . S
H368 C369 0.961 . S
C369 C359 1.510 . S
C369 H367 0.959 . S
C369 H368 0.961 . S
C369 H370 0.960 . S
H370 C369 0.960 . S
H371 N351 0.862 . S
O372 Co340 1.920 . S
O372 C345 1.289 1_565 S
C373 O365 1.258 . S
C373 O366 1.266 . S
Co374 O377 1.970 . S
Co374 N391 1.989 . S
Co374 O399 1.967 . S
Co374 O406 1.920 . S
Co375 O378 1.966 . S
Co375 N384 2.022 . S
Co375 N392 1.993 . S
Co375 O400 1.941 . S
C376 O377 1.258 . S
C376 O378 1.263 . S
O377 Co374 1.970 . S
O377 C376 1.258 . S
O378 Co375 1.966 . S
O378 C376 1.263 . S
C379 O380 1.235 1_655 S
C379 O406 1.289 1_655 S
O380 C379 1.235 1_455 S
C381 C383 1.400 . S
C381 N384 1.351 . S
C381 C386 1.501 . S
C382 C383 1.387 . S
C382 N385 1.341 . S
C383 C381 1.400 . S
C383 C382 1.387 . S
N384 Co375 2.022 . S
N384 C381 1.351 . S
N384 N385 1.365 . S
N385 C382 1.341 . S
N385 N384 1.365 . S
N385 H405 0.862 . S
C386 C381 1.501 . S
C386 H387 0.961 . S
C386 H388 0.961 . S
C386 H389 0.960 . S
H387 C386 0.961 . S
H388 C386 0.961 . S
H389 C386 0.960 . S
C390 N391 1.342 . S
C390 C394 1.401 . S
C390 C395 1.499 . S
N391 Co374 1.989 . S
N391 C390 1.342 . S
N391 N392 1.388 . S
N392 Co375 1.993 . S
N392 N391 1.388 . S
N392 C393 1.346 . S
C393 N392 1.346 . S
C393 C394 1.396 . S
C393 C403 1.510 . S
C394 C390 1.401 . S
C394 C393 1.396 . S
C395 C390 1.499 . S
C395 H396 0.959 . S
C395 H397 0.960 . S
C395 H398 0.961 . S
H396 C395 0.959 . S
H397 C395 0.960 . S
H398 C395 0.961 . S
O399 Co374 1.967 . S
O399 C407 1.258 . S
O400 Co375 1.941 . S
O400 C407 1.266 . S
H401 C403 0.959 . S
H402 C403 0.961 . S
C403 C393 1.510 . S
C403 H401 0.959 . S
C403 H402 0.961 . S
C403 H404 0.960 . S
H404 C403 0.960 . S
H405 N385 0.862 . S
O406 Co374 1.920 . S
O406 C379 1.289 1_455 S
C407 O399 1.258 . S
C407 O400 1.266 . S
Co408 O411 1.970 . S
Co408 N425 1.989 . S
Co408 O433 1.967 . S
Co408 O440 1.920 . S
Co409 O412 1.966 . S
Co409 N418 2.022 . S
Co409 N426 1.993 . S
Co409 O434 1.941 . S
C410 O411 1.258 . S
C410 O412 1.263 . S
O411 Co408 1.970 . S
O411 C410 1.258 . S
O412 Co409 1.966 . S
O412 C410 1.263 . S
C413 O414 1.235 . S
C413 O440 1.289 . S
O414 C413 1.235 . S
C415 C417 1.400 . S
C415 N418 1.351 . S
C415 C420 1.501 . S
C416 C417 1.387 . S
C416 N419 1.341 . S
C417 C415 1.400 . S
C417 C416 1.387 . S
N418 Co409 2.022 . S
N418 C415 1.351 . S
N418 N419 1.365 . S
N419 C416 1.341 . S
N419 N418 1.365 . S
N419 H439 0.862 . S
C420 C415 1.501 . S
C420 H421 0.961 . S
C420 H422 0.961 . S
C420 H423 0.960 . S
H421 C420 0.961 . S
H422 C420 0.961 . S
H423 C420 0.960 . S
C424 N425 1.342 . S
C424 C428 1.401 . S
C424 C429 1.499 . S
N425 Co408 1.989 . S
N425 C424 1.342 . S
N425 N426 1.388 . S
N426 Co409 1.993 . S
N426 N425 1.388 . S
N426 C427 1.346 . S
C427 N426 1.346 . S
C427 C428 1.396 . S
C427 C437 1.510 . S
C428 C424 1.401 . S
C428 C427 1.396 . S
C429 C424 1.499 . S
C429 H430 0.959 . S
C429 H431 0.960 . S
C429 H432 0.961 . S
H430 C429 0.959 . S
H431 C429 0.960 . S
H432 C429 0.961 . S
O433 Co408 1.967 . S
O433 C441 1.258 . S
O434 Co409 1.941 . S
O434 C441 1.266 . S
H435 C437 0.959 . S
H436 C437 0.961 . S
C437 C427 1.510 . S
C437 H435 0.959 . S
C437 H436 0.961 . S
C437 H438 0.960 . S
H438 C437 0.960 . S
H439 N419 0.862 . S
O440 Co408 1.920 . S
O440 C413 1.289 . S
C441 O433 1.258 . S
C441 O434 1.266 . S
Co442 O445 1.970 . S
Co442 N459 1.989 . S
Co442 O467 1.967 . S
Co442 O474 1.920 . S
Co443 O446 1.966 . S
Co443 N452 2.022 . S
Co443 N460 1.993 . S
Co443 O468 1.941 . S
C444 O445 1.258 . S
C444 O446 1.263 . S
O445 Co442 1.970 . S
O445 C444 1.258 . S
O446 Co443 1.966 . S
O446 C444 1.263 . S
C447 O448 1.235 . S
C447 O474 1.289 . S
O448 C447 1.235 . S
C449 C451 1.400 . S
C449 N452 1.351 . S
C449 C454 1.501 . S
C450 C451 1.387 . S
C450 N453 1.341 . S
C451 C449 1.400 . S
C451 C450 1.387 . S
N452 Co443 2.022 . S
N452 C449 1.351 . S
N452 N453 1.365 . S
N453 C450 1.341 . S
N453 N452 1.365 . S
N453 H473 0.862 . S
C454 C449 1.501 . S
C454 H455 0.961 . S
C454 H456 0.961 . S
C454 H457 0.960 . S
H455 C454 0.961 . S
H456 C454 0.961 . S
H457 C454 0.960 . S
C458 N459 1.342 . S
C458 C462 1.401 . S
C458 C463 1.499 . S
N459 Co442 1.989 . S
N459 C458 1.342 . S
N459 N460 1.388 . S
N460 Co443 1.993 . S
N460 N459 1.388 . S
N460 C461 1.346 . S
C461 N460 1.346 . S
C461 C462 1.396 . S
C461 C471 1.510 . S
C462 C458 1.401 . S
C462 C461 1.396 . S
C463 C458 1.499 . S
C463 H464 0.959 . S
C463 H465 0.960 . S
C463 H466 0.961 . S
H464 C463 0.959 . S
H465 C463 0.960 . S
H466 C463 0.961 . S
O467 Co442 1.967 . S
O467 C475 1.258 . S
O468 Co443 1.941 . S
O468 C475 1.266 . S
H469 C471 0.959 . S
H470 C471 0.961 . S
C471 C461 1.510 . S
C471 H469 0.959 . S
C471 H470 0.961 . S
C471 H472 0.960 . S
H472 C471 0.960 . S
H473 N453 0.862 . S
O474 Co442 1.920 . S
O474 C447 1.289 . S
C475 O467 1.258 . S
C475 O468 1.266 . S
Co476 O479 1.970 . S
Co476 N493 1.989 . S
Co476 O501 1.967 . S
Co476 O508 1.920 . S
Co477 O480 1.966 . S
Co477 N486 2.022 . S
Co477 N494 1.993 . S
Co477 O502 1.941 . S
C478 O479 1.258 . S
C478 O480 1.263 . S
O479 Co476 1.970 . S
O479 C478 1.258 . S
O480 Co477 1.966 . S
O480 C478 1.263 . S
C481 O482 1.235 . S
C481 O508 1.289 . S
O482 C481 1.235 . S
C483 C485 1.400 . S
C483 N486 1.351 . S
C483 C488 1.501 . S
C484 C485 1.387 . S
C484 N487 1.341 . S
C485 C483 1.400 . S
C485 C484 1.387 . S
N486 Co477 2.022 . S
N486 C483 1.351 . S
N486 N487 1.365 . S
N487 C484 1.341 . S
N487 N486 1.365 . S
N487 H507 0.862 . S
C488 C483 1.501 . S
C488 H489 0.961 . S
C488 H490 0.961 . S
C488 H491 0.960 . S
H489 C488 0.961 . S
H490 C488 0.961 . S
H491 C488 0.960 . S
C492 N493 1.342 . S
C492 C496 1.401 . S
C492 C497 1.499 . S
N493 Co476 1.989 . S
N493 C492 1.342 . S
N493 N494 1.388 . S
N494 Co477 1.993 . S
N494 N493 1.388 . S
N494 C495 1.346 . S
C495 N494 1.346 . S
C495 C496 1.396 . S
C495 C505 1.510 . S
C496 C492 1.401 . S
C496 C495 1.396 . S
C497 C492 1.499 . S
C497 H498 0.959 . S
C497 H499 0.960 . S
C497 H500 0.961 . S
H498 C497 0.959 . S
H499 C497 0.960 . S
H500 C497 0.961 . S
O501 Co476 1.967 . S
O501 C509 1.258 . S
O502 Co477 1.941 . S
O502 C509 1.266 . S
H503 C505 0.959 . S
H504 C505 0.961 . S
C505 C495 1.510 . S
C505 H503 0.959 . S
C505 H504 0.961 . S
C505 H506 0.960 . S
H506 C505 0.960 . S
H507 N487 0.862 . S
O508 Co476 1.920 . S
O508 C481 1.289 . S
C509 O501 1.258 . S
C509 O502 1.266 . S
Co510 O513 1.970 . S
Co510 N527 1.989 . S
Co510 O535 1.967 . S
Co510 O542 1.920 . S
Co511 O514 1.966 . S
Co511 N520 2.022 . S
Co511 N528 1.993 . S
Co511 O536 1.941 . S
C512 O513 1.258 . S
C512 O514 1.263 . S
O513 Co510 1.970 . S
O513 C512 1.258 . S
O514 Co511 1.966 . S
O514 C512 1.263 . S
C515 O516 1.235 . S
C515 O542 1.289 . S
O516 C515 1.235 . S
C517 C519 1.400 1_655 S
C517 N520 1.351 . S
C517 C522 1.501 . S
C518 C519 1.387 . S
C518 N521 1.341 . S
C519 C517 1.400 1_455 S
C519 C518 1.387 . S
N520 Co511 2.022 . S
N520 C517 1.351 . S
N520 N521 1.365 1_655 S
N521 C518 1.341 . S
N521 N520 1.365 1_455 S
N521 H541 0.862 . S
C522 C517 1.501 . S
C522 H523 0.961 . S
C522 H524 0.961 . S
C522 H525 0.960 . S
H523 C522 0.961 . S
H524 C522 0.961 . S
H525 C522 0.960 . S
C526 N527 1.342 . S
C526 C530 1.401 . S
C526 C531 1.499 . S
N527 Co510 1.989 . S
N527 C526 1.342 . S
N527 N528 1.388 . S
N528 Co511 1.993 . S
N528 N527 1.388 . S
N528 C529 1.346 . S
C529 N528 1.346 . S
C529 C530 1.396 . S
C529 C539 1.510 1_655 S
C530 C526 1.401 . S
C530 C529 1.396 . S
C531 C526 1.499 . S
C531 H532 0.959 . S
C531 H533 0.960 . S
C531 H534 0.961 . S
H532 C531 0.959 . S
H533 C531 0.960 . S
H534 C531 0.961 . S
O535 Co510 1.967 . S
O535 C543 1.258 . S
O536 Co511 1.941 . S
O536 C543 1.266 . S
H537 C539 0.959 . S
H538 C539 0.961 . S
C539 C529 1.510 1_455 S
C539 H537 0.959 . S
C539 H538 0.961 . S
C539 H540 0.960 . S
H540 C539 0.960 . S
H541 N521 0.862 . S
O542 Co510 1.920 . S
O542 C515 1.289 . S
C543 O535 1.258 . S
C543 O536 1.266 . S
Co544 O547 1.970 . S
Co544 N561 1.989 . S
Co544 O569 1.967 . S
Co544 O576 1.920 . S
Co545 O548 1.966 . S
Co545 N554 2.022 . S
Co545 N562 1.993 . S
Co545 O570 1.941 . S
C546 O547 1.258 . S
C546 O548 1.263 . S
O547 Co544 1.970 . S
O547 C546 1.258 . S
O548 Co545 1.966 . S
O548 C546 1.263 . S
C549 O550 1.235 . S
C549 O576 1.289 . S
O550 C549 1.235 . S
C551 C553 1.400 . S
C551 N554 1.351 . S
C551 C556 1.501 . S
C552 C553 1.387 . S
C552 N555 1.341 . S
C553 C551 1.400 . S
C553 C552 1.387 . S
N554 Co545 2.022 . S
N554 C551 1.351 . S
N554 N555 1.365 . S
N555 C552 1.341 . S
N555 N554 1.365 . S
N555 H575 0.862 . S
C556 C551 1.501 . S
C556 H557 0.961 . S
C556 H558 0.961 . S
C556 H559 0.960 . S
H557 C556 0.961 . S
H558 C556 0.961 . S
H559 C556 0.960 . S
C560 N561 1.342 . S
C560 C564 1.401 . S
C560 C565 1.499 . S
N561 Co544 1.989 . S
N561 C560 1.342 . S
N561 N562 1.388 . S
N562 Co545 1.993 . S
N562 N561 1.388 . S
N562 C563 1.346 . S
C563 N562 1.346 . S
C563 C564 1.396 . S
C563 C573 1.510 . S
C564 C560 1.401 . S
C564 C563 1.396 . S
C565 C560 1.499 . S
C565 H566 0.959 . S
C565 H567 0.960 . S
C565 H568 0.961 . S
H566 C565 0.959 . S
H567 C565 0.960 . S
H568 C565 0.961 . S
O569 Co544 1.967 . S
O569 C577 1.258 . S
O570 Co545 1.941 . S
O570 C577 1.266 . S
H571 C573 0.959 . S
H572 C573 0.961 . S
C573 C563 1.510 . S
C573 H571 0.959 . S
C573 H572 0.961 . S
C573 H574 0.960 . S
H574 C573 0.960 . S
H575 N555 0.862 . S
O576 Co544 1.920 . S
O576 C549 1.289 . S
C577 O569 1.258 . S
C577 O570 1.266 . S
Co578 O581 1.970 . S
Co578 N595 1.989 . S
Co578 O603 1.967 . S
Co578 O610 1.920 . S
Co579 O582 1.966 . S
Co579 N588 2.022 . S
Co579 N596 1.993 . S
Co579 O604 1.941 . S
C580 O581 1.258 . S
C580 O582 1.263 . S
O581 Co578 1.970 . S
O581 C580 1.258 . S
O582 Co579 1.966 . S
O582 C580 1.263 . S
C583 O584 1.235 . S
C583 O610 1.289 . S
O584 C583 1.235 . S
C585 C587 1.400 1_545 S
C585 N588 1.351 . S
C585 C590 1.501 . S
C586 C587 1.387 . S
C586 N589 1.341 . S
C587 C585 1.400 1_565 S
C587 C586 1.387 . S
N588 Co579 2.022 . S
N588 C585 1.351 . S
N588 N589 1.365 1_545 S
N589 C586 1.341 . S
N589 N588 1.365 1_565 S
N589 H609 0.862 . S
C590 C585 1.501 . S
C590 H591 0.961 . S
C590 H592 0.961 . S
C590 H593 0.960 . S
H591 C590 0.961 . S
H592 C590 0.961 . S
H593 C590 0.960 . S
C594 N595 1.342 . S
C594 C598 1.401 . S
C594 C599 1.499 . S
N595 Co578 1.989 . S
N595 C594 1.342 . S
N595 N596 1.388 . S
N596 Co579 1.993 . S
N596 N595 1.388 . S
N596 C597 1.346 . S
C597 N596 1.346 . S
C597 C598 1.396 . S
C597 C607 1.510 1_545 S
C598 C594 1.401 . S
C598 C597 1.396 . S
C599 C594 1.499 . S
C599 H600 0.959 . S
C599 H601 0.960 . S
C599 H602 0.961 . S
H600 C599 0.959 . S
H601 C599 0.960 . S
H602 C599 0.961 . S
O603 Co578 1.967 . S
O603 C611 1.258 . S
O604 Co579 1.941 . S
O604 C611 1.266 . S
H605 C607 0.959 . S
H606 C607 0.961 . S
C607 C597 1.510 1_565 S
C607 H605 0.959 . S
C607 H606 0.961 . S
C607 H608 0.960 . S
H608 C607 0.960 . S
H609 N589 0.862 . S
O610 Co578 1.920 . S
O610 C583 1.289 . S
C611 O603 1.258 . S
C611 O604 1.266 . S
Co612 O615 1.970 . S
Co612 N629 1.989 . S
Co612 O637 1.967 . S
Co612 O644 1.920 . S
Co613 O616 1.966 . S
Co613 N622 2.022 . S
Co613 N630 1.993 . S
Co613 O638 1.941 . S
C614 O615 1.258 . S
C614 O616 1.263 . S
O615 Co612 1.970 . S
O615 C614 1.258 . S
O616 Co613 1.966 . S
O616 C614 1.263 . S
C617 O618 1.235 . S
C617 O644 1.289 . S
O618 C617 1.235 . S
C619 C621 1.400 1_545 S
C619 N622 1.351 . S
C619 C624 1.501 . S
C620 C621 1.387 . S
C620 N623 1.341 . S
C621 C619 1.400 1_565 S
C621 C620 1.387 . S
N622 Co613 2.022 . S
N622 C619 1.351 . S
N622 N623 1.365 1_545 S
N623 C620 1.341 . S
N623 N622 1.365 1_565 S
N623 H643 0.862 . S
C624 C619 1.501 . S
C624 H625 0.961 . S
C624 H626 0.961 . S
C624 H627 0.960 . S
H625 C624 0.961 . S
H626 C624 0.961 . S
H627 C624 0.960 . S
C628 N629 1.342 . S
C628 C632 1.401 . S
C628 C633 1.499 . S
N629 Co612 1.989 . S
N629 C628 1.342 . S
N629 N630 1.388 . S
N630 Co613 1.993 . S
N630 N629 1.388 . S
N630 C631 1.346 . S
C631 N630 1.346 . S
C631 C632 1.396 . S
C631 C641 1.510 1_545 S
C632 C628 1.401 . S
C632 C631 1.396 . S
C633 C628 1.499 . S
C633 H634 0.959 . S
C633 H635 0.960 . S
C633 H636 0.961 . S
H634 C633 0.959 . S
H635 C633 0.960 . S
H636 C633 0.961 . S
O637 Co612 1.967 . S
O637 C645 1.258 . S
O638 Co613 1.941 . S
O638 C645 1.266 . S
H639 C641 0.959 . S
H640 C641 0.961 . S
C641 C631 1.510 1_565 S
C641 H639 0.959 . S
C641 H640 0.961 . S
C641 H642 0.960 . S
H642 C641 0.960 . S
H643 N623 0.862 . S
O644 Co612 1.920 . S
O644 C617 1.289 . S
C645 O637 1.258 . S
C645 O638 1.266 . S
Co646 O649 1.970 . S
Co646 N663 1.989 . S
Co646 O671 1.967 . S
Co646 O678 1.920 . S
Co647 O650 1.966 . S
Co647 N656 2.022 . S
Co647 N664 1.993 . S
Co647 O672 1.941 . S
C648 O649 1.258 . S
C648 O650 1.263 . S
O649 Co646 1.970 . S
O649 C648 1.258 . S
O650 Co647 1.966 . S
O650 C648 1.263 . S
C651 O652 1.235 . S
C651 O678 1.289 . S
O652 C651 1.235 . S
C653 C655 1.400 1_655 S
C653 N656 1.351 . S
C653 C658 1.501 . S
C654 C655 1.387 . S
C654 N657 1.341 . S
C655 C653 1.400 1_455 S
C655 C654 1.387 . S
N656 Co647 2.022 . S
N656 C653 1.351 . S
N656 N657 1.365 1_655 S
N657 C654 1.341 . S
N657 N656 1.365 1_455 S
N657 H677 0.862 . S
C658 C653 1.501 . S
C658 H659 0.961 . S
C658 H660 0.961 . S
C658 H661 0.960 . S
H659 C658 0.961 . S
H660 C658 0.961 . S
H661 C658 0.960 . S
C662 N663 1.342 . S
C662 C666 1.401 . S
C662 C667 1.499 . S
N663 Co646 1.989 . S
N663 C662 1.342 . S
N663 N664 1.388 . S
N664 Co647 1.993 . S
N664 N663 1.388 . S
N664 C665 1.346 . S
C665 N664 1.346 . S
C665 C666 1.396 . S
C665 C675 1.510 1_655 S
C666 C662 1.401 . S
C666 C665 1.396 . S
C667 C662 1.499 . S
C667 H668 0.959 . S
C667 H669 0.960 . S
C667 H670 0.961 . S
H668 C667 0.959 . S
H669 C667 0.960 . S
H670 C667 0.961 . S
O671 Co646 1.967 . S
O671 C679 1.258 . S
O672 Co647 1.941 . S
O672 C679 1.266 . S
H673 C675 0.959 . S
H674 C675 0.961 . S
C675 C665 1.510 1_455 S
C675 H673 0.959 . S
C675 H674 0.961 . S
C675 H676 0.960 . S
H676 C675 0.960 . S
H677 N657 0.862 . S
O678 Co646 1.920 . S
O678 C651 1.289 . S
C679 O671 1.258 . S
C679 O672 1.266 . S
Co680 O683 1.970 . S
Co680 N697 1.989 . S
Co680 O705 1.967 . S
Co680 O712 1.920 . S
Co681 O684 1.966 . S
Co681 N690 2.022 . S
Co681 N698 1.993 . S
Co681 O706 1.941 . S
C682 O683 1.258 . S
C682 O684 1.263 . S
O683 Co680 1.970 . S
O683 C682 1.258 . S
O684 Co681 1.966 . S
O684 C682 1.263 . S
C685 O686 1.235 . S
C685 O712 1.289 . S
O686 C685 1.235 . S
C687 C689 1.400 . S
C687 N690 1.351 . S
C687 C692 1.501 . S
C688 C689 1.387 . S
C688 N691 1.341 . S
C689 C687 1.400 . S
C689 C688 1.387 . S
N690 Co681 2.022 . S
N690 C687 1.351 . S
N690 N691 1.365 . S
N691 C688 1.341 . S
N691 N690 1.365 . S
N691 H711 0.862 . S
C692 C687 1.501 . S
C692 H693 0.961 . S
C692 H694 0.961 . S
C692 H695 0.960 . S
H693 C692 0.961 . S
H694 C692 0.961 . S
H695 C692 0.960 . S
C696 N697 1.342 . S
C696 C700 1.401 . S
C696 C701 1.499 . S
N697 Co680 1.989 . S
N697 C696 1.342 . S
N697 N698 1.388 . S
N698 Co681 1.993 . S
N698 N697 1.388 . S
N698 C699 1.346 . S
C699 N698 1.346 . S
C699 C700 1.396 . S
C699 C709 1.510 . S
C700 C696 1.401 . S
C700 C699 1.396 . S
C701 C696 1.499 . S
C701 H702 0.959 . S
C701 H703 0.960 . S
C701 H704 0.961 . S
H702 C701 0.959 . S
H703 C701 0.960 . S
H704 C701 0.961 . S
O705 Co680 1.967 . S
O705 C713 1.258 . S
O706 Co681 1.941 . S
O706 C713 1.266 . S
H707 C709 0.959 . S
H708 C709 0.961 . S
C709 C699 1.510 . S
C709 H707 0.959 . S
C709 H708 0.961 . S
C709 H710 0.960 . S
H710 C709 0.960 . S
H711 N691 0.862 . S
O712 Co680 1.920 . S
O712 C685 1.289 . S
C713 O705 1.258 . S
C713 O706 1.266 . S
Co714 O717 1.970 . S
Co714 N731 1.989 . S
Co714 O739 1.967 . S
Co714 O746 1.920 . S
Co715 O718 1.966 . S
Co715 N724 2.022 . S
Co715 N732 1.993 . S
Co715 O740 1.941 . S
C716 O717 1.258 . S
C716 O718 1.263 . S
O717 Co714 1.970 . S
O717 C716 1.258 . S
O718 Co715 1.966 . S
O718 C716 1.263 . S
C719 O720 1.235 . S
C719 O746 1.289 . S
O720 C719 1.235 . S
C721 C723 1.400 . S
C721 N724 1.351 . S
C721 C726 1.501 . S
C722 C723 1.387 . S
C722 N725 1.341 . S
C723 C721 1.400 . S
C723 C722 1.387 . S
N724 Co715 2.022 . S
N724 C721 1.351 . S
N724 N725 1.365 . S
N725 C722 1.341 . S
N725 N724 1.365 . S
N725 H745 0.862 . S
C726 C721 1.501 . S
C726 H727 0.961 . S
C726 H728 0.961 . S
C726 H729 0.960 . S
H727 C726 0.961 . S
H728 C726 0.961 . S
H729 C726 0.960 . S
C730 N731 1.342 . S
C730 C734 1.401 . S
C730 C735 1.499 . S
N731 Co714 1.989 . S
N731 C730 1.342 . S
N731 N732 1.388 . S
N732 Co715 1.993 . S
N732 N731 1.388 . S
N732 C733 1.346 . S
C733 N732 1.346 . S
C733 C734 1.396 . S
C733 C743 1.510 . S
C734 C730 1.401 . S
C734 C733 1.396 . S
C735 C730 1.499 . S
C735 H736 0.959 . S
C735 H737 0.960 . S
C735 H738 0.961 . S
H736 C735 0.959 . S
H737 C735 0.960 . S
H738 C735 0.961 . S
O739 Co714 1.967 . S
O739 C747 1.258 . S
O740 Co715 1.941 . S
O740 C747 1.266 . S
H741 C743 0.959 . S
H742 C743 0.961 . S
C743 C733 1.510 . S
C743 H741 0.959 . S
C743 H742 0.961 . S
C743 H744 0.960 . S
H744 C743 0.960 . S
H745 N725 0.862 . S
O746 Co714 1.920 . S
O746 C719 1.289 . S
C747 O739 1.258 . S
C747 O740 1.266 . S
Co748 O751 1.970 . S
Co748 N765 1.989 . S
Co748 O773 1.967 . S
Co748 O780 1.920 . S
Co749 O752 1.966 . S
Co749 N758 2.022 . S
Co749 N766 1.993 . S
Co749 O774 1.941 . S
C750 O751 1.258 . S
C750 O752 1.263 . S
O751 Co748 1.970 . S
O751 C750 1.258 . S
O752 Co749 1.966 . S
O752 C750 1.263 . S
C753 O754 1.235 . S
C753 O780 1.289 . S
O754 C753 1.235 . S
C755 C757 1.400 . S
C755 N758 1.351 . S
C755 C760 1.501 . S
C756 C757 1.387 . S
C756 N759 1.341 . S
C757 C755 1.400 . S
C757 C756 1.387 . S
N758 Co749 2.022 . S
N758 C755 1.351 . S
N758 N759 1.365 . S
N759 C756 1.341 . S
N759 N758 1.365 . S
N759 H779 0.862 . S
C760 C755 1.501 . S
C760 H761 0.961 . S
C760 H762 0.961 . S
C760 H763 0.960 . S
H761 C760 0.961 . S
H762 C760 0.961 . S
H763 C760 0.960 . S
C764 N765 1.342 . S
C764 C768 1.401 . S
C764 C769 1.499 . S
N765 Co748 1.989 . S
N765 C764 1.342 . S
N765 N766 1.388 . S
N766 Co749 1.993 . S
N766 N765 1.388 . S
N766 C767 1.346 . S
C767 N766 1.346 . S
C767 C768 1.396 . S
C767 C777 1.510 . S
C768 C764 1.401 . S
C768 C767 1.396 . S
C769 C764 1.499 . S
C769 H770 0.959 . S
C769 H771 0.960 . S
C769 H772 0.961 . S
H770 C769 0.959 . S
H771 C769 0.960 . S
H772 C769 0.961 . S
O773 Co748 1.967 . S
O773 C781 1.258 . S
O774 Co749 1.941 . S
O774 C781 1.266 . S
H775 C777 0.959 . S
H776 C777 0.961 . S
C777 C767 1.510 . S
C777 H775 0.959 . S
C777 H776 0.961 . S
C777 H778 0.960 . S
H778 C777 0.960 . S
H779 N759 0.862 . S
O780 Co748 1.920 . S
O780 C753 1.289 . S
C781 O773 1.258 . S
C781 O774 1.266 . S
Co782 O785 1.970 . S
Co782 N799 1.989 . S
Co782 O807 1.967 . S
Co782 O814 1.920 . S
Co783 O786 1.966 . S
Co783 N792 2.022 . S
Co783 N800 1.993 . S
Co783 O808 1.941 . S
C784 O785 1.258 . S
C784 O786 1.263 . S
O785 Co782 1.970 . S
O785 C784 1.258 . S
O786 Co783 1.966 . S
O786 C784 1.263 . S
C787 O788 1.235 . S
C787 O814 1.289 . S
O788 C787 1.235 . S
C789 C791 1.400 . S
C789 N792 1.351 . S
C789 C794 1.501 . S
C790 C791 1.387 . S
C790 N793 1.341 . S
C791 C789 1.400 . S
C791 C790 1.387 . S
N792 Co783 2.022 . S
N792 C789 1.351 . S
N792 N793 1.365 . S
N793 C790 1.341 . S
N793 N792 1.365 . S
N793 H813 0.862 . S
C794 C789 1.501 . S
C794 H795 0.961 . S
C794 H796 0.961 . S
C794 H797 0.960 . S
H795 C794 0.961 . S
H796 C794 0.961 . S
H797 C794 0.960 . S
C798 N799 1.342 . S
C798 C802 1.401 . S
C798 C803 1.499 . S
N799 Co782 1.989 . S
N799 C798 1.342 . S
N799 N800 1.388 . S
N800 Co783 1.993 . S
N800 N799 1.388 . S
N800 C801 1.346 . S
C801 N800 1.346 . S
C801 C802 1.396 . S
C801 C811 1.510 . S
C802 C798 1.401 . S
C802 C801 1.396 . S
C803 C798 1.499 . S
C803 H804 0.959 . S
C803 H805 0.960 . S
C803 H806 0.961 . S
H804 C803 0.959 . S
H805 C803 0.960 . S
H806 C803 0.961 . S
O807 Co782 1.967 . S
O807 C815 1.258 . S
O808 Co783 1.941 . S
O808 C815 1.266 . S
H809 C811 0.959 . S
H810 C811 0.961 . S
C811 C801 1.510 . S
C811 H809 0.959 . S
C811 H810 0.961 . S
C811 H812 0.960 . S
H812 C811 0.960 . S
H813 N793 0.862 . S
O814 Co782 1.920 . S
O814 C787 1.289 . S
C815 O807 1.258 . S
C815 O808 1.266 . S
Co816 O819 1.970 . S
Co816 N833 1.989 . S
Co816 O841 1.967 . S
Co816 O848 1.920 . S
Co817 O820 1.966 . S
Co817 N826 2.022 . S
Co817 N834 1.993 . S
Co817 O842 1.941 . S
C818 O819 1.258 . S
C818 O820 1.263 . S
O819 Co816 1.970 . S
O819 C818 1.258 . S
O820 Co817 1.966 . S
O820 C818 1.263 . S
C821 O822 1.235 . S
C821 O848 1.289 . S
O822 C821 1.235 . S
C823 C825 1.400 1_565 S
C823 N826 1.351 . S
C823 C828 1.501 . S
C824 C825 1.387 . S
C824 N827 1.341 . S
C825 C823 1.400 1_545 S
C825 C824 1.387 . S
N826 Co817 2.022 . S
N826 C823 1.351 . S
N826 N827 1.365 1_565 S
N827 C824 1.341 . S
N827 N826 1.365 1_545 S
N827 H847 0.862 . S
C828 C823 1.501 . S
C828 H829 0.961 . S
C828 H830 0.961 . S
C828 H831 0.960 . S
H829 C828 0.961 . S
H830 C828 0.961 . S
H831 C828 0.960 . S
C832 N833 1.342 . S
C832 C836 1.401 . S
C832 C837 1.499 . S
N833 Co816 1.989 . S
N833 C832 1.342 . S
N833 N834 1.388 . S
N834 Co817 1.993 . S
N834 N833 1.388 . S
N834 C835 1.346 . S
C835 N834 1.346 . S
C835 C836 1.396 . S
C835 C845 1.510 1_565 S
C836 C832 1.401 . S
C836 C835 1.396 . S
C837 C832 1.499 . S
C837 H838 0.959 . S
C837 H839 0.960 . S
C837 H840 0.961 . S
H838 C837 0.959 . S
H839 C837 0.960 . S
H840 C837 0.961 . S
O841 Co816 1.967 . S
O841 C849 1.258 . S
O842 Co817 1.941 . S
O842 C849 1.266 . S
H843 C845 0.959 . S
H844 C845 0.961 . S
C845 C835 1.510 1_545 S
C845 H843 0.959 . S
C845 H844 0.961 . S
C845 H846 0.960 . S
H846 C845 0.960 . S
H847 N827 0.862 . S
O848 Co816 1.920 . S
O848 C821 1.289 . S
C849 O841 1.258 . S
C849 O842 1.266 . S
Co850 O853 1.970 . S
Co850 N867 1.989 . S
Co850 O875 1.967 . S
Co850 O882 1.920 . S
Co851 O854 1.966 . S
Co851 N860 2.022 . S
Co851 N868 1.993 . S
Co851 O876 1.941 . S
C852 O853 1.258 . S
C852 O854 1.263 . S
O853 Co850 1.970 . S
O853 C852 1.258 . S
O854 Co851 1.966 . S
O854 C852 1.263 . S
C855 O856 1.235 . S
C855 O882 1.289 . S
O856 C855 1.235 . S
C857 C859 1.400 1_455 S
C857 N860 1.351 . S
C857 C862 1.501 . S
C858 C859 1.387 . S
C858 N861 1.341 . S
C859 C857 1.400 1_655 S
C859 C858 1.387 . S
N860 Co851 2.022 . S
N860 C857 1.351 . S
N860 N861 1.365 1_455 S
N861 C858 1.341 . S
N861 N860 1.365 1_655 S
N861 H881 0.862 . S
C862 C857 1.501 . S
C862 H863 0.961 . S
C862 H864 0.961 . S
C862 H865 0.960 . S
H863 C862 0.961 . S
H864 C862 0.961 . S
H865 C862 0.960 . S
C866 N867 1.342 . S
C866 C870 1.401 . S
C866 C871 1.499 . S
N867 Co850 1.989 . S
N867 C866 1.342 . S
N867 N868 1.388 . S
N868 Co851 1.993 . S
N868 N867 1.388 . S
N868 C869 1.346 . S
C869 N868 1.346 . S
C869 C870 1.396 . S
C869 C879 1.510 1_455 S
C870 C866 1.401 . S
C870 C869 1.396 . S
C871 C866 1.499 . S
C871 H872 0.959 . S
C871 H873 0.960 . S
C871 H874 0.961 . S
H872 C871 0.959 . S
H873 C871 0.960 . S
H874 C871 0.961 . S
O875 Co850 1.967 . S
O875 C883 1.258 . S
O876 Co851 1.941 . S
O876 C883 1.266 . S
H877 C879 0.959 . S
H878 C879 0.961 . S
C879 C869 1.510 1_655 S
C879 H877 0.959 . S
C879 H878 0.961 . S
C879 H880 0.960 . S
H880 C879 0.960 . S
H881 N861 0.862 . S
O882 Co850 1.920 . S
O882 C855 1.289 . S
C883 O875 1.258 . S
C883 O876 1.266 . S
Co884 O887 1.970 . S
Co884 N901 1.989 . S
Co884 O909 1.967 . S
Co884 O916 1.920 . S
Co885 O888 1.966 . S
Co885 N894 2.022 . S
Co885 N902 1.993 . S
Co885 O910 1.941 . S
C886 O887 1.258 . S
C886 O888 1.263 . S
O887 Co884 1.970 . S
O887 C886 1.258 . S
O888 Co885 1.966 . S
O888 C886 1.263 . S
C889 O890 1.235 . S
C889 O916 1.289 . S
O890 C889 1.235 . S
C891 C893 1.400 . S
C891 N894 1.351 . S
C891 C896 1.501 . S
C892 C893 1.387 . S
C892 N895 1.341 . S
C893 C891 1.400 . S
C893 C892 1.387 . S
N894 Co885 2.022 . S
N894 C891 1.351 . S
N894 N895 1.365 . S
N895 C892 1.341 . S
N895 N894 1.365 . S
N895 H915 0.862 . S
C896 C891 1.501 . S
C896 H897 0.961 . S
C896 H898 0.961 . S
C896 H899 0.960 . S
H897 C896 0.961 . S
H898 C896 0.961 . S
H899 C896 0.960 . S
C900 N901 1.342 . S
C900 C904 1.401 . S
C900 C905 1.499 . S
N901 Co884 1.989 . S
N901 C900 1.342 . S
N901 N902 1.388 . S
N902 Co885 1.993 . S
N902 N901 1.388 . S
N902 C903 1.346 . S
C903 N902 1.346 . S
C903 C904 1.396 . S
C903 C913 1.510 . S
C904 C900 1.401 . S
C904 C903 1.396 . S
C905 C900 1.499 . S
C905 H906 0.959 . S
C905 H907 0.960 . S
C905 H908 0.961 . S
H906 C905 0.959 . S
H907 C905 0.960 . S
H908 C905 0.961 . S
O909 Co884 1.967 . S
O909 C917 1.258 . S
O910 Co885 1.941 . S
O910 C917 1.266 . S
H911 C913 0.959 . S
H912 C913 0.961 . S
C913 C903 1.510 . S
C913 H911 0.959 . S
C913 H912 0.961 . S
C913 H914 0.960 . S
H914 C913 0.960 . S
H915 N895 0.862 . S
O916 Co884 1.920 . S
O916 C889 1.289 . S
C917 O909 1.258 . S
C917 O910 1.266 . S
Co918 O921 1.970 . S
Co918 N935 1.989 . S
Co918 O943 1.967 . S
Co918 O950 1.920 . S
Co919 O922 1.966 . S
Co919 N928 2.022 . S
Co919 N936 1.993 . S
Co919 O944 1.941 . S
C920 O921 1.258 . S
C920 O922 1.263 . S
O921 Co918 1.970 . S
O921 C920 1.258 . S
O922 Co919 1.966 . S
O922 C920 1.263 . S
C923 O924 1.235 . S
C923 O950 1.289 . S
O924 C923 1.235 . S
C925 C927 1.400 . S
C925 N928 1.351 . S
C925 C930 1.501 . S
C926 C927 1.387 . S
C926 N929 1.341 . S
C927 C925 1.400 . S
C927 C926 1.387 . S
N928 Co919 2.022 . S
N928 C925 1.351 . S
N928 N929 1.365 . S
N929 C926 1.341 . S
N929 N928 1.365 . S
N929 H949 0.862 . S
C930 C925 1.501 . S
C930 H931 0.961 . S
C930 H932 0.961 . S
C930 H933 0.960 . S
H931 C930 0.961 . S
H932 C930 0.961 . S
H933 C930 0.960 . S
C934 N935 1.342 . S
C934 C938 1.401 . S
C934 C939 1.499 . S
N935 Co918 1.989 . S
N935 C934 1.342 . S
N935 N936 1.388 . S
N936 Co919 1.993 . S
N936 N935 1.388 . S
N936 C937 1.346 . S
C937 N936 1.346 . S
C937 C938 1.396 . S
C937 C947 1.510 . S
C938 C934 1.401 . S
C938 C937 1.396 . S
C939 C934 1.499 . S
C939 H940 0.959 . S
C939 H941 0.960 . S
C939 H942 0.961 . S
H940 C939 0.959 . S
H941 C939 0.960 . S
H942 C939 0.961 . S
O943 Co918 1.967 . S
O943 C951 1.258 . S
O944 Co919 1.941 . S
O944 C951 1.266 . S
H945 C947 0.959 . S
H946 C947 0.961 . S
C947 C937 1.510 . S
C947 H945 0.959 . S
C947 H946 0.961 . S
C947 H948 0.960 . S
H948 C947 0.960 . S
H949 N929 0.862 . S
O950 Co918 1.920 . S
O950 C923 1.289 . S
C951 O943 1.258 . S
C951 O944 1.266 . S
Co952 O955 1.970 . S
Co952 N969 1.989 . S
Co952 O977 1.967 . S
Co952 O984 1.920 . S
Co953 O956 1.966 . S
Co953 N962 2.022 . S
Co953 N970 1.993 . S
Co953 O978 1.941 . S
C954 O955 1.258 . S
C954 O956 1.263 . S
O955 Co952 1.970 . S
O955 C954 1.258 . S
O956 Co953 1.966 . S
O956 C954 1.263 . S
C957 O958 1.235 . S
C957 O984 1.289 . S
O958 C957 1.235 . S
C959 C961 1.400 . S
C959 N962 1.351 . S
C959 C964 1.501 . S
C960 C961 1.387 . S
C960 N963 1.341 . S
C961 C959 1.400 . S
C961 C960 1.387 . S
N962 Co953 2.022 . S
N962 C959 1.351 . S
N962 N963 1.365 . S
N963 C960 1.341 . S
N963 N962 1.365 . S
N963 H983 0.862 . S
C964 C959 1.501 . S
C964 H965 0.961 . S
C964 H966 0.961 . S
C964 H967 0.960 . S
H965 C964 0.961 . S
H966 C964 0.961 . S
H967 C964 0.960 . S
C968 N969 1.342 . S
C968 C972 1.401 . S
C968 C973 1.499 . S
N969 Co952 1.989 . S
N969 C968 1.342 . S
N969 N970 1.388 . S
N970 Co953 1.993 . S
N970 N969 1.388 . S
N970 C971 1.346 . S
C971 N970 1.346 . S
C971 C972 1.396 . S
C971 C981 1.510 . S
C972 C968 1.401 . S
C972 C971 1.396 . S
C973 C968 1.499 . S
C973 H974 0.959 . S
C973 H975 0.960 . S
C973 H976 0.961 . S
H974 C973 0.959 . S
H975 C973 0.960 . S
H976 C973 0.961 . S
O977 Co952 1.967 . S
O977 C985 1.258 . S
O978 Co953 1.941 . S
O978 C985 1.266 . S
H979 C981 0.959 . S
H980 C981 0.961 . S
C981 C971 1.510 . S
C981 H979 0.959 . S
C981 H980 0.961 . S
C981 H982 0.960 . S
H982 C981 0.960 . S
H983 N963 0.862 . S
O984 Co952 1.920 . S
O984 C957 1.289 . S
C985 O977 1.258 . S
C985 O978 1.266 . S
Co986 O989 1.970 . S
Co986 N1003 1.989 . S
Co986 O1011 1.967 . S
Co986 O1018 1.920 . S
Co987 O990 1.966 . S
Co987 N996 2.022 . S
Co987 N1004 1.993 . S
Co987 O1012 1.941 . S
C988 O989 1.258 . S
C988 O990 1.263 . S
O989 Co986 1.970 . S
O989 C988 1.258 . S
O990 Co987 1.966 . S
O990 C988 1.263 . S
C991 O992 1.235 . S
C991 O1018 1.289 . S
O992 C991 1.235 . S
C993 C995 1.400 . S
C993 N996 1.351 . S
C993 C998 1.501 . S
C994 C995 1.387 . S
C994 N997 1.341 . S
C995 C993 1.400 . S
C995 C994 1.387 . S
N996 Co987 2.022 . S
N996 C993 1.351 . S
N996 N997 1.365 . S
N997 C994 1.341 . S
N997 N996 1.365 . S
N997 H1017 0.862 . S
C998 C993 1.501 . S
C998 H999 0.961 . S
C998 H1000 0.961 . S
C998 H1001 0.960 . S
H999 C998 0.961 . S
H1000 C998 0.961 . S
H1001 C998 0.960 . S
C1002 N1003 1.342 . S
C1002 C1006 1.401 . S
C1002 C1007 1.499 . S
N1003 Co986 1.989 . S
N1003 C1002 1.342 . S
N1003 N1004 1.388 . S
N1004 Co987 1.993 . S
N1004 N1003 1.388 . S
N1004 C1005 1.346 . S
C1005 N1004 1.346 . S
C1005 C1006 1.396 . S
C1005 C1015 1.510 . S
C1006 C1002 1.401 . S
C1006 C1005 1.396 . S
C1007 C1002 1.499 . S
C1007 H1008 0.959 . S
C1007 H1009 0.960 . S
C1007 H1010 0.961 . S
H1008 C1007 0.959 . S
H1009 C1007 0.960 . S
H1010 C1007 0.961 . S
O1011 Co986 1.967 . S
O1011 C1019 1.258 . S
O1012 Co987 1.941 . S
O1012 C1019 1.266 . S
H1013 C1015 0.959 . S
H1014 C1015 0.961 . S
C1015 C1005 1.510 . S
C1015 H1013 0.959 . S
C1015 H1014 0.961 . S
C1015 H1016 0.960 . S
H1016 C1015 0.960 . S
H1017 N997 0.862 . S
O1018 Co986 1.920 . S
O1018 C991 1.289 . S
C1019 O1011 1.258 . S
C1019 O1012 1.266 . S
Co1020 O1023 1.970 . S
Co1020 N1037 1.989 . S
Co1020 O1045 1.967 . S
Co1020 O1052 1.920 . S
Co1021 O1024 1.966 . S
Co1021 N1030 2.022 . S
Co1021 N1038 1.993 . S
Co1021 O1046 1.941 . S
C1022 O1023 1.258 . S
C1022 O1024 1.263 . S
O1023 Co1020 1.970 . S
O1023 C1022 1.258 . S
O1024 Co1021 1.966 . S
O1024 C1022 1.263 . S
C1025 O1026 1.235 . S
C1025 O1052 1.289 . S
O1026 C1025 1.235 . S
C1027 C1029 1.400 . S
C1027 N1030 1.351 . S
C1027 C1032 1.501 . S
C1028 C1029 1.387 . S
C1028 N1031 1.341 . S
C1029 C1027 1.400 . S
C1029 C1028 1.387 . S
N1030 Co1021 2.022 . S
N1030 C1027 1.351 . S
N1030 N1031 1.365 . S
N1031 C1028 1.341 . S
N1031 N1030 1.365 . S
N1031 H1051 0.862 . S
C1032 C1027 1.501 . S
C1032 H1033 0.961 . S
C1032 H1034 0.961 . S
C1032 H1035 0.960 . S
H1033 C1032 0.961 . S
H1034 C1032 0.961 . S
H1035 C1032 0.960 . S
C1036 N1037 1.342 . S
C1036 C1040 1.401 . S
C1036 C1041 1.499 . S
N1037 Co1020 1.989 . S
N1037 C1036 1.342 . S
N1037 N1038 1.388 . S
N1038 Co1021 1.993 . S
N1038 N1037 1.388 . S
N1038 C1039 1.346 . S
C1039 N1038 1.346 . S
C1039 C1040 1.396 . S
C1039 C1049 1.510 . S
C1040 C1036 1.401 . S
C1040 C1039 1.396 . S
C1041 C1036 1.499 . S
C1041 H1042 0.959 . S
C1041 H1043 0.960 . S
C1041 H1044 0.961 . S
H1042 C1041 0.959 . S
H1043 C1041 0.960 . S
H1044 C1041 0.961 . S
O1045 Co1020 1.967 . S
O1045 C1053 1.258 . S
O1046 Co1021 1.941 . S
O1046 C1053 1.266 . S
H1047 C1049 0.959 . S
H1048 C1049 0.961 . S
C1049 C1039 1.510 . S
C1049 H1047 0.959 . S
C1049 H1048 0.961 . S
C1049 H1050 0.960 . S
H1050 C1049 0.960 . S
H1051 N1031 0.862 . S
O1052 Co1020 1.920 . S
O1052 C1025 1.289 . S
C1053 O1045 1.258 . S
C1053 O1046 1.266 . S
Co1054 O1057 1.970 . S
Co1054 N1071 1.989 . S
Co1054 O1079 1.967 . S
Co1054 O1086 1.920 . S
Co1055 O1058 1.966 . S
Co1055 N1064 2.022 . S
Co1055 N1072 1.993 . S
Co1055 O1080 1.941 . S
C1056 O1057 1.258 . S
C1056 O1058 1.263 . S
O1057 Co1054 1.970 . S
O1057 C1056 1.258 . S
O1058 Co1055 1.966 . S
O1058 C1056 1.263 . S
C1059 O1060 1.235 . S
C1059 O1086 1.289 . S
O1060 C1059 1.235 . S
C1061 C1063 1.400 . S
C1061 N1064 1.351 . S
C1061 C1066 1.501 . S
C1062 C1063 1.387 . S
C1062 N1065 1.341 . S
C1063 C1061 1.400 . S
C1063 C1062 1.387 . S
N1064 Co1055 2.022 . S
N1064 C1061 1.351 . S
N1064 N1065 1.365 . S
N1065 C1062 1.341 . S
N1065 N1064 1.365 . S
N1065 H1085 0.862 . S
C1066 C1061 1.501 . S
C1066 H1067 0.961 . S
C1066 H1068 0.961 . S
C1066 H1069 0.960 . S
H1067 C1066 0.961 . S
H1068 C1066 0.961 . S
H1069 C1066 0.960 . S
C1070 N1071 1.342 . S
C1070 C1074 1.401 . S
C1070 C1075 1.499 . S
N1071 Co1054 1.989 . S
N1071 C1070 1.342 . S
N1071 N1072 1.388 . S
N1072 Co1055 1.993 . S
N1072 N1071 1.388 . S
N1072 C1073 1.346 . S
C1073 N1072 1.346 . S
C1073 C1074 1.396 . S
C1073 C1083 1.510 . S
C1074 C1070 1.401 . S
C1074 C1073 1.396 . S
C1075 C1070 1.499 . S
C1075 H1076 0.959 . S
C1075 H1077 0.960 . S
C1075 H1078 0.961 . S
H1076 C1075 0.959 . S
H1077 C1075 0.960 . S
H1078 C1075 0.961 . S
O1079 Co1054 1.967 . S
O1079 C1087 1.258 . S
O1080 Co1055 1.941 . S
O1080 C1087 1.266 . S
H1081 C1083 0.959 . S
H1082 C1083 0.961 . S
C1083 C1073 1.510 . S
C1083 H1081 0.959 . S
C1083 H1082 0.961 . S
C1083 H1084 0.960 . S
H1084 C1083 0.960 . S
H1085 N1065 0.862 . S
O1086 Co1054 1.920 . S
O1086 C1059 1.289 . S
C1087 O1079 1.258 . S
C1087 O1080 1.266 . S
Co1088 O1091 1.970 . S
Co1088 N1105 1.989 . S
Co1088 O1113 1.967 . S
Co1088 O1120 1.920 . S
Co1089 O1092 1.966 . S
Co1089 N1098 2.022 . S
Co1089 N1106 1.993 . S
Co1089 O1114 1.941 . S
C1090 O1091 1.258 . S
C1090 O1092 1.263 . S
O1091 Co1088 1.970 . S
O1091 C1090 1.258 . S
O1092 Co1089 1.966 . S
O1092 C1090 1.263 . S
C1093 O1094 1.235 . S
C1093 O1120 1.289 . S
O1094 C1093 1.235 . S
C1095 C1097 1.400 . S
C1095 N1098 1.351 . S
C1095 C1100 1.501 . S
C1096 C1097 1.387 . S
C1096 N1099 1.341 . S
C1097 C1095 1.400 . S
C1097 C1096 1.387 . S
N1098 Co1089 2.022 . S
N1098 C1095 1.351 . S
N1098 N1099 1.365 . S
N1099 C1096 1.341 . S
N1099 N1098 1.365 . S
N1099 H1119 0.862 . S
C1100 C1095 1.501 . S
C1100 H1101 0.961 . S
C1100 H1102 0.961 . S
C1100 H1103 0.960 . S
H1101 C1100 0.961 . S
H1102 C1100 0.961 . S
H1103 C1100 0.960 . S
C1104 N1105 1.342 . S
C1104 C1108 1.401 . S
C1104 C1109 1.499 . S
N1105 Co1088 1.989 . S
N1105 C1104 1.342 . S
N1105 N1106 1.388 . S
N1106 Co1089 1.993 . S
N1106 N1105 1.388 . S
N1106 C1107 1.346 . S
C1107 N1106 1.346 . S
C1107 C1108 1.396 . S
C1107 C1117 1.510 . S
C1108 C1104 1.401 . S
C1108 C1107 1.396 . S
C1109 C1104 1.499 . S
C1109 H1110 0.959 . S
C1109 H1111 0.960 . S
C1109 H1112 0.961 . S
H1110 C1109 0.959 . S
H1111 C1109 0.960 . S
H1112 C1109 0.961 . S
O1113 Co1088 1.967 . S
O1113 C1121 1.258 . S
O1114 Co1089 1.941 . S
O1114 C1121 1.266 . S
H1115 C1117 0.959 . S
H1116 C1117 0.961 . S
C1117 C1107 1.510 . S
C1117 H1115 0.959 . S
C1117 H1116 0.961 . S
C1117 H1118 0.960 . S
H1118 C1117 0.960 . S
H1119 N1099 0.862 . S
O1120 Co1088 1.920 . S
O1120 C1093 1.289 . S
C1121 O1113 1.258 . S
C1121 O1114 1.266 . S
Co1122 O1125 1.970 . S
Co1122 N1139 1.989 . S
Co1122 O1147 1.967 . S
Co1122 O1154 1.920 . S
Co1123 O1126 1.966 . S
Co1123 N1132 2.022 . S
Co1123 N1140 1.993 . S
Co1123 O1148 1.941 . S
C1124 O1125 1.258 . S
C1124 O1126 1.263 . S
O1125 Co1122 1.970 . S
O1125 C1124 1.258 . S
O1126 Co1123 1.966 . S
O1126 C1124 1.263 . S
C1127 O1128 1.235 . S
C1127 O1154 1.289 . S
O1128 C1127 1.235 . S
C1129 C1131 1.400 1_455 S
C1129 N1132 1.351 . S
C1129 C1134 1.501 . S
C1130 C1131 1.387 . S
C1130 N1133 1.341 . S
C1131 C1129 1.400 1_655 S
C1131 C1130 1.387 . S
N1132 Co1123 2.022 . S
N1132 C1129 1.351 . S
N1132 N1133 1.365 1_455 S
N1133 C1130 1.341 . S
N1133 N1132 1.365 1_655 S
N1133 H1153 0.862 . S
C1134 C1129 1.501 . S
C1134 H1135 0.961 . S
C1134 H1136 0.961 . S
C1134 H1137 0.960 . S
H1135 C1134 0.961 . S
H1136 C1134 0.961 . S
H1137 C1134 0.960 . S
C1138 N1139 1.342 . S
C1138 C1142 1.401 . S
C1138 C1143 1.499 . S
N1139 Co1122 1.989 . S
N1139 C1138 1.342 . S
N1139 N1140 1.388 . S
N1140 Co1123 1.993 . S
N1140 N1139 1.388 . S
N1140 C1141 1.346 . S
C1141 N1140 1.346 . S
C1141 C1142 1.396 . S
C1141 C1151 1.510 1_455 S
C1142 C1138 1.401 . S
C1142 C1141 1.396 . S
C1143 C1138 1.499 . S
C1143 H1144 0.959 . S
C1143 H1145 0.960 . S
C1143 H1146 0.961 . S
H1144 C1143 0.959 . S
H1145 C1143 0.960 . S
H1146 C1143 0.961 . S
O1147 Co1122 1.967 . S
O1147 C1155 1.258 . S
O1148 Co1123 1.941 . S
O1148 C1155 1.266 . S
H1149 C1151 0.959 . S
H1150 C1151 0.961 . S
C1151 C1141 1.510 1_655 S
C1151 H1149 0.959 . S
C1151 H1150 0.961 . S
C1151 H1152 0.960 . S
H1152 C1151 0.960 . S
H1153 N1133 0.862 . S
O1154 Co1122 1.920 . S
O1154 C1127 1.289 . S
C1155 O1147 1.258 . S
C1155 O1148 1.266 . S
Co1156 O1159 1.970 . S
Co1156 N1173 1.989 . S
Co1156 O1181 1.967 . S
Co1156 O1188 1.920 . S
Co1157 O1160 1.966 . S
Co1157 N1166 2.022 . S
Co1157 N1174 1.993 . S
Co1157 O1182 1.941 . S
C1158 O1159 1.258 . S
C1158 O1160 1.263 . S
O1159 Co1156 1.970 . S
O1159 C1158 1.258 . S
O1160 Co1157 1.966 . S
O1160 C1158 1.263 . S
C1161 O1162 1.235 . S
C1161 O1188 1.289 . S
O1162 C1161 1.235 . S
C1163 C1165 1.400 . S
C1163 N1166 1.351 . S
C1163 C1168 1.501 . S
C1164 C1165 1.387 . S
C1164 N1167 1.341 . S
C1165 C1163 1.400 . S
C1165 C1164 1.387 . S
N1166 Co1157 2.022 . S
N1166 C1163 1.351 . S
N1166 N1167 1.365 . S
N1167 C1164 1.341 . S
N1167 N1166 1.365 . S
N1167 H1187 0.862 . S
C1168 C1163 1.501 . S
C1168 H1169 0.961 . S
C1168 H1170 0.961 . S
C1168 H1171 0.960 . S
H1169 C1168 0.961 . S
H1170 C1168 0.961 . S
H1171 C1168 0.960 . S
C1172 N1173 1.342 . S
C1172 C1176 1.401 . S
C1172 C1177 1.499 . S
N1173 Co1156 1.989 . S
N1173 C1172 1.342 . S
N1173 N1174 1.388 . S
N1174 Co1157 1.993 . S
N1174 N1173 1.388 . S
N1174 C1175 1.346 . S
C1175 N1174 1.346 . S
C1175 C1176 1.396 . S
C1175 C1185 1.510 . S
C1176 C1172 1.401 . S
C1176 C1175 1.396 . S
C1177 C1172 1.499 . S
C1177 H1178 0.959 . S
C1177 H1179 0.960 . S
C1177 H1180 0.961 . S
H1178 C1177 0.959 . S
H1179 C1177 0.960 . S
H1180 C1177 0.961 . S
O1181 Co1156 1.967 . S
O1181 C1189 1.258 . S
O1182 Co1157 1.941 . S
O1182 C1189 1.266 . S
H1183 C1185 0.959 . S
H1184 C1185 0.961 . S
C1185 C1175 1.510 . S
C1185 H1183 0.959 . S
C1185 H1184 0.961 . S
C1185 H1186 0.960 . S
H1186 C1185 0.960 . S
H1187 N1167 0.862 . S
O1188 Co1156 1.920 . S
O1188 C1161 1.289 . S
C1189 O1181 1.258 . S
C1189 O1182 1.266 . S
Co1190 O1193 1.970 . S
Co1190 N1207 1.989 . S
Co1190 O1215 1.967 . S
Co1190 O1222 1.920 . S
Co1191 O1194 1.966 . S
Co1191 N1200 2.022 . S
Co1191 N1208 1.993 . S
Co1191 O1216 1.941 . S
C1192 O1193 1.258 . S
C1192 O1194 1.263 . S
O1193 Co1190 1.970 . S
O1193 C1192 1.258 . S
O1194 Co1191 1.966 . S
O1194 C1192 1.263 . S
C1195 O1196 1.235 . S
C1195 O1222 1.289 . S
O1196 C1195 1.235 . S
C1197 C1199 1.400 1_565 S
C1197 N1200 1.351 . S
C1197 C1202 1.501 . S
C1198 C1199 1.387 . S
C1198 N1201 1.341 . S
C1199 C1197 1.400 1_545 S
C1199 C1198 1.387 . S
N1200 Co1191 2.022 . S
N1200 C1197 1.351 . S
N1200 N1201 1.365 1_565 S
N1201 C1198 1.341 . S
N1201 N1200 1.365 1_545 S
N1201 H1221 0.862 . S
C1202 C1197 1.501 . S
C1202 H1203 0.961 . S
C1202 H1204 0.961 . S
C1202 H1205 0.960 . S
H1203 C1202 0.961 . S
H1204 C1202 0.961 . S
H1205 C1202 0.960 . S
C1206 N1207 1.342 . S
C1206 C1210 1.401 . S
C1206 C1211 1.499 . S
N1207 Co1190 1.989 . S
N1207 C1206 1.342 . S
N1207 N1208 1.388 . S
N1208 Co1191 1.993 . S
N1208 N1207 1.388 . S
N1208 C1209 1.346 . S
C1209 N1208 1.346 . S
C1209 C1210 1.396 . S
C1209 C1219 1.510 1_565 S
C1210 C1206 1.401 . S
C1210 C1209 1.396 . S
C1211 C1206 1.499 . S
C1211 H1212 0.959 . S
C1211 H1213 0.960 . S
C1211 H1214 0.961 . S
H1212 C1211 0.959 . S
H1213 C1211 0.960 . S
H1214 C1211 0.961 . S
O1215 Co1190 1.967 . S
O1215 C1223 1.258 . S
O1216 Co1191 1.941 . S
O1216 C1223 1.266 . S
H1217 C1219 0.959 . S
H1218 C1219 0.961 . S
C1219 C1209 1.510 1_545 S
C1219 H1217 0.959 . S
C1219 H1218 0.961 . S
C1219 H1220 0.960 . S
H1220 C1219 0.960 . S
H1221 N1201 0.862 . S
O1222 Co1190 1.920 . S
O1222 C1195 1.289 . S
C1223 O1215 1.258 . S
C1223 O1216 1.266 . S
C1224 C1225 1.387 . S
C1224 H1228 0.950 . S
C1224 C1233 1.390 . S
C1225 C1224 1.387 . S
C1225 C1227 1.387 . S
H1226 C1233 0.950 . S
C1227 C1225 1.387 . S
C1227 C1229 1.390 . S
C1227 H1231 0.950 . S
H1228 C1224 0.950 . S
C1229 C1227 1.390 . S
C1229 C1230 1.387 . S
C1229 H1232 0.950 . S
C1230 C1229 1.387 . S
C1230 C1233 1.387 . S
H1231 C1227 0.950 . S
H1232 C1229 0.950 . S
C1233 C1224 1.390 . S
C1233 H1226 0.950 . S
C1233 C1230 1.387 . S
C1234 C1235 1.387 . S
C1234 H1238 0.950 . S
C1234 C1243 1.390 . S
C1235 C1234 1.387 . S
C1235 C1237 1.387 . S
H1236 C1243 0.950 . S
C1237 C1235 1.387 . S
C1237 C1239 1.390 . S
C1237 H1241 0.950 . S
H1238 C1234 0.950 . S
C1239 C1237 1.390 . S
C1239 C1240 1.387 . S
C1239 H1242 0.950 . S
C1240 C1239 1.387 . S
C1240 C1243 1.387 . S
H1241 C1237 0.950 . S
H1242 C1239 0.950 . S
C1243 C1234 1.390 . S
C1243 H1236 0.950 . S
C1243 C1240 1.387 . S
C1244 C1245 1.387 . S
C1244 H1248 0.950 . S
C1244 C1253 1.390 . S
C1245 C1244 1.387 . S
C1245 C1247 1.387 . S
H1246 C1253 0.950 . S
C1247 C1245 1.387 . S
C1247 C1249 1.390 . S
C1247 H1251 0.950 . S
H1248 C1244 0.950 . S
C1249 C1247 1.390 . S
C1249 C1250 1.387 . S
C1249 H1252 0.950 . S
C1250 C1249 1.387 . S
C1250 C1253 1.387 . S
H1251 C1247 0.950 . S
H1252 C1249 0.950 . S
C1253 C1244 1.390 . S
C1253 H1246 0.950 . S
C1253 C1250 1.387 . S
C1254 C1255 1.387 . S
C1254 H1258 0.956 . S
C1254 C1263 1.390 . S
C1255 C1254 1.387 . S
C1255 C1257 1.387 . S
H1256 C1263 0.950 . S
C1257 C1255 1.387 . S
C1257 C1259 1.390 . S
C1257 H1261 0.950 . S
H1258 C1254 0.956 . S
C1259 C1257 1.390 . S
C1259 C1260 1.387 . S
C1259 H1262 0.950 . S
C1260 C1259 1.387 . S
C1260 C1263 1.387 . S
H1261 C1257 0.950 . S
H1262 C1259 0.950 . S
C1263 C1254 1.390 . S
C1263 H1256 0.950 . S
C1263 C1260 1.387 . S
C1264 C1265 1.387 . S
C1264 H1268 0.950 . S
C1264 C1273 1.390 . S
C1265 C1264 1.387 . S
C1265 C1267 1.387 . S
H1266 C1273 0.950 . S
C1267 C1265 1.387 . S
C1267 C1269 1.390 . S
C1267 H1271 0.950 . S
H1268 C1264 0.950 . S
C1269 C1267 1.390 . S
C1269 C1270 1.387 . S
C1269 H1272 0.950 . S
C1270 C1269 1.387 . S
C1270 C1273 1.387 . S
H1271 C1267 0.950 . S
H1272 C1269 0.950 . S
C1273 C1264 1.390 . S
C1273 H1266 0.950 . S
C1273 C1270 1.387 . S
C1274 C1275 1.387 . S
C1274 H1278 0.950 . S
C1274 C1283 1.390 . S
C1275 C1274 1.387 . S
C1275 C1277 1.387 . S
H1276 C1283 0.950 . S
C1277 C1275 1.387 . S
C1277 C1279 1.390 . S
C1277 H1281 0.950 . S
H1278 C1274 0.950 . S
C1279 C1277 1.390 . S
C1279 C1280 1.387 . S
C1279 H1282 0.950 . S
C1280 C1279 1.387 . S
C1280 C1283 1.387 . S
H1281 C1277 0.950 . S
H1282 C1279 0.950 . S
C1283 C1274 1.390 . S
C1283 H1276 0.950 . S
C1283 C1280 1.387 . S
C1284 C1285 1.387 . S
C1284 H1288 0.950 . S
C1284 C1293 1.390 . S
C1285 C1284 1.387 . S
C1285 C1287 1.387 . S
H1286 C1293 0.950 . S
C1287 C1285 1.387 . S
C1287 C1289 1.390 . S
C1287 H1291 0.950 . S
H1288 C1284 0.950 . S
C1289 C1287 1.390 . S
C1289 C1290 1.387 . S
C1289 H1292 0.950 . S
C1290 C1289 1.387 . S
C1290 C1293 1.387 . S
H1291 C1287 0.950 . S
H1292 C1289 0.950 . S
C1293 C1284 1.390 . S
C1293 H1286 0.950 . S
C1293 C1290 1.387 . S
C1294 C1295 1.387 . S
C1294 H1298 0.950 . S
C1294 C1303 1.390 . S
C1295 C1294 1.387 . S
C1295 C1297 1.387 . S
H1296 C1303 0.950 . S
C1297 C1295 1.387 . S
C1297 C1299 1.390 . S
C1297 H1301 0.950 . S
H1298 C1294 0.950 . S
C1299 C1297 1.390 . S
C1299 C1300 1.387 . S
C1299 H1302 0.950 . S
C1300 C1299 1.387 . S
C1300 C1303 1.387 . S
H1301 C1297 0.950 . S
H1302 C1299 0.950 . S
C1303 C1294 1.390 . S
C1303 H1296 0.950 . S
C1303 C1300 1.387 . S
C1304 C1305 1.387 . S
C1304 H1308 0.950 . S
C1304 C1313 1.390 . S
C1305 C1304 1.387 . S
C1305 C1307 1.387 . S
H1306 C1313 0.950 . S
C1307 C1305 1.387 . S
C1307 C1309 1.390 . S
C1307 H1311 0.950 . S
H1308 C1304 0.950 . S
C1309 C1307 1.390 . S
C1309 C1310 1.387 . S
C1309 H1312 0.950 . S
C1310 C1309 1.387 . S
C1310 C1313 1.387 . S
H1311 C1307 0.950 . S
H1312 C1309 0.950 . S
C1313 C1304 1.390 . S
C1313 H1306 0.950 . S
C1313 C1310 1.387 . S
C1314 C1315 1.387 . S
C1314 H1318 0.950 1_655 S
C1314 C1323 1.390 . S
C1315 C1314 1.387 . S
C1315 C1317 1.387 . S
H1316 C1323 0.950 . S
C1317 C1315 1.387 . S
C1317 C1319 1.390 . S
C1317 H1321 0.950 . S
H1318 C1314 0.950 1_455 S
C1319 C1317 1.390 . S
C1319 C1320 1.387 . S
C1319 H1322 0.950 . S
C1320 C1319 1.387 . S
C1320 C1323 1.387 . S
H1321 C1317 0.950 . S
H1322 C1319 0.950 . S
C1323 C1314 1.390 . S
C1323 H1316 0.950 . S
C1323 C1320 1.387 . S
C1324 C1325 1.387 . S
C1324 H1328 0.950 . S
C1324 C1333 1.390 . S
C1325 C1324 1.387 . S
C1325 C1327 1.387 . S
H1326 C1333 0.950 . S
C1327 C1325 1.387 . S
C1327 C1329 1.390 . S
C1327 H1331 0.950 . S
H1328 C1324 0.950 . S
C1329 C1327 1.390 . S
C1329 C1330 1.387 . S
C1329 H1332 0.950 . S
C1330 C1329 1.387 . S
C1330 C1333 1.387 . S
H1331 C1327 0.950 . S
H1332 C1329 0.950 . S
C1333 C1324 1.390 . S
C1333 H1326 0.950 . S
C1333 C1330 1.387 . S
C1334 C1335 1.387 . S
C1334 H1338 0.950 . S
C1334 C1343 1.390 . S
C1335 C1334 1.387 . S
C1335 C1337 1.387 . S
H1336 C1343 0.950 . S
C1337 C1335 1.387 . S
C1337 C1339 1.390 . S
C1337 H1341 0.950 . S
H1338 C1334 0.950 . S
C1339 C1337 1.390 . S
C1339 C1340 1.387 . S
C1339 H1342 0.950 . S
C1340 C1339 1.387 . S
C1340 C1343 1.387 . S
H1341 C1337 0.950 . S
H1342 C1339 0.950 . S
C1343 C1334 1.390 . S
C1343 H1336 0.950 . S
C1343 C1340 1.387 . S
C1344 C1345 1.387 . S
C1344 H1348 0.950 . S
C1344 C1353 1.390 . S
C1345 C1344 1.387 . S
C1345 C1347 1.387 . S
H1346 C1353 0.950 . S
C1347 C1345 1.387 . S
C1347 C1349 1.390 . S
C1347 H1351 0.950 . S
H1348 C1344 0.950 . S
C1349 C1347 1.390 . S
C1349 C1350 1.387 . S
C1349 H1352 0.950 . S
C1350 C1349 1.387 . S
C1350 C1353 1.387 . S
H1351 C1347 0.950 . S
H1352 C1349 0.950 . S
C1353 C1344 1.390 . S
C1353 H1346 0.950 . S
C1353 C1350 1.387 . S
C1354 C1355 1.387 . S
C1354 H1358 0.950 . S
C1354 C1363 1.390 . S
C1355 C1354 1.387 . S
C1355 C1357 1.387 . S
H1356 C1363 0.950 . S
C1357 C1355 1.387 . S
C1357 C1359 1.390 . S
C1357 H1361 0.950 . S
H1358 C1354 0.950 . S
C1359 C1357 1.390 . S
C1359 C1360 1.387 . S
C1359 H1362 0.950 . S
C1360 C1359 1.387 . S
C1360 C1363 1.387 . S
H1361 C1357 0.950 . S
H1362 C1359 0.950 . S
C1363 C1354 1.390 . S
C1363 H1356 0.950 . S
C1363 C1360 1.387 . S
C1364 C1365 1.387 . S
C1364 H1368 0.950 . S
C1364 C1373 1.390 . S
C1365 C1364 1.387 . S
C1365 C1367 1.387 . S
H1366 C1373 0.950 . S
C1367 C1365 1.387 . S
C1367 C1369 1.390 . S
C1367 H1371 0.950 . S
H1368 C1364 0.950 . S
C1369 C1367 1.390 . S
C1369 C1370 1.387 . S
C1369 H1372 0.950 . S
C1370 C1369 1.387 . S
C1370 C1373 1.387 . S
H1371 C1367 0.950 . S
H1372 C1369 0.950 . S
C1373 C1364 1.390 . S
C1373 H1366 0.950 . S
C1373 C1370 1.387 . S
C1374 C1375 1.387 . S
C1374 H1378 0.950 . S
C1374 C1383 1.390 . S
C1375 C1374 1.387 . S
C1375 C1377 1.387 . S
H1376 C1383 0.950 . S
C1377 C1375 1.387 . S
C1377 C1379 1.390 . S
C1377 H1381 0.950 . S
H1378 C1374 0.950 . S
C1379 C1377 1.390 . S
C1379 C1380 1.387 . S
C1379 H1382 0.950 . S
C1380 C1379 1.387 . S
C1380 C1383 1.387 . S
H1381 C1377 0.950 . S
H1382 C1379 0.950 . S
C1383 C1374 1.390 . S
C1383 H1376 0.950 . S
C1383 C1380 1.387 . S
C1384 C1385 1.387 . S
C1384 H1388 0.950 . S
C1384 C1393 1.390 . S
C1385 C1384 1.387 . S
C1385 C1387 1.387 . S
H1386 C1393 0.950 . S
C1387 C1385 1.387 . S
C1387 C1389 1.390 . S
C1387 H1391 0.950 . S
H1388 C1384 0.950 . S
C1389 C1387 1.390 . S
C1389 C1390 1.387 . S
C1389 H1392 0.950 . S
C1390 C1389 1.387 . S
C1390 C1393 1.387 . S
H1391 C1387 0.950 . S
H1392 C1389 0.950 . S
C1393 C1384 1.390 . S
C1393 H1386 0.950 . S
C1393 C1390 1.387 . S
C1394 C1395 1.387 . S
C1394 H1398 0.950 . S
C1394 C1403 1.390 . S
C1395 C1394 1.387 . S
C1395 C1397 1.387 . S
H1396 C1403 0.950 . S
C1397 C1395 1.387 . S
C1397 C1399 1.390 . S
C1397 H1401 0.950 . S
H1398 C1394 0.950 . S
C1399 C1397 1.390 . S
C1399 C1400 1.387 . S
C1399 H1402 0.950 . S
C1400 C1399 1.387 . S
C1400 C1403 1.387 . S
H1401 C1397 0.950 . S
H1402 C1399 0.950 . S
C1403 C1394 1.390 . S
C1403 H1396 0.950 . S
C1403 C1400 1.387 . S
C1404 C1405 1.387 . S
C1404 H1408 0.950 . S
C1404 C1413 1.390 . S
C1405 C1404 1.387 . S
C1405 C1407 1.387 . S
H1406 C1413 0.950 . S
C1407 C1405 1.387 . S
C1407 C1409 1.390 . S
C1407 H1411 0.950 . S
H1408 C1404 0.950 . S
C1409 C1407 1.390 . S
C1409 C1410 1.387 . S
C1409 H1412 0.950 . S
C1410 C1409 1.387 . S
C1410 C1413 1.387 . S
H1411 C1407 0.950 . S
H1412 C1409 0.950 . S
C1413 C1404 1.390 . S
C1413 H1406 0.950 . S
C1413 C1410 1.387 . S
C1414 C1415 1.387 . S
C1414 H1418 0.950 . S
C1414 C1423 1.390 . S
C1415 C1414 1.387 . S
C1415 C1417 1.387 . S
H1416 C1423 0.950 . S
C1417 C1415 1.387 . S
C1417 C1419 1.390 . S
C1417 H1421 0.950 . S
H1418 C1414 0.950 . S
C1419 C1417 1.390 . S
C1419 C1420 1.387 . S
C1419 H1422 0.950 . S
C1420 C1419 1.387 . S
C1420 C1423 1.387 . S
H1421 C1417 0.950 . S
H1422 C1419 0.950 . S
C1423 C1414 1.390 . S
C1423 H1416 0.950 . S
C1423 C1420 1.387 . S
C1424 C1425 1.387 . S
C1424 H1428 0.950 . S
C1424 C1433 1.390 . S
C1425 C1424 1.387 . S
C1425 C1427 1.387 . S
H1426 C1433 0.950 . S
C1427 C1425 1.387 . S
C1427 C1429 1.390 . S
C1427 H1431 0.950 . S
H1428 C1424 0.950 . S
C1429 C1427 1.390 . S
C1429 C1430 1.387 . S
C1429 H1432 0.950 . S
C1430 C1429 1.387 . S
C1430 C1433 1.387 . S
H1431 C1427 0.950 . S
H1432 C1429 0.950 . S
C1433 C1424 1.390 . S
C1433 H1426 0.950 . S
C1433 C1430 1.387 . S
C1434 C1435 1.387 . S
C1434 H1438 0.950 . S
C1434 C1443 1.390 . S
C1435 C1434 1.387 . S
C1435 C1437 1.387 . S
H1436 C1443 0.950 . S
C1437 C1435 1.387 . S
C1437 C1439 1.390 . S
C1437 H1441 0.950 . S
H1438 C1434 0.950 . S
C1439 C1437 1.390 . S
C1439 C1440 1.387 . S
C1439 H1442 0.950 . S
C1440 C1439 1.387 . S
C1440 C1443 1.387 . S
H1441 C1437 0.950 . S
H1442 C1439 0.950 . S
C1443 C1434 1.390 . S
C1443 H1436 0.950 . S
C1443 C1440 1.387 . S
C1444 C1445 1.387 . S
C1444 H1448 0.950 . S
C1444 C1453 1.390 . S
C1445 C1444 1.387 . S
C1445 C1447 1.387 . S
H1446 C1453 0.950 . S
C1447 C1445 1.387 . S
C1447 C1449 1.390 . S
C1447 H1451 0.950 . S
H1448 C1444 0.950 . S
C1449 C1447 1.390 . S
C1449 C1450 1.387 . S
C1449 H1452 0.950 . S
C1450 C1449 1.387 . S
C1450 C1453 1.387 . S
H1451 C1447 0.950 . S
H1452 C1449 0.950 . S
C1453 C1444 1.390 . S
C1453 H1446 0.950 . S
C1453 C1450 1.387 . S
C1454 C1455 1.387 . S
C1454 H1458 0.950 . S
C1454 C1463 1.390 . S
C1455 C1454 1.387 . S
C1455 C1457 1.387 . S
H1456 C1463 0.950 . S
C1457 C1455 1.387 . S
C1457 C1459 1.390 . S
C1457 H1461 0.950 . S
H1458 C1454 0.950 . S
C1459 C1457 1.390 . S
C1459 C1460 1.387 . S
C1459 H1462 0.950 . S
C1460 C1459 1.387 . S
C1460 C1463 1.387 . S
H1461 C1457 0.950 . S
H1462 C1459 0.950 . S
C1463 C1454 1.390 . S
C1463 H1456 0.950 . S
C1463 C1460 1.387 . S
C1464 C1465 1.387 . S
C1464 H1468 0.950 . S
C1464 C1473 1.390 . S
C1465 C1464 1.387 . S
C1465 C1467 1.387 . S
H1466 C1473 0.950 . S
C1467 C1465 1.387 . S
C1467 C1469 1.390 . S
C1467 H1471 0.950 . S
H1468 C1464 0.950 . S
C1469 C1467 1.390 . S
C1469 C1470 1.387 . S
C1469 H1472 0.950 . S
C1470 C1469 1.387 . S
C1470 C1473 1.387 . S
H1471 C1467 0.950 . S
H1472 C1469 0.950 . S
C1473 C1464 1.390 . S
C1473 H1466 0.950 . S
C1473 C1470 1.387 . S
C1474 C1475 1.387 . S
C1474 H1478 0.950 . S
C1474 C1483 1.390 . S
C1475 C1474 1.387 . S
C1475 C1477 1.387 . S
H1476 C1483 0.950 . S
C1477 C1475 1.387 . S
C1477 C1479 1.390 . S
C1477 H1481 0.950 . S
H1478 C1474 0.950 . S
C1479 C1477 1.390 . S
C1479 C1480 1.387 . S
C1479 H1482 0.950 . S
C1480 C1479 1.387 . S
C1480 C1483 1.387 . S
H1481 C1477 0.950 . S
H1482 C1479 0.950 . S
C1483 C1474 1.390 . S
C1483 H1476 0.950 . S
C1483 C1480 1.387 . S
C1484 C1485 1.387 . S
C1484 H1488 0.950 . S
C1484 C1493 1.390 . S
C1485 C1484 1.387 . S
C1485 C1487 1.387 . S
H1486 C1493 0.950 . S
C1487 C1485 1.387 . S
C1487 C1489 1.390 . S
C1487 H1491 0.950 . S
H1488 C1484 0.950 . S
C1489 C1487 1.390 . S
C1489 C1490 1.387 . S
C1489 H1492 0.950 . S
C1490 C1489 1.387 . S
C1490 C1493 1.387 . S
H1491 C1487 0.950 . S
H1492 C1489 0.950 . S
C1493 C1484 1.390 . S
C1493 H1486 0.950 . S
C1493 C1490 1.387 . S
C1494 C1495 1.387 . S
C1494 H1498 0.950 . S
C1494 C1503 1.390 . S
C1495 C1494 1.387 . S
C1495 C1497 1.387 . S
H1496 C1503 0.950 . S
C1497 C1495 1.387 . S
C1497 C1499 1.390 . S
C1497 H1501 0.950 . S
H1498 C1494 0.950 . S
C1499 C1497 1.390 . S
C1499 C1500 1.387 . S
C1499 H1502 0.950 . S
C1500 C1499 1.387 . S
C1500 C1503 1.387 . S
H1501 C1497 0.950 . S
H1502 C1499 0.950 . S
C1503 C1494 1.390 . S
C1503 H1496 0.950 . S
C1503 C1500 1.387 . S
C1504 C1505 1.387 . S
C1504 H1508 0.950 . S
C1504 C1513 1.390 . S
C1505 C1504 1.387 . S
C1505 C1507 1.387 . S
H1506 C1513 0.950 . S
C1507 C1505 1.387 . S
C1507 C1509 1.390 . S
C1507 H1511 0.950 . S
H1508 C1504 0.950 . S
C1509 C1507 1.390 . S
C1509 C1510 1.387 . S
C1509 H1512 0.950 . S
C1510 C1509 1.387 . S
C1510 C1513 1.387 . S
H1511 C1507 0.950 . S
H1512 C1509 0.950 . S
C1513 C1504 1.390 . S
C1513 H1506 0.950 . S
C1513 C1510 1.387 . S
C1514 C1515 1.387 . S
C1514 H1518 0.950 . S
C1514 C1523 1.390 . S
C1515 C1514 1.387 . S
C1515 C1517 1.387 . S
H1516 C1523 0.950 . S
C1517 C1515 1.387 . S
C1517 C1519 1.390 . S
C1517 H1521 0.950 . S
H1518 C1514 0.950 . S
C1519 C1517 1.390 . S
C1519 C1520 1.387 . S
C1519 H1522 0.950 . S
C1520 C1519 1.387 . S
C1520 C1523 1.387 . S
H1521 C1517 0.950 . S
H1522 C1519 0.950 . S
C1523 C1514 1.390 . S
C1523 H1516 0.950 . S
C1523 C1520 1.387 . S
C1524 C1525 1.387 . S
C1524 H1528 0.950 . S
C1524 C1533 1.390 . S
C1525 C1524 1.387 . S
C1525 C1527 1.387 . S
H1526 C1533 0.950 . S
C1527 C1525 1.387 . S
C1527 C1529 1.390 . S
C1527 H1531 0.950 . S
H1528 C1524 0.950 . S
C1529 C1527 1.390 . S
C1529 C1530 1.387 . S
C1529 H1532 0.950 . S
C1530 C1529 1.387 . S
C1530 C1533 1.387 . S
H1531 C1527 0.950 . S
H1532 C1529 0.950 . S
C1533 C1524 1.390 . S
C1533 H1526 0.950 . S
C1533 C1530 1.387 . S
C1534 C1535 1.387 . S
C1534 H1538 0.950 . S
C1534 C1543 1.390 . S
C1535 C1534 1.387 . S
C1535 C1537 1.387 . S
H1536 C1543 0.950 . S
C1537 C1535 1.387 . S
C1537 C1539 1.390 . S
C1537 H1541 0.950 . S
H1538 C1534 0.950 . S
C1539 C1537 1.390 . S
C1539 C1540 1.387 . S
C1539 H1542 0.950 . S
C1540 C1539 1.387 . S
C1540 C1543 1.387 . S
H1541 C1537 0.950 . S
H1542 C1539 0.950 . S
C1543 C1534 1.390 . S
C1543 H1536 0.950 . S
C1543 C1540 1.387 . S
C1544 C1545 1.387 . S
C1544 H1548 0.950 . S
C1544 C1553 1.390 . S
C1545 C1544 1.387 . S
C1545 C1547 1.387 . S
H1546 C1553 0.950 . S
C1547 C1545 1.387 . S
C1547 C1549 1.390 . S
C1547 H1551 0.950 . S
H1548 C1544 0.950 . S
C1549 C1547 1.390 . S
C1549 C1550 1.387 . S
C1549 H1552 0.950 . S
C1550 C1549 1.387 . S
C1550 C1553 1.387 . S
H1551 C1547 0.950 . S
H1552 C1549 0.950 . S
C1553 C1544 1.390 . S
C1553 H1546 0.950 . S
C1553 C1550 1.387 . S
C1554 C1555 1.387 . S
C1554 H1558 0.950 . S
C1554 C1563 1.390 . S
C1555 C1554 1.387 . S
C1555 C1557 1.387 . S
H1556 C1563 0.950 . S
C1557 C1555 1.387 . S
C1557 C1559 1.390 . S
C1557 H1561 0.950 . S
H1558 C1554 0.950 . S
C1559 C1557 1.390 . S
C1559 C1560 1.387 . S
C1559 H1562 0.950 . S
C1560 C1559 1.387 . S
C1560 C1563 1.387 . S
H1561 C1557 0.950 . S
H1562 C1559 0.950 . S
C1563 C1554 1.390 . S
C1563 H1556 0.950 . S
C1563 C1560 1.387 . S
C1564 C1565 1.387 . S
C1564 H1568 0.950 . S
C1564 C1573 1.390 . S
C1565 C1564 1.387 . S
C1565 C1567 1.387 . S
H1566 C1573 0.950 . S
C1567 C1565 1.387 . S
C1567 C1569 1.390 . S
C1567 H1571 0.950 . S
H1568 C1564 0.950 . S
C1569 C1567 1.390 . S
C1569 C1570 1.387 . S
C1569 H1572 0.950 . S
C1570 C1569 1.387 . S
C1570 C1573 1.387 . S
H1571 C1567 0.950 . S
H1572 C1569 0.950 . S
C1573 C1564 1.390 . S
C1573 H1566 0.950 . S
C1573 C1570 1.387 . S
C1574 C1575 1.387 . S
C1574 H1578 0.950 . S
C1574 C1583 1.390 . S
C1575 C1574 1.387 . S
C1575 C1577 1.387 . S
H1576 C1583 0.950 . S
C1577 C1575 1.387 . S
C1577 C1579 1.390 . S
C1577 H1581 0.950 . S
H1578 C1574 0.950 . S
C1579 C1577 1.390 . S
C1579 C1580 1.387 . S
C1579 H1582 0.950 . S
C1580 C1579 1.387 . S
C1580 C1583 1.387 . S
H1581 C1577 0.950 . S
H1582 C1579 0.950 . S
C1583 C1574 1.390 . S
C1583 H1576 0.950 . S
C1583 C1580 1.387 . S
C1584 C1585 1.387 . S
C1584 H1588 0.950 . S
C1584 C1593 1.390 . S
C1585 C1584 1.387 . S
C1585 C1587 1.387 . S
H1586 C1593 0.950 . S
C1587 C1585 1.387 . S
C1587 C1589 1.390 . S
C1587 H1591 0.950 . S
H1588 C1584 0.950 . S
C1589 C1587 1.390 . S
C1589 C1590 1.387 . S
C1589 H1592 0.950 . S
C1590 C1589 1.387 . S
C1590 C1593 1.387 . S
H1591 C1587 0.950 . S
H1592 C1589 0.950 . S
C1593 C1584 1.390 . S
C1593 H1586 0.950 . S
C1593 C1590 1.387 . S
C1594 C1595 1.387 . S
C1594 H1598 0.950 . S
C1594 C1603 1.390 . S
C1595 C1594 1.387 . S
C1595 C1597 1.387 . S
H1596 C1603 0.950 . S
C1597 C1595 1.387 . S
C1597 C1599 1.390 . S
C1597 H1601 0.950 . S
H1598 C1594 0.950 . S
C1599 C1597 1.390 . S
C1599 C1600 1.387 . S
C1599 H1602 0.950 1_565 S
C1600 C1599 1.387 . S
C1600 C1603 1.387 . S
H1601 C1597 0.950 . S
H1602 C1599 0.950 1_545 S
C1603 C1594 1.390 . S
C1603 H1596 0.950 . S
C1603 C1600 1.387 . S
C1604 C1605 1.387 . S
C1604 H1608 0.950 . S
C1604 C1613 1.390 . S
C1605 C1604 1.387 . S
C1605 C1607 1.387 . S
H1606 C1613 0.950 . S
C1607 C1605 1.387 . S
C1607 C1609 1.390 . S
C1607 H1611 0.950 . S
H1608 C1604 0.950 . S
C1609 C1607 1.390 . S
C1609 C1610 1.387 . S
C1609 H1612 0.950 . S
C1610 C1609 1.387 . S
C1610 C1613 1.387 . S
H1611 C1607 0.950 . S
H1612 C1609 0.950 . S
C1613 C1604 1.390 . S
C1613 H1606 0.950 . S
C1613 C1610 1.387 . S
C1614 C1615 1.387 . S
C1614 H1618 0.950 . S
C1614 C1623 1.390 . S
C1615 C1614 1.387 . S
C1615 C1617 1.387 . S
H1616 C1623 0.950 . S
C1617 C1615 1.387 . S
C1617 C1619 1.390 . S
C1617 H1621 0.950 . S
H1618 C1614 0.950 . S
C1619 C1617 1.390 . S
C1619 C1620 1.387 . S
C1619 H1622 0.950 . S
C1620 C1619 1.387 . S
C1620 C1623 1.387 . S
H1621 C1617 0.950 . S
H1622 C1619 0.950 . S
C1623 C1614 1.390 . S
C1623 H1616 0.950 . S
C1623 C1620 1.387 . S
C1624 C1625 1.387 . S
C1624 H1628 0.950 . S
C1624 C1633 1.390 . S
C1625 C1624 1.387 . S
C1625 C1627 1.387 . S
H1626 C1633 0.950 . S
C1627 C1625 1.387 . S
C1627 C1629 1.390 . S
C1627 H1631 0.950 1_545 S
H1628 C1624 0.950 . S
C1629 C1627 1.390 . S
C1629 C1630 1.387 . S
C1629 H1632 0.950 . S
C1630 C1629 1.387 . S
C1630 C1633 1.387 . S
H1631 C1627 0.950 1_565 S
H1632 C1629 0.950 . S
C1633 C1624 1.390 . S
C1633 H1626 0.950 . S
C1633 C1630 1.387 . S
C1634 C1635 1.387 . S
C1634 H1638 0.950 . S
C1634 C1643 1.390 . S
C1635 C1634 1.387 . S
C1635 C1637 1.387 . S
H1636 C1643 0.950 . S
C1637 C1635 1.387 . S
C1637 C1639 1.390 . S
C1637 H1641 0.950 . S
H1638 C1634 0.950 . S
C1639 C1637 1.390 . S
C1639 C1640 1.387 . S
C1639 H1642 0.950 . S
C1640 C1639 1.387 . S
C1640 C1643 1.387 . S
H1641 C1637 0.950 . S
H1642 C1639 0.950 . S
C1643 C1634 1.390 . S
C1643 H1636 0.950 . S
C1643 C1640 1.387 . S
C1644 C1645 1.387 . S
C1644 H1648 0.950 . S
C1644 C1653 1.390 . S
C1645 C1644 1.387 . S
C1645 C1647 1.387 . S
H1646 C1653 0.950 . S
C1647 C1645 1.387 . S
C1647 C1649 1.390 . S
C1647 H1651 0.950 . S
H1648 C1644 0.950 . S
C1649 C1647 1.390 . S
C1649 C1650 1.387 . S
C1649 H1652 0.950 . S
C1650 C1649 1.387 . S
C1650 C1653 1.387 . S
H1651 C1647 0.950 . S
H1652 C1649 0.950 . S
C1653 C1644 1.390 . S
C1653 H1646 0.950 . S
C1653 C1650 1.387 . S
C1654 C1655 1.387 . S
C1654 H1658 0.950 . S
C1654 C1663 1.390 . S
C1655 C1654 1.387 . S
C1655 C1657 1.387 . S
H1656 C1663 0.950 . S
C1657 C1655 1.387 . S
C1657 C1659 1.390 . S
C1657 H1661 0.950 . S
H1658 C1654 0.950 . S
C1659 C1657 1.390 . S
C1659 C1660 1.387 . S
C1659 H1662 0.950 1_545 S
C1660 C1659 1.387 . S
C1660 C1663 1.387 . S
H1661 C1657 0.950 . S
H1662 C1659 0.950 1_565 S
C1663 C1654 1.390 . S
C1663 H1656 0.950 . S
C1663 C1660 1.387 . S
C1664 C1665 1.387 . S
C1664 H1668 0.950 . S
C1664 C1673 1.390 . S
C1665 C1664 1.387 . S
C1665 C1667 1.387 . S
H1666 C1673 0.950 1_455 S
C1667 C1665 1.387 . S
C1667 C1669 1.390 . S
C1667 H1671 0.950 . S
H1668 C1664 0.950 . S
C1669 C1667 1.390 . S
C1669 C1670 1.387 . S
C1669 H1672 0.950 . S
C1670 C1669 1.387 . S
C1670 C1673 1.387 . S
H1671 C1667 0.950 . S
H1672 C1669 0.950 . S
C1673 C1664 1.390 . S
C1673 H1666 0.950 1_655 S
C1673 C1670 1.387 . S
C1674 C1675 1.387 . S
C1674 H1678 0.950 . S
C1674 C1683 1.390 . S
C1675 C1674 1.387 . S
C1675 C1677 1.387 . S
H1676 C1683 0.950 . S
C1677 C1675 1.387 . S
C1677 C1679 1.390 . S
C1677 H1681 0.950 . S
H1678 C1674 0.950 . S
C1679 C1677 1.390 . S
C1679 C1680 1.387 . S
C1679 H1682 0.950 . S
C1680 C1679 1.387 . S
C1680 C1683 1.387 . S
H1681 C1677 0.950 . S
H1682 C1679 0.950 . S
C1683 C1674 1.390 . S
C1683 H1676 0.950 . S
C1683 C1680 1.387 . S
C1684 C1685 1.387 . S
C1684 H1688 0.950 . S
C1684 C1693 1.390 . S
C1685 C1684 1.387 . S
C1685 C1687 1.387 . S
H1686 C1693 0.950 . S
C1687 C1685 1.387 . S
C1687 C1689 1.390 . S
C1687 H1691 0.950 . S
H1688 C1684 0.950 . S
C1689 C1687 1.390 . S
C1689 C1690 1.387 . S
C1689 H1692 0.950 1_565 S
C1690 C1689 1.387 . S
C1690 C1693 1.387 . S
H1691 C1687 0.950 . S
H1692 C1689 0.950 1_545 S
C1693 C1684 1.390 . S
C1693 H1686 0.950 . S
C1693 C1690 1.387 . S
C1694 C1695 1.387 . S
C1694 H1698 0.950 . S
C1694 C1703 1.390 . S
C1695 C1694 1.387 . S
C1695 C1697 1.387 . S
H1696 C1703 0.950 . S
C1697 C1695 1.387 . S
C1697 C1699 1.390 . S
C1697 H1701 0.950 . S
H1698 C1694 0.950 . S
C1699 C1697 1.390 . S
C1699 C1700 1.387 . S
C1699 H1702 0.950 . S
C1700 C1699 1.387 . S
C1700 C1703 1.387 . S
H1701 C1697 0.950 . S
H1702 C1699 0.950 . S
C1703 C1694 1.390 . S
C1703 H1696 0.950 . S
C1703 C1700 1.387 . S
C1704 C1705 1.387 . S
C1704 H1708 0.950 . S
C1704 C1713 1.390 . S
C1705 C1704 1.387 . S
C1705 C1707 1.387 . S
H1706 C1713 0.950 1_455 S
C1707 C1705 1.387 . S
C1707 C1709 1.390 . S
C1707 H1711 0.950 . S
H1708 C1704 0.950 . S
C1709 C1707 1.390 . S
C1709 C1710 1.387 . S
C1709 H1712 0.950 . S
C1710 C1709 1.387 . S
C1710 C1713 1.387 . S
H1711 C1707 0.950 . S
H1712 C1709 0.950 . S
C1713 C1704 1.390 . S
C1713 H1706 0.950 1_655 S
C1713 C1710 1.387 . S
C1714 C1715 1.387 . S
C1714 H1718 0.950 . S
C1714 C1723 1.390 . S
C1715 C1714 1.387 . S
C1715 C1717 1.387 . S
H1716 C1723 0.950 . S
C1717 C1715 1.387 . S
C1717 C1719 1.390 . S
C1717 H1721 0.950 . S
H1718 C1714 0.950 . S
C1719 C1717 1.390 . S
C1719 C1720 1.387 . S
C1719 H1722 0.950 . S
C1720 C1719 1.387 . S
C1720 C1723 1.387 . S
H1721 C1717 0.950 . S
H1722 C1719 0.950 . S
C1723 C1714 1.390 . S
C1723 H1716 0.950 . S
C1723 C1720 1.387 . S
C1724 C1725 1.387 . S
C1724 H1728 0.950 1_545 S
C1724 C1733 1.390 . S
C1725 C1724 1.387 . S
C1725 C1727 1.387 . S
H1726 C1733 0.950 . S
C1727 C1725 1.387 . S
C1727 C1729 1.390 . S
C1727 H1731 0.950 . S
H1728 C1724 0.950 1_565 S
C1729 C1727 1.390 . S
C1729 C1730 1.387 . S
C1729 H1732 0.950 . S
C1730 C1729 1.387 . S
C1730 C1733 1.387 . S
H1731 C1727 0.950 . S
H1732 C1729 0.950 . S
C1733 C1724 1.390 . S
C1733 H1726 0.950 . S
C1733 C1730 1.387 . S
C1734 C1735 1.387 1_455 S
C1734 H1738 0.950 . S
C1734 C1743 1.390 . S
C1735 C1734 1.387 1_655 S
C1735 C1737 1.387 . S
H1736 C1743 0.950 . S
C1737 C1735 1.387 . S
C1737 C1739 1.390 1_655 S
C1737 H1741 0.950 . S
H1738 C1734 0.950 . S
C1739 C1737 1.390 1_455 S
C1739 C1740 1.387 . S
C1739 H1742 0.941 1_455 S
C1740 C1739 1.387 . S
C1740 C1743 1.387 . S
H1741 C1737 0.950 . S
H1742 C1739 0.941 1_655 S
C1743 C1734 1.390 . S
C1743 H1736 0.950 . S
C1743 C1740 1.387 . S
C1744 C1745 1.387 . S
C1744 H1748 0.950 . S
C1744 C1753 1.390 . S
C1745 C1744 1.387 . S
C1745 C1747 1.387 . S
H1746 C1753 0.950 . S
C1747 C1745 1.387 . S
C1747 C1749 1.390 . S
C1747 H1751 0.950 . S
H1748 C1744 0.950 . S
C1749 C1747 1.390 . S
C1749 C1750 1.387 . S
C1749 H1752 0.950 . S
C1750 C1749 1.387 . S
C1750 C1753 1.387 . S
H1751 C1747 0.950 . S
H1752 C1749 0.950 . S
C1753 C1744 1.390 . S
C1753 H1746 0.950 . S
C1753 C1750 1.387 . S
C1754 C1755 1.387 1_565 S
C1754 H1758 0.950 . S
C1754 C1763 1.390 . S
C1755 C1754 1.387 1_545 S
C1755 C1757 1.387 . S
H1756 C1763 0.950 . S
C1757 C1755 1.387 . S
C1757 C1759 1.390 . S
C1757 H1761 0.950 . S
H1758 C1754 0.950 . S
C1759 C1757 1.390 . S
C1759 C1760 1.387 1_545 S
C1759 H1762 0.950 . S
C1760 C1759 1.387 1_565 S
C1760 C1763 1.387 . S
H1761 C1757 0.950 . S
H1762 C1759 0.950 . S
C1763 C1754 1.390 . S
C1763 H1756 0.950 . S
C1763 C1760 1.387 . S
C1764 C1765 1.387 1_545 S
C1764 H1768 0.950 . S
C1764 C1773 1.390 . S
C1765 C1764 1.387 1_565 S
C1765 C1767 1.387 . S
H1766 C1773 0.950 . S
C1767 C1765 1.387 . S
C1767 C1769 1.390 . S
C1767 H1771 0.950 . S
H1768 C1764 0.950 . S
C1769 C1767 1.390 . S
C1769 C1770 1.387 1_565 S
C1769 H1772 0.950 . S
C1770 C1769 1.387 1_545 S
C1770 C1773 1.387 . S
H1771 C1767 0.950 . S
H1772 C1769 0.950 . S
C1773 C1764 1.390 . S
C1773 H1766 0.950 . S
C1773 C1770 1.387 . S
C1774 C1775 1.387 1_455 S
C1774 H1778 0.950 . S
C1774 C1783 1.390 . S
C1775 C1774 1.387 1_655 S
C1775 C1777 1.387 . S
H1776 C1783 0.950 . S
C1777 C1775 1.387 . S
C1777 C1779 1.390 1_655 S
C1777 H1781 0.950 . S
H1778 C1774 0.950 . S
C1779 C1777 1.390 1_455 S
C1779 C1780 1.387 . S
C1779 H1782 0.959 1_455 S
C1780 C1779 1.387 . S
C1780 C1783 1.387 . S
H1781 C1777 0.950 . S
H1782 C1779 0.959 1_655 S
C1783 C1774 1.390 . S
C1783 H1776 0.950 . S
C1783 C1780 1.387 . S
C1784 C1785 1.387 . S
C1784 H1788 0.950 . S
C1784 C1793 1.390 . S
C1785 C1784 1.387 . S
C1785 C1787 1.387 . S
H1786 C1793 0.950 . S
C1787 C1785 1.387 . S
C1787 C1789 1.390 . S
C1787 H1791 0.950 . S
H1788 C1784 0.950 . S
C1789 C1787 1.390 . S
C1789 C1790 1.387 . S
C1789 H1792 0.950 . S
C1790 C1789 1.387 . S
C1790 C1793 1.387 . S
H1791 C1787 0.950 . S
H1792 C1789 0.950 . S
C1793 C1784 1.390 . S
C1793 H1786 0.950 . S
C1793 C1790 1.387 . S
C1794 C1795 1.387 . S
C1794 H1798 0.950 . S
C1794 C1803 1.390 1_556 S
C1795 C1794 1.387 . S
C1795 C1797 1.387 1_556 S
H1796 C1803 0.950 . S
C1797 C1795 1.387 1_554 S
C1797 C1799 1.390 . S
C1797 H1801 0.950 1_545 S
H1798 C1794 0.950 . S
C1799 C1797 1.390 . S
C1799 C1800 1.387 . S
C1799 H1802 0.950 . S
C1800 C1799 1.387 . S
C1800 C1803 1.387 . S
H1801 C1797 0.950 1_565 S
H1802 C1799 0.950 . S
C1803 C1794 1.390 1_554 S
C1803 H1796 0.950 . S
C1803 C1800 1.387 . S
C1804 C1805 1.387 . S
C1804 H1808 0.950 . S
C1804 C1813 1.390 . S
C1805 C1804 1.387 . S
C1805 C1807 1.387 . S
H1806 C1813 0.950 . S
C1807 C1805 1.387 . S
C1807 C1809 1.390 1_554 S
C1807 H1811 0.950 . S
H1808 C1804 0.950 . S
C1809 C1807 1.390 1_556 S
C1809 C1810 1.387 . S
C1809 H1812 0.950 . S
C1810 C1809 1.387 . S
C1810 C1813 1.387 1_556 S
H1811 C1807 0.950 . S
H1812 C1809 0.950 . S
C1813 C1804 1.390 . S
C1813 H1806 0.950 . S
C1813 C1810 1.387 1_554 S
C1814 C1815 1.387 . S
C1814 H1818 0.950 . S
C1814 C1823 1.390 1_554 S
C1815 C1814 1.387 . S
C1815 C1817 1.387 . S
H1816 C1823 0.950 . S
C1817 C1815 1.387 . S
C1817 C1819 1.390 . S
C1817 H1821 0.950 . S
H1818 C1814 0.950 . S
C1819 C1817 1.390 . S
C1819 C1820 1.387 1_554 S
C1819 H1822 0.950 . S
C1820 C1819 1.387 1_556 S
C1820 C1823 1.387 . S
H1821 C1817 0.950 . S
H1822 C1819 0.950 . S
C1823 C1814 1.390 1_556 S
C1823 H1816 0.950 . S
C1823 C1820 1.387 . S
C1824 C1825 1.387 1_565 S
C1824 H1828 0.950 . S
C1824 C1833 1.390 . S
C1825 C1824 1.387 1_545 S
C1825 C1827 1.387 . S
H1826 C1833 0.950 . S
C1827 C1825 1.387 . S
C1827 C1829 1.390 . S
C1827 H1831 0.950 . S
H1828 C1824 0.950 . S
C1829 C1827 1.390 . S
C1829 C1830 1.387 1_545 S
C1829 H1832 0.950 . S
C1830 C1829 1.387 1_565 S
C1830 C1833 1.387 . S
H1831 C1827 0.950 . S
H1832 C1829 0.950 . S
C1833 C1824 1.390 . S
C1833 H1826 0.950 . S
C1833 C1830 1.387 . S
C1834 C1835 1.387 . S
C1834 H1838 0.950 . S
C1834 C1843 1.390 . S
C1835 C1834 1.387 . S
C1835 C1837 1.387 1_655 S
H1836 C1843 0.950 . S
C1837 C1835 1.387 1_455 S
C1837 C1839 1.390 . S
C1837 H1841 0.950 . S
H1838 C1834 0.950 . S
C1839 C1837 1.390 . S
C1839 C1840 1.387 . S
C1839 H1842 0.950 . S
C1840 C1839 1.387 . S
C1840 C1843 1.387 1_455 S
H1841 C1837 0.950 . S
H1842 C1839 0.950 . S
C1843 C1834 1.390 . S
C1843 H1836 0.950 . S
C1843 C1840 1.387 1_655 S
C1844 C1845 1.387 . S
C1844 H1848 0.950 . S
C1844 C1853 1.390 . S
C1845 C1844 1.387 . S
C1845 C1847 1.387 . S
H1846 C1853 0.950 . S
C1847 C1845 1.387 . S
C1847 C1849 1.390 . S
C1847 H1851 0.950 . S
H1848 C1844 0.950 . S
C1849 C1847 1.390 . S
C1849 C1850 1.387 . S
C1849 H1852 0.950 . S
C1850 C1849 1.387 . S
C1850 C1853 1.387 . S
H1851 C1847 0.950 . S
H1852 C1849 0.950 . S
C1853 C1844 1.390 . S
C1853 H1846 0.950 . S
C1853 C1850 1.387 . S
C1854 C1855 1.387 . S
C1854 H1858 0.950 . S
C1854 C1863 1.390 . S
C1855 C1854 1.387 . S
C1855 C1857 1.387 . S
H1856 C1863 0.963 . S
C1857 C1855 1.387 . S
C1857 C1859 1.358 1_556 S
C1857 H1861 0.950 . S
H1858 C1854 0.950 . S
C1859 C1857 1.358 1_554 S
C1859 C1860 1.399 . S
C1859 H1862 0.973 . S
C1860 C1859 1.399 . S
C1860 C1863 1.387 1_554 S
H1861 C1857 0.950 . S
H1862 C1859 0.973 . S
C1863 C1854 1.390 . S
C1863 H1856 0.963 . S
C1863 C1860 1.387 1_556 S
C1864 C1865 1.387 . S
C1864 H1868 0.950 . S
C1864 C1873 1.359 1_554 S
C1865 C1864 1.387 . S
C1865 C1867 1.387 1_554 S
H1866 C1873 0.934 1_554 S
C1867 C1865 1.387 1_556 S
C1867 C1869 1.390 . S
C1867 H1871 0.950 1_455 S
H1868 C1864 0.950 . S
C1869 C1867 1.390 . S
C1869 C1870 1.387 . S
C1869 H1872 0.950 . S
C1870 C1869 1.387 . S
C1870 C1873 1.436 . S
H1871 C1867 0.950 1_655 S
H1872 C1869 0.950 . S
C1873 C1864 1.359 1_556 S
C1873 H1866 0.934 1_556 S
C1873 C1870 1.436 . S
C1874 C1875 1.434 . S
C1874 H1878 0.935 1_556 S
C1874 C1883 1.361 1_556 S
C1875 C1874 1.434 . S
C1875 C1877 1.387 . S
H1876 C1883 0.950 . S
C1877 C1875 1.387 . S
C1877 C1879 1.390 . S
C1877 H1881 0.950 . S
H1878 C1874 0.935 1_554 S
C1879 C1877 1.390 . S
C1879 C1880 1.387 1_556 S
C1879 H1882 0.950 . S
C1880 C1879 1.387 1_554 S
C1880 C1883 1.387 . S
H1881 C1877 0.950 . S
H1882 C1879 0.950 . S
C1883 C1874 1.361 1_554 S
C1883 H1876 0.950 . S
C1883 C1880 1.387 . S
C1884 C1885 1.387 . S
C1884 H1888 0.950 . S
C1884 C1893 1.390 . S
C1885 C1884 1.387 . S
C1885 C1887 1.387 . S
H1886 C1893 0.950 . S
C1887 C1885 1.387 . S
C1887 C1889 1.390 . S
C1887 H1891 0.950 1_455 S
H1888 C1884 0.950 . S
C1889 C1887 1.390 . S
C1889 C1890 1.387 . S
C1889 H1892 0.950 . S
C1890 C1889 1.387 . S
C1890 C1893 1.387 . S
H1891 C1887 0.950 1_655 S
H1892 C1889 0.950 . S
C1893 C1884 1.390 . S
C1893 H1886 0.950 . S
C1893 C1890 1.387 . S
C1894 C1895 1.387 . S
C1894 H1898 0.950 . S
C1894 C1903 1.390 . S
C1895 C1894 1.387 . S
C1895 C1897 1.387 . S
H1896 C1903 0.950 . S
C1897 C1895 1.387 . S
C1897 C1899 1.390 . S
C1897 H1901 0.950 . S
H1898 C1894 0.950 . S
C1899 C1897 1.390 . S
C1899 C1900 1.387 . S
C1899 H1902 0.950 . S
C1900 C1899 1.387 . S
C1900 C1903 1.387 . S
H1901 C1897 0.950 . S
H1902 C1899 0.950 . S
C1903 C1894 1.390 . S
C1903 H1896 0.950 . S
C1903 C1900 1.387 . S
C1904 C1905 1.387 . S
C1904 H1908 0.950 . S
C1904 C1913 1.390 . S
C1905 C1904 1.387 . S
C1905 C1907 1.387 . S
H1906 C1913 0.950 . S
C1907 C1905 1.387 . S
C1907 C1909 1.390 . S
C1907 H1911 0.950 . S
H1908 C1904 0.950 . S
C1909 C1907 1.390 . S
C1909 C1910 1.387 . S
C1909 H1912 0.950 1_565 S
C1910 C1909 1.387 . S
C1910 C1913 1.387 . S
H1911 C1907 0.950 . S
H1912 C1909 0.950 1_545 S
C1913 C1904 1.390 . S
C1913 H1906 0.950 . S
C1913 C1910 1.387 . S
C1914 C1915 1.387 1_455 S
C1914 H1918 0.950 . S
C1914 C1923 1.390 . S
C1915 C1914 1.387 1_655 S
C1915 C1917 1.387 . S
H1916 C1923 0.950 . S
C1917 C1915 1.387 . S
C1917 C1919 1.390 . S
C1917 H1921 0.950 . S
H1918 C1914 0.950 . S
C1919 C1917 1.390 . S
C1919 C1920 1.387 1_655 S
C1919 H1922 0.950 . S
C1920 C1919 1.387 1_455 S
C1920 C1923 1.387 . S
H1921 C1917 0.950 . S
H1922 C1919 0.950 . S
C1923 C1914 1.390 . S
C1923 H1916 0.950 . S
C1923 C1920 1.387 . S
C1924 C1925 1.387 . S
C1924 H1928 0.950 . S
C1924 C1933 1.390 . S
C1925 C1924 1.387 . S
C1925 C1927 1.387 . S
H1926 C1933 0.950 . S
C1927 C1925 1.387 . S
C1927 C1929 1.390 . S
C1927 H1931 0.950 . S
H1928 C1924 0.950 . S
C1929 C1927 1.390 . S
C1929 C1930 1.387 . S
C1929 H1932 0.950 . S
C1930 C1929 1.387 . S
C1930 C1933 1.387 . S
H1931 C1927 0.950 . S
H1932 C1929 0.950 . S
C1933 C1924 1.390 . S
C1933 H1926 0.950 . S
C1933 C1930 1.387 . S
C1934 C1935 1.387 1_565 S
C1934 H1938 0.950 . S
C1934 C1943 1.390 . S
C1935 C1934 1.387 1_545 S
C1935 C1937 1.387 . S
H1936 C1943 0.950 . S
C1937 C1935 1.387 . S
C1937 C1939 1.390 . S
C1937 H1941 0.950 . S
H1938 C1934 0.950 . S
C1939 C1937 1.390 . S
C1939 C1940 1.387 1_545 S
C1939 H1942 0.950 . S
C1940 C1939 1.387 1_565 S
C1940 C1943 1.387 . S
H1941 C1937 0.950 . S
H1942 C1939 0.950 . S
C1943 C1934 1.390 . S
C1943 H1936 0.950 . S
C1943 C1940 1.387 . S
C1944 C1945 1.387 . S
C1944 H1948 0.950 . S
C1944 C1953 1.390 1_655 S
C1945 C1944 1.387 . S
C1945 C1947 1.387 . S
H1946 C1953 0.950 . S
C1947 C1945 1.387 . S
C1947 C1949 1.390 1_655 S
C1947 H1951 0.950 . S
H1948 C1944 0.950 . S
C1949 C1947 1.390 1_455 S
C1949 C1950 1.387 . S
C1949 H1952 0.950 . S
C1950 C1949 1.387 . S
C1950 C1953 1.387 . S
H1951 C1947 0.950 . S
H1952 C1949 0.950 . S
C1953 C1944 1.390 1_455 S
C1953 H1946 0.950 . S
C1953 C1950 1.387 . S
C1954 C1955 1.387 . S
C1954 H1958 0.950 . S
C1954 C1963 1.390 . S
C1955 C1954 1.387 . S
C1955 C1957 1.387 . S
H1956 C1963 0.950 . S
C1957 C1955 1.387 . S
C1957 C1959 1.390 . S
C1957 H1961 0.950 . S
H1958 C1954 0.950 . S
C1959 C1957 1.390 . S
C1959 C1960 1.387 . S
C1959 H1962 0.950 . S
C1960 C1959 1.387 . S
C1960 C1963 1.387 . S
H1961 C1957 0.950 . S
H1962 C1959 0.950 . S
C1963 C1954 1.390 . S
C1963 H1956 0.950 . S
C1963 C1960 1.387 . S
C1964 C1965 1.387 . S
C1964 H1968 0.950 . S
C1964 C1973 1.390 1_565 S
C1965 C1964 1.387 . S
C1965 C1967 1.387 . S
H1966 C1973 0.950 . S
C1967 C1965 1.387 . S
C1967 C1969 1.390 1_565 S
C1967 H1971 0.950 . S
H1968 C1964 0.950 . S
C1969 C1967 1.390 1_545 S
C1969 C1970 1.387 . S
C1969 H1972 0.950 . S
C1970 C1969 1.387 . S
C1970 C1973 1.387 . S
H1971 C1967 0.950 . S
H1972 C1969 0.950 . S
C1973 C1964 1.390 1_545 S
C1973 H1966 0.950 . S
C1973 C1970 1.387 . S
C1974 C1975 1.387 . S
C1974 H1978 0.950 . S
C1974 C1983 1.390 1_655 S
C1975 C1974 1.387 . S
C1975 C1977 1.387 . S
H1976 C1983 0.950 . S
C1977 C1975 1.387 . S
C1977 C1979 1.390 1_655 S
C1977 H1981 0.950 . S
H1978 C1974 0.950 . S
C1979 C1977 1.390 1_455 S
C1979 C1980 1.387 . S
C1979 H1982 0.950 . S
C1980 C1979 1.387 . S
C1980 C1983 1.387 . S
H1981 C1977 0.950 . S
H1982 C1979 0.950 . S
C1983 C1974 1.390 1_455 S
C1983 H1976 0.950 . S
C1983 C1980 1.387 . S
C1984 C1985 1.387 . S
C1984 H1988 0.950 . S
C1984 C1993 1.390 . S
C1985 C1984 1.387 . S
C1985 C1987 1.387 . S
H1986 C1993 0.950 . S
C1987 C1985 1.387 . S
C1987 C1989 1.390 . S
C1987 H1991 0.950 . S
H1988 C1984 0.950 . S
C1989 C1987 1.390 . S
C1989 C1990 1.387 . S
C1989 H1992 0.950 . S
C1990 C1989 1.387 . S
C1990 C1993 1.387 . S
H1991 C1987 0.950 . S
H1992 C1989 0.950 . S
C1993 C1984 1.390 . S
C1993 H1986 0.950 . S
C1993 C1990 1.387 . S
C1994 C1995 1.387 . S
C1994 H1998 0.950 . S
C1994 C2003 1.390 1_545 S
C1995 C1994 1.387 . S
C1995 C1997 1.387 . S
H1996 C2003 0.950 . S
C1997 C1995 1.387 . S
C1997 C1999 1.390 1_545 S
C1997 H2001 0.950 . S
H1998 C1994 0.950 . S
C1999 C1997 1.390 1_565 S
C1999 C2000 1.387 . S
C1999 H2002 0.950 . S
C2000 C1999 1.387 . S
C2000 C2003 1.387 . S
H2001 C1997 0.950 . S
H2002 C1999 0.950 . S
C2003 C1994 1.390 1_565 S
C2003 H1996 0.950 . S
C2003 C2000 1.387 . S
C2004 C2005 1.387 . S
C2004 H2008 0.950 . S
C2004 C2013 1.390 . S
C2005 C2004 1.387 . S
C2005 C2007 1.387 . S
H2006 C2013 0.950 . S
C2007 C2005 1.387 . S
C2007 C2009 1.390 . S
C2007 H2011 0.950 . S
H2008 C2004 0.950 . S
C2009 C2007 1.390 . S
C2009 C2010 1.387 . S
C2009 H2012 0.950 . S
C2010 C2009 1.387 . S
C2010 C2013 1.387 . S
H2011 C2007 0.950 . S
H2012 C2009 0.950 . S
C2013 C2004 1.390 . S
C2013 H2006 0.950 . S
C2013 C2010 1.387 . S
C2014 C2015 1.387 . S
C2014 H2018 0.950 . S
C2014 C2023 1.390 . S
C2015 C2014 1.387 . S
C2015 C2017 1.387 . S
H2016 C2023 0.950 . S
C2017 C2015 1.387 . S
C2017 C2019 1.390 . S
C2017 H2021 0.950 . S
H2018 C2014 0.950 . S
C2019 C2017 1.390 . S
C2019 C2020 1.387 . S
C2019 H2022 0.950 . S
C2020 C2019 1.387 . S
C2020 C2023 1.387 . S
H2021 C2017 0.950 . S
H2022 C2019 0.950 . S
C2023 C2014 1.390 . S
C2023 H2016 0.950 . S
C2023 C2020 1.387 . S
C2024 C2025 1.387 . S
C2024 H2028 0.950 . S
C2024 C2033 1.390 . S
C2025 C2024 1.387 . S
C2025 C2027 1.387 . S
H2026 C2033 0.950 . S
C2027 C2025 1.387 . S
C2027 C2029 1.390 . S
C2027 H2031 0.950 . S
H2028 C2024 0.950 . S
C2029 C2027 1.390 . S
C2029 C2030 1.387 . S
C2029 H2032 0.950 . S
C2030 C2029 1.387 . S
C2030 C2033 1.387 . S
H2031 C2027 0.950 . S
H2032 C2029 0.950 . S
C2033 C2024 1.390 . S
C2033 H2026 0.950 . S
C2033 C2030 1.387 . S
C2034 C2035 1.387 . S
C2034 H2038 0.950 . S
C2034 C2043 1.390 . S
C2035 C2034 1.387 . S
C2035 C2037 1.387 . S
H2036 C2043 0.950 . S
C2037 C2035 1.387 . S
C2037 C2039 1.390 . S
C2037 H2041 0.950 . S
H2038 C2034 0.950 . S
C2039 C2037 1.390 . S
C2039 C2040 1.387 . S
C2039 H2042 0.950 . S
C2040 C2039 1.387 . S
C2040 C2043 1.387 . S
H2041 C2037 0.950 . S
H2042 C2039 0.950 . S
C2043 C2034 1.390 . S
C2043 H2036 0.950 . S
C2043 C2040 1.387 . S
C2044 C2045 1.387 . S
C2044 H2048 0.950 . S
C2044 C2053 1.390 . S
C2045 C2044 1.387 . S
C2045 C2047 1.387 . S
H2046 C2053 0.950 . S
C2047 C2045 1.387 . S
C2047 C2049 1.390 . S
C2047 H2051 0.950 . S
H2048 C2044 0.950 . S
C2049 C2047 1.390 . S
C2049 C2050 1.387 . S
C2049 H2052 0.950 . S
C2050 C2049 1.387 . S
C2050 C2053 1.387 . S
H2051 C2047 0.950 . S
H2052 C2049 0.950 . S
C2053 C2044 1.390 . S
C2053 H2046 0.950 . S
C2053 C2050 1.387 . S
C2054 C2055 1.387 . S
C2054 H2058 0.950 . S
C2054 C2063 1.390 . S
C2055 C2054 1.387 . S
C2055 C2057 1.387 . S
H2056 C2063 0.950 . S
C2057 C2055 1.387 . S
C2057 C2059 1.390 . S
C2057 H2061 0.950 . S
H2058 C2054 0.950 . S
C2059 C2057 1.390 . S
C2059 C2060 1.387 . S
C2059 H2062 0.950 . S
C2060 C2059 1.387 . S
C2060 C2063 1.387 . S
H2061 C2057 0.950 . S
H2062 C2059 0.950 . S
C2063 C2054 1.390 . S
C2063 H2056 0.950 . S
C2063 C2060 1.387 . S
C2064 C2065 1.387 . S
C2064 H2068 0.950 . S
C2064 C2073 1.390 . S
C2065 C2064 1.387 . S
C2065 C2067 1.387 . S
H2066 C2073 0.950 . S
C2067 C2065 1.387 . S
C2067 C2069 1.390 . S
C2067 H2071 0.950 . S
H2068 C2064 0.950 . S
C2069 C2067 1.390 . S
C2069 C2070 1.387 . S
C2069 H2072 0.950 . S
C2070 C2069 1.387 . S
C2070 C2073 1.387 . S
H2071 C2067 0.950 . S
H2072 C2069 0.950 . S
C2073 C2064 1.390 . S
C2073 H2066 0.950 . S
C2073 C2070 1.387 . S
C2074 C2075 1.387 . S
C2074 H2078 0.950 . S
C2074 C2083 1.390 . S
C2075 C2074 1.387 . S
C2075 C2077 1.387 . S
H2076 C2083 0.950 . S
C2077 C2075 1.387 . S
C2077 C2079 1.390 . S
C2077 H2081 0.950 . S
H2078 C2074 0.950 . S
C2079 C2077 1.390 . S
C2079 C2080 1.387 . S
C2079 H2082 0.950 . S
C2080 C2079 1.387 . S
C2080 C2083 1.387 . S
H2081 C2077 0.950 . S
H2082 C2079 0.950 . S
C2083 C2074 1.390 . S
C2083 H2076 0.950 . S
C2083 C2080 1.387 . S
C2084 C2085 1.387 . S
C2084 H2088 0.950 . S
C2084 C2093 1.390 . S
C2085 C2084 1.387 . S
C2085 C2087 1.387 . S
H2086 C2093 0.950 . S
C2087 C2085 1.387 . S
C2087 C2089 1.390 . S
C2087 H2091 0.950 . S
H2088 C2084 0.950 . S
C2089 C2087 1.390 . S
C2089 C2090 1.387 . S
C2089 H2092 0.950 . S
C2090 C2089 1.387 . S
C2090 C2093 1.387 . S
H2091 C2087 0.950 . S
H2092 C2089 0.950 . S
C2093 C2084 1.390 . S
C2093 H2086 0.950 . S
C2093 C2090 1.387 . S
C2094 C2095 1.387 . S
C2094 H2098 0.950 . S
C2094 C2103 1.390 . S
C2095 C2094 1.387 . S
C2095 C2097 1.387 . S
H2096 C2103 0.950 . S
C2097 C2095 1.387 . S
C2097 C2099 1.390 . S
C2097 H2101 0.950 . S
H2098 C2094 0.950 . S
C2099 C2097 1.390 . S
C2099 C2100 1.387 . S
C2099 H2102 0.950 . S
C2100 C2099 1.387 . S
C2100 C2103 1.387 . S
H2101 C2097 0.950 . S
H2102 C2099 0.950 . S
C2103 C2094 1.390 . S
C2103 H2096 0.950 . S
C2103 C2100 1.387 . S
C2104 C2105 1.387 . S
C2104 H2108 0.950 . S
C2104 C2113 1.390 . S
C2105 C2104 1.387 . S
C2105 C2107 1.387 . S
H2106 C2113 0.950 . S
C2107 C2105 1.387 . S
C2107 C2109 1.390 . S
C2107 H2111 0.950 . S
H2108 C2104 0.950 . S
C2109 C2107 1.390 . S
C2109 C2110 1.387 . S
C2109 H2112 0.950 . S
C2110 C2109 1.387 . S
C2110 C2113 1.387 . S
H2111 C2107 0.950 . S
H2112 C2109 0.950 . S
C2113 C2104 1.390 . S
C2113 H2106 0.950 . S
C2113 C2110 1.387 . S
C2114 C2115 1.387 . S
C2114 H2118 0.950 . S
C2114 C2123 1.390 . S
C2115 C2114 1.387 . S
C2115 C2117 1.387 . S
H2116 C2123 0.950 . S
C2117 C2115 1.387 . S
C2117 C2119 1.390 . S
C2117 H2121 0.950 . S
H2118 C2114 0.950 . S
C2119 C2117 1.390 . S
C2119 C2120 1.387 . S
C2119 H2122 0.950 . S
C2120 C2119 1.387 . S
C2120 C2123 1.387 . S
H2121 C2117 0.950 . S
H2122 C2119 0.950 . S
C2123 C2114 1.390 . S
C2123 H2116 0.950 . S
C2123 C2120 1.387 . S
C1225 C5 1.310 . S
C1230 C70 1.387 1_545 S
C1235 C2 1.387 1_655 S
C1240 C39 1.310 . S
C1245 C36 1.385 . S
C1250 C73 1.309 . S
C1255 C138 1.387 1_455 S
C1260 C107 1.313 . S
C1265 C172 1.387 . S
C1270 C141 1.310 . S
C1275 C104 1.388 1_565 S
C1280 C175 1.311 . S
C1285 C274 1.388 1_565 S
C1290 C209 1.311 . S
C1295 C243 1.310 . S
C1300 C206 1.387 1_455 S
C1305 C240 1.385 . S
C1310 C277 1.309 . S
C1315 C342 1.386 1_655 S
C1320 C311 1.309 . S
C1325 C345 1.313 . S
C1330 C376 1.387 . S
C1335 C308 1.387 1_545 S
C1340 C379 1.310 . S
C1345 C413 1.310 . S
C1350 C478 1.387 . S
C1355 C447 1.311 . S
C1360 C410 1.385 . S
C1365 C481 1.309 . S
C1370 C444 1.385 . S
C1375 C546 1.389 . S
C1380 C515 1.313 . S
C1385 C580 1.387 . S
C1390 C549 1.314 . S
C1395 C583 1.313 . S
C1400 C512 1.386 . S
C1405 C617 1.314 . S
C1410 C682 1.387 . S
C1415 C651 1.310 . S
C1420 C614 1.385 . S
C1425 C685 1.309 . S
C1430 C648 1.385 . S
C1435 C750 1.385 . S
C1440 C719 1.309 . S
C1445 C784 1.386 . S
C1450 C753 1.313 . S
C1455 C787 1.312 . S
C1460 C716 1.388 . S
C1465 C886 1.386 . S
C1470 C821 1.309 . S
C1475 C818 1.386 . S
C1480 C855 1.313 . S
C1485 C889 1.309 . S
C1490 C852 1.385 . S
C1495 C954 1.385 . S
C1500 C923 1.309 . S
C1505 C957 1.314 . S
C1510 C988 1.387 . S
C1515 C920 1.388 . S
C1520 C991 1.314 . S
C1525 C1090 1.387 . S
C1530 C1025 1.313 . S
C1535 C1059 1.310 . S
C1540 C1022 1.387 . S
C1545 C1093 1.314 . S
C1550 C1056 1.388 . S
C1555 C1158 1.385 . S
C1560 C1127 1.309 . S
C1565 C1192 1.385 . S
C1570 C1161 1.312 . S
C1575 C1195 1.313 . S
C1580 C1124 1.387 . S
C1585 C689 1.609 . S
C1590 C20 1.584 . S
C1595 C54 1.581 . S
C1600 C621 1.608 . S
C1605 C88 1.582 . S
C1610 C655 1.608 . S
C1615 C1165 1.610 . S
C1620 C122 1.583 . S
C1625 C1199 1.608 . S
C1630 C156 1.581 . S
C1635 C190 1.582 . S
C1640 C1131 1.607 . S
C1645 C224 1.583 . S
C1650 C893 1.608 . S
C1655 C258 1.584 . S
C1660 C825 1.608 . S
C1665 C292 1.581 . S
C1670 C859 1.609 . S
C1675 C553 1.608 . S
C1680 C326 1.584 . S
C1685 C360 1.584 . S
C1690 C587 1.608 . S
C1695 C394 1.582 . S
C1700 C519 1.607 . S
C1705 C428 1.582 . S
C1710 C1097 1.609 1_655 S
C1715 C1029 1.608 . S
C1720 C462 1.584 . S
C1725 C1063 1.609 1_545 S
C1730 C496 1.584 . S
C1735 C530 1.581 . S
C1740 C349 1.608 . S
C1745 C564 1.584 . S
C1750 C383 1.609 . S
C1755 C598 1.582 . S
C1760 C315 1.610 . S
C1765 C77 1.610 . S
C1770 C632 1.582 . S
C1775 C666 1.584 . S
C1780 C9 1.609 . S
C1785 C700 1.583 . S
C1790 C43 1.608 . S
C1795 C961 1.610 1_545 S
C1800 C734 1.583 . S
C1805 C768 1.581 . S
C1810 C995 1.609 1_655 S
C1815 C802 1.583 . S
C1820 C927 1.610 . S
C1825 C281 1.608 . S
C1830 C836 1.583 . S
C1835 C213 1.609 . S
C1840 C870 1.581 . S
C1845 C904 1.582 . S
C1850 C247 1.608 . S
C1855 C938 1.582 . S
C1860 C757 1.609 1_565 S
C1865 C791 1.608 1_455 S
C1870 C972 1.581 . S
C1875 C1006 1.581 . S
C1880 C723 1.608 . S
C1885 C485 1.609 1_455 S
C1890 C1040 1.584 . S
C1895 C1074 1.581 . S
C1900 C417 1.609 . S
C1905 C1108 1.583 . S
C1910 C451 1.610 1_565 S
C1915 C145 1.610 . S
C1920 C1142 1.583 . S
C1925 C1176 1.581 . S
C1930 C179 1.609 . S
C1935 C111 1.610 . S
C1940 C1210 1.583 . S
C1945 C169 1.554 . S
C1950 C33 1.555 . S
C1955 C67 1.558 . S
C1960 C203 1.558 . S
C1965 C101 1.554 . S
C1970 C135 1.553 . S
C1975 C237 1.557 . S
C1980 C373 1.558 . S
C1985 C271 1.558 . S
C1990 C407 1.557 . S
C1995 C305 1.554 . S
C2000 C339 1.554 . S
C2005 C577 1.554 . S
C2010 C441 1.554 . S
C2015 C611 1.554 . S
C2020 C475 1.554 . S
C2025 C543 1.558 . S
C2030 C509 1.558 . S
C2035 C781 1.558 . S
C2040 C645 1.558 . S
C2045 C815 1.555 . S
C2050 C679 1.556 . S
C2055 C747 1.553 . S
C2060 C713 1.553 . S
C2065 C985 1.557 . S
C2070 C849 1.558 . S
C2075 C883 1.556 . S
C2080 C1019 1.555 . S
C2085 C951 1.553 . S
C2090 C917 1.553 . S
C2095 C1189 1.554 . S
C2100 C1053 1.555 . S
C2105 C1223 1.556 . S
C2110 C1087 1.557 . S
C2115 C1121 1.553 . S
C2120 C1155 1.553 . S
