# Generated by pormake.
# Topology sxc, (6)-cn, num edge types: 1
# Building blocks:
#     Node 0, Type 0, BuildingBlock: JUFBIX_clean_sbu_0, # of connection points: 6
#     Node 1, Type 0, BuildingBlock: JUFBIX_clean_sbu_0, # of connection points: 6
#     Node 2, Type 0, BuildingBlock: JUFBIX_clean_sbu_0, # of connection points: 6
#     Edge 3, Type (0, 0), BuildingBlock: ZUJKAS_clean_linker_0, # of connection points: 2
#     Edge 4, Type (0, 0), BuildingBlock: ZUJKAS_clean_linker_0, # of connection points: 2
#     Edge 5, Type (0, 0), BuildingBlock: ZUJKAS_clean_linker_0, # of connection points: 2
#     Edge 6, Type (0, 0), BuildingBlock: ZUJKAS_clean_linker_0, # of connection points: 2
#     Edge 7, Type (0, 0), BuildingBlock: ZUJKAS_clean_linker_0, # of connection points: 2
#     Edge 8, Type (0, 0), BuildingBlock: ZUJKAS_clean_linker_0, # of connection points: 2
#     Edge 9, Type (0, 0), BuildingBlock: ZUJKAS_clean_linker_0, # of connection points: 2
#     Edge 10, Type (0, 0), BuildingBlock: ZUJKAS_clean_linker_0, # of connection points: 2
#     Edge 11, Type (0, 0), BuildingBlock: ZUJKAS_clean_linker_0, # of connection points: 2
# Relax obj value: 0.364
# Max RMSD: 0.153
# Mean RMSD: 0.152
data_MOF--net-sxc--node1-JUFBIX_clean_sbu_0--edge1-ZUJKAS_clean_linker_0
_symmetry_space_group_name_H-M    P1
_symmetry_Int_Tables_number       1
_symmetry_cell_setting            triclinic
loop_
_symmetry_equiv_pos_as_xyz
'x, y, z'
_cell_length_a     19.919896
_cell_length_b     19.910769
_cell_length_c     58.473019
_cell_angle_alpha  93.25122
_cell_angle_beta   89.212715
_cell_angle_gamma 119.88013
loop_
_atom_site_label
_atom_site_type_symbol
_atom_site_fract_x
_atom_site_fract_y
_atom_site_fract_z
_atom_type_partial_charge
Co0 Co 0.09785 0.99253 0.98729 0.0
C1 C 1.05591 1.0217 0.94539 0.0
Co2 Co 1.03042 0.05233 0.99041 0.0
C3 C 0.16917 0.90764 1.00104 0.0
C4 C 0.21048 0.95472 0.96849 0.0
N5 N 0.15825 0.94632 0.98471 0.0
N6 N 0.22685 0.89307 0.996 0.0
C7 C 0.25223 0.92086 0.9753 0.0
H8 H 0.13575 0.89054 0.01652 0.0
H9 H 0.21969 0.98597 0.95316 0.0
C10 C 0.07243 1.02441 0.03242 0.0
N11 N 0.9712 0.10023 0.99422 0.0
C12 C 0.99751 0.17684 0.99382 0.0
C13 C 0.90366 0.07206 0.00553 0.0
N14 N 0.95194 0.19839 0.00552 0.0
C15 C 0.89199 0.13241 0.01262 0.0
C16 C 0.93682 0.88779 0.98842 0.0
O17 O 0.10542 0.99587 0.01987 0.0
O18 O 1.03527 0.05184 0.02289 0.0
O19 O 0.93647 0.95169 0.98944 0.0
O20 O 1.00248 0.89089 0.98747 0.0
O21 O 1.02539 0.05343 0.95789 0.0
H22 H 0.87008 1.01342 0.01094 0.0
H23 H 1.05435 0.21793 0.98792 0.0
O24 O 0.08971 0.99041 0.9549 0.0
O25 O 0.19238 0.09236 0.98712 0.0
O26 O 0.12723 0.15324 0.99133 0.0
C27 C 0.19252 0.15634 0.98932 0.0
H28 H 0.29848 0.9183 0.96608 0.0
H29 H 0.8478 0.1291 0.02424 0.0
Co30 Co 0.16404 0.09143 0.32295 0.0
C31 C 0.10218 0.0497 0.2789 0.0
Co32 Co 1.03724 1.02625 0.32208 0.0
C33 C 0.31253 0.1443 0.34187 0.0
C34 C 0.32141 0.20679 0.31238 0.0
N35 N 0.27036 0.14765 0.32469 0.0
N36 N 0.38722 0.19984 0.34127 0.0
C37 C 0.39406 0.23862 0.32245 0.0
H38 H 0.28874 0.10193 0.3548 0.0
H39 H 0.30637 0.227 0.29755 0.0
C40 C 0.09786 0.06748 0.36622 0.0
N41 N 0.93073 0.97114 0.32182 0.0
C42 C 0.8878 0.99775 0.33251 0.0
C43 C 0.88023 0.89584 0.31582 0.0
N44 N 0.81333 0.94272 0.33365 0.0
C45 C 0.80733 0.87789 0.32335 0.0
C46 C 0.10328 0.92927 0.3234 0.0
O47 O 0.16123 0.09688 0.35564 0.0
O48 O 1.03512 1.03353 0.35469 0.0
O49 O 1.03974 0.93011 0.32311 0.0
O50 O 0.16623 0.99424 0.32335 0.0
O51 O 1.03856 1.01869 0.28958 0.0
H52 H 0.89592 0.85561 0.30764 0.0
H53 H 0.91135 0.0552 0.3408 0.0
O54 O 0.16567 0.08549 0.2903 0.0
O55 O 0.16242 0.18806 0.32258 0.0
O56 O 1.03625 0.12406 0.32096 0.0
C57 C 0.09912 0.18902 0.32164 0.0
H58 H 0.44711 0.2872 0.31675 0.0
H59 H 0.75498 0.82186 0.32194 0.0
Co60 Co 1.05284 0.99415 0.65399 0.0
C61 C 0.08903 0.06765 0.6128 0.0
Co62 Co 0.11103 0.12124 0.65821 0.0
C63 C 0.96767 0.83664 0.66616 0.0
C64 C 1.01869 0.84521 0.63329 0.0
N65 N 1.00781 0.88761 0.65028 0.0
N66 N 0.95442 0.76493 0.66005 0.0
C67 C 0.98473 0.76913 0.63915 0.0
H68 H 0.94845 0.85149 0.68207 0.0
H69 H 1.05165 0.86846 0.61803 0.0
C70 C 0.07541 0.0492 0.69954 0.0
N71 N 0.15774 0.22788 0.66303 0.0
C72 C 0.23396 0.27847 0.66172 0.0
C73 C 0.12931 0.26643 0.6758 0.0
N74 N 0.25521 0.34504 0.67426 0.0
C75 C 0.18929 0.33835 0.68287 0.0
C76 C 0.94736 0.0502 0.65567 0.0
O77 O 1.04902 0.98805 0.68652 0.0
O78 O 0.10515 0.11411 0.69053 0.0
O79 O 1.01073 0.11451 0.65751 0.0
O80 O 0.95105 0.9878 0.65388 0.0
O81 O 0.11708 0.12926 0.62583 0.0
H82 H 0.07087 0.2407 0.68212 0.0
H83 H 0.27506 0.26307 0.65447 0.0
O84 O 1.05781 1.00215 0.62168 0.0
O85 O 0.15263 0.99967 0.65411 0.0
O86 O 0.21206 0.12563 0.65887 0.0
C87 C 0.21592 0.06358 0.6566 0.0
H88 H 0.98375 0.72118 0.62915 0.0
H89 H 0.1859 0.37858 0.69544 0.0
H90 H 1.03214 0.33104 0.98447 0.0
H91 H 0.10909 0.46017 0.0033 0.0
H92 H 1.01639 0.36848 0.06869 0.0
H93 H 0.93994 0.2383 0.04989 0.0
H94 H 1.02313 0.5161 0.05616 0.0
H95 H 0.30194 0.52194 0.04752 0.0
H96 H 0.24232 0.48014 0.02217 0.0
H97 H 0.20994 0.43288 0.0487 0.0
C98 C 1.02718 0.33884 0.00278 0.0
C99 C 0.98038 0.27509 0.0157 0.0
C100 C 0.07174 0.41197 0.01354 0.0
C101 C 0.0701 0.42258 0.03741 0.0
C102 C 1.01932 0.36049 0.05029 0.0
H103 H 0.24817 0.90835 0.04181 0.0
H104 H 0.24415 0.80856 0.06545 0.0
C105 C 0.97479 0.28677 0.03948 0.0
C106 C 0.12004 0.50049 0.04808 0.0
H107 H 0.30539 0.6455 0.04214 0.0
C108 C 0.08547 0.54489 0.05425 0.0
C109 C 0.20124 0.53667 0.04614 0.0
C110 C 0.24113 0.49017 0.04101 0.0
C111 C 0.12827 0.62593 0.05428 0.0
C112 C 0.20758 0.66207 0.04827 0.0
C113 C 0.24449 0.61768 0.04635 0.0
C114 C 0.24273 0.73533 0.03646 0.0
C115 C 0.08542 0.67054 0.05735 0.0
C116 C 0.2522 0.73105 0.01263 0.0
C117 C 0.25609 0.78846 0.99924 0.0
C118 C 0.24968 0.85005 0.00956 0.0
C119 C 0.25138 0.85993 0.03359 0.0
C120 C 0.24905 0.80317 0.04705 0.0
H121 H 1.02358 0.63264 0.06159 0.0
H122 H 0.11282 0.71591 0.07145 0.0
H123 H 0.08781 0.69936 0.04141 0.0
H124 H 0.24797 0.67931 0.00408 0.0
H125 H 0.25521 0.78017 0.98076 0.0
H126 H 0.53144 0.23118 0.33083 0.0
H127 H 0.61318 0.2035 0.35469 0.0
H128 H 0.45784 0.16128 0.41117 0.0
H129 H 0.37507 0.18777 0.38701 0.0
H130 H 0.68651 0.23503 0.39913 0.0
H131 H 0.41816 0.94438 0.39077 0.0
H132 H 0.42446 1.02262 0.37512 0.0
H133 H 0.41683 1.02508 0.40578 0.0
C134 C 0.51665 0.21931 0.3486 0.0
C135 C 0.44623 0.20913 0.35694 0.0
C136 C 0.56331 0.20364 0.3623 0.0
C137 C 0.54017 0.17823 0.3845 0.0
C138 C 0.47566 0.17913 0.39394 0.0
H139 H 0.74537 0.88131 0.37321 0.0
H140 H 0.67826 0.93152 0.39878 0.0
C141 C 0.42853 0.19403 0.38013 0.0
C142 C 0.57299 0.13446 0.39463 0.0
H143 H 0.53695 0.94839 0.38724 0.0
C144 C 0.65352 0.17212 0.39783 0.0
C145 C 0.52966 0.05218 0.39353 0.0
C146 C 0.44247 1.00823 0.39116 0.0
C147 C 0.6927 0.13018 0.39557 0.0
C148 C 0.64989 0.04968 0.38982 0.0
C149 C 0.56922 1.01054 0.3912 0.0
C150 C 0.68425 1.01336 0.37489 0.0
C151 C 0.77997 0.17353 0.39595 0.0
C152 C 0.70483 0.0397 0.35276 0.0
C153 C 0.74116 1.01052 0.33831 0.0
C154 C 0.75669 0.95398 0.34563 0.0
C155 C 0.73183 0.92373 0.36721 0.0
C156 C 0.6951 0.95316 0.38185 0.0
H157 H 0.80309 0.22559 0.40801 0.0
H158 H 0.80308 0.1358 0.40092 0.0
H159 H 0.801 0.1935 0.37858 0.0
H160 H 0.69509 0.08496 0.34696 0.0
H161 H 0.76141 1.03516 0.32187 0.0
H162 H 0.84308 0.62542 0.64355 0.0
H163 H 0.73999 0.52981 0.66631 0.0
H164 H 0.86345 0.65647 0.72847 0.0
H165 H 0.96529 0.75449 0.70544 0.0
H166 H 0.702 0.43472 0.70251 0.0
H167 H 0.68876 0.70265 0.72848 0.0
H168 H 0.75724 0.70685 0.70742 0.0
H169 H 0.77077 0.69488 0.73697 0.0
C170 C 0.84956 0.631 0.66203 0.0
C171 C 0.91013 0.69787 0.67285 0.0
C172 C 0.79089 0.57633 0.6751 0.0
C173 C 0.79289 0.58775 0.6991 0.0
C174 C 0.85974 0.64804 0.70997 0.0
H175 H 0.29561 0.39416 0.71875 0.0
H176 H 0.42575 0.44622 0.7355 0.0
C177 C 0.9177 0.70371 0.69686 0.0
C178 C 0.71856 0.54869 0.71114 0.0
H179 H 0.57265 0.58741 0.72285 0.0
C180 C 0.67411 0.46765 0.70804 0.0
C181 C 0.68231 0.59164 0.71884 0.0
C182 C 0.72685 0.67877 0.72317 0.0
C183 C 0.59321 0.43034 0.70848 0.0
C184 C 0.55715 0.47551 0.71232 0.0
C185 C 0.60138 0.5538 0.7195 0.0
C186 C 0.47934 0.44873 0.70293 0.0
C187 C 0.54686 0.34455 0.70214 0.0
C188 C 0.46845 0.43827 0.67908 0.0
C189 C 0.39531 0.41064 0.6695 0.0
C190 C 0.33185 0.39286 0.68361 0.0
C191 C 0.34384 0.40846 0.70746 0.0
C192 C 0.41755 0.43669 0.71708 0.0
H193 H 0.57833 0.31448 0.7071 0.0
H194 H 0.48946 0.31773 0.71044 0.0
H195 H 0.5373 0.33557 0.68329 0.0
H196 H 0.51642 0.44972 0.6679 0.0
H197 H 0.38726 0.39913 0.65112 0.0
H198 H 0.92294 0.17448 0.66101 0.0
H199 H 0.80082 0.17559 0.66163 0.0
H200 H 0.67513 0.92668 0.65061 0.0
H201 H 0.79764 0.92508 0.65049 0.0
H202 H 0.68921 0.13613 0.63083 0.0
H203 H 0.55616 0.94827 0.70335 0.0
H204 H 0.65651 0.98611 0.69617 0.0
H205 H 0.58187 0.90208 0.68042 0.0
C206 C 0.86946 0.11963 0.65882 0.0
C207 C 0.87108 0.04956 0.65582 0.0
C208 C 0.79909 0.12042 0.65914 0.0
C209 C 0.72734 0.05122 0.65659 0.0
C210 C 0.72875 0.98108 0.65327 0.0
H211 H 0.24132 0.94004 0.65056 0.0
H212 H 0.36393 0.93973 0.65048 0.0
C213 C 0.79934 0.98021 0.65302 0.0
C214 C 0.6521 0.05333 0.65692 0.0
H215 H 0.47476 0.97947 0.68254 0.0
C216 C 0.64265 0.10202 0.64226 0.0
C217 C 0.59028 1.00929 0.67177 0.0
C218 C 0.59677 0.95909 0.68898 0.0
C219 C 0.57386 0.10654 0.64167 0.0
C220 C 0.51193 0.06222 0.65645 0.0
C221 C 0.52139 1.01364 0.67112 0.0
C222 C 0.43648 0.06383 0.6566 0.0
C223 C 0.56752 0.15729 0.62463 0.0
C224 C 0.43449 0.13353 0.66036 0.0
C225 C 0.36368 0.13394 0.66034 0.0
C226 C 0.29232 0.06453 0.65674 0.0
C227 C 0.29451 0.99488 0.65333 0.0
C228 C 0.36512 0.99455 0.65332 0.0
H229 H 0.60909 0.16962 0.61045 0.0
H230 H 0.50811 0.12984 0.61716 0.0
H231 H 0.58098 0.21355 0.63344 0.0
H232 H 0.48779 0.1879 0.66356 0.0
H233 H 0.36492 0.18877 0.66325 0.0
H234 H 0.78879 0.86447 0.99205 0.0
H235 H 0.66582 0.74258 0.9927 0.0
H236 H 0.78754 0.61465 0.98501 0.0
H237 H 0.91135 0.73697 0.98491 0.0
H238 H 0.58932 0.62437 0.96267 0.0
H239 H 0.65392 0.50636 0.03737 0.0
H240 H 0.71551 0.60505 0.02968 0.0
H241 H 0.72261 0.527 0.01492 0.0
C242 C 0.7899 0.81057 0.99062 0.0
C243 C 0.86115 0.81159 0.98857 0.0
C244 C 0.71885 0.74028 0.99094 0.0
C245 C 0.71592 0.66797 0.98934 0.0
C246 C 0.78701 0.66876 0.98695 0.0
H247 H 0.34051 0.18037 0.98446 0.0
H248 H 0.4633 0.30283 0.98437 0.0
C249 C 0.85834 0.73925 0.9867 0.0
C250 C 0.63867 0.59273 0.98968 0.0
H251 H 0.53904 0.42046 0.01612 0.0
C252 C 0.57856 0.58018 0.97449 0.0
C253 C 0.62296 0.53386 0.00503 0.0
C254 C 0.68181 0.54386 0.02283 0.0
C255 C 0.50535 0.5112 0.97386 0.0
C256 C 0.48982 0.45221 0.98912 0.0
C257 C 0.54983 0.46475 0.00432 0.0
C258 C 0.41285 0.37676 0.98929 0.0
C259 C 0.44601 0.50137 0.95626 0.0
C260 C 0.34179 0.37556 0.99239 0.0
C261 C 0.27066 0.30482 0.9924 0.0
C262 C 0.26806 0.23268 0.98947 0.0
C263 C 0.33931 0.23413 0.9867 0.0
C264 C 0.4102 0.30469 0.98668 0.0
H265 H 0.4732 0.54014 0.94194 0.0
H266 H 0.41325 0.44052 0.94906 0.0
H267 H 0.40434 0.51643 0.96449 0.0
H268 H 0.34117 0.42949 0.99506 0.0
H269 H 0.21762 0.30676 0.9948 0.0
H270 H 0.9743 0.21407 0.32094 0.0
H271 H 0.97554 0.33804 0.32097 0.0
H272 H 0.22498 0.46092 0.32301 0.0
H273 H 0.22414 0.33756 0.3226 0.0
H274 H 1.03002 0.46232 0.3515 0.0
H275 H 0.18923 0.56305 0.27092 0.0
H276 H 0.15052 0.46485 0.27931 0.0
H277 H 0.24096 0.5413 0.29137 0.0
C278 C 1.02956 0.26739 0.32122 0.0
C279 C 0.09913 0.26493 0.32156 0.0
C280 C 1.03021 0.3387 0.3213 0.0
C281 C 0.10037 0.41 0.32153 0.0
C282 C 0.16982 0.40753 0.32218 0.0
H283 H 0.22807 0.90411 0.32431 0.0
H284 H 0.22671 0.78009 0.3244 0.0
C285 C 0.16924 0.33639 0.32211 0.0
C286 C 0.10096 0.48653 0.32164 0.0
H287 H 0.17213 0.65581 0.29381 0.0
C288 C 0.06079 0.50423 0.33876 0.0
C289 C 0.14113 0.54246 0.30516 0.0
C290 C 0.18228 0.52683 0.28552 0.0
C291 C 0.06101 0.57568 0.34015 0.0
C292 C 0.10123 0.63163 0.32368 0.0
C293 C 0.14137 0.61391 0.30656 0.0
C294 C 0.10187 0.7082 0.32378 0.0
C295 C 1.01977 0.59125 0.35977 0.0
C296 C 1.03247 0.71073 0.32309 0.0
C297 C 1.03313 0.7819 0.32308 0.0
C298 C 0.10327 0.85335 0.32357 0.0
C299 C 0.17279 0.85082 0.324 0.0
C300 C 0.17207 0.77948 0.32401 0.0
H301 H 1.01275 0.55501 0.37436 0.0
H302 H 1.05148 0.65322 0.36599 0.0
H303 H 0.9611 0.57677 0.35389 0.0
H304 H 0.97728 0.65737 0.32227 0.0
H305 H 0.97824 0.78074 0.32254 0.0
H306 H 0.97674 0.97742 0.24973 0.0
H307 H 0.97594 0.97154 0.20789 0.0
H308 H 0.22543 0.10434 0.20852 0.0
H309 H 0.22688 0.11146 0.25049 0.0
H310 H 0.15709 0.15833 0.17903 0.0
H311 H 1.0333 0.84047 0.16445 0.0
H312 H 0.97637 0.86699 0.18287 0.0
H313 H 0.07202 0.89081 0.19192 0.0
C314 C 1.03157 1.0051 0.24101 0.0
C315 C 0.10194 0.04473 0.25349 0.0
C316 C 1.03097 1.00124 0.21706 0.0
C317 C 0.10065 1.03644 0.20507 0.0
C318 C 0.17099 0.07636 0.21744 0.0
H319 H 0.14663 0.9695 0.05816 0.0
H320 H 0.15624 0.97413 0.09997 0.0
C321 C 0.1717 0.08028 0.24142 0.0
C322 C 0.09989 1.03388 0.17964 0.0
H323 H 1.03906 0.90995 0.13193 0.0
C324 C 0.13169 0.10406 0.16872 0.0
C325 C 0.06753 0.96307 0.16621 0.0
C326 C 1.03602 0.88605 0.17692 0.0
C327 C 0.13039 0.1053 0.14473 0.0
C328 C 0.09532 1.03436 0.13134 0.0
C329 C 0.0652 0.96424 0.14223 0.0
C330 C 0.08927 1.03169 0.10598 0.0
C331 C 0.16732 0.18259 0.13394 0.0
C332 C 1.0475 0.06153 0.09548 0.0
C333 C 1.04193 0.05907 0.0716 0.0
C334 C 0.07767 1.02624 0.05774 0.0
C335 C 0.11863 0.99543 0.06832 0.0
C336 C 0.12413 0.99793 0.09221 0.0
H337 H 0.20917 0.23025 0.14587 0.0
H338 H 0.19792 0.18129 0.11805 0.0
H339 H 0.12162 0.19611 0.12938 0.0
H340 H 1.01877 0.08637 0.10577 0.0
H341 H 1.00956 0.08291 0.06402 0.0
H342 H 0.97969 0.05068 0.39401 0.0
H343 H 0.97939 0.05864 0.43593 0.0
H344 H 0.21266 0.09734 0.43747 0.0
H345 H 0.21459 0.09349 0.39565 0.0
H346 H 0.98826 0.97299 0.46561 0.0
H347 H 0.2396 0.26694 0.4818 0.0
H348 H 0.19776 0.23023 0.45356 0.0
H349 H 0.26627 0.20614 0.46496 0.0
C350 C 1.03115 0.06163 0.40332 0.0
C351 C 0.09738 0.0721 0.39156 0.0
C352 C 1.03094 0.06613 0.42729 0.0
C353 C 0.09659 0.08025 0.43999 0.0
C354 C 0.16223 0.08914 0.42819 0.0
H355 H 0.07765 0.95681 0.581 0.0
H356 H 0.08011 0.96162 0.53935 0.0
C357 C 0.16304 0.08623 0.40424 0.0
C358 C 0.095 0.08219 0.4655 0.0
H359 H 0.19612 0.18646 0.51383 0.0
C360 C 1.03342 1.02012 0.47613 0.0
C361 C 0.15304 0.14422 0.47937 0.0
C362 C 0.21735 0.21598 0.46933 0.0
C363 C 1.02901 1.01751 0.50008 0.0
C364 C 0.08956 0.07713 0.5139 0.0
C365 C 0.15026 0.14008 0.50331 0.0
C366 C 0.09098 0.07542 0.53932 0.0
C367 C 0.95842 0.95157 0.51023 0.0
C368 C 0.10029 0.13935 0.55334 0.0
C369 C 0.10107 0.13757 0.57724 0.0
C370 C 0.09172 0.07146 0.58757 0.0
C371 C 0.08376 1.00812 0.57354 0.0
C372 C 0.08451 1.01055 0.54969 0.0
H373 H 0.9077 0.92733 0.49832 0.0
H374 H 0.97048 0.90414 0.51341 0.0
H375 H 0.94269 0.97044 0.52669 0.0
H376 H 0.106 0.19036 0.54579 0.0
H377 H 0.10739 0.1873 0.58761 0.0
H378 H 1.0146 0.91959 0.7245 0.0
H379 H 1.00798 0.91404 0.76624 0.0
H380 H 0.11918 0.1636 0.77344 0.0
H381 H 0.12696 0.16989 0.7318 0.0
H382 H 0.18272 0.10316 0.80204 0.0
H383 H 0.8626 0.94989 0.80887 0.0
H384 H 0.89848 0.90136 0.78984 0.0
H385 H 0.91182 0.99415 0.78308 0.0
C386 C 1.03748 0.97331 0.73495 0.0
C387 C 0.07113 0.0452 0.7248 0.0
C388 C 1.03318 0.96998 0.75881 0.0
C389 C 0.062 1.03834 0.77295 0.0
C390 C 0.0962 0.11012 0.76286 0.0
H391 H 0.98967 0.08384 0.91909 0.0
H392 H 0.99109 0.08834 0.87727 0.0
C393 C 0.10055 0.11356 0.73904 0.0
C394 C 0.05865 1.0355 0.79828 0.0
H395 H 0.93422 0.96584 0.8429 0.0
C396 C 0.12839 0.07328 0.81098 0.0
C397 C 0.98765 0.99733 0.80994 0.0
C398 C 0.91077 0.95895 0.7973 0.0
C399 C 0.12916 0.07289 0.83498 0.0
C400 C 1.05832 1.03269 0.84659 0.0
C401 C 0.98847 0.99603 0.83394 0.0
C402 C 1.05576 1.02814 0.87186 0.0
C403 C 0.20579 0.1165 0.84774 0.0
C404 C 0.09045 0.99163 0.88263 0.0
C405 C 0.08979 0.98896 0.90647 0.0
C406 C 1.05402 1.02247 0.92005 0.0
C407 C 1.01791 0.05768 0.90917 0.0
C408 C 1.01857 0.06023 0.88528 0.0
H409 H 0.25183 0.16003 0.83708 0.0
H410 H 0.20084 0.14665 0.8637 0.0
H411 H 0.22414 0.07486 0.85254 0.0
H412 H 0.1182 0.96521 0.87258 0.0
H413 H 0.1178 0.961 0.91425 0.0
loop_
_geom_bond_atom_site_label_1
_geom_bond_atom_site_label_2
_geom_bond_distance
_geom_bond_site_symmetry_2
_ccdc_geom_bond_type
Co0 N5 2.057 1_554 S
Co0 O17 2.021 . S
Co0 O20 2.062 1_455 S
Co0 O24 2.117 1_554 S
Co0 O25 2.020 1_565 S
C1 O21 1.259 1_455 S
C1 O24 1.258 1_545 S
Co2 N11 2.052 1_556 S
Co2 O18 2.092 1_656 S
Co2 O19 2.017 1_546 S
Co2 O21 2.046 . S
Co2 O26 2.061 1_655 S
C3 N5 1.316 1_554 S
C3 N6 1.347 1_554 S
C3 H8 0.931 . S
C4 N5 1.375 . S
C4 C7 1.350 . S
C4 H9 0.930 . S
N5 Co0 2.057 1_556 S
N5 C3 1.316 1_556 S
N5 C4 1.375 . S
N6 C3 1.347 1_556 S
N6 C7 1.373 . S
C7 C4 1.350 . S
C7 N6 1.373 . S
C7 H28 0.931 . S
H8 C3 0.931 . S
H9 C4 0.930 . S
C10 O17 1.259 1_545 S
C10 O18 1.258 . S
N11 Co2 2.052 1_554 S
N11 C12 1.316 1_554 S
N11 C13 1.375 . S
C12 N11 1.316 1_556 S
C12 N14 1.347 1_556 S
C12 H23 0.931 . S
C13 N11 1.375 . S
C13 C15 1.350 . S
C13 H22 0.930 . S
N14 C12 1.347 1_554 S
N14 C15 1.373 . S
C15 C13 1.350 . S
C15 N14 1.373 . S
C15 H29 0.931 . S
C16 O19 1.257 . S
C16 O20 1.255 . S
O17 Co0 2.021 . S
O17 C10 1.259 1_565 S
O18 Co2 2.092 1_454 S
O18 C10 1.258 . S
O19 Co2 2.017 1_564 S
O19 C16 1.257 . S
O20 Co0 2.062 1_655 S
O20 C16 1.255 . S
O21 C1 1.259 1_655 S
O21 Co2 2.046 . S
H22 C13 0.930 . S
H23 C12 0.931 . S
O24 Co0 2.117 1_556 S
O24 C1 1.258 1_565 S
O25 Co0 2.020 1_545 S
O25 C27 1.261 . S
O26 Co2 2.061 1_455 S
O26 C27 1.250 1_556 S
C27 O25 1.261 . S
C27 O26 1.250 1_554 S
H28 C7 0.931 . S
H29 C15 0.931 . S
Co30 N35 2.057 . S
Co30 O47 2.021 . S
Co30 O50 2.062 1_545 S
Co30 O54 2.117 . S
Co30 O55 2.020 . S
C31 O51 1.259 1_445 S
C31 O54 1.258 . S
Co32 N41 2.057 . S
Co32 O48 2.117 1_665 S
Co32 O49 2.020 . S
Co32 O51 2.021 . S
Co32 O56 2.062 1_665 S
C33 N35 1.316 . S
C33 N36 1.347 . S
C33 H38 0.931 . S
C34 N35 1.375 . S
C34 C37 1.350 . S
C34 H39 0.930 . S
N35 Co30 2.057 . S
N35 C33 1.316 . S
N35 C34 1.375 . S
N36 C33 1.347 . S
N36 C37 1.373 . S
C37 C34 1.350 . S
C37 N36 1.373 . S
C37 H58 0.931 . S
H38 C33 0.931 . S
H39 C34 0.930 . S
C40 O47 1.259 . S
C40 O48 1.258 . S
N41 Co32 2.057 . S
N41 C42 1.316 . S
N41 C43 1.375 . S
C42 N41 1.316 . S
C42 N44 1.347 . S
C42 H53 0.931 . S
C43 N41 1.375 . S
C43 C45 1.350 . S
C43 H52 0.930 . S
N44 C42 1.347 . S
N44 C45 1.373 . S
C45 C43 1.350 . S
C45 N44 1.373 . S
C45 H59 0.931 . S
C46 O49 1.256 1_455 S
C46 O50 1.255 . S
O47 Co30 2.021 . S
O47 C40 1.259 . S
O48 Co32 2.117 1_445 S
O48 C40 1.258 . S
O49 Co32 2.020 . S
O49 C46 1.256 1_655 S
O50 Co30 2.062 1_565 S
O50 C46 1.255 . S
O51 C31 1.259 1_665 S
O51 Co32 2.021 . S
H52 C43 0.930 . S
H53 C42 0.931 . S
O54 Co30 2.117 . S
O54 C31 1.258 . S
O55 Co30 2.020 . S
O55 C57 1.256 . S
O56 Co32 2.062 1_445 S
O56 C57 1.255 . S
C57 O55 1.256 . S
C57 O56 1.255 . S
H58 C37 0.931 . S
H59 C45 0.931 . S
Co60 N65 2.057 . S
Co60 O77 2.021 . S
Co60 O80 2.062 . S
Co60 O84 2.117 1_655 S
Co60 O85 2.020 1_655 S
C61 O81 1.259 . S
C61 O84 1.258 1_545 S
Co62 N71 2.057 . S
Co62 O78 2.117 . S
Co62 O79 2.020 . S
Co62 O81 2.021 . S
Co62 O86 2.062 . S
C63 N65 1.316 . S
C63 N66 1.347 . S
C63 H68 0.931 . S
C64 N65 1.375 . S
C64 C67 1.350 . S
C64 H69 0.930 . S
N65 Co60 2.057 . S
N65 C63 1.316 . S
N65 C64 1.375 . S
N66 C63 1.347 . S
N66 C67 1.373 . S
C67 C64 1.350 . S
C67 N66 1.373 . S
C67 H88 0.931 . S
H68 C63 0.931 . S
H69 C64 0.930 . S
C70 O77 1.259 1_445 S
C70 O78 1.258 . S
N71 Co62 2.057 . S
N71 C72 1.316 . S
N71 C73 1.375 . S
C72 N71 1.316 . S
C72 N74 1.347 . S
C72 H83 0.931 . S
C73 N71 1.375 . S
C73 C75 1.350 . S
C73 H82 0.930 . S
N74 C72 1.347 . S
N74 C75 1.373 . S
C75 C73 1.350 . S
C75 N74 1.373 . S
C75 H89 0.931 . S
C76 O79 1.256 1_655 S
C76 O80 1.255 1_545 S
O77 Co60 2.021 . S
O77 C70 1.259 1_665 S
O78 Co62 2.117 . S
O78 C70 1.258 . S
O79 Co62 2.020 . S
O79 C76 1.256 1_455 S
O80 Co60 2.062 . S
O80 C76 1.255 1_565 S
O81 C61 1.259 . S
O81 Co62 2.021 . S
H82 C73 0.930 . S
H83 C72 0.931 . S
O84 Co60 2.117 1_455 S
O84 C61 1.258 1_565 S
O85 Co60 2.020 1_455 S
O85 C87 1.256 . S
O86 Co62 2.062 . S
O86 C87 1.255 1_545 S
C87 O85 1.256 . S
C87 O86 1.255 1_565 S
H88 C67 0.931 . S
H89 C75 0.931 . S
H90 C98 0.929 . S
H91 C100 0.930 . S
H92 C102 0.930 . S
H93 C105 0.929 . S
H94 C108 0.930 . S
H95 C110 0.960 . S
H96 C110 0.960 . S
H97 C110 0.960 . S
C98 H90 0.929 . S
C98 C99 1.331 1_556 S
C98 C100 1.384 . S
C99 C98 1.331 1_554 S
C99 C105 1.433 . S
C100 H91 0.930 . S
C100 C98 1.384 . S
C100 C101 1.376 1_556 S
C101 C100 1.376 1_554 S
C101 C102 1.395 . S
C101 C106 1.489 1_554 S
C102 H92 0.930 . S
C102 C101 1.395 . S
C102 C105 1.386 . S
H103 C119 0.930 . S
H104 C120 0.931 . S
C105 H93 0.929 . S
C105 C99 1.433 . S
C105 C102 1.386 . S
C106 C101 1.489 1_556 S
C106 C108 1.403 . S
C106 C109 1.396 1_656 S
H107 C113 0.930 . S
C108 H94 0.930 . S
C108 C106 1.403 . S
C108 C111 1.403 . S
C109 C106 1.396 1_454 S
C109 C110 1.524 . S
C109 C113 1.400 . S
C110 H95 0.960 . S
C110 H96 0.960 . S
C110 H97 0.960 . S
C110 C109 1.524 . S
C111 C108 1.403 . S
C111 C112 1.392 1_655 S
C111 C115 1.495 . S
C112 C111 1.392 1_455 S
C112 C113 1.385 1_556 S
C112 C114 1.478 . S
C113 H107 0.930 . S
C113 C109 1.400 . S
C113 C112 1.385 1_554 S
C114 C112 1.478 . S
C114 C116 1.381 . S
C114 C120 1.383 1_556 S
C115 C111 1.495 . S
C115 H121 0.959 . S
C115 H122 0.961 . S
C115 H123 0.960 . S
C116 C114 1.381 . S
C116 C117 1.394 . S
C116 H124 0.930 . S
C117 C116 1.394 . S
C117 C118 1.354 1_556 S
C117 H125 0.929 . S
C118 C117 1.354 1_554 S
C118 C119 1.407 . S
C119 H103 0.930 . S
C119 C118 1.407 . S
C119 C120 1.379 . S
C120 H104 0.931 . S
C120 C114 1.383 1_554 S
C120 C119 1.379 . S
H121 C115 0.959 . S
H122 C115 0.961 . S
H123 C115 0.960 . S
H124 C116 0.930 . S
H125 C117 0.929 . S
H126 C134 0.929 . S
H127 C136 0.930 . S
H128 C138 0.930 . S
H129 C141 0.929 . S
H130 C144 0.930 . S
H131 C146 0.960 . S
H132 C146 0.960 . S
H133 C146 0.960 . S
C134 H126 0.929 . S
C134 C135 1.377 . S
C134 C136 1.384 . S
C135 C134 1.377 . S
C135 C141 1.390 . S
C136 H127 0.930 . S
C136 C134 1.384 . S
C136 C137 1.372 . S
C137 C136 1.372 . S
C137 C138 1.400 . S
C137 C142 1.490 . S
C138 H128 0.930 . S
C138 C137 1.400 . S
C138 C141 1.386 . S
H139 C155 0.930 . S
H140 C156 0.931 . S
C141 H129 0.929 . S
C141 C135 1.390 . S
C141 C138 1.386 . S
C142 C137 1.490 . S
C142 C144 1.395 . S
C142 C145 1.403 1_545 S
H143 C149 0.930 . S
C144 H130 0.930 . S
C144 C142 1.395 . S
C144 C147 1.403 . S
C145 C142 1.403 1_565 S
C145 C146 1.524 . S
C145 C149 1.400 . S
C146 H131 0.960 . S
C146 H132 0.960 . S
C146 H133 0.960 . S
C146 C145 1.524 . S
C147 C144 1.403 . S
C147 C148 1.392 . S
C147 C151 1.495 . S
C148 C147 1.392 . S
C148 C149 1.385 1_545 S
C148 C150 1.478 1_545 S
C149 H143 0.930 . S
C149 C145 1.400 . S
C149 C148 1.385 1_565 S
C150 C148 1.478 1_565 S
C150 C152 1.381 1_565 S
C150 C156 1.383 . S
C151 C147 1.495 . S
C151 H157 0.959 . S
C151 H158 0.961 . S
C151 H159 0.960 . S
C152 C150 1.381 1_545 S
C152 C153 1.394 1_545 S
C152 H160 0.930 . S
C153 C152 1.394 1_565 S
C153 C154 1.383 . S
C153 H161 0.929 . S
C154 C153 1.383 . S
C154 C155 1.377 . S
C155 H139 0.930 . S
C155 C154 1.377 . S
C155 C156 1.379 . S
C156 H140 0.931 . S
C156 C150 1.383 . S
C156 C155 1.379 . S
H157 C151 0.959 . S
H158 C151 0.961 . S
H159 C151 0.960 . S
H160 C152 0.930 . S
H161 C153 0.929 . S
H162 C170 0.929 . S
H163 C172 0.930 . S
H164 C174 0.930 . S
H165 C177 0.929 . S
H166 C180 0.930 . S
H167 C182 0.960 . S
H168 C182 0.960 . S
H169 C182 0.960 . S
C170 H162 0.929 . S
C170 C171 1.377 . S
C170 C172 1.384 . S
C171 C170 1.377 . S
C171 C177 1.390 . S
C172 H163 0.930 . S
C172 C170 1.384 . S
C172 C173 1.372 . S
C173 C172 1.372 . S
C173 C174 1.400 . S
C173 C178 1.490 . S
C174 H164 0.930 . S
C174 C173 1.400 . S
C174 C177 1.386 . S
H175 C191 0.930 . S
H176 C192 0.931 . S
C177 H165 0.929 . S
C177 C171 1.390 . S
C177 C174 1.386 . S
C178 C173 1.490 . S
C178 C180 1.395 . S
C178 C181 1.403 . S
H179 C185 0.930 . S
C180 H166 0.930 . S
C180 C178 1.395 . S
C180 C183 1.403 . S
C181 C178 1.403 . S
C181 C182 1.524 . S
C181 C185 1.400 . S
C182 H167 0.960 . S
C182 H168 0.960 . S
C182 H169 0.960 . S
C182 C181 1.524 . S
C183 C180 1.403 . S
C183 C184 1.392 . S
C183 C187 1.495 . S
C184 C183 1.392 . S
C184 C185 1.385 . S
C184 C186 1.478 . S
C185 H179 0.930 . S
C185 C181 1.400 . S
C185 C184 1.385 . S
C186 C184 1.478 . S
C186 C188 1.381 . S
C186 C192 1.383 . S
C187 C183 1.495 . S
C187 H193 0.959 . S
C187 H194 0.961 . S
C187 H195 0.960 . S
C188 C186 1.381 . S
C188 C189 1.394 . S
C188 H196 0.930 . S
C189 C188 1.394 . S
C189 C190 1.383 . S
C189 H197 0.929 . S
C190 C189 1.383 . S
C190 C191 1.377 . S
C191 H175 0.930 . S
C191 C190 1.377 . S
C191 C192 1.379 . S
C192 H176 0.931 . S
C192 C186 1.383 . S
C192 C191 1.379 . S
H193 C187 0.959 . S
H194 C187 0.961 . S
H195 C187 0.960 . S
H196 C188 0.930 . S
H197 C189 0.929 . S
H198 C206 0.929 . S
H199 C208 0.930 . S
H200 C210 0.930 . S
H201 C213 0.929 . S
H202 C216 0.930 . S
H203 C218 0.960 . S
H204 C218 0.960 . S
H205 C218 0.960 . S
C206 H198 0.929 . S
C206 C207 1.377 . S
C206 C208 1.384 . S
C207 C206 1.377 . S
C207 C213 1.390 1_545 S
C208 H199 0.930 . S
C208 C206 1.384 . S
C208 C209 1.372 . S
C209 C208 1.372 . S
C209 C210 1.400 1_545 S
C209 C214 1.490 . S
C210 H200 0.930 . S
C210 C209 1.400 1_565 S
C210 C213 1.386 . S
H211 C227 0.930 . S
H212 C228 0.931 . S
C213 H201 0.929 . S
C213 C207 1.390 1_565 S
C213 C210 1.386 . S
C214 C209 1.490 . S
C214 C216 1.395 . S
C214 C217 1.403 1_545 S
H215 C221 0.930 . S
C216 H202 0.930 . S
C216 C214 1.395 . S
C216 C219 1.403 . S
C217 C214 1.403 1_565 S
C217 C218 1.524 . S
C217 C221 1.400 . S
C218 H203 0.960 . S
C218 H204 0.960 . S
C218 H205 0.960 . S
C218 C217 1.524 . S
C219 C216 1.403 . S
C219 C220 1.392 . S
C219 C223 1.495 . S
C220 C219 1.392 . S
C220 C221 1.385 1_545 S
C220 C222 1.478 . S
C221 H215 0.930 . S
C221 C217 1.400 . S
C221 C220 1.385 1_565 S
C222 C220 1.478 . S
C222 C224 1.381 . S
C222 C228 1.383 1_545 S
C223 C219 1.495 . S
C223 H229 0.959 . S
C223 H230 0.961 . S
C223 H231 0.960 . S
C224 C222 1.381 . S
C224 C225 1.394 . S
C224 H232 0.930 . S
C225 C224 1.394 . S
C225 C226 1.383 1_545 S
C225 H233 0.929 . S
C226 C225 1.383 1_565 S
C226 C227 1.377 . S
C227 H211 0.930 . S
C227 C226 1.377 . S
C227 C228 1.379 . S
C228 H212 0.931 . S
C228 C222 1.383 1_565 S
C228 C227 1.379 . S
H229 C223 0.959 . S
H230 C223 0.961 . S
H231 C223 0.960 . S
H232 C224 0.930 . S
H233 C225 0.929 . S
H234 C242 0.929 . S
H235 C244 0.930 . S
H236 C246 0.930 . S
H237 C249 0.929 . S
H238 C252 0.930 . S
H239 C254 0.960 . S
H240 C254 0.960 . S
H241 C254 0.960 . S
C242 H234 0.929 . S
C242 C243 1.377 1_556 S
C242 C244 1.384 . S
C243 C242 1.377 1_554 S
C243 C249 1.390 . S
C244 H235 0.930 . S
C244 C242 1.384 . S
C244 C245 1.346 1_556 S
C245 C244 1.346 1_554 S
C245 C246 1.425 . S
C245 C250 1.492 . S
C246 H236 0.930 . S
C246 C245 1.425 . S
C246 C249 1.386 . S
H247 C263 0.930 . S
H248 C264 0.931 . S
C249 H237 0.929 . S
C249 C243 1.390 . S
C249 C246 1.386 . S
C250 C245 1.492 . S
C250 C252 1.396 1_554 S
C250 C253 1.401 . S
H251 C257 0.930 . S
C252 H238 0.930 . S
C252 C250 1.396 1_556 S
C252 C255 1.403 . S
C253 C250 1.401 . S
C253 C254 1.524 . S
C253 C257 1.400 . S
C254 H239 0.960 . S
C254 H240 0.960 . S
C254 H241 0.960 . S
C254 C253 1.524 . S
C255 C252 1.403 . S
C255 C256 1.392 . S
C255 C259 1.495 . S
C256 C255 1.392 . S
C256 C257 1.385 1_556 S
C256 C258 1.478 . S
C257 H251 0.930 . S
C257 C253 1.400 . S
C257 C256 1.385 1_554 S
C258 C256 1.478 . S
C258 C260 1.381 . S
C258 C264 1.383 1_556 S
C259 C255 1.495 . S
C259 H265 0.959 . S
C259 H266 0.961 . S
C259 H267 0.960 . S
C260 C258 1.381 . S
C260 C261 1.394 . S
C260 H268 0.930 . S
C261 C260 1.394 . S
C261 C262 1.399 . S
C261 H269 0.929 . S
C262 C261 1.399 . S
C262 C263 1.365 1_556 S
C263 H247 0.930 . S
C263 C262 1.365 1_554 S
C263 C264 1.379 . S
C264 H248 0.931 . S
C264 C258 1.383 1_554 S
C264 C263 1.379 . S
H265 C259 0.959 . S
H266 C259 0.961 . S
H267 C259 0.960 . S
H268 C260 0.930 . S
H269 C261 0.929 . S
H270 C278 0.929 . S
H271 C280 0.930 . S
H272 C282 0.930 . S
H273 C285 0.929 . S
H274 C288 0.930 . S
H275 C290 0.960 . S
H276 C290 0.960 . S
H277 C290 0.960 . S
C278 H270 0.929 . S
C278 C279 1.377 . S
C278 C280 1.384 . S
C279 C278 1.377 . S
C279 C285 1.390 . S
C280 H271 0.930 . S
C280 C278 1.384 . S
C280 C281 1.372 . S
C281 C280 1.372 . S
C281 C282 1.400 . S
C281 C286 1.490 . S
C282 H272 0.930 . S
C282 C281 1.400 . S
C282 C285 1.386 . S
H283 C299 0.930 . S
H284 C300 0.931 . S
C285 H273 0.929 . S
C285 C279 1.390 . S
C285 C282 1.386 . S
C286 C281 1.490 . S
C286 C288 1.395 1_455 S
C286 C289 1.403 . S
H287 C293 0.930 . S
C288 H274 0.930 . S
C288 C286 1.395 1_655 S
C288 C291 1.403 . S
C289 C286 1.403 . S
C289 C290 1.524 . S
C289 C293 1.400 . S
C290 H275 0.960 . S
C290 H276 0.960 . S
C290 H277 0.960 . S
C290 C289 1.524 . S
C291 C288 1.403 . S
C291 C292 1.392 1_655 S
C291 C295 1.495 . S
C292 C291 1.392 1_455 S
C292 C293 1.385 . S
C292 C294 1.478 . S
C293 H287 0.930 . S
C293 C289 1.400 . S
C293 C292 1.385 . S
C294 C292 1.478 . S
C294 C296 1.381 . S
C294 C300 1.383 . S
C295 C291 1.495 . S
C295 H301 0.959 . S
C295 H302 0.961 . S
C295 H303 0.960 . S
C296 C294 1.381 . S
C296 C297 1.394 . S
C296 H304 0.930 . S
C297 C296 1.394 . S
C297 C298 1.383 . S
C297 H305 0.935 . S
C298 C297 1.383 . S
C298 C299 1.377 . S
C299 H283 0.930 . S
C299 C298 1.377 . S
C299 C300 1.379 . S
C300 H284 0.931 . S
C300 C294 1.383 . S
C300 C299 1.379 . S
H301 C295 0.959 . S
H302 C295 0.961 . S
H303 C295 0.960 . S
H304 C296 0.930 . S
H305 C297 0.935 . S
H306 C314 0.929 . S
H307 C316 0.930 . S
H308 C318 0.930 . S
H309 C321 0.929 . S
H310 C324 0.930 . S
H311 C326 0.960 . S
H312 C326 0.960 . S
H313 C326 0.960 . S
C314 H306 0.929 . S
C314 C315 1.377 . S
C314 C316 1.384 . S
C315 C314 1.377 . S
C315 C321 1.390 1_545 S
C316 H307 0.930 . S
C316 C314 1.384 . S
C316 C317 1.372 . S
C317 C316 1.372 . S
C317 C318 1.400 1_545 S
C317 C322 1.490 . S
C318 H308 0.930 . S
C318 C317 1.400 1_565 S
C318 C321 1.386 . S
H319 C335 0.930 . S
H320 C336 0.931 . S
C321 H309 0.929 . S
C321 C315 1.390 1_565 S
C321 C318 1.386 . S
C322 C317 1.490 . S
C322 C324 1.395 . S
C322 C325 1.403 1_445 S
H323 C329 0.930 . S
C324 H310 0.930 . S
C324 C322 1.395 . S
C324 C327 1.403 . S
C325 C322 1.403 1_665 S
C325 C326 1.524 . S
C325 C329 1.400 . S
C326 H311 0.960 . S
C326 H312 0.960 . S
C326 H313 0.960 . S
C326 C325 1.524 . S
C327 C324 1.403 . S
C327 C328 1.392 . S
C327 C331 1.495 . S
C328 C327 1.392 . S
C328 C329 1.385 1_445 S
C328 C330 1.478 . S
C329 H323 0.930 . S
C329 C325 1.400 . S
C329 C328 1.385 1_665 S
C330 C328 1.478 . S
C330 C332 1.381 . S
C330 C336 1.383 1_545 S
C331 C327 1.495 . S
C331 H337 0.959 . S
C331 H338 0.961 . S
C331 H339 0.960 . S
C332 C330 1.381 . S
C332 C333 1.394 . S
C332 H340 0.941 . S
C333 C332 1.394 . S
C333 C334 1.383 . S
C333 H341 0.929 1_455 S
C334 C333 1.383 . S
C334 C335 1.377 1_545 S
C335 H319 0.930 . S
C335 C334 1.377 1_565 S
C335 C336 1.379 . S
C336 H320 0.931 . S
C336 C330 1.383 1_565 S
C336 C335 1.379 . S
H337 C331 0.959 . S
H338 C331 0.961 . S
H339 C331 0.960 . S
H340 C332 0.941 . S
H341 C333 0.929 1_655 S
H342 C350 0.929 . S
H343 C352 0.930 . S
H344 C354 0.930 . S
H345 C357 0.929 . S
H346 C360 0.930 . S
H347 C362 0.960 . S
H348 C362 0.960 . S
H349 C362 0.960 . S
C350 H342 0.929 . S
C350 C351 1.377 . S
C350 C352 1.384 . S
C351 C350 1.377 . S
C351 C357 1.390 1_545 S
C352 H343 0.930 . S
C352 C350 1.384 . S
C352 C353 1.372 . S
C353 C352 1.372 . S
C353 C354 1.400 1_545 S
C353 C358 1.490 . S
C354 H344 0.930 . S
C354 C353 1.400 1_565 S
C354 C357 1.386 . S
H355 C371 0.930 . S
H356 C372 0.931 . S
C357 H345 0.929 . S
C357 C351 1.390 1_565 S
C357 C354 1.386 . S
C358 C353 1.490 . S
C358 C360 1.395 1_445 S
C358 C361 1.403 . S
H359 C365 0.930 . S
C360 H346 0.930 . S
C360 C358 1.395 1_665 S
C360 C363 1.403 . S
C361 C358 1.403 . S
C361 C362 1.524 . S
C361 C365 1.400 . S
C362 H347 0.960 . S
C362 H348 0.960 . S
C362 H349 0.960 . S
C362 C361 1.524 . S
C363 C360 1.403 . S
C363 C364 1.392 1_665 S
C363 C367 1.495 . S
C364 C363 1.392 1_445 S
C364 C365 1.385 . S
C364 C366 1.478 . S
C365 H359 0.930 . S
C365 C361 1.400 . S
C365 C364 1.385 . S
C366 C364 1.478 . S
C366 C368 1.381 . S
C366 C372 1.383 1_545 S
C367 C363 1.495 . S
C367 H373 0.959 . S
C367 H374 0.961 . S
C367 H375 0.960 . S
C368 C366 1.381 . S
C368 C369 1.394 . S
C368 H376 0.930 . S
C369 C368 1.394 . S
C369 C370 1.383 . S
C369 H377 0.929 . S
C370 C369 1.383 . S
C370 C371 1.377 1_545 S
C371 H355 0.930 . S
C371 C370 1.377 1_565 S
C371 C372 1.379 . S
C372 H356 0.931 . S
C372 C366 1.383 1_565 S
C372 C371 1.379 . S
H373 C367 0.959 . S
H374 C367 0.961 . S
H375 C367 0.960 . S
H376 C368 0.930 . S
H377 C369 0.929 . S
H378 C386 0.935 . S
H379 C388 0.930 . S
H380 C390 0.930 . S
H381 C393 0.929 . S
H382 C396 0.930 . S
H383 C398 0.960 . S
H384 C398 0.960 . S
H385 C398 0.960 . S
C386 H378 0.935 . S
C386 C387 1.377 . S
C386 C388 1.384 . S
C387 C386 1.377 . S
C387 C393 1.390 1_455 S
C388 H379 0.930 . S
C388 C386 1.384 . S
C388 C389 1.372 . S
C389 C388 1.372 . S
C389 C390 1.400 1_455 S
C389 C394 1.490 . S
C390 H380 0.930 . S
C390 C389 1.400 1_655 S
C390 C393 1.386 . S
H391 C407 0.930 . S
H392 C408 0.931 . S
C393 H381 0.929 . S
C393 C387 1.390 1_655 S
C393 C390 1.386 . S
C394 C389 1.490 . S
C394 C396 1.395 . S
C394 C397 1.403 1_445 S
H395 C401 0.930 . S
C396 H382 0.930 . S
C396 C394 1.395 . S
C396 C399 1.403 . S
C397 C394 1.403 1_665 S
C397 C398 1.524 . S
C397 C401 1.400 . S
C398 H383 0.960 . S
C398 H384 0.960 . S
C398 H385 0.960 . S
C398 C397 1.524 . S
C399 C396 1.403 . S
C399 C400 1.392 . S
C399 C403 1.495 . S
C400 C399 1.392 . S
C400 C401 1.385 1_445 S
C400 C402 1.478 . S
C401 H395 0.930 . S
C401 C397 1.400 . S
C401 C400 1.385 1_665 S
C402 C400 1.478 . S
C402 C404 1.381 . S
C402 C408 1.383 1_455 S
C403 C399 1.495 . S
C403 H409 0.959 . S
C403 H410 0.961 . S
C403 H411 0.960 . S
C404 C402 1.381 . S
C404 C405 1.394 . S
C404 H412 0.930 . S
C405 C404 1.394 . S
C405 C406 1.383 . S
C405 H413 0.929 1_545 S
C406 C405 1.383 . S
C406 C407 1.377 1_455 S
C407 H391 0.930 . S
C407 C406 1.377 1_655 S
C407 C408 1.379 . S
C408 H392 0.931 . S
C408 C402 1.383 1_655 S
C408 C407 1.379 . S
H409 C403 0.959 . S
H410 C403 0.961 . S
H411 C403 0.960 . S
H412 C404 0.930 . S
H413 C405 0.929 1_565 S
C99 N14 0.446 . S
C118 N6 0.344 1_554 S
C135 N36 0.416 . S
C154 N44 0.406 . S
C171 N66 0.382 . S
C190 N74 0.385 . S
C207 C76 2.548 . S
C226 C87 2.537 . S
C243 C16 2.549 . S
C262 C27 2.539 1_556 S
C279 C57 2.549 . S
C298 C46 2.551 . S
C315 C31 1.498 . S
C334 C10 1.492 . S
C351 C40 1.500 . S
C370 C61 1.495 . S
C387 C70 1.497 . S
C406 C1 1.498 . S
