# Generated by pormake.
# Topology fcj, (5)-cn, num edge types: 1
# Building blocks:
#     Node 0, Type 0, BuildingBlock: XOMCOT_clean_sbu_1, # of connection points: 5
#     Node 1, Type 0, BuildingBlock: XOMCOT_clean_sbu_1, # of connection points: 5
#     Node 2, Type 0, BuildingBlock: XOMCOT_clean_sbu_1, # of connection points: 5
#     Node 3, Type 0, BuildingBlock: XOMCOT_clean_sbu_1, # of connection points: 5
#     Node 4, Type 0, BuildingBlock: XOMCOT_clean_sbu_1, # of connection points: 5
#     Node 5, Type 0, BuildingBlock: XOMCOT_clean_sbu_1, # of connection points: 5
#     Node 6, Type 0, BuildingBlock: XOMCOT_clean_sbu_1, # of connection points: 5
#     Node 7, Type 0, BuildingBlock: XOMCOT_clean_sbu_1, # of connection points: 5
#     Node 8, Type 0, BuildingBlock: XOMCOT_clean_sbu_1, # of connection points: 5
#     Node 9, Type 0, BuildingBlock: XOMCOT_clean_sbu_1, # of connection points: 5
#     Node 10, Type 0, BuildingBlock: XOMCOT_clean_sbu_1, # of connection points: 5
#     Node 11, Type 0, BuildingBlock: XOMCOT_clean_sbu_1, # of connection points: 5
#     Node 12, Type 0, BuildingBlock: XOMCOT_clean_sbu_1, # of connection points: 5
#     Node 13, Type 0, BuildingBlock: XOMCOT_clean_sbu_1, # of connection points: 5
#     Node 14, Type 0, BuildingBlock: XOMCOT_clean_sbu_1, # of connection points: 5
#     Node 15, Type 0, BuildingBlock: XOMCOT_clean_sbu_1, # of connection points: 5
#     Node 16, Type 0, BuildingBlock: XOMCOT_clean_sbu_1, # of connection points: 5
#     Node 17, Type 0, BuildingBlock: XOMCOT_clean_sbu_1, # of connection points: 5
#     Node 18, Type 0, BuildingBlock: XOMCOT_clean_sbu_1, # of connection points: 5
#     Node 19, Type 0, BuildingBlock: XOMCOT_clean_sbu_1, # of connection points: 5
#     Node 20, Type 0, BuildingBlock: XOMCOT_clean_sbu_1, # of connection points: 5
#     Node 21, Type 0, BuildingBlock: XOMCOT_clean_sbu_1, # of connection points: 5
#     Node 22, Type 0, BuildingBlock: XOMCOT_clean_sbu_1, # of connection points: 5
#     Node 23, Type 0, BuildingBlock: XOMCOT_clean_sbu_1, # of connection points: 5
#     Edge 24, Type (0, 0), BuildingBlock: KIFKEQ_clean_linker_1, # of connection points: 2
#     Edge 25, Type (0, 0), BuildingBlock: KIFKEQ_clean_linker_1, # of connection points: 2
#     Edge 26, Type (0, 0), BuildingBlock: KIFKEQ_clean_linker_1, # of connection points: 2
#     Edge 27, Type (0, 0), BuildingBlock: KIFKEQ_clean_linker_1, # of connection points: 2
#     Edge 28, Type (0, 0), BuildingBlock: KIFKEQ_clean_linker_1, # of connection points: 2
#     Edge 29, Type (0, 0), BuildingBlock: KIFKEQ_clean_linker_1, # of connection points: 2
#     Edge 30, Type (0, 0), BuildingBlock: KIFKEQ_clean_linker_1, # of connection points: 2
#     Edge 31, Type (0, 0), BuildingBlock: KIFKEQ_clean_linker_1, # of connection points: 2
#     Edge 32, Type (0, 0), BuildingBlock: KIFKEQ_clean_linker_1, # of connection points: 2
#     Edge 33, Type (0, 0), BuildingBlock: KIFKEQ_clean_linker_1, # of connection points: 2
#     Edge 34, Type (0, 0), BuildingBlock: KIFKEQ_clean_linker_1, # of connection points: 2
#     Edge 35, Type (0, 0), BuildingBlock: KIFKEQ_clean_linker_1, # of connection points: 2
#     Edge 36, Type (0, 0), BuildingBlock: KIFKEQ_clean_linker_1, # of connection points: 2
#     Edge 37, Type (0, 0), BuildingBlock: KIFKEQ_clean_linker_1, # of connection points: 2
#     Edge 38, Type (0, 0), BuildingBlock: KIFKEQ_clean_linker_1, # of connection points: 2
#     Edge 39, Type (0, 0), BuildingBlock: KIFKEQ_clean_linker_1, # of connection points: 2
#     Edge 40, Type (0, 0), BuildingBlock: KIFKEQ_clean_linker_1, # of connection points: 2
#     Edge 41, Type (0, 0), BuildingBlock: KIFKEQ_clean_linker_1, # of connection points: 2
#     Edge 42, Type (0, 0), BuildingBlock: KIFKEQ_clean_linker_1, # of connection points: 2
#     Edge 43, Type (0, 0), BuildingBlock: KIFKEQ_clean_linker_1, # of connection points: 2
#     Edge 44, Type (0, 0), BuildingBlock: KIFKEQ_clean_linker_1, # of connection points: 2
#     Edge 45, Type (0, 0), BuildingBlock: KIFKEQ_clean_linker_1, # of connection points: 2
#     Edge 46, Type (0, 0), BuildingBlock: KIFKEQ_clean_linker_1, # of connection points: 2
#     Edge 47, Type (0, 0), BuildingBlock: KIFKEQ_clean_linker_1, # of connection points: 2
#     Edge 48, Type (0, 0), BuildingBlock: KIFKEQ_clean_linker_1, # of connection points: 2
#     Edge 49, Type (0, 0), BuildingBlock: KIFKEQ_clean_linker_1, # of connection points: 2
#     Edge 50, Type (0, 0), BuildingBlock: KIFKEQ_clean_linker_1, # of connection points: 2
#     Edge 51, Type (0, 0), BuildingBlock: KIFKEQ_clean_linker_1, # of connection points: 2
#     Edge 52, Type (0, 0), BuildingBlock: KIFKEQ_clean_linker_1, # of connection points: 2
#     Edge 53, Type (0, 0), BuildingBlock: KIFKEQ_clean_linker_1, # of connection points: 2
#     Edge 54, Type (0, 0), BuildingBlock: KIFKEQ_clean_linker_1, # of connection points: 2
#     Edge 55, Type (0, 0), BuildingBlock: KIFKEQ_clean_linker_1, # of connection points: 2
#     Edge 56, Type (0, 0), BuildingBlock: KIFKEQ_clean_linker_1, # of connection points: 2
#     Edge 57, Type (0, 0), BuildingBlock: KIFKEQ_clean_linker_1, # of connection points: 2
#     Edge 58, Type (0, 0), BuildingBlock: KIFKEQ_clean_linker_1, # of connection points: 2
#     Edge 59, Type (0, 0), BuildingBlock: KIFKEQ_clean_linker_1, # of connection points: 2
#     Edge 60, Type (0, 0), BuildingBlock: KIFKEQ_clean_linker_1, # of connection points: 2
#     Edge 61, Type (0, 0), BuildingBlock: KIFKEQ_clean_linker_1, # of connection points: 2
#     Edge 62, Type (0, 0), BuildingBlock: KIFKEQ_clean_linker_1, # of connection points: 2
#     Edge 63, Type (0, 0), BuildingBlock: KIFKEQ_clean_linker_1, # of connection points: 2
#     Edge 64, Type (0, 0), BuildingBlock: KIFKEQ_clean_linker_1, # of connection points: 2
#     Edge 65, Type (0, 0), BuildingBlock: KIFKEQ_clean_linker_1, # of connection points: 2
#     Edge 66, Type (0, 0), BuildingBlock: KIFKEQ_clean_linker_1, # of connection points: 2
#     Edge 67, Type (0, 0), BuildingBlock: KIFKEQ_clean_linker_1, # of connection points: 2
#     Edge 68, Type (0, 0), BuildingBlock: KIFKEQ_clean_linker_1, # of connection points: 2
#     Edge 69, Type (0, 0), BuildingBlock: KIFKEQ_clean_linker_1, # of connection points: 2
#     Edge 70, Type (0, 0), BuildingBlock: KIFKEQ_clean_linker_1, # of connection points: 2
#     Edge 71, Type (0, 0), BuildingBlock: KIFKEQ_clean_linker_1, # of connection points: 2
#     Edge 72, Type (0, 0), BuildingBlock: KIFKEQ_clean_linker_1, # of connection points: 2
#     Edge 73, Type (0, 0), BuildingBlock: KIFKEQ_clean_linker_1, # of connection points: 2
#     Edge 74, Type (0, 0), BuildingBlock: KIFKEQ_clean_linker_1, # of connection points: 2
#     Edge 75, Type (0, 0), BuildingBlock: KIFKEQ_clean_linker_1, # of connection points: 2
#     Edge 76, Type (0, 0), BuildingBlock: KIFKEQ_clean_linker_1, # of connection points: 2
#     Edge 77, Type (0, 0), BuildingBlock: KIFKEQ_clean_linker_1, # of connection points: 2
#     Edge 78, Type (0, 0), BuildingBlock: KIFKEQ_clean_linker_1, # of connection points: 2
#     Edge 79, Type (0, 0), BuildingBlock: KIFKEQ_clean_linker_1, # of connection points: 2
#     Edge 80, Type (0, 0), BuildingBlock: KIFKEQ_clean_linker_1, # of connection points: 2
#     Edge 81, Type (0, 0), BuildingBlock: KIFKEQ_clean_linker_1, # of connection points: 2
#     Edge 82, Type (0, 0), BuildingBlock: KIFKEQ_clean_linker_1, # of connection points: 2
#     Edge 83, Type (0, 0), BuildingBlock: KIFKEQ_clean_linker_1, # of connection points: 2
# Relax obj value: 0.372
# Max RMSD: 0.198
# Mean RMSD: 0.198
data_MOF--net-fcj--node1-XOMCOT_clean_sbu_1--edge1-KIFKEQ_clean_linker_1
_symmetry_space_group_name_H-M    P1
_symmetry_Int_Tables_number       1
_symmetry_cell_setting            triclinic
loop_
_symmetry_equiv_pos_as_xyz
'x, y, z'
_cell_length_a     51.354662
_cell_length_b     51.345619
_cell_length_c     51.272932
_cell_angle_alpha  89.952505
_cell_angle_beta   89.991962
_cell_angle_gamma 90.013312
loop_
_atom_site_label
_atom_site_type_symbol
_atom_site_fract_x
_atom_site_fract_y
_atom_site_fract_z
_atom_type_partial_charge
C0 C 0.09709 0.2045 0.42436 0.0
C1 C 0.07908 0.21908 0.43758 0.0
N2 N 0.0714 0.23873 0.42202 0.0
N3 N 0.101 0.21479 0.40049 0.0
C4 C 0.08529 0.23599 0.39974 0.0
H5 H 0.1054 0.18642 0.43116 0.0
Co6 Co 0.11966 0.19625 0.37537 0.0
C7 C 0.12399 0.22846 0.32869 0.0
O8 O 0.11755 0.20758 0.31541 0.0
N9 N 0.13942 0.1763 0.35064 0.0
C10 C 0.15388 0.14663 0.32233 0.0
C11 C 0.13252 0.1559 0.33537 0.0
C12 C 0.16532 0.17908 0.34589 0.0
N13 N 0.17461 0.16103 0.32915 0.0
O14 O 0.15124 0.20366 0.39388 0.0
H15 H 0.11336 0.14779 0.33326 0.0
H16 H 0.17745 0.19361 0.35511 0.0
O17 O 0.12496 0.22768 0.35367 0.0
C18 C 0.15845 0.18544 0.40913 0.0
O19 O 0.14433 0.16414 0.41047 0.0
N20 N 0.0876 0.18771 0.35915 0.0
C21 C 0.04291 0.169 0.33429 0.0
C22 C 0.04929 0.19561 0.33355 0.0
C23 C 0.07158 0.20459 0.34623 0.0
C24 C 0.07926 0.16297 0.36393 0.0
C25 C 0.05763 0.15284 0.35085 0.0
H26 H 0.07608 0.22504 0.34495 0.0
H27 H 0.09084 0.15032 0.3762 0.0
H28 H 0.08252 0.248 0.38264 0.0
H29 H 0.07108 0.21465 0.45661 0.0
H30 H 0.15409 0.13034 0.30894 0.0
H31 H 0.03757 0.20946 0.32281 0.0
H32 H 0.0535 0.13229 0.35282 0.0
C33 C 0.56178 0.33516 0.16932 0.0
C34 C 0.55216 0.31531 0.18438 0.0
N35 N 0.52608 0.31445 0.18144 0.0
N36 N 0.54207 0.34715 0.15682 0.0
C37 C 0.52045 0.33458 0.16526 0.0
H38 H 0.58215 0.33963 0.16639 0.0
Co39 Co 0.54986 0.37133 0.13045 0.0
C40 C 0.49239 0.36224 0.10792 0.0
O41 O 0.48233 0.34083 0.11766 0.0
N42 N 0.55855 0.39519 0.10414 0.0
C43 C 0.56482 0.41188 0.06461 0.0
C44 C 0.55525 0.39105 0.07832 0.0
C45 C 0.57002 0.4189 0.10563 0.0
N46 N 0.57405 0.42936 0.08179 0.0
O47 O 0.53884 0.39964 0.15234 0.0
H48 H 0.5465 0.37383 0.06991 0.0
H49 H 0.57596 0.42805 0.12366 0.0
O50 O 0.51541 0.36923 0.11437 0.0
C51 C 0.55591 0.40572 0.16936 0.0
O52 O 0.57732 0.39181 0.17077 0.0
N53 N 0.56259 0.34401 0.10989 0.0
C54 C 0.58639 0.30644 0.07876 0.0
C55 C 0.55977 0.30471 0.0848 0.0
C56 C 0.54823 0.32367 0.1006 0.0
C57 C 0.58868 0.34527 0.10532 0.0
C58 C 0.60094 0.32685 0.08962 0.0
H59 H 0.52786 0.32194 0.10531 0.0
H60 H 0.59995 0.36104 0.11361 0.0
H61 H 0.50108 0.33935 0.15906 0.0
H62 H 0.5638 0.30184 0.19564 0.0
H63 H 0.56493 0.4141 0.04361 0.0
H64 H 0.54784 0.28917 0.07699 0.0
H65 H 0.62166 0.32856 0.08606 0.0
C66 C 0.40233 0.79015 0.926 0.0
C67 C 0.41998 0.77284 0.93623 0.0
N68 N 0.43047 0.7592 0.91644 0.0
N69 N 0.40142 0.78739 0.89987 0.0
C70 C 0.41875 0.76827 0.8946 0.0
H71 H 0.39161 0.80463 0.93689 0.0
Co72 Co 0.38215 0.80955 0.87853 0.0
C73 C 0.36766 0.78121 0.83058 0.0
O74 O 0.37091 0.80293 0.81743 0.0
N75 N 0.36197 0.8329 0.85811 0.0
C76 C 0.34585 0.86676 0.83625 0.0
C77 C 0.3675 0.85681 0.84858 0.0
C78 C 0.33662 0.82917 0.85176 0.0
N79 N 0.3264 0.84927 0.83824 0.0
O80 O 0.35165 0.80262 0.89916 0.0
H81 H 0.38587 0.86679 0.85046 0.0
H82 H 0.32589 0.81181 0.857 0.0
O83 O 0.37281 0.7803 0.85505 0.0
C84 C 0.34428 0.8219 0.91293 0.0
O85 O 0.3586 0.84313 0.91305 0.0
N86 N 0.41283 0.81761 0.85961 0.0
C87 C 0.4559 0.8369 0.83289 0.0
C88 C 0.44511 0.81287 0.82607 0.0
C89 C 0.42397 0.8032 0.84015 0.0
C90 C 0.42482 0.83975 0.86809 0.0
C91 C 0.44628 0.85 0.85477 0.0
H92 H 0.41676 0.78421 0.83503 0.0
H93 H 0.41678 0.85024 0.88452 0.0
H94 H 0.42321 0.76153 0.87515 0.0
H95 H 0.42571 0.77144 0.9565 0.0
H96 H 0.34475 0.88529 0.82625 0.0
H97 H 0.45269 0.8019 0.8097 0.0
H98 H 0.45446 0.8685 0.86074 0.0
C99 C 0.9542 0.65495 0.67464 0.0
C100 C 0.96891 0.67314 0.68758 0.0
N101 N 0.98724 0.68211 0.6711 0.0
N102 N 0.96311 0.65246 0.65005 0.0
C103 C 0.98353 0.66904 0.64853 0.0
H104 H 0.93704 0.64534 0.68216 0.0
Co105 Co 0.9446 0.63419 0.62498 0.0
C106 C 0.9781 0.62808 0.57918 0.0
O107 O 0.95792 0.63416 0.56469 0.0
N108 N 0.9248 0.61487 0.60001 0.0
C109 C 0.89496 0.6008 0.57179 0.0
C110 C 0.90431 0.62201 0.58502 0.0
C111 C 0.92758 0.58908 0.59494 0.0
N112 N 0.90937 0.57991 0.57832 0.0
O113 O 0.95095 0.60255 0.64391 0.0
H114 H 0.89613 0.64122 0.58345 0.0
H115 H 0.94227 0.57698 0.60396 0.0
O116 O 0.97628 0.62813 0.6041 0.0
C117 C 0.9308 0.59431 0.65585 0.0
O118 O 0.90927 0.60808 0.6545 0.0
N119 N 0.93669 0.66614 0.60848 0.0
C120 C 0.91585 0.70961 0.58376 0.0
C121 C 0.94212 0.70312 0.5803 0.0
C122 C 0.95236 0.68146 0.59328 0.0
C123 C 0.91244 0.67465 0.61508 0.0
C124 C 0.90127 0.69587 0.6023 0.0
H125 H 0.97261 0.67678 0.59035 0.0
H126 H 0.9009 0.66347 0.62874 0.0
H127 H 0.99419 0.67297 0.63077 0.0
H128 H 0.96553 0.68023 0.70717 0.0
H129 H 0.87864 0.60087 0.55846 0.0
H130 H 0.95425 0.71387 0.56677 0.0
H131 H 0.88114 0.70089 0.60614 0.0
C132 C 0.58639 0.30896 0.58511 0.0
C133 C 0.56911 0.29515 0.56999 0.0
N134 N 0.57313 0.26962 0.57424 0.0
N135 N 0.60108 0.29224 0.59908 0.0
C136 C 0.59311 0.26843 0.59132 0.0
H137 H 0.58674 0.32989 0.58749 0.0
Co138 Co 0.62225 0.30338 0.62654 0.0
C139 C 0.61515 0.24677 0.65151 0.0
O140 O 0.59416 0.23589 0.64175 0.0
N141 N 0.64337 0.31498 0.65411 0.0
C142 C 0.65714 0.3227 0.6945 0.0
C143 C 0.63731 0.31273 0.67968 0.0
C144 C 0.66725 0.32615 0.65395 0.0
N145 N 0.67595 0.33104 0.67829 0.0
O146 O 0.65278 0.29381 0.60708 0.0
H147 H 0.61972 0.30389 0.68719 0.0
H148 H 0.67814 0.33071 0.63651 0.0
O149 O 0.62183 0.2697 0.64439 0.0
C150 C 0.65886 0.31213 0.5914 0.0
O151 O 0.64348 0.33256 0.5903 0.0
N152 N 0.59246 0.31467 0.64453 0.0
C153 C 0.55157 0.3353 0.67378 0.0
C154 C 0.55178 0.30887 0.66674 0.0
C155 C 0.57234 0.29897 0.6519 0.0
C156 C 0.59168 0.34071 0.64954 0.0
C157 C 0.57164 0.35139 0.66445 0.0
H158 H 0.572 0.27877 0.64639 0.0
H159 H 0.60732 0.35311 0.64275 0.0
H160 H 0.60085 0.25043 0.59873 0.0
H161 H 0.55304 0.30322 0.55896 0.0
H162 H 0.65803 0.32309 0.71559 0.0
H163 H 0.53624 0.2959 0.67269 0.0
H164 H 0.57241 0.37188 0.66933 0.0
C165 C 0.44129 0.83815 0.34043 0.0
C166 C 0.45131 0.81939 0.32429 0.0
N167 N 0.47742 0.81895 0.32711 0.0
N168 N 0.46078 0.84974 0.35357 0.0
C169 C 0.48268 0.83838 0.34423 0.0
H170 H 0.42084 0.84209 0.34361 0.0
Co171 Co 0.45277 0.87258 0.38097 0.0
C172 C 0.5082 0.85801 0.40399 0.0
O173 O 0.51394 0.8351 0.39424 0.0
N174 N 0.44412 0.89558 0.40807 0.0
C175 C 0.44005 0.9127 0.44768 0.0
C176 C 0.44959 0.89207 0.43362 0.0
C177 C 0.43131 0.91859 0.40713 0.0
N178 N 0.42863 0.92937 0.43096 0.0
O179 O 0.46461 0.90174 0.36031 0.0
H180 H 0.4598 0.87543 0.44157 0.0
H181 H 0.42373 0.92723 0.38948 0.0
O182 O 0.48677 0.86923 0.39806 0.0
C183 C 0.44613 0.90971 0.3457 0.0
O184 O 0.42429 0.89634 0.3457 0.0
N185 N 0.43911 0.84429 0.40044 0.0
C186 C 0.41608 0.80417 0.42909 0.0
C187 C 0.44072 0.80087 0.41793 0.0
C188 C 0.45191 0.8212 0.40368 0.0
C189 C 0.41439 0.84714 0.40986 0.0
C190 C 0.40276 0.82757 0.4248 0.0
H191 H 0.47053 0.81801 0.39473 0.0
H192 H 0.40367 0.86487 0.40604 0.0
H193 H 0.50199 0.84348 0.35052 0.0
H194 H 0.43991 0.80627 0.3124 0.0
H195 H 0.44182 0.91551 0.46853 0.0
H196 H 0.45139 0.78284 0.42049 0.0
H197 H 0.38342 0.83058 0.43269 0.0
C198 C 0.90227 0.70663 0.08062 0.0
C199 C 0.9196 0.72301 0.06858 0.0
N200 N 0.9287 0.73999 0.08641 0.0
N201 N 0.90009 0.71321 0.10595 0.0
C202 C 0.91625 0.73381 0.10887 0.0
H203 H 0.89276 0.6902 0.0716 0.0
Co204 Co 0.88148 0.69305 0.12973 0.0
C205 C 0.87663 0.7228 0.17813 0.0
O206 O 0.88177 0.7011 0.19068 0.0
N207 N 0.86176 0.67169 0.15294 0.0
C208 C 0.84563 0.63916 0.17684 0.0
C209 C 0.86724 0.64841 0.16408 0.0
C210 C 0.83657 0.67606 0.15963 0.0
N211 N 0.82623 0.65646 0.17381 0.0
O212 O 0.84996 0.70164 0.11194 0.0
H213 H 0.88536 0.63801 0.16283 0.0
H214 H 0.82563 0.69294 0.15332 0.0
O215 O 0.87647 0.72316 0.15315 0.0
C216 C 0.84266 0.68402 0.0961 0.0
O217 O 0.85699 0.66296 0.09358 0.0
N218 N 0.91335 0.68331 0.14539 0.0
C219 C 0.95742 0.66146 0.16801 0.0
C220 C 0.95108 0.68753 0.17272 0.0
C221 C 0.9291 0.69828 0.16084 0.0
C222 C 0.92156 0.65928 0.1377 0.0
C223 C 0.94304 0.64754 0.1495 0.0
H224 H 0.92466 0.7184 0.16473 0.0
H225 H 0.91018 0.64844 0.12365 0.0
H226 H 0.91988 0.7432 0.12737 0.0
H227 H 0.92558 0.72188 0.04838 0.0
H228 H 0.84424 0.62084 0.1872 0.0
H229 H 0.96228 0.69913 0.18634 0.0
H230 H 0.94792 0.62756 0.14478 0.0
C231 C 0.05373 0.15875 0.83085 0.0
C232 C 0.03948 0.17714 0.81764 0.0
N233 N 0.01944 0.18449 0.83289 0.0
N234 N 0.04283 0.15454 0.85437 0.0
C235 C 0.02172 0.17027 0.85496 0.0
H236 H 0.07174 0.15 0.82433 0.0
Co237 Co 0.05926 0.13491 0.87982 0.0
C238 C 0.02332 0.12933 0.92381 0.0
O239 O 0.04318 0.13386 0.93928 0.0
N240 N 0.07675 0.11417 0.90513 0.0
C241 C 0.1037 0.09708 0.93471 0.0
C242 C 0.09793 0.11886 0.92022 0.0
C243 C 0.07031 0.08919 0.91084 0.0
N244 N 0.08637 0.07857 0.92856 0.0
O245 O 0.05271 0.10393 0.85984 0.0
H246 H 0.109 0.13662 0.92089 0.0
H247 H 0.05408 0.07889 0.9022 0.0
O248 O 0.02619 0.12995 0.89899 0.0
C249 C 0.07333 0.09518 0.84913 0.0
O250 O 0.09509 0.10837 0.85189 0.0
N251 N 0.06751 0.16611 0.89762 0.0
C252 C 0.08728 0.2098 0.92348 0.0
C253 C 0.06062 0.20368 0.92465 0.0
C254 C 0.05105 0.18198 0.91126 0.0
C255 C 0.09252 0.17381 0.89336 0.0
C256 C 0.10307 0.195 0.90672 0.0
H257 H 0.03047 0.17801 0.91223 0.0
H258 H 0.10488 0.16228 0.88077 0.0
H259 H 0.00932 0.17264 0.87184 0.0
H260 H 0.04416 0.18534 0.79875 0.0
H261 H 0.11966 0.09478 0.94831 0.0
H262 H 0.04721 0.21538 0.93595 0.0
H263 H 0.12367 0.19888 0.90466 0.0
C264 C 0.41246 0.08385 0.19954 0.0
C265 C 0.42806 0.06596 0.21188 0.0
N266 N 0.42682 0.07019 0.23778 0.0
N267 N 0.40103 0.09931 0.21741 0.0
C268 C 0.41092 0.09111 0.24049 0.0
H269 H 0.40823 0.08442 0.17888 0.0
Co270 Co 0.37408 0.12235 0.20789 0.0
C271 C 0.3517 0.11261 0.26461 0.0
O272 O 0.36272 0.09126 0.27335 0.0
N273 N 0.3471 0.14523 0.19813 0.0
C274 C 0.30723 0.16154 0.1939 0.0
C275 C 0.3215 0.14038 0.20167 0.0
C276 C 0.34784 0.16967 0.18821 0.0
N277 N 0.32375 0.18018 0.18558 0.0
O278 O 0.39501 0.15155 0.21834 0.0
H279 H 0.31362 0.12264 0.20989 0.0
H280 H 0.36572 0.17981 0.18372 0.0
O281 O 0.35717 0.12114 0.24187 0.0
C282 C 0.41179 0.15708 0.20085 0.0
O283 O 0.41289 0.14231 0.17996 0.0
N284 N 0.35454 0.09381 0.19575 0.0
C285 C 0.32704 0.05232 0.17363 0.0
C286 C 0.33555 0.0513 0.19968 0.0
C287 C 0.3492 0.07226 0.21036 0.0
C288 C 0.34762 0.09469 0.17011 0.0
C289 C 0.3334 0.07448 0.15882 0.0
H290 H 0.35615 0.07074 0.23009 0.0
H291 H 0.35285 0.11143 0.15841 0.0
H292 H 0.4062 0.09986 0.25899 0.0
H293 H 0.4378 0.04975 0.20257 0.0
H294 H 0.28623 0.1629 0.19447 0.0
H295 H 0.33211 0.03432 0.21171 0.0
H296 H 0.32721 0.0765 0.13875 0.0
C297 C 0.65325 0.67513 0.95734 0.0
C298 C 0.67043 0.68913 0.97231 0.0
N299 N 0.67944 0.67346 0.99133 0.0
N300 N 0.65145 0.65071 0.9668 0.0
C301 C 0.66739 0.65034 0.98778 0.0
H302 H 0.64396 0.68182 0.93965 0.0
Co303 Co 0.63504 0.62446 0.94828 0.0
C304 C 0.62927 0.57909 0.98264 0.0
O305 O 0.63583 0.56452 0.96265 0.0
N306 N 0.61768 0.59841 0.92838 0.0
C307 C 0.60534 0.57023 0.89778 0.0
C308 C 0.62561 0.5849 0.90718 0.0
C309 C 0.59244 0.59122 0.93145 0.0
N310 N 0.58435 0.57443 0.9129 0.0
O311 O 0.60235 0.64203 0.95305 0.0
H312 H 0.64457 0.58577 0.8983 0.0
H313 H 0.57985 0.59907 0.94642 0.0
O314 O 0.6289 0.60396 0.98046 0.0
C315 C 0.59417 0.65314 0.93237 0.0
O316 O 0.60847 0.65174 0.91116 0.0
N317 N 0.66803 0.60922 0.94201 0.0
C318 C 0.71436 0.58675 0.9248 0.0
C319 C 0.7058 0.58305 0.95051 0.0
C320 C 0.68287 0.59497 0.95894 0.0
C321 C 0.67796 0.61592 0.91828 0.0
C322 C 0.70083 0.60445 0.90898 0.0
H323 H 0.67713 0.59222 0.97894 0.0
H324 H 0.66703 0.62888 0.90574 0.0
H325 H 0.67171 0.63301 0.99897 0.0
H326 H 0.67689 0.70886 0.96863 0.0
H327 H 0.60595 0.55785 0.88072 0.0
H328 H 0.71643 0.5706 0.96383 0.0
H329 H 0.70695 0.60832 0.88915 0.0
C330 C 0.08026 0.90624 0.7098 0.0
C331 C 0.06974 0.92354 0.72725 0.0
N332 N 0.08869 0.93132 0.74358 0.0
N333 N 0.10575 0.9028 0.7151 0.0
C334 C 0.11031 0.91828 0.73597 0.0
H335 H 0.07014 0.89768 0.69346 0.0
Co336 Co 0.12742 0.88329 0.69335 0.0
C337 C 0.17531 0.87017 0.72196 0.0
O338 O 0.18827 0.87398 0.70021 0.0
N339 N 0.14798 0.8628 0.67035 0.0
C340 C 0.1701 0.84612 0.63692 0.0
C341 C 0.15788 0.86795 0.64646 0.0
C342 C 0.15412 0.83744 0.67447 0.0
N343 N 0.1677 0.82684 0.65457 0.0
O344 O 0.10699 0.8529 0.70042 0.0
H345 H 0.15636 0.88611 0.63608 0.0
H346 H 0.14859 0.82694 0.6919 0.0
O347 O 0.15069 0.8743 0.72285 0.0
C348 C 0.09065 0.84683 0.68278 0.0
O349 O 0.08825 0.86207 0.66231 0.0
N350 N 0.14633 0.914 0.68538 0.0
C351 C 0.17346 0.95793 0.6678 0.0
C352 C 0.17724 0.94825 0.69313 0.0
C353 C 0.16347 0.9264 0.70156 0.0
C354 C 0.13988 0.92516 0.66215 0.0
C355 C 0.15373 0.94659 0.65257 0.0
H356 H 0.16687 0.9197 0.72116 0.0
H357 H 0.12475 0.91647 0.65033 0.0
H358 H 0.12916 0.92059 0.74501 0.0
H359 H 0.05006 0.93108 0.72687 0.0
H360 H 0.18022 0.84479 0.61847 0.0
H361 H 0.19097 0.95723 0.70638 0.0
H362 H 0.14956 0.95342 0.63305 0.0
C363 C 0.84075 0.33366 0.44614 0.0
C364 C 0.82313 0.32021 0.46116 0.0
N365 N 0.8214 0.33191 0.48463 0.0
N366 N 0.85037 0.35377 0.45995 0.0
C367 C 0.83842 0.35208 0.48344 0.0
H368 H 0.84492 0.33003 0.42581 0.0
Co369 Co 0.87103 0.37986 0.44502 0.0
C370 C 0.86955 0.42254 0.48342 0.0
O371 O 0.86042 0.43821 0.46543 0.0
N372 N 0.89265 0.40648 0.42944 0.0
C373 C 0.90784 0.44318 0.41134 0.0
C374 C 0.88595 0.42935 0.41794 0.0
C375 C 0.91912 0.40724 0.42929 0.0
N376 N 0.92872 0.42921 0.41847 0.0
O377 O 0.90156 0.36033 0.45388 0.0
H378 H 0.86643 0.43663 0.41534 0.0
H379 H 0.93146 0.39248 0.43771 0.0
O380 O 0.87381 0.39853 0.47839 0.0
C381 C 0.9078 0.34381 0.43645 0.0
O382 O 0.8931 0.3418 0.41559 0.0
N383 N 0.84018 0.3968 0.43451 0.0
C384 C 0.79662 0.42182 0.41356 0.0
C385 C 0.79873 0.41747 0.44058 0.0
C386 C 0.82053 0.40466 0.45064 0.0
C387 C 0.83669 0.39744 0.40818 0.0
C388 C 0.81561 0.41069 0.39727 0.0
H389 H 0.82191 0.40181 0.47146 0.0
H390 H 0.85138 0.38916 0.39554 0.0
H391 H 0.84106 0.36623 0.49881 0.0
H392 H 0.81108 0.30426 0.45449 0.0
H393 H 0.90832 0.46211 0.40205 0.0
H394 H 0.7839 0.4242 0.45398 0.0
H395 H 0.81502 0.41302 0.37631 0.0
C396 C 0.9249 0.4044 0.7948 0.0
C397 C 0.93569 0.42172 0.77743 0.0
N398 N 0.91673 0.43029 0.76148 0.0
N399 N 0.89925 0.40184 0.78976 0.0
C400 C 0.8949 0.41772 0.76917 0.0
H401 H 0.93493 0.39535 0.81094 0.0
Co402 Co 0.87617 0.38355 0.81104 0.0
C403 C 0.82838 0.37413 0.78087 0.0
O404 O 0.81489 0.37861 0.80215 0.0
N405 N 0.85365 0.36438 0.83336 0.0
C406 C 0.82907 0.35016 0.8662 0.0
C407 C 0.84223 0.37116 0.85612 0.0
C408 C 0.84705 0.33897 0.83025 0.0
N409 N 0.83223 0.32979 0.84999 0.0
O410 O 0.8949 0.3521 0.80418 0.0
H411 H 0.84343 0.38991 0.86541 0.0
H412 H 0.85356 0.32722 0.81401 0.0
O413 O 0.85322 0.37629 0.78104 0.0
C414 C 0.91092 0.34592 0.82209 0.0
O415 O 0.91334 0.36137 0.84237 0.0
N416 N 0.85933 0.41545 0.81906 0.0
C417 C 0.83597 0.46092 0.83752 0.0
C418 C 0.83003 0.45132 0.81266 0.0
C419 C 0.84231 0.42888 0.80357 0.0
C420 C 0.86762 0.42627 0.84187 0.0
C421 C 0.85584 0.44874 0.85179 0.0
H422 H 0.83788 0.4226 0.7841 0.0
H423 H 0.88249 0.41649 0.85318 0.0
H424 H 0.87599 0.42075 0.76048 0.0
H425 H 0.95556 0.42877 0.77765 0.0
H426 H 0.81816 0.34997 0.88425 0.0
H427 H 0.81574 0.4609 0.80043 0.0
H428 H 0.8614 0.45574 0.87091 0.0
C429 C 0.35097 0.1766 0.54566 0.0
C430 C 0.33165 0.18933 0.53222 0.0
N431 N 0.32165 0.17273 0.51458 0.0
N432 N 0.35317 0.15205 0.53662 0.0
C433 C 0.33497 0.15025 0.51762 0.0
H434 H 0.3617 0.18432 0.56205 0.0
Co435 Co 0.37306 0.12691 0.55349 0.0
C436 C 0.38025 0.10572 0.49826 0.0
O437 O 0.37976 0.1273 0.48449 0.0
N438 N 0.39341 0.10105 0.57113 0.0
C439 C 0.40565 0.06502 0.59231 0.0
C440 C 0.38495 0.07878 0.58257 0.0
C441 C 0.41971 0.09967 0.57378 0.0
N442 N 0.42754 0.07829 0.58696 0.0
O443 O 0.40395 0.1462 0.54502 0.0
H444 H 0.36506 0.07216 0.58359 0.0
H445 H 0.43316 0.11379 0.56602 0.0
O446 O 0.37747 0.10634 0.52289 0.0
C447 C 0.41297 0.16023 0.56339 0.0
O448 O 0.40126 0.15984 0.58617 0.0
N449 N 0.34228 0.10952 0.56263 0.0
C450 C 0.30027 0.08262 0.58365 0.0
C451 C 0.30846 0.07763 0.55812 0.0
C452 C 0.32944 0.09152 0.54777 0.0
C453 C 0.33356 0.11564 0.58698 0.0
C454 C 0.31256 0.10227 0.59799 0.0
H455 H 0.3357 0.087 0.52822 0.0
H456 H 0.34384 0.13009 0.59835 0.0
H457 H 0.33026 0.13237 0.50751 0.0
H458 H 0.32479 0.20894 0.53579 0.0
H459 H 0.40466 0.04633 0.60204 0.0
H460 H 0.29917 0.06262 0.54656 0.0
H461 H 0.30674 0.1064 0.61787 0.0
C462 C 0.58005 0.59995 0.30225 0.0
C463 C 0.56637 0.57974 0.29133 0.0
N464 N 0.58026 0.57033 0.27121 0.0
N465 N 0.60254 0.60358 0.28912 0.0
C466 C 0.60209 0.58506 0.27025 0.0
H467 H 0.57445 0.61022 0.3197 0.0
Co468 Co 0.62909 0.62584 0.30122 0.0
C469 C 0.64618 0.62756 0.24332 0.0
O470 O 0.62463 0.62331 0.2302 0.0
N471 N 0.65607 0.6479 0.3134 0.0
C472 C 0.69614 0.66339 0.31955 0.0
C473 C 0.68176 0.64224 0.31198 0.0
C474 C 0.65555 0.6729 0.32187 0.0
N475 N 0.67968 0.68285 0.32559 0.0
O476 O 0.60821 0.65579 0.29236 0.0
H477 H 0.68983 0.62421 0.30479 0.0
H478 H 0.63797 0.68414 0.32415 0.0
O479 O 0.64617 0.62783 0.26811 0.0
C480 C 0.59353 0.66347 0.31088 0.0
O481 O 0.59492 0.65143 0.33347 0.0
N482 N 0.64828 0.59659 0.31139 0.0
C483 C 0.67668 0.55571 0.3329 0.0
C484 C 0.67515 0.55878 0.30576 0.0
C485 C 0.66093 0.57955 0.29532 0.0
C486 C 0.64878 0.59328 0.33773 0.0
C487 C 0.66314 0.57314 0.34895 0.0
H488 H 0.66053 0.58209 0.27444 0.0
H489 H 0.63839 0.60681 0.3501 0.0
H490 H 0.61813 0.5811 0.25723 0.0
H491 H 0.54804 0.57195 0.29825 0.0
H492 H 0.71718 0.66435 0.3201 0.0
H493 H 0.68548 0.54571 0.29281 0.0
H494 H 0.66369 0.57123 0.36998 0.0
C495 C 0.1521 0.82921 0.04927 0.0
C496 C 0.16991 0.81785 0.03275 0.0
N497 N 0.17907 0.83634 0.01654 0.0
N498 N 0.1499 0.85472 0.0434 0.0
C499 C 0.16638 0.85841 0.02319 0.0
H500 H 0.14228 0.81974 0.06534 0.0
Co501 Co 0.13098 0.87862 0.06296 0.0
C502 C 0.12197 0.92454 0.03021 0.0
O503 O 0.1272 0.93927 0.05046 0.0
N504 N 0.11104 0.90238 0.08335 0.0
C505 C 0.09591 0.93125 0.11211 0.0
C506 C 0.11709 0.91659 0.10475 0.0
C507 C 0.08583 0.90861 0.0785 0.0
N508 N 0.07628 0.92608 0.09559 0.0
O509 O 0.09995 0.85907 0.0565 0.0
H510 H 0.13554 0.9167 0.11471 0.0
H511 H 0.07473 0.90089 0.06231 0.0
O512 O 0.12386 0.89974 0.03172 0.0
C513 C 0.09212 0.84622 0.07625 0.0
O514 O 0.10628 0.84672 0.0976 0.0
N515 N 0.1623 0.89614 0.0709 0.0
C516 C 0.20581 0.92092 0.09152 0.0
C517 C 0.19836 0.92547 0.06566 0.0
C518 C 0.1766 0.91261 0.05555 0.0
C519 C 0.17143 0.88906 0.09482 0.0
C520 C 0.19271 0.90179 0.10589 0.0
H521 H 0.17122 0.91645 0.03561 0.0
H522 H 0.16091 0.87469 0.10612 0.0
H523 H 0.16966 0.87705 0.01398 0.0
H524 H 0.17679 0.79794 0.03369 0.0
H525 H 0.09484 0.94428 0.12866 0.0
H526 H 0.2085 0.93967 0.05377 0.0
H527 H 0.19839 0.89732 0.12574 0.0
C528 C 0.19891 0.42261 0.09395 0.0
C529 C 0.20857 0.43813 0.07425 0.0
N530 N 0.23243 0.42937 0.06782 0.0
N531 N 0.21656 0.40411 0.09996 0.0
C532 C 0.23673 0.4088 0.08365 0.0
H533 H 0.17968 0.42394 0.10239 0.0
Co534 Co 0.21026 0.37592 0.12232 0.0
C535 C 0.26934 0.35589 0.11681 0.0
O536 O 0.28611 0.36981 0.10339 0.0
N537 N 0.20357 0.34747 0.1445 0.0
C538 C 0.20002 0.30677 0.15906 0.0
C539 C 0.20867 0.32225 0.13898 0.0
C540 C 0.19178 0.34673 0.1681 0.0
N541 N 0.18948 0.32227 0.17737 0.0
O542 O 0.21994 0.39694 0.15186 0.0
H543 H 0.218 0.31546 0.12134 0.0
H544 H 0.18417 0.36351 0.1781 0.0
O545 O 0.24587 0.36376 0.11905 0.0
C546 C 0.20053 0.40909 0.16143 0.0
O547 O 0.17764 0.40621 0.15034 0.0
N548 N 0.19886 0.35639 0.09377 0.0
C549 C 0.1752 0.32888 0.05312 0.0
C550 C 0.20197 0.33484 0.05239 0.0
C551 C 0.21349 0.34853 0.07301 0.0
C552 C 0.17287 0.35132 0.09462 0.0
C553 C 0.16075 0.33726 0.07482 0.0
H554 H 0.234 0.35305 0.07208 0.0
H555 H 0.16151 0.35802 0.11108 0.0
H556 H 0.25338 0.39628 0.08177 0.0
H557 H 0.19845 0.45406 0.06484 0.0
H558 H 0.20144 0.28576 0.16017 0.0
H559 H 0.21394 0.32933 0.03592 0.0
H560 H 0.14025 0.3328 0.07681 0.0
C561 C 0.68937 0.09509 0.91755 0.0
C562 C 0.69824 0.07966 0.93751 0.0
N563 N 0.72446 0.08058 0.93773 0.0
N564 N 0.70972 0.10602 0.9051 0.0
C565 C 0.73089 0.09587 0.91716 0.0
H566 H 0.6692 0.09969 0.91358 0.0
Co567 Co 0.70348 0.13358 0.88175 0.0
C568 C 0.76215 0.15219 0.89173 0.0
O569 O 0.77139 0.14003 0.91225 0.0
N570 N 0.69637 0.1612 0.85865 0.0
C571 C 0.69564 0.20105 0.84168 0.0
C572 C 0.70297 0.18631 0.86275 0.0
C573 C 0.68453 0.16133 0.83507 0.0
N574 N 0.68402 0.18533 0.82414 0.0
O575 O 0.71292 0.11168 0.85276 0.0
H576 H 0.71299 0.19345 0.87986 0.0
H577 H 0.67627 0.14424 0.8261 0.0
O578 O 0.7388 0.14787 0.8842 0.0
C579 C 0.69282 0.09918 0.84518 0.0
O580 O 0.67112 0.10202 0.85847 0.0
N581 N 0.69215 0.15404 0.90975 0.0
C582 C 0.67027 0.18331 0.94999 0.0
C583 C 0.69638 0.17522 0.9512 0.0
C584 C 0.70693 0.16042 0.93092 0.0
C585 C 0.66658 0.16098 0.90861 0.0
C586 C 0.65532 0.17585 0.92834 0.0
H587 H 0.72674 0.15372 0.93251 0.0
H588 H 0.65491 0.15507 0.89207 0.0
H589 H 0.7506 0.10027 0.91185 0.0
H590 H 0.68618 0.06986 0.95177 0.0
H591 H 0.6993 0.22165 0.83932 0.0
H592 H 0.70847 0.17993 0.96785 0.0
H593 H 0.63517 0.18173 0.9264 0.0
C594 C 0.6751 0.95837 0.6559 0.0
C595 C 0.68721 0.97377 0.67416 0.0
N596 N 0.67012 0.99185 0.68233 0.0
N597 N 0.65048 0.96676 0.65218 0.0
C598 C 0.64807 0.9873 0.6686 0.0
H599 H 0.68348 0.9413 0.64697 0.0
Co600 Co 0.62582 0.94904 0.63163 0.0
C601 C 0.6045 1.00227 0.61961 0.0
O602 O 0.62627 0.01245 0.61082 0.0
N603 N 0.60064 0.9312 0.61084 0.0
C604 C 0.56292 0.91402 0.59754 0.0
C605 C 0.5761 0.92476 0.61817 0.0
C606 C 0.60139 0.92465 0.58518 0.0
N607 N 0.57882 0.91407 0.57678 0.0
O608 O 0.64517 0.95822 0.60072 0.0
H609 H 0.56758 0.92846 0.63706 0.0
H610 H 0.61782 0.92791 0.57248 0.0
O611 O 0.60411 0.97899 0.62803 0.0
C612 C 0.66194 0.94104 0.59434 0.0
O613 O 0.66313 0.91951 0.60817 0.0
N614 N 0.60836 0.93892 0.66231 0.0
C615 C 0.58087 0.91885 0.70491 0.0
C616 C 0.58003 0.94554 0.69892 0.0
C617 C 0.59368 0.95515 0.67746 0.0
C618 C 0.61086 0.91329 0.66873 0.0
C619 C 0.597 0.90275 0.68973 0.0
H620 H 0.59183 0.97556 0.67291 0.0
H621 H 0.62276 0.90073 0.65671 0.0
H622 H 0.63032 0.99832 0.67106 0.0
H623 H 0.70657 0.97086 0.68199 0.0
H624 H 0.54281 0.90769 0.5975 0.0
H625 H 0.56858 0.95897 0.71046 0.0
H626 H 0.59822 0.88201 0.69333 0.0
C627 C 0.81161 0.9198 0.4145 0.0
C628 C 0.8023 0.93531 0.4343 0.0
N629 N 0.77643 0.93137 0.4365 0.0
N630 N 0.79182 0.90596 0.40425 0.0
C631 C 0.77058 0.91401 0.41758 0.0
H632 H 0.83185 0.91722 0.40927 0.0
Co633 Co 0.79737 0.87731 0.38235 0.0
C634 C 0.73871 0.85714 0.392 0.0
O635 O 0.72528 0.86876 0.41041 0.0
N636 N 0.80352 0.84854 0.36062 0.0
C637 C 0.80625 0.80765 0.34662 0.0
C638 C 0.79755 0.82354 0.3663 0.0
C639 C 0.81596 0.84727 0.3374 0.0
N640 N 0.81778 0.82265 0.32846 0.0
O641 O 0.7866 0.89758 0.35262 0.0
H642 H 0.78774 0.8172 0.38386 0.0
H643 H 0.82441 0.86378 0.32756 0.0
O644 O 0.7621 0.86434 0.38743 0.0
C645 C 0.8056 0.91008 0.34261 0.0
O646 O 0.82857 0.90837 0.35378 0.0
N647 N 0.80962 0.85832 0.41106 0.0
C648 C 0.8322 0.83027 0.452 0.0
C649 C 0.80637 0.83926 0.45367 0.0
C650 C 0.7954 0.85319 0.43295 0.0
C651 C 0.83497 0.8507 0.40943 0.0
C652 C 0.84649 0.8363 0.4294 0.0
H653 H 0.77564 0.86012 0.43469 0.0
H654 H 0.8462 0.85549 0.39222 0.0
H655 H 0.75152 0.906 0.41495 0.0
H656 H 0.81398 0.94734 0.44707 0.0
H657 H 0.80426 0.78668 0.34572 0.0
H658 H 0.7947 0.83586 0.47091 0.0
H659 H 0.86632 0.82963 0.42682 0.0
C660 C 0.83509 0.05826 0.16857 0.0
C661 C 0.8201 0.04461 0.18608 0.0
N662 N 0.82409 0.01906 0.18208 0.0
N663 N 0.84878 0.04149 0.15367 0.0
C664 C 0.84096 0.01769 0.16186 0.0
H665 H 0.83734 0.0792 0.16794 0.0
Co666 Co 0.87507 0.05379 0.13136 0.0
C667 C 0.90149 0.99823 0.13839 0.0
O668 O 0.89126 0.98803 0.15952 0.0
N669 N 0.9013 0.0668 0.10913 0.0
C670 C 0.9406 0.07742 0.09416 0.0
C671 C 0.92707 0.06681 0.11462 0.0
C672 C 0.89979 0.07721 0.08488 0.0
N673 N 0.92343 0.08385 0.07547 0.0
O674 O 0.85483 0.04358 0.10143 0.0
H675 H 0.93566 0.05908 0.13226 0.0
H676 H 0.88186 0.07999 0.07421 0.0
O677 O 0.89451 0.02088 0.13069 0.0
C678 C 0.83822 0.06129 0.09614 0.0
O679 O 0.83718 0.0817 0.11157 0.0
N680 N 0.89361 0.06574 0.16067 0.0
C681 C 0.92173 0.08771 0.20155 0.0
C682 C 0.91563 0.06112 0.20172 0.0
C683 C 0.90143 0.05048 0.18103 0.0
C684 C 0.89778 0.09196 0.16122 0.0
C685 C 0.91229 0.10328 0.18121 0.0
H686 H 0.8966 0.03013 0.18157 0.0
H687 H 0.89041 0.10405 0.14559 0.0
H688 H 0.84767 0.9996 0.1537 0.0
H689 H 0.80901 0.05281 0.20204 0.0
H690 H 0.96153 0.07953 0.09277 0.0
H691 H 0.92226 0.04858 0.21737 0.0
H692 H 0.91614 0.12403 0.18074 0.0
C693 C 0.29048 0.57689 0.60385 0.0
C694 C 0.27427 0.56561 0.5858 0.0
N695 N 0.26133 0.58469 0.57333 0.0
N696 N 0.28769 0.603 0.60309 0.0
C697 C 0.26965 0.60717 0.5843 0.0
H698 H 0.30429 0.56669 0.61605 0.0
Co699 Co 0.30898 0.62509 0.62259 0.0
C700 C 0.2802 0.67338 0.63418 0.0
O701 O 0.30201 0.68636 0.63098 0.0
N702 N 0.33154 0.64613 0.64312 0.0
C703 C 0.36523 0.66753 0.66014 0.0
C704 C 0.35585 0.65506 0.63837 0.0
C705 C 0.32695 0.65314 0.66819 0.0
N706 N 0.34703 0.66625 0.67899 0.0
O707 O 0.30055 0.60548 0.65352 0.0
H708 H 0.36671 0.65247 0.6206 0.0
H709 H 0.30918 0.64833 0.67843 0.0
O710 O 0.2794 0.64876 0.63006 0.0
C711 C 0.31881 0.59211 0.66368 0.0
O712 O 0.34181 0.59186 0.65247 0.0
N713 N 0.31819 0.64318 0.5916 0.0
C714 C 0.33877 0.66957 0.54872 0.0
C715 C 0.31355 0.67499 0.55748 0.0
C716 C 0.3035 0.66142 0.57884 0.0
C717 C 0.34141 0.63554 0.58125 0.0
C718 C 0.3525 0.64902 0.5603 0.0
H719 H 0.28398 0.66596 0.58495 0.0
H720 H 0.35211 0.61981 0.59034 0.0
H721 H 0.26312 0.62623 0.57826 0.0
H722 H 0.27321 0.54508 0.58115 0.0
H723 H 0.38402 0.67692 0.66179 0.0
H724 H 0.30207 0.69032 0.54859 0.0
H725 H 0.3718 0.6438 0.55357 0.0
C726 C 0.16643 0.55876 0.33424 0.0
C727 C 0.18217 0.54625 0.31649 0.0
N728 N 0.17945 0.52044 0.31995 0.0
N729 N 0.15359 0.54092 0.34867 0.0
C730 C 0.16258 0.51777 0.33999 0.0
H731 H 0.16295 0.57951 0.33519 0.0
Co732 Co 0.12603 0.54989 0.37089 0.0
C733 C 0.10413 0.49207 0.36323 0.0
O734 O 0.114 0.48198 0.34188 0.0
N735 N 0.09837 0.55916 0.39321 0.0
C736 C 0.05846 0.56015 0.4101 0.0
C737 C 0.073 0.55387 0.38856 0.0
C738 C 0.0986 0.56919 0.41763 0.0
N739 N 0.07462 0.56964 0.4284 0.0
O740 O 0.14693 0.54099 0.40055 0.0
H741 H 0.06561 0.54487 0.37098 0.0
H742 H 0.11598 0.57497 0.42794 0.0
O743 O 0.11022 0.51525 0.36999 0.0
C744 C 0.16054 0.56089 0.40655 0.0
O745 O 0.15887 0.5816 0.39155 0.0
N746 N 0.10665 0.56066 0.34189 0.0
C747 C 0.0792 0.58121 0.2996 0.0
C748 C 0.08808 0.55531 0.29933 0.0
C749 C 0.10176 0.54541 0.32069 0.0
C750 C 0.09924 0.58612 0.34209 0.0
C751 C 0.08506 0.59665 0.32144 0.0
H752 H 0.10899 0.52575 0.31984 0.0
H753 H 0.10408 0.59828 0.35862 0.0
H754 H 0.15627 0.4992 0.34733 0.0
H755 H 0.19273 0.55533 0.30062 0.0
H756 H 0.03767 0.55743 0.41235 0.0
H757 H 0.0849 0.54283 0.28263 0.0
H758 H 0.07852 0.61663 0.32287 0.0
C759 C 0.34557 0.44461 0.83628 0.0
C760 C 0.33045 0.45783 0.81854 0.0
N761 N 0.3325 0.48345 0.82353 0.0
N762 N 0.35743 0.4618 0.85224 0.0
C763 C 0.3483 0.48525 0.84452 0.0
H764 H 0.34921 0.42386 0.8364 0.0
Co765 Co 0.38357 0.45179 0.87575 0.0
C766 C 0.40752 0.50776 0.86543 0.0
O767 O 0.39678 0.51631 0.84385 0.0
N768 N 0.40969 0.4415 0.89911 0.0
C769 C 0.44899 0.43763 0.91664 0.0
C770 C 0.43534 0.44553 0.89514 0.0
C771 C 0.40827 0.43085 0.92321 0.0
N772 N 0.43205 0.42833 0.93447 0.0
O773 O 0.36258 0.4634 0.90445 0.0
H774 H 0.44362 0.45447 0.87793 0.0
H775 H 0.39011 0.42543 0.93237 0.0
O776 O 0.40155 0.48533 0.87442 0.0
C777 C 0.34395 0.44778 0.9095 0.0
O778 O 0.341 0.42709 0.89472 0.0
N779 N 0.40321 0.43864 0.84777 0.0
C780 C 0.43164 0.41496 0.80797 0.0
C781 C 0.42504 0.44143 0.80649 0.0
C782 C 0.41066 0.45288 0.82656 0.0
C783 C 0.40842 0.41264 0.84897 0.0
C784 C 0.4229 0.40047 0.82945 0.0
H785 H 0.40519 0.473 0.82477 0.0
H786 H 0.40147 0.40132 0.86536 0.0
H787 H 0.35358 0.50347 0.85352 0.0
H788 H 0.32072 0.44947 0.80179 0.0
H789 H 0.4698 0.43961 0.91906 0.0
H790 H 0.4312 0.45329 0.79013 0.0
H791 H 0.42699 0.37983 0.83105 0.0
H792 H 0.27755 0.19717 0.52902 0.0
H793 H 0.31442 0.15774 0.46462 0.0
H794 H 0.23814 0.20323 0.50283 0.0
H795 H 0.27503 0.16439 0.43804 0.0
H796 H 0.20445 0.20943 0.3963 0.0
H797 H 0.2454 0.20819 0.42129 0.0
H798 H 0.20696 0.16463 0.48214 0.0
H799 H 0.16655 0.16511 0.45702 0.0
C800 C 0.27731 0.19017 0.50911 0.0
C801 C 0.29894 0.17701 0.49875 0.0
C802 C 0.25482 0.1936 0.4942 0.0
C803 C 0.25375 0.18444 0.46845 0.0
C804 C 0.27557 0.17183 0.4578 0.0
C805 C 0.29791 0.16786 0.47297 0.0
C806 C 0.20479 0.19984 0.41512 0.0
C807 C 0.18244 0.18733 0.42478 0.0
C808 C 0.22816 0.19899 0.42927 0.0
C809 C 0.22918 0.18627 0.45353 0.0
C810 C 0.20659 0.1746 0.4635 0.0
C811 C 0.18354 0.17485 0.44913 0.0
H812 H 0.57433 0.4125 0.21818 0.0
H813 H 0.5347 0.45299 0.156 0.0
H814 H 0.57799 0.45308 0.24258 0.0
H815 H 0.53879 0.49406 0.18042 0.0
H816 H 0.58967 0.56196 0.21989 0.0
H817 H 0.57975 0.52227 0.19493 0.0
H818 H 0.54803 0.48681 0.26435 0.0
H819 H 0.55771 0.52628 0.28903 0.0
C820 C 0.566 0.43006 0.20995 0.0
C821 C 0.55403 0.42959 0.18533 0.0
C822 C 0.56812 0.45329 0.22391 0.0
C823 C 0.55878 0.47674 0.21335 0.0
C824 C 0.54627 0.47625 0.18893 0.0
C825 C 0.54365 0.45278 0.17513 0.0
C826 C 0.58051 0.54566 0.22968 0.0
C827 C 0.5744 0.54721 0.25635 0.0
C828 C 0.57461 0.52311 0.2154 0.0
C829 C 0.563 0.50152 0.2277 0.0
C830 C 0.55693 0.50314 0.25436 0.0
C831 C 0.56238 0.52577 0.26845 0.0
H832 H 0.31184 0.863 0.91608 0.0
H833 H 0.31835 0.78196 0.93729 0.0
H834 H 0.2701 0.86568 0.93807 0.0
H835 H 0.27698 0.78485 0.96098 0.0
H836 H 0.19263 0.79426 0.98774 0.0
H837 H 0.23123 0.78958 0.96017 0.0
H838 H 0.25447 0.86802 0.98028 0.0
H839 H 0.21565 0.87278 0.00672 0.0
C840 C 0.30436 0.84578 0.92577 0.0
C841 C 0.31844 0.82239 0.92542 0.0
C842 C 0.28046 0.84733 0.93853 0.0
C843 C 0.27027 0.82567 0.9519 0.0
C844 C 0.28406 0.80192 0.95081 0.0
C845 C 0.30783 0.80024 0.93742 0.0
C846 C 0.20597 0.8105 0.98598 0.0
C847 C 0.20099 0.83397 0.99916 0.0
C848 C 0.22818 0.8078 0.97033 0.0
C849 C 0.24606 0.82843 0.96779 0.0
C850 C 0.24091 0.85189 0.98107 0.0
C851 C 0.21861 0.85467 0.99634 0.0
H852 H 0.88008 0.46669 0.75166 0.0
H853 H 0.95808 0.44307 0.73138 0.0
H854 H 0.88459 0.50524 0.72463 0.0
H855 H 0.96251 0.48136 0.70335 0.0
H856 H 0.97064 0.56829 0.68027 0.0
H857 H 0.96759 0.52715 0.70432 0.0
H858 H 0.8866 0.52058 0.68206 0.0
H859 H 0.88946 0.56204 0.65953 0.0
C860 C 0.89799 0.46944 0.74087 0.0
C861 C 0.91867 0.45178 0.74351 0.0
C862 C 0.90064 0.49159 0.72529 0.0
C863 C 0.92392 0.49651 0.71159 0.0
C864 C 0.94445 0.4785 0.71387 0.0
C865 C 0.94189 0.45647 0.72977 0.0
C866 C 0.95229 0.55788 0.68056 0.0
C867 C 0.93018 0.56851 0.66851 0.0
C868 C 0.95051 0.53425 0.69418 0.0
C869 C 0.92669 0.52062 0.69555 0.0
C870 C 0.90503 0.53082 0.68224 0.0
C871 C 0.90669 0.55457 0.66917 0.0
H872 H 0.80218 0.36578 0.52072 0.0
H873 H 0.79547 0.28649 0.4933 0.0
H874 H 0.76507 0.35896 0.5493 0.0
H875 H 0.75751 0.2801 0.52117 0.0
H876 H 0.69726 0.27437 0.58876 0.0
H877 H 0.73937 0.2776 0.56617 0.0
H878 H 0.71901 0.35478 0.53957 0.0
H879 H 0.67765 0.35171 0.56188 0.0
C880 C 0.79314 0.34676 0.52098 0.0
C881 C 0.80174 0.32684 0.50425 0.0
C882 C 0.77158 0.34293 0.53722 0.0
C883 C 0.75797 0.31913 0.53716 0.0
C884 C 0.7675 0.29867 0.5217 0.0
C885 C 0.78913 0.30248 0.50547 0.0
C886 C 0.70185 0.29195 0.57802 0.0
C887 C 0.68404 0.31274 0.57715 0.0
C888 C 0.72594 0.29382 0.5651 0.0
C889 C 0.73273 0.31662 0.55135 0.0
C890 C 0.71475 0.33718 0.55043 0.0
C891 C 0.69081 0.33526 0.56307 0.0
H892 H 0.40446 0.06173 0.28514 0.0
H893 H 0.46765 0.03655 0.23568 0.0
H894 H 0.41267 0.02524 0.31431 0.0
H895 H 0.47552 0.9996 0.26474 0.0
H896 H 0.48857 0.94079 0.33329 0.0
H897 H 0.48774 0.98306 0.31046 0.0
H898 H 0.40396 0.97844 0.30553 0.0
H899 H 0.40472 0.93688 0.32774 0.0
C900 C 0.4205 0.04884 0.28074 0.0
C901 C 0.43508 0.05196 0.25772 0.0
C902 C 0.42508 0.02773 0.2974 0.0
C903 C 0.44446 0.00924 0.29161 0.0
C904 C 0.46044 0.01346 0.26977 0.0
C905 C 0.45576 0.03454 0.25299 0.0
C906 C 0.47005 0.94892 0.32732 0.0
C907 C 0.44677 0.93533 0.33218 0.0
C908 C 0.46956 0.97307 0.31427 0.0
C909 C 0.44574 0.98425 0.30641 0.0
C910 C 0.4226 0.97069 0.31167 0.0
C911 C 0.42311 0.94661 0.32421 0.0
H912 H 0.83362 0.66523 0.04782 0.0
H913 H 0.79698 0.70739 0.11074 0.0
H914 H 0.79275 0.66574 0.02348 0.0
H915 H 0.75558 0.70718 0.08647 0.0
H916 H 0.68622 0.65766 0.04122 0.0
H917 H 0.72544 0.66387 0.06814 0.0
H918 H 0.76187 0.70583 0.005 0.0
H919 H 0.72281 0.70008 0.97845 0.0
C920 C 0.81681 0.6747 0.05636 0.0
C921 C 0.81837 0.68633 0.08106 0.0
C922 C 0.79351 0.67501 0.04244 0.0
C923 C 0.77117 0.68643 0.05321 0.0
C924 C 0.77264 0.69822 0.07789 0.0
C925 C 0.79624 0.69849 0.09161 0.0
C926 C 0.70252 0.6685 0.03336 0.0
C927 C 0.70149 0.67851 0.00788 0.0
C928 C 0.72477 0.67218 0.04873 0.0
C929 C 0.74646 0.68542 0.03856 0.0
C930 C 0.74527 0.69571 0.01325 0.0
C931 C 0.72292 0.6925 0.99815 0.0
H932 H 0.12599 0.96654 0.75549 0.0
H933 H 0.04677 0.94447 0.77269 0.0
H934 H 0.12122 0.00507 0.78256 0.0
H935 H 0.04203 0.98271 0.80057 0.0
H936 H 0.03429 0.06984 0.82268 0.0
H937 H 0.03781 0.02863 0.79887 0.0
H938 H 0.11748 0.0207 0.82505 0.0
H939 H 0.11422 0.06218 0.84743 0.0
C940 C 0.10774 0.9696 0.76561 0.0
C941 C 0.08679 0.95244 0.762 0.0
C942 C 0.10493 0.99175 0.78118 0.0
C943 C 0.08118 0.99715 0.79387 0.0
C944 C 0.06044 0.97952 0.7908 0.0
C945 C 0.06319 0.9575 0.77496 0.0
C946 C 0.05245 0.05913 0.82331 0.0
C947 C 0.07411 0.06938 0.83645 0.0
C948 C 0.05449 0.03545 0.80982 0.0
C949 C 0.0781 0.02139 0.80965 0.0
C950 C 0.09926 0.03125 0.82396 0.0
C951 C 0.09736 0.05502 0.83695 0.0
H952 H 0.40455 0.20219 0.22924 0.0
H953 H 0.45685 0.16499 0.17486 0.0
H954 H 0.43155 0.24184 0.22769 0.0
H955 H 0.48341 0.20404 0.17331 0.0
H956 H 0.54038 0.26518 0.1947 0.0
H957 H 0.51239 0.22842 0.20335 0.0
H958 H 0.44464 0.27705 0.19334 0.0
H959 H 0.47292 0.31471 0.18528 0.0
C960 C 0.42194 0.20236 0.21728 0.0
C961 C 0.42868 0.18043 0.2023 0.0
C962 C 0.43721 0.22508 0.21619 0.0
C963 C 0.45967 0.22602 0.20046 0.0
C964 C 0.46645 0.20389 0.18588 0.0
C965 C 0.45114 0.18149 0.18671 0.0
C966 C 0.51961 0.26853 0.1949 0.0
C967 C 0.5091 0.29322 0.18917 0.0
C968 C 0.50349 0.24719 0.19964 0.0
C969 C 0.4763 0.24972 0.19878 0.0
C970 C 0.46556 0.27451 0.19421 0.0
C971 C 0.48179 0.29604 0.18936 0.0
H972 H 0.56648 0.67586 0.97216 0.0
H973 H 0.56385 0.65928 0.8897 0.0
H974 H 0.5257 0.70031 0.96841 0.0
H975 H 0.5228 0.68238 0.88605 0.0
H976 H 0.46884 0.75213 0.881 0.0
H977 H 0.50746 0.7252 0.88575 0.0
H978 H 0.48007 0.69901 0.96109 0.0
H979 H 0.44171 0.7267 0.95647 0.0
C980 C 0.55696 0.67713 0.95334 0.0
C981 C 0.56849 0.66604 0.93116 0.0
C982 C 0.53353 0.69102 0.95116 0.0
C983 C 0.52102 0.69368 0.92681 0.0
C984 C 0.53216 0.68148 0.90495 0.0
C985 C 0.55567 0.66807 0.90707 0.0
C986 C 0.47087 0.74032 0.89837 0.0
C987 C 0.45218 0.74149 0.91831 0.0
C988 C 0.49306 0.72481 0.90116 0.0
C989 C 0.49699 0.70977 0.92382 0.0
C990 C 0.47799 0.7106 0.94356 0.0
C991 C 0.45591 0.72635 0.94087 0.0
H992 H 0.10475 0.80064 0.70554 0.0
H993 H 0.04303 0.83782 0.6621 0.0
H994 H 0.08075 0.75918 0.70389 0.0
H995 H 0.01892 0.79679 0.66115 0.0
H996 H 0.97347 0.72631 0.6957 0.0
H997 H 0.99952 0.76581 0.70066 0.0
H998 H 0.06339 0.72894 0.66042 0.0
H999 H 0.03693 0.68926 0.65496 0.0
C1000 C 0.08593 0.80001 0.69601 0.0
C1001 C 0.07564 0.82238 0.68401 0.0
C1002 C 0.07238 0.77634 0.6949 0.0
C1003 C 0.0481 0.77495 0.68236 0.0
C1004 C 0.0376 0.79746 0.67096 0.0
C1005 C 0.05137 0.82087 0.67151 0.0
C1006 C 0.99318 0.72649 0.68823 0.0
C1007 C 0.00329 0.70474 0.67505 0.0
C1008 C 0.008 0.74909 0.69097 0.0
C1009 C 0.0334 0.75025 0.68104 0.0
C1010 C 0.04387 0.72833 0.66842 0.0
C1011 C 0.02878 0.70581 0.66517 0.0
H1012 H 0.06527 0.28947 0.40848 0.0
H1013 H 0.02635 0.22433 0.4447 0.0
H1014 H 0.02596 0.31629 0.41503 0.0
H1015 H 0.98741 0.25074 0.45088 0.0
H1016 H 0.91633 0.29646 0.41524 0.0
H1017 H 0.95705 0.27207 0.41357 0.0
H1018 H 0.99528 0.3323 0.45798 0.0
H1019 H 0.95402 0.35657 0.46044 0.0
C1020 C 0.04841 0.28101 0.41792 0.0
C1021 C 0.04889 0.25493 0.42623 0.0
C1022 C 0.0261 0.29631 0.42184 0.0
C1023 C 0.00381 0.28551 0.43357 0.0
C1024 C 0.00439 0.25951 0.4419 0.0
C1025 C 0.02671 0.24446 0.43844 0.0
C1026 C 0.93333 0.3044 0.42491 0.0
C1027 C 0.93202 0.32839 0.43796 0.0
C1028 C 0.9566 0.29046 0.42391 0.0
C1029 C 0.97924 0.30045 0.43547 0.0
C1030 C 0.97805 0.32435 0.44876 0.0
C1031 C 0.95447 0.33807 0.45033 0.0
H1032 H 0.96866 0.1889 0.84652 0.0
H1033 H 0.0323 0.23 0.81006 0.0
H1034 H 0.94085 0.22762 0.84116 0.0
H1035 H 0.00484 0.26848 0.80511 0.0
H1036 H 0.95814 0.33747 0.84378 0.0
H1037 H 0.98334 0.29719 0.84418 0.0
H1038 H 0.92349 0.25899 0.79922 0.0
H1039 H 0.8983 0.2998 0.79821 0.0
C1040 C 0.97657 0.20611 0.83723 0.0
C1041 C 0.00255 0.20645 0.8286 0.0
C1042 C 0.96069 0.22809 0.83401 0.0
C1043 C 0.97079 0.25087 0.82266 0.0
C1044 C 0.99663 0.25109 0.81383 0.0
C1045 C 0.01227 0.22905 0.81656 0.0
C1046 C 0.95041 0.32055 0.83382 0.0
C1047 C 0.92636 0.32174 0.82087 0.0
C1048 C 0.96484 0.29756 0.83403 0.0
C1049 C 0.95527 0.2751 0.82178 0.0
C1050 C 0.93116 0.27612 0.80886 0.0
C1051 C 0.91692 0.29942 0.80813 0.0
H1052 H 0.43007 0.19514 0.52689 0.0
H1053 H 0.45384 0.15245 0.59522 0.0
H1054 H 0.47115 0.21931 0.52758 0.0
H1055 H 0.49562 0.17455 0.59489 0.0
H1056 H 0.54929 0.24215 0.61155 0.0
H1057 H 0.5121 0.21362 0.60663 0.0
H1058 H 0.51567 0.22369 0.52283 0.0
H1059 H 0.55218 0.254 0.52851 0.0
C1060 C 0.44444 0.19058 0.54166 0.0
C1061 C 0.43881 0.17239 0.56126 0.0
C1062 C 0.4681 0.20424 0.54203 0.0
C1063 C 0.48679 0.19941 0.56165 0.0
C1064 C 0.48153 0.17972 0.58008 0.0
C1065 C 0.45766 0.16679 0.58017 0.0
C1066 C 0.54245 0.23771 0.59208 0.0
C1067 C 0.55378 0.2498 0.57037 0.0
C1068 C 0.52107 0.22125 0.58912 0.0
C1069 C 0.51072 0.21589 0.56423 0.0
C1070 C 0.52271 0.2275 0.54235 0.0
C1071 C 0.54381 0.24458 0.54546 0.0
H1072 H 0.6003 0.70742 0.28071 0.0
H1073 H 0.54835 0.67155 0.33633 0.0
H1074 H 0.57288 0.74686 0.28079 0.0
H1075 H 0.52111 0.71029 0.33615 0.0
H1076 H 0.46384 0.77012 0.3115 0.0
H1077 H 0.49236 0.7337 0.30318 0.0
H1078 H 0.5594 0.78252 0.31639 0.0
H1079 H 0.53066 0.81982 0.32433 0.0
C1080 C 0.58286 0.70783 0.29258 0.0
C1081 C 0.57635 0.68644 0.30844 0.0
C1082 C 0.56735 0.7304 0.29281 0.0
C1083 C 0.54483 0.73158 0.30841 0.0
C1084 C 0.53819 0.70989 0.32374 0.0
C1085 C 0.55383 0.68772 0.32389 0.0
C1086 C 0.48457 0.77364 0.31205 0.0
C1087 C 0.49474 0.79822 0.31882 0.0
C1088 C 0.50097 0.75249 0.30745 0.0
C1089 C 0.52808 0.75518 0.30937 0.0
C1090 C 0.53853 0.77992 0.3147 0.0
C1091 C 0.52202 0.80122 0.31948 0.0
H1092 H 0.96661 0.73831 0.04939 0.0
H1093 H 0.93965 0.78273 0.1157 0.0
H1094 H 0.00415 0.76668 0.04547 0.0
H1095 H 0.97766 0.81106 0.11184 0.0
H1096 H 0.06613 0.82741 0.11835 0.0
H1097 H 0.02474 0.80454 0.11931 0.0
H1098 H 0.01861 0.8119 0.03561 0.0
H1099 H 0.06044 0.8349 0.03459 0.0
C1100 C 0.96832 0.7544 0.06287 0.0
C1101 C 0.94998 0.75809 0.08298 0.0
C1102 C 0.98995 0.77071 0.06057 0.0
C1103 C 0.99392 0.79105 0.07838 0.0
C1104 C 0.97528 0.7953 0.09802 0.0
C1105 C 0.95353 0.77902 0.10028 0.0
C1106 C 0.05601 0.82422 0.1001 0.0
C1107 C 0.06668 0.83275 0.07635 0.0
C1108 C 0.03211 0.81134 0.10071 0.0
C1109 C 0.01836 0.80649 0.07757 0.0
C1110 C 0.02887 0.81525 0.05376 0.0
C1111 C 0.05275 0.82842 0.05317 0.0
H1112 H 0.14439 0.49149 0.29465 0.0
H1113 H 0.22645 0.50745 0.30007 0.0
H1114 H 0.15192 0.46317 0.25765 0.0
H1115 H 0.23483 0.47733 0.26386 0.0
H1116 H 0.23527 0.44592 0.17879 0.0
H1117 H 0.23205 0.47128 0.21914 0.0
H1118 H 0.16609 0.42433 0.24281 0.0
H1119 H 0.16809 0.40113 0.20184 0.0
C1120 C 0.16422 0.48808 0.28834 0.0
C1121 C 0.18489 0.50118 0.30038 0.0
C1122 C 0.1687 0.47171 0.26712 0.0
C1123 C 0.19414 0.46741 0.25767 0.0
C1124 C 0.21495 0.48024 0.27022 0.0
C1125 C 0.2103 0.49724 0.29115 0.0
C1126 C 0.22029 0.44108 0.19286 0.0
C1127 C 0.20177 0.42184 0.18716 0.0
C1128 C 0.21844 0.45549 0.21609 0.0
C1129 C 0.19838 0.45041 0.23428 0.0
C1130 C 0.18114 0.42974 0.22907 0.0
C1131 C 0.18249 0.41607 0.20565 0.0
H1132 H 0.7306 0.06976 0.82071 0.0
H1133 H 0.65221 0.09862 0.81195 0.0
H1134 H 0.72565 0.04462 0.78031 0.0
H1135 H 0.64766 0.07514 0.77128 0.0
H1136 H 0.63403 0.00679 0.7177 0.0
H1137 H 0.64094 0.0334 0.75624 0.0
H1138 H 0.72167 0.04382 0.73457 0.0
H1139 H 0.71472 0.01617 0.69645 0.0
C1140 C 0.71251 0.07102 0.80991 0.0
C1141 C 0.69166 0.08575 0.81966 0.0
C1142 C 0.70963 0.05674 0.78669 0.0
C1143 C 0.68601 0.05737 0.77255 0.0
C1144 C 0.66579 0.07328 0.78189 0.0
C1145 C 0.66847 0.08697 0.80521 0.0
C1146 C 0.65314 0.01507 0.72098 0.0
C1147 C 0.67377 0.00949 0.70394 0.0
C1148 C 0.65719 0.03043 0.74313 0.0
C1149 C 0.68192 0.04106 0.74868 0.0
C1150 C 0.70248 0.03575 0.73132 0.0
C1151 C 0.69847 0.02004 0.70933 0.0
H1152 H 0.65543 0.97284 0.55138 0.0
H1153 H 0.70662 0.91496 0.58466 0.0
H1154 H 0.68301 0.97441 0.51211 0.0
H1155 H 0.73384 0.91659 0.54598 0.0
H1156 H 0.7915 0.9419 0.48611 0.0
H1157 H 0.7636 0.94832 0.52383 0.0
H1158 H 0.6956 0.94251 0.47477 0.0
H1159 H 0.72368 0.9365 0.43659 0.0
C1160 C 0.67266 0.96071 0.55043 0.0
C1161 C 0.67889 0.94381 0.57111 0.0
C1162 C 0.68831 0.96147 0.52794 0.0
C1163 C 0.71068 0.94573 0.52604 0.0
C1164 C 0.71698 0.92923 0.54696 0.0
C1165 C 0.70125 0.92819 0.5691 0.0
C1166 C 0.77067 0.94264 0.48309 0.0
C1167 C 0.75991 0.93858 0.45819 0.0
C1168 C 0.75464 0.94607 0.50484 0.0
C1169 C 0.7274 0.9457 0.50232 0.0
C1170 C 0.71653 0.943 0.47731 0.0
C1171 C 0.73262 0.93935 0.45548 0.0
H1172 H 0.85908 0.98752 0.20462 0.0
H1173 H 0.77762 0.00702 0.2036 0.0
H1174 H 0.85224 0.95938 0.24194 0.0
H1175 H 0.76981 0.97714 0.24003 0.0
H1176 H 0.77142 0.94734 0.32522 0.0
H1177 H 0.77404 0.97153 0.28416 0.0
H1178 H 0.83788 0.92214 0.2597 0.0
H1179 H 0.83663 0.9002 0.30144 0.0
C1180 C 0.83944 0.98485 0.21186 0.0
C1181 C 0.81881 0.99906 0.20104 0.0
C1182 C 0.83536 0.96862 0.23335 0.0
C1183 C 0.81032 0.96556 0.24431 0.0
C1184 C 0.78946 0.97916 0.23267 0.0
C1185 C 0.79376 0.99601 0.21154 0.0
C1186 C 0.78579 0.94169 0.31082 0.0
C1187 C 0.8039 0.92208 0.31649 0.0
C1188 C 0.78729 0.95543 0.28715 0.0
C1189 C 0.80655 0.94931 0.2684 0.0
C1190 C 0.82342 0.92834 0.27373 0.0
C1191 C 0.82247 0.91536 0.29761 0.0
H1192 H 0.80063 0.09585 0.08304 0.0
H1193 H 0.83939 0.02682 0.05452 0.0
H1194 H 0.77455 0.09768 0.04377 0.0
H1195 H 0.81262 0.02867 0.01464 0.0
H1196 H 0.77615 0.0681 0.93636 0.0
H1197 H 0.80477 0.06048 0.97413 0.0
H1198 H 0.73895 0.06942 0.02564 0.0
H1199 H 0.71082 0.07731 0.98862 0.0
C1200 C 0.80353 0.08089 0.06845 0.0
C1201 C 0.822 0.06101 0.07213 0.0
C1202 C 0.78846 0.08195 0.04588 0.0
C1203 C 0.79133 0.0632 0.02619 0.0
C1204 C 0.81003 0.04342 0.0295 0.0
C1205 C 0.82517 0.04224 0.05238 0.0
C1206 C 0.76783 0.06814 0.95575 0.0
C1207 C 0.7411 0.07323 0.95932 0.0
C1208 C 0.78416 0.06361 0.97733 0.0
C1209 C 0.77411 0.06449 1.00285 0.0
C1210 C 0.74733 0.06876 0.00625 0.0
C1211 C 0.7311 0.07302 0.98488 0.0
H1212 H 0.36716 0.51668 0.80312 0.0
H1213 H 0.28653 0.49418 0.80032 0.0
H1214 H 0.36082 0.54575 0.7665 0.0
H1215 H 0.27925 0.52458 0.76413 0.0
H1216 H 0.28636 0.55277 0.67842 0.0
H1217 H 0.28708 0.52921 0.71989 0.0
H1218 H 0.34474 0.58335 0.74917 0.0
H1219 H 0.34517 0.6053 0.70706 0.0
C1220 C 0.34776 0.5189 0.79528 0.0
C1221 C 0.32723 0.50366 0.80484 0.0
C1222 C 0.344 0.5356 0.77414 0.0
C1223 C 0.3194 0.53784 0.76215 0.0
C1224 C 0.29856 0.52319 0.77246 0.0
C1225 C 0.30255 0.50602 0.79338 0.0
C1226 C 0.2989 0.55962 0.69397 0.0
C1227 C 0.31591 0.58051 0.68969 0.0
C1228 C 0.29926 0.54628 0.71783 0.0
C1229 C 0.31631 0.55398 0.73801 0.0
C1230 C 0.33199 0.57616 0.73399 0.0
C1231 C 0.33209 0.58898 0.70997 0.0
H1232 H 0.16982 0.60513 0.43333 0.0
H1233 H 0.18141 0.52196 0.43722 0.0
H1234 H 0.19221 0.61052 0.47443 0.0
H1235 H 0.20541 0.52741 0.47824 0.0
H1236 H 0.22859 0.54476 0.56288 0.0
H1237 H 0.20319 0.53804 0.52316 0.0
H1238 H 0.23382 0.61005 0.49185 0.0
H1239 H 0.25822 0.61702 0.53185 0.0
C1240 C 0.17754 0.58794 0.44286 0.0
C1241 C 0.17417 0.56312 0.43186 0.0
C1242 C 0.19056 0.59107 0.46646 0.0
C1243 C 0.20114 0.56951 0.47961 0.0
C1244 C 0.19739 0.54449 0.46882 0.0
C1245 C 0.18381 0.54132 0.44525 0.0
C1246 C 0.22966 0.55918 0.5475 0.0
C1247 C 0.24518 0.58154 0.55056 0.0
C1248 C 0.21527 0.55526 0.52464 0.0
C1249 C 0.21631 0.57348 0.50416 0.0
C1250 C 0.23194 0.59584 0.50734 0.0
C1251 C 0.246 0.5999 0.53031 0.0
H1252 H 0.2163 0.44954 0.02169 0.0
H1253 H 0.28503 0.42735 0.06473 0.0
H1254 H 0.24315 0.45924 0.98362 0.0
H1255 H 0.31194 0.43676 0.02647 0.0
H1256 H 0.35459 0.47241 0.95592 0.0
H1257 H 0.32739 0.47235 0.9954 0.0
H1258 H 0.26784 0.42978 0.95397 0.0
H1259 H 0.29479 0.42977 0.91498 0.0
C1260 C 0.23718 0.44717 0.02319 0.0
C1261 C 0.24851 0.43752 0.0462 0.0
C1262 C 0.25256 0.45256 1.00131 0.0
C1263 C 0.27966 0.44866 1.002 0.0
C1264 C 0.29115 0.44014 0.02537 0.0
C1265 C 0.27572 0.4345 0.04719 0.0
C1266 C 0.33547 0.46352 0.95522 0.0
C1267 C 0.32678 0.45111 0.93241 0.0
C1268 C 0.32002 0.46329 0.97782 0.0
C1269 C 0.29545 0.45108 0.97778 0.0
C1270 C 0.28649 0.43963 0.9546 0.0
C1271 C 0.30201 0.4395 0.93227 0.0
H1272 H 0.15983 0.27974 0.18442 0.0
H1273 H 0.19165 0.34647 0.2243 0.0
H1274 H 0.14072 0.2644 0.22508 0.0
H1275 H 0.17255 0.33092 0.26554 0.0
H1276 H 0.16693 0.25992 0.3302 0.0
H1277 H 0.18064 0.28916 0.29479 0.0
H1278 H 0.10604 0.27871 0.25742 0.0
H1279 H 0.09268 0.2494 0.29239 0.0
C1280 C 0.16266 0.29112 0.20195 0.0
C1281 C 0.17731 0.31415 0.2013 0.0
C1282 C 0.15151 0.28254 0.22519 0.0
C1283 C 0.15499 0.29659 0.24845 0.0
C1284 C 0.16952 0.31978 0.24787 0.0
C1285 C 0.18033 0.32868 0.22436 0.0
C1286 C 0.15314 0.26491 0.31502 0.0
C1287 C 0.12886 0.25242 0.3138 0.0
C1288 C 0.16097 0.28153 0.29472 0.0
C1289 C 0.14455 0.28571 0.27313 0.0
C1290 C 0.11922 0.27545 0.2736 0.0
C1291 C 0.11152 0.25884 0.29367 0.0
H1292 H 0.48004 0.41553 0.95316 0.0
H1293 H 0.39882 0.4198 0.97545 0.0
H1294 H 0.49139 0.40279 0.99708 0.0
H1295 H 0.41053 0.40574 0.01948 0.0
H1296 H 0.44961 0.34539 0.08078 0.0
H1297 H 0.43242 0.36305 0.03999 0.0
H1298 H 0.48862 0.42542 0.04319 0.0
H1299 H 0.50509 0.40856 0.08455 0.0
C1300 C 0.4645 0.41402 0.96727 0.0
C1301 C 0.43843 0.41921 0.96045 0.0
C1302 C 0.47113 0.40661 0.99256 0.0
C1303 C 0.45189 0.40365 0.01171 0.0
C1304 C 0.42574 0.40801 0.00501 0.0
C1305 C 0.41907 0.41593 0.97969 0.0
C1306 C 0.45801 0.36317 0.0731 0.0
C1307 C 0.47936 0.3751 0.08552 0.0
C1308 C 0.44809 0.37326 0.04976 0.0
C1309 C 0.45949 0.39531 0.0383 0.0
C1310 C 0.47979 0.40811 0.05144 0.0
C1311 C 0.48937 0.39831 0.07499 0.0
H1312 H 0.3273 0.77727 0.79776 0.0
H1313 H 0.39223 0.73395 0.82873 0.0
H1314 H 0.32051 0.74411 0.76464 0.0
H1315 H 0.38554 0.70028 0.79532 0.0
H1316 H 0.39071 0.67876 0.7062 0.0
H1317 H 0.39302 0.70123 0.74784 0.0
H1318 H 0.30912 0.69975 0.75338 0.0
H1319 H 0.30668 0.67838 0.71116 0.0
C1320 C 0.33957 0.76009 0.79792 0.0
C1321 C 0.36015 0.75797 0.81573 0.0
C1322 C 0.33568 0.74104 0.77899 0.0
C1323 C 0.35258 0.71959 0.7772 0.0
C1324 C 0.37231 0.71669 0.7961 0.0
C1325 C 0.37597 0.73571 0.81538 0.0
C1326 C 0.37272 0.68319 0.71622 0.0
C1327 C 0.34849 0.67709 0.70495 0.0
C1328 C 0.37408 0.6957 0.74039 0.0
C1329 C 0.35124 0.70237 0.75393 0.0
C1330 C 0.32707 0.69511 0.74331 0.0
C1331 C 0.3257 0.68267 0.71912 0.0
H1332 H 0.03921 0.54592 0.45899 0.0
H1333 H 0.09462 0.60904 0.4572 0.0
H1334 H 0.02413 0.56009 0.50174 0.0
H1335 H 0.07944 0.62346 0.50029 0.0
H1336 H 0.00385 0.65796 0.54458 0.0
H1337 H 0.03508 0.64274 0.51212 0.0
H1338 H 0.03656 0.56724 0.54928 0.0
H1339 H 0.00543 0.58282 0.5821 0.0
C1340 C 0.04831 0.56272 0.46793 0.0
C1341 C 0.06775 0.57667 0.45467 0.0
C1342 C 0.03997 0.57061 0.49257 0.0
C1343 C 0.05067 0.59284 0.50441 0.0
C1344 C 0.07089 0.60623 0.49161 0.0
C1345 C 0.07955 0.59803 0.46704 0.0
C1346 C 0.0118 0.63849 0.54643 0.0
C1347 C 0.00246 0.62154 0.56575 0.0
C1348 C 0.02967 0.62977 0.52789 0.0
C1349 C 0.03804 0.60373 0.52802 0.0
C1350 C 0.03031 0.58738 0.54869 0.0
C1351 C 0.01273 0.59631 0.56758 0.0
H1352 H 0.67373 0.15343 0.78277 0.0
H1353 H 0.67182 0.23404 0.80725 0.0
H1354 H 0.65854 0.16639 0.7396 0.0
H1355 H 0.65749 0.24678 0.764 0.0
H1356 H 0.65932 0.26292 0.67676 0.0
H1357 H 0.67641 0.24693 0.71815 0.0
H1358 H 0.6178 0.18667 0.71931 0.0
H1359 H 0.60018 0.20303 0.67823 0.0
C1360 C 0.67 0.17384 0.77916 0.0
C1361 C 0.67425 0.19266 0.79871 0.0
C1362 C 0.6614 0.18124 0.75432 0.0
C1363 C 0.65716 0.20761 0.74837 0.0
C1364 C 0.66113 0.22635 0.76788 0.0
C1365 C 0.6694 0.21898 0.79273 0.0
C1366 C 0.64998 0.24634 0.68584 0.0
C1367 C 0.62794 0.23473 0.67448 0.0
C1368 C 0.65983 0.23714 0.70951 0.0
C1369 C 0.6482 0.21578 0.72211 0.0
C1370 C 0.62716 0.20316 0.71002 0.0
C1371 C 0.61707 0.21259 0.6865 0.0
H1372 H 0.59189 0.93781 0.53139 0.0
H1373 H 0.55018 0.87229 0.56348 0.0
H1374 H 0.57759 0.92535 0.48732 0.0
H1375 H 0.53637 0.85957 0.51963 0.0
H1376 H 0.5415 0.83062 0.43511 0.0
H1377 H 0.56127 0.8447 0.47601 0.0
H1378 H 0.52876 0.92144 0.46553 0.0
H1379 H 0.50838 0.90729 0.42466 0.0
C1380 C 0.57999 0.92057 0.52893 0.0
C1381 C 0.57211 0.90596 0.55076 0.0
C1382 C 0.5717 0.91358 0.50384 0.0
C1383 C 0.55595 0.89149 0.50016 0.0
C1384 C 0.54864 0.87658 0.52194 0.0
C1385 C 0.55642 0.88389 0.54698 0.0
C1386 C 0.5389 0.85064 0.4412 0.0
C1387 C 0.52327 0.86782 0.42663 0.0
C1388 C 0.55013 0.85862 0.4647 0.0
C1389 C 0.54646 0.88409 0.47389 0.0
C1390 C 0.53199 0.90173 0.45875 0.0
C1391 C 0.5203 0.8936 0.43544 0.0
H1392 H 0.81755 0.84629 0.28112 0.0
H1393 H 0.84607 0.77906 0.32271 0.0
H1394 H 0.836 0.82893 0.24034 0.0
H1395 H 0.86438 0.76185 0.28255 0.0
H1396 H 0.90919 0.74036 0.21515 0.0
H1397 H 0.89878 0.77133 0.24964 0.0
H1398 H 0.82555 0.78849 0.21196 0.0
H1399 H 0.83648 0.75776 0.1769 0.0
C1400 C 0.82807 0.82802 0.28155 0.0
C1401 C 0.83022 0.81383 0.30493 0.0
C1402 C 0.83849 0.81808 0.25829 0.0
C1403 C 0.85175 0.79412 0.25828 0.0
C1404 C 0.85461 0.78053 0.28193 0.0
C1405 C 0.84388 0.7902 0.30491 0.0
C1406 C 0.89131 0.75149 0.21379 0.0
C1407 C 0.87349 0.74664 0.19365 0.0
C1408 C 0.88528 0.76909 0.23355 0.0
C1409 C 0.86109 0.78183 0.23381 0.0
C1410 C 0.84435 0.77895 0.21224 0.0
C1411 C 0.85057 0.76142 0.19219 0.0
H1412 H 0.99602 0.08437 0.92912 0.0
H1413 H 0.99516 0.16605 0.94831 0.0
H1414 H 0.96371 0.07598 0.96328 0.0
H1415 H 0.96255 0.15796 0.98202 0.0
H1416 H 0.95819 0.12147 0.06561 0.0
H1417 H 0.97415 0.13527 0.02309 0.0
H1418 H 0.91974 0.08318 0.98556 0.0
H1419 H 0.90364 0.06946 0.02867 0.0
C1420 C 0.98779 0.10068 0.93969 0.0
C1421 C 0.99778 0.12585 0.9361 0.0
C1422 C 0.96938 0.09591 0.95931 0.0
C1423 C 0.96093 0.11628 0.9756 0.0
C1424 C 0.96897 0.14185 0.97 0.0
C1425 C 0.98741 0.14654 0.95056 0.0
C1426 C 0.94934 0.11337 0.04824 0.0
C1427 C 0.92983 0.0944 0.05031 0.0
C1428 C 0.95827 0.1214 0.02387 0.0
C1429 C 0.94811 0.11039 1.00092 0.0
C1430 C 0.92788 0.09201 1.00291 0.0
C1431 C 0.9186 0.08428 0.02747 0.0
H1432 H 0.32593 0.09172 0.30629 0.0
H1433 H 0.32568 0.15825 0.25461 0.0
H1434 H 0.28458 0.10583 0.32467 0.0
H1435 H 0.28382 0.17197 0.27261 0.0
H1436 H 0.21396 0.19632 0.32484 0.0
H1437 H 0.25931 0.18729 0.31256 0.0
H1438 H 0.24071 0.10561 0.30514 0.0
H1439 H 0.19608 0.11446 0.31776 0.0
C1440 C 0.31725 0.10953 0.29904 0.0
C1441 C 0.32886 0.12352 0.27855 0.0
C1442 C 0.29344 0.11753 0.30948 0.0
C1443 C 0.2807 0.13974 0.29976 0.0
C1444 C 0.29313 0.15475 0.2805 0.0
C1445 C 0.31699 0.14673 0.27001 0.0
C1446 C 0.2197 0.17646 0.32076 0.0
C1447 C 0.20136 0.15613 0.32209 0.0
C1448 C 0.24558 0.17131 0.3136 0.0
C1449 C 0.25362 0.14571 0.30805 0.0
C1450 C 0.23528 0.12548 0.30965 0.0
C1451 C 0.20954 0.13062 0.31654 0.0
H1452 H 0.58501 0.57734 0.01196 0.0
H1453 H 0.66409 0.54952 0.00818 0.0
H1454 H 0.57459 0.54325 0.0439 0.0
H1455 H 0.65408 0.51602 0.04042 0.0
H1456 H 0.61007 0.43667 0.04485 0.0
H1457 H 0.62672 0.47804 0.02884 0.0
H1458 H 0.58177 0.5188 0.0872 0.0
H1459 H 0.56517 0.47669 0.1034 0.0
C1460 C 0.60043 0.56478 0.01902 0.0
C1461 C 0.62529 0.56589 0.00775 0.0
C1462 C 0.59451 0.54524 0.03723 0.0
C1463 C 0.61343 0.52666 0.04428 0.0
C1464 C 0.63901 0.52978 0.03505 0.0
C1465 C 0.6448 0.54905 0.01677 0.0
C1466 C 0.60415 0.45445 0.05453 0.0
C1467 C 0.58633 0.45363 0.0752 0.0
C1468 C 0.61381 0.47816 0.04555 0.0
C1469 C 0.60565 0.50174 0.05683 0.0
C1470 C 0.5884 0.50093 0.07816 0.0
C1471 C 0.57904 0.47696 0.0875 0.0
H1472 H 0.1773 0.89485 0.7692 0.0
H1473 H 0.20841 0.83002 0.72587 0.0
H1474 H 0.21077 0.88835 0.80289 0.0
H1475 H 0.24155 0.82336 0.75912 0.0
H1476 H 0.29403 0.80919 0.82591 0.0
H1477 H 0.25219 0.8119 0.80392 0.0
H1478 H 0.25851 0.89574 0.80197 0.0
H1479 H 0.29994 0.89315 0.82498 0.0
C1480 C 0.19072 0.87867 0.76743 0.0
C1481 C 0.19036 0.8628 0.74518 0.0
C1482 C 0.21002 0.87511 0.78647 0.0
C1483 C 0.22893 0.85543 0.78361 0.0
C1484 C 0.2272 0.83851 0.76214 0.0
C1485 C 0.20826 0.84232 0.74304 0.0
C1486 C 0.28632 0.82827 0.8214 0.0
C1487 C 0.30063 0.85096 0.82704 0.0
C1488 C 0.26235 0.82979 0.80859 0.0
C1489 C 0.25206 0.85401 0.80103 0.0
C1490 C 0.26574 0.87677 0.80773 0.0
C1491 C 0.28973 0.87526 0.82057 0.0
H1492 H 0.84004 0.43677 0.52469 0.0
H1493 H 0.91838 0.43762 0.4947 0.0
H1494 H 0.85135 0.47111 0.55563 0.0
H1495 H 0.92959 0.47287 0.52442 0.0
H1496 H 0.94396 0.53955 0.57877 0.0
H1497 H 0.93592 0.49484 0.56478 0.0
H1498 H 0.85653 0.51543 0.54578 0.0
H1499 H 0.86405 0.55915 0.56107 0.0
C1500 C 0.85999 0.4436 0.52558 0.0
C1501 C 0.87846 0.43454 0.50768 0.0
C1502 C 0.86641 0.46358 0.54292 0.0
C1503 C 0.89118 0.47537 0.54199 0.0
C1504 C 0.91037 0.46431 0.52583 0.0
C1505 C 0.90403 0.444 0.50882 0.0
C1506 C 0.92467 0.53439 0.57206 0.0
C1507 C 0.90477 0.55321 0.57074 0.0
C1508 C 0.9201 0.50875 0.56389 0.0
C1509 C 0.89555 0.50136 0.55418 0.0
C1510 C 0.87556 0.52006 0.55359 0.0
C1511 C 0.88006 0.5455 0.56186 0.0
H1512 H 0.79925 0.41117 0.75802 0.0
H1513 H 0.82349 0.33119 0.75015 0.0
H1514 H 0.7653 0.40434 0.72553 0.0
H1515 H 0.78882 0.32392 0.71803 0.0
H1516 H 0.72332 0.32048 0.65756 0.0
H1517 H 0.76569 0.33421 0.67529 0.0
H1518 H 0.72587 0.37872 0.73464 0.0
H1519 H 0.68412 0.36507 0.71697 0.0
C1520 C 0.79785 0.39236 0.74857 0.0
C1521 C 0.8139 0.3717 0.75636 0.0
C1522 C 0.77831 0.38837 0.73015 0.0
C1523 C 0.77409 0.36348 0.7196 0.0
C1524 C 0.7917 0.34335 0.7257 0.0
C1525 C 0.81152 0.34746 0.74404 0.0
C1526 C 0.72384 0.33367 0.67402 0.0
C1527 C 0.70061 0.34168 0.68607 0.0
C1528 C 0.74798 0.34137 0.68423 0.0
C1529 C 0.74912 0.35761 0.70629 0.0
C1530 C 0.72574 0.36654 0.71741 0.0
C1531 C 0.70181 0.35857 0.70748 0.0
H1532 H 0.43115 0.97405 0.40295 0.0
H1533 H 0.40034 0.94052 0.47363 0.0
H1534 H 0.41701 0.0173 0.41723 0.0
H1535 H 0.38525 0.98323 0.48753 0.0
H1536 H 0.39792 0.06236 0.5224 0.0
H1537 H 0.40674 0.0201 0.50392 0.0
H1538 H 0.38277 0.04788 0.428 0.0
H1539 H 0.37477 0.09119 0.44668 0.0
C1540 C 0.42083 0.97591 0.42127 0.0
C1541 C 0.41724 0.95411 0.43746 0.0
C1542 C 0.41265 1.00064 0.42943 0.0
C1543 C 0.40048 0.00389 0.45382 0.0
C1544 C 0.39532 0.98165 0.46904 0.0
C1545 C 0.40384 0.95714 0.46108 0.0
C1546 C 0.39438 0.05957 0.50175 0.0
C1547 C 0.38551 0.08016 0.48602 0.0
C1548 C 0.39926 0.03514 0.49115 0.0
C1549 C 0.39504 0.03031 0.46451 0.0
C1550 C 0.38632 0.05094 0.44859 0.0
C1551 C 0.38169 0.07571 0.45925 0.0
H1552 H 0.79163 0.69469 0.18539 0.0
H1553 H 0.79993 0.61116 0.18007 0.0
H1554 H 0.74634 0.68915 0.19921 0.0
H1555 H 0.75496 0.60568 0.19422 0.0
H1556 H 0.66554 0.6068 0.198 0.0
H1557 H 0.70869 0.61491 0.17882 0.0
H1558 H 0.72509 0.67066 0.23967 0.0
H1559 H 0.68236 0.66256 0.25864 0.0
C1560 C 0.78378 0.67519 0.18703 0.0
C1561 C 0.79947 0.65338 0.18182 0.0
C1562 C 0.75791 0.67202 0.19504 0.0
C1563 C 0.74711 0.64697 0.19771 0.0
C1564 C 0.76265 0.62521 0.19206 0.0
C1565 C 0.78854 0.62837 0.18431 0.0
C1566 C 0.6783 0.62101 0.20696 0.0
C1567 C 0.67078 0.6339 0.22987 0.0
C1568 C 0.70299 0.62553 0.19614 0.0
C1569 C 0.72025 0.6434 0.2078 0.0
C1570 C 0.71219 0.65695 0.23014 0.0
C1571 C 0.68782 0.65212 0.24113 0.0
H1572 H 0.15084 0.94203 0.98962 0.0
H1573 H 0.07262 0.93823 0.01982 0.0
H1574 H 0.1375 0.97626 0.95907 0.0
H1575 H 0.05915 0.97245 0.98941 0.0
H1576 H 0.07132 0.06333 0.976 0.0
H1577 H 0.0756 0.01957 0.9946 0.0
H1578 H 0.10651 0.99169 0.92138 0.0
H1579 H 0.10154 0.03571 0.90278 0.0
C1580 C 0.13052 0.94766 0.98873 0.0
C1581 C 0.11259 0.93744 0.00661 0.0
C1582 C 0.12289 0.96725 0.97137 0.0
C1583 C 0.09734 0.9771 0.97209 0.0
C1584 C 0.07896 0.96525 0.98857 0.0
C1585 C 0.08657 0.94557 0.00575 0.0
C1586 C 0.07844 0.0476 0.96388 0.0
C1587 C 0.08607 0.05246 0.93817 0.0
C1588 C 0.08077 0.02262 0.97434 0.0
C1589 C 0.09126 1.00224 0.95933 0.0
C1590 C 0.0983 0.00705 0.93328 0.0
C1591 C 0.09545 0.03202 0.92267 0.0
H1592 H 0.35375 0.21425 0.15782 0.0
H1593 H 0.27781 0.20556 0.19326 0.0
H1594 H 0.34154 0.25747 0.14268 0.0
H1595 H 0.26519 0.24777 0.17674 0.0
H1596 H 0.25709 0.33489 0.1642 0.0
H1597 H 0.27123 0.29302 0.18189 0.0
H1598 H 0.3149 0.27834 0.11127 0.0
H1599 H 0.30109 0.32041 0.09408 0.0
C1600 C 0.33448 0.2214 0.16241 0.0
C1601 C 0.3168 0.20604 0.17668 0.0
C1602 C 0.32734 0.24616 0.15342 0.0
C1603 C 0.30228 0.25618 0.15833 0.0
C1604 C 0.28475 0.24094 0.17281 0.0
C1605 C 0.29193 0.21636 0.18197 0.0
C1606 C 0.26948 0.3225 0.15245 0.0
C1607 C 0.27763 0.33058 0.12763 0.0
C1608 C 0.27765 0.29853 0.16254 0.0
C1609 C 0.29419 0.28212 0.148 0.0
C1610 C 0.30253 0.29052 0.12324 0.0
C1611 C 0.29448 0.31456 0.11328 0.0
H1612 H 0.82038 0.30689 0.89612 0.0
H1613 H 0.82386 0.29238 0.81319 0.0
H1614 H 0.80535 0.26281 0.90338 0.0
H1615 H 0.8097 0.24748 0.82068 0.0
H1616 H 0.75365 0.17945 0.84626 0.0
H1617 H 0.77152 0.22206 0.8346 0.0
H1618 H 0.82184 0.21901 0.90204 0.0
H1619 H 0.80307 0.17738 0.91437 0.0
C1620 C 0.8179 0.29436 0.87936 0.0
C1621 C 0.8233 0.30338 0.85404 0.0
C1622 C 0.80963 0.26883 0.88359 0.0
C1623 C 0.8066 0.25143 0.86266 0.0
C1624 C 0.81179 0.26039 0.83724 0.0
C1625 C 0.82013 0.28607 0.83298 0.0
C1626 C 0.7684 0.188 0.85865 0.0
C1627 C 0.77621 0.17543 0.88175 0.0
C1628 C 0.77892 0.21226 0.85178 0.0
C1629 C 0.79769 0.22426 0.86773 0.0
C1630 C 0.80686 0.21069 0.88972 0.0
C1631 C 0.79626 0.18663 0.89665 0.0
H1632 H 0.4724 0.09051 0.56142 0.0
H1633 H 0.44228 0.04956 0.62854 0.0
H1634 H 0.51614 0.07493 0.57162 0.0
H1635 H 0.48582 0.03443 0.63904 0.0
H1636 H 0.55615 0.98249 0.62796 0.0
H1637 H 0.51456 0.00334 0.62153 0.0
H1638 H 0.55338 0.07505 0.6005 0.0
H1639 H 0.59566 0.05355 0.60604 0.0
C1640 C 0.47515 0.07851 0.57856 0.0
C1641 C 0.45374 0.07085 0.59387 0.0
C1642 C 0.50027 0.06964 0.58448 0.0
C1643 C 0.50451 0.05306 0.60593 0.0
C1644 C 0.48323 0.04656 0.62194 0.0
C1645 C 0.4582 0.05522 0.61591 0.0
C1646 C 0.55601 0.00278 0.62216 0.0
C1647 C 0.57936 0.01632 0.61745 0.0
C1648 C 0.532 0.01485 0.61864 0.0
C1649 C 0.53049 0.04098 0.61064 0.0
C1650 C 0.55382 0.0548 0.6064 0.0
C1651 C 0.57804 0.04256 0.60971 0.0
H1652 H 0.64955 0.71827 0.35105 0.0
H1653 H 0.72564 0.70761 0.31662 0.0
H1654 H 0.66183 0.76208 0.36426 0.0
H1655 H 0.73836 0.75063 0.33117 0.0
H1656 H 0.74856 0.83735 0.34337 0.0
H1657 H 0.73265 0.7963 0.32515 0.0
H1658 H 0.68898 0.78214 0.39586 0.0
H1659 H 0.70458 0.8231 0.41368 0.0
C1660 C 0.66885 0.72519 0.34622 0.0
C1661 C 0.68663 0.70911 0.33297 0.0
C1662 C 0.67601 0.75028 0.35406 0.0
C1663 C 0.70119 0.7599 0.34898 0.0
C1664 C 0.71874 0.74405 0.33523 0.0
C1665 C 0.71154 0.71907 0.32724 0.0
C1666 C 0.73563 0.82534 0.35496 0.0
C1667 C 0.72815 0.83318 0.38007 0.0
C1668 C 0.72648 0.80185 0.34456 0.0
C1669 C 0.70959 0.78578 0.35907 0.0
C1670 C 0.70161 0.79412 0.38393 0.0
C1671 C 0.71068 0.81758 0.39423 0.0
H1672 H 0.92237 0.95069 0.15039 0.0
H1673 H 0.93286 0.01658 0.09897 0.0
H1674 H 0.96365 0.93258 0.13537 0.0
H1675 H 0.97472 0.99892 0.0849 0.0
H1676 H 0.06214 0.97519 0.10754 0.0
H1677 H 0.01773 0.99172 0.11297 0.0
H1678 H 0.98711 0.9162 0.09234 0.0
H1679 H 0.03163 0.89981 0.08651 0.0
C1680 C 0.93332 0.96126 0.13576 0.0
C1681 C 0.92457 0.98551 0.12644 0.0
C1682 C 0.95693 0.95081 0.12711 0.0
C1683 C 0.97246 0.96453 0.10925 0.0
C1684 C 0.96323 0.98814 0.09896 0.0
C1685 C 0.93932 0.99831 0.10717 0.0
C1686 C 0.04588 0.96226 0.10394 0.0
C1687 C 0.05022 0.93624 0.09676 0.0
C1688 C 0.02053 0.97173 0.10682 0.0
C1689 C 0.99905 0.95519 0.10308 0.0
C1690 C 0.00337 0.9293 0.09536 0.0
C1691 C 0.02875 0.91999 0.09193 0.0
H1692 H 0.2749 0.70431 0.67591 0.0
H1693 H 0.23439 0.67755 0.60736 0.0
H1694 H 0.24226 0.73802 0.68243 0.0
H1695 H 0.20128 0.71151 0.61375 0.0
H1696 H 0.18205 0.8008 0.61071 0.0
H1697 H 0.20378 0.75887 0.60819 0.0
H1698 H 0.19785 0.75063 0.69181 0.0
H1699 H 0.17724 0.79316 0.69455 0.0
C1700 C 0.25839 0.70518 0.66275 0.0
C1701 C 0.25693 0.68838 0.64128 0.0
C1702 C 0.23964 0.72446 0.66648 0.0
C1703 C 0.21922 0.72763 0.64849 0.0
C1704 C 0.21691 0.7097 0.62781 0.0
C1705 C 0.2356 0.69009 0.6243 0.0
C1706 C 0.18534 0.79015 0.62861 0.0
C1707 C 0.17818 0.80076 0.65287 0.0
C1708 C 0.19743 0.76581 0.6271 0.0
C1709 C 0.20262 0.75136 0.6498 0.0
C1710 C 0.19437 0.76137 0.67395 0.0
C1711 C 0.18235 0.78576 0.67549 0.0
H1712 H 0.07632 0.45026 0.34545 0.0
H1713 H 0.08089 0.50423 0.40988 0.0
H1714 H 0.03552 0.43325 0.36262 0.0
H1715 H 0.03962 0.48755 0.42675 0.0
H1716 H 0.94907 0.47772 0.42033 0.0
H1717 H 0.99382 0.49048 0.41072 0.0
H1718 H 0.01437 0.4097 0.39946 0.0
H1719 H 0.96937 0.397 0.40884 0.0
C1720 C 0.06884 0.45829 0.36348 0.0
C1721 C 0.08158 0.47911 0.37592 0.0
C1722 C 0.04543 0.44846 0.37336 0.0
C1723 C 0.03416 0.45926 0.39587 0.0
C1724 C 0.04758 0.47914 0.40909 0.0
C1725 C 0.07116 0.48877 0.39936 0.0
C1726 C 0.96317 0.4627 0.41589 0.0
C1727 C 0.95565 0.43639 0.41505 0.0
C1728 C 0.98888 0.46996 0.41067 0.0
C1729 C 0.00764 0.4511 0.40425 0.0
C1730 C 1.00031 0.4247 0.40416 0.0
C1731 C 0.97461 0.4174 0.40969 0.0
H1732 H 0.5454 0.56809 0.94835 0.0
H1733 H 0.56339 0.56136 0.86631 0.0
H1734 H 0.50042 0.55494 0.93938 0.0
H1735 H 0.51912 0.54757 0.85759 0.0
H1736 H 0.43389 0.54853 0.8437 0.0
H1737 H 0.47546 0.56655 0.85743 0.0
H1738 H 0.47556 0.5158 0.92465 0.0
H1739 H 0.43335 0.49831 0.91138 0.0
C1740 C 0.53981 0.5638 0.92846 0.0
C1741 C 0.55808 0.56572 0.90807 0.0
C1742 C 0.51412 0.55612 0.92336 0.0
C1743 C 0.50616 0.55045 0.89774 0.0
C1744 C 0.52449 0.55223 0.87748 0.0
C1745 C 0.55005 0.55976 0.88256 0.0
C1746 C 0.44248 0.54147 0.86165 0.0
C1747 C 0.43058 0.52147 0.87609 0.0
C1748 C 0.46644 0.55168 0.86941 0.0
C1749 C 0.47908 0.54219 0.8918 0.0
C1750 C 0.46637 0.52345 0.90724 0.0
C1751 C 0.44232 0.51324 0.89948 0.0
H1752 H 0.91602 0.0848 0.25455 0.0
H1753 H 0.96552 0.11615 0.19428 0.0
H1754 H 0.94326 0.10534 0.28781 0.0
H1755 H 0.99365 0.13534 0.22711 0.0
H1756 H 0.02762 0.18733 0.28628 0.0
H1757 H 0.99667 0.16883 0.25639 0.0
H1758 H 0.98283 0.1052 0.30991 0.0
H1759 H 0.01167 0.12542 0.3414 0.0
C1760 C 0.93293 0.09589 0.24851 0.0
C1761 C 0.93858 0.09918 0.22193 0.0
C1762 C 0.94865 0.10756 0.26752 0.0
C1763 C 0.97064 0.12235 0.26031 0.0
C1764 C 0.97651 0.12489 0.23358 0.0
C1765 C 0.96052 0.11372 0.21467 0.0
C1766 C 0.01748 0.16987 0.2923 0.0
C1767 C 0.02246 0.15806 0.3166 0.0
C1768 C 1.00003 0.15881 0.27467 0.0
C1769 C 0.98752 0.1351 0.2803 0.0
C1770 C 0.99194 0.12351 0.30479 0.0
C1771 C 0.00895 0.13497 0.32279 0.0
H1772 H 0.62121 0.31663 0.0399 0.0
H1773 H 0.57985 0.25342 0.07704 0.0
H1774 H 0.64194 0.28593 0.01039 0.0
H1775 H 0.60084 0.2225 0.04757 0.0
H1776 H 0.62108 0.1805 0.97069 0.0
H1777 H 0.60111 0.20963 1.00235 0.0
H1778 H 0.67367 0.25167 0.00933 0.0
H1779 H 0.69323 0.22341 0.97666 0.0
C1780 C 0.61678 0.2961 0.04197 0.0
C1781 C 0.59895 0.28746 0.06089 0.0
C1782 C 0.62872 0.27847 0.02507 0.0
C1783 C 0.6232 0.2517 0.02669 0.0
C1784 C 0.60532 0.24302 0.04559 0.0
C1785 C 0.59329 0.26072 0.06248 0.0
C1786 C 0.63274 0.19607 0.97884 0.0
C1787 C 0.65871 0.19975 0.97089 0.0
C1788 C 0.62137 0.21257 0.99727 0.0
C1789 C 0.63572 0.23311 0.0083 0.0
C1790 C 0.66192 0.23631 1.00093 0.0
C1791 C 0.67325 0.21987 0.98242 0.0
H1792 H 0.59101 0.87791 0.73839 0.0
H1793 H 0.53178 0.93454 0.7188 0.0
H1794 H 0.56153 0.85832 0.77021 0.0
H1795 H 0.50329 0.91606 0.75156 0.0
H1796 H 0.44712 0.85634 0.78502 0.0
H1797 H 0.47826 0.87663 0.75539 0.0
H1798 H 0.53938 0.86558 0.81233 0.0
H1799 H 0.50779 0.84503 0.84198 0.0
C1800 C 0.57185 0.88633 0.74091 0.0
C1801 C 0.56388 0.90783 0.72582 0.0
C1802 C 0.55508 0.87528 0.75943 0.0
C1803 C 0.52999 0.88552 0.76332 0.0
C1804 C 0.52233 0.90742 0.74879 0.0
C1805 C 0.53893 0.9183 0.73021 0.0
C1806 C 0.46723 0.85831 0.79111 0.0
C1807 C 0.47521 0.84928 0.81562 0.0
C1808 C 0.48504 0.87007 0.77428 0.0
C1809 C 0.5113 0.8729 0.78155 0.0
C1810 C 0.51932 0.86359 0.80612 0.0
C1811 C 0.50133 0.85202 0.82313 0.0
H1812 H 0.93066 0.75988 0.57355 0.0
H1813 H 0.87262 0.70222 0.55464 0.0
H1814 H 0.90972 0.79075 0.54388 0.0
H1815 H 0.85254 0.7321 0.52393 0.0
H1816 H 0.8081 0.79516 0.4846 0.0
H1817 H 0.82744 0.76873 0.51855 0.0
H1818 H 0.90316 0.80081 0.50033 0.0
H1819 H 0.88339 0.8292 0.4682 0.0
C1820 C 0.91344 0.75387 0.56294 0.0
C1821 C 0.90304 0.72886 0.56653 0.0
C1822 C 0.90151 0.77143 0.54576 0.0
C1823 C 0.87927 0.76409 0.53138 0.0
C1824 C 0.86912 0.73887 0.53504 0.0
C1825 C 0.88071 0.72161 0.55257 0.0
C1826 C 0.82878 0.79714 0.48818 0.0
C1827 C 0.84407 0.81441 0.47336 0.0
C1828 C 0.84003 0.78151 0.50745 0.0
C1829 C 0.86704 0.78222 0.51213 0.0
C1830 C 0.88229 0.79977 0.49761 0.0
C1831 C 0.87094 0.8158 0.4787 0.0
H1832 H 0.42762 0.42062 0.75496 0.0
H1833 H 0.47221 0.38135 0.81458 0.0
H1834 H 0.45454 0.40034 0.72137 0.0
H1835 H 0.49932 0.36142 0.7812 0.0
H1836 H 0.52974 0.31147 0.71626 0.0
H1837 H 0.49885 0.32962 0.74725 0.0
H1838 H 0.49788 0.40182 0.70388 0.0
H1839 H 0.52765 0.38313 0.67202 0.0
C1840 C 0.44328 0.40778 0.76088 0.0
C1841 C 0.44776 0.40253 0.78741 0.0
C1842 C 0.45872 0.39617 0.74165 0.0
C1843 C 0.47907 0.37916 0.74854 0.0
C1844 C 0.48349 0.37397 0.77511 0.0
C1845 C 0.46799 0.38545 0.79429 0.0
C1846 C 0.52253 0.33102 0.71298 0.0
C1847 C 0.53131 0.34585 0.69165 0.0
C1848 C 0.50508 0.34158 0.731 0.0
C1849 C 0.49608 0.3673 0.72827 0.0
C1850 C 0.50426 0.38189 0.70653 0.0
C1851 C 0.52162 0.37128 0.68842 0.0
H1852 H 0.32039 0.68333 0.50052 0.0
H1853 H 0.3849 0.69485 0.55322 0.0
H1854 H 0.33962 0.71499 0.47007 0.0
H1855 H 0.40366 0.7269 0.52317 0.0
H1856 H 0.39904 0.80844 0.47902 0.0
H1857 H 0.3811 0.77398 0.50688 0.0
H1858 H 0.38849 0.71903 0.44371 0.0
H1859 H 0.40721 0.75339 0.41599 0.0
C1860 C 0.33876 0.69246 0.50541 0.0
C1861 C 0.35128 0.68661 0.52908 0.0
C1862 C 0.34973 0.71046 0.48805 0.0
C1863 C 0.373 0.72332 0.49445 0.0
C1864 C 0.38567 0.71721 0.51791 0.0
C1865 C 0.37505 0.69881 0.53495 0.0
C1866 C 0.39677 0.789 0.47112 0.0
C1867 C 0.40447 0.78347 0.44546 0.0
C1868 C 0.38664 0.76935 0.48703 0.0
C1869 C 0.38352 0.74397 0.47735 0.0
C1870 C 0.39073 0.7385 0.45152 0.0
C1871 C 0.40145 0.75805 0.43577 0.0
H1872 H 0.00839 0.67514 0.17511 0.0
H1873 H 0.95056 0.61854 0.19763 0.0
H1874 H 0.04004 0.65434 0.20402 0.0
H1875 H 0.98123 0.59871 0.22773 0.0
H1876 H 0.04408 0.55566 0.2683 0.0
H1877 H 0.01773 0.5735 0.23346 0.0
H1878 H 0.05071 0.64973 0.24755 0.0
H1879 H 0.07902 0.63133 0.28051 0.0
C1880 C 0.00256 0.6582 0.1863 0.0
C1881 C 0.97725 0.64822 0.18407 0.0
C1882 C 0.02054 0.64639 0.20305 0.0
C1883 C 0.01332 0.62476 0.21839 0.0
C1884 C 0.98788 0.61484 0.21587 0.0
C1885 C 0.97017 0.62627 0.19872 0.0
C1886 C 0.04627 0.5761 0.26358 0.0
C1887 C 0.06367 0.59201 0.27753 0.0
C1888 C 0.03072 0.58649 0.2438 0.0
C1889 C 0.03167 0.61322 0.23777 0.0
C1890 C 0.04949 0.62902 0.25133 0.0
C1891 C 0.06545 0.61851 0.27072 0.0
H1892 H 0.1961 0.29006 0.02245 0.0
H1893 H 0.12488 0.33337 0.03494 0.0
H1894 H 0.17427 0.26423 0.98909 0.0
H1895 H 0.10295 0.30635 1.00271 0.0
H1896 H 0.07188 0.2244 0.97271 0.0
H1897 H 0.09256 0.25557 1.00179 0.0
H1898 H 0.15056 0.27212 0.94328 0.0
H1899 H 0.12913 0.24213 0.9133 0.0
C1900 C 0.17596 0.29436 0.01801 0.0
C1901 C 0.16234 0.31382 0.03175 0.0
C1902 C 0.16344 0.27942 0.99895 0.0
C1903 C 0.13693 0.28325 0.99349 0.0
C1904 C 0.12335 0.30285 0.00679 0.0
C1905 C 0.13596 0.31816 0.02545 0.0
C1906 C 0.08858 0.23512 0.96558 0.0
C1907 C 0.09877 0.23047 0.94049 0.0
C1908 C 0.10053 0.25287 0.98242 0.0
C1909 C 0.12323 0.26605 0.9748 0.0
C1910 C 0.13323 0.26192 0.94969 0.0
C1911 C 0.12098 0.24457 0.93261 0.0
H1912 H 0.25619 0.92999 0.07662 0.0
H1913 H 0.19892 0.95009 0.13468 0.0
H1914 H 0.28758 0.95919 0.09742 0.0
H1915 H 0.22923 0.98046 0.15452 0.0
H1916 H 0.29189 0.02021 0.19824 0.0
H1917 H 0.26574 0.98587 0.17949 0.0
H1918 H 0.29827 0.00247 0.10346 0.0
H1919 H 0.32656 0.03491 0.12275 0.0
C1920 C 0.2504 0.94077 0.09382 0.0
C1921 C 0.22535 0.93771 0.10427 0.0
C1922 C 0.26824 0.95767 0.10566 0.0
C1923 C 0.26111 0.97232 0.1278 0.0
C1924 C 0.23586 0.96912 0.13803 0.0
C1925 C 0.21833 0.95183 0.12657 0.0
C1926 C 0.29406 0.01618 0.17764 0.0
C1927 C 0.3114 0.03067 0.1621 0.0
C1928 C 0.27858 0.99668 0.16671 0.0
C1929 C 0.27941 0.99149 0.13977 0.0
C1930 C 0.29711 0.00562 0.1243 0.0
C1931 C 0.31306 0.02472 0.13535 0.0
H1932 H 0.85258 0.50334 0.86589 0.0
H1933 H 0.78337 0.46603 0.83584 0.0
H1934 H 0.82522 0.53607 0.88769 0.0
H1935 H 0.75642 0.49849 0.85754 0.0
H1936 H 0.75449 0.60144 0.89223 0.0
H1937 H 0.78621 0.57272 0.87075 0.0
H1938 H 0.75318 0.50656 0.91071 0.0
H1939 H 0.72168 0.53487 0.93208 0.0
C1940 C 0.83162 0.50224 0.8638 0.0
C1941 C 0.82012 0.48212 0.84915 0.0
C1942 C 0.81606 0.521 0.87611 0.0
C1943 C 0.78883 0.51959 0.87429 0.0
C1944 C 0.77741 0.49986 0.85926 0.0
C1945 C 0.79286 0.48142 0.84671 0.0
C1946 C 0.75423 0.58081 0.89662 0.0
C1947 C 0.73559 0.57042 0.91387 0.0
C1948 C 0.77243 0.56448 0.88446 0.0
C1949 C 0.77193 0.53754 0.88909 0.0
C1950 C 0.75384 0.5273 0.90683 0.0
C1951 C 0.73596 0.54356 0.91919 0.0
H1952 H 0.25011 0.09438 0.59678 0.0
H1953 H 0.30708 0.03279 0.59852 0.0
H1954 H 0.21837 0.06569 0.61825 0.0
H1955 H 0.27567 0.00397 0.61956 0.0
H1956 H 0.225 0.96633 0.679 0.0
H1957 H 0.25422 0.99813 0.66024 0.0
H1958 H 0.19205 0.02705 0.61146 0.0
H1959 H 0.16197 0.99647 0.63179 0.0
C1960 C 0.2557 0.07466 0.60179 0.0
C1961 C 0.28082 0.0656 0.59613 0.0
C1962 C 0.23759 0.0582 0.61391 0.0
C1963 C 0.2445 0.03256 0.62081 0.0
C1964 C 0.26977 0.02369 0.61495 0.0
C1965 C 0.2877 0.04004 0.60271 0.0
C1966 C 0.21717 0.97983 0.6648 0.0
C1967 C 0.19091 0.97861 0.65702 0.0
C1968 C 0.23419 0.99784 0.65365 0.0
C1969 C 0.22564 0.01492 0.63402 0.0
C1970 C 0.19928 0.01425 0.6266 0.0
C1971 C 0.1821 0.9964 0.63804 0.0
H1972 H 0.67628 0.50354 0.32225 0.0
H1973 H 0.71403 0.56158 0.36981 0.0
H1974 H 0.7026 0.46956 0.34274 0.0
H1975 H 0.74136 0.5282 0.38929 0.0
H1976 H 0.77317 0.46391 0.43688 0.0
H1977 H 0.74213 0.49396 0.41832 0.0
H1978 H 0.74386 0.45124 0.34571 0.0
H1979 H 0.77278 0.41945 0.36522 0.0
C1980 C 0.69043 0.50898 0.33693 0.0
C1981 C 0.69305 0.53507 0.34463 0.0
C1982 C 0.70563 0.48957 0.34862 0.0
C1983 C 0.72411 0.49595 0.36791 0.0
C1984 C 0.7269 0.52227 0.37513 0.0
C1985 C 0.71139 0.54151 0.36383 0.0
C1986 C 0.76643 0.4603 0.41722 0.0
C1987 C 0.77587 0.4391 0.40263 0.0
C1988 C 0.74893 0.47802 0.4063 0.0
C1989 C 0.74078 0.47552 0.38023 0.0
C1990 C 0.74952 0.45389 0.36586 0.0
C1991 C 0.76659 0.43579 0.37699 0.0
loop_
_geom_bond_atom_site_label_1
_geom_bond_atom_site_label_2
_geom_bond_distance
_geom_bond_site_symmetry_2
_ccdc_geom_bond_type
C0 C1 1.351 . S
C0 N3 1.368 . S
C0 H5 0.931 . S
C1 C0 1.351 . S
C1 N2 1.373 . S
C1 H29 0.930 . S
N2 C1 1.373 . S
N2 C4 1.340 . S
N3 C0 1.368 . S
N3 C4 1.321 . S
N3 Co6 2.135 . S
C4 N2 1.340 . S
C4 N3 1.321 . S
C4 H28 0.930 . S
H5 C0 0.931 . S
Co6 N3 2.135 . S
Co6 N9 2.121 . S
Co6 O14 2.055 . S
Co6 O17 2.039 . S
Co6 N20 2.140 . S
C7 O8 1.227 . S
C7 O17 1.265 . S
O8 C7 1.227 . S
N9 Co6 2.121 . S
N9 C11 1.375 . S
N9 C12 1.313 . S
C10 C11 1.338 . S
C10 N13 1.377 . S
C10 H30 0.930 . S
C11 N9 1.375 . S
C11 C10 1.338 . S
C11 H15 0.931 . S
C12 N9 1.313 . S
C12 N13 1.344 . S
C12 H16 0.930 . S
N13 C10 1.377 . S
N13 C12 1.344 . S
O14 Co6 2.055 . S
O14 C18 1.253 . S
H15 C11 0.931 . S
H16 C12 0.930 . S
O17 Co6 2.039 . S
O17 C7 1.265 . S
C18 O14 1.253 . S
C18 O19 1.227 . S
O19 C18 1.227 . S
N20 Co6 2.140 . S
N20 C23 1.346 . S
N20 C24 1.345 . S
C21 C22 1.387 . S
C21 C25 1.391 . S
C22 C21 1.387 . S
C22 C23 1.369 . S
C22 H31 0.929 . S
C23 N20 1.346 . S
C23 C22 1.369 . S
C23 H26 0.928 . S
C24 N20 1.345 . S
C24 C25 1.371 . S
C24 H27 0.931 . S
C25 C21 1.391 . S
C25 C24 1.371 . S
C25 H32 0.930 . S
H26 C23 0.928 . S
H27 C24 0.931 . S
H28 C4 0.930 . S
H29 C1 0.930 . S
H30 C10 0.930 . S
H31 C22 0.929 . S
H32 C25 0.930 . S
C33 C34 1.351 . S
C33 N36 1.368 . S
C33 H38 0.931 . S
C34 C33 1.351 . S
C34 N35 1.373 . S
C34 H62 0.930 . S
N35 C34 1.373 . S
N35 C37 1.340 . S
N36 C33 1.368 . S
N36 C37 1.321 . S
N36 Co39 2.135 . S
C37 N35 1.340 . S
C37 N36 1.321 . S
C37 H61 0.930 . S
H38 C33 0.931 . S
Co39 N36 2.135 . S
Co39 N42 2.121 . S
Co39 O47 2.055 . S
Co39 O50 2.039 . S
Co39 N53 2.140 . S
C40 O41 1.227 . S
C40 O50 1.265 . S
O41 C40 1.227 . S
N42 Co39 2.121 . S
N42 C44 1.375 . S
N42 C45 1.313 . S
C43 C44 1.338 . S
C43 N46 1.377 . S
C43 H63 0.930 . S
C44 N42 1.375 . S
C44 C43 1.338 . S
C44 H48 0.931 . S
C45 N42 1.313 . S
C45 N46 1.344 . S
C45 H49 0.930 . S
N46 C43 1.377 . S
N46 C45 1.344 . S
O47 Co39 2.055 . S
O47 C51 1.253 . S
H48 C44 0.931 . S
H49 C45 0.930 . S
O50 Co39 2.039 . S
O50 C40 1.265 . S
C51 O47 1.253 . S
C51 O52 1.227 . S
O52 C51 1.227 . S
N53 Co39 2.140 . S
N53 C56 1.346 . S
N53 C57 1.345 . S
C54 C55 1.387 . S
C54 C58 1.391 . S
C55 C54 1.387 . S
C55 C56 1.369 . S
C55 H64 0.929 . S
C56 N53 1.346 . S
C56 C55 1.369 . S
C56 H59 0.928 . S
C57 N53 1.345 . S
C57 C58 1.371 . S
C57 H60 0.931 . S
C58 C54 1.391 . S
C58 C57 1.371 . S
C58 H65 0.930 . S
H59 C56 0.928 . S
H60 C57 0.931 . S
H61 C37 0.930 . S
H62 C34 0.930 . S
H63 C43 0.930 . S
H64 C55 0.929 . S
H65 C58 0.930 . S
C66 C67 1.351 . S
C66 N69 1.368 . S
C66 H71 0.931 . S
C67 C66 1.351 . S
C67 N68 1.373 . S
C67 H95 0.930 . S
N68 C67 1.373 . S
N68 C70 1.340 . S
N69 C66 1.368 . S
N69 C70 1.321 . S
N69 Co72 2.135 . S
C70 N68 1.340 . S
C70 N69 1.321 . S
C70 H94 0.930 . S
H71 C66 0.931 . S
Co72 N69 2.135 . S
Co72 N75 2.121 . S
Co72 O80 2.055 . S
Co72 O83 2.039 . S
Co72 N86 2.140 . S
C73 O74 1.227 . S
C73 O83 1.265 . S
O74 C73 1.227 . S
N75 Co72 2.121 . S
N75 C77 1.375 . S
N75 C78 1.313 . S
C76 C77 1.338 . S
C76 N79 1.377 . S
C76 H96 0.930 . S
C77 N75 1.375 . S
C77 C76 1.338 . S
C77 H81 0.931 . S
C78 N75 1.313 . S
C78 N79 1.344 . S
C78 H82 0.930 . S
N79 C76 1.377 . S
N79 C78 1.344 . S
O80 Co72 2.055 . S
O80 C84 1.253 . S
H81 C77 0.931 . S
H82 C78 0.930 . S
O83 Co72 2.039 . S
O83 C73 1.265 . S
C84 O80 1.253 . S
C84 O85 1.227 . S
O85 C84 1.227 . S
N86 Co72 2.140 . S
N86 C89 1.346 . S
N86 C90 1.345 . S
C87 C88 1.387 . S
C87 C91 1.391 . S
C88 C87 1.387 . S
C88 C89 1.369 . S
C88 H97 0.929 . S
C89 N86 1.346 . S
C89 C88 1.369 . S
C89 H92 0.928 . S
C90 N86 1.345 . S
C90 C91 1.371 . S
C90 H93 0.931 . S
C91 C87 1.391 . S
C91 C90 1.371 . S
C91 H98 0.930 . S
H92 C89 0.928 . S
H93 C90 0.931 . S
H94 C70 0.930 . S
H95 C67 0.930 . S
H96 C76 0.930 . S
H97 C88 0.929 . S
H98 C91 0.930 . S
C99 C100 1.351 . S
C99 N102 1.368 . S
C99 H104 0.931 . S
C100 C99 1.351 . S
C100 N101 1.373 1_655 S
C100 H128 0.930 . S
N101 C100 1.373 1_455 S
N101 C103 1.340 1_455 S
N102 C99 1.368 . S
N102 C103 1.321 . S
N102 Co105 2.135 . S
C103 N101 1.340 1_655 S
C103 N102 1.321 . S
C103 H127 0.930 1_655 S
H104 C99 0.931 . S
Co105 N102 2.135 . S
Co105 N108 2.121 . S
Co105 O113 2.055 . S
Co105 O116 2.039 . S
Co105 N119 2.140 . S
C106 O107 1.227 . S
C106 O116 1.265 . S
O107 C106 1.227 . S
N108 Co105 2.121 . S
N108 C110 1.375 . S
N108 C111 1.313 . S
C109 C110 1.338 . S
C109 N112 1.377 . S
C109 H129 0.930 . S
C110 N108 1.375 . S
C110 C109 1.338 . S
C110 H114 0.931 . S
C111 N108 1.313 . S
C111 N112 1.344 . S
C111 H115 0.930 . S
N112 C109 1.377 . S
N112 C111 1.344 . S
O113 Co105 2.055 . S
O113 C117 1.253 . S
H114 C110 0.931 . S
H115 C111 0.930 . S
O116 Co105 2.039 . S
O116 C106 1.265 . S
C117 O113 1.253 . S
C117 O118 1.227 . S
O118 C117 1.227 . S
N119 Co105 2.140 . S
N119 C122 1.346 . S
N119 C123 1.345 . S
C120 C121 1.387 . S
C120 C124 1.391 . S
C121 C120 1.387 . S
C121 C122 1.369 . S
C121 H130 0.929 . S
C122 N119 1.346 . S
C122 C121 1.369 . S
C122 H125 0.928 . S
C123 N119 1.345 . S
C123 C124 1.371 . S
C123 H126 0.931 . S
C124 C120 1.391 . S
C124 C123 1.371 . S
C124 H131 0.930 . S
H125 C122 0.928 . S
H126 C123 0.931 . S
H127 C103 0.930 1_455 S
H128 C100 0.930 . S
H129 C109 0.930 . S
H130 C121 0.929 . S
H131 C124 0.930 . S
C132 C133 1.351 . S
C132 N135 1.368 . S
C132 H137 0.931 . S
C133 C132 1.351 . S
C133 N134 1.373 . S
C133 H161 0.930 . S
N134 C133 1.373 . S
N134 C136 1.340 . S
N135 C132 1.368 . S
N135 C136 1.321 . S
N135 Co138 2.135 . S
C136 N134 1.340 . S
C136 N135 1.321 . S
C136 H160 0.930 . S
H137 C132 0.931 . S
Co138 N135 2.135 . S
Co138 N141 2.121 . S
Co138 O146 2.055 . S
Co138 O149 2.039 . S
Co138 N152 2.140 . S
C139 O140 1.227 . S
C139 O149 1.265 . S
O140 C139 1.227 . S
N141 Co138 2.121 . S
N141 C143 1.375 . S
N141 C144 1.313 . S
C142 C143 1.338 . S
C142 N145 1.377 . S
C142 H162 0.930 . S
C143 N141 1.375 . S
C143 C142 1.338 . S
C143 H147 0.931 . S
C144 N141 1.313 . S
C144 N145 1.344 . S
C144 H148 0.930 . S
N145 C142 1.377 . S
N145 C144 1.344 . S
O146 Co138 2.055 . S
O146 C150 1.253 . S
H147 C143 0.931 . S
H148 C144 0.930 . S
O149 Co138 2.039 . S
O149 C139 1.265 . S
C150 O146 1.253 . S
C150 O151 1.227 . S
O151 C150 1.227 . S
N152 Co138 2.140 . S
N152 C155 1.346 . S
N152 C156 1.345 . S
C153 C154 1.387 . S
C153 C157 1.391 . S
C154 C153 1.387 . S
C154 C155 1.369 . S
C154 H163 0.929 . S
C155 N152 1.346 . S
C155 C154 1.369 . S
C155 H158 0.928 . S
C156 N152 1.345 . S
C156 C157 1.371 . S
C156 H159 0.931 . S
C157 C153 1.391 . S
C157 C156 1.371 . S
C157 H164 0.930 . S
H158 C155 0.928 . S
H159 C156 0.931 . S
H160 C136 0.930 . S
H161 C133 0.930 . S
H162 C142 0.930 . S
H163 C154 0.929 . S
H164 C157 0.930 . S
C165 C166 1.351 . S
C165 N168 1.368 . S
C165 H170 0.931 . S
C166 C165 1.351 . S
C166 N167 1.373 . S
C166 H194 0.930 . S
N167 C166 1.373 . S
N167 C169 1.340 . S
N168 C165 1.368 . S
N168 C169 1.321 . S
N168 Co171 2.135 . S
C169 N167 1.340 . S
C169 N168 1.321 . S
C169 H193 0.930 . S
H170 C165 0.931 . S
Co171 N168 2.135 . S
Co171 N174 2.121 . S
Co171 O179 2.055 . S
Co171 O182 2.039 . S
Co171 N185 2.140 . S
C172 O173 1.227 . S
C172 O182 1.265 . S
O173 C172 1.227 . S
N174 Co171 2.121 . S
N174 C176 1.375 . S
N174 C177 1.313 . S
C175 C176 1.338 . S
C175 N178 1.377 . S
C175 H195 0.930 . S
C176 N174 1.375 . S
C176 C175 1.338 . S
C176 H180 0.931 . S
C177 N174 1.313 . S
C177 N178 1.344 . S
C177 H181 0.930 . S
N178 C175 1.377 . S
N178 C177 1.344 . S
O179 Co171 2.055 . S
O179 C183 1.253 . S
H180 C176 0.931 . S
H181 C177 0.930 . S
O182 Co171 2.039 . S
O182 C172 1.265 . S
C183 O179 1.253 . S
C183 O184 1.227 . S
O184 C183 1.227 . S
N185 Co171 2.140 . S
N185 C188 1.346 . S
N185 C189 1.345 . S
C186 C187 1.387 . S
C186 C190 1.391 . S
C187 C186 1.387 . S
C187 C188 1.369 . S
C187 H196 0.929 . S
C188 N185 1.346 . S
C188 C187 1.369 . S
C188 H191 0.928 . S
C189 N185 1.345 . S
C189 C190 1.371 . S
C189 H192 0.931 . S
C190 C186 1.391 . S
C190 C189 1.371 . S
C190 H197 0.930 . S
H191 C188 0.928 . S
H192 C189 0.931 . S
H193 C169 0.930 . S
H194 C166 0.930 . S
H195 C175 0.930 . S
H196 C187 0.929 . S
H197 C190 0.930 . S
C198 C199 1.351 . S
C198 N201 1.368 . S
C198 H203 0.931 . S
C199 C198 1.351 . S
C199 N200 1.373 . S
C199 H227 0.930 . S
N200 C199 1.373 . S
N200 C202 1.340 . S
N201 C198 1.368 . S
N201 C202 1.321 . S
N201 Co204 2.135 . S
C202 N200 1.340 . S
C202 N201 1.321 . S
C202 H226 0.930 . S
H203 C198 0.931 . S
Co204 N201 2.135 . S
Co204 N207 2.121 . S
Co204 O212 2.055 . S
Co204 O215 2.039 . S
Co204 N218 2.140 . S
C205 O206 1.227 . S
C205 O215 1.265 . S
O206 C205 1.227 . S
N207 Co204 2.121 . S
N207 C209 1.375 . S
N207 C210 1.313 . S
C208 C209 1.338 . S
C208 N211 1.377 . S
C208 H228 0.930 . S
C209 N207 1.375 . S
C209 C208 1.338 . S
C209 H213 0.931 . S
C210 N207 1.313 . S
C210 N211 1.344 . S
C210 H214 0.930 . S
N211 C208 1.377 . S
N211 C210 1.344 . S
O212 Co204 2.055 . S
O212 C216 1.253 . S
H213 C209 0.931 . S
H214 C210 0.930 . S
O215 Co204 2.039 . S
O215 C205 1.265 . S
C216 O212 1.253 . S
C216 O217 1.227 . S
O217 C216 1.227 . S
N218 Co204 2.140 . S
N218 C221 1.346 . S
N218 C222 1.345 . S
C219 C220 1.387 . S
C219 C223 1.391 . S
C220 C219 1.387 . S
C220 C221 1.369 . S
C220 H229 0.929 . S
C221 N218 1.346 . S
C221 C220 1.369 . S
C221 H224 0.928 . S
C222 N218 1.345 . S
C222 C223 1.371 . S
C222 H225 0.931 . S
C223 C219 1.391 . S
C223 C222 1.371 . S
C223 H230 0.930 . S
H224 C221 0.928 . S
H225 C222 0.931 . S
H226 C202 0.930 . S
H227 C199 0.930 . S
H228 C208 0.930 . S
H229 C220 0.929 . S
H230 C223 0.930 . S
C231 C232 1.351 . S
C231 N234 1.368 . S
C231 H236 0.931 . S
C232 C231 1.351 . S
C232 N233 1.373 1_455 S
C232 H260 0.930 . S
N233 C232 1.373 1_655 S
N233 C235 1.340 1_655 S
N234 C231 1.368 . S
N234 C235 1.321 . S
N234 Co237 2.135 . S
C235 N233 1.340 1_455 S
C235 N234 1.321 . S
C235 H259 0.930 1_455 S
H236 C231 0.931 . S
Co237 N234 2.135 . S
Co237 N240 2.121 . S
Co237 O245 2.055 . S
Co237 O248 2.039 . S
Co237 N251 2.140 . S
C238 O239 1.227 . S
C238 O248 1.265 . S
O239 C238 1.227 . S
N240 Co237 2.121 . S
N240 C242 1.375 . S
N240 C243 1.313 . S
C241 C242 1.338 . S
C241 N244 1.377 . S
C241 H261 0.930 . S
C242 N240 1.375 . S
C242 C241 1.338 . S
C242 H246 0.931 . S
C243 N240 1.313 . S
C243 N244 1.344 . S
C243 H247 0.930 . S
N244 C241 1.377 . S
N244 C243 1.344 . S
O245 Co237 2.055 . S
O245 C249 1.253 . S
H246 C242 0.931 . S
H247 C243 0.930 . S
O248 Co237 2.039 . S
O248 C238 1.265 . S
C249 O245 1.253 . S
C249 O250 1.227 . S
O250 C249 1.227 . S
N251 Co237 2.140 . S
N251 C254 1.346 . S
N251 C255 1.345 . S
C252 C253 1.387 . S
C252 C256 1.391 . S
C253 C252 1.387 . S
C253 C254 1.369 . S
C253 H262 0.929 . S
C254 N251 1.346 . S
C254 C253 1.369 . S
C254 H257 0.928 . S
C255 N251 1.345 . S
C255 C256 1.371 . S
C255 H258 0.931 . S
C256 C252 1.391 . S
C256 C255 1.371 . S
C256 H263 0.930 . S
H257 C254 0.928 . S
H258 C255 0.931 . S
H259 C235 0.930 1_655 S
H260 C232 0.930 . S
H261 C241 0.930 . S
H262 C253 0.929 . S
H263 C256 0.930 . S
C264 C265 1.351 . S
C264 N267 1.368 . S
C264 H269 0.931 . S
C265 C264 1.351 . S
C265 N266 1.373 . S
C265 H293 0.930 . S
N266 C265 1.373 . S
N266 C268 1.340 . S
N267 C264 1.368 . S
N267 C268 1.321 . S
N267 Co270 2.135 . S
C268 N266 1.340 . S
C268 N267 1.321 . S
C268 H292 0.930 . S
H269 C264 0.931 . S
Co270 N267 2.135 . S
Co270 N273 2.121 . S
Co270 O278 2.055 . S
Co270 O281 2.039 . S
Co270 N284 2.140 . S
C271 O272 1.227 . S
C271 O281 1.265 . S
O272 C271 1.227 . S
N273 Co270 2.121 . S
N273 C275 1.375 . S
N273 C276 1.313 . S
C274 C275 1.338 . S
C274 N277 1.377 . S
C274 H294 0.930 . S
C275 N273 1.375 . S
C275 C274 1.338 . S
C275 H279 0.931 . S
C276 N273 1.313 . S
C276 N277 1.344 . S
C276 H280 0.930 . S
N277 C274 1.377 . S
N277 C276 1.344 . S
O278 Co270 2.055 . S
O278 C282 1.253 . S
H279 C275 0.931 . S
H280 C276 0.930 . S
O281 Co270 2.039 . S
O281 C271 1.265 . S
C282 O278 1.253 . S
C282 O283 1.227 . S
O283 C282 1.227 . S
N284 Co270 2.140 . S
N284 C287 1.346 . S
N284 C288 1.345 . S
C285 C286 1.387 . S
C285 C289 1.391 . S
C286 C285 1.387 . S
C286 C287 1.369 . S
C286 H295 0.929 . S
C287 N284 1.346 . S
C287 C286 1.369 . S
C287 H290 0.928 . S
C288 N284 1.345 . S
C288 C289 1.371 . S
C288 H291 0.931 . S
C289 C285 1.391 . S
C289 C288 1.371 . S
C289 H296 0.930 . S
H290 C287 0.928 . S
H291 C288 0.931 . S
H292 C268 0.930 . S
H293 C265 0.930 . S
H294 C274 0.930 . S
H295 C286 0.929 . S
H296 C289 0.930 . S
C297 C298 1.351 . S
C297 N300 1.368 . S
C297 H302 0.931 . S
C298 C297 1.351 . S
C298 N299 1.373 1_556 S
C298 H326 0.930 . S
N299 C298 1.373 1_554 S
N299 C301 1.340 1_554 S
N300 C297 1.368 . S
N300 C301 1.321 . S
N300 Co303 2.135 . S
C301 N299 1.340 1_556 S
C301 N300 1.321 . S
C301 H325 0.930 1_556 S
H302 C297 0.931 . S
Co303 N300 2.135 . S
Co303 N306 2.121 . S
Co303 O311 2.055 . S
Co303 O314 2.039 . S
Co303 N317 2.140 . S
C304 O305 1.227 . S
C304 O314 1.265 . S
O305 C304 1.227 . S
N306 Co303 2.121 . S
N306 C308 1.375 . S
N306 C309 1.313 . S
C307 C308 1.338 . S
C307 N310 1.377 . S
C307 H327 0.930 . S
C308 N306 1.375 . S
C308 C307 1.338 . S
C308 H312 0.931 . S
C309 N306 1.313 . S
C309 N310 1.344 . S
C309 H313 0.930 . S
N310 C307 1.377 . S
N310 C309 1.344 . S
O311 Co303 2.055 . S
O311 C315 1.253 . S
H312 C308 0.931 . S
H313 C309 0.930 . S
O314 Co303 2.039 . S
O314 C304 1.265 . S
C315 O311 1.253 . S
C315 O316 1.227 . S
O316 C315 1.227 . S
N317 Co303 2.140 . S
N317 C320 1.346 . S
N317 C321 1.345 . S
C318 C319 1.387 . S
C318 C322 1.391 . S
C319 C318 1.387 . S
C319 C320 1.369 . S
C319 H328 0.929 . S
C320 N317 1.346 . S
C320 C319 1.369 . S
C320 H323 0.928 . S
C321 N317 1.345 . S
C321 C322 1.371 . S
C321 H324 0.931 . S
C322 C318 1.391 . S
C322 C321 1.371 . S
C322 H329 0.930 . S
H323 C320 0.928 . S
H324 C321 0.931 . S
H325 C301 0.930 1_554 S
H326 C298 0.930 . S
H327 C307 0.930 . S
H328 C319 0.929 . S
H329 C322 0.930 . S
C330 C331 1.351 . S
C330 N333 1.368 . S
C330 H335 0.931 . S
C331 C330 1.351 . S
C331 N332 1.373 . S
C331 H359 0.930 . S
N332 C331 1.373 . S
N332 C334 1.340 . S
N333 C330 1.368 . S
N333 C334 1.321 . S
N333 Co336 2.135 . S
C334 N332 1.340 . S
C334 N333 1.321 . S
C334 H358 0.930 . S
H335 C330 0.931 . S
Co336 N333 2.135 . S
Co336 N339 2.121 . S
Co336 O344 2.055 . S
Co336 O347 2.039 . S
Co336 N350 2.140 . S
C337 O338 1.227 . S
C337 O347 1.265 . S
O338 C337 1.227 . S
N339 Co336 2.121 . S
N339 C341 1.375 . S
N339 C342 1.313 . S
C340 C341 1.338 . S
C340 N343 1.377 . S
C340 H360 0.930 . S
C341 N339 1.375 . S
C341 C340 1.338 . S
C341 H345 0.931 . S
C342 N339 1.313 . S
C342 N343 1.344 . S
C342 H346 0.930 . S
N343 C340 1.377 . S
N343 C342 1.344 . S
O344 Co336 2.055 . S
O344 C348 1.253 . S
H345 C341 0.931 . S
H346 C342 0.930 . S
O347 Co336 2.039 . S
O347 C337 1.265 . S
C348 O344 1.253 . S
C348 O349 1.227 . S
O349 C348 1.227 . S
N350 Co336 2.140 . S
N350 C353 1.346 . S
N350 C354 1.345 . S
C351 C352 1.387 . S
C351 C355 1.391 . S
C352 C351 1.387 . S
C352 C353 1.369 . S
C352 H361 0.929 . S
C353 N350 1.346 . S
C353 C352 1.369 . S
C353 H356 0.928 . S
C354 N350 1.345 . S
C354 C355 1.371 . S
C354 H357 0.931 . S
C355 C351 1.391 . S
C355 C354 1.371 . S
C355 H362 0.930 . S
H356 C353 0.928 . S
H357 C354 0.931 . S
H358 C334 0.930 . S
H359 C331 0.930 . S
H360 C340 0.930 . S
H361 C352 0.929 . S
H362 C355 0.930 . S
C363 C364 1.351 . S
C363 N366 1.368 . S
C363 H368 0.931 . S
C364 C363 1.351 . S
C364 N365 1.373 . S
C364 H392 0.930 . S
N365 C364 1.373 . S
N365 C367 1.340 . S
N366 C363 1.368 . S
N366 C367 1.321 . S
N366 Co369 2.135 . S
C367 N365 1.340 . S
C367 N366 1.321 . S
C367 H391 0.930 . S
H368 C363 0.931 . S
Co369 N366 2.135 . S
Co369 N372 2.121 . S
Co369 O377 2.055 . S
Co369 O380 2.039 . S
Co369 N383 2.140 . S
C370 O371 1.227 . S
C370 O380 1.265 . S
O371 C370 1.227 . S
N372 Co369 2.121 . S
N372 C374 1.375 . S
N372 C375 1.313 . S
C373 C374 1.338 . S
C373 N376 1.377 . S
C373 H393 0.930 . S
C374 N372 1.375 . S
C374 C373 1.338 . S
C374 H378 0.931 . S
C375 N372 1.313 . S
C375 N376 1.344 . S
C375 H379 0.930 . S
N376 C373 1.377 . S
N376 C375 1.344 . S
O377 Co369 2.055 . S
O377 C381 1.253 . S
H378 C374 0.931 . S
H379 C375 0.930 . S
O380 Co369 2.039 . S
O380 C370 1.265 . S
C381 O377 1.253 . S
C381 O382 1.227 . S
O382 C381 1.227 . S
N383 Co369 2.140 . S
N383 C386 1.346 . S
N383 C387 1.345 . S
C384 C385 1.387 . S
C384 C388 1.391 . S
C385 C384 1.387 . S
C385 C386 1.369 . S
C385 H394 0.929 . S
C386 N383 1.346 . S
C386 C385 1.369 . S
C386 H389 0.928 . S
C387 N383 1.345 . S
C387 C388 1.371 . S
C387 H390 0.931 . S
C388 C384 1.391 . S
C388 C387 1.371 . S
C388 H395 0.930 . S
H389 C386 0.928 . S
H390 C387 0.931 . S
H391 C367 0.930 . S
H392 C364 0.930 . S
H393 C373 0.930 . S
H394 C385 0.929 . S
H395 C388 0.930 . S
C396 C397 1.351 . S
C396 N399 1.368 . S
C396 H401 0.931 . S
C397 C396 1.351 . S
C397 N398 1.373 . S
C397 H425 0.930 . S
N398 C397 1.373 . S
N398 C400 1.340 . S
N399 C396 1.368 . S
N399 C400 1.321 . S
N399 Co402 2.135 . S
C400 N398 1.340 . S
C400 N399 1.321 . S
C400 H424 0.930 . S
H401 C396 0.931 . S
Co402 N399 2.135 . S
Co402 N405 2.121 . S
Co402 O410 2.055 . S
Co402 O413 2.039 . S
Co402 N416 2.140 . S
C403 O404 1.227 . S
C403 O413 1.265 . S
O404 C403 1.227 . S
N405 Co402 2.121 . S
N405 C407 1.375 . S
N405 C408 1.313 . S
C406 C407 1.338 . S
C406 N409 1.377 . S
C406 H426 0.930 . S
C407 N405 1.375 . S
C407 C406 1.338 . S
C407 H411 0.931 . S
C408 N405 1.313 . S
C408 N409 1.344 . S
C408 H412 0.930 . S
N409 C406 1.377 . S
N409 C408 1.344 . S
O410 Co402 2.055 . S
O410 C414 1.253 . S
H411 C407 0.931 . S
H412 C408 0.930 . S
O413 Co402 2.039 . S
O413 C403 1.265 . S
C414 O410 1.253 . S
C414 O415 1.227 . S
O415 C414 1.227 . S
N416 Co402 2.140 . S
N416 C419 1.346 . S
N416 C420 1.345 . S
C417 C418 1.387 . S
C417 C421 1.391 . S
C418 C417 1.387 . S
C418 C419 1.369 . S
C418 H427 0.929 . S
C419 N416 1.346 . S
C419 C418 1.369 . S
C419 H422 0.928 . S
C420 N416 1.345 . S
C420 C421 1.371 . S
C420 H423 0.931 . S
C421 C417 1.391 . S
C421 C420 1.371 . S
C421 H428 0.930 . S
H422 C419 0.928 . S
H423 C420 0.931 . S
H424 C400 0.930 . S
H425 C397 0.930 . S
H426 C406 0.930 . S
H427 C418 0.929 . S
H428 C421 0.930 . S
C429 C430 1.351 . S
C429 N432 1.368 . S
C429 H434 0.931 . S
C430 C429 1.351 . S
C430 N431 1.373 . S
C430 H458 0.930 . S
N431 C430 1.373 . S
N431 C433 1.340 . S
N432 C429 1.368 . S
N432 C433 1.321 . S
N432 Co435 2.135 . S
C433 N431 1.340 . S
C433 N432 1.321 . S
C433 H457 0.930 . S
H434 C429 0.931 . S
Co435 N432 2.135 . S
Co435 N438 2.121 . S
Co435 O443 2.055 . S
Co435 O446 2.039 . S
Co435 N449 2.140 . S
C436 O437 1.227 . S
C436 O446 1.265 . S
O437 C436 1.227 . S
N438 Co435 2.121 . S
N438 C440 1.375 . S
N438 C441 1.313 . S
C439 C440 1.338 . S
C439 N442 1.377 . S
C439 H459 0.930 . S
C440 N438 1.375 . S
C440 C439 1.338 . S
C440 H444 0.931 . S
C441 N438 1.313 . S
C441 N442 1.344 . S
C441 H445 0.930 . S
N442 C439 1.377 . S
N442 C441 1.344 . S
O443 Co435 2.055 . S
O443 C447 1.253 . S
H444 C440 0.931 . S
H445 C441 0.930 . S
O446 Co435 2.039 . S
O446 C436 1.265 . S
C447 O443 1.253 . S
C447 O448 1.227 . S
O448 C447 1.227 . S
N449 Co435 2.140 . S
N449 C452 1.346 . S
N449 C453 1.345 . S
C450 C451 1.387 . S
C450 C454 1.391 . S
C451 C450 1.387 . S
C451 C452 1.369 . S
C451 H460 0.929 . S
C452 N449 1.346 . S
C452 C451 1.369 . S
C452 H455 0.928 . S
C453 N449 1.345 . S
C453 C454 1.371 . S
C453 H456 0.931 . S
C454 C450 1.391 . S
C454 C453 1.371 . S
C454 H461 0.930 . S
H455 C452 0.928 . S
H456 C453 0.931 . S
H457 C433 0.930 . S
H458 C430 0.930 . S
H459 C439 0.930 . S
H460 C451 0.929 . S
H461 C454 0.930 . S
C462 C463 1.351 . S
C462 N465 1.368 . S
C462 H467 0.931 . S
C463 C462 1.351 . S
C463 N464 1.373 . S
C463 H491 0.930 . S
N464 C463 1.373 . S
N464 C466 1.340 . S
N465 C462 1.368 . S
N465 C466 1.321 . S
N465 Co468 2.135 . S
C466 N464 1.340 . S
C466 N465 1.321 . S
C466 H490 0.930 . S
H467 C462 0.931 . S
Co468 N465 2.135 . S
Co468 N471 2.121 . S
Co468 O476 2.055 . S
Co468 O479 2.039 . S
Co468 N482 2.140 . S
C469 O470 1.227 . S
C469 O479 1.265 . S
O470 C469 1.227 . S
N471 Co468 2.121 . S
N471 C473 1.375 . S
N471 C474 1.313 . S
C472 C473 1.338 . S
C472 N475 1.377 . S
C472 H492 0.930 . S
C473 N471 1.375 . S
C473 C472 1.338 . S
C473 H477 0.931 . S
C474 N471 1.313 . S
C474 N475 1.344 . S
C474 H478 0.930 . S
N475 C472 1.377 . S
N475 C474 1.344 . S
O476 Co468 2.055 . S
O476 C480 1.253 . S
H477 C473 0.931 . S
H478 C474 0.930 . S
O479 Co468 2.039 . S
O479 C469 1.265 . S
C480 O476 1.253 . S
C480 O481 1.227 . S
O481 C480 1.227 . S
N482 Co468 2.140 . S
N482 C485 1.346 . S
N482 C486 1.345 . S
C483 C484 1.387 . S
C483 C487 1.391 . S
C484 C483 1.387 . S
C484 C485 1.369 . S
C484 H493 0.929 . S
C485 N482 1.346 . S
C485 C484 1.369 . S
C485 H488 0.928 . S
C486 N482 1.345 . S
C486 C487 1.371 . S
C486 H489 0.931 . S
C487 C483 1.391 . S
C487 C486 1.371 . S
C487 H494 0.930 . S
H488 C485 0.928 . S
H489 C486 0.931 . S
H490 C466 0.930 . S
H491 C463 0.930 . S
H492 C472 0.930 . S
H493 C484 0.929 . S
H494 C487 0.930 . S
C495 C496 1.351 . S
C495 N498 1.368 . S
C495 H500 0.931 . S
C496 C495 1.351 . S
C496 N497 1.373 1_554 S
C496 H524 0.930 . S
N497 C496 1.373 1_556 S
N497 C499 1.340 1_556 S
N498 C495 1.368 . S
N498 C499 1.321 . S
N498 Co501 2.135 . S
C499 N497 1.340 1_554 S
C499 N498 1.321 . S
C499 H523 0.930 1_554 S
H500 C495 0.931 . S
Co501 N498 2.135 . S
Co501 N504 2.121 . S
Co501 O509 2.055 . S
Co501 O512 2.039 . S
Co501 N515 2.140 . S
C502 O503 1.227 . S
C502 O512 1.265 . S
O503 C502 1.227 . S
N504 Co501 2.121 . S
N504 C506 1.375 . S
N504 C507 1.313 . S
C505 C506 1.338 . S
C505 N508 1.377 . S
C505 H525 0.930 . S
C506 N504 1.375 . S
C506 C505 1.338 . S
C506 H510 0.931 . S
C507 N504 1.313 . S
C507 N508 1.344 . S
C507 H511 0.930 . S
N508 C505 1.377 . S
N508 C507 1.344 . S
O509 Co501 2.055 . S
O509 C513 1.253 . S
H510 C506 0.931 . S
H511 C507 0.930 . S
O512 Co501 2.039 . S
O512 C502 1.265 . S
C513 O509 1.253 . S
C513 O514 1.227 . S
O514 C513 1.227 . S
N515 Co501 2.140 . S
N515 C518 1.346 . S
N515 C519 1.345 . S
C516 C517 1.387 . S
C516 C520 1.391 . S
C517 C516 1.387 . S
C517 C518 1.369 . S
C517 H526 0.929 . S
C518 N515 1.346 . S
C518 C517 1.369 . S
C518 H521 0.928 . S
C519 N515 1.345 . S
C519 C520 1.371 . S
C519 H522 0.931 . S
C520 C516 1.391 . S
C520 C519 1.371 . S
C520 H527 0.930 . S
H521 C518 0.928 . S
H522 C519 0.931 . S
H523 C499 0.930 1_556 S
H524 C496 0.930 . S
H525 C505 0.930 . S
H526 C517 0.929 . S
H527 C520 0.930 . S
C528 C529 1.351 . S
C528 N531 1.368 . S
C528 H533 0.931 . S
C529 C528 1.351 . S
C529 N530 1.373 . S
C529 H557 0.930 . S
N530 C529 1.373 . S
N530 C532 1.340 . S
N531 C528 1.368 . S
N531 C532 1.321 . S
N531 Co534 2.135 . S
C532 N530 1.340 . S
C532 N531 1.321 . S
C532 H556 0.930 . S
H533 C528 0.931 . S
Co534 N531 2.135 . S
Co534 N537 2.121 . S
Co534 O542 2.055 . S
Co534 O545 2.039 . S
Co534 N548 2.140 . S
C535 O536 1.227 . S
C535 O545 1.265 . S
O536 C535 1.227 . S
N537 Co534 2.121 . S
N537 C539 1.375 . S
N537 C540 1.313 . S
C538 C539 1.338 . S
C538 N541 1.377 . S
C538 H558 0.930 . S
C539 N537 1.375 . S
C539 C538 1.338 . S
C539 H543 0.931 . S
C540 N537 1.313 . S
C540 N541 1.344 . S
C540 H544 0.930 . S
N541 C538 1.377 . S
N541 C540 1.344 . S
O542 Co534 2.055 . S
O542 C546 1.253 . S
H543 C539 0.931 . S
H544 C540 0.930 . S
O545 Co534 2.039 . S
O545 C535 1.265 . S
C546 O542 1.253 . S
C546 O547 1.227 . S
O547 C546 1.227 . S
N548 Co534 2.140 . S
N548 C551 1.346 . S
N548 C552 1.345 . S
C549 C550 1.387 . S
C549 C553 1.391 . S
C550 C549 1.387 . S
C550 C551 1.369 . S
C550 H559 0.929 . S
C551 N548 1.346 . S
C551 C550 1.369 . S
C551 H554 0.928 . S
C552 N548 1.345 . S
C552 C553 1.371 . S
C552 H555 0.931 . S
C553 C549 1.391 . S
C553 C552 1.371 . S
C553 H560 0.930 . S
H554 C551 0.928 . S
H555 C552 0.931 . S
H556 C532 0.930 . S
H557 C529 0.930 . S
H558 C538 0.930 . S
H559 C550 0.929 . S
H560 C553 0.930 . S
C561 C562 1.351 . S
C561 N564 1.368 . S
C561 H566 0.931 . S
C562 C561 1.351 . S
C562 N563 1.373 . S
C562 H590 0.930 . S
N563 C562 1.373 . S
N563 C565 1.340 . S
N564 C561 1.368 . S
N564 C565 1.321 . S
N564 Co567 2.135 . S
C565 N563 1.340 . S
C565 N564 1.321 . S
C565 H589 0.930 . S
H566 C561 0.931 . S
Co567 N564 2.135 . S
Co567 N570 2.121 . S
Co567 O575 2.055 . S
Co567 O578 2.039 . S
Co567 N581 2.140 . S
C568 O569 1.227 . S
C568 O578 1.265 . S
O569 C568 1.227 . S
N570 Co567 2.121 . S
N570 C572 1.375 . S
N570 C573 1.313 . S
C571 C572 1.338 . S
C571 N574 1.377 . S
C571 H591 0.930 . S
C572 N570 1.375 . S
C572 C571 1.338 . S
C572 H576 0.931 . S
C573 N570 1.313 . S
C573 N574 1.344 . S
C573 H577 0.930 . S
N574 C571 1.377 . S
N574 C573 1.344 . S
O575 Co567 2.055 . S
O575 C579 1.253 . S
H576 C572 0.931 . S
H577 C573 0.930 . S
O578 Co567 2.039 . S
O578 C568 1.265 . S
C579 O575 1.253 . S
C579 O580 1.227 . S
O580 C579 1.227 . S
N581 Co567 2.140 . S
N581 C584 1.346 . S
N581 C585 1.345 . S
C582 C583 1.387 . S
C582 C586 1.391 . S
C583 C582 1.387 . S
C583 C584 1.369 . S
C583 H592 0.929 . S
C584 N581 1.346 . S
C584 C583 1.369 . S
C584 H587 0.928 . S
C585 N581 1.345 . S
C585 C586 1.371 . S
C585 H588 0.931 . S
C586 C582 1.391 . S
C586 C585 1.371 . S
C586 H593 0.930 . S
H587 C584 0.928 . S
H588 C585 0.931 . S
H589 C565 0.930 . S
H590 C562 0.930 . S
H591 C571 0.930 . S
H592 C583 0.929 . S
H593 C586 0.930 . S
C594 C595 1.351 . S
C594 N597 1.368 . S
C594 H599 0.931 . S
C595 C594 1.351 . S
C595 N596 1.373 1_565 S
C595 H623 0.930 . S
N596 C595 1.373 1_545 S
N596 C598 1.340 1_545 S
N597 C594 1.368 . S
N597 C598 1.321 . S
N597 Co600 2.135 . S
C598 N596 1.340 1_565 S
C598 N597 1.321 . S
C598 H622 0.930 1_565 S
H599 C594 0.931 . S
Co600 N597 2.135 . S
Co600 N603 2.121 . S
Co600 O608 2.055 . S
Co600 O611 2.039 . S
Co600 N614 2.140 . S
C601 O602 1.227 . S
C601 O611 1.265 . S
O602 C601 1.227 . S
N603 Co600 2.121 . S
N603 C605 1.375 . S
N603 C606 1.313 . S
C604 C605 1.338 . S
C604 N607 1.377 . S
C604 H624 0.930 . S
C605 N603 1.375 . S
C605 C604 1.338 . S
C605 H609 0.931 . S
C606 N603 1.313 . S
C606 N607 1.344 . S
C606 H610 0.930 . S
N607 C604 1.377 . S
N607 C606 1.344 . S
O608 Co600 2.055 . S
O608 C612 1.253 . S
H609 C605 0.931 . S
H610 C606 0.930 . S
O611 Co600 2.039 . S
O611 C601 1.265 . S
C612 O608 1.253 . S
C612 O613 1.227 . S
O613 C612 1.227 . S
N614 Co600 2.140 . S
N614 C617 1.346 . S
N614 C618 1.345 . S
C615 C616 1.387 . S
C615 C619 1.391 . S
C616 C615 1.387 . S
C616 C617 1.369 . S
C616 H625 0.929 . S
C617 N614 1.346 . S
C617 C616 1.369 . S
C617 H620 0.928 . S
C618 N614 1.345 . S
C618 C619 1.371 . S
C618 H621 0.931 . S
C619 C615 1.391 . S
C619 C618 1.371 . S
C619 H626 0.930 . S
H620 C617 0.928 . S
H621 C618 0.931 . S
H622 C598 0.930 1_545 S
H623 C595 0.930 . S
H624 C604 0.930 . S
H625 C616 0.929 . S
H626 C619 0.930 . S
C627 C628 1.351 . S
C627 N630 1.368 . S
C627 H632 0.931 . S
C628 C627 1.351 . S
C628 N629 1.373 . S
C628 H656 0.930 . S
N629 C628 1.373 . S
N629 C631 1.340 . S
N630 C627 1.368 . S
N630 C631 1.321 . S
N630 Co633 2.135 . S
C631 N629 1.340 . S
C631 N630 1.321 . S
C631 H655 0.930 . S
H632 C627 0.931 . S
Co633 N630 2.135 . S
Co633 N636 2.121 . S
Co633 O641 2.055 . S
Co633 O644 2.039 . S
Co633 N647 2.140 . S
C634 O635 1.227 . S
C634 O644 1.265 . S
O635 C634 1.227 . S
N636 Co633 2.121 . S
N636 C638 1.375 . S
N636 C639 1.313 . S
C637 C638 1.338 . S
C637 N640 1.377 . S
C637 H657 0.930 . S
C638 N636 1.375 . S
C638 C637 1.338 . S
C638 H642 0.931 . S
C639 N636 1.313 . S
C639 N640 1.344 . S
C639 H643 0.930 . S
N640 C637 1.377 . S
N640 C639 1.344 . S
O641 Co633 2.055 . S
O641 C645 1.253 . S
H642 C638 0.931 . S
H643 C639 0.930 . S
O644 Co633 2.039 . S
O644 C634 1.265 . S
C645 O641 1.253 . S
C645 O646 1.227 . S
O646 C645 1.227 . S
N647 Co633 2.140 . S
N647 C650 1.346 . S
N647 C651 1.345 . S
C648 C649 1.387 . S
C648 C652 1.391 . S
C649 C648 1.387 . S
C649 C650 1.369 . S
C649 H658 0.929 . S
C650 N647 1.346 . S
C650 C649 1.369 . S
C650 H653 0.928 . S
C651 N647 1.345 . S
C651 C652 1.371 . S
C651 H654 0.931 . S
C652 C648 1.391 . S
C652 C651 1.371 . S
C652 H659 0.930 . S
H653 C650 0.928 . S
H654 C651 0.931 . S
H655 C631 0.930 . S
H656 C628 0.930 . S
H657 C637 0.930 . S
H658 C649 0.929 . S
H659 C652 0.930 . S
C660 C661 1.351 . S
C660 N663 1.368 . S
C660 H665 0.931 . S
C661 C660 1.351 . S
C661 N662 1.373 1_545 S
C661 H689 0.930 . S
N662 C661 1.373 1_565 S
N662 C664 1.340 1_565 S
N663 C660 1.368 . S
N663 C664 1.321 . S
N663 Co666 2.135 . S
C664 N662 1.340 1_545 S
C664 N663 1.321 . S
C664 H688 0.930 1_545 S
H665 C660 0.931 . S
Co666 N663 2.135 . S
Co666 N669 2.121 . S
Co666 O674 2.055 . S
Co666 O677 2.039 . S
Co666 N680 2.140 . S
C667 O668 1.227 . S
C667 O677 1.265 . S
O668 C667 1.227 . S
N669 Co666 2.121 . S
N669 C671 1.375 . S
N669 C672 1.313 . S
C670 C671 1.338 . S
C670 N673 1.377 . S
C670 H690 0.930 . S
C671 N669 1.375 . S
C671 C670 1.338 . S
C671 H675 0.931 . S
C672 N669 1.313 . S
C672 N673 1.344 . S
C672 H676 0.930 . S
N673 C670 1.377 . S
N673 C672 1.344 . S
O674 Co666 2.055 . S
O674 C678 1.253 . S
H675 C671 0.931 . S
H676 C672 0.930 . S
O677 Co666 2.039 . S
O677 C667 1.265 . S
C678 O674 1.253 . S
C678 O679 1.227 . S
O679 C678 1.227 . S
N680 Co666 2.140 . S
N680 C683 1.346 . S
N680 C684 1.345 . S
C681 C682 1.387 . S
C681 C685 1.391 . S
C682 C681 1.387 . S
C682 C683 1.369 . S
C682 H691 0.929 . S
C683 N680 1.346 . S
C683 C682 1.369 . S
C683 H686 0.928 . S
C684 N680 1.345 . S
C684 C685 1.371 . S
C684 H687 0.931 . S
C685 C681 1.391 . S
C685 C684 1.371 . S
C685 H692 0.930 . S
H686 C683 0.928 . S
H687 C684 0.931 . S
H688 C664 0.930 1_565 S
H689 C661 0.930 . S
H690 C670 0.930 . S
H691 C682 0.929 . S
H692 C685 0.930 . S
C693 C694 1.351 . S
C693 N696 1.368 . S
C693 H698 0.931 . S
C694 C693 1.351 . S
C694 N695 1.373 . S
C694 H722 0.930 . S
N695 C694 1.373 . S
N695 C697 1.340 . S
N696 C693 1.368 . S
N696 C697 1.321 . S
N696 Co699 2.135 . S
C697 N695 1.340 . S
C697 N696 1.321 . S
C697 H721 0.930 . S
H698 C693 0.931 . S
Co699 N696 2.135 . S
Co699 N702 2.121 . S
Co699 O707 2.055 . S
Co699 O710 2.039 . S
Co699 N713 2.140 . S
C700 O701 1.227 . S
C700 O710 1.265 . S
O701 C700 1.227 . S
N702 Co699 2.121 . S
N702 C704 1.375 . S
N702 C705 1.313 . S
C703 C704 1.338 . S
C703 N706 1.377 . S
C703 H723 0.930 . S
C704 N702 1.375 . S
C704 C703 1.338 . S
C704 H708 0.931 . S
C705 N702 1.313 . S
C705 N706 1.344 . S
C705 H709 0.930 . S
N706 C703 1.377 . S
N706 C705 1.344 . S
O707 Co699 2.055 . S
O707 C711 1.253 . S
H708 C704 0.931 . S
H709 C705 0.930 . S
O710 Co699 2.039 . S
O710 C700 1.265 . S
C711 O707 1.253 . S
C711 O712 1.227 . S
O712 C711 1.227 . S
N713 Co699 2.140 . S
N713 C716 1.346 . S
N713 C717 1.345 . S
C714 C715 1.387 . S
C714 C718 1.391 . S
C715 C714 1.387 . S
C715 C716 1.369 . S
C715 H724 0.929 . S
C716 N713 1.346 . S
C716 C715 1.369 . S
C716 H719 0.928 . S
C717 N713 1.345 . S
C717 C718 1.371 . S
C717 H720 0.931 . S
C718 C714 1.391 . S
C718 C717 1.371 . S
C718 H725 0.930 . S
H719 C716 0.928 . S
H720 C717 0.931 . S
H721 C697 0.930 . S
H722 C694 0.930 . S
H723 C703 0.930 . S
H724 C715 0.929 . S
H725 C718 0.930 . S
C726 C727 1.351 . S
C726 N729 1.368 . S
C726 H731 0.931 . S
C727 C726 1.351 . S
C727 N728 1.373 . S
C727 H755 0.930 . S
N728 C727 1.373 . S
N728 C730 1.340 . S
N729 C726 1.368 . S
N729 C730 1.321 . S
N729 Co732 2.135 . S
C730 N728 1.340 . S
C730 N729 1.321 . S
C730 H754 0.930 . S
H731 C726 0.931 . S
Co732 N729 2.135 . S
Co732 N735 2.121 . S
Co732 O740 2.055 . S
Co732 O743 2.039 . S
Co732 N746 2.140 . S
C733 O734 1.227 . S
C733 O743 1.265 . S
O734 C733 1.227 . S
N735 Co732 2.121 . S
N735 C737 1.375 . S
N735 C738 1.313 . S
C736 C737 1.338 . S
C736 N739 1.377 . S
C736 H756 0.930 . S
C737 N735 1.375 . S
C737 C736 1.338 . S
C737 H741 0.931 . S
C738 N735 1.313 . S
C738 N739 1.344 . S
C738 H742 0.930 . S
N739 C736 1.377 . S
N739 C738 1.344 . S
O740 Co732 2.055 . S
O740 C744 1.253 . S
H741 C737 0.931 . S
H742 C738 0.930 . S
O743 Co732 2.039 . S
O743 C733 1.265 . S
C744 O740 1.253 . S
C744 O745 1.227 . S
O745 C744 1.227 . S
N746 Co732 2.140 . S
N746 C749 1.346 . S
N746 C750 1.345 . S
C747 C748 1.387 . S
C747 C751 1.391 . S
C748 C747 1.387 . S
C748 C749 1.369 . S
C748 H757 0.929 . S
C749 N746 1.346 . S
C749 C748 1.369 . S
C749 H752 0.928 . S
C750 N746 1.345 . S
C750 C751 1.371 . S
C750 H753 0.931 . S
C751 C747 1.391 . S
C751 C750 1.371 . S
C751 H758 0.930 . S
H752 C749 0.928 . S
H753 C750 0.931 . S
H754 C730 0.930 . S
H755 C727 0.930 . S
H756 C736 0.930 . S
H757 C748 0.929 . S
H758 C751 0.930 . S
C759 C760 1.351 . S
C759 N762 1.368 . S
C759 H764 0.931 . S
C760 C759 1.351 . S
C760 N761 1.373 . S
C760 H788 0.930 . S
N761 C760 1.373 . S
N761 C763 1.340 . S
N762 C759 1.368 . S
N762 C763 1.321 . S
N762 Co765 2.135 . S
C763 N761 1.340 . S
C763 N762 1.321 . S
C763 H787 0.930 . S
H764 C759 0.931 . S
Co765 N762 2.135 . S
Co765 N768 2.121 . S
Co765 O773 2.055 . S
Co765 O776 2.039 . S
Co765 N779 2.140 . S
C766 O767 1.227 . S
C766 O776 1.265 . S
O767 C766 1.227 . S
N768 Co765 2.121 . S
N768 C770 1.375 . S
N768 C771 1.313 . S
C769 C770 1.338 . S
C769 N772 1.377 . S
C769 H789 0.930 . S
C770 N768 1.375 . S
C770 C769 1.338 . S
C770 H774 0.931 . S
C771 N768 1.313 . S
C771 N772 1.344 . S
C771 H775 0.930 . S
N772 C769 1.377 . S
N772 C771 1.344 . S
O773 Co765 2.055 . S
O773 C777 1.253 . S
H774 C770 0.931 . S
H775 C771 0.930 . S
O776 Co765 2.039 . S
O776 C766 1.265 . S
C777 O773 1.253 . S
C777 O778 1.227 . S
O778 C777 1.227 . S
N779 Co765 2.140 . S
N779 C782 1.346 . S
N779 C783 1.345 . S
C780 C781 1.387 . S
C780 C784 1.391 . S
C781 C780 1.387 . S
C781 C782 1.369 . S
C781 H790 0.929 . S
C782 N779 1.346 . S
C782 C781 1.369 . S
C782 H785 0.928 . S
C783 N779 1.345 . S
C783 C784 1.371 . S
C783 H786 0.931 . S
C784 C780 1.391 . S
C784 C783 1.371 . S
C784 H791 0.930 . S
H785 C782 0.928 . S
H786 C783 0.931 . S
H787 C763 0.930 . S
H788 C760 0.930 . S
H789 C769 0.930 . S
H790 C781 0.929 . S
H791 C784 0.930 . S
H792 C800 0.950 . S
H793 C805 0.950 . S
H794 C802 0.950 . S
H795 C804 0.950 . S
H796 C806 0.950 . S
H797 C808 0.950 . S
H798 C810 0.950 . S
H799 C811 0.950 . S
C800 H792 0.950 . S
C800 C801 1.386 . S
C800 C802 1.391 . S
C801 C800 1.386 . S
C801 C805 1.393 . S
C802 H794 0.950 . S
C802 C800 1.391 . S
C802 C803 1.400 . S
C803 C802 1.400 . S
C803 C804 1.398 . S
C803 C809 1.491 . S
C804 H795 0.950 . S
C804 C803 1.398 . S
C804 C805 1.391 . S
C805 H793 0.950 . S
C805 C801 1.393 . S
C805 C804 1.391 . S
C806 H796 0.950 . S
C806 C807 1.386 . S
C806 C808 1.391 . S
C807 C806 1.386 . S
C807 C811 1.393 . S
C808 H797 0.950 . S
C808 C806 1.391 . S
C808 C809 1.400 . S
C809 C803 1.491 . S
C809 C808 1.400 . S
C809 C810 1.398 . S
C810 H798 0.950 . S
C810 C809 1.398 . S
C810 C811 1.391 . S
C811 H799 0.950 . S
C811 C807 1.393 . S
C811 C810 1.391 . S
H812 C820 0.950 . S
H813 C825 0.950 . S
H814 C822 0.950 . S
H815 C824 0.950 . S
H816 C826 0.950 . S
H817 C828 0.950 . S
H818 C830 0.950 . S
H819 C831 0.950 . S
C820 H812 0.950 . S
C820 C821 1.386 . S
C820 C822 1.391 . S
C821 C820 1.386 . S
C821 C825 1.393 . S
C822 H814 0.950 . S
C822 C820 1.391 . S
C822 C823 1.400 . S
C823 C822 1.400 . S
C823 C824 1.398 . S
C823 C829 1.491 . S
C824 H815 0.950 . S
C824 C823 1.398 . S
C824 C825 1.391 . S
C825 H813 0.950 . S
C825 C821 1.393 . S
C825 C824 1.391 . S
C826 H816 0.950 . S
C826 C827 1.386 . S
C826 C828 1.391 . S
C827 C826 1.386 . S
C827 C831 1.393 . S
C828 H817 0.950 . S
C828 C826 1.391 . S
C828 C829 1.400 . S
C829 C823 1.491 . S
C829 C828 1.400 . S
C829 C830 1.398 . S
C830 H818 0.950 . S
C830 C829 1.398 . S
C830 C831 1.391 . S
C831 H819 0.950 . S
C831 C827 1.393 . S
C831 C830 1.391 . S
H832 C840 0.950 . S
H833 C845 0.950 . S
H834 C842 0.950 . S
H835 C844 0.950 . S
H836 C846 0.950 . S
H837 C848 0.950 . S
H838 C850 0.950 . S
H839 C851 0.950 . S
C840 H832 0.950 . S
C840 C841 1.386 . S
C840 C842 1.391 . S
C841 C840 1.386 . S
C841 C845 1.393 . S
C842 H834 0.950 . S
C842 C840 1.391 . S
C842 C843 1.400 . S
C843 C842 1.400 . S
C843 C844 1.398 . S
C843 C849 1.491 . S
C844 H835 0.950 . S
C844 C843 1.398 . S
C844 C845 1.391 . S
C845 H833 0.950 . S
C845 C841 1.393 . S
C845 C844 1.391 . S
C846 H836 0.950 . S
C846 C847 1.386 . S
C846 C848 1.391 . S
C847 C846 1.386 . S
C847 C851 1.393 . S
C848 H837 0.950 . S
C848 C846 1.391 . S
C848 C849 1.400 . S
C849 C843 1.491 . S
C849 C848 1.400 . S
C849 C850 1.398 . S
C850 H838 0.950 . S
C850 C849 1.398 . S
C850 C851 1.391 . S
C851 H839 0.950 . S
C851 C847 1.393 . S
C851 C850 1.391 . S
H852 C860 0.950 . S
H853 C865 0.950 . S
H854 C862 0.950 . S
H855 C864 0.950 . S
H856 C866 0.950 . S
H857 C868 0.950 . S
H858 C870 0.950 . S
H859 C871 0.950 . S
C860 H852 0.950 . S
C860 C861 1.386 . S
C860 C862 1.391 . S
C861 C860 1.386 . S
C861 C865 1.393 . S
C862 H854 0.950 . S
C862 C860 1.391 . S
C862 C863 1.400 . S
C863 C862 1.400 . S
C863 C864 1.398 . S
C863 C869 1.491 . S
C864 H855 0.950 . S
C864 C863 1.398 . S
C864 C865 1.391 . S
C865 H853 0.950 . S
C865 C861 1.393 . S
C865 C864 1.391 . S
C866 H856 0.950 . S
C866 C867 1.386 . S
C866 C868 1.391 . S
C867 C866 1.386 . S
C867 C871 1.393 . S
C868 H857 0.950 . S
C868 C866 1.391 . S
C868 C869 1.400 . S
C869 C863 1.491 . S
C869 C868 1.400 . S
C869 C870 1.398 . S
C870 H858 0.950 . S
C870 C869 1.398 . S
C870 C871 1.391 . S
C871 H859 0.950 . S
C871 C867 1.393 . S
C871 C870 1.391 . S
H872 C880 0.950 . S
H873 C885 0.950 . S
H874 C882 0.950 . S
H875 C884 0.950 . S
H876 C886 0.950 . S
H877 C888 0.950 . S
H878 C890 0.950 . S
H879 C891 0.950 . S
C880 H872 0.950 . S
C880 C881 1.386 . S
C880 C882 1.391 . S
C881 C880 1.386 . S
C881 C885 1.393 . S
C882 H874 0.950 . S
C882 C880 1.391 . S
C882 C883 1.400 . S
C883 C882 1.400 . S
C883 C884 1.398 . S
C883 C889 1.491 . S
C884 H875 0.950 . S
C884 C883 1.398 . S
C884 C885 1.391 . S
C885 H873 0.950 . S
C885 C881 1.393 . S
C885 C884 1.391 . S
C886 H876 0.950 . S
C886 C887 1.386 . S
C886 C888 1.391 . S
C887 C886 1.386 . S
C887 C891 1.393 . S
C888 H877 0.950 . S
C888 C886 1.391 . S
C888 C889 1.400 . S
C889 C883 1.491 . S
C889 C888 1.400 . S
C889 C890 1.398 . S
C890 H878 0.950 . S
C890 C889 1.398 . S
C890 C891 1.391 . S
C891 H879 0.950 . S
C891 C887 1.393 . S
C891 C890 1.391 . S
H892 C900 0.950 . S
H893 C905 0.950 . S
H894 C902 0.946 1_565 S
H895 C904 0.950 . S
H896 C906 0.950 . S
H897 C908 0.950 . S
H898 C910 0.950 . S
H899 C911 0.950 . S
C900 H892 0.950 . S
C900 C901 1.386 . S
C900 C902 1.408 . S
C901 C900 1.386 . S
C901 C905 1.393 . S
C902 H894 0.946 1_545 S
C902 C900 1.408 . S
C902 C903 1.388 1_545 S
C903 C902 1.388 1_565 S
C903 C904 1.398 . S
C903 C909 1.491 . S
C904 H895 0.950 . S
C904 C903 1.398 . S
C904 C905 1.391 1_565 S
C905 H893 0.950 . S
C905 C901 1.393 . S
C905 C904 1.391 1_545 S
C906 H896 0.950 . S
C906 C907 1.386 . S
C906 C908 1.391 . S
C907 C906 1.386 . S
C907 C911 1.393 . S
C908 H897 0.950 . S
C908 C906 1.391 . S
C908 C909 1.400 . S
C909 C903 1.491 . S
C909 C908 1.400 . S
C909 C910 1.398 . S
C910 H898 0.950 . S
C910 C909 1.398 . S
C910 C911 1.391 . S
C911 H899 0.950 . S
C911 C907 1.393 . S
C911 C910 1.391 . S
H912 C920 0.950 . S
H913 C925 0.950 . S
H914 C922 0.950 . S
H915 C924 0.950 . S
H916 C926 0.950 . S
H917 C928 0.950 . S
H918 C930 0.950 . S
H919 C931 0.950 1_556 S
C920 H912 0.950 . S
C920 C921 1.386 . S
C920 C922 1.391 . S
C921 C920 1.386 . S
C921 C925 1.393 . S
C922 H914 0.950 . S
C922 C920 1.391 . S
C922 C923 1.400 . S
C923 C922 1.400 . S
C923 C924 1.398 . S
C923 C929 1.491 . S
C924 H915 0.950 . S
C924 C923 1.398 . S
C924 C925 1.391 . S
C925 H913 0.950 . S
C925 C921 1.393 . S
C925 C924 1.391 . S
C926 H916 0.950 . S
C926 C927 1.386 . S
C926 C928 1.391 . S
C927 C926 1.386 . S
C927 C931 1.393 . S
C928 H917 0.950 . S
C928 C926 1.391 . S
C928 C929 1.400 . S
C929 C923 1.491 . S
C929 C928 1.400 . S
C929 C930 1.398 . S
C930 H918 0.950 . S
C930 C929 1.398 . S
C930 C931 1.391 . S
C931 H919 0.950 1_554 S
C931 C927 1.393 . S
C931 C930 1.391 . S
H932 C940 0.950 . S
H933 C945 0.950 . S
H934 C942 0.950 . S
H935 C944 0.950 . S
H936 C946 0.950 . S
H937 C948 0.950 . S
H938 C950 0.950 . S
H939 C951 0.950 . S
C940 H932 0.950 . S
C940 C941 1.386 . S
C940 C942 1.391 1_565 S
C941 C940 1.386 . S
C941 C945 1.393 . S
C942 H934 0.950 . S
C942 C940 1.391 1_545 S
C942 C943 1.400 . S
C943 C942 1.400 . S
C943 C944 1.398 . S
C943 C949 1.491 . S
C944 H935 0.950 . S
C944 C943 1.398 . S
C944 C945 1.391 1_545 S
C945 H933 0.950 . S
C945 C941 1.393 . S
C945 C944 1.391 1_565 S
C946 H936 0.950 . S
C946 C947 1.386 . S
C946 C948 1.391 . S
C947 C946 1.386 . S
C947 C951 1.393 . S
C948 H937 0.950 . S
C948 C946 1.391 . S
C948 C949 1.400 . S
C949 C943 1.491 . S
C949 C948 1.400 . S
C949 C950 1.398 . S
C950 H938 0.950 . S
C950 C949 1.398 . S
C950 C951 1.391 . S
C951 H939 0.950 . S
C951 C947 1.393 . S
C951 C950 1.391 . S
H952 C960 0.950 . S
H953 C965 0.950 . S
H954 C962 0.950 . S
H955 C964 0.950 . S
H956 C966 0.950 . S
H957 C968 0.950 . S
H958 C970 0.950 . S
H959 C971 0.950 . S
C960 H952 0.950 . S
C960 C961 1.386 . S
C960 C962 1.391 . S
C961 C960 1.386 . S
C961 C965 1.393 . S
C962 H954 0.950 . S
C962 C960 1.391 . S
C962 C963 1.400 . S
C963 C962 1.400 . S
C963 C964 1.398 . S
C963 C969 1.491 . S
C964 H955 0.950 . S
C964 C963 1.398 . S
C964 C965 1.391 . S
C965 H953 0.950 . S
C965 C961 1.393 . S
C965 C964 1.391 . S
C966 H956 0.950 . S
C966 C967 1.386 . S
C966 C968 1.391 . S
C967 C966 1.386 . S
C967 C971 1.393 . S
C968 H957 0.950 . S
C968 C966 1.391 . S
C968 C969 1.400 . S
C969 C963 1.491 . S
C969 C968 1.400 . S
C969 C970 1.398 . S
C970 H958 0.950 . S
C970 C969 1.398 . S
C970 C971 1.391 . S
C971 H959 0.950 . S
C971 C967 1.393 . S
C971 C970 1.391 . S
H972 C980 0.950 . S
H973 C985 0.950 . S
H974 C982 0.950 . S
H975 C984 0.950 . S
H976 C986 0.950 . S
H977 C988 0.950 . S
H978 C990 0.950 . S
H979 C991 0.950 . S
C980 H972 0.950 . S
C980 C981 1.386 . S
C980 C982 1.391 . S
C981 C980 1.386 . S
C981 C985 1.393 . S
C982 H974 0.950 . S
C982 C980 1.391 . S
C982 C983 1.400 . S
C983 C982 1.400 . S
C983 C984 1.398 . S
C983 C989 1.491 . S
C984 H975 0.950 . S
C984 C983 1.398 . S
C984 C985 1.391 . S
C985 H973 0.950 . S
C985 C981 1.393 . S
C985 C984 1.391 . S
C986 H976 0.950 . S
C986 C987 1.386 . S
C986 C988 1.391 . S
C987 C986 1.386 . S
C987 C991 1.393 . S
C988 H977 0.950 . S
C988 C986 1.391 . S
C988 C989 1.400 . S
C989 C983 1.491 . S
C989 C988 1.400 . S
C989 C990 1.398 . S
C990 H978 0.950 . S
C990 C989 1.398 . S
C990 C991 1.391 . S
C991 H979 0.950 . S
C991 C987 1.393 . S
C991 C990 1.391 . S
H992 C1000 0.950 . S
H993 C1005 0.950 . S
H994 C1002 0.950 . S
H995 C1004 0.950 . S
H996 C1006 0.950 1_655 S
H997 C1008 0.950 . S
H998 C1010 0.950 . S
H999 C1011 0.950 . S
C1000 H992 0.950 . S
C1000 C1001 1.386 . S
C1000 C1002 1.391 . S
C1001 C1000 1.386 . S
C1001 C1005 1.393 . S
C1002 H994 0.950 . S
C1002 C1000 1.391 . S
C1002 C1003 1.400 . S
C1003 C1002 1.400 . S
C1003 C1004 1.398 . S
C1003 C1009 1.491 . S
C1004 H995 0.950 . S
C1004 C1003 1.398 . S
C1004 C1005 1.391 . S
C1005 H993 0.950 . S
C1005 C1001 1.393 . S
C1005 C1004 1.391 . S
C1006 H996 0.950 1_455 S
C1006 C1007 1.386 . S
C1006 C1008 1.391 . S
C1007 C1006 1.386 . S
C1007 C1011 1.393 . S
C1008 H997 0.950 . S
C1008 C1006 1.391 . S
C1008 C1009 1.400 . S
C1009 C1003 1.491 . S
C1009 C1008 1.400 . S
C1009 C1010 1.398 . S
C1010 H998 0.950 . S
C1010 C1009 1.398 . S
C1010 C1011 1.391 . S
C1011 H999 0.950 . S
C1011 C1007 1.393 . S
C1011 C1010 1.391 . S
H1012 C1020 0.950 . S
H1013 C1025 0.950 . S
H1014 C1022 0.950 . S
H1015 C1024 0.950 . S
H1016 C1026 0.950 . S
H1017 C1028 0.950 . S
H1018 C1030 0.950 . S
H1019 C1031 0.950 . S
C1020 H1012 0.950 . S
C1020 C1021 1.386 . S
C1020 C1022 1.391 . S
C1021 C1020 1.386 . S
C1021 C1025 1.393 . S
C1022 H1014 0.950 . S
C1022 C1020 1.391 . S
C1022 C1023 1.400 1_455 S
C1023 C1022 1.400 1_655 S
C1023 C1024 1.398 . S
C1023 C1029 1.491 . S
C1024 H1015 0.950 . S
C1024 C1023 1.398 . S
C1024 C1025 1.391 1_655 S
C1025 H1013 0.950 . S
C1025 C1021 1.393 . S
C1025 C1024 1.391 1_455 S
C1026 H1016 0.950 . S
C1026 C1027 1.386 . S
C1026 C1028 1.391 . S
C1027 C1026 1.386 . S
C1027 C1031 1.393 . S
C1028 H1017 0.950 . S
C1028 C1026 1.391 . S
C1028 C1029 1.400 . S
C1029 C1023 1.491 . S
C1029 C1028 1.400 . S
C1029 C1030 1.398 . S
C1030 H1018 0.950 . S
C1030 C1029 1.398 . S
C1030 C1031 1.391 . S
C1031 H1019 0.950 . S
C1031 C1027 1.393 . S
C1031 C1030 1.391 . S
H1032 C1040 0.950 . S
H1033 C1045 0.950 1_455 S
H1034 C1042 0.950 . S
H1035 C1044 0.950 . S
H1036 C1046 0.950 . S
H1037 C1048 0.950 . S
H1038 C1050 0.950 . S
H1039 C1051 0.950 . S
C1040 H1032 0.950 . S
C1040 C1041 1.386 . S
C1040 C1042 1.391 . S
C1041 C1040 1.386 . S
C1041 C1045 1.393 . S
C1042 H1034 0.950 . S
C1042 C1040 1.391 . S
C1042 C1043 1.400 . S
C1043 C1042 1.400 . S
C1043 C1044 1.398 . S
C1043 C1049 1.491 . S
C1044 H1035 0.950 . S
C1044 C1043 1.398 . S
C1044 C1045 1.391 . S
C1045 H1033 0.950 1_655 S
C1045 C1041 1.393 . S
C1045 C1044 1.391 . S
C1046 H1036 0.950 . S
C1046 C1047 1.386 . S
C1046 C1048 1.391 . S
C1047 C1046 1.386 . S
C1047 C1051 1.393 . S
C1048 H1037 0.950 . S
C1048 C1046 1.391 . S
C1048 C1049 1.400 . S
C1049 C1043 1.491 . S
C1049 C1048 1.400 . S
C1049 C1050 1.398 . S
C1050 H1038 0.950 . S
C1050 C1049 1.398 . S
C1050 C1051 1.391 . S
C1051 H1039 0.950 . S
C1051 C1047 1.393 . S
C1051 C1050 1.391 . S
H1052 C1060 0.950 . S
H1053 C1065 0.950 . S
H1054 C1062 0.950 . S
H1055 C1064 0.950 . S
H1056 C1066 0.950 . S
H1057 C1068 0.950 . S
H1058 C1070 0.950 . S
H1059 C1071 0.950 . S
C1060 H1052 0.950 . S
C1060 C1061 1.386 . S
C1060 C1062 1.391 . S
C1061 C1060 1.386 . S
C1061 C1065 1.393 . S
C1062 H1054 0.950 . S
C1062 C1060 1.391 . S
C1062 C1063 1.400 . S
C1063 C1062 1.400 . S
C1063 C1064 1.398 . S
C1063 C1069 1.491 . S
C1064 H1055 0.950 . S
C1064 C1063 1.398 . S
C1064 C1065 1.391 . S
C1065 H1053 0.950 . S
C1065 C1061 1.393 . S
C1065 C1064 1.391 . S
C1066 H1056 0.950 . S
C1066 C1067 1.386 . S
C1066 C1068 1.391 . S
C1067 C1066 1.386 . S
C1067 C1071 1.393 . S
C1068 H1057 0.950 . S
C1068 C1066 1.391 . S
C1068 C1069 1.400 . S
C1069 C1063 1.491 . S
C1069 C1068 1.400 . S
C1069 C1070 1.398 . S
C1070 H1058 0.950 . S
C1070 C1069 1.398 . S
C1070 C1071 1.391 . S
C1071 H1059 0.950 . S
C1071 C1067 1.393 . S
C1071 C1070 1.391 . S
H1072 C1080 0.950 . S
H1073 C1085 0.950 . S
H1074 C1082 0.950 . S
H1075 C1084 0.950 . S
H1076 C1086 0.950 . S
H1077 C1088 0.950 . S
H1078 C1090 0.950 . S
H1079 C1091 0.950 . S
C1080 H1072 0.950 . S
C1080 C1081 1.386 . S
C1080 C1082 1.391 . S
C1081 C1080 1.386 . S
C1081 C1085 1.393 . S
C1082 H1074 0.950 . S
C1082 C1080 1.391 . S
C1082 C1083 1.400 . S
C1083 C1082 1.400 . S
C1083 C1084 1.398 . S
C1083 C1089 1.491 . S
C1084 H1075 0.950 . S
C1084 C1083 1.398 . S
C1084 C1085 1.391 . S
C1085 H1073 0.950 . S
C1085 C1081 1.393 . S
C1085 C1084 1.391 . S
C1086 H1076 0.950 . S
C1086 C1087 1.386 . S
C1086 C1088 1.391 . S
C1087 C1086 1.386 . S
C1087 C1091 1.393 . S
C1088 H1077 0.950 . S
C1088 C1086 1.391 . S
C1088 C1089 1.400 . S
C1089 C1083 1.491 . S
C1089 C1088 1.400 . S
C1089 C1090 1.398 . S
C1090 H1078 0.950 . S
C1090 C1089 1.398 . S
C1090 C1091 1.391 . S
C1091 H1079 0.950 . S
C1091 C1087 1.393 . S
C1091 C1090 1.391 . S
H1092 C1100 0.950 . S
H1093 C1105 0.950 . S
H1094 C1102 0.950 . S
H1095 C1104 0.954 . S
H1096 C1106 0.950 . S
H1097 C1108 0.950 . S
H1098 C1110 0.950 . S
H1099 C1111 0.950 . S
C1100 H1092 0.950 . S
C1100 C1101 1.386 . S
C1100 C1102 1.391 1_655 S
C1101 C1100 1.386 . S
C1101 C1105 1.393 . S
C1102 H1094 0.950 . S
C1102 C1100 1.391 1_455 S
C1102 C1103 1.400 . S
C1103 C1102 1.400 . S
C1103 C1104 1.398 1_455 S
C1103 C1109 1.491 . S
C1104 H1095 0.954 . S
C1104 C1103 1.398 1_655 S
C1104 C1105 1.391 . S
C1105 H1093 0.950 . S
C1105 C1101 1.393 . S
C1105 C1104 1.391 . S
C1106 H1096 0.950 . S
C1106 C1107 1.386 . S
C1106 C1108 1.391 . S
C1107 C1106 1.386 . S
C1107 C1111 1.393 . S
C1108 H1097 0.950 . S
C1108 C1106 1.391 . S
C1108 C1109 1.400 . S
C1109 C1103 1.491 . S
C1109 C1108 1.400 . S
C1109 C1110 1.398 . S
C1110 H1098 0.950 . S
C1110 C1109 1.398 . S
C1110 C1111 1.391 . S
C1111 H1099 0.950 . S
C1111 C1107 1.393 . S
C1111 C1110 1.391 . S
H1112 C1120 0.950 . S
H1113 C1125 0.950 . S
H1114 C1122 0.950 . S
H1115 C1124 0.950 . S
H1116 C1126 0.950 . S
H1117 C1128 0.950 . S
H1118 C1130 0.950 . S
H1119 C1131 0.950 . S
C1120 H1112 0.950 . S
C1120 C1121 1.386 . S
C1120 C1122 1.391 . S
C1121 C1120 1.386 . S
C1121 C1125 1.393 . S
C1122 H1114 0.950 . S
C1122 C1120 1.391 . S
C1122 C1123 1.400 . S
C1123 C1122 1.400 . S
C1123 C1124 1.398 . S
C1123 C1129 1.491 . S
C1124 H1115 0.950 . S
C1124 C1123 1.398 . S
C1124 C1125 1.391 . S
C1125 H1113 0.950 . S
C1125 C1121 1.393 . S
C1125 C1124 1.391 . S
C1126 H1116 0.950 . S
C1126 C1127 1.386 . S
C1126 C1128 1.391 . S
C1127 C1126 1.386 . S
C1127 C1131 1.393 . S
C1128 H1117 0.950 . S
C1128 C1126 1.391 . S
C1128 C1129 1.400 . S
C1129 C1123 1.491 . S
C1129 C1128 1.400 . S
C1129 C1130 1.398 . S
C1130 H1118 0.950 . S
C1130 C1129 1.398 . S
C1130 C1131 1.391 . S
C1131 H1119 0.950 . S
C1131 C1127 1.393 . S
C1131 C1130 1.391 . S
H1132 C1140 0.950 . S
H1133 C1145 0.950 . S
H1134 C1142 0.950 . S
H1135 C1144 0.950 . S
H1136 C1146 0.950 . S
H1137 C1148 0.950 . S
H1138 C1150 0.950 . S
H1139 C1151 0.950 . S
C1140 H1132 0.950 . S
C1140 C1141 1.386 . S
C1140 C1142 1.391 . S
C1141 C1140 1.386 . S
C1141 C1145 1.393 . S
C1142 H1134 0.950 . S
C1142 C1140 1.391 . S
C1142 C1143 1.400 . S
C1143 C1142 1.400 . S
C1143 C1144 1.398 . S
C1143 C1149 1.491 . S
C1144 H1135 0.950 . S
C1144 C1143 1.398 . S
C1144 C1145 1.391 . S
C1145 H1133 0.950 . S
C1145 C1141 1.393 . S
C1145 C1144 1.391 . S
C1146 H1136 0.950 . S
C1146 C1147 1.386 . S
C1146 C1148 1.391 . S
C1147 C1146 1.386 . S
C1147 C1151 1.393 . S
C1148 H1137 0.950 . S
C1148 C1146 1.391 . S
C1148 C1149 1.400 . S
C1149 C1143 1.491 . S
C1149 C1148 1.400 . S
C1149 C1150 1.398 . S
C1150 H1138 0.950 . S
C1150 C1149 1.398 . S
C1150 C1151 1.391 . S
C1151 H1139 0.950 . S
C1151 C1147 1.393 . S
C1151 C1150 1.391 . S
H1152 C1160 0.950 . S
H1153 C1165 0.950 . S
H1154 C1162 0.950 . S
H1155 C1164 0.950 . S
H1156 C1166 0.950 . S
H1157 C1168 0.950 . S
H1158 C1170 0.950 . S
H1159 C1171 0.950 . S
C1160 H1152 0.950 . S
C1160 C1161 1.386 . S
C1160 C1162 1.391 . S
C1161 C1160 1.386 . S
C1161 C1165 1.393 . S
C1162 H1154 0.950 . S
C1162 C1160 1.391 . S
C1162 C1163 1.400 . S
C1163 C1162 1.400 . S
C1163 C1164 1.398 . S
C1163 C1169 1.491 . S
C1164 H1155 0.950 . S
C1164 C1163 1.398 . S
C1164 C1165 1.391 . S
C1165 H1153 0.950 . S
C1165 C1161 1.393 . S
C1165 C1164 1.391 . S
C1166 H1156 0.950 . S
C1166 C1167 1.386 . S
C1166 C1168 1.391 . S
C1167 C1166 1.386 . S
C1167 C1171 1.393 . S
C1168 H1157 0.950 . S
C1168 C1166 1.391 . S
C1168 C1169 1.400 . S
C1169 C1163 1.491 . S
C1169 C1168 1.400 . S
C1169 C1170 1.398 . S
C1170 H1158 0.950 . S
C1170 C1169 1.398 . S
C1170 C1171 1.391 . S
C1171 H1159 0.950 . S
C1171 C1167 1.393 . S
C1171 C1170 1.391 . S
H1172 C1180 0.950 . S
H1173 C1185 0.950 . S
H1174 C1182 0.950 . S
H1175 C1184 0.950 . S
H1176 C1186 0.950 . S
H1177 C1188 0.950 . S
H1178 C1190 0.950 . S
H1179 C1191 0.950 . S
C1180 H1172 0.950 . S
C1180 C1181 1.386 . S
C1180 C1182 1.391 . S
C1181 C1180 1.386 . S
C1181 C1185 1.393 . S
C1182 H1174 0.950 . S
C1182 C1180 1.391 . S
C1182 C1183 1.400 . S
C1183 C1182 1.400 . S
C1183 C1184 1.398 . S
C1183 C1189 1.491 . S
C1184 H1175 0.950 . S
C1184 C1183 1.398 . S
C1184 C1185 1.391 . S
C1185 H1173 0.950 . S
C1185 C1181 1.393 . S
C1185 C1184 1.391 . S
C1186 H1176 0.950 . S
C1186 C1187 1.386 . S
C1186 C1188 1.391 . S
C1187 C1186 1.386 . S
C1187 C1191 1.393 . S
C1188 H1177 0.950 . S
C1188 C1186 1.391 . S
C1188 C1189 1.400 . S
C1189 C1183 1.491 . S
C1189 C1188 1.400 . S
C1189 C1190 1.398 . S
C1190 H1178 0.950 . S
C1190 C1189 1.398 . S
C1190 C1191 1.391 . S
C1191 H1179 0.950 . S
C1191 C1187 1.393 . S
C1191 C1190 1.391 . S
H1192 C1200 0.950 . S
H1193 C1205 0.950 . S
H1194 C1202 0.950 . S
H1195 C1204 0.950 . S
H1196 C1206 0.950 . S
H1197 C1208 0.946 1_554 S
H1198 C1210 0.950 . S
H1199 C1211 0.950 . S
C1200 H1192 0.950 . S
C1200 C1201 1.386 . S
C1200 C1202 1.391 . S
C1201 C1200 1.386 . S
C1201 C1205 1.393 . S
C1202 H1194 0.950 . S
C1202 C1200 1.391 . S
C1202 C1203 1.400 . S
C1203 C1202 1.400 . S
C1203 C1204 1.398 . S
C1203 C1209 1.491 . S
C1204 H1195 0.950 . S
C1204 C1203 1.398 . S
C1204 C1205 1.391 . S
C1205 H1193 0.950 . S
C1205 C1201 1.393 . S
C1205 C1204 1.391 . S
C1206 H1196 0.950 . S
C1206 C1207 1.386 . S
C1206 C1208 1.391 . S
C1207 C1206 1.386 . S
C1207 C1211 1.393 . S
C1208 H1197 0.946 1_556 S
C1208 C1206 1.391 . S
C1208 C1209 1.400 1_556 S
C1209 C1203 1.491 . S
C1209 C1208 1.400 1_554 S
C1209 C1210 1.398 . S
C1210 H1198 0.950 . S
C1210 C1209 1.398 . S
C1210 C1211 1.391 1_554 S
C1211 H1199 0.950 . S
C1211 C1207 1.393 . S
C1211 C1210 1.391 1_556 S
H1212 C1220 0.950 . S
H1213 C1225 0.950 . S
H1214 C1222 0.950 . S
H1215 C1224 0.950 . S
H1216 C1226 0.950 . S
H1217 C1228 0.950 . S
H1218 C1230 0.950 . S
H1219 C1231 0.950 . S
C1220 H1212 0.950 . S
C1220 C1221 1.386 . S
C1220 C1222 1.391 . S
C1221 C1220 1.386 . S
C1221 C1225 1.393 . S
C1222 H1214 0.950 . S
C1222 C1220 1.391 . S
C1222 C1223 1.400 . S
C1223 C1222 1.400 . S
C1223 C1224 1.398 . S
C1223 C1229 1.491 . S
C1224 H1215 0.950 . S
C1224 C1223 1.398 . S
C1224 C1225 1.391 . S
C1225 H1213 0.950 . S
C1225 C1221 1.393 . S
C1225 C1224 1.391 . S
C1226 H1216 0.950 . S
C1226 C1227 1.386 . S
C1226 C1228 1.391 . S
C1227 C1226 1.386 . S
C1227 C1231 1.393 . S
C1228 H1217 0.950 . S
C1228 C1226 1.391 . S
C1228 C1229 1.400 . S
C1229 C1223 1.491 . S
C1229 C1228 1.400 . S
C1229 C1230 1.398 . S
C1230 H1218 0.950 . S
C1230 C1229 1.398 . S
C1230 C1231 1.391 . S
C1231 H1219 0.950 . S
C1231 C1227 1.393 . S
C1231 C1230 1.391 . S
H1232 C1240 0.950 . S
H1233 C1245 0.950 . S
H1234 C1242 0.950 . S
H1235 C1244 0.950 . S
H1236 C1246 0.950 . S
H1237 C1248 0.950 . S
H1238 C1250 0.950 . S
H1239 C1251 0.950 . S
C1240 H1232 0.950 . S
C1240 C1241 1.386 . S
C1240 C1242 1.391 . S
C1241 C1240 1.386 . S
C1241 C1245 1.393 . S
C1242 H1234 0.950 . S
C1242 C1240 1.391 . S
C1242 C1243 1.400 . S
C1243 C1242 1.400 . S
C1243 C1244 1.398 . S
C1243 C1249 1.491 . S
C1244 H1235 0.950 . S
C1244 C1243 1.398 . S
C1244 C1245 1.391 . S
C1245 H1233 0.950 . S
C1245 C1241 1.393 . S
C1245 C1244 1.391 . S
C1246 H1236 0.950 . S
C1246 C1247 1.386 . S
C1246 C1248 1.391 . S
C1247 C1246 1.386 . S
C1247 C1251 1.393 . S
C1248 H1237 0.950 . S
C1248 C1246 1.391 . S
C1248 C1249 1.400 . S
C1249 C1243 1.491 . S
C1249 C1248 1.400 . S
C1249 C1250 1.398 . S
C1250 H1238 0.950 . S
C1250 C1249 1.398 . S
C1250 C1251 1.391 . S
C1251 H1239 0.950 . S
C1251 C1247 1.393 . S
C1251 C1250 1.391 . S
H1252 C1260 0.950 . S
H1253 C1265 0.950 . S
H1254 C1262 0.950 . S
H1255 C1264 0.950 . S
H1256 C1266 0.950 . S
H1257 C1268 0.950 . S
H1258 C1270 0.950 . S
H1259 C1271 0.950 . S
C1260 H1252 0.950 . S
C1260 C1261 1.386 . S
C1260 C1262 1.391 1_554 S
C1261 C1260 1.386 . S
C1261 C1265 1.393 . S
C1262 H1254 0.950 . S
C1262 C1260 1.391 1_556 S
C1262 C1263 1.400 . S
C1263 C1262 1.400 . S
C1263 C1264 1.398 1_556 S
C1263 C1269 1.491 . S
C1264 H1255 0.950 . S
C1264 C1263 1.398 1_554 S
C1264 C1265 1.391 . S
C1265 H1253 0.950 . S
C1265 C1261 1.393 . S
C1265 C1264 1.391 . S
C1266 H1256 0.950 . S
C1266 C1267 1.386 . S
C1266 C1268 1.391 . S
C1267 C1266 1.386 . S
C1267 C1271 1.393 . S
C1268 H1257 0.950 . S
C1268 C1266 1.391 . S
C1268 C1269 1.400 . S
C1269 C1263 1.491 . S
C1269 C1268 1.400 . S
C1269 C1270 1.398 . S
C1270 H1258 0.950 . S
C1270 C1269 1.398 . S
C1270 C1271 1.391 . S
C1271 H1259 0.950 . S
C1271 C1267 1.393 . S
C1271 C1270 1.391 . S
H1272 C1280 0.950 . S
H1273 C1285 0.950 . S
H1274 C1282 0.950 . S
H1275 C1284 0.950 . S
H1276 C1286 0.950 . S
H1277 C1288 0.950 . S
H1278 C1290 0.950 . S
H1279 C1291 0.950 . S
C1280 H1272 0.950 . S
C1280 C1281 1.386 . S
C1280 C1282 1.391 . S
C1281 C1280 1.386 . S
C1281 C1285 1.393 . S
C1282 H1274 0.950 . S
C1282 C1280 1.391 . S
C1282 C1283 1.400 . S
C1283 C1282 1.400 . S
C1283 C1284 1.398 . S
C1283 C1289 1.491 . S
C1284 H1275 0.950 . S
C1284 C1283 1.398 . S
C1284 C1285 1.391 . S
C1285 H1273 0.950 . S
C1285 C1281 1.393 . S
C1285 C1284 1.391 . S
C1286 H1276 0.950 . S
C1286 C1287 1.386 . S
C1286 C1288 1.391 . S
C1287 C1286 1.386 . S
C1287 C1291 1.393 . S
C1288 H1277 0.950 . S
C1288 C1286 1.391 . S
C1288 C1289 1.400 . S
C1289 C1283 1.491 . S
C1289 C1288 1.400 . S
C1289 C1290 1.398 . S
C1290 H1278 0.950 . S
C1290 C1289 1.398 . S
C1290 C1291 1.391 . S
C1291 H1279 0.950 . S
C1291 C1287 1.393 . S
C1291 C1290 1.391 . S
H1292 C1300 0.950 . S
H1293 C1305 0.950 . S
H1294 C1302 0.950 . S
H1295 C1304 0.950 . S
H1296 C1306 0.950 . S
H1297 C1308 0.950 . S
H1298 C1310 0.950 . S
H1299 C1311 0.950 . S
C1300 H1292 0.950 . S
C1300 C1301 1.386 . S
C1300 C1302 1.391 . S
C1301 C1300 1.386 . S
C1301 C1305 1.393 . S
C1302 H1294 0.950 . S
C1302 C1300 1.391 . S
C1302 C1303 1.400 . S
C1303 C1302 1.400 . S
C1303 C1304 1.398 . S
C1303 C1309 1.491 1_556 S
C1304 H1295 0.950 . S
C1304 C1303 1.398 . S
C1304 C1305 1.391 . S
C1305 H1293 0.950 . S
C1305 C1301 1.393 . S
C1305 C1304 1.391 . S
C1306 H1296 0.950 . S
C1306 C1307 1.386 . S
C1306 C1308 1.391 . S
C1307 C1306 1.386 . S
C1307 C1311 1.393 . S
C1308 H1297 0.950 . S
C1308 C1306 1.391 . S
C1308 C1309 1.400 . S
C1309 C1303 1.491 1_554 S
C1309 C1308 1.400 . S
C1309 C1310 1.398 . S
C1310 H1298 0.950 . S
C1310 C1309 1.398 . S
C1310 C1311 1.391 . S
C1311 H1299 0.950 . S
C1311 C1307 1.393 . S
C1311 C1310 1.391 . S
H1312 C1320 0.950 . S
H1313 C1325 0.950 . S
H1314 C1322 0.950 . S
H1315 C1324 0.950 . S
H1316 C1326 0.950 . S
H1317 C1328 0.950 . S
H1318 C1330 0.950 . S
H1319 C1331 0.950 . S
C1320 H1312 0.950 . S
C1320 C1321 1.386 . S
C1320 C1322 1.391 . S
C1321 C1320 1.386 . S
C1321 C1325 1.393 . S
C1322 H1314 0.950 . S
C1322 C1320 1.391 . S
C1322 C1323 1.400 . S
C1323 C1322 1.400 . S
C1323 C1324 1.398 . S
C1323 C1329 1.491 . S
C1324 H1315 0.950 . S
C1324 C1323 1.398 . S
C1324 C1325 1.391 . S
C1325 H1313 0.950 . S
C1325 C1321 1.393 . S
C1325 C1324 1.391 . S
C1326 H1316 0.950 . S
C1326 C1327 1.386 . S
C1326 C1328 1.391 . S
C1327 C1326 1.386 . S
C1327 C1331 1.393 . S
C1328 H1317 0.950 . S
C1328 C1326 1.391 . S
C1328 C1329 1.400 . S
C1329 C1323 1.491 . S
C1329 C1328 1.400 . S
C1329 C1330 1.398 . S
C1330 H1318 0.950 . S
C1330 C1329 1.398 . S
C1330 C1331 1.391 . S
C1331 H1319 0.950 . S
C1331 C1327 1.393 . S
C1331 C1330 1.391 . S
H1332 C1340 0.950 . S
H1333 C1345 0.950 . S
H1334 C1342 0.950 . S
H1335 C1344 0.950 . S
H1336 C1346 0.950 . S
H1337 C1348 0.950 . S
H1338 C1350 0.950 . S
H1339 C1351 0.950 . S
C1340 H1332 0.950 . S
C1340 C1341 1.386 . S
C1340 C1342 1.391 . S
C1341 C1340 1.386 . S
C1341 C1345 1.393 . S
C1342 H1334 0.950 . S
C1342 C1340 1.391 . S
C1342 C1343 1.400 . S
C1343 C1342 1.400 . S
C1343 C1344 1.398 . S
C1343 C1349 1.491 . S
C1344 H1335 0.950 . S
C1344 C1343 1.398 . S
C1344 C1345 1.391 . S
C1345 H1333 0.950 . S
C1345 C1341 1.393 . S
C1345 C1344 1.391 . S
C1346 H1336 0.950 . S
C1346 C1347 1.386 . S
C1346 C1348 1.391 . S
C1347 C1346 1.386 . S
C1347 C1351 1.393 1_455 S
C1348 H1337 0.950 . S
C1348 C1346 1.391 . S
C1348 C1349 1.400 . S
C1349 C1343 1.491 . S
C1349 C1348 1.400 . S
C1349 C1350 1.398 . S
C1350 H1338 0.950 . S
C1350 C1349 1.398 . S
C1350 C1351 1.391 1_455 S
C1351 H1339 0.950 . S
C1351 C1347 1.393 1_655 S
C1351 C1350 1.391 1_655 S
H1352 C1360 0.950 . S
H1353 C1365 0.950 . S
H1354 C1362 0.950 . S
H1355 C1364 0.950 . S
H1356 C1366 0.950 . S
H1357 C1368 0.950 . S
H1358 C1370 0.950 . S
H1359 C1371 0.950 . S
C1360 H1352 0.950 . S
C1360 C1361 1.386 . S
C1360 C1362 1.391 . S
C1361 C1360 1.386 . S
C1361 C1365 1.393 . S
C1362 H1354 0.950 . S
C1362 C1360 1.391 . S
C1362 C1363 1.400 . S
C1363 C1362 1.400 . S
C1363 C1364 1.398 . S
C1363 C1369 1.491 . S
C1364 H1355 0.950 . S
C1364 C1363 1.398 . S
C1364 C1365 1.391 . S
C1365 H1353 0.950 . S
C1365 C1361 1.393 . S
C1365 C1364 1.391 . S
C1366 H1356 0.950 . S
C1366 C1367 1.386 . S
C1366 C1368 1.391 . S
C1367 C1366 1.386 . S
C1367 C1371 1.393 . S
C1368 H1357 0.950 . S
C1368 C1366 1.391 . S
C1368 C1369 1.400 . S
C1369 C1363 1.491 . S
C1369 C1368 1.400 . S
C1369 C1370 1.398 . S
C1370 H1358 0.950 . S
C1370 C1369 1.398 . S
C1370 C1371 1.391 . S
C1371 H1359 0.950 . S
C1371 C1367 1.393 . S
C1371 C1370 1.391 . S
H1372 C1380 0.950 . S
H1373 C1385 0.950 . S
H1374 C1382 0.950 . S
H1375 C1384 0.950 . S
H1376 C1386 0.950 . S
H1377 C1388 0.950 . S
H1378 C1390 0.950 . S
H1379 C1391 0.950 . S
C1380 H1372 0.950 . S
C1380 C1381 1.386 . S
C1380 C1382 1.391 . S
C1381 C1380 1.386 . S
C1381 C1385 1.393 . S
C1382 H1374 0.950 . S
C1382 C1380 1.391 . S
C1382 C1383 1.400 . S
C1383 C1382 1.400 . S
C1383 C1384 1.398 . S
C1383 C1389 1.491 . S
C1384 H1375 0.950 . S
C1384 C1383 1.398 . S
C1384 C1385 1.391 . S
C1385 H1373 0.950 . S
C1385 C1381 1.393 . S
C1385 C1384 1.391 . S
C1386 H1376 0.950 . S
C1386 C1387 1.386 . S
C1386 C1388 1.391 . S
C1387 C1386 1.386 . S
C1387 C1391 1.393 . S
C1388 H1377 0.950 . S
C1388 C1386 1.391 . S
C1388 C1389 1.400 . S
C1389 C1383 1.491 . S
C1389 C1388 1.400 . S
C1389 C1390 1.398 . S
C1390 H1378 0.950 . S
C1390 C1389 1.398 . S
C1390 C1391 1.391 . S
C1391 H1379 0.950 . S
C1391 C1387 1.393 . S
C1391 C1390 1.391 . S
H1392 C1400 0.950 . S
H1393 C1405 0.950 . S
H1394 C1402 0.950 . S
H1395 C1404 0.950 . S
H1396 C1406 0.950 . S
H1397 C1408 0.950 . S
H1398 C1410 0.950 . S
H1399 C1411 0.950 . S
C1400 H1392 0.950 . S
C1400 C1401 1.386 . S
C1400 C1402 1.391 . S
C1401 C1400 1.386 . S
C1401 C1405 1.393 . S
C1402 H1394 0.950 . S
C1402 C1400 1.391 . S
C1402 C1403 1.400 . S
C1403 C1402 1.400 . S
C1403 C1404 1.398 . S
C1403 C1409 1.491 . S
C1404 H1395 0.950 . S
C1404 C1403 1.398 . S
C1404 C1405 1.391 . S
C1405 H1393 0.950 . S
C1405 C1401 1.393 . S
C1405 C1404 1.391 . S
C1406 H1396 0.950 . S
C1406 C1407 1.386 . S
C1406 C1408 1.391 . S
C1407 C1406 1.386 . S
C1407 C1411 1.393 . S
C1408 H1397 0.950 . S
C1408 C1406 1.391 . S
C1408 C1409 1.400 . S
C1409 C1403 1.491 . S
C1409 C1408 1.400 . S
C1409 C1410 1.398 . S
C1410 H1398 0.950 . S
C1410 C1409 1.398 . S
C1410 C1411 1.391 . S
C1411 H1399 0.950 . S
C1411 C1407 1.393 . S
C1411 C1410 1.391 . S
H1412 C1420 0.950 . S
H1413 C1425 0.950 . S
H1414 C1422 0.950 . S
H1415 C1424 0.950 . S
H1416 C1426 0.950 . S
H1417 C1428 0.950 . S
H1418 C1430 0.950 . S
H1419 C1431 0.950 . S
C1420 H1412 0.950 . S
C1420 C1421 1.386 . S
C1420 C1422 1.391 . S
C1421 C1420 1.386 . S
C1421 C1425 1.393 . S
C1422 H1414 0.950 . S
C1422 C1420 1.391 . S
C1422 C1423 1.400 . S
C1423 C1422 1.400 . S
C1423 C1424 1.398 . S
C1423 C1429 1.491 1_556 S
C1424 H1415 0.950 . S
C1424 C1423 1.398 . S
C1424 C1425 1.391 . S
C1425 H1413 0.950 . S
C1425 C1421 1.393 . S
C1425 C1424 1.391 . S
C1426 H1416 0.950 . S
C1426 C1427 1.386 . S
C1426 C1428 1.391 . S
C1427 C1426 1.386 . S
C1427 C1431 1.393 . S
C1428 H1417 0.950 . S
C1428 C1426 1.391 . S
C1428 C1429 1.400 . S
C1429 C1423 1.491 1_554 S
C1429 C1428 1.400 . S
C1429 C1430 1.398 . S
C1430 H1418 0.950 . S
C1430 C1429 1.398 . S
C1430 C1431 1.391 . S
C1431 H1419 0.950 . S
C1431 C1427 1.393 . S
C1431 C1430 1.391 . S
H1432 C1440 0.950 . S
H1433 C1445 0.950 . S
H1434 C1442 0.950 . S
H1435 C1444 0.950 . S
H1436 C1446 0.950 . S
H1437 C1448 0.950 . S
H1438 C1450 0.950 . S
H1439 C1451 0.950 . S
C1440 H1432 0.950 . S
C1440 C1441 1.386 . S
C1440 C1442 1.391 . S
C1441 C1440 1.386 . S
C1441 C1445 1.393 . S
C1442 H1434 0.950 . S
C1442 C1440 1.391 . S
C1442 C1443 1.400 . S
C1443 C1442 1.400 . S
C1443 C1444 1.398 . S
C1443 C1449 1.491 . S
C1444 H1435 0.950 . S
C1444 C1443 1.398 . S
C1444 C1445 1.391 . S
C1445 H1433 0.950 . S
C1445 C1441 1.393 . S
C1445 C1444 1.391 . S
C1446 H1436 0.950 . S
C1446 C1447 1.386 . S
C1446 C1448 1.391 . S
C1447 C1446 1.386 . S
C1447 C1451 1.393 . S
C1448 H1437 0.950 . S
C1448 C1446 1.391 . S
C1448 C1449 1.400 . S
C1449 C1443 1.491 . S
C1449 C1448 1.400 . S
C1449 C1450 1.398 . S
C1450 H1438 0.950 . S
C1450 C1449 1.398 . S
C1450 C1451 1.391 . S
C1451 H1439 0.950 . S
C1451 C1447 1.393 . S
C1451 C1450 1.391 . S
H1452 C1460 0.950 . S
H1453 C1465 0.950 . S
H1454 C1462 0.950 . S
H1455 C1464 0.950 . S
H1456 C1466 0.950 . S
H1457 C1468 0.950 . S
H1458 C1470 0.950 . S
H1459 C1471 0.950 . S
C1460 H1452 0.950 . S
C1460 C1461 1.386 . S
C1460 C1462 1.391 . S
C1461 C1460 1.386 . S
C1461 C1465 1.393 . S
C1462 H1454 0.950 . S
C1462 C1460 1.391 . S
C1462 C1463 1.400 . S
C1463 C1462 1.400 . S
C1463 C1464 1.398 . S
C1463 C1469 1.491 . S
C1464 H1455 0.950 . S
C1464 C1463 1.398 . S
C1464 C1465 1.391 . S
C1465 H1453 0.950 . S
C1465 C1461 1.393 . S
C1465 C1464 1.391 . S
C1466 H1456 0.950 . S
C1466 C1467 1.386 . S
C1466 C1468 1.391 . S
C1467 C1466 1.386 . S
C1467 C1471 1.393 . S
C1468 H1457 0.950 . S
C1468 C1466 1.391 . S
C1468 C1469 1.400 . S
C1469 C1463 1.491 . S
C1469 C1468 1.400 . S
C1469 C1470 1.398 . S
C1470 H1458 0.950 . S
C1470 C1469 1.398 . S
C1470 C1471 1.391 . S
C1471 H1459 0.950 . S
C1471 C1467 1.393 . S
C1471 C1470 1.391 . S
H1472 C1480 0.950 . S
H1473 C1485 0.950 . S
H1474 C1482 0.950 . S
H1475 C1484 0.950 . S
H1476 C1486 0.950 . S
H1477 C1488 0.950 . S
H1478 C1490 0.950 . S
H1479 C1491 0.950 . S
C1480 H1472 0.950 . S
C1480 C1481 1.386 . S
C1480 C1482 1.391 . S
C1481 C1480 1.386 . S
C1481 C1485 1.393 . S
C1482 H1474 0.950 . S
C1482 C1480 1.391 . S
C1482 C1483 1.400 . S
C1483 C1482 1.400 . S
C1483 C1484 1.398 . S
C1483 C1489 1.491 . S
C1484 H1475 0.950 . S
C1484 C1483 1.398 . S
C1484 C1485 1.391 . S
C1485 H1473 0.950 . S
C1485 C1481 1.393 . S
C1485 C1484 1.391 . S
C1486 H1476 0.950 . S
C1486 C1487 1.386 . S
C1486 C1488 1.391 . S
C1487 C1486 1.386 . S
C1487 C1491 1.393 . S
C1488 H1477 0.950 . S
C1488 C1486 1.391 . S
C1488 C1489 1.400 . S
C1489 C1483 1.491 . S
C1489 C1488 1.400 . S
C1489 C1490 1.398 . S
C1490 H1478 0.950 . S
C1490 C1489 1.398 . S
C1490 C1491 1.391 . S
C1491 H1479 0.950 . S
C1491 C1487 1.393 . S
C1491 C1490 1.391 . S
H1492 C1500 0.950 . S
H1493 C1505 0.950 . S
H1494 C1502 0.950 . S
H1495 C1504 0.950 . S
H1496 C1506 0.950 . S
H1497 C1508 0.950 . S
H1498 C1510 0.950 . S
H1499 C1511 0.950 . S
C1500 H1492 0.950 . S
C1500 C1501 1.386 . S
C1500 C1502 1.391 . S
C1501 C1500 1.386 . S
C1501 C1505 1.393 . S
C1502 H1494 0.950 . S
C1502 C1500 1.391 . S
C1502 C1503 1.400 . S
C1503 C1502 1.400 . S
C1503 C1504 1.398 . S
C1503 C1509 1.491 . S
C1504 H1495 0.950 . S
C1504 C1503 1.398 . S
C1504 C1505 1.391 . S
C1505 H1493 0.950 . S
C1505 C1501 1.393 . S
C1505 C1504 1.391 . S
C1506 H1496 0.950 . S
C1506 C1507 1.386 . S
C1506 C1508 1.391 . S
C1507 C1506 1.386 . S
C1507 C1511 1.393 . S
C1508 H1497 0.950 . S
C1508 C1506 1.391 . S
C1508 C1509 1.400 . S
C1509 C1503 1.491 . S
C1509 C1508 1.400 . S
C1509 C1510 1.398 . S
C1510 H1498 0.950 . S
C1510 C1509 1.398 . S
C1510 C1511 1.391 . S
C1511 H1499 0.950 . S
C1511 C1507 1.393 . S
C1511 C1510 1.391 . S
H1512 C1520 0.950 . S
H1513 C1525 0.950 . S
H1514 C1522 0.950 . S
H1515 C1524 0.950 . S
H1516 C1526 0.950 . S
H1517 C1528 0.950 . S
H1518 C1530 0.950 . S
H1519 C1531 0.950 . S
C1520 H1512 0.950 . S
C1520 C1521 1.386 . S
C1520 C1522 1.391 . S
C1521 C1520 1.386 . S
C1521 C1525 1.393 . S
C1522 H1514 0.950 . S
C1522 C1520 1.391 . S
C1522 C1523 1.400 . S
C1523 C1522 1.400 . S
C1523 C1524 1.398 . S
C1523 C1529 1.491 . S
C1524 H1515 0.950 . S
C1524 C1523 1.398 . S
C1524 C1525 1.391 . S
C1525 H1513 0.950 . S
C1525 C1521 1.393 . S
C1525 C1524 1.391 . S
C1526 H1516 0.950 . S
C1526 C1527 1.386 . S
C1526 C1528 1.391 . S
C1527 C1526 1.386 . S
C1527 C1531 1.393 . S
C1528 H1517 0.950 . S
C1528 C1526 1.391 . S
C1528 C1529 1.400 . S
C1529 C1523 1.491 . S
C1529 C1528 1.400 . S
C1529 C1530 1.398 . S
C1530 H1518 0.950 . S
C1530 C1529 1.398 . S
C1530 C1531 1.391 . S
C1531 H1519 0.950 . S
C1531 C1527 1.393 . S
C1531 C1530 1.391 . S
H1532 C1540 0.950 . S
H1533 C1545 0.950 . S
H1534 C1542 0.950 . S
H1535 C1544 0.950 . S
H1536 C1546 0.950 . S
H1537 C1548 0.950 . S
H1538 C1550 0.950 . S
H1539 C1551 0.950 . S
C1540 H1532 0.950 . S
C1540 C1541 1.386 . S
C1540 C1542 1.391 . S
C1541 C1540 1.386 . S
C1541 C1545 1.393 . S
C1542 H1534 0.950 . S
C1542 C1540 1.391 . S
C1542 C1543 1.400 . S
C1543 C1542 1.400 . S
C1543 C1544 1.398 . S
C1543 C1549 1.491 1_565 S
C1544 H1535 0.950 . S
C1544 C1543 1.398 . S
C1544 C1545 1.391 . S
C1545 H1533 0.950 . S
C1545 C1541 1.393 . S
C1545 C1544 1.391 . S
C1546 H1536 0.950 . S
C1546 C1547 1.386 . S
C1546 C1548 1.391 . S
C1547 C1546 1.386 . S
C1547 C1551 1.393 . S
C1548 H1537 0.950 . S
C1548 C1546 1.391 . S
C1548 C1549 1.400 . S
C1549 C1543 1.491 1_545 S
C1549 C1548 1.400 . S
C1549 C1550 1.398 . S
C1550 H1538 0.950 . S
C1550 C1549 1.398 . S
C1550 C1551 1.391 . S
C1551 H1539 0.950 . S
C1551 C1547 1.393 . S
C1551 C1550 1.391 . S
H1552 C1560 0.950 . S
H1553 C1565 0.950 . S
H1554 C1562 0.950 . S
H1555 C1564 0.950 . S
H1556 C1566 0.950 . S
H1557 C1568 0.950 . S
H1558 C1570 0.950 . S
H1559 C1571 0.950 . S
C1560 H1552 0.950 . S
C1560 C1561 1.386 . S
C1560 C1562 1.391 . S
C1561 C1560 1.386 . S
C1561 C1565 1.393 . S
C1562 H1554 0.950 . S
C1562 C1560 1.391 . S
C1562 C1563 1.400 . S
C1563 C1562 1.400 . S
C1563 C1564 1.398 . S
C1563 C1569 1.491 . S
C1564 H1555 0.950 . S
C1564 C1563 1.398 . S
C1564 C1565 1.391 . S
C1565 H1553 0.950 . S
C1565 C1561 1.393 . S
C1565 C1564 1.391 . S
C1566 H1556 0.950 . S
C1566 C1567 1.386 . S
C1566 C1568 1.391 . S
C1567 C1566 1.386 . S
C1567 C1571 1.393 . S
C1568 H1557 0.950 . S
C1568 C1566 1.391 . S
C1568 C1569 1.400 . S
C1569 C1563 1.491 . S
C1569 C1568 1.400 . S
C1569 C1570 1.398 . S
C1570 H1558 0.950 . S
C1570 C1569 1.398 . S
C1570 C1571 1.391 . S
C1571 H1559 0.950 . S
C1571 C1567 1.393 . S
C1571 C1570 1.391 . S
H1572 C1580 0.950 . S
H1573 C1585 0.948 1_554 S
H1574 C1582 0.950 . S
H1575 C1584 0.950 . S
H1576 C1586 0.950 . S
H1577 C1588 0.950 . S
H1578 C1590 0.950 . S
H1579 C1591 0.950 . S
C1580 H1572 0.950 . S
C1580 C1581 1.386 . S
C1580 C1582 1.391 . S
C1581 C1580 1.386 . S
C1581 C1585 1.393 . S
C1582 H1574 0.950 . S
C1582 C1580 1.391 . S
C1582 C1583 1.400 . S
C1583 C1582 1.400 . S
C1583 C1584 1.398 . S
C1583 C1589 1.491 1_565 S
C1584 H1575 0.950 . S
C1584 C1583 1.398 . S
C1584 C1585 1.391 . S
C1585 H1573 0.948 1_556 S
C1585 C1581 1.393 . S
C1585 C1584 1.391 . S
C1586 H1576 0.950 . S
C1586 C1587 1.386 . S
C1586 C1588 1.391 . S
C1587 C1586 1.386 . S
C1587 C1591 1.393 . S
C1588 H1577 0.950 . S
C1588 C1586 1.391 . S
C1588 C1589 1.400 . S
C1589 C1583 1.491 1_545 S
C1589 C1588 1.400 . S
C1589 C1590 1.398 . S
C1590 H1578 0.950 . S
C1590 C1589 1.398 . S
C1590 C1591 1.391 . S
C1591 H1579 0.950 . S
C1591 C1587 1.393 . S
C1591 C1590 1.391 . S
H1592 C1600 0.950 . S
H1593 C1605 0.950 . S
H1594 C1602 0.950 . S
H1595 C1604 0.950 . S
H1596 C1606 0.950 . S
H1597 C1608 0.950 . S
H1598 C1610 0.950 . S
H1599 C1611 0.950 . S
C1600 H1592 0.950 . S
C1600 C1601 1.386 . S
C1600 C1602 1.391 . S
C1601 C1600 1.386 . S
C1601 C1605 1.393 . S
C1602 H1594 0.950 . S
C1602 C1600 1.391 . S
C1602 C1603 1.400 . S
C1603 C1602 1.400 . S
C1603 C1604 1.398 . S
C1603 C1609 1.491 . S
C1604 H1595 0.950 . S
C1604 C1603 1.398 . S
C1604 C1605 1.391 . S
C1605 H1593 0.950 . S
C1605 C1601 1.393 . S
C1605 C1604 1.391 . S
C1606 H1596 0.950 . S
C1606 C1607 1.386 . S
C1606 C1608 1.391 . S
C1607 C1606 1.386 . S
C1607 C1611 1.393 . S
C1608 H1597 0.950 . S
C1608 C1606 1.391 . S
C1608 C1609 1.400 . S
C1609 C1603 1.491 . S
C1609 C1608 1.400 . S
C1609 C1610 1.398 . S
C1610 H1598 0.950 . S
C1610 C1609 1.398 . S
C1610 C1611 1.391 . S
C1611 H1599 0.950 . S
C1611 C1607 1.393 . S
C1611 C1610 1.391 . S
H1612 C1620 0.950 . S
H1613 C1625 0.950 . S
H1614 C1622 0.950 . S
H1615 C1624 0.950 . S
H1616 C1626 0.950 . S
H1617 C1628 0.950 . S
H1618 C1630 0.950 . S
H1619 C1631 0.950 . S
C1620 H1612 0.950 . S
C1620 C1621 1.386 . S
C1620 C1622 1.391 . S
C1621 C1620 1.386 . S
C1621 C1625 1.393 . S
C1622 H1614 0.950 . S
C1622 C1620 1.391 . S
C1622 C1623 1.400 . S
C1623 C1622 1.400 . S
C1623 C1624 1.398 . S
C1623 C1629 1.491 . S
C1624 H1615 0.950 . S
C1624 C1623 1.398 . S
C1624 C1625 1.391 . S
C1625 H1613 0.950 . S
C1625 C1621 1.393 . S
C1625 C1624 1.391 . S
C1626 H1616 0.950 . S
C1626 C1627 1.386 . S
C1626 C1628 1.391 . S
C1627 C1626 1.386 . S
C1627 C1631 1.393 . S
C1628 H1617 0.950 . S
C1628 C1626 1.391 . S
C1628 C1629 1.400 . S
C1629 C1623 1.491 . S
C1629 C1628 1.400 . S
C1629 C1630 1.398 . S
C1630 H1618 0.950 . S
C1630 C1629 1.398 . S
C1630 C1631 1.391 . S
C1631 H1619 0.950 . S
C1631 C1627 1.393 . S
C1631 C1630 1.391 . S
H1632 C1640 0.950 . S
H1633 C1645 0.950 . S
H1634 C1642 0.950 . S
H1635 C1644 0.950 . S
H1636 C1646 0.950 1_565 S
H1637 C1648 0.950 . S
H1638 C1650 0.950 . S
H1639 C1651 0.950 . S
C1640 H1632 0.950 . S
C1640 C1641 1.386 . S
C1640 C1642 1.391 . S
C1641 C1640 1.386 . S
C1641 C1645 1.393 . S
C1642 H1634 0.950 . S
C1642 C1640 1.391 . S
C1642 C1643 1.400 . S
C1643 C1642 1.400 . S
C1643 C1644 1.398 . S
C1643 C1649 1.491 . S
C1644 H1635 0.950 . S
C1644 C1643 1.398 . S
C1644 C1645 1.391 . S
C1645 H1633 0.950 . S
C1645 C1641 1.393 . S
C1645 C1644 1.391 . S
C1646 H1636 0.950 1_545 S
C1646 C1647 1.386 . S
C1646 C1648 1.391 . S
C1647 C1646 1.386 . S
C1647 C1651 1.393 . S
C1648 H1637 0.950 . S
C1648 C1646 1.391 . S
C1648 C1649 1.400 . S
C1649 C1643 1.491 . S
C1649 C1648 1.400 . S
C1649 C1650 1.398 . S
C1650 H1638 0.950 . S
C1650 C1649 1.398 . S
C1650 C1651 1.391 . S
C1651 H1639 0.950 . S
C1651 C1647 1.393 . S
C1651 C1650 1.391 . S
H1652 C1660 0.950 . S
H1653 C1665 0.950 . S
H1654 C1662 0.950 . S
H1655 C1664 0.950 . S
H1656 C1666 0.950 . S
H1657 C1668 0.950 . S
H1658 C1670 0.950 . S
H1659 C1671 0.950 . S
C1660 H1652 0.950 . S
C1660 C1661 1.386 . S
C1660 C1662 1.391 . S
C1661 C1660 1.386 . S
C1661 C1665 1.393 . S
C1662 H1654 0.950 . S
C1662 C1660 1.391 . S
C1662 C1663 1.400 . S
C1663 C1662 1.400 . S
C1663 C1664 1.398 . S
C1663 C1669 1.491 . S
C1664 H1655 0.950 . S
C1664 C1663 1.398 . S
C1664 C1665 1.391 . S
C1665 H1653 0.950 . S
C1665 C1661 1.393 . S
C1665 C1664 1.391 . S
C1666 H1656 0.950 . S
C1666 C1667 1.386 . S
C1666 C1668 1.391 . S
C1667 C1666 1.386 . S
C1667 C1671 1.393 . S
C1668 H1657 0.950 . S
C1668 C1666 1.391 . S
C1668 C1669 1.400 . S
C1669 C1663 1.491 . S
C1669 C1668 1.400 . S
C1669 C1670 1.398 . S
C1670 H1658 0.950 . S
C1670 C1669 1.398 . S
C1670 C1671 1.391 . S
C1671 H1659 0.950 . S
C1671 C1667 1.393 . S
C1671 C1670 1.391 . S
H1672 C1680 0.950 . S
H1673 C1685 0.954 . S
H1674 C1682 0.950 . S
H1675 C1684 0.950 1_455 S
H1676 C1686 0.950 . S
H1677 C1688 0.950 . S
H1678 C1690 0.950 1_655 S
H1679 C1691 0.950 . S
C1680 H1672 0.950 . S
C1680 C1681 1.386 . S
C1680 C1682 1.391 . S
C1681 C1680 1.386 . S
C1681 C1685 1.391 1_565 S
C1682 H1674 0.950 . S
C1682 C1680 1.391 . S
C1682 C1683 1.400 . S
C1683 C1682 1.400 . S
C1683 C1684 1.398 . S
C1683 C1689 1.491 1_655 S
C1684 H1675 0.950 1_655 S
C1684 C1683 1.398 . S
C1684 C1685 1.389 1_565 S
C1685 H1673 0.954 . S
C1685 C1681 1.391 1_545 S
C1685 C1684 1.389 1_545 S
C1686 H1676 0.950 . S
C1686 C1687 1.386 . S
C1686 C1688 1.391 . S
C1687 C1686 1.386 . S
C1687 C1691 1.393 . S
C1688 H1677 0.950 . S
C1688 C1686 1.391 . S
C1688 C1689 1.400 . S
C1689 C1683 1.491 1_455 S
C1689 C1688 1.400 . S
C1689 C1690 1.398 . S
C1690 H1678 0.950 1_455 S
C1690 C1689 1.398 . S
C1690 C1691 1.391 . S
C1691 H1679 0.950 . S
C1691 C1687 1.393 . S
C1691 C1690 1.391 . S
H1692 C1700 0.950 . S
H1693 C1705 0.950 . S
H1694 C1702 0.950 . S
H1695 C1704 0.950 . S
H1696 C1706 0.950 . S
H1697 C1708 0.950 . S
H1698 C1710 0.950 . S
H1699 C1711 0.950 . S
C1700 H1692 0.950 . S
C1700 C1701 1.386 . S
C1700 C1702 1.391 . S
C1701 C1700 1.386 . S
C1701 C1705 1.393 . S
C1702 H1694 0.950 . S
C1702 C1700 1.391 . S
C1702 C1703 1.400 . S
C1703 C1702 1.400 . S
C1703 C1704 1.398 . S
C1703 C1709 1.491 . S
C1704 H1695 0.950 . S
C1704 C1703 1.398 . S
C1704 C1705 1.391 . S
C1705 H1693 0.950 . S
C1705 C1701 1.393 . S
C1705 C1704 1.391 . S
C1706 H1696 0.950 . S
C1706 C1707 1.386 . S
C1706 C1708 1.391 . S
C1707 C1706 1.386 . S
C1707 C1711 1.393 . S
C1708 H1697 0.950 . S
C1708 C1706 1.391 . S
C1708 C1709 1.400 . S
C1709 C1703 1.491 . S
C1709 C1708 1.400 . S
C1709 C1710 1.398 . S
C1710 H1698 0.950 . S
C1710 C1709 1.398 . S
C1710 C1711 1.391 . S
C1711 H1699 0.950 . S
C1711 C1707 1.393 . S
C1711 C1710 1.391 . S
H1712 C1720 0.950 . S
H1713 C1725 0.950 . S
H1714 C1722 0.950 . S
H1715 C1724 0.945 1_655 S
H1716 C1726 0.950 . S
H1717 C1728 0.950 . S
H1718 C1730 0.921 1_455 S
H1719 C1731 0.950 . S
C1720 H1712 0.950 . S
C1720 C1721 1.386 . S
C1720 C1722 1.391 . S
C1721 C1720 1.386 . S
C1721 C1725 1.393 . S
C1722 H1714 0.950 . S
C1722 C1720 1.391 . S
C1722 C1723 1.400 . S
C1723 C1722 1.400 . S
C1723 C1724 1.398 . S
C1723 C1729 1.491 1_455 S
C1724 H1715 0.945 1_455 S
C1724 C1723 1.398 . S
C1724 C1725 1.391 . S
C1725 H1713 0.950 . S
C1725 C1721 1.393 . S
C1725 C1724 1.391 . S
C1726 H1716 0.950 . S
C1726 C1727 1.386 . S
C1726 C1728 1.391 . S
C1727 C1726 1.386 . S
C1727 C1731 1.393 . S
C1728 H1717 0.950 . S
C1728 C1726 1.391 . S
C1728 C1729 1.400 . S
C1729 C1723 1.491 1_655 S
C1729 C1728 1.400 . S
C1729 C1730 1.398 . S
C1730 H1718 0.921 1_655 S
C1730 C1729 1.398 . S
C1730 C1731 1.391 . S
C1731 H1719 0.950 . S
C1731 C1727 1.393 . S
C1731 C1730 1.391 . S
H1732 C1740 0.950 . S
H1733 C1745 0.950 . S
H1734 C1742 0.950 . S
H1735 C1744 0.950 . S
H1736 C1746 0.950 . S
H1737 C1748 0.950 . S
H1738 C1750 0.950 . S
H1739 C1751 0.950 . S
C1740 H1732 0.950 . S
C1740 C1741 1.386 . S
C1740 C1742 1.391 . S
C1741 C1740 1.386 . S
C1741 C1745 1.393 . S
C1742 H1734 0.950 . S
C1742 C1740 1.391 . S
C1742 C1743 1.400 . S
C1743 C1742 1.400 . S
C1743 C1744 1.398 . S
C1743 C1749 1.491 . S
C1744 H1735 0.950 . S
C1744 C1743 1.398 . S
C1744 C1745 1.391 . S
C1745 H1733 0.950 . S
C1745 C1741 1.393 . S
C1745 C1744 1.391 . S
C1746 H1736 0.950 . S
C1746 C1747 1.386 . S
C1746 C1748 1.391 . S
C1747 C1746 1.386 . S
C1747 C1751 1.393 . S
C1748 H1737 0.950 . S
C1748 C1746 1.391 . S
C1748 C1749 1.400 . S
C1749 C1743 1.491 . S
C1749 C1748 1.400 . S
C1749 C1750 1.398 . S
C1750 H1738 0.950 . S
C1750 C1749 1.398 . S
C1750 C1751 1.391 . S
C1751 H1739 0.950 . S
C1751 C1747 1.393 . S
C1751 C1750 1.391 . S
H1752 C1760 0.950 . S
H1753 C1765 0.950 . S
H1754 C1762 0.950 . S
H1755 C1764 0.950 . S
H1756 C1766 0.950 . S
H1757 C1768 0.950 . S
H1758 C1770 0.950 . S
H1759 C1771 0.950 . S
C1760 H1752 0.950 . S
C1760 C1761 1.386 . S
C1760 C1762 1.391 . S
C1761 C1760 1.386 . S
C1761 C1765 1.393 . S
C1762 H1754 0.950 . S
C1762 C1760 1.391 . S
C1762 C1763 1.400 . S
C1763 C1762 1.400 . S
C1763 C1764 1.398 . S
C1763 C1769 1.491 . S
C1764 H1755 0.950 . S
C1764 C1763 1.398 . S
C1764 C1765 1.391 . S
C1765 H1753 0.950 . S
C1765 C1761 1.393 . S
C1765 C1764 1.391 . S
C1766 H1756 0.950 . S
C1766 C1767 1.386 . S
C1766 C1768 1.391 . S
C1767 C1766 1.386 . S
C1767 C1771 1.393 . S
C1768 H1757 0.950 . S
C1768 C1766 1.391 . S
C1768 C1769 1.400 1_455 S
C1769 C1763 1.491 . S
C1769 C1768 1.400 1_655 S
C1769 C1770 1.398 . S
C1770 H1758 0.950 . S
C1770 C1769 1.398 . S
C1770 C1771 1.391 1_655 S
C1771 H1759 0.950 . S
C1771 C1767 1.393 . S
C1771 C1770 1.391 1_455 S
H1772 C1780 0.950 . S
H1773 C1785 0.950 . S
H1774 C1782 0.950 . S
H1775 C1784 0.950 . S
H1776 C1786 0.950 . S
H1777 C1788 0.950 1_554 S
H1778 C1790 0.950 . S
H1779 C1791 0.950 . S
C1780 H1772 0.950 . S
C1780 C1781 1.386 . S
C1780 C1782 1.391 . S
C1781 C1780 1.386 . S
C1781 C1785 1.393 . S
C1782 H1774 0.950 . S
C1782 C1780 1.391 . S
C1782 C1783 1.400 . S
C1783 C1782 1.400 . S
C1783 C1784 1.398 . S
C1783 C1789 1.491 . S
C1784 H1775 0.950 . S
C1784 C1783 1.398 . S
C1784 C1785 1.391 . S
C1785 H1773 0.950 . S
C1785 C1781 1.393 . S
C1785 C1784 1.391 . S
C1786 H1776 0.950 . S
C1786 C1787 1.386 . S
C1786 C1788 1.391 . S
C1787 C1786 1.386 . S
C1787 C1791 1.393 . S
C1788 H1777 0.950 1_556 S
C1788 C1786 1.391 . S
C1788 C1789 1.400 1_556 S
C1789 C1783 1.491 . S
C1789 C1788 1.400 1_554 S
C1789 C1790 1.398 1_554 S
C1790 H1778 0.950 . S
C1790 C1789 1.398 1_556 S
C1790 C1791 1.391 . S
C1791 H1779 0.950 . S
C1791 C1787 1.393 . S
C1791 C1790 1.391 . S
H1792 C1800 0.950 . S
H1793 C1805 0.950 . S
H1794 C1802 0.950 . S
H1795 C1804 0.950 . S
H1796 C1806 0.950 . S
H1797 C1808 0.950 . S
H1798 C1810 0.950 . S
H1799 C1811 0.950 . S
C1800 H1792 0.950 . S
C1800 C1801 1.386 . S
C1800 C1802 1.391 . S
C1801 C1800 1.386 . S
C1801 C1805 1.393 . S
C1802 H1794 0.950 . S
C1802 C1800 1.391 . S
C1802 C1803 1.400 . S
C1803 C1802 1.400 . S
C1803 C1804 1.398 . S
C1803 C1809 1.491 . S
C1804 H1795 0.950 . S
C1804 C1803 1.398 . S
C1804 C1805 1.391 . S
C1805 H1793 0.950 . S
C1805 C1801 1.393 . S
C1805 C1804 1.391 . S
C1806 H1796 0.950 . S
C1806 C1807 1.386 . S
C1806 C1808 1.391 . S
C1807 C1806 1.386 . S
C1807 C1811 1.393 . S
C1808 H1797 0.950 . S
C1808 C1806 1.391 . S
C1808 C1809 1.400 . S
C1809 C1803 1.491 . S
C1809 C1808 1.400 . S
C1809 C1810 1.398 . S
C1810 H1798 0.950 . S
C1810 C1809 1.398 . S
C1810 C1811 1.391 . S
C1811 H1799 0.950 . S
C1811 C1807 1.393 . S
C1811 C1810 1.391 . S
H1812 C1820 0.950 . S
H1813 C1825 0.950 . S
H1814 C1822 0.950 . S
H1815 C1824 0.950 . S
H1816 C1826 0.950 . S
H1817 C1828 0.950 . S
H1818 C1830 0.950 . S
H1819 C1831 0.950 . S
C1820 H1812 0.950 . S
C1820 C1821 1.386 . S
C1820 C1822 1.391 . S
C1821 C1820 1.386 . S
C1821 C1825 1.393 . S
C1822 H1814 0.950 . S
C1822 C1820 1.391 . S
C1822 C1823 1.400 . S
C1823 C1822 1.400 . S
C1823 C1824 1.398 . S
C1823 C1829 1.491 . S
C1824 H1815 0.950 . S
C1824 C1823 1.398 . S
C1824 C1825 1.391 . S
C1825 H1813 0.950 . S
C1825 C1821 1.393 . S
C1825 C1824 1.391 . S
C1826 H1816 0.950 . S
C1826 C1827 1.386 . S
C1826 C1828 1.391 . S
C1827 C1826 1.386 . S
C1827 C1831 1.393 . S
C1828 H1817 0.950 . S
C1828 C1826 1.391 . S
C1828 C1829 1.400 . S
C1829 C1823 1.491 . S
C1829 C1828 1.400 . S
C1829 C1830 1.398 . S
C1830 H1818 0.950 . S
C1830 C1829 1.398 . S
C1830 C1831 1.391 . S
C1831 H1819 0.950 . S
C1831 C1827 1.393 . S
C1831 C1830 1.391 . S
H1832 C1840 0.950 . S
H1833 C1845 0.950 . S
H1834 C1842 0.950 . S
H1835 C1844 0.950 . S
H1836 C1846 0.950 . S
H1837 C1848 0.950 . S
H1838 C1850 0.950 . S
H1839 C1851 0.950 . S
C1840 H1832 0.950 . S
C1840 C1841 1.386 . S
C1840 C1842 1.391 . S
C1841 C1840 1.386 . S
C1841 C1845 1.393 . S
C1842 H1834 0.950 . S
C1842 C1840 1.391 . S
C1842 C1843 1.400 . S
C1843 C1842 1.400 . S
C1843 C1844 1.398 . S
C1843 C1849 1.491 . S
C1844 H1835 0.950 . S
C1844 C1843 1.398 . S
C1844 C1845 1.391 . S
C1845 H1833 0.950 . S
C1845 C1841 1.393 . S
C1845 C1844 1.391 . S
C1846 H1836 0.950 . S
C1846 C1847 1.386 . S
C1846 C1848 1.391 . S
C1847 C1846 1.386 . S
C1847 C1851 1.393 . S
C1848 H1837 0.950 . S
C1848 C1846 1.391 . S
C1848 C1849 1.400 . S
C1849 C1843 1.491 . S
C1849 C1848 1.400 . S
C1849 C1850 1.398 . S
C1850 H1838 0.950 . S
C1850 C1849 1.398 . S
C1850 C1851 1.391 . S
C1851 H1839 0.950 . S
C1851 C1847 1.393 . S
C1851 C1850 1.391 . S
H1852 C1860 0.950 . S
H1853 C1865 0.950 . S
H1854 C1862 0.950 . S
H1855 C1864 0.950 . S
H1856 C1866 0.950 . S
H1857 C1868 0.950 . S
H1858 C1870 0.950 . S
H1859 C1871 0.950 . S
C1860 H1852 0.950 . S
C1860 C1861 1.386 . S
C1860 C1862 1.391 . S
C1861 C1860 1.386 . S
C1861 C1865 1.393 . S
C1862 H1854 0.950 . S
C1862 C1860 1.391 . S
C1862 C1863 1.400 . S
C1863 C1862 1.400 . S
C1863 C1864 1.398 . S
C1863 C1869 1.491 . S
C1864 H1855 0.950 . S
C1864 C1863 1.398 . S
C1864 C1865 1.391 . S
C1865 H1853 0.950 . S
C1865 C1861 1.393 . S
C1865 C1864 1.391 . S
C1866 H1856 0.950 . S
C1866 C1867 1.386 . S
C1866 C1868 1.391 . S
C1867 C1866 1.386 . S
C1867 C1871 1.393 . S
C1868 H1857 0.950 . S
C1868 C1866 1.391 . S
C1868 C1869 1.400 . S
C1869 C1863 1.491 . S
C1869 C1868 1.400 . S
C1869 C1870 1.398 . S
C1870 H1858 0.950 . S
C1870 C1869 1.398 . S
C1870 C1871 1.391 . S
C1871 H1859 0.950 . S
C1871 C1867 1.393 . S
C1871 C1870 1.391 . S
H1872 C1880 0.950 . S
H1873 C1885 0.950 . S
H1874 C1882 0.950 . S
H1875 C1884 0.950 . S
H1876 C1886 0.950 . S
H1877 C1888 0.950 . S
H1878 C1890 0.950 . S
H1879 C1891 0.950 . S
C1880 H1872 0.950 . S
C1880 C1881 1.386 . S
C1880 C1882 1.391 1_655 S
C1881 C1880 1.386 . S
C1881 C1885 1.393 . S
C1882 H1874 0.950 . S
C1882 C1880 1.391 1_455 S
C1882 C1883 1.400 . S
C1883 C1882 1.400 . S
C1883 C1884 1.398 1_455 S
C1883 C1889 1.491 . S
C1884 H1875 0.950 . S
C1884 C1883 1.398 1_655 S
C1884 C1885 1.391 . S
C1885 H1873 0.950 . S
C1885 C1881 1.393 . S
C1885 C1884 1.391 . S
C1886 H1876 0.950 . S
C1886 C1887 1.386 . S
C1886 C1888 1.391 . S
C1887 C1886 1.386 . S
C1887 C1891 1.393 . S
C1888 H1877 0.950 . S
C1888 C1886 1.391 . S
C1888 C1889 1.400 . S
C1889 C1883 1.491 . S
C1889 C1888 1.400 . S
C1889 C1890 1.398 . S
C1890 H1878 0.950 . S
C1890 C1889 1.398 . S
C1890 C1891 1.391 . S
C1891 H1879 0.950 . S
C1891 C1887 1.393 . S
C1891 C1890 1.391 . S
H1892 C1900 0.950 . S
H1893 C1905 0.950 . S
H1894 C1902 0.975 . S
H1895 C1904 0.950 . S
H1896 C1906 0.950 . S
H1897 C1908 0.950 . S
H1898 C1910 0.950 . S
H1899 C1911 0.950 . S
C1900 H1892 0.950 . S
C1900 C1901 1.386 . S
C1900 C1902 1.361 1_554 S
C1901 C1900 1.386 . S
C1901 C1905 1.393 . S
C1902 H1894 0.975 . S
C1902 C1900 1.361 1_556 S
C1902 C1903 1.407 . S
C1903 C1902 1.407 . S
C1903 C1904 1.398 1_556 S
C1903 C1909 1.491 . S
C1904 H1895 0.950 . S
C1904 C1903 1.398 1_554 S
C1904 C1905 1.391 . S
C1905 H1893 0.950 . S
C1905 C1901 1.393 . S
C1905 C1904 1.391 . S
C1906 H1896 0.950 . S
C1906 C1907 1.386 . S
C1906 C1908 1.391 . S
C1907 C1906 1.386 . S
C1907 C1911 1.393 . S
C1908 H1897 0.950 . S
C1908 C1906 1.391 . S
C1908 C1909 1.400 . S
C1909 C1903 1.491 . S
C1909 C1908 1.400 . S
C1909 C1910 1.398 . S
C1910 H1898 0.950 . S
C1910 C1909 1.398 . S
C1910 C1911 1.391 . S
C1911 H1899 0.950 . S
C1911 C1907 1.393 . S
C1911 C1910 1.391 . S
H1912 C1920 0.950 . S
H1913 C1925 0.950 . S
H1914 C1922 0.950 . S
H1915 C1924 0.950 . S
H1916 C1926 0.950 . S
H1917 C1928 0.950 . S
H1918 C1930 0.950 . S
H1919 C1931 0.950 . S
C1920 H1912 0.950 . S
C1920 C1921 1.386 . S
C1920 C1922 1.391 . S
C1921 C1920 1.386 . S
C1921 C1925 1.393 . S
C1922 H1914 0.950 . S
C1922 C1920 1.391 . S
C1922 C1923 1.400 . S
C1923 C1922 1.400 . S
C1923 C1924 1.398 . S
C1923 C1929 1.491 . S
C1924 H1915 0.950 . S
C1924 C1923 1.398 . S
C1924 C1925 1.391 . S
C1925 H1913 0.950 . S
C1925 C1921 1.393 . S
C1925 C1924 1.391 . S
C1926 H1916 0.950 . S
C1926 C1927 1.386 . S
C1926 C1928 1.391 . S
C1927 C1926 1.386 . S
C1927 C1931 1.393 . S
C1928 H1917 0.950 . S
C1928 C1926 1.391 . S
C1928 C1929 1.400 1_545 S
C1929 C1923 1.491 . S
C1929 C1928 1.400 1_565 S
C1929 C1930 1.398 . S
C1930 H1918 0.950 . S
C1930 C1929 1.398 . S
C1930 C1931 1.391 1_565 S
C1931 H1919 0.950 . S
C1931 C1927 1.393 . S
C1931 C1930 1.391 1_545 S
H1932 C1940 0.950 . S
H1933 C1945 0.950 . S
H1934 C1942 0.950 . S
H1935 C1944 0.950 . S
H1936 C1946 0.950 . S
H1937 C1948 0.950 . S
H1938 C1950 0.950 . S
H1939 C1951 0.950 . S
C1940 H1932 0.950 . S
C1940 C1941 1.386 . S
C1940 C1942 1.391 . S
C1941 C1940 1.386 . S
C1941 C1945 1.393 . S
C1942 H1934 0.950 . S
C1942 C1940 1.391 . S
C1942 C1943 1.400 . S
C1943 C1942 1.400 . S
C1943 C1944 1.398 . S
C1943 C1949 1.491 . S
C1944 H1935 0.950 . S
C1944 C1943 1.398 . S
C1944 C1945 1.391 . S
C1945 H1933 0.950 . S
C1945 C1941 1.393 . S
C1945 C1944 1.391 . S
C1946 H1936 0.950 . S
C1946 C1947 1.386 . S
C1946 C1948 1.391 . S
C1947 C1946 1.386 . S
C1947 C1951 1.393 . S
C1948 H1937 0.950 . S
C1948 C1946 1.391 . S
C1948 C1949 1.400 . S
C1949 C1943 1.491 . S
C1949 C1948 1.400 . S
C1949 C1950 1.398 . S
C1950 H1938 0.950 . S
C1950 C1949 1.398 . S
C1950 C1951 1.391 . S
C1951 H1939 0.950 . S
C1951 C1947 1.393 . S
C1951 C1950 1.391 . S
H1952 C1960 0.950 . S
H1953 C1965 0.950 . S
H1954 C1962 0.950 . S
H1955 C1964 0.950 . S
H1956 C1966 0.950 . S
H1957 C1968 0.950 . S
H1958 C1970 0.950 . S
H1959 C1971 0.950 . S
C1960 H1952 0.950 . S
C1960 C1961 1.386 . S
C1960 C1962 1.391 . S
C1961 C1960 1.386 . S
C1961 C1965 1.393 . S
C1962 H1954 0.950 . S
C1962 C1960 1.391 . S
C1962 C1963 1.400 . S
C1963 C1962 1.400 . S
C1963 C1964 1.398 . S
C1963 C1969 1.491 . S
C1964 H1955 0.950 . S
C1964 C1963 1.398 . S
C1964 C1965 1.391 . S
C1965 H1953 0.950 . S
C1965 C1961 1.393 . S
C1965 C1964 1.391 . S
C1966 H1956 0.950 . S
C1966 C1967 1.386 . S
C1966 C1968 1.391 . S
C1967 C1966 1.386 . S
C1967 C1971 1.393 . S
C1968 H1957 0.950 . S
C1968 C1966 1.391 . S
C1968 C1969 1.400 1_565 S
C1969 C1963 1.491 . S
C1969 C1968 1.400 1_545 S
C1969 C1970 1.398 . S
C1970 H1958 0.950 . S
C1970 C1969 1.398 . S
C1970 C1971 1.391 1_545 S
C1971 H1959 0.950 . S
C1971 C1967 1.393 . S
C1971 C1970 1.391 1_565 S
H1972 C1980 0.950 . S
H1973 C1985 0.950 . S
H1974 C1982 0.950 . S
H1975 C1984 0.950 . S
H1976 C1986 0.950 . S
H1977 C1988 0.950 . S
H1978 C1990 0.950 . S
H1979 C1991 0.950 . S
C1980 H1972 0.950 . S
C1980 C1981 1.386 . S
C1980 C1982 1.391 . S
C1981 C1980 1.386 . S
C1981 C1985 1.393 . S
C1982 H1974 0.950 . S
C1982 C1980 1.391 . S
C1982 C1983 1.400 . S
C1983 C1982 1.400 . S
C1983 C1984 1.398 . S
C1983 C1989 1.491 . S
C1984 H1975 0.950 . S
C1984 C1983 1.398 . S
C1984 C1985 1.391 . S
C1985 H1973 0.950 . S
C1985 C1981 1.393 . S
C1985 C1984 1.391 . S
C1986 H1976 0.950 . S
C1986 C1987 1.386 . S
C1986 C1988 1.391 . S
C1987 C1986 1.386 . S
C1987 C1991 1.393 . S
C1988 H1977 0.950 . S
C1988 C1986 1.391 . S
C1988 C1989 1.400 . S
C1989 C1983 1.491 . S
C1989 C1988 1.400 . S
C1989 C1990 1.398 . S
C1990 H1978 0.950 . S
C1990 C1989 1.398 . S
C1990 C1991 1.391 . S
C1991 H1979 0.950 . S
C1991 C1987 1.393 . S
C1991 C1990 1.391 . S
C801 N431 1.596 . S
C807 C18 1.563 . S
C821 C51 1.552 . S
C827 N464 1.592 . S
C841 C84 1.548 . S
C847 N497 1.596 . S
C861 N398 1.593 . S
C867 C117 1.547 . S
C881 N365 1.600 . S
C887 C150 1.552 . S
C901 N266 1.600 . S
C907 C183 1.551 . S
C921 C216 1.555 . S
C927 N299 1.593 . S
C941 N332 1.593 . S
C947 C249 1.547 . S
C961 C282 1.569 . S
C967 N35 1.609 . S
C981 C315 1.571 . S
C987 N68 1.603 . S
C1001 C348 1.566 . S
C1007 N101 1.608 . S
C1021 N2 1.606 . S
C1027 C381 1.562 . S
C1041 N233 1.607 . S
C1047 C414 1.564 . S
C1061 C447 1.573 . S
C1067 N134 1.606 . S
C1081 C480 1.567 . S
C1087 N167 1.608 . S
C1101 N200 1.599 . S
C1107 C513 1.567 . S
C1121 N728 1.593 . S
C1127 C546 1.548 . S
C1141 C579 1.573 . S
C1147 N596 1.606 . S
C1161 C612 1.572 . S
C1167 N629 1.608 . S
C1181 N662 1.594 . S
C1187 C645 1.547 . S
C1201 C678 1.547 . S
C1207 N563 1.593 . S
C1221 N761 1.594 . S
C1227 C711 1.547 . S
C1241 C744 1.547 . S
C1247 N695 1.594 . S
C1261 N530 1.598 . S
C1267 C777 1.565 . S
C1281 N541 0.927 . S
C1287 C7 0.976 . S
C1301 N772 0.932 . S
C1307 C40 0.949 . S
C1321 C73 0.944 . S
C1327 N706 0.958 . S
C1341 N739 0.940 . S
C1347 C106 0.945 1_455 S
C1361 N574 0.965 . S
C1367 C139 0.963 . S
C1381 N607 0.964 . S
C1387 C172 0.948 . S
C1401 N640 0.965 . S
C1407 C205 0.950 . S
C1421 C238 0.945 1_655 S
C1427 N673 0.960 . S
C1441 C271 0.976 . S
C1447 N13 0.948 . S
C1461 C304 0.945 1_554 S
C1467 N46 0.959 . S
C1481 C337 0.978 . S
C1487 N79 0.935 . S
C1501 C370 0.977 . S
C1507 N112 0.929 . S
C1521 C403 0.978 . S
C1527 N145 0.934 . S
C1541 N178 0.960 . S
C1547 C436 0.970 . S
C1561 N211 0.942 . S
C1567 C469 0.944 . S
C1581 C502 0.975 1_556 S
C1587 N244 0.953 . S
C1601 N277 0.954 . S
C1607 C535 0.974 . S
C1621 N409 0.935 . S
C1627 C568 0.978 . S
C1641 N442 0.967 . S
C1647 C601 0.954 1_545 S
C1661 N475 0.948 . S
C1667 C634 0.977 . S
C1681 C667 0.953 1_565 S
C1687 N508 0.967 . S
C1701 C700 0.945 . S
C1707 N343 0.960 . S
C1721 C733 0.962 . S
C1727 N376 0.966 . S
C1741 N310 0.955 . S
C1747 C766 0.944 . S
C1761 C681 1.182 . S
C1767 C21 1.194 . S
C1781 C54 1.206 . S
C1787 C582 1.191 . S
C1801 C615 1.192 . S
C1807 C87 1.181 . S
C1821 C120 1.186 . S
C1827 C648 1.201 . S
C1841 C780 1.184 . S
C1847 C153 1.198 . S
C1861 C714 1.181 . S
C1867 C186 1.185 . S
C1881 C219 1.185 . S
C1887 C747 1.200 . S
C1901 C549 1.188 . S
C1907 C252 1.204 . S
C1921 C516 1.181 . S
C1927 C285 1.193 . S
C1941 C417 1.199 . S
C1947 C318 1.184 . S
C1961 C450 1.182 . S
C1967 C351 1.195 . S
C1981 C483 1.182 . S
C1987 C384 1.195 . S
