# Generated by pormake.
# Topology uni, (4)-cn, num edge types: 1
# Building blocks:
#     Node 0, Type 0, BuildingBlock: UXUYUI_clean_sbu_0, # of connection points: 4
#     Node 1, Type 0, BuildingBlock: UXUYUI_clean_sbu_0, # of connection points: 4
#     Node 2, Type 0, BuildingBlock: UXUYUI_clean_sbu_0, # of connection points: 4
#     Node 3, Type 0, BuildingBlock: UXUYUI_clean_sbu_0, # of connection points: 4
#     Node 4, Type 0, BuildingBlock: UXUYUI_clean_sbu_0, # of connection points: 4
#     Node 5, Type 0, BuildingBlock: UXUYUI_clean_sbu_0, # of connection points: 4
#     Edge 6, Type (0, 0), BuildingBlock: UVAHIK_clean_linker_0, # of connection points: 2
#     Edge 7, Type (0, 0), BuildingBlock: UVAHIK_clean_linker_0, # of connection points: 2
#     Edge 8, Type (0, 0), BuildingBlock: UVAHIK_clean_linker_0, # of connection points: 2
#     Edge 9, Type (0, 0), BuildingBlock: UVAHIK_clean_linker_0, # of connection points: 2
#     Edge 10, Type (0, 0), BuildingBlock: UVAHIK_clean_linker_0, # of connection points: 2
#     Edge 11, Type (0, 0), BuildingBlock: UVAHIK_clean_linker_0, # of connection points: 2
#     Edge 12, Type (0, 0), BuildingBlock: UVAHIK_clean_linker_0, # of connection points: 2
#     Edge 13, Type (0, 0), BuildingBlock: UVAHIK_clean_linker_0, # of connection points: 2
#     Edge 14, Type (0, 0), BuildingBlock: UVAHIK_clean_linker_0, # of connection points: 2
#     Edge 15, Type (0, 0), BuildingBlock: UVAHIK_clean_linker_0, # of connection points: 2
#     Edge 16, Type (0, 0), BuildingBlock: UVAHIK_clean_linker_0, # of connection points: 2
#     Edge 17, Type (0, 0), BuildingBlock: UVAHIK_clean_linker_0, # of connection points: 2
# Relax obj value: 0.104
# Max RMSD: 0.125
# Mean RMSD: 0.125
data_MOF--net-uni--node1-UXUYUI_clean_sbu_0--edge1-UVAHIK_clean_linker_0
_symmetry_space_group_name_H-M    P1
_symmetry_Int_Tables_number       1
_symmetry_cell_setting            triclinic
loop_
_symmetry_equiv_pos_as_xyz
'x, y, z'
_cell_length_a     68.562536
_cell_length_b     68.564762
_cell_length_c     40.911558
_cell_angle_alpha  89.982293
_cell_angle_beta   89.989776
_cell_angle_gamma 120.01778
loop_
_atom_site_label
_atom_site_type_symbol
_atom_site_fract_x
_atom_site_fract_y
_atom_site_fract_z
_atom_type_partial_charge
Li0 Li 0.65451 0.02844 0.04495 0.0
Li1 Li 0.62081 0.0132 0.0798 0.0
Li2 Li 0.63408 0.98776 0.05708 0.0
Li3 Li 0.61576 0.00323 0.02252 0.0
C4 C 0.66802 0.0202 0.10707 0.0
N5 N 0.70572 0.03389 0.14567 0.0
C6 C 0.67169 0.03413 0.13404 0.0
C7 C 0.68335 0.01299 0.09996 0.0
C8 C 0.6909 0.04093 0.15319 0.0
C9 C 0.70235 0.02016 0.11971 0.0
C10 C 0.62432 0.05021 0.05176 0.0
C11 C 0.59795 0.06261 0.06478 0.0
N12 N 0.61543 0.08326 0.07279 0.0
C13 C 0.64204 0.07158 0.0599 0.0
C14 C 0.6021 0.0457 0.05397 0.0
C15 C 0.63718 0.08806 0.07054 0.0
C16 C 0.68618 0.05842 0.00158 0.0
N17 N 0.68287 0.05363 0.03402 0.0
C18 C 0.71914 0.08491 0.04646 0.0
C19 C 0.69875 0.06649 0.05649 0.0
C20 C 0.723 0.09025 0.01308 0.0
C21 C 0.70622 0.07675 0.9905 0.0
H22 H 0.67316 0.04796 0.98431 0.0
H23 H 0.69558 0.06274 0.08218 0.0
C24 C 0.58843 -9e-05 0.1288 0.0
N25 N 0.60733 0.01813 0.11718 0.0
C26 C 0.57734 0.00191 0.15602 0.0
C27 C 0.60537 0.04146 0.15898 0.0
C28 C 0.61613 0.0386 0.13192 0.0
C29 C 0.58574 0.02291 0.17133 0.0
H30 H 0.58197 0.98375 0.11698 0.0
H31 H 0.63152 0.05269 0.12278 0.0
C32 C 0.6565 0.99644 0.99573 0.0
N33 N 0.68197 0.98371 0.95871 0.0
C34 C 0.64721 0.98297 0.96806 0.0
C35 C 0.67882 0.0037 0.00434 0.0
C36 C 0.66034 0.97663 0.94973 0.0
C37 C 0.6914 0.99701 0.98537 0.0
C38 C 0.58198 0.96671 0.05048 0.0
C39 C 0.57764 0.94516 0.04198 0.0
C40 C 0.56475 0.97194 0.04852 0.0
C41 C 0.55612 0.92923 0.03119 0.0
C42 C 0.54348 0.95556 0.03756 0.0
N43 N 0.53964 0.93473 0.02918 0.0
C44 C 0.63782 0.95843 0.09978 0.0
C45 C 0.63802 0.94871 0.04423 0.0
C46 C 0.63967 0.94004 0.11004 0.0
N47 N 0.63715 0.96246 0.0674 0.0
C48 C 0.63998 0.93014 0.0534 0.0
C49 C 0.64076 0.9256 0.08672 0.0
H50 H 0.63685 0.96953 0.11765 0.0
H51 H 0.63683 0.95187 0.01869 0.0
C52 C 0.59618 0.01639 0.97405 0.0
N53 N 0.59733 -0.00167 0.98522 0.0
C54 C 0.58307 0.01434 0.94685 0.0
C55 C 0.57248 0.97507 0.94297 0.0
C56 C 0.58611 0.97798 0.97004 0.0
C57 C 0.57094 0.99346 0.93107 0.0
H58 H 0.60554 0.03247 0.9862 0.0
H59 H 0.58779 0.96404 0.97886 0.0
O60 O 0.64927 0.01336 0.08814 0.0
O61 O 0.62873 0.03386 0.04137 0.0
O62 O 0.64386 0.00279 0.01387 0.0
O63 O 0.60295 0.98255 0.06093 0.0
H64 H 0.65991 0.03972 0.14 0.0
H65 H 0.68054 0.00186 0.0796 0.0
H66 H 0.69403 0.05181 0.17404 0.0
H67 H 0.71438 0.01476 0.11445 0.0
H68 H 0.58083 0.05932 0.06681 0.0
H69 H 0.65933 0.07537 0.0582 0.0
H70 H 0.58822 0.02928 0.04756 0.0
H71 H 0.65072 0.10464 0.07707 0.0
H72 H 0.73155 0.09514 0.06466 0.0
H73 H 0.70861 0.08022 0.96453 0.0
H74 H 0.56218 0.98725 0.16476 0.0
H75 H 0.61247 0.05785 0.17044 0.0
H76 H 0.63 0.97735 0.96095 0.0
H77 H 0.68642 0.0145 0.02526 0.0
H78 H 0.65333 0.9661 0.92836 0.0
H79 H 0.70869 0.00246 0.99179 0.0
H80 H 0.59077 0.94083 0.0435 0.0
H81 H 0.56783 0.9885 0.05523 0.0
H82 H 0.55253 0.91252 0.02436 0.0
H83 H 0.53002 0.9594 0.03572 0.0
H84 H 0.64039 0.93723 0.13596 0.0
H85 H 0.64039 0.91919 0.03467 0.0
H86 H 0.58222 0.02888 0.93845 0.0
H87 H 0.56355 0.95877 0.93115 0.0
Li88 Li 0.63446 0.65447 0.2089 0.0
Li89 Li 0.61531 0.62 0.24201 0.0
Li90 Li 0.65479 0.63423 0.22141 0.0
Li91 Li 0.62202 0.61619 0.18472 0.0
C92 C 0.65434 0.66716 0.27156 0.0
N93 N 0.6768 0.70493 0.31052 0.0
C94 C 0.64349 0.6701 0.29845 0.0
C95 C 0.67669 0.68325 0.26476 0.0
C96 C 0.6551 0.68936 0.31777 0.0
C97 C 0.68774 0.70228 0.28467 0.0
C98 C 0.58196 0.62264 0.21125 0.0
C99 C 0.54308 0.59441 0.2199 0.0
N100 N 0.53841 0.61086 0.22809 0.0
C101 C 0.57675 0.63929 0.21948 0.0
C102 C 0.56499 0.60003 0.21117 0.0
C103 C 0.55463 0.63299 0.22802 0.0
C104 C 0.64201 0.69046 0.16863 0.0
N105 N 0.63772 0.68313 0.20008 0.0
C106 C 0.63738 0.71639 0.21657 0.0
C107 C 0.6352 0.6955 0.22391 0.0
C108 C 0.64194 0.72448 0.18428 0.0
C109 C 0.64425 0.71119 0.16015 0.0
H110 H 0.64346 0.68005 0.15004 0.0
H111 H 0.63116 0.68906 0.24853 0.0
C112 C 0.59481 0.58655 0.28948 0.0
N113 N 0.5957 0.60556 0.27797 0.0
C114 C 0.58049 0.57462 0.31527 0.0
C115 C 0.56844 0.60224 0.31737 0.0
C116 C 0.58324 0.6138 0.29172 0.0
C117 C 0.56681 0.58225 0.32937 0.0
H118 H 0.60532 0.58067 0.27873 0.0
H119 H 0.58469 0.62928 0.28271 0.0
C120 C 0.66994 0.6564 0.1604 0.0
N121 N 0.70902 0.67968 0.12425 0.0
C122 C 0.67375 0.6462 0.13348 0.0
C123 C 0.68585 0.67854 0.16866 0.0
C124 C 0.69366 0.65822 0.11559 0.0
C125 C 0.70555 0.69 0.15016 0.0
C126 C 0.62445 0.58195 0.21396 0.0
C127 C 0.64206 0.57782 0.20736 0.0
C128 C 0.60216 0.56447 0.21119 0.0
C129 C 0.63704 0.55628 0.19757 0.0
C130 C 0.59784 0.54317 0.20128 0.0
N131 N 0.61522 0.53956 0.19471 0.0
C132 C 0.68774 0.63881 0.26542 0.0
C133 C 0.69768 0.63766 0.21026 0.0
C134 C 0.7079 0.64069 0.27626 0.0
N135 N 0.68309 0.63746 0.23294 0.0
C136 C 0.71813 0.63969 0.21999 0.0
C137 C 0.7234 0.64116 0.2534 0.0
H138 H 0.67567 0.63829 0.28294 0.0
H139 H 0.69334 0.63582 0.18468 0.0
C140 C 0.59108 0.5973 0.13349 0.0
N141 N 0.60958 0.59802 0.14683 0.0
C142 C 0.5804 0.58349 0.10667 0.0
C143 C 0.60816 0.57158 0.10747 0.0
C144 C 0.61856 0.58596 0.13395 0.0
C145 C 0.58877 0.57018 0.09368 0.0
H146 H 0.58448 0.60731 0.14388 0.0
H147 H 0.63365 0.58732 0.14437 0.0
O148 O 0.64319 0.64839 0.25244 0.0
O149 O 0.60354 0.62849 0.203 0.0
O150 O 0.65052 0.64486 0.17812 0.0
O151 O 0.62904 0.60296 0.22343 0.0
H152 H 0.62623 0.6577 0.30419 0.0
H153 H 0.68549 0.68099 0.24451 0.0
H154 H 0.64688 0.69193 0.33854 0.0
H155 H 0.70503 0.7149 0.27964 0.0
H156 H 0.5298 0.57696 0.22013 0.0
H157 H 0.58966 0.65688 0.21947 0.0
H158 H 0.56871 0.58698 0.20453 0.0
H159 H 0.55037 0.64568 0.23462 0.0
H160 H 0.63557 0.72608 0.236 0.0
H161 H 0.64728 0.71651 0.13484 0.0
H162 H 0.58037 0.55971 0.32425 0.0
H163 H 0.55822 0.60877 0.32735 0.0
H164 H 0.66152 0.62913 0.1266 0.0
H165 H 0.68295 0.68687 0.18894 0.0
H166 H 0.69689 0.65049 0.09482 0.0
H167 H 0.71803 0.70713 0.15633 0.0
H168 H 0.65941 0.59113 0.20957 0.0
H169 H 0.58835 0.56734 0.21653 0.0
H170 H 0.6505 0.55287 0.1922 0.0
H171 H 0.58066 0.52952 0.19883 0.0
H172 H 0.71137 0.64189 0.30223 0.0
H173 H 0.72946 0.63956 0.20164 0.0
H174 H 0.56542 0.58279 0.09669 0.0
H175 H 0.61524 0.56176 0.09778 0.0
Li176 Li 0.98743 0.63346 0.37616 0.0
Li177 Li 0.00319 0.6152 0.41022 0.0
Li178 Li 0.02813 0.65414 0.38743 0.0
Li179 Li 0.01299 0.62047 0.35256 0.0
C180 C 0.99453 0.65419 0.43759 0.0
N181 N 0.97778 0.67602 0.47506 0.0
C182 C 0.98078 0.64335 0.46453 0.0
C183 C 5e-05 0.67623 0.43001 0.0
C184 C 0.97239 0.65464 0.48308 0.0
C185 C 0.99134 0.68696 0.44917 0.0
C186 C 0.96697 0.58092 0.38098 0.0
C187 C 0.95686 0.54231 0.39085 0.0
N188 N 0.93572 0.5375 0.39931 0.0
C189 C 0.9451 0.57557 0.38948 0.0
C190 C 0.97287 0.56414 0.38137 0.0
C191 C 0.92956 0.55353 0.39877 0.0
C192 C 0.95908 0.64128 0.33602 0.0
N193 N 0.9619 0.63652 0.36732 0.0
C194 C 0.92802 0.63561 0.38377 0.0
C195 C 0.94674 0.63345 0.39104 0.0
C196 C 0.92472 0.64069 0.35166 0.0
C197 C 0.94056 0.64349 0.32762 0.0
H198 H 0.97112 0.64313 0.31748 0.0
H199 H 0.94897 0.62903 0.4155 0.0
C200 C 0.01709 0.59672 0.45938 0.0
N201 N -0.00139 0.59669 0.44735 0.0
C202 C 0.01529 0.58366 0.48655 0.0
C203 C 0.97543 0.57082 0.48876 0.0
C204 C 0.97806 0.58434 0.46166 0.0
C205 C 0.99424 0.57045 0.50154 0.0
H206 H 0.0333 0.60698 0.44795 0.0
H207 H 0.96374 0.5851 0.45222 0.0
C208 C 0.0211 0.66796 0.32603 0.0
N209 N 0.03816 0.70665 0.28867 0.0
C210 C 0.03498 0.6709 0.29924 0.0
C211 C 0.01562 0.68453 0.33351 0.0
C212 C 0.04351 0.69063 0.28074 0.0
C213 C 0.02449 0.70401 0.31442 0.0
C214 C 0.04999 0.62353 0.38182 0.0
C215 C 0.07167 0.64085 0.37409 0.0
C216 C 0.04508 0.60115 0.38075 0.0
C217 C 0.08802 0.63544 0.36488 0.0
C218 C 0.06188 0.59643 0.37138 0.0
N219 N 0.08282 0.61353 0.36368 0.0
C220 C 0.05624 0.68882 0.42946 0.0
C221 C 0.06805 0.69632 0.37421 0.0
C222 C 0.07447 0.70937 0.43922 0.0
N223 N 0.05329 0.68279 0.39743 0.0
C224 C 0.08647 0.71709 0.38283 0.0
C225 C 0.0899 0.72386 0.41576 0.0
H226 H 0.04452 0.67752 0.44753 0.0
H227 H 0.06578 0.69091 0.34906 0.0
C228 C 7e-05 0.58853 0.30261 0.0
N229 N 0.01816 0.6071 0.31525 0.0
C230 C 0.00266 0.57741 0.27588 0.0
C231 C 0.04244 0.60486 0.27534 0.0
C232 C 0.03901 0.61564 0.30184 0.0
C233 C 0.0241 0.58545 0.26215 0.0
H234 H 0.98361 0.58229 0.31339 0.0
H235 H 0.05301 0.6308 0.31169 0.0
O236 O 0.00285 0.64335 0.41916 0.0
O237 O 0.98243 0.60242 0.37193 0.0
O238 O 0.01264 0.64876 0.34441 0.0
O239 O 0.03375 0.6285 0.39079 0.0
H240 H 0.9765 0.62636 0.47089 0.0
H241 H 0.01107 0.68504 0.40973 0.0
H242 H 0.9616 0.64641 0.50386 0.0
H243 H 0.99541 0.704 0.44352 0.0
H244 H 0.96123 0.52918 0.39144 0.0
H245 H 0.94022 0.58831 0.38908 0.0
H246 H 0.98963 0.56794 0.37446 0.0
H247 H 0.91261 0.54917 0.40559 0.0
H248 H 0.91632 0.6334 0.40314 0.0
H249 H 0.93847 0.64691 0.30242 0.0
H250 H 0.03018 0.58373 0.49554 0.0
H251 H 0.95898 0.56109 0.49993 0.0
H252 H 0.03923 0.65816 0.29295 0.0
H253 H 0.00451 0.6823 0.35368 0.0
H254 H 0.05439 0.6932 0.26008 0.0
H255 H 0.02045 0.71701 0.32 0.0
H256 H 0.07579 0.65826 0.37501 0.0
H257 H 0.02848 0.58758 0.38705 0.0
H258 H 0.10484 0.64866 0.35866 0.0
H259 H 0.05829 0.57918 0.37026 0.0
H260 H 0.07668 0.71361 0.46495 0.0
H261 H 0.09785 0.72773 0.36387 0.0
H262 H 0.98812 0.56244 0.26645 0.0
H263 H 0.05917 0.61173 0.26508 0.0
Li264 Li 0.39353 0.00305 0.58034 0.0
Li265 Li 0.35963 0.98743 0.54589 0.0
Li266 Li 0.39837 0.01229 0.52221 0.0
Li267 Li 0.38003 0.02808 0.55606 0.0
C268 C 0.39067 0.96589 0.55107 0.0
N269 N 0.40129 0.93334 0.56833 0.0
C270 C 0.37361 0.94421 0.55939 0.0
C271 C 0.4131 0.97093 0.55109 0.0
C272 C 0.37933 0.92801 0.56815 0.0
C273 C 0.41814 0.95427 0.56003 0.0
C274 C 0.34607 0.99371 0.60726 0.0
C275 C 0.30902 0.98763 0.61941 0.0
N276 N 0.3075 0.9743 0.64504 0.0
C277 C 0.34425 0.98014 0.63392 0.0
C278 C 0.32843 0.99767 0.6001 0.0
C279 C 0.32457 0.97041 0.65265 0.0
C280 C 0.42589 0.01741 0.62956 0.0
N281 N 0.40777 -0.0013 0.61737 0.0
C282 C 0.41283 0.97546 0.65607 0.0
C283 C 0.40073 0.97803 0.63059 0.0
C284 C 0.43215 0.99443 0.66836 0.0
C285 C 0.43835 0.01568 0.65514 0.0
H286 H 0.4308 0.03374 0.61923 0.0
H287 H 0.3859 0.96347 0.62113 0.0
C288 C 0.32394 0.95949 0.50507 0.0
N289 N 0.33091 0.96207 0.53666 0.0
C290 C 0.30333 0.94111 0.49588 0.0
C291 C 0.29743 0.92823 0.55192 0.0
C292 C 0.31824 0.9468 0.55997 0.0
C293 C 0.28973 0.92515 0.51945 0.0
H294 H 0.33457 0.9716 0.48687 0.0
H295 H 0.32439 0.94879 0.5847 0.0
C296 C 0.43289 0.0487 0.55184 0.0
N297 N 0.47677 0.07966 0.53514 0.0
C298 C 0.4387 0.07073 0.54355 0.0
C299 C 0.44946 0.0425 0.55209 0.0
C300 C 0.46097 0.08612 0.53507 0.0
C301 C 0.47152 0.05837 0.54343 0.0
C302 C 0.35997 0.02154 0.49514 0.0
C303 C 0.37133 0.03532 0.46847 0.0
C304 C 0.33825 0.01703 0.50278 0.0
C305 C 0.36089 0.04476 0.45022 0.0
C306 C 0.32838 0.02678 0.48394 0.0
N307 N 0.33982 0.04035 0.45829 0.0
C308 C 0.4171 0.99816 0.4737 0.0
C309 C 0.4304 0.03737 0.47196 0.0
C310 C 0.43144 8e-05 0.44822 0.0
N311 N 0.41715 0.0167 0.48546 0.0
C312 C 0.4452 0.04012 0.44655 0.0
C313 C 0.44607 0.02134 0.43466 0.0
H314 H 0.40598 0.98183 0.48426 0.0
H315 H 0.42971 0.05178 0.48115 0.0
C316 C 0.37059 0.0559 0.59491 0.0
N317 N 0.37687 0.05363 0.56429 0.0
C318 C 0.36846 0.07453 0.60289 0.0
C319 C 0.37945 0.08826 0.54769 0.0
C320 C 0.38147 0.06941 0.54084 0.0
C321 C 0.37292 0.09105 0.57912 0.0
H322 H 0.36756 0.04339 0.61333 0.0
H323 H 0.38706 0.06758 0.51697 0.0
O324 O 0.38538 0.98198 0.54252 0.0
O325 O 0.36522 0.00336 0.58868 0.0
O326 O 0.41115 0.03336 0.56002 0.0
O327 O 0.36997 0.0122 0.51329 0.0
H328 H 0.35616 0.93997 0.55927 0.0
H329 H 0.42647 0.98751 0.54426 0.0
H330 H 0.36631 0.9112 0.57483 0.0
H331 H 0.43544 0.95798 0.56032 0.0
H332 H 0.2952 0.99049 0.61407 0.0
H333 H 0.35783 0.97705 0.63995 0.0
H334 H 0.32975 0.00848 0.57997 0.0
H335 H 0.32286 0.95976 0.67323 0.0
H336 H 0.40739 0.95875 0.66547 0.0
H337 H 0.45271 0.03087 0.66443 0.0
H338 H 0.29837 0.9392 0.47043 0.0
H339 H 0.2875 0.91645 0.57096 0.0
H340 H 0.42614 0.07586 0.54349 0.0
H341 H 0.44531 0.02563 0.55888 0.0
H342 H 0.46567 0.10319 0.52842 0.0
H343 H 0.48449 0.05376 0.54334 0.0
H344 H 0.38809 0.03882 0.46209 0.0
H345 H 0.32906 0.00604 0.52291 0.0
H346 H 0.36953 0.05558 0.42965 0.0
H347 H 0.3116 0.02351 0.48964 0.0
H348 H 0.43101 0.98502 0.43924 0.0
H349 H 0.45615 0.05684 0.43689 0.0
H350 H 0.36387 0.07619 0.62763 0.0
H351 H 0.38296 0.1005 0.52855 0.0
Li352 Li 0.40124 0.39547 0.74672 0.0
Li353 Li 0.38304 0.36257 0.71035 0.0
Li354 Li 0.3973 0.40191 0.68968 0.0
Li355 Li 0.36297 0.38308 0.72311 0.0
C356 C 0.43501 0.39245 0.71903 0.0
N357 N 0.47656 0.40097 0.7414 0.0
C358 C 0.43869 0.3746 0.72607 0.0
C359 C 0.45252 0.41463 0.72301 0.0
C360 C 0.45981 0.37926 0.73742 0.0
C361 C 0.47338 0.41859 0.73448 0.0
C362 C 0.35962 0.34807 0.77163 0.0
C363 C 0.32411 0.31437 0.78189 0.0
N364 N 0.33322 0.31 0.80847 0.0
C365 C 0.36858 0.34338 0.79924 0.0
C366 C 0.33716 0.33357 0.76301 0.0
C367 C 0.35498 0.32399 0.81747 0.0
C368 C 0.42126 0.42721 0.79669 0.0
N369 N 0.41935 0.40786 0.78466 0.0
C370 C 0.44432 0.40814 0.82567 0.0
C371 C 0.43011 0.39794 0.79896 0.0
C372 C 0.44687 0.42833 0.83821 0.0
C373 C 0.43493 0.43774 0.82369 0.0
H374 H 0.41227 0.43457 0.78518 0.0
H375 H 0.42785 0.38225 0.78944 0.0
C376 C 0.38058 0.3306 0.66644 0.0
N377 N 0.37972 0.33424 0.69892 0.0
C378 C 0.37866 0.31045 0.65551 0.0
C379 C 0.37507 0.29816 0.7117 0.0
C380 C 0.37719 0.31862 0.72156 0.0
C381 C 0.37587 0.29391 0.67828 0.0
H382 H 0.3828 0.34343 0.64903 0.0
H383 H 0.37714 0.32211 0.74725 0.0
C384 C 0.39399 0.43501 0.71863 0.0
N385 N 0.40399 0.47742 0.69818 0.0
C386 C 0.37668 0.4391 0.7097 0.0
C387 C 0.41636 0.45252 0.7175 0.0
C388 C 0.3821 0.46066 0.69936 0.0
C389 C 0.42108 0.47383 0.70697 0.0
C390 C 0.35018 0.3619 0.66033 0.0
C391 C 0.34663 0.37181 0.63281 0.0
C392 C 0.33494 0.33938 0.66773 0.0
C393 C 0.32763 0.35907 0.6134 0.0
C394 C 0.31616 0.32722 0.64771 0.0
N395 N 0.31291 0.33724 0.6212 0.0
C396 C 0.43161 0.42377 0.64368 0.0
C397 C 0.40248 0.43259 0.63837 0.0
C398 C 0.44351 0.43822 0.61801 0.0
N399 N 0.41165 0.42144 0.6536 0.0
C400 C 0.41395 0.44746 0.61275 0.0
C401 C 0.43487 0.45055 0.60237 0.0
H402 H 0.43828 0.4143 0.65563 0.0
H403 H 0.38634 0.43008 0.64626 0.0
C404 C 0.33106 0.3817 0.76569 0.0
N405 N 0.33463 0.38016 0.73337 0.0
C406 C 0.31096 0.38005 0.77627 0.0
C407 C 0.2985 0.37521 0.72006 0.0
C408 C 0.31895 0.37713 0.71053 0.0
C409 C 0.29437 0.37675 0.75332 0.0
H410 H 0.34391 0.38423 0.78326 0.0
H411 H 0.32232 0.37646 0.68494 0.0
O412 O 0.41442 0.38822 0.70808 0.0
O413 O 0.37272 0.36702 0.75362 0.0
O414 O 0.38904 0.414 0.7286 0.0
O415 O 0.36871 0.37416 0.67952 0.0
H416 H 0.42535 0.35734 0.72299 0.0
H417 H 0.44995 0.42863 0.71754 0.0
H418 H 0.46288 0.36562 0.74312 0.0
H419 H 0.48703 0.43566 0.73791 0.0
H420 H 0.30671 0.30298 0.77546 0.0
H421 H 0.38589 0.35453 0.80638 0.0
H422 H 0.32981 0.33718 0.74217 0.0
H423 H 0.36172 0.32008 0.83878 0.0
H424 H 0.4531 0.40029 0.83653 0.0
H425 H 0.43655 0.45335 0.83267 0.0
H426 H 0.3792 0.30777 0.62951 0.0
H427 H 0.37332 0.28599 0.73005 0.0
H428 H 0.35928 0.42574 0.71052 0.0
H429 H 0.42993 0.44964 0.72449 0.0
H430 H 0.36889 0.46405 0.69222 0.0
H431 H 0.43832 0.48751 0.70577 0.0
H432 H 0.35835 0.38918 0.62662 0.0
H433 H 0.33764 0.33132 0.68854 0.0
H434 H 0.3246 0.36655 0.59212 0.0
H435 H 0.3042 0.30978 0.65319 0.0
H436 H 0.45921 0.43949 0.61031 0.0
H437 H 0.40664 0.45663 0.60156 0.0
H438 H 0.30834 0.38116 0.80216 0.0
H439 H 0.28624 0.373 0.70158 0.0
Li440 Li 0.01353 0.39862 0.91343 0.0
Li441 Li 0.02844 0.38024 0.87789 0.0
Li442 Li 0.00376 0.39455 0.85496 0.0
Li443 Li 0.98824 0.36035 0.88856 0.0
C444 C 0.04933 0.43384 0.87993 0.0
N445 N 0.08007 0.47895 0.88944 0.0
C446 C 0.07194 0.44082 0.88606 0.0
C447 C 0.04243 0.44984 0.87813 0.0
C448 C 0.08721 0.46369 0.89094 0.0
C449 C 0.05819 0.47255 0.88315 0.0
C450 C 0.0245 0.36155 0.93791 0.0
C451 C 0.03418 0.33269 0.94715 0.0
N452 N 0.04796 0.34508 0.97205 0.0
C453 C 0.03857 0.37391 0.96379 0.0
C454 C 0.0221 0.34068 0.92969 0.0
C455 C 0.05036 0.36533 0.98069 0.0
C456 C 0.00032 0.41479 0.96691 0.0
N457 N 0.01869 0.417 0.95088 0.0
C458 C 0.04331 0.44623 0.98737 0.0
C459 C 0.03992 0.43197 0.96099 0.0
C460 C 0.02464 0.4447 0.00385 0.0
C461 C 0.00291 0.42854 0.99361 0.0
H462 H 0.98362 0.4025 0.9587 0.0
H463 H 0.05425 0.43287 0.94861 0.0
C464 C 0.05484 0.36837 0.83949 0.0
N465 N 0.0539 0.37705 0.86891 0.0
C466 C 0.0735 0.36636 0.83122 0.0
C467 C 0.08985 0.38216 0.88378 0.0
C468 C 0.07096 0.38405 0.89089 0.0
C469 C 0.09139 0.37334 0.85348 0.0
H470 H 0.04126 0.36338 0.82216 0.0
H471 H 0.07008 0.39141 0.91377 0.0
C472 C 0.96796 0.3934 0.88903 0.0
N473 N 0.93709 0.40769 0.88036 0.0
C474 C 0.94565 0.37793 0.88084 0.0
C475 C 0.97446 0.41607 0.89336 0.0
C476 C 0.93032 0.3855 0.87642 0.0
C477 C 0.95865 0.42298 0.88871 0.0
C478 C 0.99184 0.34697 0.82723 0.0
C479 C 0.97804 0.34638 0.80166 0.0
C480 C 0.99365 0.32796 0.83396 0.0
C481 C 0.96595 0.32659 0.78356 0.0
C482 C 0.98127 0.30848 0.81533 0.0
N483 N 0.96777 0.3082 0.79075 0.0
C484 C 0.01827 0.42569 0.80393 0.0
C485 C 0.97852 0.40394 0.80791 0.0
C486 C 0.01664 0.43818 0.77828 0.0
N487 N -0.00061 0.40928 0.81861 0.0
C488 C 0.97608 0.41605 0.78232 0.0
C489 C 0.99533 0.43366 0.76745 0.0
H490 H 0.03466 0.42918 0.81228 0.0
H491 H 0.96375 0.39035 0.81923 0.0
C492 C 0.96147 0.32194 0.92618 0.0
N493 N 0.96256 0.33167 0.89679 0.0
C494 C 0.94283 0.30118 0.93417 0.0
C495 C 0.92674 0.30077 0.88145 0.0
C496 C 0.94562 0.32164 0.87461 0.0
C497 C 0.9251 0.29029 0.91167 0.0
H498 H 0.97495 0.33049 0.94367 0.0
H499 H 0.94659 0.32995 0.85175 0.0
O500 O 0.03413 0.41149 0.87531 0.0
O501 O 0.01289 0.36972 0.92103 0.0
O502 O 0.9832 0.38628 0.89334 0.0
O503 O 0.00376 0.36618 0.84523 0.0
H504 H 0.07763 0.42871 0.88723 0.0
H505 H 0.02513 0.44482 0.87268 0.0
H506 H 0.10473 0.4693 0.89592 0.0
H507 H 0.05306 0.4851 0.88194 0.0
H508 H 0.03258 0.31661 0.94094 0.0
H509 H 0.04048 0.39 0.97063 0.0
H510 H 0.01102 0.33077 0.91006 0.0
H511 H 0.06142 0.37477 0.00064 0.0
H512 H 0.06032 0.45822 0.99493 0.0
H513 H 0.98809 0.4269 0.00562 0.0
H514 H 0.07411 0.35991 0.80732 0.0
H515 H 0.10311 0.38759 0.90184 0.0
H516 H 0.94026 0.36029 0.87771 0.0
H517 H 0.99148 0.42817 0.90048 0.0
H518 H 0.91305 0.37373 0.86985 0.0
H519 H 0.96349 0.4405 0.89186 0.0
H520 H 0.97659 0.36101 0.79597 0.0
H521 H 0.0045 0.32824 0.85333 0.0
H522 H 0.9551 0.32585 0.76383 0.0
H523 H 0.98242 0.2936 0.82038 0.0
H524 H 0.03193 0.4512 0.76699 0.0
H525 H 0.95932 0.41195 0.77472 0.0
H526 H 0.94213 0.29403 0.95804 0.0
H527 H 0.9136 0.29297 0.86322 0.0
C528 C 0.56856 0.04246 0.20143 0.0
C529 C 0.57394 0.02523 0.20004 0.0
C530 C 0.55587 0.04349 0.22746 0.0
C531 C 0.51633 0.00707 0.29181 0.0
H532 H 0.52628 0.06355 0.32823 0.0
C533 C 0.47282 0.0107 0.40953 0.0
C534 C 0.46222 0.02374 0.40854 0.0
C535 C 0.48724 0.01209 0.38446 0.0
C536 C 0.52325 0.04768 0.31809 0.0
H537 H 0.57141 0.99632 0.22541 0.0
H538 H 0.54989 -0.00156 0.27126 0.0
H539 H 0.55059 0.0639 0.28419 0.0
H540 H 0.45896 0.04888 0.38059 0.0
H541 H 0.4846 0.05157 0.33699 0.0
H542 H 0.48926 0.99087 0.32604 0.0
C543 C 0.55473 0.01073 0.25182 0.0
C544 C 0.53711 0.04786 0.29284 0.0
C545 C 0.56715 0.00956 0.22566 0.0
C546 C 0.46697 0.03874 0.38229 0.0
C547 C 0.48161 0.04027 0.35729 0.0
C548 C 0.50267 0.00691 0.31719 0.0
C549 C 0.54853 0.02743 0.25276 0.0
C550 C 0.53387 0.02752 0.2795 0.0
C551 C 0.49161 0.02671 0.35795 0.0
C552 C 0.50604 0.02718 0.33067 0.0
H553 H 0.57349 0.05466 0.18183 0.0
H554 H 0.55123 0.05644 0.2272 0.0
H555 H 0.51292 0.9911 0.28161 0.0
H556 H 0.47003 -0.00059 0.42976 0.0
H557 H 0.49504 0.00173 0.38584 0.0
C558 C 0.54016 0.54575 0.35708 0.0
C559 C 0.55118 0.56943 0.35657 0.0
C560 C 0.52661 0.53366 0.38348 0.0
C561 C 0.49319 0.5355 0.45154 0.0
H562 H 0.50621 0.49194 0.49152 0.0
C563 C 0.43639 0.46845 0.5479 0.0
C564 C 0.44762 0.46628 0.57524 0.0
C565 C 0.44859 0.48233 0.5217 0.0
C566 C 0.50245 0.50409 0.48065 0.0
H567 H 0.55597 0.59887 0.38332 0.0
H568 H 0.53169 0.57757 0.42906 0.0
H569 H 0.52788 0.51343 0.444 0.0
H570 H 0.48054 0.47803 0.59705 0.0
H571 H 0.5017 0.50159 0.5509 0.0
H572 H 0.46752 0.52587 0.48814 0.0
C573 C 0.53375 0.5685 0.40891 0.0
C574 C 0.5147 0.51624 0.45337 0.0
C575 C 0.54759 0.58066 0.38266 0.0
C576 C 0.47131 0.4788 0.57608 0.0
C577 C 0.48346 0.49241 0.54975 0.0
C578 C 0.48065 0.52304 0.4786 0.0
C579 C 0.52346 0.54493 0.40978 0.0
C580 C 0.51023 0.53208 0.4386 0.0
C581 C 0.47223 0.4941 0.52218 0.0
C582 C 0.48527 0.50732 0.49347 0.0
H583 H 0.54204 0.53647 0.33708 0.0
H584 H 0.51858 0.51546 0.38338 0.0
H585 H 0.48939 0.54757 0.44047 0.0
H586 H 0.4182 0.45891 0.54622 0.0
H587 H 0.43956 0.48326 0.50057 0.0
C588 C 0.00825 0.47082 0.73999 0.0
C589 C 0.99337 0.44744 0.74103 0.0
C590 C 0.00705 0.48381 0.71468 0.0
C591 C 0.96995 0.48502 0.65075 0.0
H592 H 0.02632 0.5288 0.61056 0.0
C593 C 0.97473 0.53394 0.53241 0.0
C594 C 0.99215 0.55647 0.53039 0.0
C595 C 0.97376 0.52041 0.55868 0.0
C596 C 0.01044 0.51689 0.62178 0.0
H597 H 0.96531 0.41943 0.71643 0.0
H598 H 0.96312 0.44225 0.67221 0.0
H599 H 0.02661 0.5056 0.6553 0.0
H600 H 0.02151 0.58285 0.55499 0.0
H601 H 0.01966 0.55946 0.60101 0.0
H602 H 0.9538 0.49647 0.61726 0.0
C603 C 0.97564 0.45047 0.69119 0.0
C604 C 0.01062 0.50356 0.64738 0.0
C605 C 0.97689 0.43743 0.71651 0.0
C606 C 0.00814 0.56542 0.55562 0.0
C607 C 0.0071 0.55198 0.58192 0.0
C608 C 0.96977 0.49847 0.62516 0.0
C609 C 0.99089 0.47376 0.68984 0.0
C610 C 0.99041 0.48757 0.66227 0.0
C611 C 0.99013 0.52922 0.58352 0.0
C612 C 0.99005 0.51466 0.61051 0.0
H613 H 0.02081 0.47915 0.75888 0.0
H614 H 0.01875 0.50178 0.71462 0.0
H615 H 0.95413 0.47294 0.66195 0.0
H616 H 0.96228 0.52657 0.51316 0.0
H617 H 0.96059 0.5029 0.559 0.0
C618 C 0.53436 0.97356 0.90062 0.0
C619 C 0.55683 0.9911 0.90234 0.0
C620 C 0.5206 0.9725 0.87462 0.0
C621 C 0.51685 0.00914 0.81127 0.0
H622 H 0.47118 0.95267 0.77364 0.0
C623 C 0.46963 0.00575 0.69375 0.0
C624 C 0.44602 0.99223 0.69447 0.0
C625 C 0.48276 0.00445 0.71875 0.0
C626 C 0.48378 0.96853 0.78412 0.0
H627 H 0.58294 0.02055 0.87757 0.0
H628 H 0.55927 0.0184 0.83178 0.0
H629 H 0.49528 0.95237 0.81749 0.0
H630 H 0.41779 0.96638 0.7219 0.0
H631 H 0.44091 0.96386 0.76536 0.0
H632 H 0.50561 0.02529 0.77757 0.0
C633 C 0.55193 0.00587 0.85094 0.0
C634 C 0.49755 0.96839 0.80927 0.0
C635 C 0.56555 0.00706 0.87706 0.0
C636 C 0.43592 0.97689 0.72039 0.0
C637 C 0.44913 0.97546 0.74531 0.0
C638 C 0.50329 0.00928 0.786 0.0
C639 C 0.52916 0.98885 0.8497 0.0
C640 C 0.51433 0.98872 0.82305 0.0
C641 C 0.47264 0.98945 0.74491 0.0
C642 C 0.48668 0.98901 0.77208 0.0
H643 H 0.52721 0.96113 0.91995 0.0
H644 H 0.50311 0.9593 0.87464 0.0
H645 H 0.52918 0.0251 0.82182 0.0
H646 H 0.47804 0.01732 0.67376 0.0
H647 H 0.50089 0.01516 0.71756 0.0
C648 C 0.57092 0.53178 0.06864 0.0
C649 C 0.57692 0.55456 0.06638 0.0
C650 C 0.5583 0.51667 0.04386 0.0
C651 C 0.54304 0.51274 0.9575 0.0
H652 H 0.48737 0.4593 0.98265 0.0
C653 C 0.48465 0.44461 0.86489 0.0
C654 C 0.46223 0.4399 0.86588 0.0
C655 C 0.49964 0.45707 0.88989 0.0
C656 C 0.50293 0.47409 0.97535 0.0
H657 H 0.5752 0.57961 0.03618 0.0
H658 H 0.55348 0.55324 0.99249 0.0
H659 H 0.5127 0.48457 0.0249 0.0
H660 H 0.43761 0.44372 0.89407 0.0
H661 H 0.46371 0.46515 0.93817 0.0
H662 H 0.53317 0.50239 0.90795 0.0
C663 C 0.55841 0.54708 0.0135 0.0
C664 C 0.51745 0.48844 -0.00055 0.0
C665 C 0.57068 0.5621 0.03851 0.0
C666 C 0.45485 0.44723 0.89274 0.0
C667 C 0.46971 0.45934 0.91799 0.0
C668 C 0.5287 0.4982 0.93342 0.0
C669 C 0.55184 0.52418 0.01617 0.0
C670 C 0.53746 0.50807 0.99071 0.0
C671 C 0.49231 0.46465 0.91655 0.0
C672 C 0.50836 0.47894 0.94213 0.0
H673 H 0.57542 0.52555 0.09001 0.0
H674 H 0.55349 0.4991 0.04639 0.0
H675 H 0.55842 0.52774 0.95019 0.0
H676 H 0.49075 0.43924 0.8443 0.0
H677 H 0.51697 0.46089 0.88833 0.0
C678 C 0.0428 0.48342 0.02806 0.0
C679 C 0.02772 0.46018 0.03113 0.0
C680 C 0.04483 0.49819 0.05308 0.0
C681 C 0.035 0.50107 0.14073 0.0
H682 H 0.03054 0.55354 0.11731 0.0
C683 C 0.04455 0.56809 0.23516 0.0
C684 C 0.02724 0.57339 0.23448 0.0
C685 C 0.04667 0.55554 0.2099 0.0
C686 C 0.03185 0.53898 0.12416 0.0
H687 H 0.00345 0.43409 0.06308 0.0
H688 H 0.00708 0.45991 0.10692 0.0
H689 H 0.03055 0.52874 0.07438 0.0
H690 H -0.00094 0.57044 0.20649 0.0
H691 H 0.00288 0.54869 0.16217 0.0
H692 H 0.03598 0.51115 0.19055 0.0
C693 C 0.0173 0.46668 0.08515 0.0
C694 C 0.03204 0.5249 0.09963 0.0
C695 C 0.01508 0.45194 0.05999 0.0
C696 C 0.01245 0.56643 0.2077 0.0
C697 C 0.01475 0.55416 0.18226 0.0
C698 C 0.03509 0.51529 0.16525 0.0
C699 C 0.032 0.48996 0.08179 0.0
C700 C 0.03331 0.50565 0.10771 0.0
C701 C 0.03171 0.54837 0.1833 0.0
C702 C 0.03321 0.53422 0.15721 0.0
H703 H 0.05262 0.49023 0.00597 0.0
H704 H 0.05638 0.51605 0.04996 0.0
H705 H 0.03615 0.48641 0.1476 0.0
H706 H 0.05608 0.57313 0.25565 0.0
H707 H 0.05997 0.55141 0.21118 0.0
C708 C 0.62913 0.75283 0.18981 0.0
C709 C 0.64371 0.74636 0.1756 0.0
C710 C 0.63034 0.77307 0.18096 0.0
C711 C 0.64835 0.81412 0.11413 0.0
H712 H 0.644 0.85265 0.17961 0.0
C713 C 0.65704 0.90011 0.0814 0.0
C714 C 0.64229 0.90569 0.09717 0.0
C715 C 0.65845 0.88135 0.0914 0.0
C716 C 0.645 0.84196 0.16099 0.0
H717 H 0.67141 0.75646 0.14153 0.0
H718 H 0.67328 0.79169 0.1258 0.0
H719 H 0.64427 0.81868 0.19653 0.0
H720 H 0.61713 0.89578 0.13534 0.0
H721 H 0.61935 0.86295 0.15252 0.0
H722 H 0.64867 0.83712 0.07852 0.0
C723 C 0.66078 0.78094 0.14356 0.0
C724 C 0.6452 0.82254 0.17071 0.0
C725 C 0.65967 0.76074 0.15254 0.0
C726 C 0.62892 0.89211 0.12305 0.0
C727 C 0.63024 0.87332 0.13294 0.0
C728 C 0.64804 0.83349 0.10438 0.0
C729 C 0.64607 0.78726 0.15758 0.0
C730 C 0.64674 0.80834 0.14737 0.0
C731 C 0.64504 0.86772 0.11728 0.0
C732 C 0.6462 0.84756 0.12768 0.0
H733 H 0.61639 0.742 0.20723 0.0
H734 H 0.61856 0.77736 0.19184 0.0
H735 H 0.64927 0.80335 0.09556 0.0
H736 H 0.66775 0.91043 0.06164 0.0
H737 H 0.67025 0.8777 0.07911 0.0
C738 C 0.88349 0.62775 0.3569 0.0
C739 C 0.90463 0.64252 0.34306 0.0
C740 C 0.8645 0.62907 0.34814 0.0
C741 C 0.84178 0.64766 0.28181 0.0
H742 H 0.79895 0.64346 0.34729 0.0
C743 C 0.76513 0.65716 0.24862 0.0
C744 C 0.7447 0.64266 0.26439 0.0
C745 C 0.78515 0.65838 0.25886 0.0
C746 C 0.81061 0.64441 0.32866 0.0
H747 H 0.92242 0.67067 0.30975 0.0
H748 H 0.88914 0.67269 0.2941 0.0
H749 H 0.83296 0.64327 0.36417 0.0
H750 H 0.72912 0.61784 0.3029 0.0
H751 H 0.76394 0.61964 0.32042 0.0
H752 H 0.81929 0.64831 0.24621 0.0
C753 C 0.88731 0.65998 0.31153 0.0
C754 C 0.83011 0.64435 0.33836 0.0
C755 C 0.90634 0.65877 0.32045 0.0
C756 C 0.74468 0.62941 0.29059 0.0
C757 C 0.76465 0.6305 0.30068 0.0
C758 C 0.8222 0.64756 0.27207 0.0
C759 C 0.86618 0.64508 0.32519 0.0
C760 C 0.84584 0.64588 0.31502 0.0
C761 C 0.78514 0.64499 0.28493 0.0
C762 C 0.80632 0.64581 0.29537 0.0
H763 H 0.88147 0.61479 0.37396 0.0
H764 H 0.84837 0.61716 0.35873 0.0
H765 H 0.85348 0.64857 0.26325 0.0
H766 H 0.76567 0.66777 0.22861 0.0
H767 H 0.80067 0.66998 0.24652 0.0
C768 C 0.13079 0.75337 0.41082 0.0
C769 C 0.1097 0.74563 0.42576 0.0
C770 C 0.14952 0.77352 0.42081 0.0
C771 C 0.17222 0.81146 0.49099 0.0
H772 H 0.2133 0.85429 0.42737 0.0
C773 C 0.26113 0.88394 0.52392 0.0
C774 C 0.26796 0.90515 0.50996 0.0
C775 C 0.24105 0.86501 0.51421 0.0
C776 C 0.20189 0.84256 0.44541 0.0
H777 H 0.09172 0.75341 0.46244 0.0
H778 H 0.12456 0.78839 0.48024 0.0
H779 H 0.1795 0.82035 0.40874 0.0
H780 H 0.25859 0.92312 0.47546 0.0
H781 H 0.22375 0.88994 0.45812 0.0
H782 H 0.19468 0.8336 0.52765 0.0
C783 C 0.12656 0.77871 0.46095 0.0
C784 C 0.18268 0.82306 0.43475 0.0
C785 C 0.10778 0.75865 0.45079 0.0
C786 C 0.25408 0.90698 0.48629 0.0
C787 C 0.23409 0.88801 0.4764 0.0
C788 C 0.19154 0.83085 0.50164 0.0
C789 C 0.14763 0.7863 0.44613 0.0
C790 C 0.16769 0.80728 0.45743 0.0
C791 C 0.22743 0.86682 0.49016 0.0
C792 C 0.2066 0.84656 0.47895 0.0
H793 H 0.13299 0.7436 0.39187 0.0
H794 H 0.16563 0.77882 0.40925 0.0
H795 H 0.16104 0.79949 0.509 0.0
H796 H 0.27156 0.8818 0.54179 0.0
H797 H 0.23646 0.84882 0.52494 0.0
C798 C 0.35813 0.25187 0.68093 0.0
C799 C 0.37418 0.27254 0.66721 0.0
C800 C 0.35664 0.23176 0.6705 0.0
C801 C 0.37308 0.20715 0.60248 0.0
H802 H 0.36324 0.1615 0.66671 0.0
C803 C 0.38739 0.13265 0.5753 0.0
C804 C 0.3714 0.11135 0.58744 0.0
C805 C 0.38644 0.15185 0.58402 0.0
C806 C 0.36573 0.17398 0.64844 0.0
H807 H 0.40149 0.2884 0.63221 0.0
H808 H 0.39913 0.2534 0.61432 0.0
H809 H 0.36414 0.19594 0.68409 0.0
H810 H 0.34149 0.09353 0.61758 0.0
H811 H 0.34006 0.12714 0.63314 0.0
H812 H 0.3751 0.18529 0.56695 0.0
C813 C 0.38732 0.25262 0.63259 0.0
C814 C 0.36621 0.19371 0.65837 0.0
C815 C 0.38872 0.27269 0.64288 0.0
C816 C 0.3543 0.10971 0.60824 0.0
C817 C 0.35344 0.12894 0.61711 0.0
C818 C 0.37272 0.18748 0.59259 0.0
C819 C 0.37126 0.2319 0.64626 0.0
C820 C 0.37002 0.21059 0.63554 0.0
C821 C 0.36957 0.15021 0.60522 0.0
C822 C 0.36916 0.17074 0.61549 0.0
H823 H 0.34652 0.25121 0.69944 0.0
H824 H 0.34385 0.21607 0.6812 0.0
H825 H 0.37564 0.21961 0.58415 0.0
H826 H 0.40101 0.1346 0.55968 0.0
H827 H 0.39929 0.16807 0.57483 0.0
C828 C 0.13331 0.38929 0.85418 0.0
C829 C 0.11178 0.37207 0.84473 0.0
C830 C 0.15253 0.38844 0.84525 0.0
C831 C 0.17373 0.36517 0.78355 0.0
H832 H 0.22122 0.37916 0.8465 0.0
C833 C 0.25227 0.35853 0.75141 0.0
C834 C 0.27301 0.37524 0.76405 0.0
C835 C 0.23216 0.35706 0.76181 0.0
C836 C 0.20825 0.37548 0.8285 0.0
H837 H 0.09365 0.34018 0.81902 0.0
H838 H 0.12731 0.33901 0.80287 0.0
H839 H 0.18693 0.3786 0.86384 0.0
H840 H 0.28905 0.40379 0.7969 0.0
H841 H 0.25407 0.40155 0.81458 0.0
H842 H 0.19518 0.36259 0.74799 0.0
C843 C 0.12922 0.35319 0.81707 0.0
C844 C 0.18858 0.37509 0.8385 0.0
C845 C 0.10996 0.35392 0.82625 0.0
C846 C 0.27327 0.39053 0.78711 0.0
C847 C 0.2532 0.38918 0.79731 0.0
C848 C 0.19348 0.36576 0.77347 0.0
C849 C 0.15069 0.37047 0.82643 0.0
C850 C 0.17118 0.37005 0.81609 0.0
C851 C 0.23238 0.37238 0.78488 0.0
C852 C 0.21105 0.37105 0.79578 0.0
H853 H 0.13542 0.40373 0.86786 0.0
H854 H 0.16889 0.40214 0.85242 0.0
H855 H 0.16068 0.36149 0.76568 0.0
H856 H 0.25158 0.34637 0.73387 0.0
H857 H 0.21642 0.34371 0.75209 0.0
C858 C 0.88322 0.26402 0.91053 0.0
C859 C 0.90478 0.26848 0.92012 0.0
C860 C 0.86406 0.24385 0.91937 0.0
C861 C 0.84313 0.19952 0.98127 0.0
H862 H 0.79558 0.16559 0.9186 0.0
C863 C 0.76509 0.11422 0.01429 0.0
C864 C 0.74425 0.11002 0.00184 0.0
C865 C 0.7851 0.13286 0.00356 0.0
C866 C 0.80857 0.175 0.93651 0.0
H867 H 0.92303 0.25486 0.94584 0.0
H868 H 0.88948 0.21987 0.96182 0.0
H869 H 0.82973 0.19944 0.901 0.0
H870 H 0.72794 0.12219 0.96892 0.0
H871 H 0.76274 0.15493 0.95066 0.0
H872 H 0.82186 0.17551 0.017 0.0
C873 C 0.8875 0.2321 0.94762 0.0
C874 C 0.82815 0.19433 0.92637 0.0
C875 C 0.90669 0.25218 0.93853 0.0
C876 C 0.74379 0.12485 0.97858 0.0
C877 C 0.76376 0.14356 0.96805 0.0
C878 C 0.82348 0.1803 0.99149 0.0
C879 C 0.866 0.22779 0.93823 0.0
C880 C 0.84557 0.20684 0.94869 0.0
C881 C 0.78468 0.14779 0.98035 0.0
C882 C 0.8059 0.16786 0.96928 0.0
H883 H 0.88105 0.27632 0.89686 0.0
H884 H 0.84767 0.24109 0.91215 0.0
H885 H 0.8562 0.20901 -0.00092 0.0
H886 H 0.76594 0.10291 0.03197 0.0
H887 H 0.80092 0.13539 0.01318 0.0
loop_
_geom_bond_atom_site_label_1
_geom_bond_atom_site_label_2
_geom_bond_distance
_geom_bond_site_symmetry_2
_ccdc_geom_bond_type
Li0 N17 1.990 . S
Li0 O60 1.956 . S
Li0 O61 1.970 . S
Li0 O62 1.961 . S
Li1 N25 1.990 . S
Li1 O60 1.970 . S
Li1 O61 1.956 . S
Li1 O63 1.961 1_545 S
Li2 N47 1.990 . S
Li2 O60 1.961 1_565 S
Li2 O62 1.956 1_565 S
Li2 O63 1.970 . S
Li3 N53 1.990 1_554 S
Li3 O61 1.961 . S
Li3 O62 1.970 . S
Li3 O63 1.956 1_545 S
C4 C6 1.348 . S
C4 C7 1.356 . S
C4 O60 1.325 . S
N5 C8 1.314 . S
N5 C9 1.279 . S
C6 C4 1.348 . S
C6 C8 1.353 . S
C6 H64 0.929 . S
C7 C4 1.356 . S
C7 C9 1.358 . S
C7 H65 0.930 . S
C8 N5 1.314 . S
C8 C6 1.353 . S
C8 H66 0.930 . S
C9 N5 1.279 . S
C9 C7 1.358 . S
C9 H67 0.930 . S
C10 C13 1.348 . S
C10 C14 1.356 . S
C10 O61 1.325 . S
C11 N12 1.279 . S
C11 C14 1.358 . S
C11 H68 0.930 . S
N12 C11 1.279 . S
N12 C15 1.314 . S
C13 C10 1.348 . S
C13 C15 1.353 . S
C13 H69 0.929 . S
C14 C10 1.356 . S
C14 C11 1.358 . S
C14 H70 0.930 . S
C15 N12 1.314 . S
C15 C13 1.353 . S
C15 H71 0.930 . S
C16 N17 1.314 . S
C16 C21 1.353 . S
C16 H22 0.930 1_554 S
N17 Li0 1.990 . S
N17 C16 1.314 . S
N17 C19 1.279 . S
C18 C19 1.358 . S
C18 C20 1.356 . S
C18 H72 0.930 . S
C19 N17 1.279 . S
C19 C18 1.358 . S
C19 H23 0.930 . S
C20 C18 1.356 . S
C20 C21 1.348 . S
C21 C16 1.353 . S
C21 C20 1.348 . S
C21 H73 0.929 1_554 S
H22 C16 0.930 1_556 S
H23 C19 0.930 . S
C24 N25 1.314 . S
C24 C26 1.353 . S
C24 H30 0.930 1_545 S
N25 Li1 1.990 . S
N25 C24 1.314 . S
N25 C28 1.279 . S
C26 C24 1.353 . S
C26 C29 1.348 . S
C26 H74 0.929 1_545 S
C27 C28 1.358 . S
C27 C29 1.356 . S
C27 H75 0.930 . S
C28 N25 1.279 . S
C28 C27 1.358 . S
C28 H31 0.930 . S
C29 C26 1.348 . S
C29 C27 1.356 . S
H30 C24 0.930 1_565 S
H31 C28 0.930 . S
C32 C34 1.348 1_545 S
C32 C35 1.356 . S
C32 O62 1.325 1_556 S
N33 C36 1.314 . S
N33 C37 1.279 1_565 S
C34 C32 1.348 1_565 S
C34 C36 1.353 . S
C34 H76 0.929 . S
C35 C32 1.356 . S
C35 C37 1.358 . S
C35 H77 0.930 1_556 S
C36 N33 1.314 . S
C36 C34 1.353 . S
C36 H78 0.930 . S
C37 N33 1.279 1_545 S
C37 C35 1.358 . S
C37 H79 0.930 . S
C38 C39 1.348 . S
C38 C40 1.356 . S
C38 O63 1.325 . S
C39 C38 1.348 . S
C39 C41 1.353 . S
C39 H80 0.929 . S
C40 C38 1.356 . S
C40 C42 1.358 . S
C40 H81 0.930 . S
C41 C39 1.353 . S
C41 N43 1.314 . S
C41 H82 0.930 . S
C42 C40 1.358 . S
C42 N43 1.279 . S
C42 H83 0.930 . S
N43 C41 1.314 . S
N43 C42 1.279 . S
C44 C46 1.353 . S
C44 N47 1.314 . S
C44 H50 0.930 . S
C45 N47 1.279 . S
C45 C48 1.358 . S
C45 H51 0.930 . S
C46 C44 1.353 . S
C46 C49 1.348 . S
C46 H84 0.929 . S
N47 Li2 1.990 . S
N47 C44 1.314 . S
N47 C45 1.279 . S
C48 C45 1.358 . S
C48 C49 1.356 . S
C48 H85 0.930 . S
C49 C46 1.348 . S
C49 C48 1.356 . S
H50 C44 0.930 . S
H51 C45 0.930 . S
C52 N53 1.314 . S
C52 C54 1.353 . S
C52 H58 0.930 . S
N53 Li3 1.990 1_556 S
N53 C52 1.314 . S
N53 C56 1.279 1_545 S
C54 C52 1.353 . S
C54 C57 1.348 1_545 S
C54 H86 0.929 . S
C55 C56 1.358 . S
C55 C57 1.356 . S
C55 H87 0.930 . S
C56 N53 1.279 1_565 S
C56 C55 1.358 . S
C56 H59 0.930 . S
C57 C54 1.348 1_565 S
C57 C55 1.356 . S
H58 C52 0.930 . S
H59 C56 0.930 . S
O60 Li0 1.956 . S
O60 Li1 1.970 . S
O60 Li2 1.961 1_545 S
O60 C4 1.325 . S
O61 Li0 1.970 . S
O61 Li1 1.956 . S
O61 Li3 1.961 . S
O61 C10 1.325 . S
O62 Li0 1.961 . S
O62 Li2 1.956 1_545 S
O62 Li3 1.970 . S
O62 C32 1.325 1_554 S
O63 Li1 1.961 1_565 S
O63 Li2 1.970 . S
O63 Li3 1.956 1_565 S
O63 C38 1.325 . S
H64 C6 0.929 . S
H65 C7 0.930 . S
H66 C8 0.930 . S
H67 C9 0.930 . S
H68 C11 0.930 . S
H69 C13 0.929 . S
H70 C14 0.930 . S
H71 C15 0.930 . S
H72 C18 0.930 . S
H73 C21 0.929 1_556 S
H74 C26 0.929 1_565 S
H75 C27 0.930 . S
H76 C34 0.929 . S
H77 C35 0.930 1_554 S
H78 C36 0.930 . S
H79 C37 0.930 . S
H80 C39 0.929 . S
H81 C40 0.930 . S
H82 C41 0.930 . S
H83 C42 0.930 . S
H84 C46 0.929 . S
H85 C48 0.930 . S
H86 C54 0.929 . S
H87 C55 0.930 . S
Li88 N105 1.990 . S
Li88 O148 1.956 . S
Li88 O149 1.970 . S
Li88 O150 1.961 . S
Li89 N113 1.990 . S
Li89 O148 1.970 . S
Li89 O149 1.956 . S
Li89 O151 1.961 . S
Li90 N135 1.990 . S
Li90 O148 1.961 . S
Li90 O150 1.956 . S
Li90 O151 1.970 . S
Li91 N141 1.990 . S
Li91 O149 1.961 . S
Li91 O150 1.970 . S
Li91 O151 1.956 . S
C92 C94 1.348 . S
C92 C95 1.356 . S
C92 O148 1.325 . S
N93 C96 1.314 . S
N93 C97 1.279 . S
C94 C92 1.348 . S
C94 C96 1.353 . S
C94 H152 0.929 . S
C95 C92 1.356 . S
C95 C97 1.358 . S
C95 H153 0.930 . S
C96 N93 1.314 . S
C96 C94 1.353 . S
C96 H154 0.930 . S
C97 N93 1.279 . S
C97 C95 1.358 . S
C97 H155 0.930 . S
C98 C101 1.348 . S
C98 C102 1.356 . S
C98 O149 1.325 . S
C99 N100 1.279 . S
C99 C102 1.358 . S
C99 H156 0.930 . S
N100 C99 1.279 . S
N100 C103 1.314 . S
C101 C98 1.348 . S
C101 C103 1.353 . S
C101 H157 0.929 . S
C102 C98 1.356 . S
C102 C99 1.358 . S
C102 H158 0.930 . S
C103 N100 1.314 . S
C103 C101 1.353 . S
C103 H159 0.930 . S
C104 N105 1.314 . S
C104 C109 1.353 . S
C104 H110 0.930 . S
N105 Li88 1.990 . S
N105 C104 1.314 . S
N105 C107 1.279 . S
C106 C107 1.358 . S
C106 C108 1.356 . S
C106 H160 0.930 . S
C107 N105 1.279 . S
C107 C106 1.358 . S
C107 H111 0.930 . S
C108 C106 1.356 . S
C108 C109 1.348 . S
C109 C104 1.353 . S
C109 C108 1.348 . S
C109 H161 0.929 . S
H110 C104 0.930 . S
H111 C107 0.930 . S
C112 N113 1.314 . S
C112 C114 1.353 . S
C112 H118 0.930 . S
N113 Li89 1.990 . S
N113 C112 1.314 . S
N113 C116 1.279 . S
C114 C112 1.353 . S
C114 C117 1.348 . S
C114 H162 0.929 . S
C115 C116 1.358 . S
C115 C117 1.356 . S
C115 H163 0.930 . S
C116 N113 1.279 . S
C116 C115 1.358 . S
C116 H119 0.930 . S
C117 C114 1.348 . S
C117 C115 1.356 . S
H118 C112 0.930 . S
H119 C116 0.930 . S
C120 C122 1.348 . S
C120 C123 1.356 . S
C120 O150 1.325 . S
N121 C124 1.314 . S
N121 C125 1.279 . S
C122 C120 1.348 . S
C122 C124 1.353 . S
C122 H164 0.929 . S
C123 C120 1.356 . S
C123 C125 1.358 . S
C123 H165 0.930 . S
C124 N121 1.314 . S
C124 C122 1.353 . S
C124 H166 0.930 . S
C125 N121 1.279 . S
C125 C123 1.358 . S
C125 H167 0.930 . S
C126 C127 1.348 . S
C126 C128 1.356 . S
C126 O151 1.325 . S
C127 C126 1.348 . S
C127 C129 1.353 . S
C127 H168 0.929 . S
C128 C126 1.356 . S
C128 C130 1.358 . S
C128 H169 0.930 . S
C129 C127 1.353 . S
C129 N131 1.314 . S
C129 H170 0.930 . S
C130 C128 1.358 . S
C130 N131 1.279 . S
C130 H171 0.930 . S
N131 C129 1.314 . S
N131 C130 1.279 . S
C132 C134 1.353 . S
C132 N135 1.314 . S
C132 H138 0.930 . S
C133 N135 1.279 . S
C133 C136 1.358 . S
C133 H139 0.930 . S
C134 C132 1.353 . S
C134 C137 1.348 . S
C134 H172 0.929 . S
N135 Li90 1.990 . S
N135 C132 1.314 . S
N135 C133 1.279 . S
C136 C133 1.358 . S
C136 C137 1.356 . S
C136 H173 0.930 . S
C137 C134 1.348 . S
C137 C136 1.356 . S
H138 C132 0.930 . S
H139 C133 0.930 . S
C140 N141 1.314 . S
C140 C142 1.353 . S
C140 H146 0.930 . S
N141 Li91 1.990 . S
N141 C140 1.314 . S
N141 C144 1.279 . S
C142 C140 1.353 . S
C142 C145 1.348 . S
C142 H174 0.929 . S
C143 C144 1.358 . S
C143 C145 1.356 . S
C143 H175 0.930 . S
C144 N141 1.279 . S
C144 C143 1.358 . S
C144 H147 0.930 . S
C145 C142 1.348 . S
C145 C143 1.356 . S
H146 C140 0.930 . S
H147 C144 0.930 . S
O148 Li88 1.956 . S
O148 Li89 1.970 . S
O148 Li90 1.961 . S
O148 C92 1.325 . S
O149 Li88 1.970 . S
O149 Li89 1.956 . S
O149 Li91 1.961 . S
O149 C98 1.325 . S
O150 Li88 1.961 . S
O150 Li90 1.956 . S
O150 Li91 1.970 . S
O150 C120 1.325 . S
O151 Li89 1.961 . S
O151 Li90 1.970 . S
O151 Li91 1.956 . S
O151 C126 1.325 . S
H152 C94 0.929 . S
H153 C95 0.930 . S
H154 C96 0.930 . S
H155 C97 0.930 . S
H156 C99 0.930 . S
H157 C101 0.929 . S
H158 C102 0.930 . S
H159 C103 0.930 . S
H160 C106 0.930 . S
H161 C109 0.929 . S
H162 C114 0.929 . S
H163 C115 0.930 . S
H164 C122 0.929 . S
H165 C123 0.930 . S
H166 C124 0.930 . S
H167 C125 0.930 . S
H168 C127 0.929 . S
H169 C128 0.930 . S
H170 C129 0.930 . S
H171 C130 0.930 . S
H172 C134 0.929 . S
H173 C136 0.930 . S
H174 C142 0.929 . S
H175 C143 0.930 . S
Li176 N193 1.990 . S
Li176 O236 1.956 1_655 S
Li176 O237 1.970 . S
Li176 O238 1.961 1_655 S
Li177 N201 1.990 . S
Li177 O236 1.970 . S
Li177 O237 1.956 1_455 S
Li177 O239 1.961 . S
Li178 N223 1.990 . S
Li178 O236 1.961 . S
Li178 O238 1.956 . S
Li178 O239 1.970 . S
Li179 N229 1.990 . S
Li179 O237 1.961 1_455 S
Li179 O238 1.970 . S
Li179 O239 1.956 . S
C180 C182 1.348 1_455 S
C180 C183 1.356 . S
C180 O236 1.325 . S
N181 C184 1.314 . S
N181 C185 1.279 1_655 S
C182 C180 1.348 1_655 S
C182 C184 1.353 . S
C182 H240 0.929 . S
C183 C180 1.356 . S
C183 C185 1.358 . S
C183 H241 0.930 . S
C184 N181 1.314 . S
C184 C182 1.353 . S
C184 H242 0.930 . S
C185 N181 1.279 1_455 S
C185 C183 1.358 . S
C185 H243 0.930 . S
C186 C189 1.348 . S
C186 C190 1.356 . S
C186 O237 1.325 . S
C187 N188 1.279 . S
C187 C190 1.358 . S
C187 H244 0.930 . S
N188 C187 1.279 . S
N188 C191 1.314 . S
C189 C186 1.348 . S
C189 C191 1.353 . S
C189 H245 0.929 . S
C190 C186 1.356 . S
C190 C187 1.358 . S
C190 H246 0.930 . S
C191 N188 1.314 . S
C191 C189 1.353 . S
C191 H247 0.930 . S
C192 N193 1.314 . S
C192 C197 1.353 . S
C192 H198 0.930 . S
N193 Li176 1.990 . S
N193 C192 1.314 . S
N193 C195 1.279 . S
C194 C195 1.358 . S
C194 C196 1.356 . S
C194 H248 0.930 . S
C195 N193 1.279 . S
C195 C194 1.358 . S
C195 H199 0.930 . S
C196 C194 1.356 . S
C196 C197 1.348 . S
C197 C192 1.353 . S
C197 C196 1.348 . S
C197 H249 0.929 . S
H198 C192 0.930 . S
H199 C195 0.930 . S
C200 N201 1.314 . S
C200 C202 1.353 . S
C200 H206 0.930 . S
N201 Li177 1.990 . S
N201 C200 1.314 . S
N201 C204 1.279 1_455 S
C202 C200 1.353 . S
C202 C205 1.348 1_455 S
C202 H250 0.929 . S
C203 C204 1.358 . S
C203 C205 1.356 . S
C203 H251 0.930 . S
C204 N201 1.279 1_655 S
C204 C203 1.358 . S
C204 H207 0.930 . S
C205 C202 1.348 1_655 S
C205 C203 1.356 . S
H206 C200 0.930 . S
H207 C204 0.930 . S
C208 C210 1.348 . S
C208 C211 1.356 . S
C208 O238 1.325 . S
N209 C212 1.314 . S
N209 C213 1.279 . S
C210 C208 1.348 . S
C210 C212 1.353 . S
C210 H252 0.929 . S
C211 C208 1.356 . S
C211 C213 1.358 . S
C211 H253 0.930 . S
C212 N209 1.314 . S
C212 C210 1.353 . S
C212 H254 0.930 . S
C213 N209 1.279 . S
C213 C211 1.358 . S
C213 H255 0.930 . S
C214 C215 1.348 . S
C214 C216 1.356 . S
C214 O239 1.325 . S
C215 C214 1.348 . S
C215 C217 1.353 . S
C215 H256 0.929 . S
C216 C214 1.356 . S
C216 C218 1.358 . S
C216 H257 0.930 . S
C217 C215 1.353 . S
C217 N219 1.314 . S
C217 H258 0.930 . S
C218 C216 1.358 . S
C218 N219 1.279 . S
C218 H259 0.930 . S
N219 C217 1.314 . S
N219 C218 1.279 . S
C220 C222 1.353 . S
C220 N223 1.314 . S
C220 H226 0.930 . S
C221 N223 1.279 . S
C221 C224 1.358 . S
C221 H227 0.930 . S
C222 C220 1.353 . S
C222 C225 1.348 . S
C222 H260 0.929 . S
N223 Li178 1.990 . S
N223 C220 1.314 . S
N223 C221 1.279 . S
C224 C221 1.358 . S
C224 C225 1.356 . S
C224 H261 0.930 . S
C225 C222 1.348 . S
C225 C224 1.356 . S
H226 C220 0.930 . S
H227 C221 0.930 . S
C228 N229 1.314 . S
C228 C230 1.353 . S
C228 H234 0.930 1_455 S
N229 Li179 1.990 . S
N229 C228 1.314 . S
N229 C232 1.279 . S
C230 C228 1.353 . S
C230 C233 1.348 . S
C230 H262 0.929 1_455 S
C231 C232 1.358 . S
C231 C233 1.356 . S
C231 H263 0.930 . S
C232 N229 1.279 . S
C232 C231 1.358 . S
C232 H235 0.930 . S
C233 C230 1.348 . S
C233 C231 1.356 . S
H234 C228 0.930 1_655 S
H235 C232 0.930 . S
O236 Li176 1.956 1_455 S
O236 Li177 1.970 . S
O236 Li178 1.961 . S
O236 C180 1.325 . S
O237 Li176 1.970 . S
O237 Li177 1.956 1_655 S
O237 Li179 1.961 1_655 S
O237 C186 1.325 . S
O238 Li176 1.961 1_455 S
O238 Li178 1.956 . S
O238 Li179 1.970 . S
O238 C208 1.325 . S
O239 Li177 1.961 . S
O239 Li178 1.970 . S
O239 Li179 1.956 . S
O239 C214 1.325 . S
H240 C182 0.929 . S
H241 C183 0.930 . S
H242 C184 0.930 . S
H243 C185 0.930 . S
H244 C187 0.930 . S
H245 C189 0.929 . S
H246 C190 0.930 . S
H247 C191 0.930 . S
H248 C194 0.930 . S
H249 C197 0.929 . S
H250 C202 0.929 . S
H251 C203 0.930 . S
H252 C210 0.929 . S
H253 C211 0.930 . S
H254 C212 0.930 . S
H255 C213 0.930 . S
H256 C215 0.929 . S
H257 C216 0.930 . S
H258 C217 0.930 . S
H259 C218 0.930 . S
H260 C222 0.929 . S
H261 C224 0.930 . S
H262 C230 0.929 1_655 S
H263 C231 0.930 . S
Li264 N281 1.990 . S
Li264 O324 1.956 1_545 S
Li264 O325 1.970 . S
Li264 O326 1.961 . S
Li265 N289 1.990 . S
Li265 O324 1.970 . S
Li265 O325 1.956 1_565 S
Li265 O327 1.961 1_565 S
Li266 N311 1.990 . S
Li266 O324 1.961 1_545 S
Li266 O326 1.956 . S
Li266 O327 1.970 . S
Li267 N317 1.990 . S
Li267 O325 1.961 . S
Li267 O326 1.970 . S
Li267 O327 1.956 . S
C268 C270 1.348 . S
C268 C271 1.356 . S
C268 O324 1.325 . S
N269 C272 1.314 . S
N269 C273 1.279 . S
C270 C268 1.348 . S
C270 C272 1.353 . S
C270 H328 0.929 . S
C271 C268 1.356 . S
C271 C273 1.358 . S
C271 H329 0.930 . S
C272 N269 1.314 . S
C272 C270 1.353 . S
C272 H330 0.930 . S
C273 N269 1.279 . S
C273 C271 1.358 . S
C273 H331 0.930 . S
C274 C277 1.348 1_545 S
C274 C278 1.356 . S
C274 O325 1.325 . S
C275 N276 1.279 1_545 S
C275 C278 1.358 . S
C275 H332 0.930 . S
N276 C275 1.279 1_565 S
N276 C279 1.314 . S
C277 C274 1.348 1_565 S
C277 C279 1.353 . S
C277 H333 0.929 . S
C278 C274 1.356 . S
C278 C275 1.358 . S
C278 H334 0.930 . S
C279 N276 1.314 . S
C279 C277 1.353 . S
C279 H335 0.930 . S
C280 N281 1.314 . S
C280 C285 1.353 . S
C280 H286 0.930 . S
N281 Li264 1.990 . S
N281 C280 1.314 . S
N281 C283 1.279 1_545 S
C282 C283 1.358 . S
C282 C284 1.356 . S
C282 H336 0.930 . S
C283 N281 1.279 1_565 S
C283 C282 1.358 . S
C283 H287 0.930 . S
C284 C282 1.356 . S
C284 C285 1.348 1_565 S
C285 C280 1.353 . S
C285 C284 1.348 1_545 S
C285 H337 0.929 . S
H286 C280 0.930 . S
H287 C283 0.930 . S
C288 N289 1.314 . S
C288 C290 1.353 . S
C288 H294 0.930 . S
N289 Li265 1.990 . S
N289 C288 1.314 . S
N289 C292 1.279 . S
C290 C288 1.353 . S
C290 C293 1.348 . S
C290 H338 0.929 . S
C291 C292 1.358 . S
C291 C293 1.356 . S
C291 H339 0.930 . S
C292 N289 1.279 . S
C292 C291 1.358 . S
C292 H295 0.930 . S
C293 C290 1.348 . S
C293 C291 1.356 . S
H294 C288 0.930 . S
H295 C292 0.930 . S
C296 C298 1.348 . S
C296 C299 1.356 . S
C296 O326 1.325 . S
N297 C300 1.314 . S
N297 C301 1.279 . S
C298 C296 1.348 . S
C298 C300 1.353 . S
C298 H340 0.929 . S
C299 C296 1.356 . S
C299 C301 1.358 . S
C299 H341 0.930 . S
C300 N297 1.314 . S
C300 C298 1.353 . S
C300 H342 0.930 . S
C301 N297 1.279 . S
C301 C299 1.358 . S
C301 H343 0.930 . S
C302 C303 1.348 . S
C302 C304 1.356 . S
C302 O327 1.325 . S
C303 C302 1.348 . S
C303 C305 1.353 . S
C303 H344 0.929 . S
C304 C302 1.356 . S
C304 C306 1.358 . S
C304 H345 0.930 . S
C305 C303 1.353 . S
C305 N307 1.314 . S
C305 H346 0.930 . S
C306 C304 1.358 . S
C306 N307 1.279 . S
C306 H347 0.930 . S
N307 C305 1.314 . S
N307 C306 1.279 . S
C308 C310 1.353 . S
C308 N311 1.314 . S
C308 H314 0.930 1_545 S
C309 N311 1.279 . S
C309 C312 1.358 . S
C309 H315 0.930 . S
C310 C308 1.353 . S
C310 C313 1.348 . S
C310 H348 0.929 1_545 S
N311 Li266 1.990 . S
N311 C308 1.314 . S
N311 C309 1.279 . S
C312 C309 1.358 . S
C312 C313 1.356 . S
C312 H349 0.930 . S
C313 C310 1.348 . S
C313 C312 1.356 . S
H314 C308 0.930 1_565 S
H315 C309 0.930 . S
C316 N317 1.314 . S
C316 C318 1.353 . S
C316 H322 0.930 . S
N317 Li267 1.990 . S
N317 C316 1.314 . S
N317 C320 1.279 . S
C318 C316 1.353 . S
C318 C321 1.348 . S
C318 H350 0.929 . S
C319 C320 1.358 . S
C319 C321 1.356 . S
C319 H351 0.930 . S
C320 N317 1.279 . S
C320 C319 1.358 . S
C320 H323 0.930 . S
C321 C318 1.348 . S
C321 C319 1.356 . S
H322 C316 0.930 . S
H323 C320 0.930 . S
O324 Li264 1.956 1_565 S
O324 Li265 1.970 . S
O324 Li266 1.961 1_565 S
O324 C268 1.325 . S
O325 Li264 1.970 . S
O325 Li265 1.956 1_545 S
O325 Li267 1.961 . S
O325 C274 1.325 . S
O326 Li264 1.961 . S
O326 Li266 1.956 . S
O326 Li267 1.970 . S
O326 C296 1.325 . S
O327 Li265 1.961 1_545 S
O327 Li266 1.970 . S
O327 Li267 1.956 . S
O327 C302 1.325 . S
H328 C270 0.929 . S
H329 C271 0.930 . S
H330 C272 0.930 . S
H331 C273 0.930 . S
H332 C275 0.930 . S
H333 C277 0.929 . S
H334 C278 0.930 . S
H335 C279 0.930 . S
H336 C282 0.930 . S
H337 C285 0.929 . S
H338 C290 0.929 . S
H339 C291 0.930 . S
H340 C298 0.929 . S
H341 C299 0.930 . S
H342 C300 0.930 . S
H343 C301 0.930 . S
H344 C303 0.929 . S
H345 C304 0.930 . S
H346 C305 0.930 . S
H347 C306 0.930 . S
H348 C310 0.929 1_565 S
H349 C312 0.930 . S
H350 C318 0.929 . S
H351 C319 0.930 . S
Li352 N369 1.990 . S
Li352 O412 1.956 . S
Li352 O413 1.970 . S
Li352 O414 1.961 . S
Li353 N377 1.990 . S
Li353 O412 1.970 . S
Li353 O413 1.956 . S
Li353 O415 1.961 . S
Li354 N399 1.990 . S
Li354 O412 1.961 . S
Li354 O414 1.956 . S
Li354 O415 1.970 . S
Li355 N405 1.990 . S
Li355 O413 1.961 . S
Li355 O414 1.970 . S
Li355 O415 1.956 . S
C356 C358 1.348 . S
C356 C359 1.356 . S
C356 O412 1.325 . S
N357 C360 1.314 . S
N357 C361 1.279 . S
C358 C356 1.348 . S
C358 C360 1.353 . S
C358 H416 0.929 . S
C359 C356 1.356 . S
C359 C361 1.358 . S
C359 H417 0.930 . S
C360 N357 1.314 . S
C360 C358 1.353 . S
C360 H418 0.930 . S
C361 N357 1.279 . S
C361 C359 1.358 . S
C361 H419 0.930 . S
C362 C365 1.348 . S
C362 C366 1.356 . S
C362 O413 1.325 . S
C363 N364 1.279 . S
C363 C366 1.358 . S
C363 H420 0.930 . S
N364 C363 1.279 . S
N364 C367 1.314 . S
C365 C362 1.348 . S
C365 C367 1.353 . S
C365 H421 0.929 . S
C366 C362 1.356 . S
C366 C363 1.358 . S
C366 H422 0.930 . S
C367 N364 1.314 . S
C367 C365 1.353 . S
C367 H423 0.930 . S
C368 N369 1.314 . S
C368 C373 1.353 . S
C368 H374 0.930 . S
N369 Li352 1.990 . S
N369 C368 1.314 . S
N369 C371 1.279 . S
C370 C371 1.358 . S
C370 C372 1.356 . S
C370 H424 0.930 . S
C371 N369 1.279 . S
C371 C370 1.358 . S
C371 H375 0.930 . S
C372 C370 1.356 . S
C372 C373 1.348 . S
C373 C368 1.353 . S
C373 C372 1.348 . S
C373 H425 0.929 . S
H374 C368 0.930 . S
H375 C371 0.930 . S
C376 N377 1.314 . S
C376 C378 1.353 . S
C376 H382 0.930 . S
N377 Li353 1.990 . S
N377 C376 1.314 . S
N377 C380 1.279 . S
C378 C376 1.353 . S
C378 C381 1.348 . S
C378 H426 0.929 . S
C379 C380 1.358 . S
C379 C381 1.356 . S
C379 H427 0.930 . S
C380 N377 1.279 . S
C380 C379 1.358 . S
C380 H383 0.930 . S
C381 C378 1.348 . S
C381 C379 1.356 . S
H382 C376 0.930 . S
H383 C380 0.930 . S
C384 C386 1.348 . S
C384 C387 1.356 . S
C384 O414 1.325 . S
N385 C388 1.314 . S
N385 C389 1.279 . S
C386 C384 1.348 . S
C386 C388 1.353 . S
C386 H428 0.929 . S
C387 C384 1.356 . S
C387 C389 1.358 . S
C387 H429 0.930 . S
C388 N385 1.314 . S
C388 C386 1.353 . S
C388 H430 0.930 . S
C389 N385 1.279 . S
C389 C387 1.358 . S
C389 H431 0.930 . S
C390 C391 1.348 . S
C390 C392 1.356 . S
C390 O415 1.325 . S
C391 C390 1.348 . S
C391 C393 1.353 . S
C391 H432 0.929 . S
C392 C390 1.356 . S
C392 C394 1.358 . S
C392 H433 0.930 . S
C393 C391 1.353 . S
C393 N395 1.314 . S
C393 H434 0.930 . S
C394 C392 1.358 . S
C394 N395 1.279 . S
C394 H435 0.930 . S
N395 C393 1.314 . S
N395 C394 1.279 . S
C396 C398 1.353 . S
C396 N399 1.314 . S
C396 H402 0.930 . S
C397 N399 1.279 . S
C397 C400 1.358 . S
C397 H403 0.930 . S
C398 C396 1.353 . S
C398 C401 1.348 . S
C398 H436 0.929 . S
N399 Li354 1.990 . S
N399 C396 1.314 . S
N399 C397 1.279 . S
C400 C397 1.358 . S
C400 C401 1.356 . S
C400 H437 0.930 . S
C401 C398 1.348 . S
C401 C400 1.356 . S
H402 C396 0.930 . S
H403 C397 0.930 . S
C404 N405 1.314 . S
C404 C406 1.353 . S
C404 H410 0.930 . S
N405 Li355 1.990 . S
N405 C404 1.314 . S
N405 C408 1.279 . S
C406 C404 1.353 . S
C406 C409 1.348 . S
C406 H438 0.929 . S
C407 C408 1.358 . S
C407 C409 1.356 . S
C407 H439 0.930 . S
C408 N405 1.279 . S
C408 C407 1.358 . S
C408 H411 0.930 . S
C409 C406 1.348 . S
C409 C407 1.356 . S
H410 C404 0.930 . S
H411 C408 0.930 . S
O412 Li352 1.956 . S
O412 Li353 1.970 . S
O412 Li354 1.961 . S
O412 C356 1.325 . S
O413 Li352 1.970 . S
O413 Li353 1.956 . S
O413 Li355 1.961 . S
O413 C362 1.325 . S
O414 Li352 1.961 . S
O414 Li354 1.956 . S
O414 Li355 1.970 . S
O414 C384 1.325 . S
O415 Li353 1.961 . S
O415 Li354 1.970 . S
O415 Li355 1.956 . S
O415 C390 1.325 . S
H416 C358 0.929 . S
H417 C359 0.930 . S
H418 C360 0.930 . S
H419 C361 0.930 . S
H420 C363 0.930 . S
H421 C365 0.929 . S
H422 C366 0.930 . S
H423 C367 0.930 . S
H424 C370 0.930 . S
H425 C373 0.929 . S
H426 C378 0.929 . S
H427 C379 0.930 . S
H428 C386 0.929 . S
H429 C387 0.930 . S
H430 C388 0.930 . S
H431 C389 0.930 . S
H432 C391 0.929 . S
H433 C392 0.930 . S
H434 C393 0.930 . S
H435 C394 0.930 . S
H436 C398 0.929 . S
H437 C400 0.930 . S
H438 C406 0.929 . S
H439 C407 0.930 . S
Li440 N457 1.990 . S
Li440 O500 1.956 . S
Li440 O501 1.970 . S
Li440 O502 1.961 1_455 S
Li441 N465 1.990 . S
Li441 O500 1.970 . S
Li441 O501 1.956 . S
Li441 O503 1.961 . S
Li442 N487 1.990 . S
Li442 O500 1.961 . S
Li442 O502 1.956 1_455 S
Li442 O503 1.970 . S
Li443 N493 1.990 . S
Li443 O501 1.961 1_655 S
Li443 O502 1.970 . S
Li443 O503 1.956 1_655 S
C444 C446 1.348 . S
C444 C447 1.356 . S
C444 O500 1.325 . S
N445 C448 1.314 . S
N445 C449 1.279 . S
C446 C444 1.348 . S
C446 C448 1.353 . S
C446 H504 0.929 . S
C447 C444 1.356 . S
C447 C449 1.358 . S
C447 H505 0.930 . S
C448 N445 1.314 . S
C448 C446 1.353 . S
C448 H506 0.930 . S
C449 N445 1.279 . S
C449 C447 1.358 . S
C449 H507 0.930 . S
C450 C453 1.348 . S
C450 C454 1.356 . S
C450 O501 1.325 . S
C451 N452 1.279 . S
C451 C454 1.358 . S
C451 H508 0.930 . S
N452 C451 1.279 . S
N452 C455 1.314 . S
C453 C450 1.348 . S
C453 C455 1.365 . S
C453 H509 0.929 . S
C454 C450 1.356 . S
C454 C451 1.358 . S
C454 H510 0.930 . S
C455 N452 1.314 . S
C455 C453 1.365 . S
C455 H511 0.916 1_556 S
C456 N457 1.314 . S
C456 C461 1.353 1_556 S
C456 H462 0.930 1_455 S
N457 Li440 1.990 . S
N457 C456 1.314 . S
N457 C459 1.279 . S
C458 C459 1.358 . S
C458 C460 1.356 1_556 S
C458 H512 0.930 . S
C459 N457 1.279 . S
C459 C458 1.358 . S
C459 H463 0.930 . S
C460 C458 1.356 1_554 S
C460 C461 1.348 . S
C461 C456 1.353 1_554 S
C461 C460 1.348 . S
C461 H513 0.929 1_455 S
H462 C456 0.930 1_655 S
H463 C459 0.930 . S
C464 N465 1.314 . S
C464 C466 1.353 . S
C464 H470 0.930 . S
N465 Li441 1.990 . S
N465 C464 1.314 . S
N465 C468 1.279 . S
C466 C464 1.353 . S
C466 C469 1.348 . S
C466 H514 0.929 . S
C467 C468 1.358 . S
C467 C469 1.356 . S
C467 H515 0.930 . S
C468 N465 1.279 . S
C468 C467 1.358 . S
C468 H471 0.930 . S
C469 C466 1.348 . S
C469 C467 1.356 . S
H470 C464 0.930 . S
H471 C468 0.930 . S
C472 C474 1.348 . S
C472 C475 1.356 . S
C472 O502 1.325 . S
N473 C476 1.314 . S
N473 C477 1.279 . S
C474 C472 1.348 . S
C474 C476 1.353 . S
C474 H516 0.929 . S
C475 C472 1.356 . S
C475 C477 1.358 . S
C475 H517 0.930 . S
C476 N473 1.314 . S
C476 C474 1.353 . S
C476 H518 0.930 . S
C477 N473 1.279 . S
C477 C475 1.358 . S
C477 H519 0.930 . S
C478 C479 1.348 1_455 S
C478 C480 1.356 . S
C478 O503 1.325 . S
C479 C478 1.348 1_655 S
C479 C481 1.353 . S
C479 H520 0.929 . S
C480 C478 1.356 . S
C480 C482 1.358 . S
C480 H521 0.930 . S
C481 C479 1.353 . S
C481 N483 1.314 . S
C481 H522 0.930 . S
C482 C480 1.358 . S
C482 N483 1.279 1_455 S
C482 H523 0.930 . S
N483 C481 1.314 . S
N483 C482 1.279 1_655 S
C484 C486 1.353 . S
C484 N487 1.314 . S
C484 H490 0.930 . S
C485 N487 1.279 1_655 S
C485 C488 1.358 . S
C485 H491 0.930 . S
C486 C484 1.353 . S
C486 C489 1.348 1_455 S
C486 H524 0.929 . S
N487 Li442 1.990 . S
N487 C484 1.314 . S
N487 C485 1.279 1_455 S
C488 C485 1.358 . S
C488 C489 1.356 . S
C488 H525 0.930 . S
C489 C486 1.348 1_655 S
C489 C488 1.356 . S
H490 C484 0.930 . S
H491 C485 0.930 . S
C492 N493 1.314 . S
C492 C494 1.353 . S
C492 H498 0.930 . S
N493 Li443 1.990 . S
N493 C492 1.314 . S
N493 C496 1.279 . S
C494 C492 1.353 . S
C494 C497 1.348 . S
C494 H526 0.929 . S
C495 C496 1.358 . S
C495 C497 1.356 . S
C495 H527 0.930 . S
C496 N493 1.279 . S
C496 C495 1.358 . S
C496 H499 0.930 . S
C497 C494 1.348 . S
C497 C495 1.356 . S
H498 C492 0.930 . S
H499 C496 0.930 . S
O500 Li440 1.956 . S
O500 Li441 1.970 . S
O500 Li442 1.961 . S
O500 C444 1.325 . S
O501 Li440 1.970 . S
O501 Li441 1.956 . S
O501 Li443 1.961 1_455 S
O501 C450 1.325 . S
O502 Li440 1.961 1_655 S
O502 Li442 1.956 1_655 S
O502 Li443 1.970 . S
O502 C472 1.325 . S
O503 Li441 1.961 . S
O503 Li442 1.970 . S
O503 Li443 1.956 1_455 S
O503 C478 1.325 . S
H504 C446 0.929 . S
H505 C447 0.930 . S
H506 C448 0.930 . S
H507 C449 0.930 . S
H508 C451 0.930 . S
H509 C453 0.929 . S
H510 C454 0.930 . S
H511 C455 0.916 1_554 S
H512 C458 0.930 . S
H513 C461 0.929 1_655 S
H514 C466 0.929 . S
H515 C467 0.930 . S
H516 C474 0.929 . S
H517 C475 0.930 . S
H518 C476 0.930 . S
H519 C477 0.930 . S
H520 C479 0.929 . S
H521 C480 0.930 . S
H522 C481 0.930 . S
H523 C482 0.930 . S
H524 C486 0.929 . S
H525 C488 0.930 . S
H526 C494 0.929 . S
H527 C495 0.930 . S
C528 C529 1.349 . S
C528 C530 1.327 . S
C528 H553 0.950 . S
C529 C528 1.349 . S
C529 C545 1.349 . S
C530 C528 1.327 . S
C530 C549 1.429 . S
C530 H554 0.950 . S
C531 C548 1.574 . S
C531 C550 1.368 . S
C531 H555 0.949 1_545 S
H532 C536 0.949 . S
C533 C534 1.349 . S
C533 C535 1.327 . S
C533 H556 0.950 1_545 S
C534 C533 1.349 . S
C534 C546 1.349 . S
C535 C533 1.327 . S
C535 C551 1.429 . S
C535 H557 0.950 1_545 S
C536 H532 0.949 . S
C536 C544 1.574 . S
C536 C552 1.368 . S
H537 C545 0.950 1_565 S
H538 C543 0.950 1_565 S
H539 C544 0.949 . S
H540 C546 0.950 . S
H541 C547 0.950 . S
H542 C548 0.949 1_565 S
C543 H538 0.950 1_545 S
C543 C545 1.327 . S
C543 C549 1.429 . S
C544 C536 1.574 . S
C544 H539 0.949 . S
C544 C550 1.368 . S
C545 C529 1.349 . S
C545 H537 0.950 1_545 S
C545 C543 1.327 . S
C546 C534 1.349 . S
C546 H540 0.950 . S
C546 C547 1.327 . S
C547 H541 0.950 . S
C547 C546 1.327 . S
C547 C551 1.429 . S
C548 C531 1.574 . S
C548 H542 0.949 1_545 S
C548 C552 1.368 . S
C549 C530 1.429 . S
C549 C543 1.429 . S
C549 C550 1.523 . S
C550 C531 1.368 . S
C550 C544 1.368 . S
C550 C549 1.523 . S
C551 C535 1.429 . S
C551 C547 1.429 . S
C551 C552 1.523 . S
C552 C536 1.368 . S
C552 C548 1.368 . S
C552 C551 1.523 . S
H553 C528 0.950 . S
H554 C530 0.950 . S
H555 C531 0.949 1_565 S
H556 C533 0.950 1_565 S
H557 C535 0.950 1_565 S
C558 C559 1.349 . S
C558 C560 1.327 . S
C558 H583 0.950 . S
C559 C558 1.349 . S
C559 C575 1.349 . S
C560 C558 1.327 . S
C560 C579 1.429 . S
C560 H584 0.950 . S
C561 C578 1.574 . S
C561 C580 1.368 . S
C561 H585 0.949 . S
H562 C566 0.949 . S
C563 C564 1.349 . S
C563 C565 1.327 . S
C563 H586 0.950 . S
C564 C563 1.349 . S
C564 C576 1.349 . S
C565 C563 1.327 . S
C565 C581 1.429 . S
C565 H587 0.950 . S
C566 H562 0.949 . S
C566 C574 1.574 . S
C566 C582 1.368 . S
H567 C575 0.950 . S
H568 C573 0.950 . S
H569 C574 0.949 . S
H570 C576 0.950 . S
H571 C577 0.950 . S
H572 C578 0.949 . S
C573 H568 0.950 . S
C573 C575 1.327 . S
C573 C579 1.429 . S
C574 C566 1.574 . S
C574 H569 0.949 . S
C574 C580 1.368 . S
C575 C559 1.349 . S
C575 H567 0.950 . S
C575 C573 1.327 . S
C576 C564 1.349 . S
C576 H570 0.950 . S
C576 C577 1.327 . S
C577 H571 0.950 . S
C577 C576 1.327 . S
C577 C581 1.429 . S
C578 C561 1.574 . S
C578 H572 0.949 . S
C578 C582 1.368 . S
C579 C560 1.429 . S
C579 C573 1.429 . S
C579 C580 1.523 . S
C580 C561 1.368 . S
C580 C574 1.368 . S
C580 C579 1.523 . S
C581 C565 1.429 . S
C581 C577 1.429 . S
C581 C582 1.523 . S
C582 C566 1.368 . S
C582 C578 1.368 . S
C582 C581 1.523 . S
H583 C558 0.950 . S
H584 C560 0.950 . S
H585 C561 0.949 . S
H586 C563 0.950 . S
H587 C565 0.950 . S
C588 C589 1.349 1_455 S
C588 C590 1.327 . S
C588 H613 0.950 . S
C589 C588 1.349 1_655 S
C589 C605 1.349 . S
C590 C588 1.327 . S
C590 C609 1.429 1_455 S
C590 H614 0.950 . S
C591 C608 1.574 . S
C591 C610 1.368 . S
C591 H615 0.949 . S
H592 C596 0.949 . S
C593 C594 1.349 . S
C593 C595 1.327 . S
C593 H616 0.950 . S
C594 C593 1.349 . S
C594 C606 1.349 1_655 S
C595 C593 1.327 . S
C595 C611 1.429 . S
C595 H617 0.950 . S
C596 H592 0.949 . S
C596 C604 1.574 . S
C596 C612 1.368 1_455 S
H597 C605 0.950 . S
H598 C603 0.950 . S
H599 C604 0.949 . S
H600 C606 0.950 . S
H601 C607 0.950 . S
H602 C608 0.949 . S
C603 H598 0.950 . S
C603 C605 1.327 . S
C603 C609 1.429 . S
C604 C596 1.574 . S
C604 H599 0.949 . S
C604 C610 1.368 1_455 S
C605 C589 1.349 . S
C605 H597 0.950 . S
C605 C603 1.327 . S
C606 C594 1.349 1_455 S
C606 H600 0.950 . S
C606 C607 1.327 . S
C607 H601 0.950 . S
C607 C606 1.327 . S
C607 C611 1.429 1_455 S
C608 C591 1.574 . S
C608 H602 0.949 . S
C608 C612 1.368 . S
C609 C590 1.429 1_655 S
C609 C603 1.429 . S
C609 C610 1.523 . S
C610 C591 1.368 . S
C610 C604 1.368 1_655 S
C610 C609 1.523 . S
C611 C595 1.429 . S
C611 C607 1.429 1_655 S
C611 C612 1.523 . S
C612 C596 1.368 1_655 S
C612 C608 1.368 . S
C612 C611 1.523 . S
H613 C588 0.950 . S
H614 C590 0.950 . S
H615 C591 0.949 . S
H616 C593 0.950 . S
H617 C595 0.950 . S
C618 C619 1.349 . S
C618 C620 1.327 . S
C618 H643 0.950 . S
C619 C618 1.349 . S
C619 C635 1.349 1_565 S
C620 C618 1.327 . S
C620 C639 1.429 . S
C620 H644 0.950 . S
C621 C638 1.574 . S
C621 C640 1.368 1_545 S
C621 H645 0.949 . S
H622 C626 0.949 . S
C623 C624 1.349 1_545 S
C623 C625 1.327 . S
C623 H646 0.950 . S
C624 C623 1.349 1_565 S
C624 C636 1.349 . S
C625 C623 1.327 . S
C625 C641 1.429 1_545 S
C625 H647 0.950 . S
C626 H622 0.949 . S
C626 C634 1.574 . S
C626 C642 1.368 . S
H627 C635 0.950 . S
H628 C633 0.950 . S
H629 C634 0.949 . S
H630 C636 0.950 . S
H631 C637 0.950 . S
H632 C638 0.949 . S
C633 H628 0.950 . S
C633 C635 1.327 . S
C633 C639 1.429 1_545 S
C634 C626 1.574 . S
C634 H629 0.949 . S
C634 C640 1.368 . S
C635 C619 1.349 1_545 S
C635 H627 0.950 . S
C635 C633 1.327 . S
C636 C624 1.349 . S
C636 H630 0.950 . S
C636 C637 1.327 . S
C637 H631 0.950 . S
C637 C636 1.327 . S
C637 C641 1.429 . S
C638 C621 1.574 . S
C638 H632 0.949 . S
C638 C642 1.368 1_545 S
C639 C620 1.429 . S
C639 C633 1.429 1_565 S
C639 C640 1.523 . S
C640 C621 1.368 1_565 S
C640 C634 1.368 . S
C640 C639 1.523 . S
C641 C625 1.429 1_565 S
C641 C637 1.429 . S
C641 C642 1.523 . S
C642 C626 1.368 . S
C642 C638 1.368 1_565 S
C642 C641 1.523 . S
H643 C618 0.950 . S
H644 C620 0.950 . S
H645 C621 0.949 . S
H646 C623 0.950 . S
H647 C625 0.950 . S
C648 C649 1.349 . S
C648 C650 1.327 . S
C648 H673 0.950 . S
C649 C648 1.349 . S
C649 C665 1.349 . S
C650 C648 1.327 . S
C650 C669 1.429 . S
C650 H674 0.950 . S
C651 C668 1.574 . S
C651 C670 1.368 . S
C651 H675 0.949 . S
H652 C656 0.949 . S
C653 C654 1.349 . S
C653 C655 1.327 . S
C653 H676 0.950 . S
C654 C653 1.349 . S
C654 C666 1.349 . S
C655 C653 1.327 . S
C655 C671 1.429 . S
C655 H677 0.950 . S
C656 H652 0.949 . S
C656 C664 1.574 1_556 S
C656 C672 1.368 . S
H657 C665 0.950 . S
H658 C663 0.950 1_556 S
H659 C664 0.949 . S
H660 C666 0.950 . S
H661 C667 0.950 . S
H662 C668 0.949 . S
C663 H658 0.950 1_554 S
C663 C665 1.327 . S
C663 C669 1.429 . S
C664 C656 1.574 1_554 S
C664 H659 0.949 . S
C664 C670 1.368 1_554 S
C665 C649 1.349 . S
C665 H657 0.950 . S
C665 C663 1.327 . S
C666 C654 1.349 . S
C666 H660 0.950 . S
C666 C667 1.327 . S
C667 H661 0.950 . S
C667 C666 1.327 . S
C667 C671 1.429 . S
C668 C651 1.574 . S
C668 H662 0.949 . S
C668 C672 1.368 . S
C669 C650 1.429 . S
C669 C663 1.429 . S
C669 C670 1.523 1_554 S
C670 C651 1.368 . S
C670 C664 1.368 1_556 S
C670 C669 1.523 1_556 S
C671 C655 1.429 . S
C671 C667 1.429 . S
C671 C672 1.523 . S
C672 C656 1.368 . S
C672 C668 1.368 . S
C672 C671 1.523 . S
H673 C648 0.950 . S
H674 C650 0.950 . S
H675 C651 0.949 . S
H676 C653 0.950 . S
H677 C655 0.950 . S
C678 C679 1.349 . S
C678 C680 1.327 . S
C678 H703 0.950 . S
C679 C678 1.349 . S
C679 C695 1.349 . S
C680 C678 1.327 . S
C680 C699 1.429 . S
C680 H704 0.950 . S
C681 C698 1.574 . S
C681 C700 1.368 . S
C681 H705 0.949 . S
H682 C686 0.949 . S
C683 C684 1.349 . S
C683 C685 1.327 . S
C683 H706 0.950 . S
C684 C683 1.349 . S
C684 C696 1.349 . S
C685 C683 1.327 . S
C685 C701 1.429 . S
C685 H707 0.950 . S
C686 H682 0.949 . S
C686 C694 1.574 . S
C686 C702 1.368 . S
H687 C695 0.950 . S
H688 C693 0.950 . S
H689 C694 0.949 . S
H690 C696 0.950 . S
H691 C697 0.950 . S
H692 C698 0.949 . S
C693 H688 0.950 . S
C693 C695 1.327 . S
C693 C699 1.429 . S
C694 C686 1.574 . S
C694 H689 0.949 . S
C694 C700 1.368 . S
C695 C679 1.349 . S
C695 H687 0.950 . S
C695 C693 1.327 . S
C696 C684 1.349 . S
C696 H690 0.950 . S
C696 C697 1.327 . S
C697 H691 0.950 . S
C697 C696 1.327 . S
C697 C701 1.429 . S
C698 C681 1.574 . S
C698 H692 0.949 . S
C698 C702 1.368 . S
C699 C680 1.429 . S
C699 C693 1.429 . S
C699 C700 1.523 . S
C700 C681 1.368 . S
C700 C694 1.368 . S
C700 C699 1.523 . S
C701 C685 1.429 . S
C701 C697 1.429 . S
C701 C702 1.523 . S
C702 C686 1.368 . S
C702 C698 1.368 . S
C702 C701 1.523 . S
H703 C678 0.950 . S
H704 C680 0.950 . S
H705 C681 0.949 . S
H706 C683 0.950 . S
H707 C685 0.950 . S
C708 C709 1.349 . S
C708 C710 1.327 . S
C708 H733 0.950 . S
C709 C708 1.349 . S
C709 C725 1.349 . S
C710 C708 1.327 . S
C710 C729 1.429 . S
C710 H734 0.950 . S
C711 C728 1.574 . S
C711 C730 1.368 . S
C711 H735 0.949 . S
H712 C716 0.949 . S
C713 C714 1.349 . S
C713 C715 1.327 . S
C713 H736 0.950 . S
C714 C713 1.349 . S
C714 C726 1.349 . S
C715 C713 1.327 . S
C715 C731 1.429 . S
C715 H737 0.950 . S
C716 H712 0.949 . S
C716 C724 1.574 . S
C716 C732 1.368 . S
H717 C725 0.950 . S
H718 C723 0.950 . S
H719 C724 0.949 . S
H720 C726 0.950 . S
H721 C727 0.950 . S
H722 C728 0.949 . S
C723 H718 0.950 . S
C723 C725 1.327 . S
C723 C729 1.429 . S
C724 C716 1.574 . S
C724 H719 0.949 . S
C724 C730 1.368 . S
C725 C709 1.349 . S
C725 H717 0.950 . S
C725 C723 1.327 . S
C726 C714 1.349 . S
C726 H720 0.950 . S
C726 C727 1.327 . S
C727 H721 0.950 . S
C727 C726 1.327 . S
C727 C731 1.429 . S
C728 C711 1.574 . S
C728 H722 0.949 . S
C728 C732 1.368 . S
C729 C710 1.429 . S
C729 C723 1.429 . S
C729 C730 1.523 . S
C730 C711 1.368 . S
C730 C724 1.368 . S
C730 C729 1.523 . S
C731 C715 1.429 . S
C731 C727 1.429 . S
C731 C732 1.523 . S
C732 C716 1.368 . S
C732 C728 1.368 . S
C732 C731 1.523 . S
H733 C708 0.950 . S
H734 C710 0.950 . S
H735 C711 0.949 . S
H736 C713 0.950 . S
H737 C715 0.950 . S
C738 C739 1.349 . S
C738 C740 1.327 . S
C738 H763 0.950 . S
C739 C738 1.349 . S
C739 C755 1.349 . S
C740 C738 1.327 . S
C740 C759 1.429 . S
C740 H764 0.950 . S
C741 C758 1.574 . S
C741 C760 1.368 . S
C741 H765 0.949 . S
H742 C746 0.949 . S
C743 C744 1.349 . S
C743 C745 1.327 . S
C743 H766 0.950 . S
C744 C743 1.349 . S
C744 C756 1.349 . S
C745 C743 1.327 . S
C745 C761 1.429 . S
C745 H767 0.950 . S
C746 H742 0.949 . S
C746 C754 1.574 . S
C746 C762 1.368 . S
H747 C755 0.950 . S
H748 C753 0.950 . S
H749 C754 0.949 . S
H750 C756 0.950 . S
H751 C757 0.950 . S
H752 C758 0.949 . S
C753 H748 0.950 . S
C753 C755 1.327 . S
C753 C759 1.429 . S
C754 C746 1.574 . S
C754 H749 0.949 . S
C754 C760 1.368 . S
C755 C739 1.349 . S
C755 H747 0.950 . S
C755 C753 1.327 . S
C756 C744 1.349 . S
C756 H750 0.950 . S
C756 C757 1.327 . S
C757 H751 0.950 . S
C757 C756 1.327 . S
C757 C761 1.429 . S
C758 C741 1.574 . S
C758 H752 0.949 . S
C758 C762 1.368 . S
C759 C740 1.429 . S
C759 C753 1.429 . S
C759 C760 1.523 . S
C760 C741 1.368 . S
C760 C754 1.368 . S
C760 C759 1.523 . S
C761 C745 1.429 . S
C761 C757 1.429 . S
C761 C762 1.523 . S
C762 C746 1.368 . S
C762 C758 1.368 . S
C762 C761 1.523 . S
H763 C738 0.950 . S
H764 C740 0.950 . S
H765 C741 0.949 . S
H766 C743 0.950 . S
H767 C745 0.950 . S
C768 C769 1.349 . S
C768 C770 1.327 . S
C768 H793 0.950 . S
C769 C768 1.349 . S
C769 C785 1.349 . S
C770 C768 1.327 . S
C770 C789 1.429 . S
C770 H794 0.950 . S
C771 C788 1.574 . S
C771 C790 1.368 . S
C771 H795 0.949 . S
H772 C776 0.949 . S
C773 C774 1.349 . S
C773 C775 1.327 . S
C773 H796 0.950 . S
C774 C773 1.349 . S
C774 C786 1.349 . S
C775 C773 1.327 . S
C775 C791 1.429 . S
C775 H797 0.950 . S
C776 H772 0.949 . S
C776 C784 1.574 . S
C776 C792 1.368 . S
H777 C785 0.950 . S
H778 C783 0.950 . S
H779 C784 0.949 . S
H780 C786 0.950 . S
H781 C787 0.950 . S
H782 C788 0.949 . S
C783 H778 0.950 . S
C783 C785 1.327 . S
C783 C789 1.429 . S
C784 C776 1.574 . S
C784 H779 0.949 . S
C784 C790 1.368 . S
C785 C769 1.349 . S
C785 H777 0.950 . S
C785 C783 1.327 . S
C786 C774 1.349 . S
C786 H780 0.950 . S
C786 C787 1.327 . S
C787 H781 0.950 . S
C787 C786 1.327 . S
C787 C791 1.429 . S
C788 C771 1.574 . S
C788 H782 0.949 . S
C788 C792 1.368 . S
C789 C770 1.429 . S
C789 C783 1.429 . S
C789 C790 1.523 . S
C790 C771 1.368 . S
C790 C784 1.368 . S
C790 C789 1.523 . S
C791 C775 1.429 . S
C791 C787 1.429 . S
C791 C792 1.523 . S
C792 C776 1.368 . S
C792 C788 1.368 . S
C792 C791 1.523 . S
H793 C768 0.950 . S
H794 C770 0.950 . S
H795 C771 0.949 . S
H796 C773 0.950 . S
H797 C775 0.950 . S
C798 C799 1.349 . S
C798 C800 1.327 . S
C798 H823 0.950 . S
C799 C798 1.349 . S
C799 C815 1.349 . S
C800 C798 1.327 . S
C800 C819 1.429 . S
C800 H824 0.950 . S
C801 C818 1.574 . S
C801 C820 1.368 . S
C801 H825 0.949 . S
H802 C806 0.949 . S
C803 C804 1.349 . S
C803 C805 1.327 . S
C803 H826 0.950 . S
C804 C803 1.349 . S
C804 C816 1.349 . S
C805 C803 1.327 . S
C805 C821 1.429 . S
C805 H827 0.950 . S
C806 H802 0.949 . S
C806 C814 1.574 . S
C806 C822 1.368 . S
H807 C815 0.950 . S
H808 C813 0.950 . S
H809 C814 0.949 . S
H810 C816 0.950 . S
H811 C817 0.950 . S
H812 C818 0.949 . S
C813 H808 0.950 . S
C813 C815 1.327 . S
C813 C819 1.429 . S
C814 C806 1.574 . S
C814 H809 0.949 . S
C814 C820 1.368 . S
C815 C799 1.349 . S
C815 H807 0.950 . S
C815 C813 1.327 . S
C816 C804 1.349 . S
C816 H810 0.950 . S
C816 C817 1.327 . S
C817 H811 0.950 . S
C817 C816 1.327 . S
C817 C821 1.429 . S
C818 C801 1.574 . S
C818 H812 0.949 . S
C818 C822 1.368 . S
C819 C800 1.429 . S
C819 C813 1.429 . S
C819 C820 1.523 . S
C820 C801 1.368 . S
C820 C814 1.368 . S
C820 C819 1.523 . S
C821 C805 1.429 . S
C821 C817 1.429 . S
C821 C822 1.523 . S
C822 C806 1.368 . S
C822 C818 1.368 . S
C822 C821 1.523 . S
H823 C798 0.950 . S
H824 C800 0.950 . S
H825 C801 0.949 . S
H826 C803 0.950 . S
H827 C805 0.950 . S
C828 C829 1.349 . S
C828 C830 1.327 . S
C828 H853 0.950 . S
C829 C828 1.349 . S
C829 C845 1.349 . S
C830 C828 1.327 . S
C830 C849 1.429 . S
C830 H854 0.950 . S
C831 C848 1.574 . S
C831 C850 1.368 . S
C831 H855 0.949 . S
H832 C836 0.949 . S
C833 C834 1.349 . S
C833 C835 1.327 . S
C833 H856 0.950 . S
C834 C833 1.349 . S
C834 C846 1.349 . S
C835 C833 1.327 . S
C835 C851 1.429 . S
C835 H857 0.950 . S
C836 H832 0.949 . S
C836 C844 1.574 . S
C836 C852 1.368 . S
H837 C845 0.950 . S
H838 C843 0.950 . S
H839 C844 0.949 . S
H840 C846 0.950 . S
H841 C847 0.950 . S
H842 C848 0.949 . S
C843 H838 0.950 . S
C843 C845 1.327 . S
C843 C849 1.429 . S
C844 C836 1.574 . S
C844 H839 0.949 . S
C844 C850 1.368 . S
C845 C829 1.349 . S
C845 H837 0.950 . S
C845 C843 1.327 . S
C846 C834 1.349 . S
C846 H840 0.950 . S
C846 C847 1.327 . S
C847 H841 0.950 . S
C847 C846 1.327 . S
C847 C851 1.429 . S
C848 C831 1.574 . S
C848 H842 0.949 . S
C848 C852 1.368 . S
C849 C830 1.429 . S
C849 C843 1.429 . S
C849 C850 1.523 . S
C850 C831 1.368 . S
C850 C844 1.368 . S
C850 C849 1.523 . S
C851 C835 1.429 . S
C851 C847 1.429 . S
C851 C852 1.523 . S
C852 C836 1.368 . S
C852 C848 1.368 . S
C852 C851 1.523 . S
H853 C828 0.950 . S
H854 C830 0.950 . S
H855 C831 0.949 . S
H856 C833 0.950 . S
H857 C835 0.950 . S
C858 C859 1.349 . S
C858 C860 1.327 . S
C858 H883 0.950 . S
C859 C858 1.349 . S
C859 C875 1.349 . S
C860 C858 1.327 . S
C860 C879 1.429 . S
C860 H884 0.950 . S
C861 C878 1.574 . S
C861 C880 1.368 . S
C861 H885 0.949 . S
H862 C866 0.949 . S
C863 C864 1.349 . S
C863 C865 1.327 . S
C863 H886 0.950 . S
C864 C863 1.349 . S
C864 C876 1.349 . S
C865 C863 1.327 . S
C865 C881 1.429 1_554 S
C865 H887 0.950 . S
C866 H862 0.949 . S
C866 C874 1.574 . S
C866 C882 1.368 . S
H867 C875 0.950 . S
H868 C873 0.950 . S
H869 C874 0.949 . S
H870 C876 0.950 1_556 S
H871 C877 0.950 . S
H872 C878 0.949 1_554 S
C873 H868 0.950 . S
C873 C875 1.327 . S
C873 C879 1.429 . S
C874 C866 1.574 . S
C874 H869 0.949 . S
C874 C880 1.368 . S
C875 C859 1.349 . S
C875 H867 0.950 . S
C875 C873 1.327 . S
C876 C864 1.349 . S
C876 H870 0.950 1_554 S
C876 C877 1.327 1_554 S
C877 H871 0.950 . S
C877 C876 1.327 1_556 S
C877 C881 1.429 . S
C878 C861 1.574 . S
C878 H872 0.949 1_556 S
C878 C882 1.368 . S
C879 C860 1.429 . S
C879 C873 1.429 . S
C879 C880 1.523 . S
C880 C861 1.368 . S
C880 C874 1.368 . S
C880 C879 1.523 . S
C881 C865 1.429 1_556 S
C881 C877 1.429 . S
C881 C882 1.523 . S
C882 C866 1.368 . S
C882 C878 1.368 . S
C882 C881 1.523 . S
H883 C858 0.950 . S
H884 C860 0.950 . S
H885 C861 0.949 . S
H886 C863 0.950 . S
H887 C865 0.950 . S
C529 C29 1.230 . S
C534 C313 1.230 . S
C559 C117 1.230 . S
C564 C401 1.230 . S
C589 C489 1.231 . S
C594 C205 1.231 . S
C619 C57 1.230 . S
C624 C284 1.230 . S
C649 C145 1.230 . S
C654 C372 1.230 . S
C679 C460 1.230 . S
C684 C233 1.230 . S
C709 C108 1.433 . S
C714 C49 1.433 . S
C739 C196 1.432 . S
C744 C137 1.432 . S
C769 C225 1.432 . S
C774 C293 1.432 . S
C799 C381 1.433 . S
C804 C321 1.433 . S
C829 C469 1.432 . S
C834 C409 1.432 . S
C859 C497 1.432 . S
C864 C20 1.432 . S
