# Generated by pormake.
# Topology dia-a, (4)-cn, num edge types: 1
# Building blocks:
#     Node 0, Type 0, BuildingBlock: NAHDIM_clean_sbu_0, # of connection points: 4
#     Node 1, Type 0, BuildingBlock: NAHDIM_clean_sbu_0, # of connection points: 4
#     Node 2, Type 0, BuildingBlock: NAHDIM_clean_sbu_0, # of connection points: 4
#     Node 3, Type 0, BuildingBlock: NAHDIM_clean_sbu_0, # of connection points: 4
#     Node 4, Type 0, BuildingBlock: NAHDIM_clean_sbu_0, # of connection points: 4
#     Node 5, Type 0, BuildingBlock: NAHDIM_clean_sbu_0, # of connection points: 4
#     Node 6, Type 0, BuildingBlock: NAHDIM_clean_sbu_0, # of connection points: 4
#     Node 7, Type 0, BuildingBlock: NAHDIM_clean_sbu_0, # of connection points: 4
#     Node 8, Type 0, BuildingBlock: NAHDIM_clean_sbu_0, # of connection points: 4
#     Node 9, Type 0, BuildingBlock: NAHDIM_clean_sbu_0, # of connection points: 4
#     Node 10, Type 0, BuildingBlock: NAHDIM_clean_sbu_0, # of connection points: 4
#     Node 11, Type 0, BuildingBlock: NAHDIM_clean_sbu_0, # of connection points: 4
#     Node 12, Type 0, BuildingBlock: NAHDIM_clean_sbu_0, # of connection points: 4
#     Node 13, Type 0, BuildingBlock: NAHDIM_clean_sbu_0, # of connection points: 4
#     Node 14, Type 0, BuildingBlock: NAHDIM_clean_sbu_0, # of connection points: 4
#     Node 15, Type 0, BuildingBlock: NAHDIM_clean_sbu_0, # of connection points: 4
#     Node 16, Type 0, BuildingBlock: NAHDIM_clean_sbu_0, # of connection points: 4
#     Node 17, Type 0, BuildingBlock: NAHDIM_clean_sbu_0, # of connection points: 4
#     Node 18, Type 0, BuildingBlock: NAHDIM_clean_sbu_0, # of connection points: 4
#     Node 19, Type 0, BuildingBlock: NAHDIM_clean_sbu_0, # of connection points: 4
#     Node 20, Type 0, BuildingBlock: NAHDIM_clean_sbu_0, # of connection points: 4
#     Node 21, Type 0, BuildingBlock: NAHDIM_clean_sbu_0, # of connection points: 4
#     Node 22, Type 0, BuildingBlock: NAHDIM_clean_sbu_0, # of connection points: 4
#     Node 23, Type 0, BuildingBlock: NAHDIM_clean_sbu_0, # of connection points: 4
#     Node 24, Type 0, BuildingBlock: NAHDIM_clean_sbu_0, # of connection points: 4
#     Node 25, Type 0, BuildingBlock: NAHDIM_clean_sbu_0, # of connection points: 4
#     Node 26, Type 0, BuildingBlock: NAHDIM_clean_sbu_0, # of connection points: 4
#     Node 27, Type 0, BuildingBlock: NAHDIM_clean_sbu_0, # of connection points: 4
#     Node 28, Type 0, BuildingBlock: NAHDIM_clean_sbu_0, # of connection points: 4
#     Node 29, Type 0, BuildingBlock: NAHDIM_clean_sbu_0, # of connection points: 4
#     Node 30, Type 0, BuildingBlock: NAHDIM_clean_sbu_0, # of connection points: 4
#     Node 31, Type 0, BuildingBlock: NAHDIM_clean_sbu_0, # of connection points: 4
#     Edge 32, Type (0, 0), BuildingBlock: ZUJKAS_clean_linker_0, # of connection points: 2
#     Edge 33, Type (0, 0), BuildingBlock: ZUJKAS_clean_linker_0, # of connection points: 2
#     Edge 34, Type (0, 0), BuildingBlock: ZUJKAS_clean_linker_0, # of connection points: 2
#     Edge 35, Type (0, 0), BuildingBlock: ZUJKAS_clean_linker_0, # of connection points: 2
#     Edge 36, Type (0, 0), BuildingBlock: ZUJKAS_clean_linker_0, # of connection points: 2
#     Edge 37, Type (0, 0), BuildingBlock: ZUJKAS_clean_linker_0, # of connection points: 2
#     Edge 38, Type (0, 0), BuildingBlock: ZUJKAS_clean_linker_0, # of connection points: 2
#     Edge 39, Type (0, 0), BuildingBlock: ZUJKAS_clean_linker_0, # of connection points: 2
#     Edge 40, Type (0, 0), BuildingBlock: ZUJKAS_clean_linker_0, # of connection points: 2
#     Edge 41, Type (0, 0), BuildingBlock: ZUJKAS_clean_linker_0, # of connection points: 2
#     Edge 42, Type (0, 0), BuildingBlock: ZUJKAS_clean_linker_0, # of connection points: 2
#     Edge 43, Type (0, 0), BuildingBlock: ZUJKAS_clean_linker_0, # of connection points: 2
#     Edge 44, Type (0, 0), BuildingBlock: ZUJKAS_clean_linker_0, # of connection points: 2
#     Edge 45, Type (0, 0), BuildingBlock: ZUJKAS_clean_linker_0, # of connection points: 2
#     Edge 46, Type (0, 0), BuildingBlock: ZUJKAS_clean_linker_0, # of connection points: 2
#     Edge 47, Type (0, 0), BuildingBlock: ZUJKAS_clean_linker_0, # of connection points: 2
#     Edge 48, Type (0, 0), BuildingBlock: ZUJKAS_clean_linker_0, # of connection points: 2
#     Edge 49, Type (0, 0), BuildingBlock: ZUJKAS_clean_linker_0, # of connection points: 2
#     Edge 50, Type (0, 0), BuildingBlock: ZUJKAS_clean_linker_0, # of connection points: 2
#     Edge 51, Type (0, 0), BuildingBlock: ZUJKAS_clean_linker_0, # of connection points: 2
#     Edge 52, Type (0, 0), BuildingBlock: ZUJKAS_clean_linker_0, # of connection points: 2
#     Edge 53, Type (0, 0), BuildingBlock: ZUJKAS_clean_linker_0, # of connection points: 2
#     Edge 54, Type (0, 0), BuildingBlock: ZUJKAS_clean_linker_0, # of connection points: 2
#     Edge 55, Type (0, 0), BuildingBlock: ZUJKAS_clean_linker_0, # of connection points: 2
#     Edge 56, Type (0, 0), BuildingBlock: ZUJKAS_clean_linker_0, # of connection points: 2
#     Edge 57, Type (0, 0), BuildingBlock: ZUJKAS_clean_linker_0, # of connection points: 2
#     Edge 58, Type (0, 0), BuildingBlock: ZUJKAS_clean_linker_0, # of connection points: 2
#     Edge 59, Type (0, 0), BuildingBlock: ZUJKAS_clean_linker_0, # of connection points: 2
#     Edge 60, Type (0, 0), BuildingBlock: ZUJKAS_clean_linker_0, # of connection points: 2
#     Edge 61, Type (0, 0), BuildingBlock: ZUJKAS_clean_linker_0, # of connection points: 2
#     Edge 62, Type (0, 0), BuildingBlock: ZUJKAS_clean_linker_0, # of connection points: 2
#     Edge 63, Type (0, 0), BuildingBlock: ZUJKAS_clean_linker_0, # of connection points: 2
#     Edge 64, Type (0, 0), BuildingBlock: ZUJKAS_clean_linker_0, # of connection points: 2
#     Edge 65, Type (0, 0), BuildingBlock: ZUJKAS_clean_linker_0, # of connection points: 2
#     Edge 66, Type (0, 0), BuildingBlock: ZUJKAS_clean_linker_0, # of connection points: 2
#     Edge 67, Type (0, 0), BuildingBlock: ZUJKAS_clean_linker_0, # of connection points: 2
#     Edge 68, Type (0, 0), BuildingBlock: ZUJKAS_clean_linker_0, # of connection points: 2
#     Edge 69, Type (0, 0), BuildingBlock: ZUJKAS_clean_linker_0, # of connection points: 2
#     Edge 70, Type (0, 0), BuildingBlock: ZUJKAS_clean_linker_0, # of connection points: 2
#     Edge 71, Type (0, 0), BuildingBlock: ZUJKAS_clean_linker_0, # of connection points: 2
#     Edge 72, Type (0, 0), BuildingBlock: ZUJKAS_clean_linker_0, # of connection points: 2
#     Edge 73, Type (0, 0), BuildingBlock: ZUJKAS_clean_linker_0, # of connection points: 2
#     Edge 74, Type (0, 0), BuildingBlock: ZUJKAS_clean_linker_0, # of connection points: 2
#     Edge 75, Type (0, 0), BuildingBlock: ZUJKAS_clean_linker_0, # of connection points: 2
#     Edge 76, Type (0, 0), BuildingBlock: ZUJKAS_clean_linker_0, # of connection points: 2
#     Edge 77, Type (0, 0), BuildingBlock: ZUJKAS_clean_linker_0, # of connection points: 2
#     Edge 78, Type (0, 0), BuildingBlock: ZUJKAS_clean_linker_0, # of connection points: 2
#     Edge 79, Type (0, 0), BuildingBlock: ZUJKAS_clean_linker_0, # of connection points: 2
#     Edge 80, Type (0, 0), BuildingBlock: ZUJKAS_clean_linker_0, # of connection points: 2
#     Edge 81, Type (0, 0), BuildingBlock: ZUJKAS_clean_linker_0, # of connection points: 2
#     Edge 82, Type (0, 0), BuildingBlock: ZUJKAS_clean_linker_0, # of connection points: 2
#     Edge 83, Type (0, 0), BuildingBlock: ZUJKAS_clean_linker_0, # of connection points: 2
#     Edge 84, Type (0, 0), BuildingBlock: ZUJKAS_clean_linker_0, # of connection points: 2
#     Edge 85, Type (0, 0), BuildingBlock: ZUJKAS_clean_linker_0, # of connection points: 2
#     Edge 86, Type (0, 0), BuildingBlock: ZUJKAS_clean_linker_0, # of connection points: 2
#     Edge 87, Type (0, 0), BuildingBlock: ZUJKAS_clean_linker_0, # of connection points: 2
#     Edge 88, Type (0, 0), BuildingBlock: ZUJKAS_clean_linker_0, # of connection points: 2
#     Edge 89, Type (0, 0), BuildingBlock: ZUJKAS_clean_linker_0, # of connection points: 2
#     Edge 90, Type (0, 0), BuildingBlock: ZUJKAS_clean_linker_0, # of connection points: 2
#     Edge 91, Type (0, 0), BuildingBlock: ZUJKAS_clean_linker_0, # of connection points: 2
#     Edge 92, Type (0, 0), BuildingBlock: ZUJKAS_clean_linker_0, # of connection points: 2
#     Edge 93, Type (0, 0), BuildingBlock: ZUJKAS_clean_linker_0, # of connection points: 2
#     Edge 94, Type (0, 0), BuildingBlock: ZUJKAS_clean_linker_0, # of connection points: 2
#     Edge 95, Type (0, 0), BuildingBlock: ZUJKAS_clean_linker_0, # of connection points: 2
# Relax obj value: 0.800
# Max RMSD: 0.295
# Mean RMSD: 0.280
data_MOF--net-dia-a--node1-NAHDIM_clean_sbu_0--edge1-ZUJKAS_clean_linker_0
_symmetry_space_group_name_H-M    P1
_symmetry_Int_Tables_number       1
_symmetry_cell_setting            triclinic
loop_
_symmetry_equiv_pos_as_xyz
'x, y, z'
_cell_length_a     88.663219
_cell_length_b     83.041602
_cell_length_c     63.667956
_cell_angle_alpha  94.882463
_cell_angle_beta   93.801573
_cell_angle_gamma 88.838601
loop_
_atom_site_label
_atom_site_type_symbol
_atom_site_fract_x
_atom_site_fract_y
_atom_site_fract_z
_atom_type_partial_charge
C0 C 0.08782 0.00322 0.47765 0.0
O1 O 0.08075 0.01583 0.47035 0.0
O2 O 0.10575 0.04445 0.47885 0.0
Zn3 Zn 0.10723 0.02752 0.49993 0.0
O4 O 0.09481 0.03573 0.52408 0.0
C5 C 0.13949 0.03377 0.50657 0.0
O6 O 0.13764 0.04083 0.48886 0.0
O7 O 0.09992 0.00533 0.48931 0.0
C8 C 0.0994 0.04854 0.53475 0.0
O9 O 0.11145 0.05563 0.52914 0.0
C10 C 0.09372 0.05292 0.47666 0.0
O11 O 0.0817 0.049 0.486 0.0
O12 O 0.12845 0.02645 0.513 0.0
C13 C 0.88164 0.20385 0.78187 0.0
O14 O 0.87373 0.2052 0.79866 0.0
O15 O 0.85131 0.23728 0.78891 0.0
Zn16 Zn 0.87277 0.2374 0.77968 0.0
O17 O 0.88552 0.24606 0.80517 0.0
C18 C 0.86347 0.2619 0.75114 0.0
O19 O 0.84997 0.25932 0.7574 0.0
O20 O 0.88171 0.21562 0.77035 0.0
C21 C 0.8997 0.24381 0.80803 0.0
O22 O 0.90705 0.23551 0.79335 0.0
C23 C 0.84931 0.2359 0.80829 0.0
O24 O 0.86099 0.23236 0.82095 0.0
O25 O 0.87462 0.25343 0.75778 0.0
C26 C 0.61548 0.27703 0.0244 0.0
O27 O 0.61849 0.26368 0.01273 0.0
O28 O 0.6065 0.23567 0.03162 0.0
Zn29 Zn 0.61093 0.25407 0.05386 0.0
O30 O 0.6319 0.25042 0.06663 0.0
C31 C 0.60128 0.2599 0.09565 0.0
O32 O 0.61257 0.27003 0.09707 0.0
O33 O 0.61071 0.27594 0.04259 0.0
C34 C 0.63423 0.23762 0.07602 0.0
O35 O 0.62319 0.22727 0.07589 0.0
C36 C 0.59339 0.2297 0.02824 0.0
O37 O 0.58213 0.23656 0.03824 0.0
O38 O 0.59742 0.25266 0.07777 0.0
C39 C 0.86768 0.97982 0.22194 0.0
O40 O 0.88005 0.97809 0.23411 0.0
O41 O 0.87919 0.94779 0.25386 0.0
Zn42 Zn 0.86173 0.94714 0.23185 0.0
O43 O 0.84343 0.945 0.24837 0.0
C44 C 0.8751 0.91875 0.21031 0.0
O45 O 0.8879 0.92564 0.2172 0.0
O46 O 0.85906 0.96779 0.21741 0.0
C47 C 0.84336 0.93265 0.25884 0.0
O48 O 0.8546 0.92214 0.25739 0.0
C49 C 0.87769 0.95657 0.27099 0.0
O50 O 0.86571 0.96605 0.27259 0.0
O51 O 0.86278 0.92657 0.21278 0.0
C52 C 0.02443 0.13106 0.77675 0.0
O53 O 0.02862 0.11701 0.76774 0.0
O54 O 0.07205 0.14021 0.78446 0.0
Zn55 Zn 0.05343 0.14176 0.76457 0.0
O56 O 0.05393 0.12373 0.74138 0.0
C57 C 0.06701 0.16321 0.73991 0.0
O58 O 0.07759 0.15197 0.74131 0.0
O59 O 0.03357 0.14277 0.77827 0.0
C60 C 0.04476 0.12397 0.72519 0.0
O61 O 0.0342 0.13529 0.72475 0.0
C62 C 0.07938 0.12692 0.78509 0.0
O63 O 0.07351 0.11382 0.77499 0.0
O64 O 0.05508 0.16195 0.74963 0.0
C65 C 0.72928 0.37544 0.97968 0.0
O66 O 0.73753 0.3852 0.99289 0.0
O67 O 0.77125 0.37536 0.98168 0.0
Zn68 Zn 0.75673 0.36994 0.9564 0.0
O69 O 0.76306 0.34869 0.94168 0.0
C70 C 0.77264 0.38931 0.93226 0.0
O71 O 0.7835 0.38234 0.94345 0.0
O72 O 0.73519 0.36827 0.96374 0.0
C73 C 0.75688 0.34454 0.92349 0.0
O74 O 0.74622 0.35388 0.91551 0.0
C75 C 0.77747 0.36446 0.99231 0.0
O76 O 0.77306 0.34945 0.98822 0.0
O77 O 0.759 0.3864 0.93545 0.0
C78 C 0.77086 0.11563 0.2134 0.0
O79 O 0.76021 0.11571 0.22679 0.0
O80 O 0.74274 0.11265 0.15774 0.0
Zn81 Zn 0.74709 0.12716 0.18409 0.0
O82 O 0.73025 0.12362 0.20312 0.0
C83 C 0.74952 0.16328 0.18325 0.0
O84 O 0.75625 0.16443 0.20232 0.0
O85 O 0.76785 0.12096 0.19546 0.0
C86 C 0.72579 0.13401 0.21729 0.0
O87 O 0.73314 0.1476 0.22138 0.0
C88 C 0.7459 0.09762 0.15602 0.0
O89 O 0.75242 0.09087 0.17228 0.0
O90 O 0.74563 0.14954 0.17448 0.0
C91 C 0.97494 0.89635 0.50842 0.0
O92 O 0.96388 0.90636 0.51364 0.0
O93 O 0.93656 0.88765 0.51623 0.0
Zn94 Zn 0.94949 0.87897 0.49291 0.0
O95 O 0.94439 0.89084 0.46708 0.0
C96 C 0.92958 0.85328 0.48325 0.0
O97 O 0.92036 0.86526 0.48874 0.0
O98 O 0.97165 0.88229 0.50016 0.0
C99 C 0.9374 0.90434 0.4668 0.0
O100 O 0.93293 0.91157 0.48453 0.0
C101 C 0.93516 0.88008 0.5325 0.0
O102 O 0.94386 0.86737 0.53543 0.0
O103 O 0.94374 0.85583 0.48436 0.0
C104 C 0.5941 0.0128 0.97331 0.0
O105 O 0.58795 0.02571 0.96549 0.0
O106 O 0.60975 0.05469 0.98121 0.0
Zn107 Zn 0.61598 0.03499 0.99649 0.0
O108 O 0.60949 0.03944 0.02611 0.0
C109 C 0.64742 0.0433 0.99543 0.0
O110 O 0.64171 0.05623 0.98717 0.0
O111 O 0.60618 0.01416 0.98516 0.0
C112 C 0.61372 0.05226 0.03705 0.0
O113 O 0.62237 0.06237 0.02875 0.0
C114 C 0.59702 0.06141 0.98453 0.0
O115 O 0.58753 0.05417 0.9955 0.0
O116 O 0.63858 0.03225 0.99938 0.0
C117 C 0.87797 0.70267 0.28677 0.0
O118 O 0.86782 0.70016 0.30023 0.0
O119 O 0.84005 0.71897 0.27648 0.0
Zn120 Zn 0.85971 0.73096 0.28282 0.0
O121 O 0.86282 0.73849 0.3139 0.0
C122 C 0.86219 0.7644 0.27379 0.0
O123 O 0.86178 0.76672 0.2944 0.0
O124 O 0.8766 0.71511 0.27643 0.0
C125 C 0.87639 0.74066 0.32122 0.0
O126 O 0.88739 0.73765 0.30856 0.0
C127 C 0.82819 0.7208 0.28669 0.0
O128 O 0.81695 0.71079 0.28201 0.0
O129 O 0.86125 0.75007 0.26499 0.0
C130 C 0.1283 0.26612 0.50566 0.0
O131 O 0.13319 0.25264 0.49589 0.0
O132 O 0.11054 0.22643 0.50744 0.0
Zn133 Zn 0.11666 0.2434 0.53104 0.0
O134 O 0.13597 0.23614 0.54608 0.0
C135 C 0.09716 0.2305 0.55768 0.0
O136 O 0.10211 0.2175 0.54685 0.0
O137 O 0.12001 0.2653 0.52103 0.0
C138 C 0.14242 0.24533 0.56081 0.0
O139 O 0.13675 0.25987 0.56524 0.0
C140 C 0.12033 0.21662 0.49972 0.0
O141 O 0.13466 0.21868 0.50576 0.0
O142 O 0.10134 0.24426 0.55309 0.0
C143 C 0.86993 0.48413 0.72589 0.0
O144 O 0.8823 0.48227 0.73802 0.0
O145 O 0.88189 0.45119 0.75613 0.0
Zn146 Zn 0.86449 0.45086 0.73402 0.0
O147 O 0.84619 0.44761 0.7501 0.0
C148 C 0.87859 0.42317 0.71222 0.0
O149 O 0.89104 0.42984 0.72095 0.0
O150 O 0.86146 0.47204 0.72082 0.0
C151 C 0.84607 0.43464 0.75931 0.0
O152 O 0.85729 0.42419 0.75692 0.0
C153 C 0.88011 0.45887 0.77396 0.0
O154 O 0.86778 0.46769 0.77644 0.0
O155 O 0.86614 0.43092 0.71379 0.0
C156 C 0.53543 0.14536 0.28235 0.0
O157 O 0.54438 0.15452 0.29538 0.0
O158 O 0.57076 0.12763 0.30244 0.0
Zn159 Zn 0.56395 0.13165 0.27229 0.0
O160 O 0.57022 0.11316 0.25187 0.0
C161 C 0.58066 0.15204 0.24774 0.0
O162 O 0.58601 0.13804 0.24011 0.0
O163 O 0.54124 0.13405 0.27067 0.0
C164 C 0.56083 0.1064 0.23809 0.0
O165 O 0.54644 0.11037 0.23859 0.0
C166 C 0.58379 0.12383 0.31029 0.0
O167 O 0.58524 0.12008 0.32995 0.0
O168 O 0.57165 0.15241 0.26253 0.0
C169 C 0.74399 0.86989 0.48744 0.0
O170 O 0.75162 0.88071 0.4999 0.0
O171 O 0.7841 0.87686 0.48477 0.0
Zn172 Zn 0.76938 0.87025 0.46032 0.0
O173 O 0.77779 0.85042 0.44439 0.0
C174 C 0.77803 0.89736 0.43915 0.0
O175 O 0.78937 0.89726 0.45351 0.0
O176 O 0.74928 0.86447 0.47011 0.0
C177 C 0.7915 0.8496 0.43959 0.0
O178 O 0.80047 0.86173 0.44579 0.0
C179 C 0.78696 0.86816 0.50006 0.0
O180 O 0.77943 0.85476 0.50068 0.0
O181 O 0.7674 0.88739 0.43966 0.0
C182 C 0.26751 0.10638 0.7253 0.0
O183 O 0.25533 0.09932 0.73052 0.0
O184 O 0.2368 0.11225 0.68602 0.0
Zn185 Zn 0.24455 0.12701 0.71082 0.0
O186 O 0.23102 0.12396 0.73452 0.0
C187 C 0.23154 0.15882 0.70611 0.0
O188 O 0.2227 0.15451 0.72033 0.0
O189 O 0.26605 0.11988 0.71732 0.0
C190 C 0.23118 0.13152 0.75275 0.0
O191 O 0.24156 0.14242 0.75824 0.0
C192 C 0.22266 0.11165 0.68141 0.0
O193 O 0.2135 0.12045 0.69327 0.0
O194 O 0.24241 0.14948 0.70069 0.0
C195 C 0.97698 0.40286 0.01489 0.0
O196 O 0.96539 0.41137 0.02176 0.0
O197 O 0.93867 0.38269 0.01801 0.0
Zn198 Zn 0.95396 0.38121 0.99571 0.0
O199 O 0.94627 0.39437 0.97205 0.0
C200 C 0.94303 0.35049 0.97967 0.0
O201 O 0.93038 0.3574 0.98569 0.0
O202 O 0.97473 0.38912 0.00498 0.0
C203 C 0.95251 0.39272 0.95458 0.0
O204 O 0.96393 0.38251 0.95245 0.0
C205 C 0.9295 0.39465 0.01926 0.0
O206 O 0.93178 0.40706 0.00842 0.0
O207 O 0.95526 0.35827 0.98309 0.0
C208 C 0.09698 0.50629 0.98131 0.0
O209 O 0.09407 0.51607 0.96634 0.0
O210 O 0.11 0.54888 0.98236 0.0
Zn211 Zn 0.11421 0.53297 0.00436 0.0
O212 O 0.10432 0.54158 0.0306 0.0
C213 C 0.14471 0.54399 0.01092 0.0
O214 O 0.13936 0.55522 0.999 0.0
O215 O 0.10575 0.51084 0.99718 0.0
C216 C 0.10412 0.55654 0.03678 0.0
O217 O 0.11004 0.56691 0.02532 0.0
C218 C 0.09698 0.55536 0.97971 0.0
O219 O 0.08563 0.54957 0.98886 0.0
O220 O 0.13631 0.53225 0.01377 0.0
C221 C 0.49669 0.3882 0.49124 0.0
O222 O 0.49245 0.37793 0.47519 0.0
O223 O 0.45048 0.39169 0.51728 0.0
Zn224 Zn 0.46553 0.38727 0.49504 0.0
O225 O 0.45941 0.40044 0.47072 0.0
C226 C 0.45343 0.35506 0.48683 0.0
O227 O 0.4441 0.36026 0.50119 0.0
O228 O 0.48691 0.39339 0.50401 0.0
C229 C 0.4461 0.39973 0.46206 0.0
O230 O 0.43612 0.3907 0.46967 0.0
C231 C 0.44412 0.40546 0.52037 0.0
O232 O 0.44919 0.41772 0.51128 0.0
O233 O 0.46407 0.36413 0.48283 0.0
C234 C 0.12614 0.77031 0.00989 0.0
O235 O 0.13338 0.757 0.00358 0.0
O236 O 0.10785 0.73014 0.0156 0.0
Zn237 Zn 0.11464 0.74863 0.03677 0.0
O238 O 0.13496 0.74307 0.05064 0.0
C239 C 0.09011 0.7414 0.06227 0.0
O240 O 0.08721 0.73001 0.047 0.0
O241 O 0.11655 0.76968 0.02374 0.0
C242 C 0.1363 0.73004 0.05976 0.0
O243 O 0.12463 0.72046 0.05905 0.0
C244 C 0.11722 0.72061 0.00641 0.0
O245 O 0.13175 0.7235 0.00951 0.0
O246 O 0.10068 0.75122 0.06058 0.0
C247 C 0.02605 0.6381 0.27881 0.0
O248 O 0.02972 0.62501 0.26706 0.0
O249 O 0.07372 0.65196 0.28671 0.0
Zn250 Zn 0.05484 0.64934 0.26732 0.0
O251 O 0.05691 0.62961 0.24682 0.0
C252 C 0.0596 0.68135 0.25256 0.0
O253 O 0.06723 0.68464 0.27076 0.0
O254 O 0.03548 0.64952 0.28216 0.0
C255 C 0.06991 0.62564 0.24062 0.0
O256 O 0.08176 0.63373 0.24883 0.0
C257 C 0.0801 0.64036 0.29587 0.0
O258 O 0.07311 0.6265 0.29509 0.0
O259 O 0.05347 0.66764 0.24858 0.0
C260 C 0.23232 0.8799 0.98422 0.0
O261 O 0.24426 0.87403 0.99447 0.0
O262 O 0.27155 0.89305 0.97882 0.0
Zn263 Zn 0.25475 0.88737 0.95647 0.0
O264 O 0.25944 0.86529 0.94243 0.0
C265 C 0.26217 0.91583 0.93577 0.0
O266 O 0.26753 0.92129 0.95471 0.0
O267 O 0.2341 0.88706 0.96773 0.0
C268 C 0.27079 0.86429 0.93117 0.0
O269 O 0.27865 0.87735 0.92969 0.0
C270 C 0.2792 0.88198 0.98744 0.0
O271 O 0.27515 0.86687 0.98309 0.0
O272 O 0.25534 0.90243 0.93346 0.0
C273 C 0.37083 0.97842 0.71324 0.0
O274 O 0.38454 0.97742 0.72227 0.0
O275 O 0.38511 0.95029 0.74995 0.0
Zn276 Zn 0.36629 0.94759 0.73061 0.0
O277 O 0.3495 0.94759 0.75028 0.0
C278 C 0.37838 0.91702 0.71351 0.0
O279 O 0.39133 0.92373 0.72005 0.0
O280 O 0.36201 0.96653 0.71323 0.0
C281 C 0.34885 0.93581 0.76165 0.0
O282 O 0.35875 0.92389 0.75951 0.0
C283 C 0.38521 0.9612 0.76522 0.0
O284 O 0.37373 0.97143 0.76645 0.0
O285 O 0.36632 0.92553 0.71454 0.0
C286 C 0.48117 0.90484 0.00774 0.0
O287 O 0.4699 0.91315 0.01594 0.0
O288 O 0.44093 0.89281 0.00485 0.0
Zn289 Zn 0.45711 0.88685 0.98452 0.0
O290 O 0.45189 0.89919 0.95908 0.0
C291 C 0.45981 0.85047 0.98033 0.0
O292 O 0.46647 0.85056 0.99939 0.0
O293 O 0.47828 0.8924 0.99523 0.0
C294 C 0.45682 0.91287 0.9554 0.0
O295 O 0.46638 0.92052 0.96922 0.0
C296 C 0.43438 0.88255 0.01469 0.0
O297 O 0.43947 0.86757 0.0138 0.0
O298 O 0.45561 0.86368 0.9729 0.0
C299 C 0.27172 0.61796 0.23112 0.0
O300 O 0.26026 0.61537 0.24241 0.0
O301 O 0.23983 0.6239 0.18649 0.0
Zn302 Zn 0.24948 0.63781 0.21084 0.0
O303 O 0.23567 0.63782 0.235 0.0
C304 C 0.25311 0.66056 0.18098 0.0
O305 O 0.25853 0.64751 0.17078 0.0
O306 O 0.27011 0.62816 0.21732 0.0
C307 C 0.22641 0.64948 0.23851 0.0
O308 O 0.22664 0.66197 0.22719 0.0
C309 C 0.23783 0.60876 0.18588 0.0
O310 O 0.242 0.60098 0.20249 0.0
O311 O 0.25004 0.65991 0.20011 0.0
C312 C 0.3778 0.70169 0.7988 0.0
O313 O 0.3739 0.70527 0.8182 0.0
O314 O 0.34437 0.73499 0.80356 0.0
Zn315 Zn 0.36602 0.73346 0.79515 0.0
O316 O 0.37913 0.74042 0.82115 0.0
C317 C 0.35838 0.758 0.76595 0.0
O318 O 0.34446 0.75495 0.77012 0.0
O319 O 0.37398 0.71141 0.7849 0.0
C320 C 0.3762 0.75341 0.83221 0.0
O321 O 0.36454 0.76237 0.82632 0.0
C322 C 0.34099 0.73189 0.82188 0.0
O323 O 0.3511 0.72467 0.83399 0.0
O324 O 0.36923 0.74987 0.77412 0.0
C325 C 0.59572 0.51354 0.47719 0.0
O326 O 0.58751 0.52623 0.48319 0.0
O327 O 0.61949 0.55464 0.48101 0.0
Zn328 Zn 0.61963 0.53389 0.49545 0.0
O329 O 0.60891 0.5388 0.5223 0.0
C330 C 0.65198 0.53729 0.50281 0.0
O331 O 0.64991 0.54896 0.49018 0.0
O332 O 0.61004 0.51443 0.47931 0.0
C333 C 0.59817 0.54908 0.52433 0.0
O334 O 0.59308 0.55667 0.50797 0.0
C335 C 0.60989 0.56036 0.46781 0.0
O336 O 0.59844 0.5515 0.45992 0.0
O337 O 0.64089 0.52849 0.50578 0.0
C338 C 0.63085 0.7655 0.54364 0.0
O339 O 0.63344 0.75601 0.55902 0.0
O340 O 0.59358 0.74154 0.50406 0.0
Zn341 Zn 0.60836 0.74185 0.52992 0.0
O342 O 0.62402 0.7236 0.53141 0.0
C343 C 0.58439 0.73823 0.55861 0.0
O344 O 0.57671 0.73176 0.54174 0.0
O345 O 0.62036 0.76201 0.52953 0.0
C346 C 0.62352 0.71356 0.54539 0.0
O347 O 0.61167 0.71369 0.55672 0.0
C348 C 0.58929 0.73172 0.48847 0.0
O349 O 0.57979 0.73701 0.47378 0.0
O350 O 0.59748 0.74369 0.55683 0.0
C351 C 0.77309 0.61932 0.72922 0.0
O352 O 0.76445 0.61922 0.74519 0.0
O353 O 0.73786 0.60611 0.68971 0.0
Zn354 Zn 0.74489 0.62648 0.70621 0.0
O355 O 0.733 0.62878 0.73226 0.0
C356 C 0.74107 0.64161 0.66761 0.0
O357 O 0.74893 0.62876 0.66114 0.0
O358 O 0.76734 0.62351 0.71166 0.0
C359 C 0.72778 0.64227 0.7398 0.0
O360 O 0.73155 0.65556 0.73176 0.0
C361 C 0.72404 0.60556 0.68318 0.0
O362 O 0.71504 0.61776 0.68866 0.0
O363 O 0.73895 0.64415 0.68719 0.0
C364 C 0.52771 0.64578 0.78696 0.0
O365 O 0.53678 0.65741 0.79487 0.0
O366 O 0.57052 0.64014 0.78111 0.0
Zn367 Zn 0.55224 0.63825 0.76042 0.0
O368 O 0.55568 0.6203 0.73798 0.0
C369 C 0.55952 0.67004 0.74749 0.0
O370 O 0.57009 0.67016 0.76297 0.0
O371 O 0.5324 0.63543 0.77295 0.0
C372 C 0.56775 0.62107 0.72843 0.0
O373 O 0.57737 0.6326 0.73472 0.0
C374 C 0.57887 0.62796 0.78484 0.0
O375 O 0.57416 0.61347 0.77778 0.0
O376 O 0.55057 0.65819 0.74442 0.0
C377 C 0.24451 0.36728 0.48687 0.0
O378 O 0.25627 0.35875 0.49343 0.0
O379 O 0.28277 0.38674 0.48631 0.0
Zn380 Zn 0.26708 0.37907 0.4633 0.0
O381 O 0.27307 0.35701 0.45034 0.0
C382 C 0.28026 0.39714 0.43456 0.0
O383 O 0.29216 0.39147 0.44513 0.0
O384 O 0.24637 0.37778 0.47392 0.0
C385 C 0.26762 0.35229 0.43191 0.0
O386 O 0.25785 0.36167 0.42217 0.0
C387 C 0.29191 0.37687 0.49489 0.0
O388 O 0.29019 0.36129 0.49008 0.0
O389 O 0.26719 0.39394 0.43998 0.0
C390 C 0.3633 0.4797 0.23789 0.0
O391 O 0.36258 0.4752 0.25709 0.0
O392 O 0.38207 0.44415 0.25699 0.0
Zn393 Zn 0.36649 0.44646 0.23279 0.0
O394 O 0.34678 0.44334 0.24556 0.0
C395 C 0.38136 0.41975 0.21115 0.0
O396 O 0.39296 0.42566 0.22302 0.0
O397 O 0.3657 0.46894 0.22297 0.0
C398 C 0.34471 0.42987 0.25292 0.0
O399 O 0.35501 0.41837 0.25056 0.0
C400 C 0.39282 0.45332 0.26429 0.0
O401 O 0.39527 0.46664 0.25538 0.0
O402 O 0.36903 0.42785 0.21057 0.0
C403 C 0.38767 0.21045 0.28642 0.0
O404 O 0.38619 0.2155 0.30629 0.0
O405 O 0.34945 0.23723 0.29282 0.0
Zn406 Zn 0.37015 0.23915 0.28141 0.0
O407 O 0.38352 0.24998 0.3052 0.0
C408 C 0.35909 0.26576 0.25868 0.0
O409 O 0.34947 0.2666 0.27356 0.0
O410 O 0.38075 0.21812 0.27212 0.0
C411 C 0.37858 0.26165 0.31719 0.0
O412 O 0.36465 0.26694 0.31373 0.0
C413 C 0.34828 0.23356 0.31163 0.0
O414 O 0.36025 0.22793 0.32201 0.0
O415 O 0.36884 0.2543 0.25794 0.0
H416 H 0.98507 0.92604 0.52374 0.0
H417 H 0.00908 0.93806 0.51791 0.0
H418 H 0.02423 0.89282 0.48734 0.0
H419 H -7e-05 0.88069 0.49268 0.0
H420 H 0.03898 0.93127 0.52844 0.0
H421 H 0.02636 0.92392 0.4413 0.0
H422 H 0.01236 0.92051 0.45967 0.0
H423 H 0.02712 0.90578 0.45487 0.0
C424 C 0.99355 0.91853 0.51603 0.0
C425 C 0.99049 0.90248 0.50837 0.0
C426 C 0.00731 0.92543 0.51275 0.0
C427 C 0.01831 0.91643 0.50179 0.0
C428 C 0.01575 0.90006 0.49542 0.0
H429 H 0.09911 0.97456 0.49096 0.0
H430 H 0.08484 0.95012 0.49455 0.0
C431 C 0.00191 0.89313 0.49863 0.0
C432 C 0.03183 0.92479 0.49595 0.0
H433 H 0.04732 0.93942 0.45383 0.0
C434 C 0.04103 0.93283 0.51213 0.0
C435 C 0.03434 0.92686 0.47462 0.0
C436 C 0.0245 0.91893 0.45655 0.0
C437 C 0.05209 0.94365 0.50766 0.0
C438 C 0.05427 0.94615 0.48635 0.0
C439 C 0.04566 0.93739 0.47012 0.0
C440 C 0.0638 0.95941 0.48077 0.0
C441 C 0.06058 0.95315 0.52585 0.0
C442 C 0.05697 0.97226 0.47055 0.0
C443 C 0.06512 0.98611 0.46819 0.0
C444 C 0.08025 0.98741 0.47613 0.0
C445 C 0.08741 0.97402 0.48492 0.0
C446 C 0.07925 0.96008 0.48711 0.0
H447 H 0.05555 0.95192 0.54115 0.0
H448 H 0.07244 0.94865 0.52721 0.0
H449 H 0.06073 0.96618 0.52315 0.0
H450 H 0.04507 0.97194 0.46541 0.0
H451 H 0.05929 0.99615 0.46122 0.0
H452 H 0.90356 0.20044 0.75351 0.0
H453 H 0.92496 0.18161 0.75378 0.0
H454 H 0.9068 0.15821 0.80434 0.0
H455 H 0.88544 0.17732 0.80452 0.0
H456 H 0.93517 0.16683 0.81429 0.0
H457 H 0.93258 0.13512 0.73448 0.0
H458 H 0.93133 0.15655 0.73288 0.0
H459 H 0.91667 0.14642 0.74473 0.0
C460 C 0.90387 0.19104 0.76433 0.0
C461 C 0.89282 0.19047 0.77909 0.0
C462 C 0.91611 0.18018 0.76438 0.0
C463 C 0.91744 0.16837 0.77894 0.0
C464 C 0.90598 0.16719 0.79291 0.0
H465 H 0.00092 0.10983 0.77131 0.0
H466 H 0.97406 0.11608 0.77492 0.0
C467 C 0.89377 0.17812 0.79296 0.0
C468 C 0.93166 0.15876 0.78126 0.0
H469 H 0.95757 0.13714 0.7527 0.0
C470 C 0.93992 0.16004 0.80092 0.0
C471 C 0.93778 0.14963 0.76397 0.0
C472 C 0.92903 0.1467 0.74291 0.0
C473 C 0.95455 0.15341 0.80336 0.0
C474 C 0.96122 0.14562 0.78557 0.0
C475 C 0.95256 0.14333 0.7663 0.0
C476 C 0.97752 0.14118 0.78602 0.0
C477 C 0.96282 0.15513 0.8249 0.0
C478 C 0.9884 0.15314 0.79134 0.0
C479 C 0.00372 0.1496 0.7894 0.0
C480 C 0.0085 0.13406 0.78183 0.0
C481 C 0.99764 0.12192 0.77722 0.0
C482 C 0.98227 0.12548 0.77922 0.0
H483 H 0.95477 0.15579 0.83762 0.0
H484 H 0.97085 0.1449 0.82719 0.0
H485 H 0.96927 0.16654 0.82661 0.0
H486 H 0.985 0.16543 0.79613 0.0
H487 H 0.01175 0.15926 0.79301 0.0
H488 H 0.70938 0.35647 0.95478 0.0
H489 H 0.6849 0.34727 0.96359 0.0
H490 H 0.68902 0.37628 0.02314 0.0
H491 H 0.71383 0.38541 0.01456 0.0
H492 H 0.68321 0.34523 0.02791 0.0
H493 H 0.64277 0.36608 0.96605 0.0
H494 H 0.65869 0.35602 0.95455 0.0
H495 H 0.66141 0.37449 0.97129 0.0
C496 C 0.705 0.36116 0.96961 0.0
C497 C 0.71363 0.37159 0.98405 0.0
C498 C 0.69088 0.35602 0.97452 0.0
C499 C 0.68498 0.3613 0.99386 0.0
C500 C 0.6933 0.37219 0.00802 0.0
H501 H 0.6153 0.30635 0.04775 0.0
H502 H 0.62918 0.33043 0.04125 0.0
C503 C 0.70748 0.37736 0.00311 0.0
C504 C 0.67126 0.35361 0.00028 0.0
H505 H 0.63584 0.3417 0.9818 0.0
C506 C 0.67268 0.34482 0.01819 0.0
C507 C 0.65754 0.35309 0.98756 0.0
C508 C 0.65496 0.36308 0.96892 0.0
C509 C 0.66124 0.33451 0.02278 0.0
C510 C 0.64792 0.33317 0.00926 0.0
C511 C 0.64609 0.34272 0.99209 0.0
C512 C 0.63682 0.32042 0.01124 0.0
C513 C 0.66397 0.32426 0.0412 0.0
C514 C 0.63579 0.30725 0.99592 0.0
C515 C 0.62784 0.29352 0.99951 0.0
C516 C 0.62079 0.29273 0.01853 0.0
C517 C 0.62073 0.30651 0.03303 0.0
C518 C 0.62869 0.32026 0.02939 0.0
H519 H 0.67579 0.32502 0.04813 0.0
H520 H 0.65632 0.3284 0.05373 0.0
H521 H 0.66148 0.31139 0.0362 0.0
H522 H 0.64193 0.30719 0.98176 0.0
H523 H 0.62798 0.28319 0.98792 0.0
H524 H 0.78147 0.10243 0.24963 0.0
H525 H 0.80243 0.08306 0.25333 0.0
H526 H 0.81271 0.08774 0.18886 0.0
H527 H 0.79225 0.10744 0.18529 0.0
H528 H 0.80245 0.05484 0.2319 0.0
H529 H 0.85457 0.08554 0.21574 0.0
H530 H 0.83734 0.09653 0.22147 0.0
H531 H 0.84013 0.0878 0.19509 0.0
C532 C 0.78848 0.09969 0.23645 0.0
C533 C 0.78511 0.1064 0.21713 0.0
C534 C 0.80046 0.0886 0.23858 0.0
C535 C 0.80924 0.084 0.22142 0.0
C536 C 0.80639 0.09135 0.2025 0.0
H537 H 0.84429 0.98784 0.19448 0.0
H538 H 0.83149 0.01414 0.19349 0.0
C539 C 0.79455 0.10256 0.20043 0.0
C540 C 0.81979 0.06991 0.2222 0.0
H541 H 0.85508 0.0563 0.21018 0.0
C542 C 0.81403 0.05526 0.22745 0.0
C543 C 0.83494 0.07043 0.21653 0.0
C544 C 0.84214 0.08598 0.21212 0.0
C545 C 0.82279 0.04103 0.22653 0.0
C546 C 0.83758 0.04131 0.21951 0.0
C547 C 0.84361 0.05605 0.21506 0.0
C548 C 0.84692 0.02635 0.21712 0.0
C549 C 0.81608 0.02583 0.2332 0.0
C550 C 0.86044 0.02482 0.22957 0.0
C551 C 0.86793 0.00986 0.2299 0.0
C552 C 0.86193 0.99618 0.21788 0.0
C553 C 0.84907 0.99809 0.20413 0.0
C554 C 0.8417 0.01309 0.20365 0.0
H555 H 0.80663 0.02862 0.24361 0.0
H556 H 0.81153 0.0184 0.21897 0.0
H557 H 0.82475 0.01852 0.24169 0.0
H558 H 0.86473 0.03497 0.23993 0.0
H559 H 0.87785 0.00881 0.24061 0.0
H560 H 0.60364 0.98397 0.98765 0.0
H561 H 0.58806 0.96073 0.99213 0.0
H562 H 0.54959 0.9842 0.96205 0.0
H563 H 0.5651 0.00737 0.9572 0.0
H564 H 0.56402 0.96296 0.01646 0.0
H565 H 0.5457 0.93821 0.93563 0.0
H566 H 0.56142 0.95177 0.94096 0.0
H567 H 0.54233 0.9596 0.93938 0.0
C568 C 0.59195 0.98403 0.9815 0.0
C569 C 0.58557 0.99759 0.9722 0.0
C570 C 0.58307 0.97074 0.98411 0.0
C571 C 0.5677 0.9707 0.97736 0.0
C572 C 0.5615 0.98383 0.96704 0.0
H573 H 0.49005 0.93445 0.02584 0.0
H574 H 0.51332 0.94827 0.02046 0.0
C575 C 0.57038 0.99712 0.96435 0.0
C576 C 0.55773 0.95796 0.98328 0.0
H577 H 0.53016 0.93184 0.96342 0.0
C578 C 0.5568 0.95594 0.00484 0.0
C579 C 0.54847 0.94864 0.96813 0.0
C580 C 0.54963 0.94953 0.94473 0.0
C581 C 0.54627 0.94549 0.0117 0.0
C582 C 0.53625 0.93709 0.99662 0.0
C583 C 0.53775 0.93842 0.97501 0.0
C584 C 0.52339 0.92783 0.0028 0.0
C585 C 0.54582 0.94375 0.03505 0.0
C586 C 0.5214 0.91167 0.99493 0.0
C587 C 0.50805 0.90376 0.99788 0.0
C588 C 0.49639 0.91192 0.00861 0.0
C589 C 0.49881 0.92779 0.01757 0.0
C590 C 0.51215 0.93571 0.01457 0.0
H591 H 0.55698 0.94641 0.0435 0.0
H592 H 0.53744 0.95251 0.04177 0.0
H593 H 0.54247 0.93139 0.03807 0.0
H594 H 0.52994 0.9054 0.98579 0.0
H595 H 0.50658 0.89151 0.99082 0.0
H596 H 0.90221 0.70611 0.26325 0.0
H597 H 0.92576 0.69037 0.26373 0.0
H598 H 0.90839 0.65992 0.30785 0.0
H599 H 0.88482 0.67577 0.30775 0.0
H600 H 0.93663 0.67094 0.32056 0.0
H601 H 0.93556 0.6455 0.23734 0.0
H602 H 0.93277 0.66702 0.23942 0.0
H603 H 0.919 0.65433 0.24909 0.0
C604 C 0.90329 0.69592 0.27283 0.0
C605 C 0.89163 0.69219 0.28545 0.0
C606 C 0.91674 0.68688 0.27299 0.0
C607 C 0.91874 0.67383 0.28559 0.0
C608 C 0.90703 0.66988 0.29793 0.0
H609 H 0.0024 0.61722 0.27166 0.0
H610 H 0.97567 0.62337 0.27638 0.0
C611 C 0.89357 0.67895 0.29781 0.0
C612 C 0.93347 0.66511 0.28693 0.0
H613 H 0.9599 0.64622 0.25654 0.0
C614 C 0.94163 0.66529 0.30662 0.0
C615 C 0.93988 0.65748 0.26883 0.0
C616 C 0.93128 0.6559 0.24752 0.0
C617 C 0.95638 0.65886 0.30848 0.0
C618 C 0.96321 0.65237 0.2901 0.0
C619 C 0.95472 0.65136 0.27062 0.0
C620 C 0.97946 0.64776 0.29029 0.0
C621 C 0.96454 0.65928 0.33007 0.0
C622 C 0.99049 0.65931 0.29693 0.0
C623 C 0.00576 0.65582 0.29437 0.0
C624 C 0.01029 0.64076 0.28482 0.0
C625 C 0.99929 0.62895 0.27904 0.0
C626 C 0.98401 0.63244 0.28169 0.0
H627 H 0.95645 0.65918 0.34265 0.0
H628 H 0.9725 0.64886 0.33133 0.0
H629 H 0.97108 0.6706 0.33299 0.0
H630 H 0.98724 0.67133 0.30317 0.0
H631 H 0.01391 0.66522 0.29894 0.0
H632 H 0.21755 0.3819 0.47529 0.0
H633 H 0.19211 0.37273 0.48071 0.0
H634 H 0.21148 0.33386 0.51502 0.0
H635 H 0.23673 0.34316 0.51026 0.0
H636 H 0.18045 0.34514 0.46535 0.0
H637 H 0.17806 0.34782 0.55158 0.0
H638 H 0.19234 0.35826 0.53926 0.0
H639 H 0.19505 0.33732 0.54446 0.0
C640 C 0.21636 0.37162 0.48442 0.0
C641 C 0.22916 0.36322 0.4923 0.0
C642 C 0.20181 0.36641 0.4875 0.0
C643 C 0.19985 0.35276 0.49857 0.0
C644 C 0.21265 0.34471 0.50699 0.0
H645 H 0.14904 0.27131 0.47739 0.0
H646 H 0.16259 0.29604 0.47442 0.0
C647 C 0.22713 0.34996 0.50406 0.0
C648 C 0.18473 0.34556 0.49915 0.0
H649 H 0.16371 0.32584 0.53151 0.0
C650 C 0.17654 0.3413 0.4799 0.0
C651 C 0.17929 0.34094 0.51812 0.0
C652 C 0.18659 0.34652 0.53951 0.0
C653 C 0.16401 0.33117 0.47893 0.0
C654 C 0.15987 0.32477 0.49759 0.0
C655 C 0.16706 0.33041 0.51707 0.0
C656 C 0.1498 0.31067 0.49703 0.0
C657 C 0.1557 0.32698 0.45779 0.0
C658 C 0.13808 0.31053 0.51081 0.0
C659 C 0.13045 0.29622 0.51284 0.0
C660 C 0.13445 0.2818 0.50115 0.0
C661 C 0.14563 0.28219 0.48658 0.0
C662 C 0.15331 0.29643 0.48469 0.0
H663 H 0.15568 0.33733 0.44782 0.0
H664 H 0.16159 0.31671 0.44933 0.0
H665 H 0.14383 0.32357 0.4595 0.0
H666 H 0.13524 0.32134 0.52059 0.0
H667 H 0.12186 0.29631 0.52419 0.0
H668 H 0.78901 0.60879 0.76385 0.0
H669 H 0.81053 0.58993 0.76387 0.0
H670 H 0.81189 0.59134 0.69645 0.0
H671 H 0.79074 0.61052 0.69638 0.0
H672 H 0.80764 0.56078 0.74414 0.0
H673 H 0.85633 0.58963 0.71334 0.0
H674 H 0.84025 0.60112 0.72275 0.0
H675 H 0.83952 0.59135 0.69634 0.0
C676 C 0.7942 0.60549 0.74913 0.0
C677 C 0.78804 0.61102 0.73009 0.0
C678 C 0.8065 0.5947 0.74916 0.0
C679 C 0.81287 0.58922 0.73017 0.0
C680 C 0.80741 0.5956 0.71137 0.0
H681 H 0.84511 0.49236 0.70102 0.0
H682 H 0.83273 0.51891 0.70081 0.0
C683 C 0.7952 0.60652 0.71135 0.0
C684 C 0.82337 0.57505 0.72948 0.0
H685 H 0.85669 0.5604 0.71082 0.0
C686 C 0.81846 0.56081 0.73711 0.0
C687 C 0.83751 0.57505 0.72036 0.0
C688 C 0.84378 0.59017 0.71294 0.0
C689 C 0.82704 0.54649 0.73535 0.0
C690 C 0.84077 0.54624 0.7252 0.0
C691 C 0.846 0.56057 0.71822 0.0
C692 C 0.84973 0.5311 0.72203 0.0
C693 C 0.82131 0.5317 0.7444 0.0
C694 C 0.86383 0.52941 0.73301 0.0
C695 C 0.87102 0.51425 0.73303 0.0
C696 C 0.86416 0.50056 0.72213 0.0
C697 C 0.85062 0.50261 0.70978 0.0
C698 C 0.8435 0.51776 0.70969 0.0
H699 H 0.81281 0.53491 0.75617 0.0
H700 H 0.81585 0.52362 0.73144 0.0
H701 H 0.83074 0.52488 0.75208 0.0
H702 H 0.86885 0.5396 0.74253 0.0
H703 H 0.88148 0.51312 0.74262 0.0
H704 H 0.5197 0.16818 0.30569 0.0
H705 H 0.49283 0.17498 0.30157 0.0
H706 H 0.48697 0.13761 0.25051 0.0
H707 H 0.51392 0.13053 0.25468 0.0
H708 H 0.47776 0.18531 0.26488 0.0
H709 H 0.45271 0.12936 0.28904 0.0
H710 H 0.47234 0.13431 0.2951 0.0
H711 H 0.46599 0.12675 0.26882 0.0
C712 C 0.51271 0.16128 0.29369 0.0
C713 C 0.51897 0.14881 0.28051 0.0
C714 C 0.49735 0.16521 0.29135 0.0
C715 C 0.4879 0.15673 0.27584 0.0
C716 C 0.49403 0.14413 0.26279 0.0
H717 H 0.39902 0.20197 0.24779 0.0
H718 H 0.42216 0.18616 0.2413 0.0
C719 C 0.50944 0.14016 0.26515 0.0
C720 C 0.47181 0.16173 0.27294 0.0
H721 H 0.43577 0.15006 0.27921 0.0
C722 C 0.46855 0.17756 0.26776 0.0
C723 C 0.45986 0.15156 0.27677 0.0
C724 C 0.46281 0.13457 0.28289 0.0
C725 C 0.45371 0.18374 0.26706 0.0
C726 C 0.44175 0.17368 0.27124 0.0
C727 C 0.44495 0.15766 0.27577 0.0
C728 C 0.42626 0.18031 0.27369 0.0
C729 C 0.45108 0.20127 0.26301 0.0
C730 C 0.42043 0.18137 0.2937 0.0
C731 C 0.40721 0.19026 0.29741 0.0
C732 C 0.39956 0.19826 0.28117 0.0
C733 C 0.40471 0.19605 0.26068 0.0
C734 C 0.41797 0.1871 0.25697 0.0
H735 H 0.46181 0.20806 0.26388 0.0
H736 H 0.44552 0.20199 0.24698 0.0
H737 H 0.44355 0.20731 0.27462 0.0
H738 H 0.42659 0.17614 0.30679 0.0
H739 H 0.40346 0.19155 0.31333 0.0
H740 H 0.7252 0.84841 0.46461 0.0
H741 H 0.70447 0.83379 0.4772 0.0
H742 H 0.71119 0.85965 0.53866 0.0
H743 H 0.73197 0.87452 0.52615 0.0
H744 H 0.70895 0.81407 0.5113 0.0
H745 H 0.66459 0.86142 0.52538 0.0
H746 H 0.67986 0.86389 0.50853 0.0
H747 H 0.68331 0.86596 0.53671 0.0
C748 C 0.72215 0.85121 0.48072 0.0
C749 C 0.7303 0.86257 0.49442 0.0
C750 C 0.71029 0.84283 0.48788 0.0
C751 C 0.70628 0.84569 0.50881 0.0
C752 C 0.71399 0.85744 0.52236 0.0
H753 H 0.6561 0.77451 0.56863 0.0
H754 H 0.67419 0.79528 0.56271 0.0
C755 C 0.72589 0.86588 0.51519 0.0
C756 C 0.69495 0.8353 0.51674 0.0
H757 H 0.65956 0.83521 0.53487 0.0
C758 C 0.69818 0.81869 0.51656 0.0
C759 C 0.68093 0.84142 0.5235 0.0
C760 C 0.67683 0.85913 0.52346 0.0
C761 C 0.68765 0.80793 0.52269 0.0
C762 C 0.67362 0.81402 0.52947 0.0
C763 C 0.67042 0.83066 0.52985 0.0
C764 C 0.66181 0.80301 0.53481 0.0
C765 C 0.69143 0.79008 0.52119 0.0
C766 C 0.64864 0.80094 0.5215 0.0
C767 C 0.63829 0.78911 0.52482 0.0
C768 C 0.64093 0.77918 0.54157 0.0
C769 C 0.65378 0.78187 0.55551 0.0
C770 C 0.66414 0.79371 0.55215 0.0
H771 H 0.70145 0.78713 0.51189 0.0
H772 H 0.69396 0.78618 0.53731 0.0
H773 H 0.68171 0.78298 0.51378 0.0
H774 H 0.64665 0.80804 0.50805 0.0
H775 H 0.62845 0.78743 0.51388 0.0
H776 H 0.29374 0.11419 0.70806 0.0
H777 H 0.31643 0.09706 0.70415 0.0
H778 H 0.29674 0.06112 0.7386 0.0
H779 H 0.27424 0.07813 0.74281 0.0
H780 H 0.32773 0.06615 0.74942 0.0
H781 H 0.31508 0.05606 0.66244 0.0
H782 H 0.31699 0.07664 0.67349 0.0
H783 H 0.30139 0.06494 0.67992 0.0
C784 C 0.29437 0.10276 0.71511 0.0
C785 C 0.28212 0.09743 0.72555 0.0
C786 C 0.30728 0.09295 0.71273 0.0
C787 C 0.30812 0.07771 0.72076 0.0
C788 C 0.29628 0.07281 0.7322 0.0
H789 H 0.34256 0.98492 0.69601 0.0
H790 H 0.33013 0.01134 0.69535 0.0
C791 C 0.28341 0.08255 0.73455 0.0
C792 C 0.32079 0.06626 0.71643 0.0
H793 H 0.33465 0.04047 0.67738 0.0
C794 C 0.32949 0.06074 0.73364 0.0
C795 C 0.32292 0.05918 0.6958 0.0
C796 C 0.31358 0.06437 0.6768 0.0
C797 C 0.33974 0.04774 0.73095 0.0
C798 C 0.3415 0.04027 0.7104 0.0
C799 C 0.33334 0.04633 0.69306 0.0
C800 C 0.35001 0.02482 0.7071 0.0
C801 C 0.34782 0.04143 0.75028 0.0
C802 C 0.36552 0.02369 0.71288 0.0
C803 C 0.37269 0.00854 0.71337 0.0
C804 C 0.36443 0.99431 0.70801 0.0
C805 C 0.34923 0.99561 0.70045 0.0
C806 C 0.34209 0.01072 0.70002 0.0
H807 H 0.34332 0.04692 0.76517 0.0
H808 H 0.3468 0.02809 0.74984 0.0
H809 H 0.36001 0.04428 0.75062 0.0
H810 H 0.3719 0.03447 0.71799 0.0
H811 H 0.38445 0.00798 0.7191 0.0
H812 H 0.00057 0.39259 0.99146 0.0
H813 H 0.02319 0.40755 0.9863 0.0
H814 H 0.00999 0.44522 0.03268 0.0
H815 H 0.98694 0.43058 0.03733 0.0
H816 H 0.01597 0.45736 0.99747 0.0
H817 H 0.06286 0.41553 0.01853 0.0
H818 H 0.04956 0.4063 0.99893 0.0
H819 H 0.04368 0.41244 0.02499 0.0
C820 C 0.00262 0.40389 0.00094 0.0
C821 C 0.99192 0.41045 0.01476 0.0
C822 C 0.01565 0.41239 0.99804 0.0
C823 C 0.01839 0.42744 0.00925 0.0
C824 C 0.0081 0.43362 0.02387 0.0
H825 H 0.09715 0.48643 0.01335 0.0
H826 H 0.07865 0.46605 0.01823 0.0
C827 C 0.99495 0.42523 0.02656 0.0
C828 C 0.03106 0.43751 0.0041 0.0
H829 H 0.06918 0.43764 0.99913 0.0
C830 C 0.02762 0.45307 0.99798 0.0
C831 C 0.04626 0.43193 0.0048 0.0
C832 C 0.05084 0.4157 0.01238 0.0
C833 C 0.03891 0.46324 0.9926 0.0
C834 C 0.05405 0.45747 0.99257 0.0
C835 C 0.05753 0.44192 0.99875 0.0
C836 C 0.06653 0.46796 0.9879 0.0
C837 C 0.03454 0.48025 0.98766 0.0
C838 C 0.06632 0.47525 0.96875 0.0
C839 C 0.0768 0.48713 0.96599 0.0
C840 C 0.08779 0.4917 0.98221 0.0
C841 C 0.08875 0.48334 0.00059 0.0
C842 C 0.07818 0.47163 0.00342 0.0
H843 H 0.0234 0.484 0.99363 0.0
H844 H 0.04312 0.48904 0.99469 0.0
H845 H 0.03371 0.4809 0.97029 0.0
H846 H 0.05767 0.47222 0.9563 0.0
H847 H 0.07588 0.4932 0.95154 0.0
H848 H 0.51947 0.38087 0.46505 0.0
H849 H 0.54143 0.39731 0.46084 0.0
H850 H 0.52911 0.43019 0.51327 0.0
H851 H 0.50725 0.41375 0.51778 0.0
H852 H 0.53793 0.42832 0.45037 0.0
H853 H 0.57473 0.42701 0.52379 0.0
H854 H 0.56036 0.41212 0.51625 0.0
H855 H 0.55541 0.43146 0.52917 0.0
C856 C 0.52165 0.39136 0.47607 0.0
C857 C 0.51152 0.3961 0.49163 0.0
C858 C 0.53421 0.40074 0.47362 0.0
C859 C 0.53694 0.41492 0.48678 0.0
C860 C 0.52739 0.41913 0.50318 0.0
H861 H 0.56567 0.50769 0.46938 0.0
H862 H 0.55325 0.48165 0.46802 0.0
C863 C 0.51483 0.40975 0.50566 0.0
C864 C 0.54837 0.42649 0.48166 0.0
H865 H 0.57707 0.45029 0.50383 0.0
C866 C 0.5467 0.43288 0.4619 0.0
C867 C 0.55992 0.4323 0.49658 0.0
C868 C 0.56282 0.42523 0.51755 0.0
C869 C 0.55564 0.44567 0.45719 0.0
C870 C 0.56635 0.45234 0.47276 0.0
C871 C 0.56872 0.44525 0.49198 0.0
C872 C 0.57406 0.46764 0.47038 0.0
C873 C 0.55324 0.45224 0.43583 0.0
C874 C 0.58988 0.46837 0.47189 0.0
C875 C 0.59704 0.48328 0.47264 0.0
C876 C 0.58844 0.4977 0.47224 0.0
C877 C 0.57261 0.49682 0.46973 0.0
C878 C 0.56549 0.48193 0.46884 0.0
H879 H 0.54845 0.44294 0.42377 0.0
H880 H 0.5451 0.46256 0.43689 0.0
H881 H 0.56398 0.45659 0.43046 0.0
H882 H 0.59667 0.45746 0.4732 0.0
H883 H 0.60926 0.48355 0.47466 0.0
H884 H 0.11502 0.80057 0.02187 0.0
H885 H 0.12573 0.82653 0.01542 0.0
H886 H 0.15919 0.80141 0.97816 0.0
H887 H 0.14835 0.77568 0.98392 0.0
H888 H 0.15263 0.83634 0.02895 0.0
H889 H 0.14932 0.83779 0.94277 0.0
H890 H 0.13832 0.82389 0.95559 0.0
H891 H 0.15742 0.81873 0.949 0.0
C892 C 0.12441 0.80063 0.01183 0.0
C893 C 0.13088 0.78605 0.00349 0.0
C894 C 0.13051 0.81548 0.00818 0.0
C895 C 0.14314 0.81598 0.99605 0.0
C896 C 0.14918 0.80144 0.98703 0.0
H897 H 0.2249 0.8598 0.01343 0.0
H898 H 0.20017 0.849 0.01777 0.0
C899 C 0.14305 0.78666 0.99054 0.0
C900 C 0.1514 0.83123 0.99508 0.0
H901 H 0.17193 0.85042 0.96162 0.0
C902 C 0.1565 0.83974 0.01415 0.0
C903 C 0.15612 0.8361 0.97583 0.0
C904 C 0.14982 0.82873 0.95467 0.0
C905 C 0.16743 0.85176 0.01461 0.0
C906 C 0.17374 0.85496 0.99558 0.0
C907 C 0.16742 0.84773 0.97633 0.0
C908 C 0.18815 0.86372 0.99541 0.0
C909 C 0.17248 0.86045 0.03559 0.0
C910 C 0.18977 0.8756 0.98131 0.0
C911 C 0.20407 0.88159 0.97845 0.0
C912 C 0.21698 0.87578 0.98965 0.0
C913 C 0.2152 0.86458 0.0046 0.0
C914 C 0.20097 0.8585 0.00728 0.0
H915 H 0.16288 0.86211 0.04597 0.0
H916 H 0.18123 0.85302 0.04371 0.0
H917 H 0.17723 0.87247 0.03369 0.0
H918 H 0.18007 0.87976 0.9719 0.0
H919 H 0.20507 0.89025 0.96685 0.0
H920 H 0.35662 0.49212 0.19967 0.0
H921 H 0.34619 0.5191 0.19397 0.0
H922 H 0.35044 0.53208 0.26112 0.0
H923 H 0.36099 0.50543 0.2669 0.0
H924 H 0.31967 0.52938 0.20972 0.0
H925 H 0.36392 0.5732 0.23862 0.0
H926 H 0.3681 0.55204 0.2321 0.0
H927 H 0.36139 0.55882 0.25751 0.0
C928 C 0.35571 0.50089 0.21314 0.0
C929 C 0.3595 0.49661 0.23375 0.0
C930 C 0.34976 0.51629 0.20986 0.0
C931 C 0.34769 0.52768 0.2271 0.0
C932 C 0.35224 0.52367 0.24754 0.0
H933 H 0.27751 0.59346 0.25657 0.0
H934 H 0.2975 0.57287 0.25382 0.0
C935 C 0.35813 0.50832 0.25083 0.0
C936 C 0.33875 0.54271 0.22434 0.0
H937 H 0.33794 0.58318 0.23955 0.0
C938 C 0.3238 0.54119 0.21579 0.0
C939 C 0.34413 0.55815 0.23219 0.0
C940 C 0.36032 0.56068 0.24041 0.0
C941 C 0.31382 0.55449 0.21613 0.0
C942 C 0.31889 0.56964 0.22541 0.0
C943 C 0.33407 0.57145 0.23274 0.0
C944 C 0.30818 0.58333 0.22874 0.0
C945 C 0.29773 0.55215 0.20722 0.0
C946 C 0.30797 0.59632 0.21603 0.0
C947 C 0.29652 0.60814 0.21752 0.0
C948 C 0.28518 0.60713 0.2318 0.0
C949 C 0.28601 0.59457 0.24534 0.0
C950 C 0.2974 0.58278 0.24378 0.0
H951 H 0.29648 0.54081 0.19671 0.0
H952 H 0.29024 0.55153 0.22042 0.0
H953 H 0.29384 0.5625 0.1982 0.0
H954 H 0.31626 0.59692 0.20436 0.0
H955 H 0.29623 0.61768 0.2069 0.0
H956 H 0.51388 0.66571 0.81648 0.0
H957 H 0.48672 0.67012 0.81924 0.0
H958 H 0.47767 0.63262 0.76908 0.0
H959 H 0.50476 0.62784 0.76659 0.0
H960 H 0.469 0.68067 0.78729 0.0
H961 H 0.44633 0.62324 0.80964 0.0
H962 H 0.46623 0.62776 0.81244 0.0
H963 H 0.45754 0.62071 0.78709 0.0
C964 C 0.50612 0.65812 0.8064 0.0
C965 C 0.51149 0.64651 0.79122 0.0
C966 C 0.4906 0.66066 0.80798 0.0
C967 C 0.48015 0.65165 0.79443 0.0
C968 C 0.48548 0.6395 0.77999 0.0
H969 H 0.39184 0.69377 0.76208 0.0
H970 H 0.41572 0.67874 0.7588 0.0
C971 C 0.50101 0.63686 0.77851 0.0
C972 C 0.46392 0.65638 0.79365 0.0
H973 H 0.42822 0.64258 0.79742 0.0
C974 C 0.46009 0.67234 0.78958 0.0
C975 C 0.45232 0.64549 0.79663 0.0
C976 C 0.45579 0.62838 0.80189 0.0
C977 C 0.44504 0.67779 0.78852 0.0
C978 C 0.43339 0.66683 0.791 0.0
C979 C 0.43717 0.65085 0.79512 0.0
C980 C 0.41739 0.67232 0.79112 0.0
C981 C 0.4418 0.69539 0.78542 0.0
C982 C 0.40989 0.67258 0.80984 0.0
C983 C 0.39617 0.68097 0.81169 0.0
C984 C 0.38978 0.68932 0.79486 0.0
C985 C 0.39656 0.68765 0.77542 0.0
C986 C 0.41024 0.67914 0.77356 0.0
H987 H 0.4521 0.70285 0.7886 0.0
H988 H 0.43755 0.69655 0.76882 0.0
H989 H 0.43304 0.7004 0.79593 0.0
H990 H 0.41515 0.66726 0.82352 0.0
H991 H 0.39116 0.68183 0.82681 0.0
H992 H 0.13829 0.19237 0.48301 0.0
H993 H 0.13052 0.16539 0.46888 0.0
H994 H 0.08374 0.17944 0.47424 0.0
H995 H 0.09144 0.20646 0.48876 0.0
H996 H 0.09193 0.15351 0.49575 0.0
H997 H 0.11113 0.14335 0.41474 0.0
H998 H 0.12582 0.15109 0.43339 0.0
H999 H 0.10923 0.16331 0.42808 0.0
C1000 C 0.12632 0.18988 0.48069 0.0
C1001 C 0.11549 0.20152 0.48724 0.0
C1002 C 0.12189 0.17446 0.4724 0.0
C1003 C 0.10654 0.17042 0.47031 0.0
C1004 C 0.09565 0.18233 0.47561 0.0
H1005 H 0.06996 0.07307 0.4672 0.0
H1006 H 0.07127 0.10164 0.46088 0.0
C1007 C 0.10007 0.19777 0.48392 0.0
C1008 C 0.10213 0.15327 0.46597 0.0
H1009 H 0.10702 0.1194 0.43259 0.0
C1010 C 0.09492 0.14612 0.48171 0.0
C1011 C 0.10619 0.14363 0.44776 0.0
C1012 C 0.1134 0.15078 0.42994 0.0
C1013 C 0.09236 0.12946 0.48031 0.0
C1014 C 0.09682 0.1197 0.46239 0.0
C1015 C 0.10357 0.12691 0.44626 0.0
C1016 C 0.09568 0.10187 0.46123 0.0
C1017 C 0.0857 0.12235 0.49864 0.0
C1018 C 0.1089 0.09231 0.46202 0.0
C1019 C 0.10819 0.07593 0.46536 0.0
C1020 C 0.09423 0.0689 0.46809 0.0
C1021 C 0.0809 0.07819 0.46545 0.0
C1022 C 0.08163 0.09453 0.4619 0.0
H1023 H 0.08588 0.13098 0.51298 0.0
H1024 H 0.07376 0.11912 0.49422 0.0
H1025 H 0.09196 0.11119 0.50269 0.0
H1026 H 0.11986 0.09774 0.46142 0.0
H1027 H 0.11866 0.0691 0.46723 0.0
H1028 H 0.90283 0.40245 0.70841 0.0
H1029 H 0.90234 0.37293 0.70567 0.0
H1030 H 0.8536 0.37457 0.69986 0.0
H1031 H 0.85399 0.40398 0.70208 0.0
H1032 H 0.8903 0.35754 0.73556 0.0
H1033 H 0.86192 0.33654 0.65848 0.0
H1034 H 0.86944 0.35664 0.66382 0.0
H1035 H 0.85113 0.35206 0.67227 0.0
C1036 C 0.89202 0.39653 0.70587 0.0
C1037 C 0.87845 0.40561 0.70566 0.0
C1038 C 0.89175 0.37963 0.70432 0.0
C1039 C 0.87794 0.37149 0.70246 0.0
C1040 C 0.86441 0.38051 0.70082 0.0
H1041 H 0.84254 0.28403 0.73763 0.0
H1042 H 0.84734 0.30947 0.72274 0.0
C1043 C 0.86466 0.39739 0.70224 0.0
C1044 C 0.87756 0.35398 0.70558 0.0
H1045 H 0.86169 0.31817 0.68599 0.0
C1046 C 0.88432 0.34886 0.72449 0.0
C1047 C 0.86963 0.34268 0.69124 0.0
C1048 C 0.86275 0.34723 0.67023 0.0
C1049 C 0.88279 0.33299 0.72994 0.0
C1050 C 0.87447 0.32182 0.71591 0.0
C1051 C 0.86807 0.32676 0.6967 0.0
C1052 C 0.87146 0.30536 0.7218 0.0
C1053 C 0.88946 0.32854 0.75116 0.0
C1054 C 0.88336 0.29435 0.72548 0.0
C1055 C 0.88068 0.27981 0.7341 0.0
C1056 C 0.86602 0.27601 0.7391 0.0
C1057 C 0.85398 0.28661 0.73411 0.0
C1058 C 0.85669 0.30115 0.72554 0.0
H1059 H 0.8929 0.33936 0.76174 0.0
H1060 H 0.88124 0.32166 0.75916 0.0
H1061 H 0.89964 0.32077 0.74884 0.0
H1062 H 0.89482 0.29727 0.72239 0.0
H1063 H 0.89019 0.27186 0.73757 0.0
H1064 H 0.61739 0.08323 0.97396 0.0
H1065 H 0.61376 0.11252 0.97428 0.0
H1066 H 0.56669 0.10753 0.98536 0.0
H1067 H 0.57029 0.07827 0.98561 0.0
H1068 H 0.59466 0.13438 0.95321 0.0
H1069 H 0.5833 0.13458 0.03808 0.0
H1070 H 0.59055 0.11698 0.02322 0.0
H1071 H 0.57079 0.12226 0.02045 0.0
C1072 C 0.60618 0.08831 0.97601 0.0
C1073 C 0.59418 0.07846 0.98012 0.0
C1074 C 0.60413 0.10507 0.97619 0.0
C1075 C 0.59005 0.11221 0.98035 0.0
C1076 C 0.57774 0.10228 0.98262 0.0
H1077 H 0.56755 0.21204 0.02114 0.0
H1078 H 0.56529 0.18413 0.00577 0.0
C1079 C 0.57981 0.08555 0.98266 0.0
C1080 C 0.58865 0.13002 0.98443 0.0
H1081 H 0.58199 0.15962 0.02343 0.0
C1082 C 0.5918 0.13993 0.9685 0.0
C1083 C 0.58503 0.13721 0.00447 0.0
C1084 C 0.58235 0.12725 0.02262 0.0
C1085 C 0.59139 0.15688 0.9721 0.0
C1086 C 0.58791 0.16402 0.9922 0.0
C1087 C 0.58452 0.1541 0.00796 0.0
C1088 C 0.58864 0.18169 0.99794 0.0
C1089 C 0.59467 0.16699 0.9544 0.0
C1090 C 0.60246 0.18968 0.99826 0.0
C1091 C 0.60381 0.20563 0.00708 0.0
C1092 C 0.59138 0.21385 0.01589 0.0
C1093 C 0.57736 0.20607 0.01456 0.0
C1094 C 0.57603 0.19011 0.00576 0.0
H1095 H 0.59277 0.16012 0.93872 0.0
H1096 H 0.58751 0.17812 0.95473 0.0
H1097 H 0.60668 0.17063 0.95626 0.0
H1098 H 0.61241 0.18333 0.99272 0.0
H1099 H 0.61477 0.21125 0.00785 0.0
H1100 H 0.86843 0.76435 0.232 0.0
H1101 H 0.87304 0.78796 0.21262 0.0
H1102 H 0.86434 0.81951 0.268 0.0
H1103 H 0.86003 0.79621 0.28744 0.0
H1104 H 0.85521 0.81476 0.20334 0.0
H1105 H 0.9058 0.83378 0.25386 0.0
H1106 H 0.89769 0.81403 0.25414 0.0
H1107 H 0.89005 0.83117 0.26946 0.0
C1108 C 0.86749 0.77634 0.23999 0.0
C1109 C 0.86406 0.7784 0.26133 0.0
C1110 C 0.87013 0.78979 0.22891 0.0
C1111 C 0.8694 0.80546 0.23904 0.0
C1112 C 0.8654 0.80751 0.26005 0.0
H1113 H 0.85046 0.89932 0.20774 0.0
H1114 H 0.85055 0.87016 0.20864 0.0
C1115 C 0.86286 0.79415 0.27112 0.0
C1116 C 0.87273 0.81986 0.22796 0.0
H1117 H 0.89291 0.85459 0.23501 0.0
C1118 C 0.86365 0.82336 0.20997 0.0
C1119 C 0.88406 0.83085 0.23618 0.0
C1120 C 0.89506 0.82718 0.25433 0.0
C1121 C 0.86481 0.83817 0.20103 0.0
C1122 C 0.87504 0.84988 0.21069 0.0
C1123 C 0.88491 0.84578 0.22766 0.0
C1124 C 0.87462 0.867 0.20536 0.0
C1125 C 0.85487 0.84115 0.18155 0.0
C1126 C 0.88809 0.87511 0.20295 0.0
C1127 C 0.88812 0.89196 0.20294 0.0
C1128 C 0.87467 0.90101 0.2052 0.0
C1129 C 0.86103 0.89275 0.20586 0.0
C1130 C 0.86104 0.87596 0.2062 0.0
H1131 H 0.85285 0.82971 0.17148 0.0
H1132 H 0.84371 0.84591 0.18635 0.0
H1133 H 0.85992 0.84999 0.17202 0.0
H1134 H 0.89872 0.86849 0.20229 0.0
H1135 H 0.89881 0.89795 0.20232 0.0
H1136 H 0.20996 0.10799 0.74828 0.0
H1137 H 0.18597 0.10811 0.76504 0.0
H1138 H 0.19836 0.15197 0.80282 0.0
H1139 H 0.2225 0.15198 0.78608 0.0
H1140 H 0.17758 0.11091 0.81035 0.0
H1141 H 0.15964 0.16276 0.76381 0.0
H1142 H 0.17566 0.15001 0.75726 0.0
H1143 H 0.17706 0.16436 0.77998 0.0
C1144 C 0.20774 0.11751 0.76045 0.0
C1145 C 0.21806 0.13009 0.76567 0.0
C1146 C 0.19405 0.11751 0.77007 0.0
C1147 C 0.19036 0.13013 0.78498 0.0
C1148 C 0.201 0.14218 0.79123 0.0
H1149 H 0.09552 0.15191 0.80601 0.0
H1150 H 0.12299 0.15325 0.81245 0.0
C1151 C 0.21479 0.14214 0.7817 0.0
C1152 C 0.17475 0.13147 0.79195 0.0
H1153 H 0.14118 0.15091 0.78166 0.0
C1154 C 0.16964 0.11982 0.80442 0.0
C1155 C 0.16447 0.14315 0.78425 0.0
C1156 C 0.16936 0.15577 0.77049 0.0
C1157 C 0.15434 0.11922 0.80884 0.0
C1158 C 0.14386 0.13029 0.80002 0.0
C1159 C 0.14918 0.14243 0.78846 0.0
C1160 C 0.12723 0.12852 0.8004 0.0
C1161 C 0.14957 0.10662 0.82268 0.0
C1162 C 0.12039 0.11404 0.79207 0.0
C1163 C 0.1047 0.11319 0.78857 0.0
C1164 C 0.0955 0.1269 0.79295 0.0
C1165 C 0.10228 0.14113 0.8024 0.0
C1166 C 0.11799 0.14193 0.80608 0.0
H1167 H 0.15888 0.10375 0.83438 0.0
H1168 H 0.13948 0.11065 0.83126 0.0
H1169 H 0.14683 0.09531 0.81271 0.0
H1170 H 0.12722 0.10365 0.78701 0.0
H1171 H 0.09988 0.10205 0.78121 0.0
H1172 H 0.79513 0.34364 0.01476 0.0
H1173 H 0.82052 0.34855 0.03115 0.0
H1174 H 0.8171 0.3982 0.01605 0.0
H1175 H 0.79168 0.3935 0.0 0.0
H1176 H 0.84284 0.35662 0.00753 0.0
H1177 H 0.83861 0.40328 0.0742 0.0
H1178 H 0.82252 0.3918 0.06289 0.0
H1179 H 0.82854 0.40913 0.05063 0.0
C1180 C 0.7996 0.35573 0.01546 0.0
C1181 C 0.79142 0.36814 0.00588 0.0
C1182 C 0.81413 0.35851 0.02486 0.0
C1183 C 0.8207 0.37377 0.02499 0.0
C1184 C 0.81218 0.38642 0.01659 0.0
H1185 H 0.90546 0.41574 0.01859 0.0
H1186 H 0.87941 0.40993 0.02516 0.0
C1187 C 0.79765 0.38367 0.00724 0.0
C1188 C 0.8371 0.37582 0.03064 0.0
H1189 H 0.86281 0.40079 0.05852 0.0
C1190 C 0.84723 0.36603 0.01905 0.0
C1191 C 0.8428 0.38818 0.04555 0.0
C1192 C 0.83254 0.39859 0.05917 0.0
C1193 C 0.86282 0.36884 0.021 0.0
C1194 C 0.8685 0.3816 0.03534 0.0
C1195 C 0.85844 0.39099 0.0476 0.0
C1196 C 0.88457 0.38631 0.03597 0.0
C1197 C 0.87294 0.35875 0.0067 0.0
C1198 C 0.89624 0.37534 0.04099 0.0
C1199 C 0.91117 0.37856 0.03706 0.0
C1200 C 0.91467 0.39288 0.02822 0.0
C1201 C 0.90315 0.40452 0.0252 0.0
C1202 C 0.88823 0.40124 0.029 0.0
H1203 H 0.86638 0.35163 0.99375 0.0
H1204 H 0.88092 0.36651 0.99957 0.0
H1205 H 0.87966 0.35014 0.01608 0.0
H1206 H 0.89368 0.36389 0.04683 0.0
H1207 H 0.9198 0.36941 0.0398 0.0
H1208 H 0.71336 0.15329 0.24886 0.0
H1209 H 0.68896 0.15014 0.26379 0.0
H1210 H 0.68146 0.10623 0.22356 0.0
H1211 H 0.70583 0.10924 0.20849 0.0
H1212 H 0.65662 0.12946 0.22336 0.0
H1213 H 0.67769 0.11607 0.30428 0.0
H1214 H 0.68554 0.13367 0.29478 0.0
H1215 H 0.68948 0.11402 0.2821 0.0
C1216 C 0.7066 0.14287 0.24332 0.0
C1217 C 0.71158 0.1315 0.22751 0.0
C1218 C 0.69267 0.14108 0.2519 0.0
C1219 C 0.68347 0.1279 0.24485 0.0
C1220 C 0.68843 0.11647 0.22922 0.0
H1221 H 0.60415 0.09926 0.30517 0.0
H1222 H 0.62793 0.09949 0.28751 0.0
C1223 C 0.70239 0.11819 0.22071 0.0
C1224 C 0.66847 0.1263 0.25339 0.0
H1225 H 0.65136 0.12099 0.29871 0.0
C1226 C 0.65544 0.12753 0.2398 0.0
C1227 C 0.66701 0.12365 0.27479 0.0
C1228 C 0.68065 0.12163 0.28985 0.0
C1229 C 0.64093 0.12651 0.24719 0.0
C1230 C 0.63947 0.12431 0.26874 0.0
C1231 C 0.65252 0.12275 0.2822 0.0
C1232 C 0.62453 0.12372 0.27778 0.0
C1233 C 0.62729 0.12767 0.23187 0.0
C1234 C 0.61477 0.13726 0.27818 0.0
C1235 C 0.60122 0.13709 0.28822 0.0
C1236 C 0.59719 0.12338 0.29784 0.0
C1237 C 0.60693 0.10985 0.29746 0.0
C1238 C 0.62048 0.11 0.28744 0.0
H1239 H 0.6303 0.12525 0.21522 0.0
H1240 H 0.61847 0.11902 0.23502 0.0
H1241 H 0.62236 0.14006 0.23376 0.0
H1242 H 0.61788 0.14815 0.2714 0.0
H1243 H 0.59425 0.14794 0.28938 0.0
H1244 H 0.91412 0.90428 0.52875 0.0
H1245 H 0.88828 0.90405 0.5392 0.0
H1246 H 0.89861 0.86182 0.57284 0.0
H1247 H 0.92455 0.86174 0.56199 0.0
H1248 H 0.87736 0.85613 0.54202 0.0
H1249 H 0.86154 0.91261 0.58744 0.0
H1250 H 0.8714 0.91709 0.56501 0.0
H1251 H 0.88102 0.90616 0.58536 0.0
C1252 C 0.91109 0.89526 0.539 0.0
C1253 C 0.92131 0.88281 0.54415 0.0
C1254 C 0.89628 0.89525 0.54519 0.0
C1255 C 0.89147 0.88294 0.55687 0.0
C1256 C 0.90209 0.87146 0.56387 0.0
H1257 H 0.79709 0.85179 0.53402 0.0
H1258 H 0.8212 0.85545 0.55486 0.0
C1259 C 0.91693 0.87144 0.55763 0.0
C1260 C 0.87505 0.88008 0.55742 0.0
H1261 H 0.84136 0.89997 0.56354 0.0
C1262 C 0.86947 0.8655 0.54738 0.0
C1263 C 0.86477 0.89234 0.56432 0.0
C1264 C 0.87003 0.90785 0.57633 0.0
C1265 C 0.85398 0.86341 0.54227 0.0
C1266 C 0.84376 0.87614 0.54779 0.0
C1267 C 0.84922 0.89025 0.55927 0.0
C1268 C 0.8279 0.8759 0.5389 0.0
C1269 C 0.84888 0.84813 0.5294 0.0
C1270 C 0.82332 0.88677 0.52396 0.0
C1271 C 0.80954 0.88482 0.51219 0.0
C1272 C 0.80011 0.87188 0.51509 0.0
C1273 C 0.8042 0.86174 0.53121 0.0
C1274 C 0.81797 0.86379 0.54311 0.0
H1275 H 0.85853 0.84065 0.52363 0.0
H1276 H 0.8424 0.84073 0.53928 0.0
H1277 H 0.84136 0.85105 0.51554 0.0
H1278 H 0.8308 0.89622 0.52051 0.0
H1279 H 0.80669 0.89295 0.50005 0.0
H1280 H 0.54389 0.09091 0.20539 0.0
H1281 H 0.55283 0.07823 0.17236 0.0
H1282 H 0.59894 0.08725 0.19556 0.0
H1283 H 0.59016 0.09982 0.22875 0.0
H1284 H 0.56904 0.09524 0.14592 0.0
H1285 H 0.60097 0.04054 0.16865 0.0
H1286 H 0.58749 0.05096 0.18525 0.0
H1287 H 0.60619 0.05877 0.18449 0.0
C1288 C 0.55596 0.08989 0.20368 0.0
C1289 C 0.56631 0.09644 0.21967 0.0
C1290 C 0.56103 0.08265 0.18478 0.0
C1291 C 0.57653 0.08172 0.18157 0.0
C1292 C 0.58694 0.08759 0.19785 0.0
H1293 H 0.6193 0.07942 0.06355 0.0
H1294 H 0.61017 0.08593 0.09872 0.0
C1295 C 0.58188 0.09483 0.21679 0.0
C1296 C 0.58168 0.07624 0.16045 0.0
H1297 H 0.60447 0.0488 0.1343 0.0
C1298 C 0.5767 0.08501 0.14335 0.0
C1299 C 0.59159 0.06284 0.15715 0.0
C1300 C 0.59679 0.05262 0.1748 0.0
C1301 C 0.58163 0.08097 0.12308 0.0
C1302 C 0.59196 0.06795 0.11992 0.0
C1303 C 0.59667 0.0589 0.13688 0.0
C1304 C 0.59802 0.06364 0.09906 0.0
C1305 C 0.57569 0.09063 0.10518 0.0
C1306 C 0.59447 0.04879 0.08786 0.0
C1307 C 0.59966 0.04501 0.06774 0.0
C1308 C 0.60859 0.056 0.05859 0.0
C1309 C 0.61239 0.07072 0.0701 0.0
C1310 C 0.60716 0.07449 0.09017 0.0
H1311 H 0.56527 0.0976 0.10909 0.0
H1312 H 0.5844 0.09933 0.1019 0.0
H1313 H 0.57319 0.08261 0.09055 0.0
H1314 H 0.58746 0.04025 0.09452 0.0
H1315 H 0.59658 0.03354 0.05933 0.0
H1316 H 0.81825 0.71841 0.32574 0.0
H1317 H 0.81428 0.74052 0.35307 0.0
H1318 H 0.83075 0.77456 0.31276 0.0
H1319 H 0.83436 0.75246 0.28527 0.0
H1320 H 0.83525 0.7647 0.37381 0.0
H1321 H 0.78725 0.79059 0.3262 0.0
H1322 H 0.79444 0.77031 0.32046 0.0
H1323 H 0.80458 0.78728 0.31322 0.0
C1324 C 0.82115 0.73061 0.32287 0.0
C1325 C 0.8269 0.73381 0.30367 0.0
C1326 C 0.81894 0.74318 0.33846 0.0
C1327 C 0.82219 0.75915 0.33488 0.0
C1328 C 0.82815 0.76231 0.3158 0.0
H1329 H 0.81976 0.84456 0.42506 0.0
H1330 H 0.82815 0.82239 0.40051 0.0
C1331 C 0.8304 0.74972 0.30026 0.0
C1332 C 0.81855 0.77255 0.35065 0.0
H1333 H 0.79455 0.80478 0.3588 0.0
C1334 C 0.82645 0.77357 0.37054 0.0
C1335 C 0.80687 0.78388 0.34636 0.0
C1336 C 0.79768 0.78298 0.32548 0.0
C1337 C 0.82305 0.78576 0.38628 0.0
C1338 C 0.8114 0.79713 0.38194 0.0
C1339 C 0.8035 0.79606 0.36205 0.0
C1340 C 0.8068 0.80998 0.39795 0.0
C1341 C 0.83171 0.78618 0.40752 0.0
C1342 C 0.792 0.81039 0.40455 0.0
C1343 C 0.78715 0.82305 0.41848 0.0
C1344 C 0.79699 0.83563 0.42599 0.0
C1345 C 0.81191 0.83504 0.41962 0.0
C1346 C 0.81676 0.82234 0.40568 0.0
H1347 H 0.83787 0.77461 0.40984 0.0
H1348 H 0.84015 0.79596 0.40865 0.0
H1349 H 0.82402 0.78875 0.4205 0.0
H1350 H 0.78413 0.80098 0.3987 0.0
H1351 H 0.77559 0.82311 0.42305 0.0
H1352 H 0.24121 0.16569 0.6679 0.0
H1353 H 0.22926 0.18449 0.64411 0.0
H1354 H 0.19921 0.20153 0.69204 0.0
H1355 H 0.21089 0.18258 0.71576 0.0
H1356 H 0.18431 0.18986 0.65543 0.0
H1357 H 0.22782 0.23307 0.6382 0.0
H1358 H 0.23379 0.21227 0.63482 0.0
H1359 H 0.22981 0.22111 0.66067 0.0
C1360 C 0.23236 0.17378 0.67361 0.0
C1361 C 0.22688 0.17253 0.69363 0.0
C1362 C 0.22558 0.18458 0.66 0.0
C1363 C 0.21337 0.19445 0.66632 0.0
C1364 C 0.20862 0.19402 0.68685 0.0
H1365 H 0.15756 0.26105 0.59522 0.0
H1366 H 0.17598 0.2494 0.62025 0.0
C1367 C 0.21531 0.18318 0.70039 0.0
C1368 C 0.20414 0.20334 0.6507 0.0
H1369 H 0.20535 0.23177 0.61507 0.0
C1370 C 0.1889 0.19912 0.64676 0.0
C1371 C 0.21013 0.21543 0.63941 0.0
C1372 C 0.22625 0.22087 0.64359 0.0
C1373 C 0.17955 0.20643 0.63161 0.0
C1374 C 0.18565 0.21811 0.61981 0.0
C1375 C 0.20079 0.22264 0.624 0.0
C1376 C 0.17625 0.22574 0.60323 0.0
C1377 C 0.16316 0.20166 0.62841 0.0
C1378 C 0.1707 0.2164 0.58508 0.0
C1379 C 0.16016 0.22297 0.57079 0.0
C1380 C 0.155 0.23903 0.57441 0.0
C1381 C 0.16122 0.24862 0.59203 0.0
C1382 C 0.17179 0.24201 0.60632 0.0
H1383 H 0.15949 0.19524 0.64177 0.0
H1384 H 0.15573 0.21245 0.6266 0.0
H1385 H 0.16156 0.19346 0.61377 0.0
H1386 H 0.17414 0.20384 0.58235 0.0
H1387 H 0.15569 0.21529 0.5573 0.0
H1388 H 0.87785 0.47105 0.81483 0.0
H1389 H 0.89242 0.46275 0.84611 0.0
H1390 H 0.91993 0.43119 0.80657 0.0
H1391 H 0.90545 0.43945 0.77512 0.0
H1392 H 0.89347 0.42974 0.85519 0.0
H1393 H 0.95095 0.45404 0.85035 0.0
H1394 H 0.93441 0.46203 0.83642 0.0
H1395 H 0.943 0.44338 0.82654 0.0
C1396 C 0.8872 0.4626 0.81272 0.0
C1397 C 0.89043 0.45584 0.79248 0.0
C1398 C 0.8955 0.45788 0.83063 0.0
C1399 C 0.90728 0.44644 0.82863 0.0
C1400 C 0.91102 0.44023 0.80842 0.0
H1401 H 0.96073 0.38904 0.9138 0.0
H1402 H 0.94992 0.40284 0.88373 0.0
C1403 C 0.90269 0.44491 0.79047 0.0
C1404 C 0.91448 0.4397 0.84766 0.0
H1405 H 0.9482 0.43514 0.87581 0.0
C1406 C 0.90541 0.43103 0.85984 0.0
C1407 C 0.93007 0.44129 0.85347 0.0
C1408 C 0.9402 0.45079 0.84114 0.0
C1409 C 0.91156 0.4236 0.87748 0.0
C1410 C 0.92715 0.42523 0.88342 0.0
C1411 C 0.93623 0.43397 0.87127 0.0
C1412 C 0.93426 0.41763 0.90192 0.0
C1413 C 0.90138 0.41362 0.88918 0.0
C1414 C 0.92925 0.42163 0.92219 0.0
C1415 C 0.93529 0.41367 0.93936 0.0
C1416 C 0.9466 0.4017 0.93662 0.0
C1417 C 0.95198 0.39815 0.91643 0.0
C1418 C 0.94585 0.40605 0.89924 0.0
H1419 H 0.89094 0.41005 0.87941 0.0
H1420 H 0.90731 0.4025 0.89408 0.0
H1421 H 0.89794 0.42085 0.90359 0.0
H1422 H 0.92055 0.43081 0.92469 0.0
H1423 H 0.93102 0.41682 0.95475 0.0
H1424 H 0.22915 0.57708 0.17986 0.0
H1425 H 0.21621 0.56354 0.14818 0.0
H1426 H 0.2177 0.60737 0.11663 0.0
H1427 H 0.23036 0.62104 0.14816 0.0
H1428 H 0.18927 0.59432 0.11512 0.0
H1429 H 0.23169 0.54742 0.09065 0.0
H1430 H 0.22689 0.54776 0.11767 0.0
H1431 H 0.23643 0.56464 0.10902 0.0
C1432 C 0.22684 0.58378 0.1661 0.0
C1433 C 0.23072 0.60015 0.16656 0.0
C1434 C 0.21956 0.57599 0.14797 0.0
C1435 C 0.21618 0.5844 0.12999 0.0
C1436 C 0.22027 0.60065 0.13032 0.0
H1437 H 0.16439 0.56885 0.01076 0.0
H1438 H 0.18354 0.57738 0.03863 0.0
C1439 C 0.22748 0.60845 0.14839 0.0
C1440 C 0.20733 0.5768 0.11136 0.0
H1441 H 0.20755 0.54614 0.07199 0.0
C1442 C 0.1933 0.58384 0.10564 0.0
C1443 C 0.2126 0.56306 0.09913 0.0
C1444 C 0.22778 0.55532 0.10427 0.0
C1445 C 0.18435 0.57748 0.08807 0.0
C1446 C 0.18968 0.56387 0.07568 0.0
C1447 C 0.20361 0.55666 0.08148 0.0
C1448 C 0.18061 0.55699 0.05687 0.0
C1449 C 0.16913 0.58525 0.08305 0.0
C1450 C 0.1733 0.54224 0.05739 0.0
C1451 C 0.16236 0.53728 0.04145 0.0
C1452 C 0.15859 0.54705 0.0248 0.0
C1453 C 0.16691 0.56112 0.02345 0.0
C1454 C 0.17784 0.56604 0.03937 0.0
H1455 H 0.16538 0.5934 0.09653 0.0
H1456 H 0.16987 0.59252 0.06933 0.0
H1457 H 0.1604 0.57592 0.0788 0.0
H1458 H 0.17536 0.53508 0.07077 0.0
H1459 H 0.15623 0.52633 0.04291 0.0
H1460 H 0.58205 0.235 0.09863 0.0
H1461 H 0.57707 0.22214 0.13038 0.0
H1462 H 0.60284 0.25869 0.16848 0.0
H1463 H 0.60822 0.27145 0.13662 0.0
H1464 H 0.6127 0.2293 0.17632 0.0
H1465 H 0.55062 0.23066 0.17892 0.0
H1466 H 0.556 0.22258 0.15345 0.0
H1467 H 0.56034 0.24323 0.16254 0.0
C1468 C 0.58634 0.24058 0.11379 0.0
C1469 C 0.59562 0.25421 0.11506 0.0
C1470 C 0.58339 0.23325 0.13199 0.0
C1471 C 0.58945 0.23953 0.15188 0.0
C1472 C 0.59801 0.25366 0.15332 0.0
H1473 H 0.56961 0.18275 0.25699 0.0
H1474 H 0.57276 0.20644 0.23732 0.0
C1475 C 0.60104 0.26097 0.13508 0.0
C1476 C 0.58846 0.23015 0.17055 0.0
H1477 H 0.56387 0.20905 0.19634 0.0
C1478 C 0.60199 0.22516 0.181 0.0
C1479 C 0.57451 0.22492 0.17694 0.0
C1480 C 0.55956 0.23079 0.1675 0.0
C1481 C 0.60199 0.21426 0.19667 0.0
C1482 C 0.58812 0.20791 0.20168 0.0
C1483 C 0.57453 0.21373 0.19228 0.0
C1484 C 0.5875 0.19423 0.21511 0.0
C1485 C 0.61689 0.20944 0.20738 0.0
C1486 C 0.59483 0.17955 0.20927 0.0
C1487 C 0.59312 0.16606 0.22048 0.0
C1488 C 0.58387 0.16689 0.23765 0.0
C1489 C 0.57684 0.18172 0.24386 0.0
C1490 C 0.57859 0.19526 0.23262 0.0
H1491 H 0.6253 0.2192 0.2076 0.0
H1492 H 0.61556 0.20655 0.22386 0.0
H1493 H 0.6215 0.19858 0.19845 0.0
H1494 H 0.60145 0.17834 0.19551 0.0
H1495 H 0.59864 0.15483 0.2152 0.0
H1496 H 0.84143 0.90865 0.28504 0.0
H1497 H 0.82352 0.90656 0.31197 0.0
H1498 H 0.80071 0.95011 0.29382 0.0
H1499 H 0.81893 0.95253 0.26694 0.0
H1500 H 0.80635 0.95108 0.33578 0.0
H1501 H 0.78024 0.89274 0.30864 0.0
H1502 H 0.80041 0.89049 0.30996 0.0
H1503 H 0.79122 0.90365 0.29178 0.0
C1504 C 0.8325 0.91769 0.28652 0.0
C1505 C 0.8316 0.93075 0.27383 0.0
C1506 C 0.82216 0.91639 0.30184 0.0
C1507 C 0.81057 0.92799 0.30463 0.0
C1508 C 0.80948 0.94094 0.29178 0.0
H1509 H 0.75715 0.89982 0.40574 0.0
H1510 H 0.7611 0.91121 0.37234 0.0
C1511 C 0.81989 0.94229 0.27644 0.0
C1512 C 0.80057 0.92713 0.32224 0.0
H1513 H 0.78103 0.90002 0.34667 0.0
C1514 C 0.80048 0.94006 0.33795 0.0
C1515 C 0.79253 0.91299 0.32486 0.0
C1516 C 0.79096 0.89928 0.30775 0.0
C1517 C 0.79376 0.93862 0.35704 0.0
C1518 C 0.78733 0.92371 0.36065 0.0
C1519 C 0.78619 0.91137 0.34414 0.0
C1520 C 0.78359 0.91982 0.38201 0.0
C1521 C 0.794 0.95293 0.37331 0.0
C1522 C 0.79474 0.92122 0.39876 0.0
C1523 C 0.79247 0.91488 0.41787 0.0
C1524 C 0.7791 0.9067 0.42053 0.0
C1525 C 0.7676 0.90601 0.40417 0.0
C1526 C 0.76984 0.91251 0.38507 0.0
H1527 H 0.79321 0.96444 0.36557 0.0
H1528 H 0.78459 0.9526 0.38393 0.0
H1529 H 0.80489 0.95291 0.38297 0.0
H1530 H 0.80561 0.92637 0.39667 0.0
H1531 H 0.80158 0.91559 0.4301 0.0
H1532 H 0.14484 0.02454 0.54658 0.0
H1533 H 0.1635 0.03568 0.57342 0.0
H1534 H 0.18315 0.06239 0.52712 0.0
H1535 H 0.16421 0.0516 0.50013 0.0
H1536 H 0.19481 0.03758 0.57954 0.0
H1537 H 0.16784 0.09778 0.56939 0.0
H1538 H 0.15969 0.07927 0.55728 0.0
H1539 H 0.1755 0.08788 0.54618 0.0
C1540 C 0.1533 0.03253 0.54193 0.0
C1541 C 0.15283 0.03746 0.52129 0.0
C1542 C 0.164 0.03886 0.55732 0.0
C1543 C 0.17446 0.05016 0.55236 0.0
C1544 C 0.17493 0.05396 0.53135 0.0
H1545 H 0.23852 0.09468 0.65107 0.0
H1546 H 0.22825 0.07932 0.61895 0.0
C1547 C 0.16415 0.04771 0.51593 0.0
C1548 C 0.18358 0.05916 0.56966 0.0
H1549 H 0.18726 0.09655 0.59603 0.0
C1550 C 0.19333 0.05051 0.58305 0.0
C1551 C 0.18138 0.07598 0.57435 0.0
C1552 C 0.17045 0.0858 0.56119 0.0
C1553 C 0.20071 0.05819 0.60129 0.0
C1554 C 0.19843 0.07498 0.606 0.0
C1555 C 0.189 0.08368 0.59231 0.0
C1556 C 0.20485 0.08368 0.62573 0.0
C1557 C 0.21035 0.04817 0.61583 0.0
C1558 C 0.1951 0.09141 0.64002 0.0
C1559 C 0.2009 0.10031 0.65823 0.0
C1560 C 0.2166 0.10167 0.66251 0.0
C1561 C 0.22637 0.09378 0.64827 0.0
C1562 C 0.22053 0.08493 0.62997 0.0
H1563 H 0.2083 0.03503 0.61236 0.0
H1564 H 0.22245 0.05034 0.61381 0.0
H1565 H 0.20815 0.05163 0.63259 0.0
H1566 H 0.18296 0.09061 0.637 0.0
H1567 H 0.19307 0.10621 0.66886 0.0
H1568 H 0.46916 0.34209 0.45371 0.0
H1569 H 0.46001 0.32212 0.42553 0.0
H1570 H 0.41992 0.31575 0.45853 0.0
H1571 H 0.42901 0.33551 0.48691 0.0
H1572 H 0.43158 0.28657 0.43665 0.0
H1573 H 0.42444 0.33847 0.38676 0.0
H1574 H 0.44316 0.33518 0.39838 0.0
H1575 H 0.42811 0.3412 0.41503 0.0
C1576 C 0.45857 0.33616 0.45524 0.0
C1577 C 0.44967 0.34061 0.47236 0.0
C1578 C 0.45335 0.32479 0.4391 0.0
C1579 C 0.43917 0.31776 0.4398 0.0
C1580 C 0.43087 0.32113 0.45769 0.0
H1581 H 0.3715 0.28708 0.34491 0.0
H1582 H 0.38738 0.29938 0.37451 0.0
C1583 C 0.43608 0.33246 0.47387 0.0
C1584 C 0.43211 0.30849 0.42097 0.0
H1585 H 0.41647 0.31313 0.37138 0.0
C1586 C 0.42842 0.29227 0.42226 0.0
C1587 C 0.42783 0.31612 0.40239 0.0
C1588 C 0.43095 0.33373 0.40048 0.0
C1589 C 0.42035 0.2835 0.40546 0.0
C1590 C 0.416 0.29119 0.38698 0.0
C1591 C 0.41993 0.3073 0.38558 0.0
C1592 C 0.40643 0.28316 0.36943 0.0
C1593 C 0.41603 0.2663 0.40784 0.0
C1594 C 0.41197 0.27002 0.35674 0.0
C1595 C 0.40292 0.26296 0.33971 0.0
C1596 C 0.38823 0.269 0.33514 0.0
C1597 C 0.38276 0.28215 0.34797 0.0
C1598 C 0.3918 0.28919 0.3649 0.0
H1599 H 0.41813 0.26302 0.42435 0.0
H1600 H 0.4039 0.26443 0.4029 0.0
H1601 H 0.42277 0.25797 0.39746 0.0
H1602 H 0.42332 0.26536 0.35983 0.0
H1603 H 0.40746 0.25284 0.33012 0.0
H1604 H 0.07385 0.71046 0.25364 0.0
H1605 H 0.07572 0.72741 0.22427 0.0
H1606 H 0.0472 0.69449 0.18422 0.0
H1607 H 0.04504 0.67774 0.21339 0.0
H1608 H 0.08839 0.71696 0.18804 0.0
H1609 H 0.02988 0.7375 0.16856 0.0
H1610 H 0.03556 0.72941 0.19338 0.0
H1611 H 0.03094 0.71605 0.17014 0.0
C1612 C 0.06771 0.70703 0.23871 0.0
C1613 C 0.05936 0.6927 0.23583 0.0
C1614 C 0.06878 0.71673 0.22196 0.0
C1615 C 0.06142 0.71235 0.20214 0.0
C1616 C 0.05266 0.69836 0.19949 0.0
H1617 H 0.06925 0.72012 0.07261 0.0
H1618 H 0.06127 0.71643 0.10786 0.0
C1619 C 0.05157 0.68869 0.21618 0.0
C1620 C 0.06438 0.72106 0.1835 0.0
H1621 H 0.04696 0.73688 0.14025 0.0
C1622 C 0.07937 0.72168 0.17783 0.0
C1623 C 0.05259 0.72715 0.17018 0.0
C1624 C 0.03636 0.72765 0.176 0.0
C1625 C 0.08281 0.72727 0.15857 0.0
C1626 C 0.07094 0.73264 0.14478 0.0
C1627 C 0.05602 0.73272 0.15085 0.0
C1628 C 0.07378 0.73672 0.12324 0.0
C1629 C 0.09903 0.72649 0.15258 0.0
C1630 C 0.08296 0.74976 0.12013 0.0
C1631 C 0.0876 0.75187 0.10001 0.0
C1632 C 0.0831 0.74099 0.08267 0.0
C1633 C 0.07302 0.72864 0.08563 0.0
C1634 C 0.06841 0.72654 0.10576 0.0
H1635 H 0.1064 0.71941 0.16333 0.0
H1636 H 0.09977 0.72096 0.13616 0.0
H1637 H 0.10351 0.73892 0.15334 0.0
H1638 H 0.08703 0.75789 0.13341 0.0
H1639 H 0.09526 0.7616 0.09824 0.0
H1640 H 0.88724 0.25901 0.84245 0.0
H1641 H 0.90029 0.27194 0.87414 0.0
H1642 H 0.9433 0.25734 0.85024 0.0
H1643 H 0.93029 0.24436 0.81817 0.0
H1644 H 0.92234 0.25876 0.90456 0.0
H1645 H 0.9447 0.30766 0.86088 0.0
H1646 H 0.92947 0.2949 0.84966 0.0
H1647 H 0.94844 0.287 0.8515 0.0
C1648 C 0.89947 0.25846 0.84389 0.0
C1649 C 0.90774 0.25081 0.82767 0.0
C1650 C 0.90691 0.26578 0.86208 0.0
C1651 C 0.92273 0.26567 0.86441 0.0
C1652 C 0.93107 0.25765 0.84859 0.0
H1653 H 0.96635 0.33481 0.9599 0.0
H1654 H 0.96463 0.31108 0.9343 0.0
C1655 C 0.92362 0.25025 0.83033 0.0
C1656 C 0.93024 0.27483 0.88297 0.0
H1657 H 0.94718 0.31087 0.89776 0.0
C1658 C 0.92806 0.27 0.90313 0.0
C1659 C 0.93777 0.2894 0.88099 0.0
C1660 C 0.94023 0.29518 0.85965 0.0
C1661 C 0.93252 0.27983 0.92141 0.0
C1662 C 0.93903 0.29498 0.91937 0.0
C1663 C 0.94215 0.29926 0.89927 0.0
C1664 C 0.9408 0.30747 0.93735 0.0
C1665 C 0.92982 0.27411 0.94268 0.0
C1666 C 0.92802 0.31316 0.94775 0.0
C1667 C 0.92895 0.32668 0.96233 0.0
C1668 C 0.94266 0.33488 0.96665 0.0
C1669 C 0.95562 0.32875 0.95692 0.0
C1670 C 0.95467 0.3152 0.94229 0.0
H1671 H 0.9302 0.26069 0.94212 0.0
H1672 H 0.93831 0.27903 0.95506 0.0
H1673 H 0.91841 0.2782 0.94724 0.0
H1674 H 0.91712 0.30765 0.94381 0.0
H1675 H 0.91877 0.33108 0.96954 0.0
H1676 H 0.22063 0.62407 0.26158 0.0
H1677 H 0.19847 0.62077 0.28179 0.0
H1678 H 0.18239 0.66838 0.26825 0.0
H1679 H 0.20452 0.6719 0.24838 0.0
H1680 H 0.17787 0.6606 0.31022 0.0
H1681 H 0.15738 0.61271 0.24892 0.0
H1682 H 0.17577 0.60953 0.26165 0.0
H1683 H 0.17274 0.62578 0.24489 0.0
C1684 C 0.2125 0.63394 0.26319 0.0
C1685 C 0.21424 0.64817 0.25311 0.0
C1686 C 0.19982 0.632 0.27468 0.0
C1687 C 0.18868 0.64422 0.2762 0.0
C1688 C 0.19084 0.65878 0.26722 0.0
H1689 H 0.09832 0.66655 0.29651 0.0
H1690 H 0.1258 0.66635 0.29764 0.0
C1691 C 0.20349 0.66074 0.25578 0.0
C1692 C 0.17412 0.64152 0.28544 0.0
H1693 H 0.14108 0.62112 0.27515 0.0
C1694 C 0.16989 0.6518 0.30279 0.0
C1695 C 0.16375 0.62999 0.27575 0.0
C1696 C 0.16751 0.61891 0.25669 0.0
C1697 C 0.15535 0.65123 0.31025 0.0
C1698 C 0.14472 0.64031 0.29981 0.0
C1699 C 0.14925 0.62946 0.28319 0.0
C1700 C 0.12841 0.64117 0.30386 0.0
C1701 C 0.15146 0.66253 0.32899 0.0
C1702 C 0.12065 0.62716 0.30734 0.0
C1703 C 0.10483 0.6272 0.30649 0.0
C1704 C 0.09651 0.64122 0.30194 0.0
C1705 C 0.10436 0.65553 0.30002 0.0
C1706 C 0.12013 0.65547 0.30084 0.0
H1707 H 0.16167 0.66541 0.33963 0.0
H1708 H 0.14691 0.67405 0.32334 0.0
H1709 H 0.14283 0.6573 0.33818 0.0
H1710 H 0.1268 0.61598 0.30961 0.0
H1711 H 0.09917 0.61598 0.30806 0.0
H1712 H 0.29225 0.91162 0.99687 0.0
H1713 H 0.31817 0.91692 0.01113 0.0
H1714 H 0.32526 0.86613 0.01845 0.0
H1715 H 0.29936 0.86074 0.00467 0.0
H1716 H 0.3397 0.88664 0.05153 0.0
H1717 H 0.35178 0.90354 0.97157 0.0
H1718 H 0.33711 0.91505 0.98436 0.0
H1719 H 0.33446 0.89395 0.97652 0.0
C1720 C 0.29922 0.90162 0.00191 0.0
C1721 C 0.29381 0.88571 0.99931 0.0
C1722 C 0.31404 0.90467 0.00999 0.0
C1723 C 0.32371 0.89187 0.01543 0.0
C1724 C 0.318 0.87617 0.01426 0.0
H1725 H 0.41465 0.86204 0.02954 0.0
H1726 H 0.38796 0.8672 0.03473 0.0
C1727 C 0.30319 0.87311 0.00629 0.0
C1728 C 0.34012 0.89437 0.02013 0.0
H1729 H 0.3722 0.9025 0.9965 0.0
C1730 C 0.34682 0.89033 0.03964 0.0
C1731 C 0.34937 0.89917 0.00457 0.0
C1732 C 0.3429 0.90307 0.98301 0.0
C1733 C 0.36259 0.89058 0.04379 0.0
C1734 C 0.37186 0.89471 0.02787 0.0
C1735 C 0.36509 0.89943 0.00875 0.0
C1736 C 0.38854 0.8926 0.02949 0.0
C1737 C 0.36916 0.88622 0.06505 0.0
C1738 C 0.39788 0.9052 0.02517 0.0
C1739 C 0.41315 0.90223 0.0219 0.0
C1740 C 0.41936 0.88656 0.0228 0.0
C1741 C 0.41025 0.87425 0.02871 0.0
C1742 C 0.39497 0.87721 0.03187 0.0
H1743 H 0.36106 0.88908 0.07747 0.0
H1744 H 0.37156 0.87302 0.06428 0.0
H1745 H 0.37986 0.89268 0.06974 0.0
H1746 H 0.39315 0.91716 0.02319 0.0
H1747 H 0.41987 0.91201 0.0175 0.0
H1748 H 0.11951 0.57348 0.96674 0.0
H1749 H 0.11848 0.60242 0.9626 0.0
H1750 H 0.07054 0.60322 0.97048 0.0
H1751 H 0.07149 0.57426 0.97512 0.0
H1752 H 0.10201 0.62436 0.93754 0.0
H1753 H 0.08812 0.6316 0.02189 0.0
H1754 H 0.09425 0.61253 0.00934 0.0
H1755 H 0.0752 0.61969 0.00436 0.0
C1756 C 0.10866 0.57969 0.9671 0.0
C1757 C 0.09563 0.57161 0.97173 0.0
C1758 C 0.10809 0.59625 0.96468 0.0
C1759 C 0.09451 0.60501 0.96676 0.0
C1760 C 0.0812 0.59671 0.96927 0.0
H1761 H 0.08838 0.70899 0.00106 0.0
H1762 H 0.08069 0.68181 0.98717 0.0
C1763 C 0.08176 0.58014 0.97183 0.0
C1764 C 0.09477 0.62292 0.96894 0.0
H1765 H 0.09177 0.65519 0.00545 0.0
C1766 C 0.09959 0.63116 0.95228 0.0
C1767 C 0.09168 0.63174 0.98825 0.0
C1768 C 0.08714 0.62349 0.00708 0.0
C1769 C 0.10164 0.64798 0.95455 0.0
C1770 C 0.09903 0.65668 0.97408 0.0
C1771 C 0.09368 0.64851 0.99044 0.0
C1772 C 0.10308 0.67391 0.97883 0.0
C1773 C 0.10675 0.65623 0.93611 0.0
C1774 C 0.11818 0.67858 0.97843 0.0
C1775 C 0.12261 0.69409 0.98636 0.0
C1776 C 0.11206 0.70519 0.99505 0.0
C1777 C 0.0968 0.70074 0.99451 0.0
C1778 C 0.09238 0.68521 0.98656 0.0
H1779 H 0.10343 0.64931 0.92085 0.0
H1780 H 0.10195 0.66868 0.93588 0.0
H1781 H 0.11926 0.65701 0.93744 0.0
H1782 H 0.12671 0.66997 0.97301 0.0
H1783 H 0.13445 0.6971 0.98654 0.0
H1784 H 0.40173 0.89498 0.71264 0.0
H1785 H 0.40005 0.86573 0.71382 0.0
H1786 H 0.35139 0.86946 0.70825 0.0
H1787 H 0.35294 0.89863 0.70673 0.0
H1788 H 0.38684 0.85316 0.74604 0.0
H1789 H 0.35892 0.82889 0.6699 0.0
H1790 H 0.36748 0.84857 0.6734 0.0
H1791 H 0.34886 0.84579 0.68205 0.0
C1792 C 0.39067 0.88954 0.71106 0.0
C1793 C 0.37747 0.89919 0.70975 0.0
C1794 C 0.38974 0.87281 0.71176 0.0
C1795 C 0.37561 0.86537 0.71101 0.0
C1796 C 0.36243 0.87485 0.70843 0.0
H1797 H 0.338 0.7797 0.75003 0.0
H1798 H 0.34337 0.80469 0.73445 0.0
C1799 C 0.36334 0.89158 0.70768 0.0
C1800 C 0.37459 0.84828 0.7159 0.0
H1801 H 0.35851 0.81206 0.6988 0.0
C1802 C 0.38088 0.84409 0.73554 0.0
C1803 C 0.36669 0.83651 0.70228 0.0
C1804 C 0.36022 0.84011 0.68064 0.0
C1805 C 0.37898 0.82867 0.74233 0.0
C1806 C 0.3708 0.81698 0.72891 0.0
C1807 C 0.3648 0.82103 0.70904 0.0
C1808 C 0.36761 0.80088 0.73592 0.0
C1809 C 0.38514 0.82529 0.76423 0.0
C1810 C 0.37943 0.79017 0.74128 0.0
C1811 C 0.37641 0.77591 0.75034 0.0
C1812 C 0.36149 0.77203 0.75403 0.0
C1813 C 0.34962 0.78235 0.74753 0.0
C1814 C 0.35266 0.79663 0.73856 0.0
H1815 H 0.38813 0.83657 0.77416 0.0
H1816 H 0.3768 0.81865 0.77235 0.0
H1817 H 0.39552 0.81767 0.76304 0.0
H1818 H 0.39103 0.79308 0.739 0.0
H1819 H 0.38581 0.76816 0.75498 0.0
H1820 H 0.40104 0.73759 0.84874 0.0
H1821 H 0.41793 0.74688 0.87914 0.0
H1822 H 0.39062 0.79015 0.88857 0.0
H1823 H 0.37357 0.78087 0.85856 0.0
H1824 H 0.43483 0.77353 0.8828 0.0
H1825 H 0.39682 0.77707 0.94819 0.0
H1826 H 0.39204 0.76597 0.92306 0.0
H1827 H 0.38854 0.78746 0.92661 0.0
C1828 C 0.39852 0.74899 0.85747 0.0
C1829 C 0.38598 0.75853 0.85121 0.0
C1830 C 0.40817 0.75425 0.87485 0.0
C1831 C 0.40538 0.76905 0.88636 0.0
C1832 C 0.39276 0.77847 0.8803 0.0
H1833 H 0.45376 0.84625 0.93802 0.0
H1834 H 0.44368 0.82241 0.9175 0.0
C1835 C 0.3831 0.77322 0.86298 0.0
C1836 C 0.41638 0.77557 0.90335 0.0
H1837 H 0.41809 0.79557 0.95246 0.0
C1838 C 0.43128 0.77797 0.89825 0.0
C1839 C 0.41192 0.781 0.9237 0.0
C1840 C 0.39649 0.77756 0.93078 0.0
C1841 C 0.44136 0.78705 0.9122 0.0
C1842 C 0.43629 0.79411 0.93152 0.0
C1843 C 0.42191 0.79035 0.9375 0.0
C1844 C 0.44454 0.80748 0.94383 0.0
C1845 C 0.45712 0.78965 0.90569 0.0
C1846 C 0.44837 0.80704 0.96555 0.0
C1847 C 0.45417 0.82078 0.97744 0.0
C1848 C 0.45589 0.83519 0.96778 0.0
C1849 C 0.45251 0.83535 0.94593 0.0
C1850 C 0.44689 0.82166 0.93411 0.0
H1851 H 0.46105 0.77915 0.89536 0.0
H1852 H 0.45708 0.80044 0.89654 0.0
H1853 H 0.46529 0.79162 0.91963 0.0
H1854 H 0.44647 0.79624 0.97337 0.0
H1855 H 0.45661 0.82037 0.99428 0.0
H1856 H 0.08531 0.20304 0.56962 0.0
H1857 H 0.07525 0.19897 0.60333 0.0
H1858 H 0.07997 0.24976 0.62274 0.0
H1859 H 0.09041 0.25393 0.58891 0.0
H1860 H 0.09331 0.23136 0.65141 0.0
H1861 H 0.03603 0.20831 0.63041 0.0
H1862 H 0.04927 0.19731 0.6144 0.0
H1863 H 0.04639 0.21869 0.61226 0.0
C1864 C 0.08393 0.21345 0.58084 0.0
C1865 C 0.08874 0.22879 0.57663 0.0
C1866 C 0.07802 0.21112 0.60007 0.0
C1867 C 0.07663 0.2241 0.61547 0.0
C1868 C 0.08082 0.23961 0.611 0.0
H1869 H 0.04624 0.18693 0.7305 0.0
H1870 H 0.04753 0.2061 0.70348 0.0
C1871 C 0.08676 0.24196 0.59166 0.0
C1872 C 0.07271 0.22083 0.63696 0.0
H1873 H 0.04897 0.19821 0.66204 0.0
C1874 C 0.08339 0.22449 0.65389 0.0
C1875 C 0.05964 0.21219 0.6404 0.0
C1876 C 0.04712 0.20908 0.6234 0.0
C1877 C 0.08205 0.21844 0.67357 0.0
C1878 C 0.06989 0.20818 0.6762 0.0
C1879 C 0.05847 0.20581 0.65993 0.0
C1880 C 0.06977 0.19821 0.69443 0.0
C1881 C 0.09396 0.22263 0.6911 0.0
C1882 C 0.08186 0.18749 0.69838 0.0
C1883 C 0.08118 0.17659 0.71377 0.0
C1884 C 0.0683 0.17603 0.72539 0.0
C1885 C 0.05634 0.18707 0.72184 0.0
C1886 C 0.05705 0.19803 0.70641 0.0
H1887 H 0.09865 0.23477 0.68972 0.0
H1888 H 0.08938 0.22244 0.7069 0.0
H1889 H 0.10343 0.21372 0.68992 0.0
H1890 H 0.09161 0.18707 0.68895 0.0
H1891 H 0.09057 0.16822 0.71603 0.0
H1892 H 0.29338 0.85906 0.90434 0.0
H1893 H 0.30124 0.83354 0.8862 0.0
H1894 H 0.26654 0.80872 0.91455 0.0
H1895 H 0.2584 0.83438 0.93265 0.0
H1896 H 0.31172 0.80633 0.90518 0.0
H1897 H 0.26066 0.79279 0.85148 0.0
H1898 H 0.26411 0.81259 0.86475 0.0
H1899 H 0.25749 0.79671 0.87906 0.0
C1900 C 0.28733 0.84822 0.90667 0.0
C1901 C 0.27526 0.84876 0.91995 0.0
C1902 C 0.29185 0.83363 0.89626 0.0
C1903 C 0.28438 0.81927 0.89885 0.0
C1904 C 0.27227 0.81972 0.91203 0.0
H1905 H 0.33061 0.72864 0.86075 0.0
H1906 H 0.31412 0.74767 0.88017 0.0
C1907 C 0.26771 0.83437 0.92246 0.0
C1908 C 0.2899 0.80384 0.88842 0.0
H1909 H 0.28069 0.7736 0.85018 0.0
C1910 C 0.3049 0.79908 0.89329 0.0
C1911 C 0.28098 0.79452 0.87282 0.0
C1912 C 0.26494 0.79941 0.86652 0.0
C1913 C 0.31138 0.78546 0.88264 0.0
C1914 C 0.30248 0.77611 0.86701 0.0
C1915 C 0.28738 0.78068 0.86237 0.0
C1916 C 0.30925 0.76248 0.85413 0.0
C1917 C 0.32791 0.78166 0.88756 0.0
C1918 C 0.31105 0.76386 0.83264 0.0
C1919 C 0.32034 0.75291 0.82141 0.0
C1920 C 0.32804 0.74046 0.83159 0.0
C1921 C 0.325 0.73821 0.85253 0.0
C1922 C 0.31563 0.74911 0.86369 0.0
H1923 H 0.33383 0.79189 0.89679 0.0
H1924 H 0.32894 0.77102 0.89702 0.0
H1925 H 0.33377 0.77867 0.87281 0.0
H1926 H 0.30614 0.77405 0.82494 0.0
H1927 H 0.32235 0.75495 0.80526 0.0
H1928 H 0.92011 0.93126 0.45944 0.0
H1929 H 0.91306 0.94173 0.42526 0.0
H1930 H 0.9399 0.90416 0.39415 0.0
H1931 H 0.94681 0.89346 0.42808 0.0
H1932 H 0.93085 0.95243 0.39352 0.0
H1933 H 0.89753 0.89804 0.36477 0.0
H1934 H 0.90378 0.90236 0.39219 0.0
H1935 H 0.91676 0.89389 0.37357 0.0
C1936 C 0.92456 0.92526 0.44534 0.0
C1937 C 0.93387 0.91141 0.44645 0.0
C1938 C 0.92056 0.93129 0.42585 0.0
C1939 C 0.92577 0.92355 0.40719 0.0
C1940 C 0.93552 0.91011 0.40834 0.0
H1941 H 0.90121 0.93491 0.27476 0.0
H1942 H 0.91516 0.9282 0.30739 0.0
C1943 C 0.93949 0.90404 0.42777 0.0
C1944 C 0.92058 0.92915 0.38643 0.0
H1945 H 0.90033 0.91747 0.34042 0.0
C1946 C 0.92419 0.94481 0.38187 0.0
C1947 C 0.9119 0.91915 0.37131 0.0
C1948 C 0.90713 0.90248 0.3757 0.0
C1949 C 0.91941 0.9507 0.36245 0.0
C1950 C 0.91063 0.94073 0.34741 0.0
C1951 C 0.90717 0.92503 0.35192 0.0
C1952 C 0.90407 0.94653 0.32738 0.0
C1953 C 0.92387 0.96747 0.35811 0.0
C1954 C 0.89343 0.95927 0.32778 0.0
C1955 C 0.88545 0.96313 0.30918 0.0
C1956 C 0.88788 0.95424 0.28987 0.0
C1957 C 0.89907 0.942 0.28936 0.0
C1958 C 0.90704 0.93813 0.30799 0.0
H1959 H 0.93399 0.97161 0.3682 0.0
H1960 H 0.92625 0.96797 0.34128 0.0
H1961 H 0.91442 0.97604 0.36164 0.0
H1962 H 0.89074 0.9657 0.34262 0.0
H1963 H 0.8769 0.97262 0.31013 0.0
H1964 H 0.59328 0.61799 0.70678 0.0
H1965 H 0.59636 0.60317 0.6725 0.0
H1966 H 0.5508 0.58577 0.67156 0.0
H1967 H 0.54768 0.60037 0.70613 0.0
H1968 H 0.57159 0.56226 0.65632 0.0
H1969 H 0.57591 0.61962 0.61862 0.0
H1970 H 0.58942 0.61789 0.64061 0.0
H1971 H 0.56955 0.61891 0.64486 0.0
C1972 C 0.58395 0.61088 0.69941 0.0
C1973 C 0.57017 0.61051 0.70904 0.0
C1974 C 0.58572 0.60249 0.67978 0.0
C1975 C 0.57369 0.59372 0.66931 0.0
C1976 C 0.56017 0.5926 0.67934 0.0
H1977 H 0.57394 0.56859 0.53374 0.0
H1978 H 0.56589 0.57784 0.56879 0.0
C1979 C 0.55842 0.60094 0.69908 0.0
C1980 C 0.57507 0.58632 0.64754 0.0
H1981 H 0.58256 0.59551 0.59814 0.0
C1982 C 0.57387 0.56951 0.64352 0.0
C1983 C 0.57769 0.59586 0.63081 0.0
C1984 C 0.57807 0.61408 0.63384 0.0
C1985 C 0.57584 0.5619 0.6233 0.0
C1986 C 0.57936 0.57137 0.60688 0.0
C1987 C 0.57999 0.58824 0.61078 0.0
C1988 C 0.58303 0.56414 0.58571 0.0
C1989 C 0.57407 0.54382 0.61974 0.0
C1990 C 0.59524 0.55323 0.58357 0.0
C1991 C 0.5998 0.54784 0.56357 0.0
C1992 C 0.59237 0.55345 0.54533 0.0
C1993 C 0.57992 0.56407 0.54748 0.0
C1994 C 0.57529 0.56936 0.56749 0.0
H1995 H 0.56673 0.53925 0.63134 0.0
H1996 H 0.56918 0.54023 0.60355 0.0
H1997 H 0.58533 0.53787 0.62177 0.0
H1998 H 0.60162 0.54936 0.59739 0.0
H1999 H 0.60949 0.53973 0.56246 0.0
H2000 H 0.77882 0.32273 0.93504 0.0
H2001 H 0.78975 0.3007 0.91259 0.0
H2002 H 0.75879 0.31194 0.8606 0.0
H2003 H 0.74779 0.33402 0.88285 0.0
H2004 H 0.77524 0.27273 0.88662 0.0
H2005 H 0.80251 0.31682 0.84037 0.0
H2006 H 0.79554 0.32252 0.86599 0.0
H2007 H 0.78253 0.31928 0.84328 0.0
C2008 C 0.77422 0.32042 0.9189 0.0
C2009 C 0.76253 0.33023 0.91067 0.0
C2010 C 0.78044 0.3078 0.90613 0.0
C2011 C 0.77515 0.30483 0.88493 0.0
C2012 C 0.7631 0.31416 0.87689 0.0
H2013 H 0.82417 0.24894 0.78816 0.0
H2014 H 0.80308 0.26319 0.8049 0.0
C2015 C 0.75683 0.32675 0.88965 0.0
C2016 C 0.78296 0.2927 0.87094 0.0
H2017 H 0.8074 0.28934 0.8316 0.0
C2018 C 0.78217 0.2763 0.87443 0.0
C2019 C 0.79187 0.29743 0.85498 0.0
C2020 C 0.79331 0.31496 0.8509 0.0
C2021 C 0.79033 0.26447 0.86258 0.0
C2022 C 0.79978 0.26927 0.84724 0.0
C2023 C 0.80011 0.28564 0.84328 0.0
C2024 C 0.81066 0.25798 0.83666 0.0
C2025 C 0.78877 0.24698 0.8667 0.0
C2026 C 0.8217 0.24993 0.84886 0.0
C2027 C 0.83368 0.24171 0.83935 0.0
C2028 C 0.83502 0.24156 0.81745 0.0
C2029 C 0.82349 0.24882 0.80507 0.0
C2030 C 0.81144 0.257 0.81462 0.0
H2031 H 0.77751 0.24475 0.87247 0.0
H2032 H 0.79036 0.2388 0.85226 0.0
H2033 H 0.79745 0.2439 0.87915 0.0
H2034 H 0.82158 0.25082 0.86592 0.0
H2035 H 0.84235 0.23626 0.84938 0.0
H2036 H 0.09669 0.58733 0.05145 0.0
H2037 H 0.08904 0.59659 0.08672 0.0
H2038 H 0.0915 0.54752 0.10435 0.0
H2039 H 0.0986 0.53811 0.06888 0.0
H2040 H 0.06761 0.56323 0.12028 0.0
H2041 H 0.11857 0.60079 0.13743 0.0
H2042 H 0.10745 0.60643 0.11458 0.0
H2043 H 0.11628 0.58669 0.11434 0.0
C2044 C 0.09551 0.57851 0.06281 0.0
C2045 C 0.09841 0.56203 0.05749 0.0
C2046 C 0.09122 0.58382 0.08298 0.0
C2047 C 0.09009 0.57279 0.09834 0.0
C2048 C 0.0924 0.55626 0.0928 0.0
H2049 H 0.09483 0.60772 0.23077 0.0
H2050 H 0.09903 0.59207 0.19734 0.0
C2051 C 0.09648 0.55091 0.07253 0.0
C2052 C 0.08696 0.57853 0.12033 0.0
H2053 H 0.09941 0.60457 0.16184 0.0
C2054 C 0.07461 0.5722 0.12946 0.0
C2055 C 0.09631 0.58992 0.13246 0.0
C2056 C 0.11048 0.59622 0.12429 0.0
C2057 C 0.07114 0.57726 0.15023 0.0
C2058 C 0.08001 0.58932 0.16193 0.0
C2059 C 0.09253 0.59538 0.15289 0.0
C2060 C 0.0765 0.59624 0.18336 0.0
C2061 C 0.05819 0.5694 0.15948 0.0
C2062 C 0.06228 0.60334 0.18694 0.0
C2063 C 0.05976 0.61197 0.20626 0.0
C2064 C 0.07155 0.61401 0.22206 0.0
C2065 C 0.08556 0.60637 0.21881 0.0
C2066 C 0.08798 0.59746 0.1997 0.0
H2067 H 0.05617 0.55704 0.15182 0.0
H2068 H 0.0603 0.56862 0.17675 0.0
H2069 H 0.04772 0.57667 0.1567 0.0
H2070 H 0.05336 0.60297 0.17446 0.0
H2071 H 0.04889 0.6179 0.20827 0.0
H2072 H 0.63193 0.58181 0.48217 0.0
H2073 H 0.63017 0.61124 0.48404 0.0
H2074 H 0.58655 0.60836 0.44984 0.0
H2075 H 0.58805 0.5788 0.44819 0.0
H2076 H 0.62613 0.63411 0.4547 0.0
H2077 H 0.57771 0.63403 0.50573 0.0
H2078 H 0.58912 0.61622 0.49961 0.0
H2079 H 0.57474 0.62252 0.48066 0.0
C2080 C 0.62203 0.58739 0.47476 0.0
C2081 C 0.61002 0.57793 0.46529 0.0
C2082 C 0.62106 0.60424 0.47585 0.0
C2083 C 0.60809 0.61197 0.46753 0.0
C2084 C 0.59652 0.6026 0.45679 0.0
H2085 H 0.59358 0.7134 0.45202 0.0
H2086 H 0.59957 0.68452 0.44762 0.0
C2087 C 0.59746 0.58571 0.4557 0.0
C2088 C 0.60637 0.62976 0.47119 0.0
H2089 H 0.58451 0.65935 0.49499 0.0
C2090 C 0.61704 0.63965 0.46351 0.0
C2091 C 0.59472 0.63693 0.48315 0.0
C2092 C 0.5835 0.6269 0.49296 0.0
C2093 C 0.61616 0.65656 0.46704 0.0
C2094 C 0.60415 0.66374 0.47826 0.0
C2095 C 0.59368 0.65383 0.48632 0.0
C2096 C 0.60182 0.68151 0.48113 0.0
C2097 C 0.62822 0.66656 0.45899 0.0
C2098 C 0.60084 0.6894 0.50143 0.0
C2099 C 0.59724 0.70591 0.50394 0.0
C2100 C 0.59463 0.71477 0.48624 0.0
C2101 C 0.59575 0.70689 0.46597 0.0
C2102 C 0.59929 0.69041 0.46344 0.0
H2103 H 0.63881 0.65942 0.45671 0.0
H2104 H 0.62414 0.6707 0.44347 0.0
H2105 H 0.63085 0.67738 0.47002 0.0
H2106 H 0.60252 0.6827 0.5153 0.0
H2107 H 0.59581 0.71158 0.5196 0.0
H2108 H 0.71277 0.6687 0.75736 0.0
H2109 H 0.68948 0.66882 0.77589 0.0
H2110 H 0.69113 0.61674 0.77294 0.0
H2111 H 0.71452 0.61651 0.75489 0.0
H2112 H 0.66435 0.65565 0.75679 0.0
H2113 H 0.67696 0.62722 0.83148 0.0
H2114 H 0.69159 0.63483 0.81669 0.0
H2115 H 0.6838 0.61513 0.80931 0.0
C2116 C 0.70842 0.65729 0.76118 0.0
C2117 C 0.71545 0.64259 0.75446 0.0
C2118 C 0.69509 0.65738 0.7718 0.0
C2119 C 0.68859 0.6428 0.77598 0.0
C2120 C 0.69607 0.62817 0.77036 0.0
H2121 H 0.60169 0.60529 0.78559 0.0
H2122 H 0.62879 0.61045 0.78813 0.0
C2123 C 0.70942 0.62806 0.75984 0.0
C2124 C 0.67296 0.6427 0.78304 0.0
H2125 H 0.65083 0.62662 0.81771 0.0
C2126 C 0.66143 0.64962 0.7704 0.0
C2127 C 0.66915 0.6347 0.80068 0.0
C2128 C 0.68107 0.62769 0.81543 0.0
C2129 C 0.64616 0.64807 0.77423 0.0
C2130 C 0.6423 0.63963 0.79146 0.0
C2131 C 0.65383 0.63313 0.80456 0.0
C2132 C 0.62631 0.63631 0.79476 0.0
C2133 C 0.63427 0.65474 0.75907 0.0
C2134 C 0.61598 0.64905 0.79881 0.0
C2135 C 0.60045 0.64617 0.79723 0.0
C2136 C 0.59501 0.63046 0.79171 0.0
C2137 C 0.60547 0.61754 0.78972 0.0
C2138 C 0.62099 0.62046 0.79119 0.0
H2139 H 0.63908 0.65808 0.74439 0.0
H2140 H 0.62521 0.6458 0.75466 0.0
H2141 H 0.62903 0.66576 0.76679 0.0
H2142 H 0.6199 0.66134 0.80197 0.0
H2143 H 0.59272 0.65637 0.7991 0.0
H2144 H 0.2498 0.66137 0.13821 0.0
H2145 H 0.23342 0.67949 0.11877 0.0
H2146 H 0.22532 0.70817 0.17681 0.0
H2147 H 0.24126 0.68955 0.19658 0.0
H2148 H 0.19996 0.69932 0.15805 0.0
H2149 H 0.23291 0.7229 0.09744 0.0
H2150 H 0.23497 0.70135 0.09604 0.0
H2151 H 0.24187 0.71334 0.11955 0.0
C2152 C 0.24493 0.6718 0.14683 0.0
C2153 C 0.24669 0.67389 0.169 0.0
C2154 C 0.23562 0.68229 0.13561 0.0
C2155 C 0.22816 0.69532 0.14624 0.0
C2156 C 0.23093 0.6982 0.16823 0.0
H2157 H 0.16075 0.74943 0.07066 0.0
H2158 H 0.18344 0.74312 0.09276 0.0
C2159 C 0.24008 0.68756 0.17952 0.0
C2160 C 0.21571 0.70406 0.13498 0.0
H2161 H 0.20573 0.7203 0.08843 0.0
C2162 C 0.20134 0.70423 0.14306 0.0
C2163 C 0.21742 0.71071 0.11553 0.0
C2164 C 0.23269 0.71222 0.10681 0.0
C2165 C 0.18854 0.70992 0.13168 0.0
C2166 C 0.19005 0.7151 0.11133 0.0
C2167 C 0.20452 0.71595 0.10382 0.0
C2168 C 0.17663 0.71885 0.09731 0.0
C2169 C 0.1735 0.7101 0.1415 0.0
C2170 C 0.16549 0.70715 0.09206 0.0
C2171 C 0.1525 0.71075 0.07963 0.0
C2172 C 0.1505 0.72604 0.07188 0.0
C2173 C 0.16194 0.73755 0.07645 0.0
C2174 C 0.17491 0.73397 0.08908 0.0
H2175 H 0.17499 0.71116 0.15903 0.0
H2176 H 0.16615 0.72025 0.13648 0.0
H2177 H 0.16765 0.69858 0.13655 0.0
H2178 H 0.16679 0.69523 0.09771 0.0
H2179 H 0.144 0.70154 0.07619 0.0
H2180 H 0.5971 0.75114 0.59642 0.0
H2181 H 0.59091 0.74503 0.6317 0.0
H2182 H 0.55399 0.71548 0.6045 0.0
H2183 H 0.55993 0.7217 0.5691 0.0
H2184 H 0.54783 0.73446 0.64324 0.0
H2185 H 0.6018 0.69922 0.64903 0.0
H2186 H 0.60355 0.71997 0.64369 0.0
H2187 H 0.59392 0.70606 0.62443 0.0
C2188 C 0.5875 0.74356 0.59793 0.0
C2189 C 0.57914 0.73671 0.57993 0.0
C2190 C 0.58401 0.74006 0.61811 0.0
C2191 C 0.5722 0.72957 0.62063 0.0
C2192 C 0.5632 0.72356 0.60283 0.0
H2193 H 0.54016 0.6722 0.71258 0.0
H2194 H 0.54246 0.68947 0.68389 0.0
C2195 C 0.56663 0.72711 0.58262 0.0
C2196 C 0.57005 0.72368 0.64151 0.0
H2197 H 0.58681 0.70022 0.67814 0.0
C2198 C 0.55637 0.72707 0.65099 0.0
C2199 C 0.58123 0.71403 0.65151 0.0
C2200 C 0.59591 0.70946 0.64163 0.0
C2201 C 0.55354 0.72095 0.67024 0.0
C2202 C 0.56459 0.711 0.67998 0.0
C2203 C 0.5784 0.70795 0.67071 0.0
C2204 C 0.56177 0.70248 0.69883 0.0
C2205 C 0.53876 0.72517 0.67995 0.0
C2206 C 0.57182 0.70407 0.71685 0.0
C2207 C 0.57063 0.69409 0.73325 0.0
C2208 C 0.55941 0.68224 0.73182 0.0
C2209 C 0.54893 0.6812 0.7142 0.0
C2210 C 0.55014 0.69117 0.69783 0.0
H2211 H 0.53386 0.73665 0.67456 0.0
H2212 H 0.53055 0.71545 0.67504 0.0
H2213 H 0.54021 0.72633 0.69747 0.0
H2214 H 0.58094 0.71266 0.71786 0.0
H2215 H 0.57887 0.69522 0.7466 0.0
H2216 H 0.82227 0.45461 0.77017 0.0
H2217 H 0.80432 0.45085 0.79698 0.0
H2218 H 0.82573 0.40512 0.80884 0.0
H2219 H 0.84345 0.4086 0.78198 0.0
H2220 H 0.79408 0.4044 0.80709 0.0
H2221 H 0.81701 0.45607 0.86047 0.0
H2222 H 0.81025 0.46032 0.83424 0.0
H2223 H 0.82671 0.44767 0.83793 0.0
C2224 C 0.82304 0.44368 0.77836 0.0
C2225 C 0.83437 0.43195 0.77408 0.0
C2226 C 0.81283 0.4416 0.79372 0.0
C2227 C 0.81385 0.42782 0.80508 0.0
C2228 C 0.82477 0.41586 0.80027 0.0
H2229 H 0.80051 0.39883 0.92345 0.0
H2230 H 0.80749 0.4109 0.89201 0.0
C2231 C 0.83493 0.41789 0.78494 0.0
C2232 C 0.80414 0.42593 0.82271 0.0
H2233 H 0.79929 0.43978 0.87388 0.0
C2234 C 0.79495 0.41228 0.82158 0.0
C2235 C 0.80541 0.43625 0.84158 0.0
C2236 C 0.81543 0.45086 0.84383 0.0
C2237 C 0.78766 0.40815 0.83922 0.0
C2238 C 0.78942 0.41812 0.85835 0.0
C2239 C 0.79791 0.43226 0.85912 0.0
C2240 C 0.78456 0.41277 0.8784 0.0
C2241 C 0.77901 0.39257 0.83766 0.0
C2242 C 0.76928 0.41027 0.88149 0.0
C2243 C 0.76523 0.40327 0.89952 0.0
C2244 C 0.77643 0.39871 0.91467 0.0
C2245 C 0.79162 0.40206 0.91201 0.0
C2246 C 0.79563 0.40903 0.89407 0.0
H2247 H 0.78062 0.38511 0.82263 0.0
H2248 H 0.78259 0.38531 0.85103 0.0
H2249 H 0.76676 0.39537 0.8385 0.0
H2250 H 0.76056 0.41332 0.8697 0.0
H2251 H 0.75342 0.40091 0.90119 0.0
H2252 H 0.94403 0.82921 0.45978 0.0
H2253 H 0.93222 0.80646 0.43822 0.0
H2254 H 0.88908 0.81994 0.46252 0.0
H2255 H 0.9007 0.84285 0.4838 0.0
H2256 H 0.91429 0.77971 0.44636 0.0
H2257 H 0.88199 0.82369 0.39879 0.0
H2258 H 0.89747 0.82972 0.41742 0.0
H2259 H 0.87933 0.82559 0.42661 0.0
C2260 C 0.93209 0.82716 0.46082 0.0
C2261 C 0.92324 0.83797 0.47319 0.0
C2262 C 0.92536 0.81416 0.44851 0.0
C2263 C 0.90972 0.81176 0.44846 0.0
C2264 C 0.9011 0.82181 0.462 0.0
H2265 H 0.85652 0.75368 0.34955 0.0
H2266 H 0.86286 0.76877 0.38375 0.0
C2267 C 0.90778 0.83486 0.47418 0.0
C2268 C 0.90233 0.79962 0.43295 0.0
H2269 H 0.87898 0.79623 0.38803 0.0
C2270 C 0.90645 0.78327 0.43371 0.0
C2271 C 0.89201 0.80431 0.41657 0.0
C2272 C 0.88748 0.82178 0.4146 0.0
C2273 C 0.90083 0.77152 0.41816 0.0
C2274 C 0.89109 0.77633 0.40123 0.0
C2275 C 0.88642 0.79256 0.40104 0.0
C2276 C 0.88702 0.76526 0.3823 0.0
C2277 C 0.90551 0.75409 0.41988 0.0
C2278 C 0.8985 0.75824 0.37025 0.0
C2279 C 0.89494 0.74969 0.35082 0.0
C2280 C 0.87982 0.74809 0.3429 0.0
C2281 C 0.86827 0.75466 0.35527 0.0
C2282 C 0.87186 0.76327 0.37478 0.0
H2283 H 0.90812 0.75161 0.43662 0.0
H2284 H 0.89656 0.74573 0.41288 0.0
H2285 H 0.91591 0.7515 0.41134 0.0
H2286 H 0.91028 0.75998 0.37543 0.0
H2287 H 0.90411 0.74478 0.34169 0.0
H2288 H 0.4254 0.43201 0.52479 0.0
H2289 H 0.39853 0.43211 0.53125 0.0
H2290 H 0.40166 0.3814 0.54125 0.0
H2291 H 0.42849 0.38126 0.53532 0.0
H2292 H 0.37975 0.41447 0.50445 0.0
H2293 H 0.37263 0.39692 0.58486 0.0
H2294 H 0.39034 0.40414 0.57707 0.0
H2295 H 0.38526 0.38328 0.57111 0.0
C2296 C 0.42049 0.421 0.52908 0.0
C2297 C 0.42907 0.40657 0.52927 0.0
C2298 C 0.40511 0.42109 0.53276 0.0
C2299 C 0.39806 0.40679 0.53683 0.0
C2300 C 0.40686 0.39267 0.53859 0.0
H2301 H 0.31542 0.35903 0.51119 0.0
H2302 H 0.34018 0.36882 0.52513 0.0
C2303 C 0.42224 0.39258 0.53501 0.0
C2304 C 0.38132 0.40583 0.53548 0.0
H2305 H 0.35162 0.39097 0.55902 0.0
C2306 C 0.37353 0.40972 0.51662 0.0
C2307 C 0.37323 0.39951 0.55128 0.0
C2308 C 0.3808 0.39588 0.5723 0.0
C2309 C 0.3581 0.40655 0.51255 0.0
C2310 C 0.35014 0.39957 0.52796 0.0
C2311 C 0.35775 0.39633 0.54723 0.0
C2312 C 0.33437 0.39411 0.5233 0.0
C2313 C 0.35069 0.40977 0.49123 0.0
C2314 C 0.3227 0.40514 0.51852 0.0
C2315 C 0.30854 0.39958 0.51036 0.0
C2316 C 0.3058 0.38289 0.50702 0.0
C2317 C 0.31717 0.37195 0.5134 0.0
C2318 C 0.33134 0.37753 0.52145 0.0
H2319 H 0.35909 0.41228 0.47977 0.0
H2320 H 0.34383 0.3993 0.48448 0.0
H2321 H 0.34303 0.42046 0.49305 0.0
H2322 H 0.32475 0.41801 0.52019 0.0
H2323 H 0.29997 0.40833 0.50582 0.0
H2324 H 0.39969 0.39619 0.22607 0.0
H2325 H 0.3957 0.36735 0.22134 0.0
H2326 H 0.35887 0.37455 0.17506 0.0
H2327 H 0.36215 0.40385 0.18107 0.0
H2328 H 0.3493 0.35684 0.19981 0.0
H2329 H 0.40438 0.32971 0.18364 0.0
H2330 H 0.4076 0.34324 0.20679 0.0
H2331 H 0.40091 0.35107 0.18213 0.0
C2332 C 0.39102 0.39166 0.2144 0.0
C2333 C 0.3812 0.40233 0.204 0.0
C2334 C 0.38883 0.37502 0.21151 0.0
C2335 C 0.37713 0.36854 0.19754 0.0
C2336 C 0.36799 0.37916 0.18594 0.0
H2337 H 0.37197 0.26577 0.22057 0.0
H2338 H 0.37434 0.28891 0.19948 0.0
C2339 C 0.3699 0.39591 0.18929 0.0
C2340 C 0.37309 0.35121 0.19783 0.0
H2341 H 0.38908 0.31447 0.20662 0.0
C2342 C 0.35799 0.3475 0.20064 0.0
C2343 C 0.38414 0.33864 0.19818 0.0
C2344 C 0.4001 0.3409 0.19223 0.0
C2345 C 0.35398 0.33216 0.20589 0.0
C2346 C 0.36547 0.32045 0.20959 0.0
C2347 C 0.38028 0.32357 0.20459 0.0
C2348 C 0.36272 0.30588 0.22084 0.0
C2349 C 0.33748 0.32889 0.20783 0.0
C2350 C 0.35543 0.30761 0.23986 0.0
C2351 C 0.35375 0.2944 0.25156 0.0
C2352 C 0.35979 0.27918 0.24495 0.0
C2353 C 0.36716 0.27736 0.226 0.0
C2354 C 0.36853 0.29057 0.21397 0.0
H2355 H 0.33033 0.33517 0.19597 0.0
H2356 H 0.33503 0.31577 0.20561 0.0
H2357 H 0.33415 0.33374 0.22367 0.0
H2358 H 0.35144 0.31934 0.24612 0.0
H2359 H 0.34825 0.29629 0.26628 0.0
H2360 H 0.34373 0.23085 0.35317 0.0
H2361 H 0.32638 0.24706 0.37479 0.0
H2362 H 0.3066 0.26763 0.31926 0.0
H2363 H 0.32392 0.25146 0.29741 0.0
H2364 H 0.32823 0.28145 0.3747 0.0
H2365 H 0.26972 0.25996 0.35438 0.0
H2366 H 0.28622 0.24729 0.34992 0.0
H2367 H 0.28086 0.26252 0.33233 0.0
C2368 C 0.3354 0.23844 0.34541 0.0
C2369 C 0.33535 0.23999 0.32356 0.0
C2370 C 0.32549 0.2477 0.35783 0.0
C2371 C 0.31522 0.25852 0.34863 0.0
C2372 C 0.31431 0.25919 0.32663 0.0
H2373 H 0.26249 0.34183 0.39026 0.0
H2374 H 0.27346 0.31807 0.37131 0.0
C2375 C 0.32426 0.24995 0.31417 0.0
C2376 C 0.30723 0.2708 0.36224 0.0
H2377 H 0.27233 0.28545 0.37433 0.0
C2378 C 0.31601 0.28222 0.37485 0.0
C2379 C 0.29131 0.27187 0.36212 0.0
C2380 C 0.28142 0.2597 0.3491 0.0
C2381 C 0.30931 0.29498 0.38694 0.0
C2382 C 0.29335 0.29608 0.38691 0.0
C2383 C 0.28455 0.28453 0.37445 0.0
C2384 C 0.28566 0.30961 0.39892 0.0
C2385 C 0.31941 0.30754 0.3989 0.0
C2386 C 0.28854 0.31252 0.42086 0.0
C2387 C 0.28243 0.32622 0.43172 0.0
C2388 C 0.27313 0.33711 0.42087 0.0
C2389 C 0.26966 0.33372 0.39908 0.0
C2390 C 0.27589 0.32012 0.38822 0.0
H2391 H 0.33089 0.30729 0.39283 0.0
H2392 H 0.3145 0.31988 0.3979 0.0
H2393 H 0.32068 0.30507 0.41578 0.0
H2394 H 0.29575 0.30435 0.42954 0.0
H2395 H 0.28518 0.32838 0.44854 0.0
H2396 H 0.06866 0.10332 0.71837 0.0
H2397 H 0.07471 0.08859 0.68508 0.0
H2398 H 0.03277 0.10517 0.65539 0.0
H2399 H 0.02678 0.12031 0.68854 0.0
H2400 H 0.06095 0.06488 0.65808 0.0
H2401 H 0.06411 0.12215 0.61938 0.0
H2402 H 0.06278 0.12179 0.64747 0.0
H2403 H 0.04622 0.11876 0.62979 0.0
C2404 C 0.06062 0.1037 0.70484 0.0
C2405 C 0.04733 0.11318 0.70602 0.0
C2406 C 0.0641 0.09525 0.68582 0.0
C2407 C 0.05435 0.09607 0.66766 0.0
C2408 C 0.04062 0.10469 0.6691 0.0
H2409 H 0.07286 0.03866 0.54906 0.0
H2410 H 0.06051 0.04967 0.58061 0.0
C2411 C 0.03718 0.11327 0.68809 0.0
C2412 C 0.05906 0.08868 0.64705 0.0
H2413 H 0.06852 0.09798 0.59845 0.0
C2414 C 0.06251 0.07207 0.64496 0.0
C2415 C 0.06127 0.09816 0.63009 0.0
C2416 C 0.05855 0.11622 0.63176 0.0
C2417 C 0.06835 0.06471 0.62647 0.0
C2418 C 0.07049 0.07419 0.60948 0.0
C2419 C 0.06676 0.09073 0.61145 0.0
C2420 C 0.07762 0.06753 0.59013 0.0
C2421 C 0.07276 0.04703 0.62562 0.0
C2422 C 0.09109 0.07422 0.5847 0.0
C2423 C 0.09805 0.06812 0.56661 0.0
C2424 C 0.09169 0.05517 0.55357 0.0
C2425 C 0.07809 0.04858 0.55888 0.0
C2426 C 0.07107 0.05478 0.57696 0.0
H2427 H 0.07367 0.04248 0.64158 0.0
H2428 H 0.06402 0.0399 0.61583 0.0
H2429 H 0.08373 0.04485 0.61834 0.0
H2430 H 0.09632 0.0841 0.59461 0.0
H2431 H 0.1085 0.07348 0.56299 0.0
H2432 H 0.64275 0.21116 0.09662 0.0
H2433 H 0.66625 0.20678 0.11754 0.0
H2434 H 0.68207 0.25336 0.1041 0.0
H2435 H 0.65854 0.25779 0.08272 0.0
H2436 H 0.70386 0.22955 0.09966 0.0
H2437 H 0.67859 0.2273 0.17617 0.0
H2438 H 0.66908 0.21379 0.15639 0.0
H2439 H 0.66843 0.23522 0.15366 0.0
C2440 C 0.65119 0.22051 0.0981 0.0
C2441 C 0.64874 0.23485 0.08808 0.0
C2442 C 0.66457 0.21805 0.11023 0.0
C2443 C 0.67573 0.22993 0.11282 0.0
C2444 C 0.67351 0.24414 0.1025 0.0
H2445 H 0.74513 0.19406 0.20153 0.0
H2446 H 0.73084 0.21599 0.18541 0.0
C2447 C 0.66008 0.24661 0.09027 0.0
C2448 C 0.68992 0.22693 0.12561 0.0
H2449 H 0.7023 0.21237 0.17221 0.0
C2450 C 0.70363 0.22618 0.11573 0.0
C2451 C 0.68975 0.22308 0.1468 0.0
C2452 C 0.67568 0.22508 0.15893 0.0
C2453 C 0.71683 0.22004 0.12576 0.0
C2454 C 0.71615 0.21419 0.14591 0.0
C2455 C 0.70283 0.21659 0.15661 0.0
C2456 C 0.72784 0.20305 0.15446 0.0
C2457 C 0.7312 0.21924 0.11427 0.0
C2458 C 0.73128 0.18873 0.1423 0.0
C2459 C 0.73938 0.17629 0.15141 0.0
C2460 C 0.74411 0.1778 0.17298 0.0
C2461 C 0.74165 0.19257 0.18486 0.0
C2462 C 0.73348 0.20508 0.17568 0.0
H2463 H 0.73185 0.22974 0.10467 0.0
H2464 H 0.74139 0.21903 0.12538 0.0
H2465 H 0.73123 0.20814 0.10326 0.0
H2466 H 0.72676 0.18663 0.12609 0.0
H2467 H 0.74117 0.16508 0.14181 0.0
H2468 H 0.41121 0.47321 0.29095 0.0
H2469 H 0.42382 0.46696 0.32488 0.0
H2470 H 0.40674 0.41846 0.31551 0.0
H2471 H 0.39415 0.42453 0.28182 0.0
H2472 H 0.40807 0.45599 0.35948 0.0
H2473 H 0.45247 0.41249 0.33252 0.0
H2474 H 0.44325 0.42661 0.31556 0.0
H2475 H 0.43397 0.40832 0.32023 0.0
C2476 C 0.41035 0.46115 0.29599 0.0
C2477 C 0.40167 0.44937 0.28374 0.0
C2478 C 0.41751 0.45762 0.31537 0.0
C2479 C 0.41631 0.44221 0.32254 0.0
C2480 C 0.40798 0.43035 0.31009 0.0
H2481 H 0.41838 0.40219 0.44101 0.0
H2482 H 0.41225 0.41472 0.40806 0.0
C2483 C 0.40073 0.43388 0.29089 0.0
C2484 C 0.42279 0.43866 0.34368 0.0
H2485 H 0.44634 0.41228 0.36859 0.0
C2486 C 0.41662 0.44663 0.36154 0.0
C2487 C 0.43401 0.42653 0.34627 0.0
C2488 C 0.44143 0.41808 0.32764 0.0
C2489 C 0.42085 0.44219 0.38191 0.0
C2490 C 0.4314 0.42939 0.38437 0.0
C2491 C 0.43814 0.422 0.36661 0.0
C2492 C 0.43498 0.42285 0.40505 0.0
C2493 C 0.41382 0.45104 0.40059 0.0
C2494 C 0.44982 0.42316 0.41416 0.0
C2495 C 0.45337 0.416 0.43299 0.0
C2496 C 0.44216 0.40823 0.44289 0.0
C2497 C 0.42726 0.40809 0.43381 0.0
C2498 C 0.42372 0.41533 0.41505 0.0
H2499 H 0.40929 0.4631 0.39681 0.0
H2500 H 0.4043 0.44388 0.40514 0.0
H2501 H 0.42215 0.45263 0.41439 0.0
H2502 H 0.45867 0.42881 0.40658 0.0
H2503 H 0.46496 0.41628 0.43954 0.0
H2504 H 0.66185 0.51337 0.5277 0.0
H2505 H 0.67974 0.51652 0.55873 0.0
H2506 H 0.68938 0.5648 0.54371 0.0
H2507 H 0.67223 0.56145 0.51229 0.0
H2508 H 0.71368 0.55137 0.56259 0.0
H2509 H 0.66323 0.54277 0.60799 0.0
H2510 H 0.66885 0.5257 0.59094 0.0
H2511 H 0.66178 0.54379 0.5798 0.0
C2512 C 0.66816 0.52446 0.53069 0.0
C2513 C 0.6654 0.53731 0.51784 0.0
C2514 C 0.67827 0.52628 0.54851 0.0
C2515 C 0.68544 0.54111 0.55396 0.0
C2516 C 0.68386 0.55329 0.53994 0.0
H2517 H 0.69699 0.60425 0.66032 0.0
H2518 H 0.68936 0.5849 0.63085 0.0
C2519 C 0.67401 0.55137 0.52194 0.0
C2520 C 0.69291 0.54501 0.57526 0.0
H2521 H 0.68488 0.5527 0.6269 0.0
C2522 C 0.70752 0.55139 0.57677 0.0
C2523 C 0.68477 0.54509 0.59371 0.0
C2524 C 0.66876 0.5391 0.59314 0.0
C2525 C 0.71378 0.55894 0.59584 0.0
C2526 C 0.70536 0.55962 0.61402 0.0
C2527 C 0.69127 0.55212 0.61289 0.0
C2528 C 0.70975 0.57017 0.63329 0.0
C2529 C 0.72881 0.56719 0.59591 0.0
C2530 C 0.72357 0.56807 0.64486 0.0
C2531 C 0.72806 0.57929 0.66164 0.0
C2532 C 0.71868 0.59262 0.66726 0.0
C2533 C 0.7045 0.59415 0.65638 0.0
C2534 C 0.70011 0.58307 0.63953 0.0
H2535 H 0.73252 0.56793 0.57969 0.0
H2536 H 0.72821 0.57962 0.60378 0.0
H2537 H 0.73755 0.56027 0.6048 0.0
H2538 H 0.73101 0.55798 0.64063 0.0
H2539 H 0.73901 0.57771 0.66988 0.0
H2540 H 0.2567 0.90464 0.89443 0.0
H2541 H 0.26922 0.91286 0.86421 0.0
H2542 H 0.2909 0.95162 0.90366 0.0
H2543 H 0.2787 0.94321 0.93426 0.0
H2544 H 0.2718 0.94051 0.84321 0.0
H2545 H 0.32637 0.92333 0.8843 0.0
H2546 H 0.30835 0.91885 0.8938 0.0
H2547 H 0.31571 0.93895 0.89821 0.0
C2548 C 0.26389 0.91512 0.89667 0.0
C2549 C 0.26695 0.92307 0.91687 0.0
C2550 C 0.27102 0.91982 0.87933 0.0
C2551 C 0.28126 0.93259 0.88182 0.0
C2552 C 0.28329 0.94148 0.90154 0.0
H2553 H 0.33008 0.96068 0.77499 0.0
H2554 H 0.31307 0.9613 0.80382 0.0
C2555 C 0.27625 0.93671 0.91897 0.0
C2556 C 0.2909 0.93531 0.86436 0.0
H2557 H 0.32738 0.93194 0.8503 0.0
C2558 C 0.28397 0.93881 0.84476 0.0
C2559 C 0.30675 0.93279 0.8664 0.0
C2560 C 0.31477 0.92814 0.88672 0.0
C2561 C 0.29246 0.93958 0.82701 0.0
C2562 C 0.3083 0.93705 0.82909 0.0
C2563 C 0.31523 0.93392 0.8488 0.0
C2564 C 0.31789 0.93661 0.81087 0.0
C2565 C 0.28436 0.94243 0.80603 0.0
C2566 C 0.32637 0.92259 0.80543 0.0
C2567 C 0.3362 0.92225 0.78917 0.0
C2568 C 0.33774 0.93594 0.778 0.0
C2569 C 0.32905 0.9499 0.78321 0.0
C2570 C 0.31927 0.95026 0.79961 0.0
H2571 H 0.272 0.94044 0.80608 0.0
H2572 H 0.28603 0.95512 0.80255 0.0
H2573 H 0.28895 0.93436 0.7931 0.0
H2574 H 0.32548 0.91193 0.81395 0.0
H2575 H 0.3427 0.91131 0.78553 0.0
H2576 H 0.7339 0.10839 0.11919 0.0
H2577 H 0.72365 0.09226 0.08793 0.0
H2578 H 0.73719 0.04853 0.11649 0.0
H2579 H 0.74741 0.06463 0.14815 0.0
H2580 H 0.73617 0.06697 0.05945 0.0
H2581 H 0.69051 0.04613 0.10652 0.0
H2582 H 0.70245 0.06284 0.11618 0.0
H2583 H 0.70978 0.04252 0.11577 0.0
C2584 C 0.73486 0.09534 0.11881 0.0
C2585 C 0.74126 0.08778 0.13629 0.0
C2586 C 0.72909 0.08615 0.10085 0.0
C2587 C 0.72955 0.06924 0.10003 0.0
C2588 C 0.73661 0.06159 0.11696 0.0
H2589 H 0.6628 0.01867 0.0138 0.0
H2590 H 0.68645 0.0208 0.03577 0.0
C2591 C 0.74244 0.07081 0.135 0.0
C2592 C 0.72122 0.05993 0.08227 0.0
H2593 H 0.68766 0.04105 0.06997 0.0
C2594 C 0.72571 0.06097 0.0617 0.0
C2595 C 0.70766 0.05204 0.08532 0.0
C2596 C 0.70219 0.05082 0.10708 0.0
C2597 C 0.71654 0.05508 0.04401 0.0
C2598 C 0.70242 0.04831 0.04704 0.0
C2599 C 0.69849 0.04624 0.06764 0.0
C2600 C 0.69056 0.04552 0.02966 0.0
C2601 C 0.72188 0.05659 0.02227 0.0
C2602 C 0.6853 0.05849 0.01826 0.0
C2603 C 0.67183 0.05729 0.00561 0.0
C2604 C 0.66324 0.04317 0.00441 0.0
C2605 C 0.6691 0.02976 0.01453 0.0
C2606 C 0.68264 0.03094 0.02707 0.0
H2607 H 0.73441 0.05572 0.02244 0.0
H2608 H 0.71699 0.04712 0.01057 0.0
H2609 H 0.71843 0.06862 0.01709 0.0
H2610 H 0.69098 0.06999 0.02036 0.0
H2611 H 0.66765 0.06784 0.99803 0.0
H2612 H 0.43781 0.89963 0.92346 0.0
H2613 H 0.42864 0.91155 0.89126 0.0
H2614 H 0.45451 0.95436 0.91032 0.0
H2615 H 0.46396 0.94241 0.94268 0.0
H2616 H 0.41206 0.94054 0.88945 0.0
H2617 H 0.46559 0.94208 0.84873 0.0
H2618 H 0.46349 0.92978 0.87039 0.0
H2619 H 0.46592 0.95119 0.87542 0.0
C2620 C 0.44165 0.91154 0.92082 0.0
C2621 C 0.45161 0.92008 0.93567 0.0
C2622 C 0.43639 0.91833 0.90238 0.0
C2623 C 0.441 0.93376 0.89835 0.0
C2624 C 0.45101 0.94232 0.91302 0.0
H2625 H 0.38869 0.98253 0.80028 0.0
H2626 H 0.40407 0.97859 0.83283 0.0
C2627 C 0.45632 0.93551 0.93153 0.0
C2628 C 0.43466 0.94097 0.87915 0.0
H2629 H 0.44359 0.95225 0.83119 0.0
C2630 C 0.41895 0.94326 0.87678 0.0
C2631 C 0.44372 0.94438 0.86266 0.0
C2632 C 0.46061 0.94165 0.86423 0.0
C2633 C 0.41196 0.94847 0.85812 0.0
C2634 C 0.42099 0.95181 0.84154 0.0
C2635 C 0.43675 0.94985 0.84405 0.0
C2636 C 0.41403 0.95592 0.82087 0.0
C2637 C 0.39491 0.94963 0.85596 0.0
C2638 C 0.41525 0.94496 0.80303 0.0
C2639 C 0.40658 0.94724 0.78435 0.0
C2640 C 0.39652 0.9605 0.78328 0.0
C2641 C 0.39619 0.97209 0.80069 0.0
C2642 C 0.40494 0.96984 0.81932 0.0
H2643 H 0.38961 0.94348 0.86838 0.0
H2644 H 0.39134 0.96253 0.85741 0.0
H2645 H 0.39051 0.94419 0.84027 0.0
H2646 H 0.42226 0.93417 0.8039 0.0
H2647 H 0.40717 0.93813 0.77119 0.0
H2648 H 0.65245 0.71592 0.53314 0.0
H2649 H 0.6753 0.70294 0.54819 0.0
H2650 H 0.64804 0.67688 0.58716 0.0
H2651 H 0.62526 0.68958 0.57211 0.0
H2652 H 0.68481 0.70662 0.59048 0.0
H2653 H 0.67698 0.64181 0.56507 0.0
H2654 H 0.66639 0.65761 0.5526 0.0
H2655 H 0.66066 0.65075 0.57689 0.0
C2656 C 0.6513 0.7071 0.54451 0.0
C2657 C 0.63703 0.7038 0.55146 0.0
C2658 C 0.66437 0.69976 0.55316 0.0
C2659 C 0.66337 0.68885 0.56868 0.0
C2660 C 0.64909 0.68502 0.57493 0.0
H2661 H 0.72061 0.66624 0.67516 0.0
H2662 H 0.70362 0.67871 0.64923 0.0
C2663 C 0.63605 0.69237 0.56638 0.0
C2664 C 0.6772 0.68262 0.57993 0.0
H2665 H 0.69407 0.64794 0.5956 0.0
C2666 C 0.68699 0.69378 0.59132 0.0
C2667 C 0.68015 0.66589 0.58085 0.0
C2668 C 0.67057 0.65332 0.56802 0.0
C2669 C 0.6992 0.68865 0.60446 0.0
C2670 C 0.70152 0.67194 0.60649 0.0
C2671 C 0.6922 0.66077 0.59424 0.0
C2672 C 0.71298 0.66574 0.622 0.0
C2673 C 0.70939 0.70119 0.61619 0.0
C2674 C 0.72392 0.65431 0.61537 0.0
C2675 C 0.73361 0.64709 0.63019 0.0
C2676 C 0.73248 0.65108 0.65197 0.0
C2677 C 0.72187 0.66297 0.65853 0.0
C2678 C 0.71218 0.67017 0.6437 0.0
H2679 H 0.70919 0.71251 0.60805 0.0
H2680 H 0.70539 0.7042 0.63222 0.0
H2681 H 0.72124 0.69665 0.61787 0.0
H2682 H 0.7247 0.65067 0.59873 0.0
H2683 H 0.74161 0.63796 0.62457 0.0
H2684 H 0.33867 0.40364 0.27377 0.0
H2685 H 0.3205 0.40199 0.30049 0.0
H2686 H 0.30396 0.45003 0.28987 0.0
H2687 H 0.32244 0.45195 0.26332 0.0
H2688 H 0.31134 0.44751 0.33046 0.0
H2689 H 0.27587 0.39559 0.30143 0.0
H2690 H 0.29542 0.38992 0.30029 0.0
H2691 H 0.28761 0.4054 0.28435 0.0
C2692 C 0.33097 0.41374 0.27675 0.0
C2693 C 0.33208 0.42797 0.26652 0.0
C2694 C 0.32046 0.41272 0.29193 0.0
C2695 C 0.31069 0.4258 0.29698 0.0
C2696 C 0.31131 0.43976 0.28611 0.0
H2697 H 0.25854 0.40497 0.40418 0.0
H2698 H 0.26267 0.41564 0.37028 0.0
C2699 C 0.32188 0.44082 0.27095 0.0
C2700 C 0.30146 0.42555 0.31553 0.0
H2701 H 0.27948 0.40059 0.33995 0.0
C2702 C 0.30403 0.43747 0.33232 0.0
C2703 C 0.29165 0.4127 0.31789 0.0
C2704 C 0.28736 0.4003 0.29989 0.0
C2705 C 0.29821 0.43605 0.35201 0.0
C2706 C 0.28989 0.42219 0.35505 0.0
C2707 C 0.2861 0.41109 0.33772 0.0
C2708 C 0.28687 0.41783 0.37644 0.0
C2709 C 0.30154 0.44909 0.36958 0.0
C2710 C 0.29908 0.41564 0.39114 0.0
C2711 C 0.29678 0.40957 0.41039 0.0
C2712 C 0.28222 0.40544 0.41531 0.0
C2713 C 0.26989 0.40812 0.40088 0.0
C2714 C 0.27223 0.41418 0.38151 0.0
H2715 H 0.30269 0.46102 0.3632 0.0
H2716 H 0.29254 0.45005 0.38097 0.0
H2717 H 0.31243 0.44623 0.37818 0.0
H2718 H 0.31053 0.41798 0.38737 0.0
H2719 H 0.30652 0.40763 0.42113 0.0
loop_
_geom_bond_atom_site_label_1
_geom_bond_atom_site_label_2
_geom_bond_distance
_geom_bond_site_symmetry_2
_ccdc_geom_bond_type
C0 O1 1.160 . S
C0 O7 1.185 . S
O1 C0 1.160 . S
O2 Zn3 1.899 . S
O2 C10 1.284 . S
Zn3 O2 1.899 . S
Zn3 O4 2.032 . S
Zn3 O7 2.086 . S
Zn3 O12 1.977 . S
O4 Zn3 2.032 . S
O4 C8 1.278 . S
C5 O6 1.203 . S
C5 O12 1.267 . S
O6 C5 1.203 . S
O7 C0 1.185 . S
O7 Zn3 2.086 . S
C8 O4 1.278 . S
C8 O9 1.211 . S
O9 C8 1.211 . S
C10 O2 1.284 . S
C10 O11 1.273 . S
O11 C10 1.273 . S
O12 Zn3 1.977 . S
O12 C5 1.267 . S
C13 O14 1.160 . S
C13 O20 1.185 . S
O14 C13 1.160 . S
O15 Zn16 1.899 . S
O15 C23 1.284 . S
Zn16 O15 1.899 . S
Zn16 O17 2.032 . S
Zn16 O20 2.086 . S
Zn16 O25 1.977 . S
O17 Zn16 2.032 . S
O17 C21 1.278 . S
C18 O19 1.203 . S
C18 O25 1.267 . S
O19 C18 1.203 . S
O20 C13 1.185 . S
O20 Zn16 2.086 . S
C21 O17 1.278 . S
C21 O22 1.211 . S
O22 C21 1.211 . S
C23 O15 1.284 . S
C23 O24 1.273 . S
O24 C23 1.273 . S
O25 Zn16 1.977 . S
O25 C18 1.267 . S
C26 O27 1.160 . S
C26 O33 1.185 . S
O27 C26 1.160 . S
O28 Zn29 1.899 . S
O28 C36 1.284 . S
Zn29 O28 1.899 . S
Zn29 O30 2.032 . S
Zn29 O33 2.086 . S
Zn29 O38 1.977 . S
O30 Zn29 2.032 . S
O30 C34 1.278 . S
C31 O32 1.203 . S
C31 O38 1.267 . S
O32 C31 1.203 . S
O33 C26 1.185 . S
O33 Zn29 2.086 . S
C34 O30 1.278 . S
C34 O35 1.211 . S
O35 C34 1.211 . S
C36 O28 1.284 . S
C36 O37 1.273 . S
O37 C36 1.273 . S
O38 Zn29 1.977 . S
O38 C31 1.267 . S
C39 O40 1.160 . S
C39 O46 1.185 . S
O40 C39 1.160 . S
O41 Zn42 1.899 . S
O41 C49 1.284 . S
Zn42 O41 1.899 . S
Zn42 O43 2.032 . S
Zn42 O46 2.086 . S
Zn42 O51 1.977 . S
O43 Zn42 2.032 . S
O43 C47 1.278 . S
C44 O45 1.203 . S
C44 O51 1.267 . S
O45 C44 1.203 . S
O46 C39 1.185 . S
O46 Zn42 2.086 . S
C47 O43 1.278 . S
C47 O48 1.211 . S
O48 C47 1.211 . S
C49 O41 1.284 . S
C49 O50 1.273 . S
O50 C49 1.273 . S
O51 Zn42 1.977 . S
O51 C44 1.267 . S
C52 O53 1.160 . S
C52 O59 1.185 . S
O53 C52 1.160 . S
O54 Zn55 1.899 . S
O54 C62 1.284 . S
Zn55 O54 1.899 . S
Zn55 O56 2.032 . S
Zn55 O59 2.086 . S
Zn55 O64 1.977 . S
O56 Zn55 2.032 . S
O56 C60 1.278 . S
C57 O58 1.203 . S
C57 O64 1.267 . S
O58 C57 1.203 . S
O59 C52 1.185 . S
O59 Zn55 2.086 . S
C60 O56 1.278 . S
C60 O61 1.211 . S
O61 C60 1.211 . S
C62 O54 1.284 . S
C62 O63 1.273 . S
O63 C62 1.273 . S
O64 Zn55 1.977 . S
O64 C57 1.267 . S
C65 O66 1.160 . S
C65 O72 1.185 . S
O66 C65 1.160 . S
O67 Zn68 1.899 . S
O67 C75 1.284 . S
Zn68 O67 1.899 . S
Zn68 O69 2.032 . S
Zn68 O72 2.086 . S
Zn68 O77 1.977 . S
O69 Zn68 2.032 . S
O69 C73 1.278 . S
C70 O71 1.203 . S
C70 O77 1.267 . S
O71 C70 1.203 . S
O72 C65 1.185 . S
O72 Zn68 2.086 . S
C73 O69 1.278 . S
C73 O74 1.211 . S
O74 C73 1.211 . S
C75 O67 1.284 . S
C75 O76 1.273 . S
O76 C75 1.273 . S
O77 Zn68 1.977 . S
O77 C70 1.267 . S
C78 O79 1.160 . S
C78 O85 1.185 . S
O79 C78 1.160 . S
O80 Zn81 1.899 . S
O80 C88 1.284 . S
Zn81 O80 1.899 . S
Zn81 O82 2.032 . S
Zn81 O85 2.086 . S
Zn81 O90 1.977 . S
O82 Zn81 2.032 . S
O82 C86 1.278 . S
C83 O84 1.203 . S
C83 O90 1.267 . S
O84 C83 1.203 . S
O85 C78 1.185 . S
O85 Zn81 2.086 . S
C86 O82 1.278 . S
C86 O87 1.211 . S
O87 C86 1.211 . S
C88 O80 1.284 . S
C88 O89 1.273 . S
O89 C88 1.273 . S
O90 Zn81 1.977 . S
O90 C83 1.267 . S
C91 O92 1.160 . S
C91 O98 1.185 . S
O92 C91 1.160 . S
O93 Zn94 1.899 . S
O93 C101 1.284 . S
Zn94 O93 1.899 . S
Zn94 O95 2.032 . S
Zn94 O98 2.086 . S
Zn94 O103 1.977 . S
O95 Zn94 2.032 . S
O95 C99 1.278 . S
C96 O97 1.203 . S
C96 O103 1.267 . S
O97 C96 1.203 . S
O98 C91 1.185 . S
O98 Zn94 2.086 . S
C99 O95 1.278 . S
C99 O100 1.211 . S
O100 C99 1.211 . S
C101 O93 1.284 . S
C101 O102 1.273 . S
O102 C101 1.273 . S
O103 Zn94 1.977 . S
O103 C96 1.267 . S
C104 O105 1.160 . S
C104 O111 1.185 1_556 S
O105 C104 1.160 . S
O106 Zn107 1.899 1_556 S
O106 C114 1.284 . S
Zn107 O106 1.899 1_554 S
Zn107 O108 2.032 . S
Zn107 O111 2.086 . S
Zn107 O116 1.977 . S
O108 Zn107 2.032 . S
O108 C112 1.278 . S
C109 O110 1.203 . S
C109 O116 1.267 . S
O110 C109 1.203 . S
O111 C104 1.185 1_554 S
O111 Zn107 2.086 . S
C112 O108 1.278 . S
C112 O113 1.211 . S
O113 C112 1.211 . S
C114 O106 1.284 . S
C114 O115 1.273 1_556 S
O115 C114 1.273 1_554 S
O116 Zn107 1.977 . S
O116 C109 1.267 . S
C117 O118 1.160 . S
C117 O124 1.185 . S
O118 C117 1.160 . S
O119 Zn120 1.899 . S
O119 C127 1.284 . S
Zn120 O119 1.899 . S
Zn120 O121 2.032 . S
Zn120 O124 2.086 . S
Zn120 O129 1.977 . S
O121 Zn120 2.032 . S
O121 C125 1.278 . S
C122 O123 1.203 . S
C122 O129 1.267 . S
O123 C122 1.203 . S
O124 C117 1.185 . S
O124 Zn120 2.086 . S
C125 O121 1.278 . S
C125 O126 1.211 . S
O126 C125 1.211 . S
C127 O119 1.284 . S
C127 O128 1.273 . S
O128 C127 1.273 . S
O129 Zn120 1.977 . S
O129 C122 1.267 . S
C130 O131 1.160 . S
C130 O137 1.185 . S
O131 C130 1.160 . S
O132 Zn133 1.899 . S
O132 C140 1.284 . S
Zn133 O132 1.899 . S
Zn133 O134 2.032 . S
Zn133 O137 2.086 . S
Zn133 O142 1.977 . S
O134 Zn133 2.032 . S
O134 C138 1.278 . S
C135 O136 1.203 . S
C135 O142 1.267 . S
O136 C135 1.203 . S
O137 C130 1.185 . S
O137 Zn133 2.086 . S
C138 O134 1.278 . S
C138 O139 1.211 . S
O139 C138 1.211 . S
C140 O132 1.284 . S
C140 O141 1.273 . S
O141 C140 1.273 . S
O142 Zn133 1.977 . S
O142 C135 1.267 . S
C143 O144 1.160 . S
C143 O150 1.185 . S
O144 C143 1.160 . S
O145 Zn146 1.899 . S
O145 C153 1.284 . S
Zn146 O145 1.899 . S
Zn146 O147 2.032 . S
Zn146 O150 2.086 . S
Zn146 O155 1.977 . S
O147 Zn146 2.032 . S
O147 C151 1.278 . S
C148 O149 1.203 . S
C148 O155 1.267 . S
O149 C148 1.203 . S
O150 C143 1.185 . S
O150 Zn146 2.086 . S
C151 O147 1.278 . S
C151 O152 1.211 . S
O152 C151 1.211 . S
C153 O145 1.284 . S
C153 O154 1.273 . S
O154 C153 1.273 . S
O155 Zn146 1.977 . S
O155 C148 1.267 . S
C156 O157 1.160 . S
C156 O163 1.185 . S
O157 C156 1.160 . S
O158 Zn159 1.899 . S
O158 C166 1.284 . S
Zn159 O158 1.899 . S
Zn159 O160 2.032 . S
Zn159 O163 2.086 . S
Zn159 O168 1.977 . S
O160 Zn159 2.032 . S
O160 C164 1.278 . S
C161 O162 1.203 . S
C161 O168 1.267 . S
O162 C161 1.203 . S
O163 C156 1.185 . S
O163 Zn159 2.086 . S
C164 O160 1.278 . S
C164 O165 1.211 . S
O165 C164 1.211 . S
C166 O158 1.284 . S
C166 O167 1.273 . S
O167 C166 1.273 . S
O168 Zn159 1.977 . S
O168 C161 1.267 . S
C169 O170 1.160 . S
C169 O176 1.185 . S
O170 C169 1.160 . S
O171 Zn172 1.899 . S
O171 C179 1.284 . S
Zn172 O171 1.899 . S
Zn172 O173 2.032 . S
Zn172 O176 2.086 . S
Zn172 O181 1.977 . S
O173 Zn172 2.032 . S
O173 C177 1.278 . S
C174 O175 1.203 . S
C174 O181 1.267 . S
O175 C174 1.203 . S
O176 C169 1.185 . S
O176 Zn172 2.086 . S
C177 O173 1.278 . S
C177 O178 1.211 . S
O178 C177 1.211 . S
C179 O171 1.284 . S
C179 O180 1.273 . S
O180 C179 1.273 . S
O181 Zn172 1.977 . S
O181 C174 1.267 . S
C182 O183 1.160 . S
C182 O189 1.185 . S
O183 C182 1.160 . S
O184 Zn185 1.899 . S
O184 C192 1.284 . S
Zn185 O184 1.899 . S
Zn185 O186 2.032 . S
Zn185 O189 2.086 . S
Zn185 O194 1.977 . S
O186 Zn185 2.032 . S
O186 C190 1.278 . S
C187 O188 1.203 . S
C187 O194 1.267 . S
O188 C187 1.203 . S
O189 C182 1.185 . S
O189 Zn185 2.086 . S
C190 O186 1.278 . S
C190 O191 1.211 . S
O191 C190 1.211 . S
C192 O184 1.284 . S
C192 O193 1.273 . S
O193 C192 1.273 . S
O194 Zn185 1.977 . S
O194 C187 1.267 . S
C195 O196 1.162 1_556 S
C195 O202 1.182 . S
O196 C195 1.162 1_554 S
O197 Zn198 1.869 1_554 S
O197 C205 1.280 1_554 S
Zn198 O197 1.869 1_556 S
Zn198 O199 2.032 . S
Zn198 O202 2.086 . S
Zn198 O207 1.977 . S
O199 Zn198 2.032 . S
O199 C203 1.278 . S
C200 O201 1.203 . S
C200 O207 1.267 . S
O201 C200 1.203 . S
O202 C195 1.182 . S
O202 Zn198 2.086 . S
C203 O199 1.278 . S
C203 O204 1.211 . S
O204 C203 1.211 . S
C205 O197 1.280 1_556 S
C205 O206 1.273 . S
O206 C205 1.273 . S
O207 Zn198 1.977 . S
O207 C200 1.267 . S
C208 O209 1.160 . S
C208 O215 1.185 1_556 S
O209 C208 1.160 . S
O210 Zn211 1.899 1_556 S
O210 C218 1.284 . S
Zn211 O210 1.899 1_554 S
Zn211 O212 2.032 . S
Zn211 O215 2.086 . S
Zn211 O220 1.977 . S
O212 Zn211 2.032 . S
O212 C216 1.278 . S
C213 O214 1.203 . S
C213 O220 1.267 . S
O214 C213 1.203 . S
O215 C208 1.185 1_554 S
O215 Zn211 2.086 . S
C216 O212 1.278 . S
C216 O217 1.211 . S
O217 C216 1.211 . S
C218 O210 1.284 . S
C218 O219 1.273 1_556 S
O219 C218 1.273 1_554 S
O220 Zn211 1.977 . S
O220 C213 1.267 . S
C221 O222 1.160 . S
C221 O228 1.185 . S
O222 C221 1.160 . S
O223 Zn224 1.899 . S
O223 C231 1.284 . S
Zn224 O223 1.899 . S
Zn224 O225 2.032 . S
Zn224 O228 2.086 . S
Zn224 O233 1.977 . S
O225 Zn224 2.032 . S
O225 C229 1.278 . S
C226 O227 1.203 . S
C226 O233 1.267 . S
O227 C226 1.203 . S
O228 C221 1.185 . S
O228 Zn224 2.086 . S
C229 O225 1.278 . S
C229 O230 1.211 . S
O230 C229 1.211 . S
C231 O223 1.284 . S
C231 O232 1.273 . S
O232 C231 1.273 . S
O233 Zn224 1.977 . S
O233 C226 1.267 . S
C234 O235 1.160 . S
C234 O241 1.185 . S
O235 C234 1.160 . S
O236 Zn237 1.899 . S
O236 C244 1.284 . S
Zn237 O236 1.899 . S
Zn237 O238 2.032 . S
Zn237 O241 2.086 . S
Zn237 O246 1.977 . S
O238 Zn237 2.032 . S
O238 C242 1.278 . S
C239 O240 1.203 . S
C239 O246 1.267 . S
O240 C239 1.203 . S
O241 C234 1.185 . S
O241 Zn237 2.086 . S
C242 O238 1.278 . S
C242 O243 1.211 . S
O243 C242 1.211 . S
C244 O236 1.284 . S
C244 O245 1.273 . S
O245 C244 1.273 . S
O246 Zn237 1.977 . S
O246 C239 1.267 . S
C247 O248 1.160 . S
C247 O254 1.185 . S
O248 C247 1.160 . S
O249 Zn250 1.899 . S
O249 C257 1.284 . S
Zn250 O249 1.899 . S
Zn250 O251 2.032 . S
Zn250 O254 2.086 . S
Zn250 O259 1.977 . S
O251 Zn250 2.032 . S
O251 C255 1.278 . S
C252 O253 1.203 . S
C252 O259 1.267 . S
O253 C252 1.203 . S
O254 C247 1.185 . S
O254 Zn250 2.086 . S
C255 O251 1.278 . S
C255 O256 1.211 . S
O256 C255 1.211 . S
C257 O249 1.284 . S
C257 O258 1.273 . S
O258 C257 1.273 . S
O259 Zn250 1.977 . S
O259 C252 1.267 . S
C260 O261 1.160 . S
C260 O267 1.185 . S
O261 C260 1.160 . S
O262 Zn263 1.899 . S
O262 C270 1.284 . S
Zn263 O262 1.899 . S
Zn263 O264 2.032 . S
Zn263 O267 2.086 . S
Zn263 O272 1.977 . S
O264 Zn263 2.032 . S
O264 C268 1.278 . S
C265 O266 1.203 . S
C265 O272 1.267 . S
O266 C265 1.203 . S
O267 C260 1.185 . S
O267 Zn263 2.086 . S
C268 O264 1.278 . S
C268 O269 1.211 . S
O269 C268 1.211 . S
C270 O262 1.284 . S
C270 O271 1.273 . S
O271 C270 1.273 . S
O272 Zn263 1.977 . S
O272 C265 1.267 . S
C273 O274 1.160 . S
C273 O280 1.185 . S
O274 C273 1.160 . S
O275 Zn276 1.899 . S
O275 C283 1.284 . S
Zn276 O275 1.899 . S
Zn276 O277 2.032 . S
Zn276 O280 2.086 . S
Zn276 O285 1.977 . S
O277 Zn276 2.032 . S
O277 C281 1.278 . S
C278 O279 1.203 . S
C278 O285 1.267 . S
O279 C278 1.203 . S
O280 C273 1.185 . S
O280 Zn276 2.086 . S
C281 O277 1.278 . S
C281 O282 1.211 . S
O282 C281 1.211 . S
C283 O275 1.284 . S
C283 O284 1.273 . S
O284 C283 1.273 . S
O285 Zn276 1.977 . S
O285 C278 1.267 . S
C286 O287 1.157 . S
C286 O293 1.189 1_554 S
O287 C286 1.157 . S
O288 Zn289 1.867 1_554 S
O288 C296 1.280 1_554 S
Zn289 O288 1.867 1_556 S
Zn289 O290 2.032 . S
Zn289 O293 2.086 . S
Zn289 O298 1.977 . S
O290 Zn289 2.032 . S
O290 C294 1.278 . S
C291 O292 1.203 . S
C291 O298 1.267 . S
O292 C291 1.203 . S
O293 C286 1.189 1_556 S
O293 Zn289 2.086 . S
C294 O290 1.278 . S
C294 O295 1.211 . S
O295 C294 1.211 . S
C296 O288 1.280 1_556 S
C296 O297 1.273 . S
O297 C296 1.273 . S
O298 Zn289 1.977 . S
O298 C291 1.267 . S
C299 O300 1.160 . S
C299 O306 1.185 . S
O300 C299 1.160 . S
O301 Zn302 1.899 . S
O301 C309 1.284 . S
Zn302 O301 1.899 . S
Zn302 O303 2.032 . S
Zn302 O306 2.086 . S
Zn302 O311 1.977 . S
O303 Zn302 2.032 . S
O303 C307 1.278 . S
C304 O305 1.203 . S
C304 O311 1.267 . S
O305 C304 1.203 . S
O306 C299 1.185 . S
O306 Zn302 2.086 . S
C307 O303 1.278 . S
C307 O308 1.211 . S
O308 C307 1.211 . S
C309 O301 1.284 . S
C309 O310 1.273 . S
O310 C309 1.273 . S
O311 Zn302 1.977 . S
O311 C304 1.267 . S
C312 O313 1.160 . S
C312 O319 1.185 . S
O313 C312 1.160 . S
O314 Zn315 1.899 . S
O314 C322 1.284 . S
Zn315 O314 1.899 . S
Zn315 O316 2.032 . S
Zn315 O319 2.086 . S
Zn315 O324 1.977 . S
O316 Zn315 2.032 . S
O316 C320 1.278 . S
C317 O318 1.203 . S
C317 O324 1.267 . S
O318 C317 1.203 . S
O319 C312 1.185 . S
O319 Zn315 2.086 . S
C320 O316 1.278 . S
C320 O321 1.211 . S
O321 C320 1.211 . S
C322 O314 1.284 . S
C322 O323 1.273 . S
O323 C322 1.273 . S
O324 Zn315 1.977 . S
O324 C317 1.267 . S
C325 O326 1.160 . S
C325 O332 1.185 . S
O326 C325 1.160 . S
O327 Zn328 1.899 . S
O327 C335 1.284 . S
Zn328 O327 1.899 . S
Zn328 O329 2.032 . S
Zn328 O332 2.086 . S
Zn328 O337 1.977 . S
O329 Zn328 2.032 . S
O329 C333 1.278 . S
C330 O331 1.203 . S
C330 O337 1.267 . S
O331 C330 1.203 . S
O332 C325 1.185 . S
O332 Zn328 2.086 . S
C333 O329 1.278 . S
C333 O334 1.211 . S
O334 C333 1.211 . S
C335 O327 1.284 . S
C335 O336 1.273 . S
O336 C335 1.273 . S
O337 Zn328 1.977 . S
O337 C330 1.267 . S
C338 O339 1.160 . S
C338 O345 1.185 . S
O339 C338 1.160 . S
O340 Zn341 1.899 . S
O340 C348 1.284 . S
Zn341 O340 1.899 . S
Zn341 O342 2.032 . S
Zn341 O345 2.086 . S
Zn341 O350 1.977 . S
O342 Zn341 2.032 . S
O342 C346 1.278 . S
C343 O344 1.203 . S
C343 O350 1.267 . S
O344 C343 1.203 . S
O345 C338 1.185 . S
O345 Zn341 2.086 . S
C346 O342 1.278 . S
C346 O347 1.211 . S
O347 C346 1.211 . S
C348 O340 1.284 . S
C348 O349 1.273 . S
O349 C348 1.273 . S
O350 Zn341 1.977 . S
O350 C343 1.267 . S
C351 O352 1.160 . S
C351 O358 1.185 . S
O352 C351 1.160 . S
O353 Zn354 1.899 . S
O353 C361 1.284 . S
Zn354 O353 1.899 . S
Zn354 O355 2.032 . S
Zn354 O358 2.086 . S
Zn354 O363 1.977 . S
O355 Zn354 2.032 . S
O355 C359 1.278 . S
C356 O357 1.203 . S
C356 O363 1.267 . S
O357 C356 1.203 . S
O358 C351 1.185 . S
O358 Zn354 2.086 . S
C359 O355 1.278 . S
C359 O360 1.211 . S
O360 C359 1.211 . S
C361 O353 1.284 . S
C361 O362 1.273 . S
O362 C361 1.273 . S
O363 Zn354 1.977 . S
O363 C356 1.267 . S
C364 O365 1.160 . S
C364 O371 1.185 . S
O365 C364 1.160 . S
O366 Zn367 1.899 . S
O366 C374 1.284 . S
Zn367 O366 1.899 . S
Zn367 O368 2.032 . S
Zn367 O371 2.086 . S
Zn367 O376 1.977 . S
O368 Zn367 2.032 . S
O368 C372 1.278 . S
C369 O370 1.203 . S
C369 O376 1.267 . S
O370 C369 1.203 . S
O371 C364 1.185 . S
O371 Zn367 2.086 . S
C372 O368 1.278 . S
C372 O373 1.211 . S
O373 C372 1.211 . S
C374 O366 1.284 . S
C374 O375 1.273 . S
O375 C374 1.273 . S
O376 Zn367 1.977 . S
O376 C369 1.267 . S
C377 O378 1.160 . S
C377 O384 1.185 . S
O378 C377 1.160 . S
O379 Zn380 1.899 . S
O379 C387 1.284 . S
Zn380 O379 1.899 . S
Zn380 O381 2.032 . S
Zn380 O384 2.086 . S
Zn380 O389 1.977 . S
O381 Zn380 2.032 . S
O381 C385 1.278 . S
C382 O383 1.203 . S
C382 O389 1.267 . S
O383 C382 1.203 . S
O384 C377 1.185 . S
O384 Zn380 2.086 . S
C385 O381 1.278 . S
C385 O386 1.211 . S
O386 C385 1.211 . S
C387 O379 1.284 . S
C387 O388 1.273 . S
O388 C387 1.273 . S
O389 Zn380 1.977 . S
O389 C382 1.267 . S
C390 O391 1.160 . S
C390 O397 1.185 . S
O391 C390 1.160 . S
O392 Zn393 1.899 . S
O392 C400 1.284 . S
Zn393 O392 1.899 . S
Zn393 O394 2.032 . S
Zn393 O397 2.086 . S
Zn393 O402 1.977 . S
O394 Zn393 2.032 . S
O394 C398 1.278 . S
C395 O396 1.203 . S
C395 O402 1.267 . S
O396 C395 1.203 . S
O397 C390 1.185 . S
O397 Zn393 2.086 . S
C398 O394 1.278 . S
C398 O399 1.211 . S
O399 C398 1.211 . S
C400 O392 1.284 . S
C400 O401 1.273 . S
O401 C400 1.273 . S
O402 Zn393 1.977 . S
O402 C395 1.267 . S
C403 O404 1.160 . S
C403 O410 1.185 . S
O404 C403 1.160 . S
O405 Zn406 1.899 . S
O405 C413 1.284 . S
Zn406 O405 1.899 . S
Zn406 O407 2.032 . S
Zn406 O410 2.086 . S
Zn406 O415 1.977 . S
O407 Zn406 2.032 . S
O407 C411 1.278 . S
C408 O409 1.203 . S
C408 O415 1.267 . S
O409 C408 1.203 . S
O410 C403 1.185 . S
O410 Zn406 2.086 . S
C411 O407 1.278 . S
C411 O412 1.211 . S
O412 C411 1.211 . S
C413 O405 1.284 . S
C413 O414 1.273 . S
O414 C413 1.273 . S
O415 Zn406 1.977 . S
O415 C408 1.267 . S
H416 C424 0.929 . S
H417 C426 0.930 . S
H418 C428 0.930 . S
H419 C431 0.929 . S
H420 C434 0.952 . S
H421 C436 0.960 . S
H422 C436 0.960 . S
H423 C436 0.960 . S
C424 H416 0.929 . S
C424 C425 1.377 . S
C424 C426 1.384 . S
C425 C424 1.377 . S
C425 C431 1.390 . S
C426 H417 0.930 . S
C426 C424 1.384 . S
C426 C427 1.372 1_655 S
C427 C426 1.372 1_455 S
C427 C428 1.400 . S
C427 C432 1.490 . S
C428 H418 0.930 . S
C428 C427 1.400 . S
C428 C431 1.386 1_455 S
H429 C445 0.930 . S
H430 C446 0.931 . S
C431 H419 0.929 . S
C431 C425 1.390 . S
C431 C428 1.386 1_655 S
C432 C427 1.490 . S
C432 C434 1.395 . S
C432 C435 1.403 . S
H433 C439 0.930 . S
C434 H420 0.952 . S
C434 C432 1.395 . S
C434 C437 1.403 . S
C435 C432 1.403 . S
C435 C436 1.524 . S
C435 C439 1.400 . S
C436 H421 0.960 . S
C436 H422 0.960 . S
C436 H423 0.960 . S
C436 C435 1.524 . S
C437 C434 1.403 . S
C437 C438 1.392 . S
C437 C441 1.495 1_565 S
C438 C437 1.392 . S
C438 C439 1.385 . S
C438 C440 1.478 . S
C439 H433 0.930 . S
C439 C435 1.400 . S
C439 C438 1.385 . S
C440 C438 1.478 . S
C440 C442 1.381 1_565 S
C440 C446 1.383 . S
C441 C437 1.495 1_545 S
C441 H447 0.959 . S
C441 H448 0.961 . S
C441 H449 0.960 . S
C442 C440 1.381 1_545 S
C442 C443 1.394 . S
C442 H450 0.930 . S
C443 C442 1.394 . S
C443 C444 1.383 . S
C443 H451 0.929 . S
C444 C443 1.383 . S
C444 C445 1.377 . S
C445 H429 0.930 . S
C445 C444 1.377 . S
C445 C446 1.379 1_545 S
C446 H430 0.931 . S
C446 C440 1.383 . S
C446 C445 1.379 1_565 S
H447 C441 0.959 . S
H448 C441 0.961 . S
H449 C441 0.960 . S
H450 C442 0.930 . S
H451 C443 0.929 . S
H452 C460 0.929 . S
H453 C462 0.930 . S
H454 C464 0.930 . S
H455 C467 0.929 . S
H456 C470 0.930 . S
H457 C472 0.960 . S
H458 C472 0.960 . S
H459 C472 0.960 . S
C460 H452 0.929 . S
C460 C461 1.377 . S
C460 C462 1.384 . S
C461 C460 1.377 . S
C461 C467 1.390 . S
C462 H453 0.930 . S
C462 C460 1.384 . S
C462 C463 1.372 . S
C463 C462 1.372 . S
C463 C464 1.400 . S
C463 C468 1.490 . S
C464 H454 0.930 . S
C464 C463 1.400 . S
C464 C467 1.386 . S
H465 C481 0.930 . S
H466 C482 0.931 1_655 S
C467 H455 0.929 . S
C467 C461 1.390 . S
C467 C464 1.386 . S
C468 C463 1.490 . S
C468 C470 1.395 . S
C468 C471 1.403 . S
H469 C475 0.930 . S
C470 H456 0.930 . S
C470 C468 1.395 . S
C470 C473 1.403 . S
C471 C468 1.403 . S
C471 C472 1.524 . S
C471 C475 1.400 . S
C472 H457 0.960 . S
C472 H458 0.960 . S
C472 H459 0.960 . S
C472 C471 1.524 . S
C473 C470 1.403 . S
C473 C474 1.392 . S
C473 C477 1.495 . S
C474 C473 1.392 . S
C474 C475 1.385 . S
C474 C476 1.478 . S
C475 H469 0.930 . S
C475 C471 1.400 . S
C475 C474 1.385 . S
C476 C474 1.478 . S
C476 C478 1.381 1_655 S
C476 C482 1.383 1_655 S
C477 C473 1.495 . S
C477 H483 0.959 . S
C477 H484 0.983 . S
C477 H485 0.959 1_655 S
C478 C476 1.381 1_455 S
C478 C479 1.394 . S
C478 H486 0.930 . S
C479 C478 1.394 . S
C479 C480 1.383 . S
C479 H487 0.929 . S
C480 C479 1.383 . S
C480 C481 1.377 . S
C481 H465 0.930 . S
C481 C480 1.377 . S
C481 C482 1.379 . S
C482 H466 0.931 1_455 S
C482 C476 1.383 1_455 S
C482 C481 1.379 . S
H483 C477 0.959 . S
H484 C477 0.983 . S
H485 C477 0.959 1_455 S
H486 C478 0.930 . S
H487 C479 0.929 . S
H488 C496 0.929 . S
H489 C498 0.930 . S
H490 C500 0.919 1_554 S
H491 C503 0.929 1_554 S
H492 C506 0.930 . S
H493 C508 0.960 1_554 S
H494 C508 0.960 . S
H495 C508 0.960 1_554 S
C496 H488 0.929 . S
C496 C497 1.377 . S
C496 C498 1.384 . S
C497 C496 1.377 . S
C497 C503 1.390 . S
C498 H489 0.930 . S
C498 C496 1.384 . S
C498 C499 1.372 . S
C499 C498 1.372 . S
C499 C500 1.407 . S
C499 C504 1.490 . S
C500 H490 0.919 1_556 S
C500 C499 1.407 . S
C500 C503 1.390 . S
H501 C517 0.930 . S
H502 C518 0.931 . S
C503 H491 0.929 1_556 S
C503 C497 1.390 . S
C503 C500 1.390 . S
C504 C499 1.490 . S
C504 C506 1.395 . S
C504 C507 1.403 . S
H505 C511 0.930 . S
C506 H492 0.930 . S
C506 C504 1.395 . S
C506 C509 1.403 . S
C507 C504 1.403 . S
C507 C508 1.524 . S
C507 C511 1.400 1_556 S
C508 H493 0.960 1_556 S
C508 H494 0.960 . S
C508 H495 0.960 1_556 S
C508 C507 1.524 . S
C509 C506 1.403 . S
C509 C510 1.392 1_556 S
C509 C513 1.495 . S
C510 C509 1.392 1_554 S
C510 C511 1.385 . S
C510 C512 1.478 . S
C511 H505 0.930 . S
C511 C507 1.400 1_554 S
C511 C510 1.385 . S
C512 C510 1.478 . S
C512 C514 1.381 1_554 S
C512 C518 1.383 . S
C513 C509 1.495 . S
C513 H519 0.959 . S
C513 H520 0.961 1_556 S
C513 H521 0.960 . S
C514 C512 1.381 1_556 S
C514 C515 1.396 . S
C514 H522 0.930 . S
C515 C514 1.396 . S
C515 C516 1.379 1_556 S
C515 H523 0.932 . S
C516 C515 1.379 1_554 S
C516 C517 1.377 . S
C517 H501 0.930 . S
C517 C516 1.377 . S
C517 C518 1.379 . S
C518 H502 0.931 . S
C518 C512 1.383 . S
C518 C517 1.379 . S
H519 C513 0.959 . S
H520 C513 0.961 1_554 S
H521 C513 0.960 . S
H522 C514 0.930 . S
H523 C515 0.932 . S
H524 C532 0.929 . S
H525 C534 0.930 . S
H526 C536 0.930 . S
H527 C539 0.929 . S
H528 C542 0.930 . S
H529 C544 0.960 . S
H530 C544 0.960 . S
H531 C544 0.960 . S
C532 H524 0.929 . S
C532 C533 1.377 . S
C532 C534 1.384 . S
C533 C532 1.377 . S
C533 C539 1.390 . S
C534 H525 0.930 . S
C534 C532 1.384 . S
C534 C535 1.372 . S
C535 C534 1.372 . S
C535 C536 1.400 . S
C535 C540 1.490 . S
C536 H526 0.930 . S
C536 C535 1.400 . S
C536 C539 1.386 . S
H537 C553 0.930 . S
H538 C554 0.931 . S
C539 H527 0.929 . S
C539 C533 1.390 . S
C539 C536 1.386 . S
C540 C535 1.490 . S
C540 C542 1.395 . S
C540 C543 1.403 . S
H541 C547 0.930 . S
C542 H528 0.930 . S
C542 C540 1.395 . S
C542 C545 1.403 . S
C543 C540 1.403 . S
C543 C544 1.524 . S
C543 C547 1.400 . S
C544 H529 0.960 . S
C544 H530 0.960 . S
C544 H531 0.960 . S
C544 C543 1.524 . S
C545 C542 1.403 . S
C545 C546 1.392 . S
C545 C549 1.495 . S
C546 C545 1.392 . S
C546 C547 1.385 . S
C546 C548 1.478 . S
C547 H541 0.930 . S
C547 C543 1.400 . S
C547 C546 1.385 . S
C548 C546 1.478 . S
C548 C550 1.381 1_545 S
C548 C554 1.383 . S
C549 C545 1.495 . S
C549 H555 0.959 . S
C549 H556 0.961 . S
C549 H557 0.964 1_545 S
C550 C548 1.381 1_565 S
C550 C551 1.394 . S
C550 H558 0.930 . S
C551 C550 1.394 . S
C551 C552 1.383 . S
C551 H559 0.929 . S
C552 C551 1.383 . S
C552 C553 1.377 . S
C553 H537 0.930 . S
C553 C552 1.377 . S
C553 C554 1.379 1_565 S
C554 H538 0.931 . S
C554 C548 1.383 . S
C554 C553 1.379 1_545 S
H555 C549 0.959 . S
H556 C549 0.961 . S
H557 C549 0.964 1_565 S
H558 C550 0.930 . S
H559 C551 0.929 . S
H560 C568 0.924 1_565 S
H561 C570 0.930 . S
H562 C572 0.930 . S
H563 C575 0.929 . S
H564 C578 0.930 . S
H565 C580 0.960 . S
H566 C580 0.960 . S
H567 C580 0.960 1_545 S
C568 H560 0.924 1_545 S
C568 C569 1.413 . S
C568 C570 1.355 1_545 S
C569 C568 1.413 . S
C569 C575 1.390 1_556 S
C570 H561 0.930 . S
C570 C568 1.355 1_565 S
C570 C571 1.372 . S
C571 C570 1.372 . S
C571 C572 1.400 1_566 S
C571 C576 1.490 . S
C572 H562 0.930 . S
C572 C571 1.400 1_544 S
C572 C575 1.386 . S
H573 C589 0.930 . S
H574 C590 0.931 . S
C575 H563 0.929 . S
C575 C569 1.390 1_554 S
C575 C572 1.386 . S
C576 C571 1.490 . S
C576 C578 1.395 1_556 S
C576 C579 1.403 . S
H577 C583 0.930 . S
C578 H564 0.930 . S
C578 C576 1.395 1_554 S
C578 C581 1.403 . S
C579 C576 1.403 . S
C579 C580 1.524 . S
C579 C583 1.400 . S
C580 H565 0.960 . S
C580 H566 0.960 . S
C580 H567 0.960 1_565 S
C580 C579 1.524 . S
C581 C578 1.403 . S
C581 C582 1.383 1_554 S
C581 C585 1.495 . S
C582 C581 1.383 1_556 S
C582 C583 1.400 . S
C582 C584 1.473 1_556 S
C583 H577 0.930 . S
C583 C579 1.400 . S
C583 C582 1.400 . S
C584 C582 1.473 1_554 S
C584 C586 1.381 1_554 S
C584 C590 1.383 . S
C585 C581 1.495 . S
C585 H591 0.959 . S
C585 H592 0.961 . S
C585 H593 0.960 . S
C586 C584 1.381 1_556 S
C586 C587 1.394 . S
C586 H594 0.930 . S
C587 C586 1.394 . S
C587 C588 1.383 1_556 S
C587 H595 0.929 . S
C588 C587 1.383 1_554 S
C588 C589 1.377 . S
C589 H573 0.930 . S
C589 C588 1.377 . S
C589 C590 1.379 . S
C590 H574 0.931 . S
C590 C584 1.383 . S
C590 C589 1.379 . S
H591 C585 0.959 . S
H592 C585 0.961 . S
H593 C585 0.960 . S
H594 C586 0.930 . S
H595 C587 0.929 . S
H596 C604 0.929 . S
H597 C606 0.930 . S
H598 C608 0.930 . S
H599 C611 0.929 . S
H600 C614 0.930 . S
H601 C616 0.960 . S
H602 C616 0.960 . S
H603 C616 0.960 . S
C604 H596 0.929 . S
C604 C605 1.377 . S
C604 C606 1.384 . S
C605 C604 1.377 . S
C605 C611 1.390 . S
C606 H597 0.930 . S
C606 C604 1.384 . S
C606 C607 1.372 . S
C607 C606 1.372 . S
C607 C608 1.400 . S
C607 C612 1.490 . S
C608 H598 0.930 . S
C608 C607 1.400 . S
C608 C611 1.386 . S
H609 C625 0.930 . S
H610 C626 0.931 1_655 S
C611 H599 0.929 . S
C611 C605 1.390 . S
C611 C608 1.386 . S
C612 C607 1.490 . S
C612 C614 1.395 . S
C612 C615 1.403 . S
H613 C619 0.930 . S
C614 H600 0.930 . S
C614 C612 1.395 . S
C614 C617 1.403 . S
C615 C612 1.403 . S
C615 C616 1.524 . S
C615 C619 1.400 . S
C616 H601 0.960 . S
C616 H602 0.960 . S
C616 H603 0.960 . S
C616 C615 1.524 . S
C617 C614 1.403 . S
C617 C618 1.392 . S
C617 C621 1.495 . S
C618 C617 1.392 . S
C618 C619 1.385 . S
C618 C620 1.478 . S
C619 H613 0.930 . S
C619 C615 1.400 . S
C619 C618 1.385 . S
C620 C618 1.478 . S
C620 C622 1.381 1_655 S
C620 C626 1.383 1_655 S
C621 C617 1.495 . S
C621 H627 0.959 . S
C621 H628 0.977 . S
C621 H629 0.964 1_655 S
C622 C620 1.381 1_455 S
C622 C623 1.394 . S
C622 H630 0.930 . S
C623 C622 1.394 . S
C623 C624 1.383 . S
C623 H631 0.929 . S
C624 C623 1.383 . S
C624 C625 1.377 . S
C625 H609 0.930 . S
C625 C624 1.377 . S
C625 C626 1.379 . S
C626 H610 0.931 1_455 S
C626 C620 1.383 1_455 S
C626 C625 1.379 . S
H627 C621 0.959 . S
H628 C621 0.977 . S
H629 C621 0.964 1_455 S
H630 C622 0.930 . S
H631 C623 0.929 . S
H632 C640 0.929 . S
H633 C642 0.930 . S
H634 C644 0.930 . S
H635 C647 0.929 . S
H636 C650 0.930 . S
H637 C652 0.960 . S
H638 C652 0.960 . S
H639 C652 0.960 . S
C640 H632 0.929 . S
C640 C641 1.377 . S
C640 C642 1.384 . S
C641 C640 1.377 . S
C641 C647 1.390 . S
C642 H633 0.930 . S
C642 C640 1.384 . S
C642 C643 1.372 . S
C643 C642 1.372 . S
C643 C644 1.400 . S
C643 C648 1.490 . S
C644 H634 0.930 . S
C644 C643 1.400 . S
C644 C647 1.386 . S
H645 C661 0.930 . S
H646 C662 0.931 . S
C647 H635 0.929 . S
C647 C641 1.390 . S
C647 C644 1.386 . S
C648 C643 1.490 . S
C648 C650 1.395 . S
C648 C651 1.403 . S
H649 C655 0.930 . S
C650 H636 0.930 . S
C650 C648 1.395 . S
C650 C653 1.403 . S
C651 C648 1.403 . S
C651 C652 1.524 . S
C651 C655 1.400 . S
C652 H637 0.960 . S
C652 H638 0.960 . S
C652 H639 0.960 . S
C652 C651 1.524 . S
C653 C650 1.403 . S
C653 C654 1.392 . S
C653 C657 1.495 . S
C654 C653 1.392 . S
C654 C655 1.385 . S
C654 C656 1.478 . S
C655 H649 0.930 . S
C655 C651 1.400 . S
C655 C654 1.385 . S
C656 C654 1.478 . S
C656 C658 1.381 . S
C656 C662 1.383 . S
C657 C653 1.495 . S
C657 H663 0.959 . S
C657 H664 0.961 . S
C657 H665 0.960 . S
C658 C656 1.381 . S
C658 C659 1.394 . S
C658 H666 0.930 . S
C659 C658 1.394 . S
C659 C660 1.383 . S
C659 H667 0.929 . S
C660 C659 1.383 . S
C660 C661 1.377 . S
C661 H645 0.930 . S
C661 C660 1.377 . S
C661 C662 1.379 . S
C662 H646 0.931 . S
C662 C656 1.383 . S
C662 C661 1.379 . S
H663 C657 0.959 . S
H664 C657 0.961 . S
H665 C657 0.960 . S
H666 C658 0.930 . S
H667 C659 0.929 . S
H668 C676 0.929 . S
H669 C678 0.930 . S
H670 C680 0.930 . S
H671 C683 0.929 . S
H672 C686 0.930 . S
H673 C688 0.960 . S
H674 C688 0.960 . S
H675 C688 0.960 . S
C676 H668 0.929 . S
C676 C677 1.377 . S
C676 C678 1.384 . S
C677 C676 1.377 . S
C677 C683 1.390 . S
C678 H669 0.930 . S
C678 C676 1.384 . S
C678 C679 1.372 . S
C679 C678 1.372 . S
C679 C680 1.400 . S
C679 C684 1.490 . S
C680 H670 0.930 . S
C680 C679 1.400 . S
C680 C683 1.386 . S
H681 C697 0.930 . S
H682 C698 0.931 . S
C683 H671 0.929 . S
C683 C677 1.390 . S
C683 C680 1.386 . S
C684 C679 1.490 . S
C684 C686 1.395 . S
C684 C687 1.403 . S
H685 C691 0.930 . S
C686 H672 0.930 . S
C686 C684 1.395 . S
C686 C689 1.403 . S
C687 C684 1.403 . S
C687 C688 1.524 . S
C687 C691 1.400 . S
C688 H673 0.960 . S
C688 H674 0.960 . S
C688 H675 0.960 . S
C688 C687 1.524 . S
C689 C686 1.403 . S
C689 C690 1.392 . S
C689 C693 1.495 . S
C690 C689 1.392 . S
C690 C691 1.385 . S
C690 C692 1.478 . S
C691 H685 0.930 . S
C691 C687 1.400 . S
C691 C690 1.385 . S
C692 C690 1.478 . S
C692 C694 1.381 . S
C692 C698 1.383 . S
C693 C689 1.495 . S
C693 H699 0.959 . S
C693 H700 0.961 . S
C693 H701 0.960 . S
C694 C692 1.381 . S
C694 C695 1.394 . S
C694 H702 0.930 . S
C695 C694 1.394 . S
C695 C696 1.383 . S
C695 H703 0.929 . S
C696 C695 1.383 . S
C696 C697 1.377 . S
C697 H681 0.930 . S
C697 C696 1.377 . S
C697 C698 1.379 . S
C698 H682 0.931 . S
C698 C692 1.383 . S
C698 C697 1.379 . S
H699 C693 0.959 . S
H700 C693 0.961 . S
H701 C693 0.960 . S
H702 C694 0.930 . S
H703 C695 0.929 . S
H704 C712 0.929 . S
H705 C714 0.930 . S
H706 C716 0.930 . S
H707 C719 0.929 . S
H708 C722 0.930 . S
H709 C724 0.960 . S
H710 C724 0.960 . S
H711 C724 0.960 . S
C712 H704 0.929 . S
C712 C713 1.377 . S
C712 C714 1.384 . S
C713 C712 1.377 . S
C713 C719 1.390 . S
C714 H705 0.930 . S
C714 C712 1.384 . S
C714 C715 1.372 . S
C715 C714 1.372 . S
C715 C716 1.400 . S
C715 C720 1.490 . S
C716 H706 0.930 . S
C716 C715 1.400 . S
C716 C719 1.386 . S
H717 C733 0.930 . S
H718 C734 0.931 . S
C719 H707 0.929 . S
C719 C713 1.390 . S
C719 C716 1.386 . S
C720 C715 1.490 . S
C720 C722 1.395 . S
C720 C723 1.403 . S
H721 C727 0.930 . S
C722 H708 0.930 . S
C722 C720 1.395 . S
C722 C725 1.403 . S
C723 C720 1.403 . S
C723 C724 1.524 . S
C723 C727 1.400 . S
C724 H709 0.960 . S
C724 H710 0.960 . S
C724 H711 0.960 . S
C724 C723 1.524 . S
C725 C722 1.403 . S
C725 C726 1.392 . S
C725 C729 1.495 . S
C726 C725 1.392 . S
C726 C727 1.385 . S
C726 C728 1.478 . S
C727 H721 0.930 . S
C727 C723 1.400 . S
C727 C726 1.385 . S
C728 C726 1.478 . S
C728 C730 1.381 . S
C728 C734 1.383 . S
C729 C725 1.495 . S
C729 H735 0.959 . S
C729 H736 0.961 . S
C729 H737 0.960 . S
C730 C728 1.381 . S
C730 C731 1.394 . S
C730 H738 0.930 . S
C731 C730 1.394 . S
C731 C732 1.383 . S
C731 H739 0.929 . S
C732 C731 1.383 . S
C732 C733 1.377 . S
C733 H717 0.930 . S
C733 C732 1.377 . S
C733 C734 1.379 . S
C734 H718 0.931 . S
C734 C728 1.383 . S
C734 C733 1.379 . S
H735 C729 0.959 . S
H736 C729 0.961 . S
H737 C729 0.960 . S
H738 C730 0.930 . S
H739 C731 0.929 . S
H740 C748 0.929 . S
H741 C750 0.930 . S
H742 C752 0.930 . S
H743 C755 0.929 . S
H744 C758 0.930 . S
H745 C760 0.960 . S
H746 C760 0.960 . S
H747 C760 0.960 . S
C748 H740 0.929 . S
C748 C749 1.377 . S
C748 C750 1.384 . S
C749 C748 1.377 . S
C749 C755 1.390 . S
C750 H741 0.930 . S
C750 C748 1.384 . S
C750 C751 1.372 . S
C751 C750 1.372 . S
C751 C752 1.400 . S
C751 C756 1.490 . S
C752 H742 0.930 . S
C752 C751 1.400 . S
C752 C755 1.386 . S
H753 C769 0.930 . S
H754 C770 0.931 . S
C755 H743 0.929 . S
C755 C749 1.390 . S
C755 C752 1.386 . S
C756 C751 1.490 . S
C756 C758 1.395 . S
C756 C759 1.403 . S
H757 C763 0.930 . S
C758 H744 0.930 . S
C758 C756 1.395 . S
C758 C761 1.403 . S
C759 C756 1.403 . S
C759 C760 1.524 . S
C759 C763 1.400 . S
C760 H745 0.960 . S
C760 H746 0.960 . S
C760 H747 0.960 . S
C760 C759 1.524 . S
C761 C758 1.403 . S
C761 C762 1.392 . S
C761 C765 1.495 . S
C762 C761 1.392 . S
C762 C763 1.385 . S
C762 C764 1.478 . S
C763 H757 0.930 . S
C763 C759 1.400 . S
C763 C762 1.385 . S
C764 C762 1.478 . S
C764 C766 1.381 . S
C764 C770 1.383 . S
C765 C761 1.495 . S
C765 H771 0.959 . S
C765 H772 0.961 . S
C765 H773 0.960 . S
C766 C764 1.381 . S
C766 C767 1.394 . S
C766 H774 0.930 . S
C767 C766 1.394 . S
C767 C768 1.383 . S
C767 H775 0.929 . S
C768 C767 1.383 . S
C768 C769 1.377 . S
C769 H753 0.930 . S
C769 C768 1.377 . S
C769 C770 1.379 . S
C770 H754 0.931 . S
C770 C764 1.383 . S
C770 C769 1.379 . S
H771 C765 0.959 . S
H772 C765 0.961 . S
H773 C765 0.960 . S
H774 C766 0.930 . S
H775 C767 0.929 . S
H776 C784 0.929 . S
H777 C786 0.930 . S
H778 C788 0.930 . S
H779 C791 0.929 . S
H780 C794 0.930 . S
H781 C796 0.960 . S
H782 C796 0.960 . S
H783 C796 0.960 . S
C784 H776 0.929 . S
C784 C785 1.377 . S
C784 C786 1.384 . S
C785 C784 1.377 . S
C785 C791 1.390 . S
C786 H777 0.930 . S
C786 C784 1.384 . S
C786 C787 1.372 . S
C787 C786 1.372 . S
C787 C788 1.400 . S
C787 C792 1.490 . S
C788 H778 0.930 . S
C788 C787 1.400 . S
C788 C791 1.386 . S
H789 C805 0.930 . S
H790 C806 0.931 . S
C791 H779 0.929 . S
C791 C785 1.390 . S
C791 C788 1.386 . S
C792 C787 1.490 . S
C792 C794 1.395 . S
C792 C795 1.403 . S
H793 C799 0.930 . S
C794 H780 0.930 . S
C794 C792 1.395 . S
C794 C797 1.403 . S
C795 C792 1.403 . S
C795 C796 1.524 . S
C795 C799 1.400 . S
C796 H781 0.960 . S
C796 H782 0.960 . S
C796 H783 0.960 . S
C796 C795 1.524 . S
C797 C794 1.403 . S
C797 C798 1.392 . S
C797 C801 1.495 . S
C798 C797 1.392 . S
C798 C799 1.385 . S
C798 C800 1.478 . S
C799 H793 0.930 . S
C799 C795 1.400 . S
C799 C798 1.385 . S
C800 C798 1.478 . S
C800 C802 1.381 . S
C800 C806 1.383 1_545 S
C801 C797 1.495 . S
C801 H807 0.959 . S
C801 H808 0.961 . S
C801 H809 0.960 . S
C802 C800 1.381 . S
C802 C803 1.394 1_545 S
C802 H810 0.930 . S
C803 C802 1.394 1_565 S
C803 C804 1.383 . S
C803 H811 0.929 . S
C804 C803 1.383 . S
C804 C805 1.377 . S
C805 H789 0.930 . S
C805 C804 1.377 . S
C805 C806 1.379 . S
C806 H790 0.931 . S
C806 C800 1.383 1_565 S
C806 C805 1.379 . S
H807 C801 0.959 . S
H808 C801 0.961 . S
H809 C801 0.960 . S
H810 C802 0.930 . S
H811 C803 0.929 . S
H812 C820 0.929 . S
H813 C822 0.930 1_455 S
H814 C824 0.912 1_455 S
H815 C827 0.929 . S
H816 C830 0.930 . S
H817 C832 0.960 . S
H818 C832 0.960 . S
H819 C832 0.960 . S
C820 H812 0.929 . S
C820 C821 1.341 1_556 S
C820 C822 1.384 . S
C821 C820 1.341 1_554 S
C821 C827 1.420 . S
C822 H813 0.930 1_655 S
C822 C820 1.384 . S
C822 C823 1.372 1_655 S
C823 C822 1.372 1_455 S
C823 C824 1.377 1_456 S
C823 C828 1.490 . S
C824 H814 0.912 1_655 S
C824 C823 1.377 1_654 S
C824 C827 1.429 . S
H825 C841 0.930 . S
H826 C842 0.931 . S
C827 H815 0.929 . S
C827 C821 1.420 . S
C827 C824 1.429 . S
C828 C823 1.490 . S
C828 C830 1.395 . S
C828 C831 1.403 1_556 S
H829 C835 0.930 . S
C830 H816 0.930 . S
C830 C828 1.395 . S
C830 C833 1.403 . S
C831 C828 1.403 1_554 S
C831 C832 1.524 . S
C831 C835 1.400 . S
C832 H817 0.960 . S
C832 H818 0.960 . S
C832 H819 0.960 . S
C832 C831 1.524 . S
C833 C830 1.403 . S
C833 C834 1.392 . S
C833 C837 1.495 . S
C834 C833 1.392 . S
C834 C835 1.385 1_556 S
C834 C836 1.478 . S
C835 H829 0.930 . S
C835 C831 1.400 . S
C835 C834 1.385 1_554 S
C836 C834 1.478 . S
C836 C838 1.381 . S
C836 C842 1.383 1_556 S
C837 C833 1.495 . S
C837 H843 0.959 . S
C837 H844 0.961 . S
C837 H845 0.960 . S
C838 C836 1.381 . S
C838 C839 1.394 . S
C838 H846 0.930 . S
C839 C838 1.394 . S
C839 C840 1.383 . S
C839 H847 0.929 . S
C840 C839 1.383 . S
C840 C841 1.377 1_556 S
C841 H825 0.930 . S
C841 C840 1.377 1_554 S
C841 C842 1.379 . S
C842 H826 0.931 . S
C842 C836 1.383 1_554 S
C842 C841 1.379 . S
H843 C837 0.959 . S
H844 C837 0.961 . S
H845 C837 0.960 . S
H846 C838 0.930 . S
H847 C839 0.929 . S
H848 C856 0.929 . S
H849 C858 0.930 . S
H850 C860 0.930 . S
H851 C863 0.929 . S
H852 C866 0.930 . S
H853 C868 0.960 . S
H854 C868 0.960 . S
H855 C868 0.960 . S
C856 H848 0.929 . S
C856 C857 1.377 . S
C856 C858 1.384 . S
C857 C856 1.377 . S
C857 C863 1.390 . S
C858 H849 0.930 . S
C858 C856 1.384 . S
C858 C859 1.372 . S
C859 C858 1.372 . S
C859 C860 1.400 . S
C859 C864 1.490 . S
C860 H850 0.930 . S
C860 C859 1.400 . S
C860 C863 1.386 . S
H861 C877 0.930 . S
H862 C878 0.931 . S
C863 H851 0.929 . S
C863 C857 1.390 . S
C863 C860 1.386 . S
C864 C859 1.490 . S
C864 C866 1.395 . S
C864 C867 1.403 . S
H865 C871 0.930 . S
C866 H852 0.930 . S
C866 C864 1.395 . S
C866 C869 1.403 . S
C867 C864 1.403 . S
C867 C868 1.524 . S
C867 C871 1.400 . S
C868 H853 0.960 . S
C868 H854 0.960 . S
C868 H855 0.960 . S
C868 C867 1.524 . S
C869 C866 1.403 . S
C869 C870 1.392 . S
C869 C873 1.495 . S
C870 C869 1.392 . S
C870 C871 1.385 . S
C870 C872 1.478 . S
C871 H865 0.930 . S
C871 C867 1.400 . S
C871 C870 1.385 . S
C872 C870 1.478 . S
C872 C874 1.381 . S
C872 C878 1.383 . S
C873 C869 1.495 . S
C873 H879 0.959 . S
C873 H880 0.961 . S
C873 H881 0.960 . S
C874 C872 1.381 . S
C874 C875 1.394 . S
C874 H882 0.930 . S
C875 C874 1.394 . S
C875 C876 1.383 . S
C875 H883 0.929 . S
C876 C875 1.383 . S
C876 C877 1.377 . S
C877 H861 0.930 . S
C877 C876 1.377 . S
C877 C878 1.379 . S
C878 H862 0.931 . S
C878 C872 1.383 . S
C878 C877 1.379 . S
H879 C873 0.959 . S
H880 C873 0.961 . S
H881 C873 0.960 . S
H882 C874 0.930 . S
H883 C875 0.929 . S
H884 C892 0.929 . S
H885 C894 0.930 . S
H886 C896 0.930 . S
H887 C899 0.929 . S
H888 C902 0.930 . S
H889 C904 0.960 . S
H890 C904 0.960 . S
H891 C904 0.960 . S
C892 H884 0.929 . S
C892 C893 1.377 . S
C892 C894 1.384 . S
C893 C892 1.377 . S
C893 C899 1.390 . S
C894 H885 0.930 . S
C894 C892 1.384 . S
C894 C895 1.372 . S
C895 C894 1.372 . S
C895 C896 1.400 . S
C895 C900 1.490 . S
C896 H886 0.930 . S
C896 C895 1.400 . S
C896 C899 1.386 . S
H897 C913 0.930 . S
H898 C914 0.931 . S
C899 H887 0.929 . S
C899 C893 1.390 . S
C899 C896 1.386 . S
C900 C895 1.490 . S
C900 C902 1.395 . S
C900 C903 1.403 1_554 S
H901 C907 0.930 . S
C902 H888 0.930 . S
C902 C900 1.395 . S
C902 C905 1.403 . S
C903 C900 1.403 1_556 S
C903 C904 1.524 . S
C903 C907 1.400 . S
C904 H889 0.960 . S
C904 H890 0.960 . S
C904 H891 0.960 . S
C904 C903 1.524 . S
C905 C902 1.403 . S
C905 C906 1.392 1_554 S
C905 C909 1.495 . S
C906 C905 1.392 1_556 S
C906 C907 1.385 . S
C906 C908 1.478 . S
C907 H901 0.930 . S
C907 C903 1.400 . S
C907 C906 1.385 . S
C908 C906 1.478 . S
C908 C910 1.381 . S
C908 C914 1.383 . S
C909 C905 1.495 . S
C909 H915 0.959 . S
C909 H916 0.961 . S
C909 H917 0.960 . S
C910 C908 1.381 . S
C910 C911 1.394 . S
C910 H918 0.930 . S
C911 C910 1.394 . S
C911 C912 1.383 . S
C911 H919 0.929 . S
C912 C911 1.383 . S
C912 C913 1.377 . S
C913 H897 0.930 . S
C913 C912 1.377 . S
C913 C914 1.379 . S
C914 H898 0.931 . S
C914 C908 1.383 . S
C914 C913 1.379 . S
H915 C909 0.959 . S
H916 C909 0.961 . S
H917 C909 0.960 . S
H918 C910 0.930 . S
H919 C911 0.929 . S
H920 C928 0.929 . S
H921 C930 0.930 . S
H922 C932 0.930 . S
H923 C935 0.929 . S
H924 C938 0.930 . S
H925 C940 0.960 . S
H926 C940 0.960 . S
H927 C940 0.960 . S
C928 H920 0.929 . S
C928 C929 1.377 . S
C928 C930 1.384 . S
C929 C928 1.377 . S
C929 C935 1.390 . S
C930 H921 0.930 . S
C930 C928 1.384 . S
C930 C931 1.372 . S
C931 C930 1.372 . S
C931 C932 1.400 . S
C931 C936 1.490 . S
C932 H922 0.930 . S
C932 C931 1.400 . S
C932 C935 1.386 . S
H933 C949 0.930 . S
H934 C950 0.931 . S
C935 H923 0.929 . S
C935 C929 1.390 . S
C935 C932 1.386 . S
C936 C931 1.490 . S
C936 C938 1.395 . S
C936 C939 1.403 . S
H937 C943 0.930 . S
C938 H924 0.930 . S
C938 C936 1.395 . S
C938 C941 1.403 . S
C939 C936 1.403 . S
C939 C940 1.524 . S
C939 C943 1.400 . S
C940 H925 0.960 . S
C940 H926 0.960 . S
C940 H927 0.960 . S
C940 C939 1.524 . S
C941 C938 1.403 . S
C941 C942 1.392 . S
C941 C945 1.495 . S
C942 C941 1.392 . S
C942 C943 1.385 . S
C942 C944 1.478 . S
C943 H937 0.930 . S
C943 C939 1.400 . S
C943 C942 1.385 . S
C944 C942 1.478 . S
C944 C946 1.381 . S
C944 C950 1.383 . S
C945 C941 1.495 . S
C945 H951 0.959 . S
C945 H952 0.961 . S
C945 H953 0.960 . S
C946 C944 1.381 . S
C946 C947 1.394 . S
C946 H954 0.930 . S
C947 C946 1.394 . S
C947 C948 1.383 . S
C947 H955 0.929 . S
C948 C947 1.383 . S
C948 C949 1.377 . S
C949 H933 0.930 . S
C949 C948 1.377 . S
C949 C950 1.379 . S
C950 H934 0.931 . S
C950 C944 1.383 . S
C950 C949 1.379 . S
H951 C945 0.959 . S
H952 C945 0.961 . S
H953 C945 0.960 . S
H954 C946 0.930 . S
H955 C947 0.929 . S
H956 C964 0.929 . S
H957 C966 0.930 . S
H958 C968 0.930 . S
H959 C971 0.929 . S
H960 C974 0.930 . S
H961 C976 0.960 . S
H962 C976 0.960 . S
H963 C976 0.960 . S
C964 H956 0.929 . S
C964 C965 1.377 . S
C964 C966 1.384 . S
C965 C964 1.377 . S
C965 C971 1.390 . S
C966 H957 0.930 . S
C966 C964 1.384 . S
C966 C967 1.372 . S
C967 C966 1.372 . S
C967 C968 1.400 . S
C967 C972 1.490 . S
C968 H958 0.930 . S
C968 C967 1.400 . S
C968 C971 1.386 . S
H969 C985 0.930 . S
H970 C986 0.931 . S
C971 H959 0.929 . S
C971 C965 1.390 . S
C971 C968 1.386 . S
C972 C967 1.490 . S
C972 C974 1.395 . S
C972 C975 1.403 . S
H973 C979 0.930 . S
C974 H960 0.930 . S
C974 C972 1.395 . S
C974 C977 1.403 . S
C975 C972 1.403 . S
C975 C976 1.524 . S
C975 C979 1.400 . S
C976 H961 0.960 . S
C976 H962 0.960 . S
C976 H963 0.960 . S
C976 C975 1.524 . S
C977 C974 1.403 . S
C977 C978 1.392 . S
C977 C981 1.495 . S
C978 C977 1.392 . S
C978 C979 1.385 . S
C978 C980 1.478 . S
C979 H973 0.930 . S
C979 C975 1.400 . S
C979 C978 1.385 . S
C980 C978 1.478 . S
C980 C982 1.381 . S
C980 C986 1.383 . S
C981 C977 1.495 . S
C981 H987 0.959 . S
C981 H988 0.961 . S
C981 H989 0.960 . S
C982 C980 1.381 . S
C982 C983 1.394 . S
C982 H990 0.930 . S
C983 C982 1.394 . S
C983 C984 1.383 . S
C983 H991 0.929 . S
C984 C983 1.383 . S
C984 C985 1.377 . S
C985 H969 0.930 . S
C985 C984 1.377 . S
C985 C986 1.379 . S
C986 H970 0.931 . S
C986 C980 1.383 . S
C986 C985 1.379 . S
H987 C981 0.959 . S
H988 C981 0.961 . S
H989 C981 0.960 . S
H990 C982 0.930 . S
H991 C983 0.929 . S
H992 C1000 0.929 . S
H993 C1002 0.930 . S
H994 C1004 0.930 . S
H995 C1007 0.929 . S
H996 C1010 0.930 . S
H997 C1012 0.960 . S
H998 C1012 0.960 . S
H999 C1012 0.960 . S
C1000 H992 0.929 . S
C1000 C1001 1.377 . S
C1000 C1002 1.384 . S
C1001 C1000 1.377 . S
C1001 C1007 1.390 . S
C1002 H993 0.930 . S
C1002 C1000 1.384 . S
C1002 C1003 1.372 . S
C1003 C1002 1.372 . S
C1003 C1004 1.400 . S
C1003 C1008 1.490 . S
C1004 H994 0.930 . S
C1004 C1003 1.400 . S
C1004 C1007 1.386 . S
H1005 C1021 0.930 . S
H1006 C1022 0.931 . S
C1007 H995 0.929 . S
C1007 C1001 1.390 . S
C1007 C1004 1.386 . S
C1008 C1003 1.490 . S
C1008 C1010 1.395 . S
C1008 C1011 1.403 . S
H1009 C1015 0.930 . S
C1010 H996 0.930 . S
C1010 C1008 1.395 . S
C1010 C1013 1.403 . S
C1011 C1008 1.403 . S
C1011 C1012 1.524 . S
C1011 C1015 1.400 . S
C1012 H997 0.960 . S
C1012 H998 0.960 . S
C1012 H999 0.960 . S
C1012 C1011 1.524 . S
C1013 C1010 1.403 . S
C1013 C1014 1.392 . S
C1013 C1017 1.495 . S
C1014 C1013 1.392 . S
C1014 C1015 1.385 . S
C1014 C1016 1.478 . S
C1015 H1009 0.930 . S
C1015 C1011 1.400 . S
C1015 C1014 1.385 . S
C1016 C1014 1.478 . S
C1016 C1018 1.381 . S
C1016 C1022 1.383 . S
C1017 C1013 1.495 . S
C1017 H1023 0.959 . S
C1017 H1024 0.961 . S
C1017 H1025 0.960 . S
C1018 C1016 1.381 . S
C1018 C1019 1.394 . S
C1018 H1026 0.930 . S
C1019 C1018 1.394 . S
C1019 C1020 1.383 . S
C1019 H1027 0.929 . S
C1020 C1019 1.383 . S
C1020 C1021 1.377 . S
C1021 H1005 0.930 . S
C1021 C1020 1.377 . S
C1021 C1022 1.379 . S
C1022 H1006 0.931 . S
C1022 C1016 1.383 . S
C1022 C1021 1.379 . S
H1023 C1017 0.959 . S
H1024 C1017 0.961 . S
H1025 C1017 0.960 . S
H1026 C1018 0.930 . S
H1027 C1019 0.929 . S
H1028 C1036 0.929 . S
H1029 C1038 0.930 . S
H1030 C1040 0.930 . S
H1031 C1043 0.929 . S
H1032 C1046 0.930 . S
H1033 C1048 0.960 . S
H1034 C1048 0.960 . S
H1035 C1048 0.960 . S
C1036 H1028 0.929 . S
C1036 C1037 1.377 . S
C1036 C1038 1.384 . S
C1037 C1036 1.377 . S
C1037 C1043 1.390 . S
C1038 H1029 0.930 . S
C1038 C1036 1.384 . S
C1038 C1039 1.372 . S
C1039 C1038 1.372 . S
C1039 C1040 1.400 . S
C1039 C1044 1.490 . S
C1040 H1030 0.930 . S
C1040 C1039 1.400 . S
C1040 C1043 1.386 . S
H1041 C1057 0.930 . S
H1042 C1058 0.931 . S
C1043 H1031 0.929 . S
C1043 C1037 1.390 . S
C1043 C1040 1.386 . S
C1044 C1039 1.490 . S
C1044 C1046 1.395 . S
C1044 C1047 1.403 . S
H1045 C1051 0.930 . S
C1046 H1032 0.930 . S
C1046 C1044 1.395 . S
C1046 C1049 1.403 . S
C1047 C1044 1.403 . S
C1047 C1048 1.524 . S
C1047 C1051 1.400 . S
C1048 H1033 0.960 . S
C1048 H1034 0.960 . S
C1048 H1035 0.960 . S
C1048 C1047 1.524 . S
C1049 C1046 1.403 . S
C1049 C1050 1.392 . S
C1049 C1053 1.495 . S
C1050 C1049 1.392 . S
C1050 C1051 1.385 . S
C1050 C1052 1.478 . S
C1051 H1045 0.930 . S
C1051 C1047 1.400 . S
C1051 C1050 1.385 . S
C1052 C1050 1.478 . S
C1052 C1054 1.381 . S
C1052 C1058 1.383 . S
C1053 C1049 1.495 . S
C1053 H1059 0.959 . S
C1053 H1060 0.961 . S
C1053 H1061 0.960 . S
C1054 C1052 1.381 . S
C1054 C1055 1.394 . S
C1054 H1062 0.930 . S
C1055 C1054 1.394 . S
C1055 C1056 1.383 . S
C1055 H1063 0.929 . S
C1056 C1055 1.383 . S
C1056 C1057 1.377 . S
C1057 H1041 0.930 . S
C1057 C1056 1.377 . S
C1057 C1058 1.379 . S
C1058 H1042 0.931 . S
C1058 C1052 1.383 . S
C1058 C1057 1.379 . S
H1059 C1053 0.959 . S
H1060 C1053 0.961 . S
H1061 C1053 0.960 . S
H1062 C1054 0.930 . S
H1063 C1055 0.929 . S
H1064 C1072 0.935 . S
H1065 C1074 0.930 . S
H1066 C1076 0.930 . S
H1067 C1079 0.929 . S
H1068 C1082 0.930 . S
H1069 C1084 0.960 . S
H1070 C1084 0.960 . S
H1071 C1084 0.960 . S
C1072 H1064 0.935 . S
C1072 C1073 1.371 1_554 S
C1072 C1074 1.385 . S
C1073 C1072 1.371 1_556 S
C1073 C1079 1.390 . S
C1074 H1065 0.930 . S
C1074 C1072 1.385 . S
C1074 C1075 1.372 1_554 S
C1075 C1074 1.372 1_556 S
C1075 C1076 1.400 . S
C1075 C1080 1.493 . S
C1076 H1066 0.930 . S
C1076 C1075 1.400 . S
C1076 C1079 1.386 . S
H1077 C1093 0.930 1_556 S
H1078 C1094 0.931 . S
C1079 H1067 0.929 . S
C1079 C1073 1.390 . S
C1079 C1076 1.386 . S
C1080 C1075 1.493 . S
C1080 C1082 1.417 . S
C1080 C1083 1.379 1_556 S
H1081 C1087 0.930 . S
C1082 H1068 0.930 . S
C1082 C1080 1.417 . S
C1082 C1085 1.403 . S
C1083 C1080 1.379 1_554 S
C1083 C1084 1.524 . S
C1083 C1087 1.400 . S
C1084 H1069 0.960 . S
C1084 H1070 0.960 . S
C1084 H1071 0.960 . S
C1084 C1083 1.524 . S
C1085 C1082 1.403 . S
C1085 C1086 1.392 1_556 S
C1085 C1089 1.495 . S
C1086 C1085 1.392 1_554 S
C1086 C1087 1.385 . S
C1086 C1088 1.478 . S
C1087 H1081 0.930 . S
C1087 C1083 1.400 . S
C1087 C1086 1.385 . S
C1088 C1086 1.478 . S
C1088 C1090 1.381 . S
C1088 C1094 1.383 1_554 S
C1089 C1085 1.495 . S
C1089 H1095 0.959 . S
C1089 H1096 0.961 . S
C1089 H1097 0.960 . S
C1090 C1088 1.381 . S
C1090 C1091 1.394 . S
C1090 H1098 0.930 . S
C1091 C1090 1.394 . S
C1091 C1092 1.383 . S
C1091 H1099 0.929 . S
C1092 C1091 1.383 . S
C1092 C1093 1.377 . S
C1093 H1077 0.930 1_554 S
C1093 C1092 1.377 . S
C1093 C1094 1.379 1_554 S
C1094 H1078 0.931 . S
C1094 C1088 1.383 1_556 S
C1094 C1093 1.379 1_556 S
H1095 C1089 0.959 . S
H1096 C1089 0.961 . S
H1097 C1089 0.960 . S
H1098 C1090 0.930 . S
H1099 C1091 0.929 . S
H1100 C1108 0.929 . S
H1101 C1110 0.930 . S
H1102 C1112 0.930 . S
H1103 C1115 0.929 . S
H1104 C1118 0.930 . S
H1105 C1120 0.960 . S
H1106 C1120 0.960 . S
H1107 C1120 0.960 . S
C1108 H1100 0.929 . S
C1108 C1109 1.377 . S
C1108 C1110 1.384 . S
C1109 C1108 1.377 . S
C1109 C1115 1.390 . S
C1110 H1101 0.930 . S
C1110 C1108 1.384 . S
C1110 C1111 1.372 . S
C1111 C1110 1.372 . S
C1111 C1112 1.400 . S
C1111 C1116 1.490 . S
C1112 H1102 0.930 . S
C1112 C1111 1.400 . S
C1112 C1115 1.386 . S
H1113 C1129 0.930 . S
H1114 C1130 0.931 . S
C1115 H1103 0.929 . S
C1115 C1109 1.390 . S
C1115 C1112 1.386 . S
C1116 C1111 1.490 . S
C1116 C1118 1.395 . S
C1116 C1119 1.403 . S
H1117 C1123 0.930 . S
C1118 H1104 0.930 . S
C1118 C1116 1.395 . S
C1118 C1121 1.403 . S
C1119 C1116 1.403 . S
C1119 C1120 1.524 . S
C1119 C1123 1.400 . S
C1120 H1105 0.960 . S
C1120 H1106 0.960 . S
C1120 H1107 0.960 . S
C1120 C1119 1.524 . S
C1121 C1118 1.403 . S
C1121 C1122 1.392 . S
C1121 C1125 1.495 . S
C1122 C1121 1.392 . S
C1122 C1123 1.385 . S
C1122 C1124 1.478 . S
C1123 H1117 0.930 . S
C1123 C1119 1.400 . S
C1123 C1122 1.385 . S
C1124 C1122 1.478 . S
C1124 C1126 1.381 . S
C1124 C1130 1.383 . S
C1125 C1121 1.495 . S
C1125 H1131 0.959 . S
C1125 H1132 0.961 . S
C1125 H1133 0.960 . S
C1126 C1124 1.381 . S
C1126 C1127 1.394 . S
C1126 H1134 0.930 . S
C1127 C1126 1.394 . S
C1127 C1128 1.383 . S
C1127 H1135 0.929 . S
C1128 C1127 1.383 . S
C1128 C1129 1.377 . S
C1129 H1113 0.930 . S
C1129 C1128 1.377 . S
C1129 C1130 1.379 . S
C1130 H1114 0.931 . S
C1130 C1124 1.383 . S
C1130 C1129 1.379 . S
H1131 C1125 0.959 . S
H1132 C1125 0.961 . S
H1133 C1125 0.960 . S
H1134 C1126 0.930 . S
H1135 C1127 0.929 . S
H1136 C1144 0.929 . S
H1137 C1146 0.930 . S
H1138 C1148 0.930 . S
H1139 C1151 0.929 . S
H1140 C1154 0.930 . S
H1141 C1156 0.960 . S
H1142 C1156 0.960 . S
H1143 C1156 0.960 . S
C1144 H1136 0.929 . S
C1144 C1145 1.377 . S
C1144 C1146 1.384 . S
C1145 C1144 1.377 . S
C1145 C1151 1.390 . S
C1146 H1137 0.930 . S
C1146 C1144 1.384 . S
C1146 C1147 1.372 . S
C1147 C1146 1.372 . S
C1147 C1148 1.400 . S
C1147 C1152 1.490 . S
C1148 H1138 0.930 . S
C1148 C1147 1.400 . S
C1148 C1151 1.386 . S
H1149 C1165 0.930 . S
H1150 C1166 0.931 . S
C1151 H1139 0.929 . S
C1151 C1145 1.390 . S
C1151 C1148 1.386 . S
C1152 C1147 1.490 . S
C1152 C1154 1.395 . S
C1152 C1155 1.403 . S
H1153 C1159 0.930 . S
C1154 H1140 0.930 . S
C1154 C1152 1.395 . S
C1154 C1157 1.403 . S
C1155 C1152 1.403 . S
C1155 C1156 1.524 . S
C1155 C1159 1.400 . S
C1156 H1141 0.960 . S
C1156 H1142 0.960 . S
C1156 H1143 0.960 . S
C1156 C1155 1.524 . S
C1157 C1154 1.403 . S
C1157 C1158 1.392 . S
C1157 C1161 1.495 . S
C1158 C1157 1.392 . S
C1158 C1159 1.385 . S
C1158 C1160 1.478 . S
C1159 H1153 0.930 . S
C1159 C1155 1.400 . S
C1159 C1158 1.385 . S
C1160 C1158 1.478 . S
C1160 C1162 1.381 . S
C1160 C1166 1.383 . S
C1161 C1157 1.495 . S
C1161 H1167 0.959 . S
C1161 H1168 0.961 . S
C1161 H1169 0.960 . S
C1162 C1160 1.381 . S
C1162 C1163 1.394 . S
C1162 H1170 0.930 . S
C1163 C1162 1.394 . S
C1163 C1164 1.383 . S
C1163 H1171 0.929 . S
C1164 C1163 1.383 . S
C1164 C1165 1.377 . S
C1165 H1149 0.930 . S
C1165 C1164 1.377 . S
C1165 C1166 1.379 . S
C1166 H1150 0.931 . S
C1166 C1160 1.383 . S
C1166 C1165 1.379 . S
H1167 C1161 0.959 . S
H1168 C1161 0.961 . S
H1169 C1161 0.960 . S
H1170 C1162 0.930 . S
H1171 C1163 0.929 . S
H1172 C1180 0.929 . S
H1173 C1182 0.930 . S
H1174 C1184 0.919 1_554 S
H1175 C1187 0.929 . S
H1176 C1190 0.930 . S
H1177 C1192 0.960 . S
H1178 C1192 0.960 . S
H1179 C1192 0.960 . S
C1180 H1172 0.929 . S
C1180 C1181 1.377 . S
C1180 C1182 1.384 . S
C1181 C1180 1.377 . S
C1181 C1187 1.390 . S
C1182 H1173 0.930 . S
C1182 C1180 1.384 . S
C1182 C1183 1.372 . S
C1183 C1182 1.372 . S
C1183 C1184 1.400 . S
C1183 C1188 1.490 . S
C1184 H1174 0.919 1_556 S
C1184 C1183 1.400 . S
C1184 C1187 1.386 . S
H1185 C1201 0.930 . S
H1186 C1202 0.931 . S
C1187 H1175 0.929 . S
C1187 C1181 1.390 . S
C1187 C1184 1.386 . S
C1188 C1183 1.490 . S
C1188 C1190 1.395 . S
C1188 C1191 1.403 1_556 S
H1189 C1195 0.930 . S
C1190 H1176 0.930 . S
C1190 C1188 1.395 . S
C1190 C1193 1.403 . S
C1191 C1188 1.403 1_554 S
C1191 C1192 1.524 . S
C1191 C1195 1.400 . S
C1192 H1177 0.960 . S
C1192 H1178 0.960 . S
C1192 H1179 0.960 . S
C1192 C1191 1.524 . S
C1193 C1190 1.403 . S
C1193 C1194 1.392 . S
C1193 C1197 1.495 . S
C1194 C1193 1.392 . S
C1194 C1195 1.385 1_556 S
C1194 C1196 1.478 . S
C1195 H1189 0.930 . S
C1195 C1191 1.400 . S
C1195 C1194 1.385 1_554 S
C1196 C1194 1.478 . S
C1196 C1198 1.381 . S
C1196 C1202 1.383 1_556 S
C1197 C1193 1.495 . S
C1197 H1203 0.959 . S
C1197 H1204 0.961 . S
C1197 H1205 0.960 . S
C1198 C1196 1.381 . S
C1198 C1199 1.394 . S
C1198 H1206 0.930 . S
C1199 C1198 1.394 . S
C1199 C1200 1.383 1_556 S
C1199 H1207 0.929 . S
C1200 C1199 1.383 1_554 S
C1200 C1201 1.377 . S
C1201 H1185 0.930 . S
C1201 C1200 1.377 . S
C1201 C1202 1.379 . S
C1202 H1186 0.931 . S
C1202 C1196 1.383 1_554 S
C1202 C1201 1.379 . S
H1203 C1197 0.959 . S
H1204 C1197 0.961 . S
H1205 C1197 0.960 . S
H1206 C1198 0.930 . S
H1207 C1199 0.929 . S
H1208 C1216 0.929 . S
H1209 C1218 0.930 . S
H1210 C1220 0.930 . S
H1211 C1223 0.929 . S
H1212 C1226 0.930 . S
H1213 C1228 0.960 . S
H1214 C1228 0.960 . S
H1215 C1228 0.960 . S
C1216 H1208 0.929 . S
C1216 C1217 1.377 . S
C1216 C1218 1.384 . S
C1217 C1216 1.377 . S
C1217 C1223 1.390 . S
C1218 H1209 0.930 . S
C1218 C1216 1.384 . S
C1218 C1219 1.372 . S
C1219 C1218 1.372 . S
C1219 C1220 1.400 . S
C1219 C1224 1.490 . S
C1220 H1210 0.930 . S
C1220 C1219 1.400 . S
C1220 C1223 1.386 . S
H1221 C1237 0.930 . S
H1222 C1238 0.931 . S
C1223 H1211 0.929 . S
C1223 C1217 1.390 . S
C1223 C1220 1.386 . S
C1224 C1219 1.490 . S
C1224 C1226 1.395 . S
C1224 C1227 1.403 . S
H1225 C1231 0.930 . S
C1226 H1212 0.930 . S
C1226 C1224 1.395 . S
C1226 C1229 1.403 . S
C1227 C1224 1.403 . S
C1227 C1228 1.524 . S
C1227 C1231 1.400 . S
C1228 H1213 0.960 . S
C1228 H1214 0.960 . S
C1228 H1215 0.960 . S
C1228 C1227 1.524 . S
C1229 C1226 1.403 . S
C1229 C1230 1.392 . S
C1229 C1233 1.495 . S
C1230 C1229 1.392 . S
C1230 C1231 1.385 . S
C1230 C1232 1.478 . S
C1231 H1225 0.930 . S
C1231 C1227 1.400 . S
C1231 C1230 1.385 . S
C1232 C1230 1.478 . S
C1232 C1234 1.381 . S
C1232 C1238 1.383 . S
C1233 C1229 1.495 . S
C1233 H1239 0.959 . S
C1233 H1240 0.961 . S
C1233 H1241 0.960 . S
C1234 C1232 1.381 . S
C1234 C1235 1.394 . S
C1234 H1242 0.930 . S
C1235 C1234 1.394 . S
C1235 C1236 1.383 . S
C1235 H1243 0.929 . S
C1236 C1235 1.383 . S
C1236 C1237 1.377 . S
C1237 H1221 0.930 . S
C1237 C1236 1.377 . S
C1237 C1238 1.379 . S
C1238 H1222 0.931 . S
C1238 C1232 1.383 . S
C1238 C1237 1.379 . S
H1239 C1233 0.959 . S
H1240 C1233 0.961 . S
H1241 C1233 0.960 . S
H1242 C1234 0.930 . S
H1243 C1235 0.929 . S
H1244 C1252 0.929 . S
H1245 C1254 0.930 . S
H1246 C1256 0.930 . S
H1247 C1259 0.929 . S
H1248 C1262 0.930 . S
H1249 C1264 0.960 . S
H1250 C1264 0.960 . S
H1251 C1264 0.960 . S
C1252 H1244 0.929 . S
C1252 C1253 1.377 . S
C1252 C1254 1.384 . S
C1253 C1252 1.377 . S
C1253 C1259 1.390 . S
C1254 H1245 0.930 . S
C1254 C1252 1.384 . S
C1254 C1255 1.372 . S
C1255 C1254 1.372 . S
C1255 C1256 1.400 . S
C1255 C1260 1.490 . S
C1256 H1246 0.930 . S
C1256 C1255 1.400 . S
C1256 C1259 1.386 . S
H1257 C1273 0.930 . S
H1258 C1274 0.931 . S
C1259 H1247 0.929 . S
C1259 C1253 1.390 . S
C1259 C1256 1.386 . S
C1260 C1255 1.490 . S
C1260 C1262 1.395 . S
C1260 C1263 1.403 . S
H1261 C1267 0.930 . S
C1262 H1248 0.930 . S
C1262 C1260 1.395 . S
C1262 C1265 1.403 . S
C1263 C1260 1.403 . S
C1263 C1264 1.524 . S
C1263 C1267 1.400 . S
C1264 H1249 0.960 . S
C1264 H1250 0.960 . S
C1264 H1251 0.960 . S
C1264 C1263 1.524 . S
C1265 C1262 1.403 . S
C1265 C1266 1.392 . S
C1265 C1269 1.495 . S
C1266 C1265 1.392 . S
C1266 C1267 1.385 . S
C1266 C1268 1.478 . S
C1267 H1261 0.930 . S
C1267 C1263 1.400 . S
C1267 C1266 1.385 . S
C1268 C1266 1.478 . S
C1268 C1270 1.381 . S
C1268 C1274 1.383 . S
C1269 C1265 1.495 . S
C1269 H1275 0.959 . S
C1269 H1276 0.961 . S
C1269 H1277 0.960 . S
C1270 C1268 1.381 . S
C1270 C1271 1.394 . S
C1270 H1278 0.930 . S
C1271 C1270 1.394 . S
C1271 C1272 1.383 . S
C1271 H1279 0.929 . S
C1272 C1271 1.383 . S
C1272 C1273 1.377 . S
C1273 H1257 0.930 . S
C1273 C1272 1.377 . S
C1273 C1274 1.379 . S
C1274 H1258 0.931 . S
C1274 C1268 1.383 . S
C1274 C1273 1.379 . S
H1275 C1269 0.959 . S
H1276 C1269 0.961 . S
H1277 C1269 0.960 . S
H1278 C1270 0.930 . S
H1279 C1271 0.929 . S
H1280 C1288 0.929 . S
H1281 C1290 0.930 . S
H1282 C1292 0.930 . S
H1283 C1295 0.929 . S
H1284 C1298 0.930 . S
H1285 C1300 0.960 . S
H1286 C1300 0.960 . S
H1287 C1300 0.960 . S
C1288 H1280 0.929 . S
C1288 C1289 1.377 . S
C1288 C1290 1.384 . S
C1289 C1288 1.377 . S
C1289 C1295 1.390 . S
C1290 H1281 0.930 . S
C1290 C1288 1.384 . S
C1290 C1291 1.372 . S
C1291 C1290 1.372 . S
C1291 C1292 1.400 . S
C1291 C1296 1.490 . S
C1292 H1282 0.930 . S
C1292 C1291 1.400 . S
C1292 C1295 1.386 . S
H1293 C1309 0.930 . S
H1294 C1310 0.931 . S
C1295 H1283 0.929 . S
C1295 C1289 1.390 . S
C1295 C1292 1.386 . S
C1296 C1291 1.490 . S
C1296 C1298 1.395 . S
C1296 C1299 1.403 . S
H1297 C1303 0.930 . S
C1298 H1284 0.930 . S
C1298 C1296 1.395 . S
C1298 C1301 1.403 . S
C1299 C1296 1.403 . S
C1299 C1300 1.524 . S
C1299 C1303 1.400 . S
C1300 H1285 0.960 . S
C1300 H1286 0.960 . S
C1300 H1287 0.960 . S
C1300 C1299 1.524 . S
C1301 C1298 1.403 . S
C1301 C1302 1.392 . S
C1301 C1305 1.495 . S
C1302 C1301 1.392 . S
C1302 C1303 1.385 . S
C1302 C1304 1.478 . S
C1303 H1297 0.930 . S
C1303 C1299 1.400 . S
C1303 C1302 1.385 . S
C1304 C1302 1.478 . S
C1304 C1306 1.381 . S
C1304 C1310 1.383 . S
C1305 C1301 1.495 . S
C1305 H1311 0.959 . S
C1305 H1312 0.961 . S
C1305 H1313 0.960 . S
C1306 C1304 1.381 . S
C1306 C1307 1.394 . S
C1306 H1314 0.930 . S
C1307 C1306 1.394 . S
C1307 C1308 1.383 . S
C1307 H1315 0.929 . S
C1308 C1307 1.383 . S
C1308 C1309 1.377 . S
C1309 H1293 0.930 . S
C1309 C1308 1.377 . S
C1309 C1310 1.379 . S
C1310 H1294 0.931 . S
C1310 C1304 1.383 . S
C1310 C1309 1.379 . S
H1311 C1305 0.959 . S
H1312 C1305 0.961 . S
H1313 C1305 0.960 . S
H1314 C1306 0.930 . S
H1315 C1307 0.929 . S
H1316 C1324 0.929 . S
H1317 C1326 0.930 . S
H1318 C1328 0.930 . S
H1319 C1331 0.929 . S
H1320 C1334 0.930 . S
H1321 C1336 0.960 . S
H1322 C1336 0.960 . S
H1323 C1336 0.960 . S
C1324 H1316 0.929 . S
C1324 C1325 1.377 . S
C1324 C1326 1.384 . S
C1325 C1324 1.377 . S
C1325 C1331 1.390 . S
C1326 H1317 0.930 . S
C1326 C1324 1.384 . S
C1326 C1327 1.372 . S
C1327 C1326 1.372 . S
C1327 C1328 1.400 . S
C1327 C1332 1.490 . S
C1328 H1318 0.930 . S
C1328 C1327 1.400 . S
C1328 C1331 1.386 . S
H1329 C1345 0.930 . S
H1330 C1346 0.931 . S
C1331 H1319 0.929 . S
C1331 C1325 1.390 . S
C1331 C1328 1.386 . S
C1332 C1327 1.490 . S
C1332 C1334 1.395 . S
C1332 C1335 1.403 . S
H1333 C1339 0.930 . S
C1334 H1320 0.930 . S
C1334 C1332 1.395 . S
C1334 C1337 1.403 . S
C1335 C1332 1.403 . S
C1335 C1336 1.524 . S
C1335 C1339 1.400 . S
C1336 H1321 0.960 . S
C1336 H1322 0.960 . S
C1336 H1323 0.960 . S
C1336 C1335 1.524 . S
C1337 C1334 1.403 . S
C1337 C1338 1.392 . S
C1337 C1341 1.495 . S
C1338 C1337 1.392 . S
C1338 C1339 1.385 . S
C1338 C1340 1.478 . S
C1339 H1333 0.930 . S
C1339 C1335 1.400 . S
C1339 C1338 1.385 . S
C1340 C1338 1.478 . S
C1340 C1342 1.381 . S
C1340 C1346 1.383 . S
C1341 C1337 1.495 . S
C1341 H1347 0.959 . S
C1341 H1348 0.961 . S
C1341 H1349 0.960 . S
C1342 C1340 1.381 . S
C1342 C1343 1.394 . S
C1342 H1350 0.930 . S
C1343 C1342 1.394 . S
C1343 C1344 1.383 . S
C1343 H1351 0.929 . S
C1344 C1343 1.383 . S
C1344 C1345 1.377 . S
C1345 H1329 0.930 . S
C1345 C1344 1.377 . S
C1345 C1346 1.379 . S
C1346 H1330 0.931 . S
C1346 C1340 1.383 . S
C1346 C1345 1.379 . S
H1347 C1341 0.959 . S
H1348 C1341 0.961 . S
H1349 C1341 0.960 . S
H1350 C1342 0.930 . S
H1351 C1343 0.929 . S
H1352 C1360 0.929 . S
H1353 C1362 0.930 . S
H1354 C1364 0.930 . S
H1355 C1367 0.929 . S
H1356 C1370 0.930 . S
H1357 C1372 0.960 . S
H1358 C1372 0.960 . S
H1359 C1372 0.960 . S
C1360 H1352 0.929 . S
C1360 C1361 1.377 . S
C1360 C1362 1.384 . S
C1361 C1360 1.377 . S
C1361 C1367 1.390 . S
C1362 H1353 0.930 . S
C1362 C1360 1.384 . S
C1362 C1363 1.372 . S
C1363 C1362 1.372 . S
C1363 C1364 1.400 . S
C1363 C1368 1.490 . S
C1364 H1354 0.930 . S
C1364 C1363 1.400 . S
C1364 C1367 1.386 . S
H1365 C1381 0.930 . S
H1366 C1382 0.931 . S
C1367 H1355 0.929 . S
C1367 C1361 1.390 . S
C1367 C1364 1.386 . S
C1368 C1363 1.490 . S
C1368 C1370 1.395 . S
C1368 C1371 1.403 . S
H1369 C1375 0.930 . S
C1370 H1356 0.930 . S
C1370 C1368 1.395 . S
C1370 C1373 1.403 . S
C1371 C1368 1.403 . S
C1371 C1372 1.524 . S
C1371 C1375 1.400 . S
C1372 H1357 0.960 . S
C1372 H1358 0.960 . S
C1372 H1359 0.960 . S
C1372 C1371 1.524 . S
C1373 C1370 1.403 . S
C1373 C1374 1.392 . S
C1373 C1377 1.495 . S
C1374 C1373 1.392 . S
C1374 C1375 1.385 . S
C1374 C1376 1.478 . S
C1375 H1369 0.930 . S
C1375 C1371 1.400 . S
C1375 C1374 1.385 . S
C1376 C1374 1.478 . S
C1376 C1378 1.381 . S
C1376 C1382 1.383 . S
C1377 C1373 1.495 . S
C1377 H1383 0.959 . S
C1377 H1384 0.961 . S
C1377 H1385 0.960 . S
C1378 C1376 1.381 . S
C1378 C1379 1.394 . S
C1378 H1386 0.930 . S
C1379 C1378 1.394 . S
C1379 C1380 1.383 . S
C1379 H1387 0.929 . S
C1380 C1379 1.383 . S
C1380 C1381 1.377 . S
C1381 H1365 0.930 . S
C1381 C1380 1.377 . S
C1381 C1382 1.379 . S
C1382 H1366 0.931 . S
C1382 C1376 1.383 . S
C1382 C1381 1.379 . S
H1383 C1377 0.959 . S
H1384 C1377 0.961 . S
H1385 C1377 0.960 . S
H1386 C1378 0.930 . S
H1387 C1379 0.929 . S
H1388 C1396 0.929 . S
H1389 C1398 0.930 . S
H1390 C1400 0.930 . S
H1391 C1403 0.929 . S
H1392 C1406 0.930 . S
H1393 C1408 0.960 . S
H1394 C1408 0.960 . S
H1395 C1408 0.960 . S
C1396 H1388 0.929 . S
C1396 C1397 1.377 . S
C1396 C1398 1.384 . S
C1397 C1396 1.377 . S
C1397 C1403 1.390 . S
C1398 H1389 0.930 . S
C1398 C1396 1.384 . S
C1398 C1399 1.372 . S
C1399 C1398 1.372 . S
C1399 C1400 1.400 . S
C1399 C1404 1.490 . S
C1400 H1390 0.930 . S
C1400 C1399 1.400 . S
C1400 C1403 1.386 . S
H1401 C1417 0.930 . S
H1402 C1418 0.931 . S
C1403 H1391 0.929 . S
C1403 C1397 1.390 . S
C1403 C1400 1.386 . S
C1404 C1399 1.490 . S
C1404 C1406 1.395 . S
C1404 C1407 1.403 . S
H1405 C1411 0.930 . S
C1406 H1392 0.930 . S
C1406 C1404 1.395 . S
C1406 C1409 1.403 . S
C1407 C1404 1.403 . S
C1407 C1408 1.524 . S
C1407 C1411 1.400 . S
C1408 H1393 0.960 . S
C1408 H1394 0.960 . S
C1408 H1395 0.960 . S
C1408 C1407 1.524 . S
C1409 C1406 1.403 . S
C1409 C1410 1.392 . S
C1409 C1413 1.495 . S
C1410 C1409 1.392 . S
C1410 C1411 1.385 . S
C1410 C1412 1.478 . S
C1411 H1405 0.930 . S
C1411 C1407 1.400 . S
C1411 C1410 1.385 . S
C1412 C1410 1.478 . S
C1412 C1414 1.381 . S
C1412 C1418 1.383 . S
C1413 C1409 1.495 . S
C1413 H1419 0.959 . S
C1413 H1420 0.961 . S
C1413 H1421 0.960 . S
C1414 C1412 1.381 . S
C1414 C1415 1.394 . S
C1414 H1422 0.930 . S
C1415 C1414 1.394 . S
C1415 C1416 1.383 . S
C1415 H1423 0.929 . S
C1416 C1415 1.383 . S
C1416 C1417 1.377 . S
C1417 H1401 0.930 . S
C1417 C1416 1.377 . S
C1417 C1418 1.379 . S
C1418 H1402 0.931 . S
C1418 C1412 1.383 . S
C1418 C1417 1.379 . S
H1419 C1413 0.959 . S
H1420 C1413 0.961 . S
H1421 C1413 0.960 . S
H1422 C1414 0.930 . S
H1423 C1415 0.929 . S
H1424 C1432 0.929 . S
H1425 C1434 0.930 . S
H1426 C1436 0.930 . S
H1427 C1439 0.929 . S
H1428 C1442 0.930 . S
H1429 C1444 0.960 . S
H1430 C1444 0.960 . S
H1431 C1444 0.960 . S
C1432 H1424 0.929 . S
C1432 C1433 1.377 . S
C1432 C1434 1.384 . S
C1433 C1432 1.377 . S
C1433 C1439 1.390 . S
C1434 H1425 0.930 . S
C1434 C1432 1.384 . S
C1434 C1435 1.372 . S
C1435 C1434 1.372 . S
C1435 C1436 1.400 . S
C1435 C1440 1.490 . S
C1436 H1426 0.930 . S
C1436 C1435 1.400 . S
C1436 C1439 1.386 . S
H1437 C1453 0.930 . S
H1438 C1454 0.931 . S
C1439 H1427 0.929 . S
C1439 C1433 1.390 . S
C1439 C1436 1.386 . S
C1440 C1435 1.490 . S
C1440 C1442 1.395 . S
C1440 C1443 1.403 . S
H1441 C1447 0.930 . S
C1442 H1428 0.930 . S
C1442 C1440 1.395 . S
C1442 C1445 1.403 . S
C1443 C1440 1.403 . S
C1443 C1444 1.524 . S
C1443 C1447 1.400 . S
C1444 H1429 0.960 . S
C1444 H1430 0.960 . S
C1444 H1431 0.960 . S
C1444 C1443 1.524 . S
C1445 C1442 1.403 . S
C1445 C1446 1.392 . S
C1445 C1449 1.495 . S
C1446 C1445 1.392 . S
C1446 C1447 1.385 . S
C1446 C1448 1.478 . S
C1447 H1441 0.930 . S
C1447 C1443 1.400 . S
C1447 C1446 1.385 . S
C1448 C1446 1.478 . S
C1448 C1450 1.381 . S
C1448 C1454 1.383 . S
C1449 C1445 1.495 . S
C1449 H1455 0.959 . S
C1449 H1456 0.961 . S
C1449 H1457 0.960 . S
C1450 C1448 1.381 . S
C1450 C1451 1.394 . S
C1450 H1458 0.930 . S
C1451 C1450 1.394 . S
C1451 C1452 1.383 . S
C1451 H1459 0.929 . S
C1452 C1451 1.383 . S
C1452 C1453 1.377 . S
C1453 H1437 0.930 . S
C1453 C1452 1.377 . S
C1453 C1454 1.379 . S
C1454 H1438 0.931 . S
C1454 C1448 1.383 . S
C1454 C1453 1.379 . S
H1455 C1449 0.959 . S
H1456 C1449 0.961 . S
H1457 C1449 0.960 . S
H1458 C1450 0.930 . S
H1459 C1451 0.929 . S
H1460 C1468 0.929 . S
H1461 C1470 0.930 . S
H1462 C1472 0.930 . S
H1463 C1475 0.929 . S
H1464 C1478 0.930 . S
H1465 C1480 0.960 . S
H1466 C1480 0.960 . S
H1467 C1480 0.960 . S
C1468 H1460 0.929 . S
C1468 C1469 1.377 . S
C1468 C1470 1.384 . S
C1469 C1468 1.377 . S
C1469 C1475 1.390 . S
C1470 H1461 0.930 . S
C1470 C1468 1.384 . S
C1470 C1471 1.372 . S
C1471 C1470 1.372 . S
C1471 C1472 1.400 . S
C1471 C1476 1.490 . S
C1472 H1462 0.930 . S
C1472 C1471 1.400 . S
C1472 C1475 1.386 . S
H1473 C1489 0.930 . S
H1474 C1490 0.931 . S
C1475 H1463 0.929 . S
C1475 C1469 1.390 . S
C1475 C1472 1.386 . S
C1476 C1471 1.490 . S
C1476 C1478 1.395 . S
C1476 C1479 1.403 . S
H1477 C1483 0.930 . S
C1478 H1464 0.930 . S
C1478 C1476 1.395 . S
C1478 C1481 1.403 . S
C1479 C1476 1.403 . S
C1479 C1480 1.524 . S
C1479 C1483 1.400 . S
C1480 H1465 0.960 . S
C1480 H1466 0.960 . S
C1480 H1467 0.960 . S
C1480 C1479 1.524 . S
C1481 C1478 1.403 . S
C1481 C1482 1.392 . S
C1481 C1485 1.495 . S
C1482 C1481 1.392 . S
C1482 C1483 1.385 . S
C1482 C1484 1.478 . S
C1483 H1477 0.930 . S
C1483 C1479 1.400 . S
C1483 C1482 1.385 . S
C1484 C1482 1.478 . S
C1484 C1486 1.381 . S
C1484 C1490 1.383 . S
C1485 C1481 1.495 . S
C1485 H1491 0.959 . S
C1485 H1492 0.961 . S
C1485 H1493 0.960 . S
C1486 C1484 1.381 . S
C1486 C1487 1.394 . S
C1486 H1494 0.930 . S
C1487 C1486 1.394 . S
C1487 C1488 1.383 . S
C1487 H1495 0.929 . S
C1488 C1487 1.383 . S
C1488 C1489 1.377 . S
C1489 H1473 0.930 . S
C1489 C1488 1.377 . S
C1489 C1490 1.379 . S
C1490 H1474 0.931 . S
C1490 C1484 1.383 . S
C1490 C1489 1.379 . S
H1491 C1485 0.959 . S
H1492 C1485 0.961 . S
H1493 C1485 0.960 . S
H1494 C1486 0.930 . S
H1495 C1487 0.929 . S
H1496 C1504 0.929 . S
H1497 C1506 0.930 . S
H1498 C1508 0.930 . S
H1499 C1511 0.929 . S
H1500 C1514 0.930 . S
H1501 C1516 0.960 . S
H1502 C1516 0.960 . S
H1503 C1516 0.960 . S
C1504 H1496 0.929 . S
C1504 C1505 1.377 . S
C1504 C1506 1.384 . S
C1505 C1504 1.377 . S
C1505 C1511 1.390 . S
C1506 H1497 0.930 . S
C1506 C1504 1.384 . S
C1506 C1507 1.372 . S
C1507 C1506 1.372 . S
C1507 C1508 1.400 . S
C1507 C1512 1.490 . S
C1508 H1498 0.930 . S
C1508 C1507 1.400 . S
C1508 C1511 1.386 . S
H1509 C1525 0.930 . S
H1510 C1526 0.931 . S
C1511 H1499 0.929 . S
C1511 C1505 1.390 . S
C1511 C1508 1.386 . S
C1512 C1507 1.490 . S
C1512 C1514 1.395 . S
C1512 C1515 1.403 . S
H1513 C1519 0.930 . S
C1514 H1500 0.930 . S
C1514 C1512 1.395 . S
C1514 C1517 1.403 . S
C1515 C1512 1.403 . S
C1515 C1516 1.524 . S
C1515 C1519 1.400 . S
C1516 H1501 0.960 . S
C1516 H1502 0.960 . S
C1516 H1503 0.960 . S
C1516 C1515 1.524 . S
C1517 C1514 1.403 . S
C1517 C1518 1.392 . S
C1517 C1521 1.495 . S
C1518 C1517 1.392 . S
C1518 C1519 1.385 . S
C1518 C1520 1.478 . S
C1519 H1513 0.930 . S
C1519 C1515 1.400 . S
C1519 C1518 1.385 . S
C1520 C1518 1.478 . S
C1520 C1522 1.381 . S
C1520 C1526 1.383 . S
C1521 C1517 1.495 . S
C1521 H1527 0.959 . S
C1521 H1528 0.961 . S
C1521 H1529 0.960 . S
C1522 C1520 1.381 . S
C1522 C1523 1.394 . S
C1522 H1530 0.930 . S
C1523 C1522 1.394 . S
C1523 C1524 1.383 . S
C1523 H1531 0.929 . S
C1524 C1523 1.383 . S
C1524 C1525 1.377 . S
C1525 H1509 0.930 . S
C1525 C1524 1.377 . S
C1525 C1526 1.379 . S
C1526 H1510 0.931 . S
C1526 C1520 1.383 . S
C1526 C1525 1.379 . S
H1527 C1521 0.959 . S
H1528 C1521 0.961 . S
H1529 C1521 0.960 . S
H1530 C1522 0.930 . S
H1531 C1523 0.929 . S
H1532 C1540 0.929 . S
H1533 C1542 0.930 . S
H1534 C1544 0.930 . S
H1535 C1547 0.929 . S
H1536 C1550 0.930 . S
H1537 C1552 0.960 . S
H1538 C1552 0.960 . S
H1539 C1552 0.960 . S
C1540 H1532 0.929 . S
C1540 C1541 1.377 . S
C1540 C1542 1.384 . S
C1541 C1540 1.377 . S
C1541 C1547 1.390 . S
C1542 H1533 0.930 . S
C1542 C1540 1.384 . S
C1542 C1543 1.372 . S
C1543 C1542 1.372 . S
C1543 C1544 1.400 . S
C1543 C1548 1.490 . S
C1544 H1534 0.930 . S
C1544 C1543 1.400 . S
C1544 C1547 1.386 . S
H1545 C1561 0.930 . S
H1546 C1562 0.931 . S
C1547 H1535 0.929 . S
C1547 C1541 1.390 . S
C1547 C1544 1.386 . S
C1548 C1543 1.490 . S
C1548 C1550 1.395 . S
C1548 C1551 1.403 . S
H1549 C1555 0.930 . S
C1550 H1536 0.930 . S
C1550 C1548 1.395 . S
C1550 C1553 1.403 . S
C1551 C1548 1.403 . S
C1551 C1552 1.524 . S
C1551 C1555 1.400 . S
C1552 H1537 0.960 . S
C1552 H1538 0.960 . S
C1552 H1539 0.960 . S
C1552 C1551 1.524 . S
C1553 C1550 1.403 . S
C1553 C1554 1.392 . S
C1553 C1557 1.495 . S
C1554 C1553 1.392 . S
C1554 C1555 1.385 . S
C1554 C1556 1.478 . S
C1555 H1549 0.930 . S
C1555 C1551 1.400 . S
C1555 C1554 1.385 . S
C1556 C1554 1.478 . S
C1556 C1558 1.381 . S
C1556 C1562 1.383 . S
C1557 C1553 1.495 . S
C1557 H1563 0.959 . S
C1557 H1564 0.961 . S
C1557 H1565 0.960 . S
C1558 C1556 1.381 . S
C1558 C1559 1.394 . S
C1558 H1566 0.930 . S
C1559 C1558 1.394 . S
C1559 C1560 1.383 . S
C1559 H1567 0.929 . S
C1560 C1559 1.383 . S
C1560 C1561 1.377 . S
C1561 H1545 0.930 . S
C1561 C1560 1.377 . S
C1561 C1562 1.379 . S
C1562 H1546 0.931 . S
C1562 C1556 1.383 . S
C1562 C1561 1.379 . S
H1563 C1557 0.959 . S
H1564 C1557 0.961 . S
H1565 C1557 0.960 . S
H1566 C1558 0.930 . S
H1567 C1559 0.929 . S
H1568 C1576 0.929 . S
H1569 C1578 0.930 . S
H1570 C1580 0.930 . S
H1571 C1583 0.929 . S
H1572 C1586 0.930 . S
H1573 C1588 0.960 . S
H1574 C1588 0.960 . S
H1575 C1588 0.960 . S
C1576 H1568 0.929 . S
C1576 C1577 1.377 . S
C1576 C1578 1.384 . S
C1577 C1576 1.377 . S
C1577 C1583 1.390 . S
C1578 H1569 0.930 . S
C1578 C1576 1.384 . S
C1578 C1579 1.372 . S
C1579 C1578 1.372 . S
C1579 C1580 1.400 . S
C1579 C1584 1.490 . S
C1580 H1570 0.930 . S
C1580 C1579 1.400 . S
C1580 C1583 1.386 . S
H1581 C1597 0.930 . S
H1582 C1598 0.931 . S
C1583 H1571 0.929 . S
C1583 C1577 1.390 . S
C1583 C1580 1.386 . S
C1584 C1579 1.490 . S
C1584 C1586 1.395 . S
C1584 C1587 1.403 . S
H1585 C1591 0.930 . S
C1586 H1572 0.930 . S
C1586 C1584 1.395 . S
C1586 C1589 1.403 . S
C1587 C1584 1.403 . S
C1587 C1588 1.524 . S
C1587 C1591 1.400 . S
C1588 H1573 0.960 . S
C1588 H1574 0.960 . S
C1588 H1575 0.960 . S
C1588 C1587 1.524 . S
C1589 C1586 1.403 . S
C1589 C1590 1.392 . S
C1589 C1593 1.495 . S
C1590 C1589 1.392 . S
C1590 C1591 1.385 . S
C1590 C1592 1.478 . S
C1591 H1585 0.930 . S
C1591 C1587 1.400 . S
C1591 C1590 1.385 . S
C1592 C1590 1.478 . S
C1592 C1594 1.381 . S
C1592 C1598 1.383 . S
C1593 C1589 1.495 . S
C1593 H1599 0.959 . S
C1593 H1600 0.961 . S
C1593 H1601 0.960 . S
C1594 C1592 1.381 . S
C1594 C1595 1.394 . S
C1594 H1602 0.930 . S
C1595 C1594 1.394 . S
C1595 C1596 1.383 . S
C1595 H1603 0.929 . S
C1596 C1595 1.383 . S
C1596 C1597 1.377 . S
C1597 H1581 0.930 . S
C1597 C1596 1.377 . S
C1597 C1598 1.379 . S
C1598 H1582 0.931 . S
C1598 C1592 1.383 . S
C1598 C1597 1.379 . S
H1599 C1593 0.959 . S
H1600 C1593 0.961 . S
H1601 C1593 0.960 . S
H1602 C1594 0.930 . S
H1603 C1595 0.929 . S
H1604 C1612 0.929 . S
H1605 C1614 0.930 . S
H1606 C1616 0.930 . S
H1607 C1619 0.929 . S
H1608 C1622 0.930 . S
H1609 C1624 0.960 . S
H1610 C1624 0.960 . S
H1611 C1624 0.960 . S
C1612 H1604 0.929 . S
C1612 C1613 1.377 . S
C1612 C1614 1.384 . S
C1613 C1612 1.377 . S
C1613 C1619 1.390 . S
C1614 H1605 0.930 . S
C1614 C1612 1.384 . S
C1614 C1615 1.372 . S
C1615 C1614 1.372 . S
C1615 C1616 1.400 . S
C1615 C1620 1.490 . S
C1616 H1606 0.930 . S
C1616 C1615 1.400 . S
C1616 C1619 1.386 . S
H1617 C1633 0.930 . S
H1618 C1634 0.931 . S
C1619 H1607 0.929 . S
C1619 C1613 1.390 . S
C1619 C1616 1.386 . S
C1620 C1615 1.490 . S
C1620 C1622 1.395 . S
C1620 C1623 1.403 . S
H1621 C1627 0.930 . S
C1622 H1608 0.930 . S
C1622 C1620 1.395 . S
C1622 C1625 1.403 . S
C1623 C1620 1.403 . S
C1623 C1624 1.524 . S
C1623 C1627 1.400 . S
C1624 H1609 0.960 . S
C1624 H1610 0.960 . S
C1624 H1611 0.960 . S
C1624 C1623 1.524 . S
C1625 C1622 1.403 . S
C1625 C1626 1.392 . S
C1625 C1629 1.495 . S
C1626 C1625 1.392 . S
C1626 C1627 1.385 . S
C1626 C1628 1.478 . S
C1627 H1621 0.930 . S
C1627 C1623 1.400 . S
C1627 C1626 1.385 . S
C1628 C1626 1.478 . S
C1628 C1630 1.381 . S
C1628 C1634 1.383 . S
C1629 C1625 1.495 . S
C1629 H1635 0.959 . S
C1629 H1636 0.961 . S
C1629 H1637 0.960 . S
C1630 C1628 1.381 . S
C1630 C1631 1.394 . S
C1630 H1638 0.930 . S
C1631 C1630 1.394 . S
C1631 C1632 1.383 . S
C1631 H1639 0.929 . S
C1632 C1631 1.383 . S
C1632 C1633 1.377 . S
C1633 H1617 0.930 . S
C1633 C1632 1.377 . S
C1633 C1634 1.379 . S
C1634 H1618 0.931 . S
C1634 C1628 1.383 . S
C1634 C1633 1.379 . S
H1635 C1629 0.959 . S
H1636 C1629 0.961 . S
H1637 C1629 0.960 . S
H1638 C1630 0.930 . S
H1639 C1631 0.929 . S
H1640 C1648 0.929 . S
H1641 C1650 0.930 . S
H1642 C1652 0.930 . S
H1643 C1655 0.929 . S
H1644 C1658 0.930 . S
H1645 C1660 0.960 . S
H1646 C1660 0.960 . S
H1647 C1660 0.960 . S
C1648 H1640 0.929 . S
C1648 C1649 1.377 . S
C1648 C1650 1.384 . S
C1649 C1648 1.377 . S
C1649 C1655 1.390 . S
C1650 H1641 0.930 . S
C1650 C1648 1.384 . S
C1650 C1651 1.372 . S
C1651 C1650 1.372 . S
C1651 C1652 1.400 . S
C1651 C1656 1.490 . S
C1652 H1642 0.930 . S
C1652 C1651 1.400 . S
C1652 C1655 1.386 . S
H1653 C1669 0.930 . S
H1654 C1670 0.931 . S
C1655 H1643 0.929 . S
C1655 C1649 1.390 . S
C1655 C1652 1.386 . S
C1656 C1651 1.490 . S
C1656 C1658 1.395 . S
C1656 C1659 1.403 . S
H1657 C1663 0.930 . S
C1658 H1644 0.930 . S
C1658 C1656 1.395 . S
C1658 C1661 1.403 . S
C1659 C1656 1.403 . S
C1659 C1660 1.524 . S
C1659 C1663 1.400 . S
C1660 H1645 0.960 . S
C1660 H1646 0.960 . S
C1660 H1647 0.960 . S
C1660 C1659 1.524 . S
C1661 C1658 1.403 . S
C1661 C1662 1.392 . S
C1661 C1665 1.495 . S
C1662 C1661 1.392 . S
C1662 C1663 1.385 . S
C1662 C1664 1.478 . S
C1663 H1657 0.930 . S
C1663 C1659 1.400 . S
C1663 C1662 1.385 . S
C1664 C1662 1.478 . S
C1664 C1666 1.381 . S
C1664 C1670 1.383 . S
C1665 C1661 1.495 . S
C1665 H1671 0.959 . S
C1665 H1672 0.961 . S
C1665 H1673 0.960 . S
C1666 C1664 1.381 . S
C1666 C1667 1.394 . S
C1666 H1674 0.930 . S
C1667 C1666 1.394 . S
C1667 C1668 1.383 . S
C1667 H1675 0.929 . S
C1668 C1667 1.383 . S
C1668 C1669 1.377 . S
C1669 H1653 0.930 . S
C1669 C1668 1.377 . S
C1669 C1670 1.379 . S
C1670 H1654 0.931 . S
C1670 C1664 1.383 . S
C1670 C1669 1.379 . S
H1671 C1665 0.959 . S
H1672 C1665 0.961 . S
H1673 C1665 0.960 . S
H1674 C1666 0.930 . S
H1675 C1667 0.929 . S
H1676 C1684 0.929 . S
H1677 C1686 0.930 . S
H1678 C1688 0.930 . S
H1679 C1691 0.929 . S
H1680 C1694 0.930 . S
H1681 C1696 0.960 . S
H1682 C1696 0.960 . S
H1683 C1696 0.960 . S
C1684 H1676 0.929 . S
C1684 C1685 1.377 . S
C1684 C1686 1.384 . S
C1685 C1684 1.377 . S
C1685 C1691 1.390 . S
C1686 H1677 0.930 . S
C1686 C1684 1.384 . S
C1686 C1687 1.372 . S
C1687 C1686 1.372 . S
C1687 C1688 1.400 . S
C1687 C1692 1.490 . S
C1688 H1678 0.930 . S
C1688 C1687 1.400 . S
C1688 C1691 1.386 . S
H1689 C1705 0.930 . S
H1690 C1706 0.931 . S
C1691 H1679 0.929 . S
C1691 C1685 1.390 . S
C1691 C1688 1.386 . S
C1692 C1687 1.490 . S
C1692 C1694 1.395 . S
C1692 C1695 1.403 . S
H1693 C1699 0.930 . S
C1694 H1680 0.930 . S
C1694 C1692 1.395 . S
C1694 C1697 1.403 . S
C1695 C1692 1.403 . S
C1695 C1696 1.524 . S
C1695 C1699 1.400 . S
C1696 H1681 0.960 . S
C1696 H1682 0.960 . S
C1696 H1683 0.960 . S
C1696 C1695 1.524 . S
C1697 C1694 1.403 . S
C1697 C1698 1.392 . S
C1697 C1701 1.495 . S
C1698 C1697 1.392 . S
C1698 C1699 1.385 . S
C1698 C1700 1.478 . S
C1699 H1693 0.930 . S
C1699 C1695 1.400 . S
C1699 C1698 1.385 . S
C1700 C1698 1.478 . S
C1700 C1702 1.381 . S
C1700 C1706 1.383 . S
C1701 C1697 1.495 . S
C1701 H1707 0.959 . S
C1701 H1708 0.961 . S
C1701 H1709 0.960 . S
C1702 C1700 1.381 . S
C1702 C1703 1.394 . S
C1702 H1710 0.930 . S
C1703 C1702 1.394 . S
C1703 C1704 1.383 . S
C1703 H1711 0.929 . S
C1704 C1703 1.383 . S
C1704 C1705 1.377 . S
C1705 H1689 0.930 . S
C1705 C1704 1.377 . S
C1705 C1706 1.379 . S
C1706 H1690 0.931 . S
C1706 C1700 1.383 . S
C1706 C1705 1.379 . S
H1707 C1701 0.959 . S
H1708 C1701 0.961 . S
H1709 C1701 0.960 . S
H1710 C1702 0.930 . S
H1711 C1703 0.929 . S
H1712 C1720 0.929 . S
H1713 C1722 0.930 . S
H1714 C1724 0.930 . S
H1715 C1727 0.929 . S
H1716 C1730 0.930 . S
H1717 C1732 0.960 . S
H1718 C1732 0.960 . S
H1719 C1732 0.960 . S
C1720 H1712 0.929 . S
C1720 C1721 1.377 . S
C1720 C1722 1.384 . S
C1721 C1720 1.377 . S
C1721 C1727 1.390 . S
C1722 H1713 0.930 . S
C1722 C1720 1.384 . S
C1722 C1723 1.372 . S
C1723 C1722 1.372 . S
C1723 C1724 1.400 . S
C1723 C1728 1.490 . S
C1724 H1714 0.930 . S
C1724 C1723 1.400 . S
C1724 C1727 1.386 . S
H1725 C1741 0.930 . S
H1726 C1742 0.931 . S
C1727 H1715 0.929 . S
C1727 C1721 1.390 . S
C1727 C1724 1.386 . S
C1728 C1723 1.490 . S
C1728 C1730 1.395 1_556 S
C1728 C1731 1.403 . S
H1729 C1735 0.930 . S
C1730 H1716 0.930 . S
C1730 C1728 1.395 1_554 S
C1730 C1733 1.403 . S
C1731 C1728 1.403 . S
C1731 C1732 1.524 . S
C1731 C1735 1.400 . S
C1732 H1717 0.960 . S
C1732 H1718 0.960 . S
C1732 H1719 0.960 . S
C1732 C1731 1.524 . S
C1733 C1730 1.403 . S
C1733 C1734 1.392 1_554 S
C1733 C1737 1.495 . S
C1734 C1733 1.392 1_556 S
C1734 C1735 1.385 . S
C1734 C1736 1.478 1_556 S
C1735 H1729 0.930 . S
C1735 C1731 1.400 . S
C1735 C1734 1.385 . S
C1736 C1734 1.478 1_554 S
C1736 C1738 1.381 1_554 S
C1736 C1742 1.383 . S
C1737 C1733 1.495 . S
C1737 H1743 0.959 . S
C1737 H1744 0.961 . S
C1737 H1745 0.960 . S
C1738 C1736 1.381 1_556 S
C1738 C1739 1.394 . S
C1738 H1746 0.930 . S
C1739 C1738 1.394 . S
C1739 C1740 1.383 1_556 S
C1739 H1747 0.929 . S
C1740 C1739 1.383 1_554 S
C1740 C1741 1.377 . S
C1741 H1725 0.930 . S
C1741 C1740 1.377 . S
C1741 C1742 1.379 . S
C1742 H1726 0.931 . S
C1742 C1736 1.383 . S
C1742 C1741 1.379 . S
H1743 C1737 0.959 . S
H1744 C1737 0.961 . S
H1745 C1737 0.960 . S
H1746 C1738 0.930 . S
H1747 C1739 0.929 . S
H1748 C1756 0.929 . S
H1749 C1758 0.930 . S
H1750 C1760 0.930 . S
H1751 C1763 0.929 1_554 S
H1752 C1766 0.930 . S
H1753 C1768 0.960 . S
H1754 C1768 0.960 . S
H1755 C1768 0.960 . S
C1756 H1748 0.929 . S
C1756 C1757 1.377 . S
C1756 C1758 1.384 . S
C1757 C1756 1.377 . S
C1757 C1763 1.390 . S
C1758 H1749 0.930 . S
C1758 C1756 1.384 . S
C1758 C1759 1.372 . S
C1759 C1758 1.372 . S
C1759 C1760 1.400 1_556 S
C1759 C1764 1.490 . S
C1760 H1750 0.930 . S
C1760 C1759 1.400 1_554 S
C1760 C1763 1.386 1_554 S
H1761 C1777 0.930 . S
H1762 C1778 0.931 . S
C1763 H1751 0.929 1_556 S
C1763 C1757 1.390 . S
C1763 C1760 1.386 1_556 S
C1764 C1759 1.490 . S
C1764 C1766 1.395 . S
C1764 C1767 1.403 1_556 S
H1765 C1771 0.930 . S
C1766 H1752 0.930 . S
C1766 C1764 1.395 . S
C1766 C1769 1.403 . S
C1767 C1764 1.403 1_554 S
C1767 C1768 1.524 . S
C1767 C1771 1.400 . S
C1768 H1753 0.960 . S
C1768 H1754 0.960 . S
C1768 H1755 0.960 . S
C1768 C1767 1.524 . S
C1769 C1766 1.403 . S
C1769 C1770 1.392 1_556 S
C1769 C1773 1.495 . S
C1770 C1769 1.392 1_554 S
C1770 C1771 1.385 . S
C1770 C1772 1.478 . S
C1771 H1765 0.930 . S
C1771 C1767 1.400 . S
C1771 C1770 1.385 . S
C1772 C1770 1.478 . S
C1772 C1774 1.381 . S
C1772 C1778 1.383 . S
C1773 C1769 1.495 . S
C1773 H1779 0.959 . S
C1773 H1780 0.961 . S
C1773 H1781 0.960 . S
C1774 C1772 1.381 . S
C1774 C1775 1.394 . S
C1774 H1782 0.930 1_554 S
C1775 C1774 1.394 . S
C1775 C1776 1.383 . S
C1775 H1783 0.929 . S
C1776 C1775 1.383 . S
C1776 C1777 1.377 . S
C1777 H1761 0.930 . S
C1777 C1776 1.377 . S
C1777 C1778 1.379 . S
C1778 H1762 0.931 . S
C1778 C1772 1.383 . S
C1778 C1777 1.379 . S
H1779 C1773 0.959 . S
H1780 C1773 0.961 . S
H1781 C1773 0.960 . S
H1782 C1774 0.930 1_556 S
H1783 C1775 0.929 . S
H1784 C1792 0.929 . S
H1785 C1794 0.930 . S
H1786 C1796 0.930 . S
H1787 C1799 0.929 . S
H1788 C1802 0.930 . S
H1789 C1804 0.960 . S
H1790 C1804 0.960 . S
H1791 C1804 0.960 . S
C1792 H1784 0.929 . S
C1792 C1793 1.377 . S
C1792 C1794 1.384 . S
C1793 C1792 1.377 . S
C1793 C1799 1.390 . S
C1794 H1785 0.930 . S
C1794 C1792 1.384 . S
C1794 C1795 1.372 . S
C1795 C1794 1.372 . S
C1795 C1796 1.400 . S
C1795 C1800 1.490 . S
C1796 H1786 0.930 . S
C1796 C1795 1.400 . S
C1796 C1799 1.386 . S
H1797 C1813 0.930 . S
H1798 C1814 0.931 . S
C1799 H1787 0.929 . S
C1799 C1793 1.390 . S
C1799 C1796 1.386 . S
C1800 C1795 1.490 . S
C1800 C1802 1.395 . S
C1800 C1803 1.403 . S
H1801 C1807 0.930 . S
C1802 H1788 0.930 . S
C1802 C1800 1.395 . S
C1802 C1805 1.403 . S
C1803 C1800 1.403 . S
C1803 C1804 1.524 . S
C1803 C1807 1.400 . S
C1804 H1789 0.960 . S
C1804 H1790 0.960 . S
C1804 H1791 0.960 . S
C1804 C1803 1.524 . S
C1805 C1802 1.403 . S
C1805 C1806 1.392 . S
C1805 C1809 1.495 . S
C1806 C1805 1.392 . S
C1806 C1807 1.385 . S
C1806 C1808 1.478 . S
C1807 H1801 0.930 . S
C1807 C1803 1.400 . S
C1807 C1806 1.385 . S
C1808 C1806 1.478 . S
C1808 C1810 1.381 . S
C1808 C1814 1.383 . S
C1809 C1805 1.495 . S
C1809 H1815 0.959 . S
C1809 H1816 0.961 . S
C1809 H1817 0.960 . S
C1810 C1808 1.381 . S
C1810 C1811 1.394 . S
C1810 H1818 0.930 . S
C1811 C1810 1.394 . S
C1811 C1812 1.383 . S
C1811 H1819 0.929 . S
C1812 C1811 1.383 . S
C1812 C1813 1.377 . S
C1813 H1797 0.930 . S
C1813 C1812 1.377 . S
C1813 C1814 1.379 . S
C1814 H1798 0.931 . S
C1814 C1808 1.383 . S
C1814 C1813 1.379 . S
H1815 C1809 0.959 . S
H1816 C1809 0.961 . S
H1817 C1809 0.960 . S
H1818 C1810 0.930 . S
H1819 C1811 0.929 . S
H1820 C1828 0.929 . S
H1821 C1830 0.930 . S
H1822 C1832 0.930 . S
H1823 C1835 0.929 . S
H1824 C1838 0.930 . S
H1825 C1840 0.960 . S
H1826 C1840 0.960 . S
H1827 C1840 0.960 . S
C1828 H1820 0.929 . S
C1828 C1829 1.377 . S
C1828 C1830 1.384 . S
C1829 C1828 1.377 . S
C1829 C1835 1.390 . S
C1830 H1821 0.930 . S
C1830 C1828 1.384 . S
C1830 C1831 1.372 . S
C1831 C1830 1.372 . S
C1831 C1832 1.400 . S
C1831 C1836 1.490 . S
C1832 H1822 0.930 . S
C1832 C1831 1.400 . S
C1832 C1835 1.386 . S
H1833 C1849 0.930 . S
H1834 C1850 0.931 . S
C1835 H1823 0.929 . S
C1835 C1829 1.390 . S
C1835 C1832 1.386 . S
C1836 C1831 1.490 . S
C1836 C1838 1.395 . S
C1836 C1839 1.403 . S
H1837 C1843 0.930 . S
C1838 H1824 0.930 . S
C1838 C1836 1.395 . S
C1838 C1841 1.403 . S
C1839 C1836 1.403 . S
C1839 C1840 1.524 . S
C1839 C1843 1.400 . S
C1840 H1825 0.960 . S
C1840 H1826 0.960 . S
C1840 H1827 0.960 . S
C1840 C1839 1.524 . S
C1841 C1838 1.403 . S
C1841 C1842 1.392 . S
C1841 C1845 1.495 . S
C1842 C1841 1.392 . S
C1842 C1843 1.385 . S
C1842 C1844 1.478 . S
C1843 H1837 0.930 . S
C1843 C1839 1.400 . S
C1843 C1842 1.385 . S
C1844 C1842 1.478 . S
C1844 C1846 1.381 . S
C1844 C1850 1.383 . S
C1845 C1841 1.495 . S
C1845 H1851 0.959 . S
C1845 H1852 0.961 . S
C1845 H1853 0.960 . S
C1846 C1844 1.381 . S
C1846 C1847 1.394 . S
C1846 H1854 0.930 . S
C1847 C1846 1.394 . S
C1847 C1848 1.383 . S
C1847 H1855 0.929 . S
C1848 C1847 1.383 . S
C1848 C1849 1.377 . S
C1849 H1833 0.930 . S
C1849 C1848 1.377 . S
C1849 C1850 1.379 . S
C1850 H1834 0.931 . S
C1850 C1844 1.383 . S
C1850 C1849 1.379 . S
H1851 C1845 0.959 . S
H1852 C1845 0.961 . S
H1853 C1845 0.960 . S
H1854 C1846 0.930 . S
H1855 C1847 0.929 . S
H1856 C1864 0.929 . S
H1857 C1866 0.930 . S
H1858 C1868 0.930 . S
H1859 C1871 0.929 . S
H1860 C1874 0.930 . S
H1861 C1876 0.960 . S
H1862 C1876 0.960 . S
H1863 C1876 0.960 . S
C1864 H1856 0.929 . S
C1864 C1865 1.377 . S
C1864 C1866 1.384 . S
C1865 C1864 1.377 . S
C1865 C1871 1.390 . S
C1866 H1857 0.930 . S
C1866 C1864 1.384 . S
C1866 C1867 1.372 . S
C1867 C1866 1.372 . S
C1867 C1868 1.400 . S
C1867 C1872 1.490 . S
C1868 H1858 0.930 . S
C1868 C1867 1.400 . S
C1868 C1871 1.386 . S
H1869 C1885 0.930 . S
H1870 C1886 0.931 . S
C1871 H1859 0.929 . S
C1871 C1865 1.390 . S
C1871 C1868 1.386 . S
C1872 C1867 1.490 . S
C1872 C1874 1.395 . S
C1872 C1875 1.403 . S
H1873 C1879 0.930 . S
C1874 H1860 0.930 . S
C1874 C1872 1.395 . S
C1874 C1877 1.403 . S
C1875 C1872 1.403 . S
C1875 C1876 1.524 . S
C1875 C1879 1.400 . S
C1876 H1861 0.960 . S
C1876 H1862 0.960 . S
C1876 H1863 0.960 . S
C1876 C1875 1.524 . S
C1877 C1874 1.403 . S
C1877 C1878 1.392 . S
C1877 C1881 1.495 . S
C1878 C1877 1.392 . S
C1878 C1879 1.385 . S
C1878 C1880 1.478 . S
C1879 H1873 0.930 . S
C1879 C1875 1.400 . S
C1879 C1878 1.385 . S
C1880 C1878 1.478 . S
C1880 C1882 1.381 . S
C1880 C1886 1.383 . S
C1881 C1877 1.495 . S
C1881 H1887 0.959 . S
C1881 H1888 0.961 . S
C1881 H1889 0.960 . S
C1882 C1880 1.381 . S
C1882 C1883 1.394 . S
C1882 H1890 0.930 . S
C1883 C1882 1.394 . S
C1883 C1884 1.383 . S
C1883 H1891 0.929 . S
C1884 C1883 1.383 . S
C1884 C1885 1.377 . S
C1885 H1869 0.930 . S
C1885 C1884 1.377 . S
C1885 C1886 1.379 . S
C1886 H1870 0.931 . S
C1886 C1880 1.383 . S
C1886 C1885 1.379 . S
H1887 C1881 0.959 . S
H1888 C1881 0.961 . S
H1889 C1881 0.960 . S
H1890 C1882 0.930 . S
H1891 C1883 0.929 . S
H1892 C1900 0.929 . S
H1893 C1902 0.930 . S
H1894 C1904 0.930 . S
H1895 C1907 0.929 . S
H1896 C1910 0.930 . S
H1897 C1912 0.960 . S
H1898 C1912 0.960 . S
H1899 C1912 0.960 . S
C1900 H1892 0.929 . S
C1900 C1901 1.377 . S
C1900 C1902 1.384 . S
C1901 C1900 1.377 . S
C1901 C1907 1.390 . S
C1902 H1893 0.930 . S
C1902 C1900 1.384 . S
C1902 C1903 1.372 . S
C1903 C1902 1.372 . S
C1903 C1904 1.400 . S
C1903 C1908 1.490 . S
C1904 H1894 0.930 . S
C1904 C1903 1.400 . S
C1904 C1907 1.386 . S
H1905 C1921 0.930 . S
H1906 C1922 0.931 . S
C1907 H1895 0.929 . S
C1907 C1901 1.390 . S
C1907 C1904 1.386 . S
C1908 C1903 1.490 . S
C1908 C1910 1.395 . S
C1908 C1911 1.403 . S
H1909 C1915 0.930 . S
C1910 H1896 0.930 . S
C1910 C1908 1.395 . S
C1910 C1913 1.403 . S
C1911 C1908 1.403 . S
C1911 C1912 1.524 . S
C1911 C1915 1.400 . S
C1912 H1897 0.960 . S
C1912 H1898 0.960 . S
C1912 H1899 0.960 . S
C1912 C1911 1.524 . S
C1913 C1910 1.403 . S
C1913 C1914 1.392 . S
C1913 C1917 1.495 . S
C1914 C1913 1.392 . S
C1914 C1915 1.385 . S
C1914 C1916 1.478 . S
C1915 H1909 0.930 . S
C1915 C1911 1.400 . S
C1915 C1914 1.385 . S
C1916 C1914 1.478 . S
C1916 C1918 1.381 . S
C1916 C1922 1.383 . S
C1917 C1913 1.495 . S
C1917 H1923 0.959 . S
C1917 H1924 0.961 . S
C1917 H1925 0.960 . S
C1918 C1916 1.381 . S
C1918 C1919 1.394 . S
C1918 H1926 0.930 . S
C1919 C1918 1.394 . S
C1919 C1920 1.383 . S
C1919 H1927 0.929 . S
C1920 C1919 1.383 . S
C1920 C1921 1.377 . S
C1921 H1905 0.930 . S
C1921 C1920 1.377 . S
C1921 C1922 1.379 . S
C1922 H1906 0.931 . S
C1922 C1916 1.383 . S
C1922 C1921 1.379 . S
H1923 C1917 0.959 . S
H1924 C1917 0.961 . S
H1925 C1917 0.960 . S
H1926 C1918 0.930 . S
H1927 C1919 0.929 . S
H1928 C1936 0.929 . S
H1929 C1938 0.930 . S
H1930 C1940 0.930 . S
H1931 C1943 0.929 . S
H1932 C1946 0.930 . S
H1933 C1948 0.960 . S
H1934 C1948 0.960 . S
H1935 C1948 0.960 . S
C1936 H1928 0.929 . S
C1936 C1937 1.377 . S
C1936 C1938 1.384 . S
C1937 C1936 1.377 . S
C1937 C1943 1.390 . S
C1938 H1929 0.930 . S
C1938 C1936 1.384 . S
C1938 C1939 1.372 . S
C1939 C1938 1.372 . S
C1939 C1940 1.400 . S
C1939 C1944 1.490 . S
C1940 H1930 0.930 . S
C1940 C1939 1.400 . S
C1940 C1943 1.386 . S
H1941 C1957 0.930 . S
H1942 C1958 0.931 . S
C1943 H1931 0.929 . S
C1943 C1937 1.390 . S
C1943 C1940 1.386 . S
C1944 C1939 1.490 . S
C1944 C1946 1.395 . S
C1944 C1947 1.403 . S
H1945 C1951 0.930 . S
C1946 H1932 0.930 . S
C1946 C1944 1.395 . S
C1946 C1949 1.403 . S
C1947 C1944 1.403 . S
C1947 C1948 1.524 . S
C1947 C1951 1.400 . S
C1948 H1933 0.960 . S
C1948 H1934 0.960 . S
C1948 H1935 0.960 . S
C1948 C1947 1.524 . S
C1949 C1946 1.403 . S
C1949 C1950 1.392 . S
C1949 C1953 1.495 . S
C1950 C1949 1.392 . S
C1950 C1951 1.385 . S
C1950 C1952 1.478 . S
C1951 H1945 0.930 . S
C1951 C1947 1.400 . S
C1951 C1950 1.385 . S
C1952 C1950 1.478 . S
C1952 C1954 1.381 . S
C1952 C1958 1.383 . S
C1953 C1949 1.495 . S
C1953 H1959 0.959 . S
C1953 H1960 0.961 . S
C1953 H1961 0.960 . S
C1954 C1952 1.381 . S
C1954 C1955 1.394 . S
C1954 H1962 0.930 . S
C1955 C1954 1.394 . S
C1955 C1956 1.383 . S
C1955 H1963 0.929 . S
C1956 C1955 1.383 . S
C1956 C1957 1.377 . S
C1957 H1941 0.930 . S
C1957 C1956 1.377 . S
C1957 C1958 1.379 . S
C1958 H1942 0.931 . S
C1958 C1952 1.383 . S
C1958 C1957 1.379 . S
H1959 C1953 0.959 . S
H1960 C1953 0.961 . S
H1961 C1953 0.960 . S
H1962 C1954 0.930 . S
H1963 C1955 0.929 . S
H1964 C1972 0.929 . S
H1965 C1974 0.930 . S
H1966 C1976 0.930 . S
H1967 C1979 0.929 . S
H1968 C1982 0.930 . S
H1969 C1984 0.960 . S
H1970 C1984 0.960 . S
H1971 C1984 0.960 . S
C1972 H1964 0.929 . S
C1972 C1973 1.377 . S
C1972 C1974 1.384 . S
C1973 C1972 1.377 . S
C1973 C1979 1.390 . S
C1974 H1965 0.930 . S
C1974 C1972 1.384 . S
C1974 C1975 1.372 . S
C1975 C1974 1.372 . S
C1975 C1976 1.400 . S
C1975 C1980 1.490 . S
C1976 H1966 0.930 . S
C1976 C1975 1.400 . S
C1976 C1979 1.386 . S
H1977 C1993 0.930 . S
H1978 C1994 0.931 . S
C1979 H1967 0.929 . S
C1979 C1973 1.390 . S
C1979 C1976 1.386 . S
C1980 C1975 1.490 . S
C1980 C1982 1.395 . S
C1980 C1983 1.403 . S
H1981 C1987 0.930 . S
C1982 H1968 0.930 . S
C1982 C1980 1.395 . S
C1982 C1985 1.403 . S
C1983 C1980 1.403 . S
C1983 C1984 1.524 . S
C1983 C1987 1.400 . S
C1984 H1969 0.960 . S
C1984 H1970 0.960 . S
C1984 H1971 0.960 . S
C1984 C1983 1.524 . S
C1985 C1982 1.403 . S
C1985 C1986 1.392 . S
C1985 C1989 1.495 . S
C1986 C1985 1.392 . S
C1986 C1987 1.385 . S
C1986 C1988 1.478 . S
C1987 H1981 0.930 . S
C1987 C1983 1.400 . S
C1987 C1986 1.385 . S
C1988 C1986 1.478 . S
C1988 C1990 1.381 . S
C1988 C1994 1.383 . S
C1989 C1985 1.495 . S
C1989 H1995 0.959 . S
C1989 H1996 0.961 . S
C1989 H1997 0.960 . S
C1990 C1988 1.381 . S
C1990 C1991 1.394 . S
C1990 H1998 0.930 . S
C1991 C1990 1.394 . S
C1991 C1992 1.383 . S
C1991 H1999 0.929 . S
C1992 C1991 1.383 . S
C1992 C1993 1.377 . S
C1993 H1977 0.930 . S
C1993 C1992 1.377 . S
C1993 C1994 1.379 . S
C1994 H1978 0.931 . S
C1994 C1988 1.383 . S
C1994 C1993 1.379 . S
H1995 C1989 0.959 . S
H1996 C1989 0.961 . S
H1997 C1989 0.960 . S
H1998 C1990 0.930 . S
H1999 C1991 0.929 . S
H2000 C2008 0.929 . S
H2001 C2010 0.930 . S
H2002 C2012 0.930 . S
H2003 C2015 0.929 . S
H2004 C2018 0.930 . S
H2005 C2020 0.960 . S
H2006 C2020 0.960 . S
H2007 C2020 0.960 . S
C2008 H2000 0.929 . S
C2008 C2009 1.377 . S
C2008 C2010 1.384 . S
C2009 C2008 1.377 . S
C2009 C2015 1.390 . S
C2010 H2001 0.930 . S
C2010 C2008 1.384 . S
C2010 C2011 1.372 . S
C2011 C2010 1.372 . S
C2011 C2012 1.400 . S
C2011 C2016 1.490 . S
C2012 H2002 0.930 . S
C2012 C2011 1.400 . S
C2012 C2015 1.386 . S
H2013 C2029 0.930 . S
H2014 C2030 0.931 . S
C2015 H2003 0.929 . S
C2015 C2009 1.390 . S
C2015 C2012 1.386 . S
C2016 C2011 1.490 . S
C2016 C2018 1.395 . S
C2016 C2019 1.403 . S
H2017 C2023 0.930 . S
C2018 H2004 0.930 . S
C2018 C2016 1.395 . S
C2018 C2021 1.403 . S
C2019 C2016 1.403 . S
C2019 C2020 1.524 . S
C2019 C2023 1.400 . S
C2020 H2005 0.960 . S
C2020 H2006 0.960 . S
C2020 H2007 0.960 . S
C2020 C2019 1.524 . S
C2021 C2018 1.403 . S
C2021 C2022 1.392 . S
C2021 C2025 1.495 . S
C2022 C2021 1.392 . S
C2022 C2023 1.385 . S
C2022 C2024 1.478 . S
C2023 H2017 0.930 . S
C2023 C2019 1.400 . S
C2023 C2022 1.385 . S
C2024 C2022 1.478 . S
C2024 C2026 1.381 . S
C2024 C2030 1.383 . S
C2025 C2021 1.495 . S
C2025 H2031 0.959 . S
C2025 H2032 0.961 . S
C2025 H2033 0.960 . S
C2026 C2024 1.381 . S
C2026 C2027 1.394 . S
C2026 H2034 0.930 . S
C2027 C2026 1.394 . S
C2027 C2028 1.383 . S
C2027 H2035 0.929 . S
C2028 C2027 1.383 . S
C2028 C2029 1.377 . S
C2029 H2013 0.930 . S
C2029 C2028 1.377 . S
C2029 C2030 1.379 . S
C2030 H2014 0.931 . S
C2030 C2024 1.383 . S
C2030 C2029 1.379 . S
H2031 C2025 0.959 . S
H2032 C2025 0.961 . S
H2033 C2025 0.960 . S
H2034 C2026 0.930 . S
H2035 C2027 0.929 . S
H2036 C2044 0.929 . S
H2037 C2046 0.930 . S
H2038 C2048 0.930 . S
H2039 C2051 0.929 . S
H2040 C2054 0.930 . S
H2041 C2056 0.960 . S
H2042 C2056 0.960 . S
H2043 C2056 0.960 . S
C2044 H2036 0.929 . S
C2044 C2045 1.377 . S
C2044 C2046 1.384 . S
C2045 C2044 1.377 . S
C2045 C2051 1.390 . S
C2046 H2037 0.930 . S
C2046 C2044 1.384 . S
C2046 C2047 1.372 . S
C2047 C2046 1.372 . S
C2047 C2048 1.400 . S
C2047 C2052 1.490 . S
C2048 H2038 0.930 . S
C2048 C2047 1.400 . S
C2048 C2051 1.386 . S
H2049 C2065 0.930 . S
H2050 C2066 0.931 . S
C2051 H2039 0.929 . S
C2051 C2045 1.390 . S
C2051 C2048 1.386 . S
C2052 C2047 1.490 . S
C2052 C2054 1.395 . S
C2052 C2055 1.403 . S
H2053 C2059 0.930 . S
C2054 H2040 0.930 . S
C2054 C2052 1.395 . S
C2054 C2057 1.403 . S
C2055 C2052 1.403 . S
C2055 C2056 1.524 . S
C2055 C2059 1.400 . S
C2056 H2041 0.960 . S
C2056 H2042 0.960 . S
C2056 H2043 0.960 . S
C2056 C2055 1.524 . S
C2057 C2054 1.403 . S
C2057 C2058 1.392 . S
C2057 C2061 1.495 . S
C2058 C2057 1.392 . S
C2058 C2059 1.385 . S
C2058 C2060 1.478 . S
C2059 H2053 0.930 . S
C2059 C2055 1.400 . S
C2059 C2058 1.385 . S
C2060 C2058 1.478 . S
C2060 C2062 1.381 . S
C2060 C2066 1.383 . S
C2061 C2057 1.495 . S
C2061 H2067 0.959 . S
C2061 H2068 0.961 . S
C2061 H2069 0.960 . S
C2062 C2060 1.381 . S
C2062 C2063 1.394 . S
C2062 H2070 0.930 . S
C2063 C2062 1.394 . S
C2063 C2064 1.383 . S
C2063 H2071 0.929 . S
C2064 C2063 1.383 . S
C2064 C2065 1.377 . S
C2065 H2049 0.930 . S
C2065 C2064 1.377 . S
C2065 C2066 1.379 . S
C2066 H2050 0.931 . S
C2066 C2060 1.383 . S
C2066 C2065 1.379 . S
H2067 C2061 0.959 . S
H2068 C2061 0.961 . S
H2069 C2061 0.960 . S
H2070 C2062 0.930 . S
H2071 C2063 0.929 . S
H2072 C2080 0.929 . S
H2073 C2082 0.930 . S
H2074 C2084 0.930 . S
H2075 C2087 0.929 . S
H2076 C2090 0.930 . S
H2077 C2092 0.960 . S
H2078 C2092 0.960 . S
H2079 C2092 0.960 . S
C2080 H2072 0.929 . S
C2080 C2081 1.377 . S
C2080 C2082 1.384 . S
C2081 C2080 1.377 . S
C2081 C2087 1.390 . S
C2082 H2073 0.930 . S
C2082 C2080 1.384 . S
C2082 C2083 1.372 . S
C2083 C2082 1.372 . S
C2083 C2084 1.400 . S
C2083 C2088 1.490 . S
C2084 H2074 0.930 . S
C2084 C2083 1.400 . S
C2084 C2087 1.386 . S
H2085 C2101 0.930 . S
H2086 C2102 0.931 . S
C2087 H2075 0.929 . S
C2087 C2081 1.390 . S
C2087 C2084 1.386 . S
C2088 C2083 1.490 . S
C2088 C2090 1.395 . S
C2088 C2091 1.403 . S
H2089 C2095 0.930 . S
C2090 H2076 0.930 . S
C2090 C2088 1.395 . S
C2090 C2093 1.403 . S
C2091 C2088 1.403 . S
C2091 C2092 1.524 . S
C2091 C2095 1.400 . S
C2092 H2077 0.960 . S
C2092 H2078 0.960 . S
C2092 H2079 0.960 . S
C2092 C2091 1.524 . S
C2093 C2090 1.403 . S
C2093 C2094 1.392 . S
C2093 C2097 1.495 . S
C2094 C2093 1.392 . S
C2094 C2095 1.385 . S
C2094 C2096 1.478 . S
C2095 H2089 0.930 . S
C2095 C2091 1.400 . S
C2095 C2094 1.385 . S
C2096 C2094 1.478 . S
C2096 C2098 1.381 . S
C2096 C2102 1.383 . S
C2097 C2093 1.495 . S
C2097 H2103 0.959 . S
C2097 H2104 0.961 . S
C2097 H2105 0.960 . S
C2098 C2096 1.381 . S
C2098 C2099 1.394 . S
C2098 H2106 0.930 . S
C2099 C2098 1.394 . S
C2099 C2100 1.383 . S
C2099 H2107 0.929 . S
C2100 C2099 1.383 . S
C2100 C2101 1.377 . S
C2101 H2085 0.930 . S
C2101 C2100 1.377 . S
C2101 C2102 1.379 . S
C2102 H2086 0.931 . S
C2102 C2096 1.383 . S
C2102 C2101 1.379 . S
H2103 C2097 0.959 . S
H2104 C2097 0.961 . S
H2105 C2097 0.960 . S
H2106 C2098 0.930 . S
H2107 C2099 0.929 . S
H2108 C2116 0.929 . S
H2109 C2118 0.930 . S
H2110 C2120 0.930 . S
H2111 C2123 0.929 . S
H2112 C2126 0.930 . S
H2113 C2128 0.960 . S
H2114 C2128 0.960 . S
H2115 C2128 0.960 . S
C2116 H2108 0.929 . S
C2116 C2117 1.377 . S
C2116 C2118 1.384 . S
C2117 C2116 1.377 . S
C2117 C2123 1.390 . S
C2118 H2109 0.930 . S
C2118 C2116 1.384 . S
C2118 C2119 1.372 . S
C2119 C2118 1.372 . S
C2119 C2120 1.400 . S
C2119 C2124 1.490 . S
C2120 H2110 0.930 . S
C2120 C2119 1.400 . S
C2120 C2123 1.386 . S
H2121 C2137 0.930 . S
H2122 C2138 0.931 . S
C2123 H2111 0.929 . S
C2123 C2117 1.390 . S
C2123 C2120 1.386 . S
C2124 C2119 1.490 . S
C2124 C2126 1.395 . S
C2124 C2127 1.403 . S
H2125 C2131 0.930 . S
C2126 H2112 0.930 . S
C2126 C2124 1.395 . S
C2126 C2129 1.403 . S
C2127 C2124 1.403 . S
C2127 C2128 1.524 . S
C2127 C2131 1.400 . S
C2128 H2113 0.960 . S
C2128 H2114 0.960 . S
C2128 H2115 0.960 . S
C2128 C2127 1.524 . S
C2129 C2126 1.403 . S
C2129 C2130 1.392 . S
C2129 C2133 1.495 . S
C2130 C2129 1.392 . S
C2130 C2131 1.385 . S
C2130 C2132 1.478 . S
C2131 H2125 0.930 . S
C2131 C2127 1.400 . S
C2131 C2130 1.385 . S
C2132 C2130 1.478 . S
C2132 C2134 1.381 . S
C2132 C2138 1.383 . S
C2133 C2129 1.495 . S
C2133 H2139 0.959 . S
C2133 H2140 0.961 . S
C2133 H2141 0.960 . S
C2134 C2132 1.381 . S
C2134 C2135 1.394 . S
C2134 H2142 0.930 . S
C2135 C2134 1.394 . S
C2135 C2136 1.383 . S
C2135 H2143 0.929 . S
C2136 C2135 1.383 . S
C2136 C2137 1.377 . S
C2137 H2121 0.930 . S
C2137 C2136 1.377 . S
C2137 C2138 1.379 . S
C2138 H2122 0.931 . S
C2138 C2132 1.383 . S
C2138 C2137 1.379 . S
H2139 C2133 0.959 . S
H2140 C2133 0.961 . S
H2141 C2133 0.960 . S
H2142 C2134 0.930 . S
H2143 C2135 0.929 . S
H2144 C2152 0.929 . S
H2145 C2154 0.930 . S
H2146 C2156 0.930 . S
H2147 C2159 0.929 . S
H2148 C2162 0.930 . S
H2149 C2164 0.960 . S
H2150 C2164 0.960 . S
H2151 C2164 0.960 . S
C2152 H2144 0.929 . S
C2152 C2153 1.377 . S
C2152 C2154 1.384 . S
C2153 C2152 1.377 . S
C2153 C2159 1.390 . S
C2154 H2145 0.930 . S
C2154 C2152 1.384 . S
C2154 C2155 1.372 . S
C2155 C2154 1.372 . S
C2155 C2156 1.400 . S
C2155 C2160 1.490 . S
C2156 H2146 0.930 . S
C2156 C2155 1.400 . S
C2156 C2159 1.386 . S
H2157 C2173 0.930 . S
H2158 C2174 0.931 . S
C2159 H2147 0.929 . S
C2159 C2153 1.390 . S
C2159 C2156 1.386 . S
C2160 C2155 1.490 . S
C2160 C2162 1.395 . S
C2160 C2163 1.403 . S
H2161 C2167 0.930 . S
C2162 H2148 0.930 . S
C2162 C2160 1.395 . S
C2162 C2165 1.403 . S
C2163 C2160 1.403 . S
C2163 C2164 1.524 . S
C2163 C2167 1.400 . S
C2164 H2149 0.960 . S
C2164 H2150 0.960 . S
C2164 H2151 0.960 . S
C2164 C2163 1.524 . S
C2165 C2162 1.403 . S
C2165 C2166 1.392 . S
C2165 C2169 1.495 . S
C2166 C2165 1.392 . S
C2166 C2167 1.385 . S
C2166 C2168 1.478 . S
C2167 H2161 0.930 . S
C2167 C2163 1.400 . S
C2167 C2166 1.385 . S
C2168 C2166 1.478 . S
C2168 C2170 1.381 . S
C2168 C2174 1.383 . S
C2169 C2165 1.495 . S
C2169 H2175 0.959 . S
C2169 H2176 0.961 . S
C2169 H2177 0.960 . S
C2170 C2168 1.381 . S
C2170 C2171 1.394 . S
C2170 H2178 0.930 . S
C2171 C2170 1.394 . S
C2171 C2172 1.383 . S
C2171 H2179 0.929 . S
C2172 C2171 1.383 . S
C2172 C2173 1.377 . S
C2173 H2157 0.930 . S
C2173 C2172 1.377 . S
C2173 C2174 1.379 . S
C2174 H2158 0.931 . S
C2174 C2168 1.383 . S
C2174 C2173 1.379 . S
H2175 C2169 0.959 . S
H2176 C2169 0.961 . S
H2177 C2169 0.960 . S
H2178 C2170 0.930 . S
H2179 C2171 0.929 . S
H2180 C2188 0.929 . S
H2181 C2190 0.930 . S
H2182 C2192 0.930 . S
H2183 C2195 0.929 . S
H2184 C2198 0.930 . S
H2185 C2200 0.960 . S
H2186 C2200 0.960 . S
H2187 C2200 0.960 . S
C2188 H2180 0.929 . S
C2188 C2189 1.377 . S
C2188 C2190 1.384 . S
C2189 C2188 1.377 . S
C2189 C2195 1.390 . S
C2190 H2181 0.930 . S
C2190 C2188 1.384 . S
C2190 C2191 1.372 . S
C2191 C2190 1.372 . S
C2191 C2192 1.400 . S
C2191 C2196 1.490 . S
C2192 H2182 0.930 . S
C2192 C2191 1.400 . S
C2192 C2195 1.386 . S
H2193 C2209 0.930 . S
H2194 C2210 0.931 . S
C2195 H2183 0.929 . S
C2195 C2189 1.390 . S
C2195 C2192 1.386 . S
C2196 C2191 1.490 . S
C2196 C2198 1.395 . S
C2196 C2199 1.403 . S
H2197 C2203 0.930 . S
C2198 H2184 0.930 . S
C2198 C2196 1.395 . S
C2198 C2201 1.403 . S
C2199 C2196 1.403 . S
C2199 C2200 1.524 . S
C2199 C2203 1.400 . S
C2200 H2185 0.960 . S
C2200 H2186 0.960 . S
C2200 H2187 0.960 . S
C2200 C2199 1.524 . S
C2201 C2198 1.403 . S
C2201 C2202 1.392 . S
C2201 C2205 1.495 . S
C2202 C2201 1.392 . S
C2202 C2203 1.385 . S
C2202 C2204 1.478 . S
C2203 H2197 0.930 . S
C2203 C2199 1.400 . S
C2203 C2202 1.385 . S
C2204 C2202 1.478 . S
C2204 C2206 1.381 . S
C2204 C2210 1.383 . S
C2205 C2201 1.495 . S
C2205 H2211 0.959 . S
C2205 H2212 0.961 . S
C2205 H2213 0.960 . S
C2206 C2204 1.381 . S
C2206 C2207 1.394 . S
C2206 H2214 0.930 . S
C2207 C2206 1.394 . S
C2207 C2208 1.383 . S
C2207 H2215 0.929 . S
C2208 C2207 1.383 . S
C2208 C2209 1.377 . S
C2209 H2193 0.930 . S
C2209 C2208 1.377 . S
C2209 C2210 1.379 . S
C2210 H2194 0.931 . S
C2210 C2204 1.383 . S
C2210 C2209 1.379 . S
H2211 C2205 0.959 . S
H2212 C2205 0.961 . S
H2213 C2205 0.960 . S
H2214 C2206 0.930 . S
H2215 C2207 0.929 . S
H2216 C2224 0.929 . S
H2217 C2226 0.930 . S
H2218 C2228 0.930 . S
H2219 C2231 0.929 . S
H2220 C2234 0.930 . S
H2221 C2236 0.960 . S
H2222 C2236 0.960 . S
H2223 C2236 0.960 . S
C2224 H2216 0.929 . S
C2224 C2225 1.377 . S
C2224 C2226 1.384 . S
C2225 C2224 1.377 . S
C2225 C2231 1.390 . S
C2226 H2217 0.930 . S
C2226 C2224 1.384 . S
C2226 C2227 1.372 . S
C2227 C2226 1.372 . S
C2227 C2228 1.400 . S
C2227 C2232 1.490 . S
C2228 H2218 0.930 . S
C2228 C2227 1.400 . S
C2228 C2231 1.386 . S
H2229 C2245 0.930 . S
H2230 C2246 0.931 . S
C2231 H2219 0.929 . S
C2231 C2225 1.390 . S
C2231 C2228 1.386 . S
C2232 C2227 1.490 . S
C2232 C2234 1.395 . S
C2232 C2235 1.403 . S
H2233 C2239 0.930 . S
C2234 H2220 0.930 . S
C2234 C2232 1.395 . S
C2234 C2237 1.403 . S
C2235 C2232 1.403 . S
C2235 C2236 1.524 . S
C2235 C2239 1.400 . S
C2236 H2221 0.960 . S
C2236 H2222 0.960 . S
C2236 H2223 0.960 . S
C2236 C2235 1.524 . S
C2237 C2234 1.403 . S
C2237 C2238 1.392 . S
C2237 C2241 1.495 . S
C2238 C2237 1.392 . S
C2238 C2239 1.385 . S
C2238 C2240 1.478 . S
C2239 H2233 0.930 . S
C2239 C2235 1.400 . S
C2239 C2238 1.385 . S
C2240 C2238 1.478 . S
C2240 C2242 1.381 . S
C2240 C2246 1.383 . S
C2241 C2237 1.495 . S
C2241 H2247 0.959 . S
C2241 H2248 0.961 . S
C2241 H2249 0.960 . S
C2242 C2240 1.381 . S
C2242 C2243 1.394 . S
C2242 H2250 0.930 . S
C2243 C2242 1.394 . S
C2243 C2244 1.383 . S
C2243 H2251 0.929 . S
C2244 C2243 1.383 . S
C2244 C2245 1.377 . S
C2245 H2229 0.930 . S
C2245 C2244 1.377 . S
C2245 C2246 1.379 . S
C2246 H2230 0.931 . S
C2246 C2240 1.383 . S
C2246 C2245 1.379 . S
H2247 C2241 0.959 . S
H2248 C2241 0.961 . S
H2249 C2241 0.960 . S
H2250 C2242 0.930 . S
H2251 C2243 0.929 . S
H2252 C2260 0.929 . S
H2253 C2262 0.930 . S
H2254 C2264 0.930 . S
H2255 C2267 0.929 . S
H2256 C2270 0.930 . S
H2257 C2272 0.960 . S
H2258 C2272 0.960 . S
H2259 C2272 0.960 . S
C2260 H2252 0.929 . S
C2260 C2261 1.377 . S
C2260 C2262 1.384 . S
C2261 C2260 1.377 . S
C2261 C2267 1.390 . S
C2262 H2253 0.930 . S
C2262 C2260 1.384 . S
C2262 C2263 1.372 . S
C2263 C2262 1.372 . S
C2263 C2264 1.400 . S
C2263 C2268 1.490 . S
C2264 H2254 0.930 . S
C2264 C2263 1.400 . S
C2264 C2267 1.386 . S
H2265 C2281 0.930 . S
H2266 C2282 0.931 . S
C2267 H2255 0.929 . S
C2267 C2261 1.390 . S
C2267 C2264 1.386 . S
C2268 C2263 1.490 . S
C2268 C2270 1.395 . S
C2268 C2271 1.403 . S
H2269 C2275 0.930 . S
C2270 H2256 0.930 . S
C2270 C2268 1.395 . S
C2270 C2273 1.403 . S
C2271 C2268 1.403 . S
C2271 C2272 1.524 . S
C2271 C2275 1.400 . S
C2272 H2257 0.960 . S
C2272 H2258 0.960 . S
C2272 H2259 0.960 . S
C2272 C2271 1.524 . S
C2273 C2270 1.403 . S
C2273 C2274 1.392 . S
C2273 C2277 1.495 . S
C2274 C2273 1.392 . S
C2274 C2275 1.385 . S
C2274 C2276 1.478 . S
C2275 H2269 0.930 . S
C2275 C2271 1.400 . S
C2275 C2274 1.385 . S
C2276 C2274 1.478 . S
C2276 C2278 1.381 . S
C2276 C2282 1.383 . S
C2277 C2273 1.495 . S
C2277 H2283 0.959 . S
C2277 H2284 0.961 . S
C2277 H2285 0.960 . S
C2278 C2276 1.381 . S
C2278 C2279 1.394 . S
C2278 H2286 0.930 . S
C2279 C2278 1.394 . S
C2279 C2280 1.383 . S
C2279 H2287 0.929 . S
C2280 C2279 1.383 . S
C2280 C2281 1.377 . S
C2281 H2265 0.930 . S
C2281 C2280 1.377 . S
C2281 C2282 1.379 . S
C2282 H2266 0.931 . S
C2282 C2276 1.383 . S
C2282 C2281 1.379 . S
H2283 C2277 0.959 . S
H2284 C2277 0.961 . S
H2285 C2277 0.960 . S
H2286 C2278 0.930 . S
H2287 C2279 0.929 . S
H2288 C2296 0.929 . S
H2289 C2298 0.930 . S
H2290 C2300 0.930 . S
H2291 C2303 0.929 . S
H2292 C2306 0.930 . S
H2293 C2308 0.960 . S
H2294 C2308 0.960 . S
H2295 C2308 0.960 . S
C2296 H2288 0.929 . S
C2296 C2297 1.377 . S
C2296 C2298 1.384 . S
C2297 C2296 1.377 . S
C2297 C2303 1.390 . S
C2298 H2289 0.930 . S
C2298 C2296 1.384 . S
C2298 C2299 1.372 . S
C2299 C2298 1.372 . S
C2299 C2300 1.400 . S
C2299 C2304 1.490 . S
C2300 H2290 0.930 . S
C2300 C2299 1.400 . S
C2300 C2303 1.386 . S
H2301 C2317 0.930 . S
H2302 C2318 0.931 . S
C2303 H2291 0.929 . S
C2303 C2297 1.390 . S
C2303 C2300 1.386 . S
C2304 C2299 1.490 . S
C2304 C2306 1.395 . S
C2304 C2307 1.403 . S
H2305 C2311 0.930 . S
C2306 H2292 0.930 . S
C2306 C2304 1.395 . S
C2306 C2309 1.403 . S
C2307 C2304 1.403 . S
C2307 C2308 1.524 . S
C2307 C2311 1.400 . S
C2308 H2293 0.960 . S
C2308 H2294 0.960 . S
C2308 H2295 0.960 . S
C2308 C2307 1.524 . S
C2309 C2306 1.403 . S
C2309 C2310 1.392 . S
C2309 C2313 1.495 . S
C2310 C2309 1.392 . S
C2310 C2311 1.385 . S
C2310 C2312 1.478 . S
C2311 H2305 0.930 . S
C2311 C2307 1.400 . S
C2311 C2310 1.385 . S
C2312 C2310 1.478 . S
C2312 C2314 1.381 . S
C2312 C2318 1.383 . S
C2313 C2309 1.495 . S
C2313 H2319 0.959 . S
C2313 H2320 0.961 . S
C2313 H2321 0.960 . S
C2314 C2312 1.381 . S
C2314 C2315 1.394 . S
C2314 H2322 0.930 . S
C2315 C2314 1.394 . S
C2315 C2316 1.383 . S
C2315 H2323 0.929 . S
C2316 C2315 1.383 . S
C2316 C2317 1.377 . S
C2317 H2301 0.930 . S
C2317 C2316 1.377 . S
C2317 C2318 1.379 . S
C2318 H2302 0.931 . S
C2318 C2312 1.383 . S
C2318 C2317 1.379 . S
H2319 C2313 0.959 . S
H2320 C2313 0.961 . S
H2321 C2313 0.960 . S
H2322 C2314 0.930 . S
H2323 C2315 0.929 . S
H2324 C2332 0.929 . S
H2325 C2334 0.930 . S
H2326 C2336 0.930 . S
H2327 C2339 0.929 . S
H2328 C2342 0.930 . S
H2329 C2344 0.960 . S
H2330 C2344 0.960 . S
H2331 C2344 0.960 . S
C2332 H2324 0.929 . S
C2332 C2333 1.377 . S
C2332 C2334 1.384 . S
C2333 C2332 1.377 . S
C2333 C2339 1.390 . S
C2334 H2325 0.930 . S
C2334 C2332 1.384 . S
C2334 C2335 1.372 . S
C2335 C2334 1.372 . S
C2335 C2336 1.400 . S
C2335 C2340 1.490 . S
C2336 H2326 0.930 . S
C2336 C2335 1.400 . S
C2336 C2339 1.386 . S
H2337 C2353 0.930 . S
H2338 C2354 0.931 . S
C2339 H2327 0.929 . S
C2339 C2333 1.390 . S
C2339 C2336 1.386 . S
C2340 C2335 1.490 . S
C2340 C2342 1.395 . S
C2340 C2343 1.403 . S
H2341 C2347 0.930 . S
C2342 H2328 0.930 . S
C2342 C2340 1.395 . S
C2342 C2345 1.403 . S
C2343 C2340 1.403 . S
C2343 C2344 1.524 . S
C2343 C2347 1.400 . S
C2344 H2329 0.960 . S
C2344 H2330 0.960 . S
C2344 H2331 0.960 . S
C2344 C2343 1.524 . S
C2345 C2342 1.403 . S
C2345 C2346 1.392 . S
C2345 C2349 1.495 . S
C2346 C2345 1.392 . S
C2346 C2347 1.385 . S
C2346 C2348 1.478 . S
C2347 H2341 0.930 . S
C2347 C2343 1.400 . S
C2347 C2346 1.385 . S
C2348 C2346 1.478 . S
C2348 C2350 1.381 . S
C2348 C2354 1.383 . S
C2349 C2345 1.495 . S
C2349 H2355 0.959 . S
C2349 H2356 0.961 . S
C2349 H2357 0.960 . S
C2350 C2348 1.381 . S
C2350 C2351 1.394 . S
C2350 H2358 0.930 . S
C2351 C2350 1.394 . S
C2351 C2352 1.383 . S
C2351 H2359 0.929 . S
C2352 C2351 1.383 . S
C2352 C2353 1.377 . S
C2353 H2337 0.930 . S
C2353 C2352 1.377 . S
C2353 C2354 1.379 . S
C2354 H2338 0.931 . S
C2354 C2348 1.383 . S
C2354 C2353 1.379 . S
H2355 C2349 0.959 . S
H2356 C2349 0.961 . S
H2357 C2349 0.960 . S
H2358 C2350 0.930 . S
H2359 C2351 0.929 . S
H2360 C2368 0.929 . S
H2361 C2370 0.930 . S
H2362 C2372 0.930 . S
H2363 C2375 0.929 . S
H2364 C2378 0.930 . S
H2365 C2380 0.960 . S
H2366 C2380 0.960 . S
H2367 C2380 0.960 . S
C2368 H2360 0.929 . S
C2368 C2369 1.377 . S
C2368 C2370 1.384 . S
C2369 C2368 1.377 . S
C2369 C2375 1.390 . S
C2370 H2361 0.930 . S
C2370 C2368 1.384 . S
C2370 C2371 1.372 . S
C2371 C2370 1.372 . S
C2371 C2372 1.400 . S
C2371 C2376 1.490 . S
C2372 H2362 0.930 . S
C2372 C2371 1.400 . S
C2372 C2375 1.386 . S
H2373 C2389 0.930 . S
H2374 C2390 0.931 . S
C2375 H2363 0.929 . S
C2375 C2369 1.390 . S
C2375 C2372 1.386 . S
C2376 C2371 1.490 . S
C2376 C2378 1.395 . S
C2376 C2379 1.403 . S
H2377 C2383 0.930 . S
C2378 H2364 0.930 . S
C2378 C2376 1.395 . S
C2378 C2381 1.403 . S
C2379 C2376 1.403 . S
C2379 C2380 1.524 . S
C2379 C2383 1.400 . S
C2380 H2365 0.960 . S
C2380 H2366 0.960 . S
C2380 H2367 0.960 . S
C2380 C2379 1.524 . S
C2381 C2378 1.403 . S
C2381 C2382 1.392 . S
C2381 C2385 1.495 . S
C2382 C2381 1.392 . S
C2382 C2383 1.385 . S
C2382 C2384 1.478 . S
C2383 H2377 0.930 . S
C2383 C2379 1.400 . S
C2383 C2382 1.385 . S
C2384 C2382 1.478 . S
C2384 C2386 1.381 . S
C2384 C2390 1.383 . S
C2385 C2381 1.495 . S
C2385 H2391 0.959 . S
C2385 H2392 0.961 . S
C2385 H2393 0.960 . S
C2386 C2384 1.381 . S
C2386 C2387 1.394 . S
C2386 H2394 0.930 . S
C2387 C2386 1.394 . S
C2387 C2388 1.383 . S
C2387 H2395 0.929 . S
C2388 C2387 1.383 . S
C2388 C2389 1.377 . S
C2389 H2373 0.930 . S
C2389 C2388 1.377 . S
C2389 C2390 1.379 . S
C2390 H2374 0.931 . S
C2390 C2384 1.383 . S
C2390 C2389 1.379 . S
H2391 C2385 0.959 . S
H2392 C2385 0.961 . S
H2393 C2385 0.960 . S
H2394 C2386 0.930 . S
H2395 C2387 0.929 . S
H2396 C2404 0.929 . S
H2397 C2406 0.930 . S
H2398 C2408 0.930 . S
H2399 C2411 0.929 . S
H2400 C2414 0.930 . S
H2401 C2416 0.960 . S
H2402 C2416 0.960 . S
H2403 C2416 0.960 . S
C2404 H2396 0.929 . S
C2404 C2405 1.377 . S
C2404 C2406 1.384 . S
C2405 C2404 1.377 . S
C2405 C2411 1.390 . S
C2406 H2397 0.930 . S
C2406 C2404 1.384 . S
C2406 C2407 1.372 . S
C2407 C2406 1.372 . S
C2407 C2408 1.400 . S
C2407 C2412 1.490 . S
C2408 H2398 0.930 . S
C2408 C2407 1.400 . S
C2408 C2411 1.386 . S
H2409 C2425 0.930 . S
H2410 C2426 0.931 . S
C2411 H2399 0.929 . S
C2411 C2405 1.390 . S
C2411 C2408 1.386 . S
C2412 C2407 1.490 . S
C2412 C2414 1.395 . S
C2412 C2415 1.403 . S
H2413 C2419 0.930 . S
C2414 H2400 0.930 . S
C2414 C2412 1.395 . S
C2414 C2417 1.403 . S
C2415 C2412 1.403 . S
C2415 C2416 1.524 . S
C2415 C2419 1.400 . S
C2416 H2401 0.960 . S
C2416 H2402 0.960 . S
C2416 H2403 0.960 . S
C2416 C2415 1.524 . S
C2417 C2414 1.403 . S
C2417 C2418 1.392 . S
C2417 C2421 1.495 . S
C2418 C2417 1.392 . S
C2418 C2419 1.385 . S
C2418 C2420 1.478 . S
C2419 H2413 0.930 . S
C2419 C2415 1.400 . S
C2419 C2418 1.385 . S
C2420 C2418 1.478 . S
C2420 C2422 1.381 . S
C2420 C2426 1.383 . S
C2421 C2417 1.495 . S
C2421 H2427 0.959 . S
C2421 H2428 0.961 . S
C2421 H2429 0.960 . S
C2422 C2420 1.381 . S
C2422 C2423 1.394 . S
C2422 H2430 0.930 . S
C2423 C2422 1.394 . S
C2423 C2424 1.383 . S
C2423 H2431 0.929 . S
C2424 C2423 1.383 . S
C2424 C2425 1.377 . S
C2425 H2409 0.930 . S
C2425 C2424 1.377 . S
C2425 C2426 1.379 . S
C2426 H2410 0.931 . S
C2426 C2420 1.383 . S
C2426 C2425 1.379 . S
H2427 C2421 0.959 . S
H2428 C2421 0.961 . S
H2429 C2421 0.960 . S
H2430 C2422 0.930 . S
H2431 C2423 0.929 . S
H2432 C2440 0.929 . S
H2433 C2442 0.930 . S
H2434 C2444 0.930 . S
H2435 C2447 0.929 . S
H2436 C2450 0.930 . S
H2437 C2452 0.960 . S
H2438 C2452 0.960 . S
H2439 C2452 0.960 . S
C2440 H2432 0.929 . S
C2440 C2441 1.377 . S
C2440 C2442 1.384 . S
C2441 C2440 1.377 . S
C2441 C2447 1.390 . S
C2442 H2433 0.930 . S
C2442 C2440 1.384 . S
C2442 C2443 1.372 . S
C2443 C2442 1.372 . S
C2443 C2444 1.400 . S
C2443 C2448 1.490 . S
C2444 H2434 0.930 . S
C2444 C2443 1.400 . S
C2444 C2447 1.386 . S
H2445 C2461 0.930 . S
H2446 C2462 0.931 . S
C2447 H2435 0.929 . S
C2447 C2441 1.390 . S
C2447 C2444 1.386 . S
C2448 C2443 1.490 . S
C2448 C2450 1.395 . S
C2448 C2451 1.403 . S
H2449 C2455 0.930 . S
C2450 H2436 0.930 . S
C2450 C2448 1.395 . S
C2450 C2453 1.403 . S
C2451 C2448 1.403 . S
C2451 C2452 1.524 . S
C2451 C2455 1.400 . S
C2452 H2437 0.960 . S
C2452 H2438 0.960 . S
C2452 H2439 0.960 . S
C2452 C2451 1.524 . S
C2453 C2450 1.403 . S
C2453 C2454 1.392 . S
C2453 C2457 1.495 . S
C2454 C2453 1.392 . S
C2454 C2455 1.385 . S
C2454 C2456 1.478 . S
C2455 H2449 0.930 . S
C2455 C2451 1.400 . S
C2455 C2454 1.385 . S
C2456 C2454 1.478 . S
C2456 C2458 1.381 . S
C2456 C2462 1.383 . S
C2457 C2453 1.495 . S
C2457 H2463 0.959 . S
C2457 H2464 0.961 . S
C2457 H2465 0.960 . S
C2458 C2456 1.381 . S
C2458 C2459 1.394 . S
C2458 H2466 0.930 . S
C2459 C2458 1.394 . S
C2459 C2460 1.383 . S
C2459 H2467 0.929 . S
C2460 C2459 1.383 . S
C2460 C2461 1.377 . S
C2461 H2445 0.930 . S
C2461 C2460 1.377 . S
C2461 C2462 1.379 . S
C2462 H2446 0.931 . S
C2462 C2456 1.383 . S
C2462 C2461 1.379 . S
H2463 C2457 0.959 . S
H2464 C2457 0.961 . S
H2465 C2457 0.960 . S
H2466 C2458 0.930 . S
H2467 C2459 0.929 . S
H2468 C2476 0.929 . S
H2469 C2478 0.930 . S
H2470 C2480 0.930 . S
H2471 C2483 0.929 . S
H2472 C2486 0.930 . S
H2473 C2488 0.960 . S
H2474 C2488 0.960 . S
H2475 C2488 0.960 . S
C2476 H2468 0.929 . S
C2476 C2477 1.377 . S
C2476 C2478 1.384 . S
C2477 C2476 1.377 . S
C2477 C2483 1.390 . S
C2478 H2469 0.930 . S
C2478 C2476 1.384 . S
C2478 C2479 1.372 . S
C2479 C2478 1.372 . S
C2479 C2480 1.400 . S
C2479 C2484 1.490 . S
C2480 H2470 0.930 . S
C2480 C2479 1.400 . S
C2480 C2483 1.386 . S
H2481 C2497 0.930 . S
H2482 C2498 0.931 . S
C2483 H2471 0.929 . S
C2483 C2477 1.390 . S
C2483 C2480 1.386 . S
C2484 C2479 1.490 . S
C2484 C2486 1.395 . S
C2484 C2487 1.403 . S
H2485 C2491 0.930 . S
C2486 H2472 0.930 . S
C2486 C2484 1.395 . S
C2486 C2489 1.403 . S
C2487 C2484 1.403 . S
C2487 C2488 1.524 . S
C2487 C2491 1.400 . S
C2488 H2473 0.960 . S
C2488 H2474 0.960 . S
C2488 H2475 0.960 . S
C2488 C2487 1.524 . S
C2489 C2486 1.403 . S
C2489 C2490 1.392 . S
C2489 C2493 1.495 . S
C2490 C2489 1.392 . S
C2490 C2491 1.385 . S
C2490 C2492 1.478 . S
C2491 H2485 0.930 . S
C2491 C2487 1.400 . S
C2491 C2490 1.385 . S
C2492 C2490 1.478 . S
C2492 C2494 1.381 . S
C2492 C2498 1.383 . S
C2493 C2489 1.495 . S
C2493 H2499 0.959 . S
C2493 H2500 0.961 . S
C2493 H2501 0.960 . S
C2494 C2492 1.381 . S
C2494 C2495 1.394 . S
C2494 H2502 0.930 . S
C2495 C2494 1.394 . S
C2495 C2496 1.383 . S
C2495 H2503 0.929 . S
C2496 C2495 1.383 . S
C2496 C2497 1.377 . S
C2497 H2481 0.930 . S
C2497 C2496 1.377 . S
C2497 C2498 1.379 . S
C2498 H2482 0.931 . S
C2498 C2492 1.383 . S
C2498 C2497 1.379 . S
H2499 C2493 0.959 . S
H2500 C2493 0.961 . S
H2501 C2493 0.960 . S
H2502 C2494 0.930 . S
H2503 C2495 0.929 . S
H2504 C2512 0.929 . S
H2505 C2514 0.930 . S
H2506 C2516 0.930 . S
H2507 C2519 0.929 . S
H2508 C2522 0.930 . S
H2509 C2524 0.960 . S
H2510 C2524 0.960 . S
H2511 C2524 0.960 . S
C2512 H2504 0.929 . S
C2512 C2513 1.377 . S
C2512 C2514 1.384 . S
C2513 C2512 1.377 . S
C2513 C2519 1.390 . S
C2514 H2505 0.930 . S
C2514 C2512 1.384 . S
C2514 C2515 1.372 . S
C2515 C2514 1.372 . S
C2515 C2516 1.400 . S
C2515 C2520 1.490 . S
C2516 H2506 0.930 . S
C2516 C2515 1.400 . S
C2516 C2519 1.386 . S
H2517 C2533 0.930 . S
H2518 C2534 0.931 . S
C2519 H2507 0.929 . S
C2519 C2513 1.390 . S
C2519 C2516 1.386 . S
C2520 C2515 1.490 . S
C2520 C2522 1.395 . S
C2520 C2523 1.403 . S
H2521 C2527 0.930 . S
C2522 H2508 0.930 . S
C2522 C2520 1.395 . S
C2522 C2525 1.403 . S
C2523 C2520 1.403 . S
C2523 C2524 1.524 . S
C2523 C2527 1.400 . S
C2524 H2509 0.960 . S
C2524 H2510 0.960 . S
C2524 H2511 0.960 . S
C2524 C2523 1.524 . S
C2525 C2522 1.403 . S
C2525 C2526 1.392 . S
C2525 C2529 1.495 . S
C2526 C2525 1.392 . S
C2526 C2527 1.385 . S
C2526 C2528 1.478 . S
C2527 H2521 0.930 . S
C2527 C2523 1.400 . S
C2527 C2526 1.385 . S
C2528 C2526 1.478 . S
C2528 C2530 1.381 . S
C2528 C2534 1.383 . S
C2529 C2525 1.495 . S
C2529 H2535 0.959 . S
C2529 H2536 0.961 . S
C2529 H2537 0.960 . S
C2530 C2528 1.381 . S
C2530 C2531 1.394 . S
C2530 H2538 0.930 . S
C2531 C2530 1.394 . S
C2531 C2532 1.383 . S
C2531 H2539 0.929 . S
C2532 C2531 1.383 . S
C2532 C2533 1.377 . S
C2533 H2517 0.930 . S
C2533 C2532 1.377 . S
C2533 C2534 1.379 . S
C2534 H2518 0.931 . S
C2534 C2528 1.383 . S
C2534 C2533 1.379 . S
H2535 C2529 0.959 . S
H2536 C2529 0.961 . S
H2537 C2529 0.960 . S
H2538 C2530 0.930 . S
H2539 C2531 0.929 . S
H2540 C2548 0.929 . S
H2541 C2550 0.930 . S
H2542 C2552 0.930 . S
H2543 C2555 0.929 . S
H2544 C2558 0.930 . S
H2545 C2560 0.960 . S
H2546 C2560 0.960 . S
H2547 C2560 0.960 . S
C2548 H2540 0.929 . S
C2548 C2549 1.377 . S
C2548 C2550 1.384 . S
C2549 C2548 1.377 . S
C2549 C2555 1.390 . S
C2550 H2541 0.930 . S
C2550 C2548 1.384 . S
C2550 C2551 1.372 . S
C2551 C2550 1.372 . S
C2551 C2552 1.400 . S
C2551 C2556 1.490 . S
C2552 H2542 0.930 . S
C2552 C2551 1.400 . S
C2552 C2555 1.386 . S
H2553 C2569 0.930 . S
H2554 C2570 0.931 . S
C2555 H2543 0.929 . S
C2555 C2549 1.390 . S
C2555 C2552 1.386 . S
C2556 C2551 1.490 . S
C2556 C2558 1.395 . S
C2556 C2559 1.403 . S
H2557 C2563 0.930 . S
C2558 H2544 0.930 . S
C2558 C2556 1.395 . S
C2558 C2561 1.403 . S
C2559 C2556 1.403 . S
C2559 C2560 1.524 . S
C2559 C2563 1.400 . S
C2560 H2545 0.960 . S
C2560 H2546 0.960 . S
C2560 H2547 0.960 . S
C2560 C2559 1.524 . S
C2561 C2558 1.403 . S
C2561 C2562 1.392 . S
C2561 C2565 1.495 . S
C2562 C2561 1.392 . S
C2562 C2563 1.385 . S
C2562 C2564 1.478 . S
C2563 H2557 0.930 . S
C2563 C2559 1.400 . S
C2563 C2562 1.385 . S
C2564 C2562 1.478 . S
C2564 C2566 1.381 . S
C2564 C2570 1.383 . S
C2565 C2561 1.495 . S
C2565 H2571 0.959 . S
C2565 H2572 0.961 . S
C2565 H2573 0.960 . S
C2566 C2564 1.381 . S
C2566 C2567 1.394 . S
C2566 H2574 0.930 . S
C2567 C2566 1.394 . S
C2567 C2568 1.383 . S
C2567 H2575 0.929 . S
C2568 C2567 1.383 . S
C2568 C2569 1.377 . S
C2569 H2553 0.930 . S
C2569 C2568 1.377 . S
C2569 C2570 1.379 . S
C2570 H2554 0.931 . S
C2570 C2564 1.383 . S
C2570 C2569 1.379 . S
H2571 C2565 0.959 . S
H2572 C2565 0.961 . S
H2573 C2565 0.960 . S
H2574 C2566 0.930 . S
H2575 C2567 0.929 . S
H2576 C2584 0.929 . S
H2577 C2586 0.930 . S
H2578 C2588 0.930 . S
H2579 C2591 0.929 . S
H2580 C2594 0.930 . S
H2581 C2596 0.960 . S
H2582 C2596 0.960 . S
H2583 C2596 0.960 . S
C2584 H2576 0.929 . S
C2584 C2585 1.377 . S
C2584 C2586 1.384 . S
C2585 C2584 1.377 . S
C2585 C2591 1.390 . S
C2586 H2577 0.930 . S
C2586 C2584 1.384 . S
C2586 C2587 1.372 . S
C2587 C2586 1.372 . S
C2587 C2588 1.400 . S
C2587 C2592 1.490 . S
C2588 H2578 0.930 . S
C2588 C2587 1.400 . S
C2588 C2591 1.386 . S
H2589 C2605 0.930 . S
H2590 C2606 0.931 . S
C2591 H2579 0.929 . S
C2591 C2585 1.390 . S
C2591 C2588 1.386 . S
C2592 C2587 1.490 . S
C2592 C2594 1.395 . S
C2592 C2595 1.403 . S
H2593 C2599 0.930 . S
C2594 H2580 0.930 . S
C2594 C2592 1.395 . S
C2594 C2597 1.403 . S
C2595 C2592 1.403 . S
C2595 C2596 1.524 . S
C2595 C2599 1.400 . S
C2596 H2581 0.960 . S
C2596 H2582 0.960 . S
C2596 H2583 0.960 . S
C2596 C2595 1.524 . S
C2597 C2594 1.403 . S
C2597 C2598 1.392 . S
C2597 C2601 1.495 . S
C2598 C2597 1.392 . S
C2598 C2599 1.385 . S
C2598 C2600 1.478 . S
C2599 H2593 0.930 . S
C2599 C2595 1.400 . S
C2599 C2598 1.385 . S
C2600 C2598 1.478 . S
C2600 C2602 1.381 . S
C2600 C2606 1.383 . S
C2601 C2597 1.495 . S
C2601 H2607 0.959 . S
C2601 H2608 0.961 . S
C2601 H2609 0.960 . S
C2602 C2600 1.381 . S
C2602 C2603 1.394 . S
C2602 H2610 0.930 . S
C2603 C2602 1.394 . S
C2603 C2604 1.383 . S
C2603 H2611 0.929 . S
C2604 C2603 1.383 . S
C2604 C2605 1.377 . S
C2605 H2589 0.930 . S
C2605 C2604 1.377 . S
C2605 C2606 1.379 . S
C2606 H2590 0.931 . S
C2606 C2600 1.383 . S
C2606 C2605 1.379 . S
H2607 C2601 0.959 . S
H2608 C2601 0.961 . S
H2609 C2601 0.960 . S
H2610 C2602 0.930 . S
H2611 C2603 0.929 . S
H2612 C2620 0.929 . S
H2613 C2622 0.930 . S
H2614 C2624 0.930 . S
H2615 C2627 0.929 . S
H2616 C2630 0.930 . S
H2617 C2632 0.960 . S
H2618 C2632 0.960 . S
H2619 C2632 0.960 . S
C2620 H2612 0.929 . S
C2620 C2621 1.377 . S
C2620 C2622 1.384 . S
C2621 C2620 1.377 . S
C2621 C2627 1.390 . S
C2622 H2613 0.930 . S
C2622 C2620 1.384 . S
C2622 C2623 1.372 . S
C2623 C2622 1.372 . S
C2623 C2624 1.400 . S
C2623 C2628 1.490 . S
C2624 H2614 0.930 . S
C2624 C2623 1.400 . S
C2624 C2627 1.386 . S
H2625 C2641 0.930 . S
H2626 C2642 0.931 . S
C2627 H2615 0.929 . S
C2627 C2621 1.390 . S
C2627 C2624 1.386 . S
C2628 C2623 1.490 . S
C2628 C2630 1.395 . S
C2628 C2631 1.403 . S
H2629 C2635 0.930 . S
C2630 H2616 0.930 . S
C2630 C2628 1.395 . S
C2630 C2633 1.403 . S
C2631 C2628 1.403 . S
C2631 C2632 1.524 . S
C2631 C2635 1.400 . S
C2632 H2617 0.960 . S
C2632 H2618 0.960 . S
C2632 H2619 0.960 . S
C2632 C2631 1.524 . S
C2633 C2630 1.403 . S
C2633 C2634 1.392 . S
C2633 C2637 1.495 . S
C2634 C2633 1.392 . S
C2634 C2635 1.385 . S
C2634 C2636 1.478 . S
C2635 H2629 0.930 . S
C2635 C2631 1.400 . S
C2635 C2634 1.385 . S
C2636 C2634 1.478 . S
C2636 C2638 1.381 . S
C2636 C2642 1.383 . S
C2637 C2633 1.495 . S
C2637 H2643 0.959 . S
C2637 H2644 0.961 . S
C2637 H2645 0.960 . S
C2638 C2636 1.381 . S
C2638 C2639 1.394 . S
C2638 H2646 0.930 . S
C2639 C2638 1.394 . S
C2639 C2640 1.383 . S
C2639 H2647 0.929 . S
C2640 C2639 1.383 . S
C2640 C2641 1.377 . S
C2641 H2625 0.930 . S
C2641 C2640 1.377 . S
C2641 C2642 1.379 . S
C2642 H2626 0.931 . S
C2642 C2636 1.383 . S
C2642 C2641 1.379 . S
H2643 C2637 0.959 . S
H2644 C2637 0.961 . S
H2645 C2637 0.960 . S
H2646 C2638 0.930 . S
H2647 C2639 0.929 . S
H2648 C2656 0.929 . S
H2649 C2658 0.930 . S
H2650 C2660 0.930 . S
H2651 C2663 0.929 . S
H2652 C2666 0.930 . S
H2653 C2668 0.960 . S
H2654 C2668 0.960 . S
H2655 C2668 0.960 . S
C2656 H2648 0.929 . S
C2656 C2657 1.377 . S
C2656 C2658 1.384 . S
C2657 C2656 1.377 . S
C2657 C2663 1.390 . S
C2658 H2649 0.930 . S
C2658 C2656 1.384 . S
C2658 C2659 1.372 . S
C2659 C2658 1.372 . S
C2659 C2660 1.400 . S
C2659 C2664 1.490 . S
C2660 H2650 0.930 . S
C2660 C2659 1.400 . S
C2660 C2663 1.386 . S
H2661 C2677 0.930 . S
H2662 C2678 0.931 . S
C2663 H2651 0.929 . S
C2663 C2657 1.390 . S
C2663 C2660 1.386 . S
C2664 C2659 1.490 . S
C2664 C2666 1.395 . S
C2664 C2667 1.403 . S
H2665 C2671 0.930 . S
C2666 H2652 0.930 . S
C2666 C2664 1.395 . S
C2666 C2669 1.403 . S
C2667 C2664 1.403 . S
C2667 C2668 1.524 . S
C2667 C2671 1.400 . S
C2668 H2653 0.960 . S
C2668 H2654 0.960 . S
C2668 H2655 0.960 . S
C2668 C2667 1.524 . S
C2669 C2666 1.403 . S
C2669 C2670 1.392 . S
C2669 C2673 1.495 . S
C2670 C2669 1.392 . S
C2670 C2671 1.385 . S
C2670 C2672 1.478 . S
C2671 H2665 0.930 . S
C2671 C2667 1.400 . S
C2671 C2670 1.385 . S
C2672 C2670 1.478 . S
C2672 C2674 1.381 . S
C2672 C2678 1.383 . S
C2673 C2669 1.495 . S
C2673 H2679 0.959 . S
C2673 H2680 0.961 . S
C2673 H2681 0.960 . S
C2674 C2672 1.381 . S
C2674 C2675 1.394 . S
C2674 H2682 0.930 . S
C2675 C2674 1.394 . S
C2675 C2676 1.383 . S
C2675 H2683 0.929 . S
C2676 C2675 1.383 . S
C2676 C2677 1.377 . S
C2677 H2661 0.930 . S
C2677 C2676 1.377 . S
C2677 C2678 1.379 . S
C2678 H2662 0.931 . S
C2678 C2672 1.383 . S
C2678 C2677 1.379 . S
H2679 C2673 0.959 . S
H2680 C2673 0.961 . S
H2681 C2673 0.960 . S
H2682 C2674 0.930 . S
H2683 C2675 0.929 . S
H2684 C2692 0.929 . S
H2685 C2694 0.930 . S
H2686 C2696 0.930 . S
H2687 C2699 0.929 . S
H2688 C2702 0.930 . S
H2689 C2704 0.960 . S
H2690 C2704 0.960 . S
H2691 C2704 0.960 . S
C2692 H2684 0.929 . S
C2692 C2693 1.377 . S
C2692 C2694 1.384 . S
C2693 C2692 1.377 . S
C2693 C2699 1.390 . S
C2694 H2685 0.930 . S
C2694 C2692 1.384 . S
C2694 C2695 1.372 . S
C2695 C2694 1.372 . S
C2695 C2696 1.400 . S
C2695 C2700 1.490 . S
C2696 H2686 0.930 . S
C2696 C2695 1.400 . S
C2696 C2699 1.386 . S
H2697 C2713 0.930 . S
H2698 C2714 0.931 . S
C2699 H2687 0.929 . S
C2699 C2693 1.390 . S
C2699 C2696 1.386 . S
C2700 C2695 1.490 . S
C2700 C2702 1.395 . S
C2700 C2703 1.403 . S
H2701 C2707 0.930 . S
C2702 H2688 0.930 . S
C2702 C2700 1.395 . S
C2702 C2705 1.403 . S
C2703 C2700 1.403 . S
C2703 C2704 1.524 . S
C2703 C2707 1.400 . S
C2704 H2689 0.960 . S
C2704 H2690 0.960 . S
C2704 H2691 0.960 . S
C2704 C2703 1.524 . S
C2705 C2702 1.403 . S
C2705 C2706 1.392 . S
C2705 C2709 1.495 . S
C2706 C2705 1.392 . S
C2706 C2707 1.385 . S
C2706 C2708 1.478 . S
C2707 H2701 0.930 . S
C2707 C2703 1.400 . S
C2707 C2706 1.385 . S
C2708 C2706 1.478 . S
C2708 C2710 1.381 . S
C2708 C2714 1.383 . S
C2709 C2705 1.495 . S
C2709 H2715 0.959 . S
C2709 H2716 0.961 . S
C2709 H2717 0.960 . S
C2710 C2708 1.381 . S
C2710 C2711 1.394 . S
C2710 H2718 0.930 . S
C2711 C2710 1.394 . S
C2711 C2712 1.383 . S
C2711 H2719 0.929 . S
C2712 C2711 1.383 . S
C2712 C2713 1.377 . S
C2713 H2697 0.930 . S
C2713 C2712 1.377 . S
C2713 C2714 1.379 . S
C2714 H2698 0.931 . S
C2714 C2708 1.383 . S
C2714 C2713 1.379 . S
H2715 C2709 0.959 . S
H2716 C2709 0.961 . S
H2717 C2709 0.960 . S
H2718 C2710 0.930 . S
H2719 C2711 0.929 . S
C425 C91 1.313 . S
C444 C0 1.290 . S
C461 C13 1.451 . S
C480 C52 1.443 . S
C497 C65 1.177 . S
C516 C26 1.139 . S
C533 C78 1.240 . S
C552 C39 1.319 . S
C569 C104 1.314 . S
C588 C286 1.331 . S
C605 C117 1.451 . S
C624 C247 1.443 . S
C641 C377 1.171 . S
C660 C130 1.182 . S
C677 C351 1.242 . S
C696 C143 1.295 . S
C713 C156 1.457 . S
C732 C403 1.442 . S
C749 C169 1.178 . S
C768 C338 1.140 . S
C785 C182 1.234 . S
C804 C273 1.267 . S
C821 C195 1.318 1_554 S
C840 C208 1.299 . S
C857 C221 1.314 . S
C876 C325 1.330 . S
C893 C234 1.168 . S
C912 C260 1.167 . S
C929 C390 1.305 . S
C948 C299 1.199 . S
C965 C364 1.458 . S
C984 C312 1.431 . S
C1001 C140 0.667 . S
C1020 C10 0.725 . S
C1037 C148 0.705 . S
C1056 C18 0.467 . S
C1073 C114 0.765 . S
C1092 C36 0.692 . S
C1109 C122 0.488 . S
C1128 C44 0.768 . S
C1145 C190 0.511 . S
C1164 C62 0.704 . S
C1181 C75 0.623 . S
C1200 C205 0.646 1_554 S
C1217 C86 0.544 . S
C1236 C166 0.578 . S
C1253 C101 0.723 . S
C1272 C179 0.537 . S
C1289 C164 0.780 . S
C1308 C112 0.545 . S
C1325 C127 0.758 . S
C1344 C177 0.533 . S
C1361 C187 0.877 . S
C1380 C138 0.324 . S
C1397 C153 0.675 . S
C1416 C203 0.395 . S
C1433 C309 0.444 . S
C1452 C213 0.581 . S
C1469 C31 0.704 . S
C1488 C161 0.375 . S
C1505 C47 0.357 . S
C1524 C174 0.780 . S
C1541 C5 0.641 . S
C1560 C192 0.427 . S
C1577 C226 0.680 . S
C1596 C411 0.531 . S
C1613 C252 0.454 . S
C1632 C239 0.685 . S
C1649 C21 0.428 . S
C1668 C200 0.765 . S
C1685 C307 0.526 . S
C1704 C257 0.754 . S
C1721 C270 0.611 . S
C1740 C296 0.778 1_554 S
C1757 C218 0.776 . S
C1776 C244 0.760 . S
C1793 C278 0.704 . S
C1812 C317 0.443 . S
C1829 C320 0.446 . S
C1848 C291 0.761 . S
C1865 C135 0.688 . S
C1884 C57 0.406 . S
C1901 C268 0.472 . S
C1920 C322 0.658 . S
C1937 C99 0.444 . S
C1956 C49 0.758 . S
C1973 C372 0.750 . S
C1992 C333 0.515 . S
C2009 C73 0.469 . S
C2028 C23 0.723 . S
C2045 C216 0.459 . S
C2064 C255 0.798 . S
C2081 C335 0.765 . S
C2100 C348 0.681 . S
C2117 C359 0.543 . S
C2136 C374 0.575 . S
C2153 C304 0.872 . S
C2172 C242 0.330 . S
C2189 C343 0.685 . S
C2208 C369 0.505 . S
C2225 C151 0.398 . S
C2244 C70 0.799 . S
C2261 C96 0.665 . S
C2280 C125 0.518 . S
C2297 C231 0.742 . S
C2316 C387 0.586 . S
C2333 C395 0.669 . S
C2352 C408 0.477 . S
C2369 C413 0.745 . S
C2388 C385 0.429 . S
C2405 C60 0.742 . S
C2424 C8 0.426 . S
C2441 C34 0.426 . S
C2460 C83 0.969 . S
C2477 C400 0.682 . S
C2496 C229 0.447 . S
C2513 C330 0.681 . S
C2532 C361 0.495 . S
C2549 C265 0.748 . S
C2568 C281 0.411 . S
C2585 C88 0.447 . S
C2604 C109 0.734 . S
C2621 C294 0.423 . S
C2640 C283 0.592 . S
C2657 C346 0.435 . S
C2676 C356 0.970 . S
C2693 C398 0.358 . S
C2712 C382 0.797 . S
