# Generated by pormake.
# Topology umn, (4)-cn, num edge types: 1
# Building blocks:
#     Node 0, Type 0, BuildingBlock: QUQFOY_clean_sbu_1, # of connection points: 4
#     Node 1, Type 0, BuildingBlock: QUQFOY_clean_sbu_1, # of connection points: 4
#     Node 2, Type 0, BuildingBlock: QUQFOY_clean_sbu_1, # of connection points: 4
#     Node 3, Type 0, BuildingBlock: QUQFOY_clean_sbu_1, # of connection points: 4
#     Node 4, Type 0, BuildingBlock: QUQFOY_clean_sbu_1, # of connection points: 4
#     Node 5, Type 0, BuildingBlock: QUQFOY_clean_sbu_1, # of connection points: 4
#     Node 6, Type 0, BuildingBlock: QUQFOY_clean_sbu_1, # of connection points: 4
#     Node 7, Type 0, BuildingBlock: QUQFOY_clean_sbu_1, # of connection points: 4
#     Node 8, Type 0, BuildingBlock: QUQFOY_clean_sbu_1, # of connection points: 4
#     Node 9, Type 0, BuildingBlock: QUQFOY_clean_sbu_1, # of connection points: 4
#     Node 10, Type 0, BuildingBlock: QUQFOY_clean_sbu_1, # of connection points: 4
#     Node 11, Type 0, BuildingBlock: QUQFOY_clean_sbu_1, # of connection points: 4
#     Node 12, Type 0, BuildingBlock: QUQFOY_clean_sbu_1, # of connection points: 4
#     Node 13, Type 0, BuildingBlock: QUQFOY_clean_sbu_1, # of connection points: 4
#     Node 14, Type 0, BuildingBlock: QUQFOY_clean_sbu_1, # of connection points: 4
#     Node 15, Type 0, BuildingBlock: QUQFOY_clean_sbu_1, # of connection points: 4
#     Node 16, Type 0, BuildingBlock: QUQFOY_clean_sbu_1, # of connection points: 4
#     Node 17, Type 0, BuildingBlock: QUQFOY_clean_sbu_1, # of connection points: 4
#     Node 18, Type 0, BuildingBlock: QUQFOY_clean_sbu_1, # of connection points: 4
#     Node 19, Type 0, BuildingBlock: QUQFOY_clean_sbu_1, # of connection points: 4
#     Node 20, Type 0, BuildingBlock: QUQFOY_clean_sbu_1, # of connection points: 4
#     Node 21, Type 0, BuildingBlock: QUQFOY_clean_sbu_1, # of connection points: 4
#     Node 22, Type 0, BuildingBlock: QUQFOY_clean_sbu_1, # of connection points: 4
#     Node 23, Type 0, BuildingBlock: QUQFOY_clean_sbu_1, # of connection points: 4
#     Node 24, Type 0, BuildingBlock: QUQFOY_clean_sbu_1, # of connection points: 4
#     Node 25, Type 0, BuildingBlock: QUQFOY_clean_sbu_1, # of connection points: 4
#     Node 26, Type 0, BuildingBlock: QUQFOY_clean_sbu_1, # of connection points: 4
#     Node 27, Type 0, BuildingBlock: QUQFOY_clean_sbu_1, # of connection points: 4
#     Node 28, Type 0, BuildingBlock: QUQFOY_clean_sbu_1, # of connection points: 4
#     Node 29, Type 0, BuildingBlock: QUQFOY_clean_sbu_1, # of connection points: 4
#     Node 30, Type 0, BuildingBlock: QUQFOY_clean_sbu_1, # of connection points: 4
#     Node 31, Type 0, BuildingBlock: QUQFOY_clean_sbu_1, # of connection points: 4
#     Node 32, Type 0, BuildingBlock: QUQFOY_clean_sbu_1, # of connection points: 4
#     Node 33, Type 0, BuildingBlock: QUQFOY_clean_sbu_1, # of connection points: 4
#     Node 34, Type 0, BuildingBlock: QUQFOY_clean_sbu_1, # of connection points: 4
#     Node 35, Type 0, BuildingBlock: QUQFOY_clean_sbu_1, # of connection points: 4
#     Edge 36, Type (0, 0), BuildingBlock: XIVTED_clean_linker_0, # of connection points: 2
#     Edge 37, Type (0, 0), BuildingBlock: XIVTED_clean_linker_0, # of connection points: 2
#     Edge 38, Type (0, 0), BuildingBlock: XIVTED_clean_linker_0, # of connection points: 2
#     Edge 39, Type (0, 0), BuildingBlock: XIVTED_clean_linker_0, # of connection points: 2
#     Edge 40, Type (0, 0), BuildingBlock: XIVTED_clean_linker_0, # of connection points: 2
#     Edge 41, Type (0, 0), BuildingBlock: XIVTED_clean_linker_0, # of connection points: 2
#     Edge 42, Type (0, 0), BuildingBlock: XIVTED_clean_linker_0, # of connection points: 2
#     Edge 43, Type (0, 0), BuildingBlock: XIVTED_clean_linker_0, # of connection points: 2
#     Edge 44, Type (0, 0), BuildingBlock: XIVTED_clean_linker_0, # of connection points: 2
#     Edge 45, Type (0, 0), BuildingBlock: XIVTED_clean_linker_0, # of connection points: 2
#     Edge 46, Type (0, 0), BuildingBlock: XIVTED_clean_linker_0, # of connection points: 2
#     Edge 47, Type (0, 0), BuildingBlock: XIVTED_clean_linker_0, # of connection points: 2
#     Edge 48, Type (0, 0), BuildingBlock: XIVTED_clean_linker_0, # of connection points: 2
#     Edge 49, Type (0, 0), BuildingBlock: XIVTED_clean_linker_0, # of connection points: 2
#     Edge 50, Type (0, 0), BuildingBlock: XIVTED_clean_linker_0, # of connection points: 2
#     Edge 51, Type (0, 0), BuildingBlock: XIVTED_clean_linker_0, # of connection points: 2
#     Edge 52, Type (0, 0), BuildingBlock: XIVTED_clean_linker_0, # of connection points: 2
#     Edge 53, Type (0, 0), BuildingBlock: XIVTED_clean_linker_0, # of connection points: 2
#     Edge 54, Type (0, 0), BuildingBlock: XIVTED_clean_linker_0, # of connection points: 2
#     Edge 55, Type (0, 0), BuildingBlock: XIVTED_clean_linker_0, # of connection points: 2
#     Edge 56, Type (0, 0), BuildingBlock: XIVTED_clean_linker_0, # of connection points: 2
#     Edge 57, Type (0, 0), BuildingBlock: XIVTED_clean_linker_0, # of connection points: 2
#     Edge 58, Type (0, 0), BuildingBlock: XIVTED_clean_linker_0, # of connection points: 2
#     Edge 59, Type (0, 0), BuildingBlock: XIVTED_clean_linker_0, # of connection points: 2
#     Edge 60, Type (0, 0), BuildingBlock: XIVTED_clean_linker_0, # of connection points: 2
#     Edge 61, Type (0, 0), BuildingBlock: XIVTED_clean_linker_0, # of connection points: 2
#     Edge 62, Type (0, 0), BuildingBlock: XIVTED_clean_linker_0, # of connection points: 2
#     Edge 63, Type (0, 0), BuildingBlock: XIVTED_clean_linker_0, # of connection points: 2
#     Edge 64, Type (0, 0), BuildingBlock: XIVTED_clean_linker_0, # of connection points: 2
#     Edge 65, Type (0, 0), BuildingBlock: XIVTED_clean_linker_0, # of connection points: 2
#     Edge 66, Type (0, 0), BuildingBlock: XIVTED_clean_linker_0, # of connection points: 2
#     Edge 67, Type (0, 0), BuildingBlock: XIVTED_clean_linker_0, # of connection points: 2
#     Edge 68, Type (0, 0), BuildingBlock: XIVTED_clean_linker_0, # of connection points: 2
#     Edge 69, Type (0, 0), BuildingBlock: XIVTED_clean_linker_0, # of connection points: 2
#     Edge 70, Type (0, 0), BuildingBlock: XIVTED_clean_linker_0, # of connection points: 2
#     Edge 71, Type (0, 0), BuildingBlock: XIVTED_clean_linker_0, # of connection points: 2
#     Edge 72, Type (0, 0), BuildingBlock: XIVTED_clean_linker_0, # of connection points: 2
#     Edge 73, Type (0, 0), BuildingBlock: XIVTED_clean_linker_0, # of connection points: 2
#     Edge 74, Type (0, 0), BuildingBlock: XIVTED_clean_linker_0, # of connection points: 2
#     Edge 75, Type (0, 0), BuildingBlock: XIVTED_clean_linker_0, # of connection points: 2
#     Edge 76, Type (0, 0), BuildingBlock: XIVTED_clean_linker_0, # of connection points: 2
#     Edge 77, Type (0, 0), BuildingBlock: XIVTED_clean_linker_0, # of connection points: 2
#     Edge 78, Type (0, 0), BuildingBlock: XIVTED_clean_linker_0, # of connection points: 2
#     Edge 79, Type (0, 0), BuildingBlock: XIVTED_clean_linker_0, # of connection points: 2
#     Edge 80, Type (0, 0), BuildingBlock: XIVTED_clean_linker_0, # of connection points: 2
#     Edge 81, Type (0, 0), BuildingBlock: XIVTED_clean_linker_0, # of connection points: 2
#     Edge 82, Type (0, 0), BuildingBlock: XIVTED_clean_linker_0, # of connection points: 2
#     Edge 83, Type (0, 0), BuildingBlock: XIVTED_clean_linker_0, # of connection points: 2
#     Edge 84, Type (0, 0), BuildingBlock: XIVTED_clean_linker_0, # of connection points: 2
#     Edge 85, Type (0, 0), BuildingBlock: XIVTED_clean_linker_0, # of connection points: 2
#     Edge 86, Type (0, 0), BuildingBlock: XIVTED_clean_linker_0, # of connection points: 2
#     Edge 87, Type (0, 0), BuildingBlock: XIVTED_clean_linker_0, # of connection points: 2
#     Edge 88, Type (0, 0), BuildingBlock: XIVTED_clean_linker_0, # of connection points: 2
#     Edge 89, Type (0, 0), BuildingBlock: XIVTED_clean_linker_0, # of connection points: 2
#     Edge 90, Type (0, 0), BuildingBlock: XIVTED_clean_linker_0, # of connection points: 2
#     Edge 91, Type (0, 0), BuildingBlock: XIVTED_clean_linker_0, # of connection points: 2
#     Edge 92, Type (0, 0), BuildingBlock: XIVTED_clean_linker_0, # of connection points: 2
#     Edge 93, Type (0, 0), BuildingBlock: XIVTED_clean_linker_0, # of connection points: 2
#     Edge 94, Type (0, 0), BuildingBlock: XIVTED_clean_linker_0, # of connection points: 2
#     Edge 95, Type (0, 0), BuildingBlock: XIVTED_clean_linker_0, # of connection points: 2
#     Edge 96, Type (0, 0), BuildingBlock: XIVTED_clean_linker_0, # of connection points: 2
#     Edge 97, Type (0, 0), BuildingBlock: XIVTED_clean_linker_0, # of connection points: 2
#     Edge 98, Type (0, 0), BuildingBlock: XIVTED_clean_linker_0, # of connection points: 2
#     Edge 99, Type (0, 0), BuildingBlock: XIVTED_clean_linker_0, # of connection points: 2
#     Edge 100, Type (0, 0), BuildingBlock: XIVTED_clean_linker_0, # of connection points: 2
#     Edge 101, Type (0, 0), BuildingBlock: XIVTED_clean_linker_0, # of connection points: 2
#     Edge 102, Type (0, 0), BuildingBlock: XIVTED_clean_linker_0, # of connection points: 2
#     Edge 103, Type (0, 0), BuildingBlock: XIVTED_clean_linker_0, # of connection points: 2
#     Edge 104, Type (0, 0), BuildingBlock: XIVTED_clean_linker_0, # of connection points: 2
#     Edge 105, Type (0, 0), BuildingBlock: XIVTED_clean_linker_0, # of connection points: 2
#     Edge 106, Type (0, 0), BuildingBlock: XIVTED_clean_linker_0, # of connection points: 2
#     Edge 107, Type (0, 0), BuildingBlock: XIVTED_clean_linker_0, # of connection points: 2
# Relax obj value: 0.079
# Max RMSD: 0.125
# Mean RMSD: 0.125
data_MOF--net-umn--node1-QUQFOY_clean_sbu_1--edge1-XIVTED_clean_linker_0
_symmetry_space_group_name_H-M    P1
_symmetry_Int_Tables_number       1
_symmetry_cell_setting            triclinic
loop_
_symmetry_equiv_pos_as_xyz
'x, y, z'
_cell_length_a     91.615351
_cell_length_b     91.492342
_cell_length_c     38.634837
_cell_angle_alpha  90.044409
_cell_angle_beta   90.025589
_cell_angle_gamma 120.02859
loop_
_atom_site_label
_atom_site_type_symbol
_atom_site_fract_x
_atom_site_fract_y
_atom_site_fract_z
_atom_type_partial_charge
O0 O 0.3402 0.09109 0.28612 0.0
Cd1 Cd 0.33028 0.08454 0.23711 0.0
Cd2 Cd 0.34891 0.06975 0.24001 0.0
O3 O 0.35895 0.08271 0.28555 0.0
O4 O 0.31882 0.09799 0.2337 0.0
O5 O 0.33903 0.10132 0.19791 0.0
C6 C 0.32844 0.10585 0.20796 0.0
C7 C 0.36396 0.0685 0.19234 0.0
C8 C 0.35164 0.0895 0.30122 0.0
C9 C 0.3112 0.04799 0.24414 0.0
O10 O 0.32553 0.04927 0.24875 0.0
O11 O 0.31007 0.06054 0.23395 0.0
O12 O 0.36349 0.06113 0.22114 0.0
O13 O 0.35651 0.07734 0.19113 0.0
O14 O 0.89689 0.25307 0.29744 0.0
Cd15 Cd 0.89399 0.2445 0.24761 0.0
Cd16 Cd 0.91295 0.27887 0.23549 0.0
O17 O 0.91259 0.28059 0.28956 0.0
O18 O 0.87828 0.21996 0.25431 0.0
O19 O 0.87243 0.23572 0.22026 0.0
C20 C 0.86805 0.22108 0.23317 0.0
C21 C 0.90855 0.29516 0.19433 0.0
C22 C 0.90541 0.26789 0.30973 0.0
C23 C 0.92804 0.25715 0.21743 0.0
O24 O 0.92956 0.27173 0.2181 0.0
O25 O 0.91466 0.24432 0.22791 0.0
O26 O 0.92139 0.30183 0.21486 0.0
O27 O 0.89737 0.27947 0.19914 0.0
O28 O 0.74995 0.67155 0.28955 0.0
Cd29 Cd 0.75721 0.67688 0.23906 0.0
Cd30 Cd 0.72309 0.6605 0.22972 0.0
O31 O 0.72264 0.65444 0.28196 0.0
O32 O 0.78151 0.68418 0.24111 0.0
O33 O 0.76314 0.66236 0.21001 0.0
C34 C 0.77847 0.67192 0.22047 0.0
C35 C 0.70433 0.64111 0.18899 0.0
C36 C 0.73539 0.6619 0.30187 0.0
C37 C 0.74388 0.6984 0.21662 0.0
O38 O 0.72946 0.68524 0.21979 0.0
O39 O 0.75724 0.69776 0.22109 0.0
O40 O 0.69917 0.64693 0.21355 0.0
O41 O 0.72014 0.64563 0.18843 0.0
O42 O 0.08572 0.31412 0.23366 0.0
Cd43 Cd 0.07663 0.30753 0.28305 0.0
Cd44 Cd 0.07444 0.33444 0.27333 0.0
O45 O 0.09155 0.34055 0.23286 0.0
O46 O 0.08496 0.29209 0.29684 0.0
O47 O 0.09296 0.31659 0.3226 0.0
C48 C 0.09455 0.30341 0.31897 0.0
C49 C 0.07397 0.35047 0.32038 0.0
C50 C 0.09192 0.32823 0.21826 0.0
C51 C 0.04334 0.3001 0.26713 0.0
O52 O 0.05106 0.31556 0.25841 0.0
O53 O 0.05078 0.29406 0.28477 0.0
O54 O 0.07143 0.35371 0.28911 0.0
O55 O 0.07822 0.33905 0.32453 0.0
O56 O 0.6508 0.75374 0.22678 0.0
Cd57 Cd 0.6632 0.76299 0.2726 0.0
Cd58 Cd 0.65212 0.72931 0.28492 0.0
O59 O 0.64514 0.72745 0.2331 0.0
O60 O 0.67035 0.78727 0.26804 0.0
O61 O 0.65468 0.77155 0.31135 0.0
C62 C 0.66247 0.78609 0.29634 0.0
C63 C 0.63441 0.7098 0.32663 0.0
C64 C 0.64567 0.73912 0.2143 0.0
C65 C 0.68937 0.75304 0.28384 0.0
O66 O 0.67751 0.73839 0.29181 0.0
O67 O 0.68624 0.76447 0.27454 0.0
O68 O 0.64095 0.70546 0.30202 0.0
O69 O 0.6374 0.72518 0.32702 0.0
O70 O 0.22926 0.90492 0.22562 0.0
Cd71 Cd 0.22144 0.90415 0.27542 0.0
Cd72 Cd 0.25728 0.92228 0.28548 0.0
O73 O 0.25698 0.9192 0.23179 0.0
O74 O 0.19687 0.88797 0.2726 0.0
O75 O 0.21412 0.88397 0.30619 0.0
C76 C 0.19904 0.87875 0.29483 0.0
C77 C 0.27874 0.92368 0.32152 0.0
C78 C 0.24394 0.91194 0.21256 0.0
C79 C 0.23589 0.93861 0.30282 0.0
O80 O 0.24991 0.93893 0.30203 0.0
O81 O 0.22245 0.92581 0.29249 0.0
O82 O 0.28189 0.93474 0.29781 0.0
O83 O 0.26357 0.91102 0.32332 0.0
O84 O 0.64988 0.9095 0.73278 0.0
Cd85 Cd 0.65868 0.9085 0.78089 0.0
Cd86 Cd 0.65176 0.93402 0.79294 0.0
O87 O 0.6467 0.93166 0.74002 0.0
O88 O 0.66356 0.8899 0.77281 0.0
O89 O 0.64628 0.88878 0.81371 0.0
C90 C 0.65364 0.88179 0.79794 0.0
C91 C 0.6329 0.93375 0.83436 0.0
C92 C 0.64684 0.92055 0.72038 0.0
C93 C 0.68772 0.94281 0.79933 0.0
O94 O 0.67718 0.94782 0.80398 0.0
O95 O 0.68275 0.9277 0.79034 0.0
O96 O 0.64086 0.94628 0.81345 0.0
O97 O 0.63529 0.92103 0.83124 0.0
O98 O 0.08816 0.74129 0.72739 0.0
Cd99 Cd 0.08832 0.7495 0.77678 0.0
Cd100 Cd 0.06714 0.7151 0.78683 0.0
O101 O 0.06999 0.71409 0.73347 0.0
O102 O 0.10388 0.77408 0.76978 0.0
O103 O 0.10861 0.75934 0.80868 0.0
C104 C 0.11323 0.77368 0.79406 0.0
C105 C 0.06876 0.69662 0.827 0.0
C106 C 0.07909 0.72674 0.71421 0.0
C107 C 0.0525 0.73776 0.79651 0.0
O108 O 0.05026 0.72291 0.7989 0.0
O109 O 0.06684 0.75008 0.78874 0.0
O110 O 0.05669 0.69139 0.80472 0.0
O111 O 0.08049 0.71229 0.82549 0.0
O112 O 0.23591 0.32768 0.72288 0.0
Cd113 Cd 0.22817 0.32431 0.77316 0.0
Cd114 Cd 0.26303 0.33815 0.78243 0.0
O115 O 0.26351 0.33947 0.72854 0.0
O116 O 0.20441 0.31874 0.76783 0.0
O117 O 0.22324 0.34088 0.79739 0.0
C118 C 0.20806 0.33201 0.78568 0.0
C119 C 0.28495 0.35828 0.81738 0.0
C120 C 0.25042 0.3336 0.70948 0.0
C121 C 0.23856 0.30168 0.80438 0.0
O122 O 0.25346 0.3141 0.80133 0.0
O123 O 0.22593 0.30288 0.79512 0.0
O124 O 0.28739 0.349 0.79579 0.0
O125 O 0.27024 0.35694 0.81778 0.0
O126 O 0.90894 0.67401 0.77222 0.0
Cd127 Cd 0.90964 0.67844 0.72028 0.0
Cd128 Cd 0.9227 0.65728 0.72132 0.0
O129 O 0.91397 0.65279 0.77256 0.0
O130 O 0.8945 0.68802 0.71523 0.0
O131 O 0.88956 0.66423 0.69007 0.0
C132 C 0.88478 0.67507 0.69655 0.0
C133 C 0.92256 0.63704 0.68315 0.0
C134 C 0.91055 0.6629 0.78867 0.0
C135 C 0.94547 0.69508 0.70698 0.0
O136 O 0.94368 0.68074 0.71446 0.0
O137 O 0.93276 0.69704 0.70425 0.0
O138 O 0.93145 0.64148 0.71109 0.0
O139 O 0.9127 0.64313 0.67801 0.0
O140 O 0.33549 0.25037 0.77448 0.0
Cd141 Cd 0.32629 0.24672 0.72488 0.0
Cd142 Cd 0.34487 0.28049 0.72826 0.0
O143 O 0.35435 0.27752 0.7745 0.0
O144 O 0.31579 0.22181 0.72149 0.0
O145 O 0.33658 0.2393 0.68749 0.0
C146 C 0.32639 0.22403 0.69743 0.0
C147 C 0.36111 0.29878 0.68369 0.0
C148 C 0.34677 0.26338 0.79001 0.0
C149 C 0.30677 0.26362 0.73074 0.0
O150 O 0.32105 0.27675 0.73551 0.0
O151 O 0.30576 0.24997 0.72046 0.0
O152 O 0.3592 0.30444 0.71292 0.0
O153 O 0.3543 0.28261 0.68016 0.0
O154 O 0.76805 0.08698 0.77536 0.0
Cd155 Cd 0.77424 0.08289 0.72699 0.0
Cd156 Cd 0.73881 0.06371 0.72075 0.0
O157 O 0.74033 0.07104 0.77239 0.0
O158 O 0.79902 0.09859 0.72701 0.0
O159 O 0.78186 0.10069 0.68981 0.0
C160 C 0.79695 0.1065 0.70172 0.0
C161 C 0.71743 0.06163 0.68342 0.0
C162 C 0.75367 0.08042 0.78964 0.0
C163 C 0.75909 0.04583 0.71624 0.0
O164 O 0.74493 0.04512 0.71351 0.0
O165 O 0.77251 0.05975 0.72163 0.0
O166 O 0.71404 0.05195 0.70993 0.0
O167 O 0.73297 0.0731 0.67866 0.0
O168 O 0.0025 0.41133 0.60469 0.0
Cd169 Cd -0.00551 0.41211 0.55557 0.0
Cd170 Cd 0.00241 0.38604 0.54705 0.0
O171 O 0.00526 0.38874 0.60085 0.0
O172 O 0.98778 0.42943 0.5641 0.0
O173 O 0.00626 0.43268 0.52421 0.0
C174 C -0.00218 0.43849 0.53994 0.0
C175 C 0.02173 0.38386 0.50981 0.0
C176 C 0.00466 0.40006 0.61903 0.0
C177 C 0.96645 0.37709 0.53675 0.0
O178 O 0.97736 0.37247 0.5331 0.0
O179 O 0.97091 0.39215 0.54523 0.0
O180 O 0.01255 0.37206 0.53142 0.0
O181 O 0.02047 0.39731 0.51016 0.0
O182 O 0.56666 0.58441 0.61961 0.0
Cd183 Cd 0.56706 0.5743 0.57258 0.0
Cd184 Cd 0.59249 0.60673 0.56023 0.0
O185 O 0.58926 0.60945 0.61262 0.0
O186 O 0.54803 0.55082 0.57844 0.0
O187 O 0.5488 0.56738 0.53626 0.0
C188 C 0.54106 0.55291 0.55152 0.0
C189 C 0.59463 0.62659 0.5191 0.0
C190 C 0.57777 0.5985 0.632 0.0
C191 C 0.60176 0.5798 0.55879 0.0
O192 O 0.60642 0.59507 0.55155 0.0
O193 O 0.58669 0.56966 0.56788 0.0
O194 O 0.60626 0.63022 0.54183 0.0
O195 O 0.58144 0.6117 0.52014 0.0
O196 O 0.40855 0.99061 0.60699 0.0
Cd197 Cd 0.41818 0.00126 0.55987 0.0
Cd198 Cd 0.38418 0.99191 0.54926 0.0
O199 O 0.38257 0.98593 0.60167 0.0
O200 O 0.44224 0.00835 0.56863 0.0
O201 O 0.42772 0.99122 0.52602 0.0
C202 C 0.44175 -0.00068 0.54275 0.0
C203 C 0.36455 0.9733 0.50851 0.0
C204 C 0.39429 0.98637 0.62016 0.0
C205 C 0.40982 0.02873 0.54565 0.0
O206 O 0.39455 0.01744 0.54044 0.0
O207 O 0.4208 0.02472 0.55355 0.0
O208 O 0.36041 0.98075 0.5316 0.0
O209 O 0.37984 0.97607 0.50893 0.0
O210 O 0.73882 0.65008 0.57268 0.0
Cd211 Cd 0.74108 0.64478 0.62308 0.0
Cd212 Cd 0.72282 0.66142 0.63189 0.0
O213 O 0.72915 0.66767 0.57998 0.0
O214 O 0.75819 0.63753 0.6201 0.0
O215 O 0.76202 0.65956 0.65085 0.0
C216 C 0.76778 0.6501 0.63973 0.0
C217 C 0.7209 0.68043 0.67032 0.0
C218 C 0.73421 0.65996 0.56024 0.0
C219 C 0.70601 0.6232 0.64391 0.0
O220 O 0.70483 0.63641 0.64042 0.0
O221 O 0.72009 0.62384 0.64088 0.0
O222 O 0.71068 0.67381 0.64467 0.0
O223 O 0.73279 0.67685 0.67357 0.0
O224 O 0.33791 0.09713 0.56893 0.0
Cd225 Cd 0.34608 0.1044 0.61842 0.0
Cd226 Cd 0.33228 0.0696 0.62605 0.0
O227 O 0.32753 0.06962 0.57331 0.0
O228 O 0.35382 0.12888 0.61497 0.0
O229 O 0.33366 0.11183 0.65066 0.0
C230 C 0.34267 0.12673 0.63766 0.0
C231 C 0.31275 0.04891 0.66397 0.0
C232 C 0.33137 0.08264 0.55506 0.0
C233 C 0.36993 0.09215 0.63502 0.0
O234 O 0.35714 0.07739 0.63645 0.0
O235 O 0.36828 0.10488 0.6289 0.0
O236 O 0.31991 0.04517 0.63961 0.0
O237 O 0.31612 0.06438 0.66614 0.0
O238 O 0.92278 0.24804 0.56762 0.0
Cd239 Cd 0.91401 0.24666 0.61687 0.0
Cd240 Cd 0.9467 0.27326 0.62594 0.0
O241 O 0.9476 0.27121 0.57208 0.0
O242 O 0.89059 0.22771 0.60965 0.0
O243 O 0.9076 0.22659 0.64844 0.0
C244 C 0.89307 0.21941 0.63343 0.0
C245 C 0.96772 0.27536 0.66438 0.0
C246 C 0.93602 0.25972 0.55358 0.0
C247 C 0.91864 0.28063 0.63603 0.0
O248 O 0.93429 0.28592 0.63988 0.0
O249 O 0.9086 0.26545 0.62728 0.0
O250 O 0.97046 0.28739 0.64328 0.0
O251 O 0.95317 0.26173 0.6628 0.0
O252 O 0.32943 0.2368 0.05564 0.0
Cd253 Cd 0.33807 0.23769 0.10466 0.0
Cd254 Cd 0.32517 0.25865 0.11455 0.0
O255 O 0.32103 0.25543 0.0614 0.0
O256 O 0.34578 0.22105 0.10019 0.0
O257 O 0.32629 0.21809 0.13761 0.0
C258 C 0.33524 0.21228 0.12401 0.0
C259 C 0.30491 0.25707 0.15376 0.0
C260 C 0.32389 0.24576 0.04245 0.0
C261 C 0.3624 0.27341 0.12412 0.0
O262 O 0.34978 0.27553 0.12731 0.0
O263 O 0.36047 0.25921 0.11514 0.0
O264 O 0.31188 0.26913 0.1315 0.0
O265 O 0.3089 0.24538 0.15289 0.0
O266 O 0.75955 0.08838 0.06017 0.0
Cd267 Cd 0.75171 0.09164 0.1081 0.0
Cd268 Cd 0.73857 0.0579 0.10651 0.0
O269 O 0.75295 0.06167 0.06289 0.0
O270 O 0.76353 0.11665 0.11109 0.0
O271 O 0.76749 0.10095 0.14903 0.0
C272 C 0.77103 0.11574 0.13841 0.0
C273 C 0.73604 0.04081 0.15393 0.0
C274 C 0.75914 0.07555 0.04643 0.0
C275 C 0.71528 0.07193 0.0985 0.0
O276 O 0.71763 0.05948 0.09452 0.0
O277 O 0.72706 0.08604 0.10913 0.0
O278 O 0.73008 0.0344 0.12391 0.0
O279 O 0.74429 0.05709 0.15664 0.0
O280 O 0.89993 0.65986 0.06391 0.0
Cd281 Cd 0.89618 0.65537 0.11589 0.0
Cd282 Cd 0.92898 0.67888 0.11644 0.0
O283 O 0.92492 0.68299 0.06487 0.0
O284 O 0.87153 0.64485 0.12234 0.0
O285 O 0.89011 0.66914 0.14652 0.0
C286 C 0.87458 0.65766 0.14136 0.0
C287 C 0.94647 0.69883 0.15775 0.0
C288 C 0.91216 0.6719 0.04804 0.0
C289 C 0.91784 0.64205 0.13194 0.0
O290 O 0.92932 0.65685 0.12379 0.0
O291 O 0.90258 0.63839 0.13368 0.0
O292 O 0.95256 0.69628 0.12979 0.0
O293 O 0.93024 0.69135 0.16058 0.0
O294 O 0.56717 0.99383 0.13153 0.0
Cd295 Cd 0.56674 0.00094 0.08162 0.0
Cd296 Cd 0.58499 0.98391 0.0719 0.0
O297 O 0.58196 0.98092 0.12555 0.0
O298 O 0.55026 0.00895 0.08317 0.0
O299 O 0.54714 0.98799 0.04953 0.0
C300 C 0.54159 -0.00229 0.06021 0.0
C301 C 0.58514 0.96385 0.03406 0.0
C302 C 0.5744 0.9864 0.1447 0.0
C303 C 0.60123 0.02145 0.05484 0.0
O304 O 0.60183 0.00789 0.05553 0.0
O305 O 0.5883 0.02182 0.06509 0.0
O306 O 0.59646 0.97108 0.05771 0.0
O307 O 0.57285 0.96696 0.03356 0.0
O308 O 0.0034 0.57202 0.12283 0.0
Cd309 Cd -0.00479 0.56776 0.07248 0.0
Cd310 Cd 0.01656 0.60233 0.06964 0.0
O311 O 0.02059 0.59964 0.12187 0.0
O312 O 0.98193 0.54274 0.07108 0.0
O313 O 0.00341 0.55771 0.03618 0.0
C314 C 0.9914 0.54315 0.04613 0.0
C315 C 0.03661 0.61961 0.02838 0.0
C316 C 0.01305 0.58576 0.13848 0.0
C317 C 0.97917 0.58837 0.05959 0.0
O318 O -0.00607 0.60107 0.06149 0.0
O319 O 0.97676 0.57353 0.06233 0.0
O320 O 0.03325 0.62593 0.05497 0.0
O321 O 0.0297 0.60336 0.02678 0.0
O322 O 0.41353 0.42116 0.10444 0.0
Cd323 Cd 0.42168 0.4174 0.05785 0.0
Cd324 Cd 0.38742 0.39513 0.04924 0.0
O325 O 0.38678 0.40132 0.10087 0.0
O326 O 0.44619 0.43348 0.06295 0.0
O327 O 0.43107 0.43526 0.0205 0.0
C328 C 0.44548 0.44111 0.03569 0.0
C329 C 0.36839 0.39484 0.00815 0.0
C330 C 0.39913 0.41252 0.11827 0.0
C331 C 0.41036 0.38067 0.04761 0.0
O332 O 0.39551 0.37798 0.04227 0.0
O333 O 0.42231 0.39538 0.05459 0.0
O334 O 0.36353 0.3838 0.03258 0.0
O335 O 0.38409 0.40646 0.00745 0.0
O336 O 0.65342 0.75099 0.94345 0.0
Cd337 Cd 0.64319 0.74836 0.89526 0.0
Cd338 Cd 0.65564 0.72605 0.88815 0.0
O339 O 0.66145 0.73195 0.94026 0.0
O340 O 0.63532 0.76498 0.89877 0.0
O341 O 0.65334 0.7667 0.85895 0.0
C342 C 0.6447 0.77281 0.87274 0.0
C343 C 0.67451 0.72391 0.84996 0.0
C344 C 0.65926 0.7425 0.95775 0.0
C345 C 0.61809 0.71192 0.88292 0.0
O346 O 0.63043 0.70936 0.87943 0.0
O347 O 0.62052 0.72656 0.88936 0.0
O348 O 0.66732 0.7133 0.87479 0.0
O349 O 0.67145 0.7362 0.8473 0.0
O350 O 0.23456 0.91458 0.94283 0.0
Cd351 Cd 0.23719 0.90543 0.89636 0.0
Cd352 Cd 0.26174 0.94023 0.88778 0.0
O353 O 0.25608 0.94063 0.93992 0.0
O354 O 0.22086 0.8811 0.90399 0.0
O355 O 0.21873 0.89523 0.86004 0.0
C356 C 0.21303 0.88115 0.87649 0.0
C357 C 0.26535 0.96168 0.84916 0.0
C358 C 0.2443 0.92868 0.9571 0.0
C359 C 0.27335 0.91487 0.88412 0.0
O360 O 0.27696 0.93002 0.87877 0.0
O361 O 0.25853 0.90363 0.8923 0.0
O362 O 0.27579 0.96455 0.8741 0.0
O363 O 0.25239 0.9467 0.84672 0.0
O364 O 0.0981 0.34095 0.94683 0.0
Cd365 Cd 0.09479 0.34767 0.89813 0.0
Cd366 Cd 0.06562 0.32109 0.9089 0.0
O367 O 0.07697 0.31477 0.94836 0.0
O368 O 0.11814 0.36217 0.88087 0.0
O369 O 0.09987 0.33764 0.8572 0.0
C370 C 0.11498 0.35045 0.85856 0.0
C371 C 0.04921 0.30554 0.86133 0.0
C372 C 0.09008 0.32687 0.96235 0.0
C373 C 0.06948 0.35562 0.9163 0.0
O374 O 0.06153 0.34012 0.92473 0.0
O375 O 0.08282 0.3615 0.89826 0.0
O376 O 0.04331 0.30199 0.89249 0.0
O377 O 0.06486 0.31699 0.85758 0.0
O378 O 0.41497 -0.0 0.88873 0.0
Cd379 Cd 0.41392 0.99063 0.93725 0.0
Cd380 Cd 0.39166 0.00161 0.94804 0.0
O381 O 0.39474 0.00619 0.89489 0.0
O382 O 0.43168 0.98434 0.93451 0.0
O383 O 0.43202 0.00216 0.97351 0.0
C384 C 0.43886 0.99399 0.96069 0.0
C385 C 0.39259 0.02131 0.9882 0.0
C386 C 0.40515 0.00455 0.87573 0.0
C387 C 0.3788 0.96457 0.95583 0.0
O388 O 0.3759 0.97663 0.96064 0.0
O389 O 0.39313 0.96745 0.94556 0.0
O390 O 0.38034 0.01386 0.96647 0.0
O391 O 0.40481 0.01813 0.98622 0.0
O392 O 0.97153 0.40419 0.87684 0.0
Cd393 Cd 0.9767 0.41197 0.92727 0.0
Cd394 Cd 0.96087 0.37714 0.93691 0.0
O395 O 0.95966 0.37653 0.88267 0.0
O396 O 0.98651 0.43668 0.92155 0.0
O397 O 0.96451 0.42133 0.9549 0.0
C398 C 0.97542 0.43594 0.94289 0.0
C399 C 0.9398 0.36028 0.97676 0.0
C400 C 0.96541 0.38959 0.86347 0.0
C401 C -0.00273 0.39846 0.95822 0.0
O402 O 0.98425 0.38392 0.95602 0.0
O403 O -0.003 0.41147 0.94801 0.0
O404 O 0.94612 0.35387 0.95591 0.0
O405 O 0.94427 0.376 0.9727 0.0
O406 O 0.57869 0.57626 0.89677 0.0
Cd407 Cd 0.56928 0.57507 0.94526 0.0
Cd408 Cd 0.60237 0.60047 0.95627 0.0
O409 O 0.60423 0.59821 0.90303 0.0
O410 O 0.54566 0.55714 0.93623 0.0
O411 O 0.56129 0.55473 0.97663 0.0
C412 C 0.54706 0.54839 0.96057 0.0
C413 C 0.62243 0.60151 0.9955 0.0
C414 C 0.59264 0.58723 0.88378 0.0
C415 C 0.57531 0.60937 0.96578 0.0
O416 O 0.59084 0.61408 0.96947 0.0
O417 O 0.56488 0.59444 0.95622 0.0
O418 O 0.626 0.61367 0.97416 0.0
O419 O 0.60753 0.58835 0.99385 0.0
O420 O 0.99145 0.56809 0.4058 0.0
Cd421 Cd 0.0009 0.57032 0.4547 0.0
Cd422 Cd 0.98723 0.59232 0.4608 0.0
O423 O 0.98303 0.5869 0.40787 0.0
O424 O 0.01021 0.55485 0.45002 0.0
O425 O 0.99117 0.55102 0.48919 0.0
C426 C 0.00068 0.54602 0.47506 0.0
C427 C 0.96786 0.59457 0.49783 0.0
C428 C 0.98591 0.57668 0.39076 0.0
C429 C 0.0248 0.60709 0.46883 0.0
O430 O 0.01213 0.60917 0.47149 0.0
O431 O 0.02294 0.59266 0.46232 0.0
O432 O 0.97527 0.60506 0.4729 0.0
O433 O 0.97077 0.5822 0.5009 0.0
O434 O 0.41307 0.42586 0.38921 0.0
Cd435 Cd 0.40987 0.43237 0.43805 0.0
Cd436 Cd 0.39281 0.39771 0.44666 0.0
O437 O 0.39867 0.39812 0.39444 0.0
O438 O 0.42554 0.45718 0.43874 0.0
O439 O 0.42784 0.43966 0.47468 0.0
C440 C 0.4335 0.45488 0.46365 0.0
C441 C 0.39404 0.37869 0.48591 0.0
C442 C 0.4069 0.41127 0.37591 0.0
C443 C 0.37324 0.41619 0.4531 0.0
O444 O 0.37342 0.40244 0.45583 0.0
O445 O 0.38659 0.4299 0.44601 0.0
O446 O 0.38318 0.37359 0.46112 0.0
O447 O 0.40485 0.39464 0.48765 0.0
O448 O 0.57705 0.00069 0.41399 0.0
Cd449 Cd 0.56781 0.99052 0.46161 0.0
Cd450 Cd 0.6029 0.00019 0.47004 0.0
O451 O 0.60318 0.00554 0.41749 0.0
O452 O 0.54368 0.98327 0.45315 0.0
O453 O 0.55836 0.00086 0.495 0.0
C454 C 0.54426 0.99255 0.47861 0.0
C455 C 0.62551 0.01796 0.50677 0.0
C456 C 0.59112 0.00489 0.39988 0.0
C457 C 0.5764 0.96337 0.47673 0.0
O458 O 0.59176 0.97475 0.48044 0.0
O459 O 0.56524 0.96716 0.46899 0.0
O460 O 0.62727 0.00942 0.48227 0.0
O461 O 0.61097 0.01689 0.50996 0.0
O462 O 0.23105 0.30693 0.44881 0.0
Cd463 Cd 0.23041 0.317 0.40205 0.0
Cd464 Cd 0.25601 0.30911 0.38914 0.0
O465 O 0.25299 0.30339 0.44163 0.0
O466 O 0.21262 0.32276 0.41258 0.0
O467 O 0.20994 0.30526 0.37069 0.0
C468 C 0.20366 0.31284 0.38808 0.0
C469 C 0.25833 0.2915 0.34804 0.0
C470 C 0.24171 0.30329 0.46096 0.0
C471 C 0.26525 0.34545 0.38443 0.0
O472 O 0.26976 0.33457 0.37918 0.0
O473 O 0.25031 0.34098 0.39379 0.0
O474 O 0.2699 0.29954 0.37087 0.0
O475 O 0.24502 0.29295 0.34917 0.0
O476 O 0.66799 0.92018 0.45437 0.0
Cd477 Cd 0.65837 0.91051 0.40658 0.0
Cd478 Cd 0.66595 0.94317 0.39487 0.0
O479 O 0.67061 0.94533 0.44801 0.0
O480 O 0.65325 0.88689 0.41343 0.0
O481 O 0.66979 0.90306 0.37162 0.0
C482 C 0.66248 0.88862 0.38703 0.0
C483 C 0.68489 0.96287 0.35488 0.0
C484 C 0.67075 0.93411 0.46724 0.0
C485 C 0.62978 0.91636 0.38886 0.0
O486 O 0.64065 0.9317 0.38286 0.0
O487 O 0.63436 0.90611 0.3991 0.0
O488 O 0.67645 0.96668 0.37609 0.0
O489 O 0.68299 0.94791 0.35699 0.0
O490 O 0.06962 0.74866 0.45122 0.0
Cd491 Cd 0.07669 0.74727 0.4017 0.0
Cd492 Cd 0.04337 0.72379 0.39538 0.0
O493 O 0.04359 0.7272 0.44893 0.0
O494 O 0.10096 0.76455 0.40469 0.0
O495 O 0.08387 0.76608 0.36658 0.0
C496 C 0.09882 0.77241 0.37945 0.0
C497 C 0.02424 0.72527 0.35693 0.0
C498 C 0.05602 0.73831 0.46635 0.0
C499 C 0.06771 0.71165 0.38497 0.0
O500 O 0.05246 0.70805 0.38171 0.0
O501 O 0.07907 0.72646 0.39312 0.0
O502 O 0.01949 0.71295 0.37849 0.0
O503 O 0.03982 0.73722 0.35808 0.0
H504 H 0.22399 0.95376 0.26019 0.0
H505 H 0.31023 0.02987 0.29966 0.0
H506 H 0.25053 0.96042 0.35617 0.0
H507 H 0.27819 0.0333 0.22209 0.0
H508 H 0.28587 0.00612 0.32543 0.0
H509 H 0.23902 0.98435 0.25222 0.0
C510 C 0.23223 0.96174 0.28063 0.0
C511 C 0.23654 0.95472 0.30831 0.0
C512 C 0.28399 0.01205 0.30293 0.0
C513 C 0.25403 0.98937 0.29894 0.0
C514 C 0.298 0.02544 0.28779 0.0
C515 C 0.29624 0.03315 0.25806 0.0
C516 C 0.26806 0.00589 0.2877 0.0
C517 C 0.28003 0.02735 0.24458 0.0
C518 C 0.24099 0.97921 0.27586 0.0
C519 C 0.24724 0.96547 0.33406 0.0
N520 N 0.26653 0.01373 0.25905 0.0
N521 N 0.25605 0.98231 0.32826 0.0
H522 H 0.03169 0.30423 0.20606 0.0
H523 H 0.93739 0.23647 0.24903 0.0
H524 H 0.01719 0.27058 0.29365 0.0
H525 H 0.95335 0.27576 0.17234 0.0
H526 H 0.96643 0.24213 0.25336 0.0
H527 H 0.0035 0.28761 0.18247 0.0
C528 C 0.02249 0.29331 0.2204 0.0
C529 C 0.02653 0.28906 0.25243 0.0
C530 C 0.96346 0.24913 0.23481 0.0
C531 C -0.00587 0.26999 0.22557 0.0
C532 C 0.94688 0.2458 0.23206 0.0
C533 C 0.94318 0.25598 0.21087 0.0
C534 C 0.9762 0.26262 0.21605 0.0
C535 C 0.95584 0.2679 0.18949 0.0
C536 C 0.00643 0.28372 0.20673 0.0
C537 C 0.01438 0.27444 0.26923 0.0
N538 N 0.97188 0.2711 0.19308 0.0
N539 N -0.00149 0.26558 0.25595 0.0
H540 H 0.72569 0.70824 0.17707 0.0
H541 H 0.71019 0.76998 0.23041 0.0
H542 H 0.76329 0.72514 0.25758 0.0
H543 H 0.70597 0.7403 0.32052 0.0
H544 H 0.73188 0.76445 0.20734 0.0
H545 H 0.72065 0.73142 0.19158 0.0
C546 C 0.73336 0.71728 0.19677 0.0
C547 C 0.74484 0.71486 0.21627 0.0
C548 C 0.72672 0.75985 0.23286 0.0
C549 C 0.73875 0.74075 0.23375 0.0
C550 C 0.71443 0.76303 0.24615 0.0
C551 C 0.70613 0.75528 0.2771 0.0
C552 C 0.73087 0.74924 0.25117 0.0
C553 C 0.71195 0.74627 0.29634 0.0
C554 C 0.73055 0.7305 0.20497 0.0
C555 C 0.75436 0.72671 0.24193 0.0
N556 N 0.72385 0.74326 0.28276 0.0
N557 N 0.75057 0.73877 0.25103 0.0
H558 H 0.71093 0.94093 0.75845 0.0
H559 H 0.74359 0.0167 0.67869 0.0
H560 H 0.70528 0.97372 0.83084 0.0
H561 H 0.77254 0.03881 0.7714 0.0
H562 H 0.73345 0.98863 0.70341 0.0
H563 H 0.73684 0.96519 0.73687 0.0
C564 C 0.71552 0.95307 0.77092 0.0
C565 C 0.70574 0.95546 0.7959 0.0
C566 C 0.74268 -0.0004 0.71765 0.0
C567 C 0.73533 0.98295 0.77164 0.0
C568 C 0.74846 0.01557 0.7035 0.0
C569 C 0.75885 0.02996 0.72312 0.0
C570 C 0.74676 -0.00181 0.75208 0.0
C571 C 0.76458 0.02793 0.75548 0.0
C572 C 0.73026 0.96686 0.75844 0.0
C573 C 0.71229 0.97144 0.81109 0.0
N574 N 0.75783 0.01231 0.76971 0.0
N575 N 0.72659 0.9847 0.79829 0.0
H576 H 0.05004 0.76269 0.76269 0.0
H577 H 0.9543 0.72458 0.74031 0.0
H578 H 0.02076 0.7168 0.82101 0.0
H579 H 0.97492 0.69811 0.68486 0.0
H580 H 0.98197 0.74239 0.7676 0.0
H581 H 0.02392 0.75904 0.73716 0.0
C582 C 0.03811 0.75231 0.7715 0.0
C583 C 0.03755 0.73974 0.79337 0.0
C584 C 0.98052 0.7332 0.74821 0.0
C585 C 0.00801 0.73579 0.76462 0.0
C586 C 0.96487 0.72316 0.73239 0.0
C587 C 0.96241 0.70981 0.71057 0.0
C588 C 0.99357 0.72987 0.74146 0.0
C589 C 0.97635 0.70822 0.70168 0.0
C590 C 0.02328 0.75028 0.75677 0.0
C591 C 0.02176 0.72659 0.80377 0.0
N592 N 0.99129 0.71788 0.71787 0.0
N593 N 0.00759 0.72468 0.78848 0.0
H594 H 0.27341 0.24548 0.70974 0.0
H595 H 0.25173 0.29185 0.85625 0.0
H596 H 0.30628 0.28009 0.78779 0.0
H597 H 0.22328 0.2747 0.76155 0.0
H598 H 0.26378 0.2739 0.84442 0.0
H599 H 0.24926 0.24548 0.73839 0.0
C600 C 0.2755 0.25301 0.73282 0.0
C601 C 0.29186 0.26328 0.74577 0.0
C602 C 0.25439 0.27353 0.82681 0.0
C603 C 0.26454 0.26253 0.77943 0.0
C604 C 0.24731 0.28356 0.83392 0.0
C605 C 0.23698 0.28509 0.80926 0.0
C606 C 0.25147 0.26555 0.79438 0.0
C607 C 0.23153 0.27406 0.78081 0.0
C608 C 0.26177 0.25283 0.74932 0.0
C609 C 0.29395 0.27247 0.7762 0.0
N610 N 0.23945 0.26525 0.77319 0.0
N611 N 0.2805 0.27189 0.79186 0.0
H612 H 0.94353 0.3783 0.57971 0.0
H613 H 0.93006 0.31092 0.66907 0.0
H614 H 0.94935 0.34555 0.50758 0.0
H615 H 0.89638 0.27955 0.58837 0.0
H616 H 0.93132 0.33555 0.64162 0.0
H617 H 0.9209 0.35351 0.60837 0.0
C618 C 0.93947 0.36597 0.56866 0.0
C619 C 0.94872 0.36389 0.54195 0.0
C620 C 0.92295 0.32316 0.63086 0.0
C621 C 0.92285 0.33573 0.57441 0.0
C622 C 0.92226 0.30911 0.64658 0.0
C623 C 0.91341 0.29328 0.63056 0.0
C624 C 0.91533 0.32134 0.59834 0.0
C625 C 0.90355 0.29161 0.60132 0.0
C626 C 0.9266 0.35185 0.58524 0.0
C627 C 0.94282 0.34764 0.52866 0.0
N628 N 0.90545 0.30561 0.58508 0.0
N629 N 0.93046 0.33409 0.54558 0.0
H630 H 0.60128 0.55865 0.6087 0.0
H631 H 0.67698 0.61209 0.68073 0.0
H632 H 0.63226 0.59156 0.52673 0.0
H633 H 0.69952 0.59826 0.59852 0.0
H634 H 0.64905 0.59102 0.65953 0.0
H635 H 0.62642 0.5604 0.635 0.0
C636 C 0.61321 0.56555 0.59525 0.0
C637 C 0.61483 0.57532 0.56589 0.0
C638 C 0.66013 0.59201 0.64716 0.0
C639 C 0.64331 0.5771 0.59559 0.0
C640 C 0.67602 0.60402 0.65928 0.0
C641 C 0.69044 0.60684 0.64127 0.0
C642 C 0.65881 0.58347 0.61606 0.0
C643 C 0.68861 0.59633 0.61315 0.0
C644 C 0.62751 0.56657 0.61044 0.0
C645 C 0.63058 0.58409 0.54968 0.0
N646 N 0.67302 0.5856 0.60036 0.0
N647 N 0.64433 0.58502 0.56512 0.0
H648 H 0.38379 0.07643 0.67105 0.0
H649 H 0.39621 0.04573 0.51317 0.0
H650 H 0.39235 0.10945 0.58445 0.0
H651 H 0.43171 0.05106 0.59252 0.0
H652 H 0.39611 0.07058 0.53654 0.0
H653 H 0.40349 0.06873 0.64565 0.0
C654 C 0.39047 0.08268 0.64759 0.0
C655 C 0.38639 0.09344 0.62962 0.0
C656 C 0.40444 0.06669 0.54793 0.0
C657 C 0.40805 0.08407 0.59973 0.0
C658 C 0.40445 0.05251 0.53467 0.0
C659 C 0.4138 0.04626 0.55121 0.0
C660 C 0.41328 0.07411 0.57865 0.0
C661 C 0.42425 0.05546 0.57911 0.0
C662 C 0.40165 0.07826 0.63302 0.0
C663 C 0.39519 0.10106 0.59903 0.0
N664 N 0.42319 0.06855 0.5929 0.0
N665 N 0.40506 0.09564 0.58414 0.0
H666 H 0.43096 0.37827 0.095 0.0
H667 H 0.37608 0.30167 0.16457 0.0
H668 H 0.39472 0.35 0.01513 0.0
H669 H 0.38576 0.27976 0.07486 0.0
H670 H 0.39759 0.32967 0.14466 0.0
H671 H 0.42781 0.35184 0.11776 0.0
C672 C 0.42292 0.3666 0.0813 0.0
C673 C 0.4128 0.36618 0.05353 0.0
C674 C 0.39558 0.31865 0.13023 0.0
C675 C 0.40948 0.33628 0.07903 0.0
C676 C 0.38332 0.30272 0.14159 0.0
C677 C 0.37912 0.28851 0.12115 0.0
C678 C 0.40303 0.32028 0.09764 0.0
C679 C 0.38867 0.29048 0.0913 0.0
C680 C 0.42114 0.3516 0.09441 0.0
C681 C 0.40252 0.35076 0.0369 0.0
N682 N 0.39967 0.3062 0.07952 0.0
N683 N 0.40094 0.33633 0.05022 0.0
H684 H 0.61537 0.05047 0.09248 0.0
H685 H 0.70056 0.05785 0.03807 0.0
H686 H 0.62296 0.02741 1.0022 0.0
H687 H 0.69563 0.0839 0.12634 0.0
H688 H 0.67409 0.05381 0.01535 0.0
H689 H 0.64575 0.07029 0.09496 0.0
C690 C 0.62337 0.05015 0.07219 0.0
C691 C 0.61691 0.03712 0.04762 0.0
C692 C 0.67875 0.06055 0.03957 0.0
C693 C 0.65139 0.05925 0.05073 0.0
C694 C 0.69377 0.06267 0.05271 0.0
C695 C 0.69983 0.07065 0.08464 0.0
C696 C 0.66937 0.06591 0.05912 0.0
C697 C 0.69103 0.07729 0.10199 0.0
C698 C 0.64072 0.06134 0.07381 0.0
C699 C 0.62764 0.03712 0.02196 0.0
N700 N 0.67591 0.07437 0.08943 0.0
N701 N 0.64445 0.04778 0.02462 0.0
H702 H 0.94714 0.64491 0.15374 0.0
H703 H 0.94725 0.56688 0.08377 0.0
H704 H 0.89903 0.60953 0.1088 0.0
H705 H 0.97884 0.6169 0.04221 0.0
H706 H 0.92804 0.57606 0.10661 0.0
H707 H 0.95851 0.62736 0.13333 0.0
C708 C 0.93881 0.6331 0.14074 0.0
C709 C 0.92228 0.62875 0.13229 0.0
C710 C 0.93895 0.58475 0.0916 0.0
C711 C 0.9352 0.60901 0.10859 0.0
C712 C 0.94982 0.57956 0.07832 0.0
C713 C 0.96486 0.59133 0.06184 0.0
C714 C 0.94343 0.60171 0.08839 0.0
C715 C 0.9676 0.60756 0.05545 0.0
C716 C 0.94532 0.62323 0.1289 0.0
C717 C 0.91191 0.61328 0.11555 0.0
N718 N 0.95721 0.61243 0.06958 0.0
N719 N 0.91869 0.60404 0.1033 0.0
H720 H 0.58732 0.63848 1.00339 0.0
H721 H 0.59548 0.7088 0.9318 0.0
H722 H 0.55316 0.61025 0.92054 0.0
H723 H 0.60326 0.68145 0.84974 0.0
H724 H 0.57474 0.68193 0.95784 0.0
H725 H 0.58759 0.66388 0.98289 0.0
C726 C 0.57929 0.63749 0.98187 0.0
C727 C 0.57045 0.62239 0.96326 0.0
C728 C 0.58041 0.6819 0.93325 0.0
C729 C 0.57116 0.65132 0.93906 0.0
C730 C 0.59216 0.69718 0.91822 0.0
C731 C 0.60132 0.69722 0.88903 0.0
C732 C 0.57769 0.66677 0.91841 0.0
C733 C 0.59664 0.68186 0.87259 0.0
C734 C 0.57937 0.65195 0.97022 0.0
C735 C 0.56027 0.62174 0.93542 0.0
N736 N 0.58531 0.66716 0.8879 0.0
N737 N 0.56153 0.63621 0.92309 0.0
H738 H 0.35093 0.94972 0.99715 0.0
H739 H 0.27542 0.89419 0.93183 0.0
H740 H 0.37357 0.94097 0.90755 0.0
H741 H 0.30302 0.92824 0.84846 0.0
H742 H 0.30181 0.89695 0.95358 0.0
H743 H 0.32351 0.92658 0.97876 0.0
C744 C 0.35022 0.9424 0.97448 0.0
C745 C 0.36437 0.94735 0.95351 0.0
C746 C 0.30189 0.90316 0.92968 0.0
C747 C 0.33318 0.92147 0.93175 0.0
C748 C 0.28689 0.90159 0.91714 0.0
C749 C 0.28723 0.91138 0.88882 0.0
C750 C 0.31708 0.91433 0.91327 0.0
C751 C 0.30236 0.92079 0.87079 0.0
C752 C 0.3346 0.92916 0.96403 0.0
C753 C 0.36285 0.93757 0.92426 0.0
N754 N 0.31681 0.92226 0.88369 0.0
N755 N 0.34735 0.92556 0.91328 0.0
H756 H 0.05341 0.35146 0.97706 0.0
H757 H 0.02822 0.41982 0.93101 0.0
H758 H 0.07377 0.38555 0.89038 0.0
H759 H 0.00259 0.37917 1.00409 0.0
H760 H 0.05188 0.4145 0.93025 0.0
H761 H 0.04196 0.3683 1.00023 0.0
C762 C 0.05545 0.36254 0.96287 0.0
C763 C 0.06398 0.36682 0.93112 0.0
C764 C 0.04132 0.40712 0.94729 0.0
C765 C 0.05082 0.38612 0.95745 0.0
C766 C 0.02789 0.41022 0.94796 0.0
C767 C 0.01334 0.39956 0.96695 0.0
C768 C 0.04004 0.39335 0.96588 0.0
C769 C 0.01348 0.38737 0.9885 0.0
C770 C 0.04906 0.37224 0.9763 0.0
C771 C 0.06688 0.38164 0.91453 0.0
N772 N 0.02651 0.38438 0.98689 0.0
N773 N 0.05993 0.3906 0.92751 0.0
H774 H 0.05348 0.6817 0.34967 0.0
H775 H 0.04764 0.61125 0.41969 0.0
H776 H 0.08926 0.70978 0.43034 0.0
H777 H 0.03868 0.63738 0.50259 0.0
H778 H 0.06733 0.63851 0.39354 0.0
H779 H 0.05248 0.65595 0.37052 0.0
C780 C 0.06164 0.68254 0.37082 0.0
C781 C 0.07132 0.69777 0.38853 0.0
C782 C 0.06167 0.6382 0.41833 0.0
C783 C 0.06983 0.66851 0.41306 0.0
C784 C 0.05053 0.62272 0.43346 0.0
C785 C 0.04132 0.62217 0.46298 0.0
C786 C 0.06377 0.65305 0.43346 0.0
C787 C 0.0454 0.63735 0.47957 0.0
C788 C 0.06114 0.6679 0.38263 0.0
C789 C 0.08159 0.69822 0.41603 0.0
N790 N 0.05616 0.65226 0.46419 0.0
N791 N 0.08001 0.68363 0.42849 0.0
H792 H 0.2934 0.36311 0.34469 0.0
H793 H 0.34551 0.39897 0.4939 0.0
H794 H 0.26752 0.3676 0.4337 0.0
H795 H 0.3635 0.42969 0.40211 0.0
H796 H 0.31649 0.38869 0.47473 0.0
H797 H 0.31901 0.38877 0.363 0.0
C798 C 0.29296 0.36988 0.36732 0.0
C799 C 0.27845 0.36324 0.38788 0.0
C800 C 0.32679 0.39824 0.45953 0.0
C801 C 0.30766 0.39199 0.40957 0.0
C802 C 0.3433 0.40409 0.47049 0.0
C803 C 0.35679 0.41509 0.44945 0.0
C804 C 0.32392 0.40287 0.42669 0.0
C805 C 0.35335 0.42122 0.41905 0.0
C806 C 0.30752 0.38451 0.37773 0.0
C807 C 0.27851 0.37237 0.41717 0.0
N808 N 0.3372 0.41449 0.40778 0.0
N809 N 0.29312 0.38596 0.42797 0.0
H810 H 0.61237 0.92875 0.3537 0.0
H811 H 0.5893 0.94653 0.51208 0.0
H812 H 0.60725 0.89434 0.43529 0.0
H813 H 0.55591 0.94115 0.42817 0.0
H814 H 0.59237 0.92364 0.48736 0.0
H815 H 0.58815 0.92978 0.37717 0.0
C816 C 0.6057 0.92086 0.37566 0.0
C817 C 0.61204 0.91181 0.39312 0.0
C818 C 0.58374 0.92692 0.4752 0.0
C819 C 0.58491 0.91345 0.42075 0.0
C820 C 0.58201 0.93999 0.48934 0.0
C821 C 0.57264 0.9459 0.47172 0.0
C822 C 0.5767 0.92042 0.44256 0.0
C823 C 0.56344 0.93705 0.44229 0.0
C824 C 0.59185 0.9214 0.38904 0.0
C825 C 0.6029 0.90172 0.4214 0.0
N826 N 0.5663 0.92522 0.42765 0.0
N827 N 0.59022 0.90339 0.43536 0.0
H828 H 0.33331 0.05917 0.51409 0.0
H829 H 0.34601 0.11114 0.33967 0.0
H830 H 0.33095 0.10507 0.50928 0.0
H831 H 0.35899 0.07204 0.34892 0.0
H832 H 0.34002 0.10888 0.4016 0.0
H833 H 0.34049 0.06223 0.45239 0.0
C834 C 0.33386 0.06964 0.49988 0.0
C835 C 0.3315 0.08187 0.51684 0.0
C836 C 0.34443 0.10096 0.39026 0.0
C837 C 0.34015 0.08569 0.44662 0.0
C838 C 0.34805 0.1024 0.35497 0.0
C839 C 0.35306 0.09181 0.33914 0.0
C840 C 0.34558 0.08865 0.40986 0.0
C841 C 0.35533 0.08058 0.36013 0.0
C842 C 0.33825 0.07154 0.46482 0.0
C843 C 0.33268 0.09535 0.49725 0.0
N844 N 0.35132 0.0791 0.39435 0.0
N845 N 0.33699 0.09693 0.46328 0.0
H846 H 0.95345 0.28845 0.51373 0.0
H847 H 0.88717 0.24545 0.36013 0.0
H848 H 0.91684 0.23533 0.50675 0.0
H849 H 0.93273 0.2932 0.34481 0.0
H850 H 0.89662 0.24397 0.41813 0.0
H851 H 0.94615 0.29215 0.45429 0.0
C852 C 0.94426 0.27749 0.49944 0.0
C853 C 0.93568 0.26155 0.51542 0.0
C854 C 0.90455 0.25486 0.40228 0.0
C855 C 0.92688 0.26584 0.44812 0.0
C856 C 0.89905 0.25582 0.36922 0.0
C857 C 0.90919 0.26943 0.34737 0.0
C858 C 0.92036 0.26761 0.41399 0.0
C859 C 0.92446 0.28252 0.3608 0.0
C860 C 0.93995 0.27967 0.46569 0.0
C861 C 0.92371 0.24787 0.49572 0.0
N862 N 0.92967 0.28123 0.39322 0.0
N863 N 0.91953 0.25039 0.46346 0.0
H864 H 0.73918 0.68684 0.51968 0.0
H865 H 0.71301 0.63519 0.34226 0.0
H866 H 0.72627 0.63461 0.51464 0.0
H867 H 0.75312 0.68707 0.34759 0.0
H868 H 0.71117 0.63481 0.40601 0.0
H869 H 0.73782 0.68722 0.45593 0.0
C870 C 0.73597 0.67548 0.50519 0.0
C871 C 0.73309 0.66077 0.52225 0.0
C872 C 0.72028 0.64626 0.39299 0.0
C873 C 0.73103 0.66096 0.45014 0.0
C874 C 0.72132 0.64648 0.35682 0.0
C875 C 0.73339 0.66109 0.33984 0.0
C876 C 0.73104 0.66091 0.41193 0.0
C877 C 0.74383 0.67545 0.35979 0.0
C878 C 0.73521 0.6757 0.46901 0.0
C879 C 0.72887 0.64631 0.50237 0.0
N880 N 0.74237 0.67504 0.39476 0.0
N881 N 0.72789 0.64673 0.46738 0.0
H882 H 0.08964 0.30237 0.17904 0.0
H883 H 0.11447 0.35243 1.00093 0.0
H884 H 0.1044 0.35513 0.17255 0.0
H885 H 0.07562 0.30001 0.00808 0.0
H886 H 0.11812 0.3532 0.06349 0.0
H887 H 0.09195 0.30153 0.11637 0.0
C888 C 0.09369 0.31391 0.16461 0.0
C889 C 0.09666 0.32885 0.18128 0.0
C890 C 0.10898 0.34149 0.05126 0.0
C891 C 0.09941 0.32783 0.10923 0.0
C892 C 0.1069 0.34093 0.01546 0.0
C893 C 0.09453 0.32612 0.99903 0.0
C894 C 0.09888 0.32707 0.07093 0.0
C895 C 0.08523 0.3117 0.01952 0.0
C896 C 0.09489 0.31332 0.12875 0.0
C897 C 0.10192 0.34334 0.16091 0.0
N898 N 0.08754 0.31256 0.05448 0.0
N899 N 0.10306 0.34245 0.12587 0.0
H900 H 0.64154 0.75927 0.16803 0.0
H901 H 0.6603 0.71921 1.0013 0.0
H902 H 0.64693 0.71509 0.17367 0.0
H903 H 0.65943 0.76596 1.00155 0.0
H904 H 0.65522 0.71691 0.06393 0.0
H905 H 0.64599 0.7603 0.10578 0.0
C906 C 0.64332 0.74956 0.15607 0.0
C907 C 0.64394 0.73713 0.17621 0.0
C908 C 0.65631 0.72774 0.05026 0.0
C909 C 0.64952 0.73849 0.10474 0.0
C910 C 0.65944 0.72918 0.01458 0.0
C911 C 0.66023 0.74278 0.99605 0.0
C912 C 0.65394 0.73995 0.0674 0.0
C913 C 0.65882 0.7552 0.01464 0.0
C914 C 0.64606 0.75026 0.1205 0.0
C915 C 0.64629 0.72487 0.15917 0.0
N916 N 0.6556 0.75341 0.04911 0.0
N917 N 0.64918 0.72596 0.12443 0.0
H918 H 0.22001 0.89271 0.1651 0.0
H919 H 0.26957 0.94982 1.0017 0.0
H920 H 0.27052 0.93525 0.17309 0.0
H921 H 0.21809 0.90879 0.99969 0.0
H922 H 0.27034 0.94584 0.06437 0.0
H923 H 0.21984 0.89848 0.1038 0.0
C924 C 0.2312 0.90316 0.15383 0.0
C925 C 0.2453 0.91352 0.17437 0.0
C926 C 0.25883 0.93787 0.05022 0.0
C927 C 0.24506 0.92047 0.10382 0.0
C928 C 0.25829 0.94029 0.01453 0.0
C929 C 0.24375 0.92957 0.99534 0.0
C930 C 0.24473 0.92465 0.06672 0.0
C931 C 0.2296 0.91728 0.01332 0.0
C932 C 0.23104 0.90655 0.11877 0.0
C933 C 0.25942 0.92686 0.15819 0.0
N934 N 0.23051 0.91508 0.04781 0.0
N935 N 0.25891 0.93004 0.12386 0.0
H936 H 0.64281 0.89707 0.67223 0.0
H937 H 0.66654 0.95685 0.50695 0.0
H938 H 0.65194 0.948 0.68143 0.0
H939 H 0.67349 0.91365 0.51484 0.0
H940 H 0.65918 0.95383 0.56875 0.0
H941 H 0.64995 0.90196 0.61114 0.0
C942 C 0.64601 0.90921 0.66127 0.0
C943 C 0.64691 0.92219 0.68218 0.0
C944 C 0.66254 0.94518 0.55691 0.0
C945 C 0.65549 0.928 0.61198 0.0
C946 C 0.66692 0.947 0.52176 0.0
C947 C 0.67053 0.9354 0.50551 0.0
C948 C 0.66159 0.93159 0.57567 0.0
C949 C 0.67067 0.92281 0.52602 0.0
C950 C 0.65029 0.91206 0.62639 0.0
C951 C 0.65106 0.93763 0.66631 0.0
N952 N 0.66605 0.92112 0.55977 0.0
N953 N 0.65535 0.94018 0.63214 0.0
H954 H 0.07745 0.76265 0.51111 0.0
H955 H 0.05295 0.70194 0.67601 0.0
H956 H 0.03643 0.71114 0.5085 0.0
H957 H 0.09889 0.74988 0.66582 0.0
H958 H 0.04564 0.70466 0.6161 0.0
H959 H 0.08329 0.75859 0.57067 0.0
C960 C 0.06942 0.75056 0.52331 0.0
C961 C 0.05647 0.7372 0.50462 0.0
C962 C 0.05741 0.71446 0.62692 0.0
C963 C 0.06341 0.73229 0.57295 0.0
C964 C 0.06172 0.71281 0.66097 0.0
C965 C 0.07655 0.72574 0.67613 0.0
C966 C 0.06797 0.72917 0.60807 0.0
C967 C 0.08728 0.73963 0.65543 0.0
C968 C 0.0729 0.74818 0.55728 0.0
C969 C 0.04649 0.72182 0.52194 0.0
N970 N 0.08269 0.74104 0.62275 0.0
N971 N 0.05027 0.71972 0.55506 0.0
H972 H 0.21624 0.29343 0.50734 0.0
H973 H 0.27638 0.33421 0.67182 0.0
H974 H 0.26985 0.31287 0.50103 0.0
H975 H 0.22593 0.32614 0.66169 0.0
H976 H 0.2745 0.32403 0.61207 0.0
H977 H 0.2193 0.30082 0.56848 0.0
C978 C 0.22862 0.29887 0.51909 0.0
C979 C 0.24282 0.30267 0.49901 0.0
C980 C 0.26394 0.32463 0.62301 0.0
C981 C 0.24655 0.31173 0.56889 0.0
C982 C 0.26507 0.33063 0.6569 0.0
C983 C 0.25127 0.33099 0.67187 0.0
C984 C 0.24886 0.31886 0.6043 0.0
C985 C 0.23685 0.326 0.65144 0.0
C986 C 0.23041 0.3033 0.55392 0.0
C987 C 0.25856 0.30969 0.51563 0.0
N988 N 0.236 0.32003 0.61896 0.0
N989 N 0.26007 0.31426 0.5496 0.0
H990 H 0.93048 0.69773 1.0016 0.0
H991 H 0.90427 0.63766 0.83585 0.0
H992 H 0.89387 0.64454 0.00702 0.0
H993 H 0.91701 0.68982 0.82887 0.0
H994 H 0.90494 0.6401 0.89945 0.0
H995 H 0.93026 0.69535 0.93804 0.0
C996 C 0.92239 0.68562 0.98949 0.0
C997 C 0.91206 0.67139 0.00965 0.0
C998 C 0.90755 0.65096 0.88381 0.0
C999 C 0.91208 0.66848 0.93743 0.0
C1000 C 0.90717 0.64956 0.84763 0.0
C1001 C 0.91038 0.66347 0.82703 0.0
C1002 C 0.9116 0.66648 0.8993 0.0
C1003 C 0.9142 0.67867 0.84369 0.0
C1004 C 0.92227 0.68425 0.95333 0.0
C1005 C 0.90189 0.65593 0.99256 0.0
N1006 N 0.91482 0.6798 0.87875 0.0
N1007 N 0.90226 0.65486 0.95755 0.0
H1008 H 0.32115 0.22244 0.99519 0.0
H1009 H 0.35456 0.28826 0.83811 0.0
H1010 H 0.32875 0.27282 1.0033 0.0
H1011 H 0.34002 0.23573 0.82814 0.0
H1012 H 0.34788 0.28379 0.9 0.0
H1013 H 0.3289 0.22746 0.93423 0.0
C1014 C 0.3241 0.23445 0.98391 0.0
C1015 C 0.32426 0.24721 1.00434 0.0
C1016 C 0.34638 0.27331 0.88432 0.0
C1017 C 0.3337 0.25327 0.93468 0.0
C1018 C 0.35049 0.27593 0.84914 0.0
C1019 C 0.34783 0.26233 0.82797 0.0
C1020 C 0.33967 0.25702 0.89832 0.0
C1021 C 0.34222 0.24655 0.84352 0.0
C1022 C 0.32871 0.23738 0.94916 0.0
C1023 C 0.32829 0.26257 0.98841 0.0
N1024 N 0.3382 0.2443 0.87764 0.0
N1025 N 0.33305 0.26525 0.95456 0.0
H1026 H 0.72981 0.05751 0.83373 0.0
H1027 H 0.77942 0.10292 0.00644 0.0
H1028 H 0.77698 0.10464 0.83243 0.0
H1029 H 0.74411 0.04945 1.00038 0.0
H1030 H 0.77774 0.10482 0.94352 0.0
H1031 H 0.7327 0.05592 0.89647 0.0
C1032 C 0.74055 0.06774 0.84674 0.0
C1033 C 0.75316 0.08125 0.82783 0.0
C1034 C 0.77057 0.09263 0.95591 0.0
C1035 C 0.75672 0.07931 0.89937 0.0
C1036 C 0.77166 0.0915 0.99175 0.0
C1037 C 0.76195 0.07599 0.00867 0.0
C1038 C 0.75943 0.07821 0.93691 0.0
C1039 C 0.75195 0.06163 0.9884 0.0
C1040 C 0.74234 0.06667 0.88244 0.0
C1041 C 0.76696 0.09399 0.84601 0.0
N1042 N 0.75073 0.06313 0.95363 0.0
N1043 N 0.76839 0.0927 0.88073 0.0
H1044 H -0.0052 0.37171 0.65933 0.0
H1045 H 0.97021 0.41297 0.81469 0.0
H1046 H 0.00848 0.42415 0.66549 0.0
H1047 H 0.96768 0.36487 0.82661 0.0
H1048 H 0.98136 0.41526 0.75665 0.0
H1049 H 0.98387 0.36767 0.7188 0.0
C1050 C -0.00403 0.38248 0.67344 0.0
C1051 C 0.00252 0.3983 0.65722 0.0
C1052 C 0.97828 0.40412 0.77175 0.0
C1053 C 0.98951 0.39358 0.72468 0.0
C1054 C 0.9717 0.4027 0.80485 0.0
C1055 C 0.96804 0.38873 0.82574 0.0
C1056 C 0.98129 0.39148 0.75903 0.0
C1057 C 0.97023 0.37582 0.81137 0.0
C1058 C 0.98951 0.38009 0.70723 0.0
C1059 C 0.00345 0.4117 0.67671 0.0
N1060 N 0.97685 0.37756 0.77894 0.0
N1061 N -0.00316 0.40898 0.70907 0.0
H1062 H 0.61513 0.61437 0.84431 0.0
H1063 H 0.5542 0.57928 0.68021 0.0
H1064 H 0.57167 0.56438 0.83622 0.0
H1065 H 0.60511 0.62099 0.67084 0.0
H1066 H 0.55928 0.57693 0.74121 0.0
H1067 H 0.61157 0.61915 0.78302 0.0
C1068 C 0.60511 0.60427 0.82953 0.0
C1069 C 0.59361 0.58898 0.84558 0.0
C1070 C 0.56932 0.58671 0.72593 0.0
C1071 C 0.58916 0.5946 0.7761 0.0
C1072 C 0.56636 0.5882 0.69113 0.0
C1073 C 0.5793 0.60023 0.67018 0.0
C1074 C 0.58534 0.59734 0.74015 0.0
C1075 C 0.59477 0.61151 0.68598 0.0
C1076 C 0.60297 0.60709 0.7947 0.0
C1077 C 0.58076 0.57641 0.82517 0.0
N1078 N 0.59744 0.60968 0.72002 0.0
N1079 N 0.57878 0.57959 0.79175 0.0
H1080 H 0.3799 0.004 0.83576 0.0
H1081 H 0.4139 0.98098 0.6654 0.0
H1082 H 0.42717 0.00451 0.8284 0.0
H1083 H 0.37222 0.9904 0.6621 0.0
H1084 H 0.41644 0.98641 0.72735 0.0
H1085 H 0.37547 -0.00219 0.7735 0.0
C1086 C 0.38951 0.00319 0.821 0.0
C1087 C 0.4039 0.00471 0.83746 0.0
C1088 C 0.40663 0.98717 0.71324 0.0
C1089 C 0.39866 -0.00287 0.76663 0.0
C1090 C 0.40504 0.98387 0.67784 0.0
C1091 C 0.39289 0.98533 0.6584 0.0
C1092 C 0.39602 0.99202 0.72959 0.0
C1093 C 0.38174 0.98907 0.67607 0.0
C1094 C 0.38687 -0.00055 0.78556 0.0
C1095 C 0.41583 0.00334 0.81701 0.0
N1096 N 0.38368 0.99247 0.71067 0.0
N1097 N 0.41286 -0.00052 0.78289 0.0
H1098 H 0.55459 0.99028 0.19188 0.0
H1099 H 0.61215 0.00014 0.35618 0.0
H1100 H 0.5981 0.98394 0.1845 0.0
H1101 H 0.57107 0.01048 0.35629 0.0
H1102 H 0.60809 0.99462 0.29367 0.0
H1103 H 0.56023 0.99647 0.25317 0.0
C1104 C 0.56523 0.98994 0.20329 0.0
C1105 C 0.57591 0.98662 0.18291 0.0
C1106 C 0.60013 -0.00169 0.30737 0.0
C1107 C 0.58272 0.99411 0.25344 0.0
C1108 C 0.60258 0.00169 0.34296 0.0
C1109 C 0.59189 0.00572 0.36157 0.0
C1110 C 0.58688 -0.00104 0.29043 0.0
C1111 C 0.57955 0.00731 0.34312 0.0
C1112 C 0.56854 0.99364 0.23834 0.0
C1113 C 0.58948 0.98633 0.19927 0.0
N1114 N 0.57731 0.00378 0.30878 0.0
N1115 N 0.59258 0.99017 0.23358 0.0
H1116 H 0.99017 0.60234 0.34738 0.0
H1117 H 0.00588 0.55937 0.18137 0.0
H1118 H 0.98416 0.55247 0.34692 0.0
H1119 H 0.01738 0.61121 0.18263 0.0
H1120 H -0.00227 0.55676 0.24209 0.0
H1121 H -0.00166 0.6054 0.28616 0.0
C1122 C 0.9901 0.59186 0.3342 0.0
C1123 C 0.98644 0.57711 0.35237 0.0
C1124 C 0.00222 0.56879 0.22931 0.0
C1125 C -0.00375 0.58072 0.28263 0.0
C1126 C 0.00705 0.57034 0.19467 0.0
C1127 C 0.01239 0.58555 0.17685 0.0
C1128 C 0.00251 0.58249 0.24641 0.0
C1129 C 0.01352 0.5993 0.19542 0.0
C1130 C -0.00496 0.59372 0.29939 0.0
C1131 C 0.98689 0.56407 0.33403 0.0
N1132 N 0.00843 0.59739 0.22909 0.0
N1133 N 0.99181 0.56622 0.30037 0.0
H1134 H 0.41969 0.43869 0.16049 0.0
H1135 H 0.38627 0.38423 0.33443 0.0
H1136 H 0.37667 0.38828 0.16271 0.0
H1137 H 0.42718 0.43579 0.33027 0.0
H1138 H 0.383 0.38479 0.27151 0.0
H1139 H 0.42204 0.4378 0.22314 0.0
C1140 C 0.41051 0.42754 0.17427 0.0
C1141 C 0.39798 0.41353 0.1563 0.0
C1142 C 0.39277 0.39592 0.2844 0.0
C1143 C 0.40088 0.41222 0.2282 0.0
C1144 C 0.3948 0.39554 0.32025 0.0
C1145 C 0.407 0.41 0.3377 0.0
C1146 C 0.40306 0.41086 0.26595 0.0
C1147 C 0.41755 0.42436 0.31799 0.0
C1148 C 0.41195 0.42697 0.21007 0.0
C1149 C 0.38646 0.39941 0.17555 0.0
N1150 N 0.41527 0.42445 0.28331 0.0
N1151 N 0.3883 0.39903 0.21046 0.0
H1152 H 0.35284 0.19769 0.09979 0.0
H1153 H 0.30693 0.11733 0.22358 0.0
H1154 H 0.31369 0.18984 0.17224 0.0
H1155 H 0.34866 0.12714 0.15682 0.0
H1156 H 0.30763 0.14259 0.20146 0.0
H1157 H 0.35007 0.17086 0.11732 0.0
C1158 C 0.34364 0.19031 0.11943 0.0
C1159 C 0.33352 0.19604 0.13474 0.0
C1160 C 0.31658 0.13919 0.1915 0.0
C1161 C 0.33027 0.16525 0.15482 0.0
C1162 C 0.31618 0.12474 0.20404 0.0
C1163 C 0.32785 0.1202 0.19217 0.0
C1164 C 0.32876 0.14921 0.16691 0.0
C1165 C 0.33947 0.13022 0.16675 0.0
C1166 C 0.34207 0.17497 0.12938 0.0
C1167 C 0.32179 0.18592 0.1599 0.0
N1168 N 0.33969 0.14434 0.15509 0.0
N1169 N 0.32051 0.17101 0.16923 0.0
H1170 H 0.77946 0.14808 0.12301 0.0
H1171 H 0.85551 0.18917 0.25832 0.0
H1172 H 0.79137 0.11894 0.19355 0.0
H1173 H 0.84456 0.21811 0.18529 0.0
H1174 H 0.83053 0.16355 0.23865 0.0
H1175 H 0.80164 0.17394 0.14919 0.0
C1176 C 0.78669 0.14711 0.14417 0.0
C1177 C 0.78365 0.13132 0.15595 0.0
C1178 C 0.83351 0.1755 0.22706 0.0
C1179 C 0.80914 0.16095 0.18599 0.0
C1180 C 0.84778 0.19016 0.23827 0.0
C1181 C 0.8522 0.2058 0.2232 0.0
C1182 C 0.82358 0.17644 0.20049 0.0
C1183 C 0.84166 0.20631 0.1975 0.0
C1184 C 0.79936 0.16191 0.15911 0.0
C1185 C 0.79334 0.13086 0.18358 0.0
N1186 N 0.82789 0.19181 0.18678 0.0
N1187 N 0.80574 0.14547 0.19753 0.0
H1188 H 0.77659 0.64657 0.17932 0.0
H1189 H 0.8763 0.68284 0.18266 0.0
H1190 H 0.81179 0.69089 0.23671 0.0
H1191 H 0.84087 0.63626 0.1321 0.0
H1192 H 0.85273 0.6859 0.2031 0.0
H1193 H 0.79997 0.6425 0.16162 0.0
C1194 C 0.78922 0.65543 0.18819 0.0
C1195 C 0.79226 0.6691 0.20944 0.0
C1196 C 0.85011 0.67497 0.18765 0.0
C1197 C 0.81901 0.66455 0.18938 0.0
C1198 C 0.86357 0.67322 0.17601 0.0
C1199 C 0.86054 0.65931 0.15558 0.0
C1200 C 0.83353 0.66276 0.17865 0.0
C1201 C 0.84378 0.64721 0.14775 0.0
C1202 C 0.80255 0.6531 0.17815 0.0
C1203 C 0.80886 0.68018 0.22026 0.0
N1204 N 0.83091 0.64926 0.15917 0.0
N1205 N 0.82161 0.67768 0.21005 0.0
H1206 H 0.10317 0.27904 0.31035 0.0
H1207 H 0.18913 0.32967 0.41677 0.0
H1208 H 0.11782 0.32549 0.36534 0.0
H1209 H 0.17956 0.29026 0.34331 0.0
H1210 H 0.16123 0.32566 0.40497 0.0
H1211 H 0.12897 0.28007 0.33011 0.0
C1212 C 0.11166 0.28931 0.32709 0.0
C1213 C 0.1084 0.30229 0.33598 0.0
C1214 C 0.1652 0.31786 0.39147 0.0
C1215 C 0.13804 0.30359 0.35834 0.0
C1216 C 0.18115 0.32014 0.39815 0.0
C1217 C 0.18673 0.31034 0.38081 0.0
C1218 C 0.15467 0.30563 0.36739 0.0
C1219 C 0.1758 0.29816 0.35707 0.0
C1220 C 0.12645 0.28994 0.33813 0.0
C1221 C 0.11987 0.31526 0.35772 0.0
N1222 N 0.16027 0.29615 0.35102 0.0
N1223 N 0.13425 0.31565 0.36795 0.0
H1224 H 0.67916 0.88683 0.32956 0.0
H1225 H 0.64764 0.78853 0.35612 0.0
H1226 H 0.6489 0.85738 0.41599 0.0
H1227 H 0.67794 0.81792 0.26967 0.0
H1228 H 0.64854 0.81386 0.37934 0.0
H1229 H 0.67972 0.86193 0.30811 0.0
C1230 C 0.67273 0.87517 0.34411 0.0
C1231 C 0.66392 0.87416 0.3745 0.0
C1232 C 0.65501 0.81476 0.3553 0.0
C1233 C 0.66441 0.84565 0.35013 0.0
C1234 C 0.65446 0.80029 0.34203 0.0
C1235 C 0.66268 0.80111 0.3109 0.0
C1236 C 0.66383 0.83011 0.33725 0.0
C1237 C 0.67139 0.81669 0.29374 0.0
C1238 C 0.67301 0.86095 0.33184 0.0
C1239 C 0.65579 0.85873 0.39236 0.0
N1240 N 0.67171 0.83056 0.30712 0.0
N1241 N 0.65619 0.84508 0.37984 0.0
H1242 H 0.09918 0.79296 0.32719 0.0
H1243 H 0.19868 0.85678 0.34348 0.0
H1244 H 0.13143 0.78741 0.40113 0.0
H1245 H 0.1663 0.86444 0.27363 0.0
H1246 H 0.17418 0.83071 0.36356 0.0
H1247 H 0.1237 0.81879 0.30577 0.0
C1248 C 0.11139 0.79717 0.3389 0.0
C1249 C 0.11326 0.78805 0.36598 0.0
C1250 C 0.17244 0.83809 0.34381 0.0
C1251 C 0.1413 0.81746 0.34168 0.0
C1252 C 0.18643 0.85296 0.33234 0.0
C1253 C 0.18452 0.8628 0.30692 0.0
C1254 C 0.15645 0.83303 0.32972 0.0
C1255 C 0.16835 0.85725 0.29335 0.0
C1256 C 0.12538 0.81189 0.3267 0.0
C1257 C 0.12938 0.79405 0.38022 0.0
N1258 N 0.15494 0.84274 0.30493 0.0
N1259 N 0.14276 0.80835 0.3679 0.0
H1260 H 0.63408 0.86111 0.85062 0.0
H1261 H 0.66326 0.79291 0.81851 0.0
H1262 H 0.66784 0.86475 0.76883 0.0
H1263 H 0.62804 0.78824 0.89795 0.0
H1264 H 0.66476 0.8191 0.79923 0.0
H1265 H 0.63127 0.83407 0.86785 0.0
C1266 C 0.64085 0.8562 0.83624 0.0
C1267 C 0.65123 0.86521 0.80834 0.0
C1268 C 0.65667 0.81231 0.82083 0.0
C1269 C 0.64815 0.83438 0.82786 0.0
C1270 C 0.65582 0.79736 0.83182 0.0
C1271 C 0.64555 0.78841 0.8599 0.0
C1272 C 0.64721 0.81833 0.83812 0.0
C1273 C 0.63616 0.79475 0.87621 0.0
C1274 C 0.63926 0.84078 0.84607 0.0
C1275 C 0.65972 0.85826 0.79057 0.0
N1276 N 0.63725 0.80933 0.86513 0.0
N1277 N 0.65802 0.8433 0.80069 0.0
H1278 H 0.1264 0.80487 0.76491 0.0
H1279 H 0.19937 0.85003 0.90601 0.0
H1280 H 0.13463 0.77831 0.84809 0.0
H1281 H 0.19324 0.8762 0.81922 0.0
H1282 H 0.17552 0.82377 0.88545 0.0
H1283 H 0.15075 0.83107 0.7844 0.0
C1284 C 0.13337 0.80453 0.78725 0.0
C1285 C 0.12845 0.78937 0.80498 0.0
C1286 C 0.17936 0.83523 0.87085 0.0
C1287 C 0.15635 0.81941 0.8275 0.0
C1288 C 0.19298 0.85027 0.88261 0.0
C1289 C 0.19831 0.86536 0.86429 0.0
C1290 C 0.17093 0.83521 0.84054 0.0
C1291 C 0.18954 0.86486 0.83415 0.0
C1292 C 0.14728 0.81952 0.79835 0.0
C1293 C 0.13798 0.78971 0.83367 0.0
N1294 N 0.17626 0.85001 0.82321 0.0
N1295 N 0.15146 0.80451 0.84412 0.0
H1296 H 0.11283 0.32756 0.81025 0.0
H1297 H 0.21119 0.35936 0.82161 0.0
H1298 H 0.14868 0.37334 0.86266 0.0
H1299 H 0.17542 0.31556 0.76366 0.0
H1300 H 0.189 0.36626 0.83262 0.0
H1301 H 0.13617 0.32486 0.78725 0.0
C1302 C 0.12562 0.33722 0.8164 0.0
C1303 C 0.12881 0.35057 0.83877 0.0
C1304 C 0.18606 0.35521 0.81729 0.0
C1305 C 0.15557 0.3474 0.81312 0.0
C1306 C 0.1987 0.35123 0.81114 0.0
C1307 C 0.1951 0.33677 0.79203 0.0
C1308 C 0.16972 0.3446 0.80432 0.0
C1309 C 0.17874 0.32676 0.77881 0.0
C1310 C 0.13896 0.33563 0.8034 0.0
C1311 C 0.14564 0.36276 0.84573 0.0
N1312 N 0.16665 0.3308 0.7854 0.0
N1313 N 0.15839 0.36074 0.83338 0.0
H1314 H 0.8715 0.69556 0.70739 0.0
H1315 H 0.78241 0.63151 0.6219 0.0
H1316 H 0.86019 0.64823 0.66022 0.0
H1317 H 0.79249 0.67697 0.67587 0.0
H1318 H 0.8112 0.63803 0.63355 0.0
H1319 H 0.84317 0.68977 0.69304 0.0
C1320 C 0.8631 0.684 0.69375 0.0
C1321 C 0.86821 0.67232 0.68508 0.0
C1322 C 0.80713 0.64658 0.6429 0.0
C1323 C 0.83567 0.66557 0.66881 0.0
C1324 C 0.79067 0.64285 0.63632 0.0
C1325 C 0.78502 0.65371 0.648 0.0
C1326 C 0.8181 0.6613 0.66124 0.0
C1327 C 0.7963 0.66823 0.66649 0.0
C1328 C 0.84689 0.68068 0.68569 0.0
C1329 C 0.85678 0.65757 0.66742 0.0
N1330 N 0.81232 0.67161 0.6725 0.0
N1331 N 0.84102 0.65458 0.65998 0.0
H1332 H 0.3494 0.22427 0.65164 0.0
H1333 H 0.31856 0.12629 0.68054 0.0
H1334 H 0.30637 0.19082 0.71393 0.0
H1335 H 0.36043 0.15928 0.61513 0.0
H1336 H 0.31364 0.14975 0.69258 0.0
H1337 H 0.35304 0.20035 0.63614 0.0
C1338 C 0.34061 0.21187 0.66171 0.0
C1339 C 0.32762 0.20955 0.68422 0.0
C1340 C 0.32391 0.15184 0.6756 0.0
C1341 C 0.33182 0.1822 0.66704 0.0
C1342 C 0.32676 0.13847 0.66887 0.0
C1343 C 0.33994 0.14084 0.64688 0.0
C1344 C 0.33433 0.16767 0.66024 0.0
C1345 C 0.35013 0.15688 0.63229 0.0
C1346 C 0.34273 0.19823 0.65302 0.0
C1347 C 0.31661 0.19321 0.6966 0.0
N1348 N 0.34711 0.16967 0.63924 0.0
N1349 N 0.31903 0.1802 0.68803 0.0
H1350 H 0.89369 0.19776 0.68197 0.0
H1351 H 0.79709 0.12724 0.65029 0.0
H1352 H 0.86153 0.20202 0.60577 0.0
H1353 H 0.82968 0.12169 0.72329 0.0
H1354 H 0.82091 0.15434 0.63224 0.0
H1355 H 0.87062 0.16951 0.69666 0.0
C1356 C 0.88181 0.19276 0.66833 0.0
C1357 C 0.87952 0.20227 0.64272 0.0
C1358 C 0.82287 0.14714 0.65208 0.0
C1359 C 0.85312 0.17004 0.65928 0.0
C1360 C 0.80927 0.13166 0.66232 0.0
C1361 C 0.81138 0.12223 0.68841 0.0
C1362 C 0.83865 0.15325 0.66814 0.0
C1363 C 0.82746 0.12856 0.70314 0.0
C1364 C 0.86865 0.17663 0.67666 0.0
C1365 C 0.86386 0.19516 0.62578 0.0
N1366 N 0.84045 0.14371 0.69293 0.0
N1367 N 0.85127 0.17951 0.63442 0.0
H1368 H 0.01741 0.46106 0.48959 0.0
H1369 H 0.982 0.52397 0.52683 0.0
H1370 H 0.98125 0.45309 0.56953 0.0
H1371 H 0.01927 0.53285 0.44882 0.0
H1372 H 0.98187 0.49809 0.54349 0.0
H1373 H 0.01864 0.48768 0.47469 0.0
C1374 C 0.00977 0.46492 0.50403 0.0
C1375 C -0.00081 0.45482 0.53076 0.0
C1376 C 0.9901 0.50574 0.52278 0.0
C1377 C 0.00049 0.48519 0.51391 0.0
C1378 C 0.99018 0.52051 0.51329 0.0
C1379 C 0.00063 0.53057 0.48638 0.0
C1380 C 0.00054 0.50099 0.50517 0.0
C1381 C 0.01098 0.52547 0.4697 0.0
C1382 C 0.01047 0.48011 0.49555 0.0
C1383 C 0.98957 0.46044 0.54867 0.0
N1384 N 0.01064 0.51104 0.47931 0.0
N1385 N 0.99042 0.4752 0.53987 0.0
H1386 H 0.52205 0.55289 0.49642 0.0
H1387 H 0.45315 0.45488 0.51728 0.0
H1388 H 0.52319 0.52103 0.57751 0.0
H1389 H 0.449 0.48778 0.44282 0.0
H1390 H 0.47911 0.47897 0.53926 0.0
H1391 H 0.49545 0.52911 0.47568 0.0
C1392 C 0.5167 0.54093 0.50988 0.0
C1393 C 0.52485 0.53894 0.5387 0.0
C1394 C 0.47248 0.48092 0.51818 0.0
C1395 C 0.49452 0.51171 0.51514 0.0
C1396 C 0.45766 0.46717 0.50564 0.0
C1397 C 0.4489 0.46932 0.47819 0.0
C1398 C 0.47862 0.49691 0.50304 0.0
C1399 C 0.45534 0.48553 0.46405 0.0
C1400 C 0.50152 0.52736 0.49807 0.0
C1401 C 0.51736 0.52315 0.55518 0.0
N1402 N 0.46983 0.49869 0.47656 0.0
N1403 N 0.50265 0.51015 0.54312 0.0
H1404 H 0.51338 0.97635 0.44768 0.0
H1405 H 0.4726 0.01543 0.57382 0.0
H1406 H 0.54066 0.0109 0.53091 0.0
H1407 H 0.44545 0.98122 0.49005 0.0
H1408 H 0.49758 0.0139 0.55848 0.0
H1409 H 0.48843 0.97795 0.46291 0.0
C1410 C 0.51413 0.98429 0.46922 0.0
C1411 C 0.52915 0.99352 0.48809 0.0
C1412 C 0.48618 0.00673 0.54341 0.0
C1413 C 0.50053 0.9954 0.50563 0.0
C1414 C 0.47188 0.00759 0.55213 0.0
C1415 C 0.45689 -0.00158 0.53316 0.0
C1416 C 0.48554 -0.00338 0.51548 0.0
C1417 C 0.45674 0.98849 0.50536 0.0
C1418 C 0.49985 0.98519 0.47787 0.0
C1419 C 0.52934 0.00357 0.51568 0.0
N1420 N 0.47086 0.98785 0.49736 0.0
N1421 N 0.51524 0.00425 0.52364 0.0
H1422 H 0.4575 0.01293 0.01618 0.0
H1423 H 0.52133 0.97707 0.00832 0.0
H1424 H 0.45497 0.97735 0.93953 0.0
H1425 H 0.52651 0.0156 0.08005 0.0
H1426 H 0.49623 0.9762 0.98423 0.0
H1427 H 0.48237 0.01356 0.04124 0.0
C1428 C 0.4622 0.0053 1.00459 0.0
C1429 C 0.45418 0.99509 0.97575 0.0
C1430 C 0.50285 0.98483 1.00528 0.0
C1431 C 0.48247 0.99565 1.00428 0.0
C1432 C 0.51715 0.98529 0.01908 0.0
C1433 C 0.52603 0.99644 0.04615 0.0
C1434 C 0.4974 0.99557 0.01873 0.0
C1435 C 0.52007 0.00683 0.05912 0.0
C1436 C 0.47637 0.00564 0.0189 0.0
C1437 C 0.46076 0.98543 0.96176 0.0
N1438 N 0.50613 0.00616 0.04525 0.0
N1439 N 0.4745 0.98593 0.9762 0.0
H1440 H 0.96713 0.51109 0.06256 0.0
H1441 H -0.00384 0.46789 0.91942 0.0
H1442 H 0.00835 0.53912 0.99176 0.0
H1443 H 0.95645 0.43976 0.99325 0.0
H1444 H -0.00067 0.49407 0.9427 0.0
H1445 H 0.96188 0.48491 0.03513 0.0
C1446 C 0.9751 0.51175 0.04121 0.0
C1447 C 0.98827 0.52732 0.0295 0.0
C1448 C 0.98985 0.48218 0.95371 0.0
C1449 C 0.98225 0.49733 0.9979 0.0
C1450 C 0.988 0.46721 0.94038 0.0
C1451 C 0.97608 0.45161 0.95459 0.0
C1452 C 0.97976 0.48161 0.98154 0.0
C1453 C 0.96582 0.45151 0.98159 0.0
C1454 C 0.97206 0.49677 0.02553 0.0
C1455 C -0.00188 0.52739 1.00168 0.0
N1456 N 0.96796 0.46631 0.99436 0.0
N1457 N -0.00508 0.5126 0.98685 0.0
H1458 H 0.47719 0.45528 0.06248 0.0
H1459 H 0.51636 0.53217 0.92905 0.0
H1460 H 0.44868 0.46124 0.9802 0.0
H1461 H 0.5446 0.52697 0.01294 0.0
H1462 H 0.49191 0.50546 0.94558 0.0
H1463 H 0.50233 0.4807 0.04289 0.0
C1464 C 0.47622 0.46192 0.04019 0.0
C1465 C 0.46078 0.45618 0.023 0.0
C1466 C 0.50345 0.51011 0.96034 0.0
C1467 C 0.48959 0.48534 1.00048 0.0
C1468 C 0.51744 0.52537 0.95093 0.0
C1469 C 0.53253 0.53185 0.96979 0.0
C1470 C 0.50449 0.50121 0.98888 0.0
C1471 C 0.5332 0.52245 0.99776 0.0
C1472 C 0.4906 0.47644 0.02903 0.0
C1473 C 0.46031 0.46526 0.99424 0.0
N1474 N 0.51933 0.50762 0.00656 0.0
N1475 N 0.47451 0.47944 0.98393 0.0
H1476 H 0.41088 0.03161 0.04852 0.0
H1477 H 0.35994 0.07469 0.12453 0.0
H1478 H 0.37228 0.03527 0.99171 0.0
H1479 H 0.38504 0.0554 0.18873 0.0
H1480 H 0.36952 0.06619 0.07305 0.0
H1481 H 0.40659 0.04619 0.09738 0.0
C1482 C 0.40171 0.03572 0.04609 0.0
C1483 C 0.39184 0.03209 0.01607 0.0
C1484 C 0.37307 0.064 0.09842 0.0
C1485 C 0.38688 0.04879 0.07182 0.0
C1486 C 0.36769 0.06893 0.12782 0.0
C1487 C 0.37158 0.06563 0.16103 0.0
C1488 C 0.38257 0.05589 0.10222 0.0
C1489 C 0.38163 0.05807 0.16366 0.0
C1490 C 0.3992 0.04396 0.07405 0.0
C1491 C 0.38008 0.03767 0.01444 0.0
N1492 N 0.38672 0.0534 0.13469 0.0
N1493 N 0.37789 0.04568 0.04194 0.0
H1494 H 0.89173 0.2825 0.13312 0.0
H1495 H 0.93511 0.3724 0.03812 0.0
H1496 H 0.92478 0.32944 0.18502 0.0
H1497 H 0.92252 0.32592 0.98563 0.0
H1498 H 0.92381 0.3565 0.09201 0.0
H1499 H 0.89553 0.29819 0.07917 0.0
C1500 C 0.89944 0.29613 0.13342 0.0
C1501 C 0.90802 0.30466 0.16363 0.0
C1502 C 0.92326 0.34977 0.06852 0.0
C1503 C 0.91237 0.32265 0.10201 0.0
C1504 C 0.92957 0.35881 0.03767 0.0
C1505 C 0.92985 0.3505 0.0073 0.0
C1506 C 0.91691 0.33226 0.06891 0.0
C1507 C 0.92265 0.33286 0.00844 0.0
C1508 C 0.9017 0.30505 0.10255 0.0
C1509 C 0.918 0.32234 0.16232 0.0
N1510 N 0.91655 0.32434 0.03874 0.0
N1511 N 0.91995 0.33073 0.13204 0.0
H1512 H 0.61612 0.58572 0.05853 0.0
H1513 H 0.71217 0.63755 0.12223 0.0
H1514 H 0.65669 0.62176 0.99426 0.0
H1515 H 0.66994 0.6221 0.19118 0.0
H1516 H 0.69239 0.62477 0.07374 0.0
H1517 H 0.63637 0.59213 0.10588 0.0
C1518 C 0.62932 0.59473 0.05416 0.0
C1519 C 0.63472 0.60333 0.02252 0.0
C1520 C 0.68749 0.62397 0.09961 0.0
C1521 C 0.65789 0.61057 0.07634 0.0
C1522 C 0.69875 0.63114 0.1273 0.0
C1523 C 0.69268 0.63099 0.16073 0.0
C1524 C 0.67006 0.61632 0.10553 0.0
C1525 C 0.67515 0.62262 0.16576 0.0
C1526 C 0.64083 0.59843 0.08121 0.0
C1527 C 0.65197 0.61495 0.01834 0.0
N1528 N 0.66446 0.61567 0.13846 0.0
N1529 N 0.66293 0.61826 0.04494 0.0
H1530 H 0.07211 0.34199 0.38905 0.0
H1531 H 0.03713 0.40257 0.45151 0.0
H1532 H 0.06666 0.3762 0.32061 0.0
H1533 H 0.03073 0.35944 0.50937 0.0
H1534 H 0.05249 0.3965 0.40698 0.0
H1535 H 0.06176 0.35186 0.43694 0.0
C1536 C 0.06901 0.35178 0.38415 0.0
C1537 C 0.07021 0.35819 0.35059 0.0
C1538 C 0.04784 0.38845 0.42957 0.0
C1539 C 0.05819 0.36951 0.4055 0.0
C1540 C 0.03912 0.39195 0.4551 0.0
C1541 C 0.03253 0.38145 0.48422 0.0
C1542 C 0.05015 0.37445 0.43329 0.0
C1543 C 0.03548 0.36784 0.48732 0.0
C1544 C 0.06298 0.35733 0.41151 0.0
C1545 C 0.0659 0.37082 0.34595 0.0
N1546 N 0.04402 0.36473 0.46223 0.0
N1547 N 0.06003 0.37599 0.37298 0.0
H1548 H 0.5803 0.62025 0.45451 0.0
H1549 H 0.62991 0.7168 0.39349 0.0
H1550 H 0.61462 0.66091 0.52105 0.0
H1551 H 0.61762 0.67533 0.32387 0.0
H1552 H 0.61752 0.69657 0.44137 0.0
H1553 H 0.58722 0.64066 0.40725 0.0
C1554 C 0.58905 0.6335 0.45934 0.0
C1555 C 0.59699 0.63889 0.49165 0.0
C1556 C 0.61736 0.69193 0.41548 0.0
C1557 C 0.60479 0.66223 0.43797 0.0
C1558 C 0.62432 0.70343 0.38816 0.0
C1559 C 0.62489 0.69773 0.35472 0.0
C1560 C 0.61063 0.6746 0.40916 0.0
C1561 C 0.61756 0.68027 0.34932 0.0
C1562 C 0.59305 0.64509 0.43236 0.0
C1563 C 0.60832 0.6562 0.49644 0.0
N1564 N 0.61074 0.66932 0.37624 0.0
N1565 N 0.61188 0.66725 0.46992 0.0
H1566 H 0.37099 0.96602 0.44328 0.0
H1567 H 0.27382 0.91191 0.38814 0.0
H1568 H 0.33014 0.95662 0.51206 0.0
H1569 H 0.31305 0.94299 0.31584 0.0
H1570 H 0.29501 0.92144 0.43446 0.0
H1571 H 0.35034 0.95098 0.39706 0.0
C1572 C 0.35768 0.96056 0.44882 0.0
C1573 C 0.35228 0.96267 0.48149 0.0
C1574 C 0.29898 0.92594 0.40832 0.0
C1575 C 0.32865 0.94531 0.429 0.0
C1576 C 0.28693 0.92041 0.38183 0.0
C1577 C 0.29167 0.92672 0.3481 0.0
C1578 C 0.31592 0.93762 0.4009 0.0
C1579 C 0.30884 0.93787 0.34151 0.0
C1580 C 0.34593 0.95207 0.42243 0.0
C1581 C 0.33487 0.95541 0.48718 0.0
N1582 N 0.32034 0.94299 0.36766 0.0
N1583 N 0.32368 0.94705 0.46124 0.0
H1584 H 0.61681 0.95207 0.8351 0.0
H1585 H 0.60343 0.94766 0.03597 0.0
H1586 H 0.62487 0.91759 0.89718 0.0
H1587 H 0.5734 0.95921 0.96747 0.0
H1588 H 0.61204 0.937 0.9864 0.0
H1589 H 0.60165 0.95571 0.8835 0.0
C1590 C 0.61524 0.94513 0.85882 0.0
C1591 C 0.62215 0.93454 0.86215 0.0
C1592 C 0.60331 0.94157 0.98233 0.0
C1593 C 0.60509 0.93891 0.91789 0.0
C1594 C 0.59838 0.94764 0.0106 0.0
C1595 C 0.58768 0.95434 1.00585 0.0
C1596 C 0.59789 0.94264 0.94891 0.0
C1597 C 0.58159 0.95408 0.97235 0.0
C1598 C 0.60653 0.94716 0.88638 0.0
C1599 C 0.6197 0.92584 0.89348 0.0
N1600 N 0.58704 0.94865 0.94506 0.0
N1601 N 0.61163 0.92843 0.92037 0.0
H1602 H 0.03759 0.61024 0.96133 0.0
H1603 H 0.08546 0.7052 0.88934 0.0
H1604 H 0.05673 0.65406 0.0274 0.0
H1605 H 0.05054 0.6621 0.82882 0.0
H1606 H 0.08112 0.68631 0.93822 0.0
H1607 H 0.04862 0.6289 0.91092 0.0
C1608 C 0.04445 0.62377 0.96536 0.0
C1609 C 0.04612 0.63058 0.99868 0.0
C1610 C 0.07459 0.68099 0.91406 0.0
C1611 C 0.05871 0.65201 0.94101 0.0
C1612 C 0.07713 0.69175 0.88609 0.0
C1613 C 0.06825 0.68524 0.855 0.0
C1614 C 0.06329 0.66357 0.91076 0.0
C1615 C 0.05754 0.66769 0.85238 0.0
C1616 C 0.05062 0.63441 0.93652 0.0
C1617 C 0.05505 0.64825 1.0022 0.0
N1618 N 0.05532 0.65749 0.87988 0.0
N1619 N 0.06091 0.65834 0.97374 0.0
H1620 H 0.319 0.37151 0.8119 0.0
H1621 H 0.33409 0.37948 0.01246 0.0
H1622 H 0.28072 0.36769 0.88225 0.0
H1623 H 0.37532 0.4066 0.94141 0.0
H1624 H 0.31418 0.37431 0.96532 0.0
H1625 H 0.33991 0.38394 0.8584 0.0
C1626 C 0.31506 0.37357 0.83698 0.0
C1627 C 0.29809 0.36854 0.84324 0.0
C1628 C 0.32758 0.3816 0.96015 0.0
C1629 C 0.32185 0.38233 0.89678 0.0
C1630 C 0.33895 0.38451 0.987 0.0
C1631 C 0.35639 0.39344 0.98081 0.0
C1632 C 0.33366 0.38728 0.92661 0.0
C1633 C 0.36198 0.39969 0.94733 0.0
C1634 C 0.327 0.38067 0.86349 0.0
C1635 C 0.29368 0.37146 0.87626 0.0
N1636 N 0.35066 0.39624 0.92132 0.0
N1637 N 0.30541 0.37786 0.902 0.0
H1638 H 0.93687 0.61715 0.69109 0.0
H1639 H 0.95364 0.61455 0.49063 0.0
H1640 H 0.91488 0.63432 0.61386 0.0
H1641 H 0.95887 0.58186 0.56375 0.0
H1642 H 0.93958 0.62209 0.53523 0.0
H1643 H 0.94506 0.60414 0.64531 0.0
C1644 C 0.93353 0.61797 0.66455 0.0
C1645 C 0.92518 0.62688 0.65636 0.0
C1646 C 0.9436 0.6131 0.54143 0.0
C1647 C 0.93489 0.6123 0.60363 0.0
C1648 C 0.95167 0.6088 0.51597 0.0
C1649 C 0.9575 0.59757 0.52343 0.0
C1650 C 0.94163 0.60642 0.57495 0.0
C1651 C 0.95455 0.59053 0.55677 0.0
C1652 C 0.93823 0.61053 0.6384 0.0
C1653 C 0.92123 0.62753 0.62144 0.0
N1654 N 0.94706 0.59525 0.58141 0.0
N1655 N 0.92635 0.62059 0.59636 0.0
H1656 H 0.38086 0.3332 0.6859 0.0
H1657 H 0.37704 0.3442 0.48293 0.0
H1658 H 0.36075 0.29117 0.6148 0.0
H1659 H 0.40823 0.38577 0.55082 0.0
H1660 H 0.37198 0.32456 0.53032 0.0
H1661 H 0.392 0.3526 0.63685 0.0
C1662 C 0.37895 0.32803 0.65997 0.0
C1663 C 0.36974 0.31051 0.65447 0.0
C1664 C 0.38012 0.33795 0.53479 0.0
C1665 C 0.3823 0.33272 0.59805 0.0
C1666 C 0.38301 0.3492 0.50771 0.0
C1667 C 0.39298 0.36668 0.51295 0.0
C1668 C 0.38701 0.34421 0.56763 0.0
C1669 C 0.40044 0.3724 0.5456 0.0
C1670 C 0.38534 0.33914 0.63196 0.0
C1671 C 0.36773 0.30457 0.62028 0.0
N1672 N 0.39711 0.36121 0.57183 0.0
N1673 N 0.37375 0.31565 0.59337 0.0
H1674 H 0.65922 0.03045 0.49657 0.0
H1675 H 0.6834 0.04568 0.69445 0.0
H1676 H 0.62367 0.0274 0.5734 0.0
H1677 H 0.72078 0.0703 0.61468 0.0
H1678 H 0.66117 0.03773 0.65103 0.0
H1679 H 0.68189 0.04391 0.53939 0.0
C1680 C 0.65621 0.03276 0.52238 0.0
C1681 C 0.63951 0.02777 0.53144 0.0
C1682 C 0.67423 0.04507 0.6431 0.0
C1683 C 0.66538 0.04288 0.58078 0.0
C1684 C 0.68694 0.04959 0.66785 0.0
C1685 C 0.70399 0.05866 0.65817 0.0
C1686 C 0.67858 0.04927 0.60821 0.0
C1687 C 0.70781 0.06337 0.62331 0.0
C1688 C 0.66917 0.04049 0.54677 0.0
C1689 C 0.63636 0.0311 0.56527 0.0
N1690 N 0.69522 0.05839 0.5995 0.0
N1691 N 0.64912 0.03821 0.58887 0.0
H1692 H 0.7314 0.68647 0.738 0.0
H1693 H 0.68227 0.73598 0.78352 0.0
H1694 H 0.70346 0.69724 0.66229 0.0
H1695 H 0.69029 0.70544 0.85762 0.0
H1696 H 0.69653 0.72826 0.73937 0.0
H1697 H 0.72291 0.69991 0.78256 0.0
C1698 C 0.72376 0.69194 0.73062 0.0
C1699 C 0.71803 0.69063 0.69643 0.0
C1700 C 0.69532 0.72343 0.76543 0.0
C1701 C 0.70836 0.70606 0.74715 0.0
C1702 C 0.68728 0.72789 0.79066 0.0
C1703 C 0.68498 0.72124 0.82423 0.0
C1704 C 0.70137 0.71249 0.77401 0.0
C1705 C 0.69166 0.71074 0.83199 0.0
C1706 C 0.71883 0.6995 0.75607 0.0
C1707 C 0.70805 0.69786 0.68838 0.0
N1708 N 0.69952 0.70668 0.80709 0.0
N1709 N 0.70351 0.70522 0.71353 0.0
H1710 H 0.29572 0.0146 0.65657 0.0
H1711 H 0.2851 0.99586 0.85652 0.0
H1712 H 0.30599 0.05384 0.73079 0.0
H1713 H 0.25428 0.95764 0.78194 0.0
H1714 H 0.2938 0.01732 0.81116 0.0
H1715 H 0.28129 0.99342 0.7018 0.0
C1716 C 0.29476 0.01875 0.6823 0.0
C1717 C 0.3021 0.03602 0.68994 0.0
C1718 C 0.28496 0.00428 0.80483 0.0
C1719 C 0.28591 0.01184 0.74201 0.0
C1720 C 0.28001 0.99201 0.83067 0.0
C1721 C 0.26898 0.97493 0.82298 0.0
C1722 C 0.27917 -0.0006 0.77079 0.0
C1723 C 0.26277 0.97067 0.78903 0.0
C1724 C 0.28649 0.00665 0.70808 0.0
C1725 C 0.30046 0.04066 0.72374 0.0
N1726 N 0.26817 0.98278 0.76405 0.0
N1727 N 0.29279 0.02866 0.74868 0.0
H1728 H 0.00104 0.29979 0.66644 0.0
H1729 H 0.01613 0.2799 0.85988 0.0
H1730 H 0.96369 0.25651 0.72289 0.0
H1731 H 0.05629 0.31462 0.79309 0.0
H1732 H -0.00321 0.27073 0.81036 0.0
H1733 H 0.02142 0.30515 0.71251 0.0
C1734 C -0.00285 0.29131 0.68841 0.0
C1735 C 0.98058 0.27769 0.69075 0.0
C1736 C 0.00988 0.2802 0.80644 0.0
C1737 C 0.00391 0.28392 0.74409 0.0
C1738 C 0.02096 0.28544 0.83473 0.0
C1739 C 0.0379 0.29811 0.83077 0.0
C1740 C 0.01569 0.28784 0.77395 0.0
C1741 C 0.04337 0.30482 0.79748 0.0
C1742 C 0.00883 0.29438 0.71474 0.0
C1743 C 0.97632 0.26714 0.7199 0.0
N1744 N 0.03229 0.29976 0.77056 0.0
N1745 N 0.98783 0.27058 0.74558 0.0
H1746 H 0.29849 0.24258 0.21809 0.0
H1747 H 0.24488 0.28469 0.28267 0.0
H1748 H 0.28668 0.27328 0.15211 0.0
H1749 H 0.27835 0.27725 0.34945 0.0
H1750 H 0.25306 0.27285 0.23427 0.0
H1751 H 0.28392 0.24759 0.26603 0.0
C1752 C 0.29252 0.25006 0.21348 0.0
C1753 C 0.2939 0.25764 0.18116 0.0
C1754 C 0.25839 0.2736 0.25968 0.0
C1755 C 0.27717 0.26328 0.23567 0.0
C1756 C 0.25367 0.28024 0.28731 0.0
C1757 C 0.26106 0.28206 0.32003 0.0
C1758 C 0.2703 0.26843 0.26504 0.0
C1759 C 0.27247 0.2762 0.32456 0.0
C1760 C 0.28432 0.25299 0.24087 0.0
C1761 C 0.28603 0.26732 0.1767 0.0
N1762 N 0.27676 0.26967 0.29737 0.0
N1763 N 0.27803 0.2699 0.20367 0.0
H1764 H 0.72411 0.00674 0.15532 0.0
H1765 H 0.69676 -0.00314 0.35262 0.0
H1766 H 0.73862 0.04952 0.22258 0.0
H1767 H 0.69719 0.95662 0.29521 0.0
H1768 H 0.712 0.0163 0.3053 0.0
H1769 H 0.71425 0.98812 0.20583 0.0
C1770 C 0.72541 0.01225 0.18076 0.0
C1771 C 0.73215 0.02973 0.18467 0.0
C1772 C 0.70893 0.00327 0.30317 0.0
C1773 C 0.7206 0.00841 0.24262 0.0
C1774 C 0.70019 0.99213 0.33017 0.0
C1775 C 0.69562 0.97505 0.32785 0.0
C1776 C 0.71291 -0.00275 0.27323 0.0
C1777 C 0.70047 0.96968 0.29814 0.0
C1778 C 0.71978 0.0016 0.2096 0.0
C1779 C 0.73354 0.03614 0.21831 0.0
N1780 N 0.70865 0.98068 0.27181 0.0
N1781 N 0.7276 0.02547 0.2459 0.0
H1782 H 0.98979 0.70634 0.35663 0.0
H1783 H 0.98074 0.71993 0.15732 0.0
H1784 H 0.03162 0.74313 0.29606 0.0
H1785 H 0.93805 0.69728 0.2263 0.0
H1786 H -0.0004 0.72945 0.20753 0.0
H1787 H 0.97063 0.70339 0.30956 0.0
C1788 C -0.00506 0.71394 0.33356 0.0
C1789 C 0.01237 0.72495 0.33026 0.0
C1790 C 0.98611 0.72266 0.21172 0.0
C1791 C 0.99046 0.72142 0.27589 0.0
C1792 C 0.97531 0.71725 0.18303 0.0
C1793 C 0.95776 0.70773 0.18754 0.0
C1794 C 0.97934 0.71823 0.24523 0.0
C1795 C 0.95148 0.70462 0.22153 0.0
C1796 C 0.98397 0.71228 0.3067 0.0
C1797 C 0.01829 0.7345 0.29976 0.0
N1798 N 0.96225 0.70958 0.24901 0.0
N1799 N 0.0074 0.73234 0.27357 0.0
loop_
_geom_bond_atom_site_label_1
_geom_bond_atom_site_label_2
_geom_bond_distance
_geom_bond_site_symmetry_2
_ccdc_geom_bond_type
O0 Cd1 2.223 . S
O0 C8 1.315 . S
Cd1 O0 2.223 . S
Cd1 O4 2.297 . S
Cd1 O5 2.439 . S
Cd1 O11 2.240 . S
Cd2 O3 2.240 . S
Cd2 O10 2.223 . S
Cd2 O12 2.297 . S
Cd2 O13 2.439 . S
O3 Cd2 2.240 . S
O3 C8 1.279 . S
O4 Cd1 2.297 . S
O4 C6 1.247 . S
O5 Cd1 2.439 . S
O5 C6 1.208 . S
C6 O4 1.247 . S
C6 O5 1.208 . S
C7 O12 1.247 . S
C7 O13 1.208 . S
C8 O0 1.315 . S
C8 O3 1.279 . S
C9 O10 1.315 . S
C9 O11 1.279 . S
O10 Cd2 2.223 . S
O10 C9 1.315 . S
O11 Cd1 2.240 . S
O11 C9 1.279 . S
O12 Cd2 2.297 . S
O12 C7 1.247 . S
O13 Cd2 2.439 . S
O13 C7 1.208 . S
O14 Cd15 2.223 . S
O14 C22 1.315 . S
Cd15 O14 2.223 . S
Cd15 O18 2.297 . S
Cd15 O19 2.439 . S
Cd15 O25 2.240 . S
Cd16 O17 2.240 . S
Cd16 O24 2.223 . S
Cd16 O26 2.297 . S
Cd16 O27 2.439 . S
O17 Cd16 2.240 . S
O17 C22 1.279 . S
O18 Cd15 2.297 . S
O18 C20 1.247 . S
O19 Cd15 2.439 . S
O19 C20 1.208 . S
C20 O18 1.247 . S
C20 O19 1.208 . S
C21 O26 1.247 . S
C21 O27 1.208 . S
C22 O14 1.315 . S
C22 O17 1.279 . S
C23 O24 1.315 . S
C23 O25 1.279 . S
O24 Cd16 2.223 . S
O24 C23 1.315 . S
O25 Cd15 2.240 . S
O25 C23 1.279 . S
O26 Cd16 2.297 . S
O26 C21 1.247 . S
O27 Cd16 2.439 . S
O27 C21 1.208 . S
O28 Cd29 2.223 . S
O28 C36 1.315 . S
Cd29 O28 2.223 . S
Cd29 O32 2.297 . S
Cd29 O33 2.439 . S
Cd29 O39 2.240 . S
Cd30 O31 2.240 . S
Cd30 O38 2.223 . S
Cd30 O40 2.297 . S
Cd30 O41 2.439 . S
O31 Cd30 2.240 . S
O31 C36 1.279 . S
O32 Cd29 2.297 . S
O32 C34 1.247 . S
O33 Cd29 2.439 . S
O33 C34 1.208 . S
C34 O32 1.247 . S
C34 O33 1.208 . S
C35 O40 1.247 . S
C35 O41 1.208 . S
C36 O28 1.315 . S
C36 O31 1.279 . S
C37 O38 1.315 . S
C37 O39 1.279 . S
O38 Cd30 2.223 . S
O38 C37 1.315 . S
O39 Cd29 2.240 . S
O39 C37 1.279 . S
O40 Cd30 2.297 . S
O40 C35 1.247 . S
O41 Cd30 2.439 . S
O41 C35 1.208 . S
O42 Cd43 2.223 . S
O42 C50 1.315 . S
Cd43 O42 2.223 . S
Cd43 O46 2.297 . S
Cd43 O47 2.439 . S
Cd43 O53 2.240 . S
Cd44 O45 2.240 . S
Cd44 O52 2.223 . S
Cd44 O54 2.297 . S
Cd44 O55 2.439 . S
O45 Cd44 2.240 . S
O45 C50 1.279 . S
O46 Cd43 2.297 . S
O46 C48 1.247 . S
O47 Cd43 2.439 . S
O47 C48 1.208 . S
C48 O46 1.247 . S
C48 O47 1.208 . S
C49 O54 1.247 . S
C49 O55 1.208 . S
C50 O42 1.315 . S
C50 O45 1.279 . S
C51 O52 1.315 . S
C51 O53 1.279 . S
O52 Cd44 2.223 . S
O52 C51 1.315 . S
O53 Cd43 2.240 . S
O53 C51 1.279 . S
O54 Cd44 2.297 . S
O54 C49 1.247 . S
O55 Cd44 2.439 . S
O55 C49 1.208 . S
O56 Cd57 2.223 . S
O56 C64 1.315 . S
Cd57 O56 2.223 . S
Cd57 O60 2.297 . S
Cd57 O61 2.439 . S
Cd57 O67 2.240 . S
Cd58 O59 2.240 . S
Cd58 O66 2.223 . S
Cd58 O68 2.297 . S
Cd58 O69 2.439 . S
O59 Cd58 2.240 . S
O59 C64 1.279 . S
O60 Cd57 2.297 . S
O60 C62 1.247 . S
O61 Cd57 2.439 . S
O61 C62 1.208 . S
C62 O60 1.247 . S
C62 O61 1.208 . S
C63 O68 1.247 . S
C63 O69 1.208 . S
C64 O56 1.315 . S
C64 O59 1.279 . S
C65 O66 1.315 . S
C65 O67 1.279 . S
O66 Cd58 2.223 . S
O66 C65 1.315 . S
O67 Cd57 2.240 . S
O67 C65 1.279 . S
O68 Cd58 2.297 . S
O68 C63 1.247 . S
O69 Cd58 2.439 . S
O69 C63 1.208 . S
O70 Cd71 2.223 . S
O70 C78 1.315 . S
Cd71 O70 2.223 . S
Cd71 O74 2.297 . S
Cd71 O75 2.439 . S
Cd71 O81 2.240 . S
Cd72 O73 2.240 . S
Cd72 O80 2.223 . S
Cd72 O82 2.297 . S
Cd72 O83 2.439 . S
O73 Cd72 2.240 . S
O73 C78 1.279 . S
O74 Cd71 2.297 . S
O74 C76 1.247 . S
O75 Cd71 2.439 . S
O75 C76 1.208 . S
C76 O74 1.247 . S
C76 O75 1.208 . S
C77 O82 1.247 . S
C77 O83 1.208 . S
C78 O70 1.315 . S
C78 O73 1.279 . S
C79 O80 1.315 . S
C79 O81 1.279 . S
O80 Cd72 2.223 . S
O80 C79 1.315 . S
O81 Cd71 2.240 . S
O81 C79 1.279 . S
O82 Cd72 2.297 . S
O82 C77 1.247 . S
O83 Cd72 2.439 . S
O83 C77 1.208 . S
O84 Cd85 2.223 . S
O84 C92 1.315 . S
Cd85 O84 2.223 . S
Cd85 O88 2.297 . S
Cd85 O89 2.439 . S
Cd85 O95 2.240 . S
Cd86 O87 2.240 . S
Cd86 O94 2.223 . S
Cd86 O96 2.297 . S
Cd86 O97 2.439 . S
O87 Cd86 2.240 . S
O87 C92 1.279 . S
O88 Cd85 2.297 . S
O88 C90 1.247 . S
O89 Cd85 2.439 . S
O89 C90 1.208 . S
C90 O88 1.247 . S
C90 O89 1.208 . S
C91 O96 1.247 . S
C91 O97 1.208 . S
C92 O84 1.315 . S
C92 O87 1.279 . S
C93 O94 1.315 . S
C93 O95 1.279 . S
O94 Cd86 2.223 . S
O94 C93 1.315 . S
O95 Cd85 2.240 . S
O95 C93 1.279 . S
O96 Cd86 2.297 . S
O96 C91 1.247 . S
O97 Cd86 2.439 . S
O97 C91 1.208 . S
O98 Cd99 2.223 . S
O98 C106 1.315 . S
Cd99 O98 2.223 . S
Cd99 O102 2.297 . S
Cd99 O103 2.439 . S
Cd99 O109 2.240 . S
Cd100 O101 2.240 . S
Cd100 O108 2.223 . S
Cd100 O110 2.297 . S
Cd100 O111 2.439 . S
O101 Cd100 2.240 . S
O101 C106 1.279 . S
O102 Cd99 2.297 . S
O102 C104 1.247 . S
O103 Cd99 2.439 . S
O103 C104 1.208 . S
C104 O102 1.247 . S
C104 O103 1.208 . S
C105 O110 1.247 . S
C105 O111 1.208 . S
C106 O98 1.315 . S
C106 O101 1.279 . S
C107 O108 1.315 . S
C107 O109 1.279 . S
O108 Cd100 2.223 . S
O108 C107 1.315 . S
O109 Cd99 2.240 . S
O109 C107 1.279 . S
O110 Cd100 2.297 . S
O110 C105 1.247 . S
O111 Cd100 2.439 . S
O111 C105 1.208 . S
O112 Cd113 2.223 . S
O112 C120 1.315 . S
Cd113 O112 2.223 . S
Cd113 O116 2.297 . S
Cd113 O117 2.439 . S
Cd113 O123 2.240 . S
Cd114 O115 2.240 . S
Cd114 O122 2.223 . S
Cd114 O124 2.297 . S
Cd114 O125 2.439 . S
O115 Cd114 2.240 . S
O115 C120 1.279 . S
O116 Cd113 2.297 . S
O116 C118 1.247 . S
O117 Cd113 2.439 . S
O117 C118 1.208 . S
C118 O116 1.247 . S
C118 O117 1.208 . S
C119 O124 1.247 . S
C119 O125 1.208 . S
C120 O112 1.315 . S
C120 O115 1.279 . S
C121 O122 1.315 . S
C121 O123 1.279 . S
O122 Cd114 2.223 . S
O122 C121 1.315 . S
O123 Cd113 2.240 . S
O123 C121 1.279 . S
O124 Cd114 2.297 . S
O124 C119 1.247 . S
O125 Cd114 2.439 . S
O125 C119 1.208 . S
O126 Cd127 2.223 . S
O126 C134 1.315 . S
Cd127 O126 2.223 . S
Cd127 O130 2.297 . S
Cd127 O131 2.439 . S
Cd127 O137 2.240 . S
Cd128 O129 2.240 . S
Cd128 O136 2.223 . S
Cd128 O138 2.297 . S
Cd128 O139 2.439 . S
O129 Cd128 2.240 . S
O129 C134 1.279 . S
O130 Cd127 2.297 . S
O130 C132 1.247 . S
O131 Cd127 2.439 . S
O131 C132 1.208 . S
C132 O130 1.247 . S
C132 O131 1.208 . S
C133 O138 1.247 . S
C133 O139 1.208 . S
C134 O126 1.315 . S
C134 O129 1.279 . S
C135 O136 1.315 . S
C135 O137 1.279 . S
O136 Cd128 2.223 . S
O136 C135 1.315 . S
O137 Cd127 2.240 . S
O137 C135 1.279 . S
O138 Cd128 2.297 . S
O138 C133 1.247 . S
O139 Cd128 2.439 . S
O139 C133 1.208 . S
O140 Cd141 2.223 . S
O140 C148 1.315 . S
Cd141 O140 2.223 . S
Cd141 O144 2.297 . S
Cd141 O145 2.439 . S
Cd141 O151 2.240 . S
Cd142 O143 2.240 . S
Cd142 O150 2.223 . S
Cd142 O152 2.297 . S
Cd142 O153 2.439 . S
O143 Cd142 2.240 . S
O143 C148 1.279 . S
O144 Cd141 2.297 . S
O144 C146 1.247 . S
O145 Cd141 2.439 . S
O145 C146 1.208 . S
C146 O144 1.247 . S
C146 O145 1.208 . S
C147 O152 1.247 . S
C147 O153 1.208 . S
C148 O140 1.315 . S
C148 O143 1.279 . S
C149 O150 1.315 . S
C149 O151 1.279 . S
O150 Cd142 2.223 . S
O150 C149 1.315 . S
O151 Cd141 2.240 . S
O151 C149 1.279 . S
O152 Cd142 2.297 . S
O152 C147 1.247 . S
O153 Cd142 2.439 . S
O153 C147 1.208 . S
O154 Cd155 2.223 . S
O154 C162 1.315 . S
Cd155 O154 2.223 . S
Cd155 O158 2.297 . S
Cd155 O159 2.439 . S
Cd155 O165 2.240 . S
Cd156 O157 2.240 . S
Cd156 O164 2.223 . S
Cd156 O166 2.297 . S
Cd156 O167 2.439 . S
O157 Cd156 2.240 . S
O157 C162 1.279 . S
O158 Cd155 2.297 . S
O158 C160 1.247 . S
O159 Cd155 2.439 . S
O159 C160 1.208 . S
C160 O158 1.247 . S
C160 O159 1.208 . S
C161 O166 1.247 . S
C161 O167 1.208 . S
C162 O154 1.315 . S
C162 O157 1.279 . S
C163 O164 1.315 . S
C163 O165 1.279 . S
O164 Cd156 2.223 . S
O164 C163 1.315 . S
O165 Cd155 2.240 . S
O165 C163 1.279 . S
O166 Cd156 2.297 . S
O166 C161 1.247 . S
O167 Cd156 2.439 . S
O167 C161 1.208 . S
O168 Cd169 2.223 1_455 S
O168 C176 1.313 . S
Cd169 O168 2.223 1_655 S
Cd169 O172 2.297 . S
Cd169 O173 2.439 1_655 S
Cd169 O179 2.240 1_655 S
Cd170 O171 2.240 . S
Cd170 O178 2.223 . S
Cd170 O180 2.297 . S
Cd170 O181 2.439 . S
O171 Cd170 2.240 . S
O171 C176 1.279 . S
O172 Cd169 2.297 . S
O172 C174 1.247 1_655 S
O173 Cd169 2.439 1_455 S
O173 C174 1.208 . S
C174 O172 1.247 1_455 S
C174 O173 1.208 . S
C175 O180 1.247 . S
C175 O181 1.208 . S
C176 O168 1.313 . S
C176 O171 1.279 . S
C177 O178 1.315 . S
C177 O179 1.279 . S
O178 Cd170 2.223 . S
O178 C177 1.315 . S
O179 Cd169 2.240 1_455 S
O179 C177 1.279 . S
O180 Cd170 2.297 . S
O180 C175 1.247 . S
O181 Cd170 2.439 . S
O181 C175 1.208 . S
O182 Cd183 2.223 . S
O182 C190 1.315 . S
Cd183 O182 2.223 . S
Cd183 O186 2.297 . S
Cd183 O187 2.439 . S
Cd183 O193 2.240 . S
Cd184 O185 2.240 . S
Cd184 O192 2.223 . S
Cd184 O194 2.297 . S
Cd184 O195 2.439 . S
O185 Cd184 2.240 . S
O185 C190 1.279 . S
O186 Cd183 2.297 . S
O186 C188 1.247 . S
O187 Cd183 2.439 . S
O187 C188 1.208 . S
C188 O186 1.247 . S
C188 O187 1.208 . S
C189 O194 1.247 . S
C189 O195 1.208 . S
C190 O182 1.315 . S
C190 O185 1.279 . S
C191 O192 1.315 . S
C191 O193 1.279 . S
O192 Cd184 2.223 . S
O192 C191 1.315 . S
O193 Cd183 2.240 . S
O193 C191 1.279 . S
O194 Cd184 2.297 . S
O194 C189 1.247 . S
O195 Cd184 2.439 . S
O195 C189 1.208 . S
O196 Cd197 2.223 1_565 S
O196 C204 1.316 . S
Cd197 O196 2.223 1_545 S
Cd197 O200 2.297 . S
Cd197 O201 2.439 1_545 S
Cd197 O207 2.240 1_545 S
Cd198 O199 2.240 . S
Cd198 O206 2.223 . S
Cd198 O208 2.297 . S
Cd198 O209 2.439 . S
O199 Cd198 2.240 . S
O199 C204 1.279 . S
O200 Cd197 2.297 . S
O200 C202 1.247 1_545 S
O201 Cd197 2.439 1_565 S
O201 C202 1.208 . S
C202 O200 1.247 1_565 S
C202 O201 1.208 . S
C203 O208 1.247 . S
C203 O209 1.208 . S
C204 O196 1.316 . S
C204 O199 1.279 . S
C205 O206 1.315 . S
C205 O207 1.279 . S
O206 Cd198 2.223 . S
O206 C205 1.315 . S
O207 Cd197 2.240 1_565 S
O207 C205 1.279 . S
O208 Cd198 2.297 . S
O208 C203 1.247 . S
O209 Cd198 2.439 . S
O209 C203 1.208 . S
O210 Cd211 2.223 . S
O210 C218 1.315 . S
Cd211 O210 2.223 . S
Cd211 O214 2.297 . S
Cd211 O215 2.439 . S
Cd211 O221 2.240 . S
Cd212 O213 2.240 . S
Cd212 O220 2.223 . S
Cd212 O222 2.297 . S
Cd212 O223 2.439 . S
O213 Cd212 2.240 . S
O213 C218 1.279 . S
O214 Cd211 2.297 . S
O214 C216 1.247 . S
O215 Cd211 2.439 . S
O215 C216 1.208 . S
C216 O214 1.247 . S
C216 O215 1.208 . S
C217 O222 1.247 . S
C217 O223 1.208 . S
C218 O210 1.315 . S
C218 O213 1.279 . S
C219 O220 1.315 . S
C219 O221 1.279 . S
O220 Cd212 2.223 . S
O220 C219 1.315 . S
O221 Cd211 2.240 . S
O221 C219 1.279 . S
O222 Cd212 2.297 . S
O222 C217 1.247 . S
O223 Cd212 2.439 . S
O223 C217 1.208 . S
O224 Cd225 2.223 . S
O224 C232 1.315 . S
Cd225 O224 2.223 . S
Cd225 O228 2.297 . S
Cd225 O229 2.439 . S
Cd225 O235 2.240 . S
Cd226 O227 2.240 . S
Cd226 O234 2.223 . S
Cd226 O236 2.297 . S
Cd226 O237 2.439 . S
O227 Cd226 2.240 . S
O227 C232 1.279 . S
O228 Cd225 2.297 . S
O228 C230 1.247 . S
O229 Cd225 2.439 . S
O229 C230 1.208 . S
C230 O228 1.247 . S
C230 O229 1.208 . S
C231 O236 1.247 . S
C231 O237 1.208 . S
C232 O224 1.315 . S
C232 O227 1.279 . S
C233 O234 1.315 . S
C233 O235 1.279 . S
O234 Cd226 2.223 . S
O234 C233 1.315 . S
O235 Cd225 2.240 . S
O235 C233 1.279 . S
O236 Cd226 2.297 . S
O236 C231 1.247 . S
O237 Cd226 2.439 . S
O237 C231 1.208 . S
O238 Cd239 2.223 . S
O238 C246 1.315 . S
Cd239 O238 2.223 . S
Cd239 O242 2.297 . S
Cd239 O243 2.439 . S
Cd239 O249 2.240 . S
Cd240 O241 2.240 . S
Cd240 O248 2.223 . S
Cd240 O250 2.297 . S
Cd240 O251 2.439 . S
O241 Cd240 2.240 . S
O241 C246 1.279 . S
O242 Cd239 2.297 . S
O242 C244 1.247 . S
O243 Cd239 2.439 . S
O243 C244 1.208 . S
C244 O242 1.247 . S
C244 O243 1.208 . S
C245 O250 1.247 . S
C245 O251 1.208 . S
C246 O238 1.315 . S
C246 O241 1.279 . S
C247 O248 1.315 . S
C247 O249 1.279 . S
O248 Cd240 2.223 . S
O248 C247 1.315 . S
O249 Cd239 2.240 . S
O249 C247 1.279 . S
O250 Cd240 2.297 . S
O250 C245 1.247 . S
O251 Cd240 2.439 . S
O251 C245 1.208 . S
O252 Cd253 2.223 . S
O252 C260 1.315 . S
Cd253 O252 2.223 . S
Cd253 O256 2.297 . S
Cd253 O257 2.439 . S
Cd253 O263 2.240 . S
Cd254 O255 2.240 . S
Cd254 O262 2.223 . S
Cd254 O264 2.297 . S
Cd254 O265 2.439 . S
O255 Cd254 2.240 . S
O255 C260 1.279 . S
O256 Cd253 2.297 . S
O256 C258 1.247 . S
O257 Cd253 2.439 . S
O257 C258 1.208 . S
C258 O256 1.247 . S
C258 O257 1.208 . S
C259 O264 1.247 . S
C259 O265 1.208 . S
C260 O252 1.315 . S
C260 O255 1.279 . S
C261 O262 1.315 . S
C261 O263 1.279 . S
O262 Cd254 2.223 . S
O262 C261 1.315 . S
O263 Cd253 2.240 . S
O263 C261 1.279 . S
O264 Cd254 2.297 . S
O264 C259 1.247 . S
O265 Cd254 2.439 . S
O265 C259 1.208 . S
O266 Cd267 2.223 . S
O266 C274 1.315 . S
Cd267 O266 2.223 . S
Cd267 O270 2.297 . S
Cd267 O271 2.439 . S
Cd267 O277 2.240 . S
Cd268 O269 2.240 . S
Cd268 O276 2.223 . S
Cd268 O278 2.297 . S
Cd268 O279 2.439 . S
O269 Cd268 2.240 . S
O269 C274 1.279 . S
O270 Cd267 2.297 . S
O270 C272 1.247 . S
O271 Cd267 2.439 . S
O271 C272 1.208 . S
C272 O270 1.247 . S
C272 O271 1.208 . S
C273 O278 1.247 . S
C273 O279 1.208 . S
C274 O266 1.315 . S
C274 O269 1.279 . S
C275 O276 1.315 . S
C275 O277 1.279 . S
O276 Cd268 2.223 . S
O276 C275 1.315 . S
O277 Cd267 2.240 . S
O277 C275 1.279 . S
O278 Cd268 2.297 . S
O278 C273 1.247 . S
O279 Cd268 2.439 . S
O279 C273 1.208 . S
O280 Cd281 2.223 . S
O280 C288 1.315 . S
Cd281 O280 2.223 . S
Cd281 O284 2.297 . S
Cd281 O285 2.439 . S
Cd281 O291 2.240 . S
Cd282 O283 2.240 . S
Cd282 O290 2.223 . S
Cd282 O292 2.297 . S
Cd282 O293 2.439 . S
O283 Cd282 2.240 . S
O283 C288 1.279 . S
O284 Cd281 2.297 . S
O284 C286 1.247 . S
O285 Cd281 2.439 . S
O285 C286 1.208 . S
C286 O284 1.247 . S
C286 O285 1.208 . S
C287 O292 1.247 . S
C287 O293 1.208 . S
C288 O280 1.315 . S
C288 O283 1.279 . S
C289 O290 1.315 . S
C289 O291 1.279 . S
O290 Cd282 2.223 . S
O290 C289 1.315 . S
O291 Cd281 2.240 . S
O291 C289 1.279 . S
O292 Cd282 2.297 . S
O292 C287 1.247 . S
O293 Cd282 2.439 . S
O293 C287 1.208 . S
O294 Cd295 2.223 1_565 S
O294 C302 1.313 . S
Cd295 O294 2.223 1_545 S
Cd295 O298 2.297 . S
Cd295 O299 2.439 1_545 S
Cd295 O305 2.240 1_545 S
Cd296 O297 2.240 . S
Cd296 O304 2.223 . S
Cd296 O306 2.297 . S
Cd296 O307 2.439 . S
O297 Cd296 2.240 . S
O297 C302 1.279 . S
O298 Cd295 2.297 . S
O298 C300 1.247 1_545 S
O299 Cd295 2.439 1_565 S
O299 C300 1.208 . S
C300 O298 1.247 1_565 S
C300 O299 1.208 . S
C301 O306 1.247 . S
C301 O307 1.208 . S
C302 O294 1.313 . S
C302 O297 1.279 . S
C303 O304 1.315 . S
C303 O305 1.279 . S
O304 Cd296 2.223 . S
O304 C303 1.315 . S
O305 Cd295 2.240 1_565 S
O305 C303 1.279 . S
O306 Cd296 2.297 . S
O306 C301 1.247 . S
O307 Cd296 2.439 . S
O307 C301 1.208 . S
O308 Cd309 2.223 1_455 S
O308 C316 1.316 . S
Cd309 O308 2.223 1_655 S
Cd309 O312 2.297 . S
Cd309 O313 2.439 1_655 S
Cd309 O319 2.240 1_655 S
Cd310 O311 2.240 . S
Cd310 O318 2.223 . S
Cd310 O320 2.297 . S
Cd310 O321 2.439 . S
O311 Cd310 2.240 . S
O311 C316 1.279 . S
O312 Cd309 2.297 . S
O312 C314 1.247 1_655 S
O313 Cd309 2.439 1_455 S
O313 C314 1.208 . S
C314 O312 1.247 1_455 S
C314 O313 1.208 . S
C315 O320 1.247 . S
C315 O321 1.208 . S
C316 O308 1.316 . S
C316 O311 1.279 . S
C317 O318 1.315 . S
C317 O319 1.279 . S
O318 Cd310 2.223 . S
O318 C317 1.315 . S
O319 Cd309 2.240 1_455 S
O319 C317 1.279 . S
O320 Cd310 2.297 . S
O320 C315 1.247 . S
O321 Cd310 2.439 . S
O321 C315 1.208 . S
O322 Cd323 2.223 . S
O322 C330 1.315 . S
Cd323 O322 2.223 . S
Cd323 O326 2.297 . S
Cd323 O327 2.439 . S
Cd323 O333 2.240 . S
Cd324 O325 2.240 . S
Cd324 O332 2.223 . S
Cd324 O334 2.297 . S
Cd324 O335 2.439 . S
O325 Cd324 2.240 . S
O325 C330 1.279 . S
O326 Cd323 2.297 . S
O326 C328 1.247 . S
O327 Cd323 2.439 . S
O327 C328 1.208 . S
C328 O326 1.247 . S
C328 O327 1.208 . S
C329 O334 1.247 . S
C329 O335 1.208 . S
C330 O322 1.315 . S
C330 O325 1.279 . S
C331 O332 1.315 . S
C331 O333 1.279 . S
O332 Cd324 2.223 . S
O332 C331 1.315 . S
O333 Cd323 2.240 . S
O333 C331 1.279 . S
O334 Cd324 2.297 . S
O334 C329 1.247 . S
O335 Cd324 2.439 . S
O335 C329 1.208 . S
O336 Cd337 2.223 . S
O336 C344 1.315 . S
Cd337 O336 2.223 . S
Cd337 O340 2.297 . S
Cd337 O341 2.439 . S
Cd337 O347 2.240 . S
Cd338 O339 2.240 . S
Cd338 O346 2.223 . S
Cd338 O348 2.297 . S
Cd338 O349 2.439 . S
O339 Cd338 2.240 . S
O339 C344 1.279 . S
O340 Cd337 2.297 . S
O340 C342 1.247 . S
O341 Cd337 2.439 . S
O341 C342 1.208 . S
C342 O340 1.247 . S
C342 O341 1.208 . S
C343 O348 1.247 . S
C343 O349 1.208 . S
C344 O336 1.315 . S
C344 O339 1.279 . S
C345 O346 1.315 . S
C345 O347 1.279 . S
O346 Cd338 2.223 . S
O346 C345 1.315 . S
O347 Cd337 2.240 . S
O347 C345 1.279 . S
O348 Cd338 2.297 . S
O348 C343 1.247 . S
O349 Cd338 2.439 . S
O349 C343 1.208 . S
O350 Cd351 2.223 . S
O350 C358 1.315 . S
Cd351 O350 2.223 . S
Cd351 O354 2.297 . S
Cd351 O355 2.439 . S
Cd351 O361 2.240 . S
Cd352 O353 2.240 . S
Cd352 O360 2.223 . S
Cd352 O362 2.297 . S
Cd352 O363 2.439 . S
O353 Cd352 2.240 . S
O353 C358 1.279 . S
O354 Cd351 2.297 . S
O354 C356 1.247 . S
O355 Cd351 2.439 . S
O355 C356 1.208 . S
C356 O354 1.247 . S
C356 O355 1.208 . S
C357 O362 1.247 . S
C357 O363 1.208 . S
C358 O350 1.315 . S
C358 O353 1.279 . S
C359 O360 1.315 . S
C359 O361 1.279 . S
O360 Cd352 2.223 . S
O360 C359 1.315 . S
O361 Cd351 2.240 . S
O361 C359 1.279 . S
O362 Cd352 2.297 . S
O362 C357 1.247 . S
O363 Cd352 2.439 . S
O363 C357 1.208 . S
O364 Cd365 2.223 . S
O364 C372 1.315 . S
Cd365 O364 2.223 . S
Cd365 O368 2.297 . S
Cd365 O369 2.439 . S
Cd365 O375 2.240 . S
Cd366 O367 2.240 . S
Cd366 O374 2.223 . S
Cd366 O376 2.297 . S
Cd366 O377 2.439 . S
O367 Cd366 2.240 . S
O367 C372 1.279 . S
O368 Cd365 2.297 . S
O368 C370 1.247 . S
O369 Cd365 2.439 . S
O369 C370 1.208 . S
C370 O368 1.247 . S
C370 O369 1.208 . S
C371 O376 1.247 . S
C371 O377 1.208 . S
C372 O364 1.315 . S
C372 O367 1.279 . S
C373 O374 1.315 . S
C373 O375 1.279 . S
O374 Cd366 2.223 . S
O374 C373 1.315 . S
O375 Cd365 2.240 . S
O375 C373 1.279 . S
O376 Cd366 2.297 . S
O376 C371 1.247 . S
O377 Cd366 2.439 . S
O377 C371 1.208 . S
O378 Cd379 2.223 1_545 S
O378 C386 1.313 . S
Cd379 O378 2.223 1_565 S
Cd379 O382 2.297 . S
Cd379 O383 2.439 1_565 S
Cd379 O389 2.240 1_565 S
Cd380 O381 2.240 . S
Cd380 O388 2.223 . S
Cd380 O390 2.297 . S
Cd380 O391 2.439 . S
O381 Cd380 2.240 . S
O381 C386 1.279 . S
O382 Cd379 2.297 . S
O382 C384 1.247 1_565 S
O383 Cd379 2.439 1_545 S
O383 C384 1.208 . S
C384 O382 1.247 1_545 S
C384 O383 1.208 . S
C385 O390 1.247 . S
C385 O391 1.208 . S
C386 O378 1.313 . S
C386 O381 1.279 . S
C387 O388 1.315 . S
C387 O389 1.279 . S
O388 Cd380 2.223 . S
O388 C387 1.315 . S
O389 Cd379 2.240 1_545 S
O389 C387 1.279 . S
O390 Cd380 2.297 . S
O390 C385 1.247 . S
O391 Cd380 2.439 . S
O391 C385 1.208 . S
O392 Cd393 2.223 1_655 S
O392 C400 1.316 . S
Cd393 O392 2.223 1_455 S
Cd393 O396 2.297 . S
Cd393 O397 2.439 1_455 S
Cd393 O403 2.240 1_455 S
Cd394 O395 2.240 . S
Cd394 O402 2.223 . S
Cd394 O404 2.297 . S
Cd394 O405 2.439 . S
O395 Cd394 2.240 . S
O395 C400 1.279 . S
O396 Cd393 2.297 . S
O396 C398 1.247 1_455 S
O397 Cd393 2.439 1_655 S
O397 C398 1.208 . S
C398 O396 1.247 1_655 S
C398 O397 1.208 . S
C399 O404 1.247 . S
C399 O405 1.208 . S
C400 O392 1.316 . S
C400 O395 1.279 . S
C401 O402 1.315 . S
C401 O403 1.279 . S
O402 Cd394 2.223 . S
O402 C401 1.315 . S
O403 Cd393 2.240 1_655 S
O403 C401 1.279 . S
O404 Cd394 2.297 . S
O404 C399 1.247 . S
O405 Cd394 2.439 . S
O405 C399 1.208 . S
O406 Cd407 2.223 . S
O406 C414 1.315 . S
Cd407 O406 2.223 . S
Cd407 O410 2.297 . S
Cd407 O411 2.439 . S
Cd407 O417 2.240 . S
Cd408 O409 2.240 . S
Cd408 O416 2.223 . S
Cd408 O418 2.297 . S
Cd408 O419 2.439 . S
O409 Cd408 2.240 . S
O409 C414 1.279 . S
O410 Cd407 2.297 . S
O410 C412 1.247 . S
O411 Cd407 2.439 . S
O411 C412 1.208 . S
C412 O410 1.247 . S
C412 O411 1.208 . S
C413 O418 1.247 . S
C413 O419 1.208 . S
C414 O406 1.315 . S
C414 O409 1.279 . S
C415 O416 1.315 . S
C415 O417 1.279 . S
O416 Cd408 2.223 . S
O416 C415 1.315 . S
O417 Cd407 2.240 . S
O417 C415 1.279 . S
O418 Cd408 2.297 . S
O418 C413 1.247 . S
O419 Cd408 2.439 . S
O419 C413 1.208 . S
O420 Cd421 2.223 1_655 S
O420 C428 1.313 . S
Cd421 O420 2.223 1_455 S
Cd421 O424 2.297 . S
Cd421 O425 2.439 1_455 S
Cd421 O431 2.240 1_455 S
Cd422 O423 2.240 . S
Cd422 O430 2.223 . S
Cd422 O432 2.297 . S
Cd422 O433 2.439 . S
O423 Cd422 2.240 . S
O423 C428 1.279 . S
O424 Cd421 2.297 . S
O424 C426 1.247 1_455 S
O425 Cd421 2.439 1_655 S
O425 C426 1.208 . S
C426 O424 1.247 1_655 S
C426 O425 1.208 . S
C427 O432 1.247 . S
C427 O433 1.208 . S
C428 O420 1.313 . S
C428 O423 1.279 . S
C429 O430 1.315 . S
C429 O431 1.279 . S
O430 Cd422 2.223 . S
O430 C429 1.315 . S
O431 Cd421 2.240 1_655 S
O431 C429 1.279 . S
O432 Cd422 2.297 . S
O432 C427 1.247 . S
O433 Cd422 2.439 . S
O433 C427 1.208 . S
O434 Cd435 2.223 . S
O434 C442 1.315 . S
Cd435 O434 2.223 . S
Cd435 O438 2.297 . S
Cd435 O439 2.439 . S
Cd435 O445 2.240 . S
Cd436 O437 2.240 . S
Cd436 O444 2.223 . S
Cd436 O446 2.297 . S
Cd436 O447 2.439 . S
O437 Cd436 2.240 . S
O437 C442 1.279 . S
O438 Cd435 2.297 . S
O438 C440 1.247 . S
O439 Cd435 2.439 . S
O439 C440 1.208 . S
C440 O438 1.247 . S
C440 O439 1.208 . S
C441 O446 1.247 . S
C441 O447 1.208 . S
C442 O434 1.315 . S
C442 O437 1.279 . S
C443 O444 1.315 . S
C443 O445 1.279 . S
O444 Cd436 2.223 . S
O444 C443 1.315 . S
O445 Cd435 2.240 . S
O445 C443 1.279 . S
O446 Cd436 2.297 . S
O446 C441 1.247 . S
O447 Cd436 2.439 . S
O447 C441 1.208 . S
O448 Cd449 2.223 1_545 S
O448 C456 1.316 . S
Cd449 O448 2.223 1_565 S
Cd449 O452 2.297 . S
Cd449 O453 2.439 1_565 S
Cd449 O459 2.240 1_565 S
Cd450 O451 2.240 . S
Cd450 O458 2.223 . S
Cd450 O460 2.297 . S
Cd450 O461 2.439 . S
O451 Cd450 2.240 . S
O451 C456 1.279 . S
O452 Cd449 2.297 . S
O452 C454 1.247 1_565 S
O453 Cd449 2.439 1_545 S
O453 C454 1.208 . S
C454 O452 1.247 1_545 S
C454 O453 1.208 . S
C455 O460 1.247 . S
C455 O461 1.208 . S
C456 O448 1.316 . S
C456 O451 1.279 . S
C457 O458 1.315 . S
C457 O459 1.279 . S
O458 Cd450 2.223 . S
O458 C457 1.315 . S
O459 Cd449 2.240 1_545 S
O459 C457 1.279 . S
O460 Cd450 2.297 . S
O460 C455 1.247 . S
O461 Cd450 2.439 . S
O461 C455 1.208 . S
O462 Cd463 2.223 . S
O462 C470 1.315 . S
Cd463 O462 2.223 . S
Cd463 O466 2.297 . S
Cd463 O467 2.439 . S
Cd463 O473 2.240 . S
Cd464 O465 2.240 . S
Cd464 O472 2.223 . S
Cd464 O474 2.297 . S
Cd464 O475 2.439 . S
O465 Cd464 2.240 . S
O465 C470 1.279 . S
O466 Cd463 2.297 . S
O466 C468 1.247 . S
O467 Cd463 2.439 . S
O467 C468 1.208 . S
C468 O466 1.247 . S
C468 O467 1.208 . S
C469 O474 1.247 . S
C469 O475 1.208 . S
C470 O462 1.315 . S
C470 O465 1.279 . S
C471 O472 1.315 . S
C471 O473 1.279 . S
O472 Cd464 2.223 . S
O472 C471 1.315 . S
O473 Cd463 2.240 . S
O473 C471 1.279 . S
O474 Cd464 2.297 . S
O474 C469 1.247 . S
O475 Cd464 2.439 . S
O475 C469 1.208 . S
O476 Cd477 2.223 . S
O476 C484 1.315 . S
Cd477 O476 2.223 . S
Cd477 O480 2.297 . S
Cd477 O481 2.439 . S
Cd477 O487 2.240 . S
Cd478 O479 2.240 . S
Cd478 O486 2.223 . S
Cd478 O488 2.297 . S
Cd478 O489 2.439 . S
O479 Cd478 2.240 . S
O479 C484 1.279 . S
O480 Cd477 2.297 . S
O480 C482 1.247 . S
O481 Cd477 2.439 . S
O481 C482 1.208 . S
C482 O480 1.247 . S
C482 O481 1.208 . S
C483 O488 1.247 . S
C483 O489 1.208 . S
C484 O476 1.315 . S
C484 O479 1.279 . S
C485 O486 1.315 . S
C485 O487 1.279 . S
O486 Cd478 2.223 . S
O486 C485 1.315 . S
O487 Cd477 2.240 . S
O487 C485 1.279 . S
O488 Cd478 2.297 . S
O488 C483 1.247 . S
O489 Cd478 2.439 . S
O489 C483 1.208 . S
O490 Cd491 2.223 . S
O490 C498 1.315 . S
Cd491 O490 2.223 . S
Cd491 O494 2.297 . S
Cd491 O495 2.439 . S
Cd491 O501 2.240 . S
Cd492 O493 2.240 . S
Cd492 O500 2.223 . S
Cd492 O502 2.297 . S
Cd492 O503 2.439 . S
O493 Cd492 2.240 . S
O493 C498 1.279 . S
O494 Cd491 2.297 . S
O494 C496 1.247 . S
O495 Cd491 2.439 . S
O495 C496 1.208 . S
C496 O494 1.247 . S
C496 O495 1.208 . S
C497 O502 1.247 . S
C497 O503 1.208 . S
C498 O490 1.315 . S
C498 O493 1.279 . S
C499 O500 1.315 . S
C499 O501 1.279 . S
O500 Cd492 2.223 . S
O500 C499 1.315 . S
O501 Cd491 2.240 . S
O501 C499 1.279 . S
O502 Cd492 2.297 . S
O502 C497 1.247 . S
O503 Cd492 2.439 . S
O503 C497 1.208 . S
H504 C510 0.930 . S
H505 C514 0.930 . S
H506 C519 0.929 . S
H507 C517 0.929 . S
H508 C512 0.929 . S
H509 C518 0.929 . S
C510 H504 0.930 . S
C510 C511 1.367 . S
C510 C518 1.378 . S
C511 C510 1.367 . S
C511 C519 1.433 . S
C512 H508 0.929 . S
C512 C514 1.378 . S
C512 C516 1.350 . S
C513 C516 1.463 1_565 S
C513 C518 1.350 . S
C513 N521 1.427 . S
C514 H505 0.930 . S
C514 C512 1.378 . S
C514 C515 1.367 . S
C515 C514 1.367 . S
C515 C517 1.433 . S
C516 C512 1.350 . S
C516 C513 1.463 1_545 S
C516 N520 1.427 . S
C517 H507 0.929 . S
C517 C515 1.433 . S
C517 N520 1.384 . S
C518 H509 0.929 . S
C518 C510 1.378 . S
C518 C513 1.350 . S
C519 H506 0.929 . S
C519 C511 1.433 . S
C519 N521 1.384 . S
N520 C516 1.427 . S
N520 C517 1.384 . S
N521 C513 1.427 . S
N521 C519 1.384 . S
H522 C528 0.930 . S
H523 C532 0.930 . S
H524 C537 0.929 . S
H525 C535 0.929 . S
H526 C530 0.929 . S
H527 C536 0.929 . S
C528 H522 0.930 . S
C528 C529 1.367 . S
C528 C536 1.378 . S
C529 C528 1.367 . S
C529 C537 1.433 . S
C530 H526 0.929 . S
C530 C532 1.378 . S
C530 C534 1.350 . S
C531 C534 1.463 1_455 S
C531 C536 1.350 . S
C531 N539 1.427 . S
C532 H523 0.930 . S
C532 C530 1.378 . S
C532 C533 1.367 . S
C533 C532 1.367 . S
C533 C535 1.433 . S
C534 C530 1.350 . S
C534 C531 1.463 1_655 S
C534 N538 1.427 . S
C535 H525 0.929 . S
C535 C533 1.433 . S
C535 N538 1.384 . S
C536 H527 0.929 . S
C536 C528 1.378 . S
C536 C531 1.350 . S
C537 H524 0.929 . S
C537 C529 1.433 . S
C537 N539 1.384 . S
N538 C534 1.427 . S
N538 C535 1.384 . S
N539 C531 1.427 . S
N539 C537 1.384 . S
H540 C546 0.930 . S
H541 C550 0.930 . S
H542 C555 0.929 . S
H543 C553 0.929 . S
H544 C548 0.929 . S
H545 C554 0.929 . S
C546 H540 0.930 . S
C546 C547 1.367 . S
C546 C554 1.378 . S
C547 C546 1.367 . S
C547 C555 1.433 . S
C548 H544 0.929 . S
C548 C550 1.378 . S
C548 C552 1.350 . S
C549 C552 1.463 . S
C549 C554 1.350 . S
C549 N557 1.427 . S
C550 H541 0.930 . S
C550 C548 1.378 . S
C550 C551 1.367 . S
C551 C550 1.367 . S
C551 C553 1.433 . S
C552 C548 1.350 . S
C552 C549 1.463 . S
C552 N556 1.427 . S
C553 H543 0.929 . S
C553 C551 1.433 . S
C553 N556 1.384 . S
C554 H545 0.929 . S
C554 C546 1.378 . S
C554 C549 1.350 . S
C555 H542 0.929 . S
C555 C547 1.433 . S
C555 N557 1.384 . S
N556 C552 1.427 . S
N556 C553 1.384 . S
N557 C549 1.427 . S
N557 C555 1.384 . S
H558 C564 0.930 . S
H559 C568 0.930 . S
H560 C573 0.929 . S
H561 C571 0.929 . S
H562 C566 0.929 . S
H563 C572 0.929 . S
C564 H558 0.930 . S
C564 C565 1.367 . S
C564 C572 1.378 . S
C565 C564 1.367 . S
C565 C573 1.433 . S
C566 H562 0.929 . S
C566 C568 1.378 . S
C566 C570 1.350 . S
C567 C570 1.463 1_565 S
C567 C572 1.350 . S
C567 N575 1.427 . S
C568 H559 0.930 . S
C568 C566 1.378 . S
C568 C569 1.367 . S
C569 C568 1.367 . S
C569 C571 1.433 . S
C570 C566 1.350 . S
C570 C567 1.463 1_545 S
C570 N574 1.427 . S
C571 H561 0.929 . S
C571 C569 1.433 . S
C571 N574 1.384 . S
C572 H563 0.929 . S
C572 C564 1.378 . S
C572 C567 1.350 . S
C573 H560 0.929 . S
C573 C565 1.433 . S
C573 N575 1.384 . S
N574 C570 1.427 . S
N574 C571 1.384 . S
N575 C567 1.427 . S
N575 C573 1.384 . S
H576 C582 0.930 . S
H577 C586 0.930 . S
H578 C591 0.929 . S
H579 C589 0.929 . S
H580 C584 0.929 . S
H581 C590 0.929 . S
C582 H576 0.930 . S
C582 C583 1.367 . S
C582 C590 1.378 . S
C583 C582 1.367 . S
C583 C591 1.433 . S
C584 H580 0.929 . S
C584 C586 1.378 . S
C584 C588 1.350 . S
C585 C588 1.463 1_455 S
C585 C590 1.350 . S
C585 N593 1.427 . S
C586 H577 0.930 . S
C586 C584 1.378 . S
C586 C587 1.367 . S
C587 C586 1.367 . S
C587 C589 1.433 . S
C588 C584 1.350 . S
C588 C585 1.463 1_655 S
C588 N592 1.427 . S
C589 H579 0.929 . S
C589 C587 1.433 . S
C589 N592 1.384 . S
C590 H581 0.929 . S
C590 C582 1.378 . S
C590 C585 1.350 . S
C591 H578 0.929 . S
C591 C583 1.433 . S
C591 N593 1.384 . S
N592 C588 1.427 . S
N592 C589 1.384 . S
N593 C585 1.427 . S
N593 C591 1.384 . S
H594 C600 0.930 . S
H595 C604 0.930 . S
H596 C609 0.929 . S
H597 C607 0.929 . S
H598 C602 0.929 . S
H599 C608 0.929 . S
C600 H594 0.930 . S
C600 C601 1.367 . S
C600 C608 1.378 . S
C601 C600 1.367 . S
C601 C609 1.433 . S
C602 H598 0.929 . S
C602 C604 1.378 . S
C602 C606 1.350 . S
C603 C606 1.463 . S
C603 C608 1.350 . S
C603 N611 1.427 . S
C604 H595 0.930 . S
C604 C602 1.378 . S
C604 C605 1.367 . S
C605 C604 1.367 . S
C605 C607 1.433 . S
C606 C602 1.350 . S
C606 C603 1.463 . S
C606 N610 1.427 . S
C607 H597 0.929 . S
C607 C605 1.433 . S
C607 N610 1.384 . S
C608 H599 0.929 . S
C608 C600 1.378 . S
C608 C603 1.350 . S
C609 H596 0.929 . S
C609 C601 1.433 . S
C609 N611 1.384 . S
N610 C606 1.427 . S
N610 C607 1.384 . S
N611 C603 1.427 . S
N611 C609 1.384 . S
H612 C618 0.930 . S
H613 C622 0.930 . S
H614 C627 0.929 1_455 S
H615 C625 0.929 . S
H616 C620 0.929 . S
H617 C626 0.929 . S
C618 H612 0.930 . S
C618 C619 1.367 . S
C618 C626 1.378 . S
C619 C618 1.367 . S
C619 C627 1.433 . S
C620 H616 0.929 . S
C620 C622 1.378 . S
C620 C624 1.350 . S
C621 C624 1.463 . S
C621 C626 1.350 . S
C621 N629 1.427 . S
C622 H613 0.930 . S
C622 C620 1.378 . S
C622 C623 1.367 . S
C623 C622 1.367 . S
C623 C625 1.433 . S
C624 C620 1.350 . S
C624 C621 1.463 . S
C624 N628 1.427 . S
C625 H615 0.929 . S
C625 C623 1.433 . S
C625 N628 1.384 . S
C626 H617 0.929 . S
C626 C618 1.378 . S
C626 C621 1.350 . S
C627 H614 0.929 1_655 S
C627 C619 1.433 . S
C627 N629 1.384 . S
N628 C624 1.427 . S
N628 C625 1.384 . S
N629 C621 1.427 . S
N629 C627 1.384 . S
H630 C636 0.930 . S
H631 C640 0.930 . S
H632 C645 0.929 . S
H633 C643 0.929 . S
H634 C638 0.929 . S
H635 C644 0.929 . S
C636 H630 0.930 . S
C636 C637 1.367 . S
C636 C644 1.378 . S
C637 C636 1.367 . S
C637 C645 1.433 . S
C638 H634 0.929 . S
C638 C640 1.378 . S
C638 C642 1.350 . S
C639 C642 1.463 . S
C639 C644 1.350 . S
C639 N647 1.427 . S
C640 H631 0.930 . S
C640 C638 1.378 . S
C640 C641 1.367 . S
C641 C640 1.367 . S
C641 C643 1.433 . S
C642 C638 1.350 . S
C642 C639 1.463 . S
C642 N646 1.427 . S
C643 H633 0.929 . S
C643 C641 1.433 . S
C643 N646 1.384 . S
C644 H635 0.929 . S
C644 C636 1.378 . S
C644 C639 1.350 . S
C645 H632 0.929 . S
C645 C637 1.433 . S
C645 N647 1.384 . S
N646 C642 1.427 . S
N646 C643 1.384 . S
N647 C639 1.427 . S
N647 C645 1.384 . S
H648 C654 0.930 . S
H649 C658 0.930 . S
H650 C663 0.929 . S
H651 C661 0.929 . S
H652 C656 0.929 . S
H653 C662 0.929 . S
C654 H648 0.930 . S
C654 C655 1.367 . S
C654 C662 1.378 . S
C655 C654 1.367 . S
C655 C663 1.433 . S
C656 H652 0.929 . S
C656 C658 1.378 . S
C656 C660 1.350 . S
C657 C660 1.463 . S
C657 C662 1.350 . S
C657 N665 1.427 . S
C658 H649 0.930 . S
C658 C656 1.378 . S
C658 C659 1.367 . S
C659 C658 1.367 . S
C659 C661 1.433 . S
C660 C656 1.350 . S
C660 C657 1.463 . S
C660 N664 1.427 . S
C661 H651 0.929 . S
C661 C659 1.433 . S
C661 N664 1.384 . S
C662 H653 0.929 . S
C662 C654 1.378 . S
C662 C657 1.350 . S
C663 H650 0.929 . S
C663 C655 1.433 . S
C663 N665 1.384 . S
N664 C660 1.427 . S
N664 C661 1.384 . S
N665 C657 1.427 . S
N665 C663 1.384 . S
H666 C672 0.930 . S
H667 C676 0.930 . S
H668 C681 0.929 . S
H669 C679 0.929 . S
H670 C674 0.929 . S
H671 C680 0.929 . S
C672 H666 0.930 . S
C672 C673 1.367 . S
C672 C680 1.378 . S
C673 C672 1.367 . S
C673 C681 1.433 . S
C674 H670 0.929 . S
C674 C676 1.378 . S
C674 C678 1.350 . S
C675 C678 1.463 . S
C675 C680 1.350 . S
C675 N683 1.427 . S
C676 H667 0.930 . S
C676 C674 1.378 . S
C676 C677 1.367 . S
C677 C676 1.367 . S
C677 C679 1.433 . S
C678 C674 1.350 . S
C678 C675 1.463 . S
C678 N682 1.427 . S
C679 H669 0.929 . S
C679 C677 1.433 . S
C679 N682 1.384 . S
C680 H671 0.929 . S
C680 C672 1.378 . S
C680 C675 1.350 . S
C681 H668 0.929 . S
C681 C673 1.433 . S
C681 N683 1.384 . S
N682 C678 1.427 . S
N682 C679 1.384 . S
N683 C675 1.427 . S
N683 C681 1.384 . S
H684 C690 0.930 . S
H685 C694 0.930 . S
H686 C699 0.929 . S
H687 C697 0.929 . S
H688 C692 0.929 . S
H689 C698 0.929 . S
C690 H684 0.930 . S
C690 C691 1.367 . S
C690 C698 1.378 . S
C691 C690 1.367 . S
C691 C699 1.433 . S
C692 H688 0.929 . S
C692 C694 1.378 . S
C692 C696 1.350 . S
C693 C696 1.463 . S
C693 C698 1.350 . S
C693 N701 1.427 . S
C694 H685 0.930 . S
C694 C692 1.378 . S
C694 C695 1.367 . S
C695 C694 1.367 . S
C695 C697 1.433 . S
C696 C692 1.350 . S
C696 C693 1.463 . S
C696 N700 1.427 . S
C697 H687 0.929 . S
C697 C695 1.433 . S
C697 N700 1.384 . S
C698 H689 0.929 . S
C698 C690 1.378 . S
C698 C693 1.350 . S
C699 H686 0.929 . S
C699 C691 1.433 . S
C699 N701 1.384 . S
N700 C696 1.427 . S
N700 C697 1.384 . S
N701 C693 1.427 . S
N701 C699 1.384 . S
H702 C708 0.930 . S
H703 C712 0.930 . S
H704 C717 0.929 . S
H705 C715 0.929 1_455 S
H706 C710 0.929 . S
H707 C716 0.929 . S
C708 H702 0.930 . S
C708 C709 1.367 . S
C708 C716 1.378 . S
C709 C708 1.367 . S
C709 C717 1.433 . S
C710 H706 0.929 . S
C710 C712 1.378 . S
C710 C714 1.350 . S
C711 C714 1.463 . S
C711 C716 1.350 . S
C711 N719 1.427 . S
C712 H703 0.930 . S
C712 C710 1.378 . S
C712 C713 1.367 . S
C713 C712 1.367 . S
C713 C715 1.433 . S
C714 C710 1.350 . S
C714 C711 1.463 . S
C714 N718 1.427 . S
C715 H705 0.929 1_655 S
C715 C713 1.433 . S
C715 N718 1.384 . S
C716 H707 0.929 . S
C716 C708 1.378 . S
C716 C711 1.350 . S
C717 H704 0.929 . S
C717 C709 1.433 . S
C717 N719 1.384 . S
N718 C714 1.427 . S
N718 C715 1.384 . S
N719 C711 1.427 . S
N719 C717 1.384 . S
H720 C726 0.930 . S
H721 C730 0.930 . S
H722 C735 0.929 . S
H723 C733 0.929 . S
H724 C728 0.929 . S
H725 C734 0.929 . S
C726 H720 0.930 . S
C726 C727 1.367 . S
C726 C734 1.378 . S
C727 C726 1.367 . S
C727 C735 1.433 . S
C728 H724 0.929 . S
C728 C730 1.378 . S
C728 C732 1.350 . S
C729 C732 1.463 . S
C729 C734 1.350 . S
C729 N737 1.427 . S
C730 H721 0.930 . S
C730 C728 1.378 . S
C730 C731 1.367 . S
C731 C730 1.367 . S
C731 C733 1.433 . S
C732 C728 1.350 . S
C732 C729 1.463 . S
C732 N736 1.427 . S
C733 H723 0.929 . S
C733 C731 1.433 . S
C733 N736 1.384 . S
C734 H725 0.929 . S
C734 C726 1.378 . S
C734 C729 1.350 . S
C735 H722 0.929 . S
C735 C727 1.433 . S
C735 N737 1.384 . S
N736 C732 1.427 . S
N736 C733 1.384 . S
N737 C729 1.427 . S
N737 C735 1.384 . S
H738 C744 0.930 1_545 S
H739 C748 0.930 . S
H740 C753 0.929 . S
H741 C751 0.929 . S
H742 C746 0.929 . S
H743 C752 0.929 . S
C744 H738 0.930 1_565 S
C744 C745 1.367 . S
C744 C752 1.378 . S
C745 C744 1.367 . S
C745 C753 1.433 . S
C746 H742 0.929 . S
C746 C748 1.378 . S
C746 C750 1.350 . S
C747 C750 1.463 . S
C747 C752 1.350 . S
C747 N755 1.427 . S
C748 H739 0.930 . S
C748 C746 1.378 . S
C748 C749 1.367 . S
C749 C748 1.367 . S
C749 C751 1.433 . S
C750 C746 1.350 . S
C750 C747 1.463 . S
C750 N754 1.427 . S
C751 H741 0.929 . S
C751 C749 1.433 . S
C751 N754 1.384 . S
C752 H743 0.929 . S
C752 C744 1.378 . S
C752 C747 1.350 . S
C753 H740 0.929 . S
C753 C745 1.433 . S
C753 N755 1.384 . S
N754 C750 1.427 . S
N754 C751 1.384 . S
N755 C747 1.427 . S
N755 C753 1.384 . S
H756 C762 0.930 . S
H757 C766 0.930 . S
H758 C771 0.929 . S
H759 C769 0.929 1_655 S
H760 C764 0.929 . S
H761 C770 0.929 . S
C762 H756 0.930 . S
C762 C763 1.367 . S
C762 C770 1.378 . S
C763 C762 1.367 . S
C763 C771 1.433 . S
C764 H760 0.929 . S
C764 C766 1.378 . S
C764 C768 1.350 . S
C765 C768 1.463 . S
C765 C770 1.350 . S
C765 N773 1.427 . S
C766 H757 0.930 . S
C766 C764 1.378 . S
C766 C767 1.367 . S
C767 C766 1.367 . S
C767 C769 1.433 . S
C768 C764 1.350 . S
C768 C765 1.463 . S
C768 N772 1.427 . S
C769 H759 0.929 1_455 S
C769 C767 1.433 . S
C769 N772 1.384 . S
C770 H761 0.929 . S
C770 C762 1.378 . S
C770 C765 1.350 . S
C771 H758 0.929 . S
C771 C763 1.433 . S
C771 N773 1.384 . S
N772 C768 1.427 . S
N772 C769 1.384 . S
N773 C765 1.427 . S
N773 C771 1.384 . S
H774 C780 0.930 . S
H775 C784 0.930 . S
H776 C789 0.929 . S
H777 C787 0.929 1_655 S
H778 C782 0.929 . S
H779 C788 0.929 . S
C780 H774 0.930 . S
C780 C781 1.367 . S
C780 C788 1.378 . S
C781 C780 1.367 . S
C781 C789 1.433 . S
C782 H778 0.929 . S
C782 C784 1.378 . S
C782 C786 1.350 . S
C783 C786 1.463 . S
C783 C788 1.350 . S
C783 N791 1.427 . S
C784 H775 0.930 . S
C784 C782 1.378 . S
C784 C785 1.367 . S
C785 C784 1.367 . S
C785 C787 1.433 . S
C786 C782 1.350 . S
C786 C783 1.463 . S
C786 N790 1.427 . S
C787 H777 0.929 1_455 S
C787 C785 1.433 . S
C787 N790 1.384 . S
C788 H779 0.929 . S
C788 C780 1.378 . S
C788 C783 1.350 . S
C789 H776 0.929 . S
C789 C781 1.433 . S
C789 N791 1.384 . S
N790 C786 1.427 . S
N790 C787 1.384 . S
N791 C783 1.427 . S
N791 C789 1.384 . S
H792 C798 0.930 . S
H793 C802 0.930 . S
H794 C807 0.929 . S
H795 C805 0.929 . S
H796 C800 0.929 . S
H797 C806 0.929 . S
C798 H792 0.930 . S
C798 C799 1.367 . S
C798 C806 1.378 . S
C799 C798 1.367 . S
C799 C807 1.433 . S
C800 H796 0.929 . S
C800 C802 1.378 . S
C800 C804 1.350 . S
C801 C804 1.463 . S
C801 C806 1.350 . S
C801 N809 1.427 . S
C802 H793 0.930 . S
C802 C800 1.378 . S
C802 C803 1.367 . S
C803 C802 1.367 . S
C803 C805 1.433 . S
C804 C800 1.350 . S
C804 C801 1.463 . S
C804 N808 1.427 . S
C805 H795 0.929 . S
C805 C803 1.433 . S
C805 N808 1.384 . S
C806 H797 0.929 . S
C806 C798 1.378 . S
C806 C801 1.350 . S
C807 H794 0.929 . S
C807 C799 1.433 . S
C807 N809 1.384 . S
N808 C804 1.427 . S
N808 C805 1.384 . S
N809 C801 1.427 . S
N809 C807 1.384 . S
H810 C816 0.930 . S
H811 C820 0.930 . S
H812 C825 0.929 . S
H813 C823 0.929 . S
H814 C818 0.929 . S
H815 C824 0.929 . S
C816 H810 0.930 . S
C816 C817 1.367 . S
C816 C824 1.378 . S
C817 C816 1.367 . S
C817 C825 1.433 . S
C818 H814 0.929 . S
C818 C820 1.378 . S
C818 C822 1.350 . S
C819 C822 1.463 . S
C819 C824 1.350 . S
C819 N827 1.427 . S
C820 H811 0.930 . S
C820 C818 1.378 . S
C820 C821 1.367 . S
C821 C820 1.367 . S
C821 C823 1.433 . S
C822 C818 1.350 . S
C822 C819 1.463 . S
C822 N826 1.427 . S
C823 H813 0.929 . S
C823 C821 1.433 . S
C823 N826 1.384 . S
C824 H815 0.929 . S
C824 C816 1.378 . S
C824 C819 1.350 . S
C825 H812 0.929 . S
C825 C817 1.433 . S
C825 N827 1.384 . S
N826 C822 1.427 . S
N826 C823 1.384 . S
N827 C819 1.427 . S
N827 C825 1.384 . S
H828 C834 0.930 . S
H829 C838 0.930 . S
H830 C843 0.929 . S
H831 C841 0.929 . S
H832 C836 0.929 . S
H833 C842 0.929 . S
C834 H828 0.930 . S
C834 C835 1.367 . S
C834 C842 1.378 . S
C835 C834 1.367 . S
C835 C843 1.433 . S
C836 H832 0.929 . S
C836 C838 1.378 . S
C836 C840 1.350 . S
C837 C840 1.463 . S
C837 C842 1.350 . S
C837 N845 1.427 . S
C838 H829 0.930 . S
C838 C836 1.378 . S
C838 C839 1.367 . S
C839 C838 1.367 . S
C839 C841 1.433 . S
C840 C836 1.350 . S
C840 C837 1.463 . S
C840 N844 1.427 . S
C841 H831 0.929 . S
C841 C839 1.433 . S
C841 N844 1.384 . S
C842 H833 0.929 . S
C842 C834 1.378 . S
C842 C837 1.350 . S
C843 H830 0.929 . S
C843 C835 1.433 . S
C843 N845 1.384 . S
N844 C840 1.427 . S
N844 C841 1.384 . S
N845 C837 1.427 . S
N845 C843 1.384 . S
H846 C852 0.930 . S
H847 C856 0.930 . S
H848 C861 0.929 . S
H849 C859 0.929 . S
H850 C854 0.929 . S
H851 C860 0.929 . S
C852 H846 0.930 . S
C852 C853 1.367 . S
C852 C860 1.378 . S
C853 C852 1.367 . S
C853 C861 1.433 . S
C854 H850 0.929 . S
C854 C856 1.378 . S
C854 C858 1.350 . S
C855 C858 1.463 . S
C855 C860 1.350 . S
C855 N863 1.427 . S
C856 H847 0.930 . S
C856 C854 1.378 . S
C856 C857 1.367 . S
C857 C856 1.367 . S
C857 C859 1.433 . S
C858 C854 1.350 . S
C858 C855 1.463 . S
C858 N862 1.427 . S
C859 H849 0.929 . S
C859 C857 1.433 . S
C859 N862 1.384 . S
C860 H851 0.929 . S
C860 C852 1.378 . S
C860 C855 1.350 . S
C861 H848 0.929 . S
C861 C853 1.433 . S
C861 N863 1.384 . S
N862 C858 1.427 . S
N862 C859 1.384 . S
N863 C855 1.427 . S
N863 C861 1.384 . S
H864 C870 0.930 . S
H865 C874 0.930 . S
H866 C879 0.929 . S
H867 C877 0.929 . S
H868 C872 0.929 . S
H869 C878 0.929 . S
C870 H864 0.930 . S
C870 C871 1.367 . S
C870 C878 1.378 . S
C871 C870 1.367 . S
C871 C879 1.433 . S
C872 H868 0.929 . S
C872 C874 1.378 . S
C872 C876 1.350 . S
C873 C876 1.463 . S
C873 C878 1.350 . S
C873 N881 1.427 . S
C874 H865 0.930 . S
C874 C872 1.378 . S
C874 C875 1.367 . S
C875 C874 1.367 . S
C875 C877 1.433 . S
C876 C872 1.350 . S
C876 C873 1.463 . S
C876 N880 1.427 . S
C877 H867 0.929 . S
C877 C875 1.433 . S
C877 N880 1.384 . S
C878 H869 0.929 . S
C878 C870 1.378 . S
C878 C873 1.350 . S
C879 H866 0.929 . S
C879 C871 1.433 . S
C879 N881 1.384 . S
N880 C876 1.427 . S
N880 C877 1.384 . S
N881 C873 1.427 . S
N881 C879 1.384 . S
H882 C888 0.930 . S
H883 C892 0.930 1_556 S
H884 C897 0.929 . S
H885 C895 0.929 . S
H886 C890 0.929 . S
H887 C896 0.929 . S
C888 H882 0.930 . S
C888 C889 1.367 . S
C888 C896 1.378 . S
C889 C888 1.367 . S
C889 C897 1.433 . S
C890 H886 0.929 . S
C890 C892 1.378 . S
C890 C894 1.350 . S
C891 C894 1.463 . S
C891 C896 1.350 . S
C891 N899 1.427 . S
C892 H883 0.930 1_554 S
C892 C890 1.378 . S
C892 C893 1.370 . S
C893 C892 1.370 . S
C893 C895 1.443 . S
C894 C890 1.350 . S
C894 C891 1.463 . S
C894 N898 1.427 . S
C895 H885 0.929 . S
C895 C893 1.443 . S
C895 N898 1.384 . S
C896 H887 0.929 . S
C896 C888 1.378 . S
C896 C891 1.350 . S
C897 H884 0.929 . S
C897 C889 1.433 . S
C897 N899 1.384 . S
N898 C894 1.427 . S
N898 C895 1.384 . S
N899 C891 1.427 . S
N899 C897 1.384 . S
H900 C906 0.930 . S
H901 C910 0.930 1_556 S
H902 C915 0.929 . S
H903 C913 0.929 . S
H904 C908 0.929 . S
H905 C914 0.929 . S
C906 H900 0.930 . S
C906 C907 1.367 . S
C906 C914 1.378 . S
C907 C906 1.367 . S
C907 C915 1.433 . S
C908 H904 0.929 . S
C908 C910 1.378 . S
C908 C912 1.350 . S
C909 C912 1.463 . S
C909 C914 1.350 . S
C909 N917 1.427 . S
C910 H901 0.930 1_554 S
C910 C908 1.378 . S
C910 C911 1.371 . S
C911 C910 1.371 . S
C911 C913 1.443 . S
C912 C908 1.350 . S
C912 C909 1.463 . S
C912 N916 1.427 . S
C913 H903 0.929 . S
C913 C911 1.443 . S
C913 N916 1.384 . S
C914 H905 0.929 . S
C914 C906 1.378 . S
C914 C909 1.350 . S
C915 H902 0.929 . S
C915 C907 1.433 . S
C915 N917 1.384 . S
N916 C912 1.427 . S
N916 C913 1.384 . S
N917 C909 1.427 . S
N917 C915 1.384 . S
H918 C924 0.930 . S
H919 C928 0.930 . S
H920 C933 0.929 . S
H921 C931 0.929 . S
H922 C926 0.929 . S
H923 C932 0.929 . S
C924 H918 0.930 . S
C924 C925 1.367 . S
C924 C932 1.378 . S
C925 C924 1.367 . S
C925 C933 1.433 . S
C926 H922 0.929 . S
C926 C928 1.378 . S
C926 C930 1.350 . S
C927 C930 1.463 . S
C927 C932 1.350 . S
C927 N935 1.427 . S
C928 H919 0.930 . S
C928 C926 1.378 . S
C928 C929 1.377 . S
C929 C928 1.377 . S
C929 C931 1.441 . S
C930 C926 1.350 . S
C930 C927 1.463 . S
C930 N934 1.427 . S
C931 H921 0.929 . S
C931 C929 1.441 . S
C931 N934 1.384 . S
C932 H923 0.929 . S
C932 C924 1.378 . S
C932 C927 1.350 . S
C933 H920 0.929 . S
C933 C925 1.433 . S
C933 N935 1.384 . S
N934 C930 1.427 . S
N934 C931 1.384 . S
N935 C927 1.427 . S
N935 C933 1.384 . S
H936 C942 0.930 . S
H937 C946 0.930 . S
H938 C951 0.929 . S
H939 C949 0.929 . S
H940 C944 0.929 . S
H941 C950 0.929 . S
C942 H936 0.930 . S
C942 C943 1.367 . S
C942 C950 1.378 . S
C943 C942 1.367 . S
C943 C951 1.433 . S
C944 H940 0.929 . S
C944 C946 1.378 . S
C944 C948 1.350 . S
C945 C948 1.463 . S
C945 C950 1.350 . S
C945 N953 1.427 . S
C946 H937 0.930 . S
C946 C944 1.378 . S
C946 C947 1.367 . S
C947 C946 1.367 . S
C947 C949 1.433 . S
C948 C944 1.350 . S
C948 C945 1.463 . S
C948 N952 1.427 . S
C949 H939 0.929 . S
C949 C947 1.433 . S
C949 N952 1.384 . S
C950 H941 0.929 . S
C950 C942 1.378 . S
C950 C945 1.350 . S
C951 H938 0.929 . S
C951 C943 1.433 . S
C951 N953 1.384 . S
N952 C948 1.427 . S
N952 C949 1.384 . S
N953 C945 1.427 . S
N953 C951 1.384 . S
H954 C960 0.930 . S
H955 C964 0.930 . S
H956 C969 0.929 . S
H957 C967 0.929 . S
H958 C962 0.929 . S
H959 C968 0.929 . S
C960 H954 0.930 . S
C960 C961 1.367 . S
C960 C968 1.378 . S
C961 C960 1.367 . S
C961 C969 1.433 . S
C962 H958 0.929 . S
C962 C964 1.378 . S
C962 C966 1.350 . S
C963 C966 1.463 . S
C963 C968 1.350 . S
C963 N971 1.427 . S
C964 H955 0.930 . S
C964 C962 1.378 . S
C964 C965 1.367 . S
C965 C964 1.367 . S
C965 C967 1.433 . S
C966 C962 1.350 . S
C966 C963 1.463 . S
C966 N970 1.427 . S
C967 H957 0.929 . S
C967 C965 1.433 . S
C967 N970 1.384 . S
C968 H959 0.929 . S
C968 C960 1.378 . S
C968 C963 1.350 . S
C969 H956 0.929 . S
C969 C961 1.433 . S
C969 N971 1.384 . S
N970 C966 1.427 . S
N970 C967 1.384 . S
N971 C963 1.427 . S
N971 C969 1.384 . S
H972 C978 0.930 . S
H973 C982 0.930 . S
H974 C987 0.929 . S
H975 C985 0.929 . S
H976 C980 0.929 . S
H977 C986 0.929 . S
C978 H972 0.930 . S
C978 C979 1.367 . S
C978 C986 1.378 . S
C979 C978 1.367 . S
C979 C987 1.433 . S
C980 H976 0.929 . S
C980 C982 1.378 . S
C980 C984 1.350 . S
C981 C984 1.463 . S
C981 C986 1.350 . S
C981 N989 1.427 . S
C982 H973 0.930 . S
C982 C980 1.378 . S
C982 C983 1.367 . S
C983 C982 1.367 . S
C983 C985 1.433 . S
C984 C980 1.350 . S
C984 C981 1.463 . S
C984 N988 1.427 . S
C985 H975 0.929 . S
C985 C983 1.433 . S
C985 N988 1.384 . S
C986 H977 0.929 . S
C986 C978 1.378 . S
C986 C981 1.350 . S
C987 H974 0.929 . S
C987 C979 1.433 . S
C987 N989 1.384 . S
N988 C984 1.427 . S
N988 C985 1.384 . S
N989 C981 1.427 . S
N989 C987 1.384 . S
H990 C996 0.930 . S
H991 C1000 0.930 . S
H992 C1005 0.929 1_554 S
H993 C1003 0.929 . S
H994 C998 0.929 . S
H995 C1004 0.929 . S
C996 H990 0.930 . S
C996 C997 1.391 . S
C996 C1004 1.378 . S
C997 C996 1.391 . S
C997 C1005 1.438 . S
C998 H994 0.929 . S
C998 C1000 1.378 . S
C998 C1002 1.350 . S
C999 C1002 1.463 . S
C999 C1004 1.350 . S
C999 N1007 1.427 . S
C1000 H991 0.930 . S
C1000 C998 1.378 . S
C1000 C1001 1.367 . S
C1001 C1000 1.367 . S
C1001 C1003 1.433 . S
C1002 C998 1.350 . S
C1002 C999 1.463 . S
C1002 N1006 1.427 . S
C1003 H993 0.929 . S
C1003 C1001 1.433 . S
C1003 N1006 1.384 . S
C1004 H995 0.929 . S
C1004 C996 1.378 . S
C1004 C999 1.350 . S
C1005 H992 0.929 1_556 S
C1005 C997 1.438 . S
C1005 N1007 1.384 . S
N1006 C1002 1.427 . S
N1006 C1003 1.384 . S
N1007 C999 1.427 . S
N1007 C1005 1.384 . S
H1008 C1014 0.930 . S
H1009 C1018 0.930 . S
H1010 C1023 0.929 1_554 S
H1011 C1021 0.929 . S
H1012 C1016 0.929 . S
H1013 C1022 0.929 . S
C1014 H1008 0.930 . S
C1014 C1015 1.386 . S
C1014 C1022 1.378 . S
C1015 C1014 1.386 . S
C1015 C1023 1.440 . S
C1016 H1012 0.929 . S
C1016 C1018 1.378 . S
C1016 C1020 1.350 . S
C1017 C1020 1.463 . S
C1017 C1022 1.350 . S
C1017 N1025 1.427 . S
C1018 H1009 0.930 . S
C1018 C1016 1.378 . S
C1018 C1019 1.367 . S
C1019 C1018 1.367 . S
C1019 C1021 1.433 . S
C1020 C1016 1.350 . S
C1020 C1017 1.463 . S
C1020 N1024 1.427 . S
C1021 H1011 0.929 . S
C1021 C1019 1.433 . S
C1021 N1024 1.384 . S
C1022 H1013 0.929 . S
C1022 C1014 1.378 . S
C1022 C1017 1.350 . S
C1023 H1010 0.929 1_556 S
C1023 C1015 1.440 . S
C1023 N1025 1.384 . S
N1024 C1020 1.427 . S
N1024 C1021 1.384 . S
N1025 C1017 1.427 . S
N1025 C1023 1.384 . S
H1026 C1032 0.930 . S
H1027 C1036 0.930 1_554 S
H1028 C1041 0.929 . S
H1029 C1039 0.929 . S
H1030 C1034 0.929 . S
H1031 C1040 0.929 . S
C1032 H1026 0.930 . S
C1032 C1033 1.367 . S
C1032 C1040 1.378 . S
C1033 C1032 1.367 . S
C1033 C1041 1.433 . S
C1034 H1030 0.929 . S
C1034 C1036 1.378 . S
C1034 C1038 1.350 . S
C1035 C1038 1.463 . S
C1035 C1040 1.350 . S
C1035 N1043 1.427 . S
C1036 H1027 0.930 1_556 S
C1036 C1034 1.378 . S
C1036 C1037 1.369 . S
C1037 C1036 1.369 . S
C1037 C1039 1.441 . S
C1038 C1034 1.350 . S
C1038 C1035 1.463 . S
C1038 N1042 1.427 . S
C1039 H1029 0.929 . S
C1039 C1037 1.441 . S
C1039 N1042 1.384 . S
C1040 H1031 0.929 . S
C1040 C1032 1.378 . S
C1040 C1035 1.350 . S
C1041 H1028 0.929 . S
C1041 C1033 1.433 . S
C1041 N1043 1.384 . S
N1042 C1038 1.427 . S
N1042 C1039 1.384 . S
N1043 C1035 1.427 . S
N1043 C1041 1.384 . S
H1044 C1050 0.930 . S
H1045 C1054 0.930 . S
H1046 C1059 0.929 . S
H1047 C1057 0.929 . S
H1048 C1052 0.929 . S
H1049 C1058 0.929 . S
C1050 H1044 0.930 . S
C1050 C1051 1.367 1_655 S
C1050 C1058 1.378 . S
C1051 C1050 1.367 1_455 S
C1051 C1059 1.433 . S
C1052 H1048 0.929 . S
C1052 C1054 1.378 . S
C1052 C1056 1.350 1_455 S
C1053 C1056 1.463 1_455 S
C1053 C1058 1.350 1_455 S
C1053 N1061 1.427 . S
C1054 H1045 0.930 . S
C1054 C1052 1.378 . S
C1054 C1055 1.367 1_455 S
C1055 C1054 1.367 1_655 S
C1055 C1057 1.433 . S
C1056 C1052 1.350 1_655 S
C1056 C1053 1.463 1_655 S
C1056 N1060 1.427 . S
C1057 H1047 0.929 . S
C1057 C1055 1.433 . S
C1057 N1060 1.384 . S
C1058 H1049 0.929 . S
C1058 C1050 1.378 . S
C1058 C1053 1.350 1_655 S
C1059 H1046 0.929 . S
C1059 C1051 1.433 . S
C1059 N1061 1.384 . S
N1060 C1056 1.427 . S
N1060 C1057 1.384 . S
N1061 C1053 1.427 . S
N1061 C1059 1.384 . S
H1062 C1068 0.930 . S
H1063 C1072 0.930 . S
H1064 C1077 0.929 . S
H1065 C1075 0.929 . S
H1066 C1070 0.929 . S
H1067 C1076 0.929 . S
C1068 H1062 0.930 . S
C1068 C1069 1.367 . S
C1068 C1076 1.378 . S
C1069 C1068 1.367 . S
C1069 C1077 1.433 . S
C1070 H1066 0.929 . S
C1070 C1072 1.378 . S
C1070 C1074 1.350 . S
C1071 C1074 1.463 . S
C1071 C1076 1.350 . S
C1071 N1079 1.427 . S
C1072 H1063 0.930 . S
C1072 C1070 1.378 . S
C1072 C1073 1.367 . S
C1073 C1072 1.367 . S
C1073 C1075 1.433 . S
C1074 C1070 1.350 . S
C1074 C1071 1.463 . S
C1074 N1078 1.427 . S
C1075 H1065 0.929 . S
C1075 C1073 1.433 . S
C1075 N1078 1.384 . S
C1076 H1067 0.929 . S
C1076 C1068 1.378 . S
C1076 C1071 1.350 . S
C1077 H1064 0.929 . S
C1077 C1069 1.433 . S
C1077 N1079 1.384 . S
N1078 C1074 1.427 . S
N1078 C1075 1.384 . S
N1079 C1071 1.427 . S
N1079 C1077 1.384 . S
H1080 C1086 0.952 . S
H1081 C1090 0.950 . S
H1082 C1095 0.929 . S
H1083 C1093 0.929 . S
H1084 C1088 0.929 . S
H1085 C1094 0.929 . S
C1086 H1080 0.952 . S
C1086 C1087 1.329 1_565 S
C1086 C1094 1.400 . S
C1087 C1086 1.329 1_545 S
C1087 C1095 1.433 . S
C1088 H1084 0.929 . S
C1088 C1090 1.398 . S
C1088 C1092 1.350 1_545 S
C1089 C1092 1.463 1_545 S
C1089 C1094 1.350 1_545 S
C1089 N1097 1.427 . S
C1090 H1081 0.950 . S
C1090 C1088 1.398 . S
C1090 C1091 1.331 1_545 S
C1091 C1090 1.331 1_565 S
C1091 C1093 1.433 . S
C1092 C1088 1.350 1_565 S
C1092 C1089 1.463 1_565 S
C1092 N1096 1.427 . S
C1093 H1083 0.929 . S
C1093 C1091 1.433 . S
C1093 N1096 1.384 . S
C1094 H1085 0.929 . S
C1094 C1086 1.400 . S
C1094 C1089 1.350 1_565 S
C1095 H1082 0.929 . S
C1095 C1087 1.433 . S
C1095 N1097 1.384 . S
N1096 C1092 1.427 . S
N1096 C1093 1.384 . S
N1097 C1089 1.427 . S
N1097 C1095 1.384 . S
H1098 C1104 0.930 . S
H1099 C1108 0.930 . S
H1100 C1113 0.931 1_545 S
H1101 C1111 0.931 1_565 S
H1102 C1106 0.929 . S
H1103 C1112 0.929 . S
C1104 H1098 0.930 . S
C1104 C1105 1.367 . S
C1104 C1112 1.378 . S
C1105 C1104 1.367 . S
C1105 C1113 1.433 . S
C1106 H1102 0.929 . S
C1106 C1108 1.378 . S
C1106 C1110 1.350 . S
C1107 C1110 1.463 1_565 S
C1107 C1112 1.350 . S
C1107 N1115 1.427 1_565 S
C1108 H1099 0.930 . S
C1108 C1106 1.378 . S
C1108 C1109 1.367 . S
C1109 C1108 1.367 . S
C1109 C1111 1.433 . S
C1110 C1106 1.350 . S
C1110 C1107 1.463 1_545 S
C1110 N1114 1.427 1_545 S
C1111 H1101 0.931 1_545 S
C1111 C1109 1.433 . S
C1111 N1114 1.384 1_545 S
C1112 H1103 0.929 . S
C1112 C1104 1.378 . S
C1112 C1107 1.350 . S
C1113 H1100 0.931 1_565 S
C1113 C1105 1.433 . S
C1113 N1115 1.384 1_565 S
N1114 C1110 1.427 1_565 S
N1114 C1111 1.384 1_565 S
N1115 C1107 1.427 1_545 S
N1115 C1113 1.384 1_545 S
H1116 C1122 0.927 1_455 S
H1117 C1126 0.927 1_655 S
H1118 C1131 0.929 . S
H1119 C1129 0.929 . S
H1120 C1124 0.929 . S
H1121 C1130 0.929 . S
C1122 H1116 0.927 1_655 S
C1122 C1123 1.377 . S
C1122 C1130 1.371 1_655 S
C1123 C1122 1.377 . S
C1123 C1131 1.433 . S
C1124 H1120 0.929 . S
C1124 C1126 1.370 1_655 S
C1124 C1128 1.350 1_655 S
C1125 C1128 1.463 1_655 S
C1125 C1130 1.350 1_655 S
C1125 N1133 1.427 . S
C1126 H1117 0.927 1_455 S
C1126 C1124 1.370 1_455 S
C1126 C1127 1.379 . S
C1127 C1126 1.379 . S
C1127 C1129 1.433 . S
C1128 C1124 1.350 1_455 S
C1128 C1125 1.463 1_455 S
C1128 N1132 1.427 . S
C1129 H1119 0.929 . S
C1129 C1127 1.433 . S
C1129 N1132 1.384 . S
C1130 H1121 0.929 . S
C1130 C1122 1.371 1_455 S
C1130 C1125 1.350 1_455 S
C1131 H1118 0.929 . S
C1131 C1123 1.433 . S
C1131 N1133 1.384 . S
N1132 C1128 1.427 . S
N1132 C1129 1.384 . S
N1133 C1125 1.427 . S
N1133 C1131 1.384 . S
H1134 C1140 0.930 . S
H1135 C1144 0.930 . S
H1136 C1149 0.929 . S
H1137 C1147 0.929 . S
H1138 C1142 0.929 . S
H1139 C1148 0.929 . S
C1140 H1134 0.930 . S
C1140 C1141 1.367 . S
C1140 C1148 1.378 . S
C1141 C1140 1.367 . S
C1141 C1149 1.433 . S
C1142 H1138 0.929 . S
C1142 C1144 1.378 . S
C1142 C1146 1.350 . S
C1143 C1146 1.463 . S
C1143 C1148 1.350 . S
C1143 N1151 1.427 . S
C1144 H1135 0.930 . S
C1144 C1142 1.378 . S
C1144 C1145 1.367 . S
C1145 C1144 1.367 . S
C1145 C1147 1.433 . S
C1146 C1142 1.350 . S
C1146 C1143 1.463 . S
C1146 N1150 1.427 . S
C1147 H1137 0.929 . S
C1147 C1145 1.433 . S
C1147 N1150 1.384 . S
C1148 H1139 0.929 . S
C1148 C1140 1.378 . S
C1148 C1143 1.350 . S
C1149 H1136 0.929 . S
C1149 C1141 1.433 . S
C1149 N1151 1.384 . S
N1150 C1146 1.427 . S
N1150 C1147 1.384 . S
N1151 C1143 1.427 . S
N1151 C1149 1.384 . S
H1152 C1158 0.930 . S
H1153 C1162 0.930 . S
H1154 C1167 0.929 . S
H1155 C1165 0.929 . S
H1156 C1160 0.929 . S
H1157 C1166 0.929 . S
C1158 H1152 0.930 . S
C1158 C1159 1.367 . S
C1158 C1166 1.378 . S
C1159 C1158 1.367 . S
C1159 C1167 1.433 . S
C1160 H1156 0.929 . S
C1160 C1162 1.378 . S
C1160 C1164 1.350 . S
C1161 C1164 1.463 . S
C1161 C1166 1.350 . S
C1161 N1169 1.427 . S
C1162 H1153 0.930 . S
C1162 C1160 1.378 . S
C1162 C1163 1.367 . S
C1163 C1162 1.367 . S
C1163 C1165 1.433 . S
C1164 C1160 1.350 . S
C1164 C1161 1.463 . S
C1164 N1168 1.427 . S
C1165 H1155 0.929 . S
C1165 C1163 1.433 . S
C1165 N1168 1.384 . S
C1166 H1157 0.929 . S
C1166 C1158 1.378 . S
C1166 C1161 1.350 . S
C1167 H1154 0.929 . S
C1167 C1159 1.433 . S
C1167 N1169 1.384 . S
N1168 C1164 1.427 . S
N1168 C1165 1.384 . S
N1169 C1161 1.427 . S
N1169 C1167 1.384 . S
H1170 C1176 0.930 . S
H1171 C1180 0.930 . S
H1172 C1185 0.929 . S
H1173 C1183 0.929 . S
H1174 C1178 0.929 . S
H1175 C1184 0.929 . S
C1176 H1170 0.930 . S
C1176 C1177 1.367 . S
C1176 C1184 1.378 . S
C1177 C1176 1.367 . S
C1177 C1185 1.433 . S
C1178 H1174 0.929 . S
C1178 C1180 1.378 . S
C1178 C1182 1.350 . S
C1179 C1182 1.463 . S
C1179 C1184 1.350 . S
C1179 N1187 1.427 . S
C1180 H1171 0.930 . S
C1180 C1178 1.378 . S
C1180 C1181 1.367 . S
C1181 C1180 1.367 . S
C1181 C1183 1.433 . S
C1182 C1178 1.350 . S
C1182 C1179 1.463 . S
C1182 N1186 1.427 . S
C1183 H1173 0.929 . S
C1183 C1181 1.433 . S
C1183 N1186 1.384 . S
C1184 H1175 0.929 . S
C1184 C1176 1.378 . S
C1184 C1179 1.350 . S
C1185 H1172 0.929 . S
C1185 C1177 1.433 . S
C1185 N1187 1.384 . S
N1186 C1182 1.427 . S
N1186 C1183 1.384 . S
N1187 C1179 1.427 . S
N1187 C1185 1.384 . S
H1188 C1194 0.930 . S
H1189 C1198 0.930 . S
H1190 C1203 0.929 . S
H1191 C1201 0.929 . S
H1192 C1196 0.929 . S
H1193 C1202 0.929 . S
C1194 H1188 0.930 . S
C1194 C1195 1.367 . S
C1194 C1202 1.378 . S
C1195 C1194 1.367 . S
C1195 C1203 1.433 . S
C1196 H1192 0.929 . S
C1196 C1198 1.378 . S
C1196 C1200 1.350 . S
C1197 C1200 1.463 . S
C1197 C1202 1.350 . S
C1197 N1205 1.427 . S
C1198 H1189 0.930 . S
C1198 C1196 1.378 . S
C1198 C1199 1.367 . S
C1199 C1198 1.367 . S
C1199 C1201 1.433 . S
C1200 C1196 1.350 . S
C1200 C1197 1.463 . S
C1200 N1204 1.427 . S
C1201 H1191 0.929 . S
C1201 C1199 1.433 . S
C1201 N1204 1.384 . S
C1202 H1193 0.929 . S
C1202 C1194 1.378 . S
C1202 C1197 1.350 . S
C1203 H1190 0.929 . S
C1203 C1195 1.433 . S
C1203 N1205 1.384 . S
N1204 C1200 1.427 . S
N1204 C1201 1.384 . S
N1205 C1197 1.427 . S
N1205 C1203 1.384 . S
H1206 C1212 0.930 . S
H1207 C1216 0.930 . S
H1208 C1221 0.929 . S
H1209 C1219 0.929 . S
H1210 C1214 0.929 . S
H1211 C1220 0.929 . S
C1212 H1206 0.930 . S
C1212 C1213 1.367 . S
C1212 C1220 1.378 . S
C1213 C1212 1.367 . S
C1213 C1221 1.433 . S
C1214 H1210 0.929 . S
C1214 C1216 1.378 . S
C1214 C1218 1.350 . S
C1215 C1218 1.463 . S
C1215 C1220 1.350 . S
C1215 N1223 1.427 . S
C1216 H1207 0.930 . S
C1216 C1214 1.378 . S
C1216 C1217 1.367 . S
C1217 C1216 1.367 . S
C1217 C1219 1.433 . S
C1218 C1214 1.350 . S
C1218 C1215 1.463 . S
C1218 N1222 1.427 . S
C1219 H1209 0.929 . S
C1219 C1217 1.433 . S
C1219 N1222 1.384 . S
C1220 H1211 0.929 . S
C1220 C1212 1.378 . S
C1220 C1215 1.350 . S
C1221 H1208 0.929 . S
C1221 C1213 1.433 . S
C1221 N1223 1.384 . S
N1222 C1218 1.427 . S
N1222 C1219 1.384 . S
N1223 C1215 1.427 . S
N1223 C1221 1.384 . S
H1224 C1230 0.930 . S
H1225 C1234 0.930 . S
H1226 C1239 0.929 . S
H1227 C1237 0.929 . S
H1228 C1232 0.929 . S
H1229 C1238 0.929 . S
C1230 H1224 0.930 . S
C1230 C1231 1.367 . S
C1230 C1238 1.378 . S
C1231 C1230 1.367 . S
C1231 C1239 1.433 . S
C1232 H1228 0.929 . S
C1232 C1234 1.378 . S
C1232 C1236 1.350 . S
C1233 C1236 1.463 . S
C1233 C1238 1.350 . S
C1233 N1241 1.427 . S
C1234 H1225 0.930 . S
C1234 C1232 1.378 . S
C1234 C1235 1.367 . S
C1235 C1234 1.367 . S
C1235 C1237 1.433 . S
C1236 C1232 1.350 . S
C1236 C1233 1.463 . S
C1236 N1240 1.427 . S
C1237 H1227 0.929 . S
C1237 C1235 1.433 . S
C1237 N1240 1.384 . S
C1238 H1229 0.929 . S
C1238 C1230 1.378 . S
C1238 C1233 1.350 . S
C1239 H1226 0.929 . S
C1239 C1231 1.433 . S
C1239 N1241 1.384 . S
N1240 C1236 1.427 . S
N1240 C1237 1.384 . S
N1241 C1233 1.427 . S
N1241 C1239 1.384 . S
H1242 C1248 0.930 . S
H1243 C1252 0.930 . S
H1244 C1257 0.929 . S
H1245 C1255 0.929 . S
H1246 C1250 0.929 . S
H1247 C1256 0.929 . S
C1248 H1242 0.930 . S
C1248 C1249 1.367 . S
C1248 C1256 1.378 . S
C1249 C1248 1.367 . S
C1249 C1257 1.433 . S
C1250 H1246 0.929 . S
C1250 C1252 1.378 . S
C1250 C1254 1.350 . S
C1251 C1254 1.463 . S
C1251 C1256 1.350 . S
C1251 N1259 1.427 . S
C1252 H1243 0.930 . S
C1252 C1250 1.378 . S
C1252 C1253 1.367 . S
C1253 C1252 1.367 . S
C1253 C1255 1.433 . S
C1254 C1250 1.350 . S
C1254 C1251 1.463 . S
C1254 N1258 1.427 . S
C1255 H1245 0.929 . S
C1255 C1253 1.433 . S
C1255 N1258 1.384 . S
C1256 H1247 0.929 . S
C1256 C1248 1.378 . S
C1256 C1251 1.350 . S
C1257 H1244 0.929 . S
C1257 C1249 1.433 . S
C1257 N1259 1.384 . S
N1258 C1254 1.427 . S
N1258 C1255 1.384 . S
N1259 C1251 1.427 . S
N1259 C1257 1.384 . S
H1260 C1266 0.930 . S
H1261 C1270 0.930 . S
H1262 C1275 0.929 . S
H1263 C1273 0.929 . S
H1264 C1268 0.929 . S
H1265 C1274 0.929 . S
C1266 H1260 0.930 . S
C1266 C1267 1.367 . S
C1266 C1274 1.378 . S
C1267 C1266 1.367 . S
C1267 C1275 1.433 . S
C1268 H1264 0.929 . S
C1268 C1270 1.378 . S
C1268 C1272 1.350 . S
C1269 C1272 1.463 . S
C1269 C1274 1.350 . S
C1269 N1277 1.427 . S
C1270 H1261 0.930 . S
C1270 C1268 1.378 . S
C1270 C1271 1.367 . S
C1271 C1270 1.367 . S
C1271 C1273 1.433 . S
C1272 C1268 1.350 . S
C1272 C1269 1.463 . S
C1272 N1276 1.427 . S
C1273 H1263 0.929 . S
C1273 C1271 1.433 . S
C1273 N1276 1.384 . S
C1274 H1265 0.929 . S
C1274 C1266 1.378 . S
C1274 C1269 1.350 . S
C1275 H1262 0.929 . S
C1275 C1267 1.433 . S
C1275 N1277 1.384 . S
N1276 C1272 1.427 . S
N1276 C1273 1.384 . S
N1277 C1269 1.427 . S
N1277 C1275 1.384 . S
H1278 C1284 0.930 . S
H1279 C1288 0.930 . S
H1280 C1293 0.929 . S
H1281 C1291 0.929 . S
H1282 C1286 0.929 . S
H1283 C1292 0.929 . S
C1284 H1278 0.930 . S
C1284 C1285 1.367 . S
C1284 C1292 1.378 . S
C1285 C1284 1.367 . S
C1285 C1293 1.433 . S
C1286 H1282 0.929 . S
C1286 C1288 1.378 . S
C1286 C1290 1.350 . S
C1287 C1290 1.463 . S
C1287 C1292 1.350 . S
C1287 N1295 1.427 . S
C1288 H1279 0.930 . S
C1288 C1286 1.378 . S
C1288 C1289 1.367 . S
C1289 C1288 1.367 . S
C1289 C1291 1.433 . S
C1290 C1286 1.350 . S
C1290 C1287 1.463 . S
C1290 N1294 1.427 . S
C1291 H1281 0.929 . S
C1291 C1289 1.433 . S
C1291 N1294 1.384 . S
C1292 H1283 0.929 . S
C1292 C1284 1.378 . S
C1292 C1287 1.350 . S
C1293 H1280 0.929 . S
C1293 C1285 1.433 . S
C1293 N1295 1.384 . S
N1294 C1290 1.427 . S
N1294 C1291 1.384 . S
N1295 C1287 1.427 . S
N1295 C1293 1.384 . S
H1296 C1302 0.930 . S
H1297 C1306 0.930 . S
H1298 C1311 0.929 . S
H1299 C1309 0.929 . S
H1300 C1304 0.929 . S
H1301 C1310 0.929 . S
C1302 H1296 0.930 . S
C1302 C1303 1.367 . S
C1302 C1310 1.378 . S
C1303 C1302 1.367 . S
C1303 C1311 1.433 . S
C1304 H1300 0.929 . S
C1304 C1306 1.378 . S
C1304 C1308 1.350 . S
C1305 C1308 1.463 . S
C1305 C1310 1.350 . S
C1305 N1313 1.427 . S
C1306 H1297 0.930 . S
C1306 C1304 1.378 . S
C1306 C1307 1.367 . S
C1307 C1306 1.367 . S
C1307 C1309 1.433 . S
C1308 C1304 1.350 . S
C1308 C1305 1.463 . S
C1308 N1312 1.427 . S
C1309 H1299 0.929 . S
C1309 C1307 1.433 . S
C1309 N1312 1.384 . S
C1310 H1301 0.929 . S
C1310 C1302 1.378 . S
C1310 C1305 1.350 . S
C1311 H1298 0.929 . S
C1311 C1303 1.433 . S
C1311 N1313 1.384 . S
N1312 C1308 1.427 . S
N1312 C1309 1.384 . S
N1313 C1305 1.427 . S
N1313 C1311 1.384 . S
H1314 C1320 0.930 . S
H1315 C1324 0.930 . S
H1316 C1329 0.929 . S
H1317 C1327 0.929 . S
H1318 C1322 0.929 . S
H1319 C1328 0.929 . S
C1320 H1314 0.930 . S
C1320 C1321 1.367 . S
C1320 C1328 1.378 . S
C1321 C1320 1.367 . S
C1321 C1329 1.433 . S
C1322 H1318 0.929 . S
C1322 C1324 1.378 . S
C1322 C1326 1.350 . S
C1323 C1326 1.463 . S
C1323 C1328 1.350 . S
C1323 N1331 1.427 . S
C1324 H1315 0.930 . S
C1324 C1322 1.378 . S
C1324 C1325 1.367 . S
C1325 C1324 1.367 . S
C1325 C1327 1.433 . S
C1326 C1322 1.350 . S
C1326 C1323 1.463 . S
C1326 N1330 1.427 . S
C1327 H1317 0.929 . S
C1327 C1325 1.433 . S
C1327 N1330 1.384 . S
C1328 H1319 0.929 . S
C1328 C1320 1.378 . S
C1328 C1323 1.350 . S
C1329 H1316 0.929 . S
C1329 C1321 1.433 . S
C1329 N1331 1.384 . S
N1330 C1326 1.427 . S
N1330 C1327 1.384 . S
N1331 C1323 1.427 . S
N1331 C1329 1.384 . S
H1332 C1338 0.930 . S
H1333 C1342 0.930 . S
H1334 C1347 0.929 . S
H1335 C1345 0.929 . S
H1336 C1340 0.929 . S
H1337 C1346 0.929 . S
C1338 H1332 0.930 . S
C1338 C1339 1.367 . S
C1338 C1346 1.378 . S
C1339 C1338 1.367 . S
C1339 C1347 1.433 . S
C1340 H1336 0.929 . S
C1340 C1342 1.378 . S
C1340 C1344 1.350 . S
C1341 C1344 1.463 . S
C1341 C1346 1.350 . S
C1341 N1349 1.427 . S
C1342 H1333 0.930 . S
C1342 C1340 1.378 . S
C1342 C1343 1.367 . S
C1343 C1342 1.367 . S
C1343 C1345 1.433 . S
C1344 C1340 1.350 . S
C1344 C1341 1.463 . S
C1344 N1348 1.427 . S
C1345 H1335 0.929 . S
C1345 C1343 1.433 . S
C1345 N1348 1.384 . S
C1346 H1337 0.929 . S
C1346 C1338 1.378 . S
C1346 C1341 1.350 . S
C1347 H1334 0.929 . S
C1347 C1339 1.433 . S
C1347 N1349 1.384 . S
N1348 C1344 1.427 . S
N1348 C1345 1.384 . S
N1349 C1341 1.427 . S
N1349 C1347 1.384 . S
H1350 C1356 0.930 . S
H1351 C1360 0.930 . S
H1352 C1365 0.929 . S
H1353 C1363 0.929 . S
H1354 C1358 0.929 . S
H1355 C1364 0.929 . S
C1356 H1350 0.930 . S
C1356 C1357 1.367 . S
C1356 C1364 1.378 . S
C1357 C1356 1.367 . S
C1357 C1365 1.433 . S
C1358 H1354 0.929 . S
C1358 C1360 1.378 . S
C1358 C1362 1.350 . S
C1359 C1362 1.463 . S
C1359 C1364 1.350 . S
C1359 N1367 1.427 . S
C1360 H1351 0.930 . S
C1360 C1358 1.378 . S
C1360 C1361 1.367 . S
C1361 C1360 1.367 . S
C1361 C1363 1.433 . S
C1362 C1358 1.350 . S
C1362 C1359 1.463 . S
C1362 N1366 1.427 . S
C1363 H1353 0.929 . S
C1363 C1361 1.433 . S
C1363 N1366 1.384 . S
C1364 H1355 0.929 . S
C1364 C1356 1.378 . S
C1364 C1359 1.350 . S
C1365 H1352 0.929 . S
C1365 C1357 1.433 . S
C1365 N1367 1.384 . S
N1366 C1362 1.427 . S
N1366 C1363 1.384 . S
N1367 C1359 1.427 . S
N1367 C1365 1.384 . S
H1368 C1374 0.930 . S
H1369 C1378 0.930 . S
H1370 C1383 0.926 1_655 S
H1371 C1381 0.926 1_455 S
H1372 C1376 0.929 . S
H1373 C1382 0.929 . S
C1374 H1368 0.930 . S
C1374 C1375 1.367 . S
C1374 C1382 1.378 . S
C1375 C1374 1.367 . S
C1375 C1383 1.461 . S
C1376 H1372 0.929 . S
C1376 C1378 1.378 . S
C1376 C1380 1.350 . S
C1377 C1380 1.463 1_455 S
C1377 C1382 1.350 . S
C1377 N1385 1.427 1_455 S
C1378 H1369 0.930 . S
C1378 C1376 1.378 . S
C1378 C1379 1.367 . S
C1379 C1378 1.367 . S
C1379 C1381 1.461 . S
C1380 C1376 1.350 . S
C1380 C1377 1.463 1_655 S
C1380 N1384 1.427 1_655 S
C1381 H1371 0.926 1_655 S
C1381 C1379 1.461 . S
C1381 N1384 1.361 1_655 S
C1382 H1373 0.929 . S
C1382 C1374 1.378 . S
C1382 C1377 1.350 . S
C1383 H1370 0.926 1_455 S
C1383 C1375 1.461 . S
C1383 N1385 1.361 1_455 S
N1384 C1380 1.427 1_455 S
N1384 C1381 1.361 1_455 S
N1385 C1377 1.427 1_655 S
N1385 C1383 1.361 1_655 S
H1386 C1392 0.930 . S
H1387 C1396 0.930 . S
H1388 C1401 0.929 . S
H1389 C1399 0.929 . S
H1390 C1394 0.929 . S
H1391 C1400 0.929 . S
C1392 H1386 0.930 . S
C1392 C1393 1.367 . S
C1392 C1400 1.378 . S
C1393 C1392 1.367 . S
C1393 C1401 1.433 . S
C1394 H1390 0.929 . S
C1394 C1396 1.378 . S
C1394 C1398 1.350 . S
C1395 C1398 1.463 . S
C1395 C1400 1.350 . S
C1395 N1403 1.427 . S
C1396 H1387 0.930 . S
C1396 C1394 1.378 . S
C1396 C1397 1.367 . S
C1397 C1396 1.367 . S
C1397 C1399 1.433 . S
C1398 C1394 1.350 . S
C1398 C1395 1.463 . S
C1398 N1402 1.427 . S
C1399 H1389 0.929 . S
C1399 C1397 1.433 . S
C1399 N1402 1.384 . S
C1400 H1391 0.929 . S
C1400 C1392 1.378 . S
C1400 C1395 1.350 . S
C1401 H1388 0.929 . S
C1401 C1393 1.433 . S
C1401 N1403 1.384 . S
N1402 C1398 1.427 . S
N1402 C1399 1.384 . S
N1403 C1395 1.427 . S
N1403 C1401 1.384 . S
H1404 C1410 0.930 . S
H1405 C1414 0.930 . S
H1406 C1419 0.929 . S
H1407 C1417 0.929 . S
H1408 C1412 0.929 . S
H1409 C1418 0.929 . S
C1410 H1404 0.930 . S
C1410 C1411 1.367 . S
C1410 C1418 1.378 . S
C1411 C1410 1.367 . S
C1411 C1419 1.433 . S
C1412 H1408 0.929 . S
C1412 C1414 1.378 . S
C1412 C1416 1.350 . S
C1413 C1416 1.463 1_545 S
C1413 C1418 1.350 . S
C1413 N1421 1.427 . S
C1414 H1405 0.930 . S
C1414 C1412 1.378 . S
C1414 C1415 1.367 . S
C1415 C1414 1.367 . S
C1415 C1417 1.433 . S
C1416 C1412 1.350 . S
C1416 C1413 1.463 1_565 S
C1416 N1420 1.427 . S
C1417 H1407 0.929 . S
C1417 C1415 1.433 . S
C1417 N1420 1.384 . S
C1418 H1409 0.929 . S
C1418 C1410 1.378 . S
C1418 C1413 1.350 . S
C1419 H1406 0.929 . S
C1419 C1411 1.433 . S
C1419 N1421 1.384 . S
N1420 C1416 1.427 . S
N1420 C1417 1.384 . S
N1421 C1413 1.427 . S
N1421 C1419 1.384 . S
H1422 C1428 0.930 . S
H1423 C1432 0.930 . S
H1424 C1437 0.929 . S
H1425 C1435 0.929 . S
H1426 C1430 0.915 1_545 S
H1427 C1436 0.915 1_565 S
C1428 H1422 0.930 . S
C1428 C1429 1.367 1_554 S
C1428 C1436 1.410 . S
C1429 C1428 1.367 1_556 S
C1429 C1437 1.433 . S
C1430 H1426 0.915 1_565 S
C1430 C1432 1.410 . S
C1430 C1434 1.333 1_556 S
C1431 C1434 1.463 1_546 S
C1431 C1436 1.333 1_556 S
C1431 N1439 1.427 . S
C1432 H1423 0.930 . S
C1432 C1430 1.410 . S
C1432 C1433 1.367 1_556 S
C1433 C1432 1.367 1_554 S
C1433 C1435 1.433 . S
C1434 C1430 1.333 1_554 S
C1434 C1431 1.463 1_564 S
C1434 N1438 1.427 . S
C1435 H1425 0.929 . S
C1435 C1433 1.433 . S
C1435 N1438 1.384 . S
C1436 H1427 0.915 1_545 S
C1436 C1428 1.410 . S
C1436 C1431 1.333 1_554 S
C1437 H1424 0.929 . S
C1437 C1429 1.433 . S
C1437 N1439 1.384 . S
N1438 C1434 1.427 . S
N1438 C1435 1.384 . S
N1439 C1431 1.427 . S
N1439 C1437 1.384 . S
H1440 C1446 0.930 . S
H1441 C1450 0.930 . S
H1442 C1455 0.929 . S
H1443 C1453 0.929 . S
H1444 C1448 0.929 . S
H1445 C1454 0.929 . S
C1446 H1440 0.930 . S
C1446 C1447 1.367 . S
C1446 C1454 1.378 . S
C1447 C1446 1.367 . S
C1447 C1455 1.433 1_554 S
C1448 H1444 0.929 . S
C1448 C1450 1.378 . S
C1448 C1452 1.350 . S
C1449 C1452 1.463 1_454 S
C1449 C1454 1.350 . S
C1449 N1457 1.427 1_554 S
C1450 H1441 0.930 . S
C1450 C1448 1.378 . S
C1450 C1451 1.367 . S
C1451 C1450 1.367 . S
C1451 C1453 1.433 1_556 S
C1452 C1448 1.350 . S
C1452 C1449 1.463 1_656 S
C1452 N1456 1.427 1_556 S
C1453 H1443 0.929 . S
C1453 C1451 1.433 1_554 S
C1453 N1456 1.384 . S
C1454 H1445 0.929 . S
C1454 C1446 1.378 . S
C1454 C1449 1.350 . S
C1455 H1442 0.929 . S
C1455 C1447 1.433 1_556 S
C1455 N1457 1.384 . S
N1456 C1452 1.427 1_554 S
N1456 C1453 1.384 . S
N1457 C1449 1.427 1_556 S
N1457 C1455 1.384 . S
H1458 C1464 0.930 . S
H1459 C1468 0.930 . S
H1460 C1473 0.929 . S
H1461 C1471 0.929 . S
H1462 C1466 0.929 . S
H1463 C1472 0.929 . S
C1464 H1458 0.930 . S
C1464 C1465 1.367 . S
C1464 C1472 1.378 . S
C1465 C1464 1.367 . S
C1465 C1473 1.433 1_554 S
C1466 H1462 0.929 . S
C1466 C1468 1.378 . S
C1466 C1470 1.350 . S
C1467 C1470 1.463 1_554 S
C1467 C1472 1.350 . S
C1467 N1475 1.427 1_554 S
C1468 H1459 0.930 . S
C1468 C1466 1.378 . S
C1468 C1469 1.367 . S
C1469 C1468 1.367 . S
C1469 C1471 1.433 1_556 S
C1470 C1466 1.350 . S
C1470 C1467 1.463 1_556 S
C1470 N1474 1.427 1_556 S
C1471 H1461 0.929 . S
C1471 C1469 1.433 1_554 S
C1471 N1474 1.384 . S
C1472 H1463 0.929 . S
C1472 C1464 1.378 . S
C1472 C1467 1.350 . S
C1473 H1460 0.929 . S
C1473 C1465 1.433 1_556 S
C1473 N1475 1.384 . S
N1474 C1470 1.427 1_554 S
N1474 C1471 1.384 . S
N1475 C1467 1.427 1_556 S
N1475 C1473 1.384 . S
H1476 C1482 0.930 . S
H1477 C1486 0.930 . S
H1478 C1491 0.929 1_556 S
H1479 C1489 0.929 . S
H1480 C1484 0.929 . S
H1481 C1490 0.929 . S
C1482 H1476 0.930 . S
C1482 C1483 1.367 . S
C1482 C1490 1.378 . S
C1483 C1482 1.367 . S
C1483 C1491 1.433 . S
C1484 H1480 0.929 . S
C1484 C1486 1.378 . S
C1484 C1488 1.350 . S
C1485 C1488 1.463 . S
C1485 C1490 1.350 . S
C1485 N1493 1.427 . S
C1486 H1477 0.930 . S
C1486 C1484 1.378 . S
C1486 C1487 1.367 . S
C1487 C1486 1.367 . S
C1487 C1489 1.433 . S
C1488 C1484 1.350 . S
C1488 C1485 1.463 . S
C1488 N1492 1.427 . S
C1489 H1479 0.929 . S
C1489 C1487 1.433 . S
C1489 N1492 1.384 . S
C1490 H1481 0.929 . S
C1490 C1482 1.378 . S
C1490 C1485 1.350 . S
C1491 H1478 0.929 1_554 S
C1491 C1483 1.433 . S
C1491 N1493 1.384 . S
N1492 C1488 1.427 . S
N1492 C1489 1.384 . S
N1493 C1485 1.427 . S
N1493 C1491 1.384 . S
H1494 C1500 0.930 . S
H1495 C1504 0.930 . S
H1496 C1509 0.929 . S
H1497 C1507 0.929 . S
H1498 C1502 0.929 . S
H1499 C1508 0.929 . S
C1500 H1494 0.930 . S
C1500 C1501 1.367 . S
C1500 C1508 1.378 . S
C1501 C1500 1.367 . S
C1501 C1509 1.433 . S
C1502 H1498 0.929 . S
C1502 C1504 1.378 . S
C1502 C1506 1.350 . S
C1503 C1506 1.463 . S
C1503 C1508 1.350 . S
C1503 N1511 1.427 . S
C1504 H1495 0.930 . S
C1504 C1502 1.378 . S
C1504 C1505 1.367 . S
C1505 C1504 1.367 . S
C1505 C1507 1.433 . S
C1506 C1502 1.350 . S
C1506 C1503 1.463 . S
C1506 N1510 1.427 . S
C1507 H1497 0.929 . S
C1507 C1505 1.433 . S
C1507 N1510 1.384 . S
C1508 H1499 0.929 . S
C1508 C1500 1.378 . S
C1508 C1503 1.350 . S
C1509 H1496 0.929 . S
C1509 C1501 1.433 . S
C1509 N1511 1.384 . S
N1510 C1506 1.427 . S
N1510 C1507 1.384 . S
N1511 C1503 1.427 . S
N1511 C1509 1.384 . S
H1512 C1518 0.930 . S
H1513 C1522 0.930 . S
H1514 C1527 0.929 1_556 S
H1515 C1525 0.929 . S
H1516 C1520 0.929 . S
H1517 C1526 0.929 . S
C1518 H1512 0.930 . S
C1518 C1519 1.367 . S
C1518 C1526 1.378 . S
C1519 C1518 1.367 . S
C1519 C1527 1.433 . S
C1520 H1516 0.929 . S
C1520 C1522 1.378 . S
C1520 C1524 1.350 . S
C1521 C1524 1.463 . S
C1521 C1526 1.350 . S
C1521 N1529 1.427 . S
C1522 H1513 0.930 . S
C1522 C1520 1.378 . S
C1522 C1523 1.367 . S
C1523 C1522 1.367 . S
C1523 C1525 1.433 . S
C1524 C1520 1.350 . S
C1524 C1521 1.463 . S
C1524 N1528 1.427 . S
C1525 H1515 0.929 . S
C1525 C1523 1.433 . S
C1525 N1528 1.384 . S
C1526 H1517 0.929 . S
C1526 C1518 1.378 . S
C1526 C1521 1.350 . S
C1527 H1514 0.929 1_554 S
C1527 C1519 1.433 . S
C1527 N1529 1.384 . S
N1528 C1524 1.427 . S
N1528 C1525 1.384 . S
N1529 C1521 1.427 . S
N1529 C1527 1.384 . S
H1530 C1536 0.930 . S
H1531 C1540 0.930 . S
H1532 C1545 0.929 . S
H1533 C1543 0.929 . S
H1534 C1538 0.929 . S
H1535 C1544 0.929 . S
C1536 H1530 0.930 . S
C1536 C1537 1.367 . S
C1536 C1544 1.378 . S
C1537 C1536 1.367 . S
C1537 C1545 1.433 . S
C1538 H1534 0.929 . S
C1538 C1540 1.378 . S
C1538 C1542 1.350 . S
C1539 C1542 1.463 . S
C1539 C1544 1.350 . S
C1539 N1547 1.427 . S
C1540 H1531 0.930 . S
C1540 C1538 1.378 . S
C1540 C1541 1.367 . S
C1541 C1540 1.367 . S
C1541 C1543 1.433 . S
C1542 C1538 1.350 . S
C1542 C1539 1.463 . S
C1542 N1546 1.427 . S
C1543 H1533 0.929 . S
C1543 C1541 1.433 . S
C1543 N1546 1.384 . S
C1544 H1535 0.929 . S
C1544 C1536 1.378 . S
C1544 C1539 1.350 . S
C1545 H1532 0.929 . S
C1545 C1537 1.433 . S
C1545 N1547 1.384 . S
N1546 C1542 1.427 . S
N1546 C1543 1.384 . S
N1547 C1539 1.427 . S
N1547 C1545 1.384 . S
H1548 C1554 0.930 . S
H1549 C1558 0.930 . S
H1550 C1563 0.929 . S
H1551 C1561 0.929 . S
H1552 C1556 0.929 . S
H1553 C1562 0.929 . S
C1554 H1548 0.930 . S
C1554 C1555 1.367 . S
C1554 C1562 1.378 . S
C1555 C1554 1.367 . S
C1555 C1563 1.433 . S
C1556 H1552 0.929 . S
C1556 C1558 1.378 . S
C1556 C1560 1.350 . S
C1557 C1560 1.463 . S
C1557 C1562 1.350 . S
C1557 N1565 1.427 . S
C1558 H1549 0.930 . S
C1558 C1556 1.378 . S
C1558 C1559 1.367 . S
C1559 C1558 1.367 . S
C1559 C1561 1.433 . S
C1560 C1556 1.350 . S
C1560 C1557 1.463 . S
C1560 N1564 1.427 . S
C1561 H1551 0.929 . S
C1561 C1559 1.433 . S
C1561 N1564 1.384 . S
C1562 H1553 0.929 . S
C1562 C1554 1.378 . S
C1562 C1557 1.350 . S
C1563 H1550 0.929 . S
C1563 C1555 1.433 . S
C1563 N1565 1.384 . S
N1564 C1560 1.427 . S
N1564 C1561 1.384 . S
N1565 C1557 1.427 . S
N1565 C1563 1.384 . S
H1566 C1572 0.930 . S
H1567 C1576 0.930 . S
H1568 C1581 0.929 . S
H1569 C1579 0.929 . S
H1570 C1574 0.929 . S
H1571 C1580 0.929 . S
C1572 H1566 0.930 . S
C1572 C1573 1.367 . S
C1572 C1580 1.378 . S
C1573 C1572 1.367 . S
C1573 C1581 1.433 . S
C1574 H1570 0.929 . S
C1574 C1576 1.378 . S
C1574 C1578 1.350 . S
C1575 C1578 1.463 . S
C1575 C1580 1.350 . S
C1575 N1583 1.427 . S
C1576 H1567 0.930 . S
C1576 C1574 1.378 . S
C1576 C1577 1.367 . S
C1577 C1576 1.367 . S
C1577 C1579 1.433 . S
C1578 C1574 1.350 . S
C1578 C1575 1.463 . S
C1578 N1582 1.427 . S
C1579 H1569 0.929 . S
C1579 C1577 1.433 . S
C1579 N1582 1.384 . S
C1580 H1571 0.929 . S
C1580 C1572 1.378 . S
C1580 C1575 1.350 . S
C1581 H1568 0.929 . S
C1581 C1573 1.433 . S
C1581 N1583 1.384 . S
N1582 C1578 1.427 . S
N1582 C1579 1.384 . S
N1583 C1575 1.427 . S
N1583 C1581 1.384 . S
H1584 C1590 0.930 . S
H1585 C1594 0.930 1_554 S
H1586 C1599 0.929 . S
H1587 C1597 0.929 . S
H1588 C1592 0.929 . S
H1589 C1598 0.929 . S
C1590 H1584 0.930 . S
C1590 C1591 1.367 . S
C1590 C1598 1.378 . S
C1591 C1590 1.367 . S
C1591 C1599 1.433 . S
C1592 H1588 0.929 . S
C1592 C1594 1.378 . S
C1592 C1596 1.350 . S
C1593 C1596 1.463 . S
C1593 C1598 1.350 . S
C1593 N1601 1.427 . S
C1594 H1585 0.930 1_556 S
C1594 C1592 1.378 . S
C1594 C1595 1.367 . S
C1595 C1594 1.367 . S
C1595 C1597 1.433 . S
C1596 C1592 1.350 . S
C1596 C1593 1.463 . S
C1596 N1600 1.427 . S
C1597 H1587 0.929 . S
C1597 C1595 1.433 . S
C1597 N1600 1.384 . S
C1598 H1589 0.929 . S
C1598 C1590 1.378 . S
C1598 C1593 1.350 . S
C1599 H1586 0.929 . S
C1599 C1591 1.433 . S
C1599 N1601 1.384 . S
N1600 C1596 1.427 . S
N1600 C1597 1.384 . S
N1601 C1593 1.427 . S
N1601 C1599 1.384 . S
H1602 C1608 0.930 . S
H1603 C1612 0.930 . S
H1604 C1617 0.929 1_554 S
H1605 C1615 0.929 . S
H1606 C1610 0.929 . S
H1607 C1616 0.929 . S
C1608 H1602 0.930 . S
C1608 C1609 1.367 . S
C1608 C1616 1.378 . S
C1609 C1608 1.367 . S
C1609 C1617 1.433 . S
C1610 H1606 0.929 . S
C1610 C1612 1.378 . S
C1610 C1614 1.350 . S
C1611 C1614 1.463 . S
C1611 C1616 1.350 . S
C1611 N1619 1.427 . S
C1612 H1603 0.930 . S
C1612 C1610 1.378 . S
C1612 C1613 1.367 . S
C1613 C1612 1.367 . S
C1613 C1615 1.433 . S
C1614 C1610 1.350 . S
C1614 C1611 1.463 . S
C1614 N1618 1.427 . S
C1615 H1605 0.929 . S
C1615 C1613 1.433 . S
C1615 N1618 1.384 . S
C1616 H1607 0.929 . S
C1616 C1608 1.378 . S
C1616 C1611 1.350 . S
C1617 H1604 0.929 1_556 S
C1617 C1609 1.433 . S
C1617 N1619 1.384 . S
N1618 C1614 1.427 . S
N1618 C1615 1.384 . S
N1619 C1611 1.427 . S
N1619 C1617 1.384 . S
H1620 C1626 0.930 . S
H1621 C1630 0.930 1_554 S
H1622 C1635 0.929 . S
H1623 C1633 0.929 . S
H1624 C1628 0.929 . S
H1625 C1634 0.929 . S
C1626 H1620 0.930 . S
C1626 C1627 1.367 . S
C1626 C1634 1.378 . S
C1627 C1626 1.367 . S
C1627 C1635 1.433 . S
C1628 H1624 0.929 . S
C1628 C1630 1.378 . S
C1628 C1632 1.350 . S
C1629 C1632 1.463 . S
C1629 C1634 1.350 . S
C1629 N1637 1.427 . S
C1630 H1621 0.930 1_556 S
C1630 C1628 1.378 . S
C1630 C1631 1.367 . S
C1631 C1630 1.367 . S
C1631 C1633 1.433 . S
C1632 C1628 1.350 . S
C1632 C1629 1.463 . S
C1632 N1636 1.427 . S
C1633 H1623 0.929 . S
C1633 C1631 1.433 . S
C1633 N1636 1.384 . S
C1634 H1625 0.929 . S
C1634 C1626 1.378 . S
C1634 C1629 1.350 . S
C1635 H1622 0.929 . S
C1635 C1627 1.433 . S
C1635 N1637 1.384 . S
N1636 C1632 1.427 . S
N1636 C1633 1.384 . S
N1637 C1629 1.427 . S
N1637 C1635 1.384 . S
H1638 C1644 0.930 . S
H1639 C1648 0.930 . S
H1640 C1653 0.929 . S
H1641 C1651 0.929 . S
H1642 C1646 0.929 . S
H1643 C1652 0.929 . S
C1644 H1638 0.930 . S
C1644 C1645 1.367 . S
C1644 C1652 1.378 . S
C1645 C1644 1.367 . S
C1645 C1653 1.433 . S
C1646 H1642 0.929 . S
C1646 C1648 1.378 . S
C1646 C1650 1.350 . S
C1647 C1650 1.463 . S
C1647 C1652 1.350 . S
C1647 N1655 1.427 . S
C1648 H1639 0.930 . S
C1648 C1646 1.378 . S
C1648 C1649 1.367 . S
C1649 C1648 1.367 . S
C1649 C1651 1.433 . S
C1650 C1646 1.350 . S
C1650 C1647 1.463 . S
C1650 N1654 1.427 . S
C1651 H1641 0.929 . S
C1651 C1649 1.433 . S
C1651 N1654 1.384 . S
C1652 H1643 0.929 . S
C1652 C1644 1.378 . S
C1652 C1647 1.350 . S
C1653 H1640 0.929 . S
C1653 C1645 1.433 . S
C1653 N1655 1.384 . S
N1654 C1650 1.427 . S
N1654 C1651 1.384 . S
N1655 C1647 1.427 . S
N1655 C1653 1.384 . S
H1656 C1662 0.930 . S
H1657 C1666 0.930 . S
H1658 C1671 0.929 . S
H1659 C1669 0.929 . S
H1660 C1664 0.929 . S
H1661 C1670 0.929 . S
C1662 H1656 0.930 . S
C1662 C1663 1.367 . S
C1662 C1670 1.378 . S
C1663 C1662 1.367 . S
C1663 C1671 1.433 . S
C1664 H1660 0.929 . S
C1664 C1666 1.378 . S
C1664 C1668 1.350 . S
C1665 C1668 1.463 . S
C1665 C1670 1.350 . S
C1665 N1673 1.427 . S
C1666 H1657 0.930 . S
C1666 C1664 1.378 . S
C1666 C1667 1.367 . S
C1667 C1666 1.367 . S
C1667 C1669 1.433 . S
C1668 C1664 1.350 . S
C1668 C1665 1.463 . S
C1668 N1672 1.427 . S
C1669 H1659 0.929 . S
C1669 C1667 1.433 . S
C1669 N1672 1.384 . S
C1670 H1661 0.929 . S
C1670 C1662 1.378 . S
C1670 C1665 1.350 . S
C1671 H1658 0.929 . S
C1671 C1663 1.433 . S
C1671 N1673 1.384 . S
N1672 C1668 1.427 . S
N1672 C1669 1.384 . S
N1673 C1665 1.427 . S
N1673 C1671 1.384 . S
H1674 C1680 0.930 . S
H1675 C1684 0.930 . S
H1676 C1689 0.929 . S
H1677 C1687 0.929 . S
H1678 C1682 0.929 . S
H1679 C1688 0.929 . S
C1680 H1674 0.930 . S
C1680 C1681 1.367 . S
C1680 C1688 1.378 . S
C1681 C1680 1.367 . S
C1681 C1689 1.433 . S
C1682 H1678 0.929 . S
C1682 C1684 1.378 . S
C1682 C1686 1.350 . S
C1683 C1686 1.463 . S
C1683 C1688 1.350 . S
C1683 N1691 1.427 . S
C1684 H1675 0.930 . S
C1684 C1682 1.378 . S
C1684 C1685 1.367 . S
C1685 C1684 1.367 . S
C1685 C1687 1.433 . S
C1686 C1682 1.350 . S
C1686 C1683 1.463 . S
C1686 N1690 1.427 . S
C1687 H1677 0.929 . S
C1687 C1685 1.433 . S
C1687 N1690 1.384 . S
C1688 H1679 0.929 . S
C1688 C1680 1.378 . S
C1688 C1683 1.350 . S
C1689 H1676 0.929 . S
C1689 C1681 1.433 . S
C1689 N1691 1.384 . S
N1690 C1686 1.427 . S
N1690 C1687 1.384 . S
N1691 C1683 1.427 . S
N1691 C1689 1.384 . S
H1692 C1698 0.930 . S
H1693 C1702 0.930 . S
H1694 C1707 0.929 . S
H1695 C1705 0.929 . S
H1696 C1700 0.929 . S
H1697 C1706 0.929 . S
C1698 H1692 0.930 . S
C1698 C1699 1.367 . S
C1698 C1706 1.378 . S
C1699 C1698 1.367 . S
C1699 C1707 1.433 . S
C1700 H1696 0.929 . S
C1700 C1702 1.378 . S
C1700 C1704 1.350 . S
C1701 C1704 1.463 . S
C1701 C1706 1.350 . S
C1701 N1709 1.427 . S
C1702 H1693 0.930 . S
C1702 C1700 1.378 . S
C1702 C1703 1.367 . S
C1703 C1702 1.367 . S
C1703 C1705 1.433 . S
C1704 C1700 1.350 . S
C1704 C1701 1.463 . S
C1704 N1708 1.427 . S
C1705 H1695 0.929 . S
C1705 C1703 1.433 . S
C1705 N1708 1.384 . S
C1706 H1697 0.929 . S
C1706 C1698 1.378 . S
C1706 C1701 1.350 . S
C1707 H1694 0.929 . S
C1707 C1699 1.433 . S
C1707 N1709 1.384 . S
N1708 C1704 1.427 . S
N1708 C1705 1.384 . S
N1709 C1701 1.427 . S
N1709 C1707 1.384 . S
H1710 C1716 0.930 . S
H1711 C1720 0.930 . S
H1712 C1725 0.929 . S
H1713 C1723 0.929 . S
H1714 C1718 0.929 1_545 S
H1715 C1724 0.929 1_565 S
C1716 H1710 0.930 . S
C1716 C1717 1.367 . S
C1716 C1724 1.378 . S
C1717 C1716 1.367 . S
C1717 C1725 1.433 . S
C1718 H1714 0.929 1_565 S
C1718 C1720 1.378 . S
C1718 C1722 1.350 . S
C1719 C1722 1.463 1_545 S
C1719 C1724 1.350 . S
C1719 N1727 1.427 . S
C1720 H1711 0.930 . S
C1720 C1718 1.378 . S
C1720 C1721 1.367 . S
C1721 C1720 1.367 . S
C1721 C1723 1.433 . S
C1722 C1718 1.350 . S
C1722 C1719 1.463 1_565 S
C1722 N1726 1.427 . S
C1723 H1713 0.929 . S
C1723 C1721 1.433 . S
C1723 N1726 1.384 . S
C1724 H1715 0.929 1_545 S
C1724 C1716 1.378 . S
C1724 C1719 1.350 . S
C1725 H1712 0.929 . S
C1725 C1717 1.433 . S
C1725 N1727 1.384 . S
N1726 C1722 1.427 . S
N1726 C1723 1.384 . S
N1727 C1719 1.427 . S
N1727 C1725 1.384 . S
H1728 C1734 0.930 . S
H1729 C1738 0.930 . S
H1730 C1743 0.929 . S
H1731 C1741 0.929 . S
H1732 C1736 0.854 1_655 S
H1733 C1742 0.853 1_455 S
C1734 H1728 0.930 . S
C1734 C1735 1.367 . S
C1734 C1742 1.427 . S
C1735 C1734 1.367 . S
C1735 C1743 1.433 . S
C1736 H1732 0.854 1_455 S
C1736 C1738 1.427 . S
C1736 C1740 1.381 . S
C1737 C1740 1.463 1_655 S
C1737 C1742 1.381 . S
C1737 N1745 1.427 . S
C1738 H1729 0.930 . S
C1738 C1736 1.427 . S
C1738 C1739 1.367 . S
C1739 C1738 1.367 . S
C1739 C1741 1.433 . S
C1740 C1736 1.381 . S
C1740 C1737 1.463 1_455 S
C1740 N1744 1.427 . S
C1741 H1731 0.929 . S
C1741 C1739 1.433 . S
C1741 N1744 1.384 . S
C1742 H1733 0.853 1_655 S
C1742 C1734 1.427 . S
C1742 C1737 1.381 . S
C1743 H1730 0.929 . S
C1743 C1735 1.433 . S
C1743 N1745 1.384 . S
N1744 C1740 1.427 . S
N1744 C1741 1.384 . S
N1745 C1737 1.427 . S
N1745 C1743 1.384 . S
H1746 C1752 0.930 . S
H1747 C1756 0.930 . S
H1748 C1761 0.929 . S
H1749 C1759 0.929 . S
H1750 C1754 0.929 . S
H1751 C1760 0.929 . S
C1752 H1746 0.930 . S
C1752 C1753 1.367 . S
C1752 C1760 1.378 . S
C1753 C1752 1.367 . S
C1753 C1761 1.433 . S
C1754 H1750 0.929 . S
C1754 C1756 1.378 . S
C1754 C1758 1.350 . S
C1755 C1758 1.463 . S
C1755 C1760 1.350 . S
C1755 N1763 1.427 . S
C1756 H1747 0.930 . S
C1756 C1754 1.378 . S
C1756 C1757 1.367 . S
C1757 C1756 1.367 . S
C1757 C1759 1.433 . S
C1758 C1754 1.350 . S
C1758 C1755 1.463 . S
C1758 N1762 1.427 . S
C1759 H1749 0.929 . S
C1759 C1757 1.433 . S
C1759 N1762 1.384 . S
C1760 H1751 0.929 . S
C1760 C1752 1.378 . S
C1760 C1755 1.350 . S
C1761 H1748 0.929 . S
C1761 C1753 1.433 . S
C1761 N1763 1.384 . S
N1762 C1758 1.427 . S
N1762 C1759 1.384 . S
N1763 C1755 1.427 . S
N1763 C1761 1.384 . S
H1764 C1770 0.930 . S
H1765 C1774 0.930 . S
H1766 C1779 0.929 . S
H1767 C1777 0.929 . S
H1768 C1772 0.929 . S
H1769 C1778 0.929 . S
C1770 H1764 0.930 . S
C1770 C1771 1.367 . S
C1770 C1778 1.378 . S
C1771 C1770 1.367 . S
C1771 C1779 1.433 . S
C1772 H1768 0.929 . S
C1772 C1774 1.378 . S
C1772 C1776 1.350 . S
C1773 C1776 1.463 1_545 S
C1773 C1778 1.350 . S
C1773 N1781 1.427 . S
C1774 H1765 0.930 . S
C1774 C1772 1.378 . S
C1774 C1775 1.367 . S
C1775 C1774 1.367 . S
C1775 C1777 1.433 . S
C1776 C1772 1.350 . S
C1776 C1773 1.463 1_565 S
C1776 N1780 1.427 . S
C1777 H1767 0.929 . S
C1777 C1775 1.433 . S
C1777 N1780 1.384 . S
C1778 H1769 0.929 . S
C1778 C1770 1.378 . S
C1778 C1773 1.350 . S
C1779 H1766 0.929 . S
C1779 C1771 1.433 . S
C1779 N1781 1.384 . S
N1780 C1776 1.427 . S
N1780 C1777 1.384 . S
N1781 C1773 1.427 . S
N1781 C1779 1.384 . S
H1782 C1788 0.930 . S
H1783 C1792 0.930 . S
H1784 C1797 0.929 . S
H1785 C1795 0.929 . S
H1786 C1790 0.929 . S
H1787 C1796 0.929 . S
C1788 H1782 0.930 . S
C1788 C1789 1.367 . S
C1788 C1796 1.378 . S
C1789 C1788 1.367 . S
C1789 C1797 1.433 . S
C1790 H1786 0.929 . S
C1790 C1792 1.378 . S
C1790 C1794 1.350 . S
C1791 C1794 1.463 1_455 S
C1791 C1796 1.350 . S
C1791 N1799 1.427 . S
C1792 H1783 0.930 . S
C1792 C1790 1.378 . S
C1792 C1793 1.367 . S
C1793 C1792 1.367 . S
C1793 C1795 1.433 . S
C1794 C1790 1.350 . S
C1794 C1791 1.463 1_655 S
C1794 N1798 1.427 . S
C1795 H1785 0.929 . S
C1795 C1793 1.433 . S
C1795 N1798 1.384 . S
C1796 H1787 0.929 . S
C1796 C1788 1.378 . S
C1796 C1791 1.350 . S
C1797 H1784 0.929 . S
C1797 C1789 1.433 . S
C1797 N1799 1.384 . S
N1798 C1794 1.427 . S
N1798 C1795 1.384 . S
N1799 C1791 1.427 . S
N1799 C1797 1.384 . S
C511 C79 1.197 . S
C515 C9 1.191 . S
C529 C51 1.189 . S
C533 C23 1.198 . S
C547 C37 1.187 . S
C551 C65 1.195 . S
C565 C93 1.197 . S
C569 C163 1.185 . S
C583 C107 1.191 . S
C587 C135 1.197 . S
C601 C149 1.192 . S
C605 C121 1.189 . S
C619 C177 1.199 1_655 S
C623 C247 1.188 . S
C637 C191 1.197 . S
C641 C219 1.190 . S
C655 C233 1.189 . S
C659 C205 1.192 1_545 S
C673 C331 1.195 . S
C677 C261 1.187 . S
C691 C303 1.196 1_545 S
C695 C275 1.192 . S
C709 C289 1.188 . S
C713 C317 1.199 1_655 S
C727 C415 1.185 . S
C731 C345 1.200 . S
C745 C387 1.186 1_565 S
C749 C359 1.195 . S
C763 C373 1.190 . S
C767 C401 1.198 1_455 S
C781 C499 1.190 . S
C785 C429 1.198 1_455 S
C799 C471 1.194 . S
C803 C443 1.188 . S
C817 C485 1.191 . S
C821 C457 1.191 1_565 S
C835 C232 1.628 . S
C839 C8 1.627 . S
C853 C246 1.619 . S
C857 C22 1.617 . S
C871 C218 1.627 . S
C875 C36 1.628 . S
C889 C50 1.614 . S
C893 C372 1.600 1_554 S
C907 C64 1.615 . S
C911 C344 1.602 1_554 S
C925 C78 1.620 . S
C929 C358 1.602 1_554 S
C943 C92 1.625 . S
C947 C484 1.627 . S
C961 C498 1.618 . S
C965 C106 1.620 . S
C979 C470 1.614 . S
C983 C120 1.615 . S
C997 C288 1.597 1_556 S
C1001 C134 1.628 . S
C1015 C260 1.597 1_556 S
C1019 C148 1.627 . S
C1033 C162 1.614 . S
C1037 C274 1.603 1_556 S
C1051 C176 1.614 . S
C1055 C400 1.613 . S
C1069 C414 1.625 . S
C1073 C190 1.623 . S
C1087 C386 1.614 . S
C1091 C204 1.613 . S
C1105 C302 1.624 . S
C1109 C456 1.626 . S
C1123 C428 1.615 . S
C1127 C316 1.613 . S
C1141 C330 1.617 . S
C1145 C442 1.619 . S
C1159 C258 1.496 . S
C1163 C6 1.496 . S
C1177 C272 1.493 . S
C1181 C20 1.493 . S
C1195 C34 1.502 . S
C1199 C286 1.502 . S
C1213 C48 1.494 . S
C1217 C468 1.494 . S
C1231 C482 1.503 . S
C1235 C62 1.503 . S
C1249 C496 1.499 . S
C1253 C76 1.499 . S
C1267 C90 1.503 . S
C1271 C342 1.503 . S
C1285 C104 1.494 . S
C1289 C356 1.494 . S
C1303 C370 1.502 . S
C1307 C118 1.502 . S
C1321 C132 1.492 . S
C1325 C216 1.492 . S
C1339 C146 1.505 . S
C1343 C230 1.505 . S
C1357 C244 1.498 . S
C1361 C160 1.498 . S
C1375 C174 1.500 . S
C1379 C426 1.500 . S
C1393 C188 1.497 . S
C1397 C440 1.497 . S
C1411 C454 1.501 . S
C1415 C202 1.501 . S
C1429 C384 1.496 . S
C1433 C300 1.496 . S
C1447 C314 1.500 . S
C1451 C398 1.500 . S
C1465 C328 1.497 . S
C1469 C412 1.497 . S
C1483 C385 1.234 1_554 S
C1487 C7 1.240 . S
C1501 C21 1.231 . S
C1505 C399 1.238 1_554 S
C1519 C413 1.235 1_554 S
C1523 C35 1.240 . S
C1537 C49 1.235 . S
C1541 C175 1.240 . S
C1555 C189 1.240 . S
C1559 C63 1.234 . S
C1573 C203 1.240 . S
C1577 C77 1.239 . S
C1591 C91 1.226 . S
C1595 C301 1.231 1_556 S
C1609 C315 1.237 1_556 S
C1613 C105 1.240 . S
C1627 C119 1.226 . S
C1631 C329 1.230 1_556 S
C1645 C133 1.236 . S
C1649 C427 1.229 . S
C1663 C147 1.234 . S
C1667 C441 1.227 . S
C1681 C455 1.235 . S
C1685 C161 1.228 . S
C1699 C217 1.234 . S
C1703 C343 1.240 . S
C1717 C231 1.229 . S
C1721 C357 1.227 . S
C1735 C245 1.229 . S
C1739 C371 1.227 . S
C1753 C259 1.231 . S
C1757 C469 1.239 . S
C1771 C273 1.236 . S
C1775 C483 1.229 . S
C1789 C497 1.228 . S
C1793 C287 1.235 . S
